# Generated by pormake.
# Topology sog, (5)-cn, num edge types: 1
# Building blocks:
#     Node 0, Type 0, BuildingBlock: XOMCOT_clean_sbu_0, # of connection points: 5
#     Node 1, Type 0, BuildingBlock: XOMCOT_clean_sbu_0, # of connection points: 5
#     Node 2, Type 0, BuildingBlock: XOMCOT_clean_sbu_0, # of connection points: 5
#     Node 3, Type 0, BuildingBlock: XOMCOT_clean_sbu_0, # of connection points: 5
#     Node 4, Type 0, BuildingBlock: XOMCOT_clean_sbu_0, # of connection points: 5
#     Node 5, Type 0, BuildingBlock: XOMCOT_clean_sbu_0, # of connection points: 5
#     Node 6, Type 0, BuildingBlock: XOMCOT_clean_sbu_0, # of connection points: 5
#     Node 7, Type 0, BuildingBlock: XOMCOT_clean_sbu_0, # of connection points: 5
#     Node 8, Type 0, BuildingBlock: XOMCOT_clean_sbu_0, # of connection points: 5
#     Node 9, Type 0, BuildingBlock: XOMCOT_clean_sbu_0, # of connection points: 5
#     Node 10, Type 0, BuildingBlock: XOMCOT_clean_sbu_0, # of connection points: 5
#     Node 11, Type 0, BuildingBlock: XOMCOT_clean_sbu_0, # of connection points: 5
#     Node 12, Type 0, BuildingBlock: XOMCOT_clean_sbu_0, # of connection points: 5
#     Node 13, Type 0, BuildingBlock: XOMCOT_clean_sbu_0, # of connection points: 5
#     Node 14, Type 0, BuildingBlock: XOMCOT_clean_sbu_0, # of connection points: 5
#     Node 15, Type 0, BuildingBlock: XOMCOT_clean_sbu_0, # of connection points: 5
#     Node 16, Type 0, BuildingBlock: XOMCOT_clean_sbu_0, # of connection points: 5
#     Node 17, Type 0, BuildingBlock: XOMCOT_clean_sbu_0, # of connection points: 5
#     Node 18, Type 0, BuildingBlock: XOMCOT_clean_sbu_0, # of connection points: 5
#     Node 19, Type 0, BuildingBlock: XOMCOT_clean_sbu_0, # of connection points: 5
#     Node 20, Type 0, BuildingBlock: XOMCOT_clean_sbu_0, # of connection points: 5
#     Node 21, Type 0, BuildingBlock: XOMCOT_clean_sbu_0, # of connection points: 5
#     Node 22, Type 0, BuildingBlock: XOMCOT_clean_sbu_0, # of connection points: 5
#     Node 23, Type 0, BuildingBlock: XOMCOT_clean_sbu_0, # of connection points: 5
#     Node 24, Type 0, BuildingBlock: XOMCOT_clean_sbu_0, # of connection points: 5
#     Node 25, Type 0, BuildingBlock: XOMCOT_clean_sbu_0, # of connection points: 5
#     Node 26, Type 0, BuildingBlock: XOMCOT_clean_sbu_0, # of connection points: 5
#     Node 27, Type 0, BuildingBlock: XOMCOT_clean_sbu_0, # of connection points: 5
#     Node 28, Type 0, BuildingBlock: XOMCOT_clean_sbu_0, # of connection points: 5
#     Node 29, Type 0, BuildingBlock: XOMCOT_clean_sbu_0, # of connection points: 5
#     Node 30, Type 0, BuildingBlock: XOMCOT_clean_sbu_0, # of connection points: 5
#     Node 31, Type 0, BuildingBlock: XOMCOT_clean_sbu_0, # of connection points: 5
#     Edge 32, Type (0, 0), BuildingBlock: EZIPEK_clean_linker_0, # of connection points: 2
#     Edge 33, Type (0, 0), BuildingBlock: EZIPEK_clean_linker_0, # of connection points: 2
#     Edge 34, Type (0, 0), BuildingBlock: EZIPEK_clean_linker_0, # of connection points: 2
#     Edge 35, Type (0, 0), BuildingBlock: EZIPEK_clean_linker_0, # of connection points: 2
#     Edge 36, Type (0, 0), BuildingBlock: EZIPEK_clean_linker_0, # of connection points: 2
#     Edge 37, Type (0, 0), BuildingBlock: EZIPEK_clean_linker_0, # of connection points: 2
#     Edge 38, Type (0, 0), BuildingBlock: EZIPEK_clean_linker_0, # of connection points: 2
#     Edge 39, Type (0, 0), BuildingBlock: EZIPEK_clean_linker_0, # of connection points: 2
#     Edge 40, Type (0, 0), BuildingBlock: EZIPEK_clean_linker_0, # of connection points: 2
#     Edge 41, Type (0, 0), BuildingBlock: EZIPEK_clean_linker_0, # of connection points: 2
#     Edge 42, Type (0, 0), BuildingBlock: EZIPEK_clean_linker_0, # of connection points: 2
#     Edge 43, Type (0, 0), BuildingBlock: EZIPEK_clean_linker_0, # of connection points: 2
#     Edge 44, Type (0, 0), BuildingBlock: EZIPEK_clean_linker_0, # of connection points: 2
#     Edge 45, Type (0, 0), BuildingBlock: EZIPEK_clean_linker_0, # of connection points: 2
#     Edge 46, Type (0, 0), BuildingBlock: EZIPEK_clean_linker_0, # of connection points: 2
#     Edge 47, Type (0, 0), BuildingBlock: EZIPEK_clean_linker_0, # of connection points: 2
#     Edge 48, Type (0, 0), BuildingBlock: EZIPEK_clean_linker_0, # of connection points: 2
#     Edge 49, Type (0, 0), BuildingBlock: EZIPEK_clean_linker_0, # of connection points: 2
#     Edge 50, Type (0, 0), BuildingBlock: EZIPEK_clean_linker_0, # of connection points: 2
#     Edge 51, Type (0, 0), BuildingBlock: EZIPEK_clean_linker_0, # of connection points: 2
#     Edge 52, Type (0, 0), BuildingBlock: EZIPEK_clean_linker_0, # of connection points: 2
#     Edge 53, Type (0, 0), BuildingBlock: EZIPEK_clean_linker_0, # of connection points: 2
#     Edge 54, Type (0, 0), BuildingBlock: EZIPEK_clean_linker_0, # of connection points: 2
#     Edge 55, Type (0, 0), BuildingBlock: EZIPEK_clean_linker_0, # of connection points: 2
#     Edge 56, Type (0, 0), BuildingBlock: EZIPEK_clean_linker_0, # of connection points: 2
#     Edge 57, Type (0, 0), BuildingBlock: EZIPEK_clean_linker_0, # of connection points: 2
#     Edge 58, Type (0, 0), BuildingBlock: EZIPEK_clean_linker_0, # of connection points: 2
#     Edge 59, Type (0, 0), BuildingBlock: EZIPEK_clean_linker_0, # of connection points: 2
#     Edge 60, Type (0, 0), BuildingBlock: EZIPEK_clean_linker_0, # of connection points: 2
#     Edge 61, Type (0, 0), BuildingBlock: EZIPEK_clean_linker_0, # of connection points: 2
#     Edge 62, Type (0, 0), BuildingBlock: EZIPEK_clean_linker_0, # of connection points: 2
#     Edge 63, Type (0, 0), BuildingBlock: EZIPEK_clean_linker_0, # of connection points: 2
#     Edge 64, Type (0, 0), BuildingBlock: EZIPEK_clean_linker_0, # of connection points: 2
#     Edge 65, Type (0, 0), BuildingBlock: EZIPEK_clean_linker_0, # of connection points: 2
#     Edge 66, Type (0, 0), BuildingBlock: EZIPEK_clean_linker_0, # of connection points: 2
#     Edge 67, Type (0, 0), BuildingBlock: EZIPEK_clean_linker_0, # of connection points: 2
#     Edge 68, Type (0, 0), BuildingBlock: EZIPEK_clean_linker_0, # of connection points: 2
#     Edge 69, Type (0, 0), BuildingBlock: EZIPEK_clean_linker_0, # of connection points: 2
#     Edge 70, Type (0, 0), BuildingBlock: EZIPEK_clean_linker_0, # of connection points: 2
#     Edge 71, Type (0, 0), BuildingBlock: EZIPEK_clean_linker_0, # of connection points: 2
#     Edge 72, Type (0, 0), BuildingBlock: EZIPEK_clean_linker_0, # of connection points: 2
#     Edge 73, Type (0, 0), BuildingBlock: EZIPEK_clean_linker_0, # of connection points: 2
#     Edge 74, Type (0, 0), BuildingBlock: EZIPEK_clean_linker_0, # of connection points: 2
#     Edge 75, Type (0, 0), BuildingBlock: EZIPEK_clean_linker_0, # of connection points: 2
#     Edge 76, Type (0, 0), BuildingBlock: EZIPEK_clean_linker_0, # of connection points: 2
#     Edge 77, Type (0, 0), BuildingBlock: EZIPEK_clean_linker_0, # of connection points: 2
#     Edge 78, Type (0, 0), BuildingBlock: EZIPEK_clean_linker_0, # of connection points: 2
#     Edge 79, Type (0, 0), BuildingBlock: EZIPEK_clean_linker_0, # of connection points: 2
#     Edge 80, Type (0, 0), BuildingBlock: EZIPEK_clean_linker_0, # of connection points: 2
#     Edge 81, Type (0, 0), BuildingBlock: EZIPEK_clean_linker_0, # of connection points: 2
#     Edge 82, Type (0, 0), BuildingBlock: EZIPEK_clean_linker_0, # of connection points: 2
#     Edge 83, Type (0, 0), BuildingBlock: EZIPEK_clean_linker_0, # of connection points: 2
#     Edge 84, Type (0, 0), BuildingBlock: EZIPEK_clean_linker_0, # of connection points: 2
#     Edge 85, Type (0, 0), BuildingBlock: EZIPEK_clean_linker_0, # of connection points: 2
#     Edge 86, Type (0, 0), BuildingBlock: EZIPEK_clean_linker_0, # of connection points: 2
#     Edge 87, Type (0, 0), BuildingBlock: EZIPEK_clean_linker_0, # of connection points: 2
#     Edge 88, Type (0, 0), BuildingBlock: EZIPEK_clean_linker_0, # of connection points: 2
#     Edge 89, Type (0, 0), BuildingBlock: EZIPEK_clean_linker_0, # of connection points: 2
#     Edge 90, Type (0, 0), BuildingBlock: EZIPEK_clean_linker_0, # of connection points: 2
#     Edge 91, Type (0, 0), BuildingBlock: EZIPEK_clean_linker_0, # of connection points: 2
#     Edge 92, Type (0, 0), BuildingBlock: EZIPEK_clean_linker_0, # of connection points: 2
#     Edge 93, Type (0, 0), BuildingBlock: EZIPEK_clean_linker_0, # of connection points: 2
#     Edge 94, Type (0, 0), BuildingBlock: EZIPEK_clean_linker_0, # of connection points: 2
#     Edge 95, Type (0, 0), BuildingBlock: EZIPEK_clean_linker_0, # of connection points: 2
#     Edge 96, Type (0, 0), BuildingBlock: EZIPEK_clean_linker_0, # of connection points: 2
#     Edge 97, Type (0, 0), BuildingBlock: EZIPEK_clean_linker_0, # of connection points: 2
#     Edge 98, Type (0, 0), BuildingBlock: EZIPEK_clean_linker_0, # of connection points: 2
#     Edge 99, Type (0, 0), BuildingBlock: EZIPEK_clean_linker_0, # of connection points: 2
#     Edge 100, Type (0, 0), BuildingBlock: EZIPEK_clean_linker_0, # of connection points: 2
#     Edge 101, Type (0, 0), BuildingBlock: EZIPEK_clean_linker_0, # of connection points: 2
#     Edge 102, Type (0, 0), BuildingBlock: EZIPEK_clean_linker_0, # of connection points: 2
#     Edge 103, Type (0, 0), BuildingBlock: EZIPEK_clean_linker_0, # of connection points: 2
#     Edge 104, Type (0, 0), BuildingBlock: EZIPEK_clean_linker_0, # of connection points: 2
#     Edge 105, Type (0, 0), BuildingBlock: EZIPEK_clean_linker_0, # of connection points: 2
#     Edge 106, Type (0, 0), BuildingBlock: EZIPEK_clean_linker_0, # of connection points: 2
#     Edge 107, Type (0, 0), BuildingBlock: EZIPEK_clean_linker_0, # of connection points: 2
#     Edge 108, Type (0, 0), BuildingBlock: EZIPEK_clean_linker_0, # of connection points: 2
#     Edge 109, Type (0, 0), BuildingBlock: EZIPEK_clean_linker_0, # of connection points: 2
#     Edge 110, Type (0, 0), BuildingBlock: EZIPEK_clean_linker_0, # of connection points: 2
#     Edge 111, Type (0, 0), BuildingBlock: EZIPEK_clean_linker_0, # of connection points: 2
# Relax obj value: 0.174
# Max RMSD: 0.192
# Mean RMSD: 0.192
data_MOF--net-sog--node1-XOMCOT_clean_sbu_0--edge1-EZIPEK_clean_linker_0
_symmetry_space_group_name_H-M    P1
_symmetry_Int_Tables_number       1
_symmetry_cell_setting            triclinic
loop_
_symmetry_equiv_pos_as_xyz
'x, y, z'
_cell_length_a     61.728311
_cell_length_b     13.439395
_cell_length_c     90.431162
_cell_angle_alpha  89.963713
_cell_angle_beta   90.046058
_cell_angle_gamma 89.990188
loop_
_atom_site_label
_atom_site_type_symbol
_atom_site_fract_x
_atom_site_fract_y
_atom_site_fract_z
_atom_type_partial_charge
Co0 Co 0.45032 0.13758 0.04172 0.0
C1 C 0.44839 0.91629 0.04268 0.0
C2 C 0.41659 0.97704 0.04021 0.0
C3 C 0.41503 0.87462 0.04008 0.0
N4 N 0.43749 1.0039 0.0423 0.0
N5 N 0.4351 0.83722 0.04153 0.0
H6 H 0.46581 0.9094 0.04329 0.0
H7 H 0.40329 0.02703 0.03822 0.0
C8 C 0.4055 0.19787 0.05265 0.0
O9 O 0.40603 0.12917 0.06299 0.0
N10 N 0.46307 0.26924 0.04077 0.0
C11 C 0.48257 0.29707 0.04611 0.0
C12 C 0.4837 0.3997 0.04609 0.0
C13 C 0.4527 0.35495 0.03748 0.0
N14 N 0.46479 0.43528 0.04082 0.0
C15 C 0.46442 0.06174 0.07003 0.0
C16 C 0.45003 0.22147 0.08656 0.0
C17 C 0.45896 0.13933 0.09383 0.0
C18 C 0.46681 0.05991 0.08539 0.0
C19 C 0.44805 0.22032 0.07118 0.0
N20 N 0.45409 0.13884 0.06315 0.0
H21 H 0.47111 1.00139 0.06373 0.0
H22 H 0.44118 0.28452 0.06576 0.0
H23 H 0.49452 0.24659 0.05062 0.0
H24 H 0.43615 0.35943 0.03361 0.0
O25 O 0.47781 0.07952 0.03623 0.0
O26 O 0.45237 0.12658 0.02038 0.0
O27 O 0.42081 0.20413 0.04317 0.0
C28 C 0.47127 0.08581 0.02259 0.0
H29 H 0.40047 0.83103 0.03846 0.0
H30 H 0.49674 0.44474 0.05047 0.0
H31 H 0.44431 0.2853 0.09275 0.0
H32 H 0.47445 0.99658 0.09067 0.0
Co33 Co 0.79288 0.06059 0.03875 0.0
C34 C 0.79509 0.27824 0.04117 0.0
C35 C 0.82229 0.22066 0.02908 0.0
C36 C 0.82264 0.3233 0.02822 0.0
N37 N 0.80501 0.19281 0.0372 0.0
N38 N 0.80548 0.35859 0.03578 0.0
H39 H 0.77984 0.28144 0.04705 0.0
H40 H 0.83305 0.16997 0.0234 0.0
C41 C 0.83071 0.93416 0.04763 0.0
O42 O 0.81859 0.90163 0.05855 0.0
N43 N 0.78014 0.92697 0.03964 0.0
C44 C 0.75986 0.90045 0.04375 0.0
C45 C 0.75788 0.79824 0.04305 0.0
C46 C 0.78947 0.84039 0.0354 0.0
N47 N 0.77664 0.76128 0.03791 0.0
C48 C 0.77443 0.06662 0.06814 0.0
C49 C 0.81284 0.10858 0.08261 0.0
C50 C 0.79413 0.09136 0.09092 0.0
C51 C 0.7746 0.07316 0.08356 0.0
C52 C 0.81185 0.10264 0.06722 0.0
N53 N 0.79316 0.07465 0.06022 0.0
H54 H 0.75916 0.05727 0.06263 0.0
H55 H 0.82629 0.11849 0.0609 0.0
H56 H 0.74706 0.95099 0.0468 0.0
H57 H 0.80536 0.83387 0.03064 0.0
O58 O 0.76473 0.11665 0.03463 0.0
O59 O 0.78752 0.06316 0.0177 0.0
O60 O 0.82328 1.00053 0.03877 0.0
C61 C 0.76897 0.10506 0.02065 0.0
H62 H 0.8339 0.36832 0.02195 0.0
H63 H 0.74394 0.75438 0.04624 0.0
H64 H 0.82804 0.12632 0.08799 0.0
H65 H 0.75967 0.06368 0.08969 0.0
Co66 Co 0.45195 0.11054 0.21011 0.0
C67 C 0.44782 0.32566 0.20538 0.0
C68 C 0.42461 0.27417 0.22126 0.0
C69 C 0.42455 0.37673 0.22134 0.0
N70 N 0.43906 0.24202 0.21115 0.0
N71 N 0.43919 0.40855 0.21138 0.0
H72 H 0.46168 0.32586 0.19804 0.0
H73 H 0.41605 0.22657 0.22893 0.0
C74 C 0.40286 0.05957 0.20682 0.0
O75 O 0.39566 0.1512 0.20589 0.0
N76 N 0.46503 0.97809 0.20933 0.0
C77 C 0.48591 0.95233 0.20691 0.0
C78 C 0.48755 0.84992 0.20647 0.0
C79 C 0.45448 0.8902 0.21073 0.0
N80 N 0.46773 0.8117 0.20885 0.0
C81 C 0.47409 0.11636 0.18205 0.0
C82 C 0.43782 0.15146 0.16492 0.0
C83 C 0.45771 0.1353 0.15794 0.0
C84 C 0.47611 0.11929 0.16666 0.0
C85 C 0.43651 0.14624 0.1803 0.0
N86 N 0.45428 0.12385 0.18867 0.0
H87 H 0.48854 0.10928 0.1886 0.0
H88 H 0.42118 0.16124 0.18537 0.0
H89 H 0.49922 1.00354 0.20554 0.0
H90 H 0.43741 0.88205 0.21304 0.0
O91 O 0.47916 0.17084 0.21596 0.0
O92 O 0.45492 0.10989 0.2315 0.0
O93 O 0.42299 0.04051 0.20832 0.0
C94 C 0.4731 0.15733 0.2296 0.0
H95 H 0.41575 0.42416 0.22891 0.0
H96 H 0.5021 0.80682 0.20456 0.0
H97 H 0.42338 0.16701 0.1585 0.0
H98 H 0.49188 0.10966 0.16161 0.0
Co99 Co 0.80154 0.13493 0.20689 0.0
C100 C 0.80405 0.91705 0.20476 0.0
C101 C 0.83199 0.97608 0.2159 0.0
C102 C 0.83268 0.87334 0.21669 0.0
N103 N 0.814 1.00309 0.20844 0.0
N104 N 0.81507 0.83708 0.20971 0.0
H105 H 0.78845 0.91306 0.19933 0.0
H106 H 0.84311 0.02732 0.22113 0.0
C107 C 0.83745 0.26755 0.1971 0.0
O108 O 0.82399 0.29935 0.18688 0.0
N109 N 0.78861 0.2682 0.20583 0.0
C110 C 0.7697 0.29732 0.19962 0.0
C111 C 0.76814 0.39964 0.20027 0.0
C112 C 0.79747 0.35353 0.21104 0.0
N113 N 0.78583 0.43442 0.20723 0.0
C114 C 0.78048 0.10956 0.17865 0.0
C115 C 0.81796 0.09105 0.16217 0.0
C116 C 0.798 0.09547 0.1549 0.0
C117 C 0.77903 0.10121 0.16329 0.0
C118 C 0.8186 0.09828 0.17757 0.0
N119 N 0.80014 0.11629 0.1855 0.0
H120 H 0.76576 0.10876 0.18502 0.0
H121 H 0.83403 0.09084 0.18309 0.0
H122 H 0.75766 0.24914 0.19486 0.0
H123 H 0.81266 0.35745 0.21695 0.0
O124 O 0.77388 0.07867 0.2122 0.0
O125 O 0.79789 0.13806 0.22814 0.0
O126 O 0.83164 0.19646 0.20567 0.0
C127 C 0.77953 0.09272 0.2259 0.0
H128 H 0.84461 0.82886 0.22247 0.0
H129 H 0.75548 0.44527 0.19551 0.0
H130 H 0.83287 0.08213 0.156 0.0
H131 H 0.76328 0.09984 0.15799 0.0
Co132 Co 0.548 0.86621 0.95827 0.0
C133 C 0.5498 0.08503 0.95759 0.0
C134 C 0.58026 0.02428 0.9647 0.0
C135 C 0.5815 0.12696 0.96526 0.0
N136 N 0.56037 0.99836 0.95986 0.0
N137 N 0.56225 0.16422 0.96091 0.0
H138 H 0.53318 0.0904 0.95386 0.0
H139 H 0.59278 0.97254 0.96799 0.0
C140 C 0.58436 0.7349 0.94854 0.0
O141 O 0.57097 0.70147 0.93838 0.0
N142 N 0.53526 0.73273 0.95721 0.0
C143 C 0.51631 0.70301 0.95112 0.0
C144 C 0.51496 0.60065 0.95178 0.0
C145 C 0.5443 0.64779 0.96242 0.0
N146 N 0.53279 0.5665 0.95866 0.0
C147 C 0.52734 0.88888 0.92978 0.0
C148 C 0.565 0.91555 0.91376 0.0
C149 C 0.54527 0.90849 0.90625 0.0
C150 C 0.52619 0.89789 0.91441 0.0
C151 C 0.56537 0.90586 0.92914 0.0
N152 N 0.54687 0.88482 0.93686 0.0
H153 H 0.51248 0.88759 0.93598 0.0
H154 H 0.58065 0.91449 0.93482 0.0
H155 H 0.50409 0.75075 0.94648 0.0
H156 H 0.55954 0.6444 0.96827 0.0
O157 O 0.52014 0.92163 0.96342 0.0
O158 O 0.54403 0.86322 0.97952 0.0
O159 O 0.57823 0.80534 0.95712 0.0
C160 C 0.52555 0.90745 0.97716 0.0
H161 H 0.59518 0.17082 0.96895 0.0
H162 H 0.50233 0.55458 0.94709 0.0
H163 H 0.57996 0.92786 0.90778 0.0
H164 H 0.51057 0.8972 0.90894 0.0
Co165 Co 0.20066 0.88859 0.95832 0.0
C166 C 0.19871 0.66736 0.95735 0.0
C167 C 0.16713 0.72799 0.96089 0.0
C168 C 0.16567 0.62551 0.9613 0.0
N169 N 0.1878 0.75491 0.95794 0.0
N170 N 0.18561 0.58824 0.95915 0.0
H171 H 0.21608 0.66056 0.95622 0.0
H172 H 0.15403 0.77816 0.96333 0.0
C173 C 0.1556 0.94682 0.94776 0.0
O174 O 0.15594 0.87582 0.93777 0.0
N175 N 0.21347 0.02019 0.95915 0.0
C176 C 0.23285 0.04807 0.95364 0.0
C177 C 0.23403 0.15072 0.95374 0.0
C178 C 0.20325 0.10585 0.96266 0.0
N179 N 0.2153 0.18622 0.95928 0.0
C180 C 0.21379 0.8127 0.92977 0.0
C181 C 0.19924 0.97365 0.91351 0.0
C182 C 0.2077 0.89124 0.90609 0.0
C183 C 0.21557 0.81105 0.91437 0.0
C184 C 0.19769 0.97195 0.92891 0.0
N185 N 0.20386 0.89005 0.93683 0.0
H186 H 0.22061 0.75198 0.93593 0.0
H187 H 0.19098 0.036 0.93445 0.0
H188 H 0.24467 0.99769 0.94897 0.0
H189 H 0.1868 0.11026 0.96673 0.0
O190 O 0.2282 0.82989 0.96352 0.0
O191 O 0.20321 0.87754 0.97962 0.0
O192 O 0.17113 0.95525 0.95706 0.0
C193 C 0.22192 0.83543 0.97722 0.0
H194 H 0.15132 0.58186 0.9636 0.0
H195 H 0.24697 0.19587 0.94925 0.0
H196 H 0.19349 0.03794 0.90743 0.0
H197 H 0.22285 0.74744 0.90895 0.0
Co198 Co 0.54131 0.95564 0.79003 0.0
C199 C 0.54331 0.73801 0.7924 0.0
C200 C 0.57056 0.79534 0.78034 0.0
C201 C 0.57085 0.69275 0.77946 0.0
N202 N 0.5533 0.82329 0.78846 0.0
N203 N 0.55366 0.65767 0.787 0.0
H204 H 0.52805 0.73495 0.79828 0.0
H205 H 0.58137 0.84596 0.77468 0.0
C206 C 0.57953 0.07939 0.79893 0.0
O207 O 0.56773 0.11239 0.80998 0.0
N208 N 0.52869 0.08946 0.7909 0.0
C209 C 0.5081 0.11543 0.79434 0.0
C210 C 0.50603 0.21757 0.79361 0.0
C211 C 0.53818 0.17634 0.787 0.0
N212 N 0.52508 0.25501 0.78909 0.0
C213 C 0.52293 0.95432 0.81951 0.0
C214 C 0.56083 0.90217 0.8339 0.0
C215 C 0.54235 0.92328 0.84225 0.0
C216 C 0.5231 0.94757 0.83494 0.0
C217 C 0.55994 0.91008 0.81851 0.0
N218 N 0.54148 0.94155 0.81153 0.0
H219 H 0.50776 0.96775 0.81406 0.0
H220 H 0.57427 0.89249 0.81218 0.0
H221 H 0.49514 0.06439 0.7969 0.0
H222 H 0.55432 0.1835 0.78267 0.0
O223 O 0.51312 0.90037 0.78572 0.0
O224 O 0.53623 0.95407 0.76899 0.0
O225 O 0.57174 0.01403 0.7901 0.0
C226 C 0.51758 0.91275 0.77177 0.0
H227 H 0.5821 0.64765 0.77319 0.0
H228 H 0.49181 0.26102 0.79629 0.0
H229 H 0.57582 0.88044 0.83924 0.0
H230 H 0.50833 0.96057 0.8411 0.0
Co231 Co 0.20822 0.84384 0.78982 0.0
C232 C 0.2064 0.06132 0.79234 0.0
C233 C 0.17909 1.00467 0.78023 0.0
C234 C 0.17886 0.10722 0.77939 0.0
N235 N 0.19636 0.97634 0.78835 0.0
N236 N 0.19608 0.14185 0.78696 0.0
H237 H 0.22167 0.06407 0.79822 0.0
H238 H 0.16827 0.95436 0.77453 0.0
C239 C 0.16931 0.72215 0.79814 0.0
O240 O 0.1805 0.6867 0.80933 0.0
N241 N 0.22074 0.70979 0.79061 0.0
C242 C 0.2415 0.68422 0.79365 0.0
C243 C 0.24364 0.58219 0.79293 0.0
C244 C 0.21114 0.62265 0.78697 0.0
N245 N 0.22443 0.54438 0.78882 0.0
C246 C 0.22668 0.84244 0.81918 0.0
C247 C 0.18923 0.89805 0.83375 0.0
C248 C 0.20782 0.87636 0.84201 0.0
C249 C 0.2268 0.84978 0.83457 0.0
C250 C 0.18976 0.88864 0.81837 0.0
N251 N 0.20805 0.85634 0.81131 0.0
H252 H 0.24172 0.82782 0.81366 0.0
H253 H 0.17537 0.90664 0.81211 0.0
H254 H 0.25452 0.73554 0.79594 0.0
H255 H 0.19485 0.61486 0.78295 0.0
O256 O 0.23646 0.89865 0.78573 0.0
O257 O 0.21335 0.84645 0.76885 0.0
O258 O 0.17773 0.78736 0.7896 0.0
C259 C 0.23204 0.88705 0.77176 0.0
H260 H 0.16765 0.15261 0.77312 0.0
H261 H 0.25803 0.53907 0.79533 0.0
H262 H 0.17442 0.92129 0.83916 0.0
H263 H 0.24165 0.83578 0.84063 0.0
Co264 Co 0.45274 0.64658 0.54165 0.0
C265 C 0.45101 0.42863 0.54418 0.0
C266 C 0.42194 0.48662 0.53435 0.0
C267 C 0.42148 0.38407 0.53339 0.0
N268 N 0.44046 0.51421 0.54112 0.0
N269 N 0.43982 0.34853 0.53951 0.0
H270 H 0.46716 0.42516 0.54883 0.0
H271 H 0.41029 0.53747 0.52957 0.0
C272 C 0.41661 0.77448 0.55245 0.0
O273 O 0.43053 0.80898 0.56219 0.0
N274 N 0.4655 0.78041 0.54133 0.0
C275 C 0.4863 0.80713 0.54395 0.0
C276 C 0.48819 0.90917 0.54285 0.0
C277 C 0.45565 0.86658 0.5374 0.0
N278 N 0.46879 0.94585 0.53888 0.0
C279 C 0.47476 0.64623 0.56996 0.0
C280 C 0.43875 0.59555 0.58649 0.0
C281 C 0.4583 0.61521 0.59374 0.0
C282 C 0.47657 0.63913 0.58533 0.0
C283 C 0.43763 0.60452 0.57114 0.0
N284 N 0.45521 0.63484 0.5631 0.0
H285 H 0.48922 0.65839 0.56365 0.0
H286 H 0.42246 0.58804 0.56569 0.0
H287 H 0.49949 0.75678 0.54624 0.0
H288 H 0.43912 0.8727 0.53366 0.0
O289 O 0.48019 0.59045 0.53615 0.0
O290 O 0.45536 0.64146 0.52037 0.0
O291 O 0.42254 0.70598 0.54347 0.0
C292 C 0.47425 0.60015 0.52242 0.0
H293 H 0.40925 0.33935 0.52796 0.0
H294 H 0.50251 0.95321 0.54506 0.0
H295 H 0.42445 0.57435 0.59268 0.0
H296 H 0.49211 0.65133 0.5906 0.0
Co297 Co 0.79892 0.62051 0.54089 0.0
C298 C 0.80147 0.83773 0.5449 0.0
C299 C 0.82934 0.78167 0.53343 0.0
C300 C 0.82991 0.88434 0.53305 0.0
N301 N 0.81144 0.75272 0.5408 0.0
N302 N 0.81219 0.91888 0.54007 0.0
H303 H 0.78608 0.84029 0.55057 0.0
H304 H 0.84033 0.73196 0.52777 0.0
C305 C 0.83722 0.49323 0.54901 0.0
O306 O 0.82573 0.45793 0.56005 0.0
N307 N 0.78596 0.48671 0.54037 0.0
C308 C 0.76513 0.46118 0.54318 0.0
C309 C 0.76306 0.35898 0.54269 0.0
C310 C 0.79563 0.39912 0.53699 0.0
N311 N 0.78238 0.32072 0.53892 0.0
C312 C 0.77947 0.60939 0.56988 0.0
C313 C 0.81665 0.65458 0.58555 0.0
C314 C 0.79768 0.6314 0.59325 0.0
C315 C 0.77881 0.61055 0.5853 0.0
C316 C 0.81656 0.65266 0.5701 0.0
N317 N 0.79843 0.6245 0.56246 0.0
H318 H 0.76456 0.59882 0.56398 0.0
H319 H 0.83119 0.67245 0.56426 0.0
H320 H 0.75211 0.51257 0.54544 0.0
H321 H 0.81204 0.3908 0.53329 0.0
O322 O 0.77079 0.67833 0.53699 0.0
O323 O 0.79431 0.63333 0.51984 0.0
O324 O 0.82926 0.56074 0.5406 0.0
C325 C 0.77583 0.67523 0.52305 0.0
H326 H 0.84148 0.92993 0.52714 0.0
H327 H 0.74869 0.31601 0.54518 0.0
H328 H 0.83136 0.6739 0.59143 0.0
H329 H 0.76369 0.59618 0.59098 0.0
Co330 Co 0.45516 0.60321 0.70997 0.0
C331 C 0.4538 0.82333 0.70786 0.0
C332 C 0.42318 0.76553 0.71476 0.0
C333 C 0.42239 0.86787 0.71564 0.0
N334 N 0.44271 0.73697 0.70948 0.0
N335 N 0.44171 0.90322 0.71132 0.0
H336 H 0.47088 0.82865 0.70546 0.0
H337 H 0.41075 0.71615 0.7187 0.0
C338 C 0.40932 0.55559 0.70024 0.0
O339 O 0.40988 0.63046 0.69089 0.0
N340 N 0.46781 0.47149 0.71097 0.0
C341 C 0.48762 0.44479 0.7061 0.0
C342 C 0.48923 0.34238 0.70649 0.0
C343 C 0.45772 0.38539 0.71443 0.0
N344 N 0.4704 0.30583 0.71169 0.0
C345 C 0.47001 0.6722 0.68143 0.0
C346 C 0.45172 0.51965 0.6652 0.0
C347 C 0.46172 0.59831 0.65776 0.0
C348 C 0.47154 0.67381 0.66601 0.0
C349 C 0.45047 0.52145 0.68062 0.0
N350 N 0.45838 0.60008 0.68851 0.0
H351 H 0.4784 0.72852 0.68758 0.0
H352 H 0.44262 0.46049 0.6862 0.0
H353 H 0.49957 0.49579 0.70172 0.0
H354 H 0.44105 0.38 0.71801 0.0
O355 O 0.48269 0.66072 0.71519 0.0
O356 O 0.45765 0.61658 0.73119 0.0
O357 O 0.4254 0.5389 0.70883 0.0
C358 C 0.4767 0.6556 0.72895 0.0
H359 H 0.40916 0.91253 0.71983 0.0
H360 H 0.50263 0.29793 0.7025 0.0
H361 H 0.4445 0.4586 0.65913 0.0
H362 H 0.48011 0.73389 0.66058 0.0
Co363 Co 0.7987 0.66454 0.70929 0.0
C364 C 0.80024 0.4457 0.70865 0.0
C365 C 0.8308 0.50585 0.71567 0.0
C366 C 0.83197 0.4032 0.71624 0.0
N367 N 0.8109 0.53211 0.71086 0.0
N368 N 0.81266 0.36633 0.71195 0.0
H369 H 0.78359 0.44066 0.70497 0.0
H370 H 0.84338 0.55737 0.71892 0.0
C371 C 0.83517 0.79303 0.69899 0.0
O372 O 0.82156 0.82782 0.68907 0.0
N373 N 0.78611 0.79826 0.70831 0.0
C374 C 0.76658 0.82743 0.70305 0.0
C375 C 0.76512 0.9297 0.70377 0.0
C376 C 0.79541 0.88335 0.71319 0.0
N377 N 0.78344 0.96419 0.70994 0.0
C378 C 0.81583 0.62106 0.68034 0.0
C379 C 0.77723 0.64166 0.66517 0.0
C380 C 0.79641 0.62729 0.65724 0.0
C381 C 0.81576 0.61332 0.66496 0.0
C382 C 0.77805 0.64804 0.68059 0.0
N383 N 0.79742 0.64617 0.68789 0.0
H384 H 0.83087 0.60875 0.68616 0.0
H385 H 0.76309 0.6524 0.68661 0.0
H386 H 0.75391 0.77916 0.69914 0.0
H387 H 0.81104 0.88723 0.71854 0.0
O388 O 0.7708 0.61041 0.71456 0.0
O389 O 0.79506 0.66739 0.73056 0.0
O390 O 0.829 0.72391 0.70782 0.0
C391 C 0.77651 0.62365 0.72827 0.0
H392 H 0.84563 0.35908 0.7199 0.0
H393 H 0.75194 0.97542 0.69972 0.0
H394 H 0.76183 0.64773 0.6595 0.0
H395 H 0.83073 0.59823 0.65913 0.0
Co396 Co 0.53591 0.29238 0.46127 0.0
C397 C 0.53765 0.50956 0.45855 0.0
C398 C 0.56502 0.45454 0.47077 0.0
C399 C 0.56517 0.55727 0.47133 0.0
N400 N 0.54776 0.42511 0.46274 0.0
N401 N 0.5479 0.59087 0.46369 0.0
H402 H 0.5224 0.51143 0.45264 0.0
H403 H 0.57593 0.40498 0.47655 0.0
C404 C 0.57603 0.17813 0.45227 0.0
O405 O 0.56572 0.14611 0.44049 0.0
N406 N 0.52317 0.1586 0.46032 0.0
C407 C 0.50188 0.13526 0.45911 0.0
C408 C 0.49942 0.03319 0.45941 0.0
C409 C 0.53306 0.06952 0.462 0.0
N410 N 0.51915 0.9929 0.4612 0.0
C411 C 0.51731 0.28659 0.43197 0.0
C412 C 0.55392 0.35372 0.41741 0.0
C413 C 0.53551 0.3291 0.40919 0.0
C414 C 0.51688 0.29713 0.41659 0.0
C415 C 0.55351 0.34364 0.43277 0.0
N416 N 0.53576 0.30554 0.43981 0.0
H417 H 0.50264 0.2652 0.43752 0.0
H418 H 0.56756 0.36579 0.43906 0.0
H419 H 0.4888 0.18836 0.45819 0.0
H420 H 0.54994 0.0585 0.46394 0.0
O421 O 0.5078 0.34831 0.46554 0.0
O422 O 0.53099 0.29479 0.48227 0.0
O423 O 0.56654 0.2355 0.46152 0.0
C424 C 0.51244 0.33715 0.4795 0.0
H425 H 0.57634 0.60352 0.47748 0.0
H426 H 0.48444 0.99186 0.45846 0.0
H427 H 0.56839 0.38123 0.41202 0.0
H428 H 0.50219 0.28037 0.41053 0.0
Co429 Co 0.20671 0.42791 0.46296 0.0
C430 C 0.20476 0.21042 0.46068 0.0
C431 C 0.17767 0.26777 0.47292 0.0
C432 C 0.17736 0.1652 0.47379 0.0
N433 N 0.19484 0.29563 0.4647 0.0
N434 N 0.19444 0.13013 0.46613 0.0
H435 H 0.21992 0.20735 0.45469 0.0
H436 H 0.16694 0.31844 0.47863 0.0
C437 C 0.1684 0.55027 0.45371 0.0
O438 O 0.18029 0.58419 0.44277 0.0
N439 N 0.21918 0.56182 0.46187 0.0
C440 C 0.2397 0.58806 0.45831 0.0
C441 C 0.24171 0.69017 0.45901 0.0
C442 C 0.20964 0.64856 0.46577 0.0
N443 N 0.22268 0.72735 0.4636 0.0
C444 C 0.22588 0.4207 0.43383 0.0
C445 C 0.18823 0.37057 0.41902 0.0
C446 C 0.20714 0.38769 0.41092 0.0
C447 C 0.22625 0.41087 0.41846 0.0
C448 C 0.18861 0.38111 0.43438 0.0
N449 N 0.20697 0.41184 0.44152 0.0
H450 H 0.24093 0.43293 0.43949 0.0
H451 H 0.17402 0.36546 0.44055 0.0
H452 H 0.2527 0.53731 0.45573 0.0
H453 H 0.1935 0.65546 0.47014 0.0
O454 O 0.23488 0.3738 0.46753 0.0
O455 O 0.21147 0.42825 0.48403 0.0
O456 O 0.1762 0.4851 0.46257 0.0
C457 C 0.23019 0.38709 0.48142 0.0
H458 H 0.16617 0.12007 0.4801 0.0
H459 H 0.25589 0.73379 0.45628 0.0
H460 H 0.17333 0.34953 0.41351 0.0
H461 H 0.24132 0.42081 0.4125 0.0
Co462 Co 0.54721 0.40073 0.29348 0.0
C463 C 0.55144 0.18562 0.29826 0.0
C464 C 0.57442 0.23691 0.28222 0.0
C465 C 0.57437 0.1343 0.2821 0.0
N466 N 0.56018 0.26928 0.29245 0.0
N467 N 0.55986 0.10256 0.29215 0.0
H468 H 0.53769 0.18551 0.30569 0.0
H469 H 0.58289 0.28441 0.27449 0.0
C470 C 0.59626 0.45236 0.29625 0.0
O471 O 0.60332 0.36072 0.29763 0.0
N472 N 0.53401 0.53271 0.29437 0.0
C473 C 0.51351 0.55804 0.29803 0.0
C474 C 0.51184 0.66054 0.29846 0.0
C475 C 0.54429 0.62069 0.29229 0.0
N476 N 0.53126 0.6991 0.29488 0.0
C477 C 0.52456 0.37824 0.32101 0.0
C478 C 0.56064 0.36923 0.33906 0.0
C479 C 0.54008 0.36529 0.34545 0.0
C480 C 0.52185 0.36813 0.33629 0.0
C481 C 0.5626 0.37787 0.32375 0.0
N482 N 0.54473 0.38686 0.31492 0.0
H483 H 0.51037 0.37701 0.31409 0.0
H484 H 0.57854 0.37522 0.31915 0.0
H485 H 0.50055 0.50647 0.30032 0.0
H486 H 0.56106 0.62872 0.2891 0.0
O487 O 0.52006 0.34006 0.28764 0.0
O488 O 0.54419 0.40172 0.2721 0.0
O489 O 0.57611 0.47168 0.29501 0.0
C490 C 0.52604 0.35413 0.27401 0.0
H491 H 0.583 0.08683 0.27444 0.0
H492 H 0.4976 0.70346 0.3013 0.0
H493 H 0.57507 0.36394 0.34586 0.0
H494 H 0.50571 0.36228 0.3409 0.0
Co495 Co 0.20331 0.35326 0.29448 0.0
C496 C 0.199 0.57249 0.29833 0.0
C497 C 0.17447 0.51271 0.28417 0.0
C498 C 0.17344 0.61515 0.28349 0.0
N499 N 0.19028 0.48544 0.29366 0.0
N500 N 0.18914 0.6522 0.29223 0.0
H501 H 0.21339 0.57862 0.305 0.0
H502 H 0.16582 0.46186 0.27707 0.0
C503 C 0.15531 0.30589 0.29908 0.0
O504 O 0.15285 0.38504 0.30743 0.0
N505 N 0.21629 0.22195 0.29493 0.0
C506 C 0.23419 0.19425 0.30243 0.0
C507 C 0.23552 0.09158 0.30237 0.0
C508 C 0.2072 0.13618 0.2902 0.0
N509 N 0.21838 0.05574 0.29482 0.0
C510 C 0.21891 0.41553 0.32298 0.0
C511 C 0.1919 0.29854 0.33999 0.0
C512 C 0.20621 0.36356 0.34701 0.0
C513 C 0.22009 0.42155 0.33839 0.0
C514 C 0.19127 0.295 0.32458 0.0
N515 N 0.20393 0.35616 0.31616 0.0
H516 H 0.23038 0.45787 0.31661 0.0
H517 H 0.18079 0.24184 0.31962 0.0
H518 H 0.24476 0.24469 0.30833 0.0
H519 H 0.19205 0.13187 0.28422 0.0
O520 O 0.23145 0.41209 0.29062 0.0
O521 O 0.20844 0.36334 0.27341 0.0
O522 O 0.17375 0.28593 0.29341 0.0
C523 C 0.2267 0.40688 0.27666 0.0
H524 H 0.16334 0.6588 0.27615 0.0
H525 H 0.24731 0.04658 0.3082 0.0
H526 H 0.18137 0.25053 0.34639 0.0
H527 H 0.23181 0.47058 0.34353 0.0
Co528 Co 0.95704 0.17309 0.54081 0.0
C529 C 0.95294 0.95751 0.54492 0.0
C530 C 0.93144 0.0101 0.528 0.0
C531 C 0.93161 0.90765 0.52763 0.0
N532 N 0.94448 0.04149 0.53904 0.0
N533 N 0.94526 0.87515 0.5382 0.0
H534 H 0.96598 0.95696 0.55293 0.0
H535 H 0.92381 0.0584 0.51996 0.0
C536 C 0.90786 0.21833 0.54308 0.0
O537 O 0.90143 0.12537 0.54354 0.0
N538 N 0.97003 0.30549 0.54207 0.0
C539 C 0.99128 0.32992 0.54205 0.0
C540 C 0.99329 0.4322 0.54228 0.0
C541 C 0.9595 0.39393 0.54198 0.0
N542 N 0.97326 0.47165 0.54216 0.0
C543 C 0.97777 0.17346 0.56928 0.0
C544 C 0.94199 0.11351 0.58536 0.0
C545 C 0.96138 0.13322 0.59278 0.0
C546 C 0.9795 0.16279 0.58461 0.0
C547 C 0.94094 0.12583 0.57005 0.0
N548 N 0.95848 0.15826 0.56222 0.0
H549 H 0.99207 0.19246 0.56308 0.0
H550 H 0.92606 0.10743 0.56455 0.0
H551 H 0.00454 0.27752 0.54169 0.0
H552 H 0.94213 0.40311 0.54152 0.0
O553 O 0.98448 0.11419 0.53562 0.0
O554 O 0.96106 0.17497 0.51962 0.0
O555 O 0.92786 0.24132 0.54212 0.0
C556 C 0.97956 0.13057 0.52184 0.0
H557 H 0.92382 0.8609 0.51946 0.0
H558 H 0.00822 0.47443 0.54216 0.0
H559 H 0.9278 0.08865 0.59136 0.0
H560 H 0.99486 0.17671 0.59003 0.0
Co561 Co 0.29591 0.0837 0.54214 0.0
C562 C 0.29736 0.30411 0.54369 0.0
C563 C 0.32801 0.24536 0.53702 0.0
C564 C 0.32893 0.3477 0.5361 0.0
N565 N 0.30837 0.21746 0.54221 0.0
N566 N 0.30959 0.38363 0.54028 0.0
H567 H 0.28028 0.30996 0.54605 0.0
H568 H 0.34047 0.19554 0.53327 0.0
C569 C 0.3418 0.03551 0.55186 0.0
O570 O 0.34159 0.11123 0.56104 0.0
N571 N 0.28332 0.95194 0.54156 0.0
C572 C 0.26385 0.92462 0.54697 0.0
C573 C 0.26239 0.82214 0.54659 0.0
C574 C 0.29332 0.8663 0.53778 0.0
N575 N 0.28095 0.78631 0.54084 0.0
C576 C 0.28099 0.1566 0.57034 0.0
C577 C 0.29981 0.00877 0.58726 0.0
C578 C 0.28974 0.08884 0.59432 0.0
C579 C 0.27962 0.16174 0.58573 0.0
C580 C 0.30086 0.00696 0.57183 0.0
N581 N 0.29278 0.08366 0.56359 0.0
H582 H 0.27237 0.21095 0.56394 0.0
H583 H 0.30868 0.94487 0.56651 0.0
H584 H 0.2521 0.97523 0.55166 0.0
H585 H 0.30975 0.86159 0.5337 0.0
O586 O 0.26834 0.1404 0.53688 0.0
O587 O 0.29328 0.09427 0.52091 0.0
O588 O 0.32562 0.01919 0.54336 0.0
C589 C 0.27425 0.13349 0.52312 0.0
H590 H 0.34231 0.392 0.53205 0.0
H591 H 0.24931 0.77717 0.55092 0.0
H592 H 0.30723 0.94952 0.59362 0.0
H593 H 0.27097 0.22267 0.59088 0.0
Co594 Co 0.9587 0.08404 0.70874 0.0
C595 C 0.95733 0.30445 0.70729 0.0
C596 C 0.9268 0.24591 0.71423 0.0
C597 C 0.92593 0.34821 0.71518 0.0
N598 N 0.94631 0.21791 0.70885 0.0
N599 N 0.9452 0.38398 0.71083 0.0
H600 H 0.97437 0.31018 0.70479 0.0
H601 H 0.91437 0.19621 0.71808 0.0
C602 C 0.91259 0.03832 0.69928 0.0
O603 O 0.91297 0.11417 0.6901 0.0
N604 N 0.97123 0.95223 0.70914 0.0
C605 C 0.99061 0.92494 0.70359 0.0
C606 C 0.99209 0.82249 0.70398 0.0
C607 C 0.96131 0.86664 0.71302 0.0
N608 N 0.97365 0.78669 0.70989 0.0
C609 C 0.9736 0.15791 0.68055 0.0
C610 C 0.95444 0.01167 0.66354 0.0
C611 C 0.96466 0.09158 0.65653 0.0
C612 C 0.97493 0.16371 0.66516 0.0
C613 C 0.95344 0.00919 0.67898 0.0
N614 N 0.9617 0.08516 0.68727 0.0
H615 H 0.98239 0.21148 0.68698 0.0
H616 H 0.94559 0.94704 0.68427 0.0
H617 H 0.00229 0.97559 0.69881 0.0
H618 H 0.94495 0.86198 0.71725 0.0
O619 O 0.98634 0.14011 0.71402 0.0
O620 O 0.96142 0.09319 0.72996 0.0
O621 O 0.92892 0.02008 0.70757 0.0
C622 C 0.98048 0.13216 0.72779 0.0
H623 H 0.91264 0.39258 0.71936 0.0
H624 H 0.00512 0.77751 0.69957 0.0
H625 H 0.94692 0.95294 0.65714 0.0
H626 H 0.9837 0.22444 0.66005 0.0
Co627 Co 0.29601 0.17981 0.70988 0.0
C628 C 0.2978 0.96203 0.70778 0.0
C629 C 0.32586 0.02001 0.7189 0.0
C630 C 0.3262 0.91748 0.71992 0.0
N631 N 0.30805 0.04749 0.71127 0.0
N632 N 0.3085 0.88201 0.71298 0.0
H633 H 0.28218 0.95863 0.70235 0.0
H634 H 0.33706 0.07096 0.72412 0.0
C635 C 0.33275 0.30527 0.69949 0.0
O636 O 0.31928 0.33932 0.68942 0.0
N637 N 0.28342 0.31377 0.7093 0.0
C638 C 0.26286 0.34066 0.70595 0.0
C639 C 0.26091 0.44267 0.70699 0.0
C640 C 0.29302 0.39981 0.71352 0.0
N641 N 0.28 0.47911 0.71162 0.0
C642 C 0.27525 0.17136 0.6812 0.0
C643 C 0.31198 0.11686 0.66572 0.0
C644 C 0.29262 0.13198 0.65802 0.0
C645 C 0.274 0.15818 0.66591 0.0
C646 C 0.31255 0.1319 0.68098 0.0
N647 N 0.29458 0.16367 0.68846 0.0
H648 H 0.26052 0.18449 0.68718 0.0
H649 H 0.32752 0.11783 0.6868 0.0
H650 H 0.24979 0.29048 0.7033 0.0
H651 H 0.30928 0.40565 0.71781 0.0
O652 O 0.26824 0.12556 0.71497 0.0
O653 O 0.29233 0.17924 0.73108 0.0
O654 O 0.32637 0.23781 0.7085 0.0
C655 C 0.27348 0.13829 0.72877 0.0
H656 H 0.3379 0.87269 0.72586 0.0
H657 H 0.24674 0.48681 0.70437 0.0
H658 H 0.32654 0.09395 0.65996 0.0
H659 H 0.2586 0.16698 0.66031 0.0
Co660 Co 0.04498 0.8488 0.45869 0.0
C661 C 0.04911 0.06406 0.45422 0.0
C662 C 0.06988 0.0129 0.47165 0.0
C663 C 0.06965 0.11527 0.47187 0.0
N664 N 0.05737 0.98062 0.46038 0.0
N665 N 0.05644 0.14692 0.46099 0.0
H666 H 0.03637 0.06393 0.44598 0.0
H667 H 0.0772 0.96522 0.4799 0.0
C668 C 0.09421 0.8078 0.45696 0.0
O669 O 0.09987 0.90166 0.45599 0.0
N670 N 0.03208 0.71646 0.45743 0.0
C671 C 0.01082 0.6923 0.45691 0.0
C672 C 0.00879 0.59011 0.45654 0.0
C673 C 0.04258 0.62804 0.45766 0.0
N674 N 0.02879 0.55051 0.45708 0.0
C675 C 0.02406 0.85276 0.43038 0.0
C676 C 0.06041 0.89626 0.41376 0.0
C677 C 0.04054 0.8834 0.40661 0.0
C678 C 0.02215 0.86214 0.41504 0.0
C679 C 0.06158 0.8862 0.42911 0.0
N680 N 0.04369 0.86202 0.43723 0.0
H681 H 0.00962 0.83964 0.43677 0.0
H682 H 0.07683 0.90016 0.43435 0.0
H683 H 0.99757 0.74478 0.45698 0.0
H684 H 0.05993 0.61889 0.45846 0.0
O685 O 0.01737 0.9074 0.46368 0.0
O686 O 0.04067 0.84775 0.47984 0.0
O687 O 0.07437 0.78163 0.45787 0.0
C688 C 0.02215 0.8915 0.47751 0.0
H689 H 0.07701 0.16256 0.48016 0.0
H690 H 0.99385 0.548 0.45624 0.0
H691 H 0.07484 0.91492 0.40754 0.0
H692 H 0.00645 0.8539 0.40982 0.0
Co693 Co 0.70412 0.91439 0.45748 0.0
C694 C 0.69981 0.69486 0.4537 0.0
C695 C 0.67544 0.75505 0.46791 0.0
C696 C 0.6744 0.65265 0.46865 0.0
N697 N 0.69112 0.78209 0.45832 0.0
N698 N 0.68999 0.61536 0.45987 0.0
H699 H 0.71416 0.6884 0.44702 0.0
H700 H 0.66694 0.80603 0.47507 0.0
C701 C 0.65621 0.96121 0.45318 0.0
O702 O 0.65408 0.88354 0.4445 0.0
N703 N 0.7171 0.04564 0.45704 0.0
C704 C 0.73475 0.07359 0.4493 0.0
C705 C 0.73607 0.17623 0.44942 0.0
C706 C 0.70818 0.13119 0.46198 0.0
N707 N 0.71918 0.2118 0.45724 0.0
C708 C 0.71799 0.85289 0.42848 0.0
C709 C 0.69167 0.97981 0.41252 0.0
C710 C 0.70502 0.91347 0.40494 0.0
C711 C 0.71859 0.85039 0.41303 0.0
C712 C 0.69168 0.97991 0.42793 0.0
N713 N 0.70388 0.9138 0.43582 0.0
H714 H 0.72936 0.80745 0.43447 0.0
H715 H 0.68218 0.03481 0.43335 0.0
H716 H 0.74508 0.02336 0.44318 0.0
H717 H 0.69323 0.13523 0.46819 0.0
O718 O 0.73238 0.85531 0.46072 0.0
O719 O 0.71001 0.9028 0.4784 0.0
O720 O 0.67453 0.98114 0.45905 0.0
C721 C 0.72814 0.85956 0.47476 0.0
H722 H 0.66439 0.60922 0.47607 0.0
H723 H 0.74761 0.22141 0.44341 0.0
H724 H 0.6815 0.03192 0.40655 0.0
H725 H 0.72967 0.80046 0.40745 0.0
Co726 Co 0.03577 0.96819 0.29087 0.0
C727 C 0.03752 0.75083 0.29335 0.0
C728 C 0.06479 0.80628 0.28111 0.0
C729 C 0.06498 0.70355 0.28051 0.0
N730 N 0.04757 0.83543 0.28918 0.0
N731 N 0.04776 0.66969 0.28816 0.0
H732 H 0.02233 0.74871 0.29932 0.0
H733 H 0.07567 0.85603 0.27535 0.0
C734 C 0.076 0.08184 0.29969 0.0
O735 O 0.06582 0.11245 0.31159 0.0
N736 N 0.0231 0.10204 0.29198 0.0
C737 C 0.00182 0.12557 0.29324 0.0
C738 C -0.00061 0.22765 0.29289 0.0
C739 C 0.03299 0.19099 0.29021 0.0
N740 N 0.01911 0.26772 0.29101 0.0
C741 C 0.01825 0.97637 0.3205 0.0
C742 C 0.05465 0.90086 0.33442 0.0
C743 C 0.03671 0.92783 0.34294 0.0
C744 C 0.01824 0.96485 0.33586 0.0
C745 C 0.05395 0.91346 0.3191 0.0
N746 N 0.03625 0.95456 0.31235 0.0
H747 H 0.00359 1.00077 0.31521 0.0
H748 H 0.06776 0.89058 0.31263 0.0
H749 H 0.98874 0.07256 0.29423 0.0
H750 H 0.04985 0.20181 0.28815 0.0
O751 O 0.00753 0.91238 0.28694 0.0
O752 O 0.03016 0.96594 0.2699 0.0
O753 O 0.06641 0.02522 0.29036 0.0
C754 C 0.01171 0.9235 0.27293 0.0
H755 H 0.07617 0.65748 0.27435 0.0
H756 H 0.98442 0.26912 0.29385 0.0
H757 H 0.06902 0.87014 0.33957 0.0
H758 H 0.0039 0.98385 0.34215 0.0
Co759 Co 0.70145 0.8708 0.289 0.0
C760 C 0.69897 0.08851 0.29113 0.0
C761 C 0.67147 0.03015 0.27942 0.0
C762 C 0.67084 0.13292 0.27872 0.0
N763 N 0.68917 1.00276 0.28716 0.0
N764 N 0.68816 0.16872 0.28607 0.0
H765 H 0.71434 0.09215 0.29688 0.0
H766 H 0.66053 0.97919 0.27395 0.0
C767 C 0.66443 0.74285 0.29866 0.0
O768 O 0.67695 0.71268 0.30952 0.0
N769 N 0.71421 0.73735 0.29041 0.0
C770 C 0.73364 0.70908 0.29596 0.0
C771 C 0.73522 0.6067 0.29552 0.0
C772 C 0.70507 0.65136 0.28575 0.0
N773 N 0.71708 0.57117 0.28924 0.0
C774 C 0.72155 0.89092 0.31762 0.0
C775 C 0.68373 0.92242 0.33326 0.0
C776 C 0.70323 0.91132 0.34096 0.0
C777 C 0.72242 0.89863 0.333 0.0
C778 C 0.68365 0.91391 0.31787 0.0
N779 N 0.70217 0.89008 0.31036 0.0
H780 H 0.73652 0.88783 0.31159 0.0
H781 H 0.66859 0.92473 0.31199 0.0
H782 H 0.74617 0.75801 0.2999 0.0
H783 H 0.68971 0.64634 0.28017 0.0
O784 O 0.72933 0.92657 0.28406 0.0
O785 O 0.7058 0.86689 0.26782 0.0
O786 O 0.6712 0.81019 0.28975 0.0
C787 C 0.72408 0.91238 0.27029 0.0
H788 H 0.65917 0.17775 0.27276 0.0
H789 H 0.74841 0.56172 0.29972 0.0
H790 H 0.66872 0.93639 0.3391 0.0
H791 H 0.7379 0.89481 0.33862 0.0
Co792 Co 0.94996 0.60501 0.04313 0.0
C793 C 0.9456 0.38906 0.0482 0.0
C794 C 0.92221 0.44267 0.03259 0.0
C795 C 0.92151 0.34038 0.0326 0.0
N796 N 0.93698 0.47352 0.04259 0.0
N797 N 0.93663 0.30687 0.04212 0.0
H798 H 0.95954 0.38776 0.05546 0.0
H799 H 0.9139 0.49089 0.02487 0.0
C800 C 0.90076 0.65424 0.04548 0.0
O801 O 0.89408 0.56375 0.04841 0.0
N802 N 0.96298 0.73781 0.04318 0.0
C803 C 0.98389 0.76336 0.04078 0.0
C804 C 0.98575 0.86571 0.04114 0.0
C805 C 0.95254 0.8256 0.045 0.0
N806 N 0.96597 0.90398 0.04375 0.0
C807 C 0.97044 0.6264 0.07125 0.0
C808 C 0.93572 0.56715 0.0884 0.0
C809 C 0.95498 0.59615 0.09532 0.0
C810 C 0.97254 0.62555 0.08661 0.0
C811 C 0.93427 0.56986 0.073 0.0
N812 N 0.9513 0.60174 0.06461 0.0
H813 H 0.98437 0.64594 0.06468 0.0
H814 H 0.91962 0.54423 0.06791 0.0
H815 H 0.99697 0.71179 0.03868 0.0
H816 H 0.93538 0.83383 0.04692 0.0
O817 O 0.97776 0.54447 0.03903 0.0
O818 O 0.95447 0.59511 0.022 0.0
O819 O 0.92073 0.67412 0.04324 0.0
C820 C 0.97284 0.55159 0.02509 0.0
H821 H 0.91232 0.29415 0.02506 0.0
H822 H 0.00028 0.90883 0.0392 0.0
H823 H 0.92199 0.54219 0.09487 0.0
H824 H 0.98778 0.64674 0.09165 0.0
Co825 Co 0.29722 0.60291 0.04132 0.0
C826 C 0.29906 0.82207 0.04195 0.0
C827 C 0.32998 0.76099 0.03597 0.0
C828 C 0.33134 0.86368 0.03551 0.0
N829 N 0.30972 0.73522 0.04006 0.0
N830 N 0.3118 0.90118 0.03912 0.0
H831 H 0.28219 0.82769 0.0451 0.0
H832 H 0.34274 0.70918 0.03318 0.0
C833 C 0.333 0.47191 0.05202 0.0
O834 O 0.31909 0.4402 0.06197 0.0
N835 N 0.28439 0.46939 0.042 0.0
C836 C 0.26489 0.43985 0.04723 0.0
C837 C 0.26358 0.33743 0.04658 0.0
C838 C 0.29381 0.38434 0.03719 0.0
N839 N 0.28198 0.30316 0.04048 0.0
C840 C 0.27614 0.61861 0.06989 0.0
C841 C 0.31365 0.65193 0.08585 0.0
C842 C 0.29418 0.6382 0.09342 0.0
C843 C 0.2751 0.62458 0.08531 0.0
C844 C 0.31393 0.64485 0.07046 0.0
N845 N 0.29561 0.6203 0.06274 0.0
H846 H 0.26126 0.61472 0.06375 0.0
H847 H 0.32907 0.65683 0.06477 0.0
H848 H 0.2522 0.48789 0.05115 0.0
H849 H 0.30944 0.38072 0.03189 0.0
O850 O 0.26949 0.65873 0.03586 0.0
O851 O 0.29389 0.60178 0.02 0.0
O852 O 0.32735 0.54095 0.04299 0.0
C853 C 0.27539 0.64626 0.02218 0.0
H854 H 0.34534 0.9074 0.03238 0.0
H855 H 0.25049 0.29148 0.05066 0.0
H856 H 0.32856 0.66639 0.09181 0.0
H857 H 0.25961 0.6187 0.09086 0.0
Co858 Co 0.95365 0.59777 0.21132 0.0
C859 C 0.95207 0.81798 0.20893 0.0
C860 C 0.9215 0.75933 0.21577 0.0
C861 C 0.9206 0.86173 0.21666 0.0
N862 N 0.94107 0.73129 0.21049 0.0
N863 N 0.9399 0.89764 0.21238 0.0
H864 H 0.96919 0.82365 0.20664 0.0
H865 H 0.9092 0.70934 0.21979 0.0
C866 C 0.90837 0.54866 0.20085 0.0
O867 O 0.90889 0.62554 0.19187 0.0
N868 N 0.96636 0.46608 0.21273 0.0
C869 C 0.98637 0.43922 0.20826 0.0
C870 C 0.98794 0.33675 0.2087 0.0
C871 C 0.95612 0.3799 0.21598 0.0
N872 N 0.96889 0.30021 0.2135 0.0
C873 C 0.96856 0.66547 0.1827 0.0
C874 C 0.95133 0.50898 0.16678 0.0
C875 C 0.96073 0.5885 0.1592 0.0
C876 C 0.97008 0.66599 0.16729 0.0
C877 C 0.9499 0.51229 0.18217 0.0
N878 N 0.9573 0.59265 0.1899 0.0
H879 H 0.97656 0.72345 0.18875 0.0
H880 H 0.94217 0.45133 0.18782 0.0
H881 H 0.9985 0.4901 0.2041 0.0
H882 H 0.93929 0.37452 0.21921 0.0
O883 O 0.98099 0.65639 0.2166 0.0
O884 O 0.95573 0.61355 0.23253 0.0
O885 O 0.92402 0.53287 0.20984 0.0
C886 C 0.97472 0.65351 0.23031 0.0
H887 H 0.90735 0.90599 0.22092 0.0
H888 H 0.00149 0.29226 0.20496 0.0
H889 H 0.94447 0.44653 0.16082 0.0
H890 H 0.97821 0.72684 0.16173 0.0
Co891 Co 0.29719 0.64137 0.20983 0.0
C892 C 0.30001 0.42385 0.20577 0.0
C893 C 0.32767 0.48089 0.2174 0.0
C894 C 0.32829 0.37827 0.21793 0.0
N895 N 0.30985 0.50928 0.20986 0.0
N896 N 0.31071 0.34305 0.2108 0.0
H897 H 0.28465 0.42081 0.20004 0.0
H898 H 0.3385 0.53104 0.22312 0.0
C899 C 0.33493 0.7703 0.20133 0.0
O900 O 0.32284 0.80556 0.19056 0.0
N901 N 0.28416 0.77513 0.21049 0.0
C902 C 0.26336 0.80124 0.20771 0.0
C903 C 0.26137 0.9035 0.2084 0.0
C904 C 0.29389 0.86228 0.21405 0.0
N905 N 0.28074 0.94115 0.21222 0.0
C906 C 0.27731 0.65251 0.18092 0.0
C907 C 0.31434 0.60831 0.16505 0.0
C908 C 0.29527 0.63161 0.15744 0.0
C909 C 0.27649 0.652 0.16549 0.0
C910 C 0.31443 0.6098 0.1805 0.0
N911 N 0.29637 0.63736 0.18825 0.0
H912 H 0.26246 0.66278 0.18689 0.0
H913 H 0.32918 0.59045 0.18626 0.0
H914 H 0.2503 0.75025 0.20536 0.0
H915 H 0.31028 0.86984 0.21784 0.0
O916 O 0.26914 0.58308 0.21394 0.0
O917 O 0.29289 0.62846 0.23093 0.0
O918 O 0.32747 0.70212 0.20983 0.0
C919 C 0.27438 0.58639 0.22785 0.0
H920 H 0.33979 0.33319 0.224 0.0
H921 H 0.24705 0.94694 0.20593 0.0
H922 H 0.32899 0.58947 0.1591 0.0
H923 H 0.26129 0.66651 0.15989 0.0
Co924 Co 0.04695 0.35086 0.95738 0.0
C925 C 0.0501 0.56869 0.95379 0.0
C926 C 0.07711 0.50979 0.96594 0.0
C927 C 0.0779 0.61233 0.96661 0.0
N928 N 0.05959 0.4827 0.958 0.0
N929 N 0.06074 0.64868 0.95913 0.0
H930 H 0.03502 0.57266 0.94772 0.0
H931 H 0.08763 0.45869 0.97176 0.0
C932 C 0.08322 0.22121 0.94722 0.0
O933 O 0.06954 0.1879 0.93724 0.0
N934 N 0.0341 0.21699 0.95755 0.0
C935 C 0.01362 0.1894 0.9541 0.0
C936 C 0.01191 0.08714 0.95497 0.0
C937 C 0.04383 0.13095 0.9617 0.0
N938 N 0.03107 0.05105 0.95955 0.0
C939 C 0.02577 0.354 0.92886 0.0
C940 C 0.06251 0.39906 0.91272 0.0
C941 C 0.04298 0.38274 0.9053 0.0
C942 C 0.02434 0.36197 0.91349 0.0
C943 C 0.0632 0.39023 0.92808 0.0
N944 N 0.04526 0.362 0.93591 0.0
H945 H 0.01109 0.34447 0.93503 0.0
H946 H 0.0783 0.40529 0.93371 0.0
H947 H 0.00053 0.23912 0.95132 0.0
H948 H 0.06009 0.12541 0.96599 0.0
O949 O 0.01903 0.40688 0.96227 0.0
O950 O 0.04341 0.35766 0.97863 0.0
O951 O 0.07719 0.28996 0.95616 0.0
C952 C 0.02464 0.39917 0.97606 0.0
H953 H 0.08926 0.6566 0.97293 0.0
H954 H 0.99792 0.04256 0.95211 0.0
H955 H 0.07708 0.41825 0.90667 0.0
H956 H 0.00882 0.35299 0.90806 0.0
Co957 Co 0.70469 0.42387 0.96064 0.0
C958 C 0.70302 0.20388 0.95799 0.0
C959 C 0.67301 0.26211 0.96598 0.0
C960 C 0.67217 0.15973 0.9668 0.0
N961 N 0.69215 0.29041 0.96004 0.0
N962 N 0.69111 0.12406 0.9618 0.0
H963 H 0.71994 0.19836 0.95513 0.0
H964 H 0.66103 0.31189 0.97047 0.0
C965 C 0.65875 0.47096 0.95108 0.0
O966 O 0.65911 0.39405 0.94212 0.0
N967 N 0.71738 0.55551 0.96176 0.0
C968 C 0.73721 0.58226 0.9569 0.0
C969 C 0.73877 0.6847 0.95723 0.0
C970 C 0.70725 0.64169 0.96512 0.0
N971 N 0.71991 0.72129 0.96236 0.0
C972 C 0.71994 0.35869 0.93205 0.0
C973 C 0.70095 0.51044 0.91601 0.0
C974 C 0.71148 0.4337 0.90847 0.0
C975 C 0.72171 0.35884 0.91665 0.0
C976 C 0.69958 0.50717 0.93141 0.0
N977 N 0.70779 0.42865 0.93919 0.0
H978 H 0.72862 0.30297 0.93815 0.0
H979 H 0.69145 0.56707 0.93705 0.0
H980 H 0.74918 0.53127 0.95257 0.0
H981 H 0.69055 0.64711 0.96865 0.0
O982 O 0.73224 0.36553 0.96559 0.0
O983 O 0.70748 0.40851 0.98185 0.0
O984 O 0.67488 0.48846 0.95961 0.0
C985 C 0.72647 0.36921 0.9794 0.0
H986 H 0.65929 0.11527 0.97151 0.0
H987 H 0.75217 0.72912 0.95324 0.0
H988 H 0.69345 0.57121 0.91002 0.0
H989 H 0.73073 0.30045 0.91115 0.0
Co990 Co 0.04585 0.42733 0.7893 0.0
C991 C 0.04995 0.21198 0.7938 0.0
C992 C 0.07098 0.26332 0.77655 0.0
C993 C 0.07082 0.16096 0.77634 0.0
N994 N 0.05826 0.29547 0.78771 0.0
N995 N 0.05746 0.1292 0.78711 0.0
H996 H 0.03707 0.21202 0.80192 0.0
H997 H 0.0784 0.31107 0.76836 0.0
C998 C 0.09505 0.4682 0.79154 0.0
O999 O 0.10071 0.37432 0.79242 0.0
N1000 N 0.03297 0.55983 0.79038 0.0
C1001 C 0.01171 0.58429 0.79043 0.0
C1002 C 0.00971 0.68646 0.79081 0.0
C1003 C 0.04351 0.64811 0.79042 0.0
N1004 N 0.02974 0.72578 0.79072 0.0
C1005 C 0.02541 0.43143 0.81779 0.0
C1006 C 0.06165 0.38093 0.83412 0.0
C1007 C 0.04233 0.40241 0.84146 0.0
C1008 C 0.02393 0.42663 0.83319 0.0
C1009 C 0.0624 0.38678 0.81874 0.0
N1010 N 0.04467 0.41531 0.81075 0.0
H1011 H 0.01096 0.44718 0.81152 0.0
H1012 H 0.0772 0.36668 0.81336 0.0
H1013 H 0.99844 0.53203 0.79012 0.0
H1014 H 0.06089 0.65711 0.79 0.0
O1015 O 0.01823 0.36854 0.78443 0.0
O1016 O 0.04146 0.42717 0.76815 0.0
O1017 O 0.07525 0.49437 0.7902 0.0
C1018 C 0.02299 0.38325 0.77058 0.0
H1019 H 0.07835 0.11371 0.76812 0.0
H1020 H 0.99478 0.72874 0.7908 0.0
H1021 H 0.07601 0.35948 0.84024 0.0
H1022 H 0.0086 0.44118 0.83859 0.0
Co1023 Co 0.70004 0.399 0.79237 0.0
C1024 C 0.69594 0.61419 0.79698 0.0
C1025 C 0.67316 0.56275 0.78078 0.0
C1026 C 0.67307 0.66524 0.7807 0.0
N1027 N 0.68733 0.53061 0.7911 0.0
N1028 N 0.68745 0.697 0.79084 0.0
H1029 H 0.70958 0.61445 0.80451 0.0
H1030 H 0.66476 0.5151 0.77304 0.0
C1031 C 0.65086 0.35234 0.79525 0.0
O1032 O 0.64442 0.44491 0.79661 0.0
N1033 N 0.71296 0.26655 0.79345 0.0
C1034 C 0.73354 0.24048 0.79685 0.0
C1035 C 0.73508 0.13809 0.79727 0.0
C1036 C 0.7025 0.17897 0.79152 0.0
N1037 N 0.71552 0.10027 0.79395 0.0
C1038 C 0.72253 0.41446 0.82011 0.0
C1039 C 0.6864 0.4342 0.83784 0.0
C1040 C 0.70681 0.42716 0.84447 0.0
C1041 C 0.72509 0.41881 0.83544 0.0
C1042 C 0.68459 0.42796 0.82249 0.0
N1043 N 0.7024 0.41334 0.81381 0.0
H1044 H 0.73682 0.41311 0.81332 0.0
H1045 H 0.66882 0.4362 0.81774 0.0
H1046 H 0.74672 0.29136 0.79884 0.0
H1047 H 0.68564 0.17144 0.78849 0.0
O1048 O 0.72741 0.45798 0.7866 0.0
O1049 O 0.70323 0.39703 0.771 0.0
O1050 O 0.67087 0.33009 0.79391 0.0
C1051 C 0.72153 0.44337 0.77296 0.0
H1052 H 0.66443 0.71269 0.77301 0.0
H1053 H 0.74938 0.0947 0.79984 0.0
H1054 H 0.67197 0.44362 0.84451 0.0
H1055 H 0.74119 0.41619 0.84021 0.0
C1056 C 0.47256 0.20415 0.11825 0.0
C1057 C 0.45953 0.13568 0.11026 0.0
C1058 C 0.44825 0.05792 0.13353 0.0
C1059 C 0.45903 0.13411 0.14152 0.0
N1060 N 0.47848 0.28995 0.14145 0.0
N1061 N 0.43168 0.00934 0.11039 0.0
C1062 C 0.47044 0.21005 0.13388 0.0
C1063 C 0.44648 0.06559 0.11792 0.0
N1064 N 0.48736 0.26161 0.11095 0.0
N1065 N 0.44019 0.97675 0.14081 0.0
H1066 H 0.42946 0.01407 0.09898 0.0
H1067 H 0.42017 0.96497 0.11563 0.0
H1068 H 0.4415 0.96738 0.15223 0.0
H1069 H 0.43414 0.9143 0.13537 0.0
H1070 H 0.49881 0.30549 0.11635 0.0
H1071 H 0.48959 0.25824 0.09953 0.0
H1072 H 0.48491 0.35254 0.13626 0.0
H1073 H 0.47696 0.29795 0.15287 0.0
C1074 C 0.79463 0.18479 0.11495 0.0
C1075 C 0.79499 0.09252 0.10732 0.0
C1076 C 0.79829 1.00218 0.13085 0.0
C1077 C 0.79694 0.09414 0.1385 0.0
N1078 N 0.7922 0.27225 0.1384 0.0
N1079 N 0.7955 0.91312 0.10754 0.0
C1080 C 0.79466 0.18534 0.1307 0.0
C1081 C 0.79637 1.00104 0.11516 0.0
N1082 N 0.79462 0.27181 0.10708 0.0
N1083 N 0.80179 0.91626 0.13862 0.0
H1084 H 0.79523 0.90923 0.09602 0.0
H1085 H 0.79394 0.84371 0.11251 0.0
H1086 H 0.80224 0.91364 0.15015 0.0
H1087 H 0.8054 0.84807 0.13378 0.0
H1088 H 0.79687 0.34174 0.11175 0.0
H1089 H 0.79349 0.27431 0.09558 0.0
H1090 H 0.78799 0.33987 0.1336 0.0
H1091 H 0.79325 0.27641 0.1499 0.0
C1092 C 0.54341 0.8226 0.88166 0.0
C1093 C 0.54457 0.91255 0.88984 0.0
C1094 C 0.54601 0.00873 0.8668 0.0
C1095 C 0.54313 0.91942 0.85865 0.0
N1096 N 0.53625 0.74295 0.85807 0.0
N1097 N 0.5442 0.09178 0.8906 0.0
C1098 C 0.54105 0.82667 0.86602 0.0
C1099 C 0.54511 0.0059 0.88252 0.0
N1100 N 0.54519 0.73329 0.88882 0.0
N1101 N 0.55019 0.09577 0.85949 0.0
H1102 H 0.54391 0.09251 0.90214 0.0
H1103 H 0.54211 0.16197 0.88594 0.0
H1104 H 0.55062 0.10102 0.84798 0.0
H1105 H 0.55482 0.16123 0.86475 0.0
H1106 H 0.54691 0.66546 0.8834 0.0
H1107 H 0.54661 0.72726 0.90029 0.0
H1108 H 0.53212 0.67518 0.86288 0.0
H1109 H 0.53479 0.74282 0.84658 0.0
C1110 C 0.19537 0.81063 0.8666 0.0
C1111 C 0.20749 0.88156 0.85843 0.0
C1112 C 0.22145 0.95255 0.88152 0.0
C1113 C 0.20774 0.8879 0.88966 0.0
N1114 N 0.17832 0.76947 0.88991 0.0
N1115 N 0.22875 0.03216 0.858 0.0
C1116 C 0.19373 0.82085 0.88219 0.0
C1117 C 0.21961 0.9561 0.86586 0.0
N1118 N 0.18607 0.7314 0.85955 0.0
N1119 N 0.23671 0.00815 0.88871 0.0
H1120 H 0.22748 0.03811 0.84653 0.0
H1121 H 0.23585 0.09409 0.86294 0.0
H1122 H 0.2387 0.00679 0.90016 0.0
H1123 H 0.24866 0.04865 0.88324 0.0
H1124 H 0.17906 0.67179 0.86515 0.0
H1125 H 0.18707 0.72043 0.84816 0.0
H1126 H 0.16618 0.72782 0.88484 0.0
H1127 H 0.17636 0.77583 0.90133 0.0
C1128 C 0.47376 0.53566 0.63286 0.0
C1129 C 0.46124 0.60328 0.64135 0.0
C1130 C 0.44878 0.68503 0.61864 0.0
C1131 C 0.45953 0.61127 0.61015 0.0
N1132 N 0.47923 0.45635 0.60909 0.0
N1133 N 0.43365 0.73045 0.64238 0.0
C1134 C 0.47123 0.53373 0.61723 0.0
C1135 C 0.44785 0.6748 0.63426 0.0
N1136 N 0.48851 0.47529 0.63971 0.0
N1137 N 0.44002 0.76654 0.61182 0.0
H1138 H 0.43229 0.72468 0.65385 0.0
H1139 H 0.42183 0.77575 0.63765 0.0
H1140 H 0.44051 0.77733 0.6004 0.0
H1141 H 0.43404 0.8278 0.61757 0.0
H1142 H 0.49971 0.43201 0.634 0.0
H1143 H 0.49084 0.47492 0.65114 0.0
H1144 H 0.48586 0.39248 0.61379 0.0
H1145 H 0.47752 0.45181 0.59763 0.0
C1146 C 0.79761 0.72038 0.63324 0.0
C1147 C 0.79637 0.62813 0.64084 0.0
C1148 C 0.79784 0.53811 0.6173 0.0
C1149 C 0.79739 0.63043 0.60966 0.0
N1150 N 0.79361 0.80898 0.61002 0.0
N1151 N 0.7924 0.44982 0.64043 0.0
C1152 C 0.79639 0.72157 0.61754 0.0
C1153 C 0.79565 0.53704 0.63296 0.0
N1154 N 0.80054 0.80659 0.64102 0.0
N1155 N 0.80104 0.45177 0.6096 0.0
H1156 H 0.79113 0.4462 0.65193 0.0
H1157 H 0.78933 0.38213 0.63525 0.0
H1158 H 0.80258 0.44959 0.59812 0.0
H1159 H 0.80387 0.38323 0.61461 0.0
H1160 H 0.80407 0.87469 0.6361 0.0
H1161 H 0.80106 0.80906 0.65255 0.0
H1162 H 0.79034 0.87663 0.61515 0.0
H1163 H 0.79287 0.81291 0.59851 0.0
C1164 C 0.53869 0.25115 0.38407 0.0
C1165 C 0.53572 0.33787 0.39281 0.0
C1166 C 0.53355 0.44105 0.37042 0.0
C1167 C 0.53778 0.35522 0.36174 0.0
N1168 N 0.54546 0.17989 0.35981 0.0
N1169 N 0.53143 0.51559 0.39487 0.0
C1170 C 0.54056 0.26046 0.36843 0.0
C1171 C 0.53339 0.43295 0.38613 0.0
N1172 N 0.5395 0.15984 0.39076 0.0
N1173 N 0.52946 0.52999 0.36358 0.0
H1174 H 0.53001 0.51205 0.40635 0.0
H1175 H 0.5322 0.58826 0.39095 0.0
H1176 H 0.53041 0.53975 0.35216 0.0
H1177 H 0.52397 0.59331 0.36902 0.0
H1178 H 0.53919 0.09254 0.3851 0.0
H1179 H 0.53939 0.15041 0.40221 0.0
H1180 H 0.55022 0.11104 0.36393 0.0
H1181 H 0.54576 0.18267 0.34828 0.0
C1182 C 0.19665 0.45199 0.37054 0.0
C1183 C 0.20671 0.3702 0.36339 0.0
C1184 C 0.21542 0.29567 0.38743 0.0
C1185 C 0.20693 0.38128 0.39454 0.0
N1186 N 0.19244 0.54768 0.39308 0.0
N1187 N 0.22852 0.22159 0.36467 0.0
C1188 C 0.19836 0.46143 0.38615 0.0
C1189 C 0.2169 0.29397 0.37174 0.0
N1190 N 0.18486 0.51889 0.36245 0.0
N1191 N 0.22144 0.21491 0.39567 0.0
H1192 H 0.22986 0.21768 0.35319 0.0
H1193 H 0.23825 0.17017 0.37016 0.0
H1194 H 0.22072 0.21379 0.4072 0.0
H1195 H 0.22551 0.14632 0.3911 0.0
H1196 H 0.17513 0.57359 0.36717 0.0
H1197 H 0.18339 0.51503 0.35097 0.0
H1198 H 0.18837 0.61268 0.38746 0.0
H1199 H 0.19322 0.55707 0.40452 0.0
C1200 C 0.95068 0.1762 0.63371 0.0
C1201 C 0.96399 0.1018 0.64018 0.0
C1202 C 0.97423 0.04252 0.61552 0.0
C1203 C 0.9626 0.12291 0.60912 0.0
N1204 N 0.94291 0.27672 0.6121 0.0
N1205 N 0.99116 0.97417 0.6375 0.0
C1206 C 0.95171 0.19281 0.61821 0.0
C1207 C 0.97655 0.03765 0.63115 0.0
N1208 N 0.93647 0.22865 0.6423 0.0
N1209 N 0.98239 0.96897 0.60669 0.0
H1210 H 0.99328 0.96856 0.64892 0.0
H1211 H 0.00242 0.93328 0.63146 0.0
H1212 H 0.98093 0.96968 0.5952 0.0
H1213 H 0.98897 0.90316 0.6108 0.0
H1214 H 0.9247 0.27599 0.63797 0.0
H1215 H 0.93508 0.21824 0.65369 0.0
H1216 H 0.93683 0.33547 0.61835 0.0
H1217 H 0.94343 0.29193 0.60079 0.0
C1218 C 0.27813 0.03393 0.61971 0.0
C1219 C 0.29052 0.09867 0.61066 0.0
C1220 C 0.30261 0.19041 0.63257 0.0
C1221 C 0.29186 0.12016 0.6417 0.0
N1222 N 0.27267 0.96465 0.64418 0.0
N1223 N 0.31792 0.226 0.6085 0.0
C1224 C 0.28051 0.03887 0.63534 0.0
C1225 C 0.30374 0.17344 0.6171 0.0
N1226 N 0.26362 0.9699 0.61341 0.0
N1227 N 0.31112 0.27511 0.63861 0.0
H1228 H 0.31943 0.21516 0.59713 0.0
H1229 H 0.32961 0.27373 0.61283 0.0
H1230 H 0.31049 0.29089 0.6499 0.0
H1231 H 0.31706 0.33393 0.6323 0.0
H1232 H 0.25248 0.92853 0.61949 0.0
H1233 H 0.26141 0.96433 0.602 0.0
H1234 H 0.26628 0.89847 0.64008 0.0
H1235 H 0.2743 0.96513 0.65566 0.0
C1236 C 0.03783 0.80892 0.3812 0.0
C1237 C 0.03898 0.89472 0.39031 0.0
C1238 C 0.04004 1.00168 0.36834 0.0
C1239 C 0.03722 0.91647 0.35927 0.0
N1240 N 0.02999 0.74087 0.35693 0.0
N1241 N 0.03766 0.07317 0.3929 0.0
C1242 C 0.03514 0.82048 0.36567 0.0
C1243 C 0.03907 0.99134 0.38397 0.0
N1244 N 0.04001 0.71648 0.38736 0.0
N1245 N 0.04439 0.09192 0.362 0.0
H1246 H 0.03707 0.06854 0.40441 0.0
H1247 H 0.03527 0.14506 0.38892 0.0
H1248 H 0.04512 0.10261 0.35058 0.0
H1249 H 0.049 0.1545 0.36801 0.0
H1250 H 0.04176 0.65166 0.38117 0.0
H1251 H 0.04177 0.705 0.3987 0.0
H1252 H 0.02595 0.67107 0.3611 0.0
H1253 H 0.02801 0.74641 0.3455 0.0
C1254 C 0.71212 0.99583 0.36497 0.0
C1255 C 0.70361 0.91226 0.35736 0.0
C1256 C 0.69477 0.83225 0.38096 0.0
C1257 C 0.705 0.91183 0.38854 0.0
N1258 N 0.72662 0.06125 0.38791 0.0
N1259 N 0.69017 0.74362 0.35784 0.0
C1260 C 0.7146 0.99146 0.38058 0.0
C1261 C 0.69585 0.82831 0.36528 0.0
N1262 N 0.71718 0.08047 0.35732 0.0
N1263 N 0.68338 0.76226 0.38871 0.0
H1264 H 0.69068 0.73774 0.34635 0.0
H1265 H 0.68671 0.67649 0.36309 0.0
H1266 H 0.68227 0.76229 0.40022 0.0
H1267 H 0.67356 0.70899 0.38372 0.0
H1268 H 0.72125 0.1474 0.3624 0.0
H1269 H 0.71553 0.08642 0.34587 0.0
H1270 H 0.7359 0.11504 0.38257 0.0
H1271 H 0.72885 0.06025 0.39935 0.0
C1272 C 0.9454 0.6596 0.13577 0.0
C1273 C 0.95986 0.59238 0.14281 0.0
C1274 C 0.96976 0.52189 0.11877 0.0
C1275 C 0.95681 0.59512 0.11168 0.0
N1276 N 0.93549 0.74526 0.11318 0.0
N1277 N 0.98849 0.47099 0.1411 0.0
C1278 C 0.94554 0.66742 0.12011 0.0
C1279 C 0.97284 0.52674 0.13433 0.0
N1280 N 0.93094 0.71317 0.144 0.0
N1281 N 0.97844 0.44568 0.1107 0.0
H1282 H 0.99121 0.47284 0.15249 0.0
H1283 H -1e-05 0.42964 0.13534 0.0
H1284 H 0.97641 0.43917 0.09929 0.0
H1285 H 0.98606 0.38437 0.11546 0.0
H1286 H 0.91843 0.75484 0.13936 0.0
H1287 H 0.93017 0.70922 0.1555 0.0
H1288 H 0.92903 0.80596 0.11881 0.0
H1289 H 0.93528 0.75384 0.10171 0.0
C1290 C 0.29421 0.54417 0.11738 0.0
C1291 C 0.29391 0.63681 0.10983 0.0
C1292 C 0.29615 0.72569 0.13346 0.0
C1293 C 0.29484 0.6333 0.14103 0.0
N1294 N 0.28942 0.45571 0.14054 0.0
N1295 N 0.29162 0.81573 0.11037 0.0
C1296 C 0.29297 0.54273 0.13308 0.0
C1297 C 0.29404 0.72771 0.11779 0.0
N1298 N 0.29636 0.45768 0.10954 0.0
N1299 N 0.30007 0.81108 0.14124 0.0
H1300 H 0.29034 0.81993 0.09888 0.0
H1301 H 0.28923 0.88384 0.11559 0.0
H1302 H 0.30145 0.81265 0.15274 0.0
H1303 H 0.30357 0.87917 0.1363 0.0
H1304 H 0.29918 0.38875 0.11443 0.0
H1305 H 0.29695 0.45547 0.09802 0.0
H1306 H 0.28549 0.38894 0.13537 0.0
H1307 H 0.28875 0.45155 0.15206 0.0
C1308 C 0.03994 0.30408 0.86494 0.0
C1309 C 0.04142 0.39788 0.85782 0.0
C1310 C 0.04145 0.48222 0.88185 0.0
C1311 C 0.04203 0.3881 0.88895 0.0
N1312 N 0.04476 0.20932 0.88753 0.0
N1313 N 0.04635 0.57568 0.85914 0.0
C1314 C 0.04203 0.29885 0.88057 0.0
C1315 C 0.04287 0.48698 0.86617 0.0
N1316 N 0.03606 0.22037 0.85677 0.0
N1317 N 0.03901 0.56677 0.89009 0.0
H1318 H 0.04716 0.58235 0.84766 0.0
H1319 H 0.05003 0.64152 0.86465 0.0
H1320 H 0.03814 0.56611 0.90161 0.0
H1321 H 0.03612 0.63665 0.88552 0.0
H1322 H 0.03249 0.15137 0.8614 0.0
H1323 H 0.03464 0.22133 0.84527 0.0
H1324 H 0.04736 0.14269 0.88195 0.0
H1325 H 0.04612 0.20233 0.89899 0.0
C1326 C 0.71898 0.50862 0.86816 0.0
C1327 C 0.70887 0.42751 0.86084 0.0
C1328 C 0.69921 0.35436 0.88476 0.0
C1329 C 0.71112 0.43024 0.89205 0.0
N1330 N 0.73589 0.5687 0.89064 0.0
N1331 N 0.69354 0.26243 0.86208 0.0
C1332 C 0.72208 0.50427 0.88373 0.0
C1333 C 0.70022 0.34708 0.86912 0.0
N1334 N 0.72482 0.59149 0.86036 0.0
N1335 N 0.68616 0.29179 0.89269 0.0
H1336 H 0.69436 0.25337 0.85064 0.0
H1337 H 0.68918 0.19771 0.86769 0.0
H1338 H 0.68455 0.29572 0.90415 0.0
H1339 H 0.67536 0.24228 0.88777 0.0
H1340 H 0.73014 0.65691 0.86535 0.0
H1341 H 0.72249 0.5983 0.84898 0.0
H1342 H 0.74599 0.61758 0.88495 0.0
H1343 H 0.73877 0.5669 0.90201 0.0
C1344 C 0.48925 0.92673 0.98956 0.0
C1345 C 0.51183 0.948 0.98934 0.0
C1346 C 0.50675 0.06999 0.00932 0.0
C1347 C 0.48459 0.04329 0.01036 0.0
N1348 N 0.45483 0.9398 0.00237 0.0
N1349 N 0.54264 0.03107 0.00047 0.0
C1350 C 0.47578 0.97068 0.00061 0.0
C1351 C 0.52077 0.01623 0.99973 0.0
N1352 N 0.48076 0.86238 0.97936 0.0
N1353 N 0.51414 0.15185 0.01676 0.0
H1354 H 0.55015 0.06731 0.00927 0.0
H1355 H 0.55365 1.00352 0.99281 0.0
H1356 H 0.50412 0.19654 0.02321 0.0
H1357 H 0.5295 0.18219 0.01528 0.0
H1358 H 0.46428 0.85466 0.97725 0.0
H1359 H 0.49031 0.8179 0.97255 0.0
H1360 H 0.44775 0.88272 0.99632 0.0
H1361 H 0.44455 0.9669 0.01053 0.0
C1362 C 0.7645 0.17517 0.99485 0.0
C1363 C 0.75566 0.15714 0.00905 0.0
C1364 C 0.72974 0.29361 0.00512 0.0
C1365 C 0.73895 0.31288 0.99102 0.0
N1366 N 0.7714 0.29961 0.97626 0.0
N1367 N 0.72398 0.17174 0.02441 0.0
C1368 C 0.75813 0.26139 0.98691 0.0
C1369 C 0.73656 0.20861 0.01327 0.0
N1370 N 0.77772 0.10653 0.98837 0.0
N1371 N 0.71603 0.36106 0.01141 0.0
H1372 H 0.72715 0.10309 0.02936 0.0
H1373 H 0.70889 0.20124 0.02714 0.0
H1374 H 0.71342 0.43139 0.00689 0.0
H1375 H 0.71017 0.35411 0.02216 0.0
H1376 H 0.78329 0.1135 0.97754 0.0
H1377 H 0.7801 0.03587 0.99285 0.0
H1378 H 0.78642 0.26868 0.97369 0.0
H1379 H 0.76904 0.37032 0.97177 0.0
C1380 C 0.4766 0.26633 0.25255 0.0
C1381 C 0.48608 0.20032 0.24207 0.0
C1382 C 0.52242 0.24573 0.25108 0.0
C1383 C 0.51297 0.31156 0.26158 0.0
N1384 N 0.48183 0.40504 0.26934 0.0
N1385 N 0.51714 0.10472 0.23481 0.0
C1386 C 0.49023 0.32672 0.26158 0.0
C1387 C 0.50879 0.18462 0.2422 0.0
N1388 N 0.45463 0.2704 0.25424 0.0
N1389 N 0.54438 0.24205 0.24927 0.0
H1390 H 0.5073 0.05353 0.22939 0.0
H1391 H 0.53316 0.08127 0.2357 0.0
H1392 H 0.55523 0.28426 0.25535 0.0
H1393 H 0.55189 0.20441 0.24062 0.0
H1394 H 0.447 0.30792 0.26284 0.0
H1395 H 0.44381 0.22877 0.24803 0.0
H1396 H 0.46581 0.42855 0.26855 0.0
H1397 H 0.49155 0.45468 0.27519 0.0
C1398 C 0.74318 0.07079 0.23765 0.0
C1399 C 0.76582 0.05281 0.2381 0.0
C1400 C 0.7606 0.9359 0.25875 0.0
C1401 C 0.73793 0.95334 0.25823 0.0
N1402 N 0.70711 0.02497 0.24542 0.0
N1403 N 0.79668 0.98179 0.25091 0.0
C1404 C 0.72905 0.01652 0.24711 0.0
C1405 C 0.77473 0.98994 0.24924 0.0
N1406 N 0.73538 0.14665 0.22905 0.0
N1407 N 0.76845 0.86074 0.26746 0.0
H1408 H 0.80792 0.01009 0.24348 0.0
H1409 H 0.80398 0.95042 0.26018 0.0
H1410 H 0.75848 0.8151 0.27382 0.0
H1411 H 0.78439 0.83559 0.26718 0.0
H1412 H 0.71948 0.17229 0.22945 0.0
H1413 H 0.74536 0.19237 0.22271 0.0
H1414 H 0.69985 0.05659 0.23615 0.0
H1415 H 0.69583 0.99664 0.25281 0.0
C1416 C 0.22614 0.71752 0.99896 0.0
C1417 C 0.23523 0.78972 0.98924 0.0
C1418 C 0.27128 0.76041 1.00008 0.0
C1419 C 0.26216 0.68921 0.00993 0.0
N1420 N 0.23218 0.58429 0.01665 0.0
N1421 N 0.2652 0.89596 0.98287 0.0
C1422 C 0.23986 0.66443 0.00892 0.0
C1423 C 0.25753 0.81456 0.99031 0.0
N1424 N 0.20432 0.70029 0.99889 0.0
N1425 N 0.29316 0.77601 0.99987 0.0
H1426 H 0.25541 0.94101 0.97628 0.0
H1427 H 0.28061 0.92566 0.98438 0.0
H1428 H 0.30383 0.74682 0.00764 0.0
H1429 H 0.30107 0.81389 0.99141 0.0
H1430 H 0.19627 0.66199 0.00724 0.0
H1431 H 0.19382 0.72787 0.99088 0.0
H1432 H 0.21679 0.55413 0.01525 0.0
H1433 H 0.24196 0.54093 0.0235 0.0
C1434 C 0.50758 0.76629 0.73704 0.0
C1435 C 0.48892 0.7101 0.74086 0.0
C1436 C 0.48587 0.8063 0.76385 0.0
C1437 C 0.50447 0.86236 0.75993 0.0
N1438 N 0.52572 0.92422 0.73953 0.0
N1439 N 0.46668 0.65095 0.76097 0.0
C1440 C 0.51325 0.85087 0.74556 0.0
C1441 C 0.47971 0.72297 0.75512 0.0
N1442 N 0.52108 0.7342 0.72609 0.0
N1443 N 0.47307 0.8372 0.77526 0.0
H1444 H 0.4646 0.58192 0.75591 0.0
H1445 H 0.46092 0.6531 0.77179 0.0
H1446 H 0.4756 0.90494 0.78062 0.0
H1447 H 0.4583 0.80391 0.77784 0.0
H1448 H 0.53575 0.769 0.72367 0.0
H1449 H 0.5194 0.66446 0.72117 0.0
H1450 H 0.53116 0.92212 0.72862 0.0
H1451 H 0.52755 0.99351 0.74456 0.0
C1452 C 0.24226 0.03161 0.73695 0.0
C1453 C 0.26078 0.08837 0.74081 0.0
C1454 C 0.26358 0.99501 0.76404 0.0
C1455 C 0.2452 0.93756 0.76001 0.0
N1456 N 0.22439 0.87327 0.73955 0.0
N1457 N 0.28253 0.15089 0.76091 0.0
C1458 C 0.23658 0.94767 0.74557 0.0
C1459 C 0.26971 0.07772 0.75518 0.0
N1460 N 0.22905 0.06212 0.72571 0.0
N1461 N 0.27626 0.96584 0.77563 0.0
H1462 H 0.28466 0.2191 0.75561 0.0
H1463 H 0.28807 0.15046 0.7718 0.0
H1464 H 0.27392 0.89815 0.78105 0.0
H1465 H 0.29083 1.00049 0.77832 0.0
H1466 H 0.21444 0.027 0.72322 0.0
H1467 H 0.23103 0.13082 0.72051 0.0
H1468 H 0.2191 0.87442 0.7286 0.0
H1469 H 0.22268 0.80413 0.74466 0.0
C1470 C 0.50434 0.48708 0.51405 0.0
C1471 C 0.48612 0.54634 0.51034 0.0
C1472 C 0.48194 0.45115 0.48736 0.0
C1473 C 0.49998 0.39105 0.49128 0.0
N1474 N 0.52087 0.32557 0.51164 0.0
N1475 N 0.46413 0.60999 0.49043 0.0
C1476 C 0.50909 0.40128 0.50558 0.0
C1477 C 0.47664 0.53554 0.49613 0.0
N1478 N 0.51822 0.51682 0.52495 0.0
N1479 N 0.46875 0.42305 0.47598 0.0
H1480 H 0.46258 0.67884 0.49563 0.0
H1481 H 0.45824 0.60947 0.47963 0.0
H1482 H 0.47047 0.35464 0.47067 0.0
H1483 H 0.45437 0.4597 0.47339 0.0
H1484 H 0.53263 0.47953 0.5273 0.0
H1485 H 0.51704 0.58662 0.52993 0.0
H1486 H 0.52649 0.32705 0.52251 0.0
H1487 H 0.52191 0.2557 0.50668 0.0
C1488 C 0.74562 0.86816 0.49963 0.0
C1489 C 0.74242 0.81438 0.48634 0.0
C1490 C 0.75918 0.66655 0.4978 0.0
C1491 C 0.76195 0.72006 0.5112 0.0
N1492 N 0.75205 0.86461 0.52589 0.0
N1493 N 0.75098 0.66814 0.47167 0.0
C1494 C 0.75351 0.81864 0.51245 0.0
C1495 C 0.75065 0.7154 0.48505 0.0
N1496 N 0.74248 0.96903 0.4997 0.0
N1497 N 0.76307 0.56619 0.49765 0.0
H1498 H 0.74486 0.69781 0.46197 0.0
H1499 H 0.75925 0.60199 0.46973 0.0
H1500 H 0.76761 0.52636 0.50706 0.0
H1501 H 0.75946 0.51964 0.4888 0.0
H1502 H 0.74662 0.01499 0.50851 0.0
H1503 H 0.7382 0.00908 0.49024 0.0
H1504 H 0.74382 0.9313 0.52755 0.0
H1505 H 0.75652 0.83239 0.53582 0.0
C1506 C 0.75747 0.4593 0.76021 0.0
C1507 C 0.73504 0.48238 0.7605 0.0
C1508 C 0.74052 0.60562 0.74071 0.0
C1509 C 0.76292 0.58253 0.74043 0.0
N1510 N 0.79354 0.498 0.75146 0.0
N1511 N 0.70439 0.56048 0.74844 0.0
C1512 C 0.77166 0.51281 0.75067 0.0
C1513 C 0.72629 0.55026 0.74997 0.0
N1514 N 0.76484 0.37932 0.76809 0.0
N1515 N 0.73309 0.68578 0.73288 0.0
H1516 H 0.6932 0.52183 0.75475 0.0
H1517 H 0.69711 0.59985 0.73985 0.0
H1518 H 0.74322 0.73085 0.72654 0.0
H1519 H 0.71753 0.71482 0.73394 0.0
H1520 H 0.78049 0.35099 0.76738 0.0
H1521 H 0.7545 0.33338 0.77408 0.0
H1522 H 0.80109 0.46104 0.76017 0.0
H1523 H 0.80456 0.52662 0.7439 0.0
C1524 C 0.27148 0.21154 0.49754 0.0
C1525 C 0.26163 0.18578 0.51121 0.0
C1526 C 0.23385 0.31336 0.50706 0.0
C1527 C 0.24344 0.33816 0.4933 0.0
N1528 N 0.27622 0.3391 0.47893 0.0
N1529 N 0.22822 0.18307 0.52499 0.0
C1530 C 0.26369 0.29528 0.48953 0.0
C1531 C 0.24129 0.22844 0.51485 0.0
N1532 N 0.28688 0.15125 0.49146 0.0
N1533 N 0.21884 0.3747 0.51333 0.0
H1534 H 0.23194 0.11363 0.5295 0.0
H1535 H 0.21244 0.20658 0.52714 0.0
H1536 H 0.21555 0.44552 0.50921 0.0
H1537 H 0.21251 0.36267 0.52387 0.0
H1538 H 0.29342 0.16318 0.481 0.0
H1539 H 0.2904 0.0809 0.49566 0.0
H1540 H 0.29201 0.31663 0.47662 0.0
H1541 H 0.27194 0.40661 0.47403 0.0
C1542 C 0.25778 0.5973 0.25309 0.0
C1543 C 0.26055 0.54254 0.23981 0.0
C1544 C 0.24362 0.39637 0.25157 0.0
C1545 C 0.24062 0.45124 0.26479 0.0
N1546 N 0.24943 0.59858 0.27917 0.0
N1547 N 0.25058 0.39703 0.22536 0.0
C1548 C 0.24908 0.54994 0.2659 0.0
C1549 C 0.25185 0.44433 0.2387 0.0
N1550 N 0.26176 0.69759 0.25306 0.0
N1551 N 0.24009 0.29575 0.25163 0.0
H1552 H 0.25582 0.42704 0.21547 0.0
H1553 H 0.24202 0.33121 0.22371 0.0
H1554 H 0.23565 0.25652 0.26112 0.0
H1555 H 0.24406 0.2488 0.2429 0.0
H1556 H 0.25807 0.74496 0.2618 0.0
H1557 H 0.26644 0.73654 0.24361 0.0
H1558 H 0.2581 0.6638 0.28102 0.0
H1559 H 0.24276 0.57131 0.28884 0.0
C1560 C 0.98989 0.99098 0.48623 0.0
C1561 C 0.00921 0.93866 0.48972 0.0
C1562 C 0.01168 0.03092 0.51303 0.0
C1563 C 0.99235 0.08325 0.50956 0.0
N1564 N 0.96939 0.1419 0.48976 0.0
N1565 N 0.03191 0.87926 0.50961 0.0
C1566 C 0.98313 0.07147 0.49529 0.0
C1567 C 0.01835 0.95014 0.50401 0.0
N1568 N 0.97705 0.95903 0.47489 0.0
N1569 N 0.02463 0.06302 0.5243 0.0
H1570 H 0.03433 0.81103 0.5044 0.0
H1571 H 0.03769 0.88084 0.52044 0.0
H1572 H 0.0217 0.1295 0.52989 0.0
H1573 H 0.03981 0.03238 0.52651 0.0
H1574 H 0.96186 0.9894 0.47265 0.0
H1575 H 0.98008 0.89282 0.46925 0.0
H1576 H 0.96354 0.14026 0.47895 0.0
H1577 H 0.96687 0.20998 0.49498 0.0
C1578 C 0.01284 0.23126 0.73626 0.0
C1579 C 0.99304 0.18335 0.73982 0.0
C1580 C 0.99036 0.28567 0.76219 0.0
C1581 C 0.01009 0.33402 0.75854 0.0
N1582 N 0.03389 0.38148 0.73856 0.0
N1583 N 0.96892 0.1366 0.75965 0.0
C1584 C 0.01963 0.31522 0.74456 0.0
C1585 C 0.98334 0.20257 0.75376 0.0
N1586 N 0.02611 0.19185 0.72571 0.0
N1587 N 0.97748 0.32365 0.77307 0.0
H1588 H 0.96611 0.06688 0.75499 0.0
H1589 H 0.96264 0.14359 0.77029 0.0
H1590 H 0.98094 0.39108 0.77825 0.0
H1591 H 0.96202 0.29656 0.77534 0.0
H1592 H 0.04157 0.21944 0.72354 0.0
H1593 H 0.02304 0.12296 0.72083 0.0
H1594 H 0.04009 0.37402 0.7279 0.0
H1595 H 0.03659 0.45155 0.74312 0.0
C1596 C 0.00708 0.86467 0.24669 0.0
C1597 C 0.99895 0.86927 0.2613 0.0
C1598 C 0.97746 0.71874 0.25655 0.0
C1599 C 0.98622 0.71255 0.24207 0.0
N1600 N 0.01688 0.75573 0.2267 0.0
N1601 N 0.96923 0.82563 0.2773 0.0
C1602 C 0.00315 0.77884 0.23801 0.0
C1603 C 0.98206 0.80332 0.26547 0.0
N1604 N 0.01732 0.94508 0.2407 0.0
N1605 N 0.96641 0.63982 0.26233 0.0
H1606 H 0.97025 0.89374 0.28278 0.0
H1607 H 0.95559 0.78422 0.28015 0.0
H1608 H 0.96544 0.57154 0.2569 0.0
H1609 H 0.96126 0.63692 0.27329 0.0
H1610 H 0.02203 0.94803 0.22963 0.0
H1611 H 0.01799 0.01354 0.24612 0.0
H1612 H 0.03033 0.79908 0.22404 0.0
H1613 H 0.01704 0.68577 0.22173 0.0
C1614 C 0.00103 0.53412 0.98772 0.0
C1615 C 0.01067 0.43744 0.98834 0.0
C1616 C 0.99674 0.41665 0.01362 0.0
C1617 C 0.98745 0.51395 0.01314 0.0
N1618 N 0.98652 0.67447 0.00126 0.0
N1619 N 0.01463 0.28109 0.00135 0.0
C1620 C 0.99107 0.57484 0.00056 0.0
C1621 C 0.00784 0.37809 0.00118 0.0
N1622 N 0.00082 0.58766 0.97487 0.0
N1623 N 0.9952 0.35637 0.02567 0.0
H1624 H 0.02055 0.24426 0.99205 0.0
H1625 H 0.01303 0.23512 0.01059 0.0
H1626 H 0.98733 0.37418 0.03548 0.0
H1627 H 0.98733 0.37418 0.03548 0.0
H1628 H 0.99114 0.65021 0.97327 0.0
H1629 H 0.00889 0.5674 0.96534 0.0
H1630 H 0.9911 0.72556 0.99319 0.0
H1631 H 0.9804 0.70905 0.01068 0.0
C1632 C 0.44665 0.68609 0.0549 0.0
C1633 C 0.44149 0.73406 0.04141 0.0
C1634 C 0.45327 0.58683 0.02758 0.0
C1635 C 0.45731 0.53687 0.04107 0.0
N1636 N 0.45384 0.53029 0.06756 0.0
N1637 N 0.43588 0.72548 0.01515 0.0
C1638 C 0.45296 0.58423 0.05477 0.0
C1639 C 0.44358 0.68284 0.0278 0.0
N1640 N 0.44555 0.73849 0.06781 0.0
N1641 N 0.45937 0.54323 0.0146 0.0
H1642 H 0.42849 0.79514 0.01509 0.0
H1643 H 0.4351 0.68882 0.00503 0.0
H1644 H 0.46665 0.47319 0.01421 0.0
H1645 H 0.45888 0.57929 0.00441 0.0
H1646 H 0.45138 0.7118 0.07787 0.0
H1647 H 0.43986 0.81154 0.06828 0.0
H1648 H 0.44879 0.55746 0.07777 0.0
H1649 H 0.4579 0.45505 0.06778 0.0
C1650 C 0.77864 0.60009 0.02488 0.0
C1651 C 0.78321 0.65847 0.03751 0.0
C1652 C 0.80345 0.52001 0.0486 0.0
C1653 C 0.79802 0.46007 0.0363 0.0
N1654 N 0.77889 0.43624 0.01345 0.0
N1655 N 0.79735 0.6735 0.06216 0.0
C1656 C 0.78514 0.49832 0.02461 0.0
C1657 C 0.79493 0.61816 0.0496 0.0
N1658 N 0.76849 0.64336 0.01308 0.0
N1659 N 0.81715 0.48293 0.05911 0.0
H1660 H 0.79109 0.74525 0.06318 0.0
H1661 H 0.8041 0.64655 0.07192 0.0
H1662 H 0.82321 0.41048 0.05868 0.0
H1663 H 0.8236 0.52501 0.06771 0.0
H1664 H 0.76619 0.60863 0.00292 0.0
H1665 H 0.76331 0.71729 0.01325 0.0
H1666 H 0.76809 0.45626 0.00513 0.0
H1667 H 0.78366 0.36185 0.01298 0.0
C1668 C 0.4479 0.67051 0.1977 0.0
C1669 C 0.46153 0.70826 0.20902 0.0
C1670 C 0.46275 0.54355 0.22061 0.0
C1671 C 0.44745 0.5085 0.21015 0.0
N1672 N 0.42381 0.5381 0.18957 0.0
N1673 N 0.47958 0.68629 0.23235 0.0
C1674 C 0.43958 0.57197 0.19888 0.0
C1675 C 0.46844 0.64605 0.22075 0.0
N1676 N 0.44351 0.72828 0.18563 0.0
N1677 N 0.47205 0.47794 0.23022 0.0
H1678 H 0.48361 0.76156 0.23286 0.0
H1679 H 0.48325 0.64732 0.24199 0.0
H1680 H 0.4681 0.40262 0.23025 0.0
H1681 H 0.48485 0.49609 0.23722 0.0
H1682 H 0.43517 0.70296 0.17636 0.0
H1683 H 0.44981 0.79983 0.18438 0.0
H1684 H 0.41564 0.58316 0.18204 0.0
H1685 H 0.41793 0.46535 0.19008 0.0
C1686 C 0.78871 0.59412 0.22057 0.0
C1687 C 0.79302 0.53642 0.20784 0.0
C1688 C 0.81336 0.67533 0.1969 0.0
C1689 C 0.80796 0.7349 0.20923 0.0
N1690 N 0.78881 0.75748 0.23206 0.0
N1691 N 0.8068 0.52357 0.18305 0.0
C1692 C 0.79516 0.69588 0.2209 0.0
C1693 C 0.80467 0.57749 0.19576 0.0
N1694 N 0.77864 0.55055 0.23236 0.0
N1695 N 0.82709 0.71255 0.18644 0.0
H1696 H 0.80037 0.45238 0.18187 0.0
H1697 H 0.81344 0.55151 0.17333 0.0
H1698 H 0.83319 0.78491 0.18694 0.0
H1699 H 0.83357 0.6705 0.17786 0.0
H1700 H 0.77663 0.5848 0.24258 0.0
H1701 H 0.77326 0.47693 0.23211 0.0
H1702 H 0.77779 0.73771 0.24025 0.0
H1703 H 0.7937 0.8315 0.23254 0.0
C1704 C 0.54903 0.31554 0.97363 0.0
C1705 C 0.5557 0.26717 0.96046 0.0
C1706 C 0.54844 0.41899 0.94625 0.0
C1707 C 0.54027 0.46492 0.95923 0.0
N1708 N 0.53069 0.45686 0.98488 0.0
N1709 N 0.56042 0.2672 0.93413 0.0
C1710 C 0.54009 0.41315 0.97285 0.0
C1711 C 0.555 0.3175 0.94672 0.0
N1712 N 0.5515 0.26796 0.98686 0.0
N1713 N 0.55059 0.47387 0.93362 0.0
H1714 H 0.56634 0.19447 0.9343 0.0
H1715 H 0.55802 0.29503 0.92351 0.0
H1716 H 0.54568 0.54786 0.93287 0.0
H1717 H 0.55852 0.44878 0.92418 0.0
H1718 H 0.54891 0.30147 0.99707 0.0
H1719 H 0.55762 0.19597 0.98764 0.0
H1720 H 0.52806 0.4207 0.99489 0.0
H1721 H 0.52412 0.52838 0.98448 0.0
C1722 C 0.20201 0.33396 0.94565 0.0
C1723 C 0.2079 0.28794 0.9592 0.0
C1724 C 0.19608 0.43597 0.97281 0.0
C1725 C 0.19211 0.4852 0.95921 0.0
N1726 N 0.19278 0.48659 0.93267 0.0
N1727 N 0.21301 0.29645 0.98546 0.0
C1728 C 0.19555 0.43563 0.94561 0.0
C1729 C 0.20556 0.33941 0.97274 0.0
N1730 N 0.20176 0.27898 0.93296 0.0
N1731 N 0.19037 0.4812 0.98573 0.0
H1732 H 0.22001 0.22576 0.98561 0.0
H1733 H 0.2138 0.33314 0.99558 0.0
H1734 H 0.18315 0.55119 0.98598 0.0
H1735 H 0.19107 0.44669 0.99602 0.0
H1736 H 0.19554 0.30469 0.92296 0.0
H1737 H 0.20628 0.20431 0.93267 0.0
H1738 H 0.19727 0.45889 0.92238 0.0
H1739 H 0.18703 0.55959 0.93235 0.0
C1740 C 0.55169 0.49626 0.79981 0.0
C1741 C 0.54618 0.55633 0.78753 0.0
C1742 C 0.52681 0.41653 0.77612 0.0
C1743 C 0.53148 0.35795 0.78872 0.0
N1744 N 0.54563 0.34264 0.81337 0.0
N1745 N 0.52688 0.58067 0.76475 0.0
C1746 C 0.54321 0.39811 0.80081 0.0
C1747 C 0.53324 0.51835 0.77587 0.0
N1748 N 0.56542 0.53321 0.81031 0.0
N1749 N 0.5167 0.37335 0.76431 0.0
H1750 H 0.53162 0.65512 0.76429 0.0
H1751 H 0.51603 0.5608 0.75646 0.0
H1752 H 0.51165 0.29925 0.76443 0.0
H1753 H 0.51436 0.40835 0.75417 0.0
H1754 H 0.57192 0.49097 0.81888 0.0
H1755 H 0.57145 0.60571 0.80988 0.0
H1756 H 0.5524 0.36951 0.82312 0.0
H1757 H 0.53935 0.27093 0.8144 0.0
C1758 C 0.21636 0.28102 0.77572 0.0
C1759 C 0.20363 0.24294 0.78748 0.0
C1760 C 0.20676 0.40099 0.80073 0.0
C1761 C 0.21818 0.44134 0.78853 0.0
N1762 N 0.23256 0.42623 0.76402 0.0
N1763 N 0.18488 0.26542 0.81044 0.0
C1764 C 0.2227 0.38288 0.77591 0.0
C1765 C 0.19835 0.30272 0.79981 0.0
N1766 N 0.22258 0.21874 0.76458 0.0
N1767 N 0.20453 0.45642 0.8133 0.0
H1768 H 0.1789 0.19282 0.81006 0.0
H1769 H 0.17855 0.30742 0.81908 0.0
H1770 H 0.21072 0.52835 0.81425 0.0
H1771 H 0.19801 0.42939 0.82311 0.0
H1772 H 0.23328 0.23875 0.75621 0.0
H1773 H 0.21793 0.14417 0.76418 0.0
H1774 H 0.23478 0.39123 0.75387 0.0
H1775 H 0.23754 0.50045 0.76408 0.0
C1776 C 0.44434 0.1869 0.55196 0.0
C1777 C 0.44734 0.24711 0.53931 0.0
C1778 C 0.46432 0.10737 0.52619 0.0
C1779 C 0.46214 0.04858 0.53908 0.0
N1780 N 0.45289 0.03293 0.56479 0.0
N1781 N 0.46162 0.27141 0.51489 0.0
C1782 C 0.4529 0.08862 0.55214 0.0
C1783 C 0.45776 0.20912 0.52653 0.0
N1784 N 0.43283 0.22377 0.56363 0.0
N1785 N 0.47236 0.06459 0.51364 0.0
H1786 H 0.45691 0.34595 0.51492 0.0
H1787 H 0.47035 0.25141 0.50552 0.0
H1788 H 0.47759 0.99075 0.51336 0.0
H1789 H 0.47298 0.09967 0.50339 0.0
H1790 H 0.42808 0.1815 0.57271 0.0
H1791 H 0.42677 0.29627 0.56378 0.0
H1792 H 0.44815 0.05973 0.57507 0.0
H1793 H 0.45916 0.96094 0.56521 0.0
C1794 C 0.79489 0.0588 0.52668 0.0
C1795 C 0.80409 0.0196 0.53986 0.0
C1796 C 0.79794 0.17842 0.55257 0.0
C1797 C 0.78885 0.21769 0.53938 0.0
N1798 N 0.77744 0.19885 0.51424 0.0
N1799 N 0.81339 0.03574 0.56548 0.0
C1800 C 0.78699 0.1586 0.5265 0.0
C1801 C 0.80527 0.07783 0.55288 0.0
N1802 N 0.79377 0.99973 0.5144 0.0
N1803 N 0.79982 0.23883 0.56466 0.0
H1804 H 0.81954 0.96345 0.56574 0.0
H1805 H 0.81355 0.07001 0.57578 0.0
H1806 H 0.79378 0.31128 0.56485 0.0
H1807 H 0.80771 0.21934 0.57439 0.0
H1808 H 0.78876 0.02372 0.50402 0.0
H1809 H 0.79808 0.92474 0.51453 0.0
H1810 H 0.77455 0.16071 0.50444 0.0
H1811 H 0.77176 0.27199 0.51399 0.0
C1812 C 0.44561 0.06468 0.69884 0.0
C1813 C 0.44886 1.00503 0.71153 0.0
C1814 C 0.46767 0.14235 0.72399 0.0
C1815 C 0.46363 0.20331 0.71152 0.0
N1816 N 0.44893 0.22695 0.68717 0.0
N1817 N 0.46214 0.98272 0.73626 0.0
C1818 C 0.45263 0.1655 0.69894 0.0
C1819 C 0.45974 0.04269 0.72415 0.0
N1820 N 0.43633 0.023 0.68658 0.0
N1821 N 0.47929 0.18053 0.73554 0.0
H1822 H 0.45665 0.90932 0.73646 0.0
H1823 H 0.46883 1.00535 0.74625 0.0
H1824 H 0.48484 0.25388 0.73563 0.0
H1825 H 0.48418 0.13994 0.74474 0.0
H1826 H 0.4348 0.05852 0.67642 0.0
H1827 H 0.43084 0.94957 0.6864 0.0
H1828 H 0.43924 0.20901 0.67815 0.0
H1829 H 0.45536 0.29845 0.68657 0.0
C1830 C 0.79858 0.11193 0.69739 0.0
C1831 C 0.79068 0.06597 0.71044 0.0
C1832 C 0.7995 0.21528 0.72476 0.0
C1833 C 0.80605 0.26356 0.71155 0.0
N1834 N 0.81047 0.26365 0.68519 0.0
N1835 N 0.78144 0.07358 0.73614 0.0
C1836 C 0.80518 0.21334 0.69781 0.0
C1837 C 0.79061 0.11763 0.72405 0.0
N1838 N 0.80041 0.05712 0.68473 0.0
N1839 N 0.80207 0.26296 0.73797 0.0
H1840 H 0.77497 1.00187 0.73579 0.0
H1841 H 0.77892 0.10949 0.74618 0.0
H1842 H 0.80829 0.33476 0.73869 0.0
H1843 H 0.79945 0.22982 0.74821 0.0
H1844 H 0.8081 0.08219 0.6752 0.0
H1845 H 0.79539 0.98325 0.68404 0.0
H1846 H 0.808 0.23585 0.67459 0.0
H1847 H 0.81641 0.33633 0.68532 0.0
C1848 C 0.52862 0.73227 0.47513 0.0
C1849 C 0.54007 0.6916 0.46297 0.0
C1850 C 0.53489 0.84597 0.449 0.0
C1851 C 0.52493 0.8892 0.46155 0.0
N1852 N 0.51405 0.88021 0.48699 0.0
N1853 N 0.55584 0.70862 0.43888 0.0
C1854 C 0.52217 0.83393 0.47474 0.0
C1855 C 0.54362 0.74821 0.45001 0.0
N1856 N 0.52358 0.67253 0.48685 0.0
N1857 N 0.53554 0.89851 0.43607 0.0
H1858 H 0.56216 0.63665 0.43939 0.0
H1859 H 0.56086 0.74827 0.42962 0.0
H1860 H 0.52915 0.97011 0.43511 0.0
H1861 H 0.54095 0.8694 0.42607 0.0
H1862 H 0.51374 0.69457 0.49559 0.0
H1863 H 0.52813 0.59785 0.48736 0.0
H1864 H 0.51344 0.84775 0.49743 0.0
H1865 H 0.50907 0.95441 0.48689 0.0
C1866 C 0.21527 0.9908 0.47688 0.0
C1867 C 0.20181 0.02875 0.46548 0.0
C1868 C 0.20416 0.87055 0.45219 0.0
C1869 C 0.21631 0.83026 0.46408 0.0
N1870 N 0.23204 0.84562 0.48822 0.0
N1871 N 0.1816 0.00577 0.4431 0.0
C1872 C 0.22156 0.88886 0.47657 0.0
C1873 C 0.19574 0.96872 0.45334 0.0
N1874 N 0.22226 0.05324 0.48779 0.0
N1875 N 0.20131 0.81533 0.43966 0.0
H1876 H 0.17565 0.07839 0.44361 0.0
H1877 H 0.17471 0.96349 0.43469 0.0
H1878 H 0.20763 0.7438 0.43851 0.0
H1879 H 0.19418 0.84239 0.43004 0.0
H1880 H 0.23365 0.03351 0.49575 0.0
H1881 H 0.21753 0.12767 0.48834 0.0
H1882 H 0.23476 0.8808 0.4983 0.0
H1883 H 0.23697 0.77133 0.48807 0.0
C1884 C 0.5598 0.93864 0.30454 0.0
C1885 C 0.55157 1.00255 0.29345 0.0
C1886 C 0.53003 0.86541 0.28317 0.0
C1887 C 0.53745 0.80264 0.29469 0.0
N1888 N 0.5564 0.78164 0.3177 0.0
N1889 N 0.52637 0.03379 0.27374 0.0
C1890 C 0.55154 0.83998 0.30578 0.0
C1891 C 0.53588 0.96786 0.28322 0.0
N1892 N 0.57588 0.97218 0.31364 0.0
N1893 N 0.51814 0.82571 0.27188 0.0
H1894 H 0.53047 0.10897 0.27363 0.0
H1895 H 0.51335 0.01614 0.26692 0.0
H1896 H 0.5138 0.75073 0.27155 0.0
H1897 H 0.51397 0.86476 0.26235 0.0
H1898 H 0.5843 0.92687 0.321 0.0
H1899 H 0.58172 0.04498 0.31311 0.0
H1900 H 0.56503 0.80664 0.32686 0.0
H1901 H 0.55026 0.70979 0.31894 0.0
C1902 C 0.20761 0.79635 0.28053 0.0
C1903 C 0.19662 0.75409 0.29284 0.0
C1904 C 0.20041 0.91105 0.30653 0.0
C1905 C 0.21116 0.95361 0.29418 0.0
N1906 N 0.22645 0.93935 0.26995 0.0
N1907 N 0.18049 0.77058 0.3168 0.0
C1908 C 0.21501 0.89693 0.28126 0.0
C1909 C 0.19261 0.81128 0.3057 0.0
N1910 N 0.21078 0.73975 0.26817 0.0
N1911 N 0.19795 0.96643 0.31909 0.0
H1912 H 0.17457 0.69792 0.31634 0.0
H1913 H 0.17522 0.80921 0.32608 0.0
H1914 H 0.20245 0.04107 0.31972 0.0
H1915 H 0.19213 0.93869 0.32906 0.0
H1916 H 0.21683 0.76658 0.25822 0.0
H1917 H 0.207 0.66426 0.26774 0.0
H1918 H 0.23117 0.90256 0.26038 0.0
H1919 H 0.23199 0.01265 0.27039 0.0
C1920 C 0.95586 0.6187 0.5535 0.0
C1921 C 0.96737 0.57546 0.54156 0.0
C1922 C 0.96706 0.73545 0.52854 0.0
C1923 C 0.95352 0.77537 0.5397 0.0
N1924 N 0.93314 0.75466 0.56207 0.0
N1925 N 0.98095 0.58693 0.51667 0.0
C1926 C 0.94746 0.7169 0.55204 0.0
C1927 C 0.97229 0.63246 0.5288 0.0
N1928 N 0.95352 0.56636 0.56635 0.0
N1929 N 0.97529 0.79686 0.5179 0.0
H1930 H 0.98434 0.51097 0.51635 0.0
H1931 H 0.98295 0.62227 0.50651 0.0
H1932 H 0.97204 0.873 0.51763 0.0
H1933 H 0.98684 0.77438 0.51021 0.0
H1934 H 0.94693 0.59622 0.57596 0.0
H1935 H 0.95991 0.49509 0.56776 0.0
H1936 H 0.92625 0.71282 0.57054 0.0
H1937 H 0.92697 0.82676 0.56126 0.0
C1938 C 0.30639 0.54476 0.55294 0.0
C1939 C 0.30266 0.48577 0.54025 0.0
C1940 C 0.28335 0.62376 0.52828 0.0
C1941 C 0.28789 0.68404 0.54074 0.0
N1942 N 0.30414 0.70711 0.56463 0.0
N1943 N 0.28873 0.46545 0.51566 0.0
C1944 C 0.29955 0.6458 0.55301 0.0
C1945 C 0.29139 0.52432 0.52784 0.0
N1946 N 0.31589 0.50222 0.56505 0.0
N1947 N 0.27116 0.66231 0.51704 0.0
H1948 H 0.29438 0.39232 0.51524 0.0
H1949 H 0.28181 0.48907 0.50578 0.0
H1950 H 0.26554 0.73556 0.51713 0.0
H1951 H 0.26583 0.62193 0.50793 0.0
H1952 H 0.31753 0.53715 0.57525 0.0
H1953 H 0.32127 0.42861 0.56512 0.0
H1954 H 0.31449 0.68872 0.57329 0.0
H1955 H 0.29802 0.77912 0.56538 0.0
C1956 C 0.96378 0.52444 0.72301 0.0
C1957 C 0.95212 0.48606 0.71077 0.0
C1958 C 0.95475 0.64625 0.69799 0.0
C1959 C 0.96675 0.68441 0.7101 0.0
N1960 N 0.98411 0.6628 0.7336 0.0
N1961 N 0.93813 0.50269 0.68616 0.0
C1962 C 0.97169 0.62405 0.72249 0.0
C1963 C 0.94797 0.54517 0.69815 0.0
N1964 N 0.96694 0.46517 0.73511 0.0
N1965 N 0.94978 0.70768 0.68643 0.0
H1966 H 0.93281 0.429 0.68615 0.0
H1967 H 0.93615 0.53774 0.676 0.0
H1968 H 0.95581 0.77982 0.68562 0.0
H1969 H 0.93921 0.68926 0.67791 0.0
H1970 H 0.97431 0.4883 0.74486 0.0
H1971 H 0.96136 0.39195 0.7356 0.0
H1972 H 0.98963 0.62264 0.74268 0.0
H1973 H 0.98963 0.73618 0.73344 0.0
C1974 C 0.28901 0.74212 0.72472 0.0
C1975 C 0.30112 0.78052 0.71268 0.0
C1976 C 0.29734 0.62261 0.69945 0.0
C1977 C 0.28655 0.58188 0.71189 0.0
N1978 N 0.27325 0.59672 0.73669 0.0
N1979 N 0.31879 0.75819 0.68932 0.0
C1980 C 0.28265 0.64017 0.72464 0.0
C1981 C 0.30582 0.72082 0.70023 0.0
N1982 N 0.28334 0.80422 0.73602 0.0
N1983 N 0.29884 0.56776 0.68678 0.0
H1984 H 0.32479 0.83078 0.68957 0.0
H1985 H 0.32474 0.71616 0.68056 0.0
H1986 H 0.2925 0.4961 0.6859 0.0
H1987 H 0.30484 0.5952 0.67683 0.0
H1988 H 0.27309 0.78409 0.74464 0.0
H1989 H 0.28802 0.87878 0.73633 0.0
H1990 H 0.27145 0.63157 0.74688 0.0
H1991 H 0.2682 0.52261 0.73667 0.0
C1992 C 0.05446 0.30518 0.44715 0.0
C1993 C 0.04805 0.24632 0.45936 0.0
C1994 C 0.02914 0.38899 0.47021 0.0
C1995 C 0.03454 0.44662 0.45761 0.0
N1996 N 0.04905 0.45696 0.43301 0.0
N1997 N 0.02563 0.22405 0.48084 0.0
C1998 C 0.04627 0.40378 0.44574 0.0
C1999 C 0.03423 0.2859 0.47039 0.0
N2000 N 0.06893 0.26742 0.43721 0.0
N2001 N 0.02013 0.43402 0.48226 0.0
H2002 H 0.02875 0.14778 0.48102 0.0
H2003 H 0.01392 0.24637 0.48842 0.0
H2004 H 0.01678 0.51002 0.48262 0.0
H2005 H 0.01776 0.39816 0.49234 0.0
H2006 H 0.07605 0.30939 0.42885 0.0
H2007 H 0.07493 0.19501 0.43799 0.0
H2008 H 0.05583 0.42756 0.42342 0.0
H2009 H 0.04287 0.52866 0.43165 0.0
C2010 C 0.69309 0.45586 0.44649 0.0
C2011 C 0.69741 0.5134 0.45927 0.0
C2012 C 0.716 0.37077 0.47078 0.0
C2013 C 0.71187 0.31378 0.45792 0.0
N2014 N 0.69797 0.30005 0.43318 0.0
N2015 N 0.71202 0.52825 0.48381 0.0
C2016 C 0.70081 0.35595 0.44565 0.0
C2017 C 0.70862 0.47139 0.47151 0.0
N2018 N 0.68077 0.49641 0.43546 0.0
N2019 N 0.72768 0.32864 0.482 0.0
H2020 H 0.70827 0.60379 0.48423 0.0
H2021 H 0.71818 0.50151 0.49375 0.0
H2022 H 0.73321 0.2553 0.48157 0.0
H2023 H 0.73261 0.36571 0.49151 0.0
H2024 H 0.6753 0.45767 0.42624 0.0
H2025 H 0.67491 0.56918 0.43592 0.0
H2026 H 0.69187 0.32736 0.42326 0.0
H2027 H 0.70237 0.22528 0.43257 0.0
C2028 C 0.03457 0.41559 0.30313 0.0
C2029 C 0.02491 0.37133 0.29053 0.0
C2030 C 0.02893 0.52705 0.27671 0.0
C2031 C 0.04003 0.56885 0.28894 0.0
N2032 N 0.05522 0.5539 0.31325 0.0
N2033 N 0.01462 0.37806 0.26496 0.0
C2034 C 0.04328 0.51334 0.30205 0.0
C2035 C 0.02248 0.42542 0.27721 0.0
N2036 N 0.03498 0.36397 0.31615 0.0
N2037 N 0.02418 0.58574 0.2648 0.0
H2038 H 0.0096 0.30394 0.26517 0.0
H2039 H 0.01425 0.40954 0.25445 0.0
H2040 H 0.02863 0.66053 0.26424 0.0
H2041 H 0.01467 0.56279 0.25594 0.0
H2042 H 0.04013 0.39387 0.32616 0.0
H2043 H 0.02866 0.29226 0.31714 0.0
H2044 H 0.05999 0.51511 0.32267 0.0
H2045 H 0.06158 0.62576 0.31268 0.0
C2046 C 0.68833 0.33191 0.29852 0.0
C2047 C 0.69532 0.27072 0.28674 0.0
C2048 C 0.71619 0.40963 0.2763 0.0
C2049 C 0.71021 0.46887 0.28854 0.0
N2050 N 0.69348 0.48476 0.31239 0.0
N2051 N 0.71746 0.24502 0.26528 0.0
C2052 C 0.697 0.42954 0.29996 0.0
C2053 C 0.70972 0.30798 0.27585 0.0
N2054 N 0.67322 0.2963 0.30819 0.0
N2055 N 0.72768 0.45184 0.26502 0.0
H2056 H 0.71249 0.17118 0.26463 0.0
H2057 H 0.7296 0.26357 0.25779 0.0
H2058 H 0.73288 0.52571 0.26534 0.0
H2059 H 0.73099 0.41625 0.25506 0.0
H2060 H 0.66567 0.33972 0.3162 0.0
H2061 H 0.66716 0.22393 0.30753 0.0
H2062 H 0.68547 0.45832 0.32172 0.0
H2063 H 0.70022 0.55517 0.31385 0.0
C2064 C 0.95261 0.05378 0.05672 0.0
C2065 C 0.95966 0.00724 0.04352 0.0
C2066 C 0.9541 0.16262 0.02988 0.0
C2067 C 0.94507 0.20666 0.04276 0.0
N2068 N 0.93325 0.19191 0.06796 0.0
N2069 N 0.96359 0.01033 0.01708 0.0
C2070 C 0.94375 0.15167 0.0561 0.0
C2071 C 0.95951 0.05989 0.02997 0.0
N2072 N 0.9548 1.00448 0.06985 0.0
N2073 N 0.95812 0.21977 0.01769 0.0
H2074 H 0.9672 0.93457 0.01675 0.0
H2075 H 0.96148 0.04184 0.00666 0.0
H2076 H 0.95491 0.29581 0.01731 0.0
H2077 H 0.96671 0.19439 0.00853 0.0
H2078 H 0.95181 0.03683 0.0801 0.0
H2079 H 0.96128 0.93289 0.07051 0.0
H2080 H 0.92981 0.15261 0.0776 0.0
H2081 H 0.92648 0.26303 0.06771 0.0
C2082 C 0.29987 0.05349 0.026 0.0
C2083 C 0.30529 1.00427 0.03938 0.0
C2084 C 0.29661 0.15526 0.0534 0.0
C2085 C 0.28949 0.20157 0.04015 0.0
N2086 N 0.28218 0.19441 0.01414 0.0
N2087 N 0.30758 1.00304 0.06587 0.0
C2088 C 0.29061 0.15054 0.0265 0.0
C2089 C 0.30328 0.05385 0.05311 0.0
N2090 N 0.30387 0.00748 0.01284 0.0
N2091 N 0.29774 0.20977 0.06612 0.0
H2092 H 0.31361 0.93048 0.06589 0.0
H2093 H 0.30418 0.03034 0.07638 0.0
H2094 H 0.29286 0.28388 0.06669 0.0
H2095 H 0.30487 0.18428 0.07584 0.0
H2096 H 0.30221 0.04186 0.00259 0.0
H2097 H 0.31049 0.93636 0.01223 0.0
H2098 H 0.28047 0.15848 0.00402 0.0
H2099 H 0.27539 0.26554 0.01433 0.0
C2100 C 0.94504 0.0586 0.19991 0.0
C2101 C 0.94706 0.99952 0.21278 0.0
C2102 C 0.96494 0.13717 0.22582 0.0
C2103 C 0.96205 0.19768 0.21314 0.0
N2104 N 0.94945 0.22034 0.18824 0.0
N2105 N 0.95786 0.97901 0.23809 0.0
C2106 C 0.95212 0.15937 0.20019 0.0
C2107 C 0.95678 0.03788 0.22579 0.0
N2108 N 0.93678 0.01653 0.18735 0.0
N2109 N 0.97583 0.17514 0.2377 0.0
H2110 H 0.95247 0.90543 0.23814 0.0
H2111 H 0.96322 1.00311 0.24839 0.0
H2112 H 0.98156 0.24818 0.23793 0.0
H2113 H 0.98009 0.13425 0.24703 0.0
H2114 H 0.93626 0.05145 0.1771 0.0
H2115 H 0.93111 0.9434 0.18705 0.0
H2116 H 0.94049 0.20212 0.17889 0.0
H2117 H 0.95597 0.29172 0.18782 0.0
C2118 C 0.30406 0.18293 0.19823 0.0
C2119 C 0.30268 0.24218 0.21112 0.0
C2120 C 0.28674 0.10187 0.22483 0.0
C2121 C 0.28742 0.04396 0.21178 0.0
N2122 N 0.29477 0.02815 0.18581 0.0
N2123 N 0.29156 0.26412 0.23637 0.0
C2124 C 0.29553 0.08439 0.19838 0.0
C2125 C 0.29369 0.20314 0.22438 0.0
N2126 N 0.31426 0.2206 0.18605 0.0
N2127 N 0.27951 0.05877 0.2376 0.0
H2128 H 0.29582 0.33915 0.23613 0.0
H2129 H 0.28473 0.24295 0.24639 0.0
H2130 H 0.27394 0.98548 0.23796 0.0
H2131 H 0.27961 0.09306 0.2479 0.0
H2132 H 0.3177 0.17965 0.17659 0.0
H2133 H 0.32051 0.29271 0.18574 0.0
H2134 H 0.29861 0.05467 0.17533 0.0
H2135 H 0.28908 0.9551 0.18572 0.0
C2136 C 0.03673 0.89119 0.97249 0.0
C2137 C 0.03802 0.94862 0.95941 0.0
C2138 C 0.05528 0.80913 0.94639 0.0
C2139 C 0.05304 0.75004 0.95924 0.0
N2140 N 0.03996 0.72839 0.98407 0.0
N2141 N 0.04636 0.96272 0.93354 0.0
C2142 C 0.04332 0.78948 0.97221 0.0
C2143 C 0.0467 0.90753 0.94623 0.0
N2144 N 0.02939 0.93516 0.98514 0.0
N2145 N 0.06626 0.7714 0.93454 0.0
H2146 H 0.04053 0.03547 0.93319 0.0
H2147 H 0.05058 0.93521 0.92318 0.0
H2148 H 0.07253 0.69927 0.93445 0.0
H2149 H 0.07041 0.81263 0.92522 0.0
H2150 H 0.02958 0.9014 0.9955 0.0
H2151 H 0.02399 0.00875 0.98538 0.0
H2152 H 0.03176 0.74937 0.99361 0.0
H2153 H 0.0443 0.65342 0.98404 0.0
C2154 C 0.70212 0.86153 0.94952 0.0
C2155 C 0.71311 0.82384 0.96212 0.0
C2156 C 0.70922 0.98468 0.97467 0.0
C2157 C 0.69833 0.02227 0.96203 0.0
N2158 N 0.68561 1.0037 0.93715 0.0
N2159 N 0.72887 0.84719 0.98609 0.0
C2160 C 0.69506 0.96235 0.94937 0.0
C2161 C 0.71716 0.88503 0.97455 0.0
N2162 N 0.6985 0.79996 0.93776 0.0
N2163 N 0.71159 0.04467 0.98675 0.0
H2164 H 0.73442 0.77383 0.98624 0.0
H2165 H 0.73389 0.88817 0.99522 0.0
H2166 H 0.70624 0.11829 0.9869 0.0
H2167 H 0.71808 0.02169 0.9968 0.0
H2168 H 0.68892 0.81787 0.92868 0.0
H2169 H 0.70493 0.72844 0.93721 0.0
H2170 H 0.68392 0.96794 0.92703 0.0
H2171 H 0.68003 0.077 0.93697 0.0
C2172 C 0.03051 0.88703 0.77756 0.0
C2173 C 0.03555 0.82955 0.79025 0.0
C2174 C 0.05519 0.97101 0.80094 0.0
C2175 C 0.04906 0.02979 0.78865 0.0
N2176 N 0.02712 0.05189 0.76691 0.0
N2177 N 0.04939 0.81942 0.81505 0.0
C2178 C 0.03553 0.99013 0.77745 0.0
C2179 C 0.04697 0.87246 0.80227 0.0
N2180 N 0.02193 0.84188 0.76536 0.0
N2181 N 0.06942 0.0088 0.81105 0.0
H2182 H 0.04316 0.74779 0.81635 0.0
H2183 H 0.05593 0.84892 0.82471 0.0
H2184 H 0.07546 0.08117 0.81033 0.0
H2185 H 0.07634 0.96684 0.8195 0.0
H2186 H 0.01987 0.87777 0.75525 0.0
H2187 H 0.0187 0.7658 0.76493 0.0
H2188 H 0.01557 0.02936 0.75922 0.0
H2189 H 0.03017 0.1282 0.76678 0.0
C2190 C 0.69536 0.95877 0.80469 0.0
C2191 C 0.70933 0.99694 0.7936 0.0
C2192 C 0.7111 0.83258 0.78197 0.0
C2193 C 0.69557 0.797 0.79221 0.0
N2194 N 0.67133 0.82529 0.81248 0.0
N2195 N 0.72846 0.97588 0.77069 0.0
C2196 C 0.68728 0.85995 0.80338 0.0
C2197 C 0.71677 0.93514 0.782 0.0
N2198 N 0.69044 0.0165 0.81664 0.0
N2199 N 0.72063 0.7674 0.7724 0.0
H2200 H 0.73258 0.05111 0.77038 0.0
H2201 H 0.73264 0.93742 0.76112 0.0
H2202 H 0.7167 0.69203 0.77224 0.0
H2203 H 0.73353 0.78586 0.76552 0.0
H2204 H 0.68184 0.99095 0.82578 0.0
H2205 H 0.69647 0.08848 0.81794 0.0
H2206 H 0.66288 0.86982 0.81991 0.0
H2207 H 0.6656 0.75231 0.81188 0.0
C2208 C 0.36119 0.37195 0.03803 0.0
C2209 C 0.35446 0.42051 0.05121 0.0
C2210 C 0.38307 0.33226 0.06502 0.0
C2211 C 0.38761 0.27319 0.05231 0.0
N2212 N 0.37868 0.22829 0.02718 0.0
N2213 N 0.3598 0.45222 0.07717 0.0
C2214 C 0.37621 0.29152 0.0389 0.0
C2215 C 0.36579 0.40245 0.06463 0.0
N2216 N 0.35354 0.40256 0.02459 0.0
N2217 N 0.39571 0.32432 0.07738 0.0
H2218 H 0.34942 0.51334 0.07698 0.0
H2219 H 0.36456 0.43166 0.08778 0.0
H2220 H 0.40745 0.26999 0.07876 0.0
H2221 H 0.39549 0.37516 0.08605 0.0
H2222 H 0.35973 0.37696 0.01458 0.0
H2223 H 0.34281 0.46132 0.02319 0.0
H2224 H 0.36878 0.22975 0.01785 0.0
H2225 H 0.38917 0.16767 0.0273 0.0
C2226 C 0.86655 0.87614 0.05743 0.0
C2227 C 0.85208 0.88455 0.04526 0.0
C2228 C 0.8708 0.7472 0.03272 0.0
C2229 C 0.88481 0.73687 0.04506 0.0
N2230 N 0.89939 0.80433 0.06769 0.0
N2231 N 0.84549 0.85156 0.01936 0.0
C2232 C 0.88383 0.80594 0.05692 0.0
C2233 C 0.85581 0.82773 0.03225 0.0
N2234 N 0.8634 0.93415 0.06965 0.0
N2235 N 0.87149 0.67874 0.02155 0.0
H2236 H 0.83514 0.91216 0.01828 0.0
H2237 H 0.84905 0.81836 0.00925 0.0
H2238 H 0.88293 0.62169 0.02111 0.0
H2239 H 0.85984 0.67436 0.01324 0.0
H2240 H 0.87124 0.92302 0.07971 0.0
H2241 H 0.85231 0.9926 0.06983 0.0
H2242 H 0.90109 0.85929 0.07571 0.0
H2243 H 0.91171 0.75141 0.06807 0.0
C2244 C 0.37063 0.83654 0.19261 0.0
C2245 C 0.35585 0.82208 0.20444 0.0
C2246 C 0.37302 0.95831 0.21823 0.0
C2247 C 0.38736 0.97491 0.20623 0.0
N2248 N 0.40345 0.91483 0.18357 0.0
N2249 N 0.34852 0.84471 0.23051 0.0
C2250 C 0.38741 0.90879 0.19395 0.0
C2251 C 0.35878 0.87503 0.21791 0.0
N2252 N 0.36828 0.78213 0.17994 0.0
N2253 N 0.37279 0.02284 0.22992 0.0
H2254 H 0.33874 0.78187 0.23105 0.0
H2255 H 0.35164 0.875 0.24089 0.0
H2256 H 0.38386 0.08092 0.2311 0.0
H2257 H 0.36075 0.02273 0.23798 0.0
H2258 H 0.37637 0.7977 0.17012 0.0
H2259 H 0.35755 0.7224 0.17914 0.0
H2260 H 0.40577 0.86231 0.17527 0.0
H2261 H 0.41554 0.96863 0.18381 0.0
C2262 C 0.86445 0.36455 0.21266 0.0
C2263 C 0.85848 0.3216 0.19886 0.0
C2264 C 0.88625 0.42309 0.18635 0.0
C2265 C 0.89044 0.47405 0.19988 0.0
N2266 N 0.88118 0.50321 0.2254 0.0
N2267 N 0.86512 0.30074 0.17284 0.0
C2268 C 0.87906 0.44665 0.21291 0.0
C2269 C 0.87001 0.34784 0.18583 0.0
N2270 N 0.85657 0.32675 0.22562 0.0
N2271 N 0.89813 0.4446 0.17401 0.0
H2272 H 0.85568 0.23644 0.17243 0.0
H2273 H 0.86998 0.32527 0.16245 0.0
H2274 H 0.9082 0.50602 0.17316 0.0
H2275 H 0.89857 0.40043 0.16458 0.0
H2276 H 0.86237 0.34765 0.23598 0.0
H2277 H 0.84598 0.26696 0.22629 0.0
H2278 H 0.87126 0.49576 0.23464 0.0
H2279 H 0.89138 0.56467 0.22606 0.0
C2280 C 0.63492 0.59289 0.93714 0.0
C2281 C 0.64025 0.54314 0.95059 0.0
C2282 C 0.61289 0.64364 0.96372 0.0
C2283 C 0.60596 0.68502 0.95 0.0
N2284 N 0.61173 0.70869 0.92392 0.0
N2285 N 0.63257 0.51257 0.97633 0.0
C2286 C 0.61757 0.66286 0.93684 0.0
C2287 C 0.62896 0.56727 0.96381 0.0
N2288 N 0.6468 0.57542 0.92465 0.0
N2289 N 0.60442 0.67732 0.97676 0.0
H2290 H 0.64409 0.45625 0.97698 0.0
H2291 H 0.62286 0.51629 0.98572 0.0
H2292 H 0.59242 0.73111 0.97755 0.0
H2293 H 0.61081 0.65909 0.98707 0.0
H2294 H 0.6463 0.61957 0.91521 0.0
H2295 H 0.65785 0.51776 0.9237 0.0
H2296 H 0.61666 0.68584 0.91346 0.0
H2297 H 0.60145 0.77019 0.92362 0.0
C2298 C 0.13323 0.07954 0.93488 0.0
C2299 C 0.13775 0.02238 0.94781 0.0
C2300 C 0.11131 0.12328 0.96171 0.0
C2301 C 0.10473 0.17038 0.94836 0.0
N2302 N 0.11044 0.2004 0.92241 0.0
N2303 N 0.12895 0.98166 0.9731 0.0
C2304 C 0.11618 0.15094 0.93505 0.0
C2305 C 0.12639 0.04292 0.96115 0.0
N2306 N 0.14564 0.0682 0.92249 0.0
N2307 N 0.10348 0.15526 0.97502 0.0
H2308 H 0.13952 0.92136 0.97322 0.0
H2309 H 0.1191 0.98435 0.98243 0.0
H2310 H 0.09261 0.21369 0.9762 0.0
H2311 H 0.10958 0.13109 0.98514 0.0
H2312 H 0.14561 0.11764 0.91363 0.0
H2313 H 0.15685 0.01158 0.92117 0.0
H2314 H 0.11527 0.17936 0.91184 0.0
H2315 H 0.10021 0.26214 0.92248 0.0
C2316 C 0.63369 0.20189 0.80714 0.0
C2317 C 0.63456 0.27094 0.79524 0.0
C2318 C 0.60449 0.18352 0.78308 0.0
C2319 C 0.60091 0.12784 0.79623 0.0
N2320 N 0.61286 0.07769 0.82046 0.0
N2321 N 0.62075 0.3292 0.77182 0.0
C2322 C 0.61592 0.13461 0.8081 0.0
C2323 C 0.61999 0.26193 0.78317 0.0
N2324 N 0.64981 0.2004 0.81752 0.0
N2325 N 0.59359 0.16049 0.77037 0.0
H2326 H 0.63278 0.38331 0.77088 0.0
H2327 H 0.60871 0.3353 0.7638 0.0
H2328 H 0.58275 0.10162 0.76951 0.0
H2329 H 0.59707 0.19244 0.76016 0.0
H2330 H 0.6514 0.14518 0.82551 0.0
H2331 H 0.66268 0.25032 0.81755 0.0
H2332 H 0.62117 0.0883 0.83036 0.0
H2333 H 0.60135 0.02101 0.82096 0.0
C2334 C 0.1274 0.55309 0.78053 0.0
C2335 C 0.1121 0.54598 0.79217 0.0
C2336 C 0.13204 0.67235 0.8063 0.0
C2337 C 0.14775 0.67725 0.79484 0.0
N2338 N 0.15631 0.64668 0.76907 0.0
N2339 N 0.0968 0.61482 0.81452 0.0
C2340 C 0.14416 0.62562 0.78131 0.0
C2341 C 0.11338 0.6112 0.80451 0.0
N2342 N 0.12615 0.48923 0.76879 0.0
N2343 N 0.13523 0.72504 0.81905 0.0
H2344 H 0.08332 0.56855 0.81403 0.0
H2345 H 0.09553 0.66862 0.82275 0.0
H2346 H 0.14749 0.77784 0.8202 0.0
H2347 H 0.12626 0.71444 0.82866 0.0
H2348 H 0.13852 0.48039 0.76107 0.0
H2349 H 0.11322 0.44049 0.76716 0.0
H2350 H 0.15287 0.61872 0.75859 0.0
H2351 H 0.16845 0.70012 0.76878 0.0
C2352 C 0.38386 0.84435 0.56497 0.0
C2353 C 0.39489 0.82343 0.55153 0.0
C2354 C 0.37114 0.94114 0.53839 0.0
C2355 C 0.36034 0.96373 0.55187 0.0
N2356 N 0.35446 0.92663 0.57773 0.0
N2357 N 0.395 0.8322 0.52473 0.0
C2358 C 0.3662 0.91261 0.56509 0.0
C2359 C 0.38724 0.86513 0.53802 0.0
N2360 N 0.39052 0.79893 0.57774 0.0
N2361 N 0.36701 0.99673 0.52603 0.0
H2362 H 0.40702 0.77887 0.52354 0.0
H2363 H 0.38797 0.8506 0.51463 0.0
H2364 H 0.35531 0.05228 0.52562 0.0
H2365 H 0.37647 0.99433 0.51651 0.0
H2366 H 0.386 0.82162 0.5883 0.0
H2367 H 0.40112 0.73851 0.5778 0.0
H2368 H 0.35553 0.88135 0.58703 0.0
H2369 H 0.34279 0.9815 0.57887 0.0
C2370 C 0.86157 0.3919 0.5322 0.0
C2371 C 0.85835 0.4441 0.54571 0.0
C2372 C 0.89029 0.36167 0.55644 0.0
C2373 C 0.89161 0.29986 0.5437 0.0
N2374 N 0.87874 0.25368 0.5195 0.0
N2375 N 0.87276 0.50078 0.56887 0.0
C2376 C 0.87742 0.31495 0.53155 0.0
C2377 C 0.87373 0.43541 0.5573 0.0
N2378 N 0.85014 0.41793 0.51983 0.0
N2379 N 0.90419 0.34621 0.56801 0.0
H2380 H 0.86128 0.55762 0.56939 0.0
H2381 H 0.88413 0.50511 0.57733 0.0
H2382 H 0.91679 0.29491 0.56765 0.0
H2383 H 0.90295 0.38066 0.57826 0.0
H2384 H 0.85323 0.38942 0.50935 0.0
H2385 H 0.83902 0.47593 0.51953 0.0
H2386 H 0.86703 0.25053 0.51123 0.0
H2387 H 0.89101 0.20116 0.51812 0.0
C2388 C 0.36232 0.39369 0.71404 0.0
C2389 C 0.3547 0.35192 0.70053 0.0
C2390 C 0.38447 0.43439 0.68711 0.0
C2391 C 0.39047 0.48556 0.70029 0.0
N2392 N 0.38374 0.52115 0.72604 0.0
N2393 N 0.35962 0.32341 0.67446 0.0
C2394 C 0.37923 0.46597 0.71371 0.0
C2395 C 0.36627 0.36925 0.68719 0.0
N2396 N 0.35371 0.3645 0.72728 0.0
N2397 N 0.39659 0.4453 0.67457 0.0
H2398 H 0.34861 0.26462 0.67441 0.0
H2399 H 0.36458 0.34406 0.6639 0.0
H2400 H 0.40875 0.49788 0.67346 0.0
H2401 H 0.39535 0.39961 0.66534 0.0
H2402 H 0.36064 0.38194 0.73745 0.0
H2403 H 0.34085 0.31541 0.72842 0.0
H2404 H 0.37407 0.52172 0.73547 0.0
H2405 H 0.39614 0.57328 0.72656 0.0
C2406 C 0.86536 0.87853 0.71335 0.0
C2407 C 0.85724 0.83875 0.69984 0.0
C2408 C 0.88707 0.91983 0.68627 0.0
C2409 C 0.8936 0.96913 0.69947 0.0
N2410 N 0.88782 1.0019 0.72542 0.0
N2411 N 0.86139 0.81321 0.67361 0.0
C2412 C 0.88264 0.94899 0.713 0.0
C2413 C 0.86855 0.85664 0.6864 0.0
N2414 N 0.85681 0.84926 0.7266 0.0
N2415 N 0.89902 0.93036 0.67364 0.0
H2416 H 0.8502 0.75525 0.67353 0.0
H2417 H 0.86611 0.83522 0.66307 0.0
H2418 H 0.91154 0.98117 0.67255 0.0
H2419 H 0.89735 0.88559 0.66434 0.0
H2420 H 0.86402 0.86482 0.73675 0.0
H2421 H 0.84362 0.80204 0.72774 0.0
H2422 H 0.87842 1.00251 0.73497 0.0
H2423 H 0.90061 0.05198 0.72595 0.0
C2424 C 0.6362 0.12259 0.44838 0.0
C2425 C 0.63727 0.02867 0.45558 0.0
C2426 C 0.60114 0.06113 0.46568 0.0
C2427 C 0.59813 0.1389 0.45527 0.0
N2428 N 0.61316 0.24085 0.43584 0.0
N2429 N 0.61934 0.90554 0.47073 0.0
C2430 C 0.61576 0.16871 0.44632 0.0
C2431 C 0.6193 0.99686 0.46415 0.0
N2432 N 0.65459 0.17075 0.44419 0.0
N2433 N 0.5873 0.05076 0.47732 0.0
H2434 H 0.63246 0.85713 0.47013 0.0
H2435 H 0.60567 0.8755 0.47583 0.0
H2436 H 0.57541 0.10345 0.47966 0.0
H2437 H 0.58964 0.99858 0.4857 0.0
H2438 H 0.65455 0.24232 0.43974 0.0
H2439 H 0.66979 0.14649 0.44746 0.0
H2440 H 0.62499 0.25716 0.42798 0.0
H2441 H 0.59872 0.27965 0.43443 0.0
C2442 C 0.12569 0.72351 0.46927 0.0
C2443 C 0.11129 0.72996 0.45708 0.0
C2444 C 0.13183 0.60015 0.44411 0.0
C2445 C 0.14664 0.59578 0.45614 0.0
N2446 N 0.15334 0.6292 0.48207 0.0
N2447 N 0.09747 0.65892 0.43443 0.0
C2448 C 0.14221 0.6496 0.46935 0.0
C2449 C 0.11327 0.66285 0.44502 0.0
N2450 N 0.12378 0.78914 0.48076 0.0
N2451 N 0.1358 0.54553 0.43165 0.0
H2452 H 0.08417 0.70651 0.43425 0.0
H2453 H 0.09661 0.60385 0.42636 0.0
H2454 H 0.14794 0.49172 0.43112 0.0
H2455 H 0.12761 0.55545 0.42169 0.0
H2456 H 0.13556 0.79801 0.4889 0.0
H2457 H 0.11097 0.83929 0.48174 0.0
H2458 H 0.14929 0.65916 0.49231 0.0
H2459 H 0.16511 0.57426 0.48293 0.0
C2460 C 0.62581 0.54969 0.28378 0.0
C2461 C 0.6119 0.53659 0.29611 0.0
C2462 C 0.62927 0.67811 0.30859 0.0
C2463 C 0.64347 0.6897 0.29637 0.0
N2464 N 0.6495 0.66073 0.2703 0.0
N2465 N 0.59661 0.60418 0.31857 0.0
C2466 C 0.63996 0.63326 0.2833 0.0
C2467 C 0.61235 0.60617 0.30796 0.0
N2468 N 0.62567 0.48181 0.27252 0.0
N2469 N 0.63222 0.73524 0.32093 0.0
H2470 H 0.58421 0.55193 0.31874 0.0
H2471 H 0.59474 0.65901 0.32659 0.0
H2472 H 0.64295 0.79513 0.32121 0.0
H2473 H 0.62465 0.72153 0.33101 0.0
H2474 H 0.63741 0.47995 0.26425 0.0
H2475 H 0.61467 0.4231 0.27192 0.0
H2476 H 0.64595 0.62746 0.26019 0.0
H2477 H 0.65898 0.7242 0.26918 0.0
C2478 C 0.13587 0.14308 0.30407 0.0
C2479 C 0.1366 0.23682 0.29677 0.0
C2480 C 0.10081 0.2003 0.28632 0.0
C2481 C 0.09802 0.12222 0.2967 0.0
N2482 N 0.11319 0.02134 0.3162 0.0
N2483 N 0.11845 0.35726 0.28125 0.0
C2484 C 0.11564 0.09427 0.30582 0.0
C2485 C 0.11866 0.26633 0.28796 0.0
N2486 N 0.1544 0.09784 0.30872 0.0
N2487 N 0.08703 0.20944 0.2746 0.0
H2488 H 0.13137 0.40678 0.28188 0.0
H2489 H 0.10476 0.38592 0.276 0.0
H2490 H 0.07528 0.15608 0.27225 0.0
H2491 H 0.08924 0.26158 0.2662 0.0
H2492 H 0.15468 0.02634 0.31318 0.0
H2493 H 0.16959 0.12462 0.30594 0.0
H2494 H 0.12484 0.00639 0.32426 0.0
H2495 H 0.09902 0.98007 0.31729 0.0
loop_
_geom_bond_atom_site_label_1
_geom_bond_atom_site_label_2
_geom_bond_distance
_geom_bond_site_symmetry_2
_ccdc_geom_bond_type
Co0 N4 2.148 . S
Co0 N10 2.128 . S
Co0 N20 2.194 . S
Co0 O25 2.351 . S
Co0 O26 2.155 . S
Co0 O27 2.096 . S
C1 N4 1.301 1_565 S
C1 N5 1.328 . S
C1 H6 0.930 . S
C2 C3 1.333 1_545 S
C2 N4 1.317 . S
C2 H7 0.930 . S
C3 C2 1.333 1_565 S
C3 N5 1.350 . S
C3 H29 0.931 . S
N4 Co0 2.148 . S
N4 C1 1.301 1_545 S
N4 C2 1.317 . S
N5 C1 1.328 . S
N5 C3 1.350 . S
H6 C1 0.930 . S
H7 C2 0.930 . S
C8 O9 1.224 . S
C8 O27 1.247 . S
O9 C8 1.224 . S
N10 Co0 2.128 . S
N10 C11 1.355 . S
N10 C13 1.311 . S
C11 N10 1.355 . S
C11 C12 1.363 . S
C11 H23 0.929 . S
C12 C11 1.363 . S
C12 N14 1.375 . S
C12 H30 0.931 . S
C13 N10 1.311 . S
C13 N14 1.347 . S
C13 H24 0.929 . S
N14 C12 1.375 . S
N14 C13 1.347 . S
C15 C18 1.365 . S
C15 N20 1.328 . S
C15 H21 0.929 . S
C16 C17 1.362 . S
C16 C19 1.378 . S
C16 H31 0.929 . S
C17 C16 1.362 . S
C17 C18 1.366 . S
C18 C15 1.365 . S
C18 C17 1.366 . S
C18 H32 0.930 . S
C19 C16 1.378 . S
C19 N20 1.315 . S
C19 H22 0.930 . S
N20 Co0 2.194 . S
N20 C15 1.328 . S
N20 C19 1.315 . S
H21 C15 0.929 . S
H22 C19 0.930 . S
H23 C11 0.929 . S
H24 C13 0.929 . S
O25 Co0 2.351 . S
O25 C28 1.244 . S
O26 Co0 2.155 . S
O26 C28 1.240 . S
O27 Co0 2.096 . S
O27 C8 1.247 . S
C28 O25 1.244 . S
C28 O26 1.240 . S
H29 C3 0.931 . S
H30 C12 0.931 . S
H31 C16 0.929 . S
H32 C18 0.930 . S
Co33 N37 2.148 . S
Co33 N43 2.128 1_545 S
Co33 N53 2.194 . S
Co33 O58 2.351 . S
Co33 O59 2.155 . S
Co33 O60 2.096 . S
C34 N37 1.301 . S
C34 N38 1.328 . S
C34 H39 0.930 . S
C35 C36 1.333 . S
C35 N37 1.317 . S
C35 H40 0.930 . S
C36 C35 1.333 . S
C36 N38 1.350 . S
C36 H62 0.931 . S
N37 Co33 2.148 . S
N37 C34 1.301 . S
N37 C35 1.317 . S
N38 C34 1.328 . S
N38 C36 1.350 . S
H39 C34 0.930 . S
H40 C35 0.930 . S
C41 O42 1.224 . S
C41 O60 1.247 1_565 S
O42 C41 1.224 . S
N43 Co33 2.128 1_565 S
N43 C44 1.355 . S
N43 C46 1.311 . S
C44 N43 1.355 . S
C44 C45 1.363 . S
C44 H56 0.929 . S
C45 C44 1.363 . S
C45 N47 1.375 . S
C45 H63 0.931 . S
C46 N43 1.311 . S
C46 N47 1.347 . S
C46 H57 0.929 . S
N47 C45 1.375 . S
N47 C46 1.347 . S
C48 C51 1.365 . S
C48 N53 1.328 . S
C48 H54 0.929 . S
C49 C50 1.362 . S
C49 C52 1.378 . S
C49 H64 0.929 . S
C50 C49 1.362 . S
C50 C51 1.366 . S
C51 C48 1.365 . S
C51 C50 1.366 . S
C51 H65 0.930 . S
C52 C49 1.378 . S
C52 N53 1.315 . S
C52 H55 0.930 . S
N53 Co33 2.194 . S
N53 C48 1.328 . S
N53 C52 1.315 . S
H54 C48 0.929 . S
H55 C52 0.930 . S
H56 C44 0.929 . S
H57 C46 0.929 . S
O58 Co33 2.351 . S
O58 C61 1.244 . S
O59 Co33 2.155 . S
O59 C61 1.240 . S
O60 Co33 2.096 . S
O60 C41 1.247 1_545 S
C61 O58 1.244 . S
C61 O59 1.240 . S
H62 C36 0.931 . S
H63 C45 0.931 . S
H64 C49 0.929 . S
H65 C51 0.930 . S
Co66 N70 2.148 . S
Co66 N76 2.128 1_545 S
Co66 N86 2.194 . S
Co66 O91 2.351 . S
Co66 O92 2.155 . S
Co66 O93 2.096 . S
C67 N70 1.301 . S
C67 N71 1.328 . S
C67 H72 0.930 . S
C68 C69 1.333 . S
C68 N70 1.317 . S
C68 H73 0.930 . S
C69 C68 1.333 . S
C69 N71 1.350 . S
C69 H95 0.931 . S
N70 Co66 2.148 . S
N70 C67 1.301 . S
N70 C68 1.317 . S
N71 C67 1.328 . S
N71 C69 1.350 . S
H72 C67 0.930 . S
H73 C68 0.930 . S
C74 O75 1.224 . S
C74 O93 1.247 1_565 S
O75 C74 1.224 . S
N76 Co66 2.128 1_565 S
N76 C77 1.355 . S
N76 C79 1.311 . S
C77 N76 1.355 . S
C77 C78 1.363 . S
C77 H89 0.929 . S
C78 C77 1.363 . S
C78 N80 1.375 . S
C78 H96 0.931 . S
C79 N76 1.311 . S
C79 N80 1.347 . S
C79 H90 0.929 . S
N80 C78 1.375 . S
N80 C79 1.347 . S
C81 C84 1.365 . S
C81 N86 1.328 . S
C81 H87 0.929 . S
C82 C83 1.362 . S
C82 C85 1.378 . S
C82 H97 0.929 . S
C83 C82 1.362 . S
C83 C84 1.366 . S
C84 C81 1.365 . S
C84 C83 1.366 . S
C84 H98 0.930 . S
C85 C82 1.378 . S
C85 N86 1.315 . S
C85 H88 0.930 . S
N86 Co66 2.194 . S
N86 C81 1.328 . S
N86 C85 1.315 . S
H87 C81 0.929 . S
H88 C85 0.930 . S
H89 C77 0.929 . S
H90 C79 0.929 . S
O91 Co66 2.351 . S
O91 C94 1.244 . S
O92 Co66 2.155 . S
O92 C94 1.240 . S
O93 Co66 2.096 . S
O93 C74 1.247 1_545 S
C94 O91 1.244 . S
C94 O92 1.240 . S
H95 C69 0.931 . S
H96 C78 0.931 . S
H97 C82 0.929 . S
H98 C84 0.930 . S
Co99 N103 2.148 . S
Co99 N109 2.128 . S
Co99 N119 2.194 . S
Co99 O124 2.351 . S
Co99 O125 2.155 . S
Co99 O126 2.096 . S
C100 N103 1.301 1_565 S
C100 N104 1.328 . S
C100 H105 0.930 . S
C101 C102 1.333 1_545 S
C101 N103 1.317 . S
C101 H106 0.930 . S
C102 C101 1.333 1_565 S
C102 N104 1.350 . S
C102 H128 0.931 . S
N103 Co99 2.148 . S
N103 C100 1.301 1_545 S
N103 C101 1.317 . S
N104 C100 1.328 . S
N104 C102 1.350 . S
H105 C100 0.930 . S
H106 C101 0.930 . S
C107 O108 1.224 . S
C107 O126 1.247 . S
O108 C107 1.224 . S
N109 Co99 2.128 . S
N109 C110 1.355 . S
N109 C112 1.311 . S
C110 N109 1.355 . S
C110 C111 1.363 . S
C110 H122 0.929 . S
C111 C110 1.363 . S
C111 N113 1.375 . S
C111 H129 0.931 . S
C112 N109 1.311 . S
C112 N113 1.347 . S
C112 H123 0.929 . S
N113 C111 1.375 . S
N113 C112 1.347 . S
C114 C117 1.365 . S
C114 N119 1.328 . S
C114 H120 0.929 . S
C115 C116 1.362 . S
C115 C118 1.378 . S
C115 H130 0.929 . S
C116 C115 1.362 . S
C116 C117 1.366 . S
C117 C114 1.365 . S
C117 C116 1.366 . S
C117 H131 0.930 . S
C118 C115 1.378 . S
C118 N119 1.315 . S
C118 H121 0.930 . S
N119 Co99 2.194 . S
N119 C114 1.328 . S
N119 C118 1.315 . S
H120 C114 0.929 . S
H121 C118 0.930 . S
H122 C110 0.929 . S
H123 C112 0.929 . S
O124 Co99 2.351 . S
O124 C127 1.244 . S
O125 Co99 2.155 . S
O125 C127 1.240 . S
O126 Co99 2.096 . S
O126 C107 1.247 . S
C127 O124 1.244 . S
C127 O125 1.240 . S
H128 C102 0.931 . S
H129 C111 0.931 . S
H130 C115 0.929 . S
H131 C117 0.930 . S
Co132 N136 2.148 . S
Co132 N142 2.128 . S
Co132 N152 2.194 . S
Co132 O157 2.351 . S
Co132 O158 2.155 . S
Co132 O159 2.096 . S
C133 N136 1.301 1_545 S
C133 N137 1.328 . S
C133 H138 0.930 . S
C134 C135 1.333 1_565 S
C134 N136 1.317 . S
C134 H139 0.930 . S
C135 C134 1.333 1_545 S
C135 N137 1.350 . S
C135 H161 0.931 . S
N136 Co132 2.148 . S
N136 C133 1.301 1_565 S
N136 C134 1.317 . S
N137 C133 1.328 . S
N137 C135 1.350 . S
H138 C133 0.930 . S
H139 C134 0.930 . S
C140 O141 1.224 . S
C140 O159 1.247 . S
O141 C140 1.224 . S
N142 Co132 2.128 . S
N142 C143 1.355 . S
N142 C145 1.311 . S
C143 N142 1.355 . S
C143 C144 1.363 . S
C143 H155 0.929 . S
C144 C143 1.363 . S
C144 N146 1.375 . S
C144 H162 0.931 . S
C145 N142 1.311 . S
C145 N146 1.347 . S
C145 H156 0.929 . S
N146 C144 1.375 . S
N146 C145 1.347 . S
C147 C150 1.365 . S
C147 N152 1.328 . S
C147 H153 0.929 . S
C148 C149 1.362 . S
C148 C151 1.378 . S
C148 H163 0.929 . S
C149 C148 1.362 . S
C149 C150 1.366 . S
C150 C147 1.365 . S
C150 C149 1.366 . S
C150 H164 0.930 . S
C151 C148 1.378 . S
C151 N152 1.315 . S
C151 H154 0.930 . S
N152 Co132 2.194 . S
N152 C147 1.328 . S
N152 C151 1.315 . S
H153 C147 0.929 . S
H154 C151 0.930 . S
H155 C143 0.929 . S
H156 C145 0.929 . S
O157 Co132 2.351 . S
O157 C160 1.244 . S
O158 Co132 2.155 . S
O158 C160 1.240 . S
O159 Co132 2.096 . S
O159 C140 1.247 . S
C160 O157 1.244 . S
C160 O158 1.240 . S
H161 C135 0.931 . S
H162 C144 0.931 . S
H163 C148 0.929 . S
H164 C150 0.930 . S
Co165 N169 2.148 . S
Co165 N175 2.128 1_565 S
Co165 N185 2.194 . S
Co165 O190 2.351 . S
Co165 O191 2.155 . S
Co165 O192 2.096 . S
C166 N169 1.301 . S
C166 N170 1.328 . S
C166 H171 0.930 . S
C167 C168 1.333 . S
C167 N169 1.317 . S
C167 H172 0.930 . S
C168 C167 1.333 . S
C168 N170 1.350 . S
C168 H194 0.931 . S
N169 Co165 2.148 . S
N169 C166 1.301 . S
N169 C167 1.317 . S
N170 C166 1.328 . S
N170 C168 1.350 . S
H171 C166 0.930 . S
H172 C167 0.930 . S
C173 O174 1.224 . S
C173 O192 1.247 1_545 S
O174 C173 1.224 . S
N175 Co165 2.128 1_545 S
N175 C176 1.355 . S
N175 C178 1.311 . S
C176 N175 1.355 . S
C176 C177 1.363 . S
C176 H188 0.929 . S
C177 C176 1.363 . S
C177 N179 1.375 . S
C177 H195 0.931 . S
C178 N175 1.311 . S
C178 N179 1.347 . S
C178 H189 0.929 . S
N179 C177 1.375 . S
N179 C178 1.347 . S
C180 C183 1.365 . S
C180 N185 1.328 . S
C180 H186 0.929 . S
C181 C182 1.362 . S
C181 C184 1.378 . S
C181 H196 0.929 . S
C182 C181 1.362 . S
C182 C183 1.366 . S
C183 C180 1.365 . S
C183 C182 1.366 . S
C183 H197 0.930 . S
C184 C181 1.378 . S
C184 N185 1.315 . S
C184 H187 0.930 . S
N185 Co165 2.194 . S
N185 C180 1.328 . S
N185 C184 1.315 . S
H186 C180 0.929 . S
H187 C184 0.930 . S
H188 C176 0.929 . S
H189 C178 0.929 . S
O190 Co165 2.351 . S
O190 C193 1.244 . S
O191 Co165 2.155 . S
O191 C193 1.240 . S
O192 Co165 2.096 . S
O192 C173 1.247 1_565 S
C193 O190 1.244 . S
C193 O191 1.240 . S
H194 C168 0.931 . S
H195 C177 0.931 . S
H196 C181 0.929 . S
H197 C183 0.930 . S
Co198 N202 2.148 . S
Co198 N208 2.128 1_565 S
Co198 N218 2.194 . S
Co198 O223 2.351 . S
Co198 O224 2.155 . S
Co198 O225 2.096 . S
C199 N202 1.301 . S
C199 N203 1.328 . S
C199 H204 0.930 . S
C200 C201 1.333 . S
C200 N202 1.317 . S
C200 H205 0.930 . S
C201 C200 1.333 . S
C201 N203 1.350 . S
C201 H227 0.931 . S
N202 Co198 2.148 . S
N202 C199 1.301 . S
N202 C200 1.317 . S
N203 C199 1.328 . S
N203 C201 1.350 . S
H204 C199 0.930 . S
H205 C200 0.930 . S
C206 O207 1.224 . S
C206 O225 1.247 1_545 S
O207 C206 1.224 . S
N208 Co198 2.128 1_545 S
N208 C209 1.355 . S
N208 C211 1.311 . S
C209 N208 1.355 . S
C209 C210 1.363 . S
C209 H221 0.929 . S
C210 C209 1.363 . S
C210 N212 1.375 . S
C210 H228 0.931 . S
C211 N208 1.311 . S
C211 N212 1.347 . S
C211 H222 0.929 . S
N212 C210 1.375 . S
N212 C211 1.347 . S
C213 C216 1.365 . S
C213 N218 1.328 . S
C213 H219 0.929 . S
C214 C215 1.362 . S
C214 C217 1.378 . S
C214 H229 0.929 . S
C215 C214 1.362 . S
C215 C216 1.366 . S
C216 C213 1.365 . S
C216 C215 1.366 . S
C216 H230 0.930 . S
C217 C214 1.378 . S
C217 N218 1.315 . S
C217 H220 0.930 . S
N218 Co198 2.194 . S
N218 C213 1.328 . S
N218 C217 1.315 . S
H219 C213 0.929 . S
H220 C217 0.930 . S
H221 C209 0.929 . S
H222 C211 0.929 . S
O223 Co198 2.351 . S
O223 C226 1.244 . S
O224 Co198 2.155 . S
O224 C226 1.240 . S
O225 Co198 2.096 . S
O225 C206 1.247 1_565 S
C226 O223 1.244 . S
C226 O224 1.240 . S
H227 C201 0.931 . S
H228 C210 0.931 . S
H229 C214 0.929 . S
H230 C216 0.930 . S
Co231 N235 2.148 . S
Co231 N241 2.128 . S
Co231 N251 2.194 . S
Co231 O256 2.351 . S
Co231 O257 2.155 . S
Co231 O258 2.096 . S
C232 N235 1.301 1_545 S
C232 N236 1.328 . S
C232 H237 0.930 . S
C233 C234 1.333 1_565 S
C233 N235 1.317 . S
C233 H238 0.930 . S
C234 C233 1.333 1_545 S
C234 N236 1.350 . S
C234 H260 0.931 . S
N235 Co231 2.148 . S
N235 C232 1.301 1_565 S
N235 C233 1.317 . S
N236 C232 1.328 . S
N236 C234 1.350 . S
H237 C232 0.930 . S
H238 C233 0.930 . S
C239 O240 1.224 . S
C239 O258 1.247 . S
O240 C239 1.224 . S
N241 Co231 2.128 . S
N241 C242 1.355 . S
N241 C244 1.311 . S
C242 N241 1.355 . S
C242 C243 1.363 . S
C242 H254 0.929 . S
C243 C242 1.363 . S
C243 N245 1.375 . S
C243 H261 0.931 . S
C244 N241 1.311 . S
C244 N245 1.347 . S
C244 H255 0.929 . S
N245 C243 1.375 . S
N245 C244 1.347 . S
C246 C249 1.365 . S
C246 N251 1.328 . S
C246 H252 0.929 . S
C247 C248 1.362 . S
C247 C250 1.378 . S
C247 H262 0.929 . S
C248 C247 1.362 . S
C248 C249 1.366 . S
C249 C246 1.365 . S
C249 C248 1.366 . S
C249 H263 0.930 . S
C250 C247 1.378 . S
C250 N251 1.315 . S
C250 H253 0.930 . S
N251 Co231 2.194 . S
N251 C246 1.328 . S
N251 C250 1.315 . S
H252 C246 0.929 . S
H253 C250 0.930 . S
H254 C242 0.929 . S
H255 C244 0.929 . S
O256 Co231 2.351 . S
O256 C259 1.244 . S
O257 Co231 2.155 . S
O257 C259 1.240 . S
O258 Co231 2.096 . S
O258 C239 1.247 . S
C259 O256 1.244 . S
C259 O257 1.240 . S
H260 C234 0.931 . S
H261 C243 0.931 . S
H262 C247 0.929 . S
H263 C249 0.930 . S
Co264 N268 2.148 . S
Co264 N274 2.128 . S
Co264 N284 2.194 . S
Co264 O289 2.351 . S
Co264 O290 2.155 . S
Co264 O291 2.096 . S
C265 N268 1.301 . S
C265 N269 1.328 . S
C265 H270 0.930 . S
C266 C267 1.333 . S
C266 N268 1.317 . S
C266 H271 0.930 . S
C267 C266 1.333 . S
C267 N269 1.350 . S
C267 H293 0.931 . S
N268 Co264 2.148 . S
N268 C265 1.301 . S
N268 C266 1.317 . S
N269 C265 1.328 . S
N269 C267 1.350 . S
H270 C265 0.930 . S
H271 C266 0.930 . S
C272 O273 1.224 . S
C272 O291 1.247 . S
O273 C272 1.224 . S
N274 Co264 2.128 . S
N274 C275 1.355 . S
N274 C277 1.311 . S
C275 N274 1.355 . S
C275 C276 1.363 . S
C275 H287 0.929 . S
C276 C275 1.363 . S
C276 N278 1.375 . S
C276 H294 0.931 . S
C277 N274 1.311 . S
C277 N278 1.347 . S
C277 H288 0.929 . S
N278 C276 1.375 . S
N278 C277 1.347 . S
C279 C282 1.365 . S
C279 N284 1.328 . S
C279 H285 0.929 . S
C280 C281 1.362 . S
C280 C283 1.378 . S
C280 H295 0.929 . S
C281 C280 1.362 . S
C281 C282 1.366 . S
C282 C279 1.365 . S
C282 C281 1.366 . S
C282 H296 0.930 . S
C283 C280 1.378 . S
C283 N284 1.315 . S
C283 H286 0.930 . S
N284 Co264 2.194 . S
N284 C279 1.328 . S
N284 C283 1.315 . S
H285 C279 0.929 . S
H286 C283 0.930 . S
H287 C275 0.929 . S
H288 C277 0.929 . S
O289 Co264 2.351 . S
O289 C292 1.244 . S
O290 Co264 2.155 . S
O290 C292 1.240 . S
O291 Co264 2.096 . S
O291 C272 1.247 . S
C292 O289 1.244 . S
C292 O290 1.240 . S
H293 C267 0.931 . S
H294 C276 0.931 . S
H295 C280 0.929 . S
H296 C282 0.930 . S
Co297 N301 2.148 . S
Co297 N307 2.128 . S
Co297 N317 2.194 . S
Co297 O322 2.351 . S
Co297 O323 2.155 . S
Co297 O324 2.096 . S
C298 N301 1.301 . S
C298 N302 1.328 . S
C298 H303 0.930 . S
C299 C300 1.333 . S
C299 N301 1.317 . S
C299 H304 0.930 . S
C300 C299 1.333 . S
C300 N302 1.350 . S
C300 H326 0.931 . S
N301 Co297 2.148 . S
N301 C298 1.301 . S
N301 C299 1.317 . S
N302 C298 1.328 . S
N302 C300 1.350 . S
H303 C298 0.930 . S
H304 C299 0.930 . S
C305 O306 1.224 . S
C305 O324 1.247 . S
O306 C305 1.224 . S
N307 Co297 2.128 . S
N307 C308 1.355 . S
N307 C310 1.311 . S
C308 N307 1.355 . S
C308 C309 1.363 . S
C308 H320 0.929 . S
C309 C308 1.363 . S
C309 N311 1.375 . S
C309 H327 0.931 . S
C310 N307 1.311 . S
C310 N311 1.347 . S
C310 H321 0.929 . S
N311 C309 1.375 . S
N311 C310 1.347 . S
C312 C315 1.365 . S
C312 N317 1.328 . S
C312 H318 0.929 . S
C313 C314 1.362 . S
C313 C316 1.378 . S
C313 H328 0.929 . S
C314 C313 1.362 . S
C314 C315 1.366 . S
C315 C312 1.365 . S
C315 C314 1.366 . S
C315 H329 0.930 . S
C316 C313 1.378 . S
C316 N317 1.315 . S
C316 H319 0.930 . S
N317 Co297 2.194 . S
N317 C312 1.328 . S
N317 C316 1.315 . S
H318 C312 0.929 . S
H319 C316 0.930 . S
H320 C308 0.929 . S
H321 C310 0.929 . S
O322 Co297 2.351 . S
O322 C325 1.244 . S
O323 Co297 2.155 . S
O323 C325 1.240 . S
O324 Co297 2.096 . S
O324 C305 1.247 . S
C325 O322 1.244 . S
C325 O323 1.240 . S
H326 C300 0.931 . S
H327 C309 0.931 . S
H328 C313 0.929 . S
H329 C315 0.930 . S
Co330 N334 2.148 . S
Co330 N340 2.128 . S
Co330 N350 2.194 . S
Co330 O355 2.351 . S
Co330 O356 2.155 . S
Co330 O357 2.096 . S
C331 N334 1.301 . S
C331 N335 1.328 . S
C331 H336 0.930 . S
C332 C333 1.333 . S
C332 N334 1.317 . S
C332 H337 0.930 . S
C333 C332 1.333 . S
C333 N335 1.350 . S
C333 H359 0.931 . S
N334 Co330 2.148 . S
N334 C331 1.301 . S
N334 C332 1.317 . S
N335 C331 1.328 . S
N335 C333 1.350 . S
H336 C331 0.930 . S
H337 C332 0.930 . S
C338 O339 1.224 . S
C338 O357 1.247 . S
O339 C338 1.224 . S
N340 Co330 2.128 . S
N340 C341 1.355 . S
N340 C343 1.311 . S
C341 N340 1.355 . S
C341 C342 1.363 . S
C341 H353 0.929 . S
C342 C341 1.363 . S
C342 N344 1.375 . S
C342 H360 0.931 . S
C343 N340 1.311 . S
C343 N344 1.347 . S
C343 H354 0.929 . S
N344 C342 1.375 . S
N344 C343 1.347 . S
C345 C348 1.365 . S
C345 N350 1.328 . S
C345 H351 0.929 . S
C346 C347 1.362 . S
C346 C349 1.378 . S
C346 H361 0.929 . S
C347 C346 1.362 . S
C347 C348 1.366 . S
C348 C345 1.365 . S
C348 C347 1.366 . S
C348 H362 0.930 . S
C349 C346 1.378 . S
C349 N350 1.315 . S
C349 H352 0.930 . S
N350 Co330 2.194 . S
N350 C345 1.328 . S
N350 C349 1.315 . S
H351 C345 0.929 . S
H352 C349 0.930 . S
H353 C341 0.929 . S
H354 C343 0.929 . S
O355 Co330 2.351 . S
O355 C358 1.244 . S
O356 Co330 2.155 . S
O356 C358 1.240 . S
O357 Co330 2.096 . S
O357 C338 1.247 . S
C358 O355 1.244 . S
C358 O356 1.240 . S
H359 C333 0.931 . S
H360 C342 0.931 . S
H361 C346 0.929 . S
H362 C348 0.930 . S
Co363 N367 2.148 . S
Co363 N373 2.128 . S
Co363 N383 2.194 . S
Co363 O388 2.351 . S
Co363 O389 2.155 . S
Co363 O390 2.096 . S
C364 N367 1.301 . S
C364 N368 1.328 . S
C364 H369 0.930 . S
C365 C366 1.333 . S
C365 N367 1.317 . S
C365 H370 0.930 . S
C366 C365 1.333 . S
C366 N368 1.350 . S
C366 H392 0.931 . S
N367 Co363 2.148 . S
N367 C364 1.301 . S
N367 C365 1.317 . S
N368 C364 1.328 . S
N368 C366 1.350 . S
H369 C364 0.930 . S
H370 C365 0.930 . S
C371 O372 1.224 . S
C371 O390 1.247 . S
O372 C371 1.224 . S
N373 Co363 2.128 . S
N373 C374 1.355 . S
N373 C376 1.311 . S
C374 N373 1.355 . S
C374 C375 1.363 . S
C374 H386 0.929 . S
C375 C374 1.363 . S
C375 N377 1.375 . S
C375 H393 0.931 . S
C376 N373 1.311 . S
C376 N377 1.347 . S
C376 H387 0.929 . S
N377 C375 1.375 . S
N377 C376 1.347 . S
C378 C381 1.365 . S
C378 N383 1.328 . S
C378 H384 0.929 . S
C379 C380 1.362 . S
C379 C382 1.378 . S
C379 H394 0.929 . S
C380 C379 1.362 . S
C380 C381 1.366 . S
C381 C378 1.365 . S
C381 C380 1.366 . S
C381 H395 0.930 . S
C382 C379 1.378 . S
C382 N383 1.315 . S
C382 H385 0.930 . S
N383 Co363 2.194 . S
N383 C378 1.328 . S
N383 C382 1.315 . S
H384 C378 0.929 . S
H385 C382 0.930 . S
H386 C374 0.929 . S
H387 C376 0.929 . S
O388 Co363 2.351 . S
O388 C391 1.244 . S
O389 Co363 2.155 . S
O389 C391 1.240 . S
O390 Co363 2.096 . S
O390 C371 1.247 . S
C391 O388 1.244 . S
C391 O389 1.240 . S
H392 C366 0.931 . S
H393 C375 0.931 . S
H394 C379 0.929 . S
H395 C381 0.930 . S
Co396 N400 2.148 . S
Co396 N406 2.128 . S
Co396 N416 2.194 . S
Co396 O421 2.351 . S
Co396 O422 2.155 . S
Co396 O423 2.096 . S
C397 N400 1.301 . S
C397 N401 1.328 . S
C397 H402 0.930 . S
C398 C399 1.333 . S
C398 N400 1.317 . S
C398 H403 0.930 . S
C399 C398 1.333 . S
C399 N401 1.350 . S
C399 H425 0.931 . S
N400 Co396 2.148 . S
N400 C397 1.301 . S
N400 C398 1.317 . S
N401 C397 1.328 . S
N401 C399 1.350 . S
H402 C397 0.930 . S
H403 C398 0.930 . S
C404 O405 1.224 . S
C404 O423 1.247 . S
O405 C404 1.224 . S
N406 Co396 2.128 . S
N406 C407 1.355 . S
N406 C409 1.311 . S
C407 N406 1.355 . S
C407 C408 1.363 . S
C407 H419 0.929 . S
C408 C407 1.363 . S
C408 N410 1.375 . S
C408 H426 0.931 . S
C409 N406 1.311 . S
C409 N410 1.347 . S
C409 H420 0.929 . S
N410 C408 1.375 . S
N410 C409 1.347 . S
C411 C414 1.365 . S
C411 N416 1.328 . S
C411 H417 0.929 . S
C412 C413 1.362 . S
C412 C415 1.378 . S
C412 H427 0.929 . S
C413 C412 1.362 . S
C413 C414 1.366 . S
C414 C411 1.365 . S
C414 C413 1.366 . S
C414 H428 0.930 . S
C415 C412 1.378 . S
C415 N416 1.315 . S
C415 H418 0.930 . S
N416 Co396 2.194 . S
N416 C411 1.328 . S
N416 C415 1.315 . S
H417 C411 0.929 . S
H418 C415 0.930 . S
H419 C407 0.929 . S
H420 C409 0.929 . S
O421 Co396 2.351 . S
O421 C424 1.244 . S
O422 Co396 2.155 . S
O422 C424 1.240 . S
O423 Co396 2.096 . S
O423 C404 1.247 . S
C424 O421 1.244 . S
C424 O422 1.240 . S
H425 C399 0.931 . S
H426 C408 0.931 . S
H427 C412 0.929 . S
H428 C414 0.930 . S
Co429 N433 2.148 . S
Co429 N439 2.128 . S
Co429 N449 2.194 . S
Co429 O454 2.351 . S
Co429 O455 2.155 . S
Co429 O456 2.096 . S
C430 N433 1.301 . S
C430 N434 1.328 . S
C430 H435 0.930 . S
C431 C432 1.333 . S
C431 N433 1.317 . S
C431 H436 0.930 . S
C432 C431 1.333 . S
C432 N434 1.350 . S
C432 H458 0.931 . S
N433 Co429 2.148 . S
N433 C430 1.301 . S
N433 C431 1.317 . S
N434 C430 1.328 . S
N434 C432 1.350 . S
H435 C430 0.930 . S
H436 C431 0.930 . S
C437 O438 1.224 . S
C437 O456 1.247 . S
O438 C437 1.224 . S
N439 Co429 2.128 . S
N439 C440 1.355 . S
N439 C442 1.311 . S
C440 N439 1.355 . S
C440 C441 1.363 . S
C440 H452 0.929 . S
C441 C440 1.363 . S
C441 N443 1.375 . S
C441 H459 0.931 . S
C442 N439 1.311 . S
C442 N443 1.347 . S
C442 H453 0.929 . S
N443 C441 1.375 . S
N443 C442 1.347 . S
C444 C447 1.365 . S
C444 N449 1.328 . S
C444 H450 0.929 . S
C445 C446 1.362 . S
C445 C448 1.378 . S
C445 H460 0.929 . S
C446 C445 1.362 . S
C446 C447 1.366 . S
C447 C444 1.365 . S
C447 C446 1.366 . S
C447 H461 0.930 . S
C448 C445 1.378 . S
C448 N449 1.315 . S
C448 H451 0.930 . S
N449 Co429 2.194 . S
N449 C444 1.328 . S
N449 C448 1.315 . S
H450 C444 0.929 . S
H451 C448 0.930 . S
H452 C440 0.929 . S
H453 C442 0.929 . S
O454 Co429 2.351 . S
O454 C457 1.244 . S
O455 Co429 2.155 . S
O455 C457 1.240 . S
O456 Co429 2.096 . S
O456 C437 1.247 . S
C457 O454 1.244 . S
C457 O455 1.240 . S
H458 C432 0.931 . S
H459 C441 0.931 . S
H460 C445 0.929 . S
H461 C447 0.930 . S
Co462 N466 2.148 . S
Co462 N472 2.128 . S
Co462 N482 2.194 . S
Co462 O487 2.351 . S
Co462 O488 2.155 . S
Co462 O489 2.096 . S
C463 N466 1.301 . S
C463 N467 1.328 . S
C463 H468 0.930 . S
C464 C465 1.333 . S
C464 N466 1.317 . S
C464 H469 0.930 . S
C465 C464 1.333 . S
C465 N467 1.350 . S
C465 H491 0.931 . S
N466 Co462 2.148 . S
N466 C463 1.301 . S
N466 C464 1.317 . S
N467 C463 1.328 . S
N467 C465 1.350 . S
H468 C463 0.930 . S
H469 C464 0.930 . S
C470 O471 1.224 . S
C470 O489 1.247 . S
O471 C470 1.224 . S
N472 Co462 2.128 . S
N472 C473 1.355 . S
N472 C475 1.311 . S
C473 N472 1.355 . S
C473 C474 1.363 . S
C473 H485 0.929 . S
C474 C473 1.363 . S
C474 N476 1.375 . S
C474 H492 0.931 . S
C475 N472 1.311 . S
C475 N476 1.347 . S
C475 H486 0.929 . S
N476 C474 1.375 . S
N476 C475 1.347 . S
C477 C480 1.365 . S
C477 N482 1.328 . S
C477 H483 0.929 . S
C478 C479 1.362 . S
C478 C481 1.378 . S
C478 H493 0.929 . S
C479 C478 1.362 . S
C479 C480 1.366 . S
C480 C477 1.365 . S
C480 C479 1.366 . S
C480 H494 0.930 . S
C481 C478 1.378 . S
C481 N482 1.315 . S
C481 H484 0.930 . S
N482 Co462 2.194 . S
N482 C477 1.328 . S
N482 C481 1.315 . S
H483 C477 0.929 . S
H484 C481 0.930 . S
H485 C473 0.929 . S
H486 C475 0.929 . S
O487 Co462 2.351 . S
O487 C490 1.244 . S
O488 Co462 2.155 . S
O488 C490 1.240 . S
O489 Co462 2.096 . S
O489 C470 1.247 . S
C490 O487 1.244 . S
C490 O488 1.240 . S
H491 C465 0.931 . S
H492 C474 0.931 . S
H493 C478 0.929 . S
H494 C480 0.930 . S
Co495 N499 2.148 . S
Co495 N505 2.128 . S
Co495 N515 2.194 . S
Co495 O520 2.351 . S
Co495 O521 2.155 . S
Co495 O522 2.096 . S
C496 N499 1.301 . S
C496 N500 1.328 . S
C496 H501 0.930 . S
C497 C498 1.333 . S
C497 N499 1.317 . S
C497 H502 0.930 . S
C498 C497 1.333 . S
C498 N500 1.350 . S
C498 H524 0.931 . S
N499 Co495 2.148 . S
N499 C496 1.301 . S
N499 C497 1.317 . S
N500 C496 1.328 . S
N500 C498 1.350 . S
H501 C496 0.930 . S
H502 C497 0.930 . S
C503 O504 1.224 . S
C503 O522 1.247 . S
O504 C503 1.224 . S
N505 Co495 2.128 . S
N505 C506 1.355 . S
N505 C508 1.311 . S
C506 N505 1.355 . S
C506 C507 1.363 . S
C506 H518 0.929 . S
C507 C506 1.363 . S
C507 N509 1.375 . S
C507 H525 0.931 . S
C508 N505 1.311 . S
C508 N509 1.347 . S
C508 H519 0.929 . S
N509 C507 1.375 . S
N509 C508 1.347 . S
C510 C513 1.365 . S
C510 N515 1.328 . S
C510 H516 0.929 . S
C511 C512 1.362 . S
C511 C514 1.378 . S
C511 H526 0.929 . S
C512 C511 1.362 . S
C512 C513 1.366 . S
C513 C510 1.365 . S
C513 C512 1.366 . S
C513 H527 0.930 . S
C514 C511 1.378 . S
C514 N515 1.315 . S
C514 H517 0.930 . S
N515 Co495 2.194 . S
N515 C510 1.328 . S
N515 C514 1.315 . S
H516 C510 0.929 . S
H517 C514 0.930 . S
H518 C506 0.929 . S
H519 C508 0.929 . S
O520 Co495 2.351 . S
O520 C523 1.244 . S
O521 Co495 2.155 . S
O521 C523 1.240 . S
O522 Co495 2.096 . S
O522 C503 1.247 . S
C523 O520 1.244 . S
C523 O521 1.240 . S
H524 C498 0.931 . S
H525 C507 0.931 . S
H526 C511 0.929 . S
H527 C513 0.930 . S
Co528 N532 2.148 . S
Co528 N538 2.128 . S
Co528 N548 2.194 . S
Co528 O553 2.351 . S
Co528 O554 2.155 . S
Co528 O555 2.096 . S
C529 N532 1.301 1_565 S
C529 N533 1.328 . S
C529 H534 0.930 . S
C530 C531 1.333 1_545 S
C530 N532 1.317 . S
C530 H535 0.930 . S
C531 C530 1.333 1_565 S
C531 N533 1.350 . S
C531 H557 0.931 . S
N532 Co528 2.148 . S
N532 C529 1.301 1_545 S
N532 C530 1.317 . S
N533 C529 1.328 . S
N533 C531 1.350 . S
H534 C529 0.930 . S
H535 C530 0.930 . S
C536 O537 1.224 . S
C536 O555 1.247 . S
O537 C536 1.224 . S
N538 Co528 2.128 . S
N538 C539 1.355 . S
N538 C541 1.311 . S
C539 N538 1.355 . S
C539 C540 1.363 . S
C539 H551 0.929 . S
C540 C539 1.363 . S
C540 N542 1.375 . S
C540 H558 0.956 . S
C541 N538 1.311 . S
C541 N542 1.347 . S
C541 H552 0.929 . S
N542 C540 1.375 . S
N542 C541 1.347 . S
C543 C546 1.365 . S
C543 N548 1.328 . S
C543 H549 0.929 . S
C544 C545 1.362 . S
C544 C547 1.378 . S
C544 H559 0.929 . S
C545 C544 1.362 . S
C545 C546 1.366 . S
C546 C543 1.365 . S
C546 C545 1.366 . S
C546 H560 0.930 1_655 S
C547 C544 1.378 . S
C547 N548 1.315 . S
C547 H550 0.930 . S
N548 Co528 2.194 . S
N548 C543 1.328 . S
N548 C547 1.315 . S
H549 C543 0.929 . S
H550 C547 0.930 . S
H551 C539 0.929 . S
H552 C541 0.929 . S
O553 Co528 2.351 . S
O553 C556 1.244 . S
O554 Co528 2.155 . S
O554 C556 1.240 . S
O555 Co528 2.096 . S
O555 C536 1.247 . S
C556 O553 1.244 . S
C556 O554 1.240 . S
H557 C531 0.931 . S
H558 C540 0.956 . S
H559 C544 0.929 . S
H560 C546 0.930 1_455 S
Co561 N565 2.148 . S
Co561 N571 2.128 1_545 S
Co561 N581 2.194 . S
Co561 O586 2.351 . S
Co561 O587 2.155 . S
Co561 O588 2.096 . S
C562 N565 1.301 . S
C562 N566 1.328 . S
C562 H567 0.930 . S
C563 C564 1.333 . S
C563 N565 1.317 . S
C563 H568 0.930 . S
C564 C563 1.333 . S
C564 N566 1.350 . S
C564 H590 0.931 . S
N565 Co561 2.148 . S
N565 C562 1.301 . S
N565 C563 1.317 . S
N566 C562 1.328 . S
N566 C564 1.350 . S
H567 C562 0.930 . S
H568 C563 0.930 . S
C569 O570 1.224 . S
C569 O588 1.247 1_565 S
O570 C569 1.224 . S
N571 Co561 2.128 1_565 S
N571 C572 1.355 . S
N571 C574 1.311 . S
C572 N571 1.355 . S
C572 C573 1.363 . S
C572 H584 0.929 . S
C573 C572 1.363 . S
C573 N575 1.375 . S
C573 H591 0.931 . S
C574 N571 1.311 . S
C574 N575 1.347 . S
C574 H585 0.929 . S
N575 C573 1.375 . S
N575 C574 1.347 . S
C576 C579 1.365 . S
C576 N581 1.328 . S
C576 H582 0.929 . S
C577 C578 1.362 . S
C577 C580 1.378 . S
C577 H592 0.929 . S
C578 C577 1.362 . S
C578 C579 1.366 . S
C579 C576 1.365 . S
C579 C578 1.366 . S
C579 H593 0.930 . S
C580 C577 1.378 . S
C580 N581 1.315 . S
C580 H583 0.930 . S
N581 Co561 2.194 . S
N581 C576 1.328 . S
N581 C580 1.315 . S
H582 C576 0.929 . S
H583 C580 0.930 . S
H584 C572 0.929 . S
H585 C574 0.929 . S
O586 Co561 2.351 . S
O586 C589 1.244 . S
O587 Co561 2.155 . S
O587 C589 1.240 . S
O588 Co561 2.096 . S
O588 C569 1.247 1_545 S
C589 O586 1.244 . S
C589 O587 1.240 . S
H590 C564 0.931 . S
H591 C573 0.931 . S
H592 C577 0.929 . S
H593 C579 0.930 . S
Co594 N598 2.148 . S
Co594 N604 2.128 1_545 S
Co594 N614 2.194 . S
Co594 O619 2.351 . S
Co594 O620 2.155 . S
Co594 O621 2.096 . S
C595 N598 1.301 . S
C595 N599 1.328 . S
C595 H600 0.930 . S
C596 C597 1.333 . S
C596 N598 1.317 . S
C596 H601 0.930 . S
C597 C596 1.333 . S
C597 N599 1.350 . S
C597 H623 0.931 . S
N598 Co594 2.148 . S
N598 C595 1.301 . S
N598 C596 1.317 . S
N599 C595 1.328 . S
N599 C597 1.350 . S
H600 C595 0.930 . S
H601 C596 0.930 . S
C602 O603 1.224 . S
C602 O621 1.247 1_565 S
O603 C602 1.224 . S
N604 Co594 2.128 1_565 S
N604 C605 1.355 . S
N604 C607 1.311 . S
C605 N604 1.355 . S
C605 C606 1.363 . S
C605 H617 0.929 . S
C606 C605 1.363 . S
C606 N608 1.375 . S
C606 H624 0.956 . S
C607 N604 1.311 . S
C607 N608 1.347 . S
C607 H618 0.929 . S
N608 C606 1.375 . S
N608 C607 1.347 . S
C609 C612 1.365 . S
C609 N614 1.328 . S
C609 H615 0.929 . S
C610 C611 1.362 . S
C610 C613 1.378 . S
C610 H625 0.929 . S
C611 C610 1.362 . S
C611 C612 1.366 . S
C612 C609 1.365 . S
C612 C611 1.366 . S
C612 H626 0.930 1_655 S
C613 C610 1.378 . S
C613 N614 1.315 . S
C613 H616 0.930 . S
N614 Co594 2.194 . S
N614 C609 1.328 . S
N614 C613 1.315 . S
H615 C609 0.929 . S
H616 C613 0.930 . S
H617 C605 0.929 . S
H618 C607 0.929 . S
O619 Co594 2.351 . S
O619 C622 1.244 . S
O620 Co594 2.155 . S
O620 C622 1.240 . S
O621 Co594 2.096 . S
O621 C602 1.247 1_545 S
C622 O619 1.244 . S
C622 O620 1.240 . S
H623 C597 0.931 . S
H624 C606 0.956 . S
H625 C610 0.929 . S
H626 C612 0.930 1_455 S
Co627 N631 2.148 . S
Co627 N637 2.128 . S
Co627 N647 2.194 . S
Co627 O652 2.351 . S
Co627 O653 2.155 . S
Co627 O654 2.096 . S
C628 N631 1.301 1_565 S
C628 N632 1.328 . S
C628 H633 0.930 . S
C629 C630 1.333 1_545 S
C629 N631 1.317 . S
C629 H634 0.930 . S
C630 C629 1.333 1_565 S
C630 N632 1.350 . S
C630 H656 0.931 . S
N631 Co627 2.148 . S
N631 C628 1.301 1_545 S
N631 C629 1.317 . S
N632 C628 1.328 . S
N632 C630 1.350 . S
H633 C628 0.930 . S
H634 C629 0.930 . S
C635 O636 1.224 . S
C635 O654 1.247 . S
O636 C635 1.224 . S
N637 Co627 2.128 . S
N637 C638 1.355 . S
N637 C640 1.311 . S
C638 N637 1.355 . S
C638 C639 1.363 . S
C638 H650 0.929 . S
C639 C638 1.363 . S
C639 N641 1.375 . S
C639 H657 0.931 . S
C640 N637 1.311 . S
C640 N641 1.347 . S
C640 H651 0.929 . S
N641 C639 1.375 . S
N641 C640 1.347 . S
C642 C645 1.365 . S
C642 N647 1.328 . S
C642 H648 0.929 . S
C643 C644 1.362 . S
C643 C646 1.378 . S
C643 H658 0.929 . S
C644 C643 1.362 . S
C644 C645 1.366 . S
C645 C642 1.365 . S
C645 C644 1.366 . S
C645 H659 0.930 . S
C646 C643 1.378 . S
C646 N647 1.315 . S
C646 H649 0.930 . S
N647 Co627 2.194 . S
N647 C642 1.328 . S
N647 C646 1.315 . S
H648 C642 0.929 . S
H649 C646 0.930 . S
H650 C638 0.929 . S
H651 C640 0.929 . S
O652 Co627 2.351 . S
O652 C655 1.244 . S
O653 Co627 2.155 . S
O653 C655 1.240 . S
O654 Co627 2.096 . S
O654 C635 1.247 . S
C655 O652 1.244 . S
C655 O653 1.240 . S
H656 C630 0.931 . S
H657 C639 0.931 . S
H658 C643 0.929 . S
H659 C645 0.930 . S
Co660 N664 2.148 . S
Co660 N670 2.128 . S
Co660 N680 2.194 . S
Co660 O685 2.351 . S
Co660 O686 2.155 . S
Co660 O687 2.096 . S
C661 N664 1.301 1_545 S
C661 N665 1.328 . S
C661 H666 0.930 . S
C662 C663 1.333 1_565 S
C662 N664 1.317 . S
C662 H667 0.930 . S
C663 C662 1.333 1_545 S
C663 N665 1.350 . S
C663 H689 0.931 . S
N664 Co660 2.148 . S
N664 C661 1.301 1_565 S
N664 C662 1.317 . S
N665 C661 1.328 . S
N665 C663 1.350 . S
H666 C661 0.930 . S
H667 C662 0.930 . S
C668 O669 1.224 . S
C668 O687 1.247 . S
O669 C668 1.224 . S
N670 Co660 2.128 . S
N670 C671 1.355 . S
N670 C673 1.311 . S
C671 N670 1.355 . S
C671 C672 1.363 . S
C671 H683 0.929 . S
C672 C671 1.363 . S
C672 N674 1.375 . S
C672 H690 0.956 . S
C673 N670 1.311 . S
C673 N674 1.347 . S
C673 H684 0.929 . S
N674 C672 1.375 . S
N674 C673 1.347 . S
C675 C678 1.365 . S
C675 N680 1.328 . S
C675 H681 0.929 . S
C676 C677 1.362 . S
C676 C679 1.378 . S
C676 H691 0.929 . S
C677 C676 1.362 . S
C677 C678 1.366 . S
C678 C675 1.365 . S
C678 C677 1.366 . S
C678 H692 0.930 1_455 S
C679 C676 1.378 . S
C679 N680 1.315 . S
C679 H682 0.930 . S
N680 Co660 2.194 . S
N680 C675 1.328 . S
N680 C679 1.315 . S
H681 C675 0.929 . S
H682 C679 0.930 . S
H683 C671 0.929 . S
H684 C673 0.929 . S
O685 Co660 2.351 . S
O685 C688 1.244 . S
O686 Co660 2.155 . S
O686 C688 1.240 . S
O687 Co660 2.096 . S
O687 C668 1.247 . S
C688 O685 1.244 . S
C688 O686 1.240 . S
H689 C663 0.931 . S
H690 C672 0.956 . S
H691 C676 0.929 . S
H692 C678 0.930 1_655 S
Co693 N697 2.148 . S
Co693 N703 2.128 1_565 S
Co693 N713 2.194 . S
Co693 O718 2.351 . S
Co693 O719 2.155 . S
Co693 O720 2.096 . S
C694 N697 1.301 . S
C694 N698 1.328 . S
C694 H699 0.930 . S
C695 C696 1.333 . S
C695 N697 1.317 . S
C695 H700 0.930 . S
C696 C695 1.333 . S
C696 N698 1.350 . S
C696 H722 0.931 . S
N697 Co693 2.148 . S
N697 C694 1.301 . S
N697 C695 1.317 . S
N698 C694 1.328 . S
N698 C696 1.350 . S
H699 C694 0.930 . S
H700 C695 0.930 . S
C701 O702 1.224 . S
C701 O720 1.247 1_545 S
O702 C701 1.224 . S
N703 Co693 2.128 1_545 S
N703 C704 1.355 . S
N703 C706 1.311 . S
C704 N703 1.355 . S
C704 C705 1.363 . S
C704 H716 0.929 . S
C705 C704 1.363 . S
C705 N707 1.375 . S
C705 H723 0.931 . S
C706 N703 1.311 . S
C706 N707 1.347 . S
C706 H717 0.929 . S
N707 C705 1.375 . S
N707 C706 1.347 . S
C708 C711 1.365 . S
C708 N713 1.328 . S
C708 H714 0.929 . S
C709 C710 1.362 . S
C709 C712 1.378 . S
C709 H724 0.929 . S
C710 C709 1.362 . S
C710 C711 1.366 . S
C711 C708 1.365 . S
C711 C710 1.366 . S
C711 H725 0.930 . S
C712 C709 1.378 . S
C712 N713 1.315 . S
C712 H715 0.930 . S
N713 Co693 2.194 . S
N713 C708 1.328 . S
N713 C712 1.315 . S
H714 C708 0.929 . S
H715 C712 0.930 . S
H716 C704 0.929 . S
H717 C706 0.929 . S
O718 Co693 2.351 . S
O718 C721 1.244 . S
O719 Co693 2.155 . S
O719 C721 1.240 . S
O720 Co693 2.096 . S
O720 C701 1.247 1_565 S
C721 O718 1.244 . S
C721 O719 1.240 . S
H722 C696 0.931 . S
H723 C705 0.931 . S
H724 C709 0.929 . S
H725 C711 0.930 . S
Co726 N730 2.148 . S
Co726 N736 2.128 1_565 S
Co726 N746 2.194 . S
Co726 O751 2.351 . S
Co726 O752 2.155 . S
Co726 O753 2.096 . S
C727 N730 1.301 . S
C727 N731 1.328 . S
C727 H732 0.930 . S
C728 C729 1.333 . S
C728 N730 1.317 . S
C728 H733 0.930 . S
C729 C728 1.333 . S
C729 N731 1.350 . S
C729 H755 0.931 . S
N730 Co726 2.148 . S
N730 C727 1.301 . S
N730 C728 1.317 . S
N731 C727 1.328 . S
N731 C729 1.350 . S
H732 C727 0.930 . S
H733 C728 0.930 . S
C734 O735 1.224 . S
C734 O753 1.247 1_545 S
O735 C734 1.224 . S
N736 Co726 2.128 1_545 S
N736 C737 1.355 . S
N736 C739 1.311 . S
C737 N736 1.355 . S
C737 C738 1.363 . S
C737 H749 0.929 . S
C738 C737 1.363 . S
C738 N740 1.375 . S
C738 H756 0.956 . S
C739 N736 1.311 . S
C739 N740 1.347 . S
C739 H750 0.929 . S
N740 C738 1.375 . S
N740 C739 1.347 . S
C741 C744 1.365 . S
C741 N746 1.328 . S
C741 H747 0.929 . S
C742 C743 1.362 . S
C742 C745 1.378 . S
C742 H757 0.929 . S
C743 C742 1.362 . S
C743 C744 1.366 . S
C744 C741 1.365 . S
C744 C743 1.366 . S
C744 H758 0.930 1_455 S
C745 C742 1.378 . S
C745 N746 1.315 . S
C745 H748 0.930 . S
N746 Co726 2.194 . S
N746 C741 1.328 . S
N746 C745 1.315 . S
H747 C741 0.929 . S
H748 C745 0.930 . S
H749 C737 0.929 . S
H750 C739 0.929 . S
O751 Co726 2.351 . S
O751 C754 1.244 . S
O752 Co726 2.155 . S
O752 C754 1.240 . S
O753 Co726 2.096 . S
O753 C734 1.247 1_565 S
C754 O751 1.244 . S
C754 O752 1.240 . S
H755 C729 0.931 . S
H756 C738 0.956 . S
H757 C742 0.929 . S
H758 C744 0.930 1_655 S
Co759 N763 2.148 . S
Co759 N769 2.128 . S
Co759 N779 2.194 . S
Co759 O784 2.351 . S
Co759 O785 2.155 . S
Co759 O786 2.096 . S
C760 N763 1.301 1_545 S
C760 N764 1.328 . S
C760 H765 0.930 . S
C761 C762 1.333 1_565 S
C761 N763 1.317 . S
C761 H766 0.930 . S
C762 C761 1.333 1_545 S
C762 N764 1.350 . S
C762 H788 0.931 . S
N763 Co759 2.148 . S
N763 C760 1.301 1_565 S
N763 C761 1.317 . S
N764 C760 1.328 . S
N764 C762 1.350 . S
H765 C760 0.930 . S
H766 C761 0.930 . S
C767 O768 1.224 . S
C767 O786 1.247 . S
O768 C767 1.224 . S
N769 Co759 2.128 . S
N769 C770 1.355 . S
N769 C772 1.311 . S
C770 N769 1.355 . S
C770 C771 1.363 . S
C770 H782 0.929 . S
C771 C770 1.363 . S
C771 N773 1.375 . S
C771 H789 0.931 . S
C772 N769 1.311 . S
C772 N773 1.347 . S
C772 H783 0.929 . S
N773 C771 1.375 . S
N773 C772 1.347 . S
C774 C777 1.365 . S
C774 N779 1.328 . S
C774 H780 0.929 . S
C775 C776 1.362 . S
C775 C778 1.378 . S
C775 H790 0.929 . S
C776 C775 1.362 . S
C776 C777 1.366 . S
C777 C774 1.365 . S
C777 C776 1.366 . S
C777 H791 0.930 . S
C778 C775 1.378 . S
C778 N779 1.315 . S
C778 H781 0.930 . S
N779 Co759 2.194 . S
N779 C774 1.328 . S
N779 C778 1.315 . S
H780 C774 0.929 . S
H781 C778 0.930 . S
H782 C770 0.929 . S
H783 C772 0.929 . S
O784 Co759 2.351 . S
O784 C787 1.244 . S
O785 Co759 2.155 . S
O785 C787 1.240 . S
O786 Co759 2.096 . S
O786 C767 1.247 . S
C787 O784 1.244 . S
C787 O785 1.240 . S
H788 C762 0.931 . S
H789 C771 0.931 . S
H790 C775 0.929 . S
H791 C777 0.930 . S
Co792 N796 2.148 . S
Co792 N802 2.128 . S
Co792 N812 2.194 . S
Co792 O817 2.351 . S
Co792 O818 2.155 . S
Co792 O819 2.096 . S
C793 N796 1.301 . S
C793 N797 1.328 . S
C793 H798 0.930 . S
C794 C795 1.333 . S
C794 N796 1.317 . S
C794 H799 0.930 . S
C795 C794 1.333 . S
C795 N797 1.350 . S
C795 H821 0.931 . S
N796 Co792 2.148 . S
N796 C793 1.301 . S
N796 C794 1.317 . S
N797 C793 1.328 . S
N797 C795 1.350 . S
H798 C793 0.930 . S
H799 C794 0.930 . S
C800 O801 1.224 . S
C800 O819 1.247 . S
O801 C800 1.224 . S
N802 Co792 2.128 . S
N802 C803 1.355 . S
N802 C805 1.311 . S
C803 N802 1.355 . S
C803 C804 1.363 . S
C803 H815 0.929 . S
C804 C803 1.363 . S
C804 N806 1.375 . S
C804 H822 0.956 . S
C805 N802 1.311 . S
C805 N806 1.347 . S
C805 H816 0.929 . S
N806 C804 1.375 . S
N806 C805 1.347 . S
C807 C810 1.365 . S
C807 N812 1.328 . S
C807 H813 0.929 . S
C808 C809 1.362 . S
C808 C811 1.378 . S
C808 H823 0.929 . S
C809 C808 1.362 . S
C809 C810 1.366 . S
C810 C807 1.365 . S
C810 C809 1.366 . S
C810 H824 0.930 1_655 S
C811 C808 1.378 . S
C811 N812 1.315 . S
C811 H814 0.930 . S
N812 Co792 2.194 . S
N812 C807 1.328 . S
N812 C811 1.315 . S
H813 C807 0.929 . S
H814 C811 0.930 . S
H815 C803 0.929 . S
H816 C805 0.929 . S
O817 Co792 2.351 . S
O817 C820 1.244 . S
O818 Co792 2.155 . S
O818 C820 1.240 . S
O819 Co792 2.096 . S
O819 C800 1.247 . S
C820 O817 1.244 . S
C820 O818 1.240 . S
H821 C795 0.931 . S
H822 C804 0.956 . S
H823 C808 0.929 . S
H824 C810 0.930 1_455 S
Co825 N829 2.148 . S
Co825 N835 2.128 . S
Co825 N845 2.194 . S
Co825 O850 2.351 . S
Co825 O851 2.155 . S
Co825 O852 2.096 . S
C826 N829 1.301 . S
C826 N830 1.328 . S
C826 H831 0.930 . S
C827 C828 1.333 . S
C827 N829 1.317 . S
C827 H832 0.930 . S
C828 C827 1.333 . S
C828 N830 1.350 . S
C828 H854 0.931 . S
N829 Co825 2.148 . S
N829 C826 1.301 . S
N829 C827 1.317 . S
N830 C826 1.328 . S
N830 C828 1.350 . S
H831 C826 0.930 . S
H832 C827 0.930 . S
C833 O834 1.224 . S
C833 O852 1.247 . S
O834 C833 1.224 . S
N835 Co825 2.128 . S
N835 C836 1.355 . S
N835 C838 1.311 . S
C836 N835 1.355 . S
C836 C837 1.363 . S
C836 H848 0.929 . S
C837 C836 1.363 . S
C837 N839 1.375 . S
C837 H855 0.931 . S
C838 N835 1.311 . S
C838 N839 1.347 . S
C838 H849 0.929 . S
N839 C837 1.375 . S
N839 C838 1.347 . S
C840 C843 1.365 . S
C840 N845 1.328 . S
C840 H846 0.929 . S
C841 C842 1.362 . S
C841 C844 1.378 . S
C841 H856 0.929 . S
C842 C841 1.362 . S
C842 C843 1.366 . S
C843 C840 1.365 . S
C843 C842 1.366 . S
C843 H857 0.930 . S
C844 C841 1.378 . S
C844 N845 1.315 . S
C844 H847 0.930 . S
N845 Co825 2.194 . S
N845 C840 1.328 . S
N845 C844 1.315 . S
H846 C840 0.929 . S
H847 C844 0.930 . S
H848 C836 0.929 . S
H849 C838 0.929 . S
O850 Co825 2.351 . S
O850 C853 1.244 . S
O851 Co825 2.155 . S
O851 C853 1.240 . S
O852 Co825 2.096 . S
O852 C833 1.247 . S
C853 O850 1.244 . S
C853 O851 1.240 . S
H854 C828 0.931 . S
H855 C837 0.931 . S
H856 C841 0.929 . S
H857 C843 0.930 . S
Co858 N862 2.148 . S
Co858 N868 2.128 . S
Co858 N878 2.194 . S
Co858 O883 2.351 . S
Co858 O884 2.155 . S
Co858 O885 2.096 . S
C859 N862 1.301 . S
C859 N863 1.328 . S
C859 H864 0.930 . S
C860 C861 1.333 . S
C860 N862 1.317 . S
C860 H865 0.930 . S
C861 C860 1.333 . S
C861 N863 1.350 . S
C861 H887 0.931 . S
N862 Co858 2.148 . S
N862 C859 1.301 . S
N862 C860 1.317 . S
N863 C859 1.328 . S
N863 C861 1.350 . S
H864 C859 0.930 . S
H865 C860 0.930 . S
C866 O867 1.224 . S
C866 O885 1.247 . S
O867 C866 1.224 . S
N868 Co858 2.128 . S
N868 C869 1.355 . S
N868 C871 1.311 . S
C869 N868 1.355 . S
C869 C870 1.363 . S
C869 H881 0.929 . S
C870 C869 1.363 . S
C870 N872 1.375 . S
C870 H888 0.956 . S
C871 N868 1.311 . S
C871 N872 1.347 . S
C871 H882 0.929 . S
N872 C870 1.375 . S
N872 C871 1.347 . S
C873 C876 1.365 . S
C873 N878 1.328 . S
C873 H879 0.929 . S
C874 C875 1.362 . S
C874 C877 1.378 . S
C874 H889 0.929 . S
C875 C874 1.362 . S
C875 C876 1.366 . S
C876 C873 1.365 . S
C876 C875 1.366 . S
C876 H890 0.930 1_655 S
C877 C874 1.378 . S
C877 N878 1.315 . S
C877 H880 0.930 . S
N878 Co858 2.194 . S
N878 C873 1.328 . S
N878 C877 1.315 . S
H879 C873 0.929 . S
H880 C877 0.930 . S
H881 C869 0.929 . S
H882 C871 0.929 . S
O883 Co858 2.351 . S
O883 C886 1.244 . S
O884 Co858 2.155 . S
O884 C886 1.240 . S
O885 Co858 2.096 . S
O885 C866 1.247 . S
C886 O883 1.244 . S
C886 O884 1.240 . S
H887 C861 0.931 . S
H888 C870 0.956 . S
H889 C874 0.929 . S
H890 C876 0.930 1_455 S
Co891 N895 2.148 . S
Co891 N901 2.128 . S
Co891 N911 2.194 . S
Co891 O916 2.351 . S
Co891 O917 2.155 . S
Co891 O918 2.096 . S
C892 N895 1.301 . S
C892 N896 1.328 . S
C892 H897 0.930 . S
C893 C894 1.333 . S
C893 N895 1.317 . S
C893 H898 0.930 . S
C894 C893 1.333 . S
C894 N896 1.350 . S
C894 H920 0.931 . S
N895 Co891 2.148 . S
N895 C892 1.301 . S
N895 C893 1.317 . S
N896 C892 1.328 . S
N896 C894 1.350 . S
H897 C892 0.930 . S
H898 C893 0.930 . S
C899 O900 1.224 . S
C899 O918 1.247 . S
O900 C899 1.224 . S
N901 Co891 2.128 . S
N901 C902 1.355 . S
N901 C904 1.311 . S
C902 N901 1.355 . S
C902 C903 1.363 . S
C902 H914 0.929 . S
C903 C902 1.363 . S
C903 N905 1.375 . S
C903 H921 0.931 . S
C904 N901 1.311 . S
C904 N905 1.347 . S
C904 H915 0.929 . S
N905 C903 1.375 . S
N905 C904 1.347 . S
C906 C909 1.365 . S
C906 N911 1.328 . S
C906 H912 0.929 . S
C907 C908 1.362 . S
C907 C910 1.378 . S
C907 H922 0.929 . S
C908 C907 1.362 . S
C908 C909 1.366 . S
C909 C906 1.365 . S
C909 C908 1.366 . S
C909 H923 0.930 . S
C910 C907 1.378 . S
C910 N911 1.315 . S
C910 H913 0.930 . S
N911 Co891 2.194 . S
N911 C906 1.328 . S
N911 C910 1.315 . S
H912 C906 0.929 . S
H913 C910 0.930 . S
H914 C902 0.929 . S
H915 C904 0.929 . S
O916 Co891 2.351 . S
O916 C919 1.244 . S
O917 Co891 2.155 . S
O917 C919 1.240 . S
O918 Co891 2.096 . S
O918 C899 1.247 . S
C919 O916 1.244 . S
C919 O917 1.240 . S
H920 C894 0.931 . S
H921 C903 0.931 . S
H922 C907 0.929 . S
H923 C909 0.930 . S
Co924 N928 2.148 . S
Co924 N934 2.128 . S
Co924 N944 2.194 . S
Co924 O949 2.351 . S
Co924 O950 2.155 . S
Co924 O951 2.096 . S
C925 N928 1.301 . S
C925 N929 1.328 . S
C925 H930 0.930 . S
C926 C927 1.333 . S
C926 N928 1.317 . S
C926 H931 0.930 . S
C927 C926 1.333 . S
C927 N929 1.350 . S
C927 H953 0.931 . S
N928 Co924 2.148 . S
N928 C925 1.301 . S
N928 C926 1.317 . S
N929 C925 1.328 . S
N929 C927 1.350 . S
H930 C925 0.930 . S
H931 C926 0.930 . S
C932 O933 1.224 . S
C932 O951 1.247 . S
O933 C932 1.224 . S
N934 Co924 2.128 . S
N934 C935 1.355 . S
N934 C937 1.311 . S
C935 N934 1.355 . S
C935 C936 1.363 . S
C935 H947 0.929 . S
C936 C935 1.363 . S
C936 N938 1.375 . S
C936 H954 0.956 . S
C937 N934 1.311 . S
C937 N938 1.347 . S
C937 H948 0.929 . S
N938 C936 1.375 . S
N938 C937 1.347 . S
C939 C942 1.365 . S
C939 N944 1.328 . S
C939 H945 0.929 . S
C940 C941 1.362 . S
C940 C943 1.378 . S
C940 H955 0.929 . S
C941 C940 1.362 . S
C941 C942 1.366 . S
C942 C939 1.365 . S
C942 C941 1.366 . S
C942 H956 0.930 1_455 S
C943 C940 1.378 . S
C943 N944 1.315 . S
C943 H946 0.930 . S
N944 Co924 2.194 . S
N944 C939 1.328 . S
N944 C943 1.315 . S
H945 C939 0.929 . S
H946 C943 0.930 . S
H947 C935 0.929 . S
H948 C937 0.929 . S
O949 Co924 2.351 . S
O949 C952 1.244 . S
O950 Co924 2.155 . S
O950 C952 1.240 . S
O951 Co924 2.096 . S
O951 C932 1.247 . S
C952 O949 1.244 . S
C952 O950 1.240 . S
H953 C927 0.931 . S
H954 C936 0.956 . S
H955 C940 0.929 . S
H956 C942 0.930 1_655 S
Co957 N961 2.148 . S
Co957 N967 2.128 . S
Co957 N977 2.194 . S
Co957 O982 2.351 . S
Co957 O983 2.155 . S
Co957 O984 2.096 . S
C958 N961 1.301 . S
C958 N962 1.328 . S
C958 H963 0.930 . S
C959 C960 1.333 . S
C959 N961 1.317 . S
C959 H964 0.930 . S
C960 C959 1.333 . S
C960 N962 1.350 . S
C960 H986 0.931 . S
N961 Co957 2.148 . S
N961 C958 1.301 . S
N961 C959 1.317 . S
N962 C958 1.328 . S
N962 C960 1.350 . S
H963 C958 0.930 . S
H964 C959 0.930 . S
C965 O966 1.224 . S
C965 O984 1.247 . S
O966 C965 1.224 . S
N967 Co957 2.128 . S
N967 C968 1.355 . S
N967 C970 1.311 . S
C968 N967 1.355 . S
C968 C969 1.363 . S
C968 H980 0.929 . S
C969 C968 1.363 . S
C969 N971 1.375 . S
C969 H987 0.931 . S
C970 N967 1.311 . S
C970 N971 1.347 . S
C970 H981 0.929 . S
N971 C969 1.375 . S
N971 C970 1.347 . S
C972 C975 1.365 . S
C972 N977 1.328 . S
C972 H978 0.929 . S
C973 C974 1.362 . S
C973 C976 1.378 . S
C973 H988 0.929 . S
C974 C973 1.362 . S
C974 C975 1.366 . S
C975 C972 1.365 . S
C975 C974 1.366 . S
C975 H989 0.930 . S
C976 C973 1.378 . S
C976 N977 1.315 . S
C976 H979 0.930 . S
N977 Co957 2.194 . S
N977 C972 1.328 . S
N977 C976 1.315 . S
H978 C972 0.929 . S
H979 C976 0.930 . S
H980 C968 0.929 . S
H981 C970 0.929 . S
O982 Co957 2.351 . S
O982 C985 1.244 . S
O983 Co957 2.155 . S
O983 C985 1.240 . S
O984 Co957 2.096 . S
O984 C965 1.247 . S
C985 O982 1.244 . S
C985 O983 1.240 . S
H986 C960 0.931 . S
H987 C969 0.931 . S
H988 C973 0.929 . S
H989 C975 0.930 . S
Co990 N994 2.148 . S
Co990 N1000 2.128 . S
Co990 N1010 2.194 . S
Co990 O1015 2.351 . S
Co990 O1016 2.155 . S
Co990 O1017 2.096 . S
C991 N994 1.301 . S
C991 N995 1.328 . S
C991 H996 0.930 . S
C992 C993 1.333 . S
C992 N994 1.317 . S
C992 H997 0.930 . S
C993 C992 1.333 . S
C993 N995 1.350 . S
C993 H1019 0.931 . S
N994 Co990 2.148 . S
N994 C991 1.301 . S
N994 C992 1.317 . S
N995 C991 1.328 . S
N995 C993 1.350 . S
H996 C991 0.930 . S
H997 C992 0.930 . S
C998 O999 1.224 . S
C998 O1017 1.247 . S
O999 C998 1.224 . S
N1000 Co990 2.128 . S
N1000 C1001 1.355 . S
N1000 C1003 1.311 . S
C1001 N1000 1.355 . S
C1001 C1002 1.363 . S
C1001 H1013 0.929 . S
C1002 C1001 1.363 . S
C1002 N1004 1.375 . S
C1002 H1020 0.956 . S
C1003 N1000 1.311 . S
C1003 N1004 1.347 . S
C1003 H1014 0.929 . S
N1004 C1002 1.375 . S
N1004 C1003 1.347 . S
C1005 C1008 1.365 . S
C1005 N1010 1.328 . S
C1005 H1011 0.929 . S
C1006 C1007 1.362 . S
C1006 C1009 1.378 . S
C1006 H1021 0.929 . S
C1007 C1006 1.362 . S
C1007 C1008 1.366 . S
C1008 C1005 1.365 . S
C1008 C1007 1.366 . S
C1008 H1022 0.930 1_455 S
C1009 C1006 1.378 . S
C1009 N1010 1.315 . S
C1009 H1012 0.930 . S
N1010 Co990 2.194 . S
N1010 C1005 1.328 . S
N1010 C1009 1.315 . S
H1011 C1005 0.929 . S
H1012 C1009 0.930 . S
H1013 C1001 0.929 . S
H1014 C1003 0.929 . S
O1015 Co990 2.351 . S
O1015 C1018 1.244 . S
O1016 Co990 2.155 . S
O1016 C1018 1.240 . S
O1017 Co990 2.096 . S
O1017 C998 1.247 . S
C1018 O1015 1.244 . S
C1018 O1016 1.240 . S
H1019 C993 0.931 . S
H1020 C1002 0.956 . S
H1021 C1006 0.929 . S
H1022 C1008 0.930 1_655 S
Co1023 N1027 2.148 . S
Co1023 N1033 2.128 . S
Co1023 N1043 2.194 . S
Co1023 O1048 2.351 . S
Co1023 O1049 2.155 . S
Co1023 O1050 2.096 . S
C1024 N1027 1.301 . S
C1024 N1028 1.328 . S
C1024 H1029 0.930 . S
C1025 C1026 1.333 . S
C1025 N1027 1.317 . S
C1025 H1030 0.930 . S
C1026 C1025 1.333 . S
C1026 N1028 1.350 . S
C1026 H1052 0.931 . S
N1027 Co1023 2.148 . S
N1027 C1024 1.301 . S
N1027 C1025 1.317 . S
N1028 C1024 1.328 . S
N1028 C1026 1.350 . S
H1029 C1024 0.930 . S
H1030 C1025 0.930 . S
C1031 O1032 1.224 . S
C1031 O1050 1.247 . S
O1032 C1031 1.224 . S
N1033 Co1023 2.128 . S
N1033 C1034 1.355 . S
N1033 C1036 1.311 . S
C1034 N1033 1.355 . S
C1034 C1035 1.363 . S
C1034 H1046 0.929 . S
C1035 C1034 1.363 . S
C1035 N1037 1.375 . S
C1035 H1053 0.931 . S
C1036 N1033 1.311 . S
C1036 N1037 1.347 . S
C1036 H1047 0.929 . S
N1037 C1035 1.375 . S
N1037 C1036 1.347 . S
C1038 C1041 1.365 . S
C1038 N1043 1.328 . S
C1038 H1044 0.929 . S
C1039 C1040 1.362 . S
C1039 C1042 1.378 . S
C1039 H1054 0.929 . S
C1040 C1039 1.362 . S
C1040 C1041 1.366 . S
C1041 C1038 1.365 . S
C1041 C1040 1.366 . S
C1041 H1055 0.930 . S
C1042 C1039 1.378 . S
C1042 N1043 1.315 . S
C1042 H1045 0.930 . S
N1043 Co1023 2.194 . S
N1043 C1038 1.328 . S
N1043 C1042 1.315 . S
H1044 C1038 0.929 . S
H1045 C1042 0.930 . S
H1046 C1034 0.929 . S
H1047 C1036 0.929 . S
O1048 Co1023 2.351 . S
O1048 C1051 1.244 . S
O1049 Co1023 2.155 . S
O1049 C1051 1.240 . S
O1050 Co1023 2.096 . S
O1050 C1031 1.247 . S
C1051 O1048 1.244 . S
C1051 O1049 1.240 . S
H1052 C1026 0.931 . S
H1053 C1035 0.931 . S
H1054 C1039 0.929 . S
H1055 C1041 0.930 . S
C1056 C1057 1.363 . S
C1056 C1062 1.379 . S
C1056 N1064 1.356 . S
C1057 C1056 1.363 . S
C1057 C1063 1.363 . S
C1058 C1059 1.363 . S
C1058 C1063 1.379 . S
C1058 N1065 1.356 1_545 S
C1059 C1058 1.363 . S
C1059 C1062 1.363 . S
N1060 C1062 1.356 . S
N1060 H1072 0.984 . S
N1060 H1073 0.985 . S
N1061 C1063 1.356 . S
N1061 H1066 0.984 . S
N1061 H1067 0.985 1_545 S
C1062 C1056 1.379 . S
C1062 C1059 1.363 . S
C1062 N1060 1.356 . S
C1063 C1057 1.363 . S
C1063 C1058 1.379 . S
C1063 N1061 1.356 . S
N1064 C1056 1.356 . S
N1064 H1070 0.984 . S
N1064 H1071 0.984 . S
N1065 C1058 1.356 1_565 S
N1065 H1068 0.984 . S
N1065 H1069 0.985 . S
H1066 N1061 0.984 . S
H1067 N1061 0.985 1_565 S
H1068 N1065 0.984 . S
H1069 N1065 0.985 . S
H1070 N1064 0.984 . S
H1071 N1064 0.984 . S
H1072 N1060 0.984 . S
H1073 N1060 0.985 . S
C1074 C1075 1.363 . S
C1074 C1080 1.379 . S
C1074 N1082 1.356 . S
C1075 C1074 1.363 . S
C1075 C1081 1.363 . S
C1076 C1077 1.363 . S
C1076 C1081 1.379 . S
C1076 N1083 1.356 . S
C1077 C1076 1.363 . S
C1077 C1080 1.363 . S
N1078 C1080 1.356 . S
N1078 H1090 0.984 . S
N1078 H1091 0.985 . S
N1079 C1081 1.356 1_565 S
N1079 H1084 0.984 . S
N1079 H1085 0.985 . S
C1080 C1074 1.379 . S
C1080 C1077 1.363 . S
C1080 N1078 1.356 . S
C1081 C1075 1.363 . S
C1081 C1076 1.379 . S
C1081 N1079 1.356 1_545 S
N1082 C1074 1.356 . S
N1082 H1088 0.984 . S
N1082 H1089 0.984 . S
N1083 C1076 1.356 . S
N1083 H1086 0.984 . S
N1083 H1087 0.985 1_545 S
H1084 N1079 0.984 . S
H1085 N1079 0.985 . S
H1086 N1083 0.984 . S
H1087 N1083 0.985 1_565 S
H1088 N1082 0.984 . S
H1089 N1082 0.984 . S
H1090 N1078 0.984 . S
H1091 N1078 0.985 . S
C1092 C1093 1.363 . S
C1092 C1098 1.379 . S
C1092 N1100 1.356 . S
C1093 C1092 1.363 . S
C1093 C1099 1.363 . S
C1094 C1095 1.363 . S
C1094 C1099 1.379 . S
C1094 N1101 1.356 . S
C1095 C1094 1.363 . S
C1095 C1098 1.363 . S
N1096 C1098 1.356 . S
N1096 H1108 0.984 . S
N1096 H1109 0.985 . S
N1097 C1099 1.356 . S
N1097 H1102 0.984 . S
N1097 H1103 0.985 . S
C1098 C1092 1.379 . S
C1098 C1095 1.363 . S
C1098 N1096 1.356 . S
C1099 C1093 1.363 . S
C1099 C1094 1.379 . S
C1099 N1097 1.356 . S
N1100 C1092 1.356 . S
N1100 H1106 0.984 . S
N1100 H1107 0.984 . S
N1101 C1094 1.356 . S
N1101 H1104 0.984 . S
N1101 H1105 0.985 1_565 S
H1102 N1097 0.984 . S
H1103 N1097 0.985 . S
H1104 N1101 0.984 . S
H1105 N1101 0.985 1_545 S
H1106 N1100 0.984 . S
H1107 N1100 0.984 . S
H1108 N1096 0.984 . S
H1109 N1096 0.985 . S
C1110 C1111 1.363 . S
C1110 C1116 1.379 . S
C1110 N1118 1.356 . S
C1111 C1110 1.363 . S
C1111 C1117 1.363 . S
C1112 C1113 1.363 . S
C1112 C1117 1.379 . S
C1112 N1119 1.356 . S
C1113 C1112 1.363 . S
C1113 C1116 1.363 . S
N1114 C1116 1.356 . S
N1114 H1126 0.984 . S
N1114 H1127 0.985 . S
N1115 C1117 1.356 . S
N1115 H1120 0.984 . S
N1115 H1121 0.985 . S
C1116 C1110 1.379 . S
C1116 C1113 1.363 . S
C1116 N1114 1.356 . S
C1117 C1111 1.363 . S
C1117 C1112 1.379 . S
C1117 N1115 1.356 . S
N1118 C1110 1.356 . S
N1118 H1124 0.984 . S
N1118 H1125 0.984 . S
N1119 C1112 1.356 . S
N1119 H1122 0.984 . S
N1119 H1123 0.985 1_565 S
H1120 N1115 0.984 . S
H1121 N1115 0.985 . S
H1122 N1119 0.984 . S
H1123 N1119 0.985 1_545 S
H1124 N1118 0.984 . S
H1125 N1118 0.984 . S
H1126 N1114 0.984 . S
H1127 N1114 0.985 . S
C1128 C1129 1.363 . S
C1128 C1134 1.379 . S
C1128 N1136 1.356 . S
C1129 C1128 1.363 . S
C1129 C1135 1.363 . S
C1130 C1131 1.363 . S
C1130 C1135 1.379 . S
C1130 N1137 1.356 . S
C1131 C1130 1.363 . S
C1131 C1134 1.363 . S
N1132 C1134 1.356 . S
N1132 H1144 0.984 . S
N1132 H1145 0.985 . S
N1133 C1135 1.356 . S
N1133 H1138 0.984 . S
N1133 H1139 0.985 . S
C1134 C1128 1.379 . S
C1134 C1131 1.363 . S
C1134 N1132 1.356 . S
C1135 C1129 1.363 . S
C1135 C1130 1.379 . S
C1135 N1133 1.356 . S
N1136 C1128 1.356 . S
N1136 H1142 0.984 . S
N1136 H1143 0.984 . S
N1137 C1130 1.356 . S
N1137 H1140 0.984 . S
N1137 H1141 0.985 . S
H1138 N1133 0.984 . S
H1139 N1133 0.985 . S
H1140 N1137 0.984 . S
H1141 N1137 0.985 . S
H1142 N1136 0.984 . S
H1143 N1136 0.984 . S
H1144 N1132 0.984 . S
H1145 N1132 0.985 . S
C1146 C1147 1.363 . S
C1146 C1152 1.379 . S
C1146 N1154 1.356 . S
C1147 C1146 1.363 . S
C1147 C1153 1.363 . S
C1148 C1149 1.363 . S
C1148 C1153 1.379 . S
C1148 N1155 1.356 . S
C1149 C1148 1.363 . S
C1149 C1152 1.363 . S
N1150 C1152 1.356 . S
N1150 H1162 0.984 . S
N1150 H1163 0.985 . S
N1151 C1153 1.356 . S
N1151 H1156 0.984 . S
N1151 H1157 0.985 . S
C1152 C1146 1.379 . S
C1152 C1149 1.363 . S
C1152 N1150 1.356 . S
C1153 C1147 1.363 . S
C1153 C1148 1.379 . S
C1153 N1151 1.356 . S
N1154 C1146 1.356 . S
N1154 H1160 0.984 . S
N1154 H1161 0.984 . S
N1155 C1148 1.356 . S
N1155 H1158 0.984 . S
N1155 H1159 0.985 . S
H1156 N1151 0.984 . S
H1157 N1151 0.985 . S
H1158 N1155 0.984 . S
H1159 N1155 0.985 . S
H1160 N1154 0.984 . S
H1161 N1154 0.984 . S
H1162 N1150 0.984 . S
H1163 N1150 0.985 . S
C1164 C1165 1.363 . S
C1164 C1170 1.379 . S
C1164 N1172 1.356 . S
C1165 C1164 1.363 . S
C1165 C1171 1.363 . S
C1166 C1167 1.363 . S
C1166 C1171 1.379 . S
C1166 N1173 1.356 . S
C1167 C1166 1.363 . S
C1167 C1170 1.363 . S
N1168 C1170 1.356 . S
N1168 H1180 0.984 . S
N1168 H1181 0.985 . S
N1169 C1171 1.356 . S
N1169 H1174 0.984 . S
N1169 H1175 0.985 . S
C1170 C1164 1.379 . S
C1170 C1167 1.363 . S
C1170 N1168 1.356 . S
C1171 C1165 1.363 . S
C1171 C1166 1.379 . S
C1171 N1169 1.356 . S
N1172 C1164 1.356 . S
N1172 H1178 0.984 . S
N1172 H1179 0.984 . S
N1173 C1166 1.356 . S
N1173 H1176 0.984 . S
N1173 H1177 0.985 . S
H1174 N1169 0.984 . S
H1175 N1169 0.985 . S
H1176 N1173 0.984 . S
H1177 N1173 0.985 . S
H1178 N1172 0.984 . S
H1179 N1172 0.984 . S
H1180 N1168 0.984 . S
H1181 N1168 0.985 . S
C1182 C1183 1.363 . S
C1182 C1188 1.379 . S
C1182 N1190 1.356 . S
C1183 C1182 1.363 . S
C1183 C1189 1.363 . S
C1184 C1185 1.363 . S
C1184 C1189 1.379 . S
C1184 N1191 1.356 . S
C1185 C1184 1.363 . S
C1185 C1188 1.363 . S
N1186 C1188 1.356 . S
N1186 H1198 0.984 . S
N1186 H1199 0.985 . S
N1187 C1189 1.356 . S
N1187 H1192 0.984 . S
N1187 H1193 0.985 . S
C1188 C1182 1.379 . S
C1188 C1185 1.363 . S
C1188 N1186 1.356 . S
C1189 C1183 1.363 . S
C1189 C1184 1.379 . S
C1189 N1187 1.356 . S
N1190 C1182 1.356 . S
N1190 H1196 0.984 . S
N1190 H1197 0.984 . S
N1191 C1184 1.356 . S
N1191 H1194 0.984 . S
N1191 H1195 0.985 . S
H1192 N1187 0.984 . S
H1193 N1187 0.985 . S
H1194 N1191 0.984 . S
H1195 N1191 0.985 . S
H1196 N1190 0.984 . S
H1197 N1190 0.984 . S
H1198 N1186 0.984 . S
H1199 N1186 0.985 . S
C1200 C1201 1.363 . S
C1200 C1206 1.379 . S
C1200 N1208 1.356 . S
C1201 C1200 1.363 . S
C1201 C1207 1.363 . S
C1202 C1203 1.363 . S
C1202 C1207 1.379 . S
C1202 N1209 1.356 1_655 S
C1203 C1202 1.363 . S
C1203 C1206 1.363 . S
N1204 C1206 1.356 . S
N1204 H1216 0.984 . S
N1204 H1217 0.985 . S
N1205 C1207 1.356 1_465 S
N1205 H1210 0.997 . S
N1205 H1211 0.985 . S
C1206 C1200 1.379 . S
C1206 C1203 1.363 . S
C1206 N1204 1.356 . S
C1207 C1201 1.363 . S
C1207 C1202 1.379 . S
C1207 N1205 1.356 1_645 S
N1208 C1200 1.356 . S
N1208 H1214 0.984 . S
N1208 H1215 0.984 . S
N1209 C1202 1.356 1_455 S
N1209 H1212 0.997 . S
N1209 H1213 0.985 1_545 S
H1210 N1205 0.997 . S
H1211 N1205 0.985 . S
H1212 N1209 0.997 . S
H1213 N1209 0.985 1_565 S
H1214 N1208 0.984 . S
H1215 N1208 0.984 . S
H1216 N1204 0.984 . S
H1217 N1204 0.985 . S
C1218 C1219 1.363 . S
C1218 C1224 1.379 . S
C1218 N1226 1.356 1_545 S
C1219 C1218 1.363 . S
C1219 C1225 1.363 . S
C1220 C1221 1.363 . S
C1220 C1225 1.379 . S
C1220 N1227 1.356 . S
C1221 C1220 1.363 . S
C1221 C1224 1.363 . S
N1222 C1224 1.356 . S
N1222 H1234 0.984 1_545 S
N1222 H1235 0.985 . S
N1223 C1225 1.356 . S
N1223 H1228 0.984 . S
N1223 H1229 0.985 . S
C1224 C1218 1.379 . S
C1224 C1221 1.363 . S
C1224 N1222 1.356 . S
C1225 C1219 1.363 . S
C1225 C1220 1.379 . S
C1225 N1223 1.356 . S
N1226 C1218 1.356 1_565 S
N1226 H1232 0.984 . S
N1226 H1233 0.984 . S
N1227 C1220 1.356 . S
N1227 H1230 0.984 . S
N1227 H1231 0.985 . S
H1228 N1223 0.984 . S
H1229 N1223 0.985 . S
H1230 N1227 0.984 . S
H1231 N1227 0.985 . S
H1232 N1226 0.984 . S
H1233 N1226 0.984 . S
H1234 N1222 0.984 1_565 S
H1235 N1222 0.985 . S
C1236 C1237 1.363 . S
C1236 C1242 1.379 . S
C1236 N1244 1.356 . S
C1237 C1236 1.363 . S
C1237 C1243 1.363 . S
C1238 C1239 1.363 . S
C1238 C1243 1.379 . S
C1238 N1245 1.353 1_465 S
C1239 C1238 1.363 . S
C1239 C1242 1.363 . S
N1240 C1242 1.356 . S
N1240 H1252 0.984 . S
N1240 H1253 0.985 . S
N1241 C1243 1.356 1_655 S
N1241 H1246 0.984 . S
N1241 H1247 0.985 1_565 S
C1242 C1236 1.379 . S
C1242 C1239 1.363 . S
C1242 N1240 1.356 . S
C1243 C1237 1.363 . S
C1243 C1238 1.379 . S
C1243 N1241 1.356 1_455 S
N1244 C1236 1.356 . S
N1244 H1250 0.984 . S
N1244 H1251 0.984 . S
N1245 C1238 1.353 1_645 S
N1245 H1248 0.984 1_545 S
N1245 H1249 0.988 . S
H1246 N1241 0.984 . S
H1247 N1241 0.985 1_545 S
H1248 N1245 0.984 1_565 S
H1249 N1245 0.988 . S
H1250 N1244 0.984 . S
H1251 N1244 0.984 . S
H1252 N1240 0.984 . S
H1253 N1240 0.985 . S
C1254 C1255 1.363 . S
C1254 C1260 1.379 . S
C1254 N1262 1.356 . S
C1255 C1254 1.363 . S
C1255 C1261 1.363 . S
C1256 C1257 1.363 . S
C1256 C1261 1.379 . S
C1256 N1263 1.356 . S
C1257 C1256 1.363 . S
C1257 C1260 1.363 . S
N1258 C1260 1.356 1_545 S
N1258 H1270 0.984 . S
N1258 H1271 0.985 . S
N1259 C1261 1.356 . S
N1259 H1264 0.984 . S
N1259 H1265 0.985 . S
C1260 C1254 1.379 . S
C1260 C1257 1.363 . S
C1260 N1258 1.356 1_565 S
C1261 C1255 1.363 . S
C1261 C1256 1.379 . S
C1261 N1259 1.356 . S
N1262 C1254 1.356 . S
N1262 H1268 0.984 1_565 S
N1262 H1269 0.984 . S
N1263 C1256 1.356 . S
N1263 H1266 0.984 . S
N1263 H1267 0.985 . S
H1264 N1259 0.984 . S
H1265 N1259 0.985 . S
H1266 N1263 0.984 . S
H1267 N1263 0.985 . S
H1268 N1262 0.984 1_545 S
H1269 N1262 0.984 . S
H1270 N1258 0.984 . S
H1271 N1258 0.985 . S
C1272 C1273 1.363 . S
C1272 C1278 1.379 . S
C1272 N1280 1.356 . S
C1273 C1272 1.363 . S
C1273 C1279 1.363 . S
C1274 C1275 1.363 . S
C1274 C1279 1.379 . S
C1274 N1281 1.356 . S
C1275 C1274 1.363 . S
C1275 C1278 1.363 . S
N1276 C1278 1.356 . S
N1276 H1288 0.984 . S
N1276 H1289 0.985 . S
N1277 C1279 1.356 . S
N1277 H1282 0.984 . S
N1277 H1283 0.985 1_655 S
C1278 C1272 1.379 . S
C1278 C1275 1.363 . S
C1278 N1276 1.356 . S
C1279 C1273 1.363 . S
C1279 C1274 1.379 . S
C1279 N1277 1.356 . S
N1280 C1272 1.356 . S
N1280 H1286 0.984 . S
N1280 H1287 0.984 . S
N1281 C1274 1.356 . S
N1281 H1284 0.984 . S
N1281 H1285 0.985 1_655 S
H1282 N1277 0.984 . S
H1283 N1277 0.985 1_455 S
H1284 N1281 0.984 . S
H1285 N1281 0.985 1_455 S
H1286 N1280 0.984 . S
H1287 N1280 0.984 . S
H1288 N1276 0.984 . S
H1289 N1276 0.985 . S
C1290 C1291 1.363 . S
C1290 C1296 1.379 . S
C1290 N1298 1.356 . S
C1291 C1290 1.363 . S
C1291 C1297 1.363 . S
C1292 C1293 1.363 . S
C1292 C1297 1.379 . S
C1292 N1299 1.356 . S
C1293 C1292 1.363 . S
C1293 C1296 1.363 . S
N1294 C1296 1.356 . S
N1294 H1306 0.984 . S
N1294 H1307 0.985 . S
N1295 C1297 1.356 . S
N1295 H1300 0.984 . S
N1295 H1301 0.985 . S
C1296 C1290 1.379 . S
C1296 C1293 1.363 . S
C1296 N1294 1.356 . S
C1297 C1291 1.363 . S
C1297 C1292 1.379 . S
C1297 N1295 1.356 . S
N1298 C1290 1.356 . S
N1298 H1304 0.984 . S
N1298 H1305 0.984 . S
N1299 C1292 1.356 . S
N1299 H1302 0.984 . S
N1299 H1303 0.985 . S
H1300 N1295 0.984 . S
H1301 N1295 0.985 . S
H1302 N1299 0.984 . S
H1303 N1299 0.985 . S
H1304 N1298 0.984 . S
H1305 N1298 0.984 . S
H1306 N1294 0.984 . S
H1307 N1294 0.985 . S
C1308 C1309 1.363 . S
C1308 C1314 1.379 . S
C1308 N1316 1.356 . S
C1309 C1308 1.363 . S
C1309 C1315 1.363 . S
C1310 C1311 1.363 . S
C1310 C1315 1.379 . S
C1310 N1317 1.356 . S
C1311 C1310 1.363 . S
C1311 C1314 1.363 . S
N1312 C1314 1.356 . S
N1312 H1324 0.984 1_455 S
N1312 H1325 0.985 . S
N1313 C1315 1.356 . S
N1313 H1318 0.984 . S
N1313 H1319 0.985 . S
C1314 C1308 1.379 . S
C1314 C1311 1.363 . S
C1314 N1312 1.356 . S
C1315 C1309 1.363 . S
C1315 C1310 1.379 . S
C1315 N1313 1.356 . S
N1316 C1308 1.356 . S
N1316 H1322 0.984 1_455 S
N1316 H1323 0.984 . S
N1317 C1310 1.356 . S
N1317 H1320 0.984 . S
N1317 H1321 0.985 . S
H1318 N1313 0.984 . S
H1319 N1313 0.985 . S
H1320 N1317 0.984 . S
H1321 N1317 0.985 . S
H1322 N1316 0.984 1_655 S
H1323 N1316 0.984 . S
H1324 N1312 0.984 1_655 S
H1325 N1312 0.985 . S
C1326 C1327 1.363 . S
C1326 C1332 1.379 . S
C1326 N1334 1.356 . S
C1327 C1326 1.363 . S
C1327 C1333 1.363 . S
C1328 C1329 1.363 . S
C1328 C1333 1.379 . S
C1328 N1335 1.356 . S
C1329 C1328 1.363 . S
C1329 C1332 1.363 . S
N1330 C1332 1.356 . S
N1330 H1342 0.984 . S
N1330 H1343 0.985 . S
N1331 C1333 1.356 . S
N1331 H1336 0.984 . S
N1331 H1337 0.985 . S
C1332 C1326 1.379 . S
C1332 C1329 1.363 . S
C1332 N1330 1.356 . S
C1333 C1327 1.363 . S
C1333 C1328 1.379 . S
C1333 N1331 1.356 . S
N1334 C1326 1.356 . S
N1334 H1340 0.984 . S
N1334 H1341 0.984 . S
N1335 C1328 1.356 . S
N1335 H1338 0.984 . S
N1335 H1339 0.985 . S
H1336 N1331 0.984 . S
H1337 N1331 0.985 . S
H1338 N1335 0.984 . S
H1339 N1335 0.985 . S
H1340 N1334 0.984 . S
H1341 N1334 0.984 . S
H1342 N1330 0.984 . S
H1343 N1330 0.985 . S
C1344 C1345 1.363 1_554 S
C1344 C1350 1.379 . S
C1344 N1352 1.349 1_554 S
C1345 C1344 1.363 1_556 S
C1345 C1351 1.363 1_565 S
C1346 C1347 1.363 1_556 S
C1346 C1351 1.379 . S
C1346 N1353 1.349 1_556 S
C1347 C1346 1.363 1_554 S
C1347 C1350 1.363 1_545 S
N1348 C1350 1.356 1_545 S
N1348 H1360 0.984 1_545 S
N1348 H1361 0.985 . S
N1349 C1351 1.356 1_565 S
N1349 H1354 0.984 . S
N1349 H1355 0.985 1_565 S
C1350 C1344 1.379 . S
C1350 C1347 1.363 1_565 S
C1350 N1348 1.356 1_565 S
C1351 C1345 1.363 1_545 S
C1351 C1346 1.379 . S
C1351 N1349 1.356 1_545 S
N1352 C1344 1.349 1_556 S
N1352 H1358 0.948 1_556 S
N1352 H1359 1.031 . S
N1353 C1346 1.349 1_554 S
N1353 H1356 1.031 . S
N1353 H1357 0.948 1_554 S
H1354 N1349 0.984 . S
H1355 N1349 0.985 1_545 S
H1356 N1353 1.031 . S
H1357 N1353 0.948 1_556 S
H1358 N1352 0.948 1_554 S
H1359 N1352 1.031 . S
H1360 N1348 0.984 1_565 S
H1361 N1348 0.985 . S
C1362 C1363 1.363 1_556 S
C1362 C1368 1.379 . S
C1362 N1370 1.356 . S
C1363 C1362 1.363 1_554 S
C1363 C1369 1.363 . S
C1364 C1365 1.363 1_554 S
C1364 C1369 1.379 . S
C1364 N1371 1.356 . S
C1365 C1364 1.363 1_556 S
C1365 C1368 1.363 . S
N1366 C1368 1.356 . S
N1366 H1378 0.984 . S
N1366 H1379 0.985 . S
N1367 C1369 1.356 . S
N1367 H1372 0.984 . S
N1367 H1373 0.985 . S
C1368 C1362 1.379 . S
C1368 C1365 1.363 . S
C1368 N1366 1.356 . S
C1369 C1363 1.363 . S
C1369 C1364 1.379 . S
C1369 N1367 1.356 . S
N1370 C1362 1.356 . S
N1370 H1376 0.984 . S
N1370 H1377 0.984 1_556 S
N1371 C1364 1.356 . S
N1371 H1374 0.984 1_554 S
N1371 H1375 0.985 . S
H1372 N1367 0.984 . S
H1373 N1367 0.985 . S
H1374 N1371 0.984 1_556 S
H1375 N1371 0.985 . S
H1376 N1370 0.984 . S
H1377 N1370 0.984 1_554 S
H1378 N1366 0.984 . S
H1379 N1366 0.985 . S
C1380 C1381 1.363 . S
C1380 C1386 1.379 . S
C1380 N1388 1.356 . S
C1381 C1380 1.363 . S
C1381 C1387 1.363 . S
C1382 C1383 1.363 . S
C1382 C1387 1.379 . S
C1382 N1389 1.356 . S
C1383 C1382 1.363 . S
C1383 C1386 1.363 . S
N1384 C1386 1.356 . S
N1384 H1396 0.984 . S
N1384 H1397 0.985 . S
N1385 C1387 1.356 . S
N1385 H1390 0.984 . S
N1385 H1391 0.985 . S
C1386 C1380 1.379 . S
C1386 C1383 1.363 . S
C1386 N1384 1.356 . S
C1387 C1381 1.363 . S
C1387 C1382 1.379 . S
C1387 N1385 1.356 . S
N1388 C1380 1.356 . S
N1388 H1394 0.984 . S
N1388 H1395 0.984 . S
N1389 C1382 1.356 . S
N1389 H1392 0.984 . S
N1389 H1393 0.985 . S
H1390 N1385 0.984 . S
H1391 N1385 0.985 . S
H1392 N1389 0.984 . S
H1393 N1389 0.985 . S
H1394 N1388 0.984 . S
H1395 N1388 0.984 . S
H1396 N1384 0.984 . S
H1397 N1384 0.985 . S
C1398 C1399 1.363 . S
C1398 C1404 1.379 1_545 S
C1398 N1406 1.356 . S
C1399 C1398 1.363 . S
C1399 C1405 1.363 . S
C1400 C1401 1.363 . S
C1400 C1405 1.379 1_565 S
C1400 N1407 1.356 . S
C1401 C1400 1.363 . S
C1401 C1404 1.363 . S
N1402 C1404 1.356 . S
N1402 H1414 0.984 . S
N1402 H1415 0.985 . S
N1403 C1405 1.356 . S
N1403 H1408 0.984 . S
N1403 H1409 0.985 . S
C1404 C1398 1.379 1_565 S
C1404 C1401 1.363 . S
C1404 N1402 1.356 . S
C1405 C1399 1.363 . S
C1405 C1400 1.379 1_545 S
C1405 N1403 1.356 . S
N1406 C1398 1.356 . S
N1406 H1412 0.984 . S
N1406 H1413 0.984 . S
N1407 C1400 1.356 . S
N1407 H1410 0.984 . S
N1407 H1411 0.985 . S
H1408 N1403 0.984 . S
H1409 N1403 0.985 . S
H1410 N1407 0.984 . S
H1411 N1407 0.985 . S
H1412 N1406 0.984 . S
H1413 N1406 0.984 . S
H1414 N1402 0.984 . S
H1415 N1402 0.985 . S
C1416 C1417 1.363 . S
C1416 C1422 1.379 1_556 S
C1416 N1424 1.356 . S
C1417 C1416 1.363 . S
C1417 C1423 1.363 . S
C1418 C1419 1.363 . S
C1418 C1423 1.379 1_554 S
C1418 N1425 1.356 . S
C1419 C1418 1.363 . S
C1419 C1422 1.363 . S
N1420 C1422 1.356 . S
N1420 H1432 0.984 . S
N1420 H1433 0.985 . S
N1421 C1423 1.356 . S
N1421 H1426 0.984 . S
N1421 H1427 0.985 . S
C1422 C1416 1.379 1_554 S
C1422 C1419 1.363 . S
C1422 N1420 1.356 . S
C1423 C1417 1.363 . S
C1423 C1418 1.379 1_556 S
C1423 N1421 1.356 . S
N1424 C1416 1.356 . S
N1424 H1430 0.984 . S
N1424 H1431 0.984 . S
N1425 C1418 1.356 . S
N1425 H1428 0.984 . S
N1425 H1429 0.985 . S
H1426 N1421 0.984 . S
H1427 N1421 0.985 . S
H1428 N1425 0.984 . S
H1429 N1425 0.985 . S
H1430 N1424 0.984 . S
H1431 N1424 0.984 . S
H1432 N1420 0.984 . S
H1433 N1420 0.985 . S
C1434 C1435 1.363 . S
C1434 C1440 1.379 . S
C1434 N1442 1.356 . S
C1435 C1434 1.363 . S
C1435 C1441 1.363 . S
C1436 C1437 1.363 . S
C1436 C1441 1.379 . S
C1436 N1443 1.356 . S
C1437 C1436 1.363 . S
C1437 C1440 1.363 . S
N1438 C1440 1.356 . S
N1438 H1450 0.984 . S
N1438 H1451 0.985 . S
N1439 C1441 1.356 . S
N1439 H1444 0.984 . S
N1439 H1445 0.985 . S
C1440 C1434 1.379 . S
C1440 C1437 1.363 . S
C1440 N1438 1.356 . S
C1441 C1435 1.363 . S
C1441 C1436 1.379 . S
C1441 N1439 1.356 . S
N1442 C1434 1.356 . S
N1442 H1448 0.984 . S
N1442 H1449 0.984 . S
N1443 C1436 1.356 . S
N1443 H1446 0.984 . S
N1443 H1447 0.985 . S
H1444 N1439 0.984 . S
H1445 N1439 0.985 . S
H1446 N1443 0.984 . S
H1447 N1443 0.985 . S
H1448 N1442 0.984 . S
H1449 N1442 0.984 . S
H1450 N1438 0.984 . S
H1451 N1438 0.985 . S
C1452 C1453 1.363 1_565 S
C1452 C1458 1.379 . S
C1452 N1460 1.356 . S
C1453 C1452 1.363 1_545 S
C1453 C1459 1.363 . S
C1454 C1455 1.363 1_545 S
C1454 C1459 1.379 . S
C1454 N1461 1.356 . S
C1455 C1454 1.363 1_565 S
C1455 C1458 1.363 . S
N1456 C1458 1.356 . S
N1456 H1468 0.984 . S
N1456 H1469 0.985 . S
N1457 C1459 1.356 . S
N1457 H1462 0.984 . S
N1457 H1463 0.985 . S
C1458 C1452 1.379 . S
C1458 C1455 1.363 . S
C1458 N1456 1.356 . S
C1459 C1453 1.363 . S
C1459 C1454 1.379 . S
C1459 N1457 1.356 . S
N1460 C1452 1.356 . S
N1460 H1466 0.984 . S
N1460 H1467 0.984 1_565 S
N1461 C1454 1.356 . S
N1461 H1464 0.984 1_545 S
N1461 H1465 0.985 . S
H1462 N1457 0.984 . S
H1463 N1457 0.985 . S
H1464 N1461 0.984 1_565 S
H1465 N1461 0.985 . S
H1466 N1460 0.984 . S
H1467 N1460 0.984 1_545 S
H1468 N1456 0.984 . S
H1469 N1456 0.985 . S
C1470 C1471 1.363 . S
C1470 C1476 1.379 . S
C1470 N1478 1.356 . S
C1471 C1470 1.363 . S
C1471 C1477 1.363 . S
C1472 C1473 1.363 . S
C1472 C1477 1.379 . S
C1472 N1479 1.356 . S
C1473 C1472 1.363 . S
C1473 C1476 1.363 . S
N1474 C1476 1.356 . S
N1474 H1486 0.984 . S
N1474 H1487 0.985 . S
N1475 C1477 1.356 . S
N1475 H1480 0.984 . S
N1475 H1481 0.985 . S
C1476 C1470 1.379 . S
C1476 C1473 1.363 . S
C1476 N1474 1.356 . S
C1477 C1471 1.363 . S
C1477 C1472 1.379 . S
C1477 N1475 1.356 . S
N1478 C1470 1.356 . S
N1478 H1484 0.984 . S
N1478 H1485 0.984 . S
N1479 C1472 1.356 . S
N1479 H1482 0.984 . S
N1479 H1483 0.985 . S
H1480 N1475 0.984 . S
H1481 N1475 0.985 . S
H1482 N1479 0.984 . S
H1483 N1479 0.985 . S
H1484 N1478 0.984 . S
H1485 N1478 0.984 . S
H1486 N1474 0.984 . S
H1487 N1474 0.985 . S
C1488 C1489 1.363 . S
C1488 C1494 1.379 . S
C1488 N1496 1.356 . S
C1489 C1488 1.363 . S
C1489 C1495 1.363 . S
C1490 C1491 1.363 . S
C1490 C1495 1.379 . S
C1490 N1497 1.356 . S
C1491 C1490 1.363 . S
C1491 C1494 1.363 . S
N1492 C1494 1.356 . S
N1492 H1504 0.984 . S
N1492 H1505 0.985 . S
N1493 C1495 1.356 . S
N1493 H1498 0.984 . S
N1493 H1499 0.985 . S
C1494 C1488 1.379 . S
C1494 C1491 1.363 . S
C1494 N1492 1.356 . S
C1495 C1489 1.363 . S
C1495 C1490 1.379 . S
C1495 N1493 1.356 . S
N1496 C1488 1.356 . S
N1496 H1502 0.984 . S
N1496 H1503 0.984 . S
N1497 C1490 1.356 . S
N1497 H1500 0.984 . S
N1497 H1501 0.985 . S
H1498 N1493 0.984 . S
H1499 N1493 0.985 . S
H1500 N1497 0.984 . S
H1501 N1497 0.985 . S
H1502 N1496 0.984 . S
H1503 N1496 0.984 . S
H1504 N1492 0.984 . S
H1505 N1492 0.985 . S
C1506 C1507 1.363 . S
C1506 C1512 1.379 . S
C1506 N1514 1.356 . S
C1507 C1506 1.363 . S
C1507 C1513 1.363 . S
C1508 C1509 1.363 . S
C1508 C1513 1.379 . S
C1508 N1515 1.356 . S
C1509 C1508 1.363 . S
C1509 C1512 1.363 . S
N1510 C1512 1.356 . S
N1510 H1522 0.984 . S
N1510 H1523 0.985 . S
N1511 C1513 1.356 . S
N1511 H1516 0.984 . S
N1511 H1517 0.985 . S
C1512 C1506 1.379 . S
C1512 C1509 1.363 . S
C1512 N1510 1.356 . S
C1513 C1507 1.363 . S
C1513 C1508 1.379 . S
C1513 N1511 1.356 . S
N1514 C1506 1.356 . S
N1514 H1520 0.984 . S
N1514 H1521 0.984 . S
N1515 C1508 1.356 . S
N1515 H1518 0.984 . S
N1515 H1519 0.985 . S
H1516 N1511 0.984 . S
H1517 N1511 0.985 . S
H1518 N1515 0.984 . S
H1519 N1515 0.985 . S
H1520 N1514 0.984 . S
H1521 N1514 0.984 . S
H1522 N1510 0.984 . S
H1523 N1510 0.985 . S
C1524 C1525 1.363 . S
C1524 C1530 1.379 . S
C1524 N1532 1.356 . S
C1525 C1524 1.363 . S
C1525 C1531 1.363 . S
C1526 C1527 1.363 . S
C1526 C1531 1.379 . S
C1526 N1533 1.356 . S
C1527 C1526 1.363 . S
C1527 C1530 1.363 . S
N1528 C1530 1.356 . S
N1528 H1540 0.984 . S
N1528 H1541 0.985 . S
N1529 C1531 1.356 . S
N1529 H1534 0.984 . S
N1529 H1535 0.985 . S
C1530 C1524 1.379 . S
C1530 C1527 1.363 . S
C1530 N1528 1.356 . S
C1531 C1525 1.363 . S
C1531 C1526 1.379 . S
C1531 N1529 1.356 . S
N1532 C1524 1.356 . S
N1532 H1538 0.984 . S
N1532 H1539 0.984 . S
N1533 C1526 1.356 . S
N1533 H1536 0.984 . S
N1533 H1537 0.985 . S
H1534 N1529 0.984 . S
H1535 N1529 0.985 . S
H1536 N1533 0.984 . S
H1537 N1533 0.985 . S
H1538 N1532 0.984 . S
H1539 N1532 0.984 . S
H1540 N1528 0.984 . S
H1541 N1528 0.985 . S
C1542 C1543 1.363 . S
C1542 C1548 1.379 . S
C1542 N1550 1.356 . S
C1543 C1542 1.363 . S
C1543 C1549 1.363 . S
C1544 C1545 1.363 . S
C1544 C1549 1.379 . S
C1544 N1551 1.356 . S
C1545 C1544 1.363 . S
C1545 C1548 1.363 . S
N1546 C1548 1.356 . S
N1546 H1558 0.984 . S
N1546 H1559 0.985 . S
N1547 C1549 1.356 . S
N1547 H1552 0.984 . S
N1547 H1553 0.985 . S
C1548 C1542 1.379 . S
C1548 C1545 1.363 . S
C1548 N1546 1.356 . S
C1549 C1543 1.363 . S
C1549 C1544 1.379 . S
C1549 N1547 1.356 . S
N1550 C1542 1.356 . S
N1550 H1556 0.984 . S
N1550 H1557 0.984 . S
N1551 C1544 1.356 . S
N1551 H1554 0.984 . S
N1551 H1555 0.985 . S
H1552 N1547 0.984 . S
H1553 N1547 0.985 . S
H1554 N1551 0.984 . S
H1555 N1551 0.985 . S
H1556 N1550 0.984 . S
H1557 N1550 0.984 . S
H1558 N1546 0.984 . S
H1559 N1546 0.985 . S
C1560 C1561 1.363 1_645 S
C1560 C1566 1.379 . S
C1560 N1568 1.356 . S
C1561 C1560 1.363 1_465 S
C1561 C1567 1.363 . S
C1562 C1563 1.363 1_465 S
C1562 C1567 1.379 . S
C1562 N1569 1.356 . S
C1563 C1562 1.363 1_645 S
C1563 C1566 1.363 . S
N1564 C1566 1.356 . S
N1564 H1576 0.984 . S
N1564 H1577 0.985 . S
N1565 C1567 1.356 . S
N1565 H1570 0.984 . S
N1565 H1571 0.985 . S
C1566 C1560 1.379 . S
C1566 C1563 1.363 . S
C1566 N1564 1.356 . S
C1567 C1561 1.363 . S
C1567 C1562 1.379 . S
C1567 N1565 1.356 . S
N1568 C1560 1.356 . S
N1568 H1574 0.984 . S
N1568 H1575 0.984 1_645 S
N1569 C1562 1.356 . S
N1569 H1572 0.984 1_465 S
N1569 H1573 0.985 . S
H1570 N1565 0.984 . S
H1571 N1565 0.985 . S
H1572 N1569 0.984 1_645 S
H1573 N1569 0.985 . S
H1574 N1568 0.984 . S
H1575 N1568 0.984 1_465 S
H1576 N1564 0.984 . S
H1577 N1564 0.985 . S
C1578 C1579 1.363 1_455 S
C1578 C1584 1.379 . S
C1578 N1586 1.356 . S
C1579 C1578 1.363 1_655 S
C1579 C1585 1.363 . S
C1580 C1581 1.363 1_655 S
C1580 C1585 1.379 . S
C1580 N1587 1.356 . S
C1581 C1580 1.363 1_455 S
C1581 C1584 1.363 . S
N1582 C1584 1.356 . S
N1582 H1594 0.984 . S
N1582 H1595 0.985 . S
N1583 C1585 1.356 . S
N1583 H1588 0.984 . S
N1583 H1589 0.985 . S
C1584 C1578 1.379 . S
C1584 C1581 1.363 . S
C1584 N1582 1.356 . S
C1585 C1579 1.363 . S
C1585 C1580 1.379 . S
C1585 N1583 1.356 . S
N1586 C1578 1.356 . S
N1586 H1592 0.984 . S
N1586 H1593 0.984 . S
N1587 C1580 1.356 . S
N1587 H1590 0.984 . S
N1587 H1591 0.985 . S
H1588 N1583 0.984 . S
H1589 N1583 0.985 . S
H1590 N1587 0.984 . S
H1591 N1587 0.985 . S
H1592 N1586 0.984 . S
H1593 N1586 0.984 . S
H1594 N1582 0.984 . S
H1595 N1582 0.985 . S
C1596 C1597 1.363 1_655 S
C1596 C1602 1.379 . S
C1596 N1604 1.356 . S
C1597 C1596 1.363 1_455 S
C1597 C1603 1.363 . S
C1598 C1599 1.363 1_455 S
C1598 C1603 1.379 . S
C1598 N1605 1.356 . S
C1599 C1598 1.363 1_655 S
C1599 C1602 1.363 . S
N1600 C1602 1.356 . S
N1600 H1612 0.984 . S
N1600 H1613 0.985 . S
N1601 C1603 1.356 . S
N1601 H1606 0.984 . S
N1601 H1607 0.985 . S
C1602 C1596 1.379 . S
C1602 C1599 1.363 . S
C1602 N1600 1.356 . S
C1603 C1597 1.363 . S
C1603 C1598 1.379 . S
C1603 N1601 1.356 . S
N1604 C1596 1.356 . S
N1604 H1610 0.984 . S
N1604 H1611 0.984 . S
N1605 C1598 1.356 . S
N1605 H1608 0.984 . S
N1605 H1609 0.985 . S
H1606 N1601 0.984 . S
H1607 N1601 0.985 . S
H1608 N1605 0.984 . S
H1609 N1605 0.985 . S
H1610 N1604 0.984 . S
H1611 N1604 0.984 . S
H1612 N1600 0.984 . S
H1613 N1600 0.985 . S
C1614 C1615 1.363 . S
C1614 C1620 1.379 . S
C1614 N1622 1.356 . S
C1615 C1614 1.363 . S
C1615 C1621 1.363 1_456 S
C1616 C1617 1.363 . S
C1616 C1621 1.379 . S
C1616 N1623 1.356 . S
C1617 C1616 1.363 . S
C1617 C1620 1.363 1_654 S
N1618 C1620 1.355 . S
N1618 H1630 0.979 . S
N1618 H1631 0.991 1_556 S
N1619 C1621 1.355 . S
N1619 H1624 0.991 1_554 S
N1619 H1625 0.979 . S
C1620 C1614 1.379 . S
C1620 C1617 1.363 1_456 S
C1620 N1618 1.355 . S
C1621 C1615 1.363 1_654 S
C1621 C1616 1.379 . S
C1621 N1619 1.355 . S
N1622 C1614 1.356 . S
N1622 H1628 0.984 . S
N1622 H1629 0.984 . S
N1623 C1616 1.356 . S
N1623 H1626 0.984 . S
N1623 H1627 0.985 . S
H1624 N1619 0.991 1_556 S
H1625 N1619 0.979 . S
H1626 N1623 0.984 . S
H1627 N1623 0.985 . S
H1628 N1622 0.984 . S
H1629 N1622 0.984 . S
H1630 N1618 0.979 . S
H1631 N1618 0.991 1_554 S
C1632 C1633 1.363 . S
C1632 C1638 1.379 . S
C1632 N1640 1.356 . S
C1633 C1632 1.363 . S
C1633 C1639 1.363 . S
C1634 C1635 1.363 . S
C1634 C1639 1.379 . S
C1634 N1641 1.356 . S
C1635 C1634 1.363 . S
C1635 C1638 1.363 . S
N1636 C1638 1.356 . S
N1636 H1648 0.984 . S
N1636 H1649 0.985 . S
N1637 C1639 1.356 . S
N1637 H1642 0.984 . S
N1637 H1643 0.985 . S
C1638 C1632 1.379 . S
C1638 C1635 1.363 . S
C1638 N1636 1.356 . S
C1639 C1633 1.363 . S
C1639 C1634 1.379 . S
C1639 N1637 1.356 . S
N1640 C1632 1.356 . S
N1640 H1646 0.984 . S
N1640 H1647 0.984 . S
N1641 C1634 1.356 . S
N1641 H1644 0.984 . S
N1641 H1645 0.985 . S
H1642 N1637 0.984 . S
H1643 N1637 0.985 . S
H1644 N1641 0.984 . S
H1645 N1641 0.985 . S
H1646 N1640 0.984 . S
H1647 N1640 0.984 . S
H1648 N1636 0.984 . S
H1649 N1636 0.985 . S
C1650 C1651 1.363 . S
C1650 C1656 1.379 . S
C1650 N1658 1.356 . S
C1651 C1650 1.363 . S
C1651 C1657 1.363 . S
C1652 C1653 1.363 . S
C1652 C1657 1.379 . S
C1652 N1659 1.356 . S
C1653 C1652 1.363 . S
C1653 C1656 1.363 . S
N1654 C1656 1.356 . S
N1654 H1666 0.984 . S
N1654 H1667 0.985 . S
N1655 C1657 1.356 . S
N1655 H1660 0.984 . S
N1655 H1661 0.985 . S
C1656 C1650 1.379 . S
C1656 C1653 1.363 . S
C1656 N1654 1.356 . S
C1657 C1651 1.363 . S
C1657 C1652 1.379 . S
C1657 N1655 1.356 . S
N1658 C1650 1.356 . S
N1658 H1664 0.984 . S
N1658 H1665 0.984 . S
N1659 C1652 1.356 . S
N1659 H1662 0.984 . S
N1659 H1663 0.985 . S
H1660 N1655 0.984 . S
H1661 N1655 0.985 . S
H1662 N1659 0.984 . S
H1663 N1659 0.985 . S
H1664 N1658 0.984 . S
H1665 N1658 0.984 . S
H1666 N1654 0.984 . S
H1667 N1654 0.985 . S
C1668 C1669 1.363 . S
C1668 C1674 1.379 . S
C1668 N1676 1.356 . S
C1669 C1668 1.363 . S
C1669 C1675 1.363 . S
C1670 C1671 1.363 . S
C1670 C1675 1.379 . S
C1670 N1677 1.356 . S
C1671 C1670 1.363 . S
C1671 C1674 1.363 . S
N1672 C1674 1.356 . S
N1672 H1684 0.984 . S
N1672 H1685 0.985 . S
N1673 C1675 1.356 . S
N1673 H1678 0.984 . S
N1673 H1679 0.985 . S
C1674 C1668 1.379 . S
C1674 C1671 1.363 . S
C1674 N1672 1.356 . S
C1675 C1669 1.363 . S
C1675 C1670 1.379 . S
C1675 N1673 1.356 . S
N1676 C1668 1.356 . S
N1676 H1682 0.984 . S
N1676 H1683 0.984 . S
N1677 C1670 1.356 . S
N1677 H1680 0.984 . S
N1677 H1681 0.985 . S
H1678 N1673 0.984 . S
H1679 N1673 0.985 . S
H1680 N1677 0.984 . S
H1681 N1677 0.985 . S
H1682 N1676 0.984 . S
H1683 N1676 0.984 . S
H1684 N1672 0.984 . S
H1685 N1672 0.985 . S
C1686 C1687 1.363 . S
C1686 C1692 1.379 . S
C1686 N1694 1.356 . S
C1687 C1686 1.363 . S
C1687 C1693 1.363 . S
C1688 C1689 1.363 . S
C1688 C1693 1.379 . S
C1688 N1695 1.356 . S
C1689 C1688 1.363 . S
C1689 C1692 1.363 . S
N1690 C1692 1.356 . S
N1690 H1702 0.984 . S
N1690 H1703 0.985 . S
N1691 C1693 1.356 . S
N1691 H1696 0.984 . S
N1691 H1697 0.985 . S
C1692 C1686 1.379 . S
C1692 C1689 1.363 . S
C1692 N1690 1.356 . S
C1693 C1687 1.363 . S
C1693 C1688 1.379 . S
C1693 N1691 1.356 . S
N1694 C1686 1.356 . S
N1694 H1700 0.984 . S
N1694 H1701 0.984 . S
N1695 C1688 1.356 . S
N1695 H1698 0.984 . S
N1695 H1699 0.985 . S
H1696 N1691 0.984 . S
H1697 N1691 0.985 . S
H1698 N1695 0.984 . S
H1699 N1695 0.985 . S
H1700 N1694 0.984 . S
H1701 N1694 0.984 . S
H1702 N1690 0.984 . S
H1703 N1690 0.985 . S
C1704 C1705 1.363 . S
C1704 C1710 1.379 . S
C1704 N1712 1.356 . S
C1705 C1704 1.363 . S
C1705 C1711 1.363 . S
C1706 C1707 1.363 . S
C1706 C1711 1.379 . S
C1706 N1713 1.356 . S
C1707 C1706 1.363 . S
C1707 C1710 1.363 . S
N1708 C1710 1.356 . S
N1708 H1720 0.984 . S
N1708 H1721 0.985 . S
N1709 C1711 1.356 . S
N1709 H1714 0.984 . S
N1709 H1715 0.985 . S
C1710 C1704 1.379 . S
C1710 C1707 1.363 . S
C1710 N1708 1.356 . S
C1711 C1705 1.363 . S
C1711 C1706 1.379 . S
C1711 N1709 1.356 . S
N1712 C1704 1.356 . S
N1712 H1718 0.984 . S
N1712 H1719 0.984 . S
N1713 C1706 1.356 . S
N1713 H1716 0.984 . S
N1713 H1717 0.985 . S
H1714 N1709 0.984 . S
H1715 N1709 0.985 . S
H1716 N1713 0.984 . S
H1717 N1713 0.985 . S
H1718 N1712 0.984 . S
H1719 N1712 0.984 . S
H1720 N1708 0.984 . S
H1721 N1708 0.985 . S
C1722 C1723 1.363 . S
C1722 C1728 1.379 . S
C1722 N1730 1.356 . S
C1723 C1722 1.363 . S
C1723 C1729 1.363 . S
C1724 C1725 1.363 . S
C1724 C1729 1.379 . S
C1724 N1731 1.356 . S
C1725 C1724 1.363 . S
C1725 C1728 1.363 . S
N1726 C1728 1.356 . S
N1726 H1738 0.984 . S
N1726 H1739 0.985 . S
N1727 C1729 1.356 . S
N1727 H1732 0.984 . S
N1727 H1733 0.985 . S
C1728 C1722 1.379 . S
C1728 C1725 1.363 . S
C1728 N1726 1.356 . S
C1729 C1723 1.363 . S
C1729 C1724 1.379 . S
C1729 N1727 1.356 . S
N1730 C1722 1.356 . S
N1730 H1736 0.984 . S
N1730 H1737 0.984 . S
N1731 C1724 1.356 . S
N1731 H1734 0.984 . S
N1731 H1735 0.985 . S
H1732 N1727 0.984 . S
H1733 N1727 0.985 . S
H1734 N1731 0.984 . S
H1735 N1731 0.985 . S
H1736 N1730 0.984 . S
H1737 N1730 0.984 . S
H1738 N1726 0.984 . S
H1739 N1726 0.985 . S
C1740 C1741 1.363 . S
C1740 C1746 1.379 . S
C1740 N1748 1.356 . S
C1741 C1740 1.363 . S
C1741 C1747 1.363 . S
C1742 C1743 1.363 . S
C1742 C1747 1.379 . S
C1742 N1749 1.356 . S
C1743 C1742 1.363 . S
C1743 C1746 1.363 . S
N1744 C1746 1.356 . S
N1744 H1756 0.984 . S
N1744 H1757 0.985 . S
N1745 C1747 1.356 . S
N1745 H1750 0.984 . S
N1745 H1751 0.985 . S
C1746 C1740 1.379 . S
C1746 C1743 1.363 . S
C1746 N1744 1.356 . S
C1747 C1741 1.363 . S
C1747 C1742 1.379 . S
C1747 N1745 1.356 . S
N1748 C1740 1.356 . S
N1748 H1754 0.984 . S
N1748 H1755 0.984 . S
N1749 C1742 1.356 . S
N1749 H1752 0.984 . S
N1749 H1753 0.985 . S
H1750 N1745 0.984 . S
H1751 N1745 0.985 . S
H1752 N1749 0.984 . S
H1753 N1749 0.985 . S
H1754 N1748 0.984 . S
H1755 N1748 0.984 . S
H1756 N1744 0.984 . S
H1757 N1744 0.985 . S
C1758 C1759 1.363 . S
C1758 C1764 1.379 . S
C1758 N1766 1.356 . S
C1759 C1758 1.363 . S
C1759 C1765 1.363 . S
C1760 C1761 1.363 . S
C1760 C1765 1.379 . S
C1760 N1767 1.356 . S
C1761 C1760 1.363 . S
C1761 C1764 1.363 . S
N1762 C1764 1.356 . S
N1762 H1774 0.984 . S
N1762 H1775 0.985 . S
N1763 C1765 1.356 . S
N1763 H1768 0.984 . S
N1763 H1769 0.985 . S
C1764 C1758 1.379 . S
C1764 C1761 1.363 . S
C1764 N1762 1.356 . S
C1765 C1759 1.363 . S
C1765 C1760 1.379 . S
C1765 N1763 1.356 . S
N1766 C1758 1.356 . S
N1766 H1772 0.984 . S
N1766 H1773 0.984 . S
N1767 C1760 1.356 . S
N1767 H1770 0.984 . S
N1767 H1771 0.985 . S
H1768 N1763 0.984 . S
H1769 N1763 0.985 . S
H1770 N1767 0.984 . S
H1771 N1767 0.985 . S
H1772 N1766 0.984 . S
H1773 N1766 0.984 . S
H1774 N1762 0.984 . S
H1775 N1762 0.985 . S
C1776 C1777 1.363 . S
C1776 C1782 1.379 . S
C1776 N1784 1.356 . S
C1777 C1776 1.363 . S
C1777 C1783 1.363 . S
C1778 C1779 1.363 . S
C1778 C1783 1.379 . S
C1778 N1785 1.356 . S
C1779 C1778 1.363 . S
C1779 C1782 1.363 . S
N1780 C1782 1.356 . S
N1780 H1792 0.984 . S
N1780 H1793 0.985 . S
N1781 C1783 1.356 . S
N1781 H1786 0.984 . S
N1781 H1787 0.985 . S
C1782 C1776 1.379 . S
C1782 C1779 1.363 . S
C1782 N1780 1.356 . S
C1783 C1777 1.363 . S
C1783 C1778 1.379 . S
C1783 N1781 1.356 . S
N1784 C1776 1.356 . S
N1784 H1790 0.984 . S
N1784 H1791 0.984 . S
N1785 C1778 1.356 . S
N1785 H1788 0.984 1_545 S
N1785 H1789 0.985 . S
H1786 N1781 0.984 . S
H1787 N1781 0.985 . S
H1788 N1785 0.984 1_565 S
H1789 N1785 0.985 . S
H1790 N1784 0.984 . S
H1791 N1784 0.984 . S
H1792 N1780 0.984 . S
H1793 N1780 0.985 . S
C1794 C1795 1.363 1_545 S
C1794 C1800 1.379 . S
C1794 N1802 1.356 1_545 S
C1795 C1794 1.363 1_565 S
C1795 C1801 1.366 . S
C1796 C1797 1.363 . S
C1796 C1801 1.369 1_545 S
C1796 N1803 1.356 . S
C1797 C1796 1.363 . S
C1797 C1800 1.363 . S
N1798 C1800 1.356 . S
N1798 H1810 0.984 . S
N1798 H1811 0.985 . S
N1799 C1801 1.365 . S
N1799 H1804 0.984 . S
N1799 H1805 0.985 . S
C1800 C1794 1.379 . S
C1800 C1797 1.363 . S
C1800 N1798 1.356 . S
C1801 C1795 1.366 . S
C1801 C1796 1.369 1_565 S
C1801 N1799 1.365 . S
N1802 C1794 1.356 1_565 S
N1802 H1808 0.984 1_565 S
N1802 H1809 0.984 . S
N1803 C1796 1.356 . S
N1803 H1806 0.984 . S
N1803 H1807 0.985 . S
H1804 N1799 0.984 . S
H1805 N1799 0.985 . S
H1806 N1803 0.984 . S
H1807 N1803 0.985 . S
H1808 N1802 0.984 1_545 S
H1809 N1802 0.984 . S
H1810 N1798 0.984 . S
H1811 N1798 0.985 . S
C1812 C1813 1.361 1_545 S
C1812 C1818 1.385 . S
C1812 N1820 1.351 1_545 S
C1813 C1812 1.361 1_565 S
C1813 C1819 1.363 1_565 S
C1814 C1815 1.363 . S
C1814 C1819 1.379 . S
C1814 N1821 1.356 . S
C1815 C1814 1.363 . S
C1815 C1818 1.363 . S
N1816 C1818 1.356 . S
N1816 H1828 0.984 . S
N1816 H1829 0.985 . S
N1817 C1819 1.356 1_565 S
N1817 H1822 0.984 . S
N1817 H1823 0.985 1_565 S
C1818 C1812 1.385 . S
C1818 C1815 1.363 . S
C1818 N1816 1.356 . S
C1819 C1813 1.363 1_545 S
C1819 C1814 1.379 . S
C1819 N1817 1.356 1_545 S
N1820 C1812 1.351 1_565 S
N1820 H1826 0.984 . S
N1820 H1827 0.984 . S
N1821 C1814 1.356 . S
N1821 H1824 0.984 . S
N1821 H1825 0.985 . S
H1822 N1817 0.984 . S
H1823 N1817 0.985 1_545 S
H1824 N1821 0.984 . S
H1825 N1821 0.985 . S
H1826 N1820 0.984 . S
H1827 N1820 0.984 . S
H1828 N1816 0.984 . S
H1829 N1816 0.985 . S
C1830 C1831 1.363 . S
C1830 C1836 1.379 . S
C1830 N1838 1.356 . S
C1831 C1830 1.363 . S
C1831 C1837 1.363 . S
C1832 C1833 1.363 . S
C1832 C1837 1.379 . S
C1832 N1839 1.356 . S
C1833 C1832 1.363 . S
C1833 C1836 1.363 . S
N1834 C1836 1.356 . S
N1834 H1846 0.984 . S
N1834 H1847 0.985 . S
N1835 C1837 1.356 . S
N1835 H1840 0.984 . S
N1835 H1841 0.985 . S
C1836 C1830 1.379 . S
C1836 C1833 1.363 . S
C1836 N1834 1.356 . S
C1837 C1831 1.363 . S
C1837 C1832 1.379 . S
C1837 N1835 1.356 . S
N1838 C1830 1.356 . S
N1838 H1844 0.984 . S
N1838 H1845 0.984 1_545 S
N1839 C1832 1.356 . S
N1839 H1842 0.984 . S
N1839 H1843 0.985 . S
H1840 N1835 0.984 . S
H1841 N1835 0.985 . S
H1842 N1839 0.984 . S
H1843 N1839 0.985 . S
H1844 N1838 0.984 . S
H1845 N1838 0.984 1_565 S
H1846 N1834 0.984 . S
H1847 N1834 0.985 . S
C1848 C1849 1.363 . S
C1848 C1854 1.379 . S
C1848 N1856 1.356 . S
C1849 C1848 1.363 . S
C1849 C1855 1.363 . S
C1850 C1851 1.363 . S
C1850 C1855 1.379 . S
C1850 N1857 1.356 . S
C1851 C1850 1.363 . S
C1851 C1854 1.363 . S
N1852 C1854 1.356 . S
N1852 H1864 0.984 . S
N1852 H1865 0.985 . S
N1853 C1855 1.356 . S
N1853 H1858 0.984 . S
N1853 H1859 0.985 . S
C1854 C1848 1.379 . S
C1854 C1851 1.363 . S
C1854 N1852 1.356 . S
C1855 C1849 1.363 . S
C1855 C1850 1.379 . S
C1855 N1853 1.356 . S
N1856 C1848 1.356 . S
N1856 H1862 0.984 . S
N1856 H1863 0.984 . S
N1857 C1850 1.356 . S
N1857 H1860 0.984 1_565 S
N1857 H1861 0.985 . S
H1858 N1853 0.984 . S
H1859 N1853 0.985 . S
H1860 N1857 0.984 1_545 S
H1861 N1857 0.985 . S
H1862 N1856 0.984 . S
H1863 N1856 0.984 . S
H1864 N1852 0.984 . S
H1865 N1852 0.985 . S
C1866 C1867 1.363 1_565 S
C1866 C1872 1.379 . S
C1866 N1874 1.356 1_565 S
C1867 C1866 1.363 1_545 S
C1867 C1873 1.363 1_545 S
C1868 C1869 1.363 . S
C1868 C1873 1.379 . S
C1868 N1875 1.356 . S
C1869 C1868 1.363 . S
C1869 C1872 1.363 . S
N1870 C1872 1.356 . S
N1870 H1882 0.984 . S
N1870 H1883 0.985 . S
N1871 C1873 1.356 1_545 S
N1871 H1876 0.984 . S
N1871 H1877 0.985 1_545 S
C1872 C1866 1.379 . S
C1872 C1869 1.363 . S
C1872 N1870 1.356 . S
C1873 C1867 1.363 1_565 S
C1873 C1868 1.379 . S
C1873 N1871 1.356 1_565 S
N1874 C1866 1.356 1_545 S
N1874 H1880 0.984 . S
N1874 H1881 0.984 . S
N1875 C1868 1.356 . S
N1875 H1878 0.984 . S
N1875 H1879 0.985 . S
H1876 N1871 0.984 . S
H1877 N1871 0.985 1_565 S
H1878 N1875 0.984 . S
H1879 N1875 0.985 . S
H1880 N1874 0.984 . S
H1881 N1874 0.984 . S
H1882 N1870 0.984 . S
H1883 N1870 0.985 . S
C1884 C1885 1.363 1_565 S
C1884 C1890 1.379 . S
C1884 N1892 1.356 1_565 S
C1885 C1884 1.363 1_545 S
C1885 C1891 1.363 1_545 S
C1886 C1887 1.363 . S
C1886 C1891 1.379 . S
C1886 N1893 1.356 . S
C1887 C1886 1.363 . S
C1887 C1890 1.363 . S
N1888 C1890 1.356 . S
N1888 H1900 0.984 . S
N1888 H1901 0.985 . S
N1889 C1891 1.356 1_545 S
N1889 H1894 0.984 . S
N1889 H1895 0.985 . S
C1890 C1884 1.379 . S
C1890 C1887 1.363 . S
C1890 N1888 1.356 . S
C1891 C1885 1.363 1_565 S
C1891 C1886 1.379 . S
C1891 N1889 1.356 1_565 S
N1892 C1884 1.356 1_545 S
N1892 H1898 0.984 1_545 S
N1892 H1899 0.984 . S
N1893 C1886 1.356 . S
N1893 H1896 0.984 . S
N1893 H1897 0.985 . S
H1894 N1889 0.984 . S
H1895 N1889 0.985 . S
H1896 N1893 0.984 . S
H1897 N1893 0.985 . S
H1898 N1892 0.984 1_565 S
H1899 N1892 0.984 . S
H1900 N1888 0.984 . S
H1901 N1888 0.985 . S
C1902 C1903 1.363 . S
C1902 C1908 1.379 . S
C1902 N1910 1.356 . S
C1903 C1902 1.363 . S
C1903 C1909 1.363 . S
C1904 C1905 1.363 . S
C1904 C1909 1.379 . S
C1904 N1911 1.356 . S
C1905 C1904 1.363 . S
C1905 C1908 1.363 . S
N1906 C1908 1.356 . S
N1906 H1918 0.984 . S
N1906 H1919 0.985 . S
N1907 C1909 1.356 . S
N1907 H1912 0.984 . S
N1907 H1913 0.985 . S
C1908 C1902 1.379 . S
C1908 C1905 1.363 . S
C1908 N1906 1.356 . S
C1909 C1903 1.363 . S
C1909 C1904 1.379 . S
C1909 N1907 1.356 . S
N1910 C1902 1.356 . S
N1910 H1916 0.984 . S
N1910 H1917 0.984 . S
N1911 C1904 1.356 . S
N1911 H1914 0.984 1_565 S
N1911 H1915 0.985 . S
H1912 N1907 0.984 . S
H1913 N1907 0.985 . S
H1914 N1911 0.984 1_545 S
H1915 N1911 0.985 . S
H1916 N1910 0.984 . S
H1917 N1910 0.984 . S
H1918 N1906 0.984 . S
H1919 N1906 0.985 . S
C1920 C1921 1.363 . S
C1920 C1926 1.379 . S
C1920 N1928 1.356 . S
C1921 C1920 1.363 . S
C1921 C1927 1.363 . S
C1922 C1923 1.363 . S
C1922 C1927 1.379 . S
C1922 N1929 1.356 . S
C1923 C1922 1.363 . S
C1923 C1926 1.363 . S
N1924 C1926 1.356 . S
N1924 H1936 0.984 . S
N1924 H1937 0.985 . S
N1925 C1927 1.356 . S
N1925 H1930 0.984 . S
N1925 H1931 0.985 . S
C1926 C1920 1.379 . S
C1926 C1923 1.363 . S
C1926 N1924 1.356 . S
C1927 C1921 1.363 . S
C1927 C1922 1.379 . S
C1927 N1925 1.356 . S
N1928 C1920 1.356 . S
N1928 H1934 0.984 . S
N1928 H1935 0.984 . S
N1929 C1922 1.356 . S
N1929 H1932 0.984 . S
N1929 H1933 0.985 . S
H1930 N1925 0.984 . S
H1931 N1925 0.985 . S
H1932 N1929 0.984 . S
H1933 N1929 0.985 . S
H1934 N1928 0.984 . S
H1935 N1928 0.984 . S
H1936 N1924 0.984 . S
H1937 N1924 0.985 . S
C1938 C1939 1.363 . S
C1938 C1944 1.379 . S
C1938 N1946 1.356 . S
C1939 C1938 1.363 . S
C1939 C1945 1.363 . S
C1940 C1941 1.363 . S
C1940 C1945 1.379 . S
C1940 N1947 1.356 . S
C1941 C1940 1.363 . S
C1941 C1944 1.363 . S
N1942 C1944 1.356 . S
N1942 H1954 0.984 . S
N1942 H1955 0.985 . S
N1943 C1945 1.356 . S
N1943 H1948 0.984 . S
N1943 H1949 0.985 . S
C1944 C1938 1.379 . S
C1944 C1941 1.363 . S
C1944 N1942 1.356 . S
C1945 C1939 1.363 . S
C1945 C1940 1.379 . S
C1945 N1943 1.356 . S
N1946 C1938 1.356 . S
N1946 H1952 0.984 . S
N1946 H1953 0.984 . S
N1947 C1940 1.356 . S
N1947 H1950 0.984 . S
N1947 H1951 0.985 . S
H1948 N1943 0.984 . S
H1949 N1943 0.985 . S
H1950 N1947 0.984 . S
H1951 N1947 0.985 . S
H1952 N1946 0.984 . S
H1953 N1946 0.984 . S
H1954 N1942 0.984 . S
H1955 N1942 0.985 . S
C1956 C1957 1.363 . S
C1956 C1962 1.379 . S
C1956 N1964 1.356 . S
C1957 C1956 1.363 . S
C1957 C1963 1.363 . S
C1958 C1959 1.363 . S
C1958 C1963 1.379 . S
C1958 N1965 1.356 . S
C1959 C1958 1.363 . S
C1959 C1962 1.363 . S
N1960 C1962 1.356 . S
N1960 H1972 0.984 . S
N1960 H1973 0.985 . S
N1961 C1963 1.356 . S
N1961 H1966 0.984 . S
N1961 H1967 0.985 . S
C1962 C1956 1.379 . S
C1962 C1959 1.363 . S
C1962 N1960 1.356 . S
C1963 C1957 1.363 . S
C1963 C1958 1.379 . S
C1963 N1961 1.356 . S
N1964 C1956 1.356 . S
N1964 H1970 0.984 . S
N1964 H1971 0.984 . S
N1965 C1958 1.356 . S
N1965 H1968 0.984 . S
N1965 H1969 0.985 . S
H1966 N1961 0.984 . S
H1967 N1961 0.985 . S
H1968 N1965 0.984 . S
H1969 N1965 0.985 . S
H1970 N1964 0.984 . S
H1971 N1964 0.984 . S
H1972 N1960 0.984 . S
H1973 N1960 0.985 . S
C1974 C1975 1.363 . S
C1974 C1980 1.379 . S
C1974 N1982 1.356 . S
C1975 C1974 1.363 . S
C1975 C1981 1.363 . S
C1976 C1977 1.363 . S
C1976 C1981 1.379 . S
C1976 N1983 1.356 . S
C1977 C1976 1.363 . S
C1977 C1980 1.363 . S
N1978 C1980 1.356 . S
N1978 H1990 0.984 . S
N1978 H1991 0.985 . S
N1979 C1981 1.356 . S
N1979 H1984 0.984 . S
N1979 H1985 0.985 . S
C1980 C1974 1.379 . S
C1980 C1977 1.363 . S
C1980 N1978 1.356 . S
C1981 C1975 1.363 . S
C1981 C1976 1.379 . S
C1981 N1979 1.356 . S
N1982 C1974 1.356 . S
N1982 H1988 0.984 . S
N1982 H1989 0.984 . S
N1983 C1976 1.356 . S
N1983 H1986 0.984 . S
N1983 H1987 0.985 . S
H1984 N1979 0.984 . S
H1985 N1979 0.985 . S
H1986 N1983 0.984 . S
H1987 N1983 0.985 . S
H1988 N1982 0.984 . S
H1989 N1982 0.984 . S
H1990 N1978 0.984 . S
H1991 N1978 0.985 . S
C1992 C1993 1.363 . S
C1992 C1998 1.379 . S
C1992 N2000 1.356 . S
C1993 C1992 1.363 . S
C1993 C1999 1.363 . S
C1994 C1995 1.363 . S
C1994 C1999 1.379 . S
C1994 N2001 1.356 . S
C1995 C1994 1.363 . S
C1995 C1998 1.363 . S
N1996 C1998 1.356 . S
N1996 H2008 0.984 . S
N1996 H2009 0.985 . S
N1997 C1999 1.356 . S
N1997 H2002 0.984 . S
N1997 H2003 0.985 . S
C1998 C1992 1.379 . S
C1998 C1995 1.363 . S
C1998 N1996 1.356 . S
C1999 C1993 1.363 . S
C1999 C1994 1.379 . S
C1999 N1997 1.356 . S
N2000 C1992 1.356 . S
N2000 H2006 0.984 . S
N2000 H2007 0.984 . S
N2001 C1994 1.356 . S
N2001 H2004 0.984 . S
N2001 H2005 0.985 . S
H2002 N1997 0.984 . S
H2003 N1997 0.985 . S
H2004 N2001 0.984 . S
H2005 N2001 0.985 . S
H2006 N2000 0.984 . S
H2007 N2000 0.984 . S
H2008 N1996 0.984 . S
H2009 N1996 0.985 . S
C2010 C2011 1.363 . S
C2010 C2016 1.379 . S
C2010 N2018 1.356 . S
C2011 C2010 1.363 . S
C2011 C2017 1.363 . S
C2012 C2013 1.363 . S
C2012 C2017 1.379 . S
C2012 N2019 1.356 . S
C2013 C2012 1.363 . S
C2013 C2016 1.363 . S
N2014 C2016 1.356 . S
N2014 H2026 0.984 . S
N2014 H2027 0.985 . S
N2015 C2017 1.356 . S
N2015 H2020 0.984 . S
N2015 H2021 0.985 . S
C2016 C2010 1.379 . S
C2016 C2013 1.363 . S
C2016 N2014 1.356 . S
C2017 C2011 1.363 . S
C2017 C2012 1.379 . S
C2017 N2015 1.356 . S
N2018 C2010 1.356 . S
N2018 H2024 0.984 . S
N2018 H2025 0.984 . S
N2019 C2012 1.356 . S
N2019 H2022 0.984 . S
N2019 H2023 0.985 . S
H2020 N2015 0.984 . S
H2021 N2015 0.985 . S
H2022 N2019 0.984 . S
H2023 N2019 0.985 . S
H2024 N2018 0.984 . S
H2025 N2018 0.984 . S
H2026 N2014 0.984 . S
H2027 N2014 0.985 . S
C2028 C2029 1.363 . S
C2028 C2034 1.379 . S
C2028 N2036 1.356 . S
C2029 C2028 1.363 . S
C2029 C2035 1.363 . S
C2030 C2031 1.363 . S
C2030 C2035 1.379 . S
C2030 N2037 1.356 . S
C2031 C2030 1.363 . S
C2031 C2034 1.363 . S
N2032 C2034 1.356 . S
N2032 H2044 0.984 . S
N2032 H2045 0.985 . S
N2033 C2035 1.356 . S
N2033 H2038 0.984 . S
N2033 H2039 0.985 . S
C2034 C2028 1.379 . S
C2034 C2031 1.363 . S
C2034 N2032 1.356 . S
C2035 C2029 1.363 . S
C2035 C2030 1.379 . S
C2035 N2033 1.356 . S
N2036 C2028 1.356 . S
N2036 H2042 0.984 . S
N2036 H2043 0.984 . S
N2037 C2030 1.356 . S
N2037 H2040 0.984 . S
N2037 H2041 0.985 . S
H2038 N2033 0.984 . S
H2039 N2033 0.985 . S
H2040 N2037 0.984 . S
H2041 N2037 0.985 . S
H2042 N2036 0.984 . S
H2043 N2036 0.984 . S
H2044 N2032 0.984 . S
H2045 N2032 0.985 . S
C2046 C2047 1.363 . S
C2046 C2052 1.379 . S
C2046 N2054 1.356 . S
C2047 C2046 1.363 . S
C2047 C2053 1.363 . S
C2048 C2049 1.363 . S
C2048 C2053 1.379 . S
C2048 N2055 1.356 . S
C2049 C2048 1.363 . S
C2049 C2052 1.363 . S
N2050 C2052 1.356 . S
N2050 H2062 0.984 . S
N2050 H2063 0.985 . S
N2051 C2053 1.356 . S
N2051 H2056 0.984 . S
N2051 H2057 0.985 . S
C2052 C2046 1.379 . S
C2052 C2049 1.363 . S
C2052 N2050 1.356 . S
C2053 C2047 1.363 . S
C2053 C2048 1.379 . S
C2053 N2051 1.356 . S
N2054 C2046 1.356 . S
N2054 H2060 0.984 . S
N2054 H2061 0.984 . S
N2055 C2048 1.356 . S
N2055 H2058 0.984 . S
N2055 H2059 0.985 . S
H2056 N2051 0.984 . S
H2057 N2051 0.985 . S
H2058 N2055 0.984 . S
H2059 N2055 0.985 . S
H2060 N2054 0.984 . S
H2061 N2054 0.984 . S
H2062 N2050 0.984 . S
H2063 N2050 0.985 . S
C2064 C2065 1.363 . S
C2064 C2070 1.379 . S
C2064 N2072 1.356 . S
C2065 C2064 1.363 . S
C2065 C2071 1.363 . S
C2066 C2067 1.363 . S
C2066 C2071 1.379 . S
C2066 N2073 1.356 . S
C2067 C2066 1.363 . S
C2067 C2070 1.363 . S
N2068 C2070 1.356 . S
N2068 H2080 0.984 . S
N2068 H2081 0.985 . S
N2069 C2071 1.356 . S
N2069 H2074 0.984 . S
N2069 H2075 0.985 . S
C2070 C2064 1.379 . S
C2070 C2067 1.363 . S
C2070 N2068 1.356 . S
C2071 C2065 1.363 . S
C2071 C2066 1.379 . S
C2071 N2069 1.356 . S
N2072 C2064 1.356 . S
N2072 H2078 0.984 . S
N2072 H2079 0.984 1_545 S
N2073 C2066 1.356 . S
N2073 H2076 0.984 . S
N2073 H2077 0.985 . S
H2074 N2069 0.984 . S
H2075 N2069 0.985 . S
H2076 N2073 0.984 . S
H2077 N2073 0.985 . S
H2078 N2072 0.984 . S
H2079 N2072 0.984 1_565 S
H2080 N2068 0.984 . S
H2081 N2068 0.985 . S
C2082 C2083 1.363 1_545 S
C2082 C2088 1.379 . S
C2082 N2090 1.356 1_545 S
C2083 C2082 1.363 1_565 S
C2083 C2089 1.363 1_565 S
C2084 C2085 1.363 . S
C2084 C2089 1.379 . S
C2084 N2091 1.356 . S
C2085 C2084 1.363 . S
C2085 C2088 1.363 . S
N2086 C2088 1.356 . S
N2086 H2098 0.984 . S
N2086 H2099 0.985 . S
N2087 C2089 1.356 1_565 S
N2087 H2092 0.984 . S
N2087 H2093 0.985 . S
C2088 C2082 1.379 . S
C2088 C2085 1.363 . S
C2088 N2086 1.356 . S
C2089 C2083 1.363 1_545 S
C2089 C2084 1.379 . S
C2089 N2087 1.356 1_545 S
N2090 C2082 1.356 1_565 S
N2090 H2096 0.984 1_565 S
N2090 H2097 0.984 . S
N2091 C2084 1.356 . S
N2091 H2094 0.984 . S
N2091 H2095 0.985 . S
H2092 N2087 0.984 . S
H2093 N2087 0.985 . S
H2094 N2091 0.984 . S
H2095 N2091 0.985 . S
H2096 N2090 0.984 1_545 S
H2097 N2090 0.984 . S
H2098 N2086 0.984 . S
H2099 N2086 0.985 . S
C2100 C2101 1.362 1_545 S
C2100 C2106 1.381 . S
C2100 N2108 1.354 1_545 S
C2101 C2100 1.362 1_565 S
C2101 C2107 1.363 1_565 S
C2102 C2103 1.363 . S
C2102 C2107 1.379 . S
C2102 N2109 1.356 . S
C2103 C2102 1.363 . S
C2103 C2106 1.363 . S
N2104 C2106 1.356 . S
N2104 H2116 0.984 . S
N2104 H2117 0.985 . S
N2105 C2107 1.356 1_565 S
N2105 H2110 0.984 . S
N2105 H2111 0.985 1_565 S
C2106 C2100 1.381 . S
C2106 C2103 1.363 . S
C2106 N2104 1.356 . S
C2107 C2101 1.363 1_545 S
C2107 C2102 1.379 . S
C2107 N2105 1.356 1_545 S
N2108 C2100 1.354 1_565 S
N2108 H2114 0.984 . S
N2108 H2115 0.984 . S
N2109 C2102 1.356 . S
N2109 H2112 0.984 . S
N2109 H2113 0.985 . S
H2110 N2105 0.984 . S
H2111 N2105 0.985 1_545 S
H2112 N2109 0.984 . S
H2113 N2109 0.985 . S
H2114 N2108 0.984 . S
H2115 N2108 0.984 . S
H2116 N2104 0.984 . S
H2117 N2104 0.985 . S
C2118 C2119 1.363 . S
C2118 C2124 1.379 . S
C2118 N2126 1.356 . S
C2119 C2118 1.363 . S
C2119 C2125 1.363 . S
C2120 C2121 1.363 . S
C2120 C2125 1.379 . S
C2120 N2127 1.356 . S
C2121 C2120 1.363 . S
C2121 C2124 1.363 . S
N2122 C2124 1.356 . S
N2122 H2134 0.984 . S
N2122 H2135 0.985 . S
N2123 C2125 1.356 . S
N2123 H2128 0.984 . S
N2123 H2129 0.985 . S
C2124 C2118 1.379 . S
C2124 C2121 1.363 . S
C2124 N2122 1.356 . S
C2125 C2119 1.363 . S
C2125 C2120 1.379 . S
C2125 N2123 1.356 . S
N2126 C2118 1.356 . S
N2126 H2132 0.984 . S
N2126 H2133 0.984 . S
N2127 C2120 1.356 . S
N2127 H2130 0.984 1_545 S
N2127 H2131 0.985 . S
H2128 N2123 0.984 . S
H2129 N2123 0.985 . S
H2130 N2127 0.984 1_565 S
H2131 N2127 0.985 . S
H2132 N2126 0.984 . S
H2133 N2126 0.984 . S
H2134 N2122 0.984 . S
H2135 N2122 0.985 . S
C2136 C2137 1.363 . S
C2136 C2142 1.379 . S
C2136 N2144 1.356 . S
C2137 C2136 1.363 . S
C2137 C2143 1.363 . S
C2138 C2139 1.363 . S
C2138 C2143 1.379 . S
C2138 N2145 1.356 . S
C2139 C2138 1.363 . S
C2139 C2142 1.363 . S
N2140 C2142 1.356 . S
N2140 H2152 0.984 . S
N2140 H2153 0.985 . S
N2141 C2143 1.356 . S
N2141 H2146 0.984 . S
N2141 H2147 0.985 . S
C2142 C2136 1.379 . S
C2142 C2139 1.363 . S
C2142 N2140 1.356 . S
C2143 C2137 1.363 . S
C2143 C2138 1.379 . S
C2143 N2141 1.356 . S
N2144 C2136 1.356 . S
N2144 H2150 0.984 . S
N2144 H2151 0.984 1_565 S
N2145 C2138 1.356 . S
N2145 H2148 0.984 . S
N2145 H2149 0.985 . S
H2146 N2141 0.984 . S
H2147 N2141 0.985 . S
H2148 N2145 0.984 . S
H2149 N2145 0.985 . S
H2150 N2144 0.984 . S
H2151 N2144 0.984 1_545 S
H2152 N2140 0.984 . S
H2153 N2140 0.985 . S
C2154 C2155 1.363 . S
C2154 C2160 1.378 . S
C2154 N2162 1.356 . S
C2155 C2154 1.363 . S
C2155 C2161 1.363 . S
C2156 C2157 1.363 1_565 S
C2156 C2161 1.379 . S
C2156 N2163 1.356 1_565 S
C2157 C2156 1.363 1_545 S
C2157 C2160 1.363 1_545 S
N2158 C2160 1.356 1_545 S
N2158 H2170 0.984 . S
N2158 H2171 0.985 . S
N2159 C2161 1.356 . S
N2159 H2164 0.984 . S
N2159 H2165 0.985 . S
C2160 C2154 1.378 . S
C2160 C2157 1.363 1_565 S
C2160 N2158 1.356 1_565 S
C2161 C2155 1.363 . S
C2161 C2156 1.379 . S
C2161 N2159 1.356 . S
N2162 C2154 1.356 . S
N2162 H2168 0.984 . S
N2162 H2169 0.984 . S
N2163 C2156 1.356 1_545 S
N2163 H2166 0.984 . S
N2163 H2167 0.985 1_545 S
H2164 N2159 0.984 . S
H2165 N2159 0.985 . S
H2166 N2163 0.984 . S
H2167 N2163 0.985 1_565 S
H2168 N2162 0.984 . S
H2169 N2162 0.984 . S
H2170 N2158 0.984 . S
H2171 N2158 0.985 . S
C2172 C2173 1.363 . S
C2172 C2178 1.379 . S
C2172 N2180 1.356 . S
C2173 C2172 1.363 . S
C2173 C2179 1.363 . S
C2174 C2175 1.365 . S
C2174 C2179 1.374 1_545 S
C2174 N2181 1.361 . S
C2175 C2174 1.365 . S
C2175 C2178 1.363 1_545 S
N2176 C2178 1.356 1_545 S
N2176 H2188 0.984 1_545 S
N2176 H2189 0.985 . S
N2177 C2179 1.356 . S
N2177 H2182 0.984 . S
N2177 H2183 0.985 . S
C2178 C2172 1.379 . S
C2178 C2175 1.363 1_565 S
C2178 N2176 1.356 1_565 S
C2179 C2173 1.363 . S
C2179 C2174 1.374 1_565 S
C2179 N2177 1.356 . S
N2180 C2172 1.356 . S
N2180 H2186 0.984 . S
N2180 H2187 0.984 . S
N2181 C2174 1.361 . S
N2181 H2184 0.984 . S
N2181 H2185 0.985 . S
H2182 N2177 0.984 . S
H2183 N2177 0.985 . S
H2184 N2181 0.984 . S
H2185 N2181 0.985 . S
H2186 N2180 0.984 . S
H2187 N2180 0.984 . S
H2188 N2176 0.984 1_565 S
H2189 N2176 0.985 . S
C2190 C2191 1.363 . S
C2190 C2196 1.379 . S
C2190 N2198 1.356 . S
C2191 C2190 1.363 . S
C2191 C2197 1.363 . S
C2192 C2193 1.363 . S
C2192 C2197 1.379 . S
C2192 N2199 1.356 . S
C2193 C2192 1.363 . S
C2193 C2196 1.363 . S
N2194 C2196 1.356 . S
N2194 H2206 0.984 . S
N2194 H2207 0.985 . S
N2195 C2197 1.356 . S
N2195 H2200 0.984 1_565 S
N2195 H2201 0.985 . S
C2196 C2190 1.379 . S
C2196 C2193 1.363 . S
C2196 N2194 1.356 . S
C2197 C2191 1.363 . S
C2197 C2192 1.379 . S
C2197 N2195 1.356 . S
N2198 C2190 1.356 . S
N2198 H2204 0.984 . S
N2198 H2205 0.984 . S
N2199 C2192 1.356 . S
N2199 H2202 0.984 . S
N2199 H2203 0.985 . S
H2200 N2195 0.984 1_545 S
H2201 N2195 0.985 . S
H2202 N2199 0.984 . S
H2203 N2199 0.985 . S
H2204 N2198 0.984 . S
H2205 N2198 0.984 . S
H2206 N2194 0.984 . S
H2207 N2194 0.985 . S
C2208 C2209 1.363 . S
C2208 C2214 1.379 . S
C2208 N2216 1.356 . S
C2209 C2208 1.363 . S
C2209 C2215 1.363 . S
C2210 C2211 1.363 . S
C2210 C2215 1.379 . S
C2210 N2217 1.356 . S
C2211 C2210 1.363 . S
C2211 C2214 1.363 . S
N2212 C2214 1.356 . S
N2212 H2224 0.984 . S
N2212 H2225 0.985 . S
N2213 C2215 1.356 . S
N2213 H2218 0.984 . S
N2213 H2219 0.985 . S
C2214 C2208 1.379 . S
C2214 C2211 1.363 . S
C2214 N2212 1.356 . S
C2215 C2209 1.363 . S
C2215 C2210 1.379 . S
C2215 N2213 1.356 . S
N2216 C2208 1.356 . S
N2216 H2222 0.984 . S
N2216 H2223 0.984 . S
N2217 C2210 1.356 . S
N2217 H2220 0.984 . S
N2217 H2221 0.985 . S
H2218 N2213 0.984 . S
H2219 N2213 0.985 . S
H2220 N2217 0.984 . S
H2221 N2217 0.985 . S
H2222 N2216 0.984 . S
H2223 N2216 0.984 . S
H2224 N2212 0.984 . S
H2225 N2212 0.985 . S
C2226 C2227 1.363 . S
C2226 C2232 1.379 . S
C2226 N2234 1.356 1_565 S
C2227 C2226 1.363 . S
C2227 C2233 1.363 . S
C2228 C2229 1.363 . S
C2228 C2233 1.379 . S
C2228 N2235 1.356 . S
C2229 C2228 1.363 . S
C2229 C2232 1.363 . S
N2230 C2232 1.356 . S
N2230 H2242 0.984 . S
N2230 H2243 0.985 . S
N2231 C2233 1.356 . S
N2231 H2236 0.984 . S
N2231 H2237 0.985 . S
C2232 C2226 1.379 . S
C2232 C2229 1.363 . S
C2232 N2230 1.356 . S
C2233 C2227 1.363 . S
C2233 C2228 1.379 . S
C2233 N2231 1.356 . S
N2234 C2226 1.356 1_545 S
N2234 H2240 0.984 . S
N2234 H2241 0.984 . S
N2235 C2228 1.356 . S
N2235 H2238 0.984 . S
N2235 H2239 0.985 . S
H2236 N2231 0.984 . S
H2237 N2231 0.985 . S
H2238 N2235 0.984 . S
H2239 N2235 0.985 . S
H2240 N2234 0.984 . S
H2241 N2234 0.984 . S
H2242 N2230 0.984 . S
H2243 N2230 0.985 . S
C2244 C2245 1.363 . S
C2244 C2250 1.379 . S
C2244 N2252 1.356 . S
C2245 C2244 1.363 . S
C2245 C2251 1.363 . S
C2246 C2247 1.363 . S
C2246 C2251 1.379 . S
C2246 N2253 1.356 1_565 S
C2247 C2246 1.363 . S
C2247 C2250 1.363 . S
N2248 C2250 1.356 . S
N2248 H2260 0.984 . S
N2248 H2261 0.985 . S
N2249 C2251 1.356 . S
N2249 H2254 0.984 . S
N2249 H2255 0.985 . S
C2250 C2244 1.379 . S
C2250 C2247 1.363 . S
C2250 N2248 1.356 . S
C2251 C2245 1.363 . S
C2251 C2246 1.379 . S
C2251 N2249 1.356 . S
N2252 C2244 1.356 . S
N2252 H2258 0.984 . S
N2252 H2259 0.984 . S
N2253 C2246 1.356 1_545 S
N2253 H2256 0.984 . S
N2253 H2257 0.985 . S
H2254 N2249 0.984 . S
H2255 N2249 0.985 . S
H2256 N2253 0.984 . S
H2257 N2253 0.985 . S
H2258 N2252 0.984 . S
H2259 N2252 0.984 . S
H2260 N2248 0.984 . S
H2261 N2248 0.985 . S
C2262 C2263 1.363 . S
C2262 C2268 1.379 . S
C2262 N2270 1.356 . S
C2263 C2262 1.363 . S
C2263 C2269 1.363 . S
C2264 C2265 1.363 . S
C2264 C2269 1.379 . S
C2264 N2271 1.356 . S
C2265 C2264 1.363 . S
C2265 C2268 1.363 . S
N2266 C2268 1.356 . S
N2266 H2278 0.984 . S
N2266 H2279 0.985 . S
N2267 C2269 1.356 . S
N2267 H2272 0.984 . S
N2267 H2273 0.985 . S
C2268 C2262 1.379 . S
C2268 C2265 1.363 . S
C2268 N2266 1.356 . S
C2269 C2263 1.363 . S
C2269 C2264 1.379 . S
C2269 N2267 1.356 . S
N2270 C2262 1.356 . S
N2270 H2276 0.984 . S
N2270 H2277 0.984 . S
N2271 C2264 1.356 . S
N2271 H2274 0.984 . S
N2271 H2275 0.985 . S
H2272 N2267 0.984 . S
H2273 N2267 0.985 . S
H2274 N2271 0.984 . S
H2275 N2271 0.985 . S
H2276 N2270 0.984 . S
H2277 N2270 0.984 . S
H2278 N2266 0.984 . S
H2279 N2266 0.985 . S
C2280 C2281 1.363 . S
C2280 C2286 1.379 . S
C2280 N2288 1.356 . S
C2281 C2280 1.363 . S
C2281 C2287 1.363 . S
C2282 C2283 1.363 . S
C2282 C2287 1.379 . S
C2282 N2289 1.356 . S
C2283 C2282 1.363 . S
C2283 C2286 1.363 . S
N2284 C2286 1.356 . S
N2284 H2296 0.984 . S
N2284 H2297 0.985 . S
N2285 C2287 1.356 . S
N2285 H2290 0.984 . S
N2285 H2291 0.985 . S
C2286 C2280 1.379 . S
C2286 C2283 1.363 . S
C2286 N2284 1.356 . S
C2287 C2281 1.363 . S
C2287 C2282 1.379 . S
C2287 N2285 1.356 . S
N2288 C2280 1.356 . S
N2288 H2294 0.984 . S
N2288 H2295 0.984 . S
N2289 C2282 1.356 . S
N2289 H2292 0.984 . S
N2289 H2293 0.985 . S
H2290 N2285 0.984 . S
H2291 N2285 0.985 . S
H2292 N2289 0.984 . S
H2293 N2289 0.985 . S
H2294 N2288 0.984 . S
H2295 N2288 0.984 . S
H2296 N2284 0.984 . S
H2297 N2284 0.985 . S
C2298 C2299 1.363 . S
C2298 C2304 1.379 . S
C2298 N2306 1.356 . S
C2299 C2298 1.363 . S
C2299 C2305 1.363 . S
C2300 C2301 1.363 . S
C2300 C2305 1.379 . S
C2300 N2307 1.356 . S
C2301 C2300 1.363 . S
C2301 C2304 1.363 . S
N2302 C2304 1.356 . S
N2302 H2314 0.984 . S
N2302 H2315 0.985 . S
N2303 C2305 1.356 1_565 S
N2303 H2308 0.984 . S
N2303 H2309 0.985 . S
C2304 C2298 1.379 . S
C2304 C2301 1.363 . S
C2304 N2302 1.356 . S
C2305 C2299 1.363 . S
C2305 C2300 1.379 . S
C2305 N2303 1.356 1_545 S
N2306 C2298 1.356 . S
N2306 H2312 0.984 . S
N2306 H2313 0.984 . S
N2307 C2300 1.356 . S
N2307 H2310 0.984 . S
N2307 H2311 0.985 . S
H2308 N2303 0.984 . S
H2309 N2303 0.985 . S
H2310 N2307 0.984 . S
H2311 N2307 0.985 . S
H2312 N2306 0.984 . S
H2313 N2306 0.984 . S
H2314 N2302 0.984 . S
H2315 N2302 0.985 . S
C2316 C2317 1.363 . S
C2316 C2322 1.379 . S
C2316 N2324 1.356 . S
C2317 C2316 1.363 . S
C2317 C2323 1.363 . S
C2318 C2319 1.363 . S
C2318 C2323 1.379 . S
C2318 N2325 1.356 . S
C2319 C2318 1.363 . S
C2319 C2322 1.363 . S
N2320 C2322 1.356 1_565 S
N2320 H2332 0.984 . S
N2320 H2333 0.985 . S
N2321 C2323 1.356 . S
N2321 H2326 0.984 . S
N2321 H2327 0.985 . S
C2322 C2316 1.379 . S
C2322 C2319 1.363 . S
C2322 N2320 1.356 1_545 S
C2323 C2317 1.363 . S
C2323 C2318 1.379 . S
C2323 N2321 1.356 . S
N2324 C2316 1.356 . S
N2324 H2330 0.984 . S
N2324 H2331 0.984 . S
N2325 C2318 1.356 . S
N2325 H2328 0.984 . S
N2325 H2329 0.985 . S
H2326 N2321 0.984 . S
H2327 N2321 0.985 . S
H2328 N2325 0.984 . S
H2329 N2325 0.985 . S
H2330 N2324 0.984 . S
H2331 N2324 0.984 . S
H2332 N2320 0.984 . S
H2333 N2320 0.985 . S
C2334 C2335 1.363 . S
C2334 C2340 1.379 . S
C2334 N2342 1.356 . S
C2335 C2334 1.363 . S
C2335 C2341 1.363 . S
C2336 C2337 1.363 . S
C2336 C2341 1.379 . S
C2336 N2343 1.356 . S
C2337 C2336 1.363 . S
C2337 C2340 1.363 . S
N2338 C2340 1.356 . S
N2338 H2350 0.984 . S
N2338 H2351 0.985 . S
N2339 C2341 1.356 . S
N2339 H2344 0.984 . S
N2339 H2345 0.985 . S
C2340 C2334 1.379 . S
C2340 C2337 1.363 . S
C2340 N2338 1.356 . S
C2341 C2335 1.363 . S
C2341 C2336 1.379 . S
C2341 N2339 1.356 . S
N2342 C2334 1.356 . S
N2342 H2348 0.984 . S
N2342 H2349 0.984 . S
N2343 C2336 1.356 . S
N2343 H2346 0.984 . S
N2343 H2347 0.985 . S
H2344 N2339 0.984 . S
H2345 N2339 0.985 . S
H2346 N2343 0.984 . S
H2347 N2343 0.985 . S
H2348 N2342 0.984 . S
H2349 N2342 0.984 . S
H2350 N2338 0.984 . S
H2351 N2338 0.985 . S
C2352 C2353 1.363 . S
C2352 C2358 1.379 . S
C2352 N2360 1.356 . S
C2353 C2352 1.363 . S
C2353 C2359 1.363 . S
C2354 C2355 1.363 . S
C2354 C2359 1.379 . S
C2354 N2361 1.356 1_565 S
C2355 C2354 1.363 . S
C2355 C2358 1.363 . S
N2356 C2358 1.356 . S
N2356 H2368 0.984 . S
N2356 H2369 0.985 . S
N2357 C2359 1.356 . S
N2357 H2362 0.984 . S
N2357 H2363 0.985 . S
C2358 C2352 1.379 . S
C2358 C2355 1.363 . S
C2358 N2356 1.356 . S
C2359 C2353 1.363 . S
C2359 C2354 1.379 . S
C2359 N2357 1.356 . S
N2360 C2352 1.356 . S
N2360 H2366 0.984 . S
N2360 H2367 0.984 . S
N2361 C2354 1.356 1_545 S
N2361 H2364 0.984 . S
N2361 H2365 0.985 . S
H2362 N2357 0.984 . S
H2363 N2357 0.985 . S
H2364 N2361 0.984 . S
H2365 N2361 0.985 . S
H2366 N2360 0.984 . S
H2367 N2360 0.984 . S
H2368 N2356 0.984 . S
H2369 N2356 0.985 . S
C2370 C2371 1.363 . S
C2370 C2376 1.379 . S
C2370 N2378 1.356 . S
C2371 C2370 1.363 . S
C2371 C2377 1.363 . S
C2372 C2373 1.363 . S
C2372 C2377 1.379 . S
C2372 N2379 1.356 . S
C2373 C2372 1.363 . S
C2373 C2376 1.363 . S
N2374 C2376 1.356 . S
N2374 H2386 0.984 . S
N2374 H2387 0.985 . S
N2375 C2377 1.356 . S
N2375 H2380 0.984 . S
N2375 H2381 0.985 . S
C2376 C2370 1.379 . S
C2376 C2373 1.363 . S
C2376 N2374 1.356 . S
C2377 C2371 1.363 . S
C2377 C2372 1.379 . S
C2377 N2375 1.356 . S
N2378 C2370 1.356 . S
N2378 H2384 0.984 . S
N2378 H2385 0.984 . S
N2379 C2372 1.356 . S
N2379 H2382 0.984 . S
N2379 H2383 0.985 . S
H2380 N2375 0.984 . S
H2381 N2375 0.985 . S
H2382 N2379 0.984 . S
H2383 N2379 0.985 . S
H2384 N2378 0.984 . S
H2385 N2378 0.984 . S
H2386 N2374 0.984 . S
H2387 N2374 0.985 . S
C2388 C2389 1.363 . S
C2388 C2394 1.379 . S
C2388 N2396 1.356 . S
C2389 C2388 1.363 . S
C2389 C2395 1.363 . S
C2390 C2391 1.363 . S
C2390 C2395 1.379 . S
C2390 N2397 1.356 . S
C2391 C2390 1.363 . S
C2391 C2394 1.363 . S
N2392 C2394 1.356 . S
N2392 H2404 0.984 . S
N2392 H2405 0.985 . S
N2393 C2395 1.356 . S
N2393 H2398 0.984 . S
N2393 H2399 0.985 . S
C2394 C2388 1.379 . S
C2394 C2391 1.363 . S
C2394 N2392 1.356 . S
C2395 C2389 1.363 . S
C2395 C2390 1.379 . S
C2395 N2393 1.356 . S
N2396 C2388 1.356 . S
N2396 H2402 0.984 . S
N2396 H2403 0.984 . S
N2397 C2390 1.356 . S
N2397 H2400 0.984 . S
N2397 H2401 0.985 . S
H2398 N2393 0.984 . S
H2399 N2393 0.985 . S
H2400 N2397 0.984 . S
H2401 N2397 0.985 . S
H2402 N2396 0.984 . S
H2403 N2396 0.984 . S
H2404 N2392 0.984 . S
H2405 N2392 0.985 . S
C2406 C2407 1.363 . S
C2406 C2412 1.379 . S
C2406 N2414 1.356 . S
C2407 C2406 1.363 . S
C2407 C2413 1.363 . S
C2408 C2409 1.363 . S
C2408 C2413 1.379 . S
C2408 N2415 1.356 . S
C2409 C2408 1.363 . S
C2409 C2412 1.363 . S
N2410 C2412 1.356 1_545 S
N2410 H2422 0.984 . S
N2410 H2423 0.985 . S
N2411 C2413 1.356 . S
N2411 H2416 0.984 . S
N2411 H2417 0.985 . S
C2412 C2406 1.379 . S
C2412 C2409 1.363 . S
C2412 N2410 1.356 1_565 S
C2413 C2407 1.363 . S
C2413 C2408 1.379 . S
C2413 N2411 1.356 . S
N2414 C2406 1.356 . S
N2414 H2420 0.984 . S
N2414 H2421 0.984 . S
N2415 C2408 1.356 . S
N2415 H2418 0.984 . S
N2415 H2419 0.985 . S
H2416 N2411 0.984 . S
H2417 N2411 0.985 . S
H2418 N2415 0.984 . S
H2419 N2415 0.985 . S
H2420 N2414 0.984 . S
H2421 N2414 0.984 . S
H2422 N2410 0.984 . S
H2423 N2410 0.985 . S
C2424 C2425 1.363 . S
C2424 C2430 1.379 . S
C2424 N2432 1.356 . S
C2425 C2424 1.363 . S
C2425 C2431 1.363 . S
C2426 C2427 1.363 . S
C2426 C2431 1.379 . S
C2426 N2433 1.356 . S
C2427 C2426 1.363 . S
C2427 C2430 1.363 . S
N2428 C2430 1.356 . S
N2428 H2440 0.984 . S
N2428 H2441 0.985 . S
N2429 C2431 1.356 1_565 S
N2429 H2434 0.984 . S
N2429 H2435 0.985 . S
C2430 C2424 1.379 . S
C2430 C2427 1.363 . S
C2430 N2428 1.356 . S
C2431 C2425 1.363 . S
C2431 C2426 1.379 . S
C2431 N2429 1.356 1_545 S
N2432 C2424 1.356 . S
N2432 H2438 0.984 . S
N2432 H2439 0.984 . S
N2433 C2426 1.356 . S
N2433 H2436 0.984 . S
N2433 H2437 0.985 . S
H2434 N2429 0.984 . S
H2435 N2429 0.985 . S
H2436 N2433 0.984 . S
H2437 N2433 0.985 . S
H2438 N2432 0.984 . S
H2439 N2432 0.984 . S
H2440 N2428 0.984 . S
H2441 N2428 0.985 . S
C2442 C2443 1.363 . S
C2442 C2448 1.379 . S
C2442 N2450 1.356 . S
C2443 C2442 1.363 . S
C2443 C2449 1.363 . S
C2444 C2445 1.363 . S
C2444 C2449 1.379 . S
C2444 N2451 1.356 . S
C2445 C2444 1.363 . S
C2445 C2448 1.363 . S
N2446 C2448 1.356 . S
N2446 H2458 0.984 . S
N2446 H2459 0.985 . S
N2447 C2449 1.356 . S
N2447 H2452 0.984 . S
N2447 H2453 0.985 . S
C2448 C2442 1.379 . S
C2448 C2445 1.363 . S
C2448 N2446 1.356 . S
C2449 C2443 1.363 . S
C2449 C2444 1.379 . S
C2449 N2447 1.356 . S
N2450 C2442 1.356 . S
N2450 H2456 0.984 . S
N2450 H2457 0.984 . S
N2451 C2444 1.356 . S
N2451 H2454 0.984 . S
N2451 H2455 0.985 . S
H2452 N2447 0.984 . S
H2453 N2447 0.985 . S
H2454 N2451 0.984 . S
H2455 N2451 0.985 . S
H2456 N2450 0.984 . S
H2457 N2450 0.984 . S
H2458 N2446 0.984 . S
H2459 N2446 0.985 . S
C2460 C2461 1.363 . S
C2460 C2466 1.379 . S
C2460 N2468 1.356 . S
C2461 C2460 1.363 . S
C2461 C2467 1.363 . S
C2462 C2463 1.363 . S
C2462 C2467 1.379 . S
C2462 N2469 1.356 . S
C2463 C2462 1.363 . S
C2463 C2466 1.363 . S
N2464 C2466 1.356 . S
N2464 H2476 0.984 . S
N2464 H2477 0.985 . S
N2465 C2467 1.356 . S
N2465 H2470 0.984 . S
N2465 H2471 0.985 . S
C2466 C2460 1.379 . S
C2466 C2463 1.363 . S
C2466 N2464 1.356 . S
C2467 C2461 1.363 . S
C2467 C2462 1.379 . S
C2467 N2465 1.356 . S
N2468 C2460 1.356 . S
N2468 H2474 0.984 . S
N2468 H2475 0.984 . S
N2469 C2462 1.356 . S
N2469 H2472 0.984 . S
N2469 H2473 0.985 . S
H2470 N2465 0.984 . S
H2471 N2465 0.985 . S
H2472 N2469 0.984 . S
H2473 N2469 0.985 . S
H2474 N2468 0.984 . S
H2475 N2468 0.984 . S
H2476 N2464 0.984 . S
H2477 N2464 0.985 . S
C2478 C2479 1.363 . S
C2478 C2484 1.379 . S
C2478 N2486 1.356 . S
C2479 C2478 1.363 . S
C2479 C2485 1.363 . S
C2480 C2481 1.363 . S
C2480 C2485 1.379 . S
C2480 N2487 1.356 . S
C2481 C2480 1.363 . S
C2481 C2484 1.363 . S
N2482 C2484 1.356 1_565 S
N2482 H2494 0.984 . S
N2482 H2495 0.985 . S
N2483 C2485 1.356 . S
N2483 H2488 0.984 . S
N2483 H2489 0.985 . S
C2484 C2478 1.379 . S
C2484 C2481 1.363 . S
C2484 N2482 1.356 1_545 S
C2485 C2479 1.363 . S
C2485 C2480 1.379 . S
C2485 N2483 1.356 . S
N2486 C2478 1.356 . S
N2486 H2492 0.984 . S
N2486 H2493 0.984 . S
N2487 C2480 1.356 . S
N2487 H2490 0.984 . S
N2487 H2491 0.985 . S
H2488 N2483 0.984 . S
H2489 N2483 0.985 . S
H2490 N2487 0.984 . S
H2491 N2487 0.985 . S
H2492 N2486 0.984 . S
H2493 N2486 0.984 . S
H2494 N2482 0.984 . S
H2495 N2482 0.985 . S
C1057 C17 1.568 . S
C1059 C83 1.568 . S
C1075 C50 1.568 . S
C1077 C116 1.568 . S
C1093 C149 1.568 . S
C1095 C215 1.568 . S
C1111 C248 1.568 . S
C1113 C182 1.568 . S
C1129 C347 1.568 . S
C1131 C281 1.568 . S
C1147 C380 1.568 . S
C1149 C314 1.568 . S
C1165 C413 1.568 . S
C1167 C479 1.568 . S
C1183 C512 1.568 . S
C1185 C446 1.568 . S
C1201 C611 1.568 . S
C1203 C545 1.568 . S
C1219 C578 1.568 . S
C1221 C644 1.568 . S
C1237 C677 1.568 . S
C1239 C743 1.568 . S
C1255 C776 1.568 . S
C1257 C710 1.568 . S
C1273 C875 1.568 . S
C1275 C809 1.568 . S
C1291 C842 1.568 . S
C1293 C908 1.568 . S
C1309 C1007 1.568 . S
C1311 C941 1.568 . S
C1327 C1040 1.568 . S
C1329 C974 1.568 . S
C1345 C160 1.374 . S
C1347 C28 1.374 . S
C1363 C61 1.374 . S
C1365 C985 1.374 . S
C1381 C94 1.374 . S
C1383 C490 1.374 . S
C1399 C127 1.374 . S
C1401 C787 1.374 . S
C1417 C193 1.374 . S
C1419 C853 1.374 . S
C1435 C358 1.374 . S
C1437 C226 1.374 . S
C1453 C655 1.374 . S
C1455 C259 1.374 . S
C1471 C292 1.374 . S
C1473 C424 1.374 . S
C1489 C721 1.374 . S
C1491 C325 1.374 . S
C1507 C1051 1.374 . S
C1509 C391 1.374 . S
C1525 C589 1.374 . S
C1527 C457 1.374 . S
C1543 C919 1.374 . S
C1545 C523 1.374 . S
C1561 C688 1.374 . S
C1563 C556 1.374 . S
C1579 C622 1.374 . S
C1581 C1018 1.374 . S
C1597 C754 1.374 . S
C1599 C886 1.374 . S
C1615 C952 1.374 . S
C1617 C820 1.374 . S
C1633 N5 1.355 . S
C1635 N14 1.355 . S
C1651 N47 1.355 . S
C1653 N38 1.355 . S
C1669 N80 1.355 . S
C1671 N71 1.355 . S
C1687 N113 1.355 . S
C1689 N104 1.355 . S
C1705 N137 1.355 . S
C1707 N146 1.355 . S
C1723 N179 1.355 . S
C1725 N170 1.355 . S
C1741 N203 1.355 . S
C1743 N212 1.355 . S
C1759 N236 1.355 . S
C1761 N245 1.355 . S
C1777 N269 1.355 . S
C1779 N278 1.355 1_545 S
C1795 N302 1.355 . S
C1797 N311 1.355 . S
C1813 N335 1.355 . S
C1815 N344 1.355 . S
C1831 N377 1.355 1_545 S
C1833 N368 1.355 . S
C1849 N401 1.355 . S
C1851 N410 1.355 1_565 S
C1867 N434 1.355 . S
C1869 N443 1.355 . S
C1885 N467 1.355 . S
C1887 N476 1.355 . S
C1903 N500 1.355 . S
C1905 N509 1.355 1_565 S
C1921 N542 1.355 . S
C1923 N533 1.355 . S
C1939 N566 1.355 . S
C1941 N575 1.355 . S
C1957 N599 1.355 . S
C1959 N608 1.355 . S
C1975 N632 1.355 . S
C1977 N641 1.355 . S
C1993 N665 1.355 . S
C1995 N674 1.355 . S
C2011 N698 1.355 . S
C2013 N707 1.355 . S
C2029 N740 1.355 . S
C2031 N731 1.355 . S
C2047 N764 1.355 . S
C2049 N773 1.355 . S
C2065 N806 1.355 1_545 S
C2067 N797 1.355 . S
C2083 N830 1.355 . S
C2085 N839 1.355 . S
C2101 N863 1.355 . S
C2103 N872 1.355 . S
C2119 N896 1.355 . S
C2121 N905 1.355 1_545 S
C2137 N938 1.355 1_565 S
C2139 N929 1.355 . S
C2155 N971 1.355 . S
C2157 N962 1.355 . S
C2173 N1004 1.355 . S
C2175 N995 1.355 . S
C2191 N1037 1.355 1_565 S
C2193 N1028 1.355 . S
C2209 C833 1.542 . S
C2211 C8 1.542 . S
C2227 C41 1.542 . S
C2229 C800 1.542 . S
C2245 C899 1.542 . S
C2247 C74 1.542 . S
C2263 C107 1.542 . S
C2265 C866 1.542 . S
C2281 C965 1.542 . S
C2283 C140 1.542 . S
C2299 C173 1.542 . S
C2301 C932 1.542 . S
C2317 C1031 1.542 . S
C2319 C206 1.542 . S
C2335 C998 1.542 . S
C2337 C239 1.542 . S
C2353 C272 1.542 . S
C2355 C569 1.542 . S
C2371 C305 1.542 . S
C2373 C536 1.542 . S
C2389 C635 1.542 . S
C2391 C338 1.542 . S
C2407 C371 1.542 . S
C2409 C602 1.542 . S
C2425 C701 1.542 . S
C2427 C404 1.542 . S
C2443 C668 1.542 . S
C2445 C437 1.542 . S
C2461 C470 1.542 . S
C2463 C767 1.542 . S
C2479 C503 1.542 . S
C2481 C734 1.542 . S
