# Generated by pormake.
# Topology wni, (7)-cn, num edge types: 1
# Building blocks:
#     Node 0, Type 0, BuildingBlock: NUHQUE_clean_sbu_2, # of connection points: 7
#     Node 1, Type 0, BuildingBlock: NUHQUE_clean_sbu_2, # of connection points: 7
#     Node 2, Type 0, BuildingBlock: NUHQUE_clean_sbu_2, # of connection points: 7
#     Node 3, Type 0, BuildingBlock: NUHQUE_clean_sbu_2, # of connection points: 7
#     Node 4, Type 0, BuildingBlock: NUHQUE_clean_sbu_2, # of connection points: 7
#     Node 5, Type 0, BuildingBlock: NUHQUE_clean_sbu_2, # of connection points: 7
#     Edge 6, Type (0, 0), BuildingBlock: TEMPAE_clean_linker_10, # of connection points: 2
#     Edge 7, Type (0, 0), BuildingBlock: TEMPAE_clean_linker_10, # of connection points: 2
#     Edge 8, Type (0, 0), BuildingBlock: TEMPAE_clean_linker_10, # of connection points: 2
#     Edge 9, Type (0, 0), BuildingBlock: TEMPAE_clean_linker_10, # of connection points: 2
#     Edge 10, Type (0, 0), BuildingBlock: TEMPAE_clean_linker_10, # of connection points: 2
#     Edge 11, Type (0, 0), BuildingBlock: TEMPAE_clean_linker_10, # of connection points: 2
#     Edge 12, Type (0, 0), BuildingBlock: TEMPAE_clean_linker_10, # of connection points: 2
#     Edge 13, Type (0, 0), BuildingBlock: TEMPAE_clean_linker_10, # of connection points: 2
#     Edge 14, Type (0, 0), BuildingBlock: TEMPAE_clean_linker_10, # of connection points: 2
#     Edge 15, Type (0, 0), BuildingBlock: TEMPAE_clean_linker_10, # of connection points: 2
#     Edge 16, Type (0, 0), BuildingBlock: TEMPAE_clean_linker_10, # of connection points: 2
#     Edge 17, Type (0, 0), BuildingBlock: TEMPAE_clean_linker_10, # of connection points: 2
#     Edge 18, Type (0, 0), BuildingBlock: TEMPAE_clean_linker_10, # of connection points: 2
#     Edge 19, Type (0, 0), BuildingBlock: TEMPAE_clean_linker_10, # of connection points: 2
#     Edge 20, Type (0, 0), BuildingBlock: TEMPAE_clean_linker_10, # of connection points: 2
#     Edge 21, Type (0, 0), BuildingBlock: TEMPAE_clean_linker_10, # of connection points: 2
#     Edge 22, Type (0, 0), BuildingBlock: TEMPAE_clean_linker_10, # of connection points: 2
#     Edge 23, Type (0, 0), BuildingBlock: TEMPAE_clean_linker_10, # of connection points: 2
#     Edge 24, Type (0, 0), BuildingBlock: TEMPAE_clean_linker_10, # of connection points: 2
#     Edge 25, Type (0, 0), BuildingBlock: TEMPAE_clean_linker_10, # of connection points: 2
#     Edge 26, Type (0, 0), BuildingBlock: TEMPAE_clean_linker_10, # of connection points: 2
# Relax obj value: 0.270
# Max RMSD: 0.304
# Mean RMSD: 0.304
data_MOF--net-wni--node1-NUHQUE_clean_sbu_2--edge1-TEMPAE_clean_linker_10
_symmetry_space_group_name_H-M    P1
_symmetry_Int_Tables_number       1
_symmetry_cell_setting            triclinic
loop_
_symmetry_equiv_pos_as_xyz
'x, y, z'
_cell_length_a     36.260908
_cell_length_b     36.262687
_cell_length_c     30.835341
_cell_angle_alpha  90.117094
_cell_angle_beta   89.955669
_cell_angle_gamma 119.9956
loop_
_atom_site_label
_atom_site_type_symbol
_atom_site_fract_x
_atom_site_fract_y
_atom_site_fract_z
_atom_type_partial_charge
O0 O 0.28858 0.50539 0.0319 0.0
Tb1 Tb 0.26716 0.46075 0.0852 0.0
Eu2 Eu 0.16883 0.38832 0.13025 0.0
C3 C 0.30141 0.49659 0.99553 0.0
O4 O 0.2961 0.45834 0.98995 0.0
C5 C 0.22483 0.36436 0.07403 0.0
O6 O 0.12051 0.35419 0.18325 0.0
C7 C 0.13069 0.39757 0.06334 0.0
C8 C 0.1323 0.35724 0.22408 0.0
O9 O 0.17312 0.3779 0.23342 0.0
C10 C 0.22163 0.48642 0.15539 0.0
C11 C 0.10091 0.41156 0.04895 0.0
C12 C 0.08834 0.40505 0.0053 0.0
C13 C 0.05796 0.41504 0.98983 0.0
C14 C 0.04031 0.43186 0.01886 0.0
C15 C 0.05294 0.43915 0.0625 0.0
C16 C 0.08349 0.4291 0.07763 0.0
O17 O 0.23221 0.39917 0.05368 0.0
O18 O 0.20537 0.35527 0.11179 0.0
O19 O 0.33511 0.48305 0.08314 0.0
O20 O 0.30141 0.45481 0.14132 0.0
C21 C 0.33866 0.47247 0.12244 0.0
O22 O 0.20196 0.44757 0.17123 0.0
O23 O 0.23957 0.49483 0.11688 0.0
O24 O 0.11459 0.36256 0.08653 0.0
O25 O 0.16884 0.42691 0.07602 0.0
H26 H 0.10234 0.39206 0.98332 0.0
H27 H 0.01609 0.43884 0.00773 0.0
H28 H 0.09285 0.43394 0.11147 0.0
O29 O 0.51345 0.79984 0.69565 0.0
Tb30 Tb 0.54944 0.80851 0.75427 0.0
Eu31 Eu 0.6254 0.78388 0.79651 0.0
C32 C 0.51642 0.83325 0.67586 0.0
O33 O 0.54387 0.87144 0.69029 0.0
C34 C 0.64542 0.86136 0.73691 0.0
O35 O 0.66147 0.774 0.85065 0.0
C36 C 0.61733 0.73436 0.73183 0.0
C37 C 0.64443 0.73597 0.86843 0.0
O38 O 0.6075 0.70589 0.85377 0.0
C39 C 0.52833 0.73789 0.82242 0.0
C40 C 0.6051 0.69086 0.71785 0.0
C41 C 0.61281 0.68518 0.67448 0.0
C42 C 0.60483 0.64537 0.65937 0.0
C43 C 0.58891 0.61101 0.68824 0.0
C44 C 0.58054 0.61585 0.7317 0.0
C45 C 0.58832 0.65594 0.74651 0.0
O46 O 0.6089 0.83445 0.71874 0.0
O47 O 0.65591 0.85231 0.77467 0.0
O48 O 0.50903 0.83249 0.77906 0.0
O49 O 0.57454 0.86523 0.79628 0.0
C50 C 0.53851 0.86484 0.80006 0.0
O51 O 0.56701 0.75831 0.83855 0.0
O52 O 0.52042 0.74565 0.78301 0.0
O53 O 0.65236 0.75499 0.75484 0.0
O54 O 0.58705 0.74209 0.74371 0.0
H55 H 0.62608 0.7122 0.65261 0.0
H56 H 0.58229 0.58001 0.67668 0.0
H57 H 0.58237 0.66011 0.78007 0.0
O58 O 0.22693 0.72826 0.36255 0.0
Tb59 Tb 0.20477 0.74926 0.41738 0.0
Eu60 Eu 0.22648 0.84552 0.46412 0.0
C61 C 0.20189 0.71099 0.32884 0.0
O62 O 0.16586 0.71131 0.32711 0.0
C63 C 0.15081 0.79173 0.40247 0.0
O64 O 0.23742 0.89159 0.51874 0.0
C65 C 0.27676 0.8858 0.39967 0.0
C66 C 0.27501 0.91093 0.53771 0.0
O67 O 0.30439 0.90263 0.5239 0.0
C68 C 0.27258 0.79482 0.48986 0.0
C69 C 0.32048 0.91625 0.38574 0.0
C70 C 0.32631 0.93012 0.34257 0.0
C71 C 0.36645 0.96121 0.32759 0.0
C72 C 0.40103 0.97838 0.35632 0.0
C73 C 0.39604 0.96435 0.39945 0.0
C74 C 0.35558 0.93293 0.41421 0.0
O75 O 0.1789 0.78401 0.38394 0.0
O76 O 0.15834 0.8087 0.44148 0.0
O77 O 0.16292 0.68047 0.41652 0.0
O78 O 0.1604 0.71485 0.47106 0.0
C79 C 0.14466 0.67706 0.45361 0.0
O80 O 0.24944 0.81027 0.50565 0.0
O81 O 0.26572 0.77813 0.45077 0.0
O82 O 0.25656 0.90103 0.4222 0.0
O83 O 0.26833 0.84774 0.41204 0.0
H84 H 0.29922 0.91733 0.32074 0.0
H85 H 0.43223 1.00234 0.34489 0.0
H86 H 0.35131 0.92235 0.44761 0.0
O87 O 0.50675 0.28399 0.97251 0.0
Tb88 Tb 0.46286 0.26327 0.91851 0.0
Eu89 Eu 0.39191 0.16635 0.87232 0.0
C90 C 0.49846 0.2988 0.00785 0.0
O91 O 0.46132 0.29662 0.01154 0.0
C92 C 0.36649 0.21859 0.93184 0.0
O93 O 0.357 0.1173 0.81992 0.0
C94 C 0.40339 0.12953 0.939 0.0
C95 C 0.35981 0.12835 0.77887 0.0
O96 O 0.38083 0.16898 0.76883 0.0
C97 C 0.48942 0.22055 0.84609 0.0
C98 C 0.41808 0.1008 0.95494 0.0
C99 C 0.4097 0.08814 0.99842 0.0
C100 C 0.42088 0.05935 0.01572 0.0
C101 C 0.44074 0.04334 0.98867 0.0
C102 C 0.45115 0.05678 0.94529 0.0
C103 C 0.43914 0.08546 0.92834 0.0
O104 O 0.40202 0.22658 0.95105 0.0
O105 O 0.35832 0.20186 0.89269 0.0
O106 O 0.48495 0.33121 0.92136 0.0
O107 O 0.45487 0.29759 0.86366 0.0
C108 C 0.4731 0.33482 0.88268 0.0
O109 O 0.45038 0.20061 0.83067 0.0
O110 O 0.49805 0.2379 0.88493 0.0
O111 O 0.36802 0.1124 0.91626 0.0
O112 O 0.43211 0.16756 0.92556 0.0
H113 H 0.3945 0.10103 0.01888 0.0
H114 H 0.44728 0.01936 0.00136 0.0
H115 H 0.44623 0.09598 0.89496 0.0
O116 O 0.72707 0.22257 0.63523 0.0
Tb117 Tb 0.74922 0.19899 0.5826 0.0
Eu118 Eu 0.84968 0.227 0.53795 0.0
C119 C 0.71199 0.19973 0.67064 0.0
O120 O 0.7148 0.16521 0.67502 0.0
C121 C 0.7958 0.14966 0.59732 0.0
O122 O 0.89781 0.23924 0.4853 0.0
C123 C 0.88645 0.27766 0.60332 0.0
C124 C 0.91775 0.27703 0.46691 0.0
O125 O 0.9093 0.3064 0.48041 0.0
C126 C 0.79143 0.26511 0.50747 0.0
C127 C 0.917 0.32124 0.61785 0.0
C128 C 0.92947 0.32674 0.66153 0.0
C129 C 0.96087 0.36651 0.67715 0.0
C130 C 0.97957 0.4011 0.64856 0.0
C131 C 0.96744 0.39648 0.60473 0.0
C132 C 0.93566 0.35633 0.5894 0.0
O133 O 0.7878 0.17751 0.61584 0.0
O134 O 0.81406 0.15831 0.55901 0.0
O135 O 0.68202 0.1507 0.5861 0.0
O136 O 0.71556 0.15561 0.52804 0.0
C137 C 0.67863 0.13525 0.54742 0.0
O138 O 0.81344 0.2473 0.49437 0.0
O139 O 0.77369 0.25784 0.54611 0.0
O140 O 0.90225 0.25647 0.58361 0.0
O141 O 0.8496 0.27003 0.5876 0.0
H142 H 0.91551 0.29957 0.68321 0.0
H143 H 1.00353 0.43205 0.66062 0.0
H144 H 0.92646 0.35219 0.55556 0.0
O145 O 0.79521 0.50895 0.30367 0.0
Tb146 Tb 0.81444 0.55221 0.24928 0.0
Eu147 Eu 0.78517 0.62288 0.20267 0.0
C148 C 0.77746 0.4679 0.29606 0.0
O149 O 0.76882 0.45421 0.25583 0.0
C150 C 0.86455 0.64823 0.25904 0.0
O151 O 0.76982 0.65616 0.14985 0.0
C152 C 0.7382 0.61346 0.27004 0.0
C153 C 0.77852 0.65344 0.10892 0.0
O154 O 0.79888 0.63307 0.09913 0.0
C155 C 0.74251 0.52427 0.17941 0.0
C156 C 0.69484 0.60001 0.28537 0.0
C157 C 0.68972 0.60586 0.32944 0.0
C158 C 0.64996 0.59667 0.34595 0.0
C159 C 0.61512 0.58138 0.3176 0.0
C160 C 0.61946 0.57485 0.27344 0.0
C161 C 0.65951 0.58394 0.25727 0.0
O162 O 0.83666 0.61371 0.27931 0.0
O163 O 0.85471 0.65692 0.22088 0.0
O164 O 0.86498 0.53645 0.25217 0.0
O165 O 0.85336 0.55749 0.19218 0.0
C166 C 0.87667 0.54447 0.21189 0.0
O167 O 0.76064 0.56293 0.16303 0.0
O168 O 0.75272 0.51658 0.21794 0.0
O169 O 0.75722 0.64862 0.24711 0.0
O170 O 0.74639 0.58389 0.25667 0.0
H171 H 0.717 0.6178 0.35094 0.0
H172 H 0.5844 0.57496 0.32975 0.0
H173 H 0.66338 0.57969 0.22309 0.0
C174 C 0.56056 0.58309 0.24266 0.0
C175 C 0.58164 0.55964 0.24503 0.0
C176 C 0.52142 0.56692 0.2211 0.0
C177 C 0.50242 0.52588 0.20204 0.0
C178 C 0.52397 0.50231 0.20375 0.0
C179 C 0.5637 0.51976 0.22479 0.0
C180 C 0.49995 0.59343 0.21959 0.0
C181 C 0.50491 0.45844 0.18404 0.0
C182 C 0.3823 0.47316 0.18602 0.0
C183 C 0.37974 0.48235 0.14242 0.0
C184 C 0.42199 0.48563 0.20546 0.0
C185 C 0.45988 0.50798 0.18072 0.0
C186 C 0.45718 0.51596 0.13628 0.0
C187 C 0.41719 0.50302 0.1177 0.0
C188 C 0.42351 0.47586 0.25276 0.0
C189 C 0.49665 0.53952 0.1087 0.0
H190 H 0.57447 0.61391 0.25849 0.0
H191 H 0.57987 0.50149 0.22703 0.0
H192 H 0.49322 0.59784 0.18549 0.0
H193 H 0.46898 0.57667 0.23683 0.0
H194 H 0.51965 0.62528 0.23469 0.0
H195 H 0.50829 0.46125 0.14826 0.0
H196 H 0.52095 0.44112 0.19592 0.0
H197 H 0.47043 0.43915 0.19149 0.0
H198 H 0.35342 0.45701 0.20515 0.0
H199 H 0.41538 0.51001 0.08386 0.0
H200 H 0.44001 0.50599 0.27153 0.0
H201 H 0.44203 0.4593 0.25691 0.0
H202 H 0.39123 0.45569 0.26669 0.0
H203 H 0.51675 0.57233 0.1214 0.0
H204 H 0.48902 0.54151 0.0742 0.0
H205 H 0.51588 0.52351 0.1103 0.0
C206 C 0.56153 0.94099 0.81662 0.0
C207 C 0.53176 0.89758 0.82108 0.0
C208 C 0.55266 0.97224 0.83245 0.0
C209 C 0.51388 0.95957 0.8547 0.0
C210 C 0.48428 0.91561 0.85999 0.0
C211 C 0.49321 0.88525 0.84229 0.0
C212 C 0.58419 0.01867 0.82448 0.0
C213 C 0.44319 0.90054 0.88465 0.0
C214 C 0.50309 0.0304 0.93828 0.0
C215 C 0.47329 0.03912 0.91861 0.0
C216 C 0.51804 1.00615 0.91714 0.0
C217 C 0.50452 0.99172 0.87431 0.0
C218 C 0.47796 1.00409 0.85256 0.0
C219 C 0.46215 0.02714 0.87513 0.0
C220 C 0.54572 0.99327 0.94198 0.0
C221 C 0.46424 0.99094 0.80623 0.0
H222 H 0.59095 0.95046 0.79926 0.0
H223 H 0.47011 0.85163 0.8454 0.0
H224 H 0.56845 0.03361 0.80667 0.0
H225 H 0.59554 0.03586 0.85575 0.0
H226 H 0.61221 0.02322 0.80547 0.0
H227 H 0.42443 0.86529 0.88734 0.0
H228 H 0.45009 0.91433 0.91782 0.0
H229 H 0.42329 0.91163 0.86824 0.0
H230 H 0.51335 0.04091 0.97125 0.0
H231 H 0.43947 0.03384 0.85933 0.0
H232 H 0.57451 1.00045 0.92299 0.0
H233 H 0.52778 0.95838 0.94762 0.0
H234 H 0.55589 0.0096 0.97388 0.0
H235 H 0.45055 0.00942 0.79156 0.0
H236 H 0.43971 0.95668 0.80516 0.0
H237 H 0.49155 0.99526 0.78618 0.0
C238 C 0.09934 0.5982 0.44871 0.0
C239 C 0.11283 0.63573 0.47272 0.0
C240 C 0.07193 0.55804 0.4667 0.0
C241 C 0.05752 0.5552 0.50987 0.0
C242 C 0.06962 0.59311 0.53371 0.0
C243 C 0.09721 0.633 0.51484 0.0
C244 C 0.06 0.5186 0.44009 0.0
C245 C 0.05475 0.59146 0.57975 0.0
C246 C 0.96699 0.44937 0.55232 0.0
C247 C 0.98965 0.43411 0.57584 0.0
C248 C 0.98851 0.48858 0.5302 0.0
C249 C 0.03366 0.51272 0.53146 0.0
C250 C 0.05653 0.49636 0.55371 0.0
C251 C 0.03428 0.45744 0.57566 0.0
C252 C 0.96295 0.50483 0.50679 0.0
C253 C 0.10462 0.52045 0.55523 0.0
H254 H 0.11109 0.60009 0.41597 0.0
H255 H 0.10741 0.66192 0.53342 0.0
H256 H 0.07486 0.50109 0.45438 0.0
H257 H 0.02503 0.49686 0.4406 0.0
H258 H 0.07056 0.52625 0.40583 0.0
H259 H 0.06366 0.62354 0.59248 0.0
H260 H 0.01967 0.57079 0.58176 0.0
H261 H 0.06908 0.57732 0.60102 0.0
H262 H 0.93248 0.43155 0.55273 0.0
H263 H 0.05185 0.4455 0.59361 0.0
H264 H 0.97426 0.51337 0.47289 0.0
H265 H 0.96753 0.53421 0.52293 0.0
H266 H 0.92837 0.48106 0.50632 0.0
H267 H 0.11776 0.52708 0.52183 0.0
H268 H 0.11759 0.50268 0.57277 0.0
H269 H 0.11606 0.55159 0.57158 0.0
C270 C 0.58737 0.55692 0.76462 0.0
C271 C 0.56437 0.57836 0.76071 0.0
C272 C 0.57027 0.51784 0.78638 0.0
C273 C 0.52877 0.49927 0.80417 0.0
C274 C 0.5057 0.52128 0.80112 0.0
C275 C 0.52405 0.56093 0.77986 0.0
C276 C 0.59625 0.49586 0.78928 0.0
C277 C 0.46139 0.50269 0.81951 0.0
C278 C 0.47454 0.37899 0.81932 0.0
C279 C 0.48289 0.37603 0.86311 0.0
C280 C 0.48769 0.41888 0.80009 0.0
C281 C 0.50974 0.45657 0.82528 0.0
C282 C 0.51662 0.45345 0.86995 0.0
C283 C 0.50314 0.41327 0.88828 0.0
C284 C 0.47922 0.42083 0.75248 0.0
C285 C 0.53975 0.4927 0.89803 0.0
H286 H 0.61855 0.57043 0.7497 0.0
H287 H 0.50613 0.57736 0.77647 0.0
H288 H 0.59957 0.48897 0.82364 0.0
H289 H 0.57967 0.46494 0.77186 0.0
H290 H 0.62857 0.51528 0.77515 0.0
H291 H 0.445 0.51958 0.80743 0.0
H292 H 0.44176 0.46844 0.81111 0.0
H293 H 0.46325 0.50519 0.85539 0.0
H294 H 0.45877 0.35028 0.79982 0.0
H295 H 0.50948 0.41115 0.92227 0.0
H296 H 0.50984 0.43694 0.73456 0.0
H297 H 0.46333 0.4399 0.74759 0.0
H298 H 0.45895 0.38869 0.7382 0.0
H299 H 0.57307 0.51236 0.88661 0.0
H300 H 0.5403 0.48474 0.93271 0.0
H301 H 0.52442 0.5125 0.89539 0.0
C302 C 0.45433 0.02806 0.43586 0.0
C303 C 0.43374 0.98411 0.42831 0.0
C304 C 0.49379 0.04919 0.45713 0.0
C305 C 0.51358 0.02591 0.47058 0.0
C306 C 0.49233 0.9812 0.46402 0.0
C307 C 0.4524 0.96072 0.44315 0.0
C308 C 0.51489 0.09672 0.464 0.0
C309 C 0.5126 0.95535 0.47724 0.0
C310 C 0.63395 0.09414 0.4835 0.0
C311 C 0.63767 0.10293 0.52803 0.0
C312 C 0.59386 0.06735 0.46456 0.0
C313 C 0.55677 0.04893 0.49086 0.0
C314 C 0.5608 0.05604 0.53619 0.0
C315 C 0.60114 0.08303 0.55416 0.0
C316 C 0.59097 0.06042 0.41613 0.0
C317 C 0.52226 0.03691 0.56548 0.0
H318 H 0.4399 0.04608 0.42405 0.0
H319 H 0.43671 0.92681 0.43664 0.0
H320 H 0.52245 0.10449 0.49884 0.0
H321 H 0.54539 0.11298 0.44589 0.0
H322 H 0.49455 0.10982 0.45308 0.0
H323 H 0.52408 0.9626 0.51121 0.0
H324 H 0.49029 0.92057 0.47403 0.0
H325 H 0.54075 0.96401 0.45645 0.0
H326 H 0.66211 0.10942 0.46323 0.0
H327 H 0.60387 0.08953 0.5887 0.0
H328 H 0.57456 0.07617 0.40128 0.0
H329 H 0.57181 0.02595 0.40851 0.0
H330 H 0.62284 0.07343 0.40087 0.0
H331 H 0.5031 0.05248 0.55924 0.0
H332 H 0.53117 0.04098 0.60035 0.0
H333 H 0.50163 1.00246 0.55857 0.0
C334 C 0.05365 0.49876 0.10412 0.0
C335 C 0.03224 0.45589 0.09159 0.0
C336 C 0.03177 0.51673 0.12504 0.0
C337 C 0.98766 0.49099 0.13392 0.0
C338 C 0.96647 0.44721 0.1227 0.0
C339 C 0.98896 0.43032 0.10134 0.0
C340 C 0.05541 0.56352 0.13618 0.0
C341 C 0.91968 0.41845 0.13202 0.0
C342 C 0.93119 0.52206 0.2179 0.0
C343 C 0.90853 0.53557 0.19176 0.0
C344 C 0.95844 0.50916 0.19964 0.0
C345 C 0.96311 0.50962 0.15404 0.0
C346 C 0.94159 0.52486 0.12757 0.0
C347 C 0.91453 0.53769 0.14678 0.0
C348 C 0.98084 0.49334 0.22908 0.0
C349 C 0.94587 0.52606 0.07883 0.0
H350 H 0.087 0.5186 0.09585 0.0
H351 H 0.97244 0.39727 0.0911 0.0
H352 H 0.04121 0.57999 0.11843 0.0
H353 H 0.05228 0.56799 0.17131 0.0
H354 H 0.08975 0.57897 0.12782 0.0
H355 H 0.90845 0.3848 0.123 0.0
H356 H 0.91323 0.41978 0.16699 0.0
H357 H 0.90074 0.42955 0.11369 0.0
H358 H 0.92682 0.52054 0.25276 0.0
H359 H 0.8971 0.54813 0.12649 0.0
H360 H 0.01543 0.51004 0.22186 0.0
H361 H 0.9683 0.45889 0.22323 0.0
H362 H 0.97645 0.49802 0.26392 0.0
H363 H 0.97996 0.54306 0.06943 0.0
H364 H 0.92992 0.54192 0.06311 0.0
H365 H 0.93153 0.49311 0.06603 0.0
C366 C 0.34711 0.2459 0.99721 0.0
C367 C 0.33755 0.23016 0.95459 0.0
C368 C 0.32404 0.26236 0.01801 0.0
C369 C 0.29 0.26265 0.99598 0.0
C370 C 0.27833 0.24432 0.954 0.0
C371 C 0.30239 0.22844 0.93366 0.0
C372 C 0.33802 0.28197 0.06253 0.0
C373 C 0.24188 0.24356 0.92966 0.0
C374 C 0.22132 0.29359 0.06377 0.0
C375 C 0.23994 0.33705 0.05407 0.0
C376 C 0.23617 0.26835 0.04398 0.0
C377 C 0.27087 0.28729 0.01458 0.0
C378 C 0.28967 0.33116 0.00491 0.0
C379 C 0.2739 0.35528 0.02462 0.0
C380 C 0.21509 0.22159 0.05477 0.0
C381 C 0.32731 0.35305 0.97457 0.0
H382 H 0.37374 0.2468 0.01407 0.0
H383 H 0.29456 0.21608 0.90088 0.0
H384 H 0.35166 0.31696 0.06032 0.0
H385 H 0.3104 0.26959 0.08486 0.0
H386 H 0.36242 0.27566 0.07686 0.0
H387 H 0.23292 0.22295 0.90039 0.0
H388 H 0.21357 0.2321 0.95096 0.0
H389 H 0.25108 0.27635 0.91932 0.0
H390 H 0.19498 0.2793 0.08644 0.0
H391 H 0.28907 0.38895 0.01768 0.0
H392 H 0.2381 0.2148 0.07153 0.0
H393 H 0.20516 0.20236 0.02454 0.0
H394 H 0.18676 0.21109 0.07591 0.0
H395 H 0.3547 0.35111 0.98791 0.0
H396 H 0.3374 0.38714 0.96948 0.0
H397 H 0.31939 0.33681 0.9426 0.0
C398 C 0.76012 0.09968 0.65884 0.0
C399 C 0.78182 0.10827 0.61914 0.0
C400 C 0.74208 0.05941 0.67811 0.0
C401 C 0.74685 0.027 0.65789 0.0
C402 C 0.7709 0.03607 0.61913 0.0
C403 C 0.78778 0.07654 0.59993 0.0
C404 C 0.71604 0.05102 0.71899 0.0
C405 C 0.77747 1.00257 0.59716 0.0
C406 C 0.71516 0.92983 0.7289 0.0
C407 C 0.67333 0.90245 0.71488 0.0
C408 C 0.74047 0.96974 0.70913 0.0
C409 C 0.72312 0.98285 0.67533 0.0
C410 C 0.68124 0.95491 0.66054 0.0
C411 C 0.65716 0.91497 0.68008 0.0
C412 C 0.78533 0.99832 0.72513 0.0
C413 C 0.66105 0.96789 0.62531 0.0
H414 H 0.756 0.12411 0.67447 0.0
H415 H 0.80484 0.08298 0.56948 0.0
H416 H 0.68239 0.02663 0.71243 0.0
H417 H 0.72788 0.03822 0.74469 0.0
H418 H 0.71682 0.08014 0.73155 0.0
H419 H 0.8013 0.01608 0.57061 0.0
H420 H 0.78809 0.98697 0.62105 0.0
H421 H 0.74687 0.97753 0.58329 0.0
H422 H 0.72803 0.92025 0.75549 0.0
H423 H 0.62499 0.89404 0.66878 0.0
H424 H 0.78737 0.02635 0.74195 0.0
H425 H 0.80781 0.01041 0.69739 0.0
H426 H 0.79574 0.98166 0.74799 0.0
H427 H 0.65877 0.99587 0.63621 0.0
H428 H 0.6286 0.94191 0.61662 0.0
H429 H 0.6811 0.97747 0.59572 0.0
C430 C 0.92071 0.65726 0.31107 0.0
C431 C 0.90683 0.67507 0.27914 0.0
C432 C 0.96076 0.68095 0.3305 0.0
C433 C 0.98755 0.72393 0.31833 0.0
C434 C 0.97348 0.74251 0.28673 0.0
C435 C 0.93335 0.71764 0.26707 0.0
C436 C 0.97482 0.65949 0.36326 0.0
C437 C 1.00096 0.78843 0.27348 0.0
C438 C 0.07798 0.78417 0.39842 0.0
C439 C 0.11071 0.78003 0.37898 0.0
C440 C 0.03836 0.76862 0.37765 0.0
C441 C 0.03124 0.74794 0.33691 0.0
C442 C 0.06486 0.7456 0.31631 0.0
C443 C 0.1042 0.76205 0.33736 0.0
C444 C 1.00347 0.77239 0.40027 0.0
C445 C 0.05857 0.72327 0.27322 0.0
H446 H 0.90056 0.62423 0.32031 0.0
H447 H 0.92263 0.73157 0.24258 0.0
H448 H 1.00378 0.65963 0.35137 0.0
H449 H 0.9832 0.67726 0.39437 0.0
H450 H 0.94984 0.62601 0.36965 0.0
H451 H 0.98422 0.79897 0.25089 0.0
H452 H 0.01102 0.80929 0.30257 0.0
H453 H 0.0303 0.79291 0.25742 0.0
H454 H 0.08282 0.79838 0.43036 0.0
H455 H 0.12946 0.75938 0.3216 0.0
H456 H 0.97888 0.74061 0.41214 0.0
H457 H 0.98768 0.78368 0.37735 0.0
H458 H 0.01571 0.79454 0.42837 0.0
H459 H 0.03578 0.68874 0.27719 0.0
H460 H 0.08881 0.72716 0.25995 0.0
H461 H 0.04471 0.73559 0.24915 0.0
C462 C 0.96948 0.32715 0.41214 0.0
C463 C 0.94882 0.2866 0.43122 0.0
C464 C 0.99884 0.33698 0.37825 0.0
C465 C 1.00788 0.30551 0.36287 0.0
C466 C 0.98712 0.26448 0.38191 0.0
C467 C 0.95786 0.25551 0.41586 0.0
C468 C 0.02026 0.38116 0.35895 0.0
C469 C 0.99589 0.23008 0.36645 0.0
C470 C 0.05653 0.32267 0.24996 0.0
C471 C 0.10007 0.34097 0.25942 0.0
C472 C 0.02608 0.3101 0.28327 0.0
C473 C 0.03941 0.31589 0.32716 0.0
C474 C 0.08318 0.33335 0.3369 0.0
C475 C 0.11293 0.34568 0.30298 0.0
C476 C 0.97973 0.29163 0.27148 0.0
C477 C 0.09875 0.34005 0.38322 0.0
H478 H 0.96274 0.35143 0.42368 0.0
H479 H 0.94205 0.22409 0.43034 0.0
H480 H 0.05531 0.39633 0.3625 0.0
H481 H 0.01326 0.37925 0.32374 0.0
H482 H 0.00974 0.40199 0.37455 0.0
H483 H 0.97693 0.19974 0.38438 0.0
H484 H 0.98847 0.22396 0.33138 0.0
H485 H 0.03019 0.24072 0.37047 0.0
H486 H 0.04622 0.3189 0.21646 0.0
H487 H 0.14645 0.35973 0.3107 0.0
H488 H 0.9682 0.31305 0.28319 0.0
H489 H 0.96022 0.26043 0.28765 0.0
H490 H 0.97428 0.2872 0.23594 0.0
H491 H 0.09183 0.36329 0.39939 0.0
H492 H 0.13351 0.35206 0.3854 0.0
H493 H 0.08165 0.30976 0.40153 0.0
C494 C 0.64625 0.68578 0.92278 0.0
C495 C 0.66591 0.72655 0.90418 0.0
C496 C 0.66586 0.67578 0.95636 0.0
C497 C 0.70624 0.70727 0.9719 0.0
C498 C 0.72624 0.74856 0.95344 0.0
C499 C 0.70583 0.75773 0.9198 0.0
C500 C 0.64336 0.63136 0.97509 0.0
C501 C 0.76929 0.78298 0.96911 0.0
C502 C 0.7374 0.68836 0.0841 0.0
C503 C 0.76266 0.67019 0.07403 0.0
C504 C 0.71972 0.70157 0.05123 0.0
C505 C 0.72751 0.6966 0.00718 0.0
C506 C 0.75387 0.67932 0.99683 0.0
C507 C 0.77108 0.66631 0.03033 0.0
C508 C 0.69172 0.71974 0.06364 0.0
C509 C 0.76299 0.67349 0.9503 0.0
H510 H 0.61537 0.66144 0.91105 0.0
H511 H 0.72125 0.78929 0.90566 0.0
H512 H 0.66338 0.6164 0.97094 0.0
H513 H 0.63834 0.63277 0.01041 0.0
H514 H 0.61199 0.61058 0.95952 0.0
H515 H 0.7804 0.81355 0.95173 0.0
H516 H 0.76796 0.7885 0.00433 0.0
H517 H 0.79316 0.77269 0.96452 0.0
H518 H 0.73067 0.69151 0.11772 0.0
H519 H 0.79058 0.6524 0.02216 0.0
H520 H 0.65879 0.69837 0.05192 0.0
H521 H 0.70329 0.75112 0.04792 0.0
H522 H 0.69069 0.72373 0.09928 0.0
H523 H 0.73296 0.65033 0.93392 0.0
H524 H 0.78596 0.66178 0.94768 0.0
H525 H 0.77601 0.70404 0.93251 0.0
C526 C 0.34757 0.10757 0.70029 0.0
C527 C 0.34267 0.09546 0.74408 0.0
C528 C 0.33436 0.07714 0.66687 0.0
C529 C 0.31571 0.03341 0.67735 0.0
C530 C 0.3097 0.02086 0.72146 0.0
C531 C 0.32323 0.05199 0.75426 0.0
C532 C 0.34142 0.09193 0.6203 0.0
C533 C 0.28999 0.97459 0.73403 0.0
C534 C 0.25419 0.95168 0.58882 0.0
C535 C 0.28471 0.94166 0.57385 0.0
C536 C 0.26364 0.98116 0.62273 0.0
C537 C 0.30455 1.00113 0.64215 0.0
C538 C 0.33533 0.99088 0.62735 0.0
C539 C 0.32506 0.96135 0.5935 0.0
C540 C 0.22994 0.9912 0.63759 0.0
C541 C 0.37935 0.01137 0.64707 0.0
H542 H 0.36251 0.14102 0.69198 0.0
H543 H 0.31928 0.04225 0.78794 0.0
H544 H 0.36405 0.08388 0.6046 0.0
H545 H 0.31107 0.07523 0.60197 0.0
H546 H 0.35436 0.12681 0.61751 0.0
H547 H 0.2853 0.96982 0.76962 0.0
H548 H 0.25874 0.9555 0.71773 0.0
H549 H 0.31074 0.96201 0.72306 0.0
H550 H 0.22294 0.93662 0.57392 0.0
H551 H 0.34889 0.95384 0.58231 0.0
H552 H 0.24128 0.02555 0.63277 0.0
H553 H 0.22388 0.98465 0.67278 0.0
H554 H 0.19944 0.97236 0.61982 0.0
H555 H 0.39558 0.04641 0.64283 0.0
H556 H 0.39945 0.99955 0.63227 0.0
H557 H 0.37704 1.00504 0.68244 0.0
C558 C 0.34952 0.52376 0.93125 0.0
C559 C 0.32911 0.53147 0.9658 0.0
C560 C 0.38071 0.55745 0.90672 0.0
C561 C 0.39156 0.59975 0.91693 0.0
C562 C 0.36977 0.60762 0.95051 0.0
C563 C 0.33874 0.57334 0.97456 0.0
C564 C 0.40319 0.54787 0.871 0.0
C565 C 0.3803 0.65234 0.96204 0.0
C566 C 0.50192 0.68811 0.88572 0.0
C567 C 0.49344 0.70332 0.84744 0.0
C568 C 0.46898 0.6544 0.90875 0.0
C569 C 0.42661 0.63583 0.89327 0.0
C570 C 0.4178 0.65138 0.85498 0.0
C571 C 0.45134 0.68487 0.83246 0.0
C572 C 0.47955 0.6384 0.9494 0.0
C573 C 0.37299 0.63242 0.83763 0.0
H574 H 0.34225 0.49151 0.92426 0.0
H575 H 0.32303 0.57956 0.00116 0.0
H576 H 0.40154 0.56269 0.84018 0.0
H577 H 0.43737 0.56176 0.87932 0.0
H578 H 0.38932 0.51311 0.86563 0.0
H579 H 0.35876 0.65285 0.98738 0.0
H580 H 0.41355 0.67065 0.97407 0.0
H581 H 0.37814 0.66899 0.93285 0.0
H582 H 0.53436 0.70216 0.89745 0.0
H583 H 0.44446 0.6966 0.80303 0.0
H584 H 0.46976 0.60428 0.94554 0.0
H585 H 0.46155 0.64082 0.97732 0.0
H586 H 0.51408 0.65647 0.9572 0.0
H587 H 0.36003 0.5982 0.83011 0.0
H588 H 0.37144 0.64875 0.80782 0.0
H589 H 0.35199 0.63443 0.86257 0.0
C590 C 0.34304 0.79847 0.49415 0.0
C591 C 0.30937 0.79981 0.51506 0.0
C592 C 0.37905 0.805 0.51736 0.0
C593 C 0.38094 0.81219 0.56261 0.0
C594 C 0.34699 0.81345 0.58391 0.0
C595 C 0.31172 0.80759 0.55978 0.0
C596 C 0.41522 0.8046 0.49348 0.0
C597 C 0.34777 0.82069 0.63224 0.0
C598 C 0.45094 0.78691 0.63292 0.0
C599 C 0.48467 0.82773 0.64269 0.0
C600 C 0.41747 0.78136 0.60594 0.0
C601 C 0.418 0.8175 0.58801 0.0
C602 C 0.45288 0.85868 0.59612 0.0
C603 C 0.48581 0.86332 0.6235 0.0
C604 C 0.38066 0.73695 0.59816 0.0
C605 C 0.45456 0.89799 0.57751 0.0
H606 H 0.34166 0.79313 0.45944 0.0
H607 H 0.2858 0.80875 0.57603 0.0
H608 H 0.44508 0.83534 0.49849 0.0
H609 H 0.42053 0.77917 0.50662 0.0
H610 H 0.40908 0.79929 0.45809 0.0
H611 H 0.31865 0.82048 0.64384 0.0
H612 H 0.35075 0.7956 0.64975 0.0
H613 H 0.37589 0.85172 0.64095 0.0
H614 H 0.44983 0.75923 0.64758 0.0
H615 H 0.51183 0.89498 0.63082 0.0
H616 H 0.37528 0.73058 0.56286 0.0
H617 H 0.3511 0.73412 0.61204 0.0
H618 H 0.386 0.7121 0.61296 0.0
H619 H 0.44578 0.89339 0.54267 0.0
H620 H 0.48659 0.92661 0.58116 0.0
H621 H 0.43118 0.90408 0.59456 0.0
C622 C 0.19949 0.51314 0.21965 0.0
C623 C 0.22147 0.52135 0.18019 0.0
C624 C 0.19801 0.54586 0.24254 0.0
C625 C 0.21908 0.58774 0.22559 0.0
C626 C 0.24161 0.59632 0.18603 0.0
C627 C 0.24255 0.56304 0.16381 0.0
C628 C 0.1736 0.53553 0.28469 0.0
C629 C 0.26433 0.64057 0.16693 0.0
C630 C 0.18 0.6611 0.26579 0.0
C631 C 0.20958 0.68384 0.2986 0.0
C632 C 0.18337 0.63049 0.24095 0.0
C633 C 0.21712 0.62247 0.24913 0.0
C634 C 0.24811 0.64659 0.28089 0.0
C635 C 0.24402 0.67709 0.30521 0.0
C636 C 0.14983 0.60559 0.20715 0.0
C637 C 0.28465 0.63903 0.29037 0.0
H638 H 0.18305 0.48106 0.23253 0.0
H639 H 0.25967 0.56977 0.13337 0.0
H640 H 0.19491 0.55549 0.31125 0.0
H641 H 0.14753 0.54302 0.282 0.0
H642 H 0.15957 0.50149 0.2938 0.0
H643 H 0.28102 0.64207 0.13619 0.0
H644 H 0.24113 0.65138 0.16046 0.0
H645 H 0.28797 0.6633 0.19041 0.0
H646 H 0.15333 0.66617 0.26041 0.0
H647 H 0.26704 0.69455 0.33046 0.0
H648 H 0.13045 0.5719 0.21752 0.0
H649 H 0.16489 0.60577 0.17577 0.0
H650 H 0.12819 0.61859 0.20194 0.0
H651 H 0.27213 0.60638 0.30332 0.0
H652 H 0.30738 0.66213 0.31431 0.0
H653 H 0.30221 0.64129 0.2601 0.0
C654 C 0.5746 0.33251 0.03071 0.0
C655 C 0.53331 0.32519 0.03831 0.0
C656 C 0.60926 0.36264 0.05514 0.0
C657 C 0.60237 0.38584 0.08797 0.0
C658 C 0.56052 0.377 0.09731 0.0
C659 C 0.52644 0.34673 0.07237 0.0
C660 C 0.65345 0.37104 0.04445 0.0
C661 C 0.55192 0.40093 0.13227 0.0
C662 C 0.68857 0.447 0.17149 0.0
C663 C 0.70772 0.48865 0.15511 0.0
C664 C 0.6545 0.41311 0.14977 0.0
C665 C 0.63915 0.42107 0.11083 0.0
C666 C 0.65854 0.4629 0.09386 0.0
C667 C 0.69266 0.4962 0.11617 0.0
C668 C 0.63461 0.36889 0.16876 0.0
C669 C 0.64291 0.47259 0.05238 0.0
H670 H 0.58017 0.31587 0.00456 0.0
H671 H 0.49462 0.34115 0.07855 0.0
H672 H 0.6727 0.40365 0.0311 0.0
H673 H 0.66972 0.36942 0.07423 0.0
H674 H 0.65301 0.348 0.02036 0.0
H675 H 0.5173 0.38752 0.13808 0.0
H676 H 0.56723 0.40026 0.16316 0.0
H677 H 0.56586 0.4348 0.12272 0.0
H678 H 0.69993 0.44079 0.20154 0.0
H679 H 0.70716 0.52824 0.1033 0.0
H680 H 0.63539 0.34651 0.14469 0.0
H681 H 0.60068 0.35724 0.1766 0.0
H682 H 0.65109 0.36786 0.19871 0.0
H683 H 0.64425 0.45296 0.02545 0.0
H684 H 0.66195 0.50669 0.04315 0.0
H685 H 0.60916 0.4642 0.05611 0.0
C686 C 0.66315 0.17927 0.73435 0.0
C687 C 0.68501 0.20789 0.70061 0.0
C688 C 0.63286 0.18307 0.75927 0.0
C689 C 0.62445 0.21644 0.75033 0.0
C690 C 0.6477 0.2465 0.71759 0.0
C691 C 0.67775 0.24187 0.69309 0.0
C692 C 0.60872 0.15043 0.79403 0.0
C693 C 0.63969 0.28261 0.70733 0.0
C694 C 0.51542 0.19841 0.78135 0.0
C695 C 0.52419 0.22102 0.8205 0.0
C696 C 0.54788 0.19701 0.75796 0.0
C697 C 0.5901 0.21883 0.77409 0.0
C698 C 0.5993 0.24224 0.81319 0.0
C699 C 0.56624 0.24305 0.83594 0.0
C700 C 0.53689 0.17166 0.71632 0.0
C701 C 0.64398 0.26594 0.83128 0.0
H702 H 0.6686 0.15294 0.74042 0.0
H703 H 0.69457 0.26415 0.66713 0.0
H704 H 0.61105 0.16647 0.82542 0.0
H705 H 0.57447 0.1319 0.78532 0.0
H706 H 0.62072 0.12787 0.79854 0.0
H707 H 0.66227 0.30475 0.68274 0.0
H708 H 0.60679 0.26958 0.69485 0.0
H709 H 0.64241 0.30094 0.73717 0.0
H710 H 0.48305 0.18126 0.76918 0.0
H711 H 0.57339 0.26072 0.86611 0.0
H712 H 0.54458 0.14576 0.71941 0.0
H713 H 0.55629 0.19239 0.68923 0.0
H714 H 0.50267 0.15729 0.70774 0.0
H715 H 0.65522 0.2432 0.8384 0.0
H716 H 0.64601 0.28362 0.86149 0.0
H717 H 0.66606 0.28885 0.80695 0.0
C718 C 0.81486 0.31264 0.44264 0.0
C719 C 0.78753 0.29526 0.4783 0.0
C720 C 0.81172 0.34145 0.41482 0.0
C721 C 0.78002 0.35259 0.42248 0.0
C722 C 0.75225 0.33511 0.45833 0.0
C723 C 0.75652 0.30684 0.48602 0.0
C724 C 0.84231 0.3599 0.3772 0.0
C725 C 0.71779 0.34596 0.46716 0.0
C726 C 0.79729 0.45421 0.36931 0.0
C727 C 0.77378 0.43844 0.33093 0.0
C728 C 0.79877 0.42652 0.40006 0.0
C729 C 0.77567 0.38208 0.39241 0.0
C730 C 0.75023 0.36592 0.35472 0.0
C731 C 0.74981 0.39434 0.32426 0.0
C732 C 0.82661 0.44492 0.43968 0.0
C733 C 0.7247 0.31867 0.34579 0.0
H734 H 0.83905 0.30403 0.4366 0.0
H735 H 0.73514 0.29335 0.51341 0.0
H736 H 0.82443 0.35064 0.34617 0.0
H737 H 0.85963 0.39519 0.37894 0.0
H738 H 0.866 0.34899 0.37662 0.0
H739 H 0.69892 0.32978 0.49656 0.0
H740 H 0.73208 0.38085 0.47145 0.0
H741 H 0.69588 0.33659 0.43899 0.0
H742 H 0.81607 0.4883 0.37451 0.0
H743 H 0.73141 0.38202 0.29473 0.0
H744 H 0.8531 0.43792 0.43843 0.0
H745 H 0.80809 0.42991 0.46953 0.0
H746 H 0.8404 0.47995 0.4422 0.0
H747 H 0.74658 0.30601 0.34044 0.0
H748 H 0.70395 0.31117 0.3168 0.0
H749 H 0.70449 0.30172 0.37416 0.0
C750 C 0.94501 0.35578 0.75677 0.0
C751 C 0.97495 0.37195 0.72309 0.0
C752 C 0.95804 0.36188 0.80034 0.0
C753 C 1.00206 0.38435 0.81039 0.0
C754 C 0.03241 0.40012 0.77647 0.0
C755 C 0.01848 0.39386 0.73324 0.0
C756 C 0.92473 0.3449 0.83563 0.0
C757 C 0.07962 0.4238 0.78584 0.0
C758 C 0.03714 0.43683 0.921 0.0
C759 C 0.04404 0.40728 0.94365 0.0
C760 C 0.02322 0.42961 0.87775 0.0
C761 C 0.01641 0.39212 0.8564 0.0
C762 C 0.0236 0.3623 0.87888 0.0
C763 C 0.03714 0.37013 0.92228 0.0
C764 C 0.01582 0.46215 0.85488 0.0
C765 C 0.0169 0.32205 0.85712 0.0
H766 H 0.91133 0.33913 0.74902 0.0
H767 H 0.04172 0.40589 0.70725 0.0
H768 H 0.92951 0.32312 0.85708 0.0
H769 H 0.92797 0.37159 0.85607 0.0
H770 H 0.89184 0.32748 0.8224 0.0
H771 H 0.09907 0.43309 0.75575 0.0
H772 H 0.08817 0.45299 0.80487 0.0
H773 H 0.08816 0.40373 0.80577 0.0
H774 H 0.043 0.46591 0.937 0.0
H775 H 0.04174 0.3468 0.93967 0.0
H776 H 0.98253 0.44694 0.84294 0.0
H777 H 0.03699 0.47479 0.82619 0.0
H778 H 0.02182 0.48925 0.87633 0.0
H779 H 0.98331 0.30264 0.84639 0.0
H780 H 0.02451 0.3024 0.87891 0.0
H781 H 0.03716 0.33012 0.82775 0.0
C782 C 0.63475 0.61745 0.60341 0.0
C783 C 0.61337 0.63962 0.61351 0.0
C784 C 0.64219 0.6109 0.56019 0.0
C785 C 0.62766 0.62669 0.52628 0.0
C786 C 0.60637 0.64942 0.53629 0.0
C787 C 0.5996 0.65574 0.57982 0.0
C788 C 0.66538 0.58688 0.55079 0.0
C789 C 0.59015 0.66647 0.50099 0.0
C790 C 0.67576 0.64068 0.41386 0.0
C791 C 0.64487 0.60391 0.39253 0.0
C792 C 0.6708 0.64833 0.45752 0.0
C793 C 0.63391 0.61865 0.48031 0.0
C794 C 0.60273 0.58138 0.45908 0.0
C795 C 0.60866 0.57438 0.41552 0.0
C796 C 0.70481 0.68836 0.47915 0.0
C797 C 0.56295 0.54899 0.48231 0.0
H798 H 0.64593 0.60543 0.62942 0.0
H799 H 0.58272 0.67255 0.58753 0.0
H800 H 0.64452 0.55766 0.5319 0.0
H801 H 0.69397 0.6067 0.5307 0.0
H802 H 0.67551 0.57758 0.58087 0.0
H803 H 0.57496 0.68418 0.51422 0.0
H804 H 0.61672 0.68802 0.4794 0.0
H805 H 0.5665 0.6398 0.48071 0.0
H806 H 0.70353 0.66395 0.39617 0.0
H807 H 0.58497 0.54559 0.39947 0.0
H808 H 0.71676 0.68011 0.50856 0.0
H809 H 0.69116 0.70827 0.4898 0.0
H810 H 0.73217 0.7076 0.45729 0.0
H811 H 0.57162 0.53662 0.51109 0.0
H812 H 0.54175 0.5217 0.46114 0.0
H813 H 0.54489 0.56428 0.49416 0.0
C814 C 0.44148 0.0402 0.0863 0.0
C815 C 0.41193 0.04582 0.06198 0.0
C816 C 0.43324 0.02642 0.1295 0.0
C817 C 0.39484 0.01877 0.1493 0.0
C818 C 0.36514 0.02503 0.12531 0.0
C819 C 0.37389 0.03816 0.08186 0.0
C820 C 0.46559 0.01982 0.15391 0.0
C821 C 0.32405 0.01764 0.1455 0.0
C822 C 0.35704 0.94637 0.24788 0.0
C823 C 0.37233 0.97595 0.28197 0.0
C824 C 0.36377 0.95987 0.20451 0.0
C825 C 0.3858 1.004 0.19509 0.0
C826 C 0.40047 0.03398 0.22944 0.0
C827 C 0.39383 0.01958 0.2725 0.0
C828 C 0.34818 0.92693 0.16878 0.0
C829 C 0.42348 0.08127 0.22071 0.0
H830 H 0.47133 0.04681 0.0716 0.0
H831 H 0.35058 0.04183 0.06328 0.0
H832 H 0.47697 0.04092 0.18278 0.0
H833 H 0.45061 0.98653 0.16572 0.0
H834 H 0.49354 0.02645 0.13357 0.0
H835 H 0.30499 0.02533 0.12293 0.0
H836 H 0.30452 0.98387 0.15551 0.0
H837 H 0.3309 0.03742 0.17514 0.0
H838 H 0.3407 0.91262 0.25519 0.0
H839 H 0.40523 0.04247 0.29887 0.0
H840 H 0.37561 0.9308 0.14925 0.0
H841 H 0.32678 0.93154 0.14658 0.0
H842 H 0.33078 0.89389 0.18155 0.0
H843 H 0.45359 0.09074 0.20308 0.0
H844 H 0.43113 0.10034 0.25101 0.0
H845 H 0.40374 0.08937 0.19967 0.0
loop_
_geom_bond_atom_site_label_1
_geom_bond_atom_site_label_2
_geom_bond_distance
_geom_bond_site_symmetry_2
_ccdc_geom_bond_type
O0 Tb1 2.292 1_556 S
O0 C3 1.255 . S
Tb1 O0 2.292 1_554 S
Tb1 O17 2.326 . S
Tb1 O19 2.500 . S
Tb1 O20 2.473 . S
Tb1 O23 2.324 . S
Eu2 O6 2.292 . S
Eu2 C7 2.852 . S
Eu2 O18 2.324 . S
Eu2 O22 2.326 . S
Eu2 O24 2.500 . S
Eu2 O25 2.473 . S
C3 O0 1.255 . S
C3 O4 1.247 . S
O4 C3 1.247 . S
C5 O17 1.242 . S
C5 O18 1.258 . S
O6 Eu2 2.292 . S
O6 C8 1.255 . S
C7 Eu2 2.852 . S
C7 C11 1.503 . S
C7 O24 1.273 . S
C7 O25 1.257 . S
C8 O6 1.255 . S
C8 O9 1.247 . S
O9 C8 1.247 . S
C10 O22 1.242 . S
C10 O23 1.258 . S
C11 C7 1.503 . S
C11 C12 1.379 . S
C11 C16 1.392 . S
C12 C11 1.379 . S
C12 C13 1.404 1_554 S
C12 H26 0.929 1_554 S
C13 C12 1.404 1_556 S
C13 C14 1.389 . S
C14 C13 1.389 . S
C14 C15 1.399 1_556 S
C14 H27 0.931 . S
C15 C14 1.399 1_554 S
C15 C16 1.390 . S
C16 C11 1.392 . S
C16 C15 1.390 . S
C16 H28 0.929 . S
O17 Tb1 2.326 . S
O17 C5 1.242 . S
O18 Eu2 2.324 . S
O18 C5 1.258 . S
O19 Tb1 2.500 . S
O19 C21 1.273 . S
O20 Tb1 2.473 . S
O20 C21 1.257 . S
C21 O19 1.273 . S
C21 O20 1.257 . S
O22 Eu2 2.326 . S
O22 C10 1.242 . S
O23 Tb1 2.324 . S
O23 C10 1.258 . S
O24 Eu2 2.500 . S
O24 C7 1.273 . S
O25 Eu2 2.473 . S
O25 C7 1.257 . S
H26 C12 0.929 1_556 S
H27 C14 0.931 . S
H28 C16 0.929 . S
O29 Tb30 2.292 . S
O29 C32 1.255 . S
Tb30 O29 2.292 . S
Tb30 O46 2.326 . S
Tb30 O48 2.500 . S
Tb30 O49 2.473 . S
Tb30 O52 2.324 . S
Eu31 O35 2.292 . S
Eu31 C36 2.852 . S
Eu31 O47 2.324 . S
Eu31 O51 2.326 . S
Eu31 O53 2.500 . S
Eu31 O54 2.473 . S
C32 O29 1.255 . S
C32 O33 1.247 . S
O33 C32 1.247 . S
C34 O46 1.242 . S
C34 O47 1.258 . S
O35 Eu31 2.292 . S
O35 C37 1.255 . S
C36 Eu31 2.852 . S
C36 C40 1.503 . S
C36 O53 1.273 . S
C36 O54 1.257 . S
C37 O35 1.255 . S
C37 O38 1.247 . S
O38 C37 1.247 . S
C39 O51 1.242 . S
C39 O52 1.258 . S
C40 C36 1.503 . S
C40 C41 1.379 . S
C40 C45 1.392 . S
C41 C40 1.379 . S
C41 C42 1.404 . S
C41 H55 0.929 . S
C42 C41 1.404 . S
C42 C43 1.389 . S
C43 C42 1.389 . S
C43 C44 1.399 . S
C43 H56 0.931 . S
C44 C43 1.399 . S
C44 C45 1.390 . S
C45 C40 1.392 . S
C45 C44 1.390 . S
C45 H57 0.929 . S
O46 Tb30 2.326 . S
O46 C34 1.242 . S
O47 Eu31 2.324 . S
O47 C34 1.258 . S
O48 Tb30 2.500 . S
O48 C50 1.273 . S
O49 Tb30 2.473 . S
O49 C50 1.257 . S
C50 O48 1.273 . S
C50 O49 1.257 . S
O51 Eu31 2.326 . S
O51 C39 1.242 . S
O52 Tb30 2.324 . S
O52 C39 1.258 . S
O53 Eu31 2.500 . S
O53 C36 1.273 . S
O54 Eu31 2.473 . S
O54 C36 1.257 . S
H55 C41 0.929 . S
H56 C43 0.931 . S
H57 C45 0.929 . S
O58 Tb59 2.292 . S
O58 C61 1.255 . S
Tb59 O58 2.292 . S
Tb59 O75 2.326 . S
Tb59 O77 2.500 . S
Tb59 O78 2.473 . S
Tb59 O81 2.324 . S
Eu60 O64 2.292 . S
Eu60 C65 2.852 . S
Eu60 O76 2.324 . S
Eu60 O80 2.326 . S
Eu60 O82 2.500 . S
Eu60 O83 2.473 . S
C61 O58 1.255 . S
C61 O62 1.247 . S
O62 C61 1.247 . S
C63 O75 1.242 . S
C63 O76 1.258 . S
O64 Eu60 2.292 . S
O64 C66 1.255 . S
C65 Eu60 2.852 . S
C65 C69 1.503 . S
C65 O82 1.273 . S
C65 O83 1.257 . S
C66 O64 1.255 . S
C66 O67 1.247 . S
O67 C66 1.247 . S
C68 O80 1.242 . S
C68 O81 1.258 . S
C69 C65 1.503 . S
C69 C70 1.379 . S
C69 C74 1.392 . S
C70 C69 1.379 . S
C70 C71 1.404 . S
C70 H84 0.929 . S
C71 C70 1.404 . S
C71 C72 1.389 . S
C72 C71 1.389 . S
C72 C73 1.399 . S
C72 H85 0.931 . S
C73 C72 1.399 . S
C73 C74 1.390 . S
C74 C69 1.392 . S
C74 C73 1.390 . S
C74 H86 0.929 . S
O75 Tb59 2.326 . S
O75 C63 1.242 . S
O76 Eu60 2.324 . S
O76 C63 1.258 . S
O77 Tb59 2.500 . S
O77 C79 1.273 . S
O78 Tb59 2.473 . S
O78 C79 1.257 . S
C79 O77 1.273 . S
C79 O78 1.257 . S
O80 Eu60 2.326 . S
O80 C68 1.242 . S
O81 Tb59 2.324 . S
O81 C68 1.258 . S
O82 Eu60 2.500 . S
O82 C65 1.273 . S
O83 Eu60 2.473 . S
O83 C65 1.257 . S
H84 C70 0.929 . S
H85 C72 0.931 . S
H86 C74 0.929 . S
O87 Tb88 2.292 1_554 S
O87 C90 1.255 . S
Tb88 O87 2.292 1_556 S
Tb88 O104 2.326 . S
Tb88 O106 2.500 . S
Tb88 O107 2.473 . S
Tb88 O110 2.324 . S
Eu89 O93 2.292 . S
Eu89 C94 2.852 . S
Eu89 O105 2.324 . S
Eu89 O109 2.326 . S
Eu89 O111 2.500 . S
Eu89 O112 2.473 . S
C90 O87 1.255 . S
C90 O91 1.247 . S
O91 C90 1.247 . S
C92 O104 1.242 . S
C92 O105 1.258 . S
O93 Eu89 2.292 . S
O93 C95 1.255 . S
C94 Eu89 2.852 . S
C94 C98 1.503 . S
C94 O111 1.273 . S
C94 O112 1.257 . S
C95 O93 1.255 . S
C95 O96 1.247 . S
O96 C95 1.247 . S
C97 O109 1.242 . S
C97 O110 1.258 . S
C98 C94 1.503 . S
C98 C99 1.379 . S
C98 C103 1.392 . S
C99 C98 1.379 . S
C99 C100 1.404 1_556 S
C99 H113 0.929 1_556 S
C100 C99 1.404 1_554 S
C100 C101 1.389 . S
C101 C100 1.389 . S
C101 C102 1.399 1_554 S
C101 H114 0.931 . S
C102 C101 1.399 1_556 S
C102 C103 1.390 . S
C103 C98 1.392 . S
C103 C102 1.390 . S
C103 H115 0.929 . S
O104 Tb88 2.326 . S
O104 C92 1.242 . S
O105 Eu89 2.324 . S
O105 C92 1.258 . S
O106 Tb88 2.500 . S
O106 C108 1.273 . S
O107 Tb88 2.473 . S
O107 C108 1.257 . S
C108 O106 1.273 . S
C108 O107 1.257 . S
O109 Eu89 2.326 . S
O109 C97 1.242 . S
O110 Tb88 2.324 . S
O110 C97 1.258 . S
O111 Eu89 2.500 . S
O111 C94 1.273 . S
O112 Eu89 2.473 . S
O112 C94 1.257 . S
H113 C99 0.929 1_554 S
H114 C101 0.931 . S
H115 C103 0.929 . S
O116 Tb117 2.292 . S
O116 C119 1.255 . S
Tb117 O116 2.292 . S
Tb117 O133 2.326 . S
Tb117 O135 2.500 . S
Tb117 O136 2.473 . S
Tb117 O139 2.324 . S
Eu118 O122 2.292 . S
Eu118 C123 2.852 . S
Eu118 O134 2.324 . S
Eu118 O138 2.326 . S
Eu118 O140 2.500 . S
Eu118 O141 2.473 . S
C119 O116 1.255 . S
C119 O120 1.247 . S
O120 C119 1.247 . S
C121 O133 1.242 . S
C121 O134 1.258 . S
O122 Eu118 2.292 . S
O122 C124 1.255 . S
C123 Eu118 2.852 . S
C123 C127 1.503 . S
C123 O140 1.273 . S
C123 O141 1.257 . S
C124 O122 1.255 . S
C124 O125 1.247 . S
O125 C124 1.247 . S
C126 O138 1.242 . S
C126 O139 1.258 . S
C127 C123 1.503 . S
C127 C128 1.379 . S
C127 C132 1.392 . S
C128 C127 1.379 . S
C128 C129 1.404 . S
C128 H142 0.929 . S
C129 C128 1.404 . S
C129 C130 1.389 . S
C130 C129 1.389 . S
C130 C131 1.399 . S
C130 H143 0.931 . S
C131 C130 1.399 . S
C131 C132 1.390 . S
C132 C127 1.392 . S
C132 C131 1.390 . S
C132 H144 0.929 . S
O133 Tb117 2.326 . S
O133 C121 1.242 . S
O134 Eu118 2.324 . S
O134 C121 1.258 . S
O135 Tb117 2.500 . S
O135 C137 1.273 . S
O136 Tb117 2.473 . S
O136 C137 1.257 . S
C137 O135 1.273 . S
C137 O136 1.257 . S
O138 Eu118 2.326 . S
O138 C126 1.242 . S
O139 Tb117 2.324 . S
O139 C126 1.258 . S
O140 Eu118 2.500 . S
O140 C123 1.273 . S
O141 Eu118 2.473 . S
O141 C123 1.257 . S
H142 C128 0.929 . S
H143 C130 0.931 . S
H144 C132 0.929 . S
O145 Tb146 2.292 . S
O145 C148 1.255 . S
Tb146 O145 2.292 . S
Tb146 O162 2.326 . S
Tb146 O164 2.500 . S
Tb146 O165 2.473 . S
Tb146 O168 2.324 . S
Eu147 O151 2.292 . S
Eu147 C152 2.852 . S
Eu147 O163 2.324 . S
Eu147 O167 2.326 . S
Eu147 O169 2.500 . S
Eu147 O170 2.473 . S
C148 O145 1.255 . S
C148 O149 1.247 . S
O149 C148 1.247 . S
C150 O162 1.242 . S
C150 O163 1.258 . S
O151 Eu147 2.292 . S
O151 C153 1.255 . S
C152 Eu147 2.852 . S
C152 C156 1.503 . S
C152 O169 1.273 . S
C152 O170 1.257 . S
C153 O151 1.255 . S
C153 O154 1.247 . S
O154 C153 1.247 . S
C155 O167 1.242 . S
C155 O168 1.258 . S
C156 C152 1.503 . S
C156 C157 1.379 . S
C156 C161 1.392 . S
C157 C156 1.379 . S
C157 C158 1.404 . S
C157 H171 0.929 . S
C158 C157 1.404 . S
C158 C159 1.389 . S
C159 C158 1.389 . S
C159 C160 1.399 . S
C159 H172 0.931 . S
C160 C159 1.399 . S
C160 C161 1.390 . S
C161 C156 1.392 . S
C161 C160 1.390 . S
C161 H173 0.929 . S
O162 Tb146 2.326 . S
O162 C150 1.242 . S
O163 Eu147 2.324 . S
O163 C150 1.258 . S
O164 Tb146 2.500 . S
O164 C166 1.273 . S
O165 Tb146 2.473 . S
O165 C166 1.257 . S
C166 O164 1.273 . S
C166 O165 1.257 . S
O167 Eu147 2.326 . S
O167 C155 1.242 . S
O168 Tb146 2.324 . S
O168 C155 1.258 . S
O169 Eu147 2.500 . S
O169 C152 1.273 . S
O170 Eu147 2.473 . S
O170 C152 1.257 . S
H171 C157 0.929 . S
H172 C159 0.931 . S
H173 C161 0.929 . S
C174 C175 1.391 . S
C174 C176 1.394 . S
C174 H190 0.931 . S
C175 C174 1.391 . S
C175 C179 1.376 . S
C176 C174 1.394 . S
C176 C177 1.369 . S
C176 C180 1.531 . S
C177 C176 1.369 . S
C177 C178 1.410 . S
C177 C185 1.503 . S
C178 C177 1.410 . S
C178 C179 1.392 . S
C178 C181 1.511 . S
C179 C175 1.376 . S
C179 C178 1.392 . S
C179 H191 0.929 . S
C180 C176 1.531 . S
C180 H192 0.960 . S
C180 H193 0.962 . S
C180 H194 0.960 . S
C181 C178 1.511 . S
C181 H195 0.961 . S
C181 H196 0.961 . S
C181 H197 0.961 . S
C182 C183 1.370 . S
C182 C184 1.363 . S
C182 H198 0.931 . S
C183 C182 1.370 . S
C183 C187 1.408 . S
C184 C182 1.363 . S
C184 C185 1.370 . S
C184 C188 1.524 . S
C185 C177 1.503 . S
C185 C184 1.370 . S
C185 C186 1.403 . S
C186 C185 1.403 . S
C186 C187 1.404 . S
C186 C189 1.539 . S
C187 C183 1.408 . S
C187 C186 1.404 . S
C187 H199 0.930 . S
C188 C184 1.524 . S
C188 H200 0.956 . S
C188 H201 0.961 . S
C188 H202 0.961 . S
C189 C186 1.539 . S
C189 H203 0.958 . S
C189 H204 0.961 . S
C189 H205 0.960 . S
H190 C174 0.931 . S
H191 C179 0.929 . S
H192 C180 0.960 . S
H193 C180 0.962 . S
H194 C180 0.960 . S
H195 C181 0.961 . S
H196 C181 0.961 . S
H197 C181 0.961 . S
H198 C182 0.931 . S
H199 C187 0.930 . S
H200 C188 0.956 . S
H201 C188 0.961 . S
H202 C188 0.961 . S
H203 C189 0.958 . S
H204 C189 0.961 . S
H205 C189 0.960 . S
C206 C207 1.391 . S
C206 C208 1.394 . S
C206 H222 0.931 . S
C207 C206 1.391 . S
C207 C211 1.376 . S
C208 C206 1.394 . S
C208 C209 1.369 . S
C208 C212 1.531 . S
C209 C208 1.369 . S
C209 C210 1.410 . S
C209 C217 1.503 . S
C210 C209 1.410 . S
C210 C211 1.392 . S
C210 C213 1.511 . S
C211 C207 1.376 . S
C211 C210 1.392 . S
C211 H223 0.929 . S
C212 C208 1.531 . S
C212 H224 0.960 . S
C212 H225 0.962 . S
C212 H226 0.960 . S
C213 C210 1.511 . S
C213 H227 0.961 . S
C213 H228 0.961 . S
C213 H229 0.961 . S
C214 C215 1.370 . S
C214 C216 1.363 . S
C214 H230 0.931 . S
C215 C214 1.370 . S
C215 C219 1.408 . S
C216 C214 1.363 . S
C216 C217 1.370 . S
C216 C220 1.524 . S
C217 C209 1.503 . S
C217 C216 1.370 . S
C217 C218 1.403 . S
C218 C217 1.403 . S
C218 C219 1.404 . S
C218 C221 1.539 . S
C219 C215 1.408 . S
C219 C218 1.404 . S
C219 H231 0.930 . S
C220 C216 1.524 . S
C220 H232 0.956 . S
C220 H233 0.961 . S
C220 H234 0.961 . S
C221 C218 1.539 . S
C221 H235 0.958 . S
C221 H236 0.961 . S
C221 H237 0.960 . S
H222 C206 0.931 . S
H223 C211 0.929 . S
H224 C212 0.960 . S
H225 C212 0.962 . S
H226 C212 0.960 . S
H227 C213 0.961 . S
H228 C213 0.961 . S
H229 C213 0.961 . S
H230 C214 0.931 . S
H231 C219 0.930 . S
H232 C220 0.956 . S
H233 C220 0.961 . S
H234 C220 0.961 . S
H235 C221 0.958 . S
H236 C221 0.961 . S
H237 C221 0.960 . S
C238 C239 1.391 . S
C238 C240 1.394 . S
C238 H254 0.931 . S
C239 C238 1.391 . S
C239 C243 1.376 . S
C240 C238 1.394 . S
C240 C241 1.369 . S
C240 C244 1.531 . S
C241 C240 1.369 . S
C241 C242 1.410 . S
C241 C249 1.503 . S
C242 C241 1.410 . S
C242 C243 1.392 . S
C242 C245 1.511 . S
C243 C239 1.376 . S
C243 C242 1.392 . S
C243 H255 0.929 . S
C244 C240 1.531 . S
C244 H256 0.960 . S
C244 H257 0.962 . S
C244 H258 0.960 . S
C245 C242 1.511 . S
C245 H259 0.961 . S
C245 H260 0.961 . S
C245 H261 0.961 . S
C246 C247 1.370 . S
C246 C248 1.363 . S
C246 H262 0.931 . S
C247 C246 1.370 . S
C247 C251 1.408 . S
C248 C246 1.363 . S
C248 C249 1.370 . S
C248 C252 1.524 . S
C249 C241 1.503 . S
C249 C248 1.370 . S
C249 C250 1.403 . S
C250 C249 1.403 . S
C250 C251 1.404 . S
C250 C253 1.539 . S
C251 C247 1.408 . S
C251 C250 1.404 . S
C251 H263 0.930 . S
C252 C248 1.524 . S
C252 H264 0.956 . S
C252 H265 0.961 . S
C252 H266 0.961 . S
C253 C250 1.539 . S
C253 H267 0.958 . S
C253 H268 0.961 . S
C253 H269 0.960 . S
H254 C238 0.931 . S
H255 C243 0.929 . S
H256 C244 0.960 . S
H257 C244 0.962 . S
H258 C244 0.960 . S
H259 C245 0.961 . S
H260 C245 0.961 . S
H261 C245 0.961 . S
H262 C246 0.931 . S
H263 C251 0.930 . S
H264 C252 0.956 . S
H265 C252 0.961 . S
H266 C252 0.961 . S
H267 C253 0.958 . S
H268 C253 0.961 . S
H269 C253 0.960 . S
C270 C271 1.391 . S
C270 C272 1.394 . S
C270 H286 0.931 . S
C271 C270 1.391 . S
C271 C275 1.376 . S
C272 C270 1.394 . S
C272 C273 1.369 . S
C272 C276 1.531 . S
C273 C272 1.369 . S
C273 C274 1.410 . S
C273 C281 1.503 . S
C274 C273 1.410 . S
C274 C275 1.392 . S
C274 C277 1.511 . S
C275 C271 1.376 . S
C275 C274 1.392 . S
C275 H287 0.929 . S
C276 C272 1.531 . S
C276 H288 0.960 . S
C276 H289 0.962 . S
C276 H290 0.960 . S
C277 C274 1.511 . S
C277 H291 0.961 . S
C277 H292 0.961 . S
C277 H293 0.961 . S
C278 C279 1.370 . S
C278 C280 1.363 . S
C278 H294 0.931 . S
C279 C278 1.370 . S
C279 C283 1.408 . S
C280 C278 1.363 . S
C280 C281 1.370 . S
C280 C284 1.524 . S
C281 C273 1.503 . S
C281 C280 1.370 . S
C281 C282 1.403 . S
C282 C281 1.403 . S
C282 C283 1.404 . S
C282 C285 1.539 . S
C283 C279 1.408 . S
C283 C282 1.404 . S
C283 H295 0.930 . S
C284 C280 1.524 . S
C284 H296 0.956 . S
C284 H297 0.961 . S
C284 H298 0.961 . S
C285 C282 1.539 . S
C285 H299 0.958 . S
C285 H300 0.961 . S
C285 H301 0.960 . S
H286 C270 0.931 . S
H287 C275 0.929 . S
H288 C276 0.960 . S
H289 C276 0.962 . S
H290 C276 0.960 . S
H291 C277 0.961 . S
H292 C277 0.961 . S
H293 C277 0.961 . S
H294 C278 0.931 . S
H295 C283 0.930 . S
H296 C284 0.956 . S
H297 C284 0.961 . S
H298 C284 0.961 . S
H299 C285 0.958 . S
H300 C285 0.961 . S
H301 C285 0.960 . S
C302 C303 1.391 . S
C302 C304 1.394 . S
C302 H318 0.931 . S
C303 C302 1.391 . S
C303 C307 1.376 . S
C304 C302 1.394 . S
C304 C305 1.369 . S
C304 C308 1.531 . S
C305 C304 1.369 . S
C305 C306 1.410 . S
C305 C313 1.503 . S
C306 C305 1.410 . S
C306 C307 1.392 . S
C306 C309 1.511 . S
C307 C303 1.376 . S
C307 C306 1.392 . S
C307 H319 0.929 . S
C308 C304 1.531 . S
C308 H320 0.960 . S
C308 H321 0.962 . S
C308 H322 0.960 . S
C309 C306 1.511 . S
C309 H323 0.961 . S
C309 H324 0.961 . S
C309 H325 0.961 . S
C310 C311 1.370 . S
C310 C312 1.363 . S
C310 H326 0.931 . S
C311 C310 1.370 . S
C311 C315 1.408 . S
C312 C310 1.363 . S
C312 C313 1.370 . S
C312 C316 1.524 . S
C313 C305 1.503 . S
C313 C312 1.370 . S
C313 C314 1.403 . S
C314 C313 1.403 . S
C314 C315 1.404 . S
C314 C317 1.539 . S
C315 C311 1.408 . S
C315 C314 1.404 . S
C315 H327 0.930 . S
C316 C312 1.524 . S
C316 H328 0.956 . S
C316 H329 0.961 . S
C316 H330 0.961 . S
C317 C314 1.539 . S
C317 H331 0.958 . S
C317 H332 0.961 . S
C317 H333 0.960 . S
H318 C302 0.931 . S
H319 C307 0.929 . S
H320 C308 0.960 . S
H321 C308 0.962 . S
H322 C308 0.960 . S
H323 C309 0.961 . S
H324 C309 0.961 . S
H325 C309 0.961 . S
H326 C310 0.931 . S
H327 C315 0.930 . S
H328 C316 0.956 . S
H329 C316 0.961 . S
H330 C316 0.961 . S
H331 C317 0.958 . S
H332 C317 0.961 . S
H333 C317 0.960 . S
C334 C335 1.391 . S
C334 C336 1.394 . S
C334 H350 0.931 . S
C335 C334 1.391 . S
C335 C339 1.376 . S
C336 C334 1.394 . S
C336 C337 1.369 . S
C336 C340 1.531 . S
C337 C336 1.369 . S
C337 C338 1.410 . S
C337 C345 1.503 . S
C338 C337 1.410 . S
C338 C339 1.392 . S
C338 C341 1.511 . S
C339 C335 1.376 . S
C339 C338 1.392 . S
C339 H351 0.929 . S
C340 C336 1.531 . S
C340 H352 0.960 . S
C340 H353 0.962 . S
C340 H354 0.960 . S
C341 C338 1.511 . S
C341 H355 0.961 . S
C341 H356 0.961 . S
C341 H357 0.961 . S
C342 C343 1.370 . S
C342 C344 1.363 . S
C342 H358 0.931 . S
C343 C342 1.370 . S
C343 C347 1.408 . S
C344 C342 1.363 . S
C344 C345 1.370 . S
C344 C348 1.524 . S
C345 C337 1.503 . S
C345 C344 1.370 . S
C345 C346 1.403 . S
C346 C345 1.403 . S
C346 C347 1.404 . S
C346 C349 1.539 . S
C347 C343 1.408 . S
C347 C346 1.404 . S
C347 H359 0.930 . S
C348 C344 1.524 . S
C348 H360 0.956 . S
C348 H361 0.961 . S
C348 H362 0.961 . S
C349 C346 1.539 . S
C349 H363 0.958 . S
C349 H364 0.961 . S
C349 H365 0.960 . S
H350 C334 0.931 . S
H351 C339 0.929 . S
H352 C340 0.960 . S
H353 C340 0.962 . S
H354 C340 0.960 . S
H355 C341 0.961 . S
H356 C341 0.961 . S
H357 C341 0.961 . S
H358 C342 0.931 . S
H359 C347 0.930 . S
H360 C348 0.956 . S
H361 C348 0.961 . S
H362 C348 0.961 . S
H363 C349 0.958 . S
H364 C349 0.961 . S
H365 C349 0.960 . S
C366 C367 1.391 1_554 S
C366 C368 1.394 . S
C366 H382 0.931 . S
C367 C366 1.391 1_556 S
C367 C371 1.376 . S
C368 C366 1.394 . S
C368 C369 1.369 1_554 S
C368 C372 1.531 . S
C369 C368 1.369 1_556 S
C369 C370 1.410 . S
C369 C377 1.503 1_556 S
C370 C369 1.410 . S
C370 C371 1.392 . S
C370 C373 1.511 . S
C371 C367 1.376 . S
C371 C370 1.392 . S
C371 H383 0.929 . S
C372 C368 1.531 . S
C372 H384 0.960 . S
C372 H385 0.962 . S
C372 H386 0.960 . S
C373 C370 1.511 . S
C373 H387 0.961 . S
C373 H388 0.961 . S
C373 H389 0.961 . S
C374 C375 1.370 . S
C374 C376 1.363 . S
C374 H390 0.931 . S
C375 C374 1.370 . S
C375 C379 1.408 . S
C376 C374 1.363 . S
C376 C377 1.370 . S
C376 C380 1.524 . S
C377 C369 1.503 1_554 S
C377 C376 1.370 . S
C377 C378 1.403 1_554 S
C378 C377 1.403 1_556 S
C378 C379 1.404 1_556 S
C378 C381 1.539 . S
C379 C375 1.408 . S
C379 C378 1.404 1_554 S
C379 H391 0.930 . S
C380 C376 1.524 . S
C380 H392 0.956 . S
C380 H393 0.961 . S
C380 H394 0.961 . S
C381 C378 1.539 . S
C381 H395 0.958 . S
C381 H396 0.961 . S
C381 H397 0.960 . S
H382 C366 0.931 . S
H383 C371 0.929 . S
H384 C372 0.960 . S
H385 C372 0.962 . S
H386 C372 0.960 . S
H387 C373 0.961 . S
H388 C373 0.961 . S
H389 C373 0.961 . S
H390 C374 0.931 . S
H391 C379 0.930 . S
H392 C380 0.956 . S
H393 C380 0.961 . S
H394 C380 0.961 . S
H395 C381 0.958 . S
H396 C381 0.961 . S
H397 C381 0.960 . S
C398 C399 1.391 . S
C398 C400 1.394 . S
C398 H414 0.931 . S
C399 C398 1.391 . S
C399 C403 1.376 . S
C400 C398 1.394 . S
C400 C401 1.369 . S
C400 C404 1.531 . S
C401 C400 1.369 . S
C401 C402 1.410 . S
C401 C409 1.503 1_545 S
C402 C401 1.410 . S
C402 C403 1.392 . S
C402 C405 1.511 . S
C403 C399 1.376 . S
C403 C402 1.392 . S
C403 H415 0.929 . S
C404 C400 1.531 . S
C404 H416 0.960 1_545 S
C404 H417 0.962 . S
C404 H418 0.960 . S
C405 C402 1.511 . S
C405 H419 0.961 . S
C405 H420 0.961 1_545 S
C405 H421 0.961 . S
C406 C407 1.370 . S
C406 C408 1.363 . S
C406 H422 0.931 . S
C407 C406 1.370 . S
C407 C411 1.408 . S
C408 C406 1.363 . S
C408 C409 1.370 . S
C408 C412 1.524 1_565 S
C409 C401 1.503 1_565 S
C409 C408 1.370 . S
C409 C410 1.403 . S
C410 C409 1.403 . S
C410 C411 1.404 . S
C410 C413 1.539 . S
C411 C407 1.408 . S
C411 C410 1.404 . S
C411 H423 0.930 . S
C412 C408 1.524 1_545 S
C412 H424 0.956 . S
C412 H425 0.961 . S
C412 H426 0.961 1_545 S
C413 C410 1.539 . S
C413 H427 0.958 . S
C413 H428 0.961 . S
C413 H429 0.960 . S
H414 C398 0.931 . S
H415 C403 0.929 . S
H416 C404 0.960 1_565 S
H417 C404 0.962 . S
H418 C404 0.960 . S
H419 C405 0.961 . S
H420 C405 0.961 1_565 S
H421 C405 0.961 . S
H422 C406 0.931 . S
H423 C411 0.930 . S
H424 C412 0.956 . S
H425 C412 0.961 . S
H426 C412 0.961 1_565 S
H427 C413 0.958 . S
H428 C413 0.961 . S
H429 C413 0.960 . S
C430 C431 1.391 . S
C430 C432 1.394 . S
C430 H446 0.931 . S
C431 C430 1.391 . S
C431 C435 1.376 . S
C432 C430 1.394 . S
C432 C433 1.369 . S
C432 C436 1.531 . S
C433 C432 1.369 . S
C433 C434 1.410 . S
C433 C441 1.503 1_655 S
C434 C433 1.410 . S
C434 C435 1.392 . S
C434 C437 1.527 . S
C435 C431 1.376 . S
C435 C434 1.392 . S
C435 H447 0.929 . S
C436 C432 1.531 . S
C436 H448 0.960 . S
C436 H449 0.962 . S
C436 H450 0.960 . S
C437 C434 1.527 . S
C437 H451 0.968 . S
C437 H452 0.950 1_655 S
C437 H453 0.948 1_655 S
C438 C439 1.370 . S
C438 C440 1.363 . S
C438 H454 0.931 . S
C439 C438 1.370 . S
C439 C443 1.408 . S
C440 C438 1.363 . S
C440 C441 1.370 . S
C440 C444 1.524 . S
C441 C433 1.503 1_455 S
C441 C440 1.370 . S
C441 C442 1.403 . S
C442 C441 1.403 . S
C442 C443 1.404 . S
C442 C445 1.539 . S
C443 C439 1.408 . S
C443 C442 1.404 . S
C443 H455 0.930 . S
C444 C440 1.524 . S
C444 H456 0.981 . S
C444 H457 0.961 . S
C444 H458 0.961 . S
C445 C442 1.539 . S
C445 H459 0.958 . S
C445 H460 0.961 . S
C445 H461 0.960 1_455 S
H446 C430 0.931 . S
H447 C435 0.929 . S
H448 C436 0.960 . S
H449 C436 0.962 . S
H450 C436 0.960 . S
H451 C437 0.968 . S
H452 C437 0.950 1_455 S
H453 C437 0.948 1_455 S
H454 C438 0.931 . S
H455 C443 0.930 . S
H456 C444 0.981 . S
H457 C444 0.961 . S
H458 C444 0.961 . S
H459 C445 0.958 . S
H460 C445 0.961 . S
H461 C445 0.960 1_655 S
C462 C463 1.391 . S
C462 C464 1.394 . S
C462 H478 0.931 . S
C463 C462 1.391 . S
C463 C467 1.376 . S
C464 C462 1.394 . S
C464 C465 1.369 . S
C464 C468 1.531 . S
C465 C464 1.369 . S
C465 C466 1.410 . S
C465 C473 1.503 1_655 S
C466 C465 1.410 . S
C466 C467 1.392 . S
C466 C469 1.511 . S
C467 C463 1.376 . S
C467 C466 1.392 . S
C467 H479 0.929 . S
C468 C464 1.531 . S
C468 H480 0.960 1_655 S
C468 H481 0.962 . S
C468 H482 0.960 . S
C469 C466 1.511 . S
C469 H483 0.961 . S
C469 H484 0.961 1_655 S
C469 H485 0.961 1_655 S
C470 C471 1.370 . S
C470 C472 1.363 . S
C470 H486 0.931 . S
C471 C470 1.370 . S
C471 C475 1.408 . S
C472 C470 1.363 . S
C472 C473 1.370 . S
C472 C476 1.524 1_455 S
C473 C465 1.503 1_455 S
C473 C472 1.370 . S
C473 C474 1.403 . S
C474 C473 1.403 . S
C474 C475 1.404 . S
C474 C477 1.539 . S
C475 C471 1.408 . S
C475 C474 1.404 . S
C475 H487 0.930 . S
C476 C472 1.524 1_655 S
C476 H488 0.956 . S
C476 H489 0.961 . S
C476 H490 0.961 . S
C477 C474 1.539 . S
C477 H491 0.958 . S
C477 H492 0.961 . S
C477 H493 0.960 . S
H478 C462 0.931 . S
H479 C467 0.929 . S
H480 C468 0.960 1_455 S
H481 C468 0.962 . S
H482 C468 0.960 . S
H483 C469 0.961 . S
H484 C469 0.961 1_455 S
H485 C469 0.961 1_455 S
H486 C470 0.931 . S
H487 C475 0.930 . S
H488 C476 0.956 . S
H489 C476 0.961 . S
H490 C476 0.961 . S
H491 C477 0.958 . S
H492 C477 0.961 . S
H493 C477 0.960 . S
C494 C495 1.391 . S
C494 C496 1.394 . S
C494 H510 0.931 . S
C495 C494 1.391 . S
C495 C499 1.376 . S
C496 C494 1.394 . S
C496 C497 1.369 . S
C496 C500 1.531 . S
C497 C496 1.369 . S
C497 C498 1.410 . S
C497 C505 1.503 1_556 S
C498 C497 1.410 . S
C498 C499 1.392 . S
C498 C501 1.511 1_556 S
C499 C495 1.376 . S
C499 C498 1.392 . S
C499 H511 0.929 . S
C500 C496 1.531 . S
C500 H512 0.960 . S
C500 H513 0.962 . S
C500 H514 0.960 . S
C501 C498 1.511 1_554 S
C501 H515 0.961 . S
C501 H516 0.961 . S
C501 H517 0.961 . S
C502 C503 1.370 . S
C502 C504 1.363 . S
C502 H518 0.931 . S
C503 C502 1.370 . S
C503 C507 1.408 . S
C504 C502 1.363 . S
C504 C505 1.370 . S
C504 C508 1.524 . S
C505 C497 1.503 1_554 S
C505 C504 1.370 . S
C505 C506 1.403 1_554 S
C506 C505 1.403 1_556 S
C506 C507 1.404 1_556 S
C506 C509 1.539 . S
C507 C503 1.408 . S
C507 C506 1.404 1_554 S
C507 H519 0.930 . S
C508 C504 1.524 . S
C508 H520 0.956 . S
C508 H521 0.961 . S
C508 H522 0.961 . S
C509 C506 1.539 . S
C509 H523 0.958 . S
C509 H524 0.961 . S
C509 H525 0.960 . S
H510 C494 0.931 . S
H511 C499 0.929 . S
H512 C500 0.960 . S
H513 C500 0.962 . S
H514 C500 0.960 . S
H515 C501 0.961 . S
H516 C501 0.961 . S
H517 C501 0.961 . S
H518 C502 0.931 . S
H519 C507 0.930 . S
H520 C508 0.956 . S
H521 C508 0.961 . S
H522 C508 0.961 . S
H523 C509 0.958 . S
H524 C509 0.961 . S
H525 C509 0.960 . S
C526 C527 1.391 . S
C526 C528 1.394 . S
C526 H542 0.931 . S
C527 C526 1.391 . S
C527 C531 1.376 . S
C528 C526 1.394 . S
C528 C529 1.369 . S
C528 C532 1.531 . S
C529 C528 1.369 . S
C529 C530 1.410 . S
C529 C537 1.503 1_545 S
C530 C529 1.410 . S
C530 C531 1.392 . S
C530 C533 1.511 1_545 S
C531 C527 1.376 . S
C531 C530 1.392 . S
C531 H543 0.929 . S
C532 C528 1.531 . S
C532 H544 0.960 . S
C532 H545 0.962 . S
C532 H546 0.960 . S
C533 C530 1.511 1_565 S
C533 H547 0.961 . S
C533 H548 0.961 . S
C533 H549 0.961 . S
C534 C535 1.370 . S
C534 C536 1.363 . S
C534 H550 0.931 . S
C535 C534 1.370 . S
C535 C539 1.408 . S
C536 C534 1.363 . S
C536 C537 1.370 . S
C536 C540 1.524 . S
C537 C529 1.503 1_565 S
C537 C536 1.370 . S
C537 C538 1.403 . S
C538 C537 1.403 . S
C538 C539 1.404 . S
C538 C541 1.539 . S
C539 C535 1.408 . S
C539 C538 1.404 . S
C539 H551 0.930 . S
C540 C536 1.524 . S
C540 H552 0.956 . S
C540 H553 0.961 . S
C540 H554 0.961 . S
C541 C538 1.539 . S
C541 H555 0.958 1_565 S
C541 H556 0.961 . S
C541 H557 0.960 1_565 S
H542 C526 0.931 . S
H543 C531 0.929 . S
H544 C532 0.960 . S
H545 C532 0.962 . S
H546 C532 0.960 . S
H547 C533 0.961 . S
H548 C533 0.961 . S
H549 C533 0.961 . S
H550 C534 0.931 . S
H551 C539 0.930 . S
H552 C540 0.956 . S
H553 C540 0.961 . S
H554 C540 0.961 . S
H555 C541 0.958 1_545 S
H556 C541 0.961 . S
H557 C541 0.960 1_545 S
C558 C559 1.391 . S
C558 C560 1.394 . S
C558 H574 0.931 . S
C559 C558 1.391 . S
C559 C563 1.376 . S
C560 C558 1.394 . S
C560 C561 1.369 . S
C560 C564 1.531 . S
C561 C560 1.369 . S
C561 C562 1.410 . S
C561 C569 1.503 . S
C562 C561 1.410 . S
C562 C563 1.392 . S
C562 C565 1.511 . S
C563 C559 1.376 . S
C563 C562 1.392 . S
C563 H575 0.929 . S
C564 C560 1.531 . S
C564 H576 0.960 . S
C564 H577 0.962 . S
C564 H578 0.960 . S
C565 C562 1.511 . S
C565 H579 0.961 . S
C565 H580 0.961 . S
C565 H581 0.961 . S
C566 C567 1.370 . S
C566 C568 1.363 . S
C566 H582 0.931 . S
C567 C566 1.370 . S
C567 C571 1.408 . S
C568 C566 1.363 . S
C568 C569 1.370 . S
C568 C572 1.524 . S
C569 C561 1.503 . S
C569 C568 1.370 . S
C569 C570 1.403 . S
C570 C569 1.403 . S
C570 C571 1.404 . S
C570 C573 1.539 . S
C571 C567 1.408 . S
C571 C570 1.404 . S
C571 H583 0.930 . S
C572 C568 1.524 . S
C572 H584 0.956 . S
C572 H585 0.961 . S
C572 H586 0.961 . S
C573 C570 1.539 . S
C573 H587 0.958 . S
C573 H588 0.961 . S
C573 H589 0.960 . S
H574 C558 0.931 . S
H575 C563 0.929 . S
H576 C564 0.960 . S
H577 C564 0.962 . S
H578 C564 0.960 . S
H579 C565 0.961 . S
H580 C565 0.961 . S
H581 C565 0.961 . S
H582 C566 0.931 . S
H583 C571 0.930 . S
H584 C572 0.956 . S
H585 C572 0.961 . S
H586 C572 0.961 . S
H587 C573 0.958 . S
H588 C573 0.961 . S
H589 C573 0.960 . S
C590 C591 1.391 . S
C590 C592 1.394 . S
C590 H606 0.931 . S
C591 C590 1.391 . S
C591 C595 1.376 . S
C592 C590 1.394 . S
C592 C593 1.369 . S
C592 C596 1.531 . S
C593 C592 1.369 . S
C593 C594 1.410 . S
C593 C601 1.503 . S
C594 C593 1.410 . S
C594 C595 1.392 . S
C594 C597 1.511 . S
C595 C591 1.376 . S
C595 C594 1.392 . S
C595 H607 0.929 . S
C596 C592 1.531 . S
C596 H608 0.960 . S
C596 H609 0.962 . S
C596 H610 0.960 . S
C597 C594 1.511 . S
C597 H611 0.961 . S
C597 H612 0.961 . S
C597 H613 0.961 . S
C598 C599 1.370 . S
C598 C600 1.363 . S
C598 H614 0.931 . S
C599 C598 1.370 . S
C599 C603 1.408 . S
C600 C598 1.363 . S
C600 C601 1.370 . S
C600 C604 1.524 . S
C601 C593 1.503 . S
C601 C600 1.370 . S
C601 C602 1.403 . S
C602 C601 1.403 . S
C602 C603 1.404 . S
C602 C605 1.539 . S
C603 C599 1.408 . S
C603 C602 1.404 . S
C603 H615 0.930 . S
C604 C600 1.524 . S
C604 H616 0.956 . S
C604 H617 0.961 . S
C604 H618 0.961 . S
C605 C602 1.539 . S
C605 H619 0.958 . S
C605 H620 0.961 . S
C605 H621 0.960 . S
H606 C590 0.931 . S
H607 C595 0.929 . S
H608 C596 0.960 . S
H609 C596 0.962 . S
H610 C596 0.960 . S
H611 C597 0.961 . S
H612 C597 0.961 . S
H613 C597 0.961 . S
H614 C598 0.931 . S
H615 C603 0.930 . S
H616 C604 0.956 . S
H617 C604 0.961 . S
H618 C604 0.961 . S
H619 C605 0.958 . S
H620 C605 0.961 . S
H621 C605 0.960 . S
C622 C623 1.391 . S
C622 C624 1.394 . S
C622 H638 0.931 . S
C623 C622 1.391 . S
C623 C627 1.376 . S
C624 C622 1.394 . S
C624 C625 1.369 . S
C624 C628 1.531 . S
C625 C624 1.369 . S
C625 C626 1.410 . S
C625 C633 1.503 . S
C626 C625 1.410 . S
C626 C627 1.392 . S
C626 C629 1.511 . S
C627 C623 1.376 . S
C627 C626 1.392 . S
C627 H639 0.929 . S
C628 C624 1.531 . S
C628 H640 0.960 . S
C628 H641 0.962 . S
C628 H642 0.960 . S
C629 C626 1.511 . S
C629 H643 0.961 . S
C629 H644 0.961 . S
C629 H645 0.961 . S
C630 C631 1.370 . S
C630 C632 1.363 . S
C630 H646 0.931 . S
C631 C630 1.370 . S
C631 C635 1.408 . S
C632 C630 1.363 . S
C632 C633 1.370 . S
C632 C636 1.524 . S
C633 C625 1.503 . S
C633 C632 1.370 . S
C633 C634 1.403 . S
C634 C633 1.403 . S
C634 C635 1.404 . S
C634 C637 1.539 . S
C635 C631 1.408 . S
C635 C634 1.404 . S
C635 H647 0.930 . S
C636 C632 1.524 . S
C636 H648 0.956 . S
C636 H649 0.961 . S
C636 H650 0.961 . S
C637 C634 1.539 . S
C637 H651 0.958 . S
C637 H652 0.961 . S
C637 H653 0.960 . S
H638 C622 0.931 . S
H639 C627 0.929 . S
H640 C628 0.960 . S
H641 C628 0.962 . S
H642 C628 0.960 . S
H643 C629 0.961 . S
H644 C629 0.961 . S
H645 C629 0.961 . S
H646 C630 0.931 . S
H647 C635 0.930 . S
H648 C636 0.956 . S
H649 C636 0.961 . S
H650 C636 0.961 . S
H651 C637 0.958 . S
H652 C637 0.961 . S
H653 C637 0.960 . S
C654 C655 1.391 . S
C654 C656 1.394 . S
C654 H670 0.931 . S
C655 C654 1.391 . S
C655 C659 1.376 . S
C656 C654 1.394 . S
C656 C657 1.369 . S
C656 C660 1.531 . S
C657 C656 1.369 . S
C657 C658 1.410 . S
C657 C665 1.503 . S
C658 C657 1.410 . S
C658 C659 1.392 . S
C658 C661 1.511 . S
C659 C655 1.376 . S
C659 C658 1.392 . S
C659 H671 0.929 . S
C660 C656 1.531 . S
C660 H672 0.960 . S
C660 H673 0.962 . S
C660 H674 0.960 . S
C661 C658 1.511 . S
C661 H675 0.961 . S
C661 H676 0.961 . S
C661 H677 0.961 . S
C662 C663 1.370 . S
C662 C664 1.363 . S
C662 H678 0.931 . S
C663 C662 1.370 . S
C663 C667 1.408 . S
C664 C662 1.363 . S
C664 C665 1.370 . S
C664 C668 1.524 . S
C665 C657 1.503 . S
C665 C664 1.370 . S
C665 C666 1.403 . S
C666 C665 1.403 . S
C666 C667 1.404 . S
C666 C669 1.539 . S
C667 C663 1.408 . S
C667 C666 1.404 . S
C667 H679 0.930 . S
C668 C664 1.524 . S
C668 H680 0.956 . S
C668 H681 0.961 . S
C668 H682 0.961 . S
C669 C666 1.539 . S
C669 H683 0.958 . S
C669 H684 0.961 . S
C669 H685 0.960 . S
H670 C654 0.931 . S
H671 C659 0.929 . S
H672 C660 0.960 . S
H673 C660 0.962 . S
H674 C660 0.960 . S
H675 C661 0.961 . S
H676 C661 0.961 . S
H677 C661 0.961 . S
H678 C662 0.931 . S
H679 C667 0.930 . S
H680 C668 0.956 . S
H681 C668 0.961 . S
H682 C668 0.961 . S
H683 C669 0.958 . S
H684 C669 0.961 . S
H685 C669 0.960 . S
C686 C687 1.391 . S
C686 C688 1.394 . S
C686 H702 0.931 . S
C687 C686 1.391 . S
C687 C691 1.376 . S
C688 C686 1.394 . S
C688 C689 1.369 . S
C688 C692 1.531 . S
C689 C688 1.369 . S
C689 C690 1.410 . S
C689 C697 1.503 . S
C690 C689 1.410 . S
C690 C691 1.392 . S
C690 C693 1.511 . S
C691 C687 1.376 . S
C691 C690 1.392 . S
C691 H703 0.929 . S
C692 C688 1.531 . S
C692 H704 0.960 . S
C692 H705 0.962 . S
C692 H706 0.960 . S
C693 C690 1.511 . S
C693 H707 0.961 . S
C693 H708 0.961 . S
C693 H709 0.961 . S
C694 C695 1.370 . S
C694 C696 1.363 . S
C694 H710 0.931 . S
C695 C694 1.370 . S
C695 C699 1.408 . S
C696 C694 1.363 . S
C696 C697 1.370 . S
C696 C700 1.524 . S
C697 C689 1.503 . S
C697 C696 1.370 . S
C697 C698 1.403 . S
C698 C697 1.403 . S
C698 C699 1.404 . S
C698 C701 1.539 . S
C699 C695 1.408 . S
C699 C698 1.404 . S
C699 H711 0.930 . S
C700 C696 1.524 . S
C700 H712 0.956 . S
C700 H713 0.961 . S
C700 H714 0.961 . S
C701 C698 1.539 . S
C701 H715 0.958 . S
C701 H716 0.961 . S
C701 H717 0.960 . S
H702 C686 0.931 . S
H703 C691 0.929 . S
H704 C692 0.960 . S
H705 C692 0.962 . S
H706 C692 0.960 . S
H707 C693 0.961 . S
H708 C693 0.961 . S
H709 C693 0.961 . S
H710 C694 0.931 . S
H711 C699 0.930 . S
H712 C700 0.956 . S
H713 C700 0.961 . S
H714 C700 0.961 . S
H715 C701 0.958 . S
H716 C701 0.961 . S
H717 C701 0.960 . S
C718 C719 1.391 . S
C718 C720 1.394 . S
C718 H734 0.931 . S
C719 C718 1.391 . S
C719 C723 1.376 . S
C720 C718 1.394 . S
C720 C721 1.369 . S
C720 C724 1.531 . S
C721 C720 1.369 . S
C721 C722 1.410 . S
C721 C729 1.503 . S
C722 C721 1.410 . S
C722 C723 1.392 . S
C722 C725 1.511 . S
C723 C719 1.376 . S
C723 C722 1.392 . S
C723 H735 0.929 . S
C724 C720 1.531 . S
C724 H736 0.960 . S
C724 H737 0.962 . S
C724 H738 0.960 . S
C725 C722 1.511 . S
C725 H739 0.961 . S
C725 H740 0.961 . S
C725 H741 0.961 . S
C726 C727 1.370 . S
C726 C728 1.363 . S
C726 H742 0.931 . S
C727 C726 1.370 . S
C727 C731 1.408 . S
C728 C726 1.363 . S
C728 C729 1.370 . S
C728 C732 1.524 . S
C729 C721 1.503 . S
C729 C728 1.370 . S
C729 C730 1.403 . S
C730 C729 1.403 . S
C730 C731 1.404 . S
C730 C733 1.539 . S
C731 C727 1.408 . S
C731 C730 1.404 . S
C731 H743 0.930 . S
C732 C728 1.524 . S
C732 H744 0.956 . S
C732 H745 0.961 . S
C732 H746 0.961 . S
C733 C730 1.539 . S
C733 H747 0.958 . S
C733 H748 0.961 . S
C733 H749 0.960 . S
H734 C718 0.931 . S
H735 C723 0.929 . S
H736 C724 0.960 . S
H737 C724 0.962 . S
H738 C724 0.960 . S
H739 C725 0.961 . S
H740 C725 0.961 . S
H741 C725 0.961 . S
H742 C726 0.931 . S
H743 C731 0.930 . S
H744 C732 0.956 . S
H745 C732 0.961 . S
H746 C732 0.961 . S
H747 C733 0.958 . S
H748 C733 0.961 . S
H749 C733 0.960 . S
C750 C751 1.391 . S
C750 C752 1.394 . S
C750 H766 0.931 . S
C751 C750 1.391 . S
C751 C755 1.376 . S
C752 C750 1.394 . S
C752 C753 1.369 . S
C752 C756 1.531 . S
C753 C752 1.369 . S
C753 C754 1.410 1_655 S
C753 C761 1.503 1_655 S
C754 C753 1.410 1_455 S
C754 C755 1.392 1_455 S
C754 C757 1.511 . S
C755 C751 1.376 . S
C755 C754 1.392 1_655 S
C755 H767 0.929 . S
C756 C752 1.531 . S
C756 H768 0.960 . S
C756 H769 0.962 . S
C756 H770 0.960 . S
C757 C754 1.511 . S
C757 H771 0.961 . S
C757 H772 0.961 . S
C757 H773 0.961 . S
C758 C759 1.370 . S
C758 C760 1.363 . S
C758 H774 0.931 . S
C759 C758 1.370 . S
C759 C763 1.408 . S
C760 C758 1.363 . S
C760 C761 1.370 . S
C760 C764 1.524 . S
C761 C753 1.503 1_455 S
C761 C760 1.370 . S
C761 C762 1.403 . S
C762 C761 1.403 . S
C762 C763 1.404 . S
C762 C765 1.539 1_455 S
C763 C759 1.408 . S
C763 C762 1.404 . S
C763 H775 0.930 . S
C764 C760 1.524 . S
C764 H776 0.956 . S
C764 H777 0.961 . S
C764 H778 0.961 . S
C765 C762 1.539 1_655 S
C765 H779 0.958 . S
C765 H780 0.961 1_655 S
C765 H781 0.960 . S
H766 C750 0.931 . S
H767 C755 0.929 . S
H768 C756 0.960 . S
H769 C756 0.962 . S
H770 C756 0.960 . S
H771 C757 0.961 . S
H772 C757 0.961 . S
H773 C757 0.961 . S
H774 C758 0.931 . S
H775 C763 0.930 . S
H776 C764 0.956 . S
H777 C764 0.961 . S
H778 C764 0.961 . S
H779 C765 0.958 . S
H780 C765 0.961 1_455 S
H781 C765 0.960 . S
C782 C783 1.391 . S
C782 C784 1.394 . S
C782 H798 0.931 . S
C783 C782 1.391 . S
C783 C787 1.376 . S
C784 C782 1.394 . S
C784 C785 1.369 . S
C784 C788 1.531 . S
C785 C784 1.369 . S
C785 C786 1.410 . S
C785 C793 1.503 . S
C786 C785 1.410 . S
C786 C787 1.392 . S
C786 C789 1.511 . S
C787 C783 1.376 . S
C787 C786 1.392 . S
C787 H799 0.929 . S
C788 C784 1.531 . S
C788 H800 0.960 . S
C788 H801 0.962 . S
C788 H802 0.960 . S
C789 C786 1.511 . S
C789 H803 0.961 . S
C789 H804 0.961 . S
C789 H805 0.961 . S
C790 C791 1.370 . S
C790 C792 1.363 . S
C790 H806 0.931 . S
C791 C790 1.370 . S
C791 C795 1.408 . S
C792 C790 1.363 . S
C792 C793 1.370 . S
C792 C796 1.524 . S
C793 C785 1.503 . S
C793 C792 1.370 . S
C793 C794 1.403 . S
C794 C793 1.403 . S
C794 C795 1.404 . S
C794 C797 1.539 . S
C795 C791 1.408 . S
C795 C794 1.404 . S
C795 H807 0.930 . S
C796 C792 1.524 . S
C796 H808 0.956 . S
C796 H809 0.961 . S
C796 H810 0.961 . S
C797 C794 1.539 . S
C797 H811 0.958 . S
C797 H812 0.961 . S
C797 H813 0.960 . S
H798 C782 0.931 . S
H799 C787 0.929 . S
H800 C788 0.960 . S
H801 C788 0.962 . S
H802 C788 0.960 . S
H803 C789 0.961 . S
H804 C789 0.961 . S
H805 C789 0.961 . S
H806 C790 0.931 . S
H807 C795 0.930 . S
H808 C796 0.956 . S
H809 C796 0.961 . S
H810 C796 0.961 . S
H811 C797 0.958 . S
H812 C797 0.961 . S
H813 C797 0.960 . S
C814 C815 1.391 . S
C814 C816 1.394 . S
C814 H830 0.931 . S
C815 C814 1.391 . S
C815 C819 1.376 . S
C816 C814 1.394 . S
C816 C817 1.369 . S
C816 C820 1.531 . S
C817 C816 1.369 . S
C817 C818 1.410 . S
C817 C825 1.503 1_545 S
C818 C817 1.410 . S
C818 C819 1.392 . S
C818 C821 1.511 . S
C819 C815 1.376 . S
C819 C818 1.392 . S
C819 H831 0.929 . S
C820 C816 1.531 . S
C820 H832 0.960 . S
C820 H833 0.962 . S
C820 H834 0.960 . S
C821 C818 1.511 . S
C821 H835 0.961 1_545 S
C821 H836 0.961 1_545 S
C821 H837 0.961 . S
C822 C823 1.370 . S
C822 C824 1.363 . S
C822 H838 0.931 . S
C823 C822 1.370 . S
C823 C827 1.408 . S
C824 C822 1.363 . S
C824 C825 1.370 . S
C824 C828 1.524 . S
C825 C817 1.503 1_565 S
C825 C824 1.370 . S
C825 C826 1.403 1_565 S
C826 C825 1.403 1_545 S
C826 C827 1.404 1_545 S
C826 C829 1.539 . S
C827 C823 1.408 . S
C827 C826 1.404 1_565 S
C827 H839 0.916 1_565 S
C828 C824 1.524 . S
C828 H840 0.956 . S
C828 H841 0.961 . S
C828 H842 0.961 . S
C829 C826 1.539 . S
C829 H843 0.958 . S
C829 H844 0.961 . S
C829 H845 0.960 . S
H830 C814 0.931 . S
H831 C819 0.929 . S
H832 C820 0.960 . S
H833 C820 0.962 . S
H834 C820 0.960 . S
H835 C821 0.961 1_565 S
H836 C821 0.961 1_565 S
H837 C821 0.961 . S
H838 C822 0.931 . S
H839 C827 0.916 1_545 S
H840 C828 0.956 . S
H841 C828 0.961 . S
H842 C828 0.961 . S
H843 C829 0.958 . S
H844 C829 0.961 . S
H845 C829 0.960 . S
C175 C160 1.519 . S
C183 C21 1.476 . S
C207 C50 1.465 . S
C215 C102 1.521 1_565 S
C239 C79 1.463 . S
C247 C131 1.521 1_455 S
C271 C44 1.500 . S
C279 C108 1.491 . S
C303 C73 1.534 1_545 S
C311 C137 1.471 . S
C335 C15 1.537 1_655 S
C343 C166 1.474 . S
C367 C92 2.467 . S
C375 C5 2.481 . S
C399 C121 2.461 . S
C407 C34 2.483 . S
C431 C150 2.476 . S
C439 C63 2.477 . S
C463 C124 1.999 . S
C471 C8 2.016 . S
C495 C37 1.993 . S
C503 C153 2.012 . S
C527 C95 2.022 . S
C535 C66 2.016 . S
C559 C3 1.146 . S
C567 C39 1.145 . S
C591 C68 1.134 . S
C599 C32 1.128 . S
C623 C10 1.159 . S
C631 C61 1.101 . S
C655 C90 1.130 . S
C663 C155 1.164 . S
C687 C119 1.130 . S
C695 C97 1.140 . S
C719 C126 1.116 . S
C727 C148 1.112 . S
C751 C129 1.440 . S
C759 C13 1.430 . S
C783 C42 1.451 . S
C791 C158 1.444 . S
C815 C100 1.477 . S
C823 C71 1.421 . S
