# Generated by pormake.
# Topology wkq, (6)-cn, num edge types: 1
# Building blocks:
#     Node 0, Type 0, BuildingBlock: OJICUG_clean_sbu_0, # of connection points: 6
#     Node 1, Type 0, BuildingBlock: OJICUG_clean_sbu_0, # of connection points: 6
#     Node 2, Type 0, BuildingBlock: OJICUG_clean_sbu_0, # of connection points: 6
#     Node 3, Type 0, BuildingBlock: OJICUG_clean_sbu_0, # of connection points: 6
#     Node 4, Type 0, BuildingBlock: OJICUG_clean_sbu_0, # of connection points: 6
#     Node 5, Type 0, BuildingBlock: OJICUG_clean_sbu_0, # of connection points: 6
#     Node 6, Type 0, BuildingBlock: OJICUG_clean_sbu_0, # of connection points: 6
#     Node 7, Type 0, BuildingBlock: OJICUG_clean_sbu_0, # of connection points: 6
#     Node 8, Type 0, BuildingBlock: OJICUG_clean_sbu_0, # of connection points: 6
#     Node 9, Type 0, BuildingBlock: OJICUG_clean_sbu_0, # of connection points: 6
#     Node 10, Type 0, BuildingBlock: OJICUG_clean_sbu_0, # of connection points: 6
#     Node 11, Type 0, BuildingBlock: OJICUG_clean_sbu_0, # of connection points: 6
#     Edge 12, Type (0, 0), BuildingBlock: XIVTED_clean_linker_0, # of connection points: 2
#     Edge 13, Type (0, 0), BuildingBlock: XIVTED_clean_linker_0, # of connection points: 2
#     Edge 14, Type (0, 0), BuildingBlock: XIVTED_clean_linker_0, # of connection points: 2
#     Edge 15, Type (0, 0), BuildingBlock: XIVTED_clean_linker_0, # of connection points: 2
#     Edge 16, Type (0, 0), BuildingBlock: XIVTED_clean_linker_0, # of connection points: 2
#     Edge 17, Type (0, 0), BuildingBlock: XIVTED_clean_linker_0, # of connection points: 2
#     Edge 18, Type (0, 0), BuildingBlock: XIVTED_clean_linker_0, # of connection points: 2
#     Edge 19, Type (0, 0), BuildingBlock: XIVTED_clean_linker_0, # of connection points: 2
#     Edge 20, Type (0, 0), BuildingBlock: XIVTED_clean_linker_0, # of connection points: 2
#     Edge 21, Type (0, 0), BuildingBlock: XIVTED_clean_linker_0, # of connection points: 2
#     Edge 22, Type (0, 0), BuildingBlock: XIVTED_clean_linker_0, # of connection points: 2
#     Edge 23, Type (0, 0), BuildingBlock: XIVTED_clean_linker_0, # of connection points: 2
#     Edge 24, Type (0, 0), BuildingBlock: XIVTED_clean_linker_0, # of connection points: 2
#     Edge 25, Type (0, 0), BuildingBlock: XIVTED_clean_linker_0, # of connection points: 2
#     Edge 26, Type (0, 0), BuildingBlock: XIVTED_clean_linker_0, # of connection points: 2
#     Edge 27, Type (0, 0), BuildingBlock: XIVTED_clean_linker_0, # of connection points: 2
#     Edge 28, Type (0, 0), BuildingBlock: XIVTED_clean_linker_0, # of connection points: 2
#     Edge 29, Type (0, 0), BuildingBlock: XIVTED_clean_linker_0, # of connection points: 2
#     Edge 30, Type (0, 0), BuildingBlock: XIVTED_clean_linker_0, # of connection points: 2
#     Edge 31, Type (0, 0), BuildingBlock: XIVTED_clean_linker_0, # of connection points: 2
#     Edge 32, Type (0, 0), BuildingBlock: XIVTED_clean_linker_0, # of connection points: 2
#     Edge 33, Type (0, 0), BuildingBlock: XIVTED_clean_linker_0, # of connection points: 2
#     Edge 34, Type (0, 0), BuildingBlock: XIVTED_clean_linker_0, # of connection points: 2
#     Edge 35, Type (0, 0), BuildingBlock: XIVTED_clean_linker_0, # of connection points: 2
#     Edge 36, Type (0, 0), BuildingBlock: XIVTED_clean_linker_0, # of connection points: 2
#     Edge 37, Type (0, 0), BuildingBlock: XIVTED_clean_linker_0, # of connection points: 2
#     Edge 38, Type (0, 0), BuildingBlock: XIVTED_clean_linker_0, # of connection points: 2
#     Edge 39, Type (0, 0), BuildingBlock: XIVTED_clean_linker_0, # of connection points: 2
#     Edge 40, Type (0, 0), BuildingBlock: XIVTED_clean_linker_0, # of connection points: 2
#     Edge 41, Type (0, 0), BuildingBlock: XIVTED_clean_linker_0, # of connection points: 2
#     Edge 42, Type (0, 0), BuildingBlock: XIVTED_clean_linker_0, # of connection points: 2
#     Edge 43, Type (0, 0), BuildingBlock: XIVTED_clean_linker_0, # of connection points: 2
#     Edge 44, Type (0, 0), BuildingBlock: XIVTED_clean_linker_0, # of connection points: 2
#     Edge 45, Type (0, 0), BuildingBlock: XIVTED_clean_linker_0, # of connection points: 2
#     Edge 46, Type (0, 0), BuildingBlock: XIVTED_clean_linker_0, # of connection points: 2
#     Edge 47, Type (0, 0), BuildingBlock: XIVTED_clean_linker_0, # of connection points: 2
# Relax obj value: 0.340
# Max RMSD: 0.275
# Mean RMSD: 0.275
data_MOF--net-wkq--node1-OJICUG_clean_sbu_0--edge1-XIVTED_clean_linker_0
_symmetry_space_group_name_H-M    P1
_symmetry_Int_Tables_number       1
_symmetry_cell_setting            triclinic
loop_
_symmetry_equiv_pos_as_xyz
'x, y, z'
_cell_length_a     39.337157
_cell_length_b     39.331746
_cell_length_c     35.371361
_cell_angle_alpha  89.936577
_cell_angle_beta   90.073837
_cell_angle_gamma 120.02768
loop_
_atom_site_label
_atom_site_type_symbol
_atom_site_fract_x
_atom_site_fract_y
_atom_site_fract_z
_atom_type_partial_charge
Sc0 Sc 0.20342 0.42531 0.96726 0.0
Sc1 Sc 0.26104 0.44606 0.04928 0.0
Sc2 Sc 0.19857 0.34806 0.02307 0.0
O3 O 0.22102 0.40638 0.01313 0.0
C4 C 0.12313 0.34815 0.98972 0.0
C5 C 0.20727 0.48418 0.03053 0.0
C6 C 0.19781 0.38112 0.10445 0.0
C7 C 0.29579 0.48787 0.97132 0.0
C8 C 0.21663 0.35667 0.93457 0.0
C9 C 0.28495 0.38012 0.05598 0.0
O10 O 0.14171 0.38142 0.97354 0.0
O11 O 0.234 0.48179 0.0484 0.0
O12 O 0.18482 0.35273 0.08112 0.0
O13 O 0.26227 0.47269 0.95545 0.0
O14 O 0.21095 0.33909 0.96615 0.0
O15 O 0.29296 0.41555 0.05834 0.0
O16 O 0.21515 0.38814 0.93005 0.0
O17 O 0.30094 0.47905 0.00456 0.0
O18 O 0.25314 0.35339 0.04159 0.0
O19 O 0.1913 0.4644 0.0007 0.0
O20 O 0.14022 0.33324 0.00793 0.0
O21 O 0.22448 0.41593 0.09643 0.0
Sc22 Sc 0.85096 0.19677 0.19194 0.0
Sc23 Sc 0.81287 0.25683 0.21924 0.0
Sc24 Sc 0.78151 0.20401 0.13373 0.0
O25 O 0.81521 0.2193 0.18154 0.0
C26 C 0.865 0.21819 0.10453 0.0
C27 C 0.90278 0.28231 0.22822 0.0
C28 C 0.81077 0.29594 0.14126 0.0
C29 C 0.81317 0.19111 0.27208 0.0
C30 C 0.77662 0.12274 0.1548 0.0
C31 C 0.72254 0.2046 0.19524 0.0
O32 O 0.87626 0.21312 0.13669 0.0
O33 O 0.87526 0.29029 0.22924 0.0
O34 O 0.79682 0.26412 0.12247 0.0
O35 O 0.82886 0.17873 0.24849 0.0
O36 O 0.76156 0.14171 0.14006 0.0
O37 O 0.75019 0.22787 0.21683 0.0
O38 O 0.80892 0.13938 0.1726 0.0
O39 O 0.80638 0.21886 0.26511 0.0
O40 O 0.72855 0.19282 0.16374 0.0
O41 O 0.89816 0.25046 0.21445 0.0
O42 O 0.83149 0.21493 0.09863 0.0
O43 O 0.81884 0.29806 0.17629 0.0
Sc44 Sc 0.58692 0.7805 0.30029 0.0
Sc45 Sc 0.56541 0.81085 0.38626 0.0
Sc46 Sc 0.66353 0.85055 0.35797 0.0
O47 O 0.60526 0.81404 0.34811 0.0
C48 C 0.66441 0.77735 0.31956 0.0
C49 C 0.52827 0.72071 0.36215 0.0
C50 C 0.63289 0.81211 0.43797 0.0
C51 C 0.52318 0.80806 0.3086 0.0
C52 C 0.65469 0.86521 0.27117 0.0
C53 C 0.62879 0.90059 0.39648 0.0
O54 O 0.62981 0.76135 0.30608 0.0
O55 O 0.53281 0.74815 0.38408 0.0
O56 O 0.66048 0.82739 0.41382 0.0
O57 O 0.54169 0.79505 0.28958 0.0
O58 O 0.67098 0.87684 0.30331 0.0
O59 O 0.59322 0.87315 0.39612 0.0
O60 O 0.62537 0.83102 0.26524 0.0
O61 O 0.52888 0.81571 0.34373 0.0
O62 O 0.65634 0.89646 0.38277 0.0
O63 O 0.54552 0.72706 0.33027 0.0
O64 O 0.68009 0.80998 0.33677 0.0
O65 O 0.59826 0.80551 0.43173 0.0
Sc66 Sc 0.81219 0.65867 0.52299 0.0
Sc67 Sc 0.75215 0.55997 0.54581 0.0
Sc68 Sc 0.81129 0.5847 0.46596 0.0
O69 O 0.79215 0.60144 0.51153 0.0
C70 C 0.79789 0.65296 0.43366 0.0
C71 C 0.72811 0.62613 0.55629 0.0
C72 C 0.71822 0.52353 0.46789 0.0
C73 C 0.81197 0.6207 0.60329 0.0
C74 C 0.8899 0.662 0.49256 0.0
C75 C 0.8032 0.52054 0.52258 0.0
O76 O 0.80507 0.67096 0.46515 0.0
O77 O 0.72445 0.59279 0.56292 0.0
O78 O 0.75261 0.5357 0.45462 0.0
O79 O 0.8198 0.65003 0.58211 0.0
O80 O 0.87234 0.63088 0.47271 0.0
O81 O 0.77307 0.51937 0.53689 0.0
O82 O 0.87176 0.67421 0.51299 0.0
O83 O 0.79149 0.58511 0.59248 0.0
O84 O 0.82544 0.54693 0.49923 0.0
O85 O 0.75535 0.65137 0.53548 0.0
O86 O 0.79746 0.62055 0.42928 0.0
O87 O 0.71192 0.53454 0.49963 0.0
Sc88 Sc 0.23439 0.81081 0.63161 0.0
Sc89 Sc 0.19969 0.75365 0.71424 0.0
Sc90 Sc 0.16375 0.81619 0.6895 0.0
O91 O 0.19924 0.79357 0.67843 0.0
C92 C 0.23894 0.89143 0.65529 0.0
C93 C 0.29109 0.80641 0.69282 0.0
C94 C 0.19934 0.817 0.77011 0.0
C95 C 0.20414 0.71849 0.63551 0.0
C96 C 0.15166 0.79765 0.6012 0.0
C97 C 0.10993 0.72978 0.72264 0.0
O98 O 0.25314 0.87268 0.63862 0.0
O99 O 0.26247 0.78057 0.71191 0.0
O100 O 0.18362 0.83006 0.74718 0.0
O101 O 0.22176 0.75183 0.61928 0.0
O102 O 0.14065 0.80348 0.63315 0.0
O103 O 0.13735 0.72172 0.72441 0.0
O104 O 0.18459 0.79939 0.59576 0.0
O105 O 0.19164 0.71361 0.6693 0.0
O106 O 0.11491 0.76171 0.70867 0.0
O107 O 0.28649 0.82207 0.66314 0.0
O108 O 0.20714 0.87448 0.6738 0.0
O109 O 0.20724 0.79029 0.76168 0.0
Sc110 Sc 0.35475 0.15817 0.8609 0.0
Sc111 Sc 0.45247 0.20549 0.89116 0.0
Sc112 Sc 0.42979 0.23283 0.80455 0.0
O113 O 0.41222 0.19871 0.85204 0.0
C114 C 0.36564 0.14815 0.77301 0.0
C115 C 0.3929 0.11326 0.90017 0.0
C116 C 0.49589 0.20854 0.81541 0.0
C117 C 0.38327 0.19827 0.94179 0.0
C118 C 0.34926 0.2301 0.82507 0.0
C119 C 0.48668 0.29464 0.865 0.0
O120 O 0.34763 0.13629 0.80429 0.0
O121 O 0.42494 0.14476 0.90603 0.0
O122 O 0.4795 0.2242 0.79676 0.0
O123 O 0.35637 0.1759 0.91885 0.0
O124 O 0.3824 0.24591 0.80843 0.0
O125 O 0.48577 0.26781 0.88549 0.0
O126 O 0.33618 0.19889 0.84457 0.0
O127 O 0.41972 0.21389 0.93452 0.0
O128 O 0.46642 0.28745 0.83492 0.0
O129 O 0.36561 0.11202 0.87987 0.0
O130 O 0.39603 0.18185 0.76848 0.0
O131 O 0.48733 0.19708 0.8495 0.0
Sc132 Sc 0.66299 0.81253 0.79491 0.0
Sc133 Sc 0.56461 0.75076 0.76925 0.0
Sc134 Sc 0.58667 0.80858 0.85128 0.0
O135 O 0.60484 0.79066 0.80516 0.0
C136 C 0.65488 0.79432 0.88342 0.0
C137 C 0.62999 0.72609 0.76192 0.0
C138 C 0.52331 0.71643 0.84758 0.0
C139 C 0.62961 0.813 0.71341 0.0
C140 C 0.66418 0.88854 0.8284 0.0
C141 C 0.52691 0.80479 0.78893 0.0
O142 O 0.67226 0.79986 0.85177 0.0
O143 O 0.59456 0.71825 0.75996 0.0
O144 O 0.53916 0.74996 0.86343 0.0
O145 O 0.65803 0.82615 0.7368 0.0
O146 O 0.63096 0.87025 0.84471 0.0
O147 O 0.52929 0.77835 0.77052 0.0
O148 O 0.67861 0.87111 0.81007 0.0
O149 O 0.59469 0.78682 0.72175 0.0
O150 O 0.54713 0.8207 0.81856 0.0
O151 O 0.65696 0.75778 0.77625 0.0
O152 O 0.6238 0.79642 0.88809 0.0
O153 O 0.53159 0.71109 0.81421 0.0
Sc154 Sc 0.85516 0.66328 0.95984 0.0
Sc155 Sc 0.81743 0.56517 0.93233 0.0
Sc156 Sc 0.7856 0.58627 0.01762 0.0
O157 O 0.81952 0.60491 0.97005 0.0
C158 C 0.86925 0.65531 0.04718 0.0
C159 C 0.90714 0.62967 0.9235 0.0
C160 C 0.81409 0.52304 0.01 0.0
C161 C 0.81782 0.63142 0.87963 0.0
C162 C 0.78111 0.66301 -0.0026 0.0
C163 C 0.72688 0.52774 0.95514 0.0
O164 O 0.88049 0.67184 0.01509 0.0
O165 O 0.87993 0.59398 0.92312 0.0
O166 O 0.8002 0.54098 0.02869 0.0
O167 O 0.83284 0.65939 0.9034 0.0
O168 O 0.76608 0.6289 0.01189 0.0
O169 O 0.75471 0.53187 0.934 0.0
O170 O 0.81332 0.67873 0.9795 0.0
O171 O 0.81166 0.59707 0.88647 0.0
O172 O 0.73269 0.54524 0.98683 0.0
O173 O 0.90224 0.6569 0.93681 0.0
O174 O 0.83572 0.62496 0.05296 0.0
O175 O 0.82262 0.52928 0.97511 0.0
Sc176 Sc 0.20436 0.85186 0.12623 0.0
Sc177 Sc 0.25628 0.80521 0.0981 0.0
Sc178 Sc 0.20585 0.77928 0.18486 0.0
O179 O 0.22225 0.81225 0.13651 0.0
C180 C 0.22458 0.86423 0.2141 0.0
C181 C 0.28859 0.89711 0.0882 0.0
C182 C 0.2965 0.80401 0.1757 0.0
C183 C 0.19443 0.81189 0.04575 0.0
C184 C 0.12733 0.77963 0.1624 0.0
C185 C 0.20142 0.7165 0.12515 0.0
O186 O 0.21981 0.87579 0.18204 0.0
O187 O 0.29096 0.86632 0.08433 0.0
O188 O 0.26506 0.79128 0.19494 0.0
O189 O 0.18744 0.83242 0.0688 0.0
O190 O 0.14472 0.76369 0.17876 0.0
O191 O 0.22547 0.74287 0.10307 0.0
O192 O 0.14547 0.81131 0.14361 0.0
O193 O 0.21707 0.79843 0.0533 0.0
O194 O 0.19049 0.7243 0.15623 0.0
O195 O 0.26074 0.89754 0.10599 0.0
O196 O 0.22036 0.83033 0.2198 0.0
O197 O 0.29835 0.81154 0.1405 0.0
Sc198 Sc 0.34986 0.19494 0.29747 0.0
Sc199 Sc 0.44776 0.25658 0.27043 0.0
Sc200 Sc 0.42718 0.20068 0.35373 0.0
O201 O 0.40823 0.21742 0.30726 0.0
C202 C 0.35913 0.21572 0.38522 0.0
C203 C 0.3826 0.28092 0.26243 0.0
C204 C 0.49021 0.29262 0.34817 0.0
C205 C 0.38175 0.19216 0.2164 0.0
C206 C 0.34987 0.12012 0.33283 0.0
C207 C 0.48586 0.20314 0.2907 0.0
O208 O 0.34185 0.21035 0.35351 0.0
O209 O 0.41831 0.28962 0.26195 0.0
O210 O 0.47396 0.2597 0.3652 0.0
O211 O 0.35386 0.17847 0.24032 0.0
O212 O 0.38383 0.13882 0.34762 0.0
O213 O 0.4824 0.22839 0.27127 0.0
O214 O 0.33437 0.13705 0.31532 0.0
O215 O 0.41629 0.21984 0.22375 0.0
O216 O 0.4671 0.18883 0.32138 0.0
O217 O 0.35556 0.2487 0.27583 0.0
O218 O 0.38966 0.21264 0.3902 0.0
O219 O 0.48226 0.29688 0.3143 0.0
Sc220 Sc 0.15989 0.35058 0.46153 0.0
Sc221 Sc 0.19746 0.44875 0.43455 0.0
Sc222 Sc 0.23246 0.42731 0.51756 0.0
O223 O 0.19656 0.40881 0.47125 0.0
C224 C 0.14901 0.36021 0.54938 0.0
C225 C 0.10728 0.38426 0.42734 0.0
C226 C 0.20456 0.49115 0.51215 0.0
C227 C 0.1954 0.38275 0.38055 0.0
C228 C 0.23394 0.34902 0.49677 0.0
C229 C 0.28902 0.48569 0.45457 0.0
O230 O 0.13718 0.34265 0.51781 0.0
O231 O 0.13502 0.4196 0.42545 0.0
O232 O 0.22177 0.47515 0.52864 0.0
O233 O 0.17973 0.35457 0.40412 0.0
O234 O 0.24943 0.38275 0.51207 0.0
O235 O 0.26034 0.48328 0.43584 0.0
O236 O 0.20193 0.33435 0.4786 0.0
O237 O 0.20331 0.41761 0.38794 0.0
O238 O 0.2845 0.46614 0.48477 0.0
O239 O 0.11192 0.35707 0.44122 0.0
O240 O 0.18261 0.39083 0.55424 0.0
O241 O 0.19131 0.48277 0.47864 0.0
Sc242 Sc 0.81087 0.15528 0.63009 0.0
Sc243 Sc 0.74333 0.18598 0.61007 0.0
Sc244 Sc 0.80858 0.22907 0.68543 0.0
O245 O 0.78784 0.19009 0.64176 0.0
C246 C 0.79854 0.14888 0.71959 0.0
C247 C 0.72337 0.09718 0.60291 0.0
C248 C 0.71553 0.1956 0.68954 0.0
C249 C 0.80297 0.18624 0.54933 0.0
C250 C 0.8878 0.23249 0.6584 0.0
C251 C 0.79505 0.27924 0.62453 0.0
O252 O 0.80376 0.13656 0.68803 0.0
O253 O 0.71414 0.1237 0.60064 0.0
O254 O 0.75065 0.21826 0.7005 0.0
O255 O 0.81823 0.17162 0.57109 0.0
O256 O 0.86996 0.24688 0.67632 0.0
O257 O 0.76578 0.24819 0.61174 0.0
O258 O 0.8699 0.20045 0.6404 0.0
O259 O 0.77692 0.19437 0.55997 0.0
O260 O 0.81773 0.2783 0.6498 0.0
O261 O 0.75603 0.10375 0.61632 0.0
O262 O 0.79902 0.18144 0.72364 0.0
O263 O 0.70711 0.17663 0.65866 0.0
H264 H 0.21085 0.50669 0.10382 0.0
H265 H 0.18236 0.68665 0.05432 0.0
H266 H 0.17562 0.52354 0.99303 0.0
H267 H 0.19028 0.65379 0.1689 0.0
H268 H 0.17341 0.62394 0.03219 0.0
H269 H 0.19796 0.55683 0.12888 0.0
C270 C 0.20012 0.5208 0.08474 0.0
C271 C 0.1949 0.51132 0.04607 0.0
C272 C 0.17634 0.62997 0.06224 0.0
C273 C 0.18022 0.56916 0.07476 0.0
C274 C 0.18141 0.66577 0.07493 0.0
C275 C 0.18735 0.67548 0.1135 0.0
C276 C 0.17803 0.60387 0.0882 0.0
C277 C 0.18571 0.64739 0.13897 0.0
C278 C 0.19255 0.54932 0.09919 0.0
C279 C 0.18027 0.53008 0.02294 0.0
N280 N 0.18196 0.61311 0.12578 0.0
N281 N 0.17406 0.55859 0.03753 0.0
H282 H 0.52827 0.17718 0.3314 0.0
H283 H 0.6571 0.1855 0.15192 0.0
H284 H 0.50777 0.20282 0.21777 0.0
H285 H 0.69608 0.19595 0.26758 0.0
H286 H 0.59362 0.17517 0.17482 0.0
H287 H 0.58134 0.16739 0.30733 0.0
C288 C 0.53445 0.18007 0.30137 0.0
C289 C 0.51399 0.1914 0.27666 0.0
C290 C 0.61596 0.17921 0.19513 0.0
C291 C 0.57438 0.1802 0.24895 0.0
C292 C 0.65205 0.18488 0.18207 0.0
C293 C 0.68205 0.19215 0.20785 0.0
C294 C 0.60979 0.18033 0.2342 0.0
C295 C 0.67396 0.1911 0.24668 0.0
C296 C 0.56482 0.17468 0.28766 0.0
C297 C 0.52326 0.19476 0.23794 0.0
N298 N 0.63876 0.1856 0.25865 0.0
N299 N 0.55287 0.18944 0.22534 0.0
H300 H 0.31033 0.50685 0.38137 0.0
H301 H 0.51347 0.69317 0.43427 0.0
H302 H 0.35839 0.5275 0.49418 0.0
H303 H 0.47861 0.65635 0.31905 0.0
H304 H 0.4597 0.63041 0.45638 0.0
H305 H 0.37343 0.55848 0.35766 0.0
C306 C 0.33435 0.52205 0.40116 0.0
C307 C 0.32891 0.51317 0.43996 0.0
C308 C 0.46408 0.63567 0.42625 0.0
C309 C 0.40142 0.57281 0.41287 0.0
C310 C 0.49477 0.67156 0.41356 0.0
C311 C 0.50028 0.68015 0.37472 0.0
C312 C 0.43807 0.60827 0.39998 0.0
C313 C 0.4754 0.65094 0.34921 0.0
C314 C 0.37047 0.55146 0.38752 0.0
C315 C 0.36125 0.53345 0.46412 0.0
N316 N 0.44493 0.61655 0.36231 0.0
N317 N 0.39595 0.5628 0.45027 0.0
H318 H 0.75331 0.44503 0.506 0.0
H319 H 0.85307 0.35621 0.64126 0.0
H320 H 0.86434 0.51983 0.56025 0.0
H321 H 0.75236 0.28878 0.56936 0.0
H322 H 0.86034 0.41687 0.61271 0.0
H323 H 0.75523 0.38763 0.52871 0.0
C324 C 0.77854 0.44921 0.52218 0.0
C325 C 0.8089 0.487 0.53091 0.0
C326 C 0.83687 0.38863 0.60323 0.0
C327 C 0.81095 0.42125 0.55836 0.0
C328 C 0.83262 0.35404 0.61959 0.0
C329 C 0.80185 0.3171 0.6081 0.0
C330 C 0.8101 0.3861 0.57534 0.0
C331 C 0.77641 0.31624 0.57964 0.0
C332 C 0.77961 0.41644 0.5354 0.0
C333 C 0.84068 0.49098 0.5525 0.0
N334 N 0.78106 0.34996 0.56457 0.0
N335 N 0.84073 0.4584 0.56593 0.0
H336 H 0.48476 0.83075 0.82976 0.0
H337 H 0.35787 0.82866 0.65079 0.0
H338 H 0.50397 0.80422 0.71616 0.0
H339 H 0.31493 0.80876 0.76547 0.0
H340 H 0.42071 0.83738 0.67411 0.0
H341 H 0.43138 0.84037 0.80597 0.0
C342 C 0.47823 0.82765 0.79979 0.0
C343 C 0.49846 0.8162 0.77499 0.0
C344 C 0.39763 0.83162 0.69414 0.0
C345 C 0.43786 0.82736 0.74761 0.0
C346 C 0.36193 0.82687 0.68087 0.0
C347 C 0.33105 0.81752 0.70618 0.0
C348 C 0.40259 0.82765 0.733 0.0
C349 C 0.33781 0.81539 0.74492 0.0
C350 C 0.4477 0.83293 0.78626 0.0
C351 C 0.48872 0.81248 0.73637 0.0
N352 N 0.37273 0.82024 0.75712 0.0
N353 N 0.45906 0.81788 0.7239 0.0
H354 H 0.70256 0.50966 0.88215 0.0
H355 H 0.5013 0.32184 0.93695 0.0
H356 H 0.65913 0.48424 -0.00337 0.0
H357 H 0.53427 0.35963 0.82169 0.0
H358 H 0.55499 0.38462 0.95904 0.0
H359 H 0.63856 0.45905 0.8593 0.0
C360 C 0.67938 0.49361 0.90253 0.0
C361 C 0.68643 0.50079 0.94149 0.0
C362 C 0.5502 0.37963 0.92891 0.0
C363 C 0.61283 0.44236 0.91532 0.0
C364 C 0.51951 0.34377 0.91625 0.0
C365 C 0.51359 0.33544 0.87741 0.0
C366 C 0.57579 0.40726 0.90258 0.0
C367 C 0.53782 0.36492 0.85186 0.0
C368 C 0.64273 0.46478 0.88938 0.0
C369 C 0.65507 0.47954 0.96642 0.0
N370 N 0.56837 0.39929 0.86491 0.0
N371 N 0.61981 0.45081 0.95295 0.0
H372 H 0.26828 0.30524 0.07204 0.0
H373 H 0.42969 0.35269 0.22806 0.0
H374 H 0.35378 0.42651 0.09518 0.0
H375 H 0.30869 0.26052 0.23868 0.0
H376 H 0.41085 0.37932 0.17417 0.0
H377 H 0.29419 0.28544 0.12488 0.0
C378 C 0.29318 0.32776 0.08748 0.0
C379 C 0.30835 0.36776 0.07934 0.0
C380 C 0.38854 0.35361 0.18882 0.0
C381 C 0.3378 0.34499 0.14035 0.0
C382 C 0.3991 0.33857 0.21977 0.0
C383 C 0.37083 0.30402 0.23794 0.0
C384 C 0.34974 0.3334 0.17555 0.0
C385 C 0.33166 0.28704 0.22571 0.0
C386 C 0.30755 0.31636 0.11803 0.0
C387 C 0.34084 0.39537 0.10057 0.0
N388 N 0.32248 0.30141 0.19488 0.0
N389 N 0.35433 0.38349 0.13039 0.0
H390 H 0.96293 0.26819 0.24248 0.0
H391 H 0.08334 0.43183 0.39265 0.0
H392 H 0.92342 0.35015 0.2686 0.0
H393 H 0.0505 0.31013 0.40771 0.0
H394 H 0.03492 0.412 0.34118 0.0
H395 H 0.01019 0.29563 0.2939 0.0
C396 C 0.9647 0.29257 0.25833 0.0
C397 C 0.93848 0.30633 0.25143 0.0
C398 C 0.03811 0.38982 0.35634 0.0
C399 C 0.99268 0.33766 0.31066 0.0
C400 C 0.06543 0.40095 0.38587 0.0
C401 C 0.07143 0.37269 0.40444 0.0
C402 C 0.01755 0.35042 0.3449 0.0
C403 C 0.0473 0.33311 0.39427 0.0
C404 C 0.99144 0.30786 0.28801 0.0
C405 C 0.94272 0.33831 0.27306 0.0
N406 N 0.02213 0.32332 0.3647 0.0
N407 N 0.96916 0.35279 0.302 0.0
H408 H 0.65075 0.06958 0.56943 0.0
H409 H 0.70276 0.95891 0.4151 0.0
H410 H 0.74467 0.04357 0.58191 0.0
H411 H 0.58051 0.91968 0.43689 0.0
H412 H 0.72078 1.00303 0.46895 0.0
H413 H 0.62464 0.02276 0.51666 0.0
C414 C 0.66533 0.05338 0.56185 0.0
C415 C 0.70032 0.06101 0.58005 0.0
C416 C 0.69002 0.985 0.46167 0.0
C417 C 0.67143 0.00889 0.51894 0.0
C418 C 0.67963 0.96011 0.43054 0.0
C419 C 0.6399 0.93491 0.42155 0.0
C420 C 0.66068 0.98541 0.48376 0.0
C421 C 0.61148 0.93828 0.44286 0.0
C422 C 0.65056 0.02698 0.53153 0.0
C423 C 0.71783 0.03904 0.56882 0.0
N424 N 0.6224 0.96291 0.4732 0.0
N425 N 0.70373 0.01473 0.53851 0.0
H426 H 0.5832 0.6549 0.72649 0.0
H427 H 0.74756 0.70121 0.57446 0.0
H428 H 0.70434 0.7456 0.74063 0.0
H429 H 0.65998 0.58039 0.59612 0.0
H430 H 0.72197 0.72127 0.62744 0.0
H431 H 0.60312 0.62826 0.67358 0.0
C432 C 0.61401 0.66868 0.71919 0.0
C433 C 0.64203 0.70282 0.73806 0.0
C434 C 0.70808 0.69041 0.62024 0.0
C435 C 0.66444 0.67345 0.67673 0.0
C436 C 0.72223 0.67893 0.58959 0.0
C437 C 0.70607 0.63896 0.58085 0.0
C438 C 0.67708 0.6619 0.642 0.0
C439 C 0.67346 0.6115 0.60196 0.0
C440 C 0.62522 0.65364 0.68879 0.0
C441 C 0.68154 0.71939 0.72709 0.0
N442 N 0.66006 0.62345 0.63171 0.0
N443 N 0.69139 0.70506 0.69672 0.0
H444 H 0.08548 0.65841 0.75784 0.0
H445 H 0.96635 0.70405 0.90769 0.0
H446 H 0.05397 0.74818 0.7425 0.0
H447 H 0.92817 0.58237 0.88388 0.0
H448 H 0.01305 0.72343 0.8559 0.0
H449 H 0.03754 0.63072 0.80969 0.0
C450 C 0.06795 0.67177 0.76465 0.0
C451 C 0.07419 0.70601 0.74584 0.0
C452 C 0.9947 0.6925 0.86235 0.0
C453 C 0.02083 0.67541 0.80586 0.0
C454 C 0.9683 0.68132 0.89227 0.0
C455 C 0.94262 0.64137 0.89998 0.0
C456 C 0.99617 0.66372 0.84024 0.0
C457 C 0.94706 0.61349 0.87883 0.0
C458 C 0.0409 0.6561 0.79441 0.0
C459 C 0.05056 0.72198 0.75609 0.0
N460 N 0.97316 0.62517 0.84965 0.0
N461 N 0.02563 0.70708 0.78586 0.0
H462 H 0.34036 0.03435 0.88862 0.0
H463 H 0.31553 0.9758 0.10004 0.0
H464 H 0.42468 0.11554 0.96889 0.0
H465 H 0.31574 0.89428 0.01857 0.0
H466 H 0.34651 0.0284 0.05246 0.0
H467 H 0.32078 0.9814 0.93562 0.0
C468 C 0.35515 0.04089 0.91573 0.0
C469 C 0.38442 0.07932 0.92465 0.0
C470 C 0.34022 0.99901 0.04544 0.0
C471 C 0.36119 0.01973 0.97856 0.0
C472 C 0.32279 0.96918 0.07251 0.0
C473 C 0.3136 0.93081 0.06344 0.0
C474 C 0.34697 0.98992 0.0088 0.0
C475 C 0.32298 0.9236 0.02702 0.0
C476 C 0.34396 0.01083 0.94245 0.0
C477 C 0.40233 0.08629 0.9605 0.0
N478 N 0.33842 0.95269 0.00077 0.0
N479 N 0.38991 0.05699 0.98639 0.0
H480 H 0.46688 0.7159 0.8922 0.0
H481 H 0.37094 0.50103 0.96967 0.0
H482 H 0.50754 0.64029 0.84809 0.0
H483 H 0.29815 0.54647 0.9286 0.0
H484 H 0.42815 0.55652 0.93922 0.0
H485 H 0.4111 0.65854 0.9215 0.0
C486 C 0.46432 0.6873 0.88917 0.0
C487 C 0.49168 0.68264 0.86776 0.0
C488 C 0.39952 0.554 0.93683 0.0
C489 C 0.42866 0.61755 0.90142 0.0
C490 C 0.36706 0.5226 0.95412 0.0
C491 C 0.32992 0.51925 0.95134 0.0
C492 C 0.39481 0.58273 0.91794 0.0
C493 C 0.32628 0.54789 0.93102 0.0
C494 C 0.43246 0.65472 0.90557 0.0
C495 C 0.48688 0.64493 0.8643 0.0
N496 N 0.35849 0.57885 0.91554 0.0
N497 N 0.45604 0.61369 0.8813 0.0
H498 H 0.82756 0.4676 0.97766 0.0
H499 H 0.8256 0.36532 0.17355 0.0
H500 H 0.81133 0.50793 0.08608 0.0
H501 H 0.80859 0.30854 0.0651 0.0
H502 H 0.83075 0.42279 0.14176 0.0
H503 H 0.831 0.41427 0.00941 0.0
C504 C 0.82502 0.46548 0.00817 0.0
C505 C 0.81886 0.49221 0.0292 0.0
C506 C 0.82603 0.39779 0.12494 0.0
C507 C 0.82283 0.43114 0.06564 0.0
C508 C 0.82322 0.36498 0.14302 0.0
C509 C 0.81636 0.33184 0.122 0.0
C510 C 0.8223 0.39772 0.08549 0.0
C511 C 0.81355 0.33324 0.08251 0.0
C512 C 0.82684 0.4349 0.02622 0.0
C513 C 0.81577 0.48786 0.06867 0.0
N514 N 0.81648 0.36562 0.06554 0.0
N515 N 0.81774 0.45787 0.0856 0.0
H516 H 0.36544 0.81719 0.1435 0.0
H517 H 0.46695 0.82065 0.34062 0.0
H518 H 0.30933 0.8031 0.25187 0.0
H519 H 0.50917 0.80638 0.23246 0.0
H520 H 0.41374 0.82391 0.30833 0.0
H521 H 0.42292 0.82273 0.17571 0.0
C522 C 0.36523 0.81548 0.17407 0.0
C523 C 0.33229 0.80936 0.19496 0.0
C524 C 0.43476 0.82022 0.29169 0.0
C525 C 0.39814 0.81577 0.23197 0.0
C526 C 0.46527 0.8185 0.31007 0.0
C527 C 0.49246 0.8129 0.28926 0.0
C528 C 0.43154 0.81661 0.25219 0.0
C529 C 0.48871 0.81034 0.24972 0.0
C530 C 0.39806 0.81855 0.19241 0.0
C531 C 0.33385 0.80744 0.23454 0.0
N532 N 0.45876 0.81212 0.23249 0.0
N533 N 0.3662 0.81057 0.25175 0.0
H534 H 0.64494 0.51424 0.45942 0.0
H535 H 0.5447 0.29394 0.39638 0.0
H536 H 0.71467 0.46108 0.43162 0.0
H537 H 0.50799 0.36922 0.34342 0.0
H538 H 0.60078 0.35203 0.42429 0.0
H539 H 0.58762 0.45817 0.42974 0.0
C540 C 0.64815 0.49089 0.44684 0.0
C541 C 0.68443 0.49219 0.4476 0.0
C542 C 0.58023 0.35564 0.40672 0.0
C543 C 0.61939 0.42814 0.4152 0.0
C544 C 0.54818 0.32265 0.3911 0.0
C545 C 0.52186 0.32698 0.36762 0.0
C546 C 0.58528 0.39295 0.3996 0.0
C547 C 0.52784 0.36483 0.36129 0.0
C548 C 0.61564 0.45915 0.43001 0.0
C549 C 0.68724 0.46128 0.43115 0.0
N550 N 0.55887 0.39652 0.3775 0.0
N551 N 0.65492 0.43013 0.41608 0.0
H552 H 0.14245 0.64308 0.63536 0.0
H553 H 0.26053 0.548 0.55633 0.0
H554 H 0.25901 0.71647 0.59072 0.0
H555 H 0.14408 0.50665 0.51204 0.0
H556 H 0.25878 0.60378 0.58529 0.0
H557 H 0.14035 0.58586 0.60455 0.0
C558 C 0.16742 0.64708 0.61893 0.0
C559 C 0.20088 0.68436 0.61527 0.0
C560 C 0.23361 0.58226 0.56939 0.0
C561 C 0.19909 0.61958 0.5815 0.0
C562 C 0.23443 0.55044 0.55317 0.0
C563 C 0.20239 0.52291 0.53185 0.0
C564 C 0.20011 0.58581 0.56512 0.0
C565 C 0.16938 0.52749 0.5282 0.0
C566 C 0.16614 0.61464 0.60144 0.0
C567 C 0.23257 0.68821 0.59384 0.0
N568 N 0.16887 0.5583 0.54505 0.0
N569 N 0.23117 0.65603 0.57821 0.0
H570 H 0.55182 0.26099 0.76798 0.0
H571 H 0.64124 0.13349 0.70019 0.0
H572 H 0.51193 0.14867 0.82152 0.0
H573 H 0.71665 0.25577 0.72803 0.0
H574 H 0.58674 0.135 0.73289 0.0
H575 H 0.60626 0.25646 0.73956 0.0
C576 C 0.55439 0.23525 0.77343 0.0
C577 C 0.52759 0.20517 0.79707 0.0
C578 C 0.6154 0.16126 0.732 0.0
C579 C 0.58897 0.19965 0.76441 0.0
C580 C 0.64631 0.16048 0.7134 0.0
C581 C 0.68336 0.19453 0.71165 0.0
C582 C 0.62151 0.19664 0.74761 0.0
C583 C 0.68858 0.22882 0.72909 0.0
C584 C 0.58546 0.23285 0.75749 0.0
C585 C 0.53226 0.17252 0.80356 0.0
N586 N 0.65777 0.2292 0.74585 0.0
N587 N 0.56227 0.17036 0.78692 0.0
H588 H 0.18072 0.28092 0.91184 0.0
H589 H 0.3748 0.30884 0.8157 0.0
H590 H 0.27986 0.39488 0.88732 0.0
H591 H 0.27042 0.19705 0.83552 0.0
H592 H 0.33722 0.34177 0.82974 0.0
H593 H 0.20864 0.25082 0.87165 0.0
C594 C 0.20798 0.29965 0.89709 0.0
C595 C 0.22812 0.34031 0.90287 0.0
C596 C 0.32239 0.31 0.83023 0.0
C597 C 0.2613 0.30606 0.85799 0.0
C598 C 0.34379 0.29118 0.82206 0.0
C599 C 0.32588 0.25016 0.82513 0.0
C600 C 0.28289 0.28756 0.84146 0.0
C601 C 0.28564 0.22877 0.83353 0.0
C602 C 0.2241 0.28249 0.87429 0.0
C603 C 0.2634 0.36336 0.88332 0.0
N604 N 0.26573 0.24771 0.84185 0.0
N605 N 0.27939 0.34583 0.86235 0.0
H606 H 0.90722 0.18423 0.08385 0.0
H607 H 0.07233 0.37733 0.98704 0.0
H608 H 0.88936 0.28097 0.0567 0.0
H609 H 0.07504 0.26929 -0.00457 0.0
H610 H 1.00221 0.34111 0.00347 0.0
H611 H 0.96476 0.21224 0.04298 0.0
C612 C 0.91507 0.21102 0.06848 0.0
C613 C 0.89373 0.23039 0.07355 0.0
C614 C 0.018 0.32524 0.00086 0.0
C615 C 0.96052 0.26366 0.02773 0.0
C616 C 0.05796 0.34588 0.99132 0.0
C617 C 0.07967 0.3264 0.99059 0.0
C618 C 0.99992 0.285 0.00971 0.0
C619 C 0.05963 0.28564 -0.00355 0.0
C620 C 0.948 0.22715 0.0452 0.0
C621 C 0.90508 0.26511 0.05323 0.0
N622 N 0.02116 0.26649 0.00626 0.0
N623 N 0.93831 0.28118 0.03177 0.0
H624 H 0.73043 0.90959 0.24952 0.0
H625 H 0.69656 0.0719 0.15605 0.0
H626 H 0.61407 0.88798 0.22445 0.0
H627 H 0.80755 0.07466 0.15573 0.0
H628 H 0.66377 1.00195 0.17324 0.0
H629 H 0.75781 0.96692 0.20825 0.0
C630 C 0.71064 0.91658 0.23454 0.0
C631 C 0.67006 0.89418 0.24023 0.0
C632 C 0.69518 0.01768 0.16848 0.0
C633 C 0.7011 0.9607 0.19392 0.0
C634 C 0.71385 0.05754 0.15846 0.0
C635 C 0.7549 0.07925 0.15511 0.0
C636 C 0.71788 0.99975 0.17526 0.0
C637 C 0.77591 0.05923 0.15874 0.0
C638 C 0.72621 0.94936 0.21101 0.0
C639 C 0.64558 0.9045 0.22045 0.0
N640 N 0.75729 0.02091 0.16917 0.0
N641 N 0.66153 0.93759 0.19873 0.0
H642 H 0.63613 0.69749 0.31774 0.0
H643 H 0.8311 0.72927 0.41238 0.0
H644 H 0.74367 0.80913 0.32232 0.0
H645 H 0.73574 0.61377 0.38536 0.0
H646 H 0.80224 0.75785 0.37121 0.0
H647 H 0.67349 0.66466 0.33359 0.0
C648 C 0.6677 0.71499 0.321 0.0
C649 C 0.68671 0.75616 0.31943 0.0
C650 C 0.78787 0.72618 0.37352 0.0
C651 C 0.72943 0.71899 0.33802 0.0
C652 C 0.80448 0.70992 0.39698 0.0
C653 C 0.78571 0.66921 0.40225 0.0
C654 C 0.75149 0.70166 0.35605 0.0
C655 C 0.75119 0.64535 0.3818 0.0
C656 C 0.689 0.69627 0.33024 0.0
C657 C 0.72766 0.77738 0.32401 0.0
N658 N 0.73464 0.66197 0.36021 0.0
N659 N 0.74746 0.75864 0.33367 0.0
H660 H 0.10962 0.83175 0.57991 0.0
H661 H 0.94309 0.63604 0.48486 0.0
H662 H 0.12625 0.73395 0.55449 0.0
H663 H 0.93557 0.74037 0.50392 0.0
H664 H 0.01369 0.67383 0.49962 0.0
H665 H 0.0505 0.80238 0.5411 0.0
C666 C 0.10122 0.80447 0.56526 0.0
C667 C 0.12268 0.7852 0.57032 0.0
C668 C 0.99667 0.68856 0.49982 0.0
C669 C 0.05395 0.7503 0.52702 0.0
C670 C 0.95645 0.66704 0.49127 0.0
C671 C 0.93335 0.68495 0.49383 0.0
C672 C 0.01366 0.72815 0.51082 0.0
C673 C 0.95209 0.72517 0.50232 0.0
C674 C 0.0673 0.7875 0.54325 0.0
C675 C 0.11051 0.7498 0.55098 0.0
N676 N 0.99089 0.74518 0.51088 0.0
N677 N 0.07639 0.73297 0.53077 0.0
H678 H 0.29103 0.10865 0.74728 0.0
H679 H 0.3191 0.94151 0.65423 0.0
H680 H 0.40546 0.12236 0.72889 0.0
H681 H 0.20893 0.94015 0.66032 0.0
H682 H 0.35343 0.01148 0.67145 0.0
H683 H 0.2625 0.05166 0.70568 0.0
C684 C 0.31023 0.10003 0.73366 0.0
C685 C 0.35052 0.12004 0.7414 0.0
C686 C 0.32182 0.99604 0.66816 0.0
C687 C 0.31802 0.05377 0.6948 0.0
C688 C 0.30226 0.95618 0.65814 0.0
C689 C 0.26107 0.93488 0.65648 0.0
C690 C 0.2999 0.01446 0.67651 0.0
C691 C 0.24067 0.95526 0.66197 0.0
C692 C 0.29398 0.06738 0.70999 0.0
C693 C 0.37422 0.1077 0.72331 0.0
N694 N 0.2602 0.99362 0.67219 0.0
N695 N 0.35749 0.07475 0.7014 0.0
H696 H 0.70108 0.63353 -0.00094 0.0
H697 H 0.73054 0.8287 0.90646 0.0
H698 H 0.81179 0.74207 -0.00506 0.0
H699 H 0.61552 0.73094 0.93027 0.0
H700 H 0.7593 0.80017 0.94781 0.0
H701 H 0.66734 0.67008 0.9834 0.0
C702 C 0.71817 0.66514 -0.00406 0.0
C703 C 0.75934 0.68471 -0.00242 0.0
C704 C 0.72767 0.78516 0.94478 0.0
C705 C 0.72117 0.7265 0.97926 0.0
C706 C 0.71131 0.8016 0.92125 0.0
C707 C 0.67073 0.78209 0.91506 0.0
C708 C 0.70341 0.74821 0.96135 0.0
C709 C 0.64699 0.74694 0.93462 0.0
C710 C 0.69894 0.68598 0.98682 0.0
C711 C 0.78005 0.72567 -0.00681 0.0
N712 N 0.66376 0.73059 0.95629 0.0
N713 N 0.76084 0.74503 0.98369 0.0
H714 H 0.07427 0.70033 0.16777 0.0
H715 H 0.91269 0.73169 0.0671 0.0
H716 H 0.08147 0.81275 0.15395 0.0
H717 H 0.89244 0.61658 0.09603 0.0
H718 H 0.97021 0.76088 0.10808 0.0
H719 H 1.00424 0.6679 0.15127 0.0
C720 C 0.06092 0.71816 0.16228 0.0
C721 C 0.08388 0.75931 0.16154 0.0
C722 C 0.95294 0.72918 0.1062 0.0
C723 C 1.00417 0.72256 0.1423 0.0
C724 C 0.92002 0.71257 0.08285 0.0
C725 C 0.89802 0.6718 0.07822 0.0
C726 C 0.96477 0.70492 0.12423 0.0
C727 C 0.90868 0.64821 0.09911 0.0
C728 C 0.02099 0.69965 0.15269 0.0
C729 C 0.06509 0.78096 0.15414 0.0
N730 N 0.9419 0.66516 0.12065 0.0
N731 N 0.0266 0.76237 0.14431 0.0
H732 H 0.27083 0.07174 0.33024 0.0
H733 H 0.28516 0.8851 0.26423 0.0
H734 H 0.3794 0.0696 0.33245 0.0
H735 H 0.19351 0.90951 0.23328 0.0
H736 H 0.31348 0.94299 0.30612 0.0
H737 H 0.23585 1.00243 0.31328 0.0
C738 C 0.28723 0.05643 0.32787 0.0
C739 C 0.3282 0.07665 0.33208 0.0
C740 C 0.28668 0.93505 0.29078 0.0
C741 C 0.28829 0.99725 0.31193 0.0
C742 C 0.27041 0.90197 0.26718 0.0
C743 C 0.23713 0.89283 0.24529 0.0
C744 C 0.26903 0.95849 0.29274 0.0
C745 C 0.21933 0.91578 0.24957 0.0
C746 C 0.26723 0.01686 0.31806 0.0
C747 C 0.34782 0.05516 0.32923 0.0
N748 N 0.2356 0.94761 0.2726 0.0
N749 N 0.32777 0.01668 0.31856 0.0
H750 H 0.40005 0.2776 0.4335 0.0
H751 H 0.20112 0.26975 0.49527 0.0
H752 H 0.28321 0.18492 0.40629 0.0
H753 H 0.31363 0.37636 0.49759 0.0
H754 H 0.23386 0.23266 0.48091 0.0
H755 H 0.37157 0.308 0.47388 0.0
C756 C 0.36849 0.26301 0.43708 0.0
C757 C 0.34381 0.22885 0.41656 0.0
C758 C 0.25156 0.26408 0.48511 0.0
C759 C 0.31125 0.26329 0.46215 0.0
C760 C 0.23287 0.28529 0.4934 0.0
C761 C 0.25464 0.32629 0.49695 0.0
C762 C 0.29238 0.28396 0.47975 0.0
C763 C 0.29575 0.34479 0.49484 0.0
C764 C 0.35229 0.2805 0.45979 0.0
C765 C 0.30316 0.21137 0.42156 0.0
N766 N 0.31333 0.32356 0.4856 0.0
N767 N 0.28818 0.22891 0.44359 0.0
H768 H 0.12551 0.40087 0.59504 0.0
H769 H 0.93446 0.20024 0.65368 0.0
H770 H 0.10566 0.28473 0.57225 0.0
H771 H 0.93995 0.31242 0.65918 0.0
H772 H 1.00434 0.23353 0.6398 0.0
H773 H 0.06535 0.37171 0.6337 0.0
C774 C 0.10923 0.36937 0.59933 0.0
C775 C 0.12033 0.34503 0.58053 0.0
C776 C 0.99054 0.25107 0.64444 0.0
C777 C 0.05173 0.31165 0.62395 0.0
C778 C 0.95057 0.23204 0.65239 0.0
C779 C 0.93123 0.25357 0.65692 0.0
C780 C 0.01153 0.29206 0.64031 0.0
C781 C 0.95374 0.29474 0.65563 0.0
C782 C 0.07477 0.35274 0.621 0.0
C783 C 0.09797 0.30442 0.58627 0.0
N784 N 0.99268 0.3127 0.64671 0.0
N785 N 0.06464 0.28903 0.60717 0.0
H786 H 0.83369 0.10825 0.74277 0.0
H787 H 0.63681 0.94081 0.83344 0.0
H788 H 0.73532 0.12444 0.76648 0.0
H789 H 0.74316 0.93542 0.82171 0.0
H790 H 0.67443 0.01151 0.8194 0.0
H791 H 0.80442 0.04961 0.78231 0.0
C792 C 0.80638 0.09996 0.75729 0.0
C793 C 0.78688 0.1211 0.75148 0.0
C794 C 0.68962 0.99495 0.82068 0.0
C795 C 0.75207 0.05287 0.79551 0.0
C796 C 0.66818 0.95464 0.82883 0.0
C797 C 0.68675 0.93207 0.82804 0.0
C798 C 0.7298 0.01259 0.81176 0.0
C799 C 0.72745 0.95149 0.82186 0.0
C800 C 0.78945 0.06629 0.7797 0.0
C801 C 0.75138 0.109 0.7706 0.0
N802 N 0.7474 0.99036 0.81351 0.0
N803 N 0.73459 0.0751 0.79113 0.0
H804 H 0.24917 0.43305 0.33078 0.0
H805 H 0.17024 0.31181 0.14364 0.0
H806 H 0.15161 0.31464 0.34051 0.0
H807 H 0.20065 0.43305 0.15623 0.0
H808 H 0.17018 0.30602 0.21301 0.0
H809 H 0.2448 0.42678 0.26227 0.0
C810 C 0.22739 0.4054 0.31844 0.0
C811 C 0.20019 0.3746 0.3411 0.0
C812 C 0.17612 0.33352 0.20027 0.0
C813 C 0.19466 0.36758 0.2631 0.0
C814 C 0.17577 0.33679 0.16092 0.0
C815 C 0.18622 0.37322 0.14434 0.0
C816 C 0.18753 0.36704 0.22242 0.0
C817 C 0.19328 0.40469 0.16788 0.0
C818 C 0.22469 0.40199 0.27947 0.0
C819 C 0.17294 0.33911 0.32379 0.0
N820 N 0.19456 0.40108 0.20574 0.0
N821 N 0.17037 0.33666 0.28542 0.0
H822 H 0.78777 0.2277 0.49735 0.0
H823 H 0.85675 0.16791 0.31395 0.0
H824 H 0.83646 0.15104 0.50836 0.0
H825 H 0.756 0.18388 0.31918 0.0
H826 H 0.85696 0.16505 0.38348 0.0
H827 H 0.78785 0.22123 0.4292 0.0
C828 C 0.79896 0.20985 0.48542 0.0
C829 C 0.81148 0.18931 0.50859 0.0
C830 C 0.83436 0.16823 0.36915 0.0
C831 C 0.81115 0.18145 0.43052 0.0
C832 C 0.83394 0.16944 0.32966 0.0
C833 C 0.8067 0.17681 0.31113 0.0
C834 C 0.80765 0.17486 0.38952 0.0
C835 C 0.77792 0.1789 0.33256 0.0
C836 C 0.79861 0.20587 0.44653 0.0
C837 C 0.82635 0.1672 0.49144 0.0
N838 N 0.7796 0.17869 0.37069 0.0
N839 N 0.82555 0.16357 0.45316 0.0
H840 H 0.7002 0.84328 0.67588 0.0
H841 H 0.5847 0.75517 0.48634 0.0
H842 H 0.57715 0.80381 0.65892 0.0
H843 H 0.70004 0.8578 0.47844 0.0
H844 H 0.58985 0.75907 0.55502 0.0
H845 H 0.70783 0.84116 0.60696 0.0
C846 C 0.6751 0.83519 0.65772 0.0
C847 C 0.63779 0.82302 0.67312 0.0
C848 C 0.61433 0.78031 0.5382 0.0
C849 C 0.64615 0.81915 0.59551 0.0
C850 C 0.61159 0.77784 0.49915 0.0
C851 C 0.64169 0.80663 0.47699 0.0
C852 C 0.6473 0.81176 0.55507 0.0
C853 C 0.67616 0.83519 0.49481 0.0
C854 C 0.67945 0.83358 0.61864 0.0
C855 C 0.60626 0.81269 0.64838 0.0
N856 N 0.67784 0.8376 0.5332 0.0
N857 N 0.61101 0.81027 0.61086 0.0
H858 H 0.86208 0.69803 0.83787 0.0
H859 H 0.80115 0.56662 0.65711 0.0
H860 H 0.76107 0.5814 0.83218 0.0
H861 H 0.84222 0.69039 0.64237 0.0
H862 H 0.80038 0.57501 0.725 0.0
H863 H 0.86406 0.7002 0.76828 0.0
C864 C 0.83952 0.67357 0.822 0.0
C865 C 0.81175 0.63919 0.84046 0.0
C866 C 0.80973 0.60035 0.70683 0.0
C867 C 0.81482 0.64101 0.76216 0.0
C868 C 0.81061 0.59572 0.6681 0.0
C869 C 0.82095 0.62768 0.64392 0.0
C870 C 0.81967 0.63722 0.7216 0.0
C871 C 0.83361 0.66485 0.66001 0.0
C872 C 0.84099 0.67467 0.78251 0.0
C873 C 0.78336 0.60813 0.81885 0.0
N874 N 0.83233 0.66864 0.6981 0.0
N875 N 0.78614 0.60943 0.78076 0.0
H876 H 0.24842 0.81346 0.82169 0.0
H877 H 0.17377 0.85984 0.00767 0.0
H878 H 0.15794 0.84443 0.80976 0.0
H879 H 0.1887 0.75901 -0.00674 0.0
H880 H 0.17503 0.86723 0.93854 0.0
H881 H 0.24067 0.81213 0.89 0.0
C882 C 0.22753 0.82086 0.83351 0.0
C883 C 0.20316 0.8282 0.81014 0.0
C884 C 0.17715 0.84311 0.9508 0.0
C885 C 0.19392 0.8262 0.88793 0.0
C886 C 0.17604 0.83856 0.99005 0.0
C887 C 0.18205 0.80926 0.00613 0.0
C888 C 0.18484 0.81852 0.92821 0.0
C889 C 0.1849 0.78254 0.98207 0.0
C890 C 0.22288 0.8197 0.87236 0.0
C891 C 0.17706 0.83833 0.82694 0.0
N892 N 0.18719 0.78837 0.94429 0.0
N893 N 0.17264 0.83651 0.86516 0.0
H894 H 0.42696 0.25487 0.99301 0.0
H895 H 0.31111 0.16209 0.17909 0.0
H896 H 0.31623 0.14709 0.98012 0.0
H897 H 0.43336 0.19797 0.16272 0.0
H898 H 0.30367 0.16378 0.11004 0.0
H899 H 0.41961 0.24774 0.06139 0.0
C900 C 0.40061 0.23026 0.00456 0.0
C901 C 0.37268 0.20097 0.98102 0.0
C902 C 0.33176 0.17049 0.12188 0.0
C903 C 0.36448 0.1926 0.05878 0.0
C904 C 0.33599 0.16912 0.16102 0.0
C905 C 0.37314 0.18067 0.17652 0.0
C906 C 0.36504 0.18406 0.09893 0.0
C907 C 0.40444 0.18968 0.15197 0.0
C908 C 0.39663 0.22608 0.04345 0.0
C909 C 0.33866 0.17005 -0.00255 0.0
N910 N 0.39989 0.19204 0.11439 0.0
N911 N 0.33575 0.16616 0.03569 0.0
loop_
_geom_bond_atom_site_label_1
_geom_bond_atom_site_label_2
_geom_bond_distance
_geom_bond_site_symmetry_2
_ccdc_geom_bond_type
Sc0 O3 2.025 1_556 S
Sc0 O10 2.105 1_556 S
Sc0 O13 2.105 . S
Sc0 O16 2.105 . S
Sc0 O19 2.105 1_556 S
Sc1 O3 2.025 . S
Sc1 O11 2.105 . S
Sc1 O15 2.105 . S
Sc1 O17 2.105 . S
Sc1 O21 2.105 . S
Sc2 O3 2.025 . S
Sc2 O12 2.105 . S
Sc2 O14 2.105 . S
Sc2 O18 2.105 . S
Sc2 O20 2.105 . S
O3 Sc0 2.025 1_554 S
O3 Sc1 2.025 . S
O3 Sc2 2.025 . S
C4 O10 1.268 . S
C4 O20 1.268 . S
C5 O11 1.268 . S
C5 O19 1.268 . S
C6 O12 1.268 . S
C6 O21 1.268 . S
C7 O13 1.268 . S
C7 O17 1.268 1_556 S
C8 O14 1.268 1_556 S
C8 O16 1.268 . S
C9 O15 1.268 . S
C9 O18 1.268 . S
O10 Sc0 2.105 1_554 S
O10 C4 1.268 . S
O11 Sc1 2.105 . S
O11 C5 1.268 . S
O12 Sc2 2.105 . S
O12 C6 1.268 . S
O13 Sc0 2.105 . S
O13 C7 1.268 . S
O14 Sc2 2.105 . S
O14 C8 1.268 1_554 S
O15 Sc1 2.105 . S
O15 C9 1.268 . S
O16 Sc0 2.105 . S
O16 C8 1.268 . S
O17 Sc1 2.105 . S
O17 C7 1.268 1_554 S
O18 Sc2 2.105 . S
O18 C9 1.268 . S
O19 Sc0 2.105 1_554 S
O19 C5 1.268 . S
O20 Sc2 2.105 . S
O20 C4 1.268 . S
O21 Sc1 2.105 . S
O21 C6 1.268 . S
Sc22 O25 2.025 . S
Sc22 O32 2.105 . S
Sc22 O35 2.105 . S
Sc22 O38 2.105 . S
Sc22 O41 2.105 . S
Sc23 O25 2.025 . S
Sc23 O33 2.105 . S
Sc23 O37 2.105 . S
Sc23 O39 2.105 . S
Sc23 O43 2.105 . S
Sc24 O25 2.025 . S
Sc24 O34 2.105 . S
Sc24 O36 2.105 . S
Sc24 O40 2.105 . S
Sc24 O42 2.105 . S
O25 Sc22 2.025 . S
O25 Sc23 2.025 . S
O25 Sc24 2.025 . S
C26 O32 1.268 . S
C26 O42 1.268 . S
C27 O33 1.268 . S
C27 O41 1.268 . S
C28 O34 1.268 . S
C28 O43 1.268 . S
C29 O35 1.268 . S
C29 O39 1.268 . S
C30 O36 1.268 . S
C30 O38 1.268 . S
C31 O37 1.268 . S
C31 O40 1.268 . S
O32 Sc22 2.105 . S
O32 C26 1.268 . S
O33 Sc23 2.105 . S
O33 C27 1.268 . S
O34 Sc24 2.105 . S
O34 C28 1.268 . S
O35 Sc22 2.105 . S
O35 C29 1.268 . S
O36 Sc24 2.105 . S
O36 C30 1.268 . S
O37 Sc23 2.105 . S
O37 C31 1.268 . S
O38 Sc22 2.105 . S
O38 C30 1.268 . S
O39 Sc23 2.105 . S
O39 C29 1.268 . S
O40 Sc24 2.105 . S
O40 C31 1.268 . S
O41 Sc22 2.105 . S
O41 C27 1.268 . S
O42 Sc24 2.105 . S
O42 C26 1.268 . S
O43 Sc23 2.105 . S
O43 C28 1.268 . S
Sc44 O47 2.025 . S
Sc44 O54 2.105 . S
Sc44 O57 2.105 . S
Sc44 O60 2.105 . S
Sc44 O63 2.105 . S
Sc45 O47 2.025 . S
Sc45 O55 2.105 . S
Sc45 O59 2.105 . S
Sc45 O61 2.105 . S
Sc45 O65 2.105 . S
Sc46 O47 2.025 . S
Sc46 O56 2.105 . S
Sc46 O58 2.105 . S
Sc46 O62 2.105 . S
Sc46 O64 2.105 . S
O47 Sc44 2.025 . S
O47 Sc45 2.025 . S
O47 Sc46 2.025 . S
C48 O54 1.268 . S
C48 O64 1.268 . S
C49 O55 1.268 . S
C49 O63 1.268 . S
C50 O56 1.268 . S
C50 O65 1.268 . S
C51 O57 1.268 . S
C51 O61 1.268 . S
C52 O58 1.268 . S
C52 O60 1.268 . S
C53 O59 1.268 . S
C53 O62 1.268 . S
O54 Sc44 2.105 . S
O54 C48 1.268 . S
O55 Sc45 2.105 . S
O55 C49 1.268 . S
O56 Sc46 2.105 . S
O56 C50 1.268 . S
O57 Sc44 2.105 . S
O57 C51 1.268 . S
O58 Sc46 2.105 . S
O58 C52 1.268 . S
O59 Sc45 2.105 . S
O59 C53 1.268 . S
O60 Sc44 2.105 . S
O60 C52 1.268 . S
O61 Sc45 2.105 . S
O61 C51 1.268 . S
O62 Sc46 2.105 . S
O62 C53 1.268 . S
O63 Sc44 2.105 . S
O63 C49 1.268 . S
O64 Sc46 2.105 . S
O64 C48 1.268 . S
O65 Sc45 2.105 . S
O65 C50 1.268 . S
Sc66 O69 2.025 . S
Sc66 O76 2.105 . S
Sc66 O79 2.105 . S
Sc66 O82 2.105 . S
Sc66 O85 2.105 . S
Sc67 O69 2.025 . S
Sc67 O77 2.105 . S
Sc67 O81 2.105 . S
Sc67 O83 2.105 . S
Sc67 O87 2.105 . S
Sc68 O69 2.025 . S
Sc68 O78 2.105 . S
Sc68 O80 2.105 . S
Sc68 O84 2.105 . S
Sc68 O86 2.105 . S
O69 Sc66 2.025 . S
O69 Sc67 2.025 . S
O69 Sc68 2.025 . S
C70 O76 1.268 . S
C70 O86 1.268 . S
C71 O77 1.268 . S
C71 O85 1.268 . S
C72 O78 1.268 . S
C72 O87 1.268 . S
C73 O79 1.268 . S
C73 O83 1.268 . S
C74 O80 1.268 . S
C74 O82 1.268 . S
C75 O81 1.268 . S
C75 O84 1.268 . S
O76 Sc66 2.105 . S
O76 C70 1.268 . S
O77 Sc67 2.105 . S
O77 C71 1.268 . S
O78 Sc68 2.105 . S
O78 C72 1.268 . S
O79 Sc66 2.105 . S
O79 C73 1.268 . S
O80 Sc68 2.105 . S
O80 C74 1.268 . S
O81 Sc67 2.105 . S
O81 C75 1.268 . S
O82 Sc66 2.105 . S
O82 C74 1.268 . S
O83 Sc67 2.105 . S
O83 C73 1.268 . S
O84 Sc68 2.105 . S
O84 C75 1.268 . S
O85 Sc66 2.105 . S
O85 C71 1.268 . S
O86 Sc68 2.105 . S
O86 C70 1.268 . S
O87 Sc67 2.105 . S
O87 C72 1.268 . S
Sc88 O91 2.025 . S
Sc88 O98 2.105 . S
Sc88 O101 2.105 . S
Sc88 O104 2.105 . S
Sc88 O107 2.105 . S
Sc89 O91 2.025 . S
Sc89 O99 2.105 . S
Sc89 O103 2.105 . S
Sc89 O105 2.105 . S
Sc89 O109 2.105 . S
Sc90 O91 2.025 . S
Sc90 O100 2.105 . S
Sc90 O102 2.105 . S
Sc90 O106 2.105 . S
Sc90 O108 2.105 . S
O91 Sc88 2.025 . S
O91 Sc89 2.025 . S
O91 Sc90 2.025 . S
C92 O98 1.268 . S
C92 O108 1.268 . S
C93 O99 1.268 . S
C93 O107 1.268 . S
C94 O100 1.268 . S
C94 O109 1.268 . S
C95 O101 1.268 . S
C95 O105 1.268 . S
C96 O102 1.268 . S
C96 O104 1.268 . S
C97 O103 1.268 . S
C97 O106 1.268 . S
O98 Sc88 2.105 . S
O98 C92 1.268 . S
O99 Sc89 2.105 . S
O99 C93 1.268 . S
O100 Sc90 2.105 . S
O100 C94 1.268 . S
O101 Sc88 2.105 . S
O101 C95 1.268 . S
O102 Sc90 2.105 . S
O102 C96 1.268 . S
O103 Sc89 2.105 . S
O103 C97 1.268 . S
O104 Sc88 2.105 . S
O104 C96 1.268 . S
O105 Sc89 2.105 . S
O105 C95 1.268 . S
O106 Sc90 2.105 . S
O106 C97 1.268 . S
O107 Sc88 2.105 . S
O107 C93 1.268 . S
O108 Sc90 2.105 . S
O108 C92 1.268 . S
O109 Sc89 2.105 . S
O109 C94 1.268 . S
Sc110 O113 2.025 . S
Sc110 O120 2.105 . S
Sc110 O123 2.105 . S
Sc110 O126 2.105 . S
Sc110 O129 2.105 . S
Sc111 O113 2.025 . S
Sc111 O121 2.105 . S
Sc111 O125 2.105 . S
Sc111 O127 2.105 . S
Sc111 O131 2.105 . S
Sc112 O113 2.025 . S
Sc112 O122 2.105 . S
Sc112 O124 2.105 . S
Sc112 O128 2.105 . S
Sc112 O130 2.105 . S
O113 Sc110 2.025 . S
O113 Sc111 2.025 . S
O113 Sc112 2.025 . S
C114 O120 1.268 . S
C114 O130 1.268 . S
C115 O121 1.268 . S
C115 O129 1.268 . S
C116 O122 1.268 . S
C116 O131 1.268 . S
C117 O123 1.268 . S
C117 O127 1.268 . S
C118 O124 1.268 . S
C118 O126 1.268 . S
C119 O125 1.268 . S
C119 O128 1.268 . S
O120 Sc110 2.105 . S
O120 C114 1.268 . S
O121 Sc111 2.105 . S
O121 C115 1.268 . S
O122 Sc112 2.105 . S
O122 C116 1.268 . S
O123 Sc110 2.105 . S
O123 C117 1.268 . S
O124 Sc112 2.105 . S
O124 C118 1.268 . S
O125 Sc111 2.105 . S
O125 C119 1.268 . S
O126 Sc110 2.105 . S
O126 C118 1.268 . S
O127 Sc111 2.105 . S
O127 C117 1.268 . S
O128 Sc112 2.105 . S
O128 C119 1.268 . S
O129 Sc110 2.105 . S
O129 C115 1.268 . S
O130 Sc112 2.105 . S
O130 C114 1.268 . S
O131 Sc111 2.105 . S
O131 C116 1.268 . S
Sc132 O135 2.025 . S
Sc132 O142 2.105 . S
Sc132 O145 2.105 . S
Sc132 O148 2.105 . S
Sc132 O151 2.105 . S
Sc133 O135 2.025 . S
Sc133 O143 2.105 . S
Sc133 O147 2.105 . S
Sc133 O149 2.105 . S
Sc133 O153 2.105 . S
Sc134 O135 2.025 . S
Sc134 O144 2.105 . S
Sc134 O146 2.105 . S
Sc134 O150 2.105 . S
Sc134 O152 2.105 . S
O135 Sc132 2.025 . S
O135 Sc133 2.025 . S
O135 Sc134 2.025 . S
C136 O142 1.268 . S
C136 O152 1.268 . S
C137 O143 1.268 . S
C137 O151 1.268 . S
C138 O144 1.268 . S
C138 O153 1.268 . S
C139 O145 1.268 . S
C139 O149 1.268 . S
C140 O146 1.268 . S
C140 O148 1.268 . S
C141 O147 1.268 . S
C141 O150 1.268 . S
O142 Sc132 2.105 . S
O142 C136 1.268 . S
O143 Sc133 2.105 . S
O143 C137 1.268 . S
O144 Sc134 2.105 . S
O144 C138 1.268 . S
O145 Sc132 2.105 . S
O145 C139 1.268 . S
O146 Sc134 2.105 . S
O146 C140 1.268 . S
O147 Sc133 2.105 . S
O147 C141 1.268 . S
O148 Sc132 2.105 . S
O148 C140 1.268 . S
O149 Sc133 2.105 . S
O149 C139 1.268 . S
O150 Sc134 2.105 . S
O150 C141 1.268 . S
O151 Sc132 2.105 . S
O151 C137 1.268 . S
O152 Sc134 2.105 . S
O152 C136 1.268 . S
O153 Sc133 2.105 . S
O153 C138 1.268 . S
Sc154 O157 2.025 . S
Sc154 O164 2.105 . S
Sc154 O167 2.105 . S
Sc154 O170 2.105 . S
Sc154 O173 2.105 . S
Sc155 O157 2.025 . S
Sc155 O165 2.105 . S
Sc155 O169 2.105 . S
Sc155 O171 2.105 . S
Sc155 O175 2.105 . S
Sc156 O157 2.025 1_554 S
Sc156 O166 2.105 . S
Sc156 O168 2.105 1_554 S
Sc156 O172 2.105 1_554 S
Sc156 O174 2.105 . S
O157 Sc154 2.025 . S
O157 Sc155 2.025 . S
O157 Sc156 2.025 1_556 S
C158 O164 1.268 1_554 S
C158 O174 1.268 . S
C159 O165 1.268 . S
C159 O173 1.268 . S
C160 O166 1.268 . S
C160 O175 1.268 1_554 S
C161 O167 1.268 . S
C161 O171 1.268 . S
C162 O168 1.268 . S
C162 O170 1.268 . S
C163 O169 1.268 . S
C163 O172 1.268 . S
O164 Sc154 2.105 . S
O164 C158 1.268 1_556 S
O165 Sc155 2.105 . S
O165 C159 1.268 . S
O166 Sc156 2.105 . S
O166 C160 1.268 . S
O167 Sc154 2.105 . S
O167 C161 1.268 . S
O168 Sc156 2.105 1_556 S
O168 C162 1.268 . S
O169 Sc155 2.105 . S
O169 C163 1.268 . S
O170 Sc154 2.105 . S
O170 C162 1.268 . S
O171 Sc155 2.105 . S
O171 C161 1.268 . S
O172 Sc156 2.105 1_556 S
O172 C163 1.268 . S
O173 Sc154 2.105 . S
O173 C159 1.268 . S
O174 Sc156 2.105 . S
O174 C158 1.268 . S
O175 Sc155 2.105 . S
O175 C160 1.268 1_556 S
Sc176 O179 2.025 . S
Sc176 O186 2.105 . S
Sc176 O189 2.105 . S
Sc176 O192 2.105 . S
Sc176 O195 2.105 . S
Sc177 O179 2.025 . S
Sc177 O187 2.105 . S
Sc177 O191 2.105 . S
Sc177 O193 2.105 . S
Sc177 O197 2.105 . S
Sc178 O179 2.025 . S
Sc178 O188 2.105 . S
Sc178 O190 2.105 . S
Sc178 O194 2.105 . S
Sc178 O196 2.105 . S
O179 Sc176 2.025 . S
O179 Sc177 2.025 . S
O179 Sc178 2.025 . S
C180 O186 1.268 . S
C180 O196 1.268 . S
C181 O187 1.268 . S
C181 O195 1.268 . S
C182 O188 1.268 . S
C182 O197 1.268 . S
C183 O189 1.268 . S
C183 O193 1.268 . S
C184 O190 1.268 . S
C184 O192 1.268 . S
C185 O191 1.268 . S
C185 O194 1.268 . S
O186 Sc176 2.105 . S
O186 C180 1.268 . S
O187 Sc177 2.105 . S
O187 C181 1.268 . S
O188 Sc178 2.105 . S
O188 C182 1.268 . S
O189 Sc176 2.105 . S
O189 C183 1.268 . S
O190 Sc178 2.105 . S
O190 C184 1.268 . S
O191 Sc177 2.105 . S
O191 C185 1.268 . S
O192 Sc176 2.105 . S
O192 C184 1.268 . S
O193 Sc177 2.105 . S
O193 C183 1.268 . S
O194 Sc178 2.105 . S
O194 C185 1.268 . S
O195 Sc176 2.105 . S
O195 C181 1.268 . S
O196 Sc178 2.105 . S
O196 C180 1.268 . S
O197 Sc177 2.105 . S
O197 C182 1.268 . S
Sc198 O201 2.025 . S
Sc198 O208 2.105 . S
Sc198 O211 2.105 . S
Sc198 O214 2.105 . S
Sc198 O217 2.105 . S
Sc199 O201 2.025 . S
Sc199 O209 2.105 . S
Sc199 O213 2.105 . S
Sc199 O215 2.105 . S
Sc199 O219 2.105 . S
Sc200 O201 2.025 . S
Sc200 O210 2.105 . S
Sc200 O212 2.105 . S
Sc200 O216 2.105 . S
Sc200 O218 2.105 . S
O201 Sc198 2.025 . S
O201 Sc199 2.025 . S
O201 Sc200 2.025 . S
C202 O208 1.268 . S
C202 O218 1.268 . S
C203 O209 1.268 . S
C203 O217 1.268 . S
C204 O210 1.268 . S
C204 O219 1.268 . S
C205 O211 1.268 . S
C205 O215 1.268 . S
C206 O212 1.268 . S
C206 O214 1.268 . S
C207 O213 1.268 . S
C207 O216 1.268 . S
O208 Sc198 2.105 . S
O208 C202 1.268 . S
O209 Sc199 2.105 . S
O209 C203 1.268 . S
O210 Sc200 2.105 . S
O210 C204 1.268 . S
O211 Sc198 2.105 . S
O211 C205 1.268 . S
O212 Sc200 2.105 . S
O212 C206 1.268 . S
O213 Sc199 2.105 . S
O213 C207 1.268 . S
O214 Sc198 2.105 . S
O214 C206 1.268 . S
O215 Sc199 2.105 . S
O215 C205 1.268 . S
O216 Sc200 2.105 . S
O216 C207 1.268 . S
O217 Sc198 2.105 . S
O217 C203 1.268 . S
O218 Sc200 2.105 . S
O218 C202 1.268 . S
O219 Sc199 2.105 . S
O219 C204 1.268 . S
Sc220 O223 2.025 . S
Sc220 O230 2.105 . S
Sc220 O233 2.105 . S
Sc220 O236 2.105 . S
Sc220 O239 2.105 . S
Sc221 O223 2.025 . S
Sc221 O231 2.105 . S
Sc221 O235 2.105 . S
Sc221 O237 2.105 . S
Sc221 O241 2.105 . S
Sc222 O223 2.025 . S
Sc222 O232 2.105 . S
Sc222 O234 2.105 . S
Sc222 O238 2.105 . S
Sc222 O240 2.105 . S
O223 Sc220 2.025 . S
O223 Sc221 2.025 . S
O223 Sc222 2.025 . S
C224 O230 1.268 . S
C224 O240 1.268 . S
C225 O231 1.268 . S
C225 O239 1.268 . S
C226 O232 1.268 . S
C226 O241 1.268 . S
C227 O233 1.268 . S
C227 O237 1.268 . S
C228 O234 1.268 . S
C228 O236 1.268 . S
C229 O235 1.268 . S
C229 O238 1.268 . S
O230 Sc220 2.105 . S
O230 C224 1.268 . S
O231 Sc221 2.105 . S
O231 C225 1.268 . S
O232 Sc222 2.105 . S
O232 C226 1.268 . S
O233 Sc220 2.105 . S
O233 C227 1.268 . S
O234 Sc222 2.105 . S
O234 C228 1.268 . S
O235 Sc221 2.105 . S
O235 C229 1.268 . S
O236 Sc220 2.105 . S
O236 C228 1.268 . S
O237 Sc221 2.105 . S
O237 C227 1.268 . S
O238 Sc222 2.105 . S
O238 C229 1.268 . S
O239 Sc220 2.105 . S
O239 C225 1.268 . S
O240 Sc222 2.105 . S
O240 C224 1.268 . S
O241 Sc221 2.105 . S
O241 C226 1.268 . S
Sc242 O245 2.025 . S
Sc242 O252 2.105 . S
Sc242 O255 2.105 . S
Sc242 O258 2.105 . S
Sc242 O261 2.105 . S
Sc243 O245 2.025 . S
Sc243 O253 2.105 . S
Sc243 O257 2.105 . S
Sc243 O259 2.105 . S
Sc243 O263 2.105 . S
Sc244 O245 2.025 . S
Sc244 O254 2.105 . S
Sc244 O256 2.105 . S
Sc244 O260 2.105 . S
Sc244 O262 2.105 . S
O245 Sc242 2.025 . S
O245 Sc243 2.025 . S
O245 Sc244 2.025 . S
C246 O252 1.268 . S
C246 O262 1.268 . S
C247 O253 1.268 . S
C247 O261 1.268 . S
C248 O254 1.268 . S
C248 O263 1.268 . S
C249 O255 1.268 . S
C249 O259 1.268 . S
C250 O256 1.268 . S
C250 O258 1.268 . S
C251 O257 1.268 . S
C251 O260 1.268 . S
O252 Sc242 2.105 . S
O252 C246 1.268 . S
O253 Sc243 2.105 . S
O253 C247 1.268 . S
O254 Sc244 2.105 . S
O254 C248 1.268 . S
O255 Sc242 2.105 . S
O255 C249 1.268 . S
O256 Sc244 2.105 . S
O256 C250 1.268 . S
O257 Sc243 2.105 . S
O257 C251 1.268 . S
O258 Sc242 2.105 . S
O258 C250 1.268 . S
O259 Sc243 2.105 . S
O259 C249 1.268 . S
O260 Sc244 2.105 . S
O260 C251 1.268 . S
O261 Sc242 2.105 . S
O261 C247 1.268 . S
O262 Sc244 2.105 . S
O262 C246 1.268 . S
O263 Sc243 2.105 . S
O263 C248 1.268 . S
H264 C270 0.930 . S
H265 C274 0.930 . S
H266 C279 0.929 . S
H267 C277 0.929 . S
H268 C272 0.929 . S
H269 C278 0.929 . S
C270 H264 0.930 . S
C270 C271 1.367 . S
C270 C278 1.378 . S
C271 C270 1.367 . S
C271 C279 1.433 . S
C272 H268 0.929 . S
C272 C274 1.378 . S
C272 C276 1.350 . S
C273 C276 1.463 . S
C273 C278 1.350 . S
C273 N281 1.427 . S
C274 H265 0.930 . S
C274 C272 1.378 . S
C274 C275 1.367 . S
C275 C274 1.367 . S
C275 C277 1.433 . S
C276 C272 1.350 . S
C276 C273 1.463 . S
C276 N280 1.427 . S
C277 H267 0.929 . S
C277 C275 1.433 . S
C277 N280 1.384 . S
C278 H269 0.929 . S
C278 C270 1.378 . S
C278 C273 1.350 . S
C279 H266 0.929 . S
C279 C271 1.433 . S
C279 N281 1.384 . S
N280 C276 1.427 . S
N280 C277 1.384 . S
N281 C273 1.427 . S
N281 C279 1.384 . S
H282 C288 0.930 . S
H283 C292 0.930 . S
H284 C297 0.929 . S
H285 C295 0.929 . S
H286 C290 0.929 . S
H287 C296 0.929 . S
C288 H282 0.930 . S
C288 C289 1.367 . S
C288 C296 1.378 . S
C289 C288 1.367 . S
C289 C297 1.433 . S
C290 H286 0.929 . S
C290 C292 1.378 . S
C290 C294 1.350 . S
C291 C294 1.463 . S
C291 C296 1.350 . S
C291 N299 1.427 . S
C292 H283 0.930 . S
C292 C290 1.378 . S
C292 C293 1.367 . S
C293 C292 1.367 . S
C293 C295 1.433 . S
C294 C290 1.350 . S
C294 C291 1.463 . S
C294 N298 1.427 . S
C295 H285 0.929 . S
C295 C293 1.433 . S
C295 N298 1.384 . S
C296 H287 0.929 . S
C296 C288 1.378 . S
C296 C291 1.350 . S
C297 H284 0.929 . S
C297 C289 1.433 . S
C297 N299 1.384 . S
N298 C294 1.427 . S
N298 C295 1.384 . S
N299 C291 1.427 . S
N299 C297 1.384 . S
H300 C306 0.930 . S
H301 C310 0.930 . S
H302 C315 0.929 . S
H303 C313 0.929 . S
H304 C308 0.929 . S
H305 C314 0.929 . S
C306 H300 0.930 . S
C306 C307 1.367 . S
C306 C314 1.378 . S
C307 C306 1.367 . S
C307 C315 1.433 . S
C308 H304 0.929 . S
C308 C310 1.378 . S
C308 C312 1.350 . S
C309 C312 1.463 . S
C309 C314 1.350 . S
C309 N317 1.427 . S
C310 H301 0.930 . S
C310 C308 1.378 . S
C310 C311 1.367 . S
C311 C310 1.367 . S
C311 C313 1.433 . S
C312 C308 1.350 . S
C312 C309 1.463 . S
C312 N316 1.427 . S
C313 H303 0.929 . S
C313 C311 1.433 . S
C313 N316 1.384 . S
C314 H305 0.929 . S
C314 C306 1.378 . S
C314 C309 1.350 . S
C315 H302 0.929 . S
C315 C307 1.433 . S
C315 N317 1.384 . S
N316 C312 1.427 . S
N316 C313 1.384 . S
N317 C309 1.427 . S
N317 C315 1.384 . S
H318 C324 0.930 . S
H319 C328 0.930 . S
H320 C333 0.929 . S
H321 C331 0.929 . S
H322 C326 0.929 . S
H323 C332 0.929 . S
C324 H318 0.930 . S
C324 C325 1.367 . S
C324 C332 1.378 . S
C325 C324 1.367 . S
C325 C333 1.433 . S
C326 H322 0.929 . S
C326 C328 1.378 . S
C326 C330 1.350 . S
C327 C330 1.463 . S
C327 C332 1.350 . S
C327 N335 1.427 . S
C328 H319 0.930 . S
C328 C326 1.378 . S
C328 C329 1.367 . S
C329 C328 1.367 . S
C329 C331 1.433 . S
C330 C326 1.350 . S
C330 C327 1.463 . S
C330 N334 1.427 . S
C331 H321 0.929 . S
C331 C329 1.433 . S
C331 N334 1.384 . S
C332 H323 0.929 . S
C332 C324 1.378 . S
C332 C327 1.350 . S
C333 H320 0.929 . S
C333 C325 1.433 . S
C333 N335 1.384 . S
N334 C330 1.427 . S
N334 C331 1.384 . S
N335 C327 1.427 . S
N335 C333 1.384 . S
H336 C342 0.930 . S
H337 C346 0.930 . S
H338 C351 0.929 . S
H339 C349 0.929 . S
H340 C344 0.929 . S
H341 C350 0.929 . S
C342 H336 0.930 . S
C342 C343 1.367 . S
C342 C350 1.378 . S
C343 C342 1.367 . S
C343 C351 1.433 . S
C344 H340 0.929 . S
C344 C346 1.378 . S
C344 C348 1.350 . S
C345 C348 1.463 . S
C345 C350 1.350 . S
C345 N353 1.427 . S
C346 H337 0.930 . S
C346 C344 1.378 . S
C346 C347 1.367 . S
C347 C346 1.367 . S
C347 C349 1.433 . S
C348 C344 1.350 . S
C348 C345 1.463 . S
C348 N352 1.427 . S
C349 H339 0.929 . S
C349 C347 1.433 . S
C349 N352 1.384 . S
C350 H341 0.929 . S
C350 C342 1.378 . S
C350 C345 1.350 . S
C351 H338 0.929 . S
C351 C343 1.433 . S
C351 N353 1.384 . S
N352 C348 1.427 . S
N352 C349 1.384 . S
N353 C345 1.427 . S
N353 C351 1.384 . S
H354 C360 0.930 . S
H355 C364 0.930 . S
H356 C369 0.942 . S
H357 C367 0.929 . S
H358 C362 0.929 . S
H359 C368 0.929 . S
C360 H354 0.930 . S
C360 C361 1.367 . S
C360 C368 1.378 . S
C361 C360 1.367 . S
C361 C369 1.433 . S
C362 H358 0.929 . S
C362 C364 1.378 . S
C362 C366 1.350 . S
C363 C366 1.463 . S
C363 C368 1.350 . S
C363 N371 1.427 . S
C364 H355 0.930 . S
C364 C362 1.378 . S
C364 C365 1.367 . S
C365 C364 1.367 . S
C365 C367 1.433 . S
C366 C362 1.350 . S
C366 C363 1.463 . S
C366 N370 1.427 . S
C367 H357 0.929 . S
C367 C365 1.433 . S
C367 N370 1.384 . S
C368 H359 0.929 . S
C368 C360 1.378 . S
C368 C363 1.350 . S
C369 H356 0.942 . S
C369 C361 1.433 . S
C369 N371 1.384 . S
N370 C366 1.427 . S
N370 C367 1.384 . S
N371 C363 1.427 . S
N371 C369 1.384 . S
H372 C378 0.930 . S
H373 C382 0.930 . S
H374 C387 0.929 . S
H375 C385 0.929 . S
H376 C380 0.929 . S
H377 C386 0.929 . S
C378 H372 0.930 . S
C378 C379 1.367 . S
C378 C386 1.378 . S
C379 C378 1.367 . S
C379 C387 1.433 . S
C380 H376 0.929 . S
C380 C382 1.378 . S
C380 C384 1.350 . S
C381 C384 1.463 . S
C381 C386 1.350 . S
C381 N389 1.427 . S
C382 H373 0.930 . S
C382 C380 1.378 . S
C382 C383 1.367 . S
C383 C382 1.367 . S
C383 C385 1.433 . S
C384 C380 1.350 . S
C384 C381 1.463 . S
C384 N388 1.427 . S
C385 H375 0.929 . S
C385 C383 1.433 . S
C385 N388 1.384 . S
C386 H377 0.929 . S
C386 C378 1.378 . S
C386 C381 1.350 . S
C387 H374 0.929 . S
C387 C379 1.433 . S
C387 N389 1.384 . S
N388 C384 1.427 . S
N388 C385 1.384 . S
N389 C381 1.427 . S
N389 C387 1.384 . S
H390 C396 0.930 . S
H391 C400 0.930 . S
H392 C405 0.929 . S
H393 C403 0.929 . S
H394 C398 0.929 . S
H395 C404 0.929 . S
C396 H390 0.930 . S
C396 C397 1.367 . S
C396 C404 1.378 . S
C397 C396 1.367 . S
C397 C405 1.433 . S
C398 H394 0.929 . S
C398 C400 1.378 . S
C398 C402 1.350 . S
C399 C402 1.463 1_655 S
C399 C404 1.350 . S
C399 N407 1.427 . S
C400 H391 0.930 . S
C400 C398 1.378 . S
C400 C401 1.367 . S
C401 C400 1.367 . S
C401 C403 1.433 . S
C402 C398 1.350 . S
C402 C399 1.463 1_455 S
C402 N406 1.427 . S
C403 H393 0.929 . S
C403 C401 1.433 . S
C403 N406 1.384 . S
C404 H395 0.929 . S
C404 C396 1.378 . S
C404 C399 1.350 . S
C405 H392 0.929 . S
C405 C397 1.433 . S
C405 N407 1.384 . S
N406 C402 1.427 . S
N406 C403 1.384 . S
N407 C399 1.427 . S
N407 C405 1.384 . S
H408 C414 0.930 . S
H409 C418 0.930 . S
H410 C423 0.929 . S
H411 C421 0.929 . S
H412 C416 0.929 1_545 S
H413 C422 0.929 1_565 S
C414 H408 0.930 . S
C414 C415 1.367 . S
C414 C422 1.378 . S
C415 C414 1.367 . S
C415 C423 1.433 . S
C416 H412 0.929 1_565 S
C416 C418 1.378 . S
C416 C420 1.350 . S
C417 C420 1.463 1_545 S
C417 C422 1.350 . S
C417 N425 1.427 . S
C418 H409 0.930 . S
C418 C416 1.378 . S
C418 C419 1.367 . S
C419 C418 1.367 . S
C419 C421 1.433 . S
C420 C416 1.350 . S
C420 C417 1.463 1_565 S
C420 N424 1.427 . S
C421 H411 0.929 . S
C421 C419 1.433 . S
C421 N424 1.384 . S
C422 H413 0.929 1_545 S
C422 C414 1.378 . S
C422 C417 1.350 . S
C423 H410 0.929 . S
C423 C415 1.433 . S
C423 N425 1.384 . S
N424 C420 1.427 . S
N424 C421 1.384 . S
N425 C417 1.427 . S
N425 C423 1.384 . S
H426 C432 0.930 . S
H427 C436 0.930 . S
H428 C441 0.929 . S
H429 C439 0.929 . S
H430 C434 0.929 . S
H431 C440 0.929 . S
C432 H426 0.930 . S
C432 C433 1.367 . S
C432 C440 1.378 . S
C433 C432 1.367 . S
C433 C441 1.433 . S
C434 H430 0.929 . S
C434 C436 1.378 . S
C434 C438 1.350 . S
C435 C438 1.463 . S
C435 C440 1.350 . S
C435 N443 1.427 . S
C436 H427 0.930 . S
C436 C434 1.378 . S
C436 C437 1.367 . S
C437 C436 1.367 . S
C437 C439 1.433 . S
C438 C434 1.350 . S
C438 C435 1.463 . S
C438 N442 1.427 . S
C439 H429 0.929 . S
C439 C437 1.433 . S
C439 N442 1.384 . S
C440 H431 0.929 . S
C440 C432 1.378 . S
C440 C435 1.350 . S
C441 H428 0.929 . S
C441 C433 1.433 . S
C441 N443 1.384 . S
N442 C438 1.427 . S
N442 C439 1.384 . S
N443 C435 1.427 . S
N443 C441 1.384 . S
H444 C450 0.930 . S
H445 C454 0.930 . S
H446 C459 0.929 . S
H447 C457 0.929 . S
H448 C452 0.929 . S
H449 C458 0.929 . S
C450 H444 0.930 . S
C450 C451 1.367 . S
C450 C458 1.378 . S
C451 C450 1.367 . S
C451 C459 1.433 . S
C452 H448 0.929 . S
C452 C454 1.378 . S
C452 C456 1.350 . S
C453 C456 1.463 1_455 S
C453 C458 1.350 . S
C453 N461 1.427 . S
C454 H445 0.930 . S
C454 C452 1.378 . S
C454 C455 1.367 . S
C455 C454 1.367 . S
C455 C457 1.433 . S
C456 C452 1.350 . S
C456 C453 1.463 1_655 S
C456 N460 1.427 . S
C457 H447 0.929 . S
C457 C455 1.433 . S
C457 N460 1.384 . S
C458 H449 0.929 . S
C458 C450 1.378 . S
C458 C453 1.350 . S
C459 H446 0.929 . S
C459 C451 1.433 . S
C459 N461 1.384 . S
N460 C456 1.427 . S
N460 C457 1.384 . S
N461 C453 1.427 . S
N461 C459 1.384 . S
H462 C468 0.930 . S
H463 C472 0.930 . S
H464 C477 0.929 . S
H465 C475 0.929 . S
H466 C470 0.929 1_545 S
H467 C476 0.929 1_565 S
C468 H462 0.930 . S
C468 C469 1.367 . S
C468 C476 1.378 . S
C469 C468 1.367 . S
C469 C477 1.433 . S
C470 H466 0.929 1_565 S
C470 C472 1.378 . S
C470 C474 1.350 . S
C471 C474 1.463 1_546 S
C471 C476 1.350 . S
C471 N479 1.427 . S
C472 H463 0.930 . S
C472 C470 1.378 . S
C472 C473 1.367 . S
C473 C472 1.367 . S
C473 C475 1.433 . S
C474 C470 1.350 . S
C474 C471 1.463 1_564 S
C474 N478 1.427 . S
C475 H465 0.929 . S
C475 C473 1.433 . S
C475 N478 1.384 . S
C476 H467 0.929 1_545 S
C476 C468 1.378 . S
C476 C471 1.350 . S
C477 H464 0.929 . S
C477 C469 1.433 . S
C477 N479 1.384 . S
N478 C474 1.427 . S
N478 C475 1.384 . S
N479 C471 1.427 . S
N479 C477 1.384 . S
H480 C486 0.930 . S
H481 C490 0.930 . S
H482 C495 0.929 . S
H483 C493 0.929 . S
H484 C488 0.929 . S
H485 C494 0.929 . S
C486 H480 0.930 . S
C486 C487 1.367 . S
C486 C494 1.378 . S
C487 C486 1.367 . S
C487 C495 1.433 . S
C488 H484 0.929 . S
C488 C490 1.378 . S
C488 C492 1.350 . S
C489 C492 1.463 . S
C489 C494 1.350 . S
C489 N497 1.427 . S
C490 H481 0.930 . S
C490 C488 1.378 . S
C490 C491 1.367 . S
C491 C490 1.367 . S
C491 C493 1.433 . S
C492 C488 1.350 . S
C492 C489 1.463 . S
C492 N496 1.427 . S
C493 H483 0.929 . S
C493 C491 1.433 . S
C493 N496 1.384 . S
C494 H485 0.929 . S
C494 C486 1.378 . S
C494 C489 1.350 . S
C495 H482 0.929 . S
C495 C487 1.433 . S
C495 N497 1.384 . S
N496 C492 1.427 . S
N496 C493 1.384 . S
N497 C489 1.427 . S
N497 C495 1.384 . S
H498 C504 0.930 1_556 S
H499 C508 0.930 . S
H500 C513 0.929 . S
H501 C511 0.929 . S
H502 C506 0.929 . S
H503 C512 0.929 . S
C504 H498 0.930 1_554 S
C504 C505 1.367 . S
C504 C512 1.378 . S
C505 C504 1.367 . S
C505 C513 1.433 . S
C506 H502 0.929 . S
C506 C508 1.378 . S
C506 C510 1.350 . S
C507 C510 1.463 . S
C507 C512 1.350 . S
C507 N515 1.427 . S
C508 H499 0.930 . S
C508 C506 1.378 . S
C508 C509 1.367 . S
C509 C508 1.367 . S
C509 C511 1.433 . S
C510 C506 1.350 . S
C510 C507 1.463 . S
C510 N514 1.427 . S
C511 H501 0.929 . S
C511 C509 1.433 . S
C511 N514 1.384 . S
C512 H503 0.929 . S
C512 C504 1.378 . S
C512 C507 1.350 . S
C513 H500 0.929 . S
C513 C505 1.433 . S
C513 N515 1.384 . S
N514 C510 1.427 . S
N514 C511 1.384 . S
N515 C507 1.427 . S
N515 C513 1.384 . S
H516 C522 0.930 . S
H517 C526 0.930 . S
H518 C531 0.929 . S
H519 C529 0.929 . S
H520 C524 0.929 . S
H521 C530 0.929 . S
C522 H516 0.930 . S
C522 C523 1.367 . S
C522 C530 1.378 . S
C523 C522 1.367 . S
C523 C531 1.433 . S
C524 H520 0.929 . S
C524 C526 1.378 . S
C524 C528 1.350 . S
C525 C528 1.463 . S
C525 C530 1.350 . S
C525 N533 1.427 . S
C526 H517 0.930 . S
C526 C524 1.378 . S
C526 C527 1.367 . S
C527 C526 1.367 . S
C527 C529 1.433 . S
C528 C524 1.350 . S
C528 C525 1.463 . S
C528 N532 1.427 . S
C529 H519 0.929 . S
C529 C527 1.433 . S
C529 N532 1.384 . S
C530 H521 0.929 . S
C530 C522 1.378 . S
C530 C525 1.350 . S
C531 H518 0.929 . S
C531 C523 1.433 . S
C531 N533 1.384 . S
N532 C528 1.427 . S
N532 C529 1.384 . S
N533 C525 1.427 . S
N533 C531 1.384 . S
H534 C540 0.930 . S
H535 C544 0.930 . S
H536 C549 0.929 . S
H537 C547 0.929 . S
H538 C542 0.929 . S
H539 C548 0.929 . S
C540 H534 0.930 . S
C540 C541 1.367 . S
C540 C548 1.378 . S
C541 C540 1.367 . S
C541 C549 1.433 . S
C542 H538 0.929 . S
C542 C544 1.378 . S
C542 C546 1.350 . S
C543 C546 1.463 . S
C543 C548 1.350 . S
C543 N551 1.427 . S
C544 H535 0.930 . S
C544 C542 1.378 . S
C544 C545 1.367 . S
C545 C544 1.367 . S
C545 C547 1.433 . S
C546 C542 1.350 . S
C546 C543 1.463 . S
C546 N550 1.427 . S
C547 H537 0.929 . S
C547 C545 1.433 . S
C547 N550 1.384 . S
C548 H539 0.929 . S
C548 C540 1.378 . S
C548 C543 1.350 . S
C549 H536 0.929 . S
C549 C541 1.433 . S
C549 N551 1.384 . S
N550 C546 1.427 . S
N550 C547 1.384 . S
N551 C543 1.427 . S
N551 C549 1.384 . S
H552 C558 0.930 . S
H553 C562 0.930 . S
H554 C567 0.929 . S
H555 C565 0.929 . S
H556 C560 0.929 . S
H557 C566 0.929 . S
C558 H552 0.930 . S
C558 C559 1.367 . S
C558 C566 1.378 . S
C559 C558 1.367 . S
C559 C567 1.433 . S
C560 H556 0.929 . S
C560 C562 1.378 . S
C560 C564 1.350 . S
C561 C564 1.463 . S
C561 C566 1.350 . S
C561 N569 1.427 . S
C562 H553 0.930 . S
C562 C560 1.378 . S
C562 C563 1.367 . S
C563 C562 1.367 . S
C563 C565 1.433 . S
C564 C560 1.350 . S
C564 C561 1.463 . S
C564 N568 1.427 . S
C565 H555 0.929 . S
C565 C563 1.433 . S
C565 N568 1.384 . S
C566 H557 0.929 . S
C566 C558 1.378 . S
C566 C561 1.350 . S
C567 H554 0.929 . S
C567 C559 1.433 . S
C567 N569 1.384 . S
N568 C564 1.427 . S
N568 C565 1.384 . S
N569 C561 1.427 . S
N569 C567 1.384 . S
H570 C576 0.930 . S
H571 C580 0.930 . S
H572 C585 0.929 . S
H573 C583 0.929 . S
H574 C578 0.929 . S
H575 C584 0.929 . S
C576 H570 0.930 . S
C576 C577 1.367 . S
C576 C584 1.378 . S
C577 C576 1.367 . S
C577 C585 1.433 . S
C578 H574 0.929 . S
C578 C580 1.378 . S
C578 C582 1.350 . S
C579 C582 1.463 . S
C579 C584 1.350 . S
C579 N587 1.427 . S
C580 H571 0.930 . S
C580 C578 1.378 . S
C580 C581 1.367 . S
C581 C580 1.367 . S
C581 C583 1.433 . S
C582 C578 1.350 . S
C582 C579 1.463 . S
C582 N586 1.427 . S
C583 H573 0.929 . S
C583 C581 1.433 . S
C583 N586 1.384 . S
C584 H575 0.929 . S
C584 C576 1.378 . S
C584 C579 1.350 . S
C585 H572 0.929 . S
C585 C577 1.433 . S
C585 N587 1.384 . S
N586 C582 1.427 . S
N586 C583 1.384 . S
N587 C579 1.427 . S
N587 C585 1.384 . S
H588 C594 0.930 . S
H589 C598 0.930 . S
H590 C603 0.929 . S
H591 C601 0.929 . S
H592 C596 0.929 . S
H593 C602 0.929 . S
C594 H588 0.930 . S
C594 C595 1.367 . S
C594 C602 1.378 . S
C595 C594 1.367 . S
C595 C603 1.433 . S
C596 H592 0.929 . S
C596 C598 1.378 . S
C596 C600 1.350 . S
C597 C600 1.463 . S
C597 C602 1.350 . S
C597 N605 1.427 . S
C598 H589 0.930 . S
C598 C596 1.378 . S
C598 C599 1.367 . S
C599 C598 1.367 . S
C599 C601 1.433 . S
C600 C596 1.350 . S
C600 C597 1.463 . S
C600 N604 1.427 . S
C601 H591 0.929 . S
C601 C599 1.433 . S
C601 N604 1.384 . S
C602 H593 0.929 . S
C602 C594 1.378 . S
C602 C597 1.350 . S
C603 H590 0.929 . S
C603 C595 1.433 . S
C603 N605 1.384 . S
N604 C600 1.427 . S
N604 C601 1.384 . S
N605 C597 1.427 . S
N605 C603 1.384 . S
H606 C612 0.930 . S
H607 C616 0.930 . S
H608 C621 0.929 . S
H609 C619 0.929 . S
H610 C614 0.929 . S
H611 C620 0.929 . S
C612 H606 0.930 . S
C612 C613 1.367 . S
C612 C620 1.378 . S
C613 C612 1.367 . S
C613 C621 1.433 . S
C614 H610 0.929 . S
C614 C616 1.378 . S
C614 C618 1.350 . S
C615 C618 1.463 1_655 S
C615 C620 1.350 . S
C615 N623 1.427 . S
C616 H607 0.930 . S
C616 C614 1.378 . S
C616 C617 1.367 . S
C617 C616 1.367 . S
C617 C619 1.433 . S
C618 C614 1.350 . S
C618 C615 1.463 1_455 S
C618 N622 1.427 . S
C619 H609 0.929 . S
C619 C617 1.433 . S
C619 N622 1.384 . S
C620 H611 0.929 . S
C620 C612 1.378 . S
C620 C615 1.350 . S
C621 H608 0.929 . S
C621 C613 1.433 . S
C621 N623 1.384 . S
N622 C618 1.427 . S
N622 C619 1.384 . S
N623 C615 1.427 . S
N623 C621 1.384 . S
H624 C630 0.930 . S
H625 C634 0.930 . S
H626 C639 0.929 . S
H627 C637 0.929 . S
H628 C632 0.929 . S
H629 C638 0.929 . S
C630 H624 0.930 . S
C630 C631 1.367 . S
C630 C638 1.378 . S
C631 C630 1.367 . S
C631 C639 1.433 . S
C632 H628 0.929 . S
C632 C634 1.378 . S
C632 C636 1.350 . S
C633 C636 1.463 1_565 S
C633 C638 1.350 . S
C633 N641 1.427 . S
C634 H625 0.930 . S
C634 C632 1.378 . S
C634 C635 1.367 . S
C635 C634 1.367 . S
C635 C637 1.433 . S
C636 C632 1.350 . S
C636 C633 1.463 1_545 S
C636 N640 1.427 . S
C637 H627 0.929 . S
C637 C635 1.433 . S
C637 N640 1.384 . S
C638 H629 0.929 . S
C638 C630 1.378 . S
C638 C633 1.350 . S
C639 H626 0.929 . S
C639 C631 1.433 . S
C639 N641 1.384 . S
N640 C636 1.427 . S
N640 C637 1.384 . S
N641 C633 1.427 . S
N641 C639 1.384 . S
H642 C648 0.930 . S
H643 C652 0.930 . S
H644 C657 0.929 . S
H645 C655 0.929 . S
H646 C650 0.929 . S
H647 C656 0.929 . S
C648 H642 0.930 . S
C648 C649 1.367 . S
C648 C656 1.378 . S
C649 C648 1.367 . S
C649 C657 1.433 . S
C650 H646 0.929 . S
C650 C652 1.378 . S
C650 C654 1.350 . S
C651 C654 1.463 . S
C651 C656 1.350 . S
C651 N659 1.427 . S
C652 H643 0.930 . S
C652 C650 1.378 . S
C652 C653 1.367 . S
C653 C652 1.367 . S
C653 C655 1.433 . S
C654 C650 1.350 . S
C654 C651 1.463 . S
C654 N658 1.427 . S
C655 H645 0.929 . S
C655 C653 1.433 . S
C655 N658 1.384 . S
C656 H647 0.929 . S
C656 C648 1.378 . S
C656 C651 1.350 . S
C657 H644 0.929 . S
C657 C649 1.433 . S
C657 N659 1.384 . S
N658 C654 1.427 . S
N658 C655 1.384 . S
N659 C651 1.427 . S
N659 C657 1.384 . S
H660 C666 0.930 . S
H661 C670 0.930 . S
H662 C675 0.929 . S
H663 C673 0.929 . S
H664 C668 0.929 . S
H665 C674 0.929 1_655 S
C666 H660 0.930 . S
C666 C667 1.367 . S
C666 C674 1.378 . S
C667 C666 1.367 . S
C667 C675 1.433 . S
C668 H664 0.929 . S
C668 C670 1.378 . S
C668 C672 1.350 . S
C669 C672 1.463 1_455 S
C669 C674 1.350 . S
C669 N677 1.427 . S
C670 H661 0.930 . S
C670 C668 1.378 . S
C670 C671 1.367 . S
C671 C670 1.367 . S
C671 C673 1.433 . S
C672 C668 1.350 . S
C672 C669 1.463 1_655 S
C672 N676 1.427 . S
C673 H663 0.929 . S
C673 C671 1.433 . S
C673 N676 1.384 . S
C674 H665 0.929 1_455 S
C674 C666 1.378 . S
C674 C669 1.350 . S
C675 H662 0.929 . S
C675 C667 1.433 . S
C675 N677 1.384 . S
N676 C672 1.427 . S
N676 C673 1.384 . S
N677 C669 1.427 . S
N677 C675 1.384 . S
H678 C684 0.930 . S
H679 C688 0.930 . S
H680 C693 0.929 . S
H681 C691 0.929 . S
H682 C686 0.929 . S
H683 C692 0.929 1_565 S
C684 H678 0.930 . S
C684 C685 1.367 . S
C684 C692 1.378 . S
C685 C684 1.367 . S
C685 C693 1.433 . S
C686 H682 0.929 . S
C686 C688 1.378 . S
C686 C690 1.350 . S
C687 C690 1.463 1_545 S
C687 C692 1.350 . S
C687 N695 1.427 . S
C688 H679 0.930 . S
C688 C686 1.378 . S
C688 C689 1.367 . S
C689 C688 1.367 . S
C689 C691 1.433 . S
C690 C686 1.350 . S
C690 C687 1.463 1_565 S
C690 N694 1.427 . S
C691 H681 0.929 . S
C691 C689 1.433 . S
C691 N694 1.384 . S
C692 H683 0.929 1_545 S
C692 C684 1.378 . S
C692 C687 1.350 . S
C693 H680 0.929 . S
C693 C685 1.433 . S
C693 N695 1.384 . S
N694 C690 1.427 . S
N694 C691 1.384 . S
N695 C687 1.427 . S
N695 C693 1.384 . S
H696 C702 0.908 1_554 S
H697 C706 0.930 . S
H698 C711 0.929 . S
H699 C709 0.929 . S
H700 C704 0.929 . S
H701 C710 0.929 . S
C702 H696 0.908 1_556 S
C702 C703 1.367 . S
C702 C710 1.378 . S
C703 C702 1.367 . S
C703 C711 1.433 . S
C704 H700 0.929 . S
C704 C706 1.378 . S
C704 C708 1.350 . S
C705 C708 1.463 . S
C705 C710 1.350 . S
C705 N713 1.427 . S
C706 H697 0.930 . S
C706 C704 1.378 . S
C706 C707 1.367 . S
C707 C706 1.367 . S
C707 C709 1.433 . S
C708 C704 1.350 . S
C708 C705 1.463 . S
C708 N712 1.427 . S
C709 H699 0.929 . S
C709 C707 1.433 . S
C709 N712 1.384 . S
C710 H701 0.929 . S
C710 C702 1.378 . S
C710 C705 1.350 . S
C711 H698 0.929 . S
C711 C703 1.433 . S
C711 N713 1.384 . S
N712 C708 1.427 . S
N712 C709 1.384 . S
N713 C705 1.427 . S
N713 C711 1.384 . S
H714 C720 0.930 . S
H715 C724 0.930 . S
H716 C729 0.929 . S
H717 C727 0.929 . S
H718 C722 0.929 . S
H719 C728 0.929 . S
C720 H714 0.930 . S
C720 C721 1.367 . S
C720 C728 1.378 . S
C721 C720 1.367 . S
C721 C729 1.433 . S
C722 H718 0.929 . S
C722 C724 1.378 . S
C722 C726 1.350 . S
C723 C726 1.463 1_455 S
C723 C728 1.350 . S
C723 N731 1.427 . S
C724 H715 0.930 . S
C724 C722 1.378 . S
C724 C725 1.367 . S
C725 C724 1.367 . S
C725 C727 1.433 . S
C726 C722 1.350 . S
C726 C723 1.463 1_655 S
C726 N730 1.427 . S
C727 H717 0.929 . S
C727 C725 1.433 . S
C727 N730 1.384 . S
C728 H719 0.929 . S
C728 C720 1.378 . S
C728 C723 1.350 . S
C729 H716 0.929 . S
C729 C721 1.433 . S
C729 N731 1.384 . S
N730 C726 1.427 . S
N730 C727 1.384 . S
N731 C723 1.427 . S
N731 C729 1.384 . S
H732 C738 0.930 . S
H733 C742 0.930 . S
H734 C747 0.929 . S
H735 C745 0.929 . S
H736 C740 0.929 1_545 S
H737 C746 0.929 . S
C738 H732 0.930 . S
C738 C739 1.367 . S
C738 C746 1.378 . S
C739 C738 1.367 . S
C739 C747 1.433 . S
C740 H736 0.929 1_565 S
C740 C742 1.378 . S
C740 C744 1.350 . S
C741 C744 1.463 1_545 S
C741 C746 1.350 . S
C741 N749 1.427 . S
C742 H733 0.930 . S
C742 C740 1.378 . S
C742 C743 1.367 . S
C743 C742 1.367 . S
C743 C745 1.433 . S
C744 C740 1.350 . S
C744 C741 1.463 1_565 S
C744 N748 1.427 . S
C745 H735 0.929 . S
C745 C743 1.433 . S
C745 N748 1.384 . S
C746 H737 0.929 . S
C746 C738 1.378 . S
C746 C741 1.350 . S
C747 H734 0.929 . S
C747 C739 1.433 . S
C747 N749 1.384 . S
N748 C744 1.427 . S
N748 C745 1.384 . S
N749 C741 1.427 . S
N749 C747 1.384 . S
H750 C756 0.930 . S
H751 C760 0.930 . S
H752 C765 0.929 . S
H753 C763 0.929 . S
H754 C758 0.929 . S
H755 C764 0.929 . S
C756 H750 0.930 . S
C756 C757 1.367 . S
C756 C764 1.378 . S
C757 C756 1.367 . S
C757 C765 1.433 . S
C758 H754 0.929 . S
C758 C760 1.378 . S
C758 C762 1.350 . S
C759 C762 1.463 . S
C759 C764 1.350 . S
C759 N767 1.427 . S
C760 H751 0.930 . S
C760 C758 1.378 . S
C760 C761 1.367 . S
C761 C760 1.367 . S
C761 C763 1.433 . S
C762 C758 1.350 . S
C762 C759 1.463 . S
C762 N766 1.427 . S
C763 H753 0.929 . S
C763 C761 1.433 . S
C763 N766 1.384 . S
C764 H755 0.929 . S
C764 C756 1.378 . S
C764 C759 1.350 . S
C765 H752 0.929 . S
C765 C757 1.433 . S
C765 N767 1.384 . S
N766 C762 1.427 . S
N766 C763 1.384 . S
N767 C759 1.427 . S
N767 C765 1.384 . S
H768 C774 0.930 . S
H769 C778 0.930 . S
H770 C783 0.929 . S
H771 C781 0.929 . S
H772 C776 0.929 . S
H773 C782 0.929 . S
C774 H768 0.930 . S
C774 C775 1.367 . S
C774 C782 1.378 . S
C775 C774 1.367 . S
C775 C783 1.433 . S
C776 H772 0.929 . S
C776 C778 1.378 . S
C776 C780 1.350 . S
C777 C780 1.463 1_455 S
C777 C782 1.350 . S
C777 N785 1.427 . S
C778 H769 0.930 . S
C778 C776 1.378 . S
C778 C779 1.367 . S
C779 C778 1.367 . S
C779 C781 1.433 . S
C780 C776 1.350 . S
C780 C777 1.463 1_655 S
C780 N784 1.427 . S
C781 H771 0.929 . S
C781 C779 1.433 . S
C781 N784 1.384 . S
C782 H773 0.929 . S
C782 C774 1.378 . S
C782 C777 1.350 . S
C783 H770 0.929 . S
C783 C775 1.433 . S
C783 N785 1.384 . S
N784 C780 1.427 . S
N784 C781 1.384 . S
N785 C777 1.427 . S
N785 C783 1.384 . S
H786 C792 0.930 . S
H787 C796 0.930 . S
H788 C801 0.929 . S
H789 C799 0.929 . S
H790 C794 0.929 . S
H791 C800 0.929 1_565 S
C792 H786 0.930 . S
C792 C793 1.367 . S
C792 C800 1.378 . S
C793 C792 1.367 . S
C793 C801 1.433 . S
C794 H790 0.929 . S
C794 C796 1.378 . S
C794 C798 1.350 . S
C795 C798 1.463 1_545 S
C795 C800 1.350 . S
C795 N803 1.427 . S
C796 H787 0.930 . S
C796 C794 1.378 . S
C796 C797 1.367 . S
C797 C796 1.367 . S
C797 C799 1.433 . S
C798 C794 1.350 . S
C798 C795 1.463 1_565 S
C798 N802 1.427 . S
C799 H789 0.929 . S
C799 C797 1.433 . S
C799 N802 1.384 . S
C800 H791 0.929 1_545 S
C800 C792 1.378 . S
C800 C795 1.350 . S
C801 H788 0.929 . S
C801 C793 1.433 . S
C801 N803 1.384 . S
N802 C798 1.427 . S
N802 C799 1.384 . S
N803 C795 1.427 . S
N803 C801 1.384 . S
H804 C810 0.930 . S
H805 C814 0.930 . S
H806 C819 0.929 . S
H807 C817 0.929 . S
H808 C812 0.929 . S
H809 C818 0.929 . S
C810 H804 0.930 . S
C810 C811 1.367 . S
C810 C818 1.378 . S
C811 C810 1.367 . S
C811 C819 1.433 . S
C812 H808 0.929 . S
C812 C814 1.378 . S
C812 C816 1.350 . S
C813 C816 1.463 . S
C813 C818 1.350 . S
C813 N821 1.427 . S
C814 H805 0.930 . S
C814 C812 1.378 . S
C814 C815 1.367 . S
C815 C814 1.367 . S
C815 C817 1.433 . S
C816 C812 1.350 . S
C816 C813 1.463 . S
C816 N820 1.427 . S
C817 H807 0.929 . S
C817 C815 1.433 . S
C817 N820 1.384 . S
C818 H809 0.929 . S
C818 C810 1.378 . S
C818 C813 1.350 . S
C819 H806 0.929 . S
C819 C811 1.433 . S
C819 N821 1.384 . S
N820 C816 1.427 . S
N820 C817 1.384 . S
N821 C813 1.427 . S
N821 C819 1.384 . S
H822 C828 0.930 . S
H823 C832 0.930 . S
H824 C837 0.929 . S
H825 C835 0.929 . S
H826 C830 0.929 . S
H827 C836 0.929 . S
C828 H822 0.930 . S
C828 C829 1.367 . S
C828 C836 1.378 . S
C829 C828 1.367 . S
C829 C837 1.433 . S
C830 H826 0.929 . S
C830 C832 1.378 . S
C830 C834 1.350 . S
C831 C834 1.463 . S
C831 C836 1.350 . S
C831 N839 1.427 . S
C832 H823 0.930 . S
C832 C830 1.378 . S
C832 C833 1.367 . S
C833 C832 1.367 . S
C833 C835 1.433 . S
C834 C830 1.350 . S
C834 C831 1.463 . S
C834 N838 1.427 . S
C835 H825 0.929 . S
C835 C833 1.433 . S
C835 N838 1.384 . S
C836 H827 0.929 . S
C836 C828 1.378 . S
C836 C831 1.350 . S
C837 H824 0.929 . S
C837 C829 1.433 . S
C837 N839 1.384 . S
N838 C834 1.427 . S
N838 C835 1.384 . S
N839 C831 1.427 . S
N839 C837 1.384 . S
H840 C846 0.930 . S
H841 C850 0.930 . S
H842 C855 0.929 . S
H843 C853 0.929 . S
H844 C848 0.929 . S
H845 C854 0.929 . S
C846 H840 0.930 . S
C846 C847 1.367 . S
C846 C854 1.378 . S
C847 C846 1.367 . S
C847 C855 1.433 . S
C848 H844 0.929 . S
C848 C850 1.378 . S
C848 C852 1.350 . S
C849 C852 1.463 . S
C849 C854 1.350 . S
C849 N857 1.427 . S
C850 H841 0.930 . S
C850 C848 1.378 . S
C850 C851 1.367 . S
C851 C850 1.367 . S
C851 C853 1.433 . S
C852 C848 1.350 . S
C852 C849 1.463 . S
C852 N856 1.427 . S
C853 H843 0.929 . S
C853 C851 1.433 . S
C853 N856 1.384 . S
C854 H845 0.929 . S
C854 C846 1.378 . S
C854 C849 1.350 . S
C855 H842 0.929 . S
C855 C847 1.433 . S
C855 N857 1.384 . S
N856 C852 1.427 . S
N856 C853 1.384 . S
N857 C849 1.427 . S
N857 C855 1.384 . S
H858 C864 0.930 . S
H859 C868 0.930 . S
H860 C873 0.929 . S
H861 C871 0.929 . S
H862 C866 0.929 . S
H863 C872 0.929 . S
C864 H858 0.930 . S
C864 C865 1.367 . S
C864 C872 1.378 . S
C865 C864 1.367 . S
C865 C873 1.433 . S
C866 H862 0.929 . S
C866 C868 1.378 . S
C866 C870 1.350 . S
C867 C870 1.463 . S
C867 C872 1.350 . S
C867 N875 1.427 . S
C868 H859 0.930 . S
C868 C866 1.378 . S
C868 C869 1.367 . S
C869 C868 1.367 . S
C869 C871 1.433 . S
C870 C866 1.350 . S
C870 C867 1.463 . S
C870 N874 1.427 . S
C871 H861 0.929 . S
C871 C869 1.433 . S
C871 N874 1.384 . S
C872 H863 0.929 . S
C872 C864 1.378 . S
C872 C867 1.350 . S
C873 H860 0.929 . S
C873 C865 1.433 . S
C873 N875 1.384 . S
N874 C870 1.427 . S
N874 C871 1.384 . S
N875 C867 1.427 . S
N875 C873 1.384 . S
H876 C882 0.930 . S
H877 C886 0.930 1_554 S
H878 C891 0.929 . S
H879 C889 0.929 1_554 S
H880 C884 0.929 . S
H881 C890 0.929 . S
C882 H876 0.930 . S
C882 C883 1.367 . S
C882 C890 1.378 . S
C883 C882 1.367 . S
C883 C891 1.433 . S
C884 H880 0.929 . S
C884 C886 1.378 . S
C884 C888 1.350 . S
C885 C888 1.463 . S
C885 C890 1.350 . S
C885 N893 1.427 . S
C886 H877 0.930 1_556 S
C886 C884 1.378 . S
C886 C887 1.367 1_556 S
C887 C886 1.367 1_554 S
C887 C889 1.433 1_554 S
C888 C884 1.350 . S
C888 C885 1.463 . S
C888 N892 1.427 . S
C889 H879 0.929 1_556 S
C889 C887 1.433 1_556 S
C889 N892 1.384 . S
C890 H881 0.929 . S
C890 C882 1.378 . S
C890 C885 1.350 . S
C891 H878 0.929 . S
C891 C883 1.433 . S
C891 N893 1.384 . S
N892 C888 1.427 . S
N892 C889 1.384 . S
N893 C885 1.427 . S
N893 C891 1.384 . S
H894 C900 0.930 1_556 S
H895 C904 0.930 . S
H896 C909 0.929 1_556 S
H897 C907 0.929 . S
H898 C902 0.929 . S
H899 C908 0.929 . S
C900 H894 0.930 1_554 S
C900 C901 1.367 1_554 S
C900 C908 1.378 . S
C901 C900 1.367 1_556 S
C901 C909 1.433 1_556 S
C902 H898 0.929 . S
C902 C904 1.378 . S
C902 C906 1.350 . S
C903 C906 1.463 . S
C903 C908 1.350 . S
C903 N911 1.427 . S
C904 H895 0.930 . S
C904 C902 1.378 . S
C904 C905 1.367 . S
C905 C904 1.367 . S
C905 C907 1.433 . S
C906 C902 1.350 . S
C906 C903 1.463 . S
C906 N910 1.427 . S
C907 H897 0.929 . S
C907 C905 1.433 . S
C907 N910 1.384 . S
C908 H899 0.929 . S
C908 C900 1.378 . S
C908 C903 1.350 . S
C909 H896 0.929 1_554 S
C909 C901 1.433 1_554 S
C909 N911 1.384 . S
N910 C906 1.427 . S
N910 C907 1.384 . S
N911 C903 1.427 . S
N911 C909 1.384 . S
C271 C5 1.434 . S
C275 C185 1.440 . S
C289 C207 1.444 . S
C293 C31 1.435 . S
C307 C229 1.434 . S
C311 C49 1.439 . S
C325 C75 1.434 . S
C329 C251 1.440 . S
C343 C141 1.443 . S
C347 C93 1.436 . S
C361 C163 1.435 . S
C365 C119 1.438 . S
C379 C9 0.932 . S
C383 C203 0.941 . S
C397 C27 0.912 . S
C401 C225 0.926 . S
C415 C247 0.938 . S
C419 C53 0.926 . S
C433 C137 0.926 . S
C437 C71 0.912 . S
C451 C97 0.932 . S
C455 C159 0.917 . S
C469 C115 0.938 . S
C473 C181 0.940 . S
C487 C138 1.304 . S
C491 C7 1.319 . S
C505 C160 1.307 . S
C509 C28 1.314 . S
C523 C182 1.306 . S
C527 C51 1.315 . S
C541 C72 1.317 . S
C545 C204 1.313 . S
C559 C95 1.319 . S
C563 C226 1.304 . S
C577 C116 1.305 . S
C581 C248 1.320 . S
C595 C8 1.692 . S
C599 C118 1.686 . S
C613 C26 1.694 . S
C617 C4 1.682 . S
C631 C52 1.694 . S
C635 C30 1.683 . S
C649 C48 1.687 . S
C653 C70 1.691 . S
C667 C96 1.689 . S
C671 C74 1.687 . S
C685 C114 1.688 . S
C689 C92 1.686 . S
C703 C162 1.684 . S
C707 C136 1.686 . S
C721 C184 1.684 . S
C725 C158 1.693 . S
C739 C206 1.681 . S
C743 C180 1.685 . S
C757 C202 1.693 . S
C761 C228 1.678 . S
C775 C224 1.689 . S
C779 C250 1.677 . S
C793 C246 1.687 . S
C797 C140 1.686 . S
C811 C227 0.579 . S
C815 C6 0.576 . S
C829 C249 0.544 . S
C833 C29 0.543 . S
C847 C139 0.566 . S
C851 C50 0.571 . S
C865 C161 0.548 . S
C869 C73 0.552 . S
C883 C94 0.552 . S
C887 C183 0.548 . S
C901 C117 0.580 . S
C905 C205 0.579 . S
