# Generated by pormake.
# Topology wip, (6)-cn, num edge types: 1
# Building blocks:
#     Node 0, Type 0, BuildingBlock: LEVNOQ01_clean_sbu_1, # of connection points: 6
#     Node 1, Type 0, BuildingBlock: LEVNOQ01_clean_sbu_1, # of connection points: 6
#     Node 2, Type 0, BuildingBlock: LEVNOQ01_clean_sbu_1, # of connection points: 6
#     Node 3, Type 0, BuildingBlock: LEVNOQ01_clean_sbu_1, # of connection points: 6
#     Node 4, Type 0, BuildingBlock: LEVNOQ01_clean_sbu_1, # of connection points: 6
#     Node 5, Type 0, BuildingBlock: LEVNOQ01_clean_sbu_1, # of connection points: 6
#     Node 6, Type 0, BuildingBlock: LEVNOQ01_clean_sbu_1, # of connection points: 6
#     Node 7, Type 0, BuildingBlock: LEVNOQ01_clean_sbu_1, # of connection points: 6
#     Node 8, Type 0, BuildingBlock: LEVNOQ01_clean_sbu_1, # of connection points: 6
#     Node 9, Type 0, BuildingBlock: LEVNOQ01_clean_sbu_1, # of connection points: 6
#     Node 10, Type 0, BuildingBlock: LEVNOQ01_clean_sbu_1, # of connection points: 6
#     Node 11, Type 0, BuildingBlock: LEVNOQ01_clean_sbu_1, # of connection points: 6
#     Node 12, Type 0, BuildingBlock: LEVNOQ01_clean_sbu_1, # of connection points: 6
#     Node 13, Type 0, BuildingBlock: LEVNOQ01_clean_sbu_1, # of connection points: 6
#     Node 14, Type 0, BuildingBlock: LEVNOQ01_clean_sbu_1, # of connection points: 6
#     Node 15, Type 0, BuildingBlock: LEVNOQ01_clean_sbu_1, # of connection points: 6
#     Node 16, Type 0, BuildingBlock: LEVNOQ01_clean_sbu_1, # of connection points: 6
#     Node 17, Type 0, BuildingBlock: LEVNOQ01_clean_sbu_1, # of connection points: 6
#     Node 18, Type 0, BuildingBlock: LEVNOQ01_clean_sbu_1, # of connection points: 6
#     Node 19, Type 0, BuildingBlock: LEVNOQ01_clean_sbu_1, # of connection points: 6
#     Node 20, Type 0, BuildingBlock: LEVNOQ01_clean_sbu_1, # of connection points: 6
#     Node 21, Type 0, BuildingBlock: LEVNOQ01_clean_sbu_1, # of connection points: 6
#     Node 22, Type 0, BuildingBlock: LEVNOQ01_clean_sbu_1, # of connection points: 6
#     Node 23, Type 0, BuildingBlock: LEVNOQ01_clean_sbu_1, # of connection points: 6
#     Node 24, Type 0, BuildingBlock: LEVNOQ01_clean_sbu_1, # of connection points: 6
#     Node 25, Type 0, BuildingBlock: LEVNOQ01_clean_sbu_1, # of connection points: 6
#     Node 26, Type 0, BuildingBlock: LEVNOQ01_clean_sbu_1, # of connection points: 6
#     Node 27, Type 0, BuildingBlock: LEVNOQ01_clean_sbu_1, # of connection points: 6
#     Node 28, Type 0, BuildingBlock: LEVNOQ01_clean_sbu_1, # of connection points: 6
#     Node 29, Type 0, BuildingBlock: LEVNOQ01_clean_sbu_1, # of connection points: 6
#     Node 30, Type 0, BuildingBlock: LEVNOQ01_clean_sbu_1, # of connection points: 6
#     Node 31, Type 0, BuildingBlock: LEVNOQ01_clean_sbu_1, # of connection points: 6
#     Edge 32, Type (0, 0), None
#     Edge 33, Type (0, 0), None
#     Edge 34, Type (0, 0), None
#     Edge 35, Type (0, 0), None
#     Edge 36, Type (0, 0), None
#     Edge 37, Type (0, 0), None
#     Edge 38, Type (0, 0), None
#     Edge 39, Type (0, 0), None
#     Edge 40, Type (0, 0), None
#     Edge 41, Type (0, 0), None
#     Edge 42, Type (0, 0), None
#     Edge 43, Type (0, 0), None
#     Edge 44, Type (0, 0), None
#     Edge 45, Type (0, 0), None
#     Edge 46, Type (0, 0), None
#     Edge 47, Type (0, 0), None
#     Edge 48, Type (0, 0), None
#     Edge 49, Type (0, 0), None
#     Edge 50, Type (0, 0), None
#     Edge 51, Type (0, 0), None
#     Edge 52, Type (0, 0), None
#     Edge 53, Type (0, 0), None
#     Edge 54, Type (0, 0), None
#     Edge 55, Type (0, 0), None
#     Edge 56, Type (0, 0), None
#     Edge 57, Type (0, 0), None
#     Edge 58, Type (0, 0), None
#     Edge 59, Type (0, 0), None
#     Edge 60, Type (0, 0), None
#     Edge 61, Type (0, 0), None
#     Edge 62, Type (0, 0), None
#     Edge 63, Type (0, 0), None
#     Edge 64, Type (0, 0), None
#     Edge 65, Type (0, 0), None
#     Edge 66, Type (0, 0), None
#     Edge 67, Type (0, 0), None
#     Edge 68, Type (0, 0), None
#     Edge 69, Type (0, 0), None
#     Edge 70, Type (0, 0), None
#     Edge 71, Type (0, 0), None
#     Edge 72, Type (0, 0), None
#     Edge 73, Type (0, 0), None
#     Edge 74, Type (0, 0), None
#     Edge 75, Type (0, 0), None
#     Edge 76, Type (0, 0), None
#     Edge 77, Type (0, 0), None
#     Edge 78, Type (0, 0), None
#     Edge 79, Type (0, 0), None
#     Edge 80, Type (0, 0), None
#     Edge 81, Type (0, 0), None
#     Edge 82, Type (0, 0), None
#     Edge 83, Type (0, 0), None
#     Edge 84, Type (0, 0), None
#     Edge 85, Type (0, 0), None
#     Edge 86, Type (0, 0), None
#     Edge 87, Type (0, 0), None
#     Edge 88, Type (0, 0), None
#     Edge 89, Type (0, 0), None
#     Edge 90, Type (0, 0), None
#     Edge 91, Type (0, 0), None
#     Edge 92, Type (0, 0), None
#     Edge 93, Type (0, 0), None
#     Edge 94, Type (0, 0), None
#     Edge 95, Type (0, 0), None
#     Edge 96, Type (0, 0), None
#     Edge 97, Type (0, 0), None
#     Edge 98, Type (0, 0), None
#     Edge 99, Type (0, 0), None
#     Edge 100, Type (0, 0), None
#     Edge 101, Type (0, 0), None
#     Edge 102, Type (0, 0), None
#     Edge 103, Type (0, 0), None
#     Edge 104, Type (0, 0), None
#     Edge 105, Type (0, 0), None
#     Edge 106, Type (0, 0), None
#     Edge 107, Type (0, 0), None
#     Edge 108, Type (0, 0), None
#     Edge 109, Type (0, 0), None
#     Edge 110, Type (0, 0), None
#     Edge 111, Type (0, 0), None
#     Edge 112, Type (0, 0), None
#     Edge 113, Type (0, 0), None
#     Edge 114, Type (0, 0), None
#     Edge 115, Type (0, 0), None
#     Edge 116, Type (0, 0), None
#     Edge 117, Type (0, 0), None
#     Edge 118, Type (0, 0), None
#     Edge 119, Type (0, 0), None
#     Edge 120, Type (0, 0), None
#     Edge 121, Type (0, 0), None
#     Edge 122, Type (0, 0), None
#     Edge 123, Type (0, 0), None
#     Edge 124, Type (0, 0), None
#     Edge 125, Type (0, 0), None
#     Edge 126, Type (0, 0), None
#     Edge 127, Type (0, 0), None
# Relax obj value: 0.514
# Max RMSD: 0.239
# Mean RMSD: 0.239
data_MOF--net-wip--node1-LEVNOQ01_clean_sbu_1--edge1-none
_symmetry_space_group_name_H-M    P1
_symmetry_Int_Tables_number       1
_symmetry_cell_setting            triclinic
loop_
_symmetry_equiv_pos_as_xyz
'x, y, z'
_cell_length_a     33.717978
_cell_length_b     33.720341
_cell_length_c     11.539587
_cell_angle_alpha  90.809453
_cell_angle_beta   90.088968
_cell_angle_gamma 89.866921
loop_
_atom_site_label
_atom_site_type_symbol
_atom_site_fract_x
_atom_site_fract_y
_atom_site_fract_z
_atom_type_partial_charge
O0 O 0.04459 0.36538 0.82358 0.0
Mg1 Mg 0.1046 0.35566 0.90934 0.0
O2 O 0.00086 0.37439 0.96374 0.0
Mg3 Mg 0.04644 0.39873 0.07834 0.0
O4 O 0.07853 0.34449 0.07671 0.0
O5 O 0.13932 0.35927 0.07679 0.0
O6 O 0.092 0.42976 0.19044 0.0
O7 O 0.01026 0.36746 0.23676 0.0
Mg8 Mg -0.00706 0.43753 0.22437 0.0
O9 O 0.01975 0.45373 0.08349 0.0
O10 O 0.04672 0.42698 0.32269 0.0
O11 O 0.9553 0.39029 0.16951 0.0
O12 O -0.02131 0.494 0.16712 0.0
C13 C 0.10049 0.43955 0.84141 0.0
C14 C 0.00881 0.37164 0.85737 0.0
C15 C 0.10963 0.34864 0.13683 0.0
C16 C 0.07833 0.44262 0.28545 0.0
C17 C 0.97226 0.36698 0.23757 0.0
C18 C 0.00358 0.48714 0.08648 0.0
O19 O 0.12474 0.41108 0.82497 0.0
O20 O 0.07442 0.43528 0.92052 0.0
O21 O 0.83028 0.76451 0.11253 0.0
Mg22 Mg 0.84364 0.82727 0.17394 0.0
O23 O 0.80612 0.73255 0.26514 0.0
Mg24 Mg 0.80006 0.78381 0.38946 0.0
O25 O 0.85522 0.80683 0.34165 0.0
O26 O 0.859 0.86855 0.3239 0.0
O27 O 0.78529 0.83553 0.51059 0.0
O28 O 0.83813 0.74629 0.53017 0.0
Mg29 Mg 0.76272 0.73876 0.61403 0.0
O30 O 0.75166 0.76391 0.4696 0.0
O31 O 0.79338 0.79463 0.65364 0.0
O32 O 0.79566 0.69933 0.50489 0.0
O33 O 0.70376 0.73542 0.55067 0.0
C34 C 0.7535 0.83545 0.14997 0.0
C35 C 0.81515 0.73337 0.15835 0.0
C36 C 0.86278 0.83944 0.39195 0.0
C37 C 0.77862 0.82679 0.61537 0.0
C38 C 0.8283 0.71004 0.54579 0.0
C39 C 0.71665 0.75448 0.46444 0.0
O40 O 0.78589 0.84958 0.11194 0.0
O41 O 0.75512 0.8132 0.24011 0.0
O42 O 0.43658 0.60574 0.36946 0.0
Mg43 Mg 0.37408 0.60437 0.41975 0.0
O44 O 0.44447 0.55566 0.4868 0.0
Mg45 Mg 0.39541 0.54175 0.62658 0.0
O46 O 0.36307 0.59088 0.59188 0.0
O47 O 0.36998 0.65193 0.56723 0.0
O48 O 0.34716 0.52221 0.75275 0.0
O49 O 0.43603 0.58077 0.7715 0.0
Mg50 Mg 0.44513 0.50444 0.81556 0.0
O51 O 0.41977 0.49142 0.67504 0.0
O52 O 0.3915 0.5288 0.88573 0.0
O53 O 0.48749 0.54374 0.74693 0.0
O54 O 0.4593 0.44775 0.7395 0.0
C55 C 0.36123 0.50468 0.37831 0.0
C56 C 0.45782 0.57723 0.40569 0.0
C57 C 0.36641 0.62437 0.64119 0.0
C58 C 0.36109 0.51078 0.84859 0.0
C59 C 0.47359 0.57552 0.78564 0.0
C60 C 0.44209 0.46331 0.65346 0.0
O61 O 0.36346 0.54049 0.33887 0.0
O62 O 0.36506 0.49975 0.48707 0.0
O63 O 0.60356 0.20332 0.97939 0.0
Mg64 Mg 0.66677 0.18001 0.92698 0.0
O65 O 0.64212 0.18065 0.0975 0.0
Mg66 Mg 0.67461 0.16588 0.87756 0.0
O67 O 0.71441 0.21696 0.88595 0.0
O68 O 0.66127 0.24329 0.95298 0.0
O69 O 0.70869 0.15293 0.69197 0.0
O70 O 0.62783 0.2066 0.77969 0.0
Mg71 Mg 0.6259 0.10957 0.685 0.0
O72 O 0.63898 0.11715 0.85713 0.0
O73 O 0.68528 0.099 0.6031 0.0
O74 O 0.6142 0.17153 0.62297 0.0
O75 O 0.59606 0.07356 0.82665 0.0
C76 C 0.72963 0.1265 0.02155 0.0
C77 C 0.61276 0.20313 0.08432 0.0
C78 C 0.69494 0.24799 0.91054 0.0
C79 C 0.7117 0.12631 0.61065 0.0
C80 C 0.61959 0.20536 0.67274 0.0
C81 C 0.61662 0.09224 0.90277 0.0
O82 O 0.70255 0.14665 0.06804 0.0
O83 O 0.72539 0.12275 0.91582 0.0
O84 O 0.04106 0.58901 0.79069 0.0
Mg85 Mg 0.10273 0.57106 0.73454 0.0
O86 O 0.01087 0.54965 0.66224 0.0
Mg87 Mg 0.0537 0.52141 0.52463 0.0
O88 O 0.09514 0.56152 0.56287 0.0
O89 O 0.13916 0.6033 0.59798 0.0
O90 O 0.09653 0.49302 0.40502 0.0
O91 O 0.03011 0.572 0.37922 0.0
Mg92 Mg -0.00417 0.51302 0.36657 0.0
O93 O 0.01258 0.473 0.46656 0.0
O94 O 0.05312 0.50663 0.27173 0.0
O95 O 0.97725 0.5665 0.47273 0.0
O96 O 0.95487 0.46836 0.36686 0.0
C97 C 0.09905 0.47616 0.76436 0.0
C98 C 0.00909 0.57385 0.74879 0.0
C99 C 0.11993 0.58466 0.51901 0.0
C100 C 0.08203 0.48515 0.30689 0.0
C101 C -0.00529 0.58481 0.396 0.0
C102 C 0.97723 0.48577 0.44342 0.0
O103 O 0.11424 0.50908 0.8005 0.0
O104 O 0.07687 0.47577 0.67295 0.0
O105 O 0.60759 0.7675 0.69406 0.0
Mg106 Mg 0.67107 0.78813 0.7523 0.0
O107 O 0.64881 0.78697 0.57869 0.0
Mg108 Mg 0.68117 0.8017 0.80218 0.0
O109 O 0.71646 0.748 0.79559 0.0
O110 O 0.66178 0.72479 0.73039 0.0
O111 O 0.71459 0.8114 0.98632 0.0
O112 O 0.63043 0.76363 0.89694 0.0
Mg113 Mg 0.62981 0.85465 0.99088 0.0
O114 O 0.65271 0.85783 0.82166 0.0
O115 O 0.68928 0.8631 0.08127 0.0
O116 O 0.62018 0.79479 0.06012 0.0
O117 O 0.59069 0.86574 0.83349 0.0
C118 C 0.73901 0.83504 0.65819 0.0
C119 C 0.618 0.76629 0.5901 0.0
C120 C 0.6954 0.71824 0.77122 0.0
C121 C 0.71654 0.83643 0.07133 0.0
C122 C 0.62386 0.76218 1.00463 0.0
C123 C 0.62109 0.86429 0.76773 0.0
O124 O 0.71002 0.81786 0.61142 0.0
O125 O 0.7359 0.83865 0.7642 0.0
O126 O 0.43011 0.35926 0.29806 0.0
Mg127 Mg 0.36852 0.37003 0.24068 0.0
O128 O 0.45154 0.40298 0.17282 0.0
Mg129 Mg 0.40579 0.43094 0.04691 0.0
O130 O 0.36488 0.38731 0.06995 0.0
O131 O 0.35742 0.32611 0.08803 0.0
O132 O 0.35298 0.45961 0.96717 0.0
O133 O 0.4334 0.38436 0.87162 0.0
Mg134 Mg 0.44862 0.44248 0.94121 0.0
O135 O 0.44545 0.48706 0.02692 0.0
O136 O 0.39297 0.44934 0.83091 0.0
O137 O 0.48307 0.38735 0.98124 0.0
O138 O 0.49808 0.478 0.90651 0.0
C139 C 0.36406 0.46771 0.29656 0.0
C140 C 0.45857 0.37903 0.25526 0.0
C141 C 0.36067 0.35465 0.01704 0.0
C142 C 0.36263 0.46796 0.86736 0.0
C143 C 0.46924 0.37303 0.88988 0.0
C144 C 0.47812 0.46882 0.99805 0.0
O145 O 0.35385 0.43227 0.32753 0.0
O146 O 0.38291 0.47148 0.20161 0.0
O147 O 0.82704 0.19285 0.56535 0.0
Mg148 Mg 0.83863 0.12957 0.50342 0.0
O149 O 0.80333 0.22522 0.41256 0.0
Mg150 Mg 0.79495 0.17396 0.28806 0.0
O151 O 0.84903 0.14855 0.33414 0.0
O152 O 0.85268 0.08688 0.35451 0.0
O153 O 0.77735 0.12275 0.16631 0.0
O154 O 0.83371 0.20896 0.14585 0.0
Mg155 Mg 0.7591 0.22044 0.06458 0.0
O156 O 0.74728 0.19613 0.2101 0.0
O157 O 0.78645 0.16308 0.0225 0.0
O158 O 0.79381 0.25834 0.17181 0.0
O159 O 0.70077 0.22685 0.12858 0.0
C160 C 0.74854 0.12609 0.53214 0.0
C161 C 0.81232 0.22429 0.51957 0.0
C162 C 0.8557 0.11558 0.28465 0.0
C163 C 0.77021 0.13191 0.06181 0.0
C164 C 0.82528 0.24545 0.12864 0.0
C165 C 0.71271 0.20725 0.21486 0.0
O166 O 0.78046 0.11027 0.56858 0.0
O167 O 0.75019 0.14744 0.44025 0.0
O168 O 0.92802 0.45993 0.95347 0.0
Mg169 Mg 0.96841 0.50512 0.87711 0.0
O170 O 0.88987 0.50905 0.93765 0.0
Mg171 Mg 0.93119 0.53551 0.07679 0.0
O172 O -0.01132 0.54401 0.99702 0.0
O173 O 0.02935 0.50195 0.9094 0.0
O174 O 0.96824 0.56534 0.22036 0.0
O175 O 0.89585 0.49418 0.21643 0.0
Mg176 Mg 0.87511 0.59021 0.25152 0.0
O177 O 0.89135 0.58213 0.08097 0.0
O178 O 0.9341 0.60984 0.32012 0.0
O179 O 0.85977 0.53062 0.33647 0.0
O180 O 0.83859 0.61496 0.10354 0.0
C181 C 0.97007 0.5753 0.81314 0.0
C182 C 0.89444 0.47231 0.92209 0.0
C183 C 0.01468 0.51643 1.00387 0.0
C184 C 0.96712 0.59211 0.29828 0.0
C185 C 0.8726 0.49617 0.30479 0.0
C186 C 0.86186 0.59767 0.031 0.0
O187 O 0.9449 0.55169 0.77154 0.0
O188 O 0.97125 0.57611 0.9261 0.0
O189 O 0.17738 0.10175 0.0823 0.0
Mg190 Mg 0.11332 0.11355 0.01 0.0
O191 O 0.21177 0.1405 0.96363 0.0
Mg192 Mg 0.16454 0.16447 0.81319 0.0
O193 O 0.13174 0.11544 0.84016 0.0
O194 O 0.07261 0.0978 0.85167 0.0
O195 O 0.12206 0.19702 0.66815 0.0
O196 O 0.2002 0.12211 0.68232 0.0
Mg197 Mg 0.21852 0.20173 0.62556 0.0
O198 O 0.19332 0.21324 0.76289 0.0
O199 O 0.16536 0.18412 0.53518 0.0
O200 O 0.25424 0.1544 0.70654 0.0
O201 O 0.22556 0.26097 0.68838 0.0
C202 C 0.11221 0.20731 0.04179 0.0
C203 C 0.21109 0.1172 0.05248 0.0
C204 C 0.10133 0.10594 0.78383 0.0
C205 C 0.13461 0.20293 0.56455 0.0
C206 C 0.23792 0.12294 0.67122 0.0
C207 C 0.20494 0.24795 0.77277 0.0
O208 O 0.10028 0.17448 0.08416 0.0
O209 O 0.13194 0.20634 0.94775 0.0
O210 O 0.60283 0.432 0.82284 0.0
Mg211 Mg 0.59302 0.36885 0.75195 0.0
O212 O 0.55987 0.46265 0.70718 0.0
Mg213 Mg 0.53617 0.41313 0.55622 0.0
O214 O 0.58332 0.38013 0.58223 0.0
O215 O 0.61827 0.32982 0.60319 0.0
O216 O 0.50562 0.37086 0.41641 0.0
O217 O 0.5819 0.4407 0.41026 0.0
Mg218 Mg 0.52192 0.46864 0.45065 0.0
O219 O 0.48045 0.43801 0.52133 0.0
O220 O 0.50209 0.42651 0.32061 0.0
O221 O 0.57803 0.49714 0.49335 0.0
O222 O 0.48479 0.50103 0.55237 0.0
C223 C 0.49982 0.365 0.79611 0.0
C224 C 0.58417 0.464 0.79506 0.0
C225 C 0.60009 0.35178 0.53069 0.0
C226 C 0.49342 0.39009 0.32805 0.0
C227 C 0.59416 0.47656 0.4158 0.0
C228 C 0.46578 0.46878 0.56047 0.0
O229 O 0.53435 0.35337 0.82829 0.0
O230 O 0.49633 0.38386 0.70148 0.0
O231 O 0.27127 0.85115 0.58363 0.0
Mg232 Mg 0.33547 0.85637 0.49868 0.0
O233 O 0.23141 0.85801 0.435 0.0
Mg234 Mg 0.27639 0.82484 0.3107 0.0
O235 O 0.31914 0.86931 0.32072 0.0
O236 O 0.37437 0.84076 0.34224 0.0
O237 O 0.31468 0.78183 0.19032 0.0
O238 O 0.25303 0.85822 0.14641 0.0
Mg239 Mg 0.2013 0.79152 0.18225 0.0
O240 O 0.23483 0.78217 0.3054 0.0
O241 O 0.25786 0.75687 0.12689 0.0
O242 O 0.1919 0.85415 0.18845 0.0
O243 O 0.17254 0.77499 0.33688 0.0
C244 C 0.32484 0.77741 0.54317 0.0
C245 C 0.23544 0.85417 0.54425 0.0
C246 C 0.34952 0.85536 0.2714 0.0
C247 C 0.29599 0.75593 0.12962 0.0
C248 C 0.21734 0.86337 0.11526 0.0
C249 C 0.20825 0.77361 0.37534 0.0
O250 O 0.35206 0.80029 0.57852 0.0
O251 O 0.30268 0.78951 0.46122 0.0
O252 O 0.86893 0.47919 0.73745 0.0
Mg253 Mg 0.93326 0.4806 0.73531 0.0
O254 O 0.89434 0.42373 0.77815 0.0
Mg255 Mg 0.92288 0.41173 0.59419 0.0
O256 O 0.96337 0.45785 0.61324 0.0
O257 O 0.93702 0.51606 0.58465 0.0
O258 O 0.95352 0.39007 0.42142 0.0
O259 O 0.88293 0.4595 0.485 0.0
Mg260 Mg 0.86364 0.36256 0.41365 0.0
O261 O 0.88488 0.36699 0.57757 0.0
O262 O 0.91879 0.34066 0.34067 0.0
O263 O 0.85874 0.42502 0.33746 0.0
O264 O 0.83254 0.33443 0.56606 0.0
C265 C -0.01932 0.39209 0.78062 0.0
C266 C 0.87732 0.45482 0.81443 0.0
C267 C 0.95865 0.48744 0.55073 0.0
C268 C 0.95023 0.36177 0.34619 0.0
C269 C 0.86803 0.45889 0.38223 0.0
C270 C 0.85908 0.34879 0.63355 0.0
O271 O 0.97132 0.42844 0.80591 0.0
O272 O 0.96549 0.37414 0.69366 0.0
O273 O 0.28339 0.10416 0.07278 0.0
Mg274 Mg 0.34449 0.10139 0.15848 0.0
O275 O 0.25219 0.11543 0.23439 0.0
Mg276 Mg 0.30159 0.15467 0.34973 0.0
O277 O 0.35352 0.12251 0.32936 0.0
O278 O 0.35601 0.06043 0.31308 0.0
O279 O 0.33773 0.19993 0.45891 0.0
O280 O 0.28735 0.12122 0.52912 0.0
Mg281 Mg 0.23107 0.15952 0.48495 0.0
O282 O 0.2542 0.19031 0.36646 0.0
O283 O 0.28234 0.19821 0.55983 0.0
O284 O 0.23155 0.09542 0.48576 0.0
O285 O 0.19518 0.1671 0.33712 0.0
C286 C 0.34231 0.18933 0.10329 0.0
C287 C 0.25036 0.11015 0.1239 0.0
C288 C 0.35869 0.0905 0.38143 0.0
C289 C 0.31749 0.21155 0.54603 0.0
C290 C 0.25569 0.10471 0.56403 0.0
C291 C 0.22506 0.18644 0.30088 0.0
O292 O 0.36403 0.15854 0.08526 0.0
O293 O 0.31782 0.18976 0.18757 0.0
O294 O 0.59197 0.53645 0.83854 0.0
Mg295 Mg 0.58498 0.59883 0.925 0.0
O296 O 0.57442 0.49793 0.98398 0.0
Mg297 Mg 0.5415 0.54294 0.12326 0.0
O298 O 0.57728 0.58792 0.09587 0.0
O299 O 0.61226 0.63783 0.07105 0.0
O300 O 0.50305 0.58017 0.24443 0.0
O301 O 0.58435 0.52939 0.28826 0.0
Mg302 Mg 0.54132 0.47697 0.25968 0.0
O303 O 0.50211 0.49712 0.1589 0.0
O304 O 0.50612 0.52723 0.35483 0.0
O305 O 0.60436 0.47479 0.21641 0.0
O306 O 0.52538 0.43831 0.11766 0.0
C307 C 0.49626 0.58934 0.88869 0.0
C308 C 0.58548 0.50132 0.87748 0.0
C309 C 0.59455 0.61636 0.14542 0.0
C310 C 0.49253 0.56227 0.33571 0.0
C311 C 0.60277 0.49687 0.30401 0.0
C312 C 0.50233 0.46709 0.09523 0.0
O313 O 0.52448 0.61377 0.87062 0.0
O314 O 0.50024 0.56289 0.96739 0.0
O315 O 0.16365 0.85902 0.58989 0.0
Mg316 Mg 0.10321 0.83801 0.65683 0.0
O317 O 0.19949 0.82021 0.70177 0.0
Mg318 Mg 0.15615 0.78527 0.8404 0.0
O319 O 0.11066 0.82107 0.82467 0.0
O320 O 0.07166 0.86847 0.81394 0.0
O321 O 0.12526 0.74538 0.9801 0.0
O322 O 0.17666 0.82889 0.98565 0.0
Mg323 Mg 0.23111 0.7757 0.96175 0.0
O324 O 0.19844 0.74649 0.8629 0.0
O325 O 0.18549 0.74012 0.05931 0.0
O326 O 0.23692 0.83817 0.93548 0.0
O327 O 0.26058 0.74857 0.82516 0.0
C328 C 0.11018 0.74435 0.60353 0.0
C329 C 0.19799 0.84561 0.61931 0.0
C330 C 0.09044 0.84548 0.88228 0.0
C331 C 0.14852 0.7308 0.05715 0.0
C332 C 0.20831 0.84892 0.99723 0.0
C333 C 0.22589 0.73631 0.79892 0.0
O334 O 0.09422 0.77712 0.5706 0.0
O335 O 0.13108 0.74429 0.69551 0.0
O336 O 0.55481 0.86414 0.32029 0.0
Mg337 Mg 0.61517 0.86203 0.41126 0.0
O338 O 0.50994 0.85397 0.45361 0.0
Mg339 Mg 0.54313 0.89449 0.56804 0.0
O340 O 0.59013 0.85345 0.57993 0.0
O341 O 0.64977 0.87322 0.57549 0.0
O342 O 0.57716 0.93907 0.67158 0.0
O343 O 0.51049 0.86012 0.73312 0.0
Mg344 Mg 0.48266 0.9255 0.71266 0.0
O345 O 0.49722 0.9352 0.55149 0.0
O346 O 0.53744 0.929 0.81505 0.0
O347 O 0.45138 0.8729 0.66918 0.0
O348 O 0.47727 -0.01696 0.66675 0.0
C349 C 0.59811 0.94279 0.34032 0.0
C350 C 0.51827 0.86036 0.3493 0.0
C351 C 0.6202 0.86384 0.63783 0.0
C352 C 0.56667 0.94783 0.77272 0.0
C353 C 0.47265 0.85442 0.73979 0.0
C354 C 0.49857 0.97143 0.58107 0.0
O355 O 0.6278 0.91962 0.33194 0.0
O356 O 0.57062 0.93379 0.41217 0.0
O357 O 0.35132 0.27344 0.59263 0.0
Mg358 Mg 0.34722 0.33646 0.6608 0.0
O359 O 0.3093 0.24719 0.71899 0.0
Mg360 Mg 0.29808 0.29303 0.86028 0.0
O361 O 0.35355 0.31766 0.83336 0.0
O362 O 0.35627 0.37928 0.81472 0.0
O363 O 0.27994 0.34036 0.9922 0.0
O364 O 0.33482 0.24993 0.99483 0.0
Mg365 Mg 0.25396 0.24166 0.04923 0.0
O366 O 0.24622 0.27061 0.90847 0.0
O367 O 0.28156 0.29434 0.1214 0.0
O368 O 0.29443 0.20064 0.97034 0.0
O369 O 0.19657 0.23986 0.96841 0.0
C370 C 0.25477 0.34122 0.62298 0.0
C371 C 0.3297 0.2444 0.62635 0.0
C372 C 0.35849 0.35046 0.88474 0.0
C373 C 0.26807 0.32763 0.08859 0.0
C374 C 0.32802 0.21248 1.00335 0.0
C375 C 0.21207 0.25961 0.88744 0.0
O376 O 0.28846 0.34699 0.57637 0.0
O377 O 0.25437 0.32853 0.72707 0.0
O378 O 0.92384 0.10072 0.86524 0.0
Mg379 Mg 0.86354 0.0936 0.92965 0.0
O380 O 0.94233 0.05422 0.98592 0.0
Mg381 Mg 0.89827 0.03304 0.12536 0.0
O382 O 0.85706 0.07723 0.10223 0.0
O383 O 0.86145 0.13866 0.08125 0.0
O384 O 0.85159 0.0103 0.23663 0.0
O385 O 0.93132 0.07944 0.2863 0.0
Mg386 Mg 0.95131 0.01723 0.24663 0.0
O387 O 0.93511 0.97789 0.14523 0.0
O388 O 0.89841 0.01718 0.36127 0.0
O389 O -0.0167 0.07152 0.18878 0.0
O390 O -0.01008 0.96925 0.2541 0.0
C391 C 0.85671 -0.00499 0.882 0.0
C392 C 0.95013 0.07686 0.9015 0.0
C393 C 0.85875 0.11048 0.15312 0.0
C394 C 0.86648 -7e-05 0.33011 0.0
C395 C 0.96808 0.08851 0.27362 0.0
C396 C 0.96973 -0.01016 0.18088 0.0
O397 O 0.85098 0.03087 0.84604 0.0
O398 O 0.871 -0.00969 0.98316 0.0
O399 O 0.1247 0.71622 0.41726 0.0
Mg400 Mg 0.18444 0.68084 0.43181 0.0
O401 O 0.13601 0.6791 0.55158 0.0
Mg402 Mg 0.18646 0.66071 0.37155 0.0
O403 O 0.23227 0.71183 0.39107 0.0
O404 O 0.19287 0.73499 0.52352 0.0
O405 O 0.22924 0.64216 0.21534 0.0
O406 O 0.15648 0.70097 0.2348 0.0
Mg407 Mg 0.13956 0.60546 0.17165 0.0
O408 O 0.14744 0.61545 0.3447 0.0
O409 O 0.20167 0.59619 0.10187 0.0
O410 O 0.12376 0.66573 0.10238 0.0
O411 O 0.10755 0.5692 0.31034 0.0
C412 C 0.2312 0.61583 0.5406 0.0
C413 C 0.11684 0.70945 0.52032 0.0
C414 C 0.2181 0.74166 0.44628 0.0
C415 C 0.23184 0.61762 0.12966 0.0
C416 C 0.13706 0.69916 0.14026 0.0
C417 C 0.12521 0.58975 0.38885 0.0
O418 O 0.20436 0.63895 0.57587 0.0
O419 O 0.22841 0.61066 0.43486 0.0
O420 O 0.53282 0.0906 0.30426 0.0
Mg421 Mg 0.59554 0.07487 0.24661 0.0
O422 O 0.5039 0.05208 0.17125 0.0
Mg423 Mg 0.54688 0.02511 0.03182 0.0
O424 O 0.58588 0.06703 0.07598 0.0
O425 O 0.6339 0.10483 0.10914 0.0
O426 O 0.58797 -0.00378 0.9029 0.0
O427 O 0.51927 0.07364 0.88958 0.0
Mg428 Mg 0.4869 0.01077 0.86382 0.0
O429 O 0.51127 0.97554 0.97127 0.0
O430 O 0.54395 0.01271 0.7731 0.0
O431 O 0.46391 0.06193 0.96735 0.0
O432 O 0.45655 0.95855 0.87327 0.0
C433 C 0.59443 -0.01979 0.26828 0.0
C434 C 0.50126 0.07502 0.26047 0.0
C435 C 0.61223 0.08805 0.03189 0.0
C436 C 0.5719 -0.01037 0.80513 0.0
C437 C 0.48256 0.08314 0.89928 0.0
C438 C 0.47457 -0.01885 0.94738 0.0
O439 O 0.60881 0.01307 0.30713 0.0
O440 O 0.57221 -0.02002 0.17713 0.0
O441 O 0.11777 0.24162 0.22603 0.0
Mg442 Mg 0.17776 0.27633 0.23457 0.0
O443 O 0.13933 0.2724 0.08779 0.0
Mg444 Mg 0.18208 0.29507 0.28794 0.0
O445 O 0.23066 0.25079 0.27037 0.0
O446 O 0.18713 0.21752 0.17325 0.0
O447 O 0.22041 0.31629 0.45223 0.0
O448 O 0.15198 0.24712 0.4142 0.0
Mg449 Mg 0.12235 0.33434 0.49086 0.0
O450 O 0.14201 0.33931 0.32187 0.0
O451 O 0.1828 0.35016 0.57667 0.0
O452 O 0.11241 0.27195 0.54931 0.0
O453 O 0.08111 0.35006 0.33685 0.0
C454 C 0.22648 0.33468 0.11656 0.0
C455 C 0.1167 0.24451 0.11812 0.0
C456 C 0.21879 0.21797 0.22947 0.0
C457 C 0.21739 0.33713 0.54584 0.0
C458 C 0.12969 0.24201 0.50266 0.0
C459 C 0.11061 0.34652 0.26813 0.0
O460 O 0.20205 0.30914 0.08116 0.0
O461 O 0.22053 0.34522 0.21807 0.0
O462 O 0.93094 0.85686 0.81086 0.0
Mg463 Mg 0.87001 0.8602 0.74794 0.0
O464 O 0.94161 0.90689 0.69559 0.0
Mg465 Mg 0.89677 0.92455 0.55388 0.0
O466 O 0.86024 0.87664 0.57549 0.0
O467 O 0.87201 0.81589 0.59386 0.0
O468 O 0.85062 0.94591 0.43316 0.0
O469 O 0.93514 0.88267 0.39753 0.0
Mg470 Mg 0.94979 0.95217 0.40836 0.0
O471 O 0.92706 -0.01997 0.53855 0.0
O472 O 0.8972 0.94005 0.30684 0.0
O473 O -0.0078 0.90528 0.44299 0.0
O474 O 0.97316 0.00775 0.42979 0.0
C475 C 0.85657 0.9587 0.79837 0.0
C476 C 0.95322 0.88472 0.77737 0.0
C477 C 0.86596 0.84403 0.52339 0.0
C478 C 0.86584 0.95741 0.34065 0.0
C479 C 0.97324 0.87997 0.38795 0.0
C480 C 0.96148 -0.02169 0.49084 0.0
O481 O 0.8567 0.92251 0.83511 0.0
O482 O 0.86523 0.96471 0.69286 0.0
O483 O 0.34914 0.70796 0.07612 0.0
Mg484 Mg 0.35651 0.64587 1.00005 0.0
O485 O 0.29592 0.71241 0.96777 0.0
Mg486 Mg 0.29453 0.66812 0.81285 0.0
O487 O 0.35704 0.66283 0.82113 0.0
O488 O 0.36715 0.60272 0.84715 0.0
O489 O 0.28282 0.61602 0.6795 0.0
O490 O 0.32113 0.71913 0.67242 0.0
Mg491 Mg 0.24188 0.69654 0.63195 0.0
O492 O 0.23493 0.67236 0.79435 0.0
O493 O 0.28222 0.65824 0.54473 0.0
O494 O 0.26848 0.75192 0.6162 0.0
O495 O 0.18382 0.69459 0.70423 0.0
C496 C 0.26845 0.6197 0.05245 0.0
C497 C 0.31618 0.72517 0.05296 0.0
C498 C 0.36622 0.63042 0.77336 0.0
C499 C 0.27208 0.62466 0.57779 0.0
C500 C 0.30533 0.74881 0.61954 0.0
C501 C 0.21987 0.69978 0.73538 0.0
O502 O 0.30234 0.62711 0.09603 0.0
O503 O 0.26411 0.62387 0.94389 0.0
O504 O 0.42507 0.95198 0.4657 0.0
Mg505 Mg 0.46107 0.00256 0.4068 0.0
O506 O 0.3916 0.00307 0.42603 0.0
Mg507 Mg 0.42929 0.03766 0.56503 0.0
O508 O 0.49499 0.03199 0.52248 0.0
O509 O 0.51991 -0.0115 0.39892 0.0
O510 O 0.46285 0.06862 0.71179 0.0
O511 O 0.40419 -0.01182 0.71152 0.0
Mg512 Mg 0.36857 0.0817 0.73669 0.0
O513 O 0.37037 0.05841 0.56823 0.0
O514 O 0.42287 0.10507 0.81703 0.0
O515 O 0.36073 0.0207 0.82287 0.0
O516 O 0.35909 0.11986 0.57897 0.0
C517 C 0.46164 0.07502 0.3229 0.0
C518 C 0.39432 0.96566 0.41995 0.0
C519 C 0.51417 0.00026 0.50445 0.0
C520 C 0.45767 0.09198 0.79692 0.0
C521 C 0.37937 -0.01185 0.79799 0.0
C522 C 0.36271 0.08943 0.51271 0.0
O523 O 0.43941 0.04687 0.29288 0.0
O524 O 0.4594 0.08433 0.43043 0.0
O525 O 0.66824 0.6163 0.57309 0.0
Mg526 Mg 0.60768 0.63585 0.49718 0.0
O527 O 0.7085 0.64472 0.4471 0.0
Mg528 Mg 0.66683 0.67452 0.28533 0.0
O529 O 0.61586 0.64854 0.32764 0.0
O530 O 0.57451 0.60304 0.34992 0.0
O531 O 0.62489 0.70932 0.14644 0.0
O532 O 0.67874 0.61648 0.18426 0.0
Mg533 Mg 0.69272 0.69426 0.22122 0.0
O534 O 0.66722 0.73003 0.36081 0.0
O535 O 0.67943 0.72476 0.06372 0.0
O536 O 0.73415 0.6413 0.2296 0.0
O537 O 0.72568 0.73965 0.27729 0.0
C538 C 0.61301 0.72835 0.51729 0.0
C539 C 0.70399 0.62448 0.54129 0.0
C540 C 0.59415 0.62339 0.27688 0.0
C541 C 0.64244 0.72893 0.06856 0.0
C542 C 0.716 0.6126 0.18212 0.0
C543 C 0.70039 0.7486 0.35583 0.0
O544 O 0.59519 0.69812 0.55913 0.0
O545 O 0.63665 0.72326 0.42954 0.0
O546 O 0.09341 0.92611 0.32824 0.0
Mg547 Mg 0.08552 0.86306 0.23927 0.0
O548 O 0.06978 0.96512 0.19092 0.0
Mg549 Mg 0.03876 0.91953 0.0514 0.0
O550 O 0.07907 0.87827 0.07141 0.0
O551 O 0.10725 0.82358 0.08378 0.0
O552 O 0.00231 0.87929 0.93011 0.0
O553 O 0.0804 0.93949 0.88864 0.0
Mg554 Mg 0.03269 -0.01322 0.92481 0.0
O555 O -0.00408 0.9622 0.0226 0.0
O556 O -0.00468 0.93634 0.84294 0.0
O557 O 0.09473 -0.0055 0.96954 0.0
O558 O 0.01206 0.02422 0.05333 0.0
C559 C -0.00435 0.86784 0.28179 0.0
C560 C 0.08469 0.96149 0.29317 0.0
C561 C 0.09229 0.84908 0.01502 0.0
C562 C -0.01343 0.89962 0.8505 0.0
C563 C 0.09785 0.97292 0.88136 0.0
C564 C -0.00688 -0.00683 0.08164 0.0
O565 O 0.02588 0.84563 0.29848 0.0
O566 O -0.00201 0.89483 0.20457 0.0
O567 O 0.78183 0.34252 0.08511 0.0
Mg568 Mg 0.84445 0.34752 0.98689 0.0
O569 O 0.73882 0.34772 0.94219 0.0
Mg570 Mg 0.77978 0.3136 0.80389 0.0
O571 O 0.82488 0.35292 0.8188 0.0
O572 O 0.88699 0.34989 0.83184 0.0
O573 O 0.81258 0.27053 0.68114 0.0
O574 O 0.76566 0.35136 0.63691 0.0
Mg575 Mg 0.70687 0.3037 0.65102 0.0
O576 O 0.73121 0.27815 0.78091 0.0
O577 O 0.75758 0.26544 0.57406 0.0
O578 O 0.70748 0.36803 0.67927 0.0
O579 O 0.66838 0.2925 0.78726 0.0
C580 C 0.83434 0.26519 0.02 0.0
C581 C 0.74506 0.34417 0.05146 0.0
C582 C 0.85703 0.34994 0.76442 0.0
C583 C 0.79393 0.25563 0.59466 0.0
C584 C 0.73351 0.36631 0.60281 0.0
C585 C 0.69963 0.27967 0.83776 0.0
O586 O 0.86308 0.28911 0.02453 0.0
O587 O 0.80385 0.27332 0.95663 0.0
O588 O 0.37605 0.97042 0.23014 0.0
Mg589 Mg 0.44112 0.97033 0.24655 0.0
O590 O 0.39931 0.91534 0.28134 0.0
Mg591 Mg 0.42529 0.90094 0.0955 0.0
O592 O 0.46385 0.94782 0.10957 0.0
O593 O 0.44609 0.00978 0.10985 0.0
O594 O 0.45645 0.87917 0.92411 0.0
O595 O 0.38447 0.95 0.98257 0.0
Mg596 Mg 0.36583 0.85784 0.91913 0.0
O597 O 0.38687 0.85189 0.09034 0.0
O598 O 0.4201 0.82999 0.8524 0.0
O599 O 0.3679 0.91651 0.82647 0.0
O600 O 0.32454 0.85616 0.0706 0.0
C601 C 0.48781 0.88241 0.28283 0.0
C602 C 0.38133 0.94679 0.31053 0.0
C603 C 0.45716 -0.02094 0.05524 0.0
C604 C 0.45235 0.85003 0.85259 0.0
C605 C 0.37467 0.95015 0.87418 0.0
C606 C 0.35367 0.85343 0.14083 0.0
O607 O 0.4791 0.91844 0.31461 0.0
O608 O 0.47045 0.86562 0.19694 0.0
O609 O 0.776 0.61014 0.58605 0.0
Mg610 Mg 0.83761 0.60355 0.68268 0.0
O611 O 0.73547 0.61648 0.73455 0.0
Mg612 Mg 0.77993 0.64827 0.87313 0.0
O613 O 0.82469 0.61043 0.85355 0.0
O614 O 0.87541 0.57612 0.82788 0.0
O615 O 0.81479 0.68791 0.99632 0.0
O616 O 0.76516 0.61131 0.04211 0.0
Mg617 Mg 0.7079 0.65848 0.02174 0.0
O618 O 0.73219 0.68564 0.89509 0.0
O619 O 0.75969 0.69401 0.10224 0.0
O620 O 0.70758 0.59413 0.99247 0.0
O621 O 0.66932 0.67116 0.88637 0.0
C622 C 0.83655 0.6893 0.65393 0.0
C623 C 0.74019 0.61512 0.62392 0.0
C624 C 0.85355 0.59398 0.90204 0.0
C625 C 0.79639 0.70259 0.08328 0.0
C626 C 0.73254 0.59626 0.07221 0.0
C627 C 0.70039 0.68512 0.83833 0.0
O628 O 0.86153 0.66105 0.64647 0.0
O629 O 0.806 0.68607 0.72055 0.0
O630 O 0.10394 0.03056 0.34619 0.0
Mg631 Mg 0.0925 0.09192 0.4259 0.0
O632 O 0.06207 0.00195 0.46329 0.0
Mg633 Mg 0.03337 0.0495 0.61035 0.0
O634 O 0.06991 0.09646 0.59245 0.0
O635 O 0.13036 0.1096 0.58528 0.0
O636 O -0.00282 0.08558 0.74471 0.0
O637 O 0.07766 0.02665 0.76449 0.0
Mg638 Mg 0.02852 -0.02065 0.73614 0.0
O639 O -0.00631 0.00556 0.6393 0.0
O640 O -0.00753 0.02738 0.82857 0.0
O641 O 0.08946 0.97143 0.68046 0.0
O642 O 0.00202 0.9417 0.61928 0.0
C643 C -0.00282 0.09548 0.37221 0.0
C644 C 0.08569 -0.00102 0.37563 0.0
C645 C 0.10025 0.10516 0.65093 0.0
C646 C -0.0168 0.06406 0.82479 0.0
C647 C 0.09554 -0.00678 0.76682 0.0
C648 C -0.01111 0.9746 0.58145 0.0
O649 O 0.03275 0.10626 0.34547 0.0
O650 O -0.00874 0.07666 0.46609 0.0
O651 O 0.67364 0.34858 0.10439 0.0
Mg652 Mg 0.61185 0.33353 0.17861 0.0
O653 O 0.71163 0.31595 0.22782 0.0
Mg654 Mg 0.66724 0.28975 0.38861 0.0
O655 O 0.61722 0.31796 0.34706 0.0
O656 O 0.58262 0.36909 0.32679 0.0
O657 O 0.62292 0.25742 0.52706 0.0
O658 O 0.68139 0.34802 0.48385 0.0
Mg659 Mg 0.6916 0.26916 0.45407 0.0
O660 O 0.66422 0.23403 0.31604 0.0
O661 O 0.67673 0.23897 0.6097 0.0
O662 O 0.73601 0.31991 0.44855 0.0
O663 O 0.72197 0.22157 0.40118 0.0
C664 C 0.61035 0.24096 0.15755 0.0
C665 C 0.70865 0.33712 0.13491 0.0
C666 C 0.59868 0.3454 0.3989 0.0
C667 C 0.63963 0.2363 0.60347 0.0
C668 C 0.71857 0.34995 0.49127 0.0
C669 C 0.69634 0.21364 0.32258 0.0
O670 O 0.59503 0.27264 0.11569 0.0
O671 O 0.63429 0.24371 0.24547 0.0
loop_
_geom_bond_atom_site_label_1
_geom_bond_atom_site_label_2
_geom_bond_distance
_geom_bond_site_symmetry_2
_ccdc_geom_bond_type
O0 Mg1 1.990 . S
O0 C14 1.253 . S
Mg1 O0 1.990 . S
Mg1 O4 2.180 1_556 S
Mg1 O5 2.117 1_556 S
Mg1 O19 2.030 . S
O2 Mg3 2.072 1_556 S
O2 C14 1.260 . S
Mg3 O2 2.072 1_554 S
Mg3 O4 2.099 . S
Mg3 O6 2.079 . S
Mg3 O7 2.072 . S
Mg3 O9 2.099 . S
Mg3 O20 2.079 1_554 S
O4 Mg1 2.180 1_554 S
O4 Mg3 2.099 . S
O4 C15 1.279 . S
O5 Mg1 2.117 1_554 S
O5 C15 1.250 . S
O6 Mg3 2.079 . S
O6 C16 1.264 . S
O7 Mg3 2.072 . S
O7 C17 1.260 . S
Mg8 O9 2.180 . S
Mg8 O10 2.030 . S
Mg8 O11 1.990 1_455 S
Mg8 O12 2.117 1_455 S
O9 Mg3 2.099 . S
O9 Mg8 2.180 . S
O9 C18 1.279 1_455 S
O10 Mg8 2.030 . S
O10 C16 1.248 . S
O11 Mg8 1.990 1_655 S
O11 C17 1.253 1_655 S
O12 Mg8 2.117 1_655 S
O12 C18 1.250 . S
C13 O19 1.248 . S
C13 O20 1.264 . S
C14 O0 1.253 . S
C14 O2 1.260 . S
C15 O4 1.279 . S
C15 O5 1.250 . S
C16 O6 1.264 . S
C16 O10 1.248 . S
C17 O7 1.260 . S
C17 O11 1.253 1_455 S
C18 O9 1.279 1_655 S
C18 O12 1.250 . S
O19 Mg1 2.030 . S
O19 C13 1.248 . S
O20 Mg3 2.079 1_556 S
O20 C13 1.264 . S
O21 Mg22 1.990 . S
O21 C35 1.253 . S
Mg22 O21 1.990 . S
Mg22 O25 2.180 . S
Mg22 O26 2.117 . S
Mg22 O40 2.030 . S
O23 Mg24 2.072 . S
O23 C35 1.260 . S
Mg24 O23 2.072 . S
Mg24 O25 2.099 . S
Mg24 O27 2.079 . S
Mg24 O28 2.072 . S
Mg24 O30 2.099 . S
Mg24 O41 2.079 . S
O25 Mg22 2.180 . S
O25 Mg24 2.099 . S
O25 C36 1.279 . S
O26 Mg22 2.117 . S
O26 C36 1.250 . S
O27 Mg24 2.079 . S
O27 C37 1.264 . S
O28 Mg24 2.072 . S
O28 C38 1.260 . S
Mg29 O30 2.180 . S
Mg29 O31 2.030 . S
Mg29 O32 1.990 . S
Mg29 O33 2.117 . S
O30 Mg24 2.099 . S
O30 Mg29 2.180 . S
O30 C39 1.279 . S
O31 Mg29 2.030 . S
O31 C37 1.248 . S
O32 Mg29 1.990 . S
O32 C38 1.253 . S
O33 Mg29 2.117 . S
O33 C39 1.250 . S
C34 O40 1.248 . S
C34 O41 1.264 . S
C35 O21 1.253 . S
C35 O23 1.260 . S
C36 O25 1.279 . S
C36 O26 1.250 . S
C37 O27 1.264 . S
C37 O31 1.248 . S
C38 O28 1.260 . S
C38 O32 1.253 . S
C39 O30 1.279 . S
C39 O33 1.250 . S
O40 Mg22 2.030 . S
O40 C34 1.248 . S
O41 Mg24 2.079 . S
O41 C34 1.264 . S
O42 Mg43 1.990 . S
O42 C56 1.253 . S
Mg43 O42 1.990 . S
Mg43 O46 2.180 . S
Mg43 O47 2.117 . S
Mg43 O61 2.030 . S
O44 Mg45 2.072 . S
O44 C56 1.260 . S
Mg45 O44 2.072 . S
Mg45 O46 2.099 . S
Mg45 O48 2.079 . S
Mg45 O49 2.072 . S
Mg45 O51 2.099 . S
Mg45 O62 2.079 . S
O46 Mg43 2.180 . S
O46 Mg45 2.099 . S
O46 C57 1.279 . S
O47 Mg43 2.117 . S
O47 C57 1.250 . S
O48 Mg45 2.079 . S
O48 C58 1.264 . S
O49 Mg45 2.072 . S
O49 C59 1.260 . S
Mg50 O51 2.180 . S
Mg50 O52 2.030 . S
Mg50 O53 1.990 . S
Mg50 O54 2.117 . S
O51 Mg45 2.099 . S
O51 Mg50 2.180 . S
O51 C60 1.279 . S
O52 Mg50 2.030 . S
O52 C58 1.248 . S
O53 Mg50 1.990 . S
O53 C59 1.253 . S
O54 Mg50 2.117 . S
O54 C60 1.250 . S
C55 O61 1.248 . S
C55 O62 1.264 . S
C56 O42 1.253 . S
C56 O44 1.260 . S
C57 O46 1.279 . S
C57 O47 1.250 . S
C58 O48 1.264 . S
C58 O52 1.248 . S
C59 O49 1.260 . S
C59 O53 1.253 . S
C60 O51 1.279 . S
C60 O54 1.250 . S
O61 Mg43 2.030 . S
O61 C55 1.248 . S
O62 Mg45 2.079 . S
O62 C55 1.264 . S
O63 Mg64 1.990 . S
O63 C77 1.253 . S
Mg64 O63 1.990 . S
Mg64 O67 2.180 1_554 S
Mg64 O68 2.117 1_554 S
Mg64 O82 2.030 . S
O65 Mg66 2.072 . S
O65 C77 1.260 1_556 S
Mg66 O65 2.072 . S
Mg66 O67 2.099 . S
Mg66 O69 2.079 . S
Mg66 O70 2.072 . S
Mg66 O72 2.099 . S
Mg66 O83 2.079 . S
O67 Mg64 2.180 1_556 S
O67 Mg66 2.099 . S
O67 C78 1.279 . S
O68 Mg64 2.117 1_556 S
O68 C78 1.250 . S
O69 Mg66 2.079 . S
O69 C79 1.264 . S
O70 Mg66 2.072 . S
O70 C80 1.260 . S
Mg71 O72 2.180 . S
Mg71 O73 2.030 . S
Mg71 O74 1.990 . S
Mg71 O75 2.117 . S
O72 Mg66 2.099 . S
O72 Mg71 2.180 . S
O72 C81 1.279 . S
O73 Mg71 2.030 . S
O73 C79 1.248 . S
O74 Mg71 1.990 . S
O74 C80 1.253 . S
O75 Mg71 2.117 . S
O75 C81 1.250 . S
C76 O82 1.248 . S
C76 O83 1.264 1_554 S
C77 O63 1.253 . S
C77 O65 1.260 1_554 S
C78 O67 1.279 . S
C78 O68 1.250 . S
C79 O69 1.264 . S
C79 O73 1.248 . S
C80 O70 1.260 . S
C80 O74 1.253 . S
C81 O72 1.279 . S
C81 O75 1.250 . S
O82 Mg64 2.030 . S
O82 C76 1.248 . S
O83 Mg66 2.079 . S
O83 C76 1.264 1_556 S
O84 Mg85 1.990 . S
O84 C98 1.253 . S
Mg85 O84 1.990 . S
Mg85 O88 2.180 . S
Mg85 O89 2.117 . S
Mg85 O103 2.030 . S
O86 Mg87 2.072 . S
O86 C98 1.260 . S
Mg87 O86 2.072 . S
Mg87 O88 2.099 . S
Mg87 O90 2.079 . S
Mg87 O91 2.072 . S
Mg87 O93 2.099 . S
Mg87 O104 2.079 . S
O88 Mg85 2.180 . S
O88 Mg87 2.099 . S
O88 C99 1.279 . S
O89 Mg85 2.117 . S
O89 C99 1.250 . S
O90 Mg87 2.079 . S
O90 C100 1.264 . S
O91 Mg87 2.072 . S
O91 C101 1.260 . S
Mg92 O93 2.180 . S
Mg92 O94 2.030 . S
Mg92 O95 1.990 1_455 S
Mg92 O96 2.117 1_455 S
O93 Mg87 2.099 . S
O93 Mg92 2.180 . S
O93 C102 1.279 1_455 S
O94 Mg92 2.030 . S
O94 C100 1.248 . S
O95 Mg92 1.990 1_655 S
O95 C101 1.253 1_655 S
O96 Mg92 2.117 1_655 S
O96 C102 1.250 . S
C97 O103 1.248 . S
C97 O104 1.264 . S
C98 O84 1.253 . S
C98 O86 1.260 . S
C99 O88 1.279 . S
C99 O89 1.250 . S
C100 O90 1.264 . S
C100 O94 1.248 . S
C101 O91 1.260 . S
C101 O95 1.253 1_455 S
C102 O93 1.279 1_655 S
C102 O96 1.250 . S
O103 Mg85 2.030 . S
O103 C97 1.248 . S
O104 Mg87 2.079 . S
O104 C97 1.264 . S
O105 Mg106 1.990 . S
O105 C119 1.253 . S
Mg106 O105 1.990 . S
Mg106 O109 2.180 . S
Mg106 O110 2.117 . S
Mg106 O124 2.030 . S
O107 Mg108 2.072 . S
O107 C119 1.260 . S
Mg108 O107 2.072 . S
Mg108 O109 2.099 . S
Mg108 O111 2.079 . S
Mg108 O112 2.072 . S
Mg108 O114 2.099 . S
Mg108 O125 2.079 . S
O109 Mg106 2.180 . S
O109 Mg108 2.099 . S
O109 C120 1.279 . S
O110 Mg106 2.117 . S
O110 C120 1.250 . S
O111 Mg108 2.079 . S
O111 C121 1.264 1_556 S
O112 Mg108 2.072 . S
O112 C122 1.260 1_556 S
Mg113 O114 2.176 1_554 S
Mg113 O115 2.032 . S
Mg113 O116 1.990 . S
Mg113 O117 2.114 1_554 S
O114 Mg108 2.099 . S
O114 Mg113 2.176 1_556 S
O114 C123 1.279 . S
O115 Mg113 2.032 . S
O115 C121 1.248 . S
O116 Mg113 1.990 . S
O116 C122 1.253 . S
O117 Mg113 2.114 1_556 S
O117 C123 1.250 . S
C118 O124 1.248 . S
C118 O125 1.264 . S
C119 O105 1.253 . S
C119 O107 1.260 . S
C120 O109 1.279 . S
C120 O110 1.250 . S
C121 O111 1.264 1_554 S
C121 O115 1.248 . S
C122 O112 1.260 1_554 S
C122 O116 1.253 . S
C123 O114 1.279 . S
C123 O117 1.250 . S
O124 Mg106 2.030 . S
O124 C118 1.248 . S
O125 Mg108 2.079 . S
O125 C118 1.264 . S
O126 Mg127 1.990 . S
O126 C140 1.253 . S
Mg127 O126 1.990 . S
Mg127 O130 2.180 . S
Mg127 O131 2.117 . S
Mg127 O145 2.030 . S
O128 Mg129 2.072 . S
O128 C140 1.260 . S
Mg129 O128 2.072 . S
Mg129 O130 2.099 . S
Mg129 O132 2.079 1_554 S
Mg129 O133 2.072 1_554 S
Mg129 O135 2.099 . S
Mg129 O146 2.079 . S
O130 Mg127 2.180 . S
O130 Mg129 2.099 . S
O130 C141 1.279 . S
O131 Mg127 2.117 . S
O131 C141 1.250 . S
O132 Mg129 2.079 1_556 S
O132 C142 1.264 . S
O133 Mg129 2.072 1_556 S
O133 C143 1.260 . S
Mg134 O135 2.180 1_556 S
Mg134 O136 2.030 . S
Mg134 O137 1.990 . S
Mg134 O138 2.117 . S
O135 Mg129 2.099 . S
O135 Mg134 2.180 1_554 S
O135 C144 1.279 . S
O136 Mg134 2.030 . S
O136 C142 1.248 . S
O137 Mg134 1.990 . S
O137 C143 1.253 . S
O138 Mg134 2.117 . S
O138 C144 1.250 1_556 S
C139 O145 1.248 . S
C139 O146 1.264 . S
C140 O126 1.253 . S
C140 O128 1.260 . S
C141 O130 1.279 . S
C141 O131 1.250 . S
C142 O132 1.264 . S
C142 O136 1.248 . S
C143 O133 1.260 . S
C143 O137 1.253 . S
C144 O135 1.279 . S
C144 O138 1.250 1_554 S
O145 Mg127 2.030 . S
O145 C139 1.248 . S
O146 Mg129 2.079 . S
O146 C139 1.264 . S
O147 Mg148 1.990 . S
O147 C161 1.253 . S
Mg148 O147 1.990 . S
Mg148 O151 2.180 . S
Mg148 O152 2.117 . S
Mg148 O166 2.030 . S
O149 Mg150 2.072 . S
O149 C161 1.260 . S
Mg150 O149 2.072 . S
Mg150 O151 2.099 . S
Mg150 O153 2.079 . S
Mg150 O154 2.072 . S
Mg150 O156 2.099 . S
Mg150 O167 2.079 . S
O151 Mg148 2.180 . S
O151 Mg150 2.099 . S
O151 C162 1.279 . S
O152 Mg148 2.117 . S
O152 C162 1.250 . S
O153 Mg150 2.079 . S
O153 C163 1.264 . S
O154 Mg150 2.072 . S
O154 C164 1.260 . S
Mg155 O156 2.180 . S
Mg155 O157 2.030 . S
Mg155 O158 1.990 . S
Mg155 O159 2.117 . S
O156 Mg150 2.099 . S
O156 Mg155 2.180 . S
O156 C165 1.279 . S
O157 Mg155 2.030 . S
O157 C163 1.248 . S
O158 Mg155 1.990 . S
O158 C164 1.253 . S
O159 Mg155 2.117 . S
O159 C165 1.250 . S
C160 O166 1.248 . S
C160 O167 1.264 . S
C161 O147 1.253 . S
C161 O149 1.260 . S
C162 O151 1.279 . S
C162 O152 1.250 . S
C163 O153 1.264 . S
C163 O157 1.248 . S
C164 O154 1.260 . S
C164 O158 1.253 . S
C165 O156 1.279 . S
C165 O159 1.250 . S
O166 Mg148 2.030 . S
O166 C160 1.248 . S
O167 Mg150 2.079 . S
O167 C160 1.264 . S
O168 Mg169 1.990 . S
O168 C182 1.253 . S
Mg169 O168 1.990 . S
Mg169 O172 2.180 1_556 S
Mg169 O173 2.117 1_655 S
Mg169 O187 2.030 . S
O170 Mg171 2.072 1_556 S
O170 C182 1.260 . S
Mg171 O170 2.072 1_554 S
Mg171 O172 2.099 . S
Mg171 O174 2.079 . S
Mg171 O175 2.072 . S
Mg171 O177 2.099 . S
Mg171 O188 2.079 1_554 S
O172 Mg169 2.180 1_554 S
O172 Mg171 2.099 . S
O172 C183 1.279 1_655 S
O173 Mg169 2.117 1_455 S
O173 C183 1.250 1_556 S
O174 Mg171 2.079 . S
O174 C184 1.264 . S
O175 Mg171 2.072 . S
O175 C185 1.260 . S
Mg176 O177 2.180 . S
Mg176 O178 2.030 . S
Mg176 O179 1.990 . S
Mg176 O180 2.117 . S
O177 Mg171 2.099 . S
O177 Mg176 2.180 . S
O177 C186 1.279 . S
O178 Mg176 2.030 . S
O178 C184 1.248 . S
O179 Mg176 1.990 . S
O179 C185 1.253 . S
O180 Mg176 2.117 . S
O180 C186 1.250 . S
C181 O187 1.248 . S
C181 O188 1.264 . S
C182 O168 1.253 . S
C182 O170 1.260 . S
C183 O172 1.279 1_455 S
C183 O173 1.250 1_554 S
C184 O174 1.264 . S
C184 O178 1.248 . S
C185 O175 1.260 . S
C185 O179 1.253 . S
C186 O177 1.279 . S
C186 O180 1.250 . S
O187 Mg169 2.030 . S
O187 C181 1.248 . S
O188 Mg171 2.079 1_556 S
O188 C181 1.264 . S
O189 Mg190 1.990 1_554 S
O189 C203 1.253 . S
Mg190 O189 1.990 1_556 S
Mg190 O193 2.181 . S
Mg190 O194 2.117 . S
Mg190 O208 2.030 1_556 S
O191 Mg192 2.072 . S
O191 C203 1.260 1_556 S
Mg192 O191 2.072 . S
Mg192 O193 2.099 . S
Mg192 O195 2.079 . S
Mg192 O196 2.072 . S
Mg192 O198 2.099 . S
Mg192 O209 2.079 . S
O193 Mg190 2.181 . S
O193 Mg192 2.099 . S
O193 C204 1.279 . S
O194 Mg190 2.117 . S
O194 C204 1.250 . S
O195 Mg192 2.079 . S
O195 C205 1.264 . S
O196 Mg192 2.072 . S
O196 C206 1.260 . S
Mg197 O198 2.180 . S
Mg197 O199 2.030 . S
Mg197 O200 1.990 . S
Mg197 O201 2.117 . S
O198 Mg192 2.099 . S
O198 Mg197 2.180 . S
O198 C207 1.279 . S
O199 Mg197 2.030 . S
O199 C205 1.248 . S
O200 Mg197 1.990 . S
O200 C206 1.253 . S
O201 Mg197 2.117 . S
O201 C207 1.250 . S
C202 O208 1.248 . S
C202 O209 1.264 1_554 S
C203 O189 1.253 . S
C203 O191 1.260 1_554 S
C204 O193 1.279 . S
C204 O194 1.250 . S
C205 O195 1.264 . S
C205 O199 1.248 . S
C206 O196 1.260 . S
C206 O200 1.253 . S
C207 O198 1.279 . S
C207 O201 1.250 . S
O208 Mg190 2.030 1_554 S
O208 C202 1.248 . S
O209 Mg192 2.079 . S
O209 C202 1.264 1_556 S
O210 Mg211 1.990 . S
O210 C224 1.253 . S
Mg211 O210 1.990 . S
Mg211 O214 2.180 . S
Mg211 O215 2.117 . S
Mg211 O229 2.030 . S
O212 Mg213 2.072 . S
O212 C224 1.260 . S
Mg213 O212 2.072 . S
Mg213 O214 2.099 . S
Mg213 O216 2.079 . S
Mg213 O217 2.072 . S
Mg213 O219 2.099 . S
Mg213 O230 2.079 . S
O214 Mg211 2.180 . S
O214 Mg213 2.099 . S
O214 C225 1.279 . S
O215 Mg211 2.117 . S
O215 C225 1.250 . S
O216 Mg213 2.079 . S
O216 C226 1.264 . S
O217 Mg213 2.072 . S
O217 C227 1.260 . S
Mg218 O219 2.180 . S
Mg218 O220 2.030 . S
Mg218 O221 1.990 . S
Mg218 O222 2.117 . S
O219 Mg213 2.099 . S
O219 Mg218 2.180 . S
O219 C228 1.279 . S
O220 Mg218 2.030 . S
O220 C226 1.248 . S
O221 Mg218 1.990 . S
O221 C227 1.253 . S
O222 Mg218 2.117 . S
O222 C228 1.250 . S
C223 O229 1.248 . S
C223 O230 1.264 . S
C224 O210 1.253 . S
C224 O212 1.260 . S
C225 O214 1.279 . S
C225 O215 1.250 . S
C226 O216 1.264 . S
C226 O220 1.248 . S
C227 O217 1.260 . S
C227 O221 1.253 . S
C228 O219 1.279 . S
C228 O222 1.250 . S
O229 Mg211 2.030 . S
O229 C223 1.248 . S
O230 Mg213 2.079 . S
O230 C223 1.264 . S
O231 Mg232 1.990 . S
O231 C245 1.253 . S
Mg232 O231 1.990 . S
Mg232 O235 2.180 . S
Mg232 O236 2.117 . S
Mg232 O250 2.030 . S
O233 Mg234 2.072 . S
O233 C245 1.260 . S
Mg234 O233 2.072 . S
Mg234 O235 2.099 . S
Mg234 O237 2.079 . S
Mg234 O238 2.072 . S
Mg234 O240 2.099 . S
Mg234 O251 2.079 . S
O235 Mg232 2.180 . S
O235 Mg234 2.099 . S
O235 C246 1.279 . S
O236 Mg232 2.117 . S
O236 C246 1.250 . S
O237 Mg234 2.079 . S
O237 C247 1.264 . S
O238 Mg234 2.072 . S
O238 C248 1.260 . S
Mg239 O240 2.180 . S
Mg239 O241 2.030 . S
Mg239 O242 1.990 . S
Mg239 O243 2.117 . S
O240 Mg234 2.099 . S
O240 Mg239 2.180 . S
O240 C249 1.279 . S
O241 Mg239 2.030 . S
O241 C247 1.248 . S
O242 Mg239 1.990 . S
O242 C248 1.253 . S
O243 Mg239 2.117 . S
O243 C249 1.250 . S
C244 O250 1.248 . S
C244 O251 1.264 . S
C245 O231 1.253 . S
C245 O233 1.260 . S
C246 O235 1.279 . S
C246 O236 1.250 . S
C247 O237 1.264 . S
C247 O241 1.248 . S
C248 O238 1.260 . S
C248 O242 1.253 . S
C249 O240 1.279 . S
C249 O243 1.250 . S
O250 Mg232 2.030 . S
O250 C244 1.248 . S
O251 Mg234 2.079 . S
O251 C244 1.264 . S
O252 Mg253 1.990 . S
O252 C266 1.253 . S
Mg253 O252 1.990 . S
Mg253 O256 2.180 . S
Mg253 O257 2.117 1_655 S
Mg253 O271 2.030 . S
O254 Mg255 2.072 . S
O254 C266 1.260 . S
Mg255 O254 2.072 . S
Mg255 O256 2.099 . S
Mg255 O258 2.079 . S
Mg255 O259 2.072 . S
Mg255 O261 2.099 . S
Mg255 O272 2.079 . S
O256 Mg253 2.180 . S
O256 Mg255 2.099 . S
O256 C267 1.279 1_655 S
O257 Mg253 2.117 1_455 S
O257 C267 1.250 . S
O258 Mg255 2.079 . S
O258 C268 1.264 . S
O259 Mg255 2.072 . S
O259 C269 1.260 . S
Mg260 O261 2.180 . S
Mg260 O262 2.030 . S
Mg260 O263 1.990 . S
Mg260 O264 2.117 . S
O261 Mg255 2.099 . S
O261 Mg260 2.180 . S
O261 C270 1.279 . S
O262 Mg260 2.030 . S
O262 C268 1.248 . S
O263 Mg260 1.990 . S
O263 C269 1.253 . S
O264 Mg260 2.117 . S
O264 C270 1.250 . S
C265 O271 1.248 . S
C265 O272 1.264 . S
C266 O252 1.253 . S
C266 O254 1.260 . S
C267 O256 1.279 1_455 S
C267 O257 1.250 . S
C268 O258 1.264 . S
C268 O262 1.248 . S
C269 O259 1.260 . S
C269 O263 1.253 . S
C270 O261 1.279 . S
C270 O264 1.250 . S
O271 Mg253 2.030 . S
O271 C265 1.248 . S
O272 Mg255 2.079 . S
O272 C265 1.264 . S
O273 Mg274 1.990 . S
O273 C287 1.253 . S
Mg274 O273 1.990 . S
Mg274 O277 2.180 . S
Mg274 O278 2.117 . S
Mg274 O292 2.030 . S
O275 Mg276 2.072 . S
O275 C287 1.260 . S
Mg276 O275 2.072 . S
Mg276 O277 2.099 . S
Mg276 O279 2.079 . S
Mg276 O280 2.072 . S
Mg276 O282 2.099 . S
Mg276 O293 2.079 . S
O277 Mg274 2.180 . S
O277 Mg276 2.099 . S
O277 C288 1.279 . S
O278 Mg274 2.117 . S
O278 C288 1.250 . S
O279 Mg276 2.079 . S
O279 C289 1.264 . S
O280 Mg276 2.072 . S
O280 C290 1.260 . S
Mg281 O282 2.180 . S
Mg281 O283 2.030 . S
Mg281 O284 1.990 . S
Mg281 O285 2.117 . S
O282 Mg276 2.099 . S
O282 Mg281 2.180 . S
O282 C291 1.279 . S
O283 Mg281 2.030 . S
O283 C289 1.248 . S
O284 Mg281 1.990 . S
O284 C290 1.253 . S
O285 Mg281 2.117 . S
O285 C291 1.250 . S
C286 O292 1.248 . S
C286 O293 1.264 . S
C287 O273 1.253 . S
C287 O275 1.260 . S
C288 O277 1.279 . S
C288 O278 1.250 . S
C289 O279 1.264 . S
C289 O283 1.248 . S
C290 O280 1.260 . S
C290 O284 1.253 . S
C291 O282 1.279 . S
C291 O285 1.250 . S
O292 Mg274 2.030 . S
O292 C286 1.248 . S
O293 Mg276 2.079 . S
O293 C286 1.264 . S
O294 Mg295 1.990 . S
O294 C308 1.253 . S
Mg295 O294 1.990 . S
Mg295 O298 2.180 1_556 S
Mg295 O299 2.117 1_556 S
Mg295 O313 2.030 . S
O296 Mg297 2.072 1_556 S
O296 C308 1.260 . S
Mg297 O296 2.072 1_554 S
Mg297 O298 2.099 . S
Mg297 O300 2.079 . S
Mg297 O301 2.072 . S
Mg297 O303 2.099 . S
Mg297 O314 2.079 1_554 S
O298 Mg295 2.180 1_554 S
O298 Mg297 2.099 . S
O298 C309 1.279 . S
O299 Mg295 2.117 1_554 S
O299 C309 1.250 . S
O300 Mg297 2.079 . S
O300 C310 1.264 . S
O301 Mg297 2.072 . S
O301 C311 1.260 . S
Mg302 O303 2.180 . S
Mg302 O304 2.030 . S
Mg302 O305 1.990 . S
Mg302 O306 2.117 . S
O303 Mg297 2.099 . S
O303 Mg302 2.180 . S
O303 C312 1.279 . S
O304 Mg302 2.030 . S
O304 C310 1.248 . S
O305 Mg302 1.990 . S
O305 C311 1.253 . S
O306 Mg302 2.117 . S
O306 C312 1.250 . S
C307 O313 1.248 . S
C307 O314 1.264 . S
C308 O294 1.253 . S
C308 O296 1.260 . S
C309 O298 1.279 . S
C309 O299 1.250 . S
C310 O300 1.264 . S
C310 O304 1.248 . S
C311 O301 1.260 . S
C311 O305 1.253 . S
C312 O303 1.279 . S
C312 O306 1.250 . S
O313 Mg295 2.030 . S
O313 C307 1.248 . S
O314 Mg297 2.079 1_556 S
O314 C307 1.264 . S
O315 Mg316 1.990 . S
O315 C329 1.253 . S
Mg316 O315 1.990 . S
Mg316 O319 2.180 . S
Mg316 O320 2.117 . S
Mg316 O334 2.030 . S
O317 Mg318 2.072 . S
O317 C329 1.260 . S
Mg318 O317 2.072 . S
Mg318 O319 2.099 . S
Mg318 O321 2.079 . S
Mg318 O322 2.072 . S
Mg318 O324 2.099 . S
Mg318 O335 2.079 . S
O319 Mg316 2.180 . S
O319 Mg318 2.099 . S
O319 C330 1.279 . S
O320 Mg316 2.117 . S
O320 C330 1.250 . S
O321 Mg318 2.079 . S
O321 C331 1.264 1_556 S
O322 Mg318 2.072 . S
O322 C332 1.260 1_556 S
Mg323 O324 2.180 1_554 S
Mg323 O325 2.030 . S
Mg323 O326 1.990 . S
Mg323 O327 2.117 1_554 S
O324 Mg318 2.099 . S
O324 Mg323 2.180 1_556 S
O324 C333 1.279 . S
O325 Mg323 2.030 . S
O325 C331 1.248 . S
O326 Mg323 1.990 . S
O326 C332 1.253 . S
O327 Mg323 2.117 1_556 S
O327 C333 1.250 . S
C328 O334 1.248 . S
C328 O335 1.264 . S
C329 O315 1.253 . S
C329 O317 1.260 . S
C330 O319 1.279 . S
C330 O320 1.250 . S
C331 O321 1.264 1_554 S
C331 O325 1.248 . S
C332 O322 1.260 1_554 S
C332 O326 1.253 . S
C333 O324 1.279 . S
C333 O327 1.250 . S
O334 Mg316 2.030 . S
O334 C328 1.248 . S
O335 Mg318 2.079 . S
O335 C328 1.264 . S
O336 Mg337 1.990 . S
O336 C350 1.253 . S
Mg337 O336 1.990 . S
Mg337 O340 2.180 . S
Mg337 O341 2.117 . S
Mg337 O355 2.030 . S
O338 Mg339 2.072 . S
O338 C350 1.260 . S
Mg339 O338 2.072 . S
Mg339 O340 2.099 . S
Mg339 O342 2.079 . S
Mg339 O343 2.072 . S
Mg339 O345 2.099 . S
Mg339 O356 2.079 . S
O340 Mg337 2.180 . S
O340 Mg339 2.099 . S
O340 C351 1.279 . S
O341 Mg337 2.117 . S
O341 C351 1.250 . S
O342 Mg339 2.079 . S
O342 C352 1.264 . S
O343 Mg339 2.072 . S
O343 C353 1.260 . S
Mg344 O345 2.180 . S
Mg344 O346 2.030 . S
Mg344 O347 1.990 . S
Mg344 O348 2.117 1_565 S
O345 Mg339 2.099 . S
O345 Mg344 2.180 . S
O345 C354 1.279 1_565 S
O346 Mg344 2.030 . S
O346 C352 1.248 . S
O347 Mg344 1.990 . S
O347 C353 1.253 . S
O348 Mg344 2.117 1_545 S
O348 C354 1.250 . S
C349 O355 1.248 . S
C349 O356 1.264 . S
C350 O336 1.253 . S
C350 O338 1.260 . S
C351 O340 1.279 . S
C351 O341 1.250 . S
C352 O342 1.264 . S
C352 O346 1.248 . S
C353 O343 1.260 . S
C353 O347 1.253 . S
C354 O345 1.279 1_545 S
C354 O348 1.250 . S
O355 Mg337 2.030 . S
O355 C349 1.248 . S
O356 Mg339 2.079 . S
O356 C349 1.264 . S
O357 Mg358 1.990 . S
O357 C371 1.253 . S
Mg358 O357 1.990 . S
Mg358 O361 2.180 . S
Mg358 O362 2.117 . S
Mg358 O376 2.030 . S
O359 Mg360 2.072 . S
O359 C371 1.260 . S
Mg360 O359 2.072 . S
Mg360 O361 2.099 . S
Mg360 O363 2.079 . S
Mg360 O364 2.072 . S
Mg360 O366 2.099 . S
Mg360 O377 2.079 . S
O361 Mg358 2.180 . S
O361 Mg360 2.099 . S
O361 C372 1.279 . S
O362 Mg358 2.117 . S
O362 C372 1.250 . S
O363 Mg360 2.079 . S
O363 C373 1.264 1_556 S
O364 Mg360 2.072 . S
O364 C374 1.260 1_556 S
Mg365 O366 2.180 1_554 S
Mg365 O367 2.030 . S
Mg365 O368 1.990 . S
Mg365 O369 2.117 1_554 S
O366 Mg360 2.099 . S
O366 Mg365 2.180 1_556 S
O366 C375 1.279 . S
O367 Mg365 2.030 . S
O367 C373 1.248 . S
O368 Mg365 1.990 . S
O368 C374 1.253 . S
O369 Mg365 2.117 1_556 S
O369 C375 1.250 . S
C370 O376 1.248 . S
C370 O377 1.264 . S
C371 O357 1.253 . S
C371 O359 1.260 . S
C372 O361 1.279 . S
C372 O362 1.250 . S
C373 O363 1.264 1_554 S
C373 O367 1.248 . S
C374 O364 1.260 1_554 S
C374 O368 1.253 . S
C375 O366 1.279 . S
C375 O369 1.250 . S
O376 Mg358 2.030 . S
O376 C370 1.248 . S
O377 Mg360 2.079 . S
O377 C370 1.264 . S
O378 Mg379 1.990 . S
O378 C392 1.253 . S
Mg379 O378 1.990 . S
Mg379 O382 2.180 1_556 S
Mg379 O383 2.117 1_556 S
Mg379 O397 2.030 . S
O380 Mg381 2.072 1_556 S
O380 C392 1.260 . S
Mg381 O380 2.072 1_554 S
Mg381 O382 2.099 . S
Mg381 O384 2.079 . S
Mg381 O385 2.072 . S
Mg381 O387 2.099 . S
Mg381 O398 2.079 1_554 S
O382 Mg379 2.180 1_554 S
O382 Mg381 2.099 . S
O382 C393 1.279 . S
O383 Mg379 2.117 1_554 S
O383 C393 1.250 . S
O384 Mg381 2.079 . S
O384 C394 1.264 . S
O385 Mg381 2.072 . S
O385 C395 1.260 . S
Mg386 O387 2.180 . S
Mg386 O388 2.030 . S
Mg386 O389 1.990 1_655 S
Mg386 O390 2.117 1_645 S
O387 Mg381 2.099 . S
O387 Mg386 2.180 . S
O387 C396 1.279 1_645 S
O388 Mg386 2.030 . S
O388 C394 1.248 . S
O389 Mg386 1.990 1_455 S
O389 C395 1.253 1_455 S
O390 Mg386 2.117 1_465 S
O390 C396 1.250 . S
C391 O397 1.248 . S
C391 O398 1.264 . S
C392 O378 1.253 . S
C392 O380 1.260 . S
C393 O382 1.279 . S
C393 O383 1.250 . S
C394 O384 1.264 . S
C394 O388 1.248 . S
C395 O385 1.260 . S
C395 O389 1.253 1_655 S
C396 O387 1.279 1_465 S
C396 O390 1.250 . S
O397 Mg379 2.030 . S
O397 C391 1.248 . S
O398 Mg381 2.079 1_556 S
O398 C391 1.264 . S
O399 Mg400 1.990 . S
O399 C413 1.253 . S
Mg400 O399 1.990 . S
Mg400 O403 2.180 . S
Mg400 O404 2.117 . S
Mg400 O418 2.030 . S
O401 Mg402 2.072 . S
O401 C413 1.260 . S
Mg402 O401 2.072 . S
Mg402 O403 2.099 . S
Mg402 O405 2.079 . S
Mg402 O406 2.072 . S
Mg402 O408 2.099 . S
Mg402 O419 2.079 . S
O403 Mg400 2.180 . S
O403 Mg402 2.099 . S
O403 C414 1.279 . S
O404 Mg400 2.117 . S
O404 C414 1.250 . S
O405 Mg402 2.079 . S
O405 C415 1.264 . S
O406 Mg402 2.072 . S
O406 C416 1.260 . S
Mg407 O408 2.180 . S
Mg407 O409 2.030 . S
Mg407 O410 1.990 . S
Mg407 O411 2.117 . S
O408 Mg402 2.099 . S
O408 Mg407 2.180 . S
O408 C417 1.279 . S
O409 Mg407 2.030 . S
O409 C415 1.248 . S
O410 Mg407 1.990 . S
O410 C416 1.253 . S
O411 Mg407 2.117 . S
O411 C417 1.250 . S
C412 O418 1.248 . S
C412 O419 1.264 . S
C413 O399 1.253 . S
C413 O401 1.260 . S
C414 O403 1.279 . S
C414 O404 1.250 . S
C415 O405 1.264 . S
C415 O409 1.248 . S
C416 O406 1.260 . S
C416 O410 1.253 . S
C417 O408 1.279 . S
C417 O411 1.250 . S
O418 Mg400 2.030 . S
O418 C412 1.248 . S
O419 Mg402 2.079 . S
O419 C412 1.264 . S
O420 Mg421 1.990 . S
O420 C434 1.253 . S
Mg421 O420 1.990 . S
Mg421 O424 2.180 . S
Mg421 O425 2.117 . S
Mg421 O439 2.030 . S
O422 Mg423 2.072 . S
O422 C434 1.260 . S
Mg423 O422 2.072 . S
Mg423 O424 2.099 . S
Mg423 O426 2.079 1_554 S
Mg423 O427 2.072 1_554 S
Mg423 O429 2.099 . S
Mg423 O440 2.079 . S
O424 Mg421 2.180 . S
O424 Mg423 2.099 . S
O424 C435 1.279 . S
O425 Mg421 2.117 . S
O425 C435 1.250 . S
O426 Mg423 2.079 1_556 S
O426 C436 1.264 . S
O427 Mg423 2.072 1_556 S
O427 C437 1.260 . S
Mg428 O429 2.180 1_556 S
Mg428 O430 2.030 . S
Mg428 O431 1.990 . S
Mg428 O432 2.117 1_545 S
O429 Mg423 2.099 . S
O429 Mg428 2.180 1_554 S
O429 C438 1.279 1_545 S
O430 Mg428 2.030 . S
O430 C436 1.248 . S
O431 Mg428 1.990 . S
O431 C437 1.253 . S
O432 Mg428 2.117 1_565 S
O432 C438 1.250 1_556 S
C433 O439 1.248 . S
C433 O440 1.264 . S
C434 O420 1.253 . S
C434 O422 1.260 . S
C435 O424 1.279 . S
C435 O425 1.250 . S
C436 O426 1.264 . S
C436 O430 1.248 . S
C437 O427 1.260 . S
C437 O431 1.253 . S
C438 O429 1.279 1_565 S
C438 O432 1.250 1_554 S
O439 Mg421 2.030 . S
O439 C433 1.248 . S
O440 Mg423 2.079 . S
O440 C433 1.264 . S
O441 Mg442 1.990 . S
O441 C455 1.253 . S
Mg442 O441 1.990 . S
Mg442 O445 2.180 . S
Mg442 O446 2.117 . S
Mg442 O460 2.030 . S
O443 Mg444 2.072 . S
O443 C455 1.260 . S
Mg444 O443 2.072 . S
Mg444 O445 2.099 . S
Mg444 O447 2.079 . S
Mg444 O448 2.072 . S
Mg444 O450 2.099 . S
Mg444 O461 2.079 . S
O445 Mg442 2.180 . S
O445 Mg444 2.099 . S
O445 C456 1.279 . S
O446 Mg442 2.117 . S
O446 C456 1.250 . S
O447 Mg444 2.079 . S
O447 C457 1.264 . S
O448 Mg444 2.072 . S
O448 C458 1.260 . S
Mg449 O450 2.180 . S
Mg449 O451 2.030 . S
Mg449 O452 1.990 . S
Mg449 O453 2.117 . S
O450 Mg444 2.099 . S
O450 Mg449 2.180 . S
O450 C459 1.279 . S
O451 Mg449 2.030 . S
O451 C457 1.248 . S
O452 Mg449 1.990 . S
O452 C458 1.253 . S
O453 Mg449 2.117 . S
O453 C459 1.250 . S
C454 O460 1.248 . S
C454 O461 1.264 . S
C455 O441 1.253 . S
C455 O443 1.260 . S
C456 O445 1.279 . S
C456 O446 1.250 . S
C457 O447 1.264 . S
C457 O451 1.248 . S
C458 O448 1.260 . S
C458 O452 1.253 . S
C459 O450 1.279 . S
C459 O453 1.250 . S
O460 Mg442 2.030 . S
O460 C454 1.248 . S
O461 Mg444 2.079 . S
O461 C454 1.264 . S
O462 Mg463 1.990 . S
O462 C476 1.253 . S
Mg463 O462 1.990 . S
Mg463 O466 2.180 . S
Mg463 O467 2.117 . S
Mg463 O481 2.030 . S
O464 Mg465 2.072 . S
O464 C476 1.260 . S
Mg465 O464 2.072 . S
Mg465 O466 2.099 . S
Mg465 O468 2.079 . S
Mg465 O469 2.072 . S
Mg465 O471 2.099 . S
Mg465 O482 2.079 . S
O466 Mg463 2.180 . S
O466 Mg465 2.099 . S
O466 C477 1.279 . S
O467 Mg463 2.117 . S
O467 C477 1.250 . S
O468 Mg465 2.079 . S
O468 C478 1.264 . S
O469 Mg465 2.072 . S
O469 C479 1.260 . S
Mg470 O471 2.180 . S
Mg470 O472 2.030 . S
Mg470 O473 1.990 1_655 S
Mg470 O474 2.117 1_665 S
O471 Mg465 2.099 . S
O471 Mg470 2.180 . S
O471 C480 1.279 1_665 S
O472 Mg470 2.030 . S
O472 C478 1.248 . S
O473 Mg470 1.990 1_455 S
O473 C479 1.253 1_455 S
O474 Mg470 2.117 1_445 S
O474 C480 1.250 . S
C475 O481 1.248 . S
C475 O482 1.264 . S
C476 O462 1.253 . S
C476 O464 1.260 . S
C477 O466 1.279 . S
C477 O467 1.250 . S
C478 O468 1.264 . S
C478 O472 1.248 . S
C479 O469 1.260 . S
C479 O473 1.253 1_655 S
C480 O471 1.279 1_445 S
C480 O474 1.250 . S
O481 Mg463 2.030 . S
O481 C475 1.248 . S
O482 Mg465 2.079 . S
O482 C475 1.264 . S
O483 Mg484 1.990 . S
O483 C497 1.253 . S
Mg484 O483 1.990 . S
Mg484 O487 2.176 1_554 S
Mg484 O488 2.114 1_554 S
Mg484 O502 2.032 . S
O485 Mg486 2.072 . S
O485 C497 1.260 1_556 S
Mg486 O485 2.072 . S
Mg486 O487 2.099 . S
Mg486 O489 2.079 . S
Mg486 O490 2.072 . S
Mg486 O492 2.099 . S
Mg486 O503 2.079 . S
O487 Mg484 2.176 1_556 S
O487 Mg486 2.099 . S
O487 C498 1.279 . S
O488 Mg484 2.114 1_556 S
O488 C498 1.250 . S
O489 Mg486 2.079 . S
O489 C499 1.264 . S
O490 Mg486 2.072 . S
O490 C500 1.260 . S
Mg491 O492 2.180 . S
Mg491 O493 2.030 . S
Mg491 O494 1.990 . S
Mg491 O495 2.117 . S
O492 Mg486 2.099 . S
O492 Mg491 2.180 . S
O492 C501 1.279 . S
O493 Mg491 2.030 . S
O493 C499 1.248 . S
O494 Mg491 1.990 . S
O494 C500 1.253 . S
O495 Mg491 2.117 . S
O495 C501 1.250 . S
C496 O502 1.248 . S
C496 O503 1.264 1_554 S
C497 O483 1.253 . S
C497 O485 1.260 1_554 S
C498 O487 1.279 . S
C498 O488 1.250 . S
C499 O489 1.264 . S
C499 O493 1.248 . S
C500 O490 1.260 . S
C500 O494 1.253 . S
C501 O492 1.279 . S
C501 O495 1.250 . S
O502 Mg484 2.032 . S
O502 C496 1.248 . S
O503 Mg486 2.079 . S
O503 C496 1.264 1_556 S
O504 Mg505 1.990 . S
O504 C518 1.253 1_565 S
Mg505 O504 1.990 . S
Mg505 O508 2.180 1_565 S
Mg505 O509 2.117 . S
Mg505 O523 2.030 1_565 S
O506 Mg507 2.072 . S
O506 C518 1.260 . S
Mg507 O506 2.072 . S
Mg507 O508 2.099 . S
Mg507 O510 2.079 . S
Mg507 O511 2.072 . S
Mg507 O513 2.099 . S
Mg507 O524 2.079 . S
O508 Mg505 2.180 1_545 S
O508 Mg507 2.099 . S
O508 C519 1.279 1_545 S
O509 Mg505 2.117 . S
O509 C519 1.250 . S
O510 Mg507 2.079 . S
O510 C520 1.264 . S
O511 Mg507 2.072 . S
O511 C521 1.260 . S
Mg512 O513 2.180 . S
Mg512 O514 2.030 . S
Mg512 O515 1.990 . S
Mg512 O516 2.117 . S
O513 Mg507 2.099 . S
O513 Mg512 2.180 . S
O513 C522 1.279 . S
O514 Mg512 2.030 . S
O514 C520 1.248 . S
O515 Mg512 1.990 . S
O515 C521 1.253 . S
O516 Mg512 2.117 . S
O516 C522 1.250 . S
C517 O523 1.248 . S
C517 O524 1.264 . S
C518 O504 1.253 1_545 S
C518 O506 1.260 . S
C519 O508 1.279 1_565 S
C519 O509 1.250 . S
C520 O510 1.264 . S
C520 O514 1.248 . S
C521 O511 1.260 . S
C521 O515 1.253 . S
C522 O513 1.279 . S
C522 O516 1.250 . S
O523 Mg505 2.030 1_545 S
O523 C517 1.248 . S
O524 Mg507 2.079 . S
O524 C517 1.264 . S
O525 Mg526 1.990 . S
O525 C539 1.253 . S
Mg526 O525 1.990 . S
Mg526 O529 2.180 . S
Mg526 O530 2.117 . S
Mg526 O544 2.030 . S
O527 Mg528 2.072 . S
O527 C539 1.260 . S
Mg528 O527 2.072 . S
Mg528 O529 2.099 . S
Mg528 O531 2.079 . S
Mg528 O532 2.072 . S
Mg528 O534 2.099 . S
Mg528 O545 2.079 . S
O529 Mg526 2.180 . S
O529 Mg528 2.099 . S
O529 C540 1.279 . S
O530 Mg526 2.117 . S
O530 C540 1.250 . S
O531 Mg528 2.079 . S
O531 C541 1.264 . S
O532 Mg528 2.072 . S
O532 C542 1.260 . S
Mg533 O534 2.180 . S
Mg533 O535 2.030 . S
Mg533 O536 1.990 . S
Mg533 O537 2.117 . S
O534 Mg528 2.099 . S
O534 Mg533 2.180 . S
O534 C543 1.279 . S
O535 Mg533 2.030 . S
O535 C541 1.248 . S
O536 Mg533 1.990 . S
O536 C542 1.253 . S
O537 Mg533 2.117 . S
O537 C543 1.250 . S
C538 O544 1.248 . S
C538 O545 1.264 . S
C539 O525 1.253 . S
C539 O527 1.260 . S
C540 O529 1.279 . S
C540 O530 1.250 . S
C541 O531 1.264 . S
C541 O535 1.248 . S
C542 O532 1.260 . S
C542 O536 1.253 . S
C543 O534 1.279 . S
C543 O537 1.250 . S
O544 Mg526 2.030 . S
O544 C538 1.248 . S
O545 Mg528 2.079 . S
O545 C538 1.264 . S
O546 Mg547 1.990 . S
O546 C560 1.253 . S
Mg547 O546 1.990 . S
Mg547 O550 2.180 . S
Mg547 O551 2.117 . S
Mg547 O565 2.030 . S
O548 Mg549 2.072 . S
O548 C560 1.260 . S
Mg549 O548 2.072 . S
Mg549 O550 2.099 . S
Mg549 O552 2.079 1_554 S
Mg549 O553 2.072 1_554 S
Mg549 O555 2.099 . S
Mg549 O566 2.079 . S
O550 Mg547 2.180 . S
O550 Mg549 2.099 . S
O550 C561 1.279 . S
O551 Mg547 2.117 . S
O551 C561 1.250 . S
O552 Mg549 2.079 1_556 S
O552 C562 1.264 . S
O553 Mg549 2.072 1_556 S
O553 C563 1.260 . S
Mg554 O555 2.180 1_546 S
Mg554 O556 2.030 1_545 S
Mg554 O557 1.990 . S
Mg554 O558 2.117 1_455 S
O555 Mg549 2.099 . S
O555 Mg554 2.180 1_564 S
O555 C564 1.279 1_465 S
O556 Mg554 2.030 1_565 S
O556 C562 1.248 . S
O557 Mg554 1.990 . S
O557 C563 1.253 1_545 S
O558 Mg554 2.117 1_655 S
O558 C564 1.250 1_556 S
C559 O565 1.248 . S
C559 O566 1.264 . S
C560 O546 1.253 . S
C560 O548 1.260 . S
C561 O550 1.279 . S
C561 O551 1.250 . S
C562 O552 1.264 . S
C562 O556 1.248 . S
C563 O553 1.260 . S
C563 O557 1.253 1_565 S
C564 O555 1.279 1_645 S
C564 O558 1.250 1_554 S
O565 Mg547 2.030 . S
O565 C559 1.248 . S
O566 Mg549 2.079 . S
O566 C559 1.264 . S
O567 Mg568 1.990 1_554 S
O567 C581 1.253 . S
Mg568 O567 1.990 1_556 S
Mg568 O571 2.181 . S
Mg568 O572 2.117 . S
Mg568 O586 2.030 1_556 S
O569 Mg570 2.072 . S
O569 C581 1.260 1_556 S
Mg570 O569 2.072 . S
Mg570 O571 2.099 . S
Mg570 O573 2.079 . S
Mg570 O574 2.072 . S
Mg570 O576 2.099 . S
Mg570 O587 2.079 . S
O571 Mg568 2.181 . S
O571 Mg570 2.099 . S
O571 C582 1.279 . S
O572 Mg568 2.117 . S
O572 C582 1.250 . S
O573 Mg570 2.079 . S
O573 C583 1.264 . S
O574 Mg570 2.072 . S
O574 C584 1.260 . S
Mg575 O576 2.180 . S
Mg575 O577 2.030 . S
Mg575 O578 1.990 . S
Mg575 O579 2.117 . S
O576 Mg570 2.099 . S
O576 Mg575 2.180 . S
O576 C585 1.279 . S
O577 Mg575 2.030 . S
O577 C583 1.248 . S
O578 Mg575 1.990 . S
O578 C584 1.253 . S
O579 Mg575 2.117 . S
O579 C585 1.250 . S
C580 O586 1.248 . S
C580 O587 1.264 1_554 S
C581 O567 1.253 . S
C581 O569 1.260 1_554 S
C582 O571 1.279 . S
C582 O572 1.250 . S
C583 O573 1.264 . S
C583 O577 1.248 . S
C584 O574 1.260 . S
C584 O578 1.253 . S
C585 O576 1.279 . S
C585 O579 1.250 . S
O586 Mg568 2.030 1_554 S
O586 C580 1.248 . S
O587 Mg570 2.079 . S
O587 C580 1.264 1_556 S
O588 Mg589 1.990 . S
O588 C602 1.253 1_545 S
Mg589 O588 1.990 . S
Mg589 O592 2.180 1_545 S
Mg589 O593 2.117 . S
Mg589 O607 2.030 1_545 S
O590 Mg591 2.072 . S
O590 C602 1.260 . S
Mg591 O590 2.072 . S
Mg591 O592 2.099 . S
Mg591 O594 2.079 1_554 S
Mg591 O595 2.072 1_554 S
Mg591 O597 2.099 . S
Mg591 O608 2.079 . S
O592 Mg589 2.180 1_565 S
O592 Mg591 2.099 . S
O592 C603 1.279 1_565 S
O593 Mg589 2.117 . S
O593 C603 1.250 . S
O594 Mg591 2.079 1_556 S
O594 C604 1.264 . S
O595 Mg591 2.072 1_556 S
O595 C605 1.260 . S
Mg596 O597 2.180 1_556 S
Mg596 O598 2.030 . S
Mg596 O599 1.990 . S
Mg596 O600 2.117 1_556 S
O597 Mg591 2.099 . S
O597 Mg596 2.180 1_554 S
O597 C606 1.279 . S
O598 Mg596 2.030 . S
O598 C604 1.248 . S
O599 Mg596 1.990 . S
O599 C605 1.253 . S
O600 Mg596 2.117 1_554 S
O600 C606 1.250 . S
C601 O607 1.248 . S
C601 O608 1.264 . S
C602 O588 1.253 1_565 S
C602 O590 1.260 . S
C603 O592 1.279 1_545 S
C603 O593 1.250 . S
C604 O594 1.264 . S
C604 O598 1.248 . S
C605 O595 1.260 . S
C605 O599 1.253 . S
C606 O597 1.279 . S
C606 O600 1.250 . S
O607 Mg589 2.030 1_565 S
O607 C601 1.248 . S
O608 Mg591 2.079 . S
O608 C601 1.264 . S
O609 Mg610 1.990 . S
O609 C623 1.253 . S
Mg610 O609 1.990 . S
Mg610 O613 2.180 . S
Mg610 O614 2.117 . S
Mg610 O628 2.030 . S
O611 Mg612 2.072 . S
O611 C623 1.260 . S
Mg612 O611 2.072 . S
Mg612 O613 2.099 . S
Mg612 O615 2.079 . S
Mg612 O616 2.072 . S
Mg612 O618 2.099 . S
Mg612 O629 2.079 . S
O613 Mg610 2.180 . S
O613 Mg612 2.099 . S
O613 C624 1.279 . S
O614 Mg610 2.117 . S
O614 C624 1.250 . S
O615 Mg612 2.079 . S
O615 C625 1.264 1_556 S
O616 Mg612 2.072 . S
O616 C626 1.260 1_556 S
Mg617 O618 2.180 1_554 S
Mg617 O619 2.030 . S
Mg617 O620 1.990 . S
Mg617 O621 2.117 1_554 S
O618 Mg612 2.099 . S
O618 Mg617 2.180 1_556 S
O618 C627 1.279 . S
O619 Mg617 2.030 . S
O619 C625 1.248 . S
O620 Mg617 1.990 . S
O620 C626 1.253 . S
O621 Mg617 2.117 1_556 S
O621 C627 1.250 . S
C622 O628 1.248 . S
C622 O629 1.264 . S
C623 O609 1.253 . S
C623 O611 1.260 . S
C624 O613 1.279 . S
C624 O614 1.250 . S
C625 O615 1.264 1_554 S
C625 O619 1.248 . S
C626 O616 1.260 1_554 S
C626 O620 1.253 . S
C627 O618 1.279 . S
C627 O621 1.250 . S
O628 Mg610 2.030 . S
O628 C622 1.248 . S
O629 Mg612 2.079 . S
O629 C622 1.264 . S
O630 Mg631 1.990 . S
O630 C644 1.253 . S
Mg631 O630 1.990 . S
Mg631 O634 2.180 . S
Mg631 O635 2.117 . S
Mg631 O649 2.030 . S
O632 Mg633 2.072 . S
O632 C644 1.260 . S
Mg633 O632 2.072 . S
Mg633 O634 2.099 . S
Mg633 O636 2.079 . S
Mg633 O637 2.072 . S
Mg633 O639 2.099 . S
Mg633 O650 2.079 . S
O634 Mg631 2.180 . S
O634 Mg633 2.099 . S
O634 C645 1.279 . S
O635 Mg631 2.117 . S
O635 C645 1.250 . S
O636 Mg633 2.079 . S
O636 C646 1.264 . S
O637 Mg633 2.072 . S
O637 C647 1.260 . S
Mg638 O639 2.180 1_565 S
Mg638 O640 2.030 1_565 S
Mg638 O641 1.990 . S
Mg638 O642 2.117 1_455 S
O639 Mg633 2.099 . S
O639 Mg638 2.180 1_545 S
O639 C648 1.279 1_445 S
O640 Mg638 2.030 1_545 S
O640 C646 1.248 . S
O641 Mg638 1.990 . S
O641 C647 1.253 1_565 S
O642 Mg638 2.117 1_655 S
O642 C648 1.250 . S
C643 O649 1.248 . S
C643 O650 1.264 . S
C644 O630 1.253 . S
C644 O632 1.260 . S
C645 O634 1.279 . S
C645 O635 1.250 . S
C646 O636 1.264 . S
C646 O640 1.248 . S
C647 O637 1.260 . S
C647 O641 1.253 1_545 S
C648 O639 1.279 1_665 S
C648 O642 1.250 . S
O649 Mg631 2.030 . S
O649 C643 1.248 . S
O650 Mg633 2.079 . S
O650 C643 1.264 . S
O651 Mg652 1.990 . S
O651 C665 1.253 . S
Mg652 O651 1.990 . S
Mg652 O655 2.180 . S
Mg652 O656 2.117 . S
Mg652 O670 2.030 . S
O653 Mg654 2.072 . S
O653 C665 1.260 . S
Mg654 O653 2.072 . S
Mg654 O655 2.099 . S
Mg654 O657 2.079 . S
Mg654 O658 2.072 . S
Mg654 O660 2.099 . S
Mg654 O671 2.079 . S
O655 Mg652 2.180 . S
O655 Mg654 2.099 . S
O655 C666 1.279 . S
O656 Mg652 2.117 . S
O656 C666 1.250 . S
O657 Mg654 2.079 . S
O657 C667 1.264 . S
O658 Mg654 2.072 . S
O658 C668 1.260 . S
Mg659 O660 2.180 . S
Mg659 O661 2.030 . S
Mg659 O662 1.990 . S
Mg659 O663 2.117 . S
O660 Mg654 2.099 . S
O660 Mg659 2.180 . S
O660 C669 1.279 . S
O661 Mg659 2.030 . S
O661 C667 1.248 . S
O662 Mg659 1.990 . S
O662 C668 1.253 . S
O663 Mg659 2.117 . S
O663 C669 1.250 . S
C664 O670 1.248 . S
C664 O671 1.264 . S
C665 O651 1.253 . S
C665 O653 1.260 . S
C666 O655 1.279 . S
C666 O656 1.250 . S
C667 O657 1.264 . S
C667 O661 1.248 . S
C668 O658 1.260 . S
C668 O662 1.253 . S
C669 O660 1.279 . S
C669 O663 1.250 . S
O670 Mg652 2.030 . S
O670 C664 1.248 . S
O671 Mg654 2.079 . S
O671 C664 1.264 . S
C16 C100 0.689 . S
C118 C37 0.689 . S
C58 C142 0.689 . S
C163 C76 0.689 . S
C182 C266 0.935 . S
C206 C290 0.935 . S
C311 C227 0.935 . S
C248 C332 0.935 . S
C436 C352 0.689 1_545 S
C373 C454 0.689 . S
C394 C478 0.689 1_545 S
C412 C499 0.689 . S
C518 C602 0.935 1_545 S
C626 C542 0.935 . S
C563 C647 0.935 1_565 S
C668 C584 0.935 . S
C459 C15 2.361 . S
C477 C36 2.361 . S
C498 C57 2.361 . S
C81 C435 2.361 1_556 S
C99 C417 2.361 . S
C351 C123 2.361 . S
C141 C372 2.361 1_554 S
C162 C393 2.361 . S
C186 C624 2.340 1_554 S
C645 C204 2.341 . S
C666 C225 2.341 . S
C246 C606 2.340 . S
C270 C582 2.341 . S
C288 C522 2.341 . S
C309 C540 2.340 . S
C330 C561 2.340 1_556 S
C183 C18 0.957 1_455 S
C39 C543 0.956 . S
C228 C60 0.957 . S
C78 C585 0.956 . S
C267 C102 0.956 1_455 S
C627 C120 0.956 . S
C144 C312 0.956 . S
C165 C669 0.956 . S
C375 C207 0.956 . S
C414 C249 0.956 . S
C291 C456 0.956 . S
C501 C333 0.956 . S
C519 C354 0.957 1_565 S
C564 C396 0.957 1_645 S
C603 C438 0.956 1_545 S
C480 C648 0.956 1_445 S
C14 C265 1.668 1_455 S
C625 C35 1.668 . S
C310 C56 1.667 . S
C80 C667 1.668 . S
C181 C98 1.668 1_655 S
C541 C122 1.668 . S
C226 C140 1.668 . S
C583 C161 1.668 . S
C101 C184 1.680 1_455 S
C455 C202 1.680 . S
C143 C223 1.680 . S
C244 C500 1.680 . S
C17 C268 1.680 1_455 S
C374 C286 1.680 . S
C307 C59 1.680 . S
C328 C413 1.680 . S
C601 C350 1.667 . S
C289 C371 1.668 . S
C392 C646 1.668 1_655 S
C331 C416 1.668 . S
C434 C517 1.668 . S
C458 C205 1.668 . S
C562 C476 1.668 1_455 S
C247 C497 1.668 . S
C520 C437 1.680 . S
C538 C119 1.680 . S
C559 C479 1.680 1_455 S
C580 C164 1.680 . S
C353 C604 1.680 . S
C38 C622 1.680 . S
C643 C395 1.680 1_455 S
C77 C664 1.680 . S
C97 C13 2.174 . S
C121 C34 2.173 . S
C55 C139 2.174 . S
C160 C79 2.173 . S
C269 C185 2.364 . S
C203 C287 2.364 . S
C224 C308 2.364 . S
C329 C245 2.364 . S
C349 C433 2.174 1_565 S
C457 C370 2.173 . S
C391 C475 2.174 1_545 S
C415 C496 2.173 . S
C605 C521 2.364 1_565 S
C623 C539 2.364 . S
C560 C644 2.364 1_565 S
C665 C581 2.364 . S
