# Generated by pormake.
# Topology ske, (6)-cn, num edge types: 1
# Building blocks:
#     Node 0, Type 0, BuildingBlock: VOLQOD_clean_sbu_1, # of connection points: 6
#     Node 1, Type 0, BuildingBlock: VOLQOD_clean_sbu_1, # of connection points: 6
#     Node 2, Type 0, BuildingBlock: VOLQOD_clean_sbu_1, # of connection points: 6
#     Node 3, Type 0, BuildingBlock: VOLQOD_clean_sbu_1, # of connection points: 6
#     Node 4, Type 0, BuildingBlock: VOLQOD_clean_sbu_1, # of connection points: 6
#     Node 5, Type 0, BuildingBlock: VOLQOD_clean_sbu_1, # of connection points: 6
#     Node 6, Type 0, BuildingBlock: VOLQOD_clean_sbu_1, # of connection points: 6
#     Node 7, Type 0, BuildingBlock: VOLQOD_clean_sbu_1, # of connection points: 6
#     Edge 8, Type (0, 0), BuildingBlock: UVAHIK_clean_linker_0, # of connection points: 2
#     Edge 9, Type (0, 0), BuildingBlock: UVAHIK_clean_linker_0, # of connection points: 2
#     Edge 10, Type (0, 0), BuildingBlock: UVAHIK_clean_linker_0, # of connection points: 2
#     Edge 11, Type (0, 0), BuildingBlock: UVAHIK_clean_linker_0, # of connection points: 2
#     Edge 12, Type (0, 0), BuildingBlock: UVAHIK_clean_linker_0, # of connection points: 2
#     Edge 13, Type (0, 0), BuildingBlock: UVAHIK_clean_linker_0, # of connection points: 2
#     Edge 14, Type (0, 0), BuildingBlock: UVAHIK_clean_linker_0, # of connection points: 2
#     Edge 15, Type (0, 0), BuildingBlock: UVAHIK_clean_linker_0, # of connection points: 2
#     Edge 16, Type (0, 0), BuildingBlock: UVAHIK_clean_linker_0, # of connection points: 2
#     Edge 17, Type (0, 0), BuildingBlock: UVAHIK_clean_linker_0, # of connection points: 2
#     Edge 18, Type (0, 0), BuildingBlock: UVAHIK_clean_linker_0, # of connection points: 2
#     Edge 19, Type (0, 0), BuildingBlock: UVAHIK_clean_linker_0, # of connection points: 2
#     Edge 20, Type (0, 0), BuildingBlock: UVAHIK_clean_linker_0, # of connection points: 2
#     Edge 21, Type (0, 0), BuildingBlock: UVAHIK_clean_linker_0, # of connection points: 2
#     Edge 22, Type (0, 0), BuildingBlock: UVAHIK_clean_linker_0, # of connection points: 2
#     Edge 23, Type (0, 0), BuildingBlock: UVAHIK_clean_linker_0, # of connection points: 2
#     Edge 24, Type (0, 0), BuildingBlock: UVAHIK_clean_linker_0, # of connection points: 2
#     Edge 25, Type (0, 0), BuildingBlock: UVAHIK_clean_linker_0, # of connection points: 2
#     Edge 26, Type (0, 0), BuildingBlock: UVAHIK_clean_linker_0, # of connection points: 2
#     Edge 27, Type (0, 0), BuildingBlock: UVAHIK_clean_linker_0, # of connection points: 2
#     Edge 28, Type (0, 0), BuildingBlock: UVAHIK_clean_linker_0, # of connection points: 2
#     Edge 29, Type (0, 0), BuildingBlock: UVAHIK_clean_linker_0, # of connection points: 2
#     Edge 30, Type (0, 0), BuildingBlock: UVAHIK_clean_linker_0, # of connection points: 2
#     Edge 31, Type (0, 0), BuildingBlock: UVAHIK_clean_linker_0, # of connection points: 2
# Relax obj value: 0.030
# Max RMSD: 0.058
# Mean RMSD: 0.058
data_MOF--net-ske--node1-VOLQOD_clean_sbu_1--edge1-UVAHIK_clean_linker_0
_symmetry_space_group_name_H-M    P1
_symmetry_Int_Tables_number       1
_symmetry_cell_setting            triclinic
loop_
_symmetry_equiv_pos_as_xyz
'x, y, z'
_cell_length_a     83.617593
_cell_length_b     42.288809
_cell_length_c     21.451588
_cell_angle_alpha  89.905584
_cell_angle_beta   90.039355
_cell_angle_gamma 89.968834
loop_
_atom_site_label
_atom_site_type_symbol
_atom_site_fract_x
_atom_site_fract_y
_atom_site_fract_z
_atom_type_partial_charge
O0 O 0.11225 0.27 0.70072 0.0
Zn1 Zn 0.1097 0.27209 0.60752 0.0
O2 O 0.12238 0.23967 0.56695 0.0
Zn3 Zn 0.14065 0.25885 0.52436 0.0
Zn4 Zn 0.12912 0.20936 0.62932 0.0
Zn5 Zn 0.1094 0.21757 0.50738 0.0
O6 O 0.1398 0.25092 0.43128 0.0
O7 O 0.11621 0.22721 0.4211 0.0
O8 O 0.11647 0.31489 0.57896 0.0
O9 O 0.13972 0.30622 0.53187 0.0
O10 O 0.16143 0.24352 0.56206 0.0
O11 O 0.1528 0.21103 0.63645 0.0
O12 O 0.12299 0.16456 0.6088 0.0
O13 O 0.08631 0.26662 0.58834 0.0
O14 O 0.11117 0.17115 0.51725 0.0
O15 O 0.08637 0.22801 0.51828 0.0
C16 C 0.1158 0.24674 0.73582 0.0
C17 C 0.12875 0.23924 0.39748 0.0
C18 C 0.16411 0.22492 0.60776 0.0
C19 C 0.12896 0.32501 0.55164 0.0
C20 C 0.11631 0.15328 0.56042 0.0
C21 C 0.07894 0.24781 0.55206 0.0
O22 O 0.12093 0.22075 0.71373 0.0
O23 O 0.87504 0.21376 0.72321 0.0
Zn24 Zn 0.87729 0.21024 0.6304 0.0
O25 O 0.86429 0.24206 0.58933 0.0
Zn26 Zn 0.8464 0.22214 0.546 0.0
Zn27 Zn 0.85696 0.27254 0.65041 0.0
Zn28 Zn 0.87721 0.26434 0.53019 0.0
O29 O 0.84786 0.22867 0.45265 0.0
O30 O 0.87134 0.25291 0.444 0.0
O31 O 0.87044 0.16686 0.60538 0.0
O32 O 0.84724 0.17502 0.55738 0.0
O33 O 0.82536 0.23786 0.58003 0.0
O34 O 0.83327 0.26923 0.65735 0.0
O35 O 0.86182 0.31779 0.62651 0.0
O36 O 0.90066 0.21576 0.61019 0.0
O37 O 0.8739 0.31041 0.5358 0.0
O38 O 0.90034 0.25616 0.54391 0.0
C39 C 0.87117 0.23697 0.75779 0.0
C40 C 0.85909 0.2402 0.4196 0.0
C41 C 0.82226 0.25566 0.62639 0.0
C42 C 0.85788 0.15643 0.57893 0.0
C43 C 0.86807 0.32864 0.57682 0.0
C44 C 0.90791 0.23581 0.57611 0.0
O45 O 0.86551 0.2625 0.73525 0.0
O46 O 0.1136 0.71886 0.25971 0.0
Zn47 Zn 0.11009 0.70987 0.35043 0.0
O48 O 0.12303 0.73829 0.40071 0.0
Zn49 Zn 0.14094 0.7162 0.4391 0.0
Zn50 Zn 0.1309 0.77284 0.34972 0.0
Zn51 Zn 0.10974 0.75483 0.46589 0.0
O52 O 0.14034 0.71928 0.53314 0.0
O53 O 0.11566 0.73714 0.54855 0.0
O54 O 0.11655 0.66497 0.36754 0.0
O55 O 0.13946 0.67003 0.41949 0.0
O56 O 0.16203 0.7326 0.40815 0.0
O57 O 0.15482 0.77407 0.35122 0.0
O58 O 0.12297 0.81497 0.38034 0.0
O59 O 0.08646 0.71495 0.36759 0.0
O60 O 0.11186 0.80158 0.47068 0.0
O61 O 0.08672 0.74622 0.45035 0.0
C62 C 0.11951 0.74243 0.23081 0.0
C63 C 0.12869 0.72571 0.56917 0.0
C64 C 0.1656 0.75632 0.3743 0.0
C65 C 0.12887 0.65295 0.39334 0.0
C66 C 0.11649 0.82245 0.43199 0.0
C67 C 0.07912 0.73041 0.40969 0.0
O68 O 0.12562 0.76576 0.25973 0.0
O69 O 0.87328 0.77114 0.2686 0.0
Zn70 Zn 0.87658 0.77532 0.36075 0.0
O71 O 0.86381 0.74414 0.4045 0.0
Zn72 Zn 0.84551 0.7645 0.44437 0.0
Zn73 Zn 0.85692 0.71192 0.34615 0.0
Zn74 Zn 0.87692 0.72428 0.4666 0.0
O75 O 0.84585 0.75791 0.53796 0.0
O76 O 0.86968 0.73541 0.55125 0.0
O77 O 0.87019 0.81908 0.38634 0.0
O78 O 0.84677 0.81145 0.43297 0.0
O79 O 0.82474 0.74904 0.40728 0.0
O80 O 0.83312 0.71272 0.34008 0.0
O81 O 0.86308 0.66777 0.37265 0.0
O82 O 0.90014 0.7693 0.37783 0.0
O83 O 0.87515 0.67774 0.46245 0.0
O84 O 0.89996 0.73475 0.45571 0.0
C85 C 0.86951 0.74732 0.2355 0.0
C86 C 0.85686 0.7471 0.57313 0.0
C87 C 0.82189 0.72823 0.3658 0.0
C88 C 0.85761 0.82977 0.41229 0.0
C89 C 0.8698 0.65831 0.42257 0.0
C90 C 0.90752 0.7524 0.4178 0.0
O91 O 0.86467 0.72157 0.25989 0.0
O92 O 0.61606 0.76528 0.19381 0.0
Zn93 Zn 0.61267 0.77426 0.10315 0.0
O94 O 0.62475 0.74405 0.05394 0.0
Zn95 Zn 0.64272 0.76394 0.01267 0.0
Zn96 Zn 0.6322 0.70951 0.10551 0.0
Zn97 Zn 0.61092 0.72762 -0.00923 0.0
O98 O 0.64157 0.7585 0.91952 0.0
O99 O 0.61589 0.74629 0.90791 0.0
O100 O 0.62003 0.81856 0.08465 0.0
O101 O 0.64176 0.81052 0.02709 0.0
O102 O 0.66374 0.74782 0.04535 0.0
O103 O 0.65609 0.70846 0.1069 0.0
O104 O 0.62457 0.66738 0.07392 0.0
O105 O 0.5889 0.77033 0.08793 0.0
O106 O 0.61354 0.68108 0.98357 0.0
O107 O 0.58806 0.73487 0.01185 0.0
C108 C 0.62089 0.74083 0.22298 0.0
C109 C 0.62928 0.75474 0.8853 0.0
C110 C 0.66705 0.72523 0.08248 0.0
C111 C 0.63208 0.82904 0.05472 0.0
C112 C 0.61827 0.66008 0.02183 0.0
C113 C 0.58104 0.75263 0.05096 0.0
O114 O 0.62624 0.71663 0.19454 0.0
O115 O 0.37585 0.71657 0.23087 0.0
Zn116 Zn 0.37868 0.71205 0.13887 0.0
O117 O 0.36663 0.74494 0.09629 0.0
Zn118 Zn 0.3487 0.7265 0.05125 0.0
Zn119 Zn 0.35921 0.77638 0.1554 0.0
Zn120 Zn 0.38054 0.76576 0.03851 0.0
O121 O 0.35069 0.73371 0.95876 0.0
O122 O 0.37505 0.75451 0.95181 0.0
O123 O 0.3709 0.66899 0.11463 0.0
O124 O 0.34883 0.67951 0.06079 0.0
O125 O 0.32767 0.74274 0.0839 0.0
O126 O 0.33533 0.77565 0.15879 0.0
O127 O 0.36543 0.82088 0.13166 0.0
O128 O 0.40241 0.71549 0.12169 0.0
O129 O 0.37824 0.8121 0.04301 0.0
O130 O 0.40335 0.75591 0.05557 0.0
C131 C 0.37197 0.74006 0.26466 0.0
C132 C 0.36247 0.74358 0.92658 0.0
C133 C 0.32437 0.76185 0.12793 0.0
C134 C 0.35854 0.65985 0.08502 0.0
C135 C 0.37245 0.83098 0.08294 0.0
C136 C 0.4103 0.73512 0.08875 0.0
O137 O 0.36677 0.76579 0.24134 0.0
O138 O 0.60969 0.21092 0.76103 0.0
Zn139 Zn 0.60755 0.20899 0.85446 0.0
O140 O 0.61978 0.24284 0.89351 0.0
Zn141 Zn 0.63792 0.22574 0.93956 0.0
Zn142 Zn 0.6267 0.27225 0.82992 0.0
Zn143 Zn 0.60643 0.26568 0.95043 0.0
O144 O 0.63615 0.23422 0.03191 0.0
O145 O 0.61207 0.25623 0.03829 0.0
O146 O 0.61548 0.16662 0.88293 0.0
O147 O 0.63779 0.17855 0.9341 0.0
O148 O 0.65879 0.24161 0.90403 0.0
O149 O 0.65043 0.27052 0.8236 0.0
O150 O 0.62071 0.31734 0.84851 0.0
O151 O 0.58398 0.21338 0.87373 0.0
O152 O 0.60857 0.31197 0.93966 0.0
O153 O 0.58363 0.25546 0.93571 0.0
C154 C 0.61308 0.23398 0.72519 0.0
C155 C 0.62455 0.245 0.06395 0.0
C156 C 0.66164 0.25841 0.8559 0.0
C157 C 0.62798 0.15829 0.91271 0.0
C158 C 0.61397 0.32927 0.89612 0.0
C159 C 0.57641 0.23403 0.9053 0.0
O160 O 0.61835 0.26007 0.74625 0.0
O161 O 0.37218 0.27482 0.78226 0.0
Zn162 Zn 0.37472 0.27884 0.87486 0.0
O163 O 0.36219 0.24676 0.91726 0.0
Zn164 Zn 0.34378 0.26563 0.95898 0.0
Zn165 Zn 0.35579 0.21515 0.85696 0.0
Zn166 Zn 0.37524 0.22625 0.97833 0.0
O167 O 0.34438 0.25822 0.0523 0.0
O168 O 0.36865 0.23743 0.06373 0.0
O169 O 0.36734 0.32204 0.8992 0.0
O170 O 0.34462 0.31278 0.94979 0.0
O171 O 0.32317 0.2498 0.92086 0.0
O172 O 0.33216 0.21699 0.84783 0.0
O173 O 0.36146 0.17063 0.8828 0.0
O174 O 0.39826 0.27389 0.89389 0.0
O175 O 0.37305 0.17992 0.97384 0.0
O176 O 0.39819 0.23583 0.96532 0.0
C177 C 0.36908 0.25088 0.74849 0.0
C178 C 0.35575 0.24821 0.08663 0.0
C179 C 0.32072 0.23097 0.87545 0.0
C180 C 0.35487 0.33187 0.92718 0.0
C181 C 0.36781 0.16082 0.93316 0.0
C182 C 0.40565 0.25513 0.93046 0.0
O183 O 0.36436 0.22486 0.77205 0.0
C184 C 0.19387 0.22949 0.59594 0.0
C185 C 0.18049 0.22128 0.63213 0.0
C186 C 0.20923 0.22786 0.62157 0.0
C187 C 0.23051 0.24143 0.75942 0.0
H188 H 0.26246 0.17974 0.71094 0.0
C189 C 0.29093 0.23327 0.88724 0.0
C190 C 0.30443 0.22676 0.85068 0.0
C191 C 0.2756 0.23033 0.86187 0.0
C192 C 0.25378 0.19746 0.72444 0.0
H193 H 0.1727 0.20471 0.72319 0.0
H194 H 0.19948 0.2028 0.7679 0.0
H195 H 0.23633 0.17976 0.65987 0.0
H196 H 0.31256 0.21232 0.75893 0.0
H197 H 0.28607 0.20859 0.71416 0.0
H198 H 0.24791 0.26018 0.82202 0.0
C199 C 0.19803 0.21 0.71972 0.0
C200 C 0.23885 0.19728 0.69533 0.0
C201 C 0.18277 0.21101 0.69393 0.0
C202 C 0.30236 0.21714 0.78856 0.0
C203 C 0.28712 0.2148 0.76294 0.0
C204 C 0.24553 0.24206 0.78768 0.0
C205 C 0.2113 0.21862 0.68387 0.0
C206 C 0.22717 0.21923 0.71282 0.0
C207 C 0.27353 0.22143 0.79912 0.0
C208 C 0.25736 0.22006 0.77059 0.0
H209 H 0.19245 0.23742 0.54821 0.0
H210 H 0.21943 0.23464 0.59346 0.0
H211 H 0.22156 0.25856 0.77329 0.0
H212 H 0.29221 0.24054 0.93539 0.0
H213 H 0.2654 0.23506 0.89149 0.0
C214 C 0.69125 0.2575 0.87423 0.0
C215 C 0.67822 0.26228 0.83392 0.0
C216 C 0.70689 0.25969 0.85163 0.0
C217 C 0.73003 0.24536 0.71469 0.0
H218 H 0.76152 0.30363 0.78076 0.0
C219 C 0.79277 0.25471 0.6064 0.0
C220 C 0.80561 0.25947 0.6474 0.0
C221 C 0.77705 0.25753 0.62765 0.0
C222 C 0.75296 0.28687 0.76234 0.0
H223 H 0.67129 0.27324 0.73865 0.0
H224 H 0.69858 0.27615 0.69926 0.0
H225 H 0.73451 0.30316 0.8239 0.0
H226 H 0.81217 0.27062 0.74274 0.0
H227 H 0.78491 0.27404 0.78041 0.0
H228 H 0.74843 0.22789 0.65514 0.0
C229 C 0.69666 0.27113 0.74824 0.0
C230 C 0.73751 0.28678 0.78692 0.0
C231 C 0.68109 0.26959 0.77095 0.0
C232 C 0.80249 0.26716 0.70986 0.0
C233 C 0.78682 0.26934 0.73137 0.0
C234 C 0.74555 0.24496 0.69097 0.0
C235 C 0.70963 0.26601 0.78829 0.0
C236 C 0.72598 0.26607 0.76312 0.0
C237 C 0.77388 0.26449 0.69064 0.0
C238 C 0.75722 0.26571 0.71447 0.0
H239 H 0.68936 0.25192 0.92297 0.0
H240 H 0.71681 0.25557 0.88311 0.0
H241 H 0.72127 0.22905 0.69607 0.0
H242 H 0.79487 0.249 0.55787 0.0
H243 H 0.7674 0.25425 0.59463 0.0
C244 C 0.29522 0.74876 0.11942 0.0
C245 C 0.30755 0.76649 0.14696 0.0
C246 C 0.27963 0.75067 0.14237 0.0
C247 C 0.25203 0.74115 0.23158 0.0
H248 H 0.23238 0.81952 0.28581 0.0
C249 C 0.19452 0.74099 0.3767 0.0
C250 C 0.18245 0.7618 0.35664 0.0
C251 C 0.21005 0.74386 0.35366 0.0
C252 C 0.2377 0.79748 0.27066 0.0
H253 H 0.31298 0.80133 0.21822 0.0
H254 H 0.28586 0.80438 0.25837 0.0
H255 H 0.25842 0.8208 0.23427 0.0
H256 H 0.17745 0.80296 0.29908 0.0
H257 H 0.20451 0.80772 0.25867 0.0
H258 H 0.23127 0.71782 0.26697 0.0
C259 C 0.28822 0.78915 0.21889 0.0
C260 C 0.25263 0.79819 0.24154 0.0
C261 C 0.3038 0.78723 0.19604 0.0
C262 C 0.18644 0.78646 0.3154 0.0
C263 C 0.20198 0.78931 0.2924 0.0
C264 C 0.23714 0.74043 0.26073 0.0
C265 C 0.27605 0.77038 0.19318 0.0
C266 C 0.25994 0.77001 0.22173 0.0
C267 C 0.21384 0.76758 0.31017 0.0
C268 C 0.22984 0.76856 0.28073 0.0
H269 H 0.29768 0.7327 0.08132 0.0
H270 H 0.27042 0.73632 0.12098 0.0
H271 H 0.25746 0.719 0.21763 0.0
H272 H 0.19188 0.72188 0.40875 0.0
H273 H 0.21905 0.72713 0.36906 0.0
C274 C 0.68731 0.69711 0.14798 0.0
C275 C 0.68374 0.72033 0.10306 0.0
C276 C 0.70253 0.69531 0.17432 0.0
C277 C 0.73774 0.68854 0.20575 0.0
H278 H 0.75675 0.76893 0.25115 0.0
C279 C 0.80226 0.70068 0.2969 0.0
C280 C 0.80537 0.72345 0.34307 0.0
C281 C 0.78714 0.69831 0.27 0.0
C282 C 0.75151 0.74628 0.23941 0.0
H283 H 0.69367 0.75863 0.04783 0.0
H284 H 0.72035 0.75511 0.09324 0.0
H285 H 0.73142 0.76809 0.1952 0.0
H286 H 0.79479 0.76058 0.39929 0.0
H287 H 0.76825 0.7561 0.35273 0.0
H288 H 0.7577 0.66675 0.25126 0.0
C289 C 0.71123 0.73877 0.10898 0.0
C290 C 0.73714 0.74581 0.20643 0.0
C291 C 0.69598 0.74061 0.08263 0.0
C292 C 0.79282 0.7429 0.36363 0.0
C293 C 0.77765 0.7405 0.33666 0.0
C294 C 0.75213 0.68901 0.23882 0.0
C295 C 0.71454 0.71662 0.15622 0.0
C296 C 0.73011 0.71694 0.18916 0.0
C297 C 0.77476 0.71859 0.28872 0.0
C298 C 0.75916 0.7179 0.25597 0.0
H299 H 0.67818 0.68104 0.16473 0.0
H300 H 0.70467 0.67812 0.21088 0.0
H301 H 0.73265 0.66593 0.19284 0.0
H302 H 0.81164 0.68523 0.28001 0.0
H303 H 0.78534 0.68138 0.23283 0.0
C304 C 0.11235 0.86471 0.51117 0.0
C305 C 0.11459 0.856 0.44854 0.0
C306 C 0.11102 0.89646 0.52756 0.0
C307 C 0.1 0.97378 0.46878 0.0
H308 H 0.12975 0.00683 0.59129 0.0
C309 C 0.11141 0.10623 0.49377 0.0
C310 C 0.11466 0.11884 0.55296 0.0
C311 C 0.11002 0.07375 0.48557 0.0
C312 C 0.12113 -0.00209 0.558 0.0
H313 H 0.11685 0.87352 0.35385 0.0
H314 H 0.11423 0.92923 0.38269 0.0
H315 H 0.1296 0.95038 0.56814 0.0
H316 H 0.1187 0.10741 0.65028 0.0
H317 H 0.11582 0.05039 0.63625 0.0
H318 H 0.09134 0.02101 0.45886 0.0
C319 C 0.11359 0.91135 0.41883 0.0
C320 C 0.12112 0.96566 0.54457 0.0
C321 C 0.11519 0.87959 0.40247 0.0
C322 C 0.11631 0.0983 0.60404 0.0
C323 C 0.11471 0.06568 0.59595 0.0
C324 C 0.09982 0.00593 0.48284 0.0
C325 C 0.11165 0.91996 0.48154 0.0
C326 C 0.11077 0.95353 0.49903 0.0
C327 C 0.11162 0.05307 0.53649 0.0
C328 C 0.11064 0.01848 0.52658 0.0
H329 H 0.11189 0.84704 0.54773 0.0
H330 H 0.10947 0.90267 0.57618 0.0
H331 H 0.09177 0.96474 0.43409 0.0
H332 H 0.11023 0.12143 0.45333 0.0
H333 H 0.10803 0.06485 0.43889 0.0
C334 C 0.86939 0.37347 0.50219 0.0
C335 C 0.86802 0.36284 0.56408 0.0
C336 C 0.86923 0.40562 0.48868 0.0
C337 C 0.8792 0.48186 0.55012 0.0
H338 H 0.85001 0.51428 0.42462 0.0
C339 C 0.87343 0.6146 0.49898 0.0
C340 C 0.87053 0.6243 0.43731 0.0
C341 C 0.87322 0.5827 0.51477 0.0
C342 C 0.85842 0.50554 0.459 0.0
H343 H 0.86549 0.37743 0.66042 0.0
H344 H 0.86563 0.43426 0.63654 0.0
H345 H 0.84902 0.45854 0.45363 0.0
H346 H 0.86555 0.60818 0.34343 0.0
H347 H 0.86576 0.55209 0.37056 0.0
H348 H 0.88906 0.52836 0.55415 0.0
C349 C 0.86667 0.41739 0.59881 0.0
C350 C 0.85772 0.47375 0.47595 0.0
C351 C 0.86655 0.38504 0.61236 0.0
C352 C 0.86774 0.60137 0.39138 0.0
C353 C 0.86776 0.56929 0.40707 0.0
C354 C 0.88007 0.51357 0.53253 0.0
C355 C 0.86792 0.4278 0.53679 0.0
C356 C 0.86811 0.46172 0.52158 0.0
C357 C 0.87033 0.55965 0.46913 0.0
C358 C 0.86967 0.52578 0.48678 0.0
H359 H 0.87044 0.35692 0.4639 0.0
H360 H 0.87034 0.41319 0.44058 0.0
H361 H 0.88747 0.47287 0.5848 0.0
H362 H 0.87546 0.63172 0.53568 0.0
H363 H 0.87494 0.57621 0.56317 0.0
C364 C 0.84115 0.87749 0.43677 0.0
C365 C 0.85613 0.86398 0.42351 0.0
C366 C 0.84001 0.90928 0.45363 0.0
C367 C 0.86217 0.9694 0.53337 0.0
H368 H 0.83593 0.03116 0.44711 0.0
C369 C 0.86951 0.10222 0.57462 0.0
C370 C 0.85613 0.1221 0.5695 0.0
C371 C 0.86827 0.07018 0.56057 0.0
C372 C 0.84306 0.0141 0.47258 0.0
H373 H 0.88159 0.87322 0.41595 0.0
H374 H 0.87957 0.92863 0.44678 0.0
H375 H 0.83595 0.97618 0.4123 0.0
H376 H 0.83077 0.12381 0.54827 0.0
H377 H 0.82846 0.0675 0.52584 0.0
H378 H 0.86908 0.0067 0.59458 0.0
C379 C 0.86876 0.91458 0.44368 0.0
C380 C 0.84314 0.98275 0.45228 0.0
C381 C 0.86988 0.88301 0.42571 0.0
C382 C 0.84133 0.10908 0.55213 0.0
C383 C 0.84003 0.07687 0.5389 0.0
C384 C 0.86189 0.00054 0.55438 0.0
C385 C 0.85386 0.92777 0.45857 0.0
C386 C 0.85294 0.96041 0.48183 0.0
C387 C 0.85356 0.05715 0.54201 0.0
C388 C 0.8526 0.02343 0.52345 0.0
H389 H 0.83035 0.86337 0.43518 0.0
H390 H 0.8284 0.91911 0.46498 0.0
H391 H 0.86962 0.9523 0.55739 0.0
H392 H 0.88111 0.11158 0.58741 0.0
H393 H 0.87901 0.05589 0.56236 0.0
C394 C 0.14513 0.60425 0.41155 0.0
C395 C 0.13028 0.61834 0.3982 0.0
C396 C 0.14611 0.57192 0.42409 0.0
C397 C 0.12329 0.51112 0.49665 0.0
H398 H 0.15027 0.45003 0.41254 0.0
C399 C 0.11682 0.37851 0.5415 0.0
C400 C 0.13043 0.35913 0.5389 0.0
C401 C 0.11777 0.4103 0.52509 0.0
C402 C 0.1429 0.4669 0.4373 0.0
H403 H 0.10493 0.60955 0.38498 0.0
H404 H 0.10665 0.55311 0.40844 0.0
H405 H 0.15025 0.50521 0.3781 0.0
H406 H 0.15584 0.358 0.51892 0.0
H407 H 0.15767 0.41402 0.49249 0.0
H408 H 0.11625 0.47362 0.55721 0.0
C409 C 0.11748 0.56715 0.40868 0.0
C410 C 0.14282 0.49833 0.41718 0.0
C411 C 0.11654 0.59933 0.39502 0.0
C412 C 0.14513 0.37237 0.52105 0.0
C413 C 0.14615 0.4044 0.50548 0.0
C414 C 0.12358 0.47995 0.51751 0.0
C415 C 0.13221 0.55342 0.42448 0.0
C416 C 0.1328 0.52044 0.44612 0.0
C417 C 0.13243 0.42364 0.50669 0.0
C418 C 0.13316 0.45731 0.48741 0.0
H419 H 0.15593 0.61835 0.41394 0.0
H420 H 0.15757 0.56167 0.43631 0.0
H421 H 0.1157 0.52807 0.5203 0.0
H422 H 0.10526 0.36894 0.5544 0.0
H423 H 0.10689 0.42418 0.5253 0.0
C424 C 0.61655 0.60294 0.05059 0.0
C425 C 0.61648 0.62662 0.00465 0.0
C426 C 0.6147 0.57131 0.03385 0.0
C427 C 0.622 0.51633 0.90919 0.0
H428 H 0.59029 0.46387 -0.00893 0.0
C429 C 0.61503 0.38392 0.85107 0.0
C430 C 0.61265 0.36384 0.90241 0.0
C431 C 0.61392 0.41668 0.85821 0.0
C432 C 0.5993 0.47813 0.96816 0.0
H433 H 0.61462 0.63588 0.90528 0.0
H434 H 0.61177 0.58038 0.87616 0.0
H435 H 0.59176 0.5201 0.01558 0.0
H436 H 0.60735 0.36219 0.00145 0.0
H437 H 0.60598 0.41895 0.01428 0.0
H438 H 0.6301 0.47432 0.86394 0.0
C439 C 0.61308 0.58645 0.92495 0.0
C440 C 0.60008 0.51025 0.98207 0.0
C441 C 0.61465 0.61811 0.94171 0.0
C442 C 0.60911 0.37702 0.96082 0.0
C443 C 0.60819 0.40963 0.96809 0.0
C444 C 0.6214 0.48408 0.89595 0.0
C445 C 0.61303 0.56289 0.97092 0.0
C446 C 0.61156 0.52944 0.9533 0.0
C447 C 0.61058 0.42986 0.91695 0.0
C448 C 0.61021 0.46454 0.92609 0.0
H449 H 0.61789 0.60888 0.09943 0.0
H450 H 0.61482 0.55335 0.06994 0.0
H451 H 0.63101 0.5308 0.88673 0.0
H452 H 0.61767 0.37436 0.8054 0.0
H453 H 0.61564 0.43164 0.81776 0.0
C454 C 0.37018 0.88756 0.11641 0.0
C455 C 0.3731 0.8651 0.06961 0.0
C456 C 0.37023 0.91979 0.10198 0.0
C457 C 0.36247 0.9739 0.97519 0.0
H458 H 0.38919 0.0335 0.06439 0.0
C459 C 0.36782 0.10422 0.89896 0.0
C460 C 0.36873 0.12677 0.94671 0.0
C461 C 0.36887 0.07202 0.9131 0.0
C462 C 0.38148 0.01724 0.03958 0.0
H463 H 0.37839 0.85869 0.9712 0.0
H464 H 0.37817 0.91479 0.94628 0.0
H465 H 0.38963 0.97773 0.09363 0.0
H466 H 0.37101 0.13348 0.04667 0.0
H467 H 0.37221 0.07767 0.07138 0.0
H468 H 0.35389 0.01324 0.92233 0.0
C469 C 0.37595 0.90745 -0.00608 0.0
C470 C 0.38179 0.98539 0.05629 0.0
C471 C 0.37616 0.87541 0.00841 0.0
C472 C 0.37049 0.11664 0.00872 0.0
C473 C 0.37129 0.0846 0.02289 0.0
C474 C 0.36195 0.00581 0.95908 0.0
C475 C 0.37291 0.92982 0.04045 0.0
C476 C 0.37232 0.96355 0.0241 0.0
C477 C 0.3706 0.0619 0.97531 0.0
C478 C 0.37145 0.02785 -0.00889 0.0
H479 H 0.36782 0.88024 0.16394 0.0
H480 H 0.36783 0.93682 0.13847 0.0
H481 H 0.35499 0.95732 0.95007 0.0
H482 H 0.36654 0.11145 0.85073 0.0
H483 H 0.3685 0.05512 0.87526 0.0
C484 C 0.36302 0.38783 0.90785 0.0
C485 C 0.35279 0.36611 0.93725 0.0
C486 C 0.36214 0.41991 0.92217 0.0
C487 C 0.36603 0.47962 -0.00346 0.0
H488 H 0.32628 0.52444 0.026 0.0
C489 C 0.36583 0.60331 0.10413 0.0
C490 C 0.3559 0.62574 0.07513 0.0
C491 C 0.36425 0.57127 0.09027 0.0
C492 C 0.33746 0.51225 0.01765 0.0
H493 H 0.33317 0.36114 0.00279 0.0
H494 H 0.33185 0.4171 0.02856 0.0
H495 H 0.32557 0.46976 0.9897 0.0
H496 H 0.3361 0.63203 0.01065 0.0
H497 H 0.33356 0.5762 0.98571 0.0
H498 H 0.37795 0.52217 0.02278 0.0
C499 C 0.34041 0.40937 -0.00609 0.0
C500 C 0.33706 0.48091 -0.00263 0.0
C501 C 0.34122 0.37729 0.97932 0.0
C502 C 0.34396 0.61535 0.0338 0.0
C503 C 0.34243 0.58333 0.01972 0.0
C504 C 0.36643 0.5109 0.01659 0.0
C505 C 0.35109 0.43089 0.96646 0.0
C506 C 0.35135 0.46433 0.98651 0.0
C507 C 0.35276 0.56105 0.0469 0.0
C508 C 0.35217 0.52753 0.02744 0.0
H509 H 0.37194 0.38001 0.87466 0.0
H510 H 0.3703 0.43607 0.89928 0.0
H511 H 0.37725 0.46732 0.98957 0.0
H512 H 0.37504 0.61052 0.13668 0.0
H513 H 0.37217 0.55453 0.11286 0.0
C514 C 0.62172 0.1012 0.89512 0.0
C515 C 0.63077 0.12448 0.92565 0.0
C516 C 0.62376 0.06935 0.91007 0.0
C517 C 0.63593 0.01794 0.03744 0.0
H518 H 0.63873 0.95374 0.90899 0.0
C519 C 0.62414 0.88489 0.07827 0.0
C520 C 0.63442 0.86348 0.04823 0.0
C521 C 0.62551 0.91731 0.06715 0.0
C522 C 0.63812 0.97145 0.94535 0.0
H523 H 0.64921 0.13262 -0.00484 0.0
H524 H 0.65265 0.07691 0.02144 0.0
H525 H 0.63785 0.00949 0.87942 0.0
H526 H 0.65466 0.85943 0.9852 0.0
H527 H 0.65693 0.91594 0.96582 0.0
H528 H 0.63594 0.9798 0.10333 0.0
C529 C 0.64399 0.08342 0.98608 0.0
C530 C 0.63747 0.00325 0.9284 0.0
C531 C 0.64207 0.11524 0.97071 0.0
C532 C 0.64647 0.87523 0.00882 0.0
C533 C 0.64776 0.90756 -0.00254 0.0
C534 C 0.63641 0.98609 0.05439 0.0
C535 C 0.63477 0.06026 0.95619 0.0
C536 C 0.63626 0.02673 0.97427 0.0
C537 C 0.6371 0.92881 0.02558 0.0
C538 C 0.63743 0.96259 0.00843 0.0
H539 H 0.61294 0.10758 0.86013 0.0
H540 H 0.61643 0.05189 0.88671 0.0
H541 H 0.63487 0.03567 0.07362 0.0
H542 H 0.61478 0.8766 0.10907 0.0
H543 H 0.61709 0.93325 0.08914 0.0
C544 C 0.12224 0.21745 0.29343 0.0
C545 C 0.1298 0.2408 0.32918 0.0
C546 C 0.121 0.22077 0.22911 0.0
C547 C 0.1358 0.26557 0.09252 0.0
H548 H 0.09558 0.23683 0.0222 0.0
C549 C 0.11786 0.27977 0.83193 0.0
C550 C 0.11501 0.25028 0.80391 0.0
C551 C 0.11895 0.28218 0.89676 0.0
C552 C 0.10681 0.24509 0.0414 0.0
H553 H 0.14258 0.28532 0.32602 0.0
H554 H 0.14001 0.2917 0.21298 0.0
H555 H 0.09978 0.23401 0.13439 0.0
H556 H 0.11038 0.20059 0.82113 0.0
H557 H 0.11176 0.20506 0.93445 0.0
H558 H 0.14262 0.2769 -0.00132 0.0
C559 C 0.13528 0.27054 0.23463 0.0
C560 C 0.10932 0.24321 0.10545 0.0
C561 C 0.13676 0.26691 0.29923 0.0
C562 C 0.11262 0.22356 0.84164 0.0
C563 C 0.11336 0.22612 0.90628 0.0
C564 C 0.13317 0.26788 0.02831 0.0
C565 C 0.12699 0.24786 0.19916 0.0
C566 C 0.12401 0.25258 0.13161 0.0
C567 C 0.11681 0.25529 0.93422 0.0
C568 C 0.1188 0.25695 0.00231 0.0
H569 H 0.11697 0.19686 0.31543 0.0
H570 H 0.11503 0.20231 0.20301 0.0
H571 H 0.14726 0.27288 0.11111 0.0
H572 H 0.11986 0.30066 0.80371 0.0
H573 H 0.12159 0.30489 0.91763 0.0
C574 C 0.86559 0.26252 0.31608 0.0
C575 C 0.8584 0.2385 0.35134 0.0
C576 C 0.86694 0.25962 0.25178 0.0
C577 C 0.85268 0.21484 0.11474 0.0
H578 H 0.89198 0.24769 0.04348 0.0
C579 C 0.87033 0.20372 0.85387 0.0
C580 C 0.87215 0.23357 0.82586 0.0
C581 C 0.86951 0.20101 0.91866 0.0
C582 C 0.88101 0.2383 0.06297 0.0
H583 H 0.84647 0.19311 0.34755 0.0
H584 H 0.84926 0.18743 0.23446 0.0
H585 H 0.88815 0.24897 0.15599 0.0
H586 H 0.87521 0.28372 0.84306 0.0
H587 H 0.87431 0.27876 0.95652 0.0
H588 H 0.84578 0.20385 0.0209 0.0
C589 C 0.8536 0.20879 0.25645 0.0
C590 C 0.87871 0.23927 0.12719 0.0
C591 C 0.85199 0.212 0.32105 0.0
C592 C 0.87378 0.26046 0.86358 0.0
C593 C 0.87331 0.25764 0.92825 0.0
C594 C 0.85512 0.2134 0.0504 0.0
C595 C 0.86145 0.2323 0.22139 0.0
C596 C 0.86433 0.22839 0.15368 0.0
C597 C 0.87089 0.228 0.95611 0.0
C598 C 0.86915 0.2258 0.02414 0.0
H599 H 0.87042 0.28341 0.33841 0.0
H600 H 0.87253 0.27869 0.22602 0.0
H601 H 0.84145 0.20641 0.13358 0.0
H602 H 0.86894 0.18266 0.82571 0.0
H603 H 0.86767 0.17794 0.93952 0.0
C604 C 0.13295 0.75781 0.13168 0.0
C605 C 0.12071 0.74126 0.16238 0.0
C606 C 0.13527 0.75409 0.06774 0.0
C607 C 0.12489 0.70014 0.93697 0.0
H608 H 0.13896 0.77078 0.83536 0.0
C609 C 0.11671 0.71237 0.67161 0.0
C610 C 0.13023 0.72089 0.63669 0.0
C611 C 0.11749 0.71106 0.73638 0.0
C612 C 0.13527 0.75078 0.86352 0.0
H613 H 0.10089 0.70886 0.15021 0.0
H614 H 0.10435 0.70363 0.038 0.0
H615 H 0.13545 0.77798 0.94719 0.0
H616 H 0.15526 0.73391 0.64129 0.0
H617 H 0.15647 0.73274 0.75576 0.0
H618 H 0.1238 0.67368 0.8519 0.0
C619 C 0.1126 0.7185 0.06351 0.0
C620 C 0.13326 0.75482 0.92755 0.0
C621 C 0.11048 0.72175 0.12769 0.0
C622 C 0.14472 0.72713 0.6674 0.0
C623 C 0.1454 0.72658 0.73251 0.0
C624 C 0.1266 0.69633 0.87275 0.0
C625 C 0.1252 0.73418 0.03289 0.0
C626 C 0.12788 0.72963 0.96504 0.0
C627 C 0.13172 0.71891 0.76729 0.0
C628 C 0.13168 0.72169 0.83562 0.0
H629 H 0.14115 0.77272 0.15743 0.0
H630 H 0.14524 0.76618 0.04611 0.0
H631 H 0.12112 0.67999 0.96447 0.0
H632 H 0.10543 0.70734 0.64882 0.0
H633 H 0.10679 0.70531 0.76248 0.0
C634 C 0.84926 0.77462 0.67176 0.0
C635 C 0.85513 0.74776 0.64107 0.0
C636 C 0.85034 0.77677 0.73674 0.0
C637 C 0.87404 0.7423 0.86573 0.0
H638 H 0.84232 0.78132 0.9726 0.0
C639 C 0.87065 0.72297 0.12998 0.0
C640 C 0.86963 0.75017 0.16717 0.0
C641 C 0.86951 0.72534 0.06536 0.0
C642 C 0.85132 0.77069 0.94295 0.0
H643 H 0.86543 0.70116 0.65319 0.0
H644 H 0.86657 0.70411 0.76611 0.0
H645 H 0.8378 0.77944 0.85984 0.0
H646 H 0.86668 0.80117 0.16627 0.0
H647 H 0.86433 0.80512 0.05269 0.0
H648 H 0.88722 0.73246 0.94907 0.0
C649 C 0.86184 0.72416 0.74058 0.0
C650 C 0.84876 0.76963 0.8786 0.0
C651 C 0.86105 0.7223 0.67602 0.0
C652 C 0.86763 0.77985 0.13858 0.0
C653 C 0.86617 0.78214 0.07389 0.0
C654 C 0.87646 0.74296 0.92987 0.0
C655 C 0.8571 0.75186 0.77156 0.0
C656 C 0.85998 0.75489 0.83945 0.0
C657 C 0.86703 0.75486 0.03699 0.0
C658 C 0.86503 0.75677 0.96896 0.0
H659 H 0.84471 0.79458 0.64542 0.0
H660 H 0.84658 0.79843 0.75926 0.0
H661 H 0.88317 0.73165 0.83675 0.0
H662 H 0.8722 0.69982 0.15085 0.0
H663 H 0.87013 0.704 0.03758 0.0
C664 C 0.63332 0.72381 0.3229 0.0
C665 C 0.6217 0.74168 0.29137 0.0
C666 C 0.63528 0.72695 0.38708 0.0
C667 C 0.62542 0.78108 0.51775 0.0
H668 H 0.63726 0.70857 0.61874 0.0
C669 C 0.61705 0.7687 0.78342 0.0
C670 C 0.63052 0.75901 0.8176 0.0
C671 C 0.61764 0.76998 0.71862 0.0
C672 C 0.63416 0.72904 0.59076 0.0
H673 H 0.6026 0.77588 0.30202 0.0
H674 H 0.60539 0.78015 0.41472 0.0
H675 H 0.63389 0.70224 0.50665 0.0
H676 H 0.65524 0.74385 0.81166 0.0
H677 H 0.65605 0.74503 0.69731 0.0
H678 H 0.62481 0.80725 0.60324 0.0
C679 C 0.61345 0.76465 0.38974 0.0
C680 C 0.63226 0.72551 0.52662 0.0
C681 C 0.61172 0.76198 0.3253 0.0
C682 C 0.64474 0.7515 0.78616 0.0
C683 C 0.6452 0.75208 0.72112 0.0
C684 C 0.62702 0.78441 0.5821 0.0
C685 C 0.62544 0.74757 0.42125 0.0
C686 C 0.62777 0.75145 0.48935 0.0
C687 C 0.63158 0.76097 0.68711 0.0
C688 C 0.63133 0.75838 0.6189 0.0
H689 H 0.64133 0.70828 0.29767 0.0
H690 H 0.64481 0.71382 0.4095 0.0
H691 H 0.62233 0.80173 0.49039 0.0
H692 H 0.60599 0.77478 0.80677 0.0
H693 H 0.60698 0.7767 0.69301 0.0
C694 C 0.35401 0.71713 0.82801 0.0
C695 C 0.36193 0.74194 0.8584 0.0
C696 C 0.35526 0.71389 0.76339 0.0
C697 C 0.38114 0.7397 0.63267 0.0
H698 H 0.34568 0.71259 0.52921 0.0
C699 C 0.37472 0.76367 0.37016 0.0
C700 C 0.37263 0.73683 0.33267 0.0
C701 C 0.37433 0.76091 0.43482 0.0
C702 C 0.35569 0.71982 0.55795 0.0
H703 H 0.37643 0.78393 0.84576 0.0
H704 H 0.37796 0.77928 0.73322 0.0
H705 H 0.34229 0.71524 0.64234 0.0
H706 H 0.36855 0.68615 0.33268 0.0
H707 H 0.36739 0.68162 0.44653 0.0
H708 H 0.39419 0.74591 0.54766 0.0
C709 C 0.37141 0.76144 0.75895 0.0
C710 C 0.35379 0.72127 0.6225 0.0
C711 C 0.37042 0.76431 0.82331 0.0
C712 C 0.37031 0.70714 0.36075 0.0
C713 C 0.36956 0.70453 0.42549 0.0
C714 C 0.38291 0.7388 0.56824 0.0
C715 C 0.36424 0.73573 0.72839 0.0
C716 C 0.36643 0.7318 0.66042 0.0
C717 C 0.37152 0.73143 0.46268 0.0
C718 C 0.37014 0.72926 0.5306 0.0
H719 H 0.34746 0.69952 0.85439 0.0
H720 H 0.34964 0.69376 0.74125 0.0
H721 H 0.39127 0.74701 0.66066 0.0
H722 H 0.37656 0.78678 0.3495 0.0
H723 H 0.37581 0.78192 0.46311 0.0
C724 C 0.61592 0.26417 0.1679 0.0
C725 C 0.6249 0.24279 0.13233 0.0
C726 C 0.61449 0.26012 0.23204 0.0
C727 C 0.63147 0.21777 0.36814 0.0
H728 H 0.59038 0.23987 0.44009 0.0
C729 C 0.61501 0.20085 0.62929 0.0
C730 C 0.61179 0.23016 0.65734 0.0
C731 C 0.61565 0.19837 0.56438 0.0
C732 C 0.60185 0.2334 0.42036 0.0
H733 H 0.63981 0.20089 0.13569 0.0
H734 H 0.63694 0.19315 0.24804 0.0
H735 H 0.59413 0.2434 0.32765 0.0
H736 H 0.60596 0.27939 0.64036 0.0
H737 H 0.60652 0.27473 0.52691 0.0
H738 H 0.63899 0.20748 0.46163 0.0
C739 C 0.63124 0.21343 0.22657 0.0
C740 C 0.6041 0.23573 0.3562 0.0
C741 C 0.6329 0.21783 0.16228 0.0
C742 C 0.60851 0.25656 0.61973 0.0
C743 C 0.60877 0.2539 0.55506 0.0
C744 C 0.62911 0.21493 0.43237 0.0
C745 C 0.62174 0.2342 0.26193 0.0
C746 C 0.61907 0.22883 0.32949 0.0
C747 C 0.61265 0.22497 0.52702 0.0
C748 C 0.61441 0.22345 0.4589 0.0
H749 H 0.60978 0.28383 0.14595 0.0
H750 H 0.60753 0.27719 0.25805 0.0
H751 H 0.64317 0.21246 0.34925 0.0
H752 H 0.61769 0.18023 0.65745 0.0
H753 H 0.61866 0.17586 0.54336 0.0
C754 C 0.34806 0.27547 0.18542 0.0
C755 C 0.3544 0.24903 0.15472 0.0
C756 C 0.34944 0.27805 0.25024 0.0
C757 C 0.37438 0.24621 0.37852 0.0
H758 H 0.34213 0.28288 0.4862 0.0
C759 C 0.37143 0.22686 0.643 0.0
C760 C 0.36967 0.2539 0.68023 0.0
C761 C 0.37048 0.22922 0.57833 0.0
C762 C 0.35128 0.27295 0.45632 0.0
H763 H 0.3659 0.20353 0.1668 0.0
H764 H 0.36756 0.20715 0.27955 0.0
H765 H 0.33736 0.28025 0.37373 0.0
H766 H 0.36573 0.30463 0.67937 0.0
H767 H 0.36371 0.30853 0.56568 0.0
H768 H 0.38796 0.23771 0.46147 0.0
C769 C 0.36223 0.22661 0.25407 0.0
C770 C 0.34858 0.27146 0.39211 0.0
C771 C 0.36113 0.22435 0.18961 0.0
C772 C 0.36724 0.28345 0.65164 0.0
C773 C 0.36597 0.28569 0.58689 0.0
C774 C 0.37695 0.24728 0.44257 0.0
C775 C 0.35696 0.25397 0.28497 0.0
C776 C 0.36 0.25752 0.35266 0.0
C777 C 0.36747 0.25854 0.54995 0.0
C778 C 0.36534 0.26026 0.48195 0.0
H779 H 0.3429 0.29484 0.15912 0.0
H780 H 0.34527 0.29944 0.27266 0.0
H781 H 0.38365 0.23623 0.3493 0.0
H782 H 0.37332 0.20382 0.6639 0.0
H783 H 0.37159 0.20796 0.55054 0.0
C784 C 0.05322 0.21956 0.5358 0.0
C785 C 0.06135 0.2474 0.55185 0.0
C786 C 0.0366 0.21824 0.53878 0.0
C787 C 0.0017 0.25995 0.60716 0.0
H788 H 0.97815 0.20789 0.48996 0.0
C789 C 0.9335 0.26493 0.56302 0.0
C790 C 0.92548 0.23638 0.57507 0.0
C791 C 0.95014 0.26588 0.56218 0.0
C792 C 0.98466 0.22231 0.5231 0.0
H793 H 0.05858 0.29598 0.58189 0.0
H794 H 0.02944 0.29429 0.58406 0.0
H795 H 0.00716 0.21184 0.48116 0.0
H796 H 0.92843 0.18646 0.59519 0.0
H797 H 0.95778 0.18801 0.59138 0.0
H798 H 0.9789 0.27147 0.64683 0.0
C799 C 0.03589 0.27306 0.57138 0.0
C800 C 0.00125 0.22451 0.51841 0.0
C801 C 0.05257 0.27416 0.56967 0.0
C802 C 0.93437 0.20874 0.58596 0.0
C803 C 0.95106 0.20958 0.58365 0.0
C804 C 0.98508 0.25826 0.61091 0.0
C805 C 0.0277 0.24495 0.5566 0.0
C806 C 0.01 0.24325 0.5606 0.0
C807 C 0.95899 0.2382 0.57203 0.0
C808 C 0.97651 0.23931 0.56911 0.0
H809 H 0.05971 0.19843 0.52265 0.0
H810 H 0.03079 0.19599 0.52839 0.0
H811 H 0.00802 0.27407 0.64125 0.0
H812 H 0.92691 0.28662 0.5549 0.0
H813 H 0.95612 0.28813 0.55292 0.0
C814 C 0.93329 0.73114 0.4592 0.0
C815 C 0.92519 0.75171 0.41843 0.0
C816 C 0.9499 0.72889 0.45787 0.0
C817 C 0.98478 0.74387 0.35738 0.0
H818 H 0.0081 0.73552 0.51288 0.0
C819 C 0.05349 0.75 0.45494 0.0
C820 C 0.06144 0.73124 0.41067 0.0
C821 C 0.03687 0.752 0.4552 0.0
C822 C 0.00178 0.73803 0.46904 0.0
H823 H 0.92827 0.78648 0.34488 0.0
H824 H 0.95741 0.78296 0.34342 0.0
H825 H 0.97922 0.74204 0.51493 0.0
H826 H 0.05812 0.6996 0.33219 0.0
H827 H 0.02893 0.70271 0.33337 0.0
H828 H 0.00748 0.74068 0.31167 0.0
C829 C 0.95081 0.76818 0.37567 0.0
C830 C 0.98521 0.74144 0.47019 0.0
C831 C 0.93413 0.77037 0.37685 0.0
C832 C 0.05236 0.71428 0.36688 0.0
C833 C 0.03566 0.71622 0.36728 0.0
C834 C 0.00141 0.74055 0.35624 0.0
C835 C 0.95886 0.74728 0.41598 0.0
C836 C 0.97652 0.74436 0.41442 0.0
C837 C 0.02776 0.73517 0.41144 0.0
C838 C 0.01008 0.73767 0.41211 0.0
H839 H 0.9268 0.71627 0.49163 0.0
H840 H 0.95571 0.71223 0.4889 0.0
H841 H 0.9784 0.7457 0.31359 0.0
H842 H 0.06009 0.76356 0.48916 0.0
H843 H 0.03117 0.76721 0.48917 0.0
C844 C 0.55564 0.72275 0.0387 0.0
C845 C 0.56351 0.75066 0.05632 0.0
C846 C 0.53916 0.71982 0.0461 0.0
C847 C 0.50436 0.75663 0.12655 0.0
H848 H 0.48032 0.70766 0.00576 0.0
C849 C 0.43623 0.76352 0.08199 0.0
C850 C 0.42788 0.73503 0.0907 0.0
C851 C 0.45288 0.76397 0.08311 0.0
C852 C 0.48697 0.72108 0.04008 0.0
H853 H 0.56035 0.7976 0.09457 0.0
H854 H 0.53137 0.79327 0.10439 0.0
H855 H 0.50919 0.7128 -0.00574 0.0
H856 H 0.43029 0.68469 0.10745 0.0
H857 H 0.45971 0.68535 0.10678 0.0
H858 H 0.48175 0.76633 0.16977 0.0
C859 C 0.53797 0.77313 0.08694 0.0
C860 C 0.5035 0.72399 0.03381 0.0
C861 C 0.55456 0.77579 0.08081 0.0
C862 C 0.43648 0.70693 0.10073 0.0
C863 C 0.45321 0.70728 0.10029 0.0
C864 C 0.48777 0.75427 0.13192 0.0
C865 C 0.53007 0.745 0.07 0.0
C866 C 0.51244 0.74183 0.07696 0.0
C867 C 0.46146 0.73584 0.09161 0.0
C868 C 0.47901 0.73648 0.08872 0.0
H869 H 0.56228 0.70277 0.02059 0.0
H870 H 0.53363 0.69752 0.03394 0.0
H871 H 0.51082 0.77 0.16142 0.0
H872 H 0.42988 0.78556 0.07468 0.0
H873 H 0.45908 0.78617 0.07599 0.0
C874 C 0.431 0.22575 0.948 0.0
C875 C 0.42324 0.25363 0.9292 0.0
C876 C 0.44754 0.22307 0.94365 0.0
C877 C 0.48278 0.25962 0.86714 0.0
H878 H 0.50596 0.21023 0.99024 0.0
C879 C 0.55085 0.26368 0.91056 0.0
C880 C 0.55884 0.23462 0.90432 0.0
C881 C 0.53422 0.26489 0.90983 0.0
C882 C 0.49956 0.22378 0.95533 0.0
H883 H 0.42667 0.30089 0.89245 0.0
H884 H 0.45577 0.29688 0.88768 0.0
H885 H 0.47709 0.21642 -2e-05 0.0
H886 H 0.55585 0.18408 0.89251 0.0
H887 H 0.52644 0.18617 0.89376 0.0
H888 H 0.5056 0.26825 0.8248 0.0
C889 C 0.44902 0.27663 0.90381 0.0
C890 C 0.48304 0.22731 0.96063 0.0
C891 C 0.43237 0.27908 0.90702 0.0
C892 C 0.54992 0.20673 0.89732 0.0
C893 C 0.53321 0.20789 0.89811 0.0
C894 C 0.49936 0.25662 0.86269 0.0
C895 C 0.45679 0.24845 0.92156 0.0
C896 C 0.47442 0.24521 0.91649 0.0
C897 C 0.52532 0.23703 0.90417 0.0
C898 C 0.5078 0.23862 0.90666 0.0
H899 H 0.42425 0.20554 0.96448 0.0
H900 H 0.45301 0.20076 0.95639 0.0
H901 H 0.47655 0.27303 0.83161 0.0
H902 H 0.55745 0.28557 0.91547 0.0
H903 H 0.52829 0.28754 0.91488 0.0
loop_
_geom_bond_atom_site_label_1
_geom_bond_atom_site_label_2
_geom_bond_distance
_geom_bond_site_symmetry_2
_ccdc_geom_bond_type
O0 Zn1 1.953 . S
O0 C16 1.225 . S
Zn1 O0 1.953 . S
Zn1 O2 1.949 . S
Zn1 O8 1.919 . S
Zn1 O13 1.924 . S
O2 Zn1 1.949 . S
O2 Zn3 1.923 . S
O2 Zn4 1.950 . S
O2 Zn5 1.945 . S
Zn3 O2 1.923 . S
Zn3 O6 1.933 . S
Zn3 O9 1.941 . S
Zn3 O10 1.965 . S
Zn4 O2 1.950 . S
Zn4 O11 1.938 . S
Zn4 O12 1.906 . S
Zn4 O22 1.953 . S
Zn5 O2 1.945 . S
Zn5 O7 1.932 . S
Zn5 O14 1.977 . S
Zn5 O15 1.910 . S
O6 Zn3 1.933 . S
O6 C17 1.226 . S
O7 Zn5 1.932 . S
O7 C17 1.307 . S
O8 Zn1 1.919 . S
O8 C19 1.253 . S
O9 Zn3 1.941 . S
O9 C19 1.283 . S
O10 Zn3 1.965 . S
O10 C18 1.303 . S
O11 Zn4 1.938 . S
O11 C18 1.247 . S
O12 Zn4 1.906 . S
O12 C20 1.304 . S
O13 Zn1 1.924 . S
O13 C21 1.311 . S
O14 Zn5 1.977 . S
O14 C20 1.272 . S
O15 Zn5 1.910 . S
O15 C21 1.231 . S
C16 O0 1.225 . S
C16 O22 1.298 . S
C17 O6 1.226 . S
C17 O7 1.307 . S
C18 O10 1.303 . S
C18 O11 1.247 . S
C19 O8 1.253 . S
C19 O9 1.283 . S
C20 O12 1.304 . S
C20 O14 1.272 . S
C21 O13 1.311 . S
C21 O15 1.231 . S
O22 Zn4 1.953 . S
O22 C16 1.298 . S
O23 Zn24 1.953 . S
O23 C39 1.225 . S
Zn24 O23 1.953 . S
Zn24 O25 1.949 . S
Zn24 O31 1.919 . S
Zn24 O36 1.924 . S
O25 Zn24 1.949 . S
O25 Zn26 1.923 . S
O25 Zn27 1.950 . S
O25 Zn28 1.945 . S
Zn26 O25 1.923 . S
Zn26 O29 1.933 . S
Zn26 O32 1.941 . S
Zn26 O33 1.965 . S
Zn27 O25 1.950 . S
Zn27 O34 1.938 . S
Zn27 O35 1.906 . S
Zn27 O45 1.953 . S
Zn28 O25 1.945 . S
Zn28 O30 1.932 . S
Zn28 O37 1.977 . S
Zn28 O38 1.910 . S
O29 Zn26 1.933 . S
O29 C40 1.226 . S
O30 Zn28 1.932 . S
O30 C40 1.307 . S
O31 Zn24 1.919 . S
O31 C42 1.253 . S
O32 Zn26 1.941 . S
O32 C42 1.283 . S
O33 Zn26 1.965 . S
O33 C41 1.303 . S
O34 Zn27 1.938 . S
O34 C41 1.247 . S
O35 Zn27 1.906 . S
O35 C43 1.304 . S
O36 Zn24 1.924 . S
O36 C44 1.311 . S
O37 Zn28 1.977 . S
O37 C43 1.272 . S
O38 Zn28 1.910 . S
O38 C44 1.231 . S
C39 O23 1.225 . S
C39 O45 1.298 . S
C40 O29 1.226 . S
C40 O30 1.307 . S
C41 O33 1.303 . S
C41 O34 1.247 . S
C42 O31 1.253 . S
C42 O32 1.283 . S
C43 O35 1.304 . S
C43 O37 1.272 . S
C44 O36 1.311 . S
C44 O38 1.231 . S
O45 Zn27 1.953 . S
O45 C39 1.298 . S
O46 Zn47 1.953 . S
O46 C62 1.225 . S
Zn47 O46 1.953 . S
Zn47 O48 1.949 . S
Zn47 O54 1.919 . S
Zn47 O59 1.924 . S
O48 Zn47 1.949 . S
O48 Zn49 1.923 . S
O48 Zn50 1.950 . S
O48 Zn51 1.945 . S
Zn49 O48 1.923 . S
Zn49 O52 1.933 . S
Zn49 O55 1.941 . S
Zn49 O56 1.965 . S
Zn50 O48 1.950 . S
Zn50 O57 1.938 . S
Zn50 O58 1.906 . S
Zn50 O68 1.953 . S
Zn51 O48 1.945 . S
Zn51 O53 1.932 . S
Zn51 O60 1.977 . S
Zn51 O61 1.910 . S
O52 Zn49 1.933 . S
O52 C63 1.226 . S
O53 Zn51 1.932 . S
O53 C63 1.307 . S
O54 Zn47 1.919 . S
O54 C65 1.253 . S
O55 Zn49 1.941 . S
O55 C65 1.283 . S
O56 Zn49 1.965 . S
O56 C64 1.303 . S
O57 Zn50 1.938 . S
O57 C64 1.247 . S
O58 Zn50 1.906 . S
O58 C66 1.304 . S
O59 Zn47 1.924 . S
O59 C67 1.311 . S
O60 Zn51 1.977 . S
O60 C66 1.272 . S
O61 Zn51 1.910 . S
O61 C67 1.231 . S
C62 O46 1.225 . S
C62 O68 1.298 . S
C63 O52 1.226 . S
C63 O53 1.307 . S
C64 O56 1.303 . S
C64 O57 1.247 . S
C65 O54 1.253 . S
C65 O55 1.283 . S
C66 O58 1.304 . S
C66 O60 1.272 . S
C67 O59 1.311 . S
C67 O61 1.231 . S
O68 Zn50 1.953 . S
O68 C62 1.298 . S
O69 Zn70 1.953 . S
O69 C85 1.225 . S
Zn70 O69 1.953 . S
Zn70 O71 1.949 . S
Zn70 O77 1.919 . S
Zn70 O82 1.924 . S
O71 Zn70 1.949 . S
O71 Zn72 1.923 . S
O71 Zn73 1.950 . S
O71 Zn74 1.945 . S
Zn72 O71 1.923 . S
Zn72 O75 1.933 . S
Zn72 O78 1.941 . S
Zn72 O79 1.965 . S
Zn73 O71 1.950 . S
Zn73 O80 1.938 . S
Zn73 O81 1.906 . S
Zn73 O91 1.953 . S
Zn74 O71 1.945 . S
Zn74 O76 1.932 . S
Zn74 O83 1.977 . S
Zn74 O84 1.910 . S
O75 Zn72 1.933 . S
O75 C86 1.226 . S
O76 Zn74 1.932 . S
O76 C86 1.307 . S
O77 Zn70 1.919 . S
O77 C88 1.253 . S
O78 Zn72 1.941 . S
O78 C88 1.283 . S
O79 Zn72 1.965 . S
O79 C87 1.303 . S
O80 Zn73 1.938 . S
O80 C87 1.247 . S
O81 Zn73 1.906 . S
O81 C89 1.304 . S
O82 Zn70 1.924 . S
O82 C90 1.311 . S
O83 Zn74 1.977 . S
O83 C89 1.272 . S
O84 Zn74 1.910 . S
O84 C90 1.231 . S
C85 O69 1.225 . S
C85 O91 1.298 . S
C86 O75 1.226 . S
C86 O76 1.307 . S
C87 O79 1.303 . S
C87 O80 1.247 . S
C88 O77 1.253 . S
C88 O78 1.283 . S
C89 O81 1.304 . S
C89 O83 1.272 . S
C90 O82 1.311 . S
C90 O84 1.231 . S
O91 Zn73 1.953 . S
O91 C85 1.298 . S
O92 Zn93 1.953 . S
O92 C108 1.225 . S
Zn93 O92 1.953 . S
Zn93 O94 1.949 . S
Zn93 O100 1.919 . S
Zn93 O105 1.924 . S
O94 Zn93 1.949 . S
O94 Zn95 1.923 . S
O94 Zn96 1.950 . S
O94 Zn97 1.945 . S
Zn95 O94 1.923 . S
Zn95 O98 1.933 1_554 S
Zn95 O101 1.941 . S
Zn95 O102 1.965 . S
Zn96 O94 1.950 . S
Zn96 O103 1.938 . S
Zn96 O104 1.906 . S
Zn96 O114 1.953 . S
Zn97 O94 1.945 . S
Zn97 O99 1.932 1_554 S
Zn97 O106 1.977 . S
Zn97 O107 1.910 . S
O98 Zn95 1.933 1_556 S
O98 C109 1.226 . S
O99 Zn97 1.932 1_556 S
O99 C109 1.307 . S
O100 Zn93 1.919 . S
O100 C111 1.253 . S
O101 Zn95 1.941 . S
O101 C111 1.283 . S
O102 Zn95 1.965 . S
O102 C110 1.303 . S
O103 Zn96 1.938 . S
O103 C110 1.247 . S
O104 Zn96 1.906 . S
O104 C112 1.304 . S
O105 Zn93 1.924 . S
O105 C113 1.311 . S
O106 Zn97 1.977 . S
O106 C112 1.272 . S
O107 Zn97 1.910 . S
O107 C113 1.231 . S
C108 O92 1.225 . S
C108 O114 1.298 . S
C109 O98 1.226 . S
C109 O99 1.307 . S
C110 O102 1.303 . S
C110 O103 1.247 . S
C111 O100 1.253 . S
C111 O101 1.283 . S
C112 O104 1.304 . S
C112 O106 1.272 . S
C113 O105 1.311 . S
C113 O107 1.231 . S
O114 Zn96 1.953 . S
O114 C108 1.298 . S
O115 Zn116 1.953 . S
O115 C131 1.225 . S
Zn116 O115 1.953 . S
Zn116 O117 1.949 . S
Zn116 O123 1.919 . S
Zn116 O128 1.924 . S
O117 Zn116 1.949 . S
O117 Zn118 1.923 . S
O117 Zn119 1.950 . S
O117 Zn120 1.945 . S
Zn118 O117 1.923 . S
Zn118 O121 1.933 1_554 S
Zn118 O124 1.941 . S
Zn118 O125 1.965 . S
Zn119 O117 1.950 . S
Zn119 O126 1.938 . S
Zn119 O127 1.906 . S
Zn119 O137 1.953 . S
Zn120 O117 1.945 . S
Zn120 O122 1.932 1_554 S
Zn120 O129 1.977 . S
Zn120 O130 1.910 . S
O121 Zn118 1.933 1_556 S
O121 C132 1.226 . S
O122 Zn120 1.932 1_556 S
O122 C132 1.307 . S
O123 Zn116 1.919 . S
O123 C134 1.253 . S
O124 Zn118 1.941 . S
O124 C134 1.283 . S
O125 Zn118 1.965 . S
O125 C133 1.303 . S
O126 Zn119 1.938 . S
O126 C133 1.247 . S
O127 Zn119 1.906 . S
O127 C135 1.304 . S
O128 Zn116 1.924 . S
O128 C136 1.311 . S
O129 Zn120 1.977 . S
O129 C135 1.272 . S
O130 Zn120 1.910 . S
O130 C136 1.231 . S
C131 O115 1.225 . S
C131 O137 1.298 . S
C132 O121 1.226 . S
C132 O122 1.307 . S
C133 O125 1.303 . S
C133 O126 1.247 . S
C134 O123 1.253 . S
C134 O124 1.283 . S
C135 O127 1.304 . S
C135 O129 1.272 . S
C136 O128 1.311 . S
C136 O130 1.231 . S
O137 Zn119 1.953 . S
O137 C131 1.298 . S
O138 Zn139 1.953 . S
O138 C154 1.225 . S
Zn139 O138 1.953 . S
Zn139 O140 1.949 . S
Zn139 O146 1.919 . S
Zn139 O151 1.924 . S
O140 Zn139 1.949 . S
O140 Zn141 1.923 . S
O140 Zn142 1.950 . S
O140 Zn143 1.945 . S
Zn141 O140 1.923 . S
Zn141 O144 1.933 1_556 S
Zn141 O147 1.941 . S
Zn141 O148 1.965 . S
Zn142 O140 1.950 . S
Zn142 O149 1.938 . S
Zn142 O150 1.906 . S
Zn142 O160 1.953 . S
Zn143 O140 1.945 . S
Zn143 O145 1.932 1_556 S
Zn143 O152 1.977 . S
Zn143 O153 1.910 . S
O144 Zn141 1.933 1_554 S
O144 C155 1.226 . S
O145 Zn143 1.932 1_554 S
O145 C155 1.307 . S
O146 Zn139 1.919 . S
O146 C157 1.253 . S
O147 Zn141 1.941 . S
O147 C157 1.283 . S
O148 Zn141 1.965 . S
O148 C156 1.303 . S
O149 Zn142 1.938 . S
O149 C156 1.247 . S
O150 Zn142 1.906 . S
O150 C158 1.304 . S
O151 Zn139 1.924 . S
O151 C159 1.311 . S
O152 Zn143 1.977 . S
O152 C158 1.272 . S
O153 Zn143 1.910 . S
O153 C159 1.231 . S
C154 O138 1.225 . S
C154 O160 1.298 . S
C155 O144 1.226 . S
C155 O145 1.307 . S
C156 O148 1.303 . S
C156 O149 1.247 . S
C157 O146 1.253 . S
C157 O147 1.283 . S
C158 O150 1.304 . S
C158 O152 1.272 . S
C159 O151 1.311 . S
C159 O153 1.231 . S
O160 Zn142 1.953 . S
O160 C154 1.298 . S
O161 Zn162 1.953 . S
O161 C177 1.225 . S
Zn162 O161 1.953 . S
Zn162 O163 1.949 . S
Zn162 O169 1.919 . S
Zn162 O174 1.924 . S
O163 Zn162 1.949 . S
O163 Zn164 1.923 . S
O163 Zn165 1.950 . S
O163 Zn166 1.945 . S
Zn164 O163 1.923 . S
Zn164 O167 1.933 1_556 S
Zn164 O170 1.941 . S
Zn164 O171 1.965 . S
Zn165 O163 1.950 . S
Zn165 O172 1.938 . S
Zn165 O173 1.906 . S
Zn165 O183 1.953 . S
Zn166 O163 1.945 . S
Zn166 O168 1.932 1_556 S
Zn166 O175 1.977 . S
Zn166 O176 1.910 . S
O167 Zn164 1.933 1_554 S
O167 C178 1.226 . S
O168 Zn166 1.932 1_554 S
O168 C178 1.307 . S
O169 Zn162 1.919 . S
O169 C180 1.253 . S
O170 Zn164 1.941 . S
O170 C180 1.283 . S
O171 Zn164 1.965 . S
O171 C179 1.303 . S
O172 Zn165 1.938 . S
O172 C179 1.247 . S
O173 Zn165 1.906 . S
O173 C181 1.304 . S
O174 Zn162 1.924 . S
O174 C182 1.311 . S
O175 Zn166 1.977 . S
O175 C181 1.272 . S
O176 Zn166 1.910 . S
O176 C182 1.231 . S
C177 O161 1.225 . S
C177 O183 1.298 . S
C178 O167 1.226 . S
C178 O168 1.307 . S
C179 O171 1.303 . S
C179 O172 1.247 . S
C180 O169 1.253 . S
C180 O170 1.283 . S
C181 O173 1.304 . S
C181 O175 1.272 . S
C182 O174 1.311 . S
C182 O176 1.231 . S
O183 Zn165 1.953 . S
O183 C177 1.298 . S
C184 C185 1.349 . S
C184 C186 1.327 . S
C184 H209 0.950 . S
C185 C184 1.349 . S
C185 C201 1.349 . S
C186 C184 1.327 . S
C186 C205 1.429 . S
C186 H210 0.950 . S
C187 C204 1.574 . S
C187 C206 1.368 . S
C187 H211 0.949 . S
H188 C192 0.949 . S
C189 C190 1.349 . S
C189 C191 1.327 . S
C189 H212 0.950 . S
C190 C189 1.349 . S
C190 C202 1.349 . S
C191 C189 1.327 . S
C191 C207 1.429 . S
C191 H213 0.950 . S
C192 H188 0.949 . S
C192 C200 1.574 . S
C192 C208 1.368 . S
H193 C201 0.950 . S
H194 C199 0.950 . S
H195 C200 0.949 . S
H196 C202 0.950 . S
H197 C203 0.950 . S
H198 C204 0.949 . S
C199 H194 0.950 . S
C199 C201 1.327 . S
C199 C205 1.429 . S
C200 C192 1.574 . S
C200 H195 0.949 . S
C200 C206 1.368 . S
C201 C185 1.349 . S
C201 H193 0.950 . S
C201 C199 1.327 . S
C202 C190 1.349 . S
C202 H196 0.950 . S
C202 C203 1.327 . S
C203 H197 0.950 . S
C203 C202 1.327 . S
C203 C207 1.429 . S
C204 C187 1.574 . S
C204 H198 0.949 . S
C204 C208 1.368 . S
C205 C186 1.429 . S
C205 C199 1.429 . S
C205 C206 1.523 . S
C206 C187 1.368 . S
C206 C200 1.368 . S
C206 C205 1.523 . S
C207 C191 1.429 . S
C207 C203 1.429 . S
C207 C208 1.523 . S
C208 C192 1.368 . S
C208 C204 1.368 . S
C208 C207 1.523 . S
H209 C184 0.950 . S
H210 C186 0.950 . S
H211 C187 0.949 . S
H212 C189 0.950 . S
H213 C191 0.950 . S
C214 C215 1.349 . S
C214 C216 1.327 . S
C214 H239 0.950 . S
C215 C214 1.349 . S
C215 C231 1.349 . S
C216 C214 1.327 . S
C216 C235 1.429 . S
C216 H240 0.950 . S
C217 C234 1.574 . S
C217 C236 1.368 . S
C217 H241 0.949 . S
H218 C222 0.949 . S
C219 C220 1.349 . S
C219 C221 1.327 . S
C219 H242 0.950 . S
C220 C219 1.349 . S
C220 C232 1.349 . S
C221 C219 1.327 . S
C221 C237 1.429 . S
C221 H243 0.950 . S
C222 H218 0.949 . S
C222 C230 1.574 . S
C222 C238 1.368 . S
H223 C231 0.950 . S
H224 C229 0.950 . S
H225 C230 0.949 . S
H226 C232 0.950 . S
H227 C233 0.950 . S
H228 C234 0.949 . S
C229 H224 0.950 . S
C229 C231 1.327 . S
C229 C235 1.429 . S
C230 C222 1.574 . S
C230 H225 0.949 . S
C230 C236 1.368 . S
C231 C215 1.349 . S
C231 H223 0.950 . S
C231 C229 1.327 . S
C232 C220 1.349 . S
C232 H226 0.950 . S
C232 C233 1.327 . S
C233 H227 0.950 . S
C233 C232 1.327 . S
C233 C237 1.429 . S
C234 C217 1.574 . S
C234 H228 0.949 . S
C234 C238 1.368 . S
C235 C216 1.429 . S
C235 C229 1.429 . S
C235 C236 1.523 . S
C236 C217 1.368 . S
C236 C230 1.368 . S
C236 C235 1.523 . S
C237 C221 1.429 . S
C237 C233 1.429 . S
C237 C238 1.523 . S
C238 C222 1.368 . S
C238 C234 1.368 . S
C238 C237 1.523 . S
H239 C214 0.950 . S
H240 C216 0.950 . S
H241 C217 0.949 . S
H242 C219 0.950 . S
H243 C221 0.950 . S
C244 C245 1.349 . S
C244 C246 1.327 . S
C244 H269 0.950 . S
C245 C244 1.349 . S
C245 C261 1.349 . S
C246 C244 1.327 . S
C246 C265 1.429 . S
C246 H270 0.950 . S
C247 C264 1.574 . S
C247 C266 1.368 . S
C247 H271 0.949 . S
H248 C252 0.949 . S
C249 C250 1.349 . S
C249 C251 1.327 . S
C249 H272 0.950 . S
C250 C249 1.349 . S
C250 C262 1.349 . S
C251 C249 1.327 . S
C251 C267 1.429 . S
C251 H273 0.950 . S
C252 H248 0.949 . S
C252 C260 1.574 . S
C252 C268 1.368 . S
H253 C261 0.950 . S
H254 C259 0.950 . S
H255 C260 0.949 . S
H256 C262 0.950 . S
H257 C263 0.950 . S
H258 C264 0.949 . S
C259 H254 0.950 . S
C259 C261 1.327 . S
C259 C265 1.429 . S
C260 C252 1.574 . S
C260 H255 0.949 . S
C260 C266 1.368 . S
C261 C245 1.349 . S
C261 H253 0.950 . S
C261 C259 1.327 . S
C262 C250 1.349 . S
C262 H256 0.950 . S
C262 C263 1.327 . S
C263 H257 0.950 . S
C263 C262 1.327 . S
C263 C267 1.429 . S
C264 C247 1.574 . S
C264 H258 0.949 . S
C264 C268 1.368 . S
C265 C246 1.429 . S
C265 C259 1.429 . S
C265 C266 1.523 . S
C266 C247 1.368 . S
C266 C260 1.368 . S
C266 C265 1.523 . S
C267 C251 1.429 . S
C267 C263 1.429 . S
C267 C268 1.523 . S
C268 C252 1.368 . S
C268 C264 1.368 . S
C268 C267 1.523 . S
H269 C244 0.950 . S
H270 C246 0.950 . S
H271 C247 0.949 . S
H272 C249 0.950 . S
H273 C251 0.950 . S
C274 C275 1.349 . S
C274 C276 1.327 . S
C274 H299 0.950 . S
C275 C274 1.349 . S
C275 C291 1.349 . S
C276 C274 1.327 . S
C276 C295 1.429 . S
C276 H300 0.950 . S
C277 C294 1.574 . S
C277 C296 1.368 . S
C277 H301 0.949 . S
H278 C282 0.949 . S
C279 C280 1.349 . S
C279 C281 1.327 . S
C279 H302 0.950 . S
C280 C279 1.349 . S
C280 C292 1.349 . S
C281 C279 1.327 . S
C281 C297 1.429 . S
C281 H303 0.950 . S
C282 H278 0.949 . S
C282 C290 1.574 . S
C282 C298 1.368 . S
H283 C291 0.950 . S
H284 C289 0.950 . S
H285 C290 0.949 . S
H286 C292 0.950 . S
H287 C293 0.950 . S
H288 C294 0.949 . S
C289 H284 0.950 . S
C289 C291 1.327 . S
C289 C295 1.429 . S
C290 C282 1.574 . S
C290 H285 0.949 . S
C290 C296 1.368 . S
C291 C275 1.349 . S
C291 H283 0.950 . S
C291 C289 1.327 . S
C292 C280 1.349 . S
C292 H286 0.950 . S
C292 C293 1.327 . S
C293 H287 0.950 . S
C293 C292 1.327 . S
C293 C297 1.429 . S
C294 C277 1.574 . S
C294 H288 0.949 . S
C294 C298 1.368 . S
C295 C276 1.429 . S
C295 C289 1.429 . S
C295 C296 1.523 . S
C296 C277 1.368 . S
C296 C290 1.368 . S
C296 C295 1.523 . S
C297 C281 1.429 . S
C297 C293 1.429 . S
C297 C298 1.523 . S
C298 C282 1.368 . S
C298 C294 1.368 . S
C298 C297 1.523 . S
H299 C274 0.950 . S
H300 C276 0.950 . S
H301 C277 0.949 . S
H302 C279 0.950 . S
H303 C281 0.950 . S
C304 C305 1.349 . S
C304 C306 1.327 . S
C304 H329 0.950 . S
C305 C304 1.349 . S
C305 C321 1.349 . S
C306 C304 1.327 . S
C306 C325 1.429 . S
C306 H330 0.950 . S
C307 C324 1.574 1_565 S
C307 C326 1.368 . S
C307 H331 0.949 . S
H308 C312 0.949 . S
C309 C310 1.349 . S
C309 C311 1.327 . S
C309 H332 0.950 . S
C310 C309 1.349 . S
C310 C322 1.349 . S
C311 C309 1.327 . S
C311 C327 1.429 . S
C311 H333 0.950 . S
C312 H308 0.949 . S
C312 C320 1.574 1_545 S
C312 C328 1.368 . S
H313 C321 0.950 . S
H314 C319 0.950 . S
H315 C320 0.949 . S
H316 C322 0.950 . S
H317 C323 0.950 . S
H318 C324 0.949 . S
C319 H314 0.950 . S
C319 C321 1.327 . S
C319 C325 1.429 . S
C320 C312 1.574 1_565 S
C320 H315 0.949 . S
C320 C326 1.368 . S
C321 C305 1.349 . S
C321 H313 0.950 . S
C321 C319 1.327 . S
C322 C310 1.349 . S
C322 H316 0.950 . S
C322 C323 1.327 . S
C323 H317 0.950 . S
C323 C322 1.327 . S
C323 C327 1.429 . S
C324 C307 1.574 1_545 S
C324 H318 0.949 . S
C324 C328 1.368 . S
C325 C306 1.429 . S
C325 C319 1.429 . S
C325 C326 1.523 . S
C326 C307 1.368 . S
C326 C320 1.368 . S
C326 C325 1.523 . S
C327 C311 1.429 . S
C327 C323 1.429 . S
C327 C328 1.523 . S
C328 C312 1.368 . S
C328 C324 1.368 . S
C328 C327 1.523 . S
H329 C304 0.950 . S
H330 C306 0.950 . S
H331 C307 0.949 . S
H332 C309 0.950 . S
H333 C311 0.950 . S
C334 C335 1.349 . S
C334 C336 1.327 . S
C334 H359 0.950 . S
C335 C334 1.349 . S
C335 C351 1.349 . S
C336 C334 1.327 . S
C336 C355 1.429 . S
C336 H360 0.950 . S
C337 C354 1.574 . S
C337 C356 1.368 . S
C337 H361 0.949 . S
H338 C342 0.949 . S
C339 C340 1.349 . S
C339 C341 1.327 . S
C339 H362 0.950 . S
C340 C339 1.349 . S
C340 C352 1.349 . S
C341 C339 1.327 . S
C341 C357 1.429 . S
C341 H363 0.950 . S
C342 H338 0.949 . S
C342 C350 1.574 . S
C342 C358 1.368 . S
H343 C351 0.950 . S
H344 C349 0.950 . S
H345 C350 0.949 . S
H346 C352 0.950 . S
H347 C353 0.950 . S
H348 C354 0.949 . S
C349 H344 0.950 . S
C349 C351 1.327 . S
C349 C355 1.429 . S
C350 C342 1.574 . S
C350 H345 0.949 . S
C350 C356 1.368 . S
C351 C335 1.349 . S
C351 H343 0.950 . S
C351 C349 1.327 . S
C352 C340 1.349 . S
C352 H346 0.950 . S
C352 C353 1.327 . S
C353 H347 0.950 . S
C353 C352 1.327 . S
C353 C357 1.429 . S
C354 C337 1.574 . S
C354 H348 0.949 . S
C354 C358 1.368 . S
C355 C336 1.429 . S
C355 C349 1.429 . S
C355 C356 1.523 . S
C356 C337 1.368 . S
C356 C350 1.368 . S
C356 C355 1.523 . S
C357 C341 1.429 . S
C357 C353 1.429 . S
C357 C358 1.523 . S
C358 C342 1.368 . S
C358 C354 1.368 . S
C358 C357 1.523 . S
H359 C334 0.950 . S
H360 C336 0.950 . S
H361 C337 0.949 . S
H362 C339 0.950 . S
H363 C341 0.950 . S
C364 C365 1.349 . S
C364 C366 1.327 . S
C364 H389 0.950 . S
C365 C364 1.349 . S
C365 C381 1.349 . S
C366 C364 1.327 . S
C366 C385 1.429 . S
C366 H390 0.950 . S
C367 C384 1.574 1_565 S
C367 C386 1.368 . S
C367 H391 0.949 . S
H368 C372 0.949 . S
C369 C370 1.349 . S
C369 C371 1.327 . S
C369 H392 0.950 . S
C370 C369 1.349 . S
C370 C382 1.349 . S
C371 C369 1.327 . S
C371 C387 1.429 . S
C371 H393 0.950 . S
C372 H368 0.949 . S
C372 C380 1.574 1_545 S
C372 C388 1.368 . S
H373 C381 0.950 . S
H374 C379 0.950 . S
H375 C380 0.949 . S
H376 C382 0.950 . S
H377 C383 0.950 . S
H378 C384 0.949 . S
C379 H374 0.950 . S
C379 C381 1.327 . S
C379 C385 1.429 . S
C380 C372 1.574 1_565 S
C380 H375 0.949 . S
C380 C386 1.368 . S
C381 C365 1.349 . S
C381 H373 0.950 . S
C381 C379 1.327 . S
C382 C370 1.349 . S
C382 H376 0.950 . S
C382 C383 1.327 . S
C383 H377 0.950 . S
C383 C382 1.327 . S
C383 C387 1.429 . S
C384 C367 1.574 1_545 S
C384 H378 0.949 . S
C384 C388 1.368 . S
C385 C366 1.429 . S
C385 C379 1.429 . S
C385 C386 1.523 . S
C386 C367 1.368 . S
C386 C380 1.368 . S
C386 C385 1.523 . S
C387 C371 1.429 . S
C387 C383 1.429 . S
C387 C388 1.523 . S
C388 C372 1.368 . S
C388 C384 1.368 . S
C388 C387 1.523 . S
H389 C364 0.950 . S
H390 C366 0.950 . S
H391 C367 0.949 . S
H392 C369 0.950 . S
H393 C371 0.950 . S
C394 C395 1.349 . S
C394 C396 1.327 . S
C394 H419 0.950 . S
C395 C394 1.349 . S
C395 C411 1.349 . S
C396 C394 1.327 . S
C396 C415 1.429 . S
C396 H420 0.950 . S
C397 C414 1.574 . S
C397 C416 1.368 . S
C397 H421 0.949 . S
H398 C402 0.949 . S
C399 C400 1.349 . S
C399 C401 1.327 . S
C399 H422 0.950 . S
C400 C399 1.349 . S
C400 C412 1.349 . S
C401 C399 1.327 . S
C401 C417 1.429 . S
C401 H423 0.950 . S
C402 H398 0.949 . S
C402 C410 1.574 . S
C402 C418 1.368 . S
H403 C411 0.950 . S
H404 C409 0.950 . S
H405 C410 0.949 . S
H406 C412 0.950 . S
H407 C413 0.950 . S
H408 C414 0.949 . S
C409 H404 0.950 . S
C409 C411 1.327 . S
C409 C415 1.429 . S
C410 C402 1.574 . S
C410 H405 0.949 . S
C410 C416 1.368 . S
C411 C395 1.349 . S
C411 H403 0.950 . S
C411 C409 1.327 . S
C412 C400 1.349 . S
C412 H406 0.950 . S
C412 C413 1.327 . S
C413 H407 0.950 . S
C413 C412 1.327 . S
C413 C417 1.429 . S
C414 C397 1.574 . S
C414 H408 0.949 . S
C414 C418 1.368 . S
C415 C396 1.429 . S
C415 C409 1.429 . S
C415 C416 1.523 . S
C416 C397 1.368 . S
C416 C410 1.368 . S
C416 C415 1.523 . S
C417 C401 1.429 . S
C417 C413 1.429 . S
C417 C418 1.523 . S
C418 C402 1.368 . S
C418 C414 1.368 . S
C418 C417 1.523 . S
H419 C394 0.950 . S
H420 C396 0.950 . S
H421 C397 0.949 . S
H422 C399 0.950 . S
H423 C401 0.950 . S
C424 C425 1.349 . S
C424 C426 1.327 . S
C424 H449 0.950 . S
C425 C424 1.349 . S
C425 C441 1.349 . S
C426 C424 1.327 . S
C426 C445 1.429 . S
C426 H450 0.950 . S
C427 C444 1.574 . S
C427 C446 1.368 1_556 S
C427 H451 0.949 . S
H428 C432 0.949 . S
C429 C430 1.349 . S
C429 C431 1.327 . S
C429 H452 0.950 . S
C430 C429 1.349 . S
C430 C442 1.349 . S
C431 C429 1.327 . S
C431 C447 1.429 . S
C431 H453 0.950 . S
C432 H428 0.949 . S
C432 C440 1.574 . S
C432 C448 1.368 1_554 S
H433 C441 0.950 1_556 S
H434 C439 0.950 . S
H435 C440 0.949 . S
H436 C442 0.950 1_554 S
H437 C443 0.950 . S
H438 C444 0.949 . S
C439 H434 0.950 . S
C439 C441 1.327 1_556 S
C439 C445 1.429 1_556 S
C440 C432 1.574 . S
C440 H435 0.949 . S
C440 C446 1.368 . S
C441 C425 1.349 . S
C441 H433 0.950 1_554 S
C441 C439 1.327 1_554 S
C442 C430 1.349 . S
C442 H436 0.950 1_556 S
C442 C443 1.327 1_556 S
C443 H437 0.950 . S
C443 C442 1.327 1_554 S
C443 C447 1.429 1_554 S
C444 C427 1.574 . S
C444 H438 0.949 . S
C444 C448 1.368 . S
C445 C426 1.429 . S
C445 C439 1.429 1_554 S
C445 C446 1.523 . S
C446 C427 1.368 1_554 S
C446 C440 1.368 . S
C446 C445 1.523 . S
C447 C431 1.429 . S
C447 C443 1.429 1_556 S
C447 C448 1.523 . S
C448 C432 1.368 1_556 S
C448 C444 1.368 . S
C448 C447 1.523 . S
H449 C424 0.950 . S
H450 C426 0.950 . S
H451 C427 0.949 . S
H452 C429 0.950 . S
H453 C431 0.950 . S
C454 C455 1.349 . S
C454 C456 1.327 . S
C454 H479 0.950 . S
C455 C454 1.349 . S
C455 C471 1.349 . S
C456 C454 1.327 . S
C456 C475 1.429 . S
C456 H480 0.950 . S
C457 C474 1.574 1_565 S
C457 C476 1.368 1_556 S
C457 H481 0.949 . S
H458 C462 0.949 . S
C459 C460 1.349 . S
C459 C461 1.327 . S
C459 H482 0.950 . S
C460 C459 1.349 . S
C460 C472 1.349 . S
C461 C459 1.327 . S
C461 C477 1.429 . S
C461 H483 0.950 . S
C462 H458 0.949 . S
C462 C470 1.574 1_545 S
C462 C478 1.368 1_554 S
H463 C471 0.950 1_556 S
H464 C469 0.946 1_556 S
H465 C470 0.949 . S
H466 C472 0.950 1_554 S
H467 C473 0.946 1_554 S
H468 C474 0.949 . S
C469 H464 0.946 1_554 S
C469 C471 1.328 . S
C469 C475 1.431 . S
C470 C462 1.574 1_565 S
C470 H465 0.949 . S
C470 C476 1.368 . S
C471 C455 1.349 . S
C471 H463 0.950 1_554 S
C471 C469 1.328 . S
C472 C460 1.349 . S
C472 H466 0.950 1_556 S
C472 C473 1.328 . S
C473 H467 0.946 1_556 S
C473 C472 1.328 . S
C473 C477 1.431 . S
C474 C457 1.574 1_545 S
C474 H468 0.949 . S
C474 C478 1.368 . S
C475 C456 1.429 . S
C475 C469 1.431 . S
C475 C476 1.523 . S
C476 C457 1.368 1_554 S
C476 C470 1.368 . S
C476 C475 1.523 . S
C477 C461 1.429 . S
C477 C473 1.431 . S
C477 C478 1.523 . S
C478 C462 1.368 1_556 S
C478 C474 1.368 . S
C478 C477 1.523 . S
H479 C454 0.950 . S
H480 C456 0.950 . S
H481 C457 0.949 . S
H482 C459 0.950 . S
H483 C461 0.950 . S
C484 C485 1.349 . S
C484 C486 1.327 . S
C484 H509 0.950 . S
C485 C484 1.349 . S
C485 C501 1.349 . S
C486 C484 1.327 . S
C486 C505 1.429 . S
C486 H510 0.950 . S
C487 C504 1.574 . S
C487 C506 1.368 1_554 S
C487 H511 0.949 . S
H488 C492 0.949 . S
C489 C490 1.349 . S
C489 C491 1.327 . S
C489 H512 0.950 . S
C490 C489 1.349 . S
C490 C502 1.349 . S
C491 C489 1.327 . S
C491 C507 1.429 . S
C491 H513 0.950 . S
C492 H488 0.949 . S
C492 C500 1.574 . S
C492 C508 1.368 1_556 S
H493 C501 0.950 1_554 S
H494 C499 0.950 . S
H495 C500 0.949 . S
H496 C502 0.950 1_556 S
H497 C503 0.950 . S
H498 C504 0.949 . S
C499 H494 0.950 . S
C499 C501 1.327 1_554 S
C499 C505 1.429 1_554 S
C500 C492 1.574 . S
C500 H495 0.949 . S
C500 C506 1.368 . S
C501 C485 1.349 . S
C501 H493 0.950 1_556 S
C501 C499 1.327 1_556 S
C502 C490 1.349 . S
C502 H496 0.950 1_554 S
C502 C503 1.327 1_554 S
C503 H497 0.950 . S
C503 C502 1.327 1_556 S
C503 C507 1.429 1_556 S
C504 C487 1.574 . S
C504 H498 0.949 . S
C504 C508 1.368 . S
C505 C486 1.429 . S
C505 C499 1.429 1_556 S
C505 C506 1.523 . S
C506 C487 1.368 1_556 S
C506 C500 1.368 . S
C506 C505 1.523 . S
C507 C491 1.429 . S
C507 C503 1.429 1_554 S
C507 C508 1.523 . S
C508 C492 1.368 1_554 S
C508 C504 1.368 . S
C508 C507 1.523 . S
H509 C484 0.950 . S
H510 C486 0.950 . S
H511 C487 0.949 . S
H512 C489 0.950 . S
H513 C491 0.950 . S
C514 C515 1.349 . S
C514 C516 1.327 . S
C514 H539 0.950 . S
C515 C514 1.349 . S
C515 C531 1.349 . S
C516 C514 1.327 . S
C516 C535 1.429 . S
C516 H540 0.950 . S
C517 C534 1.574 1_545 S
C517 C536 1.368 1_554 S
C517 H541 0.949 . S
H518 C522 0.949 . S
C519 C520 1.349 . S
C519 C521 1.327 . S
C519 H542 0.950 . S
C520 C519 1.349 . S
C520 C532 1.349 . S
C521 C519 1.327 . S
C521 C537 1.429 . S
C521 H543 0.950 . S
C522 H518 0.949 . S
C522 C530 1.574 1_565 S
C522 C538 1.368 1_556 S
H523 C531 0.950 1_554 S
H524 C529 0.950 . S
H525 C530 0.949 . S
H526 C532 0.950 1_556 S
H527 C533 0.950 . S
H528 C534 0.949 . S
C529 H524 0.950 . S
C529 C531 1.327 1_554 S
C529 C535 1.429 1_554 S
C530 C522 1.574 1_545 S
C530 H525 0.949 . S
C530 C536 1.368 . S
C531 C515 1.349 . S
C531 H523 0.950 1_556 S
C531 C529 1.327 1_556 S
C532 C520 1.349 . S
C532 H526 0.950 1_554 S
C532 C533 1.327 1_554 S
C533 H527 0.950 . S
C533 C532 1.327 1_556 S
C533 C537 1.429 1_556 S
C534 C517 1.574 1_565 S
C534 H528 0.949 . S
C534 C538 1.368 . S
C535 C516 1.429 . S
C535 C529 1.429 1_556 S
C535 C536 1.523 . S
C536 C517 1.368 1_556 S
C536 C530 1.368 . S
C536 C535 1.523 . S
C537 C521 1.429 . S
C537 C533 1.429 1_554 S
C537 C538 1.523 . S
C538 C522 1.368 1_554 S
C538 C534 1.368 . S
C538 C537 1.523 . S
H539 C514 0.950 . S
H540 C516 0.950 . S
H541 C517 0.949 . S
H542 C519 0.950 . S
H543 C521 0.950 . S
C544 C545 1.349 . S
C544 C546 1.327 . S
C544 H569 0.950 . S
C545 C544 1.349 . S
C545 C561 1.349 . S
C546 C544 1.327 . S
C546 C565 1.429 . S
C546 H570 0.950 . S
C547 C564 1.574 . S
C547 C566 1.368 . S
C547 H571 0.949 . S
H548 C552 0.949 . S
C549 C550 1.349 . S
C549 C551 1.327 . S
C549 H572 0.950 . S
C550 C549 1.349 . S
C550 C562 1.349 . S
C551 C549 1.327 . S
C551 C567 1.429 . S
C551 H573 0.950 . S
C552 H548 0.949 . S
C552 C560 1.574 . S
C552 C568 1.368 . S
H553 C561 0.950 . S
H554 C559 0.950 . S
H555 C560 0.949 . S
H556 C562 0.950 . S
H557 C563 0.950 . S
H558 C564 0.949 . S
C559 H554 0.950 . S
C559 C561 1.327 . S
C559 C565 1.429 . S
C560 C552 1.574 . S
C560 H555 0.949 . S
C560 C566 1.368 . S
C561 C545 1.349 . S
C561 H553 0.950 . S
C561 C559 1.327 . S
C562 C550 1.349 . S
C562 H556 0.950 . S
C562 C563 1.327 . S
C563 H557 0.950 . S
C563 C562 1.327 . S
C563 C567 1.429 . S
C564 C547 1.574 . S
C564 H558 0.949 . S
C564 C568 1.368 . S
C565 C546 1.429 . S
C565 C559 1.429 . S
C565 C566 1.523 . S
C566 C547 1.368 . S
C566 C560 1.368 . S
C566 C565 1.523 . S
C567 C551 1.429 . S
C567 C563 1.429 . S
C567 C568 1.523 1_556 S
C568 C552 1.368 . S
C568 C564 1.368 . S
C568 C567 1.523 1_554 S
H569 C544 0.950 . S
H570 C546 0.950 . S
H571 C547 0.949 . S
H572 C549 0.950 . S
H573 C551 0.950 . S
C574 C575 1.349 . S
C574 C576 1.327 . S
C574 H599 0.950 . S
C575 C574 1.349 . S
C575 C591 1.349 . S
C576 C574 1.327 . S
C576 C595 1.429 . S
C576 H600 0.950 . S
C577 C594 1.574 . S
C577 C596 1.368 . S
C577 H601 0.949 . S
H578 C582 0.949 . S
C579 C580 1.349 . S
C579 C581 1.327 . S
C579 H602 0.950 . S
C580 C579 1.349 . S
C580 C592 1.349 . S
C581 C579 1.327 . S
C581 C597 1.429 . S
C581 H603 0.950 . S
C582 H578 0.949 . S
C582 C590 1.574 . S
C582 C598 1.368 . S
H583 C591 0.950 . S
H584 C589 0.950 . S
H585 C590 0.949 . S
H586 C592 0.950 . S
H587 C593 0.950 . S
H588 C594 0.949 . S
C589 H584 0.950 . S
C589 C591 1.327 . S
C589 C595 1.429 . S
C590 C582 1.574 . S
C590 H585 0.949 . S
C590 C596 1.368 . S
C591 C575 1.349 . S
C591 H583 0.950 . S
C591 C589 1.327 . S
C592 C580 1.349 . S
C592 H586 0.950 . S
C592 C593 1.327 . S
C593 H587 0.950 . S
C593 C592 1.327 . S
C593 C597 1.429 . S
C594 C577 1.574 . S
C594 H588 0.949 . S
C594 C598 1.368 . S
C595 C576 1.429 . S
C595 C589 1.429 . S
C595 C596 1.523 . S
C596 C577 1.368 . S
C596 C590 1.368 . S
C596 C595 1.523 . S
C597 C581 1.429 . S
C597 C593 1.429 . S
C597 C598 1.523 1_556 S
C598 C582 1.368 . S
C598 C594 1.368 . S
C598 C597 1.523 1_554 S
H599 C574 0.950 . S
H600 C576 0.950 . S
H601 C577 0.949 . S
H602 C579 0.950 . S
H603 C581 0.950 . S
C604 C605 1.349 . S
C604 C606 1.327 . S
C604 H629 0.950 . S
C605 C604 1.349 . S
C605 C621 1.349 . S
C606 C604 1.327 . S
C606 C625 1.429 . S
C606 H630 0.950 . S
C607 C624 1.574 . S
C607 C626 1.368 . S
C607 H631 0.949 . S
H608 C612 0.949 . S
C609 C610 1.349 . S
C609 C611 1.327 . S
C609 H632 0.950 . S
C610 C609 1.349 . S
C610 C622 1.349 . S
C611 C609 1.327 . S
C611 C627 1.429 . S
C611 H633 0.950 . S
C612 H608 0.949 . S
C612 C620 1.574 . S
C612 C628 1.368 . S
H613 C621 0.950 . S
H614 C619 0.950 . S
H615 C620 0.949 . S
H616 C622 0.950 . S
H617 C623 0.950 . S
H618 C624 0.949 . S
C619 H614 0.950 . S
C619 C621 1.327 . S
C619 C625 1.429 . S
C620 C612 1.574 . S
C620 H615 0.949 . S
C620 C626 1.368 . S
C621 C605 1.349 . S
C621 H613 0.950 . S
C621 C619 1.327 . S
C622 C610 1.349 . S
C622 H616 0.950 . S
C622 C623 1.327 . S
C623 H617 0.950 . S
C623 C622 1.327 . S
C623 C627 1.429 . S
C624 C607 1.574 . S
C624 H618 0.949 . S
C624 C628 1.368 . S
C625 C606 1.429 . S
C625 C619 1.429 . S
C625 C626 1.523 1_554 S
C626 C607 1.368 . S
C626 C620 1.368 . S
C626 C625 1.523 1_556 S
C627 C611 1.429 . S
C627 C623 1.429 . S
C627 C628 1.523 . S
C628 C612 1.368 . S
C628 C624 1.368 . S
C628 C627 1.523 . S
H629 C604 0.950 . S
H630 C606 0.950 . S
H631 C607 0.949 . S
H632 C609 0.950 . S
H633 C611 0.950 . S
C634 C635 1.349 . S
C634 C636 1.327 . S
C634 H659 0.950 . S
C635 C634 1.349 . S
C635 C651 1.349 . S
C636 C634 1.327 . S
C636 C655 1.429 . S
C636 H660 0.950 . S
C637 C654 1.574 . S
C637 C656 1.368 . S
C637 H661 0.949 . S
H638 C642 0.949 . S
C639 C640 1.349 . S
C639 C641 1.327 . S
C639 H662 0.950 . S
C640 C639 1.349 . S
C640 C652 1.349 . S
C641 C639 1.327 . S
C641 C657 1.429 . S
C641 H663 0.950 . S
C642 H638 0.949 . S
C642 C650 1.574 . S
C642 C658 1.368 . S
H643 C651 0.950 . S
H644 C649 0.950 . S
H645 C650 0.949 . S
H646 C652 0.950 . S
H647 C653 0.950 . S
H648 C654 0.949 . S
C649 H644 0.950 . S
C649 C651 1.327 . S
C649 C655 1.429 . S
C650 C642 1.574 . S
C650 H645 0.949 . S
C650 C656 1.368 . S
C651 C635 1.349 . S
C651 H643 0.950 . S
C651 C649 1.327 . S
C652 C640 1.349 . S
C652 H646 0.950 . S
C652 C653 1.327 . S
C653 H647 0.950 . S
C653 C652 1.327 . S
C653 C657 1.429 . S
C654 C637 1.574 . S
C654 H648 0.949 . S
C654 C658 1.368 . S
C655 C636 1.429 . S
C655 C649 1.429 . S
C655 C656 1.523 . S
C656 C637 1.368 . S
C656 C650 1.368 . S
C656 C655 1.523 . S
C657 C641 1.429 . S
C657 C653 1.429 . S
C657 C658 1.523 1_554 S
C658 C642 1.368 . S
C658 C654 1.368 . S
C658 C657 1.523 1_556 S
H659 C634 0.950 . S
H660 C636 0.950 . S
H661 C637 0.949 . S
H662 C639 0.950 . S
H663 C641 0.950 . S
C664 C665 1.349 . S
C664 C666 1.327 . S
C664 H689 0.950 . S
C665 C664 1.349 . S
C665 C681 1.349 . S
C666 C664 1.327 . S
C666 C685 1.429 . S
C666 H690 0.950 . S
C667 C684 1.574 . S
C667 C686 1.368 . S
C667 H691 0.949 . S
H668 C672 0.949 . S
C669 C670 1.349 . S
C669 C671 1.327 . S
C669 H692 0.950 . S
C670 C669 1.349 . S
C670 C682 1.349 . S
C671 C669 1.327 . S
C671 C687 1.429 . S
C671 H693 0.950 . S
C672 H668 0.949 . S
C672 C680 1.574 . S
C672 C688 1.368 . S
H673 C681 0.950 . S
H674 C679 0.950 . S
H675 C680 0.949 . S
H676 C682 0.950 . S
H677 C683 0.950 . S
H678 C684 0.949 . S
C679 H674 0.950 . S
C679 C681 1.327 . S
C679 C685 1.429 . S
C680 C672 1.574 . S
C680 H675 0.949 . S
C680 C686 1.368 . S
C681 C665 1.349 . S
C681 H673 0.950 . S
C681 C679 1.327 . S
C682 C670 1.349 . S
C682 H676 0.950 . S
C682 C683 1.327 . S
C683 H677 0.950 . S
C683 C682 1.327 . S
C683 C687 1.429 . S
C684 C667 1.574 . S
C684 H678 0.949 . S
C684 C688 1.368 . S
C685 C666 1.429 . S
C685 C679 1.429 . S
C685 C686 1.523 . S
C686 C667 1.368 . S
C686 C680 1.368 . S
C686 C685 1.523 . S
C687 C671 1.429 . S
C687 C683 1.429 . S
C687 C688 1.523 . S
C688 C672 1.368 . S
C688 C684 1.368 . S
C688 C687 1.523 . S
H689 C664 0.950 . S
H690 C666 0.950 . S
H691 C667 0.949 . S
H692 C669 0.950 . S
H693 C671 0.950 . S
C694 C695 1.349 . S
C694 C696 1.327 . S
C694 H719 0.950 . S
C695 C694 1.349 . S
C695 C711 1.349 . S
C696 C694 1.327 . S
C696 C715 1.429 . S
C696 H720 0.950 . S
C697 C714 1.574 . S
C697 C716 1.368 . S
C697 H721 0.949 . S
H698 C702 0.949 . S
C699 C700 1.349 . S
C699 C701 1.327 . S
C699 H722 0.950 . S
C700 C699 1.349 . S
C700 C712 1.349 . S
C701 C699 1.327 . S
C701 C717 1.429 . S
C701 H723 0.950 . S
C702 H698 0.949 . S
C702 C710 1.574 . S
C702 C718 1.368 . S
H703 C711 0.950 . S
H704 C709 0.950 . S
H705 C710 0.949 . S
H706 C712 0.950 . S
H707 C713 0.950 . S
H708 C714 0.949 . S
C709 H704 0.950 . S
C709 C711 1.327 . S
C709 C715 1.429 . S
C710 C702 1.574 . S
C710 H705 0.949 . S
C710 C716 1.368 . S
C711 C695 1.349 . S
C711 H703 0.950 . S
C711 C709 1.327 . S
C712 C700 1.349 . S
C712 H706 0.950 . S
C712 C713 1.327 . S
C713 H707 0.950 . S
C713 C712 1.327 . S
C713 C717 1.429 . S
C714 C697 1.574 . S
C714 H708 0.949 . S
C714 C718 1.368 . S
C715 C696 1.429 . S
C715 C709 1.429 . S
C715 C716 1.523 . S
C716 C697 1.368 . S
C716 C710 1.368 . S
C716 C715 1.523 . S
C717 C701 1.429 . S
C717 C713 1.429 . S
C717 C718 1.523 . S
C718 C702 1.368 . S
C718 C714 1.368 . S
C718 C717 1.523 . S
H719 C694 0.950 . S
H720 C696 0.950 . S
H721 C697 0.949 . S
H722 C699 0.950 . S
H723 C701 0.950 . S
C724 C725 1.349 . S
C724 C726 1.327 . S
C724 H749 0.950 . S
C725 C724 1.349 . S
C725 C741 1.349 . S
C726 C724 1.327 . S
C726 C745 1.429 . S
C726 H750 0.950 . S
C727 C744 1.574 . S
C727 C746 1.368 . S
C727 H751 0.949 . S
H728 C732 0.949 . S
C729 C730 1.349 . S
C729 C731 1.327 . S
C729 H752 0.950 . S
C730 C729 1.349 . S
C730 C742 1.349 . S
C731 C729 1.327 . S
C731 C747 1.429 . S
C731 H753 0.950 . S
C732 H728 0.949 . S
C732 C740 1.574 . S
C732 C748 1.368 . S
H733 C741 0.950 . S
H734 C739 0.950 . S
H735 C740 0.949 . S
H736 C742 0.950 . S
H737 C743 0.950 . S
H738 C744 0.949 . S
C739 H734 0.950 . S
C739 C741 1.327 . S
C739 C745 1.429 . S
C740 C732 1.574 . S
C740 H735 0.949 . S
C740 C746 1.368 . S
C741 C725 1.349 . S
C741 H733 0.950 . S
C741 C739 1.327 . S
C742 C730 1.349 . S
C742 H736 0.950 . S
C742 C743 1.327 . S
C743 H737 0.950 . S
C743 C742 1.327 . S
C743 C747 1.429 . S
C744 C727 1.574 . S
C744 H738 0.949 . S
C744 C748 1.368 . S
C745 C726 1.429 . S
C745 C739 1.429 . S
C745 C746 1.523 . S
C746 C727 1.368 . S
C746 C740 1.368 . S
C746 C745 1.523 . S
C747 C731 1.429 . S
C747 C743 1.429 . S
C747 C748 1.523 . S
C748 C732 1.368 . S
C748 C744 1.368 . S
C748 C747 1.523 . S
H749 C724 0.950 . S
H750 C726 0.950 . S
H751 C727 0.949 . S
H752 C729 0.950 . S
H753 C731 0.950 . S
C754 C755 1.349 . S
C754 C756 1.327 . S
C754 H779 0.950 . S
C755 C754 1.349 . S
C755 C771 1.349 . S
C756 C754 1.327 . S
C756 C775 1.429 . S
C756 H780 0.950 . S
C757 C774 1.574 . S
C757 C776 1.368 . S
C757 H781 0.949 . S
H758 C762 0.949 . S
C759 C760 1.349 . S
C759 C761 1.327 . S
C759 H782 0.950 . S
C760 C759 1.349 . S
C760 C772 1.349 . S
C761 C759 1.327 . S
C761 C777 1.429 . S
C761 H783 0.950 . S
C762 H758 0.949 . S
C762 C770 1.574 . S
C762 C778 1.368 . S
H763 C771 0.950 . S
H764 C769 0.950 . S
H765 C770 0.949 . S
H766 C772 0.950 . S
H767 C773 0.950 . S
H768 C774 0.949 . S
C769 H764 0.950 . S
C769 C771 1.327 . S
C769 C775 1.429 . S
C770 C762 1.574 . S
C770 H765 0.949 . S
C770 C776 1.368 . S
C771 C755 1.349 . S
C771 H763 0.950 . S
C771 C769 1.327 . S
C772 C760 1.349 . S
C772 H766 0.950 . S
C772 C773 1.327 . S
C773 H767 0.950 . S
C773 C772 1.327 . S
C773 C777 1.429 . S
C774 C757 1.574 . S
C774 H768 0.949 . S
C774 C778 1.368 . S
C775 C756 1.429 . S
C775 C769 1.429 . S
C775 C776 1.523 . S
C776 C757 1.368 . S
C776 C770 1.368 . S
C776 C775 1.523 . S
C777 C761 1.429 . S
C777 C773 1.429 . S
C777 C778 1.523 . S
C778 C762 1.368 . S
C778 C774 1.368 . S
C778 C777 1.523 . S
H779 C754 0.950 . S
H780 C756 0.950 . S
H781 C757 0.949 . S
H782 C759 0.950 . S
H783 C761 0.950 . S
C784 C785 1.349 . S
C784 C786 1.327 . S
C784 H809 0.950 . S
C785 C784 1.349 . S
C785 C801 1.349 . S
C786 C784 1.327 . S
C786 C805 1.429 . S
C786 H810 0.950 . S
C787 C804 1.574 1_455 S
C787 C806 1.368 . S
C787 H811 0.949 . S
H788 C792 0.949 . S
C789 C790 1.349 . S
C789 C791 1.327 . S
C789 H812 0.950 . S
C790 C789 1.349 . S
C790 C802 1.349 . S
C791 C789 1.327 . S
C791 C807 1.429 . S
C791 H813 0.950 . S
C792 H788 0.949 . S
C792 C800 1.574 1_655 S
C792 C808 1.368 . S
H793 C801 0.950 . S
H794 C799 0.950 . S
H795 C800 0.949 . S
H796 C802 0.950 . S
H797 C803 0.950 . S
H798 C804 0.949 . S
C799 H794 0.950 . S
C799 C801 1.327 . S
C799 C805 1.429 . S
C800 C792 1.574 1_455 S
C800 H795 0.949 . S
C800 C806 1.368 . S
C801 C785 1.349 . S
C801 H793 0.950 . S
C801 C799 1.327 . S
C802 C790 1.349 . S
C802 H796 0.950 . S
C802 C803 1.327 . S
C803 H797 0.950 . S
C803 C802 1.327 . S
C803 C807 1.429 . S
C804 C787 1.574 1_655 S
C804 H798 0.949 . S
C804 C808 1.368 . S
C805 C786 1.429 . S
C805 C799 1.429 . S
C805 C806 1.523 . S
C806 C787 1.368 . S
C806 C800 1.368 . S
C806 C805 1.523 . S
C807 C791 1.429 . S
C807 C803 1.429 . S
C807 C808 1.523 . S
C808 C792 1.368 . S
C808 C804 1.368 . S
C808 C807 1.523 . S
H809 C784 0.950 . S
H810 C786 0.950 . S
H811 C787 0.949 . S
H812 C789 0.950 . S
H813 C791 0.950 . S
C814 C815 1.349 . S
C814 C816 1.327 . S
C814 H839 0.950 . S
C815 C814 1.349 . S
C815 C831 1.349 . S
C816 C814 1.327 . S
C816 C835 1.429 . S
C816 H840 0.950 . S
C817 C834 1.574 1_655 S
C817 C836 1.368 . S
C817 H841 0.949 . S
H818 C822 0.949 . S
C819 C820 1.349 . S
C819 C821 1.327 . S
C819 H842 0.950 . S
C820 C819 1.349 . S
C820 C832 1.349 . S
C821 C819 1.327 . S
C821 C837 1.429 . S
C821 H843 0.950 . S
C822 H818 0.949 . S
C822 C830 1.574 1_455 S
C822 C838 1.368 . S
H823 C831 0.950 . S
H824 C829 0.950 . S
H825 C830 0.949 . S
H826 C832 0.950 . S
H827 C833 0.950 . S
H828 C834 0.949 . S
C829 H824 0.950 . S
C829 C831 1.327 . S
C829 C835 1.429 . S
C830 C822 1.574 1_655 S
C830 H825 0.949 . S
C830 C836 1.368 . S
C831 C815 1.349 . S
C831 H823 0.950 . S
C831 C829 1.327 . S
C832 C820 1.349 . S
C832 H826 0.950 . S
C832 C833 1.327 . S
C833 H827 0.950 . S
C833 C832 1.327 . S
C833 C837 1.429 . S
C834 C817 1.574 1_455 S
C834 H828 0.949 . S
C834 C838 1.368 . S
C835 C816 1.429 . S
C835 C829 1.429 . S
C835 C836 1.523 . S
C836 C817 1.368 . S
C836 C830 1.368 . S
C836 C835 1.523 . S
C837 C821 1.429 . S
C837 C833 1.429 . S
C837 C838 1.523 . S
C838 C822 1.368 . S
C838 C834 1.368 . S
C838 C837 1.523 . S
H839 C814 0.950 . S
H840 C816 0.950 . S
H841 C817 0.949 . S
H842 C819 0.950 . S
H843 C821 0.950 . S
C844 C845 1.349 . S
C844 C846 1.327 . S
C844 H869 0.950 . S
C845 C844 1.349 . S
C845 C861 1.349 . S
C846 C844 1.327 . S
C846 C865 1.429 . S
C846 H870 0.950 . S
C847 C864 1.574 . S
C847 C866 1.368 . S
C847 H871 0.949 . S
H848 C852 0.949 . S
C849 C850 1.349 . S
C849 C851 1.327 . S
C849 H872 0.950 . S
C850 C849 1.349 . S
C850 C862 1.349 . S
C851 C849 1.327 . S
C851 C867 1.429 . S
C851 H873 0.950 . S
C852 H848 0.949 . S
C852 C860 1.574 . S
C852 C868 1.368 . S
H853 C861 0.950 . S
H854 C859 0.950 . S
H855 C860 0.949 . S
H856 C862 0.950 . S
H857 C863 0.950 . S
H858 C864 0.949 . S
C859 H854 0.950 . S
C859 C861 1.327 . S
C859 C865 1.429 . S
C860 C852 1.574 . S
C860 H855 0.949 . S
C860 C866 1.368 . S
C861 C845 1.349 . S
C861 H853 0.950 . S
C861 C859 1.327 . S
C862 C850 1.349 . S
C862 H856 0.950 . S
C862 C863 1.327 . S
C863 H857 0.950 . S
C863 C862 1.327 . S
C863 C867 1.429 . S
C864 C847 1.574 . S
C864 H858 0.949 . S
C864 C868 1.368 . S
C865 C846 1.429 . S
C865 C859 1.429 . S
C865 C866 1.523 . S
C866 C847 1.368 . S
C866 C860 1.368 . S
C866 C865 1.523 . S
C867 C851 1.429 . S
C867 C863 1.429 . S
C867 C868 1.523 . S
C868 C852 1.368 . S
C868 C864 1.368 . S
C868 C867 1.523 . S
H869 C844 0.950 . S
H870 C846 0.950 . S
H871 C847 0.949 . S
H872 C849 0.950 . S
H873 C851 0.950 . S
C874 C875 1.349 . S
C874 C876 1.327 . S
C874 H899 0.950 . S
C875 C874 1.349 . S
C875 C891 1.349 . S
C876 C874 1.327 . S
C876 C895 1.429 . S
C876 H900 0.950 . S
C877 C894 1.574 . S
C877 C896 1.368 . S
C877 H901 0.949 . S
H878 C882 0.949 . S
C879 C880 1.349 . S
C879 C881 1.327 . S
C879 H902 0.950 . S
C880 C879 1.349 . S
C880 C892 1.349 . S
C881 C879 1.327 . S
C881 C897 1.429 . S
C881 H903 0.950 . S
C882 H878 0.949 . S
C882 C890 1.574 . S
C882 C898 1.368 . S
H883 C891 0.950 . S
H884 C889 0.950 . S
H885 C890 0.949 . S
H886 C892 0.950 . S
H887 C893 0.950 . S
H888 C894 0.949 . S
C889 H884 0.950 . S
C889 C891 1.327 . S
C889 C895 1.429 . S
C890 C882 1.574 . S
C890 H885 0.949 . S
C890 C896 1.368 . S
C891 C875 1.349 . S
C891 H883 0.950 . S
C891 C889 1.327 . S
C892 C880 1.349 . S
C892 H886 0.950 . S
C892 C893 1.327 . S
C893 H887 0.950 . S
C893 C892 1.327 . S
C893 C897 1.429 . S
C894 C877 1.574 . S
C894 H888 0.949 . S
C894 C898 1.368 . S
C895 C876 1.429 . S
C895 C889 1.429 . S
C895 C896 1.523 . S
C896 C877 1.368 . S
C896 C890 1.368 . S
C896 C895 1.523 . S
C897 C881 1.429 . S
C897 C893 1.429 . S
C897 C898 1.523 . S
C898 C882 1.368 . S
C898 C894 1.368 . S
C898 C897 1.523 . S
H899 C874 0.950 . S
H900 C876 0.950 . S
H901 C877 0.949 . S
H902 C879 0.950 . S
H903 C881 0.950 . S
C185 C18 1.444 . S
C190 C179 1.444 . S
C215 C156 1.444 . S
C220 C41 1.444 . S
C245 C133 1.444 . S
C250 C64 1.444 . S
C275 C110 1.444 . S
C280 C87 1.444 . S
C305 C66 1.587 . S
C310 C20 1.587 . S
C335 C43 1.587 . S
C340 C89 1.587 . S
C365 C88 1.516 . S
C370 C42 1.516 . S
C395 C65 1.516 . S
C400 C19 1.516 . S
C425 C112 1.587 . S
C430 C158 1.587 . S
C455 C135 1.587 . S
C460 C181 1.587 . S
C485 C180 1.516 . S
C490 C134 1.516 . S
C515 C157 1.516 . S
C520 C111 1.516 . S
C545 C17 1.350 . S
C550 C16 1.350 . S
C575 C40 1.350 . S
C580 C39 1.350 . S
C605 C62 1.350 . S
C610 C63 1.350 . S
C635 C86 1.350 . S
C640 C85 1.350 . S
C665 C108 1.350 . S
C670 C109 1.350 . S
C695 C132 1.350 . S
C700 C131 1.350 . S
C725 C155 1.350 . S
C730 C154 1.350 . S
C755 C178 1.350 . S
C760 C177 1.350 . S
C785 C21 1.460 . S
C790 C44 1.460 . S
C815 C90 1.460 . S
C820 C67 1.460 . S
C845 C113 1.460 . S
C850 C136 1.460 . S
C875 C182 1.460 . S
C880 C159 1.460 . S
