# Generated by pormake.
# Topology sth, (5)-cn, num edge types: 1
# Building blocks:
#     Node 0, Type 0, BuildingBlock: XOMCOT_clean_sbu_0, # of connection points: 5
#     Node 1, Type 0, BuildingBlock: XOMCOT_clean_sbu_0, # of connection points: 5
#     Node 2, Type 0, BuildingBlock: XOMCOT_clean_sbu_0, # of connection points: 5
#     Node 3, Type 0, BuildingBlock: XOMCOT_clean_sbu_0, # of connection points: 5
#     Node 4, Type 0, BuildingBlock: XOMCOT_clean_sbu_0, # of connection points: 5
#     Node 5, Type 0, BuildingBlock: XOMCOT_clean_sbu_0, # of connection points: 5
#     Node 6, Type 0, BuildingBlock: XOMCOT_clean_sbu_0, # of connection points: 5
#     Node 7, Type 0, BuildingBlock: XOMCOT_clean_sbu_0, # of connection points: 5
#     Node 8, Type 0, BuildingBlock: XOMCOT_clean_sbu_0, # of connection points: 5
#     Node 9, Type 0, BuildingBlock: XOMCOT_clean_sbu_0, # of connection points: 5
#     Node 10, Type 0, BuildingBlock: XOMCOT_clean_sbu_0, # of connection points: 5
#     Node 11, Type 0, BuildingBlock: XOMCOT_clean_sbu_0, # of connection points: 5
#     Node 12, Type 0, BuildingBlock: XOMCOT_clean_sbu_0, # of connection points: 5
#     Node 13, Type 0, BuildingBlock: XOMCOT_clean_sbu_0, # of connection points: 5
#     Node 14, Type 0, BuildingBlock: XOMCOT_clean_sbu_0, # of connection points: 5
#     Node 15, Type 0, BuildingBlock: XOMCOT_clean_sbu_0, # of connection points: 5
#     Node 16, Type 0, BuildingBlock: XOMCOT_clean_sbu_0, # of connection points: 5
#     Node 17, Type 0, BuildingBlock: XOMCOT_clean_sbu_0, # of connection points: 5
#     Edge 18, Type (0, 0), BuildingBlock: TEMPAE_clean_linker_10, # of connection points: 2
#     Edge 19, Type (0, 0), BuildingBlock: TEMPAE_clean_linker_10, # of connection points: 2
#     Edge 20, Type (0, 0), BuildingBlock: TEMPAE_clean_linker_10, # of connection points: 2
#     Edge 21, Type (0, 0), BuildingBlock: TEMPAE_clean_linker_10, # of connection points: 2
#     Edge 22, Type (0, 0), BuildingBlock: TEMPAE_clean_linker_10, # of connection points: 2
#     Edge 23, Type (0, 0), BuildingBlock: TEMPAE_clean_linker_10, # of connection points: 2
#     Edge 24, Type (0, 0), BuildingBlock: TEMPAE_clean_linker_10, # of connection points: 2
#     Edge 25, Type (0, 0), BuildingBlock: TEMPAE_clean_linker_10, # of connection points: 2
#     Edge 26, Type (0, 0), BuildingBlock: TEMPAE_clean_linker_10, # of connection points: 2
#     Edge 27, Type (0, 0), BuildingBlock: TEMPAE_clean_linker_10, # of connection points: 2
#     Edge 28, Type (0, 0), BuildingBlock: TEMPAE_clean_linker_10, # of connection points: 2
#     Edge 29, Type (0, 0), BuildingBlock: TEMPAE_clean_linker_10, # of connection points: 2
#     Edge 30, Type (0, 0), BuildingBlock: TEMPAE_clean_linker_10, # of connection points: 2
#     Edge 31, Type (0, 0), BuildingBlock: TEMPAE_clean_linker_10, # of connection points: 2
#     Edge 32, Type (0, 0), BuildingBlock: TEMPAE_clean_linker_10, # of connection points: 2
#     Edge 33, Type (0, 0), BuildingBlock: TEMPAE_clean_linker_10, # of connection points: 2
#     Edge 34, Type (0, 0), BuildingBlock: TEMPAE_clean_linker_10, # of connection points: 2
#     Edge 35, Type (0, 0), BuildingBlock: TEMPAE_clean_linker_10, # of connection points: 2
#     Edge 36, Type (0, 0), BuildingBlock: TEMPAE_clean_linker_10, # of connection points: 2
#     Edge 37, Type (0, 0), BuildingBlock: TEMPAE_clean_linker_10, # of connection points: 2
#     Edge 38, Type (0, 0), BuildingBlock: TEMPAE_clean_linker_10, # of connection points: 2
#     Edge 39, Type (0, 0), BuildingBlock: TEMPAE_clean_linker_10, # of connection points: 2
#     Edge 40, Type (0, 0), BuildingBlock: TEMPAE_clean_linker_10, # of connection points: 2
#     Edge 41, Type (0, 0), BuildingBlock: TEMPAE_clean_linker_10, # of connection points: 2
#     Edge 42, Type (0, 0), BuildingBlock: TEMPAE_clean_linker_10, # of connection points: 2
#     Edge 43, Type (0, 0), BuildingBlock: TEMPAE_clean_linker_10, # of connection points: 2
#     Edge 44, Type (0, 0), BuildingBlock: TEMPAE_clean_linker_10, # of connection points: 2
#     Edge 45, Type (0, 0), BuildingBlock: TEMPAE_clean_linker_10, # of connection points: 2
#     Edge 46, Type (0, 0), BuildingBlock: TEMPAE_clean_linker_10, # of connection points: 2
#     Edge 47, Type (0, 0), BuildingBlock: TEMPAE_clean_linker_10, # of connection points: 2
#     Edge 48, Type (0, 0), BuildingBlock: TEMPAE_clean_linker_10, # of connection points: 2
#     Edge 49, Type (0, 0), BuildingBlock: TEMPAE_clean_linker_10, # of connection points: 2
#     Edge 50, Type (0, 0), BuildingBlock: TEMPAE_clean_linker_10, # of connection points: 2
#     Edge 51, Type (0, 0), BuildingBlock: TEMPAE_clean_linker_10, # of connection points: 2
#     Edge 52, Type (0, 0), BuildingBlock: TEMPAE_clean_linker_10, # of connection points: 2
#     Edge 53, Type (0, 0), BuildingBlock: TEMPAE_clean_linker_10, # of connection points: 2
#     Edge 54, Type (0, 0), BuildingBlock: TEMPAE_clean_linker_10, # of connection points: 2
#     Edge 55, Type (0, 0), BuildingBlock: TEMPAE_clean_linker_10, # of connection points: 2
#     Edge 56, Type (0, 0), BuildingBlock: TEMPAE_clean_linker_10, # of connection points: 2
#     Edge 57, Type (0, 0), BuildingBlock: TEMPAE_clean_linker_10, # of connection points: 2
#     Edge 58, Type (0, 0), BuildingBlock: TEMPAE_clean_linker_10, # of connection points: 2
#     Edge 59, Type (0, 0), BuildingBlock: TEMPAE_clean_linker_10, # of connection points: 2
#     Edge 60, Type (0, 0), BuildingBlock: TEMPAE_clean_linker_10, # of connection points: 2
#     Edge 61, Type (0, 0), BuildingBlock: TEMPAE_clean_linker_10, # of connection points: 2
#     Edge 62, Type (0, 0), BuildingBlock: TEMPAE_clean_linker_10, # of connection points: 2
# Relax obj value: 0.190
# Max RMSD: 0.215
# Mean RMSD: 0.215
data_MOF--net-sth--node1-XOMCOT_clean_sbu_0--edge1-TEMPAE_clean_linker_10
_symmetry_space_group_name_H-M    P1
_symmetry_Int_Tables_number       1
_symmetry_cell_setting            triclinic
loop_
_symmetry_equiv_pos_as_xyz
'x, y, z'
_cell_length_a     41.001098
_cell_length_b     40.939194
_cell_length_c     79.848886
_cell_angle_alpha  89.941009
_cell_angle_beta   90.09269
_cell_angle_gamma 120.06966
loop_
_atom_site_label
_atom_site_type_symbol
_atom_site_fract_x
_atom_site_fract_y
_atom_site_fract_z
_atom_type_partial_charge
Co0 Co 0.12311 0.27938 0.21731 0.0
C1 C 0.20287 0.34009 0.20756 0.0
C2 C 0.16915 0.30392 0.18755 0.0
C3 C 0.20451 0.32765 0.18148 0.0
N4 N 0.16774 0.31134 0.20393 0.0
N5 N 0.22557 0.35028 0.19402 0.0
H6 H 0.21301 0.35145 0.21986 0.0
H7 H 0.14645 0.28119 0.18064 0.0
C8 C 0.1648 0.23745 0.21514 0.0
O9 O 0.1947 0.26983 0.21892 0.0
N10 N 0.07767 0.24636 0.22939 0.0
C11 C 0.06122 0.25487 0.24188 0.0
C12 C 0.02684 0.22331 0.24529 0.0
C13 C 0.05336 0.21021 0.22533 0.0
N14 N 0.02184 0.1952 0.23481 0.0
C15 C 0.16546 0.32949 0.24392 0.0
C16 C 0.16035 0.27484 0.26584 0.0
C17 C 0.17625 0.31218 0.27144 0.0
C18 C 0.17934 0.33977 0.26018 0.0
C19 C 0.14756 0.26588 0.24931 0.0
N20 N 0.15058 0.29316 0.23847 0.0
H21 H 0.16557 0.3507 0.23583 0.0
H22 H 0.13313 0.23658 0.24558 0.0
H23 H 0.07289 0.28229 0.24773 0.0
H24 H 0.05868 0.19555 0.21541 0.0
O25 O 0.10965 0.31817 0.2172 0.0
O26 O 0.09193 0.2742 0.19774 0.0
O27 O 0.13262 0.23544 0.21388 0.0
C28 C 0.09151 0.30393 0.20337 0.0
H29 H 0.21465 0.32717 0.16902 0.0
H30 H 1.00672 0.22176 0.25446 0.0
H31 H 0.15672 0.25259 0.27432 0.0
H32 H 0.19039 0.36871 0.2642 0.0
Co33 Co 0.74369 0.85339 0.23189 0.0
C34 C 0.7065 0.89081 0.21446 0.0
C35 C 0.67317 0.85424 0.23448 0.0
C36 C 0.65329 0.86916 0.2271 0.0
N37 N 0.70654 0.86787 0.22666 0.0
N38 N 0.674 0.89199 0.21443 0.0
H39 H 0.7292 0.90538 0.20557 0.0
H40 H 0.66382 0.83453 0.24483 0.0
C41 C 0.81414 0.9251 0.2384 0.0
O42 O 0.81713 0.90819 0.25184 0.0
N43 N 0.78063 0.83748 0.23658 0.0
C44 C 0.77477 0.80581 0.24452 0.0
C45 C 0.807 0.80345 0.2438 0.0
C46 C 0.81579 0.85231 0.23011 0.0
N47 N 0.83295 0.83289 0.23484 0.0
C48 C 0.72683 0.83466 0.2668 0.0
C49 C 0.73746 0.90391 0.27691 0.0
C50 C 0.72705 0.87526 0.28881 0.0
C51 C 0.72146 0.84022 0.28355 0.0
C52 C 0.74307 0.89728 0.26027 0.0
N53 N 0.73923 0.86338 0.25548 0.0
H54 H 0.71908 0.80664 0.2629 0.0
H55 H 0.74971 0.91924 0.25114 0.0
H56 H 0.7484 0.78425 0.24965 0.0
H57 H 0.82871 0.87689 0.2221 0.0
O58 O 0.70451 0.80128 0.23113 0.0
O59 O 0.73937 0.83363 0.20939 0.0
O60 O 0.78588 0.90745 0.22853 0.0
C61 C 0.71284 0.80162 0.21543 0.0
H62 H 0.6256 0.86357 0.23084 0.0
H63 H 0.81063 0.78107 0.24903 0.0
H64 H 0.74103 0.93107 0.2804 0.0
H65 H 0.71153 0.81675 0.29221 0.0
Co66 Co 0.17564 0.90632 0.22498 0.0
C67 C 0.15696 0.83188 0.20828 0.0
C68 C 0.11934 0.82717 0.22801 0.0
C69 C 0.10778 0.79178 0.22196 0.0
N70 N 0.15047 0.85254 0.21971 0.0
N71 N 0.13128 0.79446 0.20959 0.0
H72 H 0.17976 0.84364 0.1993 0.0
H73 H 0.10573 0.83401 0.23788 0.0
C74 C 0.10946 0.92139 0.2292 0.0
O75 O 0.13052 0.95333 0.23706 0.0
N76 N 0.19981 0.95993 0.23007 0.0
C77 C 0.22065 0.97825 0.24357 0.0
C78 C 0.22757 0.01487 0.24323 0.0
C79 C 0.19647 0.98626 0.22118 0.0
N80 N 0.21155 0.01969 0.22933 0.0
C81 C 0.18833 0.87263 0.25341 0.0
C82 C 0.15356 0.89276 0.27753 0.0
C83 C 0.17088 0.8721 0.28242 0.0
C84 C 0.18809 0.86177 0.26999 0.0
C85 C 0.15414 0.90279 0.26069 0.0
N86 N 0.17157 0.89292 0.2488 0.0
H87 H 0.20178 0.86421 0.24411 0.0
H88 H 0.14137 0.91919 0.25758 0.0
H89 H 0.22877 0.96553 0.25339 0.0
H90 H 0.17946 0.97965 0.20995 0.0
O91 O 0.22482 0.9123 0.22146 0.0
O92 O 0.19158 0.92014 0.20168 0.0
O93 O 0.12329 0.90107 0.22416 0.0
C94 C 0.22307 0.9218 0.20615 0.0
H95 H 0.0832 0.76597 0.22606 0.0
H96 H 0.2419 0.03578 0.2529 0.0
H97 H 0.1404 0.90196 0.28668 0.0
H98 H 0.20117 0.84515 0.27298 0.0
Co99 Co 0.28092 0.10757 0.79165 0.0
C100 C 0.31808 0.18399 0.80731 0.0
C101 C 0.3529 0.17819 0.78885 0.0
C102 C 0.37228 0.21402 0.79537 0.0
N103 N 0.31892 0.15941 0.79626 0.0
N104 N 0.35055 0.21776 0.80704 0.0
H105 H 0.29456 0.17706 0.81556 0.0
H106 H 0.36279 0.16661 0.77925 0.0
C107 C 0.21324 0.11438 0.78477 0.0
O108 O 0.20932 0.09457 0.7712 0.0
N109 N 0.24278 0.05447 0.78763 0.0
C110 C 0.24921 0.02709 0.78196 0.0
C111 C 0.21622 0.99304 0.78222 0.0
C112 C 0.20598 0.0356 0.79229 0.0
N113 N 0.18882 0.99834 0.78857 0.0
C114 C 0.2928 0.1004 0.75663 0.0
C115 C 0.29174 0.16406 0.74587 0.0
C116 C 0.29885 0.14283 0.73421 0.0
C117 C 0.29922 0.11061 0.73979 0.0
C118 C 0.28492 0.1525 0.76264 0.0
N119 N 0.2847 0.12047 0.76783 0.0
H120 H 0.29627 0.07736 0.76069 0.0
H121 H 0.28066 0.16988 0.77154 0.0
H122 H 0.27632 0.03081 0.77854 0.0
H123 H 0.19195 0.04858 0.79847 0.0
O124 O 0.31971 0.0942 0.79219 0.0
O125 O 0.28688 0.09318 0.81434 0.0
O126 O 0.23992 0.12123 0.79512 0.0
C127 C 0.31313 0.08759 0.80806 0.0
H128 H 0.4002 0.23577 0.79164 0.0
H129 H 0.21301 0.96619 0.77846 0.0
H130 H 0.29181 0.18952 0.74211 0.0
H131 H 0.30611 0.09426 0.73134 0.0
Co132 Co 0.9159 0.17608 0.7904 0.0
C133 C 0.84102 0.16274 0.80404 0.0
C134 C 0.83664 0.11654 0.78963 0.0
C135 C 0.80135 0.10727 0.7949 0.0
N136 N 0.86183 0.1516 0.79498 0.0
N137 N 0.80387 0.1361 0.80394 0.0
H138 H 0.85254 0.18925 0.81069 0.0
H139 H 0.84319 0.09776 0.78293 0.0
C140 C 0.92882 0.1115 0.78241 0.0
O141 O 0.95179 0.13172 0.77029 0.0
N142 N 0.96981 0.19915 0.78628 0.0
C143 C 0.9915 0.22348 0.77426 0.0
C144 C 0.02697 0.22754 0.77512 0.0
C145 C 0.99286 0.19005 0.79463 0.0
N146 N 0.02767 0.20601 0.78779 0.0
C147 C 0.90999 0.20614 0.75884 0.0
C148 C 0.88041 0.14119 0.73989 0.0
C149 C 0.88631 0.17456 0.73226 0.0
C150 C 0.9014 0.2073 0.74202 0.0
C151 C 0.88946 0.14123 0.75682 0.0
N152 N 0.90478 0.17365 0.76619 0.0
H153 H 0.92151 0.23209 0.7658 0.0
H154 H 0.88309 0.11463 0.76213 0.0
H155 H 0.98232 0.23633 0.76502 0.0
H156 H 0.9834 0.17019 0.80492 0.0
O157 O 0.92224 0.22521 0.79473 0.0
O158 O 0.92807 0.18964 0.81396 0.0
O159 O 0.91174 0.12464 0.79107 0.0
C160 C 0.93079 0.22184 0.81001 0.0
H161 H 0.77582 0.08045 0.79295 0.0
H162 H 0.04965 0.24325 0.76635 0.0
H163 H 0.86809 0.11496 0.73294 0.0
H164 H 0.90698 0.23395 0.73669 0.0
Co165 Co 0.83913 0.73697 0.78959 0.0
C166 C 0.87423 0.69777 0.80694 0.0
C167 C 0.83238 0.66261 0.78886 0.0
C168 C 0.84653 0.64201 0.79623 0.0
N169 N 0.84986 0.69756 0.79547 0.0
N170 N 0.87287 0.66404 0.80757 0.0
H171 H 0.89273 0.72207 0.81448 0.0
H172 H 0.81064 0.65275 0.77937 0.0
C173 C 0.91342 0.80507 0.78293 0.0
O174 O 0.89767 0.80844 0.76918 0.0
N175 N 0.8275 0.77652 0.78417 0.0
C176 C 0.80114 0.77554 0.77371 0.0
C177 C 0.80358 0.81027 0.77371 0.0
C178 C 0.8439 0.8113 0.79113 0.0
N179 N 0.83082 0.83296 0.78454 0.0
C180 C 0.81683 0.71395 0.75561 0.0
C181 C 0.88492 0.72422 0.74425 0.0
C182 C 0.8546 0.71134 0.73304 0.0
C183 C 0.82012 0.70574 0.739 0.0
C184 C 0.88043 0.73246 0.76083 0.0
N185 N 0.84719 0.72927 0.76612 0.0
H186 H 0.78917 0.70599 0.76014 0.0
H187 H 0.9035 0.74053 0.76948 0.0
H188 H 0.78086 0.75158 0.76663 0.0
H189 H 0.86545 0.82071 0.80069 0.0
O190 O 0.78619 0.70074 0.79071 0.0
O191 O 0.82021 0.73543 0.81214 0.0
O192 O 0.89441 0.77694 0.79275 0.0
C193 C 0.78751 0.70964 0.80637 0.0
H194 H 0.83767 0.6128 0.79359 0.0
H195 H 0.78712 0.81832 0.76594 0.0
H196 H 0.91174 0.72771 0.74028 0.0
H197 H 0.79536 0.6937 0.73105 0.0
Co198 Co 0.79066 0.60367 0.55606 0.0
C199 C 0.85923 0.65106 0.53477 0.0
C200 C 0.87155 0.63363 0.55815 0.0
C201 C 0.90396 0.65124 0.54899 0.0
N202 N 0.84331 0.63373 0.54948 0.0
N203 N 0.89635 0.66186 0.53421 0.0
H204 H 0.84381 0.65379 0.52437 0.0
H205 H 0.86859 0.61967 0.57 0.0
C206 C 0.77956 0.52334 0.55781 0.0
O207 O 0.7467 0.509 0.56523 0.0
N208 N 0.73821 0.57309 0.56243 0.0
C209 C 0.72126 0.57595 0.57633 0.0
C210 C 0.68411 0.54751 0.57615 0.0
C211 C 0.71074 0.5445 0.55355 0.0
N212 N 0.67768 0.52735 0.56192 0.0
C213 C 0.82412 0.64851 0.58492 0.0
C214 C 0.80906 0.59147 0.60748 0.0
C215 C 0.82754 0.62896 0.61314 0.0
C216 C 0.83518 0.65763 0.60156 0.0
C217 C 0.79853 0.58354 0.59063 0.0
N218 N 0.80604 0.61192 0.57956 0.0
H219 H 0.83033 0.67111 0.57622 0.0
H220 H 0.78359 0.55459 0.5868 0.0
H221 H 0.7351 0.59641 0.58621 0.0
H222 H 0.71566 0.53494 0.54169 0.0
O223 O 0.78267 0.64582 0.55376 0.0
O224 O 0.77385 0.60564 0.53336 0.0
O225 O 0.79831 0.55844 0.55401 0.0
C226 C 0.77171 0.63479 0.53854 0.0
H227 H 0.93099 0.65495 0.55276 0.0
H228 H 0.66412 0.54078 0.58623 0.0
H229 H 0.80257 0.56842 0.61601 0.0
H230 H 0.84878 0.68694 0.60538 0.0
Co231 Co 0.41588 0.18017 0.55834 0.0
C232 C 0.37744 0.21799 0.54255 0.0
C233 C 0.34026 0.17055 0.55782 0.0
C234 C 0.32027 0.18632 0.55133 0.0
N235 N 0.37606 0.19039 0.55238 0.0
N236 N 0.34357 0.21629 0.54177 0.0
H237 H 0.40271 0.23903 0.53631 0.0
H238 H 0.32947 0.1463 0.56602 0.0
C239 C 0.4794 0.25578 0.56734 0.0
O240 O 0.48237 0.23968 0.58106 0.0
N241 N 0.45608 0.16916 0.56377 0.0
C242 C 0.45215 0.1369 0.57028 0.0
C243 C 0.48659 0.13888 0.57058 0.0
C244 C 0.49283 0.18913 0.55916 0.0
N245 N 0.5123 0.17188 0.56369 0.0
C246 C 0.39649 0.15594 0.59254 0.0
C247 C 0.39509 0.21893 0.60395 0.0
C248 C 0.38714 0.18954 0.61519 0.0
C249 C 0.38763 0.15766 0.60923 0.0
C250 C 0.40432 0.21622 0.58732 0.0
N251 N 0.4064 0.18556 0.58192 0.0
H252 H 0.39363 0.12995 0.58809 0.0
H253 H 0.40935 0.23866 0.57872 0.0
H254 H 0.42589 0.11221 0.57363 0.0
H255 H 0.50512 0.21551 0.55239 0.0
O256 O 0.38082 0.12703 0.55608 0.0
O257 O 0.41667 0.16387 0.53552 0.0
O258 O 0.4542 0.23596 0.55644 0.0
C259 C 0.39137 0.13021 0.54057 0.0
H260 H 0.29056 0.17593 0.5533 0.0
H261 H 0.49195 0.11693 0.5749 0.0
H262 H 0.39416 0.24371 0.60796 0.0
H263 H 0.37985 0.13353 0.61728 0.0
Co264 Co 0.85065 0.23816 0.55137 0.0
C265 C 0.82869 0.16628 0.53224 0.0
C266 C 0.79136 0.15904 0.5525 0.0
C267 C 0.77681 0.12569 0.54399 0.0
N268 N 0.82403 0.1848 0.54533 0.0
N269 N 0.79992 0.13013 0.53117 0.0
H270 H 0.85126 0.17921 0.52319 0.0
H271 H 0.77737 0.16432 0.56264 0.0
C272 C 0.78805 0.25479 0.55985 0.0
O273 O 0.80942 0.27891 0.5714 0.0
N274 N 0.87628 0.29144 0.55699 0.0
C275 C 0.90086 0.31005 0.56945 0.0
C276 C 0.90734 0.3465 0.56995 0.0
C277 C 0.86971 0.31726 0.54961 0.0
N278 N 0.88713 0.3508 0.55764 0.0
C279 C 0.87899 0.22346 0.58163 0.0
C280 C 0.81914 0.2066 0.60255 0.0
C281 C 0.85126 0.20776 0.60927 0.0
C282 C 0.88117 0.21579 0.59849 0.0
C283 C 0.81816 0.2147 0.58556 0.0
N284 N 0.84832 0.22416 0.57524 0.0
H285 H 0.90292 0.22979 0.57391 0.0
H286 H 0.79242 0.21217 0.58098 0.0
H287 H 0.91217 0.29794 0.57807 0.0
H288 H 0.84938 0.31027 0.53963 0.0
O289 O 0.89869 0.24281 0.54611 0.0
O290 O 0.86414 0.25307 0.52797 0.0
O291 O 0.79986 0.23586 0.55162 0.0
C292 C 0.89559 0.25364 0.53125 0.0
H293 H 0.75042 0.10027 0.54671 0.0
H294 H 0.92426 0.3676 0.57919 0.0
H295 H 0.79506 0.19998 0.61038 0.0
H296 H 0.90624 0.21609 0.60302 0.0
Co297 Co 0.95163 0.45671 0.12014 0.0
C298 C 1.00578 0.52889 0.13858 0.0
C299 C 0.98169 0.53737 0.11627 0.0
C300 C 1.00261 0.57155 0.124 0.0
N301 N 0.98362 0.51036 0.1252 0.0
N302 N 1.01778 0.56639 0.13798 0.0
H303 H 1.0112 0.51524 0.14895 0.0
H304 H 0.96444 0.53231 0.10525 0.0
C305 C 0.87323 0.44867 0.11631 0.0
O306 O 0.85869 0.41558 0.10903 0.0
N307 N 0.91878 0.4033 0.11529 0.0
C308 C 0.92017 0.38356 0.10211 0.0
C309 C 0.88994 0.34727 0.10301 0.0
C310 C 0.88894 0.37819 0.12447 0.0
N311 N 0.86987 0.34398 0.11696 0.0
C312 C 0.9979 0.48675 0.09134 0.0
C313 C 0.94247 0.46997 0.06772 0.0
C314 C 0.98025 0.48863 0.06253 0.0
C315 C 1.0081 0.49709 0.07467 0.0
C316 C 0.93348 0.46043 0.0846 0.0
N317 N 0.96104 0.46892 0.09626 0.0
H318 H 0.01992 0.49381 0.10047 0.0
H319 H 0.90437 0.44552 0.08798 0.0
H320 H 0.94085 0.39498 0.09219 0.0
H321 H 0.88009 0.38571 0.13588 0.0
O322 O 0.99224 0.44682 0.12387 0.0
O323 O 0.9523 0.44295 0.14347 0.0
O324 O 0.90782 0.46662 0.12088 0.0
C325 C 0.98056 0.43847 0.13921 0.0
H326 H 1.00518 0.59807 0.12008 0.0
H327 H 0.8822 0.32572 0.09354 0.0
H328 H 0.91984 0.46207 0.05878 0.0
H329 H 0.03772 0.51199 0.07142 0.0
Co330 Co 0.5831 0.51138 0.13078 0.0
C331 C 0.51139 0.49771 0.14707 0.0
C332 C 0.50681 0.44769 0.13611 0.0
C333 C 0.47276 0.43848 0.14308 0.0
N334 N 0.53115 0.48488 0.13843 0.0
N335 N 0.47576 0.46979 0.14993 0.0
H336 H 0.52247 0.52651 0.1512 0.0
H337 H 0.51316 0.42804 0.13001 0.0
C338 C 0.59934 0.44922 0.12199 0.0
O339 O 0.61859 0.46896 0.10892 0.0
N340 N 0.63526 0.5371 0.12355 0.0
C341 C 0.65167 0.55823 0.10987 0.0
C342 C 0.68789 0.56448 0.10876 0.0
C343 C 0.66217 0.5323 0.1309 0.0
N344 N 0.69439 0.54755 0.12188 0.0
C345 C 0.56517 0.5341 0.09986 0.0
C346 C 0.53747 0.46708 0.08257 0.0
C347 C 0.54033 0.49858 0.07423 0.0
C348 C 0.55334 0.53205 0.08335 0.0
C349 C 0.54895 0.47015 0.0993 0.0
N350 N 0.56465 0.504 0.10756 0.0
H351 H 0.5758 0.56071 0.1062 0.0
H352 H 0.5448 0.44492 0.10533 0.0
H353 H 0.63822 0.56701 0.10075 0.0
H354 H 0.6568 0.51536 0.14204 0.0
O355 O 0.58678 0.55948 0.13475 0.0
O356 O 0.60093 0.52877 0.15351 0.0
O357 O 0.58323 0.46187 0.13161 0.0
C358 C 0.59938 0.55888 0.14956 0.0
H359 H 0.4478 0.41074 0.14341 0.0
H360 H 0.70676 0.5782 0.09837 0.0
H361 H 0.52699 0.4403 0.07621 0.0
H362 H 0.55462 0.5568 0.07778 0.0
Co363 Co 0.52199 0.07722 0.12527 0.0
C364 C 0.5609 0.04016 0.14106 0.0
C365 C 0.51959 1.00467 0.12288 0.0
C366 C 0.53682 0.98581 0.12915 0.0
N367 N 0.53485 0.03879 0.13024 0.0
N368 N 0.56282 1.00809 0.14056 0.0
H369 H 0.57835 0.06423 0.14894 0.0
H370 H 0.4976 0.99434 0.11349 0.0
C371 C 0.59584 0.14554 0.11778 0.0
O372 O 0.57861 0.14869 0.1045 0.0
N373 N 0.50867 0.11614 0.1209 0.0
C374 C 0.47871 0.1133 0.11256 0.0
C375 C 0.48005 0.14751 0.11304 0.0
C376 C 0.52616 0.15151 0.12732 0.0
N377 N 0.51017 0.17182 0.12222 0.0
C378 C 0.49911 0.05836 0.09099 0.0
C379 C 0.56589 0.06673 0.07884 0.0
C380 C 0.53563 0.05608 0.06776 0.0
C381 C 0.50183 0.05151 0.07412 0.0
C382 C 0.56201 0.07369 0.09571 0.0
N383 N 0.5294 0.07127 0.10146 0.0
H384 H 0.47185 0.05119 0.09569 0.0
H385 H 0.58506 0.08032 0.1042 0.0
H386 H 0.45626 0.0881 0.10699 0.0
H387 H 0.55 0.16205 0.13572 0.0
O388 O 0.46934 0.03958 0.12644 0.0
O389 O 0.5027 0.07334 0.1481 0.0
O390 O 0.57733 0.11816 0.12806 0.0
C391 C 0.47013 0.04745 0.14218 0.0
H392 H 0.53024 0.95755 0.12577 0.0
H393 H 0.46028 0.15379 0.10692 0.0
H394 H 0.5922 0.06949 0.07455 0.0
H395 H 0.47705 0.04122 0.06625 0.0
Co396 Co 0.46604 0.94543 0.88999 0.0
C397 C 0.53886 0.99898 0.87192 0.0
C398 C 0.54437 0.96505 0.89102 0.0
C399 C 0.57874 0.98636 0.88356 0.0
N400 N 0.51912 0.97262 0.88381 0.0
N401 N 0.57544 1.00762 0.87155 0.0
H402 H 0.52674 1.01057 0.86339 0.0
H403 H 0.53801 0.94467 0.90091 0.0
C404 C 0.44826 0.86313 0.89414 0.0
O405 O 0.41712 0.85345 0.90241 0.0
N406 N 0.41309 0.91769 0.89607 0.0
C407 C 0.39662 0.92124 0.90998 0.0
C408 C 0.35948 0.89271 0.91012 0.0
C409 C 0.38526 0.88869 0.88745 0.0
N410 N 0.35256 0.87166 0.89613 0.0
C411 C 0.50128 0.9924 0.91813 0.0
C412 C 0.48376 0.93727 0.94201 0.0
C413 C 0.50328 0.97523 0.94698 0.0
C414 C 0.51234 1.00295 0.93471 0.0
C415 C 0.47322 0.92791 0.92525 0.0
N416 N 0.48153 0.95529 0.91351 0.0
H417 H 0.50854 0.0143 0.90892 0.0
H418 H 0.45781 0.89868 0.92208 0.0
H419 H 0.41087 0.94198 0.91971 0.0
H420 H 0.39019 0.87769 0.87601 0.0
O421 O 0.46104 0.98929 0.88631 0.0
O422 O 0.45046 0.94645 0.86696 0.0
O423 O 0.46946 0.89724 0.88912 0.0
C424 C 0.44982 0.97691 0.87124 0.0
H425 H 0.60428 0.98593 0.88658 0.0
H426 H 0.33964 0.887 0.92017 0.0
H427 H 0.47651 0.91485 0.95102 0.0
H428 H 0.52702 0.03265 0.93792 0.0
Co429 Co 0.0859 0.52652 0.88577 0.0
C430 C 0.03077 0.55214 0.87444 0.0
C431 C 0.06296 0.54594 0.85486 0.0
C432 C 0.04312 0.56138 0.8481 0.0
N433 N 0.05565 0.54003 0.87143 0.0
N434 N 0.02318 0.56558 0.86037 0.0
H435 H 0.02118 0.55475 0.88668 0.0
H436 H 0.08355 0.54188 0.84819 0.0
C437 C 0.12951 0.61017 0.88414 0.0
O438 O 0.09788 0.60864 0.88837 0.0
N439 N 0.11779 0.51379 0.89866 0.0
C440 C 0.10925 0.49058 0.91192 0.0
C441 C 0.14073 0.48811 0.91601 0.0
C442 C 0.15378 0.52475 0.89478 0.0
N443 N 0.16869 0.50967 0.90518 0.0
C444 C 0.03354 0.51966 0.91084 0.0
C445 C 0.08634 0.56296 0.93479 0.0
C446 C 0.04849 0.54048 0.93964 0.0
C447 C 0.02183 0.51993 0.92719 0.0
C448 C 0.09682 0.56244 0.91815 0.0
N449 N 0.0706 0.54043 0.90643 0.0
H450 H 1.01287 0.50101 0.90184 0.0
H451 H 0.12646 0.57723 0.91505 0.0
H452 H 0.08206 0.47621 0.91802 0.0
H453 H 0.16827 0.54245 0.88412 0.0
O454 O 0.04667 0.47441 0.88564 0.0
O455 O 0.09203 0.49965 0.8668 0.0
O456 O 0.1305 0.57953 0.88257 0.0
C457 C 0.06178 0.46981 0.8723 0.0
H458 H 0.04468 0.5707 0.83527 0.0
H459 H 0.1428 0.47176 0.92618 0.0
H460 H 0.10813 0.57877 0.94396 0.0
H461 H 0.99221 0.50262 0.93019 0.0
Co462 Co 0.50377 0.55751 0.89528 0.0
C463 C 0.45941 0.4819 0.87876 0.0
C464 C 0.50166 0.48534 0.8958 0.0
C465 C 0.48275 0.44956 0.88928 0.0
N466 N 0.48689 0.50555 0.8894 0.0
N467 N 0.45617 0.44726 0.87861 0.0
H468 H 0.4421 0.4897 0.87146 0.0
H469 H 0.52477 0.49597 0.90463 0.0
C470 C 0.43544 0.55917 0.90607 0.0
O471 O 0.45612 0.57922 0.9188 0.0
N472 N 0.52162 0.61032 0.90074 0.0
C473 C 0.55182 0.63444 0.90996 0.0
C474 C 0.55504 0.66952 0.90965 0.0
C475 C 0.50816 0.63187 0.8943 0.0
N476 N 0.52742 0.66785 0.89989 0.0
C477 C 0.53287 0.55498 0.92769 0.0
C478 C 0.46496 0.50443 0.94233 0.0
C479 C 0.49808 0.5186 0.95177 0.0
C480 C 0.53238 0.54365 0.94419 0.0
C481 C 0.46685 0.51598 0.92569 0.0
N482 N 0.50027 0.54288 0.91885 0.0
H483 H 0.55985 0.57219 0.92187 0.0
H484 H 0.44145 0.50253 0.91825 0.0
H485 H 0.57135 0.62808 0.91608 0.0
H486 H 0.48423 0.62117 0.88591 0.0
O487 O 0.55491 0.56971 0.89132 0.0
O488 O 0.51774 0.5732 0.87212 0.0
O489 O 0.44973 0.54709 0.89509 0.0
C490 C 0.55079 0.57812 0.87611 0.0
H491 H 0.48869 0.42711 0.89191 0.0
H492 H 0.57657 0.69454 0.91591 0.0
H493 H 0.43807 0.48383 0.94761 0.0
H494 H 0.55872 0.55434 0.95094 0.0
Co495 Co 0.61355 0.77792 0.4606 0.0
C496 C 0.67305 0.85689 0.4706 0.0
C497 C 0.62321 0.83196 0.48591 0.0
C498 C 0.64809 0.86665 0.49238 0.0
N499 N 0.63863 0.82563 0.47233 0.0
N500 N 0.67938 0.88235 0.48285 0.0
H501 H 0.6931 0.86059 0.46093 0.0
H502 H 0.59578 0.8122 0.49094 0.0
C503 C 0.54504 0.77645 0.44754 0.0
O504 O 0.55219 0.76478 0.43342 0.0
N505 N 0.58593 0.72787 0.45021 0.0
C506 C 0.59935 0.706 0.44414 0.0
C507 C 0.56989 0.66948 0.44219 0.0
C508 C 0.54872 0.70342 0.4526 0.0
N509 N 0.5381 0.66821 0.4474 0.0
C510 C 0.64587 0.79225 0.4279 0.0
C511 C 0.63432 0.85127 0.41957 0.0
C512 C 0.64861 0.83695 0.40751 0.0
C513 C 0.65523 0.80777 0.41195 0.0
C514 C 0.62479 0.8344 0.43545 0.0
N515 N 0.62885 0.80393 0.43912 0.0
H516 H 0.65255 0.77086 0.4312 0.0
H517 H 0.61326 0.84519 0.44465 0.0
H518 H 0.62874 0.7147 0.44253 0.0
H519 H 0.52999 0.71025 0.45925 0.0
O520 O 0.6566 0.77206 0.46387 0.0
O521 O 0.60922 0.75189 0.48177 0.0
O522 O 0.56592 0.78168 0.46041 0.0
C523 C 0.64151 0.7548 0.47777 0.0
H524 H 0.64354 0.87957 0.50328 0.0
H525 H 0.57189 0.64548 0.43788 0.0
H526 H 0.62965 0.87443 0.41661 0.0
H527 H 0.6676 0.79703 0.40311 0.0
Co528 Co 0.24212 0.833 0.45941 0.0
C529 C 0.16144 0.81123 0.46914 0.0
C530 C 0.19772 0.81776 0.48976 0.0
C531 C 0.16301 0.80807 0.49598 0.0
N532 N 0.19747 0.82054 0.47291 0.0
N533 N 0.1401 0.804 0.48309 0.0
H534 H 0.15033 0.8083 0.45663 0.0
H535 H 0.22127 0.82127 0.49721 0.0
C536 C 0.20155 0.74857 0.46097 0.0
O537 O 0.17004 0.74854 0.458 0.0
N538 N 0.28726 0.84449 0.44731 0.0
C539 C 0.30307 0.86586 0.43362 0.0
C540 C 0.33593 0.86542 0.43011 0.0
C541 C 0.31054 0.83191 0.45202 0.0
N542 N 0.34036 0.84384 0.44171 0.0
C543 C 0.20024 0.84352 0.43372 0.0
C544 C 0.20612 0.79749 0.4101 0.0
C545 C 0.19274 0.82158 0.40506 0.0
C546 C 0.18851 0.84363 0.41734 0.0
C547 C 0.2169 0.79768 0.4268 0.0
N548 N 0.21435 0.82093 0.43836 0.0
H549 H 0.19936 0.86295 0.4426 0.0
H550 H 0.23015 0.78142 0.43007 0.0
H551 H 0.29152 0.88048 0.4267 0.0
H552 H 0.30593 0.81485 0.46307 0.0
O553 O 0.25706 0.88571 0.46004 0.0
O554 O 0.27402 0.85752 0.4789 0.0
O555 O 0.23251 0.77982 0.46228 0.0
C556 C 0.27536 0.88839 0.47369 0.0
H557 H 0.15475 0.80261 0.50901 0.0
H558 H 0.35471 0.87944 0.4197 0.0
H559 H 0.2106 0.78045 0.40105 0.0
H560 H 0.1777 0.86218 0.41422 0.0
Co561 Co 0.1931 0.40291 0.45029 0.0
C562 C 0.22937 0.36324 0.4675 0.0
C563 C 0.1744 0.3246 0.45811 0.0
C564 C 0.18814 0.30433 0.46604 0.0
N565 N 0.2006 0.36171 0.45839 0.0
N566 N 0.22294 0.32845 0.47185 0.0
H567 H 0.25413 0.38909 0.47127 0.0
H568 H 0.14626 0.3126 0.45305 0.0
C569 C 0.27685 0.44122 0.44793 0.0
O570 O 0.27207 0.4119 0.43923 0.0
N571 N 0.18472 0.44325 0.44299 0.0
C572 C 0.16166 0.44121 0.43051 0.0
C573 C 0.162 0.47494 0.42964 0.0
C574 C 0.19832 0.47793 0.44977 0.0
N575 N 0.18501 0.49805 0.44174 0.0
C576 C 0.18417 0.36021 0.42025 0.0
C577 C 0.22993 0.42074 0.39993 0.0
C578 C 0.21153 0.38435 0.39309 0.0
C579 C 0.18859 0.3539 0.40348 0.0
C580 C 0.22542 0.42575 0.41694 0.0
N581 N 0.20323 0.39554 0.42703 0.0
H582 H 0.16406 0.33664 0.42749 0.0
H583 H 0.23931 0.45409 0.42196 0.0
H584 H 0.14542 0.4167 0.42269 0.0
H585 H 0.2174 0.4881 0.46034 0.0
O586 O 0.13949 0.36918 0.44995 0.0
O587 O 0.17124 0.40301 0.47199 0.0
O588 O 0.24833 0.44157 0.45429 0.0
C589 C 0.13884 0.37856 0.46541 0.0
H590 H 0.17286 0.27409 0.46794 0.0
H591 H 0.14567 0.48152 0.42104 0.0
H592 H 0.24738 0.44507 0.39217 0.0
H593 H 0.1728 0.32552 0.39848 0.0
C594 C 0.44628 0.46973 0.17656 0.0
C595 C 0.44632 0.47086 0.15905 0.0
C596 C 0.41275 0.45792 0.18556 0.0
C597 C 0.37882 0.44698 0.17671 0.0
C598 C 0.37992 0.45225 0.15913 0.0
C599 C 0.41369 0.46382 0.1505 0.0
C600 C 0.41296 0.45323 0.20429 0.0
C601 C 0.34461 0.44148 0.14918 0.0
C602 C 0.28793 0.3594 0.18823 0.0
C603 C 0.26562 0.37447 0.19334 0.0
C604 C 0.32583 0.3829 0.18405 0.0
C605 C 0.3417 0.4226 0.18485 0.0
C606 C 0.31997 0.43792 0.19125 0.0
C607 C 0.28193 0.41349 0.19546 0.0
C608 C 0.34796 0.36515 0.17753 0.0
C609 C 0.33593 0.47997 0.19249 0.0
H610 H 0.47163 0.4748 0.18305 0.0
H611 H 0.41402 0.46446 0.13693 0.0
H612 H 0.39348 0.46081 0.21051 0.0
H613 H 0.40324 0.42325 0.20725 0.0
H614 H 0.44169 0.47081 0.2096 0.0
H615 H 0.35109 0.45269 0.13619 0.0
H616 H 0.32716 0.41025 0.14853 0.0
H617 H 0.32751 0.4521 0.15535 0.0
H618 H 0.27499 0.3291 0.18673 0.0
H619 H 0.26434 0.4249 0.19938 0.0
H620 H 0.37555 0.3772 0.18401 0.0
H621 H 0.35362 0.37134 0.16397 0.0
H622 H 0.33263 0.33403 0.17924 0.0
H623 H 0.3655 0.49429 0.19701 0.0
H624 H 0.31895 0.48706 0.201 0.0
H625 H 0.33591 0.49139 0.17988 0.0
C626 C 0.68867 0.9456 0.19531 0.0
C627 C 0.66228 0.91178 0.20308 0.0
C628 C 0.67695 0.96548 0.18477 0.0
C629 C 0.63795 0.95116 0.18192 0.0
C630 C 0.61132 0.91689 0.18961 0.0
C631 C 0.62378 0.89766 0.19998 0.0
C632 C 0.70621 1.00182 0.17674 0.0
C633 C 0.56948 0.90033 0.18685 0.0
C634 C 0.59565 1.01042 0.16698 0.0
C635 C 0.58634 0.99827 0.15035 0.0
C636 C 0.61443 0.99697 0.17721 0.0
C637 C 0.6244 0.97101 0.1706 0.0
C638 C 0.61709 0.96053 0.15352 0.0
C639 C 0.5981 0.97417 0.14365 0.0
C640 C 0.62157 1.0088 0.19535 0.0
C641 C 0.62752 0.93329 0.14587 0.0
H642 H 0.71842 0.95686 0.19771 0.0
H643 H 0.60314 0.87118 0.20556 0.0
H644 H 0.70336 0.99948 0.16291 0.0
H645 H 0.70167 0.02528 0.18058 0.0
H646 H 0.73537 1.0092 0.18019 0.0
H647 H 0.55242 0.87387 0.19405 0.0
H648 H 0.56088 0.92101 0.19061 0.0
H649 H 0.56272 0.89416 0.17336 0.0
H650 H 0.58658 0.02893 0.17225 0.0
H651 H 0.5917 0.96531 0.13071 0.0
H652 H 0.65102 0.01755 0.19887 0.0
H653 H 0.60275 0.98445 0.2034 0.0
H654 H 0.61635 0.0324 0.19806 0.0
H655 H 0.65717 0.94186 0.14888 0.0
H656 H 0.62396 0.93144 0.13204 0.0
H657 H 0.60942 0.90474 0.15123 0.0
C658 C 0.02007 0.61457 0.15687 0.0
C659 C 0.0373 0.59513 0.15046 0.0
C660 C 0.04016 0.64702 0.16675 0.0
C661 C 0.07885 0.66093 0.17016 0.0
C662 C 0.09625 0.64079 0.16406 0.0
C663 C 0.07516 0.60795 0.1543 0.0
C664 C 0.02009 0.66694 0.17319 0.0
C665 C 0.13739 0.65468 0.16732 0.0
C666 C 0.12953 0.76518 0.1822 0.0
C667 C 0.12652 0.76283 0.19968 0.0
C668 C 0.1166 0.73233 0.17235 0.0
C669 C 0.10039 0.69639 0.18021 0.0
C670 C 0.1002 0.69439 0.19791 0.0
C671 C 0.11325 0.72753 0.20737 0.0
C672 C 0.11777 0.73585 0.15353 0.0
C673 C 0.08349 0.65696 0.2069 0.0
H674 H 0.99085 0.6047 0.15373 0.0
H675 H 0.0886 0.59329 0.14903 0.0
H676 H 0.02258 0.66952 0.18702 0.0
H677 H 0.03345 0.69594 0.16797 0.0
H678 H 0.98971 0.65189 0.1698 0.0
H679 H 0.14611 0.63462 0.16268 0.0
H680 H 0.15481 0.68228 0.16102 0.0
H681 H 0.14354 0.65926 0.18092 0.0
H682 H 0.13962 0.79232 0.1762 0.0
H683 H 0.11139 0.72567 0.22091 0.0
H684 H 0.08882 0.72543 0.1487 0.0
H685 H 0.12838 0.71823 0.14785 0.0
H686 H 0.13587 0.76554 0.14937 0.0
H687 H 0.0524 0.64159 0.20535 0.0
H688 H 0.09005 0.66047 0.22051 0.0
H689 H 0.09403 0.63909 0.20145 0.0
C690 C 0.42399 0.41781 0.85192 0.0
C691 C 0.43153 0.41442 0.86876 0.0
C692 C 0.40579 0.38572 0.84153 0.0
C693 C 0.39473 0.34949 0.84821 0.0
C694 C 0.39985 0.34584 0.86551 0.0
C695 C 0.41819 0.37828 0.87552 0.0
C696 C 0.40076 0.39089 0.82319 0.0
C697 C 0.38832 0.3079 0.87325 0.0
C698 C 0.33371 0.25845 0.82371 0.0
C699 C 0.36104 0.25082 0.81723 0.0
C700 C 0.34411 0.29091 0.83348 0.0
C701 C 0.38272 0.31625 0.83692 0.0
C702 C 0.41033 0.30873 0.83033 0.0
C703 C 0.39918 0.27623 0.82065 0.0
C704 C 0.31383 0.29793 0.84026 0.0
C705 C 0.4518 0.3347 0.83376 0.0
H706 H 0.43433 0.44568 0.84664 0.0
H707 H 0.42339 0.37553 0.88861 0.0
H708 H 0.42107 0.38648 0.81575 0.0
H709 H 0.37202 0.3697 0.81895 0.0
H710 H 0.40558 0.41959 0.82045 0.0
H711 H 0.39009 0.30928 0.88714 0.0
H712 H 0.35909 0.28684 0.86957 0.0
H713 H 0.40704 0.29761 0.86859 0.0
H714 H 0.30423 0.23927 0.821 0.0
H715 H 0.42052 0.27039 0.81602 0.0
H716 H 0.31939 0.32631 0.8364 0.0
H717 H 0.31421 0.29752 0.85415 0.0
H718 H 0.28526 0.27649 0.83587 0.0
H719 H 0.46036 0.36391 0.82982 0.0
H720 H 0.46981 0.32572 0.82713 0.0
H721 H 0.45733 0.33543 0.8474 0.0
C722 C 0.73769 0.11977 0.80494 0.0
C723 C 0.77262 0.13418 0.81303 0.0
C724 C 0.70408 0.10586 0.81407 0.0
C725 C 0.70535 0.1061 0.83179 0.0
C726 C 0.74092 0.12432 0.83997 0.0
C727 C 0.77424 0.1382 0.83047 0.0
C728 C 0.66708 0.08714 0.80473 0.0
C729 C 0.74369 0.12568 0.85882 0.0
C730 C 0.61381 0.06879 0.85694 0.0
C731 C 0.60521 0.03165 0.86018 0.0
C732 C 0.64629 0.09365 0.84768 0.0
C733 C 0.6703 0.08079 0.84144 0.0
C734 C 0.66073 0.04283 0.84424 0.0
C735 C 0.62854 0.01895 0.85358 0.0
C736 C 0.65553 0.13387 0.84504 0.0
C737 C 0.68486 0.02742 0.8376 0.0
H738 H 0.73652 0.11675 0.79144 0.0
H739 H 0.80117 0.14903 0.83674 0.0
H740 H 0.65439 0.05603 0.80549 0.0
H741 H 0.64687 0.09442 0.8104 0.0
H742 H 0.6708 0.09534 0.7913 0.0
H743 H 0.77254 0.14645 0.86317 0.0
H744 H 0.72336 0.13302 0.86432 0.0
H745 H 0.73651 0.09741 0.86363 0.0
H746 H 0.59601 0.07873 0.86221 0.0
H747 H 0.6217 0.99014 0.85597 0.0
H748 H 0.661 0.14156 0.8316 0.0
H749 H 0.68164 0.15317 0.852 0.0
H750 H 0.63251 0.13862 0.8494 0.0
H751 H 0.68751 0.03077 0.82379 0.0
H752 H 0.67311 0.99709 0.84065 0.0
H753 H 0.71365 0.04354 0.84296 0.0
C754 C 0.02049 0.6206 0.85022 0.0
C755 C 1.00317 0.58584 0.85858 0.0
C756 C 0.99957 0.63704 0.84467 0.0
C757 C 0.9602 0.61803 0.84744 0.0
C758 C 0.94314 0.58454 0.85721 0.0
C759 C 0.96497 0.56882 0.86272 0.0
C760 C 0.01912 0.67289 0.83447 0.0
C761 C 0.90133 0.56356 0.86057 0.0
C762 C 0.9072 0.66823 0.83383 0.0
C763 C 0.895 0.65316 0.81775 0.0
C764 C 0.92776 0.65656 0.8439 0.0
C765 C 0.93653 0.62947 0.83766 0.0
C766 C 0.92436 0.61437 0.82141 0.0
C767 C 0.90384 0.62638 0.81171 0.0
C768 C 0.94016 0.67318 0.86117 0.0
C769 C 0.9335 0.58584 0.8141 0.0
H770 H 0.05021 0.63384 0.84721 0.0
H771 H 0.9517 0.54189 0.86916 0.0
H772 H 1.01169 0.66609 0.82106 0.0
H773 H 1.00972 0.69288 0.83832 0.0
H774 H 0.05027 0.68714 0.8357 0.0
H775 H 0.89362 0.54222 0.87065 0.0
H776 H 0.89154 0.58342 0.86414 0.0
H777 H 0.88608 0.54883 0.84899 0.0
H778 H 0.90015 0.68867 0.83862 0.0
H779 H 0.89514 0.61513 0.7992 0.0
H780 H 0.97136 0.6883 0.86203 0.0
H781 H 0.92923 0.65031 0.87066 0.0
H782 H 0.93025 0.69318 0.86437 0.0
H783 H 0.9645 0.59839 0.81315 0.0
H784 H 0.92105 0.57611 0.80146 0.0
H785 H 0.92286 0.5609 0.82245 0.0
C786 C 0.74975 0.70655 0.83172 0.0
C787 C 0.75302 0.69064 0.81675 0.0
C788 C 0.71611 0.68883 0.84106 0.0
C789 C 0.68543 0.65409 0.83543 0.0
C790 C 0.6889 0.63779 0.82041 0.0
C791 C 0.72246 0.6564 0.8112 0.0
C792 C 0.7133 0.7073 0.85691 0.0
C793 C 0.65729 0.60043 0.81414 0.0
C794 C 0.61409 0.58967 0.86769 0.0
C795 C 0.58351 0.59521 0.86466 0.0
C796 C 0.64721 0.60839 0.85818 0.0
C797 C 0.65018 0.63391 0.8455 0.0
C798 C 0.61922 0.63939 0.84225 0.0
C799 C 0.58604 0.61966 0.85179 0.0
C800 C 0.67913 0.60101 0.86179 0.0
C801 C 0.62148 0.66668 0.82896 0.0
H802 H 0.7732 0.73313 0.83597 0.0
H803 H 0.72488 0.64381 0.79968 0.0
H804 H 0.68868 0.71161 0.85618 0.0
H805 H 0.70871 0.6886 0.86779 0.0
H806 H 0.73905 0.73498 0.85924 0.0
H807 H 0.66449 0.59159 0.80221 0.0
H808 H 0.65052 0.57817 0.82366 0.0
H809 H 0.63145 0.60222 0.81215 0.0
H810 H 0.61221 0.57073 0.87763 0.0
H811 H 0.56264 0.62439 0.84957 0.0
H812 H 0.70457 0.62755 0.8657 0.0
H813 H 0.68655 0.59102 0.85028 0.0
H814 H 0.67196 0.57961 0.87181 0.0
H815 H 0.64528 0.69536 0.83174 0.0
H816 H 0.59514 0.66804 0.82809 0.0
H817 H 0.62713 0.65829 0.81658 0.0
C818 C 0.40651 0.97369 0.84817 0.0
C819 C 0.4331 0.99454 0.86058 0.0
C820 C 0.38661 0.98864 0.83975 0.0
C821 C 0.39389 0.02551 0.84366 0.0
C822 C 0.4216 0.04704 0.85582 0.0
C823 C 0.44058 0.03121 0.8642 0.0
C824 C 0.35714 0.96462 0.82696 0.0
C825 C 0.43089 0.08669 0.86015 0.0
C826 C 0.36764 0.07696 0.81133 0.0
C827 C 0.33419 0.07326 0.8179 0.0
C828 C 0.38735 0.06185 0.81962 0.0
C829 C 0.37312 0.04195 0.83482 0.0
C830 C 0.33946 0.03829 0.84162 0.0
C831 C 0.32053 0.05425 0.83314 0.0
C832 C 0.42343 0.06714 0.81205 0.0
C833 C 0.32316 0.01702 0.85773 0.0
H834 H 0.40017 0.94515 0.84549 0.0
H835 H 0.46107 0.04748 0.8738 0.0
H836 H 0.3293 0.96042 0.83082 0.0
H837 H 0.36405 0.97919 0.81466 0.0
H838 H 0.35472 0.93653 0.82536 0.0
H839 H 0.45389 0.10008 0.86955 0.0
H840 H 0.43951 0.10447 0.84871 0.0
H841 H 0.40553 0.08634 0.86519 0.0
H842 H 0.37855 0.09177 0.79958 0.0
H843 H 0.29457 0.05102 0.83822 0.0
H844 H 0.42051 0.03926 0.80924 0.0
H845 H 0.44693 0.08154 0.82113 0.0
H846 H 0.43113 0.08399 0.80032 0.0
H847 H 0.31732 0.98758 0.85644 0.0
H848 H 0.29664 0.01633 0.8613 0.0
H849 H 0.34385 0.03026 0.86805 0.0
C850 C 1.01058 0.40249 0.87046 0.0
C851 C 0.04429 0.43228 0.86401 0.0
C852 C 0.99222 0.36692 0.86275 0.0
C853 C 1.00793 0.36064 0.8482 0.0
C854 C 0.04247 0.39026 0.84182 0.0
C855 C 0.0602 0.42582 0.84976 0.0
C856 C 0.95536 0.33637 0.86992 0.0
C857 C 0.06026 0.38459 0.82639 0.0
C858 C 0.97181 0.25885 0.83425 0.0
C859 C 0.94702 0.25505 0.82129 0.0
C860 C 0.99194 0.29306 0.84314 0.0
C861 C 0.98678 0.32392 0.83909 0.0
C862 C 0.96074 0.31961 0.82641 0.0
C863 C 0.9414 0.28539 0.81764 0.0
C864 C 0.01952 0.29655 0.85653 0.0
C865 C 0.95376 0.35143 0.82187 0.0
H866 H 0.99801 0.40706 0.88149 0.0
H867 H 0.08628 0.44859 0.84475 0.0
H868 H 0.93236 0.32892 0.86073 0.0
H869 H 0.95683 0.31045 0.87233 0.0
H870 H 0.94786 0.34516 0.88178 0.0
H871 H 0.08832 0.40946 0.82366 0.0
H872 H 0.06349 0.35943 0.82795 0.0
H873 H 0.04163 0.37931 0.81541 0.0
H874 H 0.97668 0.23569 0.83696 0.0
H875 H 0.92228 0.28263 0.80762 0.0
H876 H 1.0125 0.30503 0.86858 0.0
H877 H 0.04835 0.31898 0.85304 0.0
H878 H 0.0197 0.26976 0.85846 0.0
H879 H 0.9446 0.36065 0.8331 0.0
H880 H 0.93193 0.34323 0.81198 0.0
H881 H 0.98027 0.37609 0.81737 0.0
C882 C 0.66218 0.73459 0.21177 0.0
C883 C 0.69454 0.76632 0.20552 0.0
C884 C 0.64562 0.69994 0.20328 0.0
C885 C 0.66206 0.69672 0.18826 0.0
C886 C 0.69464 0.72871 0.18183 0.0
C887 C 0.71038 0.76324 0.19049 0.0
C888 C 0.61055 0.66674 0.21041 0.0
C889 C 0.71309 0.72633 0.16589 0.0
C890 C 0.6389 0.59884 0.1735 0.0
C891 C 0.61289 0.59205 0.16068 0.0
C892 C 0.65508 0.63276 0.18267 0.0
C893 C 0.64453 0.66014 0.17905 0.0
C894 C 0.61727 0.65272 0.16651 0.0
C895 C 0.60199 0.61892 0.15743 0.0
C896 C 0.68421 0.63977 0.1959 0.0
C897 C 0.60471 0.68079 0.16246 0.0
H898 H 0.64975 0.73679 0.22338 0.0
H899 H 0.73557 0.78756 0.1857 0.0
H900 H 0.5873 0.65635 0.20112 0.0
H901 H 0.61581 0.64316 0.21304 0.0
H902 H 0.60111 0.67399 0.22215 0.0
H903 H 0.73867 0.75354 0.16272 0.0
H904 H 0.72112 0.70427 0.16715 0.0
H905 H 0.69289 0.71797 0.15531 0.0
H906 H 0.64763 0.57829 0.17594 0.0
H907 H 0.58173 0.61371 0.14757 0.0
H908 H 0.67543 0.64572 0.20811 0.0
H909 H 0.71143 0.66502 0.19251 0.0
H910 H 0.68878 0.61538 0.19743 0.0
H911 H 0.59417 0.68772 0.17393 0.0
H912 H 0.58213 0.67004 0.15281 0.0
H913 H 0.629 0.70744 0.15783 0.0
C914 C 0.26342 0.96311 0.18251 0.0
C915 C 0.25714 0.93717 0.19533 0.0
C916 C 0.29824 0.98172 0.17397 0.0
C917 C 0.32725 0.97379 0.17817 0.0
C918 C 0.32046 0.94672 0.19076 0.0
C919 C 0.28574 0.92905 0.19923 0.0
C920 C 0.30432 1.01053 0.16072 0.0
C921 C 0.35006 0.93666 0.19543 0.0
C922 C 0.40398 0.99484 0.14601 0.0
C923 C 0.43476 0.02824 0.15219 0.0
C924 C 0.36911 0.97695 0.15433 0.0
C925 C 0.36438 0.99297 0.16918 0.0
C926 C 0.39539 0.02661 0.17558 0.0
C927 C 0.43031 0.04371 0.16708 0.0
C928 C 0.33727 0.94082 0.14719 0.0
C929 C 0.39151 0.0448 0.19129 0.0
H930 H 0.24171 0.96997 0.17961 0.0
H931 H 0.28115 0.90905 0.20913 0.0
H932 H 0.32859 0.03838 0.16424 0.0
H933 H 0.31135 1.00236 0.1486 0.0
H934 H 0.27913 0.01364 0.15893 0.0
H935 H 0.34008 0.91438 0.20521 0.0
H936 H 0.35844 0.92665 0.18422 0.0
H937 H 0.37567 0.96206 0.20014 0.0
H938 H 0.40711 0.98254 0.13454 0.0
H939 H 0.45378 0.06965 0.17185 0.0
H940 H 0.31289 0.94453 0.14422 0.0
H941 H 0.32762 0.91785 0.1566 0.0
H942 H 0.34561 0.93176 0.13564 0.0
H943 H 0.36855 0.05142 0.18971 0.0
H944 H 0.41794 0.0712 0.19451 0.0
H945 H 0.38366 0.02491 0.20197 0.0
C946 C 0.07779 0.35658 0.20054 0.0
C947 C 0.07259 0.32198 0.19461 0.0
C948 C 0.06155 0.37536 0.19238 0.0
C949 C 0.03911 0.3591 0.17796 0.0
C950 C 0.03297 0.32373 0.17209 0.0
C951 C 0.04997 0.30566 0.18043 0.0
C952 C 0.0693 0.41318 0.19897 0.0
C953 C 1.00894 0.30529 0.15684 0.0
C954 C 0.97553 0.39722 0.16355 0.0
C955 C 0.9966 0.42104 0.15034 0.0
C956 C 0.98881 0.37661 0.1726 0.0
C957 C 0.02418 0.38037 0.16849 0.0
C958 C 0.04596 0.40529 0.15548 0.0
C959 C 0.03181 0.42505 0.14652 0.0
C960 C 0.96463 0.35017 0.1863 0.0
C961 C 0.08412 0.41081 0.15088 0.0
H962 H 0.09523 0.36952 0.21148 0.0
H963 H 0.04567 0.27889 0.17582 0.0
H964 H 0.08488 0.43533 0.18942 0.0
H965 H 0.04243 0.41267 0.20141 0.0
H966 H 0.08614 0.4213 0.21071 0.0
H967 H 1.00485 0.27672 0.15451 0.0
H968 H 0.98092 0.3029 0.15834 0.0
H969 H 0.02234 0.32306 0.14564 0.0
H970 H 0.94806 0.39359 0.16639 0.0
H971 H 0.04824 0.44342 0.13632 0.0
H972 H 0.98033 0.35794 0.19832 0.0
H973 H 0.95769 0.32092 0.18329 0.0
H974 H 0.93794 0.35055 0.18804 0.0
H975 H 0.10295 0.42043 0.16198 0.0
H976 H 0.09784 0.43178 0.14067 0.0
H977 H 0.08122 0.38358 0.1468 0.0
C978 C 0.07415 0.76461 0.47323 0.0
C979 C 0.10029 0.79051 0.48467 0.0
C980 C 0.03532 0.74488 0.47698 0.0
C981 C 0.02275 0.75075 0.49264 0.0
C982 C 0.04872 0.77972 0.50334 0.0
C983 C 0.08698 0.79945 0.49912 0.0
C984 C 1.00832 0.71572 0.46479 0.0
C985 C 0.03687 0.7873 0.52014 0.0
C986 C 0.9238 0.70731 0.51067 0.0
C987 C 0.92306 0.67884 0.52072 0.0
C988 C 0.95457 0.72895 0.49994 0.0
C989 C 0.98536 0.72227 0.4996 0.0
C990 C 0.98284 0.69125 0.50858 0.0
C991 C 0.95157 0.66973 0.51879 0.0
C992 C 0.95515 0.76045 0.48991 0.0
C993 C 1.01472 0.68275 0.50867 0.0
H994 H 0.08415 0.75786 0.46193 0.0
H995 H 0.10702 0.82034 0.50772 0.0
H996 H 1.00415 0.68762 0.46823 0.0
H997 H 0.98041 0.71394 0.46509 0.0
H998 H 0.0195 0.72218 0.45181 0.0
H999 H 0.05984 0.81277 0.52633 0.0
H1000 H 1.01213 0.79115 0.5187 0.0
H1001 H 0.02851 0.76269 0.52851 0.0
H1002 H 0.90157 0.71413 0.51192 0.0
H1003 H 0.95039 0.6468 0.52606 0.0
H1004 H 0.97044 0.76487 0.47791 0.0
H1005 H 0.96975 0.78706 0.49719 0.0
H1006 H 0.92609 0.75454 0.48721 0.0
H1007 H 0.02255 0.67996 0.49569 0.0
H1008 H 1.00738 0.65638 0.51558 0.0
H1009 H 0.03995 0.70641 0.51466 0.0
C1010 C 0.24211 0.28184 0.47917 0.0
C1011 C 0.24696 0.31813 0.48104 0.0
C1012 C 0.26245 0.26964 0.48892 0.0
C1013 C 0.28906 0.29448 0.50074 0.0
C1014 C 0.29573 0.33188 0.5021 0.0
C1015 C 0.27448 0.34323 0.4923 0.0
C1016 C 0.25428 0.2295 0.48701 0.0
C1017 C 0.32433 0.35947 0.51433 0.0
C1018 C 0.30193 0.2431 0.53746 0.0
C1019 C 0.33323 0.24019 0.53249 0.0
C1020 C 0.28849 0.26234 0.52765 0.0
C1021 C 0.30706 0.27978 0.51253 0.0
C1022 C 0.34014 0.27916 0.50796 0.0
C1023 C 0.35275 0.25923 0.51795 0.0
C1024 C 0.25311 0.26217 0.53305 0.0
C1025 C 0.3612 0.29798 0.49211 0.0
H1026 H 0.22189 0.26253 0.47017 0.0
H1027 H 0.27863 0.37133 0.49386 0.0
H1028 H 0.28069 0.22916 0.48446 0.0
H1029 H 0.24241 0.21382 0.49886 0.0
H1030 H 0.23397 0.21426 0.47673 0.0
H1031 H 0.32996 0.38869 0.51228 0.0
H1032 H 0.31385 0.35088 0.5273 0.0
H1033 H 0.35127 0.35936 0.51329 0.0
H1034 H 0.28726 0.22958 0.54891 0.0
H1035 H 0.37698 0.25734 0.51397 0.0
H1036 H 0.2301 0.2455 0.524 0.0
H1037 H 0.25776 0.29129 0.53308 0.0
H1038 H 0.24361 0.24981 0.54573 0.0
H1039 H 0.34458 0.28145 0.48111 0.0
H1040 H 0.38927 0.30009 0.49165 0.0
H1041 H 0.36505 0.32671 0.49096 0.0
C1042 C 0.72542 0.94678 0.47328 0.0
C1043 C 0.71153 0.91915 0.48584 0.0
C1044 C 0.74892 0.98523 0.47738 0.0
C1045 C 0.75823 0.99595 0.49439 0.0
C1046 C 0.74751 0.96753 0.50675 0.0
C1047 C 0.72439 0.9296 0.5023 0.0
C1048 C 0.76086 0.01443 0.46371 0.0
C1049 C 0.75684 0.97726 0.52503 0.0
C1050 C 0.81981 0.09375 0.51324 0.0
C1051 C 0.79208 0.10186 0.51859 0.0
C1052 C 0.80993 0.06082 0.50387 0.0
C1053 C 0.77149 0.03552 0.49997 0.0
C1054 C 0.74412 0.04564 0.50408 0.0
C1055 C 0.75482 0.07868 0.51321 0.0
C1056 C 0.84023 0.05188 0.49923 0.0
C1057 C 0.70282 0.01994 0.50019 0.0
H1058 H 0.71552 0.93871 0.46054 0.0
H1059 H 0.71394 0.90806 0.51194 0.0
H1060 H 0.74118 0.02559 0.46333 0.0
H1061 H 0.78958 0.03851 0.46611 0.0
H1062 H 0.76036 1.00216 0.45125 0.0
H1063 H 0.75027 0.95206 0.53272 0.0
H1064 H 0.78709 0.99843 0.52662 0.0
H1065 H 0.74026 0.98983 0.52995 0.0
H1066 H 0.84869 0.11177 0.51728 0.0
H1067 H 0.73351 0.08544 0.517 0.0
H1068 H 0.83433 0.03753 0.4869 0.0
H1069 H 0.84119 0.0326 0.50874 0.0
H1070 H 0.86841 0.07782 0.49883 0.0
H1071 H 0.69891 1.01176 0.48679 0.0
H1072 H 0.68567 0.03334 0.50304 0.0
H1073 H 0.69178 0.99369 0.5077 0.0
C1074 C 0.39525 0.09518 0.5155 0.0
C1075 C 0.37586 0.09636 0.52972 0.0
C1076 C 0.38151 0.06185 0.506 0.0
C1077 C 0.34726 0.02929 0.51067 0.0
C1078 C 0.32735 0.03069 0.52486 0.0
C1079 C 0.34204 0.06403 0.53426 0.0
C1080 C 0.40376 0.06131 0.49107 0.0
C1081 C 0.29035 0.99698 0.53009 0.0
C1082 C 0.28916 0.95432 0.47835 0.0
C1083 C 0.2954 0.92473 0.48285 0.0
C1084 C 0.30651 0.98871 0.48705 0.0
C1085 C 0.33125 0.99402 0.50048 0.0
C1086 C 0.33851 0.96464 0.50482 0.0
C1087 C 0.32023 0.93017 0.49604 0.0
C1088 C 0.2974 0.01893 0.48219 0.0
C1089 C 0.36509 0.96941 0.51892 0.0
H1090 H 0.4216 0.11998 0.51206 0.0
H1091 H 0.32684 0.06481 0.54521 0.0
H1092 H 0.41081 0.0386 0.4926 0.0
H1093 H 0.38653 0.05493 0.47953 0.0
H1094 H 0.4303 0.08861 0.48934 0.0
H1095 H 0.27826 1.0028 0.54137 0.0
H1096 H 0.26963 0.98849 0.51971 0.0
H1097 H 0.29433 0.97262 0.53279 0.0
H1098 H 0.26993 0.95036 0.4682 0.0
H1099 H 0.32535 0.90752 0.4995 0.0
H1100 H 0.32368 0.04579 0.47947 0.0
H1101 H 0.28326 0.02435 0.49278 0.0
H1102 H 0.27872 1.01094 0.47104 0.0
H1103 H 0.39258 0.99561 0.51709 0.0
H1104 H 0.37 0.94514 0.5199 0.0
H1105 H 0.35336 0.9723 0.53098 0.0
C1106 C 0.0709 0.32955 0.46791 0.0
C1107 C 0.10266 0.36106 0.47475 0.0
C1108 C 0.03616 0.31192 0.47629 0.0
C1109 C 0.03271 0.3263 0.49188 0.0
C1110 C 0.06451 0.35846 0.49878 0.0
C1111 C 0.09922 0.37532 0.49018 0.0
C1112 C 1.00329 0.27738 0.4686 0.0
C1113 C 0.06191 0.37489 0.51529 0.0
C1114 C 0.93374 0.29664 0.50775 0.0
C1115 C 0.92819 0.26917 0.51967 0.0
C1116 C 0.96765 0.31561 0.49861 0.0
C1117 C 0.99635 0.30642 0.5013 0.0
C1118 C 0.99017 0.27771 0.5129 0.0
C1119 C 0.95638 0.25972 0.52201 0.0
C1120 C 0.97324 0.34622 0.48645 0.0
C1121 C 0.01954 0.26639 0.51592 0.0
H1122 H 0.07326 0.31817 0.45601 0.0
H1123 H 0.12354 0.39975 0.49549 0.0
H1124 H 0.9942 0.25281 0.47707 0.0
H1125 H 0.97895 0.28188 0.46703 0.0
H1126 H 1.01034 0.27024 0.45621 0.0
H1127 H 0.08852 0.40107 0.51854 0.0
H1128 H 0.03868 0.38136 0.51487 0.0
H1129 H 0.05523 0.35393 0.52543 0.0
H1130 H 0.91229 0.30445 0.50608 0.0
H1131 H 0.95224 0.2385 0.53123 0.0
H1132 H 0.97956 0.33974 0.47379 0.0
H1133 H 0.99778 0.37348 0.4904 0.0
H1134 H 0.94808 0.34969 0.48562 0.0
H1135 H 0.02684 0.25785 0.50395 0.0
H1136 H 1.00987 0.24268 0.52496 0.0
H1137 H 0.04572 0.29081 0.52085 0.0
C1138 C 0.73221 0.63517 0.51444 0.0
C1139 C 0.75415 0.65267 0.52866 0.0
C1140 C 0.71231 0.65043 0.50629 0.0
C1141 C 0.71459 0.684 0.51248 0.0
C1142 C 0.73718 0.70197 0.52668 0.0
C1143 C 0.75659 0.68612 0.53457 0.0
C1144 C 0.68862 0.63052 0.49113 0.0
C1145 C 0.74084 0.73801 0.53359 0.0
C1146 C 0.69645 0.74598 0.483 0.0
C1147 C 0.65992 0.73754 0.48749 0.0
C1148 C 0.71421 0.72846 0.49089 0.0
C1149 C 0.69509 0.70164 0.50367 0.0
C1150 C 0.65828 0.69309 0.5084 0.0
C1151 C 0.6411 0.71122 0.50027 0.0
C1152 C 0.75357 0.73876 0.48554 0.0
C1153 C 0.63704 0.66468 0.52201 0.0
H1154 H 0.72986 0.60912 0.50992 0.0
H1155 H 0.77347 0.69987 0.54556 0.0
H1156 H 0.65897 0.62309 0.49334 0.0
H1157 H 0.69886 0.64963 0.48012 0.0
H1158 H 0.68921 0.60437 0.48805 0.0
H1159 H 0.75902 0.74811 0.54491 0.0
H1160 H 0.75297 0.76051 0.52394 0.0
H1161 H 0.71261 0.73358 0.53685 0.0
H1162 H 0.71132 0.76632 0.47316 0.0
H1163 H 0.61279 0.70434 0.5037 0.0
H1164 H 0.754 0.71314 0.48137 0.0
H1165 H 0.77319 0.75065 0.49632 0.0
H1166 H 0.76431 0.75973 0.4752 0.0
H1167 H 0.63428 0.63707 0.51874 0.0
H1168 H 0.60845 0.66064 0.52403 0.0
H1169 H 0.65299 0.67403 0.53395 0.0
C1170 C 0.15877 0.30244 0.30168 0.0
C1171 C 0.18592 0.32192 0.28932 0.0
C1172 C 0.16581 0.31377 0.31851 0.0
C1173 C 0.20117 0.34488 0.32312 0.0
C1174 C 0.22919 0.36381 0.31075 0.0
C1175 C 0.22104 0.3524 0.29394 0.0
C1176 C 0.13492 0.29325 0.33125 0.0
C1177 C 0.26751 0.39647 0.31523 0.0
C1178 C 0.20264 0.39576 0.36315 0.0
C1179 C 0.2136 0.37784 0.37499 0.0
C1180 C 0.1994 0.38599 0.34613 0.0
C1181 C 0.2081 0.3582 0.34082 0.0
C1182 C 0.22103 0.34144 0.35264 0.0
C1183 C 0.22315 0.35111 0.36964 0.0
C1184 C 0.18486 0.40403 0.33398 0.0
C1185 C 0.23144 0.31239 0.34744 0.0
H1186 H 0.13142 0.27922 0.29807 0.0
H1187 H 0.24204 0.36741 0.28435 0.0
H1188 H 0.14493 0.28208 0.34147 0.0
H1189 H 0.12729 0.31319 0.337 0.0
H1190 H 0.10917 0.26942 0.32564 0.0
H1191 H 0.28702 0.4064 0.30436 0.0
H1192 H 0.26464 0.42038 0.31994 0.0
H1193 H 0.28029 0.38816 0.32544 0.0
H1194 H 0.19485 0.41611 0.36735 0.0
H1195 H 0.23173 0.33736 0.37883 0.0
H1196 H 0.15736 0.38217 0.32879 0.0
H1197 H 0.20456 0.41662 0.32329 0.0
H1198 H 0.18102 0.42636 0.33996 0.0
H1199 H 0.20583 0.28631 0.34325 0.0
H1200 H 0.24463 0.30498 0.35782 0.0
H1201 H 0.25125 0.32299 0.3367 0.0
C1202 C 0.69554 0.89434 0.31043 0.0
C1203 C 0.71975 0.88055 0.30648 0.0
C1204 C 0.68409 0.89406 0.32704 0.0
C1205 C 0.6974 0.87986 0.3399 0.0
C1206 C 0.72384 0.86831 0.33606 0.0
C1207 C 0.73454 0.86865 0.31939 0.0
C1208 C 0.6559 0.90658 0.33063 0.0
C1209 C 0.73908 0.85338 0.34942 0.0
C1210 C 0.68499 0.88792 0.38657 0.0
C1211 C 0.65626 0.85113 0.39014 0.0
C1212 C 0.69735 0.89877 0.37001 0.0
C1213 C 0.68032 0.87215 0.35689 0.0
C1214 C 0.64939 0.83589 0.36042 0.0
C1215 C 0.63791 0.82578 0.37703 0.0
C1216 C 0.73029 0.9377 0.36673 0.0
C1217 C 0.6301 0.80676 0.34681 0.0
H1218 H 0.68396 0.90343 0.30044 0.0
H1219 H 0.75367 0.85848 0.31634 0.0
H1220 H 0.62794 0.88146 0.33314 0.0
H1221 H 0.66415 0.92468 0.34195 0.0
H1222 H 0.65298 0.92234 0.31994 0.0
H1223 H 0.76229 0.84934 0.34468 0.0
H1224 H 0.74966 0.87294 0.36026 0.0
H1225 H 0.71613 0.8258 0.35404 0.0
H1226 H 0.69924 0.90737 0.3968 0.0
H1227 H 0.61557 0.79736 0.37989 0.0
H1228 H 0.72503 0.95041 0.35551 0.0
H1229 H 0.7558 0.93563 0.36419 0.0
H1230 H 0.73622 0.95683 0.37758 0.0
H1231 H 0.62269 0.81906 0.33609 0.0
H1232 H 0.60405 0.78153 0.35136 0.0
H1233 H 0.6496 0.79747 0.34209 0.0
C1234 C 0.14082 0.85154 0.3109 0.0
C1235 C 0.17188 0.86205 0.30033 0.0
C1236 C 0.14192 0.84272 0.32786 0.0
C1237 C 0.17475 0.84419 0.33442 0.0
C1238 C 0.20592 0.85414 0.32377 0.0
C1239 C 0.2042 0.86315 0.30694 0.0
C1240 C 0.10818 0.83249 0.33883 0.0
C1241 C 0.24148 0.85606 0.33024 0.0
C1242 C 0.19717 0.86268 0.38079 0.0
C1243 C 0.18651 0.82655 0.38701 0.0
C1244 C 0.19261 0.86852 0.36384 0.0
C1245 C 0.17755 0.83763 0.35263 0.0
C1246 C 0.16664 0.80105 0.35873 0.0
C1247 C 0.17115 0.79591 0.37585 0.0
C1248 C 0.2046 0.90801 0.35789 0.0
C1249 C 0.15072 0.76744 0.34713 0.0
H1250 H 0.11552 0.85004 0.30592 0.0
H1251 H 0.22864 0.87185 0.29903 0.0
H1252 H 0.09855 0.80473 0.34488 0.0
H1253 H 0.11618 0.85366 0.34898 0.0
H1254 H 0.08428 0.8312 0.3317 0.0
H1255 H 0.26229 0.86195 0.32012 0.0
H1256 H 0.2548 0.87861 0.33982 0.0
H1257 H 0.23469 0.82906 0.33638 0.0
H1258 H 0.20998 0.88679 0.38912 0.0
H1259 H 0.16257 0.76787 0.3805 0.0
H1260 H 0.18091 0.90835 0.35132 0.0
H1261 H 0.22804 0.91743 0.34879 0.0
H1262 H 0.21406 0.92866 0.36835 0.0
H1263 H 0.12551 0.76448 0.34056 0.0
H1264 H 0.1427 0.74072 0.35388 0.0
H1265 H 0.17182 0.77178 0.33741 0.0
C1266 C 0.39226 0.17958 0.64572 0.0
C1267 C 0.37658 0.19071 0.63287 0.0
C1268 C 0.37964 0.17615 0.66229 0.0
C1269 C 0.35041 0.1838 0.6661 0.0
C1270 C 0.3356 0.19668 0.65331 0.0
C1271 C 0.34897 0.20011 0.63682 0.0
C1272 C 0.39654 0.16277 0.67557 0.0
C1273 C 0.30439 0.20506 0.65688 0.0
C1274 C 0.29222 0.12845 0.70356 0.0
C1275 C 0.30829 0.15501 0.71649 0.0
C1276 C 0.30434 0.13809 0.68695 0.0
C1277 C 0.33348 0.17517 0.68317 0.0
C1278 C 0.34855 0.20264 0.69604 0.0
C1279 C 0.33568 0.19225 0.71257 0.0
C1280 C 0.28719 0.10803 0.67358 0.0
C1281 C 0.37969 0.24243 0.69253 0.0
H1282 H 0.41398 0.17279 0.64274 0.0
H1283 H 0.33661 0.20849 0.6269 0.0
H1284 H 0.40585 0.18216 0.68647 0.0
H1285 H 0.37489 0.13447 0.68011 0.0
H1286 H 0.42099 0.16087 0.67082 0.0
H1287 H 0.29879 0.21863 0.64605 0.0
H1288 H 0.27811 0.1784 0.65987 0.0
H1289 H 0.31149 0.22379 0.66795 0.0
H1290 H 0.27071 0.09976 0.70653 0.0
H1291 H 0.34838 0.21281 0.72255 0.0
H1292 H 0.30865 0.10126 0.66898 0.0
H1293 H 0.27805 0.11843 0.66273 0.0
H1294 H 0.26259 0.08164 0.67828 0.0
H1295 H 0.40601 0.24223 0.68953 0.0
H1296 H 0.38522 0.26145 0.70339 0.0
H1297 H 0.37259 0.25414 0.68149 0.0
C1298 C 0.86079 0.19711 0.70916 0.0
C1299 C 0.87702 0.17559 0.71428 0.0
C1300 C 0.85429 0.20063 0.69216 0.0
C1301 C 0.86402 0.182 0.67992 0.0
C1302 C 0.87922 0.15919 0.68502 0.0
C1303 C 0.88557 0.15629 0.70213 0.0
C1304 C 0.83796 0.22515 0.68727 0.0
C1305 C 0.88987 0.13879 0.67236 0.0
C1306 C 0.82374 0.17136 0.63592 0.0
C1307 C 0.85402 0.20107 0.62741 0.0
C1308 C 0.8266 0.16459 0.65298 0.0
C1309 C 0.86043 0.18827 0.66178 0.0
C1310 C 0.89095 0.21844 0.65328 0.0
C1311 C 0.88739 0.22442 0.63623 0.0
C1312 C 0.79353 0.13202 0.66159 0.0
C1313 C 0.92738 0.24459 0.66221 0.0
H1314 H 0.85337 0.21151 0.71847 0.0
H1315 H 0.89838 0.13984 0.70593 0.0
H1316 H 0.85879 0.24943 0.67971 0.0
H1317 H 0.81254 0.20896 0.67936 0.0
H1318 H 0.83017 0.23621 0.69833 0.0
H1319 H 0.89879 0.12005 0.67839 0.0
H1320 H 0.86575 0.12157 0.66391 0.0
H1321 H 0.91337 0.15964 0.66446 0.0
H1322 H 0.79802 0.153 0.62914 0.0
H1323 H 0.9107 0.24776 0.6298 0.0
H1324 H 0.78418 0.14252 0.67231 0.0
H1325 H 0.80209 0.11224 0.66673 0.0
H1326 H 0.76925 0.1162 0.65299 0.0
H1327 H 0.92183 0.25868 0.67279 0.0
H1328 H 0.94848 0.26663 0.65378 0.0
H1329 H 0.93974 0.22818 0.66757 0.0
C1330 C 0.87356 0.67944 0.71143 0.0
C1331 C 0.85762 0.70182 0.71539 0.0
C1332 C 0.87257 0.66692 0.69495 0.0
C1333 C 0.85537 0.6772 0.68218 0.0
C1334 C 0.84064 0.70104 0.68603 0.0
C1335 C 0.84193 0.71301 0.70257 0.0
C1336 C 0.88861 0.64158 0.69131 0.0
C1337 C 0.82241 0.71299 0.67276 0.0
C1338 C 0.87105 0.67046 0.6358 0.0
C1339 C 0.83705 0.63839 0.63113 0.0
C1340 C 0.87832 0.68244 0.65254 0.0
C1341 C 0.85095 0.66181 0.66493 0.0
C1342 C 0.81748 0.62829 0.66044 0.0
C1343 C 0.81091 0.61701 0.6436 0.0
C1344 C 0.91443 0.71819 0.65683 0.0
C1345 C 0.78764 0.60544 0.67329 0.0
H1346 H 0.88546 0.67049 0.72134 0.0
H1347 H 0.83004 0.73073 0.70556 0.0
H1348 H 0.86546 0.61306 0.68782 0.0
H1349 H 0.90823 0.6526 0.68052 0.0
H1350 H 0.90383 0.63884 0.70225 0.0
H1351 H 0.81391 0.73302 0.67767 0.0
H1352 H 0.84206 0.72656 0.66213 0.0
H1353 H 0.797 0.68781 0.66776 0.0
H1354 H 0.89169 0.68673 0.62627 0.0
H1355 H 0.78445 0.59239 0.6401 0.0
H1356 H 0.92839 0.71349 0.66773 0.0
H1357 H 0.90796 0.74051 0.6604 0.0
H1358 H 0.9345 0.72866 0.64616 0.0
H1359 H 0.80041 0.59943 0.68427 0.0
H1360 H 0.76504 0.57825 0.66812 0.0
H1361 H 0.77464 0.6219 0.67784 0.0
C1362 C 0.97099 0.51127 0.0345 0.0
C1363 C 0.99063 0.49868 0.04457 0.0
C1364 C 0.98015 0.52012 0.01751 0.0
C1365 C 1.00987 0.51662 0.01039 0.0
C1366 C 0.0302 0.50455 0.02053 0.0
C1367 C 0.02022 0.49553 0.03742 0.0
C1368 C 0.95762 0.53265 0.00709 0.0
C1369 C 0.06211 0.50046 0.01345 0.0
C1370 C 1.01044 0.49951 0.96367 0.0
C1371 C 0.03733 0.53535 0.95769 0.0
C1372 C 1.00064 0.49336 0.98068 0.0
C1373 C 1.0185 0.52361 0.99216 0.0
C1374 C 0.04546 0.55994 0.98626 0.0
C1375 C 0.05446 0.56541 0.9691 0.0
C1376 C 0.97168 0.45419 0.98641 0.0
C1377 C 0.06529 0.59285 0.99814 0.0
H1378 H 0.94849 0.51439 0.03992 0.0
H1379 H 0.03522 0.48526 0.04495 0.0
H1380 H 0.97666 0.56038 1.00121 0.0
H1381 H 0.94309 0.51216 0.99681 0.0
H1382 H 0.93615 0.53508 0.0146 0.0
H1383 H 0.07651 0.49284 0.0232 0.0
H1384 H 0.05117 0.47829 1.00365 0.0
H1385 H 0.08322 0.52722 0.00742 0.0
H1386 H 0.99763 0.47579 0.95513 0.0
H1387 H 0.07501 0.59325 0.96464 0.0
H1388 H 0.94884 0.45515 0.99343 0.0
H1389 H 0.98497 0.44302 0.99505 0.0
H1390 H 0.95893 0.43419 0.97578 0.0
H1391 H 0.04433 0.59698 1.00518 0.0
H1392 H 0.08474 0.61953 0.99153 0.0
H1393 H 0.0817 0.58683 0.00745 0.0
C1394 C 0.50063 0.46462 0.04898 0.0
C1395 C 0.53062 0.4972 0.05614 0.0
C1396 C 0.49167 0.46349 0.0319 0.0
C1397 C 0.51275 0.49591 0.02184 0.0
C1398 C 0.54285 0.52887 0.029 0.0
C1399 C 0.5517 0.52893 0.04594 0.0
C1400 C 0.4598 0.42765 0.0246 0.0
C1401 C 0.5659 0.56417 0.01873 0.0
C1402 C 0.52115 0.49388 0.9747 0.0
C1403 C 0.49742 0.50733 0.96942 0.0
C1404 C 0.52447 0.48757 0.99172 0.0
C1405 C 0.50414 0.49566 1.00373 0.0
C1406 C 0.47881 0.50761 0.99837 0.0
C1407 C 0.47551 0.513 0.98121 0.0
C1408 C 0.5512 0.47409 0.99688 0.0
C1409 C 0.45707 0.51707 0.01079 0.0
H1410 H 0.48387 0.44007 0.05673 0.0
H1411 H 0.57554 0.55393 0.05116 0.0
H1412 H 0.43786 0.43311 0.01943 0.0
H1413 H 0.47036 0.41782 0.01408 0.0
H1414 H 0.44656 0.40468 0.03403 0.0
H1415 H 0.5873 0.58796 0.02638 0.0
H1416 H 0.5806 0.55835 0.00853 0.0
H1417 H 0.54715 0.57313 0.01279 0.0
H1418 H 0.5378 0.48915 0.96551 0.0
H1419 H 0.45731 0.52358 0.97709 0.0
H1420 H 0.53744 0.45052 1.00598 0.0
H1421 H 0.57616 0.49738 1.00319 0.0
H1422 H 0.56109 0.4645 0.986 0.0
H1423 H 0.44258 0.49393 0.02003 0.0
H1424 H 0.43577 0.52221 1.00459 0.0
H1425 H 0.47692 0.54283 0.01785 0.0
C1426 C 0.52262 0.06057 0.0375 0.0
C1427 C 0.53786 0.04765 0.04983 0.0
C1428 C 0.52034 0.04949 0.02073 0.0
C1429 C 0.53358 0.02479 0.01613 0.0
C1430 C 0.5504 1.01283 0.02838 0.0
C1431 C 0.55242 0.02448 0.04511 0.0
C1432 C 0.50252 0.06321 0.00805 0.0
C1433 C 0.56484 0.98651 0.02395 0.0
C1434 C 0.4864 0.96558 0.9775 0.0
C1435 C 0.51269 0.98599 0.96491 0.0
C1436 C 0.49352 0.97713 0.99431 0.0
C1437 C 0.52772 1.00998 0.99868 0.0
C1438 C 0.55492 0.03001 0.98614 0.0
C1439 C 0.54711 0.01776 0.96942 0.0
C1440 C 0.46376 0.95495 0.0073 0.0
C1441 C 0.59176 0.06508 0.9903 0.0
H1442 H 0.51179 0.0789 0.04106 0.0
H1443 H 0.56395 0.01416 0.0546 0.0
H1444 H 0.52174 0.0765 0.99726 0.0
H1445 H 0.47621 0.03891 1.00314 0.0
H1446 H 0.49559 0.08398 0.01347 0.0
H1447 H 0.58 0.98241 0.03456 0.0
H1448 H 0.54085 0.9586 0.02031 0.0
H1449 H 0.58411 0.99755 0.01305 0.0
H1450 H 0.45957 0.9413 0.97414 0.0
H1451 H 0.56785 0.03335 0.95983 0.0
H1452 H 0.45245 0.97253 0.01236 0.0
H1453 H 0.47623 0.94751 0.01794 0.0
H1454 H 0.43995 0.92858 1.0021 0.0
H1455 H 0.58624 0.08763 0.9946 0.0
H1456 H 0.61107 0.0758 0.97937 0.0
H1457 H 0.60615 0.05932 1.0007 0.0
C1458 C 0.19667 0.05742 0.20959 0.0
C1459 C 0.20443 0.05039 0.22592 0.0
C1460 C 0.18784 0.08597 0.20631 0.0
C1461 C 0.18667 0.10813 0.21968 0.0
C1462 C 0.19426 0.10103 0.23618 0.0
C1463 C 0.20298 0.07239 0.23909 0.0
C1464 C 0.18011 0.09267 0.18853 0.0
C1465 C 0.19335 0.12389 0.25083 0.0
C1466 C 0.205 0.20781 0.21263 0.0
C1467 C 0.16886 0.20333 0.21422 0.0
C1468 C 0.21086 0.1769 0.21368 0.0
C1469 C 0.17985 0.14028 0.21644 0.0
C1470 C 0.143 0.13522 0.21735 0.0
C1471 C 0.13791 0.1668 0.21619 0.0
C1472 C 0.25059 0.18376 0.21255 0.0
C1473 C 0.10914 0.09666 0.22025 0.0
H1474 H 0.19779 0.04076 0.19932 0.0
H1475 H 0.20797 0.06682 0.2518 0.0
H1476 H 0.15225 0.09091 0.18775 0.0
H1477 H 0.20159 0.12152 0.18452 0.0
H1478 H 0.18047 0.07201 0.17964 0.0
H1479 H 0.19873 0.11411 0.26296 0.0
H1480 H 0.21494 0.15403 0.2491 0.0
H1481 H 0.16552 0.1222 0.25148 0.0
H1482 H 0.22911 0.23584 0.21093 0.0
H1483 H 0.10991 0.16304 0.21746 0.0
H1484 H 0.25213 0.16468 0.20313 0.0
H1485 H 0.25901 0.17741 0.22479 0.0
H1486 H 0.27125 0.21338 0.20911 0.0
H1487 H 0.10893 0.07605 0.21117 0.0
H1488 H 0.08221 0.09683 0.2191 0.0
H1489 H 0.11071 0.08663 0.23298 0.0
C1490 C 0.88041 0.97698 0.24101 0.0
C1491 C 0.8438 0.96444 0.23513 0.0
C1492 C 0.90863 0.01489 0.23959 0.0
C1493 C 0.89986 0.04117 0.23239 0.0
C1494 C 0.86314 0.02851 0.226 0.0
C1495 C 0.83553 0.99008 0.2273 0.0
C1496 C 0.94761 0.02695 0.2462 0.0
C1497 C 0.85265 0.05574 0.21837 0.0
C1498 C 0.96394 0.14197 0.24702 0.0
C1499 C 0.98965 0.15737 0.23371 0.0
C1500 C 0.93359 0.10474 0.2464 0.0
C1501 C 0.92897 0.082 0.23224 0.0
C1502 C 0.95411 0.0975 0.2186 0.0
C1503 C 0.98387 0.13499 0.21943 0.0
C1504 C 0.90715 0.08932 0.26117 0.0
C1505 C 0.95037 0.07408 0.20334 0.0
H1506 H 0.88697 0.95707 0.2469 0.0
H1507 H 0.80715 0.98042 0.22284 0.0
H1508 H 0.96906 0.04259 0.23641 0.0
H1509 H 0.95405 0.04633 0.25697 0.0
H1510 H 0.95046 1.00258 0.25035 0.0
H1511 H 0.82371 0.04112 0.21303 0.0
H1512 H 0.85432 0.07591 0.22807 0.0
H1513 H 0.87285 0.07252 0.20833 0.0
H1514 H 0.96797 0.15858 0.25816 0.0
H1515 H 1.00272 0.14649 0.20886 0.0
H1516 H 0.91059 0.06704 0.26745 0.0
H1517 H 0.87745 0.07611 0.25689 0.0
H1518 H 0.91241 0.11153 0.27051 0.0
H1519 H 0.95534 0.05073 0.20693 0.0
H1520 H 0.97069 0.09097 0.19333 0.0
H1521 H 0.9214 0.06107 0.19817 0.0
C1522 C 0.89064 0.83323 0.24391 0.0
C1523 C 0.87156 0.84267 0.23197 0.0
C1524 C 0.92883 0.84443 0.24197 0.0
C1525 C 0.94857 0.86542 0.22766 0.0
C1526 C 0.92925 0.87406 0.21527 0.0
C1527 C 0.89102 0.8628 0.21763 0.0
C1528 C 0.94843 0.83509 0.25561 0.0
C1529 C 0.94919 0.89602 0.19975 0.0
C1530 C 0.05373 0.92961 0.23389 0.0
C1531 C 0.06851 0.90777 0.22748 0.0
C1532 C 1.01494 0.91659 0.23355 0.0
C1533 C 0.99006 0.88088 0.22648 0.0
C1534 C 1.00479 0.85921 0.21941 0.0
C1535 C 0.04386 0.87283 0.22006 0.0
C1536 C 1.00047 0.94056 0.24132 0.0
C1537 C 0.97919 0.82121 0.21157 0.0
H1538 H 0.87602 0.81819 0.25513 0.0
H1539 H 0.87638 0.86978 0.20826 0.0
H1540 H 0.96273 0.8206 0.25023 0.0
H1541 H 0.97044 0.86154 0.26154 0.0
H1542 H 0.92861 0.81679 0.26549 0.0
H1543 H 0.92945 0.89737 0.19061 0.0
H1544 H 0.97073 0.92525 0.20325 0.0
H1545 H 0.96415 0.88303 0.19357 0.0
H1546 H 0.07241 0.95676 0.23957 0.0
H1547 H 0.05496 0.85581 0.215 0.0
H1548 H 0.98234 0.92557 0.25223 0.0
H1549 H 0.98287 0.94536 0.23221 0.0
H1550 H 0.02365 0.96841 0.24561 0.0
H1551 H 0.96093 0.80106 0.22134 0.0
H1552 H 0.99521 0.80938 0.20534 0.0
H1553 H 0.96039 0.8235 0.20222 0.0
C1554 C 0.09398 0.22053 0.78596 0.0
C1555 C 0.05659 0.19629 0.79099 0.0
C1556 C 0.12125 0.20934 0.78691 0.0
C1557 C 0.1111 0.17307 0.79317 0.0
C1558 C 0.07404 0.14933 0.79918 0.0
C1559 C 0.04727 0.16111 0.79796 0.0
C1560 C 0.16038 0.23553 0.7803 0.0
C1561 C 0.06196 0.11049 0.806 0.0
C1562 C 0.16106 0.12431 0.77487 0.0
C1563 C 0.18713 0.12923 0.78745 0.0
C1564 C 0.13649 0.13857 0.77662 0.0
C1565 C 0.13755 0.15812 0.79141 0.0
C1566 C 0.1636 0.16309 0.80425 0.0
C1567 C 0.18824 0.14873 0.80209 0.0
C1568 C 0.10945 0.13283 0.76254 0.0
C1569 C 0.16534 0.18345 0.82025 0.0
H1570 H 0.10173 0.24797 0.78084 0.0
H1571 H 1.01855 0.1418 0.80174 0.0
H1572 H 0.18195 0.23811 0.78944 0.0
H1573 H 0.16479 0.22365 0.7686 0.0
H1574 H 0.16502 0.26415 0.77755 0.0
H1575 H 0.03395 0.09758 0.81218 0.0
H1576 H 0.06036 0.09173 0.79563 0.0
H1577 H 0.08295 0.11175 0.81516 0.0
H1578 H 0.15996 0.10949 0.76346 0.0
H1579 H 0.20829 0.15272 0.81186 0.0
H1580 H 0.11422 0.16053 0.75804 0.0
H1581 H 0.07999 0.11666 0.76711 0.0
H1582 H 0.11252 0.11743 0.75176 0.0
H1583 H 0.17148 0.21251 0.8174 0.0
H1584 H 0.1872 0.1851 0.82901 0.0
H1585 H 0.13758 0.16875 0.82663 0.0
C1586 C 0.92385 0.05218 0.77129 0.0
C1587 C 0.91868 0.07161 0.78452 0.0
C1588 C 0.91125 0.01345 0.7725 0.0
C1589 C 0.89382 0.99387 0.78746 0.0
C1590 C 0.89019 0.01376 0.80116 0.0
C1591 C 0.90226 0.05233 0.79945 0.0
C1592 C 0.91506 0.99317 0.7575 0.0
C1593 C 0.87268 0.99409 0.81745 0.0
C1594 C 0.82364 0.8893 0.78295 0.0
C1595 C 0.84567 0.87295 0.78691 0.0
C1596 C 0.83882 0.92853 0.78339 0.0
C1597 C 0.87686 0.95214 0.78822 0.0
C1598 C 0.89889 0.93585 0.79294 0.0
C1599 C 0.88313 0.8965 0.79211 0.0
C1600 C 0.81446 0.94478 0.77809 0.0
C1601 C 0.93943 0.96003 0.79838 0.0
H1602 H 0.93641 0.0669 0.75969 0.0
H1603 H 0.89858 0.06735 0.80978 0.0
H1604 H 0.9298 0.9777 0.76107 0.0
H1605 H 0.88664 0.97198 0.75289 0.0
H1606 H 0.93076 1.01277 0.74708 0.0
H1607 H 0.87533 0.01423 0.8274 0.0
H1608 H 0.84233 0.97357 0.8155 0.0
H1609 H 0.88616 0.97795 0.82188 0.0
H1610 H 0.79455 0.87145 0.77922 0.0
H1611 H 0.90066 0.88439 0.79501 0.0
H1612 H 0.827 0.96316 0.76697 0.0
H1613 H 0.81321 0.96261 0.78823 0.0
H1614 H 0.78524 0.92253 0.77493 0.0
H1615 H 0.95669 0.97724 0.78766 0.0
H1616 H 0.95163 0.94289 0.80308 0.0
H1617 H 0.94166 0.97989 0.80836 0.0
C1618 C 0.13324 0.93888 0.77931 0.0
C1619 C 0.14931 0.97018 0.7901 0.0
C1620 C 0.09472 0.9119 0.78 0.0
C1621 C 0.07132 0.91608 0.79178 0.0
C1622 C 0.08733 0.94715 0.80296 0.0
C1623 C 0.1261 0.97388 0.80196 0.0
C1624 C 0.07886 0.87953 0.76768 0.0
C1625 C 0.06336 0.95253 0.81575 0.0
C1626 C 0.96883 0.86924 0.77836 0.0
C1627 C 0.95288 0.83443 0.78674 0.0
C1628 C 1.00682 0.89673 0.78056 0.0
C1629 C 0.02975 0.88934 0.79138 0.0
C1630 C 1.01345 0.85494 0.80048 0.0
C1631 C 0.97512 0.82789 0.79809 0.0
C1632 C 0.02277 0.93305 0.77071 0.0
C1633 C 0.03687 0.84611 0.81223 0.0
H1634 H 0.15058 0.93598 0.76989 0.0
H1635 H 0.13819 0.99764 0.81048 0.0
H1636 H 0.06334 0.85223 0.77442 0.0
H1637 H 0.05848 0.88164 0.75923 0.0
H1638 H 0.10113 0.87917 0.75991 0.0
H1639 H 0.08042 0.97665 0.82426 0.0
H1640 H 0.04234 0.95765 0.8093 0.0
H1641 H 0.04746 0.92655 0.82336 0.0
H1642 H 0.95171 0.8749 0.7698 0.0
H1643 H 0.96294 0.80116 0.80468 0.0
H1644 H 0.04333 0.93413 0.76139 0.0
H1645 H 0.03807 0.95771 0.77912 0.0
H1646 H 1.00054 0.93582 0.76397 0.0
H1647 H 0.05759 0.84212 0.80491 0.0
H1648 H 0.01934 0.82014 0.81967 0.0
H1649 H 0.05303 0.87003 0.82093 0.0
C1650 C 0.83493 0.51543 0.55082 0.0
C1651 C 0.79698 0.49939 0.55556 0.0
C1652 C 0.85238 0.49341 0.54987 0.0
C1653 C 0.83137 0.4544 0.55367 0.0
C1654 C 0.79277 0.43783 0.55794 0.0
C1655 C 0.77609 0.46051 0.55885 0.0
C1656 C 0.89356 0.51211 0.54525 0.0
C1657 C 0.76927 0.39627 0.56198 0.0
C1658 C 0.86419 0.38605 0.54081 0.0
C1659 C 0.87806 0.38055 0.55601 0.0
C1660 C 0.8501 0.411 0.53967 0.0
C1661 C 0.85 0.43111 0.55407 0.0
C1662 C 0.8656 0.42709 0.56923 0.0
C1663 C 0.87938 0.40189 0.57002 0.0
C1664 C 0.8339 0.41464 0.52325 0.0
C1665 C 0.86612 0.44807 0.58486 0.0
H1666 H 0.85134 0.54543 0.54824 0.0
H1667 H 0.74669 0.44775 0.56238 0.0
H1668 H 0.90996 0.51084 0.55605 0.0
H1669 H 0.89763 0.49685 0.53473 0.0
H1670 H 0.90529 0.54214 0.54161 0.0
H1671 H 0.73922 0.38737 0.56425 0.0
H1672 H 0.77075 0.37914 0.55157 0.0
H1673 H 0.78062 0.38973 0.57332 0.0
H1674 H 0.86355 0.37015 0.52986 0.0
H1675 H 0.88952 0.39766 0.58188 0.0
H1676 H 0.84628 0.44479 0.51977 0.0
H1677 H 0.80305 0.40277 0.52457 0.0
H1678 H 0.83896 0.39961 0.5129 0.0
H1679 H 0.87918 0.4787 0.58222 0.0
H1680 H 0.88182 0.44412 0.59527 0.0
H1681 H 0.8368 0.43797 0.58906 0.0
C1682 C 0.61015 0.48034 0.56532 0.0
C1683 C 0.64559 0.49051 0.55861 0.0
C1684 C 0.58034 0.44282 0.56471 0.0
C1685 C 0.58615 0.41478 0.55725 0.0
C1686 C 0.62102 0.42532 0.54945 0.0
C1687 C 0.65028 0.46302 0.5502 0.0
C1688 C 0.54348 0.43282 0.57306 0.0
C1689 C 0.62847 0.39634 0.54138 0.0
C1690 C 0.53472 0.31681 0.57628 0.0
C1691 C 0.50609 0.29651 0.56454 0.0
C1692 C 0.56065 0.35524 0.57403 0.0
C1693 C 0.558 0.37409 0.55968 0.0
C1694 C 0.52908 0.35392 0.54778 0.0
C1695 C 0.50343 0.31529 0.55034 0.0
C1696 C 0.5911 0.37562 0.58703 0.0
C1697 C 0.52543 0.3731 0.53232 0.0
H1698 H 0.60613 0.50152 0.57158 0.0
H1699 H 0.67754 0.47034 0.54509 0.0
H1700 H 0.51937 0.41424 0.56486 0.0
H1701 H 0.54058 0.41702 0.58479 0.0
H1702 H 0.54165 0.45827 0.57623 0.0
H1703 H 0.6549 0.40962 0.53393 0.0
H1704 H 0.63092 0.37857 0.55125 0.0
H1705 H 0.60472 0.37737 0.53309 0.0
H1706 H 0.5371 0.30265 0.5873 0.0
H1707 H 0.48136 0.29983 0.54122 0.0
H1708 H 0.58927 0.3998 0.59219 0.0
H1709 H 0.61927 0.38717 0.58117 0.0
H1710 H 0.58905 0.35691 0.59756 0.0
H1711 H 0.52241 0.39761 0.53594 0.0
H1712 H 0.50086 0.35372 0.52448 0.0
H1713 H 0.55137 0.38413 0.52465 0.0
C1714 C 0.72222 0.21424 0.5489 0.0
C1715 C 0.74836 0.24588 0.55806 0.0
C1716 C 0.68392 0.20377 0.54839 0.0
C1717 C 0.67142 0.22548 0.55721 0.0
C1718 C 0.69797 0.25842 0.56584 0.0
C1719 C 0.73605 0.26817 0.56617 0.0
C1720 C 0.65658 0.1686 0.53895 0.0
C1721 C 0.68595 0.28254 0.57531 0.0
C1722 C 0.57305 0.21026 0.54884 0.0
C1723 C 0.55217 0.18559 0.56188 0.0
C1724 C 0.61187 0.22346 0.54708 0.0
C1725 C 0.63028 0.21191 0.55869 0.0
C1726 C 0.60939 0.18726 0.57193 0.0
C1727 C 0.57072 0.17443 0.57334 0.0
C1728 C 0.63314 0.24958 0.53276 0.0
C1729 C 0.62793 0.17453 0.5847 0.0
H1730 H 0.73144 0.19691 0.54253 0.0
H1731 H 0.75608 0.29296 0.5731 0.0
H1732 H 0.63732 0.14674 0.54794 0.0
H1733 H 0.63895 0.17471 0.53041 0.0
H1734 H 0.67115 0.15681 0.5315 0.0
H1735 H 0.71041 0.30907 0.58002 0.0
H1736 H 0.66855 0.28986 0.56721 0.0
H1737 H 0.66828 0.26644 0.58616 0.0
H1738 H 0.55894 0.21878 0.53985 0.0
H1739 H 0.55505 0.156 0.58363 0.0
H1740 H 0.64572 0.2366 0.52477 0.0
H1741 H 0.65668 0.27645 0.53766 0.0
H1742 H 0.61479 0.25607 0.52484 0.0
H1743 H 0.6409 0.15973 0.57836 0.0
H1744 H 0.60771 0.15528 0.59424 0.0
H1745 H 0.65087 0.19941 0.59121 0.0
C1746 C 0.86071 0.49732 0.12903 0.0
C1747 C 0.84975 0.46654 0.11822 0.0
C1748 C 0.83829 0.51413 0.13094 0.0
C1749 C 0.80453 0.5002 0.12159 0.0
C1750 C 0.79366 0.46949 0.11049 0.0
C1751 C 0.81622 0.45286 0.10905 0.0
C1752 C 0.85036 0.5463 0.14316 0.0
C1753 C 0.7581 0.4541 0.10013 0.0
C1754 C 0.72226 0.5118 0.13478 0.0
C1755 C 0.72518 0.53992 0.12369 0.0
C1756 C 0.74918 0.50024 0.13493 0.0
C1757 C 0.77973 0.51678 0.12361 0.0
C1758 C 0.78426 0.5466 0.11309 0.0
C1759 C 0.7572 0.55806 0.11339 0.0
C1760 C 0.74366 0.46874 0.14656 0.0
C1761 C 0.81648 0.5649 0.1008 0.0
H1762 H 0.88655 0.50795 0.1362 0.0
H1763 H 0.80769 0.42929 0.10056 0.0
H1764 H 0.85258 0.57133 0.1367 0.0
H1765 H 0.82876 0.53812 0.1531 0.0
H1766 H 0.87788 0.55446 0.14915 0.0
H1767 H 0.75448 0.43111 0.09158 0.0
H1768 H 0.73318 0.44294 0.10847 0.0
H1769 H 0.75854 0.47702 0.09253 0.0
H1770 H 0.6982 0.49737 0.14295 0.0
H1771 H 0.7607 0.58047 0.10509 0.0
H1772 H 0.77039 0.47608 0.15309 0.0
H1773 H 0.73521 0.44273 0.13919 0.0
H1774 H 0.72157 0.46239 0.1561 0.0
H1775 H 0.84367 0.57351 0.10715 0.0
H1776 H 0.81815 0.59007 0.09467 0.0
H1777 H 0.81278 0.54422 0.09094 0.0
C1778 C 0.50053 0.22695 0.12162 0.0
C1779 C 0.52391 0.21168 0.12482 0.0
C1780 C 0.51443 0.26599 0.12237 0.0
C1781 C 0.55252 0.29059 0.12684 0.0
C1782 C 0.5759 0.27542 0.13087 0.0
C1783 C 0.56147 0.23627 0.12965 0.0
C1784 C 0.48861 0.28101 0.11779 0.0
C1785 C 0.61649 0.30064 0.136 0.0
C1786 C 0.59583 0.39086 0.11034 0.0
C1787 C 0.59085 0.40968 0.1239 0.0
C1788 C 0.58434 0.35234 0.11129 0.0
C1789 C 0.56817 0.33224 0.1263 0.0
C1790 C 0.56473 0.3515 0.14031 0.0
C1791 C 0.57572 0.3899 0.13888 0.0
C1792 C 0.58798 0.33279 0.09598 0.0
C1793 C 0.54852 0.33131 0.15665 0.0
H1794 H 0.47134 0.20852 0.11823 0.0
H1795 H 0.58013 0.22525 0.13203 0.0
H1796 H 0.48731 0.29824 0.1282 0.0
H1797 H 0.49992 0.2997 0.10668 0.0
H1798 H 0.45951 0.25811 0.1149 0.0
H1799 H 0.62985 0.28426 0.14031 0.0
H1800 H 0.63289 0.31845 0.12525 0.0
H1801 H 0.61842 0.31993 0.1462 0.0
H1802 H 0.60738 0.40586 0.09869 0.0
H1803 H 0.57206 0.40434 0.14946 0.0
H1804 H 0.55956 0.31096 0.09165 0.0
H1805 H 0.60384 0.31818 0.09907 0.0
H1806 H 0.60252 0.35272 0.0855 0.0
H1807 H 0.51821 0.3103 0.15499 0.0
H1808 H 0.55129 0.35106 0.16682 0.0
H1809 H 0.56285 0.31567 0.16061 0.0
C1810 C 0.6552 0.20236 0.10823 0.0
C1811 C 0.63659 0.17364 0.12018 0.0
C1812 C 0.69372 0.22892 0.10961 0.0
C1813 C 0.71463 0.22722 0.12337 0.0
C1814 C 0.69607 0.1987 0.13566 0.0
C1815 C 0.65727 0.17215 0.1339 0.0
C1816 C 0.71214 0.25864 0.09615 0.0
C1817 C 0.71724 0.19617 0.1506 0.0
C1818 C 0.82005 0.2767 0.11467 0.0
C1819 C 0.83246 0.31313 0.12093 0.0
C1820 C 0.78225 0.24777 0.11627 0.0
C1821 C 0.75598 0.25517 0.12445 0.0
C1822 C 0.76876 0.29114 0.13173 0.0
C1823 C 0.80669 0.31964 0.12985 0.0
C1824 C 0.76998 0.20994 0.10828 0.0
C1825 C 0.74188 0.30031 0.14063 0.0
H1826 H 0.63971 0.20404 0.09758 0.0
H1827 H 0.64323 0.15019 0.14322 0.0
H1828 H 0.72482 0.28721 0.10176 0.0
H1829 H 0.73525 0.25623 0.09017 0.0
H1830 H 0.69192 0.25617 0.08627 0.0
H1831 H 0.69865 0.17309 0.1593 0.0
H1832 H 0.74017 0.19124 0.14636 0.0
H1833 H 0.73065 0.22327 0.15756 0.0
H1834 H 0.83971 0.27102 0.10806 0.0
H1835 H 0.81555 0.34756 0.13466 0.0
H1836 H 0.7518 0.20616 0.09729 0.0
H1837 H 0.75303 0.18675 0.11719 0.0
H1838 H 0.79431 0.20726 0.10401 0.0
H1839 H 0.72288 0.30246 0.13135 0.0
H1840 H 0.75692 0.3274 0.1476 0.0
H1841 H 0.72395 0.27747 0.14953 0.0
C1842 C 0.49579 0.84444 0.88557 0.0
C1843 C 0.46041 0.8347 0.89225 0.0
C1844 C 0.50815 0.81798 0.88498 0.0
C1845 C 0.48466 0.78103 0.89129 0.0
C1846 C 0.44845 0.77073 0.8975 0.0
C1847 C 0.43678 0.79758 0.89785 0.0
C1848 C 0.54677 0.82988 0.87809 0.0
C1849 C 0.4225 0.73171 0.9044 0.0
C1850 C 0.50106 0.699 0.8823 0.0
C1851 C 0.51885 0.69761 0.89709 0.0
C1852 C 0.49107 0.72694 0.8799 0.0
C1853 C 0.49869 0.75384 0.89267 0.0
C1854 C 0.51733 0.753 0.90747 0.0
C1855 C 0.52724 0.72504 0.90946 0.0
C1856 C 0.47158 0.72712 0.86388 0.0
C1857 C 0.52556 0.78081 0.9215 0.0
H1858 H 0.5142 0.87296 0.88113 0.0
H1859 H 0.40923 0.78953 0.9029 0.0
H1860 H 0.56531 0.83031 0.88833 0.0
H1861 H 0.54501 0.80924 0.86862 0.0
H1862 H 0.56012 0.85834 0.87226 0.0
H1863 H 0.39446 0.72755 0.90791 0.0
H1864 H 0.41837 0.70993 0.89505 0.0
H1865 H 0.43544 0.72692 0.91566 0.0
H1866 H 0.49492 0.67823 0.8726 0.0
H1867 H 0.54047 0.72388 0.92102 0.0
H1868 H 0.48618 0.75566 0.85816 0.0
H1869 H 0.44228 0.72013 0.86664 0.0
H1870 H 0.47063 0.70645 0.8546 0.0
H1871 H 0.5415 0.81014 0.91668 0.0
H1872 H 0.54203 0.77767 0.9318 0.0
H1873 H 0.49869 0.77668 0.92674 0.0
C1874 C 0.31201 0.81961 0.87671 0.0
C1875 C 0.32071 0.83439 0.89302 0.0
C1876 C 0.28262 0.78251 0.87369 0.0
C1877 C 0.26127 0.75955 0.8873 0.0
C1878 C 0.26992 0.77425 0.90377 0.0
C1879 C 0.29944 0.81133 0.90642 0.0
C1880 C 0.27421 0.76796 0.85594 0.0
C1881 C 0.24784 0.75083 0.91866 0.0
C1882 C 0.16047 0.6801 0.88154 0.0
C1883 C 0.16405 0.64784 0.88288 0.0
C1884 C 0.19204 0.7165 0.88225 0.0
C1885 C 0.22833 0.721 0.88438 0.0
C1886 C 0.23241 0.68858 0.885 0.0
C1887 C 0.20018 0.6523 0.88421 0.0
C1888 C 0.18627 0.75014 0.88146 0.0
C1889 C 0.27064 0.69217 0.88721 0.0
H1890 H 0.3281 0.83716 0.86626 0.0
H1891 H 0.3063 0.8219 0.91911 0.0
H1892 H 0.27516 0.74142 0.85492 0.0
H1893 H 0.24531 0.76125 0.85242 0.0
H1894 H 0.29442 0.78871 0.84681 0.0
H1895 H 0.25878 0.76601 0.93071 0.0
H1896 H 0.21782 0.74296 0.9174 0.0
H1897 H 0.24881 0.72424 0.9191 0.0
H1898 H 0.13271 0.67698 0.88031 0.0
H1899 H 0.20319 0.62753 0.88526 0.0
H1900 H 0.20495 0.77048 0.87185 0.0
H1901 H 0.1939 0.76503 0.89368 0.0
H1902 H 0.15665 0.74195 0.87849 0.0
H1903 H 0.29076 0.71209 0.87785 0.0
H1904 H 0.26951 0.66459 0.88595 0.0
H1905 H 0.28194 0.70389 0.89979 0.0
C1906 C 0.38023 0.56079 0.91823 0.0
C1907 C 0.39554 0.54996 0.90509 0.0
C1908 C 0.34281 0.55295 0.91778 0.0
C1909 C 0.31991 0.53392 0.9038 0.0
C1910 C 0.33502 0.52276 0.89048 0.0
C1911 C 0.37267 0.53082 0.8913 0.0
C1912 C 0.32786 0.56526 0.93229 0.0
C1913 C 0.3115 0.50261 0.87532 0.0
C1914 C 0.21406 0.4877 0.91079 0.0
C1915 C 0.20636 0.51516 0.90448 0.0
C1916 C 0.25066 0.49293 0.91022 0.0
C1917 C 0.28036 0.52642 0.90317 0.0
C1918 C 0.27271 0.554 0.89658 0.0
C1919 C 0.23592 0.54809 0.89735 0.0
C1920 C 0.2577 0.46293 0.91746 0.0
C1921 C 0.30357 0.59022 0.88904 0.0
H1922 H 0.39751 0.57549 0.92899 0.0
H1923 H 0.38425 0.52238 0.88109 0.0
H1924 H 0.31891 0.58525 0.92784 0.0
H1925 H 0.30268 0.54052 0.93769 0.0
H1926 H 0.34913 0.57918 0.94237 0.0
H1927 H 0.32719 0.49532 0.86614 0.0
H1928 H 0.28579 0.4763 0.87921 0.0
H1929 H 0.30214 0.52068 0.86901 0.0
H1930 H 0.19141 0.46197 0.9161 0.0
H1931 H 0.23052 0.56977 0.89267 0.0
H1932 H 0.27731 0.47463 0.92825 0.0
H1933 H 0.27133 0.45389 0.90799 0.0
H1934 H 0.23132 0.43773 0.92176 0.0
H1935 H 0.32458 0.60708 0.89882 0.0
H1936 H 0.29257 0.60773 0.88351 0.0
H1937 H 0.31859 0.5839 0.87916 0.0
C1938 C 0.48836 0.77374 0.43456 0.0
C1939 C 0.51397 0.78507 0.44795 0.0
C1940 C 0.46023 0.78365 0.43391 0.0
C1941 C 0.4576 0.80559 0.44694 0.0
C1942 C 0.48295 0.81665 0.46066 0.0
C1943 C 0.51082 0.80617 0.46103 0.0
C1944 C 0.43352 0.77088 0.41916 0.0
C1945 C 0.48073 0.83972 0.47487 0.0
C1946 C 0.40602 0.85878 0.43648 0.0
C1947 C 0.37004 0.83465 0.44304 0.0
C1948 C 0.43503 0.85008 0.43795 0.0
C1949 C 0.42793 0.81646 0.4462 0.0
C1950 C 0.39181 0.79219 0.45297 0.0
C1951 C 0.36334 0.80142 0.4512 0.0
C1952 C 0.47321 0.87668 0.43056 0.0
C1953 C 0.38279 0.75588 0.46173 0.0
H1954 H 0.49039 0.75723 0.42444 0.0
H1955 H 0.53059 0.81515 0.47138 0.0
H1956 H 0.40403 0.75364 0.42359 0.0
H1957 H 0.43571 0.79576 0.41256 0.0
H1958 H 0.43932 0.75391 0.41006 0.0
H1959 H 0.50242 0.846 0.48463 0.0
H1960 H 0.48446 0.86677 0.46999 0.0
H1961 H 0.45246 0.82439 0.48077 0.0
H1962 H 0.41162 0.88466 0.43032 0.0
H1963 H 0.33553 0.78212 0.45603 0.0
H1964 H 0.47991 0.86201 0.42063 0.0
H1965 H 0.49531 0.88556 0.44033 0.0
H1966 H 0.4746 0.90228 0.42505 0.0
H1967 H 0.38029 0.73486 0.4523 0.0
H1968 H 0.35593 0.74375 0.46883 0.0
H1969 H 0.40566 0.76043 0.47053 0.0
C1970 C 0.19053 0.55827 0.43264 0.0
C1971 C 0.19211 0.53562 0.44546 0.0
C1972 C 0.19452 0.59371 0.43608 0.0
C1973 C 0.20013 0.60703 0.45279 0.0
C1974 C 0.20292 0.58487 0.46575 0.0
C1975 C 0.19898 0.54947 0.46193 0.0
C1976 C 0.19199 0.61663 0.42182 0.0
C1977 C 0.2089 0.59804 0.48371 0.0
C1978 C 0.23563 0.71211 0.45831 0.0
C1979 C 0.20181 0.71239 0.46059 0.0
C1980 C 0.23571 0.67803 0.45616 0.0
C1981 C 0.20122 0.6433 0.45662 0.0
C1982 C 0.16719 0.64338 0.45959 0.0
C1983 C 0.16787 0.67786 0.46142 0.0
C1984 C 0.27262 0.67931 0.45296 0.0
C1985 C 0.12981 0.60703 0.46025 0.0
H1986 H 0.186 0.54814 0.41985 0.0
H1987 H 0.20001 0.53208 0.47192 0.0
H1988 H 0.16725 0.6204 0.42365 0.0
H1989 H 0.21742 0.64516 0.42164 0.0
H1990 H 0.18927 0.60308 0.40945 0.0
H1991 H 0.21229 0.57844 0.49222 0.0
H1992 H 0.23428 0.62646 0.48475 0.0
H1993 H 0.1845 0.60049 0.48803 0.0
H1994 H 0.262 0.73862 0.45762 0.0
H1995 H 0.14163 0.67774 0.46327 0.0
H1996 H 0.27055 0.66271 0.44163 0.0
H1997 H 0.27931 0.6664 0.46368 0.0
H1998 H 0.2963 0.7086 0.45124 0.0
H1999 H 0.12337 0.59315 0.4478 0.0
H2000 H 0.1063 0.6117 0.46386 0.0
H2001 H 0.13116 0.58724 0.46935 0.0
C2002 C 0.49482 0.60101 0.454 0.0
C2003 C 0.50067 0.63592 0.44832 0.0
C2004 C 0.45822 0.5696 0.45519 0.0
C2005 C 0.42687 0.57293 0.45007 0.0
C2006 C 0.43278 0.60822 0.44428 0.0
C2007 C 0.46954 0.63938 0.44371 0.0
C2008 C 0.45311 0.53281 0.46186 0.0
C2009 C 0.40041 0.61284 0.43822 0.0
C2010 C 0.34 0.48304 0.43545 0.0
C2011 C 0.31501 0.47492 0.44885 0.0
C2012 C 0.37616 0.51504 0.43563 0.0
C2013 C 0.38823 0.53904 0.4498 0.0
C2014 C 0.36327 0.53074 0.4635 0.0
C2015 C 0.32665 0.49908 0.46274 0.0
C2016 C 0.40129 0.5234 0.42053 0.0
C2017 C 0.37539 0.55505 0.47901 0.0
H2018 H 0.51887 0.59853 0.45779 0.0
H2019 H 0.47419 0.66639 0.43924 0.0
H2020 H 0.43225 0.52234 0.47221 0.0
H2021 H 0.44186 0.51112 0.45186 0.0
H2022 H 0.47994 0.53564 0.46654 0.0
H2023 H 0.40969 0.64231 0.43436 0.0
H2024 H 0.38653 0.59391 0.42738 0.0
H2025 H 0.3789 0.60454 0.4482 0.0
H2026 H 0.33092 0.46472 0.42457 0.0
H2027 H 0.30742 0.49278 0.47313 0.0
H2028 H 0.42729 0.52313 0.42412 0.0
H2029 H 0.41002 0.55203 0.41567 0.0
H2030 H 0.38716 0.50265 0.41027 0.0
H2031 H 0.40121 0.55666 0.4843 0.0
H2032 H 0.35317 0.54406 0.4888 0.0
H2033 H 0.3825 0.58424 0.47578 0.0
loop_
_geom_bond_atom_site_label_1
_geom_bond_atom_site_label_2
_geom_bond_distance
_geom_bond_site_symmetry_2
_ccdc_geom_bond_type
Co0 N4 2.148 . S
Co0 N10 2.128 . S
Co0 N20 2.194 . S
Co0 O25 2.351 . S
Co0 O26 2.155 . S
Co0 O27 2.096 . S
C1 N4 1.301 . S
C1 N5 1.328 . S
C1 H6 0.930 . S
C2 C3 1.333 . S
C2 N4 1.317 . S
C2 H7 0.930 . S
C3 C2 1.333 . S
C3 N5 1.350 . S
C3 H29 0.931 . S
N4 Co0 2.148 . S
N4 C1 1.301 . S
N4 C2 1.317 . S
N5 C1 1.328 . S
N5 C3 1.350 . S
H6 C1 0.930 . S
H7 C2 0.930 . S
C8 O9 1.224 . S
C8 O27 1.247 . S
O9 C8 1.224 . S
N10 Co0 2.128 . S
N10 C11 1.355 . S
N10 C13 1.311 . S
C11 N10 1.355 . S
C11 C12 1.363 . S
C11 H23 0.929 . S
C12 C11 1.363 . S
C12 N14 1.364 . S
C12 H30 0.931 1_455 S
C13 N10 1.311 . S
C13 N14 1.368 . S
C13 H24 0.929 . S
N14 C12 1.364 . S
N14 C13 1.368 . S
C15 C18 1.365 . S
C15 N20 1.328 . S
C15 H21 0.929 . S
C16 C17 1.362 . S
C16 C19 1.378 . S
C16 H31 0.929 . S
C17 C16 1.362 . S
C17 C18 1.366 . S
C18 C15 1.365 . S
C18 C17 1.366 . S
C18 H32 0.930 . S
C19 C16 1.378 . S
C19 N20 1.315 . S
C19 H22 0.930 . S
N20 Co0 2.194 . S
N20 C15 1.328 . S
N20 C19 1.315 . S
H21 C15 0.929 . S
H22 C19 0.930 . S
H23 C11 0.929 . S
H24 C13 0.929 . S
O25 Co0 2.351 . S
O25 C28 1.244 . S
O26 Co0 2.155 . S
O26 C28 1.240 . S
O27 Co0 2.096 . S
O27 C8 1.247 . S
C28 O25 1.244 . S
C28 O26 1.240 . S
H29 C3 0.931 . S
H30 C12 0.931 1_655 S
H31 C16 0.929 . S
H32 C18 0.930 . S
Co33 N37 2.148 . S
Co33 N43 2.128 . S
Co33 N53 2.194 . S
Co33 O58 2.351 . S
Co33 O59 2.155 . S
Co33 O60 2.096 . S
C34 N37 1.301 . S
C34 N38 1.328 . S
C34 H39 0.930 . S
C35 C36 1.333 . S
C35 N37 1.317 . S
C35 H40 0.930 . S
C36 C35 1.333 . S
C36 N38 1.350 . S
C36 H62 0.931 . S
N37 Co33 2.148 . S
N37 C34 1.301 . S
N37 C35 1.317 . S
N38 C34 1.328 . S
N38 C36 1.350 . S
H39 C34 0.930 . S
H40 C35 0.930 . S
C41 O42 1.224 . S
C41 O60 1.247 . S
O42 C41 1.224 . S
N43 Co33 2.128 . S
N43 C44 1.355 . S
N43 C46 1.311 . S
C44 N43 1.355 . S
C44 C45 1.363 . S
C44 H56 0.929 . S
C45 C44 1.363 . S
C45 N47 1.375 . S
C45 H63 0.931 . S
C46 N43 1.311 . S
C46 N47 1.347 . S
C46 H57 0.929 . S
N47 C45 1.375 . S
N47 C46 1.347 . S
C48 C51 1.365 . S
C48 N53 1.328 . S
C48 H54 0.929 . S
C49 C50 1.362 . S
C49 C52 1.378 . S
C49 H64 0.929 . S
C50 C49 1.362 . S
C50 C51 1.366 . S
C51 C48 1.365 . S
C51 C50 1.366 . S
C51 H65 0.930 . S
C52 C49 1.378 . S
C52 N53 1.315 . S
C52 H55 0.930 . S
N53 Co33 2.194 . S
N53 C48 1.328 . S
N53 C52 1.315 . S
H54 C48 0.929 . S
H55 C52 0.930 . S
H56 C44 0.929 . S
H57 C46 0.929 . S
O58 Co33 2.351 . S
O58 C61 1.244 . S
O59 Co33 2.155 . S
O59 C61 1.240 . S
O60 Co33 2.096 . S
O60 C41 1.247 . S
C61 O58 1.244 . S
C61 O59 1.240 . S
H62 C36 0.931 . S
H63 C45 0.931 . S
H64 C49 0.929 . S
H65 C51 0.930 . S
Co66 N70 2.148 . S
Co66 N76 2.128 . S
Co66 N86 2.194 . S
Co66 O91 2.351 . S
Co66 O92 2.155 . S
Co66 O93 2.096 . S
C67 N70 1.301 . S
C67 N71 1.328 . S
C67 H72 0.930 . S
C68 C69 1.333 . S
C68 N70 1.317 . S
C68 H73 0.930 . S
C69 C68 1.333 . S
C69 N71 1.350 . S
C69 H95 0.931 . S
N70 Co66 2.148 . S
N70 C67 1.301 . S
N70 C68 1.317 . S
N71 C67 1.328 . S
N71 C69 1.350 . S
H72 C67 0.930 . S
H73 C68 0.930 . S
C74 O75 1.224 . S
C74 O93 1.247 . S
O75 C74 1.224 . S
N76 Co66 2.128 . S
N76 C77 1.355 . S
N76 C79 1.311 . S
C77 N76 1.355 . S
C77 C78 1.363 . S
C77 H89 0.929 . S
C78 C77 1.363 . S
C78 N80 1.375 . S
C78 H96 0.931 1_565 S
C79 N76 1.311 . S
C79 N80 1.347 . S
C79 H90 0.929 . S
N80 C78 1.375 . S
N80 C79 1.347 . S
C81 C84 1.365 . S
C81 N86 1.328 . S
C81 H87 0.929 . S
C82 C83 1.362 . S
C82 C85 1.378 . S
C82 H97 0.929 . S
C83 C82 1.362 . S
C83 C84 1.366 . S
C84 C81 1.365 . S
C84 C83 1.366 . S
C84 H98 0.930 . S
C85 C82 1.378 . S
C85 N86 1.315 . S
C85 H88 0.930 . S
N86 Co66 2.194 . S
N86 C81 1.328 . S
N86 C85 1.315 . S
H87 C81 0.929 . S
H88 C85 0.930 . S
H89 C77 0.929 . S
H90 C79 0.929 . S
O91 Co66 2.351 . S
O91 C94 1.244 . S
O92 Co66 2.155 . S
O92 C94 1.240 . S
O93 Co66 2.096 . S
O93 C74 1.247 . S
C94 O91 1.244 . S
C94 O92 1.240 . S
H95 C69 0.931 . S
H96 C78 0.931 1_545 S
H97 C82 0.929 . S
H98 C84 0.930 . S
Co99 N103 2.148 . S
Co99 N109 2.128 . S
Co99 N119 2.194 . S
Co99 O124 2.351 . S
Co99 O125 2.155 . S
Co99 O126 2.096 . S
C100 N103 1.301 . S
C100 N104 1.328 . S
C100 H105 0.930 . S
C101 C102 1.333 . S
C101 N103 1.317 . S
C101 H106 0.930 . S
C102 C101 1.333 . S
C102 N104 1.350 . S
C102 H128 0.931 . S
N103 Co99 2.148 . S
N103 C100 1.301 . S
N103 C101 1.317 . S
N104 C100 1.328 . S
N104 C102 1.350 . S
H105 C100 0.930 . S
H106 C101 0.930 . S
C107 O108 1.224 . S
C107 O126 1.247 . S
O108 C107 1.224 . S
N109 Co99 2.128 . S
N109 C110 1.355 . S
N109 C112 1.311 . S
C110 N109 1.355 . S
C110 C111 1.363 . S
C110 H122 0.929 . S
C111 C110 1.363 . S
C111 N113 1.364 . S
C111 H129 0.931 1_545 S
C112 N109 1.311 . S
C112 N113 1.368 . S
C112 H123 0.929 . S
N113 C111 1.364 . S
N113 C112 1.368 . S
C114 C117 1.365 . S
C114 N119 1.328 . S
C114 H120 0.929 . S
C115 C116 1.362 . S
C115 C118 1.378 . S
C115 H130 0.929 . S
C116 C115 1.362 . S
C116 C117 1.366 . S
C117 C114 1.365 . S
C117 C116 1.366 . S
C117 H131 0.930 . S
C118 C115 1.378 . S
C118 N119 1.315 . S
C118 H121 0.930 . S
N119 Co99 2.194 . S
N119 C114 1.328 . S
N119 C118 1.315 . S
H120 C114 0.929 . S
H121 C118 0.930 . S
H122 C110 0.929 . S
H123 C112 0.929 . S
O124 Co99 2.351 . S
O124 C127 1.244 . S
O125 Co99 2.155 . S
O125 C127 1.240 . S
O126 Co99 2.096 . S
O126 C107 1.247 . S
C127 O124 1.244 . S
C127 O125 1.240 . S
H128 C102 0.931 . S
H129 C111 0.931 1_565 S
H130 C115 0.929 . S
H131 C117 0.930 . S
Co132 N136 2.148 . S
Co132 N142 2.128 . S
Co132 N152 2.194 . S
Co132 O157 2.351 . S
Co132 O158 2.155 . S
Co132 O159 2.096 . S
C133 N136 1.301 . S
C133 N137 1.328 . S
C133 H138 0.930 . S
C134 C135 1.333 . S
C134 N136 1.317 . S
C134 H139 0.930 . S
C135 C134 1.333 . S
C135 N137 1.350 . S
C135 H161 0.931 . S
N136 Co132 2.148 . S
N136 C133 1.301 . S
N136 C134 1.317 . S
N137 C133 1.328 . S
N137 C135 1.350 . S
H138 C133 0.930 . S
H139 C134 0.930 . S
C140 O141 1.224 . S
C140 O159 1.247 . S
O141 C140 1.224 . S
N142 Co132 2.128 . S
N142 C143 1.355 . S
N142 C145 1.311 . S
C143 N142 1.355 . S
C143 C144 1.363 . S
C143 H155 0.929 . S
C144 C143 1.363 . S
C144 N146 1.375 . S
C144 H162 0.931 1_655 S
C145 N142 1.311 . S
C145 N146 1.347 . S
C145 H156 0.929 . S
N146 C144 1.375 . S
N146 C145 1.347 . S
C147 C150 1.365 . S
C147 N152 1.328 . S
C147 H153 0.929 . S
C148 C149 1.362 . S
C148 C151 1.378 . S
C148 H163 0.929 . S
C149 C148 1.362 . S
C149 C150 1.366 . S
C150 C147 1.365 . S
C150 C149 1.366 . S
C150 H164 0.930 . S
C151 C148 1.378 . S
C151 N152 1.315 . S
C151 H154 0.930 . S
N152 Co132 2.194 . S
N152 C147 1.328 . S
N152 C151 1.315 . S
H153 C147 0.929 . S
H154 C151 0.930 . S
H155 C143 0.929 . S
H156 C145 0.929 . S
O157 Co132 2.351 . S
O157 C160 1.244 . S
O158 Co132 2.155 . S
O158 C160 1.240 . S
O159 Co132 2.096 . S
O159 C140 1.247 . S
C160 O157 1.244 . S
C160 O158 1.240 . S
H161 C135 0.931 . S
H162 C144 0.931 1_455 S
H163 C148 0.929 . S
H164 C150 0.930 . S
Co165 N169 2.148 . S
Co165 N175 2.128 . S
Co165 N185 2.194 . S
Co165 O190 2.351 . S
Co165 O191 2.155 . S
Co165 O192 2.096 . S
C166 N169 1.301 . S
C166 N170 1.328 . S
C166 H171 0.930 . S
C167 C168 1.333 . S
C167 N169 1.317 . S
C167 H172 0.930 . S
C168 C167 1.333 . S
C168 N170 1.350 . S
C168 H194 0.931 . S
N169 Co165 2.148 . S
N169 C166 1.301 . S
N169 C167 1.317 . S
N170 C166 1.328 . S
N170 C168 1.350 . S
H171 C166 0.930 . S
H172 C167 0.930 . S
C173 O174 1.224 . S
C173 O192 1.247 . S
O174 C173 1.224 . S
N175 Co165 2.128 . S
N175 C176 1.355 . S
N175 C178 1.311 . S
C176 N175 1.355 . S
C176 C177 1.363 . S
C176 H188 0.929 . S
C177 C176 1.363 . S
C177 N179 1.375 . S
C177 H195 0.931 . S
C178 N175 1.311 . S
C178 N179 1.347 . S
C178 H189 0.929 . S
N179 C177 1.375 . S
N179 C178 1.347 . S
C180 C183 1.365 . S
C180 N185 1.328 . S
C180 H186 0.929 . S
C181 C182 1.362 . S
C181 C184 1.378 . S
C181 H196 0.929 . S
C182 C181 1.362 . S
C182 C183 1.366 . S
C183 C180 1.365 . S
C183 C182 1.366 . S
C183 H197 0.930 . S
C184 C181 1.378 . S
C184 N185 1.315 . S
C184 H187 0.930 . S
N185 Co165 2.194 . S
N185 C180 1.328 . S
N185 C184 1.315 . S
H186 C180 0.929 . S
H187 C184 0.930 . S
H188 C176 0.929 . S
H189 C178 0.929 . S
O190 Co165 2.351 . S
O190 C193 1.244 . S
O191 Co165 2.155 . S
O191 C193 1.240 . S
O192 Co165 2.096 . S
O192 C173 1.247 . S
C193 O190 1.244 . S
C193 O191 1.240 . S
H194 C168 0.931 . S
H195 C177 0.931 . S
H196 C181 0.929 . S
H197 C183 0.930 . S
Co198 N202 2.148 . S
Co198 N208 2.128 . S
Co198 N218 2.194 . S
Co198 O223 2.351 . S
Co198 O224 2.155 . S
Co198 O225 2.096 . S
C199 N202 1.301 . S
C199 N203 1.328 . S
C199 H204 0.930 . S
C200 C201 1.333 . S
C200 N202 1.317 . S
C200 H205 0.930 . S
C201 C200 1.333 . S
C201 N203 1.350 . S
C201 H227 0.931 . S
N202 Co198 2.148 . S
N202 C199 1.301 . S
N202 C200 1.317 . S
N203 C199 1.328 . S
N203 C201 1.350 . S
H204 C199 0.930 . S
H205 C200 0.930 . S
C206 O207 1.224 . S
C206 O225 1.247 . S
O207 C206 1.224 . S
N208 Co198 2.128 . S
N208 C209 1.355 . S
N208 C211 1.311 . S
C209 N208 1.355 . S
C209 C210 1.363 . S
C209 H221 0.929 . S
C210 C209 1.363 . S
C210 N212 1.375 . S
C210 H228 0.931 . S
C211 N208 1.311 . S
C211 N212 1.347 . S
C211 H222 0.929 . S
N212 C210 1.375 . S
N212 C211 1.347 . S
C213 C216 1.365 . S
C213 N218 1.328 . S
C213 H219 0.929 . S
C214 C215 1.362 . S
C214 C217 1.378 . S
C214 H229 0.929 . S
C215 C214 1.362 . S
C215 C216 1.366 . S
C216 C213 1.365 . S
C216 C215 1.366 . S
C216 H230 0.930 . S
C217 C214 1.378 . S
C217 N218 1.315 . S
C217 H220 0.930 . S
N218 Co198 2.194 . S
N218 C213 1.328 . S
N218 C217 1.315 . S
H219 C213 0.929 . S
H220 C217 0.930 . S
H221 C209 0.929 . S
H222 C211 0.929 . S
O223 Co198 2.351 . S
O223 C226 1.244 . S
O224 Co198 2.155 . S
O224 C226 1.240 . S
O225 Co198 2.096 . S
O225 C206 1.247 . S
C226 O223 1.244 . S
C226 O224 1.240 . S
H227 C201 0.931 . S
H228 C210 0.931 . S
H229 C214 0.929 . S
H230 C216 0.930 . S
Co231 N235 2.148 . S
Co231 N241 2.128 . S
Co231 N251 2.194 . S
Co231 O256 2.351 . S
Co231 O257 2.155 . S
Co231 O258 2.096 . S
C232 N235 1.301 . S
C232 N236 1.328 . S
C232 H237 0.930 . S
C233 C234 1.333 . S
C233 N235 1.317 . S
C233 H238 0.930 . S
C234 C233 1.333 . S
C234 N236 1.350 . S
C234 H260 0.931 . S
N235 Co231 2.148 . S
N235 C232 1.301 . S
N235 C233 1.317 . S
N236 C232 1.328 . S
N236 C234 1.350 . S
H237 C232 0.930 . S
H238 C233 0.930 . S
C239 O240 1.224 . S
C239 O258 1.247 . S
O240 C239 1.224 . S
N241 Co231 2.128 . S
N241 C242 1.355 . S
N241 C244 1.311 . S
C242 N241 1.355 . S
C242 C243 1.363 . S
C242 H254 0.929 . S
C243 C242 1.363 . S
C243 N245 1.375 . S
C243 H261 0.931 . S
C244 N241 1.311 . S
C244 N245 1.347 . S
C244 H255 0.929 . S
N245 C243 1.375 . S
N245 C244 1.347 . S
C246 C249 1.365 . S
C246 N251 1.328 . S
C246 H252 0.929 . S
C247 C248 1.362 . S
C247 C250 1.378 . S
C247 H262 0.929 . S
C248 C247 1.362 . S
C248 C249 1.366 . S
C249 C246 1.365 . S
C249 C248 1.366 . S
C249 H263 0.930 . S
C250 C247 1.378 . S
C250 N251 1.315 . S
C250 H253 0.930 . S
N251 Co231 2.194 . S
N251 C246 1.328 . S
N251 C250 1.315 . S
H252 C246 0.929 . S
H253 C250 0.930 . S
H254 C242 0.929 . S
H255 C244 0.929 . S
O256 Co231 2.351 . S
O256 C259 1.244 . S
O257 Co231 2.155 . S
O257 C259 1.240 . S
O258 Co231 2.096 . S
O258 C239 1.247 . S
C259 O256 1.244 . S
C259 O257 1.240 . S
H260 C234 0.931 . S
H261 C243 0.931 . S
H262 C247 0.929 . S
H263 C249 0.930 . S
Co264 N268 2.148 . S
Co264 N274 2.128 . S
Co264 N284 2.194 . S
Co264 O289 2.351 . S
Co264 O290 2.155 . S
Co264 O291 2.096 . S
C265 N268 1.301 . S
C265 N269 1.328 . S
C265 H270 0.930 . S
C266 C267 1.333 . S
C266 N268 1.317 . S
C266 H271 0.930 . S
C267 C266 1.333 . S
C267 N269 1.350 . S
C267 H293 0.931 . S
N268 Co264 2.148 . S
N268 C265 1.301 . S
N268 C266 1.317 . S
N269 C265 1.328 . S
N269 C267 1.350 . S
H270 C265 0.930 . S
H271 C266 0.930 . S
C272 O273 1.224 . S
C272 O291 1.247 . S
O273 C272 1.224 . S
N274 Co264 2.128 . S
N274 C275 1.355 . S
N274 C277 1.311 . S
C275 N274 1.355 . S
C275 C276 1.363 . S
C275 H287 0.929 . S
C276 C275 1.363 . S
C276 N278 1.375 . S
C276 H294 0.931 . S
C277 N274 1.311 . S
C277 N278 1.347 . S
C277 H288 0.929 . S
N278 C276 1.375 . S
N278 C277 1.347 . S
C279 C282 1.365 . S
C279 N284 1.328 . S
C279 H285 0.929 . S
C280 C281 1.362 . S
C280 C283 1.378 . S
C280 H295 0.929 . S
C281 C280 1.362 . S
C281 C282 1.366 . S
C282 C279 1.365 . S
C282 C281 1.366 . S
C282 H296 0.930 . S
C283 C280 1.378 . S
C283 N284 1.315 . S
C283 H286 0.930 . S
N284 Co264 2.194 . S
N284 C279 1.328 . S
N284 C283 1.315 . S
H285 C279 0.929 . S
H286 C283 0.930 . S
H287 C275 0.929 . S
H288 C277 0.929 . S
O289 Co264 2.351 . S
O289 C292 1.244 . S
O290 Co264 2.155 . S
O290 C292 1.240 . S
O291 Co264 2.096 . S
O291 C272 1.247 . S
C292 O289 1.244 . S
C292 O290 1.240 . S
H293 C267 0.931 . S
H294 C276 0.931 . S
H295 C280 0.929 . S
H296 C282 0.930 . S
Co297 N301 2.148 . S
Co297 N307 2.128 . S
Co297 N317 2.194 . S
Co297 O322 2.351 . S
Co297 O323 2.155 . S
Co297 O324 2.096 . S
C298 N301 1.301 . S
C298 N302 1.328 1_655 S
C298 H303 0.930 1_655 S
C299 C300 1.333 . S
C299 N301 1.317 . S
C299 H304 0.930 . S
C300 C299 1.333 . S
C300 N302 1.350 1_655 S
C300 H326 0.931 . S
N301 Co297 2.148 . S
N301 C298 1.301 . S
N301 C299 1.317 . S
N302 C298 1.328 1_455 S
N302 C300 1.350 1_455 S
H303 C298 0.930 1_455 S
H304 C299 0.930 . S
C305 O306 1.224 . S
C305 O324 1.247 . S
O306 C305 1.224 . S
N307 Co297 2.128 . S
N307 C308 1.355 . S
N307 C310 1.311 . S
C308 N307 1.355 . S
C308 C309 1.363 . S
C308 H320 0.929 . S
C309 C308 1.363 . S
C309 N311 1.375 . S
C309 H327 0.931 . S
C310 N307 1.311 . S
C310 N311 1.347 . S
C310 H321 0.929 . S
N311 C309 1.375 . S
N311 C310 1.347 . S
C312 C315 1.365 . S
C312 N317 1.328 . S
C312 H318 0.929 . S
C313 C314 1.362 . S
C313 C316 1.378 . S
C313 H328 0.929 . S
C314 C313 1.362 . S
C314 C315 1.366 . S
C315 C312 1.365 . S
C315 C314 1.366 . S
C315 H329 0.930 1_655 S
C316 C313 1.378 . S
C316 N317 1.315 . S
C316 H319 0.930 . S
N317 Co297 2.194 . S
N317 C312 1.328 . S
N317 C316 1.315 . S
H318 C312 0.929 . S
H319 C316 0.930 . S
H320 C308 0.929 . S
H321 C310 0.929 . S
O322 Co297 2.351 . S
O322 C325 1.244 . S
O323 Co297 2.155 . S
O323 C325 1.240 . S
O324 Co297 2.096 . S
O324 C305 1.247 . S
C325 O322 1.244 . S
C325 O323 1.240 . S
H326 C300 0.931 . S
H327 C309 0.931 . S
H328 C313 0.929 . S
H329 C315 0.930 1_455 S
Co330 N334 2.148 . S
Co330 N340 2.128 . S
Co330 N350 2.194 . S
Co330 O355 2.351 . S
Co330 O356 2.155 . S
Co330 O357 2.096 . S
C331 N334 1.301 . S
C331 N335 1.328 . S
C331 H336 0.930 . S
C332 C333 1.333 . S
C332 N334 1.317 . S
C332 H337 0.930 . S
C333 C332 1.333 . S
C333 N335 1.350 . S
C333 H359 0.931 . S
N334 Co330 2.148 . S
N334 C331 1.301 . S
N334 C332 1.317 . S
N335 C331 1.328 . S
N335 C333 1.350 . S
H336 C331 0.930 . S
H337 C332 0.930 . S
C338 O339 1.224 . S
C338 O357 1.247 . S
O339 C338 1.224 . S
N340 Co330 2.128 . S
N340 C341 1.355 . S
N340 C343 1.311 . S
C341 N340 1.355 . S
C341 C342 1.363 . S
C341 H353 0.929 . S
C342 C341 1.363 . S
C342 N344 1.375 . S
C342 H360 0.931 . S
C343 N340 1.311 . S
C343 N344 1.347 . S
C343 H354 0.929 . S
N344 C342 1.375 . S
N344 C343 1.347 . S
C345 C348 1.365 . S
C345 N350 1.328 . S
C345 H351 0.929 . S
C346 C347 1.362 . S
C346 C349 1.378 . S
C346 H361 0.929 . S
C347 C346 1.362 . S
C347 C348 1.366 . S
C348 C345 1.365 . S
C348 C347 1.366 . S
C348 H362 0.930 . S
C349 C346 1.378 . S
C349 N350 1.315 . S
C349 H352 0.930 . S
N350 Co330 2.194 . S
N350 C345 1.328 . S
N350 C349 1.315 . S
H351 C345 0.929 . S
H352 C349 0.930 . S
H353 C341 0.929 . S
H354 C343 0.929 . S
O355 Co330 2.351 . S
O355 C358 1.244 . S
O356 Co330 2.155 . S
O356 C358 1.240 . S
O357 Co330 2.096 . S
O357 C338 1.247 . S
C358 O355 1.244 . S
C358 O356 1.240 . S
H359 C333 0.931 . S
H360 C342 0.931 . S
H361 C346 0.929 . S
H362 C348 0.930 . S
Co363 N367 2.148 . S
Co363 N373 2.128 . S
Co363 N383 2.194 . S
Co363 O388 2.351 . S
Co363 O389 2.155 . S
Co363 O390 2.096 . S
C364 N367 1.301 . S
C364 N368 1.328 1_545 S
C364 H369 0.930 1_545 S
C365 C366 1.333 . S
C365 N367 1.317 . S
C365 H370 0.930 . S
C366 C365 1.333 . S
C366 N368 1.350 1_545 S
C366 H392 0.931 . S
N367 Co363 2.148 . S
N367 C364 1.301 . S
N367 C365 1.317 . S
N368 C364 1.328 1_565 S
N368 C366 1.350 1_565 S
H369 C364 0.930 1_565 S
H370 C365 0.930 . S
C371 O372 1.224 . S
C371 O390 1.247 . S
O372 C371 1.224 . S
N373 Co363 2.128 . S
N373 C374 1.355 . S
N373 C376 1.311 . S
C374 N373 1.355 . S
C374 C375 1.363 . S
C374 H386 0.929 . S
C375 C374 1.363 . S
C375 N377 1.375 . S
C375 H393 0.931 . S
C376 N373 1.311 . S
C376 N377 1.347 . S
C376 H387 0.929 . S
N377 C375 1.375 . S
N377 C376 1.347 . S
C378 C381 1.365 . S
C378 N383 1.328 . S
C378 H384 0.929 . S
C379 C380 1.362 . S
C379 C382 1.378 . S
C379 H394 0.929 . S
C380 C379 1.362 . S
C380 C381 1.366 . S
C381 C378 1.365 . S
C381 C380 1.366 . S
C381 H395 0.930 1_545 S
C382 C379 1.378 . S
C382 N383 1.315 . S
C382 H385 0.930 . S
N383 Co363 2.194 . S
N383 C378 1.328 . S
N383 C382 1.315 . S
H384 C378 0.929 . S
H385 C382 0.930 . S
H386 C374 0.929 . S
H387 C376 0.929 . S
O388 Co363 2.351 . S
O388 C391 1.244 . S
O389 Co363 2.155 . S
O389 C391 1.240 . S
O390 Co363 2.096 . S
O390 C371 1.247 . S
C391 O388 1.244 . S
C391 O389 1.240 . S
H392 C366 0.931 . S
H393 C375 0.931 . S
H394 C379 0.929 . S
H395 C381 0.930 1_565 S
Co396 N400 2.148 . S
Co396 N406 2.128 . S
Co396 N416 2.194 . S
Co396 O421 2.351 . S
Co396 O422 2.155 . S
Co396 O423 2.096 . S
C397 N400 1.301 . S
C397 N401 1.328 1_565 S
C397 H402 0.930 1_565 S
C398 C399 1.333 . S
C398 N400 1.317 . S
C398 H403 0.930 . S
C399 C398 1.333 . S
C399 N401 1.350 1_565 S
C399 H425 0.931 . S
N400 Co396 2.148 . S
N400 C397 1.301 . S
N400 C398 1.317 . S
N401 C397 1.328 1_545 S
N401 C399 1.350 1_545 S
H402 C397 0.930 1_545 S
H403 C398 0.930 . S
C404 O405 1.224 . S
C404 O423 1.247 . S
O405 C404 1.224 . S
N406 Co396 2.128 . S
N406 C407 1.355 . S
N406 C409 1.311 . S
C407 N406 1.355 . S
C407 C408 1.363 . S
C407 H419 0.929 . S
C408 C407 1.363 . S
C408 N410 1.375 . S
C408 H426 0.931 . S
C409 N406 1.311 . S
C409 N410 1.347 . S
C409 H420 0.929 . S
N410 C408 1.375 . S
N410 C409 1.347 . S
C411 C414 1.365 . S
C411 N416 1.328 . S
C411 H417 0.929 . S
C412 C413 1.362 . S
C412 C415 1.378 . S
C412 H427 0.929 . S
C413 C412 1.362 . S
C413 C414 1.366 . S
C414 C411 1.365 . S
C414 C413 1.366 . S
C414 H428 0.930 1_565 S
C415 C412 1.378 . S
C415 N416 1.315 . S
C415 H418 0.930 . S
N416 Co396 2.194 . S
N416 C411 1.328 . S
N416 C415 1.315 . S
H417 C411 0.929 . S
H418 C415 0.930 . S
H419 C407 0.929 . S
H420 C409 0.929 . S
O421 Co396 2.351 . S
O421 C424 1.244 . S
O422 Co396 2.155 . S
O422 C424 1.240 . S
O423 Co396 2.096 . S
O423 C404 1.247 . S
C424 O421 1.244 . S
C424 O422 1.240 . S
H425 C399 0.931 . S
H426 C408 0.931 . S
H427 C412 0.929 . S
H428 C414 0.930 1_545 S
Co429 N433 2.148 . S
Co429 N439 2.128 . S
Co429 N449 2.194 . S
Co429 O454 2.351 . S
Co429 O455 2.155 . S
Co429 O456 2.096 . S
C430 N433 1.301 . S
C430 N434 1.328 1_455 S
C430 H435 0.930 1_455 S
C431 C432 1.333 . S
C431 N433 1.317 . S
C431 H436 0.930 . S
C432 C431 1.333 . S
C432 N434 1.350 1_455 S
C432 H458 0.931 . S
N433 Co429 2.148 . S
N433 C430 1.301 . S
N433 C431 1.317 . S
N434 C430 1.328 1_655 S
N434 C432 1.350 1_655 S
H435 C430 0.930 1_655 S
H436 C431 0.930 . S
C437 O438 1.224 . S
C437 O456 1.247 . S
O438 C437 1.224 . S
N439 Co429 2.128 . S
N439 C440 1.355 . S
N439 C442 1.311 . S
C440 N439 1.355 . S
C440 C441 1.363 . S
C440 H452 0.929 . S
C441 C440 1.363 . S
C441 N443 1.375 . S
C441 H459 0.931 . S
C442 N439 1.311 . S
C442 N443 1.347 . S
C442 H453 0.929 . S
N443 C441 1.375 . S
N443 C442 1.347 . S
C444 C447 1.365 . S
C444 N449 1.328 . S
C444 H450 0.929 . S
C445 C446 1.362 . S
C445 C448 1.378 . S
C445 H460 0.929 . S
C446 C445 1.362 . S
C446 C447 1.366 . S
C447 C444 1.365 . S
C447 C446 1.366 . S
C447 H461 0.930 1_455 S
C448 C445 1.378 . S
C448 N449 1.315 . S
C448 H451 0.930 . S
N449 Co429 2.194 . S
N449 C444 1.328 . S
N449 C448 1.315 . S
H450 C444 0.929 . S
H451 C448 0.930 . S
H452 C440 0.929 . S
H453 C442 0.929 . S
O454 Co429 2.351 . S
O454 C457 1.244 . S
O455 Co429 2.155 . S
O455 C457 1.240 . S
O456 Co429 2.096 . S
O456 C437 1.247 . S
C457 O454 1.244 . S
C457 O455 1.240 . S
H458 C432 0.931 . S
H459 C441 0.931 . S
H460 C445 0.929 . S
H461 C447 0.930 1_655 S
Co462 N466 2.148 . S
Co462 N472 2.128 . S
Co462 N482 2.194 . S
Co462 O487 2.351 . S
Co462 O488 2.155 . S
Co462 O489 2.096 . S
C463 N466 1.301 . S
C463 N467 1.328 . S
C463 H468 0.930 . S
C464 C465 1.333 . S
C464 N466 1.317 . S
C464 H469 0.930 . S
C465 C464 1.333 . S
C465 N467 1.350 . S
C465 H491 0.931 . S
N466 Co462 2.148 . S
N466 C463 1.301 . S
N466 C464 1.317 . S
N467 C463 1.328 . S
N467 C465 1.350 . S
H468 C463 0.930 . S
H469 C464 0.930 . S
C470 O471 1.224 . S
C470 O489 1.247 . S
O471 C470 1.224 . S
N472 Co462 2.128 . S
N472 C473 1.355 . S
N472 C475 1.311 . S
C473 N472 1.355 . S
C473 C474 1.363 . S
C473 H485 0.929 . S
C474 C473 1.363 . S
C474 N476 1.375 . S
C474 H492 0.931 . S
C475 N472 1.311 . S
C475 N476 1.347 . S
C475 H486 0.929 . S
N476 C474 1.375 . S
N476 C475 1.347 . S
C477 C480 1.365 . S
C477 N482 1.328 . S
C477 H483 0.929 . S
C478 C479 1.362 . S
C478 C481 1.378 . S
C478 H493 0.929 . S
C479 C478 1.362 . S
C479 C480 1.366 . S
C480 C477 1.365 . S
C480 C479 1.366 . S
C480 H494 0.930 . S
C481 C478 1.378 . S
C481 N482 1.315 . S
C481 H484 0.930 . S
N482 Co462 2.194 . S
N482 C477 1.328 . S
N482 C481 1.315 . S
H483 C477 0.929 . S
H484 C481 0.930 . S
H485 C473 0.929 . S
H486 C475 0.929 . S
O487 Co462 2.351 . S
O487 C490 1.244 . S
O488 Co462 2.155 . S
O488 C490 1.240 . S
O489 Co462 2.096 . S
O489 C470 1.247 . S
C490 O487 1.244 . S
C490 O488 1.240 . S
H491 C465 0.931 . S
H492 C474 0.931 . S
H493 C478 0.929 . S
H494 C480 0.930 . S
Co495 N499 2.148 . S
Co495 N505 2.128 . S
Co495 N515 2.194 . S
Co495 O520 2.351 . S
Co495 O521 2.155 . S
Co495 O522 2.096 . S
C496 N499 1.301 . S
C496 N500 1.328 . S
C496 H501 0.930 . S
C497 C498 1.333 . S
C497 N499 1.317 . S
C497 H502 0.930 . S
C498 C497 1.333 . S
C498 N500 1.350 . S
C498 H524 0.931 . S
N499 Co495 2.148 . S
N499 C496 1.301 . S
N499 C497 1.317 . S
N500 C496 1.328 . S
N500 C498 1.350 . S
H501 C496 0.930 . S
H502 C497 0.930 . S
C503 O504 1.224 . S
C503 O522 1.247 . S
O504 C503 1.224 . S
N505 Co495 2.128 . S
N505 C506 1.355 . S
N505 C508 1.311 . S
C506 N505 1.355 . S
C506 C507 1.363 . S
C506 H518 0.929 . S
C507 C506 1.363 . S
C507 N509 1.375 . S
C507 H525 0.931 . S
C508 N505 1.311 . S
C508 N509 1.347 . S
C508 H519 0.929 . S
N509 C507 1.375 . S
N509 C508 1.347 . S
C510 C513 1.365 . S
C510 N515 1.328 . S
C510 H516 0.929 . S
C511 C512 1.362 . S
C511 C514 1.378 . S
C511 H526 0.929 . S
C512 C511 1.362 . S
C512 C513 1.366 . S
C513 C510 1.365 . S
C513 C512 1.366 . S
C513 H527 0.930 . S
C514 C511 1.378 . S
C514 N515 1.315 . S
C514 H517 0.930 . S
N515 Co495 2.194 . S
N515 C510 1.328 . S
N515 C514 1.315 . S
H516 C510 0.929 . S
H517 C514 0.930 . S
H518 C506 0.929 . S
H519 C508 0.929 . S
O520 Co495 2.351 . S
O520 C523 1.244 . S
O521 Co495 2.155 . S
O521 C523 1.240 . S
O522 Co495 2.096 . S
O522 C503 1.247 . S
C523 O520 1.244 . S
C523 O521 1.240 . S
H524 C498 0.931 . S
H525 C507 0.931 . S
H526 C511 0.929 . S
H527 C513 0.930 . S
Co528 N532 2.148 . S
Co528 N538 2.128 . S
Co528 N548 2.194 . S
Co528 O553 2.351 . S
Co528 O554 2.155 . S
Co528 O555 2.096 . S
C529 N532 1.301 . S
C529 N533 1.328 . S
C529 H534 0.930 . S
C530 C531 1.333 . S
C530 N532 1.317 . S
C530 H535 0.930 . S
C531 C530 1.333 . S
C531 N533 1.350 . S
C531 H557 0.931 . S
N532 Co528 2.148 . S
N532 C529 1.301 . S
N532 C530 1.317 . S
N533 C529 1.328 . S
N533 C531 1.350 . S
H534 C529 0.930 . S
H535 C530 0.930 . S
C536 O537 1.224 . S
C536 O555 1.247 . S
O537 C536 1.224 . S
N538 Co528 2.128 . S
N538 C539 1.355 . S
N538 C541 1.311 . S
C539 N538 1.355 . S
C539 C540 1.363 . S
C539 H551 0.929 . S
C540 C539 1.363 . S
C540 N542 1.375 . S
C540 H558 0.931 . S
C541 N538 1.311 . S
C541 N542 1.347 . S
C541 H552 0.929 . S
N542 C540 1.375 . S
N542 C541 1.347 . S
C543 C546 1.365 . S
C543 N548 1.328 . S
C543 H549 0.929 . S
C544 C545 1.362 . S
C544 C547 1.378 . S
C544 H559 0.929 . S
C545 C544 1.362 . S
C545 C546 1.366 . S
C546 C543 1.365 . S
C546 C545 1.366 . S
C546 H560 0.930 . S
C547 C544 1.378 . S
C547 N548 1.315 . S
C547 H550 0.930 . S
N548 Co528 2.194 . S
N548 C543 1.328 . S
N548 C547 1.315 . S
H549 C543 0.929 . S
H550 C547 0.930 . S
H551 C539 0.929 . S
H552 C541 0.929 . S
O553 Co528 2.351 . S
O553 C556 1.244 . S
O554 Co528 2.155 . S
O554 C556 1.240 . S
O555 Co528 2.096 . S
O555 C536 1.247 . S
C556 O553 1.244 . S
C556 O554 1.240 . S
H557 C531 0.931 . S
H558 C540 0.931 . S
H559 C544 0.929 . S
H560 C546 0.930 . S
Co561 N565 2.148 . S
Co561 N571 2.128 . S
Co561 N581 2.194 . S
Co561 O586 2.351 . S
Co561 O587 2.155 . S
Co561 O588 2.096 . S
C562 N565 1.301 . S
C562 N566 1.328 . S
C562 H567 0.930 . S
C563 C564 1.333 . S
C563 N565 1.317 . S
C563 H568 0.930 . S
C564 C563 1.333 . S
C564 N566 1.350 . S
C564 H590 0.931 . S
N565 Co561 2.148 . S
N565 C562 1.301 . S
N565 C563 1.317 . S
N566 C562 1.328 . S
N566 C564 1.350 . S
H567 C562 0.930 . S
H568 C563 0.930 . S
C569 O570 1.224 . S
C569 O588 1.247 . S
O570 C569 1.224 . S
N571 Co561 2.128 . S
N571 C572 1.355 . S
N571 C574 1.311 . S
C572 N571 1.355 . S
C572 C573 1.363 . S
C572 H584 0.929 . S
C573 C572 1.363 . S
C573 N575 1.375 . S
C573 H591 0.931 . S
C574 N571 1.311 . S
C574 N575 1.347 . S
C574 H585 0.929 . S
N575 C573 1.375 . S
N575 C574 1.347 . S
C576 C579 1.365 . S
C576 N581 1.328 . S
C576 H582 0.929 . S
C577 C578 1.362 . S
C577 C580 1.378 . S
C577 H592 0.929 . S
C578 C577 1.362 . S
C578 C579 1.366 . S
C579 C576 1.365 . S
C579 C578 1.366 . S
C579 H593 0.930 . S
C580 C577 1.378 . S
C580 N581 1.315 . S
C580 H583 0.930 . S
N581 Co561 2.194 . S
N581 C576 1.328 . S
N581 C580 1.315 . S
H582 C576 0.929 . S
H583 C580 0.930 . S
H584 C572 0.929 . S
H585 C574 0.929 . S
O586 Co561 2.351 . S
O586 C589 1.244 . S
O587 Co561 2.155 . S
O587 C589 1.240 . S
O588 Co561 2.096 . S
O588 C569 1.247 . S
C589 O586 1.244 . S
C589 O587 1.240 . S
H590 C564 0.931 . S
H591 C573 0.931 . S
H592 C577 0.929 . S
H593 C579 0.930 . S
C594 C595 1.391 . S
C594 C596 1.394 . S
C594 H610 0.931 . S
C595 C594 1.391 . S
C595 C599 1.376 . S
C596 C594 1.394 . S
C596 C597 1.369 . S
C596 C600 1.531 . S
C597 C596 1.369 . S
C597 C598 1.410 . S
C597 C605 1.503 . S
C598 C597 1.410 . S
C598 C599 1.392 . S
C598 C601 1.511 . S
C599 C595 1.376 . S
C599 C598 1.392 . S
C599 H611 0.929 . S
C600 C596 1.531 . S
C600 H612 0.960 . S
C600 H613 0.962 . S
C600 H614 0.960 . S
C601 C598 1.511 . S
C601 H615 0.961 . S
C601 H616 0.961 . S
C601 H617 0.961 . S
C602 C603 1.370 . S
C602 C604 1.363 . S
C602 H618 0.931 . S
C603 C602 1.370 . S
C603 C607 1.408 . S
C604 C602 1.363 . S
C604 C605 1.370 . S
C604 C608 1.524 . S
C605 C597 1.503 . S
C605 C604 1.370 . S
C605 C606 1.403 . S
C606 C605 1.403 . S
C606 C607 1.404 . S
C606 C609 1.539 . S
C607 C603 1.408 . S
C607 C606 1.404 . S
C607 H619 0.930 . S
C608 C604 1.524 . S
C608 H620 0.956 . S
C608 H621 0.961 . S
C608 H622 0.961 . S
C609 C606 1.539 . S
C609 H623 0.958 . S
C609 H624 0.961 . S
C609 H625 0.960 . S
H610 C594 0.931 . S
H611 C599 0.929 . S
H612 C600 0.960 . S
H613 C600 0.962 . S
H614 C600 0.960 . S
H615 C601 0.961 . S
H616 C601 0.961 . S
H617 C601 0.961 . S
H618 C602 0.931 . S
H619 C607 0.930 . S
H620 C608 0.956 . S
H621 C608 0.961 . S
H622 C608 0.961 . S
H623 C609 0.958 . S
H624 C609 0.961 . S
H625 C609 0.960 . S
C626 C627 1.391 . S
C626 C628 1.394 . S
C626 H642 0.931 . S
C627 C626 1.391 . S
C627 C631 1.376 . S
C628 C626 1.394 . S
C628 C629 1.369 . S
C628 C632 1.531 . S
C629 C628 1.369 . S
C629 C630 1.410 . S
C629 C637 1.503 . S
C630 C629 1.410 . S
C630 C631 1.392 . S
C630 C633 1.511 . S
C631 C627 1.376 . S
C631 C630 1.392 . S
C631 H643 0.929 . S
C632 C628 1.531 . S
C632 H644 0.960 . S
C632 H645 0.962 . S
C632 H646 0.960 . S
C633 C630 1.511 . S
C633 H647 0.961 . S
C633 H648 0.961 . S
C633 H649 0.961 . S
C634 C635 1.370 . S
C634 C636 1.363 . S
C634 H650 0.931 . S
C635 C634 1.370 . S
C635 C639 1.408 . S
C636 C634 1.363 . S
C636 C637 1.370 . S
C636 C640 1.524 . S
C637 C629 1.503 . S
C637 C636 1.370 . S
C637 C638 1.403 . S
C638 C637 1.403 . S
C638 C639 1.404 . S
C638 C641 1.539 . S
C639 C635 1.408 . S
C639 C638 1.404 . S
C639 H651 0.930 . S
C640 C636 1.524 . S
C640 H652 0.956 . S
C640 H653 0.961 . S
C640 H654 0.961 . S
C641 C638 1.539 . S
C641 H655 0.958 . S
C641 H656 0.961 . S
C641 H657 0.960 . S
H642 C626 0.931 . S
H643 C631 0.929 . S
H644 C632 0.960 . S
H645 C632 0.962 . S
H646 C632 0.960 . S
H647 C633 0.961 . S
H648 C633 0.961 . S
H649 C633 0.961 . S
H650 C634 0.931 . S
H651 C639 0.930 . S
H652 C640 0.956 . S
H653 C640 0.961 . S
H654 C640 0.961 . S
H655 C641 0.958 . S
H656 C641 0.961 . S
H657 C641 0.960 . S
C658 C659 1.391 . S
C658 C660 1.394 . S
C658 H674 0.931 1_455 S
C659 C658 1.391 . S
C659 C663 1.376 . S
C660 C658 1.394 . S
C660 C661 1.369 . S
C660 C664 1.531 . S
C661 C660 1.369 . S
C661 C662 1.410 . S
C661 C669 1.503 . S
C662 C661 1.410 . S
C662 C663 1.392 . S
C662 C665 1.511 . S
C663 C659 1.376 . S
C663 C662 1.392 . S
C663 H675 0.929 . S
C664 C660 1.531 . S
C664 H676 0.960 . S
C664 H677 0.962 . S
C664 H678 0.960 1_455 S
C665 C662 1.511 . S
C665 H679 0.961 . S
C665 H680 0.961 . S
C665 H681 0.961 . S
C666 C667 1.370 . S
C666 C668 1.363 . S
C666 H682 0.931 . S
C667 C666 1.370 . S
C667 C671 1.408 . S
C668 C666 1.363 . S
C668 C669 1.370 . S
C668 C672 1.524 . S
C669 C661 1.503 . S
C669 C668 1.370 . S
C669 C670 1.403 . S
C670 C669 1.403 . S
C670 C671 1.404 . S
C670 C673 1.539 . S
C671 C667 1.408 . S
C671 C670 1.404 . S
C671 H683 0.930 . S
C672 C668 1.524 . S
C672 H684 0.956 . S
C672 H685 0.961 . S
C672 H686 0.961 . S
C673 C670 1.539 . S
C673 H687 0.958 . S
C673 H688 0.961 . S
C673 H689 0.960 . S
H674 C658 0.931 1_655 S
H675 C663 0.929 . S
H676 C664 0.960 . S
H677 C664 0.962 . S
H678 C664 0.960 1_655 S
H679 C665 0.961 . S
H680 C665 0.961 . S
H681 C665 0.961 . S
H682 C666 0.931 . S
H683 C671 0.930 . S
H684 C672 0.956 . S
H685 C672 0.961 . S
H686 C672 0.961 . S
H687 C673 0.958 . S
H688 C673 0.961 . S
H689 C673 0.960 . S
C690 C691 1.391 . S
C690 C692 1.394 . S
C690 H706 0.931 . S
C691 C690 1.391 . S
C691 C695 1.376 . S
C692 C690 1.394 . S
C692 C693 1.369 . S
C692 C696 1.531 . S
C693 C692 1.369 . S
C693 C694 1.410 . S
C693 C701 1.503 . S
C694 C693 1.410 . S
C694 C695 1.392 . S
C694 C697 1.511 . S
C695 C691 1.376 . S
C695 C694 1.392 . S
C695 H707 0.929 . S
C696 C692 1.531 . S
C696 H708 0.960 . S
C696 H709 0.962 . S
C696 H710 0.960 . S
C697 C694 1.511 . S
C697 H711 0.961 . S
C697 H712 0.961 . S
C697 H713 0.961 . S
C698 C699 1.370 . S
C698 C700 1.363 . S
C698 H714 0.931 . S
C699 C698 1.370 . S
C699 C703 1.408 . S
C700 C698 1.363 . S
C700 C701 1.370 . S
C700 C704 1.524 . S
C701 C693 1.503 . S
C701 C700 1.370 . S
C701 C702 1.403 . S
C702 C701 1.403 . S
C702 C703 1.404 . S
C702 C705 1.539 . S
C703 C699 1.408 . S
C703 C702 1.404 . S
C703 H715 0.930 . S
C704 C700 1.524 . S
C704 H716 0.956 . S
C704 H717 0.961 . S
C704 H718 0.961 . S
C705 C702 1.539 . S
C705 H719 0.958 . S
C705 H720 0.961 . S
C705 H721 0.960 . S
H706 C690 0.931 . S
H707 C695 0.929 . S
H708 C696 0.960 . S
H709 C696 0.962 . S
H710 C696 0.960 . S
H711 C697 0.961 . S
H712 C697 0.961 . S
H713 C697 0.961 . S
H714 C698 0.931 . S
H715 C703 0.930 . S
H716 C704 0.956 . S
H717 C704 0.961 . S
H718 C704 0.961 . S
H719 C705 0.958 . S
H720 C705 0.961 . S
H721 C705 0.960 . S
C722 C723 1.391 . S
C722 C724 1.394 . S
C722 H738 0.931 . S
C723 C722 1.391 . S
C723 C727 1.376 . S
C724 C722 1.394 . S
C724 C725 1.369 . S
C724 C728 1.531 . S
C725 C724 1.369 . S
C725 C726 1.410 . S
C725 C733 1.503 . S
C726 C725 1.410 . S
C726 C727 1.392 . S
C726 C729 1.511 . S
C727 C723 1.376 . S
C727 C726 1.392 . S
C727 H739 0.929 . S
C728 C724 1.531 . S
C728 H740 0.960 . S
C728 H741 0.962 . S
C728 H742 0.960 . S
C729 C726 1.511 . S
C729 H743 0.961 . S
C729 H744 0.961 . S
C729 H745 0.961 . S
C730 C731 1.370 . S
C730 C732 1.363 . S
C730 H746 0.931 . S
C731 C730 1.370 . S
C731 C735 1.408 . S
C732 C730 1.363 . S
C732 C733 1.370 . S
C732 C736 1.524 . S
C733 C725 1.503 . S
C733 C732 1.370 . S
C733 C734 1.403 . S
C734 C733 1.403 . S
C734 C735 1.404 . S
C734 C737 1.539 1_545 S
C735 C731 1.408 . S
C735 C734 1.404 . S
C735 H747 0.930 1_545 S
C736 C732 1.524 . S
C736 H748 0.956 . S
C736 H749 0.961 . S
C736 H750 0.961 . S
C737 C734 1.539 1_565 S
C737 H751 0.958 . S
C737 H752 0.961 . S
C737 H753 0.960 1_565 S
H738 C722 0.931 . S
H739 C727 0.929 . S
H740 C728 0.960 . S
H741 C728 0.962 . S
H742 C728 0.960 . S
H743 C729 0.961 . S
H744 C729 0.961 . S
H745 C729 0.961 . S
H746 C730 0.931 . S
H747 C735 0.930 1_565 S
H748 C736 0.956 . S
H749 C736 0.961 . S
H750 C736 0.961 . S
H751 C737 0.958 . S
H752 C737 0.961 . S
H753 C737 0.960 1_545 S
C754 C755 1.391 . S
C754 C756 1.394 . S
C754 H770 0.931 1_655 S
C755 C754 1.391 . S
C755 C759 1.376 . S
C756 C754 1.394 . S
C756 C757 1.369 . S
C756 C760 1.531 . S
C757 C756 1.369 . S
C757 C758 1.410 . S
C757 C765 1.503 . S
C758 C757 1.410 . S
C758 C759 1.392 . S
C758 C761 1.511 . S
C759 C755 1.376 . S
C759 C758 1.392 . S
C759 H771 0.929 . S
C760 C756 1.531 . S
C760 H772 0.960 . S
C760 H773 0.962 . S
C760 H774 0.960 1_655 S
C761 C758 1.511 . S
C761 H775 0.961 . S
C761 H776 0.961 . S
C761 H777 0.961 . S
C762 C763 1.370 . S
C762 C764 1.363 . S
C762 H778 0.931 . S
C763 C762 1.370 . S
C763 C767 1.408 . S
C764 C762 1.363 . S
C764 C765 1.370 . S
C764 C768 1.524 . S
C765 C757 1.503 . S
C765 C764 1.370 . S
C765 C766 1.403 . S
C766 C765 1.403 . S
C766 C767 1.404 . S
C766 C769 1.539 . S
C767 C763 1.408 . S
C767 C766 1.404 . S
C767 H779 0.930 . S
C768 C764 1.524 . S
C768 H780 0.956 . S
C768 H781 0.961 . S
C768 H782 0.961 . S
C769 C766 1.539 . S
C769 H783 0.958 . S
C769 H784 0.961 . S
C769 H785 0.960 . S
H770 C754 0.931 1_455 S
H771 C759 0.929 . S
H772 C760 0.960 . S
H773 C760 0.962 . S
H774 C760 0.960 1_455 S
H775 C761 0.961 . S
H776 C761 0.961 . S
H777 C761 0.961 . S
H778 C762 0.931 . S
H779 C767 0.930 . S
H780 C768 0.956 . S
H781 C768 0.961 . S
H782 C768 0.961 . S
H783 C769 0.958 . S
H784 C769 0.961 . S
H785 C769 0.960 . S
C786 C787 1.391 . S
C786 C788 1.394 . S
C786 H802 0.931 . S
C787 C786 1.391 . S
C787 C791 1.376 . S
C788 C786 1.394 . S
C788 C789 1.369 . S
C788 C792 1.531 . S
C789 C788 1.369 . S
C789 C790 1.410 . S
C789 C797 1.503 . S
C790 C789 1.410 . S
C790 C791 1.392 . S
C790 C793 1.511 . S
C791 C787 1.376 . S
C791 C790 1.392 . S
C791 H803 0.929 . S
C792 C788 1.531 . S
C792 H804 0.960 . S
C792 H805 0.962 . S
C792 H806 0.960 . S
C793 C790 1.511 . S
C793 H807 0.961 . S
C793 H808 0.961 . S
C793 H809 0.961 . S
C794 C795 1.370 . S
C794 C796 1.363 . S
C794 H810 0.931 . S
C795 C794 1.370 . S
C795 C799 1.408 . S
C796 C794 1.363 . S
C796 C797 1.370 . S
C796 C800 1.524 . S
C797 C789 1.503 . S
C797 C796 1.370 . S
C797 C798 1.403 . S
C798 C797 1.403 . S
C798 C799 1.404 . S
C798 C801 1.539 . S
C799 C795 1.408 . S
C799 C798 1.404 . S
C799 H811 0.930 . S
C800 C796 1.524 . S
C800 H812 0.956 . S
C800 H813 0.961 . S
C800 H814 0.961 . S
C801 C798 1.539 . S
C801 H815 0.958 . S
C801 H816 0.961 . S
C801 H817 0.960 . S
H802 C786 0.931 . S
H803 C791 0.929 . S
H804 C792 0.960 . S
H805 C792 0.962 . S
H806 C792 0.960 . S
H807 C793 0.961 . S
H808 C793 0.961 . S
H809 C793 0.961 . S
H810 C794 0.931 . S
H811 C799 0.930 . S
H812 C800 0.956 . S
H813 C800 0.961 . S
H814 C800 0.961 . S
H815 C801 0.958 . S
H816 C801 0.961 . S
H817 C801 0.960 . S
C818 C819 1.391 . S
C818 C820 1.394 1_565 S
C818 H834 0.931 . S
C819 C818 1.391 . S
C819 C823 1.376 . S
C820 C818 1.394 1_545 S
C820 C821 1.369 . S
C820 C824 1.531 . S
C821 C820 1.369 . S
C821 C822 1.410 1_545 S
C821 C829 1.503 . S
C822 C821 1.410 1_565 S
C822 C823 1.392 . S
C822 C825 1.511 1_565 S
C823 C819 1.376 . S
C823 C822 1.392 . S
C823 H835 0.929 . S
C824 C820 1.531 . S
C824 H836 0.960 . S
C824 H837 0.962 . S
C824 H838 0.960 1_545 S
C825 C822 1.511 1_545 S
C825 H839 0.961 . S
C825 H840 0.961 . S
C825 H841 0.961 1_545 S
C826 C827 1.370 . S
C826 C828 1.363 . S
C826 H842 0.931 . S
C827 C826 1.370 . S
C827 C831 1.408 . S
C828 C826 1.363 . S
C828 C829 1.370 . S
C828 C832 1.524 . S
C829 C821 1.503 . S
C829 C828 1.370 . S
C829 C830 1.403 . S
C830 C829 1.403 . S
C830 C831 1.404 . S
C830 C833 1.539 1_545 S
C831 C827 1.408 . S
C831 C830 1.404 . S
C831 H843 0.930 . S
C832 C828 1.524 . S
C832 H844 0.956 . S
C832 H845 0.961 . S
C832 H846 0.961 . S
C833 C830 1.539 1_565 S
C833 H847 0.958 . S
C833 H848 0.961 . S
C833 H849 0.960 . S
H834 C818 0.931 . S
H835 C823 0.929 . S
H836 C824 0.960 . S
H837 C824 0.962 . S
H838 C824 0.960 1_565 S
H839 C825 0.961 . S
H840 C825 0.961 . S
H841 C825 0.961 1_565 S
H842 C826 0.931 . S
H843 C831 0.930 . S
H844 C832 0.956 . S
H845 C832 0.961 . S
H846 C832 0.961 . S
H847 C833 0.958 . S
H848 C833 0.961 . S
H849 C833 0.960 . S
C850 C851 1.391 . S
C850 C852 1.394 1_455 S
C850 H866 0.931 . S
C851 C850 1.391 . S
C851 C855 1.376 1_455 S
C852 C850 1.394 1_655 S
C852 C853 1.369 . S
C852 C856 1.531 . S
C853 C852 1.369 . S
C853 C854 1.410 . S
C853 C861 1.503 . S
C854 C853 1.410 . S
C854 C855 1.392 . S
C854 C857 1.511 . S
C855 C851 1.376 1_655 S
C855 C854 1.392 . S
C855 H867 0.942 1_655 S
C856 C852 1.531 . S
C856 H868 0.960 . S
C856 H869 0.962 1_655 S
C856 H870 0.960 . S
C857 C854 1.511 . S
C857 H871 0.961 . S
C857 H872 0.961 . S
C857 H873 0.961 . S
C858 C859 1.370 . S
C858 C860 1.363 . S
C858 H874 0.931 . S
C859 C858 1.370 . S
C859 C863 1.408 . S
C860 C858 1.363 . S
C860 C861 1.370 . S
C860 C864 1.524 1_655 S
C861 C853 1.503 . S
C861 C860 1.370 . S
C861 C862 1.403 . S
C862 C861 1.403 . S
C862 C863 1.404 . S
C862 C865 1.539 . S
C863 C859 1.408 . S
C863 C862 1.404 . S
C863 H875 0.930 . S
C864 C860 1.524 1_455 S
C864 H876 0.956 . S
C864 H877 0.961 . S
C864 H878 0.961 . S
C865 C862 1.539 . S
C865 H879 0.958 . S
C865 H880 0.961 . S
C865 H881 0.960 . S
H866 C850 0.931 . S
H867 C855 0.942 1_455 S
H868 C856 0.960 . S
H869 C856 0.962 1_455 S
H870 C856 0.960 . S
H871 C857 0.961 . S
H872 C857 0.961 . S
H873 C857 0.961 . S
H874 C858 0.931 . S
H875 C863 0.930 . S
H876 C864 0.956 . S
H877 C864 0.961 . S
H878 C864 0.961 . S
H879 C865 0.958 . S
H880 C865 0.961 . S
H881 C865 0.960 . S
C882 C883 1.391 . S
C882 C884 1.394 . S
C882 H898 0.931 . S
C883 C882 1.391 . S
C883 C887 1.376 . S
C884 C882 1.394 . S
C884 C885 1.369 . S
C884 C888 1.531 . S
C885 C884 1.369 . S
C885 C886 1.410 . S
C885 C893 1.503 . S
C886 C885 1.410 . S
C886 C887 1.392 . S
C886 C889 1.511 . S
C887 C883 1.376 . S
C887 C886 1.392 . S
C887 H899 0.929 . S
C888 C884 1.531 . S
C888 H900 0.960 . S
C888 H901 0.962 . S
C888 H902 0.960 . S
C889 C886 1.511 . S
C889 H903 0.961 . S
C889 H904 0.961 . S
C889 H905 0.961 . S
C890 C891 1.370 . S
C890 C892 1.363 . S
C890 H906 0.931 . S
C891 C890 1.370 . S
C891 C895 1.408 . S
C892 C890 1.363 . S
C892 C893 1.370 . S
C892 C896 1.524 . S
C893 C885 1.503 . S
C893 C892 1.370 . S
C893 C894 1.403 . S
C894 C893 1.403 . S
C894 C895 1.404 . S
C894 C897 1.539 . S
C895 C891 1.408 . S
C895 C894 1.404 . S
C895 H907 0.930 . S
C896 C892 1.524 . S
C896 H908 0.956 . S
C896 H909 0.961 . S
C896 H910 0.961 . S
C897 C894 1.539 . S
C897 H911 0.958 . S
C897 H912 0.961 . S
C897 H913 0.960 . S
H898 C882 0.931 . S
H899 C887 0.929 . S
H900 C888 0.960 . S
H901 C888 0.962 . S
H902 C888 0.960 . S
H903 C889 0.961 . S
H904 C889 0.961 . S
H905 C889 0.961 . S
H906 C890 0.931 . S
H907 C895 0.930 . S
H908 C896 0.956 . S
H909 C896 0.961 . S
H910 C896 0.961 . S
H911 C897 0.958 . S
H912 C897 0.961 . S
H913 C897 0.960 . S
C914 C915 1.391 . S
C914 C916 1.394 . S
C914 H930 0.931 . S
C915 C914 1.391 . S
C915 C919 1.376 . S
C916 C914 1.394 . S
C916 C917 1.369 . S
C916 C920 1.531 1_565 S
C917 C916 1.369 . S
C917 C918 1.410 . S
C917 C925 1.503 . S
C918 C917 1.410 . S
C918 C919 1.392 . S
C918 C921 1.511 . S
C919 C915 1.376 . S
C919 C918 1.392 . S
C919 H931 0.929 . S
C920 C916 1.531 1_545 S
C920 H932 0.960 . S
C920 H933 0.962 . S
C920 H934 0.960 . S
C921 C918 1.511 . S
C921 H935 0.961 . S
C921 H936 0.961 . S
C921 H937 0.961 . S
C922 C923 1.370 . S
C922 C924 1.363 1_545 S
C922 H938 0.931 . S
C923 C922 1.370 . S
C923 C927 1.408 . S
C924 C922 1.363 1_565 S
C924 C925 1.370 . S
C924 C928 1.524 . S
C925 C917 1.503 . S
C925 C924 1.370 . S
C925 C926 1.403 . S
C926 C925 1.403 . S
C926 C927 1.404 1_565 S
C926 C929 1.539 . S
C927 C923 1.408 . S
C927 C926 1.404 1_545 S
C927 H939 0.930 . S
C928 C924 1.524 . S
C928 H940 0.956 . S
C928 H941 0.961 . S
C928 H942 0.961 . S
C929 C926 1.539 . S
C929 H943 0.958 1_565 S
C929 H944 0.961 . S
C929 H945 0.960 . S
H930 C914 0.931 . S
H931 C919 0.929 . S
H932 C920 0.960 . S
H933 C920 0.962 . S
H934 C920 0.960 . S
H935 C921 0.961 . S
H936 C921 0.961 . S
H937 C921 0.961 . S
H938 C922 0.931 . S
H939 C927 0.930 . S
H940 C928 0.956 . S
H941 C928 0.961 . S
H942 C928 0.961 . S
H943 C929 0.958 1_545 S
H944 C929 0.961 . S
H945 C929 0.960 . S
C946 C947 1.391 . S
C946 C948 1.394 . S
C946 H962 0.931 . S
C947 C946 1.391 . S
C947 C951 1.376 . S
C948 C946 1.394 . S
C948 C949 1.369 . S
C948 C952 1.531 . S
C949 C948 1.369 . S
C949 C950 1.410 . S
C949 C957 1.503 . S
C950 C949 1.410 . S
C950 C951 1.392 . S
C950 C953 1.511 . S
C951 C947 1.376 . S
C951 C950 1.392 . S
C951 H963 0.929 . S
C952 C948 1.531 . S
C952 H964 0.960 . S
C952 H965 0.962 . S
C952 H966 0.960 . S
C953 C950 1.511 . S
C953 H967 0.961 . S
C953 H968 0.961 . S
C953 H969 0.961 . S
C954 C955 1.370 . S
C954 C956 1.363 . S
C954 H970 0.931 . S
C955 C954 1.370 . S
C955 C959 1.408 1_655 S
C956 C954 1.363 . S
C956 C957 1.370 1_655 S
C956 C960 1.524 . S
C957 C949 1.503 . S
C957 C956 1.370 1_455 S
C957 C958 1.403 . S
C958 C957 1.403 . S
C958 C959 1.404 . S
C958 C961 1.539 . S
C959 C955 1.408 1_455 S
C959 C958 1.404 . S
C959 H971 0.930 . S
C960 C956 1.524 . S
C960 H972 0.956 . S
C960 H973 0.961 . S
C960 H974 0.961 . S
C961 C958 1.539 . S
C961 H975 0.958 . S
C961 H976 0.961 . S
C961 H977 0.960 . S
H962 C946 0.931 . S
H963 C951 0.929 . S
H964 C952 0.960 . S
H965 C952 0.962 . S
H966 C952 0.960 . S
H967 C953 0.961 . S
H968 C953 0.961 . S
H969 C953 0.961 . S
H970 C954 0.931 . S
H971 C959 0.930 . S
H972 C960 0.956 . S
H973 C960 0.961 . S
H974 C960 0.961 . S
H975 C961 0.958 . S
H976 C961 0.961 . S
H977 C961 0.960 . S
C978 C979 1.391 . S
C978 C980 1.394 . S
C978 H994 0.931 . S
C979 C978 1.391 . S
C979 C983 1.376 . S
C980 C978 1.394 . S
C980 C981 1.369 . S
C980 C984 1.531 1_455 S
C981 C980 1.369 . S
C981 C982 1.410 . S
C981 C989 1.503 1_455 S
C982 C981 1.410 . S
C982 C983 1.392 . S
C982 C985 1.511 . S
C983 C979 1.376 . S
C983 C982 1.392 . S
C983 H995 0.929 . S
C984 C980 1.531 1_655 S
C984 H996 0.960 . S
C984 H997 0.962 . S
C984 H998 0.960 . S
C985 C982 1.511 . S
C985 H999 0.961 . S
C985 H1000 0.961 . S
C985 H1001 0.961 . S
C986 C987 1.370 . S
C986 C988 1.363 . S
C986 H1002 0.931 . S
C987 C986 1.370 . S
C987 C991 1.408 . S
C988 C986 1.363 . S
C988 C989 1.370 . S
C988 C992 1.524 . S
C989 C981 1.503 1_655 S
C989 C988 1.370 . S
C989 C990 1.403 . S
C990 C989 1.403 . S
C990 C991 1.404 . S
C990 C993 1.539 . S
C991 C987 1.408 . S
C991 C990 1.404 . S
C991 H1003 0.930 . S
C992 C988 1.524 . S
C992 H1004 0.956 . S
C992 H1005 0.961 1_655 S
C992 H1006 0.961 . S
C993 C990 1.539 . S
C993 H1007 0.958 . S
C993 H1008 0.961 . S
C993 H1009 0.960 . S
H994 C978 0.931 . S
H995 C983 0.929 . S
H996 C984 0.960 . S
H997 C984 0.962 . S
H998 C984 0.960 . S
H999 C985 0.961 . S
H1000 C985 0.961 . S
H1001 C985 0.961 . S
H1002 C986 0.931 . S
H1003 C991 0.930 . S
H1004 C992 0.956 . S
H1005 C992 0.961 1_455 S
H1006 C992 0.961 . S
H1007 C993 0.958 . S
H1008 C993 0.961 . S
H1009 C993 0.960 . S
C1010 C1011 1.391 . S
C1010 C1012 1.394 . S
C1010 H1026 0.931 . S
C1011 C1010 1.391 . S
C1011 C1015 1.376 . S
C1012 C1010 1.394 . S
C1012 C1013 1.369 . S
C1012 C1016 1.531 . S
C1013 C1012 1.369 . S
C1013 C1014 1.410 . S
C1013 C1021 1.503 . S
C1014 C1013 1.410 . S
C1014 C1015 1.392 . S
C1014 C1017 1.511 . S
C1015 C1011 1.376 . S
C1015 C1014 1.392 . S
C1015 H1027 0.929 . S
C1016 C1012 1.531 . S
C1016 H1028 0.960 . S
C1016 H1029 0.962 . S
C1016 H1030 0.960 . S
C1017 C1014 1.511 . S
C1017 H1031 0.961 . S
C1017 H1032 0.961 . S
C1017 H1033 0.961 . S
C1018 C1019 1.370 . S
C1018 C1020 1.363 . S
C1018 H1034 0.931 . S
C1019 C1018 1.370 . S
C1019 C1023 1.408 . S
C1020 C1018 1.363 . S
C1020 C1021 1.370 . S
C1020 C1024 1.524 . S
C1021 C1013 1.503 . S
C1021 C1020 1.370 . S
C1021 C1022 1.403 . S
C1022 C1021 1.403 . S
C1022 C1023 1.404 . S
C1022 C1025 1.539 . S
C1023 C1019 1.408 . S
C1023 C1022 1.404 . S
C1023 H1035 0.930 . S
C1024 C1020 1.524 . S
C1024 H1036 0.956 . S
C1024 H1037 0.961 . S
C1024 H1038 0.961 . S
C1025 C1022 1.539 . S
C1025 H1039 0.958 . S
C1025 H1040 0.961 . S
C1025 H1041 0.960 . S
H1026 C1010 0.931 . S
H1027 C1015 0.929 . S
H1028 C1016 0.960 . S
H1029 C1016 0.962 . S
H1030 C1016 0.960 . S
H1031 C1017 0.961 . S
H1032 C1017 0.961 . S
H1033 C1017 0.961 . S
H1034 C1018 0.931 . S
H1035 C1023 0.930 . S
H1036 C1024 0.956 . S
H1037 C1024 0.961 . S
H1038 C1024 0.961 . S
H1039 C1025 0.958 . S
H1040 C1025 0.961 . S
H1041 C1025 0.960 . S
C1042 C1043 1.391 . S
C1042 C1044 1.394 . S
C1042 H1058 0.931 . S
C1043 C1042 1.391 . S
C1043 C1047 1.376 . S
C1044 C1042 1.394 . S
C1044 C1045 1.369 . S
C1044 C1048 1.531 1_565 S
C1045 C1044 1.369 . S
C1045 C1046 1.410 . S
C1045 C1053 1.503 1_565 S
C1046 C1045 1.410 . S
C1046 C1047 1.392 . S
C1046 C1049 1.511 . S
C1047 C1043 1.376 . S
C1047 C1046 1.392 . S
C1047 H1059 0.929 . S
C1048 C1044 1.531 1_545 S
C1048 H1060 0.960 . S
C1048 H1061 0.962 . S
C1048 H1062 0.960 . S
C1049 C1046 1.511 . S
C1049 H1063 0.961 . S
C1049 H1064 0.961 . S
C1049 H1065 0.961 . S
C1050 C1051 1.370 . S
C1050 C1052 1.363 . S
C1050 H1066 0.931 . S
C1051 C1050 1.370 . S
C1051 C1055 1.408 . S
C1052 C1050 1.363 . S
C1052 C1053 1.370 . S
C1052 C1056 1.524 1_545 S
C1053 C1045 1.503 1_545 S
C1053 C1052 1.370 . S
C1053 C1054 1.403 . S
C1054 C1053 1.403 . S
C1054 C1055 1.404 . S
C1054 C1057 1.539 . S
C1055 C1051 1.408 . S
C1055 C1054 1.404 . S
C1055 H1067 0.930 . S
C1056 C1052 1.524 1_565 S
C1056 H1068 0.956 . S
C1056 H1069 0.961 . S
C1056 H1070 0.961 1_565 S
C1057 C1054 1.539 . S
C1057 H1071 0.958 . S
C1057 H1072 0.961 . S
C1057 H1073 0.960 . S
H1058 C1042 0.931 . S
H1059 C1047 0.929 . S
H1060 C1048 0.960 . S
H1061 C1048 0.962 . S
H1062 C1048 0.960 . S
H1063 C1049 0.961 . S
H1064 C1049 0.961 . S
H1065 C1049 0.961 . S
H1066 C1050 0.931 . S
H1067 C1055 0.930 . S
H1068 C1056 0.956 . S
H1069 C1056 0.961 . S
H1070 C1056 0.961 1_545 S
H1071 C1057 0.958 . S
H1072 C1057 0.961 . S
H1073 C1057 0.960 . S
C1074 C1075 1.391 . S
C1074 C1076 1.394 . S
C1074 H1090 0.931 . S
C1075 C1074 1.391 . S
C1075 C1079 1.376 . S
C1076 C1074 1.394 . S
C1076 C1077 1.369 . S
C1076 C1080 1.531 . S
C1077 C1076 1.369 . S
C1077 C1078 1.410 . S
C1077 C1085 1.503 1_545 S
C1078 C1077 1.410 . S
C1078 C1079 1.392 . S
C1078 C1081 1.511 . S
C1079 C1075 1.376 . S
C1079 C1078 1.392 . S
C1079 H1091 0.929 . S
C1080 C1076 1.531 . S
C1080 H1092 0.960 1_545 S
C1080 H1093 0.962 . S
C1080 H1094 0.960 . S
C1081 C1078 1.511 . S
C1081 H1095 0.961 . S
C1081 H1096 0.961 . S
C1081 H1097 0.961 . S
C1082 C1083 1.370 . S
C1082 C1084 1.363 . S
C1082 H1098 0.931 . S
C1083 C1082 1.370 . S
C1083 C1087 1.408 . S
C1084 C1082 1.363 . S
C1084 C1085 1.370 . S
C1084 C1088 1.524 1_565 S
C1085 C1077 1.503 1_565 S
C1085 C1084 1.370 . S
C1085 C1086 1.403 . S
C1086 C1085 1.403 . S
C1086 C1087 1.404 . S
C1086 C1089 1.539 . S
C1087 C1083 1.408 . S
C1087 C1086 1.404 . S
C1087 H1099 0.930 . S
C1088 C1084 1.524 1_545 S
C1088 H1100 0.956 . S
C1088 H1101 0.961 . S
C1088 H1102 0.961 . S
C1089 C1086 1.539 . S
C1089 H1103 0.958 . S
C1089 H1104 0.961 . S
C1089 H1105 0.960 . S
H1090 C1074 0.931 . S
H1091 C1079 0.929 . S
H1092 C1080 0.960 1_565 S
H1093 C1080 0.962 . S
H1094 C1080 0.960 . S
H1095 C1081 0.961 . S
H1096 C1081 0.961 . S
H1097 C1081 0.961 . S
H1098 C1082 0.931 . S
H1099 C1087 0.930 . S
H1100 C1088 0.956 . S
H1101 C1088 0.961 . S
H1102 C1088 0.961 . S
H1103 C1089 0.958 . S
H1104 C1089 0.961 . S
H1105 C1089 0.960 . S
C1106 C1107 1.391 . S
C1106 C1108 1.394 . S
C1106 H1122 0.931 . S
C1107 C1106 1.391 . S
C1107 C1111 1.376 . S
C1108 C1106 1.394 . S
C1108 C1109 1.369 . S
C1108 C1112 1.531 . S
C1109 C1108 1.369 . S
C1109 C1110 1.410 . S
C1109 C1117 1.503 1_455 S
C1110 C1109 1.410 . S
C1110 C1111 1.392 . S
C1110 C1113 1.511 . S
C1111 C1107 1.376 . S
C1111 C1110 1.392 . S
C1111 H1123 0.929 . S
C1112 C1108 1.531 . S
C1112 H1124 0.960 . S
C1112 H1125 0.962 . S
C1112 H1126 0.960 . S
C1113 C1110 1.511 . S
C1113 H1127 0.961 . S
C1113 H1128 0.961 1_455 S
C1113 H1129 0.961 . S
C1114 C1115 1.370 . S
C1114 C1116 1.363 . S
C1114 H1130 0.931 . S
C1115 C1114 1.370 . S
C1115 C1119 1.408 . S
C1116 C1114 1.363 . S
C1116 C1117 1.370 . S
C1116 C1120 1.524 . S
C1117 C1109 1.503 1_655 S
C1117 C1116 1.370 . S
C1117 C1118 1.403 . S
C1118 C1117 1.403 . S
C1118 C1119 1.404 . S
C1118 C1121 1.539 1_655 S
C1119 C1115 1.408 . S
C1119 C1118 1.404 . S
C1119 H1131 0.930 . S
C1120 C1116 1.524 . S
C1120 H1132 0.956 . S
C1120 H1133 0.961 . S
C1120 H1134 0.961 . S
C1121 C1118 1.539 1_455 S
C1121 H1135 0.958 . S
C1121 H1136 0.975 . S
C1121 H1137 0.960 . S
H1122 C1106 0.931 . S
H1123 C1111 0.929 . S
H1124 C1112 0.960 . S
H1125 C1112 0.962 . S
H1126 C1112 0.960 . S
H1127 C1113 0.961 . S
H1128 C1113 0.961 1_655 S
H1129 C1113 0.961 . S
H1130 C1114 0.931 . S
H1131 C1119 0.930 . S
H1132 C1120 0.956 . S
H1133 C1120 0.961 . S
H1134 C1120 0.961 . S
H1135 C1121 0.958 . S
H1136 C1121 0.975 . S
H1137 C1121 0.960 . S
C1138 C1139 1.391 . S
C1138 C1140 1.394 . S
C1138 H1154 0.931 . S
C1139 C1138 1.391 . S
C1139 C1143 1.376 . S
C1140 C1138 1.394 . S
C1140 C1141 1.369 . S
C1140 C1144 1.531 . S
C1141 C1140 1.369 . S
C1141 C1142 1.410 . S
C1141 C1149 1.503 . S
C1142 C1141 1.410 . S
C1142 C1143 1.392 . S
C1142 C1145 1.511 . S
C1143 C1139 1.376 . S
C1143 C1142 1.392 . S
C1143 H1155 0.929 . S
C1144 C1140 1.531 . S
C1144 H1156 0.960 . S
C1144 H1157 0.962 . S
C1144 H1158 0.960 . S
C1145 C1142 1.511 . S
C1145 H1159 0.961 . S
C1145 H1160 0.961 . S
C1145 H1161 0.961 . S
C1146 C1147 1.370 . S
C1146 C1148 1.363 . S
C1146 H1162 0.931 . S
C1147 C1146 1.370 . S
C1147 C1151 1.408 . S
C1148 C1146 1.363 . S
C1148 C1149 1.370 . S
C1148 C1152 1.524 . S
C1149 C1141 1.503 . S
C1149 C1148 1.370 . S
C1149 C1150 1.403 . S
C1150 C1149 1.403 . S
C1150 C1151 1.404 . S
C1150 C1153 1.539 . S
C1151 C1147 1.408 . S
C1151 C1150 1.404 . S
C1151 H1163 0.930 . S
C1152 C1148 1.524 . S
C1152 H1164 0.956 . S
C1152 H1165 0.961 . S
C1152 H1166 0.961 . S
C1153 C1150 1.539 . S
C1153 H1167 0.958 . S
C1153 H1168 0.961 . S
C1153 H1169 0.960 . S
H1154 C1138 0.931 . S
H1155 C1143 0.929 . S
H1156 C1144 0.960 . S
H1157 C1144 0.962 . S
H1158 C1144 0.960 . S
H1159 C1145 0.961 . S
H1160 C1145 0.961 . S
H1161 C1145 0.961 . S
H1162 C1146 0.931 . S
H1163 C1151 0.930 . S
H1164 C1152 0.956 . S
H1165 C1152 0.961 . S
H1166 C1152 0.961 . S
H1167 C1153 0.958 . S
H1168 C1153 0.961 . S
H1169 C1153 0.960 . S
C1170 C1171 1.391 . S
C1170 C1172 1.394 . S
C1170 H1186 0.931 . S
C1171 C1170 1.391 . S
C1171 C1175 1.376 . S
C1172 C1170 1.394 . S
C1172 C1173 1.369 . S
C1172 C1176 1.531 . S
C1173 C1172 1.369 . S
C1173 C1174 1.410 . S
C1173 C1181 1.503 . S
C1174 C1173 1.410 . S
C1174 C1175 1.392 . S
C1174 C1177 1.511 . S
C1175 C1171 1.376 . S
C1175 C1174 1.392 . S
C1175 H1187 0.929 . S
C1176 C1172 1.531 . S
C1176 H1188 0.960 . S
C1176 H1189 0.962 . S
C1176 H1190 0.960 . S
C1177 C1174 1.511 . S
C1177 H1191 0.961 . S
C1177 H1192 0.961 . S
C1177 H1193 0.961 . S
C1178 C1179 1.370 . S
C1178 C1180 1.363 . S
C1178 H1194 0.931 . S
C1179 C1178 1.370 . S
C1179 C1183 1.408 . S
C1180 C1178 1.363 . S
C1180 C1181 1.370 . S
C1180 C1184 1.524 . S
C1181 C1173 1.503 . S
C1181 C1180 1.370 . S
C1181 C1182 1.403 . S
C1182 C1181 1.403 . S
C1182 C1183 1.404 . S
C1182 C1185 1.539 . S
C1183 C1179 1.408 . S
C1183 C1182 1.404 . S
C1183 H1195 0.930 . S
C1184 C1180 1.524 . S
C1184 H1196 0.956 . S
C1184 H1197 0.961 . S
C1184 H1198 0.961 . S
C1185 C1182 1.539 . S
C1185 H1199 0.958 . S
C1185 H1200 0.961 . S
C1185 H1201 0.960 . S
H1186 C1170 0.931 . S
H1187 C1175 0.929 . S
H1188 C1176 0.960 . S
H1189 C1176 0.962 . S
H1190 C1176 0.960 . S
H1191 C1177 0.961 . S
H1192 C1177 0.961 . S
H1193 C1177 0.961 . S
H1194 C1178 0.931 . S
H1195 C1183 0.930 . S
H1196 C1184 0.956 . S
H1197 C1184 0.961 . S
H1198 C1184 0.961 . S
H1199 C1185 0.958 . S
H1200 C1185 0.961 . S
H1201 C1185 0.960 . S
C1202 C1203 1.391 . S
C1202 C1204 1.394 . S
C1202 H1218 0.931 . S
C1203 C1202 1.391 . S
C1203 C1207 1.376 . S
C1204 C1202 1.394 . S
C1204 C1205 1.369 . S
C1204 C1208 1.531 . S
C1205 C1204 1.369 . S
C1205 C1206 1.410 . S
C1205 C1213 1.503 . S
C1206 C1205 1.410 . S
C1206 C1207 1.392 . S
C1206 C1209 1.511 . S
C1207 C1203 1.376 . S
C1207 C1206 1.392 . S
C1207 H1219 0.929 . S
C1208 C1204 1.531 . S
C1208 H1220 0.960 . S
C1208 H1221 0.962 . S
C1208 H1222 0.960 . S
C1209 C1206 1.511 . S
C1209 H1223 0.961 . S
C1209 H1224 0.961 . S
C1209 H1225 0.961 . S
C1210 C1211 1.370 . S
C1210 C1212 1.363 . S
C1210 H1226 0.931 . S
C1211 C1210 1.370 . S
C1211 C1215 1.408 . S
C1212 C1210 1.363 . S
C1212 C1213 1.370 . S
C1212 C1216 1.524 . S
C1213 C1205 1.503 . S
C1213 C1212 1.370 . S
C1213 C1214 1.403 . S
C1214 C1213 1.403 . S
C1214 C1215 1.404 . S
C1214 C1217 1.539 . S
C1215 C1211 1.408 . S
C1215 C1214 1.404 . S
C1215 H1227 0.930 . S
C1216 C1212 1.524 . S
C1216 H1228 0.956 . S
C1216 H1229 0.961 . S
C1216 H1230 0.961 . S
C1217 C1214 1.539 . S
C1217 H1231 0.958 . S
C1217 H1232 0.961 . S
C1217 H1233 0.960 . S
H1218 C1202 0.931 . S
H1219 C1207 0.929 . S
H1220 C1208 0.960 . S
H1221 C1208 0.962 . S
H1222 C1208 0.960 . S
H1223 C1209 0.961 . S
H1224 C1209 0.961 . S
H1225 C1209 0.961 . S
H1226 C1210 0.931 . S
H1227 C1215 0.930 . S
H1228 C1216 0.956 . S
H1229 C1216 0.961 . S
H1230 C1216 0.961 . S
H1231 C1217 0.958 . S
H1232 C1217 0.961 . S
H1233 C1217 0.960 . S
C1234 C1235 1.391 . S
C1234 C1236 1.394 . S
C1234 H1250 0.931 . S
C1235 C1234 1.391 . S
C1235 C1239 1.376 . S
C1236 C1234 1.394 . S
C1236 C1237 1.369 . S
C1236 C1240 1.531 . S
C1237 C1236 1.369 . S
C1237 C1238 1.410 . S
C1237 C1245 1.503 . S
C1238 C1237 1.410 . S
C1238 C1239 1.392 . S
C1238 C1241 1.511 . S
C1239 C1235 1.376 . S
C1239 C1238 1.392 . S
C1239 H1251 0.929 . S
C1240 C1236 1.531 . S
C1240 H1252 0.960 . S
C1240 H1253 0.962 . S
C1240 H1254 0.960 . S
C1241 C1238 1.511 . S
C1241 H1255 0.961 . S
C1241 H1256 0.961 . S
C1241 H1257 0.961 . S
C1242 C1243 1.370 . S
C1242 C1244 1.363 . S
C1242 H1258 0.931 . S
C1243 C1242 1.370 . S
C1243 C1247 1.408 . S
C1244 C1242 1.363 . S
C1244 C1245 1.370 . S
C1244 C1248 1.524 . S
C1245 C1237 1.503 . S
C1245 C1244 1.370 . S
C1245 C1246 1.403 . S
C1246 C1245 1.403 . S
C1246 C1247 1.404 . S
C1246 C1249 1.539 . S
C1247 C1243 1.408 . S
C1247 C1246 1.404 . S
C1247 H1259 0.930 . S
C1248 C1244 1.524 . S
C1248 H1260 0.956 . S
C1248 H1261 0.961 . S
C1248 H1262 0.961 . S
C1249 C1246 1.539 . S
C1249 H1263 0.958 . S
C1249 H1264 0.961 . S
C1249 H1265 0.960 . S
H1250 C1234 0.931 . S
H1251 C1239 0.929 . S
H1252 C1240 0.960 . S
H1253 C1240 0.962 . S
H1254 C1240 0.960 . S
H1255 C1241 0.961 . S
H1256 C1241 0.961 . S
H1257 C1241 0.961 . S
H1258 C1242 0.931 . S
H1259 C1247 0.930 . S
H1260 C1248 0.956 . S
H1261 C1248 0.961 . S
H1262 C1248 0.961 . S
H1263 C1249 0.958 . S
H1264 C1249 0.961 . S
H1265 C1249 0.960 . S
C1266 C1267 1.391 . S
C1266 C1268 1.394 . S
C1266 H1282 0.931 . S
C1267 C1266 1.391 . S
C1267 C1271 1.376 . S
C1268 C1266 1.394 . S
C1268 C1269 1.369 . S
C1268 C1272 1.531 . S
C1269 C1268 1.369 . S
C1269 C1270 1.410 . S
C1269 C1277 1.503 . S
C1270 C1269 1.410 . S
C1270 C1271 1.392 . S
C1270 C1273 1.511 . S
C1271 C1267 1.376 . S
C1271 C1270 1.392 . S
C1271 H1283 0.929 . S
C1272 C1268 1.531 . S
C1272 H1284 0.960 . S
C1272 H1285 0.962 . S
C1272 H1286 0.960 . S
C1273 C1270 1.511 . S
C1273 H1287 0.961 . S
C1273 H1288 0.961 . S
C1273 H1289 0.961 . S
C1274 C1275 1.370 . S
C1274 C1276 1.363 . S
C1274 H1290 0.931 . S
C1275 C1274 1.370 . S
C1275 C1279 1.408 . S
C1276 C1274 1.363 . S
C1276 C1277 1.370 . S
C1276 C1280 1.524 . S
C1277 C1269 1.503 . S
C1277 C1276 1.370 . S
C1277 C1278 1.403 . S
C1278 C1277 1.403 . S
C1278 C1279 1.404 . S
C1278 C1281 1.539 . S
C1279 C1275 1.408 . S
C1279 C1278 1.404 . S
C1279 H1291 0.930 . S
C1280 C1276 1.524 . S
C1280 H1292 0.956 . S
C1280 H1293 0.961 . S
C1280 H1294 0.961 . S
C1281 C1278 1.539 . S
C1281 H1295 0.958 . S
C1281 H1296 0.961 . S
C1281 H1297 0.960 . S
H1282 C1266 0.931 . S
H1283 C1271 0.929 . S
H1284 C1272 0.960 . S
H1285 C1272 0.962 . S
H1286 C1272 0.960 . S
H1287 C1273 0.961 . S
H1288 C1273 0.961 . S
H1289 C1273 0.961 . S
H1290 C1274 0.931 . S
H1291 C1279 0.930 . S
H1292 C1280 0.956 . S
H1293 C1280 0.961 . S
H1294 C1280 0.961 . S
H1295 C1281 0.958 . S
H1296 C1281 0.961 . S
H1297 C1281 0.960 . S
C1298 C1299 1.391 . S
C1298 C1300 1.394 . S
C1298 H1314 0.931 . S
C1299 C1298 1.391 . S
C1299 C1303 1.376 . S
C1300 C1298 1.394 . S
C1300 C1301 1.369 . S
C1300 C1304 1.531 . S
C1301 C1300 1.369 . S
C1301 C1302 1.410 . S
C1301 C1309 1.503 . S
C1302 C1301 1.410 . S
C1302 C1303 1.392 . S
C1302 C1305 1.511 . S
C1303 C1299 1.376 . S
C1303 C1302 1.392 . S
C1303 H1315 0.929 . S
C1304 C1300 1.531 . S
C1304 H1316 0.960 . S
C1304 H1317 0.962 . S
C1304 H1318 0.960 . S
C1305 C1302 1.511 . S
C1305 H1319 0.961 . S
C1305 H1320 0.961 . S
C1305 H1321 0.961 . S
C1306 C1307 1.370 . S
C1306 C1308 1.363 . S
C1306 H1322 0.931 . S
C1307 C1306 1.370 . S
C1307 C1311 1.408 . S
C1308 C1306 1.363 . S
C1308 C1309 1.370 . S
C1308 C1312 1.524 . S
C1309 C1301 1.503 . S
C1309 C1308 1.370 . S
C1309 C1310 1.403 . S
C1310 C1309 1.403 . S
C1310 C1311 1.404 . S
C1310 C1313 1.539 . S
C1311 C1307 1.408 . S
C1311 C1310 1.404 . S
C1311 H1323 0.930 . S
C1312 C1308 1.524 . S
C1312 H1324 0.956 . S
C1312 H1325 0.961 . S
C1312 H1326 0.961 . S
C1313 C1310 1.539 . S
C1313 H1327 0.958 . S
C1313 H1328 0.961 . S
C1313 H1329 0.960 . S
H1314 C1298 0.931 . S
H1315 C1303 0.929 . S
H1316 C1304 0.960 . S
H1317 C1304 0.962 . S
H1318 C1304 0.960 . S
H1319 C1305 0.961 . S
H1320 C1305 0.961 . S
H1321 C1305 0.961 . S
H1322 C1306 0.931 . S
H1323 C1311 0.930 . S
H1324 C1312 0.956 . S
H1325 C1312 0.961 . S
H1326 C1312 0.961 . S
H1327 C1313 0.958 . S
H1328 C1313 0.961 . S
H1329 C1313 0.960 . S
C1330 C1331 1.391 . S
C1330 C1332 1.394 . S
C1330 H1346 0.931 . S
C1331 C1330 1.391 . S
C1331 C1335 1.376 . S
C1332 C1330 1.394 . S
C1332 C1333 1.369 . S
C1332 C1336 1.531 . S
C1333 C1332 1.369 . S
C1333 C1334 1.410 . S
C1333 C1341 1.503 . S
C1334 C1333 1.410 . S
C1334 C1335 1.392 . S
C1334 C1337 1.511 . S
C1335 C1331 1.376 . S
C1335 C1334 1.392 . S
C1335 H1347 0.929 . S
C1336 C1332 1.531 . S
C1336 H1348 0.960 . S
C1336 H1349 0.962 . S
C1336 H1350 0.960 . S
C1337 C1334 1.511 . S
C1337 H1351 0.961 . S
C1337 H1352 0.961 . S
C1337 H1353 0.961 . S
C1338 C1339 1.370 . S
C1338 C1340 1.363 . S
C1338 H1354 0.931 . S
C1339 C1338 1.370 . S
C1339 C1343 1.408 . S
C1340 C1338 1.363 . S
C1340 C1341 1.370 . S
C1340 C1344 1.524 . S
C1341 C1333 1.503 . S
C1341 C1340 1.370 . S
C1341 C1342 1.403 . S
C1342 C1341 1.403 . S
C1342 C1343 1.404 . S
C1342 C1345 1.539 . S
C1343 C1339 1.408 . S
C1343 C1342 1.404 . S
C1343 H1355 0.930 . S
C1344 C1340 1.524 . S
C1344 H1356 0.956 . S
C1344 H1357 0.961 . S
C1344 H1358 0.961 . S
C1345 C1342 1.539 . S
C1345 H1359 0.958 . S
C1345 H1360 0.961 . S
C1345 H1361 0.960 . S
H1346 C1330 0.931 . S
H1347 C1335 0.929 . S
H1348 C1336 0.960 . S
H1349 C1336 0.962 . S
H1350 C1336 0.960 . S
H1351 C1337 0.961 . S
H1352 C1337 0.961 . S
H1353 C1337 0.961 . S
H1354 C1338 0.931 . S
H1355 C1343 0.930 . S
H1356 C1344 0.956 . S
H1357 C1344 0.961 . S
H1358 C1344 0.961 . S
H1359 C1345 0.958 . S
H1360 C1345 0.961 . S
H1361 C1345 0.960 . S
C1362 C1363 1.391 . S
C1362 C1364 1.394 . S
C1362 H1378 0.931 . S
C1363 C1362 1.391 . S
C1363 C1367 1.376 1_655 S
C1364 C1362 1.394 . S
C1364 C1365 1.369 1_655 S
C1364 C1368 1.531 . S
C1365 C1364 1.369 1_455 S
C1365 C1366 1.410 . S
C1365 C1373 1.503 1_554 S
C1366 C1365 1.410 . S
C1366 C1367 1.392 . S
C1366 C1369 1.511 . S
C1367 C1363 1.376 1_455 S
C1367 C1366 1.392 . S
C1367 H1379 0.929 . S
C1368 C1364 1.531 . S
C1368 H1380 0.960 1_554 S
C1368 H1381 0.962 . S
C1368 H1382 0.960 . S
C1369 C1366 1.511 . S
C1369 H1383 0.961 . S
C1369 H1384 0.961 . S
C1369 H1385 0.961 . S
C1370 C1371 1.370 1_655 S
C1370 C1372 1.363 . S
C1370 H1386 0.931 . S
C1371 C1370 1.370 1_455 S
C1371 C1375 1.408 . S
C1372 C1370 1.363 . S
C1372 C1373 1.370 1_655 S
C1372 C1376 1.524 . S
C1373 C1365 1.503 1_556 S
C1373 C1372 1.370 1_455 S
C1373 C1374 1.403 . S
C1374 C1373 1.403 . S
C1374 C1375 1.404 . S
C1374 C1377 1.539 . S
C1375 C1371 1.408 . S
C1375 C1374 1.404 . S
C1375 H1387 0.930 . S
C1376 C1372 1.524 . S
C1376 H1388 0.956 . S
C1376 H1389 0.961 . S
C1376 H1390 0.961 . S
C1377 C1374 1.539 . S
C1377 H1391 0.958 . S
C1377 H1392 0.961 . S
C1377 H1393 0.960 1_556 S
H1378 C1362 0.931 . S
H1379 C1367 0.929 . S
H1380 C1368 0.960 1_556 S
H1381 C1368 0.962 . S
H1382 C1368 0.960 . S
H1383 C1369 0.961 . S
H1384 C1369 0.961 . S
H1385 C1369 0.961 . S
H1386 C1370 0.931 . S
H1387 C1375 0.930 . S
H1388 C1376 0.956 . S
H1389 C1376 0.961 . S
H1390 C1376 0.961 . S
H1391 C1377 0.958 . S
H1392 C1377 0.961 . S
H1393 C1377 0.960 1_554 S
C1394 C1395 1.391 . S
C1394 C1396 1.394 . S
C1394 H1410 0.931 . S
C1395 C1394 1.391 . S
C1395 C1399 1.376 . S
C1396 C1394 1.394 . S
C1396 C1397 1.369 . S
C1396 C1400 1.531 . S
C1397 C1396 1.369 . S
C1397 C1398 1.410 . S
C1397 C1405 1.503 1_554 S
C1398 C1397 1.410 . S
C1398 C1399 1.392 . S
C1398 C1401 1.511 . S
C1399 C1395 1.376 . S
C1399 C1398 1.392 . S
C1399 H1411 0.929 . S
C1400 C1396 1.531 . S
C1400 H1412 0.960 . S
C1400 H1413 0.962 . S
C1400 H1414 0.960 . S
C1401 C1398 1.511 . S
C1401 H1415 0.961 . S
C1401 H1416 0.961 1_554 S
C1401 H1417 0.961 . S
C1402 C1403 1.370 . S
C1402 C1404 1.363 . S
C1402 H1418 0.931 . S
C1403 C1402 1.370 . S
C1403 C1407 1.408 . S
C1404 C1402 1.363 . S
C1404 C1405 1.370 . S
C1404 C1408 1.524 . S
C1405 C1397 1.503 1_556 S
C1405 C1404 1.370 . S
C1405 C1406 1.403 . S
C1406 C1405 1.403 . S
C1406 C1407 1.404 . S
C1406 C1409 1.539 . S
C1407 C1403 1.408 . S
C1407 C1406 1.404 . S
C1407 H1419 0.930 . S
C1408 C1404 1.524 . S
C1408 H1420 0.956 . S
C1408 H1421 0.961 . S
C1408 H1422 0.961 . S
C1409 C1406 1.539 . S
C1409 H1423 0.958 . S
C1409 H1424 0.961 . S
C1409 H1425 0.960 1_556 S
H1410 C1394 0.931 . S
H1411 C1399 0.929 . S
H1412 C1400 0.960 . S
H1413 C1400 0.962 . S
H1414 C1400 0.960 . S
H1415 C1401 0.961 . S
H1416 C1401 0.961 1_556 S
H1417 C1401 0.961 . S
H1418 C1402 0.931 . S
H1419 C1407 0.930 . S
H1420 C1408 0.956 . S
H1421 C1408 0.961 . S
H1422 C1408 0.961 . S
H1423 C1409 0.958 . S
H1424 C1409 0.961 . S
H1425 C1409 0.960 1_554 S
C1426 C1427 1.391 . S
C1426 C1428 1.394 . S
C1426 H1442 0.931 . S
C1427 C1426 1.391 . S
C1427 C1431 1.376 1_545 S
C1428 C1426 1.394 . S
C1428 C1429 1.369 . S
C1428 C1432 1.531 . S
C1429 C1428 1.369 . S
C1429 C1430 1.410 1_545 S
C1429 C1437 1.503 1_554 S
C1430 C1429 1.410 1_565 S
C1430 C1431 1.392 . S
C1430 C1433 1.511 . S
C1431 C1427 1.376 1_565 S
C1431 C1430 1.392 . S
C1431 H1443 0.929 . S
C1432 C1428 1.531 . S
C1432 H1444 0.960 1_554 S
C1432 H1445 0.962 . S
C1432 H1446 0.960 . S
C1433 C1430 1.511 . S
C1433 H1447 0.961 . S
C1433 H1448 1.000 . S
C1433 H1449 0.961 . S
C1434 C1435 1.370 . S
C1434 C1436 1.363 . S
C1434 H1450 0.931 . S
C1435 C1434 1.370 . S
C1435 C1439 1.408 1_565 S
C1436 C1434 1.363 . S
C1436 C1437 1.370 1_565 S
C1436 C1440 1.524 . S
C1437 C1429 1.503 1_556 S
C1437 C1436 1.370 1_545 S
C1437 C1438 1.403 . S
C1438 C1437 1.403 . S
C1438 C1439 1.404 . S
C1438 C1441 1.539 . S
C1439 C1435 1.408 1_545 S
C1439 C1438 1.404 . S
C1439 H1451 0.930 . S
C1440 C1436 1.524 . S
C1440 H1452 0.956 1_556 S
C1440 H1453 0.961 1_556 S
C1440 H1454 0.961 . S
C1441 C1438 1.539 . S
C1441 H1455 0.958 . S
C1441 H1456 0.961 . S
C1441 H1457 0.960 . S
H1442 C1426 0.931 . S
H1443 C1431 0.929 . S
H1444 C1432 0.960 1_556 S
H1445 C1432 0.962 . S
H1446 C1432 0.960 . S
H1447 C1433 0.961 . S
H1448 C1433 1.000 . S
H1449 C1433 0.961 . S
H1450 C1434 0.931 . S
H1451 C1439 0.930 . S
H1452 C1440 0.956 1_554 S
H1453 C1440 0.961 1_554 S
H1454 C1440 0.961 . S
H1455 C1441 0.958 . S
H1456 C1441 0.961 . S
H1457 C1441 0.960 . S
C1458 C1459 1.391 . S
C1458 C1460 1.394 . S
C1458 H1474 0.931 1_545 S
C1459 C1458 1.391 . S
C1459 C1463 1.376 . S
C1460 C1458 1.394 . S
C1460 C1461 1.369 . S
C1460 C1464 1.531 . S
C1461 C1460 1.369 . S
C1461 C1462 1.410 . S
C1461 C1469 1.503 . S
C1462 C1461 1.410 . S
C1462 C1463 1.392 . S
C1462 C1465 1.511 . S
C1463 C1459 1.376 . S
C1463 C1462 1.392 . S
C1463 H1475 0.929 . S
C1464 C1460 1.531 . S
C1464 H1476 0.960 . S
C1464 H1477 0.962 . S
C1464 H1478 0.960 . S
C1465 C1462 1.511 . S
C1465 H1479 0.961 . S
C1465 H1480 0.961 . S
C1465 H1481 0.961 . S
C1466 C1467 1.370 . S
C1466 C1468 1.363 . S
C1466 H1482 0.931 . S
C1467 C1466 1.370 . S
C1467 C1471 1.408 . S
C1468 C1466 1.363 . S
C1468 C1469 1.370 . S
C1468 C1472 1.524 . S
C1469 C1461 1.503 . S
C1469 C1468 1.370 . S
C1469 C1470 1.403 . S
C1470 C1469 1.403 . S
C1470 C1471 1.404 . S
C1470 C1473 1.539 . S
C1471 C1467 1.408 . S
C1471 C1470 1.404 . S
C1471 H1483 0.930 . S
C1472 C1468 1.524 . S
C1472 H1484 0.956 . S
C1472 H1485 0.961 . S
C1472 H1486 0.961 . S
C1473 C1470 1.539 . S
C1473 H1487 0.958 . S
C1473 H1488 0.961 . S
C1473 H1489 0.960 . S
H1474 C1458 0.931 1_565 S
H1475 C1463 0.929 . S
H1476 C1464 0.960 . S
H1477 C1464 0.962 . S
H1478 C1464 0.960 . S
H1479 C1465 0.961 . S
H1480 C1465 0.961 . S
H1481 C1465 0.961 . S
H1482 C1466 0.931 . S
H1483 C1471 0.930 . S
H1484 C1472 0.956 . S
H1485 C1472 0.961 . S
H1486 C1472 0.961 . S
H1487 C1473 0.958 . S
H1488 C1473 0.961 . S
H1489 C1473 0.960 . S
C1490 C1491 1.391 . S
C1490 C1492 1.394 1_565 S
C1490 H1506 0.931 . S
C1491 C1490 1.391 . S
C1491 C1495 1.376 . S
C1492 C1490 1.394 1_545 S
C1492 C1493 1.369 . S
C1492 C1496 1.531 . S
C1493 C1492 1.369 . S
C1493 C1494 1.410 . S
C1493 C1501 1.503 . S
C1494 C1493 1.410 . S
C1494 C1495 1.392 1_545 S
C1494 C1497 1.511 . S
C1495 C1491 1.376 . S
C1495 C1494 1.392 1_565 S
C1495 H1507 0.929 . S
C1496 C1492 1.531 . S
C1496 H1508 0.960 . S
C1496 H1509 0.962 . S
C1496 H1510 0.960 1_545 S
C1497 C1494 1.511 . S
C1497 H1511 0.961 . S
C1497 H1512 0.961 . S
C1497 H1513 0.961 . S
C1498 C1499 1.370 . S
C1498 C1500 1.363 . S
C1498 H1514 0.931 . S
C1499 C1498 1.370 . S
C1499 C1503 1.408 . S
C1500 C1498 1.363 . S
C1500 C1501 1.370 . S
C1500 C1504 1.524 . S
C1501 C1493 1.503 . S
C1501 C1500 1.370 . S
C1501 C1502 1.403 . S
C1502 C1501 1.403 . S
C1502 C1503 1.404 . S
C1502 C1505 1.539 . S
C1503 C1499 1.408 . S
C1503 C1502 1.404 . S
C1503 H1515 0.930 . S
C1504 C1500 1.524 . S
C1504 H1516 0.956 . S
C1504 H1517 0.961 . S
C1504 H1518 0.961 . S
C1505 C1502 1.539 . S
C1505 H1519 0.958 . S
C1505 H1520 0.961 . S
C1505 H1521 0.960 . S
H1506 C1490 0.931 . S
H1507 C1495 0.929 . S
H1508 C1496 0.960 . S
H1509 C1496 0.962 . S
H1510 C1496 0.960 1_565 S
H1511 C1497 0.961 . S
H1512 C1497 0.961 . S
H1513 C1497 0.961 . S
H1514 C1498 0.931 . S
H1515 C1503 0.930 . S
H1516 C1504 0.956 . S
H1517 C1504 0.961 . S
H1518 C1504 0.961 . S
H1519 C1505 0.958 . S
H1520 C1505 0.961 . S
H1521 C1505 0.960 . S
C1522 C1523 1.391 . S
C1522 C1524 1.394 . S
C1522 H1538 0.931 . S
C1523 C1522 1.391 . S
C1523 C1527 1.376 . S
C1524 C1522 1.394 . S
C1524 C1525 1.369 . S
C1524 C1528 1.531 . S
C1525 C1524 1.369 . S
C1525 C1526 1.410 . S
C1525 C1533 1.503 . S
C1526 C1525 1.410 . S
C1526 C1527 1.392 . S
C1526 C1529 1.511 . S
C1527 C1523 1.376 . S
C1527 C1526 1.392 . S
C1527 H1539 0.929 . S
C1528 C1524 1.531 . S
C1528 H1540 0.960 . S
C1528 H1541 0.962 . S
C1528 H1542 0.960 . S
C1529 C1526 1.511 . S
C1529 H1543 0.961 . S
C1529 H1544 0.961 . S
C1529 H1545 0.961 . S
C1530 C1531 1.370 . S
C1530 C1532 1.363 1_455 S
C1530 H1546 0.931 . S
C1531 C1530 1.370 . S
C1531 C1535 1.408 . S
C1532 C1530 1.363 1_655 S
C1532 C1533 1.370 . S
C1532 C1536 1.524 . S
C1533 C1525 1.503 . S
C1533 C1532 1.370 . S
C1533 C1534 1.403 . S
C1534 C1533 1.403 . S
C1534 C1535 1.404 1_655 S
C1534 C1537 1.539 . S
C1535 C1531 1.408 . S
C1535 C1534 1.404 1_455 S
C1535 H1547 0.930 . S
C1536 C1532 1.524 . S
C1536 H1548 0.956 . S
C1536 H1549 0.961 . S
C1536 H1550 0.961 . S
C1537 C1534 1.539 . S
C1537 H1551 0.958 . S
C1537 H1552 0.961 . S
C1537 H1553 0.960 . S
H1538 C1522 0.931 . S
H1539 C1527 0.929 . S
H1540 C1528 0.960 . S
H1541 C1528 0.962 . S
H1542 C1528 0.960 . S
H1543 C1529 0.961 . S
H1544 C1529 0.961 . S
H1545 C1529 0.961 . S
H1546 C1530 0.931 . S
H1547 C1535 0.930 . S
H1548 C1536 0.956 . S
H1549 C1536 0.961 . S
H1550 C1536 0.961 . S
H1551 C1537 0.958 . S
H1552 C1537 0.961 . S
H1553 C1537 0.960 . S
C1554 C1555 1.391 . S
C1554 C1556 1.394 . S
C1554 H1570 0.931 . S
C1555 C1554 1.391 . S
C1555 C1559 1.376 . S
C1556 C1554 1.394 . S
C1556 C1557 1.369 . S
C1556 C1560 1.531 . S
C1557 C1556 1.369 . S
C1557 C1558 1.410 . S
C1557 C1565 1.503 . S
C1558 C1557 1.410 . S
C1558 C1559 1.392 . S
C1558 C1561 1.511 . S
C1559 C1555 1.376 . S
C1559 C1558 1.392 . S
C1559 H1571 0.929 1_455 S
C1560 C1556 1.531 . S
C1560 H1572 0.960 . S
C1560 H1573 0.962 . S
C1560 H1574 0.960 . S
C1561 C1558 1.511 . S
C1561 H1575 0.961 . S
C1561 H1576 0.961 . S
C1561 H1577 0.961 . S
C1562 C1563 1.370 . S
C1562 C1564 1.363 . S
C1562 H1578 0.931 . S
C1563 C1562 1.370 . S
C1563 C1567 1.408 . S
C1564 C1562 1.363 . S
C1564 C1565 1.370 . S
C1564 C1568 1.524 . S
C1565 C1557 1.503 . S
C1565 C1564 1.370 . S
C1565 C1566 1.403 . S
C1566 C1565 1.403 . S
C1566 C1567 1.404 . S
C1566 C1569 1.539 . S
C1567 C1563 1.408 . S
C1567 C1566 1.404 . S
C1567 H1579 0.930 . S
C1568 C1564 1.524 . S
C1568 H1580 0.956 . S
C1568 H1581 0.961 . S
C1568 H1582 0.961 . S
C1569 C1566 1.539 . S
C1569 H1583 0.958 . S
C1569 H1584 0.961 . S
C1569 H1585 0.960 . S
H1570 C1554 0.931 . S
H1571 C1559 0.929 1_655 S
H1572 C1560 0.960 . S
H1573 C1560 0.962 . S
H1574 C1560 0.960 . S
H1575 C1561 0.961 . S
H1576 C1561 0.961 . S
H1577 C1561 0.961 . S
H1578 C1562 0.931 . S
H1579 C1567 0.930 . S
H1580 C1568 0.956 . S
H1581 C1568 0.961 . S
H1582 C1568 0.961 . S
H1583 C1569 0.958 . S
H1584 C1569 0.961 . S
H1585 C1569 0.960 . S
C1586 C1587 1.391 . S
C1586 C1588 1.394 1_545 S
C1586 H1602 0.931 . S
C1587 C1586 1.391 . S
C1587 C1591 1.376 . S
C1588 C1586 1.394 1_565 S
C1588 C1589 1.369 . S
C1588 C1592 1.531 . S
C1589 C1588 1.369 . S
C1589 C1590 1.410 . S
C1589 C1597 1.503 . S
C1590 C1589 1.410 . S
C1590 C1591 1.392 1_565 S
C1590 C1593 1.511 . S
C1591 C1587 1.376 . S
C1591 C1590 1.392 1_545 S
C1591 H1603 0.929 . S
C1592 C1588 1.531 . S
C1592 H1604 0.960 . S
C1592 H1605 0.962 . S
C1592 H1606 0.960 . S
C1593 C1590 1.511 . S
C1593 H1607 0.961 . S
C1593 H1608 0.961 . S
C1593 H1609 0.961 . S
C1594 C1595 1.370 . S
C1594 C1596 1.363 . S
C1594 H1610 0.931 . S
C1595 C1594 1.370 . S
C1595 C1599 1.408 . S
C1596 C1594 1.363 . S
C1596 C1597 1.370 . S
C1596 C1600 1.524 . S
C1597 C1589 1.503 . S
C1597 C1596 1.370 . S
C1597 C1598 1.403 . S
C1598 C1597 1.403 . S
C1598 C1599 1.404 . S
C1598 C1601 1.539 . S
C1599 C1595 1.408 . S
C1599 C1598 1.404 . S
C1599 H1611 0.930 . S
C1600 C1596 1.524 . S
C1600 H1612 0.956 . S
C1600 H1613 0.961 . S
C1600 H1614 0.961 . S
C1601 C1598 1.539 . S
C1601 H1615 0.958 . S
C1601 H1616 0.961 . S
C1601 H1617 0.960 . S
H1602 C1586 0.931 . S
H1603 C1591 0.929 . S
H1604 C1592 0.960 . S
H1605 C1592 0.962 . S
H1606 C1592 0.960 . S
H1607 C1593 0.961 . S
H1608 C1593 0.961 . S
H1609 C1593 0.961 . S
H1610 C1594 0.931 . S
H1611 C1599 0.930 . S
H1612 C1600 0.956 . S
H1613 C1600 0.961 . S
H1614 C1600 0.961 . S
H1615 C1601 0.958 . S
H1616 C1601 0.961 . S
H1617 C1601 0.960 . S
C1618 C1619 1.391 . S
C1618 C1620 1.394 . S
C1618 H1634 0.931 . S
C1619 C1618 1.391 . S
C1619 C1623 1.376 . S
C1620 C1618 1.394 . S
C1620 C1621 1.369 . S
C1620 C1624 1.531 . S
C1621 C1620 1.369 . S
C1621 C1622 1.410 . S
C1621 C1629 1.503 . S
C1622 C1621 1.410 . S
C1622 C1623 1.392 . S
C1622 C1625 1.511 . S
C1623 C1619 1.376 . S
C1623 C1622 1.392 . S
C1623 H1635 0.929 . S
C1624 C1620 1.531 . S
C1624 H1636 0.960 . S
C1624 H1637 0.962 . S
C1624 H1638 0.960 . S
C1625 C1622 1.511 . S
C1625 H1639 0.961 . S
C1625 H1640 0.961 . S
C1625 H1641 0.961 . S
C1626 C1627 1.370 . S
C1626 C1628 1.363 1_655 S
C1626 H1642 0.931 . S
C1627 C1626 1.370 . S
C1627 C1631 1.408 . S
C1628 C1626 1.363 1_455 S
C1628 C1629 1.370 . S
C1628 C1632 1.524 . S
C1629 C1621 1.503 . S
C1629 C1628 1.370 . S
C1629 C1630 1.403 . S
C1630 C1629 1.403 . S
C1630 C1631 1.404 1_455 S
C1630 C1633 1.539 . S
C1631 C1627 1.408 . S
C1631 C1630 1.404 1_655 S
C1631 H1643 0.930 . S
C1632 C1628 1.524 . S
C1632 H1644 0.956 . S
C1632 H1645 0.961 . S
C1632 H1646 0.961 1_455 S
C1633 C1630 1.539 . S
C1633 H1647 0.958 . S
C1633 H1648 0.961 . S
C1633 H1649 0.960 . S
H1634 C1618 0.931 . S
H1635 C1623 0.929 . S
H1636 C1624 0.960 . S
H1637 C1624 0.962 . S
H1638 C1624 0.960 . S
H1639 C1625 0.961 . S
H1640 C1625 0.961 . S
H1641 C1625 0.961 . S
H1642 C1626 0.931 . S
H1643 C1631 0.930 . S
H1644 C1632 0.956 . S
H1645 C1632 0.961 . S
H1646 C1632 0.961 1_655 S
H1647 C1633 0.958 . S
H1648 C1633 0.961 . S
H1649 C1633 0.960 . S
C1650 C1651 1.391 . S
C1650 C1652 1.394 . S
C1650 H1666 0.931 . S
C1651 C1650 1.391 . S
C1651 C1655 1.376 . S
C1652 C1650 1.394 . S
C1652 C1653 1.369 . S
C1652 C1656 1.531 . S
C1653 C1652 1.369 . S
C1653 C1654 1.410 . S
C1653 C1661 1.503 . S
C1654 C1653 1.410 . S
C1654 C1655 1.392 . S
C1654 C1657 1.511 . S
C1655 C1651 1.376 . S
C1655 C1654 1.392 . S
C1655 H1667 0.929 . S
C1656 C1652 1.531 . S
C1656 H1668 0.960 . S
C1656 H1669 0.962 . S
C1656 H1670 0.960 . S
C1657 C1654 1.511 . S
C1657 H1671 0.961 . S
C1657 H1672 0.961 . S
C1657 H1673 0.961 . S
C1658 C1659 1.370 . S
C1658 C1660 1.363 . S
C1658 H1674 0.931 . S
C1659 C1658 1.370 . S
C1659 C1663 1.408 . S
C1660 C1658 1.363 . S
C1660 C1661 1.370 . S
C1660 C1664 1.524 . S
C1661 C1653 1.503 . S
C1661 C1660 1.370 . S
C1661 C1662 1.403 . S
C1662 C1661 1.403 . S
C1662 C1663 1.404 . S
C1662 C1665 1.539 . S
C1663 C1659 1.408 . S
C1663 C1662 1.404 . S
C1663 H1675 0.930 . S
C1664 C1660 1.524 . S
C1664 H1676 0.956 . S
C1664 H1677 0.961 . S
C1664 H1678 0.961 . S
C1665 C1662 1.539 . S
C1665 H1679 0.958 . S
C1665 H1680 0.961 . S
C1665 H1681 0.960 . S
H1666 C1650 0.931 . S
H1667 C1655 0.929 . S
H1668 C1656 0.960 . S
H1669 C1656 0.962 . S
H1670 C1656 0.960 . S
H1671 C1657 0.961 . S
H1672 C1657 0.961 . S
H1673 C1657 0.961 . S
H1674 C1658 0.931 . S
H1675 C1663 0.930 . S
H1676 C1664 0.956 . S
H1677 C1664 0.961 . S
H1678 C1664 0.961 . S
H1679 C1665 0.958 . S
H1680 C1665 0.961 . S
H1681 C1665 0.960 . S
C1682 C1683 1.391 . S
C1682 C1684 1.394 . S
C1682 H1698 0.931 . S
C1683 C1682 1.391 . S
C1683 C1687 1.376 . S
C1684 C1682 1.394 . S
C1684 C1685 1.369 . S
C1684 C1688 1.531 . S
C1685 C1684 1.369 . S
C1685 C1686 1.410 . S
C1685 C1693 1.503 . S
C1686 C1685 1.410 . S
C1686 C1687 1.392 . S
C1686 C1689 1.511 . S
C1687 C1683 1.376 . S
C1687 C1686 1.392 . S
C1687 H1699 0.929 . S
C1688 C1684 1.531 . S
C1688 H1700 0.960 . S
C1688 H1701 0.962 . S
C1688 H1702 0.960 . S
C1689 C1686 1.511 . S
C1689 H1703 0.961 . S
C1689 H1704 0.961 . S
C1689 H1705 0.961 . S
C1690 C1691 1.370 . S
C1690 C1692 1.363 . S
C1690 H1706 0.931 . S
C1691 C1690 1.370 . S
C1691 C1695 1.408 . S
C1692 C1690 1.363 . S
C1692 C1693 1.370 . S
C1692 C1696 1.524 . S
C1693 C1685 1.503 . S
C1693 C1692 1.370 . S
C1693 C1694 1.403 . S
C1694 C1693 1.403 . S
C1694 C1695 1.404 . S
C1694 C1697 1.539 . S
C1695 C1691 1.408 . S
C1695 C1694 1.404 . S
C1695 H1707 0.930 . S
C1696 C1692 1.524 . S
C1696 H1708 0.956 . S
C1696 H1709 0.961 . S
C1696 H1710 0.961 . S
C1697 C1694 1.539 . S
C1697 H1711 0.958 . S
C1697 H1712 0.961 . S
C1697 H1713 0.960 . S
H1698 C1682 0.931 . S
H1699 C1687 0.929 . S
H1700 C1688 0.960 . S
H1701 C1688 0.962 . S
H1702 C1688 0.960 . S
H1703 C1689 0.961 . S
H1704 C1689 0.961 . S
H1705 C1689 0.961 . S
H1706 C1690 0.931 . S
H1707 C1695 0.930 . S
H1708 C1696 0.956 . S
H1709 C1696 0.961 . S
H1710 C1696 0.961 . S
H1711 C1697 0.958 . S
H1712 C1697 0.961 . S
H1713 C1697 0.960 . S
C1714 C1715 1.391 . S
C1714 C1716 1.394 . S
C1714 H1730 0.931 . S
C1715 C1714 1.391 . S
C1715 C1719 1.376 . S
C1716 C1714 1.394 . S
C1716 C1717 1.369 . S
C1716 C1720 1.531 . S
C1717 C1716 1.369 . S
C1717 C1718 1.410 . S
C1717 C1725 1.503 . S
C1718 C1717 1.410 . S
C1718 C1719 1.392 . S
C1718 C1721 1.511 . S
C1719 C1715 1.376 . S
C1719 C1718 1.392 . S
C1719 H1731 0.929 . S
C1720 C1716 1.531 . S
C1720 H1732 0.960 . S
C1720 H1733 0.962 . S
C1720 H1734 0.960 . S
C1721 C1718 1.511 . S
C1721 H1735 0.961 . S
C1721 H1736 0.961 . S
C1721 H1737 0.961 . S
C1722 C1723 1.370 . S
C1722 C1724 1.363 . S
C1722 H1738 0.931 . S
C1723 C1722 1.370 . S
C1723 C1727 1.408 . S
C1724 C1722 1.363 . S
C1724 C1725 1.370 . S
C1724 C1728 1.524 . S
C1725 C1717 1.503 . S
C1725 C1724 1.370 . S
C1725 C1726 1.403 . S
C1726 C1725 1.403 . S
C1726 C1727 1.404 . S
C1726 C1729 1.539 . S
C1727 C1723 1.408 . S
C1727 C1726 1.404 . S
C1727 H1739 0.930 . S
C1728 C1724 1.524 . S
C1728 H1740 0.956 . S
C1728 H1741 0.961 . S
C1728 H1742 0.961 . S
C1729 C1726 1.539 . S
C1729 H1743 0.958 . S
C1729 H1744 0.961 . S
C1729 H1745 0.960 . S
H1730 C1714 0.931 . S
H1731 C1719 0.929 . S
H1732 C1720 0.960 . S
H1733 C1720 0.962 . S
H1734 C1720 0.960 . S
H1735 C1721 0.961 . S
H1736 C1721 0.961 . S
H1737 C1721 0.961 . S
H1738 C1722 0.931 . S
H1739 C1727 0.930 . S
H1740 C1728 0.956 . S
H1741 C1728 0.961 . S
H1742 C1728 0.961 . S
H1743 C1729 0.958 . S
H1744 C1729 0.961 . S
H1745 C1729 0.960 . S
C1746 C1747 1.391 . S
C1746 C1748 1.394 . S
C1746 H1762 0.931 . S
C1747 C1746 1.391 . S
C1747 C1751 1.376 . S
C1748 C1746 1.394 . S
C1748 C1749 1.369 . S
C1748 C1752 1.531 . S
C1749 C1748 1.369 . S
C1749 C1750 1.410 . S
C1749 C1757 1.503 . S
C1750 C1749 1.410 . S
C1750 C1751 1.392 . S
C1750 C1753 1.511 . S
C1751 C1747 1.376 . S
C1751 C1750 1.392 . S
C1751 H1763 0.929 . S
C1752 C1748 1.531 . S
C1752 H1764 0.960 . S
C1752 H1765 0.962 . S
C1752 H1766 0.960 . S
C1753 C1750 1.511 . S
C1753 H1767 0.961 . S
C1753 H1768 0.961 . S
C1753 H1769 0.961 . S
C1754 C1755 1.370 . S
C1754 C1756 1.363 . S
C1754 H1770 0.931 . S
C1755 C1754 1.370 . S
C1755 C1759 1.408 . S
C1756 C1754 1.363 . S
C1756 C1757 1.370 . S
C1756 C1760 1.524 . S
C1757 C1749 1.503 . S
C1757 C1756 1.370 . S
C1757 C1758 1.403 . S
C1758 C1757 1.403 . S
C1758 C1759 1.404 . S
C1758 C1761 1.539 . S
C1759 C1755 1.408 . S
C1759 C1758 1.404 . S
C1759 H1771 0.930 . S
C1760 C1756 1.524 . S
C1760 H1772 0.956 . S
C1760 H1773 0.961 . S
C1760 H1774 0.961 . S
C1761 C1758 1.539 . S
C1761 H1775 0.958 . S
C1761 H1776 0.961 . S
C1761 H1777 0.960 . S
H1762 C1746 0.931 . S
H1763 C1751 0.929 . S
H1764 C1752 0.960 . S
H1765 C1752 0.962 . S
H1766 C1752 0.960 . S
H1767 C1753 0.961 . S
H1768 C1753 0.961 . S
H1769 C1753 0.961 . S
H1770 C1754 0.931 . S
H1771 C1759 0.930 . S
H1772 C1760 0.956 . S
H1773 C1760 0.961 . S
H1774 C1760 0.961 . S
H1775 C1761 0.958 . S
H1776 C1761 0.961 . S
H1777 C1761 0.960 . S
C1778 C1779 1.391 . S
C1778 C1780 1.394 . S
C1778 H1794 0.931 . S
C1779 C1778 1.391 . S
C1779 C1783 1.376 . S
C1780 C1778 1.394 . S
C1780 C1781 1.369 . S
C1780 C1784 1.531 . S
C1781 C1780 1.369 . S
C1781 C1782 1.410 . S
C1781 C1789 1.503 . S
C1782 C1781 1.410 . S
C1782 C1783 1.392 . S
C1782 C1785 1.511 . S
C1783 C1779 1.376 . S
C1783 C1782 1.392 . S
C1783 H1795 0.929 . S
C1784 C1780 1.531 . S
C1784 H1796 0.960 . S
C1784 H1797 0.962 . S
C1784 H1798 0.960 . S
C1785 C1782 1.511 . S
C1785 H1799 0.961 . S
C1785 H1800 0.961 . S
C1785 H1801 0.961 . S
C1786 C1787 1.370 . S
C1786 C1788 1.363 . S
C1786 H1802 0.931 . S
C1787 C1786 1.370 . S
C1787 C1791 1.408 . S
C1788 C1786 1.363 . S
C1788 C1789 1.370 . S
C1788 C1792 1.524 . S
C1789 C1781 1.503 . S
C1789 C1788 1.370 . S
C1789 C1790 1.403 . S
C1790 C1789 1.403 . S
C1790 C1791 1.404 . S
C1790 C1793 1.539 . S
C1791 C1787 1.408 . S
C1791 C1790 1.404 . S
C1791 H1803 0.930 . S
C1792 C1788 1.524 . S
C1792 H1804 0.956 . S
C1792 H1805 0.961 . S
C1792 H1806 0.961 . S
C1793 C1790 1.539 . S
C1793 H1807 0.958 . S
C1793 H1808 0.961 . S
C1793 H1809 0.960 . S
H1794 C1778 0.931 . S
H1795 C1783 0.929 . S
H1796 C1784 0.960 . S
H1797 C1784 0.962 . S
H1798 C1784 0.960 . S
H1799 C1785 0.961 . S
H1800 C1785 0.961 . S
H1801 C1785 0.961 . S
H1802 C1786 0.931 . S
H1803 C1791 0.930 . S
H1804 C1792 0.956 . S
H1805 C1792 0.961 . S
H1806 C1792 0.961 . S
H1807 C1793 0.958 . S
H1808 C1793 0.961 . S
H1809 C1793 0.960 . S
C1810 C1811 1.391 . S
C1810 C1812 1.394 . S
C1810 H1826 0.931 . S
C1811 C1810 1.391 . S
C1811 C1815 1.376 . S
C1812 C1810 1.394 . S
C1812 C1813 1.369 . S
C1812 C1816 1.531 . S
C1813 C1812 1.369 . S
C1813 C1814 1.410 . S
C1813 C1821 1.503 . S
C1814 C1813 1.410 . S
C1814 C1815 1.392 . S
C1814 C1817 1.511 . S
C1815 C1811 1.376 . S
C1815 C1814 1.392 . S
C1815 H1827 0.929 . S
C1816 C1812 1.531 . S
C1816 H1828 0.960 . S
C1816 H1829 0.962 . S
C1816 H1830 0.960 . S
C1817 C1814 1.511 . S
C1817 H1831 0.961 . S
C1817 H1832 0.961 . S
C1817 H1833 0.961 . S
C1818 C1819 1.370 . S
C1818 C1820 1.363 . S
C1818 H1834 0.931 . S
C1819 C1818 1.370 . S
C1819 C1823 1.408 . S
C1820 C1818 1.363 . S
C1820 C1821 1.370 . S
C1820 C1824 1.524 . S
C1821 C1813 1.503 . S
C1821 C1820 1.370 . S
C1821 C1822 1.403 . S
C1822 C1821 1.403 . S
C1822 C1823 1.404 . S
C1822 C1825 1.539 . S
C1823 C1819 1.408 . S
C1823 C1822 1.404 . S
C1823 H1835 0.930 . S
C1824 C1820 1.524 . S
C1824 H1836 0.956 . S
C1824 H1837 0.961 . S
C1824 H1838 0.961 . S
C1825 C1822 1.539 . S
C1825 H1839 0.958 . S
C1825 H1840 0.961 . S
C1825 H1841 0.960 . S
H1826 C1810 0.931 . S
H1827 C1815 0.929 . S
H1828 C1816 0.960 . S
H1829 C1816 0.962 . S
H1830 C1816 0.960 . S
H1831 C1817 0.961 . S
H1832 C1817 0.961 . S
H1833 C1817 0.961 . S
H1834 C1818 0.931 . S
H1835 C1823 0.930 . S
H1836 C1824 0.956 . S
H1837 C1824 0.961 . S
H1838 C1824 0.961 . S
H1839 C1825 0.958 . S
H1840 C1825 0.961 . S
H1841 C1825 0.960 . S
C1842 C1843 1.391 . S
C1842 C1844 1.394 . S
C1842 H1858 0.931 . S
C1843 C1842 1.391 . S
C1843 C1847 1.376 . S
C1844 C1842 1.394 . S
C1844 C1845 1.369 . S
C1844 C1848 1.531 . S
C1845 C1844 1.369 . S
C1845 C1846 1.410 . S
C1845 C1853 1.503 . S
C1846 C1845 1.410 . S
C1846 C1847 1.392 . S
C1846 C1849 1.511 . S
C1847 C1843 1.376 . S
C1847 C1846 1.392 . S
C1847 H1859 0.929 . S
C1848 C1844 1.531 . S
C1848 H1860 0.960 . S
C1848 H1861 0.962 . S
C1848 H1862 0.960 . S
C1849 C1846 1.511 . S
C1849 H1863 0.961 . S
C1849 H1864 0.961 . S
C1849 H1865 0.961 . S
C1850 C1851 1.370 . S
C1850 C1852 1.363 . S
C1850 H1866 0.931 . S
C1851 C1850 1.370 . S
C1851 C1855 1.408 . S
C1852 C1850 1.363 . S
C1852 C1853 1.370 . S
C1852 C1856 1.524 . S
C1853 C1845 1.503 . S
C1853 C1852 1.370 . S
C1853 C1854 1.403 . S
C1854 C1853 1.403 . S
C1854 C1855 1.404 . S
C1854 C1857 1.539 . S
C1855 C1851 1.408 . S
C1855 C1854 1.404 . S
C1855 H1867 0.930 . S
C1856 C1852 1.524 . S
C1856 H1868 0.956 . S
C1856 H1869 0.961 . S
C1856 H1870 0.961 . S
C1857 C1854 1.539 . S
C1857 H1871 0.958 . S
C1857 H1872 0.961 . S
C1857 H1873 0.960 . S
H1858 C1842 0.931 . S
H1859 C1847 0.929 . S
H1860 C1848 0.960 . S
H1861 C1848 0.962 . S
H1862 C1848 0.960 . S
H1863 C1849 0.961 . S
H1864 C1849 0.961 . S
H1865 C1849 0.961 . S
H1866 C1850 0.931 . S
H1867 C1855 0.930 . S
H1868 C1856 0.956 . S
H1869 C1856 0.961 . S
H1870 C1856 0.961 . S
H1871 C1857 0.958 . S
H1872 C1857 0.961 . S
H1873 C1857 0.960 . S
C1874 C1875 1.391 . S
C1874 C1876 1.394 . S
C1874 H1890 0.931 . S
C1875 C1874 1.391 . S
C1875 C1879 1.376 . S
C1876 C1874 1.394 . S
C1876 C1877 1.369 . S
C1876 C1880 1.531 . S
C1877 C1876 1.369 . S
C1877 C1878 1.410 . S
C1877 C1885 1.503 . S
C1878 C1877 1.410 . S
C1878 C1879 1.392 . S
C1878 C1881 1.511 . S
C1879 C1875 1.376 . S
C1879 C1878 1.392 . S
C1879 H1891 0.929 . S
C1880 C1876 1.531 . S
C1880 H1892 0.960 . S
C1880 H1893 0.962 . S
C1880 H1894 0.960 . S
C1881 C1878 1.511 . S
C1881 H1895 0.961 . S
C1881 H1896 0.961 . S
C1881 H1897 0.961 . S
C1882 C1883 1.370 . S
C1882 C1884 1.363 . S
C1882 H1898 0.931 . S
C1883 C1882 1.370 . S
C1883 C1887 1.408 . S
C1884 C1882 1.363 . S
C1884 C1885 1.370 . S
C1884 C1888 1.524 . S
C1885 C1877 1.503 . S
C1885 C1884 1.370 . S
C1885 C1886 1.403 . S
C1886 C1885 1.403 . S
C1886 C1887 1.404 . S
C1886 C1889 1.539 . S
C1887 C1883 1.408 . S
C1887 C1886 1.404 . S
C1887 H1899 0.930 . S
C1888 C1884 1.524 . S
C1888 H1900 0.956 . S
C1888 H1901 0.961 . S
C1888 H1902 0.961 . S
C1889 C1886 1.539 . S
C1889 H1903 0.958 . S
C1889 H1904 0.961 . S
C1889 H1905 0.960 . S
H1890 C1874 0.931 . S
H1891 C1879 0.929 . S
H1892 C1880 0.960 . S
H1893 C1880 0.962 . S
H1894 C1880 0.960 . S
H1895 C1881 0.961 . S
H1896 C1881 0.961 . S
H1897 C1881 0.961 . S
H1898 C1882 0.931 . S
H1899 C1887 0.930 . S
H1900 C1888 0.956 . S
H1901 C1888 0.961 . S
H1902 C1888 0.961 . S
H1903 C1889 0.958 . S
H1904 C1889 0.961 . S
H1905 C1889 0.960 . S
C1906 C1907 1.391 . S
C1906 C1908 1.394 . S
C1906 H1922 0.931 . S
C1907 C1906 1.391 . S
C1907 C1911 1.376 . S
C1908 C1906 1.394 . S
C1908 C1909 1.369 . S
C1908 C1912 1.531 . S
C1909 C1908 1.369 . S
C1909 C1910 1.410 . S
C1909 C1917 1.503 . S
C1910 C1909 1.410 . S
C1910 C1911 1.392 . S
C1910 C1913 1.511 . S
C1911 C1907 1.376 . S
C1911 C1910 1.392 . S
C1911 H1923 0.929 . S
C1912 C1908 1.531 . S
C1912 H1924 0.960 . S
C1912 H1925 0.962 . S
C1912 H1926 0.960 . S
C1913 C1910 1.511 . S
C1913 H1927 0.961 . S
C1913 H1928 0.961 . S
C1913 H1929 0.961 . S
C1914 C1915 1.370 . S
C1914 C1916 1.363 . S
C1914 H1930 0.931 . S
C1915 C1914 1.370 . S
C1915 C1919 1.408 . S
C1916 C1914 1.363 . S
C1916 C1917 1.370 . S
C1916 C1920 1.524 . S
C1917 C1909 1.503 . S
C1917 C1916 1.370 . S
C1917 C1918 1.403 . S
C1918 C1917 1.403 . S
C1918 C1919 1.404 . S
C1918 C1921 1.539 . S
C1919 C1915 1.408 . S
C1919 C1918 1.404 . S
C1919 H1931 0.930 . S
C1920 C1916 1.524 . S
C1920 H1932 0.956 . S
C1920 H1933 0.961 . S
C1920 H1934 0.961 . S
C1921 C1918 1.539 . S
C1921 H1935 0.958 . S
C1921 H1936 0.961 . S
C1921 H1937 0.960 . S
H1922 C1906 0.931 . S
H1923 C1911 0.929 . S
H1924 C1912 0.960 . S
H1925 C1912 0.962 . S
H1926 C1912 0.960 . S
H1927 C1913 0.961 . S
H1928 C1913 0.961 . S
H1929 C1913 0.961 . S
H1930 C1914 0.931 . S
H1931 C1919 0.930 . S
H1932 C1920 0.956 . S
H1933 C1920 0.961 . S
H1934 C1920 0.961 . S
H1935 C1921 0.958 . S
H1936 C1921 0.961 . S
H1937 C1921 0.960 . S
C1938 C1939 1.391 . S
C1938 C1940 1.394 . S
C1938 H1954 0.931 . S
C1939 C1938 1.391 . S
C1939 C1943 1.376 . S
C1940 C1938 1.394 . S
C1940 C1941 1.369 . S
C1940 C1944 1.531 . S
C1941 C1940 1.369 . S
C1941 C1942 1.410 . S
C1941 C1949 1.503 . S
C1942 C1941 1.410 . S
C1942 C1943 1.392 . S
C1942 C1945 1.511 . S
C1943 C1939 1.376 . S
C1943 C1942 1.392 . S
C1943 H1955 0.929 . S
C1944 C1940 1.531 . S
C1944 H1956 0.960 . S
C1944 H1957 0.962 . S
C1944 H1958 0.960 . S
C1945 C1942 1.511 . S
C1945 H1959 0.961 . S
C1945 H1960 0.961 . S
C1945 H1961 0.961 . S
C1946 C1947 1.370 . S
C1946 C1948 1.363 . S
C1946 H1962 0.931 . S
C1947 C1946 1.370 . S
C1947 C1951 1.408 . S
C1948 C1946 1.363 . S
C1948 C1949 1.370 . S
C1948 C1952 1.524 . S
C1949 C1941 1.503 . S
C1949 C1948 1.370 . S
C1949 C1950 1.403 . S
C1950 C1949 1.403 . S
C1950 C1951 1.404 . S
C1950 C1953 1.539 . S
C1951 C1947 1.408 . S
C1951 C1950 1.404 . S
C1951 H1963 0.930 . S
C1952 C1948 1.524 . S
C1952 H1964 0.956 . S
C1952 H1965 0.961 . S
C1952 H1966 0.961 . S
C1953 C1950 1.539 . S
C1953 H1967 0.958 . S
C1953 H1968 0.961 . S
C1953 H1969 0.960 . S
H1954 C1938 0.931 . S
H1955 C1943 0.929 . S
H1956 C1944 0.960 . S
H1957 C1944 0.962 . S
H1958 C1944 0.960 . S
H1959 C1945 0.961 . S
H1960 C1945 0.961 . S
H1961 C1945 0.961 . S
H1962 C1946 0.931 . S
H1963 C1951 0.930 . S
H1964 C1952 0.956 . S
H1965 C1952 0.961 . S
H1966 C1952 0.961 . S
H1967 C1953 0.958 . S
H1968 C1953 0.961 . S
H1969 C1953 0.960 . S
C1970 C1971 1.391 . S
C1970 C1972 1.394 . S
C1970 H1986 0.931 . S
C1971 C1970 1.391 . S
C1971 C1975 1.376 . S
C1972 C1970 1.394 . S
C1972 C1973 1.369 . S
C1972 C1976 1.531 . S
C1973 C1972 1.369 . S
C1973 C1974 1.410 . S
C1973 C1981 1.503 . S
C1974 C1973 1.410 . S
C1974 C1975 1.392 . S
C1974 C1977 1.511 . S
C1975 C1971 1.376 . S
C1975 C1974 1.392 . S
C1975 H1987 0.929 . S
C1976 C1972 1.531 . S
C1976 H1988 0.960 . S
C1976 H1989 0.962 . S
C1976 H1990 0.960 . S
C1977 C1974 1.511 . S
C1977 H1991 0.961 . S
C1977 H1992 0.961 . S
C1977 H1993 0.961 . S
C1978 C1979 1.370 . S
C1978 C1980 1.363 . S
C1978 H1994 0.931 . S
C1979 C1978 1.370 . S
C1979 C1983 1.408 . S
C1980 C1978 1.363 . S
C1980 C1981 1.370 . S
C1980 C1984 1.524 . S
C1981 C1973 1.503 . S
C1981 C1980 1.370 . S
C1981 C1982 1.403 . S
C1982 C1981 1.403 . S
C1982 C1983 1.404 . S
C1982 C1985 1.539 . S
C1983 C1979 1.408 . S
C1983 C1982 1.404 . S
C1983 H1995 0.930 . S
C1984 C1980 1.524 . S
C1984 H1996 0.956 . S
C1984 H1997 0.961 . S
C1984 H1998 0.961 . S
C1985 C1982 1.539 . S
C1985 H1999 0.958 . S
C1985 H2000 0.961 . S
C1985 H2001 0.960 . S
H1986 C1970 0.931 . S
H1987 C1975 0.929 . S
H1988 C1976 0.960 . S
H1989 C1976 0.962 . S
H1990 C1976 0.960 . S
H1991 C1977 0.961 . S
H1992 C1977 0.961 . S
H1993 C1977 0.961 . S
H1994 C1978 0.931 . S
H1995 C1983 0.930 . S
H1996 C1984 0.956 . S
H1997 C1984 0.961 . S
H1998 C1984 0.961 . S
H1999 C1985 0.958 . S
H2000 C1985 0.961 . S
H2001 C1985 0.960 . S
C2002 C2003 1.391 . S
C2002 C2004 1.394 . S
C2002 H2018 0.931 . S
C2003 C2002 1.391 . S
C2003 C2007 1.376 . S
C2004 C2002 1.394 . S
C2004 C2005 1.369 . S
C2004 C2008 1.531 . S
C2005 C2004 1.369 . S
C2005 C2006 1.410 . S
C2005 C2013 1.503 . S
C2006 C2005 1.410 . S
C2006 C2007 1.392 . S
C2006 C2009 1.511 . S
C2007 C2003 1.376 . S
C2007 C2006 1.392 . S
C2007 H2019 0.929 . S
C2008 C2004 1.531 . S
C2008 H2020 0.960 . S
C2008 H2021 0.962 . S
C2008 H2022 0.960 . S
C2009 C2006 1.511 . S
C2009 H2023 0.961 . S
C2009 H2024 0.961 . S
C2009 H2025 0.961 . S
C2010 C2011 1.370 . S
C2010 C2012 1.363 . S
C2010 H2026 0.931 . S
C2011 C2010 1.370 . S
C2011 C2015 1.408 . S
C2012 C2010 1.363 . S
C2012 C2013 1.370 . S
C2012 C2016 1.524 . S
C2013 C2005 1.503 . S
C2013 C2012 1.370 . S
C2013 C2014 1.403 . S
C2014 C2013 1.403 . S
C2014 C2015 1.404 . S
C2014 C2017 1.539 . S
C2015 C2011 1.408 . S
C2015 C2014 1.404 . S
C2015 H2027 0.930 . S
C2016 C2012 1.524 . S
C2016 H2028 0.956 . S
C2016 H2029 0.961 . S
C2016 H2030 0.961 . S
C2017 C2014 1.539 . S
C2017 H2031 0.958 . S
C2017 H2032 0.961 . S
C2017 H2033 0.960 . S
H2018 C2002 0.931 . S
H2019 C2007 0.929 . S
H2020 C2008 0.960 . S
H2021 C2008 0.962 . S
H2022 C2008 0.960 . S
H2023 C2009 0.961 . S
H2024 C2009 0.961 . S
H2025 C2009 0.961 . S
H2026 C2010 0.931 . S
H2027 C2015 0.930 . S
H2028 C2016 0.956 . S
H2029 C2016 0.961 . S
H2030 C2016 0.961 . S
H2031 C2017 0.958 . S
H2032 C2017 0.961 . S
H2033 C2017 0.960 . S
C595 N335 1.814 . S
C603 N5 1.795 . S
C627 N38 1.783 . S
C635 N368 1.797 . S
C659 N302 1.765 . S
C667 N71 1.791 . S
C691 N467 1.793 . S
C699 N104 1.798 . S
C723 N137 1.758 . S
C731 N401 1.768 . S
C755 N434 1.757 . S
C763 N170 1.788 . S
C787 C193 1.755 . S
C795 C490 1.781 . S
C819 C424 1.768 . S
C827 C127 1.770 . S
C851 C457 1.769 . S
C859 C160 1.779 . S
C883 C61 1.781 . S
C891 C358 1.767 . S
C915 C94 1.755 . S
C923 C391 1.781 . S
C947 C28 1.780 . S
C955 C325 1.775 . S
C979 N533 1.750 . S
C987 N203 1.769 . S
C1011 N566 1.782 . S
C1019 N236 1.772 . S
C1043 N500 1.754 . S
C1051 N269 1.769 . S
C1075 C259 1.756 . S
C1083 C556 1.781 . S
C1107 C589 1.783 . S
C1115 C292 1.767 . S
C1139 C226 1.760 . S
C1147 C523 1.781 . S
C1171 C17 1.298 . S
C1179 C578 1.315 . S
C1203 C50 1.317 . S
C1211 C512 1.315 . S
C1235 C83 1.318 . S
C1243 C545 1.308 . S
C1267 C248 1.311 . S
C1275 C116 1.309 . S
C1299 C149 1.307 . S
C1307 C281 1.318 . S
C1331 C182 1.322 . S
C1339 C215 1.312 . S
C1363 C314 1.316 . S
C1371 C446 1.308 . S
C1395 C347 1.322 . S
C1403 C479 1.310 . S
C1427 C380 1.298 . S
C1435 C413 1.316 . S
C1459 N80 1.490 1_545 S
C1467 C8 1.447 . S
C1491 C41 1.478 . S
C1499 N14 1.458 1_655 S
C1523 N47 1.476 . S
C1531 C74 1.453 . S
C1555 N146 1.452 1_455 S
C1563 C107 1.469 . S
C1587 C140 1.449 . S
C1595 N179 1.477 . S
C1619 N113 1.457 1_565 S
C1627 C173 1.457 . S
C1651 C206 1.438 . S
C1659 N278 1.480 . S
C1683 N212 1.483 . S
C1691 C239 1.449 . S
C1715 C272 1.430 . S
C1723 N245 1.482 . S
C1747 C305 1.463 . S
C1755 N344 1.469 . S
C1779 N377 1.450 . S
C1787 C338 1.469 . S
C1811 C371 1.480 . S
C1819 N311 1.465 . S
C1843 C404 1.438 . S
C1851 N476 1.480 . S
C1875 N410 1.487 . S
C1883 C437 1.450 . S
C1907 C470 1.449 . S
C1915 N443 1.477 . S
C1939 C503 1.448 . S
C1947 N542 1.477 . S
C1971 N575 1.490 . S
C1979 C536 1.447 . S
C2003 N509 1.449 . S
C2011 C569 1.469 . S
