# Generated by pormake.
# Topology yfl, (5)-cn, num edge types: 1
# Building blocks:
#     Node 0, Type 0, BuildingBlock: XOMCOT_clean_sbu_0, # of connection points: 5
#     Node 1, Type 0, BuildingBlock: XOMCOT_clean_sbu_0, # of connection points: 5
#     Node 2, Type 0, BuildingBlock: XOMCOT_clean_sbu_0, # of connection points: 5
#     Node 3, Type 0, BuildingBlock: XOMCOT_clean_sbu_0, # of connection points: 5
#     Node 4, Type 0, BuildingBlock: XOMCOT_clean_sbu_0, # of connection points: 5
#     Node 5, Type 0, BuildingBlock: XOMCOT_clean_sbu_0, # of connection points: 5
#     Node 6, Type 0, BuildingBlock: XOMCOT_clean_sbu_0, # of connection points: 5
#     Node 7, Type 0, BuildingBlock: XOMCOT_clean_sbu_0, # of connection points: 5
#     Node 8, Type 0, BuildingBlock: XOMCOT_clean_sbu_0, # of connection points: 5
#     Node 9, Type 0, BuildingBlock: XOMCOT_clean_sbu_0, # of connection points: 5
#     Node 10, Type 0, BuildingBlock: XOMCOT_clean_sbu_0, # of connection points: 5
#     Node 11, Type 0, BuildingBlock: XOMCOT_clean_sbu_0, # of connection points: 5
#     Node 12, Type 0, BuildingBlock: XOMCOT_clean_sbu_0, # of connection points: 5
#     Node 13, Type 0, BuildingBlock: XOMCOT_clean_sbu_0, # of connection points: 5
#     Node 14, Type 0, BuildingBlock: XOMCOT_clean_sbu_0, # of connection points: 5
#     Node 15, Type 0, BuildingBlock: XOMCOT_clean_sbu_0, # of connection points: 5
#     Edge 16, Type (0, 0), BuildingBlock: KIFKEQ_clean_linker_1, # of connection points: 2
#     Edge 17, Type (0, 0), BuildingBlock: KIFKEQ_clean_linker_1, # of connection points: 2
#     Edge 18, Type (0, 0), BuildingBlock: KIFKEQ_clean_linker_1, # of connection points: 2
#     Edge 19, Type (0, 0), BuildingBlock: KIFKEQ_clean_linker_1, # of connection points: 2
#     Edge 20, Type (0, 0), BuildingBlock: KIFKEQ_clean_linker_1, # of connection points: 2
#     Edge 21, Type (0, 0), BuildingBlock: KIFKEQ_clean_linker_1, # of connection points: 2
#     Edge 22, Type (0, 0), BuildingBlock: KIFKEQ_clean_linker_1, # of connection points: 2
#     Edge 23, Type (0, 0), BuildingBlock: KIFKEQ_clean_linker_1, # of connection points: 2
#     Edge 24, Type (0, 0), BuildingBlock: KIFKEQ_clean_linker_1, # of connection points: 2
#     Edge 25, Type (0, 0), BuildingBlock: KIFKEQ_clean_linker_1, # of connection points: 2
#     Edge 26, Type (0, 0), BuildingBlock: KIFKEQ_clean_linker_1, # of connection points: 2
#     Edge 27, Type (0, 0), BuildingBlock: KIFKEQ_clean_linker_1, # of connection points: 2
#     Edge 28, Type (0, 0), BuildingBlock: KIFKEQ_clean_linker_1, # of connection points: 2
#     Edge 29, Type (0, 0), BuildingBlock: KIFKEQ_clean_linker_1, # of connection points: 2
#     Edge 30, Type (0, 0), BuildingBlock: KIFKEQ_clean_linker_1, # of connection points: 2
#     Edge 31, Type (0, 0), BuildingBlock: KIFKEQ_clean_linker_1, # of connection points: 2
#     Edge 32, Type (0, 0), BuildingBlock: KIFKEQ_clean_linker_1, # of connection points: 2
#     Edge 33, Type (0, 0), BuildingBlock: KIFKEQ_clean_linker_1, # of connection points: 2
#     Edge 34, Type (0, 0), BuildingBlock: KIFKEQ_clean_linker_1, # of connection points: 2
#     Edge 35, Type (0, 0), BuildingBlock: KIFKEQ_clean_linker_1, # of connection points: 2
#     Edge 36, Type (0, 0), BuildingBlock: KIFKEQ_clean_linker_1, # of connection points: 2
#     Edge 37, Type (0, 0), BuildingBlock: KIFKEQ_clean_linker_1, # of connection points: 2
#     Edge 38, Type (0, 0), BuildingBlock: KIFKEQ_clean_linker_1, # of connection points: 2
#     Edge 39, Type (0, 0), BuildingBlock: KIFKEQ_clean_linker_1, # of connection points: 2
#     Edge 40, Type (0, 0), BuildingBlock: KIFKEQ_clean_linker_1, # of connection points: 2
#     Edge 41, Type (0, 0), BuildingBlock: KIFKEQ_clean_linker_1, # of connection points: 2
#     Edge 42, Type (0, 0), BuildingBlock: KIFKEQ_clean_linker_1, # of connection points: 2
#     Edge 43, Type (0, 0), BuildingBlock: KIFKEQ_clean_linker_1, # of connection points: 2
#     Edge 44, Type (0, 0), BuildingBlock: KIFKEQ_clean_linker_1, # of connection points: 2
#     Edge 45, Type (0, 0), BuildingBlock: KIFKEQ_clean_linker_1, # of connection points: 2
#     Edge 46, Type (0, 0), BuildingBlock: KIFKEQ_clean_linker_1, # of connection points: 2
#     Edge 47, Type (0, 0), BuildingBlock: KIFKEQ_clean_linker_1, # of connection points: 2
#     Edge 48, Type (0, 0), BuildingBlock: KIFKEQ_clean_linker_1, # of connection points: 2
#     Edge 49, Type (0, 0), BuildingBlock: KIFKEQ_clean_linker_1, # of connection points: 2
#     Edge 50, Type (0, 0), BuildingBlock: KIFKEQ_clean_linker_1, # of connection points: 2
#     Edge 51, Type (0, 0), BuildingBlock: KIFKEQ_clean_linker_1, # of connection points: 2
#     Edge 52, Type (0, 0), BuildingBlock: KIFKEQ_clean_linker_1, # of connection points: 2
#     Edge 53, Type (0, 0), BuildingBlock: KIFKEQ_clean_linker_1, # of connection points: 2
#     Edge 54, Type (0, 0), BuildingBlock: KIFKEQ_clean_linker_1, # of connection points: 2
#     Edge 55, Type (0, 0), BuildingBlock: KIFKEQ_clean_linker_1, # of connection points: 2
# Relax obj value: 0.348
# Max RMSD: 0.254
# Mean RMSD: 0.254
data_MOF--net-yfl--node1-XOMCOT_clean_sbu_0--edge1-KIFKEQ_clean_linker_1
_symmetry_space_group_name_H-M    P1
_symmetry_Int_Tables_number       1
_symmetry_cell_setting            triclinic
loop_
_symmetry_equiv_pos_as_xyz
'x, y, z'
_cell_length_a     30.691437
_cell_length_b     30.662493
_cell_length_c     104.23847
_cell_angle_alpha  89.968226
_cell_angle_beta   89.973518
_cell_angle_gamma 90.105694
loop_
_atom_site_label
_atom_site_type_symbol
_atom_site_fract_x
_atom_site_fract_y
_atom_site_fract_z
_atom_type_partial_charge
Co0 Co 0.03814 0.31257 0.31579 0.0
C1 C 0.10989 0.28041 0.33207 0.0
C2 C 0.13382 0.31167 0.31512 0.0
C3 C 0.16841 0.30423 0.32322 0.0
N4 N 0.09704 0.2961 0.32057 0.0
N5 N 0.15318 0.28509 0.33396 0.0
H6 H 0.08769 0.2697 0.33944 0.0
H7 H 0.13501 0.3312 0.30649 0.0
C8 C 0.07915 0.29025 0.28991 0.0
O9 O 0.09827 0.25506 0.29436 0.0
N10 N 0.9794 0.32991 0.31106 0.0
C11 C 0.946 0.341 0.31886 0.0
C12 C 0.91017 0.35121 0.31145 0.0
C13 C 0.96303 0.33275 0.29908 0.0
N14 N 0.92111 0.34556 0.29906 0.0
C15 C 0.01393 0.2309 0.32689 0.0
C16 C 0.98988 0.1898 0.3044 0.0
C17 C 0.98641 0.16693 0.316 0.0
C18 C -0.00181 0.18829 0.32736 0.0
C19 C 0.00557 0.23257 0.30438 0.0
N20 N 0.01898 0.25211 0.31548 0.0
H21 H 0.02077 0.24716 0.33582 0.0
H22 H 0.00579 0.24995 0.29541 0.0
H23 H 0.94712 0.34142 0.32921 0.0
H24 H 0.98112 0.32584 0.29044 0.0
O25 O 0.02599 0.32694 0.33365 0.0
O26 O 0.05353 0.37202 0.31903 0.0
O27 O 0.05487 0.31336 0.29714 0.0
C28 C 0.04129 0.36535 0.33079 0.0
H29 H 0.2013 0.3162 0.32187 0.0
H30 H 0.87845 0.36127 0.31488 0.0
H31 H 0.98068 0.17486 0.29539 0.0
H32 H 0.99442 0.17259 0.33661 0.0
Co33 Co 0.29786 0.95226 0.68694 0.0
C34 C 0.28948 0.87818 0.66886 0.0
C35 C 0.32106 0.85835 0.68617 0.0
C36 C 0.32095 0.82362 0.6778 0.0
N37 N 0.29985 0.8923 0.68076 0.0
N38 N 0.30126 0.8364 0.66691 0.0
H39 H 0.27613 0.89862 0.66141 0.0
H40 H 0.33828 0.8593 0.6952 0.0
C41 C 0.29001 0.90298 0.7119 0.0
O42 O 0.25881 0.87866 0.70705 0.0
N43 N 0.29744 0.01182 0.69287 0.0
C44 C 0.27167 0.04454 0.68879 0.0
C45 C 0.27939 0.08067 0.69634 0.0
C46 C 0.32105 0.02848 0.70257 0.0
N47 N 0.31047 0.07038 0.70497 0.0
C48 C 0.20896 0.9419 0.6788 0.0
C49 C 0.17185 0.96662 0.70185 0.0
C50 C 0.14478 0.95707 0.69142 0.0
C51 C 0.16375 0.94426 0.67982 0.0
C52 C 0.21688 0.96332 0.70047 0.0
N53 N 0.235 0.9503 0.68911 0.0
H54 H 0.2228 0.93554 0.66954 0.0
H55 H 0.23726 0.97297 0.70842 0.0
H56 H 0.24794 0.04182 0.68116 0.0
H57 H 0.34419 0.00975 0.70812 0.0
O58 O 0.30109 0.97357 0.66943 0.0
O59 O 0.35757 0.95868 0.68212 0.0
O60 O 0.30821 0.93254 0.70513 0.0
C61 C 0.34311 0.97209 0.67109 0.0
H62 H 0.33677 0.79248 0.67925 0.0
H63 H 0.26291 0.11177 0.69568 0.0
H64 H 0.15837 0.97736 0.71092 0.0
H65 H 0.14391 0.93822 0.67141 0.0
Co66 Co 0.95759 0.69762 0.31275 0.0
C67 C 0.88664 0.69487 0.33178 0.0
C68 C 0.87131 0.6571 0.31503 0.0
C69 C 0.8373 0.65362 0.32357 0.0
N70 N 0.90203 0.68305 0.32019 0.0
N71 N 0.847 0.67727 0.33413 0.0
H72 H 0.90472 0.71499 0.33844 0.0
H73 H 0.87363 0.6413 0.30578 0.0
C74 C 0.93884 0.71102 0.28464 0.0
O75 O 0.96359 0.74602 0.28432 0.0
N76 N 0.01374 0.7108 0.30504 0.0
C77 C 0.04226 0.74365 0.30712 0.0
C78 C 0.07749 0.73845 0.29904 0.0
C79 C 0.03263 0.68573 0.29599 0.0
N80 N 0.07128 0.70195 0.29209 0.0
C81 C 0.96228 0.78296 0.32346 0.0
C82 C 0.90096 0.82171 0.30778 0.0
C83 C 0.92426 0.84759 0.31649 0.0
C84 C 0.95429 0.82739 0.32466 0.0
C85 C 0.90979 0.77708 0.30699 0.0
N86 N 0.94239 0.75892 0.31414 0.0
H87 H 0.9858 0.76819 0.3298 0.0
H88 H 0.89024 0.75739 0.30064 0.0
H89 H 0.0386 0.76974 0.31393 0.0
H90 H 0.0175 0.65679 0.29204 0.0
O91 O 0.98521 0.68925 0.32934 0.0
O92 O 0.97562 0.63817 0.31447 0.0
O93 O 0.93157 0.69112 0.29518 0.0
C94 C 0.99024 0.64901 0.32571 0.0
H95 H 0.80775 0.63505 0.32206 0.0
H96 H 0.10554 0.75978 0.29838 0.0
H97 H 0.87626 0.83583 0.30164 0.0
H98 H 0.97281 0.84597 0.33161 0.0
Co99 Co 0.67332 0.04932 0.68541 0.0
C100 C 0.69382 0.121 0.66735 0.0
C101 C 0.66874 0.14582 0.68502 0.0
C102 C 0.67317 0.18003 0.67656 0.0
N103 N 0.6831 0.10878 0.67942 0.0
N104 N 0.68861 0.16413 0.66544 0.0
H105 H 0.70185 0.09857 0.65974 0.0
H106 H 0.65256 0.14766 0.69421 0.0
C107 C 0.69511 0.09519 0.71023 0.0
O108 O 0.72864 0.11465 0.70486 0.0
N109 N 0.66205 0.99038 0.69117 0.0
C110 C 0.67085 0.95305 0.68484 0.0
C111 C 0.66081 0.91819 0.69269 0.0
C112 C 0.64678 0.97785 0.70272 0.0
N113 N 0.64613 0.93413 0.70392 0.0
C114 C 0.76149 0.04206 0.67625 0.0
C115 C 0.79601 0.01111 0.699 0.0
C116 C 0.82362 0.01763 0.68849 0.0
C117 C 0.80594 0.03303 0.67698 0.0
C118 C 0.75191 0.02108 0.6979 0.0
N119 N 0.73534 0.03776 0.68676 0.0
H120 H 0.74812 0.05129 0.66713 0.0
H121 H 0.73101 0.0149 0.70603 0.0
H122 H 0.68502 0.95125 0.67535 0.0
H123 H 0.63723 1e-05 0.71027 0.0
O124 O 0.66314 0.03051 0.66791 0.0
O125 O 0.61294 0.05627 0.68134 0.0
O126 O 0.67051 0.06978 0.70377 0.0
C127 C 0.62275 0.0411 0.67006 0.0
H128 H 0.66233 0.21322 0.67808 0.0
H129 H 0.66599 0.88401 0.6906 0.0
H130 H 0.80841 -0.00132 0.70801 0.0
H131 H 0.82609 0.03701 0.66852 0.0
Co132 Co 0.04755 0.18021 0.93729 0.0
C133 C 0.12092 0.19698 0.91945 0.0
C134 C 0.1434 0.16842 0.93694 0.0
C135 C 0.17814 0.17171 0.92862 0.0
N136 N 0.10761 0.18569 0.93137 0.0
N137 N 0.16373 0.18943 0.91761 0.0
H138 H 0.09938 0.20761 0.9119 0.0
H139 H 0.14394 0.15139 0.94601 0.0
C140 C 0.09415 0.19523 0.96245 0.0
O141 O 0.1159 0.22821 0.95753 0.0
N142 N 0.98796 0.17314 0.94296 0.0
C143 C 0.95164 0.1885 0.93725 0.0
C144 C 0.91615 0.17832 0.94485 0.0
C145 C 0.97423 0.15368 0.95381 0.0
N146 N 0.93075 0.1568 0.95525 0.0
C147 C 0.04826 0.26986 0.92915 0.0
C148 C 0.01914 0.30388 0.95216 0.0
C149 C 0.02812 0.3322 0.94197 0.0
C150 C 0.04267 0.31478 0.93033 0.0
C151 C 0.02562 0.25925 0.95061 0.0
N152 N 0.04136 0.24281 0.93933 0.0
H153 H 0.05667 0.25695 0.91991 0.0
H154 H 0.01728 0.23781 0.95846 0.0
H155 H 0.95114 0.207 0.92842 0.0
H156 H -0.0045 0.13805 0.96065 0.0
O157 O 0.02783 0.17404 0.91972 0.0
O158 O 0.04914 0.11999 0.93255 0.0
O159 O 0.06746 0.17329 0.9556 0.0
C160 C 0.03455 0.13255 0.92144 0.0
H161 H 0.21058 0.15898 0.93019 0.0
H162 H 0.88266 0.1878 0.9432 0.0
H163 H 0.00716 0.31609 0.96125 0.0
H164 H 0.0483 0.33554 0.92208 0.0
Co165 Co 0.18533 0.93494 0.06405 0.0
C166 C 0.21125 0.86081 0.08075 0.0
C167 C 0.18087 0.83939 0.06339 0.0
C168 C 0.1866 0.80383 0.07123 0.0
N169 N 0.1973 0.87516 0.06919 0.0
N170 N 0.20542 0.81739 0.0822 0.0
H171 H 0.22101 0.88199 0.08848 0.0
H172 H 0.1628 0.83944 0.05449 0.0
C173 C 0.21122 0.89228 0.03902 0.0
O174 O 0.24355 0.8716 0.04459 0.0
N175 N 0.17217 0.99407 0.05903 0.0
C176 C 0.18301 0.03072 0.06539 0.0
C177 C 0.17259 0.06614 0.05785 0.0
C178 C 0.15498 0.0075 0.04782 0.0
N179 N 0.15518 0.05143 0.04677 0.0
C180 C 0.2686 0.95275 0.07542 0.0
C181 C 0.30778 0.98316 0.05326 0.0
C182 C 0.33105 0.98457 0.06479 0.0
C183 C 0.311 0.96917 0.07598 0.0
C184 C 0.2654 0.96686 0.05315 0.0
N185 N 0.24665 0.95065 0.06406 0.0
H186 H 0.25283 0.94382 0.08426 0.0
H187 H 0.24709 0.96948 0.04436 0.0
H188 H 0.19889 0.03157 0.07465 0.0
H189 H 0.14444 0.98551 0.04034 0.0
O190 O 0.17024 0.94953 0.08162 0.0
O191 O 0.12478 0.92357 0.06684 0.0
O192 O 0.18666 0.91786 0.0454 0.0
C193 C 0.13113 0.93686 0.07852 0.0
H194 H 0.17547 0.77102 0.06925 0.0
H195 H 0.17826 0.09998 0.06027 0.0
H196 H 0.32154 -0.00378 0.04449 0.0
H197 H 0.32769 0.97036 0.08513 0.0
Co198 Co 0.94579 0.8055 0.93803 0.0
C199 C 0.8732 0.78694 0.92003 0.0
C200 C 0.84931 0.81233 0.93778 0.0
C201 C 0.81471 0.80774 0.92949 0.0
N202 N 0.88603 0.79788 0.93202 0.0
N203 N 0.82997 0.79201 0.91832 0.0
H204 H 0.89521 0.77816 0.91238 0.0
H205 H 0.84777 0.82844 0.94697 0.0
C206 C 0.89976 0.7883 0.96314 0.0
O207 O 0.88255 0.75234 0.9585 0.0
N208 N 0.00518 0.81447 0.94384 0.0
C209 C 0.04193 0.80543 0.93726 0.0
C210 C 0.07738 0.81439 0.94493 0.0
C211 C 0.01875 0.82856 0.95544 0.0
N212 N 0.06259 0.82851 0.95636 0.0
C213 C 0.948 0.71632 0.92969 0.0
C214 C 0.97863 0.68219 0.95253 0.0
C215 C 0.97017 0.65407 0.94226 0.0
C216 C 0.95495 0.67157 0.9307 0.0
C217 C 0.97075 0.72669 0.95114 0.0
N218 N 0.95421 0.74312 0.93996 0.0
H219 H 0.93891 0.72936 0.92052 0.0
H220 H 0.97814 0.74795 0.9591 0.0
H221 H 0.043 0.79213 0.92766 0.0
H222 H -0.00274 0.83792 0.96318 0.0
O223 O 0.96548 0.81257 0.92048 0.0
O224 O 0.9421 0.8657 0.9333 0.0
O225 O 0.92469 0.81194 0.95621 0.0
C226 C 0.95714 0.85376 0.92218 0.0
H227 H 0.78158 0.81832 0.9312 0.0
H228 H 0.11129 0.80919 0.94252 0.0
H229 H 0.99101 0.66989 0.96156 0.0
H230 H 0.94964 0.651 0.9224 0.0
Co231 Co 0.79606 0.04458 0.06447 0.0
C232 C 0.79592 0.11438 0.08371 0.0
C233 C 0.83188 0.13319 0.06691 0.0
C234 C 0.83349 0.16691 0.07563 0.0
N235 N 0.8082 0.1005 0.07201 0.0
N236 N 0.81098 0.15489 0.08618 0.0
H237 H 0.77649 0.09509 0.09027 0.0
H238 H 0.84759 0.13232 0.05762 0.0
C239 C 0.78088 0.06305 0.03646 0.0
O240 O 0.74645 0.03753 0.03635 0.0
N241 N 0.78507 0.98799 0.05672 0.0
C242 C 0.75457 0.95741 0.05932 0.0
C243 C 0.76074 0.92235 0.05127 0.0
C244 C 0.80995 0.97042 0.0474 0.0
N245 N 0.79561 0.93066 0.04381 0.0
C246 C 0.71119 0.03566 0.07529 0.0
C247 C 0.66966 0.09557 0.05977 0.0
C248 C 0.6447 0.07001 0.06819 0.0
C249 C 0.66633 0.04088 0.07634 0.0
C250 C 0.71467 0.08918 0.05905 0.0
N251 N 0.73426 0.05704 0.06604 0.0
H252 H 0.7271 0.01295 0.08165 0.0
H253 H 0.73348 0.11004 0.05281 0.0
H254 H 0.72966 0.95934 0.06656 0.0
H255 H 0.83746 0.98706 0.0431 0.0
O256 O 0.80613 0.01666 0.08094 0.0
O257 O 0.85623 0.02919 0.06596 0.0
O258 O 0.80098 0.07119 0.0469 0.0
C259 C 0.84638 0.01351 0.07716 0.0
H260 H 0.85105 0.19729 0.07445 0.0
H261 H 0.74135 0.89284 0.05101 0.0
H262 H 0.65452 0.1199 0.05371 0.0
H263 H 0.6487 0.02072 0.08312 0.0
Co264 Co 0.55024 0.8044 0.81524 0.0
C265 C 0.61981 0.78686 0.83399 0.0
C266 C 0.64589 0.81308 0.81649 0.0
C267 C 0.67957 0.80745 0.82505 0.0
N268 N 0.60851 0.79999 0.82211 0.0
N269 N 0.66298 0.7913 0.83606 0.0
H270 H 0.59681 0.77524 0.84108 0.0
H271 H 0.64849 0.82717 0.80701 0.0
C272 C 0.56645 0.78943 0.78702 0.0
O273 O 0.53777 0.75756 0.78693 0.0
N274 N 0.49119 0.81046 0.80837 0.0
C275 C 0.45304 0.80295 0.81447 0.0
C276 C 0.41909 0.81435 0.80655 0.0
C277 C 0.47941 0.82894 0.79711 0.0
N278 N 0.4357 0.83039 0.79555 0.0
C279 C 0.51518 0.71984 0.82055 0.0
C280 C 0.57632 0.67303 0.80681 0.0
C281 C 0.54024 0.6513 0.81201 0.0
C282 C 0.51028 0.67499 0.81933 0.0
C283 C 0.57979 0.71819 0.80824 0.0
N284 N 0.5477 0.7413 0.81427 0.0
H285 H 0.49296 0.7371 0.82666 0.0
H286 H 0.60761 0.73475 0.80414 0.0
H287 H 0.4495 0.79209 0.82426 0.0
H288 H 0.50226 0.84214 0.79029 0.0
O289 O 0.52743 0.81224 0.8324 0.0
O290 O 0.54988 0.86525 0.81934 0.0
O291 O 0.57515 0.8098 0.7974 0.0
C292 C 0.53379 0.85361 0.83038 0.0
H293 H 0.71325 0.81664 0.82354 0.0
H294 H 0.38485 0.81219 0.80894 0.0
H295 H 0.60085 0.65557 0.8014 0.0
H296 H 0.4833 0.65893 0.82411 0.0
Co297 Co 0.81262 0.44301 0.18687 0.0
C298 C 0.80219 0.3686 0.1692 0.0
C299 C 0.83054 0.34891 0.1871 0.0
C300 C 0.82881 0.31329 0.17912 0.0
N301 N 0.81374 0.38348 0.18088 0.0
N302 N 0.8113 0.32573 0.16781 0.0
H303 H 0.78926 0.38927 0.16171 0.0
H304 H 0.84434 0.34964 0.19664 0.0
C305 C 0.79118 0.42928 0.21486 0.0
O306 O 0.75858 0.45686 0.21396 0.0
N307 N 0.81356 0.50336 0.19297 0.0
C308 C 0.80833 0.54031 0.18601 0.0
C309 C 0.81802 0.57596 0.19355 0.0
C310 C 0.82838 0.51747 0.20445 0.0
N311 N 0.83011 0.56128 0.20516 0.0
C312 C 0.72727 0.47288 0.18022 0.0
C313 C 0.68209 0.40846 0.19323 0.0
C314 C 0.65913 0.44333 0.18782 0.0
C315 C 0.68207 0.47495 0.18086 0.0
C316 C 0.72745 0.40779 0.19238 0.0
N317 N 0.74952 0.44135 0.18667 0.0
H318 H 0.74425 0.49673 0.17455 0.0
H319 H 0.74495 0.38114 0.19677 0.0
H320 H 0.8004 0.54171 0.17593 0.0
H321 H 0.84053 0.49653 0.21196 0.0
O322 O 0.82281 0.46328 0.16955 0.0
O323 O 0.87405 0.44713 0.18394 0.0
O324 O 0.81491 0.42093 0.20509 0.0
C325 C 0.8639 0.46039 0.17246 0.0
H326 H 0.84038 0.28094 0.18145 0.0
H327 H 0.81697 0.60989 0.19069 0.0
H328 H 0.66537 0.38289 0.19846 0.0
H329 H 0.66522 0.50126 0.17602 0.0
Co330 Co 0.44214 0.18104 0.81423 0.0
C331 C 0.372 0.20172 0.83283 0.0
C332 C 0.34548 0.18016 0.81496 0.0
C333 C 0.31182 0.18511 0.82356 0.0
N334 N 0.38336 0.19179 0.82063 0.0
N335 N 0.3287 0.19835 0.83481 0.0
H336 H 0.39501 0.2084 0.84042 0.0
H337 H 0.34237 0.16536 0.80562 0.0
C338 C 0.39647 0.20094 0.78913 0.0
O339 O 0.38144 0.23801 0.79363 0.0
N340 N 0.5005 0.16906 0.80799 0.0
C341 C 0.53826 0.17588 0.81432 0.0
C342 C 0.57253 0.16647 0.80624 0.0
C343 C 0.51235 0.15579 0.79615 0.0
N344 N 0.55602 0.15432 0.79482 0.0
C345 C 0.45049 0.26917 0.82287 0.0
C346 C 0.48129 0.30301 0.79999 0.0
C347 C 0.47583 0.33082 0.81051 0.0
C348 C 0.46065 0.31334 0.8221 0.0
C349 C 0.47065 0.25899 0.80118 0.0
N350 N 0.45401 0.24284 0.81239 0.0
H351 H 0.44103 0.25604 0.83201 0.0
H352 H 0.47597 0.2379 0.79305 0.0
H353 H 0.54086 0.18829 0.824 0.0
H354 H 0.48978 0.14844 0.78849 0.0
O355 O 0.46273 0.17269 0.83161 0.0
O356 O 0.4353 0.12105 0.81893 0.0
O357 O 0.41959 0.176 0.79618 0.0
C358 C 0.45184 0.13207 0.82995 0.0
H359 H 0.27811 0.17615 0.82198 0.0
H360 H 0.60685 0.17032 0.80836 0.0
H361 H 0.49334 0.31516 0.7909 0.0
H362 H 0.45754 0.33344 0.83059 0.0
Co363 Co 0.19243 0.54514 0.18683 0.0
C364 C 0.21759 0.61453 0.16836 0.0
C365 C 0.18783 0.64106 0.18517 0.0
C366 C 0.19371 0.6742 0.17644 0.0
N367 N 0.20386 0.60361 0.18028 0.0
N368 N 0.21216 0.6574 0.16582 0.0
H369 H 0.22798 0.59119 0.16127 0.0
H370 H 0.16948 0.64376 0.19397 0.0
C371 C 0.2106 0.5944 0.21134 0.0
O372 O 0.24664 0.6105 0.20642 0.0
N373 N 0.17987 0.48721 0.19319 0.0
C374 C 0.19499 0.44945 0.18835 0.0
C375 C 0.18355 0.41602 0.19653 0.0
C376 C 0.15908 0.47633 0.20413 0.0
N377 N 0.16123 0.433 0.20651 0.0
C378 C 0.28013 0.5317 0.17844 0.0
C379 C 0.31224 0.50455 0.20189 0.0
C380 C 0.33975 0.50434 0.19119 0.0
C381 C 0.32327 0.51817 0.17935 0.0
C382 C 0.26921 0.51822 0.20054 0.0
N383 N 0.25392 0.5328 0.18899 0.0
H384 H 0.26745 0.53932 0.1691 0.0
H385 H 0.24776 0.51544 0.20871 0.0
H386 H 0.21475 0.4467 0.1798 0.0
H387 H 0.14363 0.49984 0.21035 0.0
O388 O 0.18453 0.52376 0.16949 0.0
O389 O 0.13284 0.55219 0.18193 0.0
O390 O 0.18675 0.56851 0.2048 0.0
C391 C 0.14405 0.53518 0.171 0.0
H392 H 0.18176 0.70722 0.17743 0.0
H393 H 0.19298 0.38222 0.1955 0.0
H394 H 0.32341 0.49286 0.21113 0.0
H395 H 0.3434 0.51811 0.17081 0.0
Co396 Co 0.55602 0.68239 0.43481 0.0
C397 C 0.62959 0.69815 0.41686 0.0
C398 C 0.65148 0.67064 0.43456 0.0
C399 C 0.68633 0.67288 0.42629 0.0
N400 N 0.61597 0.68789 0.42883 0.0
N401 N 0.67239 0.68995 0.41514 0.0
H402 H 0.6082 0.7082 0.4092 0.0
H403 H 0.65163 0.6541 0.4437 0.0
C404 C 0.60306 0.70168 0.45954 0.0
O405 O 0.62423 0.73406 0.45409 0.0
N406 N 0.49669 0.67509 0.44065 0.0
C407 C 0.46051 0.69265 0.4355 0.0
C408 C 0.42558 0.6828 0.44332 0.0
C409 C 0.4834 0.65438 0.45135 0.0
N410 N 0.44014 0.65902 0.45334 0.0
C411 C 0.55421 0.77084 0.42553 0.0
C412 C 0.52311 0.80701 0.44803 0.0
C413 C 0.52995 0.83393 0.43739 0.0
C414 C 0.54588 0.81552 0.42604 0.0
C415 C 0.53244 0.76268 0.44716 0.0
N416 N 0.54868 0.74515 0.43609 0.0
H417 H 0.56327 0.75686 0.41648 0.0
H418 H 0.52523 0.74219 0.45532 0.0
H419 H 0.4599 0.71269 0.42696 0.0
H420 H 0.50518 0.63698 0.45768 0.0
O421 O 0.53624 0.67339 0.41736 0.0
O422 O 0.55867 0.62156 0.4308 0.0
O423 O 0.57618 0.67849 0.45314 0.0
C424 C 0.54381 0.6323 0.41955 0.0
H425 H 0.71849 0.65963 0.42799 0.0
H426 H 0.3925 0.69418 0.44205 0.0
H427 H 0.51028 0.82002 0.45692 0.0
H428 H 0.5502 0.83516 0.41749 0.0
Co429 Co 0.6908 0.44 0.56137 0.0
C430 C 0.70171 0.36718 0.57976 0.0
C431 C 0.67113 0.34546 0.56248 0.0
C432 C 0.67176 0.31127 0.57105 0.0
N433 N 0.69133 0.3803 0.56777 0.0
N434 N 0.69075 0.32524 0.58192 0.0
H435 H 0.71407 0.38847 0.58716 0.0
H436 H 0.65401 0.34549 0.55343 0.0
C437 C 0.70317 0.38962 0.53679 0.0
O438 O 0.73411 0.36622 0.54212 0.0
N439 N 0.68886 0.49938 0.55525 0.0
C440 C 0.70876 0.53424 0.56047 0.0
C441 C 0.70088 0.57002 0.55282 0.0
C442 C 0.66888 0.51426 0.54463 0.0
N443 N 0.67596 0.55737 0.5428 0.0
C444 C 0.77906 0.43677 0.5703 0.0
C445 C 0.81674 0.46144 0.54731 0.0
C446 C 0.84323 0.45584 0.5581 0.0
C447 C 0.82396 0.44305 0.56969 0.0
C448 C 0.77199 0.45474 0.54834 0.0
N449 N 0.75369 0.44167 0.55967 0.0
H450 H 0.76467 0.43042 0.5795 0.0
H451 H 0.75189 0.46195 0.54012 0.0
H452 H 0.72829 0.53351 0.5691 0.0
H453 H 0.65056 0.49353 0.53823 0.0
O454 O 0.68523 0.46175 0.57873 0.0
O455 O 0.63041 0.44335 0.56581 0.0
O456 O 0.68327 0.41896 0.5432 0.0
C457 C 0.6435 0.45807 0.57685 0.0
H458 H 0.65644 0.27974 0.56976 0.0
H459 H 0.71298 0.60264 0.55453 0.0
H460 H 0.8303 0.47184 0.53821 0.0
H461 H 0.8431 0.43998 0.57837 0.0
Co462 Co 0.43923 0.30533 0.43509 0.0
C463 C 0.36363 0.29172 0.41768 0.0
C464 C 0.34608 0.32802 0.4344 0.0
C465 C 0.31064 0.32646 0.42635 0.0
N466 N 0.37907 0.30501 0.42918 0.0
N467 N 0.32178 0.30368 0.4158 0.0
H468 H 0.38348 0.27742 0.41027 0.0
H469 H 0.34819 0.34704 0.4431 0.0
C470 C 0.3897 0.29425 0.4599 0.0
O471 O 0.36442 0.26451 0.45469 0.0
N472 N 0.49894 0.30727 0.44087 0.0
C473 C 0.53356 0.28727 0.43559 0.0
C474 C 0.5694 0.29478 0.44326 0.0
C475 C 0.51402 0.32692 0.45152 0.0
N476 N 0.557 0.31957 0.45334 0.0
C477 C 0.43622 0.21681 0.42607 0.0
C478 C 0.45971 0.17899 0.44913 0.0
C479 C 0.45386 0.15245 0.43836 0.0
C480 C 0.44164 0.17173 0.42674 0.0
C481 C 0.45337 0.22383 0.44808 0.0
N482 N 0.44079 0.24224 0.43672 0.0
H483 H 0.43085 0.23124 0.41682 0.0
H484 H 0.46065 0.24389 0.45631 0.0
H485 H 0.53257 0.26777 0.42695 0.0
H486 H 0.49346 0.34504 0.45801 0.0
O487 O 0.45946 0.31147 0.41755 0.0
O488 O 0.44237 0.36586 0.43077 0.0
O489 O 0.41969 0.31274 0.45339 0.0
C490 C 0.45599 0.35321 0.41957 0.0
H491 H 0.2797 0.34239 0.42797 0.0
H492 H 0.60186 0.28239 0.44156 0.0
H493 H 0.47001 0.16532 0.45822 0.0
H494 H 0.43852 0.15241 0.41808 0.0
Co495 Co 0.31237 0.55988 0.56314 0.0
C496 C 0.29286 0.6282 0.5821 0.0
C497 C 0.31165 0.6562 0.56405 0.0
C498 C 0.30566 0.68942 0.57277 0.0
N499 N 0.3035 0.61787 0.56993 0.0
N500 N 0.29428 0.67162 0.58411 0.0
H501 H 0.28556 0.60439 0.58946 0.0
H502 H 0.32297 0.6599 0.55429 0.0
C503 C 0.29073 0.57372 0.53511 0.0
O504 O 0.26222 0.54171 0.53557 0.0
N505 N 0.32281 0.50106 0.55645 0.0
C506 C 0.3216 0.46312 0.56309 0.0
C507 C 0.33218 0.42914 0.55507 0.0
C508 C 0.33669 0.48932 0.54462 0.0
N509 N 0.34107 0.44578 0.54343 0.0
C510 C 0.23266 0.51651 0.56961 0.0
C511 C 0.17809 0.5731 0.5567 0.0
C512 C 0.16065 0.53521 0.5622 0.0
C513 C 0.18829 0.50749 0.56908 0.0
C514 C 0.22282 0.58083 0.55747 0.0
N515 N 0.24982 0.5511 0.56313 0.0
H516 H 0.25303 0.49576 0.57533 0.0
H517 H 0.23594 0.61007 0.55315 0.0
H518 H 0.31443 0.45985 0.57319 0.0
H519 H 0.34508 0.51178 0.53705 0.0
O520 O 0.3253 0.53883 0.58022 0.0
O521 O 0.37359 0.56581 0.56636 0.0
O522 O 0.31208 0.58454 0.54516 0.0
C523 C 0.36542 0.54927 0.57761 0.0
H524 H 0.31171 0.72376 0.5711 0.0
H525 H 0.33257 0.39484 0.55753 0.0
H526 H 0.15766 0.5959 0.55153 0.0
H527 H 0.1757 0.47909 0.57405 0.0
H528 H 0.04124 0.35955 0.27803 0.0
H529 H 0.13621 0.25769 0.27184 0.0
H530 H 0.05904 0.39109 0.25739 0.0
H531 H 0.15447 0.29015 0.25099 0.0
H532 H 0.1454 0.34604 0.2093 0.0
H533 H 0.12411 0.30789 0.22892 0.0
H534 H 0.12387 0.43027 0.24937 0.0
H535 H 0.14573 0.46821 0.23 0.0
C536 C 0.06574 0.34355 0.27223 0.0
C537 C 0.08756 0.30615 0.27669 0.0
C538 C 0.0761 0.36193 0.2604 0.0
C539 C 0.10859 0.34353 0.25265 0.0
C540 C 0.12921 0.30501 0.25677 0.0
C541 C 0.11883 0.2865 0.26871 0.0
C542 C 0.14106 0.36482 0.21798 0.0
C543 C 0.14712 0.41039 0.21797 0.0
C544 C 0.12886 0.34289 0.22922 0.0
C545 C 0.12208 0.36608 0.24066 0.0
C546 C 0.12808 0.41153 0.24065 0.0
C547 C 0.14049 0.43337 0.22948 0.0
H548 H 0.4653 0.88158 0.77597 0.0
H549 H 0.35183 0.81087 0.78926 0.0
H550 H 0.42746 0.89966 0.75632 0.0
H551 H 0.31311 0.83131 0.76986 0.0
H552 H 0.27883 0.83 0.72672 0.0
H553 H 0.31205 0.81451 0.74749 0.0
H554 H 0.3708 0.94277 0.74757 0.0
H555 H 0.33888 0.95751 0.72669 0.0
C556 C 0.43224 0.87003 0.77481 0.0
C557 C 0.41196 0.84438 0.78429 0.0
C558 C 0.41021 0.88099 0.76354 0.0
C559 C 0.36713 0.86697 0.76146 0.0
C560 C 0.34644 0.8422 0.77105 0.0
C561 C 0.36858 0.83096 0.78229 0.0
C562 C 0.29855 0.85496 0.73124 0.0
C563 C 0.30659 0.89476 0.725 0.0
C564 C 0.31748 0.84619 0.74318 0.0
C565 C 0.3445 0.87725 0.74919 0.0
C566 C 0.35107 0.91769 0.74312 0.0
C567 C 0.33254 0.92624 0.73116 0.0
H568 H 0.80597 0.54667 0.22947 0.0
H569 H 0.8824 0.6324 0.20562 0.0
H570 H 0.82894 0.58652 0.24847 0.0
H571 H 0.9081 0.6712 0.22472 0.0
H572 H 0.92312 0.75155 0.26155 0.0
H573 H 0.89367 0.71827 0.24203 0.0
H574 H 0.88945 0.59326 0.26128 0.0
H575 H 0.91607 0.62685 0.28071 0.0
C576 C 0.82809 0.574 0.22837 0.0
C577 C 0.84275 0.58637 0.21617 0.0
C578 C 0.84159 0.59673 0.23924 0.0
C579 C 0.87117 0.63175 0.23823 0.0
C580 C 0.88505 0.64475 0.22591 0.0
C581 C 0.8706 0.62249 0.21497 0.0
C582 C 0.91549 0.71704 0.26155 0.0
C583 C 0.92134 0.69194 0.27269 0.0
C584 C 0.89889 0.69785 0.25036 0.0
C585 C 0.88859 0.65302 0.25004 0.0
C586 C 0.89549 0.62806 0.26118 0.0
C587 C 0.91113 0.64732 0.27236 0.0
H588 H 0.53598 0.18419 0.77126 0.0
H589 H 0.62999 0.10772 0.79217 0.0
H590 H 0.57654 0.17162 0.75135 0.0
H591 H 0.67012 0.09407 0.77212 0.0
H592 H 0.67065 0.03694 0.72842 0.0
H593 H 0.6414 0.05266 0.74978 0.0
H594 H 0.66137 0.19027 0.74332 0.0
H595 H 0.6918 0.17438 0.722 0.0
C596 C 0.56524 0.16453 0.77155 0.0
C597 C 0.57988 0.14667 0.78318 0.0
C598 C 0.58858 0.1577 0.76022 0.0
C599 C 0.62645 0.13213 0.76029 0.0
C600 C 0.64105 0.11405 0.77189 0.0
C601 C 0.61825 0.12181 0.7833 0.0
C602 C 0.66938 0.07045 0.73166 0.0
C603 C 0.68323 0.10452 0.72362 0.0
C604 C 0.65291 0.07938 0.74387 0.0
C605 C 0.64909 0.12262 0.7481 0.0
C606 C 0.66405 0.15667 0.74021 0.0
C607 C 0.6816 0.14762 0.7281 0.0
H608 H 0.18453 0.1322 0.04013 0.0
H609 H 0.09951 0.02782 0.02782 0.0
H610 H 0.16761 0.17258 0.02062 0.0
H611 H 0.08447 0.06696 0.00812 0.0
H612 H 0.03503 0.15906 0.97861 0.0
H613 H 0.04753 0.12896 0.99984 0.0
H614 H 0.18228 0.16977 0.99784 0.0
H615 H 0.16908 0.20108 0.97659 0.0
C616 C 0.162 0.11794 0.03334 0.0
C617 C 0.14349 0.07658 0.03558 0.0
C618 C 0.15274 0.14091 0.02206 0.0
C619 C 0.12474 0.12307 0.01277 0.0
C620 C 0.10572 0.08206 0.01512 0.0
C621 C 0.11482 0.05925 0.02639 0.0
C622 C 0.06727 0.16168 0.98271 0.0
C623 C 0.10128 0.18165 0.97586 0.0
C624 C 0.0745 0.14437 0.99488 0.0
C625 C 0.11613 0.14615 0.00047 0.0
C626 C 0.14975 0.168 0.99386 0.0
C627 C 0.1423 0.18583 0.98168 0.0
H628 H 0.04448 0.80311 0.98051 0.0
H629 H 0.13835 0.87316 0.95757 0.0
H630 H 0.0882 0.81721 0.99977 0.0
H631 H 0.18157 0.88845 0.97695 0.0
H632 H 0.18238 0.95001 0.02125 0.0
H633 H 0.15117 0.93341 1.00018 0.0
H634 H 0.1791 0.79695 0.00586 0.0
H635 H 0.21168 0.81367 0.02684 0.0
C636 C 0.07436 0.82171 0.97964 0.0
C637 C 0.0881 0.83726 0.96763 0.0
C638 C 0.09946 0.82941 0.99058 0.0
C639 C 0.13821 0.85358 0.98974 0.0
C640 C 0.15188 0.86948 0.97776 0.0
C641 C 0.12729 0.86081 0.96674 0.0
C642 C 0.18276 0.91663 0.01785 0.0
C643 C 0.19942 0.88307 0.02561 0.0
C644 C 0.16504 0.90722 0.00583 0.0
C645 C 0.16278 0.86398 0.00151 0.0
C646 C 0.1807 0.83054 0.00905 0.0
C647 C 0.19948 0.84011 0.02096 0.0
H648 H 0.9263 0.86337 0.97472 0.0
H649 H 0.84559 0.74952 0.98081 0.0
H650 H 0.90286 0.89289 0.9951 0.0
H651 H 0.82287 0.77881 0.00157 0.0
H652 H 0.75021 0.87655 0.02826 0.0
H653 H 0.77788 0.83722 0.00964 0.0
H654 H 0.90762 0.88485 0.01777 0.0
H655 H 0.87955 0.92483 0.03621 0.0
C656 C 0.90397 0.84426 0.98049 0.0
C657 C 0.88764 0.80412 0.97607 0.0
C658 C 0.89075 0.86113 0.99227 0.0
C659 C 0.86102 0.83823 1.00002 0.0
C660 C 0.84543 0.79752 0.99577 0.0
C661 C 0.85862 0.78063 0.9839 0.0
C662 C 0.78472 0.87802 0.02617 0.0
C663 C 0.81264 0.90415 0.03359 0.0
C664 C 0.80065 0.85538 0.01552 0.0
C665 C 0.84494 0.85817 0.01213 0.0
C666 C 0.87316 0.88275 0.01993 0.0
C667 C 0.85714 0.90565 0.0305 0.0
H668 H 0.86591 0.07997 0.03196 0.0
H669 H 0.74002 0.08002 0.01353 0.0
H670 H 0.90005 0.1023 0.01214 0.0
H671 H 0.77389 0.10562 0.99362 0.0
H672 H 0.85611 0.11033 0.95653 0.0
H673 H 0.8176 0.08792 0.97608 0.0
H674 H 0.91135 0.16001 0.99878 0.0
H675 H 0.95073 0.17915 0.97934 0.0
C676 C 0.84536 0.08572 0.02368 0.0
C677 C 0.80022 0.07869 0.02432 0.0
C678 C 0.86495 0.09889 0.01227 0.0
C679 C 0.83986 0.10662 0.0012 0.0
C680 C 0.79446 0.09962 0.00186 0.0
C681 C 0.77491 0.08531 0.01328 0.0
C682 C 0.86812 0.12106 0.96578 0.0
C683 C 0.90652 0.14574 0.96656 0.0
C684 C 0.84604 0.10861 0.97697 0.0
C685 C 0.86151 0.12156 0.98913 0.0
C686 C 0.89907 0.14798 0.98971 0.0
C687 C 0.9216 0.15932 0.97859 0.0
H688 H 0.59326 0.87234 0.78252 0.0
H689 H 0.57453 0.74808 0.76384 0.0
H690 H 0.61336 0.90505 0.76226 0.0
H691 H 0.59765 0.78018 0.74346 0.0
H692 H 0.59401 0.86394 0.70676 0.0
H693 H 0.57662 0.82643 0.72688 0.0
H694 H 0.66618 0.91172 0.74695 0.0
H695 H 0.68055 0.95045 0.72701 0.0
C696 C 0.59449 0.85171 0.77409 0.0
C697 C 0.58253 0.80757 0.77477 0.0
C698 C 0.60632 0.87045 0.76242 0.0
C699 C 0.60761 0.84535 0.75112 0.0
C700 C 0.59645 0.80081 0.75188 0.0
C701 C 0.58359 0.78223 0.76357 0.0
C702 C 0.60972 0.87431 0.71555 0.0
C703 C 0.63797 0.91024 0.71549 0.0
C704 C 0.60016 0.85275 0.72706 0.0
C705 C 0.61957 0.86619 0.73867 0.0
C706 C 0.6494 0.90115 0.73836 0.0
C707 C 0.65797 0.92326 0.72695 0.0
H708 H 0.86443 0.38321 0.22046 0.0
H709 H 0.74872 0.43707 0.23795 0.0
H710 H 0.89022 0.36006 0.24128 0.0
H711 H 0.77391 0.4121 0.25895 0.0
H712 H 0.86493 0.41173 0.29487 0.0
H713 H 0.82815 0.42871 0.27465 0.0
H714 H 0.8799 0.31032 0.25807 0.0
H715 H 0.91793 0.2949 0.27807 0.0
C716 C 0.84404 0.38947 0.22874 0.0
C717 C 0.80452 0.41212 0.22753 0.0
C718 C 0.85874 0.37583 0.24073 0.0
C719 C 0.83408 0.38393 0.25185 0.0
C720 C 0.79398 0.40574 0.25062 0.0
C721 C 0.7794 0.41981 0.23858 0.0
C722 C 0.86773 0.38921 0.28692 0.0
C723 C 0.89462 0.35241 0.2879 0.0
C724 C 0.84661 0.39875 0.27535 0.0
C725 C 0.85158 0.37124 0.26463 0.0
C726 C 0.87633 0.33293 0.26598 0.0
C727 C 0.89795 0.3239 0.27743 0.0
H728 H 0.3909 0.06969 0.71535 0.0
H729 H 0.26423 0.12941 0.71864 0.0
H730 H 0.41441 0.10684 0.73483 0.0
H731 H 0.28717 0.16589 0.73833 0.0
H732 H 0.35167 0.24521 0.77033 0.0
H733 H 0.33375 0.21923 0.74875 0.0
H734 H 0.3981 0.09712 0.75698 0.0
H735 H 0.41674 0.12313 0.77816 0.0
C736 C 0.36817 0.09094 0.72024 0.0
C737 C 0.32565 0.09632 0.71557 0.0
C738 C 0.38152 0.11215 0.73141 0.0
C739 C 0.35244 0.13883 0.73827 0.0
C740 C 0.31052 0.14588 0.73324 0.0
C741 C 0.29732 0.12494 0.72197 0.0
C742 C 0.36213 0.21293 0.76747 0.0
C743 C 0.38566 0.18632 0.77598 0.0
C744 C 0.35176 0.198 0.75513 0.0
C745 C 0.36475 0.15619 0.75109 0.0
C746 C 0.38841 0.12984 0.75962 0.0
C747 C 0.39881 0.14472 0.77186 0.0
H748 H 0.13772 0.56688 0.22389 0.0
H749 H 0.2489 0.65249 0.228 0.0
H750 H 0.10957 0.59163 0.2443 0.0
H751 H 0.22089 0.67675 0.24879 0.0
H752 H 0.12192 0.74828 0.27571 0.0
H753 H 0.16097 0.72037 0.25704 0.0
H754 H 0.12121 0.58932 0.26696 0.0
H755 H 0.08164 0.61749 0.28545 0.0
C756 C 0.15654 0.59063 0.22922 0.0
C757 C 0.19556 0.60781 0.22425 0.0
C758 C 0.14047 0.60462 0.24102 0.0
C759 C 0.163 0.6361 0.24824 0.0
C760 C 0.20252 0.65276 0.24341 0.0
C761 C 0.21868 0.6387 0.23154 0.0
C762 C 0.12218 0.71347 0.274 0.0
C763 C 0.09825 0.68512 0.28193 0.0
C764 C 0.14464 0.69742 0.26332 0.0
C765 C 0.14383 0.65264 0.26041 0.0
C766 C 0.12169 0.62411 0.26875 0.0
C767 C 0.09902 0.6402 0.27934 0.0
H768 H 0.61283 0.53793 0.52537 0.0
H769 H 0.70837 0.63626 0.53521 0.0
H770 H 0.59494 0.57775 0.50611 0.0
H771 H 0.68816 0.67772 0.51628 0.0
H772 H 0.68027 0.70654 0.47254 0.0
H773 H 0.69622 0.67558 0.49364 0.0
H774 H 0.56055 0.63986 0.49791 0.0
H775 H 0.54558 0.66902 0.47666 0.0
C776 C 0.62993 0.56815 0.52354 0.0
C777 C 0.66256 0.58331 0.5319 0.0
C778 C 0.61907 0.59152 0.51252 0.0
C779 C 0.64002 0.63114 0.5096 0.0
C780 C 0.67174 0.64706 0.51812 0.0
C781 C 0.68297 0.6234 0.52911 0.0
C782 C 0.65391 0.69258 0.47812 0.0
C783 C 0.61184 0.68945 0.47295 0.0
C784 C 0.66292 0.67493 0.49022 0.0
C785 C 0.62981 0.65449 0.49743 0.0
C786 C 0.58716 0.65408 0.4925 0.0
C787 C 0.57844 0.67098 0.48036 0.0
H788 H 0.53792 0.38243 0.47089 0.0
H789 H 0.63524 0.28626 0.46101 0.0
H790 H 0.57721 0.3993 0.4903 0.0
H791 H 0.67629 0.30552 0.48011 0.0
H792 H 0.70561 0.3124 0.52371 0.0
H793 H 0.67383 0.297 0.50271 0.0
H794 H 0.63915 0.43302 0.49876 0.0
H795 H 0.66908 0.44763 0.51991 0.0
C796 C 0.56781 0.36496 0.47274 0.0
C797 C 0.58281 0.33245 0.46432 0.0
C798 C 0.59089 0.37524 0.48387 0.0
C799 C 0.63012 0.35386 0.48683 0.0
C800 C 0.64591 0.32225 0.47825 0.0
C801 C 0.62251 0.31158 0.46716 0.0
C802 C 0.69156 0.33896 0.51825 0.0
C803 C 0.68916 0.38102 0.5235 0.0
C804 C 0.67349 0.33025 0.50619 0.0
C805 C 0.65328 0.36364 0.49907 0.0
C806 C 0.65322 0.4062 0.5041 0.0
C807 C 0.67058 0.41468 0.5162 0.0
H808 H 0.31044 0.46483 0.51989 0.0
H809 H 0.38884 0.37232 0.54081 0.0
H810 H 0.32092 0.42254 0.50021 0.0
H811 H 0.40014 0.33037 0.52101 0.0
H812 H 0.45073 0.31937 0.4772 0.0
H813 H 0.43855 0.35306 0.49817 0.0
H814 H 0.29969 0.33882 0.49315 0.0
H815 H 0.31189 0.30404 0.47223 0.0
C816 C 0.33024 0.43565 0.52022 0.0
C817 C 0.34903 0.42184 0.53182 0.0
C818 C 0.33582 0.41129 0.50903 0.0
C819 C 0.36102 0.37315 0.50918 0.0
C820 C 0.38043 0.35963 0.52071 0.0
C821 C 0.374 0.3835 0.53199 0.0
C822 C 0.41764 0.32286 0.48067 0.0
C823 C 0.38219 0.30928 0.47313 0.0
C824 C 0.41074 0.34193 0.49266 0.0
C825 C 0.36824 0.34861 0.49717 0.0
C826 C 0.33276 0.33404 0.4898 0.0
C827 C 0.33972 0.31397 0.47792 0.0
H828 H 0.34582 0.64196 0.53076 0.0
H829 H 0.26937 0.54428 0.51104 0.0
H830 H 0.37868 0.66364 0.51051 0.0
H831 H 0.30286 0.56585 0.49071 0.0
H832 H 0.35295 0.644 0.45516 0.0
H833 H 0.31177 0.62646 0.47462 0.0
H834 H 0.43137 0.62678 0.49642 0.0
H835 H 0.47196 0.64526 0.47725 0.0
C836 C 0.33561 0.62542 0.52209 0.0
C837 C 0.30525 0.59109 0.52255 0.0
C838 C 0.35468 0.63769 0.51048 0.0
C839 C 0.34391 0.61595 0.49905 0.0
C840 C 0.31175 0.58325 0.49937 0.0
C841 C 0.2926 0.57091 0.51102 0.0
C842 C 0.37036 0.64049 0.46412 0.0
C843 C 0.41585 0.64621 0.4646 0.0
C844 C 0.34681 0.63016 0.47524 0.0
C845 C 0.36827 0.62575 0.48708 0.0
C846 C 0.41374 0.63074 0.4875 0.0
C847 C 0.43718 0.64079 0.47643 0.0
H848 H 0.92062 0.12978 0.30181 0.0
H849 H 0.01661 0.10037 0.33089 0.0
H850 H 0.89636 0.05377 0.30216 0.0
H851 H 0.99186 0.02511 0.33138 0.0
H852 H 0.91931 0.90145 0.33731 0.0
H853 H 0.92737 0.98062 0.33746 0.0
H854 H 0.92845 0.98152 0.29602 0.0
H855 H 0.92056 0.90231 0.29587 0.0
C856 C 0.93658 0.10717 0.30826 0.0
C857 C 0.97057 0.12117 0.31633 0.0
C858 C 0.92251 0.06377 0.3085 0.0
C859 C 0.94193 0.03368 0.31688 0.0
C860 C 0.97559 0.04779 0.32502 0.0
C861 C 0.98981 0.09095 0.32472 0.0
C862 C 0.92066 0.91865 0.32824 0.0
C863 C 0.91999 0.89569 0.31659 0.0
C864 C 0.9253 0.9639 0.32833 0.0
C865 C 0.92927 0.98707 0.31676 0.0
C866 C 0.92529 0.9645 0.30509 0.0
C867 C 0.9207 0.91916 0.305 0.0
H868 H 0.10252 0.02794 0.70092 0.0
H869 H 0.08027 0.90191 0.6836 0.0
H870 H 0.02413 0.04179 0.70088 0.0
H871 H 0.00172 0.91587 0.68353 0.0
H872 H 0.89129 0.06913 0.68108 0.0
H873 H 0.96912 0.05318 0.68267 0.0
H874 H 0.93944 0.92826 0.69976 0.0
H875 H 0.86147 0.94421 0.69814 0.0
C876 C 0.08076 0.00299 0.69727 0.0
C877 C 0.09726 0.96385 0.69227 0.0
C878 C 0.03607 0.01107 0.69715 0.0
C879 C 0.0071 0.97994 0.69215 0.0
C880 C 0.02346 0.94025 0.6875 0.0
C881 C 0.06825 0.93239 0.68747 0.0
C882 C 0.90148 0.03826 0.68513 0.0
C883 C 0.87057 0.00787 0.68948 0.0
C884 C 0.94588 0.0293 0.68614 0.0
C885 C 0.96008 0.98958 0.69137 0.0
C886 C 0.92919 0.95905 0.69565 0.0
C887 C 0.88476 0.96826 0.6948 0.0
H888 H 0.91625 0.58783 0.93521 0.0
H889 H 0.04248 0.61411 0.95183 0.0
H890 H 0.93085 0.50959 0.9362 0.0
H891 H 0.05698 0.53572 0.9529 0.0
H892 H 0.08245 0.39824 0.93487 0.0
H893 H 0.06838 0.47662 0.93601 0.0
H894 H 0.9427 0.45092 0.9531 0.0
H895 H 0.95661 0.37254 0.95187 0.0
C896 C 0.94703 0.57676 0.93911 0.0
C897 C 0.97831 0.60682 0.94342 0.0
C898 C 0.95522 0.53211 0.93977 0.0
C899 C 0.99501 0.5168 0.94463 0.0
C900 C 0.02615 0.54682 0.94906 0.0
C901 C 0.01775 0.59151 0.94853 0.0
C902 C 0.05191 0.40945 0.93889 0.0
C903 C 0.02056 0.37952 0.94326 0.0
C904 C 0.04403 0.45416 0.93964 0.0
C905 C 0.00447 0.46963 0.94463 0.0
C906 C 0.97335 0.43971 0.94915 0.0
C907 C 0.98142 0.39501 0.94853 0.0
H908 H 0.59231 0.07592 0.0471 0.0
H909 H 0.58775 0.06462 0.08841 0.0
H910 H 0.51411 0.06336 0.04608 0.0
H911 H 0.51007 0.04945 0.08733 0.0
H912 H 0.36418 0.04278 0.08208 0.0
H913 H 0.43765 0.07346 0.08264 0.0
H914 H 0.47124 -0.00118 0.04888 0.0
H915 H 0.39773 0.96908 0.04821 0.0
C916 C 0.57453 0.07162 0.05599 0.0
C917 C 0.5964 0.07061 0.06783 0.0
C918 C 0.52978 0.06375 0.05538 0.0
C919 C 0.506 0.05442 0.06659 0.0
C920 C 0.52732 0.05652 0.0785 0.0
C921 C 0.572 0.06472 0.07912 0.0
C922 C 0.3874 0.03297 0.07481 0.0
C923 C 0.37543 0.0034 0.06514 0.0
C924 C 0.4294 0.05059 0.07511 0.0
C925 C 0.4603 0.03874 0.06578 0.0
C926 C 0.44802 0.00944 0.05605 0.0
C927 C 0.40601 0.99212 0.0557 0.0
H928 H 0.42827 0.39851 0.81977 0.0
H929 H 0.54652 0.36899 0.79902 0.0
H930 H 0.44581 0.4758 0.81889 0.0
H931 H 0.56344 0.44688 0.79776 0.0
H932 H 0.5993 0.58494 0.81426 0.0
H933 H 0.58461 0.50663 0.81262 0.0
H934 H 0.45047 0.53419 0.80303 0.0
H935 H 0.46505 0.61202 0.80481 0.0
C936 C 0.45799 0.40861 0.815 0.0
C937 C 0.4861 0.37779 0.80951 0.0
C938 C 0.46779 0.45289 0.81436 0.0
C939 C 0.50588 0.46733 0.80819 0.0
C940 C 0.53398 0.43657 0.80263 0.0
C941 C 0.52409 0.39213 0.80325 0.0
C942 C 0.56691 0.5741 0.81163 0.0
C943 C 0.53311 0.60429 0.80986 0.0
C944 C 0.55851 0.52941 0.81067 0.0
C945 C 0.51625 0.51441 0.80787 0.0
C946 C 0.48309 0.54482 0.80549 0.0
C947 C 0.49142 0.58929 0.8065 0.0
H948 H 0.59598 0.38069 0.18536 0.0
H949 H 0.61579 0.51644 0.1948 0.0
H950 H 0.51718 0.39022 0.18789 0.0
H951 H 0.53752 0.52616 0.19707 0.0
H952 H 0.39851 0.52422 0.20991 0.0
H953 H 0.47536 0.50393 0.21074 0.0
H954 H 0.46048 0.43095 0.17556 0.0
H955 H 0.38344 0.45019 0.17492 0.0
C956 C 0.58346 0.41238 0.18806 0.0
C957 C 0.61175 0.44795 0.18976 0.0
C958 C 0.53852 0.41788 0.18945 0.0
C959 C 0.52136 0.4589 0.19269 0.0
C960 C 0.54986 0.49406 0.19472 0.0
C961 C 0.59458 0.48865 0.19325 0.0
C962 C 0.41153 0.5032 0.20249 0.0
C963 C 0.38526 0.48922 0.19226 0.0
C964 C 0.45548 0.49184 0.20292 0.0
C965 C 0.47384 0.46617 0.19316 0.0
C966 C 0.4471 0.45055 0.18325 0.0
C967 C 0.4032 0.46202 0.1828 0.0
H968 H 0.45448 0.86989 0.44606 0.0
H969 H 0.57984 0.9029 0.42988 0.0
H970 H 0.43526 0.94728 0.44676 0.0
H971 H 0.56064 0.98033 0.4306 0.0
H972 H 0.52624 0.1142 0.44829 0.0
H973 H 0.54447 0.03661 0.44841 0.0
H974 H 0.42238 0.00732 0.4297 0.0
H975 H 0.40412 0.08507 0.42957 0.0
C976 C 0.47795 0.89379 0.44274 0.0
C977 C 0.51865 0.88065 0.43795 0.0
C978 C 0.46686 0.93789 0.44305 0.0
C979 C 0.49653 0.96956 0.43874 0.0
C980 C 0.53737 0.95645 0.43406 0.0
C981 C 0.54822 0.9123 0.43357 0.0
C982 C 0.50315 0.09109 0.44433 0.0
C983 C 0.46374 0.10541 0.43895 0.0
C984 C 0.51373 0.04687 0.4443 0.0
C985 C 0.48483 0.01621 0.43904 0.0
C986 C 0.44505 0.03041 0.43387 0.0
C987 C 0.43473 0.07473 0.43374 0.0
H988 H 0.12631 0.45578 0.55653 0.0
H989 H 0.09021 0.58931 0.56433 0.0
H990 H 0.04969 0.43607 0.55459 0.0
H991 H 0.01335 0.56953 0.56243 0.0
H992 H 0.88211 0.52562 0.54652 0.0
H993 H 0.95931 0.54463 0.54654 0.0
H994 H 0.98713 0.42965 0.56907 0.0
H995 H 0.91017 0.40984 0.56866 0.0
C996 C 0.10192 0.48084 0.5579 0.0
C997 C 0.11412 0.52399 0.56069 0.0
C998 C 0.05812 0.46957 0.55678 0.0
C999 C 0.02562 0.50121 0.55842 0.0
C1000 C 0.03779 0.54457 0.56097 0.0
C1001 C 0.0817 0.55588 0.56208 0.0
C1002 C 0.90485 0.50404 0.55128 0.0
C1003 C 0.89023 0.46618 0.55757 0.0
C1004 C 0.94891 0.51521 0.55142 0.0
C1005 C 0.97914 0.4887 0.55784 0.0
C1006 C 0.9646 0.45048 0.56394 0.0
C1007 C 0.92055 0.43935 0.56381 0.0
H1008 H 0.06141 0.60362 0.31953 0.0
H1009 H 0.96517 0.61968 0.34926 0.0
H1010 H 0.08408 0.53516 0.32891 0.0
H1011 H 0.98759 0.55003 0.35886 0.0
H1012 H 0.11227 0.41039 0.33827 0.0
H1013 H 0.11114 0.48643 0.34515 0.0
H1014 H 0.97113 0.47911 0.34917 0.0
H1015 H 0.973 0.40265 0.34301 0.0
C1016 C 0.04647 0.59311 0.32844 0.0
C1017 C 0.01164 0.61631 0.33369 0.0
C1018 C 0.0596 0.55396 0.33393 0.0
C1019 C 0.03737 0.53676 0.34463 0.0
C1020 C 0.00517 0.56234 0.35061 0.0
C1021 C 0.99247 0.60214 0.34517 0.0
C1022 C 0.0817 0.42454 0.34139 0.0
C1023 C 0.04262 0.40142 0.33993 0.0
C1024 C 0.08096 0.46805 0.34527 0.0
C1025 C 0.0409 0.48926 0.34718 0.0
C1026 C 0.00258 0.46396 0.34769 0.0
C1027 C 0.0035 0.42006 0.3441 0.0
H1028 H 0.38502 0.92588 0.65267 0.0
H1029 H 0.37229 0.05393 0.66915 0.0
H1030 H 0.45522 0.94659 0.64334 0.0
H1031 H 0.44266 0.07432 0.66069 0.0
H1032 H 0.57478 0.10096 0.65726 0.0
H1033 H 0.50252 0.08793 0.64822 0.0
H1034 H 0.51926 0.94945 0.65477 0.0
H1035 H 0.59213 0.96287 0.66275 0.0
C1036 C 0.39657 0.95909 0.65378 0.0
C1037 C 0.37391 0.98846 0.66159 0.0
C1038 C 0.43697 0.97088 0.64861 0.0
C1039 C 0.45575 0.0116 0.65163 0.0
C1040 C 0.42987 0.04266 0.65807 0.0
C1041 C 0.3893 0.03107 0.66301 0.0
C1042 C 0.56346 0.06769 0.65609 0.0
C1043 C 0.58821 0.03284 0.66076 0.0
C1044 C 0.52198 0.06013 0.65105 0.0
C1045 C 0.50396 0.01782 0.65126 0.0
C1046 C 0.53144 0.98256 0.65443 0.0
C1047 C 0.57338 0.99011 0.65909 0.0
H1048 H 0.08617 0.08433 0.9058 0.0
H1049 H 0.9529 0.10623 0.91692 0.0
H1050 H 0.06602 0.01374 0.89669 0.0
H1051 H 0.93282 0.03507 0.90899 0.0
H1052 H 0.90264 0.90236 0.90755 0.0
H1053 H 0.92097 0.97277 0.89799 0.0
H1054 H 0.05636 0.95161 0.90801 0.0
H1055 H 0.03789 0.88048 0.91635 0.0
C1056 C 0.05225 0.07444 0.90585 0.0
C1057 C 0.02097 0.09995 0.91208 0.0
C1058 C 0.04066 0.0338 0.90082 0.0
C1059 C -0.00185 0.01731 0.9026 0.0
C1060 C 0.96595 0.04584 0.90739 0.0
C1061 C 0.97735 0.0869 0.91203 0.0
C1062 C 0.93651 0.91227 0.90703 0.0
C1063 C 0.96896 0.8868 0.91273 0.0
C1064 C 0.9471 0.9528 0.90173 0.0
C1065 C 0.98989 0.96928 0.90273 0.0
C1066 C 0.02297 0.94083 0.90701 0.0
C1067 C 0.0125 0.89981 0.9119 0.0
H1068 H 0.88278 0.93739 0.0711 0.0
H1069 H 0.88595 0.04043 0.09917 0.0
H1070 H 0.95199 0.91033 0.07878 0.0
H1071 H 0.95605 0.01316 0.1072 0.0
H1072 H 0.07775 0.87178 0.08608 0.0
H1073 H 0.00292 0.8813 0.09349 0.0
H1074 H 0.02506 0.0203 0.0964 0.0
H1075 H 0.10043 0.0099 0.08981 0.0
C1076 C 0.89766 0.95295 0.07935 0.0
C1077 C 0.87958 0.99074 0.08458 0.0
C1078 C 0.93731 0.93737 0.08386 0.0
C1079 C 0.96002 0.95981 0.09358 0.0
C1080 C 0.9396 0.9954 0.09964 0.0
C1081 C 0.89948 0.01084 0.09513 0.0
C1082 C 0.06701 0.90394 0.089 0.0
C1083 C 0.09412 0.94024 0.08728 0.0
C1084 C 0.02419 0.90951 0.09315 0.0
C1085 C 0.00749 0.95172 0.09507 0.0
C1086 C 0.03662 0.9873 0.095 0.0
C1087 C 0.07987 0.98149 0.09117 0.0
H1088 H 0.39573 0.0808 0.84327 0.0
H1089 H 0.53197 0.10715 0.83705 0.0
H1090 H 0.41383 0.01032 0.85274 0.0
H1091 H 0.55045 0.03585 0.8452 0.0
H1092 H 0.58213 0.90289 0.84668 0.0
H1093 H 0.55937 0.9725 0.85588 0.0
H1094 H 0.42885 0.94972 0.84142 0.0
H1095 H 0.45133 0.87956 0.8334 0.0
C1096 C 0.42967 0.07176 0.8443 0.0
C1097 C 0.46257 0.09848 0.83933 0.0
C1098 C 0.44017 0.03123 0.84956 0.0
C1099 C 0.48346 0.01594 0.84915 0.0
C1100 C 0.51666 0.04563 0.84568 0.0
C1101 C 0.5062 0.08674 0.8409 0.0
C1102 C 0.54817 0.91233 0.84611 0.0
C1103 C 0.51837 0.88672 0.83929 0.0
C1104 C 0.53511 0.95236 0.85121 0.0
C1105 C 0.49265 0.96814 0.84895 0.0
C1106 C 0.46183 0.93949 0.84344 0.0
C1107 C 0.47465 0.89905 0.83871 0.0
H1108 H 0.89636 0.54117 0.17166 0.0
H1109 H 0.90846 0.41388 0.15459 0.0
H1110 H 0.96621 0.56216 0.16294 0.0
H1111 H 0.97844 0.43513 0.14512 0.0
H1112 H 0.11698 0.45568 0.16367 0.0
H1113 H 0.04417 0.43964 0.15604 0.0
H1114 H 0.02279 0.57718 0.14907 0.0
H1115 H 0.09495 0.59291 0.15777 0.0
C1116 C 0.91336 0.51847 0.16547 0.0
C1117 C 0.89784 0.47602 0.16384 0.0
C1118 C 0.95345 0.53048 0.16032 0.0
C1119 C 0.97883 0.5 0.15349 0.0
C1120 C 0.96037 0.45905 0.15059 0.0
C1121 C 0.92029 0.4469 0.15591 0.0
C1122 C 0.09729 0.48213 0.15995 0.0
C1123 C 0.11065 0.52541 0.16149 0.0
C1124 C 0.05539 0.47307 0.1555 0.0
C1125 C 0.02666 0.50737 0.15243 0.0
C1126 C 0.04337 0.55014 0.15186 0.0
C1127 C 0.08476 0.55924 0.15671 0.0
H1128 H 0.59756 0.57986 0.40589 0.0
H1129 H 0.46256 0.60713 0.41369 0.0
H1130 H 0.57755 0.50893 0.39699 0.0
H1131 H 0.44231 0.53558 0.40597 0.0
H1132 H 0.4082 0.40313 0.40335 0.0
H1133 H 0.43168 0.47326 0.39457 0.0
H1134 H 0.56219 0.44817 0.40859 0.0
H1135 H 0.53889 0.37758 0.41628 0.0
C1136 C 0.56342 0.57098 0.40529 0.0
C1137 C 0.53146 0.59823 0.41049 0.0
C1138 C 0.55187 0.5302 0.40036 0.0
C1139 C 0.50847 0.51531 0.40122 0.0
C1140 C 0.47609 0.54523 0.40507 0.0
C1141 C 0.48757 0.58646 0.40959 0.0
C1142 C 0.44234 0.41206 0.40385 0.0
C1143 C 0.47191 0.38559 0.41045 0.0
C1144 C 0.4558 0.45243 0.39902 0.0
C1145 C 0.49851 0.46761 0.40129 0.0
C1146 C 0.52906 0.43829 0.40656 0.0
C1147 C 0.5158 0.39757 0.41106 0.0
H1148 H 0.42116 0.60506 0.58937 0.0
H1149 H 0.39022 0.46893 0.58475 0.0
H1150 H 0.49207 0.58583 0.5983 0.0
H1151 H 0.46184 0.44916 0.59233 0.0
H1152 H 0.59372 0.41331 0.59395 0.0
H1153 H 0.52508 0.43945 0.60299 0.0
H1154 H 0.5517 0.56739 0.58703 0.0
H1155 H 0.62088 0.54164 0.57915 0.0
C1156 C 0.42943 0.57095 0.59057 0.0
C1157 C 0.40113 0.53833 0.58625 0.0
C1158 C 0.47015 0.55979 0.59554 0.0
C1159 C 0.48402 0.51596 0.5955 0.0
C1160 C 0.45313 0.48331 0.59255 0.0
C1161 C 0.41186 0.49451 0.58807 0.0
C1162 C 0.58541 0.44752 0.59304 0.0
C1163 C 0.61178 0.47564 0.58585 0.0
C1164 C 0.5459 0.46249 0.59803 0.0
C1165 C 0.53144 0.50515 0.5953 0.0
C1166 C 0.56092 0.53436 0.58942 0.0
C1167 C 0.60082 0.51966 0.58479 0.0
H1168 H 0.33135 0.24015 0.3979 0.0
H1169 H 0.25432 0.35344 0.40746 0.0
H1170 H 0.28972 0.23122 0.37812 0.0
H1171 H 0.21268 0.34418 0.38784 0.0
H1172 H 0.11989 0.294 0.35795 0.0
H1173 H 0.15999 0.29407 0.37804 0.0
H1174 H 0.27958 0.26991 0.3574 0.0
H1175 H 0.239 0.26845 0.33721 0.0
C1176 C 0.3057 0.26323 0.39579 0.0
C1177 C 0.2963 0.29755 0.40431 0.0
C1178 C 0.28183 0.25804 0.38446 0.0
C1179 C 0.24784 0.28689 0.38144 0.0
C1180 C 0.23817 0.32092 0.39 0.0
C1181 C 0.2621 0.32621 0.40128 0.0
C1182 C 0.15452 0.28763 0.35767 0.0
C1183 C 0.17625 0.2811 0.34594 0.0
C1184 C 0.17762 0.28828 0.3692 0.0
C1185 C 0.22299 0.28239 0.3693 0.0
C1186 C 0.24458 0.27431 0.35764 0.0
C1187 C 0.22145 0.27381 0.34608 0.0
H1188 H 0.31102 0.86785 0.64288 0.0
H1189 H 0.2847 0.75047 0.66434 0.0
H1190 H 0.30675 0.82702 0.62291 0.0
H1191 H 0.27873 0.7094 0.64434 0.0
H1192 H 0.32107 0.64198 0.60719 0.0
H1193 H 0.32104 0.68161 0.62741 0.0
H1194 H 0.2593 0.7912 0.60868 0.0
H1195 H 0.26103 0.75173 0.58835 0.0
C1196 C 0.30359 0.83335 0.64328 0.0
C1197 C 0.29803 0.81226 0.65513 0.0
C1198 C 0.30096 0.80989 0.63183 0.0
C1199 C 0.29215 0.76483 0.63195 0.0
C1200 C 0.28624 0.74387 0.64385 0.0
C1201 C 0.28949 0.76731 0.65532 0.0
C1202 C 0.30698 0.6743 0.60746 0.0
C1203 C 0.29102 0.69384 0.59622 0.0
C1204 C 0.30687 0.69708 0.61906 0.0
C1205 C 0.29028 0.73977 0.61972 0.0
C1206 C 0.27319 0.75877 0.6085 0.0
C1207 C 0.27389 0.73617 0.59686 0.0
H1208 H 0.85204 0.74104 0.35223 0.0
H1209 H 0.78315 0.62254 0.3424 0.0
H1210 H 0.80915 0.74679 0.37186 0.0
H1211 H 0.74 0.62894 0.36183 0.0
H1212 H 0.64143 0.67755 0.39106 0.0
H1213 H 0.68335 0.67749 0.37119 0.0
H1214 H 0.80058 0.70565 0.39256 0.0
H1215 H 0.75833 0.70654 0.41247 0.0
C1216 C 0.82799 0.71612 0.35423 0.0
C1217 C 0.82119 0.68132 0.34566 0.0
C1218 C 0.80334 0.71952 0.36548 0.0
C1219 C 0.77112 0.68842 0.36834 0.0
C1220 C 0.76411 0.65383 0.35977 0.0
C1221 C 0.7889 0.65023 0.34859 0.0
C1222 C 0.67598 0.68448 0.39151 0.0
C1223 C 0.69663 0.69215 0.40333 0.0
C1224 C 0.70007 0.68396 0.38014 0.0
C1225 C 0.74526 0.69139 0.38033 0.0
C1226 C 0.76575 0.70012 0.39211 0.0
C1227 C 0.74169 0.70027 0.4035 0.0
H1228 H 0.71786 0.246 0.66162 0.0
H1229 H 0.66485 0.13379 0.64217 0.0
H1230 H 0.72178 0.28521 0.64123 0.0
H1231 H 0.66691 0.17303 0.62189 0.0
H1232 H 0.70926 0.24022 0.58536 0.0
H1233 H 0.7122 0.20076 0.60571 0.0
H1234 H 0.67754 0.31912 0.62583 0.0
H1235 H 0.67649 0.35841 0.60553 0.0
C1236 C 0.70689 0.22993 0.65295 0.0
C1237 C 0.69143 0.1869 0.65341 0.0
C1238 C 0.70887 0.25233 0.64128 0.0
C1239 C 0.69465 0.23236 0.62985 0.0
C1240 C 0.67908 0.18921 0.63039 0.0
C1241 C 0.67776 0.16667 0.64202 0.0
C1242 C 0.70246 0.25758 0.59418 0.0
C1243 C 0.69292 0.30227 0.59392 0.0
C1244 C 0.7039 0.23506 0.60583 0.0
C1245 C 0.69504 0.25666 0.61747 0.0
C1246 C 0.68547 0.30151 0.61714 0.0
C1247 C 0.68471 0.32409 0.6055 0.0
H1248 H 0.24835 0.21157 0.91486 0.0
H1249 H 0.13308 0.17601 0.89362 0.0
H1250 H 0.28918 0.2178 0.89481 0.0
H1251 H 0.17372 0.18085 0.87364 0.0
H1252 H 0.24706 0.22773 0.83874 0.0
H1253 H 0.20725 0.22928 0.85902 0.0
H1254 H 0.31916 0.17425 0.8783 0.0
H1255 H 0.359 0.17413 0.8581 0.0
C1256 C 0.23189 0.20492 0.90589 0.0
C1257 C 0.18757 0.1936 0.90578 0.0
C1258 C 0.25521 0.20832 0.8944 0.0
C1259 C 0.2348 0.19989 0.88256 0.0
C1260 C 0.19036 0.18854 0.88252 0.0
C1261 C 0.167 0.18565 0.89398 0.0
C1262 C 0.26303 0.21623 0.84736 0.0
C1263 C 0.30608 0.20101 0.84687 0.0
C1264 C 0.24026 0.21688 0.85897 0.0
C1265 C 0.25986 0.20171 0.87033 0.0
C1266 C 0.30321 0.18694 0.86982 0.0
C1267 C 0.32611 0.1868 0.85824 0.0
H1268 H 0.22599 0.74362 0.16181 0.0
H1269 H 0.20982 0.62084 0.14204 0.0
H1270 H 0.22803 0.78152 0.14124 0.0
H1271 H 0.21381 0.65836 0.12156 0.0
H1272 H 0.15979 0.74578 0.08961 0.0
H1273 H 0.16633 0.70619 0.10966 0.0
H1274 H 0.26976 0.79288 0.12159 0.0
H1275 H 0.26311 0.83281 0.10138 0.0
C1276 C 0.22329 0.72466 0.15309 0.0
C1277 C 0.21747 0.67919 0.15363 0.0
C1278 C 0.22495 0.74633 0.14129 0.0
C1279 C 0.22083 0.723 0.12974 0.0
C1280 C 0.21648 0.67739 0.13028 0.0
C1281 C 0.21476 0.65576 0.14206 0.0
C1282 C 0.18448 0.75606 0.09637 0.0
C1283 C 0.21099 0.79252 0.09384 0.0
C1284 C 0.18824 0.73328 0.10791 0.0
C1285 C 0.21864 0.74627 0.11724 0.0
C1286 C 0.24564 0.78235 0.11467 0.0
C1287 C 0.24185 0.80521 0.10309 0.0
H1288 H 0.74697 0.76459 0.91554 0.0
H1289 H 0.85903 0.8103 0.89444 0.0
H1290 H 0.70575 0.75894 0.89555 0.0
H1291 H 0.8179 0.80617 0.87455 0.0
H1292 H 0.74579 0.76389 0.83917 0.0
H1293 H 0.78629 0.75914 0.85927 0.0
H1294 H 0.67249 0.80359 0.87993 0.0
H1295 H 0.63198 0.80677 0.85988 0.0
C1296 C 0.76264 0.77354 0.9066 0.0
C1297 C 0.80615 0.78764 0.90651 0.0
C1298 C 0.73909 0.77048 0.89516 0.0
C1299 C 0.75842 0.78209 0.88339 0.0
C1300 C 0.80214 0.79602 0.88335 0.0
C1301 C 0.82577 0.79853 0.89477 0.0
C1302 C 0.72953 0.7723 0.84805 0.0
C1303 C 0.68583 0.78567 0.84798 0.0
C1304 C 0.7527 0.76982 0.85956 0.0
C1305 C 0.73283 0.78129 0.87125 0.0
C1306 C 0.68874 0.7938 0.87117 0.0
C1307 C 0.66546 0.79572 0.85967 0.0
H1308 H 0.80328 0.12194 0.11016 0.0
H1309 H 0.80887 0.24262 0.08886 0.0
H1310 H 0.79905 0.16287 0.13018 0.0
H1311 H 0.80555 0.28366 0.10892 0.0
H1312 H 0.75871 0.34104 0.14729 0.0
H1313 H 0.75527 0.29923 0.12741 0.0
H1314 H 0.85111 0.20964 0.14228 0.0
H1315 H 0.85536 0.25152 0.16197 0.0
C1316 C 0.80314 0.1572 0.10975 0.0
C1317 C 0.80651 0.17908 0.09794 0.0
C1318 C 0.80112 0.18063 0.12121 0.0
C1319 C 0.80213 0.22643 0.12111 0.0
C1320 C 0.8044 0.24837 0.10929 0.0
C1321 C 0.80675 0.22491 0.09782 0.0
C1322 C 0.77923 0.31259 0.14632 0.0
C1323 C 0.80737 0.29986 0.1563 0.0
C1324 C 0.77715 0.28861 0.13493 0.0
C1325 C 0.80286 0.25116 0.13332 0.0
C1326 C 0.8304 0.23799 0.14334 0.0
C1327 C 0.83273 0.26208 0.15466 0.0
loop_
_geom_bond_atom_site_label_1
_geom_bond_atom_site_label_2
_geom_bond_distance
_geom_bond_site_symmetry_2
_ccdc_geom_bond_type
Co0 N4 2.148 . S
Co0 N10 2.128 1_455 S
Co0 N20 2.194 . S
Co0 O25 2.351 1_455 S
Co0 O26 2.155 . S
Co0 O27 2.096 . S
C1 N4 1.301 . S
C1 N5 1.328 . S
C1 H6 0.930 . S
C2 C3 1.333 . S
C2 N4 1.317 . S
C2 H7 0.930 . S
C3 C2 1.333 . S
C3 N5 1.350 . S
C3 H29 0.931 . S
N4 Co0 2.148 . S
N4 C1 1.301 . S
N4 C2 1.317 . S
N5 C1 1.328 . S
N5 C3 1.350 . S
H6 C1 0.930 . S
H7 C2 0.930 . S
C8 O9 1.224 . S
C8 O27 1.247 . S
O9 C8 1.224 . S
N10 Co0 2.128 1_655 S
N10 C11 1.355 . S
N10 C13 1.311 . S
C11 N10 1.355 . S
C11 C12 1.363 . S
C11 H23 0.929 . S
C12 C11 1.363 . S
C12 N14 1.375 . S
C12 H30 0.931 . S
C13 N10 1.311 . S
C13 N14 1.347 . S
C13 H24 0.929 . S
N14 C12 1.375 . S
N14 C13 1.347 . S
C15 C18 1.365 . S
C15 N20 1.328 1_655 S
C15 H21 0.929 . S
C16 C17 1.362 1_455 S
C16 C19 1.378 . S
C16 H31 0.929 . S
C17 C16 1.362 1_655 S
C17 C18 1.366 . S
C18 C15 1.365 . S
C18 C17 1.366 . S
C18 H32 0.930 . S
C19 C16 1.378 . S
C19 N20 1.315 . S
C19 H22 0.930 . S
N20 Co0 2.194 . S
N20 C15 1.328 1_455 S
N20 C19 1.315 . S
H21 C15 0.929 . S
H22 C19 0.930 . S
H23 C11 0.929 . S
H24 C13 0.929 . S
O25 Co0 2.351 1_655 S
O25 C28 1.244 . S
O26 Co0 2.155 . S
O26 C28 1.240 1_455 S
O27 Co0 2.096 . S
O27 C8 1.247 . S
C28 O25 1.244 . S
C28 O26 1.240 1_655 S
H29 C3 0.931 . S
H30 C12 0.931 . S
H31 C16 0.929 . S
H32 C18 0.930 . S
Co33 N37 2.148 . S
Co33 N43 2.128 1_565 S
Co33 N53 2.194 . S
Co33 O58 2.351 1_565 S
Co33 O59 2.155 . S
Co33 O60 2.096 . S
C34 N37 1.301 . S
C34 N38 1.328 . S
C34 H39 0.930 . S
C35 C36 1.333 . S
C35 N37 1.317 . S
C35 H40 0.930 . S
C36 C35 1.333 . S
C36 N38 1.350 . S
C36 H62 0.931 . S
N37 Co33 2.148 . S
N37 C34 1.301 . S
N37 C35 1.317 . S
N38 C34 1.328 . S
N38 C36 1.350 . S
H39 C34 0.930 . S
H40 C35 0.930 . S
C41 O42 1.224 . S
C41 O60 1.247 . S
O42 C41 1.224 . S
N43 Co33 2.128 1_545 S
N43 C44 1.355 . S
N43 C46 1.311 . S
C44 N43 1.355 . S
C44 C45 1.363 . S
C44 H56 0.929 . S
C45 C44 1.363 . S
C45 N47 1.375 . S
C45 H63 0.931 . S
C46 N43 1.311 . S
C46 N47 1.347 . S
C46 H57 0.929 . S
N47 C45 1.375 . S
N47 C46 1.347 . S
C48 C51 1.365 . S
C48 N53 1.328 1_545 S
C48 H54 0.929 . S
C49 C50 1.362 1_565 S
C49 C52 1.378 . S
C49 H64 0.929 . S
C50 C49 1.362 1_545 S
C50 C51 1.366 . S
C51 C48 1.365 . S
C51 C50 1.366 . S
C51 H65 0.930 . S
C52 C49 1.378 . S
C52 N53 1.315 . S
C52 H55 0.930 . S
N53 Co33 2.194 . S
N53 C48 1.328 1_565 S
N53 C52 1.315 . S
H54 C48 0.929 . S
H55 C52 0.930 . S
H56 C44 0.929 . S
H57 C46 0.929 . S
O58 Co33 2.351 1_545 S
O58 C61 1.244 . S
O59 Co33 2.155 . S
O59 C61 1.240 1_565 S
O60 Co33 2.096 . S
O60 C41 1.247 . S
C61 O58 1.244 . S
C61 O59 1.240 1_545 S
H62 C36 0.931 . S
H63 C45 0.931 . S
H64 C49 0.929 . S
H65 C51 0.930 . S
Co66 N70 2.148 . S
Co66 N76 2.128 1_655 S
Co66 N86 2.194 . S
Co66 O91 2.351 1_655 S
Co66 O92 2.155 . S
Co66 O93 2.096 . S
C67 N70 1.301 . S
C67 N71 1.328 . S
C67 H72 0.930 . S
C68 C69 1.333 . S
C68 N70 1.317 . S
C68 H73 0.930 . S
C69 C68 1.333 . S
C69 N71 1.350 . S
C69 H95 0.931 . S
N70 Co66 2.148 . S
N70 C67 1.301 . S
N70 C68 1.317 . S
N71 C67 1.328 . S
N71 C69 1.350 . S
H72 C67 0.930 . S
H73 C68 0.930 . S
C74 O75 1.224 . S
C74 O93 1.247 . S
O75 C74 1.224 . S
N76 Co66 2.128 1_455 S
N76 C77 1.355 . S
N76 C79 1.311 . S
C77 N76 1.355 . S
C77 C78 1.363 . S
C77 H89 0.929 . S
C78 C77 1.363 . S
C78 N80 1.375 . S
C78 H96 0.931 . S
C79 N76 1.311 . S
C79 N80 1.347 . S
C79 H90 0.929 . S
N80 C78 1.375 . S
N80 C79 1.347 . S
C81 C84 1.365 . S
C81 N86 1.328 1_455 S
C81 H87 0.929 . S
C82 C83 1.362 1_655 S
C82 C85 1.378 . S
C82 H97 0.929 . S
C83 C82 1.362 1_455 S
C83 C84 1.366 . S
C84 C81 1.365 . S
C84 C83 1.366 . S
C84 H98 0.930 . S
C85 C82 1.378 . S
C85 N86 1.315 . S
C85 H88 0.930 . S
N86 Co66 2.194 . S
N86 C81 1.328 1_655 S
N86 C85 1.315 . S
H87 C81 0.929 . S
H88 C85 0.930 . S
H89 C77 0.929 . S
H90 C79 0.929 . S
O91 Co66 2.351 1_455 S
O91 C94 1.244 . S
O92 Co66 2.155 . S
O92 C94 1.240 1_655 S
O93 Co66 2.096 . S
O93 C74 1.247 . S
C94 O91 1.244 . S
C94 O92 1.240 1_455 S
H95 C69 0.931 . S
H96 C78 0.931 . S
H97 C82 0.929 . S
H98 C84 0.930 . S
Co99 N103 2.148 . S
Co99 N109 2.128 1_545 S
Co99 N119 2.194 . S
Co99 O124 2.351 1_545 S
Co99 O125 2.155 . S
Co99 O126 2.096 . S
C100 N103 1.301 . S
C100 N104 1.328 . S
C100 H105 0.930 . S
C101 C102 1.333 . S
C101 N103 1.317 . S
C101 H106 0.930 . S
C102 C101 1.333 . S
C102 N104 1.350 . S
C102 H128 0.931 . S
N103 Co99 2.148 . S
N103 C100 1.301 . S
N103 C101 1.317 . S
N104 C100 1.328 . S
N104 C102 1.350 . S
H105 C100 0.930 . S
H106 C101 0.930 . S
C107 O108 1.224 . S
C107 O126 1.247 . S
O108 C107 1.224 . S
N109 Co99 2.128 1_565 S
N109 C110 1.355 . S
N109 C112 1.311 . S
C110 N109 1.355 . S
C110 C111 1.363 . S
C110 H122 0.929 . S
C111 C110 1.363 . S
C111 N113 1.375 . S
C111 H129 0.931 . S
C112 N109 1.311 . S
C112 N113 1.347 . S
C112 H123 0.929 . S
N113 C111 1.375 . S
N113 C112 1.347 . S
C114 C117 1.365 . S
C114 N119 1.328 1_565 S
C114 H120 0.929 . S
C115 C116 1.362 1_545 S
C115 C118 1.378 . S
C115 H130 0.929 . S
C116 C115 1.362 1_565 S
C116 C117 1.366 . S
C117 C114 1.365 . S
C117 C116 1.366 . S
C117 H131 0.930 . S
C118 C115 1.378 . S
C118 N119 1.315 . S
C118 H121 0.930 . S
N119 Co99 2.194 . S
N119 C114 1.328 1_545 S
N119 C118 1.315 . S
H120 C114 0.929 . S
H121 C118 0.930 . S
H122 C110 0.929 . S
H123 C112 0.929 . S
O124 Co99 2.351 1_565 S
O124 C127 1.244 . S
O125 Co99 2.155 . S
O125 C127 1.240 1_545 S
O126 Co99 2.096 . S
O126 C107 1.247 . S
C127 O124 1.244 . S
C127 O125 1.240 1_565 S
H128 C102 0.931 . S
H129 C111 0.931 . S
H130 C115 0.929 . S
H131 C117 0.930 . S
Co132 N136 2.148 . S
Co132 N142 2.128 1_455 S
Co132 N152 2.194 . S
Co132 O157 2.351 1_455 S
Co132 O158 2.155 . S
Co132 O159 2.096 . S
C133 N136 1.301 . S
C133 N137 1.328 . S
C133 H138 0.930 . S
C134 C135 1.333 . S
C134 N136 1.317 . S
C134 H139 0.930 . S
C135 C134 1.333 . S
C135 N137 1.350 . S
C135 H161 0.931 . S
N136 Co132 2.148 . S
N136 C133 1.301 . S
N136 C134 1.317 . S
N137 C133 1.328 . S
N137 C135 1.350 . S
H138 C133 0.930 . S
H139 C134 0.930 . S
C140 O141 1.224 . S
C140 O159 1.247 . S
O141 C140 1.224 . S
N142 Co132 2.128 1_655 S
N142 C143 1.355 . S
N142 C145 1.311 . S
C143 N142 1.355 . S
C143 C144 1.363 . S
C143 H155 0.929 . S
C144 C143 1.363 . S
C144 N146 1.375 . S
C144 H162 0.931 . S
C145 N142 1.311 . S
C145 N146 1.347 . S
C145 H156 0.929 . S
N146 C144 1.375 . S
N146 C145 1.347 . S
C147 C150 1.365 . S
C147 N152 1.328 1_655 S
C147 H153 0.929 . S
C148 C149 1.362 1_455 S
C148 C151 1.378 . S
C148 H163 0.929 . S
C149 C148 1.362 1_655 S
C149 C150 1.366 . S
C150 C147 1.365 . S
C150 C149 1.366 . S
C150 H164 0.930 . S
C151 C148 1.378 . S
C151 N152 1.315 . S
C151 H154 0.930 . S
N152 Co132 2.194 . S
N152 C147 1.328 1_455 S
N152 C151 1.315 . S
H153 C147 0.929 . S
H154 C151 0.930 . S
H155 C143 0.929 . S
H156 C145 0.929 . S
O157 Co132 2.351 1_655 S
O157 C160 1.244 . S
O158 Co132 2.155 . S
O158 C160 1.240 1_455 S
O159 Co132 2.096 . S
O159 C140 1.247 . S
C160 O157 1.244 . S
C160 O158 1.240 1_655 S
H161 C135 0.931 . S
H162 C144 0.931 . S
H163 C148 0.929 . S
H164 C150 0.930 . S
Co165 N169 2.148 . S
Co165 N175 2.128 1_565 S
Co165 N185 2.194 . S
Co165 O190 2.351 1_565 S
Co165 O191 2.155 . S
Co165 O192 2.096 . S
C166 N169 1.301 . S
C166 N170 1.328 . S
C166 H171 0.930 . S
C167 C168 1.333 . S
C167 N169 1.317 . S
C167 H172 0.930 . S
C168 C167 1.333 . S
C168 N170 1.350 . S
C168 H194 0.931 . S
N169 Co165 2.148 . S
N169 C166 1.301 . S
N169 C167 1.317 . S
N170 C166 1.328 . S
N170 C168 1.350 . S
H171 C166 0.930 . S
H172 C167 0.930 . S
C173 O174 1.224 . S
C173 O192 1.247 . S
O174 C173 1.224 . S
N175 Co165 2.128 1_545 S
N175 C176 1.355 . S
N175 C178 1.311 . S
C176 N175 1.355 . S
C176 C177 1.363 . S
C176 H188 0.929 . S
C177 C176 1.363 . S
C177 N179 1.375 . S
C177 H195 0.931 . S
C178 N175 1.311 . S
C178 N179 1.347 . S
C178 H189 0.929 . S
N179 C177 1.375 . S
N179 C178 1.347 . S
C180 C183 1.365 . S
C180 N185 1.328 1_545 S
C180 H186 0.929 . S
C181 C182 1.362 1_565 S
C181 C184 1.378 . S
C181 H196 0.929 . S
C182 C181 1.362 1_545 S
C182 C183 1.366 . S
C183 C180 1.365 . S
C183 C182 1.366 . S
C183 H197 0.930 . S
C184 C181 1.378 . S
C184 N185 1.315 . S
C184 H187 0.930 . S
N185 Co165 2.194 . S
N185 C180 1.328 1_565 S
N185 C184 1.315 . S
H186 C180 0.929 . S
H187 C184 0.930 . S
H188 C176 0.929 . S
H189 C178 0.929 . S
O190 Co165 2.351 1_545 S
O190 C193 1.244 . S
O191 Co165 2.155 . S
O191 C193 1.240 1_565 S
O192 Co165 2.096 . S
O192 C173 1.247 . S
C193 O190 1.244 . S
C193 O191 1.240 1_545 S
H194 C168 0.931 . S
H195 C177 0.931 . S
H196 C181 0.929 . S
H197 C183 0.930 . S
Co198 N202 2.148 . S
Co198 N208 2.128 1_655 S
Co198 N218 2.194 . S
Co198 O223 2.351 1_655 S
Co198 O224 2.155 . S
Co198 O225 2.096 . S
C199 N202 1.301 . S
C199 N203 1.328 . S
C199 H204 0.930 . S
C200 C201 1.333 . S
C200 N202 1.317 . S
C200 H205 0.930 . S
C201 C200 1.333 . S
C201 N203 1.350 . S
C201 H227 0.931 . S
N202 Co198 2.148 . S
N202 C199 1.301 . S
N202 C200 1.317 . S
N203 C199 1.328 . S
N203 C201 1.350 . S
H204 C199 0.930 . S
H205 C200 0.930 . S
C206 O207 1.224 . S
C206 O225 1.247 . S
O207 C206 1.224 . S
N208 Co198 2.128 1_455 S
N208 C209 1.355 . S
N208 C211 1.311 . S
C209 N208 1.355 . S
C209 C210 1.363 . S
C209 H221 0.929 . S
C210 C209 1.363 . S
C210 N212 1.375 . S
C210 H228 0.931 . S
C211 N208 1.311 . S
C211 N212 1.347 . S
C211 H222 0.929 . S
N212 C210 1.375 . S
N212 C211 1.347 . S
C213 C216 1.365 . S
C213 N218 1.328 1_455 S
C213 H219 0.929 . S
C214 C215 1.362 1_655 S
C214 C217 1.378 . S
C214 H229 0.929 . S
C215 C214 1.362 1_455 S
C215 C216 1.366 . S
C216 C213 1.365 . S
C216 C215 1.366 . S
C216 H230 0.930 . S
C217 C214 1.378 . S
C217 N218 1.315 . S
C217 H220 0.930 . S
N218 Co198 2.194 . S
N218 C213 1.328 1_655 S
N218 C217 1.315 . S
H219 C213 0.929 . S
H220 C217 0.930 . S
H221 C209 0.929 . S
H222 C211 0.929 . S
O223 Co198 2.351 1_455 S
O223 C226 1.244 . S
O224 Co198 2.155 . S
O224 C226 1.240 1_655 S
O225 Co198 2.096 . S
O225 C206 1.247 . S
C226 O223 1.244 . S
C226 O224 1.240 1_455 S
H227 C201 0.931 . S
H228 C210 0.931 . S
H229 C214 0.929 . S
H230 C216 0.930 . S
Co231 N235 2.148 . S
Co231 N241 2.128 1_545 S
Co231 N251 2.194 . S
Co231 O256 2.351 1_545 S
Co231 O257 2.155 . S
Co231 O258 2.096 . S
C232 N235 1.301 . S
C232 N236 1.328 . S
C232 H237 0.930 . S
C233 C234 1.333 . S
C233 N235 1.317 . S
C233 H238 0.930 . S
C234 C233 1.333 . S
C234 N236 1.350 . S
C234 H260 0.931 . S
N235 Co231 2.148 . S
N235 C232 1.301 . S
N235 C233 1.317 . S
N236 C232 1.328 . S
N236 C234 1.350 . S
H237 C232 0.930 . S
H238 C233 0.930 . S
C239 O240 1.224 . S
C239 O258 1.247 . S
O240 C239 1.224 . S
N241 Co231 2.128 1_565 S
N241 C242 1.355 . S
N241 C244 1.311 . S
C242 N241 1.355 . S
C242 C243 1.363 . S
C242 H254 0.929 . S
C243 C242 1.363 . S
C243 N245 1.375 . S
C243 H261 0.931 . S
C244 N241 1.311 . S
C244 N245 1.347 . S
C244 H255 0.929 . S
N245 C243 1.375 . S
N245 C244 1.347 . S
C246 C249 1.365 . S
C246 N251 1.328 1_565 S
C246 H252 0.929 . S
C247 C248 1.362 1_545 S
C247 C250 1.378 . S
C247 H262 0.929 . S
C248 C247 1.362 1_565 S
C248 C249 1.366 . S
C249 C246 1.365 . S
C249 C248 1.366 . S
C249 H263 0.930 . S
C250 C247 1.378 . S
C250 N251 1.315 . S
C250 H253 0.930 . S
N251 Co231 2.194 . S
N251 C246 1.328 1_545 S
N251 C250 1.315 . S
H252 C246 0.929 . S
H253 C250 0.930 . S
H254 C242 0.929 . S
H255 C244 0.929 . S
O256 Co231 2.351 1_565 S
O256 C259 1.244 . S
O257 Co231 2.155 . S
O257 C259 1.240 1_545 S
O258 Co231 2.096 . S
O258 C239 1.247 . S
C259 O256 1.244 . S
C259 O257 1.240 1_565 S
H260 C234 0.931 . S
H261 C243 0.931 . S
H262 C247 0.929 . S
H263 C249 0.930 . S
Co264 N268 2.148 . S
Co264 N274 2.128 . S
Co264 N284 2.194 . S
Co264 O289 2.351 . S
Co264 O290 2.155 . S
Co264 O291 2.096 . S
C265 N268 1.301 . S
C265 N269 1.328 . S
C265 H270 0.930 . S
C266 C267 1.333 . S
C266 N268 1.317 . S
C266 H271 0.930 . S
C267 C266 1.333 . S
C267 N269 1.350 . S
C267 H293 0.931 . S
N268 Co264 2.148 . S
N268 C265 1.301 . S
N268 C266 1.317 . S
N269 C265 1.328 . S
N269 C267 1.350 . S
H270 C265 0.930 . S
H271 C266 0.930 . S
C272 O273 1.224 . S
C272 O291 1.247 . S
O273 C272 1.224 . S
N274 Co264 2.128 . S
N274 C275 1.355 . S
N274 C277 1.311 . S
C275 N274 1.355 . S
C275 C276 1.363 . S
C275 H287 0.929 . S
C276 C275 1.363 . S
C276 N278 1.375 . S
C276 H294 0.931 . S
C277 N274 1.311 . S
C277 N278 1.347 . S
C277 H288 0.929 . S
N278 C276 1.375 . S
N278 C277 1.347 . S
C279 C282 1.365 . S
C279 N284 1.328 . S
C279 H285 0.929 . S
C280 C281 1.362 . S
C280 C283 1.378 . S
C280 H295 0.929 . S
C281 C280 1.362 . S
C281 C282 1.366 . S
C282 C279 1.365 . S
C282 C281 1.366 . S
C282 H296 0.930 . S
C283 C280 1.378 . S
C283 N284 1.315 . S
C283 H286 0.930 . S
N284 Co264 2.194 . S
N284 C279 1.328 . S
N284 C283 1.315 . S
H285 C279 0.929 . S
H286 C283 0.930 . S
H287 C275 0.929 . S
H288 C277 0.929 . S
O289 Co264 2.351 . S
O289 C292 1.244 . S
O290 Co264 2.155 . S
O290 C292 1.240 . S
O291 Co264 2.096 . S
O291 C272 1.247 . S
C292 O289 1.244 . S
C292 O290 1.240 . S
H293 C267 0.931 . S
H294 C276 0.931 . S
H295 C280 0.929 . S
H296 C282 0.930 . S
Co297 N301 2.148 . S
Co297 N307 2.128 . S
Co297 N317 2.194 . S
Co297 O322 2.351 . S
Co297 O323 2.155 . S
Co297 O324 2.096 . S
C298 N301 1.301 . S
C298 N302 1.328 . S
C298 H303 0.930 . S
C299 C300 1.333 . S
C299 N301 1.317 . S
C299 H304 0.930 . S
C300 C299 1.333 . S
C300 N302 1.350 . S
C300 H326 0.931 . S
N301 Co297 2.148 . S
N301 C298 1.301 . S
N301 C299 1.317 . S
N302 C298 1.328 . S
N302 C300 1.350 . S
H303 C298 0.930 . S
H304 C299 0.930 . S
C305 O306 1.224 . S
C305 O324 1.247 . S
O306 C305 1.224 . S
N307 Co297 2.128 . S
N307 C308 1.355 . S
N307 C310 1.311 . S
C308 N307 1.355 . S
C308 C309 1.363 . S
C308 H320 0.929 . S
C309 C308 1.363 . S
C309 N311 1.375 . S
C309 H327 0.931 . S
C310 N307 1.311 . S
C310 N311 1.347 . S
C310 H321 0.929 . S
N311 C309 1.375 . S
N311 C310 1.347 . S
C312 C315 1.365 . S
C312 N317 1.328 . S
C312 H318 0.929 . S
C313 C314 1.362 . S
C313 C316 1.378 . S
C313 H328 0.929 . S
C314 C313 1.362 . S
C314 C315 1.366 . S
C315 C312 1.365 . S
C315 C314 1.366 . S
C315 H329 0.930 . S
C316 C313 1.378 . S
C316 N317 1.315 . S
C316 H319 0.930 . S
N317 Co297 2.194 . S
N317 C312 1.328 . S
N317 C316 1.315 . S
H318 C312 0.929 . S
H319 C316 0.930 . S
H320 C308 0.929 . S
H321 C310 0.929 . S
O322 Co297 2.351 . S
O322 C325 1.244 . S
O323 Co297 2.155 . S
O323 C325 1.240 . S
O324 Co297 2.096 . S
O324 C305 1.247 . S
C325 O322 1.244 . S
C325 O323 1.240 . S
H326 C300 0.931 . S
H327 C309 0.931 . S
H328 C313 0.929 . S
H329 C315 0.930 . S
Co330 N334 2.148 . S
Co330 N340 2.128 . S
Co330 N350 2.194 . S
Co330 O355 2.351 . S
Co330 O356 2.155 . S
Co330 O357 2.096 . S
C331 N334 1.301 . S
C331 N335 1.328 . S
C331 H336 0.930 . S
C332 C333 1.333 . S
C332 N334 1.317 . S
C332 H337 0.930 . S
C333 C332 1.333 . S
C333 N335 1.350 . S
C333 H359 0.931 . S
N334 Co330 2.148 . S
N334 C331 1.301 . S
N334 C332 1.317 . S
N335 C331 1.328 . S
N335 C333 1.350 . S
H336 C331 0.930 . S
H337 C332 0.930 . S
C338 O339 1.224 . S
C338 O357 1.247 . S
O339 C338 1.224 . S
N340 Co330 2.128 . S
N340 C341 1.355 . S
N340 C343 1.311 . S
C341 N340 1.355 . S
C341 C342 1.363 . S
C341 H353 0.929 . S
C342 C341 1.363 . S
C342 N344 1.375 . S
C342 H360 0.931 . S
C343 N340 1.311 . S
C343 N344 1.347 . S
C343 H354 0.929 . S
N344 C342 1.375 . S
N344 C343 1.347 . S
C345 C348 1.365 . S
C345 N350 1.328 . S
C345 H351 0.929 . S
C346 C347 1.362 . S
C346 C349 1.378 . S
C346 H361 0.929 . S
C347 C346 1.362 . S
C347 C348 1.366 . S
C348 C345 1.365 . S
C348 C347 1.366 . S
C348 H362 0.930 . S
C349 C346 1.378 . S
C349 N350 1.315 . S
C349 H352 0.930 . S
N350 Co330 2.194 . S
N350 C345 1.328 . S
N350 C349 1.315 . S
H351 C345 0.929 . S
H352 C349 0.930 . S
H353 C341 0.929 . S
H354 C343 0.929 . S
O355 Co330 2.351 . S
O355 C358 1.244 . S
O356 Co330 2.155 . S
O356 C358 1.240 . S
O357 Co330 2.096 . S
O357 C338 1.247 . S
C358 O355 1.244 . S
C358 O356 1.240 . S
H359 C333 0.931 . S
H360 C342 0.931 . S
H361 C346 0.929 . S
H362 C348 0.930 . S
Co363 N367 2.148 . S
Co363 N373 2.128 . S
Co363 N383 2.194 . S
Co363 O388 2.351 . S
Co363 O389 2.155 . S
Co363 O390 2.096 . S
C364 N367 1.301 . S
C364 N368 1.328 . S
C364 H369 0.930 . S
C365 C366 1.333 . S
C365 N367 1.317 . S
C365 H370 0.930 . S
C366 C365 1.333 . S
C366 N368 1.350 . S
C366 H392 0.931 . S
N367 Co363 2.148 . S
N367 C364 1.301 . S
N367 C365 1.317 . S
N368 C364 1.328 . S
N368 C366 1.350 . S
H369 C364 0.930 . S
H370 C365 0.930 . S
C371 O372 1.224 . S
C371 O390 1.247 . S
O372 C371 1.224 . S
N373 Co363 2.128 . S
N373 C374 1.355 . S
N373 C376 1.311 . S
C374 N373 1.355 . S
C374 C375 1.363 . S
C374 H386 0.929 . S
C375 C374 1.363 . S
C375 N377 1.375 . S
C375 H393 0.931 . S
C376 N373 1.311 . S
C376 N377 1.347 . S
C376 H387 0.929 . S
N377 C375 1.375 . S
N377 C376 1.347 . S
C378 C381 1.365 . S
C378 N383 1.328 . S
C378 H384 0.929 . S
C379 C380 1.362 . S
C379 C382 1.378 . S
C379 H394 0.929 . S
C380 C379 1.362 . S
C380 C381 1.366 . S
C381 C378 1.365 . S
C381 C380 1.366 . S
C381 H395 0.930 . S
C382 C379 1.378 . S
C382 N383 1.315 . S
C382 H385 0.930 . S
N383 Co363 2.194 . S
N383 C378 1.328 . S
N383 C382 1.315 . S
H384 C378 0.929 . S
H385 C382 0.930 . S
H386 C374 0.929 . S
H387 C376 0.929 . S
O388 Co363 2.351 . S
O388 C391 1.244 . S
O389 Co363 2.155 . S
O389 C391 1.240 . S
O390 Co363 2.096 . S
O390 C371 1.247 . S
C391 O388 1.244 . S
C391 O389 1.240 . S
H392 C366 0.931 . S
H393 C375 0.931 . S
H394 C379 0.929 . S
H395 C381 0.930 . S
Co396 N400 2.148 . S
Co396 N406 2.128 . S
Co396 N416 2.194 . S
Co396 O421 2.351 . S
Co396 O422 2.155 . S
Co396 O423 2.096 . S
C397 N400 1.301 . S
C397 N401 1.328 . S
C397 H402 0.930 . S
C398 C399 1.333 . S
C398 N400 1.317 . S
C398 H403 0.930 . S
C399 C398 1.333 . S
C399 N401 1.350 . S
C399 H425 0.931 . S
N400 Co396 2.148 . S
N400 C397 1.301 . S
N400 C398 1.317 . S
N401 C397 1.328 . S
N401 C399 1.350 . S
H402 C397 0.930 . S
H403 C398 0.930 . S
C404 O405 1.224 . S
C404 O423 1.247 . S
O405 C404 1.224 . S
N406 Co396 2.128 . S
N406 C407 1.355 . S
N406 C409 1.311 . S
C407 N406 1.355 . S
C407 C408 1.363 . S
C407 H419 0.929 . S
C408 C407 1.363 . S
C408 N410 1.375 . S
C408 H426 0.931 . S
C409 N406 1.311 . S
C409 N410 1.347 . S
C409 H420 0.929 . S
N410 C408 1.375 . S
N410 C409 1.347 . S
C411 C414 1.365 . S
C411 N416 1.328 . S
C411 H417 0.929 . S
C412 C413 1.362 . S
C412 C415 1.378 . S
C412 H427 0.929 . S
C413 C412 1.362 . S
C413 C414 1.366 . S
C414 C411 1.365 . S
C414 C413 1.366 . S
C414 H428 0.930 . S
C415 C412 1.378 . S
C415 N416 1.315 . S
C415 H418 0.930 . S
N416 Co396 2.194 . S
N416 C411 1.328 . S
N416 C415 1.315 . S
H417 C411 0.929 . S
H418 C415 0.930 . S
H419 C407 0.929 . S
H420 C409 0.929 . S
O421 Co396 2.351 . S
O421 C424 1.244 . S
O422 Co396 2.155 . S
O422 C424 1.240 . S
O423 Co396 2.096 . S
O423 C404 1.247 . S
C424 O421 1.244 . S
C424 O422 1.240 . S
H425 C399 0.931 . S
H426 C408 0.931 . S
H427 C412 0.929 . S
H428 C414 0.930 . S
Co429 N433 2.148 . S
Co429 N439 2.128 . S
Co429 N449 2.194 . S
Co429 O454 2.351 . S
Co429 O455 2.155 . S
Co429 O456 2.096 . S
C430 N433 1.301 . S
C430 N434 1.328 . S
C430 H435 0.930 . S
C431 C432 1.333 . S
C431 N433 1.317 . S
C431 H436 0.930 . S
C432 C431 1.333 . S
C432 N434 1.350 . S
C432 H458 0.931 . S
N433 Co429 2.148 . S
N433 C430 1.301 . S
N433 C431 1.317 . S
N434 C430 1.328 . S
N434 C432 1.350 . S
H435 C430 0.930 . S
H436 C431 0.930 . S
C437 O438 1.224 . S
C437 O456 1.247 . S
O438 C437 1.224 . S
N439 Co429 2.128 . S
N439 C440 1.355 . S
N439 C442 1.311 . S
C440 N439 1.355 . S
C440 C441 1.363 . S
C440 H452 0.929 . S
C441 C440 1.363 . S
C441 N443 1.375 . S
C441 H459 0.931 . S
C442 N439 1.311 . S
C442 N443 1.347 . S
C442 H453 0.929 . S
N443 C441 1.375 . S
N443 C442 1.347 . S
C444 C447 1.365 . S
C444 N449 1.328 . S
C444 H450 0.929 . S
C445 C446 1.362 . S
C445 C448 1.378 . S
C445 H460 0.929 . S
C446 C445 1.362 . S
C446 C447 1.366 . S
C447 C444 1.365 . S
C447 C446 1.366 . S
C447 H461 0.930 . S
C448 C445 1.378 . S
C448 N449 1.315 . S
C448 H451 0.930 . S
N449 Co429 2.194 . S
N449 C444 1.328 . S
N449 C448 1.315 . S
H450 C444 0.929 . S
H451 C448 0.930 . S
H452 C440 0.929 . S
H453 C442 0.929 . S
O454 Co429 2.351 . S
O454 C457 1.244 . S
O455 Co429 2.155 . S
O455 C457 1.240 . S
O456 Co429 2.096 . S
O456 C437 1.247 . S
C457 O454 1.244 . S
C457 O455 1.240 . S
H458 C432 0.931 . S
H459 C441 0.931 . S
H460 C445 0.929 . S
H461 C447 0.930 . S
Co462 N466 2.148 . S
Co462 N472 2.128 . S
Co462 N482 2.194 . S
Co462 O487 2.351 . S
Co462 O488 2.155 . S
Co462 O489 2.096 . S
C463 N466 1.301 . S
C463 N467 1.328 . S
C463 H468 0.930 . S
C464 C465 1.333 . S
C464 N466 1.317 . S
C464 H469 0.930 . S
C465 C464 1.333 . S
C465 N467 1.350 . S
C465 H491 0.931 . S
N466 Co462 2.148 . S
N466 C463 1.301 . S
N466 C464 1.317 . S
N467 C463 1.328 . S
N467 C465 1.350 . S
H468 C463 0.930 . S
H469 C464 0.930 . S
C470 O471 1.224 . S
C470 O489 1.247 . S
O471 C470 1.224 . S
N472 Co462 2.128 . S
N472 C473 1.355 . S
N472 C475 1.311 . S
C473 N472 1.355 . S
C473 C474 1.363 . S
C473 H485 0.929 . S
C474 C473 1.363 . S
C474 N476 1.375 . S
C474 H492 0.931 . S
C475 N472 1.311 . S
C475 N476 1.347 . S
C475 H486 0.929 . S
N476 C474 1.375 . S
N476 C475 1.347 . S
C477 C480 1.365 . S
C477 N482 1.328 . S
C477 H483 0.929 . S
C478 C479 1.362 . S
C478 C481 1.378 . S
C478 H493 0.929 . S
C479 C478 1.362 . S
C479 C480 1.366 . S
C480 C477 1.365 . S
C480 C479 1.366 . S
C480 H494 0.930 . S
C481 C478 1.378 . S
C481 N482 1.315 . S
C481 H484 0.930 . S
N482 Co462 2.194 . S
N482 C477 1.328 . S
N482 C481 1.315 . S
H483 C477 0.929 . S
H484 C481 0.930 . S
H485 C473 0.929 . S
H486 C475 0.929 . S
O487 Co462 2.351 . S
O487 C490 1.244 . S
O488 Co462 2.155 . S
O488 C490 1.240 . S
O489 Co462 2.096 . S
O489 C470 1.247 . S
C490 O487 1.244 . S
C490 O488 1.240 . S
H491 C465 0.931 . S
H492 C474 0.931 . S
H493 C478 0.929 . S
H494 C480 0.930 . S
Co495 N499 2.148 . S
Co495 N505 2.128 . S
Co495 N515 2.194 . S
Co495 O520 2.351 . S
Co495 O521 2.155 . S
Co495 O522 2.096 . S
C496 N499 1.301 . S
C496 N500 1.328 . S
C496 H501 0.930 . S
C497 C498 1.333 . S
C497 N499 1.317 . S
C497 H502 0.930 . S
C498 C497 1.333 . S
C498 N500 1.350 . S
C498 H524 0.931 . S
N499 Co495 2.148 . S
N499 C496 1.301 . S
N499 C497 1.317 . S
N500 C496 1.328 . S
N500 C498 1.350 . S
H501 C496 0.930 . S
H502 C497 0.930 . S
C503 O504 1.224 . S
C503 O522 1.247 . S
O504 C503 1.224 . S
N505 Co495 2.128 . S
N505 C506 1.355 . S
N505 C508 1.311 . S
C506 N505 1.355 . S
C506 C507 1.363 . S
C506 H518 0.929 . S
C507 C506 1.363 . S
C507 N509 1.375 . S
C507 H525 0.931 . S
C508 N505 1.311 . S
C508 N509 1.347 . S
C508 H519 0.929 . S
N509 C507 1.375 . S
N509 C508 1.347 . S
C510 C513 1.365 . S
C510 N515 1.328 . S
C510 H516 0.929 . S
C511 C512 1.362 . S
C511 C514 1.378 . S
C511 H526 0.929 . S
C512 C511 1.362 . S
C512 C513 1.366 . S
C513 C510 1.365 . S
C513 C512 1.366 . S
C513 H527 0.930 . S
C514 C511 1.378 . S
C514 N515 1.315 . S
C514 H517 0.930 . S
N515 Co495 2.194 . S
N515 C510 1.328 . S
N515 C514 1.315 . S
H516 C510 0.929 . S
H517 C514 0.930 . S
H518 C506 0.929 . S
H519 C508 0.929 . S
O520 Co495 2.351 . S
O520 C523 1.244 . S
O521 Co495 2.155 . S
O521 C523 1.240 . S
O522 Co495 2.096 . S
O522 C503 1.247 . S
C523 O520 1.244 . S
C523 O521 1.240 . S
H524 C498 0.931 . S
H525 C507 0.931 . S
H526 C511 0.929 . S
H527 C513 0.930 . S
H528 C536 0.950 . S
H529 C541 0.950 . S
H530 C538 0.950 . S
H531 C540 0.950 . S
H532 C542 0.950 . S
H533 C544 0.950 . S
H534 C546 0.950 . S
H535 C547 0.950 . S
C536 H528 0.950 . S
C536 C537 1.386 . S
C536 C538 1.391 . S
C537 C536 1.386 . S
C537 C541 1.393 . S
C538 H530 0.950 . S
C538 C536 1.391 . S
C538 C539 1.400 . S
C539 C538 1.400 . S
C539 C540 1.398 . S
C539 C545 1.491 . S
C540 H531 0.950 . S
C540 C539 1.398 . S
C540 C541 1.391 . S
C541 H529 0.950 . S
C541 C537 1.393 . S
C541 C540 1.391 . S
C542 H532 0.950 . S
C542 C543 1.386 . S
C542 C544 1.391 . S
C543 C542 1.386 . S
C543 C547 1.393 . S
C544 H533 0.950 . S
C544 C542 1.391 . S
C544 C545 1.400 . S
C545 C539 1.491 . S
C545 C544 1.400 . S
C545 C546 1.398 . S
C546 H534 0.950 . S
C546 C545 1.398 . S
C546 C547 1.391 . S
C547 H535 0.950 . S
C547 C543 1.393 . S
C547 C546 1.391 . S
H548 C556 0.950 . S
H549 C561 0.950 . S
H550 C558 0.950 . S
H551 C560 0.950 . S
H552 C562 0.950 . S
H553 C564 0.950 . S
H554 C566 0.950 . S
H555 C567 0.950 . S
C556 H548 0.950 . S
C556 C557 1.386 . S
C556 C558 1.391 . S
C557 C556 1.386 . S
C557 C561 1.393 . S
C558 H550 0.950 . S
C558 C556 1.391 . S
C558 C559 1.400 . S
C559 C558 1.400 . S
C559 C560 1.398 . S
C559 C565 1.491 . S
C560 H551 0.950 . S
C560 C559 1.398 . S
C560 C561 1.391 . S
C561 H549 0.950 . S
C561 C557 1.393 . S
C561 C560 1.391 . S
C562 H552 0.950 . S
C562 C563 1.386 . S
C562 C564 1.391 . S
C563 C562 1.386 . S
C563 C567 1.393 . S
C564 H553 0.950 . S
C564 C562 1.391 . S
C564 C565 1.400 . S
C565 C559 1.491 . S
C565 C564 1.400 . S
C565 C566 1.398 . S
C566 H554 0.950 . S
C566 C565 1.398 . S
C566 C567 1.391 . S
C567 H555 0.950 . S
C567 C563 1.393 . S
C567 C566 1.391 . S
H568 C576 0.950 . S
H569 C581 0.950 . S
H570 C578 0.950 . S
H571 C580 0.950 . S
H572 C582 0.950 . S
H573 C584 0.950 . S
H574 C586 0.950 . S
H575 C587 0.950 . S
C576 H568 0.950 . S
C576 C577 1.386 . S
C576 C578 1.391 . S
C577 C576 1.386 . S
C577 C581 1.393 . S
C578 H570 0.950 . S
C578 C576 1.391 . S
C578 C579 1.400 . S
C579 C578 1.400 . S
C579 C580 1.398 . S
C579 C585 1.491 . S
C580 H571 0.950 . S
C580 C579 1.398 . S
C580 C581 1.391 . S
C581 H569 0.950 . S
C581 C577 1.393 . S
C581 C580 1.391 . S
C582 H572 0.950 . S
C582 C583 1.386 . S
C582 C584 1.391 . S
C583 C582 1.386 . S
C583 C587 1.393 . S
C584 H573 0.950 . S
C584 C582 1.391 . S
C584 C585 1.400 . S
C585 C579 1.491 . S
C585 C584 1.400 . S
C585 C586 1.398 . S
C586 H574 0.950 . S
C586 C585 1.398 . S
C586 C587 1.391 . S
C587 H575 0.950 . S
C587 C583 1.393 . S
C587 C586 1.391 . S
H588 C596 0.950 . S
H589 C601 0.950 . S
H590 C598 0.950 . S
H591 C600 0.950 . S
H592 C602 0.950 . S
H593 C604 0.950 . S
H594 C606 0.950 . S
H595 C607 0.950 . S
C596 H588 0.950 . S
C596 C597 1.386 . S
C596 C598 1.391 . S
C597 C596 1.386 . S
C597 C601 1.393 . S
C598 H590 0.950 . S
C598 C596 1.391 . S
C598 C599 1.400 . S
C599 C598 1.400 . S
C599 C600 1.398 . S
C599 C605 1.491 . S
C600 H591 0.950 . S
C600 C599 1.398 . S
C600 C601 1.391 . S
C601 H589 0.950 . S
C601 C597 1.393 . S
C601 C600 1.391 . S
C602 H592 0.950 . S
C602 C603 1.386 . S
C602 C604 1.391 . S
C603 C602 1.386 . S
C603 C607 1.393 . S
C604 H593 0.950 . S
C604 C602 1.391 . S
C604 C605 1.400 . S
C605 C599 1.491 . S
C605 C604 1.400 . S
C605 C606 1.398 . S
C606 H594 0.950 . S
C606 C605 1.398 . S
C606 C607 1.391 . S
C607 H595 0.950 . S
C607 C603 1.393 . S
C607 C606 1.391 . S
H608 C616 0.950 . S
H609 C621 0.950 . S
H610 C618 0.950 1_556 S
H611 C620 0.950 . S
H612 C622 0.950 . S
H613 C624 0.950 . S
H614 C626 0.950 . S
H615 C627 0.950 . S
C616 H608 0.950 . S
C616 C617 1.386 . S
C616 C618 1.391 . S
C617 C616 1.386 . S
C617 C621 1.393 . S
C618 H610 0.950 1_554 S
C618 C616 1.391 . S
C618 C619 1.400 . S
C619 C618 1.400 . S
C619 C620 1.398 . S
C619 C625 1.491 1_554 S
C620 H611 0.950 . S
C620 C619 1.398 . S
C620 C621 1.391 . S
C621 H609 0.950 . S
C621 C617 1.393 . S
C621 C620 1.391 . S
C622 H612 0.950 . S
C622 C623 1.386 . S
C622 C624 1.391 . S
C623 C622 1.386 . S
C623 C627 1.393 . S
C624 H613 0.950 . S
C624 C622 1.391 . S
C624 C625 1.400 . S
C625 C619 1.491 1_556 S
C625 C624 1.400 . S
C625 C626 1.398 . S
C626 H614 0.950 . S
C626 C625 1.398 . S
C626 C627 1.391 . S
C627 H615 0.950 . S
C627 C623 1.393 . S
C627 C626 1.391 . S
H628 C636 0.950 . S
H629 C641 0.950 . S
H630 C638 0.950 1_554 S
H631 C640 0.950 . S
H632 C642 0.950 . S
H633 C644 0.950 . S
H634 C646 0.950 . S
H635 C647 0.950 . S
C636 H628 0.950 . S
C636 C637 1.386 . S
C636 C638 1.391 . S
C637 C636 1.386 . S
C637 C641 1.393 . S
C638 H630 0.950 1_556 S
C638 C636 1.391 . S
C638 C639 1.400 . S
C639 C638 1.400 . S
C639 C640 1.398 . S
C639 C645 1.491 1_556 S
C640 H631 0.950 . S
C640 C639 1.398 . S
C640 C641 1.391 . S
C641 H629 0.950 . S
C641 C637 1.393 . S
C641 C640 1.391 . S
C642 H632 0.950 . S
C642 C643 1.386 . S
C642 C644 1.391 . S
C643 C642 1.386 . S
C643 C647 1.393 . S
C644 H633 0.950 . S
C644 C642 1.391 . S
C644 C645 1.400 . S
C645 C639 1.491 1_554 S
C645 C644 1.400 . S
C645 C646 1.398 . S
C646 H634 0.950 . S
C646 C645 1.398 . S
C646 C647 1.391 . S
C647 H635 0.950 . S
C647 C643 1.393 . S
C647 C646 1.391 . S
H648 C656 0.950 . S
H649 C661 0.950 . S
H650 C658 0.950 . S
H651 C660 0.950 . S
H652 C662 0.950 . S
H653 C664 0.950 1_556 S
H654 C666 0.950 . S
H655 C667 0.950 . S
C656 H648 0.950 . S
C656 C657 1.386 . S
C656 C658 1.391 . S
C657 C656 1.386 . S
C657 C661 1.393 . S
C658 H650 0.950 . S
C658 C656 1.391 . S
C658 C659 1.400 . S
C659 C658 1.400 . S
C659 C660 1.398 . S
C659 C665 1.491 1_556 S
C660 H651 0.950 . S
C660 C659 1.398 . S
C660 C661 1.391 . S
C661 H649 0.950 . S
C661 C657 1.393 . S
C661 C660 1.391 . S
C662 H652 0.950 . S
C662 C663 1.386 . S
C662 C664 1.391 . S
C663 C662 1.386 . S
C663 C667 1.393 . S
C664 H653 0.950 1_554 S
C664 C662 1.391 . S
C664 C665 1.400 . S
C665 C659 1.491 1_554 S
C665 C664 1.400 . S
C665 C666 1.398 . S
C666 H654 0.950 . S
C666 C665 1.398 . S
C666 C667 1.391 . S
C667 H655 0.950 . S
C667 C663 1.393 . S
C667 C666 1.391 . S
H668 C676 0.950 . S
H669 C681 0.950 . S
H670 C678 0.950 . S
H671 C680 0.950 . S
H672 C682 0.950 . S
H673 C684 0.950 . S
H674 C686 0.911 1_554 S
H675 C687 0.950 . S
C676 H668 0.950 . S
C676 C677 1.386 . S
C676 C678 1.391 . S
C677 C676 1.386 . S
C677 C681 1.393 . S
C678 H670 0.950 . S
C678 C676 1.391 . S
C678 C679 1.400 . S
C679 C678 1.400 . S
C679 C680 1.398 . S
C679 C685 1.491 1_554 S
C680 H671 0.950 . S
C680 C679 1.398 . S
C680 C681 1.391 . S
C681 H669 0.950 . S
C681 C677 1.393 . S
C681 C680 1.391 . S
C682 H672 0.950 . S
C682 C683 1.386 . S
C682 C684 1.391 . S
C683 C682 1.386 . S
C683 C687 1.393 . S
C684 H673 0.950 . S
C684 C682 1.391 . S
C684 C685 1.400 . S
C685 C679 1.491 1_556 S
C685 C684 1.400 . S
C685 C686 1.398 . S
C686 H674 0.911 1_556 S
C686 C685 1.398 . S
C686 C687 1.391 . S
C687 H675 0.950 . S
C687 C683 1.393 . S
C687 C686 1.391 . S
H688 C696 0.950 . S
H689 C701 0.950 . S
H690 C698 0.950 . S
H691 C700 0.950 . S
H692 C702 0.950 . S
H693 C704 0.950 . S
H694 C706 0.950 . S
H695 C707 0.950 . S
C696 H688 0.950 . S
C696 C697 1.386 . S
C696 C698 1.391 . S
C697 C696 1.386 . S
C697 C701 1.393 . S
C698 H690 0.950 . S
C698 C696 1.391 . S
C698 C699 1.400 . S
C699 C698 1.400 . S
C699 C700 1.398 . S
C699 C705 1.491 . S
C700 H691 0.950 . S
C700 C699 1.398 . S
C700 C701 1.391 . S
C701 H689 0.950 . S
C701 C697 1.393 . S
C701 C700 1.391 . S
C702 H692 0.950 . S
C702 C703 1.386 . S
C702 C704 1.391 . S
C703 C702 1.386 . S
C703 C707 1.393 . S
C704 H693 0.950 . S
C704 C702 1.391 . S
C704 C705 1.400 . S
C705 C699 1.491 . S
C705 C704 1.400 . S
C705 C706 1.398 . S
C706 H694 0.950 . S
C706 C705 1.398 . S
C706 C707 1.391 . S
C707 H695 0.950 . S
C707 C703 1.393 . S
C707 C706 1.391 . S
H708 C716 0.950 . S
H709 C721 0.950 . S
H710 C718 0.950 . S
H711 C720 0.950 . S
H712 C722 0.950 . S
H713 C724 0.950 . S
H714 C726 0.950 . S
H715 C727 0.950 . S
C716 H708 0.950 . S
C716 C717 1.386 . S
C716 C718 1.391 . S
C717 C716 1.386 . S
C717 C721 1.393 . S
C718 H710 0.950 . S
C718 C716 1.391 . S
C718 C719 1.400 . S
C719 C718 1.400 . S
C719 C720 1.398 . S
C719 C725 1.491 . S
C720 H711 0.950 . S
C720 C719 1.398 . S
C720 C721 1.391 . S
C721 H709 0.950 . S
C721 C717 1.393 . S
C721 C720 1.391 . S
C722 H712 0.950 . S
C722 C723 1.386 . S
C722 C724 1.391 . S
C723 C722 1.386 . S
C723 C727 1.393 . S
C724 H713 0.950 . S
C724 C722 1.391 . S
C724 C725 1.400 . S
C725 C719 1.491 . S
C725 C724 1.400 . S
C725 C726 1.398 . S
C726 H714 0.950 . S
C726 C725 1.398 . S
C726 C727 1.391 . S
C727 H715 0.950 . S
C727 C723 1.393 . S
C727 C726 1.391 . S
H728 C736 0.950 . S
H729 C741 0.950 . S
H730 C738 0.950 . S
H731 C740 0.950 . S
H732 C742 0.950 . S
H733 C744 0.950 . S
H734 C746 0.950 . S
H735 C747 0.950 . S
C736 H728 0.950 . S
C736 C737 1.386 . S
C736 C738 1.391 . S
C737 C736 1.386 . S
C737 C741 1.393 . S
C738 H730 0.950 . S
C738 C736 1.391 . S
C738 C739 1.400 . S
C739 C738 1.400 . S
C739 C740 1.398 . S
C739 C745 1.491 . S
C740 H731 0.950 . S
C740 C739 1.398 . S
C740 C741 1.391 . S
C741 H729 0.950 . S
C741 C737 1.393 . S
C741 C740 1.391 . S
C742 H732 0.950 . S
C742 C743 1.386 . S
C742 C744 1.391 . S
C743 C742 1.386 . S
C743 C747 1.393 . S
C744 H733 0.950 . S
C744 C742 1.391 . S
C744 C745 1.400 . S
C745 C739 1.491 . S
C745 C744 1.400 . S
C745 C746 1.398 . S
C746 H734 0.950 . S
C746 C745 1.398 . S
C746 C747 1.391 . S
C747 H735 0.950 . S
C747 C743 1.393 . S
C747 C746 1.391 . S
H748 C756 0.950 . S
H749 C761 0.950 . S
H750 C758 0.950 . S
H751 C760 0.950 . S
H752 C762 0.950 . S
H753 C764 0.950 . S
H754 C766 0.950 . S
H755 C767 0.950 . S
C756 H748 0.950 . S
C756 C757 1.386 . S
C756 C758 1.391 . S
C757 C756 1.386 . S
C757 C761 1.393 . S
C758 H750 0.950 . S
C758 C756 1.391 . S
C758 C759 1.400 . S
C759 C758 1.400 . S
C759 C760 1.398 . S
C759 C765 1.491 . S
C760 H751 0.950 . S
C760 C759 1.398 . S
C760 C761 1.391 . S
C761 H749 0.950 . S
C761 C757 1.393 . S
C761 C760 1.391 . S
C762 H752 0.950 . S
C762 C763 1.386 . S
C762 C764 1.391 . S
C763 C762 1.386 . S
C763 C767 1.393 . S
C764 H753 0.950 . S
C764 C762 1.391 . S
C764 C765 1.400 . S
C765 C759 1.491 . S
C765 C764 1.400 . S
C765 C766 1.398 . S
C766 H754 0.950 . S
C766 C765 1.398 . S
C766 C767 1.391 . S
C767 H755 0.950 . S
C767 C763 1.393 . S
C767 C766 1.391 . S
H768 C776 0.950 . S
H769 C781 0.950 . S
H770 C778 0.950 . S
H771 C780 0.950 . S
H772 C782 0.950 . S
H773 C784 0.950 . S
H774 C786 0.950 . S
H775 C787 0.950 . S
C776 H768 0.950 . S
C776 C777 1.386 . S
C776 C778 1.391 . S
C777 C776 1.386 . S
C777 C781 1.393 . S
C778 H770 0.950 . S
C778 C776 1.391 . S
C778 C779 1.400 . S
C779 C778 1.400 . S
C779 C780 1.398 . S
C779 C785 1.491 . S
C780 H771 0.950 . S
C780 C779 1.398 . S
C780 C781 1.391 . S
C781 H769 0.950 . S
C781 C777 1.393 . S
C781 C780 1.391 . S
C782 H772 0.950 . S
C782 C783 1.386 . S
C782 C784 1.391 . S
C783 C782 1.386 . S
C783 C787 1.393 . S
C784 H773 0.950 . S
C784 C782 1.391 . S
C784 C785 1.400 . S
C785 C779 1.491 . S
C785 C784 1.400 . S
C785 C786 1.398 . S
C786 H774 0.950 . S
C786 C785 1.398 . S
C786 C787 1.391 . S
C787 H775 0.950 . S
C787 C783 1.393 . S
C787 C786 1.391 . S
H788 C796 0.950 . S
H789 C801 0.950 . S
H790 C798 0.950 . S
H791 C800 0.950 . S
H792 C802 0.950 . S
H793 C804 0.950 . S
H794 C806 0.950 . S
H795 C807 0.950 . S
C796 H788 0.950 . S
C796 C797 1.386 . S
C796 C798 1.391 . S
C797 C796 1.386 . S
C797 C801 1.393 . S
C798 H790 0.950 . S
C798 C796 1.391 . S
C798 C799 1.400 . S
C799 C798 1.400 . S
C799 C800 1.398 . S
C799 C805 1.491 . S
C800 H791 0.950 . S
C800 C799 1.398 . S
C800 C801 1.391 . S
C801 H789 0.950 . S
C801 C797 1.393 . S
C801 C800 1.391 . S
C802 H792 0.950 . S
C802 C803 1.386 . S
C802 C804 1.391 . S
C803 C802 1.386 . S
C803 C807 1.393 . S
C804 H793 0.950 . S
C804 C802 1.391 . S
C804 C805 1.400 . S
C805 C799 1.491 . S
C805 C804 1.400 . S
C805 C806 1.398 . S
C806 H794 0.950 . S
C806 C805 1.398 . S
C806 C807 1.391 . S
C807 H795 0.950 . S
C807 C803 1.393 . S
C807 C806 1.391 . S
H808 C816 0.950 . S
H809 C821 0.950 . S
H810 C818 0.950 . S
H811 C820 0.950 . S
H812 C822 0.950 . S
H813 C824 0.950 . S
H814 C826 0.950 . S
H815 C827 0.950 . S
C816 H808 0.950 . S
C816 C817 1.386 . S
C816 C818 1.391 . S
C817 C816 1.386 . S
C817 C821 1.393 . S
C818 H810 0.950 . S
C818 C816 1.391 . S
C818 C819 1.400 . S
C819 C818 1.400 . S
C819 C820 1.398 . S
C819 C825 1.491 . S
C820 H811 0.950 . S
C820 C819 1.398 . S
C820 C821 1.391 . S
C821 H809 0.950 . S
C821 C817 1.393 . S
C821 C820 1.391 . S
C822 H812 0.950 . S
C822 C823 1.386 . S
C822 C824 1.391 . S
C823 C822 1.386 . S
C823 C827 1.393 . S
C824 H813 0.950 . S
C824 C822 1.391 . S
C824 C825 1.400 . S
C825 C819 1.491 . S
C825 C824 1.400 . S
C825 C826 1.398 . S
C826 H814 0.950 . S
C826 C825 1.398 . S
C826 C827 1.391 . S
C827 H815 0.950 . S
C827 C823 1.393 . S
C827 C826 1.391 . S
H828 C836 0.950 . S
H829 C841 0.950 . S
H830 C838 0.950 . S
H831 C840 0.950 . S
H832 C842 0.950 . S
H833 C844 0.950 . S
H834 C846 0.950 . S
H835 C847 0.950 . S
C836 H828 0.950 . S
C836 C837 1.386 . S
C836 C838 1.391 . S
C837 C836 1.386 . S
C837 C841 1.393 . S
C838 H830 0.950 . S
C838 C836 1.391 . S
C838 C839 1.400 . S
C839 C838 1.400 . S
C839 C840 1.398 . S
C839 C845 1.491 . S
C840 H831 0.950 . S
C840 C839 1.398 . S
C840 C841 1.391 . S
C841 H829 0.950 . S
C841 C837 1.393 . S
C841 C840 1.391 . S
C842 H832 0.950 . S
C842 C843 1.386 . S
C842 C844 1.391 . S
C843 C842 1.386 . S
C843 C847 1.393 . S
C844 H833 0.950 . S
C844 C842 1.391 . S
C844 C845 1.400 . S
C845 C839 1.491 . S
C845 C844 1.400 . S
C845 C846 1.398 . S
C846 H834 0.950 . S
C846 C845 1.398 . S
C846 C847 1.391 . S
C847 H835 0.950 . S
C847 C843 1.393 . S
C847 C846 1.391 . S
H848 C856 0.950 . S
H849 C861 0.950 . S
H850 C858 0.950 . S
H851 C860 0.950 . S
H852 C862 0.950 . S
H853 C864 0.950 . S
H854 C866 0.950 . S
H855 C867 0.950 . S
C856 H848 0.950 . S
C856 C857 1.386 1_455 S
C856 C858 1.391 . S
C857 C856 1.386 1_655 S
C857 C861 1.393 . S
C858 H850 0.950 . S
C858 C856 1.391 . S
C858 C859 1.400 1_455 S
C859 C858 1.400 1_655 S
C859 C860 1.398 . S
C859 C865 1.491 1_645 S
C860 H851 0.950 . S
C860 C859 1.398 . S
C860 C861 1.391 . S
C861 H849 0.950 . S
C861 C857 1.393 . S
C861 C860 1.391 . S
C862 H852 0.950 . S
C862 C863 1.386 1_655 S
C862 C864 1.391 . S
C863 C862 1.386 1_455 S
C863 C867 1.393 . S
C864 H853 0.950 . S
C864 C862 1.391 . S
C864 C865 1.400 1_655 S
C865 C859 1.491 1_465 S
C865 C864 1.400 1_455 S
C865 C866 1.398 . S
C866 H854 0.950 . S
C866 C865 1.398 . S
C866 C867 1.391 . S
C867 H855 0.950 . S
C867 C863 1.393 . S
C867 C866 1.391 . S
H868 C876 0.950 . S
H869 C881 0.950 . S
H870 C878 0.950 . S
H871 C880 0.950 . S
H872 C882 0.950 . S
H873 C884 0.950 . S
H874 C886 0.950 . S
H875 C887 0.950 . S
C876 H868 0.950 . S
C876 C877 1.386 . S
C876 C878 1.391 . S
C877 C876 1.386 . S
C877 C881 1.393 . S
C878 H870 0.950 . S
C878 C876 1.391 . S
C878 C879 1.400 . S
C879 C878 1.400 . S
C879 C880 1.398 . S
C879 C885 1.491 1_445 S
C880 H871 0.950 . S
C880 C879 1.398 . S
C880 C881 1.391 . S
C881 H869 0.950 . S
C881 C877 1.393 . S
C881 C880 1.391 . S
C882 H872 0.950 . S
C882 C883 1.386 . S
C882 C884 1.391 . S
C883 C882 1.386 . S
C883 C887 1.393 . S
C884 H873 0.950 . S
C884 C882 1.391 . S
C884 C885 1.400 . S
C885 C879 1.491 1_665 S
C885 C884 1.400 . S
C885 C886 1.398 . S
C886 H874 0.950 . S
C886 C885 1.398 . S
C886 C887 1.391 . S
C887 H875 0.950 . S
C887 C883 1.393 . S
C887 C886 1.391 . S
H888 C896 0.950 . S
H889 C901 0.950 . S
H890 C898 0.950 . S
H891 C900 0.950 . S
H892 C902 0.950 . S
H893 C904 0.950 . S
H894 C906 0.950 . S
H895 C907 0.950 . S
C896 H888 0.950 . S
C896 C897 1.386 1_655 S
C896 C898 1.391 . S
C897 C896 1.386 1_455 S
C897 C901 1.393 . S
C898 H890 0.950 . S
C898 C896 1.391 . S
C898 C899 1.400 1_655 S
C899 C898 1.400 1_455 S
C899 C900 1.398 . S
C899 C905 1.491 1_455 S
C900 H891 0.950 . S
C900 C899 1.398 . S
C900 C901 1.391 . S
C901 H889 0.950 . S
C901 C897 1.393 . S
C901 C900 1.391 . S
C902 H892 0.950 . S
C902 C903 1.386 1_455 S
C902 C904 1.391 . S
C903 C902 1.386 1_655 S
C903 C907 1.393 . S
C904 H893 0.950 . S
C904 C902 1.391 . S
C904 C905 1.400 1_455 S
C905 C899 1.491 1_655 S
C905 C904 1.400 1_655 S
C905 C906 1.398 . S
C906 H894 0.950 . S
C906 C905 1.398 . S
C906 C907 1.391 . S
C907 H895 0.950 . S
C907 C903 1.393 . S
C907 C906 1.391 . S
H908 C916 0.950 . S
H909 C921 0.950 . S
H910 C918 0.950 . S
H911 C920 0.950 . S
H912 C922 0.950 . S
H913 C924 0.950 . S
H914 C926 0.950 . S
H915 C927 0.950 . S
C916 H908 0.950 . S
C916 C917 1.386 . S
C916 C918 1.391 . S
C917 C916 1.386 . S
C917 C921 1.393 1_565 S
C918 H910 0.950 . S
C918 C916 1.391 . S
C918 C919 1.400 . S
C919 C918 1.400 . S
C919 C920 1.398 1_565 S
C919 C925 1.491 1_565 S
C920 H911 0.950 . S
C920 C919 1.398 1_545 S
C920 C921 1.391 . S
C921 H909 0.950 . S
C921 C917 1.393 1_545 S
C921 C920 1.391 . S
C922 H912 0.950 . S
C922 C923 1.386 . S
C922 C924 1.391 . S
C923 C922 1.386 . S
C923 C927 1.393 1_545 S
C924 H913 0.950 . S
C924 C922 1.391 . S
C924 C925 1.400 . S
C925 C919 1.491 1_545 S
C925 C924 1.400 . S
C925 C926 1.398 1_545 S
C926 H914 0.950 . S
C926 C925 1.398 1_565 S
C926 C927 1.391 . S
C927 H915 0.950 . S
C927 C923 1.393 1_565 S
C927 C926 1.391 . S
H928 C936 0.950 . S
H929 C941 0.950 . S
H930 C938 0.950 . S
H931 C940 0.950 . S
H932 C942 0.950 . S
H933 C944 0.950 . S
H934 C946 0.950 . S
H935 C947 0.950 . S
C936 H928 0.950 . S
C936 C937 1.386 . S
C936 C938 1.391 . S
C937 C936 1.386 . S
C937 C941 1.393 . S
C938 H930 0.950 . S
C938 C936 1.391 . S
C938 C939 1.400 . S
C939 C938 1.400 . S
C939 C940 1.398 . S
C939 C945 1.491 . S
C940 H931 0.950 . S
C940 C939 1.398 . S
C940 C941 1.391 . S
C941 H929 0.950 . S
C941 C937 1.393 . S
C941 C940 1.391 . S
C942 H932 0.950 . S
C942 C943 1.386 . S
C942 C944 1.391 . S
C943 C942 1.386 . S
C943 C947 1.393 . S
C944 H933 0.950 . S
C944 C942 1.391 . S
C944 C945 1.400 . S
C945 C939 1.491 . S
C945 C944 1.400 . S
C945 C946 1.398 . S
C946 H934 0.950 . S
C946 C945 1.398 . S
C946 C947 1.391 . S
C947 H935 0.950 . S
C947 C943 1.393 . S
C947 C946 1.391 . S
H948 C956 0.950 . S
H949 C961 0.950 . S
H950 C958 0.950 . S
H951 C960 0.950 . S
H952 C962 0.950 . S
H953 C964 0.950 . S
H954 C966 0.950 . S
H955 C967 0.950 . S
C956 H948 0.950 . S
C956 C957 1.386 . S
C956 C958 1.391 . S
C957 C956 1.386 . S
C957 C961 1.393 . S
C958 H950 0.950 . S
C958 C956 1.391 . S
C958 C959 1.400 . S
C959 C958 1.400 . S
C959 C960 1.398 . S
C959 C965 1.491 . S
C960 H951 0.950 . S
C960 C959 1.398 . S
C960 C961 1.391 . S
C961 H949 0.950 . S
C961 C957 1.393 . S
C961 C960 1.391 . S
C962 H952 0.950 . S
C962 C963 1.386 . S
C962 C964 1.391 . S
C963 C962 1.386 . S
C963 C967 1.393 . S
C964 H953 0.950 . S
C964 C962 1.391 . S
C964 C965 1.400 . S
C965 C959 1.491 . S
C965 C964 1.400 . S
C965 C966 1.398 . S
C966 H954 0.950 . S
C966 C965 1.398 . S
C966 C967 1.391 . S
C967 H955 0.950 . S
C967 C963 1.393 . S
C967 C966 1.391 . S
H968 C976 0.950 . S
H969 C981 0.950 . S
H970 C978 0.950 . S
H971 C980 0.950 . S
H972 C982 0.950 . S
H973 C984 0.950 . S
H974 C986 0.950 . S
H975 C987 0.950 . S
C976 H968 0.950 . S
C976 C977 1.386 . S
C976 C978 1.391 . S
C977 C976 1.386 . S
C977 C981 1.393 . S
C978 H970 0.950 . S
C978 C976 1.391 . S
C978 C979 1.400 . S
C979 C978 1.400 . S
C979 C980 1.398 . S
C979 C985 1.491 1_565 S
C980 H971 0.950 . S
C980 C979 1.398 . S
C980 C981 1.391 . S
C981 H969 0.950 . S
C981 C977 1.393 . S
C981 C980 1.391 . S
C982 H972 0.950 . S
C982 C983 1.386 . S
C982 C984 1.391 . S
C983 C982 1.386 . S
C983 C987 1.393 . S
C984 H973 0.950 . S
C984 C982 1.391 . S
C984 C985 1.400 . S
C985 C979 1.491 1_545 S
C985 C984 1.400 . S
C985 C986 1.398 . S
C986 H974 0.950 . S
C986 C985 1.398 . S
C986 C987 1.391 . S
C987 H975 0.950 . S
C987 C983 1.393 . S
C987 C986 1.391 . S
H988 C996 0.950 . S
H989 C1001 0.950 . S
H990 C998 0.950 . S
H991 C1000 0.950 . S
H992 C1002 0.950 . S
H993 C1004 0.950 . S
H994 C1006 0.950 . S
H995 C1007 0.950 . S
C996 H988 0.950 . S
C996 C997 1.386 . S
C996 C998 1.391 . S
C997 C996 1.386 . S
C997 C1001 1.393 . S
C998 H990 0.950 . S
C998 C996 1.391 . S
C998 C999 1.400 . S
C999 C998 1.400 . S
C999 C1000 1.398 . S
C999 C1005 1.491 1_455 S
C1000 H991 0.950 . S
C1000 C999 1.398 . S
C1000 C1001 1.391 . S
C1001 H989 0.950 . S
C1001 C997 1.393 . S
C1001 C1000 1.391 . S
C1002 H992 0.950 . S
C1002 C1003 1.386 . S
C1002 C1004 1.391 . S
C1003 C1002 1.386 . S
C1003 C1007 1.393 . S
C1004 H993 0.950 . S
C1004 C1002 1.391 . S
C1004 C1005 1.400 . S
C1005 C999 1.491 1_655 S
C1005 C1004 1.400 . S
C1005 C1006 1.398 . S
C1006 H994 0.950 . S
C1006 C1005 1.398 . S
C1006 C1007 1.391 . S
C1007 H995 0.950 . S
C1007 C1003 1.393 . S
C1007 C1006 1.391 . S
H1008 C1016 0.950 . S
H1009 C1021 0.950 . S
H1010 C1018 0.950 . S
H1011 C1020 0.950 . S
H1012 C1022 0.950 . S
H1013 C1024 0.950 . S
H1014 C1026 0.950 . S
H1015 C1027 0.950 . S
C1016 H1008 0.950 . S
C1016 C1017 1.386 . S
C1016 C1018 1.391 . S
C1017 C1016 1.386 . S
C1017 C1021 1.393 . S
C1018 H1010 0.950 . S
C1018 C1016 1.391 . S
C1018 C1019 1.400 . S
C1019 C1018 1.400 . S
C1019 C1020 1.398 . S
C1019 C1025 1.491 1_455 S
C1020 H1011 0.950 . S
C1020 C1019 1.398 . S
C1020 C1021 1.391 . S
C1021 H1009 0.950 . S
C1021 C1017 1.393 . S
C1021 C1020 1.391 . S
C1022 H1012 0.950 . S
C1022 C1023 1.386 . S
C1022 C1024 1.391 . S
C1023 C1022 1.386 . S
C1023 C1027 1.393 . S
C1024 H1013 0.950 . S
C1024 C1022 1.391 . S
C1024 C1025 1.400 . S
C1025 C1019 1.491 1_655 S
C1025 C1024 1.400 . S
C1025 C1026 1.398 . S
C1026 H1014 0.950 . S
C1026 C1025 1.398 . S
C1026 C1027 1.391 . S
C1027 H1015 0.950 . S
C1027 C1023 1.393 . S
C1027 C1026 1.391 . S
H1028 C1036 0.950 . S
H1029 C1041 0.950 . S
H1030 C1038 0.950 . S
H1031 C1040 0.950 . S
H1032 C1042 0.950 . S
H1033 C1044 0.950 . S
H1034 C1046 0.950 . S
H1035 C1047 0.950 . S
C1036 H1028 0.950 . S
C1036 C1037 1.386 1_565 S
C1036 C1038 1.391 . S
C1037 C1036 1.386 1_545 S
C1037 C1041 1.393 . S
C1038 H1030 0.950 . S
C1038 C1036 1.391 . S
C1038 C1039 1.400 1_565 S
C1039 C1038 1.400 1_545 S
C1039 C1040 1.398 . S
C1039 C1045 1.491 1_545 S
C1040 H1031 0.950 . S
C1040 C1039 1.398 . S
C1040 C1041 1.391 . S
C1041 H1029 0.950 . S
C1041 C1037 1.393 . S
C1041 C1040 1.391 . S
C1042 H1032 0.950 . S
C1042 C1043 1.386 1_545 S
C1042 C1044 1.391 . S
C1043 C1042 1.386 1_565 S
C1043 C1047 1.393 . S
C1044 H1033 0.950 . S
C1044 C1042 1.391 . S
C1044 C1045 1.400 1_545 S
C1045 C1039 1.491 1_565 S
C1045 C1044 1.400 1_565 S
C1045 C1046 1.398 . S
C1046 H1034 0.950 . S
C1046 C1045 1.398 . S
C1046 C1047 1.391 . S
C1047 H1035 0.950 . S
C1047 C1043 1.393 . S
C1047 C1046 1.391 . S
H1048 C1056 0.950 . S
H1049 C1061 0.950 . S
H1050 C1058 0.950 . S
H1051 C1060 0.950 . S
H1052 C1062 0.950 . S
H1053 C1064 0.950 . S
H1054 C1066 0.950 . S
H1055 C1067 0.950 . S
C1056 H1048 0.950 . S
C1056 C1057 1.386 1_455 S
C1056 C1058 1.391 . S
C1057 C1056 1.386 1_655 S
C1057 C1061 1.393 . S
C1058 H1050 0.950 . S
C1058 C1056 1.391 . S
C1058 C1059 1.400 1_455 S
C1059 C1058 1.400 1_655 S
C1059 C1060 1.398 . S
C1059 C1065 1.491 1_645 S
C1060 H1051 0.950 . S
C1060 C1059 1.398 . S
C1060 C1061 1.391 . S
C1061 H1049 0.950 . S
C1061 C1057 1.393 . S
C1061 C1060 1.391 . S
C1062 H1052 0.950 . S
C1062 C1063 1.386 1_655 S
C1062 C1064 1.391 . S
C1063 C1062 1.386 1_455 S
C1063 C1067 1.393 . S
C1064 H1053 0.950 . S
C1064 C1062 1.391 . S
C1064 C1065 1.400 1_655 S
C1065 C1059 1.491 1_465 S
C1065 C1064 1.400 1_455 S
C1065 C1066 1.398 . S
C1066 H1054 0.950 . S
C1066 C1065 1.398 . S
C1066 C1067 1.391 . S
C1067 H1055 0.950 . S
C1067 C1063 1.393 . S
C1067 C1066 1.391 . S
H1068 C1076 0.950 . S
H1069 C1081 0.950 . S
H1070 C1078 0.950 1_545 S
H1071 C1080 0.950 . S
H1072 C1082 0.950 . S
H1073 C1084 0.950 1_565 S
H1074 C1086 0.950 . S
H1075 C1087 0.950 . S
C1076 H1068 0.950 . S
C1076 C1077 1.386 . S
C1076 C1078 1.391 . S
C1077 C1076 1.386 . S
C1077 C1081 1.393 . S
C1078 H1070 0.950 1_565 S
C1078 C1076 1.391 . S
C1078 C1079 1.400 . S
C1079 C1078 1.400 . S
C1079 C1080 1.398 . S
C1079 C1085 1.491 1_665 S
C1080 H1071 0.950 . S
C1080 C1079 1.398 . S
C1080 C1081 1.391 . S
C1081 H1069 0.950 . S
C1081 C1077 1.393 . S
C1081 C1080 1.391 . S
C1082 H1072 0.950 . S
C1082 C1083 1.386 . S
C1082 C1084 1.391 . S
C1083 C1082 1.386 . S
C1083 C1087 1.393 . S
C1084 H1073 0.950 1_545 S
C1084 C1082 1.391 . S
C1084 C1085 1.400 . S
C1085 C1079 1.491 1_445 S
C1085 C1084 1.400 . S
C1085 C1086 1.398 . S
C1086 H1074 0.950 . S
C1086 C1085 1.398 . S
C1086 C1087 1.391 . S
C1087 H1075 0.950 . S
C1087 C1083 1.393 . S
C1087 C1086 1.391 . S
H1088 C1096 0.950 . S
H1089 C1101 0.950 . S
H1090 C1098 0.950 . S
H1091 C1100 0.950 . S
H1092 C1102 0.950 . S
H1093 C1104 0.950 . S
H1094 C1106 0.950 . S
H1095 C1107 0.950 . S
C1096 H1088 0.950 . S
C1096 C1097 1.386 . S
C1096 C1098 1.391 . S
C1097 C1096 1.386 . S
C1097 C1101 1.393 . S
C1098 H1090 0.950 . S
C1098 C1096 1.391 . S
C1098 C1099 1.400 . S
C1099 C1098 1.400 . S
C1099 C1100 1.398 . S
C1099 C1105 1.491 1_545 S
C1100 H1091 0.950 . S
C1100 C1099 1.398 . S
C1100 C1101 1.391 . S
C1101 H1089 0.950 . S
C1101 C1097 1.393 . S
C1101 C1100 1.391 . S
C1102 H1092 0.950 . S
C1102 C1103 1.386 . S
C1102 C1104 1.391 . S
C1103 C1102 1.386 . S
C1103 C1107 1.393 . S
C1104 H1093 0.950 . S
C1104 C1102 1.391 . S
C1104 C1105 1.400 . S
C1105 C1099 1.491 1_565 S
C1105 C1104 1.400 . S
C1105 C1106 1.398 . S
C1106 H1094 0.950 . S
C1106 C1105 1.398 . S
C1106 C1107 1.391 . S
C1107 H1095 0.950 . S
C1107 C1103 1.393 . S
C1107 C1106 1.391 . S
H1108 C1116 0.950 . S
H1109 C1121 0.950 . S
H1110 C1118 0.950 . S
H1111 C1120 0.950 . S
H1112 C1122 0.950 . S
H1113 C1124 0.950 . S
H1114 C1126 0.950 . S
H1115 C1127 0.950 . S
C1116 H1108 0.950 . S
C1116 C1117 1.386 . S
C1116 C1118 1.391 . S
C1117 C1116 1.386 . S
C1117 C1121 1.393 . S
C1118 H1110 0.950 . S
C1118 C1116 1.391 . S
C1118 C1119 1.400 . S
C1119 C1118 1.400 . S
C1119 C1120 1.398 . S
C1119 C1125 1.491 1_655 S
C1120 H1111 0.950 . S
C1120 C1119 1.398 . S
C1120 C1121 1.391 . S
C1121 H1109 0.950 . S
C1121 C1117 1.393 . S
C1121 C1120 1.391 . S
C1122 H1112 0.950 . S
C1122 C1123 1.386 . S
C1122 C1124 1.391 . S
C1123 C1122 1.386 . S
C1123 C1127 1.393 . S
C1124 H1113 0.950 . S
C1124 C1122 1.391 . S
C1124 C1125 1.400 . S
C1125 C1119 1.491 1_455 S
C1125 C1124 1.400 . S
C1125 C1126 1.398 . S
C1126 H1114 0.950 . S
C1126 C1125 1.398 . S
C1126 C1127 1.391 . S
C1127 H1115 0.950 . S
C1127 C1123 1.393 . S
C1127 C1126 1.391 . S
H1128 C1136 0.950 . S
H1129 C1141 0.950 . S
H1130 C1138 0.950 . S
H1131 C1140 0.950 . S
H1132 C1142 0.950 . S
H1133 C1144 0.950 . S
H1134 C1146 0.950 . S
H1135 C1147 0.950 . S
C1136 H1128 0.950 . S
C1136 C1137 1.386 . S
C1136 C1138 1.391 . S
C1137 C1136 1.386 . S
C1137 C1141 1.393 . S
C1138 H1130 0.950 . S
C1138 C1136 1.391 . S
C1138 C1139 1.400 . S
C1139 C1138 1.400 . S
C1139 C1140 1.398 . S
C1139 C1145 1.491 . S
C1140 H1131 0.950 . S
C1140 C1139 1.398 . S
C1140 C1141 1.391 . S
C1141 H1129 0.950 . S
C1141 C1137 1.393 . S
C1141 C1140 1.391 . S
C1142 H1132 0.950 . S
C1142 C1143 1.386 . S
C1142 C1144 1.391 . S
C1143 C1142 1.386 . S
C1143 C1147 1.393 . S
C1144 H1133 0.950 . S
C1144 C1142 1.391 . S
C1144 C1145 1.400 . S
C1145 C1139 1.491 . S
C1145 C1144 1.400 . S
C1145 C1146 1.398 . S
C1146 H1134 0.950 . S
C1146 C1145 1.398 . S
C1146 C1147 1.391 . S
C1147 H1135 0.950 . S
C1147 C1143 1.393 . S
C1147 C1146 1.391 . S
H1148 C1156 0.950 . S
H1149 C1161 0.950 . S
H1150 C1158 0.950 . S
H1151 C1160 0.950 . S
H1152 C1162 0.950 . S
H1153 C1164 0.950 . S
H1154 C1166 0.950 . S
H1155 C1167 0.950 . S
C1156 H1148 0.950 . S
C1156 C1157 1.386 . S
C1156 C1158 1.391 . S
C1157 C1156 1.386 . S
C1157 C1161 1.393 . S
C1158 H1150 0.950 . S
C1158 C1156 1.391 . S
C1158 C1159 1.400 . S
C1159 C1158 1.400 . S
C1159 C1160 1.398 . S
C1159 C1165 1.491 . S
C1160 H1151 0.950 . S
C1160 C1159 1.398 . S
C1160 C1161 1.391 . S
C1161 H1149 0.950 . S
C1161 C1157 1.393 . S
C1161 C1160 1.391 . S
C1162 H1152 0.950 . S
C1162 C1163 1.386 . S
C1162 C1164 1.391 . S
C1163 C1162 1.386 . S
C1163 C1167 1.393 . S
C1164 H1153 0.950 . S
C1164 C1162 1.391 . S
C1164 C1165 1.400 . S
C1165 C1159 1.491 . S
C1165 C1164 1.400 . S
C1165 C1166 1.398 . S
C1166 H1154 0.950 . S
C1166 C1165 1.398 . S
C1166 C1167 1.391 . S
C1167 H1155 0.950 . S
C1167 C1163 1.393 . S
C1167 C1166 1.391 . S
H1168 C1176 0.950 . S
H1169 C1181 0.950 . S
H1170 C1178 0.950 . S
H1171 C1180 0.950 . S
H1172 C1182 0.950 . S
H1173 C1184 0.950 . S
H1174 C1186 0.950 . S
H1175 C1187 0.950 . S
C1176 H1168 0.950 . S
C1176 C1177 1.386 . S
C1176 C1178 1.391 . S
C1177 C1176 1.386 . S
C1177 C1181 1.393 . S
C1178 H1170 0.950 . S
C1178 C1176 1.391 . S
C1178 C1179 1.400 . S
C1179 C1178 1.400 . S
C1179 C1180 1.398 . S
C1179 C1185 1.491 . S
C1180 H1171 0.950 . S
C1180 C1179 1.398 . S
C1180 C1181 1.391 . S
C1181 H1169 0.950 . S
C1181 C1177 1.393 . S
C1181 C1180 1.391 . S
C1182 H1172 0.950 . S
C1182 C1183 1.386 . S
C1182 C1184 1.391 . S
C1183 C1182 1.386 . S
C1183 C1187 1.393 . S
C1184 H1173 0.950 . S
C1184 C1182 1.391 . S
C1184 C1185 1.400 . S
C1185 C1179 1.491 . S
C1185 C1184 1.400 . S
C1185 C1186 1.398 . S
C1186 H1174 0.950 . S
C1186 C1185 1.398 . S
C1186 C1187 1.391 . S
C1187 H1175 0.950 . S
C1187 C1183 1.393 . S
C1187 C1186 1.391 . S
H1188 C1196 0.950 . S
H1189 C1201 0.950 . S
H1190 C1198 0.950 . S
H1191 C1200 0.950 . S
H1192 C1202 0.950 . S
H1193 C1204 0.950 . S
H1194 C1206 0.950 . S
H1195 C1207 0.950 . S
C1196 H1188 0.950 . S
C1196 C1197 1.386 . S
C1196 C1198 1.391 . S
C1197 C1196 1.386 . S
C1197 C1201 1.393 . S
C1198 H1190 0.950 . S
C1198 C1196 1.391 . S
C1198 C1199 1.400 . S
C1199 C1198 1.400 . S
C1199 C1200 1.398 . S
C1199 C1205 1.491 . S
C1200 H1191 0.950 . S
C1200 C1199 1.398 . S
C1200 C1201 1.391 . S
C1201 H1189 0.950 . S
C1201 C1197 1.393 . S
C1201 C1200 1.391 . S
C1202 H1192 0.950 . S
C1202 C1203 1.386 . S
C1202 C1204 1.391 . S
C1203 C1202 1.386 . S
C1203 C1207 1.393 . S
C1204 H1193 0.950 . S
C1204 C1202 1.391 . S
C1204 C1205 1.400 . S
C1205 C1199 1.491 . S
C1205 C1204 1.400 . S
C1205 C1206 1.398 . S
C1206 H1194 0.950 . S
C1206 C1205 1.398 . S
C1206 C1207 1.391 . S
C1207 H1195 0.950 . S
C1207 C1203 1.393 . S
C1207 C1206 1.391 . S
H1208 C1216 0.950 . S
H1209 C1221 0.950 . S
H1210 C1218 0.950 . S
H1211 C1220 0.950 . S
H1212 C1222 0.950 . S
H1213 C1224 0.950 . S
H1214 C1226 0.950 . S
H1215 C1227 0.950 . S
C1216 H1208 0.950 . S
C1216 C1217 1.386 . S
C1216 C1218 1.391 . S
C1217 C1216 1.386 . S
C1217 C1221 1.393 . S
C1218 H1210 0.950 . S
C1218 C1216 1.391 . S
C1218 C1219 1.400 . S
C1219 C1218 1.400 . S
C1219 C1220 1.398 . S
C1219 C1225 1.491 . S
C1220 H1211 0.950 . S
C1220 C1219 1.398 . S
C1220 C1221 1.391 . S
C1221 H1209 0.950 . S
C1221 C1217 1.393 . S
C1221 C1220 1.391 . S
C1222 H1212 0.950 . S
C1222 C1223 1.386 . S
C1222 C1224 1.391 . S
C1223 C1222 1.386 . S
C1223 C1227 1.393 . S
C1224 H1213 0.950 . S
C1224 C1222 1.391 . S
C1224 C1225 1.400 . S
C1225 C1219 1.491 . S
C1225 C1224 1.400 . S
C1225 C1226 1.398 . S
C1226 H1214 0.950 . S
C1226 C1225 1.398 . S
C1226 C1227 1.391 . S
C1227 H1215 0.950 . S
C1227 C1223 1.393 . S
C1227 C1226 1.391 . S
H1228 C1236 0.950 . S
H1229 C1241 0.950 . S
H1230 C1238 0.950 . S
H1231 C1240 0.950 . S
H1232 C1242 0.950 . S
H1233 C1244 0.950 . S
H1234 C1246 0.950 . S
H1235 C1247 0.950 . S
C1236 H1228 0.950 . S
C1236 C1237 1.386 . S
C1236 C1238 1.391 . S
C1237 C1236 1.386 . S
C1237 C1241 1.393 . S
C1238 H1230 0.950 . S
C1238 C1236 1.391 . S
C1238 C1239 1.400 . S
C1239 C1238 1.400 . S
C1239 C1240 1.398 . S
C1239 C1245 1.491 . S
C1240 H1231 0.950 . S
C1240 C1239 1.398 . S
C1240 C1241 1.391 . S
C1241 H1229 0.950 . S
C1241 C1237 1.393 . S
C1241 C1240 1.391 . S
C1242 H1232 0.950 . S
C1242 C1243 1.386 . S
C1242 C1244 1.391 . S
C1243 C1242 1.386 . S
C1243 C1247 1.393 . S
C1244 H1233 0.950 . S
C1244 C1242 1.391 . S
C1244 C1245 1.400 . S
C1245 C1239 1.491 . S
C1245 C1244 1.400 . S
C1245 C1246 1.398 . S
C1246 H1234 0.950 . S
C1246 C1245 1.398 . S
C1246 C1247 1.391 . S
C1247 H1235 0.950 . S
C1247 C1243 1.393 . S
C1247 C1246 1.391 . S
H1248 C1256 0.950 . S
H1249 C1261 0.950 . S
H1250 C1258 0.950 . S
H1251 C1260 0.950 . S
H1252 C1262 0.950 . S
H1253 C1264 0.950 . S
H1254 C1266 0.950 . S
H1255 C1267 0.950 . S
C1256 H1248 0.950 . S
C1256 C1257 1.386 . S
C1256 C1258 1.391 . S
C1257 C1256 1.386 . S
C1257 C1261 1.393 . S
C1258 H1250 0.950 . S
C1258 C1256 1.391 . S
C1258 C1259 1.400 . S
C1259 C1258 1.400 . S
C1259 C1260 1.398 . S
C1259 C1265 1.491 . S
C1260 H1251 0.950 . S
C1260 C1259 1.398 . S
C1260 C1261 1.391 . S
C1261 H1249 0.950 . S
C1261 C1257 1.393 . S
C1261 C1260 1.391 . S
C1262 H1252 0.950 . S
C1262 C1263 1.386 . S
C1262 C1264 1.391 . S
C1263 C1262 1.386 . S
C1263 C1267 1.393 . S
C1264 H1253 0.950 . S
C1264 C1262 1.391 . S
C1264 C1265 1.400 . S
C1265 C1259 1.491 . S
C1265 C1264 1.400 . S
C1265 C1266 1.398 . S
C1266 H1254 0.950 . S
C1266 C1265 1.398 . S
C1266 C1267 1.391 . S
C1267 H1255 0.950 . S
C1267 C1263 1.393 . S
C1267 C1266 1.391 . S
H1268 C1276 0.950 . S
H1269 C1281 0.950 . S
H1270 C1278 0.950 . S
H1271 C1280 0.950 . S
H1272 C1282 0.950 . S
H1273 C1284 0.950 . S
H1274 C1286 0.950 . S
H1275 C1287 0.950 . S
C1276 H1268 0.950 . S
C1276 C1277 1.386 . S
C1276 C1278 1.391 . S
C1277 C1276 1.386 . S
C1277 C1281 1.393 . S
C1278 H1270 0.950 . S
C1278 C1276 1.391 . S
C1278 C1279 1.400 . S
C1279 C1278 1.400 . S
C1279 C1280 1.398 . S
C1279 C1285 1.491 . S
C1280 H1271 0.950 . S
C1280 C1279 1.398 . S
C1280 C1281 1.391 . S
C1281 H1269 0.950 . S
C1281 C1277 1.393 . S
C1281 C1280 1.391 . S
C1282 H1272 0.950 . S
C1282 C1283 1.386 . S
C1282 C1284 1.391 . S
C1283 C1282 1.386 . S
C1283 C1287 1.393 . S
C1284 H1273 0.950 . S
C1284 C1282 1.391 . S
C1284 C1285 1.400 . S
C1285 C1279 1.491 . S
C1285 C1284 1.400 . S
C1285 C1286 1.398 . S
C1286 H1274 0.950 . S
C1286 C1285 1.398 . S
C1286 C1287 1.391 . S
C1287 H1275 0.950 . S
C1287 C1283 1.393 . S
C1287 C1286 1.391 . S
H1288 C1296 0.950 . S
H1289 C1301 0.950 . S
H1290 C1298 0.950 . S
H1291 C1300 0.950 . S
H1292 C1302 0.950 . S
H1293 C1304 0.950 . S
H1294 C1306 0.950 . S
H1295 C1307 0.950 . S
C1296 H1288 0.950 . S
C1296 C1297 1.386 . S
C1296 C1298 1.391 . S
C1297 C1296 1.386 . S
C1297 C1301 1.393 . S
C1298 H1290 0.950 . S
C1298 C1296 1.391 . S
C1298 C1299 1.400 . S
C1299 C1298 1.400 . S
C1299 C1300 1.398 . S
C1299 C1305 1.491 . S
C1300 H1291 0.950 . S
C1300 C1299 1.398 . S
C1300 C1301 1.391 . S
C1301 H1289 0.950 . S
C1301 C1297 1.393 . S
C1301 C1300 1.391 . S
C1302 H1292 0.950 . S
C1302 C1303 1.386 . S
C1302 C1304 1.391 . S
C1303 C1302 1.386 . S
C1303 C1307 1.393 . S
C1304 H1293 0.950 . S
C1304 C1302 1.391 . S
C1304 C1305 1.400 . S
C1305 C1299 1.491 . S
C1305 C1304 1.400 . S
C1305 C1306 1.398 . S
C1306 H1294 0.950 . S
C1306 C1305 1.398 . S
C1306 C1307 1.391 . S
C1307 H1295 0.950 . S
C1307 C1303 1.393 . S
C1307 C1306 1.391 . S
H1308 C1316 0.950 . S
H1309 C1321 0.950 . S
H1310 C1318 0.950 . S
H1311 C1320 0.950 . S
H1312 C1322 0.950 . S
H1313 C1324 0.950 . S
H1314 C1326 0.950 . S
H1315 C1327 0.950 . S
C1316 H1308 0.950 . S
C1316 C1317 1.386 . S
C1316 C1318 1.391 . S
C1317 C1316 1.386 . S
C1317 C1321 1.393 . S
C1318 H1310 0.950 . S
C1318 C1316 1.391 . S
C1318 C1319 1.400 . S
C1319 C1318 1.400 . S
C1319 C1320 1.398 . S
C1319 C1325 1.491 . S
C1320 H1311 0.950 . S
C1320 C1319 1.398 . S
C1320 C1321 1.391 . S
C1321 H1309 0.950 . S
C1321 C1317 1.393 . S
C1321 C1320 1.391 . S
C1322 H1312 0.950 . S
C1322 C1323 1.386 . S
C1322 C1324 1.391 . S
C1323 C1322 1.386 . S
C1323 C1327 1.393 . S
C1324 H1313 0.950 . S
C1324 C1322 1.391 . S
C1324 C1325 1.400 . S
C1325 C1319 1.491 . S
C1325 C1324 1.400 . S
C1325 C1326 1.398 . S
C1326 H1314 0.950 . S
C1326 C1325 1.398 . S
C1326 C1327 1.391 . S
C1327 H1315 0.950 . S
C1327 C1323 1.393 . S
C1327 C1326 1.391 . S
C537 C8 1.000 . S
C543 N377 0.988 . S
C557 N278 0.996 . S
C563 C41 0.991 . S
C577 N311 0.988 . S
C583 C74 0.999 . S
C597 N344 0.999 . S
C603 C107 0.981 . S
C617 N179 0.992 . S
C623 C140 0.996 . S
C637 N212 0.999 . S
C643 C173 0.980 . S
C657 C206 0.987 . S
C663 N245 0.994 . S
C677 C239 0.981 . S
C683 N146 1.001 . S
C697 C272 0.999 . S
C703 N113 0.988 . S
C717 C305 0.982 . S
C723 N14 1.000 . S
C737 N47 0.992 . S
C743 C338 0.990 . S
C757 C371 0.979 . S
C763 N80 1.001 . S
C777 N443 0.994 . S
C783 C404 0.987 . S
C797 N476 0.996 . S
C803 C437 0.991 . S
C817 N509 0.990 . S
C823 C470 0.998 . S
C837 C503 0.983 . S
C843 N410 1.000 . S
C857 C17 1.498 . S
C863 C83 1.496 . S
C877 C50 1.516 . S
C883 C116 1.515 . S
C897 C215 1.509 . S
C903 C149 1.504 . S
C917 C248 1.512 . S
C923 C182 1.508 . S
C937 C347 1.510 . S
C943 C281 1.506 . S
C957 C314 1.496 . S
C963 C380 1.499 . S
C977 C413 1.504 . S
C983 C479 1.508 . S
C997 C512 1.503 . S
C1003 C446 1.499 . S
C1017 C94 0.641 . S
C1023 C28 0.631 . S
C1037 C61 0.657 . S
C1043 C127 0.593 . S
C1057 C160 0.565 . S
C1063 C226 0.644 . S
C1077 C259 0.595 . S
C1083 C193 0.578 . S
C1097 C358 0.568 . S
C1103 C292 0.649 . S
C1117 C325 0.563 . S
C1123 C391 0.627 . S
C1137 C424 0.572 . S
C1143 C490 0.652 . S
C1157 C523 0.657 . S
C1163 C457 0.592 . S
C1177 N467 1.495 . S
C1183 N5 1.494 . S
C1197 N38 1.502 . S
C1203 N500 1.507 . S
C1217 N71 1.494 . S
C1223 N401 1.494 . S
C1237 N104 1.511 . S
C1243 N434 1.507 . S
C1257 N137 1.504 . S
C1263 N335 1.509 . S
C1277 N368 1.517 . S
C1283 N170 1.514 . S
C1297 N203 1.507 . S
C1303 N269 1.512 . S
C1317 N236 1.494 . S
C1323 N302 1.494 . S
