# Generated by pormake.
# Topology wmi, (6)-cn, num edge types: 1
# Building blocks:
#     Node 0, Type 0, BuildingBlock: GEDQOX_clean_sbu_0, # of connection points: 6
#     Node 1, Type 0, BuildingBlock: GEDQOX_clean_sbu_0, # of connection points: 6
#     Node 2, Type 0, BuildingBlock: GEDQOX_clean_sbu_0, # of connection points: 6
#     Node 3, Type 0, BuildingBlock: GEDQOX_clean_sbu_0, # of connection points: 6
#     Node 4, Type 0, BuildingBlock: GEDQOX_clean_sbu_0, # of connection points: 6
#     Node 5, Type 0, BuildingBlock: GEDQOX_clean_sbu_0, # of connection points: 6
#     Node 6, Type 0, BuildingBlock: GEDQOX_clean_sbu_0, # of connection points: 6
#     Node 7, Type 0, BuildingBlock: GEDQOX_clean_sbu_0, # of connection points: 6
#     Node 8, Type 0, BuildingBlock: GEDQOX_clean_sbu_0, # of connection points: 6
#     Node 9, Type 0, BuildingBlock: GEDQOX_clean_sbu_0, # of connection points: 6
#     Node 10, Type 0, BuildingBlock: GEDQOX_clean_sbu_0, # of connection points: 6
#     Node 11, Type 0, BuildingBlock: GEDQOX_clean_sbu_0, # of connection points: 6
#     Node 12, Type 0, BuildingBlock: GEDQOX_clean_sbu_0, # of connection points: 6
#     Node 13, Type 0, BuildingBlock: GEDQOX_clean_sbu_0, # of connection points: 6
#     Node 14, Type 0, BuildingBlock: GEDQOX_clean_sbu_0, # of connection points: 6
#     Node 15, Type 0, BuildingBlock: GEDQOX_clean_sbu_0, # of connection points: 6
#     Node 16, Type 0, BuildingBlock: GEDQOX_clean_sbu_0, # of connection points: 6
#     Node 17, Type 0, BuildingBlock: GEDQOX_clean_sbu_0, # of connection points: 6
#     Edge 18, Type (0, 0), BuildingBlock: TEMPAE_clean_linker_10, # of connection points: 2
#     Edge 19, Type (0, 0), BuildingBlock: TEMPAE_clean_linker_10, # of connection points: 2
#     Edge 20, Type (0, 0), BuildingBlock: TEMPAE_clean_linker_10, # of connection points: 2
#     Edge 21, Type (0, 0), BuildingBlock: TEMPAE_clean_linker_10, # of connection points: 2
#     Edge 22, Type (0, 0), BuildingBlock: TEMPAE_clean_linker_10, # of connection points: 2
#     Edge 23, Type (0, 0), BuildingBlock: TEMPAE_clean_linker_10, # of connection points: 2
#     Edge 24, Type (0, 0), BuildingBlock: TEMPAE_clean_linker_10, # of connection points: 2
#     Edge 25, Type (0, 0), BuildingBlock: TEMPAE_clean_linker_10, # of connection points: 2
#     Edge 26, Type (0, 0), BuildingBlock: TEMPAE_clean_linker_10, # of connection points: 2
#     Edge 27, Type (0, 0), BuildingBlock: TEMPAE_clean_linker_10, # of connection points: 2
#     Edge 28, Type (0, 0), BuildingBlock: TEMPAE_clean_linker_10, # of connection points: 2
#     Edge 29, Type (0, 0), BuildingBlock: TEMPAE_clean_linker_10, # of connection points: 2
#     Edge 30, Type (0, 0), BuildingBlock: TEMPAE_clean_linker_10, # of connection points: 2
#     Edge 31, Type (0, 0), BuildingBlock: TEMPAE_clean_linker_10, # of connection points: 2
#     Edge 32, Type (0, 0), BuildingBlock: TEMPAE_clean_linker_10, # of connection points: 2
#     Edge 33, Type (0, 0), BuildingBlock: TEMPAE_clean_linker_10, # of connection points: 2
#     Edge 34, Type (0, 0), BuildingBlock: TEMPAE_clean_linker_10, # of connection points: 2
#     Edge 35, Type (0, 0), BuildingBlock: TEMPAE_clean_linker_10, # of connection points: 2
#     Edge 36, Type (0, 0), BuildingBlock: TEMPAE_clean_linker_10, # of connection points: 2
#     Edge 37, Type (0, 0), BuildingBlock: TEMPAE_clean_linker_10, # of connection points: 2
#     Edge 38, Type (0, 0), BuildingBlock: TEMPAE_clean_linker_10, # of connection points: 2
#     Edge 39, Type (0, 0), BuildingBlock: TEMPAE_clean_linker_10, # of connection points: 2
#     Edge 40, Type (0, 0), BuildingBlock: TEMPAE_clean_linker_10, # of connection points: 2
#     Edge 41, Type (0, 0), BuildingBlock: TEMPAE_clean_linker_10, # of connection points: 2
#     Edge 42, Type (0, 0), BuildingBlock: TEMPAE_clean_linker_10, # of connection points: 2
#     Edge 43, Type (0, 0), BuildingBlock: TEMPAE_clean_linker_10, # of connection points: 2
#     Edge 44, Type (0, 0), BuildingBlock: TEMPAE_clean_linker_10, # of connection points: 2
#     Edge 45, Type (0, 0), BuildingBlock: TEMPAE_clean_linker_10, # of connection points: 2
#     Edge 46, Type (0, 0), BuildingBlock: TEMPAE_clean_linker_10, # of connection points: 2
#     Edge 47, Type (0, 0), BuildingBlock: TEMPAE_clean_linker_10, # of connection points: 2
#     Edge 48, Type (0, 0), BuildingBlock: TEMPAE_clean_linker_10, # of connection points: 2
#     Edge 49, Type (0, 0), BuildingBlock: TEMPAE_clean_linker_10, # of connection points: 2
#     Edge 50, Type (0, 0), BuildingBlock: TEMPAE_clean_linker_10, # of connection points: 2
#     Edge 51, Type (0, 0), BuildingBlock: TEMPAE_clean_linker_10, # of connection points: 2
#     Edge 52, Type (0, 0), BuildingBlock: TEMPAE_clean_linker_10, # of connection points: 2
#     Edge 53, Type (0, 0), BuildingBlock: TEMPAE_clean_linker_10, # of connection points: 2
#     Edge 54, Type (0, 0), BuildingBlock: TEMPAE_clean_linker_10, # of connection points: 2
#     Edge 55, Type (0, 0), BuildingBlock: TEMPAE_clean_linker_10, # of connection points: 2
#     Edge 56, Type (0, 0), BuildingBlock: TEMPAE_clean_linker_10, # of connection points: 2
#     Edge 57, Type (0, 0), BuildingBlock: TEMPAE_clean_linker_10, # of connection points: 2
#     Edge 58, Type (0, 0), BuildingBlock: TEMPAE_clean_linker_10, # of connection points: 2
#     Edge 59, Type (0, 0), BuildingBlock: TEMPAE_clean_linker_10, # of connection points: 2
#     Edge 60, Type (0, 0), BuildingBlock: TEMPAE_clean_linker_10, # of connection points: 2
#     Edge 61, Type (0, 0), BuildingBlock: TEMPAE_clean_linker_10, # of connection points: 2
#     Edge 62, Type (0, 0), BuildingBlock: TEMPAE_clean_linker_10, # of connection points: 2
#     Edge 63, Type (0, 0), BuildingBlock: TEMPAE_clean_linker_10, # of connection points: 2
#     Edge 64, Type (0, 0), BuildingBlock: TEMPAE_clean_linker_10, # of connection points: 2
#     Edge 65, Type (0, 0), BuildingBlock: TEMPAE_clean_linker_10, # of connection points: 2
#     Edge 66, Type (0, 0), BuildingBlock: TEMPAE_clean_linker_10, # of connection points: 2
#     Edge 67, Type (0, 0), BuildingBlock: TEMPAE_clean_linker_10, # of connection points: 2
#     Edge 68, Type (0, 0), BuildingBlock: TEMPAE_clean_linker_10, # of connection points: 2
#     Edge 69, Type (0, 0), BuildingBlock: TEMPAE_clean_linker_10, # of connection points: 2
#     Edge 70, Type (0, 0), BuildingBlock: TEMPAE_clean_linker_10, # of connection points: 2
#     Edge 71, Type (0, 0), BuildingBlock: TEMPAE_clean_linker_10, # of connection points: 2
# Relax obj value: 0.096
# Max RMSD: 0.215
# Mean RMSD: 0.215
data_MOF--net-wmi--node1-GEDQOX_clean_sbu_0--edge1-TEMPAE_clean_linker_10
_symmetry_space_group_name_H-M    P1
_symmetry_Int_Tables_number       1
_symmetry_cell_setting            triclinic
loop_
_symmetry_equiv_pos_as_xyz
'x, y, z'
_cell_length_a     40.9251
_cell_length_b     41.005479
_cell_length_c     81.280061
_cell_angle_alpha  90.008852
_cell_angle_beta   89.960457
_cell_angle_gamma 120.08281
loop_
_atom_site_label
_atom_site_type_symbol
_atom_site_fract_x
_atom_site_fract_y
_atom_site_fract_z
_atom_type_partial_charge
Nd0 Nd 0.47144 0.05218 0.10175 0.0
Nd1 Nd 0.50369 0.99813 0.10948 0.0
C2 C 0.45849 0.10796 0.09446 0.0
C3 C 0.47665 0.1499 0.09571 0.0
C4 C 0.49309 0.17329 0.08192 0.0
C5 C 0.50727 0.21239 0.08296 0.0
C6 C 0.50523 0.22915 0.09781 0.0
C7 C 0.48911 0.20567 0.11159 0.0
C8 C 0.47504 0.16678 0.11056 0.0
C9 C 0.44396 1.01097 0.13008 0.0
C10 C 0.56274 0.08885 0.11089 0.0
C11 C 0.52333 0.95141 0.12296 0.0
C12 C 0.53822 0.92673 0.11776 0.0
C13 C 0.55491 0.91453 0.12947 0.0
C14 C 0.56902 0.89097 0.12491 0.0
C15 C 0.56685 0.87902 0.10849 0.0
C16 C 0.55034 0.89166 0.09673 0.0
C17 C 0.53624 0.91532 0.10132 0.0
C18 C 0.509 1.01267 0.07585 0.0
C19 C 0.41787 0.96301 0.09488 0.0
O20 O 0.47101 0.09315 0.08358 0.0
O21 O 0.44892 0.0893 0.10832 0.0
O22 O 0.42487 0.01944 0.12002 0.0
O23 O 0.47865 0.02605 0.12569 0.0
O24 O 0.53467 0.09432 0.10662 0.0
O25 O 0.55738 0.05489 0.11387 0.0
O26 O 0.48871 0.94127 0.11865 0.0
O27 O 0.54629 0.98772 0.12159 0.0
O28 O 0.52005 0.99136 0.08276 0.0
O29 O 0.49677 0.02525 0.08686 0.0
O30 O 0.44102 0.95802 0.10452 0.0
O31 O 0.42529 0.99691 0.08977 0.0
H32 H 0.49451 0.1613 0.07025 0.0
H33 H 0.51978 0.22947 0.0721 0.0
H34 H 0.48625 0.21713 0.12315 0.0
H35 H 0.4621 0.14984 0.12142 0.0
H36 H 0.55675 0.92299 0.14222 0.0
H37 H 0.58086 0.8814 0.13438 0.0
H38 H 0.54844 0.88338 0.08396 0.0
H39 H 0.52369 0.92458 0.09204 0.0
Nd40 Nd 1.01344 0.43858 0.1004 0.0
Nd41 Nd 0.06911 0.52429 0.10906 0.0
C42 C 0.95666 0.3701 0.09344 0.0
C43 C 0.91481 0.3477 0.09243 0.0
C44 C 0.89759 0.31254 0.08454 0.0
C45 C 0.85855 0.28774 0.08591 0.0
C46 C 0.83564 0.29742 0.09528 0.0
C47 C 0.85285 0.33343 0.10262 0.0
C48 C 0.89195 0.35824 0.10123 0.0
C49 C 0.05398 0.45066 0.1288 0.0
C50 C 0.97915 0.49527 0.10945 0.0
C51 C 0.11733 0.58927 0.12309 0.0
C52 C 0.14524 0.62835 0.11806 0.0
C53 C 0.18272 0.64466 0.12349 0.0
C54 C 0.20925 0.68194 0.11941 0.0
C55 C 0.19891 0.70402 0.10987 0.0
C56 C 0.16137 0.68744 0.10427 0.0
C57 C 0.13487 0.65006 0.10829 0.0
C58 C 0.05525 0.51725 0.0754 0.0
C59 C 0.10307 0.47267 0.09405 0.0
O60 O 0.97571 0.39519 0.08199 0.0
O61 O 0.97042 0.38152 0.10818 0.0
O62 O 0.04532 0.42341 0.11855 0.0
O63 O 0.03945 0.47067 0.12455 0.0
O64 O 0.97321 0.46268 0.10352 0.0
O65 O 1.01291 0.5217 0.11431 0.0
O66 O 0.12561 0.56294 0.11988 0.0
O67 O 0.08158 0.57805 0.12077 0.0
O68 O 0.07699 0.54907 0.08267 0.0
O69 O 0.04184 0.49173 0.0861 0.0
O70 O 0.10852 0.50123 0.10352 0.0
O71 O 0.06891 0.44626 0.08901 0.0
H72 H 0.91462 0.30351 0.07788 0.0
H73 H 0.84663 0.26025 0.08021 0.0
H74 H 0.8362 0.34223 0.10971 0.0
H75 H 0.90452 0.38509 0.10755 0.0
H76 H 0.1915 0.62857 0.131 0.0
H77 H 0.238 0.69337 0.12369 0.0
H78 H 0.15221 0.70357 0.09703 0.0
H79 H 0.10618 0.63835 0.10388 0.0
Nd80 Nd 0.63362 0.59552 0.0972 0.0
Nd81 Nd 0.54373 0.56507 0.10647 0.0
C82 C 0.69657 0.60554 0.08317 0.0
C83 C 0.72469 0.59368 0.08693 0.0
C84 C 0.71494 0.56154 0.09653 0.0
C85 C 0.74139 0.54998 0.09963 0.0
C86 C 0.77839 0.5703 0.09325 0.0
C87 C 0.78804 0.60274 0.08377 0.0
C88 C 0.76153 0.61422 0.08065 0.0
C89 C 0.62432 0.60346 0.13071 0.0
C90 C 0.57472 0.50464 0.10583 0.0
C91 C 0.47836 0.54704 0.12058 0.0
C92 C 0.43857 0.53431 0.11603 0.0
C93 C 0.42143 0.55418 0.12206 0.0
C94 C 0.38373 0.54251 0.11833 0.0
C95 C 0.36195 0.5104 0.10854 0.0
C96 C 0.37931 0.49066 0.10238 0.0
C97 C 0.41718 0.50247 0.10607 0.0
C98 C 0.55522 0.56754 0.0726 0.0
C99 C 0.60271 0.65515 0.09959 0.0
O100 O 0.66275 0.57866 0.079 0.0
O101 O 0.69571 0.6304 0.09304 0.0
O102 O 0.65625 0.61181 0.12387 0.0
O103 O 0.59895 0.58779 0.11985 0.0
O104 O 0.60795 0.53125 0.10023 0.0
O105 O 0.54768 0.51154 0.11043 0.0
O106 O 0.50369 0.58164 0.11662 0.0
O107 O 0.49057 0.52318 0.1187 0.0
O108 O 0.52255 0.55637 0.07936 0.0
O109 O 0.57902 0.57602 0.08394 0.0
O110 O 0.57329 0.62902 0.10782 0.0
O111 O 0.62712 0.64793 0.09177 0.0
H112 H 0.68671 0.54515 0.10155 0.0
H113 H 0.73256 0.52465 0.1068 0.0
H114 H 0.81629 0.61958 0.07885 0.0
H115 H 0.76982 0.63916 0.07326 0.0
H116 H 0.43726 0.57887 0.12971 0.0
H117 H 0.37176 0.55896 0.12304 0.0
H118 H 0.36349 0.46568 0.09491 0.0
H119 H 0.42958 0.48653 0.10121 0.0
Nd120 Nd 0.06955 0.47412 0.92434 0.0
Nd121 Nd 1.01006 0.50176 0.91854 0.0
C122 C 0.12011 0.45523 0.9337 0.0
C123 C 0.16119 0.46912 0.93089 0.0
C124 C 0.18699 0.48492 0.94396 0.0
C125 C 0.22558 0.49767 0.94165 0.0
C126 C 0.23964 0.49484 0.92619 0.0
C127 C 0.21372 0.47904 0.9131 0.0
C128 C 0.17512 0.46637 0.91541 0.0
C129 C 0.04665 0.47129 0.89176 0.0
C130 C 0.10049 0.56392 0.91735 0.0
C131 C 0.95996 0.51832 0.90653 0.0
C132 C 0.93963 0.53844 0.91104 0.0
C133 C 0.93127 0.55734 0.89885 0.0
C134 C 0.90767 0.5721 0.90232 0.0
C135 C 0.8916 0.56803 0.91807 0.0
C136 C 0.90146 0.55049 0.93046 0.0
C137 C 0.92525 0.53596 0.92699 0.0
C138 C 0.02685 0.50633 0.95181 0.0
C139 C 0.97871 0.41174 0.92544 0.0
O140 O 0.11153 0.47667 0.94249 0.0
O141 O 0.09685 0.43928 0.92137 0.0
O142 O 0.08108 0.48176 0.89621 0.0
O143 O 0.02714 0.46503 0.90456 0.0
O144 O 0.10752 0.53874 0.92413 0.0
O145 O 0.06658 0.55454 0.91168 0.0
O146 O 0.95109 0.48772 0.9149 0.0
O147 O 0.99614 0.53835 0.90316 0.0
O148 O 1.00383 0.51592 0.94551 0.0
O149 O 0.04021 0.49578 0.94039 0.0
O150 O 0.97323 0.43778 0.9185 0.0
O151 O 1.01259 0.41951 0.93091 0.0
H152 H 0.17729 0.48744 0.95604 0.0
H153 H 0.24447 0.5101 0.95201 0.0
H154 H 0.2231 0.47578 0.90107 0.0
H155 H 0.1562 0.45424 0.90503 0.0
H156 H 0.94205 0.55966 0.88646 0.0
H157 H 0.90139 0.58604 0.89254 0.0
H158 H 0.88947 0.54643 0.94268 0.0
H159 H 0.93125 0.52153 0.93666 0.0
Nd160 Nd 0.60857 0.62867 0.92319 0.0
Nd161 Nd 0.57837 0.54287 0.91537 0.0
C162 C 0.62173 0.69758 0.92982 0.0
C163 C 0.60331 0.72063 0.93147 0.0
C164 C 0.62295 0.75595 0.93915 0.0
C165 C 0.60946 0.78131 0.93835 0.0
C166 C 0.57598 0.77198 0.92977 0.0
C167 C 0.55551 0.73582 0.92266 0.0
C168 C 0.56904 0.71044 0.92349 0.0
C169 C 0.63771 0.61559 0.89515 0.0
C170 C 0.51756 0.57197 0.91413 0.0
C171 C 0.56087 0.4774 0.90164 0.0
C172 C 0.54883 0.43785 0.90632 0.0
C173 C 0.57504 0.42523 0.90635 0.0
C174 C 0.56352 0.3875 0.90978 0.0
C175 C 0.5254 0.36126 0.91316 0.0
C176 C 0.49923 0.37399 0.91328 0.0
C177 C 0.51076 0.41174 0.90986 0.0
C178 C 0.57062 0.55126 0.9489 0.0
C179 C 0.66386 0.59508 0.9305 0.0
O180 O 0.61686 0.6732 0.9414 0.0
O181 O 0.6217 0.68509 0.91501 0.0
O182 O 0.65618 0.64308 0.90531 0.0
O183 O 0.60298 0.59577 0.89932 0.0
O184 O 0.54412 0.60463 0.9201 0.0
O185 O 0.52506 0.54559 0.90949 0.0
O186 O 0.59561 0.50353 0.90498 0.0
O187 O 0.5366 0.48891 0.90386 0.0
O188 O 0.56067 0.51914 0.94195 0.0
O189 O 0.58317 0.57628 0.93798 0.0
O190 O 0.64085 0.56592 0.92126 0.0
O191 O 0.65595 0.62153 0.93508 0.0
H192 H 0.64969 0.76463 0.94518 0.0
H193 H 0.62625 0.80891 0.94383 0.0
H194 H 0.52933 0.72736 0.9162 0.0
H195 H 0.55344 0.68341 0.91738 0.0
H196 H 0.6045 0.44446 0.90355 0.0
H197 H 0.58459 0.37889 0.90979 0.0
H198 H 0.4696 0.35456 0.91562 0.0
H199 H 0.48964 0.42027 0.90976 0.0
Nd200 Nd 0.45022 1.00992 0.92459 0.0
Nd201 Nd 0.53768 0.06821 0.91966 0.0
C202 C 0.37948 0.96132 0.93345 0.0
C203 C 0.35213 0.92058 0.93114 0.0
C204 C 0.36287 0.89649 0.92364 0.0
C205 C 0.33661 0.85794 0.9216 0.0
C206 C 0.29896 0.84254 0.92704 0.0
C207 C 0.28847 0.86699 0.9345 0.0
C208 C 0.31471 0.90547 0.93651 0.0
C209 C 0.4717 0.03517 0.89242 0.0
C210 C 0.50733 0.9773 0.91798 0.0
C211 C 0.6052 0.11729 0.90777 0.0
C212 C 0.64588 0.13503 0.91183 0.0
C213 C 0.67272 0.14969 0.89915 0.0
C214 C 0.71134 0.17146 0.90276 0.0
C215 C 0.72401 0.17924 0.91917 0.0
C216 C 0.69706 0.16306 0.93186 0.0
C217 C 0.65844 0.14117 0.92823 0.0
C218 C 0.52488 0.04804 0.95254 0.0
C219 C 0.4812 0.10075 0.92875 0.0
O220 O 0.40884 0.96993 0.94272 0.0
O221 O 0.38828 0.98268 0.92037 0.0
O222 O 0.44816 1.00033 0.89641 0.0
O223 O 0.48454 0.05402 0.90544 0.0
O224 O 0.47482 0.97062 0.92429 0.0
O225 O 0.53309 1.0113 0.91284 0.0
O226 O 0.58518 0.12641 0.91724 0.0
O227 O 0.58701 0.08168 0.90342 0.0
O228 O 0.55781 0.07099 0.9464 0.0
O229 O 0.50079 0.03624 0.94112 0.0
O230 O 0.51386 0.10762 0.92253 0.0
O231 O 0.45304 0.06613 0.93189 0.0
H232 H 0.39163 0.90748 0.91941 0.0
H233 H 0.34599 0.84011 0.91598 0.0
H234 H 0.25974 0.8565 0.93863 0.0
H235 H 0.30571 0.92349 0.94227 0.0
H236 H 0.66372 0.14558 0.88641 0.0
H237 H 0.73108 0.18374 0.89265 0.0
H238 H 0.70576 0.16803 0.94463 0.0
H239 H 0.6383 0.13014 0.93826 0.0
Nd240 Nd 0.14439 0.39339 0.43367 0.0
Nd241 Nd 0.17589 0.33861 0.44101 0.0
C242 C 0.13201 0.44988 0.42748 0.0
C243 C 0.1517 0.49156 0.42611 0.0
C244 C 0.13312 0.50865 0.41869 0.0
C245 C 0.14808 0.54776 0.4197 0.0
C246 C 0.18203 0.57082 0.42821 0.0
C247 C 0.20137 0.55368 0.43507 0.0
C248 C 0.18636 0.51452 0.43405 0.0
C249 C 0.11583 0.35093 0.46163 0.0
C250 C 0.23557 0.42838 0.44296 0.0
C251 C 0.19478 0.29032 0.45318 0.0
C252 C 0.20744 0.26421 0.447 0.0
C253 C 0.18172 0.22534 0.44583 0.0
C254 C 0.19369 0.20038 0.44069 0.0
C255 C 0.23179 0.21356 0.43666 0.0
C256 C 0.25749 0.25249 0.43775 0.0
C257 C 0.2455 0.27748 0.44286 0.0
C258 C 0.18323 0.35596 0.40757 0.0
C259 C 0.08946 0.30395 0.42679 0.0
O260 O 0.13625 0.43026 0.41575 0.0
O261 O 0.13165 0.43677 0.4422 0.0
O262 O 0.09723 0.36005 0.45159 0.0
O263 O 0.15062 0.366 0.45743 0.0
O264 O 0.20889 0.43404 0.43678 0.0
O265 O 0.22831 0.39464 0.44768 0.0
O266 O 0.15978 0.28144 0.4503 0.0
O267 O 0.21843 0.32653 0.4518 0.0
O268 O 0.1937 0.33397 0.41421 0.0
O269 O 0.17047 0.36756 0.41873 0.0
O270 O 0.11321 0.29879 0.43595 0.0
O271 O 0.09675 0.33809 0.42203 0.0
H272 H 0.10612 0.49153 0.4127 0.0
H273 H 0.13208 0.55966 0.41441 0.0
H274 H 0.22784 0.57045 0.44149 0.0
H275 H 0.20116 0.50202 0.43998 0.0
H276 H 0.15234 0.21406 0.44911 0.0
H277 H 0.17318 0.17055 0.44031 0.0
H278 H 0.28695 0.26372 0.43465 0.0
H279 H 0.26622 0.3072 0.4437 0.0
Nd280 Nd 0.68384 0.77648 0.43255 0.0
Nd281 Nd 0.74448 0.86346 0.43778 0.0
C282 C 0.63304 0.7066 0.42357 0.0
C283 C 0.59204 0.68013 0.42616 0.0
C284 C 0.57561 0.64289 0.42046 0.0
C285 C 0.53692 0.61746 0.42273 0.0
C286 C 0.5135 0.62856 0.43077 0.0
C287 C 0.53022 0.66602 0.43652 0.0
C288 C 0.56899 0.69149 0.43423 0.0
C289 C 0.7097 0.79665 0.46473 0.0
C290 C 0.65394 0.83626 0.43916 0.0
C291 C 0.79632 0.92899 0.45031 0.0
C292 C 0.81724 0.97014 0.44747 0.0
C293 C 0.84996 0.99227 0.45669 0.0
C294 C 0.87307 0.03063 0.45329 0.0
C295 C 0.864 0.04814 0.44059 0.0
C296 C 0.83063 0.02588 0.43151 0.0
C297 C 0.80754 0.98719 0.43488 0.0
C298 C 0.72488 0.85125 0.40486 0.0
C299 C 0.77457 0.805 0.42834 0.0
O300 O 0.64218 0.73638 0.41453 0.0
O301 O 0.65497 0.71441 0.43641 0.0
O302 O 0.67457 0.77403 0.46078 0.0
O303 O 0.72838 0.80949 0.45165 0.0
O304 O 0.64627 0.80333 0.433 0.0
O305 O 0.68831 0.86132 0.44427 0.0
O306 O 0.80386 0.90893 0.44016 0.0
O307 O 0.76049 0.91254 0.4544 0.0
O308 O 0.74835 0.88399 0.411 0.0
O309 O 0.71219 0.82731 0.41632 0.0
O310 O 0.78221 0.83768 0.43474 0.0
O311 O 0.73952 0.77759 0.4251 0.0
H312 H 0.59278 0.63339 0.41426 0.0
H313 H 0.52548 0.58885 0.41834 0.0
H314 H 0.51324 0.67589 0.44261 0.0
H315 H 0.58096 0.72011 0.43871 0.0
H316 H 0.85832 0.97957 0.46628 0.0
H317 H 0.89882 0.04624 0.46033 0.0
H318 H 0.82245 0.03825 0.42173 0.0
H319 H 0.78258 0.9705 0.42748 0.0
Nd320 Nd 0.30264 0.93443 0.432 0.0
Nd321 Nd 0.21587 0.90206 0.44182 0.0
C322 C 0.36801 0.9452 0.42017 0.0
C323 C 0.39495 0.93126 0.42311 0.0
C324 C 0.40588 0.9164 0.41002 0.0
C325 C 0.43276 0.90506 0.41235 0.0
C326 C 0.44971 0.90842 0.42784 0.0
C327 C 0.43827 0.92285 0.44098 0.0
C328 C 0.41129 0.93405 0.43866 0.0
C329 C 0.29279 0.95535 0.46282 0.0
C330 C 0.24894 0.84384 0.44229 0.0
C331 C 0.15071 0.8821 0.45678 0.0
C332 C 0.11086 0.86933 0.45268 0.0
C333 C 0.08452 0.86013 0.4654 0.0
C334 C 0.04662 0.84807 0.46188 0.0
C335 C 0.03409 0.84492 0.44551 0.0
C336 C 0.06063 0.85385 0.43275 0.0
C337 C 0.09863 0.86597 0.4363 0.0
C338 C 0.22357 0.90138 0.4077 0.0
C339 C 0.2679 0.98999 0.43088 0.0
O340 O 0.33535 0.92193 0.41349 0.0
O341 O 0.36523 0.96609 0.43161 0.0
O342 O 0.32213 0.9745 0.45358 0.0
O343 O 0.27058 0.92296 0.45652 0.0
O344 O 0.28253 0.87197 0.43795 0.0
O345 O 0.21999 0.84878 0.44527 0.0
O346 O 0.17571 0.91703 0.45319 0.0
O347 O 0.16273 0.85862 0.45359 0.0
O348 O 0.1915 0.88985 0.41506 0.0
O349 O 0.24863 0.91201 0.41854 0.0
O350 O 0.24185 0.96566 0.44104 0.0
O351 O 0.29132 0.98179 0.42283 0.0
H352 H 0.39384 0.91387 0.3979 0.0
H353 H 0.44016 0.89351 0.40195 0.0
H354 H 0.45081 0.9264 0.45305 0.0
H355 H 0.40366 0.94541 0.44906 0.0
H356 H 0.09328 0.86229 0.47812 0.0
H357 H 0.02704 0.84096 0.47203 0.0
H358 H 0.0522 0.85219 0.42001 0.0
H359 H 0.11848 0.87291 0.42627 0.0
Nd360 Nd 0.72533 0.79786 0.25415 0.0
Nd361 Nd 0.66874 0.82917 0.2487 0.0
C362 C 0.77313 0.77517 0.26347 0.0
C363 C 0.81404 0.78848 0.26148 0.0
C364 C 0.83805 0.82168 0.25279 0.0
C365 C 0.87677 0.834 0.25114 0.0
C366 C 0.89247 0.81347 0.25819 0.0
C367 C 0.86811 0.78018 0.26686 0.0
C368 C 0.82946 0.76789 0.26847 0.0
C369 C 0.70137 0.79485 0.22167 0.0
C370 C 0.75989 0.88832 0.24776 0.0
C371 C 0.62054 0.84863 0.23685 0.0
C372 C 0.60248 0.87106 0.24114 0.0
C373 C 0.58915 0.88477 0.22856 0.0
C374 C 0.5669 0.90096 0.23226 0.0
C375 C 0.55729 0.90362 0.24866 0.0
C376 C 0.57221 0.89141 0.26129 0.0
C377 C 0.59461 0.87537 0.25758 0.0
C378 C 0.68623 0.83336 0.28186 0.0
C379 C 0.63379 0.73874 0.2561 0.0
O380 O 0.76436 0.79591 0.27263 0.0
O381 O 0.75218 0.76282 0.25025 0.0
O382 O 0.73584 0.80506 0.22593 0.0
O383 O 0.68261 0.78989 0.23463 0.0
O384 O 0.76545 0.86199 0.25431 0.0
O385 O 0.72647 0.8806 0.24205 0.0
O386 O 0.61069 0.81863 0.24584 0.0
O387 O 0.65652 0.86653 0.23296 0.0
O388 O 0.66417 0.84434 0.27571 0.0
O389 O 0.69839 0.82181 0.27033 0.0
O390 O 0.62947 0.76561 0.24927 0.0
O391 O 0.66747 0.74486 0.261 0.0
H392 H 0.82688 0.83818 0.24734 0.0
H393 H 0.8945 0.85995 0.24454 0.0
H394 H 0.8788 0.76323 0.27227 0.0
H395 H 0.81155 0.74217 0.27521 0.0
H396 H 0.59462 0.88152 0.2158 0.0
H397 H 0.55563 0.90964 0.2222 0.0
H398 H 0.5658 0.89343 0.27405 0.0
H399 H 0.6046 0.86508 0.26753 0.0
Nd400 Nd 0.26195 0.95193 0.25914 0.0
Nd401 Nd 0.23456 0.86269 0.25063 0.0
C402 C 0.27241 1.01441 0.27358 0.0
C403 C 0.2621 0.04361 0.27017 0.0
C404 C 0.23156 0.03608 0.25986 0.0
C405 C 0.22134 0.06358 0.25714 0.0
C406 C 0.24146 0.0993 0.26465 0.0
C407 C 0.27233 0.10675 0.27482 0.0
C408 C 0.28248 0.0792 0.27755 0.0
C409 C 0.27218 0.94233 0.22595 0.0
C410 C 0.17132 0.89066 0.25062 0.0
C411 C 0.21858 0.79757 0.23719 0.0
C412 C 0.2039 0.75776 0.2421 0.0
C413 C 0.22608 0.74114 0.23909 0.0
C414 C 0.21327 0.7037 0.24353 0.0
C415 C 0.1778 0.68176 0.25107 0.0
C416 C 0.15539 0.69832 0.25398 0.0
C417 C 0.16835 0.73599 0.2496 0.0
C418 C 0.23676 0.87569 0.28441 0.0
C419 C 0.32414 0.92465 0.25616 0.0
O420 O 0.24443 0.98074 0.27715 0.0
O421 O 0.29746 1.01353 0.26382 0.0
O422 O 0.27892 0.97409 0.23245 0.0
O423 O 0.25614 0.91717 0.23686 0.0
O424 O 0.19734 0.92487 0.25555 0.0
O425 O 0.17933 0.86392 0.24689 0.0
O426 O 0.2522 0.82212 0.24267 0.0
O427 O 0.19506 0.81054 0.23713 0.0
O428 O 0.22657 0.84291 0.27805 0.0
O429 O 0.24445 0.8985 0.27277 0.0
O430 O 0.29855 0.89501 0.2479 0.0
O431 O 0.31554 0.94745 0.26443 0.0
H432 H 0.21537 1.00877 0.25402 0.0
H433 H 0.19718 0.05656 0.24939 0.0
H434 H 0.28891 0.13403 0.28061 0.0
H435 H 0.30621 0.08568 0.2855 0.0
H436 H 0.25344 0.75716 0.23323 0.0
H437 H 0.231 0.69174 0.2408 0.0
H438 H 0.12802 0.6823 0.25982 0.0
H439 H 0.15058 0.74801 0.25211 0.0
Nd440 Nd 0.1114 0.33402 0.26007 0.0
Nd441 Nd 0.19682 0.39293 0.24993 0.0
C442 C 0.04889 0.27847 0.2734 0.0
C443 C 1.021 0.23839 0.26973 0.0
C444 C 1.00787 0.21167 0.28246 0.0
C445 C 0.98075 0.1739 0.27939 0.0
C446 C 0.96587 0.16182 0.26347 0.0
C447 C 0.9795 0.18869 0.25068 0.0
C448 C 1.00675 0.22643 0.25376 0.0
C449 C 0.11908 0.35835 0.22817 0.0
C450 C 0.17095 0.30314 0.25172 0.0
C451 C 0.26098 0.43931 0.23469 0.0
C452 C 0.30143 0.46213 0.23894 0.0
C453 C 0.328 0.48143 0.22652 0.0
C454 C 0.36632 0.50424 0.23038 0.0
C455 C 0.37893 0.50826 0.24678 0.0
C456 C 0.35214 0.48828 0.25917 0.0
C457 C 0.3138 0.46541 0.25528 0.0
C458 C 0.18986 0.38746 0.28406 0.0
C459 C 0.13811 0.42208 0.25813 0.0
O460 O 0.08282 0.28623 0.27776 0.0
O461 O 0.04932 0.30402 0.26362 0.0
O462 O 0.08818 0.34496 0.23664 0.0
O463 O 0.14354 0.35329 0.23568 0.0
O464 O 0.13591 0.29504 0.25491 0.0
O465 O 0.19874 0.33802 0.24928 0.0
O466 O 0.23859 0.45013 0.2411 0.0
O467 O 0.24631 0.40267 0.23494 0.0
O468 O 0.22136 0.40899 0.27649 0.0
O469 O 0.16475 0.37043 0.27343 0.0
O470 O 0.16451 0.42465 0.24797 0.0
O471 O 0.11829 0.3918 0.26751 0.0
H472 H 1.01851 0.22006 0.29486 0.0
H473 H 0.97163 0.15411 0.28952 0.0
H474 H 0.96858 0.18077 0.23831 0.0
H475 H 1.0164 0.24633 0.24365 0.0
H476 H 0.31903 0.47933 0.21384 0.0
H477 H 0.38591 0.51962 0.22054 0.0
H478 H 0.36081 0.49041 0.2719 0.0
H479 H 0.29377 0.45058 0.26505 0.0
Nd480 Nd 0.81691 0.73176 0.76516 0.0
Nd481 Nd 0.84123 0.66745 0.77386 0.0
C482 C 0.80989 0.7863 0.75111 0.0
C483 C 0.82294 0.8266 0.75462 0.0
C484 C 0.85729 0.84975 0.76277 0.0
C485 C 0.86971 0.88801 0.76561 0.0
C486 C 0.84805 0.90416 0.76045 0.0
C487 C 0.81342 0.88063 0.75246 0.0
C488 C 0.8011 0.84242 0.74957 0.0
C489 C 0.80736 0.71277 0.79845 0.0
C490 C 0.90703 0.75784 0.77297 0.0
C491 C 0.85659 0.61766 0.78706 0.0
C492 C 0.87242 0.59374 0.78177 0.0
C493 C 0.86109 0.57309 0.767 0.0
C494 C 0.87467 0.54889 0.76272 0.0
C495 C 0.90005 0.54485 0.77306 0.0
C496 C 0.9122 0.56655 0.78757 0.0
C497 C 0.89846 0.59059 0.79188 0.0
C498 C 0.83789 0.67706 0.74007 0.0
C499 C 0.75261 0.64312 0.76865 0.0
O500 O 0.83597 0.77814 0.74704 0.0
O501 O 0.78431 0.76121 0.761 0.0
O502 O 0.80083 0.73783 0.79188 0.0
O503 O 0.82279 0.70307 0.7875 0.0
O504 O 0.88164 0.76719 0.76843 0.0
O505 O 0.89809 0.72276 0.77658 0.0
O506 O 0.82329 0.60894 0.78126 0.0
O507 O 0.87995 0.65413 0.78778 0.0
O508 O 0.84708 0.65382 0.74651 0.0
O509 O 0.83184 0.69363 0.75164 0.0
O510 O 0.77743 0.63853 0.7773 0.0
O511 O 0.76229 0.67437 0.76001 0.0
H512 H 0.87471 0.83831 0.76683 0.0
H513 H 0.89667 0.90507 0.77163 0.0
H514 H 0.79553 0.89163 0.74854 0.0
H515 H 0.77445 0.82518 0.74334 0.0
H516 H 0.84117 0.57509 0.75889 0.0
H517 H 0.86431 0.53245 0.75155 0.0
H518 H 0.93219 0.56479 0.79571 0.0
H519 H 0.90784 0.60638 0.80326 0.0
Nd520 Nd 0.35452 0.1105 0.76671 0.0
Nd521 Nd 0.41325 0.19797 0.7712 0.0
C522 C 0.30526 0.0398 0.75834 0.0
C523 C 0.2641 1.01221 0.7606 0.0
C524 C 0.23816 1.00606 0.74795 0.0
C525 C 0.19964 0.9795 0.74978 0.0
C526 C 0.18582 0.95805 0.7643 0.0
C527 C 0.21182 0.96423 0.77696 0.0
C528 C 0.25036 0.99082 0.77513 0.0
C529 C 0.37935 0.13268 0.79884 0.0
C530 C 0.3223 0.16833 0.77245 0.0
C531 C 0.46234 0.26566 0.78278 0.0
C532 C 0.48057 0.30627 0.77855 0.0
C533 C 0.48891 0.3329 0.79107 0.0
C534 C 0.51099 0.37161 0.78778 0.0
C535 C 0.5255 0.38453 0.7719 0.0
C536 C 0.51566 0.35781 0.75922 0.0
C537 C 0.49336 0.31914 0.76249 0.0
C538 C 0.39291 0.18387 0.73834 0.0
C539 C 0.4457 0.14112 0.76289 0.0
O540 O 0.31445 0.06872 0.7487 0.0
O541 O 0.32719 0.04884 0.77126 0.0
O542 O 0.34443 0.10942 0.79479 0.0
O543 O 0.3985 0.14518 0.78585 0.0
O544 O 0.31549 0.13561 0.7664 0.0
O545 O 0.3563 0.19389 0.77769 0.0
O546 O 0.47159 0.2452 0.77368 0.0
O547 O 0.42658 0.24779 0.78702 0.0
O548 O 0.41614 0.217 0.74417 0.0
O549 O 0.38122 0.16049 0.75001 0.0
O550 O 0.45263 0.17397 0.7688 0.0
O551 O 0.41098 0.11298 0.75979 0.0
H552 H 0.24766 0.02176 0.73654 0.0
H553 H 0.18061 0.97601 0.73981 0.0
H554 H 0.20255 0.94797 0.78822 0.0
H555 H 0.26941 0.99435 0.78509 0.0
H556 H 0.47958 0.32372 0.80356 0.0
H557 H 0.51826 0.39131 0.79787 0.0
H558 H 0.52595 0.36677 0.74682 0.0
H559 H 0.48725 0.29929 0.75256 0.0
Nd560 Nd 0.97478 0.27057 0.76635 0.0
Nd561 Nd 0.88824 0.23584 0.77532 0.0
C562 C 0.04433 0.28601 0.759 0.0
C563 C 0.06772 0.26787 0.75746 0.0
C564 C 0.05706 0.23323 0.76514 0.0
C565 C 0.08241 0.21964 0.76607 0.0
C566 C 0.11906 0.24042 0.75938 0.0
C567 C 0.12894 0.27436 0.75112 0.0
C568 C 0.10358 0.2879 0.75021 0.0
C569 C 0.96096 0.29557 0.79534 0.0
C570 C 0.92196 0.17928 0.7758 0.0
C571 C 0.8222 0.2149 0.7895 0.0
C572 C 0.78265 0.20394 0.78507 0.0
C573 C 0.77062 0.2306 0.78539 0.0
C574 C 0.73289 0.21982 0.78214 0.0
C575 C 0.70607 0.18203 0.77857 0.0
C576 C 0.71819 0.15544 0.77814 0.0
C577 C 0.7559 0.1662 0.7814 0.0
C578 C 0.8961 0.22933 0.7416 0.0
C579 C 0.93621 0.3222 0.76053 0.0
O580 O 1.01889 0.27961 0.74769 0.0
O581 O 0.03262 0.2868 0.77388 0.0
O582 O 0.98744 0.31622 0.78504 0.0
O583 O 0.9424 0.2612 0.79068 0.0
O584 O 0.95311 0.20649 0.76894 0.0
O585 O 0.89538 0.18544 0.7815 0.0
O586 O 0.84855 0.25027 0.78767 0.0
O587 O 0.8338 0.19143 0.78553 0.0
O588 O 0.86384 0.21778 0.74878 0.0
O589 O 0.92135 0.24289 0.75239 0.0
O590 O 0.9082 0.29781 0.76998 0.0
O591 O 0.96382 0.31643 0.75535 0.0
H592 H 0.02964 0.21736 0.77096 0.0
H593 H 0.07349 0.19312 0.77228 0.0
H594 H 0.15691 0.2914 0.74596 0.0
H595 H 0.11265 0.31492 0.74442 0.0
H596 H 0.7903 0.25982 0.78831 0.0
H597 H 0.72475 0.2412 0.78238 0.0
H598 H 0.69833 0.12603 0.77566 0.0
H599 H 0.76393 0.14473 0.78128 0.0
Nd600 Nd 0.4034 0.13887 0.59116 0.0
Nd601 Nd 0.33946 0.16323 0.58179 0.0
C602 C 0.45653 0.13057 0.60594 0.0
C603 C 0.49632 0.14131 0.60259 0.0
C604 C 0.51902 0.17123 0.59193 0.0
C605 C 0.55698 0.18182 0.58926 0.0
C606 C 0.57317 0.16271 0.59717 0.0
C607 C 0.55007 0.13245 0.6077 0.0
C608 C 0.51215 0.12194 0.61037 0.0
C609 C 0.38484 0.12812 0.55783 0.0
C610 C 0.43004 0.22891 0.58299 0.0
C611 C 0.28934 0.17713 0.5678 0.0
C612 C 0.26453 0.19225 0.57249 0.0
C613 C 0.22769 0.17501 0.56622 0.0
C614 C 0.20305 0.18777 0.57078 0.0
C615 C 0.21466 0.2182 0.58175 0.0
C616 C 0.2518 0.23576 0.58791 0.0
C617 C 0.27645 0.22278 0.5834 0.0
C618 C 0.34876 0.16097 0.61565 0.0
C619 C 0.31449 0.07491 0.58793 0.0
O620 O 0.4502 0.15826 0.60911 0.0
O621 O 0.43066 0.10469 0.59644 0.0
O622 O 0.41016 0.12222 0.56463 0.0
O623 O 0.37469 0.14362 0.56854 0.0
O624 O 0.43918 0.20358 0.58786 0.0
O625 O 0.39504 0.21989 0.579 0.0
O626 O 0.28066 0.14435 0.57409 0.0
O627 O 0.32587 0.20076 0.5673 0.0
O628 O 0.32564 0.17015 0.60903 0.0
O629 O 0.36526 0.1544 0.60422 0.0
O630 O 0.31012 0.0994 0.57898 0.0
O631 O 0.34572 0.08485 0.59664 0.0
H632 H 0.50747 0.18667 0.58578 0.0
H633 H 0.57382 0.20548 0.58122 0.0
H634 H 0.56118 0.11661 0.61381 0.0
H635 H 0.49519 0.0987 0.6186 0.0
H636 H 0.21787 0.15145 0.5578 0.0
H637 H 0.1749 0.17396 0.56558 0.0
H638 H 0.26157 0.25908 0.59645 0.0
H639 H 0.30466 0.2364 0.58853 0.0
Nd640 Nd 0.93918 0.29354 0.59349 0.0
Nd641 Nd 0.91298 0.2082 0.58374 0.0
C642 C 0.94661 0.35633 0.60669 0.0
C643 C 0.93368 0.38377 0.60365 0.0
C644 C 0.90033 0.37382 0.59492 0.0
C645 C 0.88884 0.40045 0.59218 0.0
C646 C 0.9105 0.43771 0.59807 0.0
C647 C 0.94402 0.44744 0.60672 0.0
C648 C 0.95539 0.42082 0.60947 0.0
C649 C 0.9579 0.28586 0.56193 0.0
C650 C 0.84882 0.23411 0.5847 0.0
C651 C 0.89567 0.14361 0.56911 0.0
C652 C 0.8789 0.10336 0.57359 0.0
C653 C 0.86506 0.07586 0.56121 0.0
C654 C 0.85019 0.0377 0.56511 0.0
C655 C 0.8488 0.02609 0.58154 0.0
C656 C 0.86221 0.0538 0.59397 0.0
C657 C 0.87705 0.092 0.59004 0.0
C658 C 0.9139 0.21591 0.61786 0.0
C659 C 1.00062 0.26668 0.59229 0.0
O660 O 0.92128 0.32242 0.61148 0.0
O661 O 0.97042 0.35598 0.59607 0.0
O662 O 0.97513 0.31649 0.57054 0.0
O663 O 0.92759 0.2614 0.56908 0.0
O664 O 0.87571 0.26911 0.58793 0.0
O665 O 0.85606 0.20641 0.58245 0.0
O666 O 0.92909 0.16683 0.57517 0.0
O667 O 0.87309 0.15759 0.56933 0.0
O668 O 0.90411 0.18431 0.61049 0.0
O669 O 0.92201 0.24058 0.60704 0.0
O670 O 0.97721 0.24035 0.58203 0.0
O671 O 0.98984 0.28652 0.60146 0.0
H672 H 0.88314 0.34546 0.59024 0.0
H673 H 0.8627 0.39165 0.58563 0.0
H674 H 0.96188 0.47587 0.6112 0.0
H675 H 0.98136 0.42926 0.61613 0.0
H676 H 0.86624 0.08398 0.54844 0.0
H677 H 0.84075 0.0174 0.55517 0.0
H678 H 0.86128 0.04598 0.60676 0.0
H679 H 0.8874 0.11269 0.59983 0.0
Nd680 Nd 0.78294 0.67544 0.58924 0.0
Nd681 Nd 0.87098 0.73211 0.58378 0.0
C682 C 0.71239 0.62707 0.59835 0.0
C683 C 0.68432 0.58606 0.59602 0.0
C684 C 0.67669 0.56029 0.60892 0.0
C685 C 0.65 0.52186 0.60703 0.0
C686 C 0.62985 0.50789 0.5922 0.0
C687 C 0.6375 0.53375 0.5793 0.0
C688 C 0.66425 0.57221 0.58118 0.0
C689 C 0.80418 0.6967 0.55658 0.0
C690 C 0.83949 0.64128 0.58334 0.0
C691 C 0.93909 0.78006 0.57214 0.0
C692 C 0.97958 0.79892 0.57675 0.0
C693 C 1.00698 0.8081 0.56448 0.0
C694 C 0.0455 0.83075 0.56812 0.0
C695 C 0.05747 0.84496 0.58411 0.0
C696 C 0.02997 0.83428 0.59654 0.0
C697 C 0.99148 0.81145 0.59292 0.0
C698 C 0.85712 0.71564 0.61709 0.0
C699 C 0.81493 0.76689 0.58978 0.0
O700 O 0.74186 0.63561 0.60756 0.0
O701 O 0.72092 0.64943 0.5856 0.0
O702 O 0.77976 0.66268 0.56129 0.0
O703 O 0.81783 0.71668 0.56926 0.0
O704 O 0.80748 0.63572 0.58987 0.0
O705 O 0.86509 0.67456 0.57749 0.0
O706 O 0.91816 0.79013 0.58044 0.0
O707 O 0.92154 0.74391 0.56874 0.0
O708 O 0.89027 0.73773 0.61096 0.0
O709 O 0.83361 0.70319 0.60549 0.0
O710 O 0.84623 0.77095 0.58311 0.0
O711 O 0.78763 0.7336 0.59525 0.0
H712 H 0.6914 0.56987 0.62054 0.0
H713 H 0.64546 0.503 0.6172 0.0
H714 H 0.62231 0.52444 0.56778 0.0
H715 H 0.669 0.5911 0.57099 0.0
H716 H 0.99852 0.799 0.55191 0.0
H717 H 0.06578 0.83866 0.5582 0.0
H718 H 0.03818 0.84431 0.60903 0.0
H719 H 0.97097 0.80469 0.60265 0.0
C720 C 0.559 0.82192 0.09323 0.0
C721 C 0.58022 0.8522 0.10394 0.0
C722 C 0.56858 0.79384 0.09046 0.0
C723 C 0.60018 0.79584 0.0986 0.0
C724 C 0.62318 0.82761 0.10854 0.0
C725 C 0.61293 0.8553 0.1111 0.0
C726 C 0.54306 0.76046 0.07984 0.0
C727 C 0.65728 0.8312 0.11735 0.0
C728 C 0.58672 0.70118 0.11174 0.0
C729 C 0.60674 0.69345 0.09975 0.0
C730 C 0.58534 0.73458 0.11163 0.0
C731 C 0.60466 0.76173 0.09923 0.0
C732 C 0.62633 0.75513 0.08741 0.0
C733 C 0.62714 0.72099 0.0878 0.0
C734 C 0.56208 0.7402 0.1246 0.0
C735 C 0.6476 0.78354 0.07408 0.0
H736 H 0.53359 0.81897 0.08768 0.0
H737 H 0.63011 0.87897 0.11909 0.0
H738 H 0.55992 0.75365 0.07128 0.0
H739 H 0.52644 0.73541 0.08777 0.0
H740 H 0.52308 0.76553 0.07255 0.0
H741 H 0.67562 0.86004 0.1223 0.0
H742 H 0.6479 0.811 0.12776 0.0
H743 H 0.67424 0.82412 0.10898 0.0
H744 H 0.57107 0.68054 0.12118 0.0
H745 H 0.64262 0.71539 0.07847 0.0
H746 H 0.54003 0.74438 0.11869 0.0
H747 H 0.58037 0.76584 0.13191 0.0
H748 H 0.54796 0.71589 0.13316 0.0
H749 H 0.62723 0.78463 0.06542 0.0
H750 H 0.66647 0.77645 0.06703 0.0
H751 H 0.66475 0.81212 0.07944 0.0
C752 C 0.38219 0.8959 0.0869 0.0
C753 C 0.38159 0.92869 0.09121 0.0
C754 C 0.34959 0.86029 0.08797 0.0
C755 C 0.3155 0.85726 0.09371 0.0
C756 C 0.3141 0.89055 0.09698 0.0
C757 C 0.34725 0.92604 0.09561 0.0
C758 C 0.35252 0.82577 0.08422 0.0
C759 C 0.27831 0.88852 0.10309 0.0
C760 C 0.22805 0.75949 0.09034 0.0
C761 C 0.22717 0.74417 0.10592 0.0
C762 C 0.25562 0.79677 0.08636 0.0
C763 C 0.28319 0.81931 0.09818 0.0
C764 C 0.28182 0.80436 0.11405 0.0
C765 C 0.25385 0.76718 0.11773 0.0
C766 C 0.25606 0.81155 0.06931 0.0
C767 C 0.31076 0.82718 0.12703 0.0
H768 H 0.40887 0.89797 0.08363 0.0
H769 H 0.34693 0.95131 0.09926 0.0
H770 H 0.35062 0.81073 0.09585 0.0
H771 H 0.32884 0.80602 0.07624 0.0
H772 H 0.37957 0.83302 0.07805 0.0
H773 H 0.28106 0.91682 0.10401 0.0
H774 H 0.25447 0.87071 0.09475 0.0
H775 H 0.27102 0.87509 0.11541 0.0
H776 H 0.20785 0.74199 0.08105 0.0
H777 H 0.25304 0.75605 0.12991 0.0
H778 H 0.28125 0.8153 0.06253 0.0
H779 H 0.25816 0.83956 0.07 0.0
H780 H 0.23044 0.79218 0.06215 0.0
H781 H 0.33873 0.83148 0.12329 0.0
H782 H 0.30343 0.81316 0.13925 0.0
H783 H 0.31364 0.85542 0.12826 0.0
C784 C 0.13921 0.43809 0.09451 0.0
C785 C 0.13734 0.47035 0.0905 0.0
C786 C 0.17444 0.43976 0.09588 0.0
C787 C 0.20833 0.47439 0.09305 0.0
C788 C 0.20611 0.50613 0.08776 0.0
C789 C 0.17076 0.50373 0.08664 0.0
C790 C 0.17552 0.40525 0.10147 0.0
C791 C 0.24124 0.54359 0.08452 0.0
C792 C 0.29828 0.50056 0.11689 0.0
C793 C 0.32144 0.4979 0.10482 0.0
C794 C 0.26102 0.49151 0.11337 0.0
C795 C 0.24607 0.47912 0.09739 0.0
C796 C 0.26866 0.47482 0.08532 0.0
C797 C 0.30602 0.48435 0.08915 0.0
C798 C 0.23817 0.49671 0.12664 0.0
C799 C 0.2539 0.46163 0.06816 0.0
H800 H 0.1135 0.41244 0.0978 0.0
H801 H 0.16937 0.52879 0.08365 0.0
H802 H 0.19373 0.39976 0.09315 0.0
H803 H 0.18805 0.41011 0.11395 0.0
H804 H 0.14694 0.37981 0.10184 0.0
H805 H 0.23466 0.56427 0.07883 0.0
H806 H 0.25629 0.55552 0.09628 0.0
H807 H 0.2608 0.53993 0.07629 0.0
H808 H 0.30942 0.51013 0.12914 0.0
H809 H 0.32355 0.48235 0.07967 0.0
H810 H 0.20991 0.47117 0.12772 0.0
H811 H 0.23379 0.52049 0.12331 0.0
H812 H 0.25226 0.50276 0.13884 0.0
H813 H 0.22552 0.436 0.06863 0.0
H814 H 0.27301 0.45534 0.06084 0.0
H815 H 0.25086 0.48378 0.06169 0.0
C816 C 0.86071 0.5946 0.93649 0.0
C817 C 0.86266 0.57945 0.92125 0.0
C818 C 0.83145 0.60217 0.94002 0.0
C819 C 0.80344 0.5946 0.92802 0.0
C820 C 0.80605 0.58064 0.91241 0.0
C821 C 0.83539 0.5731 0.90926 0.0
C822 C 0.82965 0.61684 0.95683 0.0
C823 C 0.77675 0.57183 0.89923 0.0
C824 C 0.70238 0.56651 0.93848 0.0
C825 C 0.70099 0.59881 0.93405 0.0
C826 C 0.73625 0.56576 0.93775 0.0
C827 C 0.76954 0.5979 0.93206 0.0
C828 C 0.76879 0.6314 0.92849 0.0
C829 C 0.73448 0.63158 0.92968 0.0
C830 C 0.73567 0.52959 0.94192 0.0
C831 C 0.80354 0.66613 0.92227 0.0
H832 H 0.88185 0.60013 0.94578 0.0
H833 H 0.836 0.56078 0.89755 0.0
H834 H 0.82609 0.64184 0.95571 0.0
H835 H 0.80473 0.59491 0.96359 0.0
H836 H 0.85534 0.62464 0.96424 0.0
H837 H 0.7501 0.54602 0.90269 0.0
H838 H 0.77044 0.59503 0.89807 0.0
H839 H 0.78593 0.56705 0.88704 0.0
H840 H 0.6764 0.54108 0.94176 0.0
H841 H 0.7333 0.65634 0.92594 0.0
H842 H 0.75971 0.53531 0.95006 0.0
H843 H 0.73872 0.51659 0.93047 0.0
H844 H 0.70898 0.50891 0.94808 0.0
H845 H 0.82737 0.67435 0.93092 0.0
H846 H 0.7988 0.69035 0.92068 0.0
H847 H 0.81216 0.65994 0.91025 0.0
C848 C 0.50355 0.16493 0.93943 0.0
C849 C 0.47637 0.13385 0.93056 0.0
C850 C 0.50694 0.20056 0.93778 0.0
C851 C 0.48305 0.20546 0.92668 0.0
C852 C 0.4541 0.17361 0.91837 0.0
C853 C 0.45102 0.13804 0.92046 0.0
C854 C 0.53805 0.23351 0.94696 0.0
C855 C 0.42824 0.17757 0.90634 0.0
C856 C 0.48627 0.30007 0.92848 0.0
C857 C 0.51299 0.32072 0.91623 0.0
C858 C 0.47527 0.26217 0.93171 0.0
C859 C 0.4914 0.24442 0.9225 0.0
C860 C 0.51773 0.26486 0.90989 0.0
C861 C 0.5281 0.30259 0.90689 0.0
C862 C 0.44715 0.24144 0.94525 0.0
C863 C 0.53557 0.24708 0.89971 0.0
H864 H 0.52359 0.16174 0.947 0.0
H865 H 0.43072 0.11422 0.91324 0.0
H866 H 0.56027 0.25237 0.93815 0.0
H867 H 0.527 0.25028 0.95301 0.0
H868 H 0.55128 0.22435 0.95646 0.0
H869 H 0.40456 0.14977 0.90239 0.0
H870 H 0.41646 0.19424 0.91185 0.0
H871 H 0.44454 0.19298 0.89527 0.0
H872 H 0.47458 0.3138 0.93585 0.0
H873 H 0.54812 0.31794 0.89717 0.0
H874 H 0.46109 0.23464 0.95531 0.0
H875 H 0.42374 0.21434 0.94057 0.0
H876 H 0.4351 0.2582 0.95046 0.0
H877 H 0.55208 0.23882 0.90778 0.0
H878 H 0.55465 0.26637 0.89003 0.0
H879 H 0.51333 0.22109 0.89373 0.0
C880 C 0.77412 0.23453 0.93497 0.0
C881 C 0.76461 0.20668 0.9229 0.0
C882 C 0.81158 0.26394 0.93704 0.0
C883 C 0.84054 0.26572 0.92683 0.0
C884 C 0.83158 0.23623 0.91544 0.0
C885 C 0.79379 0.20724 0.91355 0.0
C886 C 0.81957 0.29481 0.94925 0.0
C887 C 0.86149 0.23662 0.90444 0.0
C888 C 0.91521 0.36484 0.91479 0.0
C889 C 0.94546 0.37272 0.92539 0.0
C890 C 0.88173 0.33 0.91492 0.0
C891 C 0.87785 0.30155 0.9259 0.0
C892 C 0.9087 0.30845 0.93624 0.0
C893 C 0.94226 0.34404 0.93586 0.0
C894 C 0.85 0.32417 0.90355 0.0
C895 C 0.90584 0.27864 0.94795 0.0
H896 H 0.75192 0.23469 0.94219 0.0
H897 H 0.78693 0.18553 0.9044 0.0
H898 H 0.84516 0.30193 0.95657 0.0
H899 H 0.82506 0.32062 0.94252 0.0
H900 H 0.79554 0.2868 0.95781 0.0
H901 H 0.85165 0.20889 0.89844 0.0
H902 H 0.86908 0.25817 0.89468 0.0
H903 H 0.88752 0.24432 0.91154 0.0
H904 H 0.91732 0.38632 0.90638 0.0
H905 H 0.96542 0.3497 0.94404 0.0
H906 H 0.82472 0.31831 0.91087 0.0
H907 H 0.84193 0.29944 0.8955 0.0
H908 H 0.85774 0.34906 0.89561 0.0
H909 H 0.8851 0.27401 0.95777 0.0
H910 H 0.93339 0.28668 0.95381 0.0
H911 H 0.89545 0.25145 0.94142 0.0
C912 C 0.25164 0.03676 0.44179 0.0
C913 C 0.27045 0.02753 0.42977 0.0
C914 C 0.25046 0.07019 0.44113 0.0
C915 C 0.26835 0.09563 0.428 0.0
C916 C 0.28844 0.08736 0.416 0.0
C917 C 0.28935 0.05333 0.41703 0.0
C918 C 0.22912 0.07774 0.45438 0.0
C919 C 0.30816 0.114 0.4019 0.0
C920 C 0.22216 0.15511 0.4221 0.0
C921 C 0.24468 0.18643 0.43209 0.0
C922 C 0.23143 0.12682 0.41943 0.0
C923 C 0.26408 0.12975 0.4269 0.0
C924 C 0.28838 0.16259 0.436 0.0
C925 C 0.27838 0.19045 0.43851 0.0
C926 C 0.20465 0.09239 0.40962 0.0
C927 C 0.32347 0.16699 0.44418 0.0
H928 H 0.23732 0.01758 0.45189 0.0
H929 H 0.30396 0.04658 0.40771 0.0
H930 H 0.24789 0.10517 0.46042 0.0
H931 H 0.20525 0.07943 0.44883 0.0
H932 H 0.21766 0.05551 0.46401 0.0
H933 H 0.3254 0.1054 0.39449 0.0
H934 H 0.28691 0.11489 0.39374 0.0
H935 H 0.32671 0.14301 0.40658 0.0
H936 H 0.19654 0.15211 0.41675 0.0
H937 H 0.29602 0.2144 0.44628 0.0
H938 H 0.18897 0.06822 0.41811 0.0
H939 H 0.22044 0.08463 0.40088 0.0
H940 H 0.18384 0.09676 0.40263 0.0
H941 H 0.31535 0.14848 0.45517 0.0
H942 H 0.34271 0.19648 0.44819 0.0
H943 H 0.33904 0.15829 0.43575 0.0
C944 C 0.05178 0.23485 0.42239 0.0
C945 C 0.05263 0.26944 0.42342 0.0
C946 C 1.01777 0.20042 0.42326 0.0
C947 C 0.98327 0.20021 0.4251 0.0
C948 C 0.98358 0.23503 0.42491 0.0
C949 C 1.01835 0.26934 0.42412 0.0
C950 C 1.01918 0.16429 0.42344 0.0
C951 C 0.94749 0.23619 0.42659 0.0
C952 C 0.89752 0.10171 0.42019 0.0
C953 C 0.89044 0.0889 0.43657 0.0
C954 C 0.92579 0.13884 0.41628 0.0
C955 C 0.94808 0.16373 0.429 0.0
C956 C 0.93967 0.15162 0.44557 0.0
C957 C 0.91084 0.11472 0.44914 0.0
C958 C 0.93314 0.15076 0.39848 0.0
C959 C 0.96265 0.17693 0.45956 0.0
H960 H 0.07818 0.23468 0.42174 0.0
H961 H 1.01875 0.29591 0.42511 0.0
H962 H 1.01036 0.1508 0.43572 0.0
H963 H 0.99925 0.14413 0.41426 0.0
H964 H 0.0479 0.16912 0.42075 0.0
H965 H 0.95131 0.26392 0.4228 0.0
H966 H 0.92462 0.21373 0.4191 0.0
H967 H 0.9382 0.2312 0.43963 0.0
H968 H 0.8822 0.08227 0.4103 0.0
H969 H 0.90501 0.10577 0.46186 0.0
H970 H 0.95963 0.15205 0.39439 0.0
H971 H 0.93693 0.17934 0.39693 0.0
H972 H 0.90982 0.13081 0.39035 0.0
H973 H 0.99168 0.18128 0.45912 0.0
H974 H 0.95019 0.16503 0.47178 0.0
H975 H 0.96504 0.20492 0.45829 0.0
C976 C 0.97423 0.8089 0.42875 0.0
C977 C 0.99379 0.83334 0.44186 0.0
C978 C 0.93655 0.79857 0.4251 0.0
C979 C 0.91785 0.81311 0.43473 0.0
C980 C 0.9373 0.83739 0.44809 0.0
C981 C 0.97481 0.84712 0.45148 0.0
C982 C 0.91697 0.77264 0.41077 0.0
C983 C 0.91874 0.85385 0.45864 0.0
C984 C 0.83942 0.82784 0.41811 0.0
C985 C 0.80753 0.7997 0.42627 0.0
C986 C 0.87497 0.83084 0.41985 0.0
C987 C 0.87904 0.80541 0.43027 0.0
C988 C 0.84641 0.77545 0.43777 0.0
C989 C 0.81093 0.77287 0.43564 0.0
C990 C 0.90868 0.86313 0.41154 0.0
C991 C 0.8494 0.7477 0.44895 0.0
H992 H 0.98836 0.79766 0.42135 0.0
H993 H 0.98965 0.86641 0.46148 0.0
H994 H 0.88975 0.7483 0.41482 0.0
H995 H 0.91039 0.78784 0.40123 0.0
H996 H 0.93446 0.76191 0.4051 0.0
H997 H 0.93737 0.87167 0.46876 0.0
H998 H 0.91088 0.87124 0.45097 0.0
H999 H 0.89238 0.83088 0.46409 0.0
H1000 H 0.83692 0.84898 0.41109 0.0
H1001 H 0.78654 0.75171 0.44233 0.0
H1002 H 0.92596 0.85298 0.40524 0.0
H1003 H 0.92686 0.88399 0.42094 0.0
H1004 H 0.90025 0.87767 0.40239 0.0
H1005 H 0.86469 0.73531 0.44264 0.0
H1006 H 0.82127 0.72457 0.45292 0.0
H1007 H 0.86595 0.7625 0.46006 0.0
C1008 C 0.37189 0.91115 0.24383 0.0
C1009 C 0.36337 0.93098 0.25559 0.0
C1010 C 0.4066 0.91219 0.24374 0.0
C1011 C 0.43436 0.93422 0.25555 0.0
C1012 C 0.42698 0.95603 0.26694 0.0
C1013 C 0.39144 0.95406 0.26689 0.0
C1014 C 0.41293 0.88847 0.2313 0.0
C1015 C 0.45615 0.98049 0.27949 0.0
C1016 C 0.49983 0.89537 0.26362 0.0
C1017 C 0.52919 0.91582 0.25236 0.0
C1018 C 0.47015 0.90295 0.26567 0.0
C1019 C 0.46972 0.93192 0.25632 0.0
C1020 C 0.5005 0.95429 0.24573 0.0
C1021 C 0.5297 0.94584 0.2438 0.0
C1022 C 0.43775 0.87793 0.2769 0.0
C1023 C 0.50159 0.98583 0.23573 0.0
H1024 H 0.35092 0.89374 0.23479 0.0
H1025 H 0.38532 0.96964 0.27595 0.0
H1026 H 0.43752 0.90675 0.22341 0.0
H1027 H 0.41936 0.86844 0.23771 0.0
H1028 H 0.38801 0.87203 0.22326 0.0
H1029 H 0.44812 0.99918 0.28608 0.0
H1030 H 0.45961 0.96243 0.28867 0.0
H1031 H 0.48397 0.99812 0.27349 0.0
H1032 H 0.49885 0.87188 0.27018 0.0
H1033 H 0.55252 0.96223 0.23527 0.0
H1034 H 0.41242 0.85958 0.26939 0.0
H1035 H 0.43044 0.89511 0.285 0.0
H1036 H 0.44427 0.8597 0.28471 0.0
H1037 H 0.48091 0.97381 0.22552 0.0
H1038 H 0.52998 1.00452 0.23037 0.0
H1039 H 0.49351 1.00305 0.24341 0.0
C1040 C 0.18961 0.63155 0.26229 0.0
C1041 C 0.16441 0.64163 0.25548 0.0
C1042 C 0.17916 0.59361 0.26464 0.0
C1043 C 0.14245 0.56478 0.26014 0.0
C1044 C 0.11602 0.57478 0.25431 0.0
C1045 C 0.12732 0.61307 0.25201 0.0
C1046 C 0.20831 0.5844 0.27094 0.0
C1047 C 0.0765 0.54504 0.24954 0.0
C1048 C 0.14202 0.47782 0.24428 0.0
C1049 C 0.13183 0.45474 0.2583 0.0
C1050 C 0.14352 0.51266 0.24452 0.0
C1051 C 0.13423 0.52495 0.25914 0.0
C1052 C 0.12108 0.50056 0.273 0.0
C1053 C 0.1201 0.46563 0.27244 0.0
C1054 C 0.15748 0.53735 0.22938 0.0
C1055 C 0.10998 0.5122 0.28867 0.0
H1056 H 0.21803 0.65342 0.2654 0.0
H1057 H 0.1076 0.6205 0.24674 0.0
H1058 H 0.19647 0.56364 0.28111 0.0
H1059 H 0.2164 0.57143 0.26091 0.0
H1060 H 0.23421 0.60981 0.27541 0.0
H1061 H 0.05755 0.55697 0.24814 0.0
H1062 H 0.07732 0.53217 0.23765 0.0
H1063 H 0.06429 0.52218 0.25885 0.0
H1064 H 0.1504 0.46931 0.23317 0.0
H1065 H 0.11206 0.44789 0.28329 0.0
H1066 H 0.18517 0.56273 0.23204 0.0
H1067 H 0.1376 0.54712 0.22591 0.0
H1068 H 0.16095 0.52253 0.21867 0.0
H1069 H 0.13575 0.53373 0.29509 0.0
H1070 H 0.0942 0.48796 0.29714 0.0
H1071 H 0.09235 0.52509 0.28596 0.0
C1072 C 0.59737 0.66996 0.26503 0.0
C1073 C 0.59953 0.70041 0.25622 0.0
C1074 C 0.56375 0.63445 0.26505 0.0
C1075 C 0.53185 0.62943 0.256 0.0
C1076 C 0.53439 0.6599 0.24685 0.0
C1077 C 0.56787 0.69466 0.24709 0.0
C1078 C 0.56215 0.60248 0.27486 0.0
C1079 C 0.50146 0.65606 0.23685 0.0
C1080 C 0.44857 0.53829 0.24065 0.0
C1081 C 0.41941 0.53496 0.25092 0.0
C1082 C 0.48624 0.56692 0.2431 0.0
C1083 C 0.4951 0.59306 0.2561 0.0
C1084 C 0.46628 0.58811 0.26723 0.0
C1085 C 0.42887 0.5592 0.26451 0.0
C1086 C 0.51602 0.57091 0.23099 0.0
C1087 C 0.47428 0.61534 0.28121 0.0
H1088 H 0.62162 0.67397 0.27205 0.0
H1089 H 0.56903 0.71751 0.23993 0.0
H1090 H 0.5409 0.59424 0.28482 0.0
H1091 H 0.55304 0.57742 0.26689 0.0
H1092 H 0.58985 0.61015 0.28046 0.0
H1093 H 0.50817 0.68251 0.23033 0.0
H1094 H 0.49291 0.63338 0.22758 0.0
H1095 H 0.47681 0.64811 0.24499 0.0
H1096 H 0.44176 0.51921 0.23033 0.0
H1097 H 0.40669 0.55711 0.2725 0.0
H1098 H 0.54248 0.57745 0.23745 0.0
H1099 H 0.52275 0.59466 0.22249 0.0
H1100 H 0.50642 0.54498 0.22353 0.0
H1101 H 0.5006 0.62154 0.2877 0.0
H1102 H 0.45075 0.60432 0.29024 0.0
H1103 H 0.47841 0.64234 0.27621 0.0
C1104 C 0.91928 0.51023 0.75296 0.0
C1105 C 0.91208 0.51665 0.76921 0.0
C1106 C 0.9279 0.48178 0.74922 0.0
C1107 C 0.92934 0.45905 0.76201 0.0
C1108 C 0.92346 0.46635 0.77847 0.0
C1109 C 0.91486 0.49482 0.78185 0.0
C1110 C 0.93423 0.4752 0.73154 0.0
C1111 C 0.92478 0.44302 0.79251 0.0
C1112 C 0.90181 0.35678 0.75556 0.0
C1113 C 0.93651 0.3579 0.75707 0.0
C1114 C 0.89948 0.38975 0.7561 0.0
C1115 C 0.93273 0.42506 0.75827 0.0
C1116 C 0.96823 0.42669 0.75868 0.0
C1117 C 0.96973 0.39301 0.75805 0.0
C1118 C 0.86101 0.38638 0.75552 0.0
C1119 C 1.0044 0.46366 0.76092 0.0
H1120 H 0.91786 0.52725 0.7431 0.0
H1121 H 0.9089 0.49899 0.79442 0.0
H1122 H 0.96054 0.47384 0.73038 0.0
H1123 H 0.91058 0.44771 0.72733 0.0
H1124 H 0.93614 0.49763 0.72324 0.0
H1125 H 0.9229 0.4542 0.80471 0.0
H1126 H 0.90107 0.4136 0.79138 0.0
H1127 H 0.95141 0.44217 0.79197 0.0
H1128 H 0.87602 0.3297 0.75474 0.0
H1129 H 0.99658 0.39404 0.75942 0.0
H1130 H 0.8608 0.40655 0.74649 0.0
H1131 H 0.85425 0.39353 0.76775 0.0
H1132 H 0.83838 0.3575 0.75219 0.0
H1133 H 1.0046 0.48587 0.75305 0.0
H1134 H 0.02961 0.46124 0.75797 0.0
H1135 H 1.00662 0.47294 0.77389 0.0
C1136 C 0.70246 0.58449 0.78183 0.0
C1137 C 0.7132 0.61066 0.7689 0.0
C1138 C 0.66856 0.54995 0.78141 0.0
C1139 C 0.64396 0.5412 0.76783 0.0
C1140 C 0.65317 0.56855 0.75526 0.0
C1141 C 0.68784 0.603 0.7559 0.0
C1142 C 0.66019 0.52194 0.79513 0.0
C1143 C 0.62725 0.56074 0.74078 0.0
C1144 C 0.58659 0.43564 0.76009 0.0
C1145 C 0.55333 0.42528 0.76894 0.0
C1146 C 0.61532 0.47355 0.75878 0.0
C1147 C 0.61072 0.50214 0.76636 0.0
C1148 C 0.57629 0.4921 0.7745 0.0
C1149 C 0.54819 0.45382 0.77583 0.0
C1150 C 0.6517 0.48268 0.75022 0.0
C1151 C 0.56979 0.52162 0.78246 0.0
H1152 H 0.7214 0.59034 0.79214 0.0
H1153 H 0.69578 0.62302 0.74588 0.0
H1154 H 0.63268 0.51409 0.80093 0.0
H1155 H 0.65807 0.4958 0.79009 0.0
H1156 H 0.68227 0.53313 0.80482 0.0
H1157 H 0.63521 0.58662 0.73352 0.0
H1158 H 0.62851 0.53977 0.73258 0.0
H1159 H 0.59758 0.54852 0.74498 0.0
H1160 H 0.59108 0.41386 0.75487 0.0
H1161 H 0.5224 0.44616 0.78251 0.0
H1162 H 0.67477 0.49258 0.75942 0.0
H1163 H 0.65974 0.50577 0.7412 0.0
H1164 H 0.64962 0.45789 0.7437 0.0
H1165 H 0.58699 0.53209 0.79382 0.0
H1166 H 0.53968 0.51029 0.7858 0.0
H1167 H 0.57882 0.5461 0.77412 0.0
C1168 C 0.51049 0.16375 0.75267 0.0
C1169 C 0.47894 0.13629 0.76124 0.0
C1170 C 0.54606 0.16687 0.75442 0.0
C1171 C 0.55046 0.14236 0.76531 0.0
C1172 C 0.51819 0.11323 0.77336 0.0
C1173 C 0.48268 0.11045 0.77118 0.0
C1174 C 0.57945 0.19821 0.74552 0.0
C1175 C 0.52158 0.08669 0.78516 0.0
C1176 C 0.64467 0.14433 0.76314 0.0
C1177 C 0.66557 0.17038 0.77557 0.0
C1178 C 0.60683 0.13396 0.75999 0.0
C1179 C 0.58932 0.14998 0.76944 0.0
C1180 C 0.61 0.17561 0.78223 0.0
C1181 C 0.64771 0.18543 0.78513 0.0
C1182 C 0.58588 0.10662 0.74624 0.0
C1183 C 0.59248 0.19329 0.79269 0.0
H1184 H 0.50767 0.18415 0.74521 0.0
H1185 H 0.45852 0.08992 0.77819 0.0
H1186 H 0.59838 0.21973 0.75454 0.0
H1187 H 0.59606 0.18721 0.73928 0.0
H1188 H 0.57072 0.21221 0.73622 0.0
H1189 H 0.49354 0.06304 0.78891 0.0
H1190 H 0.53825 0.07499 0.77955 0.0
H1191 H 0.53682 0.10237 0.79637 0.0
H1192 H 0.65819 0.1327 0.75559 0.0
H1193 H 0.66324 0.20494 0.79497 0.0
H1194 H 0.57935 0.12117 0.73638 0.0
H1195 H 0.55858 0.08324 0.75081 0.0
H1196 H 0.60243 0.09453 0.74082 0.0
H1197 H 0.5846 0.21042 0.78484 0.0
H1198 H 0.61185 0.21168 0.80249 0.0
H1199 H 0.56624 0.17102 0.79853 0.0
C1200 C 0.05844 0.27608 0.60743 0.0
C1201 C 0.03961 0.27316 0.59264 0.0
C1202 C 0.09115 0.27271 0.6076 0.0
C1203 C 0.10506 0.2663 0.59265 0.0
C1204 C 0.08761 0.26629 0.57762 0.0
C1205 C 0.05527 0.26977 0.57782 0.0
C1206 C 0.10919 0.27338 0.62386 0.0
C1207 C 0.10137 0.25981 0.56136 0.0
C1208 C 0.1993 0.26978 0.58695 0.0
C1209 C 0.18784 0.23125 0.58658 0.0
C1210 C 0.17313 0.28193 0.58991 0.0
C1211 C 0.13459 0.25496 0.59258 0.0
C1212 C 0.12334 0.21617 0.59308 0.0
C1213 C 0.15001 0.20486 0.59008 0.0
C1214 C 0.18641 0.32352 0.58935 0.0
C1215 C 0.08263 0.18635 0.59591 0.0
H1216 H 0.04627 0.27844 0.61891 0.0
H1217 H 0.04097 0.26789 0.56633 0.0
H1218 H 0.10176 0.24426 0.62726 0.0
H1219 H 0.14042 0.29038 0.62296 0.0
H1220 H 0.0995 0.28501 0.63386 0.0
H1221 H 0.08583 0.26251 0.55075 0.0
H1222 H 0.1319 0.28023 0.55977 0.0
H1223 H 0.09773 0.23112 0.56113 0.0
H1224 H 0.22844 0.29041 0.58423 0.0
H1225 H 0.14103 0.17509 0.59018 0.0
H1226 H 0.17441 0.3316 0.59977 0.0
H1227 H 0.17638 0.33009 0.57782 0.0
H1228 H 0.21769 0.34101 0.58975 0.0
H1229 H 0.07146 0.19305 0.60706 0.0
H1230 H 0.07903 0.1578 0.59738 0.0
H1231 H 0.06524 0.18577 0.58532 0.0
C1232 C 0.78763 0.8068 0.60031 0.0
C1233 C 0.8109 0.80109 0.58941 0.0
C1234 C 0.78788 0.84148 0.60051 0.0
C1235 C 0.81173 0.87081 0.5895 0.0
C1236 C 0.83392 0.86435 0.57807 0.0
C1237 C 0.83325 0.82991 0.5782 0.0
C1238 C 0.76359 0.84718 0.6128 0.0
C1239 C 0.85947 0.89432 0.56593 0.0
C1240 C 0.80452 0.95641 0.57704 0.0
C1241 C 0.83525 0.98556 0.58549 0.0
C1242 C 0.79441 0.91841 0.57924 0.0
C1243 C 0.81557 0.90912 0.59011 0.0
C1244 C 0.84508 0.93816 0.59944 0.0
C1245 C 0.85454 0.97589 0.59702 0.0
C1246 C 0.76258 0.88847 0.56912 0.0
C1247 C 0.8686 0.92975 0.6111 0.0
H1248 H 0.77029 0.7848 0.60901 0.0
H1249 H 0.85105 0.82591 0.56954 0.0
H1250 H 0.78186 0.8683 0.62209 0.0
H1251 H 0.74714 0.85842 0.6066 0.0
H1252 H 0.74375 0.82063 0.61927 0.0
H1253 H 0.87444 0.88455 0.55765 0.0
H1254 H 0.84279 0.90306 0.55824 0.0
H1255 H 0.88089 0.91965 0.57263 0.0
H1256 H 0.78884 0.96337 0.56836 0.0
H1257 H 0.87846 0.99801 0.60356 0.0
H1258 H 0.74408 0.86363 0.57684 0.0
H1259 H 0.7744 0.87876 0.55923 0.0
H1260 H 0.74514 0.8991 0.56333 0.0
H1261 H 0.85026 0.90528 0.61903 0.0
H1262 H 0.88682 0.95424 0.61907 0.0
H1263 H 0.88699 0.92227 0.60392 0.0
C1264 C 0.27483 1.01028 0.60085 0.0
C1265 C 0.28193 0.03558 0.58788 0.0
C1266 C 0.24063 0.97538 0.60154 0.0
C1267 C 0.21296 0.96584 0.58907 0.0
C1268 C 0.22105 0.99052 0.57558 0.0
C1269 C 0.25535 0.02465 0.57509 0.0
C1270 C 0.23344 0.94946 0.61595 0.0
C1271 C 0.1927 0.98178 0.56196 0.0
C1272 C 0.12733 0.86932 0.58058 0.0
C1273 C 0.09797 0.87329 0.58742 0.0
C1274 C 0.16535 0.89804 0.58211 0.0
C1275 C 0.17432 0.93187 0.59046 0.0
C1276 C 0.14494 0.93523 0.59806 0.0
C1277 C 0.10729 0.90593 0.59651 0.0
C1278 C 0.19574 0.8929 0.57409 0.0
C1279 C 0.15293 0.97093 0.60684 0.0
H1280 H 0.29515 0.01836 0.61075 0.0
H1281 H 0.26073 0.04352 0.56482 0.0
H1282 H 0.2119 0.94975 0.62414 0.0
H1283 H 0.22211 0.92004 0.61166 0.0
H1284 H 0.25946 0.95806 0.62325 0.0
H1285 H 0.20292 1.0045 0.55258 0.0
H1286 H 0.18633 0.95517 0.55574 0.0
H1287 H 0.16583 0.97776 0.56714 0.0
H1288 H 0.1205 0.844 0.57373 0.0
H1289 H 0.0849 0.90955 0.6017 0.0
H1290 H 0.22025 0.90231 0.58247 0.0
H1291 H 0.20596 0.91048 0.56283 0.0
H1292 H 0.18525 0.86309 0.57058 0.0
H1293 H 0.17631 0.97951 0.61577 0.0
H1294 H 0.12777 0.96774 0.61349 0.0
H1295 H 0.162 0.9941 0.59775 0.0
C1296 C 0.51479 0.99446 0.04721 0.0
C1297 C 0.50673 1.01654 0.05779 0.0
C1298 C 0.51342 0.99746 0.03004 0.0
C1299 C 0.50419 0.02356 0.02317 0.0
C1300 C 0.49521 0.04541 0.03381 0.0
C1301 C 0.4964 0.0415 0.05102 0.0
C1302 C 0.52305 0.97345 0.01925 0.0
C1303 C 0.48557 0.07381 0.02704 0.0
C1304 C 0.54818 0.06186 0.98133 0.0
C1305 C 0.51802 0.04125 0.97049 0.0
C1306 C 0.54363 0.05706 0.99842 0.0
C1307 C 0.508 0.03062 1.005 0.0
C1308 C 0.4772 1.00982 0.99415 0.0
C1309 C 0.48253 1.01551 0.97698 0.0
C1310 C 0.57728 0.07999 1.00943 0.0
C1311 C 0.43885 0.98115 1.00066 0.0
H1312 H 0.52245 0.97482 0.05236 0.0
H1313 H 0.48996 0.05846 0.05914 0.0
H1314 H 0.50075 0.95858 1.00985 0.0
H1315 H 0.54985 0.99168 0.0126 0.0
H1316 H 0.52633 0.95222 0.02643 0.0
H1317 H 0.47637 0.0864 0.03682 0.0
H1318 H 0.51065 0.09679 0.02076 0.0
H1319 H 0.46281 0.0604 0.01772 0.0
H1320 H 0.57569 0.08201 0.97644 0.0
H1321 H 0.45912 0.9996 0.96868 0.0
H1322 H 0.58459 0.061 0.01618 0.0
H1323 H 0.57033 0.09539 0.01873 0.0
H1324 H 0.60253 0.10075 1.00242 0.0
H1325 H 0.44075 0.95825 1.00705 0.0
H1326 H 0.41742 0.96853 0.99073 0.0
H1327 H 0.42907 0.99442 1.00984 0.0
C1328 C 1.01037 0.51289 0.98056 0.0
C1329 C 0.03216 0.50475 0.9698 0.0
C1330 C 1.01395 0.51184 0.99768 0.0
C1331 C 0.04031 0.50273 1.00436 0.0
C1332 C 0.06221 0.49404 0.99357 0.0
C1333 C 0.05776 0.49501 0.97638 0.0
C1334 C 0.98991 0.52121 1.00862 0.0
C1335 C 0.09079 0.48445 1.00019 0.0
C1336 C 0.07418 0.54322 0.0471 0.0
C1337 C 0.05187 0.51229 0.05729 0.0
C1338 C 0.07189 0.53996 0.02989 0.0
C1339 C 0.04633 0.50493 0.02258 0.0
C1340 C 1.02418 0.47332 0.03281 0.0
C1341 C 0.02733 0.47734 0.05007 0.0
C1342 C 0.09614 0.5744 0.01953 0.0
C1343 C 0.99637 0.43556 0.02554 0.0
H1344 H 0.99032 0.52023 0.97559 0.0
H1345 H 0.07453 0.48855 0.96812 0.0
H1346 H 0.9742 0.49818 0.01762 0.0
H1347 H 1.00823 0.54719 0.01573 0.0
H1348 H 0.96929 0.52566 1.00152 0.0
H1349 H 0.10424 0.47658 0.99027 0.0
H1350 H 0.11317 0.50899 1.00697 0.0
H1351 H 0.07712 0.46077 1.00906 0.0
H1352 H 0.09348 0.57027 0.05259 0.0
H1353 H 1.01019 0.45332 0.0579 0.0
H1354 H 0.07794 0.58284 0.01282 0.0
H1355 H 0.11187 0.56796 1.01018 0.0
H1356 H 0.11673 0.5987 0.02704 0.0
H1357 H 0.97353 0.43767 0.01917 0.0
H1358 H 0.98343 0.41314 0.03505 0.0
H1359 H 1.01049 0.42709 0.01621 0.0
C1360 C 0.58273 0.59262 0.97377 0.0
C1361 C 0.57167 0.55713 0.96698 0.0
C1362 C 0.58352 0.59768 0.99098 0.0
C1363 C 0.57326 0.56658 1.00163 0.0
C1364 C 0.56284 0.53092 0.99476 0.0
C1365 C 0.56202 0.52664 0.97759 0.0
C1366 C 0.59451 0.63609 0.99774 0.0
C1367 C 0.55178 0.49697 1.00556 0.0
C1368 C 0.5966 0.57872 0.04767 0.0
C1369 C 0.56165 0.5698 0.05453 0.0
C1370 C 0.60127 0.57885 0.03044 0.0
C1371 C 0.57036 0.57022 0.01986 0.0
C1372 C 0.53542 0.56237 0.0268 0.0
C1373 C 0.5315 0.56211 0.04397 0.0
C1374 C 0.63895 0.5872 0.02358 0.0
C1375 C 0.50172 0.55321 0.0161 0.0
H1376 H 0.59037 0.61631 0.96564 0.0
H1377 H 0.5537 0.49916 0.97244 0.0
H1378 H 0.57008 0.63486 1.00426 0.0
H1379 H 0.61759 0.64494 1.00686 0.0
H1380 H 0.60388 0.65783 0.98794 0.0
H1381 H 0.54673 0.47182 0.99837 0.0
H1382 H 0.57422 0.50333 0.01476 0.0
H1383 H 0.52564 0.48992 0.01245 0.0
H1384 H 0.62004 0.58493 0.05575 0.0
H1385 H 0.50444 0.55544 0.04916 0.0
H1386 H 0.64895 0.61007 0.0143 0.0
H1387 H 0.63586 0.56185 0.01723 0.0
H1388 H 0.66077 0.59563 0.03331 0.0
H1389 H 0.50936 0.57562 1.00675 0.0
H1390 H 0.47732 0.55018 0.02334 0.0
H1391 H 0.49277 0.52648 1.00939 0.0
C1392 C 0.16966 0.38528 0.38321 0.0
C1393 C 0.18196 0.36152 0.38959 0.0
C1394 C 0.16824 0.38996 0.36608 0.0
C1395 C 0.17915 0.3702 0.35511 0.0
C1396 C 0.19112 0.34581 0.36156 0.0
C1397 C 0.19251 0.34192 0.37867 0.0
C1398 C 0.1556 0.41644 0.35973 0.0
C1399 C 0.20292 0.32411 0.35038 0.0
C1400 C 0.15168 0.35715 0.30961 0.0
C1401 C 0.18554 0.384 0.3022 0.0
C1402 C 0.14871 0.35296 0.32686 0.0
C1403 C 0.18027 0.37641 0.33691 0.0
C1404 C 0.21409 0.4043 0.32944 0.0
C1405 C 0.21633 0.40762 0.31222 0.0
C1406 C 0.11221 0.32276 0.33431 0.0
C1407 C 0.24837 0.43004 0.33961 0.0
H1408 H 0.16137 0.40038 0.3916 0.0
H1409 H 0.20185 0.32332 0.38352 0.0
H1410 H 0.17898 0.43985 0.35283 0.0
H1411 H 0.13172 0.40143 0.35104 0.0
H1412 H 0.14666 0.42858 0.36981 0.0
H1413 H 0.20983 0.30499 0.35731 0.0
H1414 H 0.18003 0.30708 0.3415 0.0
H1415 H 0.2281 0.34402 0.34313 0.0
H1416 H 0.12778 0.33894 0.30191 0.0
H1417 H 0.24253 0.4286 0.30658 0.0
H1418 H 0.10224 0.33509 0.34386 0.0
H1419 H 0.11697 0.30133 0.34045 0.0
H1420 H 0.08964 0.30842 0.32495 0.0
H1421 H 0.24074 0.44427 0.34922 0.0
H1422 H 0.27163 0.45189 0.33201 0.0
H1423 H 0.25895 0.41323 0.34598 0.0
C1424 C 0.73968 0.87396 0.37599 0.0
C1425 C 0.71858 0.84415 0.38691 0.0
C1426 C 0.73518 0.86905 0.3589 0.0
C1427 C 0.70859 0.83342 0.35242 0.0
C1428 C 0.68752 0.80292 0.36336 0.0
C1429 C 0.69287 0.80861 0.38052 0.0
C1430 C 0.75831 0.9024 0.34779 0.0
C1431 C 0.65873 0.76457 0.35697 0.0
C1432 C 0.67023 0.83965 0.31074 0.0
C1433 C 0.69159 0.8313 0.29982 0.0
C1434 C 0.67434 0.83872 0.32784 0.0
C1435 C 0.70081 0.82954 0.33432 0.0
C1436 C 0.722 0.82028 0.32337 0.0
C1437 C 0.71703 0.82113 0.30621 0.0
C1438 C 0.65107 0.84874 0.33896 0.0
C1439 C 0.75068 0.81059 0.32976 0.0
H1440 H 0.75985 0.90148 0.38081 0.0
H1441 H 0.67668 0.78545 0.38889 0.0
H1442 H 0.77314 0.89503 0.33836 0.0
H1443 H 0.73942 0.91012 0.34119 0.0
H1444 H 0.7796 0.92748 0.3547 0.0
H1445 H 0.64661 0.74318 0.36693 0.0
H1446 H 0.63541 0.76629 0.35085 0.0
H1447 H 0.67173 0.75492 0.34759 0.0
H1448 H 0.65025 0.84725 0.30592 0.0
H1449 H 0.73346 0.81451 0.29783 0.0
H1450 H 0.66986 0.8754 0.34555 0.0
H1451 H 0.63634 0.82652 0.34839 0.0
H1452 H 0.62968 0.85236 0.33205 0.0
H1453 H 0.77416 0.83567 0.33579 0.0
H1454 H 0.7626 0.80108 0.3198 0.0
H1455 H 0.73769 0.78808 0.3392 0.0
C1456 C 0.24807 0.91898 0.30852 0.0
C1457 C 0.23861 0.88338 0.30236 0.0
C1458 C 0.24827 0.92526 0.32561 0.0
C1459 C 0.23921 0.89531 0.3368 0.0
C1460 C 0.23064 0.85961 0.33058 0.0
C1461 C 0.2303 0.8541 0.31351 0.0
C1462 C 0.25737 0.96367 0.33168 0.0
C1463 C 0.22107 0.8269 0.34196 0.0
C1464 C 0.2639 0.91223 0.38258 0.0
C1465 C 0.22878 0.90218 0.38958 0.0
C1466 C 0.2681 0.91121 0.36538 0.0
C1467 C 0.23649 0.90026 0.35494 0.0
C1468 C 0.20127 0.89124 0.36199 0.0
C1469 C 0.19784 0.89214 0.37918 0.0
C1470 C 0.30608 0.92078 0.35843 0.0
C1471 C 0.16686 0.87966 0.3514 0.0
H1472 H 0.25488 0.94178 0.29999 0.0
H1473 H 0.22319 0.82653 0.30886 0.0
H1474 H 0.2325 0.96155 0.33816 0.0
H1475 H 0.28088 0.9745 0.34068 0.0
H1476 H 0.26534 0.98438 0.3215 0.0
H1477 H 0.21709 0.80157 0.33524 0.0
H1478 H 0.24382 0.83497 0.35119 0.0
H1479 H 0.19472 0.81932 0.34879 0.0
H1480 H 0.28794 0.92023 0.39054 0.0
H1481 H 0.17064 0.88458 0.38449 0.0
H1482 H 0.31485 0.94282 0.34882 0.0
H1483 H 0.30407 0.89549 0.35247 0.0
H1484 H 0.32833 0.93088 0.36805 0.0
H1485 H 0.17323 0.901 0.34167 0.0
H1486 H 0.14227 0.87612 0.35866 0.0
H1487 H 0.15884 0.8526 0.34516 0.0
C1488 C 0.84145 0.65898 0.71119 0.0
C1489 C 0.83495 0.68164 0.7221 0.0
C1490 C 0.84071 0.66321 0.69408 0.0
C1491 C 0.83345 0.69099 0.68758 0.0
C1492 C 0.82567 0.71324 0.69854 0.0
C1493 C 0.8264 0.70822 0.71569 0.0
C1494 C 0.84915 0.63881 0.68296 0.0
C1495 C 0.81783 0.74318 0.69215 0.0
C1496 C 0.87946 0.72939 0.64605 0.0
C1497 C 0.84949 0.7096 0.63503 0.0
C1498 C 0.87418 0.72455 0.66312 0.0
C1499 C 0.83797 0.69903 0.66949 0.0
C1500 C 0.80731 0.67938 0.65844 0.0
C1501 C 0.81342 0.68497 0.64131 0.0
C1502 C 0.90774 0.74612 0.67434 0.0
C1503 C 0.7683 0.65183 0.6647 0.0
H1504 H 0.84778 0.63813 0.71604 0.0
H1505 H 0.82096 0.72549 0.72406 0.0
H1506 H 0.82688 0.62519 0.67345 0.0
H1507 H 0.87629 0.65655 0.67646 0.0
H1508 H 0.85119 0.61651 0.68986 0.0
H1509 H 0.80907 0.75577 0.7021 0.0
H1510 H 0.84361 0.76595 0.68619 0.0
H1511 H 0.79535 0.73119 0.68266 0.0
H1512 H 0.90742 0.74869 0.64131 0.0
H1513 H 0.79015 0.66976 0.63287 0.0
H1514 H 0.91395 0.72616 0.68094 0.0
H1515 H 0.90132 0.76168 0.68376 0.0
H1516 H 0.93349 0.76656 0.66751 0.0
H1517 H 0.76861 0.62776 0.67077 0.0
H1518 H 0.747 0.64075 0.65468 0.0
H1519 H 0.75943 0.6655 0.67409 0.0
C1520 C 0.38029 0.15036 0.64008 0.0
C1521 C 0.35357 0.15871 0.63364 0.0
C1522 C 0.38572 0.15028 0.65722 0.0
C1523 C 0.3637 0.15848 0.66815 0.0
C1524 C 0.33573 0.16551 0.66164 0.0
C1525 C 0.33113 0.16565 0.64452 0.0
C1526 C 0.4159 0.14273 0.66362 0.0
C1527 C 0.31152 0.17431 0.67273 0.0
C1528 C 0.35992 0.13986 0.7145 0.0
C1529 C 0.38514 0.17598 0.7205 0.0
C1530 C 0.35316 0.13335 0.69744 0.0
C1531 C 0.37224 0.16364 0.68618 0.0
C1532 C 0.39815 0.19996 0.69226 0.0
C1533 C 0.40414 0.20564 0.70927 0.0
C1534 C 0.32519 0.09426 0.69149 0.0
C1535 C 0.41916 0.23313 0.6808 0.0
H1536 H 0.3974 0.14457 0.63174 0.0
H1537 H 0.31017 0.17182 0.63964 0.0
H1538 H 0.43879 0.16866 0.66941 0.0
H1539 H 0.40411 0.12058 0.67324 0.0
H1540 H 0.42838 0.13374 0.6537 0.0
H1541 H 0.28894 0.17596 0.66586 0.0
H1542 H 0.29821 0.1525 0.68244 0.0
H1543 H 0.32942 0.20169 0.67899 0.0
H1544 H 0.3453 0.11684 0.7231 0.0
H1545 H 0.42385 0.23364 0.71378 0.0
H1546 H 0.33863 0.08484 0.68223 0.0
H1547 H 0.30115 0.09457 0.68535 0.0
H1548 H 0.31402 0.07341 0.70169 0.0
H1549 H 0.43462 0.22658 0.67136 0.0
H1550 H 0.43968 0.25913 0.68742 0.0
H1551 H 0.3988 0.23886 0.67424 0.0
C1552 C 0.92266 0.25518 0.64309 0.0
C1553 C 0.91514 0.22097 0.63598 0.0
C1554 C 0.92218 0.25906 0.66032 0.0
C1555 C 0.91435 0.22808 0.67067 0.0
C1556 C 0.90778 0.19383 0.66348 0.0
C1557 C 0.90808 0.19068 0.64628 0.0
C1558 C 0.9291 0.29597 0.66744 0.0
C1559 C 0.89957 0.16015 0.67396 0.0
C1560 C 0.93725 0.24166 0.71666 0.0
C1561 C 0.90161 0.22989 0.72353 0.0
C1562 C 0.94208 0.2419 0.69946 0.0
C1563 C 0.91056 0.23037 0.6889 0.0
C1564 C 0.87467 0.21906 0.69584 0.0
C1565 C 0.87063 0.21879 0.71302 0.0
C1566 C 0.98075 0.25385 0.69261 0.0
C1567 C 0.84031 0.20672 0.68512 0.0
H1568 H 0.92831 0.27871 0.63519 0.0
H1569 H 0.90247 0.1642 0.64086 0.0
H1570 H 0.90336 0.29165 0.67393 0.0
H1571 H 0.95218 0.3065 0.67665 0.0
H1572 H 0.93664 0.3179 0.65784 0.0
H1573 H 0.89738 0.13637 0.66655 0.0
H1574 H 0.92209 0.16814 0.6833 0.0
H1575 H 0.87261 0.15023 0.68069 0.0
H1576 H 0.96127 0.2503 0.72473 0.0
H1577 H 0.84303 0.20985 0.71824 0.0
H1578 H 0.98911 0.27708 0.68362 0.0
H1579 H 0.98011 0.22995 0.68591 0.0
H1580 H 1.0026 0.26337 0.70238 0.0
H1581 H 0.84568 0.22898 0.67599 0.0
H1582 H 0.8148 0.20049 0.69237 0.0
H1583 H 0.83432 0.18105 0.67815 0.0
C1584 C 0.30672 0.97257 0.20016 0.0
C1585 C 0.29324 0.94184 0.21099 0.0
C1586 C 0.33294 0.97841 0.1877 0.0
C1587 C 0.34697 0.95323 0.18598 0.0
C1588 C 0.33262 0.92133 0.19653 0.0
C1589 C 0.30555 0.91572 0.20877 0.0
C1590 C 0.34605 1.01208 0.17647 0.0
C1591 C 0.34701 0.894 0.19535 0.0
C1592 C 0.38687 0.95963 0.14312 0.0
C1593 C 0.42472 0.9882 0.14498 0.0
C1594 C 0.36192 0.94575 0.15656 0.0
C1595 C 0.37512 0.96004 0.17253 0.0
C1596 C 0.41436 0.98593 0.17475 0.0
C1597 C 0.43872 1.00005 0.16092 0.0
C1598 C 0.32062 0.91839 0.15337 0.0
C1599 C 0.42998 1.00109 0.1916 0.0
H1600 H 0.2974 0.99291 0.20172 0.0
H1601 H 0.29528 0.89176 0.21694 0.0
H1602 H 0.37696 0.03104 0.17777 0.0
H1603 H 0.34043 1.00268 0.16345 0.0
H1604 H 0.3318 0.0285 0.17916 0.0
H1605 H 0.33119 0.86919 0.20352 0.0
H1606 H 0.34509 0.88403 0.18252 0.0
H1607 H 0.37727 0.90856 0.19888 0.0
H1608 H 0.37587 0.95025 0.13082 0.0
H1609 H 0.46772 0.02239 0.16249 0.0
H1610 H 0.30331 0.93087 0.15735 0.0
H1611 H 0.31126 0.89227 0.16061 0.0
H1612 H 0.31473 0.91079 0.14016 0.0
H1613 H 0.42146 0.0218 0.19532 0.0
H1614 H 0.4613 1.01531 0.19183 0.0
H1615 H 0.41835 0.97806 0.20084 0.0
C1616 C 0.0682 0.46041 0.15931 0.0
C1617 C 0.07749 0.45455 0.14342 0.0
C1618 C 0.083 0.45156 0.17326 0.0
C1619 C 0.107 0.43599 0.1712 0.0
C1620 C 0.11912 0.43363 0.15518 0.0
C1621 C 0.10453 0.44325 0.14158 0.0
C1622 C 0.07048 0.45587 0.19017 0.0
C1623 C 0.14469 0.41753 0.15222 0.0
C1624 C 0.1503 0.41294 0.20834 0.0
C1625 C 0.122 0.37586 0.21186 0.0
C1626 C 0.146 0.43329 0.19525 0.0
C1627 C 0.11331 0.41562 0.18513 0.0
C1628 C 0.08607 0.37735 0.18808 0.0
C1629 C 0.09051 0.35832 0.20147 0.0
C1630 C 0.17581 0.47395 0.19263 0.0
C1631 C 0.05139 0.35666 0.17739 0.0
H1632 H 0.04726 0.46897 0.16084 0.0
H1633 H 0.11216 0.43908 0.1293 0.0
H1634 H 0.04918 0.42774 0.19494 0.0
H1635 H 0.0947 0.46792 0.19884 0.0
H1636 H 0.05767 0.47419 0.19001 0.0
H1637 H 0.15088 0.41691 0.13895 0.0
H1638 H 0.17172 0.4345 0.15886 0.0
H1639 H 0.13136 0.38832 0.15707 0.0
H1640 H 0.17456 0.42686 0.21638 0.0
H1641 H 0.06837 0.3298 0.20424 0.0
H1642 H 0.16267 0.49152 0.19036 0.0
H1643 H 0.19288 0.4762 0.18164 0.0
H1644 H 0.19514 0.48564 0.20335 0.0
H1645 H 0.03378 0.37013 0.17842 0.0
H1646 H 0.03383 0.32649 0.18085 0.0
H1647 H 0.05976 0.35826 0.16429 0.0
C1648 C 0.6497 0.7338 0.21008 0.0
C1649 C 0.68361 0.76803 0.20759 0.0
C1650 C 0.63529 0.70496 0.19819 0.0
C1651 C 0.65426 0.71068 0.18297 0.0
C1652 C 0.68714 0.74611 0.17991 0.0
C1653 C 0.7019 0.77397 0.19237 0.0
C1654 C 0.60066 0.66767 0.20226 0.0
C1655 C 0.7072 0.75428 0.16356 0.0
C1656 C 0.65048 0.62953 0.15831 0.0
C1657 C 0.62369 0.62303 0.14609 0.0
C1658 C 0.65901 0.65636 0.17083 0.0
C1659 C 0.64154 0.67874 0.17085 0.0
C1660 C 0.61291 0.67091 0.15905 0.0
C1661 C 0.60386 0.64266 0.14704 0.0
C1662 C 0.68793 0.66176 0.18368 0.0
C1663 C 0.59364 0.69403 0.15817 0.0
H1664 H 0.63522 0.72854 0.22175 0.0
H1665 H 0.72798 0.80022 0.19027 0.0
H1666 H 0.57837 0.6607 0.19291 0.0
H1667 H 0.60783 0.64492 0.20194 0.0
H1668 H 0.58894 0.66772 0.21459 0.0
H1669 H 0.72948 0.78434 0.16236 0.0
H1670 H 0.72048 0.73659 0.16213 0.0
H1671 H 0.68662 0.74699 0.15337 0.0
H1672 H 0.66605 0.61456 0.15769 0.0
H1673 H 0.58303 0.63788 0.13778 0.0
H1674 H 0.67707 0.66199 0.19617 0.0
H1675 H 0.71398 0.68934 0.18181 0.0
H1676 H 0.6955 0.63928 0.18317 0.0
H1677 H 0.59107 0.70448 0.17041 0.0
H1678 H 0.56502 0.67751 0.1527 0.0
H1679 H 0.61062 0.7189 0.15019 0.0
C1680 C 0.05213 0.44444 0.86459 0.0
C1681 C 0.02951 0.44691 0.87695 0.0
C1682 C 0.03623 0.41721 0.85197 0.0
C1683 C 0.99678 0.39117 0.8518 0.0
C1684 C 0.97372 0.39423 0.86398 0.0
C1685 C 0.99022 0.42215 0.87624 0.0
C1686 C 0.06167 0.41624 0.83878 0.0
C1687 C 0.93155 0.36785 0.86409 0.0
C1688 C 0.95708 0.34601 0.81009 0.0
C1689 C 0.95792 0.3123 0.81102 0.0
C1690 C 0.96747 0.37084 0.82352 0.0
C1691 C 0.97963 0.36216 0.83836 0.0
C1692 C 0.97784 0.32672 0.83977 0.0
C1693 C 0.96714 0.30223 0.82605 0.0
C1694 C 0.96721 0.40717 0.82107 0.0
C1695 C 0.9895 0.31573 0.85546 0.0
H1696 H 0.08242 0.46334 0.86496 0.0
H1697 H 0.97229 0.42379 0.88562 0.0
H1698 H 0.0598 0.38829 0.83868 0.0
H1699 H 0.05221 0.42028 0.82653 0.0
H1700 H 0.09166 0.43837 0.84055 0.0
H1701 H 0.91749 0.37339 0.87454 0.0
H1702 H 0.91921 0.37081 0.85242 0.0
H1703 H 0.92523 0.33822 0.86486 0.0
H1704 H 0.95055 0.35429 0.79841 0.0
H1705 H 0.96881 0.2767 0.82673 0.0
H1706 H 0.98786 0.42403 0.81133 0.0
H1707 H 0.97393 0.42471 0.8323 0.0
H1708 H 0.93885 0.40053 0.81671 0.0
H1709 H 1.02038 0.33404 0.85726 0.0
H1710 H 0.98269 0.28588 0.85529 0.0
H1711 H 0.97527 0.32004 0.86619 0.0
C1712 C 0.64298 0.60721 0.86453 0.0
C1713 C 0.65749 0.61183 0.88051 0.0
C1714 C 0.66708 0.61627 0.85067 0.0
C1715 C 0.70651 0.63074 0.85289 0.0
C1716 C 0.72028 0.63207 0.86899 0.0
C1717 C 0.69562 0.6223 0.88248 0.0
C1718 C 0.65094 0.61349 0.83372 0.0
C1719 C 0.76179 0.64716 0.87217 0.0
C1720 C 0.77515 0.65393 0.81644 0.0
C1721 C 0.78664 0.69197 0.81358 0.0
C1722 C 0.74869 0.63321 0.829 0.0
C1723 C 0.7341 0.65117 0.83917 0.0
C1724 C 0.74724 0.69003 0.83676 0.0
C1725 C 0.77299 0.70967 0.82407 0.0
C1726 C 0.73569 0.59197 0.83115 0.0
C1727 C 0.73371 0.71101 0.8475 0.0
H1728 H 0.61369 0.59948 0.86287 0.0
H1729 H 0.70696 0.62567 0.89481 0.0
H1730 H 0.65869 0.64212 0.82934 0.0
H1731 H 0.66287 0.60159 0.82487 0.0
H1732 H 0.61966 0.59574 0.83366 0.0
H1733 H 0.7682 0.64811 0.88549 0.0
H1734 H 0.77112 0.62924 0.86587 0.0
H1735 H 0.77872 0.6761 0.86714 0.0
H1736 H 0.78567 0.63997 0.80855 0.0
H1737 H 0.78178 0.73909 0.82205 0.0
H1738 H 0.70439 0.57516 0.83088 0.0
H1739 H 0.74487 0.58728 0.84331 0.0
H1740 H 0.74711 0.58131 0.82145 0.0
H1741 H 0.70262 0.69803 0.84644 0.0
H1742 H 0.74695 0.74128 0.84415 0.0
H1743 H 0.74022 0.70901 0.86059 0.0
C1744 C 0.37386 0.10574 0.82734 0.0
C1745 C 0.39609 0.12464 0.81359 0.0
C1746 C 0.38802 0.09303 0.84016 0.0
C1747 C 0.4251 0.0985 0.83912 0.0
C1748 C 0.44792 0.11829 0.82542 0.0
C1749 C 0.43339 0.13147 0.813 0.0
C1750 C 0.3629 0.07286 0.85467 0.0
C1751 C 0.48728 0.12434 0.82352 0.0
C1752 C 0.47223 0.09005 0.87833 0.0
C1753 C 0.46422 0.05244 0.87771 0.0
C1754 C 0.45987 0.10535 0.86591 0.0
C1755 C 0.43972 0.08299 0.85218 0.0
C1756 C 0.433 0.04553 0.85112 0.0
C1757 C 0.44491 0.03062 0.86394 0.0
C1758 C 0.46723 0.1451 0.86782 0.0
C1759 C 0.41237 0.02085 0.83658 0.0
H1760 H 0.34503 0.10015 0.8279 0.0
H1761 H 0.45087 0.14572 0.80241 0.0
H1762 H 0.35676 0.04327 0.85501 0.0
H1763 H 0.37753 0.08645 0.86632 0.0
H1764 H 0.33572 0.07275 0.85417 0.0
H1765 H 0.50158 0.14063 0.81226 0.0
H1766 H 0.50471 0.13954 0.83438 0.0
H1767 H 0.48605 0.09671 0.8229 0.0
H1768 H 0.48682 0.10724 0.88893 0.0
H1769 H 0.43842 1.00156 0.86335 0.0
H1770 H 0.44001 0.14486 0.86837 0.0
H1771 H 0.483 0.16235 0.85702 0.0
H1772 H 0.48357 0.15891 0.87913 0.0
H1773 H 0.38306 1.01571 0.83621 0.0
H1774 H 0.41124 0.99323 0.83708 0.0
H1775 H 0.42636 0.03528 0.82495 0.0
C1776 C 0.98205 0.25591 0.54176 0.0
C1777 C 0.973 0.28383 0.54556 0.0
C1778 C 1.00695 0.26088 0.52862 0.0
C1779 C 1.02228 0.29406 0.51882 0.0
C1780 C 1.01124 0.3211 0.52213 0.0
C1781 C 0.98732 0.31586 0.5355 0.0
C1782 C 1.01758 0.23113 0.52554 0.0
C1783 C 1.02529 0.35614 0.51172 0.0
C1784 C 0.11184 0.33814 0.49232 0.0
C1785 C 0.09628 0.32836 0.47651 0.0
C1786 C 0.08842 0.32417 0.50644 0.0
C1787 C 0.04862 0.30062 0.50464 0.0
C1788 C 0.03358 0.28849 0.48869 0.0
C1789 C 0.0576 0.30195 0.47496 0.0
C1790 C 0.10591 0.33713 0.5232 0.0
C1791 C 0.99164 0.26357 0.48594 0.0
H1792 H 0.97166 0.23135 0.54962 0.0
H1793 H 0.9808 0.33777 0.53849 0.0
H1794 H 1.00252 0.21466 0.51446 0.0
H1795 H 0.04833 0.24422 0.52315 0.0
H1796 H 1.00995 0.21136 0.53608 0.0
H1797 H 1.013 0.37374 0.51555 0.0
H1798 H 0.05649 0.37345 0.51259 0.0
H1799 H 1.0181 0.34825 0.49861 0.0
H1800 H 0.14156 0.35872 0.49367 0.0
H1801 H 0.04544 0.29395 0.46274 0.0
H1802 H 0.0923 0.31393 0.53231 0.0
H1803 H 0.10158 0.36042 0.52743 0.0
H1804 H 0.13674 0.34756 0.52298 0.0
H1805 H 0.98263 0.23467 0.49032 0.0
H1806 H 0.98394 0.26212 0.47275 0.0
H1807 H 0.97542 0.27397 0.49296 0.0
C1808 C 0.70596 0.77051 0.4933 0.0
C1809 C 0.72671 0.78716 0.47893 0.0
C1810 C 0.72034 0.75709 0.50577 0.0
C1811 C 0.75582 0.75919 0.50364 0.0
C1812 C 0.77697 0.77634 0.48922 0.0
C1813 C 0.76254 0.79059 0.47726 0.0
C1814 C 0.69728 0.74015 0.52114 0.0
C1815 C 0.81445 0.77863 0.48614 0.0
C1816 C 0.80799 0.7518 0.54126 0.0
C1817 C 0.79646 0.7132 0.54164 0.0
C1818 C 0.79513 0.76705 0.52904 0.0
C1819 C 0.77083 0.7435 0.51645 0.0
C1820 C 0.76079 0.70493 0.5162 0.0
C1821 C 0.77328 0.69018 0.52887 0.0
C1822 C 0.80616 0.80809 0.53012 0.0
C1823 C 0.73609 0.679 0.50272 0.0
H1824 H 0.67826 0.76754 0.4947 0.0
H1825 H 0.77884 0.80303 0.46618 0.0
H1826 H 0.6889 0.70995 0.52201 0.0
H1827 H 0.71448 0.75445 0.53218 0.0
H1828 H 0.67135 0.74243 0.52139 0.0
H1829 H 0.82726 0.79262 0.47428 0.0
H1830 H 0.8345 0.79444 0.49621 0.0
H1831 H 0.81064 0.74986 0.486 0.0
H1832 H 0.82583 0.77001 0.551 0.0
H1833 H 0.76412 0.66037 0.529 0.0
H1834 H 0.78089 0.81023 0.53323 0.0
H1835 H 0.81692 0.82234 0.51811 0.0
H1836 H 0.8281 0.82349 0.53961 0.0
H1837 H 0.70764 0.676 0.5034 0.0
H1838 H 0.73296 0.65054 0.50358 0.0
H1839 H 0.74811 0.69121 0.4905 0.0
C1840 C 0.28204 0.96077 0.49314 0.0
C1841 C 0.28646 0.97452 0.47703 0.0
C1842 C 0.29032 0.98526 0.5068 0.0
C1843 C 0.30344 0.02427 0.50423 0.0
C1844 C 0.30402 0.03704 0.48801 0.0
C1845 C 0.29601 1.01225 0.47474 0.0
C1846 C 0.28836 0.9701 0.52389 0.0
C1847 C 0.31747 0.07798 0.48437 0.0
C1848 C 0.32577 0.0941 0.54005 0.0
C1849 C 0.3642 0.10676 0.54278 0.0
C1850 C 0.30523 0.06687 0.52775 0.0
C1851 C 0.32376 0.05274 0.51767 0.0
C1852 C 0.36298 0.06713 0.51989 0.0
C1853 C 0.38244 0.09355 0.53238 0.0
C1854 C 0.26355 0.05244 0.52583 0.0
C1855 C 0.38452 0.05408 0.50924 0.0
H1856 H 0.27546 0.93195 0.49508 0.0
H1857 H 0.30058 0.02349 0.46238 0.0
H1858 H 0.31733 0.97873 0.52817 0.0
H1859 H 0.27614 0.98189 0.53264 0.0
H1860 H 0.27123 0.93884 0.52423 0.0
H1861 H 0.30908 0.08184 0.47184 0.0
H1862 H 0.30617 0.08996 0.49346 0.0
H1863 H 0.34875 0.09437 0.48517 0.0
H1864 H 0.31138 0.10426 0.54787 0.0
H1865 H 0.41213 0.10319 0.53432 0.0
H1866 H 0.24758 0.02151 0.52784 0.0
H1867 H 0.25734 0.05757 0.51313 0.0
H1868 H 0.25315 0.06596 0.53461 0.0
H1869 H 0.41503 0.06838 0.51238 0.0
H1870 H 0.38177 0.05961 0.49609 0.0
H1871 H 0.3725 0.02324 0.51065 0.0
C1872 C 0.59358 0.45579 0.10005 0.0
C1873 C 0.56673 0.46475 0.10599 0.0
C1874 C 0.58539 0.41813 0.09886 0.0
C1875 C 0.54944 0.38836 0.10371 0.0
C1876 C 0.52251 0.39721 0.11006 0.0
C1877 C 0.53142 0.43512 0.1111 0.0
C1878 C 0.61502 0.41017 0.09205 0.0
C1879 C 0.48395 0.36651 0.1155 0.0
C1880 C 0.51229 0.28947 0.08596 0.0
C1881 C 0.51854 0.27057 0.09892 0.0
C1882 C 0.52268 0.32777 0.08726 0.0
C1883 C 0.53969 0.34798 0.10191 0.0
C1884 C 0.54669 0.32932 0.11493 0.0
C1885 C 0.5362 0.29107 0.11327 0.0
C1886 C 0.51479 0.34647 0.07303 0.0
C1887 C 0.56486 0.34964 0.13074 0.0
H1888 H 0.62095 0.4782 0.09602 0.0
H1889 H 0.51033 0.44143 0.11569 0.0
H1890 H 0.62053 0.39285 0.10087 0.0
H1891 H 0.60463 0.39369 0.0805 0.0
H1892 H 0.64209 0.4364 0.08942 0.0
H1893 H 0.46657 0.37797 0.12062 0.0
H1894 H 0.46868 0.34801 0.10492 0.0
H1895 H 0.48677 0.34863 0.12499 0.0
H1896 H 0.4983 0.27405 0.07489 0.0
H1897 H 0.54187 0.27718 0.12328 0.0
H1898 H 0.54121 0.37202 0.06913 0.0
H1899 H 0.49471 0.3557 0.07693 0.0
H1900 H 0.50267 0.3274 0.06226 0.0
H1901 H 0.59264 0.37491 0.12812 0.0
H1902 H 0.56907 0.33144 0.13959 0.0
H1903 H 0.54698 0.35958 0.13666 0.0
C1904 C 0.6331 0.11637 0.11395 0.0
C1905 C 0.60228 0.12168 0.11086 0.0
C1906 C 0.67064 0.14597 0.11204 0.0
C1907 C 0.67794 0.18207 0.10693 0.0
C1908 C 0.64705 0.18801 0.10432 0.0
C1909 C 0.60974 0.15787 0.1063 0.0
C1910 C 0.70254 0.13823 0.11503 0.0
C1911 C 0.65335 0.22598 0.09896 0.0
C1912 C 0.77777 0.26558 0.11352 0.0
C1913 C 0.79453 0.26934 0.098 0.0
C1914 C 0.73984 0.23788 0.11653 0.0
C1915 C 0.7178 0.21307 0.10375 0.0
C1916 C 0.73428 0.21715 0.08798 0.0
C1917 C 0.77225 0.2451 0.08531 0.0
C1918 C 0.72361 0.23464 0.13353 0.0
C1919 C 0.71193 0.19157 0.07393 0.0
H1920 H 0.62797 0.08869 0.11745 0.0
H1921 H 0.58638 0.16253 0.10383 0.0
H1922 H 0.71826 0.14194 0.1034 0.0
H1923 H 0.72278 0.15867 0.12405 0.0
H1924 H 0.69236 0.10924 0.1197 0.0
H1925 H 0.6266 0.2267 0.09835 0.0
H1926 H 0.67289 0.24821 0.10758 0.0
H1927 H 0.66681 0.23306 0.08663 0.0
H1928 H 0.79463 0.28364 0.12353 0.0
H1929 H 0.78452 0.24794 0.0732 0.0
H1930 H 0.71597 0.20685 0.13893 0.0
H1931 H 0.69734 0.23617 0.13284 0.0
H1932 H 0.74373 0.25712 0.14193 0.0
H1933 H 0.70296 0.16193 0.0771 0.0
H1934 H 0.7284 0.19897 0.0623 0.0
H1935 H 0.68594 0.19308 0.07182 0.0
C1936 C 0.8083 0.54244 0.11164 0.0
C1937 C 0.80667 0.5577 0.09636 0.0
C1938 C 0.83486 0.53079 0.1147 0.0
C1939 C 0.86076 0.53445 0.10224 0.0
C1940 C 0.85916 0.54959 0.08677 0.0
C1941 C 0.83225 0.5609 0.08403 0.0
C1942 C 0.83544 0.51485 0.13136 0.0
C1943 C 0.88605 0.55402 0.07309 0.0
C1944 C 0.95428 0.53999 0.11345 0.0
C1945 C 0.94758 0.50386 0.10926 0.0
C1946 C 0.92615 0.54997 0.11157 0.0
C1947 C 0.89007 0.52324 0.10541 0.0
C1948 C 0.88267 0.48634 0.10168 0.0
C1949 C 0.91141 0.47716 0.10359 0.0
C1950 C 0.93548 0.58961 0.11572 0.0
C1951 C 0.84464 0.45678 0.09521 0.0
H1952 H 0.78917 0.54018 0.12137 0.0
H1953 H 0.83103 0.57193 0.07207 0.0
H1954 H 0.83207 0.48641 0.12996 0.0
H1955 H 0.86311 0.53295 0.13738 0.0
H1956 H 0.81276 0.51272 0.13959 0.0
H1957 H 0.88109 0.56602 0.06174 0.0
H1958 H 0.91561 0.57274 0.07715 0.0
H1959 H 0.88307 0.52627 0.07006 0.0
H1960 H 0.98199 0.56103 0.11779 0.0
H1961 H 0.90568 0.44918 0.10028 0.0
H1962 H 0.91451 0.589 0.12455 0.0
H1963 H 0.93392 0.60399 0.10443 0.0
H1964 H 0.96413 0.60656 0.12112 0.0
H1965 H 0.82186 0.45397 0.10353 0.0
H1966 H 0.84245 0.42877 0.09395 0.0
H1967 H 0.83962 0.46551 0.08299 0.0
C1968 C 0.46731 0.58914 0.92008 0.0
C1969 C 0.4773 0.56326 0.91392 0.0
C1970 C 0.42914 0.57968 0.92152 0.0
C1971 C 0.39992 0.54337 0.91672 0.0
C1972 C 0.40985 0.51754 0.91006 0.0
C1973 C 0.44819 0.52774 0.90874 0.0
C1974 C 0.42009 0.60824 0.92862 0.0
C1975 C 0.37987 0.47861 0.90472 0.0
C1976 C 0.30181 0.50259 0.93621 0.0
C1977 C 0.28095 0.50789 0.9238 0.0
C1978 C 0.34039 0.51433 0.93413 0.0
C1979 C 0.35902 0.5318 0.91923 0.0
C1980 C 0.33827 0.53741 0.90668 0.0
C1981 C 0.29971 0.5255 0.90911 0.0
C1982 C 0.36115 0.50764 0.94786 0.0
C1983 C 0.35681 0.55591 0.89062 0.0
H1984 H 0.4893 0.61663 0.92417 0.0
H1985 H 0.45525 0.50735 0.90398 0.0
H1986 H 0.40114 0.61238 0.92021 0.0
H1987 H 0.40489 0.59766 0.94047 0.0
H1988 H 0.44586 0.63596 0.93082 0.0
H1989 H 0.39209 0.46241 0.89909 0.0
H1990 H 0.36252 0.46266 0.91548 0.0
H1991 H 0.36062 0.48058 0.89569 0.0
H1992 H 0.2878 0.48856 0.94752 0.0
H1993 H 0.28434 0.53038 0.89949 0.0
H1994 H 0.38613 0.53468 0.9516 0.0
H1995 H 0.37165 0.48889 0.94351 0.0
H1996 H 0.34302 0.49459 0.95884 0.0
H1997 H 0.38131 0.58437 0.89296 0.0
H1998 H 0.33705 0.55865 0.88213 0.0
H1999 H 0.36776 0.53922 0.88441 0.0
C2000 C 0.48839 0.90938 0.92262 0.0
C2001 C 0.51593 0.94591 0.91775 0.0
C2002 C 0.49684 0.88018 0.92401 0.0
C2003 C 0.5338 0.88743 0.92048 0.0
C2004 C 0.56146 0.92392 0.91512 0.0
C2005 C 0.55222 0.95264 0.9138 0.0
C2006 C 0.46637 0.84173 0.92966 0.0
C2007 C 0.60118 0.93292 0.91118 0.0
C2008 C 0.56727 0.82497 0.94049 0.0
C2009 C 0.56366 0.80054 0.9276 0.0
C2010 C 0.55755 0.85314 0.93835 0.0
C2011 C 0.54381 0.85722 0.92293 0.0
C2012 C 0.5397 0.83243 0.90992 0.0
C2013 C 0.54964 0.8045 0.9124 0.0
C2014 C 0.56217 0.87872 0.95261 0.0
C2015 C 0.52521 0.83572 0.89329 0.0
H2016 H 0.4602 0.90363 0.92567 0.0
H2017 H 0.5738 0.98066 0.91007 0.0
H2018 H 0.46321 0.81989 0.92072 0.0
H2019 H 0.47447 0.83481 0.94162 0.0
H2020 H 0.4386 0.8401 0.93114 0.0
H2021 H 0.61894 0.96208 0.90646 0.0
H2022 H 0.61465 0.9296 0.92241 0.0
H2023 H 0.60065 0.91289 0.90187 0.0
H2024 H 0.57759 0.82196 0.95234 0.0
H2025 H 0.54725 0.78627 0.90226 0.0
H2026 H 0.53466 0.87647 0.95559 0.0
H2027 H 0.58196 0.90847 0.94918 0.0
H2028 H 0.57307 0.87187 0.96382 0.0
H2029 H 0.497 0.83311 0.89459 0.0
H2030 H 0.52292 0.81387 0.88453 0.0
H2031 H 0.54438 0.86391 0.88795 0.0
C2032 C 0.26993 0.78178 0.91064 0.0
C2033 C 0.27076 0.80128 0.92502 0.0
C2034 C 0.2432 0.7432 0.90855 0.0
C2035 C 0.21645 0.72328 0.92112 0.0
C2036 C 0.21726 0.74271 0.93568 0.0
C2037 C 0.24425 0.78124 0.93745 0.0
C2038 C 0.24342 0.7238 0.8928 0.0
C2039 C 0.18954 0.72274 0.94947 0.0
C2040 C 0.12399 0.63263 0.91127 0.0
C2041 C 0.13112 0.60449 0.91706 0.0
C2042 C 0.15163 0.67117 0.9122 0.0
C2043 C 0.18754 0.68221 0.91909 0.0
C2044 C 0.19525 0.65393 0.92458 0.0
C2045 C 0.16709 0.61561 0.92351 0.0
C2046 C 0.14207 0.70019 0.90615 0.0
C2047 C 0.23305 0.66421 0.93197 0.0
H2048 H 0.28984 0.79685 0.90085 0.0
H2049 H 0.24484 0.79562 0.94873 0.0
H2050 H 0.24711 0.69936 0.8956 0.0
H2051 H 0.2159 0.71272 0.88643 0.0
H2052 H 0.26627 0.74298 0.88429 0.0
H2053 H 0.1938 0.74171 0.96001 0.0
H2054 H 0.16024 0.711 0.94488 0.0
H2055 H 0.19238 0.69871 0.95394 0.0
H2056 H 0.09643 0.62465 0.90627 0.0
H2057 H 0.17316 0.59435 0.92805 0.0
H2058 H 0.1633 0.71899 0.89699 0.0
H2059 H 0.14299 0.71812 0.91657 0.0
H2060 H 0.11362 0.68713 0.90043 0.0
H2061 H 0.25611 0.68225 0.92333 0.0
H2062 H 0.23531 0.63898 0.93497 0.0
H2063 H 0.23756 0.68074 0.94339 0.0
C2064 C 0.27084 0.79697 0.43729 0.0
C2065 C 0.24249 0.80451 0.44246 0.0
C2066 C 0.26357 0.75969 0.43549 0.0
C2067 C 0.22704 0.72895 0.43891 0.0
C2068 C 0.19871 0.73638 0.44466 0.0
C2069 C 0.20673 0.77387 0.44636 0.0
C2070 C 0.29472 0.7532 0.42941 0.0
C2071 C 0.15942 0.70463 0.44854 0.0
C2072 C 0.19279 0.63371 0.41797 0.0
C2073 C 0.19598 0.61208 0.4306 0.0
C2074 C 0.20349 0.67182 0.4204 0.0
C2075 C 0.21785 0.68908 0.43587 0.0
C2076 C 0.22197 0.66771 0.44857 0.0
C2077 C 0.21102 0.62962 0.4458 0.0
C2078 C 0.19877 0.69345 0.40647 0.0
C2079 C 0.23709 0.68482 0.46524 0.0
H2080 H 0.29856 0.8202 0.43418 0.0
H2081 H 0.18449 0.77908 0.45037 0.0
H2082 H 0.29832 0.73404 0.43789 0.0
H2083 H 0.28703 0.7393 0.41719 0.0
H2084 H 0.32215 0.77988 0.42828 0.0
H2085 H 0.14109 0.71496 0.45367 0.0
H2086 H 0.14606 0.68832 0.4372 0.0
H2087 H 0.16075 0.68495 0.45752 0.0
H2088 H 0.18178 0.62079 0.40611 0.0
H2089 H 0.2132 0.61325 0.45575 0.0
H2090 H 0.22605 0.71931 0.40381 0.0
H2091 H 0.17837 0.70251 0.41009 0.0
H2092 H 0.18847 0.67647 0.39503 0.0
H2093 H 0.26476 0.71107 0.46391 0.0
H2094 H 0.2406 0.66524 0.47352 0.0
H2095 H 0.21751 0.6926 0.47118 0.0
C2096 C 0.45341 0.60038 0.44781 0.0
C2097 C 0.472 0.60112 0.43312 0.0
C2098 C 0.41476 0.57403 0.45028 0.0
C2099 C 0.39379 0.54754 0.4378 0.0
C2100 C 0.41222 0.54847 0.42287 0.0
C2101 C 0.45084 0.57508 0.42073 0.0
C2102 C 0.39649 0.57416 0.46639 0.0
C2103 C 0.39116 0.52104 0.40916 0.0
C2104 C 0.30499 0.45411 0.44845 0.0
C2105 C 0.27571 0.46022 0.44324 0.0
C2106 C 0.34325 0.48245 0.44712 0.0
C2107 C 0.35295 0.51813 0.44044 0.0
C2108 C 0.32355 0.52494 0.43566 0.0
C2109 C 0.28547 0.49602 0.43708 0.0
C2110 C 0.37341 0.47374 0.45242 0.0
C2111 C 0.33234 0.56249 0.42857 0.0
H2112 H 0.46931 0.61992 0.45758 0.0
H2113 H 0.46445 0.57562 0.40921 0.0
H2114 H 0.37131 0.57703 0.46411 0.0
H2115 H 0.38661 0.54696 0.47285 0.0
H2116 H 0.41611 0.59739 0.47463 0.0
H2117 H 0.40922 0.5258 0.39819 0.0
H2118 H 0.38026 0.49175 0.41354 0.0
H2119 H 0.36642 0.5235 0.4054 0.0
H2120 H 0.29812 0.42671 0.45321 0.0
H2121 H 0.26336 0.50129 0.43296 0.0
H2122 H 0.39279 0.49516 0.46135 0.0
H2123 H 0.39058 0.47499 0.44161 0.0
H2124 H 0.36137 0.44541 0.45813 0.0
H2125 H 0.35152 0.58569 0.43689 0.0
H2126 H 0.30647 0.56435 0.42654 0.0
H2127 H 0.34718 0.56703 0.41663 0.0
C2128 C 0.63014 0.88164 0.44453 0.0
C2129 C 0.62319 0.84604 0.43931 0.0
C2130 C 0.60206 0.89196 0.44343 0.0
C2131 C 0.566 0.86622 0.43688 0.0
C2132 C 0.55857 0.82999 0.43193 0.0
C2133 C 0.58705 0.82037 0.43322 0.0
C2134 C 0.61125 0.93077 0.44898 0.0
C2135 C 0.52069 0.80156 0.42487 0.0
C2136 C 0.48167 0.88053 0.44489 0.0
C2137 C 0.47953 0.89754 0.43021 0.0
C2138 C 0.50972 0.87058 0.4473 0.0
C2139 C 0.53644 0.87748 0.43471 0.0
C2140 C 0.53447 0.89458 0.41987 0.0
C2141 C 0.50628 0.90445 0.41783 0.0
C2142 C 0.51062 0.85242 0.46331 0.0
C2143 C 0.56219 0.90245 0.40607 0.0
H2144 H 0.65781 0.90182 0.44924 0.0
H2145 H 0.58107 0.79276 0.42913 0.0
H2146 H 0.60964 0.94689 0.43835 0.0
H2147 H 0.59021 0.9286 0.45818 0.0
H2148 H 0.63989 0.94691 0.45448 0.0
H2149 H 0.5188 0.7741 0.42219 0.0
H2150 H 0.49778 0.7967 0.43357 0.0
H2151 H 0.51559 0.81269 0.41331 0.0
H2152 H 0.46103 0.87445 0.4545 0.0
H2153 H 0.50559 0.91813 0.40654 0.0
H2154 H 0.53868 0.86918 0.46922 0.0
H2155 H 0.50635 0.8239 0.46093 0.0
H2156 H 0.48858 0.84982 0.47207 0.0
H2157 H 0.59142 0.92124 0.4105 0.0
H2158 H 0.55698 0.9159 0.3953 0.0
H2159 H 0.5604 0.87578 0.40199 0.0
C2160 C 0.95342 0.84216 0.24176 0.0
C2161 C 0.93393 0.82655 0.25656 0.0
C2162 C 0.99208 0.85373 0.24001 0.0
C2163 C 1.01215 0.84982 0.25337 0.0
C2164 C 0.99277 0.83448 0.26838 0.0
C2165 C 0.95414 0.82309 0.26978 0.0
C2166 C 1.01138 0.86978 0.22377 0.0
C2167 C 1.01287 0.82994 0.283 0.0
C2168 C 0.10197 0.84479 0.24571 0.0
C2169 C 0.13079 0.88116 0.2501 0.0
C2170 C 0.06352 0.83454 0.24641 0.0
C2171 C 0.05318 0.86113 0.25164 0.0
C2172 C 0.08211 0.89813 0.25572 0.0
C2173 C 0.12036 0.90765 0.25491 0.0
C2174 C 0.03386 0.79484 0.24187 0.0
C2175 C 0.07262 0.92751 0.26133 0.0
H2176 H 0.93825 0.84466 0.23137 0.0
H2177 H 0.9398 0.81174 0.28137 0.0
H2178 H 0.03624 0.89826 0.22563 0.0
H2179 H 1.0219 0.85177 0.21852 0.0
H2180 H 0.99222 0.87186 0.21469 0.0
H2181 H 0.99406 0.818 0.29387 0.0
H2182 H 1.02408 0.81111 0.27976 0.0
H2183 H 0.03732 0.85763 0.28646 0.0
H2184 H 0.10934 0.82393 0.24198 0.0
H2185 H 0.14209 0.93583 0.25836 0.0
H2186 H 1.01507 0.79536 0.23217 0.0
H2187 H 1.01597 0.78048 0.25275 0.0
H2188 H 0.04639 0.77792 0.23738 0.0
H2189 H 0.05449 0.93069 0.25208 0.0
H2190 H 0.09825 0.95543 0.26334 0.0
H2191 H 0.05636 0.91833 0.27299 0.0
C2192 C 0.21815 0.13354 0.24652 0.0
C2193 C 0.23015 0.12852 0.26204 0.0
C2194 C 0.20761 0.16101 0.24394 0.0
C2195 C 0.20906 0.18424 0.25716 0.0
C2196 C 0.22099 0.17924 0.27286 0.0
C2197 C 0.23129 0.15153 0.2751 0.0
C2198 C 0.19516 0.16537 0.227 0.0
C2199 C 0.22291 0.20324 0.28733 0.0
C2200 C 0.21693 0.27958 0.2488 0.0
C2201 C 0.17991 0.27198 0.25175 0.0
C2202 C 0.22657 0.25119 0.25017 0.0
C2203 C 0.19861 0.2141 0.25461 0.0
C2204 C 0.161 0.20597 0.25719 0.0
C2205 C 0.15212 0.2349 0.25573 0.0
C2206 C 0.26698 0.26117 0.24726 0.0
C2207 C 0.13025 0.16685 0.2619 0.0
H2208 H 0.21756 0.11635 0.23627 0.0
H2209 H 0.23986 0.1476 0.28721 0.0
H2210 H 0.16644 0.16175 0.22761 0.0
H2211 H 0.21439 0.19421 0.2223 0.0
H2212 H 0.19484 0.14468 0.21809 0.0
H2213 H 0.23262 0.1958 0.29874 0.0
H2214 H 0.24251 0.23342 0.28453 0.0
H2215 H 0.19469 0.19994 0.28964 0.0
H2216 H 0.23874 0.30799 0.24571 0.0
H2217 H 0.12343 0.22853 0.25807 0.0
H2218 H 0.26817 0.24224 0.23782 0.0
H2219 H 0.27902 0.25702 0.25876 0.0
H2220 H 0.28502 0.29081 0.24315 0.0
H2221 H 0.12873 0.14601 0.25277 0.0
H2222 H 0.10211 0.16463 0.26272 0.0
H2223 H 0.13691 0.15902 0.27399 0.0
C2224 C 0.82662 0.93756 0.25498 0.0
C2225 C 0.79159 0.92832 0.24799 0.0
C2226 C 0.85559 0.97533 0.2568 0.0
C2227 C 0.84971 1.0049 0.25147 0.0
C2228 C 0.8149 0.99579 0.24395 0.0
C2229 C 0.78633 0.95774 0.24232 0.0
C2230 C 0.89216 0.98359 0.26488 0.0
C2231 C 0.80743 0.0263 0.23798 0.0
C2232 C 0.90743 0.10134 0.27192 0.0
C2233 C 0.93604 0.12159 0.2603 0.0
C2234 C 0.87932 0.06358 0.26919 0.0
C2235 C 0.87937 0.04529 0.2544 0.0
C2236 C 0.90794 0.06554 0.24255 0.0
C2237 C 0.93588 0.10325 0.24564 0.0
C2238 C 0.8495 0.04321 0.28219 0.0
C2239 C 0.90913 0.04727 0.22661 0.0
H2240 H 0.83123 0.91527 0.25942 0.0
H2241 H 0.75952 0.95116 0.23691 0.0
H2242 H 0.91644 1.00198 0.25685 0.0
H2243 H 0.89582 0.99903 0.27657 0.0
H2244 H 0.89311 0.95753 0.26761 0.0
H2245 H 0.77982 1.01467 0.23159 0.0
H2246 H 0.80765 0.0435 0.24856 0.0
H2247 H 0.83011 0.0455 0.22943 0.0
H2248 H 0.90666 0.11517 0.28315 0.0
H2249 H 0.95798 0.11821 0.23663 0.0
H2250 H 0.85018 0.0178 0.28638 0.0
H2251 H 0.82106 0.0335 0.27694 0.0
H2252 H 0.85339 0.06126 0.29305 0.0
H2253 H 0.91248 0.02254 0.22921 0.0
H2254 H 0.93264 0.06698 0.21849 0.0
H2255 H 0.88211 0.03679 0.21988 0.0
C2256 C 0.88026 0.96338 0.77788 0.0
C2257 C 0.86144 0.94525 0.76329 0.0
C2258 C 0.8924 1.00174 0.78075 0.0
C2259 C 0.88556 0.02281 0.76881 0.0
C2260 C 0.86695 1.00483 0.754 0.0
C2261 C 0.85527 0.96653 0.75142 0.0
C2262 C 0.91213 0.01962 0.7967 0.0
C2263 C 0.85902 0.02603 0.74089 0.0
C2264 C 0.88008 0.10984 0.78134 0.0
C2265 C 0.91472 0.13964 0.77567 0.0
C2266 C 0.87072 0.07194 0.77955 0.0
C2267 C 0.89659 0.06321 0.77196 0.0
C2268 C 0.93217 0.09314 0.76675 0.0
C2269 C 0.94075 0.13085 0.76861 0.0
C2270 C 0.83249 0.04115 0.78531 0.0
C2271 C 0.96081 0.08531 0.75873 0.0
H2272 H 0.88489 0.94738 0.78727 0.0
H2273 H 0.84148 0.95329 0.73996 0.0
H2274 H 0.93979 0.04514 0.79417 0.0
H2275 H 0.89501 0.02877 0.80384 0.0
H2276 H 0.9169 1.00004 0.80443 0.0
H2277 H 0.84486 1.00829 0.72995 0.0
H2278 H 0.84075 0.03643 0.74598 0.0
H2279 H 0.88578 0.05104 0.73688 0.0
H2280 H 0.85959 0.11598 0.7868 0.0
H2281 H 0.96756 0.15342 0.76414 0.0
H2282 H 0.83572 0.02176 0.79378 0.0
H2283 H 0.81575 0.02423 0.7746 0.0
H2284 H 0.8163 0.05249 0.79171 0.0
H2285 H 0.96585 0.06606 0.76653 0.0
H2286 H 0.9882 0.11149 0.75653 0.0
H2287 H 0.9497 0.07097 0.74676 0.0
C2288 C 0.12392 0.90635 0.75277 0.0
C2289 C 0.14466 0.92909 0.76613 0.0
C2290 C 0.08539 0.87896 0.7543 0.0
C2291 C 0.06673 0.87383 0.7696 0.0
C2292 C 0.0874 0.89665 0.78314 0.0
C2293 C 0.12593 0.92389 0.78126 0.0
C2294 C 0.06465 0.85531 0.73953 0.0
C2295 C 0.06877 0.89234 0.79966 0.0
C2296 C 0.95879 0.82543 0.76899 0.0
C2297 C 0.94783 0.78805 0.77322 0.0
C2298 C 0.99717 0.85362 0.76805 0.0
C2299 C 0.02567 0.84452 0.77138 0.0
C2300 C 1.01485 0.80708 0.77599 0.0
C2301 C 0.97625 0.77942 0.77686 0.0
C2302 C 1.00722 0.89308 0.76313 0.0
C2303 C 0.04413 0.79601 0.77971 0.0
H2304 H 0.13799 0.90952 0.74109 0.0
H2305 H 0.14129 0.9415 0.79164 0.0
H2306 H 0.05352 0.82506 0.74231 0.0
H2307 H 0.04008 0.8588 0.73662 0.0
H2308 H 0.08299 0.86292 0.72846 0.0
H2309 H 0.08865 0.91208 0.809 0.0
H2310 H 0.04472 0.89748 0.79841 0.0
H2311 H 0.05715 0.86308 0.80422 0.0
H2312 H 0.93736 0.83269 0.76614 0.0
H2313 H 0.96841 0.7508 0.78013 0.0
H2314 H 1.02308 0.90072 0.75136 0.0
H2315 H 0.02589 0.91358 0.77253 0.0
H2316 H 0.98187 0.89607 0.76161 0.0
H2317 H 0.06161 0.80019 0.76861 0.0
H2318 H 0.03125 0.76615 0.78367 0.0
H2319 H 0.06338 0.81431 0.78954 0.0
C2320 C 0.29799 0.21351 0.77658 0.0
C2321 C 0.29117 0.17743 0.77228 0.0
C2322 C 0.26965 0.22331 0.77502 0.0
C2323 C 0.23342 0.19645 0.76903 0.0
C2324 C 0.22607 0.15972 0.76507 0.0
C2325 C 0.2549 0.15071 0.76672 0.0
C2326 C 0.27877 0.26275 0.77943 0.0
C2327 C 0.18791 0.1301 0.75872 0.0
C2328 C 0.15027 0.21251 0.77669 0.0
C2329 C 0.14748 0.22782 0.76163 0.0
C2330 C 0.17789 0.20209 0.77925 0.0
C2331 C 0.20357 0.20703 0.76648 0.0
C2332 C 0.2007 0.22212 0.7512 0.0
C2333 C 0.17282 0.23229 0.74898 0.0
C2334 C 0.17985 0.18617 0.79572 0.0
C2335 C 0.22726 0.2277 0.7372 0.0
H2336 H 0.32581 0.23451 0.78083 0.0
H2337 H 0.24908 0.12272 0.76335 0.0
H2338 H 0.2763 0.27714 0.76834 0.0
H2339 H 0.25822 0.26173 0.78861 0.0
H2340 H 0.30771 0.27991 0.78452 0.0
H2341 H 0.18618 0.10245 0.7568 0.0
H2342 H 0.16545 0.12625 0.76748 0.0
H2343 H 0.18194 0.13946 0.74686 0.0
H2344 H 0.13137 0.20943 0.78667 0.0
H2345 H 0.17074 0.2436 0.73723 0.0
H2346 H 0.20778 0.20462 0.80147 0.0
H2347 H 0.17699 0.158 0.79407 0.0
H2348 H 0.15747 0.18344 0.8043 0.0
H2349 H 0.25686 0.24692 0.74107 0.0
H2350 H 0.22134 0.23965 0.72608 0.0
H2351 H 0.22496 0.20038 0.73386 0.0
C2352 C 0.63088 0.18558 0.579 0.0
C2353 C 0.61396 0.17437 0.5946 0.0
C2354 C 0.66906 0.19628 0.57645 0.0
C2355 C 0.69114 0.1958 0.58978 0.0
C2356 C 0.67433 0.18474 0.60555 0.0
C2357 C 0.63615 0.17425 0.60776 0.0
C2358 C 0.68571 0.20779 0.55942 0.0
C2359 C 0.6967 0.18389 0.62015 0.0
C2360 C 0.77907 0.18793 0.58194 0.0
C2361 C 0.80853 0.22506 0.58455 0.0
C2362 C 0.74091 0.17825 0.58324 0.0
C2363 C 0.73163 0.20628 0.58725 0.0
C2364 C 0.76115 0.244 0.58945 0.0
C2365 C 0.7991 0.2529 0.5881 0.0
C2366 C 0.71049 0.13771 0.58075 0.0
C2367 C 0.75269 0.27487 0.59367 0.0
H2368 H 0.61408 0.1854 0.56867 0.0
H2369 H 0.62377 0.16633 0.61993 0.0
H2370 H 0.71083 0.23651 0.55975 0.0
H2371 H 0.69534 0.1884 0.555 0.0
H2372 H 0.66516 0.20754 0.55043 0.0
H2373 H 0.67966 0.17486 0.63162 0.0
H2374 H 0.7074 0.16427 0.61769 0.0
H2375 H 0.72163 0.21225 0.62215 0.0
H2376 H 0.78575 0.16606 0.5792 0.0
H2377 H 0.82139 0.28166 0.59017 0.0
H2378 H 0.69019 0.13588 0.57125 0.0
H2379 H 0.69441 0.12632 0.59235 0.0
H2380 H 0.72218 0.11958 0.57694 0.0
H2381 H 0.73307 0.27564 0.58448 0.0
H2382 H 0.77862 0.30307 0.59413 0.0
H2383 H 0.73845 0.26902 0.60582 0.0
C2384 C 0.88208 0.46793 0.58027 0.0
C2385 C 0.89842 0.4664 0.59526 0.0
C2386 C 0.87139 0.49525 0.57742 0.0
C2387 C 0.87715 0.52196 0.58982 0.0
C2388 C 0.89337 0.52042 0.605 0.0
C2389 C 0.90367 0.49277 0.60753 0.0
C2390 C 0.8542 0.49574 0.56107 0.0
C2391 C 0.89995 0.54813 0.6186 0.0
C2392 C 0.88358 0.61577 0.57877 0.0
C2393 C 0.848 0.60975 0.58362 0.0
C2394 C 0.89311 0.58729 0.58038 0.0
C2395 C 0.86648 0.55167 0.58697 0.0
C2396 C 0.83016 0.54505 0.59145 0.0
C2397 C 0.82142 0.57406 0.58976 0.0
C2398 C 0.93215 0.59571 0.57544 0.0
C2399 C 0.80076 0.50755 0.59843 0.0
H2400 H 0.87824 0.44814 0.57059 0.0
H2401 H 0.91559 0.49162 0.61927 0.0
H2402 H 0.82611 0.49306 0.56299 0.0
H2403 H 0.87223 0.52308 0.5548 0.0
H2404 H 0.85083 0.47265 0.55282 0.0
H2405 H 0.91285 0.54328 0.62968 0.0
H2406 H 0.91881 0.57732 0.61419 0.0
H2407 H 0.87282 0.54603 0.62222 0.0
H2408 H 0.90447 0.64312 0.57405 0.0
H2409 H 0.79381 0.56886 0.59355 0.0
H2410 H 0.93022 0.57429 0.56655 0.0
H2411 H 0.94745 0.59417 0.58641 0.0
H2412 H 0.94902 0.62408 0.56981 0.0
H2413 H 0.79632 0.4844 0.58999 0.0
H2414 H 0.77323 0.50611 0.60049 0.0
H2415 H 0.81077 0.50251 0.61032 0.0
C2416 C 0.49749 0.28089 0.58758 0.0
C2417 C 0.46028 0.26973 0.58282 0.0
C2418 C 0.52557 0.31928 0.58863 0.0
C2419 C 0.51656 0.34763 0.58484 0.0
C2420 C 0.4793 0.33659 0.57971 0.0
C2421 C 0.45176 0.29799 0.57877 0.0
C2422 C 0.5648 0.32952 0.59412 0.0
C2423 C 0.4683 0.36565 0.5755 0.0
C2424 C 0.57713 0.44608 0.60344 0.0
C2425 C 0.60084 0.46673 0.59028 0.0
C2426 C 0.54985 0.40755 0.60185 0.0
C2427 C 0.54574 0.38874 0.58669 0.0
C2428 C 0.56949 0.40934 0.57333 0.0
C2429 C 0.59663 0.44786 0.57528 0.0
C2430 C 0.52523 0.38694 0.61643 0.0
C2431 C 0.56631 0.39062 0.55696 0.0
H2432 H 0.50469 0.25959 0.59077 0.0
H2433 H 0.42327 0.29004 0.5751 0.0
H2434 H 0.5859 0.34806 0.58487 0.0
H2435 H 0.57166 0.34552 0.60583 0.0
H2436 H 0.56779 0.3043 0.596 0.0
H2437 H 0.43863 0.35264 0.57116 0.0
H2438 H 0.4717 0.38317 0.58647 0.0
H2439 H 0.48721 0.38483 0.56578 0.0
H2440 H 0.57946 0.46019 0.61502 0.0
H2441 H 0.61497 0.46308 0.56505 0.0
H2442 H 0.52862 0.36252 0.61967 0.0
H2443 H 0.49509 0.37571 0.61325 0.0
H2444 H 0.53208 0.40535 0.62742 0.0
H2445 H 0.57155 0.36676 0.55854 0.0
H2446 H 0.58659 0.41044 0.54774 0.0
H2447 H 0.53726 0.37882 0.55204 0.0
loop_
_geom_bond_atom_site_label_1
_geom_bond_atom_site_label_2
_geom_bond_distance
_geom_bond_site_symmetry_2
_ccdc_geom_bond_type
Nd0 C2 2.836 . S
Nd0 O20 2.500 . S
Nd0 O21 2.492 . S
Nd0 O22 2.487 . S
Nd0 O23 2.682 1_545 S
Nd0 O24 2.410 . S
Nd0 O29 2.414 . S
Nd0 O31 2.424 1_545 S
Nd1 C11 2.836 . S
Nd1 O23 2.414 . S
Nd1 O25 2.424 1_565 S
Nd1 O26 2.500 . S
Nd1 O27 2.492 . S
Nd1 O28 2.487 . S
Nd1 O29 2.682 1_565 S
Nd1 O30 2.410 . S
C2 Nd0 2.836 . S
C2 C3 1.498 . S
C2 O20 1.258 . S
C2 O21 1.239 . S
C3 C2 1.498 . S
C3 C4 1.366 . S
C3 C8 1.407 . S
C4 C3 1.366 . S
C4 C5 1.392 . S
C4 H32 0.930 . S
C5 C4 1.392 . S
C5 C6 1.398 . S
C5 H33 0.929 . S
C6 C5 1.398 . S
C6 C7 1.352 . S
C7 C6 1.352 . S
C7 C8 1.384 . S
C7 H34 0.930 . S
C8 C3 1.407 . S
C8 C7 1.384 . S
C8 H35 0.929 . S
C9 O22 1.241 . S
C9 O23 1.273 1_545 S
C10 O24 1.251 . S
C10 O25 1.268 . S
C11 Nd1 2.836 . S
C11 C12 1.498 . S
C11 O26 1.258 . S
C11 O27 1.239 . S
C12 C11 1.498 . S
C12 C13 1.366 . S
C12 C17 1.407 . S
C13 C12 1.366 . S
C13 C14 1.392 . S
C13 H36 0.930 . S
C14 C13 1.392 . S
C14 C15 1.398 . S
C14 H37 0.929 . S
C15 C14 1.398 . S
C15 C16 1.352 . S
C16 C15 1.352 . S
C16 C17 1.384 . S
C16 H38 0.930 . S
C17 C12 1.407 . S
C17 C16 1.384 . S
C17 H39 0.929 . S
C18 O28 1.241 1_545 S
C18 O29 1.273 . S
C19 O30 1.251 . S
C19 O31 1.268 . S
O20 Nd0 2.500 . S
O20 C2 1.258 . S
O21 Nd0 2.492 . S
O21 C2 1.239 . S
O22 Nd0 2.487 . S
O22 C9 1.241 . S
O23 Nd0 2.682 1_565 S
O23 Nd1 2.414 . S
O23 C9 1.273 1_565 S
O24 Nd0 2.410 . S
O24 C10 1.251 . S
O25 Nd1 2.424 1_545 S
O25 C10 1.268 . S
O26 Nd1 2.500 . S
O26 C11 1.258 . S
O27 Nd1 2.492 . S
O27 C11 1.239 . S
O28 Nd1 2.487 . S
O28 C18 1.241 1_565 S
O29 Nd0 2.414 . S
O29 Nd1 2.682 1_545 S
O29 C18 1.273 . S
O30 Nd1 2.410 . S
O30 C19 1.251 . S
O31 Nd0 2.424 1_565 S
O31 C19 1.268 . S
H32 C4 0.930 . S
H33 C5 0.929 . S
H34 C7 0.930 . S
H35 C8 0.929 . S
H36 C13 0.930 . S
H37 C14 0.929 . S
H38 C16 0.930 . S
H39 C17 0.929 . S
Nd40 C42 2.836 1_455 S
Nd40 O60 2.500 1_455 S
Nd40 O61 2.492 1_455 S
Nd40 O62 2.487 . S
Nd40 O63 2.682 . S
Nd40 O64 2.410 1_455 S
Nd40 O69 2.414 . S
Nd40 O71 2.424 . S
Nd41 C51 2.836 . S
Nd41 O63 2.414 . S
Nd41 O65 2.424 1_455 S
Nd41 O66 2.500 . S
Nd41 O67 2.492 . S
Nd41 O68 2.487 . S
Nd41 O69 2.682 . S
Nd41 O70 2.410 . S
C42 Nd40 2.836 1_655 S
C42 C43 1.498 . S
C42 O60 1.258 . S
C42 O61 1.239 . S
C43 C42 1.498 . S
C43 C44 1.366 . S
C43 C48 1.407 . S
C44 C43 1.366 . S
C44 C45 1.392 . S
C44 H72 0.930 . S
C45 C44 1.392 . S
C45 C46 1.398 . S
C45 H73 0.929 . S
C46 C45 1.398 . S
C46 C47 1.352 . S
C47 C46 1.352 . S
C47 C48 1.384 . S
C47 H74 0.930 . S
C48 C43 1.407 . S
C48 C47 1.384 . S
C48 H75 0.929 . S
C49 O62 1.241 . S
C49 O63 1.273 . S
C50 O64 1.251 . S
C50 O65 1.268 . S
C51 Nd41 2.836 . S
C51 C52 1.498 . S
C51 O66 1.258 . S
C51 O67 1.239 . S
C52 C51 1.498 . S
C52 C53 1.366 . S
C52 C57 1.407 . S
C53 C52 1.366 . S
C53 C54 1.392 . S
C53 H76 0.930 . S
C54 C53 1.392 . S
C54 C55 1.398 . S
C54 H77 0.929 . S
C55 C54 1.398 . S
C55 C56 1.352 . S
C56 C55 1.352 . S
C56 C57 1.384 . S
C56 H78 0.930 . S
C57 C52 1.407 . S
C57 C56 1.384 . S
C57 H79 0.929 . S
C58 O68 1.241 . S
C58 O69 1.273 . S
C59 O70 1.251 . S
C59 O71 1.268 . S
O60 Nd40 2.500 1_655 S
O60 C42 1.258 . S
O61 Nd40 2.492 1_655 S
O61 C42 1.239 . S
O62 Nd40 2.487 . S
O62 C49 1.241 . S
O63 Nd40 2.682 . S
O63 Nd41 2.414 . S
O63 C49 1.273 . S
O64 Nd40 2.410 1_655 S
O64 C50 1.251 . S
O65 Nd41 2.424 1_655 S
O65 C50 1.268 . S
O66 Nd41 2.500 . S
O66 C51 1.258 . S
O67 Nd41 2.492 . S
O67 C51 1.239 . S
O68 Nd41 2.487 . S
O68 C58 1.241 . S
O69 Nd40 2.414 . S
O69 Nd41 2.682 . S
O69 C58 1.273 . S
O70 Nd41 2.410 . S
O70 C59 1.251 . S
O71 Nd40 2.424 . S
O71 C59 1.268 . S
H72 C44 0.930 . S
H73 C45 0.929 . S
H74 C47 0.930 . S
H75 C48 0.929 . S
H76 C53 0.930 . S
H77 C54 0.929 . S
H78 C56 0.930 . S
H79 C57 0.929 . S
Nd80 C82 2.836 . S
Nd80 O100 2.500 . S
Nd80 O101 2.492 . S
Nd80 O102 2.487 . S
Nd80 O103 2.682 . S
Nd80 O104 2.410 . S
Nd80 O109 2.414 . S
Nd80 O111 2.424 . S
Nd81 C91 2.836 . S
Nd81 O103 2.414 . S
Nd81 O105 2.424 . S
Nd81 O106 2.500 . S
Nd81 O107 2.492 . S
Nd81 O108 2.487 . S
Nd81 O109 2.682 . S
Nd81 O110 2.410 . S
C82 Nd80 2.836 . S
C82 C83 1.498 . S
C82 O100 1.258 . S
C82 O101 1.239 . S
C83 C82 1.498 . S
C83 C84 1.366 . S
C83 C88 1.407 . S
C84 C83 1.366 . S
C84 C85 1.392 . S
C84 H112 0.930 . S
C85 C84 1.392 . S
C85 C86 1.398 . S
C85 H113 0.929 . S
C86 C85 1.398 . S
C86 C87 1.352 . S
C87 C86 1.352 . S
C87 C88 1.384 . S
C87 H114 0.930 . S
C88 C83 1.407 . S
C88 C87 1.384 . S
C88 H115 0.929 . S
C89 O102 1.241 . S
C89 O103 1.273 . S
C90 O104 1.251 . S
C90 O105 1.268 . S
C91 Nd81 2.836 . S
C91 C92 1.498 . S
C91 O106 1.258 . S
C91 O107 1.239 . S
C92 C91 1.498 . S
C92 C93 1.366 . S
C92 C97 1.407 . S
C93 C92 1.366 . S
C93 C94 1.392 . S
C93 H116 0.930 . S
C94 C93 1.392 . S
C94 C95 1.398 . S
C94 H117 0.929 . S
C95 C94 1.398 . S
C95 C96 1.352 . S
C96 C95 1.352 . S
C96 C97 1.384 . S
C96 H118 0.930 . S
C97 C92 1.407 . S
C97 C96 1.384 . S
C97 H119 0.929 . S
C98 O108 1.241 . S
C98 O109 1.273 . S
C99 O110 1.251 . S
C99 O111 1.268 . S
O100 Nd80 2.500 . S
O100 C82 1.258 . S
O101 Nd80 2.492 . S
O101 C82 1.239 . S
O102 Nd80 2.487 . S
O102 C89 1.241 . S
O103 Nd80 2.682 . S
O103 Nd81 2.414 . S
O103 C89 1.273 . S
O104 Nd80 2.410 . S
O104 C90 1.251 . S
O105 Nd81 2.424 . S
O105 C90 1.268 . S
O106 Nd81 2.500 . S
O106 C91 1.258 . S
O107 Nd81 2.492 . S
O107 C91 1.239 . S
O108 Nd81 2.487 . S
O108 C98 1.241 . S
O109 Nd80 2.414 . S
O109 Nd81 2.682 . S
O109 C98 1.273 . S
O110 Nd81 2.410 . S
O110 C99 1.251 . S
O111 Nd80 2.424 . S
O111 C99 1.268 . S
H112 C84 0.930 . S
H113 C85 0.929 . S
H114 C87 0.930 . S
H115 C88 0.929 . S
H116 C93 0.930 . S
H117 C94 0.929 . S
H118 C96 0.930 . S
H119 C97 0.929 . S
Nd120 C122 2.836 . S
Nd120 O140 2.500 . S
Nd120 O141 2.492 . S
Nd120 O142 2.487 . S
Nd120 O143 2.682 1_455 S
Nd120 O144 2.410 . S
Nd120 O149 2.414 . S
Nd120 O151 2.424 1_455 S
Nd121 C131 2.836 . S
Nd121 O143 2.414 . S
Nd121 O145 2.424 1_655 S
Nd121 O146 2.500 . S
Nd121 O147 2.492 . S
Nd121 O148 2.487 . S
Nd121 O149 2.682 1_655 S
Nd121 O150 2.410 . S
C122 Nd120 2.836 . S
C122 C123 1.498 . S
C122 O140 1.258 . S
C122 O141 1.239 . S
C123 C122 1.498 . S
C123 C124 1.366 . S
C123 C128 1.407 . S
C124 C123 1.366 . S
C124 C125 1.392 . S
C124 H152 0.930 . S
C125 C124 1.392 . S
C125 C126 1.398 . S
C125 H153 0.929 . S
C126 C125 1.398 . S
C126 C127 1.352 . S
C127 C126 1.352 . S
C127 C128 1.384 . S
C127 H154 0.930 . S
C128 C123 1.407 . S
C128 C127 1.384 . S
C128 H155 0.929 . S
C129 O142 1.241 . S
C129 O143 1.273 1_455 S
C130 O144 1.251 . S
C130 O145 1.268 . S
C131 Nd121 2.836 . S
C131 C132 1.498 . S
C131 O146 1.258 . S
C131 O147 1.239 . S
C132 C131 1.498 . S
C132 C133 1.366 . S
C132 C137 1.407 . S
C133 C132 1.366 . S
C133 C134 1.392 . S
C133 H156 0.930 . S
C134 C133 1.392 . S
C134 C135 1.398 . S
C134 H157 0.929 . S
C135 C134 1.398 . S
C135 C136 1.352 . S
C136 C135 1.352 . S
C136 C137 1.384 . S
C136 H158 0.930 . S
C137 C132 1.407 . S
C137 C136 1.384 . S
C137 H159 0.929 . S
C138 O148 1.241 1_455 S
C138 O149 1.273 . S
C139 O150 1.251 . S
C139 O151 1.268 . S
O140 Nd120 2.500 . S
O140 C122 1.258 . S
O141 Nd120 2.492 . S
O141 C122 1.239 . S
O142 Nd120 2.487 . S
O142 C129 1.241 . S
O143 Nd120 2.682 1_655 S
O143 Nd121 2.414 . S
O143 C129 1.273 1_655 S
O144 Nd120 2.410 . S
O144 C130 1.251 . S
O145 Nd121 2.424 1_455 S
O145 C130 1.268 . S
O146 Nd121 2.500 . S
O146 C131 1.258 . S
O147 Nd121 2.492 . S
O147 C131 1.239 . S
O148 Nd121 2.487 . S
O148 C138 1.241 1_655 S
O149 Nd120 2.414 . S
O149 Nd121 2.682 1_455 S
O149 C138 1.273 . S
O150 Nd121 2.410 . S
O150 C139 1.251 . S
O151 Nd120 2.424 1_655 S
O151 C139 1.268 . S
H152 C124 0.930 . S
H153 C125 0.929 . S
H154 C127 0.930 . S
H155 C128 0.929 . S
H156 C133 0.930 . S
H157 C134 0.929 . S
H158 C136 0.930 . S
H159 C137 0.929 . S
Nd160 C162 2.836 . S
Nd160 O180 2.500 . S
Nd160 O181 2.492 . S
Nd160 O182 2.487 . S
Nd160 O183 2.682 . S
Nd160 O184 2.410 . S
Nd160 O189 2.414 . S
Nd160 O191 2.424 . S
Nd161 C171 2.836 . S
Nd161 O183 2.414 . S
Nd161 O185 2.424 . S
Nd161 O186 2.500 . S
Nd161 O187 2.492 . S
Nd161 O188 2.487 . S
Nd161 O189 2.682 . S
Nd161 O190 2.410 . S
C162 Nd160 2.836 . S
C162 C163 1.498 . S
C162 O180 1.258 . S
C162 O181 1.239 . S
C163 C162 1.498 . S
C163 C164 1.366 . S
C163 C168 1.407 . S
C164 C163 1.366 . S
C164 C165 1.392 . S
C164 H192 0.930 . S
C165 C164 1.392 . S
C165 C166 1.398 . S
C165 H193 0.929 . S
C166 C165 1.398 . S
C166 C167 1.352 . S
C167 C166 1.352 . S
C167 C168 1.384 . S
C167 H194 0.930 . S
C168 C163 1.407 . S
C168 C167 1.384 . S
C168 H195 0.929 . S
C169 O182 1.241 . S
C169 O183 1.273 . S
C170 O184 1.251 . S
C170 O185 1.268 . S
C171 Nd161 2.836 . S
C171 C172 1.498 . S
C171 O186 1.258 . S
C171 O187 1.239 . S
C172 C171 1.498 . S
C172 C173 1.366 . S
C172 C177 1.407 . S
C173 C172 1.366 . S
C173 C174 1.392 . S
C173 H196 0.930 . S
C174 C173 1.392 . S
C174 C175 1.398 . S
C174 H197 0.929 . S
C175 C174 1.398 . S
C175 C176 1.352 . S
C176 C175 1.352 . S
C176 C177 1.384 . S
C176 H198 0.930 . S
C177 C172 1.407 . S
C177 C176 1.384 . S
C177 H199 0.929 . S
C178 O188 1.241 . S
C178 O189 1.273 . S
C179 O190 1.251 . S
C179 O191 1.268 . S
O180 Nd160 2.500 . S
O180 C162 1.258 . S
O181 Nd160 2.492 . S
O181 C162 1.239 . S
O182 Nd160 2.487 . S
O182 C169 1.241 . S
O183 Nd160 2.682 . S
O183 Nd161 2.414 . S
O183 C169 1.273 . S
O184 Nd160 2.410 . S
O184 C170 1.251 . S
O185 Nd161 2.424 . S
O185 C170 1.268 . S
O186 Nd161 2.500 . S
O186 C171 1.258 . S
O187 Nd161 2.492 . S
O187 C171 1.239 . S
O188 Nd161 2.487 . S
O188 C178 1.241 . S
O189 Nd160 2.414 . S
O189 Nd161 2.682 . S
O189 C178 1.273 . S
O190 Nd161 2.410 . S
O190 C179 1.251 . S
O191 Nd160 2.424 . S
O191 C179 1.268 . S
H192 C164 0.930 . S
H193 C165 0.929 . S
H194 C167 0.930 . S
H195 C168 0.929 . S
H196 C173 0.930 . S
H197 C174 0.929 . S
H198 C176 0.930 . S
H199 C177 0.929 . S
Nd200 C202 2.836 1_545 S
Nd200 O220 2.500 1_545 S
Nd200 O221 2.492 1_545 S
Nd200 O222 2.487 . S
Nd200 O223 2.682 . S
Nd200 O224 2.410 1_545 S
Nd200 O229 2.414 . S
Nd200 O231 2.424 . S
Nd201 C211 2.836 . S
Nd201 O223 2.414 . S
Nd201 O225 2.424 1_545 S
Nd201 O226 2.500 . S
Nd201 O227 2.492 . S
Nd201 O228 2.487 . S
Nd201 O229 2.682 . S
Nd201 O230 2.410 . S
C202 Nd200 2.836 1_565 S
C202 C203 1.498 . S
C202 O220 1.258 . S
C202 O221 1.239 . S
C203 C202 1.498 . S
C203 C204 1.366 . S
C203 C208 1.407 . S
C204 C203 1.366 . S
C204 C205 1.392 . S
C204 H232 0.930 . S
C205 C204 1.392 . S
C205 C206 1.398 . S
C205 H233 0.929 . S
C206 C205 1.398 . S
C206 C207 1.352 . S
C207 C206 1.352 . S
C207 C208 1.384 . S
C207 H234 0.930 . S
C208 C203 1.407 . S
C208 C207 1.384 . S
C208 H235 0.929 . S
C209 O222 1.241 . S
C209 O223 1.273 . S
C210 O224 1.251 . S
C210 O225 1.268 . S
C211 Nd201 2.836 . S
C211 C212 1.498 . S
C211 O226 1.258 . S
C211 O227 1.239 . S
C212 C211 1.498 . S
C212 C213 1.366 . S
C212 C217 1.407 . S
C213 C212 1.366 . S
C213 C214 1.392 . S
C213 H236 0.930 . S
C214 C213 1.392 . S
C214 C215 1.398 . S
C214 H237 0.929 . S
C215 C214 1.398 . S
C215 C216 1.352 . S
C216 C215 1.352 . S
C216 C217 1.384 . S
C216 H238 0.930 . S
C217 C212 1.407 . S
C217 C216 1.384 . S
C217 H239 0.929 . S
C218 O228 1.241 . S
C218 O229 1.273 . S
C219 O230 1.251 . S
C219 O231 1.268 . S
O220 Nd200 2.500 1_565 S
O220 C202 1.258 . S
O221 Nd200 2.492 1_565 S
O221 C202 1.239 . S
O222 Nd200 2.487 . S
O222 C209 1.241 . S
O223 Nd200 2.682 . S
O223 Nd201 2.414 . S
O223 C209 1.273 . S
O224 Nd200 2.410 1_565 S
O224 C210 1.251 . S
O225 Nd201 2.424 1_565 S
O225 C210 1.268 . S
O226 Nd201 2.500 . S
O226 C211 1.258 . S
O227 Nd201 2.492 . S
O227 C211 1.239 . S
O228 Nd201 2.487 . S
O228 C218 1.241 . S
O229 Nd200 2.414 . S
O229 Nd201 2.682 . S
O229 C218 1.273 . S
O230 Nd201 2.410 . S
O230 C219 1.251 . S
O231 Nd200 2.424 . S
O231 C219 1.268 . S
H232 C204 0.930 . S
H233 C205 0.929 . S
H234 C207 0.930 . S
H235 C208 0.929 . S
H236 C213 0.930 . S
H237 C214 0.929 . S
H238 C216 0.930 . S
H239 C217 0.929 . S
Nd240 C242 2.836 . S
Nd240 O260 2.500 . S
Nd240 O261 2.492 . S
Nd240 O262 2.487 . S
Nd240 O263 2.682 . S
Nd240 O264 2.410 . S
Nd240 O269 2.414 . S
Nd240 O271 2.424 . S
Nd241 C251 2.836 . S
Nd241 O263 2.414 . S
Nd241 O265 2.424 . S
Nd241 O266 2.500 . S
Nd241 O267 2.492 . S
Nd241 O268 2.487 . S
Nd241 O269 2.682 . S
Nd241 O270 2.410 . S
C242 Nd240 2.836 . S
C242 C243 1.498 . S
C242 O260 1.258 . S
C242 O261 1.239 . S
C243 C242 1.498 . S
C243 C244 1.366 . S
C243 C248 1.407 . S
C244 C243 1.366 . S
C244 C245 1.392 . S
C244 H272 0.930 . S
C245 C244 1.392 . S
C245 C246 1.398 . S
C245 H273 0.929 . S
C246 C245 1.398 . S
C246 C247 1.352 . S
C247 C246 1.352 . S
C247 C248 1.384 . S
C247 H274 0.930 . S
C248 C243 1.407 . S
C248 C247 1.384 . S
C248 H275 0.929 . S
C249 O262 1.241 . S
C249 O263 1.273 . S
C250 O264 1.251 . S
C250 O265 1.268 . S
C251 Nd241 2.836 . S
C251 C252 1.498 . S
C251 O266 1.258 . S
C251 O267 1.239 . S
C252 C251 1.498 . S
C252 C253 1.366 . S
C252 C257 1.407 . S
C253 C252 1.366 . S
C253 C254 1.392 . S
C253 H276 0.930 . S
C254 C253 1.392 . S
C254 C255 1.398 . S
C254 H277 0.929 . S
C255 C254 1.398 . S
C255 C256 1.352 . S
C256 C255 1.352 . S
C256 C257 1.384 . S
C256 H278 0.930 . S
C257 C252 1.407 . S
C257 C256 1.384 . S
C257 H279 0.929 . S
C258 O268 1.241 . S
C258 O269 1.273 . S
C259 O270 1.251 . S
C259 O271 1.268 . S
O260 Nd240 2.500 . S
O260 C242 1.258 . S
O261 Nd240 2.492 . S
O261 C242 1.239 . S
O262 Nd240 2.487 . S
O262 C249 1.241 . S
O263 Nd240 2.682 . S
O263 Nd241 2.414 . S
O263 C249 1.273 . S
O264 Nd240 2.410 . S
O264 C250 1.251 . S
O265 Nd241 2.424 . S
O265 C250 1.268 . S
O266 Nd241 2.500 . S
O266 C251 1.258 . S
O267 Nd241 2.492 . S
O267 C251 1.239 . S
O268 Nd241 2.487 . S
O268 C258 1.241 . S
O269 Nd240 2.414 . S
O269 Nd241 2.682 . S
O269 C258 1.273 . S
O270 Nd241 2.410 . S
O270 C259 1.251 . S
O271 Nd240 2.424 . S
O271 C259 1.268 . S
H272 C244 0.930 . S
H273 C245 0.929 . S
H274 C247 0.930 . S
H275 C248 0.929 . S
H276 C253 0.930 . S
H277 C254 0.929 . S
H278 C256 0.930 . S
H279 C257 0.929 . S
Nd280 C282 2.836 . S
Nd280 O300 2.500 . S
Nd280 O301 2.492 . S
Nd280 O302 2.487 . S
Nd280 O303 2.682 . S
Nd280 O304 2.410 . S
Nd280 O309 2.414 . S
Nd280 O311 2.424 . S
Nd281 C291 2.836 . S
Nd281 O303 2.414 . S
Nd281 O305 2.424 . S
Nd281 O306 2.500 . S
Nd281 O307 2.492 . S
Nd281 O308 2.487 . S
Nd281 O309 2.682 . S
Nd281 O310 2.410 . S
C282 Nd280 2.836 . S
C282 C283 1.498 . S
C282 O300 1.258 . S
C282 O301 1.239 . S
C283 C282 1.498 . S
C283 C284 1.366 . S
C283 C288 1.407 . S
C284 C283 1.366 . S
C284 C285 1.392 . S
C284 H312 0.930 . S
C285 C284 1.392 . S
C285 C286 1.398 . S
C285 H313 0.929 . S
C286 C285 1.398 . S
C286 C287 1.352 . S
C287 C286 1.352 . S
C287 C288 1.384 . S
C287 H314 0.930 . S
C288 C283 1.407 . S
C288 C287 1.384 . S
C288 H315 0.929 . S
C289 O302 1.241 . S
C289 O303 1.273 . S
C290 O304 1.251 . S
C290 O305 1.268 . S
C291 Nd281 2.836 . S
C291 C292 1.498 . S
C291 O306 1.258 . S
C291 O307 1.239 . S
C292 C291 1.498 . S
C292 C293 1.366 . S
C292 C297 1.407 . S
C293 C292 1.366 . S
C293 C294 1.392 . S
C293 H316 0.930 . S
C294 C293 1.392 . S
C294 C295 1.398 1_565 S
C294 H317 0.929 . S
C295 C294 1.398 1_545 S
C295 C296 1.352 . S
C296 C295 1.352 . S
C296 C297 1.384 1_545 S
C296 H318 0.930 . S
C297 C292 1.407 . S
C297 C296 1.384 1_565 S
C297 H319 0.929 . S
C298 O308 1.241 . S
C298 O309 1.273 . S
C299 O310 1.251 . S
C299 O311 1.268 . S
O300 Nd280 2.500 . S
O300 C282 1.258 . S
O301 Nd280 2.492 . S
O301 C282 1.239 . S
O302 Nd280 2.487 . S
O302 C289 1.241 . S
O303 Nd280 2.682 . S
O303 Nd281 2.414 . S
O303 C289 1.273 . S
O304 Nd280 2.410 . S
O304 C290 1.251 . S
O305 Nd281 2.424 . S
O305 C290 1.268 . S
O306 Nd281 2.500 . S
O306 C291 1.258 . S
O307 Nd281 2.492 . S
O307 C291 1.239 . S
O308 Nd281 2.487 . S
O308 C298 1.241 . S
O309 Nd280 2.414 . S
O309 Nd281 2.682 . S
O309 C298 1.273 . S
O310 Nd281 2.410 . S
O310 C299 1.251 . S
O311 Nd280 2.424 . S
O311 C299 1.268 . S
H312 C284 0.930 . S
H313 C285 0.929 . S
H314 C287 0.930 . S
H315 C288 0.929 . S
H316 C293 0.930 . S
H317 C294 0.929 . S
H318 C296 0.930 . S
H319 C297 0.929 . S
Nd320 C322 2.836 . S
Nd320 O340 2.500 . S
Nd320 O341 2.492 . S
Nd320 O342 2.487 . S
Nd320 O343 2.682 . S
Nd320 O344 2.410 . S
Nd320 O349 2.414 . S
Nd320 O351 2.424 . S
Nd321 C331 2.836 . S
Nd321 O343 2.414 . S
Nd321 O345 2.424 . S
Nd321 O346 2.500 . S
Nd321 O347 2.492 . S
Nd321 O348 2.487 . S
Nd321 O349 2.682 . S
Nd321 O350 2.410 . S
C322 Nd320 2.836 . S
C322 C323 1.498 . S
C322 O340 1.258 . S
C322 O341 1.239 . S
C323 C322 1.498 . S
C323 C324 1.366 . S
C323 C328 1.407 . S
C324 C323 1.366 . S
C324 C325 1.392 . S
C324 H352 0.930 . S
C325 C324 1.392 . S
C325 C326 1.398 . S
C325 H353 0.929 . S
C326 C325 1.398 . S
C326 C327 1.352 . S
C327 C326 1.352 . S
C327 C328 1.384 . S
C327 H354 0.930 . S
C328 C323 1.407 . S
C328 C327 1.384 . S
C328 H355 0.929 . S
C329 O342 1.241 . S
C329 O343 1.273 . S
C330 O344 1.251 . S
C330 O345 1.268 . S
C331 Nd321 2.836 . S
C331 C332 1.498 . S
C331 O346 1.258 . S
C331 O347 1.239 . S
C332 C331 1.498 . S
C332 C333 1.366 . S
C332 C337 1.407 . S
C333 C332 1.366 . S
C333 C334 1.392 . S
C333 H356 0.930 . S
C334 C333 1.392 . S
C334 C335 1.398 . S
C334 H357 0.929 . S
C335 C334 1.398 . S
C335 C336 1.352 . S
C336 C335 1.352 . S
C336 C337 1.384 . S
C336 H358 0.930 1_455 S
C337 C332 1.407 . S
C337 C336 1.384 . S
C337 H359 0.929 . S
C338 O348 1.241 . S
C338 O349 1.273 . S
C339 O350 1.251 . S
C339 O351 1.268 . S
O340 Nd320 2.500 . S
O340 C322 1.258 . S
O341 Nd320 2.492 . S
O341 C322 1.239 . S
O342 Nd320 2.487 . S
O342 C329 1.241 . S
O343 Nd320 2.682 . S
O343 Nd321 2.414 . S
O343 C329 1.273 . S
O344 Nd320 2.410 . S
O344 C330 1.251 . S
O345 Nd321 2.424 . S
O345 C330 1.268 . S
O346 Nd321 2.500 . S
O346 C331 1.258 . S
O347 Nd321 2.492 . S
O347 C331 1.239 . S
O348 Nd321 2.487 . S
O348 C338 1.241 . S
O349 Nd320 2.414 . S
O349 Nd321 2.682 . S
O349 C338 1.273 . S
O350 Nd321 2.410 . S
O350 C339 1.251 . S
O351 Nd320 2.424 . S
O351 C339 1.268 . S
H352 C324 0.930 . S
H353 C325 0.929 . S
H354 C327 0.930 . S
H355 C328 0.929 . S
H356 C333 0.930 . S
H357 C334 0.929 . S
H358 C336 0.930 1_655 S
H359 C337 0.929 . S
Nd360 C362 2.836 . S
Nd360 O380 2.500 . S
Nd360 O381 2.492 . S
Nd360 O382 2.487 . S
Nd360 O383 2.682 . S
Nd360 O384 2.410 . S
Nd360 O389 2.414 . S
Nd360 O391 2.424 . S
Nd361 C371 2.836 . S
Nd361 O383 2.414 . S
Nd361 O385 2.424 . S
Nd361 O386 2.500 . S
Nd361 O387 2.492 . S
Nd361 O388 2.487 . S
Nd361 O389 2.682 . S
Nd361 O390 2.410 . S
C362 Nd360 2.836 . S
C362 C363 1.498 . S
C362 O380 1.258 . S
C362 O381 1.239 . S
C363 C362 1.498 . S
C363 C364 1.366 . S
C363 C368 1.407 . S
C364 C363 1.366 . S
C364 C365 1.392 . S
C364 H392 0.930 . S
C365 C364 1.392 . S
C365 C366 1.398 . S
C365 H393 0.929 . S
C366 C365 1.398 . S
C366 C367 1.352 . S
C367 C366 1.352 . S
C367 C368 1.384 . S
C367 H394 0.930 . S
C368 C363 1.407 . S
C368 C367 1.384 . S
C368 H395 0.929 . S
C369 O382 1.241 . S
C369 O383 1.273 . S
C370 O384 1.251 . S
C370 O385 1.268 . S
C371 Nd361 2.836 . S
C371 C372 1.498 . S
C371 O386 1.258 . S
C371 O387 1.239 . S
C372 C371 1.498 . S
C372 C373 1.366 . S
C372 C377 1.407 . S
C373 C372 1.366 . S
C373 C374 1.392 . S
C373 H396 0.930 . S
C374 C373 1.392 . S
C374 C375 1.398 . S
C374 H397 0.929 . S
C375 C374 1.398 . S
C375 C376 1.352 . S
C376 C375 1.352 . S
C376 C377 1.384 . S
C376 H398 0.930 . S
C377 C372 1.407 . S
C377 C376 1.384 . S
C377 H399 0.929 . S
C378 O388 1.241 . S
C378 O389 1.273 . S
C379 O390 1.251 . S
C379 O391 1.268 . S
O380 Nd360 2.500 . S
O380 C362 1.258 . S
O381 Nd360 2.492 . S
O381 C362 1.239 . S
O382 Nd360 2.487 . S
O382 C369 1.241 . S
O383 Nd360 2.682 . S
O383 Nd361 2.414 . S
O383 C369 1.273 . S
O384 Nd360 2.410 . S
O384 C370 1.251 . S
O385 Nd361 2.424 . S
O385 C370 1.268 . S
O386 Nd361 2.500 . S
O386 C371 1.258 . S
O387 Nd361 2.492 . S
O387 C371 1.239 . S
O388 Nd361 2.487 . S
O388 C378 1.241 . S
O389 Nd360 2.414 . S
O389 Nd361 2.682 . S
O389 C378 1.273 . S
O390 Nd361 2.410 . S
O390 C379 1.251 . S
O391 Nd360 2.424 . S
O391 C379 1.268 . S
H392 C364 0.930 . S
H393 C365 0.929 . S
H394 C367 0.930 . S
H395 C368 0.929 . S
H396 C373 0.930 . S
H397 C374 0.929 . S
H398 C376 0.930 . S
H399 C377 0.929 . S
Nd400 C402 2.836 . S
Nd400 O420 2.500 . S
Nd400 O421 2.492 . S
Nd400 O422 2.487 . S
Nd400 O423 2.682 . S
Nd400 O424 2.410 . S
Nd400 O429 2.414 . S
Nd400 O431 2.424 . S
Nd401 C411 2.836 . S
Nd401 O423 2.414 . S
Nd401 O425 2.424 . S
Nd401 O426 2.500 . S
Nd401 O427 2.492 . S
Nd401 O428 2.487 . S
Nd401 O429 2.682 . S
Nd401 O430 2.410 . S
C402 Nd400 2.836 . S
C402 C403 1.498 1_565 S
C402 O420 1.258 . S
C402 O421 1.239 . S
C403 C402 1.498 1_545 S
C403 C404 1.366 . S
C403 C408 1.407 . S
C404 C403 1.366 . S
C404 C405 1.392 . S
C404 H432 0.930 1_545 S
C405 C404 1.392 . S
C405 C406 1.398 . S
C405 H433 0.929 . S
C406 C405 1.398 . S
C406 C407 1.352 . S
C407 C406 1.352 . S
C407 C408 1.384 . S
C407 H434 0.930 . S
C408 C403 1.407 . S
C408 C407 1.384 . S
C408 H435 0.929 . S
C409 O422 1.241 . S
C409 O423 1.273 . S
C410 O424 1.251 . S
C410 O425 1.268 . S
C411 Nd401 2.836 . S
C411 C412 1.498 . S
C411 O426 1.258 . S
C411 O427 1.239 . S
C412 C411 1.498 . S
C412 C413 1.366 . S
C412 C417 1.407 . S
C413 C412 1.366 . S
C413 C414 1.392 . S
C413 H436 0.930 . S
C414 C413 1.392 . S
C414 C415 1.398 . S
C414 H437 0.929 . S
C415 C414 1.398 . S
C415 C416 1.352 . S
C416 C415 1.352 . S
C416 C417 1.384 . S
C416 H438 0.930 . S
C417 C412 1.407 . S
C417 C416 1.384 . S
C417 H439 0.929 . S
C418 O428 1.241 . S
C418 O429 1.273 . S
C419 O430 1.251 . S
C419 O431 1.268 . S
O420 Nd400 2.500 . S
O420 C402 1.258 . S
O421 Nd400 2.492 . S
O421 C402 1.239 . S
O422 Nd400 2.487 . S
O422 C409 1.241 . S
O423 Nd400 2.682 . S
O423 Nd401 2.414 . S
O423 C409 1.273 . S
O424 Nd400 2.410 . S
O424 C410 1.251 . S
O425 Nd401 2.424 . S
O425 C410 1.268 . S
O426 Nd401 2.500 . S
O426 C411 1.258 . S
O427 Nd401 2.492 . S
O427 C411 1.239 . S
O428 Nd401 2.487 . S
O428 C418 1.241 . S
O429 Nd400 2.414 . S
O429 Nd401 2.682 . S
O429 C418 1.273 . S
O430 Nd401 2.410 . S
O430 C419 1.251 . S
O431 Nd400 2.424 . S
O431 C419 1.268 . S
H432 C404 0.930 1_565 S
H433 C405 0.929 . S
H434 C407 0.930 . S
H435 C408 0.929 . S
H436 C413 0.930 . S
H437 C414 0.929 . S
H438 C416 0.930 . S
H439 C417 0.929 . S
Nd440 C442 2.836 . S
Nd440 O460 2.500 . S
Nd440 O461 2.492 . S
Nd440 O462 2.487 . S
Nd440 O463 2.682 . S
Nd440 O464 2.410 . S
Nd440 O469 2.414 . S
Nd440 O471 2.424 . S
Nd441 C451 2.836 . S
Nd441 O463 2.414 . S
Nd441 O465 2.424 . S
Nd441 O466 2.500 . S
Nd441 O467 2.492 . S
Nd441 O468 2.487 . S
Nd441 O469 2.682 . S
Nd441 O470 2.410 . S
C442 Nd440 2.836 . S
C442 C443 1.498 . S
C442 O460 1.258 . S
C442 O461 1.239 . S
C443 C442 1.498 . S
C443 C444 1.366 . S
C443 C448 1.407 1_455 S
C444 C443 1.366 . S
C444 C445 1.392 1_455 S
C444 H472 0.930 . S
C445 C444 1.392 1_655 S
C445 C446 1.398 . S
C445 H473 0.929 . S
C446 C445 1.398 . S
C446 C447 1.352 . S
C447 C446 1.352 . S
C447 C448 1.384 . S
C447 H474 0.930 . S
C448 C443 1.407 1_655 S
C448 C447 1.384 . S
C448 H475 0.929 . S
C449 O462 1.241 . S
C449 O463 1.273 . S
C450 O464 1.251 . S
C450 O465 1.268 . S
C451 Nd441 2.836 . S
C451 C452 1.498 . S
C451 O466 1.258 . S
C451 O467 1.239 . S
C452 C451 1.498 . S
C452 C453 1.366 . S
C452 C457 1.407 . S
C453 C452 1.366 . S
C453 C454 1.392 . S
C453 H476 0.930 . S
C454 C453 1.392 . S
C454 C455 1.398 . S
C454 H477 0.929 . S
C455 C454 1.398 . S
C455 C456 1.352 . S
C456 C455 1.352 . S
C456 C457 1.384 . S
C456 H478 0.930 . S
C457 C452 1.407 . S
C457 C456 1.384 . S
C457 H479 0.929 . S
C458 O468 1.241 . S
C458 O469 1.273 . S
C459 O470 1.251 . S
C459 O471 1.268 . S
O460 Nd440 2.500 . S
O460 C442 1.258 . S
O461 Nd440 2.492 . S
O461 C442 1.239 . S
O462 Nd440 2.487 . S
O462 C449 1.241 . S
O463 Nd440 2.682 . S
O463 Nd441 2.414 . S
O463 C449 1.273 . S
O464 Nd440 2.410 . S
O464 C450 1.251 . S
O465 Nd441 2.424 . S
O465 C450 1.268 . S
O466 Nd441 2.500 . S
O466 C451 1.258 . S
O467 Nd441 2.492 . S
O467 C451 1.239 . S
O468 Nd441 2.487 . S
O468 C458 1.241 . S
O469 Nd440 2.414 . S
O469 Nd441 2.682 . S
O469 C458 1.273 . S
O470 Nd441 2.410 . S
O470 C459 1.251 . S
O471 Nd440 2.424 . S
O471 C459 1.268 . S
H472 C444 0.930 . S
H473 C445 0.929 . S
H474 C447 0.930 . S
H475 C448 0.929 . S
H476 C453 0.930 . S
H477 C454 0.929 . S
H478 C456 0.930 . S
H479 C457 0.929 . S
Nd480 C482 2.836 . S
Nd480 O500 2.500 . S
Nd480 O501 2.492 . S
Nd480 O502 2.487 . S
Nd480 O503 2.682 . S
Nd480 O504 2.410 . S
Nd480 O509 2.414 . S
Nd480 O511 2.424 . S
Nd481 C491 2.836 . S
Nd481 O503 2.414 . S
Nd481 O505 2.424 . S
Nd481 O506 2.500 . S
Nd481 O507 2.492 . S
Nd481 O508 2.487 . S
Nd481 O509 2.682 . S
Nd481 O510 2.410 . S
C482 Nd480 2.836 . S
C482 C483 1.498 . S
C482 O500 1.258 . S
C482 O501 1.239 . S
C483 C482 1.498 . S
C483 C484 1.366 . S
C483 C488 1.407 . S
C484 C483 1.366 . S
C484 C485 1.392 . S
C484 H512 0.930 . S
C485 C484 1.392 . S
C485 C486 1.398 . S
C485 H513 0.929 . S
C486 C485 1.398 . S
C486 C487 1.352 . S
C487 C486 1.352 . S
C487 C488 1.384 . S
C487 H514 0.930 . S
C488 C483 1.407 . S
C488 C487 1.384 . S
C488 H515 0.929 . S
C489 O502 1.241 . S
C489 O503 1.273 . S
C490 O504 1.251 . S
C490 O505 1.268 . S
C491 Nd481 2.836 . S
C491 C492 1.498 . S
C491 O506 1.258 . S
C491 O507 1.239 . S
C492 C491 1.498 . S
C492 C493 1.366 . S
C492 C497 1.407 . S
C493 C492 1.366 . S
C493 C494 1.392 . S
C493 H516 0.930 . S
C494 C493 1.392 . S
C494 C495 1.398 . S
C494 H517 0.929 . S
C495 C494 1.398 . S
C495 C496 1.352 . S
C496 C495 1.352 . S
C496 C497 1.384 . S
C496 H518 0.930 . S
C497 C492 1.407 . S
C497 C496 1.384 . S
C497 H519 0.929 . S
C498 O508 1.241 . S
C498 O509 1.273 . S
C499 O510 1.251 . S
C499 O511 1.268 . S
O500 Nd480 2.500 . S
O500 C482 1.258 . S
O501 Nd480 2.492 . S
O501 C482 1.239 . S
O502 Nd480 2.487 . S
O502 C489 1.241 . S
O503 Nd480 2.682 . S
O503 Nd481 2.414 . S
O503 C489 1.273 . S
O504 Nd480 2.410 . S
O504 C490 1.251 . S
O505 Nd481 2.424 . S
O505 C490 1.268 . S
O506 Nd481 2.500 . S
O506 C491 1.258 . S
O507 Nd481 2.492 . S
O507 C491 1.239 . S
O508 Nd481 2.487 . S
O508 C498 1.241 . S
O509 Nd480 2.414 . S
O509 Nd481 2.682 . S
O509 C498 1.273 . S
O510 Nd481 2.410 . S
O510 C499 1.251 . S
O511 Nd480 2.424 . S
O511 C499 1.268 . S
H512 C484 0.930 . S
H513 C485 0.929 . S
H514 C487 0.930 . S
H515 C488 0.929 . S
H516 C493 0.930 . S
H517 C494 0.929 . S
H518 C496 0.930 . S
H519 C497 0.929 . S
Nd520 C522 2.836 . S
Nd520 O540 2.500 . S
Nd520 O541 2.492 . S
Nd520 O542 2.487 . S
Nd520 O543 2.682 . S
Nd520 O544 2.410 . S
Nd520 O549 2.414 . S
Nd520 O551 2.424 . S
Nd521 C531 2.836 . S
Nd521 O543 2.414 . S
Nd521 O545 2.424 . S
Nd521 O546 2.500 . S
Nd521 O547 2.492 . S
Nd521 O548 2.487 . S
Nd521 O549 2.682 . S
Nd521 O550 2.410 . S
C522 Nd520 2.836 . S
C522 C523 1.498 . S
C522 O540 1.258 . S
C522 O541 1.239 . S
C523 C522 1.498 . S
C523 C524 1.366 . S
C523 C528 1.407 1_545 S
C524 C523 1.366 . S
C524 C525 1.392 1_545 S
C524 H552 0.930 . S
C525 C524 1.392 1_565 S
C525 C526 1.398 . S
C525 H553 0.929 . S
C526 C525 1.398 . S
C526 C527 1.352 . S
C527 C526 1.352 . S
C527 C528 1.384 . S
C527 H554 0.930 . S
C528 C523 1.407 1_565 S
C528 C527 1.384 . S
C528 H555 0.929 . S
C529 O542 1.241 . S
C529 O543 1.273 . S
C530 O544 1.251 . S
C530 O545 1.268 . S
C531 Nd521 2.836 . S
C531 C532 1.498 . S
C531 O546 1.258 . S
C531 O547 1.239 . S
C532 C531 1.498 . S
C532 C533 1.366 . S
C532 C537 1.407 . S
C533 C532 1.366 . S
C533 C534 1.392 . S
C533 H556 0.930 . S
C534 C533 1.392 . S
C534 C535 1.398 . S
C534 H557 0.929 . S
C535 C534 1.398 . S
C535 C536 1.352 . S
C536 C535 1.352 . S
C536 C537 1.384 . S
C536 H558 0.930 . S
C537 C532 1.407 . S
C537 C536 1.384 . S
C537 H559 0.929 . S
C538 O548 1.241 . S
C538 O549 1.273 . S
C539 O550 1.251 . S
C539 O551 1.268 . S
O540 Nd520 2.500 . S
O540 C522 1.258 . S
O541 Nd520 2.492 . S
O541 C522 1.239 . S
O542 Nd520 2.487 . S
O542 C529 1.241 . S
O543 Nd520 2.682 . S
O543 Nd521 2.414 . S
O543 C529 1.273 . S
O544 Nd520 2.410 . S
O544 C530 1.251 . S
O545 Nd521 2.424 . S
O545 C530 1.268 . S
O546 Nd521 2.500 . S
O546 C531 1.258 . S
O547 Nd521 2.492 . S
O547 C531 1.239 . S
O548 Nd521 2.487 . S
O548 C538 1.241 . S
O549 Nd520 2.414 . S
O549 Nd521 2.682 . S
O549 C538 1.273 . S
O550 Nd521 2.410 . S
O550 C539 1.251 . S
O551 Nd520 2.424 . S
O551 C539 1.268 . S
H552 C524 0.930 . S
H553 C525 0.929 . S
H554 C527 0.930 . S
H555 C528 0.929 . S
H556 C533 0.930 . S
H557 C534 0.929 . S
H558 C536 0.930 . S
H559 C537 0.929 . S
Nd560 C562 2.836 . S
Nd560 O580 2.500 . S
Nd560 O581 2.492 . S
Nd560 O582 2.487 . S
Nd560 O583 2.682 . S
Nd560 O584 2.410 . S
Nd560 O589 2.414 . S
Nd560 O591 2.424 . S
Nd561 C571 2.836 . S
Nd561 O583 2.414 . S
Nd561 O585 2.424 . S
Nd561 O586 2.500 . S
Nd561 O587 2.492 . S
Nd561 O588 2.487 . S
Nd561 O589 2.682 . S
Nd561 O590 2.410 . S
C562 Nd560 2.836 . S
C562 C563 1.498 1_655 S
C562 O580 1.258 . S
C562 O581 1.239 . S
C563 C562 1.498 1_455 S
C563 C564 1.366 . S
C563 C568 1.407 . S
C564 C563 1.366 . S
C564 C565 1.392 . S
C564 H592 0.930 1_455 S
C565 C564 1.392 . S
C565 C566 1.398 . S
C565 H593 0.929 . S
C566 C565 1.398 . S
C566 C567 1.352 . S
C567 C566 1.352 . S
C567 C568 1.384 . S
C567 H594 0.930 . S
C568 C563 1.407 . S
C568 C567 1.384 . S
C568 H595 0.929 . S
C569 O582 1.241 . S
C569 O583 1.273 . S
C570 O584 1.251 . S
C570 O585 1.268 . S
C571 Nd561 2.836 . S
C571 C572 1.498 . S
C571 O586 1.258 . S
C571 O587 1.239 . S
C572 C571 1.498 . S
C572 C573 1.366 . S
C572 C577 1.407 . S
C573 C572 1.366 . S
C573 C574 1.392 . S
C573 H596 0.930 . S
C574 C573 1.392 . S
C574 C575 1.398 . S
C574 H597 0.929 . S
C575 C574 1.398 . S
C575 C576 1.352 . S
C576 C575 1.352 . S
C576 C577 1.384 . S
C576 H598 0.930 . S
C577 C572 1.407 . S
C577 C576 1.384 . S
C577 H599 0.929 . S
C578 O588 1.241 . S
C578 O589 1.273 . S
C579 O590 1.251 . S
C579 O591 1.268 . S
O580 Nd560 2.500 . S
O580 C562 1.258 . S
O581 Nd560 2.492 . S
O581 C562 1.239 . S
O582 Nd560 2.487 . S
O582 C569 1.241 . S
O583 Nd560 2.682 . S
O583 Nd561 2.414 . S
O583 C569 1.273 . S
O584 Nd560 2.410 . S
O584 C570 1.251 . S
O585 Nd561 2.424 . S
O585 C570 1.268 . S
O586 Nd561 2.500 . S
O586 C571 1.258 . S
O587 Nd561 2.492 . S
O587 C571 1.239 . S
O588 Nd561 2.487 . S
O588 C578 1.241 . S
O589 Nd560 2.414 . S
O589 Nd561 2.682 . S
O589 C578 1.273 . S
O590 Nd561 2.410 . S
O590 C579 1.251 . S
O591 Nd560 2.424 . S
O591 C579 1.268 . S
H592 C564 0.930 1_655 S
H593 C565 0.929 . S
H594 C567 0.930 . S
H595 C568 0.929 . S
H596 C573 0.930 . S
H597 C574 0.929 . S
H598 C576 0.930 . S
H599 C577 0.929 . S
Nd600 C602 2.836 . S
Nd600 O620 2.500 . S
Nd600 O621 2.492 . S
Nd600 O622 2.487 . S
Nd600 O623 2.682 . S
Nd600 O624 2.410 . S
Nd600 O629 2.414 . S
Nd600 O631 2.424 . S
Nd601 C611 2.836 . S
Nd601 O623 2.414 . S
Nd601 O625 2.424 . S
Nd601 O626 2.500 . S
Nd601 O627 2.492 . S
Nd601 O628 2.487 . S
Nd601 O629 2.682 . S
Nd601 O630 2.410 . S
C602 Nd600 2.836 . S
C602 C603 1.498 . S
C602 O620 1.258 . S
C602 O621 1.239 . S
C603 C602 1.498 . S
C603 C604 1.366 . S
C603 C608 1.407 . S
C604 C603 1.366 . S
C604 C605 1.392 . S
C604 H632 0.930 . S
C605 C604 1.392 . S
C605 C606 1.398 . S
C605 H633 0.929 . S
C606 C605 1.398 . S
C606 C607 1.352 . S
C607 C606 1.352 . S
C607 C608 1.384 . S
C607 H634 0.930 . S
C608 C603 1.407 . S
C608 C607 1.384 . S
C608 H635 0.929 . S
C609 O622 1.241 . S
C609 O623 1.273 . S
C610 O624 1.251 . S
C610 O625 1.268 . S
C611 Nd601 2.836 . S
C611 C612 1.498 . S
C611 O626 1.258 . S
C611 O627 1.239 . S
C612 C611 1.498 . S
C612 C613 1.366 . S
C612 C617 1.407 . S
C613 C612 1.366 . S
C613 C614 1.392 . S
C613 H636 0.930 . S
C614 C613 1.392 . S
C614 C615 1.398 . S
C614 H637 0.929 . S
C615 C614 1.398 . S
C615 C616 1.352 . S
C616 C615 1.352 . S
C616 C617 1.384 . S
C616 H638 0.930 . S
C617 C612 1.407 . S
C617 C616 1.384 . S
C617 H639 0.929 . S
C618 O628 1.241 . S
C618 O629 1.273 . S
C619 O630 1.251 . S
C619 O631 1.268 . S
O620 Nd600 2.500 . S
O620 C602 1.258 . S
O621 Nd600 2.492 . S
O621 C602 1.239 . S
O622 Nd600 2.487 . S
O622 C609 1.241 . S
O623 Nd600 2.682 . S
O623 Nd601 2.414 . S
O623 C609 1.273 . S
O624 Nd600 2.410 . S
O624 C610 1.251 . S
O625 Nd601 2.424 . S
O625 C610 1.268 . S
O626 Nd601 2.500 . S
O626 C611 1.258 . S
O627 Nd601 2.492 . S
O627 C611 1.239 . S
O628 Nd601 2.487 . S
O628 C618 1.241 . S
O629 Nd600 2.414 . S
O629 Nd601 2.682 . S
O629 C618 1.273 . S
O630 Nd601 2.410 . S
O630 C619 1.251 . S
O631 Nd600 2.424 . S
O631 C619 1.268 . S
H632 C604 0.930 . S
H633 C605 0.929 . S
H634 C607 0.930 . S
H635 C608 0.929 . S
H636 C613 0.930 . S
H637 C614 0.929 . S
H638 C616 0.930 . S
H639 C617 0.929 . S
Nd640 C642 2.836 . S
Nd640 O660 2.500 . S
Nd640 O661 2.492 . S
Nd640 O662 2.487 . S
Nd640 O663 2.682 . S
Nd640 O664 2.410 . S
Nd640 O669 2.414 . S
Nd640 O671 2.424 . S
Nd641 C651 2.836 . S
Nd641 O663 2.414 . S
Nd641 O665 2.424 . S
Nd641 O666 2.500 . S
Nd641 O667 2.492 . S
Nd641 O668 2.487 . S
Nd641 O669 2.682 . S
Nd641 O670 2.410 . S
C642 Nd640 2.836 . S
C642 C643 1.498 . S
C642 O660 1.258 . S
C642 O661 1.239 . S
C643 C642 1.498 . S
C643 C644 1.366 . S
C643 C648 1.407 . S
C644 C643 1.366 . S
C644 C645 1.392 . S
C644 H672 0.930 . S
C645 C644 1.392 . S
C645 C646 1.398 . S
C645 H673 0.929 . S
C646 C645 1.398 . S
C646 C647 1.352 . S
C647 C646 1.352 . S
C647 C648 1.384 . S
C647 H674 0.930 . S
C648 C643 1.407 . S
C648 C647 1.384 . S
C648 H675 0.929 . S
C649 O662 1.241 . S
C649 O663 1.273 . S
C650 O664 1.251 . S
C650 O665 1.268 . S
C651 Nd641 2.836 . S
C651 C652 1.498 . S
C651 O666 1.258 . S
C651 O667 1.239 . S
C652 C651 1.498 . S
C652 C653 1.366 . S
C652 C657 1.407 . S
C653 C652 1.366 . S
C653 C654 1.392 . S
C653 H676 0.930 . S
C654 C653 1.392 . S
C654 C655 1.398 . S
C654 H677 0.929 . S
C655 C654 1.398 . S
C655 C656 1.352 . S
C656 C655 1.352 . S
C656 C657 1.384 . S
C656 H678 0.930 1_545 S
C657 C652 1.407 . S
C657 C656 1.384 . S
C657 H679 0.929 . S
C658 O668 1.241 . S
C658 O669 1.273 . S
C659 O670 1.251 . S
C659 O671 1.268 . S
O660 Nd640 2.500 . S
O660 C642 1.258 . S
O661 Nd640 2.492 . S
O661 C642 1.239 . S
O662 Nd640 2.487 . S
O662 C649 1.241 . S
O663 Nd640 2.682 . S
O663 Nd641 2.414 . S
O663 C649 1.273 . S
O664 Nd640 2.410 . S
O664 C650 1.251 . S
O665 Nd641 2.424 . S
O665 C650 1.268 . S
O666 Nd641 2.500 . S
O666 C651 1.258 . S
O667 Nd641 2.492 . S
O667 C651 1.239 . S
O668 Nd641 2.487 . S
O668 C658 1.241 . S
O669 Nd640 2.414 . S
O669 Nd641 2.682 . S
O669 C658 1.273 . S
O670 Nd641 2.410 . S
O670 C659 1.251 . S
O671 Nd640 2.424 . S
O671 C659 1.268 . S
H672 C644 0.930 . S
H673 C645 0.929 . S
H674 C647 0.930 . S
H675 C648 0.929 . S
H676 C653 0.930 . S
H677 C654 0.929 . S
H678 C656 0.930 1_565 S
H679 C657 0.929 . S
Nd680 C682 2.836 . S
Nd680 O700 2.500 . S
Nd680 O701 2.492 . S
Nd680 O702 2.487 . S
Nd680 O703 2.682 . S
Nd680 O704 2.410 . S
Nd680 O709 2.414 . S
Nd680 O711 2.424 . S
Nd681 C691 2.836 . S
Nd681 O703 2.414 . S
Nd681 O705 2.424 . S
Nd681 O706 2.500 . S
Nd681 O707 2.492 . S
Nd681 O708 2.487 . S
Nd681 O709 2.682 . S
Nd681 O710 2.410 . S
C682 Nd680 2.836 . S
C682 C683 1.498 . S
C682 O700 1.258 . S
C682 O701 1.239 . S
C683 C682 1.498 . S
C683 C684 1.366 . S
C683 C688 1.407 . S
C684 C683 1.366 . S
C684 C685 1.392 . S
C684 H712 0.930 . S
C685 C684 1.392 . S
C685 C686 1.398 . S
C685 H713 0.929 . S
C686 C685 1.398 . S
C686 C687 1.352 . S
C687 C686 1.352 . S
C687 C688 1.384 . S
C687 H714 0.930 . S
C688 C683 1.407 . S
C688 C687 1.384 . S
C688 H715 0.929 . S
C689 O702 1.241 . S
C689 O703 1.273 . S
C690 O704 1.251 . S
C690 O705 1.268 . S
C691 Nd681 2.836 . S
C691 C692 1.498 . S
C691 O706 1.258 . S
C691 O707 1.239 . S
C692 C691 1.498 . S
C692 C693 1.366 . S
C692 C697 1.407 . S
C693 C692 1.366 . S
C693 C694 1.392 . S
C693 H716 0.930 . S
C694 C693 1.392 . S
C694 C695 1.398 1_655 S
C694 H717 0.929 . S
C695 C694 1.398 1_455 S
C695 C696 1.352 . S
C696 C695 1.352 . S
C696 C697 1.384 1_455 S
C696 H718 0.930 . S
C697 C692 1.407 . S
C697 C696 1.384 1_655 S
C697 H719 0.929 . S
C698 O708 1.241 . S
C698 O709 1.273 . S
C699 O710 1.251 . S
C699 O711 1.268 . S
O700 Nd680 2.500 . S
O700 C682 1.258 . S
O701 Nd680 2.492 . S
O701 C682 1.239 . S
O702 Nd680 2.487 . S
O702 C689 1.241 . S
O703 Nd680 2.682 . S
O703 Nd681 2.414 . S
O703 C689 1.273 . S
O704 Nd680 2.410 . S
O704 C690 1.251 . S
O705 Nd681 2.424 . S
O705 C690 1.268 . S
O706 Nd681 2.500 . S
O706 C691 1.258 . S
O707 Nd681 2.492 . S
O707 C691 1.239 . S
O708 Nd681 2.487 . S
O708 C698 1.241 . S
O709 Nd680 2.414 . S
O709 Nd681 2.682 . S
O709 C698 1.273 . S
O710 Nd681 2.410 . S
O710 C699 1.251 . S
O711 Nd680 2.424 . S
O711 C699 1.268 . S
H712 C684 0.930 . S
H713 C685 0.929 . S
H714 C687 0.930 . S
H715 C688 0.929 . S
H716 C693 0.930 . S
H717 C694 0.929 . S
H718 C696 0.930 . S
H719 C697 0.929 . S
C720 C721 1.391 . S
C720 C722 1.394 . S
C720 H736 0.931 . S
C721 C720 1.391 . S
C721 C725 1.376 . S
C722 C720 1.394 . S
C722 C723 1.369 . S
C722 C726 1.531 . S
C723 C722 1.369 . S
C723 C724 1.410 . S
C723 C731 1.503 . S
C724 C723 1.410 . S
C724 C725 1.392 . S
C724 C727 1.511 . S
C725 C721 1.376 . S
C725 C724 1.392 . S
C725 H737 0.929 . S
C726 C722 1.531 . S
C726 H738 0.960 . S
C726 H739 0.962 . S
C726 H740 0.960 . S
C727 C724 1.511 . S
C727 H741 0.961 . S
C727 H742 0.961 . S
C727 H743 0.961 . S
C728 C729 1.370 . S
C728 C730 1.363 . S
C728 H744 0.931 . S
C729 C728 1.370 . S
C729 C733 1.408 . S
C730 C728 1.363 . S
C730 C731 1.370 . S
C730 C734 1.524 . S
C731 C723 1.503 . S
C731 C730 1.370 . S
C731 C732 1.403 . S
C732 C731 1.403 . S
C732 C733 1.404 . S
C732 C735 1.539 . S
C733 C729 1.408 . S
C733 C732 1.404 . S
C733 H745 0.930 . S
C734 C730 1.524 . S
C734 H746 0.956 . S
C734 H747 0.961 . S
C734 H748 0.961 . S
C735 C732 1.539 . S
C735 H749 0.958 . S
C735 H750 0.961 . S
C735 H751 0.960 . S
H736 C720 0.931 . S
H737 C725 0.929 . S
H738 C726 0.960 . S
H739 C726 0.962 . S
H740 C726 0.960 . S
H741 C727 0.961 . S
H742 C727 0.961 . S
H743 C727 0.961 . S
H744 C728 0.931 . S
H745 C733 0.930 . S
H746 C734 0.956 . S
H747 C734 0.961 . S
H748 C734 0.961 . S
H749 C735 0.958 . S
H750 C735 0.961 . S
H751 C735 0.960 . S
C752 C753 1.391 . S
C752 C754 1.394 . S
C752 H768 0.931 . S
C753 C752 1.391 . S
C753 C757 1.376 . S
C754 C752 1.394 . S
C754 C755 1.369 . S
C754 C758 1.531 . S
C755 C754 1.369 . S
C755 C756 1.410 . S
C755 C763 1.503 . S
C756 C755 1.410 . S
C756 C757 1.392 . S
C756 C759 1.511 . S
C757 C753 1.376 . S
C757 C756 1.392 . S
C757 H769 0.929 . S
C758 C754 1.531 . S
C758 H770 0.960 . S
C758 H771 0.962 . S
C758 H772 0.960 . S
C759 C756 1.511 . S
C759 H773 0.961 . S
C759 H774 0.961 . S
C759 H775 0.961 . S
C760 C761 1.370 . S
C760 C762 1.363 . S
C760 H776 0.931 . S
C761 C760 1.370 . S
C761 C765 1.408 . S
C762 C760 1.363 . S
C762 C763 1.370 . S
C762 C766 1.524 . S
C763 C755 1.503 . S
C763 C762 1.370 . S
C763 C764 1.403 . S
C764 C763 1.403 . S
C764 C765 1.404 . S
C764 C767 1.539 . S
C765 C761 1.408 . S
C765 C764 1.404 . S
C765 H777 0.930 . S
C766 C762 1.524 . S
C766 H778 0.956 . S
C766 H779 0.961 . S
C766 H780 0.961 . S
C767 C764 1.539 . S
C767 H781 0.958 . S
C767 H782 0.961 . S
C767 H783 0.960 . S
H768 C752 0.931 . S
H769 C757 0.929 . S
H770 C758 0.960 . S
H771 C758 0.962 . S
H772 C758 0.960 . S
H773 C759 0.961 . S
H774 C759 0.961 . S
H775 C759 0.961 . S
H776 C760 0.931 . S
H777 C765 0.930 . S
H778 C766 0.956 . S
H779 C766 0.961 . S
H780 C766 0.961 . S
H781 C767 0.958 . S
H782 C767 0.961 . S
H783 C767 0.960 . S
C784 C785 1.391 . S
C784 C786 1.394 . S
C784 H800 0.931 . S
C785 C784 1.391 . S
C785 C789 1.376 . S
C786 C784 1.394 . S
C786 C787 1.369 . S
C786 C790 1.531 . S
C787 C786 1.369 . S
C787 C788 1.410 . S
C787 C795 1.503 . S
C788 C787 1.410 . S
C788 C789 1.392 . S
C788 C791 1.511 . S
C789 C785 1.376 . S
C789 C788 1.392 . S
C789 H801 0.929 . S
C790 C786 1.531 . S
C790 H802 0.960 . S
C790 H803 0.962 . S
C790 H804 0.960 . S
C791 C788 1.511 . S
C791 H805 0.961 . S
C791 H806 0.961 . S
C791 H807 0.961 . S
C792 C793 1.370 . S
C792 C794 1.363 . S
C792 H808 0.931 . S
C793 C792 1.370 . S
C793 C797 1.408 . S
C794 C792 1.363 . S
C794 C795 1.370 . S
C794 C798 1.524 . S
C795 C787 1.503 . S
C795 C794 1.370 . S
C795 C796 1.403 . S
C796 C795 1.403 . S
C796 C797 1.404 . S
C796 C799 1.539 . S
C797 C793 1.408 . S
C797 C796 1.404 . S
C797 H809 0.930 . S
C798 C794 1.524 . S
C798 H810 0.956 . S
C798 H811 0.961 . S
C798 H812 0.961 . S
C799 C796 1.539 . S
C799 H813 0.958 . S
C799 H814 0.961 . S
C799 H815 0.960 . S
H800 C784 0.931 . S
H801 C789 0.929 . S
H802 C790 0.960 . S
H803 C790 0.962 . S
H804 C790 0.960 . S
H805 C791 0.961 . S
H806 C791 0.961 . S
H807 C791 0.961 . S
H808 C792 0.931 . S
H809 C797 0.930 . S
H810 C798 0.956 . S
H811 C798 0.961 . S
H812 C798 0.961 . S
H813 C799 0.958 . S
H814 C799 0.961 . S
H815 C799 0.960 . S
C816 C817 1.391 . S
C816 C818 1.394 . S
C816 H832 0.931 . S
C817 C816 1.391 . S
C817 C821 1.376 . S
C818 C816 1.394 . S
C818 C819 1.369 . S
C818 C822 1.531 . S
C819 C818 1.369 . S
C819 C820 1.410 . S
C819 C827 1.503 . S
C820 C819 1.410 . S
C820 C821 1.392 . S
C820 C823 1.511 . S
C821 C817 1.376 . S
C821 C820 1.392 . S
C821 H833 0.929 . S
C822 C818 1.531 . S
C822 H834 0.960 . S
C822 H835 0.962 . S
C822 H836 0.960 . S
C823 C820 1.511 . S
C823 H837 0.961 . S
C823 H838 0.961 . S
C823 H839 0.961 . S
C824 C825 1.370 . S
C824 C826 1.363 . S
C824 H840 0.931 . S
C825 C824 1.370 . S
C825 C829 1.408 . S
C826 C824 1.363 . S
C826 C827 1.370 . S
C826 C830 1.524 . S
C827 C819 1.503 . S
C827 C826 1.370 . S
C827 C828 1.403 . S
C828 C827 1.403 . S
C828 C829 1.404 . S
C828 C831 1.539 . S
C829 C825 1.408 . S
C829 C828 1.404 . S
C829 H841 0.930 . S
C830 C826 1.524 . S
C830 H842 0.956 . S
C830 H843 0.961 . S
C830 H844 0.961 . S
C831 C828 1.539 . S
C831 H845 0.958 . S
C831 H846 0.961 . S
C831 H847 0.960 . S
H832 C816 0.931 . S
H833 C821 0.929 . S
H834 C822 0.960 . S
H835 C822 0.962 . S
H836 C822 0.960 . S
H837 C823 0.961 . S
H838 C823 0.961 . S
H839 C823 0.961 . S
H840 C824 0.931 . S
H841 C829 0.930 . S
H842 C830 0.956 . S
H843 C830 0.961 . S
H844 C830 0.961 . S
H845 C831 0.958 . S
H846 C831 0.961 . S
H847 C831 0.960 . S
C848 C849 1.391 . S
C848 C850 1.394 . S
C848 H864 0.931 . S
C849 C848 1.391 . S
C849 C853 1.376 . S
C850 C848 1.394 . S
C850 C851 1.369 . S
C850 C854 1.531 . S
C851 C850 1.369 . S
C851 C852 1.410 . S
C851 C859 1.503 . S
C852 C851 1.410 . S
C852 C853 1.392 . S
C852 C855 1.511 . S
C853 C849 1.376 . S
C853 C852 1.392 . S
C853 H865 0.929 . S
C854 C850 1.531 . S
C854 H866 0.960 . S
C854 H867 0.962 . S
C854 H868 0.960 . S
C855 C852 1.511 . S
C855 H869 0.961 . S
C855 H870 0.961 . S
C855 H871 0.961 . S
C856 C857 1.370 . S
C856 C858 1.363 . S
C856 H872 0.931 . S
C857 C856 1.370 . S
C857 C861 1.408 . S
C858 C856 1.363 . S
C858 C859 1.370 . S
C858 C862 1.524 . S
C859 C851 1.503 . S
C859 C858 1.370 . S
C859 C860 1.403 . S
C860 C859 1.403 . S
C860 C861 1.404 . S
C860 C863 1.539 . S
C861 C857 1.408 . S
C861 C860 1.404 . S
C861 H873 0.930 . S
C862 C858 1.524 . S
C862 H874 0.956 . S
C862 H875 0.961 . S
C862 H876 0.961 . S
C863 C860 1.539 . S
C863 H877 0.958 . S
C863 H878 0.961 . S
C863 H879 0.960 . S
H864 C848 0.931 . S
H865 C853 0.929 . S
H866 C854 0.960 . S
H867 C854 0.962 . S
H868 C854 0.960 . S
H869 C855 0.961 . S
H870 C855 0.961 . S
H871 C855 0.961 . S
H872 C856 0.931 . S
H873 C861 0.930 . S
H874 C862 0.956 . S
H875 C862 0.961 . S
H876 C862 0.961 . S
H877 C863 0.958 . S
H878 C863 0.961 . S
H879 C863 0.960 . S
C880 C881 1.391 . S
C880 C882 1.394 . S
C880 H896 0.931 . S
C881 C880 1.391 . S
C881 C885 1.376 . S
C882 C880 1.394 . S
C882 C883 1.369 . S
C882 C886 1.531 . S
C883 C882 1.369 . S
C883 C884 1.410 . S
C883 C891 1.503 . S
C884 C883 1.410 . S
C884 C885 1.392 . S
C884 C887 1.511 . S
C885 C881 1.376 . S
C885 C884 1.392 . S
C885 H897 0.929 . S
C886 C882 1.531 . S
C886 H898 0.960 . S
C886 H899 0.962 . S
C886 H900 0.960 . S
C887 C884 1.511 . S
C887 H901 0.961 . S
C887 H902 0.961 . S
C887 H903 0.961 . S
C888 C889 1.370 . S
C888 C890 1.363 . S
C888 H904 0.931 . S
C889 C888 1.370 . S
C889 C893 1.408 . S
C890 C888 1.363 . S
C890 C891 1.370 . S
C890 C894 1.524 . S
C891 C883 1.503 . S
C891 C890 1.370 . S
C891 C892 1.403 . S
C892 C891 1.403 . S
C892 C893 1.404 . S
C892 C895 1.539 . S
C893 C889 1.408 . S
C893 C892 1.404 . S
C893 H905 0.930 . S
C894 C890 1.524 . S
C894 H906 0.956 . S
C894 H907 0.961 . S
C894 H908 0.961 . S
C895 C892 1.539 . S
C895 H909 0.958 . S
C895 H910 0.961 . S
C895 H911 0.960 . S
H896 C880 0.931 . S
H897 C885 0.929 . S
H898 C886 0.960 . S
H899 C886 0.962 . S
H900 C886 0.960 . S
H901 C887 0.961 . S
H902 C887 0.961 . S
H903 C887 0.961 . S
H904 C888 0.931 . S
H905 C893 0.930 . S
H906 C894 0.956 . S
H907 C894 0.961 . S
H908 C894 0.961 . S
H909 C895 0.958 . S
H910 C895 0.961 . S
H911 C895 0.960 . S
C912 C913 1.391 . S
C912 C914 1.394 1_565 S
C912 H928 0.931 . S
C913 C912 1.391 . S
C913 C917 1.376 . S
C914 C912 1.394 1_545 S
C914 C915 1.369 . S
C914 C918 1.531 . S
C915 C914 1.369 . S
C915 C916 1.410 . S
C915 C923 1.503 . S
C916 C915 1.410 . S
C916 C917 1.392 1_545 S
C916 C919 1.511 . S
C917 C913 1.376 . S
C917 C916 1.392 1_565 S
C917 H929 0.929 . S
C918 C914 1.531 . S
C918 H930 0.960 . S
C918 H931 0.962 . S
C918 H932 0.960 . S
C919 C916 1.511 . S
C919 H933 0.961 . S
C919 H934 0.961 . S
C919 H935 0.961 . S
C920 C921 1.370 . S
C920 C922 1.363 . S
C920 H936 0.931 . S
C921 C920 1.370 . S
C921 C925 1.408 . S
C922 C920 1.363 . S
C922 C923 1.370 . S
C922 C926 1.523 1_545 S
C923 C915 1.503 . S
C923 C922 1.370 . S
C923 C924 1.403 . S
C924 C923 1.403 . S
C924 C925 1.404 . S
C924 C927 1.539 . S
C925 C921 1.408 . S
C925 C924 1.404 . S
C925 H937 0.930 . S
C926 C922 1.523 1_565 S
C926 H938 0.957 . S
C926 H939 0.962 . S
C926 H940 0.960 . S
C927 C924 1.539 . S
C927 H941 0.958 . S
C927 H942 0.961 . S
C927 H943 0.960 . S
H928 C912 0.931 . S
H929 C917 0.929 . S
H930 C918 0.960 . S
H931 C918 0.962 . S
H932 C918 0.960 . S
H933 C919 0.961 . S
H934 C919 0.961 . S
H935 C919 0.961 . S
H936 C920 0.931 . S
H937 C925 0.930 . S
H938 C926 0.957 . S
H939 C926 0.962 . S
H940 C926 0.960 . S
H941 C927 0.958 . S
H942 C927 0.961 . S
H943 C927 0.960 . S
C944 C945 1.391 . S
C944 C946 1.394 . S
C944 H960 0.931 . S
C945 C944 1.391 . S
C945 C949 1.376 . S
C946 C944 1.394 . S
C946 C947 1.369 . S
C946 C950 1.531 . S
C947 C946 1.369 . S
C947 C948 1.392 1_455 S
C947 C955 1.503 1_455 S
C948 C947 1.392 1_655 S
C948 C949 1.386 1_655 S
C948 C951 1.535 . S
C949 C945 1.376 . S
C949 C948 1.386 1_455 S
C949 H961 0.929 . S
C950 C946 1.531 . S
C950 H962 0.960 . S
C950 H963 0.962 . S
C950 H964 0.960 . S
C951 C948 1.535 . S
C951 H965 0.961 . S
C951 H966 0.961 . S
C951 H967 0.961 . S
C952 C953 1.370 . S
C952 C954 1.363 . S
C952 H968 0.931 . S
C953 C952 1.370 . S
C953 C957 1.408 . S
C954 C952 1.363 . S
C954 C955 1.370 . S
C954 C958 1.536 . S
C955 C947 1.503 1_655 S
C955 C954 1.370 . S
C955 C956 1.403 . S
C956 C955 1.403 . S
C956 C957 1.404 . S
C956 C959 1.539 . S
C957 C953 1.408 . S
C957 C956 1.404 . S
C957 H969 0.930 . S
C958 C954 1.536 . S
C958 H970 0.930 1_655 S
C958 H971 0.976 . S
C958 H972 0.960 . S
C959 C956 1.539 . S
C959 H973 0.958 . S
C959 H974 0.961 . S
C959 H975 0.960 . S
H960 C944 0.931 . S
H961 C949 0.929 . S
H962 C950 0.960 . S
H963 C950 0.962 . S
H964 C950 0.960 . S
H965 C951 0.961 . S
H966 C951 0.961 . S
H967 C951 0.961 . S
H968 C952 0.931 . S
H969 C957 0.930 . S
H970 C958 0.930 1_455 S
H971 C958 0.976 . S
H972 C958 0.960 . S
H973 C959 0.958 . S
H974 C959 0.961 . S
H975 C959 0.960 . S
C976 C977 1.391 . S
C976 C978 1.394 . S
C976 H992 0.931 . S
C977 C976 1.391 . S
C977 C981 1.376 . S
C978 C976 1.394 . S
C978 C979 1.369 . S
C978 C982 1.531 . S
C979 C978 1.369 . S
C979 C980 1.410 . S
C979 C987 1.503 . S
C980 C979 1.410 . S
C980 C981 1.392 . S
C980 C983 1.511 . S
C981 C977 1.376 . S
C981 C980 1.392 . S
C981 H993 0.929 . S
C982 C978 1.531 . S
C982 H994 0.960 . S
C982 H995 0.962 . S
C982 H996 0.960 . S
C983 C980 1.511 . S
C983 H997 0.961 . S
C983 H998 0.961 . S
C983 H999 0.961 . S
C984 C985 1.370 . S
C984 C986 1.363 . S
C984 H1000 0.931 . S
C985 C984 1.370 . S
C985 C989 1.408 . S
C986 C984 1.363 . S
C986 C987 1.370 . S
C986 C990 1.524 . S
C987 C979 1.503 . S
C987 C986 1.370 . S
C987 C988 1.403 . S
C988 C987 1.403 . S
C988 C989 1.404 . S
C988 C991 1.539 . S
C989 C985 1.408 . S
C989 C988 1.404 . S
C989 H1001 0.930 . S
C990 C986 1.524 . S
C990 H1002 0.956 . S
C990 H1003 0.961 . S
C990 H1004 0.961 . S
C991 C988 1.539 . S
C991 H1005 0.958 . S
C991 H1006 0.961 . S
C991 H1007 0.960 . S
H992 C976 0.931 . S
H993 C981 0.929 . S
H994 C982 0.960 . S
H995 C982 0.962 . S
H996 C982 0.960 . S
H997 C983 0.961 . S
H998 C983 0.961 . S
H999 C983 0.961 . S
H1000 C984 0.931 . S
H1001 C989 0.930 . S
H1002 C990 0.956 . S
H1003 C990 0.961 . S
H1004 C990 0.961 . S
H1005 C991 0.958 . S
H1006 C991 0.961 . S
H1007 C991 0.960 . S
C1008 C1009 1.391 . S
C1008 C1010 1.394 . S
C1008 H1024 0.931 . S
C1009 C1008 1.391 . S
C1009 C1013 1.376 . S
C1010 C1008 1.394 . S
C1010 C1011 1.369 . S
C1010 C1014 1.531 . S
C1011 C1010 1.369 . S
C1011 C1012 1.410 . S
C1011 C1019 1.503 . S
C1012 C1011 1.410 . S
C1012 C1013 1.392 . S
C1012 C1015 1.511 . S
C1013 C1009 1.376 . S
C1013 C1012 1.392 . S
C1013 H1025 0.929 . S
C1014 C1010 1.531 . S
C1014 H1026 0.960 . S
C1014 H1027 0.962 . S
C1014 H1028 0.960 . S
C1015 C1012 1.511 . S
C1015 H1029 0.961 . S
C1015 H1030 0.961 . S
C1015 H1031 0.961 . S
C1016 C1017 1.370 . S
C1016 C1018 1.363 . S
C1016 H1032 0.931 . S
C1017 C1016 1.370 . S
C1017 C1021 1.408 . S
C1018 C1016 1.363 . S
C1018 C1019 1.370 . S
C1018 C1022 1.524 . S
C1019 C1011 1.503 . S
C1019 C1018 1.370 . S
C1019 C1020 1.403 . S
C1020 C1019 1.403 . S
C1020 C1021 1.404 . S
C1020 C1023 1.539 . S
C1021 C1017 1.408 . S
C1021 C1020 1.404 . S
C1021 H1033 0.930 . S
C1022 C1018 1.524 . S
C1022 H1034 0.956 . S
C1022 H1035 0.961 . S
C1022 H1036 0.961 . S
C1023 C1020 1.539 . S
C1023 H1037 0.958 . S
C1023 H1038 0.961 . S
C1023 H1039 0.960 . S
H1024 C1008 0.931 . S
H1025 C1013 0.929 . S
H1026 C1014 0.960 . S
H1027 C1014 0.962 . S
H1028 C1014 0.960 . S
H1029 C1015 0.961 . S
H1030 C1015 0.961 . S
H1031 C1015 0.961 . S
H1032 C1016 0.931 . S
H1033 C1021 0.930 . S
H1034 C1022 0.956 . S
H1035 C1022 0.961 . S
H1036 C1022 0.961 . S
H1037 C1023 0.958 . S
H1038 C1023 0.961 . S
H1039 C1023 0.960 . S
C1040 C1041 1.391 . S
C1040 C1042 1.394 . S
C1040 H1056 0.931 . S
C1041 C1040 1.391 . S
C1041 C1045 1.376 . S
C1042 C1040 1.394 . S
C1042 C1043 1.369 . S
C1042 C1046 1.531 . S
C1043 C1042 1.369 . S
C1043 C1044 1.410 . S
C1043 C1051 1.503 . S
C1044 C1043 1.410 . S
C1044 C1045 1.392 . S
C1044 C1047 1.511 . S
C1045 C1041 1.376 . S
C1045 C1044 1.392 . S
C1045 H1057 0.929 . S
C1046 C1042 1.531 . S
C1046 H1058 0.960 . S
C1046 H1059 0.962 . S
C1046 H1060 0.960 . S
C1047 C1044 1.511 . S
C1047 H1061 0.961 . S
C1047 H1062 0.961 . S
C1047 H1063 0.961 . S
C1048 C1049 1.370 . S
C1048 C1050 1.363 . S
C1048 H1064 0.931 . S
C1049 C1048 1.370 . S
C1049 C1053 1.408 . S
C1050 C1048 1.363 . S
C1050 C1051 1.370 . S
C1050 C1054 1.524 . S
C1051 C1043 1.503 . S
C1051 C1050 1.370 . S
C1051 C1052 1.403 . S
C1052 C1051 1.403 . S
C1052 C1053 1.404 . S
C1052 C1055 1.539 . S
C1053 C1049 1.408 . S
C1053 C1052 1.404 . S
C1053 H1065 0.930 . S
C1054 C1050 1.524 . S
C1054 H1066 0.956 . S
C1054 H1067 0.961 . S
C1054 H1068 0.961 . S
C1055 C1052 1.539 . S
C1055 H1069 0.958 . S
C1055 H1070 0.961 . S
C1055 H1071 0.960 . S
H1056 C1040 0.931 . S
H1057 C1045 0.929 . S
H1058 C1046 0.960 . S
H1059 C1046 0.962 . S
H1060 C1046 0.960 . S
H1061 C1047 0.961 . S
H1062 C1047 0.961 . S
H1063 C1047 0.961 . S
H1064 C1048 0.931 . S
H1065 C1053 0.930 . S
H1066 C1054 0.956 . S
H1067 C1054 0.961 . S
H1068 C1054 0.961 . S
H1069 C1055 0.958 . S
H1070 C1055 0.961 . S
H1071 C1055 0.960 . S
C1072 C1073 1.391 . S
C1072 C1074 1.394 . S
C1072 H1088 0.931 . S
C1073 C1072 1.391 . S
C1073 C1077 1.376 . S
C1074 C1072 1.394 . S
C1074 C1075 1.369 . S
C1074 C1078 1.531 . S
C1075 C1074 1.369 . S
C1075 C1076 1.410 . S
C1075 C1083 1.503 . S
C1076 C1075 1.410 . S
C1076 C1077 1.392 . S
C1076 C1079 1.511 . S
C1077 C1073 1.376 . S
C1077 C1076 1.392 . S
C1077 H1089 0.929 . S
C1078 C1074 1.531 . S
C1078 H1090 0.960 . S
C1078 H1091 0.962 . S
C1078 H1092 0.960 . S
C1079 C1076 1.511 . S
C1079 H1093 0.961 . S
C1079 H1094 0.961 . S
C1079 H1095 0.961 . S
C1080 C1081 1.370 . S
C1080 C1082 1.363 . S
C1080 H1096 0.931 . S
C1081 C1080 1.370 . S
C1081 C1085 1.408 . S
C1082 C1080 1.363 . S
C1082 C1083 1.370 . S
C1082 C1086 1.524 . S
C1083 C1075 1.503 . S
C1083 C1082 1.370 . S
C1083 C1084 1.403 . S
C1084 C1083 1.403 . S
C1084 C1085 1.404 . S
C1084 C1087 1.539 . S
C1085 C1081 1.408 . S
C1085 C1084 1.404 . S
C1085 H1097 0.930 . S
C1086 C1082 1.524 . S
C1086 H1098 0.956 . S
C1086 H1099 0.961 . S
C1086 H1100 0.961 . S
C1087 C1084 1.539 . S
C1087 H1101 0.958 . S
C1087 H1102 0.961 . S
C1087 H1103 0.960 . S
H1088 C1072 0.931 . S
H1089 C1077 0.929 . S
H1090 C1078 0.960 . S
H1091 C1078 0.962 . S
H1092 C1078 0.960 . S
H1093 C1079 0.961 . S
H1094 C1079 0.961 . S
H1095 C1079 0.961 . S
H1096 C1080 0.931 . S
H1097 C1085 0.930 . S
H1098 C1086 0.956 . S
H1099 C1086 0.961 . S
H1100 C1086 0.961 . S
H1101 C1087 0.958 . S
H1102 C1087 0.961 . S
H1103 C1087 0.960 . S
C1104 C1105 1.391 . S
C1104 C1106 1.394 . S
C1104 H1120 0.931 . S
C1105 C1104 1.391 . S
C1105 C1109 1.376 . S
C1106 C1104 1.394 . S
C1106 C1107 1.369 . S
C1106 C1110 1.531 . S
C1107 C1106 1.369 . S
C1107 C1108 1.410 . S
C1107 C1115 1.503 . S
C1108 C1107 1.410 . S
C1108 C1109 1.392 . S
C1108 C1111 1.511 . S
C1109 C1105 1.376 . S
C1109 C1108 1.392 . S
C1109 H1121 0.929 . S
C1110 C1106 1.531 . S
C1110 H1122 0.960 . S
C1110 H1123 0.962 . S
C1110 H1124 0.960 . S
C1111 C1108 1.511 . S
C1111 H1125 0.961 . S
C1111 H1126 0.961 . S
C1111 H1127 0.961 . S
C1112 C1113 1.370 . S
C1112 C1114 1.363 . S
C1112 H1128 0.931 . S
C1113 C1112 1.370 . S
C1113 C1117 1.408 . S
C1114 C1112 1.363 . S
C1114 C1115 1.370 . S
C1114 C1118 1.524 . S
C1115 C1107 1.503 . S
C1115 C1114 1.370 . S
C1115 C1116 1.403 . S
C1116 C1115 1.403 . S
C1116 C1117 1.404 . S
C1116 C1119 1.539 . S
C1117 C1113 1.408 . S
C1117 C1116 1.404 . S
C1117 H1129 0.930 . S
C1118 C1114 1.524 . S
C1118 H1130 0.956 . S
C1118 H1131 0.961 . S
C1118 H1132 0.961 . S
C1119 C1116 1.539 . S
C1119 H1133 0.958 . S
C1119 H1134 0.961 . S
C1119 H1135 0.960 . S
H1120 C1104 0.931 . S
H1121 C1109 0.929 . S
H1122 C1110 0.960 . S
H1123 C1110 0.962 . S
H1124 C1110 0.960 . S
H1125 C1111 0.961 . S
H1126 C1111 0.961 . S
H1127 C1111 0.961 . S
H1128 C1112 0.931 . S
H1129 C1117 0.930 . S
H1130 C1118 0.956 . S
H1131 C1118 0.961 . S
H1132 C1118 0.961 . S
H1133 C1119 0.958 . S
H1134 C1119 0.961 . S
H1135 C1119 0.960 . S
C1136 C1137 1.391 . S
C1136 C1138 1.394 . S
C1136 H1152 0.931 . S
C1137 C1136 1.391 . S
C1137 C1141 1.376 . S
C1138 C1136 1.394 . S
C1138 C1139 1.369 . S
C1138 C1142 1.531 . S
C1139 C1138 1.369 . S
C1139 C1140 1.410 . S
C1139 C1147 1.503 . S
C1140 C1139 1.410 . S
C1140 C1141 1.392 . S
C1140 C1143 1.511 . S
C1141 C1137 1.376 . S
C1141 C1140 1.392 . S
C1141 H1153 0.929 . S
C1142 C1138 1.531 . S
C1142 H1154 0.960 . S
C1142 H1155 0.962 . S
C1142 H1156 0.960 . S
C1143 C1140 1.511 . S
C1143 H1157 0.961 . S
C1143 H1158 0.961 . S
C1143 H1159 0.961 . S
C1144 C1145 1.370 . S
C1144 C1146 1.363 . S
C1144 H1160 0.931 . S
C1145 C1144 1.370 . S
C1145 C1149 1.408 . S
C1146 C1144 1.363 . S
C1146 C1147 1.370 . S
C1146 C1150 1.524 . S
C1147 C1139 1.503 . S
C1147 C1146 1.370 . S
C1147 C1148 1.403 . S
C1148 C1147 1.403 . S
C1148 C1149 1.404 . S
C1148 C1151 1.539 . S
C1149 C1145 1.408 . S
C1149 C1148 1.404 . S
C1149 H1161 0.930 . S
C1150 C1146 1.524 . S
C1150 H1162 0.956 . S
C1150 H1163 0.961 . S
C1150 H1164 0.961 . S
C1151 C1148 1.539 . S
C1151 H1165 0.958 . S
C1151 H1166 0.961 . S
C1151 H1167 0.960 . S
H1152 C1136 0.931 . S
H1153 C1141 0.929 . S
H1154 C1142 0.960 . S
H1155 C1142 0.962 . S
H1156 C1142 0.960 . S
H1157 C1143 0.961 . S
H1158 C1143 0.961 . S
H1159 C1143 0.961 . S
H1160 C1144 0.931 . S
H1161 C1149 0.930 . S
H1162 C1150 0.956 . S
H1163 C1150 0.961 . S
H1164 C1150 0.961 . S
H1165 C1151 0.958 . S
H1166 C1151 0.961 . S
H1167 C1151 0.960 . S
C1168 C1169 1.391 . S
C1168 C1170 1.394 . S
C1168 H1184 0.931 . S
C1169 C1168 1.391 . S
C1169 C1173 1.376 . S
C1170 C1168 1.394 . S
C1170 C1171 1.369 . S
C1170 C1174 1.531 . S
C1171 C1170 1.369 . S
C1171 C1172 1.410 . S
C1171 C1179 1.503 . S
C1172 C1171 1.410 . S
C1172 C1173 1.392 . S
C1172 C1175 1.511 . S
C1173 C1169 1.376 . S
C1173 C1172 1.392 . S
C1173 H1185 0.929 . S
C1174 C1170 1.531 . S
C1174 H1186 0.960 . S
C1174 H1187 0.962 . S
C1174 H1188 0.960 . S
C1175 C1172 1.511 . S
C1175 H1189 0.961 . S
C1175 H1190 0.961 . S
C1175 H1191 0.961 . S
C1176 C1177 1.370 . S
C1176 C1178 1.363 . S
C1176 H1192 0.931 . S
C1177 C1176 1.370 . S
C1177 C1181 1.408 . S
C1178 C1176 1.363 . S
C1178 C1179 1.370 . S
C1178 C1182 1.524 . S
C1179 C1171 1.503 . S
C1179 C1178 1.370 . S
C1179 C1180 1.403 . S
C1180 C1179 1.403 . S
C1180 C1181 1.404 . S
C1180 C1183 1.539 . S
C1181 C1177 1.408 . S
C1181 C1180 1.404 . S
C1181 H1193 0.930 . S
C1182 C1178 1.524 . S
C1182 H1194 0.956 . S
C1182 H1195 0.961 . S
C1182 H1196 0.961 . S
C1183 C1180 1.539 . S
C1183 H1197 0.958 . S
C1183 H1198 0.961 . S
C1183 H1199 0.960 . S
H1184 C1168 0.931 . S
H1185 C1173 0.929 . S
H1186 C1174 0.960 . S
H1187 C1174 0.962 . S
H1188 C1174 0.960 . S
H1189 C1175 0.961 . S
H1190 C1175 0.961 . S
H1191 C1175 0.961 . S
H1192 C1176 0.931 . S
H1193 C1181 0.930 . S
H1194 C1182 0.956 . S
H1195 C1182 0.961 . S
H1196 C1182 0.961 . S
H1197 C1183 0.958 . S
H1198 C1183 0.961 . S
H1199 C1183 0.960 . S
C1200 C1201 1.391 . S
C1200 C1202 1.394 1_655 S
C1200 H1216 0.931 . S
C1201 C1200 1.391 . S
C1201 C1205 1.376 . S
C1202 C1200 1.394 1_455 S
C1202 C1203 1.369 . S
C1202 C1206 1.531 . S
C1203 C1202 1.369 . S
C1203 C1204 1.410 1_455 S
C1203 C1211 1.503 . S
C1204 C1203 1.410 1_655 S
C1204 C1205 1.392 . S
C1204 C1207 1.511 . S
C1205 C1201 1.376 . S
C1205 C1204 1.392 . S
C1205 H1217 0.929 . S
C1206 C1202 1.531 . S
C1206 H1218 0.960 . S
C1206 H1219 0.962 . S
C1206 H1220 0.960 . S
C1207 C1204 1.511 . S
C1207 H1221 0.961 . S
C1207 H1222 0.961 1_655 S
C1207 H1223 0.961 . S
C1208 C1209 1.370 . S
C1208 C1210 1.363 . S
C1208 H1224 0.931 . S
C1209 C1208 1.370 . S
C1209 C1213 1.408 . S
C1210 C1208 1.363 . S
C1210 C1211 1.370 . S
C1210 C1214 1.524 . S
C1211 C1203 1.503 . S
C1211 C1210 1.370 . S
C1211 C1212 1.403 . S
C1212 C1211 1.403 . S
C1212 C1213 1.404 . S
C1212 C1215 1.539 . S
C1213 C1209 1.408 . S
C1213 C1212 1.404 . S
C1213 H1225 0.930 . S
C1214 C1210 1.524 . S
C1214 H1226 0.956 . S
C1214 H1227 0.961 . S
C1214 H1228 0.961 . S
C1215 C1212 1.539 . S
C1215 H1229 0.958 . S
C1215 H1230 0.961 1_455 S
C1215 H1231 0.960 1_455 S
H1216 C1200 0.931 . S
H1217 C1205 0.929 . S
H1218 C1206 0.960 . S
H1219 C1206 0.962 . S
H1220 C1206 0.960 . S
H1221 C1207 0.961 . S
H1222 C1207 0.961 1_455 S
H1223 C1207 0.961 . S
H1224 C1208 0.931 . S
H1225 C1213 0.930 . S
H1226 C1214 0.956 . S
H1227 C1214 0.961 . S
H1228 C1214 0.961 . S
H1229 C1215 0.958 . S
H1230 C1215 0.961 1_655 S
H1231 C1215 0.960 1_655 S
C1232 C1233 1.391 . S
C1232 C1234 1.394 . S
C1232 H1248 0.931 . S
C1233 C1232 1.391 . S
C1233 C1237 1.376 . S
C1234 C1232 1.394 . S
C1234 C1235 1.369 . S
C1234 C1238 1.531 . S
C1235 C1234 1.369 . S
C1235 C1236 1.410 . S
C1235 C1243 1.503 . S
C1236 C1235 1.410 . S
C1236 C1237 1.392 . S
C1236 C1239 1.511 . S
C1237 C1233 1.376 . S
C1237 C1236 1.392 . S
C1237 H1249 0.929 . S
C1238 C1234 1.531 . S
C1238 H1250 0.960 . S
C1238 H1251 0.962 . S
C1238 H1252 0.960 . S
C1239 C1236 1.511 . S
C1239 H1253 0.961 . S
C1239 H1254 0.961 . S
C1239 H1255 0.961 . S
C1240 C1241 1.370 . S
C1240 C1242 1.363 . S
C1240 H1256 0.931 . S
C1241 C1240 1.370 . S
C1241 C1245 1.408 . S
C1242 C1240 1.363 . S
C1242 C1243 1.370 . S
C1242 C1246 1.524 . S
C1243 C1235 1.503 . S
C1243 C1242 1.370 . S
C1243 C1244 1.403 . S
C1244 C1243 1.403 . S
C1244 C1245 1.404 . S
C1244 C1247 1.539 . S
C1245 C1241 1.408 . S
C1245 C1244 1.404 . S
C1245 H1257 0.930 . S
C1246 C1242 1.524 . S
C1246 H1258 0.956 . S
C1246 H1259 0.961 . S
C1246 H1260 0.961 . S
C1247 C1244 1.539 . S
C1247 H1261 0.958 . S
C1247 H1262 0.961 . S
C1247 H1263 0.960 . S
H1248 C1232 0.931 . S
H1249 C1237 0.929 . S
H1250 C1238 0.960 . S
H1251 C1238 0.962 . S
H1252 C1238 0.960 . S
H1253 C1239 0.961 . S
H1254 C1239 0.961 . S
H1255 C1239 0.961 . S
H1256 C1240 0.931 . S
H1257 C1245 0.930 . S
H1258 C1246 0.956 . S
H1259 C1246 0.961 . S
H1260 C1246 0.961 . S
H1261 C1247 0.958 . S
H1262 C1247 0.961 . S
H1263 C1247 0.960 . S
C1264 C1265 1.391 . S
C1264 C1266 1.394 . S
C1264 H1280 0.931 . S
C1265 C1264 1.391 . S
C1265 C1269 1.376 . S
C1266 C1264 1.394 . S
C1266 C1267 1.369 . S
C1266 C1270 1.531 1_545 S
C1267 C1266 1.369 . S
C1267 C1268 1.410 . S
C1267 C1275 1.503 1_545 S
C1268 C1267 1.410 . S
C1268 C1269 1.392 . S
C1268 C1271 1.511 . S
C1269 C1265 1.376 . S
C1269 C1268 1.392 . S
C1269 H1281 0.929 . S
C1270 C1266 1.531 1_565 S
C1270 H1282 0.960 . S
C1270 H1283 0.962 . S
C1270 H1284 0.960 1_565 S
C1271 C1268 1.511 . S
C1271 H1285 0.961 . S
C1271 H1286 0.961 . S
C1271 H1287 0.961 . S
C1272 C1273 1.370 . S
C1272 C1274 1.363 . S
C1272 H1288 0.931 . S
C1273 C1272 1.370 . S
C1273 C1277 1.408 . S
C1274 C1272 1.363 . S
C1274 C1275 1.370 . S
C1274 C1278 1.524 . S
C1275 C1267 1.503 1_565 S
C1275 C1274 1.370 . S
C1275 C1276 1.403 . S
C1276 C1275 1.403 . S
C1276 C1277 1.404 . S
C1276 C1279 1.539 1_565 S
C1277 C1273 1.408 . S
C1277 C1276 1.404 . S
C1277 H1289 0.930 . S
C1278 C1274 1.524 . S
C1278 H1290 0.956 . S
C1278 H1291 0.961 . S
C1278 H1292 0.961 . S
C1279 C1276 1.539 1_545 S
C1279 H1293 0.958 . S
C1279 H1294 0.961 . S
C1279 H1295 0.960 . S
H1280 C1264 0.931 . S
H1281 C1269 0.929 . S
H1282 C1270 0.960 . S
H1283 C1270 0.962 . S
H1284 C1270 0.960 1_545 S
H1285 C1271 0.961 . S
H1286 C1271 0.961 . S
H1287 C1271 0.961 . S
H1288 C1272 0.931 . S
H1289 C1277 0.930 . S
H1290 C1278 0.956 . S
H1291 C1278 0.961 . S
H1292 C1278 0.961 . S
H1293 C1279 0.958 . S
H1294 C1279 0.961 . S
H1295 C1279 0.960 . S
C1296 C1297 1.391 . S
C1296 C1298 1.394 . S
C1296 H1312 0.931 . S
C1297 C1296 1.391 . S
C1297 C1301 1.376 . S
C1298 C1296 1.394 . S
C1298 C1299 1.369 . S
C1298 C1302 1.531 . S
C1299 C1298 1.369 . S
C1299 C1300 1.410 . S
C1299 C1307 1.503 1_554 S
C1300 C1299 1.410 . S
C1300 C1301 1.392 . S
C1300 C1303 1.511 . S
C1301 C1297 1.376 . S
C1301 C1300 1.392 . S
C1301 H1313 0.929 . S
C1302 C1298 1.531 . S
C1302 H1314 0.960 1_544 S
C1302 H1315 0.962 . S
C1302 H1316 0.960 1_545 S
C1303 C1300 1.511 . S
C1303 H1317 0.961 . S
C1303 H1318 0.961 1_554 S
C1303 H1319 0.961 1_545 S
C1304 C1305 1.370 . S
C1304 C1306 1.363 . S
C1304 H1320 0.931 . S
C1305 C1304 1.370 . S
C1305 C1309 1.408 1_545 S
C1306 C1304 1.363 . S
C1306 C1307 1.370 . S
C1306 C1310 1.524 . S
C1307 C1299 1.503 1_556 S
C1307 C1306 1.370 . S
C1307 C1308 1.403 1_545 S
C1308 C1307 1.403 1_565 S
C1308 C1309 1.404 . S
C1308 C1311 1.539 . S
C1309 C1305 1.408 1_565 S
C1309 C1308 1.404 . S
C1309 H1321 0.930 . S
C1310 C1306 1.524 . S
C1310 H1322 0.956 . S
C1310 H1323 0.956 1_556 S
C1310 H1324 0.961 . S
C1311 C1308 1.539 . S
C1311 H1325 0.958 . S
C1311 H1326 0.961 . S
C1311 H1327 0.919 1_556 S
H1312 C1296 0.931 . S
H1313 C1301 0.929 . S
H1314 C1302 0.960 1_566 S
H1315 C1302 0.962 . S
H1316 C1302 0.960 1_565 S
H1317 C1303 0.961 . S
H1318 C1303 0.961 1_556 S
H1319 C1303 0.961 1_565 S
H1320 C1304 0.931 . S
H1321 C1309 0.930 . S
H1322 C1310 0.956 . S
H1323 C1310 0.956 1_554 S
H1324 C1310 0.961 . S
H1325 C1311 0.958 . S
H1326 C1311 0.961 . S
H1327 C1311 0.919 1_554 S
C1328 C1329 1.391 . S
C1328 C1330 1.394 . S
C1328 H1344 0.931 . S
C1329 C1328 1.391 . S
C1329 C1333 1.376 1_455 S
C1330 C1328 1.394 . S
C1330 C1331 1.369 . S
C1330 C1334 1.531 . S
C1331 C1330 1.369 . S
C1331 C1332 1.410 1_455 S
C1331 C1339 1.503 1_556 S
C1332 C1331 1.410 1_655 S
C1332 C1333 1.395 . S
C1332 C1335 1.511 . S
C1333 C1329 1.376 1_655 S
C1333 C1332 1.395 . S
C1333 H1345 0.927 . S
C1334 C1330 1.531 . S
C1334 H1346 0.960 1_556 S
C1334 H1347 0.962 . S
C1334 H1348 0.960 . S
C1335 C1332 1.511 . S
C1335 H1349 0.961 . S
C1335 H1350 0.961 1_556 S
C1335 H1351 0.961 . S
C1336 C1337 1.370 . S
C1336 C1338 1.363 . S
C1336 H1352 0.931 . S
C1337 C1336 1.370 . S
C1337 C1341 1.408 1_455 S
C1338 C1336 1.363 . S
C1338 C1339 1.370 . S
C1338 C1342 1.524 . S
C1339 C1331 1.503 1_554 S
C1339 C1338 1.370 . S
C1339 C1340 1.403 1_455 S
C1340 C1339 1.403 1_655 S
C1340 C1341 1.404 . S
C1340 C1343 1.539 . S
C1341 C1337 1.408 1_655 S
C1341 C1340 1.404 . S
C1341 H1353 0.930 . S
C1342 C1338 1.524 . S
C1342 H1354 0.956 . S
C1342 H1355 0.946 1_554 S
C1342 H1356 0.961 . S
C1343 C1340 1.539 . S
C1343 H1357 0.958 . S
C1343 H1358 0.961 . S
C1343 H1359 0.920 1_554 S
H1344 C1328 0.931 . S
H1345 C1333 0.927 . S
H1346 C1334 0.960 1_554 S
H1347 C1334 0.962 . S
H1348 C1334 0.960 . S
H1349 C1335 0.961 . S
H1350 C1335 0.961 1_554 S
H1351 C1335 0.961 . S
H1352 C1336 0.931 . S
H1353 C1341 0.930 . S
H1354 C1342 0.956 . S
H1355 C1342 0.946 1_556 S
H1356 C1342 0.961 . S
H1357 C1343 0.958 . S
H1358 C1343 0.961 . S
H1359 C1343 0.920 1_556 S
C1360 C1361 1.391 . S
C1360 C1362 1.394 . S
C1360 H1376 0.931 . S
C1361 C1360 1.391 . S
C1361 C1365 1.376 . S
C1362 C1360 1.394 . S
C1362 C1363 1.369 . S
C1362 C1366 1.531 . S
C1363 C1362 1.369 . S
C1363 C1364 1.410 . S
C1363 C1371 1.503 1_556 S
C1364 C1363 1.410 . S
C1364 C1365 1.392 . S
C1364 C1367 1.511 . S
C1365 C1361 1.376 . S
C1365 C1364 1.392 . S
C1365 H1377 0.929 . S
C1366 C1362 1.531 . S
C1366 H1378 0.960 1_556 S
C1366 H1379 0.962 . S
C1366 H1380 0.960 . S
C1367 C1364 1.511 . S
C1367 H1381 0.961 . S
C1367 H1382 0.961 1_556 S
C1367 H1383 0.961 . S
C1368 C1369 1.370 . S
C1368 C1370 1.363 . S
C1368 H1384 0.931 . S
C1369 C1368 1.370 . S
C1369 C1373 1.408 . S
C1370 C1368 1.363 . S
C1370 C1371 1.370 . S
C1370 C1374 1.524 . S
C1371 C1363 1.503 1_554 S
C1371 C1370 1.370 . S
C1371 C1372 1.403 . S
C1372 C1371 1.403 . S
C1372 C1373 1.404 . S
C1372 C1375 1.539 . S
C1373 C1369 1.408 . S
C1373 C1372 1.404 . S
C1373 H1385 0.930 . S
C1374 C1370 1.524 . S
C1374 H1386 0.957 1_554 S
C1374 H1387 0.961 1_554 S
C1374 H1388 0.961 . S
C1375 C1372 1.539 . S
C1375 H1389 0.958 . S
C1375 H1390 0.961 . S
C1375 H1391 0.960 . S
H1376 C1360 0.931 . S
H1377 C1365 0.929 . S
H1378 C1366 0.960 1_554 S
H1379 C1366 0.962 . S
H1380 C1366 0.960 . S
H1381 C1367 0.961 . S
H1382 C1367 0.961 1_554 S
H1383 C1367 0.961 . S
H1384 C1368 0.931 . S
H1385 C1373 0.930 . S
H1386 C1374 0.957 1_556 S
H1387 C1374 0.961 1_556 S
H1388 C1374 0.961 . S
H1389 C1375 0.958 . S
H1390 C1375 0.961 . S
H1391 C1375 0.960 . S
C1392 C1393 1.391 . S
C1392 C1394 1.394 . S
C1392 H1408 0.931 . S
C1393 C1392 1.391 . S
C1393 C1397 1.376 . S
C1394 C1392 1.394 . S
C1394 C1395 1.369 . S
C1394 C1398 1.531 . S
C1395 C1394 1.369 . S
C1395 C1396 1.410 . S
C1395 C1403 1.503 . S
C1396 C1395 1.410 . S
C1396 C1397 1.392 . S
C1396 C1399 1.511 . S
C1397 C1393 1.376 . S
C1397 C1396 1.392 . S
C1397 H1409 0.929 . S
C1398 C1394 1.531 . S
C1398 H1410 0.960 . S
C1398 H1411 0.962 . S
C1398 H1412 0.960 . S
C1399 C1396 1.511 . S
C1399 H1413 0.961 . S
C1399 H1414 0.961 . S
C1399 H1415 0.961 . S
C1400 C1401 1.370 . S
C1400 C1402 1.363 . S
C1400 H1416 0.931 . S
C1401 C1400 1.370 . S
C1401 C1405 1.408 . S
C1402 C1400 1.363 . S
C1402 C1403 1.370 . S
C1402 C1406 1.524 . S
C1403 C1395 1.503 . S
C1403 C1402 1.370 . S
C1403 C1404 1.403 . S
C1404 C1403 1.403 . S
C1404 C1405 1.404 . S
C1404 C1407 1.539 . S
C1405 C1401 1.408 . S
C1405 C1404 1.404 . S
C1405 H1417 0.930 . S
C1406 C1402 1.524 . S
C1406 H1418 0.956 . S
C1406 H1419 0.961 . S
C1406 H1420 0.961 . S
C1407 C1404 1.539 . S
C1407 H1421 0.958 . S
C1407 H1422 0.961 . S
C1407 H1423 0.960 . S
H1408 C1392 0.931 . S
H1409 C1397 0.929 . S
H1410 C1398 0.960 . S
H1411 C1398 0.962 . S
H1412 C1398 0.960 . S
H1413 C1399 0.961 . S
H1414 C1399 0.961 . S
H1415 C1399 0.961 . S
H1416 C1400 0.931 . S
H1417 C1405 0.930 . S
H1418 C1406 0.956 . S
H1419 C1406 0.961 . S
H1420 C1406 0.961 . S
H1421 C1407 0.958 . S
H1422 C1407 0.961 . S
H1423 C1407 0.960 . S
C1424 C1425 1.391 . S
C1424 C1426 1.394 . S
C1424 H1440 0.931 . S
C1425 C1424 1.391 . S
C1425 C1429 1.376 . S
C1426 C1424 1.394 . S
C1426 C1427 1.369 . S
C1426 C1430 1.531 . S
C1427 C1426 1.369 . S
C1427 C1428 1.410 . S
C1427 C1435 1.503 . S
C1428 C1427 1.410 . S
C1428 C1429 1.392 . S
C1428 C1431 1.511 . S
C1429 C1425 1.376 . S
C1429 C1428 1.392 . S
C1429 H1441 0.929 . S
C1430 C1426 1.531 . S
C1430 H1442 0.960 . S
C1430 H1443 0.962 . S
C1430 H1444 0.960 . S
C1431 C1428 1.511 . S
C1431 H1445 0.961 . S
C1431 H1446 0.961 . S
C1431 H1447 0.961 . S
C1432 C1433 1.370 . S
C1432 C1434 1.363 . S
C1432 H1448 0.931 . S
C1433 C1432 1.370 . S
C1433 C1437 1.408 . S
C1434 C1432 1.363 . S
C1434 C1435 1.370 . S
C1434 C1438 1.524 . S
C1435 C1427 1.503 . S
C1435 C1434 1.370 . S
C1435 C1436 1.403 . S
C1436 C1435 1.403 . S
C1436 C1437 1.404 . S
C1436 C1439 1.539 . S
C1437 C1433 1.408 . S
C1437 C1436 1.404 . S
C1437 H1449 0.930 . S
C1438 C1434 1.524 . S
C1438 H1450 0.956 . S
C1438 H1451 0.961 . S
C1438 H1452 0.961 . S
C1439 C1436 1.539 . S
C1439 H1453 0.958 . S
C1439 H1454 0.961 . S
C1439 H1455 0.960 . S
H1440 C1424 0.931 . S
H1441 C1429 0.929 . S
H1442 C1430 0.960 . S
H1443 C1430 0.962 . S
H1444 C1430 0.960 . S
H1445 C1431 0.961 . S
H1446 C1431 0.961 . S
H1447 C1431 0.961 . S
H1448 C1432 0.931 . S
H1449 C1437 0.930 . S
H1450 C1438 0.956 . S
H1451 C1438 0.961 . S
H1452 C1438 0.961 . S
H1453 C1439 0.958 . S
H1454 C1439 0.961 . S
H1455 C1439 0.960 . S
C1456 C1457 1.391 . S
C1456 C1458 1.394 . S
C1456 H1472 0.931 . S
C1457 C1456 1.391 . S
C1457 C1461 1.376 . S
C1458 C1456 1.394 . S
C1458 C1459 1.369 . S
C1458 C1462 1.531 . S
C1459 C1458 1.369 . S
C1459 C1460 1.410 . S
C1459 C1467 1.503 . S
C1460 C1459 1.410 . S
C1460 C1461 1.392 . S
C1460 C1463 1.511 . S
C1461 C1457 1.376 . S
C1461 C1460 1.392 . S
C1461 H1473 0.929 . S
C1462 C1458 1.531 . S
C1462 H1474 0.960 . S
C1462 H1475 0.962 . S
C1462 H1476 0.960 . S
C1463 C1460 1.511 . S
C1463 H1477 0.961 . S
C1463 H1478 0.961 . S
C1463 H1479 0.961 . S
C1464 C1465 1.370 . S
C1464 C1466 1.363 . S
C1464 H1480 0.931 . S
C1465 C1464 1.370 . S
C1465 C1469 1.408 . S
C1466 C1464 1.363 . S
C1466 C1467 1.370 . S
C1466 C1470 1.524 . S
C1467 C1459 1.503 . S
C1467 C1466 1.370 . S
C1467 C1468 1.403 . S
C1468 C1467 1.403 . S
C1468 C1469 1.404 . S
C1468 C1471 1.539 . S
C1469 C1465 1.408 . S
C1469 C1468 1.404 . S
C1469 H1481 0.930 . S
C1470 C1466 1.524 . S
C1470 H1482 0.956 . S
C1470 H1483 0.961 . S
C1470 H1484 0.961 . S
C1471 C1468 1.539 . S
C1471 H1485 0.958 . S
C1471 H1486 0.961 . S
C1471 H1487 0.960 . S
H1472 C1456 0.931 . S
H1473 C1461 0.929 . S
H1474 C1462 0.960 . S
H1475 C1462 0.962 . S
H1476 C1462 0.960 . S
H1477 C1463 0.961 . S
H1478 C1463 0.961 . S
H1479 C1463 0.961 . S
H1480 C1464 0.931 . S
H1481 C1469 0.930 . S
H1482 C1470 0.956 . S
H1483 C1470 0.961 . S
H1484 C1470 0.961 . S
H1485 C1471 0.958 . S
H1486 C1471 0.961 . S
H1487 C1471 0.960 . S
C1488 C1489 1.391 . S
C1488 C1490 1.394 . S
C1488 H1504 0.931 . S
C1489 C1488 1.391 . S
C1489 C1493 1.376 . S
C1490 C1488 1.394 . S
C1490 C1491 1.369 . S
C1490 C1494 1.531 . S
C1491 C1490 1.369 . S
C1491 C1492 1.410 . S
C1491 C1499 1.503 . S
C1492 C1491 1.410 . S
C1492 C1493 1.392 . S
C1492 C1495 1.511 . S
C1493 C1489 1.376 . S
C1493 C1492 1.392 . S
C1493 H1505 0.929 . S
C1494 C1490 1.531 . S
C1494 H1506 0.960 . S
C1494 H1507 0.962 . S
C1494 H1508 0.960 . S
C1495 C1492 1.511 . S
C1495 H1509 0.961 . S
C1495 H1510 0.961 . S
C1495 H1511 0.961 . S
C1496 C1497 1.370 . S
C1496 C1498 1.363 . S
C1496 H1512 0.931 . S
C1497 C1496 1.370 . S
C1497 C1501 1.408 . S
C1498 C1496 1.363 . S
C1498 C1499 1.370 . S
C1498 C1502 1.524 . S
C1499 C1491 1.503 . S
C1499 C1498 1.370 . S
C1499 C1500 1.403 . S
C1500 C1499 1.403 . S
C1500 C1501 1.404 . S
C1500 C1503 1.539 . S
C1501 C1497 1.408 . S
C1501 C1500 1.404 . S
C1501 H1513 0.930 . S
C1502 C1498 1.524 . S
C1502 H1514 0.956 . S
C1502 H1515 0.961 . S
C1502 H1516 0.961 . S
C1503 C1500 1.539 . S
C1503 H1517 0.958 . S
C1503 H1518 0.961 . S
C1503 H1519 0.960 . S
H1504 C1488 0.931 . S
H1505 C1493 0.929 . S
H1506 C1494 0.960 . S
H1507 C1494 0.962 . S
H1508 C1494 0.960 . S
H1509 C1495 0.961 . S
H1510 C1495 0.961 . S
H1511 C1495 0.961 . S
H1512 C1496 0.931 . S
H1513 C1501 0.930 . S
H1514 C1502 0.956 . S
H1515 C1502 0.961 . S
H1516 C1502 0.961 . S
H1517 C1503 0.958 . S
H1518 C1503 0.961 . S
H1519 C1503 0.960 . S
C1520 C1521 1.391 . S
C1520 C1522 1.394 . S
C1520 H1536 0.931 . S
C1521 C1520 1.391 . S
C1521 C1525 1.376 . S
C1522 C1520 1.394 . S
C1522 C1523 1.369 . S
C1522 C1526 1.531 . S
C1523 C1522 1.369 . S
C1523 C1524 1.410 . S
C1523 C1531 1.503 . S
C1524 C1523 1.410 . S
C1524 C1525 1.392 . S
C1524 C1527 1.511 . S
C1525 C1521 1.376 . S
C1525 C1524 1.392 . S
C1525 H1537 0.929 . S
C1526 C1522 1.531 . S
C1526 H1538 0.960 . S
C1526 H1539 0.962 . S
C1526 H1540 0.960 . S
C1527 C1524 1.511 . S
C1527 H1541 0.961 . S
C1527 H1542 0.961 . S
C1527 H1543 0.961 . S
C1528 C1529 1.370 . S
C1528 C1530 1.363 . S
C1528 H1544 0.931 . S
C1529 C1528 1.370 . S
C1529 C1533 1.408 . S
C1530 C1528 1.363 . S
C1530 C1531 1.370 . S
C1530 C1534 1.524 . S
C1531 C1523 1.503 . S
C1531 C1530 1.370 . S
C1531 C1532 1.403 . S
C1532 C1531 1.403 . S
C1532 C1533 1.404 . S
C1532 C1535 1.539 . S
C1533 C1529 1.408 . S
C1533 C1532 1.404 . S
C1533 H1545 0.930 . S
C1534 C1530 1.524 . S
C1534 H1546 0.956 . S
C1534 H1547 0.961 . S
C1534 H1548 0.961 . S
C1535 C1532 1.539 . S
C1535 H1549 0.958 . S
C1535 H1550 0.961 . S
C1535 H1551 0.960 . S
H1536 C1520 0.931 . S
H1537 C1525 0.929 . S
H1538 C1526 0.960 . S
H1539 C1526 0.962 . S
H1540 C1526 0.960 . S
H1541 C1527 0.961 . S
H1542 C1527 0.961 . S
H1543 C1527 0.961 . S
H1544 C1528 0.931 . S
H1545 C1533 0.930 . S
H1546 C1534 0.956 . S
H1547 C1534 0.961 . S
H1548 C1534 0.961 . S
H1549 C1535 0.958 . S
H1550 C1535 0.961 . S
H1551 C1535 0.960 . S
C1552 C1553 1.391 . S
C1552 C1554 1.394 . S
C1552 H1568 0.931 . S
C1553 C1552 1.391 . S
C1553 C1557 1.376 . S
C1554 C1552 1.394 . S
C1554 C1555 1.369 . S
C1554 C1558 1.531 . S
C1555 C1554 1.369 . S
C1555 C1556 1.410 . S
C1555 C1563 1.503 . S
C1556 C1555 1.410 . S
C1556 C1557 1.392 . S
C1556 C1559 1.511 . S
C1557 C1553 1.376 . S
C1557 C1556 1.392 . S
C1557 H1569 0.929 . S
C1558 C1554 1.531 . S
C1558 H1570 0.960 . S
C1558 H1571 0.962 . S
C1558 H1572 0.960 . S
C1559 C1556 1.511 . S
C1559 H1573 0.961 . S
C1559 H1574 0.961 . S
C1559 H1575 0.961 . S
C1560 C1561 1.370 . S
C1560 C1562 1.363 . S
C1560 H1576 0.931 . S
C1561 C1560 1.370 . S
C1561 C1565 1.408 . S
C1562 C1560 1.363 . S
C1562 C1563 1.370 . S
C1562 C1566 1.524 . S
C1563 C1555 1.503 . S
C1563 C1562 1.370 . S
C1563 C1564 1.403 . S
C1564 C1563 1.403 . S
C1564 C1565 1.404 . S
C1564 C1567 1.539 . S
C1565 C1561 1.408 . S
C1565 C1564 1.404 . S
C1565 H1577 0.930 . S
C1566 C1562 1.524 . S
C1566 H1578 0.956 . S
C1566 H1579 0.961 . S
C1566 H1580 0.961 . S
C1567 C1564 1.539 . S
C1567 H1581 0.958 . S
C1567 H1582 0.961 . S
C1567 H1583 0.960 . S
H1568 C1552 0.931 . S
H1569 C1557 0.929 . S
H1570 C1558 0.960 . S
H1571 C1558 0.962 . S
H1572 C1558 0.960 . S
H1573 C1559 0.961 . S
H1574 C1559 0.961 . S
H1575 C1559 0.961 . S
H1576 C1560 0.931 . S
H1577 C1565 0.930 . S
H1578 C1566 0.956 . S
H1579 C1566 0.961 . S
H1580 C1566 0.961 . S
H1581 C1567 0.958 . S
H1582 C1567 0.961 . S
H1583 C1567 0.960 . S
C1584 C1585 1.391 . S
C1584 C1586 1.394 . S
C1584 H1600 0.931 . S
C1585 C1584 1.391 . S
C1585 C1589 1.376 . S
C1586 C1584 1.394 . S
C1586 C1587 1.369 . S
C1586 C1590 1.531 . S
C1587 C1586 1.369 . S
C1587 C1588 1.410 . S
C1587 C1595 1.503 . S
C1588 C1587 1.410 . S
C1588 C1589 1.392 . S
C1588 C1591 1.511 . S
C1589 C1585 1.376 . S
C1589 C1588 1.392 . S
C1589 H1601 0.929 . S
C1590 C1586 1.531 . S
C1590 H1602 0.960 . S
C1590 H1603 0.962 . S
C1590 H1604 0.960 . S
C1591 C1588 1.511 . S
C1591 H1605 0.961 . S
C1591 H1606 0.961 . S
C1591 H1607 0.961 . S
C1592 C1593 1.370 . S
C1592 C1594 1.363 . S
C1592 H1608 0.931 . S
C1593 C1592 1.370 . S
C1593 C1597 1.389 1_565 S
C1594 C1592 1.363 . S
C1594 C1595 1.370 . S
C1594 C1598 1.524 . S
C1595 C1587 1.503 . S
C1595 C1594 1.370 . S
C1595 C1596 1.403 . S
C1596 C1595 1.403 . S
C1596 C1597 1.405 1_565 S
C1596 C1599 1.539 1_565 S
C1597 C1593 1.389 1_545 S
C1597 C1596 1.405 1_545 S
C1597 H1609 0.947 . S
C1598 C1594 1.524 . S
C1598 H1610 0.956 . S
C1598 H1611 0.961 . S
C1598 H1612 0.961 . S
C1599 C1596 1.539 1_545 S
C1599 H1613 0.958 . S
C1599 H1614 0.961 . S
C1599 H1615 0.960 1_545 S
H1600 C1584 0.931 . S
H1601 C1589 0.929 . S
H1602 C1590 0.960 . S
H1603 C1590 0.962 . S
H1604 C1590 0.960 . S
H1605 C1591 0.961 . S
H1606 C1591 0.961 . S
H1607 C1591 0.961 . S
H1608 C1592 0.931 . S
H1609 C1597 0.947 . S
H1610 C1598 0.956 . S
H1611 C1598 0.961 . S
H1612 C1598 0.961 . S
H1613 C1599 0.958 . S
H1614 C1599 0.961 . S
H1615 C1599 0.960 1_565 S
C1616 C1617 1.391 . S
C1616 C1618 1.394 . S
C1616 H1632 0.931 . S
C1617 C1616 1.391 . S
C1617 C1621 1.376 . S
C1618 C1616 1.394 . S
C1618 C1619 1.369 . S
C1618 C1622 1.531 . S
C1619 C1618 1.369 . S
C1619 C1620 1.410 . S
C1619 C1627 1.503 . S
C1620 C1619 1.410 . S
C1620 C1621 1.392 . S
C1620 C1623 1.511 . S
C1621 C1617 1.376 . S
C1621 C1620 1.392 . S
C1621 H1633 0.929 . S
C1622 C1618 1.531 . S
C1622 H1634 0.960 . S
C1622 H1635 0.962 . S
C1622 H1636 0.987 . S
C1623 C1620 1.511 . S
C1623 H1637 0.961 . S
C1623 H1638 0.961 . S
C1623 H1639 0.961 . S
C1624 C1625 1.370 . S
C1624 C1626 1.363 . S
C1624 H1640 0.931 . S
C1625 C1624 1.370 . S
C1625 C1629 1.408 . S
C1626 C1624 1.363 . S
C1626 C1627 1.370 . S
C1626 C1630 1.524 . S
C1627 C1619 1.503 . S
C1627 C1626 1.370 . S
C1627 C1628 1.403 . S
C1628 C1627 1.403 . S
C1628 C1629 1.404 . S
C1628 C1631 1.539 . S
C1629 C1625 1.408 . S
C1629 C1628 1.404 . S
C1629 H1641 0.930 . S
C1630 C1626 1.524 . S
C1630 H1642 0.956 . S
C1630 H1643 0.961 . S
C1630 H1644 0.961 . S
C1631 C1628 1.539 . S
C1631 H1645 0.958 . S
C1631 H1646 0.961 . S
C1631 H1647 0.960 . S
H1632 C1616 0.931 . S
H1633 C1621 0.929 . S
H1634 C1622 0.960 . S
H1635 C1622 0.962 . S
H1636 C1622 0.987 . S
H1637 C1623 0.961 . S
H1638 C1623 0.961 . S
H1639 C1623 0.961 . S
H1640 C1624 0.931 . S
H1641 C1629 0.930 . S
H1642 C1630 0.956 . S
H1643 C1630 0.961 . S
H1644 C1630 0.961 . S
H1645 C1631 0.958 . S
H1646 C1631 0.961 . S
H1647 C1631 0.960 . S
C1648 C1649 1.391 . S
C1648 C1650 1.394 . S
C1648 H1664 0.931 . S
C1649 C1648 1.391 . S
C1649 C1653 1.376 . S
C1650 C1648 1.394 . S
C1650 C1651 1.369 . S
C1650 C1654 1.531 . S
C1651 C1650 1.369 . S
C1651 C1652 1.410 . S
C1651 C1659 1.503 . S
C1652 C1651 1.410 . S
C1652 C1653 1.392 . S
C1652 C1655 1.511 . S
C1653 C1649 1.376 . S
C1653 C1652 1.392 . S
C1653 H1665 0.929 . S
C1654 C1650 1.531 . S
C1654 H1666 0.960 . S
C1654 H1667 0.962 . S
C1654 H1668 0.960 . S
C1655 C1652 1.511 . S
C1655 H1669 0.961 . S
C1655 H1670 0.961 . S
C1655 H1671 0.961 . S
C1656 C1657 1.370 . S
C1656 C1658 1.363 . S
C1656 H1672 0.931 . S
C1657 C1656 1.370 . S
C1657 C1661 1.408 . S
C1658 C1656 1.363 . S
C1658 C1659 1.370 . S
C1658 C1662 1.524 . S
C1659 C1651 1.503 . S
C1659 C1658 1.370 . S
C1659 C1660 1.403 . S
C1660 C1659 1.403 . S
C1660 C1661 1.404 . S
C1660 C1663 1.539 . S
C1661 C1657 1.408 . S
C1661 C1660 1.404 . S
C1661 H1673 0.930 . S
C1662 C1658 1.524 . S
C1662 H1674 0.956 . S
C1662 H1675 0.961 . S
C1662 H1676 0.961 . S
C1663 C1660 1.539 . S
C1663 H1677 0.958 . S
C1663 H1678 0.961 . S
C1663 H1679 0.960 . S
H1664 C1648 0.931 . S
H1665 C1653 0.929 . S
H1666 C1654 0.960 . S
H1667 C1654 0.962 . S
H1668 C1654 0.960 . S
H1669 C1655 0.961 . S
H1670 C1655 0.961 . S
H1671 C1655 0.961 . S
H1672 C1656 0.931 . S
H1673 C1661 0.930 . S
H1674 C1662 0.956 . S
H1675 C1662 0.961 . S
H1676 C1662 0.961 . S
H1677 C1663 0.958 . S
H1678 C1663 0.961 . S
H1679 C1663 0.960 . S
C1680 C1681 1.391 . S
C1680 C1682 1.394 . S
C1680 H1696 0.931 1_655 S
C1681 C1680 1.391 . S
C1681 C1685 1.376 . S
C1682 C1680 1.394 . S
C1682 C1683 1.369 . S
C1682 C1686 1.531 . S
C1683 C1682 1.369 . S
C1683 C1684 1.410 . S
C1683 C1691 1.503 . S
C1684 C1683 1.410 . S
C1684 C1685 1.392 . S
C1684 C1687 1.511 . S
C1685 C1681 1.376 . S
C1685 C1684 1.392 . S
C1685 H1697 0.929 . S
C1686 C1682 1.531 . S
C1686 H1698 0.960 . S
C1686 H1699 0.962 1_655 S
C1686 H1700 0.960 1_655 S
C1687 C1684 1.511 . S
C1687 H1701 0.961 . S
C1687 H1702 0.961 . S
C1687 H1703 0.961 . S
C1688 C1689 1.370 . S
C1688 C1690 1.363 . S
C1688 H1704 0.931 . S
C1689 C1688 1.370 . S
C1689 C1693 1.408 . S
C1690 C1688 1.363 . S
C1690 C1691 1.370 . S
C1690 C1694 1.524 . S
C1691 C1683 1.503 . S
C1691 C1690 1.370 . S
C1691 C1692 1.403 . S
C1692 C1691 1.403 . S
C1692 C1693 1.404 . S
C1692 C1695 1.539 . S
C1693 C1689 1.408 . S
C1693 C1692 1.404 . S
C1693 H1705 0.930 . S
C1694 C1690 1.524 . S
C1694 H1706 0.956 . S
C1694 H1707 0.961 . S
C1694 H1708 0.961 . S
C1695 C1692 1.539 . S
C1695 H1709 0.958 . S
C1695 H1710 0.961 . S
C1695 H1711 0.960 . S
H1696 C1680 0.931 1_455 S
H1697 C1685 0.929 . S
H1698 C1686 0.960 . S
H1699 C1686 0.962 1_455 S
H1700 C1686 0.960 1_455 S
H1701 C1687 0.961 . S
H1702 C1687 0.961 . S
H1703 C1687 0.961 . S
H1704 C1688 0.931 . S
H1705 C1693 0.930 . S
H1706 C1694 0.956 . S
H1707 C1694 0.961 . S
H1708 C1694 0.961 . S
H1709 C1695 0.958 . S
H1710 C1695 0.961 . S
H1711 C1695 0.960 . S
C1712 C1713 1.391 . S
C1712 C1714 1.394 . S
C1712 H1728 0.931 . S
C1713 C1712 1.391 . S
C1713 C1717 1.376 . S
C1714 C1712 1.394 . S
C1714 C1715 1.369 . S
C1714 C1718 1.531 . S
C1715 C1714 1.369 . S
C1715 C1716 1.410 . S
C1715 C1723 1.503 . S
C1716 C1715 1.410 . S
C1716 C1717 1.392 . S
C1716 C1719 1.511 . S
C1717 C1713 1.376 . S
C1717 C1716 1.392 . S
C1717 H1729 0.929 . S
C1718 C1714 1.531 . S
C1718 H1730 0.960 . S
C1718 H1731 0.962 . S
C1718 H1732 0.960 . S
C1719 C1716 1.511 . S
C1719 H1733 0.961 . S
C1719 H1734 0.961 . S
C1719 H1735 0.961 . S
C1720 C1721 1.370 . S
C1720 C1722 1.363 . S
C1720 H1736 0.931 . S
C1721 C1720 1.370 . S
C1721 C1725 1.408 . S
C1722 C1720 1.363 . S
C1722 C1723 1.370 . S
C1722 C1726 1.524 . S
C1723 C1715 1.503 . S
C1723 C1722 1.370 . S
C1723 C1724 1.403 . S
C1724 C1723 1.403 . S
C1724 C1725 1.404 . S
C1724 C1727 1.539 . S
C1725 C1721 1.408 . S
C1725 C1724 1.404 . S
C1725 H1737 0.930 . S
C1726 C1722 1.524 . S
C1726 H1738 0.956 . S
C1726 H1739 0.961 . S
C1726 H1740 0.961 . S
C1727 C1724 1.539 . S
C1727 H1741 0.958 . S
C1727 H1742 0.961 . S
C1727 H1743 0.960 . S
H1728 C1712 0.931 . S
H1729 C1717 0.929 . S
H1730 C1718 0.960 . S
H1731 C1718 0.962 . S
H1732 C1718 0.960 . S
H1733 C1719 0.961 . S
H1734 C1719 0.961 . S
H1735 C1719 0.961 . S
H1736 C1720 0.931 . S
H1737 C1725 0.930 . S
H1738 C1726 0.956 . S
H1739 C1726 0.961 . S
H1740 C1726 0.961 . S
H1741 C1727 0.958 . S
H1742 C1727 0.961 . S
H1743 C1727 0.960 . S
C1744 C1745 1.391 . S
C1744 C1746 1.394 . S
C1744 H1760 0.931 . S
C1745 C1744 1.391 . S
C1745 C1749 1.376 . S
C1746 C1744 1.394 . S
C1746 C1747 1.369 . S
C1746 C1750 1.531 . S
C1747 C1746 1.369 . S
C1747 C1748 1.410 . S
C1747 C1755 1.503 . S
C1748 C1747 1.410 . S
C1748 C1749 1.392 . S
C1748 C1751 1.511 . S
C1749 C1745 1.376 . S
C1749 C1748 1.392 . S
C1749 H1761 0.929 . S
C1750 C1746 1.531 . S
C1750 H1762 0.960 . S
C1750 H1763 0.962 . S
C1750 H1764 0.960 . S
C1751 C1748 1.511 . S
C1751 H1765 0.961 . S
C1751 H1766 0.961 . S
C1751 H1767 0.961 . S
C1752 C1753 1.370 . S
C1752 C1754 1.363 . S
C1752 H1768 0.931 . S
C1753 C1752 1.370 . S
C1753 C1757 1.408 . S
C1754 C1752 1.363 . S
C1754 C1755 1.370 . S
C1754 C1758 1.524 . S
C1755 C1747 1.503 . S
C1755 C1754 1.370 . S
C1755 C1756 1.403 . S
C1756 C1755 1.403 . S
C1756 C1757 1.404 . S
C1756 C1759 1.539 . S
C1757 C1753 1.408 . S
C1757 C1756 1.404 . S
C1757 H1769 0.930 . S
C1758 C1754 1.524 . S
C1758 H1770 0.956 . S
C1758 H1771 0.961 . S
C1758 H1772 0.961 . S
C1759 C1756 1.539 . S
C1759 H1773 0.958 . S
C1759 H1774 0.961 . S
C1759 H1775 0.960 . S
H1760 C1744 0.931 . S
H1761 C1749 0.929 . S
H1762 C1750 0.960 . S
H1763 C1750 0.962 . S
H1764 C1750 0.960 . S
H1765 C1751 0.961 . S
H1766 C1751 0.961 . S
H1767 C1751 0.961 . S
H1768 C1752 0.931 . S
H1769 C1757 0.930 . S
H1770 C1758 0.956 . S
H1771 C1758 0.961 . S
H1772 C1758 0.961 . S
H1773 C1759 0.958 . S
H1774 C1759 0.961 . S
H1775 C1759 0.960 . S
C1776 C1777 1.391 . S
C1776 C1778 1.394 . S
C1776 H1792 0.931 . S
C1777 C1776 1.391 . S
C1777 C1781 1.376 . S
C1778 C1776 1.394 . S
C1778 C1779 1.369 . S
C1778 C1782 1.531 1_655 S
C1779 C1778 1.369 . S
C1779 C1780 1.410 . S
C1779 C1787 1.503 1_655 S
C1780 C1779 1.410 . S
C1780 C1781 1.392 . S
C1780 C1783 1.511 . S
C1781 C1777 1.376 . S
C1781 C1780 1.392 . S
C1781 H1793 0.929 . S
C1782 C1778 1.531 1_455 S
C1782 H1794 0.960 . S
C1782 H1795 0.962 . S
C1782 H1796 0.960 1_455 S
C1783 C1780 1.511 . S
C1783 H1797 0.961 . S
C1783 H1798 0.961 1_655 S
C1783 H1799 0.961 . S
C1784 C1785 1.370 . S
C1784 C1786 1.363 . S
C1784 H1800 0.931 . S
C1785 C1784 1.370 . S
C1785 C1789 1.408 . S
C1786 C1784 1.363 . S
C1786 C1787 1.370 . S
C1786 C1790 1.524 . S
C1787 C1779 1.503 1_455 S
C1787 C1786 1.370 . S
C1787 C1788 1.403 . S
C1788 C1787 1.403 . S
C1788 C1789 1.404 . S
C1788 C1791 1.539 1_455 S
C1789 C1785 1.408 . S
C1789 C1788 1.404 . S
C1789 H1801 0.930 . S
C1790 C1786 1.524 . S
C1790 H1802 0.956 . S
C1790 H1803 0.961 . S
C1790 H1804 0.961 . S
C1791 C1788 1.539 1_655 S
C1791 H1805 0.958 . S
C1791 H1806 0.961 . S
C1791 H1807 0.960 . S
H1792 C1776 0.931 . S
H1793 C1781 0.929 . S
H1794 C1782 0.960 . S
H1795 C1782 0.962 . S
H1796 C1782 0.960 1_655 S
H1797 C1783 0.961 . S
H1798 C1783 0.961 1_455 S
H1799 C1783 0.961 . S
H1800 C1784 0.931 . S
H1801 C1789 0.930 . S
H1802 C1790 0.956 . S
H1803 C1790 0.961 . S
H1804 C1790 0.961 . S
H1805 C1791 0.958 . S
H1806 C1791 0.961 . S
H1807 C1791 0.960 . S
C1808 C1809 1.391 . S
C1808 C1810 1.394 . S
C1808 H1824 0.931 . S
C1809 C1808 1.391 . S
C1809 C1813 1.376 . S
C1810 C1808 1.394 . S
C1810 C1811 1.369 . S
C1810 C1814 1.531 . S
C1811 C1810 1.369 . S
C1811 C1812 1.410 . S
C1811 C1819 1.503 . S
C1812 C1811 1.410 . S
C1812 C1813 1.392 . S
C1812 C1815 1.511 . S
C1813 C1809 1.376 . S
C1813 C1812 1.392 . S
C1813 H1825 0.929 . S
C1814 C1810 1.531 . S
C1814 H1826 0.960 . S
C1814 H1827 0.962 . S
C1814 H1828 0.960 . S
C1815 C1812 1.511 . S
C1815 H1829 0.961 . S
C1815 H1830 0.961 . S
C1815 H1831 0.961 . S
C1816 C1817 1.370 . S
C1816 C1818 1.363 . S
C1816 H1832 0.931 . S
C1817 C1816 1.370 . S
C1817 C1821 1.408 . S
C1818 C1816 1.363 . S
C1818 C1819 1.370 . S
C1818 C1822 1.524 . S
C1819 C1811 1.503 . S
C1819 C1818 1.370 . S
C1819 C1820 1.403 . S
C1820 C1819 1.403 . S
C1820 C1821 1.404 . S
C1820 C1823 1.539 . S
C1821 C1817 1.408 . S
C1821 C1820 1.404 . S
C1821 H1833 0.930 . S
C1822 C1818 1.524 . S
C1822 H1834 0.956 . S
C1822 H1835 0.961 . S
C1822 H1836 0.961 . S
C1823 C1820 1.539 . S
C1823 H1837 0.958 . S
C1823 H1838 0.961 . S
C1823 H1839 0.960 . S
H1824 C1808 0.931 . S
H1825 C1813 0.929 . S
H1826 C1814 0.960 . S
H1827 C1814 0.962 . S
H1828 C1814 0.960 . S
H1829 C1815 0.961 . S
H1830 C1815 0.961 . S
H1831 C1815 0.961 . S
H1832 C1816 0.931 . S
H1833 C1821 0.930 . S
H1834 C1822 0.956 . S
H1835 C1822 0.961 . S
H1836 C1822 0.961 . S
H1837 C1823 0.958 . S
H1838 C1823 0.961 . S
H1839 C1823 0.960 . S
C1840 C1841 1.391 . S
C1840 C1842 1.394 . S
C1840 H1856 0.931 . S
C1841 C1840 1.391 . S
C1841 C1845 1.376 . S
C1842 C1840 1.394 . S
C1842 C1843 1.369 1_565 S
C1842 C1846 1.531 . S
C1843 C1842 1.369 1_545 S
C1843 C1844 1.410 . S
C1843 C1851 1.503 . S
C1844 C1843 1.410 . S
C1844 C1845 1.392 1_545 S
C1844 C1847 1.511 . S
C1845 C1841 1.376 . S
C1845 C1844 1.392 1_565 S
C1845 H1857 0.929 . S
C1846 C1842 1.531 . S
C1846 H1858 0.960 . S
C1846 H1859 0.962 . S
C1846 H1860 0.960 . S
C1847 C1844 1.511 . S
C1847 H1861 0.961 . S
C1847 H1862 0.961 . S
C1847 H1863 0.961 . S
C1848 C1849 1.370 . S
C1848 C1850 1.363 . S
C1848 H1864 0.931 . S
C1849 C1848 1.370 . S
C1849 C1853 1.408 . S
C1850 C1848 1.363 . S
C1850 C1851 1.370 . S
C1850 C1854 1.524 . S
C1851 C1843 1.503 . S
C1851 C1850 1.370 . S
C1851 C1852 1.403 . S
C1852 C1851 1.403 . S
C1852 C1853 1.404 . S
C1852 C1855 1.539 . S
C1853 C1849 1.408 . S
C1853 C1852 1.404 . S
C1853 H1865 0.930 . S
C1854 C1850 1.524 . S
C1854 H1866 0.956 1_545 S
C1854 H1867 0.961 . S
C1854 H1868 0.961 . S
C1855 C1852 1.539 . S
C1855 H1869 0.958 . S
C1855 H1870 0.961 . S
C1855 H1871 0.960 . S
H1856 C1840 0.931 . S
H1857 C1845 0.929 . S
H1858 C1846 0.960 . S
H1859 C1846 0.962 . S
H1860 C1846 0.960 . S
H1861 C1847 0.961 . S
H1862 C1847 0.961 . S
H1863 C1847 0.961 . S
H1864 C1848 0.931 . S
H1865 C1853 0.930 . S
H1866 C1854 0.956 1_565 S
H1867 C1854 0.961 . S
H1868 C1854 0.961 . S
H1869 C1855 0.958 . S
H1870 C1855 0.961 . S
H1871 C1855 0.960 . S
C1872 C1873 1.391 . S
C1872 C1874 1.394 . S
C1872 H1888 0.931 . S
C1873 C1872 1.391 . S
C1873 C1877 1.376 . S
C1874 C1872 1.394 . S
C1874 C1875 1.369 . S
C1874 C1878 1.531 . S
C1875 C1874 1.369 . S
C1875 C1876 1.410 . S
C1875 C1883 1.503 . S
C1876 C1875 1.410 . S
C1876 C1877 1.392 . S
C1876 C1879 1.511 . S
C1877 C1873 1.376 . S
C1877 C1876 1.392 . S
C1877 H1889 0.929 . S
C1878 C1874 1.531 . S
C1878 H1890 0.960 . S
C1878 H1891 0.962 . S
C1878 H1892 0.960 . S
C1879 C1876 1.511 . S
C1879 H1893 0.961 . S
C1879 H1894 0.961 . S
C1879 H1895 0.961 . S
C1880 C1881 1.370 . S
C1880 C1882 1.363 . S
C1880 H1896 0.931 . S
C1881 C1880 1.370 . S
C1881 C1885 1.408 . S
C1882 C1880 1.363 . S
C1882 C1883 1.370 . S
C1882 C1886 1.524 . S
C1883 C1875 1.503 . S
C1883 C1882 1.370 . S
C1883 C1884 1.403 . S
C1884 C1883 1.403 . S
C1884 C1885 1.404 . S
C1884 C1887 1.539 . S
C1885 C1881 1.408 . S
C1885 C1884 1.404 . S
C1885 H1897 0.930 . S
C1886 C1882 1.524 . S
C1886 H1898 0.956 . S
C1886 H1899 0.961 . S
C1886 H1900 0.961 . S
C1887 C1884 1.539 . S
C1887 H1901 0.958 . S
C1887 H1902 0.961 . S
C1887 H1903 0.960 . S
H1888 C1872 0.931 . S
H1889 C1877 0.929 . S
H1890 C1878 0.960 . S
H1891 C1878 0.962 . S
H1892 C1878 0.960 . S
H1893 C1879 0.961 . S
H1894 C1879 0.961 . S
H1895 C1879 0.961 . S
H1896 C1880 0.931 . S
H1897 C1885 0.930 . S
H1898 C1886 0.956 . S
H1899 C1886 0.961 . S
H1900 C1886 0.961 . S
H1901 C1887 0.958 . S
H1902 C1887 0.961 . S
H1903 C1887 0.960 . S
C1904 C1905 1.391 . S
C1904 C1906 1.394 . S
C1904 H1920 0.931 . S
C1905 C1904 1.391 . S
C1905 C1909 1.376 . S
C1906 C1904 1.394 . S
C1906 C1907 1.369 . S
C1906 C1910 1.531 . S
C1907 C1906 1.369 . S
C1907 C1908 1.410 . S
C1907 C1915 1.503 . S
C1908 C1907 1.410 . S
C1908 C1909 1.392 . S
C1908 C1911 1.511 . S
C1909 C1905 1.376 . S
C1909 C1908 1.392 . S
C1909 H1921 0.929 . S
C1910 C1906 1.531 . S
C1910 H1922 0.960 . S
C1910 H1923 0.962 . S
C1910 H1924 0.960 . S
C1911 C1908 1.511 . S
C1911 H1925 0.961 . S
C1911 H1926 0.961 . S
C1911 H1927 0.961 . S
C1912 C1913 1.370 . S
C1912 C1914 1.363 . S
C1912 H1928 0.931 . S
C1913 C1912 1.370 . S
C1913 C1917 1.408 . S
C1914 C1912 1.363 . S
C1914 C1915 1.370 . S
C1914 C1918 1.524 . S
C1915 C1907 1.503 . S
C1915 C1914 1.370 . S
C1915 C1916 1.403 . S
C1916 C1915 1.403 . S
C1916 C1917 1.404 . S
C1916 C1919 1.539 . S
C1917 C1913 1.408 . S
C1917 C1916 1.404 . S
C1917 H1929 0.930 . S
C1918 C1914 1.524 . S
C1918 H1930 0.956 . S
C1918 H1931 0.961 . S
C1918 H1932 0.961 . S
C1919 C1916 1.539 . S
C1919 H1933 0.958 . S
C1919 H1934 0.961 . S
C1919 H1935 0.960 . S
H1920 C1904 0.931 . S
H1921 C1909 0.929 . S
H1922 C1910 0.960 . S
H1923 C1910 0.962 . S
H1924 C1910 0.960 . S
H1925 C1911 0.961 . S
H1926 C1911 0.961 . S
H1927 C1911 0.961 . S
H1928 C1912 0.931 . S
H1929 C1917 0.930 . S
H1930 C1918 0.956 . S
H1931 C1918 0.961 . S
H1932 C1918 0.961 . S
H1933 C1919 0.958 . S
H1934 C1919 0.961 . S
H1935 C1919 0.960 . S
C1936 C1937 1.391 . S
C1936 C1938 1.394 . S
C1936 H1952 0.931 . S
C1937 C1936 1.391 . S
C1937 C1941 1.376 . S
C1938 C1936 1.394 . S
C1938 C1939 1.369 . S
C1938 C1942 1.531 . S
C1939 C1938 1.369 . S
C1939 C1940 1.410 . S
C1939 C1947 1.503 . S
C1940 C1939 1.410 . S
C1940 C1941 1.392 . S
C1940 C1943 1.511 . S
C1941 C1937 1.376 . S
C1941 C1940 1.392 . S
C1941 H1953 0.929 . S
C1942 C1938 1.531 . S
C1942 H1954 0.960 . S
C1942 H1955 0.962 . S
C1942 H1956 0.960 . S
C1943 C1940 1.511 . S
C1943 H1957 0.961 . S
C1943 H1958 0.961 . S
C1943 H1959 0.961 . S
C1944 C1945 1.370 . S
C1944 C1946 1.363 . S
C1944 H1960 0.931 . S
C1945 C1944 1.370 . S
C1945 C1949 1.408 . S
C1946 C1944 1.363 . S
C1946 C1947 1.370 . S
C1946 C1950 1.524 . S
C1947 C1939 1.503 . S
C1947 C1946 1.370 . S
C1947 C1948 1.403 . S
C1948 C1947 1.403 . S
C1948 C1949 1.404 . S
C1948 C1951 1.539 . S
C1949 C1945 1.408 . S
C1949 C1948 1.404 . S
C1949 H1961 0.930 . S
C1950 C1946 1.524 . S
C1950 H1962 0.956 . S
C1950 H1963 0.961 . S
C1950 H1964 0.961 . S
C1951 C1948 1.539 . S
C1951 H1965 0.958 . S
C1951 H1966 0.961 . S
C1951 H1967 0.960 . S
H1952 C1936 0.931 . S
H1953 C1941 0.929 . S
H1954 C1942 0.960 . S
H1955 C1942 0.962 . S
H1956 C1942 0.960 . S
H1957 C1943 0.961 . S
H1958 C1943 0.961 . S
H1959 C1943 0.961 . S
H1960 C1944 0.931 . S
H1961 C1949 0.930 . S
H1962 C1950 0.956 . S
H1963 C1950 0.961 . S
H1964 C1950 0.961 . S
H1965 C1951 0.958 . S
H1966 C1951 0.961 . S
H1967 C1951 0.960 . S
C1968 C1969 1.391 . S
C1968 C1970 1.394 . S
C1968 H1984 0.931 . S
C1969 C1968 1.391 . S
C1969 C1973 1.376 . S
C1970 C1968 1.394 . S
C1970 C1971 1.369 . S
C1970 C1974 1.531 . S
C1971 C1970 1.369 . S
C1971 C1972 1.410 . S
C1971 C1979 1.503 . S
C1972 C1971 1.410 . S
C1972 C1973 1.392 . S
C1972 C1975 1.511 . S
C1973 C1969 1.376 . S
C1973 C1972 1.392 . S
C1973 H1985 0.929 . S
C1974 C1970 1.531 . S
C1974 H1986 0.960 . S
C1974 H1987 0.962 . S
C1974 H1988 0.960 . S
C1975 C1972 1.511 . S
C1975 H1989 0.961 . S
C1975 H1990 0.961 . S
C1975 H1991 0.961 . S
C1976 C1977 1.370 . S
C1976 C1978 1.363 . S
C1976 H1992 0.931 . S
C1977 C1976 1.370 . S
C1977 C1981 1.408 . S
C1978 C1976 1.363 . S
C1978 C1979 1.370 . S
C1978 C1982 1.524 . S
C1979 C1971 1.503 . S
C1979 C1978 1.370 . S
C1979 C1980 1.403 . S
C1980 C1979 1.403 . S
C1980 C1981 1.404 . S
C1980 C1983 1.539 . S
C1981 C1977 1.408 . S
C1981 C1980 1.404 . S
C1981 H1993 0.930 . S
C1982 C1978 1.524 . S
C1982 H1994 0.956 . S
C1982 H1995 0.961 . S
C1982 H1996 0.961 . S
C1983 C1980 1.539 . S
C1983 H1997 0.958 . S
C1983 H1998 0.961 . S
C1983 H1999 0.960 . S
H1984 C1968 0.931 . S
H1985 C1973 0.929 . S
H1986 C1974 0.960 . S
H1987 C1974 0.962 . S
H1988 C1974 0.960 . S
H1989 C1975 0.961 . S
H1990 C1975 0.961 . S
H1991 C1975 0.961 . S
H1992 C1976 0.931 . S
H1993 C1981 0.930 . S
H1994 C1982 0.956 . S
H1995 C1982 0.961 . S
H1996 C1982 0.961 . S
H1997 C1983 0.958 . S
H1998 C1983 0.961 . S
H1999 C1983 0.960 . S
C2000 C2001 1.391 . S
C2000 C2002 1.394 . S
C2000 H2016 0.931 . S
C2001 C2000 1.391 . S
C2001 C2005 1.376 . S
C2002 C2000 1.394 . S
C2002 C2003 1.369 . S
C2002 C2006 1.531 . S
C2003 C2002 1.369 . S
C2003 C2004 1.410 . S
C2003 C2011 1.503 . S
C2004 C2003 1.410 . S
C2004 C2005 1.392 . S
C2004 C2007 1.511 . S
C2005 C2001 1.376 . S
C2005 C2004 1.392 . S
C2005 H2017 0.929 . S
C2006 C2002 1.531 . S
C2006 H2018 0.960 . S
C2006 H2019 0.962 . S
C2006 H2020 0.960 . S
C2007 C2004 1.511 . S
C2007 H2021 0.961 . S
C2007 H2022 0.961 . S
C2007 H2023 0.961 . S
C2008 C2009 1.370 . S
C2008 C2010 1.363 . S
C2008 H2024 0.931 . S
C2009 C2008 1.370 . S
C2009 C2013 1.408 . S
C2010 C2008 1.363 . S
C2010 C2011 1.370 . S
C2010 C2014 1.524 . S
C2011 C2003 1.503 . S
C2011 C2010 1.370 . S
C2011 C2012 1.403 . S
C2012 C2011 1.403 . S
C2012 C2013 1.404 . S
C2012 C2015 1.539 . S
C2013 C2009 1.408 . S
C2013 C2012 1.404 . S
C2013 H2025 0.930 . S
C2014 C2010 1.524 . S
C2014 H2026 0.956 . S
C2014 H2027 0.961 . S
C2014 H2028 0.961 . S
C2015 C2012 1.539 . S
C2015 H2029 0.958 . S
C2015 H2030 0.961 . S
C2015 H2031 0.960 . S
H2016 C2000 0.931 . S
H2017 C2005 0.929 . S
H2018 C2006 0.960 . S
H2019 C2006 0.962 . S
H2020 C2006 0.960 . S
H2021 C2007 0.961 . S
H2022 C2007 0.961 . S
H2023 C2007 0.961 . S
H2024 C2008 0.931 . S
H2025 C2013 0.930 . S
H2026 C2014 0.956 . S
H2027 C2014 0.961 . S
H2028 C2014 0.961 . S
H2029 C2015 0.958 . S
H2030 C2015 0.961 . S
H2031 C2015 0.960 . S
C2032 C2033 1.391 . S
C2032 C2034 1.394 . S
C2032 H2048 0.931 . S
C2033 C2032 1.391 . S
C2033 C2037 1.376 . S
C2034 C2032 1.394 . S
C2034 C2035 1.369 . S
C2034 C2038 1.531 . S
C2035 C2034 1.369 . S
C2035 C2036 1.410 . S
C2035 C2043 1.503 . S
C2036 C2035 1.410 . S
C2036 C2037 1.392 . S
C2036 C2039 1.511 . S
C2037 C2033 1.376 . S
C2037 C2036 1.392 . S
C2037 H2049 0.929 . S
C2038 C2034 1.531 . S
C2038 H2050 0.960 . S
C2038 H2051 0.962 . S
C2038 H2052 0.960 . S
C2039 C2036 1.511 . S
C2039 H2053 0.961 . S
C2039 H2054 0.961 . S
C2039 H2055 0.961 . S
C2040 C2041 1.370 . S
C2040 C2042 1.363 . S
C2040 H2056 0.931 . S
C2041 C2040 1.370 . S
C2041 C2045 1.408 . S
C2042 C2040 1.363 . S
C2042 C2043 1.370 . S
C2042 C2046 1.524 . S
C2043 C2035 1.503 . S
C2043 C2042 1.370 . S
C2043 C2044 1.403 . S
C2044 C2043 1.403 . S
C2044 C2045 1.404 . S
C2044 C2047 1.539 . S
C2045 C2041 1.408 . S
C2045 C2044 1.404 . S
C2045 H2057 0.930 . S
C2046 C2042 1.524 . S
C2046 H2058 0.956 . S
C2046 H2059 0.961 . S
C2046 H2060 0.961 . S
C2047 C2044 1.539 . S
C2047 H2061 0.958 . S
C2047 H2062 0.961 . S
C2047 H2063 0.960 . S
H2048 C2032 0.931 . S
H2049 C2037 0.929 . S
H2050 C2038 0.960 . S
H2051 C2038 0.962 . S
H2052 C2038 0.960 . S
H2053 C2039 0.961 . S
H2054 C2039 0.961 . S
H2055 C2039 0.961 . S
H2056 C2040 0.931 . S
H2057 C2045 0.930 . S
H2058 C2046 0.956 . S
H2059 C2046 0.961 . S
H2060 C2046 0.961 . S
H2061 C2047 0.958 . S
H2062 C2047 0.961 . S
H2063 C2047 0.960 . S
C2064 C2065 1.391 . S
C2064 C2066 1.394 . S
C2064 H2080 0.931 . S
C2065 C2064 1.391 . S
C2065 C2069 1.376 . S
C2066 C2064 1.394 . S
C2066 C2067 1.369 . S
C2066 C2070 1.531 . S
C2067 C2066 1.369 . S
C2067 C2068 1.410 . S
C2067 C2075 1.503 . S
C2068 C2067 1.410 . S
C2068 C2069 1.392 . S
C2068 C2071 1.511 . S
C2069 C2065 1.376 . S
C2069 C2068 1.392 . S
C2069 H2081 0.929 . S
C2070 C2066 1.531 . S
C2070 H2082 0.960 . S
C2070 H2083 0.962 . S
C2070 H2084 0.960 . S
C2071 C2068 1.511 . S
C2071 H2085 0.961 . S
C2071 H2086 0.961 . S
C2071 H2087 0.961 . S
C2072 C2073 1.370 . S
C2072 C2074 1.363 . S
C2072 H2088 0.931 . S
C2073 C2072 1.370 . S
C2073 C2077 1.408 . S
C2074 C2072 1.363 . S
C2074 C2075 1.370 . S
C2074 C2078 1.524 . S
C2075 C2067 1.503 . S
C2075 C2074 1.370 . S
C2075 C2076 1.403 . S
C2076 C2075 1.403 . S
C2076 C2077 1.404 . S
C2076 C2079 1.539 . S
C2077 C2073 1.408 . S
C2077 C2076 1.404 . S
C2077 H2089 0.930 . S
C2078 C2074 1.524 . S
C2078 H2090 0.956 . S
C2078 H2091 0.961 . S
C2078 H2092 0.961 . S
C2079 C2076 1.539 . S
C2079 H2093 0.958 . S
C2079 H2094 0.961 . S
C2079 H2095 0.960 . S
H2080 C2064 0.931 . S
H2081 C2069 0.929 . S
H2082 C2070 0.960 . S
H2083 C2070 0.962 . S
H2084 C2070 0.960 . S
H2085 C2071 0.961 . S
H2086 C2071 0.961 . S
H2087 C2071 0.961 . S
H2088 C2072 0.931 . S
H2089 C2077 0.930 . S
H2090 C2078 0.956 . S
H2091 C2078 0.961 . S
H2092 C2078 0.961 . S
H2093 C2079 0.958 . S
H2094 C2079 0.961 . S
H2095 C2079 0.960 . S
C2096 C2097 1.391 . S
C2096 C2098 1.394 . S
C2096 H2112 0.931 . S
C2097 C2096 1.391 . S
C2097 C2101 1.376 . S
C2098 C2096 1.394 . S
C2098 C2099 1.369 . S
C2098 C2102 1.531 . S
C2099 C2098 1.369 . S
C2099 C2100 1.410 . S
C2099 C2107 1.503 . S
C2100 C2099 1.410 . S
C2100 C2101 1.392 . S
C2100 C2103 1.511 . S
C2101 C2097 1.376 . S
C2101 C2100 1.392 . S
C2101 H2113 0.929 . S
C2102 C2098 1.531 . S
C2102 H2114 0.960 . S
C2102 H2115 0.962 . S
C2102 H2116 0.960 . S
C2103 C2100 1.511 . S
C2103 H2117 0.961 . S
C2103 H2118 0.961 . S
C2103 H2119 0.961 . S
C2104 C2105 1.370 . S
C2104 C2106 1.363 . S
C2104 H2120 0.931 . S
C2105 C2104 1.370 . S
C2105 C2109 1.408 . S
C2106 C2104 1.363 . S
C2106 C2107 1.370 . S
C2106 C2110 1.524 . S
C2107 C2099 1.503 . S
C2107 C2106 1.370 . S
C2107 C2108 1.403 . S
C2108 C2107 1.403 . S
C2108 C2109 1.404 . S
C2108 C2111 1.539 . S
C2109 C2105 1.408 . S
C2109 C2108 1.404 . S
C2109 H2121 0.930 . S
C2110 C2106 1.524 . S
C2110 H2122 0.956 . S
C2110 H2123 0.961 . S
C2110 H2124 0.961 . S
C2111 C2108 1.539 . S
C2111 H2125 0.958 . S
C2111 H2126 0.961 . S
C2111 H2127 0.960 . S
H2112 C2096 0.931 . S
H2113 C2101 0.929 . S
H2114 C2102 0.960 . S
H2115 C2102 0.962 . S
H2116 C2102 0.960 . S
H2117 C2103 0.961 . S
H2118 C2103 0.961 . S
H2119 C2103 0.961 . S
H2120 C2104 0.931 . S
H2121 C2109 0.930 . S
H2122 C2110 0.956 . S
H2123 C2110 0.961 . S
H2124 C2110 0.961 . S
H2125 C2111 0.958 . S
H2126 C2111 0.961 . S
H2127 C2111 0.960 . S
C2128 C2129 1.391 . S
C2128 C2130 1.394 . S
C2128 H2144 0.931 . S
C2129 C2128 1.391 . S
C2129 C2133 1.376 . S
C2130 C2128 1.394 . S
C2130 C2131 1.369 . S
C2130 C2134 1.531 . S
C2131 C2130 1.369 . S
C2131 C2132 1.410 . S
C2131 C2139 1.503 . S
C2132 C2131 1.410 . S
C2132 C2133 1.392 . S
C2132 C2135 1.511 . S
C2133 C2129 1.376 . S
C2133 C2132 1.392 . S
C2133 H2145 0.929 . S
C2134 C2130 1.531 . S
C2134 H2146 0.960 . S
C2134 H2147 0.962 . S
C2134 H2148 0.960 . S
C2135 C2132 1.511 . S
C2135 H2149 0.961 . S
C2135 H2150 0.961 . S
C2135 H2151 0.961 . S
C2136 C2137 1.370 . S
C2136 C2138 1.363 . S
C2136 H2152 0.931 . S
C2137 C2136 1.370 . S
C2137 C2141 1.408 . S
C2138 C2136 1.363 . S
C2138 C2139 1.370 . S
C2138 C2142 1.524 . S
C2139 C2131 1.503 . S
C2139 C2138 1.370 . S
C2139 C2140 1.403 . S
C2140 C2139 1.403 . S
C2140 C2141 1.404 . S
C2140 C2143 1.539 . S
C2141 C2137 1.408 . S
C2141 C2140 1.404 . S
C2141 H2153 0.930 . S
C2142 C2138 1.524 . S
C2142 H2154 0.956 . S
C2142 H2155 0.961 . S
C2142 H2156 0.961 . S
C2143 C2140 1.539 . S
C2143 H2157 0.958 . S
C2143 H2158 0.961 . S
C2143 H2159 0.960 . S
H2144 C2128 0.931 . S
H2145 C2133 0.929 . S
H2146 C2134 0.960 . S
H2147 C2134 0.962 . S
H2148 C2134 0.960 . S
H2149 C2135 0.961 . S
H2150 C2135 0.961 . S
H2151 C2135 0.961 . S
H2152 C2136 0.931 . S
H2153 C2141 0.930 . S
H2154 C2142 0.956 . S
H2155 C2142 0.961 . S
H2156 C2142 0.961 . S
H2157 C2143 0.958 . S
H2158 C2143 0.961 . S
H2159 C2143 0.960 . S
C2160 C2161 1.391 . S
C2160 C2162 1.394 . S
C2160 H2176 0.931 . S
C2161 C2160 1.391 . S
C2161 C2165 1.376 . S
C2162 C2160 1.394 . S
C2162 C2163 1.369 1_655 S
C2162 C2166 1.531 1_655 S
C2163 C2162 1.369 1_455 S
C2163 C2164 1.410 1_455 S
C2163 C2171 1.503 . S
C2164 C2163 1.410 1_655 S
C2164 C2165 1.392 . S
C2164 C2167 1.511 . S
C2165 C2161 1.376 . S
C2165 C2164 1.392 . S
C2165 H2177 0.929 . S
C2166 C2162 1.531 1_455 S
C2166 H2178 0.960 . S
C2166 H2179 0.962 . S
C2166 H2180 0.960 . S
C2167 C2164 1.511 . S
C2167 H2181 0.961 . S
C2167 H2182 0.961 1_655 S
C2167 H2183 0.961 . S
C2168 C2169 1.370 . S
C2168 C2170 1.363 . S
C2168 H2184 0.931 . S
C2169 C2168 1.370 . S
C2169 C2173 1.408 . S
C2170 C2168 1.363 . S
C2170 C2171 1.370 . S
C2170 C2174 1.524 . S
C2171 C2163 1.503 . S
C2171 C2170 1.370 . S
C2171 C2172 1.403 . S
C2172 C2171 1.403 . S
C2172 C2173 1.404 . S
C2172 C2175 1.539 . S
C2173 C2169 1.408 . S
C2173 C2172 1.404 . S
C2173 H2185 0.930 . S
C2174 C2170 1.524 . S
C2174 H2186 0.956 . S
C2174 H2187 0.961 1_455 S
C2174 H2188 0.961 . S
C2175 C2172 1.539 . S
C2175 H2189 0.958 . S
C2175 H2190 0.961 . S
C2175 H2191 0.960 . S
H2176 C2160 0.931 . S
H2177 C2165 0.929 . S
H2178 C2166 0.960 . S
H2179 C2166 0.962 . S
H2180 C2166 0.960 . S
H2181 C2167 0.961 . S
H2182 C2167 0.961 1_455 S
H2183 C2167 0.961 . S
H2184 C2168 0.931 . S
H2185 C2173 0.930 . S
H2186 C2174 0.956 . S
H2187 C2174 0.961 1_655 S
H2188 C2174 0.961 . S
H2189 C2175 0.958 . S
H2190 C2175 0.961 . S
H2191 C2175 0.960 . S
C2192 C2193 1.391 . S
C2192 C2194 1.394 . S
C2192 H2208 0.931 . S
C2193 C2192 1.391 . S
C2193 C2197 1.376 . S
C2194 C2192 1.394 . S
C2194 C2195 1.369 . S
C2194 C2198 1.531 . S
C2195 C2194 1.369 . S
C2195 C2196 1.410 . S
C2195 C2203 1.503 . S
C2196 C2195 1.410 . S
C2196 C2197 1.392 . S
C2196 C2199 1.511 . S
C2197 C2193 1.376 . S
C2197 C2196 1.392 . S
C2197 H2209 0.929 . S
C2198 C2194 1.531 . S
C2198 H2210 0.960 . S
C2198 H2211 0.962 . S
C2198 H2212 0.960 . S
C2199 C2196 1.511 . S
C2199 H2213 0.961 . S
C2199 H2214 0.961 . S
C2199 H2215 0.961 . S
C2200 C2201 1.370 . S
C2200 C2202 1.363 . S
C2200 H2216 0.931 . S
C2201 C2200 1.370 . S
C2201 C2205 1.408 . S
C2202 C2200 1.363 . S
C2202 C2203 1.370 . S
C2202 C2206 1.524 . S
C2203 C2195 1.503 . S
C2203 C2202 1.370 . S
C2203 C2204 1.403 . S
C2204 C2203 1.403 . S
C2204 C2205 1.404 . S
C2204 C2207 1.539 . S
C2205 C2201 1.408 . S
C2205 C2204 1.404 . S
C2205 H2217 0.930 . S
C2206 C2202 1.524 . S
C2206 H2218 0.956 . S
C2206 H2219 0.961 . S
C2206 H2220 0.961 . S
C2207 C2204 1.539 . S
C2207 H2221 0.958 . S
C2207 H2222 0.961 . S
C2207 H2223 0.960 . S
H2208 C2192 0.931 . S
H2209 C2197 0.929 . S
H2210 C2198 0.960 . S
H2211 C2198 0.962 . S
H2212 C2198 0.960 . S
H2213 C2199 0.961 . S
H2214 C2199 0.961 . S
H2215 C2199 0.961 . S
H2216 C2200 0.931 . S
H2217 C2205 0.930 . S
H2218 C2206 0.956 . S
H2219 C2206 0.961 . S
H2220 C2206 0.961 . S
H2221 C2207 0.958 . S
H2222 C2207 0.961 . S
H2223 C2207 0.960 . S
C2224 C2225 1.391 . S
C2224 C2226 1.394 . S
C2224 H2240 0.931 . S
C2225 C2224 1.391 . S
C2225 C2229 1.376 . S
C2226 C2224 1.394 . S
C2226 C2227 1.369 . S
C2226 C2230 1.531 . S
C2227 C2226 1.369 . S
C2227 C2228 1.410 . S
C2227 C2235 1.503 1_565 S
C2228 C2227 1.410 . S
C2228 C2229 1.392 . S
C2228 C2231 1.511 1_565 S
C2229 C2225 1.376 . S
C2229 C2228 1.392 . S
C2229 H2241 0.929 . S
C2230 C2226 1.531 . S
C2230 H2242 0.960 . S
C2230 H2243 0.962 . S
C2230 H2244 0.960 . S
C2231 C2228 1.511 1_545 S
C2231 H2245 0.961 . S
C2231 H2246 0.961 . S
C2231 H2247 0.961 . S
C2232 C2233 1.370 . S
C2232 C2234 1.363 . S
C2232 H2248 0.931 . S
C2233 C2232 1.370 . S
C2233 C2237 1.408 . S
C2234 C2232 1.363 . S
C2234 C2235 1.370 . S
C2234 C2238 1.524 . S
C2235 C2227 1.503 1_545 S
C2235 C2234 1.370 . S
C2235 C2236 1.403 . S
C2236 C2235 1.403 . S
C2236 C2237 1.404 . S
C2236 C2239 1.539 . S
C2237 C2233 1.408 . S
C2237 C2236 1.404 . S
C2237 H2249 0.930 . S
C2238 C2234 1.524 . S
C2238 H2250 0.956 . S
C2238 H2251 0.961 . S
C2238 H2252 0.961 . S
C2239 C2236 1.539 . S
C2239 H2253 0.958 . S
C2239 H2254 0.961 . S
C2239 H2255 0.960 . S
H2240 C2224 0.931 . S
H2241 C2229 0.929 . S
H2242 C2230 0.960 . S
H2243 C2230 0.962 . S
H2244 C2230 0.960 . S
H2245 C2231 0.961 . S
H2246 C2231 0.961 . S
H2247 C2231 0.961 . S
H2248 C2232 0.931 . S
H2249 C2237 0.930 . S
H2250 C2238 0.956 . S
H2251 C2238 0.961 . S
H2252 C2238 0.961 . S
H2253 C2239 0.958 . S
H2254 C2239 0.961 . S
H2255 C2239 0.960 . S
C2256 C2257 1.391 . S
C2256 C2258 1.394 . S
C2256 H2272 0.931 . S
C2257 C2256 1.391 . S
C2257 C2261 1.376 . S
C2258 C2256 1.394 . S
C2258 C2259 1.367 . S
C2258 C2262 1.531 1_565 S
C2259 C2258 1.367 . S
C2259 C2260 1.408 . S
C2259 C2267 1.507 1_565 S
C2260 C2259 1.408 . S
C2260 C2261 1.392 . S
C2260 C2263 1.511 . S
C2261 C2257 1.376 . S
C2261 C2260 1.392 . S
C2261 H2273 0.929 . S
C2262 C2258 1.531 1_545 S
C2262 H2274 0.960 . S
C2262 H2275 0.962 . S
C2262 H2276 0.960 . S
C2263 C2260 1.511 . S
C2263 H2277 0.961 . S
C2263 H2278 0.961 . S
C2263 H2279 0.961 . S
C2264 C2265 1.370 . S
C2264 C2266 1.363 . S
C2264 H2280 0.931 . S
C2265 C2264 1.370 . S
C2265 C2269 1.408 . S
C2266 C2264 1.363 . S
C2266 C2267 1.370 . S
C2266 C2270 1.524 . S
C2267 C2259 1.507 1_545 S
C2267 C2266 1.370 . S
C2267 C2268 1.403 . S
C2268 C2267 1.403 . S
C2268 C2269 1.404 . S
C2268 C2271 1.539 . S
C2269 C2265 1.408 . S
C2269 C2268 1.404 . S
C2269 H2281 0.930 . S
C2270 C2266 1.524 . S
C2270 H2282 0.956 . S
C2270 H2283 0.961 . S
C2270 H2284 0.961 . S
C2271 C2268 1.539 . S
C2271 H2285 0.958 . S
C2271 H2286 0.961 . S
C2271 H2287 0.960 . S
H2272 C2256 0.931 . S
H2273 C2261 0.929 . S
H2274 C2262 0.960 . S
H2275 C2262 0.962 . S
H2276 C2262 0.960 . S
H2277 C2263 0.961 . S
H2278 C2263 0.961 . S
H2279 C2263 0.961 . S
H2280 C2264 0.931 . S
H2281 C2269 0.930 . S
H2282 C2270 0.956 . S
H2283 C2270 0.961 . S
H2284 C2270 0.961 . S
H2285 C2271 0.958 . S
H2286 C2271 0.961 . S
H2287 C2271 0.960 . S
C2288 C2289 1.391 . S
C2288 C2290 1.394 . S
C2288 H2304 0.931 . S
C2289 C2288 1.391 . S
C2289 C2293 1.376 . S
C2290 C2288 1.394 . S
C2290 C2291 1.369 . S
C2290 C2294 1.531 . S
C2291 C2290 1.369 . S
C2291 C2292 1.410 . S
C2291 C2299 1.503 1_455 S
C2292 C2291 1.410 . S
C2292 C2293 1.392 . S
C2292 C2295 1.511 . S
C2293 C2289 1.376 . S
C2293 C2292 1.392 . S
C2293 H2305 0.929 . S
C2294 C2290 1.531 . S
C2294 H2306 0.960 . S
C2294 H2307 0.962 . S
C2294 H2308 0.960 . S
C2295 C2292 1.511 . S
C2295 H2309 0.961 . S
C2295 H2310 0.961 . S
C2295 H2311 0.961 . S
C2296 C2297 1.370 . S
C2296 C2298 1.363 . S
C2296 H2312 0.931 . S
C2297 C2296 1.370 . S
C2297 C2301 1.408 . S
C2298 C2296 1.363 . S
C2298 C2299 1.370 . S
C2298 C2302 1.524 . S
C2299 C2291 1.503 1_655 S
C2299 C2298 1.370 . S
C2299 C2300 1.403 . S
C2300 C2299 1.403 . S
C2300 C2301 1.404 . S
C2300 C2303 1.539 1_655 S
C2301 C2297 1.408 . S
C2301 C2300 1.404 . S
C2301 H2313 0.930 . S
C2302 C2298 1.524 . S
C2302 H2314 0.956 . S
C2302 H2315 0.961 1_655 S
C2302 H2316 0.961 . S
C2303 C2300 1.539 1_455 S
C2303 H2317 0.958 . S
C2303 H2318 0.961 . S
C2303 H2319 0.960 . S
H2304 C2288 0.931 . S
H2305 C2293 0.929 . S
H2306 C2294 0.960 . S
H2307 C2294 0.962 . S
H2308 C2294 0.960 . S
H2309 C2295 0.961 . S
H2310 C2295 0.961 . S
H2311 C2295 0.961 . S
H2312 C2296 0.931 . S
H2313 C2301 0.930 . S
H2314 C2302 0.956 . S
H2315 C2302 0.961 1_455 S
H2316 C2302 0.961 . S
H2317 C2303 0.958 . S
H2318 C2303 0.961 . S
H2319 C2303 0.960 . S
C2320 C2321 1.391 . S
C2320 C2322 1.394 . S
C2320 H2336 0.931 . S
C2321 C2320 1.391 . S
C2321 C2325 1.376 . S
C2322 C2320 1.394 . S
C2322 C2323 1.369 . S
C2322 C2326 1.531 . S
C2323 C2322 1.369 . S
C2323 C2324 1.410 . S
C2323 C2331 1.503 . S
C2324 C2323 1.410 . S
C2324 C2325 1.392 . S
C2324 C2327 1.511 . S
C2325 C2321 1.376 . S
C2325 C2324 1.392 . S
C2325 H2337 0.929 . S
C2326 C2322 1.531 . S
C2326 H2338 0.960 . S
C2326 H2339 0.962 . S
C2326 H2340 0.960 . S
C2327 C2324 1.511 . S
C2327 H2341 0.961 . S
C2327 H2342 0.961 . S
C2327 H2343 0.961 . S
C2328 C2329 1.370 . S
C2328 C2330 1.363 . S
C2328 H2344 0.931 . S
C2329 C2328 1.370 . S
C2329 C2333 1.408 . S
C2330 C2328 1.363 . S
C2330 C2331 1.370 . S
C2330 C2334 1.524 . S
C2331 C2323 1.503 . S
C2331 C2330 1.370 . S
C2331 C2332 1.403 . S
C2332 C2331 1.403 . S
C2332 C2333 1.404 . S
C2332 C2335 1.539 . S
C2333 C2329 1.408 . S
C2333 C2332 1.404 . S
C2333 H2345 0.930 . S
C2334 C2330 1.524 . S
C2334 H2346 0.956 . S
C2334 H2347 0.961 . S
C2334 H2348 0.961 . S
C2335 C2332 1.539 . S
C2335 H2349 0.958 . S
C2335 H2350 0.961 . S
C2335 H2351 0.960 . S
H2336 C2320 0.931 . S
H2337 C2325 0.929 . S
H2338 C2326 0.960 . S
H2339 C2326 0.962 . S
H2340 C2326 0.960 . S
H2341 C2327 0.961 . S
H2342 C2327 0.961 . S
H2343 C2327 0.961 . S
H2344 C2328 0.931 . S
H2345 C2333 0.930 . S
H2346 C2334 0.956 . S
H2347 C2334 0.961 . S
H2348 C2334 0.961 . S
H2349 C2335 0.958 . S
H2350 C2335 0.961 . S
H2351 C2335 0.960 . S
C2352 C2353 1.391 . S
C2352 C2354 1.394 . S
C2352 H2368 0.931 . S
C2353 C2352 1.391 . S
C2353 C2357 1.376 . S
C2354 C2352 1.394 . S
C2354 C2355 1.369 . S
C2354 C2358 1.531 . S
C2355 C2354 1.369 . S
C2355 C2356 1.410 . S
C2355 C2363 1.503 . S
C2356 C2355 1.410 . S
C2356 C2357 1.392 . S
C2356 C2359 1.511 . S
C2357 C2353 1.376 . S
C2357 C2356 1.392 . S
C2357 H2369 0.929 . S
C2358 C2354 1.531 . S
C2358 H2370 0.960 . S
C2358 H2371 0.962 . S
C2358 H2372 0.960 . S
C2359 C2356 1.511 . S
C2359 H2373 0.961 . S
C2359 H2374 0.961 . S
C2359 H2375 0.961 . S
C2360 C2361 1.370 . S
C2360 C2362 1.363 . S
C2360 H2376 0.931 . S
C2361 C2360 1.370 . S
C2361 C2365 1.408 . S
C2362 C2360 1.363 . S
C2362 C2363 1.370 . S
C2362 C2366 1.524 . S
C2363 C2355 1.503 . S
C2363 C2362 1.370 . S
C2363 C2364 1.403 . S
C2364 C2363 1.403 . S
C2364 C2365 1.404 . S
C2364 C2367 1.539 . S
C2365 C2361 1.408 . S
C2365 C2364 1.404 . S
C2365 H2377 0.930 . S
C2366 C2362 1.524 . S
C2366 H2378 0.956 . S
C2366 H2379 0.961 . S
C2366 H2380 0.961 . S
C2367 C2364 1.539 . S
C2367 H2381 0.958 . S
C2367 H2382 0.961 . S
C2367 H2383 0.960 . S
H2368 C2352 0.931 . S
H2369 C2357 0.929 . S
H2370 C2358 0.960 . S
H2371 C2358 0.962 . S
H2372 C2358 0.960 . S
H2373 C2359 0.961 . S
H2374 C2359 0.961 . S
H2375 C2359 0.961 . S
H2376 C2360 0.931 . S
H2377 C2365 0.930 . S
H2378 C2366 0.956 . S
H2379 C2366 0.961 . S
H2380 C2366 0.961 . S
H2381 C2367 0.958 . S
H2382 C2367 0.961 . S
H2383 C2367 0.960 . S
C2384 C2385 1.391 . S
C2384 C2386 1.394 . S
C2384 H2400 0.931 . S
C2385 C2384 1.391 . S
C2385 C2389 1.376 . S
C2386 C2384 1.394 . S
C2386 C2387 1.369 . S
C2386 C2390 1.531 . S
C2387 C2386 1.369 . S
C2387 C2388 1.410 . S
C2387 C2395 1.503 . S
C2388 C2387 1.410 . S
C2388 C2389 1.392 . S
C2388 C2391 1.511 . S
C2389 C2385 1.376 . S
C2389 C2388 1.392 . S
C2389 H2401 0.929 . S
C2390 C2386 1.531 . S
C2390 H2402 0.960 . S
C2390 H2403 0.962 . S
C2390 H2404 0.960 . S
C2391 C2388 1.511 . S
C2391 H2405 0.961 . S
C2391 H2406 0.961 . S
C2391 H2407 0.961 . S
C2392 C2393 1.370 . S
C2392 C2394 1.363 . S
C2392 H2408 0.931 . S
C2393 C2392 1.370 . S
C2393 C2397 1.408 . S
C2394 C2392 1.363 . S
C2394 C2395 1.370 . S
C2394 C2398 1.524 . S
C2395 C2387 1.503 . S
C2395 C2394 1.370 . S
C2395 C2396 1.403 . S
C2396 C2395 1.403 . S
C2396 C2397 1.404 . S
C2396 C2399 1.539 . S
C2397 C2393 1.408 . S
C2397 C2396 1.404 . S
C2397 H2409 0.930 . S
C2398 C2394 1.524 . S
C2398 H2410 0.956 . S
C2398 H2411 0.961 . S
C2398 H2412 0.961 . S
C2399 C2396 1.539 . S
C2399 H2413 0.958 . S
C2399 H2414 0.961 . S
C2399 H2415 0.960 . S
H2400 C2384 0.931 . S
H2401 C2389 0.929 . S
H2402 C2390 0.960 . S
H2403 C2390 0.962 . S
H2404 C2390 0.960 . S
H2405 C2391 0.961 . S
H2406 C2391 0.961 . S
H2407 C2391 0.961 . S
H2408 C2392 0.931 . S
H2409 C2397 0.930 . S
H2410 C2398 0.956 . S
H2411 C2398 0.961 . S
H2412 C2398 0.961 . S
H2413 C2399 0.958 . S
H2414 C2399 0.961 . S
H2415 C2399 0.960 . S
C2416 C2417 1.391 . S
C2416 C2418 1.394 . S
C2416 H2432 0.931 . S
C2417 C2416 1.391 . S
C2417 C2421 1.376 . S
C2418 C2416 1.394 . S
C2418 C2419 1.369 . S
C2418 C2422 1.531 . S
C2419 C2418 1.369 . S
C2419 C2420 1.410 . S
C2419 C2427 1.503 . S
C2420 C2419 1.410 . S
C2420 C2421 1.392 . S
C2420 C2423 1.511 . S
C2421 C2417 1.376 . S
C2421 C2420 1.392 . S
C2421 H2433 0.929 . S
C2422 C2418 1.531 . S
C2422 H2434 0.960 . S
C2422 H2435 0.962 . S
C2422 H2436 0.960 . S
C2423 C2420 1.511 . S
C2423 H2437 0.961 . S
C2423 H2438 0.961 . S
C2423 H2439 0.961 . S
C2424 C2425 1.370 . S
C2424 C2426 1.363 . S
C2424 H2440 0.931 . S
C2425 C2424 1.370 . S
C2425 C2429 1.408 . S
C2426 C2424 1.363 . S
C2426 C2427 1.370 . S
C2426 C2430 1.524 . S
C2427 C2419 1.503 . S
C2427 C2426 1.370 . S
C2427 C2428 1.403 . S
C2428 C2427 1.403 . S
C2428 C2429 1.404 . S
C2428 C2431 1.539 . S
C2429 C2425 1.408 . S
C2429 C2428 1.404 . S
C2429 H2441 0.930 . S
C2430 C2426 1.524 . S
C2430 H2442 0.956 . S
C2430 H2443 0.961 . S
C2430 H2444 0.961 . S
C2431 C2428 1.539 . S
C2431 H2445 0.958 . S
C2431 H2446 0.961 . S
C2431 H2447 0.960 . S
H2432 C2416 0.931 . S
H2433 C2421 0.929 . S
H2434 C2422 0.960 . S
H2435 C2422 0.962 . S
H2436 C2422 0.960 . S
H2437 C2423 0.961 . S
H2438 C2423 0.961 . S
H2439 C2423 0.961 . S
H2440 C2424 0.931 . S
H2441 C2429 0.930 . S
H2442 C2430 0.956 . S
H2443 C2430 0.961 . S
H2444 C2430 0.961 . S
H2445 C2431 0.958 . S
H2446 C2431 0.961 . S
H2447 C2431 0.960 . S
C721 C15 1.216 . S
C729 C99 1.287 . S
C753 C19 1.281 . S
C761 C55 1.250 . S
C785 C59 1.286 . S
C793 C95 1.242 . S
C817 C135 1.228 . S
C825 C179 1.286 . S
C849 C219 1.280 . S
C857 C175 1.251 . S
C881 C215 1.215 . S
C889 C139 1.288 . S
C913 C339 1.290 . S
C921 C255 1.237 . S
C945 C259 1.283 . S
C953 C295 1.248 . S
C977 C335 1.237 1_655 S
C985 C299 1.285 . S
C1009 C419 1.284 . S
C1017 C375 1.246 . S
C1041 C415 1.229 . S
C1049 C459 1.286 . S
C1073 C379 1.275 . S
C1081 C455 1.257 . S
C1105 C495 1.226 . S
C1113 C579 1.286 . S
C1137 C499 1.286 . S
C1145 C535 1.243 . S
C1169 C539 1.283 . S
C1177 C575 1.248 . S
C1201 C659 1.272 . S
C1209 C615 1.262 . S
C1233 C699 1.274 . S
C1241 C655 1.259 1_565 S
C1265 C619 1.272 . S
C1273 C695 1.262 . S
C1297 C18 1.737 . S
C1305 C218 1.771 . S
C1329 C138 1.733 . S
C1337 C58 1.769 . S
C1361 C178 1.781 . S
C1369 C98 1.754 . S
C1393 C258 1.748 . S
C1401 C458 1.758 . S
C1425 C298 1.770 . S
C1433 C378 1.764 . S
C1457 C418 1.781 . S
C1465 C338 1.754 . S
C1489 C498 1.740 . S
C1497 C698 1.771 . S
C1521 C618 1.735 . S
C1529 C538 1.765 . S
C1553 C658 1.781 . S
C1561 C578 1.755 . S
C1585 C409 2.032 . S
C1593 C9 2.074 1_565 S
C1617 C49 2.029 . S
C1625 C449 2.078 . S
C1649 C369 2.071 . S
C1657 C89 2.081 . S
C1681 C129 2.040 1_655 S
C1689 C569 2.086 . S
C1713 C169 2.029 . S
C1721 C489 2.080 . S
C1745 C529 2.049 . S
C1753 C209 2.086 . S
C1777 C649 2.101 . S
C1785 C249 2.058 . S
C1809 C289 2.053 . S
C1817 C689 2.062 . S
C1841 C329 2.031 . S
C1849 C609 2.075 . S
C1873 C90 1.794 . S
C1881 C6 1.811 . S
C1905 C10 1.805 . S
C1913 C46 1.816 . S
C1937 C86 1.818 . S
C1945 C50 1.797 . S
C1969 C170 1.795 . S
C1977 C126 1.811 . S
C2001 C210 1.781 . S
C2009 C166 1.813 . S
C2033 C206 1.818 . S
C2041 C130 1.799 . S
C2065 C330 1.779 . S
C2073 C246 1.814 . S
C2097 C286 1.804 . S
C2105 C250 1.804 . S
C2129 C290 1.800 . S
C2137 C326 1.817 . S
C2161 C366 1.817 . S
C2169 C410 1.800 . S
C2193 C406 1.818 . S
C2201 C450 1.797 . S
C2225 C370 1.795 . S
C2233 C446 1.811 . S
C2257 C486 1.818 . S
C2265 C570 1.796 . S
C2289 C526 1.814 . S
C2297 C490 1.792 . S
C2321 C530 1.779 . S
C2329 C566 1.814 . S
C2353 C606 1.817 . S
C2361 C650 1.799 . S
C2385 C646 1.817 . S
C2393 C690 1.800 . S
C2417 C610 1.786 . S
C2425 C686 1.812 . S
