# Generated by pormake.
# Topology unb, (4)-cn, num edge types: 1
# Building blocks:
#     Node 0, Type 0, BuildingBlock: GALJAG_clean_sbu_0, # of connection points: 4
#     Node 1, Type 0, BuildingBlock: GALJAG_clean_sbu_0, # of connection points: 4
#     Node 2, Type 0, BuildingBlock: GALJAG_clean_sbu_0, # of connection points: 4
#     Node 3, Type 0, BuildingBlock: GALJAG_clean_sbu_0, # of connection points: 4
#     Node 4, Type 0, BuildingBlock: GALJAG_clean_sbu_0, # of connection points: 4
#     Node 5, Type 0, BuildingBlock: GALJAG_clean_sbu_0, # of connection points: 4
#     Node 6, Type 0, BuildingBlock: GALJAG_clean_sbu_0, # of connection points: 4
#     Node 7, Type 0, BuildingBlock: GALJAG_clean_sbu_0, # of connection points: 4
#     Node 8, Type 0, BuildingBlock: GALJAG_clean_sbu_0, # of connection points: 4
#     Node 9, Type 0, BuildingBlock: GALJAG_clean_sbu_0, # of connection points: 4
#     Node 10, Type 0, BuildingBlock: GALJAG_clean_sbu_0, # of connection points: 4
#     Node 11, Type 0, BuildingBlock: GALJAG_clean_sbu_0, # of connection points: 4
#     Node 12, Type 0, BuildingBlock: GALJAG_clean_sbu_0, # of connection points: 4
#     Node 13, Type 0, BuildingBlock: GALJAG_clean_sbu_0, # of connection points: 4
#     Node 14, Type 0, BuildingBlock: GALJAG_clean_sbu_0, # of connection points: 4
#     Node 15, Type 0, BuildingBlock: GALJAG_clean_sbu_0, # of connection points: 4
#     Node 16, Type 0, BuildingBlock: GALJAG_clean_sbu_0, # of connection points: 4
#     Node 17, Type 0, BuildingBlock: GALJAG_clean_sbu_0, # of connection points: 4
#     Edge 18, Type (0, 0), BuildingBlock: KIFKEQ_clean_linker_1, # of connection points: 2
#     Edge 19, Type (0, 0), BuildingBlock: KIFKEQ_clean_linker_1, # of connection points: 2
#     Edge 20, Type (0, 0), BuildingBlock: KIFKEQ_clean_linker_1, # of connection points: 2
#     Edge 21, Type (0, 0), BuildingBlock: KIFKEQ_clean_linker_1, # of connection points: 2
#     Edge 22, Type (0, 0), BuildingBlock: KIFKEQ_clean_linker_1, # of connection points: 2
#     Edge 23, Type (0, 0), BuildingBlock: KIFKEQ_clean_linker_1, # of connection points: 2
#     Edge 24, Type (0, 0), BuildingBlock: KIFKEQ_clean_linker_1, # of connection points: 2
#     Edge 25, Type (0, 0), BuildingBlock: KIFKEQ_clean_linker_1, # of connection points: 2
#     Edge 26, Type (0, 0), BuildingBlock: KIFKEQ_clean_linker_1, # of connection points: 2
#     Edge 27, Type (0, 0), BuildingBlock: KIFKEQ_clean_linker_1, # of connection points: 2
#     Edge 28, Type (0, 0), BuildingBlock: KIFKEQ_clean_linker_1, # of connection points: 2
#     Edge 29, Type (0, 0), BuildingBlock: KIFKEQ_clean_linker_1, # of connection points: 2
#     Edge 30, Type (0, 0), BuildingBlock: KIFKEQ_clean_linker_1, # of connection points: 2
#     Edge 31, Type (0, 0), BuildingBlock: KIFKEQ_clean_linker_1, # of connection points: 2
#     Edge 32, Type (0, 0), BuildingBlock: KIFKEQ_clean_linker_1, # of connection points: 2
#     Edge 33, Type (0, 0), BuildingBlock: KIFKEQ_clean_linker_1, # of connection points: 2
#     Edge 34, Type (0, 0), BuildingBlock: KIFKEQ_clean_linker_1, # of connection points: 2
#     Edge 35, Type (0, 0), BuildingBlock: KIFKEQ_clean_linker_1, # of connection points: 2
#     Edge 36, Type (0, 0), BuildingBlock: KIFKEQ_clean_linker_1, # of connection points: 2
#     Edge 37, Type (0, 0), BuildingBlock: KIFKEQ_clean_linker_1, # of connection points: 2
#     Edge 38, Type (0, 0), BuildingBlock: KIFKEQ_clean_linker_1, # of connection points: 2
#     Edge 39, Type (0, 0), BuildingBlock: KIFKEQ_clean_linker_1, # of connection points: 2
#     Edge 40, Type (0, 0), BuildingBlock: KIFKEQ_clean_linker_1, # of connection points: 2
#     Edge 41, Type (0, 0), BuildingBlock: KIFKEQ_clean_linker_1, # of connection points: 2
#     Edge 42, Type (0, 0), BuildingBlock: KIFKEQ_clean_linker_1, # of connection points: 2
#     Edge 43, Type (0, 0), BuildingBlock: KIFKEQ_clean_linker_1, # of connection points: 2
#     Edge 44, Type (0, 0), BuildingBlock: KIFKEQ_clean_linker_1, # of connection points: 2
#     Edge 45, Type (0, 0), BuildingBlock: KIFKEQ_clean_linker_1, # of connection points: 2
#     Edge 46, Type (0, 0), BuildingBlock: KIFKEQ_clean_linker_1, # of connection points: 2
#     Edge 47, Type (0, 0), BuildingBlock: KIFKEQ_clean_linker_1, # of connection points: 2
#     Edge 48, Type (0, 0), BuildingBlock: KIFKEQ_clean_linker_1, # of connection points: 2
#     Edge 49, Type (0, 0), BuildingBlock: KIFKEQ_clean_linker_1, # of connection points: 2
#     Edge 50, Type (0, 0), BuildingBlock: KIFKEQ_clean_linker_1, # of connection points: 2
#     Edge 51, Type (0, 0), BuildingBlock: KIFKEQ_clean_linker_1, # of connection points: 2
#     Edge 52, Type (0, 0), BuildingBlock: KIFKEQ_clean_linker_1, # of connection points: 2
#     Edge 53, Type (0, 0), BuildingBlock: KIFKEQ_clean_linker_1, # of connection points: 2
# Relax obj value: 0.185
# Max RMSD: 0.139
# Mean RMSD: 0.139
data_MOF--net-unb--node1-GALJAG_clean_sbu_0--edge1-KIFKEQ_clean_linker_1
_symmetry_space_group_name_H-M    P1
_symmetry_Int_Tables_number       1
_symmetry_cell_setting            triclinic
loop_
_symmetry_equiv_pos_as_xyz
'x, y, z'
_cell_length_a     63.062428
_cell_length_b     63.117498
_cell_length_c     27.395701
_cell_angle_alpha  89.994979
_cell_angle_beta   89.974922
_cell_angle_gamma 119.98544
loop_
_atom_site_label
_atom_site_type_symbol
_atom_site_fract_x
_atom_site_fract_y
_atom_site_fract_z
_atom_type_partial_charge
In0 In 0.12693 0.26065 0.08126 0.0
O1 O 0.14777 0.29421 0.12978 0.0
O2 O 0.1241 0.26051 0.1648 0.0
C3 C 0.13456 0.28395 0.99524 0.0
C4 C 0.15638 0.24134 0.07111 0.0
C5 C 0.07791 0.23376 0.07051 0.0
O6 O 0.13563 0.29436 0.03529 0.0
O7 O 0.12968 0.26208 0.99896 0.0
O8 O 0.09154 0.22444 0.07092 0.0
O9 O 0.08883 0.25649 0.07836 0.0
C10 C 0.13899 0.2831 0.1694 0.0
O11 O 0.1346 0.22894 0.08613 0.0
O12 O 0.16365 0.26369 0.06421 0.0
In13 In 0.72796 0.8601 0.08078 0.0
O14 O 0.75937 0.89965 0.08503 0.0
O15 O 0.72451 0.89339 0.06238 0.0
C16 C 0.75531 0.83848 0.06999 0.0
C17 C 0.70548 0.84981 0.16909 0.0
C18 C 0.70488 0.8439 0.99471 0.0
O19 O 0.76447 0.86138 0.07154 0.0
O20 O 0.73249 0.82642 0.07706 0.0
O21 O 0.69429 0.83489 0.03484 0.0
O22 O 0.72677 0.86085 0.9984 0.0
C23 C 0.7468 0.90871 0.0693 0.0
O24 O 0.69435 0.84735 0.12945 0.0
O25 O 0.7281 0.85751 0.16442 0.0
In26 In 0.13403 0.86082 0.07497 0.0
O27 O 0.09262 0.83731 0.08993 0.0
O28 O 0.10441 0.84991 0.0178 0.0
C29 C 0.15216 0.90948 0.06732 0.0
C30 C 0.14212 0.84828 0.16494 0.0
C31 C 0.15627 0.84937 0.00412 0.0
O32 O 0.12967 0.8942 0.06261 0.0
O33 O 0.16523 0.90028 0.07879 0.0
O34 O 0.13767 0.83335 0.02661 0.0
O35 O 0.16434 0.87092 0.01917 0.0
C36 C 0.08667 0.8377 0.04605 0.0
O37 O 0.14439 0.83887 0.12613 0.0
O38 O 0.13555 0.86396 0.15861 0.0
In39 In 0.26261 0.12888 0.91824 0.0
O40 O 0.29568 0.15125 0.86888 0.0
O41 O 0.26266 0.12511 0.83489 0.0
C42 C 0.28623 0.13557 0.00375 0.0
C43 C 0.24274 0.15776 0.92952 0.0
C44 C 0.23539 0.07996 0.92918 0.0
O45 O 0.29624 0.13618 0.96339 0.0
O46 O 0.26471 0.13184 0.00055 0.0
O47 O 0.22615 0.09366 0.92824 0.0
O48 O 0.25817 0.09077 0.92165 0.0
C49 C 0.28484 0.14132 0.82964 0.0
O50 O 0.23062 0.13614 0.9136 0.0
O51 O 0.26511 0.16518 0.93685 0.0
In52 In 0.85812 0.12729 0.91885 0.0
O53 O 0.83639 0.1387 0.86955 0.0
O54 O 0.86258 0.1318 0.83571 0.0
C55 C 0.84962 0.14292 0.00412 0.0
C56 C 0.82938 0.07841 0.92725 0.0
C57 C 0.90693 0.14895 0.93263 0.0
O58 O 0.85047 0.15329 0.96414 0.0
O59 O 0.8529 0.12487 0.00066 0.0
O60 O 0.89315 0.12604 0.93186 0.0
O61 O 0.89631 0.16096 0.92367 0.0
C62 C 0.84659 0.13806 0.83046 0.0
O63 O 0.85124 0.08827 0.91243 0.0
O64 O 0.82167 0.09311 0.93474 0.0
In65 In 0.86343 0.72762 0.91676 0.0
O66 O 0.90264 0.75906 0.90672 0.0
O67 O 0.8976 0.7261 0.93803 0.0
C68 C 0.84199 0.75522 0.92726 0.0
C69 C 0.84992 0.70461 0.82909 0.0
C70 C 0.84938 0.70365 0.00256 0.0
O71 O 0.86479 0.76385 0.93043 0.0
O72 O 0.83004 0.73286 0.91592 0.0
O73 O 0.84931 0.69303 0.96341 0.0
O74 O 0.85639 0.72606 0.99809 0.0
C75 C 0.91243 0.74787 0.92591 0.0
O76 O 0.84015 0.69425 0.86881 0.0
O77 O 0.86647 0.72669 0.83337 0.0
In78 In 0.79088 0.59526 0.41498 0.0
O79 O 0.80017 0.62744 0.46578 0.0
O80 O 0.79726 0.59553 0.4977 0.0
C81 C 0.80298 0.62011 0.32988 0.0
C82 C 0.81532 0.57103 0.39811 0.0
C83 C 0.74163 0.57006 0.40859 0.0
O84 O 0.81514 0.62912 0.36847 0.0
O85 O 0.78481 0.59897 0.33462 0.0
O86 O 0.75432 0.55982 0.41327 0.0
O87 O 0.75367 0.59313 0.41027 0.0
C88 C 0.80151 0.6171 0.50403 0.0
O89 O 0.79269 0.56033 0.40709 0.0
O90 O 0.826 0.59406 0.40048 0.0
In91 In 0.39386 0.19558 0.41466 0.0
O92 O 0.36008 0.18271 0.46306 0.0
O93 O 0.39384 0.19296 0.49815 0.0
C94 C 0.37064 0.17746 0.32914 0.0
C95 C 0.41156 0.24406 0.40437 0.0
C96 C 0.42366 0.1766 0.40587 0.0
O97 O 0.3607 0.16815 0.36957 0.0
O98 O 0.3919 0.19563 0.3323 0.0
O99 O 0.43095 0.19902 0.40019 0.0
O100 O 0.40153 0.1638 0.4185 0.0
C101 C 0.3712 0.18514 0.50274 0.0
O102 O 0.42422 0.23542 0.42162 0.0
O103 O 0.38961 0.22833 0.39525 0.0
In104 In 0.79727 0.19811 0.41659 0.0
O105 O 0.80833 0.17594 0.46535 0.0
O106 O 0.80012 0.20097 0.50018 0.0
C107 C 0.81105 0.18873 0.33016 0.0
C108 C 0.7483 0.17135 0.40483 0.0
C109 C 0.82354 0.24712 0.40624 0.0
O110 O 0.81975 0.18643 0.37008 0.0
O111 O 0.79552 0.19564 0.33414 0.0
O112 O 0.80076 0.23591 0.41408 0.0
O113 O 0.83316 0.23377 0.40656 0.0
C114 C 0.80666 0.18517 0.50491 0.0
O115 O 0.75895 0.1937 0.41637 0.0
O116 O 0.76217 0.16236 0.40211 0.0
In117 In 0.92959 0.46598 0.24901 0.0
O118 O 0.96108 0.48998 0.19768 0.0
O119 O 0.93046 0.45896 0.167 0.0
C120 C 0.95638 0.48325 0.33104 0.0
C121 C 0.90037 0.48569 0.25727 0.0
C122 C 0.90952 0.41765 0.2669 0.0
O123 O 0.96449 0.47804 0.29353 0.0
O124 O 0.93515 0.48018 0.32663 0.0
O125 O 0.8979 0.42645 0.24556 0.0
O126 O 0.93147 0.43301 0.27672 0.0
C127 C 0.95138 0.47732 0.16007 0.0
O128 O 0.893 0.46339 0.26517 0.0
O129 O 0.92221 0.49787 0.24245 0.0
In130 In 0.52265 0.46318 0.25518 0.0
O131 O 0.51494 0.42382 0.24746 0.0
O132 O 0.48669 0.4293 0.27549 0.0
C133 C 0.57145 0.48491 0.26703 0.0
C134 C 0.5116 0.4744 0.16679 0.0
C135 C 0.51633 0.48038 0.34051 0.0
O136 O 0.55768 0.46197 0.2668 0.0
O137 O 0.56079 0.49693 0.25808 0.0
O138 O 0.51154 0.48675 0.30014 0.0
O139 O 0.524 0.46546 0.33741 0.0
C140 C 0.49371 0.41431 0.2655 0.0
O141 O 0.50017 0.47341 0.20526 0.0
O142 O 0.52859 0.46958 0.17267 0.0
In143 In 0.52802 0.06145 0.25444 0.0
O144 O 0.51007 0.02821 0.20417 0.0
O145 O 0.52748 0.06308 0.17053 0.0
C146 C 0.50571 0.02847 0.32593 0.0
C147 C 0.5771 0.08439 0.26754 0.0
C148 C 0.51216 0.0921 0.28275 0.0
O149 O 0.52671 0.03431 0.31006 0.0
O150 O 0.49522 0.03822 0.30371 0.0
O151 O 0.52506 0.08667 0.30933 0.0
O152 O 0.50769 0.0826 0.24067 0.0
C153 C 0.51573 0.04019 0.16497 0.0
O154 O 0.56638 0.09565 0.25352 0.0
O155 O 0.56332 0.06166 0.27202 0.0
In156 In 0.46509 0.93556 0.74587 0.0
O157 O 0.48146 0.96905 0.79584 0.0
O158 O 0.46397 0.93429 0.82979 0.0
C159 C 0.47315 0.96479 0.6679 0.0
C160 C 0.49223 0.91399 0.72984 0.0
C161 C 0.4176 0.90392 0.72649 0.0
O162 O 0.45249 0.95297 0.68796 0.0
O163 O 0.48996 0.96296 0.6888 0.0
O164 O 0.43477 0.90103 0.71054 0.0
O165 O 0.42435 0.9223 0.75392 0.0
C166 C 0.47531 0.95717 0.83516 0.0
O167 O 0.47143 0.90276 0.74991 0.0
O168 O 0.49959 0.93611 0.72043 0.0
In169 In 0.06089 0.52988 0.74635 0.0
O170 O 0.09509 0.56785 0.74532 0.0
O171 O 0.06046 0.56546 0.7375 0.0
C172 C 0.08232 0.50246 0.73374 0.0
C173 C 0.03829 0.51862 0.83441 0.0
C174 C 0.03868 0.51978 0.65897 0.0
O175 O 0.0943 0.52469 0.74607 0.0
O176 O 0.05952 0.49386 0.73067 0.0
O177 O 0.02685 0.51138 0.69823 0.0
O178 O 0.06152 0.53306 0.66407 0.0
C179 C 0.08342 0.57896 0.73761 0.0
O180 O 0.027 0.51523 0.79466 0.0
O181 O 0.06113 0.52774 0.82999 0.0
In182 In 0.46011 0.53159 0.75184 0.0
O183 O 0.42021 0.52301 0.75514 0.0
O184 O 0.42732 0.49632 0.72473 0.0
C185 C 0.48116 0.5806 0.74434 0.0
C186 C 0.47134 0.52073 0.84054 0.0
C187 C 0.47829 0.52439 0.66848 0.0
O188 O 0.45848 0.5663 0.73887 0.0
O189 O 0.49311 0.57024 0.75639 0.0
O190 O 0.47486 0.51148 0.70608 0.0
O191 O 0.47282 0.54092 0.67326 0.0
C192 C 0.41168 0.50255 0.73423 0.0
O193 O 0.48005 0.51809 0.80114 0.0
O194 O 0.45699 0.52907 0.83553 0.0
In195 In 0.59651 0.79827 0.58403 0.0
O196 O 0.62939 0.82044 0.53418 0.0
O197 O 0.59674 0.79304 0.50111 0.0
C198 C 0.62073 0.80617 0.66906 0.0
C199 C 0.57636 0.82703 0.59279 0.0
C200 C 0.56887 0.74966 0.5988 0.0
O201 O 0.63005 0.80513 0.62892 0.0
O202 O 0.59964 0.80356 0.66583 0.0
O203 O 0.55992 0.76357 0.59635 0.0
O204 O 0.59159 0.76001 0.59072 0.0
C205 C 0.61876 0.80958 0.49543 0.0
O206 O 0.56434 0.80521 0.57787 0.0
O207 O 0.59877 0.83467 0.60027 0.0
In208 In 0.19827 0.79651 0.58078 0.0
O209 O 0.17749 0.81015 0.53369 0.0
O210 O 0.19998 0.79895 0.49745 0.0
C211 C 0.19257 0.81023 0.67059 0.0
C212 C 0.16884 0.74789 0.59166 0.0
C213 C 0.24745 0.81958 0.58696 0.0
O214 O 0.18981 0.81995 0.63252 0.0
O215 O 0.19804 0.79387 0.66291 0.0
O216 O 0.23452 0.7967 0.58178 0.0
O217 O 0.23566 0.83088 0.58606 0.0
C218 C 0.18556 0.80727 0.49359 0.0
O219 O 0.19069 0.75718 0.57707 0.0
O220 O 0.16148 0.76299 0.59754 0.0
In221 In 0.19214 0.39225 0.58353 0.0
O222 O 0.18245 0.35958 0.53396 0.0
O223 O 0.18727 0.39194 0.5004 0.0
C224 C 0.17835 0.36837 0.66923 0.0
C225 C 0.24123 0.41528 0.59409 0.0
C226 C 0.16621 0.41524 0.59623 0.0
O227 O 0.16858 0.35811 0.62931 0.0
O228 O 0.19507 0.39038 0.66558 0.0
O229 O 0.1887 0.42664 0.58552 0.0
O230 O 0.15666 0.39229 0.59762 0.0
C231 C 0.1823 0.37008 0.49499 0.0
O232 O 0.22998 0.42664 0.58456 0.0
O233 O 0.22788 0.39233 0.59553 0.0
H234 H 0.17343 0.32404 0.47503 0.0
H235 H 0.17775 0.38778 0.4069 0.0
H236 H 0.16339 0.30311 0.3965 0.0
H237 H 0.16706 0.36664 0.32843 0.0
H238 H 0.17232 0.33093 0.18744 0.0
H239 H 0.1832 0.35194 0.26588 0.0
H240 H 0.13083 0.28498 0.33768 0.0
H241 H 0.12046 0.26383 0.25921 0.0
C242 C 0.17215 0.33355 0.44326 0.0
C243 C 0.17641 0.35756 0.44711 0.0
C244 C 0.16622 0.32149 0.39827 0.0
C245 C 0.16433 0.33313 0.35606 0.0
C246 C 0.16867 0.35722 0.36001 0.0
C247 C 0.17468 0.36931 0.40502 0.0
C248 C 0.16316 0.32069 0.22001 0.0
C249 C 0.14555 0.29572 0.21718 0.0
C250 C 0.16928 0.33278 0.26497 0.0
C251 C 0.15787 0.3202 0.30819 0.0
C252 C 0.14024 0.29517 0.30526 0.0
C253 C 0.13418 0.28306 0.26027 0.0
H254 H 0.66512 0.84604 0.47462 0.0
H255 H 0.60079 0.78666 0.40801 0.0
H256 H 0.686 0.85596 0.39596 0.0
H257 H 0.62187 0.79611 0.32948 0.0
H258 H 0.65767 0.83557 0.18722 0.0
H259 H 0.63678 0.8262 0.2658 0.0
H260 H 0.70378 0.84094 0.33774 0.0
H261 H 0.72482 0.85097 0.25909 0.0
C262 C 0.65547 0.83504 0.44316 0.0
C263 C 0.63129 0.81559 0.44749 0.0
C264 C 0.66751 0.84061 0.39809 0.0
C265 C 0.65568 0.82682 0.35626 0.0
C266 C 0.63145 0.80735 0.36071 0.0
C267 C 0.61938 0.80184 0.40578 0.0
C268 C 0.66795 0.83683 0.21984 0.0
C269 C 0.6929 0.84403 0.21697 0.0
C270 C 0.65592 0.8313 0.26491 0.0
C271 C 0.66854 0.83275 0.30824 0.0
C272 C 0.69355 0.83995 0.30526 0.0
C273 C 0.70559 0.84556 0.26015 0.0
H274 H 0.20419 0.80679 0.40402 0.0
H275 H 0.15162 0.82117 0.47535 0.0
H276 H 0.1934 0.81681 0.32543 0.0
H277 H 0.14015 0.83044 0.39646 0.0
H278 H 0.14409 0.86984 0.25277 0.0
H279 H 0.15446 0.86008 0.33234 0.0
H280 H 0.16156 0.80167 0.26658 0.0
H281 H 0.15202 0.81201 0.18706 0.0
C282 C 0.19019 0.81194 0.40283 0.0
C283 C 0.17876 0.81318 0.44587 0.0
C284 C 0.18386 0.81753 0.35769 0.0
C285 C 0.16579 0.82435 0.35437 0.0
C286 C 0.15436 0.82558 0.39758 0.0
C287 C 0.16082 0.82013 0.44281 0.0
C288 C 0.14782 0.85489 0.25544 0.0
C289 C 0.14733 0.84176 0.21364 0.0
C290 C 0.15365 0.84919 0.3011 0.0
C291 C 0.15898 0.83012 0.30603 0.0
C292 C 0.15805 0.81677 0.26416 0.0
C293 C 0.1524 0.82258 0.21855 0.0
H294 H 0.39045 0.18531 0.59219 0.0
H295 H 0.32346 0.17117 0.52145 0.0
H296 H 0.36946 0.17452 0.67081 0.0
H297 H 0.30259 0.16109 0.60015 0.0
H298 H 0.2665 0.11994 0.74116 0.0
H299 H 0.28741 0.13042 0.66241 0.0
H300 H 0.35202 0.18877 0.7308 0.0
H301 H 0.33132 0.17776 0.80962 0.0
C302 C 0.37127 0.18005 0.59351 0.0
C303 C 0.35861 0.17907 0.55063 0.0
C304 C 0.35925 0.174 0.63863 0.0
C305 C 0.33429 0.16693 0.64199 0.0
C306 C 0.3217 0.16607 0.59896 0.0
C307 C 0.3337 0.17202 0.55384 0.0
C308 C 0.28517 0.135 0.7393 0.0
C309 C 0.29727 0.14799 0.7816 0.0
C310 C 0.29713 0.14112 0.6941 0.0
C311 C 0.32146 0.16046 0.6901 0.0
C312 C 0.33345 0.17353 0.73252 0.0
C313 C 0.32152 0.16733 0.77771 0.0
H314 H 0.80729 0.20448 0.59462 0.0
H315 H 0.81851 0.14989 0.52312 0.0
H316 H 0.81716 0.1932 0.67311 0.0
H317 H 0.82772 0.13813 0.60156 0.0
H318 H 0.81127 0.14974 0.81078 0.0
H319 H 0.80128 0.16075 0.7323 0.0
H320 H 0.85866 0.15279 0.66377 0.0
H321 H 0.86817 0.14113 0.74218 0.0
C322 C 0.81172 0.18997 0.59574 0.0
C323 C 0.81216 0.1781 0.55272 0.0
C324 C 0.81725 0.1834 0.64075 0.0
C325 C 0.82326 0.16474 0.64375 0.0
C326 C 0.82356 0.15282 0.60059 0.0
C327 C 0.81811 0.15945 0.55563 0.0
C328 C 0.82171 0.15029 0.77891 0.0
C329 C 0.84049 0.14454 0.78263 0.0
C330 C 0.81609 0.15677 0.73395 0.0
C331 C 0.82918 0.15773 0.69163 0.0
C332 C 0.84796 0.15192 0.69544 0.0
C333 C 0.85352 0.14536 0.74042 0.0
H334 H 0.81479 0.65722 0.81191 0.0
H335 H 0.86861 0.72294 0.73886 0.0
H336 H 0.80272 0.63595 0.73369 0.0
H337 H 0.85687 0.70156 0.66067 0.0
H338 H 0.81173 0.66351 0.52478 0.0
H339 H 0.82307 0.68448 0.60327 0.0
H340 H 0.81795 0.62008 0.67016 0.0
H341 H 0.80615 0.59895 0.59162 0.0
C342 C 0.82409 0.66711 0.77912 0.0
C343 C 0.84263 0.69177 0.78153 0.0
C344 C 0.81728 0.65487 0.73431 0.0
C345 C 0.82882 0.66702 0.69083 0.0
C346 C 0.84737 0.69172 0.69333 0.0
C347 C 0.8542 0.70395 0.73817 0.0
C348 C 0.81296 0.65381 0.55627 0.0
C349 C 0.80803 0.62957 0.55202 0.0
C350 C 0.81963 0.66589 0.60122 0.0
C351 C 0.82151 0.65402 0.64306 0.0
C352 C 0.81641 0.62969 0.63881 0.0
C353 C 0.80977 0.6176 0.59378 0.0
H354 H -0.00405 0.51635 0.13743 0.0
H355 H 0.93508 0.45188 0.07456 0.0
H356 H 0.01687 0.52628 0.05884 0.0
H357 H 0.95625 0.46149 0.99606 0.0
H358 H 0.98968 0.5006 0.85169 0.0
H359 H 0.96865 0.49075 0.93016 0.0
H360 H 0.03713 0.51224 0.0035 0.0
H361 H 0.05825 0.52264 0.9249 0.0
C362 C 0.98707 0.50426 0.1068 0.0
C363 C 0.96385 0.48336 0.11213 0.0
C364 C -0.00086 0.50985 0.06182 0.0
C365 C 0.98829 0.49466 0.0211 0.0
C366 C 0.96501 0.47376 0.02649 0.0
C367 C 0.95292 0.46818 0.07151 0.0
C368 C 0.00024 0.50322 0.88458 0.0
C369 C 0.02563 0.51243 0.88216 0.0
C370 C 0.98816 0.49743 0.92956 0.0
C371 C 0.00117 0.50067 0.97319 0.0
C372 C 0.02659 0.50983 0.97068 0.0
C373 C 0.03868 0.51566 0.92564 0.0
H374 H 0.5385 0.48612 0.08284 0.0
H375 H 0.47143 0.47775 0.14284 0.0
H376 H 0.52928 0.49812 0.00465 0.0
H377 H 0.46154 0.48863 0.0642 0.0
H378 H 0.46173 0.53188 0.93134 0.0
H379 H 0.472 0.5213 0.01009 0.0
H380 H 0.50372 0.48319 0.93611 0.0
H381 H 0.49444 0.49479 0.85772 0.0
C382 C 0.52166 0.48662 0.07912 0.0
C383 C 0.5057 0.48102 0.11893 0.0
C384 C 0.51626 0.49337 0.03418 0.0
C385 C 0.49461 0.49437 0.02782 0.0
C386 C 0.47859 0.48854 0.06778 0.0
C387 C 0.48415 0.4821 0.11284 0.0
C388 C 0.47096 0.52131 0.93205 0.0
C389 C 0.47733 0.51422 0.88842 0.0
C390 C 0.47671 0.51507 0.9772 0.0
C391 C 0.48871 0.50132 0.97973 0.0
C392 C 0.49492 0.49416 0.93583 0.0
C393 C 0.48944 0.50067 0.89078 0.0
H394 H 0.50141 0.99277 0.14432 0.0
H395 H 0.51595 0.06049 0.0767 0.0
H396 H 0.49203 0.97289 0.06497 0.0
H397 H 0.5052 0.04036 0.99728 0.0
H398 H 0.50858 0.00459 0.85598 0.0
H399 H 0.51847 0.02457 0.93534 0.0
H400 H 0.46353 0.95719 0.00231 0.0
H401 H 0.45477 0.93699 0.92308 0.0
C402 C 0.50231 0.00333 0.11241 0.0
C403 C 0.50945 0.02819 0.11664 0.0
C404 C 0.49673 0.99188 0.06682 0.0
C405 C 0.49773 0.0049 0.02433 0.0
C406 C 0.50465 0.02978 0.02885 0.0
C407 C 0.51065 0.04134 0.07444 0.0
C408 C 0.49869 0.99408 0.88777 0.0
C409 C 0.48097 0.96923 0.88343 0.0
C410 C 0.5042 0.00558 0.93333 0.0
C411 C 0.4918 0.99261 0.97562 0.0
C412 C 0.47385 0.96773 0.97094 0.0
C413 C 0.46867 0.95613 0.92545 0.0
H414 H 0.13459 0.26484 0.9065 0.0
H415 H 0.145 0.33074 0.97637 0.0
H416 H 0.14398 0.28528 0.82771 0.0
H417 H 0.15387 0.35115 0.897 0.0
H418 H 0.19856 0.38662 0.75788 0.0
H419 H 0.18647 0.36621 0.83674 0.0
H420 H 0.12832 0.3019 0.76719 0.0
H421 H 0.14085 0.32219 0.68793 0.0
C422 C 0.13867 0.28366 0.90492 0.0
C423 C 0.13918 0.29626 0.94755 0.0
C424 C 0.14388 0.29532 0.8597 0.0
C425 C 0.14967 0.31983 0.8561 0.0
C426 C 0.14978 0.33233 0.89871 0.0
C427 C 0.14459 0.32065 0.94407 0.0
C428 C 0.18318 0.36812 0.75944 0.0
C429 C 0.17071 0.35591 0.7168 0.0
C430 C 0.17613 0.35651 0.80468 0.0
C431 C 0.15641 0.33246 0.80823 0.0
C432 C 0.14378 0.32034 0.76555 0.0
C433 C 0.15089 0.33195 0.72022 0.0
H434 H 0.60358 0.80938 0.75799 0.0
H435 H 0.66573 0.81127 0.68714 0.0
H436 H 0.62392 0.81635 0.83655 0.0
H437 H 0.686 0.81778 0.76629 0.0
H438 H 0.72475 0.86145 0.90555 0.0
H439 H 0.7044 0.85043 0.82664 0.0
H440 H 0.63728 0.79706 0.89664 0.0
H441 H 0.65762 0.80852 0.97606 0.0
C442 C 0.62155 0.81113 0.75928 0.0
C443 C 0.63315 0.80992 0.71645 0.0
C444 C 0.63311 0.8149 0.80438 0.0
C445 C 0.65653 0.81753 0.80766 0.0
C446 C 0.66804 0.81605 0.76483 0.0
C447 C 0.65644 0.81227 0.71958 0.0
C448 C 0.70568 0.84726 0.90409 0.0
C449 C 0.69269 0.83595 0.94695 0.0
C450 C 0.69408 0.84082 0.85881 0.0
C451 C 0.66923 0.82291 0.8554 0.0
C452 C 0.65638 0.81116 0.89821 0.0
C453 C 0.66801 0.81762 0.94361 0.0
H454 H 0.19038 0.88192 0.94095 0.0
H455 H 0.1426 0.80454 0.96546 0.0
H456 H 0.2012 0.87321 0.86078 0.0
H457 H 0.15339 0.79587 0.88529 0.0
H458 H 0.19444 0.78881 0.75515 0.0
H459 H 0.18861 0.79894 0.83801 0.0
H460 H 0.17789 0.8569 0.78216 0.0
H461 H 0.18388 0.84683 0.69885 0.0
C462 C 0.18251 0.86304 0.92955 0.0
C463 C 0.16561 0.84389 0.95935 0.0
C464 C 0.18854 0.85809 0.88352 0.0
C465 C 0.17795 0.8339 0.86668 0.0
C466 C 0.16192 0.81469 0.89745 0.0
C467 C 0.15573 0.81965 0.94331 0.0
C468 C 0.19092 0.80378 0.7605 0.0
C469 C 0.1895 0.81699 0.72054 0.0
C470 C 0.18752 0.80951 0.80795 0.0
C471 C 0.18278 0.82867 0.81649 0.0
C472 C 0.18177 0.84219 0.77661 0.0
C473 C 0.18502 0.83634 0.72898 0.0
H474 H 0.32439 0.13954 0.31126 0.0
H475 H 0.38949 0.19542 0.23961 0.0
H476 H 0.30397 0.12655 0.23205 0.0
H477 H 0.36905 0.1829 0.16104 0.0
H478 H 0.33225 0.14329 0.02168 0.0
H479 H 0.35261 0.15037 0.10084 0.0
H480 H 0.28818 0.14338 0.1718 0.0
H481 H 0.26777 0.13579 0.09319 0.0
C482 C 0.33433 0.14895 0.27861 0.0
C483 C 0.35845 0.16855 0.28158 0.0
C484 C 0.32265 0.14161 0.23333 0.0
C485 C 0.33489 0.15374 0.19027 0.0
C486 C 0.35922 0.17294 0.19335 0.0
C487 C 0.37086 0.18025 0.23848 0.0
C488 C 0.32245 0.14313 0.05429 0.0
C489 C 0.29851 0.13913 0.0513 0.0
C490 C 0.3341 0.14725 0.09956 0.0
C491 C 0.32201 0.14746 0.1426 0.0
C492 C 0.29788 0.14297 0.13949 0.0
C493 C 0.28626 0.13883 0.09436 0.0
H494 H 0.84381 0.18229 0.02292 0.0
H495 H 0.84534 0.1216 0.09234 0.0
H496 H 0.83623 0.19512 0.10216 0.0
H497 H 0.83724 0.13399 0.17093 0.0
H498 H 0.84518 0.17525 0.31118 0.0
H499 H 0.85617 0.16597 0.23175 0.0
H500 H 0.80348 0.18086 0.16218 0.0
H501 H 0.79297 0.19068 0.24126 0.0
C502 C 0.84247 0.1717 0.05507 0.0
C503 C 0.84513 0.15096 0.05154 0.0
C504 C 0.83805 0.17896 0.10035 0.0
C505 C 0.83619 0.16559 0.14281 0.0
C506 C 0.83898 0.14493 0.13909 0.0
C507 C 0.84344 0.13772 0.09397 0.0
C508 C 0.83606 0.17663 0.27885 0.0
C509 C 0.81818 0.18358 0.28234 0.0
C510 C 0.84226 0.17123 0.23342 0.0
C511 C 0.83064 0.17262 0.19071 0.0
C512 C 0.813 0.17993 0.19429 0.0
C513 C 0.80685 0.18537 0.23964 0.0
H514 H 0.84898 0.72369 0.09012 0.0
H515 H 0.83407 0.65571 0.02272 0.0
H516 H 0.83777 0.70361 0.16944 0.0
H517 H 0.82317 0.63565 0.10245 0.0
H518 H 0.77954 0.60311 0.24328 0.0
H519 H 0.79077 0.62328 0.16405 0.0
H520 H 0.85307 0.68556 0.2295 0.0
H521 H 0.84159 0.66546 0.30916 0.0
C522 C 0.84336 0.70445 0.0923 0.0
C523 C 0.84236 0.69122 0.05027 0.0
C524 C 0.83709 0.693 0.13779 0.0
C525 C 0.82966 0.66808 0.14219 0.0
C526 C 0.8286 0.65483 0.10009 0.0
C527 C 0.83492 0.66631 0.05452 0.0
C528 C 0.79561 0.62114 0.24079 0.0
C529 C 0.8097 0.63275 0.28236 0.0
C530 C 0.80212 0.6326 0.19534 0.0
C531 C 0.82284 0.65594 0.19053 0.0
C532 C 0.83686 0.66764 0.23221 0.0
C533 C 0.83036 0.65613 0.27773 0.0
H534 H 0.9419 0.49526 0.41493 0.0
H535 H 0.0006 0.48745 0.35268 0.0
H536 H 0.96222 0.50464 0.49399 0.0
H537 H 0.02078 0.49642 0.43222 0.0
H538 H 0.06075 0.53738 0.57127 0.0
H539 H 0.04147 0.52971 0.4912 0.0
H540 H 0.97091 0.48284 0.55743 0.0
H541 H 0.99017 0.49092 0.63774 0.0
C542 C 0.95921 0.49564 0.41814 0.0
C543 C 0.96969 0.4906 0.37773 0.0
C544 C 0.97074 0.50082 0.4635 0.0
C545 C 0.99297 0.50106 0.4694 0.0
C546 C 0.00373 0.49655 0.42868 0.0
C547 C 0.99218 0.49136 0.38322 0.0
C548 C 0.04112 0.52543 0.5687 0.0
C549 C 0.02692 0.51475 0.61067 0.0
C550 C 0.03011 0.52095 0.52283 0.0
C551 C 0.00469 0.50571 0.51804 0.0
C552 C 0.99051 0.49495 0.56007 0.0
C553 C 0.00153 0.49945 0.60599 0.0
H554 H 0.4835 0.48538 0.64403 0.0
H555 H 0.49148 0.5528 0.587 0.0
H556 H 0.49398 0.47613 0.56428 0.0
H557 H 0.50281 0.54404 0.50762 0.0
H558 H 0.4917 0.50482 0.36016 0.0
H559 H 0.48409 0.51667 0.4403 0.0
H560 H 0.52673 0.48821 0.50774 0.0
H561 H 0.53348 0.47563 0.4281 0.0
C562 C 0.48786 0.49839 0.61459 0.0
C563 C 0.48661 0.51974 0.62157 0.0
C564 C 0.49398 0.49317 0.56893 0.0
C565 C 0.49918 0.50933 0.52948 0.0
C566 C 0.4985 0.53101 0.53697 0.0
C567 C 0.49219 0.53611 0.58251 0.0
C568 C 0.4995 0.50124 0.39218 0.0
C569 C 0.51298 0.48915 0.38807 0.0
C570 C 0.49528 0.50813 0.43804 0.0
C571 C 0.50468 0.50324 0.4805 0.0
C572 C 0.51879 0.49179 0.47596 0.0
C573 C 0.52278 0.4847 0.43028 0.0
H574 H 0.43794 0.96249 0.60668 0.0
H575 H 0.5161 0.99273 0.62006 0.0
H576 H 0.4432 0.97568 0.52156 0.0
H577 H 0.52144 0.00649 0.53564 0.0
H578 H 0.52219 0.00182 0.37359 0.0
H579 H 0.51269 0.98655 0.45695 0.0
H580 H 0.45986 0.01097 0.46721 0.0
H581 H 0.46892 0.02562 0.38307 0.0
C582 C 0.45629 0.97244 0.59172 0.0
C583 C 0.47662 0.97648 0.61979 0.0
C584 C 0.45928 0.97994 0.54298 0.0
C585 C 0.48267 0.99167 0.52161 0.0
C586 C 0.5031 0.99687 0.55065 0.0
C587 C 0.50009 0.98927 0.59918 0.0
C588 C 0.50819 0.00345 0.39333 0.0
C589 C 0.49639 0.01501 0.37207 0.0
C590 C 0.50294 0.99499 0.44125 0.0
C591 C 0.48597 -0.00188 0.46905 0.0
C592 C 0.47304 0.00831 0.44674 0.0
C593 C 0.47818 0.01664 0.39854 0.0
H594 H 0.14361 0.19319 0.07636 0.0
H595 H 0.20163 0.26393 0.02917 0.0
H596 H 0.16521 0.17392 0.04047 0.0
H597 H 0.22293 0.24466 0.99228 0.0
H598 H 0.26461 0.20255 0.97314 0.0
H599 H 0.24466 0.22315 0.01019 0.0
H600 H 0.17453 0.16546 0.95923 0.0
H601 H 0.19447 0.14456 0.92317 0.0
C602 C 0.1611 0.20464 0.05879 0.0
C603 C 0.17093 0.23006 0.0556 0.0
C604 C 0.17333 0.19359 0.0377 0.0
C605 C 0.19563 0.20772 0.01289 0.0
C606 C 0.20587 0.23325 0.01132 0.0
C607 C 0.19366 0.2443 0.03249 0.0
C608 C 0.24497 0.19444 0.96927 0.0
C609 C 0.23109 0.17192 0.94532 0.0
C610 C 0.23353 0.20625 0.99053 0.0
C611 C 0.20796 0.19581 0.98821 0.0
C612 C 0.1942 0.17373 0.9626 0.0
C613 C 0.20564 0.1619 0.94141 0.0
H614 H 0.84323 0.04383 0.92126 0.0
H615 H 0.78406 0.05474 0.96882 0.0
H616 H 0.82251 0.00293 0.95696 0.0
H617 H 0.76364 0.01415 0.00552 0.0
H618 H 0.72388 0.93059 0.02565 0.0
H619 H 0.74284 0.97095 0.98804 0.0
H620 H 0.81375 0.98523 0.03822 0.0
H621 H 0.7948 0.94456 0.07482 0.0
C622 C 0.82567 0.03738 0.93883 0.0
C623 C 0.81528 0.05248 0.94224 0.0
C624 C 0.81393 0.01407 0.95982 0.0
C625 C 0.79158 0.0054 0.98475 0.0
C626 C 0.78075 0.02019 0.98641 0.0
C627 C 0.79247 0.04346 0.96534 0.0
C628 C 0.74348 0.94248 0.02922 0.0
C629 C 0.75786 0.9344 0.05315 0.0
C630 C 0.75435 0.96562 0.00764 0.0
C631 C 0.77985 0.98122 0.00959 0.0
C632 C 0.79411 0.97345 0.03513 0.0
C633 C 0.78324 0.95028 0.05664 0.0
H634 H 0.94792 0.79442 0.90337 0.0
H635 H 0.93601 0.72916 0.97843 0.0
H636 H 0.99016 0.81607 0.93242 0.0
H637 H 0.97832 0.75077 0.00717 0.0
H638 H 0.04503 0.80681 0.09685 0.0
H639 H 0.00311 0.78448 0.06542 0.0
H640 H 0.02917 0.81636 0.92301 0.0
H641 H 0.07083 0.83877 0.95438 0.0
C642 C 0.95444 0.78461 0.92549 0.0
C643 C 0.93869 0.76011 0.93858 0.0
C644 C 0.97862 0.797 0.94211 0.0
C645 C 0.9875 0.78516 0.9724 0.0
C646 C 0.97189 0.76047 0.9845 0.0
C647 C 0.94775 0.74804 0.96762 0.0
C648 C 0.04174 0.80908 0.05892 0.0
C649 C 0.06117 0.82456 0.02813 0.0
C650 C 0.0178 0.79617 0.04082 0.0
C651 C 0.01287 0.79864 0.99169 0.0
C652 C 0.03234 0.81426 0.96111 0.0
C653 C 0.05621 0.82703 0.97908 0.0
H654 H 0.79364 0.74175 0.92017 0.0
H655 H 0.86337 0.79964 0.97197 0.0
H656 H 0.77339 0.76244 0.95571 0.0
H657 H 0.84315 0.8198 0.00931 0.0
H658 H 0.80156 0.86094 0.0329 0.0
H659 H 0.82264 0.84172 0.99519 0.0
H660 H 0.76218 0.77048 0.03319 0.0
H661 H 0.74067 0.78981 0.06905 0.0
C662 C 0.80465 0.75899 0.93886 0.0
C663 C 0.83007 0.7691 0.94318 0.0
C664 C 0.79303 0.77072 0.95981 0.0
C665 C 0.80656 0.79267 0.98603 0.0
C666 C 0.83212 0.80309 0.98903 0.0
C667 C 0.84375 0.7915 0.96763 0.0
C668 C 0.79292 0.84118 0.03374 0.0
C669 C 0.76946 0.82687 0.05392 0.0
C670 C 0.80502 0.83013 0.01211 0.0
C671 C 0.79405 0.80449 0.01062 0.0
C672 C 0.77095 0.79024 0.03256 0.0
C673 C 0.75873 0.8013 0.05372 0.0
H674 H 0.19938 0.94608 0.0787 0.0
H675 H 0.12935 0.9311 0.02192 0.0
H676 H 0.21845 0.98717 0.0444 0.0
H677 H 0.14851 0.97188 0.98606 0.0
H678 H 0.18874 0.05537 0.96468 0.0
H679 H 0.16792 0.01478 0.00153 0.0
H680 H 0.22961 0.00561 0.96554 0.0
H681 H 0.25071 0.04652 0.93028 0.0
C682 C 0.18803 0.95167 0.05926 0.0
C683 C 0.1629 0.93539 0.05295 0.0
C684 C 0.19899 0.97511 0.03905 0.0
C685 C 0.18511 0.98272 0.01166 0.0
C686 C 0.15975 0.96672 0.00711 0.0
C687 C 0.14875 0.94333 0.02769 0.0
C688 C 0.1977 0.04453 0.96411 0.0
C689 C 0.22138 0.05413 0.94472 0.0
C690 C 0.18576 0.02125 0.98524 0.0
C691 C 0.1972 0.00702 0.98715 0.0
C692 C 0.2205 0.0163 0.96585 0.0
C693 C 0.23249 0.03963 0.94507 0.0
H694 H 0.94139 0.19744 0.9294 0.0
H695 H 0.93021 0.127 0.97424 0.0
H696 H 0.98247 0.2172 0.96411 0.0
H697 H 0.97076 0.14669 0.01092 0.0
H698 H 0.05378 0.1881 0.03103 0.0
H699 H 0.01303 0.16747 0.99531 0.0
H700 H 0.00257 0.22728 0.04047 0.0
H701 H 0.04387 0.24837 0.07422 0.0
C702 C 0.94778 0.18619 0.94651 0.0
C703 C 0.93265 0.16069 0.94896 0.0
C704 C 0.97122 0.19751 0.96698 0.0
C705 C 0.97992 0.18361 0.99093 0.0
C706 C 0.96487 0.15801 0.99235 0.0
C707 C 0.94157 0.14668 0.97135 0.0
C708 C 0.04265 0.19669 0.03383 0.0
C709 C 0.052 0.21986 0.05535 0.0
C710 C 0.01923 0.18484 0.01339 0.0
C711 C 0.00449 0.19576 0.01451 0.0
C712 C 0.01358 0.21856 0.03783 0.0
C713 C 0.03714 0.23054 0.05774 0.0
H714 H 0.79375 0.52369 0.36823 0.0
H715 H 0.86435 0.58872 0.38599 0.0
H716 H 0.81315 0.50299 0.32985 0.0
H717 H 0.88407 0.56765 0.34972 0.0
H718 H 0.91099 0.53272 0.24081 0.0
H719 H 0.88992 0.55301 0.27448 0.0
H720 H 0.83744 0.48535 0.34423 0.0
H721 H 0.8578 0.46499 0.30869 0.0
C722 C 0.81351 0.5334 0.36481 0.0
C723 C 0.82756 0.55779 0.38024 0.0
C724 C 0.82468 0.52151 0.34282 0.0
C725 C 0.85023 0.53362 0.33636 0.0
C726 C 0.86432 0.55789 0.35305 0.0
C727 C 0.85308 0.56989 0.37443 0.0
C728 C 0.89468 0.52215 0.26261 0.0
C729 C 0.886 0.49728 0.272 0.0
C730 C 0.88277 0.53382 0.28248 0.0
C731 C 0.86209 0.52094 0.31266 0.0
C732 C 0.85308 0.49585 0.32075 0.0
C733 C 0.8648 0.48414 0.3004 0.0
H734 H 0.50731 0.37959 0.25806 0.0
H735 H 0.44872 0.39078 0.30843 0.0
H736 H 0.48659 0.33857 0.29335 0.0
H737 H 0.42823 0.34999 0.3444 0.0
H738 H 0.38842 0.2658 0.36086 0.0
H739 H 0.40728 0.30648 0.32441 0.0
H740 H 0.4781 0.32111 0.37584 0.0
H741 H 0.45928 0.28027 0.41159 0.0
C742 C 0.48987 0.37317 0.27613 0.0
C743 C 0.47965 0.38839 0.28052 0.0
C744 C 0.47814 0.3498 0.29684 0.0
C745 C 0.45594 0.34117 0.32228 0.0
C746 C 0.44525 0.35605 0.3249 0.0
C747 C 0.457 0.37943 0.30428 0.0
C748 C 0.40797 0.27785 0.36499 0.0
C749 C 0.42239 0.26985 0.38902 0.0
C750 C 0.41877 0.30114 0.34407 0.0
C751 C 0.44423 0.3169 0.34667 0.0
C752 C 0.4585 0.3092 0.37233 0.0
C753 C 0.44769 0.28592 0.39331 0.0
H754 H 0.60092 0.06381 0.31192 0.0
H755 H 0.61115 0.13314 0.26148 0.0
H756 H 0.64152 0.08443 0.34793 0.0
H757 H 0.65241 0.15387 0.29594 0.0
H758 H 0.71431 0.18623 0.40725 0.0
H759 H 0.67303 0.16504 0.37301 0.0
H760 H 0.6836 0.10512 0.32929 0.0
H761 H 0.72426 0.12583 0.3651 0.0
C762 C 0.61207 0.08346 0.3077 0.0
C763 C 0.60288 0.09687 0.28377 0.0
C764 C 0.63542 0.09531 0.32831 0.0
C765 C 0.65028 0.12087 0.32509 0.0
C766 C 0.6413 0.13422 0.29995 0.0
C767 C 0.61778 0.12234 0.27966 0.0
C768 C 0.70761 0.16836 0.39097 0.0
C769 C 0.72246 0.15763 0.38907 0.0
C770 C 0.68408 0.15634 0.37078 0.0
C771 C 0.675 0.13343 0.34797 0.0
C772 C 0.68979 0.12257 0.34706 0.0
C773 C 0.71316 0.13447 0.36757 0.0
H774 H 0.49245 0.11506 0.23059 0.0
H775 H 0.50721 0.10123 0.37761 0.0
H776 H 0.47268 0.13711 0.2633 0.0
H777 H 0.48697 0.12267 0.40999 0.0
H778 H 0.41667 0.1317 0.43124 0.0
H779 H 0.43994 0.11254 0.40242 0.0
H780 H 0.48745 0.17756 0.32001 0.0
H781 H 0.4647 0.197 0.3497 0.0
C782 C 0.49156 0.11684 0.26976 0.0
C783 C 0.5014 0.10654 0.30156 0.0
C784 C 0.48034 0.12946 0.2884 0.0
C785 C 0.47833 0.13146 0.33908 0.0
C786 C 0.48825 0.12126 0.37081 0.0
C787 C 0.49991 0.10913 0.35222 0.0
C788 C 0.43231 0.142 0.40759 0.0
C789 C 0.43895 0.16583 0.39284 0.0
C790 C 0.44557 0.13107 0.39114 0.0
C791 C 0.46532 0.1436 0.35885 0.0
C792 C 0.47218 0.16753 0.34466 0.0
C793 C 0.45928 0.17866 0.36195 0.0
H794 H 0.80684 0.27952 0.40076 0.0
H795 H 0.87095 0.27293 0.376 0.0
H796 H 0.82814 0.32074 0.36649 0.0
H797 H 0.89197 0.31372 0.34044 0.0
H798 H 0.93006 0.39673 0.32191 0.0
H799 H 0.90975 0.35622 0.35872 0.0
H800 H 0.84206 0.34022 0.28809 0.0
H801 H 0.86231 0.38116 0.25241 0.0
C802 C 0.82555 0.28697 0.38838 0.0
C803 C 0.83725 0.27304 0.39115 0.0
C804 C 0.83766 0.31046 0.36821 0.0
C805 C 0.86169 0.32046 0.35019 0.0
C806 C 0.87358 0.30672 0.35434 0.0
C807 C 0.86151 0.28331 0.3747 0.0
C808 C 0.9109 0.38447 0.31383 0.0
C809 C 0.89777 0.3921 0.28426 0.0
C810 C 0.89925 0.36122 0.33491 0.0
C811 C 0.87421 0.34499 0.32669 0.0
C812 C 0.86124 0.35243 0.29597 0.0
C813 C 0.87289 0.37577 0.27505 0.0
H814 H 0.60669 0.53304 0.25944 0.0
H815 H 0.59362 0.46344 0.3145 0.0
H816 H 0.64751 0.55303 0.29548 0.0
H817 H 0.63369 0.48339 0.35286 0.0
H818 H 0.71601 0.523 0.37714 0.0
H819 H 0.67559 0.50238 0.34042 0.0
H820 H 0.6678 0.56543 0.37065 0.0
H821 H 0.70899 0.58654 0.405 0.0
C822 C 0.61263 0.52203 0.27908 0.0
C823 C 0.59707 0.49669 0.2839 0.0
C824 C 0.63589 0.5335 0.30038 0.0
C825 C 0.64394 0.51993 0.3277 0.0
C826 C 0.62841 0.49446 0.3316 0.0
C827 C 0.60535 0.48297 0.30961 0.0
C828 C 0.70552 0.53232 0.37654 0.0
C829 C 0.71565 0.55638 0.39393 0.0
C830 C 0.68226 0.52047 0.35548 0.0
C831 C 0.66835 0.53224 0.35203 0.0
C832 C 0.67816 0.55598 0.37147 0.0
C833 C 0.70163 0.56799 0.39182 0.0
H834 H 0.52784 0.81314 0.58782 0.0
H835 H 0.59824 0.87265 0.63259 0.0
H836 H 0.50793 0.83453 0.62199 0.0
H837 H 0.57838 0.89372 0.66768 0.0
H838 H 0.53611 0.93487 0.68303 0.0
H839 H 0.5564 0.9145 0.64683 0.0
H840 H 0.49924 0.84513 0.70217 0.0
H841 H 0.47857 0.86556 0.7375 0.0
C842 C 0.53907 0.8309 0.60448 0.0
C843 C 0.56459 0.84124 0.60743 0.0
C844 C 0.52766 0.84302 0.62458 0.0
C845 C 0.54153 0.86571 0.64806 0.0
C846 C 0.56714 0.87637 0.64956 0.0
C847 C 0.57854 0.86428 0.62943 0.0
C848 C 0.52799 0.9153 0.68793 0.0
C849 C 0.50575 0.9018 0.71316 0.0
C850 C 0.53965 0.90362 0.66721 0.0
C851 C 0.52938 0.87816 0.67129 0.0
C852 C 0.50742 0.86472 0.69762 0.0
C853 C 0.49572 0.87644 0.71835 0.0
H854 H 0.12552 0.72674 0.64076 0.0
H855 H 0.18008 0.71156 0.58188 0.0
H856 H 0.10495 0.68671 0.67948 0.0
H857 H 0.15898 0.67101 0.61909 0.0
H858 H 0.13244 0.61198 0.73458 0.0
H859 H 0.15228 0.65271 0.69813 0.0
H860 H 0.08131 0.64408 0.66548 0.0
H861 H 0.06162 0.60389 0.70349 0.0
C862 C 0.13281 0.7146 0.63518 0.0
C863 C 0.15442 0.72227 0.60829 0.0
C864 C 0.12101 0.69162 0.65741 0.0
C865 C 0.13043 0.67568 0.6529 0.0
C866 C 0.15153 0.68303 0.62431 0.0
C867 C 0.16346 0.70613 0.60241 0.0
C868 C 0.12113 0.61901 0.72036 0.0
C869 C 0.0955 0.60478 0.72196 0.0
C870 C 0.13247 0.64221 0.69888 0.0
C871 C 0.11841 0.65158 0.67819 0.0
C872 C 0.09275 0.6376 0.68135 0.0
C873 C 0.08144 0.61451 0.70317 0.0
H874 H 0.39122 0.46061 0.68078 0.0
H875 H 0.37475 0.51281 0.7471 0.0
H876 H 0.35073 0.4397 0.64376 0.0
H877 H 0.33385 0.49144 0.71117 0.0
H878 H 0.27341 0.46446 0.59757 0.0
H879 H 0.31461 0.48502 0.6321 0.0
H880 H 0.30812 0.41479 0.66222 0.0
H881 H 0.26733 0.39436 0.6265 0.0
C882 C 0.37877 0.46738 0.68811 0.0
C883 C 0.38614 0.48835 0.71686 0.0
C884 C 0.35553 0.45536 0.66692 0.0
C885 C 0.33908 0.46398 0.67415 0.0
C886 C 0.34625 0.4846 0.70406 0.0
C887 C 0.36956 0.49668 0.72513 0.0
C888 C 0.28097 0.45346 0.6109 0.0
C889 C 0.26717 0.42782 0.60926 0.0
C890 C 0.30445 0.46522 0.63122 0.0
C891 C 0.31458 0.45156 0.65047 0.0
C892 C 0.301 0.4259 0.6474 0.0
C893 C 0.27759 0.41417 0.62694 0.0
H894 H 0.12071 0.39438 0.63625 0.0
H895 H 0.18189 0.4642 0.59395 0.0
H896 H 0.10058 0.41491 0.67223 0.0
H897 H 0.1613 0.48486 0.62828 0.0
H898 H 0.13077 0.51601 0.73953 0.0
H899 H 0.15064 0.49464 0.70523 0.0
H900 H 0.08045 0.43692 0.65433 0.0
H901 H 0.06064 0.45777 0.69026 0.0
C902 C 0.12964 0.41413 0.63378 0.0
C903 C 0.15286 0.42769 0.61222 0.0
C904 C 0.11807 0.42593 0.65438 0.0
C905 C 0.12934 0.45159 0.65348 0.0
C906 C 0.15229 0.46511 0.63055 0.0
C907 C 0.16398 0.45328 0.61032 0.0
C908 C 0.1196 0.49858 0.72163 0.0
C909 C 0.09416 0.48851 0.71777 0.0
C910 C 0.131 0.48646 0.70143 0.0
C911 C 0.1172 0.46413 0.67656 0.0
C912 C 0.09166 0.4539 0.67369 0.0
C913 C 0.08027 0.46588 0.69427 0.0
H914 H 0.52944 0.61535 0.75318 0.0
H915 H 0.46009 0.60406 0.69995 0.0
H916 H 0.55003 0.65632 0.71783 0.0
H917 H 0.48065 0.64447 0.66294 0.0
H918 H 0.58307 0.71531 0.60186 0.0
H919 H 0.56136 0.67493 0.6395 0.0
H920 H 0.50161 0.68704 0.67674 0.0
H921 H 0.52291 0.72691 0.63733 0.0
C922 C 0.51858 0.62173 0.73433 0.0
C923 C 0.49317 0.60652 0.72937 0.0
C924 C 0.5304 0.64508 0.7135 0.0
C925 C 0.51708 0.65363 0.68685 0.0
C926 C 0.49151 0.63866 0.68351 0.0
C927 C 0.47969 0.61543 0.70473 0.0
C928 C 0.56513 0.70915 0.61747 0.0
C929 C 0.55464 0.7242 0.61648 0.0
C930 C 0.55281 0.68614 0.63964 0.0
C931 C 0.52982 0.67779 0.66178 0.0
C932 C 0.51913 0.69271 0.65969 0.0
C933 C 0.53135 0.7156 0.63708 0.0
H934 H 0.27837 0.86819 0.60253 0.0
H935 H 0.2753 0.79827 0.60332 0.0
H936 H 0.31958 0.88748 0.63639 0.0
H937 H 0.31639 0.81748 0.63821 0.0
H938 H 0.39997 0.8668 0.65997 0.0
H939 H 0.35948 0.84628 0.62242 0.0
H940 H 0.33745 0.88734 0.71499 0.0
H941 H 0.37809 0.90821 0.75174 0.0
C942 C 0.28662 0.85699 0.60942 0.0
C943 C 0.2736 0.83172 0.6004 0.0
C944 C 0.31012 0.86798 0.62934 0.0
C945 C 0.3211 0.85393 0.64078 0.0
C946 C 0.30848 0.82882 0.6297 0.0
C947 C 0.28495 0.81782 0.60969 0.0
C948 C 0.38637 0.87121 0.6727 0.0
C949 C 0.3922 0.88916 0.7087 0.0
C950 C 0.36317 0.85945 0.65118 0.0
C951 C 0.34535 0.86541 0.66524 0.0
C952 C 0.35095 0.88273 0.70256 0.0
C953 C 0.37414 0.89449 0.72403 0.0
loop_
_geom_bond_atom_site_label_1
_geom_bond_atom_site_label_2
_geom_bond_distance
_geom_bond_site_symmetry_2
_ccdc_geom_bond_type
In0 O1 2.294 . S
In0 O2 2.326 . S
In0 O6 2.266 . S
In0 O7 2.326 1_554 S
In0 O8 2.266 . S
In0 O9 2.326 . S
In0 O11 2.294 . S
In0 O12 2.326 . S
O1 In0 2.294 . S
O1 C10 1.240 . S
O2 In0 2.326 . S
O2 C10 1.252 . S
C3 O6 1.252 1_556 S
C3 O7 1.260 . S
C4 O11 1.240 . S
C4 O12 1.252 . S
C5 O8 1.252 . S
C5 O9 1.260 . S
O6 In0 2.266 . S
O6 C3 1.252 1_554 S
O7 In0 2.326 1_556 S
O7 C3 1.260 . S
O8 In0 2.266 . S
O8 C5 1.252 . S
O9 In0 2.326 . S
O9 C5 1.260 . S
C10 O1 1.240 . S
C10 O2 1.252 . S
O11 In0 2.294 . S
O11 C4 1.240 . S
O12 In0 2.326 . S
O12 C4 1.252 . S
In13 O14 2.294 . S
In13 O15 2.326 . S
In13 O19 2.266 . S
In13 O20 2.326 . S
In13 O21 2.266 . S
In13 O22 2.326 1_554 S
In13 O24 2.294 . S
In13 O25 2.326 . S
O14 In13 2.294 . S
O14 C23 1.240 . S
O15 In13 2.326 . S
O15 C23 1.252 . S
C16 O19 1.252 . S
C16 O20 1.260 . S
C17 O24 1.240 . S
C17 O25 1.252 . S
C18 O21 1.252 1_556 S
C18 O22 1.260 . S
O19 In13 2.266 . S
O19 C16 1.252 . S
O20 In13 2.326 . S
O20 C16 1.260 . S
O21 In13 2.266 . S
O21 C18 1.252 1_554 S
O22 In13 2.326 1_556 S
O22 C18 1.260 . S
C23 O14 1.240 . S
C23 O15 1.252 . S
O24 In13 2.294 . S
O24 C17 1.240 . S
O25 In13 2.326 . S
O25 C17 1.252 . S
In26 O27 2.294 . S
In26 O28 2.326 . S
In26 O32 2.266 . S
In26 O33 2.326 . S
In26 O34 2.266 . S
In26 O35 2.326 1_554 S
In26 O37 2.294 . S
In26 O38 2.326 . S
O27 In26 2.294 . S
O27 C36 1.240 . S
O28 In26 2.326 . S
O28 C36 1.252 . S
C29 O32 1.252 . S
C29 O33 1.260 . S
C30 O37 1.240 . S
C30 O38 1.252 . S
C31 O34 1.252 1_556 S
C31 O35 1.260 . S
O32 In26 2.266 . S
O32 C29 1.252 . S
O33 In26 2.326 . S
O33 C29 1.260 . S
O34 In26 2.266 . S
O34 C31 1.252 1_554 S
O35 In26 2.326 1_556 S
O35 C31 1.260 . S
C36 O27 1.240 . S
C36 O28 1.252 . S
O37 In26 2.294 . S
O37 C30 1.240 . S
O38 In26 2.326 . S
O38 C30 1.252 . S
In39 O40 2.294 . S
In39 O41 2.326 . S
In39 O45 2.266 . S
In39 O46 2.326 1_556 S
In39 O47 2.266 . S
In39 O48 2.326 . S
In39 O50 2.294 . S
In39 O51 2.326 . S
O40 In39 2.294 . S
O40 C49 1.240 . S
O41 In39 2.326 . S
O41 C49 1.252 . S
C42 O45 1.252 1_554 S
C42 O46 1.260 . S
C43 O50 1.240 . S
C43 O51 1.252 . S
C44 O47 1.252 . S
C44 O48 1.260 . S
O45 In39 2.266 . S
O45 C42 1.252 1_556 S
O46 In39 2.326 1_554 S
O46 C42 1.260 . S
O47 In39 2.266 . S
O47 C44 1.252 . S
O48 In39 2.326 . S
O48 C44 1.260 . S
C49 O40 1.240 . S
C49 O41 1.252 . S
O50 In39 2.294 . S
O50 C43 1.240 . S
O51 In39 2.326 . S
O51 C43 1.252 . S
In52 O53 2.294 . S
In52 O54 2.326 . S
In52 O58 2.266 . S
In52 O59 2.326 1_556 S
In52 O60 2.266 . S
In52 O61 2.326 . S
In52 O63 2.294 . S
In52 O64 2.326 . S
O53 In52 2.294 . S
O53 C62 1.240 . S
O54 In52 2.326 . S
O54 C62 1.252 . S
C55 O58 1.252 1_554 S
C55 O59 1.260 . S
C56 O63 1.240 . S
C56 O64 1.252 . S
C57 O60 1.252 . S
C57 O61 1.260 . S
O58 In52 2.266 . S
O58 C55 1.252 1_556 S
O59 In52 2.326 1_554 S
O59 C55 1.260 . S
O60 In52 2.266 . S
O60 C57 1.252 . S
O61 In52 2.326 . S
O61 C57 1.260 . S
C62 O53 1.240 . S
C62 O54 1.252 . S
O63 In52 2.294 . S
O63 C56 1.240 . S
O64 In52 2.326 . S
O64 C56 1.252 . S
In65 O66 2.294 . S
In65 O67 2.326 . S
In65 O71 2.266 . S
In65 O72 2.326 . S
In65 O73 2.266 . S
In65 O74 2.326 1_556 S
In65 O76 2.294 . S
In65 O77 2.326 . S
O66 In65 2.294 . S
O66 C75 1.240 . S
O67 In65 2.326 . S
O67 C75 1.252 . S
C68 O71 1.252 . S
C68 O72 1.260 . S
C69 O76 1.240 . S
C69 O77 1.252 . S
C70 O73 1.252 1_554 S
C70 O74 1.260 . S
O71 In65 2.266 . S
O71 C68 1.252 . S
O72 In65 2.326 . S
O72 C68 1.260 . S
O73 In65 2.266 . S
O73 C70 1.252 1_556 S
O74 In65 2.326 1_554 S
O74 C70 1.260 . S
C75 O66 1.240 . S
C75 O67 1.252 . S
O76 In65 2.294 . S
O76 C69 1.240 . S
O77 In65 2.326 . S
O77 C69 1.252 . S
In78 O79 2.294 . S
In78 O80 2.326 . S
In78 O84 2.266 . S
In78 O85 2.326 . S
In78 O86 2.266 . S
In78 O87 2.326 . S
In78 O89 2.294 . S
In78 O90 2.326 . S
O79 In78 2.294 . S
O79 C88 1.240 . S
O80 In78 2.326 . S
O80 C88 1.252 . S
C81 O84 1.252 . S
C81 O85 1.260 . S
C82 O89 1.240 . S
C82 O90 1.252 . S
C83 O86 1.252 . S
C83 O87 1.260 . S
O84 In78 2.266 . S
O84 C81 1.252 . S
O85 In78 2.326 . S
O85 C81 1.260 . S
O86 In78 2.266 . S
O86 C83 1.252 . S
O87 In78 2.326 . S
O87 C83 1.260 . S
C88 O79 1.240 . S
C88 O80 1.252 . S
O89 In78 2.294 . S
O89 C82 1.240 . S
O90 In78 2.326 . S
O90 C82 1.252 . S
In91 O92 2.294 . S
In91 O93 2.326 . S
In91 O97 2.266 . S
In91 O98 2.326 . S
In91 O99 2.266 . S
In91 O100 2.326 . S
In91 O102 2.294 . S
In91 O103 2.326 . S
O92 In91 2.294 . S
O92 C101 1.240 . S
O93 In91 2.326 . S
O93 C101 1.252 . S
C94 O97 1.252 . S
C94 O98 1.260 . S
C95 O102 1.240 . S
C95 O103 1.252 . S
C96 O99 1.252 . S
C96 O100 1.260 . S
O97 In91 2.266 . S
O97 C94 1.252 . S
O98 In91 2.326 . S
O98 C94 1.260 . S
O99 In91 2.266 . S
O99 C96 1.252 . S
O100 In91 2.326 . S
O100 C96 1.260 . S
C101 O92 1.240 . S
C101 O93 1.252 . S
O102 In91 2.294 . S
O102 C95 1.240 . S
O103 In91 2.326 . S
O103 C95 1.252 . S
In104 O105 2.294 . S
In104 O106 2.326 . S
In104 O110 2.266 . S
In104 O111 2.326 . S
In104 O112 2.266 . S
In104 O113 2.326 . S
In104 O115 2.294 . S
In104 O116 2.326 . S
O105 In104 2.294 . S
O105 C114 1.240 . S
O106 In104 2.326 . S
O106 C114 1.252 . S
C107 O110 1.252 . S
C107 O111 1.260 . S
C108 O115 1.240 . S
C108 O116 1.252 . S
C109 O112 1.252 . S
C109 O113 1.260 . S
O110 In104 2.266 . S
O110 C107 1.252 . S
O111 In104 2.326 . S
O111 C107 1.260 . S
O112 In104 2.266 . S
O112 C109 1.252 . S
O113 In104 2.326 . S
O113 C109 1.260 . S
C114 O105 1.240 . S
C114 O106 1.252 . S
O115 In104 2.294 . S
O115 C108 1.240 . S
O116 In104 2.326 . S
O116 C108 1.252 . S
In117 O118 2.294 . S
In117 O119 2.326 . S
In117 O123 2.266 . S
In117 O124 2.326 . S
In117 O125 2.266 . S
In117 O126 2.326 . S
In117 O128 2.294 . S
In117 O129 2.326 . S
O118 In117 2.294 . S
O118 C127 1.240 . S
O119 In117 2.326 . S
O119 C127 1.252 . S
C120 O123 1.252 . S
C120 O124 1.260 . S
C121 O128 1.240 . S
C121 O129 1.252 . S
C122 O125 1.252 . S
C122 O126 1.260 . S
O123 In117 2.266 . S
O123 C120 1.252 . S
O124 In117 2.326 . S
O124 C120 1.260 . S
O125 In117 2.266 . S
O125 C122 1.252 . S
O126 In117 2.326 . S
O126 C122 1.260 . S
C127 O118 1.240 . S
C127 O119 1.252 . S
O128 In117 2.294 . S
O128 C121 1.240 . S
O129 In117 2.326 . S
O129 C121 1.252 . S
In130 O131 2.294 . S
In130 O132 2.326 . S
In130 O136 2.266 . S
In130 O137 2.326 . S
In130 O138 2.266 . S
In130 O139 2.326 . S
In130 O141 2.294 . S
In130 O142 2.326 . S
O131 In130 2.294 . S
O131 C140 1.240 . S
O132 In130 2.326 . S
O132 C140 1.252 . S
C133 O136 1.252 . S
C133 O137 1.260 . S
C134 O141 1.240 . S
C134 O142 1.252 . S
C135 O138 1.252 . S
C135 O139 1.260 . S
O136 In130 2.266 . S
O136 C133 1.252 . S
O137 In130 2.326 . S
O137 C133 1.260 . S
O138 In130 2.266 . S
O138 C135 1.252 . S
O139 In130 2.326 . S
O139 C135 1.260 . S
C140 O131 1.240 . S
C140 O132 1.252 . S
O141 In130 2.294 . S
O141 C134 1.240 . S
O142 In130 2.326 . S
O142 C134 1.252 . S
In143 O144 2.294 . S
In143 O145 2.326 . S
In143 O149 2.266 . S
In143 O150 2.326 . S
In143 O151 2.266 . S
In143 O152 2.326 . S
In143 O154 2.294 . S
In143 O155 2.326 . S
O144 In143 2.294 . S
O144 C153 1.240 . S
O145 In143 2.326 . S
O145 C153 1.252 . S
C146 O149 1.252 . S
C146 O150 1.260 . S
C147 O154 1.240 . S
C147 O155 1.252 . S
C148 O151 1.252 . S
C148 O152 1.260 . S
O149 In143 2.266 . S
O149 C146 1.252 . S
O150 In143 2.326 . S
O150 C146 1.260 . S
O151 In143 2.266 . S
O151 C148 1.252 . S
O152 In143 2.326 . S
O152 C148 1.260 . S
C153 O144 1.240 . S
C153 O145 1.252 . S
O154 In143 2.294 . S
O154 C147 1.240 . S
O155 In143 2.326 . S
O155 C147 1.252 . S
In156 O157 2.294 . S
In156 O158 2.326 . S
In156 O162 2.266 . S
In156 O163 2.326 . S
In156 O164 2.266 . S
In156 O165 2.326 . S
In156 O167 2.294 . S
In156 O168 2.326 . S
O157 In156 2.294 . S
O157 C166 1.240 . S
O158 In156 2.326 . S
O158 C166 1.252 . S
C159 O162 1.252 . S
C159 O163 1.260 . S
C160 O167 1.240 . S
C160 O168 1.252 . S
C161 O164 1.252 . S
C161 O165 1.260 . S
O162 In156 2.266 . S
O162 C159 1.252 . S
O163 In156 2.326 . S
O163 C159 1.260 . S
O164 In156 2.266 . S
O164 C161 1.252 . S
O165 In156 2.326 . S
O165 C161 1.260 . S
C166 O157 1.240 . S
C166 O158 1.252 . S
O167 In156 2.294 . S
O167 C160 1.240 . S
O168 In156 2.326 . S
O168 C160 1.252 . S
In169 O170 2.294 . S
In169 O171 2.326 . S
In169 O175 2.266 . S
In169 O176 2.326 . S
In169 O177 2.266 . S
In169 O178 2.326 . S
In169 O180 2.294 . S
In169 O181 2.326 . S
O170 In169 2.294 . S
O170 C179 1.240 . S
O171 In169 2.326 . S
O171 C179 1.252 . S
C172 O175 1.252 . S
C172 O176 1.260 . S
C173 O180 1.240 . S
C173 O181 1.252 . S
C174 O177 1.252 . S
C174 O178 1.260 . S
O175 In169 2.266 . S
O175 C172 1.252 . S
O176 In169 2.326 . S
O176 C172 1.260 . S
O177 In169 2.266 . S
O177 C174 1.252 . S
O178 In169 2.326 . S
O178 C174 1.260 . S
C179 O170 1.240 . S
C179 O171 1.252 . S
O180 In169 2.294 . S
O180 C173 1.240 . S
O181 In169 2.326 . S
O181 C173 1.252 . S
In182 O183 2.294 . S
In182 O184 2.326 . S
In182 O188 2.266 . S
In182 O189 2.326 . S
In182 O190 2.266 . S
In182 O191 2.326 . S
In182 O193 2.294 . S
In182 O194 2.326 . S
O183 In182 2.294 . S
O183 C192 1.240 . S
O184 In182 2.326 . S
O184 C192 1.252 . S
C185 O188 1.252 . S
C185 O189 1.260 . S
C186 O193 1.240 . S
C186 O194 1.252 . S
C187 O190 1.252 . S
C187 O191 1.260 . S
O188 In182 2.266 . S
O188 C185 1.252 . S
O189 In182 2.326 . S
O189 C185 1.260 . S
O190 In182 2.266 . S
O190 C187 1.252 . S
O191 In182 2.326 . S
O191 C187 1.260 . S
C192 O183 1.240 . S
C192 O184 1.252 . S
O193 In182 2.294 . S
O193 C186 1.240 . S
O194 In182 2.326 . S
O194 C186 1.252 . S
In195 O196 2.294 . S
In195 O197 2.326 . S
In195 O201 2.266 . S
In195 O202 2.326 . S
In195 O203 2.266 . S
In195 O204 2.326 . S
In195 O206 2.294 . S
In195 O207 2.326 . S
O196 In195 2.294 . S
O196 C205 1.240 . S
O197 In195 2.326 . S
O197 C205 1.252 . S
C198 O201 1.252 . S
C198 O202 1.260 . S
C199 O206 1.240 . S
C199 O207 1.252 . S
C200 O203 1.252 . S
C200 O204 1.260 . S
O201 In195 2.266 . S
O201 C198 1.252 . S
O202 In195 2.326 . S
O202 C198 1.260 . S
O203 In195 2.266 . S
O203 C200 1.252 . S
O204 In195 2.326 . S
O204 C200 1.260 . S
C205 O196 1.240 . S
C205 O197 1.252 . S
O206 In195 2.294 . S
O206 C199 1.240 . S
O207 In195 2.326 . S
O207 C199 1.252 . S
In208 O209 2.294 . S
In208 O210 2.326 . S
In208 O214 2.266 . S
In208 O215 2.326 . S
In208 O216 2.266 . S
In208 O217 2.326 . S
In208 O219 2.294 . S
In208 O220 2.326 . S
O209 In208 2.294 . S
O209 C218 1.240 . S
O210 In208 2.326 . S
O210 C218 1.252 . S
C211 O214 1.252 . S
C211 O215 1.260 . S
C212 O219 1.240 . S
C212 O220 1.252 . S
C213 O216 1.252 . S
C213 O217 1.260 . S
O214 In208 2.266 . S
O214 C211 1.252 . S
O215 In208 2.326 . S
O215 C211 1.260 . S
O216 In208 2.266 . S
O216 C213 1.252 . S
O217 In208 2.326 . S
O217 C213 1.260 . S
C218 O209 1.240 . S
C218 O210 1.252 . S
O219 In208 2.294 . S
O219 C212 1.240 . S
O220 In208 2.326 . S
O220 C212 1.252 . S
In221 O222 2.294 . S
In221 O223 2.326 . S
In221 O227 2.266 . S
In221 O228 2.326 . S
In221 O229 2.266 . S
In221 O230 2.326 . S
In221 O232 2.294 . S
In221 O233 2.326 . S
O222 In221 2.294 . S
O222 C231 1.240 . S
O223 In221 2.326 . S
O223 C231 1.252 . S
C224 O227 1.252 . S
C224 O228 1.260 . S
C225 O232 1.240 . S
C225 O233 1.252 . S
C226 O229 1.252 . S
C226 O230 1.260 . S
O227 In221 2.266 . S
O227 C224 1.252 . S
O228 In221 2.326 . S
O228 C224 1.260 . S
O229 In221 2.266 . S
O229 C226 1.252 . S
O230 In221 2.326 . S
O230 C226 1.260 . S
C231 O222 1.240 . S
C231 O223 1.252 . S
O232 In221 2.294 . S
O232 C225 1.240 . S
O233 In221 2.326 . S
O233 C225 1.252 . S
H234 C242 0.950 . S
H235 C247 0.950 . S
H236 C244 0.950 . S
H237 C246 0.950 . S
H238 C248 0.950 . S
H239 C250 0.950 . S
H240 C252 0.950 . S
H241 C253 0.950 . S
C242 H234 0.950 . S
C242 C243 1.386 . S
C242 C244 1.391 . S
C243 C242 1.386 . S
C243 C247 1.393 . S
C244 H236 0.950 . S
C244 C242 1.391 . S
C244 C245 1.400 . S
C245 C244 1.400 . S
C245 C246 1.398 . S
C245 C251 1.491 . S
C246 H237 0.950 . S
C246 C245 1.398 . S
C246 C247 1.391 . S
C247 H235 0.950 . S
C247 C243 1.393 . S
C247 C246 1.391 . S
C248 H238 0.950 . S
C248 C249 1.386 . S
C248 C250 1.391 . S
C249 C248 1.386 . S
C249 C253 1.393 . S
C250 H239 0.950 . S
C250 C248 1.391 . S
C250 C251 1.400 . S
C251 C245 1.491 . S
C251 C250 1.400 . S
C251 C252 1.398 . S
C252 H240 0.950 . S
C252 C251 1.398 . S
C252 C253 1.391 . S
C253 H241 0.950 . S
C253 C249 1.393 . S
C253 C252 1.391 . S
H254 C262 0.950 . S
H255 C267 0.950 . S
H256 C264 0.950 . S
H257 C266 0.950 . S
H258 C268 0.950 . S
H259 C270 0.950 . S
H260 C272 0.950 . S
H261 C273 0.950 . S
C262 H254 0.950 . S
C262 C263 1.386 . S
C262 C264 1.391 . S
C263 C262 1.386 . S
C263 C267 1.393 . S
C264 H256 0.950 . S
C264 C262 1.391 . S
C264 C265 1.400 . S
C265 C264 1.400 . S
C265 C266 1.398 . S
C265 C271 1.491 . S
C266 H257 0.950 . S
C266 C265 1.398 . S
C266 C267 1.391 . S
C267 H255 0.950 . S
C267 C263 1.393 . S
C267 C266 1.391 . S
C268 H258 0.950 . S
C268 C269 1.386 . S
C268 C270 1.391 . S
C269 C268 1.386 . S
C269 C273 1.393 . S
C270 H259 0.950 . S
C270 C268 1.391 . S
C270 C271 1.400 . S
C271 C265 1.491 . S
C271 C270 1.400 . S
C271 C272 1.398 . S
C272 H260 0.950 . S
C272 C271 1.398 . S
C272 C273 1.391 . S
C273 H261 0.950 . S
C273 C269 1.393 . S
C273 C272 1.391 . S
H274 C282 0.950 . S
H275 C287 0.950 . S
H276 C284 0.950 . S
H277 C286 0.950 . S
H278 C288 0.950 . S
H279 C290 0.950 . S
H280 C292 0.950 . S
H281 C293 0.950 . S
C282 H274 0.950 . S
C282 C283 1.386 . S
C282 C284 1.391 . S
C283 C282 1.386 . S
C283 C287 1.393 . S
C284 H276 0.950 . S
C284 C282 1.391 . S
C284 C285 1.400 . S
C285 C284 1.400 . S
C285 C286 1.398 . S
C285 C291 1.491 . S
C286 H277 0.950 . S
C286 C285 1.398 . S
C286 C287 1.391 . S
C287 H275 0.950 . S
C287 C283 1.393 . S
C287 C286 1.391 . S
C288 H278 0.950 . S
C288 C289 1.386 . S
C288 C290 1.391 . S
C289 C288 1.386 . S
C289 C293 1.393 . S
C290 H279 0.950 . S
C290 C288 1.391 . S
C290 C291 1.400 . S
C291 C285 1.491 . S
C291 C290 1.400 . S
C291 C292 1.398 . S
C292 H280 0.950 . S
C292 C291 1.398 . S
C292 C293 1.391 . S
C293 H281 0.950 . S
C293 C289 1.393 . S
C293 C292 1.391 . S
H294 C302 0.950 . S
H295 C307 0.950 . S
H296 C304 0.950 . S
H297 C306 0.950 . S
H298 C308 0.950 . S
H299 C310 0.950 . S
H300 C312 0.950 . S
H301 C313 0.950 . S
C302 H294 0.950 . S
C302 C303 1.386 . S
C302 C304 1.391 . S
C303 C302 1.386 . S
C303 C307 1.393 . S
C304 H296 0.950 . S
C304 C302 1.391 . S
C304 C305 1.400 . S
C305 C304 1.400 . S
C305 C306 1.398 . S
C305 C311 1.491 . S
C306 H297 0.950 . S
C306 C305 1.398 . S
C306 C307 1.391 . S
C307 H295 0.950 . S
C307 C303 1.393 . S
C307 C306 1.391 . S
C308 H298 0.950 . S
C308 C309 1.386 . S
C308 C310 1.391 . S
C309 C308 1.386 . S
C309 C313 1.393 . S
C310 H299 0.950 . S
C310 C308 1.391 . S
C310 C311 1.400 . S
C311 C305 1.491 . S
C311 C310 1.400 . S
C311 C312 1.398 . S
C312 H300 0.950 . S
C312 C311 1.398 . S
C312 C313 1.391 . S
C313 H301 0.950 . S
C313 C309 1.393 . S
C313 C312 1.391 . S
H314 C322 0.950 . S
H315 C327 0.950 . S
H316 C324 0.950 . S
H317 C326 0.950 . S
H318 C328 0.950 . S
H319 C330 0.950 . S
H320 C332 0.950 . S
H321 C333 0.950 . S
C322 H314 0.950 . S
C322 C323 1.386 . S
C322 C324 1.391 . S
C323 C322 1.386 . S
C323 C327 1.393 . S
C324 H316 0.950 . S
C324 C322 1.391 . S
C324 C325 1.400 . S
C325 C324 1.400 . S
C325 C326 1.398 . S
C325 C331 1.491 . S
C326 H317 0.950 . S
C326 C325 1.398 . S
C326 C327 1.391 . S
C327 H315 0.950 . S
C327 C323 1.393 . S
C327 C326 1.391 . S
C328 H318 0.950 . S
C328 C329 1.386 . S
C328 C330 1.391 . S
C329 C328 1.386 . S
C329 C333 1.393 . S
C330 H319 0.950 . S
C330 C328 1.391 . S
C330 C331 1.400 . S
C331 C325 1.491 . S
C331 C330 1.400 . S
C331 C332 1.398 . S
C332 H320 0.950 . S
C332 C331 1.398 . S
C332 C333 1.391 . S
C333 H321 0.950 . S
C333 C329 1.393 . S
C333 C332 1.391 . S
H334 C342 0.950 . S
H335 C347 0.950 . S
H336 C344 0.950 . S
H337 C346 0.950 . S
H338 C348 0.950 . S
H339 C350 0.950 . S
H340 C352 0.950 . S
H341 C353 0.950 . S
C342 H334 0.950 . S
C342 C343 1.386 . S
C342 C344 1.391 . S
C343 C342 1.386 . S
C343 C347 1.393 . S
C344 H336 0.950 . S
C344 C342 1.391 . S
C344 C345 1.400 . S
C345 C344 1.400 . S
C345 C346 1.398 . S
C345 C351 1.491 . S
C346 H337 0.950 . S
C346 C345 1.398 . S
C346 C347 1.391 . S
C347 H335 0.950 . S
C347 C343 1.393 . S
C347 C346 1.391 . S
C348 H338 0.950 . S
C348 C349 1.386 . S
C348 C350 1.391 . S
C349 C348 1.386 . S
C349 C353 1.393 . S
C350 H339 0.950 . S
C350 C348 1.391 . S
C350 C351 1.400 . S
C351 C345 1.491 . S
C351 C350 1.400 . S
C351 C352 1.398 . S
C352 H340 0.950 . S
C352 C351 1.398 . S
C352 C353 1.391 . S
C353 H341 0.950 . S
C353 C349 1.393 . S
C353 C352 1.391 . S
H354 C362 0.950 . S
H355 C367 0.950 . S
H356 C364 0.950 1_455 S
H357 C366 0.950 . S
H358 C368 0.950 . S
H359 C370 0.950 1_655 S
H360 C372 0.950 . S
H361 C373 0.950 . S
C362 H354 0.950 . S
C362 C363 1.386 . S
C362 C364 1.391 . S
C363 C362 1.386 . S
C363 C367 1.393 . S
C364 H356 0.950 1_655 S
C364 C362 1.391 . S
C364 C365 1.400 . S
C365 C364 1.400 . S
C365 C366 1.398 . S
C365 C371 1.491 1_654 S
C366 H357 0.950 . S
C366 C365 1.398 . S
C366 C367 1.391 . S
C367 H355 0.950 . S
C367 C363 1.393 . S
C367 C366 1.391 . S
C368 H358 0.950 . S
C368 C369 1.386 . S
C368 C370 1.391 . S
C369 C368 1.386 . S
C369 C373 1.393 . S
C370 H359 0.950 1_455 S
C370 C368 1.391 . S
C370 C371 1.400 . S
C371 C365 1.491 1_456 S
C371 C370 1.400 . S
C371 C372 1.398 . S
C372 H360 0.950 . S
C372 C371 1.398 . S
C372 C373 1.391 . S
C373 H361 0.950 . S
C373 C369 1.393 . S
C373 C372 1.391 . S
H374 C382 0.950 . S
H375 C387 0.950 . S
H376 C384 0.950 . S
H377 C386 0.950 . S
H378 C388 0.950 . S
H379 C390 0.950 . S
H380 C392 0.950 . S
H381 C393 0.950 . S
C382 H374 0.950 . S
C382 C383 1.386 . S
C382 C384 1.391 . S
C383 C382 1.386 . S
C383 C387 1.393 . S
C384 H376 0.950 . S
C384 C382 1.391 . S
C384 C385 1.400 . S
C385 C384 1.400 . S
C385 C386 1.398 . S
C385 C391 1.491 1_554 S
C386 H377 0.950 . S
C386 C385 1.398 . S
C386 C387 1.391 . S
C387 H375 0.950 . S
C387 C383 1.393 . S
C387 C386 1.391 . S
C388 H378 0.950 . S
C388 C389 1.386 . S
C388 C390 1.391 . S
C389 C388 1.386 . S
C389 C393 1.393 . S
C390 H379 0.950 . S
C390 C388 1.391 . S
C390 C391 1.400 . S
C391 C385 1.491 1_556 S
C391 C390 1.400 . S
C391 C392 1.398 . S
C392 H380 0.950 . S
C392 C391 1.398 . S
C392 C393 1.391 . S
C393 H381 0.950 . S
C393 C389 1.393 . S
C393 C392 1.391 . S
H394 C402 0.945 . S
H395 C407 0.950 . S
H396 C404 0.950 . S
H397 C406 0.950 . S
H398 C408 0.950 . S
H399 C410 0.950 . S
H400 C412 0.950 . S
H401 C413 0.950 . S
C402 H394 0.945 . S
C402 C403 1.386 . S
C402 C404 1.391 1_545 S
C403 C402 1.386 . S
C403 C407 1.393 . S
C404 H396 0.950 . S
C404 C402 1.391 1_565 S
C404 C405 1.400 1_565 S
C405 C404 1.400 1_545 S
C405 C406 1.398 . S
C405 C411 1.491 1_544 S
C406 H397 0.950 . S
C406 C405 1.398 . S
C406 C407 1.391 . S
C407 H395 0.950 . S
C407 C403 1.393 . S
C407 C406 1.391 . S
C408 H398 0.950 . S
C408 C409 1.386 . S
C408 C410 1.391 1_565 S
C409 C408 1.386 . S
C409 C413 1.393 . S
C410 H399 0.950 . S
C410 C408 1.391 1_545 S
C410 C411 1.400 1_545 S
C411 C405 1.491 1_566 S
C411 C410 1.400 1_565 S
C411 C412 1.398 . S
C412 H400 0.950 . S
C412 C411 1.398 . S
C412 C413 1.391 . S
C413 H401 0.950 . S
C413 C409 1.393 . S
C413 C412 1.391 . S
H414 C422 0.950 . S
H415 C427 0.950 . S
H416 C424 0.950 . S
H417 C426 0.950 . S
H418 C428 0.950 . S
H419 C430 0.950 . S
H420 C432 0.950 . S
H421 C433 0.950 . S
C422 H414 0.950 . S
C422 C423 1.386 . S
C422 C424 1.391 . S
C423 C422 1.386 . S
C423 C427 1.393 . S
C424 H416 0.950 . S
C424 C422 1.391 . S
C424 C425 1.400 . S
C425 C424 1.400 . S
C425 C426 1.398 . S
C425 C431 1.491 . S
C426 H417 0.950 . S
C426 C425 1.398 . S
C426 C427 1.391 . S
C427 H415 0.950 . S
C427 C423 1.393 . S
C427 C426 1.391 . S
C428 H418 0.950 . S
C428 C429 1.386 . S
C428 C430 1.391 . S
C429 C428 1.386 . S
C429 C433 1.393 . S
C430 H419 0.950 . S
C430 C428 1.391 . S
C430 C431 1.400 . S
C431 C425 1.491 . S
C431 C430 1.400 . S
C431 C432 1.398 . S
C432 H420 0.950 . S
C432 C431 1.398 . S
C432 C433 1.391 . S
C433 H421 0.950 . S
C433 C429 1.393 . S
C433 C432 1.391 . S
H434 C442 0.950 . S
H435 C447 0.950 . S
H436 C444 0.950 . S
H437 C446 0.950 . S
H438 C448 0.950 . S
H439 C450 0.950 . S
H440 C452 0.950 . S
H441 C453 0.950 . S
C442 H434 0.950 . S
C442 C443 1.386 . S
C442 C444 1.391 . S
C443 C442 1.386 . S
C443 C447 1.393 . S
C444 H436 0.950 . S
C444 C442 1.391 . S
C444 C445 1.400 . S
C445 C444 1.400 . S
C445 C446 1.398 . S
C445 C451 1.491 . S
C446 H437 0.950 . S
C446 C445 1.398 . S
C446 C447 1.391 . S
C447 H435 0.950 . S
C447 C443 1.393 . S
C447 C446 1.391 . S
C448 H438 0.950 . S
C448 C449 1.386 . S
C448 C450 1.391 . S
C449 C448 1.386 . S
C449 C453 1.393 . S
C450 H439 0.950 . S
C450 C448 1.391 . S
C450 C451 1.400 . S
C451 C445 1.491 . S
C451 C450 1.400 . S
C451 C452 1.398 . S
C452 H440 0.950 . S
C452 C451 1.398 . S
C452 C453 1.391 . S
C453 H441 0.950 . S
C453 C449 1.393 . S
C453 C452 1.391 . S
H454 C462 0.950 . S
H455 C467 0.950 . S
H456 C464 0.950 . S
H457 C466 0.950 . S
H458 C468 0.950 . S
H459 C470 0.950 . S
H460 C472 0.950 . S
H461 C473 0.950 . S
C462 H454 0.950 . S
C462 C463 1.386 . S
C462 C464 1.391 . S
C463 C462 1.386 . S
C463 C467 1.393 . S
C464 H456 0.950 . S
C464 C462 1.391 . S
C464 C465 1.400 . S
C465 C464 1.400 . S
C465 C466 1.398 . S
C465 C471 1.491 . S
C466 H457 0.950 . S
C466 C465 1.398 . S
C466 C467 1.391 . S
C467 H455 0.950 . S
C467 C463 1.393 . S
C467 C466 1.391 . S
C468 H458 0.950 . S
C468 C469 1.386 . S
C468 C470 1.391 . S
C469 C468 1.386 . S
C469 C473 1.393 . S
C470 H459 0.950 . S
C470 C468 1.391 . S
C470 C471 1.400 . S
C471 C465 1.491 . S
C471 C470 1.400 . S
C471 C472 1.398 . S
C472 H460 0.950 . S
C472 C471 1.398 . S
C472 C473 1.391 . S
C473 H461 0.950 . S
C473 C469 1.393 . S
C473 C472 1.391 . S
H474 C482 0.950 . S
H475 C487 0.950 . S
H476 C484 0.950 . S
H477 C486 0.950 . S
H478 C488 0.950 . S
H479 C490 0.950 . S
H480 C492 0.950 . S
H481 C493 0.950 . S
C482 H474 0.950 . S
C482 C483 1.386 . S
C482 C484 1.391 . S
C483 C482 1.386 . S
C483 C487 1.393 . S
C484 H476 0.950 . S
C484 C482 1.391 . S
C484 C485 1.400 . S
C485 C484 1.400 . S
C485 C486 1.398 . S
C485 C491 1.491 . S
C486 H477 0.950 . S
C486 C485 1.398 . S
C486 C487 1.391 . S
C487 H475 0.950 . S
C487 C483 1.393 . S
C487 C486 1.391 . S
C488 H478 0.950 . S
C488 C489 1.386 . S
C488 C490 1.391 . S
C489 C488 1.386 . S
C489 C493 1.393 . S
C490 H479 0.950 . S
C490 C488 1.391 . S
C490 C491 1.400 . S
C491 C485 1.491 . S
C491 C490 1.400 . S
C491 C492 1.398 . S
C492 H480 0.950 . S
C492 C491 1.398 . S
C492 C493 1.391 . S
C493 H481 0.950 . S
C493 C489 1.393 . S
C493 C492 1.391 . S
H494 C502 0.950 . S
H495 C507 0.950 . S
H496 C504 0.950 . S
H497 C506 0.950 . S
H498 C508 0.950 . S
H499 C510 0.950 . S
H500 C512 0.950 . S
H501 C513 0.950 . S
C502 H494 0.950 . S
C502 C503 1.386 . S
C502 C504 1.391 . S
C503 C502 1.386 . S
C503 C507 1.393 . S
C504 H496 0.950 . S
C504 C502 1.391 . S
C504 C505 1.400 . S
C505 C504 1.400 . S
C505 C506 1.398 . S
C505 C511 1.491 . S
C506 H497 0.950 . S
C506 C505 1.398 . S
C506 C507 1.391 . S
C507 H495 0.950 . S
C507 C503 1.393 . S
C507 C506 1.391 . S
C508 H498 0.950 . S
C508 C509 1.386 . S
C508 C510 1.391 . S
C509 C508 1.386 . S
C509 C513 1.393 . S
C510 H499 0.950 . S
C510 C508 1.391 . S
C510 C511 1.400 . S
C511 C505 1.491 . S
C511 C510 1.400 . S
C511 C512 1.398 . S
C512 H500 0.950 . S
C512 C511 1.398 . S
C512 C513 1.391 . S
C513 H501 0.950 . S
C513 C509 1.393 . S
C513 C512 1.391 . S
H514 C522 0.950 . S
H515 C527 0.950 . S
H516 C524 0.950 . S
H517 C526 0.950 . S
H518 C528 0.950 . S
H519 C530 0.950 . S
H520 C532 0.950 . S
H521 C533 0.950 . S
C522 H514 0.950 . S
C522 C523 1.386 . S
C522 C524 1.391 . S
C523 C522 1.386 . S
C523 C527 1.393 . S
C524 H516 0.950 . S
C524 C522 1.391 . S
C524 C525 1.400 . S
C525 C524 1.400 . S
C525 C526 1.398 . S
C525 C531 1.491 . S
C526 H517 0.950 . S
C526 C525 1.398 . S
C526 C527 1.391 . S
C527 H515 0.950 . S
C527 C523 1.393 . S
C527 C526 1.391 . S
C528 H518 0.950 . S
C528 C529 1.386 . S
C528 C530 1.391 . S
C529 C528 1.386 . S
C529 C533 1.393 . S
C530 H519 0.950 . S
C530 C528 1.391 . S
C530 C531 1.400 . S
C531 C525 1.491 . S
C531 C530 1.400 . S
C531 C532 1.398 . S
C532 H520 0.950 . S
C532 C531 1.398 . S
C532 C533 1.391 . S
C533 H521 0.950 . S
C533 C529 1.393 . S
C533 C532 1.391 . S
H534 C542 0.950 . S
H535 C547 0.928 1_455 S
H536 C544 0.950 . S
H537 C546 0.950 . S
H538 C548 0.950 . S
H539 C550 0.950 . S
H540 C552 0.950 . S
H541 C553 0.950 . S
C542 H534 0.950 . S
C542 C543 1.386 . S
C542 C544 1.391 . S
C543 C542 1.386 . S
C543 C547 1.423 . S
C544 H536 0.950 . S
C544 C542 1.391 . S
C544 C545 1.400 . S
C545 C544 1.400 . S
C545 C546 1.398 1_655 S
C545 C551 1.491 1_655 S
C546 H537 0.950 . S
C546 C545 1.398 1_455 S
C546 C547 1.383 1_455 S
C547 H535 0.928 1_655 S
C547 C543 1.423 . S
C547 C546 1.383 1_655 S
C548 H538 0.950 . S
C548 C549 1.386 . S
C548 C550 1.391 . S
C549 C548 1.386 . S
C549 C553 1.393 1_455 S
C550 H539 0.950 . S
C550 C548 1.391 . S
C550 C551 1.400 . S
C551 C545 1.491 1_455 S
C551 C550 1.400 . S
C551 C552 1.398 1_455 S
C552 H540 0.950 . S
C552 C551 1.398 1_655 S
C552 C553 1.391 . S
C553 H541 0.950 . S
C553 C549 1.393 1_655 S
C553 C552 1.391 . S
H554 C562 0.950 . S
H555 C567 0.950 . S
H556 C564 0.950 . S
H557 C566 0.950 . S
H558 C568 0.950 . S
H559 C570 0.950 . S
H560 C572 0.950 . S
H561 C573 0.950 . S
C562 H554 0.950 . S
C562 C563 1.386 . S
C562 C564 1.391 . S
C563 C562 1.386 . S
C563 C567 1.393 . S
C564 H556 0.950 . S
C564 C562 1.391 . S
C564 C565 1.400 . S
C565 C564 1.400 . S
C565 C566 1.398 . S
C565 C571 1.491 . S
C566 H557 0.950 . S
C566 C565 1.398 . S
C566 C567 1.391 . S
C567 H555 0.950 . S
C567 C563 1.393 . S
C567 C566 1.391 . S
C568 H558 0.950 . S
C568 C569 1.386 . S
C568 C570 1.391 . S
C569 C568 1.386 . S
C569 C573 1.393 . S
C570 H559 0.950 . S
C570 C568 1.391 . S
C570 C571 1.400 . S
C571 C565 1.491 . S
C571 C570 1.400 . S
C571 C572 1.398 . S
C572 H560 0.950 . S
C572 C571 1.398 . S
C572 C573 1.391 . S
C573 H561 0.950 . S
C573 C569 1.393 . S
C573 C572 1.391 . S
H574 C582 0.950 . S
H575 C587 0.950 . S
H576 C584 0.950 . S
H577 C586 0.950 . S
H578 C588 0.950 . S
H579 C590 0.950 . S
H580 C592 0.949 . S
H581 C593 0.950 . S
C582 H574 0.950 . S
C582 C583 1.386 . S
C582 C584 1.391 . S
C583 C582 1.386 . S
C583 C587 1.393 . S
C584 H576 0.950 . S
C584 C582 1.391 . S
C584 C585 1.400 . S
C585 C584 1.400 . S
C585 C586 1.398 . S
C585 C591 1.491 1_565 S
C586 H577 0.950 . S
C586 C585 1.398 . S
C586 C587 1.391 . S
C587 H575 0.950 . S
C587 C583 1.393 . S
C587 C586 1.391 . S
C588 H578 0.950 . S
C588 C589 1.386 . S
C588 C590 1.391 . S
C589 C588 1.386 . S
C589 C593 1.393 . S
C590 H579 0.950 . S
C590 C588 1.391 . S
C590 C591 1.400 . S
C591 C585 1.491 1_545 S
C591 C590 1.400 . S
C591 C592 1.398 . S
C592 H580 0.949 . S
C592 C591 1.398 . S
C592 C593 1.391 . S
C593 H581 0.950 . S
C593 C589 1.393 . S
C593 C592 1.391 . S
H594 C602 0.950 . S
H595 C607 0.950 . S
H596 C604 0.950 1_556 S
H597 C606 0.950 . S
H598 C608 0.950 . S
H599 C610 0.950 1_554 S
H600 C612 0.950 . S
H601 C613 0.950 . S
C602 H594 0.950 . S
C602 C603 1.386 . S
C602 C604 1.391 . S
C603 C602 1.386 . S
C603 C607 1.393 . S
C604 H596 0.950 1_554 S
C604 C602 1.391 . S
C604 C605 1.400 . S
C605 C604 1.400 . S
C605 C606 1.398 . S
C605 C611 1.491 1_554 S
C606 H597 0.950 . S
C606 C605 1.398 . S
C606 C607 1.391 . S
C607 H595 0.950 . S
C607 C603 1.393 . S
C607 C606 1.391 . S
C608 H598 0.950 . S
C608 C609 1.386 . S
C608 C610 1.391 . S
C609 C608 1.386 . S
C609 C613 1.393 . S
C610 H599 0.950 1_556 S
C610 C608 1.391 . S
C610 C611 1.400 . S
C611 C605 1.491 1_556 S
C611 C610 1.400 . S
C611 C612 1.398 . S
C612 H600 0.950 . S
C612 C611 1.398 . S
C612 C613 1.391 . S
C613 H601 0.950 . S
C613 C609 1.393 . S
C613 C612 1.391 . S
H614 C622 0.950 . S
H615 C627 0.950 . S
H616 C624 0.950 . S
H617 C626 0.950 1_554 S
H618 C628 0.950 . S
H619 C630 0.950 . S
H620 C632 0.950 1_556 S
H621 C633 0.950 . S
C622 H614 0.950 . S
C622 C623 1.386 . S
C622 C624 1.391 . S
C623 C622 1.386 . S
C623 C627 1.393 . S
C624 H616 0.950 . S
C624 C622 1.391 . S
C624 C625 1.400 . S
C625 C624 1.400 . S
C625 C626 1.398 . S
C625 C631 1.491 1_546 S
C626 H617 0.950 1_556 S
C626 C625 1.398 . S
C626 C627 1.391 . S
C627 H615 0.950 . S
C627 C623 1.393 . S
C627 C626 1.391 . S
C628 H618 0.950 . S
C628 C629 1.386 . S
C628 C630 1.391 . S
C629 C628 1.386 . S
C629 C633 1.393 . S
C630 H619 0.950 . S
C630 C628 1.391 . S
C630 C631 1.400 . S
C631 C625 1.491 1_564 S
C631 C630 1.400 . S
C631 C632 1.398 . S
C632 H620 0.950 1_554 S
C632 C631 1.398 . S
C632 C633 1.391 . S
C633 H621 0.950 . S
C633 C629 1.393 . S
C633 C632 1.391 . S
H634 C642 0.950 . S
H635 C647 0.950 . S
H636 C644 0.950 . S
H637 C646 0.950 . S
H638 C648 0.950 . S
H639 C650 0.950 . S
H640 C652 0.950 . S
H641 C653 0.950 . S
C642 H634 0.950 . S
C642 C643 1.386 . S
C642 C644 1.391 . S
C643 C642 1.386 . S
C643 C647 1.393 1_556 S
C644 H636 0.950 . S
C644 C642 1.391 . S
C644 C645 1.400 . S
C645 C644 1.400 . S
C645 C646 1.398 1_556 S
C645 C651 1.491 1_656 S
C646 H637 0.950 . S
C646 C645 1.398 1_554 S
C646 C647 1.391 . S
C647 H635 0.950 . S
C647 C643 1.393 1_554 S
C647 C646 1.391 . S
C648 H638 0.950 . S
C648 C649 1.386 . S
C648 C650 1.391 . S
C649 C648 1.386 . S
C649 C653 1.393 1_554 S
C650 H639 0.950 . S
C650 C648 1.391 . S
C650 C651 1.400 . S
C651 C645 1.491 1_454 S
C651 C650 1.400 . S
C651 C652 1.398 1_554 S
C652 H640 0.950 . S
C652 C651 1.398 1_556 S
C652 C653 1.391 . S
C653 H641 0.950 . S
C653 C649 1.393 1_556 S
C653 C652 1.391 . S
H654 C662 0.950 1_554 S
H655 C667 0.950 . S
H656 C664 0.950 . S
H657 C666 0.950 . S
H658 C668 0.950 1_556 S
H659 C670 0.950 . S
H660 C672 0.950 . S
H661 C673 0.950 . S
C662 H654 0.950 1_556 S
C662 C663 1.386 . S
C662 C664 1.391 1_556 S
C663 C662 1.386 . S
C663 C667 1.393 . S
C664 H656 0.950 . S
C664 C662 1.391 1_554 S
C664 C665 1.400 1_554 S
C665 C664 1.400 1_556 S
C665 C666 1.398 . S
C665 C671 1.491 1_556 S
C666 H657 0.950 . S
C666 C665 1.398 . S
C666 C667 1.391 . S
C667 H655 0.950 . S
C667 C663 1.393 . S
C667 C666 1.391 . S
C668 H658 0.950 1_554 S
C668 C669 1.386 . S
C668 C670 1.391 1_554 S
C669 C668 1.386 . S
C669 C673 1.393 . S
C670 H659 0.950 . S
C670 C668 1.391 1_556 S
C670 C671 1.400 1_556 S
C671 C665 1.491 1_554 S
C671 C670 1.400 1_554 S
C671 C672 1.398 . S
C672 H660 0.950 . S
C672 C671 1.398 . S
C672 C673 1.391 . S
C673 H661 0.950 . S
C673 C669 1.393 . S
C673 C672 1.391 . S
H674 C682 0.950 . S
H675 C687 0.950 . S
H676 C684 0.950 . S
H677 C686 0.949 1_556 S
H678 C688 0.950 . S
H679 C690 0.950 . S
H680 C692 0.949 1_554 S
H681 C693 0.950 . S
C682 H674 0.950 . S
C682 C683 1.386 . S
C682 C684 1.391 . S
C683 C682 1.386 . S
C683 C687 1.393 . S
C684 H676 0.950 . S
C684 C682 1.391 . S
C684 C685 1.400 . S
C685 C684 1.400 . S
C685 C686 1.398 . S
C685 C691 1.491 1_564 S
C686 H677 0.949 1_554 S
C686 C685 1.398 . S
C686 C687 1.391 . S
C687 H675 0.950 . S
C687 C683 1.393 . S
C687 C686 1.391 . S
C688 H678 0.950 . S
C688 C689 1.386 . S
C688 C690 1.391 . S
C689 C688 1.386 . S
C689 C693 1.393 . S
C690 H679 0.950 . S
C690 C688 1.391 . S
C690 C691 1.400 . S
C691 C685 1.491 1_546 S
C691 C690 1.400 . S
C691 C692 1.398 . S
C692 H680 0.949 1_556 S
C692 C691 1.398 . S
C692 C693 1.391 . S
C693 H681 0.950 . S
C693 C689 1.393 . S
C693 C692 1.391 . S
H694 C702 0.950 . S
H695 C707 0.950 . S
H696 C704 0.950 1_554 S
H697 C706 0.950 . S
H698 C708 0.950 . S
H699 C710 0.950 1_556 S
H700 C712 0.950 . S
H701 C713 0.950 . S
C702 H694 0.950 . S
C702 C703 1.386 . S
C702 C704 1.391 . S
C703 C702 1.386 . S
C703 C707 1.393 . S
C704 H696 0.950 1_556 S
C704 C702 1.391 . S
C704 C705 1.400 . S
C705 C704 1.400 . S
C705 C706 1.398 . S
C705 C711 1.491 1_656 S
C706 H697 0.950 . S
C706 C705 1.398 . S
C706 C707 1.391 . S
C707 H695 0.950 . S
C707 C703 1.393 . S
C707 C706 1.391 . S
C708 H698 0.950 . S
C708 C709 1.386 . S
C708 C710 1.391 . S
C709 C708 1.386 . S
C709 C713 1.393 . S
C710 H699 0.950 1_554 S
C710 C708 1.391 . S
C710 C711 1.400 . S
C711 C705 1.491 1_454 S
C711 C710 1.400 . S
C711 C712 1.398 . S
C712 H700 0.950 . S
C712 C711 1.398 . S
C712 C713 1.391 . S
C713 H701 0.950 . S
C713 C709 1.393 . S
C713 C712 1.391 . S
H714 C722 0.950 . S
H715 C727 0.950 . S
H716 C724 0.950 . S
H717 C726 0.950 . S
H718 C728 0.950 . S
H719 C730 0.950 . S
H720 C732 0.950 . S
H721 C733 0.950 . S
C722 H714 0.950 . S
C722 C723 1.386 . S
C722 C724 1.391 . S
C723 C722 1.386 . S
C723 C727 1.393 . S
C724 H716 0.950 . S
C724 C722 1.391 . S
C724 C725 1.400 . S
C725 C724 1.400 . S
C725 C726 1.398 . S
C725 C731 1.491 . S
C726 H717 0.950 . S
C726 C725 1.398 . S
C726 C727 1.391 . S
C727 H715 0.950 . S
C727 C723 1.393 . S
C727 C726 1.391 . S
C728 H718 0.950 . S
C728 C729 1.386 . S
C728 C730 1.391 . S
C729 C728 1.386 . S
C729 C733 1.393 . S
C730 H719 0.950 . S
C730 C728 1.391 . S
C730 C731 1.400 . S
C731 C725 1.491 . S
C731 C730 1.400 . S
C731 C732 1.398 . S
C732 H720 0.950 . S
C732 C731 1.398 . S
C732 C733 1.391 . S
C733 H721 0.950 . S
C733 C729 1.393 . S
C733 C732 1.391 . S
H734 C742 0.950 . S
H735 C747 0.950 . S
H736 C744 0.950 . S
H737 C746 0.950 . S
H738 C748 0.950 . S
H739 C750 0.950 . S
H740 C752 0.950 . S
H741 C753 0.950 . S
C742 H734 0.950 . S
C742 C743 1.386 . S
C742 C744 1.391 . S
C743 C742 1.386 . S
C743 C747 1.393 . S
C744 H736 0.950 . S
C744 C742 1.391 . S
C744 C745 1.400 . S
C745 C744 1.400 . S
C745 C746 1.398 . S
C745 C751 1.491 . S
C746 H737 0.950 . S
C746 C745 1.398 . S
C746 C747 1.391 . S
C747 H735 0.950 . S
C747 C743 1.393 . S
C747 C746 1.391 . S
C748 H738 0.950 . S
C748 C749 1.386 . S
C748 C750 1.391 . S
C749 C748 1.386 . S
C749 C753 1.393 . S
C750 H739 0.950 . S
C750 C748 1.391 . S
C750 C751 1.400 . S
C751 C745 1.491 . S
C751 C750 1.400 . S
C751 C752 1.398 . S
C752 H740 0.950 . S
C752 C751 1.398 . S
C752 C753 1.391 . S
C753 H741 0.950 . S
C753 C749 1.393 . S
C753 C752 1.391 . S
H754 C762 0.950 . S
H755 C767 0.950 . S
H756 C764 0.950 . S
H757 C766 0.950 . S
H758 C768 0.950 . S
H759 C770 0.950 . S
H760 C772 0.950 . S
H761 C773 0.950 . S
C762 H754 0.950 . S
C762 C763 1.386 . S
C762 C764 1.391 . S
C763 C762 1.386 . S
C763 C767 1.393 . S
C764 H756 0.950 . S
C764 C762 1.391 . S
C764 C765 1.400 . S
C765 C764 1.400 . S
C765 C766 1.398 . S
C765 C771 1.491 . S
C766 H757 0.950 . S
C766 C765 1.398 . S
C766 C767 1.391 . S
C767 H755 0.950 . S
C767 C763 1.393 . S
C767 C766 1.391 . S
C768 H758 0.950 . S
C768 C769 1.386 . S
C768 C770 1.391 . S
C769 C768 1.386 . S
C769 C773 1.393 . S
C770 H759 0.950 . S
C770 C768 1.391 . S
C770 C771 1.400 . S
C771 C765 1.491 . S
C771 C770 1.400 . S
C771 C772 1.398 . S
C772 H760 0.950 . S
C772 C771 1.398 . S
C772 C773 1.391 . S
C773 H761 0.950 . S
C773 C769 1.393 . S
C773 C772 1.391 . S
H774 C782 0.950 . S
H775 C787 0.950 . S
H776 C784 0.950 . S
H777 C786 0.950 . S
H778 C788 0.950 . S
H779 C790 0.950 . S
H780 C792 0.950 . S
H781 C793 0.950 . S
C782 H774 0.950 . S
C782 C783 1.386 . S
C782 C784 1.391 . S
C783 C782 1.386 . S
C783 C787 1.393 . S
C784 H776 0.950 . S
C784 C782 1.391 . S
C784 C785 1.400 . S
C785 C784 1.400 . S
C785 C786 1.398 . S
C785 C791 1.491 . S
C786 H777 0.950 . S
C786 C785 1.398 . S
C786 C787 1.391 . S
C787 H775 0.950 . S
C787 C783 1.393 . S
C787 C786 1.391 . S
C788 H778 0.950 . S
C788 C789 1.386 . S
C788 C790 1.391 . S
C789 C788 1.386 . S
C789 C793 1.393 . S
C790 H779 0.950 . S
C790 C788 1.391 . S
C790 C791 1.400 . S
C791 C785 1.491 . S
C791 C790 1.400 . S
C791 C792 1.398 . S
C792 H780 0.950 . S
C792 C791 1.398 . S
C792 C793 1.391 . S
C793 H781 0.950 . S
C793 C789 1.393 . S
C793 C792 1.391 . S
H794 C802 0.950 . S
H795 C807 0.950 . S
H796 C804 0.950 . S
H797 C806 0.950 . S
H798 C808 0.950 . S
H799 C810 0.950 . S
H800 C812 0.950 . S
H801 C813 0.950 . S
C802 H794 0.950 . S
C802 C803 1.386 . S
C802 C804 1.391 . S
C803 C802 1.386 . S
C803 C807 1.393 . S
C804 H796 0.950 . S
C804 C802 1.391 . S
C804 C805 1.400 . S
C805 C804 1.400 . S
C805 C806 1.398 . S
C805 C811 1.491 . S
C806 H797 0.950 . S
C806 C805 1.398 . S
C806 C807 1.391 . S
C807 H795 0.950 . S
C807 C803 1.393 . S
C807 C806 1.391 . S
C808 H798 0.950 . S
C808 C809 1.386 . S
C808 C810 1.391 . S
C809 C808 1.386 . S
C809 C813 1.393 . S
C810 H799 0.950 . S
C810 C808 1.391 . S
C810 C811 1.400 . S
C811 C805 1.491 . S
C811 C810 1.400 . S
C811 C812 1.398 . S
C812 H800 0.950 . S
C812 C811 1.398 . S
C812 C813 1.391 . S
C813 H801 0.950 . S
C813 C809 1.393 . S
C813 C812 1.391 . S
H814 C822 0.950 . S
H815 C827 0.950 . S
H816 C824 0.950 . S
H817 C826 0.950 . S
H818 C828 0.950 . S
H819 C830 0.950 . S
H820 C832 0.950 . S
H821 C833 0.950 . S
C822 H814 0.950 . S
C822 C823 1.386 . S
C822 C824 1.391 . S
C823 C822 1.386 . S
C823 C827 1.393 . S
C824 H816 0.950 . S
C824 C822 1.391 . S
C824 C825 1.400 . S
C825 C824 1.400 . S
C825 C826 1.398 . S
C825 C831 1.491 . S
C826 H817 0.950 . S
C826 C825 1.398 . S
C826 C827 1.391 . S
C827 H815 0.950 . S
C827 C823 1.393 . S
C827 C826 1.391 . S
C828 H818 0.950 . S
C828 C829 1.386 . S
C828 C830 1.391 . S
C829 C828 1.386 . S
C829 C833 1.393 . S
C830 H819 0.950 . S
C830 C828 1.391 . S
C830 C831 1.400 . S
C831 C825 1.491 . S
C831 C830 1.400 . S
C831 C832 1.398 . S
C832 H820 0.950 . S
C832 C831 1.398 . S
C832 C833 1.391 . S
C833 H821 0.950 . S
C833 C829 1.393 . S
C833 C832 1.391 . S
H834 C842 0.950 . S
H835 C847 0.950 . S
H836 C844 0.950 . S
H837 C846 0.950 . S
H838 C848 0.950 . S
H839 C850 0.950 . S
H840 C852 0.950 . S
H841 C853 0.950 . S
C842 H834 0.950 . S
C842 C843 1.386 . S
C842 C844 1.391 . S
C843 C842 1.386 . S
C843 C847 1.393 . S
C844 H836 0.950 . S
C844 C842 1.391 . S
C844 C845 1.400 . S
C845 C844 1.400 . S
C845 C846 1.398 . S
C845 C851 1.491 . S
C846 H837 0.950 . S
C846 C845 1.398 . S
C846 C847 1.391 . S
C847 H835 0.950 . S
C847 C843 1.393 . S
C847 C846 1.391 . S
C848 H838 0.950 . S
C848 C849 1.386 . S
C848 C850 1.391 . S
C849 C848 1.386 . S
C849 C853 1.393 . S
C850 H839 0.950 . S
C850 C848 1.391 . S
C850 C851 1.400 . S
C851 C845 1.491 . S
C851 C850 1.400 . S
C851 C852 1.398 . S
C852 H840 0.950 . S
C852 C851 1.398 . S
C852 C853 1.391 . S
C853 H841 0.950 . S
C853 C849 1.393 . S
C853 C852 1.391 . S
H854 C862 0.950 . S
H855 C867 0.950 . S
H856 C864 0.950 . S
H857 C866 0.950 . S
H858 C868 0.950 . S
H859 C870 0.950 . S
H860 C872 0.950 . S
H861 C873 0.950 . S
C862 H854 0.950 . S
C862 C863 1.386 . S
C862 C864 1.391 . S
C863 C862 1.386 . S
C863 C867 1.393 . S
C864 H856 0.950 . S
C864 C862 1.391 . S
C864 C865 1.400 . S
C865 C864 1.400 . S
C865 C866 1.398 . S
C865 C871 1.491 . S
C866 H857 0.950 . S
C866 C865 1.398 . S
C866 C867 1.391 . S
C867 H855 0.950 . S
C867 C863 1.393 . S
C867 C866 1.391 . S
C868 H858 0.950 . S
C868 C869 1.386 . S
C868 C870 1.391 . S
C869 C868 1.386 . S
C869 C873 1.393 . S
C870 H859 0.950 . S
C870 C868 1.391 . S
C870 C871 1.400 . S
C871 C865 1.491 . S
C871 C870 1.400 . S
C871 C872 1.398 . S
C872 H860 0.950 . S
C872 C871 1.398 . S
C872 C873 1.391 . S
C873 H861 0.950 . S
C873 C869 1.393 . S
C873 C872 1.391 . S
H874 C882 0.950 . S
H875 C887 0.950 . S
H876 C884 0.950 . S
H877 C886 0.950 . S
H878 C888 0.950 . S
H879 C890 0.950 . S
H880 C892 0.950 . S
H881 C893 0.950 . S
C882 H874 0.950 . S
C882 C883 1.386 . S
C882 C884 1.391 . S
C883 C882 1.386 . S
C883 C887 1.393 . S
C884 H876 0.950 . S
C884 C882 1.391 . S
C884 C885 1.400 . S
C885 C884 1.400 . S
C885 C886 1.398 . S
C885 C891 1.491 . S
C886 H877 0.950 . S
C886 C885 1.398 . S
C886 C887 1.391 . S
C887 H875 0.950 . S
C887 C883 1.393 . S
C887 C886 1.391 . S
C888 H878 0.950 . S
C888 C889 1.386 . S
C888 C890 1.391 . S
C889 C888 1.386 . S
C889 C893 1.393 . S
C890 H879 0.950 . S
C890 C888 1.391 . S
C890 C891 1.400 . S
C891 C885 1.491 . S
C891 C890 1.400 . S
C891 C892 1.398 . S
C892 H880 0.950 . S
C892 C891 1.398 . S
C892 C893 1.391 . S
C893 H881 0.950 . S
C893 C889 1.393 . S
C893 C892 1.391 . S
H894 C902 0.950 . S
H895 C907 0.950 . S
H896 C904 0.950 . S
H897 C906 0.950 . S
H898 C908 0.950 . S
H899 C910 0.950 . S
H900 C912 0.950 . S
H901 C913 0.950 . S
C902 H894 0.950 . S
C902 C903 1.386 . S
C902 C904 1.391 . S
C903 C902 1.386 . S
C903 C907 1.393 . S
C904 H896 0.950 . S
C904 C902 1.391 . S
C904 C905 1.400 . S
C905 C904 1.400 . S
C905 C906 1.398 . S
C905 C911 1.491 . S
C906 H897 0.950 . S
C906 C905 1.398 . S
C906 C907 1.391 . S
C907 H895 0.950 . S
C907 C903 1.393 . S
C907 C906 1.391 . S
C908 H898 0.950 . S
C908 C909 1.386 . S
C908 C910 1.391 . S
C909 C908 1.386 . S
C909 C913 1.393 . S
C910 H899 0.950 . S
C910 C908 1.391 . S
C910 C911 1.400 . S
C911 C905 1.491 . S
C911 C910 1.400 . S
C911 C912 1.398 . S
C912 H900 0.950 . S
C912 C911 1.398 . S
C912 C913 1.391 . S
C913 H901 0.950 . S
C913 C909 1.393 . S
C913 C912 1.391 . S
H914 C922 0.950 . S
H915 C927 0.950 . S
H916 C924 0.950 . S
H917 C926 0.950 . S
H918 C928 0.950 . S
H919 C930 0.950 . S
H920 C932 0.950 . S
H921 C933 0.950 . S
C922 H914 0.950 . S
C922 C923 1.386 . S
C922 C924 1.391 . S
C923 C922 1.386 . S
C923 C927 1.393 . S
C924 H916 0.950 . S
C924 C922 1.391 . S
C924 C925 1.400 . S
C925 C924 1.400 . S
C925 C926 1.398 . S
C925 C931 1.491 . S
C926 H917 0.950 . S
C926 C925 1.398 . S
C926 C927 1.391 . S
C927 H915 0.950 . S
C927 C923 1.393 . S
C927 C926 1.391 . S
C928 H918 0.950 . S
C928 C929 1.386 . S
C928 C930 1.391 . S
C929 C928 1.386 . S
C929 C933 1.393 . S
C930 H919 0.950 . S
C930 C928 1.391 . S
C930 C931 1.400 . S
C931 C925 1.491 . S
C931 C930 1.400 . S
C931 C932 1.398 . S
C932 H920 0.950 . S
C932 C931 1.398 . S
C932 C933 1.391 . S
C933 H921 0.950 . S
C933 C929 1.393 . S
C933 C932 1.391 . S
H934 C942 0.950 . S
H935 C947 0.950 . S
H936 C944 0.950 . S
H937 C946 0.950 . S
H938 C948 0.950 . S
H939 C950 0.950 . S
H940 C952 0.950 . S
H941 C953 0.950 . S
C942 H934 0.950 . S
C942 C943 1.386 . S
C942 C944 1.391 . S
C943 C942 1.386 . S
C943 C947 1.393 . S
C944 H936 0.950 . S
C944 C942 1.391 . S
C944 C945 1.400 . S
C945 C944 1.400 . S
C945 C946 1.398 . S
C945 C951 1.491 . S
C946 H937 0.950 . S
C946 C945 1.398 . S
C946 C947 1.391 . S
C947 H935 0.950 . S
C947 C943 1.393 . S
C947 C946 1.391 . S
C948 H938 0.950 . S
C948 C949 1.386 . S
C948 C950 1.391 . S
C949 C948 1.386 . S
C949 C953 1.393 . S
C950 H939 0.950 . S
C950 C948 1.391 . S
C950 C951 1.400 . S
C951 C945 1.491 . S
C951 C950 1.400 . S
C951 C952 1.398 . S
C952 H940 0.950 . S
C952 C951 1.398 . S
C952 C953 1.391 . S
C953 H941 0.950 . S
C953 C949 1.393 . S
C953 C952 1.391 . S
C243 C231 1.900 . S
C249 C10 1.900 . S
C263 C205 1.899 . S
C269 C17 1.900 . S
C283 C218 1.900 . S
C289 C30 1.899 . S
C303 C101 1.901 . S
C309 C49 1.900 . S
C323 C114 1.900 . S
C329 C62 1.900 . S
C343 C69 1.900 . S
C349 C88 1.900 . S
C363 C127 1.900 . S
C369 C173 1.900 . S
C383 C134 1.901 . S
C389 C186 1.899 . S
C403 C153 1.900 . S
C409 C166 1.901 . S
C423 C3 0.359 . S
C429 C224 0.353 . S
C443 C198 0.333 . S
C449 C18 0.316 . S
C463 C31 0.346 . S
C469 C211 0.328 . S
C483 C94 0.306 . S
C489 C42 0.314 . S
C503 C55 0.352 . S
C509 C107 0.359 . S
C523 C70 0.341 . S
C529 C81 0.323 . S
C543 C120 0.328 . S
C549 C174 0.312 . S
C563 C187 0.320 . S
C569 C135 0.338 . S
C583 C159 0.357 . S
C589 C146 0.358 . S
C603 C4 1.856 . S
C609 C43 1.853 . S
C623 C56 1.854 . S
C629 C23 1.854 . S
C643 C75 1.855 . S
C649 C36 1.860 . S
C663 C68 1.737 . S
C669 C16 1.739 . S
C683 C29 1.738 . S
C689 C44 1.738 . S
C703 C57 1.738 . S
C709 C5 1.739 . S
C723 C82 1.862 . S
C729 C121 1.857 . S
C743 C140 1.853 . S
C749 C95 1.855 . S
C763 C147 1.867 . S
C769 C108 1.866 . S
C783 C148 1.742 . S
C789 C96 1.738 . S
C803 C109 1.742 . S
C809 C122 1.738 . S
C823 C133 1.740 . S
C829 C83 1.737 . S
C843 C199 1.853 . S
C849 C160 1.854 . S
C863 C212 1.866 . S
C869 C179 1.867 . S
C883 C192 1.863 . S
C889 C225 1.867 . S
C903 C226 1.741 . S
C909 C172 1.737 . S
C923 C185 1.742 . S
C929 C200 1.737 . S
C943 C213 1.737 . S
C949 C161 1.739 . S
