# Generated by pormake.
# Topology wkb, (5)-cn, num edge types: 1
# Building blocks:
#     Node 0, Type 0, BuildingBlock: BEQFEK_clean_sbu_0, # of connection points: 5
#     Node 1, Type 0, BuildingBlock: BEQFEK_clean_sbu_0, # of connection points: 5
#     Node 2, Type 0, BuildingBlock: BEQFEK_clean_sbu_0, # of connection points: 5
#     Node 3, Type 0, BuildingBlock: BEQFEK_clean_sbu_0, # of connection points: 5
#     Node 4, Type 0, BuildingBlock: BEQFEK_clean_sbu_0, # of connection points: 5
#     Node 5, Type 0, BuildingBlock: BEQFEK_clean_sbu_0, # of connection points: 5
#     Node 6, Type 0, BuildingBlock: BEQFEK_clean_sbu_0, # of connection points: 5
#     Node 7, Type 0, BuildingBlock: BEQFEK_clean_sbu_0, # of connection points: 5
#     Node 8, Type 0, BuildingBlock: BEQFEK_clean_sbu_0, # of connection points: 5
#     Node 9, Type 0, BuildingBlock: BEQFEK_clean_sbu_0, # of connection points: 5
#     Node 10, Type 0, BuildingBlock: BEQFEK_clean_sbu_0, # of connection points: 5
#     Node 11, Type 0, BuildingBlock: BEQFEK_clean_sbu_0, # of connection points: 5
#     Edge 12, Type (0, 0), BuildingBlock: CIFDUS_clean_linker_0, # of connection points: 2
#     Edge 13, Type (0, 0), BuildingBlock: CIFDUS_clean_linker_0, # of connection points: 2
#     Edge 14, Type (0, 0), BuildingBlock: CIFDUS_clean_linker_0, # of connection points: 2
#     Edge 15, Type (0, 0), BuildingBlock: CIFDUS_clean_linker_0, # of connection points: 2
#     Edge 16, Type (0, 0), BuildingBlock: CIFDUS_clean_linker_0, # of connection points: 2
#     Edge 17, Type (0, 0), BuildingBlock: CIFDUS_clean_linker_0, # of connection points: 2
#     Edge 18, Type (0, 0), BuildingBlock: CIFDUS_clean_linker_0, # of connection points: 2
#     Edge 19, Type (0, 0), BuildingBlock: CIFDUS_clean_linker_0, # of connection points: 2
#     Edge 20, Type (0, 0), BuildingBlock: CIFDUS_clean_linker_0, # of connection points: 2
#     Edge 21, Type (0, 0), BuildingBlock: CIFDUS_clean_linker_0, # of connection points: 2
#     Edge 22, Type (0, 0), BuildingBlock: CIFDUS_clean_linker_0, # of connection points: 2
#     Edge 23, Type (0, 0), BuildingBlock: CIFDUS_clean_linker_0, # of connection points: 2
#     Edge 24, Type (0, 0), BuildingBlock: CIFDUS_clean_linker_0, # of connection points: 2
#     Edge 25, Type (0, 0), BuildingBlock: CIFDUS_clean_linker_0, # of connection points: 2
#     Edge 26, Type (0, 0), BuildingBlock: CIFDUS_clean_linker_0, # of connection points: 2
#     Edge 27, Type (0, 0), BuildingBlock: CIFDUS_clean_linker_0, # of connection points: 2
#     Edge 28, Type (0, 0), BuildingBlock: CIFDUS_clean_linker_0, # of connection points: 2
#     Edge 29, Type (0, 0), BuildingBlock: CIFDUS_clean_linker_0, # of connection points: 2
#     Edge 30, Type (0, 0), BuildingBlock: CIFDUS_clean_linker_0, # of connection points: 2
#     Edge 31, Type (0, 0), BuildingBlock: CIFDUS_clean_linker_0, # of connection points: 2
#     Edge 32, Type (0, 0), BuildingBlock: CIFDUS_clean_linker_0, # of connection points: 2
#     Edge 33, Type (0, 0), BuildingBlock: CIFDUS_clean_linker_0, # of connection points: 2
#     Edge 34, Type (0, 0), BuildingBlock: CIFDUS_clean_linker_0, # of connection points: 2
#     Edge 35, Type (0, 0), BuildingBlock: CIFDUS_clean_linker_0, # of connection points: 2
#     Edge 36, Type (0, 0), BuildingBlock: CIFDUS_clean_linker_0, # of connection points: 2
#     Edge 37, Type (0, 0), BuildingBlock: CIFDUS_clean_linker_0, # of connection points: 2
#     Edge 38, Type (0, 0), BuildingBlock: CIFDUS_clean_linker_0, # of connection points: 2
#     Edge 39, Type (0, 0), BuildingBlock: CIFDUS_clean_linker_0, # of connection points: 2
#     Edge 40, Type (0, 0), BuildingBlock: CIFDUS_clean_linker_0, # of connection points: 2
#     Edge 41, Type (0, 0), BuildingBlock: CIFDUS_clean_linker_0, # of connection points: 2
# Relax obj value: 0.126
# Max RMSD: 0.138
# Mean RMSD: 0.138
data_MOF--net-wkb--node1-BEQFEK_clean_sbu_0--edge1-CIFDUS_clean_linker_0
_symmetry_space_group_name_H-M    P1
_symmetry_Int_Tables_number       1
_symmetry_cell_setting            triclinic
loop_
_symmetry_equiv_pos_as_xyz
'x, y, z'
_cell_length_a     38.54661
_cell_length_b     38.415617
_cell_length_c     37.34805
_cell_angle_alpha  90.023598
_cell_angle_beta   90.072033
_cell_angle_gamma 120.24783
loop_
_atom_site_label
_atom_site_type_symbol
_atom_site_fract_x
_atom_site_fract_y
_atom_site_fract_z
_atom_type_partial_charge
Co0 Co 0.04502 0.362 0.00357 0.0
Co1 Co 0.08843 0.36656 0.07517 0.0
C2 C 1.00492 0.30016 0.0633 0.0
O3 O 1.00307 0.31408 0.03263 0.0
O4 O 0.03685 0.31721 0.08201 0.0
C5 C 1.01453 0.32783 0.93405 0.0
O6 O 1.01068 0.29493 0.94861 0.0
C7 C 0.12422 0.34822 0.13656 0.0
C8 C 0.17393 0.40939 0.1497 0.0
C9 C 0.1567 0.36923 0.1592 0.0
N10 N 0.12269 0.37487 0.11428 0.0
N11 N 0.15213 0.41137 0.12257 0.0
C12 C 0.09686 0.3036 0.13439 0.0
H13 H 0.08763 0.29433 0.10623 0.0
H14 H 0.11163 0.28742 0.1453 0.0
H15 H 0.0695 0.29518 0.15036 0.0
C16 C 0.11903 0.36208 0.97482 0.0
N17 N 0.0961 0.36365 1.00161 0.0
N18 N 0.11325 0.36443 0.03231 0.0
C19 C 0.14655 0.36221 0.02616 0.0
C20 C 0.15125 0.36036 0.98955 0.0
C21 C 0.10968 0.36038 0.9358 0.0
H22 H 0.09679 0.37981 0.92991 0.0
H23 H 0.08802 0.32877 0.92842 0.0
H24 H 0.13683 0.37042 0.91914 0.0
O25 O 0.05181 0.41322 0.02477 0.0
O26 O 0.07988 0.41279 0.07642 0.0
H27 H 0.18485 0.38942 0.0714 0.0
H28 H 0.19993 0.36137 0.04363 0.0
C29 C 0.17359 0.36192 0.05484 0.0
H30 H 0.15644 0.33524 0.07223 0.0
H31 H 0.15786 0.43752 0.10909 0.0
O32 O 1.02609 0.35893 0.9535 0.0
C33 C 0.06577 0.42859 0.05541 0.0
Co34 Co 0.69109 0.03251 0.17006 0.0
Co35 Co 0.72441 0.08295 0.24076 0.0
C36 C 0.70781 0.99799 0.23683 0.0
O37 O 0.69674 0.99472 0.20408 0.0
O38 O 0.7196 0.03055 0.25455 0.0
C39 C 0.65056 1.00554 0.10173 0.0
O40 O 0.62131 1.00778 0.11749 0.0
C41 C 0.76289 0.1272 0.30897 0.0
C42 C 0.76008 0.18234 0.29814 0.0
C43 C 0.77212 0.16434 0.32352 0.0
N44 N 0.74657 0.124 0.27635 0.0
N45 N 0.74491 0.15699 0.2703 0.0
C46 C 0.76632 0.09411 0.32661 0.0
H47 H 0.74331 0.0644 0.31594 0.0
H48 H 0.79642 0.09826 0.32088 0.0
H49 H 0.76271 0.09464 0.35605 0.0
C50 C 0.76456 0.10339 0.14069 0.0
N51 N 0.73967 0.08327 0.16811 0.0
N52 N 0.75484 0.10376 0.19784 0.0
C53 C 0.79044 0.13709 0.19027 0.0
C54 C 0.79747 0.13817 0.15367 0.0
C55 C 0.75842 0.08817 0.1031 0.0
H56 H 0.72959 0.0841 0.09284 0.0
H57 H 0.75694 0.05861 0.10309 0.0
H58 H 0.78312 0.10891 0.08513 0.0
O59 O 0.64485 0.03899 0.18547 0.0
O60 O 0.66905 0.07304 0.23591 0.0
H61 H 0.80593 0.1887 0.22263 0.0
H62 H 0.84842 0.18554 0.20773 0.0
C63 C 0.81707 0.16762 0.21741 0.0
H64 H 0.81659 0.15248 0.24282 0.0
H65 H 0.733 0.16202 0.24707 0.0
O66 O 0.68071 1.01113 0.1202 0.0
C67 C 0.6407 0.05563 0.21335 0.0
Co68 Co 0.68594 0.68944 0.34522 0.0
Co69 Co 0.68207 0.73469 0.41186 0.0
C70 C 0.74515 0.71321 0.40825 0.0
O71 O 0.7321 0.69611 0.37775 0.0
O72 O 0.72871 0.73035 0.4243 0.0
C73 C 0.72236 0.69062 0.27887 0.0
O74 O 0.75391 0.72084 0.29414 0.0
C75 C 0.69526 0.78854 0.47251 0.0
C76 C 0.63698 0.78676 0.47274 0.0
C77 C 0.67374 0.80334 0.49004 0.0
N78 N 0.67211 0.76431 0.44603 0.0
N79 N 0.6374 0.76336 0.44629 0.0
C80 C 0.73784 0.79926 0.47886 0.0
H81 H 0.75256 0.80032 0.45306 0.0
H82 H 0.75506 0.82888 0.49247 0.0
H83 H 0.73815 0.77576 0.49588 0.0
C84 C 0.68748 0.76145 0.30935 0.0
N85 N 0.68644 0.73954 0.3382 0.0
N86 N 0.68912 0.76003 0.36716 0.0
C87 C 0.69479 0.79646 0.35801 0.0
C88 C 0.69327 0.79869 0.32086 0.0
C89 C 0.6794 0.74576 0.27178 0.0
H90 H 0.66035 0.71247 0.27167 0.0
H91 H 0.70829 0.75452 0.25834 0.0
H92 H 0.664 0.7588 0.25639 0.0
O93 O 0.63367 0.64715 0.36583 0.0
O94 O 0.63376 0.68022 0.41435 0.0
H95 H 0.67826 0.82748 0.39577 0.0
H96 H 0.72396 0.85984 0.37157 0.0
C97 C 0.70594 0.8299 0.38436 0.0
H98 H 0.72393 0.82765 0.40641 0.0
H99 H 0.61404 0.74677 0.42828 0.0
O100 O 0.6906 0.67065 0.29719 0.0
C101 C 0.61762 0.64856 0.39517 0.0
Co102 Co 1.0144 0.66884 0.50782 0.0
Co103 Co 0.97335 0.65883 0.58182 0.0
C104 C 0.05942 0.72398 0.56921 0.0
O105 O 0.05886 0.71254 0.53691 0.0
O106 O 1.02824 0.70656 0.58903 0.0
C107 C 0.0372 0.64909 0.43951 0.0
O108 O 0.04725 0.62594 0.45716 0.0
C109 C 0.94164 0.67529 0.64775 0.0
C110 C 0.89967 0.61287 0.66528 0.0
C111 C 0.91555 0.65281 0.67495 0.0
N112 N 0.94127 0.64959 0.62308 0.0
N113 N 0.91575 0.61241 0.63355 0.0
C114 C 0.96897 0.71993 0.64668 0.0
H115 H 0.97727 0.73027 0.61861 0.0
H116 H 0.95453 0.73552 0.65941 0.0
H117 H 0.99675 0.72781 0.66186 0.0
C118 C 0.94618 0.6792 0.48482 0.0
N119 N 0.967 0.67254 0.51031 0.0
N120 N 0.94787 0.66567 0.54092 0.0
C121 C 0.91357 0.66649 0.53557 0.0
C122 C 0.91121 0.67463 0.4996 0.0
C123 C 0.96091 0.69364 0.44768 0.0
H124 H 0.99414 0.71129 0.44699 0.0
H125 H 0.94907 0.71288 0.4377 0.0
H126 H 0.94978 0.66741 0.42956 0.0
O127 O 1.00455 0.61527 0.52421 0.0
O128 O 0.97831 0.60997 0.57795 0.0
H129 H 0.87552 0.6299 0.57803 0.0
H130 H 0.85555 0.65622 0.55295 0.0
C131 C 0.88326 0.65841 0.56412 0.0
H132 H 0.89656 0.68307 0.58419 0.0
H133 H 0.91022 0.58662 0.61949 0.0
O134 O 1.02658 0.67097 0.4563 0.0
C135 C 0.99079 0.59615 0.55337 0.0
Co136 Co 0.35414 1.00603 0.68157 0.0
Co137 Co 0.32284 0.97063 0.75756 0.0
C138 C 0.34259 0.05426 0.73853 0.0
O139 O 0.3524 0.05176 0.70642 0.0
O140 O 0.33034 0.02488 0.76013 0.0
C141 C 0.34993 0.03772 0.61351 0.0
O142 O 0.33205 0.05293 0.63251 0.0
C143 C 0.26952 0.94312 0.81945 0.0
C144 C 0.30124 0.92227 0.85506 0.0
C145 C 0.26882 0.92832 0.8533 0.0
N146 N 0.30136 0.94618 0.802 0.0
N147 N 0.3202 0.93368 0.8234 0.0
C148 C 0.24259 0.95734 0.80506 0.0
H149 H 0.2465 0.98333 0.82122 0.0
H150 H 0.24971 0.96655 0.77661 0.0
H151 H 0.21075 0.93312 0.80747 0.0
C152 C 0.27576 0.93217 0.66139 0.0
N153 N 0.30345 0.9562 0.68588 0.0
N154 N 0.29101 0.94057 0.71788 0.0
C155 C 0.25572 0.90567 0.71472 0.0
C156 C 0.24453 0.89918 0.67879 0.0
C157 C 0.27719 0.943 0.6227 0.0
H158 H 0.30517 0.94706 0.61043 0.0
H159 H 0.27715 0.97173 0.62082 0.0
H160 H 0.25102 0.92025 0.60728 0.0
O161 O 0.40073 1.0017 0.70229 0.0
O162 O 0.37607 0.97712 0.75592 0.0
H163 H 0.25571 0.87932 0.76547 0.0
H164 H 0.21509 0.84653 0.73587 0.0
C165 C 0.23399 0.87806 0.7453 0.0
H166 H 0.21422 0.88761 0.75816 0.0
H167 H 0.34646 0.93369 0.81665 0.0
O168 O 0.36406 1.01832 0.62952 0.0
C169 C 0.40446 0.99009 0.73341 0.0
Co170 Co 0.4021 0.36424 0.85011 0.0
Co171 Co 0.39086 0.32767 0.92665 0.0
C172 C 0.3325 0.34961 0.89904 0.0
O173 O 0.35211 0.36301 0.8697 0.0
O174 O 0.3438 0.33419 0.92337 0.0
C175 C 0.40425 0.39798 0.77703 0.0
O176 O 0.389 0.41948 0.78926 0.0
C177 C 0.36715 0.28197 0.99536 0.0
C178 C 0.42767 0.29678 0.01381 0.0
C179 C 0.38765 0.27685 0.02344 0.0
N180 N 0.39423 0.30449 0.97024 0.0
N181 N 0.43018 0.31292 0.98143 0.0
C182 C 0.32329 0.26781 0.99335 0.0
H183 H 0.31743 0.28961 0.00774 0.0
H184 H 0.31368 0.26605 0.96507 0.0
H185 H 0.30555 0.238 0.00648 0.0
C186 C 0.39857 0.28707 0.83186 0.0
N187 N 0.39854 0.31319 0.85596 0.0
N188 N 0.39098 0.29651 0.88777 0.0
C189 C 0.38396 0.2585 0.88479 0.0
C190 C 0.38862 0.25111 0.84906 0.0
C191 C 0.41195 0.29804 0.79393 0.0
H192 H 0.43935 0.32822 0.79366 0.0
H193 H 0.38808 0.29925 0.7783 0.0
H194 H 0.41927 0.27646 0.78121 0.0
O195 O 0.45042 0.40778 0.87397 0.0
O196 O 0.43975 0.38185 0.92838 0.0
H197 H 0.39566 0.23408 0.93158 0.0
H198 H 0.35347 0.19748 0.90535 0.0
C199 C 0.36955 0.22905 0.91511 0.0
H200 H 0.34896 0.23386 0.93233 0.0
H201 H 0.45664 0.3303 0.96707 0.0
O202 O 0.40985 0.37539 0.79812 0.0
C203 C 0.46058 0.41029 0.90668 0.0
Co204 Co 0.67373 1.00741 0.82658 0.0
Co205 Co 0.66648 0.96286 0.75578 0.0
C206 C 0.73616 0.04469 0.7679 0.0
O207 O 0.7224 0.04787 0.79815 0.0
O208 O 0.71793 1.01271 0.74917 0.0
C209 C 0.70822 0.04316 0.89499 0.0
O210 O 0.74288 0.05464 0.8794 0.0
C211 C 0.67743 0.92972 0.68928 0.0
C212 C 0.6139 0.88604 0.6762 0.0
C213 C 0.65265 0.90337 0.66326 0.0
N214 N 0.65415 0.92832 0.71651 0.0
N215 N 0.61635 0.90181 0.7088 0.0
C216 C 0.72153 0.9589 0.68676 0.0
H217 H 0.73587 0.96173 0.71322 0.0
H218 H 0.73586 0.94936 0.66625 0.0
H219 H 0.72628 0.98894 0.67927 0.0
C220 C 0.67763 0.93535 0.85501 0.0
N221 N 0.67134 0.95584 0.82868 0.0
N222 N 0.66747 0.93714 0.7982 0.0
C223 C 0.67146 0.9047 0.80386 0.0
C224 C 0.67841 0.90247 0.84007 0.0
C225 C 0.68765 0.94963 0.89289 0.0
H226 H 0.66562 0.9577 0.90307 0.0
H227 H 0.7181 0.9766 0.89373 0.0
H228 H 0.68759 0.92662 0.91075 0.0
O229 O 0.62377 1.00361 0.80544 0.0
O230 O 0.62335 0.97535 0.75394 0.0
H231 H 0.64289 0.86683 0.75853 0.0
H232 H 0.67112 0.85092 0.78542 0.0
C233 C 0.6706 0.87755 0.77465 0.0
H234 H 0.69673 0.89473 0.75672 0.0
H235 H 0.59205 0.89593 0.72514 0.0
O236 O 0.67626 0.02544 0.87649 0.0
C237 C 0.6087 0.99078 0.77454 0.0
Co238 Co 0.7073 0.68155 1.00083 0.0
Co239 Co 0.74584 0.68641 0.92617 0.0
C240 C 0.72082 0.74485 0.94306 0.0
O241 O 0.7077 0.72741 0.97332 0.0
O242 O 0.73875 0.73345 0.92145 0.0
C243 C 0.66905 0.65833 0.07062 0.0
O244 O 0.64115 0.62587 0.05438 0.0
C245 C 0.79454 0.7005 0.8597 0.0
C246 C 0.78797 0.64 0.85555 0.0
C247 C 0.80647 0.67773 0.83987 0.0
N248 N 0.77047 0.67711 0.88624 0.0
N249 N 0.76638 0.64097 0.88321 0.0
C250 C 0.80803 0.74417 0.8553 0.0
H251 H 0.80707 0.75752 0.88138 0.0
H252 H 0.83883 0.76075 0.84402 0.0
H253 H 0.78737 0.74716 0.83649 0.0
C254 C 0.78067 0.67952 0.02407 0.0
N255 N 0.75765 0.68346 0.99888 0.0
N256 N 0.77543 0.68951 0.96771 0.0
C257 C 0.81114 0.69162 0.97219 0.0
C258 C 0.81559 0.68475 0.00808 0.0
C259 C 0.76745 0.66663 0.06179 0.0
H260 H 0.73453 0.64607 0.06272 0.0
H261 H 0.77542 0.69366 0.07825 0.0
H262 H 0.78233 0.65089 0.07337 0.0
O263 O 0.66429 0.62992 0.98052 0.0
O264 O 0.69162 0.63748 0.92687 0.0
H265 H 0.83424 0.67426 0.9279 0.0
H266 H 0.87214 0.71561 0.95383 0.0
C267 C 0.84123 0.70198 0.94287 0.0
H268 H 0.83988 0.72359 0.92408 0.0
H269 H 0.7496 0.61719 0.90077 0.0
O270 O 0.69735 0.68586 0.0523 0.0
C271 C 0.66282 0.6177 0.94855 0.0
Co272 Co 0.05842 0.68138 0.15506 0.0
Co273 Co 0.085 0.71821 0.07931 0.0
C274 C 1.00334 0.69456 0.10738 0.0
O275 O 1.00969 0.68401 0.13807 0.0
O276 O 1.02988 0.70763 0.08295 0.0
C277 C 1.02522 0.65224 0.22738 0.0
O278 O 0.98972 0.6442 0.21584 0.0
C279 C 0.10208 0.77083 0.01666 0.0
C280 C 0.13905 0.75325 0.98471 0.0
C281 C 0.12193 0.77736 0.98445 0.0
N282 N 0.10673 0.74341 0.0351 0.0
N283 N 0.12863 0.73286 0.01573 0.0
C284 C 0.07849 0.78968 0.02918 0.0
H285 H 0.07114 0.78363 0.05805 0.0
H286 H 0.09568 0.82267 0.02429 0.0
H287 H 0.05018 0.777 0.01354 0.0
C288 C 0.13237 0.75807 0.17521 0.0
N289 N 0.10635 0.73267 0.15048 0.0
N290 N 0.11687 0.74951 0.11876 0.0
C291 C 0.14928 0.78679 0.12238 0.0
C292 C 0.16036 0.79368 0.15848 0.0
C293 C 0.13223 0.74679 0.2136 0.0
H294 H 0.12904 0.7165 0.2148 0.0
H295 H 0.10621 0.74556 0.2275 0.0
H296 H 0.16037 0.76816 0.22767 0.0
O297 O 0.06215 0.63808 0.12875 0.0
O298 O 0.08259 0.66581 0.07542 0.0
H299 H 0.18336 0.80591 0.07394 0.0
H300 H 0.18819 0.84706 0.10144 0.0
C301 C 0.16731 0.81598 0.09205 0.0
H302 H 0.14315 0.81643 0.07651 0.0
H303 H 0.13659 0.7118 0.02377 0.0
O304 O 0.05473 0.66676 0.20602 0.0
C305 C 0.07239 0.63646 0.09668 0.0
Co306 Co 0.37289 0.03293 0.33235 0.0
Co307 Co 0.38217 0.07258 0.25758 0.0
C308 C 0.31647 0.98757 0.27161 0.0
O309 O 0.32642 0.98898 0.30448 0.0
O310 O 0.33557 1.01764 0.25089 0.0
C311 C 0.33912 1.00127 0.4025 0.0
O312 O 0.30452 0.99206 0.38784 0.0
C313 C 0.36088 0.10516 0.19567 0.0
C314 C 0.42126 0.15025 0.17619 0.0
C315 C 0.38067 0.13499 0.17038 0.0
N316 N 0.38868 0.10308 0.21584 0.0
N317 N 0.42466 0.12962 0.20368 0.0
C318 C 0.31668 0.08138 0.20242 0.0
H319 H 0.31068 0.07132 0.23074 0.0
H320 H 0.30242 0.09952 0.19589 0.0
H321 H 0.30322 0.05436 0.1849 0.0
C322 C 0.36793 0.10583 0.35512 0.0
N323 N 0.37247 0.08279 0.33019 0.0
N324 N 0.37665 0.0995 0.29855 0.0
C325 C 0.37507 0.13369 0.30241 0.0
C326 C 0.36916 0.1388 0.33834 0.0
C327 C 0.3593 0.09474 0.39379 0.0
H328 H 0.38147 0.08718 0.40465 0.0
H329 H 0.32884 0.06806 0.39609 0.0
H330 H 0.35995 0.11905 0.41017 0.0
O331 O 0.42512 0.04007 0.31367 0.0
O332 O 0.4307 0.06795 0.26049 0.0
H333 H 0.4066 0.16718 0.25586 0.0
H334 H 0.38621 0.19147 0.28267 0.0
C335 C 0.38067 0.16196 0.27249 0.0
H336 H 0.35335 0.14842 0.25549 0.0
H337 H 0.45156 0.13465 0.21501 0.0
O338 O 0.37063 1.01716 0.38339 0.0
C339 C 0.44401 0.05412 0.28434 0.0
Co340 Co 0.369 0.38029 0.49324 0.0
Co341 Co 0.32961 0.37625 0.41994 0.0
C342 C 0.35405 0.31559 0.43896 0.0
O343 O 0.36822 0.33247 0.46934 0.0
O344 O 0.33724 0.32877 0.41776 0.0
C345 C 0.40946 0.38598 0.56436 0.0
O346 O 0.4334 0.3741 0.55125 0.0
C347 C 0.28472 0.35591 0.35167 0.0
C348 C 0.29375 0.41612 0.33851 0.0
C349 C 0.27791 0.37734 0.32561 0.0
N350 N 0.30407 0.38124 0.37893 0.0
N351 N 0.309 0.41697 0.37099 0.0
C352 C 0.27657 0.31361 0.34938 0.0
H353 H 0.3045 0.31416 0.34121 0.0
H354 H 0.26764 0.29905 0.37607 0.0
H355 H 0.25275 0.29596 0.32936 0.0
C356 C 0.29077 0.36986 0.51875 0.0
N357 N 0.31665 0.37443 0.49235 0.0
N358 N 0.30047 0.37453 0.46143 0.0
C359 C 0.26416 0.37095 0.46717 0.0
C360 C 0.25684 0.36814 0.50392 0.0
C361 C 0.29671 0.36384 0.55738 0.0
H362 H 0.31175 0.34584 0.55991 0.0
H363 H 0.26763 0.34804 0.57181 0.0
H364 H 0.31564 0.39366 0.57005 0.0
O365 O 0.41111 0.4312 0.47 0.0
O366 O 0.38303 0.42518 0.41713 0.0
H367 H 0.25468 0.40065 0.42319 0.0
H368 H 0.20992 0.36925 0.44843 0.0
C369 C 0.238 0.37183 0.43796 0.0
H370 H 0.23067 0.34698 0.41879 0.0
H371 H 0.32411 0.44237 0.38732 0.0
O372 O 0.384 0.38803 0.5443 0.0
C373 C 0.41239 0.44409 0.43838 0.0
Co374 Co 1.01796 0.34942 0.65987 0.0
Co375 Co 0.96749 0.3145 0.58985 0.0
C376 C 0.05092 0.3293 0.59337 0.0
O377 O 0.05525 0.34334 0.6252 0.0
O378 O 1.01779 0.31587 0.57659 0.0
C379 C 0.05257 0.33825 0.7234 0.0
O380 O 0.05497 0.31133 0.7035 0.0
C381 C 0.9259 0.27274 0.52231 0.0
C382 C 0.86832 0.27122 0.5302 0.0
C383 C 0.88833 0.25936 0.50684 0.0
N384 N 0.92726 0.2907 0.55368 0.0
N385 N 0.89294 0.29007 0.55789 0.0
C386 C 0.96107 0.27181 0.50648 0.0
H387 H 0.98939 0.29918 0.51436 0.0
H388 H 0.96174 0.24506 0.51676 0.0
H389 H 0.9593 0.2704 0.47682 0.0
C390 C 0.94379 0.27928 0.69099 0.0
N391 N 0.96612 0.30171 0.66302 0.0
N392 N 0.94658 0.28512 0.63317 0.0
C393 C 0.91256 0.25034 0.64112 0.0
C394 C 0.90947 0.24582 0.67803 0.0
C395 C 0.9547 0.28942 0.72956 0.0
H396 H 0.97064 0.32249 0.73349 0.0
H397 H 0.97419 0.27735 0.7379 0.0
H398 H 0.92786 0.27548 0.74703 0.0
O399 O 1.01151 0.3954 0.64505 0.0
O400 O 0.97793 0.37087 0.59428 0.0
H401 H 0.86093 0.23207 0.60815 0.0
H402 H 0.86598 0.19105 0.62442 0.0
C403 C 0.88293 0.22231 0.61409 0.0
H404 H 0.8985 0.22259 0.58907 0.0
H405 H 0.88625 0.30233 0.57995 0.0
O406 O 0.04101 0.36063 0.70892 0.0
C407 C 0.99483 0.39929 0.61709 0.0
H408 H 0.20066 0.32727 0.30713 0.0
H409 H 0.3193 0.40272 0.26423 0.0
H410 H 0.29111 0.40054 0.2051 0.0
H411 H 0.23288 0.38865 0.16975 0.0
H412 H 0.11375 0.31706 0.21295 0.0
H413 H 0.14154 0.30541 0.26773 0.0
C414 C 0.22012 0.34178 0.28435 0.0
C415 C 0.26174 0.36508 0.28949 0.0
C416 C 0.20354 0.34168 0.25086 0.0
C417 C 0.2871 0.38451 0.26038 0.0
C418 C 0.27101 0.38355 0.22679 0.0
C419 C 0.21306 0.36969 0.19088 0.0
C420 C 0.17161 0.35408 0.18786 0.0
C421 C 0.22929 0.36405 0.2223 0.0
C422 C 0.14586 0.32922 0.21493 0.0
C423 C 0.16176 0.32286 0.24627 0.0
H424 H 0.82821 0.15735 0.36379 0.0
H425 H 0.75551 0.21371 0.36183 0.0
H426 H 0.78595 0.24861 0.4175 0.0
H427 H 0.8335 0.2641 0.46606 0.0
H428 H 0.90277 0.20437 0.47179 0.0
H429 H 0.87339 0.16985 0.4153 0.0
C430 C 0.81827 0.1764 0.37598 0.0
C431 C 0.78918 0.18242 0.35881 0.0
C432 C 0.83575 0.19633 0.40835 0.0
C433 C 0.77783 0.2085 0.37442 0.0
C434 C 0.79519 0.22851 0.4063 0.0
C435 C 0.84223 0.2435 0.45505 0.0
C436 C 0.87137 0.238 0.47257 0.0
C437 C 0.82431 0.22284 0.42332 0.0
C438 C 0.88189 0.21077 0.45808 0.0
C439 C 0.86457 0.19046 0.42602 0.0
H440 H 0.65293 0.85866 0.50361 0.0
H441 H 0.71625 0.80314 0.54893 0.0
H442 H 0.72193 0.83641 0.60606 0.0
H443 H 0.69881 0.87201 0.64554 0.0
H444 H 0.62839 0.92017 0.60143 0.0
H445 H 0.6354 0.89919 0.54132 0.0
C446 C 0.66861 0.85449 0.52586 0.0
C447 C 0.68435 0.82882 0.52211 0.0
C448 C 0.66994 0.87199 0.55893 0.0
C449 C 0.7047 0.82356 0.55092 0.0
C450 C 0.70745 0.8421 0.58377 0.0
C451 C 0.68601 0.87868 0.62246 0.0
C452 C 0.6632 0.89737 0.62727 0.0
C453 C 0.68883 0.8651 0.58841 0.0
C454 C 0.64601 0.90563 0.5978 0.0
C455 C 0.64994 0.89361 0.56364 0.0
H456 H 0.88209 0.69928 0.68745 0.0
H457 H 0.93191 0.63416 0.73959 0.0
H458 H 0.90779 0.64272 0.79746 0.0
H459 H 0.86385 0.65905 0.83109 0.0
H460 H 0.80934 0.72001 0.77956 0.0
H461 H 0.84462 0.72382 0.72371 0.0
C462 C 0.88858 0.68817 0.71176 0.0
C463 C 0.90862 0.66619 0.70965 0.0
C464 C 0.87342 0.6921 0.74482 0.0
C465 C 0.91647 0.65116 0.74092 0.0
C466 C 0.90259 0.65591 0.77388 0.0
C467 C 0.8604 0.67393 0.80779 0.0
C468 C 0.83396 0.68894 0.80913 0.0
C469 C 0.87968 0.67484 0.77586 0.0
C470 C 0.82984 0.7085 0.77908 0.0
C471 C 0.84967 0.71028 0.74711 0.0
H472 H 0.19056 0.87358 0.84647 0.0
H473 H 0.27976 0.95314 0.92219 0.0
H474 H 0.23416 0.91768 0.97185 0.0
H475 H 0.17649 0.85489 0.99312 0.0
H476 H 0.09264 0.76961 0.91724 0.0
H477 H 0.12731 0.81669 0.8681 0.0
C478 C 0.1991 0.88412 0.87378 0.0
C479 C 0.23803 0.91576 0.88103 0.0
C480 C 0.17367 0.86208 0.90209 0.0
C481 C 0.24966 0.92877 0.91636 0.0
C482 C 0.22374 0.90838 0.94465 0.0
C483 C 0.16495 0.84765 0.96595 0.0
C484 C 0.13225 0.80942 0.95838 0.0
C485 C 0.18668 0.87363 0.93786 0.0
C486 C 0.11769 0.79931 0.9233 0.0
C487 C 0.13776 0.82599 0.89529 0.0
H488 H 0.34025 0.19641 0.03162 0.0
H489 H 0.40491 0.30815 0.08973 0.0
H490 H 0.40148 0.27164 0.14434 0.0
H491 H 0.39335 0.20991 0.17108 0.0
H492 H 0.33238 0.09806 0.11287 0.0
H493 H 0.3204 0.13211 0.06274 0.0
C494 C 0.35189 0.21237 0.05672 0.0
C495 C 0.3727 0.25466 0.05707 0.0
C496 C 0.35128 0.19119 0.08759 0.0
C497 C 0.38857 0.2755 0.08926 0.0
C498 C 0.38698 0.25468 0.12029 0.0
C499 C 0.3764 0.19294 0.14777 0.0
C500 C 0.36412 0.15199 0.14504 0.0
C501 C 0.37048 0.21283 0.11915 0.0
C502 C 0.34204 0.12978 0.11515 0.0
C503 C 0.33547 0.14929 0.08654 0.0
H504 H 0.06713 0.489 0.01535 0.0
H505 H 0.06324 0.44963 0.12422 0.0
H506 H 0.06419 0.50966 0.1466 0.0
H507 H 0.06725 0.57404 0.13566 0.0
H508 H 0.07474 0.6157 0.0271 0.0
H509 H 0.07147 0.55453 0.00442 0.0
C510 C 0.06625 0.49352 0.04392 0.0
C511 C 0.06506 0.46482 0.06801 0.0
C512 C 0.0677 0.52873 0.05679 0.0
C513 C 0.06438 0.47133 0.10503 0.0
C514 C 0.06488 0.50566 0.11793 0.0
C515 C 0.06813 0.56975 0.10704 0.0
C516 C 0.07119 0.59949 0.08322 0.0
C517 C 0.06678 0.53471 0.09411 0.0
C518 C 0.07256 0.59344 0.04616 0.0
C519 C 0.07057 0.55836 0.03309 0.0
H520 H 0.47457 0.05136 0.21961 0.0
H521 H 0.49799 0.05589 0.333 0.0
H522 H 0.56121 0.05751 0.32088 0.0
H523 H 0.61011 0.05838 0.27802 0.0
H524 H 0.58443 0.04904 0.16483 0.0
H525 H 0.5217 0.04847 0.17688 0.0
C526 C 0.49355 0.05277 0.24168 0.0
C527 C 0.48176 0.05389 0.27719 0.0
C528 C 0.5294 0.05282 0.23451 0.0
C529 C 0.50636 0.05502 0.30548 0.0
C530 C 0.54254 0.05604 0.29854 0.0
C531 C 0.59082 0.0563 0.25596 0.0
C532 C 0.60212 0.05416 0.22051 0.0
C533 C 0.55442 0.05511 0.26317 0.0
C534 C 0.57645 0.05076 0.19231 0.0
C535 C 0.54063 0.05052 0.1992 0.0
H536 H 0.55985 0.5854 0.35645 0.0
H537 H 0.59236 0.63101 0.46423 0.0
H538 H 0.53267 0.57179 0.48739 0.0
H539 H 0.47089 0.50656 0.47725 0.0
H540 H 0.43614 0.46317 0.36911 0.0
H541 H 0.4966 0.52163 0.3461 0.0
C542 C 0.55385 0.58232 0.38499 0.0
C543 C 0.58067 0.61258 0.40851 0.0
C544 C 0.5189 0.54846 0.39817 0.0
C545 C 0.57218 0.60829 0.44543 0.0
C546 C 0.53806 0.57433 0.45878 0.0
C547 C 0.4766 0.50993 0.44867 0.0
C548 C 0.44903 0.48041 0.42503 0.0
C549 C 0.51116 0.54417 0.43543 0.0
C550 C 0.45672 0.48548 0.38799 0.0
C551 C 0.4914 0.51889 0.37474 0.0
H552 H 0.99412 0.56357 0.61693 0.0
H553 H 0.98713 0.5429 0.50293 0.0
H554 H 0.98672 0.47969 0.51259 0.0
H555 H 0.98873 0.43043 0.5535 0.0
H556 H 1.0007 0.45376 0.66717 0.0
H557 H 0.99891 0.51579 0.65759 0.0
C558 C 0.99231 0.54512 0.59421 0.0
C559 C 0.9903 0.55774 0.55927 0.0
C560 C 0.99313 0.50935 0.59992 0.0
C561 C 0.98866 0.53384 0.53008 0.0
C562 C 0.9884 0.49769 0.5356 0.0
C563 C 0.99087 0.44906 0.57617 0.0
C564 C 0.99462 0.43735 0.61103 0.0
C565 C 0.99067 0.48516 0.5704 0.0
C566 C 0.9979 0.46212 0.64008 0.0
C567 C 0.99676 0.49754 0.63463 0.0
H568 H 0.46458 0.99103 0.69308 0.0
H569 H 0.43039 0.99722 0.80187 0.0
H570 H 0.49115 1.00043 0.82424 0.0
H571 H 0.55313 0.99874 0.8136 0.0
H572 H 0.58597 0.98892 0.70525 0.0
H573 H 0.52733 0.99006 0.68237 0.0
C574 C 0.47063 0.99333 0.72161 0.0
C575 C 0.44277 0.99362 0.74563 0.0
C576 C 0.50554 0.9944 0.7346 0.0
C577 C 0.45103 0.99646 0.78264 0.0
C578 C 0.48591 0.99842 0.7956 0.0
C579 C 0.54759 0.99717 0.785 0.0
C580 C 0.5739 0.99366 0.76131 0.0
C581 C 0.51322 0.99698 0.77191 0.0
C582 C 0.56608 0.99136 0.72424 0.0
C583 C 0.53251 0.99206 0.71102 0.0
H584 H 0.52051 0.47038 0.86769 0.0
H585 H 0.48178 0.43269 0.97634 0.0
H586 H 0.54033 0.49352 0.99902 0.0
H587 H 0.60268 0.55786 0.9881 0.0
H588 H 0.64235 0.59389 0.87932 0.0
H589 H 0.58349 0.5335 0.85683 0.0
C590 C 0.52484 0.47547 0.89633 0.0
C591 C 0.49666 0.44702 0.92019 0.0
C592 C 0.55884 0.51033 0.90928 0.0
C593 C 0.50299 0.45401 0.95727 0.0
C594 C 0.53646 0.48887 0.97033 0.0
C595 C 0.5984 0.5525 0.95949 0.0
C596 C 0.62692 0.58049 0.93552 0.0
C597 C 0.56459 0.51731 0.94659 0.0
C598 C 0.62102 0.57286 0.89848 0.0
C599 C 0.58727 0.53832 0.88551 0.0
H600 H 0.03737 0.38166 0.77225 0.0
H601 H 0.06431 0.28563 0.76364 0.0
H602 H 0.05129 0.27162 0.82745 0.0
H603 H 0.03027 0.28514 0.88531 0.0
H604 H 1.00597 0.38279 0.89461 0.0
H605 H 1.01861 0.39672 0.83058 0.0
C606 C 0.04098 0.35802 0.78437 0.0
C607 C 0.05179 0.33473 0.76302 0.0
C608 C 0.03286 0.34969 0.82102 0.0
C609 C 0.05619 0.30417 0.77932 0.0
C610 C 0.04834 0.29583 0.81579 0.0
C611 C 1.02719 0.30912 0.87325 0.0
C612 C 1.01674 0.33262 0.89463 0.0
C613 C 0.03599 0.31793 0.83675 0.0
C614 C 1.01365 0.36407 0.87868 0.0
C615 C 1.02122 0.37227 0.84215 0.0
H616 H 0.64304 0.0269 0.93512 0.0
H617 H 0.76514 0.05159 0.94338 0.0
H618 H 0.75608 0.0369 0.00738 0.0
H619 H 0.71307 1.01537 0.06038 0.0
H620 H 0.59316 0.99689 0.0536 0.0
H621 H 0.60097 1.00838 0.98904 0.0
C622 C 0.66784 0.02952 0.95099 0.0
C623 C 0.70476 0.04047 0.93447 0.0
C624 C 0.66244 1.02102 0.98777 0.0
C625 C 0.73655 0.04369 0.95543 0.0
C626 C 0.73125 0.0348 0.99196 0.0
C627 C 0.68874 1.01425 0.04499 0.0
C628 C 0.65288 1.00604 0.06209 0.0
C629 C 0.69422 0.02309 0.0083 0.0
C630 C 0.6212 1.00336 0.04127 0.0
C631 C 0.62577 1.01031 0.00438 0.0
H632 H 0.73252 0.71052 0.11142 0.0
H633 H 0.61201 0.60888 0.11883 0.0
H634 H 0.61879 0.6082 0.18391 0.0
H635 H 0.65901 0.63657 0.23853 0.0
H636 H 0.78057 0.73638 0.2303 0.0
H637 H 0.77373 0.73658 0.16538 0.0
C638 C 0.70769 0.68812 0.12717 0.0
C639 C 0.67179 0.65979 0.1102 0.0
C640 C 0.71224 0.68712 0.16434 0.0
C641 C 0.63994 0.63111 0.13117 0.0
C642 C 0.64389 0.63055 0.16837 0.0
C643 C 0.68423 0.65805 0.22254 0.0
C644 C 0.72026 0.68647 0.23936 0.0
C645 C 0.68 0.65827 0.1852 0.0
C646 C 0.75255 0.71408 0.21814 0.0
C647 C 0.74857 0.71446 0.181 0.0
H648 H 0.08822 0.65945 0.38496 0.0
H649 H 0.9651 0.62185 0.40876 0.0
H650 H 0.9495 0.61834 0.34498 0.0
H651 H 0.97203 0.62991 0.28252 0.0
H652 H 0.09469 0.66432 0.2583 0.0
H653 H 0.10919 0.66454 0.32175 0.0
C654 C 0.05802 0.65018 0.37595 0.0
C655 C 1.02812 0.64255 0.40111 0.0
C656 C 0.04922 0.6477 0.33917 0.0
C657 C 0.98889 0.62987 0.38952 0.0
C658 C 0.97988 0.62733 0.35314 0.0
C659 C 1.00183 0.63712 0.29107 0.0
C660 C 0.03236 0.64793 0.26566 0.0
C661 C 1.01002 0.63703 0.3277 0.0
C662 C 0.07073 0.65672 0.27727 0.0
C663 C 0.07912 0.65674 0.31363 0.0
H664 H 0.38775 1.01458 0.56546 0.0
H665 H 0.30082 0.0537 0.57292 0.0
H666 H 0.28727 0.04229 0.50895 0.0
H667 H 0.29958 1.02079 0.45081 0.0
H668 H 0.39023 0.98705 0.4418 0.0
H669 H 0.4023 0.99591 0.50651 0.0
C670 C 0.36608 1.02091 0.55302 0.0
C671 C 0.34538 0.035 0.57403 0.0
C672 C 0.35861 1.01458 0.51603 0.0
C673 C 0.31745 0.04314 0.55744 0.0
C674 C 0.3094 0.0363 0.52085 0.0
C675 C 0.32157 1.01485 0.46314 0.0
C676 C 0.3435 1.00259 0.44182 0.0
C677 C 0.32953 1.02172 0.49995 0.0
C678 C 0.37269 0.99606 0.45788 0.0
C679 C 0.37976 1.00138 0.49476 0.0
H680 H 0.44293 0.36706 0.62009 0.0
H681 H 0.3795 0.4297 0.59459 0.0
H682 H 0.37304 0.44018 0.65792 0.0
H683 H 0.3816 0.42778 0.72098 0.0
H684 H 0.44902 0.36924 0.74635 0.0
H685 H 0.45794 0.36131 0.68311 0.0
C686 C 0.42808 0.38334 0.62841 0.0
C687 C 0.4105 0.39629 0.60268 0.0
C688 C 0.42491 0.38982 0.66502 0.0
C689 C 0.39187 0.41791 0.6139 0.0
C690 C 0.38846 0.4243 0.65016 0.0
C691 C 0.39854 0.41364 0.71268 0.0
C692 C 0.41339 0.39791 0.7385 0.0
C693 C 0.40412 0.40964 0.67603 0.0
C694 C 0.43584 0.38022 0.72717 0.0
C695 C 0.44134 0.37597 0.69088 0.0
H696 H 0.26984 0.3018 0.9416 0.0
H697 H 0.31583 0.40696 0.87428 0.0
H698 H 0.26236 0.41898 0.89503 0.0
H699 H 0.20613 0.40275 0.93699 0.0
H700 H 0.15968 0.29588 0.00209 0.0
H701 H 0.21001 0.28157 0.97789 0.0
C702 C 0.26792 0.32712 0.93112 0.0
C703 C 0.29698 0.35369 0.90672 0.0
C704 C 0.23729 0.33378 0.94316 0.0
C705 C 0.29377 0.38603 0.89303 0.0
C706 C 0.26337 0.39305 0.9051 0.0
C707 C 0.2066 0.37592 0.94521 0.0
C708 C 0.17951 0.35052 0.97147 0.0
C709 C 0.23547 0.36761 0.93079 0.0
C710 C 0.18059 0.31606 0.98221 0.0
C711 C 0.20927 0.30783 0.96834 0.0
H712 H 0.9251 0.2738 0.05141 0.0
H713 H 1.00471 0.24813 0.11244 0.0
H714 H 0.948 0.19611 0.14576 0.0
H715 H 0.87584 0.15945 0.15973 0.0
H716 H 0.79567 0.1849 0.09994 0.0
H717 H 0.85206 0.23515 0.06413 0.0
C718 C 0.92988 0.25635 0.07158 0.0
C719 C 0.9692 0.26501 0.0794 0.0
C720 C 0.89698 0.2267 0.09128 0.0
C721 C 0.97486 0.24234 0.10597 0.0
C722 C 0.94242 0.21258 0.12517 0.0
C723 C 0.87093 0.1763 0.13902 0.0
C724 C 0.83195 0.16908 0.13272 0.0
C725 C 0.90344 0.20496 0.11854 0.0
C726 C 0.82562 0.19036 0.10536 0.0
C727 C 0.85781 0.21895 0.08485 0.0
H728 H 0.665 0.84931 0.33656 0.0
H729 H 0.73103 0.82653 0.25581 0.0
H730 H 0.73896 0.88411 0.2213 0.0
H731 H 0.72961 0.94341 0.21528 0.0
H732 H 0.67364 0.97161 0.30158 0.0
H733 H 0.66089 0.91073 0.33339 0.0
C734 C 0.68193 0.85728 0.31183 0.0
C735 C 0.69736 0.83328 0.29904 0.0
C736 C 0.68865 0.89197 0.29325 0.0
C737 C 0.71796 0.84364 0.26615 0.0
C738 C 0.72302 0.87703 0.24655 0.0
C739 C 0.71476 0.93615 0.2411 0.0
C740 C 0.70248 0.96187 0.25606 0.0
C741 C 0.7088 0.9017 0.25998 0.0
C742 C 0.68357 0.9524 0.28965 0.0
C743 C 0.6761 0.91749 0.30777 0.0
H744 H 0.77763 0.66506 0.39441 0.0
H745 H 0.78785 0.75851 0.46543 0.0
H746 H 0.83808 0.75358 0.50081 0.0
H747 H 0.8793 0.72246 0.51258 0.0
H748 H 0.87088 0.63026 0.4415 0.0
H749 H 0.82007 0.63474 0.40558 0.0
C750 C 0.79113 0.68459 0.41739 0.0
C751 C 0.77861 0.71197 0.42712 0.0
C752 C 0.82023 0.68156 0.43802 0.0
C753 C 0.79647 0.73689 0.45724 0.0
C754 C 0.82531 0.73412 0.47768 0.0
C755 C 0.86592 0.70311 0.48945 0.0
C756 C 0.8784 0.67583 0.47984 0.0
C757 C 0.83718 0.70633 0.4686 0.0
C758 C 0.86151 0.65141 0.44942 0.0
C759 C 0.83257 0.65404 0.42883 0.0
H760 H 0.23517 0.85326 0.61972 0.0
H761 H 0.16819 0.87124 0.70277 0.0
H762 H 0.10524 0.81838 0.67682 0.0
H763 H 0.06902 0.768 0.62967 0.0
H764 H 0.13581 0.75375 0.5439 0.0
H765 H 0.19876 0.80505 0.57098 0.0
C766 C 0.20674 0.84597 0.63184 0.0
C767 C 0.20642 0.86633 0.66308 0.0
C768 C 0.17054 0.81647 0.61602 0.0
C769 C 0.16937 0.85579 0.67896 0.0
C770 C 0.13331 0.82578 0.66393 0.0
C771 C 0.09732 0.77615 0.61682 0.0
C772 C 0.09752 0.75686 0.58475 0.0
C773 C 0.1335 0.80605 0.63235 0.0
C774 C 0.13459 0.76813 0.56844 0.0
C775 C 0.1707 0.79737 0.58402 0.0
H776 H 0.35222 0.21684 0.78551 0.0
H777 H 0.41278 0.20053 0.87562 0.0
H778 H 0.40217 0.13749 0.84984 0.0
H779 H 0.37635 0.0874 0.80155 0.0
H780 H 0.32387 0.1075 0.70757 0.0
H781 H 0.33192 0.16968 0.73433 0.0
C782 C 0.36378 0.1999 0.79921 0.0
C783 C 0.38299 0.21328 0.83268 0.0
C784 C 0.35927 0.16463 0.78337 0.0
C785 C 0.39708 0.19051 0.85031 0.0
C786 C 0.39138 0.15466 0.8354 0.0
C787 C 0.36672 0.10549 0.78694 0.0
C788 C 0.34913 0.09289 0.7529 0.0
C789 C 0.3725 0.14145 0.80201 0.0
C790 C 0.33743 0.11675 0.73384 0.0
C791 C 0.34192 0.15211 0.7492 0.0
H792 H 0.75448 0.79749 0.88763 0.0
H793 H 0.6658 0.76247 0.97118 0.0
H794 H 0.6449 0.80819 0.94703 0.0
H795 H 0.64892 0.85519 0.89969 0.0
H796 H 0.74001 0.8925 0.81835 0.0
H797 H 0.76227 0.84836 0.84363 0.0
C798 C 0.73083 0.80009 0.90081 0.0
C799 C 0.71165 0.77631 0.93111 0.0
C800 C 0.71894 0.82649 0.88682 0.0
C801 C 0.68124 0.78042 0.94791 0.0
C802 C 0.66905 0.80641 0.93397 0.0
C803 C 0.674 0.85402 0.88789 0.0
C804 C 0.69253 0.87675 0.85699 0.0
C805 C 0.68726 0.82915 0.9031 0.0
C806 C 0.7248 0.87474 0.84177 0.0
C807 C 0.73771 0.8497 0.85635 0.0
H808 H 0.85274 0.71241 0.07321 0.0
H809 H 0.85084 0.6448 0.98018 0.0
H810 H 0.9076 0.64067 0.00358 0.0
H811 H 0.96001 0.6591 0.04875 0.0
H812 H 0.9598 0.72136 0.14458 0.0
H813 H 0.9007 0.72355 0.12258 0.0
C814 C 0.86435 0.69623 0.05837 0.0
C815 C 0.8482 0.67993 0.02443 0.0
C816 C 0.89637 0.69274 0.07265 0.0
C817 C 0.8636 0.65899 0.00563 0.0
C818 C 0.8958 0.65617 0.0192 0.0
C819 C 0.94657 0.67259 0.06505 0.0
C820 C 0.9641 0.69017 0.09809 0.0
C821 C 0.91278 0.67345 0.05236 0.0
C822 C 0.9465 0.70738 0.11916 0.0
C823 C 0.91299 0.70892 0.10641 0.0
H824 H 0.15868 0.83026 0.22084 0.0
H825 H 0.23761 0.83979 0.13486 0.0
H826 H 0.2919 0.90148 0.16131 0.0
H827 H 0.31726 0.95263 0.20918 0.0
H828 H 0.24185 0.93802 0.29963 0.0
H829 H 0.18616 0.87766 0.27187 0.0
C830 C 0.18794 0.84542 0.20817 0.0
C831 C 0.19377 0.83061 0.17551 0.0
C832 C 0.2197 0.87982 0.22455 0.0
C833 C 0.23184 0.85104 0.15938 0.0
C834 C 0.26307 0.88613 0.17472 0.0
C835 C 0.2886 0.9361 0.2228 0.0
C836 C 0.2834 0.94985 0.2562 0.0
C837 C 0.25732 0.90085 0.20723 0.0
C838 C 0.24646 0.92793 0.27391 0.0
C839 C 0.21466 0.89356 0.25798 0.0
H840 H 0.31644 0.26428 0.38322 0.0
H841 H 0.40397 0.29054 0.46652 0.0
H842 H 0.41676 0.23868 0.44276 0.0
H843 H 0.40521 0.18768 0.39645 0.0
H844 H 0.31523 0.15962 0.31531 0.0
H845 H 0.30208 0.211 0.33947 0.0
C846 C 0.3382 0.25861 0.39637 0.0
C847 C 0.3593 0.28158 0.42661 0.0
C848 C 0.34536 0.22867 0.38261 0.0
C849 C 0.38714 0.27337 0.44333 0.0
C850 C 0.39465 0.24381 0.42962 0.0
C851 C 0.38228 0.19241 0.38446 0.0
C852 C 0.36118 0.16978 0.35411 0.0
C853 C 0.37422 0.22151 0.39905 0.0
C854 C 0.33215 0.17686 0.33844 0.0
C855 C 0.32445 0.20609 0.35238 0.0
H856 H 0.13122 0.37822 0.60641 0.0
H857 H 0.04786 0.28253 0.53709 0.0
H858 H 0.10363 0.28582 0.50332 0.0
H859 H 0.17654 0.31625 0.49295 0.0
H860 H 0.25963 0.41446 0.56003 0.0
H861 H 0.20392 0.40963 0.59518 0.0
C862 C 0.12527 0.35784 0.58412 0.0
C863 C 0.08531 0.33004 0.57451 0.0
C864 C 0.15758 0.36047 0.56421 0.0
C865 C 0.07825 0.30426 0.54515 0.0
C866 C 0.11017 0.30614 0.52574 0.0
C867 C 0.18233 0.33694 0.51493 0.0
C868 C 0.22218 0.36579 0.52375 0.0
C869 C 0.15 0.33433 0.5348 0.0
C870 C 0.22925 0.39184 0.55281 0.0
C871 C 0.19738 0.38914 0.5729 0.0
H872 H 0.88768 0.16703 0.67835 0.0
H873 H 0.85836 0.25165 0.72459 0.0
H874 H 0.80436 0.19755 0.75965 0.0
H875 H 0.76345 0.12522 0.77505 0.0
H876 H 0.79089 0.0405 0.72549 0.0
H877 H 0.84754 0.09525 0.69408 0.0
C878 C 0.86928 0.17343 0.69605 0.0
C879 C 0.87677 0.21302 0.69901 0.0
C880 C 0.83803 0.14212 0.71563 0.0
C881 C 0.85311 0.22126 0.72215 0.0
C882 C 0.82227 0.19037 0.74212 0.0
C883 C 0.78228 0.11894 0.75782 0.0
C884 C 0.77308 0.0789 0.7527 0.0
C885 C 0.81427 0.15057 0.73895 0.0
C886 C 0.79731 0.07107 0.72982 0.0
C887 C 0.82967 0.10235 0.71175 0.0
loop_
_geom_bond_atom_site_label_1
_geom_bond_atom_site_label_2
_geom_bond_distance
_geom_bond_site_symmetry_2
_ccdc_geom_bond_type
Co0 O3 1.970 . S
Co0 N17 1.989 . S
Co0 O25 1.967 . S
Co0 O32 1.920 1_554 S
Co1 O4 1.966 . S
Co1 N10 2.022 . S
Co1 N18 1.993 . S
Co1 O26 1.941 . S
C2 O3 1.258 . S
C2 O4 1.263 . S
O3 Co0 1.970 . S
O3 C2 1.258 . S
O4 Co1 1.966 . S
O4 C2 1.263 . S
C5 O6 1.235 . S
C5 O32 1.289 . S
O6 C5 1.235 . S
C7 C9 1.400 . S
C7 N10 1.351 . S
C7 C12 1.501 . S
C8 C9 1.387 . S
C8 N11 1.341 . S
C9 C7 1.400 . S
C9 C8 1.387 . S
N10 Co1 2.022 . S
N10 C7 1.351 . S
N10 N11 1.365 . S
N11 C8 1.341 . S
N11 N10 1.365 . S
N11 H31 0.862 . S
C12 C7 1.501 . S
C12 H13 0.961 . S
C12 H14 0.961 . S
C12 H15 0.960 . S
H13 C12 0.961 . S
H14 C12 0.961 . S
H15 C12 0.960 . S
C16 N17 1.342 1_556 S
C16 C20 1.401 1_556 S
C16 C21 1.499 . S
N17 Co0 1.989 . S
N17 C16 1.342 1_554 S
N17 N18 1.388 . S
N18 Co1 1.993 . S
N18 N17 1.388 . S
N18 C19 1.346 . S
C19 N18 1.346 . S
C19 C20 1.396 . S
C19 C29 1.510 . S
C20 C16 1.401 1_554 S
C20 C19 1.396 . S
C21 C16 1.499 . S
C21 H22 0.959 . S
C21 H23 0.960 . S
C21 H24 0.961 . S
H22 C21 0.959 . S
H23 C21 0.960 . S
H24 C21 0.961 . S
O25 Co0 1.967 . S
O25 C33 1.258 . S
O26 Co1 1.941 . S
O26 C33 1.266 . S
H27 C29 0.959 . S
H28 C29 0.961 . S
C29 C19 1.510 . S
C29 H27 0.959 . S
C29 H28 0.961 . S
C29 H30 0.960 . S
H30 C29 0.960 . S
H31 N11 0.862 . S
O32 Co0 1.920 1_556 S
O32 C5 1.289 . S
C33 O25 1.258 . S
C33 O26 1.266 . S
Co34 O37 1.970 . S
Co34 N51 1.989 . S
Co34 O59 1.967 . S
Co34 O66 1.920 . S
Co35 O38 1.966 . S
Co35 N44 2.022 . S
Co35 N52 1.993 . S
Co35 O60 1.941 . S
C36 O37 1.258 . S
C36 O38 1.263 . S
O37 Co34 1.970 . S
O37 C36 1.258 . S
O38 Co35 1.966 . S
O38 C36 1.263 . S
C39 O40 1.235 . S
C39 O66 1.289 . S
O40 C39 1.235 . S
C41 C43 1.400 . S
C41 N44 1.351 . S
C41 C46 1.501 . S
C42 C43 1.387 . S
C42 N45 1.341 . S
C43 C41 1.400 . S
C43 C42 1.387 . S
N44 Co35 2.022 . S
N44 C41 1.351 . S
N44 N45 1.365 . S
N45 C42 1.341 . S
N45 N44 1.365 . S
N45 H65 0.862 . S
C46 C41 1.501 . S
C46 H47 0.961 . S
C46 H48 0.961 . S
C46 H49 0.960 . S
H47 C46 0.961 . S
H48 C46 0.961 . S
H49 C46 0.960 . S
C50 N51 1.342 . S
C50 C54 1.401 . S
C50 C55 1.499 . S
N51 Co34 1.989 . S
N51 C50 1.342 . S
N51 N52 1.388 . S
N52 Co35 1.993 . S
N52 N51 1.388 . S
N52 C53 1.346 . S
C53 N52 1.346 . S
C53 C54 1.396 . S
C53 C63 1.510 . S
C54 C50 1.401 . S
C54 C53 1.396 . S
C55 C50 1.499 . S
C55 H56 0.959 . S
C55 H57 0.960 . S
C55 H58 0.961 . S
H56 C55 0.959 . S
H57 C55 0.960 . S
H58 C55 0.961 . S
O59 Co34 1.967 . S
O59 C67 1.258 . S
O60 Co35 1.941 . S
O60 C67 1.266 . S
H61 C63 0.959 . S
H62 C63 0.961 . S
C63 C53 1.510 . S
C63 H61 0.959 . S
C63 H62 0.961 . S
C63 H64 0.960 . S
H64 C63 0.960 . S
H65 N45 0.862 . S
O66 Co34 1.920 . S
O66 C39 1.289 . S
C67 O59 1.258 . S
C67 O60 1.266 . S
Co68 O71 1.970 . S
Co68 N85 1.989 . S
Co68 O93 1.967 . S
Co68 O100 1.920 . S
Co69 O72 1.966 . S
Co69 N78 2.022 . S
Co69 N86 1.993 . S
Co69 O94 1.941 . S
C70 O71 1.258 . S
C70 O72 1.263 . S
O71 Co68 1.970 . S
O71 C70 1.258 . S
O72 Co69 1.966 . S
O72 C70 1.263 . S
C73 O74 1.235 . S
C73 O100 1.289 . S
O74 C73 1.235 . S
C75 C77 1.400 . S
C75 N78 1.351 . S
C75 C80 1.501 . S
C76 C77 1.387 . S
C76 N79 1.341 . S
C77 C75 1.400 . S
C77 C76 1.387 . S
N78 Co69 2.022 . S
N78 C75 1.351 . S
N78 N79 1.365 . S
N79 C76 1.341 . S
N79 N78 1.365 . S
N79 H99 0.862 . S
C80 C75 1.501 . S
C80 H81 0.961 . S
C80 H82 0.961 . S
C80 H83 0.960 . S
H81 C80 0.961 . S
H82 C80 0.961 . S
H83 C80 0.960 . S
C84 N85 1.342 . S
C84 C88 1.401 . S
C84 C89 1.499 . S
N85 Co68 1.989 . S
N85 C84 1.342 . S
N85 N86 1.388 . S
N86 Co69 1.993 . S
N86 N85 1.388 . S
N86 C87 1.346 . S
C87 N86 1.346 . S
C87 C88 1.396 . S
C87 C97 1.510 . S
C88 C84 1.401 . S
C88 C87 1.396 . S
C89 C84 1.499 . S
C89 H90 0.959 . S
C89 H91 0.960 . S
C89 H92 0.961 . S
H90 C89 0.959 . S
H91 C89 0.960 . S
H92 C89 0.961 . S
O93 Co68 1.967 . S
O93 C101 1.258 . S
O94 Co69 1.941 . S
O94 C101 1.266 . S
H95 C97 0.959 . S
H96 C97 0.961 . S
C97 C87 1.510 . S
C97 H95 0.959 . S
C97 H96 0.961 . S
C97 H98 0.960 . S
H98 C97 0.960 . S
H99 N79 0.862 . S
O100 Co68 1.920 . S
O100 C73 1.289 . S
C101 O93 1.258 . S
C101 O94 1.266 . S
Co102 O105 1.970 . S
Co102 N119 1.989 . S
Co102 O127 1.967 . S
Co102 O134 1.920 . S
Co103 O106 1.966 . S
Co103 N112 2.022 . S
Co103 N120 1.993 . S
Co103 O128 1.941 . S
C104 O105 1.258 . S
C104 O106 1.263 . S
O105 Co102 1.970 . S
O105 C104 1.258 . S
O106 Co103 1.966 . S
O106 C104 1.263 . S
C107 O108 1.235 . S
C107 O134 1.289 . S
O108 C107 1.235 . S
C109 C111 1.400 . S
C109 N112 1.351 . S
C109 C114 1.501 . S
C110 C111 1.387 . S
C110 N113 1.341 . S
C111 C109 1.400 . S
C111 C110 1.387 . S
N112 Co103 2.022 . S
N112 C109 1.351 . S
N112 N113 1.365 . S
N113 C110 1.341 . S
N113 N112 1.365 . S
N113 H133 0.862 . S
C114 C109 1.501 . S
C114 H115 0.961 . S
C114 H116 0.961 . S
C114 H117 0.960 . S
H115 C114 0.961 . S
H116 C114 0.961 . S
H117 C114 0.960 . S
C118 N119 1.342 . S
C118 C122 1.401 . S
C118 C123 1.499 . S
N119 Co102 1.989 . S
N119 C118 1.342 . S
N119 N120 1.388 . S
N120 Co103 1.993 . S
N120 N119 1.388 . S
N120 C121 1.346 . S
C121 N120 1.346 . S
C121 C122 1.396 . S
C121 C131 1.510 . S
C122 C118 1.401 . S
C122 C121 1.396 . S
C123 C118 1.499 . S
C123 H124 0.959 . S
C123 H125 0.960 . S
C123 H126 0.961 . S
H124 C123 0.959 . S
H125 C123 0.960 . S
H126 C123 0.961 . S
O127 Co102 1.967 . S
O127 C135 1.258 . S
O128 Co103 1.941 . S
O128 C135 1.266 . S
H129 C131 0.959 . S
H130 C131 0.961 . S
C131 C121 1.510 . S
C131 H129 0.959 . S
C131 H130 0.961 . S
C131 H132 0.960 . S
H132 C131 0.960 . S
H133 N113 0.862 . S
O134 Co102 1.920 . S
O134 C107 1.289 . S
C135 O127 1.258 . S
C135 O128 1.266 . S
Co136 O139 1.970 . S
Co136 N153 1.989 . S
Co136 O161 1.967 . S
Co136 O168 1.920 . S
Co137 O140 1.966 . S
Co137 N146 2.022 . S
Co137 N154 1.993 . S
Co137 O162 1.941 . S
C138 O139 1.258 . S
C138 O140 1.263 . S
O139 Co136 1.970 . S
O139 C138 1.258 . S
O140 Co137 1.966 . S
O140 C138 1.263 . S
C141 O142 1.235 . S
C141 O168 1.289 . S
O142 C141 1.235 . S
C143 C145 1.400 . S
C143 N146 1.351 . S
C143 C148 1.501 . S
C144 C145 1.387 . S
C144 N147 1.341 . S
C145 C143 1.400 . S
C145 C144 1.387 . S
N146 Co137 2.022 . S
N146 C143 1.351 . S
N146 N147 1.365 . S
N147 C144 1.341 . S
N147 N146 1.365 . S
N147 H167 0.862 . S
C148 C143 1.501 . S
C148 H149 0.961 . S
C148 H150 0.961 . S
C148 H151 0.960 . S
H149 C148 0.961 . S
H150 C148 0.961 . S
H151 C148 0.960 . S
C152 N153 1.342 . S
C152 C156 1.401 . S
C152 C157 1.499 . S
N153 Co136 1.989 . S
N153 C152 1.342 . S
N153 N154 1.388 . S
N154 Co137 1.993 . S
N154 N153 1.388 . S
N154 C155 1.346 . S
C155 N154 1.346 . S
C155 C156 1.396 . S
C155 C165 1.510 . S
C156 C152 1.401 . S
C156 C155 1.396 . S
C157 C152 1.499 . S
C157 H158 0.959 . S
C157 H159 0.960 . S
C157 H160 0.961 . S
H158 C157 0.959 . S
H159 C157 0.960 . S
H160 C157 0.961 . S
O161 Co136 1.967 . S
O161 C169 1.258 . S
O162 Co137 1.941 . S
O162 C169 1.266 . S
H163 C165 0.959 . S
H164 C165 0.961 . S
C165 C155 1.510 . S
C165 H163 0.959 . S
C165 H164 0.961 . S
C165 H166 0.960 . S
H166 C165 0.960 . S
H167 N147 0.862 . S
O168 Co136 1.920 . S
O168 C141 1.289 . S
C169 O161 1.258 . S
C169 O162 1.266 . S
Co170 O173 1.970 . S
Co170 N187 1.989 . S
Co170 O195 1.967 . S
Co170 O202 1.920 . S
Co171 O174 1.966 . S
Co171 N180 2.022 . S
Co171 N188 1.993 . S
Co171 O196 1.941 . S
C172 O173 1.258 . S
C172 O174 1.263 . S
O173 Co170 1.970 . S
O173 C172 1.258 . S
O174 Co171 1.966 . S
O174 C172 1.263 . S
C175 O176 1.235 . S
C175 O202 1.289 . S
O176 C175 1.235 . S
C177 C179 1.400 1_556 S
C177 N180 1.351 . S
C177 C182 1.501 . S
C178 C179 1.387 1_556 S
C178 N181 1.341 . S
C179 C177 1.400 1_554 S
C179 C178 1.387 1_554 S
N180 Co171 2.022 . S
N180 C177 1.351 . S
N180 N181 1.365 . S
N181 C178 1.341 . S
N181 N180 1.365 . S
N181 H201 0.862 . S
C182 C177 1.501 . S
C182 H183 0.961 . S
C182 H184 0.961 . S
C182 H185 0.960 1_556 S
H183 C182 0.961 . S
H184 C182 0.961 . S
H185 C182 0.960 1_554 S
C186 N187 1.342 . S
C186 C190 1.401 . S
C186 C191 1.499 . S
N187 Co170 1.989 . S
N187 C186 1.342 . S
N187 N188 1.388 . S
N188 Co171 1.993 . S
N188 N187 1.388 . S
N188 C189 1.346 . S
C189 N188 1.346 . S
C189 C190 1.396 . S
C189 C199 1.510 . S
C190 C186 1.401 . S
C190 C189 1.396 . S
C191 C186 1.499 . S
C191 H192 0.959 . S
C191 H193 0.960 . S
C191 H194 0.961 . S
H192 C191 0.959 . S
H193 C191 0.960 . S
H194 C191 0.961 . S
O195 Co170 1.967 . S
O195 C203 1.258 . S
O196 Co171 1.941 . S
O196 C203 1.266 . S
H197 C199 0.959 . S
H198 C199 0.961 . S
C199 C189 1.510 . S
C199 H197 0.959 . S
C199 H198 0.961 . S
C199 H200 0.960 . S
H200 C199 0.960 . S
H201 N181 0.862 . S
O202 Co170 1.920 . S
O202 C175 1.289 . S
C203 O195 1.258 . S
C203 O196 1.266 . S
Co204 O207 1.970 . S
Co204 N221 1.989 . S
Co204 O229 1.967 . S
Co204 O236 1.920 . S
Co205 O208 1.966 . S
Co205 N214 2.022 . S
Co205 N222 1.993 . S
Co205 O230 1.941 . S
C206 O207 1.258 . S
C206 O208 1.263 . S
O207 Co204 1.970 . S
O207 C206 1.258 . S
O208 Co205 1.966 . S
O208 C206 1.263 . S
C209 O210 1.235 . S
C209 O236 1.289 . S
O210 C209 1.235 . S
C211 C213 1.400 . S
C211 N214 1.351 . S
C211 C216 1.501 . S
C212 C213 1.387 . S
C212 N215 1.341 . S
C213 C211 1.400 . S
C213 C212 1.387 . S
N214 Co205 2.022 . S
N214 C211 1.351 . S
N214 N215 1.365 . S
N215 C212 1.341 . S
N215 N214 1.365 . S
N215 H235 0.862 . S
C216 C211 1.501 . S
C216 H217 0.961 . S
C216 H218 0.961 . S
C216 H219 0.960 . S
H217 C216 0.961 . S
H218 C216 0.961 . S
H219 C216 0.960 . S
C220 N221 1.342 . S
C220 C224 1.401 . S
C220 C225 1.499 . S
N221 Co204 1.989 . S
N221 C220 1.342 . S
N221 N222 1.388 . S
N222 Co205 1.993 . S
N222 N221 1.388 . S
N222 C223 1.346 . S
C223 N222 1.346 . S
C223 C224 1.396 . S
C223 C233 1.510 . S
C224 C220 1.401 . S
C224 C223 1.396 . S
C225 C220 1.499 . S
C225 H226 0.959 . S
C225 H227 0.960 . S
C225 H228 0.961 . S
H226 C225 0.959 . S
H227 C225 0.960 . S
H228 C225 0.961 . S
O229 Co204 1.967 . S
O229 C237 1.258 . S
O230 Co205 1.941 . S
O230 C237 1.266 . S
H231 C233 0.959 . S
H232 C233 0.961 . S
C233 C223 1.510 . S
C233 H231 0.959 . S
C233 H232 0.961 . S
C233 H234 0.960 . S
H234 C233 0.960 . S
H235 N215 0.862 . S
O236 Co204 1.920 . S
O236 C209 1.289 . S
C237 O229 1.258 . S
C237 O230 1.266 . S
Co238 O241 1.970 . S
Co238 N255 1.989 . S
Co238 O263 1.967 . S
Co238 O270 1.920 1_556 S
Co239 O242 1.966 . S
Co239 N248 2.022 . S
Co239 N256 1.993 . S
Co239 O264 1.941 . S
C240 O241 1.258 . S
C240 O242 1.263 . S
O241 Co238 1.970 . S
O241 C240 1.258 . S
O242 Co239 1.966 . S
O242 C240 1.263 . S
C243 O244 1.235 . S
C243 O270 1.289 . S
O244 C243 1.235 . S
C245 C247 1.400 . S
C245 N248 1.351 . S
C245 C250 1.501 . S
C246 C247 1.387 . S
C246 N249 1.341 . S
C247 C245 1.400 . S
C247 C246 1.387 . S
N248 Co239 2.022 . S
N248 C245 1.351 . S
N248 N249 1.365 . S
N249 C246 1.341 . S
N249 N248 1.365 . S
N249 H269 0.862 . S
C250 C245 1.501 . S
C250 H251 0.961 . S
C250 H252 0.961 . S
C250 H253 0.960 . S
H251 C250 0.961 . S
H252 C250 0.961 . S
H253 C250 0.960 . S
C254 N255 1.342 1_554 S
C254 C258 1.401 1_554 S
C254 C259 1.499 . S
N255 Co238 1.989 . S
N255 C254 1.342 1_556 S
N255 N256 1.388 . S
N256 Co239 1.993 . S
N256 N255 1.388 . S
N256 C257 1.346 . S
C257 N256 1.346 . S
C257 C258 1.396 . S
C257 C267 1.510 . S
C258 C254 1.401 1_556 S
C258 C257 1.396 . S
C259 C254 1.499 . S
C259 H260 0.959 . S
C259 H261 0.960 . S
C259 H262 0.961 . S
H260 C259 0.959 . S
H261 C259 0.960 . S
H262 C259 0.961 . S
O263 Co238 1.967 . S
O263 C271 1.258 . S
O264 Co239 1.941 . S
O264 C271 1.266 . S
H265 C267 0.959 . S
H266 C267 0.961 . S
C267 C257 1.510 . S
C267 H265 0.959 . S
C267 H266 0.961 . S
C267 H268 0.960 . S
H268 C267 0.960 . S
H269 N249 0.862 . S
O270 Co238 1.920 1_554 S
O270 C243 1.289 . S
C271 O263 1.258 . S
C271 O264 1.266 . S
Co272 O275 1.970 . S
Co272 N289 1.989 . S
Co272 O297 1.967 . S
Co272 O304 1.920 . S
Co273 O276 1.966 . S
Co273 N282 2.022 . S
Co273 N290 1.993 . S
Co273 O298 1.941 . S
C274 O275 1.258 . S
C274 O276 1.263 . S
O275 Co272 1.970 . S
O275 C274 1.258 . S
O276 Co273 1.966 . S
O276 C274 1.263 . S
C277 O278 1.235 . S
C277 O304 1.289 . S
O278 C277 1.235 . S
C279 C281 1.400 1_554 S
C279 N282 1.351 . S
C279 C284 1.501 . S
C280 C281 1.387 1_554 S
C280 N283 1.341 . S
C281 C279 1.400 1_556 S
C281 C280 1.387 1_556 S
N282 Co273 2.022 . S
N282 C279 1.351 . S
N282 N283 1.365 . S
N283 C280 1.341 . S
N283 N282 1.365 . S
N283 H303 0.862 . S
C284 C279 1.501 . S
C284 H285 0.961 . S
C284 H286 0.961 . S
C284 H287 0.960 1_554 S
H285 C284 0.961 . S
H286 C284 0.961 . S
H287 C284 0.960 1_556 S
C288 N289 1.342 . S
C288 C292 1.401 . S
C288 C293 1.499 . S
N289 Co272 1.989 . S
N289 C288 1.342 . S
N289 N290 1.388 . S
N290 Co273 1.993 . S
N290 N289 1.388 . S
N290 C291 1.346 . S
C291 N290 1.346 . S
C291 C292 1.396 . S
C291 C301 1.510 . S
C292 C288 1.401 . S
C292 C291 1.396 . S
C293 C288 1.499 . S
C293 H294 0.959 . S
C293 H295 0.960 . S
C293 H296 0.961 . S
H294 C293 0.959 . S
H295 C293 0.960 . S
H296 C293 0.961 . S
O297 Co272 1.967 . S
O297 C305 1.258 . S
O298 Co273 1.941 . S
O298 C305 1.266 . S
H299 C301 0.959 . S
H300 C301 0.961 . S
C301 C291 1.510 . S
C301 H299 0.959 . S
C301 H300 0.961 . S
C301 H302 0.960 . S
H302 C301 0.960 . S
H303 N283 0.862 . S
O304 Co272 1.920 . S
O304 C277 1.289 . S
C305 O297 1.258 . S
C305 O298 1.266 . S
Co306 O309 1.970 . S
Co306 N323 1.989 . S
Co306 O331 1.967 . S
Co306 O338 1.920 . S
Co307 O310 1.966 . S
Co307 N316 2.022 . S
Co307 N324 1.993 . S
Co307 O332 1.941 . S
C308 O309 1.258 . S
C308 O310 1.263 . S
O309 Co306 1.970 . S
O309 C308 1.258 . S
O310 Co307 1.966 . S
O310 C308 1.263 . S
C311 O312 1.235 . S
C311 O338 1.289 . S
O312 C311 1.235 . S
C313 C315 1.400 . S
C313 N316 1.351 . S
C313 C318 1.501 . S
C314 C315 1.387 . S
C314 N317 1.341 . S
C315 C313 1.400 . S
C315 C314 1.387 . S
N316 Co307 2.022 . S
N316 C313 1.351 . S
N316 N317 1.365 . S
N317 C314 1.341 . S
N317 N316 1.365 . S
N317 H337 0.862 . S
C318 C313 1.501 . S
C318 H319 0.961 . S
C318 H320 0.961 . S
C318 H321 0.960 . S
H319 C318 0.961 . S
H320 C318 0.961 . S
H321 C318 0.960 . S
C322 N323 1.342 . S
C322 C326 1.401 . S
C322 C327 1.499 . S
N323 Co306 1.989 . S
N323 C322 1.342 . S
N323 N324 1.388 . S
N324 Co307 1.993 . S
N324 N323 1.388 . S
N324 C325 1.346 . S
C325 N324 1.346 . S
C325 C326 1.396 . S
C325 C335 1.510 . S
C326 C322 1.401 . S
C326 C325 1.396 . S
C327 C322 1.499 . S
C327 H328 0.959 . S
C327 H329 0.960 . S
C327 H330 0.961 . S
H328 C327 0.959 . S
H329 C327 0.960 . S
H330 C327 0.961 . S
O331 Co306 1.967 . S
O331 C339 1.258 . S
O332 Co307 1.941 . S
O332 C339 1.266 . S
H333 C335 0.959 . S
H334 C335 0.961 . S
C335 C325 1.510 . S
C335 H333 0.959 . S
C335 H334 0.961 . S
C335 H336 0.960 . S
H336 C335 0.960 . S
H337 N317 0.862 . S
O338 Co306 1.920 . S
O338 C311 1.289 . S
C339 O331 1.258 . S
C339 O332 1.266 . S
Co340 O343 1.970 . S
Co340 N357 1.989 . S
Co340 O365 1.967 . S
Co340 O372 1.920 . S
Co341 O344 1.966 . S
Co341 N350 2.022 . S
Co341 N358 1.993 . S
Co341 O366 1.941 . S
C342 O343 1.258 . S
C342 O344 1.263 . S
O343 Co340 1.970 . S
O343 C342 1.258 . S
O344 Co341 1.966 . S
O344 C342 1.263 . S
C345 O346 1.235 . S
C345 O372 1.289 . S
O346 C345 1.235 . S
C347 C349 1.400 . S
C347 N350 1.351 . S
C347 C352 1.501 . S
C348 C349 1.387 . S
C348 N351 1.341 . S
C349 C347 1.400 . S
C349 C348 1.387 . S
N350 Co341 2.022 . S
N350 C347 1.351 . S
N350 N351 1.365 . S
N351 C348 1.341 . S
N351 N350 1.365 . S
N351 H371 0.862 . S
C352 C347 1.501 . S
C352 H353 0.961 . S
C352 H354 0.961 . S
C352 H355 0.960 . S
H353 C352 0.961 . S
H354 C352 0.961 . S
H355 C352 0.960 . S
C356 N357 1.342 . S
C356 C360 1.401 . S
C356 C361 1.499 . S
N357 Co340 1.989 . S
N357 C356 1.342 . S
N357 N358 1.388 . S
N358 Co341 1.993 . S
N358 N357 1.388 . S
N358 C359 1.346 . S
C359 N358 1.346 . S
C359 C360 1.396 . S
C359 C369 1.510 . S
C360 C356 1.401 . S
C360 C359 1.396 . S
C361 C356 1.499 . S
C361 H362 0.959 . S
C361 H363 0.960 . S
C361 H364 0.961 . S
H362 C361 0.959 . S
H363 C361 0.960 . S
H364 C361 0.961 . S
O365 Co340 1.967 . S
O365 C373 1.258 . S
O366 Co341 1.941 . S
O366 C373 1.266 . S
H367 C369 0.959 . S
H368 C369 0.961 . S
C369 C359 1.510 . S
C369 H367 0.959 . S
C369 H368 0.961 . S
C369 H370 0.960 . S
H370 C369 0.960 . S
H371 N351 0.862 . S
O372 Co340 1.920 . S
O372 C345 1.289 . S
C373 O365 1.258 . S
C373 O366 1.266 . S
Co374 O377 1.970 . S
Co374 N391 1.989 . S
Co374 O399 1.967 . S
Co374 O406 1.920 . S
Co375 O378 1.966 . S
Co375 N384 2.022 . S
Co375 N392 1.993 . S
Co375 O400 1.941 . S
C376 O377 1.258 . S
C376 O378 1.263 . S
O377 Co374 1.970 . S
O377 C376 1.258 . S
O378 Co375 1.966 . S
O378 C376 1.263 . S
C379 O380 1.235 . S
C379 O406 1.289 . S
O380 C379 1.235 . S
C381 C383 1.400 . S
C381 N384 1.351 . S
C381 C386 1.501 . S
C382 C383 1.387 . S
C382 N385 1.341 . S
C383 C381 1.400 . S
C383 C382 1.387 . S
N384 Co375 2.022 . S
N384 C381 1.351 . S
N384 N385 1.365 . S
N385 C382 1.341 . S
N385 N384 1.365 . S
N385 H405 0.862 . S
C386 C381 1.501 . S
C386 H387 0.961 . S
C386 H388 0.961 . S
C386 H389 0.960 . S
H387 C386 0.961 . S
H388 C386 0.961 . S
H389 C386 0.960 . S
C390 N391 1.342 . S
C390 C394 1.401 . S
C390 C395 1.499 . S
N391 Co374 1.989 . S
N391 C390 1.342 . S
N391 N392 1.388 . S
N392 Co375 1.993 . S
N392 N391 1.388 . S
N392 C393 1.346 . S
C393 N392 1.346 . S
C393 C394 1.396 . S
C393 C403 1.510 . S
C394 C390 1.401 . S
C394 C393 1.396 . S
C395 C390 1.499 . S
C395 H396 0.959 . S
C395 H397 0.960 . S
C395 H398 0.961 . S
H396 C395 0.959 . S
H397 C395 0.960 . S
H398 C395 0.961 . S
O399 Co374 1.967 . S
O399 C407 1.258 . S
O400 Co375 1.941 . S
O400 C407 1.266 . S
H401 C403 0.959 . S
H402 C403 0.961 . S
C403 C393 1.510 . S
C403 H401 0.959 . S
C403 H402 0.961 . S
C403 H404 0.960 . S
H404 C403 0.960 . S
H405 N385 0.862 . S
O406 Co374 1.920 . S
O406 C379 1.289 . S
C407 O399 1.258 . S
C407 O400 1.266 . S
H408 C414 0.930 . S
H409 C417 0.930 . S
H410 C418 0.930 . S
H411 C419 0.930 . S
H412 C422 0.930 . S
H413 C423 0.930 . S
C414 H408 0.930 . S
C414 C415 1.355 . S
C414 C416 1.415 . S
C415 C414 1.355 . S
C415 C417 1.419 . S
C416 C414 1.415 . S
C416 C421 1.425 . S
C416 C423 1.409 . S
C417 H409 0.930 . S
C417 C415 1.419 . S
C417 C418 1.362 . S
C418 H410 0.930 . S
C418 C417 1.362 . S
C418 C421 1.409 . S
C419 H411 0.930 . S
C419 C420 1.355 . S
C419 C421 1.415 . S
C420 C419 1.355 . S
C420 C422 1.419 . S
C421 C416 1.425 . S
C421 C418 1.409 . S
C421 C419 1.415 . S
C422 H412 0.930 . S
C422 C420 1.419 . S
C422 C423 1.362 . S
C423 H413 0.930 . S
C423 C416 1.409 . S
C423 C422 1.362 . S
H424 C430 0.930 . S
H425 C433 0.930 . S
H426 C434 0.930 . S
H427 C435 0.930 . S
H428 C438 0.930 . S
H429 C439 0.930 . S
C430 H424 0.930 . S
C430 C431 1.355 . S
C430 C432 1.415 . S
C431 C430 1.355 . S
C431 C433 1.419 . S
C432 C430 1.415 . S
C432 C437 1.425 . S
C432 C439 1.409 . S
C433 H425 0.930 . S
C433 C431 1.419 . S
C433 C434 1.362 . S
C434 H426 0.930 . S
C434 C433 1.362 . S
C434 C437 1.409 . S
C435 H427 0.930 . S
C435 C436 1.355 . S
C435 C437 1.415 . S
C436 C435 1.355 . S
C436 C438 1.419 . S
C437 C432 1.425 . S
C437 C434 1.409 . S
C437 C435 1.415 . S
C438 H428 0.930 . S
C438 C436 1.419 . S
C438 C439 1.362 . S
C439 H429 0.930 . S
C439 C432 1.409 . S
C439 C438 1.362 . S
H440 C446 0.930 . S
H441 C449 0.930 . S
H442 C450 0.930 . S
H443 C451 0.930 . S
H444 C454 0.930 . S
H445 C455 0.930 . S
C446 H440 0.930 . S
C446 C447 1.355 . S
C446 C448 1.415 . S
C447 C446 1.355 . S
C447 C449 1.419 . S
C448 C446 1.415 . S
C448 C453 1.425 . S
C448 C455 1.409 . S
C449 H441 0.930 . S
C449 C447 1.419 . S
C449 C450 1.362 . S
C450 H442 0.930 . S
C450 C449 1.362 . S
C450 C453 1.409 . S
C451 H443 0.930 . S
C451 C452 1.355 . S
C451 C453 1.415 . S
C452 C451 1.355 . S
C452 C454 1.419 . S
C453 C448 1.425 . S
C453 C450 1.409 . S
C453 C451 1.415 . S
C454 H444 0.930 . S
C454 C452 1.419 . S
C454 C455 1.362 . S
C455 H445 0.930 . S
C455 C448 1.409 . S
C455 C454 1.362 . S
H456 C462 0.930 . S
H457 C465 0.930 . S
H458 C466 0.930 . S
H459 C467 0.930 . S
H460 C470 0.930 . S
H461 C471 0.930 . S
C462 H456 0.930 . S
C462 C463 1.355 . S
C462 C464 1.415 . S
C463 C462 1.355 . S
C463 C465 1.419 . S
C464 C462 1.415 . S
C464 C469 1.425 . S
C464 C471 1.409 . S
C465 H457 0.930 . S
C465 C463 1.419 . S
C465 C466 1.362 . S
C466 H458 0.930 . S
C466 C465 1.362 . S
C466 C469 1.409 . S
C467 H459 0.930 . S
C467 C468 1.355 . S
C467 C469 1.415 . S
C468 C467 1.355 . S
C468 C470 1.419 . S
C469 C464 1.425 . S
C469 C466 1.409 . S
C469 C467 1.415 . S
C470 H460 0.930 . S
C470 C468 1.419 . S
C470 C471 1.362 . S
C471 H461 0.930 . S
C471 C464 1.409 . S
C471 C470 1.362 . S
H472 C478 0.930 . S
H473 C481 0.930 . S
H474 C482 0.930 . S
H475 C483 0.930 . S
H476 C486 0.930 . S
H477 C487 0.930 . S
C478 H472 0.930 . S
C478 C479 1.355 . S
C478 C480 1.415 . S
C479 C478 1.355 . S
C479 C481 1.419 . S
C480 C478 1.415 . S
C480 C485 1.425 . S
C480 C487 1.409 . S
C481 H473 0.930 . S
C481 C479 1.419 . S
C481 C482 1.362 . S
C482 H474 0.930 . S
C482 C481 1.362 . S
C482 C485 1.409 . S
C483 H475 0.930 . S
C483 C484 1.355 . S
C483 C485 1.415 . S
C484 C483 1.355 . S
C484 C486 1.419 . S
C485 C480 1.425 . S
C485 C482 1.409 . S
C485 C483 1.415 . S
C486 H476 0.930 . S
C486 C484 1.419 . S
C486 C487 1.362 . S
C487 H477 0.930 . S
C487 C480 1.409 . S
C487 C486 1.362 . S
H488 C494 0.930 . S
H489 C497 0.930 . S
H490 C498 0.930 . S
H491 C499 0.930 . S
H492 C502 0.930 . S
H493 C503 0.930 . S
C494 H488 0.930 . S
C494 C495 1.355 . S
C494 C496 1.415 . S
C495 C494 1.355 . S
C495 C497 1.419 . S
C496 C494 1.415 . S
C496 C501 1.425 . S
C496 C503 1.409 . S
C497 H489 0.930 . S
C497 C495 1.419 . S
C497 C498 1.362 . S
C498 H490 0.930 . S
C498 C497 1.362 . S
C498 C501 1.409 . S
C499 H491 0.930 . S
C499 C500 1.355 . S
C499 C501 1.415 . S
C500 C499 1.355 . S
C500 C502 1.419 . S
C501 C496 1.425 . S
C501 C498 1.409 . S
C501 C499 1.415 . S
C502 H492 0.930 . S
C502 C500 1.419 . S
C502 C503 1.362 . S
C503 H493 0.930 . S
C503 C496 1.409 . S
C503 C502 1.362 . S
H504 C510 0.930 . S
H505 C513 0.930 . S
H506 C514 0.930 . S
H507 C515 0.930 . S
H508 C518 0.930 . S
H509 C519 0.930 . S
C510 H504 0.930 . S
C510 C511 1.355 . S
C510 C512 1.415 . S
C511 C510 1.355 . S
C511 C513 1.419 . S
C512 C510 1.415 . S
C512 C517 1.425 . S
C512 C519 1.409 . S
C513 H505 0.930 . S
C513 C511 1.419 . S
C513 C514 1.362 . S
C514 H506 0.930 . S
C514 C513 1.362 . S
C514 C517 1.409 . S
C515 H507 0.930 . S
C515 C516 1.355 . S
C515 C517 1.415 . S
C516 C515 1.355 . S
C516 C518 1.419 . S
C517 C512 1.425 . S
C517 C514 1.409 . S
C517 C515 1.415 . S
C518 H508 0.930 . S
C518 C516 1.419 . S
C518 C519 1.362 . S
C519 H509 0.930 . S
C519 C512 1.409 . S
C519 C518 1.362 . S
H520 C526 0.930 . S
H521 C529 0.930 . S
H522 C530 0.930 . S
H523 C531 0.930 . S
H524 C534 0.930 . S
H525 C535 0.930 . S
C526 H520 0.930 . S
C526 C527 1.355 . S
C526 C528 1.415 . S
C527 C526 1.355 . S
C527 C529 1.419 . S
C528 C526 1.415 . S
C528 C533 1.425 . S
C528 C535 1.409 . S
C529 H521 0.930 . S
C529 C527 1.419 . S
C529 C530 1.362 . S
C530 H522 0.930 . S
C530 C529 1.362 . S
C530 C533 1.409 . S
C531 H523 0.930 . S
C531 C532 1.355 . S
C531 C533 1.415 . S
C532 C531 1.355 . S
C532 C534 1.419 . S
C533 C528 1.425 . S
C533 C530 1.409 . S
C533 C531 1.415 . S
C534 H524 0.930 . S
C534 C532 1.419 . S
C534 C535 1.362 . S
C535 H525 0.930 . S
C535 C528 1.409 . S
C535 C534 1.362 . S
H536 C542 0.930 . S
H537 C545 0.930 . S
H538 C546 0.930 . S
H539 C547 0.930 . S
H540 C550 0.930 . S
H541 C551 0.930 . S
C542 H536 0.930 . S
C542 C543 1.355 . S
C542 C544 1.415 . S
C543 C542 1.355 . S
C543 C545 1.419 . S
C544 C542 1.415 . S
C544 C549 1.425 . S
C544 C551 1.409 . S
C545 H537 0.930 . S
C545 C543 1.419 . S
C545 C546 1.362 . S
C546 H538 0.930 . S
C546 C545 1.362 . S
C546 C549 1.409 . S
C547 H539 0.930 . S
C547 C548 1.355 . S
C547 C549 1.415 . S
C548 C547 1.355 . S
C548 C550 1.419 . S
C549 C544 1.425 . S
C549 C546 1.409 . S
C549 C547 1.415 . S
C550 H540 0.930 . S
C550 C548 1.419 . S
C550 C551 1.362 . S
C551 H541 0.930 . S
C551 C544 1.409 . S
C551 C550 1.362 . S
H552 C558 0.930 . S
H553 C561 0.930 . S
H554 C562 0.930 . S
H555 C563 0.930 . S
H556 C566 0.930 . S
H557 C567 0.930 . S
C558 H552 0.930 . S
C558 C559 1.355 . S
C558 C560 1.415 . S
C559 C558 1.355 . S
C559 C561 1.419 . S
C560 C558 1.415 . S
C560 C565 1.425 . S
C560 C567 1.409 . S
C561 H553 0.930 . S
C561 C559 1.419 . S
C561 C562 1.362 . S
C562 H554 0.930 . S
C562 C561 1.362 . S
C562 C565 1.409 . S
C563 H555 0.930 . S
C563 C564 1.355 . S
C563 C565 1.415 . S
C564 C563 1.355 . S
C564 C566 1.419 . S
C565 C560 1.425 . S
C565 C562 1.409 . S
C565 C563 1.415 . S
C566 H556 0.930 . S
C566 C564 1.419 . S
C566 C567 1.362 . S
C567 H557 0.930 . S
C567 C560 1.409 . S
C567 C566 1.362 . S
H568 C574 0.930 . S
H569 C577 0.930 . S
H570 C578 0.930 . S
H571 C579 0.930 . S
H572 C582 0.930 . S
H573 C583 0.930 . S
C574 H568 0.930 . S
C574 C575 1.355 . S
C574 C576 1.415 . S
C575 C574 1.355 . S
C575 C577 1.419 . S
C576 C574 1.415 . S
C576 C581 1.425 . S
C576 C583 1.409 . S
C577 H569 0.930 . S
C577 C575 1.419 . S
C577 C578 1.362 . S
C578 H570 0.930 . S
C578 C577 1.362 . S
C578 C581 1.409 . S
C579 H571 0.930 . S
C579 C580 1.355 . S
C579 C581 1.415 . S
C580 C579 1.355 . S
C580 C582 1.419 . S
C581 C576 1.425 . S
C581 C578 1.409 . S
C581 C579 1.415 . S
C582 H572 0.930 . S
C582 C580 1.419 . S
C582 C583 1.362 . S
C583 H573 0.930 . S
C583 C576 1.409 . S
C583 C582 1.362 . S
H584 C590 0.930 . S
H585 C593 0.930 . S
H586 C594 0.930 . S
H587 C595 0.930 . S
H588 C598 0.930 . S
H589 C599 0.930 . S
C590 H584 0.930 . S
C590 C591 1.355 . S
C590 C592 1.415 . S
C591 C590 1.355 . S
C591 C593 1.419 . S
C592 C590 1.415 . S
C592 C597 1.425 . S
C592 C599 1.409 . S
C593 H585 0.930 . S
C593 C591 1.419 . S
C593 C594 1.362 . S
C594 H586 0.930 . S
C594 C593 1.362 . S
C594 C597 1.409 . S
C595 H587 0.930 . S
C595 C596 1.355 . S
C595 C597 1.415 . S
C596 C595 1.355 . S
C596 C598 1.419 . S
C597 C592 1.425 . S
C597 C594 1.409 . S
C597 C595 1.415 . S
C598 H588 0.930 . S
C598 C596 1.419 . S
C598 C599 1.362 . S
C599 H589 0.930 . S
C599 C592 1.409 . S
C599 C598 1.362 . S
H600 C606 0.930 . S
H601 C609 0.930 . S
H602 C610 0.930 . S
H603 C611 0.930 . S
H604 C614 0.930 . S
H605 C615 0.930 . S
C606 H600 0.930 . S
C606 C607 1.355 1_455 S
C606 C608 1.415 . S
C607 C606 1.355 1_655 S
C607 C609 1.419 . S
C608 C606 1.415 . S
C608 C613 1.425 1_455 S
C608 C615 1.409 . S
C609 H601 0.930 . S
C609 C607 1.419 . S
C609 C610 1.362 . S
C610 H602 0.930 . S
C610 C609 1.362 . S
C610 C613 1.409 . S
C611 H603 0.930 . S
C611 C612 1.355 1_655 S
C611 C613 1.415 . S
C612 C611 1.355 1_455 S
C612 C614 1.419 . S
C613 C608 1.425 1_655 S
C613 C610 1.409 . S
C613 C611 1.415 . S
C614 H604 0.930 . S
C614 C612 1.419 . S
C614 C615 1.362 . S
C615 H605 0.930 . S
C615 C608 1.409 . S
C615 C614 1.362 . S
H616 C622 0.930 . S
H617 C625 0.930 . S
H618 C626 0.930 . S
H619 C627 0.930 . S
H620 C630 0.930 . S
H621 C631 0.930 . S
C622 H616 0.930 . S
C622 C623 1.355 . S
C622 C624 1.415 . S
C623 C622 1.355 . S
C623 C625 1.419 1_565 S
C624 C622 1.415 . S
C624 C629 1.425 1_566 S
C624 C631 1.409 1_556 S
C625 H617 0.930 . S
C625 C623 1.419 1_545 S
C625 C626 1.362 . S
C626 H618 0.930 . S
C626 C625 1.362 . S
C626 C629 1.409 1_556 S
C627 H619 0.930 . S
C627 C628 1.355 . S
C627 C629 1.415 . S
C628 C627 1.355 . S
C628 C630 1.419 1_545 S
C629 C624 1.425 1_544 S
C629 C626 1.409 1_554 S
C629 C627 1.415 . S
C630 H620 0.930 . S
C630 C628 1.419 1_565 S
C630 C631 1.362 . S
C631 H621 0.930 . S
C631 C624 1.409 1_554 S
C631 C630 1.362 . S
H632 C638 0.930 . S
H633 C641 0.930 . S
H634 C642 0.930 . S
H635 C643 0.930 . S
H636 C646 0.930 . S
H637 C647 0.930 . S
C638 H632 0.930 . S
C638 C639 1.355 . S
C638 C640 1.415 . S
C639 C638 1.355 . S
C639 C641 1.419 . S
C640 C638 1.415 . S
C640 C645 1.425 . S
C640 C647 1.409 . S
C641 H633 0.930 . S
C641 C639 1.419 . S
C641 C642 1.362 . S
C642 H634 0.930 . S
C642 C641 1.362 . S
C642 C645 1.409 . S
C643 H635 0.930 . S
C643 C644 1.355 . S
C643 C645 1.415 . S
C644 C643 1.355 . S
C644 C646 1.419 . S
C645 C640 1.425 . S
C645 C642 1.409 . S
C645 C643 1.415 . S
C646 H636 0.930 . S
C646 C644 1.419 . S
C646 C647 1.362 . S
C647 H637 0.930 . S
C647 C640 1.409 . S
C647 C646 1.362 . S
H648 C654 0.930 . S
H649 C657 0.930 . S
H650 C658 0.930 . S
H651 C659 0.930 . S
H652 C662 0.930 . S
H653 C663 0.930 . S
C654 H648 0.930 . S
C654 C655 1.355 1_455 S
C654 C656 1.415 . S
C655 C654 1.355 1_655 S
C655 C657 1.419 . S
C656 C654 1.415 . S
C656 C661 1.425 1_455 S
C656 C663 1.409 . S
C657 H649 0.930 . S
C657 C655 1.419 . S
C657 C658 1.362 . S
C658 H650 0.930 . S
C658 C657 1.362 . S
C658 C661 1.409 . S
C659 H651 0.930 . S
C659 C660 1.355 1_655 S
C659 C661 1.415 . S
C660 C659 1.355 1_455 S
C660 C662 1.419 . S
C661 C656 1.425 1_655 S
C661 C658 1.409 . S
C661 C659 1.415 . S
C662 H652 0.930 . S
C662 C660 1.419 . S
C662 C663 1.362 . S
C663 H653 0.930 . S
C663 C656 1.409 . S
C663 C662 1.362 . S
H664 C670 0.930 . S
H665 C673 0.930 . S
H666 C674 0.930 . S
H667 C675 0.930 . S
H668 C678 0.930 . S
H669 C679 0.930 . S
C670 H664 0.930 . S
C670 C671 1.355 1_545 S
C670 C672 1.415 . S
C671 C670 1.355 1_565 S
C671 C673 1.419 . S
C672 C670 1.415 . S
C672 C677 1.425 1_545 S
C672 C679 1.409 . S
C673 H665 0.930 . S
C673 C671 1.419 . S
C673 C674 1.362 . S
C674 H666 0.930 . S
C674 C673 1.362 . S
C674 C677 1.409 . S
C675 H667 0.930 . S
C675 C676 1.355 1_565 S
C675 C677 1.415 . S
C676 C675 1.355 1_545 S
C676 C678 1.419 . S
C677 C672 1.425 1_565 S
C677 C674 1.409 . S
C677 C675 1.415 . S
C678 H668 0.930 . S
C678 C676 1.419 . S
C678 C679 1.362 . S
C679 H669 0.930 . S
C679 C672 1.409 . S
C679 C678 1.362 . S
H680 C686 0.930 . S
H681 C689 0.930 . S
H682 C690 0.930 . S
H683 C691 0.930 . S
H684 C694 0.930 . S
H685 C695 0.930 . S
C686 H680 0.930 . S
C686 C687 1.355 . S
C686 C688 1.415 . S
C687 C686 1.355 . S
C687 C689 1.419 . S
C688 C686 1.415 . S
C688 C693 1.425 . S
C688 C695 1.409 . S
C689 H681 0.930 . S
C689 C687 1.419 . S
C689 C690 1.362 . S
C690 H682 0.930 . S
C690 C689 1.362 . S
C690 C693 1.409 . S
C691 H683 0.930 . S
C691 C692 1.355 . S
C691 C693 1.415 . S
C692 C691 1.355 . S
C692 C694 1.419 . S
C693 C688 1.425 . S
C693 C690 1.409 . S
C693 C691 1.415 . S
C694 H684 0.930 . S
C694 C692 1.419 . S
C694 C695 1.362 . S
C695 H685 0.930 . S
C695 C688 1.409 . S
C695 C694 1.362 . S
H696 C702 0.930 . S
H697 C705 0.930 . S
H698 C706 0.930 . S
H699 C707 0.930 . S
H700 C710 0.930 1_554 S
H701 C711 0.930 . S
C702 H696 0.930 . S
C702 C703 1.355 . S
C702 C704 1.415 . S
C703 C702 1.355 . S
C703 C705 1.419 . S
C704 C702 1.415 . S
C704 C709 1.425 . S
C704 C711 1.409 . S
C705 H697 0.930 . S
C705 C703 1.419 . S
C705 C706 1.362 . S
C706 H698 0.930 . S
C706 C705 1.362 . S
C706 C709 1.409 . S
C707 H699 0.930 . S
C707 C708 1.355 . S
C707 C709 1.415 . S
C708 C707 1.355 . S
C708 C710 1.419 . S
C709 C704 1.425 . S
C709 C706 1.409 . S
C709 C707 1.415 . S
C710 H700 0.930 1_556 S
C710 C708 1.419 . S
C710 C711 1.362 . S
C711 H701 0.930 . S
C711 C704 1.409 . S
C711 C710 1.362 . S
H712 C718 0.930 . S
H713 C721 0.930 . S
H714 C722 0.930 . S
H715 C723 0.930 . S
H716 C726 0.930 . S
H717 C727 0.930 . S
C718 H712 0.930 . S
C718 C719 1.355 . S
C718 C720 1.415 . S
C719 C718 1.355 . S
C719 C721 1.419 . S
C720 C718 1.415 . S
C720 C725 1.425 . S
C720 C727 1.409 . S
C721 H713 0.930 . S
C721 C719 1.419 . S
C721 C722 1.362 . S
C722 H714 0.930 . S
C722 C721 1.362 . S
C722 C725 1.409 . S
C723 H715 0.930 . S
C723 C724 1.355 . S
C723 C725 1.415 . S
C724 C723 1.355 . S
C724 C726 1.419 . S
C725 C720 1.425 . S
C725 C722 1.409 . S
C725 C723 1.415 . S
C726 H716 0.930 . S
C726 C724 1.419 . S
C726 C727 1.362 . S
C727 H717 0.930 . S
C727 C720 1.409 . S
C727 C726 1.362 . S
H728 C734 0.930 . S
H729 C737 0.930 . S
H730 C738 0.930 . S
H731 C739 0.930 . S
H732 C742 0.930 . S
H733 C743 0.930 . S
C734 H728 0.930 . S
C734 C735 1.355 . S
C734 C736 1.415 . S
C735 C734 1.355 . S
C735 C737 1.419 . S
C736 C734 1.415 . S
C736 C741 1.425 . S
C736 C743 1.409 . S
C737 H729 0.930 . S
C737 C735 1.419 . S
C737 C738 1.362 . S
C738 H730 0.930 . S
C738 C737 1.362 . S
C738 C741 1.409 . S
C739 H731 0.930 . S
C739 C740 1.355 . S
C739 C741 1.415 . S
C740 C739 1.355 . S
C740 C742 1.419 . S
C741 C736 1.425 . S
C741 C738 1.409 . S
C741 C739 1.415 . S
C742 H732 0.930 . S
C742 C740 1.419 . S
C742 C743 1.362 . S
C743 H733 0.930 . S
C743 C736 1.409 . S
C743 C742 1.362 . S
H744 C750 0.930 . S
H745 C753 0.930 . S
H746 C754 0.930 . S
H747 C755 0.930 . S
H748 C758 0.930 . S
H749 C759 0.930 . S
C750 H744 0.930 . S
C750 C751 1.355 . S
C750 C752 1.415 . S
C751 C750 1.355 . S
C751 C753 1.419 . S
C752 C750 1.415 . S
C752 C757 1.425 . S
C752 C759 1.409 . S
C753 H745 0.930 . S
C753 C751 1.419 . S
C753 C754 1.362 . S
C754 H746 0.930 . S
C754 C753 1.362 . S
C754 C757 1.409 . S
C755 H747 0.930 . S
C755 C756 1.355 . S
C755 C757 1.415 . S
C756 C755 1.355 . S
C756 C758 1.419 . S
C757 C752 1.425 . S
C757 C754 1.409 . S
C757 C755 1.415 . S
C758 H748 0.930 . S
C758 C756 1.419 . S
C758 C759 1.362 . S
C759 H749 0.930 . S
C759 C752 1.409 . S
C759 C758 1.362 . S
H760 C766 0.930 . S
H761 C769 0.930 . S
H762 C770 0.930 . S
H763 C771 0.930 . S
H764 C774 0.930 . S
H765 C775 0.930 . S
C766 H760 0.930 . S
C766 C767 1.355 . S
C766 C768 1.415 . S
C767 C766 1.355 . S
C767 C769 1.419 . S
C768 C766 1.415 . S
C768 C773 1.425 . S
C768 C775 1.409 . S
C769 H761 0.930 . S
C769 C767 1.419 . S
C769 C770 1.362 . S
C770 H762 0.930 . S
C770 C769 1.362 . S
C770 C773 1.409 . S
C771 H763 0.930 . S
C771 C772 1.355 . S
C771 C773 1.415 . S
C772 C771 1.355 . S
C772 C774 1.419 . S
C773 C768 1.425 . S
C773 C770 1.409 . S
C773 C771 1.415 . S
C774 H764 0.930 . S
C774 C772 1.419 . S
C774 C775 1.362 . S
C775 H765 0.930 . S
C775 C768 1.409 . S
C775 C774 1.362 . S
H776 C782 0.930 . S
H777 C785 0.930 . S
H778 C786 0.930 . S
H779 C787 0.930 . S
H780 C790 0.930 . S
H781 C791 0.930 . S
C782 H776 0.930 . S
C782 C783 1.355 . S
C782 C784 1.415 . S
C783 C782 1.355 . S
C783 C785 1.419 . S
C784 C782 1.415 . S
C784 C789 1.425 . S
C784 C791 1.409 . S
C785 H777 0.930 . S
C785 C783 1.419 . S
C785 C786 1.362 . S
C786 H778 0.930 . S
C786 C785 1.362 . S
C786 C789 1.409 . S
C787 H779 0.930 . S
C787 C788 1.355 . S
C787 C789 1.415 . S
C788 C787 1.355 . S
C788 C790 1.419 . S
C789 C784 1.425 . S
C789 C786 1.409 . S
C789 C787 1.415 . S
C790 H780 0.930 . S
C790 C788 1.419 . S
C790 C791 1.362 . S
C791 H781 0.930 . S
C791 C784 1.409 . S
C791 C790 1.362 . S
H792 C798 0.930 . S
H793 C801 0.930 . S
H794 C802 0.930 . S
H795 C803 0.930 . S
H796 C806 0.930 . S
H797 C807 0.930 . S
C798 H792 0.930 . S
C798 C799 1.355 . S
C798 C800 1.415 . S
C799 C798 1.355 . S
C799 C801 1.419 . S
C800 C798 1.415 . S
C800 C805 1.425 . S
C800 C807 1.409 . S
C801 H793 0.930 . S
C801 C799 1.419 . S
C801 C802 1.362 . S
C802 H794 0.930 . S
C802 C801 1.362 . S
C802 C805 1.409 . S
C803 H795 0.930 . S
C803 C804 1.355 . S
C803 C805 1.415 . S
C804 C803 1.355 . S
C804 C806 1.419 . S
C805 C800 1.425 . S
C805 C802 1.409 . S
C805 C803 1.415 . S
C806 H796 0.930 . S
C806 C804 1.419 . S
C806 C807 1.362 . S
C807 H797 0.930 . S
C807 C800 1.409 . S
C807 C806 1.362 . S
H808 C814 0.930 . S
H809 C817 0.930 . S
H810 C818 0.930 . S
H811 C819 0.930 . S
H812 C822 0.930 . S
H813 C823 0.930 . S
C814 H808 0.930 . S
C814 C815 1.355 . S
C814 C816 1.415 . S
C815 C814 1.355 . S
C815 C817 1.419 . S
C816 C814 1.415 . S
C816 C821 1.425 . S
C816 C823 1.409 . S
C817 H809 0.930 . S
C817 C815 1.419 . S
C817 C818 1.362 . S
C818 H810 0.930 . S
C818 C817 1.362 . S
C818 C821 1.409 . S
C819 H811 0.930 . S
C819 C820 1.355 . S
C819 C821 1.415 . S
C820 C819 1.355 . S
C820 C822 1.419 . S
C821 C816 1.425 . S
C821 C818 1.409 . S
C821 C819 1.415 . S
C822 H812 0.930 . S
C822 C820 1.419 . S
C822 C823 1.362 . S
C823 H813 0.930 . S
C823 C816 1.409 . S
C823 C822 1.362 . S
H824 C830 0.930 . S
H825 C833 0.930 . S
H826 C834 0.930 . S
H827 C835 0.930 . S
H828 C838 0.930 . S
H829 C839 0.930 . S
C830 H824 0.930 . S
C830 C831 1.355 . S
C830 C832 1.415 . S
C831 C830 1.355 . S
C831 C833 1.419 . S
C832 C830 1.415 . S
C832 C837 1.425 . S
C832 C839 1.409 . S
C833 H825 0.930 . S
C833 C831 1.419 . S
C833 C834 1.362 . S
C834 H826 0.930 . S
C834 C833 1.362 . S
C834 C837 1.409 . S
C835 H827 0.930 . S
C835 C836 1.355 . S
C835 C837 1.415 . S
C836 C835 1.355 . S
C836 C838 1.419 . S
C837 C832 1.425 . S
C837 C834 1.409 . S
C837 C835 1.415 . S
C838 H828 0.930 . S
C838 C836 1.419 . S
C838 C839 1.362 . S
C839 H829 0.930 . S
C839 C832 1.409 . S
C839 C838 1.362 . S
H840 C846 0.930 . S
H841 C849 0.930 . S
H842 C850 0.930 . S
H843 C851 0.930 . S
H844 C854 0.930 . S
H845 C855 0.930 . S
C846 H840 0.930 . S
C846 C847 1.355 . S
C846 C848 1.415 . S
C847 C846 1.355 . S
C847 C849 1.419 . S
C848 C846 1.415 . S
C848 C853 1.425 . S
C848 C855 1.409 . S
C849 H841 0.930 . S
C849 C847 1.419 . S
C849 C850 1.362 . S
C850 H842 0.930 . S
C850 C849 1.362 . S
C850 C853 1.409 . S
C851 H843 0.930 . S
C851 C852 1.355 . S
C851 C853 1.415 . S
C852 C851 1.355 . S
C852 C854 1.419 . S
C853 C848 1.425 . S
C853 C850 1.409 . S
C853 C851 1.415 . S
C854 H844 0.930 . S
C854 C852 1.419 . S
C854 C855 1.362 . S
C855 H845 0.930 . S
C855 C848 1.409 . S
C855 C854 1.362 . S
H856 C862 0.930 . S
H857 C865 0.930 . S
H858 C866 0.930 . S
H859 C867 0.930 . S
H860 C870 0.930 . S
H861 C871 0.930 . S
C862 H856 0.930 . S
C862 C863 1.355 . S
C862 C864 1.415 . S
C863 C862 1.355 . S
C863 C865 1.419 . S
C864 C862 1.415 . S
C864 C869 1.425 . S
C864 C871 1.409 . S
C865 H857 0.930 . S
C865 C863 1.419 . S
C865 C866 1.362 . S
C866 H858 0.930 . S
C866 C865 1.362 . S
C866 C869 1.409 . S
C867 H859 0.930 . S
C867 C868 1.355 . S
C867 C869 1.415 . S
C868 C867 1.355 . S
C868 C870 1.419 . S
C869 C864 1.425 . S
C869 C866 1.409 . S
C869 C867 1.415 . S
C870 H860 0.930 . S
C870 C868 1.419 . S
C870 C871 1.362 . S
C871 H861 0.930 . S
C871 C864 1.409 . S
C871 C870 1.362 . S
H872 C878 0.930 . S
H873 C881 0.930 . S
H874 C882 0.930 . S
H875 C883 0.930 . S
H876 C886 0.930 . S
H877 C887 0.930 . S
C878 H872 0.930 . S
C878 C879 1.355 . S
C878 C880 1.415 . S
C879 C878 1.355 . S
C879 C881 1.419 . S
C880 C878 1.415 . S
C880 C885 1.425 . S
C880 C887 1.409 . S
C881 H873 0.930 . S
C881 C879 1.419 . S
C881 C882 1.362 . S
C882 H874 0.930 . S
C882 C881 1.362 . S
C882 C885 1.409 . S
C883 H875 0.930 . S
C883 C884 1.355 . S
C883 C885 1.415 . S
C884 C883 1.355 . S
C884 C886 1.419 . S
C885 C880 1.425 . S
C885 C882 1.409 . S
C885 C883 1.415 . S
C886 H876 0.930 . S
C886 C884 1.419 . S
C886 C887 1.362 . S
C887 H877 0.930 . S
C887 C880 1.409 . S
C887 C886 1.362 . S
C415 C349 0.870 . S
C420 C9 0.968 . S
C431 C43 0.857 . S
C436 C383 0.979 . S
C447 C77 0.978 . S
C452 C213 0.858 . S
C463 C111 0.856 . S
C468 C247 0.980 . S
C479 C145 0.879 . S
C484 C281 0.960 . S
C495 C179 0.864 . S
C500 C315 0.974 . S
C511 C33 1.334 . S
C516 C305 1.335 . S
C527 C339 1.378 . S
C532 C67 1.376 . S
C543 C101 1.329 . S
C548 C373 1.330 . S
C559 C135 1.377 . S
C564 C407 1.379 . S
C575 C169 1.335 . S
C580 C237 1.333 . S
C591 C203 1.349 . S
C596 C271 1.347 . S
C607 C379 1.536 . S
C612 C5 1.565 . S
C623 C209 1.577 . S
C628 C39 1.567 . S
C639 C243 1.578 . S
C644 C73 1.566 . S
C655 C107 1.538 . S
C660 C277 1.556 . S
C671 C141 1.538 . S
C676 C311 1.576 . S
C687 C345 1.542 . S
C692 C175 1.550 . S
C703 C172 2.070 . S
C708 C20 2.041 1_556 S
C719 C2 2.068 1_655 S
C724 C54 2.059 . S
C735 C88 2.052 . S
C740 C36 2.071 1_565 S
C751 C70 2.072 . S
C756 C122 2.049 . S
C767 C156 2.037 . S
C772 C104 2.073 1_455 S
C783 C190 2.061 . S
C788 C138 2.064 1_545 S
C799 C240 2.072 . S
C804 C224 2.038 . S
C815 C258 2.063 1_554 S
C820 C274 2.063 1_655 S
C831 C292 2.058 . S
C836 C308 2.064 1_565 S
C847 C342 2.068 . S
C852 C326 2.046 . S
C863 C376 2.071 1_455 S
C868 C360 2.051 . S
C879 C394 2.061 . S
C884 C206 2.067 1_545 S
