# Generated by pormake.
# Topology why, (6)-cn, num edge types: 1
# Building blocks:
#     Node 0, Type 0, BuildingBlock: MIFKUJ_clean_sbu_0, # of connection points: 6
#     Node 1, Type 0, BuildingBlock: MIFKUJ_clean_sbu_0, # of connection points: 6
#     Node 2, Type 0, BuildingBlock: MIFKUJ_clean_sbu_0, # of connection points: 6
#     Node 3, Type 0, BuildingBlock: MIFKUJ_clean_sbu_0, # of connection points: 6
#     Node 4, Type 0, BuildingBlock: MIFKUJ_clean_sbu_0, # of connection points: 6
#     Node 5, Type 0, BuildingBlock: MIFKUJ_clean_sbu_0, # of connection points: 6
#     Node 6, Type 0, BuildingBlock: MIFKUJ_clean_sbu_0, # of connection points: 6
#     Node 7, Type 0, BuildingBlock: MIFKUJ_clean_sbu_0, # of connection points: 6
#     Node 8, Type 0, BuildingBlock: MIFKUJ_clean_sbu_0, # of connection points: 6
#     Node 9, Type 0, BuildingBlock: MIFKUJ_clean_sbu_0, # of connection points: 6
#     Node 10, Type 0, BuildingBlock: MIFKUJ_clean_sbu_0, # of connection points: 6
#     Node 11, Type 0, BuildingBlock: MIFKUJ_clean_sbu_0, # of connection points: 6
#     Node 12, Type 0, BuildingBlock: MIFKUJ_clean_sbu_0, # of connection points: 6
#     Node 13, Type 0, BuildingBlock: MIFKUJ_clean_sbu_0, # of connection points: 6
#     Node 14, Type 0, BuildingBlock: MIFKUJ_clean_sbu_0, # of connection points: 6
#     Node 15, Type 0, BuildingBlock: MIFKUJ_clean_sbu_0, # of connection points: 6
#     Edge 16, Type (0, 0), BuildingBlock: UVAHIK_clean_linker_0, # of connection points: 2
#     Edge 17, Type (0, 0), BuildingBlock: UVAHIK_clean_linker_0, # of connection points: 2
#     Edge 18, Type (0, 0), BuildingBlock: UVAHIK_clean_linker_0, # of connection points: 2
#     Edge 19, Type (0, 0), BuildingBlock: UVAHIK_clean_linker_0, # of connection points: 2
#     Edge 20, Type (0, 0), BuildingBlock: UVAHIK_clean_linker_0, # of connection points: 2
#     Edge 21, Type (0, 0), BuildingBlock: UVAHIK_clean_linker_0, # of connection points: 2
#     Edge 22, Type (0, 0), BuildingBlock: UVAHIK_clean_linker_0, # of connection points: 2
#     Edge 23, Type (0, 0), BuildingBlock: UVAHIK_clean_linker_0, # of connection points: 2
#     Edge 24, Type (0, 0), BuildingBlock: UVAHIK_clean_linker_0, # of connection points: 2
#     Edge 25, Type (0, 0), BuildingBlock: UVAHIK_clean_linker_0, # of connection points: 2
#     Edge 26, Type (0, 0), BuildingBlock: UVAHIK_clean_linker_0, # of connection points: 2
#     Edge 27, Type (0, 0), BuildingBlock: UVAHIK_clean_linker_0, # of connection points: 2
#     Edge 28, Type (0, 0), BuildingBlock: UVAHIK_clean_linker_0, # of connection points: 2
#     Edge 29, Type (0, 0), BuildingBlock: UVAHIK_clean_linker_0, # of connection points: 2
#     Edge 30, Type (0, 0), BuildingBlock: UVAHIK_clean_linker_0, # of connection points: 2
#     Edge 31, Type (0, 0), BuildingBlock: UVAHIK_clean_linker_0, # of connection points: 2
#     Edge 32, Type (0, 0), BuildingBlock: UVAHIK_clean_linker_0, # of connection points: 2
#     Edge 33, Type (0, 0), BuildingBlock: UVAHIK_clean_linker_0, # of connection points: 2
#     Edge 34, Type (0, 0), BuildingBlock: UVAHIK_clean_linker_0, # of connection points: 2
#     Edge 35, Type (0, 0), BuildingBlock: UVAHIK_clean_linker_0, # of connection points: 2
#     Edge 36, Type (0, 0), BuildingBlock: UVAHIK_clean_linker_0, # of connection points: 2
#     Edge 37, Type (0, 0), BuildingBlock: UVAHIK_clean_linker_0, # of connection points: 2
#     Edge 38, Type (0, 0), BuildingBlock: UVAHIK_clean_linker_0, # of connection points: 2
#     Edge 39, Type (0, 0), BuildingBlock: UVAHIK_clean_linker_0, # of connection points: 2
#     Edge 40, Type (0, 0), BuildingBlock: UVAHIK_clean_linker_0, # of connection points: 2
#     Edge 41, Type (0, 0), BuildingBlock: UVAHIK_clean_linker_0, # of connection points: 2
#     Edge 42, Type (0, 0), BuildingBlock: UVAHIK_clean_linker_0, # of connection points: 2
#     Edge 43, Type (0, 0), BuildingBlock: UVAHIK_clean_linker_0, # of connection points: 2
#     Edge 44, Type (0, 0), BuildingBlock: UVAHIK_clean_linker_0, # of connection points: 2
#     Edge 45, Type (0, 0), BuildingBlock: UVAHIK_clean_linker_0, # of connection points: 2
#     Edge 46, Type (0, 0), BuildingBlock: UVAHIK_clean_linker_0, # of connection points: 2
#     Edge 47, Type (0, 0), BuildingBlock: UVAHIK_clean_linker_0, # of connection points: 2
#     Edge 48, Type (0, 0), BuildingBlock: UVAHIK_clean_linker_0, # of connection points: 2
#     Edge 49, Type (0, 0), BuildingBlock: UVAHIK_clean_linker_0, # of connection points: 2
#     Edge 50, Type (0, 0), BuildingBlock: UVAHIK_clean_linker_0, # of connection points: 2
#     Edge 51, Type (0, 0), BuildingBlock: UVAHIK_clean_linker_0, # of connection points: 2
#     Edge 52, Type (0, 0), BuildingBlock: UVAHIK_clean_linker_0, # of connection points: 2
#     Edge 53, Type (0, 0), BuildingBlock: UVAHIK_clean_linker_0, # of connection points: 2
#     Edge 54, Type (0, 0), BuildingBlock: UVAHIK_clean_linker_0, # of connection points: 2
#     Edge 55, Type (0, 0), BuildingBlock: UVAHIK_clean_linker_0, # of connection points: 2
#     Edge 56, Type (0, 0), BuildingBlock: UVAHIK_clean_linker_0, # of connection points: 2
#     Edge 57, Type (0, 0), BuildingBlock: UVAHIK_clean_linker_0, # of connection points: 2
#     Edge 58, Type (0, 0), BuildingBlock: UVAHIK_clean_linker_0, # of connection points: 2
#     Edge 59, Type (0, 0), BuildingBlock: UVAHIK_clean_linker_0, # of connection points: 2
#     Edge 60, Type (0, 0), BuildingBlock: UVAHIK_clean_linker_0, # of connection points: 2
#     Edge 61, Type (0, 0), BuildingBlock: UVAHIK_clean_linker_0, # of connection points: 2
#     Edge 62, Type (0, 0), BuildingBlock: UVAHIK_clean_linker_0, # of connection points: 2
#     Edge 63, Type (0, 0), BuildingBlock: UVAHIK_clean_linker_0, # of connection points: 2
# Relax obj value: 0.194
# Max RMSD: 0.169
# Mean RMSD: 0.169
data_MOF--net-why--node1-MIFKUJ_clean_sbu_0--edge1-UVAHIK_clean_linker_0
_symmetry_space_group_name_H-M    P1
_symmetry_Int_Tables_number       1
_symmetry_cell_setting            triclinic
loop_
_symmetry_equiv_pos_as_xyz
'x, y, z'
_cell_length_a     64.157841
_cell_length_b     64.355035
_cell_length_c     37.894717
_cell_angle_alpha  90.002432
_cell_angle_beta   89.983504
_cell_angle_gamma 89.977687
loop_
_atom_site_label
_atom_site_type_symbol
_atom_site_fract_x
_atom_site_fract_y
_atom_site_fract_z
_atom_type_partial_charge
Zn0 Zn 0.34031 0.16849 0.08416 0.0
Zn1 Zn 0.38562 0.1571 0.03066 0.0
C2 C 0.30248 0.17186 0.04541 0.0
O3 O 0.30466 0.19117 0.05604 0.0
C4 C 0.4226 0.17519 0.05845 0.0
O5 O 0.42884 0.15587 0.05457 0.0
O6 O 0.32767 0.18366 0.12545 0.0
O7 O 0.35602 0.14321 0.10243 0.0
O8 O 0.38206 0.13455 0.06653 0.0
C9 C 0.31097 0.17765 0.14035 0.0
O10 O 0.30234 0.16012 0.13028 0.0
O11 O 0.3163 0.1586 0.0539 0.0
C12 C 0.40984 0.1589 0.9683 0.0
O13 O 0.40643 0.17877 0.97372 0.0
O14 O 0.4019 0.14574 0.98943 0.0
O15 O 0.35948 0.16984 0.01161 0.0
O16 O 0.3553 0.1907 0.05641 0.0
O17 O 0.40377 0.17971 0.05131 0.0
C18 C 0.37087 0.13111 0.09363 0.0
C19 C 0.35768 0.18815 0.02347 0.0
Zn20 Zn 0.58443 0.59309 0.34258 0.0
Zn21 Zn 0.59822 0.6351 0.28826 0.0
C22 C 0.58154 0.5579 0.29725 0.0
O23 O 0.56164 0.56203 0.30157 0.0
C24 C 0.58061 0.67337 0.31195 0.0
O25 O 0.60001 0.67928 0.30717 0.0
O26 O 0.56776 0.57942 0.3811 0.0
O27 O 0.60938 0.60773 0.36426 0.0
O28 O 0.62007 0.63138 0.32557 0.0
C29 C 0.57354 0.56235 0.39486 0.0
O30 O 0.59161 0.55438 0.38574 0.0
O31 O 0.59497 0.56954 0.31205 0.0
C32 C 0.60484 0.64944 0.21641 0.0
O33 O 0.59039 0.63574 0.20862 0.0
O34 O 0.61113 0.65101 0.2481 0.0
O35 O 0.58423 0.60962 0.26885 0.0
O36 O 0.56322 0.6093 0.31413 0.0
O37 O 0.5759 0.65442 0.30686 0.0
C38 C 0.62245 0.62142 0.35427 0.0
C39 C 0.56583 0.60922 0.28093 0.0
Zn40 Zn 0.16088 0.83062 0.59186 0.0
Zn41 Zn 0.12706 0.84676 0.53397 0.0
C42 C 0.19758 0.8299 0.5498 0.0
O43 O 0.19471 0.80993 0.5552 0.0
C44 C 0.0868 0.83348 0.55981 0.0
O45 O 0.08145 0.85215 0.54909 0.0
O46 O 0.17483 0.8145 0.63099 0.0
O47 O 0.14391 0.85392 0.61358 0.0
O48 O 0.13449 0.871 0.56535 0.0
C49 C 0.19116 0.82124 0.64615 0.0
O50 O 0.19823 0.83976 0.63785 0.0
O51 O 0.18457 0.84273 0.56277 0.0
C52 C 0.10469 0.84373 0.47016 0.0
O53 O 0.10871 0.82409 0.47677 0.0
O54 O 0.11174 0.8575 0.49109 0.0
O55 O 0.14993 0.82837 0.51563 0.0
O56 O 0.14621 0.80895 0.56256 0.0
O57 O 0.10587 0.82814 0.55816 0.0
C58 C 0.13755 0.87044 0.59851 0.0
C59 C 0.14846 0.81046 0.52938 0.0
Zn60 Zn 0.92234 0.41294 0.84325 0.0
Zn61 Zn 0.90849 0.37089 0.78771 0.0
C62 C 0.9252 0.44859 0.79886 0.0
O63 O 0.9451 0.44462 0.80346 0.0
C64 C 0.92628 0.33195 0.80752 0.0
O65 O 0.9067 0.3264 0.80376 0.0
O66 O 0.93876 0.42607 0.88247 0.0
O67 O 0.89741 0.398 0.86431 0.0
O68 O 0.88737 0.37374 0.82621 0.0
C69 C 0.93285 0.44295 0.89671 0.0
O70 O 0.91493 0.45113 0.88726 0.0
O71 O 0.91179 0.43677 0.81328 0.0
C72 C 0.90223 0.35742 0.71612 0.0
O73 O 0.91887 0.36882 0.7105 0.0
O74 O 0.89451 0.35662 0.74696 0.0
O75 O 0.92177 0.39713 0.77004 0.0
O76 O 0.94354 0.39708 0.81421 0.0
O77 O 0.93113 0.35094 0.80324 0.0
C78 C 0.88478 0.38382 0.85472 0.0
C79 C 0.94037 0.39742 0.78117 0.0
Zn80 Zn 0.62009 0.8451 0.96398 0.0
Zn81 Zn 0.66651 0.83332 0.91123 0.0
C82 C 0.58263 0.82681 0.93821 0.0
O83 O 0.57698 0.84642 0.93968 0.0
C84 C 0.70153 0.8309 0.95761 0.0
O85 O 0.69757 0.81101 0.95363 0.0
O86 O 0.60458 0.85774 0.00509 0.0
O87 O 0.64653 0.83276 0.98257 0.0
O88 O 0.65106 0.81126 0.9387 0.0
C89 C 0.59782 0.84518 0.02835 0.0
O90 O 0.60201 0.82529 0.02497 0.0
O91 O 0.6013 0.82206 0.94612 0.0
C92 C 0.6977 0.82374 0.85826 0.0
O93 O 0.70612 0.84115 0.86943 0.0
O94 O 0.68039 0.8179 0.87124 0.0
O95 O 0.65042 0.85803 0.89156 0.0
O96 O 0.62358 0.86655 0.92596 0.0
O97 O 0.68988 0.84408 0.9422 0.0
C98 C 0.64813 0.81429 0.97139 0.0
C99 C 0.63508 0.86982 0.89913 0.0
Zn100 Zn 0.40858 0.37068 0.71261 0.0
Zn101 Zn 0.42085 0.41245 0.65515 0.0
C102 C 0.42518 0.33204 0.68899 0.0
O103 O 0.40557 0.32682 0.69368 0.0
C104 C 0.42285 0.45285 0.68732 0.0
O105 O 0.44059 0.45327 0.67006 0.0
O106 O 0.39694 0.35646 0.75556 0.0
O107 O 0.42246 0.39695 0.72862 0.0
O108 O 0.44296 0.39714 0.68274 0.0
C109 C 0.40991 0.34999 0.77842 0.0
O110 O 0.42982 0.35393 0.77384 0.0
O111 O 0.43052 0.35084 0.69403 0.0
C112 C 0.4284 0.43934 0.595 0.0
O113 O 0.40959 0.44622 0.60219 0.0
O114 O 0.43585 0.42448 0.61316 0.0
O115 O 0.39523 0.39713 0.63748 0.0
O116 O 0.38575 0.37328 0.67675 0.0
O117 O 0.41142 0.43672 0.68549 0.0
C118 C 0.44073 0.39727 0.716 0.0
C119 C 0.38262 0.38321 0.64822 0.0
Zn120 Zn 0.87701 0.15741 0.46292 0.0
Zn121 Zn 0.84696 0.17579 0.40601 0.0
C122 C 0.91793 0.16799 0.43556 0.0
O123 O 0.9223 0.14896 0.44572 0.0
C124 C 0.8099 0.17611 0.44674 0.0
O125 O 0.81267 0.19607 0.44114 0.0
O126 O 0.89177 0.14503 0.50484 0.0
O127 O 0.85615 0.17756 0.48278 0.0
O128 O 0.86143 0.19705 0.43633 0.0
C129 C 0.90027 0.15789 0.52587 0.0
O130 O 0.89813 0.17788 0.51979 0.0
O131 O 0.89927 0.17449 0.43824 0.0
C132 C 0.81733 0.18552 0.35126 0.0
O133 O 0.81048 0.16676 0.35849 0.0
O134 O 0.83333 0.19232 0.3673 0.0
O135 O 0.86412 0.153 0.38353 0.0
O136 O 0.86728 0.13397 0.43167 0.0
O137 O 0.82312 0.16332 0.43425 0.0
C138 C 0.85852 0.19548 0.46936 0.0
C139 C 0.86718 0.13549 0.39822 0.0
Zn140 Zn 0.10369 0.63216 0.21274 0.0
Zn141 Zn 0.08909 0.59158 0.15626 0.0
C142 C 0.08845 0.67196 0.19217 0.0
O143 O 0.10804 0.67662 0.19843 0.0
C144 C 0.08483 0.55593 0.20036 0.0
O145 O 0.06507 0.56012 0.19459 0.0
O146 O 0.11707 0.64613 0.25443 0.0
O147 O 0.08811 0.60707 0.23013 0.0
O148 O 0.06782 0.60815 0.18397 0.0
C149 C 0.10771 0.64675 0.28395 0.0
O150 O 0.08992 0.63689 0.2876 0.0
O151 O 0.08265 0.65314 0.19511 0.0
C152 C 0.07877 0.56159 0.10265 0.0
O153 O 0.09657 0.55331 0.1125 0.0
O154 O 0.07287 0.57852 0.11672 0.0
O155 O 0.11463 0.60566 0.1357 0.0
O156 O 0.12573 0.62826 0.17579 0.0
O157 O 0.09865 0.56768 0.18694 0.0
C158 C 0.06989 0.60753 0.21726 0.0
C159 C 0.12806 0.61871 0.14668 0.0
Zn160 Zn 0.84584 0.6707 0.5891 0.0
Zn161 Zn 0.89069 0.65786 0.53626 0.0
C162 C 0.80974 0.67309 0.5452 0.0
O163 O 0.81414 0.69295 0.54822 0.0
C164 C 0.92751 0.67689 0.56234 0.0
O165 O 0.93319 0.65727 0.56205 0.0
O166 O 0.833 0.68731 0.62873 0.0
O167 O 0.86131 0.64589 0.60974 0.0
O168 O 0.8874 0.63665 0.57441 0.0
C169 C 0.81611 0.68151 0.64326 0.0
O170 O 0.80782 0.66367 0.63393 0.0
O171 O 0.8215 0.65988 0.5603 0.0
C172 C 0.90799 0.65401 0.46683 0.0
O173 O 0.89714 0.67109 0.46207 0.0
O174 O 0.9072 0.6449 0.49658 0.0
O175 O 0.86422 0.66924 0.51575 0.0
O176 O 0.86101 0.69172 0.55864 0.0
O177 O 0.90893 0.68146 0.55355 0.0
C178 C 0.87628 0.63373 0.60174 0.0
C179 C 0.8615 0.6878 0.52584 0.0
Zn180 Zn 0.08093 0.09123 0.83444 0.0
Zn181 Zn 0.09479 0.13054 0.77686 0.0
C182 C 0.08024 0.05084 0.802 0.0
O183 O 0.06225 0.05006 0.8185 0.0
C184 C 0.08001 0.16968 0.80247 0.0
O185 O 0.09969 0.17438 0.79715 0.0
O186 O 0.0653 0.07885 0.87536 0.0
O187 O 0.10596 0.10664 0.85415 0.0
O188 O 0.11825 0.12659 0.81113 0.0
C189 C 0.07269 0.06433 0.89433 0.0
O190 O 0.09184 0.0579 0.88864 0.0
O191 O 0.09131 0.06718 0.80439 0.0
C192 C 0.0932 0.15253 0.71252 0.0
O193 O 0.07322 0.15012 0.71887 0.0
O194 O 0.10633 0.14475 0.73389 0.0
O195 O 0.07928 0.10544 0.75991 0.0
O196 O 0.05899 0.10623 0.80607 0.0
O197 O 0.07406 0.15109 0.79719 0.0
C198 C 0.12004 0.11845 0.84155 0.0
C199 C 0.06105 0.10556 0.77278 0.0
Zn200 Zn 0.66206 0.3353 0.09053 0.0
Zn201 Zn 0.61908 0.34867 0.03585 0.0
C202 C 0.69776 0.33293 0.04616 0.0
O203 O 0.69393 0.31303 0.05044 0.0
C204 C 0.58077 0.33215 0.06053 0.0
O205 O 0.57574 0.35185 0.05729 0.0
O206 O 0.67561 0.31918 0.12977 0.0
O207 O 0.64678 0.35995 0.11152 0.0
O208 O 0.62273 0.37039 0.07322 0.0
C209 C 0.69205 0.32576 0.14478 0.0
O210 O 0.69942 0.34411 0.13614 0.0
O211 O 0.68577 0.34614 0.06067 0.0
C212 C 0.60095 0.35088 0.96747 0.0
O213 O 0.60907 0.33218 0.96584 0.0
O214 O 0.60366 0.36169 0.99515 0.0
O215 O 0.64468 0.33475 0.01641 0.0
O216 O 0.64667 0.31379 0.06165 0.0
O217 O 0.59942 0.32664 0.05405 0.0
C218 C 0.63282 0.37281 0.10179 0.0
C219 C 0.64639 0.31645 0.02847 0.0
Zn220 Zn 0.42024 0.91392 0.34252 0.0
Zn221 Zn 0.40686 0.86997 0.28975 0.0
C222 C 0.42273 0.94866 0.29588 0.0
O223 O 0.44269 0.94474 0.29989 0.0
C224 C 0.42362 0.83204 0.31605 0.0
O225 O 0.40384 0.82695 0.31352 0.0
O226 O 0.43643 0.92763 0.38164 0.0
O227 O 0.39527 0.89884 0.36375 0.0
O228 O 0.38505 0.87395 0.32691 0.0
C229 C 0.43115 0.94508 0.39457 0.0
O230 O 0.41379 0.95388 0.38387 0.0
O231 O 0.40951 0.93719 0.31156 0.0
C232 C 0.40689 0.84697 0.22677 0.0
O233 O 0.42695 0.84977 0.23182 0.0
O234 O 0.3941 0.85478 0.24871 0.0
O235 O 0.42058 0.89535 0.26998 0.0
O236 O 0.44203 0.89822 0.31433 0.0
O237 O 0.42902 0.85055 0.30867 0.0
C238 C 0.38251 0.88459 0.35486 0.0
C239 C 0.4391 0.89649 0.28135 0.0
Zn240 Zn 0.11521 0.3427 0.45587 0.0
Zn241 Zn 0.16291 0.33222 0.40517 0.0
C242 C 0.07786 0.32322 0.43168 0.0
O243 O 0.07136 0.34254 0.43397 0.0
C244 C 0.19723 0.32979 0.45308 0.0
O245 O 0.19293 0.30992 0.44989 0.0
O246 O 0.09898 0.35615 0.49523 0.0
O247 O 0.14133 0.33062 0.47656 0.0
O248 O 0.14741 0.30996 0.432 0.0
C249 C 0.09535 0.34557 0.52287 0.0
O250 O 0.10288 0.32665 0.52522 0.0
O251 O 0.09686 0.31923 0.43846 0.0
C252 C 0.19466 0.32216 0.35341 0.0
O253 O 0.20348 0.33922 0.3652 0.0
O254 O 0.17699 0.31681 0.36554 0.0
O255 O 0.14704 0.35682 0.38499 0.0
O256 O 0.11912 0.36392 0.41767 0.0
O257 O 0.18607 0.34295 0.43661 0.0
C258 C 0.14419 0.31243 0.46474 0.0
C259 C 0.13111 0.36795 0.39182 0.0
Zn260 Zn 0.91262 0.86813 0.21721 0.0
Zn261 Zn 0.92374 0.91517 0.16248 0.0
C262 C 0.93204 0.83154 0.18823 0.0
O263 O 0.91249 0.82619 0.18336 0.0
C264 C 0.92444 0.95539 0.19452 0.0
O265 O 0.94249 0.95595 0.17818 0.0
O266 O 0.89959 0.85387 0.25903 0.0
O267 O 0.92468 0.89498 0.23337 0.0
O268 O 0.94642 0.90105 0.19046 0.0
C269 C 0.88443 0.84135 0.25536 0.0
O270 O 0.87624 0.8387 0.22393 0.0
O271 O 0.93606 0.84931 0.20118 0.0
C272 C 0.93085 0.942 0.10192 0.0
O273 O 0.9119 0.94865 0.10869 0.0
O274 O 0.93844 0.92739 0.12045 0.0
O275 O 0.89882 0.89839 0.1449 0.0
O276 O 0.89142 0.87103 0.17862 0.0
O277 O 0.91324 0.93915 0.19217 0.0
C278 C 0.94329 0.89646 0.22255 0.0
C279 C 0.88756 0.88264 0.15224 0.0
Zn280 Zn 0.38431 0.6549 0.96242 0.0
Zn281 Zn 0.34869 0.6723 0.90706 0.0
C282 C 0.42411 0.66943 0.93706 0.0
O283 O 0.42973 0.65059 0.94642 0.0
C284 C 0.31272 0.67192 0.95062 0.0
O285 O 0.3155 0.692 0.94645 0.0
O286 O 0.40039 0.64234 0.00309 0.0
O287 O 0.3615 0.67239 0.98341 0.0
O288 O 0.36331 0.69328 0.93793 0.0
C289 C 0.40427 0.65367 0.02978 0.0
O290 O 0.39687 0.67268 0.03078 0.0
O291 O 0.40499 0.67452 0.93937 0.0
C292 C 0.31789 0.68258 0.85426 0.0
O293 O 0.31114 0.66381 0.86163 0.0
O294 O 0.33424 0.68924 0.86948 0.0
O295 O 0.36539 0.64957 0.88294 0.0
O296 O 0.3764 0.6317 0.92935 0.0
O297 O 0.32544 0.65939 0.93604 0.0
C298 C 0.36161 0.69072 0.97104 0.0
C299 C 0.37229 0.63285 0.89658 0.0
Zn300 Zn 0.60154 0.1363 0.70954 0.0
Zn301 Zn 0.58929 0.09048 0.6572 0.0
C302 C 0.58303 0.17382 0.68455 0.0
O303 O 0.60249 0.17989 0.68771 0.0
C304 C 0.58603 0.05521 0.70227 0.0
O305 O 0.5662 0.05975 0.69824 0.0
O306 O 0.61408 0.1519 0.75049 0.0
O307 O 0.58892 0.11032 0.72919 0.0
O308 O 0.56737 0.10582 0.68537 0.0
C309 C 0.60121 0.15945 0.77257 0.0
O310 O 0.5812 0.15615 0.7678 0.0
O311 O 0.57856 0.15494 0.69096 0.0
C312 C 0.57876 0.06012 0.60369 0.0
O313 O 0.59604 0.05119 0.61445 0.0
O314 O 0.5734 0.07742 0.61709 0.0
O315 O 0.61434 0.10607 0.63738 0.0
O316 O 0.62321 0.1326 0.67195 0.0
O317 O 0.59961 0.06662 0.68735 0.0
C318 C 0.5704 0.10853 0.71812 0.0
C319 C 0.62638 0.12116 0.64508 0.0
C320 C 0.45909 0.18679 0.07103 0.0
C321 C 0.43788 0.19172 0.06689 0.0
C322 C 0.47391 0.20246 0.07559 0.0
C323 C 0.48187 0.25826 0.05762 0.0
H324 H 0.53118 0.25066 0.1154 0.0
C325 C 0.54357 0.32267 0.07222 0.0
C326 C 0.56445 0.31648 0.06813 0.0
C327 C 0.5278 0.30789 0.07629 0.0
C328 C 0.51754 0.25295 0.09903 0.0
H329 H 0.41552 0.21699 0.06568 0.0
H330 H 0.44135 0.24434 0.07434 0.0
H331 H 0.50385 0.22425 0.11574 0.0
H332 H 0.58522 0.28989 0.06628 0.0
H333 H 0.55764 0.26407 0.07339 0.0
H334 H 0.49561 0.28687 0.04074 0.0
C335 C 0.44658 0.22835 0.07336 0.0
C336 C 0.50188 0.23782 0.09917 0.0
C337 C 0.43174 0.21266 0.06866 0.0
C338 C 0.56929 0.29518 0.06939 0.0
C339 C 0.5535 0.28038 0.07361 0.0
C340 C 0.49747 0.27342 0.05762 0.0
C341 C 0.4679 0.22347 0.07628 0.0
C342 C 0.48394 0.24018 0.07817 0.0
C343 C 0.53254 0.28657 0.0765 0.0
C344 C 0.51557 0.27086 0.07806 0.0
H345 H 0.46438 0.17082 0.06973 0.0
H346 H 0.49018 0.1981 0.07729 0.0
H347 H 0.4685 0.26046 0.0406 0.0
H348 H 0.53928 0.33894 0.07154 0.0
H349 H 0.51185 0.31316 0.07897 0.0
C350 C 0.54324 0.68307 0.32306 0.0
C351 C 0.56424 0.68897 0.31974 0.0
C352 C 0.52768 0.69809 0.32763 0.0
C353 C 0.51911 0.75374 0.35097 0.0
H354 H 0.46839 0.74671 0.2967 0.0
C355 C 0.46087 0.82066 0.32287 0.0
C356 C 0.43949 0.81586 0.32335 0.0
C357 C 0.47581 0.80494 0.32658 0.0
C358 C 0.48233 0.74879 0.31243 0.0
H359 H 0.58539 0.71528 0.31949 0.0
H360 H 0.55834 0.74138 0.32685 0.0
H361 H 0.4948 0.71956 0.29588 0.0
H362 H 0.41706 0.79088 0.32937 0.0
H363 H 0.44307 0.76358 0.33599 0.0
H364 H 0.50674 0.78327 0.36677 0.0
C365 C 0.55384 0.72516 0.32648 0.0
C366 C 0.49748 0.73319 0.31202 0.0
C367 C 0.56938 0.71016 0.32203 0.0
C368 C 0.43339 0.79512 0.32871 0.0
C369 C 0.4483 0.77943 0.33229 0.0
C370 C 0.50398 0.76941 0.35123 0.0
C371 C 0.53276 0.71936 0.32889 0.0
C372 C 0.51615 0.73551 0.33108 0.0
C373 C 0.46968 0.7841 0.33073 0.0
C374 C 0.48546 0.76717 0.33179 0.0
H375 H 0.53875 0.66687 0.32153 0.0
H376 H 0.51165 0.69302 0.32995 0.0
H377 H 0.53315 0.75593 0.36639 0.0
H378 H 0.46611 0.83647 0.31871 0.0
H379 H 0.49215 0.80903 0.32498 0.0
C380 C 0.07589 0.79725 0.57626 0.0
C381 C 0.07051 0.81795 0.56862 0.0
C382 C 0.06041 0.78214 0.58059 0.0
C383 C 0.00335 0.77476 0.5948 0.0
H384 H 0.01349 0.72185 0.54901 0.0
C385 C 0.93812 0.7145 0.56562 0.0
C386 C 0.94316 0.69335 0.5694 0.0
C387 C 0.95351 0.7298 0.56935 0.0
C388 C 0.01048 0.73642 0.56238 0.0
H389 H 0.04457 0.83909 0.56076 0.0
H390 H 0.01768 0.81276 0.56788 0.0
H391 H 0.04067 0.74816 0.54929 0.0
H392 H 0.96819 0.67178 0.58139 0.0
H393 H 0.99484 0.69838 0.58814 0.0
H394 H 0.97294 0.76302 0.60725 0.0
C395 C 0.03383 0.8082 0.57095 0.0
C396 C 0.02612 0.75153 0.56261 0.0
C397 C 0.04929 0.82331 0.56668 0.0
C398 C 0.96376 0.68791 0.57806 0.0
C399 C 0.9791 0.70316 0.58173 0.0
C400 C 0.98766 0.75963 0.59448 0.0
C401 C 0.03918 0.78733 0.57732 0.0
C402 C 0.02276 0.77094 0.5787 0.0
C403 C 0.97427 0.72427 0.57686 0.0
C404 C 0.99102 0.74029 0.57817 0.0
H405 H 0.09208 0.79258 0.578 0.0
H406 H 0.06512 0.7663 0.58608 0.0
H407 H 1.0003 0.78943 0.60782 0.0
H408 H 0.92241 0.71923 0.55889 0.0
H409 H 0.94927 0.74591 0.56517 0.0
C410 C 0.93705 0.29488 0.81622 0.0
C411 C 0.94256 0.31598 0.81369 0.0
C412 C 0.95238 0.27956 0.81951 0.0
C413 C 0.00816 0.27023 0.80127 0.0
H414 H 0.99921 0.2207 0.85758 0.0
C415 C 0.07134 0.207 0.81429 0.0
C416 C 0.06469 0.18631 0.81042 0.0
C417 C 0.05687 0.22305 0.81849 0.0
C418 C 1.00188 0.23438 0.84156 0.0
H419 H 0.96853 0.33754 0.81362 0.0
H420 H 0.99528 0.31081 0.8199 0.0
H421 H 0.97338 0.24856 0.85849 0.0
H422 H 0.03757 0.16621 0.80903 0.0
H423 H 0.01229 0.19426 0.81628 0.0
H424 H 0.03655 0.25601 0.78413 0.0
C425 C 0.9791 0.30608 0.81876 0.0
C426 C 0.98707 0.25036 0.84205 0.0
C427 C 0.96375 0.32143 0.81541 0.0
C428 C 0.04323 0.18196 0.81202 0.0
C429 C 0.02874 0.19805 0.8163 0.0
C430 C 0.02298 0.2543 0.80088 0.0
C431 C 0.97362 0.28492 0.82043 0.0
C432 C 0.98993 0.26842 0.82165 0.0
C433 C 0.03537 0.21882 0.819 0.0
C434 C 0.01996 0.2361 0.82079 0.0
H435 H 0.92089 0.2901 0.8149 0.0
H436 H 0.94756 0.26344 0.82023 0.0
H437 H 0.01073 0.28371 0.78474 0.0
H438 H 0.08775 0.21091 0.81336 0.0
H439 H 0.06252 0.23883 0.82107 0.0
C440 C 0.57201 0.78927 0.93354 0.0
C441 C 0.56691 0.81047 0.9309 0.0
C442 C 0.55662 0.77401 0.92947 0.0
C443 C 0.49973 0.76709 0.93738 0.0
H444 H 0.50979 0.71495 0.88903 0.0
C445 C 0.43458 0.70603 0.92218 0.0
C446 C 0.44019 0.68526 0.9287 0.0
C447 C 0.4499 0.72134 0.91818 0.0
C448 C 0.50677 0.72937 0.90286 0.0
H449 H 0.54174 0.83219 0.92067 0.0
H450 H 0.51506 0.80566 0.91332 0.0
H451 H 0.53701 0.74147 0.89029 0.0
H452 H 0.46636 0.66422 0.93488 0.0
H453 H 0.49297 0.69087 0.92836 0.0
H454 H 0.46971 0.75495 0.95058 0.0
C455 C 0.53087 0.80081 0.91908 0.0
C456 C 0.52238 0.74457 0.90357 0.0
C457 C 0.54622 0.81602 0.92309 0.0
C458 C 0.46146 0.68005 0.92984 0.0
C459 C 0.47677 0.69535 0.92592 0.0
C460 C 0.48416 0.7519 0.93675 0.0
C461 C 0.53579 0.77963 0.92274 0.0
C462 C 0.51908 0.76359 0.92096 0.0
C463 C 0.47119 0.71626 0.92067 0.0
C464 C 0.48749 0.73279 0.91964 0.0
H465 H 0.58779 0.78445 0.93964 0.0
H466 H 0.56092 0.75786 0.93275 0.0
H467 H 0.49676 0.7814 0.95156 0.0
H468 H 0.41833 0.71059 0.92103 0.0
H469 H 0.44503 0.73722 0.91356 0.0
C470 C 0.43496 0.29492 0.67804 0.0
C471 C 0.44101 0.31582 0.68152 0.0
C472 C 0.44988 0.27928 0.67396 0.0
C473 C 0.50487 0.26932 0.64983 0.0
H474 H 0.49792 0.22018 0.70788 0.0
C475 C 0.57138 0.21043 0.67392 0.0
C476 C 0.56637 0.18928 0.67764 0.0
C477 C 0.55568 0.22537 0.67059 0.0
C478 C 0.49996 0.2336 0.69099 0.0
H479 H 0.46753 0.33671 0.68244 0.0
H480 H 0.49361 0.30935 0.67531 0.0
H481 H 0.47144 0.24725 0.70888 0.0
H482 H 0.54089 0.16717 0.67957 0.0
H483 H 0.51349 0.19321 0.67307 0.0
H484 H 0.53345 0.25569 0.63206 0.0
C485 C 0.47728 0.3051 0.67554 0.0
C486 C 0.48477 0.24917 0.69163 0.0
C487 C 0.46233 0.32078 0.67975 0.0
C488 C 0.54529 0.18334 0.67685 0.0
C489 C 0.52957 0.1983 0.6734 0.0
C490 C 0.52003 0.25368 0.64905 0.0
C491 C 0.47123 0.28413 0.67315 0.0
C492 C 0.4871 0.26729 0.67127 0.0
C493 C 0.53456 0.21955 0.67077 0.0
C494 C 0.51786 0.23568 0.66986 0.0
H495 H 0.41867 0.29054 0.67913 0.0
H496 H 0.44468 0.26333 0.67165 0.0
H497 H 0.50699 0.28296 0.63348 0.0
H498 H 0.58744 0.21558 0.67451 0.0
H499 H 0.56014 0.24158 0.66908 0.0
C500 C 0.93074 0.20372 0.42003 0.0
C501 C 0.93496 0.18258 0.42621 0.0
C502 C 0.94703 0.2179 0.41525 0.0
C503 C 1.00249 0.22498 0.43751 0.0
H504 H 0.99892 0.27151 0.37281 0.0
C505 C 0.06895 0.2853 0.42585 0.0
C506 C 0.06277 0.30626 0.42454 0.0
C507 C 0.05425 0.26938 0.42183 0.0
C508 C 1.00011 0.25867 0.39119 0.0
H509 H 0.95965 0.15968 0.43072 0.0
H510 H 0.98799 0.18437 0.42203 0.0
H511 H 0.9715 0.24523 0.37304 0.0
H512 H 0.03636 0.32686 0.41706 0.0
H513 H 0.01083 0.29923 0.41046 0.0
H514 H 0.03083 0.2386 0.45621 0.0
C515 C 0.9721 0.19004 0.42144 0.0
C516 C 0.98438 0.2436 0.3913 0.0
C517 C 0.95582 0.17585 0.42618 0.0
C518 C 0.04169 0.3109 0.41818 0.0
C519 C 0.02703 0.29502 0.41416 0.0
C520 C 0.01819 0.24006 0.43744 0.0
C521 C 0.96793 0.2113 0.41657 0.0
C522 C 0.98527 0.22668 0.41472 0.0
C523 C 0.03305 0.27405 0.41637 0.0
C524 C 0.01709 0.25723 0.41457 0.0
H525 H 0.91487 0.20946 0.42001 0.0
H526 H 0.94324 0.23418 0.4119 0.0
H527 H 0.00353 0.21234 0.45629 0.0
H528 H 0.08507 0.28117 0.43066 0.0
H529 H 0.05949 0.25341 0.42322 0.0
C530 C 0.07936 0.7096 0.18592 0.0
C531 C 0.0731 0.68867 0.18517 0.0
C532 C 0.06474 0.72555 0.18222 0.0
C533 C 0.01163 0.73758 0.15109 0.0
H534 H 0.01474 0.78242 0.21924 0.0
C535 C 0.94415 0.79567 0.17282 0.0
C536 C 0.94895 0.81628 0.18199 0.0
C537 C 0.95989 0.78076 0.16981 0.0
C538 C 0.01381 0.77026 0.19956 0.0
H539 H 0.04659 0.66808 0.1789 0.0
H540 H 0.02104 0.696 0.17226 0.0
H541 H 0.041 0.75514 0.21984 0.0
H542 H 0.97419 0.83758 0.19391 0.0
H543 H 1.00171 0.81168 0.18782 0.0
H544 H 0.98446 0.7527 0.13073 0.0
C545 C 0.03731 0.70003 0.17562 0.0
C546 C 0.02886 0.75456 0.2 0.0
C547 C 0.05194 0.68404 0.17955 0.0
C548 C 0.96994 0.82181 0.18698 0.0
C549 C 0.98571 0.8069 0.18374 0.0
C550 C 0.99664 0.75338 0.15046 0.0
C551 C 0.04352 0.72096 0.17748 0.0
C552 C 0.02787 0.73797 0.17595 0.0
C553 C 0.98087 0.7861 0.17567 0.0
C554 C 0.99744 0.76985 0.17489 0.0
H555 H 0.09554 0.71374 0.1901 0.0
H556 H 0.07005 0.74151 0.1833 0.0
H557 H 0.0106 0.72512 0.13196 0.0
H558 H 0.92814 0.79086 0.16889 0.0
H559 H 0.9555 0.76488 0.16403 0.0
C560 C 0.1553 0.13479 0.84812 0.0
C561 C 0.13898 0.12299 0.8627 0.0
C562 C 0.17306 0.13939 0.86794 0.0
C563 C 0.20281 0.12341 0.94736 0.0
H564 H 0.22701 0.17831 0.93775 0.0
C565 C 0.28208 0.1456 0.01049 0.0
C566 C 0.28389 0.16569 0.02472 0.0
C567 C 0.26443 0.13997 0.99097 0.0
C568 C 0.22037 0.16296 0.94103 0.0
H569 H 0.1287 0.10667 0.90968 0.0
H570 H 0.15957 0.11503 0.94449 0.0
H571 H 0.19599 0.16941 0.90422 0.0
H572 H 0.2684 0.1955 0.03008 0.0
H573 H 0.23761 0.18561 0.99674 0.0
H574 H 0.22692 0.1172 0.98499 0.0
C575 C 0.15874 0.12046 0.91748 0.0
C576 C 0.20271 0.15775 0.9214 0.0
C577 C 0.14097 0.11577 0.89758 0.0
C578 C 0.26761 0.17995 0.01924 0.0
C579 C 0.24997 0.1743 -7e-05 0.0
C580 C 0.22047 0.12865 0.96712 0.0
C581 C 0.17497 0.13242 0.90295 0.0
C582 C 0.19371 0.1379 0.92422 0.0
C583 C 0.24817 0.15428 0.98538 0.0
C584 C 0.22947 0.14851 0.96422 0.0
H585 H 0.15442 0.14051 0.82128 0.0
H586 H 0.18539 0.14831 0.85564 0.0
H587 H 0.19642 0.10791 0.94995 0.0
H588 H 0.29437 0.13426 0.01418 0.0
H589 H 0.2637 0.1245 0.97981 0.0
C590 C 0.60964 0.40245 0.11877 0.0
C591 C 0.62817 0.39119 0.124 0.0
C592 C 0.60527 0.42002 0.13909 0.0
C593 C 0.62977 0.46149 0.18992 0.0
H594 H 0.57473 0.46826 0.23059 0.0
C595 C 0.60829 0.53134 0.27978 0.0
C596 C 0.588 0.53937 0.27689 0.0
C597 C 0.61386 0.51308 0.26202 0.0
C598 C 0.59009 0.4668 0.21902 0.0
H599 H 0.65667 0.38961 0.1547 0.0
H600 H 0.64908 0.4206 0.18995 0.0
H601 H 0.58314 0.43662 0.19836 0.0
H602 H 0.55785 0.535 0.25214 0.0
H603 H 0.56768 0.50369 0.22036 0.0
H604 H 0.6366 0.4919 0.20966 0.0
C605 C 0.63797 0.4157 0.17012 0.0
C606 C 0.59493 0.4486 0.20072 0.0
C607 C 0.64224 0.39791 0.15009 0.0
C608 C 0.57356 0.52909 0.25521 0.0
C609 C 0.57917 0.51101 0.23719 0.0
C610 C 0.62487 0.47985 0.20792 0.0
C611 C 0.61941 0.42689 0.16483 0.0
C612 C 0.61475 0.44581 0.18576 0.0
C613 C 0.5993 0.50258 0.24071 0.0
C614 C 0.60489 0.48282 0.22245 0.0
H615 H 0.59844 0.39768 0.09898 0.0
H616 H 0.59093 0.42845 0.13423 0.0
H617 H 0.64513 0.45982 0.17837 0.0
H618 H 0.61974 0.53886 0.29645 0.0
H619 H 0.62943 0.50696 0.26569 0.0
C620 C 0.35348 0.86111 0.37371 0.0
C621 C 0.36415 0.88008 0.37741 0.0
C622 C 0.33599 0.85674 0.39433 0.0
C623 C 0.29327 0.88082 0.44297 0.0
H624 H 0.28883 0.82686 0.48781 0.0
C625 C 0.22288 0.85781 0.53168 0.0
C626 C 0.21611 0.83707 0.52991 0.0
C627 C 0.24116 0.86402 0.51437 0.0
C628 C 0.28963 0.8419 0.4751 0.0
H629 H 0.36468 0.90938 0.40568 0.0
H630 H 0.33374 0.9018 0.44146 0.0
H631 H 0.32038 0.83588 0.45562 0.0
H632 H 0.22276 0.80678 0.50749 0.0
H633 H 0.25403 0.81766 0.47654 0.0
H634 H 0.26226 0.88664 0.46146 0.0
C635 C 0.3391 0.89033 0.4226 0.0
C636 C 0.3078 0.8471 0.45682 0.0
C637 C 0.35686 0.8946 0.40227 0.0
C638 C 0.22767 0.82283 0.50975 0.0
C639 C 0.24575 0.82906 0.49219 0.0
C640 C 0.27494 0.87553 0.46095 0.0
C641 C 0.32855 0.87131 0.41888 0.0
C642 C 0.30974 0.86651 0.44023 0.0
C643 C 0.25295 0.84966 0.49465 0.0
C644 C 0.27277 0.85588 0.47689 0.0
H645 H 0.35869 0.84954 0.3549 0.0
H646 H 0.32807 0.84204 0.39066 0.0
H647 H 0.2943 0.89584 0.43019 0.0
H648 H 0.21434 0.86913 0.54713 0.0
H649 H 0.24628 0.87997 0.51714 0.0
C650 C 0.89941 0.60431 0.61996 0.0
C651 C 0.8806 0.61527 0.62398 0.0
C652 C 0.90321 0.58626 0.63933 0.0
C653 C 0.88571 0.55623 0.71767 0.0
H654 H 0.91539 0.51159 0.67065 0.0
C655 C 0.89815 0.47449 0.77972 0.0
C656 C 0.91868 0.4669 0.77796 0.0
C657 C 0.8924 0.4923 0.76086 0.0
C658 C 0.90717 0.52396 0.68417 0.0
H659 H 0.85113 0.61594 0.65201 0.0
H660 H 0.85758 0.58411 0.68533 0.0
H661 H 0.90733 0.5433 0.63839 0.0
H662 H 0.94916 0.47182 0.75459 0.0
H663 H 0.93904 0.50266 0.72143 0.0
H664 H 0.8854 0.53656 0.76338 0.0
C665 C 0.86955 0.58969 0.66757 0.0
C666 C 0.90262 0.5422 0.66576 0.0
C667 C 0.86581 0.60792 0.64838 0.0
C668 C 0.93322 0.47728 0.75657 0.0
C669 C 0.92741 0.49489 0.73741 0.0
C670 C 0.8901 0.53785 0.73601 0.0
C671 C 0.88823 0.57851 0.66301 0.0
C672 C 0.89211 0.55872 0.68239 0.0
C673 C 0.90698 0.50266 0.73949 0.0
C674 C 0.90112 0.52165 0.71956 0.0
H675 H 0.91125 0.60965 0.60171 0.0
H676 H 0.91799 0.57841 0.63574 0.0
H677 H 0.87778 0.56867 0.73146 0.0
H678 H 0.88661 0.46685 0.79606 0.0
H679 H 0.8765 0.49788 0.76275 0.0
C680 C 0.72714 0.85821 0.97682 0.0
C681 C 0.7198 0.83765 0.97858 0.0
C682 C 0.74499 0.86417 0.99557 0.0
C683 C 0.77758 0.84946 0.07158 0.0
H684 H 0.82121 0.88045 0.02418 0.0
C685 C 0.85862 0.85883 0.13398 0.0
C686 C 0.86893 0.87799 0.1304 0.0
C687 C 0.84044 0.85469 0.11499 0.0
C688 C 0.80907 0.87206 0.03801 0.0
H689 H 0.72523 0.80733 0.00186 0.0
H690 H 0.75614 0.81777 0.03471 0.0
H691 H 0.78897 0.87232 0.99278 0.0
H692 H 0.8683 0.90773 0.10348 0.0
H693 H 0.8363 0.90065 0.07078 0.0
H694 H 0.7974 0.84929 0.11686 0.0
C695 C 0.74813 0.82929 0.01888 0.0
C696 C 0.79061 0.86738 0.01997 0.0
C697 C 0.73047 0.82329 -0.00011 0.0
C698 C 0.8608 0.89278 0.1068 0.0
C699 C 0.84247 0.88869 0.08794 0.0
C700 C 0.79592 0.85426 0.08968 0.0
C701 C 0.75567 0.84975 0.01679 0.0
C702 C 0.77477 0.85581 0.03644 0.0
C703 C 0.83193 0.86966 0.09208 0.0
C704 C 0.81205 0.86538 0.07302 0.0
H705 H 0.7193 0.86964 0.96056 0.0
H706 H 0.75035 0.88009 0.99365 0.0
H707 H 0.76552 0.84082 0.08517 0.0
H708 H 0.86456 0.84696 0.15157 0.0
H709 H 0.83308 0.83967 0.11825 0.0
C710 C 0.3757 0.59436 0.88877 0.0
C711 C 0.37587 0.61441 0.87401 0.0
C712 C 0.37944 0.57692 0.8677 0.0
C713 C 0.40791 0.55983 0.7916 0.0
H714 H 0.3686 0.51424 0.78537 0.0
C715 C 0.42311 0.49107 0.69796 0.0
C716 C 0.41618 0.47122 0.70778 0.0
C717 C 0.41721 0.50858 0.71732 0.0
C718 C 0.37996 0.52661 0.78721 0.0
H719 H 0.38013 0.63191 0.82565 0.0
H720 H 0.38742 0.60135 0.78904 0.0
H721 H 0.36023 0.54457 0.8214 0.0
H722 H 0.39775 0.45401 0.74565 0.0
H723 H 0.3883 0.48437 0.78075 0.0
H724 H 0.42818 0.54179 0.75919 0.0
C725 C 0.38407 0.59923 0.81683 0.0
C726 C 0.37503 0.54405 0.80765 0.0
C727 C 0.37984 0.61666 0.83773 0.0
C728 C 0.40319 0.46918 0.73738 0.0
C729 C 0.39768 0.48667 0.75733 0.0
C730 C 0.41307 0.54223 0.77184 0.0
C731 C 0.38388 0.57923 0.83165 0.0
C732 C 0.38892 0.56084 0.80983 0.0
C733 C 0.40464 0.50665 0.74763 0.0
C734 C 0.39912 0.52537 0.76912 0.0
H735 H 0.37259 0.59213 0.91661 0.0
H736 H 0.37933 0.56164 0.87971 0.0
H737 H 0.41898 0.5725 0.7933 0.0
H738 H 0.43292 0.49313 0.67494 0.0
H739 H 0.42245 0.52364 0.70823 0.0
C740 C 0.65239 0.11074 0.59855 0.0
C741 C 0.64467 0.12565 0.62237 0.0
C742 C 0.67001 0.11501 0.5779 0.0
C743 C 0.70003 0.15824 0.54059 0.0
H744 H 0.74651 0.11974 0.538 0.0
C745 C 0.77952 0.18326 0.48607 0.0
C746 C 0.7914 0.16892 0.46668 0.0
C747 C 0.76157 0.17697 0.5039 0.0
C748 C 0.73357 0.13053 0.53793 0.0
H749 H 0.64926 0.15684 0.64273 0.0
H750 H 0.67967 0.16433 0.6064 0.0
H751 H 0.71482 0.11047 0.5702 0.0
H752 H 0.79387 0.13661 0.45107 0.0
H753 H 0.76213 0.12564 0.48159 0.0
H754 H 0.71841 0.17822 0.50811 0.0
C755 C 0.67216 0.14933 0.60379 0.0
C756 C 0.71543 0.12522 0.55646 0.0
C757 C 0.6548 0.14498 0.62474 0.0
C758 C 0.78506 0.14802 0.4659 0.0
C759 C 0.76691 0.14173 0.48351 0.0
C760 C 0.71801 0.16346 0.52179 0.0
C761 C 0.68 0.13439 0.58024 0.0
C762 C 0.69863 0.13919 0.55846 0.0
C763 C 0.75481 0.15619 0.50251 0.0
C764 C 0.73519 0.14986 0.52073 0.0
H765 H 0.645 0.09568 0.59616 0.0
H766 H 0.67567 0.10325 0.55982 0.0
H767 H 0.68718 0.16917 0.54118 0.0
H768 H 0.7841 0.19944 0.48756 0.0
H769 H 0.75303 0.18846 0.51897 0.0
C770 C 0.10744 0.39683 0.37291 0.0
C771 C 0.12675 0.38663 0.37012 0.0
C772 C 0.1036 0.41509 0.35412 0.0
C773 C 0.12265 0.44716 0.27916 0.0
H774 H 0.0904 0.49017 0.32571 0.0
C775 C 0.11132 0.52983 0.22081 0.0
C776 C 0.09073 0.53732 0.22105 0.0
C777 C 0.11653 0.5117 0.23921 0.0
C778 C 0.09933 0.47825 0.3123 0.0
H779 H 0.15709 0.38754 0.34489 0.0
H780 H 0.15055 0.4197 0.31266 0.0
H781 H 0.09797 0.45793 0.35679 0.0
H782 H 0.05956 0.53187 0.24125 0.0
H783 H 0.06872 0.50042 0.27357 0.0
H784 H 0.12417 0.46779 0.23479 0.0
C785 C 0.13822 0.41337 0.32894 0.0
C786 C 0.10361 0.45971 0.33003 0.0
C787 C 0.14201 0.39495 0.34754 0.0
C788 C 0.07556 0.52651 0.2405 0.0
C789 C 0.08082 0.50855 0.25917 0.0
C790 C 0.11852 0.46582 0.26152 0.0
C791 C 0.11903 0.4238 0.33228 0.0
C792 C 0.11512 0.4438 0.31358 0.0
C793 C 0.10132 0.50086 0.25856 0.0
C794 C 0.10663 0.48147 0.27779 0.0
H795 H 0.09524 0.39074 0.38977 0.0
H796 H 0.08846 0.42238 0.35672 0.0
H797 H 0.13135 0.43519 0.26549 0.0
H798 H 0.12334 0.53779 0.206 0.0
H799 H 0.13249 0.50622 0.2385 0.0
C800 C 0.65247 0.64431 0.37065 0.0
C801 C 0.641 0.62599 0.37631 0.0
C802 C 0.67018 0.64864 0.39076 0.0
C803 C 0.71173 0.62426 0.44203 0.0
H804 H 0.71916 0.67955 0.48065 0.0
C805 C 0.78271 0.64634 0.52963 0.0
C806 C 0.79087 0.66648 0.52572 0.0
C807 C 0.7642 0.64066 0.51257 0.0
C808 C 0.71752 0.66411 0.46966 0.0
H809 H 0.63926 0.5978 0.40756 0.0
H810 H 0.67052 0.60531 0.44246 0.0
H811 H 0.68722 0.67107 0.44916 0.0
H812 H 0.78639 0.69621 0.49988 0.0
H813 H 0.75464 0.68619 0.46939 0.0
H814 H 0.74228 0.61743 0.46162 0.0
C815 C 0.66564 0.6163 0.42245 0.0
C816 C 0.69913 0.65923 0.45178 0.0
C817 C 0.6477 0.61208 0.40262 0.0
C818 C 0.78041 0.68063 0.50377 0.0
C819 C 0.76207 0.67492 0.48647 0.0
C820 C 0.73027 0.6292 0.45964 0.0
C821 C 0.67702 0.63467 0.41675 0.0
C822 C 0.6961 0.63933 0.43749 0.0
C823 C 0.75353 0.65495 0.49097 0.0
C824 C 0.73351 0.64927 0.47338 0.0
H825 H 0.64775 0.6554 0.35068 0.0
H826 H 0.67874 0.66282 0.38554 0.0
H827 H 0.70988 0.60884 0.43102 0.0
H828 H 0.79037 0.6351 0.54651 0.0
H829 H 0.75802 0.62523 0.51697 0.0
C830 C 0.10103 0.03491 0.75284 0.0
C831 C 0.08754 0.03262 0.78173 0.0
C832 C 0.10712 0.01756 0.73302 0.0
C833 C 0.09263 0.96187 0.71729 0.0
H834 H 0.14652 0.95998 0.67107 0.0
C835 C 0.12823 0.88739 0.65594 0.0
C836 C 0.1332 0.88919 0.61993 0.0
C837 C 0.12326 0.90503 0.67579 0.0
C838 C 0.13142 0.96039 0.68383 0.0
H839 H 0.0705 0.01039 0.8135 0.0
H840 H 0.08193 0.98014 0.78049 0.0
H841 H 0.13703 0.99034 0.70628 0.0
H842 H 0.13744 0.91092 0.57677 0.0
H843 H 0.12938 0.94184 0.61194 0.0
H844 H 0.08753 0.93146 0.69581 0.0
C845 C 0.08715 0.99529 0.7718 0.0
C846 C 0.12585 0.97783 0.70381 0.0
C847 C 0.08069 0.01265 0.79102 0.0
C848 C 0.13358 0.90904 0.60442 0.0
C849 C 0.12908 0.92672 0.6245 0.0
C850 C 0.0984 0.94428 0.69801 0.0
C851 C 0.10021 0.99746 0.74215 0.0
C852 C 0.10633 0.97887 0.72082 0.0
C853 C 0.12364 0.92483 0.66024 0.0
C854 C 0.1178 0.94341 0.68103 0.0
H855 H 0.10644 0.05018 0.745 0.0
H856 H 0.11689 0.02004 0.71012 0.0
H857 H 0.07725 0.96215 0.72903 0.0
H858 H 0.12774 0.87231 0.66859 0.0
H859 H 0.11916 0.90323 0.70336 0.0
C860 C 0.72391 0.36004 0.02865 0.0
C861 C 0.71619 0.33967 0.02571 0.0
C862 C 0.74191 0.36599 0.01037 0.0
C863 C 0.77391 0.35268 0.93342 0.0
H864 H 0.81897 0.37993 0.98349 0.0
C865 C 0.85487 0.3608 0.87081 0.0
C866 C 0.86615 0.37921 0.87648 0.0
C867 C 0.83663 0.35678 0.88967 0.0
C868 C 0.80644 0.37262 0.96894 0.0
H869 H 0.72104 0.30969 0.00084 0.0
H870 H 0.7522 0.32017 0.9686 0.0
H871 H 0.78648 0.37206 0.01436 0.0
H872 H 0.86725 0.40774 0.90687 0.0
H873 H 0.83506 0.40097 0.93929 0.0
H874 H 0.79352 0.35343 0.88791 0.0
C875 C 0.7444 0.33151 0.9851 0.0
C876 C 0.78785 0.36809 0.98668 0.0
C877 C 0.72661 0.32549 0.0037 0.0
C878 C 0.85896 0.39336 0.90199 0.0
C879 C 0.84053 0.38944 0.92065 0.0
C880 C 0.79235 0.3574 0.91561 0.0
C881 C 0.75232 0.35176 0.98841 0.0
C882 C 0.77152 0.35781 0.96919 0.0
C883 C 0.82901 0.37119 0.91444 0.0
C884 C 0.80901 0.36714 0.93324 0.0
H885 H 0.71625 0.37129 0.0455 0.0
H886 H 0.74762 0.38174 0.01321 0.0
H887 H 0.76144 0.34505 0.91915 0.0
H888 H 0.86009 0.34943 0.85166 0.0
H889 H 0.82852 0.34231 0.88481 0.0
C890 C 0.39538 0.97406 0.27612 0.0
C891 C 0.41593 0.96654 0.27418 0.0
C892 C 0.38933 0.99145 0.25644 0.0
C893 C 0.40307 0.0218 0.1777 0.0
H894 H 0.37387 0.06708 0.22371 0.0
C895 C 0.3939 0.10128 0.11039 0.0
C896 C 0.37522 0.11234 0.11513 0.0
C897 C 0.39796 0.08333 0.12991 0.0
C898 C 0.38172 0.05446 0.21026 0.0
H899 H 0.44614 0.97118 0.24967 0.0
H900 H 0.4355 1.00131 0.21509 0.0
H901 H 0.38213 0.03563 0.25695 0.0
H902 H 0.34614 0.11319 0.14431 0.0
H903 H 0.353 0.08155 0.17782 0.0
H904 H 0.40253 0.04033 0.13094 0.0
C905 C 0.42408 0.99378 0.23184 0.0
C906 C 0.38649 0.03647 0.22937 0.0
C907 C 0.43019 0.97658 0.25179 0.0
C908 C 0.36073 0.10509 0.14011 0.0
C909 C 0.36471 0.08698 0.15945 0.0
C910 C 0.39814 0.03966 0.15852 0.0
C911 C 0.40363 1.00148 0.23409 0.0
C912 C 0.39745 0.02007 0.21339 0.0
C913 C 0.38335 0.0758 0.15447 0.0
C914 C 0.38766 0.05637 0.17464 0.0
H915 H 0.38404 0.96668 0.2932 0.0
H916 H 0.37342 0.99698 0.2585 0.0
H917 H 0.41125 0.00926 0.16455 0.0
H918 H 0.40552 0.10653 0.09166 0.0
H919 H 0.4127 0.07546 0.12591 0.0
C920 C 0.22387 0.35654 0.47027 0.0
C921 C 0.21549 0.33649 0.47406 0.0
C922 C 0.24193 0.36227 0.48861 0.0
C923 C 0.28731 0.33894 0.53532 0.0
H924 H 0.29476 0.39475 0.57176 0.0
C925 C 0.35227 0.36021 0.63391 0.0
C926 C 0.36375 0.3784 0.62714 0.0
C927 C 0.33443 0.35558 0.6143 0.0
C928 C 0.29295 0.37916 0.56143 0.0
H929 H 0.21903 0.30699 0.50103 0.0
H930 H 0.24997 0.31712 0.53377 0.0
H931 H 0.26276 0.38588 0.54025 0.0
H932 H 0.36533 0.40606 0.59452 0.0
H933 H 0.33392 0.39803 0.56051 0.0
H934 H 0.3173 0.33214 0.55726 0.0
C935 C 0.24309 0.32827 0.51583 0.0
C936 C 0.27464 0.37407 0.54329 0.0
C937 C 0.22521 0.32249 0.49724 0.0
C938 C 0.35688 0.3919 0.60035 0.0
C939 C 0.33884 0.38738 0.58101 0.0
C940 C 0.30547 0.34398 0.55374 0.0
C941 C 0.25189 0.34813 0.51142 0.0
C942 C 0.27152 0.35383 0.53017 0.0
C943 C 0.32749 0.36913 0.58771 0.0
C944 C 0.30845 0.3641 0.56715 0.0
H945 H 0.21679 0.36765 0.45245 0.0
H946 H 0.24834 0.37761 0.48421 0.0
H947 H 0.28575 0.32336 0.52488 0.0
H948 H 0.35711 0.34944 0.65428 0.0
H949 H 0.32589 0.3415 0.62028 0.0
C950 C 0.86846 0.09685 0.39033 0.0
C951 C 0.87137 0.11689 0.3764 0.0
C952 C 0.87298 0.07928 0.37 0.0
C953 C 0.90684 0.06132 0.30032 0.0
H954 H 0.86664 0.01722 0.28536 0.0
C955 C 0.92508 0.99347 0.20659 0.0
C956 C 0.91725 0.97368 0.21469 0.0
C957 C 0.91864 0.01087 0.22569 0.0
C958 C 0.87821 0.02918 0.28972 0.0
H959 H 0.88129 0.13424 0.33028 0.0
H960 H 0.88977 0.10346 0.29517 0.0
H961 H 0.85697 0.04756 0.32044 0.0
H962 H 0.89659 0.9565 0.24918 0.0
H963 H 0.88604 0.98669 0.28379 0.0
H964 H 0.92844 0.04287 0.27117 0.0
C965 C 0.88375 0.10143 0.32166 0.0
C966 C 0.87257 0.04662 0.30962 0.0
C967 C 0.87882 0.119 0.3417 0.0
C968 C 0.90279 0.97161 0.24226 0.0
C969 C 0.89665 0.98899 0.26193 0.0
C970 C 0.91263 0.04374 0.28105 0.0
C971 C 0.88091 0.08144 0.33567 0.0
C972 C 0.8868 0.06289 0.31485 0.0
C973 C 0.90454 0.00889 0.25398 0.0
C974 C 0.89836 0.02747 0.27518 0.0
H975 H 0.86266 0.09474 0.41694 0.0
H976 H 0.87077 0.064 0.3814 0.0
H977 H 0.91817 0.07356 0.30443 0.0
H978 H 0.93604 0.99557 0.18513 0.0
H979 H 0.92466 0.02592 0.218 0.0
C980 C 0.15927 0.64049 0.13254 0.0
C981 C 0.14704 0.62286 0.12547 0.0
C982 C 0.17752 0.64427 0.11353 0.0
C983 C 0.20589 0.62974 0.03149 0.0
H984 H 0.25226 0.65534 0.08068 0.0
C985 C 0.28745 0.64385 0.96794 0.0
C986 C 0.29486 0.66429 0.97167 0.0
C987 C 0.26991 0.63721 0.9869 0.0
C988 C 0.23942 0.64821 0.0666 0.0
H989 H 0.14442 0.59538 0.09266 0.0
H990 H 0.17663 0.60166 0.06003 0.0
H991 H 0.22071 0.64653 0.11312 0.0
H992 H 0.29004 0.69362 -0.0013 0.0
H993 H 0.25979 0.6819 0.03215 0.0
H994 H 0.22497 0.63127 0.98502 0.0
C995 C 0.17188 0.61282 0.07984 0.0
C996 C 0.22126 0.64327 0.0851 0.0
C997 C 0.15343 0.60916 0.09865 0.0
C998 C 0.28467 0.67779 0.99517 0.0
C999 C 0.26742 0.67106 0.01448 0.0
C1000 C 0.22421 0.63447 0.01305 0.0
C1001 C 0.18425 0.63038 0.0872 0.0
C1002 C 0.20407 0.63433 0.0677 0.0
C1003 C 0.25975 0.65077 0.01038 0.0
C1004 C 0.24101 0.64408 0.03033 0.0
H1005 H 0.15469 0.6515 0.15273 0.0
H1006 H 0.18627 0.65823 0.11938 0.0
H1007 H 0.19295 0.62307 0.01708 0.0
H1008 H 0.29494 0.63313 0.94993 0.0
H1009 H 0.26436 0.62145 0.98339 0.0
C1010 C 0.61259 0.02861 0.72064 0.0
C1011 C 0.59219 0.03651 0.72252 0.0
C1012 C 0.61793 0.0103 0.73846 0.0
C1013 C 0.59377 0.96359 0.77942 0.0
H1014 H 0.64775 0.95725 0.82412 0.0
C1015 C 0.61152 0.89874 0.87987 0.0
C1016 C 0.63059 0.88813 0.87659 0.0
C1017 C 0.60736 0.91631 0.85939 0.0
C1018 C 0.6327 0.95873 0.81143 0.0
H1019 H 0.56159 0.03175 0.74545 0.0
H1020 H 0.57099 1.00031 0.77721 0.0
H1021 H 0.63961 0.98929 0.79242 0.0
H1022 H 0.66026 0.88773 0.84906 0.0
H1023 H 0.653 0.91862 0.81348 0.0
H1024 H 0.58671 0.93323 0.7992 0.0
C1025 C 0.58277 0.00782 0.7612 0.0
C1026 C 0.62803 0.97707 0.79319 0.0
C1027 C 0.5774 0.02598 0.74317 0.0
C1028 C 0.64539 0.8955 0.8522 0.0
C1029 C 0.6413 0.91325 0.83197 0.0
C1030 C 0.59837 0.94537 0.79789 0.0
C1031 C 0.60303 0.99958 0.75877 0.0
C1032 C 0.60841 0.97981 0.77721 0.0
C1033 C 0.62223 0.92383 0.83537 0.0
C1034 C 0.61782 0.9428 0.81433 0.0
H1035 H 0.62432 0.03631 0.7048 0.0
H1036 H 0.63363 0.00432 0.73567 0.0
H1037 H 0.5787 0.96489 0.76675 0.0
H1038 H 0.59975 0.8935 0.89833 0.0
H1039 H 0.59261 0.92424 0.86284 0.0
C1040 C 0.433 0.16703 0.91706 0.0
C1041 C 0.42393 0.1522 0.93954 0.0
C1042 C 0.44732 0.16103 0.89125 0.0
C1043 C 0.48451 0.11931 0.87015 0.0
H1044 H 0.48617 0.14629 0.77867 0.0
C1045 C 0.53223 0.11387 0.72934 0.0
C1046 C 0.55269 0.11229 0.74233 0.0
C1047 C 0.51558 0.11762 0.7523 0.0
C1048 C 0.4858 0.13844 0.80395 0.0
H1049 H 0.42239 0.11933 0.95192 0.0
H1050 H 0.44728 0.10881 0.90654 0.0
H1051 H 0.45807 0.15443 0.81975 0.0
H1052 H 0.57166 0.11311 0.78969 0.0
H1053 H 0.54273 0.11995 0.82959 0.0
H1054 H 0.51215 0.10321 0.85426 0.0
C1055 C 0.4435 0.12513 0.90924 0.0
C1056 C 0.46982 0.14327 0.82764 0.0
C1057 C 0.42915 0.13115 0.9351 0.0
C1058 C 0.5561 0.11431 0.77879 0.0
C1059 C 0.53948 0.11806 0.80172 0.0
C1060 C 0.50048 0.11448 0.84646 0.0
C1061 C 0.45291 0.14004 0.88725 0.0
C1062 C 0.46911 0.13393 0.86117 0.0
C1063 C 0.51902 0.11979 0.78877 0.0
C1064 C 0.50145 0.12415 0.81323 0.0
H1065 H 0.42935 0.18339 0.91977 0.0
H1066 H 0.45446 0.17294 0.87509 0.0
H1067 H 0.48454 0.11198 0.89587 0.0
H1068 H 0.52905 0.1123 0.70139 0.0
H1069 H 0.49998 0.11863 0.74153 0.0
C1070 C 0.62244 0.68273 0.20004 0.0
C1071 C 0.61179 0.66465 0.18965 0.0
C1072 C 0.62707 0.6982 0.17545 0.0
C1073 C 0.63421 0.70904 0.08154 0.0
H1074 H 0.61723 0.76494 0.10678 0.0
C1075 C 0.63815 0.77719 0.98219 0.0
C1076 C 0.6439 0.79675 0.99543 0.0
C1077 C 0.63415 0.76069 0.00522 0.0
C1078 C 0.62238 0.74951 0.09945 0.0
H1079 H 0.59845 0.64822 0.14507 0.0
H1080 H 0.60692 0.67521 0.10192 0.0
H1081 H 0.61159 0.73658 0.14819 0.0
H1082 H 0.65035 0.81432 0.04298 0.0
H1083 H 0.64406 0.78549 0.08304 0.0
H1084 H 0.64547 0.72197 0.03315 0.0
C1085 C 0.61152 0.67739 0.12917 0.0
C1086 C 0.61907 0.73326 0.12317 0.0
C1087 C 0.60662 0.662 0.15388 0.0
C1088 C 0.64574 0.79946 0.03204 0.0
C1089 C 0.642 0.78293 0.05501 0.0
C1090 C 0.63779 0.72536 0.05793 0.0
C1091 C 0.6214 0.6958 0.1399 0.0
C1092 C 0.625 0.7129 0.1145 0.0
C1093 C 0.63607 0.76334 0.04195 0.0
C1094 C 0.63196 0.74583 0.06664 0.0
H1095 H 0.62662 0.68527 0.22739 0.0
H1096 H 0.6349 0.71217 0.1843 0.0
H1097 H 0.63903 0.69347 0.07433 0.0
H1098 H 0.63648 0.77469 0.95407 0.0
H1099 H 0.62929 0.74594 0.99422 0.0
C1100 C 0.9569 0.8818 0.27931 0.0
C1101 C 0.96078 0.88985 0.24546 0.0
C1102 C 0.97339 0.87625 0.30146 0.0
C1103 C 0.02903 0.88651 0.31753 0.0
H1104 H 0.02553 0.83671 0.37482 0.0
C1105 C 0.08397 0.86996 0.43575 0.0
C1106 C 0.09054 0.84934 0.44078 0.0
C1107 C 0.06928 0.87479 0.40969 0.0
C1108 C 0.02686 0.85058 0.35877 0.0
H1109 H 0.98506 0.89813 0.20817 0.0
H1110 H 0.01387 0.88833 0.24686 0.0
H1111 H 0.99772 0.84469 0.3332 0.0
H1112 H 0.0874 0.81773 0.42152 0.0
H1113 H 0.062 0.82618 0.37605 0.0
H1114 H 0.05825 0.89232 0.34307 0.0
C1115 C 0.99804 0.88651 0.25634 0.0
C1116 C 0.0108 0.85526 0.3352 0.0
C1117 C 0.98153 0.892 0.23411 0.0
C1118 C 0.08258 0.83376 0.41853 0.0
C1119 C 0.06791 0.83858 0.39257 0.0
C1120 C 0.04508 0.88186 0.34124 0.0
C1121 C 0.99415 0.87867 0.29034 0.0
C1122 C 0.01163 0.87333 0.31444 0.0
C1123 C 0.06084 0.85908 0.38819 0.0
C1124 C 0.04414 0.86387 0.36222 0.0
H1125 H 0.9411 0.87995 0.2889 0.0
H1126 H 0.96986 0.87046 0.32762 0.0
H1127 H 0.03004 0.90065 0.30213 0.0
H1128 H 0.08978 0.88232 0.45248 0.0
H1129 H 0.06404 0.89072 0.40717 0.0
C1130 C 0.85383 0.21294 0.52784 0.0
C1131 C 0.85989 0.21399 0.49225 0.0
C1132 C 0.8561 0.2302 0.54986 0.0
C1133 C 0.88795 0.27651 0.5607 0.0
H1134 H 0.84481 0.29424 0.62579 0.0
C1135 C 0.90098 0.34614 0.65299 0.0
C1136 C 0.89403 0.34385 0.68792 0.0
C1137 C 0.89476 0.33208 0.62697 0.0
C1138 C 0.85709 0.28937 0.60799 0.0
H1139 H 0.87281 0.23401 0.45168 0.0
H1140 H 0.87699 0.26406 0.49032 0.0
H1141 H 0.83786 0.26585 0.58465 0.0
H1142 H 0.87469 0.32534 0.72281 0.0
H1143 H 0.86434 0.30051 0.67778 0.0
H1144 H 0.9075 0.29932 0.58466 0.0
C1145 C 0.87046 0.24989 0.50109 0.0
C1146 C 0.85306 0.27317 0.58441 0.0
C1147 C 0.86797 0.23272 0.47898 0.0
C1148 C 0.88024 0.3276 0.69608 0.0
C1149 C 0.87421 0.3134 0.67016 0.0
C1150 C 0.89206 0.29253 0.5845 0.0
C1151 C 0.8647 0.24874 0.53679 0.0
C1152 C 0.8685 0.26652 0.5607 0.0
C1153 C 0.88166 0.31526 0.63539 0.0
C1154 C 0.87674 0.29909 0.60863 0.0
H1155 H 0.84752 0.19872 0.53878 0.0
H1156 H 0.8517 0.22886 0.57736 0.0
H1157 H 0.90022 0.27148 0.54301 0.0
H1158 H 0.91148 0.35862 0.64583 0.0
H1159 H 0.90046 0.33424 0.60032 0.0
C1160 C 0.57851 0.87347 0.06038 0.0
C1161 C 0.58415 0.85243 0.05737 0.0
C1162 C 0.56454 0.87991 0.08657 0.0
C1163 C 0.53984 0.86323 0.1708 0.0
H1164 H 0.49658 0.90214 0.14363 0.0
C1165 C 0.47738 0.89205 0.26964 0.0
C1166 C 0.45684 0.89326 0.25691 0.0
C1167 C 0.49402 0.88862 0.24646 0.0
C1168 C 0.5085 0.89118 0.15162 0.0
H1169 H 0.57988 0.82176 0.08004 0.0
H1170 H 0.55539 0.83291 0.12516 0.0
H1171 H 0.52379 0.89305 0.10155 0.0
H1172 H 0.43773 0.89215 0.20971 0.0
H1173 H 0.46658 0.88577 0.16953 0.0
H1174 H 0.52408 0.86074 0.22039 0.0
C1175 C 0.56193 0.84452 0.10769 0.0
C1176 C 0.52428 0.88618 0.12763 0.0
C1177 C 0.5759 0.83809 0.08161 0.0
C1178 C 0.45335 0.89125 0.22045 0.0
C1179 C 0.46994 0.88776 0.19733 0.0
C1180 C 0.52403 0.8682 0.19478 0.0
C1181 C 0.5559 0.86547 0.1103 0.0
C1182 C 0.54 0.87194 0.13676 0.0
C1183 C 0.49048 0.88634 0.21002 0.0
C1184 C 0.50801 0.88204 0.18533 0.0
H1185 H 0.58465 0.88492 0.04221 0.0
H1186 H 0.56045 0.89621 0.08813 0.0
H1187 H 0.55186 0.85241 0.17888 0.0
H1188 H 0.48063 0.89366 0.29756 0.0
H1189 H 0.50967 0.88787 0.25708 0.0
C1190 C 0.41777 0.32766 0.83078 0.0
C1191 C 0.40304 0.33641 0.8077 0.0
C1192 C 0.41163 0.31336 0.85648 0.0
C1193 C 0.36992 0.27571 0.87524 0.0
H1194 H 0.3962 0.27301 0.96727 0.0
C1195 C 0.36331 0.22631 0.01397 0.0
C1196 C 0.36173 0.20612 9e-05 0.0
C1197 C 0.36735 0.24321 0.9918 0.0
C1198 C 0.38854 0.27367 0.94183 0.0
H1199 H 0.37018 0.33765 0.79443 0.0
H1200 H 0.35941 0.3129 0.83965 0.0
H1201 H 0.40453 0.30161 0.92747 0.0
H1202 H 0.36294 0.18786 0.95199 0.0
H1203 H 0.37031 0.21721 0.9135 0.0
H1204 H 0.35378 0.24791 0.88968 0.0
C1205 C 0.37578 0.31682 0.83744 0.0
C1206 C 0.39349 0.28994 0.91887 0.0
C1207 C 0.38193 0.3311 0.81167 0.0
C1208 C 0.3641 0.20321 0.96356 0.0
C1209 C 0.36817 0.22007 0.94143 0.0
C1210 C 0.36496 0.25947 0.8982 0.0
C1211 C 0.3906 0.30752 0.85977 0.0
C1212 C 0.38439 0.29104 0.88516 0.0
C1213 C 0.36984 0.24027 0.95527 0.0
C1214 C 0.37438 0.25812 0.9316 0.0
H1215 H 0.43417 0.3314 0.82843 0.0
H1216 H 0.42349 0.30633 0.87294 0.0
H1217 H 0.36279 0.27593 0.84934 0.0
H1218 H 0.36149 0.2291 0.04199 0.0
H1219 H 0.36832 0.2586 0.00324 0.0
C1220 C 0.04538 0.10864 0.71251 0.0
C1221 C 0.04283 0.1084 0.74934 0.0
C1222 C 0.02836 0.11211 0.69033 0.0
C1223 C 0.98831 0.10949 0.6483 0.0
H1224 H 0.94889 0.15258 0.67409 0.0
C1225 C 0.91754 0.12936 0.56036 0.0
C1226 C 0.9138 0.15065 0.555 0.0
C1227 C 0.93152 0.12277 0.58638 0.0
C1228 C 0.95979 0.14053 0.66646 0.0
H1229 H 0.02025 0.11109 0.79173 0.0
H1230 H 0.99046 0.11686 0.75295 0.0
H1231 H 0.97711 0.14371 0.71437 0.0
H1232 H 0.92144 0.18168 0.57333 0.0
H1233 H 0.94592 0.17023 0.6182 0.0
H1234 H 0.9715 0.10689 0.59977 0.0
C1235 C 0.00572 0.11472 0.74125 0.0
C1236 C 0.97583 0.13527 0.68975 0.0
C1237 C 0.02277 0.11129 0.76347 0.0
C1238 C 0.92393 0.16516 0.57677 0.0
C1239 C 0.93789 0.15858 0.60271 0.0
C1240 C 0.97229 0.11476 0.625 0.0
C1241 C 0.00834 0.11531 0.70442 0.0
C1242 C 0.99045 0.11989 0.68073 0.0
C1243 C 0.94204 0.13732 0.60758 0.0
C1244 C 0.95801 0.13055 0.63359 0.0
H1245 H 0.06061 0.10644 0.70073 0.0
H1246 H 0.03101 0.11278 0.66212 0.0
H1247 H 0.99914 0.09736 0.64075 0.0
H1248 H 0.90993 0.11779 0.54409 0.0
H1249 H 0.93417 0.10627 0.58977 0.0
C1250 C 0.15351 0.7926 0.47139 0.0
C1251 C 0.14688 0.79188 0.5067 0.0
C1252 C 0.15125 0.77525 0.44957 0.0
C1253 C 0.11886 0.72956 0.43738 0.0
H1254 H 0.16357 0.7099 0.37711 0.0
C1255 C 0.10693 0.65906 0.34652 0.0
C1256 C 0.11533 0.66047 0.31239 0.0
C1257 C 0.11259 0.67337 0.37251 0.0
C1258 C 0.15085 0.71531 0.39349 0.0
H1259 H 0.13282 0.77243 0.54697 0.0
H1260 H 0.12859 0.74223 0.50858 0.0
H1261 H 0.1699 0.73866 0.41775 0.0
H1262 H 0.13664 0.67768 0.27891 0.0
H1263 H 0.14602 0.70299 0.32377 0.0
H1264 H 0.09951 0.70697 0.4124 0.0
C1265 C 0.13562 0.75619 0.49792 0.0
C1266 C 0.15452 0.73173 0.41683 0.0
C1267 C 0.13814 0.77343 0.51988 0.0
C1268 C 0.12999 0.67609 0.30505 0.0
C1269 C 0.13544 0.69058 0.3309 0.0
C1270 C 0.11509 0.71335 0.41376 0.0
C1271 C 0.14207 0.75697 0.46254 0.0
C1272 C 0.13853 0.73905 0.43884 0.0
C1273 C 0.12656 0.68961 0.36481 0.0
C1274 C 0.131 0.70608 0.39134 0.0
H1275 H 0.16033 0.80662 0.46055 0.0
H1276 H 0.15619 0.7763 0.42229 0.0
H1277 H 0.10619 0.73511 0.45377 0.0
H1278 H 0.09572 0.64707 0.35303 0.0
H1279 H 0.10579 0.67185 0.39854 0.0
C1280 C 0.9382 0.63231 0.44671 0.0
C1281 C 0.92229 0.64659 0.43889 0.0
C1282 C 0.95279 0.62671 0.42099 0.0
C1283 C 0.97504 0.64547 0.33632 0.0
H1284 H 0.99978 0.5905 0.33384 0.0
C1285 C 0.03342 0.61988 0.22827 0.0
C1286 C 0.05176 0.61047 0.24077 0.0
C1287 C 0.01661 0.62333 0.25103 0.0
C1288 C 0.99304 0.60593 0.33433 0.0
H1289 H 0.90867 0.66551 0.39755 0.0
H1290 H 0.93364 0.65524 0.3524 0.0
H1291 H 0.97178 0.59788 0.37561 0.0
H1292 H 0.06667 0.59673 0.28648 0.0
H1293 H 0.03721 0.60257 0.32614 0.0
H1294 H 0.99623 0.65339 0.29476 0.0
C1295 C 0.93529 0.64882 0.37866 0.0
C1296 C 0.97705 0.61021 0.35834 0.0
C1297 C 0.92086 0.6546 0.40449 0.0
C1298 C 0.05277 0.60414 0.2762 0.0
C1299 C 0.03587 0.60734 0.29882 0.0
C1300 C 0.99086 0.64111 0.31207 0.0
C1301 C 0.95168 0.63507 0.38671 0.0
C1302 C 0.96797 0.63011 0.35992 0.0
C1303 C 0.01769 0.61714 0.28656 0.0
C1304 C 1.00017 0.62137 0.31107 0.0
H1305 H 0.93981 0.62596 0.47304 0.0
H1306 H 0.96533 0.61632 0.42839 0.0
H1307 H 0.96876 0.66108 0.33714 0.0
H1308 H 0.03221 0.62494 0.20108 0.0
H1309 H 1.00272 0.63079 0.24083 0.0
C1310 C 0.12146 0.1694 0.6769 0.0
C1311 C 0.10016 0.16569 0.6828 0.0
C1312 C 0.12785 0.18318 0.65052 0.0
C1313 C 0.10946 0.21127 0.57074 0.0
H1314 H 0.15267 0.25065 0.59606 0.0
C1315 C 0.13834 0.27431 0.47379 0.0
C1316 C 0.14111 0.29428 0.48804 0.0
C1317 C 0.13494 0.25727 0.49592 0.0
C1318 C 0.14054 0.23981 0.58862 0.0
H1319 H 0.06888 0.17306 0.66495 0.0
H1320 H 0.07998 0.19726 0.61943 0.0
H1321 H 0.14344 0.22301 0.63703 0.0
H1322 H 0.14321 0.31194 0.53663 0.0
H1323 H 0.13681 0.28237 0.57517 0.0
H1324 H 0.10597 0.22862 0.52295 0.0
C1325 C 0.09179 0.18935 0.6348 0.0
C1326 C 0.13543 0.22379 0.61192 0.0
C1327 C 0.08542 0.17556 0.6611 0.0
C1328 C 0.14087 0.29679 0.52484 0.0
C1329 C 0.13744 0.27979 0.54695 0.0
C1330 C 0.11454 0.22733 0.54747 0.0
C1331 C 0.11306 0.19355 0.62952 0.0
C1332 C 0.11964 0.2095 0.60346 0.0
C1333 C 0.13433 0.25984 0.53276 0.0
C1334 C 0.12994 0.24195 0.55637 0.0
H1335 H 0.13321 0.16196 0.69307 0.0
H1336 H 0.14437 0.18585 0.64677 0.0
H1337 H 0.0974 0.20037 0.56325 0.0
H1338 H 0.13857 0.27185 0.44551 0.0
H1339 H 0.13287 0.24207 0.48418 0.0
C1340 C 0.47718 0.38482 0.7268 0.0
C1341 C 0.45871 0.39385 0.73956 0.0
C1342 C 0.49394 0.38118 0.74956 0.0
C1343 C 0.51776 0.39857 0.83174 0.0
H1344 H 0.54062 0.34293 0.83784 0.0
C1345 C 0.57218 0.37365 0.9453 0.0
C1346 C 0.58724 0.35829 0.93882 0.0
C1347 C 0.55785 0.37913 0.91912 0.0
C1348 C 0.53479 0.35868 0.83605 0.0
H1349 H 0.44337 0.40645 0.78584 0.0
H1350 H 0.47286 0.4005 0.82542 0.0
H1351 H 0.51328 0.35041 0.79513 0.0
H1352 H 0.59983 0.33734 0.89944 0.0
H1353 H 0.5755 0.3475 0.85327 0.0
H1354 H 0.53942 0.40707 0.87206 0.0
C1355 C 0.47429 0.39615 0.79791 0.0
C1356 C 0.51902 0.36289 0.81166 0.0
C1357 C 0.45741 0.39943 0.77533 0.0
C1358 C 0.58824 0.3491 0.90527 0.0
C1359 C 0.57416 0.35482 0.8789 0.0
C1360 C 0.53377 0.39447 0.85574 0.0
C1361 C 0.49265 0.38689 0.78528 0.0
C1362 C 0.51019 0.38279 0.80962 0.0
C1363 C 0.55848 0.3696 0.88567 0.0
C1364 C 0.54233 0.37439 0.85857 0.0
H1365 H 0.47857 0.38026 0.69938 0.0
H1366 H 0.50796 0.37404 0.73924 0.0
H1367 H 0.51132 0.41411 0.83036 0.0
H1368 H 0.57094 0.38088 0.97103 0.0
H1369 H 0.54585 0.39032 0.92562 0.0
C1370 C 0.36443 0.729 0.98187 0.0
C1371 C 0.36178 0.70879 0.99515 0.0
C1372 C 0.36613 0.7459 0.00483 0.0
C1373 C 0.38471 0.77527 0.05858 0.0
H1374 H 0.35509 0.77785 0.14768 0.0
C1375 C 0.41411 0.82409 0.175 0.0
C1376 C 0.39958 0.83384 0.19726 0.0
C1377 C 0.40748 0.81077 0.14824 0.0
C1378 C 0.36329 0.77756 0.12269 0.0
H1379 H 0.35776 0.6906 0.04288 0.0
H1380 H 0.36137 0.71991 0.08288 0.0
H1381 H 0.34595 0.75122 0.10467 0.0
H1382 H 0.36663 0.83767 0.20833 0.0
H1383 H 0.355 0.81458 0.1611 0.0
H1384 H 0.40192 0.8017 0.0764 0.0
C1385 C 0.36189 0.72281 0.05475 0.0
C1386 C 0.35822 0.76213 0.09821 0.0
C1387 C 0.36004 0.70595 0.03179 0.0
C1388 C 0.37821 0.83032 0.19168 0.0
C1389 C 0.37156 0.81701 0.16476 0.0
C1390 C 0.38969 0.79076 0.08295 0.0
C1391 C 0.36529 0.74296 0.04157 0.0
C1392 C 0.36915 0.76055 0.06615 0.0
C1393 C 0.38614 0.80694 0.14292 0.0
C1394 C 0.37934 0.79183 0.1156 0.0
H1395 H 0.3656 0.73176 0.95374 0.0
H1396 H 0.36835 0.76126 0.99377 0.0
H1397 H 0.3936 0.77443 0.03432 0.0
H1398 H 0.43069 0.82641 0.17862 0.0
H1399 H 0.41916 0.80302 0.13234 0.0
C1400 C 0.06792 0.3703 0.54402 0.0
C1401 C 0.08158 0.35371 0.55089 0.0
C1402 C 0.05368 0.37679 0.56968 0.0
C1403 C 0.04263 0.37684 0.6644 0.0
H1404 H 0.98461 0.3786 0.63604 0.0
C1405 C 0.97571 0.38355 0.76599 0.0
C1406 C 0.95763 0.39434 0.75604 0.0
C1407 C 0.99152 0.37981 0.74137 0.0
C1408 C 1.00075 0.37861 0.64439 0.0
H1409 H 0.0916 0.33144 0.59037 0.0
H1410 H 0.06696 0.34312 0.63542 0.0
H1411 H 0.01135 0.37079 0.59246 0.0
H1412 H 0.9422 0.41048 0.71327 0.0
H1413 H 0.97004 0.40477 0.6707 0.0
H1414 H 0.0322 0.38502 0.71617 0.0
C1415 C 0.06721 0.35096 0.61013 0.0
C1416 C 0.01605 0.37404 0.61936 0.0
C1417 C 0.08122 0.34423 0.58429 0.0
C1418 C 0.95589 0.40186 0.72143 0.0
C1419 C 0.97181 0.39845 0.697 0.0
C1420 C 0.02736 0.38174 0.68939 0.0
C1421 C 0.05308 0.36706 0.60284 0.0
C1422 C 0.0371 0.37296 0.62918 0.0
C1423 C 0.98973 0.38712 0.70646 0.0
C1424 C 0.00617 0.38254 0.67977 0.0
H1425 H 0.06781 0.37786 0.51849 0.0
H1426 H 0.04301 0.38933 0.56352 0.0
H1427 H 0.05881 0.37623 0.67255 0.0
H1428 H 0.97738 0.37749 0.79251 0.0
H1429 H 0.00489 0.37075 0.74956 0.0
C1430 C 0.86557 0.81034 0.27888 0.0
C1431 C 0.87799 0.82794 0.28508 0.0
C1432 C 0.86153 0.79623 0.30601 0.0
C1433 C 0.86074 0.7889 0.40189 0.0
H1434 H 0.87457 0.73175 0.37944 0.0
C1435 C 0.86717 0.72497 0.50883 0.0
C1436 C 0.86121 0.7047 0.49958 0.0
C1437 C 0.86779 0.74064 0.48328 0.0
C1438 C 0.87024 0.74753 0.38609 0.0
H1439 H 0.895 0.84514 0.32502 0.0
H1440 H 0.88765 0.82055 0.3726 0.0
H1441 H 0.87714 0.75825 0.33395 0.0
H1442 H 0.85032 0.68508 0.45695 0.0
H1443 H 0.85065 0.71246 0.41273 0.0
H1444 H 0.85352 0.77818 0.45394 0.0
C1445 C 0.88117 0.81768 0.34666 0.0
C1446 C 0.8718 0.76273 0.35999 0.0
C1447 C 0.88544 0.83168 0.3194 0.0
C1448 C 0.85527 0.70052 0.46467 0.0
C1449 C 0.85559 0.71621 0.43929 0.0
C1450 C 0.85889 0.77363 0.42797 0.0
C1451 C 0.8696 0.79958 0.33998 0.0
C1452 C 0.86713 0.78355 0.36764 0.0
C1453 C 0.86216 0.73641 0.4481 0.0
C1454 C 0.86368 0.75274 0.42041 0.0
H1455 H 0.85957 0.80702 0.25277 0.0
H1456 H 0.8524 0.78248 0.3003 0.0
H1457 H 0.85696 0.80486 0.40837 0.0
H1458 H 0.8719 0.72859 0.53557 0.0
H1459 H 0.87319 0.75592 0.49097 0.0
C1460 C 0.43317 0.63077 0.05131 0.0
C1461 C 0.41846 0.64644 0.05793 0.0
C1462 C 0.44797 0.6255 0.07692 0.0
C1463 C 0.47269 0.64686 0.15816 0.0
H1464 H 0.49538 0.59118 0.16576 0.0
C1465 C 0.52962 0.62181 0.26872 0.0
C1466 C 0.54799 0.6122 0.25685 0.0
C1467 C 0.51304 0.62521 0.2455 0.0
C1468 C 0.48918 0.6068 0.16381 0.0
H1469 H 0.40696 0.66817 0.09704 0.0
H1470 H 0.43202 0.65836 0.14225 0.0
H1471 H 0.46716 0.59807 0.12416 0.0
H1472 H 0.56326 0.59809 0.2118 0.0
H1473 H 0.53405 0.60367 0.17134 0.0
H1474 H 0.4945 0.65538 0.19846 0.0
C1475 C 0.43279 0.65064 0.1169 0.0
C1476 C 0.47309 0.61081 0.13986 0.0
C1477 C 0.41827 0.65616 0.09109 0.0
C1478 C 0.54931 0.60565 0.22155 0.0
C1479 C 0.53258 0.60871 0.19851 0.0
C1480 C 0.48852 0.64275 0.18248 0.0
C1481 C 0.44815 0.63556 0.10995 0.0
C1482 C 0.46471 0.63095 0.13648 0.0
C1483 C 0.51437 0.61869 0.21019 0.0
C1484 C 0.49703 0.62274 0.18533 0.0
H1485 H 0.4338 0.62314 0.02585 0.0
H1486 H 0.45968 0.61403 0.07027 0.0
H1487 H 0.46706 0.66266 0.15588 0.0
H1488 H 0.52821 0.62706 0.29578 0.0
H1489 H 0.49911 0.63286 0.25516 0.0
C1490 C 0.64284 0.2782 0.01741 0.0
C1491 C 0.64543 0.29845 0.00424 0.0
C1492 C 0.64083 0.26137 0.99435 0.0
C1493 C 0.64843 0.24546 0.90072 0.0
H1494 H 0.60551 0.20511 0.92281 0.0
C1495 C 0.62961 0.17686 0.80733 0.0
C1496 C 0.60832 0.1728 0.80197 0.0
C1497 C 0.63603 0.19036 0.83417 0.0
C1498 C 0.61752 0.21628 0.91618 0.0
H1499 H 0.64899 0.31676 0.95656 0.0
H1500 H 0.64483 0.28759 0.9164 0.0
H1501 H 0.61349 0.23249 0.96491 0.0
H1502 H 0.5771 0.17948 0.82095 0.0
H1503 H 0.58821 0.20318 0.86706 0.0
H1504 H 0.65171 0.22982 0.85122 0.0
C1505 C 0.64456 0.2846 0.94451 0.0
C1506 C 0.6223 0.23184 0.94055 0.0
C1507 C 0.64669 0.30139 0.96756 0.0
C1508 C 0.59364 0.18221 0.82438 0.0
C1509 C 0.60003 0.19571 0.85106 0.0
C1510 C 0.64357 0.22994 0.87625 0.0
C1511 C 0.64135 0.2644 0.95759 0.0
C1512 C 0.63759 0.24682 0.93291 0.0
C1513 C 0.62128 0.20008 0.85617 0.0
C1514 C 0.6278 0.21538 0.88344 0.0
H1515 H 0.64202 0.27537 0.04555 0.0
H1516 H 0.63874 0.24597 0.00534 0.0
H1517 H 0.66052 0.25655 0.8942 0.0
H1518 H 0.64131 0.16979 0.79058 0.0
H1519 H 0.65253 0.19319 0.83766 0.0
C1520 C 0.28025 0.1864 0.17845 0.0
C1521 C 0.30014 0.19152 0.16558 0.0
C1522 C 0.2692 0.20039 0.19961 0.0
C1523 C 0.26594 0.25638 0.22 0.0
H1524 H 0.23226 0.23788 0.29892 0.0
C1525 C 0.22629 0.31317 0.31764 0.0
C1526 C 0.20609 0.30814 0.3292 0.0
C1527 C 0.23773 0.29914 0.29715 0.0
C1528 C 0.24141 0.24326 0.27671 0.0
H1529 H 0.32434 0.21507 0.16593 0.0
H1530 H 0.30521 0.2393 0.20324 0.0
H1531 H 0.2528 0.21266 0.26577 0.0
H1532 H 0.18185 0.28464 0.32743 0.0
H1533 H 0.20173 0.26031 0.29144 0.0
H1534 H 0.25455 0.28698 0.23099 0.0
C1535 C 0.29797 0.22464 0.19642 0.0
C1536 C 0.2532 0.22881 0.25774 0.0
C1537 C 0.309 0.21067 0.17524 0.0
C1538 C 0.1974 0.28899 0.31908 0.0
C1539 C 0.20884 0.27496 0.29867 0.0
C1540 C 0.25417 0.27083 0.23901 0.0
C1541 C 0.27781 0.2198 0.20841 0.0
C1542 C 0.26559 0.23519 0.22912 0.0
C1543 C 0.22923 0.27976 0.28784 0.0
C1544 C 0.24173 0.26443 0.26753 0.0
H1545 H 0.27294 0.1718 0.17143 0.0
H1546 H 0.25364 0.19624 0.20814 0.0
H1547 H 0.27502 0.26177 0.19772 0.0
H1548 H 0.23347 0.32776 0.32503 0.0
H1549 H 0.25346 0.30324 0.28945 0.0
C1550 C 0.5648 0.53097 0.4311 0.0
C1551 C 0.55904 0.55048 0.4176 0.0
C1552 C 0.55047 0.51896 0.44999 0.0
C1553 C 0.50045 0.52177 0.49859 0.0
H1554 H 0.49832 0.46265 0.47905 0.0
C1555 C 0.43545 0.46954 0.55496 0.0
C1556 C 0.44201 0.45068 0.57002 0.0
C1557 C 0.44919 0.48141 0.5346 0.0
C1558 C 0.49882 0.4791 0.48498 0.0
H1559 H 0.53383 0.57289 0.41408 0.0
H1560 H 0.50885 0.55188 0.44673 0.0
H1561 H 0.52381 0.48431 0.44866 0.0
H1562 H 0.4679 0.42911 0.57435 0.0
H1563 H 0.4918 0.44979 0.5389 0.0
H1564 H 0.47545 0.51654 0.5349 0.0
C1565 C 0.52449 0.54593 0.44304 0.0
C1566 C 0.51347 0.49151 0.46766 0.0
C1567 C 0.53881 0.55795 0.4242 0.0
C1568 C 0.46234 0.44357 0.56315 0.0
C1569 C 0.47603 0.45539 0.5427 0.0
C1570 C 0.48577 0.50937 0.51584 0.0
C1571 C 0.53007 0.52618 0.45578 0.0
C1572 C 0.51452 0.51299 0.47435 0.0
C1573 C 0.46973 0.47462 0.52872 0.0
C1574 C 0.48482 0.48788 0.50932 0.0
H1575 H 0.58027 0.52478 0.4266 0.0
H1576 H 0.55539 0.50397 0.45997 0.0
H1577 H 0.50101 0.5382 0.5047 0.0
H1578 H 0.41989 0.47545 0.55969 0.0
H1579 H 0.44378 0.49601 0.52374 0.0
C1580 C 0.22204 0.81445 0.68505 0.0
C1581 C 0.20321 0.80756 0.67012 0.0
C1582 C 0.23422 0.80105 0.70551 0.0
C1583 C 0.24397 0.74523 0.7206 0.0
H1584 H 0.27215 0.76453 0.80495 0.0
C1585 C 0.28678 0.68958 0.81604 0.0
C1586 C 0.30562 0.69645 0.83095 0.0
C1587 C 0.27449 0.70306 0.79593 0.0
C1588 C 0.2646 0.75896 0.78121 0.0
H1589 H 0.18217 0.7813 0.66579 0.0
H1590 H 0.2033 0.75802 0.70178 0.0
H1591 H 0.24986 0.78831 0.77202 0.0
H1592 H 0.32653 0.72279 0.83574 0.0
H1593 H 0.30521 0.74621 0.8003 0.0
H1594 H 0.25873 0.71589 0.72975 0.0
C1595 C 0.20881 0.7737 0.69721 0.0
C1596 C 0.25179 0.77259 0.76237 0.0
C1597 C 0.19661 0.78711 0.6768 0.0
C1598 C 0.31208 0.717 0.82472 0.0
C1599 C 0.29978 0.73048 0.80462 0.0
C1600 C 0.25679 0.7316 0.73943 0.0
C1601 C 0.22787 0.78044 0.71149 0.0
C1602 C 0.24131 0.76589 0.73184 0.0
C1603 C 0.28074 0.72374 0.79026 0.0
C1604 C 0.26727 0.73829 0.76997 0.0
H1605 H 0.22762 0.8301 0.68037 0.0
H1606 H 0.24891 0.80669 0.71582 0.0
H1607 H 0.23642 0.73966 0.69686 0.0
H1608 H 0.2813 0.67387 0.8204 0.0
H1609 H 0.25981 0.69741 0.78558 0.0
C1610 C 0.04501 0.55844 0.06994 0.0
C1611 C 0.06467 0.55023 0.07854 0.0
C1612 C 0.03095 0.54694 0.04969 0.0
C1613 C 0.01848 0.49301 0.02511 0.0
H1614 H 0.98399 0.51902 0.95364 0.0
C1615 C 0.96672 0.44616 0.92909 0.0
C1616 C 0.94702 0.45434 0.92067 0.0
C1617 C 0.98082 0.45767 0.94924 0.0
C1618 C 0.99332 0.51158 0.97383 0.0
H1619 H 0.08523 0.52375 0.07166 0.0
H1620 H 0.06075 0.5038 0.03597 0.0
H1621 H 0.00967 0.53975 0.98538 0.0
H1622 H 0.92645 0.4808 0.92771 0.0
H1623 H 0.95101 0.50078 0.96321 0.0
H1624 H 1.00213 0.46484 0.01355 0.0
C1625 C 0.0561 0.519 0.04539 0.0
C1626 C 0.00807 0.52345 0.99195 0.0
C1627 C 0.07018 0.53051 0.06561 0.0
C1628 C 0.94153 0.47406 0.93363 0.0
C1629 C 0.95565 0.48558 0.95375 0.0
C1630 C 0.00373 0.48114 0.00698 0.0
C1631 C 0.03622 0.52697 0.0376 0.0
C1632 C 0.02082 0.5143 0.0178 0.0
C1633 C 0.97555 0.47762 0.96139 0.0
C1634 C 0.99098 0.49029 0.98114 0.0
H1635 H 0.04025 0.57357 0.07952 0.0
H1636 H 0.0157 0.55346 0.04443 0.0
H1637 H 0.0278 0.48557 0.04531 0.0
H1638 H 0.97147 0.43103 0.91947 0.0
H1639 H 0.99609 0.45117 0.95439 0.0
C1640 C 0.72894 0.81584 0.82077 0.0
C1641 C 0.70921 0.81005 0.83355 0.0
C1642 C 0.74049 0.80224 0.79963 0.0
C1643 C 0.73589 0.75526 0.74356 0.0
H1644 H 0.79507 0.74979 0.76224 0.0
C1645 C 0.78522 0.68997 0.68113 0.0
C1646 C 0.80484 0.69558 0.66764 0.0
C1647 C 0.77382 0.70387 0.7019 0.0
C1648 C 0.77861 0.75128 0.75646 0.0
H1649 H 0.68596 0.78557 0.83348 0.0
H1650 H 0.70615 0.76183 0.7969 0.0
H1651 H 0.77442 0.77458 0.79613 0.0
H1652 H 0.82807 0.72007 0.66614 0.0
H1653 H 0.80813 0.74432 0.7023 0.0
H1654 H 0.74007 0.7319 0.70399 0.0
C1655 C 0.71264 0.77696 0.8029 0.0
C1656 C 0.76676 0.76552 0.77583 0.0
C1657 C 0.70108 0.79055 0.82402 0.0
C1658 C 0.81302 0.71522 0.67615 0.0
C1659 C 0.80163 0.72911 0.69699 0.0
C1660 C 0.74772 0.741 0.72423 0.0
C1661 C 0.73258 0.78254 0.79077 0.0
C1662 C 0.74525 0.76767 0.76965 0.0
C1663 C 0.78177 0.72369 0.70975 0.0
C1664 C 0.76921 0.73881 0.7305 0.0
H1665 H 0.73564 0.83076 0.82751 0.0
H1666 H 0.75566 0.80716 0.79027 0.0
H1667 H 0.71943 0.75674 0.73774 0.0
H1668 H 0.77847 0.67495 0.67519 0.0
H1669 H 0.75872 0.69909 0.71179 0.0
C1670 C 0.72277 0.31867 0.1838 0.0
C1671 C 0.70391 0.31198 0.16877 0.0
C1672 C 0.73482 0.30508 0.20411 0.0
C1673 C 0.74425 0.2492 0.21785 0.0
H1674 H 0.77223 0.26752 0.30301 0.0
C1675 C 0.78659 0.19263 0.31229 0.0
C1676 C 0.80535 0.19939 0.32759 0.0
C1677 C 0.77444 0.20625 0.29223 0.0
C1678 C 0.76473 0.26223 0.27904 0.0
H1679 H 0.68261 0.28593 0.16416 0.0
H1680 H 0.70353 0.26232 0.19984 0.0
H1681 H 0.75007 0.29171 0.27066 0.0
H1682 H 0.82637 0.22562 0.33294 0.0
H1683 H 0.80531 0.24927 0.29758 0.0
H1684 H 0.75894 0.21973 0.22616 0.0
C1685 C 0.70916 0.27798 0.19549 0.0
C1686 C 0.752 0.27609 0.26055 0.0
C1687 C 0.69709 0.29157 0.17525 0.0
C1688 C 0.81195 0.21992 0.32164 0.0
C1689 C 0.79981 0.23353 0.3016 0.0
C1690 C 0.757 0.23534 0.23631 0.0
C1691 C 0.72829 0.2845 0.20978 0.0
C1692 C 0.74161 0.26973 0.22975 0.0
C1693 C 0.78078 0.22693 0.28702 0.0
C1694 C 0.76739 0.2417 0.26712 0.0
H1695 H 0.72849 0.33428 0.17929 0.0
H1696 H 0.74956 0.31053 0.21452 0.0
H1697 H 0.73675 0.24391 0.19388 0.0
H1698 H 0.78102 0.17693 0.31642 0.0
H1699 H 0.75978 0.20072 0.28164 0.0
C1700 C 0.06566 0.03468 0.93555 0.0
C1701 C 0.05882 0.05293 0.9188 0.0
C1702 C 0.05185 0.02279 0.95572 0.0
C1703 C 1.00103 0.02462 0.00181 0.0
H1704 H 1.00194 0.96491 0.98811 0.0
C1705 C 0.9374 0.97152 0.06018 0.0
C1706 C 0.9444 0.95328 0.07679 0.0
C1707 C 0.951 0.98336 0.03952 0.0
C1708 C 1.0016 0.98154 0.99246 0.0
H1709 H 0.03229 0.07337 0.91107 0.0
H1710 H 0.00826 0.05262 0.94609 0.0
H1711 H 0.02701 0.98667 0.95692 0.0
H1712 H 0.97098 0.9328 0.08369 0.0
H1713 H 0.99464 0.95348 0.04792 0.0
H1714 H 0.97566 0.0195 0.03741 0.0
C1715 C 0.0243 0.04754 0.94383 0.0
C1716 C 0.016 0.994 0.97467 0.0
C1717 C 0.03808 0.0594 0.92363 0.0
C1718 C 0.96506 0.94676 0.07127 0.0
C1719 C 0.97863 0.95858 0.05062 0.0
C1720 C 0.98664 0.01216 0.01961 0.0
C1721 C 0.03093 0.02893 0.95964 0.0
C1722 C 0.0159 0.01568 0.97917 0.0
C1723 C 0.97187 0.9772 0.03499 0.0
C1724 C 0.98676 0.99047 0.01516 0.0
H1725 H 0.08154 0.02928 0.93242 0.0
H1726 H 0.05751 0.00869 0.96804 0.0
H1727 H 1.00071 0.04125 0.00616 0.0
H1728 H 0.92157 0.97695 0.06382 0.0
H1729 H 0.94523 0.99746 0.02736 0.0
C1730 C 0.56945 0.02915 0.5668 0.0
C1731 C 0.56451 0.04913 0.57927 0.0
C1732 C 0.55519 0.01804 0.54627 0.0
C1733 C 0.5079 0.02386 0.4912 0.0
H1734 H 0.4999 0.96553 0.51302 0.0
C1735 C 0.44055 0.9763 0.4308 0.0
C1736 C 0.44548 0.95627 0.41859 0.0
C1737 C 0.45482 0.9875 0.45117 0.0
C1738 C 0.50208 0.98175 0.50636 0.0
H1739 H 0.54091 0.0733 0.57914 0.0
H1740 H 0.51605 0.05387 0.54353 0.0
H1741 H 0.52583 0.98555 0.54546 0.0
H1742 H 0.46911 0.93212 0.4189 0.0
H1743 H 0.49399 0.9517 0.45419 0.0
H1744 H 0.48415 0.02006 0.45209 0.0
C1745 C 0.531 0.04685 0.54937 0.0
C1746 C 0.51698 0.99322 0.5249 0.0
C1747 C 0.54524 0.05796 0.56992 0.0
C1748 C 0.46478 0.9475 0.42794 0.0
C1749 C 0.47903 0.9587 0.44831 0.0
C1750 C 0.49301 0.01239 0.47265 0.0
C1751 C 0.53569 0.02665 0.53771 0.0
C1752 C 0.52008 0.01441 0.51753 0.0
C1753 C 0.47433 0.97893 0.45981 0.0
C1754 C 0.48992 0.9912 0.48001 0.0
H1755 H 0.58418 0.02191 0.57342 0.0
H1756 H 0.55942 0.00264 0.53721 0.0
H1757 H 0.51009 0.04009 0.48456 0.0
H1758 H 0.4258 0.98349 0.42417 0.0
H1759 H 0.45059 0.00293 0.4601 0.0
loop_
_geom_bond_atom_site_label_1
_geom_bond_atom_site_label_2
_geom_bond_distance
_geom_bond_site_symmetry_2
_ccdc_geom_bond_type
Zn0 O6 1.969 . S
Zn0 O7 1.965 . S
Zn0 O11 2.024 . S
Zn0 O16 1.969 . S
Zn1 O8 1.969 . S
Zn1 O14 1.969 1_554 S
Zn1 O15 1.965 . S
Zn1 O17 2.024 . S
C2 O3 1.229 . S
C2 O11 1.058 . S
O3 C2 1.229 . S
C4 O5 1.229 . S
C4 O17 1.058 . S
O5 C4 1.229 . S
O6 Zn0 1.969 . S
O6 C9 1.267 . S
O7 Zn0 1.965 . S
O7 C18 1.260 . S
O8 Zn1 1.969 . S
O8 C18 1.258 . S
C9 O6 1.267 . S
C9 O10 1.228 . S
O10 C9 1.228 . S
O11 Zn0 2.024 . S
O11 C2 1.058 . S
C12 O13 1.228 . S
C12 O14 1.267 . S
O13 C12 1.228 . S
O14 Zn1 1.969 1_556 S
O14 C12 1.267 . S
O15 Zn1 1.965 . S
O15 C19 1.260 . S
O16 Zn0 1.969 . S
O16 C19 1.258 . S
O17 Zn1 2.024 . S
O17 C4 1.058 . S
C18 O7 1.260 . S
C18 O8 1.258 . S
C19 O15 1.260 . S
C19 O16 1.258 . S
Zn20 O26 1.969 . S
Zn20 O27 1.965 . S
Zn20 O31 2.024 . S
Zn20 O36 1.969 . S
Zn21 O28 1.969 . S
Zn21 O34 1.969 . S
Zn21 O35 1.965 . S
Zn21 O37 2.024 . S
C22 O23 1.229 . S
C22 O31 1.058 . S
O23 C22 1.229 . S
C24 O25 1.229 . S
C24 O37 1.058 . S
O25 C24 1.229 . S
O26 Zn20 1.969 . S
O26 C29 1.267 . S
O27 Zn20 1.965 . S
O27 C38 1.260 . S
O28 Zn21 1.969 . S
O28 C38 1.258 . S
C29 O26 1.267 . S
C29 O30 1.228 . S
O30 C29 1.228 . S
O31 Zn20 2.024 . S
O31 C22 1.058 . S
C32 O33 1.228 . S
C32 O34 1.267 . S
O33 C32 1.228 . S
O34 Zn21 1.969 . S
O34 C32 1.267 . S
O35 Zn21 1.965 . S
O35 C39 1.260 . S
O36 Zn20 1.969 . S
O36 C39 1.258 . S
O37 Zn21 2.024 . S
O37 C24 1.058 . S
C38 O27 1.260 . S
C38 O28 1.258 . S
C39 O35 1.260 . S
C39 O36 1.258 . S
Zn40 O46 1.969 . S
Zn40 O47 1.965 . S
Zn40 O51 2.024 . S
Zn40 O56 1.969 . S
Zn41 O48 1.969 . S
Zn41 O54 1.969 . S
Zn41 O55 1.965 . S
Zn41 O57 2.024 . S
C42 O43 1.229 . S
C42 O51 1.058 . S
O43 C42 1.229 . S
C44 O45 1.229 . S
C44 O57 1.058 . S
O45 C44 1.229 . S
O46 Zn40 1.969 . S
O46 C49 1.267 . S
O47 Zn40 1.965 . S
O47 C58 1.260 . S
O48 Zn41 1.969 . S
O48 C58 1.258 . S
C49 O46 1.267 . S
C49 O50 1.228 . S
O50 C49 1.228 . S
O51 Zn40 2.024 . S
O51 C42 1.058 . S
C52 O53 1.228 . S
C52 O54 1.267 . S
O53 C52 1.228 . S
O54 Zn41 1.969 . S
O54 C52 1.267 . S
O55 Zn41 1.965 . S
O55 C59 1.260 . S
O56 Zn40 1.969 . S
O56 C59 1.258 . S
O57 Zn41 2.024 . S
O57 C44 1.058 . S
C58 O47 1.260 . S
C58 O48 1.258 . S
C59 O55 1.260 . S
C59 O56 1.258 . S
Zn60 O66 1.969 . S
Zn60 O67 1.965 . S
Zn60 O71 2.024 . S
Zn60 O76 1.969 . S
Zn61 O68 1.969 . S
Zn61 O74 1.969 . S
Zn61 O75 1.965 . S
Zn61 O77 2.024 . S
C62 O63 1.229 . S
C62 O71 1.058 . S
O63 C62 1.229 . S
C64 O65 1.229 . S
C64 O77 1.058 . S
O65 C64 1.229 . S
O66 Zn60 1.969 . S
O66 C69 1.267 . S
O67 Zn60 1.965 . S
O67 C78 1.260 . S
O68 Zn61 1.969 . S
O68 C78 1.258 . S
C69 O66 1.267 . S
C69 O70 1.228 . S
O70 C69 1.228 . S
O71 Zn60 2.024 . S
O71 C62 1.058 . S
C72 O73 1.228 . S
C72 O74 1.267 . S
O73 C72 1.228 . S
O74 Zn61 1.969 . S
O74 C72 1.267 . S
O75 Zn61 1.965 . S
O75 C79 1.260 . S
O76 Zn60 1.969 . S
O76 C79 1.258 . S
O77 Zn61 2.024 . S
O77 C64 1.058 . S
C78 O67 1.260 . S
C78 O68 1.258 . S
C79 O75 1.260 . S
C79 O76 1.258 . S
Zn80 O86 1.969 1_556 S
Zn80 O87 1.965 . S
Zn80 O91 2.024 . S
Zn80 O96 1.969 . S
Zn81 O88 1.969 . S
Zn81 O94 1.969 . S
Zn81 O95 1.965 . S
Zn81 O97 2.024 . S
C82 O83 1.229 . S
C82 O91 1.058 . S
O83 C82 1.229 . S
C84 O85 1.229 . S
C84 O97 1.058 . S
O85 C84 1.229 . S
O86 Zn80 1.969 1_554 S
O86 C89 1.267 . S
O87 Zn80 1.965 . S
O87 C98 1.260 . S
O88 Zn81 1.969 . S
O88 C98 1.258 . S
C89 O86 1.267 . S
C89 O90 1.228 . S
O90 C89 1.228 . S
O91 Zn80 2.024 . S
O91 C82 1.058 . S
C92 O93 1.228 . S
C92 O94 1.267 . S
O93 C92 1.228 . S
O94 Zn81 1.969 . S
O94 C92 1.267 . S
O95 Zn81 1.965 . S
O95 C99 1.260 . S
O96 Zn80 1.969 . S
O96 C99 1.258 . S
O97 Zn81 2.024 . S
O97 C84 1.058 . S
C98 O87 1.260 . S
C98 O88 1.258 . S
C99 O95 1.260 . S
C99 O96 1.258 . S
Zn100 O106 1.969 . S
Zn100 O107 1.965 . S
Zn100 O111 2.024 . S
Zn100 O116 1.969 . S
Zn101 O108 1.969 . S
Zn101 O114 1.969 . S
Zn101 O115 1.965 . S
Zn101 O117 2.024 . S
C102 O103 1.229 . S
C102 O111 1.058 . S
O103 C102 1.229 . S
C104 O105 1.229 . S
C104 O117 1.058 . S
O105 C104 1.229 . S
O106 Zn100 1.969 . S
O106 C109 1.267 . S
O107 Zn100 1.965 . S
O107 C118 1.260 . S
O108 Zn101 1.969 . S
O108 C118 1.258 . S
C109 O106 1.267 . S
C109 O110 1.228 . S
O110 C109 1.228 . S
O111 Zn100 2.024 . S
O111 C102 1.058 . S
C112 O113 1.228 . S
C112 O114 1.267 . S
O113 C112 1.228 . S
O114 Zn101 1.969 . S
O114 C112 1.267 . S
O115 Zn101 1.965 . S
O115 C119 1.260 . S
O116 Zn100 1.969 . S
O116 C119 1.258 . S
O117 Zn101 2.024 . S
O117 C104 1.058 . S
C118 O107 1.260 . S
C118 O108 1.258 . S
C119 O115 1.260 . S
C119 O116 1.258 . S
Zn120 O126 1.969 . S
Zn120 O127 1.965 . S
Zn120 O131 2.024 . S
Zn120 O136 1.969 . S
Zn121 O128 1.969 . S
Zn121 O134 1.969 . S
Zn121 O135 1.965 . S
Zn121 O137 2.024 . S
C122 O123 1.229 . S
C122 O131 1.058 . S
O123 C122 1.229 . S
C124 O125 1.229 . S
C124 O137 1.058 . S
O125 C124 1.229 . S
O126 Zn120 1.969 . S
O126 C129 1.267 . S
O127 Zn120 1.965 . S
O127 C138 1.260 . S
O128 Zn121 1.969 . S
O128 C138 1.258 . S
C129 O126 1.267 . S
C129 O130 1.228 . S
O130 C129 1.228 . S
O131 Zn120 2.024 . S
O131 C122 1.058 . S
C132 O133 1.228 . S
C132 O134 1.267 . S
O133 C132 1.228 . S
O134 Zn121 1.969 . S
O134 C132 1.267 . S
O135 Zn121 1.965 . S
O135 C139 1.260 . S
O136 Zn120 1.969 . S
O136 C139 1.258 . S
O137 Zn121 2.024 . S
O137 C124 1.058 . S
C138 O127 1.260 . S
C138 O128 1.258 . S
C139 O135 1.260 . S
C139 O136 1.258 . S
Zn140 O146 1.969 . S
Zn140 O147 1.965 . S
Zn140 O151 2.024 . S
Zn140 O156 1.969 . S
Zn141 O148 1.969 . S
Zn141 O154 1.969 . S
Zn141 O155 1.965 . S
Zn141 O157 2.024 . S
C142 O143 1.229 . S
C142 O151 1.058 . S
O143 C142 1.229 . S
C144 O145 1.229 . S
C144 O157 1.058 . S
O145 C144 1.229 . S
O146 Zn140 1.969 . S
O146 C149 1.267 . S
O147 Zn140 1.965 . S
O147 C158 1.260 . S
O148 Zn141 1.969 . S
O148 C158 1.258 . S
C149 O146 1.267 . S
C149 O150 1.228 . S
O150 C149 1.228 . S
O151 Zn140 2.024 . S
O151 C142 1.058 . S
C152 O153 1.228 . S
C152 O154 1.267 . S
O153 C152 1.228 . S
O154 Zn141 1.969 . S
O154 C152 1.267 . S
O155 Zn141 1.965 . S
O155 C159 1.260 . S
O156 Zn140 1.969 . S
O156 C159 1.258 . S
O157 Zn141 2.024 . S
O157 C144 1.058 . S
C158 O147 1.260 . S
C158 O148 1.258 . S
C159 O155 1.260 . S
C159 O156 1.258 . S
Zn160 O166 1.969 . S
Zn160 O167 1.965 . S
Zn160 O171 2.024 . S
Zn160 O176 1.969 . S
Zn161 O168 1.969 . S
Zn161 O174 1.969 . S
Zn161 O175 1.965 . S
Zn161 O177 2.024 . S
C162 O163 1.229 . S
C162 O171 1.058 . S
O163 C162 1.229 . S
C164 O165 1.229 . S
C164 O177 1.058 . S
O165 C164 1.229 . S
O166 Zn160 1.969 . S
O166 C169 1.267 . S
O167 Zn160 1.965 . S
O167 C178 1.260 . S
O168 Zn161 1.969 . S
O168 C178 1.258 . S
C169 O166 1.267 . S
C169 O170 1.228 . S
O170 C169 1.228 . S
O171 Zn160 2.024 . S
O171 C162 1.058 . S
C172 O173 1.228 . S
C172 O174 1.267 . S
O173 C172 1.228 . S
O174 Zn161 1.969 . S
O174 C172 1.267 . S
O175 Zn161 1.965 . S
O175 C179 1.260 . S
O176 Zn160 1.969 . S
O176 C179 1.258 . S
O177 Zn161 2.024 . S
O177 C164 1.058 . S
C178 O167 1.260 . S
C178 O168 1.258 . S
C179 O175 1.260 . S
C179 O176 1.258 . S
Zn180 O186 1.969 . S
Zn180 O187 1.965 . S
Zn180 O191 2.024 . S
Zn180 O196 1.969 . S
Zn181 O188 1.969 . S
Zn181 O194 1.969 . S
Zn181 O195 1.965 . S
Zn181 O197 2.024 . S
C182 O183 1.229 . S
C182 O191 1.058 . S
O183 C182 1.229 . S
C184 O185 1.229 . S
C184 O197 1.058 . S
O185 C184 1.229 . S
O186 Zn180 1.969 . S
O186 C189 1.267 . S
O187 Zn180 1.965 . S
O187 C198 1.260 . S
O188 Zn181 1.969 . S
O188 C198 1.258 . S
C189 O186 1.267 . S
C189 O190 1.228 . S
O190 C189 1.228 . S
O191 Zn180 2.024 . S
O191 C182 1.058 . S
C192 O193 1.228 . S
C192 O194 1.267 . S
O193 C192 1.228 . S
O194 Zn181 1.969 . S
O194 C192 1.267 . S
O195 Zn181 1.965 . S
O195 C199 1.260 . S
O196 Zn180 1.969 . S
O196 C199 1.258 . S
O197 Zn181 2.024 . S
O197 C184 1.058 . S
C198 O187 1.260 . S
C198 O188 1.258 . S
C199 O195 1.260 . S
C199 O196 1.258 . S
Zn200 O206 1.969 . S
Zn200 O207 1.965 . S
Zn200 O211 2.024 . S
Zn200 O216 1.969 . S
Zn201 O208 1.969 . S
Zn201 O214 1.969 1_554 S
Zn201 O215 1.965 . S
Zn201 O217 2.024 . S
C202 O203 1.229 . S
C202 O211 1.058 . S
O203 C202 1.229 . S
C204 O205 1.229 . S
C204 O217 1.058 . S
O205 C204 1.229 . S
O206 Zn200 1.969 . S
O206 C209 1.267 . S
O207 Zn200 1.965 . S
O207 C218 1.260 . S
O208 Zn201 1.969 . S
O208 C218 1.258 . S
C209 O206 1.267 . S
C209 O210 1.228 . S
O210 C209 1.228 . S
O211 Zn200 2.024 . S
O211 C202 1.058 . S
C212 O213 1.228 . S
C212 O214 1.267 . S
O213 C212 1.228 . S
O214 Zn201 1.969 1_556 S
O214 C212 1.267 . S
O215 Zn201 1.965 . S
O215 C219 1.260 . S
O216 Zn200 1.969 . S
O216 C219 1.258 . S
O217 Zn201 2.024 . S
O217 C204 1.058 . S
C218 O207 1.260 . S
C218 O208 1.258 . S
C219 O215 1.260 . S
C219 O216 1.258 . S
Zn220 O226 1.969 . S
Zn220 O227 1.965 . S
Zn220 O231 2.024 . S
Zn220 O236 1.969 . S
Zn221 O228 1.969 . S
Zn221 O234 1.969 . S
Zn221 O235 1.965 . S
Zn221 O237 2.024 . S
C222 O223 1.229 . S
C222 O231 1.058 . S
O223 C222 1.229 . S
C224 O225 1.229 . S
C224 O237 1.058 . S
O225 C224 1.229 . S
O226 Zn220 1.969 . S
O226 C229 1.267 . S
O227 Zn220 1.965 . S
O227 C238 1.260 . S
O228 Zn221 1.969 . S
O228 C238 1.258 . S
C229 O226 1.267 . S
C229 O230 1.228 . S
O230 C229 1.228 . S
O231 Zn220 2.024 . S
O231 C222 1.058 . S
C232 O233 1.228 . S
C232 O234 1.267 . S
O233 C232 1.228 . S
O234 Zn221 1.969 . S
O234 C232 1.267 . S
O235 Zn221 1.965 . S
O235 C239 1.260 . S
O236 Zn220 1.969 . S
O236 C239 1.258 . S
O237 Zn221 2.024 . S
O237 C224 1.058 . S
C238 O227 1.260 . S
C238 O228 1.258 . S
C239 O235 1.260 . S
C239 O236 1.258 . S
Zn240 O246 1.969 . S
Zn240 O247 1.965 . S
Zn240 O251 2.024 . S
Zn240 O256 1.969 . S
Zn241 O248 1.969 . S
Zn241 O254 1.969 . S
Zn241 O255 1.965 . S
Zn241 O257 2.024 . S
C242 O243 1.229 . S
C242 O251 1.058 . S
O243 C242 1.229 . S
C244 O245 1.229 . S
C244 O257 1.058 . S
O245 C244 1.229 . S
O246 Zn240 1.969 . S
O246 C249 1.267 . S
O247 Zn240 1.965 . S
O247 C258 1.260 . S
O248 Zn241 1.969 . S
O248 C258 1.258 . S
C249 O246 1.267 . S
C249 O250 1.228 . S
O250 C249 1.228 . S
O251 Zn240 2.024 . S
O251 C242 1.058 . S
C252 O253 1.228 . S
C252 O254 1.267 . S
O253 C252 1.228 . S
O254 Zn241 1.969 . S
O254 C252 1.267 . S
O255 Zn241 1.965 . S
O255 C259 1.260 . S
O256 Zn240 1.969 . S
O256 C259 1.258 . S
O257 Zn241 2.024 . S
O257 C244 1.058 . S
C258 O247 1.260 . S
C258 O248 1.258 . S
C259 O255 1.260 . S
C259 O256 1.258 . S
Zn260 O266 1.969 . S
Zn260 O267 1.965 . S
Zn260 O271 2.024 . S
Zn260 O276 1.969 . S
Zn261 O268 1.969 . S
Zn261 O274 1.969 . S
Zn261 O275 1.965 . S
Zn261 O277 2.024 . S
C262 O263 1.229 . S
C262 O271 1.058 . S
O263 C262 1.229 . S
C264 O265 1.229 . S
C264 O277 1.058 . S
O265 C264 1.229 . S
O266 Zn260 1.969 . S
O266 C269 1.267 . S
O267 Zn260 1.965 . S
O267 C278 1.260 . S
O268 Zn261 1.969 . S
O268 C278 1.258 . S
C269 O266 1.267 . S
C269 O270 1.228 . S
O270 C269 1.228 . S
O271 Zn260 2.024 . S
O271 C262 1.058 . S
C272 O273 1.228 . S
C272 O274 1.267 . S
O273 C272 1.228 . S
O274 Zn261 1.969 . S
O274 C272 1.267 . S
O275 Zn261 1.965 . S
O275 C279 1.260 . S
O276 Zn260 1.969 . S
O276 C279 1.258 . S
O277 Zn261 2.024 . S
O277 C264 1.058 . S
C278 O267 1.260 . S
C278 O268 1.258 . S
C279 O275 1.260 . S
C279 O276 1.258 . S
Zn280 O286 1.969 1_556 S
Zn280 O287 1.965 . S
Zn280 O291 2.024 . S
Zn280 O296 1.969 . S
Zn281 O288 1.969 . S
Zn281 O294 1.969 . S
Zn281 O295 1.965 . S
Zn281 O297 2.024 . S
C282 O283 1.229 . S
C282 O291 1.058 . S
O283 C282 1.229 . S
C284 O285 1.229 . S
C284 O297 1.058 . S
O285 C284 1.229 . S
O286 Zn280 1.969 1_554 S
O286 C289 1.267 . S
O287 Zn280 1.965 . S
O287 C298 1.260 . S
O288 Zn281 1.969 . S
O288 C298 1.258 . S
C289 O286 1.267 . S
C289 O290 1.228 . S
O290 C289 1.228 . S
O291 Zn280 2.024 . S
O291 C282 1.058 . S
C292 O293 1.228 . S
C292 O294 1.267 . S
O293 C292 1.228 . S
O294 Zn281 1.969 . S
O294 C292 1.267 . S
O295 Zn281 1.965 . S
O295 C299 1.260 . S
O296 Zn280 1.969 . S
O296 C299 1.258 . S
O297 Zn281 2.024 . S
O297 C284 1.058 . S
C298 O287 1.260 . S
C298 O288 1.258 . S
C299 O295 1.260 . S
C299 O296 1.258 . S
Zn300 O306 1.969 . S
Zn300 O307 1.965 . S
Zn300 O311 2.024 . S
Zn300 O316 1.969 . S
Zn301 O308 1.969 . S
Zn301 O314 1.969 . S
Zn301 O315 1.965 . S
Zn301 O317 2.024 . S
C302 O303 1.229 . S
C302 O311 1.058 . S
O303 C302 1.229 . S
C304 O305 1.229 . S
C304 O317 1.058 . S
O305 C304 1.229 . S
O306 Zn300 1.969 . S
O306 C309 1.267 . S
O307 Zn300 1.965 . S
O307 C318 1.260 . S
O308 Zn301 1.969 . S
O308 C318 1.258 . S
C309 O306 1.267 . S
C309 O310 1.228 . S
O310 C309 1.228 . S
O311 Zn300 2.024 . S
O311 C302 1.058 . S
C312 O313 1.228 . S
C312 O314 1.267 . S
O313 C312 1.228 . S
O314 Zn301 1.969 . S
O314 C312 1.267 . S
O315 Zn301 1.965 . S
O315 C319 1.260 . S
O316 Zn300 1.969 . S
O316 C319 1.258 . S
O317 Zn301 2.024 . S
O317 C304 1.058 . S
C318 O307 1.260 . S
C318 O308 1.258 . S
C319 O315 1.260 . S
C319 O316 1.258 . S
C320 C321 1.349 . S
C320 C322 1.327 . S
C320 H345 0.950 . S
C321 C320 1.349 . S
C321 C337 1.349 . S
C322 C320 1.327 . S
C322 C341 1.429 . S
C322 H346 0.950 . S
C323 C340 1.574 . S
C323 C342 1.368 . S
C323 H347 0.949 . S
H324 C328 0.949 . S
C325 C326 1.349 . S
C325 C327 1.327 . S
C325 H348 0.950 . S
C326 C325 1.349 . S
C326 C338 1.349 . S
C327 C325 1.327 . S
C327 C343 1.429 . S
C327 H349 0.950 . S
C328 H324 0.949 . S
C328 C336 1.574 . S
C328 C344 1.368 . S
H329 C337 0.950 . S
H330 C335 0.950 . S
H331 C336 0.949 . S
H332 C338 0.950 . S
H333 C339 0.950 . S
H334 C340 0.949 . S
C335 H330 0.950 . S
C335 C337 1.327 . S
C335 C341 1.429 . S
C336 C328 1.574 . S
C336 H331 0.949 . S
C336 C342 1.368 . S
C337 C321 1.349 . S
C337 H329 0.950 . S
C337 C335 1.327 . S
C338 C326 1.349 . S
C338 H332 0.950 . S
C338 C339 1.327 . S
C339 H333 0.950 . S
C339 C338 1.327 . S
C339 C343 1.429 . S
C340 C323 1.574 . S
C340 H334 0.949 . S
C340 C344 1.368 . S
C341 C322 1.429 . S
C341 C335 1.429 . S
C341 C342 1.523 . S
C342 C323 1.368 . S
C342 C336 1.368 . S
C342 C341 1.523 . S
C343 C327 1.429 . S
C343 C339 1.429 . S
C343 C344 1.523 . S
C344 C328 1.368 . S
C344 C340 1.368 . S
C344 C343 1.523 . S
H345 C320 0.950 . S
H346 C322 0.950 . S
H347 C323 0.949 . S
H348 C325 0.950 . S
H349 C327 0.950 . S
C350 C351 1.349 . S
C350 C352 1.327 . S
C350 H375 0.950 . S
C351 C350 1.349 . S
C351 C367 1.349 . S
C352 C350 1.327 . S
C352 C371 1.429 . S
C352 H376 0.950 . S
C353 C370 1.574 . S
C353 C372 1.368 . S
C353 H377 0.949 . S
H354 C358 0.949 . S
C355 C356 1.349 . S
C355 C357 1.327 . S
C355 H378 0.950 . S
C356 C355 1.349 . S
C356 C368 1.349 . S
C357 C355 1.327 . S
C357 C373 1.429 . S
C357 H379 0.950 . S
C358 H354 0.949 . S
C358 C366 1.574 . S
C358 C374 1.368 . S
H359 C367 0.950 . S
H360 C365 0.950 . S
H361 C366 0.949 . S
H362 C368 0.950 . S
H363 C369 0.950 . S
H364 C370 0.949 . S
C365 H360 0.950 . S
C365 C367 1.327 . S
C365 C371 1.429 . S
C366 C358 1.574 . S
C366 H361 0.949 . S
C366 C372 1.368 . S
C367 C351 1.349 . S
C367 H359 0.950 . S
C367 C365 1.327 . S
C368 C356 1.349 . S
C368 H362 0.950 . S
C368 C369 1.327 . S
C369 H363 0.950 . S
C369 C368 1.327 . S
C369 C373 1.429 . S
C370 C353 1.574 . S
C370 H364 0.949 . S
C370 C374 1.368 . S
C371 C352 1.429 . S
C371 C365 1.429 . S
C371 C372 1.523 . S
C372 C353 1.368 . S
C372 C366 1.368 . S
C372 C371 1.523 . S
C373 C357 1.429 . S
C373 C369 1.429 . S
C373 C374 1.523 . S
C374 C358 1.368 . S
C374 C370 1.368 . S
C374 C373 1.523 . S
H375 C350 0.950 . S
H376 C352 0.950 . S
H377 C353 0.949 . S
H378 C355 0.950 . S
H379 C357 0.950 . S
C380 C381 1.349 . S
C380 C382 1.327 . S
C380 H405 0.950 . S
C381 C380 1.349 . S
C381 C397 1.349 . S
C382 C380 1.327 . S
C382 C401 1.429 . S
C382 H406 0.950 . S
C383 C400 1.574 1_455 S
C383 C402 1.368 . S
C383 H407 0.949 . S
H384 C388 0.949 . S
C385 C386 1.349 . S
C385 C387 1.327 . S
C385 H408 0.950 . S
C386 C385 1.349 . S
C386 C398 1.349 . S
C387 C385 1.327 . S
C387 C403 1.429 . S
C387 H409 0.950 . S
C388 H384 0.949 . S
C388 C396 1.574 1_655 S
C388 C404 1.368 . S
H389 C397 0.950 . S
H390 C395 0.950 . S
H391 C396 0.949 . S
H392 C398 0.950 . S
H393 C399 0.950 . S
H394 C400 0.949 . S
C395 H390 0.950 . S
C395 C397 1.327 . S
C395 C401 1.429 . S
C396 C388 1.574 1_455 S
C396 H391 0.949 . S
C396 C402 1.368 . S
C397 C381 1.349 . S
C397 H389 0.950 . S
C397 C395 1.327 . S
C398 C386 1.349 . S
C398 H392 0.950 . S
C398 C399 1.327 . S
C399 H393 0.950 . S
C399 C398 1.327 . S
C399 C403 1.429 . S
C400 C383 1.574 1_655 S
C400 H394 0.949 . S
C400 C404 1.368 . S
C401 C382 1.429 . S
C401 C395 1.429 . S
C401 C402 1.523 . S
C402 C383 1.368 . S
C402 C396 1.368 . S
C402 C401 1.523 . S
C403 C387 1.429 . S
C403 C399 1.429 . S
C403 C404 1.523 . S
C404 C388 1.368 . S
C404 C400 1.368 . S
C404 C403 1.523 . S
H405 C380 0.950 . S
H406 C382 0.950 . S
H407 C383 0.949 . S
H408 C385 0.950 . S
H409 C387 0.950 . S
C410 C411 1.349 . S
C410 C412 1.327 . S
C410 H435 0.950 . S
C411 C410 1.349 . S
C411 C427 1.349 . S
C412 C410 1.327 . S
C412 C431 1.429 . S
C412 H436 0.950 . S
C413 C430 1.574 . S
C413 C432 1.368 1_455 S
C413 H437 0.949 . S
H414 C418 0.949 . S
C415 C416 1.349 . S
C415 C417 1.327 . S
C415 H438 0.950 . S
C416 C415 1.349 . S
C416 C428 1.349 . S
C417 C415 1.327 . S
C417 C433 1.429 . S
C417 H439 0.950 . S
C418 H414 0.949 . S
C418 C426 1.574 . S
C418 C434 1.368 1_655 S
H419 C427 0.950 . S
H420 C425 0.950 . S
H421 C426 0.949 . S
H422 C428 0.950 . S
H423 C429 0.950 . S
H424 C430 0.949 . S
C425 H420 0.950 . S
C425 C427 1.327 . S
C425 C431 1.429 . S
C426 C418 1.574 . S
C426 H421 0.949 . S
C426 C432 1.368 . S
C427 C411 1.349 . S
C427 H419 0.950 . S
C427 C425 1.327 . S
C428 C416 1.349 . S
C428 H422 0.950 . S
C428 C429 1.327 . S
C429 H423 0.950 . S
C429 C428 1.327 . S
C429 C433 1.429 . S
C430 C413 1.574 . S
C430 H424 0.949 . S
C430 C434 1.368 . S
C431 C412 1.429 . S
C431 C425 1.429 . S
C431 C432 1.523 . S
C432 C413 1.368 1_655 S
C432 C426 1.368 . S
C432 C431 1.523 . S
C433 C417 1.429 . S
C433 C429 1.429 . S
C433 C434 1.523 . S
C434 C418 1.368 1_455 S
C434 C430 1.368 . S
C434 C433 1.523 . S
H435 C410 0.950 . S
H436 C412 0.950 . S
H437 C413 0.949 . S
H438 C415 0.950 . S
H439 C417 0.950 . S
C440 C441 1.349 . S
C440 C442 1.327 . S
C440 H465 0.950 . S
C441 C440 1.349 . S
C441 C457 1.349 . S
C442 C440 1.327 . S
C442 C461 1.429 . S
C442 H466 0.950 . S
C443 C460 1.574 . S
C443 C462 1.368 . S
C443 H467 0.949 . S
H444 C448 0.949 . S
C445 C446 1.349 . S
C445 C447 1.327 . S
C445 H468 0.950 . S
C446 C445 1.349 . S
C446 C458 1.349 . S
C447 C445 1.327 . S
C447 C463 1.429 . S
C447 H469 0.950 . S
C448 H444 0.949 . S
C448 C456 1.574 . S
C448 C464 1.368 . S
H449 C457 0.950 . S
H450 C455 0.950 . S
H451 C456 0.949 . S
H452 C458 0.950 . S
H453 C459 0.950 . S
H454 C460 0.949 . S
C455 H450 0.950 . S
C455 C457 1.327 . S
C455 C461 1.429 . S
C456 C448 1.574 . S
C456 H451 0.949 . S
C456 C462 1.368 . S
C457 C441 1.349 . S
C457 H449 0.950 . S
C457 C455 1.327 . S
C458 C446 1.349 . S
C458 H452 0.950 . S
C458 C459 1.327 . S
C459 H453 0.950 . S
C459 C458 1.327 . S
C459 C463 1.429 . S
C460 C443 1.574 . S
C460 H454 0.949 . S
C460 C464 1.368 . S
C461 C442 1.429 . S
C461 C455 1.429 . S
C461 C462 1.523 . S
C462 C443 1.368 . S
C462 C456 1.368 . S
C462 C461 1.523 . S
C463 C447 1.429 . S
C463 C459 1.429 . S
C463 C464 1.523 . S
C464 C448 1.368 . S
C464 C460 1.368 . S
C464 C463 1.523 . S
H465 C440 0.950 . S
H466 C442 0.950 . S
H467 C443 0.949 . S
H468 C445 0.950 . S
H469 C447 0.950 . S
C470 C471 1.349 . S
C470 C472 1.327 . S
C470 H495 0.950 . S
C471 C470 1.349 . S
C471 C487 1.349 . S
C472 C470 1.327 . S
C472 C491 1.429 . S
C472 H496 0.950 . S
C473 C490 1.574 . S
C473 C492 1.368 . S
C473 H497 0.949 . S
H474 C478 0.949 . S
C475 C476 1.349 . S
C475 C477 1.327 . S
C475 H498 0.950 . S
C476 C475 1.349 . S
C476 C488 1.349 . S
C477 C475 1.327 . S
C477 C493 1.429 . S
C477 H499 0.950 . S
C478 H474 0.949 . S
C478 C486 1.574 . S
C478 C494 1.368 . S
H479 C487 0.950 . S
H480 C485 0.950 . S
H481 C486 0.949 . S
H482 C488 0.950 . S
H483 C489 0.950 . S
H484 C490 0.949 . S
C485 H480 0.950 . S
C485 C487 1.327 . S
C485 C491 1.429 . S
C486 C478 1.574 . S
C486 H481 0.949 . S
C486 C492 1.368 . S
C487 C471 1.349 . S
C487 H479 0.950 . S
C487 C485 1.327 . S
C488 C476 1.349 . S
C488 H482 0.950 . S
C488 C489 1.327 . S
C489 H483 0.950 . S
C489 C488 1.327 . S
C489 C493 1.429 . S
C490 C473 1.574 . S
C490 H484 0.949 . S
C490 C494 1.368 . S
C491 C472 1.429 . S
C491 C485 1.429 . S
C491 C492 1.523 . S
C492 C473 1.368 . S
C492 C486 1.368 . S
C492 C491 1.523 . S
C493 C477 1.429 . S
C493 C489 1.429 . S
C493 C494 1.523 . S
C494 C478 1.368 . S
C494 C490 1.368 . S
C494 C493 1.523 . S
H495 C470 0.950 . S
H496 C472 0.950 . S
H497 C473 0.949 . S
H498 C475 0.950 . S
H499 C477 0.950 . S
C500 C501 1.349 . S
C500 C502 1.327 . S
C500 H525 0.950 . S
C501 C500 1.349 . S
C501 C517 1.349 . S
C502 C500 1.327 . S
C502 C521 1.429 . S
C502 H526 0.950 . S
C503 C520 1.574 1_655 S
C503 C522 1.368 . S
C503 H527 0.949 . S
H504 C508 0.949 . S
C505 C506 1.349 . S
C505 C507 1.327 . S
C505 H528 0.950 . S
C506 C505 1.349 . S
C506 C518 1.349 . S
C507 C505 1.327 . S
C507 C523 1.429 . S
C507 H529 0.950 . S
C508 H504 0.949 . S
C508 C516 1.574 1_455 S
C508 C524 1.368 . S
H509 C517 0.950 . S
H510 C515 0.950 . S
H511 C516 0.949 . S
H512 C518 0.950 . S
H513 C519 0.950 . S
H514 C520 0.949 . S
C515 H510 0.950 . S
C515 C517 1.327 . S
C515 C521 1.429 . S
C516 C508 1.574 1_655 S
C516 H511 0.949 . S
C516 C522 1.368 . S
C517 C501 1.349 . S
C517 H509 0.950 . S
C517 C515 1.327 . S
C518 C506 1.349 . S
C518 H512 0.950 . S
C518 C519 1.327 . S
C519 H513 0.950 . S
C519 C518 1.327 . S
C519 C523 1.429 . S
C520 C503 1.574 1_455 S
C520 H514 0.949 . S
C520 C524 1.368 . S
C521 C502 1.429 . S
C521 C515 1.429 . S
C521 C522 1.523 . S
C522 C503 1.368 . S
C522 C516 1.368 . S
C522 C521 1.523 . S
C523 C507 1.429 . S
C523 C519 1.429 . S
C523 C524 1.523 . S
C524 C508 1.368 . S
C524 C520 1.368 . S
C524 C523 1.523 . S
H525 C500 0.950 . S
H526 C502 0.950 . S
H527 C503 0.949 . S
H528 C505 0.950 . S
H529 C507 0.950 . S
C530 C531 1.349 . S
C530 C532 1.327 . S
C530 H555 0.950 . S
C531 C530 1.349 . S
C531 C547 1.349 . S
C532 C530 1.327 . S
C532 C551 1.429 . S
C532 H556 0.950 . S
C533 C550 1.574 . S
C533 C552 1.368 1_655 S
C533 H557 0.949 . S
H534 C538 0.949 . S
C535 C536 1.349 . S
C535 C537 1.327 . S
C535 H558 0.950 . S
C536 C535 1.349 . S
C536 C548 1.349 . S
C537 C535 1.327 . S
C537 C553 1.429 . S
C537 H559 0.950 . S
C538 H534 0.949 . S
C538 C546 1.574 . S
C538 C554 1.368 1_455 S
H539 C547 0.950 . S
H540 C545 0.950 . S
H541 C546 0.949 . S
H542 C548 0.950 . S
H543 C549 0.950 . S
H544 C550 0.949 . S
C545 H540 0.950 . S
C545 C547 1.327 . S
C545 C551 1.429 . S
C546 C538 1.574 . S
C546 H541 0.949 . S
C546 C552 1.368 . S
C547 C531 1.349 . S
C547 H539 0.950 . S
C547 C545 1.327 . S
C548 C536 1.349 . S
C548 H542 0.950 . S
C548 C549 1.327 . S
C549 H543 0.950 . S
C549 C548 1.327 . S
C549 C553 1.429 . S
C550 C533 1.574 . S
C550 H544 0.949 . S
C550 C554 1.368 . S
C551 C532 1.429 . S
C551 C545 1.429 . S
C551 C552 1.523 . S
C552 C533 1.368 1_455 S
C552 C546 1.368 . S
C552 C551 1.523 . S
C553 C537 1.429 . S
C553 C549 1.429 . S
C553 C554 1.523 . S
C554 C538 1.368 1_655 S
C554 C550 1.368 . S
C554 C553 1.523 . S
H555 C530 0.950 . S
H556 C532 0.950 . S
H557 C533 0.949 . S
H558 C535 0.950 . S
H559 C537 0.950 . S
C560 C561 1.349 . S
C560 C562 1.327 . S
C560 H585 0.950 . S
C561 C560 1.349 . S
C561 C577 1.349 . S
C562 C560 1.327 . S
C562 C581 1.429 . S
C562 H586 0.950 . S
C563 C580 1.574 . S
C563 C582 1.368 . S
C563 H587 0.949 . S
H564 C568 0.949 . S
C565 C566 1.349 1_556 S
C565 C567 1.327 . S
C565 H588 0.950 . S
C566 C565 1.349 1_554 S
C566 C578 1.349 . S
C567 C565 1.327 . S
C567 C583 1.429 . S
C567 H589 0.950 . S
C568 H564 0.949 . S
C568 C576 1.574 . S
C568 C584 1.368 . S
H569 C577 0.950 . S
H570 C575 0.950 . S
H571 C576 0.949 . S
H572 C578 0.950 . S
H573 C579 0.950 . S
H574 C580 0.949 . S
C575 H570 0.950 . S
C575 C577 1.327 . S
C575 C581 1.429 . S
C576 C568 1.574 . S
C576 H571 0.949 . S
C576 C582 1.368 . S
C577 C561 1.349 . S
C577 H569 0.950 . S
C577 C575 1.327 . S
C578 C566 1.349 . S
C578 H572 0.950 . S
C578 C579 1.327 1_554 S
C579 H573 0.950 . S
C579 C578 1.327 1_556 S
C579 C583 1.429 . S
C580 C563 1.574 . S
C580 H574 0.949 . S
C580 C584 1.368 . S
C581 C562 1.429 . S
C581 C575 1.429 . S
C581 C582 1.523 . S
C582 C563 1.368 . S
C582 C576 1.368 . S
C582 C581 1.523 . S
C583 C567 1.429 . S
C583 C579 1.429 . S
C583 C584 1.523 . S
C584 C568 1.368 . S
C584 C580 1.368 . S
C584 C583 1.523 . S
H585 C560 0.950 . S
H586 C562 0.950 . S
H587 C563 0.949 . S
H588 C565 0.950 . S
H589 C567 0.950 . S
C590 C591 1.349 . S
C590 C592 1.327 . S
C590 H615 0.950 . S
C591 C590 1.349 . S
C591 C607 1.349 . S
C592 C590 1.327 . S
C592 C611 1.429 . S
C592 H616 0.950 . S
C593 C610 1.574 . S
C593 C612 1.368 . S
C593 H617 0.949 . S
H594 C598 0.949 . S
C595 C596 1.349 . S
C595 C597 1.327 . S
C595 H618 0.950 . S
C596 C595 1.349 . S
C596 C608 1.349 . S
C597 C595 1.327 . S
C597 C613 1.429 . S
C597 H619 0.950 . S
C598 H594 0.949 . S
C598 C606 1.574 . S
C598 C614 1.368 . S
H599 C607 0.950 . S
H600 C605 0.950 . S
H601 C606 0.949 . S
H602 C608 0.950 . S
H603 C609 0.950 . S
H604 C610 0.949 . S
C605 H600 0.950 . S
C605 C607 1.327 . S
C605 C611 1.429 . S
C606 C598 1.574 . S
C606 H601 0.949 . S
C606 C612 1.368 . S
C607 C591 1.349 . S
C607 H599 0.950 . S
C607 C605 1.327 . S
C608 C596 1.349 . S
C608 H602 0.950 . S
C608 C609 1.327 . S
C609 H603 0.950 . S
C609 C608 1.327 . S
C609 C613 1.429 . S
C610 C593 1.574 . S
C610 H604 0.949 . S
C610 C614 1.368 . S
C611 C592 1.429 . S
C611 C605 1.429 . S
C611 C612 1.523 . S
C612 C593 1.368 . S
C612 C606 1.368 . S
C612 C611 1.523 . S
C613 C597 1.429 . S
C613 C609 1.429 . S
C613 C614 1.523 . S
C614 C598 1.368 . S
C614 C610 1.368 . S
C614 C613 1.523 . S
H615 C590 0.950 . S
H616 C592 0.950 . S
H617 C593 0.949 . S
H618 C595 0.950 . S
H619 C597 0.950 . S
C620 C621 1.349 . S
C620 C622 1.327 . S
C620 H645 0.950 . S
C621 C620 1.349 . S
C621 C637 1.349 . S
C622 C620 1.327 . S
C622 C641 1.429 . S
C622 H646 0.950 . S
C623 C640 1.574 . S
C623 C642 1.368 . S
C623 H647 0.949 . S
H624 C628 0.949 . S
C625 C626 1.349 . S
C625 C627 1.327 . S
C625 H648 0.950 . S
C626 C625 1.349 . S
C626 C638 1.349 . S
C627 C625 1.327 . S
C627 C643 1.429 . S
C627 H649 0.950 . S
C628 H624 0.949 . S
C628 C636 1.574 . S
C628 C644 1.368 . S
H629 C637 0.950 . S
H630 C635 0.950 . S
H631 C636 0.949 . S
H632 C638 0.950 . S
H633 C639 0.950 . S
H634 C640 0.949 . S
C635 H630 0.950 . S
C635 C637 1.327 . S
C635 C641 1.429 . S
C636 C628 1.574 . S
C636 H631 0.949 . S
C636 C642 1.368 . S
C637 C621 1.349 . S
C637 H629 0.950 . S
C637 C635 1.327 . S
C638 C626 1.349 . S
C638 H632 0.950 . S
C638 C639 1.327 . S
C639 H633 0.950 . S
C639 C638 1.327 . S
C639 C643 1.429 . S
C640 C623 1.574 . S
C640 H634 0.949 . S
C640 C644 1.368 . S
C641 C622 1.429 . S
C641 C635 1.429 . S
C641 C642 1.523 . S
C642 C623 1.368 . S
C642 C636 1.368 . S
C642 C641 1.523 . S
C643 C627 1.429 . S
C643 C639 1.429 . S
C643 C644 1.523 . S
C644 C628 1.368 . S
C644 C640 1.368 . S
C644 C643 1.523 . S
H645 C620 0.950 . S
H646 C622 0.950 . S
H647 C623 0.949 . S
H648 C625 0.950 . S
H649 C627 0.950 . S
C650 C651 1.349 . S
C650 C652 1.327 . S
C650 H675 0.950 . S
C651 C650 1.349 . S
C651 C667 1.349 . S
C652 C650 1.327 . S
C652 C671 1.429 . S
C652 H676 0.950 . S
C653 C670 1.574 . S
C653 C672 1.368 . S
C653 H677 0.949 . S
H654 C658 0.949 . S
C655 C656 1.349 . S
C655 C657 1.327 . S
C655 H678 0.950 . S
C656 C655 1.349 . S
C656 C668 1.349 . S
C657 C655 1.327 . S
C657 C673 1.429 . S
C657 H679 0.950 . S
C658 H654 0.949 . S
C658 C666 1.574 . S
C658 C674 1.368 . S
H659 C667 0.950 . S
H660 C665 0.950 . S
H661 C666 0.949 . S
H662 C668 0.950 . S
H663 C669 0.950 . S
H664 C670 0.949 . S
C665 H660 0.950 . S
C665 C667 1.327 . S
C665 C671 1.429 . S
C666 C658 1.574 . S
C666 H661 0.949 . S
C666 C672 1.368 . S
C667 C651 1.349 . S
C667 H659 0.950 . S
C667 C665 1.327 . S
C668 C656 1.349 . S
C668 H662 0.950 . S
C668 C669 1.327 . S
C669 H663 0.950 . S
C669 C668 1.327 . S
C669 C673 1.429 . S
C670 C653 1.574 . S
C670 H664 0.949 . S
C670 C674 1.368 . S
C671 C652 1.429 . S
C671 C665 1.429 . S
C671 C672 1.523 . S
C672 C653 1.368 . S
C672 C666 1.368 . S
C672 C671 1.523 . S
C673 C657 1.429 . S
C673 C669 1.429 . S
C673 C674 1.523 . S
C674 C658 1.368 . S
C674 C670 1.368 . S
C674 C673 1.523 . S
H675 C650 0.950 . S
H676 C652 0.950 . S
H677 C653 0.949 . S
H678 C655 0.950 . S
H679 C657 0.950 . S
C680 C681 1.349 . S
C680 C682 1.327 . S
C680 H705 0.950 . S
C681 C680 1.349 . S
C681 C697 1.349 1_556 S
C682 C680 1.327 . S
C682 C701 1.429 1_556 S
C682 H706 0.950 . S
C683 C700 1.574 . S
C683 C702 1.368 . S
C683 H707 0.949 . S
H684 C688 0.949 . S
C685 C686 1.349 . S
C685 C687 1.327 . S
C685 H708 0.950 . S
C686 C685 1.349 . S
C686 C698 1.349 . S
C687 C685 1.327 . S
C687 C703 1.429 . S
C687 H709 0.950 . S
C688 H684 0.949 . S
C688 C696 1.574 . S
C688 C704 1.368 . S
H689 C697 0.950 . S
H690 C695 0.950 . S
H691 C696 0.949 . S
H692 C698 0.950 . S
H693 C699 0.950 . S
H694 C700 0.949 . S
C695 H690 0.950 . S
C695 C697 1.327 . S
C695 C701 1.429 . S
C696 C688 1.574 . S
C696 H691 0.949 . S
C696 C702 1.368 . S
C697 C681 1.349 1_554 S
C697 H689 0.950 . S
C697 C695 1.327 . S
C698 C686 1.349 . S
C698 H692 0.950 . S
C698 C699 1.327 . S
C699 H693 0.950 . S
C699 C698 1.327 . S
C699 C703 1.429 . S
C700 C683 1.574 . S
C700 H694 0.949 . S
C700 C704 1.368 . S
C701 C682 1.429 1_554 S
C701 C695 1.429 . S
C701 C702 1.523 . S
C702 C683 1.368 . S
C702 C696 1.368 . S
C702 C701 1.523 . S
C703 C687 1.429 . S
C703 C699 1.429 . S
C703 C704 1.523 . S
C704 C688 1.368 . S
C704 C700 1.368 . S
C704 C703 1.523 . S
H705 C680 0.950 . S
H706 C682 0.950 . S
H707 C683 0.949 . S
H708 C685 0.950 . S
H709 C687 0.950 . S
C710 C711 1.349 . S
C710 C712 1.327 . S
C710 H735 0.950 . S
C711 C710 1.349 . S
C711 C727 1.349 . S
C712 C710 1.327 . S
C712 C731 1.429 . S
C712 H736 0.950 . S
C713 C730 1.574 . S
C713 C732 1.368 . S
C713 H737 0.949 . S
H714 C718 0.949 . S
C715 C716 1.349 . S
C715 C717 1.327 . S
C715 H738 0.950 . S
C716 C715 1.349 . S
C716 C728 1.349 . S
C717 C715 1.327 . S
C717 C733 1.429 . S
C717 H739 0.950 . S
C718 H714 0.949 . S
C718 C726 1.574 . S
C718 C734 1.368 . S
H719 C727 0.950 . S
H720 C725 0.950 . S
H721 C726 0.949 . S
H722 C728 0.950 . S
H723 C729 0.950 . S
H724 C730 0.949 . S
C725 H720 0.950 . S
C725 C727 1.327 . S
C725 C731 1.429 . S
C726 C718 1.574 . S
C726 H721 0.949 . S
C726 C732 1.368 . S
C727 C711 1.349 . S
C727 H719 0.950 . S
C727 C725 1.327 . S
C728 C716 1.349 . S
C728 H722 0.950 . S
C728 C729 1.327 . S
C729 H723 0.950 . S
C729 C728 1.327 . S
C729 C733 1.429 . S
C730 C713 1.574 . S
C730 H724 0.949 . S
C730 C734 1.368 . S
C731 C712 1.429 . S
C731 C725 1.429 . S
C731 C732 1.523 . S
C732 C713 1.368 . S
C732 C726 1.368 . S
C732 C731 1.523 . S
C733 C717 1.429 . S
C733 C729 1.429 . S
C733 C734 1.523 . S
C734 C718 1.368 . S
C734 C730 1.368 . S
C734 C733 1.523 . S
H735 C710 0.950 . S
H736 C712 0.950 . S
H737 C713 0.949 . S
H738 C715 0.950 . S
H739 C717 0.950 . S
C740 C741 1.349 . S
C740 C742 1.327 . S
C740 H765 0.950 . S
C741 C740 1.349 . S
C741 C757 1.349 . S
C742 C740 1.327 . S
C742 C761 1.429 . S
C742 H766 0.950 . S
C743 C760 1.574 . S
C743 C762 1.368 . S
C743 H767 0.949 . S
H744 C748 0.949 . S
C745 C746 1.349 . S
C745 C747 1.327 . S
C745 H768 0.950 . S
C746 C745 1.349 . S
C746 C758 1.349 . S
C747 C745 1.327 . S
C747 C763 1.429 . S
C747 H769 0.950 . S
C748 H744 0.949 . S
C748 C756 1.574 . S
C748 C764 1.368 . S
H749 C757 0.950 . S
H750 C755 0.950 . S
H751 C756 0.949 . S
H752 C758 0.950 . S
H753 C759 0.950 . S
H754 C760 0.949 . S
C755 H750 0.950 . S
C755 C757 1.327 . S
C755 C761 1.429 . S
C756 C748 1.574 . S
C756 H751 0.949 . S
C756 C762 1.368 . S
C757 C741 1.349 . S
C757 H749 0.950 . S
C757 C755 1.327 . S
C758 C746 1.349 . S
C758 H752 0.950 . S
C758 C759 1.327 . S
C759 H753 0.950 . S
C759 C758 1.327 . S
C759 C763 1.429 . S
C760 C743 1.574 . S
C760 H754 0.949 . S
C760 C764 1.368 . S
C761 C742 1.429 . S
C761 C755 1.429 . S
C761 C762 1.523 . S
C762 C743 1.368 . S
C762 C756 1.368 . S
C762 C761 1.523 . S
C763 C747 1.429 . S
C763 C759 1.429 . S
C763 C764 1.523 . S
C764 C748 1.368 . S
C764 C760 1.368 . S
C764 C763 1.523 . S
H765 C740 0.950 . S
H766 C742 0.950 . S
H767 C743 0.949 . S
H768 C745 0.950 . S
H769 C747 0.950 . S
C770 C771 1.349 . S
C770 C772 1.327 . S
C770 H795 0.950 . S
C771 C770 1.349 . S
C771 C787 1.349 . S
C772 C770 1.327 . S
C772 C791 1.429 . S
C772 H796 0.950 . S
C773 C790 1.574 . S
C773 C792 1.368 . S
C773 H797 0.949 . S
H774 C778 0.949 . S
C775 C776 1.349 . S
C775 C777 1.327 . S
C775 H798 0.950 . S
C776 C775 1.349 . S
C776 C788 1.349 . S
C777 C775 1.327 . S
C777 C793 1.429 . S
C777 H799 0.950 . S
C778 H774 0.949 . S
C778 C786 1.574 . S
C778 C794 1.368 . S
H779 C787 0.950 . S
H780 C785 0.950 . S
H781 C786 0.949 . S
H782 C788 0.950 . S
H783 C789 0.950 . S
H784 C790 0.949 . S
C785 H780 0.950 . S
C785 C787 1.327 . S
C785 C791 1.429 . S
C786 C778 1.574 . S
C786 H781 0.949 . S
C786 C792 1.368 . S
C787 C771 1.349 . S
C787 H779 0.950 . S
C787 C785 1.327 . S
C788 C776 1.349 . S
C788 H782 0.950 . S
C788 C789 1.327 . S
C789 H783 0.950 . S
C789 C788 1.327 . S
C789 C793 1.429 . S
C790 C773 1.574 . S
C790 H784 0.949 . S
C790 C794 1.368 . S
C791 C772 1.429 . S
C791 C785 1.429 . S
C791 C792 1.523 . S
C792 C773 1.368 . S
C792 C786 1.368 . S
C792 C791 1.523 . S
C793 C777 1.429 . S
C793 C789 1.429 . S
C793 C794 1.523 . S
C794 C778 1.368 . S
C794 C790 1.368 . S
C794 C793 1.523 . S
H795 C770 0.950 . S
H796 C772 0.950 . S
H797 C773 0.949 . S
H798 C775 0.950 . S
H799 C777 0.950 . S
C800 C801 1.349 . S
C800 C802 1.327 . S
C800 H825 0.950 . S
C801 C800 1.349 . S
C801 C817 1.349 . S
C802 C800 1.327 . S
C802 C821 1.429 . S
C802 H826 0.950 . S
C803 C820 1.574 . S
C803 C822 1.368 . S
C803 H827 0.949 . S
H804 C808 0.949 . S
C805 C806 1.349 . S
C805 C807 1.327 . S
C805 H828 0.950 . S
C806 C805 1.349 . S
C806 C818 1.349 . S
C807 C805 1.327 . S
C807 C823 1.429 . S
C807 H829 0.950 . S
C808 H804 0.949 . S
C808 C816 1.574 . S
C808 C824 1.368 . S
H809 C817 0.950 . S
H810 C815 0.950 . S
H811 C816 0.949 . S
H812 C818 0.950 . S
H813 C819 0.950 . S
H814 C820 0.949 . S
C815 H810 0.950 . S
C815 C817 1.327 . S
C815 C821 1.429 . S
C816 C808 1.574 . S
C816 H811 0.949 . S
C816 C822 1.368 . S
C817 C801 1.349 . S
C817 H809 0.950 . S
C817 C815 1.327 . S
C818 C806 1.349 . S
C818 H812 0.950 . S
C818 C819 1.327 . S
C819 H813 0.950 . S
C819 C818 1.327 . S
C819 C823 1.429 . S
C820 C803 1.574 . S
C820 H814 0.949 . S
C820 C824 1.368 . S
C821 C802 1.429 . S
C821 C815 1.429 . S
C821 C822 1.523 . S
C822 C803 1.368 . S
C822 C816 1.368 . S
C822 C821 1.523 . S
C823 C807 1.429 . S
C823 C819 1.429 . S
C823 C824 1.523 . S
C824 C808 1.368 . S
C824 C820 1.368 . S
C824 C823 1.523 . S
H825 C800 0.950 . S
H826 C802 0.950 . S
H827 C803 0.949 . S
H828 C805 0.950 . S
H829 C807 0.950 . S
C830 C831 1.349 . S
C830 C832 1.327 . S
C830 H855 0.950 . S
C831 C830 1.349 . S
C831 C847 1.349 . S
C832 C830 1.327 . S
C832 C851 1.429 1_545 S
C832 H856 0.950 . S
C833 C850 1.574 . S
C833 C852 1.368 . S
C833 H857 0.949 . S
H834 C838 0.949 . S
C835 C836 1.349 . S
C835 C837 1.327 . S
C835 H858 0.950 . S
C836 C835 1.349 . S
C836 C848 1.349 . S
C837 C835 1.327 . S
C837 C853 1.429 . S
C837 H859 0.950 . S
C838 H834 0.949 . S
C838 C846 1.574 . S
C838 C854 1.368 . S
H839 C847 0.950 . S
H840 C845 0.950 . S
H841 C846 0.949 . S
H842 C848 0.950 . S
H843 C849 0.950 . S
H844 C850 0.949 . S
C845 H840 0.950 . S
C845 C847 1.327 1_565 S
C845 C851 1.429 . S
C846 C838 1.574 . S
C846 H841 0.949 . S
C846 C852 1.368 . S
C847 C831 1.349 . S
C847 H839 0.950 . S
C847 C845 1.327 1_545 S
C848 C836 1.349 . S
C848 H842 0.950 . S
C848 C849 1.327 . S
C849 H843 0.950 . S
C849 C848 1.327 . S
C849 C853 1.429 . S
C850 C833 1.574 . S
C850 H844 0.949 . S
C850 C854 1.368 . S
C851 C832 1.429 1_565 S
C851 C845 1.429 . S
C851 C852 1.523 . S
C852 C833 1.368 . S
C852 C846 1.368 . S
C852 C851 1.523 . S
C853 C837 1.429 . S
C853 C849 1.429 . S
C853 C854 1.523 . S
C854 C838 1.368 . S
C854 C850 1.368 . S
C854 C853 1.523 . S
H855 C830 0.950 . S
H856 C832 0.950 . S
H857 C833 0.949 . S
H858 C835 0.950 . S
H859 C837 0.950 . S
C860 C861 1.349 . S
C860 C862 1.327 . S
C860 H885 0.950 . S
C861 C860 1.349 . S
C861 C877 1.349 1_554 S
C862 C860 1.327 . S
C862 C881 1.429 1_554 S
C862 H886 0.950 . S
C863 C880 1.574 . S
C863 C882 1.368 . S
C863 H887 0.949 . S
H864 C868 0.949 . S
C865 C866 1.349 . S
C865 C867 1.327 . S
C865 H888 0.950 . S
C866 C865 1.349 . S
C866 C878 1.349 . S
C867 C865 1.327 . S
C867 C883 1.429 . S
C867 H889 0.950 . S
C868 H864 0.949 . S
C868 C876 1.574 . S
C868 C884 1.368 . S
H869 C877 0.950 . S
H870 C875 0.950 . S
H871 C876 0.949 . S
H872 C878 0.950 . S
H873 C879 0.950 . S
H874 C880 0.949 . S
C875 H870 0.950 . S
C875 C877 1.327 . S
C875 C881 1.429 . S
C876 C868 1.574 . S
C876 H871 0.949 . S
C876 C882 1.368 . S
C877 C861 1.349 1_556 S
C877 H869 0.950 . S
C877 C875 1.327 . S
C878 C866 1.349 . S
C878 H872 0.950 . S
C878 C879 1.327 . S
C879 H873 0.950 . S
C879 C878 1.327 . S
C879 C883 1.429 . S
C880 C863 1.574 . S
C880 H874 0.949 . S
C880 C884 1.368 . S
C881 C862 1.429 1_556 S
C881 C875 1.429 . S
C881 C882 1.523 . S
C882 C863 1.368 . S
C882 C876 1.368 . S
C882 C881 1.523 . S
C883 C867 1.429 . S
C883 C879 1.429 . S
C883 C884 1.523 . S
C884 C868 1.368 . S
C884 C880 1.368 . S
C884 C883 1.523 . S
H885 C860 0.950 . S
H886 C862 0.950 . S
H887 C863 0.949 . S
H888 C865 0.950 . S
H889 C867 0.950 . S
C890 C891 1.349 . S
C890 C892 1.327 . S
C890 H915 0.950 . S
C891 C890 1.349 . S
C891 C907 1.349 . S
C892 C890 1.327 . S
C892 C911 1.429 1_565 S
C892 H916 0.950 . S
C893 C910 1.574 . S
C893 C912 1.368 . S
C893 H917 0.949 . S
H894 C898 0.949 . S
C895 C896 1.349 . S
C895 C897 1.327 . S
C895 H918 0.950 . S
C896 C895 1.349 . S
C896 C908 1.349 . S
C897 C895 1.327 . S
C897 C913 1.429 . S
C897 H919 0.950 . S
C898 H894 0.949 . S
C898 C906 1.574 . S
C898 C914 1.368 . S
H899 C907 0.950 . S
H900 C905 0.950 . S
H901 C906 0.949 . S
H902 C908 0.950 . S
H903 C909 0.950 . S
H904 C910 0.949 . S
C905 H900 0.950 . S
C905 C907 1.327 1_545 S
C905 C911 1.429 . S
C906 C898 1.574 . S
C906 H901 0.949 . S
C906 C912 1.368 . S
C907 C891 1.349 . S
C907 H899 0.950 . S
C907 C905 1.327 1_565 S
C908 C896 1.349 . S
C908 H902 0.950 . S
C908 C909 1.327 . S
C909 H903 0.950 . S
C909 C908 1.327 . S
C909 C913 1.429 . S
C910 C893 1.574 . S
C910 H904 0.949 . S
C910 C914 1.368 . S
C911 C892 1.429 1_545 S
C911 C905 1.429 . S
C911 C912 1.523 . S
C912 C893 1.368 . S
C912 C906 1.368 . S
C912 C911 1.523 . S
C913 C897 1.429 . S
C913 C909 1.429 . S
C913 C914 1.523 . S
C914 C898 1.368 . S
C914 C910 1.368 . S
C914 C913 1.523 . S
H915 C890 0.950 . S
H916 C892 0.950 . S
H917 C893 0.949 . S
H918 C895 0.950 . S
H919 C897 0.950 . S
C920 C921 1.349 . S
C920 C922 1.327 . S
C920 H945 0.950 . S
C921 C920 1.349 . S
C921 C937 1.349 . S
C922 C920 1.327 . S
C922 C941 1.429 . S
C922 H946 0.950 . S
C923 C940 1.574 . S
C923 C942 1.368 . S
C923 H947 0.949 . S
H924 C928 0.949 . S
C925 C926 1.349 . S
C925 C927 1.327 . S
C925 H948 0.950 . S
C926 C925 1.349 . S
C926 C938 1.349 . S
C927 C925 1.327 . S
C927 C943 1.429 . S
C927 H949 0.950 . S
C928 H924 0.949 . S
C928 C936 1.574 . S
C928 C944 1.368 . S
H929 C937 0.950 . S
H930 C935 0.950 . S
H931 C936 0.949 . S
H932 C938 0.950 . S
H933 C939 0.950 . S
H934 C940 0.949 . S
C935 H930 0.950 . S
C935 C937 1.327 . S
C935 C941 1.429 . S
C936 C928 1.574 . S
C936 H931 0.949 . S
C936 C942 1.368 . S
C937 C921 1.349 . S
C937 H929 0.950 . S
C937 C935 1.327 . S
C938 C926 1.349 . S
C938 H932 0.950 . S
C938 C939 1.327 . S
C939 H933 0.950 . S
C939 C938 1.327 . S
C939 C943 1.429 . S
C940 C923 1.574 . S
C940 H934 0.949 . S
C940 C944 1.368 . S
C941 C922 1.429 . S
C941 C935 1.429 . S
C941 C942 1.523 . S
C942 C923 1.368 . S
C942 C936 1.368 . S
C942 C941 1.523 . S
C943 C927 1.429 . S
C943 C939 1.429 . S
C943 C944 1.523 . S
C944 C928 1.368 . S
C944 C940 1.368 . S
C944 C943 1.523 . S
H945 C920 0.950 . S
H946 C922 0.950 . S
H947 C923 0.949 . S
H948 C925 0.950 . S
H949 C927 0.950 . S
C950 C951 1.349 . S
C950 C952 1.327 . S
C950 H975 0.950 . S
C951 C950 1.349 . S
C951 C967 1.349 . S
C952 C950 1.327 . S
C952 C971 1.429 . S
C952 H976 0.950 . S
C953 C970 1.574 . S
C953 C972 1.368 . S
C953 H977 0.949 . S
H954 C958 0.949 . S
C955 C956 1.349 . S
C955 C957 1.327 1_565 S
C955 H978 0.950 . S
C956 C955 1.349 . S
C956 C968 1.349 . S
C957 C955 1.327 1_545 S
C957 C973 1.429 . S
C957 H979 0.950 . S
C958 H954 0.949 . S
C958 C966 1.574 . S
C958 C974 1.368 . S
H959 C967 0.950 . S
H960 C965 0.950 . S
H961 C966 0.949 . S
H962 C968 0.950 . S
H963 C969 0.950 . S
H964 C970 0.949 . S
C965 H960 0.950 . S
C965 C967 1.327 . S
C965 C971 1.429 . S
C966 C958 1.574 . S
C966 H961 0.949 . S
C966 C972 1.368 . S
C967 C951 1.349 . S
C967 H959 0.950 . S
C967 C965 1.327 . S
C968 C956 1.349 . S
C968 H962 0.950 . S
C968 C969 1.327 . S
C969 H963 0.950 . S
C969 C968 1.327 . S
C969 C973 1.429 1_565 S
C970 C953 1.574 . S
C970 H964 0.949 . S
C970 C974 1.368 . S
C971 C952 1.429 . S
C971 C965 1.429 . S
C971 C972 1.523 . S
C972 C953 1.368 . S
C972 C966 1.368 . S
C972 C971 1.523 . S
C973 C957 1.429 . S
C973 C969 1.429 1_545 S
C973 C974 1.523 . S
C974 C958 1.368 . S
C974 C970 1.368 . S
C974 C973 1.523 . S
H975 C950 0.950 . S
H976 C952 0.950 . S
H977 C953 0.949 . S
H978 C955 0.950 . S
H979 C957 0.950 . S
C980 C981 1.349 . S
C980 C982 1.327 . S
C980 H1005 0.950 . S
C981 C980 1.349 . S
C981 C997 1.349 . S
C982 C980 1.327 . S
C982 C1001 1.429 . S
C982 H1006 0.950 . S
C983 C1000 1.574 . S
C983 C1002 1.368 . S
C983 H1007 0.949 . S
H984 C988 0.949 . S
C985 C986 1.349 . S
C985 C987 1.327 1_556 S
C985 H1008 0.950 . S
C986 C985 1.349 . S
C986 C998 1.349 1_556 S
C987 C985 1.327 1_554 S
C987 C1003 1.429 . S
C987 H1009 0.950 1_554 S
C988 H984 0.949 . S
C988 C996 1.574 . S
C988 C1004 1.368 . S
H989 C997 0.950 . S
H990 C995 0.950 . S
H991 C996 0.949 . S
H992 C998 0.950 . S
H993 C999 0.950 . S
H994 C1000 0.949 . S
C995 H990 0.950 . S
C995 C997 1.327 . S
C995 C1001 1.429 . S
C996 C988 1.574 . S
C996 H991 0.949 . S
C996 C1002 1.368 . S
C997 C981 1.349 . S
C997 H989 0.950 . S
C997 C995 1.327 . S
C998 C986 1.349 1_554 S
C998 H992 0.950 . S
C998 C999 1.327 . S
C999 H993 0.950 . S
C999 C998 1.327 . S
C999 C1003 1.429 . S
C1000 C983 1.574 . S
C1000 H994 0.949 . S
C1000 C1004 1.368 . S
C1001 C982 1.429 . S
C1001 C995 1.429 . S
C1001 C1002 1.523 . S
C1002 C983 1.368 . S
C1002 C996 1.368 . S
C1002 C1001 1.523 . S
C1003 C987 1.429 . S
C1003 C999 1.429 . S
C1003 C1004 1.523 . S
C1004 C988 1.368 . S
C1004 C1000 1.368 . S
C1004 C1003 1.523 . S
H1005 C980 0.950 . S
H1006 C982 0.950 . S
H1007 C983 0.949 . S
H1008 C985 0.950 . S
H1009 C987 0.950 1_556 S
C1010 C1011 1.349 . S
C1010 C1012 1.330 . S
C1010 H1035 0.950 . S
C1011 C1010 1.349 . S
C1011 C1027 1.349 . S
C1012 C1010 1.330 . S
C1012 C1031 1.427 1_545 S
C1012 H1036 0.948 1_545 S
C1013 C1030 1.574 . S
C1013 C1032 1.368 . S
C1013 H1037 0.949 . S
H1014 C1018 0.949 . S
C1015 C1016 1.349 . S
C1015 C1017 1.327 . S
C1015 H1038 0.950 . S
C1016 C1015 1.349 . S
C1016 C1028 1.349 . S
C1017 C1015 1.327 . S
C1017 C1033 1.429 . S
C1017 H1039 0.950 . S
C1018 H1014 0.949 . S
C1018 C1026 1.574 . S
C1018 C1034 1.368 . S
H1019 C1027 0.950 . S
H1020 C1025 0.953 . S
H1021 C1026 0.949 . S
H1022 C1028 0.950 . S
H1023 C1029 0.950 . S
H1024 C1030 0.949 . S
C1025 H1020 0.953 . S
C1025 C1027 1.319 1_565 S
C1025 C1031 1.433 . S
C1026 C1018 1.574 . S
C1026 H1021 0.949 . S
C1026 C1032 1.368 . S
C1027 C1011 1.349 . S
C1027 H1019 0.950 . S
C1027 C1025 1.319 1_545 S
C1028 C1016 1.349 . S
C1028 H1022 0.950 . S
C1028 C1029 1.327 . S
C1029 H1023 0.950 . S
C1029 C1028 1.327 . S
C1029 C1033 1.429 . S
C1030 C1013 1.574 . S
C1030 H1024 0.949 . S
C1030 C1034 1.368 . S
C1031 C1012 1.427 1_565 S
C1031 C1025 1.433 . S
C1031 C1032 1.523 . S
C1032 C1013 1.368 . S
C1032 C1026 1.368 . S
C1032 C1031 1.523 . S
C1033 C1017 1.429 . S
C1033 C1029 1.429 . S
C1033 C1034 1.523 . S
C1034 C1018 1.368 . S
C1034 C1030 1.368 . S
C1034 C1033 1.523 . S
H1035 C1010 0.950 . S
H1036 C1012 0.948 1_565 S
H1037 C1013 0.949 . S
H1038 C1015 0.950 . S
H1039 C1017 0.950 . S
C1040 C1041 1.349 . S
C1040 C1042 1.327 . S
C1040 H1065 0.950 . S
C1041 C1040 1.349 . S
C1041 C1057 1.349 . S
C1042 C1040 1.327 . S
C1042 C1061 1.429 . S
C1042 H1066 0.950 . S
C1043 C1060 1.574 . S
C1043 C1062 1.368 . S
C1043 H1067 0.949 . S
H1044 C1048 0.949 . S
C1045 C1046 1.349 . S
C1045 C1047 1.327 . S
C1045 H1068 0.950 . S
C1046 C1045 1.349 . S
C1046 C1058 1.349 . S
C1047 C1045 1.327 . S
C1047 C1063 1.429 . S
C1047 H1069 0.950 . S
C1048 H1044 0.949 . S
C1048 C1056 1.574 . S
C1048 C1064 1.368 . S
H1049 C1057 0.950 . S
H1050 C1055 0.950 . S
H1051 C1056 0.949 . S
H1052 C1058 0.950 . S
H1053 C1059 0.950 . S
H1054 C1060 0.949 . S
C1055 H1050 0.950 . S
C1055 C1057 1.327 . S
C1055 C1061 1.429 . S
C1056 C1048 1.574 . S
C1056 H1051 0.949 . S
C1056 C1062 1.368 . S
C1057 C1041 1.349 . S
C1057 H1049 0.950 . S
C1057 C1055 1.327 . S
C1058 C1046 1.349 . S
C1058 H1052 0.950 . S
C1058 C1059 1.327 . S
C1059 H1053 0.950 . S
C1059 C1058 1.327 . S
C1059 C1063 1.429 . S
C1060 C1043 1.574 . S
C1060 H1054 0.949 . S
C1060 C1064 1.368 . S
C1061 C1042 1.429 . S
C1061 C1055 1.429 . S
C1061 C1062 1.523 . S
C1062 C1043 1.368 . S
C1062 C1056 1.368 . S
C1062 C1061 1.523 . S
C1063 C1047 1.429 . S
C1063 C1059 1.429 . S
C1063 C1064 1.523 . S
C1064 C1048 1.368 . S
C1064 C1060 1.368 . S
C1064 C1063 1.523 . S
H1065 C1040 0.950 . S
H1066 C1042 0.950 . S
H1067 C1043 0.949 . S
H1068 C1045 0.950 . S
H1069 C1047 0.950 . S
C1070 C1071 1.349 . S
C1070 C1072 1.327 . S
C1070 H1095 0.950 . S
C1071 C1070 1.349 . S
C1071 C1087 1.349 . S
C1072 C1070 1.327 . S
C1072 C1091 1.429 . S
C1072 H1096 0.950 . S
C1073 C1090 1.574 . S
C1073 C1092 1.368 . S
C1073 H1097 0.949 . S
H1074 C1078 0.949 . S
C1075 C1076 1.345 1_556 S
C1075 C1077 1.327 1_556 S
C1075 H1098 0.950 . S
C1076 C1075 1.345 1_554 S
C1076 C1088 1.368 . S
C1077 C1075 1.327 1_554 S
C1077 C1093 1.429 . S
C1077 H1099 0.950 . S
C1078 H1074 0.949 . S
C1078 C1086 1.574 . S
C1078 C1094 1.368 . S
H1079 C1087 0.950 . S
H1080 C1085 0.950 . S
H1081 C1086 0.949 . S
H1082 C1088 0.950 . S
H1083 C1089 0.950 . S
H1084 C1090 0.949 . S
C1085 H1080 0.950 . S
C1085 C1087 1.327 . S
C1085 C1091 1.429 . S
C1086 C1078 1.574 . S
C1086 H1081 0.949 . S
C1086 C1092 1.368 . S
C1087 C1071 1.349 . S
C1087 H1079 0.950 . S
C1087 C1085 1.327 . S
C1088 C1076 1.368 . S
C1088 H1082 0.950 . S
C1088 C1089 1.327 . S
C1089 H1083 0.950 . S
C1089 C1088 1.327 . S
C1089 C1093 1.429 . S
C1090 C1073 1.574 . S
C1090 H1084 0.949 . S
C1090 C1094 1.368 . S
C1091 C1072 1.429 . S
C1091 C1085 1.429 . S
C1091 C1092 1.523 . S
C1092 C1073 1.368 . S
C1092 C1086 1.368 . S
C1092 C1091 1.523 . S
C1093 C1077 1.429 . S
C1093 C1089 1.429 . S
C1093 C1094 1.523 . S
C1094 C1078 1.368 . S
C1094 C1090 1.368 . S
C1094 C1093 1.523 . S
H1095 C1070 0.950 . S
H1096 C1072 0.950 . S
H1097 C1073 0.949 . S
H1098 C1075 0.950 . S
H1099 C1077 0.950 . S
C1100 C1101 1.349 . S
C1100 C1102 1.327 . S
C1100 H1125 0.950 . S
C1101 C1100 1.349 . S
C1101 C1117 1.349 . S
C1102 C1100 1.327 . S
C1102 C1121 1.429 . S
C1102 H1126 0.950 . S
C1103 C1120 1.574 . S
C1103 C1122 1.368 . S
C1103 H1127 0.949 . S
H1104 C1108 0.949 . S
C1105 C1106 1.349 . S
C1105 C1107 1.327 . S
C1105 H1128 0.950 . S
C1106 C1105 1.349 . S
C1106 C1118 1.349 . S
C1107 C1105 1.327 . S
C1107 C1123 1.429 . S
C1107 H1129 0.950 . S
C1108 H1104 0.949 . S
C1108 C1116 1.574 . S
C1108 C1124 1.368 . S
H1109 C1117 0.950 . S
H1110 C1115 0.917 1_455 S
H1111 C1116 0.949 1_655 S
H1112 C1118 0.950 . S
H1113 C1119 0.950 . S
H1114 C1120 0.949 . S
C1115 H1110 0.917 1_655 S
C1115 C1117 1.327 . S
C1115 C1121 1.429 . S
C1116 C1108 1.574 . S
C1116 H1111 0.949 1_455 S
C1116 C1122 1.368 . S
C1117 C1101 1.349 . S
C1117 H1109 0.950 . S
C1117 C1115 1.327 . S
C1118 C1106 1.349 . S
C1118 H1112 0.950 . S
C1118 C1119 1.327 . S
C1119 H1113 0.950 . S
C1119 C1118 1.327 . S
C1119 C1123 1.429 . S
C1120 C1103 1.574 . S
C1120 H1114 0.949 . S
C1120 C1124 1.368 . S
C1121 C1102 1.429 . S
C1121 C1115 1.429 . S
C1121 C1122 1.523 1_655 S
C1122 C1103 1.368 . S
C1122 C1116 1.368 . S
C1122 C1121 1.523 1_455 S
C1123 C1107 1.429 . S
C1123 C1119 1.429 . S
C1123 C1124 1.523 . S
C1124 C1108 1.368 . S
C1124 C1120 1.368 . S
C1124 C1123 1.523 . S
H1125 C1100 0.950 . S
H1126 C1102 0.950 . S
H1127 C1103 0.949 . S
H1128 C1105 0.950 . S
H1129 C1107 0.950 . S
C1130 C1131 1.349 . S
C1130 C1132 1.327 . S
C1130 H1155 0.950 . S
C1131 C1130 1.349 . S
C1131 C1147 1.349 . S
C1132 C1130 1.327 . S
C1132 C1151 1.429 . S
C1132 H1156 0.950 . S
C1133 C1150 1.574 . S
C1133 C1152 1.368 . S
C1133 H1157 0.949 . S
H1134 C1138 0.949 . S
C1135 C1136 1.349 . S
C1135 C1137 1.327 . S
C1135 H1158 0.950 . S
C1136 C1135 1.349 . S
C1136 C1148 1.349 . S
C1137 C1135 1.327 . S
C1137 C1153 1.429 . S
C1137 H1159 0.950 . S
C1138 H1134 0.949 . S
C1138 C1146 1.574 . S
C1138 C1154 1.368 . S
H1139 C1147 0.950 . S
H1140 C1145 0.950 . S
H1141 C1146 0.949 . S
H1142 C1148 0.950 . S
H1143 C1149 0.950 . S
H1144 C1150 0.949 . S
C1145 H1140 0.950 . S
C1145 C1147 1.327 . S
C1145 C1151 1.429 . S
C1146 C1138 1.574 . S
C1146 H1141 0.949 . S
C1146 C1152 1.368 . S
C1147 C1131 1.349 . S
C1147 H1139 0.950 . S
C1147 C1145 1.327 . S
C1148 C1136 1.349 . S
C1148 H1142 0.950 . S
C1148 C1149 1.327 . S
C1149 H1143 0.950 . S
C1149 C1148 1.327 . S
C1149 C1153 1.429 . S
C1150 C1133 1.574 . S
C1150 H1144 0.949 . S
C1150 C1154 1.368 . S
C1151 C1132 1.429 . S
C1151 C1145 1.429 . S
C1151 C1152 1.523 . S
C1152 C1133 1.368 . S
C1152 C1146 1.368 . S
C1152 C1151 1.523 . S
C1153 C1137 1.429 . S
C1153 C1149 1.429 . S
C1153 C1154 1.523 . S
C1154 C1138 1.368 . S
C1154 C1150 1.368 . S
C1154 C1153 1.523 . S
H1155 C1130 0.950 . S
H1156 C1132 0.950 . S
H1157 C1133 0.949 . S
H1158 C1135 0.950 . S
H1159 C1137 0.950 . S
C1160 C1161 1.349 . S
C1160 C1162 1.327 . S
C1160 H1185 0.950 . S
C1161 C1160 1.349 . S
C1161 C1177 1.349 . S
C1162 C1160 1.327 . S
C1162 C1181 1.429 . S
C1162 H1186 0.950 . S
C1163 C1180 1.574 . S
C1163 C1182 1.368 . S
C1163 H1187 0.949 . S
H1164 C1168 0.949 . S
C1165 C1166 1.349 . S
C1165 C1167 1.327 . S
C1165 H1188 0.950 . S
C1166 C1165 1.349 . S
C1166 C1178 1.349 . S
C1167 C1165 1.327 . S
C1167 C1183 1.429 . S
C1167 H1189 0.950 . S
C1168 H1164 0.949 . S
C1168 C1176 1.574 . S
C1168 C1184 1.368 . S
H1169 C1177 0.950 . S
H1170 C1175 0.950 . S
H1171 C1176 0.949 . S
H1172 C1178 0.950 . S
H1173 C1179 0.950 . S
H1174 C1180 0.949 . S
C1175 H1170 0.950 . S
C1175 C1177 1.327 . S
C1175 C1181 1.429 . S
C1176 C1168 1.574 . S
C1176 H1171 0.949 . S
C1176 C1182 1.368 . S
C1177 C1161 1.349 . S
C1177 H1169 0.950 . S
C1177 C1175 1.327 . S
C1178 C1166 1.349 . S
C1178 H1172 0.950 . S
C1178 C1179 1.327 . S
C1179 H1173 0.950 . S
C1179 C1178 1.327 . S
C1179 C1183 1.429 . S
C1180 C1163 1.574 . S
C1180 H1174 0.949 . S
C1180 C1184 1.368 . S
C1181 C1162 1.429 . S
C1181 C1175 1.429 . S
C1181 C1182 1.523 . S
C1182 C1163 1.368 . S
C1182 C1176 1.368 . S
C1182 C1181 1.523 . S
C1183 C1167 1.429 . S
C1183 C1179 1.429 . S
C1183 C1184 1.523 . S
C1184 C1168 1.368 . S
C1184 C1180 1.368 . S
C1184 C1183 1.523 . S
H1185 C1160 0.950 . S
H1186 C1162 0.950 . S
H1187 C1163 0.949 . S
H1188 C1165 0.950 . S
H1189 C1167 0.950 . S
C1190 C1191 1.349 . S
C1190 C1192 1.327 . S
C1190 H1215 0.950 . S
C1191 C1190 1.349 . S
C1191 C1207 1.349 . S
C1192 C1190 1.327 . S
C1192 C1211 1.429 . S
C1192 H1216 0.950 . S
C1193 C1210 1.574 . S
C1193 C1212 1.368 . S
C1193 H1217 0.949 . S
H1194 C1198 0.949 . S
C1195 C1196 1.348 1_554 S
C1195 C1197 1.327 1_554 S
C1195 H1218 0.950 . S
C1196 C1195 1.348 1_556 S
C1196 C1208 1.364 . S
C1197 C1195 1.327 1_556 S
C1197 C1213 1.429 . S
C1197 H1219 0.950 . S
C1198 H1194 0.949 . S
C1198 C1206 1.574 . S
C1198 C1214 1.368 . S
H1199 C1207 0.950 . S
H1200 C1205 0.950 . S
H1201 C1206 0.949 . S
H1202 C1208 0.950 . S
H1203 C1209 0.950 . S
H1204 C1210 0.949 . S
C1205 H1200 0.950 . S
C1205 C1207 1.327 . S
C1205 C1211 1.429 . S
C1206 C1198 1.574 . S
C1206 H1201 0.949 . S
C1206 C1212 1.368 . S
C1207 C1191 1.349 . S
C1207 H1199 0.950 . S
C1207 C1205 1.327 . S
C1208 C1196 1.364 . S
C1208 H1202 0.950 . S
C1208 C1209 1.327 . S
C1209 H1203 0.950 . S
C1209 C1208 1.327 . S
C1209 C1213 1.429 . S
C1210 C1193 1.574 . S
C1210 H1204 0.949 . S
C1210 C1214 1.368 . S
C1211 C1192 1.429 . S
C1211 C1205 1.429 . S
C1211 C1212 1.523 . S
C1212 C1193 1.368 . S
C1212 C1206 1.368 . S
C1212 C1211 1.523 . S
C1213 C1197 1.429 . S
C1213 C1209 1.429 . S
C1213 C1214 1.523 . S
C1214 C1198 1.368 . S
C1214 C1210 1.368 . S
C1214 C1213 1.523 . S
H1215 C1190 0.950 . S
H1216 C1192 0.950 . S
H1217 C1193 0.949 . S
H1218 C1195 0.950 . S
H1219 C1197 0.950 . S
C1220 C1221 1.349 . S
C1220 C1222 1.327 . S
C1220 H1245 0.950 . S
C1221 C1220 1.349 . S
C1221 C1237 1.349 . S
C1222 C1220 1.327 . S
C1222 C1241 1.429 . S
C1222 H1246 0.950 . S
C1223 C1240 1.574 . S
C1223 C1242 1.368 . S
C1223 H1247 0.949 . S
H1224 C1228 0.949 . S
C1225 C1226 1.349 . S
C1225 C1227 1.327 . S
C1225 H1248 0.950 . S
C1226 C1225 1.349 . S
C1226 C1238 1.349 . S
C1227 C1225 1.327 . S
C1227 C1243 1.429 . S
C1227 H1249 0.950 . S
C1228 H1224 0.949 . S
C1228 C1236 1.573 1_655 S
C1228 C1244 1.368 . S
H1229 C1237 0.950 . S
H1230 C1235 0.950 1_655 S
H1231 C1236 0.950 . S
H1232 C1238 0.950 . S
H1233 C1239 0.950 . S
H1234 C1240 0.949 . S
C1235 H1230 0.950 1_455 S
C1235 C1237 1.327 . S
C1235 C1241 1.429 . S
C1236 C1228 1.573 1_455 S
C1236 H1231 0.950 . S
C1236 C1242 1.368 1_455 S
C1237 C1221 1.349 . S
C1237 H1229 0.950 . S
C1237 C1235 1.327 . S
C1238 C1226 1.349 . S
C1238 H1232 0.950 . S
C1238 C1239 1.327 . S
C1239 H1233 0.950 . S
C1239 C1238 1.327 . S
C1239 C1243 1.429 . S
C1240 C1223 1.574 . S
C1240 H1234 0.949 . S
C1240 C1244 1.368 . S
C1241 C1222 1.429 . S
C1241 C1235 1.429 . S
C1241 C1242 1.523 1_455 S
C1242 C1223 1.368 . S
C1242 C1236 1.368 1_655 S
C1242 C1241 1.523 1_655 S
C1243 C1227 1.429 . S
C1243 C1239 1.429 . S
C1243 C1244 1.523 . S
C1244 C1228 1.368 . S
C1244 C1240 1.368 . S
C1244 C1243 1.523 . S
H1245 C1220 0.950 . S
H1246 C1222 0.950 . S
H1247 C1223 0.949 . S
H1248 C1225 0.950 . S
H1249 C1227 0.950 . S
C1250 C1251 1.349 . S
C1250 C1252 1.327 . S
C1250 H1275 0.950 . S
C1251 C1250 1.349 . S
C1251 C1267 1.349 . S
C1252 C1250 1.327 . S
C1252 C1271 1.429 . S
C1252 H1276 0.950 . S
C1253 C1270 1.574 . S
C1253 C1272 1.368 . S
C1253 H1277 0.949 . S
H1254 C1258 0.949 . S
C1255 C1256 1.349 . S
C1255 C1257 1.327 . S
C1255 H1278 0.950 . S
C1256 C1255 1.349 . S
C1256 C1268 1.349 . S
C1257 C1255 1.327 . S
C1257 C1273 1.429 . S
C1257 H1279 0.950 . S
C1258 H1254 0.949 . S
C1258 C1266 1.574 . S
C1258 C1274 1.368 . S
H1259 C1267 0.950 . S
H1260 C1265 0.950 . S
H1261 C1266 0.949 . S
H1262 C1268 0.950 . S
H1263 C1269 0.950 . S
H1264 C1270 0.949 . S
C1265 H1260 0.950 . S
C1265 C1267 1.327 . S
C1265 C1271 1.429 . S
C1266 C1258 1.574 . S
C1266 H1261 0.949 . S
C1266 C1272 1.368 . S
C1267 C1251 1.349 . S
C1267 H1259 0.950 . S
C1267 C1265 1.327 . S
C1268 C1256 1.349 . S
C1268 H1262 0.950 . S
C1268 C1269 1.327 . S
C1269 H1263 0.950 . S
C1269 C1268 1.327 . S
C1269 C1273 1.429 . S
C1270 C1253 1.574 . S
C1270 H1264 0.949 . S
C1270 C1274 1.368 . S
C1271 C1252 1.429 . S
C1271 C1265 1.429 . S
C1271 C1272 1.523 . S
C1272 C1253 1.368 . S
C1272 C1266 1.368 . S
C1272 C1271 1.523 . S
C1273 C1257 1.429 . S
C1273 C1269 1.429 . S
C1273 C1274 1.523 . S
C1274 C1258 1.368 . S
C1274 C1270 1.368 . S
C1274 C1273 1.523 . S
H1275 C1250 0.950 . S
H1276 C1252 0.950 . S
H1277 C1253 0.949 . S
H1278 C1255 0.950 . S
H1279 C1257 0.950 . S
C1280 C1281 1.349 . S
C1280 C1282 1.327 . S
C1280 H1305 0.950 . S
C1281 C1280 1.349 . S
C1281 C1297 1.349 . S
C1282 C1280 1.327 . S
C1282 C1301 1.429 . S
C1282 H1306 0.950 . S
C1283 C1300 1.574 . S
C1283 C1302 1.368 . S
C1283 H1307 0.949 . S
H1284 C1288 0.949 . S
C1285 C1286 1.349 . S
C1285 C1287 1.327 . S
C1285 H1308 0.950 . S
C1286 C1285 1.349 . S
C1286 C1298 1.349 . S
C1287 C1285 1.327 . S
C1287 C1303 1.429 . S
C1287 H1309 0.950 . S
C1288 H1284 0.949 . S
C1288 C1296 1.574 . S
C1288 C1304 1.368 . S
H1289 C1297 0.950 . S
H1290 C1295 0.950 . S
H1291 C1296 0.949 . S
H1292 C1298 0.950 . S
H1293 C1299 0.983 . S
H1294 C1300 0.949 1_455 S
C1295 H1290 0.950 . S
C1295 C1297 1.327 . S
C1295 C1301 1.429 . S
C1296 C1288 1.574 . S
C1296 H1291 0.949 . S
C1296 C1302 1.368 . S
C1297 C1281 1.349 . S
C1297 H1289 0.950 . S
C1297 C1295 1.327 . S
C1298 C1286 1.349 . S
C1298 H1292 0.950 . S
C1298 C1299 1.327 . S
C1299 H1293 0.983 . S
C1299 C1298 1.327 . S
C1299 C1303 1.429 . S
C1300 C1283 1.574 . S
C1300 H1294 0.949 1_655 S
C1300 C1304 1.368 . S
C1301 C1282 1.429 . S
C1301 C1295 1.429 . S
C1301 C1302 1.523 . S
C1302 C1283 1.368 . S
C1302 C1296 1.368 . S
C1302 C1301 1.523 . S
C1303 C1287 1.429 . S
C1303 C1299 1.429 . S
C1303 C1304 1.523 1_455 S
C1304 C1288 1.368 . S
C1304 C1300 1.368 . S
C1304 C1303 1.523 1_655 S
H1305 C1280 0.950 . S
H1306 C1282 0.950 . S
H1307 C1283 0.949 . S
H1308 C1285 0.950 . S
H1309 C1287 0.950 . S
C1310 C1311 1.349 . S
C1310 C1312 1.327 . S
C1310 H1335 0.950 . S
C1311 C1310 1.349 . S
C1311 C1327 1.349 . S
C1312 C1310 1.327 . S
C1312 C1331 1.429 . S
C1312 H1336 0.950 . S
C1313 C1330 1.574 . S
C1313 C1332 1.368 . S
C1313 H1337 0.949 . S
H1314 C1318 0.949 . S
C1315 C1316 1.349 . S
C1315 C1317 1.327 . S
C1315 H1338 0.950 . S
C1316 C1315 1.349 . S
C1316 C1328 1.349 . S
C1317 C1315 1.327 . S
C1317 C1333 1.429 . S
C1317 H1339 0.950 . S
C1318 H1314 0.949 . S
C1318 C1326 1.574 . S
C1318 C1334 1.368 . S
H1319 C1327 0.950 . S
H1320 C1325 0.950 . S
H1321 C1326 0.949 . S
H1322 C1328 0.950 . S
H1323 C1329 0.950 . S
H1324 C1330 0.949 . S
C1325 H1320 0.950 . S
C1325 C1327 1.327 . S
C1325 C1331 1.429 . S
C1326 C1318 1.574 . S
C1326 H1321 0.949 . S
C1326 C1332 1.368 . S
C1327 C1311 1.349 . S
C1327 H1319 0.950 . S
C1327 C1325 1.327 . S
C1328 C1316 1.349 . S
C1328 H1322 0.950 . S
C1328 C1329 1.327 . S
C1329 H1323 0.950 . S
C1329 C1328 1.327 . S
C1329 C1333 1.429 . S
C1330 C1313 1.574 . S
C1330 H1324 0.949 . S
C1330 C1334 1.368 . S
C1331 C1312 1.429 . S
C1331 C1325 1.429 . S
C1331 C1332 1.523 . S
C1332 C1313 1.368 . S
C1332 C1326 1.368 . S
C1332 C1331 1.523 . S
C1333 C1317 1.429 . S
C1333 C1329 1.429 . S
C1333 C1334 1.523 . S
C1334 C1318 1.368 . S
C1334 C1330 1.368 . S
C1334 C1333 1.523 . S
H1335 C1310 0.950 . S
H1336 C1312 0.950 . S
H1337 C1313 0.949 . S
H1338 C1315 0.950 . S
H1339 C1317 0.950 . S
C1340 C1341 1.349 . S
C1340 C1342 1.327 . S
C1340 H1365 0.950 . S
C1341 C1340 1.349 . S
C1341 C1357 1.349 . S
C1342 C1340 1.327 . S
C1342 C1361 1.429 . S
C1342 H1366 0.950 . S
C1343 C1360 1.574 . S
C1343 C1362 1.368 . S
C1343 H1367 0.949 . S
H1344 C1348 0.949 . S
C1345 C1346 1.349 . S
C1345 C1347 1.327 . S
C1345 H1368 0.950 . S
C1346 C1345 1.349 . S
C1346 C1358 1.349 . S
C1347 C1345 1.327 . S
C1347 C1363 1.429 . S
C1347 H1369 0.950 . S
C1348 H1344 0.949 . S
C1348 C1356 1.574 . S
C1348 C1364 1.368 . S
H1349 C1357 0.950 . S
H1350 C1355 0.950 . S
H1351 C1356 0.949 . S
H1352 C1358 0.950 . S
H1353 C1359 0.950 . S
H1354 C1360 0.949 . S
C1355 H1350 0.950 . S
C1355 C1357 1.327 . S
C1355 C1361 1.429 . S
C1356 C1348 1.574 . S
C1356 H1351 0.949 . S
C1356 C1362 1.368 . S
C1357 C1341 1.349 . S
C1357 H1349 0.950 . S
C1357 C1355 1.327 . S
C1358 C1346 1.349 . S
C1358 H1352 0.950 . S
C1358 C1359 1.327 . S
C1359 H1353 0.950 . S
C1359 C1358 1.327 . S
C1359 C1363 1.429 . S
C1360 C1343 1.574 . S
C1360 H1354 0.949 . S
C1360 C1364 1.368 . S
C1361 C1342 1.429 . S
C1361 C1355 1.429 . S
C1361 C1362 1.523 . S
C1362 C1343 1.368 . S
C1362 C1356 1.368 . S
C1362 C1361 1.523 . S
C1363 C1347 1.429 . S
C1363 C1359 1.429 . S
C1363 C1364 1.523 . S
C1364 C1348 1.368 . S
C1364 C1360 1.368 . S
C1364 C1363 1.523 . S
H1365 C1340 0.950 . S
H1366 C1342 0.950 . S
H1367 C1343 0.949 . S
H1368 C1345 0.950 . S
H1369 C1347 0.950 . S
C1370 C1371 1.348 1_556 S
C1370 C1372 1.327 1_556 S
C1370 H1395 0.950 . S
C1371 C1370 1.348 1_554 S
C1371 C1387 1.365 . S
C1372 C1370 1.327 1_554 S
C1372 C1391 1.429 . S
C1372 H1396 0.950 . S
C1373 C1390 1.574 . S
C1373 C1392 1.368 . S
C1373 H1397 0.949 . S
H1374 C1378 0.949 . S
C1375 C1376 1.349 . S
C1375 C1377 1.327 . S
C1375 H1398 0.950 . S
C1376 C1375 1.349 . S
C1376 C1388 1.349 . S
C1377 C1375 1.327 . S
C1377 C1393 1.429 . S
C1377 H1399 0.950 . S
C1378 H1374 0.949 . S
C1378 C1386 1.574 . S
C1378 C1394 1.368 . S
H1379 C1387 0.950 . S
H1380 C1385 0.950 . S
H1381 C1386 0.949 . S
H1382 C1388 0.950 . S
H1383 C1389 0.950 . S
H1384 C1390 0.949 . S
C1385 H1380 0.950 . S
C1385 C1387 1.327 . S
C1385 C1391 1.429 . S
C1386 C1378 1.574 . S
C1386 H1381 0.949 . S
C1386 C1392 1.368 . S
C1387 C1371 1.365 . S
C1387 H1379 0.950 . S
C1387 C1385 1.327 . S
C1388 C1376 1.349 . S
C1388 H1382 0.950 . S
C1388 C1389 1.327 . S
C1389 H1383 0.950 . S
C1389 C1388 1.327 . S
C1389 C1393 1.429 . S
C1390 C1373 1.574 . S
C1390 H1384 0.949 . S
C1390 C1394 1.368 . S
C1391 C1372 1.429 . S
C1391 C1385 1.429 . S
C1391 C1392 1.523 . S
C1392 C1373 1.368 . S
C1392 C1386 1.368 . S
C1392 C1391 1.523 . S
C1393 C1377 1.429 . S
C1393 C1389 1.429 . S
C1393 C1394 1.523 . S
C1394 C1378 1.368 . S
C1394 C1390 1.368 . S
C1394 C1393 1.523 . S
H1395 C1370 0.950 . S
H1396 C1372 0.950 . S
H1397 C1373 0.949 . S
H1398 C1375 0.950 . S
H1399 C1377 0.950 . S
C1400 C1401 1.349 . S
C1400 C1402 1.327 . S
C1400 H1425 0.950 . S
C1401 C1400 1.349 . S
C1401 C1417 1.349 . S
C1402 C1400 1.327 . S
C1402 C1421 1.429 . S
C1402 H1426 0.950 . S
C1403 C1420 1.574 . S
C1403 C1422 1.368 . S
C1403 H1427 0.949 . S
H1404 C1408 0.926 1_655 S
C1405 C1406 1.349 . S
C1405 C1407 1.327 . S
C1405 H1428 0.950 . S
C1406 C1405 1.349 . S
C1406 C1418 1.349 . S
C1407 C1405 1.327 . S
C1407 C1423 1.429 . S
C1407 H1429 0.950 1_655 S
C1408 H1404 0.926 1_455 S
C1408 C1416 1.592 . S
C1408 C1424 1.376 . S
H1409 C1417 0.950 . S
H1410 C1415 0.950 . S
H1411 C1416 0.949 . S
H1412 C1418 0.950 . S
H1413 C1419 0.950 . S
H1414 C1420 0.949 . S
C1415 H1410 0.950 . S
C1415 C1417 1.327 . S
C1415 C1421 1.429 . S
C1416 C1408 1.592 . S
C1416 H1411 0.949 . S
C1416 C1422 1.368 . S
C1417 C1401 1.349 . S
C1417 H1409 0.950 . S
C1417 C1415 1.327 . S
C1418 C1406 1.349 . S
C1418 H1412 0.950 . S
C1418 C1419 1.327 . S
C1419 H1413 0.950 . S
C1419 C1418 1.327 . S
C1419 C1423 1.429 . S
C1420 C1403 1.574 . S
C1420 H1414 0.949 . S
C1420 C1424 1.368 . S
C1421 C1402 1.429 . S
C1421 C1415 1.429 . S
C1421 C1422 1.523 . S
C1422 C1403 1.368 . S
C1422 C1416 1.368 . S
C1422 C1421 1.523 . S
C1423 C1407 1.429 . S
C1423 C1419 1.429 . S
C1423 C1424 1.523 1_655 S
C1424 C1408 1.376 . S
C1424 C1420 1.368 . S
C1424 C1423 1.523 1_455 S
H1425 C1400 0.950 . S
H1426 C1402 0.950 . S
H1427 C1403 0.949 . S
H1428 C1405 0.950 . S
H1429 C1407 0.950 1_455 S
C1430 C1431 1.349 . S
C1430 C1432 1.327 . S
C1430 H1455 0.950 . S
C1431 C1430 1.349 . S
C1431 C1447 1.349 . S
C1432 C1430 1.327 . S
C1432 C1451 1.429 . S
C1432 H1456 0.950 . S
C1433 C1450 1.574 . S
C1433 C1452 1.368 . S
C1433 H1457 0.949 . S
H1434 C1438 0.949 . S
C1435 C1436 1.349 . S
C1435 C1437 1.327 . S
C1435 H1458 0.950 . S
C1436 C1435 1.349 . S
C1436 C1448 1.349 . S
C1437 C1435 1.327 . S
C1437 C1453 1.429 . S
C1437 H1459 0.950 . S
C1438 H1434 0.949 . S
C1438 C1446 1.574 . S
C1438 C1454 1.368 . S
H1439 C1447 0.950 . S
H1440 C1445 0.950 . S
H1441 C1446 0.949 . S
H1442 C1448 0.950 . S
H1443 C1449 0.950 . S
H1444 C1450 0.949 . S
C1445 H1440 0.950 . S
C1445 C1447 1.327 . S
C1445 C1451 1.429 . S
C1446 C1438 1.574 . S
C1446 H1441 0.949 . S
C1446 C1452 1.368 . S
C1447 C1431 1.349 . S
C1447 H1439 0.950 . S
C1447 C1445 1.327 . S
C1448 C1436 1.349 . S
C1448 H1442 0.950 . S
C1448 C1449 1.327 . S
C1449 H1443 0.950 . S
C1449 C1448 1.327 . S
C1449 C1453 1.429 . S
C1450 C1433 1.574 . S
C1450 H1444 0.949 . S
C1450 C1454 1.368 . S
C1451 C1432 1.429 . S
C1451 C1445 1.429 . S
C1451 C1452 1.523 . S
C1452 C1433 1.368 . S
C1452 C1446 1.368 . S
C1452 C1451 1.523 . S
C1453 C1437 1.429 . S
C1453 C1449 1.429 . S
C1453 C1454 1.523 . S
C1454 C1438 1.368 . S
C1454 C1450 1.368 . S
C1454 C1453 1.523 . S
H1455 C1430 0.950 . S
H1456 C1432 0.950 . S
H1457 C1433 0.949 . S
H1458 C1435 0.950 . S
H1459 C1437 0.950 . S
C1460 C1461 1.349 . S
C1460 C1462 1.327 . S
C1460 H1485 0.950 . S
C1461 C1460 1.349 . S
C1461 C1477 1.349 . S
C1462 C1460 1.327 . S
C1462 C1481 1.429 . S
C1462 H1486 0.950 . S
C1463 C1480 1.574 . S
C1463 C1482 1.368 . S
C1463 H1487 0.949 . S
H1464 C1468 0.949 . S
C1465 C1466 1.349 . S
C1465 C1467 1.327 . S
C1465 H1488 0.950 . S
C1466 C1465 1.349 . S
C1466 C1478 1.349 . S
C1467 C1465 1.327 . S
C1467 C1483 1.429 . S
C1467 H1489 0.950 . S
C1468 H1464 0.949 . S
C1468 C1476 1.574 . S
C1468 C1484 1.368 . S
H1469 C1477 0.950 . S
H1470 C1475 0.950 . S
H1471 C1476 0.949 . S
H1472 C1478 0.950 . S
H1473 C1479 0.950 . S
H1474 C1480 0.949 . S
C1475 H1470 0.950 . S
C1475 C1477 1.327 . S
C1475 C1481 1.429 . S
C1476 C1468 1.574 . S
C1476 H1471 0.949 . S
C1476 C1482 1.368 . S
C1477 C1461 1.349 . S
C1477 H1469 0.950 . S
C1477 C1475 1.327 . S
C1478 C1466 1.349 . S
C1478 H1472 0.950 . S
C1478 C1479 1.327 . S
C1479 H1473 0.950 . S
C1479 C1478 1.327 . S
C1479 C1483 1.429 . S
C1480 C1463 1.574 . S
C1480 H1474 0.949 . S
C1480 C1484 1.368 . S
C1481 C1462 1.429 . S
C1481 C1475 1.429 . S
C1481 C1482 1.523 . S
C1482 C1463 1.368 . S
C1482 C1476 1.368 . S
C1482 C1481 1.523 . S
C1483 C1467 1.429 . S
C1483 C1479 1.429 . S
C1483 C1484 1.523 . S
C1484 C1468 1.368 . S
C1484 C1480 1.368 . S
C1484 C1483 1.523 . S
H1485 C1460 0.950 . S
H1486 C1462 0.950 . S
H1487 C1463 0.949 . S
H1488 C1465 0.950 . S
H1489 C1467 0.950 . S
C1490 C1491 1.346 1_554 S
C1490 C1492 1.327 1_554 S
C1490 H1515 0.950 . S
C1491 C1490 1.346 1_556 S
C1491 C1507 1.366 . S
C1492 C1490 1.327 1_556 S
C1492 C1511 1.429 . S
C1492 H1516 0.950 . S
C1493 C1510 1.574 . S
C1493 C1512 1.368 . S
C1493 H1517 0.949 . S
H1494 C1498 0.949 . S
C1495 C1496 1.349 . S
C1495 C1497 1.327 . S
C1495 H1518 0.950 . S
C1496 C1495 1.349 . S
C1496 C1508 1.349 . S
C1497 C1495 1.327 . S
C1497 C1513 1.429 . S
C1497 H1519 0.950 . S
C1498 H1494 0.949 . S
C1498 C1506 1.574 . S
C1498 C1514 1.368 . S
H1499 C1507 0.950 . S
H1500 C1505 0.950 . S
H1501 C1506 0.949 . S
H1502 C1508 0.950 . S
H1503 C1509 0.950 . S
H1504 C1510 0.949 . S
C1505 H1500 0.950 . S
C1505 C1507 1.327 . S
C1505 C1511 1.429 . S
C1506 C1498 1.574 . S
C1506 H1501 0.949 . S
C1506 C1512 1.368 . S
C1507 C1491 1.366 . S
C1507 H1499 0.950 . S
C1507 C1505 1.327 . S
C1508 C1496 1.349 . S
C1508 H1502 0.950 . S
C1508 C1509 1.327 . S
C1509 H1503 0.950 . S
C1509 C1508 1.327 . S
C1509 C1513 1.429 . S
C1510 C1493 1.574 . S
C1510 H1504 0.949 . S
C1510 C1514 1.368 . S
C1511 C1492 1.429 . S
C1511 C1505 1.429 . S
C1511 C1512 1.523 . S
C1512 C1493 1.368 . S
C1512 C1506 1.368 . S
C1512 C1511 1.523 . S
C1513 C1497 1.429 . S
C1513 C1509 1.429 . S
C1513 C1514 1.523 . S
C1514 C1498 1.368 . S
C1514 C1510 1.368 . S
C1514 C1513 1.523 . S
H1515 C1490 0.950 . S
H1516 C1492 0.950 . S
H1517 C1493 0.949 . S
H1518 C1495 0.950 . S
H1519 C1497 0.950 . S
C1520 C1521 1.349 . S
C1520 C1522 1.327 . S
C1520 H1545 0.950 . S
C1521 C1520 1.349 . S
C1521 C1537 1.349 . S
C1522 C1520 1.327 . S
C1522 C1541 1.429 . S
C1522 H1546 0.950 . S
C1523 C1540 1.574 . S
C1523 C1542 1.368 . S
C1523 H1547 0.949 . S
H1524 C1528 0.949 . S
C1525 C1526 1.349 . S
C1525 C1527 1.327 . S
C1525 H1548 0.950 . S
C1526 C1525 1.349 . S
C1526 C1538 1.349 . S
C1527 C1525 1.327 . S
C1527 C1543 1.429 . S
C1527 H1549 0.950 . S
C1528 H1524 0.949 . S
C1528 C1536 1.574 . S
C1528 C1544 1.368 . S
H1529 C1537 0.950 . S
H1530 C1535 0.950 . S
H1531 C1536 0.949 . S
H1532 C1538 0.950 . S
H1533 C1539 0.950 . S
H1534 C1540 0.949 . S
C1535 H1530 0.950 . S
C1535 C1537 1.327 . S
C1535 C1541 1.429 . S
C1536 C1528 1.574 . S
C1536 H1531 0.949 . S
C1536 C1542 1.368 . S
C1537 C1521 1.349 . S
C1537 H1529 0.950 . S
C1537 C1535 1.327 . S
C1538 C1526 1.349 . S
C1538 H1532 0.950 . S
C1538 C1539 1.327 . S
C1539 H1533 0.950 . S
C1539 C1538 1.327 . S
C1539 C1543 1.429 . S
C1540 C1523 1.574 . S
C1540 H1534 0.949 . S
C1540 C1544 1.368 . S
C1541 C1522 1.429 . S
C1541 C1535 1.429 . S
C1541 C1542 1.523 . S
C1542 C1523 1.368 . S
C1542 C1536 1.368 . S
C1542 C1541 1.523 . S
C1543 C1527 1.429 . S
C1543 C1539 1.429 . S
C1543 C1544 1.523 . S
C1544 C1528 1.368 . S
C1544 C1540 1.368 . S
C1544 C1543 1.523 . S
H1545 C1520 0.950 . S
H1546 C1522 0.950 . S
H1547 C1523 0.949 . S
H1548 C1525 0.950 . S
H1549 C1527 0.950 . S
C1550 C1551 1.349 . S
C1550 C1552 1.327 . S
C1550 H1575 0.950 . S
C1551 C1550 1.349 . S
C1551 C1567 1.349 . S
C1552 C1550 1.327 . S
C1552 C1571 1.429 . S
C1552 H1576 0.950 . S
C1553 C1570 1.574 . S
C1553 C1572 1.368 . S
C1553 H1577 0.949 . S
H1554 C1558 0.949 . S
C1555 C1556 1.349 . S
C1555 C1557 1.327 . S
C1555 H1578 0.950 . S
C1556 C1555 1.349 . S
C1556 C1568 1.349 . S
C1557 C1555 1.327 . S
C1557 C1573 1.429 . S
C1557 H1579 0.950 . S
C1558 H1554 0.949 . S
C1558 C1566 1.574 . S
C1558 C1574 1.368 . S
H1559 C1567 0.950 . S
H1560 C1565 0.950 . S
H1561 C1566 0.949 . S
H1562 C1568 0.950 . S
H1563 C1569 0.950 . S
H1564 C1570 0.949 . S
C1565 H1560 0.950 . S
C1565 C1567 1.327 . S
C1565 C1571 1.429 . S
C1566 C1558 1.574 . S
C1566 H1561 0.949 . S
C1566 C1572 1.368 . S
C1567 C1551 1.349 . S
C1567 H1559 0.950 . S
C1567 C1565 1.327 . S
C1568 C1556 1.349 . S
C1568 H1562 0.950 . S
C1568 C1569 1.327 . S
C1569 H1563 0.950 . S
C1569 C1568 1.327 . S
C1569 C1573 1.429 . S
C1570 C1553 1.574 . S
C1570 H1564 0.949 . S
C1570 C1574 1.368 . S
C1571 C1552 1.429 . S
C1571 C1565 1.429 . S
C1571 C1572 1.523 . S
C1572 C1553 1.368 . S
C1572 C1566 1.368 . S
C1572 C1571 1.523 . S
C1573 C1557 1.429 . S
C1573 C1569 1.429 . S
C1573 C1574 1.523 . S
C1574 C1558 1.368 . S
C1574 C1570 1.368 . S
C1574 C1573 1.523 . S
H1575 C1550 0.950 . S
H1576 C1552 0.950 . S
H1577 C1553 0.949 . S
H1578 C1555 0.950 . S
H1579 C1557 0.950 . S
C1580 C1581 1.349 . S
C1580 C1582 1.327 . S
C1580 H1605 0.950 . S
C1581 C1580 1.349 . S
C1581 C1597 1.349 . S
C1582 C1580 1.327 . S
C1582 C1601 1.429 . S
C1582 H1606 0.950 . S
C1583 C1600 1.574 . S
C1583 C1602 1.368 . S
C1583 H1607 0.949 . S
H1584 C1588 0.949 . S
C1585 C1586 1.349 . S
C1585 C1587 1.327 . S
C1585 H1608 0.950 . S
C1586 C1585 1.349 . S
C1586 C1598 1.349 . S
C1587 C1585 1.327 . S
C1587 C1603 1.429 . S
C1587 H1609 0.950 . S
C1588 H1584 0.949 . S
C1588 C1596 1.574 . S
C1588 C1604 1.368 . S
H1589 C1597 0.950 . S
H1590 C1595 0.950 . S
H1591 C1596 0.949 . S
H1592 C1598 0.950 . S
H1593 C1599 0.950 . S
H1594 C1600 0.949 . S
C1595 H1590 0.950 . S
C1595 C1597 1.327 . S
C1595 C1601 1.429 . S
C1596 C1588 1.574 . S
C1596 H1591 0.949 . S
C1596 C1602 1.368 . S
C1597 C1581 1.349 . S
C1597 H1589 0.950 . S
C1597 C1595 1.327 . S
C1598 C1586 1.349 . S
C1598 H1592 0.950 . S
C1598 C1599 1.327 . S
C1599 H1593 0.950 . S
C1599 C1598 1.327 . S
C1599 C1603 1.429 . S
C1600 C1583 1.574 . S
C1600 H1594 0.949 . S
C1600 C1604 1.368 . S
C1601 C1582 1.429 . S
C1601 C1595 1.429 . S
C1601 C1602 1.523 . S
C1602 C1583 1.368 . S
C1602 C1596 1.368 . S
C1602 C1601 1.523 . S
C1603 C1587 1.429 . S
C1603 C1599 1.429 . S
C1603 C1604 1.523 . S
C1604 C1588 1.368 . S
C1604 C1600 1.368 . S
C1604 C1603 1.523 . S
H1605 C1580 0.950 . S
H1606 C1582 0.950 . S
H1607 C1583 0.949 . S
H1608 C1585 0.950 . S
H1609 C1587 0.950 . S
C1610 C1611 1.349 . S
C1610 C1612 1.327 . S
C1610 H1635 0.950 . S
C1611 C1610 1.349 . S
C1611 C1627 1.349 . S
C1612 C1610 1.327 . S
C1612 C1631 1.429 . S
C1612 H1636 0.950 . S
C1613 C1630 1.563 1_554 S
C1613 C1632 1.368 . S
C1613 H1637 0.949 . S
H1614 C1618 0.949 . S
C1615 C1616 1.349 . S
C1615 C1617 1.327 . S
C1615 H1638 0.950 . S
C1616 C1615 1.349 . S
C1616 C1628 1.349 . S
C1617 C1615 1.327 . S
C1617 C1633 1.429 . S
C1617 H1639 0.950 . S
C1618 H1614 0.949 . S
C1618 C1626 1.563 1_556 S
C1618 C1634 1.368 . S
H1619 C1627 0.950 . S
H1620 C1625 0.950 . S
H1621 C1626 0.950 . S
H1622 C1628 0.950 . S
H1623 C1629 0.950 . S
H1624 C1630 0.950 . S
C1625 H1620 0.950 . S
C1625 C1627 1.327 . S
C1625 C1631 1.429 . S
C1626 C1618 1.563 1_554 S
C1626 H1621 0.950 . S
C1626 C1632 1.379 1_655 S
C1627 C1611 1.349 . S
C1627 H1619 0.950 . S
C1627 C1625 1.327 . S
C1628 C1616 1.349 . S
C1628 H1622 0.950 . S
C1628 C1629 1.327 . S
C1629 H1623 0.950 . S
C1629 C1628 1.327 . S
C1629 C1633 1.429 . S
C1630 C1613 1.563 1_556 S
C1630 H1624 0.950 . S
C1630 C1634 1.379 1_455 S
C1631 C1612 1.429 . S
C1631 C1625 1.429 . S
C1631 C1632 1.523 . S
C1632 C1613 1.368 . S
C1632 C1626 1.379 1_455 S
C1632 C1631 1.523 . S
C1633 C1617 1.429 . S
C1633 C1629 1.429 . S
C1633 C1634 1.523 . S
C1634 C1618 1.368 . S
C1634 C1630 1.379 1_655 S
C1634 C1633 1.523 . S
H1635 C1610 0.950 . S
H1636 C1612 0.950 . S
H1637 C1613 0.949 . S
H1638 C1615 0.950 . S
H1639 C1617 0.950 . S
C1640 C1641 1.349 . S
C1640 C1642 1.327 . S
C1640 H1665 0.950 . S
C1641 C1640 1.349 . S
C1641 C1657 1.349 . S
C1642 C1640 1.327 . S
C1642 C1661 1.429 . S
C1642 H1666 0.950 . S
C1643 C1660 1.574 . S
C1643 C1662 1.368 . S
C1643 H1667 0.949 . S
H1644 C1648 0.949 . S
C1645 C1646 1.349 . S
C1645 C1647 1.327 . S
C1645 H1668 0.950 . S
C1646 C1645 1.349 . S
C1646 C1658 1.349 . S
C1647 C1645 1.327 . S
C1647 C1663 1.429 . S
C1647 H1669 0.950 . S
C1648 H1644 0.949 . S
C1648 C1656 1.574 . S
C1648 C1664 1.368 . S
H1649 C1657 0.950 . S
H1650 C1655 0.950 . S
H1651 C1656 0.949 . S
H1652 C1658 0.950 . S
H1653 C1659 0.950 . S
H1654 C1660 0.949 . S
C1655 H1650 0.950 . S
C1655 C1657 1.327 . S
C1655 C1661 1.429 . S
C1656 C1648 1.574 . S
C1656 H1651 0.949 . S
C1656 C1662 1.368 . S
C1657 C1641 1.349 . S
C1657 H1649 0.950 . S
C1657 C1655 1.327 . S
C1658 C1646 1.349 . S
C1658 H1652 0.950 . S
C1658 C1659 1.327 . S
C1659 H1653 0.950 . S
C1659 C1658 1.327 . S
C1659 C1663 1.429 . S
C1660 C1643 1.574 . S
C1660 H1654 0.949 . S
C1660 C1664 1.368 . S
C1661 C1642 1.429 . S
C1661 C1655 1.429 . S
C1661 C1662 1.523 . S
C1662 C1643 1.368 . S
C1662 C1656 1.368 . S
C1662 C1661 1.523 . S
C1663 C1647 1.429 . S
C1663 C1659 1.429 . S
C1663 C1664 1.523 . S
C1664 C1648 1.368 . S
C1664 C1660 1.368 . S
C1664 C1663 1.523 . S
H1665 C1640 0.950 . S
H1666 C1642 0.950 . S
H1667 C1643 0.949 . S
H1668 C1645 0.950 . S
H1669 C1647 0.950 . S
C1670 C1671 1.349 . S
C1670 C1672 1.327 . S
C1670 H1695 0.950 . S
C1671 C1670 1.349 . S
C1671 C1687 1.349 . S
C1672 C1670 1.327 . S
C1672 C1691 1.429 . S
C1672 H1696 0.950 . S
C1673 C1690 1.574 . S
C1673 C1692 1.368 . S
C1673 H1697 0.949 . S
H1674 C1678 0.949 . S
C1675 C1676 1.349 . S
C1675 C1677 1.327 . S
C1675 H1698 0.950 . S
C1676 C1675 1.349 . S
C1676 C1688 1.349 . S
C1677 C1675 1.327 . S
C1677 C1693 1.429 . S
C1677 H1699 0.950 . S
C1678 H1674 0.949 . S
C1678 C1686 1.574 . S
C1678 C1694 1.368 . S
H1679 C1687 0.950 . S
H1680 C1685 0.950 . S
H1681 C1686 0.949 . S
H1682 C1688 0.950 . S
H1683 C1689 0.950 . S
H1684 C1690 0.949 . S
C1685 H1680 0.950 . S
C1685 C1687 1.327 . S
C1685 C1691 1.429 . S
C1686 C1678 1.574 . S
C1686 H1681 0.949 . S
C1686 C1692 1.368 . S
C1687 C1671 1.349 . S
C1687 H1679 0.950 . S
C1687 C1685 1.327 . S
C1688 C1676 1.349 . S
C1688 H1682 0.950 . S
C1688 C1689 1.327 . S
C1689 H1683 0.950 . S
C1689 C1688 1.327 . S
C1689 C1693 1.429 . S
C1690 C1673 1.574 . S
C1690 H1684 0.949 . S
C1690 C1694 1.368 . S
C1691 C1672 1.429 . S
C1691 C1685 1.429 . S
C1691 C1692 1.523 . S
C1692 C1673 1.368 . S
C1692 C1686 1.368 . S
C1692 C1691 1.523 . S
C1693 C1677 1.429 . S
C1693 C1689 1.429 . S
C1693 C1694 1.523 . S
C1694 C1678 1.368 . S
C1694 C1690 1.368 . S
C1694 C1693 1.523 . S
H1695 C1670 0.950 . S
H1696 C1672 0.950 . S
H1697 C1673 0.949 . S
H1698 C1675 0.950 . S
H1699 C1677 0.950 . S
C1700 C1701 1.349 . S
C1700 C1702 1.327 . S
C1700 H1725 0.950 . S
C1701 C1700 1.349 . S
C1701 C1717 1.349 . S
C1702 C1700 1.327 . S
C1702 C1721 1.429 . S
C1702 H1726 0.950 . S
C1703 C1720 1.574 1_556 S
C1703 C1722 1.368 1_655 S
C1703 H1727 0.949 . S
H1704 C1708 0.949 . S
C1705 C1706 1.349 . S
C1705 C1707 1.327 . S
C1705 H1728 0.950 . S
C1706 C1705 1.349 . S
C1706 C1718 1.349 . S
C1707 C1705 1.327 . S
C1707 C1723 1.429 . S
C1707 H1729 0.950 . S
C1708 H1704 0.949 . S
C1708 C1716 1.574 1_554 S
C1708 C1724 1.368 1_455 S
H1709 C1717 0.950 . S
H1710 C1715 0.950 . S
H1711 C1716 0.949 . S
H1712 C1718 0.950 . S
H1713 C1719 0.950 . S
H1714 C1720 0.949 . S
C1715 H1710 0.950 . S
C1715 C1717 1.327 . S
C1715 C1721 1.429 . S
C1716 C1708 1.574 1_556 S
C1716 H1711 0.949 . S
C1716 C1722 1.368 1_565 S
C1717 C1701 1.349 . S
C1717 H1709 0.950 . S
C1717 C1715 1.327 . S
C1718 C1706 1.349 . S
C1718 H1712 0.950 . S
C1718 C1719 1.327 . S
C1719 H1713 0.950 . S
C1719 C1718 1.327 . S
C1719 C1723 1.429 . S
C1720 C1703 1.574 1_554 S
C1720 H1714 0.949 . S
C1720 C1724 1.368 1_545 S
C1721 C1702 1.429 . S
C1721 C1715 1.429 . S
C1721 C1722 1.523 . S
C1722 C1703 1.368 1_455 S
C1722 C1716 1.368 1_545 S
C1722 C1721 1.523 . S
C1723 C1707 1.429 . S
C1723 C1719 1.429 . S
C1723 C1724 1.523 . S
C1724 C1708 1.368 1_655 S
C1724 C1720 1.368 1_565 S
C1724 C1723 1.523 . S
H1725 C1700 0.950 . S
H1726 C1702 0.950 . S
H1727 C1703 0.949 . S
H1728 C1705 0.950 . S
H1729 C1707 0.950 . S
C1730 C1731 1.349 . S
C1730 C1732 1.327 . S
C1730 H1755 0.950 . S
C1731 C1730 1.349 . S
C1731 C1747 1.349 . S
C1732 C1730 1.327 . S
C1732 C1751 1.429 . S
C1732 H1756 0.950 . S
C1733 C1750 1.574 1_545 S
C1733 C1752 1.368 . S
C1733 H1757 0.949 . S
H1734 C1738 0.949 . S
C1735 C1736 1.349 . S
C1735 C1737 1.327 . S
C1735 H1758 0.950 . S
C1736 C1735 1.349 . S
C1736 C1748 1.349 . S
C1737 C1735 1.327 . S
C1737 C1753 1.429 . S
C1737 H1759 0.950 . S
C1738 H1734 0.949 . S
C1738 C1746 1.574 1_565 S
C1738 C1754 1.368 . S
H1739 C1747 0.950 . S
H1740 C1745 0.950 . S
H1741 C1746 0.949 . S
H1742 C1748 0.950 . S
H1743 C1749 0.950 . S
H1744 C1750 0.949 . S
C1745 H1740 0.950 . S
C1745 C1747 1.327 . S
C1745 C1751 1.429 . S
C1746 C1738 1.574 1_545 S
C1746 H1741 0.949 . S
C1746 C1752 1.368 . S
C1747 C1731 1.349 . S
C1747 H1739 0.950 . S
C1747 C1745 1.327 . S
C1748 C1736 1.349 . S
C1748 H1742 0.950 . S
C1748 C1749 1.327 . S
C1749 H1743 0.950 . S
C1749 C1748 1.327 . S
C1749 C1753 1.429 . S
C1750 C1733 1.574 1_565 S
C1750 H1744 0.949 . S
C1750 C1754 1.368 . S
C1751 C1732 1.429 . S
C1751 C1745 1.429 . S
C1751 C1752 1.523 . S
C1752 C1733 1.368 . S
C1752 C1746 1.368 . S
C1752 C1751 1.523 . S
C1753 C1737 1.429 . S
C1753 C1749 1.429 . S
C1753 C1754 1.523 . S
C1754 C1738 1.368 . S
C1754 C1750 1.368 . S
C1754 C1753 1.523 . S
H1755 C1730 0.950 . S
H1756 C1732 0.950 . S
H1757 C1733 0.949 . S
H1758 C1735 0.950 . S
H1759 C1737 0.950 . S
C321 C4 0.951 . S
C326 C204 0.951 . S
C351 C24 0.951 . S
C356 C224 0.951 . S
C381 C44 0.951 . S
C386 C164 0.951 . S
C411 C64 0.951 . S
C416 C184 0.951 . S
C441 C82 0.951 . S
C446 C282 0.951 . S
C471 C102 0.951 . S
C476 C302 0.951 . S
C501 C122 0.951 . S
C506 C242 0.951 . S
C531 C142 0.951 . S
C536 C262 0.951 . S
C561 C198 2.134 . S
C566 C2 2.105 . S
C591 C218 2.134 . S
C596 C22 2.105 . S
C621 C238 2.134 . S
C626 C42 2.105 . S
C651 C178 2.134 . S
C656 C62 2.105 . S
C681 C84 2.105 . S
C686 C279 2.134 . S
C711 C299 2.134 . S
C716 C104 2.105 . S
C741 C319 2.134 . S
C746 C124 2.105 . S
C771 C259 2.134 . S
C776 C144 2.105 . S
C801 C38 2.134 . S
C806 C162 2.105 . S
C831 C182 2.105 . S
C836 C58 2.134 . S
C861 C202 2.105 . S
C866 C78 2.134 . S
C891 C222 2.105 . S
C896 C18 2.134 . S
C921 C244 2.105 . S
C926 C119 2.134 . S
C951 C139 2.134 . S
C956 C264 2.105 . S
C981 C159 2.134 . S
C986 C284 2.105 . S
C1011 C304 2.105 . S
C1016 C99 2.134 . S
C1041 C12 0.959 . S
C1046 C318 0.973 . S
C1071 C32 0.959 . S
C1076 C98 0.962 1_554 S
C1101 C278 0.973 . S
C1106 C52 0.959 . S
C1131 C138 0.973 . S
C1136 C72 0.959 . S
C1161 C89 0.959 . S
C1166 C239 0.973 . S
C1191 C109 0.959 . S
C1196 C19 0.962 1_556 S
C1221 C199 0.973 . S
C1226 C129 0.959 . S
C1251 C59 0.973 . S
C1256 C149 0.959 . S
C1281 C172 0.959 . S
C1286 C158 0.973 . S
C1311 C192 0.959 . S
C1316 C258 0.973 . S
C1341 C118 0.973 . S
C1346 C212 0.959 . S
C1371 C298 0.962 1_554 S
C1376 C232 0.959 . S
C1401 C249 0.959 . S
C1406 C79 0.973 . S
C1431 C269 0.959 . S
C1436 C179 0.973 . S
C1461 C289 0.959 . S
C1466 C39 0.973 . S
C1491 C219 0.962 1_556 S
C1496 C309 0.959 . S
C1521 C9 1.644 . S
C1526 C252 1.644 . S
C1551 C29 1.644 . S
C1556 C112 1.644 . S
C1581 C49 1.644 . S
C1586 C292 1.644 . S
C1611 C152 1.644 . S
C1616 C69 1.644 . S
C1641 C92 1.644 . S
C1646 C169 1.644 . S
C1671 C209 1.644 . S
C1676 C132 1.644 . S
C1701 C189 1.644 . S
C1706 C272 1.644 . S
C1731 C312 1.644 . S
C1736 C229 1.644 . S
