# Generated by pormake.
# Topology fob, (5)-cn, num edge types: 1
# Building blocks:
#     Node 0, Type 0, BuildingBlock: BEQFEK_clean_sbu_0, # of connection points: 5
#     Node 1, Type 0, BuildingBlock: BEQFEK_clean_sbu_0, # of connection points: 5
#     Node 2, Type 0, BuildingBlock: BEQFEK_clean_sbu_0, # of connection points: 5
#     Node 3, Type 0, BuildingBlock: BEQFEK_clean_sbu_0, # of connection points: 5
#     Node 4, Type 0, BuildingBlock: BEQFEK_clean_sbu_0, # of connection points: 5
#     Node 5, Type 0, BuildingBlock: BEQFEK_clean_sbu_0, # of connection points: 5
#     Node 6, Type 0, BuildingBlock: BEQFEK_clean_sbu_0, # of connection points: 5
#     Node 7, Type 0, BuildingBlock: BEQFEK_clean_sbu_0, # of connection points: 5
#     Node 8, Type 0, BuildingBlock: BEQFEK_clean_sbu_0, # of connection points: 5
#     Node 9, Type 0, BuildingBlock: BEQFEK_clean_sbu_0, # of connection points: 5
#     Node 10, Type 0, BuildingBlock: BEQFEK_clean_sbu_0, # of connection points: 5
#     Node 11, Type 0, BuildingBlock: BEQFEK_clean_sbu_0, # of connection points: 5
#     Node 12, Type 0, BuildingBlock: BEQFEK_clean_sbu_0, # of connection points: 5
#     Node 13, Type 0, BuildingBlock: BEQFEK_clean_sbu_0, # of connection points: 5
#     Node 14, Type 0, BuildingBlock: BEQFEK_clean_sbu_0, # of connection points: 5
#     Node 15, Type 0, BuildingBlock: BEQFEK_clean_sbu_0, # of connection points: 5
#     Edge 16, Type (0, 0), BuildingBlock: AJUNOK_clean_linker_0, # of connection points: 2
#     Edge 17, Type (0, 0), BuildingBlock: AJUNOK_clean_linker_0, # of connection points: 2
#     Edge 18, Type (0, 0), BuildingBlock: AJUNOK_clean_linker_0, # of connection points: 2
#     Edge 19, Type (0, 0), BuildingBlock: AJUNOK_clean_linker_0, # of connection points: 2
#     Edge 20, Type (0, 0), BuildingBlock: AJUNOK_clean_linker_0, # of connection points: 2
#     Edge 21, Type (0, 0), BuildingBlock: AJUNOK_clean_linker_0, # of connection points: 2
#     Edge 22, Type (0, 0), BuildingBlock: AJUNOK_clean_linker_0, # of connection points: 2
#     Edge 23, Type (0, 0), BuildingBlock: AJUNOK_clean_linker_0, # of connection points: 2
#     Edge 24, Type (0, 0), BuildingBlock: AJUNOK_clean_linker_0, # of connection points: 2
#     Edge 25, Type (0, 0), BuildingBlock: AJUNOK_clean_linker_0, # of connection points: 2
#     Edge 26, Type (0, 0), BuildingBlock: AJUNOK_clean_linker_0, # of connection points: 2
#     Edge 27, Type (0, 0), BuildingBlock: AJUNOK_clean_linker_0, # of connection points: 2
#     Edge 28, Type (0, 0), BuildingBlock: AJUNOK_clean_linker_0, # of connection points: 2
#     Edge 29, Type (0, 0), BuildingBlock: AJUNOK_clean_linker_0, # of connection points: 2
#     Edge 30, Type (0, 0), BuildingBlock: AJUNOK_clean_linker_0, # of connection points: 2
#     Edge 31, Type (0, 0), BuildingBlock: AJUNOK_clean_linker_0, # of connection points: 2
#     Edge 32, Type (0, 0), BuildingBlock: AJUNOK_clean_linker_0, # of connection points: 2
#     Edge 33, Type (0, 0), BuildingBlock: AJUNOK_clean_linker_0, # of connection points: 2
#     Edge 34, Type (0, 0), BuildingBlock: AJUNOK_clean_linker_0, # of connection points: 2
#     Edge 35, Type (0, 0), BuildingBlock: AJUNOK_clean_linker_0, # of connection points: 2
#     Edge 36, Type (0, 0), BuildingBlock: AJUNOK_clean_linker_0, # of connection points: 2
#     Edge 37, Type (0, 0), BuildingBlock: AJUNOK_clean_linker_0, # of connection points: 2
#     Edge 38, Type (0, 0), BuildingBlock: AJUNOK_clean_linker_0, # of connection points: 2
#     Edge 39, Type (0, 0), BuildingBlock: AJUNOK_clean_linker_0, # of connection points: 2
#     Edge 40, Type (0, 0), BuildingBlock: AJUNOK_clean_linker_0, # of connection points: 2
#     Edge 41, Type (0, 0), BuildingBlock: AJUNOK_clean_linker_0, # of connection points: 2
#     Edge 42, Type (0, 0), BuildingBlock: AJUNOK_clean_linker_0, # of connection points: 2
#     Edge 43, Type (0, 0), BuildingBlock: AJUNOK_clean_linker_0, # of connection points: 2
#     Edge 44, Type (0, 0), BuildingBlock: AJUNOK_clean_linker_0, # of connection points: 2
#     Edge 45, Type (0, 0), BuildingBlock: AJUNOK_clean_linker_0, # of connection points: 2
#     Edge 46, Type (0, 0), BuildingBlock: AJUNOK_clean_linker_0, # of connection points: 2
#     Edge 47, Type (0, 0), BuildingBlock: AJUNOK_clean_linker_0, # of connection points: 2
#     Edge 48, Type (0, 0), BuildingBlock: AJUNOK_clean_linker_0, # of connection points: 2
#     Edge 49, Type (0, 0), BuildingBlock: AJUNOK_clean_linker_0, # of connection points: 2
#     Edge 50, Type (0, 0), BuildingBlock: AJUNOK_clean_linker_0, # of connection points: 2
#     Edge 51, Type (0, 0), BuildingBlock: AJUNOK_clean_linker_0, # of connection points: 2
#     Edge 52, Type (0, 0), BuildingBlock: AJUNOK_clean_linker_0, # of connection points: 2
#     Edge 53, Type (0, 0), BuildingBlock: AJUNOK_clean_linker_0, # of connection points: 2
#     Edge 54, Type (0, 0), BuildingBlock: AJUNOK_clean_linker_0, # of connection points: 2
#     Edge 55, Type (0, 0), BuildingBlock: AJUNOK_clean_linker_0, # of connection points: 2
# Relax obj value: 0.081
# Max RMSD: 0.159
# Mean RMSD: 0.159
data_MOF--net-fob--node1-BEQFEK_clean_sbu_0--edge1-AJUNOK_clean_linker_0
_symmetry_space_group_name_H-M    P1
_symmetry_Int_Tables_number       1
_symmetry_cell_setting            triclinic
loop_
_symmetry_equiv_pos_as_xyz
'x, y, z'
_cell_length_a     15.28468
_cell_length_b     59.323087
_cell_length_c     41.517864
_cell_angle_alpha  89.751237
_cell_angle_beta   88.157818
_cell_angle_gamma 90.295196
loop_
_atom_site_label
_atom_site_type_symbol
_atom_site_fract_x
_atom_site_fract_y
_atom_site_fract_z
_atom_type_partial_charge
Co0 Co 0.06371 0.09543 0.45865 0.0
Co1 Co 0.1177 0.14703 0.46048 0.0
C2 C 0.21334 0.1156 0.41717 0.0
O3 O 0.16848 0.09847 0.42724 0.0
O4 O 0.20244 0.13524 0.42896 0.0
C5 C 0.05307 0.04731 0.47955 0.0
O6 O 0.13337 0.04912 0.48966 0.0
C7 C 0.20037 0.19251 0.47052 0.0
C8 C 0.08259 0.21096 0.48773 0.0
C9 C 0.17141 0.2134 0.48142 0.0
N10 N 0.13134 0.17827 0.47079 0.0
N11 N 0.06139 0.18953 0.48097 0.0
C12 C 0.29073 0.18652 0.45866 0.0
H13 H 0.28762 0.17392 0.43908 0.0
H14 H 0.32721 0.17897 0.47864 0.0
H15 H 0.32682 0.20177 0.44993 0.0
C16 C 0.06343 0.10286 0.52927 0.0
N17 N 0.07997 0.1096 0.49868 0.0
N18 N 0.1169 0.12956 0.49877 0.0
C19 C 0.1353 0.13506 0.52918 0.0
C20 C 0.101 0.11844 0.55011 0.0
C21 C -0.00325 0.08495 0.53755 0.0
H22 H 0.94811 0.08386 0.51833 0.0
H23 H 0.02911 0.06834 0.53916 0.0
H24 H 0.96181 0.08865 0.56076 0.0
O25 O 0.96948 0.10982 0.43727 0.0
O26 O 0.00489 0.14601 0.43769 0.0
H27 H 0.14931 0.17005 0.5405 0.0
H28 H 0.22822 0.15188 0.55924 0.0
C29 C 0.19113 0.15496 0.53713 0.0
H30 H 0.23852 0.15836 0.51696 0.0
H31 H -0.00108 0.18247 0.48356 0.0
O32 O 0.01899 0.06403 0.46553 0.0
C33 C 0.95422 0.13008 0.42964 0.0
Co34 Co 0.13739 0.09966 0.78372 0.0
Co35 Co 0.09249 0.15146 0.78002 0.0
C36 C -0.01175 0.12091 0.82306 0.0
O37 O 0.03169 0.10349 0.81399 0.0
O38 O 0.00382 0.14036 0.81091 0.0
C39 C 0.13331 0.05148 0.76611 0.0
O40 O 0.05068 0.05406 0.75917 0.0
C41 C 0.01348 0.19686 0.76804 0.0
C42 C 0.13443 0.21615 0.75605 0.0
C43 C 0.04462 0.21817 0.75952 0.0
N44 N 0.08224 0.1828 0.76947 0.0
N45 N 0.15408 0.19453 0.76223 0.0
C46 C 0.92061 0.19037 0.77607 0.0
H47 H 0.91655 0.17311 0.78631 0.0
H48 H 0.88197 0.19101 0.75393 0.0
H49 H 0.89139 0.20262 0.79341 0.0
C50 C 0.13861 0.10579 0.71308 0.0
N51 N 0.12505 0.11352 0.74321 0.0
N52 N 0.09215 0.13382 0.74204 0.0
C53 C 0.07332 0.13869 0.71137 0.0
C54 C 0.1029 0.12112 0.69145 0.0
C55 C 0.20103 0.08696 0.70564 0.0
H56 H 0.25119 0.08607 0.72435 0.0
H57 H 0.16534 0.07066 0.70591 0.0
H58 H 0.2346 0.08945 0.68178 0.0
O59 O 0.23329 0.11318 0.80512 0.0
O60 O 0.20429 0.14967 0.8037 0.0
H61 H 0.06534 0.1735 0.69808 0.0
H62 H -0.01714 0.15567 0.68053 0.0
C63 C 0.02088 0.15887 0.70237 0.0
H64 H 0.97442 0.16309 0.7224 0.0
H65 H 0.21691 0.18773 0.76157 0.0
O66 O 0.17505 0.06799 0.77757 0.0
C67 C 0.25214 0.13332 0.81212 0.0
Co68 Co 0.84339 0.91864 0.53296 0.0
Co69 Co 0.82033 0.86536 0.53473 0.0
C70 C 0.68503 0.89736 0.56368 0.0
O71 O 0.72646 0.91526 0.55484 0.0
O72 O 0.71333 0.87773 0.55625 0.0
C73 C 0.8437 0.9681 0.5178 0.0
O74 O 0.75784 0.96756 0.51719 0.0
C75 C 0.7519 0.81974 0.51913 0.0
C76 C 0.87093 0.79946 0.52587 0.0
C77 C 0.78535 0.79805 0.51613 0.0
N78 N 0.81559 0.83334 0.52965 0.0
N79 N 0.886 0.82099 0.53407 0.0
C80 C 0.6639 0.82785 0.50963 0.0
H81 H 0.66526 0.84636 0.50552 0.0
H82 H 0.64296 0.81905 0.48761 0.0
H83 H 0.61541 0.82404 0.5294 0.0
C84 C 0.8618 0.90905 0.46348 0.0
N85 N 0.85164 0.90201 0.49425 0.0
N86 N 0.84543 0.87987 0.49483 0.0
C87 C 0.85286 0.87213 0.46439 0.0
C88 C 0.86269 0.89038 0.44363 0.0
C89 C 0.86269 0.93328 0.45325 0.0
H90 H 0.80481 0.94183 0.4642 0.0
H91 H 0.86119 0.93522 0.4267 0.0
H92 H 0.92249 0.94159 0.46204 0.0
O93 O 0.92445 0.90764 0.56494 0.0
O94 O 0.91191 0.87048 0.56559 0.0
H95 H 0.89401 0.83804 0.47148 0.0
H96 H 0.87654 0.8454 0.42997 0.0
C97 C 0.8522 0.84777 0.4552 0.0
H98 H 0.78441 0.84113 0.45751 0.0
H99 H 0.94549 0.82743 0.54165 0.0
O100 O 0.88479 0.95017 0.52434 0.0
C101 C 0.94469 0.88852 0.5763 0.0
Co102 Co 0.84698 0.92177 0.21569 0.0
Co103 Co 0.86578 0.86876 0.21271 0.0
C104 C -0.01324 0.90084 0.17496 0.0
O105 O 0.95229 0.91885 0.1864 0.0
O106 O 0.96015 0.88132 0.18415 0.0
C107 C 0.84957 0.97164 0.22841 0.0
O108 O 0.9345 0.97234 0.22254 0.0
C109 C 0.94403 0.8238 0.22162 0.0
C110 C 0.82465 0.80257 0.22505 0.0
C111 C 0.91485 0.80179 0.22677 0.0
N112 N 0.87389 0.8369 0.21725 0.0
N113 N 0.80299 0.82405 0.21888 0.0
C114 C 0.03524 0.8328 0.22389 0.0
H115 H 0.03381 0.85057 0.23218 0.0
H116 H 0.07383 0.82235 0.24047 0.0
H117 H 0.06767 0.83255 0.1996 0.0
C118 C 0.85813 0.91171 0.28524 0.0
N119 N 0.85744 0.90504 0.25429 0.0
N120 N 0.86245 0.88291 0.25325 0.0
C121 C 0.86535 0.87479 0.28355 0.0
C122 C 0.86295 0.89277 0.30466 0.0
C123 C 0.85033 0.93569 0.29592 0.0
H124 H 0.78699 0.94258 0.28818 0.0
H125 H 0.90366 0.94583 0.28419 0.0
H126 H 0.85363 0.93727 0.32247 0.0
O127 O 0.75072 0.91075 0.18998 0.0
O128 O 0.75893 0.87359 0.18954 0.0
H129 H 0.81847 0.84079 0.28104 0.0
H130 H 0.8691 0.84755 0.31858 0.0
C131 C 0.87216 0.85034 0.29214 0.0
H132 H 0.93537 0.84374 0.28257 0.0
H133 H 0.7394 0.83009 0.21681 0.0
O134 O 0.8091 0.95299 0.22627 0.0
C135 C 0.72268 0.8917 0.18092 0.0
Co136 Co 0.07983 0.60329 0.95608 0.0
Co137 Co 0.097 0.65635 0.95265 0.0
C138 C 0.23529 0.62428 0.92487 0.0
O139 O 0.19683 0.60613 0.93441 0.0
O140 O 0.20336 0.64369 0.93114 0.0
C141 C 0.07584 0.55366 0.97013 0.0
O142 O 0.16176 0.55299 0.96821 0.0
C143 C 0.1732 0.70087 0.96665 0.0
C144 C 0.06032 0.72314 0.95858 0.0
C145 C 0.14628 0.7232 0.96807 0.0
N146 N 0.106 0.68826 0.95675 0.0
N147 N 0.03909 0.70171 0.95163 0.0
C148 C 0.25771 0.69127 0.9775 0.0
H149 H 0.24913 0.67324 0.98424 0.0
H150 H 0.28243 0.70096 -0.00183 0.0
H151 H 0.30714 0.69234 0.95744 0.0
C152 C 0.06636 0.61359 0.02527 0.0
N153 N 0.07163 0.62036 0.9943 0.0
N154 N 0.07467 0.64251 0.99313 0.0
C155 C 0.06985 0.65056 0.02345 0.0
C156 C 0.06527 0.63249 0.04471 0.0
C157 C 0.07136 0.5895 0.03587 0.0
H158 H 0.00987 0.58069 0.02982 0.0
H159 H 0.12641 0.58116 0.02269 0.0
H160 H 0.08106 0.58793 0.06214 0.0
O161 O -0.00089 0.61365 0.92366 0.0
O162 O 0.00368 0.6509 0.92257 0.0
H163 H 0.02853 0.68456 0.01534 0.0
H164 H 0.04384 0.6775 0.05719 0.0
C165 C 0.06948 0.67501 0.03214 0.0
H166 H 0.13718 0.68175 0.03033 0.0
H167 H 0.97813 0.69616 0.94424 0.0
O168 O 0.03723 0.57225 0.96571 0.0
C169 C 0.9748 0.63234 0.91206 0.0
Co170 Co 0.12343 0.59896 0.26989 0.0
Co171 Co 0.11981 0.65214 0.27527 0.0
C172 C -0.00575 0.62259 0.31353 0.0
O173 O 0.02509 0.60452 0.3011 0.0
O174 O 0.0228 0.642 0.30469 0.0
C175 C 0.17993 0.55307 0.27301 0.0
O176 O 0.2113 0.55962 0.30051 0.0
C177 C 0.06003 0.69909 0.26844 0.0
C178 C 0.18672 0.71695 0.26194 0.0
C179 C 0.09705 0.72016 0.26198 0.0
N180 N 0.12505 0.68415 0.27147 0.0
N181 N 0.20053 0.69501 0.26811 0.0
C182 C 0.96516 0.69271 0.26864 0.0
H183 H 0.95744 0.6744 0.26406 0.0
H184 H 0.93037 0.70256 0.25025 0.0
H185 H 0.93509 0.69651 0.29267 0.0
C186 C 0.10633 0.61047 0.20135 0.0
N187 N 0.11383 0.61662 0.2323 0.0
N188 N 0.11337 0.63875 0.23415 0.0
C189 C 0.10622 0.64741 0.20426 0.0
C190 C 0.10134 0.62976 0.18264 0.0
C191 C 0.10702 0.58656 0.18997 0.0
H192 H 0.1688 0.57844 0.19703 0.0
H193 H 0.05185 0.5772 0.20191 0.0
H194 H 0.10179 0.58542 0.16344 0.0
O195 O 0.22936 0.60635 0.29337 0.0
O196 O 0.22595 0.64354 0.29715 0.0
H197 H 0.15755 0.68101 0.20607 0.0
H198 H 0.09669 0.67524 0.1704 0.0
C199 C 0.10006 0.67203 0.19665 0.0
H200 H 0.04011 0.6789 0.20849 0.0
H201 H 0.26156 0.68727 0.2688 0.0
O202 O 0.13355 0.56671 0.25725 0.0
C203 C 0.26093 0.62474 0.30351 0.0
Co204 Co 0.88484 0.42463 0.02787 0.0
Co205 Co 0.86143 0.3716 0.03024 0.0
C206 C 0.72399 0.4029 0.05747 0.0
O207 O 0.76736 0.42072 0.04962 0.0
O208 O 0.75163 0.38319 0.05029 0.0
C209 C 0.8775 0.47335 0.01069 0.0
O210 O 0.79237 0.47143 0.00807 0.0
C211 C 0.79625 0.32521 0.01997 0.0
C212 C 0.92076 0.30637 0.01764 0.0
C213 C 0.83138 0.30396 0.01464 0.0
N214 N 0.86225 0.33964 0.02515 0.0
N215 N 0.93632 0.3282 0.02416 0.0
C216 C 0.70179 0.33164 0.02211 0.0
H217 H 0.68992 0.346 0.00564 0.0
H218 H 0.65794 0.3173 0.01664 0.0
H219 H 0.68635 0.33738 0.04699 0.0
C220 C 0.90631 0.41453 0.95831 0.0
N221 N 0.89589 0.40784 0.98925 0.0
N222 N 0.88569 0.38581 0.99013 0.0
C223 C 0.88821 0.37783 0.95975 0.0
C224 C 0.90156 0.39578 0.93868 0.0
C225 C 0.91852 0.43848 0.94761 0.0
H226 H 0.9717 0.44639 0.96123 0.0
H227 H 0.85713 0.44789 0.95266 0.0
H228 H 0.93563 0.43968 0.92148 0.0
O229 O 0.96669 0.41471 0.05997 0.0
O230 O 0.95082 0.37766 0.06178 0.0
H231 H 0.91796 0.34265 0.96051 0.0
H232 H 0.8646 0.35166 0.92453 0.0
C233 C 0.86744 0.35399 0.95096 0.0
H234 H 0.80318 0.34915 0.96202 0.0
H235 H -0.00213 0.33544 0.02713 0.0
O236 O 0.92118 0.45628 0.01909 0.0
C237 C -0.01514 0.39569 0.07204 0.0
Co238 Co 0.84202 0.42216 0.71113 0.0
Co239 Co 0.8391 0.36874 0.71018 0.0
C240 C 0.96906 0.39662 0.67018 0.0
O241 O 0.94155 0.4153 0.68162 0.0
O242 O 0.93678 0.37777 0.67988 0.0
C243 C 0.75776 0.46308 0.72799 0.0
O244 O 0.68966 0.44947 0.72938 0.0
C245 C 0.90202 0.32246 0.72184 0.0
C246 C 0.77695 0.30367 0.72663 0.0
C247 C 0.86662 0.30126 0.72872 0.0
N248 N 0.83592 0.33681 0.71684 0.0
N249 N 0.76149 0.32539 0.71939 0.0
C250 C -0.00334 0.32896 0.71845 0.0
H251 H 0.00721 0.33996 0.69704 0.0
H252 H 0.01549 0.33877 0.73986 0.0
H253 H 0.03914 0.31392 0.71594 0.0
C254 C 0.86158 0.4133 0.78033 0.0
N255 N 0.84994 0.40603 0.75011 0.0
N256 N 0.84565 0.38387 0.75016 0.0
C257 C 0.85231 0.37637 0.7807 0.0
C258 C 0.8635 0.39477 0.80065 0.0
C259 C 0.87642 0.43743 0.78917 0.0
H260 H 0.91894 0.44578 0.77051 0.0
H261 H 0.90742 0.43889 0.81288 0.0
H262 H 0.81261 0.44625 0.7904 0.0
O263 O 0.73916 0.41378 0.68669 0.0
O264 O 0.7332 0.37649 0.68735 0.0
H265 H 0.78821 0.34423 0.7785 0.0
H266 H 0.83136 0.35064 0.81733 0.0
C267 C 0.84335 0.35222 0.79091 0.0
H268 H 0.90433 0.34312 0.78421 0.0
H269 H 0.69986 0.33256 0.71686 0.0
O270 O 0.83243 0.45506 0.72 0.0
C271 C 0.70378 0.3954 0.67828 0.0
Co272 Co 0.57671 0.10238 0.96281 0.0
Co273 Co 0.60279 0.15519 0.96096 0.0
C274 C 0.73211 0.12157 0.92981 0.0
O275 O 0.69216 0.10381 0.93998 0.0
O276 O 0.704 0.1413 0.93688 0.0
C277 C 0.56771 0.05274 0.97324 0.0
O278 O 0.65183 0.05157 0.96591 0.0
C279 C 0.68392 0.19999 0.97357 0.0
C280 C 0.56861 0.2218 0.96761 0.0
C281 C 0.65627 0.22228 0.97488 0.0
N282 N 0.61519 0.18699 0.966 0.0
N283 N 0.54677 0.2002 0.9624 0.0
C284 C 0.77443 0.19129 0.9781 0.0
H285 H 0.78282 0.17461 0.96649 0.0
H286 H 0.7858 0.1893 0.00419 0.0
H287 H 0.82371 0.20342 0.968 0.0
C288 C 0.57807 0.11139 0.03241 0.0
N289 N 0.57743 0.11876 0.00171 0.0
N290 N 0.58376 0.14086 0.00128 0.0
C291 C 0.58663 0.14833 0.03185 0.0
C292 C 0.5843 0.12987 0.05252 0.0
C293 C 0.58227 0.08704 0.04178 0.0
H294 H 0.63101 0.07835 0.02592 0.0
H295 H 0.60059 0.0848 0.06722 0.0
H296 H 0.51742 0.07906 0.03835 0.0
O297 O 0.49638 0.11455 0.93114 0.0
O298 O 0.50421 0.15181 0.9325 0.0
H299 H 0.54607 0.18263 0.02626 0.0
H300 H 0.57209 0.17492 0.06702 0.0
C301 C 0.59069 0.17264 0.04118 0.0
H302 H 0.65823 0.17906 0.03691 0.0
H303 H 0.48463 0.19441 0.95665 0.0
O304 O 0.53005 0.07174 0.97265 0.0
C305 C 0.47355 0.1338 0.92099 0.0
Co306 Co 0.62931 0.09981 0.28025 0.0
Co307 Co 0.59457 0.15241 0.28153 0.0
C308 C 0.46584 0.11784 0.31074 0.0
O309 O 0.51208 0.10078 0.30239 0.0
O310 O 0.48949 0.13807 0.30355 0.0
C311 C 0.64315 0.0501 0.26856 0.0
O312 O 0.55783 0.04808 0.2725 0.0
C313 C 0.51988 0.19781 0.26824 0.0
C314 C 0.64214 0.21796 0.2664 0.0
C315 C 0.55307 0.21933 0.262 0.0
N316 N 0.5871 0.18424 0.27509 0.0
N317 N 0.65961 0.19651 0.27437 0.0
C318 C 0.42622 0.19039 0.2696 0.0
H319 H 0.41364 0.17901 0.24911 0.0
H320 H 0.38104 0.20496 0.26905 0.0
H321 H 0.41355 0.18066 0.2921 0.0
C322 C 0.63718 0.10929 0.21036 0.0
N323 N 0.63108 0.11632 0.24116 0.0
N324 N 0.61968 0.13828 0.24152 0.0
C325 C 0.61935 0.14594 0.21087 0.0
C326 C 0.63025 0.12782 0.19025 0.0
C327 C 0.64641 0.08518 0.20046 0.0
H328 H 0.70828 0.07839 0.20972 0.0
H329 H 0.59134 0.07519 0.21131 0.0
H330 H 0.64737 0.0833 0.17388 0.0
O331 O 0.70824 0.11237 0.31186 0.0
O332 O 0.68969 0.14935 0.31175 0.0
H333 H 0.64798 0.18125 0.21239 0.0
H334 H 0.60379 0.17214 0.17483 0.0
C335 C 0.60031 0.16974 0.20134 0.0
H336 H 0.53367 0.17423 0.21024 0.0
H337 H 0.72168 0.19006 0.27843 0.0
O338 O 0.67848 0.06937 0.2714 0.0
C339 C 0.72601 0.13184 0.32248 0.0
Co340 Co 0.38827 0.92249 0.03117 0.0
Co341 Co 0.36576 0.86948 0.03295 0.0
C342 C 0.23559 0.90111 0.06552 0.0
O343 O 0.27539 0.91905 0.05593 0.0
O344 O 0.26263 0.88156 0.05716 0.0
C345 C 0.37992 0.97174 0.01782 0.0
O346 O 0.29426 0.97059 0.02115 0.0
C347 C 0.29359 0.82412 0.01973 0.0
C348 C 0.41395 0.80371 0.0216 0.0
C349 C 0.32576 0.80243 0.01514 0.0
N350 N 0.36032 0.83757 0.02788 0.0
N351 N 0.43164 0.82517 0.02946 0.0
C352 C 0.20329 0.83247 0.01382 0.0
H353 H 0.20403 0.851 0.00999 0.0
H354 H 0.17583 0.82391 0.99264 0.0
H355 H 0.1604 0.82862 0.03523 0.0
C356 C 0.3953 0.91329 0.96133 0.0
N357 N 0.39009 0.90614 0.99216 0.0
N358 N 0.38342 0.88402 0.99265 0.0
C359 C 0.38533 0.87639 0.96208 0.0
C360 C 0.39262 0.89471 0.94137 0.0
C361 C 0.40141 0.9375 0.95117 0.0
H362 H 0.46025 0.94527 0.96155 0.0
H363 H 0.34288 0.9466 0.96061 0.0
H364 H 0.40613 0.93935 0.92457 0.0
O365 O 0.4762 0.9117 0.0607 0.0
O366 O 0.46305 0.87457 0.06126 0.0
H367 H 0.41931 0.84153 0.96603 0.0
H368 H 0.3844 0.84967 0.92654 0.0
C369 C 0.37335 0.85225 0.95277 0.0
H370 H 0.30557 0.84689 0.95927 0.0
H371 H 0.49323 0.83153 0.03481 0.0
O372 O 0.4248 0.95405 0.02175 0.0
C373 C 0.49837 0.8925 0.07122 0.0
Co374 Co 0.30125 0.91972 0.71497 0.0
Co375 Co 0.31953 0.86669 0.71435 0.0
C376 C 0.43363 0.89766 0.67204 0.0
O377 O 0.40045 0.91582 0.68343 0.0
O378 O 0.40921 0.87826 0.68259 0.0
C379 C 0.31316 0.9694 0.72477 0.0
O380 O 0.39735 0.96864 0.71747 0.0
C381 C 0.39732 0.82166 0.72414 0.0
C382 C 0.27749 0.80114 0.73257 0.0
C383 C 0.36793 0.80006 0.73192 0.0
N384 N 0.32718 0.83495 0.72081 0.0
N385 N 0.2559 0.82248 0.72544 0.0
C386 C 0.48979 0.83004 0.72252 0.0
H387 H 0.49192 0.84851 0.72664 0.0
H388 H 0.52944 0.82118 0.74055 0.0
H389 H 0.51862 0.82657 0.69819 0.0
C390 C 0.3317 0.91189 0.7839 0.0
N391 N 0.32047 0.90419 0.75387 0.0
N392 N 0.32567 0.88206 0.754 0.0
C393 C 0.33942 0.87495 0.7843 0.0
C394 C 0.34438 0.89364 0.80408 0.0
C395 C 0.33549 0.93632 0.79257 0.0
H396 H 0.38363 0.94503 0.77624 0.0
H397 H 0.35488 0.93886 0.81781 0.0
H398 H 0.2704 0.94402 0.78918 0.0
O399 O 0.19925 0.90821 0.69295 0.0
O400 O 0.20792 0.87109 0.69387 0.0
H401 H 0.33897 0.84889 0.82105 0.0
H402 H 0.40692 0.84353 0.78562 0.0
C403 C 0.3439 0.85075 0.79445 0.0
H404 H 0.28977 0.84113 0.7838 0.0
H405 H 0.19226 0.82873 0.72471 0.0
O406 O 0.26808 0.95138 0.72442 0.0
C407 C 0.16951 0.88897 0.68557 0.0
Co408 Co 0.59979 0.59432 0.45544 0.0
Co409 Co 0.60174 0.64777 0.45373 0.0
C410 C 0.74562 0.61998 0.42277 0.0
O411 O 0.71128 0.60131 0.43206 0.0
O412 O 0.71144 0.63883 0.43067 0.0
C413 C 0.51148 0.55285 0.46901 0.0
O414 O 0.44296 0.56589 0.46603 0.0
C415 C 0.66097 0.69392 0.46782 0.0
C416 C 0.54005 0.71344 0.46106 0.0
C417 C 0.62658 0.71559 0.46956 0.0
N418 N 0.5976 0.67977 0.45862 0.0
N419 N 0.52578 0.69158 0.45435 0.0
C420 C 0.74961 0.68618 0.47728 0.0
H421 H 0.74602 0.66855 0.48631 0.0
H422 H 0.77667 0.69736 0.49592 0.0
H423 H 0.7944 0.6864 0.45571 0.0
C424 C 0.58266 0.60345 0.52522 0.0
N425 N 0.58837 0.61062 0.4944 0.0
N426 N 0.58632 0.6328 0.49383 0.0
C427 C 0.5773 0.6404 0.52429 0.0
C428 C 0.57488 0.62207 0.54505 0.0
C429 C 0.59214 0.57941 0.53562 0.0
H430 H 0.64343 0.57105 0.52051 0.0
H431 H 0.60962 0.57816 0.5613 0.0
H432 H 0.52916 0.57043 0.53253 0.0
O433 O 0.50973 0.60235 0.42459 0.0
O434 O 0.50977 0.63976 0.42427 0.0
H435 H 0.54232 0.66646 0.55855 0.0
H436 H 0.63451 0.6728 0.53193 0.0
C437 C 0.56908 0.66467 0.53353 0.0
H438 H 0.52534 0.67346 0.51688 0.0
H439 H 0.46636 0.68461 0.4475 0.0
O440 O 0.58754 0.5614 0.46465 0.0
C441 C 0.48227 0.62101 0.41376 0.0
Co442 Co 0.61308 0.59802 0.7749 0.0
Co443 Co 0.60299 0.65133 0.77292 0.0
C444 C 0.48519 0.62307 0.8167 0.0
O445 O 0.51469 0.6043 0.8061 0.0
O446 O 0.51223 0.64188 0.80506 0.0
C447 C 0.70567 0.55761 0.76175 0.0
O448 O 0.7711 0.57205 0.76044 0.0
C449 C 0.53164 0.69703 0.76513 0.0
C450 C 0.65256 0.71667 0.75438 0.0
C451 C 0.56257 0.71866 0.75806 0.0
N452 N 0.60043 0.68305 0.76566 0.0
N453 N 0.67249 0.69492 0.75952 0.0
C454 C 0.43861 0.68916 0.76856 0.0
H455 H 0.43279 0.67155 0.75991 0.0
H456 H 0.39456 0.70029 0.75499 0.0
H457 H 0.41805 0.6893 0.79443 0.0
C458 C 0.59173 0.60502 0.70485 0.0
N459 N 0.59843 0.61301 0.73499 0.0
N460 N 0.59448 0.63517 0.73416 0.0
C461 C 0.5853 0.64199 0.7035 0.0
C462 C 0.58303 0.62313 0.68398 0.0
C463 C 0.60007 0.58065 0.69609 0.0
H464 H 0.66718 0.57495 0.70117 0.0
H465 H 0.55321 0.57048 0.71113 0.0
H466 H 0.58845 0.57767 0.67025 0.0
O467 O 0.71752 0.60869 0.79687 0.0
O468 O 0.71328 0.64588 0.79358 0.0
H469 H 0.63726 0.67544 0.69925 0.0
H470 H 0.56619 0.66771 0.66703 0.0
C471 C 0.57702 0.66608 0.69322 0.0
H472 H 0.52097 0.67382 0.7065 0.0
H473 H 0.73526 0.68808 0.7583 0.0
O474 O 0.62869 0.56495 0.76777 0.0
C475 C 0.74942 0.62796 0.80304 0.0
Co476 Co 0.36083 0.41953 0.52593 0.0
Co477 Co 0.35989 0.36597 0.53002 0.0
C478 C 0.21769 0.39463 0.56103 0.0
O479 O 0.25049 0.41308 0.55012 0.0
O480 O 0.25245 0.37562 0.55429 0.0
C481 C 0.45348 0.45962 0.51071 0.0
O482 O 0.51868 0.44538 0.51249 0.0
C483 C 0.30259 0.31871 0.51864 0.0
C484 C 0.4293 0.30103 0.51996 0.0
C485 C 0.34118 0.2976 0.51474 0.0
N486 N 0.36547 0.33382 0.52525 0.0
N487 N 0.44081 0.32305 0.52631 0.0
C488 C 0.20752 0.32443 0.51711 0.0
H489 H 0.19176 0.33903 0.53272 0.0
H490 H 0.19217 0.32907 0.49202 0.0
H491 H 0.166 0.30983 0.52473 0.0
C492 C 0.37293 0.4091 0.45668 0.0
N493 N 0.36957 0.40251 0.48776 0.0
N494 N 0.37101 0.38033 0.48919 0.0
C495 C 0.37661 0.37216 0.45894 0.0
C496 C 0.37777 0.39012 0.43753 0.0
C497 C 0.36509 0.433 0.44549 0.0
H498 H 0.3161 0.442 0.46085 0.0
H499 H 0.34545 0.43391 0.42001 0.0
H500 H 0.42934 0.44157 0.44747 0.0
O501 O 0.45172 0.41179 0.55626 0.0
O502 O 0.45524 0.37448 0.55817 0.0
H503 H 0.43365 0.33959 0.46491 0.0
H504 H 0.39913 0.34529 0.42456 0.0
C505 C 0.38264 0.3477 0.45054 0.0
H506 H 0.31903 0.33936 0.45634 0.0
H507 H 0.50055 0.33084 0.53069 0.0
O508 O 0.37578 0.45229 0.51585 0.0
C509 C 0.48204 0.39361 0.56756 0.0
Co510 Co 0.35152 0.42271 0.21138 0.0
Co511 Co 0.35891 0.36932 0.20602 0.0
C512 C 0.47618 0.4002 0.16551 0.0
O513 O 0.44826 0.41825 0.17887 0.0
O514 O 0.44887 0.38074 0.1746 0.0
C515 C 0.2802 0.46778 0.21291 0.0
O516 O 0.23256 0.46023 0.18948 0.0
C517 C 0.42487 0.32265 0.2132 0.0
C518 C 0.29998 0.30365 0.21533 0.0
C519 C 0.38952 0.30119 0.21745 0.0
N520 N 0.35882 0.3372 0.20928 0.0
N521 N 0.28457 0.32564 0.21016 0.0
C522 C 0.51972 0.32913 0.21204 0.0
H523 H 0.52949 0.34558 0.19963 0.0
H524 H 0.54375 0.33065 0.23684 0.0
H525 H 0.5589 0.31592 0.1995 0.0
C526 C 0.36997 0.41097 0.27994 0.0
N527 N 0.36575 0.40491 0.24882 0.0
N528 N 0.36722 0.38277 0.24693 0.0
C529 C 0.37138 0.37406 0.27689 0.0
C530 C 0.37358 0.39166 0.29866 0.0
C531 C 0.36471 0.43476 0.29152 0.0
H532 H 0.30329 0.44245 0.28328 0.0
H533 H 0.42073 0.44446 0.28082 0.0
H534 H 0.36574 0.43587 0.31816 0.0
O535 O 0.24454 0.41403 0.18918 0.0
O536 O 0.24855 0.37677 0.18676 0.0
H537 H 0.31622 0.3409 0.2741 0.0
H538 H 0.37341 0.34611 0.31086 0.0
C539 C 0.37343 0.34939 0.28456 0.0
H540 H 0.43369 0.34205 0.27371 0.0
H541 H 0.22289 0.33288 0.20819 0.0
O542 O 0.33859 0.45504 0.22428 0.0
C543 C 0.21198 0.39534 0.18048 0.0
C544 C 0.19285 0.2548 0.47517 0.0
C545 C 0.22155 0.23417 0.48764 0.0
C546 C 0.2326 0.2752 0.48357 0.0
C547 C 0.30081 0.2758 0.50554 0.0
H548 H 0.13895 0.25517 0.45886 0.0
H549 H 0.20979 0.29053 0.47252 0.0
S550 S 0.39847 0.22619 0.54544 0.0
N551 N 0.32195 0.21537 0.52287 0.0
N552 N 0.39593 0.2537 0.53925 0.0
C553 C 0.33092 0.25515 0.51778 0.0
C554 C 0.29119 0.23435 0.50882 0.0
C555 C -0.01489 0.98976 0.51326 0.0
C556 C 0.89442 0.98872 0.50815 0.0
C557 C 0.03577 1.00855 0.50359 0.0
C558 C -0.00171 0.02713 0.48813 0.0
H559 H 0.01765 0.97593 0.52498 0.0
H560 H 0.10498 1.00847 0.50842 0.0
S561 S 0.76366 0.0328 0.46837 0.0
N562 N 0.76936 1.00796 0.4862 0.0
N563 N 0.86409 0.04317 0.46789 0.0
C564 C 0.9076 0.02628 0.48263 0.0
C565 C 0.85588 1.00717 0.4927 0.0
C566 C 0.13441 0.01153 0.74671 0.0
C567 C 0.18109 0.03061 0.75667 0.0
C568 C 0.17785 0.99197 0.73639 0.0
C569 C 0.26999 0.99068 0.7352 0.0
H570 H 0.06353 0.01165 0.74685 0.0
H571 H 0.13853 0.97776 0.72905 0.0
S572 S 0.42353 0.03593 0.75876 0.0
N573 N 0.32544 0.04691 0.76486 0.0
N574 N 0.40659 0.01022 0.74519 0.0
C575 C 0.31769 1.00963 0.74504 0.0
C576 C 0.27344 0.02952 0.75588 0.0
C577 C 0.88624 0.25965 0.7239 0.0
C578 C 0.91143 0.28021 0.73773 0.0
C579 C 0.92772 0.2394 0.73179 0.0
C580 C -0.00464 0.23907 0.7539 0.0
H581 H 0.83538 0.25928 0.70633 0.0
H582 H 0.90871 0.22409 0.7197 0.0
S583 S 0.07692 0.28764 0.80029 0.0
N584 N 0.00117 0.29845 0.77742 0.0
N585 N 0.08129 0.26056 0.7913 0.0
C586 C 0.01918 0.25934 0.76866 0.0
C587 C 0.97646 0.27988 0.7609 0.0
C588 C 0.65893 0.77112 0.51288 0.0
C589 C 0.7441 0.7776 0.50288 0.0
C590 C 0.62151 0.75105 0.50182 0.0
C591 C 0.66807 0.73673 0.48049 0.0
H592 H 0.62178 0.7813 0.52998 0.0
H593 H 0.55618 0.74649 0.51051 0.0
S594 S 0.88879 0.74767 0.44394 0.0
N595 N 0.87144 0.76905 0.46862 0.0
N596 N 0.80016 0.7317 0.44725 0.0
C597 C 0.75205 0.74344 0.46948 0.0
C598 C 0.79034 0.76377 0.48088 0.0
C599 C 0.70854 0.99043 0.24492 0.0
C600 C 0.79967 0.99206 0.2387 0.0
C601 C 0.65894 1.00914 0.25476 0.0
C602 C 0.69805 0.03039 0.25891 0.0
H603 H 0.6746 0.97452 0.24213 0.0
H604 H 0.58917 1.00687 0.25901 0.0
S605 S 0.9348 0.04384 0.24624 0.0
N606 N 0.92714 0.01676 0.23773 0.0
N607 N 0.83445 0.05192 0.25624 0.0
C608 C 0.78935 0.03229 0.25296 0.0
C609 C 0.8399 0.01318 0.24287 0.0
C610 C 0.9334 0.76801 0.26157 0.0
C611 C 0.96483 0.78163 0.23586 0.0
C612 C 0.97685 0.74824 0.27015 0.0
C613 C 0.05278 0.7413 0.25309 0.0
H614 H 0.87493 0.77273 0.27531 0.0
H615 H 0.95114 0.73847 0.29043 0.0
S616 S 0.15806 0.77019 0.18237 0.0
N617 N 0.07378 0.78628 0.19245 0.0
N618 N 0.15617 0.74921 0.20866 0.0
C619 C 0.08483 0.75477 0.22729 0.0
C620 C 0.04053 0.7749 0.21857 0.0
C621 C 0.1954 0.77666 0.01383 0.0
C622 C 0.28057 0.78228 0.00271 0.0
C623 C 0.1526 0.75745 0.00245 0.0
C624 C 0.19386 0.74309 0.97985 0.0
H625 H 0.16203 0.78691 0.03183 0.0
H626 H 0.0871 0.75365 0.01173 0.0
S627 S 0.41362 0.7513 0.94119 0.0
N628 N 0.403 0.77251 0.96662 0.0
N629 N 0.32198 0.73655 0.94515 0.0
C630 C 0.27844 0.74864 0.96824 0.0
C631 C 0.32203 0.76818 0.97977 0.0
C632 C 0.01754 0.49496 0.00144 0.0
C633 C 0.92531 0.49432 0.00076 0.0
C634 C 0.06549 0.51402 0.99117 0.0
C635 C 0.02347 0.53338 0.97986 0.0
H636 H 0.05362 0.48053 0.00985 0.0
H637 H 0.13615 0.51357 0.99237 0.0
S638 S 0.78318 0.54052 0.9727 0.0
N639 N 0.79387 0.51485 0.98749 0.0
N640 N 0.88356 0.55067 0.96824 0.0
C641 C 0.93118 0.53303 0.97899 0.0
C642 C 0.88231 0.51355 0.98942 0.0
C643 C 0.16287 0.52283 0.23169 0.0
C644 C 0.20601 0.53109 0.25868 0.0
C645 C 0.18846 0.50263 0.21682 0.0
C646 C 0.25889 0.48988 0.22807 0.0
H647 H 0.10847 0.53198 0.22196 0.0
H648 H 0.15202 0.49693 0.19641 0.0
S649 S 0.39728 0.50483 0.29685 0.0
N650 N 0.3246 0.52525 0.29552 0.0
N651 N 0.37392 0.48768 0.26712 0.0
C652 C 0.30379 0.49819 0.25467 0.0
C653 C 0.27698 0.51864 0.27009 0.0
C654 C 0.76013 0.24283 0.01007 0.0
C655 C 0.7053 0.2428 0.98349 0.0
C656 C 0.80089 0.26274 0.02003 0.0
C657 C 0.78706 0.28328 0.00403 0.0
H658 H 0.76954 0.22757 0.02388 0.0
H659 H 0.84212 0.26218 0.04076 0.0
S660 S 0.65725 0.29173 0.93113 0.0
N661 N 0.64416 0.26475 0.94013 0.0
N662 N 0.72162 0.30206 0.95869 0.0
C663 C 0.73464 0.28336 0.97691 0.0
C664 C 0.69324 0.26315 0.96677 0.0
C665 C 0.64972 0.51918 0.74774 0.0
C666 C 0.72089 0.53347 0.75395 0.0
C667 C 0.66252 0.49654 0.7393 0.0
C668 C 0.74702 0.48721 0.73666 0.0
H669 H 0.58342 0.52555 0.74902 0.0
H670 H 0.60544 0.48633 0.73457 0.0
S671 S 0.95541 0.51708 0.75217 0.0
N672 N 0.87916 0.53636 0.75804 0.0
N673 N 0.90295 0.4939 0.74211 0.0
C674 C 0.8188 0.50123 0.74314 0.0
C675 C 0.8058 0.5243 0.7518 0.0
C676 C 0.56104 0.01179 0.9884 0.0
C677 C 0.51757 0.03237 0.98424 0.0
C678 C 0.516 0.99249 -0.0005 0.0
C679 C 0.42526 0.99283 0.00687 0.0
H680 H 0.63073 0.01052 0.98321 0.0
H681 H 0.55305 0.97711 0.00215 0.0
S682 S 0.28001 0.04246 4e-05 0.0
N683 N 0.37773 0.05191 0.98835 0.0
N684 N 0.29349 0.01562 0.00913 0.0
C685 C 0.38075 0.01328 0.00277 0.0
C686 C 0.4267 0.03301 0.9915 0.0
C687 C 0.49121 0.28063 0.25294 0.0
C688 C 0.43338 0.28028 0.22731 0.0
C689 C 0.52843 0.2607 0.26426 0.0
C690 C 0.50833 0.23973 0.25062 0.0
H691 H 0.50609 0.29628 0.26493 0.0
H692 H 0.57266 0.26168 0.28409 0.0
S693 S 0.36634 0.23009 0.18117 0.0
N694 N 0.36045 0.2575 0.1877 0.0
N695 N 0.43228 0.22004 0.20845 0.0
C696 C 0.45184 0.2392 0.22458 0.0
C697 C 0.41364 0.25949 0.21315 0.0
C698 C 0.49008 0.77327 0.7197 0.0
C699 C 0.41939 0.77991 0.73984 0.0
C700 C 0.53612 0.75343 0.72596 0.0
C701 C 0.51287 0.73956 0.75251 0.0
H702 H 0.50854 0.78314 0.69853 0.0
H703 H 0.58931 0.74869 0.70953 0.0
S704 S 0.34015 0.75125 0.81486 0.0
N705 N 0.33237 0.77212 0.78867 0.0
N706 N 0.42064 0.73519 0.80094 0.0
C707 C 0.44435 0.74648 0.77347 0.0
C708 C 0.39704 0.76656 0.76695 0.0
C709 C 0.41479 0.51936 0.48079 0.0
C710 C 0.49936 0.52897 0.47939 0.0
C711 C 0.40048 0.49708 0.49122 0.0
C712 C 0.47014 0.48341 0.50069 0.0
H713 H 0.35878 0.5291 0.4737 0.0
H714 H 0.33423 0.49049 0.49153 0.0
S715 S 0.70398 0.50065 0.50293 0.0
N716 N 0.65366 0.52313 0.48928 0.0
N717 N 0.62692 0.48136 0.50889 0.0
C718 C 0.55505 0.49282 0.49967 0.0
C719 C 0.56963 0.51553 0.48902 0.0
C720 C 0.33216 0.0968 0.38365 0.0
C721 C 0.26986 0.11395 0.38773 0.0
C722 C 0.39206 0.09719 0.35715 0.0
C723 C 0.39073 0.11461 0.33386 0.0
H724 H 0.33753 0.08375 0.40178 0.0
H725 H 0.44277 0.0845 0.35596 0.0
S726 S 0.22744 0.16049 0.33033 0.0
N727 N 0.20184 0.1468 0.36405 0.0
N728 N 0.31276 0.14721 0.31427 0.0
C729 C 0.32376 0.13065 0.33645 0.0
C730 C 0.26376 0.1304 0.3634 0.0
C731 C 0.7734 0.11618 0.37416 0.0
C732 C 0.77974 0.1335 0.35107 0.0
C733 C 0.82453 0.11647 0.40129 0.0
C734 C 0.88541 0.1339 0.40614 0.0
H735 H 0.72915 0.10207 0.37111 0.0
H736 H 0.81922 0.10228 0.41778 0.0
S737 S 0.92052 0.18442 0.35411 0.0
N738 N 0.84471 0.16965 0.33597 0.0
N739 N 0.94403 0.16994 0.38677 0.0
C740 C 0.88867 0.15209 0.38421 0.0
C741 C 0.83521 0.15191 0.35663 0.0
C742 C 0.31089 0.15308 0.85977 0.0
C743 C 0.32099 0.13663 0.83562 0.0
C744 C 0.36144 0.15239 0.88737 0.0
C745 C 0.42234 0.13505 0.89169 0.0
H746 H 0.26016 0.16569 0.85833 0.0
H747 H 0.35032 0.16489 0.90598 0.0
S748 S 0.48541 0.09084 0.83251 0.0
N749 N 0.40556 0.10472 0.81557 0.0
N750 N 0.49932 0.10321 0.86752 0.0
C751 C 0.4374 0.11957 0.86663 0.0
C752 C 0.38715 0.12046 0.8385 0.0
C753 C 0.90525 0.1396 0.86788 0.0
C754 C 0.92525 0.11964 0.85099 0.0
C755 C 0.84707 0.13965 0.89445 0.0
C756 C 0.80497 0.11977 0.90536 0.0
H757 H 0.93472 0.15554 0.86057 0.0
H758 H 0.83334 0.15567 0.90592 0.0
S759 S 0.83809 0.06261 0.8708 0.0
N760 N 0.90199 0.07915 0.8481 0.0
N761 N 0.79064 0.07919 0.89795 0.0
C762 C 0.82642 0.09945 0.88944 0.0
C763 C 0.8868 0.0994 0.8623 0.0
C764 C 0.51686 0.87866 0.62722 0.0
C765 C 0.49563 0.89869 0.64371 0.0
C766 C 0.57318 0.87873 0.60005 0.0
C767 C 0.61197 0.89881 0.58814 0.0
H768 H 0.49015 0.8626 0.63537 0.0
H769 H 0.58853 0.86266 0.589 0.0
S770 S 0.57303 0.95623 0.62093 0.0
N771 N 0.51368 0.93947 0.6449 0.0
N772 N 0.62069 0.9396 0.59393 0.0
C773 C 0.58881 0.91915 0.60359 0.0
C774 C 0.53076 0.91908 0.63135 0.0
C775 C 0.07061 0.908 0.6479 0.0
C776 C 0.10108 0.8878 0.6613 0.0
C777 C 0.02132 0.90794 0.62027 0.0
C778 C -0.00063 0.88768 0.60496 0.0
H779 H 0.08777 0.92418 0.658 0.0
H780 H 0.00087 0.92405 0.6108 0.0
S781 S 0.05416 0.82991 0.63246 0.0
N782 N 0.09958 0.84677 0.65873 0.0
N783 N 0.00594 0.84666 0.6067 0.0
C784 C 0.02545 0.86723 0.61897 0.0
C785 C 0.07612 0.86729 0.64722 0.0
C786 C 0.63221 0.91141 0.14107 0.0
C787 C 0.65812 0.89104 0.15525 0.0
C788 C 0.58308 0.9116 0.11339 0.0
C789 C 0.55686 0.89142 0.09879 0.0
H790 H 0.65188 0.9275 0.15083 0.0
H791 H 0.56522 0.92782 0.10355 0.0
S792 S 0.60338 0.83338 0.12736 0.0
N793 N 0.65102 0.85002 0.15336 0.0
N794 N 0.55794 0.85036 0.10121 0.0
C795 C 0.58052 0.87084 0.11307 0.0
C796 C 0.63092 0.87065 0.14137 0.0
C797 C 0.07403 0.88202 0.13111 0.0
C798 C 0.05105 0.90205 0.14732 0.0
C799 C 0.12937 0.88219 0.10372 0.0
C800 C 0.16569 0.90238 0.09123 0.0
H801 H 0.04877 0.86585 0.13945 0.0
H802 H 0.14528 0.86612 0.09276 0.0
S803 S 0.12441 0.95977 0.12376 0.0
N804 N 0.06674 0.9429 0.14812 0.0
N805 N 0.17244 0.94322 0.09673 0.0
C806 C 0.14222 0.92269 0.10673 0.0
C807 C 0.08491 0.92252 0.13474 0.0
C808 C 0.32038 0.60366 0.88177 0.0
C809 C 0.30913 0.62305 0.90091 0.0
C810 C 0.37741 0.60374 0.8546 0.0
C811 C 0.42496 0.62323 0.84543 0.0
H812 H 0.28201 0.58859 0.8869 0.0
H813 H 0.38256 0.58857 0.84025 0.0
S814 S 0.4284 0.67741 0.89015 0.0
N815 N 0.35749 0.66147 0.91071 0.0
N816 N 0.46376 0.66175 0.85974 0.0
C817 C 0.41757 0.64238 0.86532 0.0
C818 C 0.36014 0.64222 0.89304 0.0
C819 C 0.84206 0.60998 0.84384 0.0
C820 C 0.81775 0.62958 0.8273 0.0
C821 C 0.89152 0.61119 0.8714 0.0
C822 C 0.91959 0.63204 0.8835 0.0
H823 H 0.8199 0.5935 0.83632 0.0
H824 H 0.90699 0.59553 0.88343 0.0
S825 S 0.88229 0.68831 0.84693 0.0
N826 N 0.83167 0.67046 0.8234 0.0
N827 N 0.92536 0.67273 0.8753 0.0
C828 C 0.89935 0.65177 0.86638 0.0
C829 C 0.84871 0.65053 0.83819 0.0
C830 C 0.33516 0.64264 0.3493 0.0
C831 C 0.32671 0.62399 0.32876 0.0
C832 C 0.38375 0.64127 0.3771 0.0
C833 C 0.42611 0.62122 0.38553 0.0
H834 H 0.30142 0.65827 0.34462 0.0
H835 H 0.3874 0.65605 0.39225 0.0
S836 S 0.43336 0.56835 0.3379 0.0
N837 N 0.37106 0.58544 0.31727 0.0
N838 N 0.46234 0.58278 0.36977 0.0
C839 C 0.42087 0.60264 0.36467 0.0
C840 C 0.37156 0.60408 0.33618 0.0
C841 C 0.84505 0.64047 0.38357 0.0
C842 C 0.81668 0.6199 0.39748 0.0
C843 C 0.90064 0.64107 0.35616 0.0
C844 C 0.93095 0.62113 0.3414 0.0
H845 H 0.82238 0.65639 0.39334 0.0
H846 H 0.91967 0.65743 0.34648 0.0
S847 S 0.88103 0.56272 0.36944 0.0
N848 N 0.82666 0.57896 0.39519 0.0
N849 N 0.93143 0.58009 0.34374 0.0
C850 C 0.90509 0.60039 0.35551 0.0
C851 C 0.84832 0.59977 0.38354 0.0
C852 C 0.59329 0.41997 0.13221 0.0
C853 C 0.53441 0.40182 0.13641 0.0
C854 C 0.65034 0.42123 0.10506 0.0
C855 C 0.64971 0.40451 0.08106 0.0
H856 H 0.59756 0.43283 0.15055 0.0
H857 H 0.69838 0.43472 0.10382 0.0
S858 S 0.49556 0.3562 0.07747 0.0
N859 N 0.47068 0.36852 0.11211 0.0
N860 N 0.57659 0.37123 0.06101 0.0
C861 C 0.58656 0.38729 0.08384 0.0
C862 C 0.52935 0.38584 0.11156 0.0
C863 C 0.07688 0.41512 0.11185 0.0
C864 C 0.03956 0.395 0.1007 0.0
C865 C 0.12703 0.41535 0.1393 0.0
C866 C 0.14251 0.39544 0.15665 0.0
H867 H 0.06856 0.43088 0.09907 0.0
H868 H 0.15719 0.43114 0.14594 0.0
S869 S 0.05117 0.33871 0.13994 0.0
N870 N 0.01522 0.3549 0.11084 0.0
N871 N 0.10999 0.35539 0.16256 0.0
C872 C 0.10209 0.37537 0.14678 0.0
C873 C 0.05085 0.37511 0.11872 0.0
C874 C 0.60889 0.37532 0.63988 0.0
C875 C 0.6393 0.3958 0.65245 0.0
C876 C 0.56046 0.37478 0.61194 0.0
C877 C 0.53993 0.39471 0.59539 0.0
H878 H 0.62439 0.3594 0.6512 0.0
H879 H 0.5387 0.35852 0.60342 0.0
S880 S 0.60072 0.453 0.6189 0.0
N881 N 0.6426 0.43673 0.64673 0.0
N882 N 0.55199 0.4357 0.59408 0.0
C883 C 0.56843 0.41541 0.60798 0.0
C884 C 0.61754 0.41597 0.63658 0.0
C885 C 0.06784 0.37633 0.63094 0.0
C886 C 0.03267 0.39677 0.64239 0.0
C887 C 0.12381 0.37569 0.60363 0.0
C888 C 0.14725 0.39547 0.58648 0.0
H889 H 0.05248 0.36059 0.64323 0.0
H890 H 0.15058 0.35953 0.59648 0.0
S891 S 0.0677 0.45326 0.60484 0.0
N892 N 0.02168 0.43725 0.63328 0.0
N893 N 0.1267 0.43604 0.58197 0.0
C894 C 0.11055 0.41599 0.59707 0.0
C895 C 0.0537 0.41665 0.62503 0.0
C896 C 0.10461 0.13949 0.63669 0.0
C897 C 0.10015 0.11971 0.65548 0.0
C898 C 0.09987 0.13885 0.60314 0.0
C899 C 0.10081 0.11835 0.58621 0.0
H900 H 0.112 0.15582 0.64769 0.0
H901 H 0.09573 0.15478 0.59065 0.0
S902 S 0.09308 0.06132 0.62361 0.0
N903 N 0.08538 0.07884 0.65426 0.0
N904 N 0.10505 0.07746 0.59134 0.0
C905 C 0.10095 0.09832 0.6046 0.0
C906 C 0.09465 0.09904 0.63903 0.0
C907 C 0.93256 0.90032 0.39041 0.0
C908 C 0.86297 0.89025 0.4082 0.0
C909 C 0.93217 0.90113 0.35671 0.0
C910 C 0.86229 0.89184 0.34002 0.0
H911 H -0.01268 0.90765 0.40267 0.0
H912 H -0.01325 0.90899 0.3436 0.0
S913 S 0.66315 0.86456 0.37556 0.0
N914 N 0.72138 0.87152 0.40688 0.0
N915 N 0.72118 0.87288 0.34338 0.0
C916 C 0.79238 0.88181 0.3575 0.0
C917 C 0.79264 0.88103 0.39173 0.0
C918 C 0.00882 0.62272 0.09995 0.0
C919 C 0.0733 0.63298 0.07991 0.0
C920 C 0.01804 0.62186 0.13338 0.0
C921 C 0.09206 0.63119 0.14756 0.0
H922 H 0.9514 0.61519 0.08966 0.0
H923 H 0.96726 0.6138 0.14824 0.0
S924 S 0.28086 0.65891 0.10534 0.0
N925 N 0.21445 0.65201 0.07632 0.0
N926 N 0.23168 0.65038 0.13928 0.0
C927 C 0.15689 0.64145 0.12778 0.0
C928 C 0.14748 0.64237 0.09383 0.0
C929 C 0.82823 0.40797 0.889 0.0
C930 C 0.8946 0.39556 0.90341 0.0
C931 C 0.81867 0.40762 0.85562 0.0
C932 C 0.87503 0.39479 0.83572 0.0
H933 H 0.78284 0.41781 0.90369 0.0
H934 H 0.76635 0.41726 0.84531 0.0
S935 S 0.06166 0.36027 0.86167 0.0
N936 N 0.01907 0.3707 0.89548 0.0
N937 N 0.00131 0.37007 0.83247 0.0
C938 C 0.94215 0.38248 0.8498 0.0
C939 C 0.9519 0.38285 0.88378 0.0
C940 C 0.54803 0.1177 0.14154 0.0
C941 C 0.6212 0.12795 0.15507 0.0
C942 C 0.53616 0.11853 0.10824 0.0
C943 C 0.59719 0.1296 0.08759 0.0
H944 H 0.49927 0.10926 0.15687 0.0
H945 H 0.47874 0.11058 0.09857 0.0
S946 S 0.80217 0.15781 0.1113 0.0
N947 N 0.75655 0.14881 0.14564 0.0
N948 N 0.73541 0.15 0.08284 0.0
C949 C 0.67124 0.1396 0.10087 0.0
C950 C 0.683 0.13885 0.13474 0.0
C951 C 0.29737 0.9043 0.85978 0.0
C952 C 0.35915 0.89405 0.83891 0.0
C953 C 0.30929 0.90463 0.89304 0.0
C954 C 0.38326 0.89471 0.90627 0.0
H955 H 0.23907 0.91187 0.85035 0.0
H956 H 0.25994 0.91245 0.90856 0.0
S957 S 0.56604 0.86689 0.86169 0.0
N958 N 0.49832 0.87459 0.83348 0.0
N959 N 0.52042 0.87512 0.89627 0.0
C960 C 0.44599 0.88468 0.88567 0.0
C961 C 0.43395 0.88435 0.85183 0.0
C962 C 0.64115 0.63389 0.59617 0.0
C963 C 0.57444 0.6224 0.58045 0.0
C964 C 0.64357 0.63396 0.62982 0.0
C965 C 0.579 0.62268 0.64864 0.0
H966 H 0.69236 0.64261 0.58235 0.0
H967 H 0.69649 0.64278 0.64121 0.0
S968 S 0.38803 0.59126 0.6189 0.0
N969 N 0.44117 0.60006 0.58588 0.0
N970 N 0.44475 0.60056 0.64939 0.0
C971 C 0.51132 0.61141 0.63321 0.0
C972 C 0.50927 0.61118 0.59896 0.0
C973 C 0.44404 0.40034 0.35033 0.0
C974 C 0.37498 0.3903 0.334 0.0
C975 C 0.44512 0.39997 0.38402 0.0
C976 C 0.37753 0.38938 0.40218 0.0
H977 H 0.49711 0.40865 0.33695 0.0
H978 H 0.49881 0.40806 0.39597 0.0
S979 S 0.18033 0.36163 0.37085 0.0
N980 N 0.23602 0.37028 0.3383 0.0
N981 N 0.23893 0.36921 0.40179 0.0
C982 C 0.30832 0.37925 0.38616 0.0
C983 C 0.30682 0.3798 0.35193 0.0
loop_
_geom_bond_atom_site_label_1
_geom_bond_atom_site_label_2
_geom_bond_distance
_geom_bond_site_symmetry_2
_ccdc_geom_bond_type
Co0 O3 1.970 . S
Co0 N17 1.989 . S
Co0 O25 1.967 . S
Co0 O32 1.920 . S
Co1 O4 1.966 . S
Co1 N10 2.022 . S
Co1 N18 1.993 . S
Co1 O26 1.941 . S
C2 O3 1.258 . S
C2 O4 1.263 . S
O3 Co0 1.970 . S
O3 C2 1.258 . S
O4 Co1 1.966 . S
O4 C2 1.263 . S
C5 O6 1.235 . S
C5 O32 1.289 . S
O6 C5 1.235 . S
C7 C9 1.400 . S
C7 N10 1.351 . S
C7 C12 1.501 . S
C8 C9 1.387 . S
C8 N11 1.341 . S
C9 C7 1.400 . S
C9 C8 1.387 . S
N10 Co1 2.022 . S
N10 C7 1.351 . S
N10 N11 1.365 . S
N11 C8 1.341 . S
N11 N10 1.365 . S
N11 H31 0.862 . S
C12 C7 1.501 . S
C12 H13 0.961 . S
C12 H14 0.961 . S
C12 H15 0.960 . S
H13 C12 0.961 . S
H14 C12 0.961 . S
H15 C12 0.960 . S
C16 N17 1.342 . S
C16 C20 1.401 . S
C16 C21 1.499 . S
N17 Co0 1.989 . S
N17 C16 1.342 . S
N17 N18 1.388 . S
N18 Co1 1.993 . S
N18 N17 1.388 . S
N18 C19 1.346 . S
C19 N18 1.346 . S
C19 C20 1.396 . S
C19 C29 1.510 . S
C20 C16 1.401 . S
C20 C19 1.396 . S
C21 C16 1.499 . S
C21 H22 0.959 . S
C21 H23 0.960 . S
C21 H24 0.961 . S
H22 C21 0.959 . S
H23 C21 0.960 . S
H24 C21 0.961 . S
O25 Co0 1.967 . S
O25 C33 1.258 1_455 S
O26 Co1 1.941 . S
O26 C33 1.266 1_455 S
H27 C29 0.959 . S
H28 C29 0.961 . S
C29 C19 1.510 . S
C29 H27 0.959 . S
C29 H28 0.961 . S
C29 H30 0.960 . S
H30 C29 0.960 . S
H31 N11 0.862 . S
O32 Co0 1.920 . S
O32 C5 1.289 . S
C33 O25 1.258 1_655 S
C33 O26 1.266 1_655 S
Co34 O37 1.970 . S
Co34 N51 1.989 . S
Co34 O59 1.967 . S
Co34 O66 1.920 . S
Co35 O38 1.966 . S
Co35 N44 2.022 . S
Co35 N52 1.993 . S
Co35 O60 1.941 . S
C36 O37 1.258 1_655 S
C36 O38 1.263 1_655 S
O37 Co34 1.970 . S
O37 C36 1.258 1_455 S
O38 Co35 1.966 . S
O38 C36 1.263 1_455 S
C39 O40 1.235 . S
C39 O66 1.289 . S
O40 C39 1.235 . S
C41 C43 1.400 . S
C41 N44 1.351 . S
C41 C46 1.501 1_455 S
C42 C43 1.387 . S
C42 N45 1.341 . S
C43 C41 1.400 . S
C43 C42 1.387 . S
N44 Co35 2.022 . S
N44 C41 1.351 . S
N44 N45 1.365 . S
N45 C42 1.341 . S
N45 N44 1.365 . S
N45 H65 0.862 . S
C46 C41 1.501 1_655 S
C46 H47 0.961 . S
C46 H48 0.961 . S
C46 H49 0.960 . S
H47 C46 0.961 . S
H48 C46 0.961 . S
H49 C46 0.960 . S
C50 N51 1.342 . S
C50 C54 1.401 . S
C50 C55 1.499 . S
N51 Co34 1.989 . S
N51 C50 1.342 . S
N51 N52 1.388 . S
N52 Co35 1.993 . S
N52 N51 1.388 . S
N52 C53 1.346 . S
C53 N52 1.346 . S
C53 C54 1.396 . S
C53 C63 1.510 . S
C54 C50 1.401 . S
C54 C53 1.396 . S
C55 C50 1.499 . S
C55 H56 0.959 . S
C55 H57 0.960 . S
C55 H58 0.961 . S
H56 C55 0.959 . S
H57 C55 0.960 . S
H58 C55 0.961 . S
O59 Co34 1.967 . S
O59 C67 1.258 . S
O60 Co35 1.941 . S
O60 C67 1.266 . S
H61 C63 0.959 . S
H62 C63 0.961 . S
C63 C53 1.510 . S
C63 H61 0.959 . S
C63 H62 0.961 . S
C63 H64 0.960 . S
H64 C63 0.960 . S
H65 N45 0.862 . S
O66 Co34 1.920 . S
O66 C39 1.289 . S
C67 O59 1.258 . S
C67 O60 1.266 . S
Co68 O71 1.970 . S
Co68 N85 1.989 . S
Co68 O93 1.967 . S
Co68 O100 1.920 . S
Co69 O72 1.966 . S
Co69 N78 2.022 . S
Co69 N86 1.993 . S
Co69 O94 1.941 . S
C70 O71 1.258 . S
C70 O72 1.263 . S
O71 Co68 1.970 . S
O71 C70 1.258 . S
O72 Co69 1.966 . S
O72 C70 1.263 . S
C73 O74 1.235 . S
C73 O100 1.289 . S
O74 C73 1.235 . S
C75 C77 1.400 . S
C75 N78 1.351 . S
C75 C80 1.501 . S
C76 C77 1.387 . S
C76 N79 1.341 . S
C77 C75 1.400 . S
C77 C76 1.387 . S
N78 Co69 2.022 . S
N78 C75 1.351 . S
N78 N79 1.365 . S
N79 C76 1.341 . S
N79 N78 1.365 . S
N79 H99 0.862 . S
C80 C75 1.501 . S
C80 H81 0.961 . S
C80 H82 0.961 . S
C80 H83 0.960 . S
H81 C80 0.961 . S
H82 C80 0.961 . S
H83 C80 0.960 . S
C84 N85 1.342 . S
C84 C88 1.401 . S
C84 C89 1.499 . S
N85 Co68 1.989 . S
N85 C84 1.342 . S
N85 N86 1.388 . S
N86 Co69 1.993 . S
N86 N85 1.388 . S
N86 C87 1.346 . S
C87 N86 1.346 . S
C87 C88 1.396 . S
C87 C97 1.510 . S
C88 C84 1.401 . S
C88 C87 1.396 . S
C89 C84 1.499 . S
C89 H90 0.959 . S
C89 H91 0.960 . S
C89 H92 0.961 . S
H90 C89 0.959 . S
H91 C89 0.960 . S
H92 C89 0.961 . S
O93 Co68 1.967 . S
O93 C101 1.258 1_655 S
O94 Co69 1.941 . S
O94 C101 1.266 1_655 S
H95 C97 0.959 . S
H96 C97 0.961 . S
C97 C87 1.510 . S
C97 H95 0.959 . S
C97 H96 0.961 . S
C97 H98 0.960 . S
H98 C97 0.960 . S
H99 N79 0.862 . S
O100 Co68 1.920 . S
O100 C73 1.289 . S
C101 O93 1.258 1_455 S
C101 O94 1.266 1_455 S
Co102 O105 1.970 . S
Co102 N119 1.989 . S
Co102 O127 1.967 . S
Co102 O134 1.920 . S
Co103 O106 1.966 . S
Co103 N112 2.022 . S
Co103 N120 1.993 . S
Co103 O128 1.941 . S
C104 O105 1.258 1_455 S
C104 O106 1.263 1_455 S
O105 Co102 1.970 . S
O105 C104 1.258 1_655 S
O106 Co103 1.966 . S
O106 C104 1.263 1_655 S
C107 O108 1.235 . S
C107 O134 1.289 . S
O108 C107 1.235 . S
C109 C111 1.400 . S
C109 N112 1.351 . S
C109 C114 1.501 1_655 S
C110 C111 1.387 . S
C110 N113 1.341 . S
C111 C109 1.400 . S
C111 C110 1.387 . S
N112 Co103 2.022 . S
N112 C109 1.351 . S
N112 N113 1.365 . S
N113 C110 1.341 . S
N113 N112 1.365 . S
N113 H133 0.862 . S
C114 C109 1.501 1_455 S
C114 H115 0.961 . S
C114 H116 0.961 . S
C114 H117 0.960 . S
H115 C114 0.961 . S
H116 C114 0.961 . S
H117 C114 0.960 . S
C118 N119 1.342 . S
C118 C122 1.401 . S
C118 C123 1.499 . S
N119 Co102 1.989 . S
N119 C118 1.342 . S
N119 N120 1.388 . S
N120 Co103 1.993 . S
N120 N119 1.388 . S
N120 C121 1.346 . S
C121 N120 1.346 . S
C121 C122 1.396 . S
C121 C131 1.510 . S
C122 C118 1.401 . S
C122 C121 1.396 . S
C123 C118 1.499 . S
C123 H124 0.959 . S
C123 H125 0.960 . S
C123 H126 0.961 . S
H124 C123 0.959 . S
H125 C123 0.960 . S
H126 C123 0.961 . S
O127 Co102 1.967 . S
O127 C135 1.258 . S
O128 Co103 1.941 . S
O128 C135 1.266 . S
H129 C131 0.959 . S
H130 C131 0.961 . S
C131 C121 1.510 . S
C131 H129 0.959 . S
C131 H130 0.961 . S
C131 H132 0.960 . S
H132 C131 0.960 . S
H133 N113 0.862 . S
O134 Co102 1.920 . S
O134 C107 1.289 . S
C135 O127 1.258 . S
C135 O128 1.266 . S
Co136 O139 1.970 . S
Co136 N153 1.989 1_556 S
Co136 O161 1.967 . S
Co136 O168 1.920 . S
Co137 O140 1.966 . S
Co137 N146 2.022 . S
Co137 N154 1.993 1_556 S
Co137 O162 1.941 . S
C138 O139 1.258 . S
C138 O140 1.263 . S
O139 Co136 1.970 . S
O139 C138 1.258 . S
O140 Co137 1.966 . S
O140 C138 1.263 . S
C141 O142 1.235 . S
C141 O168 1.289 . S
O142 C141 1.235 . S
C143 C145 1.400 . S
C143 N146 1.351 . S
C143 C148 1.501 . S
C144 C145 1.387 . S
C144 N147 1.341 . S
C145 C143 1.400 . S
C145 C144 1.387 . S
N146 Co137 2.022 . S
N146 C143 1.351 . S
N146 N147 1.365 . S
N147 C144 1.341 . S
N147 N146 1.365 . S
N147 H167 0.862 . S
C148 C143 1.501 . S
C148 H149 0.961 . S
C148 H150 0.961 . S
C148 H151 0.960 . S
H149 C148 0.961 . S
H150 C148 0.961 . S
H151 C148 0.960 . S
C152 N153 1.342 . S
C152 C156 1.401 . S
C152 C157 1.499 . S
N153 Co136 1.989 1_554 S
N153 C152 1.342 . S
N153 N154 1.388 . S
N154 Co137 1.993 1_554 S
N154 N153 1.388 . S
N154 C155 1.346 . S
C155 N154 1.346 . S
C155 C156 1.396 . S
C155 C165 1.510 . S
C156 C152 1.401 . S
C156 C155 1.396 . S
C157 C152 1.499 . S
C157 H158 0.959 . S
C157 H159 0.960 . S
C157 H160 0.961 . S
H158 C157 0.959 . S
H159 C157 0.960 . S
H160 C157 0.961 . S
O161 Co136 1.967 . S
O161 C169 1.258 1_455 S
O162 Co137 1.941 . S
O162 C169 1.266 1_455 S
H163 C165 0.959 . S
H164 C165 0.961 . S
C165 C155 1.510 . S
C165 H163 0.959 . S
C165 H164 0.961 . S
C165 H166 0.960 . S
H166 C165 0.960 . S
H167 N147 0.862 . S
O168 Co136 1.920 . S
O168 C141 1.289 . S
C169 O161 1.258 1_655 S
C169 O162 1.266 1_655 S
Co170 O173 1.970 . S
Co170 N187 1.989 . S
Co170 O195 1.967 . S
Co170 O202 1.920 . S
Co171 O174 1.966 . S
Co171 N180 2.022 . S
Co171 N188 1.993 . S
Co171 O196 1.941 . S
C172 O173 1.258 1_655 S
C172 O174 1.263 1_655 S
O173 Co170 1.970 . S
O173 C172 1.258 1_455 S
O174 Co171 1.966 . S
O174 C172 1.263 1_455 S
C175 O176 1.235 . S
C175 O202 1.289 . S
O176 C175 1.235 . S
C177 C179 1.400 . S
C177 N180 1.351 . S
C177 C182 1.501 1_455 S
C178 C179 1.387 . S
C178 N181 1.341 . S
C179 C177 1.400 . S
C179 C178 1.387 . S
N180 Co171 2.022 . S
N180 C177 1.351 . S
N180 N181 1.365 . S
N181 C178 1.341 . S
N181 N180 1.365 . S
N181 H201 0.862 . S
C182 C177 1.501 1_655 S
C182 H183 0.961 . S
C182 H184 0.961 . S
C182 H185 0.960 . S
H183 C182 0.961 . S
H184 C182 0.961 . S
H185 C182 0.960 . S
C186 N187 1.342 . S
C186 C190 1.401 . S
C186 C191 1.499 . S
N187 Co170 1.989 . S
N187 C186 1.342 . S
N187 N188 1.388 . S
N188 Co171 1.993 . S
N188 N187 1.388 . S
N188 C189 1.346 . S
C189 N188 1.346 . S
C189 C190 1.396 . S
C189 C199 1.510 . S
C190 C186 1.401 . S
C190 C189 1.396 . S
C191 C186 1.499 . S
C191 H192 0.959 . S
C191 H193 0.960 . S
C191 H194 0.961 . S
H192 C191 0.959 . S
H193 C191 0.960 . S
H194 C191 0.961 . S
O195 Co170 1.967 . S
O195 C203 1.258 . S
O196 Co171 1.941 . S
O196 C203 1.266 . S
H197 C199 0.959 . S
H198 C199 0.961 . S
C199 C189 1.510 . S
C199 H197 0.959 . S
C199 H198 0.961 . S
C199 H200 0.960 . S
H200 C199 0.960 . S
H201 N181 0.862 . S
O202 Co170 1.920 . S
O202 C175 1.289 . S
C203 O195 1.258 . S
C203 O196 1.266 . S
Co204 O207 1.970 . S
Co204 N221 1.989 1_554 S
Co204 O229 1.967 . S
Co204 O236 1.920 . S
Co205 O208 1.966 . S
Co205 N214 2.022 . S
Co205 N222 1.993 1_554 S
Co205 O230 1.941 . S
C206 O207 1.258 . S
C206 O208 1.263 . S
O207 Co204 1.970 . S
O207 C206 1.258 . S
O208 Co205 1.966 . S
O208 C206 1.263 . S
C209 O210 1.235 . S
C209 O236 1.289 . S
O210 C209 1.235 . S
C211 C213 1.400 . S
C211 N214 1.351 . S
C211 C216 1.501 . S
C212 C213 1.387 . S
C212 N215 1.341 . S
C213 C211 1.400 . S
C213 C212 1.387 . S
N214 Co205 2.022 . S
N214 C211 1.351 . S
N214 N215 1.365 . S
N215 C212 1.341 . S
N215 N214 1.365 . S
N215 H235 0.862 . S
C216 C211 1.501 . S
C216 H217 0.961 . S
C216 H218 0.961 . S
C216 H219 0.960 . S
H217 C216 0.961 . S
H218 C216 0.961 . S
H219 C216 0.960 . S
C220 N221 1.342 . S
C220 C224 1.401 . S
C220 C225 1.499 . S
N221 Co204 1.989 1_556 S
N221 C220 1.342 . S
N221 N222 1.388 . S
N222 Co205 1.993 1_556 S
N222 N221 1.388 . S
N222 C223 1.346 . S
C223 N222 1.346 . S
C223 C224 1.396 . S
C223 C233 1.510 . S
C224 C220 1.401 . S
C224 C223 1.396 . S
C225 C220 1.499 . S
C225 H226 0.959 . S
C225 H227 0.960 . S
C225 H228 0.961 . S
H226 C225 0.959 . S
H227 C225 0.960 . S
H228 C225 0.961 . S
O229 Co204 1.967 . S
O229 C237 1.258 1_655 S
O230 Co205 1.941 . S
O230 C237 1.266 1_655 S
H231 C233 0.959 . S
H232 C233 0.961 . S
C233 C223 1.510 . S
C233 H231 0.959 . S
C233 H232 0.961 . S
C233 H234 0.960 . S
H234 C233 0.960 . S
H235 N215 0.862 . S
O236 Co204 1.920 . S
O236 C209 1.289 . S
C237 O229 1.258 1_455 S
C237 O230 1.266 1_455 S
Co238 O241 1.970 . S
Co238 N255 1.989 . S
Co238 O263 1.967 . S
Co238 O270 1.920 . S
Co239 O242 1.966 . S
Co239 N248 2.022 . S
Co239 N256 1.993 . S
Co239 O264 1.941 . S
C240 O241 1.258 1_455 S
C240 O242 1.263 1_455 S
O241 Co238 1.970 . S
O241 C240 1.258 1_655 S
O242 Co239 1.966 . S
O242 C240 1.263 1_655 S
C243 O244 1.235 . S
C243 O270 1.289 . S
O244 C243 1.235 . S
C245 C247 1.400 . S
C245 N248 1.351 . S
C245 C250 1.501 1_655 S
C246 C247 1.387 . S
C246 N249 1.341 . S
C247 C245 1.400 . S
C247 C246 1.387 . S
N248 Co239 2.022 . S
N248 C245 1.351 . S
N248 N249 1.365 . S
N249 C246 1.341 . S
N249 N248 1.365 . S
N249 H269 0.862 . S
C250 C245 1.501 1_455 S
C250 H251 0.961 . S
C250 H252 0.961 . S
C250 H253 0.960 . S
H251 C250 0.961 . S
H252 C250 0.961 . S
H253 C250 0.960 . S
C254 N255 1.342 . S
C254 C258 1.401 . S
C254 C259 1.499 . S
N255 Co238 1.989 . S
N255 C254 1.342 . S
N255 N256 1.388 . S
N256 Co239 1.993 . S
N256 N255 1.388 . S
N256 C257 1.346 . S
C257 N256 1.346 . S
C257 C258 1.396 . S
C257 C267 1.510 . S
C258 C254 1.401 . S
C258 C257 1.396 . S
C259 C254 1.499 . S
C259 H260 0.959 . S
C259 H261 0.960 . S
C259 H262 0.961 . S
H260 C259 0.959 . S
H261 C259 0.960 . S
H262 C259 0.961 . S
O263 Co238 1.967 . S
O263 C271 1.258 . S
O264 Co239 1.941 . S
O264 C271 1.266 . S
H265 C267 0.959 . S
H266 C267 0.961 . S
C267 C257 1.510 . S
C267 H265 0.959 . S
C267 H266 0.961 . S
C267 H268 0.960 . S
H268 C267 0.960 . S
H269 N249 0.862 . S
O270 Co238 1.920 . S
O270 C243 1.289 . S
C271 O263 1.258 . S
C271 O264 1.266 . S
Co272 O275 1.970 . S
Co272 N289 1.989 1_556 S
Co272 O297 1.967 . S
Co272 O304 1.920 . S
Co273 O276 1.966 . S
Co273 N282 2.022 . S
Co273 N290 1.993 1_556 S
Co273 O298 1.941 . S
C274 O275 1.258 . S
C274 O276 1.263 . S
O275 Co272 1.970 . S
O275 C274 1.258 . S
O276 Co273 1.966 . S
O276 C274 1.263 . S
C277 O278 1.235 . S
C277 O304 1.289 . S
O278 C277 1.235 . S
C279 C281 1.400 . S
C279 N282 1.351 . S
C279 C284 1.501 . S
C280 C281 1.387 . S
C280 N283 1.341 . S
C281 C279 1.400 . S
C281 C280 1.387 . S
N282 Co273 2.022 . S
N282 C279 1.351 . S
N282 N283 1.365 . S
N283 C280 1.341 . S
N283 N282 1.365 . S
N283 H303 0.862 . S
C284 C279 1.501 . S
C284 H285 0.961 . S
C284 H286 0.961 . S
C284 H287 0.960 . S
H285 C284 0.961 . S
H286 C284 0.961 . S
H287 C284 0.960 . S
C288 N289 1.342 . S
C288 C292 1.401 . S
C288 C293 1.499 . S
N289 Co272 1.989 1_554 S
N289 C288 1.342 . S
N289 N290 1.388 . S
N290 Co273 1.993 1_554 S
N290 N289 1.388 . S
N290 C291 1.346 . S
C291 N290 1.346 . S
C291 C292 1.396 . S
C291 C301 1.510 . S
C292 C288 1.401 . S
C292 C291 1.396 . S
C293 C288 1.499 . S
C293 H294 0.959 . S
C293 H295 0.960 . S
C293 H296 0.961 . S
H294 C293 0.959 . S
H295 C293 0.960 . S
H296 C293 0.961 . S
O297 Co272 1.967 . S
O297 C305 1.258 . S
O298 Co273 1.941 . S
O298 C305 1.266 . S
H299 C301 0.959 . S
H300 C301 0.961 . S
C301 C291 1.510 . S
C301 H299 0.959 . S
C301 H300 0.961 . S
C301 H302 0.960 . S
H302 C301 0.960 . S
H303 N283 0.862 . S
O304 Co272 1.920 . S
O304 C277 1.289 . S
C305 O297 1.258 . S
C305 O298 1.266 . S
Co306 O309 1.970 . S
Co306 N323 1.989 . S
Co306 O331 1.967 . S
Co306 O338 1.920 . S
Co307 O310 1.966 . S
Co307 N316 2.022 . S
Co307 N324 1.993 . S
Co307 O332 1.941 . S
C308 O309 1.258 . S
C308 O310 1.263 . S
O309 Co306 1.970 . S
O309 C308 1.258 . S
O310 Co307 1.966 . S
O310 C308 1.263 . S
C311 O312 1.235 . S
C311 O338 1.289 . S
O312 C311 1.235 . S
C313 C315 1.400 . S
C313 N316 1.351 . S
C313 C318 1.501 . S
C314 C315 1.387 . S
C314 N317 1.341 . S
C315 C313 1.400 . S
C315 C314 1.387 . S
N316 Co307 2.022 . S
N316 C313 1.351 . S
N316 N317 1.365 . S
N317 C314 1.341 . S
N317 N316 1.365 . S
N317 H337 0.862 . S
C318 C313 1.501 . S
C318 H319 0.961 . S
C318 H320 0.961 . S
C318 H321 0.960 . S
H319 C318 0.961 . S
H320 C318 0.961 . S
H321 C318 0.960 . S
C322 N323 1.342 . S
C322 C326 1.401 . S
C322 C327 1.499 . S
N323 Co306 1.989 . S
N323 C322 1.342 . S
N323 N324 1.388 . S
N324 Co307 1.993 . S
N324 N323 1.388 . S
N324 C325 1.346 . S
C325 N324 1.346 . S
C325 C326 1.396 . S
C325 C335 1.510 . S
C326 C322 1.401 . S
C326 C325 1.396 . S
C327 C322 1.499 . S
C327 H328 0.959 . S
C327 H329 0.960 . S
C327 H330 0.961 . S
H328 C327 0.959 . S
H329 C327 0.960 . S
H330 C327 0.961 . S
O331 Co306 1.967 . S
O331 C339 1.258 . S
O332 Co307 1.941 . S
O332 C339 1.266 . S
H333 C335 0.959 . S
H334 C335 0.961 . S
C335 C325 1.510 . S
C335 H333 0.959 . S
C335 H334 0.961 . S
C335 H336 0.960 . S
H336 C335 0.960 . S
H337 N317 0.862 . S
O338 Co306 1.920 . S
O338 C311 1.289 . S
C339 O331 1.258 . S
C339 O332 1.266 . S
Co340 O343 1.970 . S
Co340 N357 1.989 1_554 S
Co340 O365 1.967 . S
Co340 O372 1.920 . S
Co341 O344 1.966 . S
Co341 N350 2.022 . S
Co341 N358 1.993 1_554 S
Co341 O366 1.941 . S
C342 O343 1.258 . S
C342 O344 1.263 . S
O343 Co340 1.970 . S
O343 C342 1.258 . S
O344 Co341 1.966 . S
O344 C342 1.263 . S
C345 O346 1.235 . S
C345 O372 1.289 . S
O346 C345 1.235 . S
C347 C349 1.400 . S
C347 N350 1.351 . S
C347 C352 1.501 . S
C348 C349 1.387 . S
C348 N351 1.341 . S
C349 C347 1.400 . S
C349 C348 1.387 . S
N350 Co341 2.022 . S
N350 C347 1.351 . S
N350 N351 1.365 . S
N351 C348 1.341 . S
N351 N350 1.365 . S
N351 H371 0.862 . S
C352 C347 1.501 . S
C352 H353 0.961 . S
C352 H354 0.961 . S
C352 H355 0.960 . S
H353 C352 0.961 . S
H354 C352 0.961 . S
H355 C352 0.960 . S
C356 N357 1.342 . S
C356 C360 1.401 . S
C356 C361 1.499 . S
N357 Co340 1.989 1_556 S
N357 C356 1.342 . S
N357 N358 1.388 . S
N358 Co341 1.993 1_556 S
N358 N357 1.388 . S
N358 C359 1.346 . S
C359 N358 1.346 . S
C359 C360 1.396 . S
C359 C369 1.510 . S
C360 C356 1.401 . S
C360 C359 1.396 . S
C361 C356 1.499 . S
C361 H362 0.959 . S
C361 H363 0.960 . S
C361 H364 0.961 . S
H362 C361 0.959 . S
H363 C361 0.960 . S
H364 C361 0.961 . S
O365 Co340 1.967 . S
O365 C373 1.258 . S
O366 Co341 1.941 . S
O366 C373 1.266 . S
H367 C369 0.959 . S
H368 C369 0.961 . S
C369 C359 1.510 . S
C369 H367 0.959 . S
C369 H368 0.961 . S
C369 H370 0.960 . S
H370 C369 0.960 . S
H371 N351 0.862 . S
O372 Co340 1.920 . S
O372 C345 1.289 . S
C373 O365 1.258 . S
C373 O366 1.266 . S
Co374 O377 1.970 . S
Co374 N391 1.989 . S
Co374 O399 1.967 . S
Co374 O406 1.920 . S
Co375 O378 1.966 . S
Co375 N384 2.022 . S
Co375 N392 1.993 . S
Co375 O400 1.941 . S
C376 O377 1.258 . S
C376 O378 1.263 . S
O377 Co374 1.970 . S
O377 C376 1.258 . S
O378 Co375 1.966 . S
O378 C376 1.263 . S
C379 O380 1.235 . S
C379 O406 1.289 . S
O380 C379 1.235 . S
C381 C383 1.400 . S
C381 N384 1.351 . S
C381 C386 1.501 . S
C382 C383 1.387 . S
C382 N385 1.341 . S
C383 C381 1.400 . S
C383 C382 1.387 . S
N384 Co375 2.022 . S
N384 C381 1.351 . S
N384 N385 1.365 . S
N385 C382 1.341 . S
N385 N384 1.365 . S
N385 H405 0.862 . S
C386 C381 1.501 . S
C386 H387 0.961 . S
C386 H388 0.961 . S
C386 H389 0.960 . S
H387 C386 0.961 . S
H388 C386 0.961 . S
H389 C386 0.960 . S
C390 N391 1.342 . S
C390 C394 1.401 . S
C390 C395 1.499 . S
N391 Co374 1.989 . S
N391 C390 1.342 . S
N391 N392 1.388 . S
N392 Co375 1.993 . S
N392 N391 1.388 . S
N392 C393 1.346 . S
C393 N392 1.346 . S
C393 C394 1.396 . S
C393 C403 1.510 . S
C394 C390 1.401 . S
C394 C393 1.396 . S
C395 C390 1.499 . S
C395 H396 0.959 . S
C395 H397 0.960 . S
C395 H398 0.961 . S
H396 C395 0.959 . S
H397 C395 0.960 . S
H398 C395 0.961 . S
O399 Co374 1.967 . S
O399 C407 1.258 . S
O400 Co375 1.941 . S
O400 C407 1.266 . S
H401 C403 0.959 . S
H402 C403 0.961 . S
C403 C393 1.510 . S
C403 H401 0.959 . S
C403 H402 0.961 . S
C403 H404 0.960 . S
H404 C403 0.960 . S
H405 N385 0.862 . S
O406 Co374 1.920 . S
O406 C379 1.289 . S
C407 O399 1.258 . S
C407 O400 1.266 . S
Co408 O411 1.970 . S
Co408 N425 1.989 . S
Co408 O433 1.967 . S
Co408 O440 1.920 . S
Co409 O412 1.966 . S
Co409 N418 2.022 . S
Co409 N426 1.993 . S
Co409 O434 1.941 . S
C410 O411 1.258 . S
C410 O412 1.263 . S
O411 Co408 1.970 . S
O411 C410 1.258 . S
O412 Co409 1.966 . S
O412 C410 1.263 . S
C413 O414 1.235 . S
C413 O440 1.289 . S
O414 C413 1.235 . S
C415 C417 1.400 . S
C415 N418 1.351 . S
C415 C420 1.501 . S
C416 C417 1.387 . S
C416 N419 1.341 . S
C417 C415 1.400 . S
C417 C416 1.387 . S
N418 Co409 2.022 . S
N418 C415 1.351 . S
N418 N419 1.365 . S
N419 C416 1.341 . S
N419 N418 1.365 . S
N419 H439 0.862 . S
C420 C415 1.501 . S
C420 H421 0.961 . S
C420 H422 0.961 . S
C420 H423 0.960 . S
H421 C420 0.961 . S
H422 C420 0.961 . S
H423 C420 0.960 . S
C424 N425 1.342 . S
C424 C428 1.401 . S
C424 C429 1.499 . S
N425 Co408 1.989 . S
N425 C424 1.342 . S
N425 N426 1.388 . S
N426 Co409 1.993 . S
N426 N425 1.388 . S
N426 C427 1.346 . S
C427 N426 1.346 . S
C427 C428 1.396 . S
C427 C437 1.510 . S
C428 C424 1.401 . S
C428 C427 1.396 . S
C429 C424 1.499 . S
C429 H430 0.959 . S
C429 H431 0.960 . S
C429 H432 0.961 . S
H430 C429 0.959 . S
H431 C429 0.960 . S
H432 C429 0.961 . S
O433 Co408 1.967 . S
O433 C441 1.258 . S
O434 Co409 1.941 . S
O434 C441 1.266 . S
H435 C437 0.959 . S
H436 C437 0.961 . S
C437 C427 1.510 . S
C437 H435 0.959 . S
C437 H436 0.961 . S
C437 H438 0.960 . S
H438 C437 0.960 . S
H439 N419 0.862 . S
O440 Co408 1.920 . S
O440 C413 1.289 . S
C441 O433 1.258 . S
C441 O434 1.266 . S
Co442 O445 1.970 . S
Co442 N459 1.989 . S
Co442 O467 1.967 . S
Co442 O474 1.920 . S
Co443 O446 1.966 . S
Co443 N452 2.022 . S
Co443 N460 1.993 . S
Co443 O468 1.941 . S
C444 O445 1.258 . S
C444 O446 1.263 . S
O445 Co442 1.970 . S
O445 C444 1.258 . S
O446 Co443 1.966 . S
O446 C444 1.263 . S
C447 O448 1.235 . S
C447 O474 1.289 . S
O448 C447 1.235 . S
C449 C451 1.400 . S
C449 N452 1.351 . S
C449 C454 1.501 . S
C450 C451 1.387 . S
C450 N453 1.341 . S
C451 C449 1.400 . S
C451 C450 1.387 . S
N452 Co443 2.022 . S
N452 C449 1.351 . S
N452 N453 1.365 . S
N453 C450 1.341 . S
N453 N452 1.365 . S
N453 H473 0.862 . S
C454 C449 1.501 . S
C454 H455 0.961 . S
C454 H456 0.961 . S
C454 H457 0.960 . S
H455 C454 0.961 . S
H456 C454 0.961 . S
H457 C454 0.960 . S
C458 N459 1.342 . S
C458 C462 1.401 . S
C458 C463 1.499 . S
N459 Co442 1.989 . S
N459 C458 1.342 . S
N459 N460 1.388 . S
N460 Co443 1.993 . S
N460 N459 1.388 . S
N460 C461 1.346 . S
C461 N460 1.346 . S
C461 C462 1.396 . S
C461 C471 1.510 . S
C462 C458 1.401 . S
C462 C461 1.396 . S
C463 C458 1.499 . S
C463 H464 0.959 . S
C463 H465 0.960 . S
C463 H466 0.961 . S
H464 C463 0.959 . S
H465 C463 0.960 . S
H466 C463 0.961 . S
O467 Co442 1.967 . S
O467 C475 1.258 . S
O468 Co443 1.941 . S
O468 C475 1.266 . S
H469 C471 0.959 . S
H470 C471 0.961 . S
C471 C461 1.510 . S
C471 H469 0.959 . S
C471 H470 0.961 . S
C471 H472 0.960 . S
H472 C471 0.960 . S
H473 N453 0.862 . S
O474 Co442 1.920 . S
O474 C447 1.289 . S
C475 O467 1.258 . S
C475 O468 1.266 . S
Co476 O479 1.970 . S
Co476 N493 1.989 . S
Co476 O501 1.967 . S
Co476 O508 1.920 . S
Co477 O480 1.966 . S
Co477 N486 2.022 . S
Co477 N494 1.993 . S
Co477 O502 1.941 . S
C478 O479 1.258 . S
C478 O480 1.263 . S
O479 Co476 1.970 . S
O479 C478 1.258 . S
O480 Co477 1.966 . S
O480 C478 1.263 . S
C481 O482 1.235 . S
C481 O508 1.289 . S
O482 C481 1.235 . S
C483 C485 1.400 . S
C483 N486 1.351 . S
C483 C488 1.501 . S
C484 C485 1.387 . S
C484 N487 1.341 . S
C485 C483 1.400 . S
C485 C484 1.387 . S
N486 Co477 2.022 . S
N486 C483 1.351 . S
N486 N487 1.365 . S
N487 C484 1.341 . S
N487 N486 1.365 . S
N487 H507 0.862 . S
C488 C483 1.501 . S
C488 H489 0.961 . S
C488 H490 0.961 . S
C488 H491 0.960 . S
H489 C488 0.961 . S
H490 C488 0.961 . S
H491 C488 0.960 . S
C492 N493 1.342 . S
C492 C496 1.401 . S
C492 C497 1.499 . S
N493 Co476 1.989 . S
N493 C492 1.342 . S
N493 N494 1.388 . S
N494 Co477 1.993 . S
N494 N493 1.388 . S
N494 C495 1.346 . S
C495 N494 1.346 . S
C495 C496 1.396 . S
C495 C505 1.510 . S
C496 C492 1.401 . S
C496 C495 1.396 . S
C497 C492 1.499 . S
C497 H498 0.959 . S
C497 H499 0.960 . S
C497 H500 0.961 . S
H498 C497 0.959 . S
H499 C497 0.960 . S
H500 C497 0.961 . S
O501 Co476 1.967 . S
O501 C509 1.258 . S
O502 Co477 1.941 . S
O502 C509 1.266 . S
H503 C505 0.959 . S
H504 C505 0.961 . S
C505 C495 1.510 . S
C505 H503 0.959 . S
C505 H504 0.961 . S
C505 H506 0.960 . S
H506 C505 0.960 . S
H507 N487 0.862 . S
O508 Co476 1.920 . S
O508 C481 1.289 . S
C509 O501 1.258 . S
C509 O502 1.266 . S
Co510 O513 1.970 . S
Co510 N527 1.989 . S
Co510 O535 1.967 . S
Co510 O542 1.920 . S
Co511 O514 1.966 . S
Co511 N520 2.022 . S
Co511 N528 1.993 . S
Co511 O536 1.941 . S
C512 O513 1.258 . S
C512 O514 1.263 . S
O513 Co510 1.970 . S
O513 C512 1.258 . S
O514 Co511 1.966 . S
O514 C512 1.263 . S
C515 O516 1.235 . S
C515 O542 1.289 . S
O516 C515 1.235 . S
C517 C519 1.400 . S
C517 N520 1.351 . S
C517 C522 1.501 . S
C518 C519 1.387 . S
C518 N521 1.341 . S
C519 C517 1.400 . S
C519 C518 1.387 . S
N520 Co511 2.022 . S
N520 C517 1.351 . S
N520 N521 1.365 . S
N521 C518 1.341 . S
N521 N520 1.365 . S
N521 H541 0.862 . S
C522 C517 1.501 . S
C522 H523 0.961 . S
C522 H524 0.961 . S
C522 H525 0.960 . S
H523 C522 0.961 . S
H524 C522 0.961 . S
H525 C522 0.960 . S
C526 N527 1.342 . S
C526 C530 1.401 . S
C526 C531 1.499 . S
N527 Co510 1.989 . S
N527 C526 1.342 . S
N527 N528 1.388 . S
N528 Co511 1.993 . S
N528 N527 1.388 . S
N528 C529 1.346 . S
C529 N528 1.346 . S
C529 C530 1.396 . S
C529 C539 1.510 . S
C530 C526 1.401 . S
C530 C529 1.396 . S
C531 C526 1.499 . S
C531 H532 0.959 . S
C531 H533 0.960 . S
C531 H534 0.961 . S
H532 C531 0.959 . S
H533 C531 0.960 . S
H534 C531 0.961 . S
O535 Co510 1.967 . S
O535 C543 1.258 . S
O536 Co511 1.941 . S
O536 C543 1.266 . S
H537 C539 0.959 . S
H538 C539 0.961 . S
C539 C529 1.510 . S
C539 H537 0.959 . S
C539 H538 0.961 . S
C539 H540 0.960 . S
H540 C539 0.960 . S
H541 N521 0.862 . S
O542 Co510 1.920 . S
O542 C515 1.289 . S
C543 O535 1.258 . S
C543 O536 1.266 . S
C544 C545 1.369 . S
C544 C546 1.419 . S
C544 H548 0.930 . S
C545 C544 1.369 . S
C545 C554 1.429 . S
C546 C544 1.419 . S
C546 C547 1.363 . S
C546 H549 0.929 . S
C547 C546 1.363 . S
C547 C553 1.428 . S
H548 C544 0.930 . S
H549 C546 0.929 . S
S550 N551 1.613 . S
S550 N552 1.610 . S
N551 S550 1.613 . S
N551 C554 1.350 . S
N552 S550 1.610 . S
N552 C553 1.351 . S
C553 C547 1.428 . S
C553 N552 1.351 . S
C553 C554 1.434 . S
C554 C545 1.429 . S
C554 N551 1.350 . S
C554 C553 1.434 . S
C555 C556 1.369 1_455 S
C555 C557 1.419 1_565 S
C555 H559 0.930 . S
C556 C555 1.369 1_655 S
C556 C565 1.429 . S
C557 C555 1.419 1_545 S
C557 C558 1.363 . S
C557 H560 0.929 . S
C558 C557 1.363 . S
C558 C564 1.428 1_455 S
H559 C555 0.930 . S
H560 C557 0.929 . S
S561 N562 1.613 1_545 S
S561 N563 1.610 . S
N562 S561 1.613 1_565 S
N562 C565 1.350 . S
N563 S561 1.610 . S
N563 C564 1.351 . S
C564 C558 1.428 1_655 S
C564 N563 1.351 . S
C564 C565 1.434 1_545 S
C565 C556 1.429 . S
C565 N562 1.350 . S
C565 C564 1.434 1_565 S
C566 C567 1.369 1_565 S
C566 C568 1.419 . S
C566 H570 0.930 . S
C567 C566 1.369 1_545 S
C567 C576 1.429 . S
C568 C566 1.419 . S
C568 C569 1.363 . S
C568 H571 0.929 . S
C569 C568 1.363 . S
C569 C575 1.428 1_565 S
H570 C566 0.930 . S
H571 C568 0.929 . S
S572 N573 1.613 . S
S572 N574 1.610 . S
N573 S572 1.613 . S
N573 C576 1.350 . S
N574 S572 1.610 . S
N574 C575 1.351 . S
C575 C569 1.428 1_545 S
C575 N574 1.351 . S
C575 C576 1.434 . S
C576 C567 1.429 . S
C576 N573 1.350 . S
C576 C575 1.434 . S
C577 C578 1.369 1_655 S
C577 C579 1.419 . S
C577 H581 0.930 . S
C578 C577 1.369 1_455 S
C578 C587 1.429 . S
C579 C577 1.419 . S
C579 C580 1.363 . S
C579 H582 0.929 . S
C580 C579 1.363 . S
C580 C586 1.428 1_655 S
H581 C577 0.930 . S
H582 C579 0.929 . S
S583 N584 1.613 . S
S583 N585 1.610 . S
N584 S583 1.613 . S
N584 C587 1.350 . S
N585 S583 1.610 . S
N585 C586 1.351 . S
C586 C580 1.428 1_455 S
C586 N585 1.351 . S
C586 C587 1.434 . S
C587 C578 1.429 . S
C587 N584 1.350 . S
C587 C586 1.434 . S
C588 C589 1.369 . S
C588 C590 1.419 . S
C588 H592 0.930 . S
C589 C588 1.369 . S
C589 C598 1.429 . S
C590 C588 1.419 . S
C590 C591 1.363 . S
C590 H593 0.929 . S
C591 C590 1.363 . S
C591 C597 1.428 . S
H592 C588 0.930 . S
H593 C590 0.929 . S
S594 N595 1.613 . S
S594 N596 1.610 . S
N595 S594 1.613 . S
N595 C598 1.350 . S
N596 S594 1.610 . S
N596 C597 1.351 . S
C597 C591 1.428 . S
C597 N596 1.351 . S
C597 C598 1.434 . S
C598 C589 1.429 . S
C598 N595 1.350 . S
C598 C597 1.434 . S
C599 C600 1.369 . S
C599 C601 1.419 . S
C599 H603 0.930 . S
C600 C599 1.369 . S
C600 C609 1.429 1_565 S
C601 C599 1.419 . S
C601 C602 1.363 1_565 S
C601 H604 0.929 . S
C602 C601 1.363 1_545 S
C602 C608 1.428 . S
H603 C599 0.930 . S
H604 C601 0.929 . S
S605 N606 1.613 . S
S605 N607 1.610 . S
N606 S605 1.613 . S
N606 C609 1.350 . S
N607 S605 1.610 . S
N607 C608 1.351 . S
C608 C602 1.428 . S
C608 N607 1.351 . S
C608 C609 1.434 . S
C609 C600 1.429 1_545 S
C609 N606 1.350 . S
C609 C608 1.434 . S
C610 C611 1.369 1_655 S
C610 C612 1.419 . S
C610 H614 0.930 . S
C611 C610 1.369 1_455 S
C611 C620 1.429 . S
C612 C610 1.419 . S
C612 C613 1.363 . S
C612 H615 0.929 . S
C613 C612 1.363 . S
C613 C619 1.428 1_655 S
H614 C610 0.930 . S
H615 C612 0.929 . S
S616 N617 1.613 . S
S616 N618 1.610 . S
N617 S616 1.613 . S
N617 C620 1.350 . S
N618 S616 1.610 . S
N618 C619 1.351 . S
C619 C613 1.428 1_455 S
C619 N618 1.351 . S
C619 C620 1.434 . S
C620 C611 1.429 . S
C620 N617 1.350 . S
C620 C619 1.434 . S
C621 C622 1.369 . S
C621 C623 1.419 . S
C621 H625 0.930 . S
C622 C621 1.369 . S
C622 C631 1.429 1_554 S
C623 C621 1.419 . S
C623 C624 1.363 1_554 S
C623 H626 0.929 . S
C624 C623 1.363 1_556 S
C624 C630 1.428 . S
H625 C621 0.930 . S
H626 C623 0.929 . S
S627 N628 1.613 . S
S627 N629 1.610 . S
N628 S627 1.613 . S
N628 C631 1.350 . S
N629 S627 1.610 . S
N629 C630 1.351 . S
C630 C624 1.428 . S
C630 N629 1.351 . S
C630 C631 1.434 . S
C631 C622 1.429 1_556 S
C631 N628 1.350 . S
C631 C630 1.434 . S
C632 C633 1.369 . S
C632 C634 1.419 1_655 S
C632 H636 0.930 . S
C633 C632 1.369 . S
C633 C642 1.429 1_554 S
C634 C632 1.419 1_455 S
C634 C635 1.363 1_554 S
C634 H637 0.929 . S
C635 C634 1.363 1_556 S
C635 C641 1.428 . S
H636 C632 0.930 . S
H637 C634 0.929 . S
S638 N639 1.613 . S
S638 N640 1.610 . S
N639 S638 1.613 . S
N639 C642 1.350 . S
N640 S638 1.610 . S
N640 C641 1.351 1_655 S
C641 C635 1.428 . S
C641 N640 1.351 1_455 S
C641 C642 1.434 1_455 S
C642 C633 1.429 1_556 S
C642 N639 1.350 . S
C642 C641 1.434 1_655 S
C643 C644 1.369 . S
C643 C645 1.419 . S
C643 H647 0.930 . S
C644 C643 1.369 . S
C644 C653 1.429 . S
C645 C643 1.419 . S
C645 C646 1.363 . S
C645 H648 0.929 . S
C646 C645 1.363 . S
C646 C652 1.428 . S
H647 C643 0.930 . S
H648 C645 0.929 . S
S649 N650 1.613 . S
S649 N651 1.610 . S
N650 S649 1.613 . S
N650 C653 1.350 . S
N651 S649 1.610 . S
N651 C652 1.351 . S
C652 C646 1.428 . S
C652 N651 1.351 . S
C652 C653 1.434 . S
C653 C644 1.429 . S
C653 N650 1.350 . S
C653 C652 1.434 . S
C654 C655 1.369 1_554 S
C654 C656 1.419 . S
C654 H658 0.930 . S
C655 C654 1.369 1_556 S
C655 C664 1.429 . S
C656 C654 1.419 . S
C656 C657 1.363 . S
C656 H659 0.929 . S
C657 C656 1.363 . S
C657 C663 1.428 1_554 S
H658 C654 0.930 . S
H659 C656 0.929 . S
S660 N661 1.613 . S
S660 N662 1.610 . S
N661 S660 1.613 . S
N661 C664 1.350 . S
N662 S660 1.610 . S
N662 C663 1.351 . S
C663 C657 1.428 1_556 S
C663 N662 1.351 . S
C663 C664 1.434 . S
C664 C655 1.429 . S
C664 N661 1.350 . S
C664 C663 1.434 . S
C665 C666 1.369 . S
C665 C667 1.419 . S
C665 H669 0.930 . S
C666 C665 1.369 . S
C666 C675 1.429 . S
C667 C665 1.419 . S
C667 C668 1.363 . S
C667 H670 0.929 . S
C668 C667 1.363 . S
C668 C674 1.428 . S
H669 C665 0.930 . S
H670 C667 0.929 . S
S671 N672 1.613 . S
S671 N673 1.610 . S
N672 S671 1.613 . S
N672 C675 1.350 . S
N673 S671 1.610 . S
N673 C674 1.351 . S
C674 C668 1.428 . S
C674 N673 1.351 . S
C674 C675 1.434 . S
C675 C666 1.429 . S
C675 N672 1.350 . S
C675 C674 1.434 . S
C676 C677 1.369 1_554 S
C676 C678 1.419 1_545 S
C676 H680 0.930 . S
C677 C676 1.369 1_556 S
C677 C686 1.429 . S
C678 C676 1.419 1_565 S
C678 C679 1.363 . S
C678 H681 0.929 . S
C679 C678 1.363 . S
C679 C685 1.428 1_554 S
H680 C676 0.930 . S
H681 C678 0.929 . S
S682 N683 1.613 . S
S682 N684 1.610 1_545 S
N683 S682 1.613 . S
N683 C686 1.350 . S
N684 S682 1.610 1_565 S
N684 C685 1.351 . S
C685 C679 1.428 1_556 S
C685 N684 1.351 . S
C685 C686 1.434 1_565 S
C686 C677 1.429 . S
C686 N683 1.350 . S
C686 C685 1.434 1_545 S
C687 C688 1.369 . S
C687 C689 1.419 . S
C687 H691 0.930 . S
C688 C687 1.369 . S
C688 C697 1.429 . S
C689 C687 1.419 . S
C689 C690 1.363 . S
C689 H692 0.929 . S
C690 C689 1.363 . S
C690 C696 1.428 . S
H691 C687 0.930 . S
H692 C689 0.929 . S
S693 N694 1.613 . S
S693 N695 1.610 . S
N694 S693 1.613 . S
N694 C697 1.350 . S
N695 S693 1.610 . S
N695 C696 1.351 . S
C696 C690 1.428 . S
C696 N695 1.351 . S
C696 C697 1.434 . S
C697 C688 1.429 . S
C697 N694 1.350 . S
C697 C696 1.434 . S
C698 C699 1.369 . S
C698 C700 1.419 . S
C698 H702 0.930 . S
C699 C698 1.369 . S
C699 C708 1.429 . S
C700 C698 1.419 . S
C700 C701 1.363 . S
C700 H703 0.929 . S
C701 C700 1.363 . S
C701 C707 1.428 . S
H702 C698 0.930 . S
H703 C700 0.929 . S
S704 N705 1.613 . S
S704 N706 1.610 . S
N705 S704 1.613 . S
N705 C708 1.350 . S
N706 S704 1.610 . S
N706 C707 1.351 . S
C707 C701 1.428 . S
C707 N706 1.351 . S
C707 C708 1.434 . S
C708 C699 1.429 . S
C708 N705 1.350 . S
C708 C707 1.434 . S
C709 C710 1.369 . S
C709 C711 1.419 . S
C709 H713 0.930 . S
C710 C709 1.369 . S
C710 C719 1.429 . S
C711 C709 1.419 . S
C711 C712 1.363 . S
C711 H714 0.929 . S
C712 C711 1.363 . S
C712 C718 1.428 . S
H713 C709 0.930 . S
H714 C711 0.929 . S
S715 N716 1.613 . S
S715 N717 1.610 . S
N716 S715 1.613 . S
N716 C719 1.350 . S
N717 S715 1.610 . S
N717 C718 1.351 . S
C718 C712 1.428 . S
C718 N717 1.351 . S
C718 C719 1.434 . S
C719 C710 1.429 . S
C719 N716 1.350 . S
C719 C718 1.434 . S
C720 C721 1.369 . S
C720 C722 1.419 . S
C720 H724 0.930 . S
C721 C720 1.369 . S
C721 C730 1.429 . S
C722 C720 1.419 . S
C722 C723 1.363 . S
C722 H725 0.929 . S
C723 C722 1.363 . S
C723 C729 1.428 . S
H724 C720 0.930 . S
H725 C722 0.929 . S
S726 N727 1.613 . S
S726 N728 1.610 . S
N727 S726 1.613 . S
N727 C730 1.350 . S
N728 S726 1.610 . S
N728 C729 1.351 . S
C729 C723 1.428 . S
C729 N728 1.351 . S
C729 C730 1.434 . S
C730 C721 1.429 . S
C730 N727 1.350 . S
C730 C729 1.434 . S
C731 C732 1.369 . S
C731 C733 1.419 . S
C731 H735 0.930 . S
C732 C731 1.369 . S
C732 C741 1.429 . S
C733 C731 1.419 . S
C733 C734 1.363 . S
C733 H736 0.929 . S
C734 C733 1.363 . S
C734 C740 1.428 . S
H735 C731 0.930 . S
H736 C733 0.929 . S
S737 N738 1.613 1_455 S
S737 N739 1.610 . S
N738 S737 1.613 1_655 S
N738 C741 1.350 . S
N739 S737 1.610 . S
N739 C740 1.351 1_455 S
C740 C734 1.428 . S
C740 N739 1.351 1_655 S
C740 C741 1.434 . S
C741 C732 1.429 . S
C741 N738 1.350 . S
C741 C740 1.434 . S
C742 C743 1.369 . S
C742 C744 1.419 . S
C742 H746 0.930 . S
C743 C742 1.369 . S
C743 C752 1.429 . S
C744 C742 1.419 . S
C744 C745 1.363 . S
C744 H747 0.929 . S
C745 C744 1.363 . S
C745 C751 1.428 . S
H746 C742 0.930 . S
H747 C744 0.929 . S
S748 N749 1.613 . S
S748 N750 1.610 . S
N749 S748 1.613 . S
N749 C752 1.350 . S
N750 S748 1.610 . S
N750 C751 1.351 . S
C751 C745 1.428 . S
C751 N750 1.351 . S
C751 C752 1.434 . S
C752 C743 1.429 . S
C752 N749 1.350 . S
C752 C751 1.434 . S
C753 C754 1.369 . S
C753 C755 1.419 . S
C753 H757 0.930 1_655 S
C754 C753 1.369 . S
C754 C763 1.429 . S
C755 C753 1.419 . S
C755 C756 1.363 . S
C755 H758 0.929 . S
C756 C755 1.363 . S
C756 C762 1.428 . S
H757 C753 0.930 1_455 S
H758 C755 0.929 . S
S759 N760 1.613 . S
S759 N761 1.610 . S
N760 S759 1.613 . S
N760 C763 1.350 . S
N761 S759 1.610 . S
N761 C762 1.351 . S
C762 C756 1.428 . S
C762 N761 1.351 . S
C762 C763 1.434 . S
C763 C754 1.429 . S
C763 N760 1.350 . S
C763 C762 1.434 . S
C764 C765 1.369 . S
C764 C766 1.419 . S
C764 H768 0.930 . S
C765 C764 1.369 . S
C765 C774 1.429 . S
C766 C764 1.419 . S
C766 C767 1.363 . S
C766 H769 0.929 . S
C767 C766 1.363 . S
C767 C773 1.428 . S
H768 C764 0.930 . S
H769 C766 0.929 . S
S770 N771 1.613 . S
S770 N772 1.610 . S
N771 S770 1.613 . S
N771 C774 1.350 . S
N772 S770 1.610 . S
N772 C773 1.351 . S
C773 C767 1.428 . S
C773 N772 1.351 . S
C773 C774 1.434 . S
C774 C765 1.429 . S
C774 N771 1.350 . S
C774 C773 1.434 . S
C775 C776 1.369 . S
C775 C777 1.419 . S
C775 H779 0.930 . S
C776 C775 1.369 . S
C776 C785 1.429 . S
C777 C775 1.419 . S
C777 C778 1.363 . S
C777 H780 0.929 . S
C778 C777 1.363 . S
C778 C784 1.428 . S
H779 C775 0.930 . S
H780 C777 0.929 . S
S781 N782 1.613 1_655 S
S781 N783 1.610 . S
N782 S781 1.613 1_455 S
N782 C785 1.350 . S
N783 S781 1.610 . S
N783 C784 1.351 1_655 S
C784 C778 1.428 . S
C784 N783 1.351 1_455 S
C784 C785 1.434 . S
C785 C776 1.429 . S
C785 N782 1.350 . S
C785 C784 1.434 . S
C786 C787 1.369 . S
C786 C788 1.419 . S
C786 H790 0.930 . S
C787 C786 1.369 . S
C787 C796 1.429 . S
C788 C786 1.419 . S
C788 C789 1.363 . S
C788 H791 0.929 . S
C789 C788 1.363 . S
C789 C795 1.428 . S
H790 C786 0.930 . S
H791 C788 0.929 . S
S792 N793 1.613 . S
S792 N794 1.610 . S
N793 S792 1.613 . S
N793 C796 1.350 . S
N794 S792 1.610 . S
N794 C795 1.351 . S
C795 C789 1.428 . S
C795 N794 1.351 . S
C795 C796 1.434 . S
C796 C787 1.429 . S
C796 N793 1.350 . S
C796 C795 1.434 . S
C797 C798 1.369 . S
C797 C799 1.419 . S
C797 H801 0.930 . S
C798 C797 1.369 . S
C798 C807 1.429 . S
C799 C797 1.419 . S
C799 C800 1.363 . S
C799 H802 0.929 . S
C800 C799 1.363 . S
C800 C806 1.428 . S
H801 C797 0.930 . S
H802 C799 0.929 . S
S803 N804 1.613 . S
S803 N805 1.610 1_655 S
N804 S803 1.613 . S
N804 C807 1.350 1_655 S
N805 S803 1.610 1_455 S
N805 C806 1.351 . S
C806 C800 1.428 . S
C806 N805 1.351 . S
C806 C807 1.434 . S
C807 C798 1.429 . S
C807 N804 1.350 1_455 S
C807 C806 1.434 . S
C808 C809 1.369 . S
C808 C810 1.419 . S
C808 H812 0.930 . S
C809 C808 1.369 . S
C809 C818 1.429 . S
C810 C808 1.419 . S
C810 C811 1.363 . S
C810 H813 0.929 . S
C811 C810 1.363 . S
C811 C817 1.428 . S
H812 C808 0.930 . S
H813 C810 0.929 . S
S814 N815 1.613 . S
S814 N816 1.610 . S
N815 S814 1.613 . S
N815 C818 1.350 . S
N816 S814 1.610 . S
N816 C817 1.351 . S
C817 C811 1.428 . S
C817 N816 1.351 . S
C817 C818 1.434 . S
C818 C809 1.429 . S
C818 N815 1.350 . S
C818 C817 1.434 . S
C819 C820 1.369 . S
C819 C821 1.419 . S
C819 H823 0.930 . S
C820 C819 1.369 . S
C820 C829 1.429 . S
C821 C819 1.419 . S
C821 C822 1.363 . S
C821 H824 0.929 . S
C822 C821 1.363 . S
C822 C828 1.428 . S
H823 C819 0.930 . S
H824 C821 0.929 . S
S825 N826 1.613 . S
S825 N827 1.610 . S
N826 S825 1.613 . S
N826 C829 1.350 . S
N827 S825 1.610 . S
N827 C828 1.351 . S
C828 C822 1.428 . S
C828 N827 1.351 . S
C828 C829 1.434 . S
C829 C820 1.429 . S
C829 N826 1.350 . S
C829 C828 1.434 . S
C830 C831 1.369 . S
C830 C832 1.419 . S
C830 H834 0.930 . S
C831 C830 1.369 . S
C831 C840 1.429 . S
C832 C830 1.419 . S
C832 C833 1.363 . S
C832 H835 0.929 . S
C833 C832 1.363 . S
C833 C839 1.428 . S
H834 C830 0.930 . S
H835 C832 0.929 . S
S836 N837 1.613 . S
S836 N838 1.610 . S
N837 S836 1.613 . S
N837 C840 1.350 . S
N838 S836 1.610 . S
N838 C839 1.351 . S
C839 C833 1.428 . S
C839 N838 1.351 . S
C839 C840 1.434 . S
C840 C831 1.429 . S
C840 N837 1.350 . S
C840 C839 1.434 . S
C841 C842 1.369 . S
C841 C843 1.419 . S
C841 H845 0.930 . S
C842 C841 1.369 . S
C842 C851 1.429 . S
C843 C841 1.419 . S
C843 C844 1.363 . S
C843 H846 0.929 . S
C844 C843 1.363 . S
C844 C850 1.428 . S
H845 C841 0.930 . S
H846 C843 0.929 . S
S847 N848 1.613 1_455 S
S847 N849 1.610 . S
N848 S847 1.613 1_655 S
N848 C851 1.350 . S
N849 S847 1.610 . S
N849 C850 1.351 1_455 S
C850 C844 1.428 . S
C850 N849 1.351 1_655 S
C850 C851 1.434 . S
C851 C842 1.429 . S
C851 N848 1.350 . S
C851 C850 1.434 . S
C852 C853 1.369 . S
C852 C854 1.419 . S
C852 H856 0.930 . S
C853 C852 1.369 . S
C853 C862 1.429 . S
C854 C852 1.419 . S
C854 C855 1.363 . S
C854 H857 0.929 . S
C855 C854 1.363 . S
C855 C861 1.428 . S
H856 C852 0.930 . S
H857 C854 0.929 . S
S858 N859 1.613 . S
S858 N860 1.610 . S
N859 S858 1.613 . S
N859 C862 1.350 . S
N860 S858 1.610 . S
N860 C861 1.351 . S
C861 C855 1.428 . S
C861 N860 1.351 . S
C861 C862 1.434 . S
C862 C853 1.429 . S
C862 N859 1.350 . S
C862 C861 1.434 . S
C863 C864 1.369 . S
C863 C865 1.419 . S
C863 H867 0.930 . S
C864 C863 1.369 . S
C864 C873 1.429 . S
C865 C863 1.419 . S
C865 C866 1.363 . S
C865 H868 0.929 . S
C866 C865 1.363 . S
C866 C872 1.428 . S
H867 C863 0.930 . S
H868 C865 0.929 . S
S869 N870 1.613 . S
S869 N871 1.610 . S
N870 S869 1.613 . S
N870 C873 1.350 . S
N871 S869 1.610 . S
N871 C872 1.351 . S
C872 C866 1.428 . S
C872 N871 1.351 . S
C872 C873 1.434 . S
C873 C864 1.429 . S
C873 N870 1.350 . S
C873 C872 1.434 . S
C874 C875 1.369 . S
C874 C876 1.419 . S
C874 H878 0.930 . S
C875 C874 1.369 . S
C875 C884 1.429 . S
C876 C874 1.419 . S
C876 C877 1.363 . S
C876 H879 0.929 . S
C877 C876 1.363 . S
C877 C883 1.428 . S
H878 C874 0.930 . S
H879 C876 0.929 . S
S880 N881 1.613 . S
S880 N882 1.610 . S
N881 S880 1.613 . S
N881 C884 1.350 . S
N882 S880 1.610 . S
N882 C883 1.351 . S
C883 C877 1.428 . S
C883 N882 1.351 . S
C883 C884 1.434 . S
C884 C875 1.429 . S
C884 N881 1.350 . S
C884 C883 1.434 . S
C885 C886 1.369 . S
C885 C887 1.419 . S
C885 H889 0.930 . S
C886 C885 1.369 . S
C886 C895 1.429 . S
C887 C885 1.419 . S
C887 C888 1.363 . S
C887 H890 0.929 . S
C888 C887 1.363 . S
C888 C894 1.428 . S
H889 C885 0.930 . S
H890 C887 0.929 . S
S891 N892 1.613 . S
S891 N893 1.610 . S
N892 S891 1.613 . S
N892 C895 1.350 . S
N893 S891 1.610 . S
N893 C894 1.351 . S
C894 C888 1.428 . S
C894 N893 1.351 . S
C894 C895 1.434 . S
C895 C886 1.429 . S
C895 N892 1.350 . S
C895 C894 1.434 . S
C896 C897 1.369 . S
C896 C898 1.419 . S
C896 H900 0.930 . S
C897 C896 1.369 . S
C897 C906 1.429 . S
C898 C896 1.419 . S
C898 C899 1.363 . S
C898 H901 0.929 . S
C899 C898 1.363 . S
C899 C905 1.428 . S
H900 C896 0.930 . S
H901 C898 0.929 . S
S902 N903 1.613 . S
S902 N904 1.610 . S
N903 S902 1.613 . S
N903 C906 1.350 . S
N904 S902 1.610 . S
N904 C905 1.351 . S
C905 C899 1.428 . S
C905 N904 1.351 . S
C905 C906 1.434 . S
C906 C897 1.429 . S
C906 N903 1.350 . S
C906 C905 1.434 . S
C907 C908 1.369 . S
C907 C909 1.419 . S
C907 H911 0.930 . S
C908 C907 1.369 . S
C908 C917 1.429 . S
C909 C907 1.419 . S
C909 C910 1.363 . S
C909 H912 0.929 . S
C910 C909 1.363 . S
C910 C916 1.428 . S
H911 C907 0.930 . S
H912 C909 0.929 . S
S913 N914 1.613 . S
S913 N915 1.610 . S
N914 S913 1.613 . S
N914 C917 1.350 . S
N915 S913 1.610 . S
N915 C916 1.351 . S
C916 C910 1.428 . S
C916 N915 1.351 . S
C916 C917 1.434 . S
C917 C908 1.429 . S
C917 N914 1.350 . S
C917 C916 1.434 . S
C918 C919 1.369 . S
C918 C920 1.419 . S
C918 H922 0.930 1_455 S
C919 C918 1.369 . S
C919 C928 1.429 . S
C920 C918 1.419 . S
C920 C921 1.363 . S
C920 H923 0.929 . S
C921 C920 1.363 . S
C921 C927 1.428 . S
H922 C918 0.930 1_655 S
H923 C920 0.929 . S
S924 N925 1.613 . S
S924 N926 1.610 . S
N925 S924 1.613 . S
N925 C928 1.350 . S
N926 S924 1.610 . S
N926 C927 1.351 . S
C927 C921 1.428 . S
C927 N926 1.351 . S
C927 C928 1.434 . S
C928 C919 1.429 . S
C928 N925 1.350 . S
C928 C927 1.434 . S
C929 C930 1.369 . S
C929 C931 1.419 . S
C929 H933 0.930 . S
C930 C929 1.369 . S
C930 C939 1.429 . S
C931 C929 1.419 . S
C931 C932 1.363 . S
C931 H934 0.929 . S
C932 C931 1.363 . S
C932 C938 1.428 . S
H933 C929 0.930 . S
H934 C931 0.929 . S
S935 N936 1.613 . S
S935 N937 1.610 . S
N936 S935 1.613 . S
N936 C939 1.350 1_455 S
N937 S935 1.610 . S
N937 C938 1.351 1_455 S
C938 C932 1.428 . S
C938 N937 1.351 1_655 S
C938 C939 1.434 . S
C939 C930 1.429 . S
C939 N936 1.350 1_655 S
C939 C938 1.434 . S
C940 C941 1.369 . S
C940 C942 1.419 . S
C940 H944 0.930 . S
C941 C940 1.369 . S
C941 C950 1.429 . S
C942 C940 1.419 . S
C942 C943 1.363 . S
C942 H945 0.929 . S
C943 C942 1.363 . S
C943 C949 1.428 . S
H944 C940 0.930 . S
H945 C942 0.929 . S
S946 N947 1.613 . S
S946 N948 1.610 . S
N947 S946 1.613 . S
N947 C950 1.350 . S
N948 S946 1.610 . S
N948 C949 1.351 . S
C949 C943 1.428 . S
C949 N948 1.351 . S
C949 C950 1.434 . S
C950 C941 1.429 . S
C950 N947 1.350 . S
C950 C949 1.434 . S
C951 C952 1.369 . S
C951 C953 1.419 . S
C951 H955 0.930 . S
C952 C951 1.369 . S
C952 C961 1.429 . S
C953 C951 1.419 . S
C953 C954 1.363 . S
C953 H956 0.929 . S
C954 C953 1.363 . S
C954 C960 1.428 . S
H955 C951 0.930 . S
H956 C953 0.929 . S
S957 N958 1.613 . S
S957 N959 1.610 . S
N958 S957 1.613 . S
N958 C961 1.350 . S
N959 S957 1.610 . S
N959 C960 1.351 . S
C960 C954 1.428 . S
C960 N959 1.351 . S
C960 C961 1.434 . S
C961 C952 1.429 . S
C961 N958 1.350 . S
C961 C960 1.434 . S
C962 C963 1.369 . S
C962 C964 1.419 . S
C962 H966 0.930 . S
C963 C962 1.369 . S
C963 C972 1.429 . S
C964 C962 1.419 . S
C964 C965 1.363 . S
C964 H967 0.929 . S
C965 C964 1.363 . S
C965 C971 1.428 . S
H966 C962 0.930 . S
H967 C964 0.929 . S
S968 N969 1.613 . S
S968 N970 1.610 . S
N969 S968 1.613 . S
N969 C972 1.350 . S
N970 S968 1.610 . S
N970 C971 1.351 . S
C971 C965 1.428 . S
C971 N970 1.351 . S
C971 C972 1.434 . S
C972 C963 1.429 . S
C972 N969 1.350 . S
C972 C971 1.434 . S
C973 C974 1.369 . S
C973 C975 1.419 . S
C973 H977 0.930 . S
C974 C973 1.369 . S
C974 C983 1.429 . S
C975 C973 1.419 . S
C975 C976 1.363 . S
C975 H978 0.929 . S
C976 C975 1.363 . S
C976 C982 1.428 . S
H977 C973 0.930 . S
H978 C975 0.929 . S
S979 N980 1.613 . S
S979 N981 1.610 . S
N980 S979 1.613 . S
N980 C983 1.350 . S
N981 S979 1.610 . S
N981 C982 1.351 . S
C982 C976 1.428 . S
C982 N981 1.351 . S
C982 C983 1.434 . S
C983 C974 1.429 . S
C983 N980 1.350 . S
C983 C982 1.434 . S
C545 C9 1.457 . S
C547 C485 1.458 . S
C556 C73 1.922 . S
C558 C5 1.925 . S
C567 C39 1.921 . S
C569 C379 1.926 . S
C578 C247 1.465 1_455 S
C580 C43 1.453 1_655 S
C589 C77 1.458 . S
C591 C417 1.458 . S
C600 C107 1.926 . S
C602 C311 1.922 . S
C611 C111 1.460 1_455 S
C613 C179 1.456 1_655 S
C622 C349 1.453 . S
C624 C145 1.462 . S
C633 C209 1.921 . S
C635 C141 1.926 . S
C644 C175 1.927 . S
C646 C515 1.922 . S
C655 C281 1.457 . S
C657 C213 1.459 . S
C666 C447 1.927 . S
C668 C243 1.921 . S
C677 C277 1.922 . S
C679 C345 1.925 . S
C688 C519 1.453 . S
C690 C315 1.461 . S
C699 C383 1.459 . S
C701 C451 1.458 . S
C710 C413 1.920 . S
C712 C481 1.927 . S
C721 C2 1.405 . S
C723 C308 1.408 . S
C732 C339 1.397 . S
C734 C33 1.390 . S
C743 C67 1.394 . S
C745 C305 1.392 . S
C754 C36 1.409 . S
C756 C274 1.406 . S
C765 C376 1.407 . S
C767 C70 1.407 . S
C776 C407 1.396 . S
C778 C101 1.391 . S
C787 C135 1.394 . S
C789 C373 1.391 . S
C798 C104 1.405 . S
C800 C342 1.408 . S
C809 C138 1.408 . S
C811 C444 1.406 . S
C820 C475 1.393 . S
C822 C169 1.393 . S
C831 C203 1.396 . S
C833 C441 1.391 . S
C842 C410 1.409 . S
C844 C172 1.406 . S
C853 C512 1.407 . S
C855 C206 1.407 . S
C864 C237 1.390 . S
C866 C543 1.395 . S
C875 C271 1.391 . S
C877 C509 1.395 . S
C886 C240 1.406 . S
C888 C478 1.408 . S
C897 C54 1.220 . S
C899 C20 1.217 . S
C908 C88 1.217 . S
C910 C122 1.221 . S
C919 C156 1.214 . S
C921 C190 1.222 . S
C930 C224 1.224 . S
C932 C258 1.215 . S
C941 C326 1.221 . S
C943 C292 1.217 . S
C952 C394 1.218 . S
C954 C360 1.220 . S
C963 C428 1.221 . S
C965 C462 1.216 . S
C974 C530 1.223 . S
C976 C496 1.215 . S
