# Generated by pormake.
# Topology vbf, (5)-cn, num edge types: 1
# Building blocks:
#     Node 0, Type 0, BuildingBlock: XOMCOT_clean_sbu_0, # of connection points: 5
#     Node 1, Type 0, BuildingBlock: XOMCOT_clean_sbu_0, # of connection points: 5
#     Node 2, Type 0, BuildingBlock: XOMCOT_clean_sbu_0, # of connection points: 5
#     Node 3, Type 0, BuildingBlock: XOMCOT_clean_sbu_0, # of connection points: 5
#     Node 4, Type 0, BuildingBlock: XOMCOT_clean_sbu_0, # of connection points: 5
#     Node 5, Type 0, BuildingBlock: XOMCOT_clean_sbu_0, # of connection points: 5
#     Node 6, Type 0, BuildingBlock: XOMCOT_clean_sbu_0, # of connection points: 5
#     Node 7, Type 0, BuildingBlock: XOMCOT_clean_sbu_0, # of connection points: 5
#     Node 8, Type 0, BuildingBlock: XOMCOT_clean_sbu_0, # of connection points: 5
#     Node 9, Type 0, BuildingBlock: XOMCOT_clean_sbu_0, # of connection points: 5
#     Node 10, Type 0, BuildingBlock: XOMCOT_clean_sbu_0, # of connection points: 5
#     Node 11, Type 0, BuildingBlock: XOMCOT_clean_sbu_0, # of connection points: 5
#     Node 12, Type 0, BuildingBlock: XOMCOT_clean_sbu_0, # of connection points: 5
#     Node 13, Type 0, BuildingBlock: XOMCOT_clean_sbu_0, # of connection points: 5
#     Node 14, Type 0, BuildingBlock: XOMCOT_clean_sbu_0, # of connection points: 5
#     Node 15, Type 0, BuildingBlock: XOMCOT_clean_sbu_0, # of connection points: 5
#     Edge 16, Type (0, 0), BuildingBlock: OJICUG_clean_linker_0, # of connection points: 2
#     Edge 17, Type (0, 0), BuildingBlock: OJICUG_clean_linker_0, # of connection points: 2
#     Edge 18, Type (0, 0), BuildingBlock: OJICUG_clean_linker_0, # of connection points: 2
#     Edge 19, Type (0, 0), BuildingBlock: OJICUG_clean_linker_0, # of connection points: 2
#     Edge 20, Type (0, 0), BuildingBlock: OJICUG_clean_linker_0, # of connection points: 2
#     Edge 21, Type (0, 0), BuildingBlock: OJICUG_clean_linker_0, # of connection points: 2
#     Edge 22, Type (0, 0), BuildingBlock: OJICUG_clean_linker_0, # of connection points: 2
#     Edge 23, Type (0, 0), BuildingBlock: OJICUG_clean_linker_0, # of connection points: 2
#     Edge 24, Type (0, 0), BuildingBlock: OJICUG_clean_linker_0, # of connection points: 2
#     Edge 25, Type (0, 0), BuildingBlock: OJICUG_clean_linker_0, # of connection points: 2
#     Edge 26, Type (0, 0), BuildingBlock: OJICUG_clean_linker_0, # of connection points: 2
#     Edge 27, Type (0, 0), BuildingBlock: OJICUG_clean_linker_0, # of connection points: 2
#     Edge 28, Type (0, 0), BuildingBlock: OJICUG_clean_linker_0, # of connection points: 2
#     Edge 29, Type (0, 0), BuildingBlock: OJICUG_clean_linker_0, # of connection points: 2
#     Edge 30, Type (0, 0), BuildingBlock: OJICUG_clean_linker_0, # of connection points: 2
#     Edge 31, Type (0, 0), BuildingBlock: OJICUG_clean_linker_0, # of connection points: 2
#     Edge 32, Type (0, 0), BuildingBlock: OJICUG_clean_linker_0, # of connection points: 2
#     Edge 33, Type (0, 0), BuildingBlock: OJICUG_clean_linker_0, # of connection points: 2
#     Edge 34, Type (0, 0), BuildingBlock: OJICUG_clean_linker_0, # of connection points: 2
#     Edge 35, Type (0, 0), BuildingBlock: OJICUG_clean_linker_0, # of connection points: 2
#     Edge 36, Type (0, 0), BuildingBlock: OJICUG_clean_linker_0, # of connection points: 2
#     Edge 37, Type (0, 0), BuildingBlock: OJICUG_clean_linker_0, # of connection points: 2
#     Edge 38, Type (0, 0), BuildingBlock: OJICUG_clean_linker_0, # of connection points: 2
#     Edge 39, Type (0, 0), BuildingBlock: OJICUG_clean_linker_0, # of connection points: 2
#     Edge 40, Type (0, 0), BuildingBlock: OJICUG_clean_linker_0, # of connection points: 2
#     Edge 41, Type (0, 0), BuildingBlock: OJICUG_clean_linker_0, # of connection points: 2
#     Edge 42, Type (0, 0), BuildingBlock: OJICUG_clean_linker_0, # of connection points: 2
#     Edge 43, Type (0, 0), BuildingBlock: OJICUG_clean_linker_0, # of connection points: 2
#     Edge 44, Type (0, 0), BuildingBlock: OJICUG_clean_linker_0, # of connection points: 2
#     Edge 45, Type (0, 0), BuildingBlock: OJICUG_clean_linker_0, # of connection points: 2
#     Edge 46, Type (0, 0), BuildingBlock: OJICUG_clean_linker_0, # of connection points: 2
#     Edge 47, Type (0, 0), BuildingBlock: OJICUG_clean_linker_0, # of connection points: 2
#     Edge 48, Type (0, 0), BuildingBlock: OJICUG_clean_linker_0, # of connection points: 2
#     Edge 49, Type (0, 0), BuildingBlock: OJICUG_clean_linker_0, # of connection points: 2
#     Edge 50, Type (0, 0), BuildingBlock: OJICUG_clean_linker_0, # of connection points: 2
#     Edge 51, Type (0, 0), BuildingBlock: OJICUG_clean_linker_0, # of connection points: 2
#     Edge 52, Type (0, 0), BuildingBlock: OJICUG_clean_linker_0, # of connection points: 2
#     Edge 53, Type (0, 0), BuildingBlock: OJICUG_clean_linker_0, # of connection points: 2
#     Edge 54, Type (0, 0), BuildingBlock: OJICUG_clean_linker_0, # of connection points: 2
#     Edge 55, Type (0, 0), BuildingBlock: OJICUG_clean_linker_0, # of connection points: 2
# Relax obj value: 0.129
# Max RMSD: 0.206
# Mean RMSD: 0.206
data_MOF--net-vbf--node1-XOMCOT_clean_sbu_0--edge1-OJICUG_clean_linker_0
_symmetry_space_group_name_H-M    P1
_symmetry_Int_Tables_number       1
_symmetry_cell_setting            triclinic
loop_
_symmetry_equiv_pos_as_xyz
'x, y, z'
_cell_length_a     33.912586
_cell_length_b     55.512697
_cell_length_c     19.268984
_cell_angle_alpha  90.042247
_cell_angle_beta   90.007047
_cell_angle_gamma 89.959777
loop_
_atom_site_label
_atom_site_type_symbol
_atom_site_fract_x
_atom_site_fract_y
_atom_site_fract_z
_atom_type_partial_charge
Co0 Co 0.10093 0.32307 1.01035 0.0
C1 C 0.16872 0.29126 0.96722 0.0
C2 C 0.14023 0.2785 0.05919 0.0
C3 C 0.171 0.2634 0.04447 0.0
N4 N 0.13803 0.29594 1.01042 0.0
N5 N 0.18913 0.27143 0.98698 0.0
H6 H 0.17696 0.30241 0.92361 0.0
H7 H 0.12141 0.27676 0.10386 0.0
C8 C 0.04895 0.30787 0.12806 0.0
O9 O 0.0188 0.31057 0.08588 0.0
N10 N 0.06461 0.35088 1.01281 0.0
C11 C 0.0562 0.36602 0.9599 0.0
C12 C 0.02827 0.38241 0.98101 0.0
C13 C 0.04351 0.35987 0.06706 0.0
N14 N 0.01982 0.37834 0.04826 0.0
C15 C 0.04661 0.30992 0.90332 0.0
C16 C 0.03709 0.26236 0.94137 0.0
C17 C 0.02376 0.2699 0.87628 0.0
C18 C 0.02716 0.29416 0.85863 0.0
C19 C 0.05531 0.27896 0.98575 0.0
N20 N 0.0614 0.30235 0.96559 0.0
H21 H 0.05268 0.32765 0.88422 0.0
H22 H 0.06604 0.27247 0.03478 0.0
H23 H 0.06922 0.36539 0.90877 0.0
H24 H 0.04493 0.35322 0.11949 0.0
O25 O 0.12379 0.33486 0.92603 0.0
O26 O 0.14507 0.34514 0.03014 0.0
O27 O 0.08375 0.31337 0.10759 0.0
C28 C 0.14865 0.34712 0.96273 0.0
H29 H 0.18093 0.24855 0.07644 0.0
H30 H 0.01497 0.39621 0.94896 0.0
H31 H 0.03504 0.24361 0.95648 0.0
H32 H 0.01795 0.30049 0.80795 0.0
Co33 Co 0.93135 0.70166 0.03104 0.0
C34 C 0.86105 0.73225 0.01894 0.0
C35 C 0.90247 0.74089 0.9391 0.0
C36 C 0.86768 0.75289 0.9255 0.0
N37 N 0.89866 0.72831 0.99882 0.0
N38 N 0.84166 0.74713 0.97548 0.0
H39 H 0.84752 0.72348 0.06306 0.0
H40 H 0.9273 0.73982 0.90415 0.0
C41 C 0.93294 0.73769 0.15136 0.0
O42 O 0.91049 0.75265 0.11665 0.0
N43 N 0.96297 0.67441 0.06269 0.0
C44 C 0.95193 0.65101 0.06378 0.0
C45 C 0.97871 0.63801 0.10195 0.0
C46 C 0.99689 0.67512 0.09996 0.0
N47 N 1.00679 0.65313 0.12486 0.0
C48 C 0.99334 0.70509 0.93343 0.0
C49 C 1.00758 0.75371 0.95199 0.0
C50 C 0.01771 0.74297 0.88864 0.0
C51 C 1.01284 0.71802 0.88158 0.0
C52 C 0.98753 0.74016 1.00215 0.0
N53 N 0.9778 0.71664 0.98969 0.0
H54 H 0.98665 0.68632 0.92437 0.0
H55 H 0.9757 0.74959 0.04604 0.0
H56 H 0.92553 0.64367 0.0408 0.0
H57 H 1.01301 0.69149 0.1112 0.0
O58 O 0.91409 0.68453 0.94981 0.0
O59 O 0.88261 0.68351 0.05025 0.0
O60 O 0.94272 0.71732 0.12517 0.0
C61 C 0.88341 0.67765 0.98451 0.0
H62 H 0.86101 0.76337 0.87962 0.0
H63 H 0.97757 0.61886 0.11254 0.0
H64 H 1.01102 0.77294 0.95954 0.0
H65 H 0.02099 0.70897 0.83385 0.0
Co66 Co 0.18442 0.57897 0.27685 0.0
C67 C 0.10711 0.55313 0.25821 0.0
C68 C 0.15018 0.532 0.31208 0.0
C69 C 0.11584 0.51913 0.30923 0.0
N70 N 0.14509 0.5534 0.28015 0.0
N71 N 0.08852 0.53243 0.27598 0.0
H72 H 0.09294 0.56789 0.23156 0.0
H73 H 0.1767 0.52604 0.33763 0.0
C74 C 0.24228 0.56365 0.38908 0.0
O75 O 0.27216 0.56987 0.34954 0.0
N76 N 0.22363 0.60457 0.27553 0.0
C77 C 0.24146 0.61419 0.21955 0.0
C78 C 0.26978 0.63015 0.24145 0.0
C79 C 0.24001 0.61594 0.33066 0.0
N80 N 0.2695 0.63088 0.31143 0.0
C81 C 0.21589 0.56298 0.1473 0.0
C82 C 0.25345 0.52161 0.1912 0.0
C83 C 0.25067 0.52627 0.12003 0.0
C84 C 0.23237 0.54747 0.09857 0.0
C85 C 0.23621 0.53768 0.23885 0.0
N86 N 0.21737 0.55822 0.21695 0.0
H87 H 0.2004 0.57838 0.12739 0.0
H88 H 0.2366 0.53253 0.29249 0.0
H89 H 0.2351 0.60986 0.16623 0.0
H90 H 0.23225 0.61221 0.38402 0.0
O91 O 0.15603 0.5954 0.20408 0.0
O92 O 0.146 0.60174 0.31576 0.0
O93 O 0.20688 0.56585 0.36696 0.0
C94 C 0.13734 0.60718 0.25169 0.0
H95 H 0.11149 0.50128 0.33034 0.0
H96 H 0.28978 0.64 0.20817 0.0
H97 H 0.26685 0.50509 0.20963 0.0
H98 H 0.22942 0.55164 0.04386 0.0
Co99 Co 0.84451 0.44875 0.24073 0.0
C100 C 0.91051 0.48322 0.25386 0.0
C101 C 0.88156 0.48627 0.1554 0.0
C102 C 0.91395 0.50114 0.15529 0.0
N103 N 0.87931 0.47516 0.21737 0.0
N104 N 0.93244 0.49916 0.21715 0.0
H105 H 0.91784 0.4766 0.30489 0.0
H106 H 0.8622 0.48284 0.1119 0.0
C107 C 0.84777 0.46447 0.39079 0.0
O108 O 0.88012 0.45204 0.40189 0.0
N109 N 0.80945 0.42202 0.26413 0.0
C110 C 0.80388 0.40185 0.22617 0.0
C111 C 0.77587 0.38777 0.25783 0.0
C112 C 0.78459 0.41969 0.3191 0.0
N113 N 0.76389 0.39887 0.31628 0.0
C114 C 0.78514 0.45716 0.13879 0.0
C115 C 0.77586 0.50545 0.17054 0.0
C116 C 0.76362 0.49709 0.10541 0.0
C117 C 0.76611 0.47233 0.09147 0.0
C118 C 0.79451 0.48971 0.21643 0.0
N119 N 0.80124 0.46626 0.19817 0.0
H120 H 0.79053 0.43865 0.12427 0.0
H121 H 0.8077 0.49727 0.26254 0.0
H122 H 0.81832 0.39771 0.17764 0.0
H123 H 0.78039 0.4332 0.35885 0.0
O124 O 0.86327 0.43233 0.15951 0.0
O125 O 0.89096 0.42899 0.26279 0.0
O126 O 0.83146 0.4644 0.33134 0.0
C127 C 0.8917 0.4236 0.19672 0.0
H128 H 0.92424 0.5114 0.1112 0.0
H129 H 0.76449 0.37081 0.23863 0.0
H130 H 0.77402 0.52441 0.18354 0.0
H131 H 0.75699 0.46514 0.04172 0.0
Co132 Co 0.09376 0.82777 0.54349 0.0
C133 C 0.16927 0.80188 0.50669 0.0
C134 C 0.13468 0.7827 0.58131 0.0
C135 C 0.1703 0.7714 0.57549 0.0
N136 N 0.13339 0.80197 0.53825 0.0
N137 N 0.19227 0.78355 0.52939 0.0
H138 H 0.17959 0.81571 0.47167 0.0
H139 H 0.11221 0.77742 0.6178 0.0
C140 C 0.04076 0.80324 0.64647 0.0
O141 O 1.01144 0.80561 0.60241 0.0
N142 N 0.05514 0.85417 0.55376 0.0
C143 C 0.05004 0.873 0.51015 0.0
C144 C 0.02172 0.88817 0.53626 0.0
C145 C 0.03099 0.85929 0.60829 0.0
N146 N 1.00954 0.87951 0.59784 0.0
C147 C 0.04105 0.82055 0.4293 0.0
C148 C 0.03196 0.7713 0.43868 0.0
C149 C 0.01548 0.78326 0.38126 0.0
C150 C 0.01932 0.8084 0.37892 0.0
C151 C 0.05271 0.78439 0.48958 0.0
N152 N 0.05742 0.80888 0.48458 0.0
H153 H 0.04614 0.83937 0.42113 0.0
H154 H 0.06504 0.77453 0.53236 0.0
H155 H 0.06579 0.87585 0.46215 0.0
H156 H 0.02903 0.84885 0.65525 0.0
O157 O 0.11882 0.84478 0.46834 0.0
O158 O 0.13478 0.84948 0.57889 0.0
O159 O 0.07424 0.81283 0.63333 0.0
C160 C 0.14047 0.85561 0.51411 0.0
H161 H 0.18005 0.75598 0.60531 0.0
H162 H 1.01109 0.90451 0.51195 0.0
H163 H 0.0301 0.75192 0.44344 0.0
H164 H 1.00651 0.81887 0.33729 0.0
Co165 Co 0.93962 0.20032 0.51106 0.0
C166 C 0.86947 0.23014 0.46743 0.0
C167 C 0.90069 0.24604 0.55236 0.0
C168 C 0.86883 0.26029 0.53735 0.0
N169 N 0.90183 0.22714 0.50811 0.0
N170 N 0.849 0.25026 0.48431 0.0
H171 H 0.86004 0.2176 0.42785 0.0
H172 H 0.92066 0.24917 0.59484 0.0
C173 C 0.99123 0.21618 0.62893 0.0
O174 O 0.02186 0.21271 0.5883 0.0
N175 N 0.97675 0.17293 0.5161 0.0
C176 C 0.98751 0.15828 0.46336 0.0
C177 C 0.01531 0.14212 0.48642 0.0
C178 C 0.99642 0.16389 0.57198 0.0
N179 N 0.02148 0.14586 0.55464 0.0
C180 C 0.99089 0.21355 0.39955 0.0
C181 C 1.00462 0.26049 0.44018 0.0
C182 C 0.01555 0.25325 0.37345 0.0
C183 C 1.00985 0.22929 0.35418 0.0
C184 C 0.98653 0.24393 0.48486 0.0
N185 N 0.97856 0.22083 0.46378 0.0
H186 H 0.9832 0.19614 0.37975 0.0
H187 H 0.97733 0.25035 0.5349 0.0
H188 H 0.97579 0.15879 0.41132 0.0
H189 H 0.993 0.17029 0.62448 0.0
O190 O 0.91651 0.18694 0.4287 0.0
O191 O 0.89627 0.17833 0.53474 0.0
O192 O 0.95647 0.21138 0.60706 0.0
C193 C 0.89209 0.17525 0.46784 0.0
H194 H 0.85933 0.2759 0.56663 0.0
H195 H 0.02985 0.12858 0.45511 0.0
H196 H 1.00824 0.27905 0.4564 0.0
H197 H 0.01708 0.22326 0.3022 0.0
Co198 Co 0.18616 0.07101 0.76274 0.0
C199 C 0.11169 0.04407 0.75851 0.0
C200 C 0.14991 0.03202 0.67723 0.0
C201 C 0.11434 0.02005 0.67139 0.0
N202 N 0.14867 0.04647 0.73361 0.0
N203 N 0.09055 0.02754 0.72316 0.0
H204 H 0.10061 0.05424 0.8023 0.0
H205 H 0.17437 0.03072 0.64146 0.0
C206 C 0.1808 0.03607 0.88605 0.0
O207 O 0.15832 0.02159 0.84985 0.0
N208 N 0.22275 0.09663 0.79051 0.0
C209 C 0.22523 0.11881 0.76187 0.0
C210 C 0.25398 0.13182 0.79523 0.0
C211 C 0.25056 0.09661 0.84139 0.0
N212 N 0.26963 0.11802 0.84546 0.0
C213 C 0.25093 0.06328 0.67194 0.0
C214 C 0.25958 0.0144 0.69445 0.0
C215 C 0.27827 0.02476 0.63669 0.0
C216 C 0.2753 0.04981 0.62816 0.0
C217 C 0.23576 0.02863 0.73764 0.0
N218 N 0.22997 0.05253 0.7238 0.0
H219 H 0.24679 0.0822 0.6611 0.0
H220 H 0.21939 0.01976 0.77783 0.0
H221 H 0.20795 0.12529 0.71869 0.0
H222 H 0.25745 0.08122 0.87348 0.0
O223 O 0.17177 0.08814 0.6795 0.0
O224 O 0.1412 0.09261 0.77985 0.0
O225 O 0.19396 0.05569 0.85909 0.0
C226 C 0.14288 0.09784 0.71378 0.0
H227 H 0.1067 1.00685 0.63228 0.0
H228 H 0.26328 0.14997 0.78279 0.0
H229 H 0.26082 0.99516 0.70342 0.0
H230 H 0.29009 0.05885 0.58574 0.0
Co231 Co 0.83959 0.95068 0.80237 0.0
C232 C 0.91198 0.97984 0.76926 0.0
C233 C 0.88034 0.99383 0.85656 0.0
C234 C 0.91426 1.00686 0.84902 0.0
N235 N 0.8784 0.97678 0.80662 0.0
N236 N 0.93452 0.99791 0.79482 0.0
H237 H 0.92104 0.96839 0.72676 0.0
H238 H 0.85935 0.9965 0.89776 0.0
C239 C 0.78703 0.96433 0.92142 0.0
O240 O 0.75693 0.96205 0.87893 0.0
N241 N 0.80177 0.92383 0.80083 0.0
C242 C 0.79146 0.91019 0.74573 0.0
C243 C 0.76487 0.89302 0.76632 0.0
C244 C 0.78316 0.91321 0.85526 0.0
N245 N 0.75921 0.89495 0.83543 0.0
C246 C 0.78895 0.96659 0.69336 0.0
C247 C 0.77739 0.01319 0.73884 0.0
C248 C 0.7659 1.00691 0.67146 0.0
C249 C 0.7705 0.98313 0.64995 0.0
C250 C 0.79487 0.99574 0.78184 0.0
N251 N 0.80176 0.9728 0.75821 0.0
H252 H 0.79598 0.94944 0.67131 0.0
H253 H 0.80446 1.00125 0.8326 0.0
H254 H 0.80318 0.91179 0.69387 0.0
H255 H 0.78787 0.91813 0.90876 0.0
O256 O 0.86261 0.93922 0.71786 0.0
O257 O 0.88198 0.92727 0.8216 0.0
O258 O 0.82196 0.95957 0.90007 0.0
C259 C 0.88602 0.92583 0.75417 0.0
H260 H 0.92383 0.02141 0.88245 0.0
H261 H 0.75088 0.88018 0.7321 0.0
H262 H 0.77464 0.03161 0.75683 0.0
H263 H 0.76287 0.97781 0.59749 0.0
Co264 Co 0.59731 0.32502 0.51556 0.0
C265 C 0.66862 0.29658 0.46998 0.0
C266 C 0.63926 0.28043 0.55658 0.0
C267 C 0.67154 0.26669 0.54062 0.0
N268 N 0.63658 0.29908 0.51168 0.0
N269 N 0.69016 0.27685 0.48653 0.0
H270 H 0.677 0.30922 0.42994 0.0
H271 H 0.62 0.2771 0.60002 0.0
C272 C 0.54558 0.30727 0.62968 0.0
O273 O 0.51583 0.31097 0.58723 0.0
N274 N 0.55896 0.35164 0.52269 0.0
C275 C 0.54751 0.36673 0.47153 0.0
C276 C 0.52038 0.38282 0.49721 0.0
C277 C 0.54042 0.36033 0.58026 0.0
N278 N 0.51542 0.3786 0.56551 0.0
C279 C 0.54544 0.3116 0.4044 0.0
C280 C 0.53637 0.26381 0.44011 0.0
C281 C 0.52344 0.27149 0.37479 0.0
C282 C 0.52679 0.2959 0.3583 0.0
C283 C 0.55392 0.28031 0.48572 0.0
N284 N 0.55952 0.3039 0.46709 0.0
H285 H 0.55127 0.32949 0.38633 0.0
H286 H 0.56432 0.27359 0.53469 0.0
H287 H 0.55856 0.3667 0.419 0.0
H288 H 0.54468 0.35351 0.63214 0.0
O289 O 0.61902 0.33918 0.43344 0.0
O290 O 0.63959 0.34805 0.53905 0.0
O291 O 0.58058 0.313 0.61082 0.0
C292 C 0.64262 0.35162 0.4721 0.0
H293 H 0.68213 0.25133 0.56979 0.0
H294 H 0.50548 0.3967 0.4677 0.0
H295 H 0.53423 0.24502 0.45482 0.0
H296 H 0.51793 0.30248 0.30771 0.0
Co297 Co 0.43397 0.70174 0.52656 0.0
C298 C 0.36924 0.73707 0.52231 0.0
C299 C 0.4032 0.73807 0.42852 0.0
C300 C 0.3714 0.75333 0.42121 0.0
N301 N 0.40191 0.72805 0.49216 0.0
N302 N 0.34983 0.75258 0.4801 0.0
H303 H 0.35866 0.73106 0.57233 0.0
H304 H 0.42475 0.73379 0.38904 0.0
C305 C 0.43601 0.71167 0.67911 0.0
O306 O 0.42041 0.69045 0.69142 0.0
N307 N 0.46566 0.67496 0.56213 0.0
C308 C 0.45207 0.65263 0.57659 0.0
C309 C 0.48099 0.63966 0.60945 0.0
C310 C 0.50324 0.67508 0.58658 0.0
N311 N 0.51306 0.65369 0.61584 0.0
C312 C 0.49936 0.70782 0.43558 0.0
C313 C 0.50508 0.75691 0.45916 0.0
C314 C 0.51989 0.74733 0.39741 0.0
C315 C 0.51928 0.72232 0.38767 0.0
C316 C 0.4856 0.74184 0.5057 0.0
N317 N 0.48036 0.71796 0.49077 0.0
H318 H 0.49517 0.68894 0.42396 0.0
H319 H 0.4697 0.75022 0.54772 0.0
H320 H 0.42271 0.64606 0.56624 0.0
H321 H 0.52243 0.69065 0.58543 0.0
O322 O 0.42066 0.68367 0.4451 0.0
O323 O 0.3852 0.68368 0.5416 0.0
O324 O 0.44084 0.71891 0.61698 0.0
C325 C 0.38902 0.67672 0.4771 0.0
H326 H 0.36419 0.76353 0.37512 0.0
H327 H 0.47866 0.62126 0.62763 0.0
H328 H 0.50469 0.7762 0.46767 0.0
H329 H 0.53026 0.71441 0.34002 0.0
Co330 Co 0.69542 0.57623 0.74372 0.0
C331 C 0.61786 0.55214 0.71176 0.0
C332 C 0.66251 0.52721 0.74355 0.0
C333 C 0.62819 0.51469 0.73304 0.0
N334 N 0.65647 0.55076 0.72976 0.0
N335 N 0.6 0.53032 0.71335 0.0
H336 H 0.60256 0.56867 0.69982 0.0
H337 H 0.68928 0.51957 0.76408 0.0
C338 C 0.74293 0.55913 0.86778 0.0
O339 O 0.77511 0.56873 0.84184 0.0
N340 N 0.73424 0.60162 0.75826 0.0
C341 C 0.75805 0.61102 0.70938 0.0
C342 C 0.78202 0.62797 0.73952 0.0
C343 C 0.74326 0.61373 0.81742 0.0
N344 N 0.77313 0.62956 0.80762 0.0
C345 C 0.73374 0.56222 0.61733 0.0
C346 C 0.77646 0.5235 0.66651 0.0
C347 C 0.77616 0.52791 0.59503 0.0
C348 C 0.75519 0.54799 0.57104 0.0
C349 C 0.75466 0.53829 0.71137 0.0
N350 N 0.73305 0.55741 0.68695 0.0
H351 H 0.71699 0.57692 0.59596 0.0
H352 H 0.75357 0.53286 0.7646 0.0
H353 H 0.7585 0.60588 0.65542 0.0
H354 H 0.72916 0.61047 0.86692 0.0
O355 O 0.67192 0.59554 0.67059 0.0
O356 O 0.6546 0.59748 0.78074 0.0
O357 O 0.71054 0.55982 0.83385 0.0
C358 C 0.64974 0.60534 0.7176 0.0
H359 H 0.62369 0.49576 0.74402 0.0
H360 H 0.80535 0.63774 0.71354 0.0
H361 H 0.79165 0.50794 0.68744 0.0
H362 H 0.75453 0.55244 0.51633 0.0
Co363 Co 0.35032 0.45321 0.77252 0.0
C364 C 0.41885 0.48456 0.73163 0.0
C365 C 0.39396 0.49493 0.82935 0.0
C366 C 0.42559 0.50953 0.81611 0.0
N367 N 0.38906 0.47934 0.77612 0.0
N368 N 0.44146 0.50297 0.75498 0.0
H369 H 0.42474 0.47474 0.68425 0.0
H370 H 0.37645 0.49566 0.876 0.0
C371 C 0.29472 0.46951 0.88208 0.0
O372 O 0.26699 0.46651 0.83519 0.0
N373 N 0.31263 0.4261 0.77267 0.0
C374 C 0.30508 0.41066 0.72007 0.0
C375 C 0.27824 0.39369 0.74159 0.0
C376 C 0.29204 0.4168 0.82712 0.0
N377 N 0.26952 0.39771 0.80886 0.0
C378 C 0.29778 0.46716 0.66308 0.0
C379 C 0.29346 0.51546 0.69645 0.0
C380 C 0.27877 0.50767 0.63236 0.0
C381 C 0.27972 0.4831 0.61712 0.0
C382 C 0.31019 0.49871 0.74229 0.0
N383 N 0.31346 0.47486 0.72454 0.0
H384 H 0.3018 0.44899 0.64581 0.0
H385 H 0.32206 0.50526 0.79059 0.0
H386 H 0.3186 0.41116 0.66932 0.0
H387 H 0.29349 0.42353 0.87954 0.0
O388 O 0.37411 0.44108 0.68976 0.0
O389 O 0.39289 0.43007 0.7947 0.0
O390 O 0.33034 0.46352 0.86775 0.0
C391 C 0.39742 0.42812 0.72738 0.0
H392 H 0.43749 0.52299 0.85097 0.0
H393 H 0.26647 0.37926 0.71002 0.0
H394 H 0.29318 0.5344 0.70998 0.0
H395 H 0.26936 0.47646 0.56745 0.0
Co396 Co 0.58922 0.82066 0.03094 0.0
C397 C 0.6584 0.78975 0.99048 0.0
C398 C 0.62704 0.77525 0.07709 0.0
C399 C 0.66003 0.76154 0.06652 0.0
N400 N 0.6255 0.79309 0.02943 0.0
N401 N 0.68008 0.77077 1.01254 0.0
H402 H 0.66734 0.80135 0.94849 0.0
H403 H 0.60664 0.77256 0.11916 0.0
C404 C 0.5386 0.80397 0.14918 0.0
O405 O 0.50738 0.80681 0.10956 0.0
N406 N 0.55395 0.8489 0.03543 0.0
C407 C 0.54781 0.8653 0.98468 0.0
C408 C 0.52069 0.88204 1.0067 0.0
C409 C 0.5321 0.85726 0.08957 0.0
N410 N 0.51051 0.87686 0.07252 0.0
C411 C 0.53299 0.81013 0.92507 0.0
C412 C 0.51823 0.76266 0.95857 0.0
C413 C 0.50362 0.77175 0.89571 0.0
C414 C 0.50993 0.79613 0.88104 0.0
C415 C 0.54072 0.77756 1.00227 0.0
N416 N 0.54863 0.80102 0.98482 0.0
H417 H 0.54031 0.82793 0.90785 0.0
H418 H 0.55242 0.76979 0.04901 0.0
H419 H 0.5618 0.86527 0.93431 0.0
H420 H 0.53164 0.84948 0.14072 0.0
O421 O 0.61277 0.8328 0.94755 0.0
O422 O 0.63378 0.84189 0.05307 0.0
O423 O 0.57259 0.81042 0.12739 0.0
C424 C 0.63799 0.84421 0.98594 0.0
H425 H 0.66986 0.74692 0.09941 0.0
H426 H 0.5092 0.89688 0.97637 0.0
H427 H 0.51419 0.74391 0.97225 0.0
H428 H 0.4988 0.80419 0.83375 0.0
Co429 Co 0.44013 0.19594 1.0153 0.0
C430 C 0.366 0.22163 0.97106 0.0
C431 C 0.40341 0.24353 0.03462 0.0
C432 C 0.37076 0.25674 0.01738 0.0
N433 N 0.40095 0.22149 1.00526 0.0
N434 N 0.34714 0.24302 0.97764 0.0
H435 H 0.35398 0.20642 0.94316 0.0
H436 H 0.4265 0.24961 0.06874 0.0
C437 C 0.49058 0.21272 0.13496 0.0
O438 O 0.52195 0.20575 0.10028 0.0
N439 N 0.4792 0.17042 0.0269 0.0
C440 C 0.50154 0.16025 0.97701 0.0
C441 C 0.52693 0.14405 1.00698 0.0
C442 C 0.49049 0.15939 0.0866 0.0
N443 N 0.52041 0.14366 0.07603 0.0
C444 C 0.48094 0.2102 0.89224 0.0
C445 C 0.50975 0.25388 0.93794 0.0
C446 C 0.51188 0.24829 0.86734 0.0
C447 C 0.49833 0.22591 0.84505 0.0
C448 C 0.49219 0.23749 0.984 0.0
N449 N 0.47711 0.21595 0.96105 0.0
H450 H 0.46829 0.19401 0.87125 0.0
H451 H 0.48867 0.24329 0.03674 0.0
H452 H 0.50012 0.1642 0.92241 0.0
H453 H 0.47785 0.16325 0.13696 0.0
O454 O 0.41749 0.17843 0.93854 0.0
O455 O 0.39877 0.17349 0.04694 0.0
O456 O 0.45622 0.21055 0.10803 0.0
C457 C 0.39493 0.16725 0.98192 0.0
H458 H 0.36374 0.27459 0.03646 0.0
H459 H 0.54948 0.13391 0.97998 0.0
H460 H 0.51929 0.27134 0.95666 0.0
H461 H 0.49892 0.22118 0.79047 0.0
Co462 Co 0.67979 0.07232 0.30308 0.0
C463 C 0.60772 0.04261 0.27175 0.0
C464 C 0.6354 0.03207 0.36672 0.0
C465 C 0.6004 0.01997 0.36111 0.0
N466 N 0.64039 0.04652 0.31094 0.0
N467 N 0.58268 0.02685 0.30197 0.0
H468 H 0.6009 0.0521 0.22442 0.0
H469 H 0.65506 0.03062 0.41035 0.0
C470 C 0.73215 0.05752 0.42056 0.0
O471 O 0.76144 0.05748 0.37589 0.0
N472 N 0.71791 0.09917 0.29885 0.0
C473 C 0.72433 0.11416 0.24471 0.0
C474 C 0.7529 0.13064 0.26221 0.0
C475 C 0.74104 0.1083 0.35025 0.0
N476 N 0.76379 0.12679 0.32851 0.0
C477 C 0.73476 0.05656 0.19996 0.0
C478 C 0.73624 1.00848 0.23608 0.0
C479 C 0.75272 0.0156 0.1727 0.0
C480 C 0.75325 0.04005 0.15629 0.0
C481 C 0.71921 0.02584 0.27994 0.0
N482 N 0.71719 0.04957 0.26054 0.0
H483 H 0.73182 0.0746 0.18112 0.0
H484 H 0.70613 0.01985 0.32779 0.0
H485 H 0.70953 0.11328 0.1951 0.0
H486 H 0.74131 0.102 0.40302 0.0
O487 O 0.65681 0.08231 0.21729 0.0
O488 O 0.63733 0.09604 0.3193 0.0
O489 O 0.69782 0.0645 0.40133 0.0
C490 C 0.63272 0.09584 0.2518 0.0
H491 H 0.58823 1.00766 0.39903 0.0
H492 H 0.76461 0.14449 0.22854 0.0
H493 H 0.7352 0.98962 0.25032 0.0
H494 H 0.76493 0.04616 0.10699 0.0
Co495 Co 0.33875 0.94973 0.26685 0.0
C496 C 0.40403 0.98391 0.26838 0.0
C497 C 0.37482 0.98459 0.16969 0.0
C498 C 0.40832 0.99863 0.16562 0.0
N499 N 0.37226 0.97549 0.23434 0.0
N500 N 0.42678 0.99804 0.22772 0.0
H501 H 0.41186 0.97812 0.32019 0.0
H502 H 0.355 0.98025 0.12751 0.0
C503 C 0.33898 0.96279 0.41727 0.0
O504 O 0.35784 0.94262 0.43037 0.0
N505 N 0.30576 0.92339 0.3017 0.0
C506 C 0.31353 0.89959 0.29545 0.0
C507 C 0.28816 0.88677 0.33685 0.0
C508 C 0.27485 0.92453 0.3465 0.0
N509 N 0.26402 0.90236 0.36916 0.0
C510 C 0.27317 0.95359 0.17514 0.0
C511 C 0.26461 1.00302 0.18771 0.0
C512 C 0.24601 0.99125 0.13219 0.0
C513 C 0.24922 0.96603 0.12812 0.0
C514 C 0.28799 0.98985 0.23409 0.0
N515 N 0.29347 0.96563 0.22535 0.0
H516 H 0.27787 0.93448 0.16795 0.0
H517 H 0.30456 0.99954 0.273 0.0
H518 H 0.33675 0.8917 0.26467 0.0
H519 H 0.26165 0.94117 0.36433 0.0
O520 O 0.35454 0.93109 0.18756 0.0
O521 O 0.38679 0.93126 0.28728 0.0
O522 O 0.32966 0.96811 0.35509 0.0
C523 C 0.38529 0.92429 0.22246 0.0
H524 H 0.41895 1.00776 0.1197 0.0
H525 H 0.28754 0.86739 0.34307 0.0
H526 H 0.26256 0.02239 0.19349 0.0
H527 H 0.23562 0.95612 0.08604 0.0
C528 C 0.2114 0.37252 0.96094 0.0
C529 C 0.17979 0.36129 0.9264 0.0
H530 H 0.2652 0.39283 0.95069 0.0
C531 C 0.17833 0.36269 0.85352 0.0
H532 H 0.21351 0.37172 0.01696 0.0
C533 C 0.2076 0.37451 0.81596 0.0
C534 C 0.23962 0.38547 0.84961 0.0
H535 H 0.1544 0.3545 0.8247 0.0
H536 H 0.2047 0.37527 0.7601 0.0
C537 C 0.241 0.38458 0.92287 0.0
C538 C 0.84073 0.67626 0.88082 0.0
C539 C 0.84983 0.66684 0.94647 0.0
H540 H 0.80819 0.67238 0.78669 0.0
C541 C 0.82923 0.64646 0.97004 0.0
H542 H 0.8556 0.69223 0.86182 0.0
C543 C 0.80205 0.63474 0.92599 0.0
C544 C 0.79499 0.64345 0.85828 0.0
H545 H 0.83577 0.63885 0.02049 0.0
H546 H 0.78832 0.61821 0.94335 0.0
C547 C 0.81357 0.66486 0.83765 0.0
C548 C 0.07861 0.65062 0.14261 0.0
C549 C 0.04024 0.64626 0.16644 0.0
H550 H 0.13985 0.64134 0.15151 0.0
C551 C 0.03493 0.63189 0.22588 0.0
H552 H 0.0833 0.66137 0.09646 0.0
C553 C 0.06727 0.62101 0.25872 0.0
C554 C 0.1053 0.62378 0.23129 0.0
H555 H 1.00548 0.62819 0.24479 0.0
H556 H 0.06215 0.60889 0.30183 0.0
C557 C 0.11081 0.63917 0.17409 0.0
C558 C 0.98983 0.39181 0.16037 0.0
C559 C 0.98793 0.38905 0.08765 0.0
H560 H 0.96102 0.40506 0.2527 0.0
C561 C 0.95354 0.39648 0.05324 0.0
H562 H 0.01589 0.38619 0.18847 0.0
C563 C 0.9223 0.40681 0.08966 0.0
C564 C 0.92434 0.41031 0.1619 0.0
H565 H 0.9505 0.3941 0.99775 0.0
H566 H 0.8966 0.41241 0.06043 0.0
C567 C 0.9584 0.40253 0.19716 0.0
C568 C 0.16323 0.88884 0.43672 0.0
C569 C 0.17166 0.87237 0.49029 0.0
H570 H 0.18651 0.91212 0.35743 0.0
C571 C 0.21108 0.86883 0.50989 0.0
H572 H 0.13309 0.89164 0.41995 0.0
C573 C 0.24158 0.88009 0.47277 0.0
C574 C 0.23317 0.89557 0.41677 0.0
H575 H 0.21846 0.85588 0.54986 0.0
H576 H 0.27189 0.87574 0.48526 0.0
C577 C 0.19368 0.90061 0.401 0.0
C578 C 0.82796 0.15159 0.47297 0.0
C579 C 0.8596 0.16128 0.43497 0.0
H580 H 0.7722 0.13314 0.46889 0.0
C581 C 0.85919 0.15896 0.36225 0.0
H582 H 0.82723 0.15319 0.52896 0.0
C583 C 0.8279 0.1478 0.32813 0.0
C584 C 0.79583 0.13842 0.36537 0.0
H585 H 0.88306 0.16605 0.33099 0.0
H586 H 0.82914 0.14631 0.27218 0.0
C587 C 0.79642 0.14016 0.43847 0.0
C588 C 0.08724 0.12707 0.56559 0.0
C589 C 0.05198 0.13481 0.5968 0.0
H590 H 0.14321 0.1101 0.57774 0.0
C591 C 0.04768 0.1317 0.66906 0.0
H592 H 0.09217 0.12968 0.51063 0.0
C593 C 0.07747 0.12029 0.70834 0.0
C594 C 0.11229 0.1121 0.67619 0.0
H595 H 0.02096 0.13749 0.69483 0.0
H596 H 0.07289 0.11747 0.76334 0.0
C597 C 0.11684 0.116 0.60453 0.0
C598 C 0.94857 0.90024 0.75147 0.0
C599 C 0.91675 0.91148 0.71746 0.0
H600 H 1.00353 0.881 0.73962 0.0
C601 C 0.91526 0.91052 0.64451 0.0
H602 H 0.95062 0.90067 0.80754 0.0
C603 C 0.94525 0.89969 0.60633 0.0
C604 C 0.97777 0.88919 0.63947 0.0
H605 H 0.89111 0.91866 0.61614 0.0
H606 H 0.94305 0.89964 0.55027 0.0
C607 C 0.9788 0.88903 0.71267 0.0
C608 C 0.73655 0.38724 0.43161 0.0
C609 C 0.73179 0.39093 0.35974 0.0
H610 H 0.71196 0.37169 0.52485 0.0
C611 C 0.69623 0.38412 0.32854 0.0
H612 H 0.76393 0.39224 0.45665 0.0
C613 C 0.6668 0.37279 0.36691 0.0
C614 C 0.67211 0.36754 0.43778 0.0
H615 H 0.69178 0.38692 0.27346 0.0
H616 H 0.64028 0.36727 0.33989 0.0
C617 C 0.70689 0.37551 0.47048 0.0
C618 C 0.33768 0.6448 0.32991 0.0
C619 C 0.2992 0.64169 0.35528 0.0
H620 H 0.39586 0.65765 0.34864 0.0
C621 C 0.29092 0.64875 0.42403 0.0
H622 H 0.34559 0.63895 0.27819 0.0
C623 C 0.32028 0.65947 0.46536 0.0
C624 C 0.35841 0.66312 0.43866 0.0
H625 H 0.2616 0.64649 0.44521 0.0
H626 H 0.31291 0.66543 0.5173 0.0
C627 C 0.36677 0.65532 0.37088 0.0
C628 C 0.54907 0.63478 0.71254 0.0
C629 C 0.54957 0.64622 0.64745 0.0
H630 H 0.5807 0.61341 0.78675 0.0
C631 C 0.58485 0.6466 0.6095 0.0
H632 H 0.52204 0.63413 0.74239 0.0
C633 C 0.61822 0.63427 0.63403 0.0
C634 C 0.61712 0.62182 0.69771 0.0
H635 H 0.58574 0.65501 0.55883 0.0
H636 H 0.64441 0.63368 0.6019 0.0
C637 C 0.58263 0.62297 0.73787 0.0
C638 C 0.49149 0.39308 0.68152 0.0
C639 C 0.48566 0.3894 0.60968 0.0
H640 H 0.46818 0.40834 0.7764 0.0
C641 C 0.44964 0.39654 0.58048 0.0
H642 H 0.51888 0.38762 0.70569 0.0
C643 C 0.42097 0.40792 0.62043 0.0
C644 C 0.42712 0.41278 0.69129 0.0
H645 H 0.44351 0.39337 0.52611 0.0
H646 H 0.39395 0.41338 0.59484 0.0
C647 C 0.46245 0.40481 0.72206 0.0
C648 C 0.69124 0.87632 0.98235 0.0
C649 C 0.67155 0.8567 0.95213 0.0
H650 H 0.73406 0.90435 0.96863 0.0
C651 C 0.68316 0.84902 0.88574 0.0
H652 H 0.6829 0.88265 0.03347 0.0
C653 C 0.71292 0.86081 0.84951 0.0
C654 C 0.73157 0.88126 0.87739 0.0
H655 H 0.66901 0.83375 0.86107 0.0
H656 H 0.72064 0.85391 0.79889 0.0
C657 C 0.72072 0.88866 0.94504 0.0
C658 C 0.32894 0.14575 0.98938 0.0
C659 C 0.36485 0.15007 0.95494 0.0
H660 H 0.2698 0.13165 0.9807 0.0
C661 C 0.37022 0.14021 0.88824 0.0
H662 H 0.32371 0.15331 0.0404 0.0
C663 C 0.33975 0.12787 0.8548 0.0
C664 C 0.30311 0.12485 0.8871 0.0
H665 H 0.3975 0.14309 0.86019 0.0
H666 H 0.34394 0.12186 0.80182 0.0
C667 C 0.29818 0.13332 0.95545 0.0
C668 C 0.58039 0.12854 0.23601 0.0
C669 C 0.59984 0.10757 0.21335 0.0
H670 H 0.53949 0.15687 0.20918 0.0
C671 C 0.5892 0.09768 0.14874 0.0
H672 H 0.58787 0.13657 0.28552 0.0
C673 C 0.5615 0.10882 0.10637 0.0
C674 C 0.54375 0.13054 0.12624 0.0
H675 H 0.60295 0.08135 0.12965 0.0
H676 H 0.55479 0.10071 0.05666 0.0
C677 C 0.5526 0.14005 0.19249 0.0
C678 C 0.48135 0.8905 0.18487 0.0
C679 C 0.47931 0.88814 0.11211 0.0
H680 H 0.45341 0.90407 0.27758 0.0
C681 C 0.4457 0.8968 0.07773 0.0
H682 H 0.50691 0.88398 0.21279 0.0
C683 C 0.4152 0.9078 0.11441 0.0
C684 C 0.41736 0.9108 0.18682 0.0
H685 H 0.44277 0.89485 0.02207 0.0
H686 H 0.39004 0.91435 0.08535 0.0
C687 C 0.45077 0.90197 0.2219 0.0
C688 C 0.9957 0.2832 0.28491 0.0
C689 C 0.02604 0.27096 0.31952 0.0
H690 H 0.97924 0.30452 0.19725 0.0
C691 C 0.06489 0.27306 0.2953 0.0
H692 H 0.96547 0.28159 0.30253 0.0
C693 C 0.07302 0.28654 0.23547 0.0
C694 C 0.04217 0.29739 0.19781 0.0
H695 H 0.08862 0.26356 0.32114 0.0
H696 H 0.1031 0.28741 0.217 0.0
C697 C 1.00362 0.29617 0.22446 0.0
C698 C 0.97494 0.74835 0.33232 0.0
C699 C 0.99593 0.77006 0.32237 0.0
H700 H 0.93886 0.7207 0.28564 0.0
C701 C 0.99769 0.77959 0.25463 0.0
H702 H 0.97271 0.74036 0.38337 0.0
C703 C 0.97736 0.7688 0.19995 0.0
C704 C 0.95575 0.74761 0.21025 0.0
H705 H 1.01478 0.79555 0.24322 0.0
H706 H 0.97865 0.7771 0.14911 0.0
C707 C 0.95537 0.73709 0.27652 0.0
C708 C 0.28637 0.55415 0.48999 0.0
C709 C 0.24977 0.55162 0.45648 0.0
H710 H 0.32369 0.54263 0.57365 0.0
C711 C 0.22116 0.53644 0.48615 0.0
H712 H 0.30888 0.56585 0.46874 0.0
C713 C 0.22988 0.52293 0.5455 0.0
C714 C 0.26693 0.52488 0.5775 0.0
H715 H 0.19261 0.53416 0.46188 0.0
H716 H 0.20811 0.51043 0.56532 0.0
C717 C 0.29472 0.54107 0.55033 0.0
C718 C 0.83184 0.50023 0.55773 0.0
C719 C 0.7948 0.51088 0.5449 0.0
H720 H 0.87795 0.47718 0.51915 0.0
C721 C 0.77501 0.50504 0.48311 0.0
H722 H 0.84785 0.50433 0.60491 0.0
C723 C 0.79209 0.48967 0.43449 0.0
C724 C 0.82955 0.47951 0.44601 0.0
H725 H 0.746 0.5123 0.47224 0.0
H726 H 0.77577 0.48585 0.38742 0.0
C727 C 0.84909 0.4847 0.50865 0.0
C728 C 1.00113 0.75559 0.76811 0.0
C729 C 0.02557 0.75807 0.82656 0.0
H730 H 0.98634 0.76811 0.66652 0.0
C731 C 0.055 0.77588 0.82615 0.0
H732 H 0.97772 0.74231 0.76751 0.0
C733 C 0.06029 0.79061 0.76757 0.0
C734 C 0.03543 0.78822 0.70941 0.0
H735 H 0.07396 0.7783 0.87084 0.0
H736 H 0.08346 0.80402 0.76811 0.0
C737 C 1.00578 0.77058 0.71057 0.0
C738 C 0.04228 0.2383 0.79127 0.0
C739 C 1.01273 0.25244 0.82191 0.0
H740 H 0.05863 0.21583 0.70568 0.0
C741 C 0.97481 0.25259 0.79286 0.0
H742 H 0.07187 0.23819 0.81249 0.0
C743 C 0.96693 0.23942 0.73241 0.0
C744 C 0.9973 0.22667 0.69876 0.0
H745 H 0.95174 0.26358 0.81551 0.0
H746 H 0.93765 0.24029 0.71027 0.0
C747 C 0.03474 0.2257 0.72991 0.0
C748 C 0.22807 0.03701 0.98781 0.0
C749 C 0.19465 0.02731 0.95494 0.0
H750 H 0.27068 0.03317 0.06945 0.0
C751 C 0.17604 1.00726 0.98547 0.0
H752 H 0.24317 0.05238 0.96588 0.0
C753 C 0.19163 0.99631 0.0447 0.0
C754 C 0.2263 1.00509 0.07543 0.0
H755 H 0.14988 0.99946 0.96235 0.0
H756 H 0.17701 0.98055 0.06549 0.0
C757 C 0.24375 0.026 0.04742 0.0
C758 C 0.81065 0.98488 0.0303 0.0
C759 C 0.7802 0.97364 0.99269 0.0
H760 H 0.82565 1.00733 0.11734 0.0
C761 C 0.74204 0.97328 0.02131 0.0
H762 H 0.84046 0.98522 1.01037 0.0
C763 C 0.73398 0.98518 0.08377 0.0
C764 C 0.76375 0.99801 0.11827 0.0
H765 H 0.718 0.96456 0.99412 0.0
H766 H 0.7039 0.98573 0.10265 0.0
C767 C 0.80233 0.99734 0.09189 0.0
C768 C 0.5691 0.28563 0.73729 0.0
C769 C 0.53812 0.29518 0.69705 0.0
H770 H 0.58503 0.26312 0.82395 0.0
C771 C 0.49906 0.29136 0.71885 0.0
H772 H 0.59951 0.28831 0.72206 0.0
C773 C 0.491 0.27722 0.77692 0.0
C774 C 0.52175 0.26664 0.81474 0.0
H775 H 0.47446 0.29858 0.68964 0.0
H776 H 0.46056 0.2737 0.79073 0.0
C777 C 0.56093 0.27133 0.79565 0.0
C778 C 0.45957 0.73695 0.85887 0.0
C779 C 0.48562 0.75582 0.84193 0.0
H780 H 0.42301 0.70812 0.82069 0.0
C781 C 0.49528 0.75947 0.77182 0.0
H782 H 0.45159 0.73359 0.9124 0.0
C783 C 0.47875 0.74527 0.71997 0.0
C784 C 0.45227 0.72666 0.73621 0.0
H785 H 0.51626 0.77319 0.75663 0.0
H786 H 0.48751 0.74872 0.66694 0.0
C787 C 0.44308 0.72245 0.8064 0.0
C788 C 0.78128 0.53357 0.03649 0.0
C789 C 0.75507 0.5144 0.04871 0.0
H790 H 0.79803 0.56259 0.96969 0.0
C791 C 0.72343 0.51084 1.00278 0.0
H792 H 0.80636 0.53653 0.07028 0.0
C793 C 0.71851 0.52594 0.94519 0.0
C794 C 0.74566 0.54453 0.93176 0.0
H795 H 0.7029 0.49616 1.01088 0.0
H796 H 0.69428 0.52252 0.90991 0.0
C797 C 0.77676 0.54836 0.97849 0.0
C798 C 0.23363 0.49977 0.02083 0.0
C799 C 0.26241 0.50838 0.06681 0.0
H800 H 0.22118 0.48051 0.92776 0.0
C801 C 0.30202 0.50194 0.05615 0.0
H802 H 0.20286 0.50439 0.02828 0.0
C803 C 0.31282 0.48825 0.99768 0.0
C804 C 0.28407 0.48084 0.94938 0.0
H805 H 0.32471 0.50847 0.09096 0.0
H806 H 0.3437 0.48434 0.98893 0.0
C807 C 0.24426 0.48613 0.9631 0.0
C808 C 0.56368 0.76888 0.31266 0.0
C809 C 0.52595 0.7634 0.33754 0.0
H810 H 0.59748 0.78703 0.23472 0.0
C811 C 0.49273 0.77269 0.3034 0.0
H812 H 0.58961 0.76193 0.33868 0.0
C813 C 0.49698 0.78654 0.24352 0.0
C814 C 0.53463 0.79163 0.21699 0.0
H815 H 0.46333 0.76866 0.32212 0.0
H816 H 0.47067 0.79285 0.21732 0.0
C817 C 0.56802 0.7832 0.25325 0.0
C818 C 0.4768 0.25756 0.28168 0.0
C819 C 0.51149 0.25405 0.32029 0.0
H820 H 0.4423 0.24673 0.19376 0.0
C821 C 0.53738 0.23546 0.30094 0.0
H822 H 0.45644 0.27183 0.29547 0.0
C823 C 0.52986 0.22154 0.24186 0.0
C824 C 0.49589 0.22559 0.20171 0.0
H825 H 0.56453 0.23255 0.32935 0.0
H826 H 0.55115 0.20796 0.22665 0.0
C827 C 0.46877 0.24321 0.22348 0.0
C828 C 0.71681 0.02868 0.59721 0.0
C829 C 0.75597 0.02512 0.61845 0.0
H830 H 0.67822 0.04277 0.51896 0.0
C831 C 0.78663 0.03501 0.57889 0.0
H832 H 0.69278 0.02087 0.62658 0.0
C833 C 0.77854 0.04676 0.51643 0.0
C834 C 0.73954 0.04906 0.49248 0.0
H835 H 0.81707 0.03215 0.5939 0.0
H836 H 0.80307 0.05306 0.48537 0.0
C837 C 0.7086 0.04095 0.53521 0.0
C838 C 0.31745 0.98813 0.59765 0.0
C839 C 0.29675 1.00943 0.58157 0.0
H840 H 0.34733 0.95673 0.55878 0.0
C841 C 0.29147 0.01541 0.51122 0.0
H842 H 0.32231 0.98298 0.65116 0.0
C843 C 0.30589 1.00051 0.45863 0.0
C844 C 0.32597 0.97902 0.47443 0.0
H845 H 0.27496 0.03129 0.49634 0.0
H846 H 0.30055 1.00571 0.4053 0.0
C847 C 0.33196 0.97311 0.54467 0.0
C848 C 0.29646 0.27305 0.94709 0.0
C849 C 0.30701 0.24895 0.96014 0.0
H850 H 0.24995 0.29919 0.94435 0.0
C851 C 0.27707 0.23171 0.96757 0.0
H852 H 0.31903 0.28663 0.94026 0.0
C853 C 0.23758 0.23891 0.96988 0.0
C854 C 0.22735 0.2634 0.9642 0.0
H855 H 0.28427 0.21304 0.97773 0.0
H856 H 0.21517 0.22558 0.98106 0.0
C857 C 0.25693 0.28022 0.94881 0.0
C858 C 0.78638 0.77564 0.95948 0.0
C859 C 0.80024 0.75261 0.97713 0.0
H860 H 0.73694 0.79971 0.95742 0.0
C861 C 0.77319 0.73502 0.99862 0.0
H862 H 0.80676 0.78944 0.94248 0.0
C863 C 0.73338 0.74068 1.00604 0.0
C864 C 0.71967 0.76414 0.99295 0.0
H865 H 0.78296 0.71691 1.01049 0.0
H866 H 0.71343 0.72679 0.0239 0.0
C867 C 0.74641 0.78143 0.96763 0.0
C868 C 0.02595 0.53582 0.2098 0.0
C869 C 0.04794 0.52567 0.2642 0.0
H870 H 0.97188 0.53589 0.15308 0.0
C871 C 0.03001 0.50804 0.30602 0.0
H872 H 0.03866 0.5495 0.1767 0.0
C873 C 0.992 0.49986 0.29183 0.0
C874 C 0.97044 0.5092 0.23563 0.0
H875 H 0.04545 0.50026 0.34971 0.0
H876 H 0.98027 0.48571 0.32422 0.0
C877 C 0.98764 0.52775 0.19583 0.0
C878 C 0.29686 0.76532 0.56032 0.0
C879 C 0.3116 0.76338 0.4924 0.0
H880 H 0.24744 0.77355 0.62502 0.0
C881 C 0.28734 0.77091 0.43689 0.0
H882 H 0.31481 0.76044 0.60454 0.0
C883 C 0.24866 0.77888 0.44904 0.0
C884 C 0.23347 0.7792 0.51666 0.0
H885 H 0.29744 0.76971 0.3838 0.0
H886 H 0.22998 0.78357 0.40551 0.0
C887 C 0.25829 0.77298 0.57219 0.0
C888 C 0.79874 0.28142 0.46211 0.0
C889 C 0.80959 0.25695 0.46419 0.0
H890 H 0.7514 0.30706 0.46593 0.0
C891 C 0.78002 0.23936 0.45933 0.0
H892 H 0.82108 0.29529 0.46551 0.0
C893 C 0.74026 0.24609 0.46021 0.0
C894 C 0.72942 0.2705 0.46484 0.0
H895 H 0.7875 0.22041 0.4613 0.0
H896 H 0.71791 0.23219 0.46233 0.0
C897 C 0.75896 0.28815 0.46189 0.0
C898 C 0.03828 0.0203 0.80927 0.0
C899 C 0.05147 0.01918 0.74029 0.0
H900 H 0.99149 0.01403 0.8806 0.0
C901 C 0.02592 1.00989 0.68925 0.0
H902 H 0.05748 0.02658 0.85031 0.0
C903 C 0.98759 1.00253 0.70689 0.0
C904 C 0.97424 1.00441 0.77577 0.0
H905 H 0.03521 1.00881 0.63562 0.0
H906 H 0.96816 0.99592 0.6666 0.0
C907 C 1.00029 0.01305 0.8267 0.0
C908 C 0.49112 0.53507 0.74187 0.0
C909 C 0.479 0.51123 0.72932 0.0
H910 H 0.53916 0.55998 0.74628 0.0
C911 C 0.50619 0.4949 0.70089 0.0
H912 H 0.47059 0.54811 0.76298 0.0
C913 C 0.54553 0.50171 0.69119 0.0
C914 C 0.5584 0.525 0.70935 0.0
H915 H 0.49776 0.47642 0.69084 0.0
H916 H 0.56634 0.4884 0.6726 0.0
C917 C 0.53036 0.54193 0.73181 0.0
C918 C 0.47567 1.01092 0.31502 0.0
C919 C 0.46526 1.0074 0.24518 0.0
H920 H 0.52086 0.01999 0.38753 0.0
C921 C 0.4938 1.01189 0.19358 0.0
H922 H 0.45431 1.0083 0.35604 0.0
C923 C 0.53218 0.01885 0.21185 0.0
C924 C 0.5428 0.02121 0.28196 0.0
H925 H 0.48699 1.00926 0.13927 0.0
H926 H 0.55389 0.02159 0.17143 0.0
C927 C 0.5139 0.01761 0.33314 0.0
loop_
_geom_bond_atom_site_label_1
_geom_bond_atom_site_label_2
_geom_bond_distance
_geom_bond_site_symmetry_2
_ccdc_geom_bond_type
Co0 N4 2.148 . S
Co0 N10 2.128 . S
Co0 N20 2.194 1_554 S
Co0 O25 2.351 1_554 S
Co0 O26 2.155 . S
Co0 O27 2.096 . S
C1 N4 1.301 1_556 S
C1 N5 1.328 . S
C1 H6 0.930 . S
C2 C3 1.333 . S
C2 N4 1.317 . S
C2 H7 0.930 . S
C3 C2 1.333 . S
C3 N5 1.350 1_554 S
C3 H29 0.931 . S
N4 Co0 2.148 . S
N4 C1 1.301 1_554 S
N4 C2 1.317 . S
N5 C1 1.328 . S
N5 C3 1.350 1_556 S
H6 C1 0.930 . S
H7 C2 0.930 . S
C8 O9 1.224 . S
C8 O27 1.247 . S
O9 C8 1.224 . S
N10 Co0 2.128 . S
N10 C11 1.355 1_554 S
N10 C13 1.311 . S
C11 N10 1.355 1_556 S
C11 C12 1.363 1_455 S
C11 H23 0.929 . S
C12 C11 1.363 1_655 S
C12 N14 1.375 1_556 S
C12 H30 0.931 . S
C13 N10 1.311 . S
C13 N14 1.347 1_455 S
C13 H24 0.929 . S
N14 C12 1.375 1_554 S
N14 C13 1.347 1_655 S
C15 C18 1.365 . S
C15 N20 1.328 . S
C15 H21 0.929 . S
C16 C17 1.362 . S
C16 C19 1.378 . S
C16 H31 0.929 1_455 S
C17 C16 1.362 . S
C17 C18 1.366 . S
C18 C15 1.365 . S
C18 C17 1.366 . S
C18 H32 0.930 . S
C19 C16 1.378 . S
C19 N20 1.315 . S
C19 H22 0.930 . S
N20 Co0 2.194 1_556 S
N20 C15 1.328 . S
N20 C19 1.315 . S
H21 C15 0.929 . S
H22 C19 0.930 . S
H23 C11 0.929 . S
H24 C13 0.929 . S
O25 Co0 2.351 1_556 S
O25 C28 1.244 . S
O26 Co0 2.155 . S
O26 C28 1.240 1_554 S
O27 Co0 2.096 . S
O27 C8 1.247 . S
C28 O25 1.244 . S
C28 O26 1.240 1_556 S
H29 C3 0.931 . S
H30 C12 0.931 . S
H31 C16 0.929 1_655 S
H32 C18 0.930 . S
Co33 N37 2.148 . S
Co33 N43 2.128 . S
Co33 N53 2.194 1_554 S
Co33 O58 2.351 1_554 S
Co33 O59 2.155 . S
Co33 O60 2.096 . S
C34 N37 1.301 1_556 S
C34 N38 1.328 . S
C34 H39 0.930 . S
C35 C36 1.333 . S
C35 N37 1.317 . S
C35 H40 0.930 . S
C36 C35 1.333 . S
C36 N38 1.350 1_554 S
C36 H62 0.931 . S
N37 Co33 2.148 . S
N37 C34 1.301 1_554 S
N37 C35 1.317 . S
N38 C34 1.328 . S
N38 C36 1.350 1_556 S
H39 C34 0.930 . S
H40 C35 0.930 . S
C41 O42 1.224 . S
C41 O60 1.247 . S
O42 C41 1.224 . S
N43 Co33 2.128 . S
N43 C44 1.355 1_554 S
N43 C46 1.311 . S
C44 N43 1.355 1_556 S
C44 C45 1.363 1_655 S
C44 H56 0.929 . S
C45 C44 1.363 1_455 S
C45 N47 1.375 1_556 S
C45 H63 0.931 . S
C46 N43 1.311 . S
C46 N47 1.347 1_655 S
C46 H57 0.929 . S
N47 C45 1.375 1_554 S
N47 C46 1.347 1_455 S
C48 C51 1.365 . S
C48 N53 1.328 . S
C48 H54 0.929 . S
C49 C50 1.362 . S
C49 C52 1.378 . S
C49 H64 0.929 1_655 S
C50 C49 1.362 . S
C50 C51 1.366 . S
C51 C48 1.365 . S
C51 C50 1.366 . S
C51 H65 0.930 . S
C52 C49 1.378 . S
C52 N53 1.315 . S
C52 H55 0.930 . S
N53 Co33 2.194 1_556 S
N53 C48 1.328 . S
N53 C52 1.315 . S
H54 C48 0.929 . S
H55 C52 0.930 . S
H56 C44 0.929 . S
H57 C46 0.929 . S
O58 Co33 2.351 1_556 S
O58 C61 1.244 . S
O59 Co33 2.155 . S
O59 C61 1.240 1_554 S
O60 Co33 2.096 . S
O60 C41 1.247 . S
C61 O58 1.244 . S
C61 O59 1.240 1_556 S
H62 C36 0.931 . S
H63 C45 0.931 . S
H64 C49 0.929 1_455 S
H65 C51 0.930 . S
Co66 N70 2.148 . S
Co66 N76 2.128 . S
Co66 N86 2.194 . S
Co66 O91 2.351 . S
Co66 O92 2.155 . S
Co66 O93 2.096 . S
C67 N70 1.301 . S
C67 N71 1.328 . S
C67 H72 0.930 . S
C68 C69 1.333 . S
C68 N70 1.317 . S
C68 H73 0.930 . S
C69 C68 1.333 . S
C69 N71 1.350 . S
C69 H95 0.931 . S
N70 Co66 2.148 . S
N70 C67 1.301 . S
N70 C68 1.317 . S
N71 C67 1.328 . S
N71 C69 1.350 . S
H72 C67 0.930 . S
H73 C68 0.930 . S
C74 O75 1.224 . S
C74 O93 1.247 . S
O75 C74 1.224 . S
N76 Co66 2.128 . S
N76 C77 1.355 . S
N76 C79 1.311 . S
C77 N76 1.355 . S
C77 C78 1.363 . S
C77 H89 0.929 . S
C78 C77 1.363 . S
C78 N80 1.375 . S
C78 H96 0.931 . S
C79 N76 1.311 . S
C79 N80 1.347 . S
C79 H90 0.929 . S
N80 C78 1.375 . S
N80 C79 1.347 . S
C81 C84 1.365 . S
C81 N86 1.328 . S
C81 H87 0.929 . S
C82 C83 1.362 . S
C82 C85 1.378 . S
C82 H97 0.929 . S
C83 C82 1.362 . S
C83 C84 1.366 . S
C84 C81 1.365 . S
C84 C83 1.366 . S
C84 H98 0.930 . S
C85 C82 1.378 . S
C85 N86 1.315 . S
C85 H88 0.930 . S
N86 Co66 2.194 . S
N86 C81 1.328 . S
N86 C85 1.315 . S
H87 C81 0.929 . S
H88 C85 0.930 . S
H89 C77 0.929 . S
H90 C79 0.929 . S
O91 Co66 2.351 . S
O91 C94 1.244 . S
O92 Co66 2.155 . S
O92 C94 1.240 . S
O93 Co66 2.096 . S
O93 C74 1.247 . S
C94 O91 1.244 . S
C94 O92 1.240 . S
H95 C69 0.931 . S
H96 C78 0.931 . S
H97 C82 0.929 . S
H98 C84 0.930 . S
Co99 N103 2.148 . S
Co99 N109 2.128 . S
Co99 N119 2.194 . S
Co99 O124 2.351 . S
Co99 O125 2.155 . S
Co99 O126 2.096 . S
C100 N103 1.301 . S
C100 N104 1.328 . S
C100 H105 0.930 . S
C101 C102 1.333 . S
C101 N103 1.317 . S
C101 H106 0.930 . S
C102 C101 1.333 . S
C102 N104 1.350 . S
C102 H128 0.931 . S
N103 Co99 2.148 . S
N103 C100 1.301 . S
N103 C101 1.317 . S
N104 C100 1.328 . S
N104 C102 1.350 . S
H105 C100 0.930 . S
H106 C101 0.930 . S
C107 O108 1.224 . S
C107 O126 1.247 . S
O108 C107 1.224 . S
N109 Co99 2.128 . S
N109 C110 1.355 . S
N109 C112 1.311 . S
C110 N109 1.355 . S
C110 C111 1.363 . S
C110 H122 0.929 . S
C111 C110 1.363 . S
C111 N113 1.375 . S
C111 H129 0.931 . S
C112 N109 1.311 . S
C112 N113 1.347 . S
C112 H123 0.929 . S
N113 C111 1.375 . S
N113 C112 1.347 . S
C114 C117 1.365 . S
C114 N119 1.328 . S
C114 H120 0.929 . S
C115 C116 1.362 . S
C115 C118 1.378 . S
C115 H130 0.929 . S
C116 C115 1.362 . S
C116 C117 1.366 . S
C117 C114 1.365 . S
C117 C116 1.366 . S
C117 H131 0.930 . S
C118 C115 1.378 . S
C118 N119 1.315 . S
C118 H121 0.930 . S
N119 Co99 2.194 . S
N119 C114 1.328 . S
N119 C118 1.315 . S
H120 C114 0.929 . S
H121 C118 0.930 . S
H122 C110 0.929 . S
H123 C112 0.929 . S
O124 Co99 2.351 . S
O124 C127 1.244 . S
O125 Co99 2.155 . S
O125 C127 1.240 . S
O126 Co99 2.096 . S
O126 C107 1.247 . S
C127 O124 1.244 . S
C127 O125 1.240 . S
H128 C102 0.931 . S
H129 C111 0.931 . S
H130 C115 0.929 . S
H131 C117 0.930 . S
Co132 N136 2.148 . S
Co132 N142 2.128 . S
Co132 N152 2.194 . S
Co132 O157 2.351 . S
Co132 O158 2.155 . S
Co132 O159 2.096 . S
C133 N136 1.301 . S
C133 N137 1.328 . S
C133 H138 0.930 . S
C134 C135 1.333 . S
C134 N136 1.317 . S
C134 H139 0.930 . S
C135 C134 1.333 . S
C135 N137 1.350 . S
C135 H161 0.931 . S
N136 Co132 2.148 . S
N136 C133 1.301 . S
N136 C134 1.317 . S
N137 C133 1.328 . S
N137 C135 1.350 . S
H138 C133 0.930 . S
H139 C134 0.930 . S
C140 O141 1.224 . S
C140 O159 1.247 . S
O141 C140 1.224 . S
N142 Co132 2.128 . S
N142 C143 1.355 . S
N142 C145 1.311 . S
C143 N142 1.355 . S
C143 C144 1.363 1_455 S
C143 H155 0.929 . S
C144 C143 1.363 1_655 S
C144 N146 1.375 . S
C144 H162 0.931 . S
C145 N142 1.311 . S
C145 N146 1.347 1_455 S
C145 H156 0.929 . S
N146 C144 1.375 . S
N146 C145 1.347 1_655 S
C147 C150 1.365 . S
C147 N152 1.328 . S
C147 H153 0.929 . S
C148 C149 1.362 . S
C148 C151 1.378 . S
C148 H163 0.929 1_455 S
C149 C148 1.362 . S
C149 C150 1.366 . S
C150 C147 1.365 . S
C150 C149 1.366 . S
C150 H164 0.930 . S
C151 C148 1.378 . S
C151 N152 1.315 . S
C151 H154 0.930 . S
N152 Co132 2.194 . S
N152 C147 1.328 . S
N152 C151 1.315 . S
H153 C147 0.929 . S
H154 C151 0.930 . S
H155 C143 0.929 . S
H156 C145 0.929 . S
O157 Co132 2.351 . S
O157 C160 1.244 . S
O158 Co132 2.155 . S
O158 C160 1.240 . S
O159 Co132 2.096 . S
O159 C140 1.247 . S
C160 O157 1.244 . S
C160 O158 1.240 . S
H161 C135 0.931 . S
H162 C144 0.931 . S
H163 C148 0.929 1_655 S
H164 C150 0.930 . S
Co165 N169 2.148 . S
Co165 N175 2.128 . S
Co165 N185 2.194 . S
Co165 O190 2.351 . S
Co165 O191 2.155 . S
Co165 O192 2.096 . S
C166 N169 1.301 . S
C166 N170 1.328 . S
C166 H171 0.930 . S
C167 C168 1.333 . S
C167 N169 1.317 . S
C167 H172 0.930 . S
C168 C167 1.333 . S
C168 N170 1.350 . S
C168 H194 0.931 . S
N169 Co165 2.148 . S
N169 C166 1.301 . S
N169 C167 1.317 . S
N170 C166 1.328 . S
N170 C168 1.350 . S
H171 C166 0.930 . S
H172 C167 0.930 . S
C173 O174 1.224 . S
C173 O192 1.247 . S
O174 C173 1.224 . S
N175 Co165 2.128 . S
N175 C176 1.355 . S
N175 C178 1.311 . S
C176 N175 1.355 . S
C176 C177 1.363 1_655 S
C176 H188 0.929 . S
C177 C176 1.363 1_455 S
C177 N179 1.375 . S
C177 H195 0.931 . S
C178 N175 1.311 . S
C178 N179 1.347 1_655 S
C178 H189 0.929 . S
N179 C177 1.375 . S
N179 C178 1.347 1_455 S
C180 C183 1.365 . S
C180 N185 1.328 . S
C180 H186 0.929 . S
C181 C182 1.362 . S
C181 C184 1.378 . S
C181 H196 0.929 1_655 S
C182 C181 1.362 . S
C182 C183 1.366 . S
C183 C180 1.365 . S
C183 C182 1.366 . S
C183 H197 0.930 . S
C184 C181 1.378 . S
C184 N185 1.315 . S
C184 H187 0.930 . S
N185 Co165 2.194 . S
N185 C180 1.328 . S
N185 C184 1.315 . S
H186 C180 0.929 . S
H187 C184 0.930 . S
H188 C176 0.929 . S
H189 C178 0.929 . S
O190 Co165 2.351 . S
O190 C193 1.244 . S
O191 Co165 2.155 . S
O191 C193 1.240 . S
O192 Co165 2.096 . S
O192 C173 1.247 . S
C193 O190 1.244 . S
C193 O191 1.240 . S
H194 C168 0.931 . S
H195 C177 0.931 . S
H196 C181 0.929 1_455 S
H197 C183 0.930 . S
Co198 N202 2.148 . S
Co198 N208 2.128 . S
Co198 N218 2.194 . S
Co198 O223 2.351 . S
Co198 O224 2.155 . S
Co198 O225 2.096 . S
C199 N202 1.301 . S
C199 N203 1.328 . S
C199 H204 0.930 . S
C200 C201 1.333 . S
C200 N202 1.317 . S
C200 H205 0.930 . S
C201 C200 1.333 . S
C201 N203 1.350 . S
C201 H227 0.931 1_545 S
N202 Co198 2.148 . S
N202 C199 1.301 . S
N202 C200 1.317 . S
N203 C199 1.328 . S
N203 C201 1.350 . S
H204 C199 0.930 . S
H205 C200 0.930 . S
C206 O207 1.224 . S
C206 O225 1.247 . S
O207 C206 1.224 . S
N208 Co198 2.128 . S
N208 C209 1.355 . S
N208 C211 1.311 . S
C209 N208 1.355 . S
C209 C210 1.363 . S
C209 H221 0.929 . S
C210 C209 1.363 . S
C210 N212 1.375 . S
C210 H228 0.931 . S
C211 N208 1.311 . S
C211 N212 1.347 . S
C211 H222 0.929 . S
N212 C210 1.375 . S
N212 C211 1.347 . S
C213 C216 1.365 . S
C213 N218 1.328 . S
C213 H219 0.929 . S
C214 C215 1.362 . S
C214 C217 1.378 . S
C214 H229 0.914 1_545 S
C215 C214 1.362 . S
C215 C216 1.366 . S
C216 C213 1.365 . S
C216 C215 1.366 . S
C216 H230 0.930 . S
C217 C214 1.378 . S
C217 N218 1.315 . S
C217 H220 0.930 . S
N218 Co198 2.194 . S
N218 C213 1.328 . S
N218 C217 1.315 . S
H219 C213 0.929 . S
H220 C217 0.930 . S
H221 C209 0.929 . S
H222 C211 0.929 . S
O223 Co198 2.351 . S
O223 C226 1.244 . S
O224 Co198 2.155 . S
O224 C226 1.240 . S
O225 Co198 2.096 . S
O225 C206 1.247 . S
C226 O223 1.244 . S
C226 O224 1.240 . S
H227 C201 0.931 1_565 S
H228 C210 0.931 . S
H229 C214 0.914 1_565 S
H230 C216 0.930 . S
Co231 N235 2.148 . S
Co231 N241 2.128 . S
Co231 N251 2.194 . S
Co231 O256 2.351 . S
Co231 O257 2.155 . S
Co231 O258 2.096 . S
C232 N235 1.301 . S
C232 N236 1.328 . S
C232 H237 0.930 . S
C233 C234 1.333 . S
C233 N235 1.317 . S
C233 H238 0.930 . S
C234 C233 1.333 . S
C234 N236 1.350 . S
C234 H260 0.931 1_565 S
N235 Co231 2.148 . S
N235 C232 1.301 . S
N235 C233 1.317 . S
N236 C232 1.328 . S
N236 C234 1.350 . S
H237 C232 0.930 . S
H238 C233 0.930 . S
C239 O240 1.224 . S
C239 O258 1.247 . S
O240 C239 1.224 . S
N241 Co231 2.128 . S
N241 C242 1.355 . S
N241 C244 1.311 . S
C242 N241 1.355 . S
C242 C243 1.363 . S
C242 H254 0.929 . S
C243 C242 1.363 . S
C243 N245 1.375 . S
C243 H261 0.931 . S
C244 N241 1.311 . S
C244 N245 1.347 . S
C244 H255 0.929 . S
N245 C243 1.375 . S
N245 C244 1.347 . S
C246 C249 1.365 . S
C246 N251 1.328 . S
C246 H252 0.929 . S
C247 C248 1.362 . S
C247 C250 1.378 . S
C247 H262 0.914 1_565 S
C248 C247 1.362 . S
C248 C249 1.366 . S
C249 C246 1.365 . S
C249 C248 1.366 . S
C249 H263 0.930 . S
C250 C247 1.378 . S
C250 N251 1.315 . S
C250 H253 0.930 . S
N251 Co231 2.194 . S
N251 C246 1.328 . S
N251 C250 1.315 . S
H252 C246 0.929 . S
H253 C250 0.930 . S
H254 C242 0.929 . S
H255 C244 0.929 . S
O256 Co231 2.351 . S
O256 C259 1.244 . S
O257 Co231 2.155 . S
O257 C259 1.240 . S
O258 Co231 2.096 . S
O258 C239 1.247 . S
C259 O256 1.244 . S
C259 O257 1.240 . S
H260 C234 0.931 1_545 S
H261 C243 0.931 . S
H262 C247 0.914 1_545 S
H263 C249 0.930 . S
Co264 N268 2.148 . S
Co264 N274 2.128 . S
Co264 N284 2.194 . S
Co264 O289 2.351 . S
Co264 O290 2.155 . S
Co264 O291 2.096 . S
C265 N268 1.301 . S
C265 N269 1.328 . S
C265 H270 0.930 . S
C266 C267 1.333 . S
C266 N268 1.317 . S
C266 H271 0.930 . S
C267 C266 1.333 . S
C267 N269 1.350 . S
C267 H293 0.931 . S
N268 Co264 2.148 . S
N268 C265 1.301 . S
N268 C266 1.317 . S
N269 C265 1.328 . S
N269 C267 1.350 . S
H270 C265 0.930 . S
H271 C266 0.930 . S
C272 O273 1.224 . S
C272 O291 1.247 . S
O273 C272 1.224 . S
N274 Co264 2.128 . S
N274 C275 1.355 . S
N274 C277 1.311 . S
C275 N274 1.355 . S
C275 C276 1.363 . S
C275 H287 0.929 . S
C276 C275 1.363 . S
C276 N278 1.375 . S
C276 H294 0.931 . S
C277 N274 1.311 . S
C277 N278 1.347 . S
C277 H288 0.929 . S
N278 C276 1.375 . S
N278 C277 1.347 . S
C279 C282 1.365 . S
C279 N284 1.328 . S
C279 H285 0.929 . S
C280 C281 1.362 . S
C280 C283 1.378 . S
C280 H295 0.929 . S
C281 C280 1.362 . S
C281 C282 1.366 . S
C282 C279 1.365 . S
C282 C281 1.366 . S
C282 H296 0.930 . S
C283 C280 1.378 . S
C283 N284 1.315 . S
C283 H286 0.930 . S
N284 Co264 2.194 . S
N284 C279 1.328 . S
N284 C283 1.315 . S
H285 C279 0.929 . S
H286 C283 0.930 . S
H287 C275 0.929 . S
H288 C277 0.929 . S
O289 Co264 2.351 . S
O289 C292 1.244 . S
O290 Co264 2.155 . S
O290 C292 1.240 . S
O291 Co264 2.096 . S
O291 C272 1.247 . S
C292 O289 1.244 . S
C292 O290 1.240 . S
H293 C267 0.931 . S
H294 C276 0.931 . S
H295 C280 0.929 . S
H296 C282 0.930 . S
Co297 N301 2.148 . S
Co297 N307 2.128 . S
Co297 N317 2.194 . S
Co297 O322 2.351 . S
Co297 O323 2.155 . S
Co297 O324 2.096 . S
C298 N301 1.301 . S
C298 N302 1.328 . S
C298 H303 0.930 . S
C299 C300 1.333 . S
C299 N301 1.317 . S
C299 H304 0.930 . S
C300 C299 1.333 . S
C300 N302 1.350 . S
C300 H326 0.931 . S
N301 Co297 2.148 . S
N301 C298 1.301 . S
N301 C299 1.317 . S
N302 C298 1.328 . S
N302 C300 1.350 . S
H303 C298 0.930 . S
H304 C299 0.930 . S
C305 O306 1.224 . S
C305 O324 1.247 . S
O306 C305 1.224 . S
N307 Co297 2.128 . S
N307 C308 1.355 . S
N307 C310 1.311 . S
C308 N307 1.355 . S
C308 C309 1.363 . S
C308 H320 0.929 . S
C309 C308 1.363 . S
C309 N311 1.375 . S
C309 H327 0.931 . S
C310 N307 1.311 . S
C310 N311 1.347 . S
C310 H321 0.929 . S
N311 C309 1.375 . S
N311 C310 1.347 . S
C312 C315 1.365 . S
C312 N317 1.328 . S
C312 H318 0.929 . S
C313 C314 1.362 . S
C313 C316 1.378 . S
C313 H328 0.929 . S
C314 C313 1.362 . S
C314 C315 1.366 . S
C315 C312 1.365 . S
C315 C314 1.366 . S
C315 H329 0.930 . S
C316 C313 1.378 . S
C316 N317 1.315 . S
C316 H319 0.930 . S
N317 Co297 2.194 . S
N317 C312 1.328 . S
N317 C316 1.315 . S
H318 C312 0.929 . S
H319 C316 0.930 . S
H320 C308 0.929 . S
H321 C310 0.929 . S
O322 Co297 2.351 . S
O322 C325 1.244 . S
O323 Co297 2.155 . S
O323 C325 1.240 . S
O324 Co297 2.096 . S
O324 C305 1.247 . S
C325 O322 1.244 . S
C325 O323 1.240 . S
H326 C300 0.931 . S
H327 C309 0.931 . S
H328 C313 0.929 . S
H329 C315 0.930 . S
Co330 N334 2.148 . S
Co330 N340 2.128 . S
Co330 N350 2.194 . S
Co330 O355 2.351 . S
Co330 O356 2.155 . S
Co330 O357 2.096 . S
C331 N334 1.301 . S
C331 N335 1.328 . S
C331 H336 0.930 . S
C332 C333 1.333 . S
C332 N334 1.317 . S
C332 H337 0.930 . S
C333 C332 1.333 . S
C333 N335 1.350 . S
C333 H359 0.931 . S
N334 Co330 2.148 . S
N334 C331 1.301 . S
N334 C332 1.317 . S
N335 C331 1.328 . S
N335 C333 1.350 . S
H336 C331 0.930 . S
H337 C332 0.930 . S
C338 O339 1.224 . S
C338 O357 1.247 . S
O339 C338 1.224 . S
N340 Co330 2.128 . S
N340 C341 1.355 . S
N340 C343 1.311 . S
C341 N340 1.355 . S
C341 C342 1.363 . S
C341 H353 0.929 . S
C342 C341 1.363 . S
C342 N344 1.375 . S
C342 H360 0.931 . S
C343 N340 1.311 . S
C343 N344 1.347 . S
C343 H354 0.929 . S
N344 C342 1.375 . S
N344 C343 1.347 . S
C345 C348 1.365 . S
C345 N350 1.328 . S
C345 H351 0.929 . S
C346 C347 1.362 . S
C346 C349 1.378 . S
C346 H361 0.929 . S
C347 C346 1.362 . S
C347 C348 1.366 . S
C348 C345 1.365 . S
C348 C347 1.366 . S
C348 H362 0.930 . S
C349 C346 1.378 . S
C349 N350 1.315 . S
C349 H352 0.930 . S
N350 Co330 2.194 . S
N350 C345 1.328 . S
N350 C349 1.315 . S
H351 C345 0.929 . S
H352 C349 0.930 . S
H353 C341 0.929 . S
H354 C343 0.929 . S
O355 Co330 2.351 . S
O355 C358 1.244 . S
O356 Co330 2.155 . S
O356 C358 1.240 . S
O357 Co330 2.096 . S
O357 C338 1.247 . S
C358 O355 1.244 . S
C358 O356 1.240 . S
H359 C333 0.931 . S
H360 C342 0.931 . S
H361 C346 0.929 . S
H362 C348 0.930 . S
Co363 N367 2.148 . S
Co363 N373 2.128 . S
Co363 N383 2.194 . S
Co363 O388 2.351 . S
Co363 O389 2.155 . S
Co363 O390 2.096 . S
C364 N367 1.301 . S
C364 N368 1.328 . S
C364 H369 0.930 . S
C365 C366 1.333 . S
C365 N367 1.317 . S
C365 H370 0.930 . S
C366 C365 1.333 . S
C366 N368 1.350 . S
C366 H392 0.931 . S
N367 Co363 2.148 . S
N367 C364 1.301 . S
N367 C365 1.317 . S
N368 C364 1.328 . S
N368 C366 1.350 . S
H369 C364 0.930 . S
H370 C365 0.930 . S
C371 O372 1.224 . S
C371 O390 1.247 . S
O372 C371 1.224 . S
N373 Co363 2.128 . S
N373 C374 1.355 . S
N373 C376 1.311 . S
C374 N373 1.355 . S
C374 C375 1.363 . S
C374 H386 0.929 . S
C375 C374 1.363 . S
C375 N377 1.375 . S
C375 H393 0.931 . S
C376 N373 1.311 . S
C376 N377 1.347 . S
C376 H387 0.929 . S
N377 C375 1.375 . S
N377 C376 1.347 . S
C378 C381 1.365 . S
C378 N383 1.328 . S
C378 H384 0.929 . S
C379 C380 1.362 . S
C379 C382 1.378 . S
C379 H394 0.929 . S
C380 C379 1.362 . S
C380 C381 1.366 . S
C381 C378 1.365 . S
C381 C380 1.366 . S
C381 H395 0.930 . S
C382 C379 1.378 . S
C382 N383 1.315 . S
C382 H385 0.930 . S
N383 Co363 2.194 . S
N383 C378 1.328 . S
N383 C382 1.315 . S
H384 C378 0.929 . S
H385 C382 0.930 . S
H386 C374 0.929 . S
H387 C376 0.929 . S
O388 Co363 2.351 . S
O388 C391 1.244 . S
O389 Co363 2.155 . S
O389 C391 1.240 . S
O390 Co363 2.096 . S
O390 C371 1.247 . S
C391 O388 1.244 . S
C391 O389 1.240 . S
H392 C366 0.931 . S
H393 C375 0.931 . S
H394 C379 0.929 . S
H395 C381 0.930 . S
Co396 N400 2.148 . S
Co396 N406 2.128 . S
Co396 N416 2.194 1_554 S
Co396 O421 2.351 1_554 S
Co396 O422 2.155 . S
Co396 O423 2.096 . S
C397 N400 1.301 1_556 S
C397 N401 1.328 . S
C397 H402 0.930 . S
C398 C399 1.333 . S
C398 N400 1.317 . S
C398 H403 0.930 . S
C399 C398 1.333 . S
C399 N401 1.350 1_554 S
C399 H425 0.931 . S
N400 Co396 2.148 . S
N400 C397 1.301 1_554 S
N400 C398 1.317 . S
N401 C397 1.328 . S
N401 C399 1.350 1_556 S
H402 C397 0.930 . S
H403 C398 0.930 . S
C404 O405 1.224 . S
C404 O423 1.247 . S
O405 C404 1.224 . S
N406 Co396 2.128 . S
N406 C407 1.355 1_554 S
N406 C409 1.311 . S
C407 N406 1.355 1_556 S
C407 C408 1.363 . S
C407 H419 0.929 . S
C408 C407 1.363 . S
C408 N410 1.375 1_556 S
C408 H426 0.931 . S
C409 N406 1.311 . S
C409 N410 1.347 . S
C409 H420 0.929 . S
N410 C408 1.375 1_554 S
N410 C409 1.347 . S
C411 C414 1.365 . S
C411 N416 1.328 . S
C411 H417 0.929 . S
C412 C413 1.362 . S
C412 C415 1.378 . S
C412 H427 0.929 . S
C413 C412 1.362 . S
C413 C414 1.366 . S
C414 C411 1.365 . S
C414 C413 1.366 . S
C414 H428 0.930 . S
C415 C412 1.378 . S
C415 N416 1.315 . S
C415 H418 0.930 . S
N416 Co396 2.194 1_556 S
N416 C411 1.328 . S
N416 C415 1.315 . S
H417 C411 0.929 . S
H418 C415 0.930 . S
H419 C407 0.929 . S
H420 C409 0.929 . S
O421 Co396 2.351 1_556 S
O421 C424 1.244 . S
O422 Co396 2.155 . S
O422 C424 1.240 1_554 S
O423 Co396 2.096 . S
O423 C404 1.247 . S
C424 O421 1.244 . S
C424 O422 1.240 1_556 S
H425 C399 0.931 . S
H426 C408 0.931 . S
H427 C412 0.929 . S
H428 C414 0.930 . S
Co429 N433 2.148 . S
Co429 N439 2.128 . S
Co429 N449 2.194 1_554 S
Co429 O454 2.351 1_554 S
Co429 O455 2.155 . S
Co429 O456 2.096 . S
C430 N433 1.301 1_556 S
C430 N434 1.328 . S
C430 H435 0.930 . S
C431 C432 1.333 . S
C431 N433 1.317 . S
C431 H436 0.930 . S
C432 C431 1.333 . S
C432 N434 1.350 1_554 S
C432 H458 0.931 . S
N433 Co429 2.148 . S
N433 C430 1.301 1_554 S
N433 C431 1.317 . S
N434 C430 1.328 . S
N434 C432 1.350 1_556 S
H435 C430 0.930 . S
H436 C431 0.930 . S
C437 O438 1.224 . S
C437 O456 1.247 . S
O438 C437 1.224 . S
N439 Co429 2.128 . S
N439 C440 1.355 1_554 S
N439 C442 1.311 . S
C440 N439 1.355 1_556 S
C440 C441 1.363 . S
C440 H452 0.929 . S
C441 C440 1.363 . S
C441 N443 1.375 1_556 S
C441 H459 0.931 . S
C442 N439 1.311 . S
C442 N443 1.347 . S
C442 H453 0.929 . S
N443 C441 1.375 1_554 S
N443 C442 1.347 . S
C444 C447 1.365 . S
C444 N449 1.328 . S
C444 H450 0.929 . S
C445 C446 1.362 . S
C445 C448 1.378 . S
C445 H460 0.929 . S
C446 C445 1.362 . S
C446 C447 1.366 . S
C447 C444 1.365 . S
C447 C446 1.366 . S
C447 H461 0.930 . S
C448 C445 1.378 . S
C448 N449 1.315 . S
C448 H451 0.930 . S
N449 Co429 2.194 1_556 S
N449 C444 1.328 . S
N449 C448 1.315 . S
H450 C444 0.929 . S
H451 C448 0.930 . S
H452 C440 0.929 . S
H453 C442 0.929 . S
O454 Co429 2.351 1_556 S
O454 C457 1.244 . S
O455 Co429 2.155 . S
O455 C457 1.240 1_554 S
O456 Co429 2.096 . S
O456 C437 1.247 . S
C457 O454 1.244 . S
C457 O455 1.240 1_556 S
H458 C432 0.931 . S
H459 C441 0.931 . S
H460 C445 0.929 . S
H461 C447 0.930 . S
Co462 N466 2.148 . S
Co462 N472 2.128 . S
Co462 N482 2.194 . S
Co462 O487 2.351 . S
Co462 O488 2.155 . S
Co462 O489 2.096 . S
C463 N466 1.301 . S
C463 N467 1.328 . S
C463 H468 0.930 . S
C464 C465 1.333 . S
C464 N466 1.317 . S
C464 H469 0.930 . S
C465 C464 1.333 . S
C465 N467 1.350 . S
C465 H491 0.931 1_545 S
N466 Co462 2.148 . S
N466 C463 1.301 . S
N466 C464 1.317 . S
N467 C463 1.328 . S
N467 C465 1.350 . S
H468 C463 0.930 . S
H469 C464 0.930 . S
C470 O471 1.224 . S
C470 O489 1.247 . S
O471 C470 1.224 . S
N472 Co462 2.128 . S
N472 C473 1.355 . S
N472 C475 1.311 . S
C473 N472 1.355 . S
C473 C474 1.363 . S
C473 H485 0.929 . S
C474 C473 1.363 . S
C474 N476 1.375 . S
C474 H492 0.931 . S
C475 N472 1.311 . S
C475 N476 1.347 . S
C475 H486 0.929 . S
N476 C474 1.375 . S
N476 C475 1.347 . S
C477 C480 1.365 . S
C477 N482 1.328 . S
C477 H483 0.929 . S
C478 C479 1.362 . S
C478 C481 1.378 . S
C478 H493 0.914 1_545 S
C479 C478 1.362 . S
C479 C480 1.366 . S
C480 C477 1.365 . S
C480 C479 1.366 . S
C480 H494 0.930 . S
C481 C478 1.378 . S
C481 N482 1.315 . S
C481 H484 0.930 . S
N482 Co462 2.194 . S
N482 C477 1.328 . S
N482 C481 1.315 . S
H483 C477 0.929 . S
H484 C481 0.930 . S
H485 C473 0.929 . S
H486 C475 0.929 . S
O487 Co462 2.351 . S
O487 C490 1.244 . S
O488 Co462 2.155 . S
O488 C490 1.240 . S
O489 Co462 2.096 . S
O489 C470 1.247 . S
C490 O487 1.244 . S
C490 O488 1.240 . S
H491 C465 0.931 1_565 S
H492 C474 0.931 . S
H493 C478 0.914 1_565 S
H494 C480 0.930 . S
Co495 N499 2.148 . S
Co495 N505 2.128 . S
Co495 N515 2.194 . S
Co495 O520 2.351 . S
Co495 O521 2.155 . S
Co495 O522 2.096 . S
C496 N499 1.301 . S
C496 N500 1.328 . S
C496 H501 0.930 . S
C497 C498 1.333 . S
C497 N499 1.317 . S
C497 H502 0.930 . S
C498 C497 1.333 . S
C498 N500 1.350 . S
C498 H524 0.931 1_565 S
N499 Co495 2.148 . S
N499 C496 1.301 . S
N499 C497 1.317 . S
N500 C496 1.328 . S
N500 C498 1.350 . S
H501 C496 0.930 . S
H502 C497 0.930 . S
C503 O504 1.224 . S
C503 O522 1.247 . S
O504 C503 1.224 . S
N505 Co495 2.128 . S
N505 C506 1.355 . S
N505 C508 1.311 . S
C506 N505 1.355 . S
C506 C507 1.363 . S
C506 H518 0.929 . S
C507 C506 1.363 . S
C507 N509 1.375 . S
C507 H525 0.931 . S
C508 N505 1.311 . S
C508 N509 1.347 . S
C508 H519 0.929 . S
N509 C507 1.375 . S
N509 C508 1.347 . S
C510 C513 1.365 . S
C510 N515 1.328 . S
C510 H516 0.929 . S
C511 C512 1.362 . S
C511 C514 1.378 . S
C511 H526 0.914 1_565 S
C512 C511 1.362 . S
C512 C513 1.366 . S
C513 C510 1.365 . S
C513 C512 1.366 . S
C513 H527 0.930 . S
C514 C511 1.378 . S
C514 N515 1.315 . S
C514 H517 0.930 . S
N515 Co495 2.194 . S
N515 C510 1.328 . S
N515 C514 1.315 . S
H516 C510 0.929 . S
H517 C514 0.930 . S
H518 C506 0.929 . S
H519 C508 0.929 . S
O520 Co495 2.351 . S
O520 C523 1.244 . S
O521 Co495 2.155 . S
O521 C523 1.240 . S
O522 Co495 2.096 . S
O522 C503 1.247 . S
C523 O520 1.244 . S
C523 O521 1.240 . S
H524 C498 0.931 1_545 S
H525 C507 0.931 . S
H526 C511 0.914 1_545 S
H527 C513 0.930 . S
C528 C529 1.387 . S
C528 H532 0.950 . S
C528 C537 1.390 . S
C529 C528 1.387 . S
C529 C531 1.387 . S
H530 C537 0.950 . S
C531 C529 1.387 . S
C531 C533 1.390 . S
C531 H535 0.950 . S
H532 C528 0.950 . S
C533 C531 1.390 . S
C533 C534 1.387 . S
C533 H536 0.950 . S
C534 C533 1.387 . S
C534 C537 1.387 . S
H535 C531 0.950 . S
H536 C533 0.950 . S
C537 C528 1.390 . S
C537 H530 0.950 . S
C537 C534 1.387 . S
C538 C539 1.387 . S
C538 H542 0.950 . S
C538 C547 1.390 . S
C539 C538 1.387 . S
C539 C541 1.387 . S
H540 C547 0.950 . S
C541 C539 1.387 . S
C541 C543 1.390 . S
C541 H545 0.950 . S
H542 C538 0.950 . S
C543 C541 1.390 . S
C543 C544 1.387 . S
C543 H546 0.950 . S
C544 C543 1.387 . S
C544 C547 1.387 . S
H545 C541 0.950 . S
H546 C543 0.950 . S
C547 C538 1.390 . S
C547 H540 0.950 . S
C547 C544 1.387 . S
C548 C549 1.387 . S
C548 H552 0.950 . S
C548 C557 1.390 . S
C549 C548 1.387 . S
C549 C551 1.387 . S
H550 C557 0.950 . S
C551 C549 1.387 . S
C551 C553 1.390 . S
C551 H555 0.950 . S
H552 C548 0.950 . S
C553 C551 1.390 . S
C553 C554 1.387 . S
C553 H556 0.950 . S
C554 C553 1.387 . S
C554 C557 1.387 . S
H555 C551 0.950 . S
H556 C553 0.950 . S
C557 C548 1.390 . S
C557 H550 0.950 . S
C557 C554 1.387 . S
C558 C559 1.387 . S
C558 H562 0.950 . S
C558 C567 1.390 . S
C559 C558 1.387 . S
C559 C561 1.387 . S
H560 C567 0.950 . S
C561 C559 1.387 . S
C561 C563 1.390 . S
C561 H565 0.950 . S
H562 C558 0.950 . S
C563 C561 1.390 . S
C563 C564 1.387 . S
C563 H566 0.950 . S
C564 C563 1.387 . S
C564 C567 1.387 . S
H565 C561 0.950 . S
H566 C563 0.950 . S
C567 C558 1.390 . S
C567 H560 0.950 . S
C567 C564 1.387 . S
C568 C569 1.387 . S
C568 H572 0.950 . S
C568 C577 1.390 . S
C569 C568 1.387 . S
C569 C571 1.387 . S
H570 C577 0.950 . S
C571 C569 1.387 . S
C571 C573 1.390 . S
C571 H575 0.950 . S
H572 C568 0.950 . S
C573 C571 1.390 . S
C573 C574 1.387 . S
C573 H576 0.950 . S
C574 C573 1.387 . S
C574 C577 1.387 . S
H575 C571 0.950 . S
H576 C573 0.950 . S
C577 C568 1.390 . S
C577 H570 0.950 . S
C577 C574 1.387 . S
C578 C579 1.387 . S
C578 H582 0.950 . S
C578 C587 1.390 . S
C579 C578 1.387 . S
C579 C581 1.387 . S
H580 C587 0.950 . S
C581 C579 1.387 . S
C581 C583 1.390 . S
C581 H585 0.950 . S
H582 C578 0.950 . S
C583 C581 1.390 . S
C583 C584 1.387 . S
C583 H586 0.950 . S
C584 C583 1.387 . S
C584 C587 1.387 . S
H585 C581 0.950 . S
H586 C583 0.950 . S
C587 C578 1.390 . S
C587 H580 0.950 . S
C587 C584 1.387 . S
C588 C589 1.387 . S
C588 H592 0.950 . S
C588 C597 1.390 . S
C589 C588 1.387 . S
C589 C591 1.387 . S
H590 C597 0.950 . S
C591 C589 1.387 . S
C591 C593 1.390 . S
C591 H595 0.950 . S
H592 C588 0.950 . S
C593 C591 1.390 . S
C593 C594 1.387 . S
C593 H596 0.950 . S
C594 C593 1.387 . S
C594 C597 1.387 . S
H595 C591 0.950 . S
H596 C593 0.950 . S
C597 C588 1.390 . S
C597 H590 0.950 . S
C597 C594 1.387 . S
C598 C599 1.387 . S
C598 H602 0.950 . S
C598 C607 1.390 . S
C599 C598 1.387 . S
C599 C601 1.387 . S
H600 C607 0.950 . S
C601 C599 1.387 . S
C601 C603 1.390 . S
C601 H605 0.950 . S
H602 C598 0.950 . S
C603 C601 1.390 . S
C603 C604 1.387 . S
C603 H606 0.950 . S
C604 C603 1.387 . S
C604 C607 1.387 . S
H605 C601 0.950 . S
H606 C603 0.950 . S
C607 C598 1.390 . S
C607 H600 0.950 . S
C607 C604 1.387 . S
C608 C609 1.387 . S
C608 H612 0.950 . S
C608 C617 1.390 . S
C609 C608 1.387 . S
C609 C611 1.387 . S
H610 C617 0.950 . S
C611 C609 1.387 . S
C611 C613 1.390 . S
C611 H615 0.950 . S
H612 C608 0.950 . S
C613 C611 1.390 . S
C613 C614 1.387 . S
C613 H616 0.950 . S
C614 C613 1.387 . S
C614 C617 1.387 . S
H615 C611 0.950 . S
H616 C613 0.950 . S
C617 C608 1.390 . S
C617 H610 0.950 . S
C617 C614 1.387 . S
C618 C619 1.387 . S
C618 H622 0.950 . S
C618 C627 1.390 . S
C619 C618 1.387 . S
C619 C621 1.387 . S
H620 C627 0.950 . S
C621 C619 1.387 . S
C621 C623 1.390 . S
C621 H625 0.950 . S
H622 C618 0.950 . S
C623 C621 1.390 . S
C623 C624 1.387 . S
C623 H626 0.950 . S
C624 C623 1.387 . S
C624 C627 1.387 . S
H625 C621 0.950 . S
H626 C623 0.950 . S
C627 C618 1.390 . S
C627 H620 0.950 . S
C627 C624 1.387 . S
C628 C629 1.387 . S
C628 H632 0.950 . S
C628 C637 1.390 . S
C629 C628 1.387 . S
C629 C631 1.387 . S
H630 C637 0.950 . S
C631 C629 1.387 . S
C631 C633 1.390 . S
C631 H635 0.950 . S
H632 C628 0.950 . S
C633 C631 1.390 . S
C633 C634 1.387 . S
C633 H636 0.950 . S
C634 C633 1.387 . S
C634 C637 1.387 . S
H635 C631 0.950 . S
H636 C633 0.950 . S
C637 C628 1.390 . S
C637 H630 0.950 . S
C637 C634 1.387 . S
C638 C639 1.387 . S
C638 H642 0.950 . S
C638 C647 1.390 . S
C639 C638 1.387 . S
C639 C641 1.387 . S
H640 C647 0.950 . S
C641 C639 1.387 . S
C641 C643 1.390 . S
C641 H645 0.950 . S
H642 C638 0.950 . S
C643 C641 1.390 . S
C643 C644 1.387 . S
C643 H646 0.950 . S
C644 C643 1.387 . S
C644 C647 1.387 . S
H645 C641 0.950 . S
H646 C643 0.950 . S
C647 C638 1.390 . S
C647 H640 0.950 . S
C647 C644 1.387 . S
C648 C649 1.387 . S
C648 H652 0.950 . S
C648 C657 1.390 . S
C649 C648 1.387 . S
C649 C651 1.387 . S
H650 C657 0.950 . S
C651 C649 1.387 . S
C651 C653 1.390 . S
C651 H655 0.950 . S
H652 C648 0.950 . S
C653 C651 1.390 . S
C653 C654 1.387 . S
C653 H656 0.950 . S
C654 C653 1.387 . S
C654 C657 1.387 . S
H655 C651 0.950 . S
H656 C653 0.950 . S
C657 C648 1.390 . S
C657 H650 0.950 . S
C657 C654 1.387 . S
C658 C659 1.387 . S
C658 H662 0.950 1_556 S
C658 C667 1.390 . S
C659 C658 1.387 . S
C659 C661 1.387 . S
H660 C667 0.950 . S
C661 C659 1.387 . S
C661 C663 1.390 . S
C661 H665 0.950 . S
H662 C658 0.950 1_554 S
C663 C661 1.390 . S
C663 C664 1.387 . S
C663 H666 0.950 . S
C664 C663 1.387 . S
C664 C667 1.387 . S
H665 C661 0.950 . S
H666 C663 0.950 . S
C667 C658 1.390 . S
C667 H660 0.950 . S
C667 C664 1.387 . S
C668 C669 1.387 . S
C668 H672 0.950 . S
C668 C677 1.390 . S
C669 C668 1.387 . S
C669 C671 1.387 . S
H670 C677 0.950 . S
C671 C669 1.387 . S
C671 C673 1.390 . S
C671 H675 0.950 . S
H672 C668 0.950 . S
C673 C671 1.390 . S
C673 C674 1.387 . S
C673 H676 0.950 . S
C674 C673 1.387 . S
C674 C677 1.387 . S
H675 C671 0.950 . S
H676 C673 0.950 . S
C677 C668 1.390 . S
C677 H670 0.950 . S
C677 C674 1.387 . S
C678 C679 1.387 . S
C678 H682 0.950 . S
C678 C687 1.390 . S
C679 C678 1.387 . S
C679 C681 1.387 . S
H680 C687 0.950 . S
C681 C679 1.387 . S
C681 C683 1.390 . S
C681 H685 0.950 . S
H682 C678 0.950 . S
C683 C681 1.390 . S
C683 C684 1.387 . S
C683 H686 0.950 . S
C684 C683 1.387 . S
C684 C687 1.387 . S
H685 C681 0.950 . S
H686 C683 0.950 . S
C687 C678 1.390 . S
C687 H680 0.950 . S
C687 C684 1.387 . S
C688 C689 1.387 . S
C688 H692 0.950 . S
C688 C697 1.390 . S
C689 C688 1.387 . S
C689 C691 1.387 . S
H690 C697 0.950 . S
C691 C689 1.387 . S
C691 C693 1.390 . S
C691 H695 0.950 1_455 S
H692 C688 0.950 . S
C693 C691 1.390 . S
C693 C694 1.387 . S
C693 H696 0.950 . S
C694 C693 1.387 . S
C694 C697 1.387 . S
H695 C691 0.950 1_655 S
H696 C693 0.950 . S
C697 C688 1.390 . S
C697 H690 0.950 . S
C697 C694 1.387 . S
C698 C699 1.387 . S
C698 H702 0.950 . S
C698 C707 1.390 . S
C699 C698 1.387 . S
C699 C701 1.387 1_655 S
H700 C707 0.950 . S
C701 C699 1.387 1_455 S
C701 C703 1.390 . S
C701 H705 0.950 . S
H702 C698 0.950 . S
C703 C701 1.390 . S
C703 C704 1.387 1_455 S
C703 H706 0.950 . S
C704 C703 1.387 1_655 S
C704 C707 1.387 . S
H705 C701 0.950 . S
H706 C703 0.950 . S
C707 C698 1.390 . S
C707 H700 0.950 . S
C707 C704 1.387 . S
C708 C709 1.387 . S
C708 H712 0.950 . S
C708 C717 1.390 . S
C709 C708 1.387 . S
C709 C711 1.387 . S
H710 C717 0.950 . S
C711 C709 1.387 . S
C711 C713 1.390 . S
C711 H715 0.950 . S
H712 C708 0.950 . S
C713 C711 1.390 . S
C713 C714 1.387 . S
C713 H716 0.950 . S
C714 C713 1.387 . S
C714 C717 1.387 . S
H715 C711 0.950 . S
H716 C713 0.950 . S
C717 C708 1.390 . S
C717 H710 0.950 . S
C717 C714 1.387 . S
C718 C719 1.387 . S
C718 H722 0.950 . S
C718 C727 1.390 . S
C719 C718 1.387 . S
C719 C721 1.387 . S
H720 C727 0.950 . S
C721 C719 1.387 . S
C721 C723 1.390 . S
C721 H725 0.950 . S
H722 C718 0.950 . S
C723 C721 1.390 . S
C723 C724 1.387 . S
C723 H726 0.950 . S
C724 C723 1.387 . S
C724 C727 1.387 . S
H725 C721 0.950 . S
H726 C723 0.950 . S
C727 C718 1.390 . S
C727 H720 0.950 . S
C727 C724 1.387 . S
C728 C729 1.385 1_655 S
C728 H732 0.963 . S
C728 C737 1.380 1_655 S
C729 C728 1.385 1_455 S
C729 C731 1.387 . S
H730 C737 0.950 . S
C731 C729 1.387 . S
C731 C733 1.390 . S
C731 H735 0.950 . S
H732 C728 0.963 . S
C733 C731 1.390 . S
C733 C734 1.387 . S
C733 H736 0.950 . S
C734 C733 1.387 . S
C734 C737 1.387 . S
H735 C731 0.950 . S
H736 C733 0.950 . S
C737 C728 1.380 1_455 S
C737 H730 0.950 . S
C737 C734 1.387 . S
C738 C739 1.387 1_455 S
C738 H742 0.950 . S
C738 C747 1.390 1_455 S
C739 C738 1.387 1_655 S
C739 C741 1.387 . S
H740 C747 0.951 1_455 S
C741 C739 1.387 . S
C741 C743 1.390 . S
C741 H745 0.950 . S
H742 C738 0.950 . S
C743 C741 1.390 . S
C743 C744 1.387 . S
C743 H746 0.950 . S
C744 C743 1.387 . S
C744 C747 1.387 . S
H745 C741 0.950 . S
H746 C743 0.950 . S
C747 C738 1.390 1_655 S
C747 H740 0.951 1_655 S
C747 C744 1.387 . S
C748 C749 1.387 . S
C748 H752 0.950 . S
C748 C757 1.390 . S
C749 C748 1.387 . S
C749 C751 1.387 . S
H750 C757 0.953 . S
C751 C749 1.387 . S
C751 C753 1.390 1_556 S
C751 H755 0.950 . S
H752 C748 0.950 . S
C753 C751 1.390 1_554 S
C753 C754 1.387 1_545 S
C753 H756 0.950 1_545 S
C754 C753 1.387 1_565 S
C754 C757 1.387 1_564 S
H755 C751 0.950 . S
H756 C753 0.950 1_565 S
C757 C748 1.390 . S
C757 H750 0.953 . S
C757 C754 1.387 1_546 S
C758 C759 1.387 . S
C758 H762 0.950 . S
C758 C767 1.390 1_566 S
C759 C758 1.387 . S
C759 C761 1.387 . S
H760 C767 0.950 . S
C761 C759 1.387 . S
C761 C763 1.390 1_556 S
C761 H765 0.950 . S
H762 C758 0.950 . S
C763 C761 1.390 1_554 S
C763 C764 1.387 1_565 S
C763 H766 0.950 . S
C764 C763 1.387 1_545 S
C764 C767 1.387 . S
H765 C761 0.950 . S
H766 C763 0.950 . S
C767 C758 1.390 1_544 S
C767 H760 0.950 . S
C767 C764 1.387 . S
C768 C769 1.387 . S
C768 H772 0.950 . S
C768 C777 1.390 . S
C769 C768 1.387 . S
C769 C771 1.387 . S
H770 C777 0.950 . S
C771 C769 1.387 . S
C771 C773 1.390 . S
C771 H775 0.950 . S
H772 C768 0.950 . S
C773 C771 1.390 . S
C773 C774 1.387 . S
C773 H776 0.950 . S
C774 C773 1.387 . S
C774 C777 1.387 . S
H775 C771 0.950 . S
H776 C773 0.950 . S
C777 C768 1.390 . S
C777 H770 0.950 . S
C777 C774 1.387 . S
C778 C779 1.387 . S
C778 H782 0.950 . S
C778 C787 1.390 . S
C779 C778 1.387 . S
C779 C781 1.387 . S
H780 C787 0.950 . S
C781 C779 1.387 . S
C781 C783 1.390 . S
C781 H785 0.950 . S
H782 C778 0.950 . S
C783 C781 1.390 . S
C783 C784 1.387 . S
C783 H786 0.950 . S
C784 C783 1.387 . S
C784 C787 1.387 . S
H785 C781 0.950 . S
H786 C783 0.950 . S
C787 C778 1.390 . S
C787 H780 0.950 . S
C787 C784 1.387 . S
C788 C789 1.387 . S
C788 H792 0.950 . S
C788 C797 1.390 1_554 S
C789 C788 1.387 . S
C789 C791 1.387 1_554 S
H790 C797 0.950 . S
C791 C789 1.387 1_556 S
C791 C793 1.390 . S
C791 H795 0.950 . S
H792 C788 0.950 . S
C793 C791 1.390 . S
C793 C794 1.387 . S
C793 H796 0.950 . S
C794 C793 1.387 . S
C794 C797 1.387 . S
H795 C791 0.950 . S
H796 C793 0.950 . S
C797 C788 1.390 1_556 S
C797 H790 0.950 . S
C797 C794 1.387 . S
C798 C799 1.387 . S
C798 H802 0.950 . S
C798 C807 1.390 . S
C799 C798 1.387 . S
C799 C801 1.387 1_554 S
H800 C807 0.950 . S
C801 C799 1.387 1_556 S
C801 C803 1.390 . S
C801 H805 0.950 . S
H802 C798 0.950 . S
C803 C801 1.390 . S
C803 C804 1.387 . S
C803 H806 0.950 . S
C804 C803 1.387 . S
C804 C807 1.387 1_556 S
H805 C801 0.950 . S
H806 C803 0.950 . S
C807 C798 1.390 . S
C807 H800 0.950 . S
C807 C804 1.387 1_554 S
C808 C809 1.387 . S
C808 H812 0.950 . S
C808 C817 1.390 . S
C809 C808 1.387 . S
C809 C811 1.387 . S
H810 C817 0.950 . S
C811 C809 1.387 . S
C811 C813 1.390 . S
C811 H815 0.950 . S
H812 C808 0.950 . S
C813 C811 1.390 . S
C813 C814 1.387 . S
C813 H816 0.950 . S
C814 C813 1.387 . S
C814 C817 1.387 . S
H815 C811 0.950 . S
H816 C813 0.950 . S
C817 C808 1.390 . S
C817 H810 0.950 . S
C817 C814 1.387 . S
C818 C819 1.387 . S
C818 H822 0.950 . S
C818 C827 1.390 . S
C819 C818 1.387 . S
C819 C821 1.387 . S
H820 C827 0.950 . S
C821 C819 1.387 . S
C821 C823 1.390 . S
C821 H825 0.950 . S
H822 C818 0.950 . S
C823 C821 1.390 . S
C823 C824 1.387 . S
C823 H826 0.950 . S
C824 C823 1.387 . S
C824 C827 1.387 . S
H825 C821 0.950 . S
H826 C823 0.950 . S
C827 C818 1.390 . S
C827 H820 0.950 . S
C827 C824 1.387 . S
C828 C829 1.387 1_545 S
C828 H832 0.950 . S
C828 C837 1.390 . S
C829 C828 1.387 1_565 S
C829 C831 1.387 . S
H830 C837 0.950 . S
C831 C829 1.387 . S
C831 C833 1.390 1_565 S
C831 H835 0.950 . S
H832 C828 0.950 . S
C833 C831 1.390 1_545 S
C833 C834 1.387 . S
C833 H836 0.950 . S
C834 C833 1.387 . S
C834 C837 1.387 . S
H835 C831 0.950 . S
H836 C833 0.950 . S
C837 C828 1.390 . S
C837 H830 0.950 . S
C837 C834 1.387 . S
C838 C839 1.387 . S
C838 H842 0.950 . S
C838 C847 1.390 1_545 S
C839 C838 1.387 . S
C839 C841 1.387 1_545 S
H840 C847 0.950 . S
C841 C839 1.387 1_565 S
C841 C843 1.390 . S
C841 H845 0.950 . S
H842 C838 0.950 . S
C843 C841 1.390 . S
C843 C844 1.387 . S
C843 H846 0.950 . S
C844 C843 1.387 . S
C844 C847 1.387 . S
H845 C841 0.950 . S
H846 C843 0.950 . S
C847 C838 1.390 1_565 S
C847 H840 0.950 . S
C847 C844 1.387 . S
C848 C849 1.387 . S
C848 H852 0.950 . S
C848 C857 1.390 . S
C849 C848 1.387 . S
C849 C851 1.387 1_556 S
H850 C857 0.950 . S
C851 C849 1.387 1_554 S
C851 C853 1.390 . S
C851 H855 0.950 . S
H852 C848 0.950 . S
C853 C851 1.390 . S
C853 C854 1.387 1_554 S
C853 H856 0.950 . S
C854 C853 1.387 1_556 S
C854 C857 1.387 . S
H855 C851 0.950 . S
H856 C853 0.950 . S
C857 C848 1.390 . S
C857 H850 0.950 . S
C857 C854 1.387 . S
C858 C859 1.387 . S
C858 H862 0.950 . S
C858 C867 1.390 . S
C859 C858 1.387 . S
C859 C861 1.387 1_556 S
H860 C867 0.950 . S
C861 C859 1.387 1_554 S
C861 C863 1.390 . S
C861 H865 0.950 . S
H862 C858 0.950 . S
C863 C861 1.390 . S
C863 C864 1.387 1_554 S
C863 H866 0.950 . S
C864 C863 1.387 1_556 S
C864 C867 1.387 . S
H865 C861 0.950 . S
H866 C863 0.950 . S
C867 C858 1.390 . S
C867 H860 0.950 . S
C867 C864 1.387 . S
C868 C869 1.387 . S
C868 H872 0.950 . S
C868 C877 1.390 1_455 S
C869 C868 1.387 . S
C869 C871 1.387 . S
H870 C877 0.950 . S
C871 C869 1.387 . S
C871 C873 1.390 1_455 S
C871 H875 0.950 . S
H872 C868 0.950 . S
C873 C871 1.390 1_655 S
C873 C874 1.387 . S
C873 H876 0.950 . S
C874 C873 1.387 . S
C874 C877 1.387 . S
H875 C871 0.950 . S
H876 C873 0.950 . S
C877 C868 1.390 1_655 S
C877 H870 0.950 . S
C877 C874 1.387 . S
C878 C879 1.387 . S
C878 H882 0.950 . S
C878 C887 1.390 . S
C879 C878 1.387 . S
C879 C881 1.387 . S
H880 C887 0.950 . S
C881 C879 1.387 . S
C881 C883 1.390 . S
C881 H885 0.950 . S
H882 C878 0.950 . S
C883 C881 1.390 . S
C883 C884 1.387 . S
C883 H886 0.950 . S
C884 C883 1.387 . S
C884 C887 1.387 . S
H885 C881 0.950 . S
H886 C883 0.950 . S
C887 C878 1.390 . S
C887 H880 0.950 . S
C887 C884 1.387 . S
C888 C889 1.387 . S
C888 H892 0.950 . S
C888 C897 1.390 . S
C889 C888 1.387 . S
C889 C891 1.387 . S
H890 C897 0.950 . S
C891 C889 1.387 . S
C891 C893 1.390 . S
C891 H895 0.950 . S
H892 C888 0.950 . S
C893 C891 1.390 . S
C893 C894 1.387 . S
C893 H896 0.950 . S
C894 C893 1.387 . S
C894 C897 1.387 . S
H895 C891 0.950 . S
H896 C893 0.950 . S
C897 C888 1.390 . S
C897 H890 0.950 . S
C897 C894 1.387 . S
C898 C899 1.387 . S
C898 H902 0.950 . S
C898 C907 1.390 1_445 S
C899 C898 1.387 . S
C899 C901 1.387 . S
H900 C907 0.950 . S
C901 C899 1.387 . S
C901 C903 1.390 1_445 S
C901 H905 0.950 . S
H902 C898 0.950 . S
C903 C901 1.390 1_665 S
C903 C904 1.387 . S
C903 H906 0.950 . S
C904 C903 1.387 . S
C904 C907 1.387 . S
H905 C901 0.950 . S
H906 C903 0.950 . S
C907 C898 1.390 1_665 S
C907 H900 0.950 . S
C907 C904 1.387 . S
C908 C909 1.387 . S
C908 H912 0.950 . S
C908 C917 1.390 . S
C909 C908 1.387 . S
C909 C911 1.387 . S
H910 C917 0.950 . S
C911 C909 1.387 . S
C911 C913 1.390 . S
C911 H915 0.950 . S
H912 C908 0.950 . S
C913 C911 1.390 . S
C913 C914 1.387 . S
C913 H916 0.950 . S
C914 C913 1.387 . S
C914 C917 1.387 . S
H915 C911 0.950 . S
H916 C913 0.950 . S
C917 C908 1.390 . S
C917 H910 0.950 . S
C917 C914 1.387 . S
C918 C919 1.387 . S
C918 H922 0.950 . S
C918 C927 1.390 1_565 S
C919 C918 1.387 . S
C919 C921 1.387 . S
H920 C927 0.950 . S
C921 C919 1.387 . S
C921 C923 1.390 1_565 S
C921 H925 0.950 . S
H922 C918 0.950 . S
C923 C921 1.390 1_545 S
C923 C924 1.387 . S
C923 H926 0.950 . S
C924 C923 1.387 . S
C924 C927 1.387 . S
H925 C921 0.950 . S
H926 C923 0.950 . S
C927 C918 1.390 1_545 S
C927 H920 0.950 . S
C927 C924 1.387 . S
C529 C28 1.776 . S
C534 N377 1.802 . S
C539 C61 1.776 . S
C544 N344 1.803 . S
C549 N47 1.801 . S
C554 C94 1.774 . S
C559 N14 1.802 . S
C564 C127 1.774 . S
C569 C160 1.776 . S
C574 N509 1.803 . S
C579 C193 1.776 . S
C584 N476 1.803 . S
C589 N179 1.801 . S
C594 C226 1.774 . S
C599 C259 1.774 . S
C604 N146 1.802 . S
C609 N113 1.801 . S
C614 C292 1.774 . S
C619 N80 1.802 . S
C624 C325 1.774 . S
C629 N311 1.802 . S
C634 C358 1.774 . S
C639 N278 1.803 . S
C644 C391 1.776 . S
C649 C424 1.774 . S
C654 N245 1.802 . S
C659 C457 1.775 . S
C664 N212 1.801 . S
C669 C490 1.775 . S
C674 N443 1.803 . S
C679 N410 1.803 . S
C684 C523 1.776 . S
C689 C182 1.274 1_455 S
C694 C8 1.249 . S
C699 C149 1.273 1_655 S
C704 C41 1.248 . S
C709 C74 1.249 . S
C714 C380 1.275 . S
C719 C347 1.275 . S
C724 C107 1.251 . S
C729 C50 1.274 1_455 S
C734 C140 1.250 . S
C739 C17 1.274 1_655 S
C744 C173 1.250 . S
C749 C206 1.247 . S
C754 C512 1.273 . S
C759 C239 1.251 . S
C764 C479 1.275 . S
C769 C272 1.249 . S
C774 C446 1.275 . S
C779 C413 1.273 . S
C784 C305 1.248 . S
C789 C116 1.274 . S
C794 C338 1.247 . S
C799 C83 1.275 . S
C804 C371 1.248 . S
C809 C314 1.274 . S
C814 C404 1.247 . S
C819 C281 1.275 . S
C824 C437 1.248 . S
C829 C248 1.275 . S
C834 C470 1.250 . S
C839 C215 1.275 . S
C844 C503 1.250 . S
C849 N434 1.446 . S
C854 N5 1.446 . S
C859 N38 1.446 . S
C864 N401 1.446 . S
C869 N71 1.445 . S
C874 N104 1.445 . S
C879 N302 1.445 . S
C884 N137 1.445 . S
C889 N170 1.446 . S
C894 N269 1.446 . S
C899 N203 1.446 . S
C904 N236 1.446 . S
C909 N368 1.446 . S
C914 N335 1.446 . S
C919 N500 1.446 . S
C924 N467 1.446 . S
