# Generated by pormake.
# Topology wme, (6)-cn, num edge types: 1
# Building blocks:
#     Node 0, Type 0, BuildingBlock: UKALOJ_clean_sbu_0, # of connection points: 6
#     Node 1, Type 0, BuildingBlock: UKALOJ_clean_sbu_0, # of connection points: 6
#     Node 2, Type 0, BuildingBlock: UKALOJ_clean_sbu_0, # of connection points: 6
#     Node 3, Type 0, BuildingBlock: UKALOJ_clean_sbu_0, # of connection points: 6
#     Node 4, Type 0, BuildingBlock: UKALOJ_clean_sbu_0, # of connection points: 6
#     Node 5, Type 0, BuildingBlock: UKALOJ_clean_sbu_0, # of connection points: 6
#     Node 6, Type 0, BuildingBlock: UKALOJ_clean_sbu_0, # of connection points: 6
#     Node 7, Type 0, BuildingBlock: UKALOJ_clean_sbu_0, # of connection points: 6
#     Node 8, Type 0, BuildingBlock: UKALOJ_clean_sbu_0, # of connection points: 6
#     Node 9, Type 0, BuildingBlock: UKALOJ_clean_sbu_0, # of connection points: 6
#     Node 10, Type 0, BuildingBlock: UKALOJ_clean_sbu_0, # of connection points: 6
#     Node 11, Type 0, BuildingBlock: UKALOJ_clean_sbu_0, # of connection points: 6
#     Edge 12, Type (0, 0), BuildingBlock: CIFDUS_clean_linker_0, # of connection points: 2
#     Edge 13, Type (0, 0), BuildingBlock: CIFDUS_clean_linker_0, # of connection points: 2
#     Edge 14, Type (0, 0), BuildingBlock: CIFDUS_clean_linker_0, # of connection points: 2
#     Edge 15, Type (0, 0), BuildingBlock: CIFDUS_clean_linker_0, # of connection points: 2
#     Edge 16, Type (0, 0), BuildingBlock: CIFDUS_clean_linker_0, # of connection points: 2
#     Edge 17, Type (0, 0), BuildingBlock: CIFDUS_clean_linker_0, # of connection points: 2
#     Edge 18, Type (0, 0), BuildingBlock: CIFDUS_clean_linker_0, # of connection points: 2
#     Edge 19, Type (0, 0), BuildingBlock: CIFDUS_clean_linker_0, # of connection points: 2
#     Edge 20, Type (0, 0), BuildingBlock: CIFDUS_clean_linker_0, # of connection points: 2
#     Edge 21, Type (0, 0), BuildingBlock: CIFDUS_clean_linker_0, # of connection points: 2
#     Edge 22, Type (0, 0), BuildingBlock: CIFDUS_clean_linker_0, # of connection points: 2
#     Edge 23, Type (0, 0), BuildingBlock: CIFDUS_clean_linker_0, # of connection points: 2
#     Edge 24, Type (0, 0), BuildingBlock: CIFDUS_clean_linker_0, # of connection points: 2
#     Edge 25, Type (0, 0), BuildingBlock: CIFDUS_clean_linker_0, # of connection points: 2
#     Edge 26, Type (0, 0), BuildingBlock: CIFDUS_clean_linker_0, # of connection points: 2
#     Edge 27, Type (0, 0), BuildingBlock: CIFDUS_clean_linker_0, # of connection points: 2
#     Edge 28, Type (0, 0), BuildingBlock: CIFDUS_clean_linker_0, # of connection points: 2
#     Edge 29, Type (0, 0), BuildingBlock: CIFDUS_clean_linker_0, # of connection points: 2
#     Edge 30, Type (0, 0), BuildingBlock: CIFDUS_clean_linker_0, # of connection points: 2
#     Edge 31, Type (0, 0), BuildingBlock: CIFDUS_clean_linker_0, # of connection points: 2
#     Edge 32, Type (0, 0), BuildingBlock: CIFDUS_clean_linker_0, # of connection points: 2
#     Edge 33, Type (0, 0), BuildingBlock: CIFDUS_clean_linker_0, # of connection points: 2
#     Edge 34, Type (0, 0), BuildingBlock: CIFDUS_clean_linker_0, # of connection points: 2
#     Edge 35, Type (0, 0), BuildingBlock: CIFDUS_clean_linker_0, # of connection points: 2
#     Edge 36, Type (0, 0), BuildingBlock: CIFDUS_clean_linker_0, # of connection points: 2
#     Edge 37, Type (0, 0), BuildingBlock: CIFDUS_clean_linker_0, # of connection points: 2
#     Edge 38, Type (0, 0), BuildingBlock: CIFDUS_clean_linker_0, # of connection points: 2
#     Edge 39, Type (0, 0), BuildingBlock: CIFDUS_clean_linker_0, # of connection points: 2
#     Edge 40, Type (0, 0), BuildingBlock: CIFDUS_clean_linker_0, # of connection points: 2
#     Edge 41, Type (0, 0), BuildingBlock: CIFDUS_clean_linker_0, # of connection points: 2
#     Edge 42, Type (0, 0), BuildingBlock: CIFDUS_clean_linker_0, # of connection points: 2
#     Edge 43, Type (0, 0), BuildingBlock: CIFDUS_clean_linker_0, # of connection points: 2
#     Edge 44, Type (0, 0), BuildingBlock: CIFDUS_clean_linker_0, # of connection points: 2
#     Edge 45, Type (0, 0), BuildingBlock: CIFDUS_clean_linker_0, # of connection points: 2
#     Edge 46, Type (0, 0), BuildingBlock: CIFDUS_clean_linker_0, # of connection points: 2
#     Edge 47, Type (0, 0), BuildingBlock: CIFDUS_clean_linker_0, # of connection points: 2
# Relax obj value: 0.111
# Max RMSD: 0.176
# Mean RMSD: 0.176
data_MOF--net-wme--node1-UKALOJ_clean_sbu_0--edge1-CIFDUS_clean_linker_0
_symmetry_space_group_name_H-M    P1
_symmetry_Int_Tables_number       1
_symmetry_cell_setting            triclinic
loop_
_symmetry_equiv_pos_as_xyz
'x, y, z'
_cell_length_a     25.221825
_cell_length_b     25.142091
_cell_length_c     71.749098
_cell_angle_alpha  89.94559
_cell_angle_beta   90.13824
_cell_angle_gamma 120.09457
loop_
_atom_site_label
_atom_site_type_symbol
_atom_site_fract_x
_atom_site_fract_y
_atom_site_fract_z
_atom_type_partial_charge
Zn0 Zn 0.22392 0.33063 0.16262 0.0
O1 O 0.18972 0.39311 0.16203 0.0
C2 C 0.34225 0.42716 0.15075 0.0
Zn3 Zn 0.22555 0.33192 0.13171 0.0
C4 C 0.18111 0.4116 0.1464 0.0
O5 O 0.1952 0.39458 0.1315 0.0
C6 C 0.2609 0.24494 0.14726 0.0
O7 O 0.13235 0.26063 0.12948 0.0
O8 O 0.13587 0.25934 0.16001 0.0
N9 N 0.23486 0.33966 0.10337 0.0
C10 C 0.21506 0.29761 0.08955 0.0
C11 C 0.26949 0.38569 0.07709 0.0
N12 N 0.26836 0.39432 0.09557 0.0
N13 N 0.23618 0.32541 0.07288 0.0
C14 C 0.21353 0.35702 0.20435 0.0
C15 C 0.17932 0.26747 0.2158 0.0
N16 N 0.21203 0.32004 0.19054 0.0
N17 N 0.19108 0.26458 0.1977 0.0
N18 N 0.19243 0.3248 0.22039 0.0
H19 H 0.20037 0.43304 0.19855 0.0
H20 H 0.26019 0.44939 0.21527 0.0
H21 H 0.27238 0.44349 0.19072 0.0
C22 C 0.23837 0.42473 0.20214 0.0
C23 C 0.17773 0.22947 0.09255 0.0
H24 H 0.17905 0.21694 0.1072 0.0
H25 H 0.12921 0.21352 0.08901 0.0
H26 H 0.19426 0.20515 0.08345 0.0
O27 O 0.2543 0.26671 0.13204 0.0
O28 O 0.25467 0.26655 0.16257 0.0
C29 C 0.10644 0.23843 0.14499 0.0
O30 O 0.31253 0.40239 0.16551 0.0
O31 O 0.31772 0.40559 0.13494 0.0
Zn32 Zn 0.88008 0.21059 0.62583 0.0
O33 O 0.86115 0.11862 0.62275 0.0
C34 C 0.00134 0.24625 0.64201 0.0
Zn35 Zn 0.87764 0.20584 0.65682 0.0
C36 C 0.85603 0.09116 0.63809 0.0
O37 O 0.8613 0.11831 0.65338 0.0
C38 C 0.89895 0.32452 0.64578 0.0
O39 O 0.78121 0.17168 0.6557 0.0
O40 O 0.78599 0.17789 0.62515 0.0
N41 N 0.87484 0.19133 0.68479 0.0
C42 C 0.8398 0.19266 0.69874 0.0
C43 C 0.89595 0.15944 0.71005 0.0
N44 N 0.90977 0.17091 0.69188 0.0
N45 N 0.85186 0.17225 0.7148 0.0
C46 C 0.91369 0.21161 0.58385 0.0
C47 C 0.87643 0.26331 0.57179 0.0
N48 N 0.88466 0.22378 0.59755 0.0
N49 N 0.8612 0.25547 0.58996 0.0
N50 N 0.90935 0.23619 0.56752 0.0
H51 H 0.95594 0.17285 0.60155 0.0
H52 H 0.92251 0.13189 0.58057 0.0
H53 H -0.00618 0.20349 0.57953 0.0
C54 C 0.94884 0.17858 0.58668 0.0
C55 C 0.79643 0.21667 0.69661 0.0
H56 H 0.81117 0.25068 0.68516 0.0
H57 H 0.7502 0.17805 0.69309 0.0
H58 H 0.79363 0.23843 0.70973 0.0
O59 O 0.89449 0.2943 0.66041 0.0
O60 O 0.89618 0.30091 0.62985 0.0
C61 C 0.75456 0.16377 0.64001 0.0
O62 O 0.97439 0.24251 0.62674 0.0
O63 O 0.97204 0.23657 0.65719 0.0
Zn64 Zn 0.66604 0.90228 0.16215 0.0
O65 O 0.60351 0.80597 0.16078 0.0
C66 C 0.56987 0.92495 0.15101 0.0
Zn67 Zn 0.66508 0.90787 0.13086 0.0
C68 C 0.58571 0.78107 0.1448 0.0
O69 O 0.6041 0.81404 0.13023 0.0
C70 C 0.74943 0.02741 0.14726 0.0
O71 O 0.7383 0.88945 0.12783 0.0
O72 O 0.73709 0.88589 0.15849 0.0
N73 N 0.65632 0.91245 0.10228 0.0
C74 C 0.69521 0.9499 0.08903 0.0
C75 C 0.60982 0.89145 0.07568 0.0
N76 N 0.6034 0.8761 0.09388 0.0
N77 N 0.66695 0.93795 0.07222 0.0
C78 C 0.64177 0.86711 0.20501 0.0
C79 C 0.73258 0.92139 0.2156 0.0
N80 N 0.67787 0.89956 0.19055 0.0
N81 N 0.73409 0.93337 0.19727 0.0
N82 N 0.67521 0.88004 0.22086 0.0
H83 H 0.57133 0.77403 0.20107 0.0
H84 H 0.55039 0.81732 0.21621 0.0
H85 H 0.55438 0.82973 0.19119 0.0
C86 C 0.57541 0.81962 0.20327 0.0
C87 C 0.76151 -0.00446 0.0924 0.0
H88 H 0.77992 0.98021 0.10395 0.0
H89 H 0.78887 0.00203 0.07964 0.0
H90 H 0.76622 0.04039 0.09628 0.0
O91 O 0.72668 0.00143 0.13184 0.0
O92 O 0.72992 -0.00291 0.16233 0.0
C93 C 0.75964 0.88233 0.14312 0.0
O94 O 0.59465 0.91895 0.16566 0.0
O95 O 0.59123 0.92353 0.13506 0.0
Zn96 Zn 0.73395 0.64099 0.62679 0.0
O97 O 0.82637 0.70898 0.62307 0.0
C98 C 0.71185 0.73346 0.64225 0.0
Zn99 Zn 0.74733 0.64449 0.65791 0.0
C100 C 0.86148 0.72843 0.63721 0.0
O101 O 0.8397 0.70977 0.6534 0.0
C102 C 0.62146 0.55278 0.64711 0.0
O103 O 0.772 0.57631 0.65738 0.0
O104 O 0.76075 0.57512 0.62693 0.0
N105 N 0.76204 0.65737 0.68658 0.0
C106 C 0.75591 0.62039 0.70113 0.0
C107 C 0.79051 0.71062 0.712 0.0
N108 N 0.78349 0.7133 0.69347 0.0
N109 N 0.77378 0.65287 0.71734 0.0
C110 C 0.72592 0.6691 0.58462 0.0
C111 C 0.69628 0.58165 0.57219 0.0
N112 N 0.72062 0.63019 0.59844 0.0
N113 N 0.70226 0.57596 0.59064 0.0
N114 N 0.71054 0.63959 0.56804 0.0
H115 H 0.78256 0.7548 0.59896 0.0
H116 H 0.77196 0.7624 0.57437 0.0
H117 H 0.71042 0.7435 0.59049 0.0
C118 C 0.74945 0.73645 0.58724 0.0
C119 C 0.72941 0.55235 0.69938 0.0
H120 H 0.76708 0.54241 0.69711 0.0
H121 H 0.70427 0.52851 0.71223 0.0
H122 H 0.69801 0.53432 0.68726 0.0
O123 O 0.65467 0.57663 0.6615 0.0
O124 O 0.64333 0.57265 0.63101 0.0
C125 C 0.77524 0.55619 0.64141 0.0
O126 O 0.70828 0.7067 0.62699 0.0
O127 O 0.72522 0.71529 0.65717 0.0
Zn128 Zn 0.09064 0.76024 0.13039 0.0
O129 O 0.11697 0.85332 0.1251 0.0
C130 C 0.97584 0.74073 0.14487 0.0
Zn131 Zn 0.09924 0.7758 0.16119 0.0
C132 C 0.13302 0.8893 0.13905 0.0
O133 O 0.12822 0.86773 0.15535 0.0
C134 C 0.06512 0.64918 0.1529 0.0
O135 O 0.19158 0.79926 0.16148 0.0
O136 O 0.18264 0.78654 0.13104 0.0
N137 N 0.09924 0.79456 0.18907 0.0
C138 C 0.12556 0.78815 0.20471 0.0
C139 C 0.06774 0.82322 0.2129 0.0
N140 N 0.0637 0.81664 0.19428 0.0
N141 N 0.10628 0.80577 0.21986 0.0
C142 C 0.06452 0.75782 0.08767 0.0
C143 C 0.09554 0.69856 0.07748 0.0
N144 N 0.08756 0.74219 0.10234 0.0
N145 N 0.10705 0.70566 0.09593 0.0
N146 N 0.06903 0.73097 0.07185 0.0
H147 H 0.02268 0.80084 0.1035 0.0
H148 H 0.06799 0.84397 0.08418 0.0
H149 H -0.00655 0.7778 0.08018 0.0
C150 C 0.03508 0.79684 0.08906 0.0
C151 C 0.16754 0.76224 0.20514 0.0
H152 H 0.15813 0.73067 0.19322 0.0
H153 H 0.21556 0.80055 0.20404 0.0
H154 H 0.16261 0.73765 0.21845 0.0
O155 O 0.07275 0.68378 0.16676 0.0
O156 O 0.06798 0.66947 0.13646 0.0
C157 C 0.21541 0.8015 0.14567 0.0
O158 O -0.00133 0.73455 0.12993 0.0
O159 O 0.00721 0.75499 0.15981 0.0
Zn160 Zn 0.30722 0.06987 0.66391 0.0
O161 O 0.37485 0.16243 0.66618 0.0
C162 C 0.40053 0.04637 0.65033 0.0
Zn163 Zn 0.31146 0.08122 0.63294 0.0
C164 C 0.39648 0.19687 0.652 0.0
O165 O 0.37888 0.17471 0.63575 0.0
C166 C 0.21716 0.95533 0.6456 0.0
O167 O 0.24507 0.10881 0.6317 0.0
O168 O 0.24135 0.09697 0.66208 0.0
N169 N 0.32221 0.08616 0.60422 0.0
C170 C 0.28276 0.0539 0.59036 0.0
C171 C 0.37085 0.10618 0.57803 0.0
N172 N 0.3769 0.11905 0.59644 0.0
N173 N 0.31214 0.06502 0.57386 0.0
C174 C 0.33038 0.09371 0.7066 0.0
C175 C 0.23926 0.04072 0.71688 0.0
N176 N 0.29392 0.06355 0.69199 0.0
N177 N 0.23745 0.03034 0.69845 0.0
N178 N 0.29695 0.08079 0.72242 0.0
H179 H 0.4167 0.11824 0.69364 0.0
H180 H 0.41052 0.18132 0.70274 0.0
H181 H 0.42067 0.1313 0.71853 0.0
C182 C 0.39861 0.13316 0.70533 0.0
C183 C 0.21523 0.013 0.59279 0.0
H184 H 0.19857 0.02762 0.60493 0.0
H185 H 0.19042 0.01354 0.58006 0.0
H186 H 0.20545 0.96531 0.59499 0.0
O187 O 0.24117 0.98758 0.6311 0.0
O188 O 0.23854 0.97802 0.66149 0.0
C189 C 0.22396 0.11227 0.64744 0.0
O190 O 0.37438 0.04503 0.66557 0.0
O191 O 0.38108 0.05701 0.63516 0.0
Zn192 Zn 0.65425 0.77192 0.41488 0.0
O193 O 0.71778 0.86363 0.41886 0.0
C194 C 0.75159 0.74878 0.40396 0.0
Zn195 Zn 0.66522 0.7782 0.38375 0.0
C196 C 0.74246 0.89688 0.40465 0.0
O197 O 0.7295 0.873 0.38843 0.0
C198 C 0.57337 0.65422 0.39489 0.0
O199 O 0.59863 0.8008 0.37967 0.0
O200 O 0.58596 0.79722 0.4101 0.0
N201 N 0.68753 0.78962 0.35577 0.0
C202 C 0.65646 0.78063 0.33958 0.0
C203 C 0.75007 0.81462 0.33263 0.0
N204 N 0.74563 0.81087 0.35131 0.0
N205 N 0.69488 0.7961 0.32482 0.0
C206 C 0.66822 0.76596 0.45807 0.0
C207 C 0.57684 0.73245 0.46746 0.0
N208 N 0.634 0.76065 0.44293 0.0
N209 N 0.5773 0.74014 0.44885 0.0
N210 N 0.63332 0.74801 0.4736 0.0
H211 H 0.75767 0.82517 0.44632 0.0
H212 H 0.75697 0.81422 0.47126 0.0
H213 H 0.74556 0.75342 0.45569 0.0
C214 C 0.73614 0.79156 0.4578 0.0
C215 C 0.58856 0.75411 0.33831 0.0
H216 H 0.5654 0.72481 0.35058 0.0
H217 H 0.57843 0.79224 0.33802 0.0
H218 H 0.57028 0.72678 0.32535 0.0
O219 O 0.59896 0.68452 0.38016 0.0
O220 O 0.58981 0.67997 0.4107 0.0
C221 C 0.57239 0.80715 0.39383 0.0
O222 O 0.72357 0.74945 0.41854 0.0
O223 O 0.73376 0.75667 0.38819 0.0
Zn224 Zn 0.85492 0.63654 0.88467 0.0
O225 O 0.7618 0.56821 0.88781 0.0
C226 C 0.89006 0.54714 0.90035 0.0
Zn227 Zn 0.8668 0.63941 0.91583 0.0
C228 C 0.74017 0.55122 0.90416 0.0
O229 O 0.77498 0.57299 0.91827 0.0
C230 C 0.98043 0.72877 0.89751 0.0
O231 O 0.84147 0.707 0.91523 0.0
O232 O 0.8283 0.70302 0.88485 0.0
N233 N 0.87464 0.64824 0.94428 0.0
C234 C 0.91318 0.64454 0.95661 0.0
C235 C 0.85897 0.67308 0.97169 0.0
N236 N 0.84099 0.66587 0.95372 0.0
N237 N 0.90408 0.65978 0.97386 0.0
C238 C 0.81446 0.63579 0.84249 0.0
C239 C 0.87891 0.61947 0.82826 0.0
N240 N 0.84999 0.63025 0.85564 0.0
N241 N 0.8898 0.61999 0.84667 0.0
N242 N 0.83192 0.62949 0.82509 0.0
H243 H 0.77659 0.69387 0.84711 0.0
H244 H 0.72449 0.6213 0.83626 0.0
H245 H 0.74221 0.62499 0.86085 0.0
C246 C 0.76105 0.64406 0.84692 0.0
C247 C 0.96196 0.62965 0.95163 0.0
H248 H 0.97881 0.64478 0.93728 0.0
H249 H 0.00105 0.65171 0.96151 0.0
H250 H 0.94234 0.57914 0.95244 0.0
O251 O 0.95746 0.70627 0.91324 0.0
O252 O 0.9481 0.70736 0.88283 0.0
C253 C 0.82569 0.72431 0.90066 0.0
O254 O 0.87967 0.5678 0.88542 0.0
O255 O 0.88948 0.57081 0.91589 0.0
Zn256 Zn 0.23 0.91534 0.38105 0.0
O257 O 0.1977 0.82131 0.38013 0.0
C258 C 0.34525 0.93573 0.39623 0.0
Zn259 Zn 0.22527 0.91048 0.41227 0.0
C260 C 0.18469 0.78909 0.39485 0.0
O261 O 0.19399 0.81494 0.41073 0.0
C262 C 0.264 0.03522 0.39783 0.0
O263 O 0.13346 0.88842 0.41273 0.0
O264 O 0.13919 0.89532 0.38217 0.0
N265 N 0.22957 0.90871 0.441 0.0
C266 C 0.22537 0.94466 0.45422 0.0
C267 C 0.25453 0.88832 0.46777 0.0
N268 N 0.2473 0.87347 0.44952 0.0
N269 N 0.24154 0.93331 0.4711 0.0
C270 C 0.23443 0.89016 0.33804 0.0
C271 C 0.20157 0.94664 0.3267 0.0
N272 N 0.22625 0.91989 0.35245 0.0
N273 N 0.20627 0.95522 0.34528 0.0
N274 N 0.21937 0.90636 0.32178 0.0
H275 H 0.27607 0.8469 0.35354 0.0
H276 H 0.21296 0.79669 0.33846 0.0
H277 H 0.28592 0.84883 0.32847 0.0
C278 C 0.25385 0.84313 0.33988 0.0
C279 C 0.2023 0.98832 0.45077 0.0
H280 H 0.17036 0.97303 0.43874 0.0
H281 H 0.17868 -0.00802 0.46332 0.0
H282 H 0.24156 0.0345 0.44768 0.0
O283 O 0.25451 0.00501 0.41284 0.0
O284 O 0.25965 0.00906 0.38234 0.0
C285 C 0.10808 0.88389 0.39703 0.0
O286 O 0.3202 0.93307 0.38059 0.0
O287 O 0.31623 0.93014 0.41122 0.0
Zn288 Zn 0.29002 0.20326 0.91504 0.0
O289 O 0.2209 0.10857 0.91278 0.0
C290 C 0.20327 0.23596 0.8974 0.0
Zn291 Zn 0.2965 0.20847 0.88408 0.0
C292 C 0.20515 0.08511 0.89659 0.0
O293 O 0.22944 0.11802 0.88237 0.0
C294 C 0.38485 0.32587 0.90122 0.0
O295 O 0.36444 0.18209 0.88679 0.0
O296 O 0.35502 0.17672 0.91726 0.0
N297 N 0.30443 0.2115 0.85572 0.0
C298 C 0.299 0.16865 0.84335 0.0
C299 C 0.31511 0.24775 0.82787 0.0
N300 N 0.31458 0.26064 0.84607 0.0
N301 N 0.30505 0.19014 0.82577 0.0
C302 C 0.28764 0.24103 0.95609 0.0
C303 C 0.25728 0.15661 0.97061 0.0
N304 N 0.28024 0.19846 0.94335 0.0
N305 N 0.26134 0.14605 0.9524 0.0
N306 N 0.2738 0.21593 0.97326 0.0
H307 H 0.28686 0.30868 0.93774 0.0
H308 H 0.28648 0.32457 0.96225 0.0
H309 H 0.35537 0.33497 0.95144 0.0
C310 C 0.30469 0.30595 0.95161 0.0
C311 C 0.29054 0.10696 0.84853 0.0
H312 H 0.24088 0.07263 0.84884 0.0
H313 H 0.31302 0.09191 0.8382 0.0
H314 H 0.30949 0.10773 0.86246 0.0
O315 O 0.36402 0.30001 0.88563 0.0
O316 O 0.36149 0.29629 0.91621 0.0
C317 C 0.37907 0.17023 0.9026 0.0
O318 O 0.22301 0.22845 0.91288 0.0
O319 O 0.22763 0.23226 0.88232 0.0
Zn320 Zn 0.09242 0.34827 0.38241 0.0
O321 O 0.18255 0.41896 0.38197 0.0
C322 C 0.06647 0.43479 0.40168 0.0
Zn323 Zn 0.10366 0.34362 0.41303 0.0
C324 C 0.21796 0.43649 0.39597 0.0
O325 O 0.19731 0.41314 0.41192 0.0
C326 C 0.97918 0.25157 0.39828 0.0
O327 O 0.13143 0.27867 0.40994 0.0
O328 O 0.12121 0.28305 0.37973 0.0
N329 N 0.10714 0.33655 0.44143 0.0
C330 C 0.07085 0.33819 0.45493 0.0
C331 C 0.13293 0.31538 0.46796 0.0
N332 N 0.14572 0.32243 0.44957 0.0
N333 N 0.08636 0.3254 0.47164 0.0
C334 C 0.12286 0.34724 0.34082 0.0
C335 C 0.05124 0.35345 0.32699 0.0
N336 N 0.08796 0.35241 0.35409 0.0
N337 N 0.04365 0.35657 0.34548 0.0
N338 N 0.10034 0.34705 0.32374 0.0
H339 H 0.16883 0.29619 0.34544 0.0
H340 H 0.21343 0.36678 0.33286 0.0
H341 H 0.20288 0.36781 0.35756 0.0
C342 C 0.18035 0.3448 0.34443 0.0
C343 C 0.01774 0.34827 0.45172 0.0
H344 H 0.98071 0.32186 0.46194 0.0
H345 H 0.03349 0.39777 0.45364 0.0
H346 H -0.00105 0.33472 0.43748 0.0
O347 O 0.01086 0.27141 0.41311 0.0
O348 O 0.0022 0.27754 0.38288 0.0
C349 C 0.13633 0.26231 0.39363 0.0
O350 O 0.0654 0.41369 0.38552 0.0
O351 O 0.079 0.41209 0.41569 0.0
Zn352 Zn 0.72231 0.06674 0.87742 0.0
O353 O 0.74758 0.15932 0.87702 0.0
C354 C 0.60707 0.04359 0.8931 0.0
Zn355 Zn 0.73026 0.07368 0.90856 0.0
C356 C 0.76302 0.19228 0.89158 0.0
O357 O 0.75913 0.16786 0.90741 0.0
C358 C 0.69504 0.94912 0.89348 0.0
O359 O 0.82339 0.09794 0.90815 0.0
O360 O 0.81448 0.09087 0.8776 0.0
N361 N 0.72844 0.07658 0.93751 0.0
C362 C 0.73485 0.04271 0.95101 0.0
C363 C 0.70842 0.10131 0.96438 0.0
N364 N 0.71245 0.11328 0.94594 0.0
N365 N 0.72189 0.0568 0.96798 0.0
C366 C 0.76405 0.09992 0.83623 0.0
C367 C 0.68583 0.03275 0.8213 0.0
N368 N 0.72134 0.06471 0.84893 0.0
N369 N 0.67279 0.0231 0.83962 0.0
N370 N 0.74296 0.08049 0.81878 0.0
H371 H 0.82433 0.17532 0.85442 0.0
H372 H 0.85998 0.14047 0.84185 0.0
H373 H 0.83929 0.19059 0.82994 0.0
C374 C 0.82509 0.15488 0.8409 0.0
C375 C 0.75636 -0.00203 0.94768 0.0
H376 H 0.78557 0.01082 0.93507 0.0
H377 H 0.78248 -0.00386 0.9599 0.0
H378 H 0.71576 0.95174 0.94568 0.0
O379 O 0.70363 0.97914 0.90857 0.0
O380 O 0.69781 0.97473 0.878 0.0
C381 C 0.84723 0.10289 0.89216 0.0
O382 O 0.6311 0.04379 0.87758 0.0
O383 O 0.63768 0.05255 0.90805 0.0
H384 H 0.19365 0.97645 0.16516 0.0
H385 H 0.13835 0.95276 0.10734 0.0
H386 H 0.18526 0.06429 0.1039 0.0
H387 H 0.23324 0.16654 0.11814 0.0
H388 H 0.28216 0.18847 0.17649 0.0
H389 H 0.24902 0.07928 0.17865 0.0
C390 C 0.19172 -0.00447 0.15177 0.0
C391 C 0.16149 0.95637 0.13661 0.0
C392 C 0.21859 0.05927 0.14993 0.0
C393 C 0.16065 0.98195 0.11928 0.0
C394 C 0.18772 0.04564 0.11729 0.0
C395 C 0.23791 0.14786 0.13125 0.0
C396 C 0.25931 0.18546 0.14721 0.0
C397 C 0.21586 0.08457 0.13262 0.0
C398 C 0.26558 0.16047 0.16403 0.0
C399 C 0.24595 0.09793 0.16533 0.0
H400 H 0.19995 0.1774 0.62168 0.0
H401 H 0.15854 0.10731 0.67797 0.0
H402 H 0.09562 0.15435 0.6824 0.0
H403 H 0.04655 0.20842 0.6698 0.0
H404 H 0.0812 0.27355 0.61299 0.0
H405 H 0.15478 0.23787 0.60956 0.0
C406 C 0.17685 0.17221 0.63485 0.0
C407 C 0.1833 0.13827 0.64937 0.0
C408 C 0.14064 0.1996 0.63738 0.0
C409 C 0.15396 0.13279 0.66649 0.0
C410 C 0.11827 0.16002 0.66911 0.0
C411 C 0.07141 0.2165 0.65681 0.0
C412 C 0.05831 0.24343 0.64167 0.0
C413 C 0.11091 0.19304 0.65463 0.0
C414 C 0.09066 0.25304 0.62489 0.0
C415 C 0.13205 0.23186 0.62283 0.0
H416 H 0.84111 0.05147 0.17048 0.0
H417 H 0.79487 0.12204 0.12212 0.0
H418 H 0.90401 0.19271 0.11608 0.0
H419 H 0.01285 0.22827 0.12353 0.0
H420 H 0.05526 0.14937 0.17069 0.0
H421 H 0.9468 0.08571 0.17778 0.0
C422 C 0.85471 0.08372 0.15896 0.0
C423 C 0.81034 0.08242 0.14691 0.0
C424 C 0.91678 0.12063 0.15492 0.0
C425 C 0.82861 0.12315 0.13173 0.0
C426 C 0.89083 0.1626 0.1281 0.0
C427 C -0.00208 0.19613 0.13508 0.0
C428 C 0.04139 0.19276 0.14648 0.0
C429 C 0.93534 0.16021 0.13927 0.0
C430 C 0.02216 0.15213 0.16168 0.0
C431 C 0.96039 0.11637 0.16588 0.0
H432 H 0.7882 0.82834 0.66332 0.0
H433 H 0.65909 0.7774 0.618 0.0
H434 H 0.69653 0.88624 0.61129 0.0
H435 H 0.77035 -0.00387 0.61765 0.0
H436 H 0.90304 0.04344 0.66179 0.0
H437 H 0.86165 0.93516 0.66915 0.0
C438 C 0.76693 0.84095 0.65232 0.0
C439 C 0.72028 0.79535 0.64139 0.0
C440 C 0.79115 0.90277 0.64787 0.0
C441 C 0.69441 0.81218 0.6268 0.0
C442 C 0.7165 0.87418 0.62277 0.0
C443 C 0.79088 0.98224 0.62852 0.0
C444 C 0.83979 0.02689 0.63907 0.0
C445 C 0.76603 0.91986 0.63292 0.0
C446 C 0.86556 0.00921 0.65344 0.0
C447 C 0.84149 0.94761 0.6578 0.0
H448 H 0.95427 0.81298 0.167 0.0
H449 H 0.88332 0.6944 0.11896 0.0
H450 H 0.81175 0.73177 0.11296 0.0
H451 H 0.77281 0.80209 0.12095 0.0
H452 H 0.85134 0.92454 0.1679 0.0
H453 H 0.9188 0.88354 0.1743 0.0
C454 C 0.92213 0.79403 0.15547 0.0
C455 C 0.9231 0.75023 0.14364 0.0
C456 C 0.88427 0.81818 0.15152 0.0
C457 C 0.88242 0.72745 0.12845 0.0
C458 C 0.84234 0.74949 0.12485 0.0
C459 C 0.80581 0.82052 0.13226 0.0
C460 C 0.80779 0.8663 0.14389 0.0
C461 C 0.8439 0.79597 0.13607 0.0
C462 C 0.84959 0.88936 0.15876 0.0
C463 C 0.88756 0.86554 0.16256 0.0
H464 H 0.95046 0.74428 0.66137 0.0
H465 H 0.92111 0.80221 0.60755 0.0
H466 H 0.03154 0.87112 0.60411 0.0
H467 H 0.13383 0.92119 0.61781 0.0
H468 H 0.16358 0.86484 0.67174 0.0
H469 H 0.05488 0.78737 0.6736 0.0
C470 C 0.96826 0.77205 0.64889 0.0
C471 C 0.92786 0.76924 0.63488 0.0
C472 C 0.03153 0.81099 0.64696 0.0
C473 C 0.95144 0.80422 0.6186 0.0
C474 C 0.01445 0.84337 0.6166 0.0
C475 C 0.11734 0.8906 0.62963 0.0
C476 C 0.15692 0.89864 0.64453 0.0
C477 C 0.05472 0.84771 0.63083 0.0
C478 C 0.13402 0.85943 0.66004 0.0
C479 C 0.07183 0.81559 0.66119 0.0
H480 H 0.02302 0.83073 0.42451 0.0
H481 H 0.04398 0.87878 0.36605 0.0
H482 H 0.9335 0.82966 0.36256 0.0
H483 H 0.83255 0.77846 0.37611 0.0
H484 H 0.80905 0.73586 0.43487 0.0
H485 H 0.9192 0.77503 0.43805 0.0
C486 C 0.00335 0.83086 0.41106 0.0
C487 C 0.04162 0.85887 0.39562 0.0
C488 C 0.93956 0.80243 0.4091 0.0
C489 C 0.01555 0.85794 0.37821 0.0
C490 C 0.95237 0.82945 0.37614 0.0
C491 C 0.85101 0.77654 0.38961 0.0
C492 C 0.81276 0.75512 0.4053 0.0
C493 C 0.91414 0.80187 0.39148 0.0
C494 C 0.83766 0.7527 0.42261 0.0
C495 C 0.90067 0.77566 0.42446 0.0
H496 H 0.01551 0.81706 0.8714 0.0
H497 H 0.07094 0.77464 0.92367 0.0
H498 H 0.1463 0.88319 0.92827 0.0
H499 H 0.18752 -0.00875 0.91912 0.0
H500 H 0.12957 0.03277 0.86718 0.0
H501 H 0.06284 0.92344 0.86097 0.0
C502 C 0.04544 0.83128 0.8835 0.0
C503 C 0.03762 0.78823 0.89721 0.0
C504 C 0.08654 0.89379 0.88644 0.0
C505 C 0.07628 0.80727 0.91292 0.0
C506 C 0.11871 0.86933 0.91569 0.0
C507 C 0.15976 0.9761 0.90657 0.0
C508 C 0.16219 0.0195 0.89381 0.0
C509 C 0.12232 0.9132 0.90293 0.0
C510 C 0.12758 -0.00021 0.8773 0.0
C511 C 0.08988 0.93744 0.87366 0.0
H512 H 0.20424 0.23979 0.4182 0.0
H513 H 0.13 0.19795 0.36239 0.0
H514 H 0.17528 0.13314 0.35752 0.0
H515 H 0.22658 0.08084 0.37015 0.0
H516 H 0.29636 0.11768 0.42646 0.0
H517 H 0.26381 0.19389 0.42995 0.0
C518 C 0.19791 0.21638 0.40499 0.0
C519 C 0.16322 0.22289 0.39075 0.0
C520 C 0.22383 0.17908 0.40232 0.0
C521 C 0.15636 0.19339 0.37357 0.0
C522 C 0.18233 0.1565 0.37077 0.0
C523 C 0.23637 0.10679 0.38302 0.0
C524 C 0.26298 0.09315 0.39815 0.0
C525 C 0.21528 0.14831 0.38514 0.0
C526 C 0.2751 0.12692 0.41474 0.0
C527 C 0.25612 0.17007 0.41676 0.0
H528 H 0.11927 0.1902 0.86993 0.0
H529 H 0.1522 0.27028 0.92488 0.0
H530 H 0.04319 0.23585 0.92819 0.0
H531 H 0.93738 0.17302 0.91676 0.0
H532 H 0.90517 0.08899 0.86237 0.0
H533 H 0.01508 0.13387 0.85769 0.0
C534 C 0.10293 0.20185 0.88239 0.0
C535 C 0.14348 0.23273 0.89713 0.0
C536 C 0.0401 0.1794 0.88454 0.0
C537 C 0.1216 0.24669 0.91332 0.0
C538 C 0.05927 0.22632 0.91531 0.0
C539 C 0.95454 0.16428 0.90396 0.0
C540 C 0.9134 0.12718 0.89004 0.0
C541 C 0.01785 0.19056 0.9013 0.0
C542 C 0.93608 0.11717 0.87334 0.0
C543 C -0.00113 0.14305 0.8706 0.0
H544 H 0.93303 0.16905 0.42647 0.0
H545 H 0.89806 0.19924 0.3696 0.0
H546 H 0.81972 0.09116 0.36671 0.0
H547 H 0.76998 0.98623 0.37915 0.0
H548 H 0.80614 0.9559 0.43583 0.0
H549 H 0.87597 0.06601 0.43989 0.0
C550 C 0.90728 0.15237 0.41358 0.0
C551 C 0.92186 0.19186 0.3982 0.0
C552 C 0.8637 0.08991 0.41182 0.0
C553 C 0.88796 0.16959 0.38161 0.0
C554 C 0.84355 0.10769 0.37988 0.0
C555 C 0.79327 0.00383 0.39236 0.0
C556 C 0.784 0.96321 0.40705 0.0
C557 C 0.83281 0.06708 0.39466 0.0
C558 C 0.81316 0.98647 0.42426 0.0
C559 C 0.85286 0.04934 0.42662 0.0
H560 H 0.76012 0.74647 0.87487 0.0
H561 H 0.83126 0.79121 0.93102 0.0
H562 H 0.78542 0.85568 0.93487 0.0
H563 H 0.73327 0.90528 0.92152 0.0
H564 H 0.6665 0.86675 0.86498 0.0
H565 H 0.70052 0.7915 0.86224 0.0
C566 C 0.76583 0.7706 0.88789 0.0
C567 C 0.79984 0.76496 0.90252 0.0
C568 C 0.73924 0.80754 0.89005 0.0
C569 C 0.80581 0.79538 0.91948 0.0
C570 C 0.77931 0.83191 0.92175 0.0
C571 C 0.72437 0.87936 0.9088 0.0
C572 C 0.6977 0.89193 0.89351 0.0
C573 C 0.7466 0.83879 0.90706 0.0
C574 C 0.68708 0.85795 0.87699 0.0
C575 C 0.70718 0.81553 0.87534 0.0
H576 H 0.06742 0.57584 0.12593 0.0
H577 H 0.07156 0.59639 0.18574 0.0
H578 H 0.10498 0.52083 0.1892 0.0
H579 H 0.14585 0.45943 0.17486 0.0
H580 H 0.14842 0.44735 0.11482 0.0
H581 H 0.10069 0.51007 0.1119 0.0
C582 C 0.07431 0.56298 0.13979 0.0
C583 C 0.0677 0.59227 0.15552 0.0
C584 C 0.09645 0.52223 0.14162 0.0
C585 C 0.07645 0.5746 0.17336 0.0
C586 C 0.0963 0.53197 0.17534 0.0
C587 C 0.1359 0.47052 0.16117 0.0
C588 C 0.15172 0.44956 0.14512 0.0
C589 C 0.10887 0.50743 0.15951 0.0
C590 C 0.1377 0.4636 0.12745 0.0
C591 C 0.10997 0.49919 0.12572 0.0
H592 H 0.67014 0.11147 0.66783 0.0
H593 H 0.68808 0.15496 0.6091 0.0
H594 H 0.57795 0.11277 0.60659 0.0
H595 H 0.47819 0.07153 0.62138 0.0
H596 H 0.45931 0.0314 0.68031 0.0
H597 H 0.56776 0.06241 0.68226 0.0
C598 C 0.64991 0.11168 0.6545 0.0
C599 C 0.68747 0.13713 0.63876 0.0
C600 C 0.58627 0.0873 0.65311 0.0
C601 C 0.6604 0.13615 0.6215 0.0
C602 C 0.59732 0.11182 0.62001 0.0
C603 C 0.49731 0.06819 0.63459 0.0
C604 C 0.46068 0.04956 0.65068 0.0
C605 C 0.55998 0.08812 0.63576 0.0
C606 C 0.48643 0.0456 0.66768 0.0
C607 C 0.54863 0.06394 0.66886 0.0
H608 H 0.54728 0.69353 0.17191 0.0
H609 H 0.53331 0.71847 0.11287 0.0
H610 H 0.46398 0.60875 0.10907 0.0
H611 H 0.40055 0.5075 0.12276 0.0
H612 H 0.41045 0.48182 0.1819 0.0
H613 H 0.48947 0.58963 0.18527 0.0
C614 C 0.52915 0.67487 0.15823 0.0
C615 C 0.54479 0.71423 0.14278 0.0
C616 C 0.48902 0.61152 0.15609 0.0
C617 C 0.5216 0.6893 0.12507 0.0
C618 C 0.48207 0.62647 0.12283 0.0
C619 C 0.42096 0.52504 0.13632 0.0
C620 C 0.39935 0.48692 0.15205 0.0
C621 C 0.46471 0.58735 0.13828 0.0
C622 C 0.42619 0.51041 0.16955 0.0
C623 C 0.471 0.57216 0.17153 0.0
H624 H 0.82919 0.52177 0.66792 0.0
H625 H 0.77801 0.49891 0.6097 0.0
H626 H 0.82219 0.43332 0.60534 0.0
H627 H 0.86869 0.37727 0.6183 0.0
H628 H 0.91499 0.39411 0.67679 0.0
H629 H 0.88137 0.46927 0.68063 0.0
C630 C 0.82755 0.50222 0.65432 0.0
C631 C 0.79981 0.51457 0.63923 0.0
C632 C 0.85303 0.46443 0.65186 0.0
C633 C 0.7987 0.48968 0.6216 0.0
C634 C 0.82425 0.45246 0.61903 0.0
C635 C 0.87284 0.3984 0.63181 0.0
C636 C 0.89396 0.38008 0.64725 0.0
C637 C 0.85099 0.43915 0.63408 0.0
C638 C 0.89875 0.40759 0.66469 0.0
C639 C 0.87896 0.45 0.66694 0.0
H640 H 0.48783 0.89535 0.12339 0.0
H641 H 0.51601 0.94055 0.18195 0.0
H642 H 0.40726 0.90691 0.18551 0.0
H643 H 0.30289 0.85494 0.1725 0.0
H644 H 0.27613 0.80409 0.11425 0.0
H645 H 0.38585 0.84857 0.11019 0.0
C646 C 0.4706 0.89927 0.13686 0.0
C647 C 0.5096 0.9201 0.15238 0.0
C648 C 0.40806 0.87723 0.13897 0.0
C649 C 0.48657 0.92455 0.16978 0.0
C650 C 0.42441 0.90473 0.17187 0.0
C651 C 0.32115 0.85343 0.15896 0.0
C652 C 0.28151 0.82579 0.14377 0.0
C653 C 0.38443 0.879 0.15668 0.0
C654 C 0.3057 0.82474 0.12622 0.0
C655 C 0.36845 0.85048 0.12383 0.0
H656 H 0.59024 0.46758 0.67404 0.0
H657 H 0.52675 0.50433 0.62236 0.0
H658 H 0.44914 0.39568 0.61953 0.0
H659 H 0.40859 0.28897 0.62977 0.0
H660 H 0.47694 0.2523 0.68044 0.0
H661 H 0.54432 0.36229 0.68553 0.0
C662 C 0.55817 0.45216 0.66247 0.0
C663 C 0.56416 0.49361 0.6484 0.0
C664 C 0.51592 0.38945 0.66047 0.0
C665 C 0.5228 0.47299 0.63337 0.0
C666 C 0.47902 0.41087 0.63162 0.0
C667 C 0.43846 0.30523 0.64187 0.0
C668 C 0.43839 0.26294 0.65465 0.0
C669 C 0.47701 0.36842 0.64468 0.0
C670 C 0.47621 0.28424 0.67048 0.0
C671 C 0.51464 0.34703 0.6734 0.0
H672 H 0.38989 0.89482 0.36924 0.0
H673 H 0.42269 0.96273 0.42577 0.0
H674 H 0.49686 0.92828 0.43011 0.0
H675 H 0.54423 0.8697 0.41878 0.0
H676 H 0.50786 0.79871 0.3626 0.0
H677 H 0.44198 0.84246 0.3573 0.0
C678 C 0.41451 0.90364 0.38234 0.0
C679 C 0.4009 0.93107 0.39717 0.0
C680 C 0.45493 0.8815 0.38498 0.0
C681 C 0.4326 0.94164 0.41414 0.0
C682 C 0.4744 0.92136 0.4167 0.0
C683 C 0.52147 0.86352 0.40545 0.0
C684 C 0.53006 0.83051 0.39119 0.0
C685 C 0.48418 0.88927 0.40243 0.0
C686 C 0.50152 0.82378 0.37382 0.0
C687 C 0.46417 0.849 0.37074 0.0
H688 H 0.64803 0.53166 0.88068 0.0
H689 H 0.68498 0.48105 0.93463 0.0
H690 H 0.57537 0.41498 0.94009 0.0
H691 H 0.47021 0.36505 0.92839 0.0
H692 H 0.43324 0.41276 0.87403 0.0
H693 H 0.54166 0.48867 0.87019 0.0
C694 C 0.63198 0.50588 0.89358 0.0
C695 C 0.67425 0.51008 0.90707 0.0
C696 C 0.56902 0.46856 0.89671 0.0
C697 C 0.65308 0.47783 0.92394 0.0
C698 C 0.59051 0.4404 0.92713 0.0
C699 C 0.48558 0.39345 0.91597 0.0
C700 C 0.44413 0.38327 0.90147 0.0
C701 C 0.54814 0.43486 0.91352 0.0
C702 C 0.46461 0.4199 0.88536 0.0
C703 C 0.5266 0.46268 0.88306 0.0
H704 H 0.14313 0.70455 0.42291 0.0
H705 H 0.15935 0.72219 0.363 0.0
H706 H 0.11224 0.61148 0.35982 0.0
H707 H 0.07565 0.51137 0.37394 0.0
H708 H 0.06468 0.49258 0.43383 0.0
H709 H 0.09798 0.60165 0.43706 0.0
C710 C 0.1363 0.68412 0.40917 0.0
C711 C 0.15583 0.72176 0.39325 0.0
C712 C 0.10924 0.62014 0.4074 0.0
C713 C 0.14574 0.6945 0.37552 0.0
C714 C 0.11835 0.63106 0.37365 0.0
C715 C 0.079 0.53061 0.38771 0.0
C716 C 0.06837 0.49408 0.40362 0.0
C717 C 0.10095 0.59363 0.38949 0.0
C718 C 0.07287 0.51984 0.42135 0.0
C719 C 0.09259 0.58235 0.42322 0.0
H720 H 0.56252 0.07835 0.92191 0.0
H721 H 0.52724 0.0208 0.86435 0.0
H722 H 0.45239 0.05507 0.86222 0.0
H723 H 0.40571 0.11158 0.87574 0.0
H724 H 0.44329 0.17094 0.9331 0.0
H725 H 0.50973 0.12683 0.93614 0.0
C726 C 0.53739 0.07182 0.90902 0.0
C727 C 0.55081 0.04762 0.89327 0.0
C728 C 0.49625 0.09362 0.90769 0.0
C729 C 0.51786 0.03956 0.87667 0.0
C730 C 0.47557 0.05975 0.87537 0.0
C731 C 0.42867 0.11502 0.88886 0.0
C732 C 0.42053 0.14524 0.90408 0.0
C733 C 0.4662 0.08895 0.89059 0.0
C734 C 0.44941 0.14831 0.92114 0.0
C735 C 0.48709 0.12285 0.92292 0.0
H736 H 0.31321 0.44691 0.41644 0.0
H737 H 0.26902 0.5181 0.36773 0.0
H738 H 0.37759 0.58271 0.36064 0.0
H739 H 0.48459 0.62487 0.36964 0.0
H740 H 0.52972 0.55855 0.41917 0.0
H741 H 0.42131 0.48374 0.4241 0.0
C742 C 0.32755 0.47707 0.4044 0.0
C743 C 0.28353 0.47885 0.39285 0.0
C744 C 0.39003 0.51353 0.40026 0.0
C745 C 0.30235 0.51673 0.37698 0.0
C746 C 0.3643 0.55322 0.37281 0.0
C747 C 0.47084 0.59237 0.38108 0.0
C748 C 0.51466 0.59662 0.39395 0.0
C749 C 0.4085 0.5523 0.38441 0.0
C750 C 0.49641 0.55538 0.409 0.0
C751 C 0.4345 0.51347 0.41199 0.0
H752 H 0.85581 0.46771 0.87156 0.0
H753 H 0.9171 0.49215 0.92878 0.0
H754 H 0.88433 0.38301 0.93094 0.0
H755 H 0.82639 0.27908 0.91778 0.0
H756 H 0.76122 0.2551 0.86097 0.0
H757 H 0.80644 0.3659 0.85759 0.0
C758 C 0.86349 0.44961 0.88438 0.0
C759 C 0.88801 0.48767 0.90006 0.0
C760 C 0.84212 0.38665 0.88578 0.0
C761 C 0.89785 0.46355 0.91654 0.0
C762 C 0.87852 0.40108 0.91786 0.0
C763 C 0.82195 0.29814 0.9047 0.0
C764 C 0.78951 0.25905 0.88979 0.0
C765 C 0.84822 0.36186 0.90281 0.0
C766 C 0.78527 0.28431 0.87275 0.0
C767 C 0.81142 0.34762 0.87075 0.0
H768 H 0.10806 0.40642 0.29191 0.0
H769 H 0.13268 0.26249 0.31539 0.0
H770 H 0.17098 0.2488 0.28574 0.0
H771 H 0.19501 0.27576 0.253 0.0
H772 H 0.15516 0.40782 0.22796 0.0
H773 H 0.1267 0.42925 0.25822 0.0
C774 C 0.122 0.37227 0.29043 0.0
C775 C 0.12025 0.33745 0.30597 0.0
C776 C 0.14192 0.36309 0.2731 0.0
C777 C 0.13683 0.29214 0.3039 0.0
C778 C 0.15797 0.28374 0.28688 0.0
C779 C 0.18059 0.30964 0.2542 0.0
C780 C 0.17978 0.34181 0.23829 0.0
C781 C 0.16087 0.31909 0.27143 0.0
C782 C 0.15974 0.38471 0.24 0.0
C783 C 0.14207 0.39608 0.25731 0.0
H784 H 0.90622 0.17829 0.74728 0.0
H785 H 0.73216 0.134 0.72308 0.0
H786 H 0.68437 0.10661 0.75367 0.0
H787 H 0.69065 0.08903 0.78724 0.0
H788 H 0.86138 0.1184 0.81016 0.0
H789 H 0.91169 0.15714 0.78028 0.0
C790 C 0.85793 0.1632 0.74874 0.0
C791 C 0.82362 0.16057 0.73293 0.0
C792 C 0.83001 0.14431 0.76621 0.0
C793 C 0.76075 0.13978 0.735 0.0
C794 C 0.73296 0.12281 0.75251 0.0
C795 C 0.73892 0.10425 0.78565 0.0
C796 C 0.77278 0.10322 0.8011 0.0
C797 C 0.76702 0.12421 0.76818 0.0
C798 C 0.83499 0.12174 0.79881 0.0
C799 C 0.86361 0.14307 0.78162 0.0
H800 H 0.71752 0.81524 0.23812 0.0
H801 H 0.59888 0.89043 0.24499 0.0
H802 H 0.5883 0.86491 0.27841 0.0
H803 H 0.62437 0.83282 0.30629 0.0
H804 H 0.744 0.75843 0.29867 0.0
H805 H 0.74275 0.77156 0.26501 0.0
C806 C 0.68814 0.82442 0.24693 0.0
C807 C 0.65857 0.85401 0.23924 0.0
C808 C 0.6832 0.81038 0.26602 0.0
C809 C 0.62115 0.86668 0.25066 0.0
C810 C 0.6157 0.85263 0.26976 0.0
C811 C 0.64842 0.81767 0.2972 0.0
C812 C 0.68413 0.79442 0.30499 0.0
C813 C 0.64795 0.82597 0.27772 0.0
C814 C 0.71641 0.77655 0.293 0.0
C815 C 0.71579 0.78413 0.27376 0.0
H816 H 0.7577 0.70024 0.74899 0.0
H817 H 0.80566 0.56873 0.72852 0.0
H818 H 0.82184 0.5458 0.76036 0.0
H819 H 0.82931 0.56807 0.79408 0.0
H820 H 0.79146 0.70717 0.81416 0.0
H821 H 0.76421 0.72179 0.78272 0.0
C822 C 0.77103 0.66602 0.75152 0.0
C823 C 0.77856 0.63503 0.73624 0.0
C824 C 0.78229 0.65451 0.76993 0.0
C825 C 0.79679 0.5915 0.73983 0.0
C826 C 0.80707 0.57904 0.75812 0.0
C827 C 0.8144 0.6011 0.7916 0.0
C828 C 0.81076 0.63502 0.80674 0.0
C829 C 0.80069 0.61078 0.77327 0.0
C830 C 0.79225 0.67834 0.80314 0.0
C831 C 0.77755 0.68748 0.78501 0.0
H832 H 0.21734 0.85424 0.23657 0.0
H833 H 0.02312 0.75868 0.24698 0.0
H834 H 0.04157 0.7749 0.28047 0.0
H835 H 0.11261 0.82821 0.3063 0.0
H836 H 0.30668 0.92708 0.29655 0.0
H837 H 0.28959 0.89734 0.26342 0.0
C838 C 0.17938 0.83546 0.24628 0.0
C839 C 0.11891 0.80518 0.23941 0.0
C840 C 0.19051 0.84628 0.26559 0.0
C841 C 0.06991 0.7821 0.25205 0.0
C842 C 0.08046 0.79157 0.27116 0.0
C843 C 0.15093 0.84168 0.29692 0.0
C844 C 0.21064 0.87928 0.30363 0.0
C845 C 0.14043 0.82532 0.27802 0.0
C846 C 0.26041 0.8975 0.29153 0.0
C847 C 0.2505 0.88087 0.27264 0.0
H848 H 0.37237 0.24079 0.79519 0.0
H849 H 0.22259 0.0722 0.81665 0.0
H850 H 0.21332 0.02117 0.787 0.0
H851 H 0.2437 0.02603 0.75439 0.0
H852 H 0.38246 0.19898 0.73156 0.0
H853 H 0.40107 0.24625 0.76216 0.0
C854 C 0.33806 0.19279 0.79334 0.0
C855 C 0.29989 0.15972 0.80832 0.0
C856 C 0.33136 0.16439 0.77598 0.0
C857 C 0.25464 0.09788 0.80569 0.0
C858 C 0.24871 0.06888 0.78863 0.0
C859 C 0.27858 0.07387 0.75618 0.0
C860 C 0.31315 0.10792 0.74073 0.0
C861 C 0.28658 0.10181 0.77365 0.0
C862 C 0.35734 0.17032 0.74321 0.0
C863 C 0.36715 0.19796 0.76073 0.0
H864 H 0.18283 0.1776 0.99795 0.0
H865 H 0.36962 0.31747 0.9876 0.0
H866 H 0.37433 0.36493 1.01787 0.0
H867 H 0.32555 0.3646 0.04754 0.0
H868 H 0.13626 0.22885 0.05694 0.0
H869 H 0.13197 0.18111 0.02694 0.0
C870 C 0.22432 0.21849 1.00244 0.0
C871 C 0.27576 0.24442 0.99075 0.0
C872 C 0.22624 0.24566 1.01969 0.0
C873 C 0.32944 0.29749 0.99643 0.0
C874 C 0.33212 0.32431 1.0137 0.0
C875 C 0.28333 0.32473 0.04295 0.0
C876 C 0.23202 0.2989 0.05476 0.0
C877 C 0.28083 0.29863 0.02547 0.0
C878 C 0.17727 0.24781 0.04855 0.0
C879 C 0.17457 0.22099 0.03127 0.0
H880 H 0.037 0.2258 0.49345 0.0
H881 H 0.07053 0.4108 0.4891 0.0
H882 H 0.01818 0.39949 0.51887 0.0
H883 H 0.96264 0.33639 0.54598 0.0
H884 H 0.92205 0.1485 0.54915 0.0
H885 H 0.97773 0.16115 0.52016 0.0
C886 C 0.03299 0.26349 0.4992 0.0
C887 C 0.05739 0.31905 0.48933 0.0
C888 C 0.00186 0.25605 0.51608 0.0
C889 C 0.05166 0.36769 0.49658 0.0
C890 C 0.02185 0.36116 0.51353 0.0
C891 C 0.9659 0.29822 0.54027 0.0
C892 C 0.93997 0.24222 0.55004 0.0
C893 C -0.00343 0.30544 0.52335 0.0
C894 C 0.94389 0.19287 0.5424 0.0
C895 C 0.9751 0.19988 0.52568 0.0
H896 H 0.64505 0.8855 0.03847 0.0
H897 H 0.73356 0.06097 0.06625 0.0
H898 H 0.76224 0.11378 0.03618 0.0
H899 H 0.75687 0.11001 1.00168 0.0
H900 H 0.66389 0.93414 0.97416 0.0
H901 H 0.64264 0.88167 1.00414 0.0
C902 C 0.67123 0.93529 0.03787 0.0
C903 C 0.68831 0.96916 0.05458 0.0
C904 C 0.68673 0.9653 1.0205 0.0
C905 C 0.72162 0.03372 0.05365 0.0
C906 C 0.73736 0.06396 0.03643 0.0
C907 C 0.73267 0.06022 1.00233 0.0
C908 C 0.7136 0.02611 0.98566 0.0
C909 C 0.71962 0.03025 1.01974 0.0
C910 C 0.68134 0.96156 0.98666 0.0
C911 C 0.66836 0.93147 1.00386 0.0
H912 H 0.65849 0.70708 0.55878 0.0
H913 H 0.75235 0.61826 0.53624 0.0
H914 H 0.7399 0.6473 0.50463 0.0
H915 H 0.69688 0.69268 0.48338 0.0
H916 H 0.60043 0.77918 0.50559 0.0
H917 H 0.61907 0.75657 0.53743 0.0
C918 C 0.67742 0.6955 0.54695 0.0
C919 C 0.70726 0.66156 0.54978 0.0
C920 C 0.66917 0.71159 0.52882 0.0
C921 C 0.72962 0.64473 0.53432 0.0
C922 C 0.72245 0.66127 0.5163 0.0
C923 C 0.68154 0.70808 0.49521 0.0
C924 C 0.64863 0.73885 0.49223 0.0
C925 C 0.69175 0.69413 0.51336 0.0
C926 C 0.6264 0.75601 0.50765 0.0
C927 C 0.63702 0.74303 0.5258 0.0
H928 H 0.96199 0.75891 0.99559 0.0
H929 H 0.91675 0.57039 0.99016 0.0
H930 H 0.96567 0.57604 1.02031 0.0
H931 H 0.0174 0.63403 0.04877 0.0
H932 H 0.07044 0.82544 0.05276 0.0
H933 H 0.0221 0.81959 0.02277 0.0
C934 C 0.9633 0.71939 1.00108 0.0
C935 C 0.93597 0.6643 0.9909 0.0
C936 C -0.00783 0.72345 1.01821 0.0
C937 C 0.938 0.61322 0.99786 0.0
C938 C 0.96568 0.61648 1.01506 0.0
C939 C 0.01867 0.67452 0.043 0.0
C940 C 0.04502 0.72934 0.05344 0.0
C941 C -0.00757 0.67125 0.02544 0.0
C942 C 0.04747 0.78179 0.0456 0.0
C943 C 0.0206 0.7787 0.02828 0.0
H944 H 0.21334 0.88502 0.50541 0.0
H945 H 0.29958 0.05687 0.47567 0.0
H946 H 0.32667 0.11352 0.50507 0.0
H947 H 0.3306 0.1142 0.53958 0.0
H948 H 0.24781 0.94207 0.56913 0.0
H949 H 0.21463 0.88562 0.53977 0.0
C950 C 0.23737 0.93485 0.50545 0.0
C951 C 0.25291 0.9666 0.48839 0.0
C952 C 0.25366 0.96711 0.52245 0.0
C953 C 0.28494 0.03125 0.48856 0.0
C954 C 0.30125 0.06371 0.5054 0.0
C955 C 0.30476 0.06438 0.53948 0.0
C956 C 0.29024 0.03236 0.55648 0.0
C957 C 0.28637 0.03216 0.52245 0.0
C958 C 0.25752 0.96774 0.55627 0.0
C959 C 0.23918 0.93543 0.53946 0.0
loop_
_geom_bond_atom_site_label_1
_geom_bond_atom_site_label_2
_geom_bond_distance
_geom_bond_site_symmetry_2
_ccdc_geom_bond_type
Zn0 O1 2.055 . S
Zn0 O8 2.046 . S
Zn0 N16 2.036 . S
Zn0 O28 2.053 . S
Zn0 O30 2.066 . S
O1 Zn0 2.055 . S
O1 C4 1.259 . S
C2 O30 1.256 . S
C2 O31 1.244 . S
Zn3 O5 2.046 . S
Zn3 O7 2.055 . S
Zn3 N9 2.036 . S
Zn3 O27 2.066 . S
Zn3 O31 2.053 . S
C4 O1 1.259 . S
C4 O5 1.254 . S
O5 Zn3 2.046 . S
O5 C4 1.254 . S
C6 O27 1.256 . S
C6 O28 1.244 . S
O7 Zn3 2.055 . S
O7 C29 1.259 . S
O8 Zn0 2.046 . S
O8 C29 1.254 . S
N9 Zn3 2.036 . S
N9 C10 1.298 . S
N9 N12 1.398 . S
C10 N9 1.298 . S
C10 N13 1.367 . S
C10 C23 1.481 . S
C11 N12 1.299 . S
C11 N13 1.379 . S
N12 N9 1.398 . S
N12 C11 1.299 . S
N13 C10 1.367 . S
N13 C11 1.379 . S
C14 N16 1.298 . S
C14 N18 1.367 . S
C14 C22 1.481 . S
C15 N17 1.299 . S
C15 N18 1.379 . S
N16 Zn0 2.036 . S
N16 C14 1.298 . S
N16 N17 1.398 . S
N17 C15 1.299 . S
N17 N16 1.398 . S
N18 C14 1.367 . S
N18 C15 1.379 . S
H19 C22 0.980 . S
H20 C22 0.981 . S
H21 C22 0.981 . S
C22 C14 1.481 . S
C22 H19 0.980 . S
C22 H20 0.981 . S
C22 H21 0.981 . S
C23 C10 1.481 . S
C23 H24 0.980 . S
C23 H25 0.981 . S
C23 H26 0.981 . S
H24 C23 0.980 . S
H25 C23 0.981 . S
H26 C23 0.981 . S
O27 Zn3 2.066 . S
O27 C6 1.256 . S
O28 Zn0 2.053 . S
O28 C6 1.244 . S
C29 O7 1.259 . S
C29 O8 1.254 . S
O30 Zn0 2.066 . S
O30 C2 1.256 . S
O31 C2 1.244 . S
O31 Zn3 2.053 . S
Zn32 O33 2.055 . S
Zn32 O40 2.046 . S
Zn32 N48 2.036 . S
Zn32 O60 2.053 . S
Zn32 O62 2.066 . S
O33 Zn32 2.055 . S
O33 C36 1.259 . S
C34 O62 1.256 . S
C34 O63 1.244 . S
Zn35 O37 2.046 . S
Zn35 O39 2.055 . S
Zn35 N41 2.036 . S
Zn35 O59 2.066 . S
Zn35 O63 2.053 . S
C36 O33 1.259 . S
C36 O37 1.254 . S
O37 Zn35 2.046 . S
O37 C36 1.254 . S
C38 O59 1.256 . S
C38 O60 1.244 . S
O39 Zn35 2.055 . S
O39 C61 1.259 . S
O40 Zn32 2.046 . S
O40 C61 1.254 . S
N41 Zn35 2.036 . S
N41 C42 1.298 . S
N41 N44 1.398 . S
C42 N41 1.298 . S
C42 N45 1.367 . S
C42 C55 1.481 . S
C43 N44 1.299 . S
C43 N45 1.379 . S
N44 N41 1.398 . S
N44 C43 1.299 . S
N45 C42 1.367 . S
N45 C43 1.379 . S
C46 N48 1.298 . S
C46 N50 1.367 . S
C46 C54 1.481 . S
C47 N49 1.299 . S
C47 N50 1.379 . S
N48 Zn32 2.036 . S
N48 C46 1.298 . S
N48 N49 1.398 . S
N49 C47 1.299 . S
N49 N48 1.398 . S
N50 C46 1.367 . S
N50 C47 1.379 . S
H51 C54 0.980 . S
H52 C54 0.981 . S
H53 C54 0.981 . S
C54 C46 1.481 . S
C54 H51 0.980 . S
C54 H52 0.981 . S
C54 H53 0.981 . S
C55 C42 1.481 . S
C55 H56 0.980 . S
C55 H57 0.981 . S
C55 H58 0.981 . S
H56 C55 0.980 . S
H57 C55 0.981 . S
H58 C55 0.981 . S
O59 Zn35 2.066 . S
O59 C38 1.256 . S
O60 Zn32 2.053 . S
O60 C38 1.244 . S
C61 O39 1.259 . S
C61 O40 1.254 . S
O62 Zn32 2.066 . S
O62 C34 1.256 . S
O63 C34 1.244 . S
O63 Zn35 2.053 . S
Zn64 O65 2.055 . S
Zn64 O72 2.046 . S
Zn64 N80 2.036 . S
Zn64 O92 2.053 . S
Zn64 O94 2.066 . S
O65 Zn64 2.055 . S
O65 C68 1.259 . S
C66 O94 1.256 . S
C66 O95 1.244 . S
Zn67 O69 2.046 . S
Zn67 O71 2.055 . S
Zn67 N73 2.036 . S
Zn67 O91 2.066 . S
Zn67 O95 2.053 . S
C68 O65 1.259 . S
C68 O69 1.254 . S
O69 Zn67 2.046 . S
O69 C68 1.254 . S
C70 O91 1.256 . S
C70 O92 1.244 . S
O71 Zn67 2.055 . S
O71 C93 1.259 . S
O72 Zn64 2.046 . S
O72 C93 1.254 . S
N73 Zn67 2.036 . S
N73 C74 1.298 . S
N73 N76 1.398 . S
C74 N73 1.298 . S
C74 N77 1.367 . S
C74 C87 1.481 . S
C75 N76 1.299 . S
C75 N77 1.379 . S
N76 N73 1.398 . S
N76 C75 1.299 . S
N77 C74 1.367 . S
N77 C75 1.379 . S
C78 N80 1.298 . S
C78 N82 1.367 . S
C78 C86 1.481 . S
C79 N81 1.299 . S
C79 N82 1.379 . S
N80 Zn64 2.036 . S
N80 C78 1.298 . S
N80 N81 1.398 . S
N81 C79 1.299 . S
N81 N80 1.398 . S
N82 C78 1.367 . S
N82 C79 1.379 . S
H83 C86 0.980 . S
H84 C86 0.981 . S
H85 C86 0.981 . S
C86 C78 1.481 . S
C86 H83 0.980 . S
C86 H84 0.981 . S
C86 H85 0.981 . S
C87 C74 1.481 . S
C87 H88 0.980 . S
C87 H89 0.981 . S
C87 H90 0.981 . S
H88 C87 0.980 . S
H89 C87 0.981 . S
H90 C87 0.981 . S
O91 Zn67 2.066 . S
O91 C70 1.256 . S
O92 Zn64 2.053 . S
O92 C70 1.244 . S
C93 O71 1.259 . S
C93 O72 1.254 . S
O94 Zn64 2.066 . S
O94 C66 1.256 . S
O95 C66 1.244 . S
O95 Zn67 2.053 . S
Zn96 O97 2.055 . S
Zn96 O104 2.046 . S
Zn96 N112 2.036 . S
Zn96 O124 2.053 . S
Zn96 O126 2.066 . S
O97 Zn96 2.055 . S
O97 C100 1.259 . S
C98 O126 1.256 . S
C98 O127 1.244 . S
Zn99 O101 2.046 . S
Zn99 O103 2.055 . S
Zn99 N105 2.036 . S
Zn99 O123 2.066 . S
Zn99 O127 2.053 . S
C100 O97 1.259 . S
C100 O101 1.254 . S
O101 Zn99 2.046 . S
O101 C100 1.254 . S
C102 O123 1.256 . S
C102 O124 1.244 . S
O103 Zn99 2.055 . S
O103 C125 1.259 . S
O104 Zn96 2.046 . S
O104 C125 1.254 . S
N105 Zn99 2.036 . S
N105 C106 1.298 . S
N105 N108 1.398 . S
C106 N105 1.298 . S
C106 N109 1.367 . S
C106 C119 1.481 . S
C107 N108 1.299 . S
C107 N109 1.379 . S
N108 N105 1.398 . S
N108 C107 1.299 . S
N109 C106 1.367 . S
N109 C107 1.379 . S
C110 N112 1.298 . S
C110 N114 1.367 . S
C110 C118 1.481 . S
C111 N113 1.299 . S
C111 N114 1.379 . S
N112 Zn96 2.036 . S
N112 C110 1.298 . S
N112 N113 1.398 . S
N113 C111 1.299 . S
N113 N112 1.398 . S
N114 C110 1.367 . S
N114 C111 1.379 . S
H115 C118 0.980 . S
H116 C118 0.981 . S
H117 C118 0.981 . S
C118 C110 1.481 . S
C118 H115 0.980 . S
C118 H116 0.981 . S
C118 H117 0.981 . S
C119 C106 1.481 . S
C119 H120 0.980 . S
C119 H121 0.981 . S
C119 H122 0.981 . S
H120 C119 0.980 . S
H121 C119 0.981 . S
H122 C119 0.981 . S
O123 Zn99 2.066 . S
O123 C102 1.256 . S
O124 Zn96 2.053 . S
O124 C102 1.244 . S
C125 O103 1.259 . S
C125 O104 1.254 . S
O126 Zn96 2.066 . S
O126 C98 1.256 . S
O127 C98 1.244 . S
O127 Zn99 2.053 . S
Zn128 O129 2.055 . S
Zn128 O136 2.046 . S
Zn128 N144 2.036 . S
Zn128 O156 2.053 . S
Zn128 O158 2.066 . S
O129 Zn128 2.055 . S
O129 C132 1.259 . S
C130 O158 1.256 . S
C130 O159 1.244 . S
Zn131 O133 2.046 . S
Zn131 O135 2.055 . S
Zn131 N137 2.036 . S
Zn131 O155 2.066 . S
Zn131 O159 2.053 . S
C132 O129 1.259 . S
C132 O133 1.254 . S
O133 Zn131 2.046 . S
O133 C132 1.254 . S
C134 O155 1.256 . S
C134 O156 1.244 . S
O135 Zn131 2.055 . S
O135 C157 1.259 . S
O136 Zn128 2.046 . S
O136 C157 1.254 . S
N137 Zn131 2.036 . S
N137 C138 1.298 . S
N137 N140 1.398 . S
C138 N137 1.298 . S
C138 N141 1.367 . S
C138 C151 1.481 . S
C139 N140 1.299 . S
C139 N141 1.379 . S
N140 N137 1.398 . S
N140 C139 1.299 . S
N141 C138 1.367 . S
N141 C139 1.379 . S
C142 N144 1.298 . S
C142 N146 1.367 . S
C142 C150 1.481 . S
C143 N145 1.299 . S
C143 N146 1.379 . S
N144 Zn128 2.036 . S
N144 C142 1.298 . S
N144 N145 1.398 . S
N145 C143 1.299 . S
N145 N144 1.398 . S
N146 C142 1.367 . S
N146 C143 1.379 . S
H147 C150 0.980 . S
H148 C150 0.981 . S
H149 C150 0.981 . S
C150 C142 1.481 . S
C150 H147 0.980 . S
C150 H148 0.981 . S
C150 H149 0.981 . S
C151 C138 1.481 . S
C151 H152 0.980 . S
C151 H153 0.981 . S
C151 H154 0.981 . S
H152 C151 0.980 . S
H153 C151 0.981 . S
H154 C151 0.981 . S
O155 Zn131 2.066 . S
O155 C134 1.256 . S
O156 Zn128 2.053 . S
O156 C134 1.244 . S
C157 O135 1.259 . S
C157 O136 1.254 . S
O158 Zn128 2.066 . S
O158 C130 1.256 . S
O159 C130 1.244 . S
O159 Zn131 2.053 . S
Zn160 O161 2.055 . S
Zn160 O168 2.046 . S
Zn160 N176 2.036 . S
Zn160 O188 2.053 . S
Zn160 O190 2.066 . S
O161 Zn160 2.055 . S
O161 C164 1.259 . S
C162 O190 1.256 . S
C162 O191 1.244 . S
Zn163 O165 2.046 . S
Zn163 O167 2.055 . S
Zn163 N169 2.036 . S
Zn163 O187 2.066 . S
Zn163 O191 2.053 . S
C164 O161 1.259 . S
C164 O165 1.254 . S
O165 Zn163 2.046 . S
O165 C164 1.254 . S
C166 O187 1.256 . S
C166 O188 1.244 . S
O167 Zn163 2.055 . S
O167 C189 1.259 . S
O168 Zn160 2.046 . S
O168 C189 1.254 . S
N169 Zn163 2.036 . S
N169 C170 1.298 . S
N169 N172 1.398 . S
C170 N169 1.298 . S
C170 N173 1.367 . S
C170 C183 1.481 . S
C171 N172 1.299 . S
C171 N173 1.379 . S
N172 N169 1.398 . S
N172 C171 1.299 . S
N173 C170 1.367 . S
N173 C171 1.379 . S
C174 N176 1.298 . S
C174 N178 1.367 . S
C174 C182 1.481 . S
C175 N177 1.299 . S
C175 N178 1.379 . S
N176 Zn160 2.036 . S
N176 C174 1.298 . S
N176 N177 1.398 . S
N177 C175 1.299 . S
N177 N176 1.398 . S
N178 C174 1.367 . S
N178 C175 1.379 . S
H179 C182 0.980 . S
H180 C182 0.981 . S
H181 C182 0.981 . S
C182 C174 1.481 . S
C182 H179 0.980 . S
C182 H180 0.981 . S
C182 H181 0.981 . S
C183 C170 1.481 . S
C183 H184 0.980 . S
C183 H185 0.981 . S
C183 H186 0.981 . S
H184 C183 0.980 . S
H185 C183 0.981 . S
H186 C183 0.981 . S
O187 Zn163 2.066 . S
O187 C166 1.256 . S
O188 Zn160 2.053 . S
O188 C166 1.244 . S
C189 O167 1.259 . S
C189 O168 1.254 . S
O190 Zn160 2.066 . S
O190 C162 1.256 . S
O191 C162 1.244 . S
O191 Zn163 2.053 . S
Zn192 O193 2.055 . S
Zn192 O200 2.046 . S
Zn192 N208 2.036 . S
Zn192 O220 2.053 . S
Zn192 O222 2.066 . S
O193 Zn192 2.055 . S
O193 C196 1.259 . S
C194 O222 1.256 . S
C194 O223 1.244 . S
Zn195 O197 2.046 . S
Zn195 O199 2.055 . S
Zn195 N201 2.036 . S
Zn195 O219 2.066 . S
Zn195 O223 2.053 . S
C196 O193 1.259 . S
C196 O197 1.254 . S
O197 Zn195 2.046 . S
O197 C196 1.254 . S
C198 O219 1.256 . S
C198 O220 1.244 . S
O199 Zn195 2.055 . S
O199 C221 1.259 . S
O200 Zn192 2.046 . S
O200 C221 1.254 . S
N201 Zn195 2.036 . S
N201 C202 1.298 . S
N201 N204 1.398 . S
C202 N201 1.298 . S
C202 N205 1.367 . S
C202 C215 1.481 . S
C203 N204 1.299 . S
C203 N205 1.379 . S
N204 N201 1.398 . S
N204 C203 1.299 . S
N205 C202 1.367 . S
N205 C203 1.379 . S
C206 N208 1.298 . S
C206 N210 1.367 . S
C206 C214 1.481 . S
C207 N209 1.299 . S
C207 N210 1.379 . S
N208 Zn192 2.036 . S
N208 C206 1.298 . S
N208 N209 1.398 . S
N209 C207 1.299 . S
N209 N208 1.398 . S
N210 C206 1.367 . S
N210 C207 1.379 . S
H211 C214 0.980 . S
H212 C214 0.981 . S
H213 C214 0.981 . S
C214 C206 1.481 . S
C214 H211 0.980 . S
C214 H212 0.981 . S
C214 H213 0.981 . S
C215 C202 1.481 . S
C215 H216 0.980 . S
C215 H217 0.981 . S
C215 H218 0.981 . S
H216 C215 0.980 . S
H217 C215 0.981 . S
H218 C215 0.981 . S
O219 Zn195 2.066 . S
O219 C198 1.256 . S
O220 Zn192 2.053 . S
O220 C198 1.244 . S
C221 O199 1.259 . S
C221 O200 1.254 . S
O222 Zn192 2.066 . S
O222 C194 1.256 . S
O223 C194 1.244 . S
O223 Zn195 2.053 . S
Zn224 O225 2.055 . S
Zn224 O232 2.046 . S
Zn224 N240 2.036 . S
Zn224 O252 2.053 . S
Zn224 O254 2.066 . S
O225 Zn224 2.055 . S
O225 C228 1.259 . S
C226 O254 1.256 . S
C226 O255 1.244 . S
Zn227 O229 2.046 . S
Zn227 O231 2.055 . S
Zn227 N233 2.036 . S
Zn227 O251 2.066 . S
Zn227 O255 2.053 . S
C228 O225 1.259 . S
C228 O229 1.254 . S
O229 Zn227 2.046 . S
O229 C228 1.254 . S
C230 O251 1.256 . S
C230 O252 1.244 . S
O231 Zn227 2.055 . S
O231 C253 1.259 . S
O232 Zn224 2.046 . S
O232 C253 1.254 . S
N233 Zn227 2.036 . S
N233 C234 1.298 . S
N233 N236 1.398 . S
C234 N233 1.298 . S
C234 N237 1.367 . S
C234 C247 1.481 . S
C235 N236 1.299 . S
C235 N237 1.379 . S
N236 N233 1.398 . S
N236 C235 1.299 . S
N237 C234 1.367 . S
N237 C235 1.379 . S
C238 N240 1.298 . S
C238 N242 1.367 . S
C238 C246 1.481 . S
C239 N241 1.299 . S
C239 N242 1.379 . S
N240 Zn224 2.036 . S
N240 C238 1.298 . S
N240 N241 1.398 . S
N241 C239 1.299 . S
N241 N240 1.398 . S
N242 C238 1.367 . S
N242 C239 1.379 . S
H243 C246 0.980 . S
H244 C246 0.981 . S
H245 C246 0.981 . S
C246 C238 1.481 . S
C246 H243 0.980 . S
C246 H244 0.981 . S
C246 H245 0.981 . S
C247 C234 1.481 . S
C247 H248 0.980 . S
C247 H249 0.981 . S
C247 H250 0.981 . S
H248 C247 0.980 . S
H249 C247 0.981 . S
H250 C247 0.981 . S
O251 Zn227 2.066 . S
O251 C230 1.256 . S
O252 Zn224 2.053 . S
O252 C230 1.244 . S
C253 O231 1.259 . S
C253 O232 1.254 . S
O254 Zn224 2.066 . S
O254 C226 1.256 . S
O255 C226 1.244 . S
O255 Zn227 2.053 . S
Zn256 O257 2.055 . S
Zn256 O264 2.046 . S
Zn256 N272 2.036 . S
Zn256 O284 2.053 . S
Zn256 O286 2.066 . S
O257 Zn256 2.055 . S
O257 C260 1.259 . S
C258 O286 1.256 . S
C258 O287 1.244 . S
Zn259 O261 2.046 . S
Zn259 O263 2.055 . S
Zn259 N265 2.036 . S
Zn259 O283 2.066 . S
Zn259 O287 2.053 . S
C260 O257 1.259 . S
C260 O261 1.254 . S
O261 Zn259 2.046 . S
O261 C260 1.254 . S
C262 O283 1.256 . S
C262 O284 1.244 . S
O263 Zn259 2.055 . S
O263 C285 1.259 . S
O264 Zn256 2.046 . S
O264 C285 1.254 . S
N265 Zn259 2.036 . S
N265 C266 1.298 . S
N265 N268 1.398 . S
C266 N265 1.298 . S
C266 N269 1.367 . S
C266 C279 1.481 . S
C267 N268 1.299 . S
C267 N269 1.379 . S
N268 N265 1.398 . S
N268 C267 1.299 . S
N269 C266 1.367 . S
N269 C267 1.379 . S
C270 N272 1.298 . S
C270 N274 1.367 . S
C270 C278 1.481 . S
C271 N273 1.299 . S
C271 N274 1.379 . S
N272 Zn256 2.036 . S
N272 C270 1.298 . S
N272 N273 1.398 . S
N273 C271 1.299 . S
N273 N272 1.398 . S
N274 C270 1.367 . S
N274 C271 1.379 . S
H275 C278 0.980 . S
H276 C278 0.981 . S
H277 C278 0.981 . S
C278 C270 1.481 . S
C278 H275 0.980 . S
C278 H276 0.981 . S
C278 H277 0.981 . S
C279 C266 1.481 . S
C279 H280 0.980 . S
C279 H281 0.981 . S
C279 H282 0.981 . S
H280 C279 0.980 . S
H281 C279 0.981 . S
H282 C279 0.981 . S
O283 Zn259 2.066 . S
O283 C262 1.256 . S
O284 Zn256 2.053 . S
O284 C262 1.244 . S
C285 O263 1.259 . S
C285 O264 1.254 . S
O286 Zn256 2.066 . S
O286 C258 1.256 . S
O287 C258 1.244 . S
O287 Zn259 2.053 . S
Zn288 O289 2.055 . S
Zn288 O296 2.046 . S
Zn288 N304 2.036 . S
Zn288 O316 2.053 . S
Zn288 O318 2.066 . S
O289 Zn288 2.055 . S
O289 C292 1.259 . S
C290 O318 1.256 . S
C290 O319 1.244 . S
Zn291 O293 2.046 . S
Zn291 O295 2.055 . S
Zn291 N297 2.036 . S
Zn291 O315 2.066 . S
Zn291 O319 2.053 . S
C292 O289 1.259 . S
C292 O293 1.254 . S
O293 Zn291 2.046 . S
O293 C292 1.254 . S
C294 O315 1.256 . S
C294 O316 1.244 . S
O295 Zn291 2.055 . S
O295 C317 1.259 . S
O296 Zn288 2.046 . S
O296 C317 1.254 . S
N297 Zn291 2.036 . S
N297 C298 1.298 . S
N297 N300 1.398 . S
C298 N297 1.298 . S
C298 N301 1.367 . S
C298 C311 1.481 . S
C299 N300 1.299 . S
C299 N301 1.379 . S
N300 N297 1.398 . S
N300 C299 1.299 . S
N301 C298 1.367 . S
N301 C299 1.379 . S
C302 N304 1.298 . S
C302 N306 1.367 . S
C302 C310 1.481 . S
C303 N305 1.299 . S
C303 N306 1.379 . S
N304 Zn288 2.036 . S
N304 C302 1.298 . S
N304 N305 1.398 . S
N305 C303 1.299 . S
N305 N304 1.398 . S
N306 C302 1.367 . S
N306 C303 1.379 . S
H307 C310 0.980 . S
H308 C310 0.981 . S
H309 C310 0.981 . S
C310 C302 1.481 . S
C310 H307 0.980 . S
C310 H308 0.981 . S
C310 H309 0.981 . S
C311 C298 1.481 . S
C311 H312 0.980 . S
C311 H313 0.981 . S
C311 H314 0.981 . S
H312 C311 0.980 . S
H313 C311 0.981 . S
H314 C311 0.981 . S
O315 Zn291 2.066 . S
O315 C294 1.256 . S
O316 Zn288 2.053 . S
O316 C294 1.244 . S
C317 O295 1.259 . S
C317 O296 1.254 . S
O318 Zn288 2.066 . S
O318 C290 1.256 . S
O319 C290 1.244 . S
O319 Zn291 2.053 . S
Zn320 O321 2.055 . S
Zn320 O328 2.046 . S
Zn320 N336 2.036 . S
Zn320 O348 2.053 . S
Zn320 O350 2.066 . S
O321 Zn320 2.055 . S
O321 C324 1.259 . S
C322 O350 1.256 . S
C322 O351 1.244 . S
Zn323 O325 2.046 . S
Zn323 O327 2.055 . S
Zn323 N329 2.036 . S
Zn323 O347 2.066 . S
Zn323 O351 2.053 . S
C324 O321 1.259 . S
C324 O325 1.254 . S
O325 Zn323 2.046 . S
O325 C324 1.254 . S
C326 O347 1.256 . S
C326 O348 1.244 . S
O327 Zn323 2.055 . S
O327 C349 1.259 . S
O328 Zn320 2.046 . S
O328 C349 1.254 . S
N329 Zn323 2.036 . S
N329 C330 1.298 . S
N329 N332 1.398 . S
C330 N329 1.298 . S
C330 N333 1.367 . S
C330 C343 1.481 . S
C331 N332 1.299 . S
C331 N333 1.379 . S
N332 N329 1.398 . S
N332 C331 1.299 . S
N333 C330 1.367 . S
N333 C331 1.379 . S
C334 N336 1.298 . S
C334 N338 1.367 . S
C334 C342 1.481 . S
C335 N337 1.299 . S
C335 N338 1.379 . S
N336 Zn320 2.036 . S
N336 C334 1.298 . S
N336 N337 1.398 . S
N337 C335 1.299 . S
N337 N336 1.398 . S
N338 C334 1.367 . S
N338 C335 1.379 . S
H339 C342 0.980 . S
H340 C342 0.981 . S
H341 C342 0.981 . S
C342 C334 1.481 . S
C342 H339 0.980 . S
C342 H340 0.981 . S
C342 H341 0.981 . S
C343 C330 1.481 . S
C343 H344 0.980 . S
C343 H345 0.981 . S
C343 H346 0.981 . S
H344 C343 0.980 . S
H345 C343 0.981 . S
H346 C343 0.981 . S
O347 Zn323 2.066 . S
O347 C326 1.256 . S
O348 Zn320 2.053 . S
O348 C326 1.244 . S
C349 O327 1.259 . S
C349 O328 1.254 . S
O350 Zn320 2.066 . S
O350 C322 1.256 . S
O351 C322 1.244 . S
O351 Zn323 2.053 . S
Zn352 O353 2.055 . S
Zn352 O360 2.046 . S
Zn352 N368 2.036 . S
Zn352 O380 2.053 . S
Zn352 O382 2.066 . S
O353 Zn352 2.055 . S
O353 C356 1.259 . S
C354 O382 1.256 . S
C354 O383 1.244 . S
Zn355 O357 2.046 . S
Zn355 O359 2.055 . S
Zn355 N361 2.036 . S
Zn355 O379 2.066 . S
Zn355 O383 2.053 . S
C356 O353 1.259 . S
C356 O357 1.254 . S
O357 Zn355 2.046 . S
O357 C356 1.254 . S
C358 O379 1.256 . S
C358 O380 1.244 . S
O359 Zn355 2.055 . S
O359 C381 1.259 . S
O360 Zn352 2.046 . S
O360 C381 1.254 . S
N361 Zn355 2.036 . S
N361 C362 1.298 . S
N361 N364 1.398 . S
C362 N361 1.298 . S
C362 N365 1.367 . S
C362 C375 1.481 . S
C363 N364 1.299 . S
C363 N365 1.379 . S
N364 N361 1.398 . S
N364 C363 1.299 . S
N365 C362 1.367 . S
N365 C363 1.379 . S
C366 N368 1.298 . S
C366 N370 1.367 . S
C366 C374 1.481 . S
C367 N369 1.299 . S
C367 N370 1.379 . S
N368 Zn352 2.036 . S
N368 C366 1.298 . S
N368 N369 1.398 . S
N369 C367 1.299 . S
N369 N368 1.398 . S
N370 C366 1.367 . S
N370 C367 1.379 . S
H371 C374 0.980 . S
H372 C374 0.981 . S
H373 C374 0.981 . S
C374 C366 1.481 . S
C374 H371 0.980 . S
C374 H372 0.981 . S
C374 H373 0.981 . S
C375 C362 1.481 . S
C375 H376 0.980 . S
C375 H377 0.981 . S
C375 H378 0.981 . S
H376 C375 0.980 . S
H377 C375 0.981 . S
H378 C375 0.981 . S
O379 Zn355 2.066 . S
O379 C358 1.256 . S
O380 Zn352 2.053 . S
O380 C358 1.244 . S
C381 O359 1.259 . S
C381 O360 1.254 . S
O382 Zn352 2.066 . S
O382 C354 1.256 . S
O383 C354 1.244 . S
O383 Zn355 2.053 . S
H384 C390 0.930 . S
H385 C393 0.930 . S
H386 C394 0.930 . S
H387 C395 0.930 . S
H388 C398 0.930 . S
H389 C399 0.930 . S
C390 H384 0.930 . S
C390 C391 1.355 1_545 S
C390 C392 1.415 . S
C391 C390 1.355 1_565 S
C391 C393 1.419 . S
C392 C390 1.415 . S
C392 C397 1.425 . S
C392 C399 1.409 . S
C393 H385 0.930 . S
C393 C391 1.419 . S
C393 C394 1.362 1_565 S
C394 H386 0.930 . S
C394 C393 1.362 1_545 S
C394 C397 1.409 . S
C395 H387 0.930 . S
C395 C396 1.355 . S
C395 C397 1.415 . S
C396 C395 1.355 . S
C396 C398 1.419 . S
C397 C392 1.425 . S
C397 C394 1.409 . S
C397 C395 1.415 . S
C398 H388 0.930 . S
C398 C396 1.419 . S
C398 C399 1.362 . S
C399 H389 0.930 . S
C399 C392 1.409 . S
C399 C398 1.362 . S
H400 C406 0.930 . S
H401 C409 0.930 . S
H402 C410 0.930 . S
H403 C411 0.930 . S
H404 C414 0.930 1_655 S
H405 C415 0.930 . S
C406 H400 0.930 . S
C406 C407 1.355 . S
C406 C408 1.415 . S
C407 C406 1.355 . S
C407 C409 1.419 . S
C408 C406 1.415 . S
C408 C413 1.425 . S
C408 C415 1.409 . S
C409 H401 0.930 . S
C409 C407 1.419 . S
C409 C410 1.362 . S
C410 H402 0.930 . S
C410 C409 1.362 . S
C410 C413 1.409 . S
C411 H403 0.930 . S
C411 C412 1.355 . S
C411 C413 1.415 . S
C412 C411 1.355 . S
C412 C414 1.419 . S
C413 C408 1.425 . S
C413 C410 1.409 . S
C413 C411 1.415 . S
C414 H404 0.930 1_455 S
C414 C412 1.419 . S
C414 C415 1.362 . S
C415 H405 0.930 . S
C415 C408 1.409 . S
C415 C414 1.362 . S
H416 C422 0.930 . S
H417 C425 0.930 . S
H418 C426 0.930 . S
H419 C427 0.930 1_455 S
H420 C430 0.930 . S
H421 C431 0.930 . S
C422 H416 0.930 . S
C422 C423 1.355 . S
C422 C424 1.415 . S
C423 C422 1.355 . S
C423 C425 1.419 1_545 S
C424 C422 1.415 . S
C424 C429 1.425 . S
C424 C431 1.409 . S
C425 H417 0.930 . S
C425 C423 1.419 1_565 S
C425 C426 1.362 1_565 S
C426 H418 0.930 . S
C426 C425 1.362 1_545 S
C426 C429 1.409 . S
C427 H419 0.930 1_655 S
C427 C428 1.355 1_655 S
C427 C429 1.415 . S
C428 C427 1.355 1_455 S
C428 C430 1.419 1_455 S
C429 C424 1.425 . S
C429 C426 1.409 . S
C429 C427 1.415 . S
C430 H420 0.930 . S
C430 C428 1.419 1_655 S
C430 C431 1.362 . S
C431 H421 0.930 . S
C431 C424 1.409 . S
C431 C430 1.362 . S
H432 C438 0.930 . S
H433 C441 0.930 . S
H434 C442 0.930 . S
H435 C443 0.930 1_545 S
H436 C446 0.930 . S
H437 C447 0.930 . S
C438 H432 0.930 . S
C438 C439 1.355 . S
C438 C440 1.415 . S
C439 C438 1.355 . S
C439 C441 1.419 . S
C440 C438 1.415 . S
C440 C445 1.425 . S
C440 C447 1.409 . S
C441 H433 0.930 . S
C441 C439 1.419 . S
C441 C442 1.362 . S
C442 H434 0.930 . S
C442 C441 1.362 . S
C442 C445 1.409 . S
C443 H435 0.930 1_565 S
C443 C444 1.355 1_565 S
C443 C445 1.415 . S
C444 C443 1.355 1_545 S
C444 C446 1.419 1_545 S
C445 C440 1.425 . S
C445 C442 1.409 . S
C445 C443 1.415 . S
C446 H436 0.930 . S
C446 C444 1.419 1_565 S
C446 C447 1.362 . S
C447 H437 0.930 . S
C447 C440 1.409 . S
C447 C446 1.362 . S
H448 C454 0.930 . S
H449 C457 0.930 1_455 S
H450 C458 0.930 . S
H451 C459 0.930 . S
H452 C462 0.930 . S
H453 C463 0.930 . S
C454 H448 0.930 . S
C454 C455 1.355 . S
C454 C456 1.415 . S
C455 C454 1.355 . S
C455 C457 1.419 . S
C456 C454 1.415 . S
C456 C461 1.425 . S
C456 C463 1.409 . S
C457 H449 0.930 1_655 S
C457 C455 1.419 . S
C457 C458 1.362 . S
C458 H450 0.930 . S
C458 C457 1.362 . S
C458 C461 1.409 . S
C459 H451 0.930 . S
C459 C460 1.355 . S
C459 C461 1.415 . S
C460 C459 1.355 . S
C460 C462 1.419 . S
C461 C456 1.425 . S
C461 C458 1.409 . S
C461 C459 1.415 . S
C462 H452 0.930 . S
C462 C460 1.419 . S
C462 C463 1.362 . S
C463 H453 0.930 . S
C463 C456 1.409 . S
C463 C462 1.362 . S
H464 C470 0.930 1_655 S
H465 C473 0.930 . S
H466 C474 0.930 . S
H467 C475 0.930 . S
H468 C478 0.930 . S
H469 C479 0.930 . S
C470 H464 0.930 1_455 S
C470 C471 1.355 1_455 S
C470 C472 1.415 . S
C471 C470 1.355 1_655 S
C471 C473 1.419 1_655 S
C472 C470 1.415 . S
C472 C477 1.425 . S
C472 C479 1.409 . S
C473 H465 0.930 . S
C473 C471 1.419 1_455 S
C473 C474 1.362 . S
C474 H466 0.930 . S
C474 C473 1.362 . S
C474 C477 1.409 . S
C475 H467 0.930 . S
C475 C476 1.355 . S
C475 C477 1.415 . S
C476 C475 1.355 . S
C476 C478 1.419 1_565 S
C477 C472 1.425 . S
C477 C474 1.409 . S
C477 C475 1.415 . S
C478 H468 0.930 . S
C478 C476 1.419 1_545 S
C478 C479 1.362 1_545 S
C479 H469 0.930 . S
C479 C472 1.409 . S
C479 C478 1.362 1_565 S
H480 C486 0.930 . S
H481 C489 0.930 . S
H482 C490 0.930 . S
H483 C491 0.930 . S
H484 C494 0.930 . S
H485 C495 0.930 . S
C486 H480 0.930 . S
C486 C487 1.355 1_655 S
C486 C488 1.415 . S
C487 C486 1.355 1_455 S
C487 C489 1.419 . S
C488 C486 1.415 . S
C488 C493 1.425 . S
C488 C495 1.409 . S
C489 H481 0.930 . S
C489 C487 1.419 . S
C489 C490 1.362 1_455 S
C490 H482 0.930 . S
C490 C489 1.362 1_655 S
C490 C493 1.409 . S
C491 H483 0.930 . S
C491 C492 1.355 . S
C491 C493 1.415 . S
C492 C491 1.355 . S
C492 C494 1.419 . S
C493 C488 1.425 . S
C493 C490 1.409 . S
C493 C491 1.415 . S
C494 H484 0.930 . S
C494 C492 1.419 . S
C494 C495 1.362 . S
C495 H485 0.930 . S
C495 C488 1.409 . S
C495 C494 1.362 . S
H496 C502 0.930 . S
H497 C505 0.930 . S
H498 C506 0.930 . S
H499 C507 0.930 . S
H500 C510 0.930 . S
H501 C511 0.930 . S
C502 H496 0.930 . S
C502 C503 1.355 . S
C502 C504 1.415 . S
C503 C502 1.355 . S
C503 C505 1.419 . S
C504 C502 1.415 . S
C504 C509 1.425 . S
C504 C511 1.409 . S
C505 H497 0.930 . S
C505 C503 1.419 . S
C505 C506 1.362 . S
C506 H498 0.930 . S
C506 C505 1.362 . S
C506 C509 1.409 . S
C507 H499 0.930 . S
C507 C508 1.355 1_565 S
C507 C509 1.415 . S
C508 C507 1.355 1_545 S
C508 C510 1.419 . S
C509 C504 1.425 . S
C509 C506 1.409 . S
C509 C507 1.415 . S
C510 H500 0.930 . S
C510 C508 1.419 . S
C510 C511 1.362 1_545 S
C511 H501 0.930 . S
C511 C504 1.409 . S
C511 C510 1.362 1_565 S
H512 C518 0.930 . S
H513 C521 0.930 . S
H514 C522 0.930 . S
H515 C523 0.930 1_565 S
H516 C526 0.930 . S
H517 C527 0.930 . S
C518 H512 0.930 . S
C518 C519 1.355 . S
C518 C520 1.415 . S
C519 C518 1.355 . S
C519 C521 1.419 . S
C520 C518 1.415 . S
C520 C525 1.425 . S
C520 C527 1.409 . S
C521 H513 0.930 . S
C521 C519 1.419 . S
C521 C522 1.362 . S
C522 H514 0.930 . S
C522 C521 1.362 . S
C522 C525 1.409 . S
C523 H515 0.930 1_545 S
C523 C524 1.355 . S
C523 C525 1.415 . S
C524 C523 1.355 . S
C524 C526 1.419 . S
C525 C520 1.425 . S
C525 C522 1.409 . S
C525 C523 1.415 . S
C526 H516 0.930 . S
C526 C524 1.419 . S
C526 C527 1.362 . S
C527 H517 0.930 . S
C527 C520 1.409 . S
C527 C526 1.362 . S
H528 C534 0.930 . S
H529 C537 0.930 . S
H530 C538 0.930 . S
H531 C539 0.930 . S
H532 C542 0.930 1_655 S
H533 C543 0.930 . S
C534 H528 0.930 . S
C534 C535 1.355 . S
C534 C536 1.415 . S
C535 C534 1.355 . S
C535 C537 1.419 . S
C536 C534 1.415 . S
C536 C541 1.425 . S
C536 C543 1.409 . S
C537 H529 0.930 . S
C537 C535 1.419 . S
C537 C538 1.362 . S
C538 H530 0.930 . S
C538 C537 1.362 . S
C538 C541 1.409 . S
C539 H531 0.930 . S
C539 C540 1.355 1_455 S
C539 C541 1.415 . S
C540 C539 1.355 1_655 S
C540 C542 1.419 1_655 S
C541 C536 1.425 . S
C541 C538 1.409 . S
C541 C539 1.415 . S
C542 H532 0.930 1_455 S
C542 C540 1.419 1_455 S
C542 C543 1.362 . S
C543 H533 0.930 . S
C543 C536 1.409 . S
C543 C542 1.362 . S
H544 C550 0.930 1_455 S
H545 C553 0.930 . S
H546 C554 0.930 . S
H547 C555 0.930 . S
H548 C558 0.930 . S
H549 C559 0.930 . S
C550 H544 0.930 1_655 S
C550 C551 1.355 . S
C550 C552 1.415 . S
C551 C550 1.355 . S
C551 C553 1.419 . S
C552 C550 1.415 . S
C552 C557 1.425 . S
C552 C559 1.409 . S
C553 H545 0.930 . S
C553 C551 1.419 . S
C553 C554 1.362 . S
C554 H546 0.930 . S
C554 C553 1.362 . S
C554 C557 1.409 . S
C555 H547 0.930 . S
C555 C556 1.355 1_545 S
C555 C557 1.415 . S
C556 C555 1.355 1_565 S
C556 C558 1.419 . S
C557 C552 1.425 . S
C557 C554 1.409 . S
C557 C555 1.415 . S
C558 H548 0.930 . S
C558 C556 1.419 . S
C558 C559 1.362 1_565 S
C559 H549 0.930 . S
C559 C552 1.409 . S
C559 C558 1.362 1_545 S
H560 C566 0.930 . S
H561 C569 0.930 . S
H562 C570 0.930 . S
H563 C571 0.930 . S
H564 C574 0.930 . S
H565 C575 0.930 . S
C566 H560 0.930 . S
C566 C567 1.355 . S
C566 C568 1.415 . S
C567 C566 1.355 . S
C567 C569 1.419 . S
C568 C566 1.415 . S
C568 C573 1.425 . S
C568 C575 1.409 . S
C569 H561 0.930 . S
C569 C567 1.419 . S
C569 C570 1.362 . S
C570 H562 0.930 . S
C570 C569 1.362 . S
C570 C573 1.409 . S
C571 H563 0.930 . S
C571 C572 1.370 . S
C571 C573 1.415 . S
C572 C571 1.370 . S
C572 C574 1.425 1_565 S
C573 C568 1.425 . S
C573 C570 1.409 . S
C573 C571 1.415 . S
C574 H564 0.930 . S
C574 C572 1.425 1_545 S
C574 C575 1.362 1_545 S
C575 H565 0.930 . S
C575 C568 1.409 . S
C575 C574 1.362 1_565 S
H576 C582 0.930 . S
H577 C585 0.930 . S
H578 C586 0.930 . S
H579 C587 0.930 . S
H580 C590 0.930 . S
H581 C591 0.930 . S
C582 H576 0.930 . S
C582 C583 1.355 . S
C582 C584 1.415 . S
C583 C582 1.355 . S
C583 C585 1.419 . S
C584 C582 1.415 . S
C584 C589 1.425 . S
C584 C591 1.409 . S
C585 H577 0.930 . S
C585 C583 1.419 . S
C585 C586 1.362 . S
C586 H578 0.930 . S
C586 C585 1.362 . S
C586 C589 1.409 . S
C587 H579 0.930 . S
C587 C588 1.355 . S
C587 C589 1.415 . S
C588 C587 1.355 . S
C588 C590 1.419 . S
C589 C584 1.425 . S
C589 C586 1.409 . S
C589 C587 1.415 . S
C590 H580 0.930 . S
C590 C588 1.419 . S
C590 C591 1.362 . S
C591 H581 0.930 . S
C591 C584 1.409 . S
C591 C590 1.362 . S
H592 C598 0.930 . S
H593 C601 0.930 . S
H594 C602 0.930 . S
H595 C603 0.930 . S
H596 C606 0.930 . S
H597 C607 0.930 . S
C598 H592 0.930 . S
C598 C599 1.355 . S
C598 C600 1.415 . S
C599 C598 1.355 . S
C599 C601 1.419 . S
C600 C598 1.415 . S
C600 C605 1.425 . S
C600 C607 1.409 . S
C601 H593 0.930 . S
C601 C599 1.419 . S
C601 C602 1.362 . S
C602 H594 0.930 . S
C602 C601 1.362 . S
C602 C605 1.409 . S
C603 H595 0.930 . S
C603 C604 1.355 . S
C603 C605 1.415 . S
C604 C603 1.355 . S
C604 C606 1.419 . S
C605 C600 1.425 . S
C605 C602 1.409 . S
C605 C603 1.415 . S
C606 H596 0.930 . S
C606 C604 1.419 . S
C606 C607 1.362 . S
C607 H597 0.930 . S
C607 C600 1.409 . S
C607 C606 1.362 . S
H608 C614 0.930 . S
H609 C617 0.930 . S
H610 C618 0.930 . S
H611 C619 0.930 . S
H612 C622 0.930 . S
H613 C623 0.930 . S
C614 H608 0.930 . S
C614 C615 1.355 . S
C614 C616 1.415 . S
C615 C614 1.355 . S
C615 C617 1.419 . S
C616 C614 1.415 . S
C616 C621 1.425 . S
C616 C623 1.409 . S
C617 H609 0.930 . S
C617 C615 1.419 . S
C617 C618 1.362 . S
C618 H610 0.930 . S
C618 C617 1.362 . S
C618 C621 1.409 . S
C619 H611 0.930 . S
C619 C620 1.355 . S
C619 C621 1.415 . S
C620 C619 1.355 . S
C620 C622 1.419 . S
C621 C616 1.425 . S
C621 C618 1.409 . S
C621 C619 1.415 . S
C622 H612 0.930 . S
C622 C620 1.419 . S
C622 C623 1.362 . S
C623 H613 0.930 . S
C623 C616 1.409 . S
C623 C622 1.362 . S
H624 C630 0.930 . S
H625 C633 0.930 . S
H626 C634 0.930 . S
H627 C635 0.930 . S
H628 C638 0.930 . S
H629 C639 0.930 . S
C630 H624 0.930 . S
C630 C631 1.355 . S
C630 C632 1.415 . S
C631 C630 1.355 . S
C631 C633 1.419 . S
C632 C630 1.415 . S
C632 C637 1.425 . S
C632 C639 1.409 . S
C633 H625 0.930 . S
C633 C631 1.419 . S
C633 C634 1.362 . S
C634 H626 0.930 . S
C634 C633 1.362 . S
C634 C637 1.409 . S
C635 H627 0.930 . S
C635 C636 1.355 . S
C635 C637 1.415 . S
C636 C635 1.355 . S
C636 C638 1.419 . S
C637 C632 1.425 . S
C637 C634 1.409 . S
C637 C635 1.415 . S
C638 H628 0.930 . S
C638 C636 1.419 . S
C638 C639 1.362 . S
C639 H629 0.930 . S
C639 C632 1.409 . S
C639 C638 1.362 . S
H640 C646 0.930 . S
H641 C649 0.930 . S
H642 C650 0.930 . S
H643 C651 0.930 . S
H644 C654 0.930 . S
H645 C655 0.930 . S
C646 H640 0.930 . S
C646 C647 1.355 . S
C646 C648 1.415 . S
C647 C646 1.355 . S
C647 C649 1.419 . S
C648 C646 1.415 . S
C648 C653 1.425 . S
C648 C655 1.409 . S
C649 H641 0.930 . S
C649 C647 1.419 . S
C649 C650 1.362 . S
C650 H642 0.930 . S
C650 C649 1.362 . S
C650 C653 1.409 . S
C651 H643 0.930 . S
C651 C652 1.355 . S
C651 C653 1.415 . S
C652 C651 1.355 . S
C652 C654 1.419 . S
C653 C648 1.425 . S
C653 C650 1.409 . S
C653 C651 1.415 . S
C654 H644 0.930 . S
C654 C652 1.419 . S
C654 C655 1.362 . S
C655 H645 0.930 . S
C655 C648 1.409 . S
C655 C654 1.362 . S
H656 C662 0.930 . S
H657 C665 0.930 . S
H658 C666 0.930 . S
H659 C667 0.930 . S
H660 C670 0.930 . S
H661 C671 0.930 . S
C662 H656 0.930 . S
C662 C663 1.355 . S
C662 C664 1.415 . S
C663 C662 1.355 . S
C663 C665 1.419 . S
C664 C662 1.415 . S
C664 C669 1.425 . S
C664 C671 1.409 . S
C665 H657 0.930 . S
C665 C663 1.419 . S
C665 C666 1.362 . S
C666 H658 0.930 . S
C666 C665 1.362 . S
C666 C669 1.409 . S
C667 H659 0.930 . S
C667 C668 1.355 . S
C667 C669 1.415 . S
C668 C667 1.355 . S
C668 C670 1.419 . S
C669 C664 1.425 . S
C669 C666 1.409 . S
C669 C667 1.415 . S
C670 H660 0.930 . S
C670 C668 1.419 . S
C670 C671 1.362 . S
C671 H661 0.930 . S
C671 C664 1.409 . S
C671 C670 1.362 . S
H672 C678 0.930 . S
H673 C681 0.930 . S
H674 C682 0.930 . S
H675 C683 0.930 . S
H676 C686 0.930 . S
H677 C687 0.930 . S
C678 H672 0.930 . S
C678 C679 1.355 . S
C678 C680 1.415 . S
C679 C678 1.355 . S
C679 C681 1.419 . S
C680 C678 1.415 . S
C680 C685 1.425 . S
C680 C687 1.409 . S
C681 H673 0.930 . S
C681 C679 1.419 . S
C681 C682 1.362 . S
C682 H674 0.930 . S
C682 C681 1.362 . S
C682 C685 1.409 . S
C683 H675 0.930 . S
C683 C684 1.355 . S
C683 C685 1.415 . S
C684 C683 1.355 . S
C684 C686 1.419 . S
C685 C680 1.425 . S
C685 C682 1.409 . S
C685 C683 1.415 . S
C686 H676 0.930 . S
C686 C684 1.419 . S
C686 C687 1.362 . S
C687 H677 0.930 . S
C687 C680 1.409 . S
C687 C686 1.362 . S
H688 C694 0.930 . S
H689 C697 0.930 . S
H690 C698 0.930 . S
H691 C699 0.930 . S
H692 C702 0.930 . S
H693 C703 0.930 . S
C694 H688 0.930 . S
C694 C695 1.355 . S
C694 C696 1.415 . S
C695 C694 1.355 . S
C695 C697 1.419 . S
C696 C694 1.415 . S
C696 C701 1.425 . S
C696 C703 1.409 . S
C697 H689 0.930 . S
C697 C695 1.419 . S
C697 C698 1.362 . S
C698 H690 0.930 . S
C698 C697 1.362 . S
C698 C701 1.409 . S
C699 H691 0.930 . S
C699 C700 1.355 . S
C699 C701 1.415 . S
C700 C699 1.355 . S
C700 C702 1.419 . S
C701 C696 1.425 . S
C701 C698 1.409 . S
C701 C699 1.415 . S
C702 H692 0.930 . S
C702 C700 1.419 . S
C702 C703 1.362 . S
C703 H693 0.930 . S
C703 C696 1.409 . S
C703 C702 1.362 . S
H704 C710 0.930 . S
H705 C713 0.930 . S
H706 C714 0.930 . S
H707 C715 0.930 . S
H708 C718 0.930 . S
H709 C719 0.930 . S
C710 H704 0.930 . S
C710 C711 1.355 . S
C710 C712 1.415 . S
C711 C710 1.355 . S
C711 C713 1.419 . S
C712 C710 1.415 . S
C712 C717 1.425 . S
C712 C719 1.409 . S
C713 H705 0.930 . S
C713 C711 1.419 . S
C713 C714 1.362 . S
C714 H706 0.930 . S
C714 C713 1.362 . S
C714 C717 1.409 . S
C715 H707 0.930 . S
C715 C716 1.355 . S
C715 C717 1.415 . S
C716 C715 1.355 . S
C716 C718 1.419 . S
C717 C712 1.425 . S
C717 C714 1.409 . S
C717 C715 1.415 . S
C718 H708 0.930 . S
C718 C716 1.419 . S
C718 C719 1.362 . S
C719 H709 0.930 . S
C719 C712 1.409 . S
C719 C718 1.362 . S
H720 C726 0.930 . S
H721 C729 0.930 . S
H722 C730 0.930 . S
H723 C731 0.930 . S
H724 C734 0.930 . S
H725 C735 0.930 . S
C726 H720 0.930 . S
C726 C727 1.355 . S
C726 C728 1.415 . S
C727 C726 1.355 . S
C727 C729 1.419 . S
C728 C726 1.415 . S
C728 C733 1.425 . S
C728 C735 1.409 . S
C729 H721 0.930 . S
C729 C727 1.419 . S
C729 C730 1.362 . S
C730 H722 0.930 . S
C730 C729 1.362 . S
C730 C733 1.409 . S
C731 H723 0.930 . S
C731 C732 1.355 . S
C731 C733 1.415 . S
C732 C731 1.355 . S
C732 C734 1.419 . S
C733 C728 1.425 . S
C733 C730 1.409 . S
C733 C731 1.415 . S
C734 H724 0.930 . S
C734 C732 1.419 . S
C734 C735 1.362 . S
C735 H725 0.930 . S
C735 C728 1.409 . S
C735 C734 1.362 . S
H736 C742 0.930 . S
H737 C745 0.930 . S
H738 C746 0.930 . S
H739 C747 0.930 . S
H740 C750 0.930 . S
H741 C751 0.930 . S
C742 H736 0.930 . S
C742 C743 1.355 . S
C742 C744 1.415 . S
C743 C742 1.355 . S
C743 C745 1.419 . S
C744 C742 1.415 . S
C744 C749 1.425 . S
C744 C751 1.409 . S
C745 H737 0.930 . S
C745 C743 1.419 . S
C745 C746 1.362 . S
C746 H738 0.930 . S
C746 C745 1.362 . S
C746 C749 1.409 . S
C747 H739 0.930 . S
C747 C748 1.355 . S
C747 C749 1.415 . S
C748 C747 1.355 . S
C748 C750 1.419 . S
C749 C744 1.425 . S
C749 C746 1.409 . S
C749 C747 1.415 . S
C750 H740 0.930 . S
C750 C748 1.419 . S
C750 C751 1.362 . S
C751 H741 0.930 . S
C751 C744 1.409 . S
C751 C750 1.362 . S
H752 C758 0.930 . S
H753 C761 0.930 . S
H754 C762 0.930 . S
H755 C763 0.930 . S
H756 C766 0.930 . S
H757 C767 0.930 . S
C758 H752 0.930 . S
C758 C759 1.355 . S
C758 C760 1.415 . S
C759 C758 1.355 . S
C759 C761 1.419 . S
C760 C758 1.415 . S
C760 C765 1.425 . S
C760 C767 1.409 . S
C761 H753 0.930 . S
C761 C759 1.419 . S
C761 C762 1.362 . S
C762 H754 0.930 . S
C762 C761 1.362 . S
C762 C765 1.409 . S
C763 H755 0.930 . S
C763 C764 1.355 . S
C763 C765 1.415 . S
C764 C763 1.355 . S
C764 C766 1.419 . S
C765 C760 1.425 . S
C765 C762 1.409 . S
C765 C763 1.415 . S
C766 H756 0.930 . S
C766 C764 1.419 . S
C766 C767 1.362 . S
C767 H757 0.930 . S
C767 C760 1.409 . S
C767 C766 1.362 . S
H768 C774 0.930 . S
H769 C777 0.930 . S
H770 C778 0.930 . S
H771 C779 0.930 . S
H772 C782 0.930 . S
H773 C783 0.930 . S
C774 H768 0.930 . S
C774 C775 1.355 . S
C774 C776 1.415 . S
C775 C774 1.355 . S
C775 C777 1.419 . S
C776 C774 1.415 . S
C776 C781 1.425 . S
C776 C783 1.409 . S
C777 H769 0.930 . S
C777 C775 1.419 . S
C777 C778 1.362 . S
C778 H770 0.930 . S
C778 C777 1.362 . S
C778 C781 1.409 . S
C779 H771 0.930 . S
C779 C780 1.355 . S
C779 C781 1.415 . S
C780 C779 1.355 . S
C780 C782 1.419 . S
C781 C776 1.425 . S
C781 C778 1.409 . S
C781 C779 1.415 . S
C782 H772 0.930 . S
C782 C780 1.419 . S
C782 C783 1.362 . S
C783 H773 0.930 . S
C783 C776 1.409 . S
C783 C782 1.362 . S
H784 C790 0.930 . S
H785 C793 0.930 . S
H786 C794 0.930 . S
H787 C795 0.930 . S
H788 C798 0.930 . S
H789 C799 0.930 . S
C790 H784 0.930 . S
C790 C791 1.355 . S
C790 C792 1.415 . S
C791 C790 1.355 . S
C791 C793 1.419 . S
C792 C790 1.415 . S
C792 C797 1.425 . S
C792 C799 1.409 . S
C793 H785 0.930 . S
C793 C791 1.419 . S
C793 C794 1.362 . S
C794 H786 0.930 . S
C794 C793 1.362 . S
C794 C797 1.409 . S
C795 H787 0.930 . S
C795 C796 1.355 . S
C795 C797 1.415 . S
C796 C795 1.355 . S
C796 C798 1.419 . S
C797 C792 1.425 . S
C797 C794 1.409 . S
C797 C795 1.415 . S
C798 H788 0.930 . S
C798 C796 1.419 . S
C798 C799 1.362 . S
C799 H789 0.930 . S
C799 C792 1.409 . S
C799 C798 1.362 . S
H800 C806 0.930 . S
H801 C809 0.930 . S
H802 C810 0.930 . S
H803 C811 0.930 . S
H804 C814 0.930 . S
H805 C815 0.930 . S
C806 H800 0.930 . S
C806 C807 1.355 . S
C806 C808 1.415 . S
C807 C806 1.355 . S
C807 C809 1.419 . S
C808 C806 1.415 . S
C808 C813 1.425 . S
C808 C815 1.409 . S
C809 H801 0.930 . S
C809 C807 1.419 . S
C809 C810 1.362 . S
C810 H802 0.930 . S
C810 C809 1.362 . S
C810 C813 1.409 . S
C811 H803 0.930 . S
C811 C812 1.355 . S
C811 C813 1.415 . S
C812 C811 1.355 . S
C812 C814 1.419 . S
C813 C808 1.425 . S
C813 C810 1.409 . S
C813 C811 1.415 . S
C814 H804 0.930 . S
C814 C812 1.419 . S
C814 C815 1.362 . S
C815 H805 0.930 . S
C815 C808 1.409 . S
C815 C814 1.362 . S
H816 C822 0.930 . S
H817 C825 0.930 . S
H818 C826 0.930 . S
H819 C827 0.930 . S
H820 C830 0.930 . S
H821 C831 0.930 . S
C822 H816 0.930 . S
C822 C823 1.355 . S
C822 C824 1.415 . S
C823 C822 1.355 . S
C823 C825 1.419 . S
C824 C822 1.415 . S
C824 C829 1.425 . S
C824 C831 1.409 . S
C825 H817 0.930 . S
C825 C823 1.419 . S
C825 C826 1.362 . S
C826 H818 0.930 . S
C826 C825 1.362 . S
C826 C829 1.409 . S
C827 H819 0.930 . S
C827 C828 1.355 . S
C827 C829 1.415 . S
C828 C827 1.355 . S
C828 C830 1.419 . S
C829 C824 1.425 . S
C829 C826 1.409 . S
C829 C827 1.415 . S
C830 H820 0.930 . S
C830 C828 1.419 . S
C830 C831 1.362 . S
C831 H821 0.930 . S
C831 C824 1.409 . S
C831 C830 1.362 . S
H832 C838 0.930 . S
H833 C841 0.930 . S
H834 C842 0.930 . S
H835 C843 0.930 . S
H836 C846 0.930 . S
H837 C847 0.930 . S
C838 H832 0.930 . S
C838 C839 1.355 . S
C838 C840 1.415 . S
C839 C838 1.355 . S
C839 C841 1.419 . S
C840 C838 1.415 . S
C840 C845 1.425 . S
C840 C847 1.409 . S
C841 H833 0.930 . S
C841 C839 1.419 . S
C841 C842 1.362 . S
C842 H834 0.930 . S
C842 C841 1.362 . S
C842 C845 1.409 . S
C843 H835 0.930 . S
C843 C844 1.355 . S
C843 C845 1.415 . S
C844 C843 1.355 . S
C844 C846 1.419 . S
C845 C840 1.425 . S
C845 C842 1.409 . S
C845 C843 1.415 . S
C846 H836 0.930 . S
C846 C844 1.419 . S
C846 C847 1.362 . S
C847 H837 0.930 . S
C847 C840 1.409 . S
C847 C846 1.362 . S
H848 C854 0.930 . S
H849 C857 0.930 . S
H850 C858 0.930 . S
H851 C859 0.930 . S
H852 C862 0.930 . S
H853 C863 0.930 . S
C854 H848 0.930 . S
C854 C855 1.355 . S
C854 C856 1.415 . S
C855 C854 1.355 . S
C855 C857 1.419 . S
C856 C854 1.415 . S
C856 C861 1.425 . S
C856 C863 1.409 . S
C857 H849 0.930 . S
C857 C855 1.419 . S
C857 C858 1.362 . S
C858 H850 0.930 . S
C858 C857 1.362 . S
C858 C861 1.409 . S
C859 H851 0.930 . S
C859 C860 1.355 . S
C859 C861 1.415 . S
C860 C859 1.355 . S
C860 C862 1.419 . S
C861 C856 1.425 . S
C861 C858 1.409 . S
C861 C859 1.415 . S
C862 H852 0.930 . S
C862 C860 1.419 . S
C862 C863 1.362 . S
C863 H853 0.930 . S
C863 C856 1.409 . S
C863 C862 1.362 . S
H864 C870 0.930 . S
H865 C873 0.930 . S
H866 C874 0.923 1_554 S
H867 C875 0.930 . S
H868 C878 0.930 . S
H869 C879 0.923 1_556 S
C870 H864 0.930 . S
C870 C871 1.355 . S
C870 C872 1.415 . S
C871 C870 1.355 . S
C871 C873 1.419 . S
C872 C870 1.415 . S
C872 C877 1.425 1_556 S
C872 C879 1.409 1_556 S
C873 H865 0.930 . S
C873 C871 1.419 . S
C873 C874 1.362 . S
C874 H866 0.923 1_556 S
C874 C873 1.362 . S
C874 C877 1.409 1_556 S
C875 H867 0.930 . S
C875 C876 1.355 . S
C875 C877 1.415 . S
C876 C875 1.355 . S
C876 C878 1.419 . S
C877 C872 1.425 1_554 S
C877 C874 1.409 1_554 S
C877 C875 1.415 . S
C878 H868 0.930 . S
C878 C876 1.419 . S
C878 C879 1.362 . S
C879 H869 0.923 1_554 S
C879 C872 1.409 1_554 S
C879 C878 1.362 . S
H880 C886 0.930 . S
H881 C889 0.930 . S
H882 C890 0.930 . S
H883 C891 0.930 . S
H884 C894 0.930 . S
H885 C895 0.930 . S
C886 H880 0.930 . S
C886 C887 1.355 . S
C886 C888 1.415 . S
C887 C886 1.355 . S
C887 C889 1.419 . S
C888 C886 1.415 . S
C888 C893 1.425 1_455 S
C888 C895 1.409 1_455 S
C889 H881 0.930 . S
C889 C887 1.419 . S
C889 C890 1.362 . S
C890 H882 0.930 . S
C890 C889 1.362 . S
C890 C893 1.409 1_455 S
C891 H883 0.930 . S
C891 C892 1.355 . S
C891 C893 1.415 . S
C892 C891 1.355 . S
C892 C894 1.419 . S
C893 C888 1.425 1_655 S
C893 C890 1.409 1_655 S
C893 C891 1.415 . S
C894 H884 0.930 . S
C894 C892 1.419 . S
C894 C895 1.362 . S
C895 H885 0.930 . S
C895 C888 1.409 1_655 S
C895 C894 1.362 . S
H896 C902 0.930 . S
H897 C905 0.930 . S
H898 C906 0.930 . S
H899 C907 0.930 . S
H900 C910 0.930 . S
H901 C911 0.930 . S
C902 H896 0.930 . S
C902 C903 1.355 . S
C902 C904 1.415 1_554 S
C903 C902 1.355 . S
C903 C905 1.419 1_565 S
C904 C902 1.415 1_556 S
C904 C909 1.425 1_566 S
C904 C911 1.409 . S
C905 H897 0.930 . S
C905 C903 1.419 1_545 S
C905 C906 1.362 . S
C906 H898 0.930 . S
C906 C905 1.362 . S
C906 C909 1.409 . S
C907 H899 0.930 . S
C907 C908 1.355 . S
C907 C909 1.415 1_556 S
C908 C907 1.355 . S
C908 C910 1.419 1_545 S
C909 C904 1.425 1_544 S
C909 C906 1.409 . S
C909 C907 1.415 1_554 S
C910 H900 0.930 . S
C910 C908 1.419 1_565 S
C910 C911 1.362 . S
C911 H901 0.930 . S
C911 C904 1.409 . S
C911 C910 1.362 . S
H912 C918 0.930 . S
H913 C921 0.930 . S
H914 C922 0.930 . S
H915 C923 0.930 . S
H916 C926 0.930 . S
H917 C927 0.930 . S
C918 H912 0.930 . S
C918 C919 1.355 . S
C918 C920 1.415 . S
C919 C918 1.355 . S
C919 C921 1.419 . S
C920 C918 1.415 . S
C920 C925 1.425 . S
C920 C927 1.409 . S
C921 H913 0.930 . S
C921 C919 1.419 . S
C921 C922 1.362 . S
C922 H914 0.930 . S
C922 C921 1.362 . S
C922 C925 1.409 . S
C923 H915 0.930 . S
C923 C924 1.355 . S
C923 C925 1.415 . S
C924 C923 1.355 . S
C924 C926 1.419 . S
C925 C920 1.425 . S
C925 C922 1.409 . S
C925 C923 1.415 . S
C926 H916 0.930 . S
C926 C924 1.419 . S
C926 C927 1.362 . S
C927 H917 0.930 . S
C927 C920 1.409 . S
C927 C926 1.362 . S
H928 C934 0.930 . S
H929 C937 0.930 . S
H930 C938 0.930 . S
H931 C939 0.930 . S
H932 C942 0.930 . S
H933 C943 0.930 . S
C934 H928 0.930 . S
C934 C935 1.355 . S
C934 C936 1.415 . S
C935 C934 1.355 . S
C935 C937 1.419 . S
C936 C934 1.415 . S
C936 C941 1.425 1_656 S
C936 C943 1.409 1_656 S
C937 H929 0.930 . S
C937 C935 1.419 . S
C937 C938 1.362 . S
C938 H930 0.930 . S
C938 C937 1.362 . S
C938 C941 1.409 1_656 S
C939 H931 0.930 . S
C939 C940 1.355 . S
C939 C941 1.415 . S
C940 C939 1.355 . S
C940 C942 1.419 . S
C941 C936 1.425 1_454 S
C941 C938 1.409 1_454 S
C941 C939 1.415 . S
C942 H932 0.930 . S
C942 C940 1.419 . S
C942 C943 1.362 . S
C943 H933 0.930 . S
C943 C936 1.409 1_454 S
C943 C942 1.362 . S
H944 C950 0.930 . S
H945 C953 0.930 . S
H946 C954 0.930 . S
H947 C955 0.930 . S
H948 C958 0.930 . S
H949 C959 0.930 . S
C950 H944 0.930 . S
C950 C951 1.355 . S
C950 C952 1.415 . S
C951 C950 1.355 . S
C951 C953 1.419 1_565 S
C952 C950 1.415 . S
C952 C957 1.425 1_565 S
C952 C959 1.409 . S
C953 H945 0.930 . S
C953 C951 1.419 1_545 S
C953 C954 1.362 . S
C954 H946 0.930 . S
C954 C953 1.362 . S
C954 C957 1.409 . S
C955 H947 0.930 . S
C955 C956 1.355 . S
C955 C957 1.415 . S
C956 C955 1.355 . S
C956 C958 1.419 1_545 S
C957 C952 1.425 1_545 S
C957 C954 1.409 . S
C957 C955 1.415 . S
C958 H948 0.930 . S
C958 C956 1.419 1_565 S
C958 C959 1.362 . S
C959 H949 0.930 . S
C959 C952 1.409 . S
C959 C958 1.362 . S
C391 C132 1.121 . S
C396 C6 1.130 . S
C407 C189 1.108 . S
C412 C34 1.094 1_455 S
C423 C70 1.092 1_545 S
C428 C29 1.107 . S
C439 C98 1.092 . S
C444 C36 1.109 . S
C455 C130 1.102 1_655 S
C460 C93 1.109 . S
C471 C100 1.120 . S
C476 C166 1.103 1_565 S
C487 C285 1.119 . S
C492 C194 1.126 . S
C503 C230 1.120 1_455 S
C508 C292 1.115 . S
C519 C349 1.121 . S
C524 C262 1.129 1_545 S
C535 C290 1.107 . S
C540 C381 1.110 . S
C551 C326 1.135 1_655 S
C556 C196 1.129 . S
C567 C253 1.119 . S
C572 C358 1.080 1_565 S
C583 C134 1.199 . S
C588 C4 1.218 . S
C599 C61 1.212 . S
C604 C162 1.191 . S
C615 C68 1.229 . S
C620 C2 1.231 . S
C631 C125 1.230 . S
C636 C38 1.229 . S
C647 C66 1.232 . S
C652 C157 1.227 . S
C663 C102 1.217 . S
C668 C164 1.214 . S
C679 C258 1.189 . S
C684 C221 1.205 . S
C695 C228 1.213 . S
C700 C294 1.192 . S
C711 C260 1.208 . S
C716 C322 1.188 . S
C727 C354 1.232 . S
C732 C317 1.227 . S
C743 C324 1.224 . S
C748 C198 1.230 . S
C759 C226 1.193 . S
C764 C356 1.213 . S
C775 N338 1.513 . S
C780 N18 1.544 . S
C791 N45 1.542 . S
C796 N370 1.514 . S
C807 N82 1.564 . S
C812 N205 1.504 . S
C823 N109 1.535 . S
C828 N242 1.521 . S
C839 N141 1.540 . S
C844 N274 1.534 . S
C855 N301 1.497 . S
C860 N178 1.568 . S
C871 N306 1.631 . S
C876 N13 1.678 . S
C887 N333 1.630 . S
C892 N50 1.677 . S
C903 N77 1.666 . S
C908 N365 1.637 . S
C919 N114 1.671 . S
C924 N210 1.645 . S
C935 N237 1.631 . S
C940 N146 1.675 . S
C951 N269 1.666 . S
C956 N173 1.637 . S
