# Generated by pormake.
# Topology mdf, (4)-cn, num edge types: 1
# Building blocks:
#     Node 0, Type 0, BuildingBlock: UXUYUI_clean_sbu_0, # of connection points: 4
#     Node 1, Type 0, BuildingBlock: UXUYUI_clean_sbu_0, # of connection points: 4
#     Node 2, Type 0, BuildingBlock: UXUYUI_clean_sbu_0, # of connection points: 4
#     Node 3, Type 0, BuildingBlock: UXUYUI_clean_sbu_0, # of connection points: 4
#     Node 4, Type 0, BuildingBlock: UXUYUI_clean_sbu_0, # of connection points: 4
#     Node 5, Type 0, BuildingBlock: UXUYUI_clean_sbu_0, # of connection points: 4
#     Node 6, Type 0, BuildingBlock: UXUYUI_clean_sbu_0, # of connection points: 4
#     Node 7, Type 0, BuildingBlock: UXUYUI_clean_sbu_0, # of connection points: 4
#     Edge 8, Type (0, 0), BuildingBlock: EZIPEK_clean_linker_0, # of connection points: 2
#     Edge 9, Type (0, 0), BuildingBlock: EZIPEK_clean_linker_0, # of connection points: 2
#     Edge 10, Type (0, 0), BuildingBlock: EZIPEK_clean_linker_0, # of connection points: 2
#     Edge 11, Type (0, 0), BuildingBlock: EZIPEK_clean_linker_0, # of connection points: 2
#     Edge 12, Type (0, 0), BuildingBlock: EZIPEK_clean_linker_0, # of connection points: 2
#     Edge 13, Type (0, 0), BuildingBlock: EZIPEK_clean_linker_0, # of connection points: 2
#     Edge 14, Type (0, 0), BuildingBlock: EZIPEK_clean_linker_0, # of connection points: 2
#     Edge 15, Type (0, 0), BuildingBlock: EZIPEK_clean_linker_0, # of connection points: 2
#     Edge 16, Type (0, 0), BuildingBlock: EZIPEK_clean_linker_0, # of connection points: 2
#     Edge 17, Type (0, 0), BuildingBlock: EZIPEK_clean_linker_0, # of connection points: 2
#     Edge 18, Type (0, 0), BuildingBlock: EZIPEK_clean_linker_0, # of connection points: 2
#     Edge 19, Type (0, 0), BuildingBlock: EZIPEK_clean_linker_0, # of connection points: 2
#     Edge 20, Type (0, 0), BuildingBlock: EZIPEK_clean_linker_0, # of connection points: 2
#     Edge 21, Type (0, 0), BuildingBlock: EZIPEK_clean_linker_0, # of connection points: 2
#     Edge 22, Type (0, 0), BuildingBlock: EZIPEK_clean_linker_0, # of connection points: 2
#     Edge 23, Type (0, 0), BuildingBlock: EZIPEK_clean_linker_0, # of connection points: 2
# Relax obj value: 0.090
# Max RMSD: 0.078
# Mean RMSD: 0.078
data_MOF--net-mdf--node1-UXUYUI_clean_sbu_0--edge1-EZIPEK_clean_linker_0
_symmetry_space_group_name_H-M    P1
_symmetry_Int_Tables_number       1
_symmetry_cell_setting            triclinic
loop_
_symmetry_equiv_pos_as_xyz
'x, y, z'
_cell_length_a     40.712877
_cell_length_b     40.852564
_cell_length_c     18.605276
_cell_angle_alpha  89.896216
_cell_angle_beta   89.970524
_cell_angle_gamma 89.979581
loop_
_atom_site_label
_atom_site_type_symbol
_atom_site_fract_x
_atom_site_fract_y
_atom_site_fract_z
_atom_type_partial_charge
Li0 Li 0.23939 0.58596 0.42683 0.0
Li1 Li 0.22191 0.54364 0.34154 0.0
Li2 Li 0.27766 0.54291 0.39383 0.0
Li3 Li 0.26123 0.58444 0.30377 0.0
C4 C 0.22054 0.5366 0.5085 0.0
N5 N 0.18996 0.53679 0.64107 0.0
C6 C 0.18645 0.53313 0.51316 0.0
C7 C 0.2391 0.53996 0.57122 0.0
C8 C 0.17145 0.53333 0.58072 0.0
C9 C 0.22318 0.54004 0.63774 0.0
C10 C 0.20537 0.61738 0.29407 0.0
C11 C 0.19278 0.64082 0.17821 0.0
N12 N 0.1893 0.6707 0.20947 0.0
C13 C 0.20157 0.6483 0.32509 0.0
C14 C 0.20059 0.61351 0.22017 0.0
C15 C 0.19335 0.67494 0.28142 0.0
C16 C 0.24705 0.62774 0.54823 0.0
N17 N 0.22488 0.61279 0.50456 0.0
C18 C 0.18034 0.63204 0.57677 0.0
C19 C 0.19203 0.6151 0.51689 0.0
C20 C 0.20272 0.6469 0.62369 0.0
C21 C 0.23641 0.64511 0.60857 0.0
H22 H 0.27298 0.62578 0.53689 0.0
H23 H 0.17497 0.60315 0.48094 0.0
C24 C 0.18674 0.48482 0.34506 0.0
N25 N 0.18675 0.51511 0.31456 0.0
C26 C 0.1624 0.46217 0.32753 0.0
C27 C 0.13827 0.50226 0.24763 0.0
C28 C 0.16311 0.52426 0.26692 0.0
C29 C 0.13788 0.47082 0.27818 0.0
H30 H 0.20586 0.47824 0.38277 0.0
H31 H 0.16365 0.5485 0.24357 0.0
C32 C 0.31749 0.59419 0.41482 0.0
N33 N 0.38288 0.59867 0.45317 0.0
C34 C 0.34089 0.60424 0.36437 0.0
C35 C 0.32734 0.5866 0.48488 0.0
C36 C 0.37384 0.60635 0.38484 0.0
C37 C 0.36053 0.58894 0.50317 0.0
C38 C 0.25722 0.50991 0.25165 0.0
C39 C 0.26512 0.47858 0.2765 0.0
C40 C 0.24018 0.51356 0.18692 0.0
C41 C 0.25565 0.45134 0.23624 0.0
C42 C 0.2311 0.4857 0.14831 0.0
N43 N 0.23896 0.45543 0.17356 0.0
C44 C 0.30499 0.49099 0.47499 0.0
C45 C 0.34231 0.516 0.39388 0.0
C46 C 0.32885 0.46829 0.49585 0.0
N47 N 0.31209 0.51426 0.42497 0.0
C48 C 0.36708 0.49417 0.41413 0.0
C49 C 0.36031 0.46978 0.46522 0.0
H50 H 0.28057 0.4896 0.49757 0.0
H51 H 0.34706 0.53409 0.35272 0.0
C52 C 0.27878 0.64321 0.22889 0.0
N53 N 0.27782 0.60994 0.22524 0.0
C54 C 0.29244 0.66144 0.1726 0.0
C55 C 0.30457 0.61083 0.11086 0.0
C56 C 0.29032 0.59363 0.16777 0.0
C57 C 0.3059 0.6451 0.11319 0.0
H58 H 0.26935 0.65556 0.27592 0.0
H59 H 0.28983 0.56719 0.16677 0.0
O60 O 0.2356 0.53727 0.4428 0.0
O61 O 0.21386 0.59108 0.33577 0.0
O62 O 0.2851 0.59196 0.39582 0.0
O63 O 0.2654 0.53685 0.29134 0.0
H64 H 0.17169 0.53076 0.4651 0.0
H65 H 0.26549 0.54275 0.56851 0.0
H66 H 0.14507 0.53087 0.58514 0.0
H67 H 0.23721 0.5428 0.68671 0.0
H68 H 0.18937 0.63826 0.12084 0.0
H69 H 0.20513 0.65176 0.38218 0.0
H70 H 0.2035 0.58977 0.19528 0.0
H71 H 0.19034 0.699 0.30467 0.0
H72 H 0.15417 0.63315 0.58703 0.0
H73 H 0.25422 0.65651 0.64377 0.0
H74 H 0.16277 0.43805 0.3518 0.0
H75 H 0.11968 0.50956 0.20919 0.0
H76 H 0.33376 0.61024 0.30995 0.0
H77 H 0.30961 0.57861 0.52449 0.0
H78 H 0.39223 0.61404 0.34637 0.0
H79 H 0.36854 0.58297 0.55705 0.0
H80 H 0.27813 0.47529 0.32666 0.0
H81 H 0.23369 0.53764 0.16719 0.0
H82 H 0.26146 0.42693 0.25498 0.0
H83 H 0.2177 0.48814 0.09839 0.0
H84 H 0.32279 0.44958 0.535 0.0
H85 H 0.39107 0.49581 0.38916 0.0
H86 H 0.29319 0.6879 0.17598 0.0
H87 H 0.31486 0.59753 0.06582 0.0
Li88 Li 0.44338 0.7407 0.68752 0.0
Li89 Li 0.48893 0.72642 0.60893 0.0
Li90 Li 0.48486 0.78083 0.65469 0.0
Li91 Li 0.4467 0.76434 0.55982 0.0
C92 C 0.49513 0.74485 0.78231 0.0
N93 N 0.50244 0.75484 0.92826 0.0
C94 C 0.51431 0.72343 0.82321 0.0
C95 C 0.47973 0.77137 0.81559 0.0
C96 C 0.51769 0.72888 0.89696 0.0
C97 C 0.48371 0.77601 0.88942 0.0
C98 C 0.44297 0.68774 0.5621 0.0
C99 C 0.4532 0.65398 0.45831 0.0
N100 N 0.45145 0.62685 0.50061 0.0
C101 C 0.44098 0.65954 0.60447 0.0
C102 C 0.44891 0.68501 0.48836 0.0
C103 C 0.44538 0.62895 0.57235 0.0
C104 C 0.3859 0.74047 0.77557 0.0
N105 N 0.41493 0.72524 0.76163 0.0
C106 C 0.40613 0.68773 0.85849 0.0
C107 C 0.42519 0.69921 0.80137 0.0
C108 C 0.37633 0.70326 0.87474 0.0
C109 C 0.36614 0.72993 0.83266 0.0
H110 H 0.37819 0.76091 0.74268 0.0
H111 H 0.44835 0.68753 0.78898 0.0
C112 C 0.53326 0.69237 0.51808 0.0
N113 N 0.51812 0.6917 0.58325 0.0
C114 C 0.5552 0.66755 0.49886 0.0
C115 C 0.54496 0.64144 0.61347 0.0
C116 C 0.52344 0.66691 0.63076 0.0
C117 C 0.56131 0.64182 0.54706 0.0
H118 H 0.52843 0.71231 0.48124 0.0
H119 H 0.51092 0.66698 0.68206 0.0
C120 C 0.42372 0.81727 0.66161 0.0
N121 N 0.39633 0.87873 0.67817 0.0
C122 C 0.42275 0.83912 0.60368 0.0
C123 C 0.41058 0.8267 0.7279 0.0
C124 C 0.40888 0.87009 0.61318 0.0
C125 C 0.39689 0.85787 0.7352 0.0
C126 C 0.51931 0.78844 0.53629 0.0
C127 C 0.51164 0.81889 0.50634 0.0
C128 C 0.55208 0.7803 0.54973 0.0
C129 C 0.53696 0.84087 0.49082 0.0
C130 C 0.5767 0.80295 0.53343 0.0
N131 N 0.56869 0.83251 0.50457 0.0
C132 C 0.54224 0.80767 0.71533 0.0
C133 C 0.50347 0.84847 0.68382 0.0
C134 C 0.56473 0.83153 0.73698 0.0
N135 N 0.51228 0.8164 0.68898 0.0
C136 C 0.5251 0.87313 0.70542 0.0
C137 C 0.55622 0.86469 0.73179 0.0
H138 H 0.54899 0.7821 0.71797 0.0
H139 H 0.48003 0.85518 0.66168 0.0
C140 C 0.39134 0.78686 0.47804 0.0
N141 N 0.42338 0.77738 0.47559 0.0
C142 C 0.37606 0.79946 0.41647 0.0
C143 C 0.42661 0.79084 0.35078 0.0
C144 C 0.44091 0.77862 0.41344 0.0
C145 C 0.39404 0.8019 0.35237 0.0
H146 H 0.37803 0.78569 0.52833 0.0
H147 H 0.46632 0.77088 0.41309 0.0
O148 O 0.49114 0.73939 0.7103 0.0
O149 O 0.44017 0.71795 0.593 0.0
O150 O 0.4361 0.78635 0.65269 0.0
O151 O 0.49484 0.76687 0.55328 0.0
H152 H 0.52632 0.70272 0.79824 0.0
H153 H 0.46497 0.78822 0.78474 0.0
H154 H 0.53241 0.71246 0.92931 0.0
H155 H 0.47191 0.79645 0.91583 0.0
H156 H 0.45806 0.65147 0.40142 0.0
H157 H 0.4365 0.66128 0.66166 0.0
H158 H 0.45068 0.70665 0.45496 0.0
H159 H 0.44411 0.6069 0.60451 0.0
H160 H 0.41462 0.66709 0.89006 0.0
H161 H 0.34323 0.74238 0.84397 0.0
H162 H 0.56744 0.66848 0.44719 0.0
H163 H 0.54915 0.62185 0.6517 0.0
H164 H 0.43294 0.83246 0.55215 0.0
H165 H 0.41075 0.81011 0.77326 0.0
H166 H 0.4081 0.88726 0.56888 0.0
H167 H 0.38659 0.86542 0.78614 0.0
H168 H 0.48641 0.82556 0.49559 0.0
H169 H 0.55839 0.7569 0.57338 0.0
H170 H 0.53139 0.86459 0.46798 0.0
H171 H 0.60215 0.79708 0.54397 0.0
H172 H 0.58866 0.82425 0.7568 0.0
H173 H 0.51789 0.89856 0.70046 0.0
H174 H 0.35092 0.80803 0.41924 0.0
H175 H 0.44108 0.7926 0.30205 0.0
Li176 Li 0.28489 0.97986 0.87102 0.0
Li177 Li 0.27176 0.9355 0.95632 0.0
Li178 Li 0.24773 0.93659 0.83556 0.0
Li179 Li 0.23044 0.97599 0.92756 0.0
C180 C 0.32638 0.93346 0.8406 0.0
N181 N 0.39134 0.94034 0.80016 0.0
C182 C 0.35148 0.92746 0.89015 0.0
C183 C 0.33434 0.94254 0.77022 0.0
C184 C 0.38417 0.93107 0.86864 0.0
C185 C 0.36731 0.9461 0.75096 0.0
C186 C 0.26624 1.00832 0.01881 0.0
C187 C 0.24134 0.02906 0.12719 0.0
N188 N 0.24744 0.06016 0.10465 0.0
C189 C 0.27239 0.04047 0.99681 0.0
C190 C 0.25073 1.00251 0.08464 0.0
C191 C 0.26268 0.06635 0.04098 0.0
C192 C 0.31413 0.0293 0.783 0.0
N193 N 0.31848 0.01004 0.84195 0.0
C194 C 0.37068 0.03479 0.86512 0.0
C195 C 0.34597 0.01249 0.88317 0.0
C196 C 0.36674 0.05498 0.80471 0.0
C197 C 0.33814 0.05206 0.7632 0.0
H198 H 0.29182 0.02735 0.75193 0.0
H199 H 0.34855 0.99728 0.93047 0.0
C200 C 0.29398 0.87514 0.01451 0.0
N201 N 0.29119 0.90771 0.02737 0.0
C202 C 0.31243 0.85519 0.06046 0.0
C203 C 0.32336 0.90223 0.13389 0.0
C204 C 0.30445 0.92124 0.08714 0.0
C205 C 0.33049 0.86907 0.11787 0.0
H206 H 0.2824 0.86469 0.96758 0.0
H207 H 0.30121 0.94707 0.09744 0.0
C208 C 0.22459 0.98649 0.76268 0.0
N209 N 0.18945 0.98673 0.63562 0.0
C210 C 0.19048 0.99045 0.76374 0.0
C211 C 0.24083 0.98278 0.69696 0.0
C212 C 0.17317 0.99052 0.69891 0.0
C213 C 0.22262 0.9829 0.63333 0.0
C214 C 0.21666 0.90106 0.96763 0.0
C215 C 0.21241 0.87081 0.93387 0.0
C216 C 0.21302 0.9034 0.04215 0.0
C217 C 0.20474 0.84332 0.97542 0.0
C218 C 0.20564 0.87529 0.08187 0.0
N219 N 0.20162 0.84609 0.04794 0.0
C220 C 0.25406 0.89547 0.71253 0.0
C221 C 0.19946 0.90823 0.74716 0.0
C222 C 0.24263 0.87783 0.65325 0.0
N223 N 0.23245 0.91052 0.7574 0.0
C224 C 0.187 0.89122 0.6882 0.0
C225 C 0.20874 0.87604 0.64023 0.0
H226 H 0.28014 0.89739 0.72237 0.0
H227 H 0.18286 0.92008 0.78432 0.0
C228 C 0.19383 0.03372 0.9355 0.0
N229 N 0.19483 1.00253 0.96112 0.0
C230 C 0.16864 0.05488 0.95608 0.0
C231 C 0.14584 0.01156 0.02944 0.0
C232 C 0.17151 0.99111 1.0072 0.0
C233 C 0.14427 0.0438 1.00339 0.0
H234 H 0.21263 0.04208 0.89871 0.0
H235 H 0.1728 0.96617 0.02653 0.0
O236 O 0.29419 0.93133 0.86132 0.0
O237 O 0.27454 0.98268 0.97525 0.0
O238 O 0.2419 0.98554 0.82568 0.0
O239 O 0.22419 0.92827 0.9279 0.0
H240 H 0.34585 0.9205 0.94487 0.0
H241 H 0.31524 0.94743 0.73128 0.0
H242 H 0.40384 0.92667 0.90651 0.0
H243 H 0.37381 0.95348 0.69693 0.0
H244 H 0.22909 0.02494 0.17801 0.0
H245 H 0.28412 0.04543 0.94577 0.0
H246 H 0.24564 0.97777 0.10225 0.0
H247 H 0.2671 0.09137 0.02446 0.0
H248 H 0.39243 0.03662 0.89839 0.0
H249 H 0.33434 0.06749 0.71653 0.0
H250 H 0.31175 0.82943 0.04934 0.0
H251 H 0.33274 0.91398 0.18168 0.0
H252 H 0.17742 0.99296 0.81405 0.0
H253 H 0.26714 0.97933 0.69513 0.0
H254 H 0.14675 0.9934 0.69896 0.0
H255 H 0.23485 0.97981 0.58216 0.0
H256 H 0.21509 0.86854 0.87625 0.0
H257 H 0.21625 0.92661 0.06912 0.0
H258 H 0.20132 0.81976 0.95003 0.0
H259 H 0.20295 0.8767 0.13962 0.0
H260 H 0.25998 0.86616 0.61732 0.0
H261 H 0.1607 0.8901 0.67972 0.0
H262 H 0.1681 0.07965 0.9352 0.0
H263 H 0.12735 1.00237 0.06618 0.0
Li264 Li 0.04682 0.78984 0.11024 0.0
Li265 Li 0.08857 0.77321 0.19861 0.0
Li266 Li 0.08838 0.74868 0.07353 0.0
Li267 Li 0.04734 0.73262 0.16375 0.0
C268 C 0.10442 0.82328 0.06823 0.0
N269 N 0.1227 0.87995 0.99705 0.0
C270 C 0.11427 0.85087 0.10702 0.0
C271 C 0.10451 0.8244 0.99311 0.0
C272 C 0.12309 0.87937 0.07011 0.0
C273 C 0.11377 0.85326 0.95815 0.0
C274 C 0.03376 0.78773 0.27811 0.0
C275 C 0.03422 0.78197 0.40716 0.0
N276 N 0.02255 0.81303 0.41359 0.0
C277 C 0.0214 0.81945 0.28597 0.0
C278 C 0.03986 0.76869 0.33913 0.0
C279 C 0.01601 0.83184 0.35492 0.0
C280 C 0.98958 0.81671 0.04815 0.0
N281 N 0.01844 0.82474 0.08049 0.0
C282 C 1.0039 0.88152 0.07896 0.0
C283 C 0.02588 0.85641 0.0962 0.0
C284 C 0.97406 0.87377 0.04557 0.0
C285 C 0.96699 0.84104 0.0296 0.0
H286 H 0.98376 0.79132 0.0381 0.0
H287 H 0.04833 0.86211 0.1243 0.0
C288 C 0.13922 0.77169 0.30562 0.0
N289 N 0.11458 0.78979 0.27613 0.0
C290 C 0.15697 0.78374 0.36431 0.0
C291 C 0.12412 0.83303 0.35997 0.0
C292 C 0.10719 0.82013 0.30141 0.0
C293 C 0.14913 0.81465 0.3923 0.0
H294 H 0.14502 0.74787 0.28381 0.0
H295 H 0.08796 0.83431 0.27625 0.0
C296 C 0.03022 0.74082 0.99374 0.0
N297 N 0.01132 0.72873 0.85361 0.0
C298 C 0.01618 0.71075 0.97539 0.0
C299 C 0.03406 0.76494 0.94107 0.0
C300 C 1.00695 0.70505 0.90419 0.0
C301 C 0.02451 0.75832 0.87048 0.0
C302 C 0.1007 0.69655 0.19859 0.0
C303 C 0.10722 0.66949 0.15497 0.0
C304 C 0.09904 0.69247 0.27311 0.0
C305 C 0.11111 0.63866 0.1865 0.0
C306 C 0.10337 0.6613 0.30266 0.0
N307 N 0.10919 0.63525 0.2591 0.0
C308 C 0.14112 0.74748 0.97093 0.0
C309 C 0.1026 0.70411 0.9633 0.0
C310 C 0.15818 0.73534 0.91131 0.0
N311 N 0.11355 0.73205 0.99484 0.0
C312 C 0.11882 0.69116 0.9038 0.0
C313 C 0.14674 0.70702 0.87696 0.0
H314 H 0.14975 0.76929 0.99781 0.0
H315 H 0.08125 0.69176 0.98458 0.0
C316 C 0.99583 0.70266 0.24336 0.0
N317 N 0.01966 0.69724 0.19346 0.0
C318 C 0.97383 0.67776 0.26179 0.0
C319 C 1.00136 0.64205 0.17756 0.0
C320 C 0.02273 0.66768 0.16053 0.0
C321 C 0.9764 0.64717 0.22823 0.0
H322 H 0.99337 0.72655 0.26756 0.0
H323 H 0.04125 0.66423 0.11962 0.0
O324 O 0.09572 0.79512 0.10365 0.0
O325 O 0.03974 0.7754 0.21101 0.0
O326 O 0.03973 0.74669 0.06311 0.0
O327 O 0.09639 0.7269 0.16854 0.0
H328 H 0.11493 0.85041 0.16503 0.0
H329 H 0.09792 0.80312 0.96195 0.0
H330 H 0.1305 0.90095 0.09956 0.0
H331 H 0.11396 0.85439 0.90005 0.0
H332 H 0.03907 0.76757 0.45484 0.0
H333 H 0.01624 0.83444 0.23939 0.0
H334 H 0.04883 0.74392 0.33402 0.0
H335 H 1.00668 0.85643 0.36178 0.0
H336 H 1.00977 0.90659 0.09272 0.0
H337 H 0.94394 0.83436 1.00457 0.0
H338 H 0.17638 0.76912 0.3879 0.0
H339 H 0.11772 0.85707 0.38009 0.0
H340 H 0.01265 0.69193 0.01556 0.0
H341 H 0.04388 0.78866 0.95471 0.0
H342 H 0.99631 0.68179 0.88915 0.0
H343 H 0.02745 0.77676 0.82918 0.0
H344 H 0.10903 0.67218 0.09735 0.0
H345 H 0.09467 0.71315 0.30788 0.0
H346 H 0.11593 0.61749 0.15328 0.0
H347 H 0.10216 0.65784 0.36026 0.0
H348 H 0.1799 0.7479 0.89202 0.0
H349 H 0.10967 0.66905 0.87878 0.0
H350 H 0.95462 0.68246 0.30073 0.0
H351 H 1.00375 0.61875 0.15037 0.0
Li352 Li 0.74653 0.08287 0.96272 0.0
Li353 Li 0.73133 0.0417 0.87906 0.0
Li354 Li 0.78668 0.0402 0.92369 0.0
Li355 Li 0.76832 0.08446 0.83833 0.0
C356 C 0.72132 0.01629 1.00775 0.0
N357 N 0.67084 0.97763 0.05947 0.0
C358 C 0.69308 0.03073 0.03651 0.0
C359 C 0.72391 0.9822 1.00555 0.0
C360 C 0.66786 0.01076 0.06245 0.0
C361 C 0.69809 0.96307 0.03179 0.0
C362 C 0.69126 0.09079 0.84515 0.0
C363 C 0.65293 0.08037 0.74902 0.0
N364 N 0.62801 0.0914 0.79126 0.0
C365 C 0.66527 0.1021 0.88755 0.0
C366 C 0.68506 0.07981 0.77532 0.0
C367 C 0.63346 0.10212 0.85938 0.0
C368 C 0.72001 0.13969 0.02694 0.0
N369 N 0.73344 0.10987 0.04095 0.0
C370 C 0.72328 0.11615 0.16665 0.0
C371 C 0.73602 0.09821 0.10922 0.0
C372 C 0.70788 0.14625 0.15322 0.0
C373 C 0.70685 0.15841 0.08274 0.0
H374 H 0.71855 0.1484 0.97209 0.0
H375 H 0.74697 0.07446 0.11866 0.0
C376 C 0.70659 0.98527 0.81043 0.0
N377 N 0.69703 0.01147 0.85038 0.0
C378 C 0.68382 0.96139 0.79019 0.0
C379 C 0.64163 0.99167 0.85269 0.0
C380 C 0.66524 0.01485 0.87211 0.0
C381 C 0.65094 0.96454 0.81145 0.0
H382 H 0.73207 0.98262 0.79524 0.0
H383 H 0.65816 0.03525 0.90539 0.0
C384 C 0.80513 0.11192 0.97491 0.0
N385 N 0.82854 0.15959 0.06683 0.0
C386 C 0.80576 0.14469 0.95317 0.0
C387 C 0.81611 0.10344 0.04366 0.0
C388 C 0.81779 0.16841 1.00035 0.0
C389 C 0.8279 0.12789 0.08929 0.0
C390 C 0.79679 0.03044 0.77445 0.0
C391 C 0.82858 0.04118 0.7901 0.0
C392 C 0.79067 0.01441 0.70953 0.0
C393 C 0.85381 0.03543 0.74083 0.0
C394 C 0.81656 0.00913 0.66159 0.0
N395 N 0.84734 0.01965 0.67812 0.0
C396 C 0.81815 0.97947 0.93887 0.0
C397 C 0.85123 0.02435 0.97471 0.0
C398 C 0.84338 0.95753 0.95515 0.0
N399 N 0.82235 0.01212 0.94956 0.0
C400 C 0.87724 1.00327 0.99122 0.0
C401 C 0.87325 0.96948 0.98167 0.0
H402 H 0.79528 0.97055 0.91688 0.0
H403 H 0.85428 0.05046 0.98087 0.0
C404 C 0.81586 0.12085 0.76256 0.0
N405 N 0.78364 0.112 0.76216 0.0
C406 C 0.82907 0.13874 0.70546 0.0
C407 C 0.77542 0.13932 0.64977 0.0
C408 C 0.76326 0.12133 0.70793 0.0
C409 C 0.8088 0.14768 0.64786 0.0
H410 H 0.8315 0.11342 0.80662 0.0
H411 H 0.73772 0.11439 0.70903 0.0
O412 O 0.74609 0.03545 0.98112 0.0
O413 O 0.72255 0.09044 0.87195 0.0
O414 O 0.79383 0.08827 0.92915 0.0
O415 O 0.77151 0.03613 0.82137 0.0
H416 H 0.69031 0.05704 0.03747 0.0
H417 H 0.74549 0.97059 0.98333 0.0
H418 H 0.64579 0.02161 0.08441 0.0
H419 H 0.69969 0.93666 0.03 0.0
H420 H 0.64776 0.07178 0.69525 0.0
H421 H 0.66951 0.11041 0.94189 0.0
H422 H 0.70473 0.07023 0.74238 0.0
H423 H 0.6131 0.11066 0.89169 0.0
H424 H 0.72438 0.1062 0.2206 0.0
H425 H 0.69508 0.18158 0.07089 0.0
H426 H 0.69179 0.94056 0.75873 0.0
H427 H 0.61645 0.99465 0.87035 0.0
H428 H 0.79705 0.15173 0.90042 0.0
H429 H 0.81531 0.07826 0.06177 0.0
H430 H 0.81856 0.19384 0.98413 0.0
H431 H 0.83654 0.12167 0.14258 0.0
H432 H 0.83371 0.0542 0.8393 0.0
H433 H 0.76614 1.00626 0.69612 0.0
H434 H 0.87851 0.04365 0.7523 0.0
H435 H 0.81218 0.99674 0.61117 0.0
H436 H 0.83978 0.93155 0.94667 0.0
H437 H 0.90018 0.01314 0.01111 0.0
H438 H 0.85495 0.14488 0.70534 0.0
H439 H 0.75922 0.14595 0.60592 0.0
Li440 Li 0.93161 0.24431 0.20397 0.0
Li441 Li 0.97206 0.22763 0.11491 0.0
Li442 Li 0.97193 0.2831 0.15679 0.0
Li443 Li 0.92888 0.26467 0.07345 0.0
C444 C 0.01194 0.24149 0.23529 0.0
N445 N 0.07709 0.23847 0.27633 0.0
C446 C 0.03683 0.2461 0.18453 0.0
C447 C 0.02018 0.23539 0.30697 0.0
C448 C 0.06961 0.24445 0.20628 0.0
C449 C 0.05326 0.23397 0.32666 0.0
C450 C 0.92163 0.18751 0.09226 0.0
C451 C 0.91749 0.14659 0.99944 0.0
N452 N 0.91748 0.12276 0.0506 0.0
C453 C 0.92149 0.16265 0.14394 0.0
C454 C 0.91958 0.17947 0.01942 0.0
C455 C 0.91944 0.13005 0.12178 0.0
C456 C 0.87559 0.24093 0.29533 0.0
N457 N 0.907 0.23056 0.28494 0.0
C458 C 0.90476 0.19759 0.39091 0.0
C459 C 0.92181 0.20948 0.3313 0.0
C460 C 0.87228 0.2076 0.4026 0.0
C461 C 0.85759 0.22964 0.35445 0.0
H462 H 0.8645 0.25771 0.25738 0.0
H463 H 0.94673 0.20154 0.32123 0.0
C464 C 0.01213 0.18553 0.02427 0.0
N465 N 0.99948 0.1904 0.09115 0.0
C466 C 0.03417 0.15996 0.0116 0.0
C467 C 0.02877 0.14372 0.13593 0.0
C468 C 1.00687 0.16967 0.14624 0.0
C469 C 0.04308 0.1391 0.06817 0.0
H470 H 1.00567 0.20162 0.98075 0.0
H471 H 0.99623 0.17371 0.19876 0.0
C472 C 0.92206 0.31929 0.1984 0.0
N473 N 0.92126 0.37993 0.26387 0.0
C474 C 0.92214 0.34779 0.15674 0.0
C475 C 0.92154 0.3216 0.27333 0.0
C476 C 0.92185 0.37823 0.19088 0.0
C477 C 0.92106 0.3525 0.30541 0.0
C478 C 0.99163 0.26695 0.99164 0.0
C479 C 0.0237 0.27866 0.98379 0.0
C480 C 0.975 0.25463 0.93173 0.0
C481 C 0.03873 0.27751 0.91633 0.0
C482 C 0.99085 0.25398 0.86515 0.0
N483 N 0.02213 0.26531 0.8589 0.0
C484 C 1.00912 0.32465 0.24914 0.0
C485 C 1.00769 0.34081 0.12667 0.0
C486 C 0.0305 0.35035 0.26546 0.0
N487 N 0.99866 0.32008 0.18044 0.0
C488 C 0.02897 0.36687 0.14062 0.0
C489 C 0.04092 0.37149 0.21054 0.0
H490 H 1.00126 0.30802 0.29103 0.0
H491 H 0.9987 0.33681 0.07272 0.0
C492 C 0.87527 0.25926 0.97473 0.0
N493 N 0.90123 0.27775 0.99649 0.0
C494 C 0.85707 0.26851 0.9142 0.0
C495 C 0.89228 0.31589 0.9012 0.0
C496 C 0.90979 0.30571 0.96157 0.0
C497 C 0.86579 0.29706 0.87677 0.0
H498 H 0.86915 0.23706 1.0035 0.0
H499 H 0.9308 0.31963 0.97967 0.0
O500 O 0.97961 0.24312 0.21541 0.0
O501 O 0.92338 0.21957 0.11299 0.0
O502 O 0.92283 0.28926 0.16607 0.0
O503 O 0.97631 0.26862 0.05707 0.0
H504 H 0.03092 0.25075 0.12892 0.0
H505 H 1.0012 0.23191 0.34702 0.0
H506 H 0.08911 0.2479 0.16748 0.0
H507 H 0.06 0.22929 0.38197 0.0
H508 H 0.91583 0.14001 0.94327 0.0
H509 H 0.92303 0.16846 0.20053 0.0
H510 H 0.91952 0.1984 0.97873 0.0
H511 H 0.91935 0.11055 0.16118 0.0
H512 H 0.91659 0.18043 0.42704 0.0
H513 H 0.83245 0.23759 0.36208 0.0
H514 H 0.04464 0.15682 0.95852 0.0
H515 H 0.03504 0.12786 0.18057 0.0
H516 H 0.92261 0.34642 0.09871 0.0
H517 H 0.92166 0.29977 0.30636 0.0
H518 H 0.92198 0.4005 0.15934 0.0
H519 H 0.92063 0.35467 0.36334 0.0
H520 H 0.03686 0.28865 0.02925 0.0
H521 H 0.95031 0.24527 0.93659 0.0
H522 H 0.06356 0.28642 0.90958 0.0
H523 H 0.97829 0.2444 0.81847 0.0
H524 H 0.03927 0.3534 0.31999 0.0
H525 H 0.03652 0.3829 0.09722 0.0
H526 H 0.83682 0.25343 0.89616 0.0
H527 H 0.89965 0.33791 0.87298 0.0
Li528 Li 0.79684 0.47238 0.35247 0.0
Li529 Li 0.78229 0.42699 0.43443 0.0
Li530 Li 0.76014 0.43112 0.31403 0.0
Li531 Li 0.74167 0.47058 0.40139 0.0
C532 C 0.81838 0.40596 0.28872 0.0
N533 N 0.83938 0.36661 0.17711 0.0
C534 C 0.81999 0.37202 0.29771 0.0
C535 C 0.82775 0.41992 0.2232 0.0
C536 C 0.83068 0.35254 0.24063 0.0
C537 C 0.83817 0.39959 0.16733 0.0
C538 C 0.80667 0.4955 0.48164 0.0
C539 C 0.82392 0.54876 0.52261 0.0
N540 N 0.85537 0.53771 0.52732 0.0
C541 C 0.83913 0.4846 0.48738 0.0
C542 C 0.79894 0.52778 0.49977 0.0
C543 C 0.8634 0.50634 0.51039 0.0
C544 C 0.82234 0.53436 0.31821 0.0
N545 N 0.83067 0.50228 0.32508 0.0
C546 C 0.88686 0.51444 0.29872 0.0
C547 C 0.86214 0.49193 0.31554 0.0
C548 C 0.87893 0.54773 0.29211 0.0
C549 C 0.84627 0.55769 0.3018 0.0
H550 H 0.79712 0.54184 0.32652 0.0
H551 H 0.8681 0.46629 0.32199 0.0
C552 C 0.79109 0.36568 0.50458 0.0
N553 N 0.79535 0.3986 0.51083 0.0
C554 C 0.79967 0.34483 0.5613 0.0
C555 C 0.81602 0.39225 0.63019 0.0
C556 C 0.80702 0.41212 0.57245 0.0
C557 C 0.8126 0.35824 0.62459 0.0
H558 H 0.7807 0.35567 0.45588 0.0
H559 H 0.80904 0.43837 0.5772 0.0
C560 C 0.72784 0.48599 0.2615 0.0
N561 N 0.67244 0.5001 0.18145 0.0
C562 C 0.69909 0.46776 0.27119 0.0
C563 C 0.72836 0.51144 0.21125 0.0
C564 C 0.67137 0.47525 0.23014 0.0
C565 C 0.7001 0.51819 0.17128 0.0
C566 C 0.718 0.41017 0.46088 0.0
C567 C 0.69847 0.38224 0.4538 0.0
C568 C 0.72126 0.42498 0.52824 0.0
C569 C 0.68253 0.36955 0.51422 0.0
C570 C 0.70478 0.41163 0.5873 0.0
N571 N 0.68599 0.38438 0.57916 0.0
C572 C 0.73123 0.37723 0.24089 0.0
C573 C 0.75022 0.42025 0.1658 0.0
C574 C 0.7177 0.36107 0.18173 0.0
N575 N 0.74643 0.40659 0.23204 0.0
C576 C 0.73718 0.40492 0.10526 0.0
C577 C 0.72009 0.37538 0.11337 0.0
H578 H 0.7288 0.36688 0.29411 0.0
H579 H 0.76251 0.44358 0.16032 0.0
C580 C 0.71148 0.53103 0.42112 0.0
N581 N 0.7061 0.49848 0.4311 0.0
C582 C 0.68746 0.55392 0.43968 0.0
C583 C 0.65225 0.50943 0.47715 0.0
C584 C 0.6769 0.48733 0.45723 0.0
C585 C 0.65755 0.54315 0.46858 0.0
H586 H 0.73449 0.53919 0.39818 0.0
H587 H 0.67247 0.46138 0.46216 0.0
O588 O 0.80764 0.42545 0.34367 0.0
O589 O 0.78276 0.47482 0.45704 0.0
O590 O 0.75548 0.47916 0.30066 0.0
O591 O 0.73582 0.42131 0.40342 0.0
H592 H 0.81304 0.36083 0.34814 0.0
H593 H 0.82653 0.44614 0.21526 0.0
H594 H 0.83206 0.32624 0.24682 0.0
H595 H 0.84528 0.41003 0.11617 0.0
H596 H 0.81832 0.57385 0.53653 0.0
H597 H 0.84556 0.45975 0.47296 0.0
H598 H 0.77395 0.53657 0.49624 0.0
H599 H 0.88866 0.49833 0.5144 0.0
H600 H 0.9119 0.50609 0.29152 0.0
H601 H 0.83947 0.58323 0.29704 0.0
H602 H 0.79647 0.31863 0.55587 0.0
H603 H 0.8256 0.40327 0.67877 0.0
H604 H 0.6981 0.44798 0.30975 0.0
H605 H 0.75041 0.52579 0.2032 0.0
H606 H 0.649 0.46129 0.23696 0.0
H607 H 0.70017 0.5378 0.13215 0.0
H608 H 0.69593 0.37022 0.40234 0.0
H609 H 0.73656 0.44638 0.53507 0.0
H610 H 0.66748 0.34783 0.50952 0.0
H611 H 0.70714 0.42281 0.63971 0.0
H612 H 0.70457 0.33827 0.18946 0.0
H613 H 0.73932 0.41652 0.05307 0.0
H614 H 0.69216 0.57977 0.43183 0.0
H615 H 0.62925 0.50036 0.49869 0.0
Li616 Li 0.53527 0.29258 0.61273 0.0
Li617 Li 0.57844 0.27923 0.6958 0.0
Li618 Li 0.5765 0.25491 0.57232 0.0
Li619 Li 0.53524 0.23849 0.6617 0.0
C620 C 0.58753 0.32892 0.56329 0.0
N621 N 0.59489 0.38621 0.48587 0.0
C622 C 0.60043 0.35681 0.59632 0.0
C623 C 0.57866 0.33005 0.49081 0.0
C624 C 0.60374 0.38562 0.55635 0.0
C625 C 0.58259 0.35926 0.45256 0.0
C626 C 0.5133 0.30625 0.7414 0.0
C627 C 0.46172 0.33187 0.7715 0.0
N628 N 0.47795 0.35997 0.78793 0.0
C629 C 0.52948 0.33539 0.75862 0.0
C630 C 0.47916 0.30443 0.74803 0.0
C631 C 0.51117 0.36226 0.78212 0.0
C632 C 0.4759 0.31673 0.55679 0.0
N633 N 0.5054 0.32671 0.58313 0.0
C634 C 0.48938 0.38287 0.57141 0.0
C635 C 0.51229 0.3591 0.59148 0.0
C636 C 0.45879 0.37318 0.54421 0.0
C637 C 0.45203 0.33967 0.53719 0.0
H638 H 0.4707 0.29086 0.55218 0.0
H639 H 0.53521 0.36662 0.61517 0.0
C640 C 0.63724 0.30576 0.75276 0.0
N641 N 0.60695 0.2941 0.77002 0.0
C642 C 0.65782 0.3182 0.80632 0.0
C643 C 0.61596 0.30546 0.89436 0.0
C644 C 0.59613 0.29354 0.83917 0.0
C645 C 0.64702 0.31826 0.87792 0.0
H646 H 0.64515 0.30591 0.69724 0.0
H647 H 0.57184 0.28434 0.85127 0.0
C648 C 0.52156 0.22357 0.52102 0.0
N649 N 0.50836 0.16776 0.44238 0.0
C650 C 0.53967 0.19495 0.53286 0.0
C651 C 0.49673 0.22375 0.46919 0.0
C652 C 0.53263 0.16702 0.49254 0.0
C653 C 0.49043 0.1953 0.43 0.0
C654 C 0.59526 0.21494 0.72477 0.0
C655 C 0.62426 0.19671 0.72061 0.0
C656 C 0.57812 0.21646 0.78982 0.0
C657 C 0.63572 0.18041 0.78173 0.0
C658 C 0.59035 0.19977 0.8497 0.0
N659 N 0.61868 0.1823 0.84449 0.0
C660 C 0.63293 0.2272 0.50825 0.0
C661 C 0.59072 0.24125 0.42593 0.0
C662 C 0.65167 0.2135 0.45298 0.0
N663 N 0.60285 0.24015 0.49402 0.0
C664 C 0.60867 0.22796 0.36904 0.0
C665 C 0.63926 0.21345 0.38272 0.0
H666 H 0.64205 0.22694 0.56277 0.0
H667 H 0.56674 0.2517 0.41606 0.0
C668 C 0.47433 0.2091 0.68795 0.0
N669 N 0.50714 0.20308 0.6914 0.0
C670 C 0.45171 0.18478 0.70639 0.0
C671 C 0.49699 0.14806 0.73019 0.0
C672 C 0.51876 0.17306 0.71081 0.0
C673 C 0.46305 0.15392 0.72816 0.0
H674 H 0.46572 0.23273 0.66979 0.0
H675 H 0.54484 0.16828 0.71045 0.0
O676 O 0.5835 0.30073 0.60196 0.0
O677 O 0.53078 0.27997 0.71657 0.0
O678 O 0.52789 0.25138 0.55962 0.0
O679 O 0.58438 0.23204 0.66607 0.0
H680 H 0.60736 0.35634 0.65247 0.0
H681 H 0.56846 0.30874 0.46467 0.0
H682 H 0.61347 0.40747 0.58127 0.0
H683 H 0.57571 0.36054 0.39648 0.0
H684 H 0.43527 0.33085 0.77652 0.0
H685 H 0.5558 0.33752 0.75248 0.0
H686 H 0.4662 0.28216 0.73484 0.0
H687 H 0.52336 0.385 0.79517 0.0
H688 H 0.4952 0.40855 0.57816 0.0
H689 H 0.42853 0.33141 0.51689 0.0
H690 H 0.68163 0.32814 0.79207 0.0
H691 H 0.60692 0.30541 0.94913 0.0
H692 H 0.55903 0.19421 0.5725 0.0
H693 H 0.48251 0.24569 0.45924 0.0
H694 H 0.54648 0.14475 0.5011 0.0
H695 H 0.47129 0.19511 0.38969 0.0
H696 H 0.63789 0.19525 0.67082 0.0
H697 H 0.55561 0.23038 0.7941 0.0
H698 H 0.65818 0.16629 0.7793 0.0
H699 H 0.57735 0.20078 0.90037 0.0
H700 H 0.67521 0.20242 0.46506 0.0
H701 H 0.59847 0.22818 0.31528 0.0
H702 H 0.42564 0.18992 0.70354 0.0
H703 H 0.50645 0.12434 0.74607 0.0
C704 C 0.36801 0.69623 1.0076 0.0
C705 C 0.35624 0.69162 0.93656 0.0
C706 C 0.30777 0.6633 0.98421 0.0
C707 C 0.32209 0.66347 0.05374 0.0
N708 N 0.36798 0.67679 0.13062 0.0
N709 N 0.31667 0.66755 0.85579 0.0
C710 C 0.3527 0.67929 0.06541 0.0
C711 C 0.32644 0.67447 0.9244 0.0
N712 N 0.39349 0.71728 0.01989 0.0
N713 N 0.27606 0.65309 0.97564 0.0
H714 H 0.32967 0.67518 0.81046 0.0
H715 H 0.29716 0.65199 0.84385 0.0
H716 H 0.26153 0.6451 0.01844 0.0
H717 H 0.2632 0.6556 0.92758 0.0
H718 H 0.40098 0.72423 0.07116 0.0
H719 H 0.40512 0.73028 0.9788 0.0
H720 H 0.39191 0.68476 0.13977 0.0
H721 H 0.35791 0.66426 0.17423 0.0
C722 C 0.38688 0.85201 0.27608 0.0
C723 C 0.3801 0.81837 0.28802 0.0
C724 C 0.35533 0.81518 0.16837 0.0
C725 C 0.35467 0.84992 0.16472 0.0
N726 N 0.39127 0.89497 0.18706 0.0
N727 N 0.35793 0.76727 0.24471 0.0
C728 C 0.37679 0.86678 0.21058 0.0
C729 C 0.3642 0.79974 0.23405 0.0
N730 N 0.40222 0.87012 0.32782 0.0
N731 N 0.35482 0.79722 0.10676 0.0
H732 H 0.36485 0.75486 0.29139 0.0
H733 H 0.34374 0.75351 0.20919 0.0
H734 H 0.35869 0.80828 0.05687 0.0
H735 H 0.35732 0.77182 0.10597 0.0
H736 H 0.40446 0.89549 0.32481 0.0
H737 H 0.41044 0.86015 0.37625 0.0
H738 H 0.40994 0.90688 0.21493 0.0
H739 H 0.38743 0.90384 0.13506 0.0
C740 C 0.16037 0.81599 0.52535 0.0
C741 C 0.16695 0.82819 0.45531 0.0
C742 C 0.20058 0.87214 0.50638 0.0
C743 C 0.1958 0.85867 0.57601 0.0
N744 N 0.17691 0.81413 0.6505 0.0
N745 N 0.19864 0.86336 0.37762 0.0
C746 C 0.17744 0.82943 0.58509 0.0
C747 C 0.18877 0.85488 0.44539 0.0
N748 N 0.13679 0.79259 0.53521 0.0
N749 N 0.21496 0.90219 0.49866 0.0
H750 H 0.19056 0.85115 0.33171 0.0
H751 H 0.21708 0.88041 0.36737 0.0
H752 H 0.22358 0.91588 0.54195 0.0
H753 H 0.21576 0.91485 0.45005 0.0
H754 H 0.12814 0.78564 0.58565 0.0
H755 H 0.12384 0.78197 0.49289 0.0
H756 H 0.16654 0.79117 0.65889 0.0
H757 H 0.18948 0.82306 0.69522 0.0
C758 C 0.18322 0.66489 0.82028 0.0
C759 C 0.16379 0.69353 0.81293 0.0
C760 C 0.17444 0.69428 0.68315 0.0
C761 C 0.19073 0.66371 0.68944 0.0
N762 N 0.20732 0.61757 0.76202 0.0
N763 N 0.13716 0.73347 0.73713 0.0
C764 C 0.19441 0.64842 0.7576 0.0
C765 C 0.15851 0.70783 0.7443 0.0
N766 N 0.19128 0.65374 0.88735 0.0
N767 N 0.17481 0.71065 0.61899 0.0
H768 H 0.12545 0.74448 0.78071 0.0
H769 H 0.12905 0.7422 0.68762 0.0
H770 H 0.18632 0.70149 0.57314 0.0
H771 H 0.16616 0.73445 0.61258 0.0
H772 H 0.20769 0.63466 0.89664 0.0
H773 H 0.18359 0.66532 0.93438 0.0
H774 H 0.20725 0.60359 0.80885 0.0
H775 H 0.21588 0.60472 0.71741 0.0
C776 C 0.82901 0.14523 0.52065 0.0
C777 C 0.82307 0.16392 0.58359 0.0
C778 C 0.84911 0.2118 0.52774 0.0
C779 C 0.85341 0.19354 0.46357 0.0
N780 N 0.84166 0.14542 0.39334 0.0
N781 N 0.82216 0.2161 0.64385 0.0
C782 C 0.84153 0.16101 0.45834 0.0
C783 C 0.83153 0.19761 0.58617 0.0
N784 N 0.82403 0.11211 0.52138 0.0
N785 N 0.86283 0.24221 0.53369 0.0
H786 H 0.80947 0.20638 0.68769 0.0
H787 H 0.82459 0.24146 0.64595 0.0
H788 H 0.87534 0.25362 0.4916 0.0
H789 H 0.86383 0.25522 0.58165 0.0
H790 H 0.8315 0.09666 0.48004 0.0
H791 H 0.81487 0.09952 0.5659 0.0
H792 H 0.83013 0.12305 0.38438 0.0
H793 H 0.85074 0.15619 0.34649 0.0
C794 C 0.81806 0.3237 0.81349 0.0
C795 C 0.84856 0.30696 0.80986 0.0
C796 C 0.85353 0.32023 0.68186 0.0
C797 C 0.82308 0.33708 0.68539 0.0
N798 N 0.77252 0.34803 0.74817 0.0
N799 N 0.89076 0.2816 0.7383 0.0
C800 C 0.80404 0.33652 0.7493 0.0
C801 C 0.86475 0.30266 0.74305 0.0
N802 N 0.80331 0.32866 0.8786 0.0
N803 N 0.87257 0.3225 0.6215 0.0
H804 H 0.89952 0.26836 0.78234 0.0
H805 H 0.90165 0.27492 0.68984 0.0
H806 H 0.86515 0.33482 0.57515 0.0
H807 H 0.89667 0.31402 0.61883 0.0
H808 H 0.78303 0.34383 0.88594 0.0
H809 H 0.81257 0.31912 0.92652 0.0
H810 H 0.75623 0.34553 0.791 0.0
H811 H 0.76165 0.35751 0.70179 0.0
C812 C 0.67256 0.37581 0.02791 0.0
C813 C 0.70224 0.36104 0.0514 0.0
C814 C 0.69558 0.31745 0.96204 0.0
C815 C 0.66713 0.33353 0.93544 0.0
N816 N 0.63253 0.38147 0.93249 0.0
N817 N 0.74521 0.32125 0.03391 0.0
C818 C 0.6568 0.36377 0.9653 0.0
C819 C 0.71474 0.33283 0.01636 0.0
N820 N 0.65877 0.40063 0.06693 0.0
N821 N 0.70359 0.28698 0.93729 0.0
H822 H 0.75974 0.33183 0.07378 0.0
H823 H 0.75719 0.30291 1.00526 0.0
H824 H 0.69022 0.27503 0.89738 0.0
H825 H 0.72191 0.27249 0.95996 0.0
H826 H 0.63534 0.40982 0.05703 0.0
H827 H 0.66947 0.41024 0.11325 0.0
H828 H 0.62637 0.40527 0.94724 0.0
H829 H 0.62057 0.37362 0.88603 0.0
C830 C 0.6602 0.15126 0.23777 0.0
C831 C 0.69055 0.16373 0.21205 0.0
C832 C 0.68601 0.21046 0.29416 0.0
C833 C 0.65724 0.19635 0.32424 0.0
N834 N 0.62019 0.15044 0.33411 0.0
N835 N 0.73503 0.20237 0.22197 0.0
C836 C 0.64523 0.16591 0.29868 0.0
C837 C 0.70424 0.19259 0.24198 0.0
N838 N 0.64509 0.12608 0.20248 0.0
N839 N 0.6953 0.24132 0.31383 0.0
H840 H 0.74896 0.18998 0.18358 0.0
H841 H 0.74783 0.22115 0.24732 0.0
H842 H 0.68259 0.25504 0.35204 0.0
H843 H 0.71394 0.25436 0.28832 0.0
H844 H 0.62125 0.1184 0.21383 0.0
H845 H 0.65515 0.11467 0.15745 0.0
H846 H 0.61284 0.12659 0.32282 0.0
H847 H 0.60861 0.16026 0.37922 0.0
C848 C 0.39837 0.44444 0.55649 0.0
C849 C 0.38582 0.44525 0.48533 0.0
C850 C 0.42392 0.40143 0.45104 0.0
C851 C 0.43369 0.3981 0.52391 0.0
N852 N 0.42529 0.41219 0.64856 0.0
N853 N 0.38191 0.41995 0.36842 0.0
C854 C 0.41954 0.41843 0.57746 0.0
C855 C 0.39727 0.42246 0.43349 0.0
N856 N 0.39098 0.46907 0.60341 0.0
N857 N 0.44078 0.38541 0.39818 0.0
H858 H 0.3618 0.43434 0.35397 0.0
H859 H 0.38705 0.40145 0.33161 0.0
H860 H 0.46086 0.37027 0.40862 0.0
H861 H 0.43688 0.38962 0.3436 0.0
H862 H 0.40214 0.47148 0.65348 0.0
H863 H 0.37606 0.48888 0.58968 0.0
H864 H 0.41293 0.42411 0.68999 0.0
H865 H 0.44004 0.39292 0.66628 0.0
C866 C 0.61375 0.91759 0.84438 0.0
C867 C 0.62635 0.93919 0.79124 0.0
C868 C 0.59509 0.91019 0.69836 0.0
C869 C 0.58019 0.89056 0.75239 0.0
N870 N 0.57089 0.87932 0.87806 0.0
N871 N 0.62468 0.96004 0.66993 0.0
C872 C 0.58828 0.89532 0.82584 0.0
C873 C 0.61578 0.93662 0.71879 0.0
N874 N 0.62692 0.91756 0.91197 0.0
N875 N 0.5904 0.90285 0.62744 0.0
H876 H 0.63967 0.97987 0.68291 0.0
H877 H 0.61488 0.96145 0.61832 0.0
H878 H 0.57556 0.8836 0.61025 0.0
H879 H 0.60343 0.91396 0.58586 0.0
H880 H 0.62126 0.90002 0.95073 0.0
H881 H 0.64572 0.93336 0.92755 0.0
H882 H 0.57323 0.88441 0.93264 0.0
H883 H 0.55195 0.86295 0.86661 0.0
C884 C 0.10063 0.11766 0.08319 0.0
C885 C 0.06824 0.11319 0.05661 0.0
C886 C 0.08545 0.06279 0.99559 0.0
C887 C 0.11735 0.06633 0.02543 0.0
N888 N 0.15359 0.0931 0.10911 0.0
N889 N 0.02801 0.07865 0.9997 0.0
C890 C 0.12439 0.09256 0.07285 0.0
C891 C 0.0601 0.08483 0.0165 0.0
N892 N 0.10909 0.14647 0.11561 0.0
N893 N 0.07972 0.03927 0.94495 0.0
H894 H 1.00886 0.0943 0.01411 0.0
H895 H 0.02001 0.05675 0.97714 0.0
H896 H 0.09756 0.02255 0.92847 0.0
H897 H 0.05811 0.03784 0.91523 0.0
H898 H 0.13316 0.15266 0.12867 0.0
H899 H 0.09245 0.16547 0.12437 0.0
H900 H 0.15885 0.10968 0.14995 0.0
H901 H 0.17152 0.07506 0.10297 0.0
C902 C 0.92746 0.61338 0.19256 0.0
C903 C 0.95206 0.62096 0.24397 0.0
C904 C 0.9277 0.58173 0.3286 0.0
C905 C 0.90474 0.57231 0.27506 0.0
N906 N 0.8864 0.57463 0.15195 0.0
N907 N 0.97933 0.60862 0.35577 0.0
C908 C 0.90569 0.58683 0.20576 0.0
C909 C 0.95326 0.60403 0.31059 0.0
N910 N 0.92409 0.63231 0.13233 0.0
N911 N 0.92437 0.57027 0.39731 0.0
H912 H 0.99848 0.62479 0.34436 0.0
H913 H 0.98344 0.59445 0.40146 0.0
H914 H 0.90602 0.55386 0.41257 0.0
H915 H 0.93805 0.57902 0.44045 0.0
H916 H 0.90439 0.63028 0.09695 0.0
H917 H 0.93947 0.65204 0.1207 0.0
H918 H 0.88855 0.58182 0.09843 0.0
H919 H 0.87019 0.55516 0.15955 0.0
C920 C 0.39544 0.10838 0.82883 0.0
C921 C 0.39209 0.07984 0.78601 0.0
C922 C 0.43399 0.10068 0.70277 0.0
C923 C 0.43923 0.12787 0.74883 0.0
N924 N 0.42952 0.15451 0.86245 0.0
N925 N 0.41203 0.04581 0.68965 0.0
C926 C 0.42126 0.13082 0.81389 0.0
C927 C 0.41251 0.07511 0.72505 0.0
N928 N 0.37321 0.11466 0.88218 0.0
N929 N 0.44858 0.09987 0.63659 0.0
H930 H 0.39666 0.02652 0.7045 0.0
H931 H 0.4288 0.03959 0.64967 0.0
H932 H 0.46438 0.11816 0.61821 0.0
H933 H 0.44291 0.08254 0.59754 0.0
H934 H 0.3722 0.13677 0.90987 0.0
H935 H 0.35386 0.09892 0.8947 0.0
H936 H 0.4197 0.1557 0.91407 0.0
H937 H 0.44842 0.17128 0.85364 0.0
C938 C 0.92289 0.93704 0.9447 0.0
C939 C 0.90032 0.94641 0.99912 0.0
C940 C 0.92604 0.90812 0.08387 0.0
C941 C 0.94941 0.89968 0.03034 0.0
N942 N 0.97361 0.90898 0.91394 0.0
N943 N 0.88283 0.94505 0.12284 0.0
C944 C 0.94887 0.91503 0.96188 0.0
C945 C 0.90267 0.9332 0.06951 0.0
N946 N 0.91891 0.94857 0.87618 0.0
N947 N 0.92561 0.8914 0.14766 0.0
H948 H 0.86479 0.96272 0.11384 0.0
H949 H 0.88566 0.93921 0.17695 0.0
H950 H 0.94295 0.8736 0.16105 0.0
H951 H 0.90697 0.89353 0.18563 0.0
H952 H 0.93201 0.9399 0.83213 0.0
H953 H 0.90092 0.96564 0.86223 0.0
H954 H 0.97676 0.92187 0.86614 0.0
H955 H 0.99261 0.89248 0.92425 0.0
C956 C 0.09842 0.39365 0.2031 0.0
C957 C 0.06535 0.39767 0.22573 0.0
C958 C 0.07988 0.44938 0.28473 0.0
C959 C 0.11237 0.44647 0.25765 0.0
N960 N 0.15105 0.41932 0.17976 0.0
N961 N 0.02307 0.43168 0.27709 0.0
C962 C 0.12118 0.4196 0.21343 0.0
C963 C 0.05562 0.42626 0.26337 0.0
N964 N 0.10839 0.36453 0.17419 0.0
N965 N 0.07252 0.47351 0.33296 0.0
H966 H 1.00467 0.41521 0.2625 0.0
H967 H 0.01401 0.45363 0.29744 0.0
H968 H 0.08955 0.49099 0.34959 0.0
H969 H 0.05035 0.47473 0.36076 0.0
H970 H 0.13289 0.35881 0.16416 0.0
H971 H 0.09252 0.34487 0.16578 0.0
H972 H 0.15757 0.40219 0.14091 0.0
H973 H 0.1683 0.43799 0.18577 0.0
C974 C 0.61602 0.61424 0.5649 0.0
C975 C 0.5854 0.61571 0.52852 0.0
C976 C 0.60265 0.57059 0.45009 0.0
C977 C 0.63207 0.56737 0.49045 0.0
N978 N 0.66378 0.58165 0.5953 0.0
N979 N 0.54689 0.59146 0.44583 0.0
C980 C 0.63787 0.5879 0.55059 0.0
C981 C 0.57791 0.59273 0.47378 0.0
N982 N 0.62483 0.63872 0.61105 0.0
N983 N 0.59884 0.55345 0.3876 0.0
H984 H 0.52809 0.60713 0.46219 0.0
H985 H 0.53899 0.57304 0.41129 0.0
H986 H 0.61645 0.53716 0.36817 0.0
H987 H 0.57956 0.55745 0.35188 0.0
H988 H 0.64826 0.64083 0.63296 0.0
H989 H 0.6097 0.65865 0.62251 0.0
H990 H 0.66724 0.5936 0.64411 0.0
H991 H 0.68015 0.56237 0.58705 0.0
loop_
_geom_bond_atom_site_label_1
_geom_bond_atom_site_label_2
_geom_bond_distance
_geom_bond_site_symmetry_2
_ccdc_geom_bond_type
Li0 N17 1.990 . S
Li0 O60 1.956 . S
Li0 O61 1.970 . S
Li0 O62 1.961 . S
Li1 N25 1.990 . S
Li1 O60 1.970 . S
Li1 O61 1.956 . S
Li1 O63 1.961 . S
Li2 N47 1.990 . S
Li2 O60 1.961 . S
Li2 O62 1.956 . S
Li2 O63 1.970 . S
Li3 N53 1.990 . S
Li3 O61 1.961 . S
Li3 O62 1.970 . S
Li3 O63 1.956 . S
C4 C6 1.348 . S
C4 C7 1.356 . S
C4 O60 1.325 . S
N5 C8 1.314 . S
N5 C9 1.279 . S
C6 C4 1.348 . S
C6 C8 1.353 . S
C6 H64 0.929 . S
C7 C4 1.356 . S
C7 C9 1.358 . S
C7 H65 0.930 . S
C8 N5 1.314 . S
C8 C6 1.353 . S
C8 H66 0.930 . S
C9 N5 1.279 . S
C9 C7 1.358 . S
C9 H67 0.930 . S
C10 C13 1.348 . S
C10 C14 1.356 . S
C10 O61 1.325 . S
C11 N12 1.279 . S
C11 C14 1.358 . S
C11 H68 0.930 . S
N12 C11 1.279 . S
N12 C15 1.314 . S
C13 C10 1.348 . S
C13 C15 1.353 . S
C13 H69 0.929 . S
C14 C10 1.356 . S
C14 C11 1.358 . S
C14 H70 0.930 . S
C15 N12 1.314 . S
C15 C13 1.353 . S
C15 H71 0.930 . S
C16 N17 1.314 . S
C16 C21 1.353 . S
C16 H22 0.930 . S
N17 Li0 1.990 . S
N17 C16 1.314 . S
N17 C19 1.279 . S
C18 C19 1.358 . S
C18 C20 1.356 . S
C18 H72 0.930 . S
C19 N17 1.279 . S
C19 C18 1.358 . S
C19 H23 0.930 . S
C20 C18 1.356 . S
C20 C21 1.348 . S
C21 C16 1.353 . S
C21 C20 1.348 . S
C21 H73 0.929 . S
H22 C16 0.930 . S
H23 C19 0.930 . S
C24 N25 1.314 . S
C24 C26 1.353 . S
C24 H30 0.930 . S
N25 Li1 1.990 . S
N25 C24 1.314 . S
N25 C28 1.279 . S
C26 C24 1.353 . S
C26 C29 1.348 . S
C26 H74 0.929 . S
C27 C28 1.358 . S
C27 C29 1.356 . S
C27 H75 0.930 . S
C28 N25 1.279 . S
C28 C27 1.358 . S
C28 H31 0.930 . S
C29 C26 1.348 . S
C29 C27 1.356 . S
H30 C24 0.930 . S
H31 C28 0.930 . S
C32 C34 1.348 . S
C32 C35 1.356 . S
C32 O62 1.325 . S
N33 C36 1.314 . S
N33 C37 1.279 . S
C34 C32 1.348 . S
C34 C36 1.353 . S
C34 H76 0.929 . S
C35 C32 1.356 . S
C35 C37 1.358 . S
C35 H77 0.930 . S
C36 N33 1.314 . S
C36 C34 1.353 . S
C36 H78 0.930 . S
C37 N33 1.279 . S
C37 C35 1.358 . S
C37 H79 0.930 . S
C38 C39 1.348 . S
C38 C40 1.356 . S
C38 O63 1.325 . S
C39 C38 1.348 . S
C39 C41 1.353 . S
C39 H80 0.929 . S
C40 C38 1.356 . S
C40 C42 1.358 . S
C40 H81 0.930 . S
C41 C39 1.353 . S
C41 N43 1.314 . S
C41 H82 0.930 . S
C42 C40 1.358 . S
C42 N43 1.279 . S
C42 H83 0.930 . S
N43 C41 1.314 . S
N43 C42 1.279 . S
C44 C46 1.353 . S
C44 N47 1.314 . S
C44 H50 0.930 . S
C45 N47 1.279 . S
C45 C48 1.358 . S
C45 H51 0.930 . S
C46 C44 1.353 . S
C46 C49 1.348 . S
C46 H84 0.929 . S
N47 Li2 1.990 . S
N47 C44 1.314 . S
N47 C45 1.279 . S
C48 C45 1.358 . S
C48 C49 1.356 . S
C48 H85 0.930 . S
C49 C46 1.348 . S
C49 C48 1.356 . S
H50 C44 0.930 . S
H51 C45 0.930 . S
C52 N53 1.314 . S
C52 C54 1.353 . S
C52 H58 0.930 . S
N53 Li3 1.990 . S
N53 C52 1.314 . S
N53 C56 1.279 . S
C54 C52 1.353 . S
C54 C57 1.348 . S
C54 H86 0.929 . S
C55 C56 1.358 . S
C55 C57 1.356 . S
C55 H87 0.930 . S
C56 N53 1.279 . S
C56 C55 1.358 . S
C56 H59 0.930 . S
C57 C54 1.348 . S
C57 C55 1.356 . S
H58 C52 0.930 . S
H59 C56 0.930 . S
O60 Li0 1.956 . S
O60 Li1 1.970 . S
O60 Li2 1.961 . S
O60 C4 1.325 . S
O61 Li0 1.970 . S
O61 Li1 1.956 . S
O61 Li3 1.961 . S
O61 C10 1.325 . S
O62 Li0 1.961 . S
O62 Li2 1.956 . S
O62 Li3 1.970 . S
O62 C32 1.325 . S
O63 Li1 1.961 . S
O63 Li2 1.970 . S
O63 Li3 1.956 . S
O63 C38 1.325 . S
H64 C6 0.929 . S
H65 C7 0.930 . S
H66 C8 0.930 . S
H67 C9 0.930 . S
H68 C11 0.930 . S
H69 C13 0.929 . S
H70 C14 0.930 . S
H71 C15 0.930 . S
H72 C18 0.930 . S
H73 C21 0.929 . S
H74 C26 0.929 . S
H75 C27 0.930 . S
H76 C34 0.929 . S
H77 C35 0.930 . S
H78 C36 0.930 . S
H79 C37 0.930 . S
H80 C39 0.929 . S
H81 C40 0.930 . S
H82 C41 0.930 . S
H83 C42 0.930 . S
H84 C46 0.929 . S
H85 C48 0.930 . S
H86 C54 0.929 . S
H87 C55 0.930 . S
Li88 N105 1.990 . S
Li88 O148 1.956 . S
Li88 O149 1.970 . S
Li88 O150 1.961 . S
Li89 N113 1.990 . S
Li89 O148 1.970 . S
Li89 O149 1.956 . S
Li89 O151 1.961 . S
Li90 N135 1.990 . S
Li90 O148 1.961 . S
Li90 O150 1.956 . S
Li90 O151 1.970 . S
Li91 N141 1.990 . S
Li91 O149 1.961 . S
Li91 O150 1.970 . S
Li91 O151 1.956 . S
C92 C94 1.348 . S
C92 C95 1.356 . S
C92 O148 1.325 . S
N93 C96 1.314 . S
N93 C97 1.279 . S
C94 C92 1.348 . S
C94 C96 1.353 . S
C94 H152 0.929 . S
C95 C92 1.356 . S
C95 C97 1.358 . S
C95 H153 0.930 . S
C96 N93 1.314 . S
C96 C94 1.353 . S
C96 H154 0.930 . S
C97 N93 1.279 . S
C97 C95 1.358 . S
C97 H155 0.930 . S
C98 C101 1.348 . S
C98 C102 1.356 . S
C98 O149 1.325 . S
C99 N100 1.279 . S
C99 C102 1.358 . S
C99 H156 0.930 . S
N100 C99 1.279 . S
N100 C103 1.314 . S
C101 C98 1.348 . S
C101 C103 1.353 . S
C101 H157 0.929 . S
C102 C98 1.356 . S
C102 C99 1.358 . S
C102 H158 0.930 . S
C103 N100 1.314 . S
C103 C101 1.353 . S
C103 H159 0.930 . S
C104 N105 1.314 . S
C104 C109 1.353 . S
C104 H110 0.930 . S
N105 Li88 1.990 . S
N105 C104 1.314 . S
N105 C107 1.279 . S
C106 C107 1.358 . S
C106 C108 1.356 . S
C106 H160 0.930 . S
C107 N105 1.279 . S
C107 C106 1.358 . S
C107 H111 0.930 . S
C108 C106 1.356 . S
C108 C109 1.348 . S
C109 C104 1.353 . S
C109 C108 1.348 . S
C109 H161 0.929 . S
H110 C104 0.930 . S
H111 C107 0.930 . S
C112 N113 1.314 . S
C112 C114 1.353 . S
C112 H118 0.930 . S
N113 Li89 1.990 . S
N113 C112 1.314 . S
N113 C116 1.279 . S
C114 C112 1.353 . S
C114 C117 1.348 . S
C114 H162 0.929 . S
C115 C116 1.358 . S
C115 C117 1.356 . S
C115 H163 0.930 . S
C116 N113 1.279 . S
C116 C115 1.358 . S
C116 H119 0.930 . S
C117 C114 1.348 . S
C117 C115 1.356 . S
H118 C112 0.930 . S
H119 C116 0.930 . S
C120 C122 1.348 . S
C120 C123 1.356 . S
C120 O150 1.325 . S
N121 C124 1.314 . S
N121 C125 1.279 . S
C122 C120 1.348 . S
C122 C124 1.353 . S
C122 H164 0.929 . S
C123 C120 1.356 . S
C123 C125 1.358 . S
C123 H165 0.930 . S
C124 N121 1.314 . S
C124 C122 1.353 . S
C124 H166 0.930 . S
C125 N121 1.279 . S
C125 C123 1.358 . S
C125 H167 0.930 . S
C126 C127 1.348 . S
C126 C128 1.356 . S
C126 O151 1.325 . S
C127 C126 1.348 . S
C127 C129 1.353 . S
C127 H168 0.929 . S
C128 C126 1.356 . S
C128 C130 1.358 . S
C128 H169 0.930 . S
C129 C127 1.353 . S
C129 N131 1.314 . S
C129 H170 0.930 . S
C130 C128 1.358 . S
C130 N131 1.279 . S
C130 H171 0.930 . S
N131 C129 1.314 . S
N131 C130 1.279 . S
C132 C134 1.353 . S
C132 N135 1.314 . S
C132 H138 0.930 . S
C133 N135 1.279 . S
C133 C136 1.358 . S
C133 H139 0.930 . S
C134 C132 1.353 . S
C134 C137 1.348 . S
C134 H172 0.929 . S
N135 Li90 1.990 . S
N135 C132 1.314 . S
N135 C133 1.279 . S
C136 C133 1.358 . S
C136 C137 1.356 . S
C136 H173 0.930 . S
C137 C134 1.348 . S
C137 C136 1.356 . S
H138 C132 0.930 . S
H139 C133 0.930 . S
C140 N141 1.314 . S
C140 C142 1.353 . S
C140 H146 0.930 . S
N141 Li91 1.990 . S
N141 C140 1.314 . S
N141 C144 1.279 . S
C142 C140 1.353 . S
C142 C145 1.348 . S
C142 H174 0.929 . S
C143 C144 1.358 . S
C143 C145 1.356 . S
C143 H175 0.930 . S
C144 N141 1.279 . S
C144 C143 1.358 . S
C144 H147 0.930 . S
C145 C142 1.348 . S
C145 C143 1.356 . S
H146 C140 0.930 . S
H147 C144 0.930 . S
O148 Li88 1.956 . S
O148 Li89 1.970 . S
O148 Li90 1.961 . S
O148 C92 1.325 . S
O149 Li88 1.970 . S
O149 Li89 1.956 . S
O149 Li91 1.961 . S
O149 C98 1.325 . S
O150 Li88 1.961 . S
O150 Li90 1.956 . S
O150 Li91 1.970 . S
O150 C120 1.325 . S
O151 Li89 1.961 . S
O151 Li90 1.970 . S
O151 Li91 1.956 . S
O151 C126 1.325 . S
H152 C94 0.929 . S
H153 C95 0.930 . S
H154 C96 0.930 . S
H155 C97 0.930 . S
H156 C99 0.930 . S
H157 C101 0.929 . S
H158 C102 0.930 . S
H159 C103 0.930 . S
H160 C106 0.930 . S
H161 C109 0.929 . S
H162 C114 0.929 . S
H163 C115 0.930 . S
H164 C122 0.929 . S
H165 C123 0.930 . S
H166 C124 0.930 . S
H167 C125 0.930 . S
H168 C127 0.929 . S
H169 C128 0.930 . S
H170 C129 0.930 . S
H171 C130 0.930 . S
H172 C134 0.929 . S
H173 C136 0.930 . S
H174 C142 0.929 . S
H175 C143 0.930 . S
Li176 N193 1.990 . S
Li176 O236 1.956 . S
Li176 O237 1.970 . S
Li176 O238 1.961 . S
Li177 N201 1.990 1_556 S
Li177 O236 1.970 . S
Li177 O237 1.956 . S
Li177 O239 1.961 . S
Li178 N223 1.990 . S
Li178 O236 1.961 . S
Li178 O238 1.956 . S
Li178 O239 1.970 . S
Li179 N229 1.990 . S
Li179 O237 1.961 . S
Li179 O238 1.970 . S
Li179 O239 1.956 . S
C180 C182 1.348 . S
C180 C183 1.356 . S
C180 O236 1.325 . S
N181 C184 1.314 . S
N181 C185 1.279 . S
C182 C180 1.348 . S
C182 C184 1.353 . S
C182 H240 0.929 . S
C183 C180 1.356 . S
C183 C185 1.358 . S
C183 H241 0.930 . S
C184 N181 1.314 . S
C184 C182 1.353 . S
C184 H242 0.930 . S
C185 N181 1.279 . S
C185 C183 1.358 . S
C185 H243 0.930 . S
C186 C189 1.348 1_565 S
C186 C190 1.356 1_556 S
C186 O237 1.325 . S
C187 N188 1.279 . S
C187 C190 1.358 1_545 S
C187 H244 0.930 . S
N188 C187 1.279 . S
N188 C191 1.314 . S
C189 C186 1.348 1_545 S
C189 C191 1.353 1_556 S
C189 H245 0.930 . S
C190 C186 1.356 1_554 S
C190 C187 1.358 1_565 S
C190 H246 0.930 . S
C191 N188 1.314 . S
C191 C189 1.353 1_554 S
C191 H247 0.930 . S
C192 N193 1.314 1_545 S
C192 C197 1.353 . S
C192 H198 0.930 . S
N193 Li176 1.990 . S
N193 C192 1.314 1_565 S
N193 C195 1.279 . S
C194 C195 1.358 1_545 S
C194 C196 1.356 . S
C194 H248 0.930 1_545 S
C195 N193 1.279 . S
C195 C194 1.358 1_565 S
C195 H199 0.930 . S
C196 C194 1.356 . S
C196 C197 1.348 . S
C197 C192 1.353 . S
C197 C196 1.348 . S
C197 H249 0.929 . S
H198 C192 0.930 . S
H199 C195 0.930 . S
C200 N201 1.314 . S
C200 C202 1.353 . S
C200 H206 0.930 1_554 S
N201 Li177 1.990 1_554 S
N201 C200 1.314 . S
N201 C204 1.279 . S
C202 C200 1.353 . S
C202 C205 1.348 . S
C202 H250 0.929 . S
C203 C204 1.358 . S
C203 C205 1.356 . S
C203 H251 0.930 . S
C204 N201 1.279 . S
C204 C203 1.358 . S
C204 H207 0.930 . S
C205 C202 1.348 . S
C205 C203 1.356 . S
H206 C200 0.930 1_556 S
H207 C204 0.930 . S
C208 C210 1.348 1_565 S
C208 C211 1.356 . S
C208 O238 1.325 . S
N209 C212 1.314 . S
N209 C213 1.279 . S
C210 C208 1.348 1_545 S
C210 C212 1.353 . S
C210 H252 0.930 . S
C211 C208 1.356 . S
C211 C213 1.358 1_565 S
C211 H253 0.930 . S
C212 N209 1.314 . S
C212 C210 1.353 . S
C212 H254 0.930 . S
C213 N209 1.279 . S
C213 C211 1.358 1_545 S
C213 H255 0.930 . S
C214 C215 1.348 . S
C214 C216 1.356 1_556 S
C214 O239 1.325 . S
C215 C214 1.348 . S
C215 C217 1.353 . S
C215 H256 0.929 . S
C216 C214 1.356 1_554 S
C216 C218 1.358 . S
C216 H257 0.930 . S
C217 C215 1.353 . S
C217 N219 1.314 . S
C217 H258 0.930 . S
C218 C216 1.358 . S
C218 N219 1.279 1_554 S
C218 H259 0.930 . S
N219 C217 1.314 . S
N219 C218 1.279 1_556 S
C220 C222 1.353 . S
C220 N223 1.314 . S
C220 H226 0.930 . S
C221 N223 1.279 . S
C221 C224 1.358 . S
C221 H227 0.930 . S
C222 C220 1.353 . S
C222 C225 1.348 . S
C222 H260 0.929 . S
N223 Li178 1.990 . S
N223 C220 1.314 . S
N223 C221 1.279 . S
C224 C221 1.358 . S
C224 C225 1.356 . S
C224 H261 0.930 . S
C225 C222 1.348 . S
C225 C224 1.356 . S
H226 C220 0.930 . S
H227 C221 0.930 . S
C228 N229 1.314 1_545 S
C228 C230 1.353 . S
C228 H234 0.930 . S
N229 Li179 1.990 . S
N229 C228 1.314 1_565 S
N229 C232 1.279 . S
C230 C228 1.353 . S
C230 C233 1.348 . S
C230 H262 0.929 . S
C231 C232 1.358 1_545 S
C231 C233 1.356 . S
C231 H263 0.930 1_545 S
C232 N229 1.279 . S
C232 C231 1.358 1_565 S
C232 H235 0.930 . S
C233 C230 1.348 . S
C233 C231 1.356 . S
H234 C228 0.930 . S
H235 C232 0.930 . S
O236 Li176 1.956 . S
O236 Li177 1.970 . S
O236 Li178 1.961 . S
O236 C180 1.325 . S
O237 Li176 1.970 . S
O237 Li177 1.956 . S
O237 Li179 1.961 . S
O237 C186 1.325 . S
O238 Li176 1.961 . S
O238 Li178 1.956 . S
O238 Li179 1.970 . S
O238 C208 1.325 . S
O239 Li177 1.961 . S
O239 Li178 1.970 . S
O239 Li179 1.956 . S
O239 C214 1.325 . S
H240 C182 0.929 . S
H241 C183 0.930 . S
H242 C184 0.930 . S
H243 C185 0.930 . S
H244 C187 0.930 . S
H245 C189 0.930 . S
H246 C190 0.930 . S
H247 C191 0.930 . S
H248 C194 0.930 1_565 S
H249 C197 0.929 . S
H250 C202 0.929 . S
H251 C203 0.930 . S
H252 C210 0.930 . S
H253 C211 0.930 . S
H254 C212 0.930 . S
H255 C213 0.930 . S
H256 C215 0.929 . S
H257 C216 0.930 . S
H258 C217 0.930 . S
H259 C218 0.930 . S
H260 C222 0.929 . S
H261 C224 0.930 . S
H262 C230 0.929 . S
H263 C231 0.930 1_565 S
Li264 N281 1.990 . S
Li264 O324 1.956 . S
Li264 O325 1.970 . S
Li264 O326 1.961 . S
Li265 N289 1.990 . S
Li265 O324 1.970 . S
Li265 O325 1.956 . S
Li265 O327 1.961 . S
Li266 N311 1.990 1_554 S
Li266 O324 1.961 . S
Li266 O326 1.956 . S
Li266 O327 1.970 . S
Li267 N317 1.990 . S
Li267 O325 1.961 . S
Li267 O326 1.970 . S
Li267 O327 1.956 . S
C268 C270 1.348 . S
C268 C271 1.356 1_554 S
C268 O324 1.325 . S
N269 C272 1.314 . S
N269 C273 1.279 1_554 S
C270 C268 1.348 . S
C270 C272 1.353 . S
C270 H328 0.929 . S
C271 C268 1.356 1_556 S
C271 C273 1.358 . S
C271 H329 0.930 . S
C272 N269 1.314 . S
C272 C270 1.353 . S
C272 H330 0.930 . S
C273 N269 1.279 1_556 S
C273 C271 1.358 . S
C273 H331 0.930 . S
C274 C277 1.348 1_455 S
C274 C278 1.356 . S
C274 O325 1.325 . S
C275 N276 1.279 . S
C275 C278 1.358 1_655 S
C275 H332 0.930 . S
N276 C275 1.279 . S
N276 C279 1.314 . S
C277 C274 1.348 1_655 S
C277 C279 1.353 . S
C277 H333 0.930 . S
C278 C274 1.356 . S
C278 C275 1.358 1_455 S
C278 H334 0.930 . S
C279 N276 1.314 . S
C279 C277 1.353 . S
C279 H335 0.930 . S
C280 N281 1.314 1_655 S
C280 C285 1.353 . S
C280 H286 0.930 . S
N281 Li264 1.990 . S
N281 C280 1.314 1_455 S
N281 C283 1.279 . S
C282 C283 1.358 1_655 S
C282 C284 1.356 . S
C282 H336 0.930 1_655 S
C283 N281 1.279 . S
C283 C282 1.358 1_455 S
C283 H287 0.930 . S
C284 C282 1.356 . S
C284 C285 1.348 . S
C285 C280 1.353 . S
C285 C284 1.348 . S
C285 H337 0.929 . S
H286 C280 0.930 . S
H287 C283 0.930 . S
C288 N289 1.314 . S
C288 C290 1.353 . S
C288 H294 0.930 . S
N289 Li265 1.990 . S
N289 C288 1.314 . S
N289 C292 1.279 . S
C290 C288 1.353 . S
C290 C293 1.348 . S
C290 H338 0.929 . S
C291 C292 1.358 . S
C291 C293 1.356 . S
C291 H339 0.930 . S
C292 N289 1.279 . S
C292 C291 1.358 . S
C292 H295 0.930 . S
C293 C290 1.348 . S
C293 C291 1.356 . S
H294 C288 0.930 . S
H295 C292 0.930 . S
C296 C298 1.348 1_455 S
C296 C299 1.356 1_554 S
C296 O326 1.325 . S
N297 C300 1.314 . S
N297 C301 1.279 . S
C298 C296 1.348 1_655 S
C298 C300 1.353 1_554 S
C298 H340 0.930 . S
C299 C296 1.356 1_556 S
C299 C301 1.358 1_455 S
C299 H341 0.930 . S
C300 N297 1.314 . S
C300 C298 1.353 1_556 S
C300 H342 0.930 . S
C301 N297 1.279 . S
C301 C299 1.358 1_655 S
C301 H343 0.930 . S
C302 C303 1.348 . S
C302 C304 1.356 . S
C302 O327 1.325 . S
C303 C302 1.348 . S
C303 C305 1.353 . S
C303 H344 0.929 . S
C304 C302 1.356 . S
C304 C306 1.358 . S
C304 H345 0.930 . S
C305 C303 1.353 . S
C305 N307 1.314 . S
C305 H346 0.930 . S
C306 C304 1.358 . S
C306 N307 1.279 . S
C306 H347 0.930 . S
N307 C305 1.314 . S
N307 C306 1.279 . S
C308 C310 1.353 . S
C308 N311 1.314 . S
C308 H314 0.930 1_556 S
C309 N311 1.279 . S
C309 C312 1.358 . S
C309 H315 0.930 . S
C310 C308 1.353 . S
C310 C313 1.348 . S
C310 H348 0.929 . S
N311 Li266 1.990 1_556 S
N311 C308 1.314 . S
N311 C309 1.279 . S
C312 C309 1.358 . S
C312 C313 1.356 . S
C312 H349 0.930 . S
C313 C310 1.348 . S
C313 C312 1.356 . S
H314 C308 0.930 1_554 S
H315 C309 0.930 . S
C316 N317 1.314 1_655 S
C316 C318 1.353 . S
C316 H322 0.930 . S
N317 Li267 1.990 . S
N317 C316 1.314 1_455 S
N317 C320 1.279 . S
C318 C316 1.353 . S
C318 C321 1.348 . S
C318 H350 0.929 . S
C319 C320 1.358 1_655 S
C319 C321 1.356 . S
C319 H351 0.930 1_655 S
C320 N317 1.279 . S
C320 C319 1.358 1_455 S
C320 H323 0.930 . S
C321 C318 1.348 . S
C321 C319 1.356 . S
H322 C316 0.930 . S
H323 C320 0.930 . S
O324 Li264 1.956 . S
O324 Li265 1.970 . S
O324 Li266 1.961 . S
O324 C268 1.325 . S
O325 Li264 1.970 . S
O325 Li265 1.956 . S
O325 Li267 1.961 . S
O325 C274 1.325 . S
O326 Li264 1.961 . S
O326 Li266 1.956 . S
O326 Li267 1.970 . S
O326 C296 1.325 . S
O327 Li265 1.961 . S
O327 Li266 1.970 . S
O327 Li267 1.956 . S
O327 C302 1.325 . S
H328 C270 0.929 . S
H329 C271 0.930 . S
H330 C272 0.930 . S
H331 C273 0.930 . S
H332 C275 0.930 . S
H333 C277 0.930 . S
H334 C278 0.930 . S
H335 C279 0.930 . S
H336 C282 0.930 1_455 S
H337 C285 0.929 . S
H338 C290 0.929 . S
H339 C291 0.930 . S
H340 C298 0.930 . S
H341 C299 0.930 . S
H342 C300 0.930 . S
H343 C301 0.930 . S
H344 C303 0.929 . S
H345 C304 0.930 . S
H346 C305 0.930 . S
H347 C306 0.930 . S
H348 C310 0.929 . S
H349 C312 0.930 . S
H350 C318 0.929 . S
H351 C319 0.930 1_455 S
Li352 N369 1.990 1_556 S
Li352 O412 1.956 . S
Li352 O413 1.970 . S
Li352 O414 1.961 . S
Li353 N377 1.990 . S
Li353 O412 1.970 . S
Li353 O413 1.956 . S
Li353 O415 1.961 . S
Li354 N399 1.990 . S
Li354 O412 1.961 . S
Li354 O414 1.956 . S
Li354 O415 1.970 . S
Li355 N405 1.990 . S
Li355 O413 1.961 . S
Li355 O414 1.970 . S
Li355 O415 1.956 . S
C356 C358 1.348 1_545 S
C356 C359 1.356 1_556 S
C356 O412 1.325 . S
N357 C360 1.314 . S
N357 C361 1.279 . S
C358 C356 1.348 1_565 S
C358 C360 1.353 1_556 S
C358 H416 0.930 . S
C359 C356 1.356 1_554 S
C359 C361 1.358 1_545 S
C359 H417 0.930 . S
C360 N357 1.314 . S
C360 C358 1.353 1_554 S
C360 H418 0.930 . S
C361 N357 1.279 . S
C361 C359 1.358 1_565 S
C361 H419 0.930 . S
C362 C365 1.348 . S
C362 C366 1.356 . S
C362 O413 1.325 . S
C363 N364 1.279 . S
C363 C366 1.358 . S
C363 H420 0.930 . S
N364 C363 1.279 . S
N364 C367 1.314 . S
C365 C362 1.348 . S
C365 C367 1.353 . S
C365 H421 0.929 . S
C366 C362 1.356 . S
C366 C363 1.358 . S
C366 H422 0.930 . S
C367 N364 1.314 . S
C367 C365 1.353 . S
C367 H423 0.930 . S
C368 N369 1.314 . S
C368 C373 1.353 . S
C368 H374 0.930 1_554 S
N369 Li352 1.990 1_554 S
N369 C368 1.314 . S
N369 C371 1.279 . S
C370 C371 1.358 . S
C370 C372 1.356 . S
C370 H424 0.930 . S
C371 N369 1.279 . S
C371 C370 1.358 . S
C371 H375 0.930 . S
C372 C370 1.356 . S
C372 C373 1.348 . S
C373 C368 1.353 . S
C373 C372 1.348 . S
C373 H425 0.929 . S
H374 C368 0.930 1_556 S
H375 C371 0.930 . S
C376 N377 1.314 1_565 S
C376 C378 1.353 . S
C376 H382 0.930 . S
N377 Li353 1.990 . S
N377 C376 1.314 1_545 S
N377 C380 1.279 . S
C378 C376 1.353 . S
C378 C381 1.348 . S
C378 H426 0.929 . S
C379 C380 1.358 1_565 S
C379 C381 1.356 . S
C379 H427 0.930 1_565 S
C380 N377 1.279 . S
C380 C379 1.358 1_545 S
C380 H383 0.930 . S
C381 C378 1.348 . S
C381 C379 1.356 . S
H382 C376 0.930 . S
H383 C380 0.930 . S
C384 C386 1.348 . S
C384 C387 1.356 1_556 S
C384 O414 1.325 . S
N385 C388 1.314 . S
N385 C389 1.279 1_556 S
C386 C384 1.348 . S
C386 C388 1.353 . S
C386 H428 0.929 . S
C387 C384 1.356 1_554 S
C387 C389 1.358 . S
C387 H429 0.930 . S
C388 N385 1.314 . S
C388 C386 1.353 . S
C388 H430 0.930 . S
C389 N385 1.279 1_554 S
C389 C387 1.358 . S
C389 H431 0.930 . S
C390 C391 1.348 1_545 S
C390 C392 1.356 . S
C390 O415 1.325 . S
C391 C390 1.348 1_565 S
C391 C393 1.353 . S
C391 H432 0.930 . S
C392 C390 1.356 . S
C392 C394 1.358 1_545 S
C392 H433 0.930 . S
C393 C391 1.353 . S
C393 N395 1.314 . S
C393 H434 0.930 . S
C394 C392 1.358 1_565 S
C394 N395 1.279 . S
C394 H435 0.930 . S
N395 C393 1.314 . S
N395 C394 1.279 . S
C396 C398 1.353 . S
C396 N399 1.314 1_565 S
C396 H402 0.930 . S
C397 N399 1.279 . S
C397 C400 1.358 1_545 S
C397 H403 0.930 . S
C398 C396 1.353 . S
C398 C401 1.348 . S
C398 H436 0.929 . S
N399 Li354 1.990 . S
N399 C396 1.314 1_545 S
N399 C397 1.279 . S
C400 C397 1.358 1_565 S
C400 C401 1.356 . S
C400 H437 0.930 1_565 S
C401 C398 1.348 . S
C401 C400 1.356 . S
H402 C396 0.930 . S
H403 C397 0.930 . S
C404 N405 1.314 . S
C404 C406 1.353 . S
C404 H410 0.930 . S
N405 Li355 1.990 . S
N405 C404 1.314 . S
N405 C408 1.279 . S
C406 C404 1.353 . S
C406 C409 1.348 . S
C406 H438 0.929 . S
C407 C408 1.358 . S
C407 C409 1.356 . S
C407 H439 0.930 . S
C408 N405 1.279 . S
C408 C407 1.358 . S
C408 H411 0.930 . S
C409 C406 1.348 . S
C409 C407 1.356 . S
H410 C404 0.930 . S
H411 C408 0.930 . S
O412 Li352 1.956 . S
O412 Li353 1.970 . S
O412 Li354 1.961 . S
O412 C356 1.325 . S
O413 Li352 1.970 . S
O413 Li353 1.956 . S
O413 Li355 1.961 . S
O413 C362 1.325 . S
O414 Li352 1.961 . S
O414 Li354 1.956 . S
O414 Li355 1.970 . S
O414 C384 1.325 . S
O415 Li353 1.961 . S
O415 Li354 1.970 . S
O415 Li355 1.956 . S
O415 C390 1.325 . S
H416 C358 0.930 . S
H417 C359 0.930 . S
H418 C360 0.930 . S
H419 C361 0.930 . S
H420 C363 0.930 . S
H421 C365 0.929 . S
H422 C366 0.930 . S
H423 C367 0.930 . S
H424 C370 0.930 . S
H425 C373 0.929 . S
H426 C378 0.929 . S
H427 C379 0.930 1_545 S
H428 C386 0.929 . S
H429 C387 0.930 . S
H430 C388 0.930 . S
H431 C389 0.930 . S
H432 C391 0.930 . S
H433 C392 0.930 . S
H434 C393 0.930 . S
H435 C394 0.930 . S
H436 C398 0.929 . S
H437 C400 0.930 1_545 S
H438 C406 0.929 . S
H439 C407 0.930 . S
Li440 N457 1.990 . S
Li440 O500 1.956 . S
Li440 O501 1.970 . S
Li440 O502 1.961 . S
Li441 N465 1.990 . S
Li441 O500 1.970 . S
Li441 O501 1.956 . S
Li441 O503 1.961 . S
Li442 N487 1.990 . S
Li442 O500 1.961 . S
Li442 O502 1.956 . S
Li442 O503 1.970 . S
Li443 N493 1.990 1_554 S
Li443 O501 1.961 . S
Li443 O502 1.970 . S
Li443 O503 1.956 . S
C444 C446 1.348 1_655 S
C444 C447 1.356 . S
C444 O500 1.325 . S
N445 C448 1.314 . S
N445 C449 1.279 . S
C446 C444 1.348 1_455 S
C446 C448 1.353 . S
C446 H504 0.930 . S
C447 C444 1.356 . S
C447 C449 1.358 1_655 S
C447 H505 0.930 . S
C448 N445 1.314 . S
C448 C446 1.353 . S
C448 H506 0.930 . S
C449 N445 1.279 . S
C449 C447 1.358 1_455 S
C449 H507 0.930 . S
C450 C453 1.348 . S
C450 C454 1.356 1_554 S
C450 O501 1.325 . S
C451 N452 1.279 1_556 S
C451 C454 1.358 . S
C451 H508 0.930 . S
N452 C451 1.279 1_554 S
N452 C455 1.314 . S
C453 C450 1.348 . S
C453 C455 1.353 . S
C453 H509 0.929 . S
C454 C450 1.356 1_556 S
C454 C451 1.358 . S
C454 H510 0.930 . S
C455 N452 1.314 . S
C455 C453 1.353 . S
C455 H511 0.930 . S
C456 N457 1.314 . S
C456 C461 1.353 . S
C456 H462 0.930 . S
N457 Li440 1.990 . S
N457 C456 1.314 . S
N457 C459 1.279 . S
C458 C459 1.358 . S
C458 C460 1.356 . S
C458 H512 0.930 . S
C459 N457 1.279 . S
C459 C458 1.358 . S
C459 H463 0.930 . S
C460 C458 1.356 . S
C460 C461 1.348 . S
C461 C456 1.353 . S
C461 C460 1.348 . S
C461 H513 0.929 . S
H462 C456 0.930 . S
H463 C459 0.930 . S
C464 N465 1.314 1_455 S
C464 C466 1.353 . S
C464 H470 0.930 . S
N465 Li441 1.990 . S
N465 C464 1.314 1_655 S
N465 C468 1.279 . S
C466 C464 1.353 . S
C466 C469 1.348 . S
C466 H514 0.929 . S
C467 C468 1.358 1_455 S
C467 C469 1.356 . S
C467 H515 0.930 1_455 S
C468 N465 1.279 . S
C468 C467 1.358 1_655 S
C468 H471 0.930 . S
C469 C466 1.348 . S
C469 C467 1.356 . S
H470 C464 0.930 . S
H471 C468 0.930 . S
C472 C474 1.348 . S
C472 C475 1.356 . S
C472 O502 1.325 . S
N473 C476 1.314 . S
N473 C477 1.279 . S
C474 C472 1.348 . S
C474 C476 1.353 . S
C474 H516 0.929 . S
C475 C472 1.356 . S
C475 C477 1.358 . S
C475 H517 0.930 . S
C476 N473 1.314 . S
C476 C474 1.353 . S
C476 H518 0.930 . S
C477 N473 1.279 . S
C477 C475 1.358 . S
C477 H519 0.930 . S
C478 C479 1.348 1_655 S
C478 C480 1.356 1_554 S
C478 O503 1.325 . S
C479 C478 1.348 1_455 S
C479 C481 1.353 1_554 S
C479 H520 0.930 . S
C480 C478 1.356 1_556 S
C480 C482 1.358 1_655 S
C480 H521 0.930 . S
C481 C479 1.353 1_556 S
C481 N483 1.314 . S
C481 H522 0.930 . S
C482 C480 1.358 1_455 S
C482 N483 1.279 . S
C482 H523 0.930 . S
N483 C481 1.314 . S
N483 C482 1.279 . S
C484 C486 1.353 . S
C484 N487 1.314 1_455 S
C484 H490 0.930 . S
C485 N487 1.279 . S
C485 C488 1.358 1_655 S
C485 H491 0.930 . S
C486 C484 1.353 . S
C486 C489 1.348 . S
C486 H524 0.929 . S
N487 Li442 1.990 . S
N487 C484 1.314 1_655 S
N487 C485 1.279 . S
C488 C485 1.358 1_455 S
C488 C489 1.356 . S
C488 H525 0.930 1_455 S
C489 C486 1.348 . S
C489 C488 1.356 . S
H490 C484 0.930 . S
H491 C485 0.930 . S
C492 N493 1.314 . S
C492 C494 1.353 . S
C492 H498 0.930 1_556 S
N493 Li443 1.990 1_556 S
N493 C492 1.314 . S
N493 C496 1.279 . S
C494 C492 1.353 . S
C494 C497 1.348 . S
C494 H526 0.929 . S
C495 C496 1.358 . S
C495 C497 1.356 . S
C495 H527 0.930 . S
C496 N493 1.279 . S
C496 C495 1.358 . S
C496 H499 0.930 . S
C497 C494 1.348 . S
C497 C495 1.356 . S
H498 C492 0.930 1_554 S
H499 C496 0.930 . S
O500 Li440 1.956 . S
O500 Li441 1.970 . S
O500 Li442 1.961 . S
O500 C444 1.325 . S
O501 Li440 1.970 . S
O501 Li441 1.956 . S
O501 Li443 1.961 . S
O501 C450 1.325 . S
O502 Li440 1.961 . S
O502 Li442 1.956 . S
O502 Li443 1.970 . S
O502 C472 1.325 . S
O503 Li441 1.961 . S
O503 Li442 1.970 . S
O503 Li443 1.956 . S
O503 C478 1.325 . S
H504 C446 0.930 . S
H505 C447 0.930 . S
H506 C448 0.930 . S
H507 C449 0.930 . S
H508 C451 0.930 . S
H509 C453 0.929 . S
H510 C454 0.930 . S
H511 C455 0.930 . S
H512 C458 0.930 . S
H513 C461 0.929 . S
H514 C466 0.929 . S
H515 C467 0.930 1_655 S
H516 C474 0.929 . S
H517 C475 0.930 . S
H518 C476 0.930 . S
H519 C477 0.930 . S
H520 C479 0.930 . S
H521 C480 0.930 . S
H522 C481 0.930 . S
H523 C482 0.930 . S
H524 C486 0.929 . S
H525 C488 0.930 1_655 S
H526 C494 0.929 . S
H527 C495 0.930 . S
Li528 N545 1.990 . S
Li528 O588 1.956 . S
Li528 O589 1.970 . S
Li528 O590 1.961 . S
Li529 N553 1.990 . S
Li529 O588 1.970 . S
Li529 O589 1.956 . S
Li529 O591 1.961 . S
Li530 N575 1.990 . S
Li530 O588 1.961 . S
Li530 O590 1.956 . S
Li530 O591 1.970 . S
Li531 N581 1.990 . S
Li531 O589 1.961 . S
Li531 O590 1.970 . S
Li531 O591 1.956 . S
C532 C534 1.348 . S
C532 C535 1.356 . S
C532 O588 1.325 . S
N533 C536 1.314 . S
N533 C537 1.279 . S
C534 C532 1.348 . S
C534 C536 1.353 . S
C534 H592 0.929 . S
C535 C532 1.356 . S
C535 C537 1.358 . S
C535 H593 0.930 . S
C536 N533 1.314 . S
C536 C534 1.353 . S
C536 H594 0.930 . S
C537 N533 1.279 . S
C537 C535 1.358 . S
C537 H595 0.930 . S
C538 C541 1.348 . S
C538 C542 1.356 . S
C538 O589 1.325 . S
C539 N540 1.279 . S
C539 C542 1.358 . S
C539 H596 0.930 . S
N540 C539 1.279 . S
N540 C543 1.314 . S
C541 C538 1.348 . S
C541 C543 1.353 . S
C541 H597 0.929 . S
C542 C538 1.356 . S
C542 C539 1.358 . S
C542 H598 0.930 . S
C543 N540 1.314 . S
C543 C541 1.353 . S
C543 H599 0.930 . S
C544 N545 1.314 . S
C544 C549 1.353 . S
C544 H550 0.930 . S
N545 Li528 1.990 . S
N545 C544 1.314 . S
N545 C547 1.279 . S
C546 C547 1.358 . S
C546 C548 1.356 . S
C546 H600 0.930 . S
C547 N545 1.279 . S
C547 C546 1.358 . S
C547 H551 0.930 . S
C548 C546 1.356 . S
C548 C549 1.348 . S
C549 C544 1.353 . S
C549 C548 1.348 . S
C549 H601 0.929 . S
H550 C544 0.930 . S
H551 C547 0.930 . S
C552 N553 1.314 . S
C552 C554 1.353 . S
C552 H558 0.930 . S
N553 Li529 1.990 . S
N553 C552 1.314 . S
N553 C556 1.279 . S
C554 C552 1.353 . S
C554 C557 1.348 . S
C554 H602 0.929 . S
C555 C556 1.358 . S
C555 C557 1.356 . S
C555 H603 0.930 . S
C556 N553 1.279 . S
C556 C555 1.358 . S
C556 H559 0.930 . S
C557 C554 1.348 . S
C557 C555 1.356 . S
H558 C552 0.930 . S
H559 C556 0.930 . S
C560 C562 1.348 . S
C560 C563 1.356 . S
C560 O590 1.325 . S
N561 C564 1.314 . S
N561 C565 1.279 . S
C562 C560 1.348 . S
C562 C564 1.353 . S
C562 H604 0.929 . S
C563 C560 1.356 . S
C563 C565 1.358 . S
C563 H605 0.930 . S
C564 N561 1.314 . S
C564 C562 1.353 . S
C564 H606 0.930 . S
C565 N561 1.279 . S
C565 C563 1.358 . S
C565 H607 0.930 . S
C566 C567 1.348 . S
C566 C568 1.356 . S
C566 O591 1.325 . S
C567 C566 1.348 . S
C567 C569 1.353 . S
C567 H608 0.929 . S
C568 C566 1.356 . S
C568 C570 1.358 . S
C568 H609 0.930 . S
C569 C567 1.353 . S
C569 N571 1.314 . S
C569 H610 0.930 . S
C570 C568 1.358 . S
C570 N571 1.279 . S
C570 H611 0.930 . S
N571 C569 1.314 . S
N571 C570 1.279 . S
C572 C574 1.353 . S
C572 N575 1.314 . S
C572 H578 0.930 . S
C573 N575 1.279 . S
C573 C576 1.358 . S
C573 H579 0.930 . S
C574 C572 1.353 . S
C574 C577 1.348 . S
C574 H612 0.929 . S
N575 Li530 1.990 . S
N575 C572 1.314 . S
N575 C573 1.279 . S
C576 C573 1.358 . S
C576 C577 1.356 . S
C576 H613 0.930 . S
C577 C574 1.348 . S
C577 C576 1.356 . S
H578 C572 0.930 . S
H579 C573 0.930 . S
C580 N581 1.314 . S
C580 C582 1.353 . S
C580 H586 0.930 . S
N581 Li531 1.990 . S
N581 C580 1.314 . S
N581 C584 1.279 . S
C582 C580 1.353 . S
C582 C585 1.348 . S
C582 H614 0.929 . S
C583 C584 1.358 . S
C583 C585 1.356 . S
C583 H615 0.930 . S
C584 N581 1.279 . S
C584 C583 1.358 . S
C584 H587 0.930 . S
C585 C582 1.348 . S
C585 C583 1.356 . S
H586 C580 0.930 . S
H587 C584 0.930 . S
O588 Li528 1.956 . S
O588 Li529 1.970 . S
O588 Li530 1.961 . S
O588 C532 1.325 . S
O589 Li528 1.970 . S
O589 Li529 1.956 . S
O589 Li531 1.961 . S
O589 C538 1.325 . S
O590 Li528 1.961 . S
O590 Li530 1.956 . S
O590 Li531 1.970 . S
O590 C560 1.325 . S
O591 Li529 1.961 . S
O591 Li530 1.970 . S
O591 Li531 1.956 . S
O591 C566 1.325 . S
H592 C534 0.929 . S
H593 C535 0.930 . S
H594 C536 0.930 . S
H595 C537 0.930 . S
H596 C539 0.930 . S
H597 C541 0.929 . S
H598 C542 0.930 . S
H599 C543 0.930 . S
H600 C546 0.930 . S
H601 C549 0.929 . S
H602 C554 0.929 . S
H603 C555 0.930 . S
H604 C562 0.929 . S
H605 C563 0.930 . S
H606 C564 0.930 . S
H607 C565 0.930 . S
H608 C567 0.929 . S
H609 C568 0.930 . S
H610 C569 0.930 . S
H611 C570 0.930 . S
H612 C574 0.929 . S
H613 C576 0.930 . S
H614 C582 0.929 . S
H615 C583 0.930 . S
Li616 N633 1.990 . S
Li616 O676 1.956 . S
Li616 O677 1.970 . S
Li616 O678 1.961 . S
Li617 N641 1.990 . S
Li617 O676 1.970 . S
Li617 O677 1.956 . S
Li617 O679 1.961 . S
Li618 N663 1.990 . S
Li618 O676 1.961 . S
Li618 O678 1.956 . S
Li618 O679 1.970 . S
Li619 N669 1.990 . S
Li619 O677 1.961 . S
Li619 O678 1.970 . S
Li619 O679 1.956 . S
C620 C622 1.348 . S
C620 C623 1.356 . S
C620 O676 1.325 . S
N621 C624 1.314 . S
N621 C625 1.279 . S
C622 C620 1.348 . S
C622 C624 1.353 . S
C622 H680 0.929 . S
C623 C620 1.356 . S
C623 C625 1.358 . S
C623 H681 0.930 . S
C624 N621 1.314 . S
C624 C622 1.353 . S
C624 H682 0.930 . S
C625 N621 1.279 . S
C625 C623 1.358 . S
C625 H683 0.930 . S
C626 C629 1.348 . S
C626 C630 1.356 . S
C626 O677 1.325 . S
C627 N628 1.279 . S
C627 C630 1.358 . S
C627 H684 0.930 . S
N628 C627 1.279 . S
N628 C631 1.314 . S
C629 C626 1.348 . S
C629 C631 1.353 . S
C629 H685 0.929 . S
C630 C626 1.356 . S
C630 C627 1.358 . S
C630 H686 0.930 . S
C631 N628 1.314 . S
C631 C629 1.353 . S
C631 H687 0.930 . S
C632 N633 1.314 . S
C632 C637 1.353 . S
C632 H638 0.930 . S
N633 Li616 1.990 . S
N633 C632 1.314 . S
N633 C635 1.279 . S
C634 C635 1.358 . S
C634 C636 1.356 . S
C634 H688 0.930 . S
C635 N633 1.279 . S
C635 C634 1.358 . S
C635 H639 0.930 . S
C636 C634 1.356 . S
C636 C637 1.348 . S
C637 C632 1.353 . S
C637 C636 1.348 . S
C637 H689 0.929 . S
H638 C632 0.930 . S
H639 C635 0.930 . S
C640 N641 1.314 . S
C640 C642 1.353 . S
C640 H646 0.930 . S
N641 Li617 1.990 . S
N641 C640 1.314 . S
N641 C644 1.279 . S
C642 C640 1.353 . S
C642 C645 1.348 . S
C642 H690 0.929 . S
C643 C644 1.358 . S
C643 C645 1.356 . S
C643 H691 0.930 . S
C644 N641 1.279 . S
C644 C643 1.358 . S
C644 H647 0.930 . S
C645 C642 1.348 . S
C645 C643 1.356 . S
H646 C640 0.930 . S
H647 C644 0.930 . S
C648 C650 1.348 . S
C648 C651 1.356 . S
C648 O678 1.325 . S
N649 C652 1.314 . S
N649 C653 1.279 . S
C650 C648 1.348 . S
C650 C652 1.353 . S
C650 H692 0.929 . S
C651 C648 1.356 . S
C651 C653 1.358 . S
C651 H693 0.930 . S
C652 N649 1.314 . S
C652 C650 1.353 . S
C652 H694 0.930 . S
C653 N649 1.279 . S
C653 C651 1.358 . S
C653 H695 0.930 . S
C654 C655 1.348 . S
C654 C656 1.356 . S
C654 O679 1.325 . S
C655 C654 1.348 . S
C655 C657 1.353 . S
C655 H696 0.929 . S
C656 C654 1.356 . S
C656 C658 1.358 . S
C656 H697 0.930 . S
C657 C655 1.353 . S
C657 N659 1.314 . S
C657 H698 0.930 . S
C658 C656 1.358 . S
C658 N659 1.279 . S
C658 H699 0.930 . S
N659 C657 1.314 . S
N659 C658 1.279 . S
C660 C662 1.353 . S
C660 N663 1.314 . S
C660 H666 0.930 . S
C661 N663 1.279 . S
C661 C664 1.358 . S
C661 H667 0.930 . S
C662 C660 1.353 . S
C662 C665 1.348 . S
C662 H700 0.929 . S
N663 Li618 1.990 . S
N663 C660 1.314 . S
N663 C661 1.279 . S
C664 C661 1.358 . S
C664 C665 1.356 . S
C664 H701 0.930 . S
C665 C662 1.348 . S
C665 C664 1.356 . S
H666 C660 0.930 . S
H667 C661 0.930 . S
C668 N669 1.314 . S
C668 C670 1.353 . S
C668 H674 0.930 . S
N669 Li619 1.990 . S
N669 C668 1.314 . S
N669 C672 1.279 . S
C670 C668 1.353 . S
C670 C673 1.348 . S
C670 H702 0.929 . S
C671 C672 1.358 . S
C671 C673 1.356 . S
C671 H703 0.930 . S
C672 N669 1.279 . S
C672 C671 1.358 . S
C672 H675 0.930 . S
C673 C670 1.348 . S
C673 C671 1.356 . S
H674 C668 0.930 . S
H675 C672 0.930 . S
O676 Li616 1.956 . S
O676 Li617 1.970 . S
O676 Li618 1.961 . S
O676 C620 1.325 . S
O677 Li616 1.970 . S
O677 Li617 1.956 . S
O677 Li619 1.961 . S
O677 C626 1.325 . S
O678 Li616 1.961 . S
O678 Li618 1.956 . S
O678 Li619 1.970 . S
O678 C648 1.325 . S
O679 Li617 1.961 . S
O679 Li618 1.970 . S
O679 Li619 1.956 . S
O679 C654 1.325 . S
H680 C622 0.929 . S
H681 C623 0.930 . S
H682 C624 0.930 . S
H683 C625 0.930 . S
H684 C627 0.930 . S
H685 C629 0.929 . S
H686 C630 0.930 . S
H687 C631 0.930 . S
H688 C634 0.930 . S
H689 C637 0.929 . S
H690 C642 0.929 . S
H691 C643 0.930 . S
H692 C650 0.929 . S
H693 C651 0.930 . S
H694 C652 0.930 . S
H695 C653 0.930 . S
H696 C655 0.929 . S
H697 C656 0.930 . S
H698 C657 0.930 . S
H699 C658 0.930 . S
H700 C662 0.929 . S
H701 C664 0.930 . S
H702 C670 0.929 . S
H703 C671 0.930 . S
C704 C705 1.363 . S
C704 C710 1.379 1_556 S
C704 N712 1.356 . S
C705 C704 1.363 . S
C705 C711 1.363 . S
C706 C707 1.363 . S
C706 C711 1.379 1_554 S
C706 N713 1.356 . S
C707 C706 1.363 . S
C707 C710 1.363 . S
N708 C710 1.356 . S
N708 H720 0.984 . S
N708 H721 0.985 . S
N709 C711 1.356 . S
N709 H714 0.984 . S
N709 H715 0.985 . S
C710 C704 1.379 1_554 S
C710 C707 1.363 . S
C710 N708 1.356 . S
C711 C705 1.363 . S
C711 C706 1.379 1_556 S
C711 N709 1.356 . S
N712 C704 1.356 . S
N712 H718 0.984 1_556 S
N712 H719 0.984 . S
N713 C706 1.356 . S
N713 H716 0.984 . S
N713 H717 0.985 1_554 S
H714 N709 0.984 . S
H715 N709 0.985 . S
H716 N713 0.984 . S
H717 N713 0.985 1_556 S
H718 N712 0.984 1_554 S
H719 N712 0.984 . S
H720 N708 0.984 . S
H721 N708 0.985 . S
C722 C723 1.363 . S
C722 C728 1.379 . S
C722 N730 1.356 . S
C723 C722 1.363 . S
C723 C729 1.363 . S
C724 C725 1.363 . S
C724 C729 1.379 . S
C724 N731 1.356 . S
C725 C724 1.363 . S
C725 C728 1.363 . S
N726 C728 1.356 . S
N726 H738 0.984 . S
N726 H739 0.985 . S
N727 C729 1.356 . S
N727 H732 0.984 . S
N727 H733 0.985 . S
C728 C722 1.379 . S
C728 C725 1.363 . S
C728 N726 1.356 . S
C729 C723 1.363 . S
C729 C724 1.379 . S
C729 N727 1.356 . S
N730 C722 1.356 . S
N730 H736 0.984 . S
N730 H737 0.984 . S
N731 C724 1.356 . S
N731 H734 0.984 . S
N731 H735 0.985 . S
H732 N727 0.984 . S
H733 N727 0.985 . S
H734 N731 0.984 . S
H735 N731 0.985 . S
H736 N730 0.984 . S
H737 N730 0.984 . S
H738 N726 0.984 . S
H739 N726 0.985 . S
C740 C741 1.363 . S
C740 C746 1.379 . S
C740 N748 1.356 . S
C741 C740 1.363 . S
C741 C747 1.363 . S
C742 C743 1.363 . S
C742 C747 1.379 . S
C742 N749 1.356 . S
C743 C742 1.363 . S
C743 C746 1.363 . S
N744 C746 1.356 . S
N744 H756 0.984 . S
N744 H757 0.985 . S
N745 C747 1.356 . S
N745 H750 0.984 . S
N745 H751 0.985 . S
C746 C740 1.379 . S
C746 C743 1.363 . S
C746 N744 1.356 . S
C747 C741 1.363 . S
C747 C742 1.379 . S
C747 N745 1.356 . S
N748 C740 1.356 . S
N748 H754 0.984 . S
N748 H755 0.984 . S
N749 C742 1.356 . S
N749 H752 0.984 . S
N749 H753 0.985 . S
H750 N745 0.984 . S
H751 N745 0.985 . S
H752 N749 0.984 . S
H753 N749 0.985 . S
H754 N748 0.984 . S
H755 N748 0.984 . S
H756 N744 0.984 . S
H757 N744 0.985 . S
C758 C759 1.363 . S
C758 C764 1.379 . S
C758 N766 1.356 . S
C759 C758 1.363 . S
C759 C765 1.363 . S
C760 C761 1.363 . S
C760 C765 1.379 . S
C760 N767 1.356 . S
C761 C760 1.363 . S
C761 C764 1.363 . S
N762 C764 1.356 . S
N762 H774 0.984 . S
N762 H775 0.985 . S
N763 C765 1.356 . S
N763 H768 0.984 . S
N763 H769 0.985 . S
C764 C758 1.379 . S
C764 C761 1.363 . S
C764 N762 1.356 . S
C765 C759 1.363 . S
C765 C760 1.379 . S
C765 N763 1.356 . S
N766 C758 1.356 . S
N766 H772 0.984 . S
N766 H773 0.984 . S
N767 C760 1.356 . S
N767 H770 0.984 . S
N767 H771 0.985 . S
H768 N763 0.984 . S
H769 N763 0.985 . S
H770 N767 0.984 . S
H771 N767 0.985 . S
H772 N766 0.984 . S
H773 N766 0.984 . S
H774 N762 0.984 . S
H775 N762 0.985 . S
C776 C777 1.363 . S
C776 C782 1.379 . S
C776 N784 1.356 . S
C777 C776 1.363 . S
C777 C783 1.363 . S
C778 C779 1.363 . S
C778 C783 1.379 . S
C778 N785 1.356 . S
C779 C778 1.363 . S
C779 C782 1.363 . S
N780 C782 1.356 . S
N780 H792 0.984 . S
N780 H793 0.985 . S
N781 C783 1.356 . S
N781 H786 0.984 . S
N781 H787 0.985 . S
C782 C776 1.379 . S
C782 C779 1.363 . S
C782 N780 1.356 . S
C783 C777 1.363 . S
C783 C778 1.379 . S
C783 N781 1.356 . S
N784 C776 1.356 . S
N784 H790 0.984 . S
N784 H791 0.984 . S
N785 C778 1.356 . S
N785 H788 0.984 . S
N785 H789 0.985 . S
H786 N781 0.984 . S
H787 N781 0.985 . S
H788 N785 0.984 . S
H789 N785 0.985 . S
H790 N784 0.984 . S
H791 N784 0.984 . S
H792 N780 0.984 . S
H793 N780 0.985 . S
C794 C795 1.363 . S
C794 C800 1.379 . S
C794 N802 1.356 . S
C795 C794 1.363 . S
C795 C801 1.363 . S
C796 C797 1.363 . S
C796 C801 1.379 . S
C796 N803 1.356 . S
C797 C796 1.363 . S
C797 C800 1.363 . S
N798 C800 1.356 . S
N798 H810 0.984 . S
N798 H811 0.985 . S
N799 C801 1.356 . S
N799 H804 0.984 . S
N799 H805 0.985 . S
C800 C794 1.379 . S
C800 C797 1.363 . S
C800 N798 1.356 . S
C801 C795 1.363 . S
C801 C796 1.379 . S
C801 N799 1.356 . S
N802 C794 1.356 . S
N802 H808 0.984 . S
N802 H809 0.984 . S
N803 C796 1.356 . S
N803 H806 0.984 . S
N803 H807 0.985 . S
H804 N799 0.984 . S
H805 N799 0.985 . S
H806 N803 0.984 . S
H807 N803 0.985 . S
H808 N802 0.984 . S
H809 N802 0.984 . S
H810 N798 0.984 . S
H811 N798 0.985 . S
C812 C813 1.363 . S
C812 C818 1.379 1_554 S
C812 N820 1.356 . S
C813 C812 1.363 . S
C813 C819 1.363 . S
C814 C815 1.363 . S
C814 C819 1.379 1_556 S
C814 N821 1.356 . S
C815 C814 1.363 . S
C815 C818 1.363 . S
N816 C818 1.356 . S
N816 H828 0.984 . S
N816 H829 0.985 . S
N817 C819 1.356 . S
N817 H822 0.984 . S
N817 H823 0.985 . S
C818 C812 1.379 1_556 S
C818 C815 1.363 . S
C818 N816 1.356 . S
C819 C813 1.363 . S
C819 C814 1.379 1_554 S
C819 N817 1.356 . S
N820 C812 1.356 . S
N820 H826 0.984 . S
N820 H827 0.984 . S
N821 C814 1.356 . S
N821 H824 0.984 . S
N821 H825 0.985 . S
H822 N817 0.984 . S
H823 N817 0.985 . S
H824 N821 0.984 . S
H825 N821 0.985 . S
H826 N820 0.984 . S
H827 N820 0.984 . S
H828 N816 0.984 . S
H829 N816 0.985 . S
C830 C831 1.363 . S
C830 C836 1.379 . S
C830 N838 1.356 . S
C831 C830 1.363 . S
C831 C837 1.363 . S
C832 C833 1.363 . S
C832 C837 1.379 . S
C832 N839 1.356 . S
C833 C832 1.363 . S
C833 C836 1.363 . S
N834 C836 1.356 . S
N834 H846 0.984 . S
N834 H847 0.985 . S
N835 C837 1.356 . S
N835 H840 0.984 . S
N835 H841 0.985 . S
C836 C830 1.379 . S
C836 C833 1.363 . S
C836 N834 1.356 . S
C837 C831 1.363 . S
C837 C832 1.379 . S
C837 N835 1.356 . S
N838 C830 1.356 . S
N838 H844 0.984 . S
N838 H845 0.984 . S
N839 C832 1.356 . S
N839 H842 0.984 . S
N839 H843 0.985 . S
H840 N835 0.984 . S
H841 N835 0.985 . S
H842 N839 0.984 . S
H843 N839 0.985 . S
H844 N838 0.984 . S
H845 N838 0.984 . S
H846 N834 0.984 . S
H847 N834 0.985 . S
C848 C849 1.363 . S
C848 C854 1.379 . S
C848 N856 1.356 . S
C849 C848 1.363 . S
C849 C855 1.363 . S
C850 C851 1.363 . S
C850 C855 1.379 . S
C850 N857 1.356 . S
C851 C850 1.363 . S
C851 C854 1.363 . S
N852 C854 1.356 . S
N852 H864 0.984 . S
N852 H865 0.985 . S
N853 C855 1.356 . S
N853 H858 0.984 . S
N853 H859 0.985 . S
C854 C848 1.379 . S
C854 C851 1.363 . S
C854 N852 1.356 . S
C855 C849 1.363 . S
C855 C850 1.379 . S
C855 N853 1.356 . S
N856 C848 1.356 . S
N856 H862 0.984 . S
N856 H863 0.984 . S
N857 C850 1.356 . S
N857 H860 0.984 . S
N857 H861 0.985 . S
H858 N853 0.984 . S
H859 N853 0.985 . S
H860 N857 0.984 . S
H861 N857 0.985 . S
H862 N856 0.984 . S
H863 N856 0.984 . S
H864 N852 0.984 . S
H865 N852 0.985 . S
C866 C867 1.363 . S
C866 C872 1.379 . S
C866 N874 1.356 . S
C867 C866 1.363 . S
C867 C873 1.363 . S
C868 C869 1.363 . S
C868 C873 1.379 . S
C868 N875 1.356 . S
C869 C868 1.363 . S
C869 C872 1.363 . S
N870 C872 1.356 . S
N870 H882 0.984 . S
N870 H883 0.985 . S
N871 C873 1.356 . S
N871 H876 0.984 . S
N871 H877 0.985 . S
C872 C866 1.379 . S
C872 C869 1.363 . S
C872 N870 1.356 . S
C873 C867 1.363 . S
C873 C868 1.379 . S
C873 N871 1.356 . S
N874 C866 1.356 . S
N874 H880 0.984 . S
N874 H881 0.984 . S
N875 C868 1.356 . S
N875 H878 0.984 . S
N875 H879 0.985 . S
H876 N871 0.984 . S
H877 N871 0.985 . S
H878 N875 0.984 . S
H879 N875 0.985 . S
H880 N874 0.984 . S
H881 N874 0.984 . S
H882 N870 0.984 . S
H883 N870 0.985 . S
C884 C885 1.363 1_554 S
C884 C890 1.379 . S
C884 N892 1.356 . S
C885 C884 1.363 1_556 S
C885 C891 1.363 . S
C886 C887 1.363 1_556 S
C886 C891 1.379 . S
C886 N893 1.356 . S
C887 C886 1.363 1_554 S
C887 C890 1.363 . S
N888 C890 1.356 . S
N888 H900 0.984 . S
N888 H901 0.985 . S
N889 C891 1.356 . S
N889 H894 0.984 . S
N889 H895 0.985 . S
C890 C884 1.379 . S
C890 C887 1.363 . S
C890 N888 1.356 . S
C891 C885 1.363 . S
C891 C886 1.379 . S
C891 N889 1.356 . S
N892 C884 1.356 . S
N892 H898 0.984 . S
N892 H899 0.984 . S
N893 C886 1.356 . S
N893 H896 0.984 . S
N893 H897 0.985 . S
H894 N889 0.984 . S
H895 N889 0.985 . S
H896 N893 0.984 . S
H897 N893 0.985 . S
H898 N892 0.984 . S
H899 N892 0.984 . S
H900 N888 0.984 . S
H901 N888 0.985 . S
C902 C903 1.363 . S
C902 C908 1.379 . S
C902 N910 1.356 . S
C903 C902 1.363 . S
C903 C909 1.363 . S
C904 C905 1.363 . S
C904 C909 1.379 . S
C904 N911 1.356 . S
C905 C904 1.363 . S
C905 C908 1.363 . S
N906 C908 1.356 . S
N906 H918 0.984 . S
N906 H919 0.985 . S
N907 C909 1.356 . S
N907 H912 0.984 . S
N907 H913 0.985 . S
C908 C902 1.379 . S
C908 C905 1.363 . S
C908 N906 1.356 . S
C909 C903 1.363 . S
C909 C904 1.379 . S
C909 N907 1.356 . S
N910 C902 1.356 . S
N910 H916 0.984 . S
N910 H917 0.984 . S
N911 C904 1.356 . S
N911 H914 0.984 . S
N911 H915 0.985 . S
H912 N907 0.984 . S
H913 N907 0.985 . S
H914 N911 0.984 . S
H915 N911 0.985 . S
H916 N910 0.984 . S
H917 N910 0.984 . S
H918 N906 0.984 . S
H919 N906 0.985 . S
C920 C921 1.363 . S
C920 C926 1.379 . S
C920 N928 1.356 . S
C921 C920 1.363 . S
C921 C927 1.363 . S
C922 C923 1.363 . S
C922 C927 1.379 . S
C922 N929 1.356 . S
C923 C922 1.363 . S
C923 C926 1.363 . S
N924 C926 1.356 . S
N924 H936 0.984 . S
N924 H937 0.985 . S
N925 C927 1.356 . S
N925 H930 0.984 . S
N925 H931 0.985 . S
C926 C920 1.379 . S
C926 C923 1.363 . S
C926 N924 1.356 . S
C927 C921 1.363 . S
C927 C922 1.379 . S
C927 N925 1.356 . S
N928 C920 1.356 . S
N928 H934 0.984 . S
N928 H935 0.984 . S
N929 C922 1.356 . S
N929 H932 0.984 . S
N929 H933 0.985 . S
H930 N925 0.984 . S
H931 N925 0.985 . S
H932 N929 0.984 . S
H933 N929 0.985 . S
H934 N928 0.984 . S
H935 N928 0.984 . S
H936 N924 0.984 . S
H937 N924 0.985 . S
C938 C939 1.363 1_556 S
C938 C944 1.379 . S
C938 N946 1.356 . S
C939 C938 1.363 1_554 S
C939 C945 1.363 . S
C940 C941 1.363 1_554 S
C940 C945 1.379 . S
C940 N947 1.356 . S
C941 C940 1.363 1_556 S
C941 C944 1.363 . S
N942 C944 1.356 . S
N942 H954 0.984 . S
N942 H955 0.985 . S
N943 C945 1.356 . S
N943 H948 0.984 . S
N943 H949 0.985 . S
C944 C938 1.379 . S
C944 C941 1.363 . S
C944 N942 1.356 . S
C945 C939 1.363 . S
C945 C940 1.379 . S
C945 N943 1.356 . S
N946 C938 1.356 . S
N946 H952 0.984 . S
N946 H953 0.984 . S
N947 C940 1.356 . S
N947 H950 0.984 . S
N947 H951 0.985 . S
H948 N943 0.984 . S
H949 N943 0.985 . S
H950 N947 0.984 . S
H951 N947 0.985 . S
H952 N946 0.984 . S
H953 N946 0.984 . S
H954 N942 0.984 . S
H955 N942 0.985 . S
C956 C957 1.363 . S
C956 C962 1.379 . S
C956 N964 1.356 . S
C957 C956 1.363 . S
C957 C963 1.363 . S
C958 C959 1.363 . S
C958 C963 1.379 . S
C958 N965 1.356 . S
C959 C958 1.363 . S
C959 C962 1.363 . S
N960 C962 1.356 . S
N960 H972 0.984 . S
N960 H973 0.985 . S
N961 C963 1.356 . S
N961 H966 0.984 . S
N961 H967 0.985 . S
C962 C956 1.379 . S
C962 C959 1.363 . S
C962 N960 1.356 . S
C963 C957 1.363 . S
C963 C958 1.379 . S
C963 N961 1.356 . S
N964 C956 1.356 . S
N964 H970 0.984 . S
N964 H971 0.984 . S
N965 C958 1.356 . S
N965 H968 0.984 . S
N965 H969 0.985 . S
H966 N961 0.984 . S
H967 N961 0.985 . S
H968 N965 0.984 . S
H969 N965 0.985 . S
H970 N964 0.984 . S
H971 N964 0.984 . S
H972 N960 0.984 . S
H973 N960 0.985 . S
C974 C975 1.363 . S
C974 C980 1.379 . S
C974 N982 1.356 . S
C975 C974 1.363 . S
C975 C981 1.363 . S
C976 C977 1.363 . S
C976 C981 1.379 . S
C976 N983 1.356 . S
C977 C976 1.363 . S
C977 C980 1.363 . S
N978 C980 1.356 . S
N978 H990 0.984 . S
N978 H991 0.985 . S
N979 C981 1.356 . S
N979 H984 0.984 . S
N979 H985 0.985 . S
C980 C974 1.379 . S
C980 C977 1.363 . S
C980 N978 1.356 . S
C981 C975 1.363 . S
C981 C976 1.379 . S
C981 N979 1.356 . S
N982 C974 1.356 . S
N982 H988 0.984 . S
N982 H989 0.984 . S
N983 C976 1.356 . S
N983 H986 0.984 . S
N983 H987 0.985 . S
H984 N979 0.984 . S
H985 N979 0.985 . S
H986 N983 0.984 . S
H987 N983 0.985 . S
H988 N982 0.984 . S
H989 N982 0.984 . S
H990 N978 0.984 . S
H991 N978 0.985 . S
C705 C108 1.411 . S
C707 C57 1.411 . S
C723 C145 1.411 . S
C725 C205 1.411 . S
C741 C293 1.411 . S
C743 C225 1.411 . S
C759 C313 1.411 . S
C761 C20 1.411 . S
C777 C409 1.411 . S
C779 C460 1.411 . S
C795 C497 1.411 . S
C797 C557 1.411 . S
C813 C577 1.411 . S
C815 C645 1.411 . S
C831 C372 1.411 . S
C833 C665 1.411 . S
C849 C49 1.571 . S
C851 C636 1.571 . S
C867 C381 1.571 . S
C869 C137 1.571 . S
C885 C469 1.571 1_556 S
C887 C233 1.571 1_554 S
C903 C321 1.571 . S
C905 C548 1.571 . S
C921 C196 1.571 . S
C923 C673 1.571 . S
C939 C401 1.571 1_554 S
C941 C284 1.571 1_556 S
C957 C489 1.571 . S
C959 C29 1.571 . S
C975 C117 1.571 . S
C977 C585 1.571 . S
