# Generated by pormake.
# Topology afi, (4)-cn, num edge types: 1
# Building blocks:
#     Node 0, Type 0, BuildingBlock: CEKHIL_clean_sbu_0, # of connection points: 4
#     Node 1, Type 0, BuildingBlock: CEKHIL_clean_sbu_0, # of connection points: 4
#     Node 2, Type 0, BuildingBlock: CEKHIL_clean_sbu_0, # of connection points: 4
#     Node 3, Type 0, BuildingBlock: CEKHIL_clean_sbu_0, # of connection points: 4
#     Node 4, Type 0, BuildingBlock: CEKHIL_clean_sbu_0, # of connection points: 4
#     Node 5, Type 0, BuildingBlock: CEKHIL_clean_sbu_0, # of connection points: 4
#     Node 6, Type 0, BuildingBlock: CEKHIL_clean_sbu_0, # of connection points: 4
#     Node 7, Type 0, BuildingBlock: CEKHIL_clean_sbu_0, # of connection points: 4
#     Node 8, Type 0, BuildingBlock: CEKHIL_clean_sbu_0, # of connection points: 4
#     Node 9, Type 0, BuildingBlock: CEKHIL_clean_sbu_0, # of connection points: 4
#     Node 10, Type 0, BuildingBlock: CEKHIL_clean_sbu_0, # of connection points: 4
#     Node 11, Type 0, BuildingBlock: CEKHIL_clean_sbu_0, # of connection points: 4
#     Node 12, Type 0, BuildingBlock: CEKHIL_clean_sbu_0, # of connection points: 4
#     Node 13, Type 0, BuildingBlock: CEKHIL_clean_sbu_0, # of connection points: 4
#     Node 14, Type 0, BuildingBlock: CEKHIL_clean_sbu_0, # of connection points: 4
#     Node 15, Type 0, BuildingBlock: CEKHIL_clean_sbu_0, # of connection points: 4
#     Node 16, Type 0, BuildingBlock: CEKHIL_clean_sbu_0, # of connection points: 4
#     Node 17, Type 0, BuildingBlock: CEKHIL_clean_sbu_0, # of connection points: 4
#     Node 18, Type 0, BuildingBlock: CEKHIL_clean_sbu_0, # of connection points: 4
#     Node 19, Type 0, BuildingBlock: CEKHIL_clean_sbu_0, # of connection points: 4
#     Node 20, Type 0, BuildingBlock: CEKHIL_clean_sbu_0, # of connection points: 4
#     Node 21, Type 0, BuildingBlock: CEKHIL_clean_sbu_0, # of connection points: 4
#     Node 22, Type 0, BuildingBlock: CEKHIL_clean_sbu_0, # of connection points: 4
#     Node 23, Type 0, BuildingBlock: CEKHIL_clean_sbu_0, # of connection points: 4
#     Edge 24, Type (0, 0), BuildingBlock: MIFKUJ_clean_linker_0, # of connection points: 2
#     Edge 25, Type (0, 0), BuildingBlock: MIFKUJ_clean_linker_0, # of connection points: 2
#     Edge 26, Type (0, 0), BuildingBlock: MIFKUJ_clean_linker_0, # of connection points: 2
#     Edge 27, Type (0, 0), BuildingBlock: MIFKUJ_clean_linker_0, # of connection points: 2
#     Edge 28, Type (0, 0), BuildingBlock: MIFKUJ_clean_linker_0, # of connection points: 2
#     Edge 29, Type (0, 0), BuildingBlock: MIFKUJ_clean_linker_0, # of connection points: 2
#     Edge 30, Type (0, 0), BuildingBlock: MIFKUJ_clean_linker_0, # of connection points: 2
#     Edge 31, Type (0, 0), BuildingBlock: MIFKUJ_clean_linker_0, # of connection points: 2
#     Edge 32, Type (0, 0), BuildingBlock: MIFKUJ_clean_linker_0, # of connection points: 2
#     Edge 33, Type (0, 0), BuildingBlock: MIFKUJ_clean_linker_0, # of connection points: 2
#     Edge 34, Type (0, 0), BuildingBlock: MIFKUJ_clean_linker_0, # of connection points: 2
#     Edge 35, Type (0, 0), BuildingBlock: MIFKUJ_clean_linker_0, # of connection points: 2
#     Edge 36, Type (0, 0), BuildingBlock: MIFKUJ_clean_linker_0, # of connection points: 2
#     Edge 37, Type (0, 0), BuildingBlock: MIFKUJ_clean_linker_0, # of connection points: 2
#     Edge 38, Type (0, 0), BuildingBlock: MIFKUJ_clean_linker_0, # of connection points: 2
#     Edge 39, Type (0, 0), BuildingBlock: MIFKUJ_clean_linker_0, # of connection points: 2
#     Edge 40, Type (0, 0), BuildingBlock: MIFKUJ_clean_linker_0, # of connection points: 2
#     Edge 41, Type (0, 0), BuildingBlock: MIFKUJ_clean_linker_0, # of connection points: 2
#     Edge 42, Type (0, 0), BuildingBlock: MIFKUJ_clean_linker_0, # of connection points: 2
#     Edge 43, Type (0, 0), BuildingBlock: MIFKUJ_clean_linker_0, # of connection points: 2
#     Edge 44, Type (0, 0), BuildingBlock: MIFKUJ_clean_linker_0, # of connection points: 2
#     Edge 45, Type (0, 0), BuildingBlock: MIFKUJ_clean_linker_0, # of connection points: 2
#     Edge 46, Type (0, 0), BuildingBlock: MIFKUJ_clean_linker_0, # of connection points: 2
#     Edge 47, Type (0, 0), BuildingBlock: MIFKUJ_clean_linker_0, # of connection points: 2
#     Edge 48, Type (0, 0), BuildingBlock: MIFKUJ_clean_linker_0, # of connection points: 2
#     Edge 49, Type (0, 0), BuildingBlock: MIFKUJ_clean_linker_0, # of connection points: 2
#     Edge 50, Type (0, 0), BuildingBlock: MIFKUJ_clean_linker_0, # of connection points: 2
#     Edge 51, Type (0, 0), BuildingBlock: MIFKUJ_clean_linker_0, # of connection points: 2
#     Edge 52, Type (0, 0), BuildingBlock: MIFKUJ_clean_linker_0, # of connection points: 2
#     Edge 53, Type (0, 0), BuildingBlock: MIFKUJ_clean_linker_0, # of connection points: 2
#     Edge 54, Type (0, 0), BuildingBlock: MIFKUJ_clean_linker_0, # of connection points: 2
#     Edge 55, Type (0, 0), BuildingBlock: MIFKUJ_clean_linker_0, # of connection points: 2
#     Edge 56, Type (0, 0), BuildingBlock: MIFKUJ_clean_linker_0, # of connection points: 2
#     Edge 57, Type (0, 0), BuildingBlock: MIFKUJ_clean_linker_0, # of connection points: 2
#     Edge 58, Type (0, 0), BuildingBlock: MIFKUJ_clean_linker_0, # of connection points: 2
#     Edge 59, Type (0, 0), BuildingBlock: MIFKUJ_clean_linker_0, # of connection points: 2
#     Edge 60, Type (0, 0), BuildingBlock: MIFKUJ_clean_linker_0, # of connection points: 2
#     Edge 61, Type (0, 0), BuildingBlock: MIFKUJ_clean_linker_0, # of connection points: 2
#     Edge 62, Type (0, 0), BuildingBlock: MIFKUJ_clean_linker_0, # of connection points: 2
#     Edge 63, Type (0, 0), BuildingBlock: MIFKUJ_clean_linker_0, # of connection points: 2
#     Edge 64, Type (0, 0), BuildingBlock: MIFKUJ_clean_linker_0, # of connection points: 2
#     Edge 65, Type (0, 0), BuildingBlock: MIFKUJ_clean_linker_0, # of connection points: 2
#     Edge 66, Type (0, 0), BuildingBlock: MIFKUJ_clean_linker_0, # of connection points: 2
#     Edge 67, Type (0, 0), BuildingBlock: MIFKUJ_clean_linker_0, # of connection points: 2
#     Edge 68, Type (0, 0), BuildingBlock: MIFKUJ_clean_linker_0, # of connection points: 2
#     Edge 69, Type (0, 0), BuildingBlock: MIFKUJ_clean_linker_0, # of connection points: 2
#     Edge 70, Type (0, 0), BuildingBlock: MIFKUJ_clean_linker_0, # of connection points: 2
#     Edge 71, Type (0, 0), BuildingBlock: MIFKUJ_clean_linker_0, # of connection points: 2
# Relax obj value: 0.101
# Max RMSD: 0.107
# Mean RMSD: 0.107
data_MOF--net-afi--node1-CEKHIL_clean_sbu_0--edge1-MIFKUJ_clean_linker_0
_symmetry_space_group_name_H-M    P1
_symmetry_Int_Tables_number       1
_symmetry_cell_setting            triclinic
loop_
_symmetry_equiv_pos_as_xyz
'x, y, z'
_cell_length_a     87.61767
_cell_length_b     87.660315
_cell_length_c     50.741447
_cell_angle_alpha  90.001475
_cell_angle_beta   89.970292
_cell_angle_gamma 120.03361
loop_
_atom_site_label
_atom_site_type_symbol
_atom_site_fract_x
_atom_site_fract_y
_atom_site_fract_z
_atom_type_partial_charge
Co0 Co 0.4644 0.13021 0.19603 0.0
O1 O 0.47345 0.15533 0.19266 0.0
O2 O 0.44766 0.13656 0.21011 0.0
C3 C 0.4896 0.13263 0.21255 0.0
O4 O 0.45076 0.10359 0.20433 0.0
Co5 Co 0.4808 0.11075 0.16642 0.0
O6 O 0.46815 0.09246 0.19356 0.0
C7 C 0.45755 0.12076 0.13773 0.0
C8 C 0.45915 0.15279 0.20422 0.0
C9 C 0.45466 0.09119 0.20514 0.0
O10 O 0.4539 0.1263 0.15912 0.0
O11 O 0.4684 0.11501 0.13672 0.0
O12 O 0.47864 0.13425 0.22794 0.0
O13 O 0.48561 0.13084 0.18786 0.0
Co14 Co 0.33766 0.4621 0.19625 0.0
O15 O 0.32286 0.47266 0.19642 0.0
O16 O 0.31435 0.44573 0.2104 0.0
C17 C 0.3618 0.48598 0.21308 0.0
O18 O 0.34968 0.44716 0.20094 0.0
Co19 Co 0.37221 0.47812 0.16298 0.0
O20 O 0.37764 0.4634 0.18648 0.0
C21 C 0.3375 0.45977 0.13672 0.0
C22 C 0.31058 0.45819 0.20688 0.0
C23 C 0.3657 0.45021 0.19901 0.0
O24 O 0.32971 0.45315 0.15886 0.0
O25 O 0.35392 0.47118 0.13482 0.0
O26 O 0.34931 0.47508 0.22871 0.0
O27 O 0.35864 0.4828 0.18832 0.0
Co28 Co 0.87727 0.33664 0.19373 0.0
O29 O 0.85218 0.32036 0.19098 0.0
O30 O 0.87117 0.31398 0.20923 0.0
C31 C 0.87468 0.35968 0.20836 0.0
O32 O 0.90394 0.35006 0.2017 0.0
Co33 Co 0.89643 0.37154 0.16189 0.0
O34 O 0.9147 0.37825 0.18945 0.0
C35 C 0.88627 0.33754 0.13548 0.0
C36 C 0.85488 0.30893 0.20325 0.0
C37 C 0.91615 0.36645 0.20196 0.0
O38 O 0.88099 0.32907 0.1575 0.0
O39 O 0.89202 0.35409 0.13326 0.0
O40 O 0.87338 0.34768 0.22473 0.0
O41 O 0.87637 0.35682 0.18391 0.0
Co42 Co 0.54505 0.87682 0.19517 0.0
O43 O 0.53542 0.8516 0.195 0.0
O44 O 0.56206 0.87072 0.20924 0.0
C45 C 0.52075 0.87599 0.21238 0.0
O46 O 0.559 0.90379 0.20003 0.0
Co47 Co 0.5276 0.89403 0.16219 0.0
O48 O 0.54132 0.91406 0.18651 0.0
C49 C 0.54774 0.87972 0.13557 0.0
C50 C 0.55003 0.85431 0.20558 0.0
C51 C 0.55491 0.91605 0.19872 0.0
O52 O 0.55423 0.87849 0.15778 0.0
O53 O 0.53579 0.884 0.13366 0.0
O54 O 0.53202 0.87488 0.22777 0.0
O55 O 0.52383 0.87609 0.18754 0.0
Co56 Co 0.67131 0.54327 0.19517 0.0
O57 O 0.68687 0.53353 0.1936 0.0
O58 O 0.69453 0.55996 0.20902 0.0
C59 C 0.64791 0.51888 0.21252 0.0
O60 O 0.65882 0.55762 0.20132 0.0
Co61 Co 0.63597 0.52669 0.16401 0.0
O62 O 0.63064 0.54126 0.188 0.0
C63 C 0.67011 0.54578 0.13587 0.0
C64 C 0.6989 0.54805 0.20431 0.0
C65 C 0.64278 0.55453 0.2001 0.0
O66 O 0.67836 0.55251 0.15769 0.0
O67 O 0.65371 0.53415 0.13486 0.0
O68 O 0.66053 0.52998 0.22775 0.0
O69 O 0.6505 0.52222 0.18769 0.0
Co70 Co 0.1324 0.67171 0.19253 0.0
O71 O 0.15763 0.68723 0.19229 0.0
O72 O 0.13865 0.69463 0.20751 0.0
C73 C 0.13319 0.64798 0.20868 0.0
O74 O 0.10541 0.65869 0.19752 0.0
Co75 Co 0.11523 0.63765 0.15821 0.0
O76 O 0.09462 0.63127 0.18131 0.0
C77 C 0.12972 0.67251 0.133 0.0
C78 C 0.15503 0.69902 0.2035 0.0
C79 C 0.09278 0.64259 0.19462 0.0
O80 O 0.13072 0.67979 0.15554 0.0
O81 O 0.1256 0.65637 0.13038 0.0
O82 O 0.13434 0.66015 0.22457 0.0
O83 O 0.13308 0.65131 0.18398 0.0
Co84 Co 0.87809 0.54294 0.30587 0.0
O85 O 0.8528 0.5333 0.30663 0.0
O86 O 0.87184 0.55965 0.29127 0.0
C87 C 0.87728 0.5185 0.2892 0.0
O88 O 0.90503 0.55709 0.30036 0.0
Co89 Co 0.89598 0.52622 0.33887 0.0
O90 O 0.91656 0.54103 0.31613 0.0
C91 C 0.88079 0.54563 0.36528 0.0
C92 C 0.85547 0.54779 0.2956 0.0
C93 C 0.91798 0.55409 0.30303 0.0
O94 O 0.87991 0.55243 0.34314 0.0
O95 O 0.88512 0.53372 0.36705 0.0
O96 O 0.87592 0.52952 0.2736 0.0
O97 O 0.87761 0.52187 0.31397 0.0
Co98 Co 0.33929 0.87592 0.31016 0.0
O99 O 0.32419 0.85063 0.3081 0.0
O100 O 0.31665 0.86985 0.29439 0.0
C101 C 0.36388 0.87646 0.29474 0.0
O102 O 0.35172 0.903 0.30715 0.0
Co103 Co 0.37247 0.89302 0.34624 0.0
O104 O 0.37874 0.91427 0.32495 0.0
C105 C 0.33717 0.87885 0.36995 0.0
C106 C 0.31245 0.85344 0.29713 0.0
C107 C 0.36743 0.91602 0.31148 0.0
O108 O 0.32996 0.87598 0.34694 0.0
O109 O 0.35359 0.88457 0.37369 0.0
O110 O 0.352 0.87554 0.27842 0.0
O111 O 0.35984 0.87559 0.31933 0.0
Co112 Co 0.46635 0.33692 0.31049 0.0
O113 O 0.47522 0.32065 0.31196 0.0
O114 O 0.44965 0.31441 0.29463 0.0
C115 C 0.49181 0.36023 0.29569 0.0
O116 O 0.45295 0.35035 0.3038 0.0
Co117 Co 0.48258 0.37133 0.34366 0.0
O118 O 0.46922 0.37793 0.31931 0.0
C119 C 0.45891 0.33702 0.36926 0.0
C120 C 0.46098 0.30934 0.29978 0.0
C121 C 0.4562 0.36641 0.30603 0.0
O122 O 0.45539 0.32887 0.34692 0.0
O123 O 0.46992 0.35349 0.37193 0.0
O124 O 0.48095 0.34836 0.2793 0.0
O125 O 0.48755 0.35703 0.32021 0.0
Co126 Co 0.13226 0.46583 0.30555 0.0
O127 O 0.15746 0.47532 0.30439 0.0
O128 O 0.13795 0.44879 0.29036 0.0
C129 C 0.13289 0.49029 0.2894 0.0
O130 O 0.10515 0.45199 0.30207 0.0
Co131 Co 0.11626 0.48345 0.34083 0.0
O132 O 0.09473 0.46849 0.31995 0.0
C133 C 0.13142 0.46348 0.36514 0.0
C134 C 0.15446 0.46068 0.29359 0.0
C135 C 0.09251 0.45527 0.3064 0.0
O136 O 0.13152 0.45661 0.34267 0.0
O137 O 0.12755 0.47566 0.36786 0.0
O138 O 0.13349 0.47901 0.2734 0.0
O139 O 0.13338 0.48711 0.31406 0.0
Co140 Co 0.67098 0.13136 0.30835 0.0
O141 O 0.68753 0.1564 0.31006 0.0
O142 O 0.69325 0.13695 0.29177 0.0
C143 C 0.64769 0.13379 0.29451 0.0
O144 O 0.65696 0.10457 0.30155 0.0
Co145 Co 0.63728 0.11403 0.34339 0.0
O146 O 0.62991 0.09384 0.3191 0.0
C147 C 0.67207 0.12541 0.36725 0.0
C148 C 0.69861 0.15335 0.29745 0.0
C149 C 0.64083 0.09204 0.30469 0.0
O150 O 0.67935 0.1282 0.34429 0.0
O151 O 0.65595 0.12106 0.37096 0.0
O152 O 0.65938 0.13482 0.27771 0.0
O153 O 0.65121 0.13278 0.31889 0.0
Co154 Co 0.54314 0.66963 0.30674 0.0
O155 O 0.53381 0.68548 0.30723 0.0
O156 O 0.56001 0.69244 0.29163 0.0
C157 C 0.51811 0.64618 0.29108 0.0
O158 O 0.55691 0.65644 0.30122 0.0
Co159 Co 0.52627 0.63512 0.33995 0.0
O160 O 0.54049 0.62887 0.31682 0.0
C161 C 0.54955 0.66941 0.36585 0.0
C162 C 0.54826 0.69711 0.29588 0.0
C163 C 0.55375 0.64044 0.30396 0.0
O164 O 0.55334 0.67765 0.34356 0.0
O165 O 0.53853 0.65294 0.36833 0.0
O166 O 0.52924 0.6581 0.27496 0.0
O167 O 0.52186 0.6494 0.3157 0.0
Co168 Co 0.5452 0.87693 0.80952 0.0
O169 O 0.53579 0.85169 0.81065 0.0
O170 O 0.56188 0.87081 0.79444 0.0
C171 C 0.52037 0.87567 0.79361 0.0
O172 O 0.55912 0.90379 0.80365 0.0
Co173 Co 0.52871 0.895 0.84265 0.0
O174 O 0.54273 0.91516 0.81869 0.0
C175 C 0.54873 0.88032 0.86876 0.0
C176 C 0.5502 0.85445 0.79921 0.0
C177 C 0.55584 0.91657 0.80572 0.0
O178 O 0.55516 0.87913 0.84646 0.0
O179 O 0.53683 0.88466 0.87084 0.0
O180 O 0.53131 0.87441 0.77765 0.0
O181 O 0.52413 0.87629 0.81826 0.0
Co182 Co 0.67191 0.54394 0.80965 0.0
O183 O 0.68709 0.53376 0.81085 0.0
O184 O 0.69518 0.56032 0.79563 0.0
C185 C 0.6481 0.51978 0.79261 0.0
O186 O 0.65985 0.55872 0.80371 0.0
Co187 Co 0.63677 0.52808 0.84136 0.0
O188 O 0.63171 0.54287 0.81746 0.0
C189 C 0.6711 0.54653 0.86899 0.0
C190 C 0.69928 0.54819 0.80011 0.0
C191 C 0.64393 0.55597 0.80515 0.0
O192 O 0.67927 0.55317 0.84707 0.0
O193 O 0.65463 0.53514 0.87022 0.0
O194 O 0.66077 0.53063 0.7772 0.0
O195 O 0.65088 0.52317 0.8174 0.0
Co196 Co 0.13139 0.66725 0.80736 0.0
O197 O 0.15663 0.68288 0.80933 0.0
O198 O 0.13789 0.69075 0.79468 0.0
C199 C 0.13315 0.64451 0.78918 0.0
O200 O 0.10459 0.65465 0.8005 0.0
Co201 Co 0.11217 0.63089 0.83576 0.0
O202 O 0.09357 0.62586 0.80937 0.0
C203 C 0.12515 0.66404 0.86652 0.0
C204 C 0.1542 0.69505 0.79908 0.0
C205 C 0.09225 0.63835 0.79889 0.0
O206 O 0.12858 0.67334 0.84523 0.0
O207 O 0.11983 0.64751 0.8663 0.0
O208 O 0.13439 0.65717 0.77431 0.0
O209 O 0.13189 0.64654 0.81403 0.0
Co210 Co 0.46367 0.12989 0.80752 0.0
O211 O 0.47332 0.15513 0.80918 0.0
O212 O 0.44722 0.13646 0.79272 0.0
C213 C 0.4886 0.13134 0.79165 0.0
O214 O 0.44963 0.10306 0.80069 0.0
Co215 Co 0.47963 0.11103 0.83973 0.0
O216 O 0.46625 0.09168 0.81442 0.0
C217 C 0.45664 0.12211 0.86636 0.0
C218 C 0.45908 0.15274 0.79762 0.0
C219 C 0.45306 0.09032 0.80182 0.0
O220 O 0.45321 0.12713 0.84431 0.0
O221 O 0.46734 0.11624 0.86853 0.0
O222 O 0.47774 0.13277 0.77578 0.0
O223 O 0.4847 0.13034 0.81632 0.0
Co224 Co 0.33971 0.46584 0.80627 0.0
O225 O 0.32419 0.47552 0.805 0.0
O226 O 0.31651 0.44849 0.79273 0.0
C227 C 0.36308 0.48975 0.78798 0.0
O228 O 0.35267 0.4517 0.80309 0.0
Co229 Co 0.37443 0.48439 0.83892 0.0
O230 O 0.38011 0.4684 0.81913 0.0
C231 C 0.34 0.46547 0.86594 0.0
C232 C 0.3122 0.46064 0.79526 0.0
C233 C 0.3686 0.45481 0.8068 0.0
O234 O 0.33223 0.45788 0.84421 0.0
O235 O 0.35619 0.47762 0.8671 0.0
O236 O 0.35088 0.47788 0.77299 0.0
O237 O 0.36012 0.48735 0.8129 0.0
Co238 Co 0.8773 0.33644 0.8111 0.0
O239 O 0.85193 0.32139 0.81254 0.0
O240 O 0.87021 0.31334 0.79633 0.0
C241 C 0.87692 0.3605 0.79538 0.0
O242 O 0.90404 0.3484 0.80429 0.0
Co243 Co 0.89715 0.37107 0.84373 0.0
O244 O 0.9178 0.37551 0.82229 0.0
C245 C 0.88464 0.33668 0.87003 0.0
C246 C 0.85403 0.30932 0.80111 0.0
C247 C 0.91797 0.36355 0.80826 0.0
O248 O 0.87969 0.32842 0.84782 0.0
O249 O 0.89081 0.35329 0.8724 0.0
O250 O 0.87492 0.34802 0.77944 0.0
O251 O 0.87774 0.35745 0.82003 0.0
Co252 Co 0.1307 0.46139 0.69414 0.0
O253 O 0.1562 0.47262 0.69439 0.0
O254 O 0.13822 0.44608 0.71017 0.0
C255 C 0.12924 0.48514 0.7086 0.0
O256 O 0.10392 0.44574 0.69937 0.0
Co257 Co 0.11075 0.47452 0.65838 0.0
O258 O 0.08941 0.45697 0.67742 0.0
C259 C 0.12754 0.4559 0.6348 0.0
C260 C 0.15434 0.45858 0.706 0.0
C261 C 0.08964 0.44572 0.69304 0.0
O262 O 0.13 0.45121 0.6578 0.0
O263 O 0.12161 0.46641 0.63114 0.0
O264 O 0.13146 0.47512 0.72522 0.0
O265 O 0.12941 0.48135 0.68409 0.0
Co266 Co 0.67073 0.13093 0.69595 0.0
O267 O 0.68643 0.15616 0.69503 0.0
O268 O 0.69345 0.13722 0.71162 0.0
C269 C 0.64695 0.13219 0.71085 0.0
O270 O 0.65772 0.10405 0.70207 0.0
Co271 Co 0.63667 0.11271 0.6618 0.0
O272 O 0.63025 0.09266 0.68596 0.0
C273 C 0.67132 0.12456 0.63688 0.0
C274 C 0.69803 0.15356 0.70695 0.0
C275 C 0.64171 0.09119 0.69946 0.0
O276 O 0.6791 0.12853 0.65952 0.0
O277 O 0.65491 0.11915 0.6337 0.0
O278 O 0.65896 0.13349 0.72723 0.0
O279 O 0.65037 0.13151 0.68631 0.0
Co280 Co 0.54567 0.67118 0.69375 0.0
O281 O 0.53608 0.68684 0.69259 0.0
O282 O 0.56172 0.69369 0.71032 0.0
C283 C 0.52049 0.64713 0.70766 0.0
O284 O 0.55963 0.65827 0.70003 0.0
Co285 Co 0.53047 0.63749 0.65889 0.0
O286 O 0.5443 0.63111 0.68262 0.0
C287 C 0.55356 0.67248 0.63497 0.0
C288 C 0.55009 0.69835 0.705 0.0
C289 C 0.55694 0.64248 0.69666 0.0
O290 O 0.55691 0.68008 0.65772 0.0
O291 O 0.54277 0.65605 0.63144 0.0
O292 O 0.53093 0.65894 0.72449 0.0
O293 O 0.52489 0.65088 0.68328 0.0
Co294 Co 0.87626 0.5411 0.69409 0.0
O295 O 0.85122 0.53276 0.69397 0.0
O296 O 0.87142 0.55888 0.7086 0.0
C297 C 0.87405 0.51618 0.71135 0.0
O298 O 0.90332 0.55393 0.69859 0.0
Co299 Co 0.89155 0.52183 0.66102 0.0
O300 O 0.91331 0.53691 0.68127 0.0
C301 C 0.87799 0.54268 0.63455 0.0
C302 C 0.85481 0.5476 0.70471 0.0
C303 C 0.91579 0.55036 0.69444 0.0
O304 O 0.87808 0.5502 0.65652 0.0
O305 O 0.88111 0.52992 0.63308 0.0
O306 O 0.87387 0.52793 0.72676 0.0
O307 O 0.87413 0.51924 0.68654 0.0
Co308 Co 0.33792 0.87466 0.69686 0.0
O309 O 0.32276 0.84934 0.69724 0.0
O310 O 0.31495 0.86813 0.71199 0.0
C311 C 0.36199 0.87438 0.71269 0.0
O312 O 0.35036 0.90169 0.70153 0.0
Co313 Co 0.37202 0.89297 0.66289 0.0
O314 O 0.37823 0.91289 0.68717 0.0
C315 C 0.33735 0.88012 0.63742 0.0
C316 C 0.31083 0.85181 0.70835 0.0
C317 C 0.36648 0.91448 0.69967 0.0
O318 O 0.32942 0.87583 0.65995 0.0
O319 O 0.35393 0.88633 0.63453 0.0
O320 O 0.34987 0.87322 0.72873 0.0
O321 O 0.35859 0.87444 0.688 0.0
Co322 Co 0.46631 0.33761 0.69473 0.0
O323 O 0.47596 0.32201 0.69396 0.0
O324 O 0.44963 0.31464 0.70951 0.0
C325 C 0.49119 0.36111 0.7106 0.0
O326 O 0.45216 0.35037 0.70075 0.0
Co327 Co 0.48224 0.37233 0.66253 0.0
O328 O 0.46952 0.37863 0.6887 0.0
C329 C 0.45958 0.33819 0.63576 0.0
C330 C 0.46155 0.3102 0.7052 0.0
C331 C 0.45602 0.36667 0.7006 0.0
O332 O 0.45623 0.32976 0.65784 0.0
O333 O 0.47003 0.35483 0.63365 0.0
O334 O 0.48012 0.34903 0.72658 0.0
O335 O 0.48742 0.35813 0.68592 0.0
H336 H 0.41834 0.07228 0.2065 0.0
H337 H 0.39974 0.04212 0.2232 0.0
H338 H 0.4462 0.04211 0.25146 0.0
H339 H 0.46464 0.07164 0.23374 0.0
H340 H 0.42784 0.01368 0.22671 0.0
H341 H 0.41325 0.04444 0.29248 0.0
H342 H 0.40215 0.06375 0.30807 0.0
H343 H 0.35192 0.02963 0.27228 0.0
H344 H 0.36281 0.01023 0.25622 0.0
H345 H 0.3993 0.94589 0.31786 0.0
H346 H 0.40979 0.97478 0.2986 0.0
H347 H 0.35952 0.95642 0.26087 0.0
H348 H 0.34867 0.92698 0.28028 0.0
H349 H 0.3754 0.99192 0.28464 0.0
H350 H 0.39015 0.95943 0.22368 0.0
H351 H 0.40184 0.94006 0.21108 0.0
H352 H 0.45291 0.97812 0.24047 0.0
H353 H 0.44145 0.9976 0.25364 0.0
C354 C 0.42448 0.06589 0.2167 0.0
C355 C 0.44294 0.07429 0.21876 0.0
C356 C 0.41384 0.04863 0.22628 0.0
C357 C 0.42148 0.03966 0.23868 0.0
C358 C 0.43989 0.04851 0.24175 0.0
C359 C 0.45046 0.06548 0.23174 0.0
C360 C 0.41076 0.02081 0.24724 0.0
C361 C 0.41647 0.00907 0.23955 0.0
C362 C 0.39545 0.01437 0.26321 0.0
C363 C 0.38891 0.02601 0.27289 0.0
C364 C 0.39989 0.04114 0.28777 0.0
C365 C 0.39362 0.05208 0.29672 0.0
C366 C 0.37636 0.04795 0.2911 0.0
C367 C 0.3653 0.03284 0.27658 0.0
C368 C 0.37151 0.02186 0.26756 0.0
C369 C 0.3903 0.94783 0.3056 0.0
C370 C 0.37309 0.9339 0.30052 0.0
C371 C 0.39639 0.96447 0.29458 0.0
C372 C 0.38554 0.96776 0.27808 0.0
C373 C 0.36814 0.95416 0.27354 0.0
C374 C 0.36198 0.93733 0.28458 0.0
C375 C 0.39301 0.98525 0.26487 0.0
C376 C 0.38666 0.99662 0.27154 0.0
C377 C 0.40788 0.99148 0.24816 0.0
C378 C 0.41491 0.97994 0.23977 0.0
C379 C 0.40385 0.96363 0.22759 0.0
C380 C 0.41044 0.95263 0.22034 0.0
C381 C 0.4281 0.95785 0.225 0.0
C382 C 0.43923 0.9741 0.23687 0.0
C383 C 0.4327 0.98513 0.2442 0.0
H384 H 0.43317 0.9493 0.2194 0.0
H385 H 0.37154 0.05644 0.29804 0.0
H386 H 0.42423 0.34603 0.28059 0.0
H387 H 0.40441 0.35582 0.26291 0.0
H388 H 0.44137 0.40916 0.28622 0.0
H389 H 0.46097 0.39963 0.30387 0.0
H390 H 0.40908 0.40092 0.30077 0.0
H391 H 0.43677 0.39552 0.22178 0.0
H392 H 0.44496 0.37988 0.18938 0.0
H393 H 0.39025 0.34327 0.17465 0.0
H394 H 0.38173 0.35858 0.20726 0.0
H395 H 0.39768 0.45945 0.21954 0.0
H396 H 0.40781 0.44052 0.23856 0.0
H397 H 0.3565 0.39504 0.22597 0.0
H398 H 0.34601 0.41418 0.20726 0.0
H399 H 0.38977 0.39377 0.20749 0.0
H400 H 0.36289 0.40309 0.28329 0.0
H401 H 0.35632 0.42068 0.31433 0.0
H402 H 0.41123 0.45159 0.33402 0.0
H403 H 0.41817 0.43436 0.30277 0.0
C404 C 0.42815 0.35985 0.28183 0.0
C405 C 0.44421 0.37196 0.29386 0.0
C406 C 0.41681 0.36544 0.27168 0.0
C407 C 0.42133 0.38326 0.27328 0.0
C408 C 0.43744 0.39533 0.28494 0.0
C409 C 0.4487 0.3898 0.295 0.0
C410 C 0.40947 0.38966 0.2632 0.0
C411 C 0.40487 0.3993 0.28036 0.0
C412 C 0.40353 0.38726 0.23674 0.0
C413 C 0.40862 0.37803 0.21721 0.0
C414 C 0.42649 0.38403 0.21181 0.0
C415 C 0.43119 0.37525 0.19338 0.0
C416 C 0.41813 0.36055 0.18004 0.0
C417 C 0.40035 0.35463 0.18505 0.0
C418 C 0.39557 0.36336 0.2035 0.0
C419 C 0.38847 0.44542 0.22087 0.0
C420 C 0.37103 0.43832 0.21183 0.0
C421 C 0.3943 0.43462 0.23178 0.0
C422 C 0.38296 0.41637 0.23361 0.0
C423 C 0.36548 0.40911 0.22466 0.0
C424 C 0.35948 0.42004 0.21417 0.0
C425 C 0.38978 0.40527 0.24496 0.0
C426 C 0.39357 0.3949 0.22805 0.0
C427 C 0.39515 0.40713 0.27161 0.0
C428 C 0.39106 0.4175 0.29053 0.0
C429 C 0.37359 0.41373 0.29406 0.0
C430 C 0.36979 0.42362 0.31173 0.0
C431 C 0.38335 0.43727 0.3261 0.0
C432 C 0.40074 0.44102 0.32286 0.0
C433 C 0.4046 0.43118 0.3052 0.0
H434 H 0.38039 0.4449 0.33978 0.0
H435 H 0.4218 0.35378 0.16576 0.0
H436 H 0.93537 0.39665 0.22948 0.0
H437 H 0.96498 0.40845 0.24742 0.0
H438 H 0.96553 0.36168 0.22241 0.0
H439 H 0.93527 0.34937 0.20552 0.0
H440 H 0.98322 0.37298 0.26714 0.0
H441 H 0.9858 0.40084 0.18499 0.0
H442 H 0.97735 0.41632 0.15269 0.0
H443 H 0.99408 0.45979 0.20613 0.0
H444 H 1.00245 0.44449 0.23888 0.0
H445 H 0.07925 0.42314 0.28053 0.0
H446 H 0.04944 0.40493 0.26212 0.0
H447 H 0.03545 0.44305 0.28866 0.0
H448 H 0.06473 0.46109 0.30683 0.0
H449 H 0.02588 0.43375 0.23789 0.0
H450 H 0.02127 0.4043 0.32105 0.0
H451 H 0.02949 0.3884 0.35293 0.0
H452 H 0.01716 0.34764 0.29592 0.0
H453 H 0.00908 0.36343 0.26357 0.0
C454 C 0.94169 0.38875 0.22814 0.0
C455 C 0.93307 0.37216 0.21587 0.0
C456 C 0.95871 0.39557 0.23824 0.0
C457 C 0.96785 0.38627 0.23552 0.0
C458 C 0.95889 0.36923 0.22454 0.0
C459 C 0.94159 0.36218 0.21492 0.0
C460 C 0.9869 0.39482 0.24306 0.0
C461 C 0.9926 0.38615 0.26037 0.0
C462 C 0.9993 0.41204 0.23432 0.0
C463 C 0.99468 0.42148 0.21443 0.0
C464 C 0.98764 0.41368 0.18987 0.0
C465 C 0.98286 0.42242 0.17149 0.0
C466 C 0.98516 0.43902 0.17737 0.0
C467 C 0.99231 0.44694 0.2016 0.0
C468 C 0.99711 0.43826 0.22006 0.0
C469 C 0.0698 0.4276 0.28248 0.0
C470 C 0.07452 0.44364 0.29526 0.0
C471 C 0.05273 0.41714 0.27202 0.0
C472 C 0.04013 0.42259 0.27403 0.0
C473 C 0.04488 0.43855 0.28675 0.0
C474 C 0.06173 0.44886 0.29727 0.0
C475 C 0.02204 0.41216 0.26262 0.0
C476 C 0.01655 0.42048 0.2444 0.0
C477 C 0.00997 0.39462 0.27036 0.0
C478 C 0.01479 0.38515 0.2898 0.0
C479 C 0.02047 0.39202 0.31524 0.0
C480 C 0.02507 0.38302 0.33341 0.0
C481 C 0.02391 0.36705 0.32643 0.0
C482 C 0.01809 0.36003 0.30128 0.0
C483 C 0.01349 0.36899 0.28303 0.0
H484 H 0.02747 0.36009 0.34052 0.0
H485 H 0.98142 0.44575 0.16313 0.0
H486 H 0.54372 0.93524 0.22555 0.0
H487 H 0.56119 0.96509 0.24263 0.0
H488 H 0.60885 0.96655 0.21685 0.0
H489 H 0.59123 0.936 0.20084 0.0
H490 H 0.61501 0.98426 0.26172 0.0
H491 H 0.58883 0.98601 0.17972 0.0
H492 H 0.56435 0.97672 0.14815 0.0
H493 H 0.53741 0.99277 0.20238 0.0
H494 H 0.56167 1.00202 0.23437 0.0
H495 H 0.65989 0.07917 0.27861 0.0
H496 H 0.64843 0.04987 0.25864 0.0
H497 H 0.5957 0.03617 0.28168 0.0
H498 H 0.60684 0.06512 0.30113 0.0
H499 H 0.59569 0.02598 0.23267 0.0
H500 H 0.62048 0.02161 0.31588 0.0
H501 H 0.64442 0.03009 0.34819 0.0
H502 H 0.67398 0.01899 0.29151 0.0
H503 H 0.65028 0.01066 0.25874 0.0
C504 C 0.55795 0.94183 0.22379 0.0
C505 C 0.56611 0.93336 0.21161 0.0
C506 C 0.56795 0.95899 0.23339 0.0
C507 C 0.58636 0.96842 0.23025 0.0
C508 C 0.59466 0.95968 0.21927 0.0
C509 C 0.58461 0.94222 0.21015 0.0
C510 C 0.59659 0.98751 0.23765 0.0
C511 C 0.61099 0.99346 0.25496 0.0
C512 C 0.59137 0.99963 0.22905 0.0
C513 C 0.57704 0.99464 0.20947 0.0
C514 C 0.57768 0.98755 0.18491 0.0
C515 C 0.56384 0.98228 0.16695 0.0
C516 C 0.54933 0.98413 0.17327 0.0
C517 C 0.54867 0.99135 0.1975 0.0
C518 C 0.56248 0.99666 0.21553 0.0
C519 C 0.64586 0.06993 0.27932 0.0
C520 C 0.63436 0.07458 0.29169 0.0
C521 C 0.63933 0.05313 0.26801 0.0
C522 C 0.62117 0.04067 0.26882 0.0
C523 C 0.60973 0.04546 0.28075 0.0
C524 C 0.6162 0.0621 0.29203 0.0
C525 C 0.61376 0.02261 0.25737 0.0
C526 C 0.5999 0.01687 0.23914 0.0
C527 C 0.61952 0.01077 0.26509 0.0
C528 C 0.63372 0.01572 0.28478 0.0
C529 C 0.63215 0.02112 0.31025 0.0
C530 C 0.64566 0.02587 0.32865 0.0
C531 C 0.66074 0.02513 0.32188 0.0
C532 C 0.66231 0.01959 0.29671 0.0
C533 C 0.64884 0.01485 0.27822 0.0
H534 H 0.67118 0.02881 0.33616 0.0
H535 H 0.53859 0.97999 0.15938 0.0
H536 H 0.58481 0.66023 0.27587 0.0
H537 H 0.60475 0.65037 0.25881 0.0
H538 H 0.57025 0.59831 0.28958 0.0
H539 H 0.55059 0.60789 0.30666 0.0
H540 H 0.60321 0.60797 0.30117 0.0
H541 H 0.57138 0.60833 0.22361 0.0
H542 H 0.56124 0.62181 0.19038 0.0
H543 H 0.61491 0.65827 0.16913 0.0
H544 H 0.62537 0.64512 0.20252 0.0
H545 H 0.61145 0.54581 0.22281 0.0
H546 H 0.60185 0.56534 0.24135 0.0
H547 H 0.65262 0.61038 0.22396 0.0
H548 H 0.66259 0.59068 0.20587 0.0
H549 H 0.61793 0.61009 0.20634 0.0
H550 H 0.64887 0.60556 0.28106 0.0
H551 H 0.65729 0.58996 0.31315 0.0
H552 H 0.60351 0.55952 0.33888 0.0
H553 H 0.59471 0.57475 0.30663 0.0
C554 C 0.58149 0.64668 0.27896 0.0
C555 C 0.56604 0.63493 0.29274 0.0
C556 C 0.59289 0.64105 0.26915 0.0
C557 C 0.58905 0.62355 0.27289 0.0
C558 C 0.57365 0.61189 0.28657 0.0
C559 C 0.56232 0.61744 0.29627 0.0
C560 C 0.60078 0.61701 0.26275 0.0
C561 C 0.60644 0.6085 0.28042 0.0
C562 C 0.60542 0.61798 0.23578 0.0
C563 C 0.59916 0.62592 0.21579 0.0
C564 C 0.58102 0.61933 0.21202 0.0
C565 C 0.57521 0.62688 0.19313 0.0
C566 C 0.58742 0.64093 0.17772 0.0
C567 C 0.60547 0.64742 0.18113 0.0
C568 C 0.61134 0.63992 0.20003 0.0
C569 C 0.62066 0.55986 0.22306 0.0
C570 C 0.6378 0.56669 0.21286 0.0
C571 C 0.61514 0.57101 0.23367 0.0
C572 C 0.62647 0.58931 0.23394 0.0
C573 C 0.64365 0.59628 0.22387 0.0
C574 C 0.64936 0.58503 0.21373 0.0
C575 C 0.61995 0.6008 0.24472 0.0
C576 C 0.61513 0.61006 0.22718 0.0
C577 C 0.6159 0.60039 0.27177 0.0
C578 C 0.62112 0.59121 0.29126 0.0
C579 C 0.63881 0.59543 0.29338 0.0
C580 C 0.64366 0.58668 0.31164 0.0
C581 C 0.63094 0.57373 0.32801 0.0
C582 C 0.61335 0.56954 0.32618 0.0
C583 C 0.60843 0.57825 0.30793 0.0
H584 H 0.63472 0.56698 0.34214 0.0
H585 H 0.5829 0.64676 0.16309 0.0
H586 H 0.07753 0.66226 0.21021 0.0
H587 H 0.04744 0.65105 0.22712 0.0
H588 H 0.03846 0.59799 0.22397 0.0
H589 H 0.06795 0.60893 0.20657 0.0
H590 H 0.01159 0.59788 0.20392 0.0
H591 H 0.04595 0.62288 0.28317 0.0
H592 H 0.0685 0.64665 0.31074 0.0
H593 H 0.04185 0.67625 0.30215 0.0
H594 H 0.01925 0.65272 0.27425 0.0
H595 H 0.94405 0.5467 0.29254 0.0
H596 H 0.97277 0.56556 0.27271 0.0
H597 H 0.96082 0.60745 0.26524 0.0
H598 H 0.93157 0.58837 0.28508 0.0
H599 H 0.99656 0.61743 0.28678 0.0
H600 H 0.95969 0.58907 0.21209 0.0
H601 H 0.93701 0.56378 0.18699 0.0
H602 H 0.96878 0.53915 0.18911 0.0
H603 H 0.99155 0.56418 0.21458 0.0
C604 C 0.06914 0.64823 0.21332 0.0
C605 C 0.07515 0.63651 0.20678 0.0
C606 C 0.05193 0.64181 0.22304 0.0
C607 C 0.04053 0.6236 0.22687 0.0
C608 C 0.04679 0.61205 0.22097 0.0
C609 C 0.06376 0.61837 0.21102 0.0
C610 C 0.02194 0.61618 0.23635 0.0
C611 C 0.0084 0.60218 0.22211 0.0
C612 C 0.01748 0.62203 0.25965 0.0
C613 C 0.03105 0.63616 0.27636 0.0
C614 C 0.04499 0.63453 0.28698 0.0
C615 C 0.05776 0.64794 0.3027 0.0
C616 C 0.05664 0.66298 0.30812 0.0
C617 C 0.04272 0.66461 0.29789 0.0
C618 C 0.02993 0.65124 0.28213 0.0
C619 C 0.94742 0.55992 0.28679 0.0
C620 C 0.9354 0.56598 0.29048 0.0
C621 C 0.96391 0.5707 0.27538 0.0
C622 C 0.96898 0.58791 0.26744 0.0
C623 C 0.95719 0.5942 0.27127 0.0
C624 C 0.94045 0.58326 0.28245 0.0
C625 C 0.98653 0.59888 0.25475 0.0
C626 C 0.9998 0.61345 0.26834 0.0
C627 C 0.99085 0.59346 0.231 0.0
C628 C 0.97729 0.57847 0.21538 0.0
C629 C 0.9618 0.57821 0.20736 0.0
C630 C 0.94893 0.56393 0.19304 0.0
C631 C 0.95144 0.54986 0.18649 0.0
C632 C 0.96685 0.55006 0.19419 0.0
C633 C 0.97975 0.56431 0.20854 0.0
H634 H 0.94146 0.53881 0.17542 0.0
H635 H 0.06653 0.67335 0.3203 0.0
H636 H 0.59184 0.93331 0.79806 0.0
H637 H 0.61087 0.963 0.77954 0.0
H638 H 0.56508 0.96805 0.76547 0.0
H639 H 0.54623 0.93888 0.78447 0.0
H640 H 0.59044 0.97798 0.72139 0.0
H641 H 0.58667 0.9873 0.81546 0.0
H642 H 0.59075 0.983 0.86242 0.0
H643 H 0.64615 0.00402 0.84934 0.0
H644 H 0.64233 0.00819 0.80217 0.0
H645 H 0.60825 0.06337 0.70337 0.0
H646 H 0.59846 0.03407 0.72046 0.0
H647 H 0.65201 0.04913 0.74043 0.0
H648 H 0.6621 0.07899 0.72331 0.0
H649 H 0.62857 0.02854 0.77934 0.0
H650 H 0.63383 0.0238 0.68742 0.0
H651 H 0.63058 0.02798 0.64014 0.0
H652 H 0.57424 0.9979 0.64769 0.0
H653 H 0.57713 0.99376 0.69512 0.0
C654 C 0.58588 0.94074 0.79082 0.0
C655 C 0.56755 0.93379 0.7928 0.0
C656 C 0.59675 0.9577 0.78037 0.0
C657 C 0.58938 0.96775 0.77119 0.0
C658 C 0.57105 0.96055 0.77242 0.0
C659 C 0.5603 0.94388 0.78336 0.0
C660 C 0.60051 0.98592 0.76066 0.0
C661 C 0.59879 0.98904 0.73403 0.0
C662 C 0.61188 1.00027 0.77694 0.0
C663 C 0.61417 0.99781 0.80525 0.0
C664 C 0.59968 0.99082 0.82254 0.0
C665 C 0.60195 0.98845 0.8492 0.0
C666 C 0.61868 0.99317 0.85884 0.0
C667 C 0.63319 1.00033 0.84184 0.0
C668 C 0.63098 1.0027 0.81515 0.0
C669 C 0.61808 0.0606 0.71134 0.0
C670 C 0.63607 0.07362 0.71158 0.0
C671 C 0.6124 0.04372 0.7211 0.0
C672 C 0.6245 0.03919 0.73125 0.0
C673 C 0.64242 0.05225 0.73249 0.0
C674 C 0.64817 0.06932 0.72268 0.0
C675 C 0.61805 0.0207 0.74016 0.0
C676 C 0.62059 0.01748 0.76647 0.0
C677 C 0.60758 0.00617 0.72347 0.0
C678 C 0.60571 0.00855 0.6949 0.0
C679 C 0.62074 0.01818 0.67905 0.0
C680 C 0.61896 0.02053 0.65221 0.0
C681 C 0.60221 0.01323 0.64093 0.0
C682 C 0.58721 0.00355 0.65646 0.0
C683 C 0.58891 1.00117 0.68333 0.0
H684 H 0.60086 0.01507 0.62014 0.0
H685 H 0.62042 0.99134 0.87949 0.0
H686 H 0.6125 0.54772 0.78331 0.0
H687 H 0.60339 0.56752 0.76437 0.0
H688 H 0.65491 0.61198 0.77977 0.0
H689 H 0.66439 0.59199 0.79826 0.0
H690 H 0.61938 0.61183 0.79778 0.0
H691 H 0.65186 0.60799 0.72413 0.0
H692 H 0.66077 0.59244 0.69268 0.0
H693 H 0.60732 0.56175 0.6657 0.0
H694 H 0.59804 0.57692 0.69732 0.0
H695 H 0.58724 0.66216 0.7264 0.0
H696 H 0.60696 0.65236 0.74454 0.0
H697 H 0.57353 0.60054 0.71218 0.0
H698 H 0.55413 0.61009 0.694 0.0
H699 H 0.60661 0.61038 0.7023 0.0
H700 H 0.57318 0.61009 0.77837 0.0
H701 H 0.56234 0.62328 0.81101 0.0
H702 H 0.61554 0.65974 0.83436 0.0
H703 H 0.62671 0.64688 0.80158 0.0
C704 C 0.62198 0.5617 0.78257 0.0
C705 C 0.63919 0.56828 0.79231 0.0
C706 C 0.61673 0.573 0.77174 0.0
C707 C 0.62843 0.59121 0.77078 0.0
C708 C 0.64567 0.59794 0.78041 0.0
C709 C 0.6511 0.58652 0.79078 0.0
C710 C 0.62222 0.60286 0.7596 0.0
C711 C 0.61702 0.61197 0.77682 0.0
C712 C 0.61872 0.60262 0.73237 0.0
C713 C 0.62423 0.59349 0.71326 0.0
C714 C 0.64198 0.5978 0.71168 0.0
C715 C 0.6471 0.58908 0.69378 0.0
C716 C 0.63462 0.57608 0.67724 0.0
C717 C 0.61698 0.57181 0.67854 0.0
C718 C 0.61178 0.58048 0.69642 0.0
C719 C 0.5841 0.64868 0.7232 0.0
C720 C 0.56904 0.63699 0.70862 0.0
C721 C 0.59538 0.64308 0.73363 0.0
C722 C 0.59178 0.62567 0.72975 0.0
C723 C 0.57675 0.61406 0.71531 0.0
C724 C 0.56556 0.61959 0.70497 0.0
C725 C 0.60338 0.61915 0.7405 0.0
C726 C 0.60943 0.61079 0.72319 0.0
C727 C 0.60747 0.61994 0.76768 0.0
C728 C 0.60079 0.6277 0.78729 0.0
C729 C 0.58257 0.62103 0.7903 0.0
C730 C 0.57637 0.62842 0.80885 0.0
C731 C 0.58825 0.64239 0.82468 0.0
C732 C 0.60636 0.64895 0.82203 0.0
C733 C 0.61263 0.64162 0.80348 0.0
H734 H 0.58342 0.64809 0.83904 0.0
H735 H 0.63861 0.56935 0.66339 0.0
H736 H 0.92782 0.57923 0.72787 0.0
H737 H 0.95765 0.59697 0.74629 0.0
H738 H 0.97454 0.56559 0.70328 0.0
H739 H 0.94517 0.5479 0.68529 0.0
H740 H 0.98527 0.56904 0.75234 0.0
H741 H 0.98591 0.60841 0.68483 0.0
H742 H 0.97539 0.62651 0.6628 0.0
H743 H 0.98477 0.65698 0.73338 0.0
H744 H 0.99514 0.6389 0.75594 0.0
H745 H 0.0763 0.61318 0.76174 0.0
H746 H 0.04679 0.60156 0.74337 0.0
H747 H 0.04003 0.63955 0.78839 0.0
H748 H 0.07025 0.65199 0.80554 0.0
H749 H 0.02298 0.63385 0.74338 0.0
H750 H 0.02355 0.59531 0.81031 0.0
H751 H 0.03491 0.57775 0.83183 0.0
H752 H 0.0232 0.54575 0.76245 0.0
H753 H 0.01188 0.56321 0.74044 0.0
C754 C 0.93793 0.57619 0.72224 0.0
C755 C 0.93393 0.56203 0.7051 0.0
C756 C 0.95502 0.58639 0.73274 0.0
C757 C 0.96846 0.58268 0.72618 0.0
C758 C 0.96448 0.56872 0.70884 0.0
C759 C 0.94755 0.55858 0.69847 0.0
C760 C 0.9866 0.59274 0.73768 0.0
C761 C 0.99351 0.58321 0.75018 0.0
C762 C 0.99731 0.6113 0.73571 0.0
C763 C 0.9911 0.62217 0.72216 0.0
C764 C 0.98559 0.61887 0.69571 0.0
C765 C 0.97968 0.62915 0.68312 0.0
C766 C 0.97936 0.64285 0.6967 0.0
C767 C 0.98499 0.64634 0.72289 0.0
C768 C 0.9909 0.63609 0.73559 0.0
C769 C 0.06864 0.61929 0.76728 0.0
C770 C 0.07551 0.63343 0.78511 0.0
C771 C 0.05168 0.61253 0.75698 0.0
C772 C 0.04081 0.61921 0.76516 0.0
C773 C 0.04802 0.63401 0.78192 0.0
C774 C 0.06529 0.64114 0.79169 0.0
C775 C 0.02177 0.61005 0.75731 0.0
C776 C 0.01467 0.61972 0.74572 0.0
C777 C 0.01078 0.59156 0.76016 0.0
C778 C 0.01692 0.5806 0.77372 0.0
C779 C 0.02339 0.58452 0.79966 0.0
C780 C 0.02983 0.5746 0.81193 0.0
C781 C 0.02978 0.56065 0.79851 0.0
C782 C 0.02319 0.55653 0.77284 0.0
C783 C 0.01672 0.56641 0.76048 0.0
H784 H 0.03484 0.55303 0.808 0.0
H785 H 0.97478 0.65079 0.68692 0.0
H786 H 0.46123 0.06522 0.78859 0.0
H787 H 0.4424 0.03637 0.76931 0.0
H788 H 0.3993 0.04679 0.76599 0.0
H789 H 0.41832 0.07614 0.78553 0.0
H790 H 0.38998 0.01217 0.78646 0.0
H791 H 0.41754 0.04745 0.71051 0.0
H792 H 0.44234 0.06967 0.68404 0.0
H793 H 0.4673 0.03823 0.68686 0.0
H794 H 0.44278 0.01594 0.71368 0.0
H795 H 0.34603 0.9293 0.7133 0.0
H796 H 0.35657 0.95961 0.72869 0.0
H797 H 0.41001 0.96949 0.72826 0.0
H798 H 0.39974 0.93976 0.71256 0.0
H799 H 0.40925 0.99544 0.7049 0.0
H800 H 0.38485 0.963 0.78617 0.0
H801 H 0.36114 0.94099 0.81448 0.0
H802 H 0.33108 0.9669 0.80276 0.0
H803 H 0.35454 0.98894 0.77411 0.0
C804 C 0.44777 0.06151 0.78379 0.0
C805 C 0.44133 0.0731 0.78869 0.0
C806 C 0.437 0.04495 0.77265 0.0
C807 C 0.41944 0.03938 0.76606 0.0
C808 C 0.41283 0.05081 0.77091 0.0
C809 C 0.42374 0.06761 0.78191 0.0
C810 C 0.40838 0.02157 0.75414 0.0
C811 C 0.39391 0.00856 0.76828 0.0
C812 C 0.41364 0.01677 0.73065 0.0
C813 C 0.42833 0.03005 0.71422 0.0
C814 C 0.42836 0.04532 0.70562 0.0
C815 C 0.44237 0.05792 0.69053 0.0
C816 C 0.45639 0.05537 0.6838 0.0
C817 C 0.45642 0.04018 0.69208 0.0
C818 C 0.44245 0.02755 0.70719 0.0
C819 C 0.35999 0.93792 0.71676 0.0
C820 C 0.37202 0.93209 0.71144 0.0
C821 C 0.36602 0.95526 0.72557 0.0
C822 C 0.38416 0.96698 0.72958 0.0
C823 C 0.396 0.96089 0.72505 0.0
C824 C 0.39006 0.94378 0.71609 0.0
C825 C 0.39125 0.98576 0.73774 0.0
C826 C 0.40502 0.99902 0.72279 0.0
C827 C 0.3854 0.9907 0.76056 0.0
C828 C 0.37133 0.97747 0.77774 0.0
C829 C 0.37311 0.96391 0.78946 0.0
C830 C 0.35974 0.95145 0.8056 0.0
C831 C 0.34459 0.95251 0.81034 0.0
C832 C 0.3428 0.96607 0.79902 0.0
C833 C 0.35613 0.97855 0.78284 0.0
H834 H 0.33425 0.94285 0.82284 0.0
H835 H 0.46723 0.06515 0.67213 0.0
H836 H 0.40098 0.45775 0.81175 0.0
H837 H 0.41154 0.43933 0.79284 0.0
H838 H 0.36043 0.40545 0.75871 0.0
H839 H 0.34949 0.42404 0.77782 0.0
H840 H 0.37769 0.38713 0.78212 0.0
H841 H 0.38988 0.433 0.71961 0.0
H842 H 0.40077 0.46377 0.7061 0.0
H843 H 0.45287 0.47798 0.73206 0.0
H844 H 0.44222 0.4474 0.74625 0.0
H845 H 0.41966 0.34887 0.70381 0.0
H846 H 0.40109 0.36047 0.72049 0.0
H847 H 0.4478 0.40838 0.74425 0.0
H848 H 0.46616 0.39723 0.72651 0.0
H849 H 0.42826 0.41725 0.72068 0.0
H850 H 0.41655 0.37378 0.78841 0.0
H851 H 0.40655 0.34389 0.80549 0.0
H852 H 0.35511 0.32583 0.7728 0.0
H853 H 0.36487 0.35558 0.75526 0.0
C854 C 0.3918 0.44635 0.8004 0.0
C855 C 0.37432 0.44254 0.79623 0.0
C856 C 0.39794 0.43579 0.78956 0.0
C857 C 0.38687 0.42109 0.77413 0.0
C858 C 0.36922 0.41675 0.77055 0.0
C859 C 0.36301 0.42743 0.78141 0.0
C860 C 0.39434 0.41107 0.76087 0.0
C861 C 0.38853 0.39356 0.76828 0.0
C862 C 0.4087 0.41954 0.74319 0.0
C863 C 0.41522 0.4379 0.73412 0.0
C864 C 0.40364 0.44271 0.72259 0.0
C865 C 0.40976 0.46013 0.71482 0.0
C866 C 0.42749 0.47284 0.71827 0.0
C867 C 0.43913 0.46814 0.72944 0.0
C868 C 0.43306 0.45076 0.73733 0.0
C869 C 0.42588 0.36177 0.71295 0.0
C870 C 0.44437 0.37216 0.71377 0.0
C871 C 0.41526 0.36841 0.72254 0.0
C872 C 0.42294 0.38539 0.73376 0.0
C873 C 0.44142 0.39537 0.73547 0.0
C874 C 0.45196 0.38893 0.72543 0.0
C875 C 0.41215 0.3934 0.74267 0.0
C876 C 0.4173 0.41061 0.73429 0.0
C877 C 0.39737 0.38469 0.75971 0.0
C878 C 0.3915 0.36684 0.77027 0.0
C879 C 0.40315 0.3634 0.7847 0.0
C880 C 0.39752 0.34649 0.7945 0.0
C881 C 0.38022 0.33296 0.79016 0.0
C882 C 0.36851 0.33632 0.7761 0.0
C883 C 0.37408 0.3532 0.76624 0.0
H884 H 0.37589 0.31988 0.79776 0.0
H885 H 0.4322 0.48632 0.71224 0.0
H886 H 0.05989 0.42269 0.66694 0.0
H887 H 0.03047 0.40389 0.68545 0.0
H888 H 0.05119 0.42179 0.76363 0.0
H889 H 0.08088 0.43956 0.74508 0.0
H890 H 0.02676 0.39037 0.76834 0.0
H891 H 0.02922 0.43969 0.72333 0.0
H892 H 0.03425 0.45964 0.68591 0.0
H893 H 0.9946 0.41645 0.64099 0.0
H894 H 0.98949 0.3962 0.67805 0.0
H895 H 0.95071 0.38562 0.82769 0.0
H896 H 0.97918 0.39465 0.80715 0.0
H897 H 0.95295 0.36044 0.74121 0.0
H898 H 0.92417 0.351 0.76205 0.0
H899 H 0.9787 0.39693 0.72831 0.0
H900 H 0.97447 0.34882 0.77944 0.0
H901 H 0.96952 0.33149 0.82003 0.0
H902 H 0.01292 0.37604 0.85733 0.0
H903 H 0.01798 0.39373 0.81708 0.0
C904 C 0.05817 0.42225 0.68813 0.0
C905 C 0.0726 0.4325 0.70462 0.0
C906 C 0.0413 0.41168 0.69872 0.0
C907 C 0.03833 0.41178 0.72597 0.0
C908 C 0.05298 0.42146 0.74256 0.0
C909 C 0.06997 0.43161 0.73199 0.0
C910 C 0.01998 0.40252 0.737 0.0
C911 C 0.01634 0.39196 0.75962 0.0
C912 C 0.00611 0.40426 0.72561 0.0
C913 C 0.00912 0.41641 0.70334 0.0
C914 C 0.02166 0.43444 0.7054 0.0
C915 C 0.02451 0.4458 0.68427 0.0
C916 C 0.01479 0.43931 0.66106 0.0
C917 C 1.00215 0.42145 0.65896 0.0
C918 C 0.99926 0.41003 0.68003 0.0
C919 C 0.95095 0.37983 0.80894 0.0
C920 C 0.93514 0.3676 0.79647 0.0
C921 C 0.96727 0.38498 0.79727 0.0
C922 C 0.96823 0.3782 0.77269 0.0
C923 C 0.95251 0.36579 0.76025 0.0
C924 C 0.93609 0.36035 0.77221 0.0
C925 C 0.98566 0.385 0.75956 0.0
C926 C 0.98912 0.39518 0.73668 0.0
C927 C 0.99944 0.3833 0.77112 0.0
C928 C 0.99652 0.37264 0.79528 0.0
C929 C 0.98288 0.35496 0.79636 0.0
C930 C 0.98007 0.34507 0.8193 0.0
C931 C 0.99088 0.35267 0.84126 0.0
C932 C 1.00455 0.37017 0.8403 0.0
C933 C 0.00741 0.38013 0.81741 0.0
H934 H 0.98867 0.34498 0.85901 0.0
H935 H 0.01702 0.44812 0.64472 0.0
H936 H 0.43875 0.15429 0.24396 0.0
H937 H 0.43745 0.18008 0.25929 0.0
H938 H 0.47247 0.21107 0.19635 0.0
H939 H 0.47463 0.18558 0.18213 0.0
H940 H 0.48275 0.23 0.2356 0.0
H941 H 0.42506 0.19584 0.19965 0.0
H942 H 0.39575 0.16964 0.19293 0.0
H943 H 0.3833 0.17047 0.27459 0.0
H944 H 0.41264 0.19655 0.28187 0.0
H945 H 0.43756 0.28656 0.26317 0.0
H946 H 0.43569 0.25959 0.24569 0.0
H947 H 0.47645 0.2657 0.29958 0.0
H948 H 0.47886 0.29297 0.31621 0.0
H949 H 0.42763 0.22879 0.26182 0.0
H950 H 0.50193 0.25111 0.27443 0.0
H951 H 0.53072 0.27861 0.27405 0.0
H952 H 0.50903 0.3036 0.22638 0.0
H953 H 0.48018 0.2762 0.22618 0.0
C954 C 0.44601 0.16657 0.23324 0.0
C955 C 0.45676 0.16787 0.21178 0.0
C956 C 0.4452 0.18136 0.24194 0.0
C957 C 0.45468 0.19768 0.22889 0.0
C958 C 0.46507 0.19878 0.207 0.0
C959 C 0.46623 0.18413 0.19873 0.0
C960 C 0.4545 0.21379 0.23865 0.0
C961 C 0.47064 0.22964 0.24124 0.0
C962 C 0.43877 0.21371 0.24565 0.0
C963 C 0.42111 0.19805 0.24135 0.0
C964 C 0.41612 0.19036 0.21621 0.0
C965 C 0.39949 0.17555 0.21229 0.0
C966 C 0.38769 0.16837 0.23333 0.0
C967 C 0.39247 0.17603 0.25832 0.0
C968 C 0.40908 0.19084 0.26235 0.0
C969 C 0.44606 0.28209 0.27137 0.0
C970 C 0.45848 0.29203 0.29092 0.0
C971 C 0.44496 0.26663 0.26138 0.0
C972 C 0.45618 0.26067 0.27083 0.0
C973 C 0.46798 0.27017 0.2913 0.0
C974 C 0.46927 0.28575 0.30097 0.0
C975 C 0.45587 0.24483 0.25898 0.0
C976 C 0.4397 0.22908 0.25608 0.0
C977 C 0.4715 0.24515 0.2507 0.0
C978 C 0.48885 0.26165 0.25054 0.0
C979 C 0.50332 0.26246 0.2638 0.0
C980 C 0.51965 0.27803 0.26369 0.0
C981 C 0.52169 0.29286 0.25027 0.0
C982 C 0.50741 0.29213 0.23685 0.0
C983 C 0.49107 0.27659 0.23686 0.0
H984 H 0.53433 0.30491 0.25023 0.0
H985 H 0.37482 0.1569 0.23026 0.0
H986 H 0.15331 0.43085 0.2733 0.0
H987 H 0.17826 0.42783 0.25761 0.0
H988 H 0.21408 0.48209 0.27779 0.0
H989 H 0.18945 0.48516 0.29351 0.0
H990 H 0.22003 0.47388 0.22788 0.0
H991 H 0.21096 0.44896 0.31588 0.0
H992 H 0.19336 0.42787 0.35083 0.0
H993 H 0.18507 0.38472 0.30117 0.0
H994 H 0.20244 0.40556 0.26578 0.0
H995 H 0.30447 0.48468 0.22003 0.0
H996 H 0.27697 0.4827 0.23414 0.0
H997 H 0.25023 0.42613 0.22582 0.0
H998 H 0.27827 0.42807 0.21328 0.0
H999 H 0.2372 0.43254 0.26599 0.0
H1000 H 0.24677 0.45588 0.17895 0.0
H1001 H 0.26313 0.47576 0.14211 0.0
H1002 H 0.26846 0.51999 0.18617 0.0
H1003 H 0.25233 0.50041 0.22342 0.0
C1004 C 0.16652 0.44209 0.27451 0.0
C1005 C 0.16934 0.45824 0.2847 0.0
C1006 C 0.18079 0.44034 0.26558 0.0
C1007 C 0.19812 0.45473 0.26654 0.0
C1008 C 0.20088 0.4708 0.27676 0.0
C1009 C 0.18673 0.47251 0.28584 0.0
C1010 C 0.21348 0.45343 0.2565 0.0
C1011 C 0.22386 0.46494 0.23635 0.0
C1012 C 0.21815 0.44129 0.26676 0.0
C1013 C 0.20783 0.4288 0.2881 0.0
C1014 C 0.20526 0.43497 0.31234 0.0
C1015 C 0.19536 0.42306 0.33225 0.0
C1016 C 0.18806 0.40496 0.3282 0.0
C1017 C 0.19071 0.39874 0.30426 0.0
C1018 C 0.20059 0.41059 0.28429 0.0
C1019 C 0.29273 0.4718 0.22114 0.0
C1020 C 0.29354 0.45655 0.21525 0.0
C1021 C 0.2769 0.47067 0.22905 0.0
C1022 C 0.26119 0.4543 0.23034 0.0
C1023 C 0.26203 0.43896 0.22485 0.0
C1024 C 0.27806 0.44007 0.21759 0.0
C1025 C 0.2441 0.45335 0.23766 0.0
C1026 C 0.23334 0.4414 0.25724 0.0
C1027 C 0.23886 0.46488 0.22651 0.0
C1028 C 0.24844 0.47668 0.20405 0.0
C1029 C 0.25151 0.46986 0.18083 0.0
C1030 C 0.26074 0.48107 0.15987 0.0
C1031 C 0.26685 0.49913 0.16181 0.0
C1032 C 0.26371 0.506 0.1847 0.0
C1033 C 0.25451 0.49485 0.20572 0.0
H1034 H 0.274 0.50779 0.14557 0.0
H1035 H 0.18039 0.39577 0.34362 0.0
H1036 H 0.71968 0.15408 0.25678 0.0
H1037 H 0.74702 0.17946 0.24083 0.0
H1038 H 0.74465 0.21113 0.30411 0.0
H1039 H 0.71689 0.18612 0.31904 0.0
H1040 H 0.75291 0.22978 0.26429 0.0
H1041 H 0.77564 0.19478 0.30014 0.0
H1042 H 0.77815 0.16823 0.30654 0.0
H1043 H 0.79115 0.16904 0.22475 0.0
H1044 H 0.78849 0.19548 0.21779 0.0
H1045 H 0.85481 0.28565 0.23959 0.0
H1046 H 0.82933 0.25848 0.25586 0.0
H1047 H 0.79576 0.2653 0.2007 0.0
H1048 H 0.82098 0.29274 0.18521 0.0
H1049 H 0.80644 0.22773 0.23844 0.0
H1050 H 0.75552 0.25116 0.22505 0.0
H1051 H 0.75472 0.2789 0.22531 0.0
H1052 H 0.80092 0.3031 0.27416 0.0
H1053 H 0.80185 0.27545 0.27448 0.0
C1054 C 0.72511 0.16643 0.26741 0.0
C1055 C 0.71611 0.16808 0.28917 0.0
C1056 C 0.74084 0.18097 0.25835 0.0
C1057 C 0.74819 0.19736 0.27132 0.0
C1058 C 0.73934 0.19879 0.29351 0.0
C1059 C 0.72346 0.18441 0.30216 0.0
C1060 C 0.76457 0.21325 0.26129 0.0
C1061 C 0.76458 0.22923 0.2587 0.0
C1062 C 0.78008 0.21289 0.25429 0.0
C1063 C 0.7817 0.197 0.2584 0.0
C1064 C 0.77891 0.18922 0.28348 0.0
C1065 C 0.78038 0.1742 0.28721 0.0
C1066 C 0.78476 0.16693 0.26605 0.0
C1067 C 0.78773 0.17468 0.24112 0.0
C1068 C 0.78626 0.18969 0.23727 0.0
C1069 C 0.842 0.28129 0.23083 0.0
C1070 C 0.83991 0.29148 0.21128 0.0
C1071 C 0.82742 0.26571 0.24013 0.0
C1072 C 0.81043 0.25991 0.22997 0.0
C1073 C 0.80855 0.26965 0.20947 0.0
C1074 C 0.82305 0.28533 0.20048 0.0
C1075 C 0.79463 0.24409 0.24133 0.0
C1076 C 0.79473 0.22818 0.24408 0.0
C1077 C 0.77941 0.24464 0.24941 0.0
C1078 C 0.77885 0.26128 0.24954 0.0
C1079 C 0.76547 0.26238 0.23592 0.0
C1080 C 0.765 0.27809 0.23596 0.0
C1081 C 0.77779 0.29277 0.24967 0.0
C1082 C 0.79105 0.29174 0.26346 0.0
C1083 C 0.79157 0.27606 0.26352 0.0
H1084 H 0.77741 0.30492 0.24965 0.0
H1085 H 0.78589 0.1553 0.26898 0.0
H1086 H 0.5804 0.85441 0.22053 0.0
H1087 H 0.58299 0.8292 0.23622 0.0
H1088 H 0.52695 0.79519 0.22687 0.0
H1089 H 0.52431 0.82001 0.21075 0.0
H1090 H 0.54079 0.79269 0.27725 0.0
H1091 H 0.552 0.79222 0.18362 0.0
H1092 H 0.56813 0.80545 0.14235 0.0
H1093 H 0.6161 0.81343 0.17775 0.0
H1094 H 0.60028 0.80046 0.21937 0.0
H1095 H 0.52278 0.70592 0.29017 0.0
H1096 H 0.52584 0.73372 0.27539 0.0
H1097 H 0.58206 0.75571 0.26796 0.0
H1098 H 0.57887 0.72733 0.28159 0.0
H1099 H 0.57184 0.76702 0.22892 0.0
H1100 H 0.56179 0.76627 0.32102 0.0
H1101 H 0.54717 0.75437 0.36371 0.0
H1102 H 0.49957 0.75087 0.33437 0.0
H1103 H 0.51381 0.76253 0.29137 0.0
C1104 C 0.56867 0.84153 0.22166 0.0
C1105 C 0.55216 0.83925 0.21432 0.0
C1106 C 0.57017 0.82714 0.23061 0.0
C1107 C 0.55515 0.81028 0.23275 0.0
C1108 C 0.53871 0.80804 0.22544 0.0
C1109 C 0.53725 0.82228 0.21611 0.0
C1110 C 0.55626 0.79492 0.24306 0.0
C1111 C 0.54748 0.78699 0.26662 0.0
C1112 C 0.56554 0.78786 0.22973 0.0
C1113 C 0.57501 0.79557 0.2047 0.0
C1114 C 0.56602 0.79695 0.18268 0.0
C1115 C 0.5751 0.80436 0.15921 0.0
C1116 C 0.59314 0.81033 0.15746 0.0
C1117 C 0.60213 0.80884 0.17915 0.0
C1118 C 0.59312 0.80145 0.20268 0.0
C1119 C 0.53584 0.71667 0.28552 0.0
C1120 C 0.5506 0.71442 0.28734 0.0
C1121 C 0.5376 0.73269 0.27718 0.0
C1122 C 0.55426 0.74715 0.27114 0.0
C1123 C 0.56906 0.74488 0.27262 0.0
C1124 C 0.56724 0.72865 0.28052 0.0
C1125 C 0.55598 0.76442 0.26299 0.0
C1126 C 0.56531 0.77276 0.23985 0.0
C1127 C 0.54746 0.77209 0.277 0.0
C1128 C 0.53885 0.76517 0.3029 0.0
C1129 C 0.54817 0.76287 0.32361 0.0
C1130 C 0.53995 0.75617 0.34788 0.0
C1131 C 0.52244 0.75184 0.35173 0.0
C1132 C 0.51313 0.75423 0.33135 0.0
C1133 C 0.52127 0.7609 0.30704 0.0
H1134 H 0.5161 0.74665 0.37053 0.0
H1135 H 0.60015 0.81606 0.13927 0.0
H1136 H 0.72106 0.56858 0.24374 0.0
H1137 H 0.74832 0.57001 0.25861 0.0
H1138 H 0.74377 0.53465 0.19592 0.0
H1139 H 0.71594 0.53232 0.1823 0.0
H1140 H 0.75318 0.52481 0.23448 0.0
H1141 H 0.77586 0.58238 0.19856 0.0
H1142 H 0.77865 0.61155 0.19206 0.0
H1143 H 0.79265 0.62414 0.27347 0.0
H1144 H 0.78973 0.59495 0.28054 0.0
H1145 H 0.85547 0.57132 0.25978 0.0
H1146 H 0.82997 0.57281 0.24313 0.0
H1147 H 0.79608 0.53134 0.29673 0.0
H1148 H 0.82132 0.52927 0.31241 0.0
H1149 H 0.80705 0.58023 0.25976 0.0
H1150 H 0.75582 0.5057 0.27268 0.0
H1151 H 0.75494 0.47712 0.27169 0.0
H1152 H 0.80117 0.49949 0.22284 0.0
H1153 H 0.80219 0.52811 0.22324 0.0
C1154 C 0.72599 0.56125 0.23301 0.0
C1155 C 0.71635 0.55037 0.2118 0.0
C1156 C 0.74169 0.56214 0.24144 0.0
C1157 C 0.74848 0.55264 0.22828 0.0
C1158 C 0.73896 0.54208 0.20666 0.0
C1159 C 0.72304 0.54081 0.19873 0.0
C1160 C 0.76497 0.55301 0.23758 0.0
C1161 C 0.76492 0.53699 0.23992 0.0
C1162 C 0.78063 0.56884 0.24428 0.0
C1163 C 0.78242 0.58641 0.24012 0.0
C1164 C 0.77942 0.59132 0.21511 0.0
C1165 C 0.78104 0.60787 0.21132 0.0
C1166 C 0.78578 0.61967 0.23235 0.0
C1167 C 0.78895 0.61497 0.25721 0.0
C1168 C 0.78734 0.59844 0.26111 0.0
C1169 C 0.84258 0.56258 0.26807 0.0
C1170 C 0.84042 0.55005 0.28724 0.0
C1171 C 0.82797 0.56345 0.25856 0.0
C1172 C 0.81089 0.55193 0.26816 0.0
C1173 C 0.80893 0.54004 0.2883 0.0
C1174 C 0.82344 0.53894 0.29743 0.0
C1175 C 0.7951 0.55203 0.25684 0.0
C1176 C 0.79528 0.5681 0.25422 0.0
C1177 C 0.7798 0.53633 0.24879 0.0
C1178 C 0.77918 0.5191 0.24824 0.0
C1179 C 0.76576 0.5045 0.26166 0.0
C1180 C 0.76524 0.48829 0.2612 0.0
C1181 C 0.77803 0.48651 0.24729 0.0
C1182 C 0.79132 0.5009 0.2337 0.0
C1183 C 0.79188 0.51712 0.23405 0.0
H1184 H 0.77761 0.47396 0.24698 0.0
H1185 H 0.78703 0.63248 0.22938 0.0
H1186 H 0.15482 0.72817 0.22384 0.0
H1187 H 0.18021 0.75558 0.24015 0.0
H1188 H 0.21479 0.73561 0.22018 0.0
H1189 H 0.18974 0.70849 0.20371 0.0
H1190 H 0.21995 0.74915 0.27131 0.0
H1191 H 0.21417 0.76629 0.18257 0.0
H1192 H 0.19811 0.77088 0.14638 0.0
H1193 H 0.19048 0.80675 0.19467 0.0
H1194 H 0.2063 0.80218 0.23128 0.0
H1195 H 0.30555 0.82059 0.28362 0.0
H1196 H 0.27798 0.79585 0.26791 0.0
H1197 H 0.25286 0.82731 0.27437 0.0
H1198 H 0.28099 0.85259 0.28861 0.0
H1199 H 0.24052 0.80845 0.23335 0.0
H1200 H 0.24684 0.79333 0.32121 0.0
H1201 H 0.26163 0.78873 0.35919 0.0
H1202 H 0.2662 0.74901 0.3162 0.0
H1203 H 0.25164 0.75353 0.27783 0.0
C1204 C 0.16786 0.72969 0.22276 0.0
C1205 C 0.17021 0.7161 0.21242 0.0
C1206 C 0.18237 0.74538 0.23206 0.0
C1207 C 0.19946 0.74769 0.23141 0.0
C1208 C 0.20177 0.73416 0.22098 0.0
C1209 C 0.18739 0.71865 0.21145 0.0
C1210 C 0.21501 0.76391 0.24208 0.0
C1211 C 0.22454 0.76211 0.26289 0.0
C1212 C 0.22065 0.78093 0.23181 0.0
C1213 C 0.21124 0.78375 0.20975 0.0
C1214 C 0.20894 0.77504 0.18554 0.0
C1215 C 0.19991 0.77766 0.16494 0.0
C1216 C 0.19323 0.78906 0.16825 0.0
C1217 C 0.19563 0.7979 0.19215 0.0
C1218 C 0.20464 0.79531 0.21282 0.0
C1219 C 0.29416 0.82226 0.28174 0.0
C1220 C 0.29543 0.83852 0.28763 0.0
C1221 C 0.27828 0.80801 0.2729 0.0
C1222 C 0.263 0.80937 0.27062 0.0
C1223 C 0.26433 0.82575 0.27609 0.0
C1224 C 0.28041 0.84021 0.28432 0.0
C1225 C 0.24582 0.79371 0.26237 0.0
C1226 C 0.23592 0.79558 0.24206 0.0
C1227 C 0.23961 0.77673 0.27345 0.0
C1228 C 0.24825 0.77386 0.29658 0.0
C1229 C 0.25108 0.78368 0.31981 0.0
C1230 C 0.25942 0.78108 0.34141 0.0
C1231 C 0.26488 0.76861 0.34009 0.0
C1232 C 0.26197 0.75867 0.31719 0.0
C1233 C 0.25365 0.76123 0.29552 0.0
H1234 H 0.27134 0.76663 0.35683 0.0
H1235 H 0.18624 0.79107 0.15228 0.0
H1236 H 0.53189 0.71401 0.68717 0.0
H1237 H 0.534 0.74148 0.70201 0.0
H1238 H 0.57429 0.74874 0.75776 0.0
H1239 H 0.57274 0.72157 0.742 0.0
H1240 H 0.52652 0.75074 0.74423 0.0
H1241 H 0.60038 0.79173 0.774 0.0
H1242 H 0.62913 0.79572 0.75995 0.0
H1243 H 0.60879 0.77797 0.68208 0.0
H1244 H 0.58002 0.7741 0.69557 0.0
H1245 H 0.53459 0.82134 0.82005 0.0
H1246 H 0.5367 0.79605 0.80468 0.0
H1247 H 0.57237 0.82805 0.74306 0.0
H1248 H 0.5711 0.85368 0.75954 0.0
H1249 H 0.58241 0.80701 0.75747 0.0
H1250 H 0.52568 0.79758 0.73346 0.0
H1251 H 0.49659 0.79499 0.74023 0.0
H1252 H 0.48207 0.75183 0.79357 0.0
H1253 H 0.51116 0.7543 0.78737 0.0
C1254 C 0.54135 0.72155 0.7024 0.0
C1255 C 0.55219 0.71559 0.71333 0.0
C1256 C 0.5425 0.73728 0.711 0.0
C1257 C 0.55438 0.74743 0.731 0.0
C1258 C 0.56526 0.74148 0.74193 0.0
C1259 C 0.56432 0.72586 0.73299 0.0
C1260 C 0.55481 0.76379 0.74089 0.0
C1261 C 0.53879 0.76301 0.74707 0.0
C1262 C 0.57071 0.78006 0.74423 0.0
C1263 C 0.58799 0.78244 0.7359 0.0
C1264 C 0.60207 0.78873 0.75387 0.0
C1265 C 0.61836 0.79096 0.746 0.0
C1266 C 0.62076 0.78704 0.72017 0.0
C1267 C 0.6069 0.78094 0.70211 0.0
C1268 C 0.59059 0.7787 0.70987 0.0
C1269 C 0.54302 0.82302 0.80338 0.0
C1270 C 0.55259 0.8395 0.79092 0.0
C1271 C 0.54412 0.80848 0.79442 0.0
C1272 C 0.5543 0.80984 0.77213 0.0
C1273 C 0.56434 0.82649 0.76019 0.0
C1274 C 0.56359 0.84118 0.7696 0.0
C1275 C 0.55412 0.79387 0.76095 0.0
C1276 C 0.57016 0.79471 0.75461 0.0
C1277 C 0.53819 0.77782 0.75644 0.0
C1278 C 0.52065 0.77623 0.76013 0.0
C1279 C 0.51632 0.7876 0.74675 0.0
C1280 C 0.49983 0.78615 0.75048 0.0
C1281 C 0.48751 0.77328 0.76737 0.0
C1282 C 0.49164 0.7618 0.78052 0.0
C1283 C 0.50811 0.76321 0.77689 0.0
H1284 H 0.47475 0.77218 0.77023 0.0
H1285 H 0.63338 0.78877 0.71412 0.0
H1286 H 0.71327 0.52781 0.81512 0.0
H1287 H 0.74086 0.52991 0.80074 0.0
H1288 H 0.75169 0.5745 0.75181 0.0
H1289 H 0.72439 0.57286 0.7671 0.0
H1290 H 0.75123 0.525 0.75744 0.0
H1291 H 0.79542 0.60047 0.73999 0.0
H1292 H 0.80001 0.62836 0.75903 0.0
H1293 H 0.77893 0.6025 0.83299 0.0
H1294 H 0.77444 0.57453 0.81452 0.0
H1295 H 0.82258 0.53511 0.68203 0.0
H1296 H 0.79767 0.53765 0.6981 0.0
H1297 H 0.82894 0.56851 0.76411 0.0
H1298 H 0.85432 0.56698 0.74687 0.0
H1299 H 0.80894 0.5803 0.75268 0.0
H1300 H 0.79675 0.52145 0.76684 0.0
H1301 H 0.79328 0.49257 0.7551 0.0
H1302 H 0.75205 0.48351 0.70071 0.0
H1303 H 0.75543 0.51244 0.71189 0.0
C1304 C 0.72162 0.53821 0.80152 0.0
C1305 C 0.71661 0.55021 0.79235 0.0
C1306 C 0.73742 0.53936 0.79318 0.0
C1307 C 0.74861 0.55243 0.77521 0.0
C1308 C 0.74362 0.56449 0.76608 0.0
C1309 C 0.72791 0.56351 0.77476 0.0
C1310 C 0.76501 0.55289 0.76533 0.0
C1311 C 0.76382 0.53714 0.75647 0.0
C1312 C 0.78168 0.56857 0.76445 0.0
C1313 C 0.78441 0.58536 0.77575 0.0
C1314 C 0.79181 0.60075 0.76034 0.0
C1315 C 0.79439 0.61657 0.77103 0.0
C1316 C 0.78971 0.61719 0.79717 0.0
C1317 C 0.78249 0.60199 0.81271 0.0
C1318 C 0.7799 0.58615 0.80213 0.0
C1319 C 0.82421 0.54264 0.69979 0.0
C1320 C 0.84039 0.55077 0.71325 0.0
C1321 C 0.80986 0.54395 0.70916 0.0
C1322 C 0.81106 0.55279 0.73292 0.0
C1323 C 0.82749 0.56151 0.74585 0.0
C1324 C 0.84204 0.56063 0.736 0.0
C1325 C 0.79509 0.55244 0.74454 0.0
C1326 C 0.79634 0.56819 0.75368 0.0
C1327 C 0.77859 0.53662 0.7467 0.0
C1328 C 0.77645 0.51917 0.74003 0.0
C1329 C 0.78701 0.51333 0.75227 0.0
C1330 C 0.78506 0.49695 0.74573 0.0
C1331 C 0.77248 0.48623 0.72713 0.0
C1332 C 0.7618 0.49184 0.71509 0.0
C1333 C 0.76372 0.50822 0.72154 0.0
H1334 H 0.77099 0.47356 0.72208 0.0
H1335 H 0.79171 0.62944 0.80541 0.0
H1336 H 0.30403 0.81864 0.71936 0.0
H1337 H 0.27664 0.79351 0.7347 0.0
H1338 H 0.25131 0.8249 0.73222 0.0
H1339 H 0.27928 0.85057 0.71832 0.0
H1340 H 0.23944 0.80528 0.77251 0.0
H1341 H 0.24468 0.79173 0.68348 0.0
H1342 H 0.25892 0.78789 0.64409 0.0
H1343 H 0.26436 0.74758 0.68369 0.0
H1344 H 0.25036 0.75133 0.72344 0.0
H1345 H 0.154 0.72465 0.78103 0.0
H1346 H 0.17931 0.7524 0.76552 0.0
H1347 H 0.21402 0.73217 0.78287 0.0
H1348 H 0.189 0.70467 0.79862 0.0
H1349 H 0.21878 0.74664 0.73208 0.0
H1350 H 0.2137 0.76227 0.82216 0.0
H1351 H 0.19792 0.76622 0.85943 0.0
H1352 H 0.18976 0.80275 0.81374 0.0
H1353 H 0.20528 0.79883 0.77606 0.0
C1354 C 0.29263 0.82022 0.72199 0.0
C1355 C 0.29381 0.83659 0.71734 0.0
C1356 C 0.27684 0.80574 0.73062 0.0
C1357 C 0.26155 0.80697 0.73398 0.0
C1358 C 0.26278 0.82343 0.72968 0.0
C1359 C 0.27877 0.83812 0.72163 0.0
C1360 C 0.2445 0.79111 0.74224 0.0
C1361 C 0.23482 0.79256 0.76328 0.0
C1362 C 0.23826 0.77431 0.73046 0.0
C1363 C 0.24658 0.77191 0.70652 0.0
C1364 C 0.249 0.78211 0.68384 0.0
C1365 C 0.25702 0.77994 0.66144 0.0
C1366 C 0.26257 0.76752 0.66141 0.0
C1367 C 0.26006 0.7572 0.68375 0.0
C1368 C 0.25206 0.75933 0.70621 0.0
C1369 C 0.16705 0.72619 0.78177 0.0
C1370 C 0.16943 0.7124 0.79113 0.0
C1371 C 0.18151 0.74208 0.77291 0.0
C1372 C 0.19862 0.74442 0.773 0.0
C1373 C 0.20099 0.73071 0.78253 0.0
C1374 C 0.18663 0.71498 0.79165 0.0
C1375 C 0.21408 0.76084 0.76255 0.0
C1376 C 0.2234 0.75945 0.74106 0.0
C1377 C 0.21972 0.77769 0.77351 0.0
C1378 C 0.21048 0.78011 0.7962 0.0
C1379 C 0.20841 0.77103 0.81998 0.0
C1380 C 0.19954 0.77329 0.8412 0.0
C1381 C 0.1928 0.78469 0.83893 0.0
C1382 C 0.19496 0.7939 0.81546 0.0
C1383 C 0.2038 0.79168 0.79418 0.0
H1384 H 0.18593 0.78642 0.85537 0.0
H1385 H 0.26878 0.76587 0.64405 0.0
H1386 H 0.43092 0.27901 0.71534 0.0
H1387 H 0.42806 0.25095 0.72958 0.0
H1388 H 0.48476 0.27505 0.73061 0.0
H1389 H 0.48753 0.30257 0.7148 0.0
H1390 H 0.47363 0.24518 0.71259 0.0
H1391 H 0.4557 0.26495 0.78892 0.0
H1392 H 0.438 0.27472 0.81399 0.0
H1393 H 0.3909 0.22595 0.79645 0.0
H1394 H 0.40831 0.21597 0.77101 0.0
H1395 H 0.48425 0.18756 0.79841 0.0
H1396 H 0.48218 0.21265 0.782 0.0
H1397 H 0.4278 0.17801 0.7611 0.0
H1398 H 0.42982 0.15261 0.77727 0.0
H1399 H 0.43514 0.21084 0.7872 0.0
H1400 H 0.45561 0.19103 0.71368 0.0
H1401 H 0.47514 0.18214 0.69198 0.0
H1402 H 0.51998 0.2329 0.70844 0.0
H1403 H 0.50075 0.24201 0.73059 0.0
C1404 C 0.44274 0.27825 0.71854 0.0
C1405 C 0.45945 0.29303 0.71389 0.0
C1406 C 0.44112 0.26221 0.72694 0.0
C1407 C 0.4562 0.26074 0.73175 0.0
C1408 C 0.47286 0.27559 0.72704 0.0
C1409 C 0.47445 0.29142 0.71802 0.0
C1410 C 0.45486 0.24387 0.74134 0.0
C1411 C 0.46532 0.23787 0.72912 0.0
C1412 C 0.44376 0.23384 0.76255 0.0
C1413 C 0.43328 0.23981 0.77783 0.0
C1414 C 0.44155 0.25636 0.79026 0.0
C1415 C 0.43158 0.26193 0.80456 0.0
C1416 C 0.41333 0.25099 0.80674 0.0
C1417 C 0.40503 0.23443 0.7947 0.0
C1418 C 0.41495 0.22881 0.78036 0.0
C1419 C 0.47177 0.18521 0.7905 0.0
C1420 C 0.4572 0.168 0.78912 0.0
C1421 C 0.47064 0.19962 0.78105 0.0
C1422 C 0.45487 0.19725 0.77013 0.0
C1423 C 0.4401 0.18017 0.76943 0.0
C1424 C 0.44129 0.16566 0.77862 0.0
C1425 C 0.45417 0.21261 0.75879 0.0
C1426 C 0.44333 0.21822 0.77062 0.0
C1427 C 0.4652 0.22253 0.7376 0.0
C1428 C 0.47675 0.21715 0.72397 0.0
C1429 C 0.46965 0.20026 0.71283 0.0
C1430 C 0.48066 0.19518 0.70043 0.0
C1431 C 0.49879 0.20693 0.69888 0.0
C1432 C 0.50594 0.2238 0.70966 0.0
C1433 C 0.49498 0.22894 0.72212 0.0
H1434 H 0.5073 0.20298 0.68928 0.0
H1435 H 0.40563 0.25532 0.81781 0.0
H1436 H 0.15517 0.42912 0.72241 0.0
H1437 H 0.18084 0.4271 0.73648 0.0
H1438 H 0.21419 0.48302 0.72403 0.0
H1439 H 0.18874 0.4849 0.70889 0.0
H1440 H 0.23087 0.46834 0.70729 0.0
H1441 H 0.19956 0.46223 0.78782 0.0
H1442 H 0.17413 0.44935 0.81813 0.0
H1443 H 0.17217 0.39946 0.81438 0.0
H1444 H 0.19747 0.412 0.78377 0.0
H1445 H 0.30355 0.48621 0.78878 0.0
H1446 H 0.27593 0.48323 0.77275 0.0
H1447 H 0.25386 0.42708 0.76572 0.0
H1448 H 0.28181 0.42999 0.78142 0.0
H1449 H 0.23095 0.43912 0.79097 0.0
H1450 H 0.26489 0.4477 0.71216 0.0
H1451 H 0.29148 0.46264 0.68432 0.0
H1452 H 0.28945 0.51053 0.68784 0.0
H1453 H 0.26299 0.49594 0.71604 0.0
C1454 C 0.16799 0.44097 0.72264 0.0
C1455 C 0.16986 0.45718 0.71454 0.0
C1456 C 0.18269 0.43984 0.73089 0.0
C1457 C 0.19958 0.45495 0.73182 0.0
C1458 C 0.20142 0.47111 0.72354 0.0
C1459 C 0.18679 0.47219 0.71492 0.0
C1460 C 0.21539 0.45406 0.74111 0.0
C1461 C 0.23084 0.46207 0.72574 0.0
C1462 C 0.21549 0.44558 0.76492 0.0
C1463 C 0.20027 0.438 0.78327 0.0
C1464 C 0.19362 0.44848 0.7933 0.0
C1465 C 0.17924 0.44125 0.81056 0.0
C1466 C 0.17151 0.42358 0.81811 0.0
C1467 C 0.17816 0.41313 0.80847 0.0
C1468 C 0.19252 0.4203 0.79118 0.0
C1469 C 0.29284 0.47317 0.78395 0.0
C1470 C 0.29495 0.45833 0.78638 0.0
C1471 C 0.27704 0.47152 0.7747 0.0
C1472 C 0.26282 0.45496 0.7679 0.0
C1473 C 0.26466 0.44 0.77085 0.0
C1474 C 0.28065 0.44168 0.77975 0.0
C1475 C 0.24628 0.45358 0.7573 0.0
C1476 C 0.2308 0.4452 0.77243 0.0
C1477 C 0.24621 0.46199 0.73352 0.0
C1478 C 0.26204 0.47076 0.7164 0.0
C1479 C 0.2702 0.46145 0.70718 0.0
C1480 C 0.28523 0.46985 0.6913 0.0
C1481 C 0.29217 0.48753 0.68436 0.0
C1482 C 0.28407 0.49684 0.69324 0.0
C1483 C 0.26904 0.48851 0.70915 0.0
H1484 H 0.30381 0.49401 0.67207 0.0
H1485 H 0.16038 0.41801 0.83148 0.0
H1486 H 0.85317 0.27843 0.78809 0.0
H1487 H 0.82769 0.2507 0.77356 0.0
H1488 H 0.79487 0.27438 0.77908 0.0
H1489 H 0.82001 0.30165 0.795 0.0
H1490 H 0.77672 0.24367 0.79569 0.0
H1491 H 0.81232 0.26671 0.71785 0.0
H1492 H 0.83917 0.27799 0.69065 0.0
H1493 H 0.83897 0.22927 0.70096 0.0
H1494 H 0.81223 0.21778 0.72849 0.0
H1495 H 0.7073 0.18822 0.7091 0.0
H1496 H 0.73453 0.21303 0.72606 0.0
H1497 H 0.75491 0.17829 0.74214 0.0
H1498 H 0.72739 0.15317 0.72555 0.0
H1499 H 0.77963 0.21237 0.71608 0.0
H1500 H 0.74144 0.18938 0.79181 0.0
H1501 H 0.71354 0.17912 0.81596 0.0
H1502 H 0.71784 0.22975 0.80574 0.0
H1503 H 0.74564 0.24023 0.78118 0.0
C1504 C 0.84049 0.27766 0.78631 0.0
C1505 C 0.83864 0.29227 0.79272 0.0
C1506 C 0.8259 0.26181 0.77775 0.0
C1507 C 0.80924 0.26036 0.77463 0.0
C1508 C 0.80745 0.27497 0.78128 0.0
C1509 C 0.8219 0.29064 0.79037 0.0
C1510 C 0.7936 0.24374 0.76467 0.0
C1511 C 0.77744 0.23702 0.77811 0.0
C1512 C 0.79433 0.2346 0.74199 0.0
C1513 C 0.8104 0.24147 0.72547 0.0
C1514 C 0.81808 0.25846 0.71447 0.0
C1515 C 0.83326 0.26487 0.69897 0.0
C1516 C 0.8408 0.25437 0.69415 0.0
C1517 C 0.83314 0.2374 0.70476 0.0
C1518 C 0.81796 0.23093 0.72029 0.0
C1519 C 0.71758 0.18581 0.71609 0.0
C1520 C 0.71512 0.16866 0.71599 0.0
C1521 C 0.73315 0.20004 0.72585 0.0
C1522 C 0.74676 0.19754 0.7355 0.0
C1523 C 0.74459 0.18053 0.73479 0.0
C1524 C 0.72885 0.16619 0.72537 0.0
C1525 C 0.76295 0.21271 0.74689 0.0
C1526 C 0.77911 0.21908 0.73374 0.0
C1527 C 0.76217 0.22176 0.76948 0.0
C1528 C 0.74554 0.21553 0.78447 0.0
C1529 C 0.73636 0.19828 0.79453 0.0
C1530 C 0.72058 0.19244 0.80833 0.0
C1531 C 0.7139 0.20377 0.81233 0.0
C1532 C 0.72302 0.22099 0.80261 0.0
C1533 C 0.7388 0.22689 0.78877 0.0
H1534 H 0.70168 0.19922 0.82301 0.0
H1535 H 0.85256 0.25936 0.68215 0.0
H1536 H 0.45373 0.14753 0.11619 0.0
H1537 H 0.4479 0.15023 0.06935 0.0
H1538 H 0.43806 0.09755 0.05523 0.0
H1539 H 0.44402 0.09494 0.1014 0.0
H1540 H 0.46508 0.12243 0.02537 0.0
H1541 H 0.40554 0.10678 0.04962 0.0
H1542 H 0.38316 0.11066 0.07338 0.0
H1543 H 0.40282 0.16158 0.03787 0.0
H1544 H 0.4255 0.1581 0.01416 0.0
H1545 H 0.43863 0.0955 0.9004 0.0
H1546 H 0.43289 0.09813 0.94675 0.0
H1547 H 0.45135 0.15344 0.93578 0.0
H1548 H 0.4569 0.15074 0.88882 0.0
H1549 H 0.42173 0.13299 0.97782 0.0
H1550 H 0.48097 0.14841 0.95305 0.0
H1551 H 0.5028 0.14404 0.92855 0.0
H1552 H 0.48387 0.09381 0.96601 0.0
H1553 H 0.46169 0.09774 0.99037 0.0
C1554 C 0.44968 0.13635 0.10321 0.0
C1555 C 0.44941 0.12106 0.11232 0.0
C1556 C 0.44643 0.13792 0.07645 0.0
C1557 C 0.44275 0.12415 0.0587 0.0
C1558 C 0.44103 0.10839 0.06845 0.0
C1559 C 0.44437 0.10689 0.09489 0.0
C1560 C 0.44297 0.1266 0.02963 0.0
C1561 C 0.45555 0.1247 0.01508 0.0
C1562 C 0.43097 0.1302 0.01613 0.0
C1563 C 0.41736 0.13228 0.03039 0.0
C1564 C 0.40522 0.11889 0.04709 0.0
C1565 C 0.39244 0.12099 0.0605 0.0
C1566 C 0.39161 0.13638 0.05721 0.0
C1567 C 0.40351 0.14968 0.04044 0.0
C1568 C 0.41632 0.14764 0.027 0.0
C1569 C 0.44074 0.10805 0.90758 0.0
C1570 C 0.44819 0.12291 0.8911 0.0
C1571 C 0.43746 0.10955 0.93408 0.0
C1572 C 0.44186 0.12601 0.94478 0.0
C1573 C 0.44776 0.1406 0.92786 0.0
C1574 C 0.4509 0.13905 0.90106 0.0
C1575 C 0.44346 0.12821 0.97388 0.0
C1576 C 0.4314 0.13103 0.98831 0.0
C1577 C 0.45602 0.12557 0.98754 0.0
C1578 C 0.46959 0.12332 0.97336 0.0
C1579 C 0.48138 0.13638 0.95591 0.0
C1580 C 0.49382 0.13398 0.94207 0.0
C1581 C 0.4947 0.11864 0.94568 0.0
C1582 C 0.48317 0.10568 0.96321 0.0
C1583 C 0.47067 0.10799 0.97706 0.0
H1584 H 0.50434 0.11681 0.93494 0.0
H1585 H 0.38171 0.13798 0.0676 0.0
H1586 H 0.31757 0.43202 0.88515 0.0
H1587 H 0.30884 0.42441 0.93173 0.0
H1588 H 0.33325 0.47967 0.95065 0.0
H1589 H 0.34194 0.48722 0.90479 0.0
H1590 H 0.34729 0.46139 0.97764 0.0
H1591 H 0.2908 0.45565 0.95504 0.0
H1592 H 0.26245 0.44255 0.93137 0.0
H1593 H 0.24776 0.39178 0.96384 0.0
H1594 H 0.27616 0.40455 0.98743 0.0
H1595 H 0.33558 0.48161 0.10157 0.0
H1596 H 0.32726 0.47542 0.05528 0.0
H1597 H 0.31013 0.42053 0.06794 0.0
H1598 H 0.31833 0.42673 0.11487 0.0
H1599 H 0.29012 0.43135 0.0252 0.0
H1600 H 0.34641 0.43763 0.04953 0.0
H1601 H 0.37444 0.45148 0.07413 0.0
H1602 H 0.38948 0.50123 0.03758 0.0
H1603 H 0.36137 0.48773 0.01312 0.0
C1604 C 0.32049 0.44244 0.89916 0.0
C1605 C 0.33055 0.46021 0.89147 0.0
C1606 C 0.31557 0.4381 0.92574 0.0
C1607 C 0.32059 0.4515 0.9447 0.0
C1608 C 0.32936 0.46913 0.93644 0.0
C1609 C 0.33429 0.47342 0.91019 0.0
C1610 C 0.31904 0.44778 0.97347 0.0
C1611 C 0.33476 0.45473 0.98794 0.0
C1612 C 0.30271 0.43865 0.98692 0.0
C1613 C 0.2857 0.431 0.97269 0.0
C1614 C 0.28161 0.44165 0.95689 0.0
C1615 C 0.26551 0.4343 0.94355 0.0
C1616 C 0.25334 0.41633 0.94601 0.0
C1617 C 0.25722 0.40569 0.9619 0.0
C1618 C 0.27331 0.41298 0.97526 0.0
C1619 C 0.32936 0.46809 0.09475 0.0
C1620 C 0.32758 0.45464 0.11171 0.0
C1621 C 0.3246 0.46456 0.0683 0.0
C1622 C 0.31819 0.44755 0.05813 0.0
C1623 C 0.31491 0.43372 0.07547 0.0
C1624 C 0.31958 0.43726 0.10223 0.0
C1625 C 0.31839 0.44545 0.02911 0.0
C1626 C 0.30258 0.43753 0.0147 0.0
C1627 C 0.33465 0.45361 0.01545 0.0
C1628 C 0.35174 0.46169 0.02965 0.0
C1629 C 0.35564 0.45155 0.04689 0.0
C1630 C 0.37154 0.45933 0.06079 0.0
C1631 C 0.38372 0.47723 0.05746 0.0
C1632 C 0.38003 0.48737 0.04015 0.0
C1633 C 0.36413 0.47965 0.02625 0.0
H1634 H 0.39602 0.48323 0.06825 0.0
H1635 H 0.24088 0.41066 0.93568 0.0
H1636 H 0.90958 0.34723 0.90756 0.0
H1637 H 0.9065 0.33573 0.95204 0.0
H1638 H 0.85406 0.29368 0.9337 0.0
H1639 H 0.85721 0.30533 0.88851 0.0
H1640 H 0.85458 0.31153 0.97787 0.0
H1641 H 0.88555 0.28337 0.94991 0.0
H1642 H 0.90832 0.27983 0.92676 0.0
H1643 H 0.94858 0.32093 0.97391 0.0
H1644 H 0.9261 0.32492 0.99709 0.0
H1645 H 0.85969 0.30542 0.11813 0.0
H1646 H 0.85602 0.29378 0.07293 0.0
H1647 H 0.90707 0.33738 0.05211 0.0
H1648 H 0.91065 0.34897 0.09672 0.0
H1649 H 0.90072 0.30671 0.0276 0.0
H1650 H 0.87029 0.34011 0.04337 0.0
H1651 H 0.84808 0.34504 0.06561 0.0
H1652 H 0.80705 0.29407 0.04045 0.0
H1653 H 0.82909 0.28877 0.01832 0.0
C1654 C 0.89756 0.33524 0.91274 0.0
C1655 C 0.88364 0.32715 0.8946 0.0
C1656 C 0.89583 0.32861 0.9382 0.0
C1657 C 0.8801 0.31373 0.94628 0.0
C1658 C 0.86637 0.30511 0.92785 0.0
C1659 C 0.86821 0.31167 0.90204 0.0
C1660 C 0.87767 0.30887 0.97475 0.0
C1661 C 0.86432 0.30984 0.98867 0.0
C1662 C 0.89044 0.30683 0.98898 0.0
C1663 C 0.90409 0.30445 0.97525 0.0
C1664 C 0.89926 0.29172 0.95527 0.0
C1665 C 0.91213 0.28963 0.94214 0.0
C1666 C 0.92989 0.30015 0.94886 0.0
C1667 C 0.93481 0.31277 0.96875 0.0
C1668 C 0.92201 0.31492 0.98194 0.0
C1669 C 0.87031 0.31215 0.10405 0.0
C1670 C 0.88543 0.32813 0.11083 0.0
C1671 C 0.86817 0.30558 0.07823 0.0
C1672 C 0.88121 0.31481 0.05903 0.0
C1673 C 0.89684 0.33 0.06651 0.0
C1674 C 0.89886 0.33665 0.09202 0.0
C1675 C 0.87816 0.3102 0.03053 0.0
C1676 C 0.89055 0.30758 0.01668 0.0
C1677 C 0.86453 0.31075 0.01633 0.0
C1678 C 0.85133 0.31395 0.02954 0.0
C1679 C 0.85655 0.32991 0.04277 0.0
C1680 C 0.84399 0.33278 0.05532 0.0
C1681 C 0.82617 0.31985 0.05453 0.0
C1682 C 0.82086 0.30405 0.04111 0.0
C1683 C 0.83337 0.3011 0.02857 0.0
H1684 H 0.81647 0.32209 0.06424 0.0
H1685 H 0.93983 0.29851 0.93866 0.0
H1686 H 0.52736 0.85849 0.09662 0.0
H1687 H 0.53621 0.85621 0.0519 0.0
H1688 H 0.59068 0.8913 0.07219 0.0
H1689 H 0.58174 0.89335 0.11762 0.0
H1690 H 0.57949 0.90199 0.02765 0.0
H1691 H 0.57983 0.85088 0.05526 0.0
H1692 H 0.56943 0.82255 0.07811 0.0
H1693 H 0.52295 0.79865 0.02989 0.0
H1694 H 0.5329 0.82689 0.00703 0.0
H1695 H 0.5826 0.89375 0.88727 0.0
H1696 H 0.59103 0.89149 0.93288 0.0
H1697 H 0.53637 0.85608 0.95188 0.0
H1698 H 0.52803 0.85849 0.9069 0.0
H1699 H 0.55824 0.84656 0.97708 0.0
H1700 H 0.5542 0.89963 0.96132 0.0
H1701 H 0.5633 0.92803 0.93938 0.0
H1702 H 0.61643 0.948 0.96624 0.0
H1703 H 0.60766 0.91959 0.98807 0.0
C1704 C 0.54127 0.86533 0.09176 0.0
C1705 C 0.55388 0.876 0.11054 0.0
C1706 C 0.54634 0.86399 0.0662 0.0
C1707 C 0.56413 0.87349 0.05867 0.0
C1708 C 0.57689 0.88376 0.07764 0.0
C1709 C 0.57181 0.88483 0.10356 0.0
C1710 C 0.56868 0.87391 0.03031 0.0
C1711 C 0.57543 0.88994 0.01666 0.0
C1712 C 0.5632 0.85819 0.01588 0.0
C1713 C 0.55712 0.84107 0.02944 0.0
C1714 C 0.56733 0.83962 0.04962 0.0
C1715 C 0.56152 0.82356 0.06258 0.0
C1716 C 0.54554 0.80881 0.05546 0.0
C1717 C 0.53534 0.81008 0.03536 0.0
C1718 C 0.54108 0.82611 0.02236 0.0
C1719 C 0.57253 0.8851 0.90106 0.0
C1720 C 0.55468 0.87629 0.89369 0.0
C1721 C 0.57732 0.88389 0.9271 0.0
C1722 C 0.56431 0.8737 0.94588 0.0
C1723 C 0.54665 0.86396 0.93781 0.0
C1724 C 0.54189 0.86538 0.91211 0.0
C1725 C 0.56833 0.8745 0.97452 0.0
C1726 C 0.56305 0.85868 0.98817 0.0
C1727 C 0.57511 0.8904 0.98898 0.0
C1728 C 0.58035 0.90745 0.97598 0.0
C1729 C 0.56785 0.91004 0.96236 0.0
C1730 C 0.57294 0.92613 0.94998 0.0
C1731 C 0.59045 0.93979 0.95133 0.0
C1732 C 0.60289 0.93739 0.96514 0.0
C1733 C 0.59787 0.9213 0.97751 0.0
H1734 H 0.59437 0.95225 0.94174 0.0
H1735 H 0.54106 0.79639 0.06552 0.0
H1736 H 0.66472 0.52446 0.0945 0.0
H1737 H 0.67654 0.53244 0.05017 0.0
H1738 H 0.70822 0.58677 0.07392 0.0
H1739 H 0.69628 0.57868 0.11912 0.0
H1740 H 0.68831 0.58213 0.02789 0.0
H1741 H 0.72958 0.56605 0.05637 0.0
H1742 H 0.74022 0.54839 0.0794 0.0
H1743 H 0.70789 0.50404 0.02988 0.0
H1744 H 0.69684 0.52132 0.00681 0.0
H1745 H 0.69695 0.57941 0.88626 0.0
H1746 H 0.70843 0.58722 0.93168 0.0
H1747 H 0.67764 0.53252 0.95413 0.0
H1748 H 0.66631 0.52482 0.90951 0.0
H1749 H 0.70973 0.54802 0.97752 0.0
H1750 H 0.66203 0.56141 0.96199 0.0
H1751 H 0.64961 0.57788 0.93995 0.0
H1752 H 0.69377 0.62676 0.96571 0.0
H1753 H 0.70652 0.61054 0.98766 0.0
C1754 C 0.67442 0.53809 0.0905 0.0
C1755 C 0.67954 0.55095 0.11029 0.0
C1756 C 0.68126 0.54263 0.06511 0.0
C1757 C 0.6934 0.56018 0.05868 0.0
C1758 C 0.69894 0.57311 0.0785 0.0
C1759 C 0.69221 0.56849 0.10429 0.0
C1760 C 0.69883 0.56463 0.03062 0.0
C1761 C 0.69359 0.57517 0.01694 0.0
C1762 C 0.70564 0.5555 0.01624 0.0
C1763 C 0.71239 0.54503 0.02982 0.0
C1764 C 0.72468 0.55251 0.05045 0.0
C1765 C 0.73078 0.54256 0.06352 0.0
C1766 C 0.72474 0.52511 0.0561 0.0
C1767 C 0.71259 0.51758 0.03557 0.0
C1768 C 0.70643 0.52746 0.02244 0.0
C1769 C 0.69301 0.56909 0.90084 0.0
C1770 C 0.68064 0.55154 0.89445 0.0
C1771 C 0.69948 0.57355 0.92677 0.0
C1772 C 0.6938 0.56046 0.94642 0.0
C1773 C 0.68228 0.54286 0.93943 0.0
C1774 C 0.67573 0.53848 0.91388 0.0
C1775 C 0.69824 0.56465 0.97483 0.0
C1776 C 0.70526 0.55566 0.98855 0.0
C1777 C 0.69302 0.57513 0.98923 0.0
C1778 C 0.68532 0.58481 0.97613 0.0
C1779 C 0.66913 0.57568 0.96278 0.0
C1780 C 0.66203 0.58496 0.95034 0.0
C1781 C 0.67093 0.60336 0.95135 0.0
C1782 C 0.68692 0.61251 0.96488 0.0
C1783 C 0.69409 0.60329 0.97732 0.0
H1784 H 0.66541 0.61052 0.94171 0.0
H1785 H 0.72947 0.51742 0.06626 0.0
H1786 H 0.12311 0.64869 0.91388 0.0
H1787 H 0.12477 0.66029 0.95758 0.0
H1788 H 0.13375 0.70946 0.92478 0.0
H1789 H 0.13205 0.69778 0.87987 0.0
H1790 H 0.1562 0.7119 0.97078 0.0
H1791 H 0.09557 0.6863 0.94814 0.0
H1792 H 0.06746 0.66372 0.92868 0.0
H1793 H 0.06538 0.62524 0.98315 0.0
H1794 H 0.09359 0.64751 0.00269 0.0
H1795 H 0.11279 0.68947 0.11452 0.0
H1796 H 0.11338 0.69918 0.06877 0.0
H1797 H 0.15414 0.68697 0.05011 0.0
H1798 H 0.1533 0.67707 0.09531 0.0
H1799 H 0.10431 0.67627 0.02804 0.0
H1800 H 0.17926 0.71178 1.00004 0.0
H1801 H 0.20757 0.73406 0.01932 0.0
H1802 H 0.18075 0.75398 0.06664 0.0
H1803 H 0.15231 0.73203 0.04735 0.0
C1804 C 0.12542 0.662 0.91557 0.0
C1805 C 0.1272 0.67219 0.89306 0.0
C1806 C 0.12638 0.66861 0.94079 0.0
C1807 C 0.12911 0.68561 0.9445 0.0
C1808 C 0.13152 0.69623 0.92231 0.0
C1809 C 0.13052 0.68953 0.8967 0.0
C1810 C 0.12894 0.69154 0.97191 0.0
C1811 C 0.1448 0.70439 0.98331 0.0
C1812 C 0.11393 0.682 0.98814 0.0
C1813 C 0.09671 0.66861 0.9769 0.0
C1814 C 0.08914 0.67301 0.95593 0.0
C1815 C 0.07319 0.66026 0.94487 0.0
C1816 C 0.06463 0.64306 0.95469 0.0
C1817 C 0.07199 0.63858 0.97561 0.0
C1818 C 0.08795 0.65128 0.98673 0.0
C1819 C 0.12231 0.68953 0.10082 0.0
C1820 C 0.13309 0.68266 0.10837 0.0
C1821 C 0.12258 0.69497 0.07468 0.0
C1822 C 0.13389 0.69394 0.05597 0.0
C1823 C 0.14551 0.68821 0.06417 0.0
C1824 C 0.14501 0.68251 0.09001 0.0
C1825 C 0.13185 0.69597 0.02725 0.0
C1826 C 0.11557 0.68438 0.01557 0.0
C1827 C 0.14645 0.70677 0.01087 0.0
C1828 C 0.1636 0.72018 0.02226 0.0
C1829 C 0.17939 0.721 0.01439 0.0
C1830 C 0.19547 0.73356 0.02537 0.0
C1831 C 0.19595 0.74541 0.04421 0.0
C1832 C 0.18036 0.74476 0.05208 0.0
C1833 C 0.16425 0.73224 0.04116 0.0
H1834 H 0.20841 0.75511 0.0527 0.0
H1835 H 0.0523 0.6332 0.94607 0.0
H1836 H 0.88998 0.5767 0.61681 0.0
H1837 H 0.88967 0.58539 0.57053 0.0
H1838 H 0.85853 0.53065 0.54888 0.0
H1839 H 0.85872 0.52201 0.5944 0.0
H1840 H 0.89496 0.55315 0.52477 0.0
H1841 H 0.83838 0.54943 0.54395 0.0
H1842 H 0.81978 0.55908 0.56669 0.0
H1843 H 0.8518 0.61135 0.53588 0.0
H1844 H 0.87076 0.60205 0.51327 0.0
H1845 H 0.86019 0.52447 0.40404 0.0
H1846 H 0.85909 0.53246 0.44969 0.0
H1847 H 0.89184 0.58742 0.43024 0.0
H1848 H 0.89286 0.57938 0.38386 0.0
H1849 H 0.86048 0.57439 0.47492 0.0
H1850 H 0.91527 0.57688 0.4513 0.0
H1851 H 0.93268 0.56612 0.42773 0.0
H1852 H 0.9042 0.51634 0.46753 0.0
H1853 H 0.88641 0.52672 0.49099 0.0
C1854 C 0.88257 0.56662 0.60227 0.0
C1855 C 0.8745 0.54868 0.60912 0.0
C1856 C 0.88246 0.57158 0.57588 0.0
C1857 C 0.87417 0.55862 0.5563 0.0
C1858 C 0.86503 0.54084 0.56365 0.0
C1859 C 0.86517 0.53593 0.5897 0.0
C1860 C 0.87683 0.56288 0.52776 0.0
C1861 C 0.88763 0.55807 0.51394 0.0
C1862 C 0.86752 0.56959 0.51366 0.0
C1863 C 0.85614 0.57512 0.52728 0.0
C1864 C 0.84159 0.56303 0.54231 0.0
C1865 C 0.83094 0.56842 0.55509 0.0
C1866 C 0.83465 0.58584 0.55283 0.0
C1867 C 0.84898 0.59788 0.53769 0.0
C1868 C 0.85967 0.59256 0.52488 0.0
C1869 C 0.86668 0.53831 0.40924 0.0
C1870 C 0.87669 0.5513 0.39048 0.0
C1871 C 0.866 0.54286 0.43534 0.0
C1872 C 0.87546 0.56051 0.44339 0.0
C1873 C 0.88433 0.57373 0.42434 0.0
C1874 C 0.88491 0.56914 0.39791 0.0
C1875 C 0.87829 0.56423 0.47208 0.0
C1876 C 0.86842 0.57026 0.48587 0.0
C1877 C 0.88853 0.55871 0.48638 0.0
C1878 C 0.89946 0.55255 0.47278 0.0
C1879 C 0.91265 0.5636 0.45489 0.0
C1880 C 0.92259 0.55758 0.44157 0.0
C1881 C 0.91953 0.54055 0.4461 0.0
C1882 C 0.90656 0.52953 0.46403 0.0
C1883 C 0.89656 0.53548 0.47737 0.0
H1884 H 0.92723 0.53591 0.43576 0.0
H1885 H 0.82638 0.58998 0.56273 0.0
H1886 H 0.31131 0.84924 0.6169 0.0
H1887 H 0.3011 0.84437 0.57086 0.0
H1888 H 0.33136 0.90033 0.55655 0.0
H1889 H 0.34187 0.90511 0.60215 0.0
H1890 H 0.29819 0.88267 0.52836 0.0
H1891 H 0.35079 0.87868 0.54546 0.0
H1892 H 0.36734 0.86657 0.56797 0.0
H1893 H 0.32999 0.81469 0.5405 0.0
H1894 H 0.31305 0.8265 0.51815 0.0
H1895 H 0.33792 0.90336 0.40289 0.0
H1896 H 0.32728 0.89867 0.44837 0.0
H1897 H 0.30341 0.84248 0.43778 0.0
H1898 H 0.31401 0.84725 0.39195 0.0
H1899 H 0.32586 0.85398 0.47881 0.0
H1900 H 0.27748 0.85984 0.45237 0.0
H1901 H 0.26149 0.87241 0.42948 0.0
H1902 H 0.29034 0.92042 0.47345 0.0
H1903 H 0.30672 0.90825 0.49634 0.0
C1904 C 0.31518 0.8605 0.60414 0.0
C1905 C 0.32724 0.87755 0.61299 0.0
C1906 C 0.30945 0.85772 0.57785 0.0
C1907 C 0.31554 0.872 0.56025 0.0
C1908 C 0.3264 0.88915 0.56978 0.0
C1909 C 0.33239 0.89187 0.59582 0.0
C1910 C 0.3129 0.86913 0.53133 0.0
C1911 C 0.30415 0.87635 0.51745 0.0
C1912 C 0.32034 0.86051 0.51717 0.0
C1913 C 0.33052 0.85342 0.53049 0.0
C1914 C 0.34601 0.86467 0.54444 0.0
C1915 C 0.35548 0.85787 0.55713 0.0
C1916 C 0.34968 0.83986 0.55575 0.0
C1917 C 0.33443 0.82862 0.54161 0.0
C1918 C 0.32489 0.83536 0.52895 0.0
C1919 C 0.32974 0.88999 0.40997 0.0
C1920 C 0.32648 0.87565 0.39389 0.0
C1921 C 0.32368 0.8873 0.43598 0.0
C1922 C 0.31444 0.8702 0.44656 0.0
C1923 C 0.31039 0.85577 0.43003 0.0
C1924 C 0.31629 0.85848 0.40382 0.0
C1925 C 0.31139 0.86782 0.47555 0.0
C1926 C 0.3193 0.85977 0.48955 0.0
C1927 C 0.30316 0.87567 0.48972 0.0
C1928 C 0.29342 0.88315 0.47599 0.0
C1929 C 0.28053 0.87314 0.45702 0.0
C1930 C 0.27138 0.88018 0.44407 0.0
C1931 C 0.27492 0.89721 0.44998 0.0
C1932 C 0.28761 0.90722 0.46889 0.0
C1933 C 0.29682 0.90025 0.4819 0.0
H1934 H 0.26781 0.90264 0.43994 0.0
H1935 H 0.35704 0.83461 0.56556 0.0
H1936 H 0.44502 0.34834 0.59778 0.0
H1937 H 0.43711 0.33679 0.55313 0.0
H1938 H 0.44894 0.29583 0.57197 0.0
H1939 H 0.45671 0.30736 0.61729 0.0
H1940 H 0.46673 0.31512 0.52774 0.0
H1941 H 0.40748 0.28365 0.55579 0.0
H1942 H 0.38049 0.27846 0.57873 0.0
H1943 H 0.37846 0.31775 0.53075 0.0
H1944 H 0.40559 0.32339 0.50777 0.0
H1945 H 0.45568 0.30612 0.38801 0.0
H1946 H 0.44825 0.29514 0.43362 0.0
H1947 H 0.43633 0.33617 0.45145 0.0
H1948 H 0.44379 0.3471 0.4064 0.0
H1949 H 0.4141 0.30579 0.4777 0.0
H1950 H 0.47737 0.34265 0.46101 0.0
H1951 H 0.5052 0.34954 0.43895 0.0
H1952 H 0.49974 0.30074 0.46657 0.0
H1953 H 0.47173 0.29348 0.48852 0.0
C1954 C 0.44545 0.33656 0.59265 0.0
C1955 C 0.4514 0.3287 0.61099 0.0
C1956 C 0.44088 0.32992 0.56711 0.0
C1957 C 0.44232 0.31536 0.55914 0.0
C1958 C 0.44761 0.307 0.57773 0.0
C1959 C 0.45192 0.31351 0.60362 0.0
C1960 C 0.44022 0.31051 0.53069 0.0
C1961 C 0.45499 0.31247 0.51687 0.0
C1962 C 0.42502 0.3073 0.5164 0.0
C1963 C 0.40863 0.30397 0.53008 0.0
C1964 C 0.40135 0.29127 0.55023 0.0
C1965 C 0.38601 0.28824 0.56323 0.0
C1966 C 0.37777 0.29778 0.55621 0.0
C1967 C 0.38484 0.31036 0.53614 0.0
C1968 C 0.40019 0.31345 0.52308 0.0
C1969 C 0.45087 0.31234 0.40149 0.0
C1970 C 0.4503 0.32744 0.39377 0.0
C1971 C 0.44677 0.30617 0.42757 0.0
C1972 C 0.44191 0.31496 0.44609 0.0
C1973 C 0.44 0.32914 0.43762 0.0
C1974 C 0.44429 0.3354 0.41184 0.0
C1975 C 0.44083 0.3111 0.47485 0.0
C1976 C 0.42554 0.30767 0.48868 0.0
C1977 C 0.45557 0.31305 0.48919 0.0
C1978 C 0.47237 0.31741 0.47605 0.0
C1979 C 0.48205 0.33333 0.46218 0.0
C1980 C 0.49785 0.33731 0.44974 0.0
C1981 C 0.5042 0.32555 0.45127 0.0
C1982 C 0.49478 0.30981 0.46533 0.0
C1983 C 0.47894 0.30575 0.47777 0.0
H1984 H 0.51645 0.32866 0.44164 0.0
H1985 H 0.36589 0.29541 0.5663 0.0
H1986 H 0.15809 0.47264 0.60788 0.0
H1987 H 0.16195 0.46834 0.5612 0.0
H1988 H 0.1104 0.42187 0.55982 0.0
H1989 H 0.10651 0.42626 0.60667 0.0
H1990 H 0.13813 0.42209 0.52267 0.0
H1991 H 0.10871 0.45444 0.54675 0.0
H1992 H 0.10584 0.47686 0.57212 0.0
H1993 H 0.15514 0.51739 0.54076 0.0
H1994 H 0.15846 0.49511 0.5156 0.0
H1995 H 0.11389 0.43091 0.38833 0.0
H1996 H 0.11658 0.42451 0.43478 0.0
H1997 H 0.1613 0.47687 0.44366 0.0
H1998 H 0.15829 0.48332 0.39777 0.0
H1999 H 0.13653 0.4715 0.47758 0.0
H2000 H 0.16481 0.43944 0.44997 0.0
H2001 H 0.16795 0.41698 0.42517 0.0
H2002 H 0.12123 0.376 0.46206 0.0
H2003 H 0.11765 0.39824 0.4868 0.0
C2004 C 0.14799 0.46101 0.59794 0.0
C2005 C 0.13213 0.44962 0.61084 0.0
C2006 C 0.15016 0.4586 0.57126 0.0
C2007 C 0.13643 0.44483 0.55701 0.0
C2008 C 0.12122 0.43246 0.5705 0.0
C2009 C 0.11902 0.43494 0.59725 0.0
C2010 C 0.13655 0.44563 0.52776 0.0
C2011 C 0.13763 0.43276 0.51268 0.0
C2012 C 0.13603 0.45964 0.51481 0.0
C2013 C 0.13393 0.47309 0.52956 0.0
C2014 C 0.11901 0.46811 0.54546 0.0
C2015 C 0.11729 0.48079 0.55977 0.0
C2016 C 0.13032 0.49854 0.55811 0.0
C2017 C 0.14507 0.50363 0.54207 0.0
C2018 C 0.14688 0.49098 0.52778 0.0
C2019 C 0.12469 0.44073 0.40001 0.0
C2020 C 0.13597 0.45755 0.38956 0.0
C2021 C 0.1262 0.43711 0.42656 0.0
C2022 C 0.1391 0.45025 0.44284 0.0
C2023 C 0.1512 0.46655 0.43162 0.0
C2024 C 0.14956 0.4702 0.40535 0.0
C2025 C 0.13856 0.44818 0.47206 0.0
C2026 C 0.13717 0.4608 0.4873 0.0
C2027 C 0.13877 0.43393 0.48492 0.0
C2028 C 0.14086 0.42053 0.47002 0.0
C2029 C 0.1551 0.42565 0.4526 0.0
C2030 C 0.15698 0.41295 0.4386 0.0
C2031 C 0.14477 0.39507 0.44198 0.0
C2032 C 0.13067 0.38985 0.45943 0.0
C2033 C 0.12871 0.4025 0.47346 0.0
H2034 H 0.14625 0.38526 0.43113 0.0
H2035 H 0.12897 0.50834 0.5692 0.0
H2036 H 0.67459 0.09959 0.39259 0.0
H2037 H 0.68283 0.10017 0.43892 0.0
H2038 H 0.6988 0.15532 0.44329 0.0
H2039 H 0.69078 0.15474 0.39681 0.0
H2040 H 0.71883 0.14663 0.47705 0.0
H2041 H 0.65782 0.12639 0.45682 0.0
H2042 H 0.62956 0.10772 0.43414 0.0
H2043 H 0.62678 0.06143 0.46774 0.0
H2044 H 0.6552 0.07985 0.49029 0.0
H2045 H 0.69259 0.15404 0.6086 0.0
H2046 H 0.70077 0.15478 0.56218 0.0
H2047 H 0.67913 0.09843 0.56363 0.0
H2048 H 0.67058 0.09772 0.60975 0.0
H2049 H 0.6643 0.10684 0.52656 0.0
H2050 H 0.72405 0.12817 0.55212 0.0
H2051 H 0.75211 0.1475 0.57485 0.0
H2052 H 0.75723 0.19222 0.53246 0.0
H2053 H 0.72907 0.1732 0.50974 0.0
C2054 C 0.68067 0.112 0.40314 0.0
C2055 C 0.68232 0.12718 0.39117 0.0
C2056 C 0.68524 0.11231 0.42964 0.0
C2057 C 0.69119 0.12774 0.44471 0.0
C2058 C 0.6943 0.14329 0.43208 0.0
C2059 C 0.68977 0.14298 0.40552 0.0
C2060 C 0.69139 0.12694 0.47403 0.0
C2061 C 0.70694 0.13798 0.48796 0.0
C2062 C 0.6759 0.11555 0.48828 0.0
C2063 C 0.65872 0.10447 0.47498 0.0
C2064 C 0.65124 0.11222 0.45921 0.0
C2065 C 0.63519 0.10169 0.44639 0.0
C2066 C 0.6264 0.0834 0.44943 0.0
C2067 C 0.63363 0.0756 0.46536 0.0
C2068 C 0.6497 0.08608 0.47816 0.0
C2069 C 0.69032 0.14197 0.59925 0.0
C2070 C 0.68125 0.12587 0.61275 0.0
C2071 C 0.69494 0.14236 0.57268 0.0
C2072 C 0.6906 0.12664 0.55926 0.0
C2073 C 0.68264 0.11073 0.57345 0.0
C2074 C 0.6779 0.11033 0.59987 0.0
C2075 C 0.69185 0.12637 0.52994 0.0
C2076 C 0.67639 0.11526 0.51587 0.0
C2077 C 0.70741 0.13778 0.51575 0.0
C2078 C 0.72436 0.14927 0.52938 0.0
C2079 C 0.73108 0.14215 0.5478 0.0
C2080 C 0.74702 0.15305 0.56066 0.0
C2081 C 0.75643 0.17108 0.55515 0.0
C2082 C 0.74993 0.17825 0.53672 0.0
C2083 C 0.73398 0.16741 0.52383 0.0
H2084 H 0.76877 0.17949 0.56512 0.0
H2085 H 0.61398 0.07526 0.4395 0.0
H2086 H 0.55099 0.69892 0.38736 0.0
H2087 H 0.55761 0.70813 0.43387 0.0
H2088 H 0.57322 0.66918 0.4463 0.0
H2089 H 0.56646 0.65993 0.40044 0.0
H2090 H 0.5455 0.66433 0.4776 0.0
H2091 H 0.60284 0.71178 0.45106 0.0
H2092 H 0.62311 0.73875 0.42661 0.0
H2093 H 0.60009 0.76649 0.4638 0.0
H2094 H 0.5795 0.73958 0.48821 0.0
H2095 H 0.57412 0.66683 0.60172 0.0
H2096 H 0.57963 0.67566 0.5555 0.0
H2097 H 0.55629 0.70837 0.56648 0.0
H2098 H 0.55097 0.69968 0.61324 0.0
H2099 H 0.58619 0.71999 0.52393 0.0
H2100 H 0.52876 0.67271 0.55005 0.0
H2101 H 0.5089 0.64594 0.57525 0.0
H2102 H 0.53166 0.61805 0.5378 0.0
H2103 H 0.55191 0.64479 0.51275 0.0
C2104 C 0.5565 0.69287 0.39985 0.0
C2105 C 0.55822 0.67872 0.39043 0.0
C2106 C 0.5602 0.69807 0.42641 0.0
C2107 C 0.56575 0.6892 0.44363 0.0
C2108 C 0.56886 0.67613 0.43346 0.0
C2109 C 0.56508 0.6709 0.40722 0.0
C2110 C 0.5659 0.69142 0.47272 0.0
C2111 C 0.55447 0.67653 0.48761 0.0
C2112 C 0.57712 0.70746 0.48588 0.0
C2113 C 0.58948 0.72361 0.4712 0.0
C2114 C 0.60197 0.72357 0.45382 0.0
C2115 C 0.61355 0.73886 0.44002 0.0
C2116 C 0.61285 0.75431 0.44358 0.0
C2117 C 0.6006 0.7545 0.46101 0.0
C2118 C 0.58898 0.73924 0.47485 0.0
C2119 C 0.57097 0.67659 0.59461 0.0
C2120 C 0.5622 0.68264 0.61098 0.0
C2121 C 0.5741 0.68162 0.56819 0.0
C2122 C 0.56823 0.69254 0.5575 0.0
C2123 C 0.56105 0.70004 0.5744 0.0
C2124 C 0.55805 0.6951 0.60109 0.0
C2125 C 0.56622 0.69274 0.52845 0.0
C2126 C 0.57711 0.70795 0.51371 0.0
C2127 C 0.55438 0.67701 0.51516 0.0
C2128 C 0.54195 0.66079 0.52971 0.0
C2129 C 0.52962 0.66091 0.54734 0.0
C2130 C 0.51828 0.64574 0.56158 0.0
C2131 C 0.51904 0.63031 0.55817 0.0
C2132 C 0.5311 0.63002 0.54044 0.0
C2133 C 0.5425 0.64517 0.52621 0.0
H2134 H 0.51026 0.61858 0.56922 0.0
H2135 H 0.62183 0.76614 0.43288 0.0
H2136 H 0.50106 0.13508 0.26361 0.0
H2137 H 0.52714 0.13416 0.27897 0.0
H2138 H 0.5392 0.12743 0.19885 0.0
H2139 H 0.51317 0.12811 0.18351 0.0
H2140 H 0.54388 0.10602 0.23097 0.0
H2141 H 0.56121 0.16751 0.22979 0.0
H2142 H 0.55888 0.19362 0.24117 0.0
H2143 H 0.56381 0.18518 0.32333 0.0
H2144 H 0.56593 0.15886 0.31245 0.0
H2145 H 0.63462 0.13124 0.24459 0.0
H2146 H 0.607 0.13001 0.23197 0.0
H2147 H 0.59569 0.13347 0.31378 0.0
H2148 H 0.62317 0.13466 0.3265 0.0
H2149 H 0.59012 0.15579 0.28254 0.0
H2150 H 0.57445 0.09509 0.28326 0.0
H2151 H 0.57761 0.06952 0.27145 0.0
H2152 H 0.56994 0.07667 0.18979 0.0
H2153 H 0.56708 0.10251 0.20106 0.0
C2154 C 0.50926 0.13336 0.24932 0.0
C2155 C 0.50509 0.13175 0.22234 0.0
C2156 C 0.52418 0.13288 0.25809 0.0
C2157 C 0.53526 0.13089 0.24003 0.0
C2158 C 0.53089 0.12896 0.21317 0.0
C2159 C 0.51601 0.12942 0.20442 0.0
C2160 C 0.5516 0.13115 0.24886 0.0
C2161 C 0.55406 0.11699 0.24202 0.0
C2162 C 0.56477 0.14528 0.26374 0.0
C2163 C 0.56353 0.16111 0.27032 0.0
C2164 C 0.56165 0.17114 0.25029 0.0
C2165 C 0.5604 0.18599 0.25665 0.0
C2166 C 0.56114 0.19103 0.28296 0.0
C2167 C 0.5632 0.18124 0.30297 0.0
C2168 C 0.56444 0.16637 0.29671 0.0
C2169 C 0.62623 0.13172 0.25986 0.0
C2170 C 0.63106 0.13302 0.28653 0.0
C2171 C 0.61043 0.13097 0.25265 0.0
C2172 C 0.59922 0.13155 0.27197 0.0
C2173 C 0.60413 0.13301 0.29856 0.0
C2174 C 0.61982 0.13362 0.30578 0.0
C2175 C 0.58243 0.13074 0.26449 0.0
C2176 C 0.57989 0.14479 0.27159 0.0
C2177 C 0.56923 0.11653 0.24981 0.0
C2178 C 0.57073 0.10086 0.24299 0.0
C2179 C 0.57358 0.0913 0.26276 0.0
C2180 C 0.5753 0.07675 0.25616 0.0
C2181 C 0.57401 0.0715 0.22988 0.0
C2182 C 0.57096 0.08077 0.21014 0.0
C2183 C 0.56929 0.09537 0.21662 0.0
H2184 H 0.57535 0.06022 0.22481 0.0
H2185 H 0.56017 0.20253 0.28784 0.0
H2186 H 0.48986 0.62399 0.32073 0.0
H2187 H 0.46402 0.59648 0.30745 0.0
H2188 H 0.48524 0.6028 0.22886 0.0
H2189 H 0.51095 0.63093 0.24192 0.0
H2190 H 0.4517 0.59159 0.22587 0.0
H2191 H 0.48581 0.57299 0.27603 0.0
H2192 H 0.50258 0.57228 0.31456 0.0
H2193 H 0.4564 0.55337 0.36302 0.0
H2194 H 0.43941 0.55422 0.32485 0.0
H2195 H 0.39171 0.50538 0.18456 0.0
H2196 H 0.4188 0.53155 0.19822 0.0
H2197 H 0.39712 0.52755 0.27595 0.0
H2198 H 0.36999 0.50077 0.26251 0.0
H2199 H 0.43125 0.53723 0.27897 0.0
H2200 H 0.39755 0.55669 0.22842 0.0
H2201 H 0.38104 0.55739 0.18952 0.0
H2202 H 0.42705 0.57448 0.14124 0.0
H2203 H 0.44378 0.57368 0.17981 0.0
C2204 C 0.48906 0.61953 0.3006 0.0
C2205 C 0.50249 0.62958 0.28238 0.0
C2206 C 0.47429 0.6037 0.29306 0.0
C2207 C 0.47279 0.59726 0.26729 0.0
C2208 C 0.48611 0.6074 0.24891 0.0
C2209 C 0.5008 0.62347 0.25636 0.0
C2210 C 0.45715 0.58013 0.25954 0.0
C2211 C 0.44743 0.57966 0.23727 0.0
C2212 C 0.45124 0.56456 0.2747 0.0
C2213 C 0.46137 0.5638 0.29761 0.0
C2214 C 0.47925 0.56877 0.29493 0.0
C2215 C 0.4888 0.56834 0.31671 0.0
C2216 C 0.48057 0.56281 0.34123 0.0
C2217 C 0.46276 0.55766 0.34401 0.0
C2218 C 0.45316 0.5581 0.32231 0.0
C2219 C 0.39271 0.50995 0.20464 0.0
C2220 C 0.37863 0.50107 0.22241 0.0
C2221 C 0.40821 0.52501 0.21239 0.0
C2222 C 0.40989 0.53183 0.23793 0.0
C2223 C 0.3961 0.52263 0.25607 0.0
C2224 C 0.38061 0.50734 0.24839 0.0
C2225 C 0.42585 0.54875 0.24536 0.0
C2226 C 0.4356 0.54918 0.26757 0.0
C2227 C 0.43185 0.56427 0.23008 0.0
C2228 C 0.42187 0.56499 0.20696 0.0
C2229 C 0.40412 0.56051 0.20948 0.0
C2230 C 0.39473 0.56093 0.18749 0.0
C2231 C 0.40298 0.56594 0.16291 0.0
C2232 C 0.42067 0.57059 0.16029 0.0
C2233 C 0.43012 0.57018 0.18221 0.0
H2234 H 0.39568 0.56624 0.14591 0.0
H2235 H 0.48798 0.5625 0.35807 0.0
H2236 H 0.87312 0.50563 0.23878 0.0
H2237 H 0.87396 0.47936 0.22418 0.0
H2238 H 0.88566 0.47086 0.30356 0.0
H2239 H 0.8848 0.49694 0.31824 0.0
H2240 H 0.9056 0.46518 0.26703 0.0
H2241 H 0.84471 0.44755 0.2815 0.0
H2242 H 0.81761 0.44917 0.27586 0.0
H2243 H 0.81798 0.43994 0.19282 0.0
H2244 H 0.84526 0.43852 0.19791 0.0
H2245 H 0.87988 0.37371 0.25817 0.0
H2246 H 0.8815 0.4015 0.27117 0.0
H2247 H 0.87239 0.41042 0.19059 0.0
H2248 H 0.87099 0.38293 0.17746 0.0
H2249 H 0.85164 0.41613 0.22698 0.0
H2250 H 0.91199 0.43272 0.21265 0.0
H2251 H 0.93862 0.43027 0.21847 0.0
H2252 H 0.93915 0.44105 0.30111 0.0
H2253 H 0.91231 0.44325 0.29587 0.0
C2254 C 0.876 0.49823 0.25306 0.0
C2255 C 0.87878 0.50331 0.27968 0.0
C2256 C 0.87644 0.4832 0.24472 0.0
C2257 C 0.87975 0.47305 0.26284 0.0
C2258 C 0.88311 0.47847 0.28923 0.0
C2259 C 0.88253 0.49337 0.2976 0.0
C2260 C 0.87893 0.45635 0.25465 0.0
C2261 C 0.89375 0.4544 0.2585 0.0
C2262 C 0.86356 0.44235 0.24316 0.0
C2263 C 0.84713 0.44313 0.24004 0.0
C2264 C 0.8391 0.44602 0.262 0.0
C2265 C 0.82369 0.44687 0.25891 0.0
C2266 C 0.81611 0.44471 0.23399 0.0
C2267 C 0.82389 0.44164 0.21211 0.0
C2268 C 0.83932 0.4408 0.21508 0.0
C2269 C 0.87819 0.38159 0.24328 0.0
C2270 C 0.87532 0.37616 0.21681 0.0
C2271 C 0.87917 0.39747 0.25069 0.0
C2272 C 0.87712 0.40805 0.2318 0.0
C2273 C 0.87399 0.40247 0.20547 0.0
C2274 C 0.87326 0.38678 0.19801 0.0
C2275 C 0.87828 0.42497 0.23935 0.0
C2276 C 0.86351 0.42694 0.23542 0.0
C2277 C 0.89369 0.43896 0.25074 0.0
C2278 C 0.91001 0.43796 0.25392 0.0
C2279 C 0.91769 0.43443 0.23211 0.0
C2280 C 0.93284 0.4331 0.23529 0.0
C2281 C 0.94054 0.43544 0.26016 0.0
C2282 C 0.93315 0.4392 0.28187 0.0
C2283 C 0.91797 0.4405 0.2788 0.0
H2284 H 0.95225 0.43439 0.26258 0.0
H2285 H 0.80417 0.44538 0.23163 0.0
H2286 H 0.49756 0.88095 0.18317 0.0
H2287 H 0.4725 0.88337 0.19855 0.0
H2288 H 0.485 0.87788 0.27895 0.0
H2289 H 0.51023 0.87534 0.26357 0.0
H2290 H 0.45026 0.85684 0.26865 0.0
H2291 H 0.49296 0.91725 0.25605 0.0
H2292 H 0.51579 0.94321 0.23226 0.0
H2293 H 0.47798 0.93686 0.1732 0.0
H2294 H 0.45498 0.91064 0.19636 0.0
H2295 H 0.38977 0.87789 0.32601 0.0
H2296 H 0.4175 0.88 0.3126 0.0
H2297 H 0.40485 0.88207 0.23104 0.0
H2298 H 0.3769 0.88002 0.2444 0.0
H2299 H 0.44042 0.90594 0.24328 0.0
H2300 H 0.39839 0.8443 0.25523 0.0
H2301 H 0.37592 0.81833 0.27945 0.0
H2302 H 0.41331 0.82768 0.34087 0.0
H2303 H 0.43594 0.85387 0.31717 0.0
C2304 C 0.49508 0.88036 0.20416 0.0
C2305 C 0.5059 0.87796 0.22218 0.0
C2306 C 0.48077 0.88183 0.21293 0.0
C2307 C 0.47695 0.881 0.23992 0.0
C2308 C 0.48773 0.87861 0.25802 0.0
C2309 C 0.50215 0.8772 0.24923 0.0
C2310 C 0.46128 0.88192 0.24898 0.0
C2311 C 0.44827 0.86774 0.26349 0.0
C2312 C 0.45849 0.89596 0.24173 0.0
C2313 C 0.47225 0.91185 0.22784 0.0
C2314 C 0.48953 0.92129 0.23787 0.0
C2315 C 0.50251 0.93607 0.22452 0.0
C2316 C 0.49835 0.94166 0.20121 0.0
C2317 C 0.48119 0.9325 0.19125 0.0
C2318 C 0.46817 0.91768 0.20449 0.0
C2319 C 0.39288 0.87888 0.3052 0.0
C2320 C 0.38105 0.87863 0.28624 0.0
C2321 C 0.40875 0.88007 0.29757 0.0
C2322 C 0.41317 0.88098 0.27081 0.0
C2323 C 0.40168 0.88134 0.25181 0.0
C2324 C 0.3857 0.88009 0.25945 0.0
C2325 C 0.42943 0.88083 0.26283 0.0
C2326 C 0.4425 0.89512 0.24851 0.0
C2327 C 0.43237 0.86694 0.27035 0.0
C2328 C 0.4188 0.85114 0.28455 0.0
C2329 C 0.40178 0.8409 0.274 0.0
C2330 C 0.38902 0.82613 0.28762 0.0
C2331 C 0.39317 0.82139 0.31172 0.0
C2332 C 0.4101 0.83138 0.32222 0.0
C2333 C 0.42291 0.84618 0.30869 0.0
H2334 H 0.38327 0.80994 0.32224 0.0
H2335 H 0.50841 0.95311 0.1909 0.0
H2336 H 0.63939 0.50681 0.26344 0.0
H2337 H 0.61245 0.48056 0.27876 0.0
H2338 H 0.59236 0.47023 0.19925 0.0
H2339 H 0.61904 0.49634 0.18394 0.0
H2340 H 0.5667 0.46486 0.2337 0.0
H2341 H 0.61065 0.44768 0.22534 0.0
H2342 H 0.63934 0.44966 0.23344 0.0
H2343 H 0.6282 0.44244 0.31637 0.0
H2344 H 0.59953 0.44065 0.30879 0.0
H2345 H 0.5012 0.37367 0.24563 0.0
H2346 H 0.52744 0.40135 0.23247 0.0
H2347 H 0.54432 0.41167 0.31354 0.0
H2348 H 0.51819 0.38422 0.3268 0.0
H2349 H 0.5714 0.41737 0.27949 0.0
H2350 H 0.52659 0.43322 0.28714 0.0
H2351 H 0.49755 0.43021 0.27823 0.0
H2352 H 0.5101 0.43938 0.19586 0.0
H2353 H 0.53911 0.44211 0.20421 0.0
C2354 C 0.62917 0.49899 0.24929 0.0
C2355 C 0.6314 0.50361 0.22247 0.0
C2356 C 0.61381 0.48396 0.25803 0.0
C2357 C 0.60043 0.4733 0.2401 0.0
C2358 C 0.60246 0.47822 0.21346 0.0
C2359 C 0.61779 0.49314 0.20473 0.0
C2360 C 0.58452 0.45673 0.24876 0.0
C2361 C 0.56774 0.45442 0.2435 0.0
C2362 C 0.58582 0.44317 0.26191 0.0
C2363 C 0.60304 0.44424 0.26653 0.0
C2364 C 0.61439 0.44667 0.24533 0.0
C2365 C 0.63063 0.44773 0.24982 0.0
C2366 C 0.63561 0.44623 0.27542 0.0
C2367 C 0.62434 0.44363 0.29657 0.0
C2368 C 0.60809 0.44258 0.29218 0.0
C2369 C 0.51051 0.38185 0.26061 0.0
C2370 C 0.50761 0.37678 0.28724 0.0
C2371 C 0.52546 0.39767 0.25309 0.0
C2372 C 0.5378 0.40862 0.27206 0.0
C2373 C 0.535 0.40344 0.29859 0.0
C2374 C 0.52001 0.38776 0.30612 0.0
C2375 C 0.55363 0.4255 0.26437 0.0
C2376 C 0.57038 0.42785 0.2698 0.0
C2377 C 0.55229 0.43905 0.25131 0.0
C2378 C 0.53496 0.43768 0.24626 0.0
C2379 C 0.52311 0.43445 0.26709 0.0
C2380 C 0.50665 0.43281 0.26215 0.0
C2381 C 0.50196 0.43456 0.23648 0.0
C2382 C 0.51374 0.438 0.21572 0.0
C2383 C 0.5302 0.4396 0.22055 0.0
H2384 H 0.48922 0.43328 0.23269 0.0
H2385 H 0.64819 0.44705 0.27886 0.0
H2386 H 0.12845 0.62025 0.17855 0.0
H2387 H 0.12695 0.59298 0.19293 0.0
H2388 H 0.13311 0.61037 0.27374 0.0
H2389 H 0.13475 0.6379 0.25938 0.0
H2390 H 0.15448 0.59718 0.26195 0.0
H2391 H 0.09362 0.57877 0.25141 0.0
H2392 H 0.06734 0.57544 0.22842 0.0
H2393 H 0.07374 0.54474 0.16807 0.0
H2394 H 0.10027 0.54818 0.19044 0.0
H2395 H 0.1329 0.51568 0.32014 0.0
H2396 H 0.1317 0.5417 0.30629 0.0
H2397 H 0.12855 0.526 0.22502 0.0
H2398 H 0.12971 0.4997 0.23884 0.0
H2399 H 0.10517 0.5381 0.23746 0.0
H2400 H 0.16671 0.55749 0.24795 0.0
H2401 H 0.19299 0.56112 0.27133 0.0
H2402 H 0.18483 0.59 0.33273 0.0
H2403 H 0.15834 0.58633 0.30989 0.0
C2404 C 0.12939 0.61827 0.19942 0.0
C2405 C 0.13169 0.63124 0.21785 0.0
C2406 C 0.12846 0.60261 0.20762 0.0
C2407 C 0.12974 0.59952 0.23444 0.0
C2408 C 0.13205 0.61245 0.25294 0.0
C2409 C 0.13293 0.62814 0.24473 0.0
C2410 C 0.12917 0.583 0.24295 0.0
C2411 C 0.14356 0.58426 0.25696 0.0
C2412 C 0.11511 0.56613 0.23589 0.0
C2413 C 0.09905 0.56388 0.22249 0.0
C2414 C 0.08952 0.57143 0.23312 0.0
C2415 C 0.07456 0.56951 0.22021 0.0
C2416 C 0.06889 0.55992 0.19677 0.0
C2417 C 0.07815 0.55219 0.18622 0.0
C2418 C 0.09315 0.55412 0.19901 0.0
C2419 C 0.13189 0.51768 0.29929 0.0
C2420 C 0.13151 0.50567 0.28055 0.0
C2421 C 0.13125 0.53261 0.29142 0.0
C2422 C 0.13024 0.53591 0.26461 0.0
C2423 C 0.12938 0.52372 0.24582 0.0
C2424 C 0.1301 0.50875 0.25371 0.0
C2425 C 0.13049 0.55233 0.2564 0.0
C2426 C 0.11606 0.55103 0.24246 0.0
C2427 C 0.14447 0.56919 0.26361 0.0
C2428 C 0.16044 0.57149 0.27733 0.0
C2429 C 0.17043 0.5645 0.26654 0.0
C2430 C 0.18538 0.56658 0.27968 0.0
C2431 C 0.19055 0.57575 0.30354 0.0
C2432 C 0.1808 0.58289 0.31427 0.0
C2433 C 0.16583 0.58082 0.30123 0.0
H2434 H 0.20213 0.57735 0.31367 0.0
H2435 H 0.05731 0.55844 0.18681 0.0
H2436 H 0.49687 0.87929 0.82418 0.0
H2437 H 0.47078 0.88033 0.81027 0.0
H2438 H 0.48245 0.87573 0.72905 0.0
H2439 H 0.5089 0.87489 0.74291 0.0
H2440 H 0.47186 0.90028 0.73563 0.0
H2441 H 0.45094 0.84023 0.76141 0.0
H2442 H 0.4476 0.81654 0.79123 0.0
H2443 H 0.42313 0.83304 0.8492 0.0
H2444 H 0.42655 0.85699 0.81985 0.0
H2445 H 0.38811 0.87563 0.68211 0.0
H2446 H 0.41541 0.87712 0.69623 0.0
H2447 H 0.4015 0.87819 0.77751 0.0
H2448 H 0.3738 0.8763 0.76341 0.0
H2449 H 0.4135 0.85597 0.77135 0.0
H2450 H 0.43351 0.91545 0.7458 0.0
H2451 H 0.43671 0.9393 0.71646 0.0
H2452 H 0.46296 0.92455 0.65899 0.0
H2453 H 0.45965 0.90041 0.68779 0.0
C2454 C 0.49397 0.87856 0.80332 0.0
C2455 C 0.50491 0.87689 0.78464 0.0
C2456 C 0.47898 0.87909 0.79541 0.0
C2457 C 0.47448 0.87785 0.76865 0.0
C2458 C 0.48563 0.87665 0.74983 0.0
C2459 C 0.50069 0.87612 0.75776 0.0
C2460 C 0.45798 0.8775 0.76053 0.0
C2461 C 0.45907 0.89046 0.74313 0.0
C2462 C 0.44133 0.86498 0.77092 0.0
C2463 C 0.43915 0.8505 0.78853 0.0
C2464 C 0.44497 0.83889 0.78059 0.0
C2465 C 0.44304 0.82539 0.7974 0.0
C2466 C 0.4352 0.82331 0.82212 0.0
C2467 C 0.42922 0.83468 0.83006 0.0
C2468 C 0.43113 0.84821 0.81334 0.0
C2469 C 0.39086 0.87627 0.70301 0.0
C2470 C 0.37879 0.87589 0.72166 0.0
C2471 C 0.40656 0.87721 0.71106 0.0
C2472 C 0.41069 0.87802 0.73794 0.0
C2473 C 0.39864 0.87763 0.75665 0.0
C2474 C 0.38284 0.87659 0.74859 0.0
C2475 C 0.42733 0.87875 0.74639 0.0
C2476 C 0.42628 0.86585 0.76386 0.0
C2477 C 0.44401 0.89138 0.73615 0.0
C2478 C 0.44619 0.90601 0.71888 0.0
C2479 C 0.43985 0.91721 0.72682 0.0
C2480 C 0.4417 0.93079 0.7103 0.0
C2481 C 0.45 0.93342 0.68586 0.0
C2482 C 0.45652 0.92249 0.67792 0.0
C2483 C 0.45467 0.90886 0.69435 0.0
H2484 H 0.45142 0.94394 0.67309 0.0
H2485 H 0.43372 0.81286 0.83511 0.0
H2486 H 0.61773 0.50051 0.82028 0.0
H2487 H 0.59067 0.47457 0.80593 0.0
H2488 H 0.6135 0.47823 0.7292 0.0
H2489 H 0.64058 0.50481 0.74328 0.0
H2490 H 0.57982 0.46921 0.72443 0.0
H2491 H 0.61129 0.44851 0.77793 0.0
H2492 H 0.62659 0.44729 0.81799 0.0
H2493 H 0.57966 0.43128 0.86355 0.0
H2494 H 0.56414 0.43261 0.82381 0.0
H2495 H 0.51999 0.38297 0.68162 0.0
H2496 H 0.54605 0.41012 0.6955 0.0
H2497 H 0.52383 0.40418 0.77332 0.0
H2498 H 0.49795 0.37636 0.75971 0.0
H2499 H 0.55691 0.41468 0.77786 0.0
H2500 H 0.52504 0.43468 0.72496 0.0
H2501 H 0.50943 0.43596 0.68534 0.0
H2502 H 0.55645 0.45356 0.6393 0.0
H2503 H 0.57228 0.45215 0.67857 0.0
C2504 C 0.61701 0.4959 0.80027 0.0
C2505 C 0.63138 0.50466 0.78296 0.0
C2506 C 0.60151 0.48096 0.79214 0.0
C2507 C 0.60013 0.47411 0.76668 0.0
C2508 C 0.61426 0.48316 0.74902 0.0
C2509 C 0.62974 0.49834 0.75707 0.0
C2510 C 0.58407 0.45739 0.75876 0.0
C2511 C 0.57494 0.45723 0.73593 0.0
C2512 C 0.57735 0.44182 0.77412 0.0
C2513 C 0.58661 0.44079 0.79794 0.0
C2514 C 0.60427 0.44481 0.79652 0.0
C2515 C 0.61297 0.4441 0.81916 0.0
C2516 C 0.60411 0.43925 0.8433 0.0
C2517 C 0.58651 0.43505 0.84484 0.0
C2518 C 0.57775 0.43576 0.82226 0.0
C2519 C 0.52063 0.38744 0.70171 0.0
C2520 C 0.50688 0.37757 0.71956 0.0
C2521 C 0.53552 0.40308 0.70959 0.0
C2522 C 0.53682 0.40954 0.73532 0.0
C2523 C 0.52315 0.39958 0.75331 0.0
C2524 C 0.50835 0.38369 0.74554 0.0
C2525 C 0.55262 0.42645 0.74348 0.0
C2526 C 0.56172 0.42666 0.76637 0.0
C2527 C 0.55924 0.44208 0.72824 0.0
C2528 C 0.54981 0.44318 0.70468 0.0
C2529 C 0.53203 0.43874 0.70636 0.0
C2530 C 0.52314 0.43949 0.68396 0.0
C2531 C 0.53193 0.44481 0.65981 0.0
C2532 C 0.54965 0.44944 0.65802 0.0
C2533 C 0.5586 0.44868 0.68034 0.0
H2534 H 0.52503 0.44537 0.64249 0.0
H2535 H 0.61088 0.43872 0.86082 0.0
H2536 H 0.12732 0.63176 0.73824 0.0
H2537 H 0.1251 0.60402 0.72301 0.0
H2538 H 0.13444 0.59292 0.80229 0.0
H2539 H 0.13652 0.62024 0.81751 0.0
H2540 H 0.15477 0.588 0.76591 0.0
H2541 H 0.0944 0.57195 0.77908 0.0
H2542 H 0.06799 0.57473 0.77283 0.0
H2543 H 0.06819 0.5646 0.69008 0.0
H2544 H 0.09484 0.5621 0.69575 0.0
H2545 H 0.13213 0.49865 0.75827 0.0
H2546 H 0.13106 0.52511 0.77078 0.0
H2547 H 0.12074 0.53231 0.68998 0.0
H2548 H 0.12174 0.50589 0.67737 0.0
H2549 H 0.10077 0.53951 0.72506 0.0
H2550 H 0.16154 0.55554 0.7129 0.0
H2551 H 0.1881 0.55316 0.72021 0.0
H2552 H 0.1868 0.56336 0.80272 0.0
H2553 H 0.16007 0.56555 0.79594 0.0
C2554 C 0.12893 0.62339 0.75232 0.0
C2555 C 0.1321 0.62818 0.77904 0.0
C2556 C 0.12759 0.60754 0.74366 0.0
C2557 C 0.12956 0.59639 0.76157 0.0
C2558 C 0.13291 0.60131 0.78813 0.0
C2559 C 0.13404 0.61694 0.79679 0.0
C2560 C 0.12833 0.5796 0.75295 0.0
C2561 C 0.14291 0.57735 0.75718 0.0
C2562 C 0.11293 0.56581 0.74123 0.0
C2563 C 0.09676 0.56705 0.73779 0.0
C2564 C 0.08892 0.57047 0.7595 0.0
C2565 C 0.07389 0.57197 0.75608 0.0
C2566 C 0.06645 0.56989 0.73106 0.0
C2567 C 0.07399 0.56625 0.70944 0.0
C2568 C 0.08907 0.56479 0.71275 0.0
C2569 C 0.12946 0.50577 0.74323 0.0
C2570 C 0.12717 0.50025 0.71681 0.0
C2571 C 0.12888 0.52091 0.75038 0.0
C2572 C 0.126 0.53082 0.73125 0.0
C2573 C 0.12298 0.5249 0.70507 0.0
C2574 C 0.12364 0.50983 0.69789 0.0
C2575 C 0.12719 0.54788 0.73826 0.0
C2576 C 0.11265 0.5502 0.73369 0.0
C2577 C 0.14259 0.56176 0.74986 0.0
C2578 C 0.15871 0.56054 0.75395 0.0
C2579 C 0.16684 0.55714 0.73263 0.0
C2580 C 0.18194 0.55585 0.73667 0.0
C2581 C 0.1891 0.55806 0.76192 0.0
C2582 C 0.18122 0.56162 0.78317 0.0
C2583 C 0.16611 0.56291 0.77924 0.0
H2584 H 0.20079 0.55705 0.76501 0.0
H2585 H 0.05481 0.57107 0.72845 0.0
H2586 H 0.63593 0.13321 0.76116 0.0
H2587 H 0.60846 0.13209 0.77444 0.0
H2588 H 0.59277 0.12743 0.69292 0.0
H2589 H 0.62017 0.12877 0.67958 0.0
H2590 H 0.58715 0.15105 0.71772 0.0
H2591 H 0.57438 0.0919 0.73428 0.0
H2592 H 0.57961 0.06905 0.75338 0.0
H2593 H 0.57639 0.08626 0.83136 0.0
H2594 H 0.57141 0.10941 0.81271 0.0
H2595 H 0.49833 0.1294 0.74083 0.0
H2596 H 0.52445 0.12825 0.7264 0.0
H2597 H 0.54026 0.13033 0.80746 0.0
H2598 H 0.51403 0.13097 0.82192 0.0
H2599 H 0.5455 0.10743 0.782 0.0
H2600 H 0.55939 0.16718 0.76571 0.0
H2601 H 0.55466 0.19042 0.74687 0.0
H2602 H 0.55614 0.17239 0.66874 0.0
H2603 H 0.56066 0.14888 0.68714 0.0
C2604 C 0.62659 0.13188 0.74611 0.0
C2605 C 0.63022 0.13105 0.71934 0.0
C2606 C 0.61087 0.13119 0.75371 0.0
C2607 C 0.59845 0.12954 0.73468 0.0
C2608 C 0.60211 0.12873 0.70796 0.0
C2609 C 0.61779 0.12943 0.70038 0.0
C2610 C 0.58176 0.12894 0.74244 0.0
C2611 C 0.57793 0.14136 0.73152 0.0
C2612 C 0.56987 0.11652 0.76083 0.0
C2613 C 0.57269 0.1025 0.77209 0.0
C2614 C 0.57491 0.0909 0.7555 0.0
C2615 C 0.57782 0.07788 0.76624 0.0
C2616 C 0.57837 0.07623 0.79356 0.0
C2617 C 0.57598 0.08757 0.8102 0.0
C2618 C 0.5731 0.10063 0.79955 0.0
C2619 C 0.50737 0.12957 0.75553 0.0
C2620 C 0.50415 0.13036 0.78249 0.0
C2621 C 0.52234 0.12898 0.74728 0.0
C2622 C 0.53452 0.12945 0.76582 0.0
C2623 C 0.53112 0.12995 0.79275 0.0
C2624 C 0.51612 0.13038 0.80098 0.0
C2625 C 0.5509 0.12961 0.75737 0.0
C2626 C 0.55469 0.1171 0.76816 0.0
C2627 C 0.56279 0.14198 0.7389 0.0
C2628 C 0.56018 0.15617 0.72781 0.0
C2629 C 0.55859 0.1681 0.74452 0.0
C2630 C 0.55596 0.18133 0.73392 0.0
C2631 C 0.55505 0.18285 0.70663 0.0
C2632 C 0.55682 0.17118 0.68987 0.0
C2633 C 0.55943 0.15791 0.70037 0.0
H2634 H 0.55301 0.1931 0.69846 0.0
H2635 H 0.58062 0.06615 0.80184 0.0
H2636 H 0.37913 0.49396 0.73972 0.0
H2637 H 0.40669 0.51983 0.72447 0.0
H2638 H 0.41065 0.54614 0.79803 0.0
H2639 H 0.38371 0.52036 0.81365 0.0
H2640 H 0.41331 0.56384 0.73911 0.0
H2641 H 0.43534 0.5366 0.8032 0.0
H2642 H 0.43763 0.51113 0.81859 0.0
H2643 H 0.45934 0.50871 0.74387 0.0
H2644 H 0.45661 0.53378 0.72777 0.0
H2645 H 0.51119 0.63261 0.75712 0.0
H2646 H 0.48484 0.60473 0.76944 0.0
H2647 H 0.46825 0.59578 0.6882 0.0
H2648 H 0.49454 0.62336 0.67572 0.0
H2649 H 0.47188 0.56859 0.74952 0.0
H2650 H 0.42292 0.58019 0.6907 0.0
H2651 H 0.41999 0.60478 0.67281 0.0
H2652 H 0.45243 0.63838 0.73531 0.0
H2653 H 0.45533 0.61393 0.75376 0.0
C2654 C 0.38593 0.50527 0.75257 0.0
C2655 C 0.37932 0.50515 0.77788 0.0
C2656 C 0.40163 0.51998 0.74389 0.0
C2657 C 0.41067 0.5348 0.76024 0.0
C2658 C 0.40388 0.53478 0.78523 0.0
C2659 C 0.38851 0.52002 0.79411 0.0
C2660 C 0.42713 0.55055 0.75147 0.0
C2661 C 0.42611 0.56485 0.74118 0.0
C2662 C 0.44378 0.55184 0.75434 0.0
C2663 C 0.44549 0.53686 0.76415 0.0
C2664 C 0.44032 0.53044 0.78992 0.0
C2665 C 0.44172 0.51609 0.79878 0.0
C2666 C 0.44848 0.50819 0.78214 0.0
C2667 C 0.45395 0.51471 0.75666 0.0
C2668 C 0.45246 0.52897 0.74765 0.0
C2669 C 0.50196 0.62465 0.74191 0.0
C2670 C 0.5049 0.63021 0.71548 0.0
C2671 C 0.48698 0.6087 0.74893 0.0
C2672 C 0.47459 0.59824 0.72973 0.0
C2673 C 0.47762 0.60369 0.70333 0.0
C2674 C 0.49266 0.61946 0.69625 0.0
C2675 C 0.4581 0.582 0.73733 0.0
C2676 C 0.45909 0.56758 0.74731 0.0
C2677 C 0.44138 0.58055 0.73401 0.0
C2678 C 0.43948 0.59528 0.72343 0.0
C2679 C 0.42936 0.59281 0.70067 0.0
C2680 C 0.42772 0.60672 0.69042 0.0
C2681 C 0.43607 0.62315 0.70286 0.0
C2682 C 0.44603 0.62567 0.72563 0.0
C2683 C 0.4477 0.6118 0.73597 0.0
H2684 H 0.43479 0.63391 0.69488 0.0
H2685 H 0.44958 0.49709 0.78903 0.0
H2686 H 0.88414 0.38917 0.82519 0.0
H2687 H 0.88496 0.41621 0.81129 0.0
H2688 H 0.87318 0.39675 0.73151 0.0
H2689 H 0.8727 0.36966 0.74527 0.0
H2690 H 0.89802 0.43125 0.73251 0.0
H2691 H 0.84105 0.39521 0.77246 0.0
H2692 H 0.8206 0.37723 0.80782 0.0
H2693 H 0.84425 0.42159 0.86028 0.0
H2694 H 0.865 0.43977 0.82532 0.0
H2695 H 0.8706 0.48856 0.68244 0.0
H2696 H 0.87217 0.463 0.6975 0.0
H2697 H 0.88159 0.48322 0.77696 0.0
H2698 H 0.87948 0.50876 0.76199 0.0
H2699 H 0.85893 0.44901 0.7772 0.0
H2700 H 0.91518 0.48551 0.73731 0.0
H2701 H 0.93568 0.5038 0.70222 0.0
H2702 H 0.91404 0.45915 0.65026 0.0
H2703 H 0.89321 0.44066 0.68491 0.0
C2704 C 0.8818 0.39064 0.80463 0.0
C2705 C 0.87824 0.3772 0.78634 0.0
C2706 C 0.8822 0.4061 0.79674 0.0
C2707 C 0.87881 0.40841 0.77044 0.0
C2708 C 0.87575 0.39523 0.75194 0.0
C2709 C 0.87544 0.37975 0.75982 0.0
C2710 C 0.87822 0.42445 0.76243 0.0
C2711 C 0.88932 0.43502 0.74205 0.0
C2712 C 0.86724 0.42968 0.77538 0.0
C2713 C 0.85468 0.4188 0.79635 0.0
C2714 C 0.84196 0.40109 0.79159 0.0
C2715 C 0.83031 0.39087 0.81155 0.0
C2716 C 0.83115 0.39825 0.8363 0.0
C2717 C 0.84362 0.41588 0.84111 0.0
C2718 C 0.85532 0.42616 0.82123 0.0
C2719 C 0.87303 0.48762 0.70314 0.0
C2720 C 0.87501 0.50074 0.72103 0.0
C2721 C 0.87403 0.47301 0.71171 0.0
C2722 C 0.87735 0.4713 0.73829 0.0
C2723 C 0.87911 0.48428 0.75631 0.0
C2724 C 0.87793 0.49888 0.74776 0.0
C2725 C 0.87867 0.45579 0.74716 0.0
C2726 C 0.8677 0.44531 0.76771 0.0
C2727 C 0.88984 0.4507 0.73443 0.0
C2728 C 0.90253 0.46173 0.71366 0.0
C2729 C 0.91472 0.47962 0.71835 0.0
C2730 C 0.9264 0.49002 0.69854 0.0
C2731 C 0.92614 0.48265 0.67402 0.0
C2732 C 0.91422 0.46484 0.66927 0.0
C2733 C 0.90248 0.45439 0.689 0.0
H2734 H 0.93519 0.49072 0.6587 0.0
H2735 H 0.82212 0.39031 0.85173 0.0
loop_
_geom_bond_atom_site_label_1
_geom_bond_atom_site_label_2
_geom_bond_distance
_geom_bond_site_symmetry_2
_ccdc_geom_bond_type
Co0 O1 2.216 . S
Co0 O2 2.091 . S
Co0 O4 2.004 . S
Co0 O10 2.021 . S
Co0 O12 2.137 . S
Co0 O13 2.244 . S
O1 Co0 2.216 . S
O1 C8 1.247 . S
O2 Co0 2.091 . S
O2 C8 1.261 . S
C3 O12 1.247 . S
C3 O13 1.272 . S
O4 Co0 2.004 . S
O4 C9 1.259 . S
Co5 O6 2.061 . S
Co5 O11 2.052 . S
Co5 O13 2.135 . S
O6 Co5 2.061 . S
O6 C9 1.235 . S
C7 O10 1.238 . S
C7 O11 1.241 . S
C8 O1 1.247 . S
C8 O2 1.261 . S
C9 O4 1.259 . S
C9 O6 1.235 . S
O10 Co0 2.021 . S
O10 C7 1.238 . S
O11 Co5 2.052 . S
O11 C7 1.241 . S
O12 Co0 2.137 . S
O12 C3 1.247 . S
O13 Co0 2.244 . S
O13 C3 1.272 . S
O13 Co5 2.135 . S
Co14 O15 2.216 . S
Co14 O16 2.091 . S
Co14 O18 2.004 . S
Co14 O24 2.021 . S
Co14 O26 2.137 . S
Co14 O27 2.244 . S
O15 Co14 2.216 . S
O15 C22 1.247 . S
O16 Co14 2.091 . S
O16 C22 1.261 . S
C17 O26 1.247 . S
C17 O27 1.272 . S
O18 Co14 2.004 . S
O18 C23 1.259 . S
Co19 O20 2.061 . S
Co19 O25 2.052 . S
Co19 O27 2.135 . S
O20 Co19 2.061 . S
O20 C23 1.235 . S
C21 O24 1.238 . S
C21 O25 1.241 . S
C22 O15 1.247 . S
C22 O16 1.261 . S
C23 O18 1.259 . S
C23 O20 1.235 . S
O24 Co14 2.021 . S
O24 C21 1.238 . S
O25 Co19 2.052 . S
O25 C21 1.241 . S
O26 Co14 2.137 . S
O26 C17 1.247 . S
O27 Co14 2.244 . S
O27 C17 1.272 . S
O27 Co19 2.135 . S
Co28 O29 2.216 . S
Co28 O30 2.091 . S
Co28 O32 2.004 . S
Co28 O38 2.021 . S
Co28 O40 2.137 . S
Co28 O41 2.244 . S
O29 Co28 2.216 . S
O29 C36 1.247 . S
O30 Co28 2.091 . S
O30 C36 1.261 . S
C31 O40 1.247 . S
C31 O41 1.272 . S
O32 Co28 2.004 . S
O32 C37 1.259 . S
Co33 O34 2.061 . S
Co33 O39 2.052 . S
Co33 O41 2.135 . S
O34 Co33 2.061 . S
O34 C37 1.235 . S
C35 O38 1.238 . S
C35 O39 1.241 . S
C36 O29 1.247 . S
C36 O30 1.261 . S
C37 O32 1.259 . S
C37 O34 1.235 . S
O38 Co28 2.021 . S
O38 C35 1.238 . S
O39 Co33 2.052 . S
O39 C35 1.241 . S
O40 Co28 2.137 . S
O40 C31 1.247 . S
O41 Co28 2.244 . S
O41 C31 1.272 . S
O41 Co33 2.135 . S
Co42 O43 2.216 . S
Co42 O44 2.091 . S
Co42 O46 2.004 . S
Co42 O52 2.021 . S
Co42 O54 2.137 . S
Co42 O55 2.244 . S
O43 Co42 2.216 . S
O43 C50 1.247 . S
O44 Co42 2.091 . S
O44 C50 1.261 . S
C45 O54 1.247 . S
C45 O55 1.272 . S
O46 Co42 2.004 . S
O46 C51 1.259 . S
Co47 O48 2.061 . S
Co47 O53 2.052 . S
Co47 O55 2.135 . S
O48 Co47 2.061 . S
O48 C51 1.235 . S
C49 O52 1.238 . S
C49 O53 1.241 . S
C50 O43 1.247 . S
C50 O44 1.261 . S
C51 O46 1.259 . S
C51 O48 1.235 . S
O52 Co42 2.021 . S
O52 C49 1.238 . S
O53 Co47 2.052 . S
O53 C49 1.241 . S
O54 Co42 2.137 . S
O54 C45 1.247 . S
O55 Co42 2.244 . S
O55 C45 1.272 . S
O55 Co47 2.135 . S
Co56 O57 2.216 . S
Co56 O58 2.091 . S
Co56 O60 2.004 . S
Co56 O66 2.021 . S
Co56 O68 2.137 . S
Co56 O69 2.244 . S
O57 Co56 2.216 . S
O57 C64 1.247 . S
O58 Co56 2.091 . S
O58 C64 1.261 . S
C59 O68 1.247 . S
C59 O69 1.272 . S
O60 Co56 2.004 . S
O60 C65 1.259 . S
Co61 O62 2.061 . S
Co61 O67 2.052 . S
Co61 O69 2.135 . S
O62 Co61 2.061 . S
O62 C65 1.235 . S
C63 O66 1.238 . S
C63 O67 1.241 . S
C64 O57 1.247 . S
C64 O58 1.261 . S
C65 O60 1.259 . S
C65 O62 1.235 . S
O66 Co56 2.021 . S
O66 C63 1.238 . S
O67 Co61 2.052 . S
O67 C63 1.241 . S
O68 Co56 2.137 . S
O68 C59 1.247 . S
O69 Co56 2.244 . S
O69 C59 1.272 . S
O69 Co61 2.135 . S
Co70 O71 2.216 . S
Co70 O72 2.091 . S
Co70 O74 2.004 . S
Co70 O80 2.021 . S
Co70 O82 2.137 . S
Co70 O83 2.244 . S
O71 Co70 2.216 . S
O71 C78 1.247 . S
O72 Co70 2.091 . S
O72 C78 1.261 . S
C73 O82 1.247 . S
C73 O83 1.272 . S
O74 Co70 2.004 . S
O74 C79 1.259 . S
Co75 O76 2.061 . S
Co75 O81 2.052 . S
Co75 O83 2.135 . S
O76 Co75 2.061 . S
O76 C79 1.235 . S
C77 O80 1.238 . S
C77 O81 1.241 . S
C78 O71 1.247 . S
C78 O72 1.261 . S
C79 O74 1.259 . S
C79 O76 1.235 . S
O80 Co70 2.021 . S
O80 C77 1.238 . S
O81 Co75 2.052 . S
O81 C77 1.241 . S
O82 Co70 2.137 . S
O82 C73 1.247 . S
O83 Co70 2.244 . S
O83 C73 1.272 . S
O83 Co75 2.135 . S
Co84 O85 2.216 . S
Co84 O86 2.091 . S
Co84 O88 2.004 . S
Co84 O94 2.021 . S
Co84 O96 2.137 . S
Co84 O97 2.244 . S
O85 Co84 2.216 . S
O85 C92 1.247 . S
O86 Co84 2.091 . S
O86 C92 1.261 . S
C87 O96 1.247 . S
C87 O97 1.272 . S
O88 Co84 2.004 . S
O88 C93 1.259 . S
Co89 O90 2.061 . S
Co89 O95 2.052 . S
Co89 O97 2.135 . S
O90 Co89 2.061 . S
O90 C93 1.235 . S
C91 O94 1.238 . S
C91 O95 1.241 . S
C92 O85 1.247 . S
C92 O86 1.261 . S
C93 O88 1.259 . S
C93 O90 1.235 . S
O94 Co84 2.021 . S
O94 C91 1.238 . S
O95 Co89 2.052 . S
O95 C91 1.241 . S
O96 Co84 2.137 . S
O96 C87 1.247 . S
O97 Co84 2.244 . S
O97 C87 1.272 . S
O97 Co89 2.135 . S
Co98 O99 2.216 . S
Co98 O100 2.091 . S
Co98 O102 2.004 . S
Co98 O108 2.021 . S
Co98 O110 2.137 . S
Co98 O111 2.244 . S
O99 Co98 2.216 . S
O99 C106 1.247 . S
O100 Co98 2.091 . S
O100 C106 1.261 . S
C101 O110 1.247 . S
C101 O111 1.272 . S
O102 Co98 2.004 . S
O102 C107 1.259 . S
Co103 O104 2.061 . S
Co103 O109 2.052 . S
Co103 O111 2.135 . S
O104 Co103 2.061 . S
O104 C107 1.235 . S
C105 O108 1.238 . S
C105 O109 1.241 . S
C106 O99 1.247 . S
C106 O100 1.261 . S
C107 O102 1.259 . S
C107 O104 1.235 . S
O108 Co98 2.021 . S
O108 C105 1.238 . S
O109 Co103 2.052 . S
O109 C105 1.241 . S
O110 Co98 2.137 . S
O110 C101 1.247 . S
O111 Co98 2.244 . S
O111 C101 1.272 . S
O111 Co103 2.135 . S
Co112 O113 2.216 . S
Co112 O114 2.091 . S
Co112 O116 2.004 . S
Co112 O122 2.021 . S
Co112 O124 2.137 . S
Co112 O125 2.244 . S
O113 Co112 2.216 . S
O113 C120 1.247 . S
O114 Co112 2.091 . S
O114 C120 1.261 . S
C115 O124 1.247 . S
C115 O125 1.272 . S
O116 Co112 2.004 . S
O116 C121 1.259 . S
Co117 O118 2.061 . S
Co117 O123 2.052 . S
Co117 O125 2.135 . S
O118 Co117 2.061 . S
O118 C121 1.235 . S
C119 O122 1.238 . S
C119 O123 1.241 . S
C120 O113 1.247 . S
C120 O114 1.261 . S
C121 O116 1.259 . S
C121 O118 1.235 . S
O122 Co112 2.021 . S
O122 C119 1.238 . S
O123 Co117 2.052 . S
O123 C119 1.241 . S
O124 Co112 2.137 . S
O124 C115 1.247 . S
O125 Co112 2.244 . S
O125 C115 1.272 . S
O125 Co117 2.135 . S
Co126 O127 2.216 . S
Co126 O128 2.091 . S
Co126 O130 2.004 . S
Co126 O136 2.021 . S
Co126 O138 2.137 . S
Co126 O139 2.244 . S
O127 Co126 2.216 . S
O127 C134 1.247 . S
O128 Co126 2.091 . S
O128 C134 1.261 . S
C129 O138 1.247 . S
C129 O139 1.272 . S
O130 Co126 2.004 . S
O130 C135 1.259 . S
Co131 O132 2.061 . S
Co131 O137 2.052 . S
Co131 O139 2.135 . S
O132 Co131 2.061 . S
O132 C135 1.235 . S
C133 O136 1.238 . S
C133 O137 1.241 . S
C134 O127 1.247 . S
C134 O128 1.261 . S
C135 O130 1.259 . S
C135 O132 1.235 . S
O136 Co126 2.021 . S
O136 C133 1.238 . S
O137 Co131 2.052 . S
O137 C133 1.241 . S
O138 Co126 2.137 . S
O138 C129 1.247 . S
O139 Co126 2.244 . S
O139 C129 1.272 . S
O139 Co131 2.135 . S
Co140 O141 2.216 . S
Co140 O142 2.091 . S
Co140 O144 2.004 . S
Co140 O150 2.021 . S
Co140 O152 2.137 . S
Co140 O153 2.244 . S
O141 Co140 2.216 . S
O141 C148 1.247 . S
O142 Co140 2.091 . S
O142 C148 1.261 . S
C143 O152 1.247 . S
C143 O153 1.272 . S
O144 Co140 2.004 . S
O144 C149 1.259 . S
Co145 O146 2.061 . S
Co145 O151 2.052 . S
Co145 O153 2.135 . S
O146 Co145 2.061 . S
O146 C149 1.235 . S
C147 O150 1.238 . S
C147 O151 1.241 . S
C148 O141 1.247 . S
C148 O142 1.261 . S
C149 O144 1.259 . S
C149 O146 1.235 . S
O150 Co140 2.021 . S
O150 C147 1.238 . S
O151 Co145 2.052 . S
O151 C147 1.241 . S
O152 Co140 2.137 . S
O152 C143 1.247 . S
O153 Co140 2.244 . S
O153 C143 1.272 . S
O153 Co145 2.135 . S
Co154 O155 2.216 . S
Co154 O156 2.091 . S
Co154 O158 2.004 . S
Co154 O164 2.021 . S
Co154 O166 2.137 . S
Co154 O167 2.244 . S
O155 Co154 2.216 . S
O155 C162 1.247 . S
O156 Co154 2.091 . S
O156 C162 1.261 . S
C157 O166 1.247 . S
C157 O167 1.272 . S
O158 Co154 2.004 . S
O158 C163 1.259 . S
Co159 O160 2.061 . S
Co159 O165 2.052 . S
Co159 O167 2.135 . S
O160 Co159 2.061 . S
O160 C163 1.235 . S
C161 O164 1.238 . S
C161 O165 1.241 . S
C162 O155 1.247 . S
C162 O156 1.261 . S
C163 O158 1.259 . S
C163 O160 1.235 . S
O164 Co154 2.021 . S
O164 C161 1.238 . S
O165 Co159 2.052 . S
O165 C161 1.241 . S
O166 Co154 2.137 . S
O166 C157 1.247 . S
O167 Co154 2.244 . S
O167 C157 1.272 . S
O167 Co159 2.135 . S
Co168 O169 2.216 . S
Co168 O170 2.091 . S
Co168 O172 2.004 . S
Co168 O178 2.021 . S
Co168 O180 2.137 . S
Co168 O181 2.244 . S
O169 Co168 2.216 . S
O169 C176 1.247 . S
O170 Co168 2.091 . S
O170 C176 1.261 . S
C171 O180 1.247 . S
C171 O181 1.272 . S
O172 Co168 2.004 . S
O172 C177 1.259 . S
Co173 O174 2.061 . S
Co173 O179 2.052 . S
Co173 O181 2.135 . S
O174 Co173 2.061 . S
O174 C177 1.235 . S
C175 O178 1.238 . S
C175 O179 1.241 . S
C176 O169 1.247 . S
C176 O170 1.261 . S
C177 O172 1.259 . S
C177 O174 1.235 . S
O178 Co168 2.021 . S
O178 C175 1.238 . S
O179 Co173 2.052 . S
O179 C175 1.241 . S
O180 Co168 2.137 . S
O180 C171 1.247 . S
O181 Co168 2.244 . S
O181 C171 1.272 . S
O181 Co173 2.135 . S
Co182 O183 2.216 . S
Co182 O184 2.091 . S
Co182 O186 2.004 . S
Co182 O192 2.021 . S
Co182 O194 2.137 . S
Co182 O195 2.244 . S
O183 Co182 2.216 . S
O183 C190 1.247 . S
O184 Co182 2.091 . S
O184 C190 1.261 . S
C185 O194 1.247 . S
C185 O195 1.272 . S
O186 Co182 2.004 . S
O186 C191 1.259 . S
Co187 O188 2.061 . S
Co187 O193 2.052 . S
Co187 O195 2.135 . S
O188 Co187 2.061 . S
O188 C191 1.235 . S
C189 O192 1.238 . S
C189 O193 1.241 . S
C190 O183 1.247 . S
C190 O184 1.261 . S
C191 O186 1.259 . S
C191 O188 1.235 . S
O192 Co182 2.021 . S
O192 C189 1.238 . S
O193 Co187 2.052 . S
O193 C189 1.241 . S
O194 Co182 2.137 . S
O194 C185 1.247 . S
O195 Co182 2.244 . S
O195 C185 1.272 . S
O195 Co187 2.135 . S
Co196 O197 2.216 . S
Co196 O198 2.091 . S
Co196 O200 2.004 . S
Co196 O206 2.021 . S
Co196 O208 2.137 . S
Co196 O209 2.244 . S
O197 Co196 2.216 . S
O197 C204 1.247 . S
O198 Co196 2.091 . S
O198 C204 1.261 . S
C199 O208 1.247 . S
C199 O209 1.272 . S
O200 Co196 2.004 . S
O200 C205 1.259 . S
Co201 O202 2.061 . S
Co201 O207 2.052 . S
Co201 O209 2.135 . S
O202 Co201 2.061 . S
O202 C205 1.235 . S
C203 O206 1.238 . S
C203 O207 1.241 . S
C204 O197 1.247 . S
C204 O198 1.261 . S
C205 O200 1.259 . S
C205 O202 1.235 . S
O206 Co196 2.021 . S
O206 C203 1.238 . S
O207 Co201 2.052 . S
O207 C203 1.241 . S
O208 Co196 2.137 . S
O208 C199 1.247 . S
O209 Co196 2.244 . S
O209 C199 1.272 . S
O209 Co201 2.135 . S
Co210 O211 2.216 . S
Co210 O212 2.091 . S
Co210 O214 2.004 . S
Co210 O220 2.021 . S
Co210 O222 2.137 . S
Co210 O223 2.244 . S
O211 Co210 2.216 . S
O211 C218 1.247 . S
O212 Co210 2.091 . S
O212 C218 1.261 . S
C213 O222 1.247 . S
C213 O223 1.272 . S
O214 Co210 2.004 . S
O214 C219 1.259 . S
Co215 O216 2.061 . S
Co215 O221 2.052 . S
Co215 O223 2.135 . S
O216 Co215 2.061 . S
O216 C219 1.235 . S
C217 O220 1.238 . S
C217 O221 1.241 . S
C218 O211 1.247 . S
C218 O212 1.261 . S
C219 O214 1.259 . S
C219 O216 1.235 . S
O220 Co210 2.021 . S
O220 C217 1.238 . S
O221 Co215 2.052 . S
O221 C217 1.241 . S
O222 Co210 2.137 . S
O222 C213 1.247 . S
O223 Co210 2.244 . S
O223 C213 1.272 . S
O223 Co215 2.135 . S
Co224 O225 2.216 . S
Co224 O226 2.091 . S
Co224 O228 2.004 . S
Co224 O234 2.021 . S
Co224 O236 2.137 . S
Co224 O237 2.244 . S
O225 Co224 2.216 . S
O225 C232 1.247 . S
O226 Co224 2.091 . S
O226 C232 1.261 . S
C227 O236 1.247 . S
C227 O237 1.272 . S
O228 Co224 2.004 . S
O228 C233 1.259 . S
Co229 O230 2.061 . S
Co229 O235 2.052 . S
Co229 O237 2.135 . S
O230 Co229 2.061 . S
O230 C233 1.235 . S
C231 O234 1.238 . S
C231 O235 1.241 . S
C232 O225 1.247 . S
C232 O226 1.261 . S
C233 O228 1.259 . S
C233 O230 1.235 . S
O234 Co224 2.021 . S
O234 C231 1.238 . S
O235 Co229 2.052 . S
O235 C231 1.241 . S
O236 Co224 2.137 . S
O236 C227 1.247 . S
O237 Co224 2.244 . S
O237 C227 1.272 . S
O237 Co229 2.135 . S
Co238 O239 2.216 . S
Co238 O240 2.091 . S
Co238 O242 2.004 . S
Co238 O248 2.021 . S
Co238 O250 2.137 . S
Co238 O251 2.244 . S
O239 Co238 2.216 . S
O239 C246 1.247 . S
O240 Co238 2.091 . S
O240 C246 1.261 . S
C241 O250 1.247 . S
C241 O251 1.272 . S
O242 Co238 2.004 . S
O242 C247 1.259 . S
Co243 O244 2.061 . S
Co243 O249 2.052 . S
Co243 O251 2.135 . S
O244 Co243 2.061 . S
O244 C247 1.235 . S
C245 O248 1.238 . S
C245 O249 1.241 . S
C246 O239 1.247 . S
C246 O240 1.261 . S
C247 O242 1.259 . S
C247 O244 1.235 . S
O248 Co238 2.021 . S
O248 C245 1.238 . S
O249 Co243 2.052 . S
O249 C245 1.241 . S
O250 Co238 2.137 . S
O250 C241 1.247 . S
O251 Co238 2.244 . S
O251 C241 1.272 . S
O251 Co243 2.135 . S
Co252 O253 2.216 . S
Co252 O254 2.091 . S
Co252 O256 2.004 . S
Co252 O262 2.021 . S
Co252 O264 2.137 . S
Co252 O265 2.244 . S
O253 Co252 2.216 . S
O253 C260 1.247 . S
O254 Co252 2.091 . S
O254 C260 1.261 . S
C255 O264 1.247 . S
C255 O265 1.272 . S
O256 Co252 2.004 . S
O256 C261 1.259 . S
Co257 O258 2.061 . S
Co257 O263 2.052 . S
Co257 O265 2.135 . S
O258 Co257 2.061 . S
O258 C261 1.235 . S
C259 O262 1.238 . S
C259 O263 1.241 . S
C260 O253 1.247 . S
C260 O254 1.261 . S
C261 O256 1.259 . S
C261 O258 1.235 . S
O262 Co252 2.021 . S
O262 C259 1.238 . S
O263 Co257 2.052 . S
O263 C259 1.241 . S
O264 Co252 2.137 . S
O264 C255 1.247 . S
O265 Co252 2.244 . S
O265 C255 1.272 . S
O265 Co257 2.135 . S
Co266 O267 2.216 . S
Co266 O268 2.091 . S
Co266 O270 2.004 . S
Co266 O276 2.021 . S
Co266 O278 2.137 . S
Co266 O279 2.244 . S
O267 Co266 2.216 . S
O267 C274 1.247 . S
O268 Co266 2.091 . S
O268 C274 1.261 . S
C269 O278 1.247 . S
C269 O279 1.272 . S
O270 Co266 2.004 . S
O270 C275 1.259 . S
Co271 O272 2.061 . S
Co271 O277 2.052 . S
Co271 O279 2.135 . S
O272 Co271 2.061 . S
O272 C275 1.235 . S
C273 O276 1.238 . S
C273 O277 1.241 . S
C274 O267 1.247 . S
C274 O268 1.261 . S
C275 O270 1.259 . S
C275 O272 1.235 . S
O276 Co266 2.021 . S
O276 C273 1.238 . S
O277 Co271 2.052 . S
O277 C273 1.241 . S
O278 Co266 2.137 . S
O278 C269 1.247 . S
O279 Co266 2.244 . S
O279 C269 1.272 . S
O279 Co271 2.135 . S
Co280 O281 2.216 . S
Co280 O282 2.091 . S
Co280 O284 2.004 . S
Co280 O290 2.021 . S
Co280 O292 2.137 . S
Co280 O293 2.244 . S
O281 Co280 2.216 . S
O281 C288 1.247 . S
O282 Co280 2.091 . S
O282 C288 1.261 . S
C283 O292 1.247 . S
C283 O293 1.272 . S
O284 Co280 2.004 . S
O284 C289 1.259 . S
Co285 O286 2.061 . S
Co285 O291 2.052 . S
Co285 O293 2.135 . S
O286 Co285 2.061 . S
O286 C289 1.235 . S
C287 O290 1.238 . S
C287 O291 1.241 . S
C288 O281 1.247 . S
C288 O282 1.261 . S
C289 O284 1.259 . S
C289 O286 1.235 . S
O290 Co280 2.021 . S
O290 C287 1.238 . S
O291 Co285 2.052 . S
O291 C287 1.241 . S
O292 Co280 2.137 . S
O292 C283 1.247 . S
O293 Co280 2.244 . S
O293 C283 1.272 . S
O293 Co285 2.135 . S
Co294 O295 2.216 . S
Co294 O296 2.091 . S
Co294 O298 2.004 . S
Co294 O304 2.021 . S
Co294 O306 2.137 . S
Co294 O307 2.244 . S
O295 Co294 2.216 . S
O295 C302 1.247 . S
O296 Co294 2.091 . S
O296 C302 1.261 . S
C297 O306 1.247 . S
C297 O307 1.272 . S
O298 Co294 2.004 . S
O298 C303 1.259 . S
Co299 O300 2.061 . S
Co299 O305 2.052 . S
Co299 O307 2.135 . S
O300 Co299 2.061 . S
O300 C303 1.235 . S
C301 O304 1.238 . S
C301 O305 1.241 . S
C302 O295 1.247 . S
C302 O296 1.261 . S
C303 O298 1.259 . S
C303 O300 1.235 . S
O304 Co294 2.021 . S
O304 C301 1.238 . S
O305 Co299 2.052 . S
O305 C301 1.241 . S
O306 Co294 2.137 . S
O306 C297 1.247 . S
O307 Co294 2.244 . S
O307 C297 1.272 . S
O307 Co299 2.135 . S
Co308 O309 2.216 . S
Co308 O310 2.091 . S
Co308 O312 2.004 . S
Co308 O318 2.021 . S
Co308 O320 2.137 . S
Co308 O321 2.244 . S
O309 Co308 2.216 . S
O309 C316 1.247 . S
O310 Co308 2.091 . S
O310 C316 1.261 . S
C311 O320 1.247 . S
C311 O321 1.272 . S
O312 Co308 2.004 . S
O312 C317 1.259 . S
Co313 O314 2.061 . S
Co313 O319 2.052 . S
Co313 O321 2.135 . S
O314 Co313 2.061 . S
O314 C317 1.235 . S
C315 O318 1.238 . S
C315 O319 1.241 . S
C316 O309 1.247 . S
C316 O310 1.261 . S
C317 O312 1.259 . S
C317 O314 1.235 . S
O318 Co308 2.021 . S
O318 C315 1.238 . S
O319 Co313 2.052 . S
O319 C315 1.241 . S
O320 Co308 2.137 . S
O320 C311 1.247 . S
O321 Co308 2.244 . S
O321 C311 1.272 . S
O321 Co313 2.135 . S
Co322 O323 2.216 . S
Co322 O324 2.091 . S
Co322 O326 2.004 . S
Co322 O332 2.021 . S
Co322 O334 2.137 . S
Co322 O335 2.244 . S
O323 Co322 2.216 . S
O323 C330 1.247 . S
O324 Co322 2.091 . S
O324 C330 1.261 . S
C325 O334 1.247 . S
C325 O335 1.272 . S
O326 Co322 2.004 . S
O326 C331 1.259 . S
Co327 O328 2.061 . S
Co327 O333 2.052 . S
Co327 O335 2.135 . S
O328 Co327 2.061 . S
O328 C331 1.235 . S
C329 O332 1.238 . S
C329 O333 1.241 . S
C330 O323 1.247 . S
C330 O324 1.261 . S
C331 O326 1.259 . S
C331 O328 1.235 . S
O332 Co322 2.021 . S
O332 C329 1.238 . S
O333 Co327 2.052 . S
O333 C329 1.241 . S
O334 Co322 2.137 . S
O334 C325 1.247 . S
O335 Co322 2.244 . S
O335 C325 1.272 . S
O335 Co327 2.135 . S
H336 C354 0.951 . S
H337 C356 0.951 . S
H338 C358 0.950 . S
H339 C359 0.950 . S
H340 C361 0.950 . S
H341 C364 0.950 . S
H342 C365 0.950 . S
H343 C367 0.950 . S
H344 C368 0.950 1_565 S
H345 C369 0.951 . S
H346 C371 0.951 . S
H347 C373 0.950 . S
H348 C374 0.950 . S
H349 C376 0.950 . S
H350 C379 0.950 . S
H351 C380 0.950 . S
H352 C382 0.950 . S
H353 C383 0.950 1_545 S
C354 H336 0.951 . S
C354 C355 1.366 . S
C354 C356 1.388 . S
C355 C354 1.366 . S
C355 C359 1.385 . S
C356 H337 0.951 . S
C356 C354 1.388 . S
C356 C357 1.366 . S
C357 C356 1.366 . S
C357 C358 1.414 . S
C357 C360 1.499 . S
C358 H338 0.950 . S
C358 C357 1.414 . S
C358 C359 1.374 . S
C359 H339 0.950 . S
C359 C355 1.385 . S
C359 C358 1.374 . S
C360 C357 1.499 . S
C360 C361 1.373 . S
C360 C362 1.389 . S
C361 H340 0.950 . S
C361 C360 1.373 . S
C361 C377 1.377 1_545 S
C362 C360 1.389 . S
C362 C363 1.524 . S
C362 C376 1.377 1_545 S
C363 C362 1.524 . S
C363 C364 1.397 . S
C363 C368 1.363 . S
C364 H341 0.950 . S
C364 C363 1.397 . S
C364 C365 1.334 . S
C365 H342 0.950 . S
C365 C364 1.334 . S
C365 C366 1.287 . S
C366 C365 1.287 . S
C366 C367 1.524 . S
C366 H385 0.913 . S
C367 H343 0.950 . S
C367 C366 1.524 . S
C367 C368 1.415 . S
C368 H344 0.950 1_545 S
C368 C363 1.363 . S
C368 C367 1.415 . S
C369 H345 0.951 . S
C369 C370 1.366 . S
C369 C371 1.388 . S
C370 C369 1.366 . S
C370 C374 1.385 . S
C371 H346 0.951 . S
C371 C369 1.388 . S
C371 C372 1.366 . S
C372 C371 1.366 . S
C372 C373 1.414 . S
C372 C375 1.499 . S
C373 H347 0.950 . S
C373 C372 1.414 . S
C373 C374 1.374 . S
C374 H348 0.950 . S
C374 C370 1.385 . S
C374 C373 1.374 . S
C375 C372 1.499 . S
C375 C376 1.373 . S
C375 C377 1.389 . S
C376 H349 0.950 . S
C376 C362 1.377 1_565 S
C376 C375 1.373 . S
C377 C361 1.377 1_565 S
C377 C375 1.389 . S
C377 C378 1.524 . S
C378 C377 1.524 . S
C378 C379 1.397 . S
C378 C383 1.363 . S
C379 H350 0.950 . S
C379 C378 1.397 . S
C379 C380 1.334 . S
C380 H351 0.950 . S
C380 C379 1.334 . S
C380 C381 1.287 . S
C381 C380 1.287 . S
C381 C382 1.524 . S
C381 H384 0.999 . S
C382 H352 0.950 . S
C382 C381 1.524 . S
C382 C383 1.415 . S
C383 H353 0.950 1_565 S
C383 C378 1.363 . S
C383 C382 1.415 . S
H384 C381 0.999 . S
H385 C366 0.913 . S
H386 C404 0.951 . S
H387 C406 0.951 . S
H388 C408 0.950 . S
H389 C409 0.950 . S
H390 C411 0.950 . S
H391 C414 0.950 . S
H392 C415 0.950 . S
H393 C417 0.950 . S
H394 C418 0.950 . S
H395 C419 0.951 . S
H396 C421 0.951 . S
H397 C423 0.950 . S
H398 C424 0.950 . S
H399 C426 0.950 . S
H400 C429 0.950 . S
H401 C430 0.950 . S
H402 C432 0.950 . S
H403 C433 0.950 . S
C404 H386 0.951 . S
C404 C405 1.366 . S
C404 C406 1.388 . S
C405 C404 1.366 . S
C405 C409 1.385 . S
C406 H387 0.951 . S
C406 C404 1.388 . S
C406 C407 1.366 . S
C407 C406 1.366 . S
C407 C408 1.414 . S
C407 C410 1.499 . S
C408 H388 0.950 . S
C408 C407 1.414 . S
C408 C409 1.374 . S
C409 H389 0.950 . S
C409 C405 1.385 . S
C409 C408 1.374 . S
C410 C407 1.499 . S
C410 C411 1.373 . S
C410 C412 1.389 . S
C411 H390 0.950 . S
C411 C410 1.373 . S
C411 C427 1.377 . S
C412 C410 1.389 . S
C412 C413 1.524 . S
C412 C426 1.377 . S
C413 C412 1.524 . S
C413 C414 1.397 . S
C413 C418 1.363 . S
C414 H391 0.950 . S
C414 C413 1.397 . S
C414 C415 1.334 . S
C415 H392 0.950 . S
C415 C414 1.334 . S
C415 C416 1.287 . S
C416 C415 1.287 . S
C416 C417 1.524 . S
C416 H435 0.913 . S
C417 H393 0.950 . S
C417 C416 1.524 . S
C417 C418 1.415 . S
C418 H394 0.950 . S
C418 C413 1.363 . S
C418 C417 1.415 . S
C419 H395 0.951 . S
C419 C420 1.366 . S
C419 C421 1.388 . S
C420 C419 1.366 . S
C420 C424 1.385 . S
C421 H396 0.951 . S
C421 C419 1.388 . S
C421 C422 1.366 . S
C422 C421 1.366 . S
C422 C423 1.414 . S
C422 C425 1.499 . S
C423 H397 0.950 . S
C423 C422 1.414 . S
C423 C424 1.374 . S
C424 H398 0.950 . S
C424 C420 1.385 . S
C424 C423 1.374 . S
C425 C422 1.499 . S
C425 C426 1.373 . S
C425 C427 1.389 . S
C426 H399 0.950 . S
C426 C412 1.377 . S
C426 C425 1.373 . S
C427 C411 1.377 . S
C427 C425 1.389 . S
C427 C428 1.524 . S
C428 C427 1.524 . S
C428 C429 1.397 . S
C428 C433 1.363 . S
C429 H400 0.950 . S
C429 C428 1.397 . S
C429 C430 1.334 . S
C430 H401 0.950 . S
C430 C429 1.334 . S
C430 C431 1.287 . S
C431 C430 1.287 . S
C431 C432 1.524 . S
C431 H434 0.999 . S
C432 H402 0.950 . S
C432 C431 1.524 . S
C432 C433 1.415 . S
C433 H403 0.950 . S
C433 C428 1.363 . S
C433 C432 1.415 . S
H434 C431 0.999 . S
H435 C416 0.913 . S
H436 C454 0.951 . S
H437 C456 0.951 . S
H438 C458 0.950 . S
H439 C459 0.950 . S
H440 C461 0.950 . S
H441 C464 0.950 . S
H442 C465 0.950 . S
H443 C467 0.950 . S
H444 C468 0.950 . S
H445 C469 0.951 . S
H446 C471 0.951 . S
H447 C473 0.950 . S
H448 C474 0.950 . S
H449 C476 0.950 . S
H450 C479 0.950 . S
H451 C480 0.950 . S
H452 C482 0.950 . S
H453 C483 0.950 . S
C454 H436 0.951 . S
C454 C455 1.366 . S
C454 C456 1.388 . S
C455 C454 1.366 . S
C455 C459 1.385 . S
C456 H437 0.951 . S
C456 C454 1.388 . S
C456 C457 1.366 . S
C457 C456 1.366 . S
C457 C458 1.414 . S
C457 C460 1.499 . S
C458 H438 0.950 . S
C458 C457 1.414 . S
C458 C459 1.374 . S
C459 H439 0.950 . S
C459 C455 1.385 . S
C459 C458 1.374 . S
C460 C457 1.499 . S
C460 C461 1.373 . S
C460 C462 1.389 . S
C461 H440 0.950 . S
C461 C460 1.373 . S
C461 C477 1.377 1_655 S
C462 C460 1.389 . S
C462 C463 1.524 . S
C462 C476 1.377 1_655 S
C463 C462 1.524 . S
C463 C464 1.397 . S
C463 C468 1.363 . S
C464 H441 0.950 . S
C464 C463 1.397 . S
C464 C465 1.334 . S
C465 H442 0.950 . S
C465 C464 1.334 . S
C465 C466 1.287 . S
C466 C465 1.287 . S
C466 C467 1.524 . S
C466 H485 0.913 . S
C467 H443 0.950 . S
C467 C466 1.524 . S
C467 C468 1.415 . S
C468 H444 0.950 . S
C468 C463 1.363 . S
C468 C467 1.415 . S
C469 H445 0.951 . S
C469 C470 1.366 . S
C469 C471 1.388 . S
C470 C469 1.366 . S
C470 C474 1.385 . S
C471 H446 0.951 . S
C471 C469 1.388 . S
C471 C472 1.366 . S
C472 C471 1.366 . S
C472 C473 1.414 . S
C472 C475 1.499 . S
C473 H447 0.950 . S
C473 C472 1.414 . S
C473 C474 1.374 . S
C474 H448 0.950 . S
C474 C470 1.385 . S
C474 C473 1.374 . S
C475 C472 1.499 . S
C475 C476 1.373 . S
C475 C477 1.389 . S
C476 H449 0.950 . S
C476 C462 1.377 1_455 S
C476 C475 1.373 . S
C477 C461 1.377 1_455 S
C477 C475 1.389 . S
C477 C478 1.524 . S
C478 C477 1.524 . S
C478 C479 1.397 . S
C478 C483 1.363 . S
C479 H450 0.950 . S
C479 C478 1.397 . S
C479 C480 1.334 . S
C480 H451 0.950 . S
C480 C479 1.334 . S
C480 C481 1.287 . S
C481 C480 1.287 . S
C481 C482 1.524 . S
C481 H484 0.999 . S
C482 H452 0.950 . S
C482 C481 1.524 . S
C482 C483 1.415 . S
C483 H453 0.950 . S
C483 C478 1.363 . S
C483 C482 1.415 . S
H484 C481 0.999 . S
H485 C466 0.913 . S
H486 C504 0.951 . S
H487 C506 0.951 . S
H488 C508 0.950 . S
H489 C509 0.950 . S
H490 C511 0.950 . S
H491 C514 0.950 . S
H492 C515 0.950 . S
H493 C517 0.950 . S
H494 C518 0.950 . S
H495 C519 0.951 . S
H496 C521 0.951 . S
H497 C523 0.950 . S
H498 C524 0.950 . S
H499 C526 0.950 . S
H500 C529 0.950 . S
H501 C530 0.950 . S
H502 C532 0.950 . S
H503 C533 0.950 . S
C504 H486 0.951 . S
C504 C505 1.366 . S
C504 C506 1.388 . S
C505 C504 1.366 . S
C505 C509 1.385 . S
C506 H487 0.951 . S
C506 C504 1.388 . S
C506 C507 1.366 . S
C507 C506 1.366 . S
C507 C508 1.414 . S
C507 C510 1.499 . S
C508 H488 0.950 . S
C508 C507 1.414 . S
C508 C509 1.374 . S
C509 H489 0.950 . S
C509 C505 1.385 . S
C509 C508 1.374 . S
C510 C507 1.499 . S
C510 C511 1.373 . S
C510 C512 1.389 . S
C511 H490 0.950 . S
C511 C510 1.373 . S
C511 C527 1.377 1_565 S
C512 C510 1.389 . S
C512 C513 1.524 . S
C512 C526 1.377 1_565 S
C513 C512 1.524 . S
C513 C514 1.397 . S
C513 C518 1.363 . S
C514 H491 0.950 . S
C514 C513 1.397 . S
C514 C515 1.334 . S
C515 H492 0.950 . S
C515 C514 1.334 . S
C515 C516 1.287 . S
C516 C515 1.287 . S
C516 C517 1.524 . S
C516 H535 0.913 . S
C517 H493 0.950 . S
C517 C516 1.524 . S
C517 C518 1.415 . S
C518 H494 0.950 . S
C518 C513 1.363 . S
C518 C517 1.415 . S
C519 H495 0.951 . S
C519 C520 1.366 . S
C519 C521 1.388 . S
C520 C519 1.366 . S
C520 C524 1.385 . S
C521 H496 0.951 . S
C521 C519 1.388 . S
C521 C522 1.366 . S
C522 C521 1.366 . S
C522 C523 1.414 . S
C522 C525 1.499 . S
C523 H497 0.950 . S
C523 C522 1.414 . S
C523 C524 1.374 . S
C524 H498 0.950 . S
C524 C520 1.385 . S
C524 C523 1.374 . S
C525 C522 1.499 . S
C525 C526 1.373 . S
C525 C527 1.389 . S
C526 H499 0.950 . S
C526 C512 1.377 1_545 S
C526 C525 1.373 . S
C527 C511 1.377 1_545 S
C527 C525 1.389 . S
C527 C528 1.524 . S
C528 C527 1.524 . S
C528 C529 1.397 . S
C528 C533 1.363 . S
C529 H500 0.950 . S
C529 C528 1.397 . S
C529 C530 1.334 . S
C530 H501 0.950 . S
C530 C529 1.334 . S
C530 C531 1.287 . S
C531 C530 1.287 . S
C531 C532 1.524 . S
C531 H534 0.999 . S
C532 H502 0.950 . S
C532 C531 1.524 . S
C532 C533 1.415 . S
C533 H503 0.950 . S
C533 C528 1.363 . S
C533 C532 1.415 . S
H534 C531 0.999 . S
H535 C516 0.913 . S
H536 C554 0.951 . S
H537 C556 0.951 . S
H538 C558 0.950 . S
H539 C559 0.950 . S
H540 C561 0.950 . S
H541 C564 0.950 . S
H542 C565 0.950 . S
H543 C567 0.950 . S
H544 C568 0.950 . S
H545 C569 0.951 . S
H546 C571 0.951 . S
H547 C573 0.950 . S
H548 C574 0.950 . S
H549 C576 0.950 . S
H550 C579 0.950 . S
H551 C580 0.950 . S
H552 C582 0.950 . S
H553 C583 0.950 . S
C554 H536 0.951 . S
C554 C555 1.366 . S
C554 C556 1.388 . S
C555 C554 1.366 . S
C555 C559 1.385 . S
C556 H537 0.951 . S
C556 C554 1.388 . S
C556 C557 1.366 . S
C557 C556 1.366 . S
C557 C558 1.414 . S
C557 C560 1.499 . S
C558 H538 0.950 . S
C558 C557 1.414 . S
C558 C559 1.374 . S
C559 H539 0.950 . S
C559 C555 1.385 . S
C559 C558 1.374 . S
C560 C557 1.499 . S
C560 C561 1.373 . S
C560 C562 1.389 . S
C561 H540 0.950 . S
C561 C560 1.373 . S
C561 C577 1.377 . S
C562 C560 1.389 . S
C562 C563 1.524 . S
C562 C576 1.377 . S
C563 C562 1.524 . S
C563 C564 1.397 . S
C563 C568 1.363 . S
C564 H541 0.950 . S
C564 C563 1.397 . S
C564 C565 1.334 . S
C565 H542 0.950 . S
C565 C564 1.334 . S
C565 C566 1.287 . S
C566 C565 1.287 . S
C566 C567 1.524 . S
C566 H585 0.913 . S
C567 H543 0.950 . S
C567 C566 1.524 . S
C567 C568 1.415 . S
C568 H544 0.950 . S
C568 C563 1.363 . S
C568 C567 1.415 . S
C569 H545 0.951 . S
C569 C570 1.366 . S
C569 C571 1.388 . S
C570 C569 1.366 . S
C570 C574 1.385 . S
C571 H546 0.951 . S
C571 C569 1.388 . S
C571 C572 1.366 . S
C572 C571 1.366 . S
C572 C573 1.414 . S
C572 C575 1.499 . S
C573 H547 0.950 . S
C573 C572 1.414 . S
C573 C574 1.374 . S
C574 H548 0.950 . S
C574 C570 1.385 . S
C574 C573 1.374 . S
C575 C572 1.499 . S
C575 C576 1.373 . S
C575 C577 1.389 . S
C576 H549 0.950 . S
C576 C562 1.377 . S
C576 C575 1.373 . S
C577 C561 1.377 . S
C577 C575 1.389 . S
C577 C578 1.524 . S
C578 C577 1.524 . S
C578 C579 1.397 . S
C578 C583 1.363 . S
C579 H550 0.950 . S
C579 C578 1.397 . S
C579 C580 1.334 . S
C580 H551 0.950 . S
C580 C579 1.334 . S
C580 C581 1.287 . S
C581 C580 1.287 . S
C581 C582 1.524 . S
C581 H584 0.999 . S
C582 H552 0.950 . S
C582 C581 1.524 . S
C582 C583 1.415 . S
C583 H553 0.950 . S
C583 C578 1.363 . S
C583 C582 1.415 . S
H584 C581 0.999 . S
H585 C566 0.913 . S
H586 C604 0.951 . S
H587 C606 0.951 . S
H588 C608 0.950 . S
H589 C609 0.950 . S
H590 C611 0.950 . S
H591 C614 0.950 . S
H592 C615 0.950 . S
H593 C617 0.950 . S
H594 C618 0.950 . S
H595 C619 0.951 . S
H596 C621 0.951 . S
H597 C623 0.950 . S
H598 C624 0.950 . S
H599 C626 0.950 . S
H600 C629 0.950 . S
H601 C630 0.950 . S
H602 C632 0.950 . S
H603 C633 0.950 . S
C604 H586 0.951 . S
C604 C605 1.366 . S
C604 C606 1.388 . S
C605 C604 1.366 . S
C605 C609 1.385 . S
C606 H587 0.951 . S
C606 C604 1.388 . S
C606 C607 1.366 . S
C607 C606 1.366 . S
C607 C608 1.414 . S
C607 C610 1.499 . S
C608 H588 0.950 . S
C608 C607 1.414 . S
C608 C609 1.374 . S
C609 H589 0.950 . S
C609 C605 1.385 . S
C609 C608 1.374 . S
C610 C607 1.499 . S
C610 C611 1.373 . S
C610 C612 1.389 . S
C611 H590 0.950 . S
C611 C610 1.373 . S
C611 C627 1.377 1_455 S
C612 C610 1.389 . S
C612 C613 1.524 . S
C612 C626 1.377 1_455 S
C613 C612 1.524 . S
C613 C614 1.397 . S
C613 C618 1.363 . S
C614 H591 0.950 . S
C614 C613 1.397 . S
C614 C615 1.334 . S
C615 H592 0.950 . S
C615 C614 1.334 . S
C615 C616 1.287 . S
C616 C615 1.287 . S
C616 C617 1.524 . S
C616 H635 0.913 . S
C617 H593 0.950 . S
C617 C616 1.524 . S
C617 C618 1.415 . S
C618 H594 0.950 . S
C618 C613 1.363 . S
C618 C617 1.415 . S
C619 H595 0.951 . S
C619 C620 1.366 . S
C619 C621 1.388 . S
C620 C619 1.366 . S
C620 C624 1.385 . S
C621 H596 0.951 . S
C621 C619 1.388 . S
C621 C622 1.366 . S
C622 C621 1.366 . S
C622 C623 1.414 . S
C622 C625 1.499 . S
C623 H597 0.950 . S
C623 C622 1.414 . S
C623 C624 1.374 . S
C624 H598 0.950 . S
C624 C620 1.385 . S
C624 C623 1.374 . S
C625 C622 1.499 . S
C625 C626 1.373 . S
C625 C627 1.389 . S
C626 H599 0.950 . S
C626 C612 1.377 1_655 S
C626 C625 1.373 . S
C627 C611 1.377 1_655 S
C627 C625 1.389 . S
C627 C628 1.524 . S
C628 C627 1.524 . S
C628 C629 1.397 . S
C628 C633 1.363 . S
C629 H600 0.950 . S
C629 C628 1.397 . S
C629 C630 1.334 . S
C630 H601 0.950 . S
C630 C629 1.334 . S
C630 C631 1.287 . S
C631 C630 1.287 . S
C631 C632 1.524 . S
C631 H634 0.999 . S
C632 H602 0.950 . S
C632 C631 1.524 . S
C632 C633 1.415 . S
C633 H603 0.950 . S
C633 C628 1.363 . S
C633 C632 1.415 . S
H634 C631 0.999 . S
H635 C616 0.913 . S
H636 C654 0.951 . S
H637 C656 0.951 . S
H638 C658 0.950 . S
H639 C659 0.950 . S
H640 C661 0.950 . S
H641 C664 0.950 . S
H642 C665 0.950 . S
H643 C667 0.950 . S
H644 C668 0.950 . S
H645 C669 0.951 . S
H646 C671 0.951 . S
H647 C673 0.950 . S
H648 C674 0.950 . S
H649 C676 0.950 . S
H650 C679 0.950 . S
H651 C680 0.950 . S
H652 C682 0.950 . S
H653 C683 0.950 . S
C654 H636 0.951 . S
C654 C655 1.366 . S
C654 C656 1.388 . S
C655 C654 1.366 . S
C655 C659 1.385 . S
C656 H637 0.951 . S
C656 C654 1.388 . S
C656 C657 1.366 . S
C657 C656 1.366 . S
C657 C658 1.414 . S
C657 C660 1.499 . S
C658 H638 0.950 . S
C658 C657 1.414 . S
C658 C659 1.374 . S
C659 H639 0.950 . S
C659 C655 1.385 . S
C659 C658 1.374 . S
C660 C657 1.499 . S
C660 C661 1.373 . S
C660 C662 1.389 . S
C661 H640 0.950 . S
C661 C660 1.373 . S
C661 C677 1.377 1_565 S
C662 C660 1.389 . S
C662 C663 1.524 . S
C662 C676 1.377 1_565 S
C663 C662 1.524 . S
C663 C664 1.397 . S
C663 C668 1.363 1_565 S
C664 H641 0.950 . S
C664 C663 1.397 . S
C664 C665 1.334 . S
C665 H642 0.950 . S
C665 C664 1.334 . S
C665 C666 1.287 . S
C666 C665 1.287 . S
C666 C667 1.524 1_565 S
C666 H685 0.913 . S
C667 H643 0.950 . S
C667 C666 1.524 1_545 S
C667 C668 1.415 . S
C668 H644 0.950 . S
C668 C663 1.363 1_545 S
C668 C667 1.415 . S
C669 H645 0.951 . S
C669 C670 1.366 . S
C669 C671 1.388 . S
C670 C669 1.366 . S
C670 C674 1.385 . S
C671 H646 0.951 . S
C671 C669 1.388 . S
C671 C672 1.366 . S
C672 C671 1.366 . S
C672 C673 1.414 . S
C672 C675 1.499 . S
C673 H647 0.950 . S
C673 C672 1.414 . S
C673 C674 1.374 . S
C674 H648 0.950 . S
C674 C670 1.385 . S
C674 C673 1.374 . S
C675 C672 1.499 . S
C675 C676 1.373 . S
C675 C677 1.389 . S
C676 H649 0.950 . S
C676 C662 1.377 1_545 S
C676 C675 1.373 . S
C677 C661 1.377 1_545 S
C677 C675 1.389 . S
C677 C678 1.524 . S
C678 C677 1.524 . S
C678 C679 1.397 . S
C678 C683 1.363 1_545 S
C679 H650 0.950 . S
C679 C678 1.397 . S
C679 C680 1.334 . S
C680 H651 0.950 . S
C680 C679 1.334 . S
C680 C681 1.287 . S
C681 C680 1.287 . S
C681 C682 1.524 1_545 S
C681 H684 0.999 . S
C682 H652 0.950 . S
C682 C681 1.524 1_565 S
C682 C683 1.415 . S
C683 H653 0.950 . S
C683 C678 1.363 1_565 S
C683 C682 1.415 . S
H684 C681 0.999 . S
H685 C666 0.913 . S
H686 C704 0.951 . S
H687 C706 0.951 . S
H688 C708 0.950 . S
H689 C709 0.950 . S
H690 C711 0.950 . S
H691 C714 0.950 . S
H692 C715 0.950 . S
H693 C717 0.950 . S
H694 C718 0.950 . S
H695 C719 0.951 . S
H696 C721 0.951 . S
H697 C723 0.950 . S
H698 C724 0.950 . S
H699 C726 0.950 . S
H700 C729 0.950 . S
H701 C730 0.950 . S
H702 C732 0.950 . S
H703 C733 0.950 . S
C704 H686 0.951 . S
C704 C705 1.366 . S
C704 C706 1.388 . S
C705 C704 1.366 . S
C705 C709 1.385 . S
C706 H687 0.951 . S
C706 C704 1.388 . S
C706 C707 1.366 . S
C707 C706 1.366 . S
C707 C708 1.414 . S
C707 C710 1.499 . S
C708 H688 0.950 . S
C708 C707 1.414 . S
C708 C709 1.374 . S
C709 H689 0.950 . S
C709 C705 1.385 . S
C709 C708 1.374 . S
C710 C707 1.499 . S
C710 C711 1.373 . S
C710 C712 1.389 . S
C711 H690 0.950 . S
C711 C710 1.373 . S
C711 C727 1.377 . S
C712 C710 1.389 . S
C712 C713 1.524 . S
C712 C726 1.377 . S
C713 C712 1.524 . S
C713 C714 1.397 . S
C713 C718 1.363 . S
C714 H691 0.950 . S
C714 C713 1.397 . S
C714 C715 1.334 . S
C715 H692 0.950 . S
C715 C714 1.334 . S
C715 C716 1.287 . S
C716 C715 1.287 . S
C716 C717 1.524 . S
C716 H735 0.913 . S
C717 H693 0.950 . S
C717 C716 1.524 . S
C717 C718 1.415 . S
C718 H694 0.950 . S
C718 C713 1.363 . S
C718 C717 1.415 . S
C719 H695 0.951 . S
C719 C720 1.366 . S
C719 C721 1.388 . S
C720 C719 1.366 . S
C720 C724 1.385 . S
C721 H696 0.951 . S
C721 C719 1.388 . S
C721 C722 1.366 . S
C722 C721 1.366 . S
C722 C723 1.414 . S
C722 C725 1.499 . S
C723 H697 0.950 . S
C723 C722 1.414 . S
C723 C724 1.374 . S
C724 H698 0.950 . S
C724 C720 1.385 . S
C724 C723 1.374 . S
C725 C722 1.499 . S
C725 C726 1.373 . S
C725 C727 1.389 . S
C726 H699 0.950 . S
C726 C712 1.377 . S
C726 C725 1.373 . S
C727 C711 1.377 . S
C727 C725 1.389 . S
C727 C728 1.524 . S
C728 C727 1.524 . S
C728 C729 1.397 . S
C728 C733 1.363 . S
C729 H700 0.950 . S
C729 C728 1.397 . S
C729 C730 1.334 . S
C730 H701 0.950 . S
C730 C729 1.334 . S
C730 C731 1.287 . S
C731 C730 1.287 . S
C731 C732 1.524 . S
C731 H734 0.999 . S
C732 H702 0.950 . S
C732 C731 1.524 . S
C732 C733 1.415 . S
C733 H703 0.950 . S
C733 C728 1.363 . S
C733 C732 1.415 . S
H734 C731 0.999 . S
H735 C716 0.913 . S
H736 C754 0.951 . S
H737 C756 0.951 . S
H738 C758 0.950 . S
H739 C759 0.950 . S
H740 C761 0.950 . S
H741 C764 0.950 . S
H742 C765 0.950 . S
H743 C767 0.950 . S
H744 C768 0.950 . S
H745 C769 0.951 . S
H746 C771 0.951 . S
H747 C773 0.950 . S
H748 C774 0.950 . S
H749 C776 0.950 . S
H750 C779 0.950 . S
H751 C780 0.950 . S
H752 C782 0.950 . S
H753 C783 0.950 . S
C754 H736 0.951 . S
C754 C755 1.366 . S
C754 C756 1.388 . S
C755 C754 1.366 . S
C755 C759 1.385 . S
C756 H737 0.951 . S
C756 C754 1.388 . S
C756 C757 1.366 . S
C757 C756 1.366 . S
C757 C758 1.414 . S
C757 C760 1.499 . S
C758 H738 0.950 . S
C758 C757 1.414 . S
C758 C759 1.374 . S
C759 H739 0.950 . S
C759 C755 1.385 . S
C759 C758 1.374 . S
C760 C757 1.499 . S
C760 C761 1.373 . S
C760 C762 1.389 . S
C761 H740 0.950 . S
C761 C760 1.373 . S
C761 C777 1.377 1_655 S
C762 C760 1.389 . S
C762 C763 1.524 . S
C762 C776 1.377 1_655 S
C763 C762 1.524 . S
C763 C764 1.397 . S
C763 C768 1.363 . S
C764 H741 0.950 . S
C764 C763 1.397 . S
C764 C765 1.334 . S
C765 H742 0.950 . S
C765 C764 1.334 . S
C765 C766 1.287 . S
C766 C765 1.287 . S
C766 C767 1.524 . S
C766 H785 0.913 . S
C767 H743 0.950 . S
C767 C766 1.524 . S
C767 C768 1.415 . S
C768 H744 0.950 . S
C768 C763 1.363 . S
C768 C767 1.415 . S
C769 H745 0.951 . S
C769 C770 1.366 . S
C769 C771 1.388 . S
C770 C769 1.366 . S
C770 C774 1.385 . S
C771 H746 0.951 . S
C771 C769 1.388 . S
C771 C772 1.366 . S
C772 C771 1.366 . S
C772 C773 1.414 . S
C772 C775 1.499 . S
C773 H747 0.950 . S
C773 C772 1.414 . S
C773 C774 1.374 . S
C774 H748 0.950 . S
C774 C770 1.385 . S
C774 C773 1.374 . S
C775 C772 1.499 . S
C775 C776 1.373 . S
C775 C777 1.389 . S
C776 H749 0.950 . S
C776 C762 1.377 1_455 S
C776 C775 1.373 . S
C777 C761 1.377 1_455 S
C777 C775 1.389 . S
C777 C778 1.524 . S
C778 C777 1.524 . S
C778 C779 1.397 . S
C778 C783 1.363 . S
C779 H750 0.950 . S
C779 C778 1.397 . S
C779 C780 1.334 . S
C780 H751 0.950 . S
C780 C779 1.334 . S
C780 C781 1.287 . S
C781 C780 1.287 . S
C781 C782 1.524 . S
C781 H784 0.999 . S
C782 H752 0.950 . S
C782 C781 1.524 . S
C782 C783 1.415 . S
C783 H753 0.950 . S
C783 C778 1.363 . S
C783 C782 1.415 . S
H784 C781 0.999 . S
H785 C766 0.913 . S
H786 C804 0.951 . S
H787 C806 0.951 . S
H788 C808 0.950 . S
H789 C809 0.950 . S
H790 C811 0.950 . S
H791 C814 0.950 . S
H792 C815 0.950 . S
H793 C817 0.950 . S
H794 C818 0.950 . S
H795 C819 0.951 . S
H796 C821 0.951 . S
H797 C823 0.950 . S
H798 C824 0.950 . S
H799 C826 0.950 . S
H800 C829 0.950 . S
H801 C830 0.950 . S
H802 C832 0.950 . S
H803 C833 0.950 . S
C804 H786 0.951 . S
C804 C805 1.366 . S
C804 C806 1.388 . S
C805 C804 1.366 . S
C805 C809 1.385 . S
C806 H787 0.951 . S
C806 C804 1.388 . S
C806 C807 1.366 . S
C807 C806 1.366 . S
C807 C808 1.414 . S
C807 C810 1.499 . S
C808 H788 0.950 . S
C808 C807 1.414 . S
C808 C809 1.374 . S
C809 H789 0.950 . S
C809 C805 1.385 . S
C809 C808 1.374 . S
C810 C807 1.499 . S
C810 C811 1.373 . S
C810 C812 1.389 . S
C811 H790 0.950 . S
C811 C810 1.373 . S
C811 C827 1.377 1_545 S
C812 C810 1.389 . S
C812 C813 1.524 . S
C812 C826 1.377 1_545 S
C813 C812 1.524 . S
C813 C814 1.397 . S
C813 C818 1.363 . S
C814 H791 0.950 . S
C814 C813 1.397 . S
C814 C815 1.334 . S
C815 H792 0.950 . S
C815 C814 1.334 . S
C815 C816 1.287 . S
C816 C815 1.287 . S
C816 C817 1.524 . S
C816 H835 0.913 . S
C817 H793 0.950 . S
C817 C816 1.524 . S
C817 C818 1.415 . S
C818 H794 0.950 . S
C818 C813 1.363 . S
C818 C817 1.415 . S
C819 H795 0.951 . S
C819 C820 1.366 . S
C819 C821 1.388 . S
C820 C819 1.366 . S
C820 C824 1.385 . S
C821 H796 0.951 . S
C821 C819 1.388 . S
C821 C822 1.366 . S
C822 C821 1.366 . S
C822 C823 1.414 . S
C822 C825 1.499 . S
C823 H797 0.950 . S
C823 C822 1.414 . S
C823 C824 1.374 . S
C824 H798 0.950 . S
C824 C820 1.385 . S
C824 C823 1.374 . S
C825 C822 1.499 . S
C825 C826 1.373 . S
C825 C827 1.389 . S
C826 H799 0.950 . S
C826 C812 1.377 1_565 S
C826 C825 1.373 . S
C827 C811 1.377 1_565 S
C827 C825 1.389 . S
C827 C828 1.524 . S
C828 C827 1.524 . S
C828 C829 1.397 . S
C828 C833 1.363 . S
C829 H800 0.950 . S
C829 C828 1.397 . S
C829 C830 1.334 . S
C830 H801 0.950 . S
C830 C829 1.334 . S
C830 C831 1.287 . S
C831 C830 1.287 . S
C831 C832 1.524 . S
C831 H834 0.999 . S
C832 H802 0.950 . S
C832 C831 1.524 . S
C832 C833 1.415 . S
C833 H803 0.950 . S
C833 C828 1.363 . S
C833 C832 1.415 . S
H834 C831 0.999 . S
H835 C816 0.913 . S
H836 C854 0.951 . S
H837 C856 0.951 . S
H838 C858 0.950 . S
H839 C859 0.950 . S
H840 C861 0.950 . S
H841 C864 0.950 . S
H842 C865 0.950 . S
H843 C867 0.950 . S
H844 C868 0.950 . S
H845 C869 0.951 . S
H846 C871 0.951 . S
H847 C873 0.950 . S
H848 C874 0.950 . S
H849 C876 0.950 . S
H850 C879 0.950 . S
H851 C880 0.950 . S
H852 C882 0.950 . S
H853 C883 0.950 . S
C854 H836 0.951 . S
C854 C855 1.366 . S
C854 C856 1.388 . S
C855 C854 1.366 . S
C855 C859 1.385 . S
C856 H837 0.951 . S
C856 C854 1.388 . S
C856 C857 1.366 . S
C857 C856 1.366 . S
C857 C858 1.414 . S
C857 C860 1.499 . S
C858 H838 0.950 . S
C858 C857 1.414 . S
C858 C859 1.374 . S
C859 H839 0.950 . S
C859 C855 1.385 . S
C859 C858 1.374 . S
C860 C857 1.499 . S
C860 C861 1.373 . S
C860 C862 1.389 . S
C861 H840 0.950 . S
C861 C860 1.373 . S
C861 C877 1.377 . S
C862 C860 1.389 . S
C862 C863 1.524 . S
C862 C876 1.377 . S
C863 C862 1.524 . S
C863 C864 1.397 . S
C863 C868 1.363 . S
C864 H841 0.950 . S
C864 C863 1.397 . S
C864 C865 1.334 . S
C865 H842 0.950 . S
C865 C864 1.334 . S
C865 C866 1.287 . S
C866 C865 1.287 . S
C866 C867 1.524 . S
C866 H885 0.913 . S
C867 H843 0.950 . S
C867 C866 1.524 . S
C867 C868 1.415 . S
C868 H844 0.950 . S
C868 C863 1.363 . S
C868 C867 1.415 . S
C869 H845 0.951 . S
C869 C870 1.366 . S
C869 C871 1.388 . S
C870 C869 1.366 . S
C870 C874 1.385 . S
C871 H846 0.951 . S
C871 C869 1.388 . S
C871 C872 1.366 . S
C872 C871 1.366 . S
C872 C873 1.414 . S
C872 C875 1.499 . S
C873 H847 0.950 . S
C873 C872 1.414 . S
C873 C874 1.374 . S
C874 H848 0.950 . S
C874 C870 1.385 . S
C874 C873 1.374 . S
C875 C872 1.499 . S
C875 C876 1.373 . S
C875 C877 1.389 . S
C876 H849 0.950 . S
C876 C862 1.377 . S
C876 C875 1.373 . S
C877 C861 1.377 . S
C877 C875 1.389 . S
C877 C878 1.524 . S
C878 C877 1.524 . S
C878 C879 1.397 . S
C878 C883 1.363 . S
C879 H850 0.950 . S
C879 C878 1.397 . S
C879 C880 1.334 . S
C880 H851 0.950 . S
C880 C879 1.334 . S
C880 C881 1.287 . S
C881 C880 1.287 . S
C881 C882 1.524 . S
C881 H884 0.999 . S
C882 H852 0.950 . S
C882 C881 1.524 . S
C882 C883 1.415 . S
C883 H853 0.950 . S
C883 C878 1.363 . S
C883 C882 1.415 . S
H884 C881 0.999 . S
H885 C866 0.913 . S
H886 C904 0.951 . S
H887 C906 0.951 . S
H888 C908 0.950 . S
H889 C909 0.950 . S
H890 C911 0.950 . S
H891 C914 0.950 . S
H892 C915 0.950 . S
H893 C917 0.950 . S
H894 C918 0.950 . S
H895 C919 0.951 . S
H896 C921 0.951 . S
H897 C923 0.950 . S
H898 C924 0.950 . S
H899 C926 0.950 . S
H900 C929 0.950 . S
H901 C930 0.950 . S
H902 C932 0.950 . S
H903 C933 0.950 . S
C904 H886 0.951 . S
C904 C905 1.366 . S
C904 C906 1.388 . S
C905 C904 1.366 . S
C905 C909 1.385 . S
C906 H887 0.951 . S
C906 C904 1.388 . S
C906 C907 1.366 . S
C907 C906 1.366 . S
C907 C908 1.414 . S
C907 C910 1.499 . S
C908 H888 0.950 . S
C908 C907 1.414 . S
C908 C909 1.374 . S
C909 H889 0.950 . S
C909 C905 1.385 . S
C909 C908 1.374 . S
C910 C907 1.499 . S
C910 C911 1.373 . S
C910 C912 1.389 . S
C911 H890 0.950 . S
C911 C910 1.373 . S
C911 C927 1.377 1_455 S
C912 C910 1.389 . S
C912 C913 1.524 . S
C912 C926 1.377 1_455 S
C913 C912 1.524 . S
C913 C914 1.397 . S
C913 C918 1.363 1_455 S
C914 H891 0.950 . S
C914 C913 1.397 . S
C914 C915 1.334 . S
C915 H892 0.950 . S
C915 C914 1.334 . S
C915 C916 1.287 . S
C916 C915 1.287 . S
C916 C917 1.524 1_455 S
C916 H935 0.913 . S
C917 H893 0.950 . S
C917 C916 1.524 1_655 S
C917 C918 1.415 . S
C918 H894 0.950 . S
C918 C913 1.363 1_655 S
C918 C917 1.415 . S
C919 H895 0.951 . S
C919 C920 1.366 . S
C919 C921 1.388 . S
C920 C919 1.366 . S
C920 C924 1.385 . S
C921 H896 0.951 . S
C921 C919 1.388 . S
C921 C922 1.366 . S
C922 C921 1.366 . S
C922 C923 1.414 . S
C922 C925 1.499 . S
C923 H897 0.950 . S
C923 C922 1.414 . S
C923 C924 1.374 . S
C924 H898 0.950 . S
C924 C920 1.385 . S
C924 C923 1.374 . S
C925 C922 1.499 . S
C925 C926 1.373 . S
C925 C927 1.389 . S
C926 H899 0.950 . S
C926 C912 1.377 1_655 S
C926 C925 1.373 . S
C927 C911 1.377 1_655 S
C927 C925 1.389 . S
C927 C928 1.524 . S
C928 C927 1.524 . S
C928 C929 1.397 . S
C928 C933 1.363 1_655 S
C929 H900 0.950 . S
C929 C928 1.397 . S
C929 C930 1.334 . S
C930 H901 0.950 . S
C930 C929 1.334 . S
C930 C931 1.287 . S
C931 C930 1.287 . S
C931 C932 1.524 1_655 S
C931 H934 0.999 . S
C932 H902 0.950 . S
C932 C931 1.524 1_455 S
C932 C933 1.415 . S
C933 H903 0.950 . S
C933 C928 1.363 1_455 S
C933 C932 1.415 . S
H934 C931 0.999 . S
H935 C916 0.913 . S
H936 C954 0.951 . S
H937 C956 0.951 . S
H938 C958 0.950 . S
H939 C959 0.950 . S
H940 C961 0.950 . S
H941 C964 0.950 . S
H942 C965 0.950 . S
H943 C967 0.950 . S
H944 C968 0.950 . S
H945 C969 0.951 . S
H946 C971 0.951 . S
H947 C973 0.950 . S
H948 C974 0.950 . S
H949 C976 0.950 . S
H950 C979 0.950 . S
H951 C980 0.950 . S
H952 C982 0.950 . S
H953 C983 0.950 . S
C954 H936 0.951 . S
C954 C955 1.366 . S
C954 C956 1.388 . S
C955 C954 1.366 . S
C955 C959 1.385 . S
C956 H937 0.951 . S
C956 C954 1.388 . S
C956 C957 1.366 . S
C957 C956 1.366 . S
C957 C958 1.414 . S
C957 C960 1.499 . S
C958 H938 0.950 . S
C958 C957 1.414 . S
C958 C959 1.374 . S
C959 H939 0.950 . S
C959 C955 1.385 . S
C959 C958 1.374 . S
C960 C957 1.499 . S
C960 C961 1.373 . S
C960 C962 1.389 . S
C961 H940 0.950 . S
C961 C960 1.373 . S
C961 C977 1.377 . S
C962 C960 1.389 . S
C962 C963 1.524 . S
C962 C976 1.377 . S
C963 C962 1.524 . S
C963 C964 1.397 . S
C963 C968 1.363 . S
C964 H941 0.950 . S
C964 C963 1.397 . S
C964 C965 1.334 . S
C965 H942 0.950 . S
C965 C964 1.334 . S
C965 C966 1.287 . S
C966 C965 1.287 . S
C966 C967 1.524 . S
C966 H985 0.913 . S
C967 H943 0.950 . S
C967 C966 1.524 . S
C967 C968 1.415 . S
C968 H944 0.950 . S
C968 C963 1.363 . S
C968 C967 1.415 . S
C969 H945 0.951 . S
C969 C970 1.366 . S
C969 C971 1.388 . S
C970 C969 1.366 . S
C970 C974 1.385 . S
C971 H946 0.951 . S
C971 C969 1.388 . S
C971 C972 1.366 . S
C972 C971 1.366 . S
C972 C973 1.414 . S
C972 C975 1.499 . S
C973 H947 0.950 . S
C973 C972 1.414 . S
C973 C974 1.374 . S
C974 H948 0.950 . S
C974 C970 1.385 . S
C974 C973 1.374 . S
C975 C972 1.499 . S
C975 C976 1.373 . S
C975 C977 1.389 . S
C976 H949 0.950 . S
C976 C962 1.377 . S
C976 C975 1.373 . S
C977 C961 1.377 . S
C977 C975 1.389 . S
C977 C978 1.524 . S
C978 C977 1.524 . S
C978 C979 1.397 . S
C978 C983 1.363 . S
C979 H950 0.950 . S
C979 C978 1.397 . S
C979 C980 1.334 . S
C980 H951 0.950 . S
C980 C979 1.334 . S
C980 C981 1.287 . S
C981 C980 1.287 . S
C981 C982 1.524 . S
C981 H984 0.999 . S
C982 H952 0.950 . S
C982 C981 1.524 . S
C982 C983 1.415 . S
C983 H953 0.950 . S
C983 C978 1.363 . S
C983 C982 1.415 . S
H984 C981 0.999 . S
H985 C966 0.913 . S
H986 C1004 0.951 . S
H987 C1006 0.951 . S
H988 C1008 0.950 . S
H989 C1009 0.950 . S
H990 C1011 0.950 . S
H991 C1014 0.950 . S
H992 C1015 0.950 . S
H993 C1017 0.950 . S
H994 C1018 0.950 . S
H995 C1019 0.951 . S
H996 C1021 0.951 . S
H997 C1023 0.950 . S
H998 C1024 0.950 . S
H999 C1026 0.950 . S
H1000 C1029 0.950 . S
H1001 C1030 0.950 . S
H1002 C1032 0.950 . S
H1003 C1033 0.950 . S
C1004 H986 0.951 . S
C1004 C1005 1.366 . S
C1004 C1006 1.388 . S
C1005 C1004 1.366 . S
C1005 C1009 1.385 . S
C1006 H987 0.951 . S
C1006 C1004 1.388 . S
C1006 C1007 1.366 . S
C1007 C1006 1.366 . S
C1007 C1008 1.414 . S
C1007 C1010 1.499 . S
C1008 H988 0.950 . S
C1008 C1007 1.414 . S
C1008 C1009 1.374 . S
C1009 H989 0.950 . S
C1009 C1005 1.385 . S
C1009 C1008 1.374 . S
C1010 C1007 1.499 . S
C1010 C1011 1.373 . S
C1010 C1012 1.389 . S
C1011 H990 0.950 . S
C1011 C1010 1.373 . S
C1011 C1027 1.377 . S
C1012 C1010 1.389 . S
C1012 C1013 1.524 . S
C1012 C1026 1.377 . S
C1013 C1012 1.524 . S
C1013 C1014 1.397 . S
C1013 C1018 1.363 . S
C1014 H991 0.950 . S
C1014 C1013 1.397 . S
C1014 C1015 1.334 . S
C1015 H992 0.950 . S
C1015 C1014 1.334 . S
C1015 C1016 1.287 . S
C1016 C1015 1.287 . S
C1016 C1017 1.524 . S
C1016 H1035 0.913 . S
C1017 H993 0.950 . S
C1017 C1016 1.524 . S
C1017 C1018 1.415 . S
C1018 H994 0.950 . S
C1018 C1013 1.363 . S
C1018 C1017 1.415 . S
C1019 H995 0.951 . S
C1019 C1020 1.366 . S
C1019 C1021 1.388 . S
C1020 C1019 1.366 . S
C1020 C1024 1.385 . S
C1021 H996 0.951 . S
C1021 C1019 1.388 . S
C1021 C1022 1.366 . S
C1022 C1021 1.366 . S
C1022 C1023 1.414 . S
C1022 C1025 1.499 . S
C1023 H997 0.950 . S
C1023 C1022 1.414 . S
C1023 C1024 1.374 . S
C1024 H998 0.950 . S
C1024 C1020 1.385 . S
C1024 C1023 1.374 . S
C1025 C1022 1.499 . S
C1025 C1026 1.373 . S
C1025 C1027 1.389 . S
C1026 H999 0.950 . S
C1026 C1012 1.377 . S
C1026 C1025 1.373 . S
C1027 C1011 1.377 . S
C1027 C1025 1.389 . S
C1027 C1028 1.524 . S
C1028 C1027 1.524 . S
C1028 C1029 1.397 . S
C1028 C1033 1.363 . S
C1029 H1000 0.950 . S
C1029 C1028 1.397 . S
C1029 C1030 1.334 . S
C1030 H1001 0.950 . S
C1030 C1029 1.334 . S
C1030 C1031 1.287 . S
C1031 C1030 1.287 . S
C1031 C1032 1.524 . S
C1031 H1034 0.999 . S
C1032 H1002 0.950 . S
C1032 C1031 1.524 . S
C1032 C1033 1.415 . S
C1033 H1003 0.950 . S
C1033 C1028 1.363 . S
C1033 C1032 1.415 . S
H1034 C1031 0.999 . S
H1035 C1016 0.913 . S
H1036 C1054 0.951 . S
H1037 C1056 0.951 . S
H1038 C1058 0.950 . S
H1039 C1059 0.950 . S
H1040 C1061 0.950 . S
H1041 C1064 0.950 . S
H1042 C1065 0.950 . S
H1043 C1067 0.950 . S
H1044 C1068 0.950 . S
H1045 C1069 0.951 . S
H1046 C1071 0.951 . S
H1047 C1073 0.950 . S
H1048 C1074 0.950 . S
H1049 C1076 0.950 . S
H1050 C1079 0.950 . S
H1051 C1080 0.950 . S
H1052 C1082 0.950 . S
H1053 C1083 0.950 . S
C1054 H1036 0.951 . S
C1054 C1055 1.366 . S
C1054 C1056 1.388 . S
C1055 C1054 1.366 . S
C1055 C1059 1.385 . S
C1056 H1037 0.951 . S
C1056 C1054 1.388 . S
C1056 C1057 1.366 . S
C1057 C1056 1.366 . S
C1057 C1058 1.414 . S
C1057 C1060 1.499 . S
C1058 H1038 0.950 . S
C1058 C1057 1.414 . S
C1058 C1059 1.374 . S
C1059 H1039 0.950 . S
C1059 C1055 1.385 . S
C1059 C1058 1.374 . S
C1060 C1057 1.499 . S
C1060 C1061 1.373 . S
C1060 C1062 1.389 . S
C1061 H1040 0.950 . S
C1061 C1060 1.373 . S
C1061 C1077 1.377 . S
C1062 C1060 1.389 . S
C1062 C1063 1.524 . S
C1062 C1076 1.377 . S
C1063 C1062 1.524 . S
C1063 C1064 1.397 . S
C1063 C1068 1.363 . S
C1064 H1041 0.950 . S
C1064 C1063 1.397 . S
C1064 C1065 1.334 . S
C1065 H1042 0.950 . S
C1065 C1064 1.334 . S
C1065 C1066 1.287 . S
C1066 C1065 1.287 . S
C1066 C1067 1.524 . S
C1066 H1085 0.913 . S
C1067 H1043 0.950 . S
C1067 C1066 1.524 . S
C1067 C1068 1.415 . S
C1068 H1044 0.950 . S
C1068 C1063 1.363 . S
C1068 C1067 1.415 . S
C1069 H1045 0.951 . S
C1069 C1070 1.366 . S
C1069 C1071 1.388 . S
C1070 C1069 1.366 . S
C1070 C1074 1.385 . S
C1071 H1046 0.951 . S
C1071 C1069 1.388 . S
C1071 C1072 1.366 . S
C1072 C1071 1.366 . S
C1072 C1073 1.414 . S
C1072 C1075 1.499 . S
C1073 H1047 0.950 . S
C1073 C1072 1.414 . S
C1073 C1074 1.374 . S
C1074 H1048 0.950 . S
C1074 C1070 1.385 . S
C1074 C1073 1.374 . S
C1075 C1072 1.499 . S
C1075 C1076 1.373 . S
C1075 C1077 1.389 . S
C1076 H1049 0.950 . S
C1076 C1062 1.377 . S
C1076 C1075 1.373 . S
C1077 C1061 1.377 . S
C1077 C1075 1.389 . S
C1077 C1078 1.524 . S
C1078 C1077 1.524 . S
C1078 C1079 1.397 . S
C1078 C1083 1.363 . S
C1079 H1050 0.950 . S
C1079 C1078 1.397 . S
C1079 C1080 1.334 . S
C1080 H1051 0.950 . S
C1080 C1079 1.334 . S
C1080 C1081 1.287 . S
C1081 C1080 1.287 . S
C1081 C1082 1.524 . S
C1081 H1084 0.999 . S
C1082 H1052 0.950 . S
C1082 C1081 1.524 . S
C1082 C1083 1.415 . S
C1083 H1053 0.950 . S
C1083 C1078 1.363 . S
C1083 C1082 1.415 . S
H1084 C1081 0.999 . S
H1085 C1066 0.913 . S
H1086 C1104 0.951 . S
H1087 C1106 0.951 . S
H1088 C1108 0.950 . S
H1089 C1109 0.950 . S
H1090 C1111 0.950 . S
H1091 C1114 0.950 . S
H1092 C1115 0.950 . S
H1093 C1117 0.950 . S
H1094 C1118 0.950 . S
H1095 C1119 0.951 . S
H1096 C1121 0.951 . S
H1097 C1123 0.950 . S
H1098 C1124 0.950 . S
H1099 C1126 0.950 . S
H1100 C1129 0.950 . S
H1101 C1130 0.950 . S
H1102 C1132 0.950 . S
H1103 C1133 0.950 . S
C1104 H1086 0.951 . S
C1104 C1105 1.366 . S
C1104 C1106 1.388 . S
C1105 C1104 1.366 . S
C1105 C1109 1.385 . S
C1106 H1087 0.951 . S
C1106 C1104 1.388 . S
C1106 C1107 1.366 . S
C1107 C1106 1.366 . S
C1107 C1108 1.414 . S
C1107 C1110 1.499 . S
C1108 H1088 0.950 . S
C1108 C1107 1.414 . S
C1108 C1109 1.374 . S
C1109 H1089 0.950 . S
C1109 C1105 1.385 . S
C1109 C1108 1.374 . S
C1110 C1107 1.499 . S
C1110 C1111 1.373 . S
C1110 C1112 1.389 . S
C1111 H1090 0.950 . S
C1111 C1110 1.373 . S
C1111 C1127 1.377 . S
C1112 C1110 1.389 . S
C1112 C1113 1.524 . S
C1112 C1126 1.377 . S
C1113 C1112 1.524 . S
C1113 C1114 1.397 . S
C1113 C1118 1.363 . S
C1114 H1091 0.950 . S
C1114 C1113 1.397 . S
C1114 C1115 1.334 . S
C1115 H1092 0.950 . S
C1115 C1114 1.334 . S
C1115 C1116 1.287 . S
C1116 C1115 1.287 . S
C1116 C1117 1.524 . S
C1116 H1135 0.913 . S
C1117 H1093 0.950 . S
C1117 C1116 1.524 . S
C1117 C1118 1.415 . S
C1118 H1094 0.950 . S
C1118 C1113 1.363 . S
C1118 C1117 1.415 . S
C1119 H1095 0.951 . S
C1119 C1120 1.366 . S
C1119 C1121 1.388 . S
C1120 C1119 1.366 . S
C1120 C1124 1.385 . S
C1121 H1096 0.951 . S
C1121 C1119 1.388 . S
C1121 C1122 1.366 . S
C1122 C1121 1.366 . S
C1122 C1123 1.414 . S
C1122 C1125 1.499 . S
C1123 H1097 0.950 . S
C1123 C1122 1.414 . S
C1123 C1124 1.374 . S
C1124 H1098 0.950 . S
C1124 C1120 1.385 . S
C1124 C1123 1.374 . S
C1125 C1122 1.499 . S
C1125 C1126 1.373 . S
C1125 C1127 1.389 . S
C1126 H1099 0.950 . S
C1126 C1112 1.377 . S
C1126 C1125 1.373 . S
C1127 C1111 1.377 . S
C1127 C1125 1.389 . S
C1127 C1128 1.524 . S
C1128 C1127 1.524 . S
C1128 C1129 1.397 . S
C1128 C1133 1.363 . S
C1129 H1100 0.950 . S
C1129 C1128 1.397 . S
C1129 C1130 1.334 . S
C1130 H1101 0.950 . S
C1130 C1129 1.334 . S
C1130 C1131 1.287 . S
C1131 C1130 1.287 . S
C1131 C1132 1.524 . S
C1131 H1134 0.999 . S
C1132 H1102 0.950 . S
C1132 C1131 1.524 . S
C1132 C1133 1.415 . S
C1133 H1103 0.950 . S
C1133 C1128 1.363 . S
C1133 C1132 1.415 . S
H1134 C1131 0.999 . S
H1135 C1116 0.913 . S
H1136 C1154 0.951 . S
H1137 C1156 0.951 . S
H1138 C1158 0.950 . S
H1139 C1159 0.950 . S
H1140 C1161 0.950 . S
H1141 C1164 0.950 . S
H1142 C1165 0.950 . S
H1143 C1167 0.950 . S
H1144 C1168 0.950 . S
H1145 C1169 0.951 . S
H1146 C1171 0.951 . S
H1147 C1173 0.950 . S
H1148 C1174 0.950 . S
H1149 C1176 0.950 . S
H1150 C1179 0.950 . S
H1151 C1180 0.950 . S
H1152 C1182 0.950 . S
H1153 C1183 0.950 . S
C1154 H1136 0.951 . S
C1154 C1155 1.366 . S
C1154 C1156 1.388 . S
C1155 C1154 1.366 . S
C1155 C1159 1.385 . S
C1156 H1137 0.951 . S
C1156 C1154 1.388 . S
C1156 C1157 1.366 . S
C1157 C1156 1.366 . S
C1157 C1158 1.414 . S
C1157 C1160 1.499 . S
C1158 H1138 0.950 . S
C1158 C1157 1.414 . S
C1158 C1159 1.374 . S
C1159 H1139 0.950 . S
C1159 C1155 1.385 . S
C1159 C1158 1.374 . S
C1160 C1157 1.499 . S
C1160 C1161 1.373 . S
C1160 C1162 1.389 . S
C1161 H1140 0.950 . S
C1161 C1160 1.373 . S
C1161 C1177 1.377 . S
C1162 C1160 1.389 . S
C1162 C1163 1.524 . S
C1162 C1176 1.377 . S
C1163 C1162 1.524 . S
C1163 C1164 1.397 . S
C1163 C1168 1.363 . S
C1164 H1141 0.950 . S
C1164 C1163 1.397 . S
C1164 C1165 1.334 . S
C1165 H1142 0.950 . S
C1165 C1164 1.334 . S
C1165 C1166 1.287 . S
C1166 C1165 1.287 . S
C1166 C1167 1.524 . S
C1166 H1185 0.913 . S
C1167 H1143 0.950 . S
C1167 C1166 1.524 . S
C1167 C1168 1.415 . S
C1168 H1144 0.950 . S
C1168 C1163 1.363 . S
C1168 C1167 1.415 . S
C1169 H1145 0.951 . S
C1169 C1170 1.366 . S
C1169 C1171 1.388 . S
C1170 C1169 1.366 . S
C1170 C1174 1.385 . S
C1171 H1146 0.951 . S
C1171 C1169 1.388 . S
C1171 C1172 1.366 . S
C1172 C1171 1.366 . S
C1172 C1173 1.414 . S
C1172 C1175 1.499 . S
C1173 H1147 0.950 . S
C1173 C1172 1.414 . S
C1173 C1174 1.374 . S
C1174 H1148 0.950 . S
C1174 C1170 1.385 . S
C1174 C1173 1.374 . S
C1175 C1172 1.499 . S
C1175 C1176 1.373 . S
C1175 C1177 1.389 . S
C1176 H1149 0.950 . S
C1176 C1162 1.377 . S
C1176 C1175 1.373 . S
C1177 C1161 1.377 . S
C1177 C1175 1.389 . S
C1177 C1178 1.524 . S
C1178 C1177 1.524 . S
C1178 C1179 1.397 . S
C1178 C1183 1.363 . S
C1179 H1150 0.950 . S
C1179 C1178 1.397 . S
C1179 C1180 1.334 . S
C1180 H1151 0.950 . S
C1180 C1179 1.334 . S
C1180 C1181 1.287 . S
C1181 C1180 1.287 . S
C1181 C1182 1.524 . S
C1181 H1184 0.999 . S
C1182 H1152 0.950 . S
C1182 C1181 1.524 . S
C1182 C1183 1.415 . S
C1183 H1153 0.950 . S
C1183 C1178 1.363 . S
C1183 C1182 1.415 . S
H1184 C1181 0.999 . S
H1185 C1166 0.913 . S
H1186 C1204 0.951 . S
H1187 C1206 0.951 . S
H1188 C1208 0.950 . S
H1189 C1209 0.950 . S
H1190 C1211 0.950 . S
H1191 C1214 0.950 . S
H1192 C1215 0.950 . S
H1193 C1217 0.950 . S
H1194 C1218 0.950 . S
H1195 C1219 0.951 . S
H1196 C1221 0.951 . S
H1197 C1223 0.950 . S
H1198 C1224 0.950 . S
H1199 C1226 0.950 . S
H1200 C1229 0.950 . S
H1201 C1230 0.950 . S
H1202 C1232 0.950 . S
H1203 C1233 0.950 . S
C1204 H1186 0.951 . S
C1204 C1205 1.366 . S
C1204 C1206 1.388 . S
C1205 C1204 1.366 . S
C1205 C1209 1.385 . S
C1206 H1187 0.951 . S
C1206 C1204 1.388 . S
C1206 C1207 1.366 . S
C1207 C1206 1.366 . S
C1207 C1208 1.414 . S
C1207 C1210 1.499 . S
C1208 H1188 0.950 . S
C1208 C1207 1.414 . S
C1208 C1209 1.374 . S
C1209 H1189 0.950 . S
C1209 C1205 1.385 . S
C1209 C1208 1.374 . S
C1210 C1207 1.499 . S
C1210 C1211 1.373 . S
C1210 C1212 1.389 . S
C1211 H1190 0.950 . S
C1211 C1210 1.373 . S
C1211 C1227 1.377 . S
C1212 C1210 1.389 . S
C1212 C1213 1.524 . S
C1212 C1226 1.377 . S
C1213 C1212 1.524 . S
C1213 C1214 1.397 . S
C1213 C1218 1.363 . S
C1214 H1191 0.950 . S
C1214 C1213 1.397 . S
C1214 C1215 1.334 . S
C1215 H1192 0.950 . S
C1215 C1214 1.334 . S
C1215 C1216 1.287 . S
C1216 C1215 1.287 . S
C1216 C1217 1.524 . S
C1216 H1235 0.913 . S
C1217 H1193 0.950 . S
C1217 C1216 1.524 . S
C1217 C1218 1.415 . S
C1218 H1194 0.950 . S
C1218 C1213 1.363 . S
C1218 C1217 1.415 . S
C1219 H1195 0.951 . S
C1219 C1220 1.366 . S
C1219 C1221 1.388 . S
C1220 C1219 1.366 . S
C1220 C1224 1.385 . S
C1221 H1196 0.951 . S
C1221 C1219 1.388 . S
C1221 C1222 1.366 . S
C1222 C1221 1.366 . S
C1222 C1223 1.414 . S
C1222 C1225 1.499 . S
C1223 H1197 0.950 . S
C1223 C1222 1.414 . S
C1223 C1224 1.374 . S
C1224 H1198 0.950 . S
C1224 C1220 1.385 . S
C1224 C1223 1.374 . S
C1225 C1222 1.499 . S
C1225 C1226 1.373 . S
C1225 C1227 1.389 . S
C1226 H1199 0.950 . S
C1226 C1212 1.377 . S
C1226 C1225 1.373 . S
C1227 C1211 1.377 . S
C1227 C1225 1.389 . S
C1227 C1228 1.524 . S
C1228 C1227 1.524 . S
C1228 C1229 1.397 . S
C1228 C1233 1.363 . S
C1229 H1200 0.950 . S
C1229 C1228 1.397 . S
C1229 C1230 1.334 . S
C1230 H1201 0.950 . S
C1230 C1229 1.334 . S
C1230 C1231 1.287 . S
C1231 C1230 1.287 . S
C1231 C1232 1.524 . S
C1231 H1234 0.999 . S
C1232 H1202 0.950 . S
C1232 C1231 1.524 . S
C1232 C1233 1.415 . S
C1233 H1203 0.950 . S
C1233 C1228 1.363 . S
C1233 C1232 1.415 . S
H1234 C1231 0.999 . S
H1235 C1216 0.913 . S
H1236 C1254 0.951 . S
H1237 C1256 0.951 . S
H1238 C1258 0.950 . S
H1239 C1259 0.950 . S
H1240 C1261 0.950 . S
H1241 C1264 0.950 . S
H1242 C1265 0.950 . S
H1243 C1267 0.950 . S
H1244 C1268 0.950 . S
H1245 C1269 0.951 . S
H1246 C1271 0.951 . S
H1247 C1273 0.950 . S
H1248 C1274 0.950 . S
H1249 C1276 0.950 . S
H1250 C1279 0.950 . S
H1251 C1280 0.950 . S
H1252 C1282 0.950 . S
H1253 C1283 0.950 . S
C1254 H1236 0.951 . S
C1254 C1255 1.366 . S
C1254 C1256 1.388 . S
C1255 C1254 1.366 . S
C1255 C1259 1.385 . S
C1256 H1237 0.951 . S
C1256 C1254 1.388 . S
C1256 C1257 1.366 . S
C1257 C1256 1.366 . S
C1257 C1258 1.414 . S
C1257 C1260 1.499 . S
C1258 H1238 0.950 . S
C1258 C1257 1.414 . S
C1258 C1259 1.374 . S
C1259 H1239 0.950 . S
C1259 C1255 1.385 . S
C1259 C1258 1.374 . S
C1260 C1257 1.499 . S
C1260 C1261 1.373 . S
C1260 C1262 1.389 . S
C1261 H1240 0.950 . S
C1261 C1260 1.373 . S
C1261 C1277 1.377 . S
C1262 C1260 1.389 . S
C1262 C1263 1.524 . S
C1262 C1276 1.377 . S
C1263 C1262 1.524 . S
C1263 C1264 1.397 . S
C1263 C1268 1.363 . S
C1264 H1241 0.950 . S
C1264 C1263 1.397 . S
C1264 C1265 1.334 . S
C1265 H1242 0.950 . S
C1265 C1264 1.334 . S
C1265 C1266 1.287 . S
C1266 C1265 1.287 . S
C1266 C1267 1.524 . S
C1266 H1285 0.913 . S
C1267 H1243 0.950 . S
C1267 C1266 1.524 . S
C1267 C1268 1.415 . S
C1268 H1244 0.950 . S
C1268 C1263 1.363 . S
C1268 C1267 1.415 . S
C1269 H1245 0.951 . S
C1269 C1270 1.366 . S
C1269 C1271 1.388 . S
C1270 C1269 1.366 . S
C1270 C1274 1.385 . S
C1271 H1246 0.951 . S
C1271 C1269 1.388 . S
C1271 C1272 1.366 . S
C1272 C1271 1.366 . S
C1272 C1273 1.414 . S
C1272 C1275 1.499 . S
C1273 H1247 0.950 . S
C1273 C1272 1.414 . S
C1273 C1274 1.374 . S
C1274 H1248 0.950 . S
C1274 C1270 1.385 . S
C1274 C1273 1.374 . S
C1275 C1272 1.499 . S
C1275 C1276 1.373 . S
C1275 C1277 1.389 . S
C1276 H1249 0.950 . S
C1276 C1262 1.377 . S
C1276 C1275 1.373 . S
C1277 C1261 1.377 . S
C1277 C1275 1.389 . S
C1277 C1278 1.524 . S
C1278 C1277 1.524 . S
C1278 C1279 1.397 . S
C1278 C1283 1.363 . S
C1279 H1250 0.950 . S
C1279 C1278 1.397 . S
C1279 C1280 1.334 . S
C1280 H1251 0.950 . S
C1280 C1279 1.334 . S
C1280 C1281 1.287 . S
C1281 C1280 1.287 . S
C1281 C1282 1.524 . S
C1281 H1284 0.999 . S
C1282 H1252 0.950 . S
C1282 C1281 1.524 . S
C1282 C1283 1.415 . S
C1283 H1253 0.950 . S
C1283 C1278 1.363 . S
C1283 C1282 1.415 . S
H1284 C1281 0.999 . S
H1285 C1266 0.913 . S
H1286 C1304 0.951 . S
H1287 C1306 0.951 . S
H1288 C1308 0.950 . S
H1289 C1309 0.950 . S
H1290 C1311 0.950 . S
H1291 C1314 0.950 . S
H1292 C1315 0.950 . S
H1293 C1317 0.950 . S
H1294 C1318 0.950 . S
H1295 C1319 0.951 . S
H1296 C1321 0.951 . S
H1297 C1323 0.950 . S
H1298 C1324 0.950 . S
H1299 C1326 0.950 . S
H1300 C1329 0.950 . S
H1301 C1330 0.950 . S
H1302 C1332 0.950 . S
H1303 C1333 0.950 . S
C1304 H1286 0.951 . S
C1304 C1305 1.366 . S
C1304 C1306 1.388 . S
C1305 C1304 1.366 . S
C1305 C1309 1.385 . S
C1306 H1287 0.951 . S
C1306 C1304 1.388 . S
C1306 C1307 1.366 . S
C1307 C1306 1.366 . S
C1307 C1308 1.414 . S
C1307 C1310 1.499 . S
C1308 H1288 0.950 . S
C1308 C1307 1.414 . S
C1308 C1309 1.374 . S
C1309 H1289 0.950 . S
C1309 C1305 1.385 . S
C1309 C1308 1.374 . S
C1310 C1307 1.499 . S
C1310 C1311 1.373 . S
C1310 C1312 1.389 . S
C1311 H1290 0.950 . S
C1311 C1310 1.373 . S
C1311 C1327 1.377 . S
C1312 C1310 1.389 . S
C1312 C1313 1.524 . S
C1312 C1326 1.377 . S
C1313 C1312 1.524 . S
C1313 C1314 1.397 . S
C1313 C1318 1.363 . S
C1314 H1291 0.950 . S
C1314 C1313 1.397 . S
C1314 C1315 1.334 . S
C1315 H1292 0.950 . S
C1315 C1314 1.334 . S
C1315 C1316 1.287 . S
C1316 C1315 1.287 . S
C1316 C1317 1.524 . S
C1316 H1335 0.913 . S
C1317 H1293 0.950 . S
C1317 C1316 1.524 . S
C1317 C1318 1.415 . S
C1318 H1294 0.950 . S
C1318 C1313 1.363 . S
C1318 C1317 1.415 . S
C1319 H1295 0.951 . S
C1319 C1320 1.366 . S
C1319 C1321 1.388 . S
C1320 C1319 1.366 . S
C1320 C1324 1.385 . S
C1321 H1296 0.951 . S
C1321 C1319 1.388 . S
C1321 C1322 1.366 . S
C1322 C1321 1.366 . S
C1322 C1323 1.414 . S
C1322 C1325 1.499 . S
C1323 H1297 0.950 . S
C1323 C1322 1.414 . S
C1323 C1324 1.374 . S
C1324 H1298 0.950 . S
C1324 C1320 1.385 . S
C1324 C1323 1.374 . S
C1325 C1322 1.499 . S
C1325 C1326 1.373 . S
C1325 C1327 1.389 . S
C1326 H1299 0.950 . S
C1326 C1312 1.377 . S
C1326 C1325 1.373 . S
C1327 C1311 1.377 . S
C1327 C1325 1.389 . S
C1327 C1328 1.524 . S
C1328 C1327 1.524 . S
C1328 C1329 1.397 . S
C1328 C1333 1.363 . S
C1329 H1300 0.950 . S
C1329 C1328 1.397 . S
C1329 C1330 1.334 . S
C1330 H1301 0.950 . S
C1330 C1329 1.334 . S
C1330 C1331 1.287 . S
C1331 C1330 1.287 . S
C1331 C1332 1.524 . S
C1331 H1334 0.999 . S
C1332 H1302 0.950 . S
C1332 C1331 1.524 . S
C1332 C1333 1.415 . S
C1333 H1303 0.950 . S
C1333 C1328 1.363 . S
C1333 C1332 1.415 . S
H1334 C1331 0.999 . S
H1335 C1316 0.913 . S
H1336 C1354 0.951 . S
H1337 C1356 0.951 . S
H1338 C1358 0.950 . S
H1339 C1359 0.950 . S
H1340 C1361 0.950 . S
H1341 C1364 0.950 . S
H1342 C1365 0.950 . S
H1343 C1367 0.950 . S
H1344 C1368 0.950 . S
H1345 C1369 0.951 . S
H1346 C1371 0.951 . S
H1347 C1373 0.950 . S
H1348 C1374 0.950 . S
H1349 C1376 0.950 . S
H1350 C1379 0.950 . S
H1351 C1380 0.950 . S
H1352 C1382 0.950 . S
H1353 C1383 0.950 . S
C1354 H1336 0.951 . S
C1354 C1355 1.366 . S
C1354 C1356 1.388 . S
C1355 C1354 1.366 . S
C1355 C1359 1.385 . S
C1356 H1337 0.951 . S
C1356 C1354 1.388 . S
C1356 C1357 1.366 . S
C1357 C1356 1.366 . S
C1357 C1358 1.414 . S
C1357 C1360 1.499 . S
C1358 H1338 0.950 . S
C1358 C1357 1.414 . S
C1358 C1359 1.374 . S
C1359 H1339 0.950 . S
C1359 C1355 1.385 . S
C1359 C1358 1.374 . S
C1360 C1357 1.499 . S
C1360 C1361 1.373 . S
C1360 C1362 1.389 . S
C1361 H1340 0.950 . S
C1361 C1360 1.373 . S
C1361 C1377 1.377 . S
C1362 C1360 1.389 . S
C1362 C1363 1.524 . S
C1362 C1376 1.377 . S
C1363 C1362 1.524 . S
C1363 C1364 1.397 . S
C1363 C1368 1.363 . S
C1364 H1341 0.950 . S
C1364 C1363 1.397 . S
C1364 C1365 1.334 . S
C1365 H1342 0.950 . S
C1365 C1364 1.334 . S
C1365 C1366 1.287 . S
C1366 C1365 1.287 . S
C1366 C1367 1.524 . S
C1366 H1385 0.913 . S
C1367 H1343 0.950 . S
C1367 C1366 1.524 . S
C1367 C1368 1.415 . S
C1368 H1344 0.950 . S
C1368 C1363 1.363 . S
C1368 C1367 1.415 . S
C1369 H1345 0.951 . S
C1369 C1370 1.366 . S
C1369 C1371 1.388 . S
C1370 C1369 1.366 . S
C1370 C1374 1.385 . S
C1371 H1346 0.951 . S
C1371 C1369 1.388 . S
C1371 C1372 1.366 . S
C1372 C1371 1.366 . S
C1372 C1373 1.414 . S
C1372 C1375 1.499 . S
C1373 H1347 0.950 . S
C1373 C1372 1.414 . S
C1373 C1374 1.374 . S
C1374 H1348 0.950 . S
C1374 C1370 1.385 . S
C1374 C1373 1.374 . S
C1375 C1372 1.499 . S
C1375 C1376 1.373 . S
C1375 C1377 1.389 . S
C1376 H1349 0.950 . S
C1376 C1362 1.377 . S
C1376 C1375 1.373 . S
C1377 C1361 1.377 . S
C1377 C1375 1.389 . S
C1377 C1378 1.524 . S
C1378 C1377 1.524 . S
C1378 C1379 1.397 . S
C1378 C1383 1.363 . S
C1379 H1350 0.950 . S
C1379 C1378 1.397 . S
C1379 C1380 1.334 . S
C1380 H1351 0.950 . S
C1380 C1379 1.334 . S
C1380 C1381 1.287 . S
C1381 C1380 1.287 . S
C1381 C1382 1.524 . S
C1381 H1384 0.999 . S
C1382 H1352 0.950 . S
C1382 C1381 1.524 . S
C1382 C1383 1.415 . S
C1383 H1353 0.950 . S
C1383 C1378 1.363 . S
C1383 C1382 1.415 . S
H1384 C1381 0.999 . S
H1385 C1366 0.913 . S
H1386 C1404 0.951 . S
H1387 C1406 0.951 . S
H1388 C1408 0.950 . S
H1389 C1409 0.950 . S
H1390 C1411 0.950 . S
H1391 C1414 0.950 . S
H1392 C1415 0.950 . S
H1393 C1417 0.950 . S
H1394 C1418 0.950 . S
H1395 C1419 0.951 . S
H1396 C1421 0.951 . S
H1397 C1423 0.950 . S
H1398 C1424 0.950 . S
H1399 C1426 0.950 . S
H1400 C1429 0.950 . S
H1401 C1430 0.950 . S
H1402 C1432 0.950 . S
H1403 C1433 0.950 . S
C1404 H1386 0.951 . S
C1404 C1405 1.366 . S
C1404 C1406 1.388 . S
C1405 C1404 1.366 . S
C1405 C1409 1.385 . S
C1406 H1387 0.951 . S
C1406 C1404 1.388 . S
C1406 C1407 1.366 . S
C1407 C1406 1.366 . S
C1407 C1408 1.414 . S
C1407 C1410 1.499 . S
C1408 H1388 0.950 . S
C1408 C1407 1.414 . S
C1408 C1409 1.374 . S
C1409 H1389 0.950 . S
C1409 C1405 1.385 . S
C1409 C1408 1.374 . S
C1410 C1407 1.499 . S
C1410 C1411 1.373 . S
C1410 C1412 1.389 . S
C1411 H1390 0.950 . S
C1411 C1410 1.373 . S
C1411 C1427 1.377 . S
C1412 C1410 1.389 . S
C1412 C1413 1.524 . S
C1412 C1426 1.377 . S
C1413 C1412 1.524 . S
C1413 C1414 1.397 . S
C1413 C1418 1.363 . S
C1414 H1391 0.950 . S
C1414 C1413 1.397 . S
C1414 C1415 1.334 . S
C1415 H1392 0.950 . S
C1415 C1414 1.334 . S
C1415 C1416 1.287 . S
C1416 C1415 1.287 . S
C1416 C1417 1.524 . S
C1416 H1435 0.913 . S
C1417 H1393 0.950 . S
C1417 C1416 1.524 . S
C1417 C1418 1.415 . S
C1418 H1394 0.950 . S
C1418 C1413 1.363 . S
C1418 C1417 1.415 . S
C1419 H1395 0.951 . S
C1419 C1420 1.366 . S
C1419 C1421 1.388 . S
C1420 C1419 1.366 . S
C1420 C1424 1.385 . S
C1421 H1396 0.951 . S
C1421 C1419 1.388 . S
C1421 C1422 1.366 . S
C1422 C1421 1.366 . S
C1422 C1423 1.414 . S
C1422 C1425 1.499 . S
C1423 H1397 0.950 . S
C1423 C1422 1.414 . S
C1423 C1424 1.374 . S
C1424 H1398 0.950 . S
C1424 C1420 1.385 . S
C1424 C1423 1.374 . S
C1425 C1422 1.499 . S
C1425 C1426 1.373 . S
C1425 C1427 1.389 . S
C1426 H1399 0.950 . S
C1426 C1412 1.377 . S
C1426 C1425 1.373 . S
C1427 C1411 1.377 . S
C1427 C1425 1.389 . S
C1427 C1428 1.524 . S
C1428 C1427 1.524 . S
C1428 C1429 1.397 . S
C1428 C1433 1.363 . S
C1429 H1400 0.950 . S
C1429 C1428 1.397 . S
C1429 C1430 1.334 . S
C1430 H1401 0.950 . S
C1430 C1429 1.334 . S
C1430 C1431 1.287 . S
C1431 C1430 1.287 . S
C1431 C1432 1.524 . S
C1431 H1434 0.999 . S
C1432 H1402 0.950 . S
C1432 C1431 1.524 . S
C1432 C1433 1.415 . S
C1433 H1403 0.950 . S
C1433 C1428 1.363 . S
C1433 C1432 1.415 . S
H1434 C1431 0.999 . S
H1435 C1416 0.913 . S
H1436 C1454 0.951 . S
H1437 C1456 0.951 . S
H1438 C1458 0.950 . S
H1439 C1459 0.950 . S
H1440 C1461 0.950 . S
H1441 C1464 0.950 . S
H1442 C1465 0.950 . S
H1443 C1467 0.950 . S
H1444 C1468 0.950 . S
H1445 C1469 0.951 . S
H1446 C1471 0.951 . S
H1447 C1473 0.950 . S
H1448 C1474 0.950 . S
H1449 C1476 0.950 . S
H1450 C1479 0.950 . S
H1451 C1480 0.950 . S
H1452 C1482 0.950 . S
H1453 C1483 0.950 . S
C1454 H1436 0.951 . S
C1454 C1455 1.366 . S
C1454 C1456 1.388 . S
C1455 C1454 1.366 . S
C1455 C1459 1.385 . S
C1456 H1437 0.951 . S
C1456 C1454 1.388 . S
C1456 C1457 1.366 . S
C1457 C1456 1.366 . S
C1457 C1458 1.414 . S
C1457 C1460 1.499 . S
C1458 H1438 0.950 . S
C1458 C1457 1.414 . S
C1458 C1459 1.374 . S
C1459 H1439 0.950 . S
C1459 C1455 1.385 . S
C1459 C1458 1.374 . S
C1460 C1457 1.499 . S
C1460 C1461 1.373 . S
C1460 C1462 1.389 . S
C1461 H1440 0.950 . S
C1461 C1460 1.373 . S
C1461 C1477 1.377 . S
C1462 C1460 1.389 . S
C1462 C1463 1.524 . S
C1462 C1476 1.377 . S
C1463 C1462 1.524 . S
C1463 C1464 1.397 . S
C1463 C1468 1.363 . S
C1464 H1441 0.950 . S
C1464 C1463 1.397 . S
C1464 C1465 1.334 . S
C1465 H1442 0.950 . S
C1465 C1464 1.334 . S
C1465 C1466 1.287 . S
C1466 C1465 1.287 . S
C1466 C1467 1.524 . S
C1466 H1485 0.913 . S
C1467 H1443 0.950 . S
C1467 C1466 1.524 . S
C1467 C1468 1.415 . S
C1468 H1444 0.950 . S
C1468 C1463 1.363 . S
C1468 C1467 1.415 . S
C1469 H1445 0.951 . S
C1469 C1470 1.366 . S
C1469 C1471 1.388 . S
C1470 C1469 1.366 . S
C1470 C1474 1.385 . S
C1471 H1446 0.951 . S
C1471 C1469 1.388 . S
C1471 C1472 1.366 . S
C1472 C1471 1.366 . S
C1472 C1473 1.414 . S
C1472 C1475 1.499 . S
C1473 H1447 0.950 . S
C1473 C1472 1.414 . S
C1473 C1474 1.374 . S
C1474 H1448 0.950 . S
C1474 C1470 1.385 . S
C1474 C1473 1.374 . S
C1475 C1472 1.499 . S
C1475 C1476 1.373 . S
C1475 C1477 1.389 . S
C1476 H1449 0.950 . S
C1476 C1462 1.377 . S
C1476 C1475 1.373 . S
C1477 C1461 1.377 . S
C1477 C1475 1.389 . S
C1477 C1478 1.524 . S
C1478 C1477 1.524 . S
C1478 C1479 1.397 . S
C1478 C1483 1.363 . S
C1479 H1450 0.950 . S
C1479 C1478 1.397 . S
C1479 C1480 1.334 . S
C1480 H1451 0.950 . S
C1480 C1479 1.334 . S
C1480 C1481 1.287 . S
C1481 C1480 1.287 . S
C1481 C1482 1.524 . S
C1481 H1484 0.999 . S
C1482 H1452 0.950 . S
C1482 C1481 1.524 . S
C1482 C1483 1.415 . S
C1483 H1453 0.950 . S
C1483 C1478 1.363 . S
C1483 C1482 1.415 . S
H1484 C1481 0.999 . S
H1485 C1466 0.913 . S
H1486 C1504 0.951 . S
H1487 C1506 0.951 . S
H1488 C1508 0.950 . S
H1489 C1509 0.950 . S
H1490 C1511 0.950 . S
H1491 C1514 0.950 . S
H1492 C1515 0.950 . S
H1493 C1517 0.950 . S
H1494 C1518 0.950 . S
H1495 C1519 0.951 . S
H1496 C1521 0.951 . S
H1497 C1523 0.950 . S
H1498 C1524 0.950 . S
H1499 C1526 0.950 . S
H1500 C1529 0.950 . S
H1501 C1530 0.950 . S
H1502 C1532 0.950 . S
H1503 C1533 0.950 . S
C1504 H1486 0.951 . S
C1504 C1505 1.366 . S
C1504 C1506 1.388 . S
C1505 C1504 1.366 . S
C1505 C1509 1.385 . S
C1506 H1487 0.951 . S
C1506 C1504 1.388 . S
C1506 C1507 1.366 . S
C1507 C1506 1.366 . S
C1507 C1508 1.414 . S
C1507 C1510 1.499 . S
C1508 H1488 0.950 . S
C1508 C1507 1.414 . S
C1508 C1509 1.374 . S
C1509 H1489 0.950 . S
C1509 C1505 1.385 . S
C1509 C1508 1.374 . S
C1510 C1507 1.499 . S
C1510 C1511 1.373 . S
C1510 C1512 1.389 . S
C1511 H1490 0.950 . S
C1511 C1510 1.373 . S
C1511 C1527 1.377 . S
C1512 C1510 1.389 . S
C1512 C1513 1.524 . S
C1512 C1526 1.377 . S
C1513 C1512 1.524 . S
C1513 C1514 1.397 . S
C1513 C1518 1.363 . S
C1514 H1491 0.950 . S
C1514 C1513 1.397 . S
C1514 C1515 1.334 . S
C1515 H1492 0.950 . S
C1515 C1514 1.334 . S
C1515 C1516 1.287 . S
C1516 C1515 1.287 . S
C1516 C1517 1.524 . S
C1516 H1535 0.913 . S
C1517 H1493 0.950 . S
C1517 C1516 1.524 . S
C1517 C1518 1.415 . S
C1518 H1494 0.950 . S
C1518 C1513 1.363 . S
C1518 C1517 1.415 . S
C1519 H1495 0.951 . S
C1519 C1520 1.366 . S
C1519 C1521 1.388 . S
C1520 C1519 1.366 . S
C1520 C1524 1.385 . S
C1521 H1496 0.951 . S
C1521 C1519 1.388 . S
C1521 C1522 1.366 . S
C1522 C1521 1.366 . S
C1522 C1523 1.414 . S
C1522 C1525 1.499 . S
C1523 H1497 0.950 . S
C1523 C1522 1.414 . S
C1523 C1524 1.374 . S
C1524 H1498 0.950 . S
C1524 C1520 1.385 . S
C1524 C1523 1.374 . S
C1525 C1522 1.499 . S
C1525 C1526 1.373 . S
C1525 C1527 1.389 . S
C1526 H1499 0.950 . S
C1526 C1512 1.377 . S
C1526 C1525 1.373 . S
C1527 C1511 1.377 . S
C1527 C1525 1.389 . S
C1527 C1528 1.524 . S
C1528 C1527 1.524 . S
C1528 C1529 1.397 . S
C1528 C1533 1.363 . S
C1529 H1500 0.950 . S
C1529 C1528 1.397 . S
C1529 C1530 1.334 . S
C1530 H1501 0.950 . S
C1530 C1529 1.334 . S
C1530 C1531 1.287 . S
C1531 C1530 1.287 . S
C1531 C1532 1.524 . S
C1531 H1534 0.999 . S
C1532 H1502 0.950 . S
C1532 C1531 1.524 . S
C1532 C1533 1.415 . S
C1533 H1503 0.950 . S
C1533 C1528 1.363 . S
C1533 C1532 1.415 . S
H1534 C1531 0.999 . S
H1535 C1516 0.913 . S
H1536 C1554 0.951 . S
H1537 C1556 0.951 . S
H1538 C1558 0.950 . S
H1539 C1559 0.950 . S
H1540 C1561 0.950 . S
H1541 C1564 0.950 . S
H1542 C1565 0.950 . S
H1543 C1567 0.950 . S
H1544 C1568 0.950 . S
H1545 C1569 0.951 . S
H1546 C1571 0.951 . S
H1547 C1573 0.950 . S
H1548 C1574 0.950 . S
H1549 C1576 0.950 . S
H1550 C1579 0.950 . S
H1551 C1580 0.950 . S
H1552 C1582 0.950 . S
H1553 C1583 0.950 . S
C1554 H1536 0.951 . S
C1554 C1555 1.366 . S
C1554 C1556 1.388 . S
C1555 C1554 1.366 . S
C1555 C1559 1.385 . S
C1556 H1537 0.951 . S
C1556 C1554 1.388 . S
C1556 C1557 1.366 . S
C1557 C1556 1.366 . S
C1557 C1558 1.414 . S
C1557 C1560 1.499 . S
C1558 H1538 0.950 . S
C1558 C1557 1.414 . S
C1558 C1559 1.374 . S
C1559 H1539 0.950 . S
C1559 C1555 1.385 . S
C1559 C1558 1.374 . S
C1560 C1557 1.499 . S
C1560 C1561 1.373 . S
C1560 C1562 1.389 . S
C1561 H1540 0.950 . S
C1561 C1560 1.373 . S
C1561 C1577 1.377 1_554 S
C1562 C1560 1.389 . S
C1562 C1563 1.524 . S
C1562 C1576 1.377 1_554 S
C1563 C1562 1.524 . S
C1563 C1564 1.397 . S
C1563 C1568 1.363 . S
C1564 H1541 0.950 . S
C1564 C1563 1.397 . S
C1564 C1565 1.334 . S
C1565 H1542 0.950 . S
C1565 C1564 1.334 . S
C1565 C1566 1.287 . S
C1566 C1565 1.287 . S
C1566 C1567 1.524 . S
C1566 H1585 0.913 . S
C1567 H1543 0.950 . S
C1567 C1566 1.524 . S
C1567 C1568 1.415 . S
C1568 H1544 0.950 . S
C1568 C1563 1.363 . S
C1568 C1567 1.415 . S
C1569 H1545 0.951 . S
C1569 C1570 1.366 . S
C1569 C1571 1.388 . S
C1570 C1569 1.366 . S
C1570 C1574 1.385 . S
C1571 H1546 0.951 . S
C1571 C1569 1.388 . S
C1571 C1572 1.366 . S
C1572 C1571 1.366 . S
C1572 C1573 1.414 . S
C1572 C1575 1.499 . S
C1573 H1547 0.950 . S
C1573 C1572 1.414 . S
C1573 C1574 1.374 . S
C1574 H1548 0.950 . S
C1574 C1570 1.385 . S
C1574 C1573 1.374 . S
C1575 C1572 1.499 . S
C1575 C1576 1.373 . S
C1575 C1577 1.389 . S
C1576 H1549 0.950 . S
C1576 C1562 1.377 1_556 S
C1576 C1575 1.373 . S
C1577 C1561 1.377 1_556 S
C1577 C1575 1.389 . S
C1577 C1578 1.524 . S
C1578 C1577 1.524 . S
C1578 C1579 1.397 . S
C1578 C1583 1.363 . S
C1579 H1550 0.950 . S
C1579 C1578 1.397 . S
C1579 C1580 1.334 . S
C1580 H1551 0.950 . S
C1580 C1579 1.334 . S
C1580 C1581 1.287 . S
C1581 C1580 1.287 . S
C1581 C1582 1.524 . S
C1581 H1584 0.999 . S
C1582 H1552 0.950 . S
C1582 C1581 1.524 . S
C1582 C1583 1.415 . S
C1583 H1553 0.950 . S
C1583 C1578 1.363 . S
C1583 C1582 1.415 . S
H1584 C1581 0.999 . S
H1585 C1566 0.913 . S
H1586 C1604 0.951 . S
H1587 C1606 0.951 . S
H1588 C1608 0.950 . S
H1589 C1609 0.950 . S
H1590 C1611 0.950 . S
H1591 C1614 0.950 . S
H1592 C1615 0.950 . S
H1593 C1617 0.950 . S
H1594 C1618 0.950 . S
H1595 C1619 0.951 . S
H1596 C1621 0.951 . S
H1597 C1623 0.950 . S
H1598 C1624 0.950 . S
H1599 C1626 0.950 . S
H1600 C1629 0.950 . S
H1601 C1630 0.950 . S
H1602 C1632 0.950 . S
H1603 C1633 0.950 . S
C1604 H1586 0.951 . S
C1604 C1605 1.366 . S
C1604 C1606 1.388 . S
C1605 C1604 1.366 . S
C1605 C1609 1.385 . S
C1606 H1587 0.951 . S
C1606 C1604 1.388 . S
C1606 C1607 1.366 . S
C1607 C1606 1.366 . S
C1607 C1608 1.414 . S
C1607 C1610 1.499 . S
C1608 H1588 0.950 . S
C1608 C1607 1.414 . S
C1608 C1609 1.374 . S
C1609 H1589 0.950 . S
C1609 C1605 1.385 . S
C1609 C1608 1.374 . S
C1610 C1607 1.499 . S
C1610 C1611 1.373 . S
C1610 C1612 1.389 . S
C1611 H1590 0.950 . S
C1611 C1610 1.373 . S
C1611 C1627 1.377 1_556 S
C1612 C1610 1.389 . S
C1612 C1613 1.524 . S
C1612 C1626 1.377 1_556 S
C1613 C1612 1.524 . S
C1613 C1614 1.397 . S
C1613 C1618 1.363 . S
C1614 H1591 0.950 . S
C1614 C1613 1.397 . S
C1614 C1615 1.334 . S
C1615 H1592 0.950 . S
C1615 C1614 1.334 . S
C1615 C1616 1.287 . S
C1616 C1615 1.287 . S
C1616 C1617 1.524 . S
C1616 H1635 0.913 . S
C1617 H1593 0.950 . S
C1617 C1616 1.524 . S
C1617 C1618 1.415 . S
C1618 H1594 0.950 . S
C1618 C1613 1.363 . S
C1618 C1617 1.415 . S
C1619 H1595 0.951 . S
C1619 C1620 1.366 . S
C1619 C1621 1.388 . S
C1620 C1619 1.366 . S
C1620 C1624 1.385 . S
C1621 H1596 0.951 . S
C1621 C1619 1.388 . S
C1621 C1622 1.366 . S
C1622 C1621 1.366 . S
C1622 C1623 1.414 . S
C1622 C1625 1.499 . S
C1623 H1597 0.950 . S
C1623 C1622 1.414 . S
C1623 C1624 1.374 . S
C1624 H1598 0.950 . S
C1624 C1620 1.385 . S
C1624 C1623 1.374 . S
C1625 C1622 1.499 . S
C1625 C1626 1.373 . S
C1625 C1627 1.389 . S
C1626 H1599 0.950 . S
C1626 C1612 1.377 1_554 S
C1626 C1625 1.373 . S
C1627 C1611 1.377 1_554 S
C1627 C1625 1.389 . S
C1627 C1628 1.524 . S
C1628 C1627 1.524 . S
C1628 C1629 1.397 . S
C1628 C1633 1.363 . S
C1629 H1600 0.950 . S
C1629 C1628 1.397 . S
C1629 C1630 1.334 . S
C1630 H1601 0.950 . S
C1630 C1629 1.334 . S
C1630 C1631 1.287 . S
C1631 C1630 1.287 . S
C1631 C1632 1.524 . S
C1631 H1634 0.999 . S
C1632 H1602 0.950 . S
C1632 C1631 1.524 . S
C1632 C1633 1.415 . S
C1633 H1603 0.950 . S
C1633 C1628 1.363 . S
C1633 C1632 1.415 . S
H1634 C1631 0.999 . S
H1635 C1616 0.913 . S
H1636 C1654 0.951 . S
H1637 C1656 0.951 . S
H1638 C1658 0.950 . S
H1639 C1659 0.950 . S
H1640 C1661 0.950 . S
H1641 C1664 0.950 . S
H1642 C1665 0.950 . S
H1643 C1667 0.950 . S
H1644 C1668 0.950 . S
H1645 C1669 0.951 . S
H1646 C1671 0.951 . S
H1647 C1673 0.950 . S
H1648 C1674 0.950 . S
H1649 C1676 0.950 . S
H1650 C1679 0.950 . S
H1651 C1680 0.950 . S
H1652 C1682 0.950 . S
H1653 C1683 0.950 . S
C1654 H1636 0.951 . S
C1654 C1655 1.366 . S
C1654 C1656 1.388 . S
C1655 C1654 1.366 . S
C1655 C1659 1.385 . S
C1656 H1637 0.951 . S
C1656 C1654 1.388 . S
C1656 C1657 1.366 . S
C1657 C1656 1.366 . S
C1657 C1658 1.414 . S
C1657 C1660 1.499 . S
C1658 H1638 0.950 . S
C1658 C1657 1.414 . S
C1658 C1659 1.374 . S
C1659 H1639 0.950 . S
C1659 C1655 1.385 . S
C1659 C1658 1.374 . S
C1660 C1657 1.499 . S
C1660 C1661 1.373 . S
C1660 C1662 1.389 . S
C1661 H1640 0.950 . S
C1661 C1660 1.373 . S
C1661 C1677 1.377 1_556 S
C1662 C1660 1.389 . S
C1662 C1663 1.524 . S
C1662 C1676 1.377 1_556 S
C1663 C1662 1.524 . S
C1663 C1664 1.397 . S
C1663 C1668 1.363 . S
C1664 H1641 0.950 . S
C1664 C1663 1.397 . S
C1664 C1665 1.334 . S
C1665 H1642 0.950 . S
C1665 C1664 1.334 . S
C1665 C1666 1.287 . S
C1666 C1665 1.287 . S
C1666 C1667 1.524 . S
C1666 H1685 0.913 . S
C1667 H1643 0.950 . S
C1667 C1666 1.524 . S
C1667 C1668 1.415 . S
C1668 H1644 0.950 . S
C1668 C1663 1.363 . S
C1668 C1667 1.415 . S
C1669 H1645 0.951 . S
C1669 C1670 1.366 . S
C1669 C1671 1.388 . S
C1670 C1669 1.366 . S
C1670 C1674 1.385 . S
C1671 H1646 0.951 . S
C1671 C1669 1.388 . S
C1671 C1672 1.366 . S
C1672 C1671 1.366 . S
C1672 C1673 1.414 . S
C1672 C1675 1.499 . S
C1673 H1647 0.950 . S
C1673 C1672 1.414 . S
C1673 C1674 1.374 . S
C1674 H1648 0.950 . S
C1674 C1670 1.385 . S
C1674 C1673 1.374 . S
C1675 C1672 1.499 . S
C1675 C1676 1.373 . S
C1675 C1677 1.389 . S
C1676 H1649 0.950 . S
C1676 C1662 1.377 1_554 S
C1676 C1675 1.373 . S
C1677 C1661 1.377 1_554 S
C1677 C1675 1.389 . S
C1677 C1678 1.524 . S
C1678 C1677 1.524 . S
C1678 C1679 1.397 . S
C1678 C1683 1.363 . S
C1679 H1650 0.950 . S
C1679 C1678 1.397 . S
C1679 C1680 1.334 . S
C1680 H1651 0.950 . S
C1680 C1679 1.334 . S
C1680 C1681 1.287 . S
C1681 C1680 1.287 . S
C1681 C1682 1.524 . S
C1681 H1684 0.999 . S
C1682 H1652 0.950 . S
C1682 C1681 1.524 . S
C1682 C1683 1.415 . S
C1683 H1653 0.950 . S
C1683 C1678 1.363 . S
C1683 C1682 1.415 . S
H1684 C1681 0.999 . S
H1685 C1666 0.913 . S
H1686 C1704 0.951 . S
H1687 C1706 0.951 . S
H1688 C1708 0.950 . S
H1689 C1709 0.950 . S
H1690 C1711 0.950 . S
H1691 C1714 0.950 . S
H1692 C1715 0.950 . S
H1693 C1717 0.950 . S
H1694 C1718 0.950 . S
H1695 C1719 0.951 . S
H1696 C1721 0.951 . S
H1697 C1723 0.950 . S
H1698 C1724 0.950 . S
H1699 C1726 0.950 . S
H1700 C1729 0.950 . S
H1701 C1730 0.950 . S
H1702 C1732 0.950 . S
H1703 C1733 0.950 . S
C1704 H1686 0.951 . S
C1704 C1705 1.366 . S
C1704 C1706 1.388 . S
C1705 C1704 1.366 . S
C1705 C1709 1.385 . S
C1706 H1687 0.951 . S
C1706 C1704 1.388 . S
C1706 C1707 1.366 . S
C1707 C1706 1.366 . S
C1707 C1708 1.414 . S
C1707 C1710 1.499 . S
C1708 H1688 0.950 . S
C1708 C1707 1.414 . S
C1708 C1709 1.374 . S
C1709 H1689 0.950 . S
C1709 C1705 1.385 . S
C1709 C1708 1.374 . S
C1710 C1707 1.499 . S
C1710 C1711 1.373 . S
C1710 C1712 1.389 . S
C1711 H1690 0.950 . S
C1711 C1710 1.373 . S
C1711 C1727 1.377 1_554 S
C1712 C1710 1.389 . S
C1712 C1713 1.524 . S
C1712 C1726 1.377 1_554 S
C1713 C1712 1.524 . S
C1713 C1714 1.397 . S
C1713 C1718 1.363 . S
C1714 H1691 0.950 . S
C1714 C1713 1.397 . S
C1714 C1715 1.334 . S
C1715 H1692 0.950 . S
C1715 C1714 1.334 . S
C1715 C1716 1.287 . S
C1716 C1715 1.287 . S
C1716 C1717 1.524 . S
C1716 H1735 0.913 . S
C1717 H1693 0.950 . S
C1717 C1716 1.524 . S
C1717 C1718 1.415 . S
C1718 H1694 0.950 . S
C1718 C1713 1.363 . S
C1718 C1717 1.415 . S
C1719 H1695 0.951 . S
C1719 C1720 1.366 . S
C1719 C1721 1.388 . S
C1720 C1719 1.366 . S
C1720 C1724 1.385 . S
C1721 H1696 0.951 . S
C1721 C1719 1.388 . S
C1721 C1722 1.366 . S
C1722 C1721 1.366 . S
C1722 C1723 1.414 . S
C1722 C1725 1.499 . S
C1723 H1697 0.950 . S
C1723 C1722 1.414 . S
C1723 C1724 1.374 . S
C1724 H1698 0.950 . S
C1724 C1720 1.385 . S
C1724 C1723 1.374 . S
C1725 C1722 1.499 . S
C1725 C1726 1.373 . S
C1725 C1727 1.389 . S
C1726 H1699 0.950 . S
C1726 C1712 1.377 1_556 S
C1726 C1725 1.373 . S
C1727 C1711 1.377 1_556 S
C1727 C1725 1.389 . S
C1727 C1728 1.524 . S
C1728 C1727 1.524 . S
C1728 C1729 1.397 . S
C1728 C1733 1.363 . S
C1729 H1700 0.950 . S
C1729 C1728 1.397 . S
C1729 C1730 1.334 . S
C1730 H1701 0.950 . S
C1730 C1729 1.334 . S
C1730 C1731 1.287 . S
C1731 C1730 1.287 . S
C1731 C1732 1.524 . S
C1731 H1734 0.999 . S
C1732 H1702 0.950 . S
C1732 C1731 1.524 . S
C1732 C1733 1.415 . S
C1733 H1703 0.950 . S
C1733 C1728 1.363 . S
C1733 C1732 1.415 . S
H1734 C1731 0.999 . S
H1735 C1716 0.913 . S
H1736 C1754 0.951 . S
H1737 C1756 0.951 . S
H1738 C1758 0.950 . S
H1739 C1759 0.950 . S
H1740 C1761 0.950 . S
H1741 C1764 0.950 . S
H1742 C1765 0.950 . S
H1743 C1767 0.950 . S
H1744 C1768 0.950 . S
H1745 C1769 0.951 . S
H1746 C1771 0.951 . S
H1747 C1773 0.950 . S
H1748 C1774 0.950 . S
H1749 C1776 0.950 . S
H1750 C1779 0.950 . S
H1751 C1780 0.950 . S
H1752 C1782 0.950 . S
H1753 C1783 0.950 . S
C1754 H1736 0.951 . S
C1754 C1755 1.366 . S
C1754 C1756 1.388 . S
C1755 C1754 1.366 . S
C1755 C1759 1.385 . S
C1756 H1737 0.951 . S
C1756 C1754 1.388 . S
C1756 C1757 1.366 . S
C1757 C1756 1.366 . S
C1757 C1758 1.414 . S
C1757 C1760 1.499 . S
C1758 H1738 0.950 . S
C1758 C1757 1.414 . S
C1758 C1759 1.374 . S
C1759 H1739 0.950 . S
C1759 C1755 1.385 . S
C1759 C1758 1.374 . S
C1760 C1757 1.499 . S
C1760 C1761 1.373 . S
C1760 C1762 1.389 . S
C1761 H1740 0.950 . S
C1761 C1760 1.373 . S
C1761 C1777 1.377 1_554 S
C1762 C1760 1.389 . S
C1762 C1763 1.524 . S
C1762 C1776 1.377 1_554 S
C1763 C1762 1.524 . S
C1763 C1764 1.397 . S
C1763 C1768 1.363 . S
C1764 H1741 0.950 . S
C1764 C1763 1.397 . S
C1764 C1765 1.334 . S
C1765 H1742 0.950 . S
C1765 C1764 1.334 . S
C1765 C1766 1.287 . S
C1766 C1765 1.287 . S
C1766 C1767 1.524 . S
C1766 H1785 0.913 . S
C1767 H1743 0.950 . S
C1767 C1766 1.524 . S
C1767 C1768 1.415 . S
C1768 H1744 0.950 . S
C1768 C1763 1.363 . S
C1768 C1767 1.415 . S
C1769 H1745 0.951 . S
C1769 C1770 1.366 . S
C1769 C1771 1.388 . S
C1770 C1769 1.366 . S
C1770 C1774 1.385 . S
C1771 H1746 0.951 . S
C1771 C1769 1.388 . S
C1771 C1772 1.366 . S
C1772 C1771 1.366 . S
C1772 C1773 1.414 . S
C1772 C1775 1.499 . S
C1773 H1747 0.950 . S
C1773 C1772 1.414 . S
C1773 C1774 1.374 . S
C1774 H1748 0.950 . S
C1774 C1770 1.385 . S
C1774 C1773 1.374 . S
C1775 C1772 1.499 . S
C1775 C1776 1.373 . S
C1775 C1777 1.389 . S
C1776 H1749 0.950 . S
C1776 C1762 1.377 1_556 S
C1776 C1775 1.373 . S
C1777 C1761 1.377 1_556 S
C1777 C1775 1.389 . S
C1777 C1778 1.524 . S
C1778 C1777 1.524 . S
C1778 C1779 1.397 . S
C1778 C1783 1.363 . S
C1779 H1750 0.950 . S
C1779 C1778 1.397 . S
C1779 C1780 1.334 . S
C1780 H1751 0.950 . S
C1780 C1779 1.334 . S
C1780 C1781 1.287 . S
C1781 C1780 1.287 . S
C1781 C1782 1.524 . S
C1781 H1784 0.999 . S
C1782 H1752 0.950 . S
C1782 C1781 1.524 . S
C1782 C1783 1.415 . S
C1783 H1753 0.950 . S
C1783 C1778 1.363 . S
C1783 C1782 1.415 . S
H1784 C1781 0.999 . S
H1785 C1766 0.913 . S
H1786 C1804 0.951 . S
H1787 C1806 0.951 . S
H1788 C1808 0.950 . S
H1789 C1809 0.950 . S
H1790 C1811 0.950 . S
H1791 C1814 0.950 . S
H1792 C1815 0.950 . S
H1793 C1817 0.950 . S
H1794 C1818 0.950 . S
H1795 C1819 0.951 . S
H1796 C1821 0.951 . S
H1797 C1823 0.950 . S
H1798 C1824 0.950 . S
H1799 C1826 0.950 . S
H1800 C1829 0.950 . S
H1801 C1830 0.950 . S
H1802 C1832 0.950 . S
H1803 C1833 0.950 . S
C1804 H1786 0.951 . S
C1804 C1805 1.366 . S
C1804 C1806 1.388 . S
C1805 C1804 1.366 . S
C1805 C1809 1.385 . S
C1806 H1787 0.951 . S
C1806 C1804 1.388 . S
C1806 C1807 1.366 . S
C1807 C1806 1.366 . S
C1807 C1808 1.414 . S
C1807 C1810 1.499 . S
C1808 H1788 0.950 . S
C1808 C1807 1.414 . S
C1808 C1809 1.374 . S
C1809 H1789 0.950 . S
C1809 C1805 1.385 . S
C1809 C1808 1.374 . S
C1810 C1807 1.499 . S
C1810 C1811 1.373 . S
C1810 C1812 1.389 . S
C1811 H1790 0.950 . S
C1811 C1810 1.373 . S
C1811 C1827 1.377 1_556 S
C1812 C1810 1.389 . S
C1812 C1813 1.524 . S
C1812 C1826 1.377 1_556 S
C1813 C1812 1.524 . S
C1813 C1814 1.397 . S
C1813 C1818 1.363 . S
C1814 H1791 0.950 . S
C1814 C1813 1.397 . S
C1814 C1815 1.334 . S
C1815 H1792 0.950 . S
C1815 C1814 1.334 . S
C1815 C1816 1.287 . S
C1816 C1815 1.287 . S
C1816 C1817 1.524 . S
C1816 H1835 0.913 . S
C1817 H1793 0.950 . S
C1817 C1816 1.524 . S
C1817 C1818 1.415 . S
C1818 H1794 0.950 . S
C1818 C1813 1.363 . S
C1818 C1817 1.415 . S
C1819 H1795 0.951 . S
C1819 C1820 1.366 . S
C1819 C1821 1.388 . S
C1820 C1819 1.366 . S
C1820 C1824 1.385 . S
C1821 H1796 0.951 . S
C1821 C1819 1.388 . S
C1821 C1822 1.366 . S
C1822 C1821 1.366 . S
C1822 C1823 1.414 . S
C1822 C1825 1.499 . S
C1823 H1797 0.950 . S
C1823 C1822 1.414 . S
C1823 C1824 1.374 . S
C1824 H1798 0.950 . S
C1824 C1820 1.385 . S
C1824 C1823 1.374 . S
C1825 C1822 1.499 . S
C1825 C1826 1.373 . S
C1825 C1827 1.389 . S
C1826 H1799 0.950 . S
C1826 C1812 1.377 1_554 S
C1826 C1825 1.373 . S
C1827 C1811 1.377 1_554 S
C1827 C1825 1.389 . S
C1827 C1828 1.524 . S
C1828 C1827 1.524 . S
C1828 C1829 1.397 . S
C1828 C1833 1.363 . S
C1829 H1800 0.950 . S
C1829 C1828 1.397 . S
C1829 C1830 1.334 . S
C1830 H1801 0.950 . S
C1830 C1829 1.334 . S
C1830 C1831 1.287 . S
C1831 C1830 1.287 . S
C1831 C1832 1.524 . S
C1831 H1834 0.999 . S
C1832 H1802 0.950 . S
C1832 C1831 1.524 . S
C1832 C1833 1.415 . S
C1833 H1803 0.950 . S
C1833 C1828 1.363 . S
C1833 C1832 1.415 . S
H1834 C1831 0.999 . S
H1835 C1816 0.913 . S
H1836 C1854 0.951 . S
H1837 C1856 0.951 . S
H1838 C1858 0.950 . S
H1839 C1859 0.950 . S
H1840 C1861 0.950 . S
H1841 C1864 0.950 . S
H1842 C1865 0.950 . S
H1843 C1867 0.950 . S
H1844 C1868 0.950 . S
H1845 C1869 0.951 . S
H1846 C1871 0.951 . S
H1847 C1873 0.950 . S
H1848 C1874 0.950 . S
H1849 C1876 0.950 . S
H1850 C1879 0.950 . S
H1851 C1880 0.950 . S
H1852 C1882 0.950 . S
H1853 C1883 0.950 . S
C1854 H1836 0.951 . S
C1854 C1855 1.366 . S
C1854 C1856 1.388 . S
C1855 C1854 1.366 . S
C1855 C1859 1.385 . S
C1856 H1837 0.951 . S
C1856 C1854 1.388 . S
C1856 C1857 1.366 . S
C1857 C1856 1.366 . S
C1857 C1858 1.414 . S
C1857 C1860 1.499 . S
C1858 H1838 0.950 . S
C1858 C1857 1.414 . S
C1858 C1859 1.374 . S
C1859 H1839 0.950 . S
C1859 C1855 1.385 . S
C1859 C1858 1.374 . S
C1860 C1857 1.499 . S
C1860 C1861 1.373 . S
C1860 C1862 1.389 . S
C1861 H1840 0.950 . S
C1861 C1860 1.373 . S
C1861 C1877 1.377 . S
C1862 C1860 1.389 . S
C1862 C1863 1.524 . S
C1862 C1876 1.377 . S
C1863 C1862 1.524 . S
C1863 C1864 1.397 . S
C1863 C1868 1.363 . S
C1864 H1841 0.950 . S
C1864 C1863 1.397 . S
C1864 C1865 1.334 . S
C1865 H1842 0.950 . S
C1865 C1864 1.334 . S
C1865 C1866 1.287 . S
C1866 C1865 1.287 . S
C1866 C1867 1.524 . S
C1866 H1885 0.913 . S
C1867 H1843 0.950 . S
C1867 C1866 1.524 . S
C1867 C1868 1.415 . S
C1868 H1844 0.950 . S
C1868 C1863 1.363 . S
C1868 C1867 1.415 . S
C1869 H1845 0.951 . S
C1869 C1870 1.366 . S
C1869 C1871 1.388 . S
C1870 C1869 1.366 . S
C1870 C1874 1.385 . S
C1871 H1846 0.951 . S
C1871 C1869 1.388 . S
C1871 C1872 1.366 . S
C1872 C1871 1.366 . S
C1872 C1873 1.414 . S
C1872 C1875 1.499 . S
C1873 H1847 0.950 . S
C1873 C1872 1.414 . S
C1873 C1874 1.374 . S
C1874 H1848 0.950 . S
C1874 C1870 1.385 . S
C1874 C1873 1.374 . S
C1875 C1872 1.499 . S
C1875 C1876 1.373 . S
C1875 C1877 1.389 . S
C1876 H1849 0.950 . S
C1876 C1862 1.377 . S
C1876 C1875 1.373 . S
C1877 C1861 1.377 . S
C1877 C1875 1.389 . S
C1877 C1878 1.524 . S
C1878 C1877 1.524 . S
C1878 C1879 1.397 . S
C1878 C1883 1.363 . S
C1879 H1850 0.950 . S
C1879 C1878 1.397 . S
C1879 C1880 1.334 . S
C1880 H1851 0.950 . S
C1880 C1879 1.334 . S
C1880 C1881 1.287 . S
C1881 C1880 1.287 . S
C1881 C1882 1.524 . S
C1881 H1884 0.999 . S
C1882 H1852 0.950 . S
C1882 C1881 1.524 . S
C1882 C1883 1.415 . S
C1883 H1853 0.950 . S
C1883 C1878 1.363 . S
C1883 C1882 1.415 . S
H1884 C1881 0.999 . S
H1885 C1866 0.913 . S
H1886 C1904 0.951 . S
H1887 C1906 0.951 . S
H1888 C1908 0.950 . S
H1889 C1909 0.950 . S
H1890 C1911 0.950 . S
H1891 C1914 0.950 . S
H1892 C1915 0.950 . S
H1893 C1917 0.950 . S
H1894 C1918 0.950 . S
H1895 C1919 0.951 . S
H1896 C1921 0.951 . S
H1897 C1923 0.950 . S
H1898 C1924 0.950 . S
H1899 C1926 0.950 . S
H1900 C1929 0.950 . S
H1901 C1930 0.950 . S
H1902 C1932 0.950 . S
H1903 C1933 0.950 . S
C1904 H1886 0.951 . S
C1904 C1905 1.366 . S
C1904 C1906 1.388 . S
C1905 C1904 1.366 . S
C1905 C1909 1.385 . S
C1906 H1887 0.951 . S
C1906 C1904 1.388 . S
C1906 C1907 1.366 . S
C1907 C1906 1.366 . S
C1907 C1908 1.414 . S
C1907 C1910 1.499 . S
C1908 H1888 0.950 . S
C1908 C1907 1.414 . S
C1908 C1909 1.374 . S
C1909 H1889 0.950 . S
C1909 C1905 1.385 . S
C1909 C1908 1.374 . S
C1910 C1907 1.499 . S
C1910 C1911 1.373 . S
C1910 C1912 1.389 . S
C1911 H1890 0.950 . S
C1911 C1910 1.373 . S
C1911 C1927 1.377 . S
C1912 C1910 1.389 . S
C1912 C1913 1.524 . S
C1912 C1926 1.377 . S
C1913 C1912 1.524 . S
C1913 C1914 1.397 . S
C1913 C1918 1.363 . S
C1914 H1891 0.950 . S
C1914 C1913 1.397 . S
C1914 C1915 1.334 . S
C1915 H1892 0.950 . S
C1915 C1914 1.334 . S
C1915 C1916 1.287 . S
C1916 C1915 1.287 . S
C1916 C1917 1.524 . S
C1916 H1935 0.913 . S
C1917 H1893 0.950 . S
C1917 C1916 1.524 . S
C1917 C1918 1.415 . S
C1918 H1894 0.950 . S
C1918 C1913 1.363 . S
C1918 C1917 1.415 . S
C1919 H1895 0.951 . S
C1919 C1920 1.366 . S
C1919 C1921 1.388 . S
C1920 C1919 1.366 . S
C1920 C1924 1.385 . S
C1921 H1896 0.951 . S
C1921 C1919 1.388 . S
C1921 C1922 1.366 . S
C1922 C1921 1.366 . S
C1922 C1923 1.414 . S
C1922 C1925 1.499 . S
C1923 H1897 0.950 . S
C1923 C1922 1.414 . S
C1923 C1924 1.374 . S
C1924 H1898 0.950 . S
C1924 C1920 1.385 . S
C1924 C1923 1.374 . S
C1925 C1922 1.499 . S
C1925 C1926 1.373 . S
C1925 C1927 1.389 . S
C1926 H1899 0.950 . S
C1926 C1912 1.377 . S
C1926 C1925 1.373 . S
C1927 C1911 1.377 . S
C1927 C1925 1.389 . S
C1927 C1928 1.524 . S
C1928 C1927 1.524 . S
C1928 C1929 1.397 . S
C1928 C1933 1.363 . S
C1929 H1900 0.950 . S
C1929 C1928 1.397 . S
C1929 C1930 1.334 . S
C1930 H1901 0.950 . S
C1930 C1929 1.334 . S
C1930 C1931 1.287 . S
C1931 C1930 1.287 . S
C1931 C1932 1.524 . S
C1931 H1934 0.999 . S
C1932 H1902 0.950 . S
C1932 C1931 1.524 . S
C1932 C1933 1.415 . S
C1933 H1903 0.950 . S
C1933 C1928 1.363 . S
C1933 C1932 1.415 . S
H1934 C1931 0.999 . S
H1935 C1916 0.913 . S
H1936 C1954 0.951 . S
H1937 C1956 0.951 . S
H1938 C1958 0.950 . S
H1939 C1959 0.950 . S
H1940 C1961 0.950 . S
H1941 C1964 0.950 . S
H1942 C1965 0.950 . S
H1943 C1967 0.950 . S
H1944 C1968 0.950 . S
H1945 C1969 0.951 . S
H1946 C1971 0.951 . S
H1947 C1973 0.950 . S
H1948 C1974 0.950 . S
H1949 C1976 0.950 . S
H1950 C1979 0.950 . S
H1951 C1980 0.950 . S
H1952 C1982 0.950 . S
H1953 C1983 0.950 . S
C1954 H1936 0.951 . S
C1954 C1955 1.366 . S
C1954 C1956 1.388 . S
C1955 C1954 1.366 . S
C1955 C1959 1.385 . S
C1956 H1937 0.951 . S
C1956 C1954 1.388 . S
C1956 C1957 1.366 . S
C1957 C1956 1.366 . S
C1957 C1958 1.414 . S
C1957 C1960 1.499 . S
C1958 H1938 0.950 . S
C1958 C1957 1.414 . S
C1958 C1959 1.374 . S
C1959 H1939 0.950 . S
C1959 C1955 1.385 . S
C1959 C1958 1.374 . S
C1960 C1957 1.499 . S
C1960 C1961 1.373 . S
C1960 C1962 1.389 . S
C1961 H1940 0.950 . S
C1961 C1960 1.373 . S
C1961 C1977 1.377 . S
C1962 C1960 1.389 . S
C1962 C1963 1.524 . S
C1962 C1976 1.377 . S
C1963 C1962 1.524 . S
C1963 C1964 1.397 . S
C1963 C1968 1.363 . S
C1964 H1941 0.950 . S
C1964 C1963 1.397 . S
C1964 C1965 1.334 . S
C1965 H1942 0.950 . S
C1965 C1964 1.334 . S
C1965 C1966 1.287 . S
C1966 C1965 1.287 . S
C1966 C1967 1.524 . S
C1966 H1985 0.913 . S
C1967 H1943 0.950 . S
C1967 C1966 1.524 . S
C1967 C1968 1.415 . S
C1968 H1944 0.950 . S
C1968 C1963 1.363 . S
C1968 C1967 1.415 . S
C1969 H1945 0.951 . S
C1969 C1970 1.366 . S
C1969 C1971 1.388 . S
C1970 C1969 1.366 . S
C1970 C1974 1.385 . S
C1971 H1946 0.951 . S
C1971 C1969 1.388 . S
C1971 C1972 1.366 . S
C1972 C1971 1.366 . S
C1972 C1973 1.414 . S
C1972 C1975 1.499 . S
C1973 H1947 0.950 . S
C1973 C1972 1.414 . S
C1973 C1974 1.374 . S
C1974 H1948 0.950 . S
C1974 C1970 1.385 . S
C1974 C1973 1.374 . S
C1975 C1972 1.499 . S
C1975 C1976 1.373 . S
C1975 C1977 1.389 . S
C1976 H1949 0.950 . S
C1976 C1962 1.377 . S
C1976 C1975 1.373 . S
C1977 C1961 1.377 . S
C1977 C1975 1.389 . S
C1977 C1978 1.524 . S
C1978 C1977 1.524 . S
C1978 C1979 1.397 . S
C1978 C1983 1.363 . S
C1979 H1950 0.950 . S
C1979 C1978 1.397 . S
C1979 C1980 1.334 . S
C1980 H1951 0.950 . S
C1980 C1979 1.334 . S
C1980 C1981 1.287 . S
C1981 C1980 1.287 . S
C1981 C1982 1.524 . S
C1981 H1984 0.999 . S
C1982 H1952 0.950 . S
C1982 C1981 1.524 . S
C1982 C1983 1.415 . S
C1983 H1953 0.950 . S
C1983 C1978 1.363 . S
C1983 C1982 1.415 . S
H1984 C1981 0.999 . S
H1985 C1966 0.913 . S
H1986 C2004 0.951 . S
H1987 C2006 0.951 . S
H1988 C2008 0.950 . S
H1989 C2009 0.950 . S
H1990 C2011 0.950 . S
H1991 C2014 0.950 . S
H1992 C2015 0.950 . S
H1993 C2017 0.950 . S
H1994 C2018 0.950 . S
H1995 C2019 0.951 . S
H1996 C2021 0.951 . S
H1997 C2023 0.950 . S
H1998 C2024 0.950 . S
H1999 C2026 0.950 . S
H2000 C2029 0.950 . S
H2001 C2030 0.950 . S
H2002 C2032 0.950 . S
H2003 C2033 0.950 . S
C2004 H1986 0.951 . S
C2004 C2005 1.366 . S
C2004 C2006 1.388 . S
C2005 C2004 1.366 . S
C2005 C2009 1.385 . S
C2006 H1987 0.951 . S
C2006 C2004 1.388 . S
C2006 C2007 1.366 . S
C2007 C2006 1.366 . S
C2007 C2008 1.414 . S
C2007 C2010 1.499 . S
C2008 H1988 0.950 . S
C2008 C2007 1.414 . S
C2008 C2009 1.374 . S
C2009 H1989 0.950 . S
C2009 C2005 1.385 . S
C2009 C2008 1.374 . S
C2010 C2007 1.499 . S
C2010 C2011 1.373 . S
C2010 C2012 1.389 . S
C2011 H1990 0.950 . S
C2011 C2010 1.373 . S
C2011 C2027 1.377 . S
C2012 C2010 1.389 . S
C2012 C2013 1.524 . S
C2012 C2026 1.377 . S
C2013 C2012 1.524 . S
C2013 C2014 1.397 . S
C2013 C2018 1.363 . S
C2014 H1991 0.950 . S
C2014 C2013 1.397 . S
C2014 C2015 1.334 . S
C2015 H1992 0.950 . S
C2015 C2014 1.334 . S
C2015 C2016 1.287 . S
C2016 C2015 1.287 . S
C2016 C2017 1.524 . S
C2016 H2035 0.913 . S
C2017 H1993 0.950 . S
C2017 C2016 1.524 . S
C2017 C2018 1.415 . S
C2018 H1994 0.950 . S
C2018 C2013 1.363 . S
C2018 C2017 1.415 . S
C2019 H1995 0.951 . S
C2019 C2020 1.366 . S
C2019 C2021 1.388 . S
C2020 C2019 1.366 . S
C2020 C2024 1.385 . S
C2021 H1996 0.951 . S
C2021 C2019 1.388 . S
C2021 C2022 1.366 . S
C2022 C2021 1.366 . S
C2022 C2023 1.414 . S
C2022 C2025 1.499 . S
C2023 H1997 0.950 . S
C2023 C2022 1.414 . S
C2023 C2024 1.374 . S
C2024 H1998 0.950 . S
C2024 C2020 1.385 . S
C2024 C2023 1.374 . S
C2025 C2022 1.499 . S
C2025 C2026 1.373 . S
C2025 C2027 1.389 . S
C2026 H1999 0.950 . S
C2026 C2012 1.377 . S
C2026 C2025 1.373 . S
C2027 C2011 1.377 . S
C2027 C2025 1.389 . S
C2027 C2028 1.524 . S
C2028 C2027 1.524 . S
C2028 C2029 1.397 . S
C2028 C2033 1.363 . S
C2029 H2000 0.950 . S
C2029 C2028 1.397 . S
C2029 C2030 1.334 . S
C2030 H2001 0.950 . S
C2030 C2029 1.334 . S
C2030 C2031 1.287 . S
C2031 C2030 1.287 . S
C2031 C2032 1.524 . S
C2031 H2034 0.999 . S
C2032 H2002 0.950 . S
C2032 C2031 1.524 . S
C2032 C2033 1.415 . S
C2033 H2003 0.950 . S
C2033 C2028 1.363 . S
C2033 C2032 1.415 . S
H2034 C2031 0.999 . S
H2035 C2016 0.913 . S
H2036 C2054 0.951 . S
H2037 C2056 0.951 . S
H2038 C2058 0.950 . S
H2039 C2059 0.950 . S
H2040 C2061 0.950 . S
H2041 C2064 0.950 . S
H2042 C2065 0.950 . S
H2043 C2067 0.950 . S
H2044 C2068 0.950 . S
H2045 C2069 0.951 . S
H2046 C2071 0.951 . S
H2047 C2073 0.950 . S
H2048 C2074 0.950 . S
H2049 C2076 0.950 . S
H2050 C2079 0.950 . S
H2051 C2080 0.950 . S
H2052 C2082 0.950 . S
H2053 C2083 0.950 . S
C2054 H2036 0.951 . S
C2054 C2055 1.366 . S
C2054 C2056 1.388 . S
C2055 C2054 1.366 . S
C2055 C2059 1.385 . S
C2056 H2037 0.951 . S
C2056 C2054 1.388 . S
C2056 C2057 1.366 . S
C2057 C2056 1.366 . S
C2057 C2058 1.414 . S
C2057 C2060 1.499 . S
C2058 H2038 0.950 . S
C2058 C2057 1.414 . S
C2058 C2059 1.374 . S
C2059 H2039 0.950 . S
C2059 C2055 1.385 . S
C2059 C2058 1.374 . S
C2060 C2057 1.499 . S
C2060 C2061 1.373 . S
C2060 C2062 1.389 . S
C2061 H2040 0.950 . S
C2061 C2060 1.373 . S
C2061 C2077 1.377 . S
C2062 C2060 1.389 . S
C2062 C2063 1.524 . S
C2062 C2076 1.377 . S
C2063 C2062 1.524 . S
C2063 C2064 1.397 . S
C2063 C2068 1.363 . S
C2064 H2041 0.950 . S
C2064 C2063 1.397 . S
C2064 C2065 1.334 . S
C2065 H2042 0.950 . S
C2065 C2064 1.334 . S
C2065 C2066 1.287 . S
C2066 C2065 1.287 . S
C2066 C2067 1.524 . S
C2066 H2085 0.913 . S
C2067 H2043 0.950 . S
C2067 C2066 1.524 . S
C2067 C2068 1.415 . S
C2068 H2044 0.950 . S
C2068 C2063 1.363 . S
C2068 C2067 1.415 . S
C2069 H2045 0.951 . S
C2069 C2070 1.366 . S
C2069 C2071 1.388 . S
C2070 C2069 1.366 . S
C2070 C2074 1.385 . S
C2071 H2046 0.951 . S
C2071 C2069 1.388 . S
C2071 C2072 1.366 . S
C2072 C2071 1.366 . S
C2072 C2073 1.414 . S
C2072 C2075 1.499 . S
C2073 H2047 0.950 . S
C2073 C2072 1.414 . S
C2073 C2074 1.374 . S
C2074 H2048 0.950 . S
C2074 C2070 1.385 . S
C2074 C2073 1.374 . S
C2075 C2072 1.499 . S
C2075 C2076 1.373 . S
C2075 C2077 1.389 . S
C2076 H2049 0.950 . S
C2076 C2062 1.377 . S
C2076 C2075 1.373 . S
C2077 C2061 1.377 . S
C2077 C2075 1.389 . S
C2077 C2078 1.524 . S
C2078 C2077 1.524 . S
C2078 C2079 1.397 . S
C2078 C2083 1.363 . S
C2079 H2050 0.950 . S
C2079 C2078 1.397 . S
C2079 C2080 1.334 . S
C2080 H2051 0.950 . S
C2080 C2079 1.334 . S
C2080 C2081 1.287 . S
C2081 C2080 1.287 . S
C2081 C2082 1.524 . S
C2081 H2084 0.999 . S
C2082 H2052 0.950 . S
C2082 C2081 1.524 . S
C2082 C2083 1.415 . S
C2083 H2053 0.950 . S
C2083 C2078 1.363 . S
C2083 C2082 1.415 . S
H2084 C2081 0.999 . S
H2085 C2066 0.913 . S
H2086 C2104 0.951 . S
H2087 C2106 0.951 . S
H2088 C2108 0.950 . S
H2089 C2109 0.950 . S
H2090 C2111 0.950 . S
H2091 C2114 0.950 . S
H2092 C2115 0.950 . S
H2093 C2117 0.950 . S
H2094 C2118 0.950 . S
H2095 C2119 0.951 . S
H2096 C2121 0.951 . S
H2097 C2123 0.950 . S
H2098 C2124 0.950 . S
H2099 C2126 0.950 . S
H2100 C2129 0.950 . S
H2101 C2130 0.950 . S
H2102 C2132 0.950 . S
H2103 C2133 0.950 . S
C2104 H2086 0.951 . S
C2104 C2105 1.366 . S
C2104 C2106 1.388 . S
C2105 C2104 1.366 . S
C2105 C2109 1.385 . S
C2106 H2087 0.951 . S
C2106 C2104 1.388 . S
C2106 C2107 1.366 . S
C2107 C2106 1.366 . S
C2107 C2108 1.414 . S
C2107 C2110 1.499 . S
C2108 H2088 0.950 . S
C2108 C2107 1.414 . S
C2108 C2109 1.374 . S
C2109 H2089 0.950 . S
C2109 C2105 1.385 . S
C2109 C2108 1.374 . S
C2110 C2107 1.499 . S
C2110 C2111 1.373 . S
C2110 C2112 1.389 . S
C2111 H2090 0.950 . S
C2111 C2110 1.373 . S
C2111 C2127 1.377 . S
C2112 C2110 1.389 . S
C2112 C2113 1.524 . S
C2112 C2126 1.377 . S
C2113 C2112 1.524 . S
C2113 C2114 1.397 . S
C2113 C2118 1.363 . S
C2114 H2091 0.950 . S
C2114 C2113 1.397 . S
C2114 C2115 1.334 . S
C2115 H2092 0.950 . S
C2115 C2114 1.334 . S
C2115 C2116 1.287 . S
C2116 C2115 1.287 . S
C2116 C2117 1.524 . S
C2116 H2135 0.913 . S
C2117 H2093 0.950 . S
C2117 C2116 1.524 . S
C2117 C2118 1.415 . S
C2118 H2094 0.950 . S
C2118 C2113 1.363 . S
C2118 C2117 1.415 . S
C2119 H2095 0.951 . S
C2119 C2120 1.366 . S
C2119 C2121 1.388 . S
C2120 C2119 1.366 . S
C2120 C2124 1.385 . S
C2121 H2096 0.951 . S
C2121 C2119 1.388 . S
C2121 C2122 1.366 . S
C2122 C2121 1.366 . S
C2122 C2123 1.414 . S
C2122 C2125 1.499 . S
C2123 H2097 0.950 . S
C2123 C2122 1.414 . S
C2123 C2124 1.374 . S
C2124 H2098 0.950 . S
C2124 C2120 1.385 . S
C2124 C2123 1.374 . S
C2125 C2122 1.499 . S
C2125 C2126 1.373 . S
C2125 C2127 1.389 . S
C2126 H2099 0.950 . S
C2126 C2112 1.377 . S
C2126 C2125 1.373 . S
C2127 C2111 1.377 . S
C2127 C2125 1.389 . S
C2127 C2128 1.524 . S
C2128 C2127 1.524 . S
C2128 C2129 1.397 . S
C2128 C2133 1.363 . S
C2129 H2100 0.950 . S
C2129 C2128 1.397 . S
C2129 C2130 1.334 . S
C2130 H2101 0.950 . S
C2130 C2129 1.334 . S
C2130 C2131 1.287 . S
C2131 C2130 1.287 . S
C2131 C2132 1.524 . S
C2131 H2134 0.999 . S
C2132 H2102 0.950 . S
C2132 C2131 1.524 . S
C2132 C2133 1.415 . S
C2133 H2103 0.950 . S
C2133 C2128 1.363 . S
C2133 C2132 1.415 . S
H2134 C2131 0.999 . S
H2135 C2116 0.913 . S
H2136 C2154 0.951 . S
H2137 C2156 0.951 . S
H2138 C2158 0.950 . S
H2139 C2159 0.950 . S
H2140 C2161 0.950 . S
H2141 C2164 0.950 . S
H2142 C2165 0.950 . S
H2143 C2167 0.950 . S
H2144 C2168 0.950 . S
H2145 C2169 0.951 . S
H2146 C2171 0.951 . S
H2147 C2173 0.950 . S
H2148 C2174 0.950 . S
H2149 C2176 0.950 . S
H2150 C2179 0.950 . S
H2151 C2180 0.950 . S
H2152 C2182 0.950 . S
H2153 C2183 0.950 . S
C2154 H2136 0.951 . S
C2154 C2155 1.366 . S
C2154 C2156 1.388 . S
C2155 C2154 1.366 . S
C2155 C2159 1.385 . S
C2156 H2137 0.951 . S
C2156 C2154 1.388 . S
C2156 C2157 1.366 . S
C2157 C2156 1.366 . S
C2157 C2158 1.414 . S
C2157 C2160 1.499 . S
C2158 H2138 0.950 . S
C2158 C2157 1.414 . S
C2158 C2159 1.374 . S
C2159 H2139 0.950 . S
C2159 C2155 1.385 . S
C2159 C2158 1.374 . S
C2160 C2157 1.499 . S
C2160 C2161 1.373 . S
C2160 C2162 1.389 . S
C2161 H2140 0.950 . S
C2161 C2160 1.373 . S
C2161 C2177 1.377 . S
C2162 C2160 1.389 . S
C2162 C2163 1.524 . S
C2162 C2176 1.377 . S
C2163 C2162 1.524 . S
C2163 C2164 1.397 . S
C2163 C2168 1.363 . S
C2164 H2141 0.950 . S
C2164 C2163 1.397 . S
C2164 C2165 1.334 . S
C2165 H2142 0.950 . S
C2165 C2164 1.334 . S
C2165 C2166 1.287 . S
C2166 C2165 1.287 . S
C2166 C2167 1.524 . S
C2166 H2185 0.913 . S
C2167 H2143 0.950 . S
C2167 C2166 1.524 . S
C2167 C2168 1.415 . S
C2168 H2144 0.950 . S
C2168 C2163 1.363 . S
C2168 C2167 1.415 . S
C2169 H2145 0.951 . S
C2169 C2170 1.366 . S
C2169 C2171 1.388 . S
C2170 C2169 1.366 . S
C2170 C2174 1.385 . S
C2171 H2146 0.951 . S
C2171 C2169 1.388 . S
C2171 C2172 1.366 . S
C2172 C2171 1.366 . S
C2172 C2173 1.414 . S
C2172 C2175 1.499 . S
C2173 H2147 0.950 . S
C2173 C2172 1.414 . S
C2173 C2174 1.374 . S
C2174 H2148 0.950 . S
C2174 C2170 1.385 . S
C2174 C2173 1.374 . S
C2175 C2172 1.499 . S
C2175 C2176 1.373 . S
C2175 C2177 1.389 . S
C2176 H2149 0.950 . S
C2176 C2162 1.377 . S
C2176 C2175 1.373 . S
C2177 C2161 1.377 . S
C2177 C2175 1.389 . S
C2177 C2178 1.524 . S
C2178 C2177 1.524 . S
C2178 C2179 1.397 . S
C2178 C2183 1.363 . S
C2179 H2150 0.950 . S
C2179 C2178 1.397 . S
C2179 C2180 1.334 . S
C2180 H2151 0.950 . S
C2180 C2179 1.334 . S
C2180 C2181 1.287 . S
C2181 C2180 1.287 . S
C2181 C2182 1.524 . S
C2181 H2184 0.999 . S
C2182 H2152 0.950 . S
C2182 C2181 1.524 . S
C2182 C2183 1.415 . S
C2183 H2153 0.950 . S
C2183 C2178 1.363 . S
C2183 C2182 1.415 . S
H2184 C2181 0.999 . S
H2185 C2166 0.913 . S
H2186 C2204 0.951 . S
H2187 C2206 0.951 . S
H2188 C2208 0.950 . S
H2189 C2209 0.950 . S
H2190 C2211 0.950 . S
H2191 C2214 0.950 . S
H2192 C2215 0.950 . S
H2193 C2217 0.950 . S
H2194 C2218 0.950 . S
H2195 C2219 0.951 . S
H2196 C2221 0.951 . S
H2197 C2223 0.950 . S
H2198 C2224 0.950 . S
H2199 C2226 0.950 . S
H2200 C2229 0.950 . S
H2201 C2230 0.950 . S
H2202 C2232 0.950 . S
H2203 C2233 0.950 . S
C2204 H2186 0.951 . S
C2204 C2205 1.366 . S
C2204 C2206 1.388 . S
C2205 C2204 1.366 . S
C2205 C2209 1.385 . S
C2206 H2187 0.951 . S
C2206 C2204 1.388 . S
C2206 C2207 1.366 . S
C2207 C2206 1.366 . S
C2207 C2208 1.414 . S
C2207 C2210 1.499 . S
C2208 H2188 0.950 . S
C2208 C2207 1.414 . S
C2208 C2209 1.374 . S
C2209 H2189 0.950 . S
C2209 C2205 1.385 . S
C2209 C2208 1.374 . S
C2210 C2207 1.499 . S
C2210 C2211 1.373 . S
C2210 C2212 1.389 . S
C2211 H2190 0.950 . S
C2211 C2210 1.373 . S
C2211 C2227 1.377 . S
C2212 C2210 1.389 . S
C2212 C2213 1.524 . S
C2212 C2226 1.377 . S
C2213 C2212 1.524 . S
C2213 C2214 1.397 . S
C2213 C2218 1.363 . S
C2214 H2191 0.950 . S
C2214 C2213 1.397 . S
C2214 C2215 1.334 . S
C2215 H2192 0.950 . S
C2215 C2214 1.334 . S
C2215 C2216 1.287 . S
C2216 C2215 1.287 . S
C2216 C2217 1.524 . S
C2216 H2235 0.913 . S
C2217 H2193 0.950 . S
C2217 C2216 1.524 . S
C2217 C2218 1.415 . S
C2218 H2194 0.950 . S
C2218 C2213 1.363 . S
C2218 C2217 1.415 . S
C2219 H2195 0.951 . S
C2219 C2220 1.366 . S
C2219 C2221 1.388 . S
C2220 C2219 1.366 . S
C2220 C2224 1.385 . S
C2221 H2196 0.951 . S
C2221 C2219 1.388 . S
C2221 C2222 1.366 . S
C2222 C2221 1.366 . S
C2222 C2223 1.414 . S
C2222 C2225 1.499 . S
C2223 H2197 0.950 . S
C2223 C2222 1.414 . S
C2223 C2224 1.374 . S
C2224 H2198 0.950 . S
C2224 C2220 1.385 . S
C2224 C2223 1.374 . S
C2225 C2222 1.499 . S
C2225 C2226 1.373 . S
C2225 C2227 1.389 . S
C2226 H2199 0.950 . S
C2226 C2212 1.377 . S
C2226 C2225 1.373 . S
C2227 C2211 1.377 . S
C2227 C2225 1.389 . S
C2227 C2228 1.524 . S
C2228 C2227 1.524 . S
C2228 C2229 1.397 . S
C2228 C2233 1.363 . S
C2229 H2200 0.950 . S
C2229 C2228 1.397 . S
C2229 C2230 1.334 . S
C2230 H2201 0.950 . S
C2230 C2229 1.334 . S
C2230 C2231 1.287 . S
C2231 C2230 1.287 . S
C2231 C2232 1.524 . S
C2231 H2234 0.999 . S
C2232 H2202 0.950 . S
C2232 C2231 1.524 . S
C2232 C2233 1.415 . S
C2233 H2203 0.950 . S
C2233 C2228 1.363 . S
C2233 C2232 1.415 . S
H2234 C2231 0.999 . S
H2235 C2216 0.913 . S
H2236 C2254 0.951 . S
H2237 C2256 0.951 . S
H2238 C2258 0.950 . S
H2239 C2259 0.950 . S
H2240 C2261 0.950 . S
H2241 C2264 0.950 . S
H2242 C2265 0.950 . S
H2243 C2267 0.950 . S
H2244 C2268 0.950 . S
H2245 C2269 0.951 . S
H2246 C2271 0.951 . S
H2247 C2273 0.950 . S
H2248 C2274 0.950 . S
H2249 C2276 0.950 . S
H2250 C2279 0.950 . S
H2251 C2280 0.950 . S
H2252 C2282 0.950 . S
H2253 C2283 0.950 . S
C2254 H2236 0.951 . S
C2254 C2255 1.366 . S
C2254 C2256 1.388 . S
C2255 C2254 1.366 . S
C2255 C2259 1.385 . S
C2256 H2237 0.951 . S
C2256 C2254 1.388 . S
C2256 C2257 1.366 . S
C2257 C2256 1.366 . S
C2257 C2258 1.414 . S
C2257 C2260 1.499 . S
C2258 H2238 0.950 . S
C2258 C2257 1.414 . S
C2258 C2259 1.374 . S
C2259 H2239 0.950 . S
C2259 C2255 1.385 . S
C2259 C2258 1.374 . S
C2260 C2257 1.499 . S
C2260 C2261 1.373 . S
C2260 C2262 1.389 . S
C2261 H2240 0.950 . S
C2261 C2260 1.373 . S
C2261 C2277 1.377 . S
C2262 C2260 1.389 . S
C2262 C2263 1.524 . S
C2262 C2276 1.377 . S
C2263 C2262 1.524 . S
C2263 C2264 1.397 . S
C2263 C2268 1.363 . S
C2264 H2241 0.950 . S
C2264 C2263 1.397 . S
C2264 C2265 1.334 . S
C2265 H2242 0.950 . S
C2265 C2264 1.334 . S
C2265 C2266 1.287 . S
C2266 C2265 1.287 . S
C2266 C2267 1.524 . S
C2266 H2285 0.913 . S
C2267 H2243 0.950 . S
C2267 C2266 1.524 . S
C2267 C2268 1.415 . S
C2268 H2244 0.950 . S
C2268 C2263 1.363 . S
C2268 C2267 1.415 . S
C2269 H2245 0.951 . S
C2269 C2270 1.366 . S
C2269 C2271 1.388 . S
C2270 C2269 1.366 . S
C2270 C2274 1.385 . S
C2271 H2246 0.951 . S
C2271 C2269 1.388 . S
C2271 C2272 1.366 . S
C2272 C2271 1.366 . S
C2272 C2273 1.414 . S
C2272 C2275 1.499 . S
C2273 H2247 0.950 . S
C2273 C2272 1.414 . S
C2273 C2274 1.374 . S
C2274 H2248 0.950 . S
C2274 C2270 1.385 . S
C2274 C2273 1.374 . S
C2275 C2272 1.499 . S
C2275 C2276 1.373 . S
C2275 C2277 1.389 . S
C2276 H2249 0.950 . S
C2276 C2262 1.377 . S
C2276 C2275 1.373 . S
C2277 C2261 1.377 . S
C2277 C2275 1.389 . S
C2277 C2278 1.524 . S
C2278 C2277 1.524 . S
C2278 C2279 1.397 . S
C2278 C2283 1.363 . S
C2279 H2250 0.950 . S
C2279 C2278 1.397 . S
C2279 C2280 1.334 . S
C2280 H2251 0.950 . S
C2280 C2279 1.334 . S
C2280 C2281 1.287 . S
C2281 C2280 1.287 . S
C2281 C2282 1.524 . S
C2281 H2284 0.999 . S
C2282 H2252 0.950 . S
C2282 C2281 1.524 . S
C2282 C2283 1.415 . S
C2283 H2253 0.950 . S
C2283 C2278 1.363 . S
C2283 C2282 1.415 . S
H2284 C2281 0.999 . S
H2285 C2266 0.913 . S
H2286 C2304 0.951 . S
H2287 C2306 0.951 . S
H2288 C2308 0.950 . S
H2289 C2309 0.950 . S
H2290 C2311 0.950 . S
H2291 C2314 0.950 . S
H2292 C2315 0.950 . S
H2293 C2317 0.950 . S
H2294 C2318 0.950 . S
H2295 C2319 0.951 . S
H2296 C2321 0.951 . S
H2297 C2323 0.950 . S
H2298 C2324 0.950 . S
H2299 C2326 0.950 . S
H2300 C2329 0.950 . S
H2301 C2330 0.950 . S
H2302 C2332 0.950 . S
H2303 C2333 0.950 . S
C2304 H2286 0.951 . S
C2304 C2305 1.366 . S
C2304 C2306 1.388 . S
C2305 C2304 1.366 . S
C2305 C2309 1.385 . S
C2306 H2287 0.951 . S
C2306 C2304 1.388 . S
C2306 C2307 1.366 . S
C2307 C2306 1.366 . S
C2307 C2308 1.414 . S
C2307 C2310 1.499 . S
C2308 H2288 0.950 . S
C2308 C2307 1.414 . S
C2308 C2309 1.374 . S
C2309 H2289 0.950 . S
C2309 C2305 1.385 . S
C2309 C2308 1.374 . S
C2310 C2307 1.499 . S
C2310 C2311 1.373 . S
C2310 C2312 1.389 . S
C2311 H2290 0.950 . S
C2311 C2310 1.373 . S
C2311 C2327 1.377 . S
C2312 C2310 1.389 . S
C2312 C2313 1.524 . S
C2312 C2326 1.377 . S
C2313 C2312 1.524 . S
C2313 C2314 1.397 . S
C2313 C2318 1.363 . S
C2314 H2291 0.950 . S
C2314 C2313 1.397 . S
C2314 C2315 1.334 . S
C2315 H2292 0.950 . S
C2315 C2314 1.334 . S
C2315 C2316 1.287 . S
C2316 C2315 1.287 . S
C2316 C2317 1.524 . S
C2316 H2335 0.913 . S
C2317 H2293 0.950 . S
C2317 C2316 1.524 . S
C2317 C2318 1.415 . S
C2318 H2294 0.950 . S
C2318 C2313 1.363 . S
C2318 C2317 1.415 . S
C2319 H2295 0.951 . S
C2319 C2320 1.366 . S
C2319 C2321 1.388 . S
C2320 C2319 1.366 . S
C2320 C2324 1.385 . S
C2321 H2296 0.951 . S
C2321 C2319 1.388 . S
C2321 C2322 1.366 . S
C2322 C2321 1.366 . S
C2322 C2323 1.414 . S
C2322 C2325 1.499 . S
C2323 H2297 0.950 . S
C2323 C2322 1.414 . S
C2323 C2324 1.374 . S
C2324 H2298 0.950 . S
C2324 C2320 1.385 . S
C2324 C2323 1.374 . S
C2325 C2322 1.499 . S
C2325 C2326 1.373 . S
C2325 C2327 1.389 . S
C2326 H2299 0.950 . S
C2326 C2312 1.377 . S
C2326 C2325 1.373 . S
C2327 C2311 1.377 . S
C2327 C2325 1.389 . S
C2327 C2328 1.524 . S
C2328 C2327 1.524 . S
C2328 C2329 1.397 . S
C2328 C2333 1.363 . S
C2329 H2300 0.950 . S
C2329 C2328 1.397 . S
C2329 C2330 1.334 . S
C2330 H2301 0.950 . S
C2330 C2329 1.334 . S
C2330 C2331 1.287 . S
C2331 C2330 1.287 . S
C2331 C2332 1.524 . S
C2331 H2334 0.999 . S
C2332 H2302 0.950 . S
C2332 C2331 1.524 . S
C2332 C2333 1.415 . S
C2333 H2303 0.950 . S
C2333 C2328 1.363 . S
C2333 C2332 1.415 . S
H2334 C2331 0.999 . S
H2335 C2316 0.913 . S
H2336 C2354 0.951 . S
H2337 C2356 0.951 . S
H2338 C2358 0.950 . S
H2339 C2359 0.950 . S
H2340 C2361 0.950 . S
H2341 C2364 0.950 . S
H2342 C2365 0.950 . S
H2343 C2367 0.950 . S
H2344 C2368 0.950 . S
H2345 C2369 0.951 . S
H2346 C2371 0.951 . S
H2347 C2373 0.950 . S
H2348 C2374 0.950 . S
H2349 C2376 0.950 . S
H2350 C2379 0.950 . S
H2351 C2380 0.950 . S
H2352 C2382 0.950 . S
H2353 C2383 0.950 . S
C2354 H2336 0.951 . S
C2354 C2355 1.366 . S
C2354 C2356 1.388 . S
C2355 C2354 1.366 . S
C2355 C2359 1.385 . S
C2356 H2337 0.951 . S
C2356 C2354 1.388 . S
C2356 C2357 1.366 . S
C2357 C2356 1.366 . S
C2357 C2358 1.414 . S
C2357 C2360 1.499 . S
C2358 H2338 0.950 . S
C2358 C2357 1.414 . S
C2358 C2359 1.374 . S
C2359 H2339 0.950 . S
C2359 C2355 1.385 . S
C2359 C2358 1.374 . S
C2360 C2357 1.499 . S
C2360 C2361 1.373 . S
C2360 C2362 1.389 . S
C2361 H2340 0.950 . S
C2361 C2360 1.373 . S
C2361 C2377 1.377 . S
C2362 C2360 1.389 . S
C2362 C2363 1.524 . S
C2362 C2376 1.377 . S
C2363 C2362 1.524 . S
C2363 C2364 1.397 . S
C2363 C2368 1.363 . S
C2364 H2341 0.950 . S
C2364 C2363 1.397 . S
C2364 C2365 1.334 . S
C2365 H2342 0.950 . S
C2365 C2364 1.334 . S
C2365 C2366 1.287 . S
C2366 C2365 1.287 . S
C2366 C2367 1.524 . S
C2366 H2385 0.913 . S
C2367 H2343 0.950 . S
C2367 C2366 1.524 . S
C2367 C2368 1.415 . S
C2368 H2344 0.950 . S
C2368 C2363 1.363 . S
C2368 C2367 1.415 . S
C2369 H2345 0.951 . S
C2369 C2370 1.366 . S
C2369 C2371 1.388 . S
C2370 C2369 1.366 . S
C2370 C2374 1.385 . S
C2371 H2346 0.951 . S
C2371 C2369 1.388 . S
C2371 C2372 1.366 . S
C2372 C2371 1.366 . S
C2372 C2373 1.414 . S
C2372 C2375 1.499 . S
C2373 H2347 0.950 . S
C2373 C2372 1.414 . S
C2373 C2374 1.374 . S
C2374 H2348 0.950 . S
C2374 C2370 1.385 . S
C2374 C2373 1.374 . S
C2375 C2372 1.499 . S
C2375 C2376 1.373 . S
C2375 C2377 1.389 . S
C2376 H2349 0.950 . S
C2376 C2362 1.377 . S
C2376 C2375 1.373 . S
C2377 C2361 1.377 . S
C2377 C2375 1.389 . S
C2377 C2378 1.524 . S
C2378 C2377 1.524 . S
C2378 C2379 1.397 . S
C2378 C2383 1.363 . S
C2379 H2350 0.950 . S
C2379 C2378 1.397 . S
C2379 C2380 1.334 . S
C2380 H2351 0.950 . S
C2380 C2379 1.334 . S
C2380 C2381 1.287 . S
C2381 C2380 1.287 . S
C2381 C2382 1.524 . S
C2381 H2384 0.999 . S
C2382 H2352 0.950 . S
C2382 C2381 1.524 . S
C2382 C2383 1.415 . S
C2383 H2353 0.950 . S
C2383 C2378 1.363 . S
C2383 C2382 1.415 . S
H2384 C2381 0.999 . S
H2385 C2366 0.913 . S
H2386 C2404 0.951 . S
H2387 C2406 0.951 . S
H2388 C2408 0.950 . S
H2389 C2409 0.950 . S
H2390 C2411 0.950 . S
H2391 C2414 0.950 . S
H2392 C2415 0.950 . S
H2393 C2417 0.950 . S
H2394 C2418 0.950 . S
H2395 C2419 0.951 . S
H2396 C2421 0.951 . S
H2397 C2423 0.950 . S
H2398 C2424 0.950 . S
H2399 C2426 0.950 . S
H2400 C2429 0.950 . S
H2401 C2430 0.950 . S
H2402 C2432 0.950 . S
H2403 C2433 0.950 . S
C2404 H2386 0.951 . S
C2404 C2405 1.366 . S
C2404 C2406 1.388 . S
C2405 C2404 1.366 . S
C2405 C2409 1.385 . S
C2406 H2387 0.951 . S
C2406 C2404 1.388 . S
C2406 C2407 1.366 . S
C2407 C2406 1.366 . S
C2407 C2408 1.414 . S
C2407 C2410 1.499 . S
C2408 H2388 0.950 . S
C2408 C2407 1.414 . S
C2408 C2409 1.374 . S
C2409 H2389 0.950 . S
C2409 C2405 1.385 . S
C2409 C2408 1.374 . S
C2410 C2407 1.499 . S
C2410 C2411 1.373 . S
C2410 C2412 1.389 . S
C2411 H2390 0.950 . S
C2411 C2410 1.373 . S
C2411 C2427 1.377 . S
C2412 C2410 1.389 . S
C2412 C2413 1.524 . S
C2412 C2426 1.377 . S
C2413 C2412 1.524 . S
C2413 C2414 1.397 . S
C2413 C2418 1.363 . S
C2414 H2391 0.950 . S
C2414 C2413 1.397 . S
C2414 C2415 1.334 . S
C2415 H2392 0.950 . S
C2415 C2414 1.334 . S
C2415 C2416 1.287 . S
C2416 C2415 1.287 . S
C2416 C2417 1.524 . S
C2416 H2435 0.913 . S
C2417 H2393 0.950 . S
C2417 C2416 1.524 . S
C2417 C2418 1.415 . S
C2418 H2394 0.950 . S
C2418 C2413 1.363 . S
C2418 C2417 1.415 . S
C2419 H2395 0.951 . S
C2419 C2420 1.366 . S
C2419 C2421 1.388 . S
C2420 C2419 1.366 . S
C2420 C2424 1.385 . S
C2421 H2396 0.951 . S
C2421 C2419 1.388 . S
C2421 C2422 1.366 . S
C2422 C2421 1.366 . S
C2422 C2423 1.414 . S
C2422 C2425 1.499 . S
C2423 H2397 0.950 . S
C2423 C2422 1.414 . S
C2423 C2424 1.374 . S
C2424 H2398 0.950 . S
C2424 C2420 1.385 . S
C2424 C2423 1.374 . S
C2425 C2422 1.499 . S
C2425 C2426 1.373 . S
C2425 C2427 1.389 . S
C2426 H2399 0.950 . S
C2426 C2412 1.377 . S
C2426 C2425 1.373 . S
C2427 C2411 1.377 . S
C2427 C2425 1.389 . S
C2427 C2428 1.524 . S
C2428 C2427 1.524 . S
C2428 C2429 1.397 . S
C2428 C2433 1.363 . S
C2429 H2400 0.950 . S
C2429 C2428 1.397 . S
C2429 C2430 1.334 . S
C2430 H2401 0.950 . S
C2430 C2429 1.334 . S
C2430 C2431 1.287 . S
C2431 C2430 1.287 . S
C2431 C2432 1.524 . S
C2431 H2434 0.999 . S
C2432 H2402 0.950 . S
C2432 C2431 1.524 . S
C2432 C2433 1.415 . S
C2433 H2403 0.950 . S
C2433 C2428 1.363 . S
C2433 C2432 1.415 . S
H2434 C2431 0.999 . S
H2435 C2416 0.913 . S
H2436 C2454 0.951 . S
H2437 C2456 0.951 . S
H2438 C2458 0.950 . S
H2439 C2459 0.950 . S
H2440 C2461 0.950 . S
H2441 C2464 0.950 . S
H2442 C2465 0.950 . S
H2443 C2467 0.950 . S
H2444 C2468 0.950 . S
H2445 C2469 0.951 . S
H2446 C2471 0.951 . S
H2447 C2473 0.950 . S
H2448 C2474 0.950 . S
H2449 C2476 0.950 . S
H2450 C2479 0.950 . S
H2451 C2480 0.950 . S
H2452 C2482 0.950 . S
H2453 C2483 0.950 . S
C2454 H2436 0.951 . S
C2454 C2455 1.366 . S
C2454 C2456 1.388 . S
C2455 C2454 1.366 . S
C2455 C2459 1.385 . S
C2456 H2437 0.951 . S
C2456 C2454 1.388 . S
C2456 C2457 1.366 . S
C2457 C2456 1.366 . S
C2457 C2458 1.414 . S
C2457 C2460 1.499 . S
C2458 H2438 0.950 . S
C2458 C2457 1.414 . S
C2458 C2459 1.374 . S
C2459 H2439 0.950 . S
C2459 C2455 1.385 . S
C2459 C2458 1.374 . S
C2460 C2457 1.499 . S
C2460 C2461 1.373 . S
C2460 C2462 1.389 . S
C2461 H2440 0.950 . S
C2461 C2460 1.373 . S
C2461 C2477 1.377 . S
C2462 C2460 1.389 . S
C2462 C2463 1.524 . S
C2462 C2476 1.377 . S
C2463 C2462 1.524 . S
C2463 C2464 1.397 . S
C2463 C2468 1.363 . S
C2464 H2441 0.950 . S
C2464 C2463 1.397 . S
C2464 C2465 1.334 . S
C2465 H2442 0.950 . S
C2465 C2464 1.334 . S
C2465 C2466 1.287 . S
C2466 C2465 1.287 . S
C2466 C2467 1.524 . S
C2466 H2485 0.913 . S
C2467 H2443 0.950 . S
C2467 C2466 1.524 . S
C2467 C2468 1.415 . S
C2468 H2444 0.950 . S
C2468 C2463 1.363 . S
C2468 C2467 1.415 . S
C2469 H2445 0.951 . S
C2469 C2470 1.366 . S
C2469 C2471 1.388 . S
C2470 C2469 1.366 . S
C2470 C2474 1.385 . S
C2471 H2446 0.951 . S
C2471 C2469 1.388 . S
C2471 C2472 1.366 . S
C2472 C2471 1.366 . S
C2472 C2473 1.414 . S
C2472 C2475 1.499 . S
C2473 H2447 0.950 . S
C2473 C2472 1.414 . S
C2473 C2474 1.374 . S
C2474 H2448 0.950 . S
C2474 C2470 1.385 . S
C2474 C2473 1.374 . S
C2475 C2472 1.499 . S
C2475 C2476 1.373 . S
C2475 C2477 1.389 . S
C2476 H2449 0.950 . S
C2476 C2462 1.377 . S
C2476 C2475 1.373 . S
C2477 C2461 1.377 . S
C2477 C2475 1.389 . S
C2477 C2478 1.524 . S
C2478 C2477 1.524 . S
C2478 C2479 1.397 . S
C2478 C2483 1.363 . S
C2479 H2450 0.950 . S
C2479 C2478 1.397 . S
C2479 C2480 1.334 . S
C2480 H2451 0.950 . S
C2480 C2479 1.334 . S
C2480 C2481 1.287 . S
C2481 C2480 1.287 . S
C2481 C2482 1.524 . S
C2481 H2484 0.999 . S
C2482 H2452 0.950 . S
C2482 C2481 1.524 . S
C2482 C2483 1.415 . S
C2483 H2453 0.950 . S
C2483 C2478 1.363 . S
C2483 C2482 1.415 . S
H2484 C2481 0.999 . S
H2485 C2466 0.913 . S
H2486 C2504 0.951 . S
H2487 C2506 0.951 . S
H2488 C2508 0.950 . S
H2489 C2509 0.950 . S
H2490 C2511 0.950 . S
H2491 C2514 0.950 . S
H2492 C2515 0.950 . S
H2493 C2517 0.950 . S
H2494 C2518 0.950 . S
H2495 C2519 0.951 . S
H2496 C2521 0.951 . S
H2497 C2523 0.950 . S
H2498 C2524 0.950 . S
H2499 C2526 0.950 . S
H2500 C2529 0.950 . S
H2501 C2530 0.950 . S
H2502 C2532 0.950 . S
H2503 C2533 0.950 . S
C2504 H2486 0.951 . S
C2504 C2505 1.366 . S
C2504 C2506 1.388 . S
C2505 C2504 1.366 . S
C2505 C2509 1.385 . S
C2506 H2487 0.951 . S
C2506 C2504 1.388 . S
C2506 C2507 1.366 . S
C2507 C2506 1.366 . S
C2507 C2508 1.414 . S
C2507 C2510 1.499 . S
C2508 H2488 0.950 . S
C2508 C2507 1.414 . S
C2508 C2509 1.374 . S
C2509 H2489 0.950 . S
C2509 C2505 1.385 . S
C2509 C2508 1.374 . S
C2510 C2507 1.499 . S
C2510 C2511 1.373 . S
C2510 C2512 1.389 . S
C2511 H2490 0.950 . S
C2511 C2510 1.373 . S
C2511 C2527 1.377 . S
C2512 C2510 1.389 . S
C2512 C2513 1.524 . S
C2512 C2526 1.377 . S
C2513 C2512 1.524 . S
C2513 C2514 1.397 . S
C2513 C2518 1.363 . S
C2514 H2491 0.950 . S
C2514 C2513 1.397 . S
C2514 C2515 1.334 . S
C2515 H2492 0.950 . S
C2515 C2514 1.334 . S
C2515 C2516 1.287 . S
C2516 C2515 1.287 . S
C2516 C2517 1.524 . S
C2516 H2535 0.913 . S
C2517 H2493 0.950 . S
C2517 C2516 1.524 . S
C2517 C2518 1.415 . S
C2518 H2494 0.950 . S
C2518 C2513 1.363 . S
C2518 C2517 1.415 . S
C2519 H2495 0.951 . S
C2519 C2520 1.366 . S
C2519 C2521 1.388 . S
C2520 C2519 1.366 . S
C2520 C2524 1.385 . S
C2521 H2496 0.951 . S
C2521 C2519 1.388 . S
C2521 C2522 1.366 . S
C2522 C2521 1.366 . S
C2522 C2523 1.414 . S
C2522 C2525 1.499 . S
C2523 H2497 0.950 . S
C2523 C2522 1.414 . S
C2523 C2524 1.374 . S
C2524 H2498 0.950 . S
C2524 C2520 1.385 . S
C2524 C2523 1.374 . S
C2525 C2522 1.499 . S
C2525 C2526 1.373 . S
C2525 C2527 1.389 . S
C2526 H2499 0.950 . S
C2526 C2512 1.377 . S
C2526 C2525 1.373 . S
C2527 C2511 1.377 . S
C2527 C2525 1.389 . S
C2527 C2528 1.524 . S
C2528 C2527 1.524 . S
C2528 C2529 1.397 . S
C2528 C2533 1.363 . S
C2529 H2500 0.950 . S
C2529 C2528 1.397 . S
C2529 C2530 1.334 . S
C2530 H2501 0.950 . S
C2530 C2529 1.334 . S
C2530 C2531 1.287 . S
C2531 C2530 1.287 . S
C2531 C2532 1.524 . S
C2531 H2534 0.999 . S
C2532 H2502 0.950 . S
C2532 C2531 1.524 . S
C2532 C2533 1.415 . S
C2533 H2503 0.950 . S
C2533 C2528 1.363 . S
C2533 C2532 1.415 . S
H2534 C2531 0.999 . S
H2535 C2516 0.913 . S
H2536 C2554 0.951 . S
H2537 C2556 0.951 . S
H2538 C2558 0.950 . S
H2539 C2559 0.950 . S
H2540 C2561 0.950 . S
H2541 C2564 0.950 . S
H2542 C2565 0.950 . S
H2543 C2567 0.950 . S
H2544 C2568 0.950 . S
H2545 C2569 0.951 . S
H2546 C2571 0.951 . S
H2547 C2573 0.950 . S
H2548 C2574 0.950 . S
H2549 C2576 0.950 . S
H2550 C2579 0.950 . S
H2551 C2580 0.950 . S
H2552 C2582 0.950 . S
H2553 C2583 0.950 . S
C2554 H2536 0.951 . S
C2554 C2555 1.366 . S
C2554 C2556 1.388 . S
C2555 C2554 1.366 . S
C2555 C2559 1.385 . S
C2556 H2537 0.951 . S
C2556 C2554 1.388 . S
C2556 C2557 1.366 . S
C2557 C2556 1.366 . S
C2557 C2558 1.414 . S
C2557 C2560 1.499 . S
C2558 H2538 0.950 . S
C2558 C2557 1.414 . S
C2558 C2559 1.374 . S
C2559 H2539 0.950 . S
C2559 C2555 1.385 . S
C2559 C2558 1.374 . S
C2560 C2557 1.499 . S
C2560 C2561 1.373 . S
C2560 C2562 1.389 . S
C2561 H2540 0.950 . S
C2561 C2560 1.373 . S
C2561 C2577 1.377 . S
C2562 C2560 1.389 . S
C2562 C2563 1.524 . S
C2562 C2576 1.377 . S
C2563 C2562 1.524 . S
C2563 C2564 1.397 . S
C2563 C2568 1.363 . S
C2564 H2541 0.950 . S
C2564 C2563 1.397 . S
C2564 C2565 1.334 . S
C2565 H2542 0.950 . S
C2565 C2564 1.334 . S
C2565 C2566 1.287 . S
C2566 C2565 1.287 . S
C2566 C2567 1.524 . S
C2566 H2585 0.913 . S
C2567 H2543 0.950 . S
C2567 C2566 1.524 . S
C2567 C2568 1.415 . S
C2568 H2544 0.950 . S
C2568 C2563 1.363 . S
C2568 C2567 1.415 . S
C2569 H2545 0.951 . S
C2569 C2570 1.366 . S
C2569 C2571 1.388 . S
C2570 C2569 1.366 . S
C2570 C2574 1.385 . S
C2571 H2546 0.951 . S
C2571 C2569 1.388 . S
C2571 C2572 1.366 . S
C2572 C2571 1.366 . S
C2572 C2573 1.414 . S
C2572 C2575 1.499 . S
C2573 H2547 0.950 . S
C2573 C2572 1.414 . S
C2573 C2574 1.374 . S
C2574 H2548 0.950 . S
C2574 C2570 1.385 . S
C2574 C2573 1.374 . S
C2575 C2572 1.499 . S
C2575 C2576 1.373 . S
C2575 C2577 1.389 . S
C2576 H2549 0.950 . S
C2576 C2562 1.377 . S
C2576 C2575 1.373 . S
C2577 C2561 1.377 . S
C2577 C2575 1.389 . S
C2577 C2578 1.524 . S
C2578 C2577 1.524 . S
C2578 C2579 1.397 . S
C2578 C2583 1.363 . S
C2579 H2550 0.950 . S
C2579 C2578 1.397 . S
C2579 C2580 1.334 . S
C2580 H2551 0.950 . S
C2580 C2579 1.334 . S
C2580 C2581 1.287 . S
C2581 C2580 1.287 . S
C2581 C2582 1.524 . S
C2581 H2584 0.999 . S
C2582 H2552 0.950 . S
C2582 C2581 1.524 . S
C2582 C2583 1.415 . S
C2583 H2553 0.950 . S
C2583 C2578 1.363 . S
C2583 C2582 1.415 . S
H2584 C2581 0.999 . S
H2585 C2566 0.913 . S
H2586 C2604 0.951 . S
H2587 C2606 0.951 . S
H2588 C2608 0.950 . S
H2589 C2609 0.950 . S
H2590 C2611 0.950 . S
H2591 C2614 0.950 . S
H2592 C2615 0.950 . S
H2593 C2617 0.950 . S
H2594 C2618 0.950 . S
H2595 C2619 0.951 . S
H2596 C2621 0.951 . S
H2597 C2623 0.950 . S
H2598 C2624 0.950 . S
H2599 C2626 0.950 . S
H2600 C2629 0.950 . S
H2601 C2630 0.950 . S
H2602 C2632 0.950 . S
H2603 C2633 0.950 . S
C2604 H2586 0.951 . S
C2604 C2605 1.366 . S
C2604 C2606 1.388 . S
C2605 C2604 1.366 . S
C2605 C2609 1.385 . S
C2606 H2587 0.951 . S
C2606 C2604 1.388 . S
C2606 C2607 1.366 . S
C2607 C2606 1.366 . S
C2607 C2608 1.414 . S
C2607 C2610 1.499 . S
C2608 H2588 0.950 . S
C2608 C2607 1.414 . S
C2608 C2609 1.374 . S
C2609 H2589 0.950 . S
C2609 C2605 1.385 . S
C2609 C2608 1.374 . S
C2610 C2607 1.499 . S
C2610 C2611 1.373 . S
C2610 C2612 1.389 . S
C2611 H2590 0.950 . S
C2611 C2610 1.373 . S
C2611 C2627 1.377 . S
C2612 C2610 1.389 . S
C2612 C2613 1.524 . S
C2612 C2626 1.377 . S
C2613 C2612 1.524 . S
C2613 C2614 1.397 . S
C2613 C2618 1.363 . S
C2614 H2591 0.950 . S
C2614 C2613 1.397 . S
C2614 C2615 1.334 . S
C2615 H2592 0.950 . S
C2615 C2614 1.334 . S
C2615 C2616 1.287 . S
C2616 C2615 1.287 . S
C2616 C2617 1.524 . S
C2616 H2635 0.913 . S
C2617 H2593 0.950 . S
C2617 C2616 1.524 . S
C2617 C2618 1.415 . S
C2618 H2594 0.950 . S
C2618 C2613 1.363 . S
C2618 C2617 1.415 . S
C2619 H2595 0.951 . S
C2619 C2620 1.366 . S
C2619 C2621 1.388 . S
C2620 C2619 1.366 . S
C2620 C2624 1.385 . S
C2621 H2596 0.951 . S
C2621 C2619 1.388 . S
C2621 C2622 1.366 . S
C2622 C2621 1.366 . S
C2622 C2623 1.414 . S
C2622 C2625 1.499 . S
C2623 H2597 0.950 . S
C2623 C2622 1.414 . S
C2623 C2624 1.374 . S
C2624 H2598 0.950 . S
C2624 C2620 1.385 . S
C2624 C2623 1.374 . S
C2625 C2622 1.499 . S
C2625 C2626 1.373 . S
C2625 C2627 1.389 . S
C2626 H2599 0.950 . S
C2626 C2612 1.377 . S
C2626 C2625 1.373 . S
C2627 C2611 1.377 . S
C2627 C2625 1.389 . S
C2627 C2628 1.524 . S
C2628 C2627 1.524 . S
C2628 C2629 1.397 . S
C2628 C2633 1.363 . S
C2629 H2600 0.950 . S
C2629 C2628 1.397 . S
C2629 C2630 1.334 . S
C2630 H2601 0.950 . S
C2630 C2629 1.334 . S
C2630 C2631 1.287 . S
C2631 C2630 1.287 . S
C2631 C2632 1.524 . S
C2631 H2634 0.999 . S
C2632 H2602 0.950 . S
C2632 C2631 1.524 . S
C2632 C2633 1.415 . S
C2633 H2603 0.950 . S
C2633 C2628 1.363 . S
C2633 C2632 1.415 . S
H2634 C2631 0.999 . S
H2635 C2616 0.913 . S
H2636 C2654 0.951 . S
H2637 C2656 0.951 . S
H2638 C2658 0.950 . S
H2639 C2659 0.950 . S
H2640 C2661 0.950 . S
H2641 C2664 0.950 . S
H2642 C2665 0.950 . S
H2643 C2667 0.950 . S
H2644 C2668 0.950 . S
H2645 C2669 0.951 . S
H2646 C2671 0.951 . S
H2647 C2673 0.950 . S
H2648 C2674 0.950 . S
H2649 C2676 0.950 . S
H2650 C2679 0.950 . S
H2651 C2680 0.950 . S
H2652 C2682 0.950 . S
H2653 C2683 0.950 . S
C2654 H2636 0.951 . S
C2654 C2655 1.366 . S
C2654 C2656 1.388 . S
C2655 C2654 1.366 . S
C2655 C2659 1.385 . S
C2656 H2637 0.951 . S
C2656 C2654 1.388 . S
C2656 C2657 1.366 . S
C2657 C2656 1.366 . S
C2657 C2658 1.414 . S
C2657 C2660 1.499 . S
C2658 H2638 0.950 . S
C2658 C2657 1.414 . S
C2658 C2659 1.374 . S
C2659 H2639 0.950 . S
C2659 C2655 1.385 . S
C2659 C2658 1.374 . S
C2660 C2657 1.499 . S
C2660 C2661 1.373 . S
C2660 C2662 1.389 . S
C2661 H2640 0.950 . S
C2661 C2660 1.373 . S
C2661 C2677 1.377 . S
C2662 C2660 1.389 . S
C2662 C2663 1.524 . S
C2662 C2676 1.377 . S
C2663 C2662 1.524 . S
C2663 C2664 1.397 . S
C2663 C2668 1.363 . S
C2664 H2641 0.950 . S
C2664 C2663 1.397 . S
C2664 C2665 1.334 . S
C2665 H2642 0.950 . S
C2665 C2664 1.334 . S
C2665 C2666 1.287 . S
C2666 C2665 1.287 . S
C2666 C2667 1.524 . S
C2666 H2685 0.913 . S
C2667 H2643 0.950 . S
C2667 C2666 1.524 . S
C2667 C2668 1.415 . S
C2668 H2644 0.950 . S
C2668 C2663 1.363 . S
C2668 C2667 1.415 . S
C2669 H2645 0.951 . S
C2669 C2670 1.366 . S
C2669 C2671 1.388 . S
C2670 C2669 1.366 . S
C2670 C2674 1.385 . S
C2671 H2646 0.951 . S
C2671 C2669 1.388 . S
C2671 C2672 1.366 . S
C2672 C2671 1.366 . S
C2672 C2673 1.414 . S
C2672 C2675 1.499 . S
C2673 H2647 0.950 . S
C2673 C2672 1.414 . S
C2673 C2674 1.374 . S
C2674 H2648 0.950 . S
C2674 C2670 1.385 . S
C2674 C2673 1.374 . S
C2675 C2672 1.499 . S
C2675 C2676 1.373 . S
C2675 C2677 1.389 . S
C2676 H2649 0.950 . S
C2676 C2662 1.377 . S
C2676 C2675 1.373 . S
C2677 C2661 1.377 . S
C2677 C2675 1.389 . S
C2677 C2678 1.524 . S
C2678 C2677 1.524 . S
C2678 C2679 1.397 . S
C2678 C2683 1.363 . S
C2679 H2650 0.950 . S
C2679 C2678 1.397 . S
C2679 C2680 1.334 . S
C2680 H2651 0.950 . S
C2680 C2679 1.334 . S
C2680 C2681 1.287 . S
C2681 C2680 1.287 . S
C2681 C2682 1.524 . S
C2681 H2684 0.999 . S
C2682 H2652 0.950 . S
C2682 C2681 1.524 . S
C2682 C2683 1.415 . S
C2683 H2653 0.950 . S
C2683 C2678 1.363 . S
C2683 C2682 1.415 . S
H2684 C2681 0.999 . S
H2685 C2666 0.913 . S
H2686 C2704 0.951 . S
H2687 C2706 0.951 . S
H2688 C2708 0.950 . S
H2689 C2709 0.950 . S
H2690 C2711 0.950 . S
H2691 C2714 0.950 . S
H2692 C2715 0.950 . S
H2693 C2717 0.950 . S
H2694 C2718 0.950 . S
H2695 C2719 0.951 . S
H2696 C2721 0.951 . S
H2697 C2723 0.950 . S
H2698 C2724 0.950 . S
H2699 C2726 0.950 . S
H2700 C2729 0.950 . S
H2701 C2730 0.950 . S
H2702 C2732 0.950 . S
H2703 C2733 0.950 . S
C2704 H2686 0.951 . S
C2704 C2705 1.366 . S
C2704 C2706 1.388 . S
C2705 C2704 1.366 . S
C2705 C2709 1.385 . S
C2706 H2687 0.951 . S
C2706 C2704 1.388 . S
C2706 C2707 1.366 . S
C2707 C2706 1.366 . S
C2707 C2708 1.414 . S
C2707 C2710 1.499 . S
C2708 H2688 0.950 . S
C2708 C2707 1.414 . S
C2708 C2709 1.374 . S
C2709 H2689 0.950 . S
C2709 C2705 1.385 . S
C2709 C2708 1.374 . S
C2710 C2707 1.499 . S
C2710 C2711 1.373 . S
C2710 C2712 1.389 . S
C2711 H2690 0.950 . S
C2711 C2710 1.373 . S
C2711 C2727 1.377 . S
C2712 C2710 1.389 . S
C2712 C2713 1.524 . S
C2712 C2726 1.377 . S
C2713 C2712 1.524 . S
C2713 C2714 1.397 . S
C2713 C2718 1.363 . S
C2714 H2691 0.950 . S
C2714 C2713 1.397 . S
C2714 C2715 1.334 . S
C2715 H2692 0.950 . S
C2715 C2714 1.334 . S
C2715 C2716 1.287 . S
C2716 C2715 1.287 . S
C2716 C2717 1.524 . S
C2716 H2735 0.913 . S
C2717 H2693 0.950 . S
C2717 C2716 1.524 . S
C2717 C2718 1.415 . S
C2718 H2694 0.950 . S
C2718 C2713 1.363 . S
C2718 C2717 1.415 . S
C2719 H2695 0.951 . S
C2719 C2720 1.366 . S
C2719 C2721 1.388 . S
C2720 C2719 1.366 . S
C2720 C2724 1.385 . S
C2721 H2696 0.951 . S
C2721 C2719 1.388 . S
C2721 C2722 1.366 . S
C2722 C2721 1.366 . S
C2722 C2723 1.414 . S
C2722 C2725 1.499 . S
C2723 H2697 0.950 . S
C2723 C2722 1.414 . S
C2723 C2724 1.374 . S
C2724 H2698 0.950 . S
C2724 C2720 1.385 . S
C2724 C2723 1.374 . S
C2725 C2722 1.499 . S
C2725 C2726 1.373 . S
C2725 C2727 1.389 . S
C2726 H2699 0.950 . S
C2726 C2712 1.377 . S
C2726 C2725 1.373 . S
C2727 C2711 1.377 . S
C2727 C2725 1.389 . S
C2727 C2728 1.524 . S
C2728 C2727 1.524 . S
C2728 C2729 1.397 . S
C2728 C2733 1.363 . S
C2729 H2700 0.950 . S
C2729 C2728 1.397 . S
C2729 C2730 1.334 . S
C2730 H2701 0.950 . S
C2730 C2729 1.334 . S
C2730 C2731 1.287 . S
C2731 C2730 1.287 . S
C2731 C2732 1.524 . S
C2731 H2734 0.999 . S
C2732 H2702 0.950 . S
C2732 C2731 1.524 . S
C2732 C2733 1.415 . S
C2733 H2703 0.950 . S
C2733 C2728 1.363 . S
C2733 C2732 1.415 . S
H2734 C2731 0.999 . S
H2735 C2716 0.913 . S
C355 C9 1.533 . S
C370 C107 1.534 . S
C405 C121 1.534 . S
C420 C23 1.533 . S
C455 C37 1.534 . S
C470 C135 1.533 . S
C505 C51 1.534 . S
C520 C149 1.533 . S
C555 C163 1.534 . S
C570 C65 1.533 . S
C605 C79 1.533 . S
C620 C93 1.534 . S
C655 C177 1.534 . S
C670 C275 1.533 . S
C705 C191 1.533 . S
C720 C289 1.534 . S
C755 C303 1.533 . S
C770 C205 1.534 . S
C805 C219 1.534 . S
C820 C317 1.533 . S
C855 C233 1.534 . S
C870 C331 1.533 . S
C905 C261 1.534 . S
C920 C247 1.533 . S
C955 C8 1.361 . S
C970 C120 1.361 . S
C1005 C134 1.361 . S
C1020 C22 1.361 . S
C1055 C148 1.361 . S
C1070 C36 1.361 . S
C1105 C50 1.361 . S
C1120 C162 1.361 . S
C1155 C64 1.361 . S
C1170 C92 1.361 . S
C1205 C78 1.361 . S
C1220 C106 1.361 . S
C1255 C288 1.361 . S
C1270 C176 1.361 . S
C1305 C190 1.361 . S
C1320 C302 1.361 . S
C1355 C316 1.361 . S
C1370 C204 1.361 . S
C1405 C330 1.361 . S
C1420 C218 1.361 . S
C1455 C260 1.361 . S
C1470 C232 1.361 . S
C1505 C246 1.361 . S
C1520 C274 1.361 . S
C1555 C7 1.536 . S
C1570 C217 1.537 . S
C1605 C231 1.536 . S
C1620 C21 1.537 . S
C1655 C245 1.536 . S
C1670 C35 1.537 . S
C1705 C49 1.536 . S
C1720 C175 1.537 . S
C1755 C63 1.536 . S
C1770 C189 1.537 . S
C1805 C203 1.537 . S
C1820 C77 1.536 . S
C1855 C301 1.536 . S
C1870 C91 1.537 . S
C1905 C315 1.537 . S
C1920 C105 1.536 . S
C1955 C329 1.536 . S
C1970 C119 1.537 . S
C2005 C259 1.537 . S
C2020 C133 1.536 . S
C2055 C147 1.537 . S
C2070 C273 1.536 . S
C2105 C161 1.536 . S
C2120 C287 1.537 . S
C2155 C3 1.396 . S
C2170 C143 1.397 . S
C2205 C157 1.397 . S
C2220 C17 1.397 . S
C2255 C87 1.396 . S
C2270 C31 1.397 . S
C2305 C45 1.397 . S
C2320 C101 1.396 . S
C2355 C59 1.396 . S
C2370 C115 1.397 . S
C2405 C73 1.397 . S
C2420 C129 1.396 . S
C2455 C171 1.396 . S
C2470 C311 1.397 . S
C2505 C185 1.397 . S
C2520 C325 1.397 . S
C2555 C199 1.397 . S
C2570 C255 1.396 . S
C2605 C269 1.396 . S
C2620 C213 1.396 . S
C2655 C227 1.397 . S
C2670 C283 1.397 . S
C2705 C241 1.397 . S
C2720 C297 1.397 . S
