# Generated by pormake.
# Topology unl, (4)-cn, num edge types: 1
# Building blocks:
#     Node 0, Type 0, BuildingBlock: CEKHIL_clean_sbu_0, # of connection points: 4
#     Node 1, Type 0, BuildingBlock: CEKHIL_clean_sbu_0, # of connection points: 4
#     Node 2, Type 0, BuildingBlock: CEKHIL_clean_sbu_0, # of connection points: 4
#     Node 3, Type 0, BuildingBlock: CEKHIL_clean_sbu_0, # of connection points: 4
#     Node 4, Type 0, BuildingBlock: CEKHIL_clean_sbu_0, # of connection points: 4
#     Node 5, Type 0, BuildingBlock: CEKHIL_clean_sbu_0, # of connection points: 4
#     Node 6, Type 0, BuildingBlock: CEKHIL_clean_sbu_0, # of connection points: 4
#     Node 7, Type 0, BuildingBlock: CEKHIL_clean_sbu_0, # of connection points: 4
#     Node 8, Type 0, BuildingBlock: CEKHIL_clean_sbu_0, # of connection points: 4
#     Node 9, Type 0, BuildingBlock: CEKHIL_clean_sbu_0, # of connection points: 4
#     Node 10, Type 0, BuildingBlock: CEKHIL_clean_sbu_0, # of connection points: 4
#     Node 11, Type 0, BuildingBlock: CEKHIL_clean_sbu_0, # of connection points: 4
#     Node 12, Type 0, BuildingBlock: CEKHIL_clean_sbu_0, # of connection points: 4
#     Node 13, Type 0, BuildingBlock: CEKHIL_clean_sbu_0, # of connection points: 4
#     Node 14, Type 0, BuildingBlock: CEKHIL_clean_sbu_0, # of connection points: 4
#     Node 15, Type 0, BuildingBlock: CEKHIL_clean_sbu_0, # of connection points: 4
#     Node 16, Type 0, BuildingBlock: CEKHIL_clean_sbu_0, # of connection points: 4
#     Node 17, Type 0, BuildingBlock: CEKHIL_clean_sbu_0, # of connection points: 4
#     Node 18, Type 0, BuildingBlock: CEKHIL_clean_sbu_0, # of connection points: 4
#     Node 19, Type 0, BuildingBlock: CEKHIL_clean_sbu_0, # of connection points: 4
#     Node 20, Type 0, BuildingBlock: CEKHIL_clean_sbu_0, # of connection points: 4
#     Node 21, Type 0, BuildingBlock: CEKHIL_clean_sbu_0, # of connection points: 4
#     Node 22, Type 0, BuildingBlock: CEKHIL_clean_sbu_0, # of connection points: 4
#     Node 23, Type 0, BuildingBlock: CEKHIL_clean_sbu_0, # of connection points: 4
#     Node 24, Type 0, BuildingBlock: CEKHIL_clean_sbu_0, # of connection points: 4
#     Node 25, Type 0, BuildingBlock: CEKHIL_clean_sbu_0, # of connection points: 4
#     Node 26, Type 0, BuildingBlock: CEKHIL_clean_sbu_0, # of connection points: 4
#     Node 27, Type 0, BuildingBlock: CEKHIL_clean_sbu_0, # of connection points: 4
#     Node 28, Type 0, BuildingBlock: CEKHIL_clean_sbu_0, # of connection points: 4
#     Node 29, Type 0, BuildingBlock: CEKHIL_clean_sbu_0, # of connection points: 4
#     Node 30, Type 0, BuildingBlock: CEKHIL_clean_sbu_0, # of connection points: 4
#     Node 31, Type 0, BuildingBlock: CEKHIL_clean_sbu_0, # of connection points: 4
#     Node 32, Type 0, BuildingBlock: CEKHIL_clean_sbu_0, # of connection points: 4
#     Node 33, Type 0, BuildingBlock: CEKHIL_clean_sbu_0, # of connection points: 4
#     Node 34, Type 0, BuildingBlock: CEKHIL_clean_sbu_0, # of connection points: 4
#     Node 35, Type 0, BuildingBlock: CEKHIL_clean_sbu_0, # of connection points: 4
#     Edge 36, Type (0, 0), BuildingBlock: ZUJKAS_clean_linker_0, # of connection points: 2
#     Edge 37, Type (0, 0), BuildingBlock: ZUJKAS_clean_linker_0, # of connection points: 2
#     Edge 38, Type (0, 0), BuildingBlock: ZUJKAS_clean_linker_0, # of connection points: 2
#     Edge 39, Type (0, 0), BuildingBlock: ZUJKAS_clean_linker_0, # of connection points: 2
#     Edge 40, Type (0, 0), BuildingBlock: ZUJKAS_clean_linker_0, # of connection points: 2
#     Edge 41, Type (0, 0), BuildingBlock: ZUJKAS_clean_linker_0, # of connection points: 2
#     Edge 42, Type (0, 0), BuildingBlock: ZUJKAS_clean_linker_0, # of connection points: 2
#     Edge 43, Type (0, 0), BuildingBlock: ZUJKAS_clean_linker_0, # of connection points: 2
#     Edge 44, Type (0, 0), BuildingBlock: ZUJKAS_clean_linker_0, # of connection points: 2
#     Edge 45, Type (0, 0), BuildingBlock: ZUJKAS_clean_linker_0, # of connection points: 2
#     Edge 46, Type (0, 0), BuildingBlock: ZUJKAS_clean_linker_0, # of connection points: 2
#     Edge 47, Type (0, 0), BuildingBlock: ZUJKAS_clean_linker_0, # of connection points: 2
#     Edge 48, Type (0, 0), BuildingBlock: ZUJKAS_clean_linker_0, # of connection points: 2
#     Edge 49, Type (0, 0), BuildingBlock: ZUJKAS_clean_linker_0, # of connection points: 2
#     Edge 50, Type (0, 0), BuildingBlock: ZUJKAS_clean_linker_0, # of connection points: 2
#     Edge 51, Type (0, 0), BuildingBlock: ZUJKAS_clean_linker_0, # of connection points: 2
#     Edge 52, Type (0, 0), BuildingBlock: ZUJKAS_clean_linker_0, # of connection points: 2
#     Edge 53, Type (0, 0), BuildingBlock: ZUJKAS_clean_linker_0, # of connection points: 2
#     Edge 54, Type (0, 0), BuildingBlock: ZUJKAS_clean_linker_0, # of connection points: 2
#     Edge 55, Type (0, 0), BuildingBlock: ZUJKAS_clean_linker_0, # of connection points: 2
#     Edge 56, Type (0, 0), BuildingBlock: ZUJKAS_clean_linker_0, # of connection points: 2
#     Edge 57, Type (0, 0), BuildingBlock: ZUJKAS_clean_linker_0, # of connection points: 2
#     Edge 58, Type (0, 0), BuildingBlock: ZUJKAS_clean_linker_0, # of connection points: 2
#     Edge 59, Type (0, 0), BuildingBlock: ZUJKAS_clean_linker_0, # of connection points: 2
#     Edge 60, Type (0, 0), BuildingBlock: ZUJKAS_clean_linker_0, # of connection points: 2
#     Edge 61, Type (0, 0), BuildingBlock: ZUJKAS_clean_linker_0, # of connection points: 2
#     Edge 62, Type (0, 0), BuildingBlock: ZUJKAS_clean_linker_0, # of connection points: 2
#     Edge 63, Type (0, 0), BuildingBlock: ZUJKAS_clean_linker_0, # of connection points: 2
#     Edge 64, Type (0, 0), BuildingBlock: ZUJKAS_clean_linker_0, # of connection points: 2
#     Edge 65, Type (0, 0), BuildingBlock: ZUJKAS_clean_linker_0, # of connection points: 2
#     Edge 66, Type (0, 0), BuildingBlock: ZUJKAS_clean_linker_0, # of connection points: 2
#     Edge 67, Type (0, 0), BuildingBlock: ZUJKAS_clean_linker_0, # of connection points: 2
#     Edge 68, Type (0, 0), BuildingBlock: ZUJKAS_clean_linker_0, # of connection points: 2
#     Edge 69, Type (0, 0), BuildingBlock: ZUJKAS_clean_linker_0, # of connection points: 2
#     Edge 70, Type (0, 0), BuildingBlock: ZUJKAS_clean_linker_0, # of connection points: 2
#     Edge 71, Type (0, 0), BuildingBlock: ZUJKAS_clean_linker_0, # of connection points: 2
#     Edge 72, Type (0, 0), BuildingBlock: ZUJKAS_clean_linker_0, # of connection points: 2
#     Edge 73, Type (0, 0), BuildingBlock: ZUJKAS_clean_linker_0, # of connection points: 2
#     Edge 74, Type (0, 0), BuildingBlock: ZUJKAS_clean_linker_0, # of connection points: 2
#     Edge 75, Type (0, 0), BuildingBlock: ZUJKAS_clean_linker_0, # of connection points: 2
#     Edge 76, Type (0, 0), BuildingBlock: ZUJKAS_clean_linker_0, # of connection points: 2
#     Edge 77, Type (0, 0), BuildingBlock: ZUJKAS_clean_linker_0, # of connection points: 2
#     Edge 78, Type (0, 0), BuildingBlock: ZUJKAS_clean_linker_0, # of connection points: 2
#     Edge 79, Type (0, 0), BuildingBlock: ZUJKAS_clean_linker_0, # of connection points: 2
#     Edge 80, Type (0, 0), BuildingBlock: ZUJKAS_clean_linker_0, # of connection points: 2
#     Edge 81, Type (0, 0), BuildingBlock: ZUJKAS_clean_linker_0, # of connection points: 2
#     Edge 82, Type (0, 0), BuildingBlock: ZUJKAS_clean_linker_0, # of connection points: 2
#     Edge 83, Type (0, 0), BuildingBlock: ZUJKAS_clean_linker_0, # of connection points: 2
#     Edge 84, Type (0, 0), BuildingBlock: ZUJKAS_clean_linker_0, # of connection points: 2
#     Edge 85, Type (0, 0), BuildingBlock: ZUJKAS_clean_linker_0, # of connection points: 2
#     Edge 86, Type (0, 0), BuildingBlock: ZUJKAS_clean_linker_0, # of connection points: 2
#     Edge 87, Type (0, 0), BuildingBlock: ZUJKAS_clean_linker_0, # of connection points: 2
#     Edge 88, Type (0, 0), BuildingBlock: ZUJKAS_clean_linker_0, # of connection points: 2
#     Edge 89, Type (0, 0), BuildingBlock: ZUJKAS_clean_linker_0, # of connection points: 2
#     Edge 90, Type (0, 0), BuildingBlock: ZUJKAS_clean_linker_0, # of connection points: 2
#     Edge 91, Type (0, 0), BuildingBlock: ZUJKAS_clean_linker_0, # of connection points: 2
#     Edge 92, Type (0, 0), BuildingBlock: ZUJKAS_clean_linker_0, # of connection points: 2
#     Edge 93, Type (0, 0), BuildingBlock: ZUJKAS_clean_linker_0, # of connection points: 2
#     Edge 94, Type (0, 0), BuildingBlock: ZUJKAS_clean_linker_0, # of connection points: 2
#     Edge 95, Type (0, 0), BuildingBlock: ZUJKAS_clean_linker_0, # of connection points: 2
#     Edge 96, Type (0, 0), BuildingBlock: ZUJKAS_clean_linker_0, # of connection points: 2
#     Edge 97, Type (0, 0), BuildingBlock: ZUJKAS_clean_linker_0, # of connection points: 2
#     Edge 98, Type (0, 0), BuildingBlock: ZUJKAS_clean_linker_0, # of connection points: 2
#     Edge 99, Type (0, 0), BuildingBlock: ZUJKAS_clean_linker_0, # of connection points: 2
#     Edge 100, Type (0, 0), BuildingBlock: ZUJKAS_clean_linker_0, # of connection points: 2
#     Edge 101, Type (0, 0), BuildingBlock: ZUJKAS_clean_linker_0, # of connection points: 2
#     Edge 102, Type (0, 0), BuildingBlock: ZUJKAS_clean_linker_0, # of connection points: 2
#     Edge 103, Type (0, 0), BuildingBlock: ZUJKAS_clean_linker_0, # of connection points: 2
#     Edge 104, Type (0, 0), BuildingBlock: ZUJKAS_clean_linker_0, # of connection points: 2
#     Edge 105, Type (0, 0), BuildingBlock: ZUJKAS_clean_linker_0, # of connection points: 2
#     Edge 106, Type (0, 0), BuildingBlock: ZUJKAS_clean_linker_0, # of connection points: 2
#     Edge 107, Type (0, 0), BuildingBlock: ZUJKAS_clean_linker_0, # of connection points: 2
# Relax obj value: 0.040
# Max RMSD: 0.122
# Mean RMSD: 0.122
data_MOF--net-unl--node1-CEKHIL_clean_sbu_0--edge1-ZUJKAS_clean_linker_0
_symmetry_space_group_name_H-M    P1
_symmetry_Int_Tables_number       1
_symmetry_cell_setting            triclinic
loop_
_symmetry_equiv_pos_as_xyz
'x, y, z'
_cell_length_a     83.536749
_cell_length_b     83.541524
_cell_length_c     53.222179
_cell_angle_alpha  90.005236
_cell_angle_beta   89.998007
_cell_angle_gamma 119.99878
loop_
_atom_site_label
_atom_site_type_symbol
_atom_site_fract_x
_atom_site_fract_y
_atom_site_fract_z
_atom_type_partial_charge
Co0 Co 0.21092 0.11735 0.113 0.0
O1 O 0.22804 0.11467 0.13422 0.0
O2 O 0.23386 0.1407 0.11551 0.0
C3 C 0.20251 0.09166 0.08995 0.0
O4 O 0.19701 0.12514 0.08896 0.0
Co5 Co 0.16924 0.08786 0.11321 0.0
O6 O 0.16858 0.1009 0.08241 0.0
C7 C 0.18458 0.11539 0.15424 0.0
C8 C 0.2397 0.13192 0.12958 0.0
C9 C 0.18141 0.11725 0.07729 0.0
O10 O 0.20032 0.12379 0.14296 0.0
O11 O 0.17098 0.10016 0.14632 0.0
O12 O 0.21752 0.10698 0.08465 0.0
O13 O 0.19404 0.09191 0.11013 0.0
Co14 Co 0.88182 0.0932 0.11057 0.0
O15 O 0.88465 0.11324 0.13133 0.0
O16 O 0.85851 0.09302 0.1129 0.0
C17 C 0.90757 0.11018 0.08741 0.0
O18 O 0.87414 0.0712 0.087 0.0
Co19 Co 0.91167 0.0814 0.11312 0.0
O20 O 0.89738 0.06489 0.085 0.0
C21 C 0.88388 0.06994 0.15347 0.0
C22 C 0.86742 0.10774 0.1268 0.0
C23 C 0.88151 0.06199 0.07819 0.0
O24 O 0.87524 0.0765 0.14096 0.0
O25 O 0.89949 0.072 0.14657 0.0
O26 O 0.89229 0.10992 0.08196 0.0
O27 O 0.90724 0.10174 0.10789 0.0
Co28 Co 0.90883 0.79026 0.11026 0.0
O29 O 0.88991 0.7739 0.13314 0.0
O30 O 0.90939 0.76743 0.11364 0.0
C31 C 0.89059 0.79776 0.08778 0.0
O32 O 0.92961 0.80348 0.08464 0.0
Co33 Co 0.92072 0.83188 0.10852 0.0
O34 O 0.93251 0.83123 0.07648 0.0
C35 C 0.93449 0.81795 0.14942 0.0
C36 C 0.89532 0.76209 0.12867 0.0
C37 C 0.93626 0.81851 0.07171 0.0
O38 O 0.92691 0.8019 0.13895 0.0
O39 O 0.9325 0.83126 0.14114 0.0
O40 O 0.89074 0.78258 0.08313 0.0
O41 O 0.90006 0.80694 0.10715 0.0
Co42 Co 0.11906 0.21167 0.38788 0.0
O43 O 0.11655 0.22785 0.36456 0.0
O44 O 0.14238 0.23454 0.38458 0.0
C45 C 0.09308 0.2041 0.40984 0.0
O46 O 0.12663 0.19877 0.41396 0.0
Co47 Co 0.08959 0.16995 0.39013 0.0
O48 O 0.10201 0.1709 0.4223 0.0
C49 C 0.11754 0.18378 0.34949 0.0
C50 C 0.13371 0.23976 0.36926 0.0
C51 C 0.11841 0.18379 0.42703 0.0
O52 O 0.12582 0.19995 0.35963 0.0
O53 O 0.10229 0.17045 0.35783 0.0
O54 O 0.10829 0.2194 0.41449 0.0
O55 O 0.09364 0.19481 0.39078 0.0
Co56 Co 0.78837 0.90876 0.38746 0.0
O57 O 0.77216 0.88987 0.3644 0.0
O58 O 0.76538 0.90899 0.38432 0.0
C59 C 0.79628 0.89063 0.4095 0.0
O60 O 0.80133 0.92943 0.41329 0.0
Co61 Co 0.83019 0.92129 0.38929 0.0
O62 O 0.82935 0.93296 0.42132 0.0
C63 C 0.81594 0.93504 0.34871 0.0
C64 C 0.76019 0.89504 0.36912 0.0
C65 C 0.81642 0.93639 0.42613 0.0
O66 O 0.79982 0.92709 0.359 0.0
O67 O 0.82938 0.93327 0.35696 0.0
O68 O 0.78095 0.89043 0.4143 0.0
O69 O 0.80538 0.9004 0.39028 0.0
Co70 Co 0.0946 0.88436 0.38552 0.0
O71 O 0.11381 0.88694 0.36315 0.0
O72 O 0.094 0.86094 0.38225 0.0
C73 C 0.11272 0.91003 0.40825 0.0
O74 O 0.07345 0.8767 0.41056 0.0
Co75 Co 0.08286 0.9142 0.38704 0.0
O76 O 0.07004 0.90129 0.41836 0.0
C77 C 0.06917 0.88648 0.34608 0.0
C78 C 0.10829 0.8697 0.36761 0.0
C79 C 0.06626 0.88479 0.423 0.0
O80 O 0.07686 0.87808 0.35645 0.0
O81 O 0.07106 0.90172 0.35446 0.0
O82 O 0.11237 0.89462 0.41305 0.0
O83 O 0.10345 0.90984 0.3887 0.0
Co84 Co 0.79094 0.88251 0.88561 0.0
O85 O 0.77406 0.88502 0.86369 0.0
O86 O 0.76794 0.85916 0.88314 0.0
C87 C 0.79911 0.90846 0.90797 0.0
O88 O 0.80474 0.87504 0.91037 0.0
Co89 Co 0.83256 0.91217 0.88524 0.0
O90 O 0.83332 0.89926 0.91608 0.0
C91 C 0.81755 0.88397 0.84505 0.0
C92 C 0.7623 0.86785 0.86851 0.0
C93 C 0.82049 0.88302 0.92172 0.0
O94 O 0.80175 0.87572 0.85621 0.0
O95 O 0.83107 0.89936 0.85268 0.0
O96 O 0.78411 0.89318 0.91338 0.0
O97 O 0.80772 0.90802 0.88805 0.0
Co98 Co 0.11929 0.90789 0.88555 0.0
O99 O 0.11696 0.88783 0.86525 0.0
O100 O 0.14261 0.90811 0.88464 0.0
C101 C 0.09305 0.89106 0.90781 0.0
O102 O 0.12647 0.92993 0.90882 0.0
Co103 Co 0.08962 0.91986 0.88099 0.0
O104 O 0.10334 0.93644 0.90935 0.0
C105 C 0.11808 0.93087 0.84167 0.0
C106 C 0.13408 0.8934 0.87066 0.0
C107 C 0.11901 0.93923 0.91694 0.0
O108 O 0.12654 0.92452 0.85501 0.0
O109 O 0.10233 0.92883 0.84774 0.0
O110 O 0.10815 0.89121 0.91405 0.0
O111 O 0.09384 0.89947 0.88709 0.0
Co112 Co 0.09359 0.21015 0.88822 0.0
O113 O 0.11292 0.22663 0.86588 0.0
O114 O 0.0934 0.23317 0.88511 0.0
C115 C 0.11124 0.20199 0.91089 0.0
O116 O 0.07243 0.19687 0.9133 0.0
Co117 Co 0.08108 0.16833 0.88903 0.0
O118 O 0.06796 0.16834 0.92005 0.0
C119 C 0.06836 0.18319 0.84807 0.0
C120 C 0.10763 0.23853 0.87039 0.0
C121 C 0.06472 0.18136 0.92523 0.0
O122 O 0.07585 0.19905 0.85905 0.0
O123 O 0.07011 0.16968 0.85607 0.0
O124 O 0.11135 0.21728 0.91571 0.0
O125 O 0.10192 0.19312 0.89127 0.0
Co126 Co 0.88243 0.78971 0.60806 0.0
O127 O 0.88609 0.77362 0.63016 0.0
O128 O 0.85959 0.76638 0.61168 0.0
C129 C 0.90812 0.7984 0.58477 0.0
O130 O 0.87372 0.80248 0.5833 0.0
Co131 Co 0.91095 0.83176 0.60649 0.0
O132 O 0.89767 0.83083 0.57516 0.0
C133 C 0.88396 0.81659 0.64819 0.0
C134 C 0.86893 0.76139 0.62607 0.0
C135 C 0.88135 0.81769 0.57067 0.0
O136 O 0.87579 0.80061 0.63748 0.0
O137 O 0.89889 0.8303 0.63971 0.0
O138 O 0.8931 0.7829 0.5802 0.0
O139 O 0.90761 0.8072 0.60443 0.0
Co140 Co 0.21213 0.0938 0.61087 0.0
O141 O 0.22844 0.11262 0.63392 0.0
O142 O 0.23533 0.0939 0.61316 0.0
C143 C 0.20361 0.11177 0.58969 0.0
O144 O 0.19905 0.07326 0.58488 0.0
Co145 Co 0.17018 0.08079 0.61065 0.0
O146 O 0.17026 0.06831 0.57903 0.0
C147 C 0.18528 0.0669 0.64983 0.0
C148 C 0.24052 0.1077 0.62863 0.0
C149 C 0.18344 0.06548 0.57318 0.0
O150 O 0.20125 0.0752 0.63913 0.0
O151 O 0.1716 0.06857 0.64238 0.0
O152 O 0.21901 0.11226 0.58436 0.0
O153 O 0.19485 0.10187 0.60898 0.0
Co154 Co 0.90863 0.11929 0.61175 0.0
O155 O 0.88956 0.116 0.63491 0.0
O156 O 0.90841 0.14223 0.61551 0.0
C157 C 0.89088 0.09343 0.58921 0.0
O158 O 0.92938 0.12767 0.5859 0.0
Co159 Co 0.92193 0.09063 0.60879 0.0
O160 O 0.93376 0.1038 0.57715 0.0
C161 C 0.93495 0.11789 0.65029 0.0
C162 C 0.89444 0.13312 0.63057 0.0
C163 C 0.93676 0.12007 0.57279 0.0
O164 O 0.92696 0.12609 0.64021 0.0
O165 O 0.9334 0.10287 0.64161 0.0
O166 O 0.89039 0.10846 0.58481 0.0
O167 O 0.90072 0.09406 0.6083 0.0
Co168 Co 0.87835 0.45359 0.44579 0.0
O169 O 0.89506 0.45124 0.46828 0.0
O170 O 0.90122 0.477 0.44851 0.0
C171 C 0.87047 0.42761 0.42362 0.0
O172 O 0.8648 0.46097 0.42047 0.0
Co173 Co 0.83667 0.42381 0.44535 0.0
O174 O 0.83631 0.4367 0.41429 0.0
C175 C 0.85129 0.45182 0.48582 0.0
C176 C 0.90679 0.46842 0.46344 0.0
C177 C 0.84919 0.45295 0.40878 0.0
O178 O 0.86712 0.46031 0.47476 0.0
O179 O 0.83793 0.43637 0.47805 0.0
O180 O 0.88562 0.44286 0.41855 0.0
O181 O 0.86159 0.42814 0.44318 0.0
Co182 Co 0.54916 0.42614 0.44573 0.0
O183 O 0.55215 0.44521 0.46875 0.0
O184 O 0.52613 0.42627 0.44898 0.0
C185 C 0.57521 0.44394 0.42354 0.0
O186 O 0.54106 0.4054 0.41993 0.0
Co187 Co 0.57793 0.41297 0.44356 0.0
O188 O 0.56498 0.40095 0.41189 0.0
C189 C 0.55004 0.39953 0.4843 0.0
C190 C 0.53505 0.44025 0.46407 0.0
C191 C 0.54874 0.39793 0.40718 0.0
O192 O 0.54209 0.40778 0.47421 0.0
O193 O 0.56511 0.40104 0.47588 0.0
O194 O 0.56019 0.4444 0.41884 0.0
O195 O 0.57446 0.43414 0.44274 0.0
Co196 Co 0.57328 0.12216 0.44652 0.0
O197 O 0.55436 0.10655 0.46999 0.0
O198 O 0.57311 0.09903 0.45059 0.0
C199 C 0.55536 0.13005 0.42397 0.0
O200 O 0.59388 0.13438 0.42043 0.0
Co201 Co 0.5865 0.16408 0.44317 0.0
O202 O 0.5981 0.16254 0.41143 0.0
C203 C 0.60008 0.15021 0.48443 0.0
C204 C 0.55925 0.0943 0.46581 0.0
C205 C 0.60115 0.14928 0.40717 0.0
O206 O 0.59181 0.1339 0.4747 0.0
O207 O 0.59853 0.16366 0.47565 0.0
O208 O 0.55486 0.1145 0.4198 0.0
O209 O 0.5653 0.13944 0.44291 0.0
Co210 Co 0.7843 0.54463 0.7222 0.0
O211 O 0.78169 0.56148 0.70032 0.0
O212 O 0.80764 0.5676 0.71951 0.0
C213 C 0.75842 0.53643 0.74476 0.0
O214 O 0.7919 0.53091 0.74693 0.0
Co215 Co 0.75476 0.50292 0.72234 0.0
O216 O 0.76734 0.50272 0.75385 0.0
C217 C 0.78267 0.51792 0.68173 0.0
C218 C 0.7989 0.57324 0.705 0.0
C219 C 0.78372 0.51547 0.75901 0.0
O220 O 0.79095 0.53376 0.69279 0.0
O221 O 0.76739 0.50437 0.6896 0.0
O222 O 0.77368 0.55154 0.74995 0.0
O223 O 0.75886 0.52775 0.72491 0.0
Co224 Co 0.45764 0.24055 0.72182 0.0
O225 O 0.44082 0.22108 0.69995 0.0
O226 O 0.43447 0.24054 0.71977 0.0
C227 C 0.46633 0.223 0.74361 0.0
O228 O 0.47118 0.26179 0.74663 0.0
Co229 Co 0.49943 0.2535 0.72161 0.0
O230 O 0.49964 0.26611 0.75332 0.0
C231 C 0.48381 0.26592 0.68121 0.0
C232 C 0.42893 0.22629 0.70504 0.0
C233 C 0.48663 0.26931 0.75867 0.0
O234 O 0.46805 0.25819 0.69247 0.0
O235 O 0.49757 0.26448 0.6889 0.0
O236 O 0.45126 0.22303 0.74945 0.0
O237 O 0.47482 0.23228 0.72378 0.0
Co238 Co 0.75992 0.21566 0.72067 0.0
O239 O 0.77928 0.21809 0.69878 0.0
O240 O 0.75934 0.19222 0.71806 0.0
C241 C 0.77777 0.24151 0.74313 0.0
O242 O 0.73865 0.20822 0.7454 0.0
Co243 Co 0.7481 0.24543 0.72077 0.0
O244 O 0.73501 0.23279 0.75208 0.0
C245 C 0.73523 0.2177 0.67997 0.0
C246 C 0.7737 0.20086 0.70348 0.0
C247 C 0.73136 0.21642 0.75736 0.0
O248 O 0.74245 0.20916 0.69119 0.0
O249 O 0.73717 0.23307 0.68782 0.0
O250 O 0.7774 0.22616 0.7485 0.0
O251 O 0.76873 0.24115 0.72326 0.0
Co252 Co 0.45688 0.21573 0.22148 0.0
O253 O 0.44095 0.21899 0.19853 0.0
O254 O 0.43372 0.19277 0.21786 0.0
C255 C 0.46506 0.24161 0.24402 0.0
O256 O 0.46933 0.20732 0.24714 0.0
Co257 Co 0.49881 0.24425 0.22416 0.0
O258 O 0.49762 0.23114 0.25578 0.0
C259 C 0.4844 0.21692 0.18275 0.0
C260 C 0.42876 0.20185 0.20292 0.0
C261 C 0.48434 0.21487 0.26016 0.0
O262 O 0.46822 0.20889 0.19285 0.0
O263 O 0.49799 0.23186 0.19143 0.0
O264 O 0.44958 0.22655 0.24853 0.0
O265 O 0.47423 0.24101 0.22485 0.0
Co266 Co 0.78486 0.24118 0.22408 0.0
O267 O 0.7813 0.22185 0.20126 0.0
O268 O 0.80774 0.24077 0.22012 0.0
C269 C 0.7591 0.22367 0.24696 0.0
O270 O 0.7934 0.26224 0.24952 0.0
Co271 Co 0.75621 0.2545 0.22633 0.0
O272 O 0.76933 0.26639 0.25795 0.0
C273 C 0.78352 0.26724 0.18498 0.0
C274 C 0.79845 0.2267 0.20529 0.0
C275 C 0.78566 0.26959 0.26241 0.0
O276 O 0.7916 0.25922 0.19529 0.0
O277 O 0.76853 0.26585 0.1935 0.0
O278 O 0.77415 0.22322 0.25135 0.0
O279 O 0.75963 0.23331 0.22767 0.0
Co280 Co 0.76019 0.54588 0.22186 0.0
O281 O 0.77934 0.56224 0.19925 0.0
O282 O 0.75989 0.56885 0.21856 0.0
C283 C 0.77815 0.53808 0.24445 0.0
O284 O 0.73919 0.53266 0.24719 0.0
Co285 Co 0.74797 0.50417 0.22326 0.0
O286 O 0.73573 0.50463 0.25495 0.0
C287 C 0.7347 0.51853 0.18228 0.0
C288 C 0.77404 0.57414 0.2037 0.0
C289 C 0.73214 0.51746 0.25979 0.0
O290 O 0.7423 0.53452 0.19293 0.0
O291 O 0.73652 0.50511 0.19049 0.0
O292 O 0.77809 0.55329 0.2492 0.0
O293 O 0.76875 0.52903 0.22496 0.0
Co294 Co 0.55022 0.12314 0.94588 0.0
O295 O 0.55205 0.10596 0.96798 0.0
O296 O 0.5266 0.10042 0.94786 0.0
C297 C 0.57628 0.13102 0.92394 0.0
O298 O 0.54348 0.13734 0.92081 0.0
Co299 Co 0.58061 0.16464 0.94729 0.0
O300 O 0.5675 0.16635 0.91729 0.0
C301 C 0.552 0.14965 0.98685 0.0
C302 C 0.53487 0.09448 0.96276 0.0
C303 C 0.5515 0.15353 0.91067 0.0
O304 O 0.54339 0.13412 0.97505 0.0
O305 O 0.56778 0.1629 0.97989 0.0
O306 O 0.56096 0.11606 0.91848 0.0
O307 O 0.57578 0.1396 0.94385 0.0
Co308 Co 0.87588 0.42544 0.94693 0.0
O309 O 0.89296 0.44541 0.96797 0.0
O310 O 0.89897 0.42529 0.94943 0.0
C311 C 0.86709 0.44236 0.92364 0.0
O312 O 0.86185 0.40357 0.92312 0.0
Co313 Co 0.83409 0.4133 0.94882 0.0
O314 O 0.8322 0.3969 0.92073 0.0
C315 C 0.85021 0.4017 0.98931 0.0
C316 C 0.90472 0.43993 0.96344 0.0
C317 C 0.84535 0.39423 0.9141 0.0
O318 O 0.86557 0.40853 0.97712 0.0
O319 O 0.83663 0.40364 0.98218 0.0
O320 O 0.88227 0.44234 0.91848 0.0
O321 O 0.85883 0.43379 0.94399 0.0
Co322 Co 0.57401 0.45045 0.94676 0.0
O323 O 0.55504 0.44814 0.96941 0.0
O324 O 0.5744 0.47379 0.9492 0.0
C325 C 0.55594 0.42429 0.92495 0.0
O326 O 0.59477 0.45776 0.92117 0.0
Co327 Co 0.58622 0.42088 0.94645 0.0
O328 O 0.59903 0.4335 0.91502 0.0
C329 C 0.59996 0.44936 0.98633 0.0
C330 C 0.56033 0.46525 0.96428 0.0
C331 C 0.60229 0.4497 0.90939 0.0
O332 O 0.59222 0.45754 0.97545 0.0
O333 O 0.59799 0.43393 0.9787 0.0
O334 O 0.55582 0.43942 0.9198 0.0
O335 O 0.5655 0.42501 0.94444 0.0
Co336 Co 0.54434 0.78313 0.77934 0.0
O337 O 0.56163 0.7809 0.8007 0.0
O338 O 0.56719 0.80667 0.78151 0.0
C339 C 0.53616 0.75732 0.75663 0.0
O340 O 0.52988 0.79021 0.75511 0.0
Co341 Co 0.50285 0.75274 0.7815 0.0
O342 O 0.5007 0.76635 0.75243 0.0
C343 C 0.51838 0.781 0.82142 0.0
C344 C 0.57316 0.79813 0.79586 0.0
C345 C 0.51346 0.78234 0.74569 0.0
O346 O 0.53372 0.78969 0.80922 0.0
O347 O 0.50505 0.76525 0.81452 0.0
O348 O 0.55108 0.77268 0.75122 0.0
O349 O 0.52781 0.75761 0.77692 0.0
Co350 Co 0.21714 0.75915 0.78035 0.0
O351 O 0.22036 0.77838 0.80317 0.0
O352 O 0.19417 0.7594 0.78376 0.0
C353 C 0.24303 0.77667 0.75778 0.0
O354 O 0.20885 0.73824 0.75481 0.0
Co355 Co 0.24575 0.74583 0.77826 0.0
O356 O 0.23284 0.73396 0.74648 0.0
C357 C 0.21803 0.73268 0.81916 0.0
C358 C 0.20322 0.77341 0.79876 0.0
C359 C 0.21656 0.73089 0.74189 0.0
O360 O 0.21017 0.741 0.80904 0.0
O361 O 0.23302 0.73402 0.81069 0.0
O362 O 0.22798 0.77707 0.75309 0.0
O363 O 0.24244 0.76711 0.7772 0.0
Co364 Co 0.23997 0.45564 0.77819 0.0
O365 O 0.22118 0.43921 0.80122 0.0
O366 O 0.24048 0.43278 0.78114 0.0
C367 C 0.22156 0.46329 0.75636 0.0
O368 O 0.26057 0.46883 0.75233 0.0
Co369 Co 0.25206 0.49733 0.77655 0.0
O370 O 0.26391 0.4968 0.74451 0.0
C371 C 0.2662 0.48329 0.81692 0.0
C372 C 0.22651 0.42738 0.79635 0.0
C373 C 0.26746 0.48396 0.73959 0.0
O374 O 0.25832 0.46718 0.80662 0.0
O375 O 0.26425 0.49665 0.80875 0.0
O376 O 0.2216 0.44809 0.75142 0.0
O377 O 0.2313 0.47243 0.77557 0.0
Co378 Co 0.45224 0.87786 0.05335 0.0
O379 O 0.44941 0.89373 0.0298 0.0
O380 O 0.4754 0.90084 0.0497 0.0
C381 C 0.4263 0.87028 0.07541 0.0
O382 O 0.46014 0.86537 0.07963 0.0
Co383 Co 0.42316 0.83611 0.05643 0.0
O384 O 0.43588 0.83739 0.08846 0.0
C385 C 0.45083 0.84978 0.01542 0.0
C386 C 0.46655 0.90581 0.03433 0.0
C387 C 0.45222 0.85049 0.09293 0.0
O388 O 0.45901 0.86605 0.02526 0.0
O389 O 0.4357 0.83643 0.02407 0.0
O390 O 0.44149 0.88564 0.07989 0.0
O391 O 0.42685 0.86086 0.0565 0.0
Co392 Co 0.12205 0.5732 0.05549 0.0
O393 O 0.10588 0.55369 0.03311 0.0
O394 O 0.09885 0.57299 0.05194 0.0
C395 C 0.1304 0.5558 0.07842 0.0
O396 O 0.13486 0.59445 0.08055 0.0
Co397 Co 0.16399 0.58641 0.0574 0.0
O398 O 0.16318 0.59881 0.08877 0.0
C399 C 0.14915 0.59855 0.01566 0.0
C400 C 0.09375 0.55874 0.03734 0.0
C401 C 0.15003 0.60198 0.09326 0.0
O402 O 0.13316 0.59091 0.02631 0.0
O403 O 0.16272 0.59711 0.02415 0.0
O404 O 0.115 0.55551 0.08307 0.0
O405 O 0.13935 0.56524 0.05892 0.0
Co406 Co 0.42617 0.54872 0.05347 0.0
O407 O 0.44516 0.55146 0.0305 0.0
O408 O 0.42617 0.52561 0.05059 0.0
C409 C 0.44412 0.57487 0.07533 0.0
O410 O 0.40551 0.54091 0.07934 0.0
Co411 Co 0.41311 0.57758 0.05513 0.0
O412 O 0.40142 0.56507 0.08716 0.0
C413 C 0.39995 0.54973 0.01439 0.0
C414 C 0.44015 0.53438 0.03544 0.0
C415 C 0.39832 0.54884 0.09212 0.0
O416 O 0.40783 0.54159 0.02497 0.0
O417 O 0.4016 0.56492 0.02252 0.0
O418 O 0.44448 0.55983 0.08024 0.0
O419 O 0.43428 0.57407 0.05613 0.0
Co420 Co 0.12332 0.54947 0.55471 0.0
O421 O 0.10758 0.55274 0.53143 0.0
O422 O 0.10011 0.52656 0.55104 0.0
C423 C 0.13151 0.57541 0.57711 0.0
O424 O 0.13559 0.54107 0.58068 0.0
Co425 Co 0.16531 0.57798 0.55763 0.0
O426 O 0.16402 0.56473 0.58914 0.0
C427 C 0.15105 0.5504 0.51651 0.0
C428 C 0.09529 0.53565 0.53589 0.0
C429 C 0.15065 0.54853 0.59362 0.0
O430 O 0.13479 0.54246 0.52639 0.0
O431 O 0.16459 0.56539 0.52516 0.0
O432 O 0.11594 0.56042 0.58149 0.0
O433 O 0.14074 0.57472 0.55807 0.0
Co434 Co 0.45035 0.57351 0.55353 0.0
O435 O 0.44805 0.55427 0.53142 0.0
O436 O 0.47367 0.57383 0.55151 0.0
C437 C 0.42411 0.55572 0.57538 0.0
O438 O 0.45762 0.59455 0.57863 0.0
Co439 Co 0.4208 0.58575 0.55288 0.0
O440 O 0.43342 0.59899 0.5841 0.0
C441 C 0.44926 0.59887 0.51302 0.0
C442 C 0.46515 0.55961 0.53668 0.0
C443 C 0.44957 0.60224 0.58999 0.0
O444 O 0.45751 0.59139 0.5244 0.0
O445 O 0.43379 0.59693 0.52039 0.0
O446 O 0.43921 0.55564 0.58086 0.0
O447 O 0.42492 0.56506 0.5556 0.0
Co448 Co 0.42652 0.87552 0.55305 0.0
O449 O 0.44683 0.89345 0.53329 0.0
O450 O 0.42633 0.89865 0.55234 0.0
C451 C 0.44315 0.86598 0.5755 0.0
O452 O 0.40426 0.86056 0.57586 0.0
Co453 Co 0.4145 0.834 0.54827 0.0
O454 O 0.39758 0.83088 0.57631 0.0
C455 C 0.40356 0.85153 0.50896 0.0
C456 C 0.44122 0.90497 0.5387 0.0
C457 C 0.39482 0.84379 0.58386 0.0
O458 O 0.4102 0.86643 0.52216 0.0
O459 O 0.40534 0.83769 0.51515 0.0
O460 O 0.44274 0.88075 0.58198 0.0
O461 O 0.43506 0.85852 0.55452 0.0
Co462 Co 0.21658 0.45686 0.27904 0.0
O463 O 0.21938 0.4404 0.30149 0.0
O464 O 0.19344 0.43376 0.28182 0.0
C465 C 0.2426 0.46523 0.25676 0.0
O466 O 0.20872 0.47004 0.25379 0.0
Co467 Co 0.24558 0.49875 0.2784 0.0
O468 O 0.23255 0.49873 0.24726 0.0
C469 C 0.21779 0.48362 0.3191 0.0
C470 C 0.20225 0.42843 0.29668 0.0
C471 C 0.2164 0.48558 0.24194 0.0
O472 O 0.20958 0.46779 0.30803 0.0
O473 O 0.23306 0.49722 0.31126 0.0
O474 O 0.22751 0.44989 0.25179 0.0
O475 O 0.24194 0.47406 0.27631 0.0
Co476 Co 0.54381 0.75916 0.27719 0.0
O477 O 0.55977 0.77807 0.30042 0.0
O478 O 0.56701 0.75937 0.28029 0.0
C479 C 0.53554 0.77706 0.25535 0.0
O480 O 0.53128 0.73861 0.25113 0.0
Co481 Co 0.50185 0.74574 0.27515 0.0
O482 O 0.50294 0.73424 0.24308 0.0
C483 C 0.51648 0.73248 0.31584 0.0
C484 C 0.57198 0.77323 0.29558 0.0
C485 C 0.51621 0.73132 0.23822 0.0
O486 O 0.53258 0.74065 0.30549 0.0
O487 O 0.50287 0.73396 0.30758 0.0
O488 O 0.55103 0.77757 0.25059 0.0
O489 O 0.52642 0.76708 0.27443 0.0
Co490 Co 0.24168 0.78581 0.27628 0.0
O491 O 0.22278 0.78331 0.29918 0.0
O492 O 0.24192 0.80906 0.27901 0.0
C493 C 0.22357 0.75966 0.25442 0.0
O494 O 0.26236 0.79333 0.2505 0.0
Co495 Co 0.25413 0.75646 0.27538 0.0
O496 O 0.26703 0.76936 0.24414 0.0
C497 C 0.26821 0.78502 0.31519 0.0
C498 C 0.22793 0.80042 0.29418 0.0
C499 C 0.27009 0.78551 0.23866 0.0
O500 O 0.26007 0.79296 0.30476 0.0
O501 O 0.2664 0.7697 0.30733 0.0
O502 O 0.2234 0.77479 0.24946 0.0
O503 O 0.23325 0.76037 0.27376 0.0
H504 H 0.21105 0.09061 0.04074 0.0
H505 H 0.19768 0.06384 0.01263 0.0
H506 H 0.16456 0.02911 0.07375 0.0
H507 H 0.17721 0.05603 0.10154 0.0
H508 H 0.19774 0.03239 0.01184 0.0
H509 H 0.12539 0.01676 0.02264 0.0
H510 H 0.14467 0.0376 0.03486 0.0
H511 H 0.13556 0.01622 0.05204 0.0
C512 C 0.20087 0.07726 0.04813 0.0
C513 C 0.195 0.07541 0.07323 0.0
C514 C 0.19327 0.06196 0.03208 0.0
C515 C 0.17982 0.04448 0.0409 0.0
C516 C 0.17447 0.04252 0.06626 0.0
H517 H 0.14481 0.94303 0.95216 0.0
H518 H 0.16024 0.96798 0.98312 0.0
C519 C 0.18179 0.05789 0.08218 0.0
C520 C 0.1713 0.02843 0.02347 0.0
H521 H 0.12985 0.99457 0.00088 0.0
C522 C 0.18289 0.02413 0.00937 0.0
C523 C 0.15193 0.01779 0.02 0.0
C524 C 0.13868 0.02243 0.03298 0.0
C525 C 0.17567 0.00961 0.99181 0.0
C526 C 0.15627 0.99865 0.9889 0.0
C527 C 0.14471 0.00285 0.00322 0.0
C528 C 0.14752 0.98356 0.96999 0.0
C529 C 0.18894 0.00665 0.97595 0.0
C530 C 0.13491 0.98373 0.95271 0.0
C531 C 0.12578 0.96933 0.9356 0.0
C532 C 0.12917 0.95447 0.93507 0.0
C533 C 0.14202 0.95438 0.95203 0.0
C534 C 0.15094 0.9687 0.9696 0.0
H535 H 0.20289 0.01918 0.97544 0.0
H536 H 0.19042 0.99523 0.98411 0.0
H537 H 0.18383 0.00287 0.95638 0.0
H538 H 0.13206 0.99504 0.95252 0.0
H539 H 0.1161 0.96993 0.92261 0.0
H540 H 0.94099 0.11233 0.09435 0.0
H541 H 0.96843 0.12803 0.06764 0.0
H542 H 0.93915 0.14507 0.01753 0.0
H543 H 0.91157 0.12919 0.04398 0.0
H544 H 0.95748 0.13001 0.99278 0.0
H545 H 0.00439 0.18347 0.06034 0.0
H546 H 0.994 0.1604 0.07263 0.0
H547 H 0.97968 0.17014 0.06492 0.0
C548 C 0.94042 0.11948 0.0777 0.0
C549 C 0.92415 0.11958 0.07129 0.0
C550 C 0.95616 0.12858 0.06257 0.0
C551 C 0.95594 0.13803 0.04087 0.0
C552 C 0.93966 0.138 0.03432 0.0
H553 H 0.04815 0.20191 0.93634 0.0
H554 H 0.022 0.19338 0.96493 0.0
C555 C 0.92391 0.1289 0.04943 0.0
C556 C 0.97241 0.14713 0.02435 0.0
H557 H 0.01856 0.17903 0.02383 0.0
C558 C 0.97077 0.14088 -0.00051 0.0
C559 C 0.98971 0.16146 0.03305 0.0
C560 C 0.99206 0.16941 0.05912 0.0
C561 C 0.98614 0.14802 0.98345 0.0
C562 C 0.00356 0.16169 0.99254 0.0
C563 C 0.00514 0.16847 0.01704 0.0
C564 C 0.02042 0.16797 0.97726 0.0
C565 C 0.98383 0.14066 0.95702 0.0
C566 C 0.02833 0.15669 0.97531 0.0
C567 C 0.04319 0.16147 0.95914 0.0
C568 C 0.05044 0.17766 0.94451 0.0
C569 C 0.04293 0.18936 0.94732 0.0
C570 C 0.028 0.18453 0.96359 0.0
H571 H 0.96906 0.13194 0.95174 0.0
H572 H 0.99065 0.15226 0.94345 0.0
H573 H 0.99063 0.13219 0.9554 0.0
H574 H 0.02267 0.1439 0.98584 0.0
H575 H 0.04868 0.15219 0.95768 0.0
H576 H 0.79929 0.84648 0.93568 0.0
H577 H 0.80798 0.82922 0.96462 0.0
H578 H 0.85967 0.87882 0.97983 0.0
H579 H 0.85126 0.89612 0.95119 0.0
H580 H 0.86225 0.84688 0.96445 0.0
H581 H 0.81305 0.83232 0.04342 0.0
H582 H 0.80375 0.82714 0.01204 0.0
H583 H 0.81875 0.85072 0.02112 0.0
C584 C 0.8124 0.85377 0.94545 0.0
C585 C 0.8246 0.8727 0.94096 0.0
C586 C 0.81732 0.84389 0.96199 0.0
C587 C 0.83445 0.85278 0.97435 0.0
C588 C 0.8464 0.87171 0.97042 0.0
H589 H 0.88755 0.82856 0.09402 0.0
H590 H 0.87247 0.84022 0.06592 0.0
C591 C 0.84152 0.88157 0.95401 0.0
C592 C 0.84063 0.8424 0.99038 0.0
H593 H 0.83398 0.82129 0.04745 0.0
C594 C 0.85598 0.84112 0.9825 0.0
C595 C 0.83244 0.83503 0.01393 0.0
C596 C 0.81614 0.83639 0.02335 0.0
C597 C 0.86361 0.83295 0.99777 0.0
C598 C 0.85557 0.82576 0.02145 0.0
C599 C 0.84003 0.82677 0.02921 0.0
C600 C 0.86377 0.81804 0.03892 0.0
C601 C 0.88059 0.83261 0.98885 0.0
C602 C 0.86368 0.80162 0.03312 0.0
C603 C 0.87227 0.79493 0.04912 0.0
C604 C 0.88111 0.80457 0.07118 0.0
C605 C 0.88092 0.82087 0.07712 0.0
C606 C 0.87225 0.8275 0.06116 0.0
H607 H 0.88694 0.84156 0.97214 0.0
H608 H 0.89108 0.8372 0.00404 0.0
H609 H 0.87673 0.81825 0.98369 0.0
H610 H 0.85706 0.79405 0.01613 0.0
H611 H 0.87214 0.7823 0.04409 0.0
H612 H 0.95757 0.15779 0.56846 0.0
H613 H 0.9831 0.17538 0.53902 0.0
H614 H 0.97263 0.1246 0.50369 0.0
H615 H 0.94732 0.10695 0.53302 0.0
H616 H 0.01454 0.16788 0.5347 0.0
H617 H 0.97801 0.16076 0.44459 0.0
H618 H 0.96731 0.15867 0.47486 0.0
H619 H 0.96967 0.13991 0.46271 0.0
C620 C 0.96048 0.15041 0.55411 0.0
C621 C 0.95047 0.13097 0.55312 0.0
C622 C 0.97509 0.16046 0.53738 0.0
C623 C 0.97963 0.15126 0.51913 0.0
C624 C 0.96919 0.13195 0.51748 0.0
H625 H 0.06174 0.17026 0.40873 0.0
H626 H 0.03457 0.15904 0.43583 0.0
C627 C 0.95479 0.1219 0.53433 0.0
C628 C 0.99623 0.1615 0.50317 0.0
H629 H 0.01016 0.17108 0.44207 0.0
C630 C 0.01367 0.16886 0.51448 0.0
C631 C 0.99493 0.16255 0.47684 0.0
C632 C 0.9765 0.15519 0.46394 0.0
C633 C 0.02989 0.17657 0.49999 0.0
C634 C 0.0286 0.17735 0.47353 0.0
C635 C 0.01114 0.17045 0.46233 0.0
C636 C 0.0451 0.18446 0.45701 0.0
C637 C 0.04812 0.18294 0.51311 0.0
C638 C 0.05998 0.20255 0.45972 0.0
C639 C 0.07563 0.20891 0.44445 0.0
C640 C 0.07653 0.1974 0.42593 0.0
C641 C 0.06146 0.17944 0.42288 0.0
C642 C 0.04591 0.17303 0.43831 0.0
H643 H 0.04619 0.17697 0.53227 0.0
H644 H 0.05703 0.17911 0.50219 0.0
H645 H 0.05548 0.19821 0.515 0.0
H646 H 0.05948 0.21178 0.47358 0.0
H647 H 0.08695 0.22289 0.44706 0.0
H648 H 0.77882 0.8675 0.44906 0.0
H649 H 0.79097 0.85234 0.47633 0.0
H650 H 0.84171 0.87726 0.43388 0.0
H651 H 0.8297 0.89236 0.40649 0.0
H652 H 0.80715 0.82797 0.45989 0.0
H653 H 0.85516 0.89258 0.51087 0.0
H654 H 0.835 0.88971 0.49432 0.0
H655 H 0.85529 0.89411 0.47714 0.0
C656 C 0.79255 0.86971 0.44551 0.0
C657 C 0.80336 0.88119 0.42571 0.0
C658 C 0.79942 0.861 0.46103 0.0
C659 C 0.81723 0.86379 0.45713 0.0
C660 C 0.82795 0.87505 0.43723 0.0
H661 H 0.8946 0.84117 0.53086 0.0
H662 H 0.87743 0.85014 0.50269 0.0
C663 C 0.82107 0.88365 0.42161 0.0
C664 C 0.82495 0.85538 0.47419 0.0
H665 H 0.85842 0.86649 0.51838 0.0
C666 C 0.81828 0.83629 0.47284 0.0
C667 C 0.83938 0.86634 0.49104 0.0
C668 C 0.8466 0.88681 0.49369 0.0
C669 C 0.82623 0.82796 0.48731 0.0
C670 C 0.84097 0.83902 0.50382 0.0
C671 C 0.84723 0.85804 0.50558 0.0
C672 C 0.85068 0.83153 0.51893 0.0
C673 C 0.81924 0.80758 0.48411 0.0
C674 C 0.84131 0.8177 0.53707 0.0
C675 C 0.85112 0.81234 0.55308 0.0
C676 C 0.87049 0.82099 0.55148 0.0
C677 C 0.87971 0.83433 0.5327 0.0
C678 C 0.86991 0.83949 0.51658 0.0
H679 H 0.8113 0.80216 0.46638 0.0
H680 H 0.83084 0.80468 0.48416 0.0
H681 H 0.8099 0.79993 0.49998 0.0
H682 H 0.82653 0.8116 0.53957 0.0
H683 H 0.84366 0.80214 0.56751 0.0
H684 H 0.11635 0.94408 0.40145 0.0
H685 H 0.13242 0.9712 0.42866 0.0
H686 H 0.14746 0.94036 0.47888 0.0
H687 H 0.13133 0.91313 0.45182 0.0
H688 H 0.13175 0.95902 0.5029 0.0
H689 H 0.18837 0.00586 0.43898 0.0
H690 H 0.16578 0.99581 0.42509 0.0
H691 H 0.17492 0.98119 0.43403 0.0
C692 C 0.12317 0.94311 0.41821 0.0
C693 C 0.12261 0.92649 0.42449 0.0
C694 C 0.13247 0.95865 0.43362 0.0
C695 C 0.1414 0.95788 0.45554 0.0
C696 C 0.1408 0.94129 0.46191 0.0
H697 H 0.20522 0.05081 0.55912 0.0
H698 H 0.19689 0.02489 0.53022 0.0
C699 C 0.13156 0.92575 0.44645 0.0
C700 C 0.15033 0.97404 0.4726 0.0
H701 H 0.18311 0.01986 0.475 0.0
C702 C 0.14312 0.97225 0.4969 0.0
C703 C 0.16531 0.99124 0.46483 0.0
C704 C 0.1742 0.99366 0.43939 0.0
C705 C 0.14995 0.98743 0.51324 0.0
C706 C 0.16425 0.00484 0.505 0.0
C707 C 0.17204 0.0065 0.48113 0.0
C708 C 0.17029 0.02161 0.52046 0.0
C709 C 0.14159 0.98486 0.5391 0.0
C710 C 0.15831 0.02861 0.52383 0.0
C711 C 0.163 0.04336 0.54014 0.0
C712 C 0.17979 0.05144 0.55352 0.0
C713 C 0.19218 0.04492 0.54919 0.0
C714 C 0.18745 0.03011 0.53272 0.0
H715 H 0.1336 0.97005 0.54451 0.0
H716 H 0.15252 0.99245 0.55338 0.0
H717 H 0.13209 0.99054 0.53935 0.0
H718 H 0.14509 0.02233 0.51427 0.0
H719 H 0.15316 0.04808 0.54276 0.0
H720 H 0.88471 0.03157 0.07115 0.0
H721 H 0.86892 0.00696 0.04051 0.0
H722 H 0.83927 0.03333 0.01287 0.0
H723 H 0.85465 0.05789 0.0445 0.0
H724 H 0.8171 0.99655 0.01503 0.0
H725 H 0.88183 0.01133 0.96764 0.0
H726 H 0.8828 0.00695 0.00038 0.0
H727 H 0.88106 0.02672 0.99075 0.0
C728 C 0.87487 0.03222 0.05853 0.0
C729 C 0.87115 0.04685 0.05997 0.0
C730 C 0.86591 0.01815 0.0409 0.0
C731 C 0.85337 0.01859 0.0238 0.0
C732 C 0.8491 0.03284 0.02568 0.0
H733 H 0.82344 0.94408 0.89497 0.0
H734 H 0.83499 0.97166 0.92134 0.0
C735 C 0.85787 0.04684 0.04372 0.0
C736 C 0.84482 0.00404 0.00418 0.0
H737 H 0.85553 0.98133 0.95993 0.0
C738 C 0.82547 0.99336 0.00272 0.0
C739 C 0.85571 1.00012 0.98766 0.0
C740 C 0.87649 0.01204 0.98648 0.0
C741 C 0.81677 0.97838 0.98598 0.0
C742 C 0.82773 0.97356 0.97091 0.0
C743 C 0.84705 0.98475 0.97168 0.0
C744 C 0.81964 0.95689 0.95449 0.0
C745 C 0.79594 0.96805 0.98451 0.0
C746 C 0.80721 0.93933 0.96425 0.0
C747 C 0.80031 0.92362 0.94901 0.0
C748 C 0.80613 0.92508 0.92394 0.0
C749 C 0.81876 0.94256 0.91426 0.0
C750 C 0.82534 0.95832 0.92933 0.0
H751 H 0.79024 0.97708 0.98981 0.0
H752 H 0.79101 0.96254 0.96534 0.0
H753 H 0.79033 0.95632 0.99794 0.0
H754 H 0.8031 0.93769 0.98379 0.0
H755 H 0.79075 0.91027 0.95704 0.0
H756 H 0.94437 0.84129 0.03138 0.0
H757 H 0.96967 0.85067 0.00153 0.0
H758 H 0.9853 0.81431 0.03775 0.0
H759 H 0.95954 0.8044 0.06728 0.0
H760 H 0.00529 0.86858 0.01391 0.0
H761 H 0.98926 0.80358 0.96501 0.0
H762 H 0.97245 0.80558 0.98401 0.0
H763 H 0.98988 0.80206 0.99859 0.0
C764 C 0.95298 0.83502 0.03272 0.0
C765 C 0.94999 0.82214 0.05173 0.0
C766 C 0.96745 0.8404 0.01564 0.0
C767 C 0.97936 0.83314 0.01727 0.0
C768 C 0.97608 0.81982 0.03574 0.0
H769 H 0.08707 0.86977 0.94949 0.0
H770 H 0.05935 0.85521 0.97594 0.0
C771 C 0.96139 0.81421 0.05268 0.0
C772 C 0.99606 0.84084 0.00106 0.0
H773 H 0.01921 0.82959 0.95801 0.0
C774 C 0.00823 0.86003 0.00158 0.0
C775 C 1.0 0.82968 0.98509 0.0
C776 C 0.98713 0.80911 0.98291 0.0
C777 C 0.02419 0.86836 0.98664 0.0
C778 C 0.02807 0.85723 0.9707 0.0
C779 C 0.01611 0.83803 0.97031 0.0
C780 C 0.04449 0.86545 0.95417 0.0
C781 C 0.03691 0.889 0.98811 0.0
C782 C 0.04518 0.87587 0.93312 0.0
C783 C 0.06094 0.88414 0.91793 0.0
C784 C 0.07629 0.88217 0.92365 0.0
C785 C 0.07548 0.87159 0.94467 0.0
C786 C 0.05966 0.86322 0.95974 0.0
H787 H 0.03356 0.89523 0.00428 0.0
H788 H 0.05152 0.89234 0.98977 0.0
H789 H 0.03566 0.89549 0.97059 0.0
H790 H 0.03354 0.87766 0.92852 0.0
H791 H 0.06114 0.89218 0.90184 0.0
H792 H 0.1347 0.21979 0.94991 0.0
H793 H 0.15046 0.20818 0.97676 0.0
H794 H 0.12426 0.15653 0.93625 0.0
H795 H 0.10893 0.16825 0.90891 0.0
H796 H 0.13635 0.17939 0.00823 0.0
H797 H 0.1772 0.16839 0.93551 0.0
H798 H 0.16566 0.18138 0.92949 0.0
H799 H 0.15302 0.15651 0.92811 0.0
C800 C 0.13241 0.206 0.94663 0.0
C801 C 0.12067 0.19496 0.92721 0.0
C802 C 0.14143 0.1994 0.96197 0.0
C803 C 0.13887 0.18163 0.9582 0.0
C804 C 0.12691 0.17049 0.93905 0.0
H805 H 0.15362 0.10369 0.04256 0.0
H806 H 0.14556 0.12115 0.01346 0.0
C807 C 0.11802 0.17714 0.92356 0.0
C808 C 0.14795 0.17438 0.97503 0.0
H809 H 0.1739 0.15315 0.97512 0.0
C810 C 0.1448 0.17393 0.00101 0.0
C811 C 0.15911 0.16736 0.96564 0.0
C812 C 0.16412 0.1686 0.93819 0.0
C813 C 0.1518 0.16591 0.01768 0.0
C814 C 0.16217 0.15815 0.00811 0.0
C815 C 0.16584 0.15907 0.9823 0.0
C816 C 0.16813 0.14784 0.02453 0.0
C817 C 0.14759 0.16517 0.04536 0.0
C818 C 0.18372 0.15713 0.04001 0.0
C819 C 0.18847 0.14719 0.05664 0.0
C820 C 0.17758 0.12781 0.05815 0.0
C821 C 0.16225 0.11859 0.04204 0.0
C822 C 0.15763 0.12852 0.02534 0.0
H823 H 0.13878 0.1713 0.04972 0.0
H824 H 0.14045 0.15061 0.05193 0.0
H825 H 0.1607 0.17278 0.05607 0.0
H826 H 0.19198 0.17208 0.03954 0.0
H827 H 0.20033 0.15471 0.06881 0.0
H828 H 0.91389 0.78122 0.54493 0.0
H829 H 0.94105 0.79371 0.51736 0.0
H830 H 0.96618 0.84474 0.55915 0.0
H831 H 0.93922 0.83237 0.5869 0.0
H832 H 0.96348 0.84563 0.50145 0.0
H833 H 0.99595 0.80631 0.53909 0.0
H834 H 0.97141 0.79419 0.53318 0.0
H835 H 0.9807 0.81093 0.55795 0.0
C836 C 0.92523 0.79508 0.54829 0.0
C837 C 0.92444 0.80582 0.5681 0.0
C838 C 0.94074 0.80214 0.53261 0.0
C839 C 0.95563 0.82005 0.53643 0.0
C840 C 0.95483 0.83084 0.55605 0.0
H841 H 0.05538 0.89864 0.46154 0.0
H842 H 0.02876 0.88184 0.48913 0.0
C843 C 0.93943 0.82375 0.57186 0.0
C844 C 0.97181 0.82791 0.51945 0.0
H845 H 0.01145 0.82724 0.50607 0.0
C846 C 0.97397 0.8416 0.50237 0.0
C847 C 0.98525 0.82239 0.52055 0.0
C848 C 0.98339 0.80769 0.5387 0.0
C849 C 0.98938 0.85011 0.48644 0.0
C850 C 0.0033 0.84519 0.48823 0.0
C851 C 0.00087 0.83111 0.50489 0.0
C852 C 0.02063 0.85494 0.4734 0.0
C853 C 0.99046 0.86415 0.46763 0.0
C854 C 0.0256 0.84528 0.45645 0.0
C855 C 0.04107 0.85485 0.44087 0.0
C856 C 0.05174 0.87425 0.44195 0.0
C857 C 0.04729 0.88373 0.45995 0.0
C858 C 0.032 0.87416 0.47564 0.0
H859 H 0.97656 0.86212 0.4633 0.0
H860 H 0.99892 0.87823 0.47559 0.0
H861 H 0.99698 0.86339 0.44981 0.0
H862 H 0.01712 0.83041 0.45462 0.0
H863 H 0.04414 0.84715 0.4272 0.0
H864 H 0.15595 0.19882 0.43157 0.0
H865 H 0.17222 0.18891 0.46045 0.0
H866 H 0.12051 0.15129 0.49626 0.0
H867 H 0.10415 0.16071 0.46719 0.0
H868 H 0.17542 0.18761 0.51235 0.0
H869 H 0.1386 0.11694 0.47223 0.0
H870 H 0.13803 0.13618 0.45777 0.0
H871 H 0.12313 0.12424 0.48393 0.0
C872 C 0.1481 0.18864 0.44585 0.0
C873 C 0.12873 0.18032 0.44686 0.0
C874 C 0.15741 0.18296 0.46228 0.0
C875 C 0.14749 0.16899 0.48001 0.0
C876 C 0.12835 0.16169 0.48221 0.0
H877 H 0.1698 0.10918 0.5932 0.0
H878 H 0.15733 0.12428 0.56659 0.0
C879 C 0.11904 0.16716 0.46567 0.0
C880 C 0.15687 0.1613 0.49542 0.0
H881 H 0.15555 0.12083 0.50992 0.0
C882 C 0.1712 0.17305 0.5117 0.0
C883 C 0.15147 0.14232 0.4943 0.0
C884 C 0.1371 0.12922 0.47593 0.0
C885 C 0.1798 0.16614 0.52757 0.0
C886 C 0.17389 0.14707 0.52703 0.0
C887 C 0.15987 0.13542 0.51042 0.0
C888 C 0.18192 0.13878 0.54374 0.0
C889 C 0.19482 0.1791 0.54525 0.0
C890 C 0.19981 0.14187 0.53951 0.0
C891 C 0.20691 0.13313 0.55452 0.0
C892 C 0.19623 0.12122 0.57405 0.0
C893 C 0.17836 0.11829 0.57834 0.0
C894 C 0.17123 0.12692 0.5632 0.0
H895 H 0.19609 0.19298 0.5458 0.0
H896 H 0.19206 0.17326 0.56455 0.0
H897 H 0.20824 0.18073 0.53907 0.0
H898 H 0.20816 0.1508 0.52436 0.0
H899 H 0.22073 0.13564 0.55077 0.0
H900 H 0.89307 0.06198 0.59151 0.0
H901 H 0.87791 0.03491 0.56405 0.0
H902 H 0.85225 0.06046 0.52265 0.0
H903 H 0.86747 0.08772 0.54999 0.0
H904 H 0.8282 0.02019 0.53904 0.0
H905 H 0.89232 0.03638 0.48703 0.0
H906 H 0.89411 0.0377 0.52075 0.0
H907 H 0.88974 0.05373 0.50389 0.0
C908 C 0.8842 0.06185 0.57658 0.0
C909 C 0.88152 0.077 0.57282 0.0
C910 C 0.87557 0.0464 0.56093 0.0
C911 C 0.86407 0.04579 0.54132 0.0
C912 C 0.8611 0.06073 0.53772 0.0
H913 H 0.80127 0.95878 0.43059 0.0
H914 H 0.81114 0.98504 0.45923 0.0
C915 C 0.86984 0.07628 0.55328 0.0
C916 C 0.85548 0.02963 0.52434 0.0
H917 H 0.86604 0.00713 0.4797 0.0
C918 C 0.83638 0.01732 0.52591 0.0
C919 C 0.86625 0.02605 0.50728 0.0
C920 C 0.88673 0.03919 0.50438 0.0
C921 C 0.82785 0.00106 0.51142 0.0
C922 C 0.83871 0.99731 0.49463 0.0
C923 C 0.85774 0.00993 0.49271 0.0
C924 C 0.83093 0.98023 0.47922 0.0
C925 C 0.80746 0.98779 0.51484 0.0
C926 C 0.83868 0.96875 0.48098 0.0
C927 C 0.83328 0.95396 0.46446 0.0
C928 C 0.81992 0.95026 0.44585 0.0
C929 C 0.81147 0.96119 0.44487 0.0
C930 C 0.81707 0.97617 0.46129 0.0
H931 H 0.80225 0.99024 0.53281 0.0
H932 H 0.79974 0.98971 0.49927 0.0
H933 H 0.80441 0.97325 0.51444 0.0
H934 H 0.84936 0.97158 0.4947 0.0
H935 H 0.83996 0.94573 0.46582 0.0
H936 H 0.77225 0.27928 0.30262 0.0
H937 H 0.78916 0.30567 0.33054 0.0
H938 H 0.84021 0.31878 0.29351 0.0
H939 H 0.82334 0.29198 0.26569 0.0
H940 H 0.84403 0.32431 0.34573 0.0
H941 H 0.80728 0.35772 0.30412 0.0
H942 H 0.79175 0.33515 0.31638 0.0
H943 H 0.80658 0.33765 0.29033 0.0
C944 C 0.78711 0.28762 0.30059 0.0
C945 C 0.79643 0.28369 0.28172 0.0
C946 C 0.79674 0.30276 0.31649 0.0
C947 C 0.81584 0.31449 0.3136 0.0
C948 C 0.82542 0.30999 0.29586 0.0
H949 H 0.88799 0.42202 0.38409 0.0
H950 H 0.87612 0.39461 0.35709 0.0
C951 C 0.81578 0.29465 0.28005 0.0
C952 C 0.82547 0.33187 0.32835 0.0
H953 H 0.82402 0.37109 0.34197 0.0
C954 C 0.83981 0.33464 0.34474 0.0
C955 C 0.82009 0.34545 0.32679 0.0
C956 C 0.80572 0.34397 0.30826 0.0
C957 C 0.84833 0.35027 0.36042 0.0
C958 C 0.84233 0.36337 0.35957 0.0
C959 C 0.8284 0.36087 0.34271 0.0
C960 C 0.84996 0.37956 0.37651 0.0
C961 C 0.86331 0.35252 0.37831 0.0
C962 C 0.8391 0.38014 0.39618 0.0
C963 C 0.84584 0.3957 0.41165 0.0
C964 C 0.86348 0.41104 0.4075 0.0
C965 C 0.87434 0.41041 0.38774 0.0
C966 C 0.86763 0.39476 0.37238 0.0
H967 H 0.86508 0.3402 0.37853 0.0
H968 H 0.87662 0.36473 0.37268 0.0
H969 H 0.86008 0.35506 0.39765 0.0
H970 H 0.82536 0.36856 0.3995 0.0
H971 H 0.83714 0.39578 0.42669 0.0
H972 H 0.5812 0.46739 0.38427 0.0
H973 H 0.60847 0.48234 0.35694 0.0
H974 H 0.63361 0.45637 0.39855 0.0
H975 H 0.60653 0.44148 0.42603 0.0
H976 H 0.64908 0.50605 0.37364 0.0
H977 H 0.6316 0.44174 0.32115 0.0
H978 H 0.61446 0.44474 0.33788 0.0
H979 H 0.63016 0.43996 0.35487 0.0
C980 C 0.59256 0.46489 0.38762 0.0
C981 C 0.59171 0.4532 0.40723 0.0
C982 C 0.60812 0.47348 0.37206 0.0
C983 C 0.62295 0.47036 0.37571 0.0
C984 C 0.62222 0.45885 0.3954 0.0
H985 H 0.72228 0.49328 0.2988 0.0
H986 H 0.69648 0.48389 0.32775 0.0
C987 C 0.60675 0.45037 0.41107 0.0
C988 C 0.63909 0.47875 0.35867 0.0
H989 H 0.66088 0.46781 0.31339 0.0
C990 C 0.65168 0.49778 0.36032 0.0
C991 C 0.64232 0.46786 0.34138 0.0
C992 C 0.6289 0.44745 0.33845 0.0
C993 C 0.66785 0.50613 0.34564 0.0
C994 C 0.67122 0.49516 0.32855 0.0
C995 C 0.65835 0.47619 0.32659 0.0
C996 C 0.68819 0.50276 0.31289 0.0
C997 C 0.68142 0.52643 0.34918 0.0
C998 C 0.69241 0.51683 0.29523 0.0
C999 C 0.70738 0.52241 0.27876 0.0
C1000 C 0.71812 0.51376 0.2794 0.0
C1001 C 0.7142 0.50013 0.29768 0.0
C1002 C 0.69944 0.49473 0.31425 0.0
H1003 H 0.67924 0.53164 0.36732 0.0
H1004 H 0.69588 0.52922 0.34848 0.0
H1005 H 0.67957 0.53435 0.33383 0.0
H1006 H 0.68373 0.52298 0.29347 0.0
H1007 H 0.70994 0.53283 0.26474 0.0
H1008 H 0.53057 0.11133 0.38657 0.0
H1009 H 0.51451 0.12259 0.3597 0.0
H1010 H 0.54263 0.17544 0.39716 0.0
H1011 H 0.55829 0.16408 0.42457 0.0
H1012 H 0.5061 0.16345 0.39084 0.0
H1013 H 0.53641 0.15735 0.30089 0.0
H1014 H 0.52436 0.13617 0.31826 0.0
H1015 H 0.54503 0.15526 0.33105 0.0
C1016 C 0.53335 0.12536 0.38903 0.0
C1017 C 0.54576 0.13686 0.40758 0.0
C1018 C 0.52424 0.13181 0.37357 0.0
C1019 C 0.52761 0.14997 0.37612 0.0
C1020 C 0.53987 0.1614 0.39481 0.0
H1021 H 0.5082 0.22788 0.29975 0.0
H1022 H 0.51573 0.2101 0.32905 0.0
C1023 C 0.54884 0.15491 0.41042 0.0
C1024 C 0.51834 0.15713 0.3595 0.0
H1025 H 0.51406 0.16672 0.29827 0.0
C1026 C 0.50779 0.16409 0.37059 0.0
C1027 C 0.5205 0.15792 0.33306 0.0
C1028 C 0.53232 0.15144 0.32007 0.0
C1029 C 0.49961 0.17208 0.356 0.0
C1030 C 0.50208 0.17316 0.32969 0.0
C1031 C 0.51212 0.16572 0.31848 0.0
C1032 C 0.49587 0.18349 0.31367 0.0
C1033 C 0.48855 0.1795 0.36877 0.0
C1034 C 0.48207 0.17435 0.29548 0.0
C1035 C 0.4776 0.18449 0.27879 0.0
C1036 C 0.48715 0.20392 0.27974 0.0
C1037 C 0.50063 0.21294 0.29846 0.0
C1038 C 0.5049 0.20281 0.31529 0.0
H1039 H 0.48445 0.17397 0.38814 0.0
H1040 H 0.49704 0.19479 0.36996 0.0
H1041 H 0.47592 0.17604 0.35779 0.0
H1042 H 0.47505 0.15944 0.29388 0.0
H1043 H 0.46724 0.17715 0.26448 0.0
H1044 H 0.61846 0.48651 0.89662 0.0
H1045 H 0.64431 0.50363 0.8675 0.0
H1046 H 0.64403 0.45325 0.84902 0.0
H1047 H 0.61839 0.43609 0.87786 0.0
H1048 H 0.67909 0.48367 0.86531 0.0
H1049 H 0.64642 0.50281 0.78865 0.0
H1050 H 0.64254 0.50743 0.82044 0.0
H1051 H 0.63306 0.48399 0.81008 0.0
C1052 C 0.62369 0.47902 0.88605 0.0
C1053 C 0.61639 0.45992 0.88975 0.0
C1054 C 0.63845 0.48883 0.8694 0.0
C1055 C 0.64604 0.47967 0.85613 0.0
C1056 C 0.63838 0.46056 0.85915 0.0
H1057 H 0.72446 0.50615 0.73679 0.0
H1058 H 0.69738 0.49385 0.76436 0.0
C1059 C 0.6237 0.45078 0.87568 0.0
C1060 C 0.66273 0.48997 0.84032 0.0
H1061 H 0.67829 0.51314 0.78477 0.0
C1062 C 0.67898 0.49024 0.84779 0.0
C1063 C 0.66244 0.49841 0.81745 0.0
C1064 C 0.64519 0.49813 0.80845 0.0
C1065 C 0.69492 0.49854 0.83281 0.0
C1066 C 0.69462 0.50687 0.80985 0.0
C1067 C 0.67844 0.50679 0.80247 0.0
C1068 C 0.71076 0.51496 0.79278 0.0
C1069 C 0.71182 0.49785 0.84124 0.0
C1070 C 0.72716 0.531 0.79959 0.0
C1071 C 0.74264 0.53807 0.78388 0.0
C1072 C 0.74196 0.52918 0.76114 0.0
C1073 C 0.72542 0.51326 0.75423 0.0
C1074 C 0.70993 0.50626 0.76989 0.0
H1075 H 0.70879 0.48823 0.85727 0.0
H1076 H 0.71752 0.4935 0.82551 0.0
H1077 H 0.72265 0.51186 0.84725 0.0
H1078 H 0.72801 0.53797 0.81712 0.0
H1079 H 0.75517 0.5504 0.78967 0.0
H1080 H 0.48702 0.20815 0.72774 0.0
H1081 H 0.49876 0.19174 0.75292 0.0
H1082 H 0.47481 0.20092 0.81942 0.0
H1083 H 0.46196 0.21614 0.79389 0.0
H1084 H 0.52258 0.20261 0.78675 0.0
H1085 H 0.45855 0.14859 0.83095 0.0
H1086 H 0.45819 0.1629 0.80584 0.0
H1087 H 0.46153 0.17087 0.83797 0.0
C1088 C 0.4841 0.20644 0.7477 0.0
C1089 C 0.47351 0.21326 0.7589 0.0
C1090 C 0.49079 0.19705 0.7621 0.0
C1091 C 0.48737 0.19466 0.78809 0.0
C1092 C 0.47706 0.20185 0.79932 0.0
H1093 H 0.55886 0.18773 0.89598 0.0
H1094 H 0.54273 0.1957 0.86489 0.0
C1095 C 0.46989 0.21076 0.78478 0.0
C1096 C 0.49574 0.18589 0.80363 0.0
H1097 H 0.48706 0.1557 0.85198 0.0
C1098 C 0.51467 0.19213 0.80071 0.0
C1099 C 0.48548 0.17186 0.82152 0.0
C1100 C 0.46477 0.16303 0.82402 0.0
C1101 C 0.52376 0.1854 0.81582 0.0
C1102 C 0.51387 0.1727 0.83527 0.0
C1103 C 0.49476 0.16573 0.83743 0.0
C1104 C 0.52336 0.16743 0.85442 0.0
C1105 C 0.54388 0.192 0.81065 0.0
C1106 C 0.51733 0.14879 0.85984 0.0
C1107 C 0.52637 0.14412 0.87817 0.0
C1108 C 0.54163 0.15803 0.89125 0.0
C1109 C 0.5474 0.17664 0.88596 0.0
C1110 C 0.53824 0.18125 0.86801 0.0
H1111 H 0.54725 0.1956 0.7905 0.0
H1112 H 0.55259 0.20468 0.82178 0.0
H1113 H 0.54759 0.18138 0.81573 0.0
H1114 H 0.50574 0.13787 0.84978 0.0
H1115 H 0.52153 0.12966 0.8819 0.0
H1116 H 0.8685 0.3909 0.88036 0.0
H1117 H 0.85991 0.36641 0.84878 0.0
H1118 H 0.80391 0.3387 0.87664 0.0
H1119 H 0.81214 0.36327 0.9072 0.0
H1120 H 0.84631 0.32982 0.85099 0.0
H1121 H 0.79494 0.34267 0.80386 0.0
H1122 H 0.81087 0.35832 0.82695 0.0
H1123 H 0.78971 0.33814 0.83662 0.0
C1124 C 0.85437 0.37958 0.87963 0.0
C1125 C 0.84092 0.37918 0.8959 0.0
C1126 C 0.84947 0.36561 0.86163 0.0
C1127 C 0.83112 0.351 0.85984 0.0
C1128 C 0.81798 0.35017 0.87698 0.0
H1129 H 0.78807 0.24321 0.79215 0.0
H1130 H 0.80263 0.2705 0.81921 0.0
C1131 C 0.82274 0.36421 0.89455 0.0
C1132 C 0.82547 0.33649 0.84023 0.0
H1133 H 0.79233 0.31317 0.7959 0.0
C1134 C 0.83466 0.32632 0.83869 0.0
C1135 C 0.81055 0.33217 0.82374 0.0
C1136 C 0.80111 0.34356 0.82267 0.0
C1137 C 0.82882 0.31144 0.82185 0.0
C1138 C 0.81298 0.30624 0.80677 0.0
C1139 C 0.80429 0.31691 0.80766 0.0
C1140 C 0.80492 0.2897 0.79013 0.0
C1141 C 0.83985 0.30166 0.82029 0.0
C1142 C 0.80069 0.29119 0.76498 0.0
C1143 C 0.79183 0.2755 0.74974 0.0
C1144 C 0.78726 0.25805 0.75924 0.0
C1145 C 0.79164 0.25654 0.78428 0.0
C1146 C 0.80015 0.27218 0.79968 0.0
H1147 H 0.85449 0.31098 0.82577 0.0
H1148 H 0.83395 0.28981 0.83353 0.0
H1149 H 0.83955 0.29638 0.80105 0.0
H1150 H 0.80411 0.3045 0.75716 0.0
H1151 H 0.78864 0.27706 0.73048 0.0
H1152 H 0.51106 0.37823 0.40115 0.0
H1153 H 0.49349 0.35248 0.372 0.0
H1154 H 0.54439 0.36043 0.34014 0.0
H1155 H 0.56204 0.386 0.36912 0.0
H1156 H 0.51198 0.35391 0.30467 0.0
H1157 H 0.49611 0.30229 0.38092 0.0
H1158 H 0.49255 0.32155 0.38666 0.0
H1159 H 0.51557 0.32551 0.38294 0.0
C1160 C 0.51851 0.3747 0.38766 0.0
C1161 C 0.53796 0.38407 0.38759 0.0
C1162 C 0.50845 0.35995 0.37112 0.0
C1163 C 0.5177 0.35453 0.35414 0.0
C1164 C 0.53704 0.36442 0.35319 0.0
H1165 H 0.49858 0.27329 0.24175 0.0
H1166 H 0.5098 0.30075 0.2682 0.0
C1167 C 0.54709 0.37899 0.36981 0.0
C1168 C 0.50743 0.3379 0.33828 0.0
H1169 H 0.487 0.29089 0.34001 0.0
C1170 C 0.50633 0.3401 0.31235 0.0
C1171 C 0.50004 0.31996 0.34848 0.0
C1172 C 0.5011 0.31701 0.37626 0.0
C1173 C 0.49821 0.32475 0.2962 0.0
C1174 C 0.49157 0.30681 0.30623 0.0
C1175 C 0.49217 0.30463 0.33231 0.0
C1176 C 0.48461 0.29021 0.28997 0.0
C1177 C 0.49677 0.32793 0.26859 0.0
C1178 C 0.46697 0.27486 0.29396 0.0
C1179 C 0.46064 0.25901 0.2791 0.0
C1180 C 0.47185 0.25824 0.25999 0.0
C1181 C 0.48956 0.27354 0.25618 0.0
C1182 C 0.49593 0.28931 0.27115 0.0
H1183 H 0.4967 0.34103 0.26535 0.0
H1184 H 0.50893 0.32897 0.25863 0.0
H1185 H 0.48406 0.31637 0.2602 0.0
H1186 H 0.45807 0.27517 0.30852 0.0
H1187 H 0.44693 0.24742 0.28251 0.0
H1188 H 0.72779 0.22622 0.24556 0.0
H1189 H 0.70042 0.21014 0.27228 0.0
H1190 H 0.72535 0.18265 0.31086 0.0
H1191 H 0.75299 0.19911 0.28468 0.0
H1192 H 0.67631 0.17343 0.27793 0.0
H1193 H 0.7107 0.20353 0.36903 0.0
H1194 H 0.72192 0.21253 0.33923 0.0
H1195 H 0.72061 0.192 0.35212 0.0
C1196 C 0.72748 0.21683 0.25983 0.0
C1197 C 0.74258 0.21402 0.26315 0.0
C1198 C 0.71182 0.20762 0.27505 0.0
C1199 C 0.71092 0.19538 0.29382 0.0
C1200 C 0.72589 0.19235 0.29691 0.0
H1201 H 0.62261 0.13304 0.40356 0.0
H1202 H 0.64851 0.14149 0.37459 0.0
C1203 C 0.74164 0.20169 0.28185 0.0
C1204 C 0.6942 0.18572 0.30988 0.0
H1205 H 0.67918 0.18046 0.37064 0.0
C1206 C 0.67696 0.17493 0.29821 0.0
C1207 C 0.69506 0.18762 0.33636 0.0
C1208 C 0.71303 0.19967 0.34996 0.0
C1209 C 0.66054 0.16622 0.31227 0.0
C1210 C 0.6614 0.16841 0.33863 0.0
C1211 C 0.67864 0.17872 0.3504 0.0
C1212 C 0.64453 0.1616 0.35414 0.0
C1213 C 0.64236 0.15489 0.29887 0.0
C1214 C 0.63365 0.16997 0.35198 0.0
C1215 C 0.61903 0.16533 0.36856 0.0
C1216 C 0.61492 0.15214 0.38757 0.0
C1217 C 0.62534 0.14316 0.38901 0.0
C1218 C 0.64017 0.148 0.37256 0.0
H1219 H 0.64431 0.15094 0.27965 0.0
H1220 H 0.63317 0.14215 0.30964 0.0
H1221 H 0.63532 0.16311 0.29721 0.0
H1222 H 0.63694 0.18065 0.33807 0.0
H1223 H 0.61124 0.17247 0.36691 0.0
H1224 H 0.81877 0.43976 0.3786 0.0
H1225 H 0.81037 0.45712 0.35004 0.0
H1226 H 0.86169 0.50686 0.36621 0.0
H1227 H 0.87036 0.48957 0.39515 0.0
H1228 H 0.80805 0.48957 0.36698 0.0
H1229 H 0.85608 0.50352 0.28664 0.0
H1230 H 0.84998 0.48465 0.30826 0.0
H1231 H 0.86544 0.50795 0.31802 0.0
C1232 C 0.82844 0.45435 0.376 0.0
C1233 C 0.84523 0.46327 0.38937 0.0
C1234 C 0.82358 0.46424 0.35962 0.0
C1235 C 0.8354 0.48322 0.35604 0.0
C1236 C 0.85245 0.49215 0.36862 0.0
H1237 H 0.79714 0.55367 0.28776 0.0
H1238 H 0.81254 0.54199 0.31524 0.0
C1239 C 0.85735 0.48225 0.38514 0.0
C1240 C 0.82912 0.49363 0.34031 0.0
H1241 H 0.83488 0.51422 0.28302 0.0
C1242 C 0.81401 0.49514 0.34872 0.0
C1243 C 0.83691 0.50074 0.3165 0.0
C1244 C 0.85296 0.49913 0.30659 0.0
C1245 C 0.80622 0.50328 0.33372 0.0
C1246 C 0.81383 0.51019 0.30975 0.0
C1247 C 0.82914 0.50895 0.30147 0.0
C1248 C 0.80541 0.51784 0.29256 0.0
C1249 C 0.78949 0.50386 0.34323 0.0
C1250 C 0.79659 0.50827 0.27053 0.0
C1251 C 0.78775 0.51487 0.25484 0.0
C1252 C 0.78771 0.53123 0.26084 0.0
C1253 C 0.79686 0.54097 0.2827 0.0
C1254 C 0.80565 0.53433 0.29843 0.0
H1255 H 0.78336 0.49502 0.36009 0.0
H1256 H 0.79358 0.51828 0.34837 0.0
H1257 H 0.77875 0.49927 0.32838 0.0
H1258 H 0.79626 0.49551 0.26573 0.0
H1259 H 0.78088 0.5071 0.23809 0.0
H1260 H 0.60987 0.16203 0.93111 0.0
H1261 H 0.63691 0.17436 0.90341 0.0
H1262 H 0.6071 0.1288 0.85243 0.0
H1263 H 0.57998 0.11629 0.88001 0.0
H1264 H 0.65391 0.14874 0.87854 0.0
H1265 H 0.62799 0.18515 0.81739 0.0
H1266 H 0.62244 0.1817 0.85047 0.0
H1267 H 0.61217 0.16239 0.82943 0.0
C1268 C 0.6091 0.15457 0.91408 0.0
C1269 C 0.59279 0.13822 0.90768 0.0
C1270 C 0.62456 0.1616 0.89836 0.0
C1271 C 0.62393 0.15242 0.87602 0.0
C1272 C 0.60779 0.13599 0.86969 0.0
H1273 H 0.7123 0.17901 0.76655 0.0
H1274 H 0.68659 0.16232 0.79595 0.0
C1275 C 0.59234 0.12892 0.88543 0.0
C1276 C 0.63986 0.16055 0.85869 0.0
H1277 H 0.65703 0.18877 0.80763 0.0
C1278 C 0.65465 0.15743 0.86293 0.0
C1279 C 0.64064 0.17186 0.8385 0.0
C1280 C 0.62503 0.1756 0.83349 0.0
C1281 C 0.67045 0.16564 0.84755 0.0
C1282 C 0.6713 0.17709 0.8274 0.0
C1283 C 0.65635 0.17998 0.82309 0.0
C1284 C 0.68783 0.18696 0.81111 0.0
C1285 C 0.68629 0.16242 0.8534 0.0
C1286 C 0.69705 0.20631 0.80989 0.0
C1287 C 0.71158 0.21584 0.79303 0.0
C1288 C 0.71723 0.20623 0.77695 0.0
C1289 C 0.70838 0.18684 0.77876 0.0
C1290 C 0.69371 0.17728 0.79561 0.0
H1291 H 0.68518 0.15673 0.8726 0.0
H1292 H 0.68623 0.15235 0.83975 0.0
H1293 H 0.69973 0.17546 0.85169 0.0
H1294 H 0.69276 0.21405 0.82171 0.0
H1295 H 0.71815 0.23076 0.7923 0.0
H1296 H 0.83297 0.43928 0.92537 0.0
H1297 H 0.82079 0.45405 0.89765 0.0
H1298 H 0.87263 0.48115 0.85762 0.0
H1299 H 0.88463 0.46591 0.88468 0.0
H1300 H 0.83198 0.48984 0.88985 0.0
H1301 H 0.83706 0.4586 0.80034 0.0
H1302 H 0.84 0.45063 0.83054 0.0
H1303 H 0.85869 0.47107 0.81658 0.0
C1304 C 0.84172 0.4483 0.91056 0.0
C1305 C 0.8597 0.45133 0.90706 0.0
C1306 C 0.83477 0.45676 0.89476 0.0
C1307 C 0.84567 0.46848 0.87525 0.0
C1308 C 0.86376 0.47179 0.87206 0.0
H1309 H 0.82128 0.53153 0.76495 0.0
H1310 H 0.83777 0.52215 0.79433 0.0
C1311 C 0.87065 0.46315 0.88766 0.0
C1312 C 0.83816 0.47743 0.85859 0.0
H1313 H 0.82885 0.4819 0.79727 0.0
C1314 C 0.83131 0.4881 0.86961 0.0
C1315 C 0.83729 0.47517 0.83214 0.0
C1316 C 0.84348 0.46311 0.81919 0.0
C1317 C 0.82354 0.49646 0.85494 0.0
C1318 C 0.82263 0.49412 0.82861 0.0
C1319 C 0.82977 0.48379 0.81749 0.0
C1320 C 0.81298 0.50102 0.81242 0.0
C1321 C 0.81624 0.50767 0.86762 0.0
C1322 C 0.79365 0.49231 0.81309 0.0
C1323 C 0.78422 0.49748 0.79627 0.0
C1324 C 0.79395 0.51156 0.77852 0.0
C1325 C 0.81339 0.52072 0.77849 0.0
C1326 C 0.82283 0.51535 0.79517 0.0
H1327 H 0.82118 0.51117 0.88732 0.0
H1328 H 0.82047 0.52065 0.85707 0.0
H1329 H 0.80091 0.49959 0.86783 0.0
H1330 H 0.78582 0.48111 0.82614 0.0
H1331 H 0.76925 0.49018 0.79686 0.0
H1332 H 0.55941 0.39349 0.92629 0.0
H1333 H 0.54465 0.36654 0.89862 0.0
H1334 H 0.51604 0.39036 0.86018 0.0
H1335 H 0.53128 0.41765 0.88722 0.0
H1336 H 0.50888 0.34123 0.89095 0.0
H1337 H 0.53943 0.37905 0.80203 0.0
H1338 H 0.54727 0.38963 0.83244 0.0
H1339 H 0.52651 0.38741 0.81893 0.0
C1340 C 0.55003 0.39302 0.91188 0.0
C1341 C 0.54663 0.40775 0.90875 0.0
C1342 C 0.54157 0.37759 0.89612 0.0
C1343 C 0.52948 0.37656 0.87702 0.0
C1344 C 0.52569 0.39105 0.87432 0.0
H1345 H 0.46897 0.28919 0.76565 0.0
H1346 H 0.4772 0.31449 0.7956 0.0
C1347 C 0.53432 0.40659 0.88988 0.0
C1348 C 0.52089 0.36027 0.86005 0.0
H1349 H 0.51728 0.34726 0.79848 0.0
C1350 C 0.5107 0.34257 0.87073 0.0
C1351 C 0.52327 0.36201 0.83364 0.0
C1352 C 0.53485 0.38052 0.82106 0.0
C1353 C 0.50297 0.3266 0.85574 0.0
C1354 C 0.50548 0.32839 0.82946 0.0
C1355 C 0.51528 0.34603 0.81868 0.0
C1356 C 0.49932 0.31211 0.81296 0.0
C1357 C 0.49229 0.30788 0.86802 0.0
C1358 C 0.50899 0.30241 0.81302 0.0
C1359 C 0.50448 0.28814 0.79584 0.0
C1360 C 0.49012 0.28321 0.77837 0.0
C1361 C 0.48003 0.29257 0.77894 0.0
C1362 C 0.48473 0.30704 0.79596 0.0
H1363 H 0.48872 0.30889 0.88784 0.0
H1364 H 0.47936 0.29895 0.85744 0.0
H1365 H 0.50077 0.30105 0.86777 0.0
H1366 H 0.52039 0.30625 0.82589 0.0
H1367 H 0.51247 0.28117 0.79598 0.0
H1368 H 0.48606 0.61759 0.60419 0.0
H1369 H 0.5031 0.6433 0.63355 0.0
H1370 H 0.45324 0.64483 0.64906 0.0
H1371 H 0.43615 0.61937 0.61997 0.0
H1372 H 0.48473 0.67946 0.63415 0.0
H1373 H 0.50026 0.64491 0.7122 0.0
H1374 H 0.5056 0.64111 0.68076 0.0
H1375 H 0.48196 0.63216 0.6898 0.0
C1376 C 0.47866 0.62322 0.61412 0.0
C1377 C 0.45973 0.61644 0.60956 0.0
C1378 C 0.48842 0.63788 0.63092 0.0
C1379 C 0.47939 0.6459 0.64348 0.0
C1380 C 0.46045 0.63883 0.63951 0.0
H1381 H 0.5056 0.72344 0.76411 0.0
H1382 H 0.49324 0.69654 0.73616 0.0
C1383 C 0.45071 0.62424 0.62284 0.0
C1384 C 0.48967 0.6624 0.65964 0.0
H1385 H 0.51145 0.67692 0.71629 0.0
C1386 C 0.4907 0.67897 0.65203 0.0
C1387 C 0.49732 0.66161 0.68298 0.0
C1388 C 0.4962 0.644 0.69214 0.0
C1389 C 0.49896 0.69476 0.66732 0.0
C1390 C 0.50652 0.69396 0.69073 0.0
C1391 C 0.50569 0.67745 0.69826 0.0
C1392 C 0.51462 0.70996 0.70807 0.0
C1393 C 0.49905 0.712 0.65866 0.0
C1394 C 0.53083 0.7263 0.7016 0.0
C1395 C 0.5379 0.74167 0.71749 0.0
C1396 C 0.52887 0.74093 0.74013 0.0
C1397 C 0.51281 0.72444 0.74675 0.0
C1398 C 0.50578 0.70906 0.73087 0.0
H1399 H 0.48961 0.70926 0.64249 0.0
H1400 H 0.49491 0.71805 0.67421 0.0
H1401 H 0.51324 0.72244 0.65275 0.0
H1402 H 0.53794 0.72719 0.68418 0.0
H1403 H 0.55035 0.75416 0.71194 0.0
H1404 H 0.36327 0.81072 0.58811 0.0
H1405 H 0.3381 0.80178 0.61795 0.0
H1406 H 0.36698 0.85617 0.65117 0.0
H1407 H 0.3919 0.86552 0.62026 0.0
H1408 H 0.33799 0.79853 0.66585 0.0
H1409 H 0.31692 0.85034 0.64472 0.0
H1410 H 0.3328 0.84734 0.62506 0.0
H1411 H 0.34076 0.86066 0.65357 0.0
C1412 C 0.36421 0.82085 0.60165 0.0
C1413 C 0.37956 0.83883 0.60187 0.0
C1414 C 0.3498 0.81571 0.61872 0.0
C1415 C 0.35047 0.82832 0.63672 0.0
C1416 C 0.36585 0.84632 0.63708 0.0
H1417 H 0.2783 0.7851 0.76834 0.0
H1418 H 0.30505 0.79897 0.74024 0.0
C1419 C 0.38016 0.85162 0.61954 0.0
C1420 C 0.33538 0.82209 0.65564 0.0
H1421 H 0.3033 0.83148 0.68067 0.0
C1422 C 0.33039 0.80574 0.669 0.0
C1423 C 0.32529 0.83134 0.65963 0.0
C1424 C 0.32907 0.84828 0.64481 0.0
C1425 C 0.31551 0.79825 0.68589 0.0
C1426 C 0.3058 0.80782 0.69052 0.0
C1427 C 0.31086 0.82425 0.67734 0.0
C1428 C 0.28992 0.80061 0.70822 0.0
C1429 C 0.30995 0.77978 0.69779 0.0
C1430 C 0.27269 0.79775 0.70003 0.0
C1431 C 0.25751 0.79027 0.71629 0.0
C1432 C 0.25923 0.78534 0.74095 0.0
C1433 C 0.27653 0.78855 0.74931 0.0
C1434 C 0.2918 0.79636 0.73321 0.0
H1435 H 0.31488 0.77186 0.68661 0.0
H1436 H 0.31627 0.78205 0.71674 0.0
H1437 H 0.29471 0.77124 0.69976 0.0
H1438 H 0.2709 0.80098 0.68089 0.0
H1439 H 0.24433 0.78797 0.70936 0.0
H1440 H 0.17609 0.56131 0.63146 0.0
H1441 H 0.18348 0.54318 0.6603 0.0
H1442 H 0.13948 0.4928 0.6288 0.0
H1443 H 0.13181 0.51084 0.59978 0.0
H1444 H 0.1549 0.50878 0.6953 0.0
H1445 H 0.19419 0.49672 0.62006 0.0
H1446 H 0.19141 0.51682 0.6195 0.0
H1447 H 0.17199 0.49443 0.61316 0.0
C1448 C 0.16779 0.54637 0.63082 0.0
C1449 C 0.15343 0.53752 0.61317 0.0
C1450 C 0.17202 0.53606 0.64737 0.0
C1451 C 0.16209 0.51672 0.6465 0.0
C1452 C 0.14729 0.50775 0.62966 0.0
H1453 H 0.1988 0.44575 0.71656 0.0
H1454 H 0.1822 0.45688 0.69051 0.0
C1455 C 0.14291 0.51808 0.61318 0.0
C1456 C 0.16815 0.50614 0.66218 0.0
H1457 H 0.19598 0.48709 0.66087 0.0
C1458 C 0.16371 0.50382 0.6878 0.0
C1459 C 0.17954 0.49966 0.6522 0.0
C1460 C 0.18468 0.50198 0.62474 0.0
C1461 C 0.17069 0.49544 0.70391 0.0
C1462 C 0.18284 0.48975 0.69418 0.0
C1463 C 0.18675 0.49153 0.66834 0.0
C1464 C 0.19231 0.48269 0.71059 0.0
C1465 C 0.16495 0.49274 0.73116 0.0
C1466 C 0.20371 0.49361 0.73032 0.0
C1467 C 0.21314 0.48726 0.74527 0.0
C1468 C 0.21154 0.46997 0.74058 0.0
C1469 C 0.20028 0.45913 0.72066 0.0
C1470 C 0.19078 0.46545 0.70578 0.0
H1471 H 0.15145 0.49212 0.73372 0.0
H1472 H 0.16387 0.47987 0.73882 0.0
H1473 H 0.17542 0.50462 0.74226 0.0
H1474 H 0.20554 0.50718 0.73394 0.0
H1475 H 0.22182 0.49598 0.76036 0.0
H1476 H 0.39292 0.83878 0.06986 0.0
H1477 H 0.36561 0.82781 0.09663 0.0
H1478 H 0.39479 0.87599 0.14369 0.0
H1479 H 0.42224 0.88699 0.1171 0.0
H1480 H 0.37721 0.84298 0.17036 0.0
H1481 H 0.32903 0.84693 0.10238 0.0
H1482 H 0.33984 0.83448 0.09065 0.0
H1483 H 0.35374 0.85873 0.09752 0.0
C1484 C 0.39349 0.84709 0.08582 0.0
C1485 C 0.40971 0.86375 0.09136 0.0
C1486 C 0.37782 0.84089 0.10097 0.0
C1487 C 0.37807 0.85126 0.12187 0.0
C1488 C 0.39427 0.86787 0.1275 0.0
H1489 H 0.28441 0.82188 0.22447 0.0
H1490 H 0.3104 0.83969 0.19572 0.0
C1491 C 0.40994 0.87411 0.11232 0.0
C1492 C 0.36178 0.84415 0.13869 0.0
H1493 H 0.31542 0.82885 0.13952 0.0
C1494 C 0.36377 0.84013 0.1637 0.0
C1495 C 0.34429 0.84062 0.13004 0.0
C1496 C 0.34158 0.84558 0.10375 0.0
C1497 C 0.34853 0.83186 0.17996 0.0
C1498 C 0.33089 0.82744 0.17091 0.0
C1499 C 0.32899 0.83218 0.14627 0.0
C1500 C 0.31417 0.81661 0.18637 0.0
C1501 C 0.35124 0.82745 0.20656 0.0
C1502 C 0.3075 0.79772 0.18998 0.0
C1503 C 0.29271 0.78752 0.20619 0.0
C1504 C 0.28429 0.79604 0.21925 0.0
C1505 C 0.29057 0.81488 0.21477 0.0
C1506 C 0.3054 0.82509 0.1984 0.0
H1507 H 0.36607 0.83467 0.212 0.0
H1508 H 0.34358 0.83138 0.21993 0.0
H1509 H 0.34567 0.81234 0.20835 0.0
H1510 H 0.31406 0.79095 0.18068 0.0
H1511 H 0.28823 0.77304 0.20896 0.0
H1512 H 0.16312 0.55614 0.07416 0.0
H1513 H 0.17477 0.54047 0.10099 0.0
H1514 H 0.12525 0.51819 0.14595 0.0
H1515 H 0.11363 0.53412 0.11941 0.0
H1516 H 0.15662 0.53302 0.1745 0.0
H1517 H 0.15886 0.48591 0.10315 0.0
H1518 H 0.17115 0.50967 0.09351 0.0
H1519 H 0.14654 0.49828 0.09818 0.0
C1520 C 0.15467 0.54784 0.08969 0.0
C1521 C 0.13743 0.5463 0.09463 0.0
C1522 C 0.16128 0.53877 0.10488 0.0
C1523 C 0.1507 0.52783 0.12515 0.0
C1524 C 0.13355 0.52641 0.13027 0.0
H1525 H 0.17922 0.46504 0.23144 0.0
H1526 H 0.16148 0.47319 0.20255 0.0
C1527 C 0.12695 0.53554 0.11511 0.0
C1528 C 0.158 0.51865 0.14169 0.0
H1529 H 0.17594 0.48976 0.14119 0.0
C1530 C 0.16058 0.52336 0.16728 0.0
C1531 C 0.16303 0.50592 0.13229 0.0
C1532 C 0.15959 0.49949 0.10533 0.0
C1533 C 0.16883 0.5163 0.18345 0.0
C1534 C 0.17464 0.5043 0.17377 0.0
C1535 C 0.17149 0.49905 0.14844 0.0
C1536 C 0.18527 0.49831 0.18942 0.0
C1537 C 0.17186 0.52211 0.21067 0.0
C1538 C 0.20448 0.50958 0.19108 0.0
C1539 C 0.21463 0.50504 0.20748 0.0
C1540 C 0.20574 0.48908 0.22256 0.0
C1541 C 0.18651 0.4774 0.22009 0.0
C1542 C 0.17634 0.48203 0.20366 0.0
H1543 H 0.16548 0.53059 0.21568 0.0
H1544 H 0.16597 0.50971 0.22295 0.0
H1545 H 0.18692 0.53028 0.21456 0.0
H1546 H 0.21157 0.52219 0.18015 0.0
H1547 H 0.22942 0.5143 0.20873 0.0
H1548 H 0.53353 0.71101 0.23242 0.0
H1549 H 0.52543 0.68567 0.20258 0.0
H1550 H 0.48403 0.69551 0.16948 0.0
H1551 H 0.49187 0.72065 0.19919 0.0
H1552 H 0.48684 0.65398 0.19947 0.0
H1553 H 0.51363 0.69054 0.10868 0.0
H1554 H 0.52275 0.70142 0.13872 0.0
H1555 H 0.50114 0.69848 0.12762 0.0
C1556 C 0.52296 0.70801 0.21846 0.0
C1557 C 0.51328 0.71778 0.21824 0.0
C1558 C 0.51833 0.69352 0.2015 0.0
C1559 C 0.50423 0.68885 0.18378 0.0
C1560 C 0.4951 0.69906 0.18284 0.0
H1561 H 0.44056 0.60562 0.07442 0.0
H1562 H 0.45625 0.63299 0.10122 0.0
C1563 C 0.49954 0.71336 0.19993 0.0
C1564 C 0.49775 0.67227 0.16774 0.0
H1565 H 0.4924 0.65824 0.1066 0.0
C1566 C 0.48825 0.65484 0.17918 0.0
C1567 C 0.49949 0.67354 0.14133 0.0
C1568 C 0.50992 0.69199 0.12827 0.0
C1569 C 0.47974 0.63857 0.1648 0.0
C1570 C 0.48125 0.63981 0.13827 0.0
C1571 C 0.49121 0.65729 0.12691 0.0
C1572 C 0.47201 0.62322 0.12192 0.0
C1573 C 0.46848 0.62032 0.17814 0.0
C1574 C 0.47579 0.6087 0.12444 0.0
C1575 C 0.46663 0.59293 0.10939 0.0
C1576 C 0.45379 0.59155 0.09121 0.0
C1577 C 0.45034 0.60627 0.0883 0.0
C1578 C 0.45934 0.62194 0.10356 0.0
H1579 H 0.46457 0.62219 0.19742 0.0
H1580 H 0.45567 0.61108 0.16755 0.0
H1581 H 0.4768 0.61337 0.17979 0.0
H1582 H 0.48586 0.60957 0.138 0.0
H1583 H 0.46972 0.58188 0.11185 0.0
H1584 H 0.16571 0.60629 0.57631 0.0
H1585 H 0.17742 0.63335 0.60372 0.0
H1586 H 0.12466 0.60919 0.64136 0.0
H1587 H 0.11306 0.58183 0.61452 0.0
H1588 H 0.16602 0.65829 0.6103 0.0
H1589 H 0.15937 0.62151 0.70004 0.0
H1590 H 0.15707 0.61078 0.66983 0.0
H1591 H 0.13816 0.61262 0.68278 0.0
C1592 C 0.15663 0.60671 0.5905 0.0
C1593 C 0.13852 0.59188 0.59342 0.0
C1594 C 0.16332 0.62219 0.60611 0.0
C1595 C 0.15202 0.62318 0.62486 0.0
C1596 C 0.13379 0.60855 0.62745 0.0
H1597 H 0.17889 0.71031 0.73683 0.0
H1598 H 0.16146 0.68496 0.70708 0.0
C1599 C 0.12714 0.59296 0.61201 0.0
C1600 C 0.1594 0.63961 0.64155 0.0
H1601 H 0.16878 0.65324 0.70289 0.0
C1602 C 0.16657 0.65717 0.63055 0.0
C1603 C 0.16008 0.63814 0.66799 0.0
C1604 C 0.15342 0.61978 0.68089 0.0
C1605 C 0.17461 0.67328 0.64525 0.0
C1606 C 0.17551 0.67179 0.67157 0.0
C1607 C 0.16791 0.65427 0.68267 0.0
C1608 C 0.1857 0.68825 0.68776 0.0
C1609 C 0.18225 0.69183 0.63258 0.0
C1610 C 0.20504 0.69852 0.68653 0.0
C1611 C 0.21501 0.71282 0.70358 0.0
C1612 C 0.20581 0.7172 0.72212 0.0
C1613 C 0.18637 0.70734 0.72269 0.0
C1614 C 0.1764 0.69284 0.70578 0.0
H1615 H 0.17694 0.69051 0.6131 0.0
H1616 H 0.1787 0.70098 0.64346 0.0
H1617 H 0.19754 0.69858 0.63173 0.0
H1618 H 0.21246 0.69505 0.67292 0.0
H1619 H 0.22996 0.72018 0.70257 0.0
H1620 H 0.27684 0.50777 0.70017 0.0
H1621 H 0.30238 0.51696 0.67079 0.0
H1622 H 0.31577 0.47848 0.70558 0.0
H1623 H 0.2898 0.46878 0.73465 0.0
H1624 H 0.33796 0.53345 0.68397 0.0
H1625 H 0.31979 0.46883 0.63231 0.0
H1626 H 0.30327 0.47127 0.65138 0.0
H1627 H 0.31998 0.46661 0.66583 0.0
C1628 C 0.285 0.501 0.70129 0.0
C1629 C 0.28132 0.48757 0.71978 0.0
C1630 C 0.29962 0.50629 0.68448 0.0
C1631 C 0.31097 0.49836 0.68584 0.0
C1632 C 0.30699 0.48452 0.70378 0.0
H1633 H 0.41812 0.53332 0.6159 0.0
H1634 H 0.39069 0.51879 0.643 0.0
C1635 C 0.29217 0.47903 0.72046 0.0
C1636 C 0.32778 0.50583 0.66989 0.0
H1637 H 0.35006 0.49433 0.62574 0.0
C1638 C 0.34052 0.52487 0.67117 0.0
C1639 C 0.33123 0.49463 0.65332 0.0
C1640 C 0.31778 0.47423 0.6504 0.0
C1641 C 0.35652 0.53302 0.6563 0.0
C1642 C 0.35986 0.52187 0.63965 0.0
C1643 C 0.34737 0.5028 0.63859 0.0
C1644 C 0.37608 0.53 0.62274 0.0
C1645 C 0.36981 0.55352 0.6585 0.0
C1646 C 0.37677 0.54093 0.60231 0.0
C1647 C 0.39233 0.54916 0.58677 0.0
C1648 C 0.40749 0.54666 0.59149 0.0
C1649 C 0.40667 0.53554 0.61185 0.0
C1650 C 0.39103 0.52719 0.62729 0.0
H1651 H 0.36692 0.55959 0.67526 0.0
H1652 H 0.38427 0.55633 0.6596 0.0
H1653 H 0.36865 0.56058 0.64152 0.0
H1654 H 0.3653 0.54316 0.59849 0.0
H1655 H 0.39254 0.55762 0.57121 0.0
H1656 H 0.53637 0.81024 0.71334 0.0
H1657 H 0.52723 0.82564 0.68179 0.0
H1658 H 0.47041 0.79283 0.70547 0.0
H1659 H 0.47926 0.77701 0.73594 0.0
H1660 H 0.47207 0.79314 0.65681 0.0
H1661 H 0.51427 0.86534 0.69074 0.0
H1662 H 0.5276 0.85464 0.68256 0.0
H1663 H 0.51172 0.84584 0.70855 0.0
C1664 C 0.52196 0.80641 0.7118 0.0
C1665 C 0.50854 0.79235 0.72705 0.0
C1666 C 0.51676 0.8153 0.69389 0.0
C1667 C 0.49813 0.81057 0.69141 0.0
C1668 C 0.48484 0.7967 0.70689 0.0
H1669 H 0.45044 0.87128 0.6256 0.0
H1670 H 0.46459 0.85782 0.65212 0.0
C1671 C 0.48995 0.78764 0.72435 0.0
C1672 C 0.49204 0.81947 0.67238 0.0
H1673 H 0.49716 0.86084 0.65345 0.0
C1674 C 0.47758 0.80796 0.65607 0.0
C1675 C 0.49911 0.83879 0.67153 0.0
C1676 C 0.5139 0.85188 0.68942 0.0
C1677 C 0.46963 0.8151 0.63952 0.0
C1678 C 0.47688 0.83445 0.63836 0.0
C1679 C 0.49166 0.84603 0.65422 0.0
C1680 C 0.46869 0.84288 0.62187 0.0
C1681 C 0.45296 0.80166 0.62442 0.0
C1682 C 0.46641 0.83916 0.59595 0.0
C1683 C 0.45786 0.84645 0.58091 0.0
C1684 C 0.45199 0.85808 0.59135 0.0
C1685 C 0.45482 0.86232 0.61707 0.0
C1686 C 0.46297 0.85469 0.63221 0.0
H1687 H 0.44597 0.78764 0.63295 0.0
H1688 H 0.44273 0.8064 0.62283 0.0
H1689 H 0.45745 0.80043 0.60525 0.0
H1690 H 0.47123 0.83061 0.58732 0.0
H1691 H 0.45609 0.8432 0.56104 0.0
H1692 H 0.27349 0.49945 0.25788 0.0
H1693 H 0.30071 0.51121 0.23074 0.0
H1694 H 0.27678 0.45847 0.1931 0.0
H1695 H 0.24927 0.44686 0.21959 0.0
H1696 H 0.32578 0.50017 0.22436 0.0
H1697 H 0.2892 0.49282 0.13428 0.0
H1698 H 0.27831 0.49046 0.16437 0.0
H1699 H 0.28034 0.47162 0.15153 0.0
C1700 C 0.274 0.4904 0.24374 0.0
C1701 C 0.25919 0.4723 0.24069 0.0
C1702 C 0.28958 0.49711 0.22828 0.0
C1703 C 0.29067 0.48583 0.20957 0.0
C1704 C 0.27606 0.46759 0.20692 0.0
H1705 H 0.37764 0.51124 0.09811 0.0
H1706 H 0.35236 0.49431 0.12814 0.0
C1707 C 0.26038 0.46094 0.22217 0.0
C1708 C 0.30715 0.4932 0.19299 0.0
H1709 H 0.32088 0.50189 0.13162 0.0
C1710 C 0.32469 0.50052 0.20409 0.0
C1711 C 0.30573 0.49362 0.1665 0.0
C1712 C 0.28741 0.48688 0.15344 0.0
C1713 C 0.34084 0.50838 0.18944 0.0
C1714 C 0.33938 0.50894 0.16306 0.0
C1715 C 0.32188 0.50126 0.15188 0.0
C1716 C 0.35587 0.51885 0.14682 0.0
C1717 C 0.35937 0.51616 0.20221 0.0
C1718 C 0.36624 0.53819 0.14761 0.0
C1719 C 0.3805 0.54788 0.13041 0.0
C1720 C 0.38474 0.53839 0.11214 0.0
C1721 C 0.37479 0.51894 0.11204 0.0
C1722 C 0.36033 0.50926 0.1291 0.0
H1723 H 0.35801 0.5111 0.22183 0.0
H1724 H 0.36853 0.51248 0.19161 0.0
H1725 H 0.36612 0.53146 0.20269 0.0
H1726 H 0.36286 0.54584 0.16098 0.0
H1727 H 0.38793 0.56284 0.13106 0.0
H1728 H 0.50132 0.77376 0.25636 0.0
H1729 H 0.48983 0.78971 0.22971 0.0
H1730 H 0.54285 0.81901 0.19287 0.0
H1731 H 0.55422 0.80266 0.21888 0.0
H1732 H 0.50122 0.82613 0.22443 0.0
H1733 H 0.5087 0.79787 0.13353 0.0
H1734 H 0.51078 0.78886 0.16338 0.0
H1735 H 0.52979 0.80984 0.15112 0.0
C1736 C 0.5105 0.78354 0.2425 0.0
C1737 C 0.52861 0.78684 0.23954 0.0
C1738 C 0.50393 0.79268 0.22733 0.0
C1739 C 0.51537 0.80534 0.209 0.0
C1740 C 0.53361 0.80896 0.20642 0.0
H1741 H 0.48987 0.86718 0.09813 0.0
H1742 H 0.50698 0.8589 0.12794 0.0
C1743 C 0.54012 0.79967 0.22139 0.0
C1744 C 0.50815 0.81473 0.19271 0.0
H1745 H 0.49956 0.82042 0.13156 0.0
C1746 C 0.5009 0.82491 0.20412 0.0
C1747 C 0.50778 0.81318 0.16618 0.0
C1748 C 0.51451 0.80171 0.1528 0.0
C1749 C 0.49312 0.8334 0.18975 0.0
C1750 C 0.49253 0.83161 0.16333 0.0
C1751 C 0.50019 0.82187 0.15185 0.0
C1752 C 0.48258 0.83829 0.14735 0.0
C1753 C 0.48544 0.84412 0.20288 0.0
C1754 C 0.46326 0.82956 0.14863 0.0
C1755 C 0.45347 0.8341 0.13156 0.0
C1756 C 0.46283 0.84754 0.11291 0.0
C1757 C 0.48227 0.85685 0.11235 0.0
C1758 C 0.49205 0.85211 0.12929 0.0
H1759 H 0.49082 0.84793 0.22235 0.0
H1760 H 0.48886 0.8569 0.1923 0.0
H1761 H 0.47016 0.83548 0.20386 0.0
H1762 H 0.45569 0.81869 0.16223 0.0
H1763 H 0.43851 0.82672 0.13256 0.0
H1764 H 0.2258 0.72817 0.25653 0.0
H1765 H 0.20998 0.70083 0.22966 0.0
H1766 H 0.18295 0.72587 0.19019 0.0
H1767 H 0.19916 0.75346 0.21648 0.0
H1768 H 0.17344 0.67661 0.22282 0.0
H1769 H 0.20489 0.71186 0.13269 0.0
H1770 H 0.21335 0.72284 0.16275 0.0
H1771 H 0.19301 0.72156 0.14921 0.0
C1772 C 0.21655 0.72788 0.24205 0.0
C1773 C 0.21384 0.74301 0.23846 0.0
C1774 C 0.20748 0.71223 0.22675 0.0
C1775 C 0.1955 0.7114 0.20763 0.0
C1776 C 0.19248 0.72636 0.20438 0.0
H1777 H 0.13367 0.62332 0.09726 0.0
H1778 H 0.14215 0.64922 0.12629 0.0
C1779 C 0.20168 0.74209 0.21952 0.0
C1780 C 0.18615 0.69481 0.19128 0.0
H1781 H 0.1818 0.68035 0.13031 0.0
C1782 C 0.17523 0.67745 0.20259 0.0
C1783 C 0.18845 0.69591 0.16484 0.0
C1784 C 0.20069 0.714 0.15163 0.0
C1785 C 0.16677 0.66117 0.18823 0.0
C1786 C 0.16931 0.66229 0.16193 0.0
C1787 C 0.17978 0.67962 0.1505 0.0
C1788 C 0.16268 0.64555 0.14617 0.0
C1789 C 0.1553 0.64285 0.20123 0.0
C1790 C 0.17132 0.63491 0.14795 0.0
C1791 C 0.16667 0.6203 0.13133 0.0
C1792 C 0.15319 0.61598 0.11265 0.0
C1793 C 0.14401 0.62623 0.11154 0.0
C1794 C 0.14887 0.64104 0.12802 0.0
H1795 H 0.15139 0.64457 0.22057 0.0
H1796 H 0.14254 0.63391 0.19034 0.0
H1797 H 0.16339 0.63563 0.20248 0.0
H1798 H 0.18213 0.63831 0.16168 0.0
H1799 H 0.17395 0.61265 0.13274 0.0
H1800 H 0.15188 0.20637 0.32873 0.0
H1801 H 0.1667 0.19886 0.2945 0.0
H1802 H 0.11829 0.14489 0.28766 0.0
H1803 H 0.10335 0.15221 0.3214 0.0
H1804 H 0.17429 0.1692 0.29245 0.0
H1805 H 0.12759 0.16441 0.2154 0.0
H1806 H 0.12888 0.17568 0.2449 0.0
H1807 H 0.11529 0.15092 0.24231 0.0
C1808 C 0.1443 0.19298 0.31975 0.0
C1809 C 0.12635 0.17994 0.32781 0.0
C1810 C 0.15283 0.1887 0.30026 0.0
C1811 C 0.1435 0.17141 0.28834 0.0
C1812 C 0.12561 0.15845 0.29627 0.0
H1813 H 0.1544 0.10073 0.18512 0.0
H1814 H 0.14709 0.11638 0.21793 0.0
C1815 C 0.11711 0.16266 0.3157 0.0
C1816 C 0.15245 0.16642 0.26813 0.0
H1817 H 0.14543 0.14953 0.20831 0.0
C1818 C 0.16822 0.1652 0.27388 0.0
C1819 C 0.14454 0.16132 0.2439 0.0
C1820 C 0.12825 0.16332 0.23614 0.0
C1821 C 0.17561 0.15795 0.25648 0.0
C1822 C 0.16707 0.15194 0.23275 0.0
C1823 C 0.15184 0.15398 0.22663 0.0
C1824 C 0.17275 0.1423 0.21452 0.0
C1825 C 0.19192 0.15592 0.26394 0.0
C1826 C 0.1898 0.15161 0.20199 0.0
C1827 C 0.19409 0.14266 0.18309 0.0
C1828 C 0.18132 0.12429 0.17633 0.0
C1829 C 0.16455 0.11489 0.18965 0.0
C1830 C 0.16031 0.12381 0.20844 0.0
H1831 H 0.19527 0.15876 0.28423 0.0
H1832 H 0.18915 0.14175 0.25967 0.0
H1833 H 0.20422 0.16577 0.25292 0.0
H1834 H 0.1995 0.16596 0.20622 0.0
H1835 H 0.20709 0.15036 0.17319 0.0
H1836 H 0.79276 0.94585 0.32736 0.0
H1837 H 0.79996 0.96804 0.29302 0.0
H1838 H 0.85468 0.97529 0.28733 0.0
H1839 H 0.84768 0.95317 0.32111 0.0
H1840 H 0.8286 0.00552 0.291 0.0
H1841 H 0.83613 0.96467 0.21485 0.0
H1842 H 0.82479 0.95445 0.24422 0.0
H1843 H 0.84961 0.96639 0.24202 0.0
C1844 C 0.80626 0.952 0.3186 0.0
C1845 C 0.81959 0.9476 0.32699 0.0
C1846 C 0.81035 0.96473 0.29905 0.0
C1847 C 0.82776 0.97311 0.2874 0.0
C1848 C 0.84103 0.96871 0.29569 0.0
H1849 H 0.89885 0.05616 0.18675 0.0
H1850 H 0.88298 0.03324 0.21953 0.0
C1851 C 0.83699 0.95607 0.31515 0.0
C1852 C 0.83257 0.98696 0.26713 0.0
H1853 H 0.85046 0.9974 0.20786 0.0
C1854 C 0.83306 0.00366 0.27263 0.0
C1855 C 0.83825 0.98444 0.24314 0.0
C1856 C 0.837 0.96644 0.23558 0.0
C1857 C 0.84019 0.01832 0.25526 0.0
C1858 C 0.84686 0.01611 0.23187 0.0
C1859 C 0.8455 0.99911 0.22594 0.0
C1860 C 0.85655 0.03156 0.21387 0.0
C1861 C 0.84142 0.03637 0.2624 0.0
C1862 C 0.84701 0.03851 0.20014 0.0
C1863 C 0.85607 0.05171 0.18124 0.0
C1864 C 0.8748 0.05806 0.1757 0.0
C1865 C 0.88442 0.05155 0.19031 0.0
C1866 C 0.87537 0.03842 0.2091 0.0
H1867 H 0.83765 0.03656 0.28237 0.0
H1868 H 0.85565 0.04802 0.25915 0.0
H1869 H 0.83191 0.03867 0.25038 0.0
H1870 H 0.83242 0.03324 0.20341 0.0
H1871 H 0.84821 0.05635 0.17034 0.0
H1872 H 0.95051 0.84885 0.17898 0.0
H1873 H 0.97271 0.85618 0.21287 0.0
H1874 H 0.96908 0.80319 0.2038 0.0
H1875 H 0.94684 0.79568 0.16948 0.0
H1876 H 0.96872 0.83677 0.25855 0.0
H1877 H 0.02524 0.84094 0.19834 0.0
H1878 H 0.00549 0.84136 0.18537 0.0
H1879 H 0.00318 0.82005 0.19655 0.0
C1880 C 0.95433 0.83866 0.18414 0.0
C1881 C 0.94692 0.82169 0.17131 0.0
C1882 C 0.96704 0.8429 0.20358 0.0
C1883 C 0.97274 0.83035 0.2106 0.0
C1884 C 0.96508 0.81319 0.19837 0.0
H1885 H 0.05808 0.85247 0.32468 0.0
H1886 H 0.03447 0.83688 0.29211 0.0
C1887 C 0.95227 0.80889 0.17888 0.0
C1888 C 0.98676 0.83553 0.23072 0.0
H1889 H 0.03198 0.84828 0.24116 0.0
C1890 C 0.98249 0.83911 0.25482 0.0
C1891 C 0.00469 0.83846 0.22582 0.0
C1892 C 0.01008 0.83514 0.20012 0.0
C1893 C 0.99581 0.84603 0.27397 0.0
C1894 C 0.01397 0.84979 0.26876 0.0
C1895 C 0.01806 0.84545 0.24501 0.0
C1896 C 0.02912 0.85947 0.28722 0.0
C1897 C 0.99039 0.8495 0.29957 0.0
C1898 C 0.03432 0.87754 0.2946 0.0
C1899 C 0.04778 0.8865 0.31305 0.0
C1900 C 0.05641 0.8776 0.32454 0.0
C1901 C 0.05171 0.85974 0.31632 0.0
C1902 C 0.0382 0.85077 0.29775 0.0
H1903 H 0.97521 0.84122 0.30255 0.0
H1904 H 0.99742 0.84617 0.3147 0.0
H1905 H 0.99457 0.86433 0.30121 0.0
H1906 H 0.02774 0.88464 0.28632 0.0
H1907 H 0.0511 0.90028 0.31866 0.0
H1908 H 0.89863 0.84708 0.67846 0.0
H1909 H 0.88382 0.85363 0.71316 0.0
H1910 H 0.8349 0.80033 0.70378 0.0
H1911 H 0.84959 0.7936 0.66857 0.0
H1912 H 0.82785 0.83009 0.70736 0.0
H1913 H 0.87346 0.83263 0.7845 0.0
H1914 H 0.88623 0.84668 0.75822 0.0
H1915 H 0.87241 0.82201 0.75452 0.0
C1916 C 0.88478 0.8366 0.68383 0.0
C1917 C 0.87534 0.81977 0.67066 0.0
C1918 C 0.87637 0.84036 0.70382 0.0
C1919 C 0.85836 0.82738 0.71128 0.0
C1920 C 0.84887 0.81049 0.69841 0.0
H1921 H 0.79478 0.84902 0.82615 0.0
H1922 H 0.80231 0.83302 0.79361 0.0
C1923 C 0.85732 0.80665 0.67836 0.0
C1924 C 0.84935 0.8321 0.73174 0.0
H1925 H 0.85618 0.84812 0.79202 0.0
C1926 C 0.83379 0.83369 0.72605 0.0
C1927 C 0.85707 0.8367 0.75612 0.0
C1928 C 0.8731 0.83424 0.76381 0.0
C1929 C 0.82648 0.84091 0.74364 0.0
C1930 C 0.8349 0.84648 0.76752 0.0
C1931 C 0.84986 0.844 0.7736 0.0
C1932 C 0.82944 0.85627 0.78585 0.0
C1933 C 0.81046 0.84342 0.73619 0.0
C1934 C 0.84214 0.87464 0.79212 0.0
C1935 C 0.83794 0.8838 0.81062 0.0
C1936 C 0.82093 0.87475 0.82344 0.0
C1937 C 0.80797 0.85645 0.81661 0.0
C1938 C 0.81223 0.84728 0.798 0.0
H1939 H 0.80723 0.84088 0.71584 0.0
H1940 H 0.798 0.8336 0.74697 0.0
H1941 H 0.81348 0.85763 0.74078 0.0
H1942 H 0.8555 0.88183 0.78293 0.0
H1943 H 0.84827 0.89787 0.81524 0.0
H1944 H 0.15325 0.04618 0.67605 0.0
H1945 H 0.14672 0.02244 0.70735 0.0
H1946 H 0.20282 0.03345 0.70222 0.0
H1947 H 0.20964 0.05742 0.67061 0.0
H1948 H 0.15236 0.99037 0.69777 0.0
H1949 H 0.19129 0.03387 0.77997 0.0
H1950 H 0.18389 0.04296 0.75451 0.0
H1951 H 0.20259 0.03857 0.74982 0.0
C1952 C 0.16434 0.04379 0.68165 0.0
C1953 C 0.182 0.05376 0.67067 0.0
C1954 C 0.16053 0.03014 0.69955 0.0
C1955 C 0.17427 0.02622 0.70707 0.0
C1956 C 0.19206 0.03639 0.69675 0.0
H1957 H 0.15445 0.94578 0.82742 0.0
H1958 H 0.17024 0.96743 0.7928 0.0
C1959 C 0.19591 0.05007 0.67869 0.0
C1960 C 0.16947 0.01092 0.72498 0.0
H1961 H 0.17263 0.00192 0.78678 0.0
C1962 C 0.15699 0.99283 0.71716 0.0
C1963 C 0.17571 0.01419 0.75014 0.0
C1964 C 0.18907 0.03342 0.75934 0.0
C1965 C 0.14996 0.97799 0.7341 0.0
C1966 C 0.15526 0.98141 0.75965 0.0
C1967 C 0.16855 0.99935 0.76719 0.0
C1968 C 0.14567 0.96709 0.77923 0.0
C1969 C 0.13663 0.95884 0.72459 0.0
C1970 C 0.12663 0.95968 0.78299 0.0
C1971 C 0.1176 0.94739 0.80266 0.0
C1972 C 0.12742 0.94226 0.81917 0.0
C1973 C 0.14644 0.94933 0.81499 0.0
C1974 C 0.15551 0.96176 0.79528 0.0
H1975 H 0.1388 0.95749 0.70427 0.0
H1976 H 0.13807 0.94815 0.73514 0.0
H1977 H 0.12228 0.9561 0.72698 0.0
H1978 H 0.11883 0.96388 0.77115 0.0
H1979 H 0.10297 0.94227 0.80527 0.0
H1980 H 0.95194 0.1035 0.67879 0.0
H1981 H 0.97492 0.11879 0.71165 0.0
H1982 H 0.97012 0.16758 0.70387 0.0
H1983 H 0.94685 0.15231 0.67085 0.0
H1984 H 0.00905 0.15236 0.70434 0.0
H1985 H 0.96674 0.15814 0.78091 0.0
H1986 H 0.95646 0.14219 0.75505 0.0
H1987 H 0.96522 0.16642 0.75029 0.0
C1988 C 0.95554 0.11741 0.68415 0.0
C1989 C 0.94753 0.12667 0.67202 0.0
C1990 C 0.96874 0.12614 0.70297 0.0
C1991 C 0.97419 0.14428 0.71024 0.0
C1992 C 0.96593 0.15348 0.69874 0.0
H1993 H 0.05668 0.20603 0.82808 0.0
H1994 H 0.03509 0.19925 0.79308 0.0
C1995 C 0.95266 0.14473 0.67983 0.0
C1996 C 0.98926 0.15366 0.7289 0.0
H1997 H 0.99823 0.16925 0.78946 0.0
C1998 C 0.00674 0.15621 0.72288 0.0
C1999 C 0.98624 0.15887 0.75295 0.0
C2000 C 0.96765 0.15621 0.7604 0.0
C2001 C 0.02113 0.16327 0.74052 0.0
C2002 C 0.01787 0.16758 0.76499 0.0
C2003 C 0.00066 0.16587 0.77069 0.0
C2004 C 0.03155 0.17223 0.78546 0.0
C2005 C 0.03966 0.1658 0.73288 0.0
C2006 C 0.03664 0.15927 0.79279 0.0
C2007 C 0.04892 0.16307 0.81267 0.0
C2008 C 0.05634 0.1799 0.82583 0.0
C2009 C 0.05133 0.19297 0.8183 0.0
C2010 C 0.03895 0.18911 0.79837 0.0
H2011 H 0.04169 0.1675 0.71221 0.0
H2012 H 0.05115 0.17801 0.74228 0.0
H2013 H 0.04037 0.15336 0.73841 0.0
H2014 H 0.03083 0.14602 0.78341 0.0
H2015 H 0.05235 0.15262 0.81792 0.0
H2016 H 0.81728 0.54097 0.66206 0.0
H2017 H 0.83314 0.53361 0.62916 0.0
H2018 H 0.78469 0.48001 0.61944 0.0
H2019 H 0.76877 0.48708 0.65213 0.0
H2020 H 0.81893 0.48012 0.6284 0.0
H2021 H 0.82455 0.52785 0.55137 0.0
H2022 H 0.83179 0.53739 0.58237 0.0
H2023 H 0.80783 0.52143 0.5764 0.0
C2024 C 0.80988 0.52772 0.65266 0.0
C2025 C 0.79174 0.51459 0.6599 0.0
C2026 C 0.81898 0.52356 0.63383 0.0
C2027 C 0.81006 0.50628 0.62185 0.0
C2028 C 0.79181 0.49342 0.62849 0.0
H2029 H 0.82076 0.437 0.51602 0.0
H2030 H 0.8137 0.45189 0.55005 0.0
C2031 C 0.78273 0.49753 0.64721 0.0
C2032 C 0.81988 0.50089 0.60351 0.0
H2033 H 0.83593 0.50765 0.54318 0.0
C2034 C 0.82282 0.48626 0.60985 0.0
C2035 C 0.82514 0.50909 0.57947 0.0
C2036 C 0.82214 0.52476 0.57177 0.0
C2037 C 0.83031 0.47916 0.59249 0.0
C2038 C 0.83463 0.48665 0.56796 0.0
C2039 C 0.83254 0.50189 0.56198 0.0
C2040 C 0.83959 0.47771 0.54771 0.0
C2041 C 0.83328 0.46352 0.60049 0.0
C2042 C 0.85643 0.48737 0.53475 0.0
C2043 C 0.86056 0.47886 0.51506 0.0
C2044 C 0.84779 0.4606 0.50783 0.0
C2045 C 0.83099 0.45102 0.52104 0.0
C2046 C 0.82694 0.45949 0.54066 0.0
H2047 H 0.83502 0.46342 0.62118 0.0
H2048 H 0.82101 0.45017 0.59514 0.0
H2049 H 0.84562 0.46444 0.59119 0.0
H2050 H 0.86634 0.5015 0.53982 0.0
H2051 H 0.87357 0.48671 0.50523 0.0
H2052 H 0.51337 0.28111 0.64927 0.0
H2053 H 0.51954 0.30289 0.61517 0.0
H2054 H 0.4673 0.30006 0.62861 0.0
H2055 H 0.46095 0.27821 0.66311 0.0
H2056 H 0.49807 0.29865 0.57097 0.0
H2057 H 0.50627 0.35623 0.63258 0.0
H2058 H 0.50701 0.33646 0.64483 0.0
H2059 H 0.48535 0.33429 0.63569 0.0
C2060 C 0.5031 0.28499 0.64501 0.0
C2061 C 0.4867 0.27794 0.65911 0.0
C2062 C 0.50666 0.29746 0.62545 0.0
C2063 C 0.49401 0.30328 0.6196 0.0
C2064 C 0.47738 0.29595 0.63309 0.0
H2065 H 0.51644 0.38955 0.50637 0.0
H2066 H 0.50042 0.36592 0.53883 0.0
C2067 C 0.47373 0.28336 0.65268 0.0
C2068 C 0.49861 0.31719 0.59948 0.0
H2069 H 0.51264 0.36277 0.58957 0.0
C2070 C 0.50102 0.3126 0.57496 0.0
C2071 C 0.50235 0.33535 0.60473 0.0
C2072 C 0.50025 0.34104 0.63088 0.0
C2073 C 0.50769 0.32586 0.55573 0.0
C2074 C 0.51237 0.34425 0.56127 0.0
C2075 C 0.5091 0.34866 0.58546 0.0
C2076 C 0.52224 0.35931 0.54276 0.0
C2077 C 0.51004 0.32016 0.52971 0.0
C2078 C 0.54001 0.36379 0.53487 0.0
C2079 C 0.5492 0.37725 0.51653 0.0
C2080 C 0.54085 0.38663 0.50562 0.0
C2081 C 0.52328 0.3826 0.51428 0.0
C2082 C 0.51408 0.36908 0.53278 0.0
H2083 H 0.50115 0.30502 0.52682 0.0
H2084 H 0.50668 0.32751 0.5151 0.0
H2085 H 0.52464 0.32373 0.52711 0.0
H2086 H 0.54669 0.35665 0.54271 0.0
H2087 H 0.56275 0.38001 0.51057 0.0
H2088 H 0.61117 0.12726 0.50569 0.0
H2089 H 0.63481 0.13521 0.53813 0.0
H2090 H 0.64197 0.18989 0.54371 0.0
H2091 H 0.61861 0.18225 0.51139 0.0
H2092 H 0.67529 0.18881 0.5365 0.0
H2093 H 0.6326 0.14318 0.61481 0.0
H2094 H 0.63037 0.13254 0.58464 0.0
H2095 H 0.62254 0.14883 0.58867 0.0
C2096 C 0.61758 0.1409 0.51406 0.0
C2097 C 0.61297 0.15412 0.50581 0.0
C2098 C 0.63107 0.14539 0.53264 0.0
C2099 C 0.64008 0.16311 0.54338 0.0
C2100 C 0.6352 0.17614 0.53563 0.0
H2101 H 0.72047 0.23291 0.64875 0.0
H2102 H 0.69873 0.21809 0.61443 0.0
C2103 C 0.62178 0.1717 0.51714 0.0
C2104 C 0.65526 0.16864 0.56182 0.0
H2105 H 0.66437 0.16263 0.62257 0.0
C2106 C 0.67294 0.18297 0.55525 0.0
C2107 C 0.65221 0.16085 0.58615 0.0
C2108 C 0.6334 0.14557 0.5942 0.0
C2109 C 0.68753 0.19015 0.57261 0.0
C2110 C 0.68426 0.18302 0.59734 0.0
C2111 C 0.66681 0.16809 0.6036 0.0
C2112 C 0.69822 0.19202 0.61751 0.0
C2113 C 0.70627 0.20547 0.56439 0.0
C2114 C 0.70504 0.18221 0.63092 0.0
C2115 C 0.71754 0.19067 0.65074 0.0
C2116 C 0.72325 0.20903 0.65768 0.0
C2117 C 0.71647 0.2188 0.64397 0.0
C2118 C 0.70408 0.21037 0.62419 0.0
H2119 H 0.70806 0.20528 0.54372 0.0
H2120 H 0.70761 0.21899 0.56938 0.0
H2121 H 0.71755 0.20441 0.57385 0.0
H2122 H 0.70058 0.16798 0.62615 0.0
H2123 H 0.72238 0.1827 0.66096 0.0
H2124 H 0.51634 0.12792 0.00408 0.0
H2125 H 0.50053 0.13597 0.03631 0.0
H2126 H 0.55086 0.18727 0.05021 0.0
H2127 H 0.56674 0.17951 0.01828 0.0
H2128 H 0.50986 0.1466 0.08952 0.0
H2129 H 0.51182 0.20236 0.03079 0.0
H2130 H 0.51518 0.18423 0.01796 0.0
H2131 H 0.53381 0.20358 0.03384 0.0
C2132 C 0.52411 0.14082 0.01419 0.0
C2133 C 0.54279 0.15314 0.00833 0.0
C2134 C 0.51503 0.1454 0.03256 0.0
C2135 C 0.52445 0.16237 0.04522 0.0
C2136 C 0.54326 0.17426 0.04027 0.0
H2137 H 0.51623 0.23031 0.15533 0.0
H2138 H 0.523 0.21514 0.1213 0.0
C2139 C 0.55232 0.16973 0.02203 0.0
C2140 C 0.51478 0.16815 0.06324 0.0
H2141 H 0.50539 0.20286 0.07443 0.0
C2142 C 0.50856 0.1587 0.08614 0.0
C2143 C 0.51301 0.18387 0.05863 0.0
C2144 C 0.51864 0.19402 0.03388 0.0
C2145 C 0.50166 0.16528 0.10521 0.0
C2146 C 0.50076 0.18155 0.10102 0.0
C2147 C 0.50617 0.19044 0.07765 0.0
C2148 C 0.49596 0.19059 0.12131 0.0
C2149 C 0.49633 0.15536 0.13014 0.0
C2150 C 0.47833 0.18196 0.13235 0.0
C2151 C 0.47435 0.19063 0.15196 0.0
C2152 C 0.48794 0.20812 0.1608 0.0
C2153 C 0.50541 0.21685 0.14917 0.0
C2154 C 0.50934 0.20819 0.12964 0.0
H2155 H 0.50079 0.14491 0.13175 0.0
H2156 H 0.5025 0.16537 0.14586 0.0
H2157 H 0.48108 0.14817 0.13225 0.0
H2158 H 0.4677 0.1685 0.12588 0.0
H2159 H 0.46074 0.18351 0.1604 0.0
H2160 H 0.82054 0.38647 0.02107 0.0
H2161 H 0.81355 0.36349 0.05373 0.0
H2162 H 0.86566 0.36603 0.04041 0.0
H2163 H 0.87291 0.3892 0.00742 0.0
H2164 H 0.81243 0.32829 0.04268 0.0
H2165 H 0.86135 0.36926 0.11935 0.0
H2166 H 0.85444 0.37999 0.0955 0.0
H2167 H 0.87008 0.37193 0.08775 0.0
C2168 C 0.8307 0.3824 0.0252 0.0
C2169 C 0.84727 0.38966 0.01142 0.0
C2170 C 0.82664 0.36923 0.04391 0.0
C2171 C 0.83907 0.36307 0.04945 0.0
C2172 C 0.85595 0.37073 0.03652 0.0
H2173 H 0.81803 0.27894 0.16494 0.0
H2174 H 0.83302 0.30093 0.13041 0.0
C2175 C 0.86005 0.38396 0.01767 0.0
C2176 C 0.83352 0.34772 0.06756 0.0
H2177 H 0.84011 0.33797 0.1277 0.0
C2178 C 0.81861 0.33033 0.06118 0.0
C2179 C 0.84177 0.3504 0.09152 0.0
C2180 C 0.85777 0.36889 0.09918 0.0
C2181 C 0.81127 0.3157 0.07845 0.0
C2182 C 0.8188 0.31865 0.10293 0.0
C2183 C 0.83432 0.33577 0.10894 0.0
C2184 C 0.80967 0.30474 0.12312 0.0
C2185 C 0.79531 0.29727 0.07044 0.0
C2186 C 0.79163 0.29966 0.13048 0.0
C2187 C 0.78304 0.28716 0.1501 0.0
C2188 C 0.79233 0.27948 0.16295 0.0
C2189 C 0.8104 0.28447 0.15537 0.0
C2190 C 0.81903 0.29709 0.13572 0.0
H2191 H 0.79503 0.2955 0.04973 0.0
H2192 H 0.79602 0.28567 0.07952 0.0
H2193 H 0.78214 0.29648 0.07607 0.0
H2194 H 0.78427 0.30566 0.12132 0.0
H2195 H 0.76917 0.28374 0.1554 0.0
H2196 H 0.61132 0.48388 0.00629 0.0
H2197 H 0.6351 0.50005 0.03851 0.0
H2198 H 0.64159 0.45227 0.04652 0.0
H2199 H 0.61806 0.43605 0.01461 0.0
H2200 H 0.63763 0.48912 0.09031 0.0
H2201 H 0.69417 0.49561 0.0289 0.0
H2202 H 0.67197 0.4907 0.01679 0.0
H2203 H 0.67473 0.47256 0.0305 0.0
C2204 C 0.61768 0.47674 0.01507 0.0
C2205 C 0.61285 0.45869 0.00761 0.0
C2206 C 0.63129 0.48603 0.03344 0.0
C2207 C 0.64033 0.47747 0.04449 0.0
C2208 C 0.63502 0.45925 0.03784 0.0
H2209 H 0.71856 0.48776 0.1525 0.0
H2210 H 0.69652 0.48075 0.11848 0.0
C2211 C 0.62147 0.44997 0.01962 0.0
C2212 C 0.65556 0.48742 0.06275 0.0
H2213 H 0.70077 0.50028 0.07288 0.0
C2214 C 0.65154 0.4919 0.08644 0.0
C2215 C 0.67368 0.4911 0.05751 0.0
C2216 C 0.679 0.48742 0.03196 0.0
C2217 C 0.66494 0.49892 0.10559 0.0
C2218 C 0.68282 0.50172 0.10069 0.0
C2219 C 0.68703 0.49805 0.07661 0.0
C2220 C 0.6968 0.50673 0.12084 0.0
C2221 C 0.65961 0.50234 0.13128 0.0
C2222 C 0.70457 0.52386 0.13315 0.0
C2223 C 0.71729 0.52798 0.15271 0.0
C2224 C 0.72242 0.51501 0.16028 0.0
C2225 C 0.71491 0.49807 0.14735 0.0
C2226 C 0.7023 0.49402 0.12784 0.0
H2227 H 0.64447 0.4967 0.13304 0.0
H2228 H 0.66409 0.49602 0.14605 0.0
H2229 H 0.66666 0.51744 0.13483 0.0
H2230 H 0.70073 0.53399 0.12774 0.0
H2231 H 0.7228 0.54117 0.16219 0.0
H2232 H 0.48469 0.87268 0.99363 0.0
H2233 H 0.49947 0.86514 0.95939 0.0
H2234 H 0.45193 0.81041 0.95464 0.0
H2235 H 0.43701 0.81776 0.98837 0.0
H2236 H 0.50823 0.83644 0.95794 0.0
H2237 H 0.45961 0.82831 0.8818 0.0
H2238 H 0.46086 0.83993 0.91097 0.0
H2239 H 0.44799 0.81509 0.90921 0.0
C2240 C 0.47728 0.85911 0.98511 0.0
C2241 C 0.45959 0.84587 0.99375 0.0
C2242 C 0.4858 0.85482 0.96561 0.0
C2243 C 0.47669 0.83731 0.95425 0.0
C2244 C 0.45906 0.82414 0.96278 0.0
H2245 H 0.48899 0.76612 0.85365 0.0
H2246 H 0.48151 0.78194 0.88602 0.0
C2247 C 0.45057 0.82837 0.98221 0.0
C2248 C 0.48566 0.83231 0.93407 0.0
H2249 H 0.47818 0.81418 0.87493 0.0
C2250 C 0.50189 0.83188 0.93961 0.0
C2251 C 0.47741 0.82648 0.91014 0.0
C2252 C 0.46061 0.82764 0.90255 0.0
C2253 C 0.50943 0.8247 0.92232 0.0
C2254 C 0.50056 0.81796 0.89894 0.0
C2255 C 0.48485 0.81921 0.893 0.0
C2256 C 0.50642 0.80832 0.88097 0.0
C2257 C 0.52627 0.82354 0.92956 0.0
C2258 C 0.52312 0.81786 0.86768 0.0
C2259 C 0.5275 0.80882 0.84902 0.0
C2260 C 0.51518 0.79011 0.84329 0.0
C2261 C 0.49879 0.78052 0.85739 0.0
C2262 C 0.49446 0.78954 0.87593 0.0
H2263 H 0.53001 0.82705 0.94965 0.0
H2264 H 0.52389 0.80942 0.92597 0.0
H2265 H 0.53817 0.83332 0.91787 0.0
H2266 H 0.53245 0.83242 0.87112 0.0
H2267 H 0.5402 0.81666 0.8385 0.0
H2268 H 0.18386 0.72189 0.83979 0.0
H2269 H 0.16775 0.69836 0.87224 0.0
H2270 H 0.215 0.69086 0.87916 0.0
H2271 H 0.23113 0.71411 0.84686 0.0
H2272 H 0.18048 0.65762 0.87158 0.0
H2273 H 0.17732 0.70073 0.94918 0.0
H2274 H 0.16926 0.70296 0.91873 0.0
H2275 H 0.19331 0.71064 0.92329 0.0
C2276 C 0.19094 0.71543 0.84846 0.0
C2277 C 0.20882 0.71992 0.8406 0.0
C2278 C 0.1817 0.702 0.86703 0.0
C2279 C 0.19022 0.69293 0.87814 0.0
C2280 C 0.20818 0.69769 0.87079 0.0
H2281 H 0.17928 0.61332 0.98472 0.0
H2282 H 0.18618 0.6348 0.95004 0.0
C2283 C 0.21739 0.71105 0.85231 0.0
C2284 C 0.18034 0.67781 0.8966 0.0
H2285 H 0.16498 0.66901 0.95726 0.0
C2286 C 0.17692 0.66007 0.89024 0.0
C2287 C 0.17552 0.68099 0.92081 0.0
C2288 C 0.17909 0.69986 0.92862 0.0
C2289 C 0.1694 0.64556 0.90771 0.0
C2290 C 0.16549 0.64897 0.93235 0.0
C2291 C 0.16805 0.66646 0.93837 0.0
C2292 C 0.16051 0.63513 0.95268 0.0
C2293 C 0.16595 0.62676 0.89975 0.0
C2294 C 0.14382 0.6283 0.96591 0.0
C2295 C 0.13978 0.61593 0.98591 0.0
C2296 C 0.1525 0.6104 0.99322 0.0
C2297 C 0.16912 0.6172 0.97967 0.0
C2298 C 0.17307 0.62943 0.95969 0.0
H2299 H 0.16407 0.62488 0.87908 0.0
H2300 H 0.17806 0.62538 0.905 0.0
H2301 H 0.15353 0.61556 0.90919 0.0
H2302 H 0.134 0.63263 0.96088 0.0
H2303 H 0.1269 0.61107 0.996 0.0
H2304 H 0.38397 0.56426 0.98415 0.0
H2305 H 0.36206 0.54912 0.95004 0.0
H2306 H 0.36586 0.49995 0.96038 0.0
H2307 H 0.38784 0.51497 0.99491 0.0
H2308 H 0.36668 0.53336 0.90477 0.0
H2309 H 0.3095 0.48159 0.96474 0.0
H2310 H 0.32905 0.50195 0.97774 0.0
H2311 H 0.33163 0.48294 0.96731 0.0
C2312 C 0.38025 0.55024 0.97923 0.0
C2313 C 0.38764 0.54082 0.99245 0.0
C2314 C 0.36771 0.54162 0.95966 0.0
C2315 C 0.36215 0.52335 0.95291 0.0
C2316 C 0.36976 0.51397 0.96558 0.0
H2317 H 0.27698 0.46014 0.83841 0.0
H2318 H 0.30056 0.46796 0.87098 0.0
C2319 C 0.38242 0.52264 0.98519 0.0
C2320 C 0.34832 0.51437 0.93261 0.0
H2321 H 0.30307 0.48217 0.92183 0.0
C2322 C 0.35283 0.52203 0.90842 0.0
C2323 C 0.3303 0.49951 0.93741 0.0
C2324 C 0.32467 0.49101 0.9632 0.0
C2325 C 0.33966 0.51562 0.88909 0.0
C2326 C 0.3214 0.5014 0.8942 0.0
C2327 C 0.31707 0.49312 0.91804 0.0
C2328 C 0.30638 0.49609 0.87558 0.0
C2329 C 0.34533 0.52434 0.86342 0.0
C2330 C 0.30147 0.50913 0.868 0.0
C2331 C 0.28803 0.50474 0.84955 0.0
C2332 C 0.27912 0.48714 0.83826 0.0
C2333 C 0.28358 0.47383 0.8466 0.0
C2334 C 0.29706 0.47827 0.86519 0.0
H2335 H 0.36051 0.53101 0.86061 0.0
H2336 H 0.33826 0.51393 0.84836 0.0
H2337 H 0.34139 0.53515 0.86147 0.0
H2338 H 0.30823 0.52285 0.87616 0.0
H2339 H 0.28492 0.51533 0.84384 0.0
H2340 H 0.12752 0.51689 0.49421 0.0
H2341 H 0.13521 0.50103 0.46162 0.0
H2342 H 0.19071 0.54738 0.45799 0.0
H2343 H 0.18333 0.56327 0.49031 0.0
H2344 H 0.15038 0.51318 0.4111 0.0
H2345 H 0.19714 0.5021 0.47336 0.0
H2346 H 0.18022 0.50763 0.48526 0.0
H2347 H 0.20188 0.52557 0.47301 0.0
C2348 C 0.14132 0.52378 0.48634 0.0
C2349 C 0.15484 0.54132 0.49512 0.0
C2350 C 0.14569 0.51467 0.46776 0.0
C2351 C 0.16363 0.52289 0.45781 0.0
C2352 C 0.17689 0.54064 0.46582 0.0
H2353 H 0.23243 0.51352 0.35049 0.0
H2354 H 0.21709 0.52004 0.38461 0.0
C2355 C 0.17257 0.54974 0.48425 0.0
C2356 C 0.16885 0.5131 0.4392 0.0
H2357 H 0.2002 0.4989 0.42919 0.0
C2358 C 0.16102 0.50971 0.4151 0.0
C2359 C 0.18265 0.50851 0.4446 0.0
C2360 C 0.19085 0.51096 0.47054 0.0
C2361 C 0.16749 0.50292 0.39577 0.0
C2362 C 0.18197 0.49925 0.40088 0.0
C2363 C 0.18915 0.50181 0.42531 0.0
C2364 C 0.19111 0.49449 0.3807 0.0
C2365 C 0.15951 0.50067 0.36972 0.0
C2366 C 0.18169 0.47775 0.36748 0.0
C2367 C 0.19047 0.4739 0.34788 0.0
C2368 C 0.20882 0.48678 0.34116 0.0
C2369 C 0.21829 0.5033 0.35498 0.0
C2370 C 0.20955 0.50707 0.37455 0.0
H2371 H 0.15034 0.5067 0.36809 0.0
H2372 H 0.17075 0.50733 0.35561 0.0
H2373 H 0.1513 0.48574 0.36509 0.0
H2374 H 0.16753 0.46773 0.3722 0.0
H2375 H 0.18276 0.46103 0.33768 0.0
H2376 H 0.48429 0.6111 0.49427 0.0
H2377 H 0.5003 0.6346 0.46163 0.0
H2378 H 0.45135 0.63865 0.45054 0.0
H2379 H 0.4353 0.6154 0.48282 0.0
H2380 H 0.48968 0.63615 0.40875 0.0
H2381 H 0.49325 0.69211 0.46871 0.0
H2382 H 0.48912 0.67029 0.48132 0.0
H2383 H 0.4706 0.67206 0.46692 0.0
C2384 C 0.47687 0.61684 0.4847 0.0
C2385 C 0.45853 0.61145 0.49143 0.0
C2386 C 0.48605 0.63029 0.46609 0.0
C2387 C 0.47709 0.63859 0.45407 0.0
C2388 C 0.45861 0.63265 0.45995 0.0
H2389 H 0.48532 0.71496 0.34472 0.0
H2390 H 0.4788 0.69305 0.37874 0.0
C2391 C 0.44943 0.61928 0.4784 0.0
C2392 C 0.48692 0.65379 0.43574 0.0
H2393 H 0.49827 0.69849 0.42473 0.0
C2394 C 0.49191 0.6499 0.41232 0.0
C2395 C 0.48988 0.67171 0.44057 0.0
C2396 C 0.4856 0.6769 0.46583 0.0
C2397 C 0.49871 0.66319 0.39301 0.0
C2398 C 0.50075 0.68082 0.39748 0.0
C2399 C 0.49661 0.68494 0.42132 0.0
C2400 C 0.50539 0.69456 0.37709 0.0
C2401 C 0.50271 0.65798 0.3676 0.0
C2402 C 0.52267 0.70295 0.36511 0.0
C2403 C 0.52651 0.7156 0.34553 0.0
C2404 C 0.51311 0.72006 0.33764 0.0
C2405 C 0.49597 0.71186 0.35015 0.0
C2406 C 0.4922 0.69931 0.36966 0.0
H2407 H 0.49772 0.64294 0.36613 0.0
H2408 H 0.49613 0.6619 0.35252 0.0
H2409 H 0.51785 0.6656 0.36428 0.0
H2410 H 0.53315 0.69969 0.37084 0.0
H2411 H 0.53986 0.72166 0.33638 0.0
H2412 H 0.39003 0.87402 0.4937 0.0
H2413 H 0.36813 0.86827 0.45946 0.0
H2414 H 0.36877 0.81852 0.43987 0.0
H2415 H 0.39067 0.82418 0.47359 0.0
H2416 H 0.37065 0.84023 0.39815 0.0
H2417 H 0.31313 0.82757 0.46305 0.0
H2418 H 0.33432 0.84926 0.46614 0.0
H2419 H 0.33388 0.82814 0.4739 0.0
C2420 C 0.38569 0.86198 0.48191 0.0
C2421 C 0.39204 0.84949 0.48659 0.0
C2422 C 0.37306 0.85865 0.46248 0.0
C2423 C 0.36658 0.8428 0.44742 0.0
C2424 C 0.3735 0.83078 0.45136 0.0
H2425 H 0.28886 0.7732 0.34053 0.0
H2426 H 0.31268 0.78986 0.37194 0.0
C2427 C 0.38604 0.83405 0.47072 0.0
C2428 C 0.35224 0.83817 0.42788 0.0
H2429 H 0.30605 0.82222 0.42005 0.0
C2430 C 0.35659 0.83655 0.40289 0.0
C2431 C 0.3339 0.83342 0.43409 0.0
C2432 C 0.32838 0.83454 0.46074 0.0
C2433 C 0.34298 0.82967 0.38412 0.0
C2434 C 0.32448 0.82402 0.39057 0.0
C2435 C 0.32026 0.82653 0.41524 0.0
C2436 C 0.3092 0.81382 0.37247 0.0
C2437 C 0.34838 0.82802 0.3576 0.0
C2438 C 0.29889 0.82154 0.36296 0.0
C2439 C 0.28514 0.81201 0.34485 0.0
C2440 C 0.28139 0.79453 0.33615 0.0
C2441 C 0.29134 0.78664 0.34658 0.0
C2442 C 0.30507 0.79618 0.3645 0.0
H2443 H 0.36342 0.83726 0.35434 0.0
H2444 H 0.34508 0.81357 0.35422 0.0
H2445 H 0.34056 0.83139 0.34375 0.0
H2446 H 0.3018 0.8351 0.36908 0.0
H2447 H 0.27774 0.81851 0.3373 0.0
H2448 H 0.26868 0.16655 0.11902 0.0
H2449 H 0.30118 0.17926 0.13108 0.0
H2450 H 0.28687 0.1292 0.1717 0.0
H2451 H 0.25451 0.11654 0.16008 0.0
H2452 H 0.31102 0.16132 0.19789 0.0
H2453 H 0.33551 0.1624 0.10045 0.0
H2454 H 0.32316 0.17466 0.10494 0.0
H2455 H 0.31134 0.15 0.10884 0.0
C2456 C 0.27246 0.15833 0.1307 0.0
C2457 C 0.25904 0.1405 0.13848 0.0
C2458 C 0.29103 0.16554 0.1374 0.0
C2459 C 0.29647 0.15502 0.15189 0.0
C2460 C 0.283 0.1375 0.16038 0.0
H2461 H 0.39908 0.16746 0.21217 0.0
H2462 H 0.36696 0.15567 0.1991 0.0
C2463 C 0.26449 0.1303 0.1537 0.0
C2464 C 0.31617 0.16204 0.15817 0.0
H2465 H 0.35828 0.17467 0.13229 0.0
C2466 C 0.32137 0.16423 0.18357 0.0
C2467 C 0.32961 0.16577 0.13942 0.0
C2468 C 0.32467 0.16296 0.11188 0.0
C2469 C 0.33969 0.17027 0.19075 0.0
C2470 C 0.3531 0.17387 0.17201 0.0
C2471 C 0.34794 0.1718 0.1466 0.0
C2472 C 0.37267 0.18029 0.17844 0.0
C2473 C 0.34461 0.17311 0.2183 0.0
C2474 C 0.38661 0.19769 0.17027 0.0
C2475 C 0.40495 0.20438 0.17752 0.0
C2476 C 0.40971 0.19376 0.19302 0.0
C2477 C 0.39584 0.176 0.20032 0.0
C2478 C 0.37747 0.16931 0.19304 0.0
H2479 H 0.33396 0.17414 0.22958 0.0
H2480 H 0.34563 0.16117 0.22544 0.0
H2481 H 0.35816 0.18583 0.22131 0.0
H2482 H 0.38323 0.20632 0.15885 0.0
H2483 H 0.41531 0.21809 0.17149 0.0
H2484 H 0.83314 0.23151 0.21261 0.0
H2485 H 0.84472 0.21131 0.19796 0.0
H2486 H 0.79279 0.17644 0.16072 0.0
H2487 H 0.78129 0.1966 0.1748 0.0
H2488 H 0.82963 0.17404 0.20921 0.0
H2489 H 0.82978 0.18374 0.1061 0.0
H2490 H 0.82813 0.19921 0.12825 0.0
H2491 H 0.80807 0.17739 0.12076 0.0
C2492 C 0.82432 0.21971 0.20095 0.0
C2493 C 0.80633 0.2157 0.1948 0.0
C2494 C 0.83093 0.20815 0.19267 0.0
C2495 C 0.8197 0.19249 0.17797 0.0
C2496 C 0.80185 0.18865 0.17154 0.0
H2497 H 0.8324 0.10184 0.11807 0.0
H2498 H 0.81978 0.12148 0.13153 0.0
C2499 C 0.79527 0.20017 0.17975 0.0
C2500 C 0.82615 0.17949 0.17066 0.0
H2501 H 0.83379 0.15893 0.12015 0.0
C2502 C 0.83065 0.17082 0.18974 0.0
C2503 C 0.82727 0.17515 0.14524 0.0
C2504 C 0.82322 0.18448 0.12388 0.0
C2505 C 0.83608 0.1578 0.18412 0.0
C2506 C 0.83734 0.15356 0.15871 0.0
C2507 C 0.83271 0.16212 0.13962 0.0
C2508 C 0.84445 0.14109 0.15152 0.0
C2509 C 0.84012 0.14848 0.20549 0.0
C2510 C 0.86246 0.14563 0.15821 0.0
C2511 C 0.86962 0.13447 0.15068 0.0
C2512 C 0.85899 0.11857 0.13605 0.0
C2513 C 0.84088 0.11393 0.12944 0.0
C2514 C 0.83369 0.12516 0.13704 0.0
H2515 H 0.83327 0.14893 0.22316 0.0
H2516 H 0.83553 0.13383 0.20097 0.0
H2517 H 0.85525 0.15579 0.20895 0.0
H2518 H 0.87117 0.15806 0.16887 0.0
H2519 H 0.88367 0.13854 0.15597 0.0
H2520 H 0.77125 0.60443 0.21673 0.0
H2521 H 0.79181 0.63656 0.20383 0.0
H2522 H 0.82169 0.61897 0.15574 0.0
H2523 H 0.80148 0.58701 0.1688 0.0
H2524 H 0.84457 0.64768 0.18682 0.0
H2525 H 0.7951 0.66324 0.13827 0.0
H2526 H 0.78836 0.65444 0.1696 0.0
H2527 H 0.78964 0.63995 0.14564 0.0
C2528 C 0.782 0.60739 0.20308 0.0
C2529 C 0.78475 0.5932 0.1938 0.0
C2530 C 0.79372 0.62575 0.19568 0.0
C2531 C 0.80821 0.63014 0.17867 0.0
C2532 C 0.81061 0.6159 0.16888 0.0
H2533 H 0.89831 0.73191 0.11559 0.0
H2534 H 0.87792 0.69977 0.12857 0.0
C2535 C 0.799 0.59763 0.17633 0.0
C2536 C 0.82158 0.64964 0.1721 0.0
H2537 H 0.8252 0.68852 0.14564 0.0
C2538 C 0.84036 0.6566 0.17771 0.0
C2539 C 0.81605 0.66124 0.16026 0.0
C2540 C 0.79622 0.65433 0.15286 0.0
C2541 C 0.85372 0.67496 0.17218 0.0
C2542 C 0.84818 0.68657 0.16037 0.0
C2543 C 0.82941 0.6796 0.15474 0.0
C2544 C 0.86153 0.70609 0.15388 0.0
C2545 C 0.87356 0.68187 0.17954 0.0
C2546 C 0.8591 0.72028 0.16376 0.0
C2547 C 0.87061 0.73857 0.15628 0.0
C2548 C 0.8848 0.74305 0.13868 0.0
C2549 C 0.88761 0.72891 0.12934 0.0
C2550 C 0.87599 0.71055 0.13678 0.0
H2551 H 0.87471 0.67292 0.19403 0.0
H2552 H 0.88142 0.68185 0.16275 0.0
H2553 H 0.88012 0.69623 0.18685 0.0
H2554 H 0.84805 0.71716 0.17698 0.0
H2555 H 0.86809 0.74914 0.16386 0.0
H2556 H 0.1688 0.39851 0.28405 0.0
H2557 H 0.15677 0.36625 0.29681 0.0
H2558 H 0.20506 0.3828 0.34277 0.0
H2559 H 0.21707 0.41493 0.33034 0.0
H2560 H 0.17491 0.34563 0.28863 0.0
H2561 H 0.16231 0.34989 0.39015 0.0
H2562 H 0.1651 0.36741 0.36788 0.0
H2563 H 0.18499 0.36689 0.37969 0.0
C2564 C 0.17669 0.3953 0.2972 0.0
C2565 C 0.19387 0.40927 0.30622 0.0
C2566 C 0.16984 0.37687 0.30439 0.0
C2567 C 0.17995 0.37217 0.32091 0.0
C2568 C 0.19689 0.38616 0.33035 0.0
H2569 H 0.16726 0.26966 0.38159 0.0
H2570 H 0.1794 0.30183 0.36837 0.0
C2571 C 0.20376 0.40452 0.32312 0.0
C2572 C 0.17342 0.35257 0.32719 0.0
H2573 H 0.16131 0.32236 0.37626 0.0
C2574 C 0.1718 0.34048 0.30776 0.0
C2575 C 0.16954 0.34596 0.35219 0.0
C2576 C 0.1704 0.35815 0.37368 0.0
C2577 C 0.16668 0.32201 0.3127 0.0
C2578 C 0.16281 0.31541 0.3377 0.0
C2579 C 0.16442 0.3275 0.35713 0.0
C2580 C 0.15631 0.29582 0.34403 0.0
C2581 C 0.16582 0.30983 0.29121 0.0
C2582 C 0.1394 0.28179 0.33457 0.0
C2583 C 0.13247 0.26348 0.34205 0.0
C2584 C 0.14226 0.25881 0.35925 0.0
C2585 C 0.15944 0.2728 0.36822 0.0
C2586 C 0.16635 0.29118 0.36077 0.0
H2587 H 0.17394 0.31809 0.27476 0.0
H2588 H 0.17107 0.30053 0.29701 0.0
H2589 H 0.15123 0.30113 0.28516 0.0
H2590 H 0.13127 0.28509 0.32199 0.0
H2591 H 0.11916 0.25304 0.33486 0.0
H2592 H 0.60226 0.77034 0.28302 0.0
H2593 H 0.63439 0.79104 0.29569 0.0
H2594 H 0.61692 0.82161 0.34256 0.0
H2595 H 0.58491 0.80122 0.32973 0.0
H2596 H 0.64577 0.844 0.31094 0.0
H2597 H 0.6609 0.79504 0.36177 0.0
H2598 H 0.65199 0.7878 0.33058 0.0
H2599 H 0.63765 0.78965 0.35426 0.0
C2600 C 0.60524 0.78128 0.29635 0.0
C2601 C 0.59105 0.78414 0.30538 0.0
C2602 C 0.62359 0.79307 0.30362 0.0
C2603 C 0.62802 0.80779 0.32023 0.0
C2604 C 0.61381 0.81035 0.32974 0.0
H2605 H 0.73009 0.89831 0.38166 0.0
H2606 H 0.69793 0.87788 0.36885 0.0
C2607 C 0.59551 0.79863 0.32244 0.0
C2608 C 0.64754 0.82117 0.32666 0.0
H2609 H 0.68634 0.8249 0.35358 0.0
C2610 C 0.65464 0.83986 0.32037 0.0
C2611 C 0.65906 0.81571 0.3389 0.0
C2612 C 0.65201 0.79599 0.347 0.0
C2613 C 0.67305 0.85319 0.32563 0.0
C2614 C 0.68458 0.84773 0.33786 0.0
C2615 C 0.67748 0.82905 0.34416 0.0
C2616 C 0.70412 0.86107 0.34419 0.0
C2617 C 0.68012 0.87292 0.31755 0.0
C2618 C 0.71826 0.85841 0.33461 0.0
C2619 C 0.73657 0.86996 0.34199 0.0
C2620 C 0.74112 0.88439 0.35919 0.0
C2621 C 0.72704 0.8874 0.36824 0.0
C2622 C 0.70866 0.87577 0.36088 0.0
H2623 H 0.67119 0.8739 0.30288 0.0
H2624 H 0.68025 0.88114 0.334 0.0
H2625 H 0.69444 0.87921 0.31017 0.0
H2626 H 0.71507 0.84717 0.32171 0.0
H2627 H 0.74709 0.86727 0.33465 0.0
H2628 H 0.19932 0.78554 0.3274 0.0
H2629 H 0.17919 0.79761 0.33954 0.0
H2630 H 0.21186 0.84636 0.29479 0.0
H2631 H 0.23204 0.83424 0.28224 0.0
H2632 H 0.1866 0.83047 0.36352 0.0
H2633 H 0.15921 0.82596 0.26704 0.0
H2634 H 0.17215 0.81484 0.27586 0.0
H2635 H 0.18394 0.83925 0.26972 0.0
C2636 C 0.20234 0.79891 0.32026 0.0
C2637 C 0.21721 0.80888 0.30369 0.0
C2638 C 0.1908 0.80578 0.32723 0.0
C2639 C 0.19381 0.8227 0.31769 0.0
C2640 C 0.20908 0.83308 0.30195 0.0
H2641 H 0.13703 0.88459 0.33461 0.0
H2642 H 0.15706 0.87241 0.32243 0.0
C2643 C 0.22068 0.82621 0.29497 0.0
C2644 C 0.1807 0.82921 0.32397 0.0
H2645 H 0.1494 0.83941 0.29819 0.0
C2646 C 0.17843 0.8324 0.34927 0.0
C2647 C 0.17 0.8316 0.30533 0.0
C2648 C 0.17127 0.8276 0.27798 0.0
C2649 C 0.16598 0.83826 0.35639 0.0
C2650 C 0.15529 0.84066 0.33774 0.0
C2651 C 0.15756 0.83747 0.31245 0.0
C2652 C 0.14223 0.84722 0.34402 0.0
C2653 C 0.16471 0.84227 0.38374 0.0
C2654 C 0.12688 0.83682 0.35963 0.0
C2655 C 0.11532 0.84375 0.36662 0.0
C2656 C 0.11894 0.86116 0.35806 0.0
C2657 C 0.13389 0.87116 0.34163 0.0
C2658 C 0.14537 0.86423 0.33463 0.0
H2659 H 0.1767 0.84378 0.39472 0.0
H2660 H 0.16394 0.85509 0.38584 0.0
H2661 H 0.15196 0.83067 0.39194 0.0
H2662 H 0.12401 0.82349 0.36669 0.0
H2663 H 0.1039 0.83571 0.37925 0.0
H2664 H 0.74863 0.88231 0.83463 0.0
H2665 H 0.71644 0.87026 0.82247 0.0
H2666 H 0.70012 0.82223 0.86889 0.0
H2667 H 0.73245 0.83433 0.88142 0.0
H2668 H 0.69069 0.83682 0.79942 0.0
H2669 H 0.66841 0.84391 0.89518 0.0
H2670 H 0.69243 0.85473 0.88617 0.0
H2671 H 0.67976 0.83048 0.89335 0.0
C2672 C 0.73824 0.8691 0.84215 0.0
C2673 C 0.74307 0.85933 0.85915 0.0
C2674 C 0.71984 0.86224 0.83515 0.0
C2675 C 0.70586 0.84553 0.84512 0.0
C2676 C 0.71068 0.83534 0.86135 0.0
H2677 H 0.58731 0.78404 0.82954 0.0
H2678 H 0.61959 0.79646 0.8414 0.0
C2679 C 0.72915 0.84219 0.86833 0.0
C2680 C 0.68627 0.83909 0.83879 0.0
H2681 H 0.64505 0.83007 0.86427 0.0
C2682 C 0.6807 0.83537 0.81357 0.0
C2683 C 0.67333 0.83735 0.85728 0.0
C2684 C 0.67874 0.84196 0.8845 0.0
C2685 C 0.66242 0.82956 0.8064 0.0
C2686 C 0.64946 0.82777 0.8249 0.0
C2687 C 0.65504 0.83154 0.85012 0.0
C2688 C 0.62981 0.8211 0.81865 0.0
C2689 C 0.65699 0.82494 0.77919 0.0
C2690 C 0.62475 0.83111 0.80243 0.0
C2691 C 0.60621 0.82405 0.79562 0.0
C2692 C 0.59247 0.80687 0.80495 0.0
C2693 C 0.59755 0.79727 0.8219 0.0
C2694 C 0.61601 0.80434 0.82874 0.0
H2695 H 0.6674 0.82316 0.76843 0.0
H2696 H 0.64338 0.81208 0.77753 0.0
H2697 H 0.6558 0.83634 0.7704 0.0
H2698 H 0.63518 0.84426 0.7948 0.0
H2699 H 0.60272 0.83177 0.78256 0.0
H2700 H 0.21852 0.80136 0.83296 0.0
H2701 H 0.20673 0.82139 0.84684 0.0
H2702 H 0.15821 0.79066 0.80086 0.0
H2703 H 0.1698 0.77031 0.78716 0.0
H2704 H 0.19966 0.84379 0.81665 0.0
H2705 H 0.13612 0.79388 0.86755 0.0
H2706 H 0.15402 0.78875 0.85917 0.0
H2707 H 0.13747 0.78692 0.83608 0.0
C2708 C 0.2052 0.79867 0.82606 0.0
C2709 C 0.19507 0.78422 0.80898 0.0
C2710 C 0.19851 0.81017 0.83398 0.0
C2711 C 0.18153 0.80745 0.82506 0.0
C2712 C 0.17118 0.79281 0.80837 0.0
H2713 H 0.12015 0.86471 0.83769 0.0
H2714 H 0.13281 0.84493 0.82656 0.0
C2715 C 0.17785 0.78122 0.80049 0.0
C2716 C 0.17524 0.82062 0.83213 0.0
H2717 H 0.13975 0.8235 0.85929 0.0
C2718 C 0.18662 0.83939 0.82613 0.0
C2719 C 0.15824 0.81484 0.8445 0.0
C2720 C 0.14582 0.79503 0.85244 0.0
C2721 C 0.18123 0.85248 0.83159 0.0
C2722 C 0.16413 0.84666 0.84371 0.0
C2723 C 0.15285 0.82792 0.84994 0.0
C2724 C 0.15734 0.85962 0.84948 0.0
C2725 C 0.19364 0.87229 0.82367 0.0
C2726 C 0.16704 0.87463 0.8659 0.0
C2727 C 0.15987 0.88611 0.87221 0.0
C2728 C 0.1428 0.88262 0.86238 0.0
C2729 C 0.13333 0.86778 0.84562 0.0
C2730 C 0.14051 0.85641 0.83927 0.0
H2731 H 0.20389 0.87359 0.80933 0.0
H2732 H 0.18543 0.87828 0.81593 0.0
H2733 H 0.20135 0.88059 0.84029 0.0
H2734 H 0.17989 0.87718 0.87435 0.0
H2735 H 0.1674 0.89734 0.88532 0.0
H2736 H 0.19809 0.41363 0.82986 0.0
H2737 H 0.17841 0.38149 0.84264 0.0
H2738 H 0.21076 0.36548 0.79704 0.0
H2739 H 0.23075 0.39776 0.78435 0.0
H2740 H 0.15715 0.35223 0.81048 0.0
H2741 H 0.20684 0.33956 0.86395 0.0
H2742 H 0.21142 0.36252 0.85624 0.0
H2743 H 0.21431 0.34864 0.83287 0.0
C2744 C 0.20122 0.40333 0.82281 0.0
C2745 C 0.21601 0.40825 0.8061 0.0
C2746 C 0.18991 0.38496 0.8301 0.0
C2747 C 0.19317 0.37111 0.82093 0.0
C2748 C 0.20818 0.37599 0.80468 0.0
H2749 H 0.13635 0.25208 0.83736 0.0
H2750 H 0.15616 0.28413 0.82433 0.0
C2751 C 0.21956 0.39443 0.7974 0.0
C2752 C 0.1802 0.35149 0.82736 0.0
H2753 H 0.1774 0.31354 0.85577 0.0
C2754 C 0.16154 0.34377 0.82047 0.0
C2755 C 0.18599 0.34049 0.84032 0.0
C2756 C 0.20569 0.34822 0.849 0.0
C2757 C 0.14856 0.32526 0.82588 0.0
C2758 C 0.15434 0.31428 0.83891 0.0
C2759 C 0.173 0.32199 0.84576 0.0
C2760 C 0.14133 0.29469 0.84552 0.0
C2761 C 0.12888 0.31753 0.81711 0.0
C2762 C 0.12625 0.28993 0.86158 0.0
C2763 C 0.11478 0.27153 0.86899 0.0
C2764 C 0.11833 0.25765 0.86063 0.0
C2765 C 0.13322 0.26244 0.84415 0.0
C2766 C 0.14461 0.28077 0.83672 0.0
H2767 H 0.1278 0.32608 0.80194 0.0
H2768 H 0.12308 0.30316 0.81014 0.0
H2769 H 0.12027 0.31733 0.83312 0.0
H2770 H 0.12365 0.3005 0.86896 0.0
H2771 H 0.10352 0.2683 0.88186 0.0
H2772 H 0.88607 0.74787 0.65563 0.0
H2773 H 0.87438 0.71595 0.66886 0.0
H2774 H 0.82235 0.69981 0.63248 0.0
H2775 H 0.83409 0.7318 0.61874 0.0
H2776 H 0.84419 0.69234 0.69791 0.0
H2777 H 0.83782 0.66488 0.60117 0.0
H2778 H 0.85025 0.68931 0.60805 0.0
H2779 H 0.82543 0.67701 0.6064 0.0
C2780 C 0.87209 0.73757 0.65052 0.0
C2781 C 0.86104 0.74235 0.63596 0.0
C2782 C 0.86544 0.71932 0.65812 0.0
C2783 C 0.84763 0.70544 0.65126 0.0
C2784 C 0.83629 0.71024 0.6375 0.0
H2785 H 0.78295 0.58791 0.67536 0.0
H2786 H 0.7957 0.62005 0.66262 0.0
C2787 C 0.84296 0.72854 0.62983 0.0
C2788 C 0.84111 0.68596 0.65841 0.0
H2789 H 0.82626 0.64292 0.63418 0.0
C2790 C 0.84032 0.68153 0.684 0.0
C2791 C 0.8362 0.67191 0.6402 0.0
C2792 C 0.8376 0.67598 0.61241 0.0
C2793 C 0.8343 0.66334 0.69191 0.0
C2794 C 0.82925 0.64927 0.67369 0.0
C2795 C 0.83017 0.65374 0.6481 0.0
C2796 C 0.82212 0.62966 0.68078 0.0
C2797 C 0.83289 0.65927 0.7197 0.0
C2798 C 0.83291 0.62427 0.69477 0.0
C2799 C 0.82562 0.60581 0.70218 0.0
C2800 C 0.80746 0.59245 0.69555 0.0
C2801 C 0.79697 0.59784 0.68084 0.0
C2802 C 0.80423 0.61623 0.67352 0.0
H2803 H 0.83303 0.67052 0.73099 0.0
H2804 H 0.82005 0.64612 0.72409 0.0
H2805 H 0.84486 0.65785 0.7256 0.0
H2806 H 0.84691 0.63434 0.70011 0.0
H2807 H 0.83407 0.60208 0.71342 0.0
H2808 H 0.25393 0.13598 0.66234 0.0
H2809 H 0.28599 0.15595 0.67519 0.0
H2810 H 0.30255 0.12382 0.63006 0.0
H2811 H 0.27038 0.10382 0.61678 0.0
H2812 H 0.31107 0.14818 0.69939 0.0
H2813 H 0.33519 0.1768 0.60374 0.0
H2814 H 0.31101 0.16377 0.61198 0.0
H2815 H 0.32369 0.15204 0.60577 0.0
C2816 C 0.26434 0.13305 0.65524 0.0
C2817 C 0.25964 0.11839 0.63837 0.0
C2818 C 0.28267 0.14449 0.66263 0.0
C2819 C 0.29668 0.14158 0.65322 0.0
C2820 C 0.29197 0.12653 0.63713 0.0
H2821 H 0.41503 0.19751 0.67214 0.0
H2822 H 0.38286 0.17766 0.65972 0.0
C2823 C 0.27358 0.11503 0.62973 0.0
C2824 C 0.31621 0.15456 0.66001 0.0
H2825 H 0.35807 0.18601 0.63534 0.0
C2826 C 0.32136 0.15649 0.68542 0.0
C2827 C 0.32955 0.16546 0.64173 0.0
C2828 C 0.32462 0.1646 0.61429 0.0
C2829 C 0.33959 0.16876 0.69301 0.0
C2830 C 0.35293 0.17961 0.67471 0.0
C2831 C 0.34778 0.17771 0.64931 0.0
C2832 C 0.37251 0.19244 0.68144 0.0
C2833 C 0.34453 0.16968 0.72044 0.0
C2834 C 0.37744 0.20767 0.69728 0.0
C2835 C 0.3959 0.21913 0.70442 0.0
C2836 C 0.40969 0.21552 0.69577 0.0
C2837 C 0.40474 0.20063 0.67923 0.0
C2838 C 0.38635 0.18926 0.67209 0.0
H2839 H 0.33385 0.15763 0.73111 0.0
H2840 H 0.35803 0.17027 0.72276 0.0
H2841 H 0.34573 0.1824 0.72882 0.0
H2842 H 0.36699 0.21057 0.70432 0.0
H2843 H 0.39929 0.23051 0.71713 0.0
H2844 H 0.89774 0.1667 0.61951 0.0
H2845 H 0.87711 0.17809 0.63285 0.0
H2846 H 0.84535 0.1287 0.67682 0.0
H2847 H 0.8659 0.11734 0.66384 0.0
H2848 H 0.83862 0.15981 0.62374 0.0
H2849 H 0.85372 0.16998 0.72592 0.0
H2850 H 0.86892 0.16787 0.70374 0.0
H2851 H 0.84834 0.14763 0.71443 0.0
C2852 C 0.88656 0.15844 0.63238 0.0
C2853 C 0.88348 0.14114 0.64066 0.0
C2854 C 0.87475 0.16492 0.6399 0.0
C2855 C 0.8598 0.15431 0.656 0.0
C2856 C 0.85698 0.13726 0.66475 0.0
H2857 H 0.76934 0.16697 0.71578 0.0
H2858 H 0.78916 0.15445 0.70298 0.0
C2859 C 0.86872 0.13076 0.65721 0.0
C2860 C 0.84644 0.16046 0.66243 0.0
H2861 H 0.82758 0.17152 0.71168 0.0
C2862 C 0.83627 0.16248 0.64294 0.0
C2863 C 0.84328 0.16373 0.68753 0.0
C2864 C 0.85424 0.16236 0.70912 0.0
C2865 C 0.82287 0.16752 0.6479 0.0
C2866 C 0.81979 0.17092 0.67297 0.0
C2867 C 0.82988 0.16879 0.69248 0.0
C2868 C 0.80691 0.17769 0.67926 0.0
C2869 C 0.81192 0.16888 0.62628 0.0
C2870 C 0.81027 0.19483 0.67008 0.0
C2871 C 0.79902 0.20197 0.67731 0.0
C2872 C 0.78421 0.19217 0.694 0.0
C2873 C 0.78058 0.1748 0.70279 0.0
C2874 C 0.79192 0.16767 0.69558 0.0
H2875 H 0.81205 0.16083 0.60974 0.0
H2876 H 0.79734 0.16384 0.63181 0.0
H2877 H 0.81815 0.18355 0.62048 0.0
H2878 H 0.82195 0.20296 0.65786 0.0
H2879 H 0.80225 0.21542 0.67026 0.0
H2880 H 0.06489 0.50232 0.54755 0.0
H2881 H 0.03286 0.49102 0.53438 0.0
H2882 H 0.05066 0.53996 0.48934 0.0
H2883 H 0.0826 0.55125 0.50218 0.0
H2884 H 0.01297 0.50982 0.54298 0.0
H2885 H 0.01725 0.49804 0.44114 0.0
H2886 H 0.03456 0.50021 0.46338 0.0
H2887 H 0.03447 0.52046 0.45216 0.0
C2888 C 0.06202 0.51051 0.53448 0.0
C2889 C 0.07628 0.52766 0.52587 0.0
C2890 C 0.04371 0.50407 0.52707 0.0
C2891 C 0.03941 0.51458 0.51071 0.0
C2892 C 0.05369 0.53148 0.50162 0.0
H2893 H 0.93646 0.50204 0.45062 0.0
H2894 H 0.96879 0.51446 0.46339 0.0
C2895 C 0.07195 0.53794 0.50908 0.0
C2896 C 0.0199 0.5085 0.50436 0.0
H2897 H 0.98974 0.49687 0.4553 0.0
C2898 C 0.00785 0.50689 0.52384 0.0
C2899 C 0.01333 0.50487 0.47934 0.0
C2900 C 0.0255 0.50581 0.45779 0.0
C2901 C 0.98941 0.5019 0.51893 0.0
C2902 C 0.98279 0.49815 0.49393 0.0
C2903 C 0.99488 0.49987 0.47444 0.0
C2904 C 0.96314 0.49147 0.48773 0.0
C2905 C 0.97726 0.50099 0.5405 0.0
C2906 C 0.94928 0.47452 0.49729 0.0
C2907 C 0.93089 0.46743 0.49006 0.0
C2908 C 0.92597 0.47711 0.47302 0.0
C2909 C 0.9398 0.49431 0.46389 0.0
C2910 C 0.95827 0.50138 0.47108 0.0
H2911 H 0.98556 0.50921 0.55686 0.0
H2912 H 0.96784 0.50611 0.53476 0.0
H2913 H 0.9687 0.48642 0.54666 0.0
H2914 H 0.95275 0.46647 0.50978 0.0
H2915 H 0.92059 0.4541 0.49738 0.0
H2916 H 0.45033 0.53023 0.50473 0.0
H2917 H 0.4629 0.51044 0.49312 0.0
H2918 H 0.51198 0.54472 0.53649 0.0
H2919 H 0.49934 0.56457 0.54853 0.0
H2920 H 0.49546 0.51827 0.46845 0.0
H2921 H 0.49362 0.49285 0.56551 0.0
H2922 H 0.48181 0.50516 0.55681 0.0
H2923 H 0.50636 0.51754 0.56195 0.0
C2924 C 0.46386 0.53367 0.5117 0.0
C2925 C 0.4738 0.54892 0.5277 0.0
C2926 C 0.47102 0.52232 0.50504 0.0
C2927 C 0.48821 0.5259 0.51431 0.0
C2928 C 0.4985 0.5415 0.52955 0.0
H2929 H 0.55075 0.46946 0.49635 0.0
H2930 H 0.53892 0.48977 0.50875 0.0
C2931 C 0.49134 0.55291 0.53624 0.0
C2932 C 0.49511 0.51309 0.50812 0.0
H2933 H 0.50661 0.48278 0.53408 0.0
C2934 C 0.49789 0.51049 0.48278 0.0
C2935 C 0.4982 0.50292 0.52686 0.0
C2936 C 0.49471 0.50458 0.55431 0.0
C2937 C 0.5039 0.49816 0.47568 0.0
C2938 C 0.50689 0.48792 0.49441 0.0
C2939 C 0.50422 0.49059 0.51976 0.0
C2940 C 0.51331 0.47475 0.48808 0.0
C2941 C 0.50737 0.4965 0.44823 0.0
C2942 C 0.50258 0.45921 0.47294 0.0
C2943 C 0.5093 0.44752 0.46581 0.0
C2944 C 0.52685 0.45116 0.47379 0.0
C2945 C 0.5372 0.4663 0.48979 0.0
C2946 C 0.53048 0.47794 0.49691 0.0
H2947 H 0.50873 0.50838 0.43712 0.0
H2948 H 0.52012 0.49564 0.44572 0.0
H2949 H 0.49558 0.48369 0.4405 0.0
H2950 H 0.48911 0.45629 0.46634 0.0
H2951 H 0.50097 0.43595 0.45354 0.0
H2952 H 0.563 0.0641 0.45596 0.0
H2953 H 0.54259 0.03221 0.46997 0.0
H2954 H 0.51068 0.04999 0.51328 0.0
H2955 H 0.53078 0.08175 0.49922 0.0
H2956 H 0.53297 0.01658 0.51886 0.0
H2957 H 0.4719 0.00961 0.4675 0.0
H2958 H 0.4951 0.02816 0.46145 0.0
H2959 H 0.48267 0.02902 0.48849 0.0
C2960 C 0.55174 0.06124 0.46865 0.0
C2961 C 0.54841 0.07542 0.47631 0.0
C2962 C 0.54008 0.04302 0.47659 0.0
C2963 C 0.52489 0.03869 0.49222 0.0
C2964 C 0.52205 0.05296 0.50075 0.0
H2965 H 0.43613 0.93396 0.55181 0.0
H2966 H 0.45627 0.96675 0.54127 0.0
C2967 C 0.53365 0.07113 0.49281 0.0
C2968 C 0.51187 0.01924 0.49935 0.0
H2969 H 0.46687 0.98474 0.49394 0.0
C2970 C 0.51853 0.0096 0.51339 0.0
C2971 C 0.493 0.01021 0.49228 0.0
C2972 C 0.48522 0.01969 0.47641 0.0
C2973 C 0.50681 0.99118 0.52071 0.0
C2974 C 0.488 0.98207 0.51336 0.0
C2975 C 0.48128 0.99178 0.49958 0.0
C2976 C 0.47532 0.96224 0.51896 0.0
C2977 C 0.51462 0.9817 0.53652 0.0
C2978 C 0.47905 0.94884 0.50927 0.0
C2979 C 0.46763 0.93022 0.51521 0.0
C2980 C 0.45213 0.92455 0.53083 0.0
C2981 C 0.44798 0.9379 0.53977 0.0
C2982 C 0.45948 0.95662 0.53382 0.0
H2983 H 0.52748 0.99183 0.54633 0.0
H2984 H 0.50443 0.97251 0.55075 0.0
H2985 H 0.51804 0.97311 0.5242 0.0
H2986 H 0.49092 0.95282 0.49726 0.0
H2987 H 0.47115 0.92028 0.50782 0.0
H2988 H 0.50177 0.06492 0.94792 0.0
H2989 H 0.48903 0.03244 0.96019 0.0
H2990 H 0.53532 0.04808 0.00985 0.0
H2991 H 0.54801 0.08037 0.9979 0.0
H2992 H 0.50741 0.01179 0.95384 0.0
H2993 H 0.49063 0.01455 0.05401 0.0
H2994 H 0.49431 0.03239 0.03174 0.0
H2995 H 0.5137 0.03181 0.04539 0.0
C2996 C 0.50903 0.06145 0.96179 0.0
C2997 C 0.52587 0.0752 0.97197 0.0
C2998 C 0.50179 0.0429 0.96869 0.0
C2999 C 0.51115 0.03789 0.9861 0.0
C3000 C 0.52771 0.05166 0.99671 0.0
H3001 H 0.49949 0.93624 0.04727 0.0
H3002 H 0.51098 0.96829 0.03396 0.0
C3003 C 0.53498 0.07012 0.98976 0.0
C3004 C 0.50437 0.01819 0.99211 0.0
H3005 H 0.49105 0.98753 0.04078 0.0
C3006 C 0.50365 0.00641 0.97279 0.0
C3007 C 0.49962 0.01128 0.01689 0.0
C3008 C 0.49942 0.0231 0.03818 0.0
C3009 C 0.49873 0.98798 0.9777 0.0
C3010 C 0.49416 0.98113 0.00252 0.0
C3011 C 0.49473 0.99287 0.0218 0.0
C3012 C 0.48813 0.96164 0.00882 0.0
C3013 C 0.49887 0.97612 0.95643 0.0
C3014 C 0.4716 0.94731 0.9989 0.0
C3015 C 0.46502 0.92906 0.00646 0.0
C3016 C 0.47484 0.92478 0.02414 0.0
C3017 C 0.49169 0.93909 0.03351 0.0
C3018 C 0.49822 0.95739 0.02602 0.0
H3019 H 0.50709 0.98459 0.94018 0.0
H3020 H 0.5046 0.96732 0.9627 0.0
H3021 H 0.48449 0.9669 0.94993 0.0
H3022 H 0.46345 0.95031 0.98592 0.0
H3023 H 0.45197 0.91837 0.99894 0.0
H3024 H 0.93387 0.43439 0.95356 0.0
H3025 H 0.96622 0.45409 0.96647 0.0
H3026 H 0.95143 0.48987 0.00605 0.0
H3027 H 0.91926 0.47028 0.99361 0.0
H3028 H 0.98901 0.49175 0.95533 0.0
H3029 H 0.98158 0.48066 0.05837 0.0
H3030 H 0.96394 0.46558 0.03647 0.0
H3031 H 0.96599 0.48732 0.04522 0.0
C3032 C 0.93749 0.4463 0.96532 0.0
C3033 C 0.92399 0.45072 0.97264 0.0
C3034 C 0.95597 0.45757 0.9726 0.0
C3035 C 0.96119 0.47332 0.98749 0.0
C3036 C 0.94767 0.4776 0.99502 0.0
H3037 H 0.06407 0.56356 0.04629 0.0
H3038 H 0.032 0.54342 0.03272 0.0
C3039 C 0.92928 0.4664 0.98776 0.0
C3040 C 0.98086 0.48589 0.99413 0.0
H3041 H 0.01005 0.50582 0.04387 0.0
C3042 C 0.99366 0.49472 0.97468 0.0
C3043 C 0.98686 0.48984 0.01939 0.0
C3044 C 0.97392 0.48023 0.04108 0.0
C3045 C 0.01223 0.50771 0.9798 0.0
C3046 C 0.0182 0.51173 0.00507 0.0
C3047 C 0.00542 0.50283 0.02452 0.0
C3048 C 0.03778 0.52466 0.0118 0.0
C3049 C 0.02518 0.51731 0.95813 0.0
C3050 C 0.05165 0.52083 0.00448 0.0
C3051 C 0.06992 0.5323 0.01212 0.0
C3052 C 0.0747 0.54779 0.02742 0.0
C3053 C 0.06085 0.5518 0.03442 0.0
C3054 C 0.04253 0.54028 0.02675 0.0
H3055 H 0.01753 0.51667 0.94073 0.0
H3056 H 0.03498 0.53204 0.96262 0.0
H3057 H 0.03331 0.5104 0.95425 0.0
H3058 H 0.04826 0.50867 0.9934 0.0
H3059 H 0.08022 0.52875 0.00651 0.0
H3060 H 0.53158 0.45065 0.99729 0.0
H3061 H 0.51157 0.46297 0.00899 0.0
H3062 H 0.54467 0.51149 0.96404 0.0
H3063 H 0.56473 0.49913 0.95195 0.0
H3064 H 0.51913 0.49603 0.03261 0.0
H3065 H 0.49215 0.49125 0.9358 0.0
H3066 H 0.50492 0.48002 0.94498 0.0
H3067 H 0.51688 0.50442 0.93868 0.0
C3068 C 0.53473 0.46402 0.99002 0.0
C3069 C 0.54967 0.47386 0.97353 0.0
C3070 C 0.52326 0.47103 0.99674 0.0
C3071 C 0.52642 0.48796 0.98701 0.0
C3072 C 0.54177 0.49821 0.97135 0.0
H3073 H 0.46896 0.54954 0.00251 0.0
H3074 H 0.48934 0.53769 0.99062 0.0
C3075 C 0.5533 0.4912 0.96462 0.0
C3076 C 0.51338 0.49461 0.99301 0.0
H3077 H 0.4822 0.50474 0.96666 0.0
C3078 C 0.51103 0.49792 0.01822 0.0
C3079 C 0.50277 0.49697 0.97417 0.0
C3080 C 0.50412 0.49284 0.9469 0.0
C3081 C 0.49858 0.50382 0.02509 0.0
C3082 C 0.48794 0.50614 0.00626 0.0
C3083 C 0.49032 0.50288 0.98104 0.0
C3084 C 0.47471 0.51253 0.01232 0.0
C3085 C 0.4972 0.50792 0.05237 0.0
C3086 C 0.45936 0.50203 0.02787 0.0
C3087 C 0.44762 0.50876 0.03469 0.0
C3088 C 0.45103 0.52608 0.026 0.0
C3089 C 0.46598 0.53618 0.00961 0.0
C3090 C 0.47766 0.52944 0.00279 0.0
H3091 H 0.50924 0.50963 0.06343 0.0
H3092 H 0.49627 0.52067 0.0543 0.0
H3093 H 0.48452 0.49627 0.06061 0.0
H3094 H 0.45663 0.48876 0.03503 0.0
H3095 H 0.4362 0.50064 0.04729 0.0
loop_
_geom_bond_atom_site_label_1
_geom_bond_atom_site_label_2
_geom_bond_distance
_geom_bond_site_symmetry_2
_ccdc_geom_bond_type
Co0 O1 2.216 . S
Co0 O2 2.091 . S
Co0 O4 2.004 . S
Co0 O10 2.021 . S
Co0 O12 2.137 . S
Co0 O13 2.244 . S
O1 Co0 2.216 . S
O1 C8 1.247 . S
O2 Co0 2.091 . S
O2 C8 1.261 . S
C3 O12 1.247 . S
C3 O13 1.272 . S
O4 Co0 2.004 . S
O4 C9 1.259 . S
Co5 O6 2.061 . S
Co5 O11 2.052 . S
Co5 O13 2.135 . S
O6 Co5 2.061 . S
O6 C9 1.235 . S
C7 O10 1.238 . S
C7 O11 1.241 . S
C8 O1 1.247 . S
C8 O2 1.261 . S
C9 O4 1.259 . S
C9 O6 1.235 . S
O10 Co0 2.021 . S
O10 C7 1.238 . S
O11 Co5 2.052 . S
O11 C7 1.241 . S
O12 Co0 2.137 . S
O12 C3 1.247 . S
O13 Co0 2.244 . S
O13 C3 1.272 . S
O13 Co5 2.135 . S
Co14 O15 2.216 . S
Co14 O16 2.091 . S
Co14 O18 2.004 . S
Co14 O24 2.021 . S
Co14 O26 2.137 . S
Co14 O27 2.244 . S
O15 Co14 2.216 . S
O15 C22 1.247 . S
O16 Co14 2.091 . S
O16 C22 1.261 . S
C17 O26 1.247 . S
C17 O27 1.272 . S
O18 Co14 2.004 . S
O18 C23 1.259 . S
Co19 O20 2.061 . S
Co19 O25 2.052 . S
Co19 O27 2.135 . S
O20 Co19 2.061 . S
O20 C23 1.235 . S
C21 O24 1.238 . S
C21 O25 1.241 . S
C22 O15 1.247 . S
C22 O16 1.261 . S
C23 O18 1.259 . S
C23 O20 1.235 . S
O24 Co14 2.021 . S
O24 C21 1.238 . S
O25 Co19 2.052 . S
O25 C21 1.241 . S
O26 Co14 2.137 . S
O26 C17 1.247 . S
O27 Co14 2.244 . S
O27 C17 1.272 . S
O27 Co19 2.135 . S
Co28 O29 2.216 . S
Co28 O30 2.091 . S
Co28 O32 2.004 . S
Co28 O38 2.021 . S
Co28 O40 2.137 . S
Co28 O41 2.244 . S
O29 Co28 2.216 . S
O29 C36 1.247 . S
O30 Co28 2.091 . S
O30 C36 1.261 . S
C31 O40 1.247 . S
C31 O41 1.272 . S
O32 Co28 2.004 . S
O32 C37 1.259 . S
Co33 O34 2.061 . S
Co33 O39 2.052 . S
Co33 O41 2.135 . S
O34 Co33 2.061 . S
O34 C37 1.235 . S
C35 O38 1.238 . S
C35 O39 1.241 . S
C36 O29 1.247 . S
C36 O30 1.261 . S
C37 O32 1.259 . S
C37 O34 1.235 . S
O38 Co28 2.021 . S
O38 C35 1.238 . S
O39 Co33 2.052 . S
O39 C35 1.241 . S
O40 Co28 2.137 . S
O40 C31 1.247 . S
O41 Co28 2.244 . S
O41 C31 1.272 . S
O41 Co33 2.135 . S
Co42 O43 2.216 . S
Co42 O44 2.091 . S
Co42 O46 2.004 . S
Co42 O52 2.021 . S
Co42 O54 2.137 . S
Co42 O55 2.244 . S
O43 Co42 2.216 . S
O43 C50 1.247 . S
O44 Co42 2.091 . S
O44 C50 1.261 . S
C45 O54 1.247 . S
C45 O55 1.272 . S
O46 Co42 2.004 . S
O46 C51 1.259 . S
Co47 O48 2.061 . S
Co47 O53 2.052 . S
Co47 O55 2.135 . S
O48 Co47 2.061 . S
O48 C51 1.235 . S
C49 O52 1.238 . S
C49 O53 1.241 . S
C50 O43 1.247 . S
C50 O44 1.261 . S
C51 O46 1.259 . S
C51 O48 1.235 . S
O52 Co42 2.021 . S
O52 C49 1.238 . S
O53 Co47 2.052 . S
O53 C49 1.241 . S
O54 Co42 2.137 . S
O54 C45 1.247 . S
O55 Co42 2.244 . S
O55 C45 1.272 . S
O55 Co47 2.135 . S
Co56 O57 2.216 . S
Co56 O58 2.091 . S
Co56 O60 2.004 . S
Co56 O66 2.021 . S
Co56 O68 2.137 . S
Co56 O69 2.244 . S
O57 Co56 2.216 . S
O57 C64 1.247 . S
O58 Co56 2.091 . S
O58 C64 1.261 . S
C59 O68 1.247 . S
C59 O69 1.272 . S
O60 Co56 2.004 . S
O60 C65 1.259 . S
Co61 O62 2.061 . S
Co61 O67 2.052 . S
Co61 O69 2.135 . S
O62 Co61 2.061 . S
O62 C65 1.235 . S
C63 O66 1.238 . S
C63 O67 1.241 . S
C64 O57 1.247 . S
C64 O58 1.261 . S
C65 O60 1.259 . S
C65 O62 1.235 . S
O66 Co56 2.021 . S
O66 C63 1.238 . S
O67 Co61 2.052 . S
O67 C63 1.241 . S
O68 Co56 2.137 . S
O68 C59 1.247 . S
O69 Co56 2.244 . S
O69 C59 1.272 . S
O69 Co61 2.135 . S
Co70 O71 2.216 . S
Co70 O72 2.091 . S
Co70 O74 2.004 . S
Co70 O80 2.021 . S
Co70 O82 2.137 . S
Co70 O83 2.244 . S
O71 Co70 2.216 . S
O71 C78 1.247 . S
O72 Co70 2.091 . S
O72 C78 1.261 . S
C73 O82 1.247 . S
C73 O83 1.272 . S
O74 Co70 2.004 . S
O74 C79 1.259 . S
Co75 O76 2.061 . S
Co75 O81 2.052 . S
Co75 O83 2.135 . S
O76 Co75 2.061 . S
O76 C79 1.235 . S
C77 O80 1.238 . S
C77 O81 1.241 . S
C78 O71 1.247 . S
C78 O72 1.261 . S
C79 O74 1.259 . S
C79 O76 1.235 . S
O80 Co70 2.021 . S
O80 C77 1.238 . S
O81 Co75 2.052 . S
O81 C77 1.241 . S
O82 Co70 2.137 . S
O82 C73 1.247 . S
O83 Co70 2.244 . S
O83 C73 1.272 . S
O83 Co75 2.135 . S
Co84 O85 2.216 . S
Co84 O86 2.091 . S
Co84 O88 2.004 . S
Co84 O94 2.021 . S
Co84 O96 2.137 . S
Co84 O97 2.244 . S
O85 Co84 2.216 . S
O85 C92 1.247 . S
O86 Co84 2.091 . S
O86 C92 1.261 . S
C87 O96 1.247 . S
C87 O97 1.272 . S
O88 Co84 2.004 . S
O88 C93 1.259 . S
Co89 O90 2.061 . S
Co89 O95 2.052 . S
Co89 O97 2.135 . S
O90 Co89 2.061 . S
O90 C93 1.235 . S
C91 O94 1.238 . S
C91 O95 1.241 . S
C92 O85 1.247 . S
C92 O86 1.261 . S
C93 O88 1.259 . S
C93 O90 1.235 . S
O94 Co84 2.021 . S
O94 C91 1.238 . S
O95 Co89 2.052 . S
O95 C91 1.241 . S
O96 Co84 2.137 . S
O96 C87 1.247 . S
O97 Co84 2.244 . S
O97 C87 1.272 . S
O97 Co89 2.135 . S
Co98 O99 2.216 . S
Co98 O100 2.091 . S
Co98 O102 2.004 . S
Co98 O108 2.021 . S
Co98 O110 2.137 . S
Co98 O111 2.244 . S
O99 Co98 2.216 . S
O99 C106 1.247 . S
O100 Co98 2.091 . S
O100 C106 1.261 . S
C101 O110 1.247 . S
C101 O111 1.272 . S
O102 Co98 2.004 . S
O102 C107 1.259 . S
Co103 O104 2.061 . S
Co103 O109 2.052 . S
Co103 O111 2.135 . S
O104 Co103 2.061 . S
O104 C107 1.235 . S
C105 O108 1.238 . S
C105 O109 1.241 . S
C106 O99 1.247 . S
C106 O100 1.261 . S
C107 O102 1.259 . S
C107 O104 1.235 . S
O108 Co98 2.021 . S
O108 C105 1.238 . S
O109 Co103 2.052 . S
O109 C105 1.241 . S
O110 Co98 2.137 . S
O110 C101 1.247 . S
O111 Co98 2.244 . S
O111 C101 1.272 . S
O111 Co103 2.135 . S
Co112 O113 2.216 . S
Co112 O114 2.091 . S
Co112 O116 2.004 . S
Co112 O122 2.021 . S
Co112 O124 2.137 . S
Co112 O125 2.244 . S
O113 Co112 2.216 . S
O113 C120 1.247 . S
O114 Co112 2.091 . S
O114 C120 1.261 . S
C115 O124 1.247 . S
C115 O125 1.272 . S
O116 Co112 2.004 . S
O116 C121 1.259 . S
Co117 O118 2.061 . S
Co117 O123 2.052 . S
Co117 O125 2.135 . S
O118 Co117 2.061 . S
O118 C121 1.235 . S
C119 O122 1.238 . S
C119 O123 1.241 . S
C120 O113 1.247 . S
C120 O114 1.261 . S
C121 O116 1.259 . S
C121 O118 1.235 . S
O122 Co112 2.021 . S
O122 C119 1.238 . S
O123 Co117 2.052 . S
O123 C119 1.241 . S
O124 Co112 2.137 . S
O124 C115 1.247 . S
O125 Co112 2.244 . S
O125 C115 1.272 . S
O125 Co117 2.135 . S
Co126 O127 2.216 . S
Co126 O128 2.091 . S
Co126 O130 2.004 . S
Co126 O136 2.021 . S
Co126 O138 2.137 . S
Co126 O139 2.244 . S
O127 Co126 2.216 . S
O127 C134 1.247 . S
O128 Co126 2.091 . S
O128 C134 1.261 . S
C129 O138 1.247 . S
C129 O139 1.272 . S
O130 Co126 2.004 . S
O130 C135 1.259 . S
Co131 O132 2.061 . S
Co131 O137 2.052 . S
Co131 O139 2.135 . S
O132 Co131 2.061 . S
O132 C135 1.235 . S
C133 O136 1.238 . S
C133 O137 1.241 . S
C134 O127 1.247 . S
C134 O128 1.261 . S
C135 O130 1.259 . S
C135 O132 1.235 . S
O136 Co126 2.021 . S
O136 C133 1.238 . S
O137 Co131 2.052 . S
O137 C133 1.241 . S
O138 Co126 2.137 . S
O138 C129 1.247 . S
O139 Co126 2.244 . S
O139 C129 1.272 . S
O139 Co131 2.135 . S
Co140 O141 2.216 . S
Co140 O142 2.091 . S
Co140 O144 2.004 . S
Co140 O150 2.021 . S
Co140 O152 2.137 . S
Co140 O153 2.244 . S
O141 Co140 2.216 . S
O141 C148 1.247 . S
O142 Co140 2.091 . S
O142 C148 1.261 . S
C143 O152 1.247 . S
C143 O153 1.272 . S
O144 Co140 2.004 . S
O144 C149 1.259 . S
Co145 O146 2.061 . S
Co145 O151 2.052 . S
Co145 O153 2.135 . S
O146 Co145 2.061 . S
O146 C149 1.235 . S
C147 O150 1.238 . S
C147 O151 1.241 . S
C148 O141 1.247 . S
C148 O142 1.261 . S
C149 O144 1.259 . S
C149 O146 1.235 . S
O150 Co140 2.021 . S
O150 C147 1.238 . S
O151 Co145 2.052 . S
O151 C147 1.241 . S
O152 Co140 2.137 . S
O152 C143 1.247 . S
O153 Co140 2.244 . S
O153 C143 1.272 . S
O153 Co145 2.135 . S
Co154 O155 2.216 . S
Co154 O156 2.091 . S
Co154 O158 2.004 . S
Co154 O164 2.021 . S
Co154 O166 2.137 . S
Co154 O167 2.244 . S
O155 Co154 2.216 . S
O155 C162 1.247 . S
O156 Co154 2.091 . S
O156 C162 1.261 . S
C157 O166 1.247 . S
C157 O167 1.272 . S
O158 Co154 2.004 . S
O158 C163 1.259 . S
Co159 O160 2.061 . S
Co159 O165 2.052 . S
Co159 O167 2.135 . S
O160 Co159 2.061 . S
O160 C163 1.235 . S
C161 O164 1.238 . S
C161 O165 1.241 . S
C162 O155 1.247 . S
C162 O156 1.261 . S
C163 O158 1.259 . S
C163 O160 1.235 . S
O164 Co154 2.021 . S
O164 C161 1.238 . S
O165 Co159 2.052 . S
O165 C161 1.241 . S
O166 Co154 2.137 . S
O166 C157 1.247 . S
O167 Co154 2.244 . S
O167 C157 1.272 . S
O167 Co159 2.135 . S
Co168 O169 2.216 . S
Co168 O170 2.091 . S
Co168 O172 2.004 . S
Co168 O178 2.021 . S
Co168 O180 2.137 . S
Co168 O181 2.244 . S
O169 Co168 2.216 . S
O169 C176 1.247 . S
O170 Co168 2.091 . S
O170 C176 1.261 . S
C171 O180 1.247 . S
C171 O181 1.272 . S
O172 Co168 2.004 . S
O172 C177 1.259 . S
Co173 O174 2.061 . S
Co173 O179 2.052 . S
Co173 O181 2.135 . S
O174 Co173 2.061 . S
O174 C177 1.235 . S
C175 O178 1.238 . S
C175 O179 1.241 . S
C176 O169 1.247 . S
C176 O170 1.261 . S
C177 O172 1.259 . S
C177 O174 1.235 . S
O178 Co168 2.021 . S
O178 C175 1.238 . S
O179 Co173 2.052 . S
O179 C175 1.241 . S
O180 Co168 2.137 . S
O180 C171 1.247 . S
O181 Co168 2.244 . S
O181 C171 1.272 . S
O181 Co173 2.135 . S
Co182 O183 2.216 . S
Co182 O184 2.091 . S
Co182 O186 2.004 . S
Co182 O192 2.021 . S
Co182 O194 2.137 . S
Co182 O195 2.244 . S
O183 Co182 2.216 . S
O183 C190 1.247 . S
O184 Co182 2.091 . S
O184 C190 1.261 . S
C185 O194 1.247 . S
C185 O195 1.272 . S
O186 Co182 2.004 . S
O186 C191 1.259 . S
Co187 O188 2.061 . S
Co187 O193 2.052 . S
Co187 O195 2.135 . S
O188 Co187 2.061 . S
O188 C191 1.235 . S
C189 O192 1.238 . S
C189 O193 1.241 . S
C190 O183 1.247 . S
C190 O184 1.261 . S
C191 O186 1.259 . S
C191 O188 1.235 . S
O192 Co182 2.021 . S
O192 C189 1.238 . S
O193 Co187 2.052 . S
O193 C189 1.241 . S
O194 Co182 2.137 . S
O194 C185 1.247 . S
O195 Co182 2.244 . S
O195 C185 1.272 . S
O195 Co187 2.135 . S
Co196 O197 2.216 . S
Co196 O198 2.091 . S
Co196 O200 2.004 . S
Co196 O206 2.021 . S
Co196 O208 2.137 . S
Co196 O209 2.244 . S
O197 Co196 2.216 . S
O197 C204 1.247 . S
O198 Co196 2.091 . S
O198 C204 1.261 . S
C199 O208 1.247 . S
C199 O209 1.272 . S
O200 Co196 2.004 . S
O200 C205 1.259 . S
Co201 O202 2.061 . S
Co201 O207 2.052 . S
Co201 O209 2.135 . S
O202 Co201 2.061 . S
O202 C205 1.235 . S
C203 O206 1.238 . S
C203 O207 1.241 . S
C204 O197 1.247 . S
C204 O198 1.261 . S
C205 O200 1.259 . S
C205 O202 1.235 . S
O206 Co196 2.021 . S
O206 C203 1.238 . S
O207 Co201 2.052 . S
O207 C203 1.241 . S
O208 Co196 2.137 . S
O208 C199 1.247 . S
O209 Co196 2.244 . S
O209 C199 1.272 . S
O209 Co201 2.135 . S
Co210 O211 2.216 . S
Co210 O212 2.091 . S
Co210 O214 2.004 . S
Co210 O220 2.021 . S
Co210 O222 2.137 . S
Co210 O223 2.244 . S
O211 Co210 2.216 . S
O211 C218 1.247 . S
O212 Co210 2.091 . S
O212 C218 1.261 . S
C213 O222 1.247 . S
C213 O223 1.272 . S
O214 Co210 2.004 . S
O214 C219 1.259 . S
Co215 O216 2.061 . S
Co215 O221 2.052 . S
Co215 O223 2.135 . S
O216 Co215 2.061 . S
O216 C219 1.235 . S
C217 O220 1.238 . S
C217 O221 1.241 . S
C218 O211 1.247 . S
C218 O212 1.261 . S
C219 O214 1.259 . S
C219 O216 1.235 . S
O220 Co210 2.021 . S
O220 C217 1.238 . S
O221 Co215 2.052 . S
O221 C217 1.241 . S
O222 Co210 2.137 . S
O222 C213 1.247 . S
O223 Co210 2.244 . S
O223 C213 1.272 . S
O223 Co215 2.135 . S
Co224 O225 2.216 . S
Co224 O226 2.091 . S
Co224 O228 2.004 . S
Co224 O234 2.021 . S
Co224 O236 2.137 . S
Co224 O237 2.244 . S
O225 Co224 2.216 . S
O225 C232 1.247 . S
O226 Co224 2.091 . S
O226 C232 1.261 . S
C227 O236 1.247 . S
C227 O237 1.272 . S
O228 Co224 2.004 . S
O228 C233 1.259 . S
Co229 O230 2.061 . S
Co229 O235 2.052 . S
Co229 O237 2.135 . S
O230 Co229 2.061 . S
O230 C233 1.235 . S
C231 O234 1.238 . S
C231 O235 1.241 . S
C232 O225 1.247 . S
C232 O226 1.261 . S
C233 O228 1.259 . S
C233 O230 1.235 . S
O234 Co224 2.021 . S
O234 C231 1.238 . S
O235 Co229 2.052 . S
O235 C231 1.241 . S
O236 Co224 2.137 . S
O236 C227 1.247 . S
O237 Co224 2.244 . S
O237 C227 1.272 . S
O237 Co229 2.135 . S
Co238 O239 2.216 . S
Co238 O240 2.091 . S
Co238 O242 2.004 . S
Co238 O248 2.021 . S
Co238 O250 2.137 . S
Co238 O251 2.244 . S
O239 Co238 2.216 . S
O239 C246 1.247 . S
O240 Co238 2.091 . S
O240 C246 1.261 . S
C241 O250 1.247 . S
C241 O251 1.272 . S
O242 Co238 2.004 . S
O242 C247 1.259 . S
Co243 O244 2.061 . S
Co243 O249 2.052 . S
Co243 O251 2.135 . S
O244 Co243 2.061 . S
O244 C247 1.235 . S
C245 O248 1.238 . S
C245 O249 1.241 . S
C246 O239 1.247 . S
C246 O240 1.261 . S
C247 O242 1.259 . S
C247 O244 1.235 . S
O248 Co238 2.021 . S
O248 C245 1.238 . S
O249 Co243 2.052 . S
O249 C245 1.241 . S
O250 Co238 2.137 . S
O250 C241 1.247 . S
O251 Co238 2.244 . S
O251 C241 1.272 . S
O251 Co243 2.135 . S
Co252 O253 2.216 . S
Co252 O254 2.091 . S
Co252 O256 2.004 . S
Co252 O262 2.021 . S
Co252 O264 2.137 . S
Co252 O265 2.244 . S
O253 Co252 2.216 . S
O253 C260 1.247 . S
O254 Co252 2.091 . S
O254 C260 1.261 . S
C255 O264 1.247 . S
C255 O265 1.272 . S
O256 Co252 2.004 . S
O256 C261 1.259 . S
Co257 O258 2.061 . S
Co257 O263 2.052 . S
Co257 O265 2.135 . S
O258 Co257 2.061 . S
O258 C261 1.235 . S
C259 O262 1.238 . S
C259 O263 1.241 . S
C260 O253 1.247 . S
C260 O254 1.261 . S
C261 O256 1.259 . S
C261 O258 1.235 . S
O262 Co252 2.021 . S
O262 C259 1.238 . S
O263 Co257 2.052 . S
O263 C259 1.241 . S
O264 Co252 2.137 . S
O264 C255 1.247 . S
O265 Co252 2.244 . S
O265 C255 1.272 . S
O265 Co257 2.135 . S
Co266 O267 2.216 . S
Co266 O268 2.091 . S
Co266 O270 2.004 . S
Co266 O276 2.021 . S
Co266 O278 2.137 . S
Co266 O279 2.244 . S
O267 Co266 2.216 . S
O267 C274 1.247 . S
O268 Co266 2.091 . S
O268 C274 1.261 . S
C269 O278 1.247 . S
C269 O279 1.272 . S
O270 Co266 2.004 . S
O270 C275 1.259 . S
Co271 O272 2.061 . S
Co271 O277 2.052 . S
Co271 O279 2.135 . S
O272 Co271 2.061 . S
O272 C275 1.235 . S
C273 O276 1.238 . S
C273 O277 1.241 . S
C274 O267 1.247 . S
C274 O268 1.261 . S
C275 O270 1.259 . S
C275 O272 1.235 . S
O276 Co266 2.021 . S
O276 C273 1.238 . S
O277 Co271 2.052 . S
O277 C273 1.241 . S
O278 Co266 2.137 . S
O278 C269 1.247 . S
O279 Co266 2.244 . S
O279 C269 1.272 . S
O279 Co271 2.135 . S
Co280 O281 2.216 . S
Co280 O282 2.091 . S
Co280 O284 2.004 . S
Co280 O290 2.021 . S
Co280 O292 2.137 . S
Co280 O293 2.244 . S
O281 Co280 2.216 . S
O281 C288 1.247 . S
O282 Co280 2.091 . S
O282 C288 1.261 . S
C283 O292 1.247 . S
C283 O293 1.272 . S
O284 Co280 2.004 . S
O284 C289 1.259 . S
Co285 O286 2.061 . S
Co285 O291 2.052 . S
Co285 O293 2.135 . S
O286 Co285 2.061 . S
O286 C289 1.235 . S
C287 O290 1.238 . S
C287 O291 1.241 . S
C288 O281 1.247 . S
C288 O282 1.261 . S
C289 O284 1.259 . S
C289 O286 1.235 . S
O290 Co280 2.021 . S
O290 C287 1.238 . S
O291 Co285 2.052 . S
O291 C287 1.241 . S
O292 Co280 2.137 . S
O292 C283 1.247 . S
O293 Co280 2.244 . S
O293 C283 1.272 . S
O293 Co285 2.135 . S
Co294 O295 2.216 . S
Co294 O296 2.091 . S
Co294 O298 2.004 . S
Co294 O304 2.021 . S
Co294 O306 2.137 . S
Co294 O307 2.244 . S
O295 Co294 2.216 . S
O295 C302 1.247 . S
O296 Co294 2.091 . S
O296 C302 1.261 . S
C297 O306 1.247 . S
C297 O307 1.272 . S
O298 Co294 2.004 . S
O298 C303 1.259 . S
Co299 O300 2.061 . S
Co299 O305 2.052 . S
Co299 O307 2.135 . S
O300 Co299 2.061 . S
O300 C303 1.235 . S
C301 O304 1.238 . S
C301 O305 1.241 . S
C302 O295 1.247 . S
C302 O296 1.261 . S
C303 O298 1.259 . S
C303 O300 1.235 . S
O304 Co294 2.021 . S
O304 C301 1.238 . S
O305 Co299 2.052 . S
O305 C301 1.241 . S
O306 Co294 2.137 . S
O306 C297 1.247 . S
O307 Co294 2.244 . S
O307 C297 1.272 . S
O307 Co299 2.135 . S
Co308 O309 2.216 . S
Co308 O310 2.091 . S
Co308 O312 2.004 . S
Co308 O318 2.021 . S
Co308 O320 2.137 . S
Co308 O321 2.244 . S
O309 Co308 2.216 . S
O309 C316 1.247 . S
O310 Co308 2.091 . S
O310 C316 1.261 . S
C311 O320 1.247 . S
C311 O321 1.272 . S
O312 Co308 2.004 . S
O312 C317 1.259 . S
Co313 O314 2.061 . S
Co313 O319 2.052 . S
Co313 O321 2.135 . S
O314 Co313 2.061 . S
O314 C317 1.235 . S
C315 O318 1.238 . S
C315 O319 1.241 . S
C316 O309 1.247 . S
C316 O310 1.261 . S
C317 O312 1.259 . S
C317 O314 1.235 . S
O318 Co308 2.021 . S
O318 C315 1.238 . S
O319 Co313 2.052 . S
O319 C315 1.241 . S
O320 Co308 2.137 . S
O320 C311 1.247 . S
O321 Co308 2.244 . S
O321 C311 1.272 . S
O321 Co313 2.135 . S
Co322 O323 2.216 . S
Co322 O324 2.091 . S
Co322 O326 2.004 . S
Co322 O332 2.021 . S
Co322 O334 2.137 . S
Co322 O335 2.244 . S
O323 Co322 2.216 . S
O323 C330 1.247 . S
O324 Co322 2.091 . S
O324 C330 1.261 . S
C325 O334 1.247 . S
C325 O335 1.272 . S
O326 Co322 2.004 . S
O326 C331 1.259 . S
Co327 O328 2.061 . S
Co327 O333 2.052 . S
Co327 O335 2.135 . S
O328 Co327 2.061 . S
O328 C331 1.235 . S
C329 O332 1.238 . S
C329 O333 1.241 . S
C330 O323 1.247 . S
C330 O324 1.261 . S
C331 O326 1.259 . S
C331 O328 1.235 . S
O332 Co322 2.021 . S
O332 C329 1.238 . S
O333 Co327 2.052 . S
O333 C329 1.241 . S
O334 Co322 2.137 . S
O334 C325 1.247 . S
O335 Co322 2.244 . S
O335 C325 1.272 . S
O335 Co327 2.135 . S
Co336 O337 2.216 . S
Co336 O338 2.091 . S
Co336 O340 2.004 . S
Co336 O346 2.021 . S
Co336 O348 2.137 . S
Co336 O349 2.244 . S
O337 Co336 2.216 . S
O337 C344 1.247 . S
O338 Co336 2.091 . S
O338 C344 1.261 . S
C339 O348 1.247 . S
C339 O349 1.272 . S
O340 Co336 2.004 . S
O340 C345 1.259 . S
Co341 O342 2.061 . S
Co341 O347 2.052 . S
Co341 O349 2.135 . S
O342 Co341 2.061 . S
O342 C345 1.235 . S
C343 O346 1.238 . S
C343 O347 1.241 . S
C344 O337 1.247 . S
C344 O338 1.261 . S
C345 O340 1.259 . S
C345 O342 1.235 . S
O346 Co336 2.021 . S
O346 C343 1.238 . S
O347 Co341 2.052 . S
O347 C343 1.241 . S
O348 Co336 2.137 . S
O348 C339 1.247 . S
O349 Co336 2.244 . S
O349 C339 1.272 . S
O349 Co341 2.135 . S
Co350 O351 2.216 . S
Co350 O352 2.091 . S
Co350 O354 2.004 . S
Co350 O360 2.021 . S
Co350 O362 2.137 . S
Co350 O363 2.244 . S
O351 Co350 2.216 . S
O351 C358 1.247 . S
O352 Co350 2.091 . S
O352 C358 1.261 . S
C353 O362 1.247 . S
C353 O363 1.272 . S
O354 Co350 2.004 . S
O354 C359 1.259 . S
Co355 O356 2.061 . S
Co355 O361 2.052 . S
Co355 O363 2.135 . S
O356 Co355 2.061 . S
O356 C359 1.235 . S
C357 O360 1.238 . S
C357 O361 1.241 . S
C358 O351 1.247 . S
C358 O352 1.261 . S
C359 O354 1.259 . S
C359 O356 1.235 . S
O360 Co350 2.021 . S
O360 C357 1.238 . S
O361 Co355 2.052 . S
O361 C357 1.241 . S
O362 Co350 2.137 . S
O362 C353 1.247 . S
O363 Co350 2.244 . S
O363 C353 1.272 . S
O363 Co355 2.135 . S
Co364 O365 2.216 . S
Co364 O366 2.091 . S
Co364 O368 2.004 . S
Co364 O374 2.021 . S
Co364 O376 2.137 . S
Co364 O377 2.244 . S
O365 Co364 2.216 . S
O365 C372 1.247 . S
O366 Co364 2.091 . S
O366 C372 1.261 . S
C367 O376 1.247 . S
C367 O377 1.272 . S
O368 Co364 2.004 . S
O368 C373 1.259 . S
Co369 O370 2.061 . S
Co369 O375 2.052 . S
Co369 O377 2.135 . S
O370 Co369 2.061 . S
O370 C373 1.235 . S
C371 O374 1.238 . S
C371 O375 1.241 . S
C372 O365 1.247 . S
C372 O366 1.261 . S
C373 O368 1.259 . S
C373 O370 1.235 . S
O374 Co364 2.021 . S
O374 C371 1.238 . S
O375 Co369 2.052 . S
O375 C371 1.241 . S
O376 Co364 2.137 . S
O376 C367 1.247 . S
O377 Co364 2.244 . S
O377 C367 1.272 . S
O377 Co369 2.135 . S
Co378 O379 2.216 . S
Co378 O380 2.091 . S
Co378 O382 2.004 . S
Co378 O388 2.021 . S
Co378 O390 2.137 . S
Co378 O391 2.244 . S
O379 Co378 2.216 . S
O379 C386 1.247 . S
O380 Co378 2.091 . S
O380 C386 1.261 . S
C381 O390 1.247 . S
C381 O391 1.272 . S
O382 Co378 2.004 . S
O382 C387 1.259 . S
Co383 O384 2.061 . S
Co383 O389 2.052 . S
Co383 O391 2.135 . S
O384 Co383 2.061 . S
O384 C387 1.235 . S
C385 O388 1.238 . S
C385 O389 1.241 . S
C386 O379 1.247 . S
C386 O380 1.261 . S
C387 O382 1.259 . S
C387 O384 1.235 . S
O388 Co378 2.021 . S
O388 C385 1.238 . S
O389 Co383 2.052 . S
O389 C385 1.241 . S
O390 Co378 2.137 . S
O390 C381 1.247 . S
O391 Co378 2.244 . S
O391 C381 1.272 . S
O391 Co383 2.135 . S
Co392 O393 2.216 . S
Co392 O394 2.091 . S
Co392 O396 2.004 . S
Co392 O402 2.021 . S
Co392 O404 2.137 . S
Co392 O405 2.244 . S
O393 Co392 2.216 . S
O393 C400 1.247 . S
O394 Co392 2.091 . S
O394 C400 1.261 . S
C395 O404 1.247 . S
C395 O405 1.272 . S
O396 Co392 2.004 . S
O396 C401 1.259 . S
Co397 O398 2.061 . S
Co397 O403 2.052 . S
Co397 O405 2.135 . S
O398 Co397 2.061 . S
O398 C401 1.235 . S
C399 O402 1.238 . S
C399 O403 1.241 . S
C400 O393 1.247 . S
C400 O394 1.261 . S
C401 O396 1.259 . S
C401 O398 1.235 . S
O402 Co392 2.021 . S
O402 C399 1.238 . S
O403 Co397 2.052 . S
O403 C399 1.241 . S
O404 Co392 2.137 . S
O404 C395 1.247 . S
O405 Co392 2.244 . S
O405 C395 1.272 . S
O405 Co397 2.135 . S
Co406 O407 2.216 . S
Co406 O408 2.091 . S
Co406 O410 2.004 . S
Co406 O416 2.021 . S
Co406 O418 2.137 . S
Co406 O419 2.244 . S
O407 Co406 2.216 . S
O407 C414 1.247 . S
O408 Co406 2.091 . S
O408 C414 1.261 . S
C409 O418 1.247 . S
C409 O419 1.272 . S
O410 Co406 2.004 . S
O410 C415 1.259 . S
Co411 O412 2.061 . S
Co411 O417 2.052 . S
Co411 O419 2.135 . S
O412 Co411 2.061 . S
O412 C415 1.235 . S
C413 O416 1.238 . S
C413 O417 1.241 . S
C414 O407 1.247 . S
C414 O408 1.261 . S
C415 O410 1.259 . S
C415 O412 1.235 . S
O416 Co406 2.021 . S
O416 C413 1.238 . S
O417 Co411 2.052 . S
O417 C413 1.241 . S
O418 Co406 2.137 . S
O418 C409 1.247 . S
O419 Co406 2.244 . S
O419 C409 1.272 . S
O419 Co411 2.135 . S
Co420 O421 2.216 . S
Co420 O422 2.091 . S
Co420 O424 2.004 . S
Co420 O430 2.021 . S
Co420 O432 2.137 . S
Co420 O433 2.244 . S
O421 Co420 2.216 . S
O421 C428 1.247 . S
O422 Co420 2.091 . S
O422 C428 1.261 . S
C423 O432 1.247 . S
C423 O433 1.272 . S
O424 Co420 2.004 . S
O424 C429 1.259 . S
Co425 O426 2.061 . S
Co425 O431 2.052 . S
Co425 O433 2.135 . S
O426 Co425 2.061 . S
O426 C429 1.235 . S
C427 O430 1.238 . S
C427 O431 1.241 . S
C428 O421 1.247 . S
C428 O422 1.261 . S
C429 O424 1.259 . S
C429 O426 1.235 . S
O430 Co420 2.021 . S
O430 C427 1.238 . S
O431 Co425 2.052 . S
O431 C427 1.241 . S
O432 Co420 2.137 . S
O432 C423 1.247 . S
O433 Co420 2.244 . S
O433 C423 1.272 . S
O433 Co425 2.135 . S
Co434 O435 2.216 . S
Co434 O436 2.091 . S
Co434 O438 2.004 . S
Co434 O444 2.021 . S
Co434 O446 2.137 . S
Co434 O447 2.244 . S
O435 Co434 2.216 . S
O435 C442 1.247 . S
O436 Co434 2.091 . S
O436 C442 1.261 . S
C437 O446 1.247 . S
C437 O447 1.272 . S
O438 Co434 2.004 . S
O438 C443 1.259 . S
Co439 O440 2.061 . S
Co439 O445 2.052 . S
Co439 O447 2.135 . S
O440 Co439 2.061 . S
O440 C443 1.235 . S
C441 O444 1.238 . S
C441 O445 1.241 . S
C442 O435 1.247 . S
C442 O436 1.261 . S
C443 O438 1.259 . S
C443 O440 1.235 . S
O444 Co434 2.021 . S
O444 C441 1.238 . S
O445 Co439 2.052 . S
O445 C441 1.241 . S
O446 Co434 2.137 . S
O446 C437 1.247 . S
O447 Co434 2.244 . S
O447 C437 1.272 . S
O447 Co439 2.135 . S
Co448 O449 2.216 . S
Co448 O450 2.091 . S
Co448 O452 2.004 . S
Co448 O458 2.021 . S
Co448 O460 2.137 . S
Co448 O461 2.244 . S
O449 Co448 2.216 . S
O449 C456 1.247 . S
O450 Co448 2.091 . S
O450 C456 1.261 . S
C451 O460 1.247 . S
C451 O461 1.272 . S
O452 Co448 2.004 . S
O452 C457 1.259 . S
Co453 O454 2.061 . S
Co453 O459 2.052 . S
Co453 O461 2.135 . S
O454 Co453 2.061 . S
O454 C457 1.235 . S
C455 O458 1.238 . S
C455 O459 1.241 . S
C456 O449 1.247 . S
C456 O450 1.261 . S
C457 O452 1.259 . S
C457 O454 1.235 . S
O458 Co448 2.021 . S
O458 C455 1.238 . S
O459 Co453 2.052 . S
O459 C455 1.241 . S
O460 Co448 2.137 . S
O460 C451 1.247 . S
O461 Co448 2.244 . S
O461 C451 1.272 . S
O461 Co453 2.135 . S
Co462 O463 2.216 . S
Co462 O464 2.091 . S
Co462 O466 2.004 . S
Co462 O472 2.021 . S
Co462 O474 2.137 . S
Co462 O475 2.244 . S
O463 Co462 2.216 . S
O463 C470 1.247 . S
O464 Co462 2.091 . S
O464 C470 1.261 . S
C465 O474 1.247 . S
C465 O475 1.272 . S
O466 Co462 2.004 . S
O466 C471 1.259 . S
Co467 O468 2.061 . S
Co467 O473 2.052 . S
Co467 O475 2.135 . S
O468 Co467 2.061 . S
O468 C471 1.235 . S
C469 O472 1.238 . S
C469 O473 1.241 . S
C470 O463 1.247 . S
C470 O464 1.261 . S
C471 O466 1.259 . S
C471 O468 1.235 . S
O472 Co462 2.021 . S
O472 C469 1.238 . S
O473 Co467 2.052 . S
O473 C469 1.241 . S
O474 Co462 2.137 . S
O474 C465 1.247 . S
O475 Co462 2.244 . S
O475 C465 1.272 . S
O475 Co467 2.135 . S
Co476 O477 2.216 . S
Co476 O478 2.091 . S
Co476 O480 2.004 . S
Co476 O486 2.021 . S
Co476 O488 2.137 . S
Co476 O489 2.244 . S
O477 Co476 2.216 . S
O477 C484 1.247 . S
O478 Co476 2.091 . S
O478 C484 1.261 . S
C479 O488 1.247 . S
C479 O489 1.272 . S
O480 Co476 2.004 . S
O480 C485 1.259 . S
Co481 O482 2.061 . S
Co481 O487 2.052 . S
Co481 O489 2.135 . S
O482 Co481 2.061 . S
O482 C485 1.235 . S
C483 O486 1.238 . S
C483 O487 1.241 . S
C484 O477 1.247 . S
C484 O478 1.261 . S
C485 O480 1.259 . S
C485 O482 1.235 . S
O486 Co476 2.021 . S
O486 C483 1.238 . S
O487 Co481 2.052 . S
O487 C483 1.241 . S
O488 Co476 2.137 . S
O488 C479 1.247 . S
O489 Co476 2.244 . S
O489 C479 1.272 . S
O489 Co481 2.135 . S
Co490 O491 2.216 . S
Co490 O492 2.091 . S
Co490 O494 2.004 . S
Co490 O500 2.021 . S
Co490 O502 2.137 . S
Co490 O503 2.244 . S
O491 Co490 2.216 . S
O491 C498 1.247 . S
O492 Co490 2.091 . S
O492 C498 1.261 . S
C493 O502 1.247 . S
C493 O503 1.272 . S
O494 Co490 2.004 . S
O494 C499 1.259 . S
Co495 O496 2.061 . S
Co495 O501 2.052 . S
Co495 O503 2.135 . S
O496 Co495 2.061 . S
O496 C499 1.235 . S
C497 O500 1.238 . S
C497 O501 1.241 . S
C498 O491 1.247 . S
C498 O492 1.261 . S
C499 O494 1.259 . S
C499 O496 1.235 . S
O500 Co490 2.021 . S
O500 C497 1.238 . S
O501 Co495 2.052 . S
O501 C497 1.241 . S
O502 Co490 2.137 . S
O502 C493 1.247 . S
O503 Co490 2.244 . S
O503 C493 1.272 . S
O503 Co495 2.135 . S
H504 C512 0.929 . S
H505 C514 0.930 . S
H506 C516 0.930 . S
H507 C519 0.929 . S
H508 C522 0.932 . S
H509 C524 0.960 . S
H510 C524 0.960 . S
H511 C524 0.960 . S
C512 H504 0.929 . S
C512 C513 1.377 . S
C512 C514 1.384 . S
C513 C512 1.377 . S
C513 C519 1.390 . S
C514 H505 0.930 . S
C514 C512 1.384 . S
C514 C515 1.372 . S
C515 C514 1.372 . S
C515 C516 1.400 . S
C515 C520 1.490 . S
C516 H506 0.930 . S
C516 C515 1.400 . S
C516 C519 1.386 . S
H517 C533 0.930 . S
H518 C534 0.931 . S
C519 H507 0.929 . S
C519 C513 1.390 . S
C519 C516 1.386 . S
C520 C515 1.490 . S
C520 C522 1.383 1_554 S
C520 C523 1.403 . S
H521 C527 0.930 . S
C522 H508 0.932 . S
C522 C520 1.383 1_556 S
C522 C525 1.413 . S
C523 C520 1.403 . S
C523 C524 1.524 . S
C523 C527 1.400 . S
C524 H509 0.960 . S
C524 H510 0.960 . S
C524 H511 0.960 . S
C524 C523 1.524 . S
C525 C522 1.413 . S
C525 C526 1.392 . S
C525 C529 1.495 . S
C526 C525 1.392 . S
C526 C527 1.385 1_556 S
C526 C528 1.478 . S
C527 H521 0.930 . S
C527 C523 1.400 . S
C527 C526 1.385 1_554 S
C528 C526 1.478 . S
C528 C530 1.381 . S
C528 C534 1.383 1_545 S
C529 C525 1.495 . S
C529 H535 0.959 . S
C529 H536 0.961 . S
C529 H537 0.960 . S
C530 C528 1.381 . S
C530 C531 1.394 1_545 S
C530 H538 0.930 . S
C531 C530 1.394 1_565 S
C531 C532 1.383 . S
C531 H539 0.929 . S
C532 C531 1.383 . S
C532 C533 1.377 . S
C533 H517 0.930 . S
C533 C532 1.377 . S
C533 C534 1.379 . S
C534 H518 0.931 . S
C534 C528 1.383 1_565 S
C534 C533 1.379 . S
H535 C529 0.959 . S
H536 C529 0.961 . S
H537 C529 0.960 . S
H538 C530 0.930 . S
H539 C531 0.929 . S
H540 C548 0.929 . S
H541 C550 0.930 . S
H542 C552 0.930 . S
H543 C555 0.929 . S
H544 C558 0.930 . S
H545 C560 0.960 . S
H546 C560 0.960 . S
H547 C560 0.960 . S
C548 H540 0.929 . S
C548 C549 1.377 . S
C548 C550 1.384 . S
C549 C548 1.377 . S
C549 C555 1.390 . S
C550 H541 0.930 . S
C550 C548 1.384 . S
C550 C551 1.372 . S
C551 C550 1.372 . S
C551 C552 1.400 . S
C551 C556 1.490 . S
C552 H542 0.930 . S
C552 C551 1.400 . S
C552 C555 1.386 . S
H553 C569 0.930 . S
H554 C570 0.914 1_655 S
C555 H543 0.929 . S
C555 C549 1.390 . S
C555 C552 1.386 . S
C556 C551 1.490 . S
C556 C558 1.395 1_554 S
C556 C559 1.403 . S
H557 C563 0.930 . S
C558 H544 0.930 . S
C558 C556 1.395 1_556 S
C558 C561 1.403 . S
C559 C556 1.403 . S
C559 C560 1.524 . S
C559 C563 1.400 . S
C560 H545 0.960 . S
C560 H546 0.960 . S
C560 H547 0.960 . S
C560 C559 1.524 . S
C561 C558 1.403 . S
C561 C562 1.392 . S
C561 C565 1.495 . S
C562 C561 1.392 . S
C562 C563 1.385 1_556 S
C562 C564 1.478 . S
C563 H557 0.930 . S
C563 C559 1.400 . S
C563 C562 1.385 1_554 S
C564 C562 1.478 . S
C564 C566 1.381 1_655 S
C564 C570 1.389 1_655 S
C565 C561 1.495 . S
C565 H571 0.959 . S
C565 H572 0.961 . S
C565 H573 0.960 . S
C566 C564 1.381 1_455 S
C566 C567 1.394 . S
C566 H574 0.930 . S
C567 C566 1.394 . S
C567 C568 1.383 . S
C567 H575 0.929 . S
C568 C567 1.383 . S
C568 C569 1.377 . S
C569 H553 0.930 . S
C569 C568 1.377 . S
C569 C570 1.390 . S
C570 H554 0.914 1_455 S
C570 C564 1.389 1_455 S
C570 C569 1.390 . S
H571 C565 0.959 . S
H572 C565 0.961 . S
H573 C565 0.960 . S
H574 C566 0.930 . S
H575 C567 0.929 . S
H576 C584 0.929 . S
H577 C586 0.930 . S
H578 C588 0.971 . S
H579 C591 0.929 . S
H580 C594 0.930 . S
H581 C596 0.960 . S
H582 C596 0.960 . S
H583 C596 0.960 . S
C584 H576 0.929 . S
C584 C585 1.377 . S
C584 C586 1.384 . S
C585 C584 1.377 . S
C585 C591 1.390 . S
C586 H577 0.930 . S
C586 C584 1.384 . S
C586 C587 1.372 . S
C587 C586 1.372 . S
C587 C588 1.400 . S
C587 C592 1.490 . S
C588 H578 0.971 . S
C588 C587 1.400 . S
C588 C591 1.386 . S
H589 C605 0.930 . S
H590 C606 0.931 . S
C591 H579 0.929 . S
C591 C585 1.390 . S
C591 C588 1.386 . S
C592 C587 1.490 . S
C592 C594 1.395 . S
C592 C595 1.403 1_556 S
H593 C599 0.930 . S
C594 H580 0.930 . S
C594 C592 1.395 . S
C594 C597 1.403 . S
C595 C592 1.403 1_554 S
C595 C596 1.524 . S
C595 C599 1.400 . S
C596 H581 0.960 . S
C596 H582 0.960 . S
C596 H583 0.960 . S
C596 C595 1.524 . S
C597 C594 1.403 . S
C597 C598 1.392 1_556 S
C597 C601 1.495 . S
C598 C597 1.392 1_554 S
C598 C599 1.385 . S
C598 C600 1.478 . S
C599 H593 0.930 . S
C599 C595 1.400 . S
C599 C598 1.385 . S
C600 C598 1.478 . S
C600 C602 1.381 . S
C600 C606 1.383 . S
C601 C597 1.495 . S
C601 H607 0.959 . S
C601 H608 0.961 . S
C601 H609 0.960 . S
C602 C600 1.381 . S
C602 C603 1.394 . S
C602 H610 0.930 . S
C603 C602 1.394 . S
C603 C604 1.383 . S
C603 H611 0.929 . S
C604 C603 1.383 . S
C604 C605 1.377 . S
C605 H589 0.930 . S
C605 C604 1.377 . S
C605 C606 1.379 . S
C606 H590 0.931 . S
C606 C600 1.383 . S
C606 C605 1.379 . S
H607 C601 0.959 . S
H608 C601 0.961 . S
H609 C601 0.960 . S
H610 C602 0.930 . S
H611 C603 0.929 . S
H612 C620 0.929 . S
H613 C622 0.930 1_455 S
H614 C624 0.930 . S
H615 C627 0.929 . S
H616 C630 0.930 . S
H617 C632 0.957 1_455 S
H618 C632 0.960 . S
H619 C632 0.960 . S
C620 H612 0.929 . S
C620 C621 1.377 . S
C620 C622 1.384 . S
C621 C620 1.377 . S
C621 C627 1.390 . S
C622 H613 0.930 1_655 S
C622 C620 1.384 . S
C622 C623 1.372 1_655 S
C623 C622 1.372 1_455 S
C623 C624 1.400 1_455 S
C623 C628 1.490 . S
C624 H614 0.930 . S
C624 C623 1.400 1_655 S
C624 C627 1.386 . S
H625 C641 0.930 . S
H626 C642 0.931 . S
C627 H615 0.929 . S
C627 C621 1.390 . S
C627 C624 1.386 . S
C628 C623 1.490 . S
C628 C630 1.395 . S
C628 C631 1.403 . S
H629 C635 0.930 . S
C630 H616 0.930 . S
C630 C628 1.395 . S
C630 C633 1.403 . S
C631 C628 1.403 . S
C631 C632 1.524 1_455 S
C631 C635 1.400 . S
C632 H617 0.957 1_655 S
C632 H618 0.960 . S
C632 H619 0.960 . S
C632 C631 1.524 1_655 S
C633 C630 1.403 . S
C633 C634 1.392 . S
C633 C637 1.495 . S
C634 C633 1.392 . S
C634 C635 1.385 . S
C634 C636 1.478 . S
C635 H629 0.930 . S
C635 C631 1.400 . S
C635 C634 1.385 . S
C636 C634 1.478 . S
C636 C638 1.381 . S
C636 C642 1.383 . S
C637 C633 1.495 . S
C637 H643 0.959 . S
C637 H644 0.961 . S
C637 H645 0.960 . S
C638 C636 1.381 . S
C638 C639 1.394 . S
C638 H646 0.930 . S
C639 C638 1.394 . S
C639 C640 1.383 . S
C639 H647 0.929 . S
C640 C639 1.383 . S
C640 C641 1.377 . S
C641 H625 0.930 . S
C641 C640 1.377 . S
C641 C642 1.379 . S
C642 H626 0.931 . S
C642 C636 1.383 . S
C642 C641 1.379 . S
H643 C637 0.959 . S
H644 C637 0.961 . S
H645 C637 0.960 . S
H646 C638 0.930 . S
H647 C639 0.929 . S
H648 C656 0.929 . S
H649 C658 0.930 . S
H650 C660 0.930 . S
H651 C663 0.929 . S
H652 C666 0.930 . S
H653 C668 0.960 . S
H654 C668 0.960 . S
H655 C668 0.960 . S
C656 H648 0.929 . S
C656 C657 1.377 . S
C656 C658 1.384 . S
C657 C656 1.377 . S
C657 C663 1.390 . S
C658 H649 0.930 . S
C658 C656 1.384 . S
C658 C659 1.372 . S
C659 C658 1.372 . S
C659 C660 1.400 . S
C659 C664 1.490 . S
C660 H650 0.930 . S
C660 C659 1.400 . S
C660 C663 1.386 . S
H661 C677 0.930 . S
H662 C678 0.931 . S
C663 H651 0.929 . S
C663 C657 1.390 . S
C663 C660 1.386 . S
C664 C659 1.490 . S
C664 C666 1.395 . S
C664 C667 1.403 . S
H665 C671 0.930 . S
C666 H652 0.930 . S
C666 C664 1.395 . S
C666 C669 1.403 . S
C667 C664 1.403 . S
C667 C668 1.524 . S
C667 C671 1.400 . S
C668 H653 0.960 . S
C668 H654 0.960 . S
C668 H655 0.960 . S
C668 C667 1.524 . S
C669 C666 1.403 . S
C669 C670 1.392 . S
C669 C673 1.495 . S
C670 C669 1.392 . S
C670 C671 1.385 . S
C670 C672 1.478 . S
C671 H665 0.930 . S
C671 C667 1.400 . S
C671 C670 1.385 . S
C672 C670 1.478 . S
C672 C674 1.381 . S
C672 C678 1.383 . S
C673 C669 1.495 . S
C673 H679 0.959 . S
C673 H680 0.961 . S
C673 H681 0.960 . S
C674 C672 1.381 . S
C674 C675 1.394 . S
C674 H682 0.930 . S
C675 C674 1.394 . S
C675 C676 1.383 . S
C675 H683 0.929 . S
C676 C675 1.383 . S
C676 C677 1.377 . S
C677 H661 0.930 . S
C677 C676 1.377 . S
C677 C678 1.379 . S
C678 H662 0.931 . S
C678 C672 1.383 . S
C678 C677 1.379 . S
H679 C673 0.959 . S
H680 C673 0.961 . S
H681 C673 0.960 . S
H682 C674 0.930 . S
H683 C675 0.929 . S
H684 C692 0.929 . S
H685 C694 0.930 . S
H686 C696 0.930 . S
H687 C699 0.929 . S
H688 C702 0.930 . S
H689 C704 0.960 . S
H690 C704 0.960 . S
H691 C704 0.960 . S
C692 H684 0.929 . S
C692 C693 1.377 . S
C692 C694 1.384 . S
C693 C692 1.377 . S
C693 C699 1.390 . S
C694 H685 0.930 . S
C694 C692 1.384 . S
C694 C695 1.372 . S
C695 C694 1.372 . S
C695 C696 1.400 . S
C695 C700 1.490 . S
C696 H686 0.930 . S
C696 C695 1.400 . S
C696 C699 1.386 . S
H697 C713 0.930 . S
H698 C714 0.960 . S
C699 H687 0.929 . S
C699 C693 1.390 . S
C699 C696 1.386 . S
C700 C695 1.490 . S
C700 C702 1.395 . S
C700 C703 1.403 . S
H701 C707 0.930 . S
C702 H688 0.930 . S
C702 C700 1.395 . S
C702 C705 1.403 . S
C703 C700 1.403 . S
C703 C704 1.524 . S
C703 C707 1.400 . S
C704 H689 0.960 . S
C704 H690 0.960 . S
C704 H691 0.960 . S
C704 C703 1.524 . S
C705 C702 1.403 . S
C705 C706 1.392 . S
C705 C709 1.495 . S
C706 C705 1.392 . S
C706 C707 1.385 . S
C706 C708 1.478 . S
C707 H701 0.930 . S
C707 C703 1.400 . S
C707 C706 1.385 . S
C708 C706 1.478 . S
C708 C710 1.381 1_565 S
C708 C714 1.372 . S
C709 C705 1.495 . S
C709 H715 0.959 . S
C709 H716 0.961 . S
C709 H717 0.960 . S
C710 C708 1.381 1_545 S
C710 C711 1.394 . S
C710 H718 0.930 . S
C711 C710 1.394 . S
C711 C712 1.383 . S
C711 H719 0.929 . S
C712 C711 1.383 . S
C712 C713 1.377 . S
C713 H697 0.930 . S
C713 C712 1.377 . S
C713 C714 1.362 1_545 S
C714 H698 0.960 . S
C714 C708 1.372 . S
C714 C713 1.362 1_565 S
H715 C709 0.959 . S
H716 C709 0.961 . S
H717 C709 0.960 . S
H718 C710 0.930 . S
H719 C711 0.929 . S
H720 C728 0.929 . S
H721 C730 0.930 . S
H722 C732 0.886 1_556 S
H723 C735 0.929 . S
H724 C738 0.930 . S
H725 C740 0.959 . S
H726 C740 0.960 1_545 S
H727 C740 0.963 1_545 S
C728 H720 0.929 . S
C728 C729 1.377 . S
C728 C730 1.384 1_545 S
C729 C728 1.377 . S
C729 C735 1.390 . S
C730 H721 0.930 . S
C730 C728 1.384 1_565 S
C730 C731 1.372 . S
C731 C730 1.372 . S
C731 C732 1.400 1_565 S
C731 C736 1.490 . S
C732 H722 0.886 1_554 S
C732 C731 1.400 1_545 S
C732 C735 1.386 . S
H733 C749 0.930 . S
H734 C750 0.931 . S
C735 H723 0.929 . S
C735 C729 1.390 . S
C735 C732 1.386 . S
C736 C731 1.490 . S
C736 C738 1.395 . S
C736 C739 1.403 1_554 S
H737 C743 0.930 . S
C738 H724 0.930 . S
C738 C736 1.395 . S
C738 C741 1.403 . S
C739 C736 1.403 1_556 S
C739 C740 1.522 . S
C739 C743 1.400 . S
C740 H725 0.959 . S
C740 H726 0.960 1_565 S
C740 H727 0.963 1_565 S
C740 C739 1.522 . S
C741 C738 1.403 . S
C741 C742 1.392 1_554 S
C741 C745 1.495 . S
C742 C741 1.392 1_556 S
C742 C743 1.385 . S
C742 C744 1.478 . S
C743 H737 0.930 . S
C743 C739 1.400 . S
C743 C742 1.385 . S
C744 C742 1.478 . S
C744 C746 1.381 . S
C744 C750 1.383 . S
C745 C741 1.495 . S
C745 H751 0.959 . S
C745 H752 0.961 1_554 S
C745 H753 0.960 . S
C746 C744 1.381 . S
C746 C747 1.394 . S
C746 H754 0.930 . S
C747 C746 1.394 . S
C747 C748 1.383 . S
C747 H755 0.929 . S
C748 C747 1.383 . S
C748 C749 1.377 . S
C749 H733 0.930 . S
C749 C748 1.377 . S
C749 C750 1.379 . S
C750 H734 0.931 . S
C750 C744 1.383 . S
C750 C749 1.379 . S
H751 C745 0.959 . S
H752 C745 0.961 1_556 S
H753 C745 0.960 . S
H754 C746 0.930 . S
H755 C747 0.929 . S
H756 C764 0.929 . S
H757 C766 0.930 1_556 S
H758 C768 0.930 . S
H759 C771 0.929 . S
H760 C774 0.930 . S
H761 C776 0.960 . S
H762 C776 0.960 . S
H763 C776 0.960 . S
C764 H756 0.929 . S
C764 C765 1.377 . S
C764 C766 1.384 . S
C765 C764 1.377 . S
C765 C771 1.390 . S
C766 H757 0.930 1_554 S
C766 C764 1.384 . S
C766 C767 1.347 1_655 S
C767 C766 1.347 1_455 S
C767 C768 1.405 . S
C767 C772 1.510 . S
C768 H758 0.930 . S
C768 C767 1.405 . S
C768 C771 1.386 1_455 S
H769 C785 0.930 . S
H770 C786 0.931 . S
C771 H759 0.929 . S
C771 C765 1.390 . S
C771 C768 1.386 1_655 S
C772 C767 1.510 . S
C772 C774 1.395 1_554 S
C772 C775 1.403 . S
H773 C779 0.930 . S
C774 H760 0.930 . S
C774 C772 1.395 1_556 S
C774 C777 1.403 . S
C775 C772 1.403 . S
C775 C776 1.524 . S
C775 C779 1.400 1_554 S
C776 H761 0.960 . S
C776 H762 0.960 . S
C776 H763 0.960 . S
C776 C775 1.524 . S
C777 C774 1.403 . S
C777 C778 1.392 . S
C777 C781 1.495 . S
C778 C777 1.392 . S
C778 C779 1.385 . S
C778 C780 1.478 . S
C779 H773 0.930 . S
C779 C775 1.400 1_556 S
C779 C778 1.385 . S
C780 C778 1.478 . S
C780 C782 1.381 . S
C780 C786 1.383 . S
C781 C777 1.495 . S
C781 H787 0.959 . S
C781 H788 0.961 . S
C781 H789 0.960 . S
C782 C780 1.381 . S
C782 C783 1.394 . S
C782 H790 0.930 . S
C783 C782 1.394 . S
C783 C784 1.383 . S
C783 H791 0.929 . S
C784 C783 1.383 . S
C784 C785 1.377 . S
C785 H769 0.930 . S
C785 C784 1.377 . S
C785 C786 1.379 . S
C786 H770 0.931 . S
C786 C780 1.383 . S
C786 C785 1.379 . S
H787 C781 0.959 . S
H788 C781 0.961 . S
H789 C781 0.960 . S
H790 C782 0.930 . S
H791 C783 0.929 . S
H792 C800 0.929 . S
H793 C802 0.930 . S
H794 C804 0.930 . S
H795 C807 0.929 . S
H796 C810 0.929 1_554 S
H797 C812 0.960 . S
H798 C812 0.960 . S
H799 C812 0.960 . S
C800 H792 0.929 . S
C800 C801 1.377 . S
C800 C802 1.384 . S
C801 C800 1.377 . S
C801 C807 1.390 . S
C802 H793 0.930 . S
C802 C800 1.384 . S
C802 C803 1.372 . S
C803 C802 1.372 . S
C803 C804 1.400 . S
C803 C808 1.490 . S
C804 H794 0.930 . S
C804 C803 1.400 . S
C804 C807 1.386 . S
H805 C821 0.930 . S
H806 C822 0.931 . S
C807 H795 0.929 . S
C807 C801 1.390 . S
C807 C804 1.386 . S
C808 C803 1.490 . S
C808 C810 1.395 . S
C808 C811 1.403 . S
H809 C815 0.930 . S
C810 H796 0.929 1_556 S
C810 C808 1.395 . S
C810 C813 1.403 1_556 S
C811 C808 1.403 . S
C811 C812 1.524 . S
C811 C815 1.400 . S
C812 H797 0.960 . S
C812 H798 0.960 . S
C812 H799 0.960 . S
C812 C811 1.524 . S
C813 C810 1.403 1_554 S
C813 C814 1.392 . S
C813 C817 1.495 . S
C814 C813 1.392 . S
C814 C815 1.385 1_554 S
C814 C816 1.478 . S
C815 H809 0.930 . S
C815 C811 1.400 . S
C815 C814 1.385 1_556 S
C816 C814 1.478 . S
C816 C818 1.381 . S
C816 C822 1.383 . S
C817 C813 1.495 . S
C817 H823 0.959 . S
C817 H824 0.961 . S
C817 H825 0.960 . S
C818 C816 1.381 . S
C818 C819 1.394 . S
C818 H826 0.930 . S
C819 C818 1.394 . S
C819 C820 1.383 . S
C819 H827 0.929 . S
C820 C819 1.383 . S
C820 C821 1.377 . S
C821 H805 0.930 . S
C821 C820 1.377 . S
C821 C822 1.379 . S
C822 H806 0.931 . S
C822 C816 1.383 . S
C822 C821 1.379 . S
H823 C817 0.959 . S
H824 C817 0.961 . S
H825 C817 0.960 . S
H826 C818 0.930 . S
H827 C819 0.929 . S
H828 C836 0.929 . S
H829 C838 0.930 . S
H830 C840 0.930 . S
H831 C843 0.929 . S
H832 C846 0.930 . S
H833 C848 0.960 . S
H834 C848 0.960 . S
H835 C848 0.960 . S
C836 H828 0.929 . S
C836 C837 1.377 . S
C836 C838 1.384 . S
C837 C836 1.377 . S
C837 C843 1.390 . S
C838 H829 0.930 . S
C838 C836 1.384 . S
C838 C839 1.372 . S
C839 C838 1.372 . S
C839 C840 1.400 . S
C839 C844 1.490 . S
C840 H830 0.930 . S
C840 C839 1.400 . S
C840 C843 1.386 . S
H841 C857 0.930 . S
H842 C858 0.931 . S
C843 H831 0.929 . S
C843 C837 1.390 . S
C843 C840 1.386 . S
C844 C839 1.490 . S
C844 C846 1.395 . S
C844 C847 1.403 . S
H845 C851 0.930 . S
C846 H832 0.930 . S
C846 C844 1.395 . S
C846 C849 1.403 . S
C847 C844 1.403 . S
C847 C848 1.524 . S
C847 C851 1.400 . S
C848 H833 0.960 . S
C848 H834 0.960 . S
C848 H835 0.960 . S
C848 C847 1.524 . S
C849 C846 1.403 . S
C849 C850 1.392 . S
C849 C853 1.495 . S
C850 C849 1.392 . S
C850 C851 1.385 . S
C850 C852 1.520 . S
C851 H845 0.930 . S
C851 C847 1.400 . S
C851 C850 1.385 . S
C852 C850 1.520 . S
C852 C854 1.386 . S
C852 C858 1.335 1_655 S
C853 C849 1.495 . S
C853 H859 0.959 . S
C853 H860 0.961 . S
C853 H861 0.960 . S
C854 C852 1.386 . S
C854 C855 1.394 1_655 S
C854 H862 0.930 . S
C855 C854 1.394 1_455 S
C855 C856 1.383 . S
C855 H863 0.929 . S
C856 C855 1.383 . S
C856 C857 1.377 . S
C857 H841 0.930 . S
C857 C856 1.377 . S
C857 C858 1.379 . S
C858 H842 0.931 . S
C858 C852 1.335 1_455 S
C858 C857 1.379 . S
H859 C853 0.959 . S
H860 C853 0.961 . S
H861 C853 0.960 . S
H862 C854 0.930 . S
H863 C855 0.929 . S
H864 C872 0.929 . S
H865 C874 0.930 . S
H866 C876 0.930 . S
H867 C879 0.929 . S
H868 C882 0.930 . S
H869 C884 0.960 . S
H870 C884 0.960 . S
H871 C884 0.960 . S
C872 H864 0.929 . S
C872 C873 1.377 . S
C872 C874 1.384 . S
C873 C872 1.377 . S
C873 C879 1.390 . S
C874 H865 0.930 . S
C874 C872 1.384 . S
C874 C875 1.372 . S
C875 C874 1.372 . S
C875 C876 1.400 . S
C875 C880 1.490 . S
C876 H866 0.930 . S
C876 C875 1.400 . S
C876 C879 1.386 . S
H877 C893 0.930 . S
H878 C894 0.931 . S
C879 H867 0.929 . S
C879 C873 1.390 . S
C879 C876 1.386 . S
C880 C875 1.490 . S
C880 C882 1.395 . S
C880 C883 1.403 . S
H881 C887 0.930 . S
C882 H868 0.930 . S
C882 C880 1.395 . S
C882 C885 1.403 . S
C883 C880 1.403 . S
C883 C884 1.524 . S
C883 C887 1.400 . S
C884 H869 0.960 . S
C884 H870 0.960 . S
C884 H871 0.960 . S
C884 C883 1.524 . S
C885 C882 1.403 . S
C885 C886 1.392 . S
C885 C889 1.495 . S
C886 C885 1.392 . S
C886 C887 1.385 . S
C886 C888 1.478 . S
C887 H881 0.930 . S
C887 C883 1.400 . S
C887 C886 1.385 . S
C888 C886 1.478 . S
C888 C890 1.381 . S
C888 C894 1.383 . S
C889 C885 1.495 . S
C889 H895 0.959 . S
C889 H896 0.961 . S
C889 H897 0.960 . S
C890 C888 1.381 . S
C890 C891 1.394 . S
C890 H898 0.930 . S
C891 C890 1.394 . S
C891 C892 1.383 . S
C891 H899 0.929 . S
C892 C891 1.383 . S
C892 C893 1.377 . S
C893 H877 0.930 . S
C893 C892 1.377 . S
C893 C894 1.379 . S
C894 H878 0.931 . S
C894 C888 1.383 . S
C894 C893 1.379 . S
H895 C889 0.959 . S
H896 C889 0.961 . S
H897 C889 0.960 . S
H898 C890 0.930 . S
H899 C891 0.929 . S
H900 C908 0.929 . S
H901 C910 0.930 . S
H902 C912 0.930 . S
H903 C915 0.929 . S
H904 C918 0.930 . S
H905 C920 0.960 . S
H906 C920 0.960 . S
H907 C920 0.960 . S
C908 H900 0.929 . S
C908 C909 1.377 . S
C908 C910 1.384 . S
C909 C908 1.377 . S
C909 C915 1.390 . S
C910 H901 0.930 . S
C910 C908 1.384 . S
C910 C911 1.372 . S
C911 C910 1.372 . S
C911 C912 1.400 . S
C911 C916 1.490 . S
C912 H902 0.930 . S
C912 C911 1.400 . S
C912 C915 1.386 . S
H913 C929 0.930 . S
H914 C930 0.931 . S
C915 H903 0.929 . S
C915 C909 1.390 . S
C915 C912 1.386 . S
C916 C911 1.490 . S
C916 C918 1.395 . S
C916 C919 1.403 . S
H917 C923 0.930 . S
C918 H904 0.930 . S
C918 C916 1.395 . S
C918 C921 1.403 . S
C919 C916 1.403 . S
C919 C920 1.524 . S
C919 C923 1.400 . S
C920 H905 0.960 . S
C920 H906 0.960 . S
C920 H907 0.960 . S
C920 C919 1.524 . S
C921 C918 1.403 . S
C921 C922 1.392 . S
C921 C925 1.495 . S
C922 C921 1.392 . S
C922 C923 1.385 . S
C922 C924 1.507 . S
C923 H917 0.930 . S
C923 C919 1.400 . S
C923 C922 1.385 . S
C924 C922 1.507 . S
C924 C926 1.346 1_545 S
C924 C930 1.387 . S
C925 C921 1.495 . S
C925 H931 0.959 . S
C925 H932 0.961 . S
C925 H933 0.960 . S
C926 C924 1.346 1_565 S
C926 C927 1.394 . S
C926 H934 0.930 . S
C927 C926 1.394 . S
C927 C928 1.383 . S
C927 H935 0.929 . S
C928 C927 1.383 . S
C928 C929 1.377 . S
C929 H913 0.930 . S
C929 C928 1.377 . S
C929 C930 1.379 1_565 S
C930 H914 0.931 . S
C930 C924 1.387 . S
C930 C929 1.379 1_545 S
H931 C925 0.959 . S
H932 C925 0.961 . S
H933 C925 0.960 . S
H934 C926 0.930 . S
H935 C927 0.929 . S
H936 C944 0.929 . S
H937 C946 0.930 . S
H938 C948 0.930 . S
H939 C951 0.929 . S
H940 C954 0.930 . S
H941 C956 0.960 . S
H942 C956 0.960 . S
H943 C956 0.960 . S
C944 H936 0.929 . S
C944 C945 1.377 . S
C944 C946 1.384 . S
C945 C944 1.377 . S
C945 C951 1.390 . S
C946 H937 0.930 . S
C946 C944 1.384 . S
C946 C947 1.372 . S
C947 C946 1.372 . S
C947 C948 1.400 . S
C947 C952 1.490 . S
C948 H938 0.930 . S
C948 C947 1.400 . S
C948 C951 1.386 . S
H949 C965 0.930 . S
H950 C966 0.931 . S
C951 H939 0.929 . S
C951 C945 1.390 . S
C951 C948 1.386 . S
C952 C947 1.490 . S
C952 C954 1.395 . S
C952 C955 1.403 . S
H953 C959 0.930 . S
C954 H940 0.930 . S
C954 C952 1.395 . S
C954 C957 1.403 . S
C955 C952 1.403 . S
C955 C956 1.524 . S
C955 C959 1.400 . S
C956 H941 0.960 . S
C956 H942 0.960 . S
C956 H943 0.960 . S
C956 C955 1.524 . S
C957 C954 1.403 . S
C957 C958 1.392 . S
C957 C961 1.495 . S
C958 C957 1.392 . S
C958 C959 1.385 . S
C958 C960 1.478 . S
C959 H953 0.930 . S
C959 C955 1.400 . S
C959 C958 1.385 . S
C960 C958 1.478 . S
C960 C962 1.381 . S
C960 C966 1.383 . S
C961 C957 1.495 . S
C961 H967 0.959 . S
C961 H968 0.961 . S
C961 H969 0.960 . S
C962 C960 1.381 . S
C962 C963 1.394 . S
C962 H970 0.930 . S
C963 C962 1.394 . S
C963 C964 1.383 . S
C963 H971 0.929 . S
C964 C963 1.383 . S
C964 C965 1.377 . S
C965 H949 0.930 . S
C965 C964 1.377 . S
C965 C966 1.379 . S
C966 H950 0.931 . S
C966 C960 1.383 . S
C966 C965 1.379 . S
H967 C961 0.959 . S
H968 C961 0.961 . S
H969 C961 0.960 . S
H970 C962 0.930 . S
H971 C963 0.929 . S
H972 C980 0.929 . S
H973 C982 0.930 . S
H974 C984 0.930 . S
H975 C987 0.929 . S
H976 C990 0.930 . S
H977 C992 0.960 . S
H978 C992 0.960 . S
H979 C992 0.960 . S
C980 H972 0.929 . S
C980 C981 1.377 . S
C980 C982 1.384 . S
C981 C980 1.377 . S
C981 C987 1.390 . S
C982 H973 0.930 . S
C982 C980 1.384 . S
C982 C983 1.372 . S
C983 C982 1.372 . S
C983 C984 1.400 . S
C983 C988 1.490 . S
C984 H974 0.930 . S
C984 C983 1.400 . S
C984 C987 1.386 . S
H985 C1001 0.930 . S
H986 C1002 0.931 . S
C987 H975 0.929 . S
C987 C981 1.390 . S
C987 C984 1.386 . S
C988 C983 1.490 . S
C988 C990 1.395 . S
C988 C991 1.403 . S
H989 C995 0.930 . S
C990 H976 0.930 . S
C990 C988 1.395 . S
C990 C993 1.403 . S
C991 C988 1.403 . S
C991 C992 1.524 . S
C991 C995 1.400 . S
C992 H977 0.960 . S
C992 H978 0.960 . S
C992 H979 0.960 . S
C992 C991 1.524 . S
C993 C990 1.403 . S
C993 C994 1.392 . S
C993 C997 1.495 . S
C994 C993 1.392 . S
C994 C995 1.385 . S
C994 C996 1.478 . S
C995 H989 0.930 . S
C995 C991 1.400 . S
C995 C994 1.385 . S
C996 C994 1.478 . S
C996 C998 1.381 . S
C996 C1002 1.383 . S
C997 C993 1.495 . S
C997 H1003 0.959 . S
C997 H1004 0.961 . S
C997 H1005 0.960 . S
C998 C996 1.381 . S
C998 C999 1.394 . S
C998 H1006 0.930 . S
C999 C998 1.394 . S
C999 C1000 1.383 . S
C999 H1007 0.929 . S
C1000 C999 1.383 . S
C1000 C1001 1.377 . S
C1001 H985 0.930 . S
C1001 C1000 1.377 . S
C1001 C1002 1.379 . S
C1002 H986 0.931 . S
C1002 C996 1.383 . S
C1002 C1001 1.379 . S
H1003 C997 0.959 . S
H1004 C997 0.961 . S
H1005 C997 0.960 . S
H1006 C998 0.930 . S
H1007 C999 0.929 . S
H1008 C1016 0.929 . S
H1009 C1018 0.930 . S
H1010 C1020 0.930 . S
H1011 C1023 0.929 . S
H1012 C1026 0.930 . S
H1013 C1028 0.960 . S
H1014 C1028 0.960 . S
H1015 C1028 0.960 . S
C1016 H1008 0.929 . S
C1016 C1017 1.377 . S
C1016 C1018 1.384 . S
C1017 C1016 1.377 . S
C1017 C1023 1.390 . S
C1018 H1009 0.930 . S
C1018 C1016 1.384 . S
C1018 C1019 1.372 . S
C1019 C1018 1.372 . S
C1019 C1020 1.400 . S
C1019 C1024 1.490 . S
C1020 H1010 0.930 . S
C1020 C1019 1.400 . S
C1020 C1023 1.386 . S
H1021 C1037 0.930 . S
H1022 C1038 0.931 . S
C1023 H1011 0.929 . S
C1023 C1017 1.390 . S
C1023 C1020 1.386 . S
C1024 C1019 1.490 . S
C1024 C1026 1.395 . S
C1024 C1027 1.403 . S
H1025 C1031 0.930 . S
C1026 H1012 0.930 . S
C1026 C1024 1.395 . S
C1026 C1029 1.403 . S
C1027 C1024 1.403 . S
C1027 C1028 1.524 . S
C1027 C1031 1.400 . S
C1028 H1013 0.960 . S
C1028 H1014 0.960 . S
C1028 H1015 0.960 . S
C1028 C1027 1.524 . S
C1029 C1026 1.403 . S
C1029 C1030 1.392 . S
C1029 C1033 1.495 . S
C1030 C1029 1.392 . S
C1030 C1031 1.385 . S
C1030 C1032 1.478 . S
C1031 H1025 0.930 . S
C1031 C1027 1.400 . S
C1031 C1030 1.385 . S
C1032 C1030 1.478 . S
C1032 C1034 1.381 . S
C1032 C1038 1.383 . S
C1033 C1029 1.495 . S
C1033 H1039 0.959 . S
C1033 H1040 0.961 . S
C1033 H1041 0.960 . S
C1034 C1032 1.381 . S
C1034 C1035 1.394 . S
C1034 H1042 0.930 . S
C1035 C1034 1.394 . S
C1035 C1036 1.383 . S
C1035 H1043 0.929 . S
C1036 C1035 1.383 . S
C1036 C1037 1.377 . S
C1037 H1021 0.930 . S
C1037 C1036 1.377 . S
C1037 C1038 1.379 . S
C1038 H1022 0.931 . S
C1038 C1032 1.383 . S
C1038 C1037 1.379 . S
H1039 C1033 0.959 . S
H1040 C1033 0.961 . S
H1041 C1033 0.960 . S
H1042 C1034 0.930 . S
H1043 C1035 0.929 . S
H1044 C1052 0.929 . S
H1045 C1054 0.930 . S
H1046 C1056 0.930 . S
H1047 C1059 0.929 . S
H1048 C1062 0.930 . S
H1049 C1064 0.960 . S
H1050 C1064 0.960 . S
H1051 C1064 0.960 . S
C1052 H1044 0.929 . S
C1052 C1053 1.377 . S
C1052 C1054 1.384 . S
C1053 C1052 1.377 . S
C1053 C1059 1.390 . S
C1054 H1045 0.930 . S
C1054 C1052 1.384 . S
C1054 C1055 1.372 . S
C1055 C1054 1.372 . S
C1055 C1056 1.400 . S
C1055 C1060 1.490 . S
C1056 H1046 0.930 . S
C1056 C1055 1.400 . S
C1056 C1059 1.386 . S
H1057 C1073 0.930 . S
H1058 C1074 0.931 . S
C1059 H1047 0.929 . S
C1059 C1053 1.390 . S
C1059 C1056 1.386 . S
C1060 C1055 1.490 . S
C1060 C1062 1.395 . S
C1060 C1063 1.403 . S
H1061 C1067 0.930 . S
C1062 H1048 0.930 . S
C1062 C1060 1.395 . S
C1062 C1065 1.403 . S
C1063 C1060 1.403 . S
C1063 C1064 1.524 . S
C1063 C1067 1.400 . S
C1064 H1049 0.960 . S
C1064 H1050 0.960 . S
C1064 H1051 0.960 . S
C1064 C1063 1.524 . S
C1065 C1062 1.403 . S
C1065 C1066 1.392 . S
C1065 C1069 1.495 . S
C1066 C1065 1.392 . S
C1066 C1067 1.385 . S
C1066 C1068 1.478 . S
C1067 H1061 0.930 . S
C1067 C1063 1.400 . S
C1067 C1066 1.385 . S
C1068 C1066 1.478 . S
C1068 C1070 1.381 . S
C1068 C1074 1.383 . S
C1069 C1065 1.495 . S
C1069 H1075 0.959 . S
C1069 H1076 0.961 . S
C1069 H1077 0.960 . S
C1070 C1068 1.381 . S
C1070 C1071 1.394 . S
C1070 H1078 0.930 . S
C1071 C1070 1.394 . S
C1071 C1072 1.383 . S
C1071 H1079 0.929 . S
C1072 C1071 1.383 . S
C1072 C1073 1.377 . S
C1073 H1057 0.930 . S
C1073 C1072 1.377 . S
C1073 C1074 1.379 . S
C1074 H1058 0.931 . S
C1074 C1068 1.383 . S
C1074 C1073 1.379 . S
H1075 C1069 0.959 . S
H1076 C1069 0.961 . S
H1077 C1069 0.960 . S
H1078 C1070 0.930 . S
H1079 C1071 0.929 . S
H1080 C1088 0.929 . S
H1081 C1090 0.930 . S
H1082 C1092 0.930 . S
H1083 C1095 0.929 . S
H1084 C1098 0.930 . S
H1085 C1100 0.960 . S
H1086 C1100 0.960 . S
H1087 C1100 0.960 . S
C1088 H1080 0.929 . S
C1088 C1089 1.377 . S
C1088 C1090 1.384 . S
C1089 C1088 1.377 . S
C1089 C1095 1.390 . S
C1090 H1081 0.930 . S
C1090 C1088 1.384 . S
C1090 C1091 1.372 . S
C1091 C1090 1.372 . S
C1091 C1092 1.400 . S
C1091 C1096 1.490 . S
C1092 H1082 0.930 . S
C1092 C1091 1.400 . S
C1092 C1095 1.386 . S
H1093 C1109 0.930 . S
H1094 C1110 0.931 . S
C1095 H1083 0.929 . S
C1095 C1089 1.390 . S
C1095 C1092 1.386 . S
C1096 C1091 1.490 . S
C1096 C1098 1.395 . S
C1096 C1099 1.403 . S
H1097 C1103 0.930 . S
C1098 H1084 0.930 . S
C1098 C1096 1.395 . S
C1098 C1101 1.403 . S
C1099 C1096 1.403 . S
C1099 C1100 1.524 . S
C1099 C1103 1.400 . S
C1100 H1085 0.960 . S
C1100 H1086 0.960 . S
C1100 H1087 0.960 . S
C1100 C1099 1.524 . S
C1101 C1098 1.403 . S
C1101 C1102 1.392 . S
C1101 C1105 1.495 . S
C1102 C1101 1.392 . S
C1102 C1103 1.385 . S
C1102 C1104 1.478 . S
C1103 H1097 0.930 . S
C1103 C1099 1.400 . S
C1103 C1102 1.385 . S
C1104 C1102 1.478 . S
C1104 C1106 1.381 . S
C1104 C1110 1.383 . S
C1105 C1101 1.495 . S
C1105 H1111 0.959 . S
C1105 H1112 0.961 . S
C1105 H1113 0.960 . S
C1106 C1104 1.381 . S
C1106 C1107 1.394 . S
C1106 H1114 0.930 . S
C1107 C1106 1.394 . S
C1107 C1108 1.383 . S
C1107 H1115 0.929 . S
C1108 C1107 1.383 . S
C1108 C1109 1.377 . S
C1109 H1093 0.930 . S
C1109 C1108 1.377 . S
C1109 C1110 1.379 . S
C1110 H1094 0.931 . S
C1110 C1104 1.383 . S
C1110 C1109 1.379 . S
H1111 C1105 0.959 . S
H1112 C1105 0.961 . S
H1113 C1105 0.960 . S
H1114 C1106 0.930 . S
H1115 C1107 0.929 . S
H1116 C1124 0.929 . S
H1117 C1126 0.930 . S
H1118 C1128 0.930 . S
H1119 C1131 0.929 . S
H1120 C1134 0.930 . S
H1121 C1136 0.960 . S
H1122 C1136 0.960 . S
H1123 C1136 0.960 . S
C1124 H1116 0.929 . S
C1124 C1125 1.377 . S
C1124 C1126 1.384 . S
C1125 C1124 1.377 . S
C1125 C1131 1.390 . S
C1126 H1117 0.930 . S
C1126 C1124 1.384 . S
C1126 C1127 1.372 . S
C1127 C1126 1.372 . S
C1127 C1128 1.400 . S
C1127 C1132 1.490 . S
C1128 H1118 0.930 . S
C1128 C1127 1.400 . S
C1128 C1131 1.386 . S
H1129 C1145 0.930 . S
H1130 C1146 0.931 . S
C1131 H1119 0.929 . S
C1131 C1125 1.390 . S
C1131 C1128 1.386 . S
C1132 C1127 1.490 . S
C1132 C1134 1.395 . S
C1132 C1135 1.403 . S
H1133 C1139 0.930 . S
C1134 H1120 0.930 . S
C1134 C1132 1.395 . S
C1134 C1137 1.403 . S
C1135 C1132 1.403 . S
C1135 C1136 1.524 . S
C1135 C1139 1.400 . S
C1136 H1121 0.960 . S
C1136 H1122 0.960 . S
C1136 H1123 0.960 . S
C1136 C1135 1.524 . S
C1137 C1134 1.403 . S
C1137 C1138 1.392 . S
C1137 C1141 1.495 . S
C1138 C1137 1.392 . S
C1138 C1139 1.385 . S
C1138 C1140 1.478 . S
C1139 H1133 0.930 . S
C1139 C1135 1.400 . S
C1139 C1138 1.385 . S
C1140 C1138 1.478 . S
C1140 C1142 1.381 . S
C1140 C1146 1.383 . S
C1141 C1137 1.495 . S
C1141 H1147 0.959 . S
C1141 H1148 0.961 . S
C1141 H1149 0.960 . S
C1142 C1140 1.381 . S
C1142 C1143 1.394 . S
C1142 H1150 0.930 . S
C1143 C1142 1.394 . S
C1143 C1144 1.383 . S
C1143 H1151 0.929 . S
C1144 C1143 1.383 . S
C1144 C1145 1.377 . S
C1145 H1129 0.930 . S
C1145 C1144 1.377 . S
C1145 C1146 1.379 . S
C1146 H1130 0.931 . S
C1146 C1140 1.383 . S
C1146 C1145 1.379 . S
H1147 C1141 0.959 . S
H1148 C1141 0.961 . S
H1149 C1141 0.960 . S
H1150 C1142 0.930 . S
H1151 C1143 0.929 . S
H1152 C1160 0.929 . S
H1153 C1162 0.930 . S
H1154 C1164 0.930 . S
H1155 C1167 0.929 . S
H1156 C1170 0.930 . S
H1157 C1172 0.960 . S
H1158 C1172 0.960 . S
H1159 C1172 0.960 . S
C1160 H1152 0.929 . S
C1160 C1161 1.377 . S
C1160 C1162 1.384 . S
C1161 C1160 1.377 . S
C1161 C1167 1.390 . S
C1162 H1153 0.930 . S
C1162 C1160 1.384 . S
C1162 C1163 1.372 . S
C1163 C1162 1.372 . S
C1163 C1164 1.400 . S
C1163 C1168 1.490 . S
C1164 H1154 0.930 . S
C1164 C1163 1.400 . S
C1164 C1167 1.386 . S
H1165 C1181 0.930 . S
H1166 C1182 0.931 . S
C1167 H1155 0.929 . S
C1167 C1161 1.390 . S
C1167 C1164 1.386 . S
C1168 C1163 1.490 . S
C1168 C1170 1.395 . S
C1168 C1171 1.403 . S
H1169 C1175 0.930 . S
C1170 H1156 0.930 . S
C1170 C1168 1.395 . S
C1170 C1173 1.403 . S
C1171 C1168 1.403 . S
C1171 C1172 1.524 . S
C1171 C1175 1.400 . S
C1172 H1157 0.960 . S
C1172 H1158 0.960 . S
C1172 H1159 0.960 . S
C1172 C1171 1.524 . S
C1173 C1170 1.403 . S
C1173 C1174 1.392 . S
C1173 C1177 1.495 . S
C1174 C1173 1.392 . S
C1174 C1175 1.385 . S
C1174 C1176 1.478 . S
C1175 H1169 0.930 . S
C1175 C1171 1.400 . S
C1175 C1174 1.385 . S
C1176 C1174 1.478 . S
C1176 C1178 1.381 . S
C1176 C1182 1.383 . S
C1177 C1173 1.495 . S
C1177 H1183 0.959 . S
C1177 H1184 0.961 . S
C1177 H1185 0.960 . S
C1178 C1176 1.381 . S
C1178 C1179 1.394 . S
C1178 H1186 0.930 . S
C1179 C1178 1.394 . S
C1179 C1180 1.383 . S
C1179 H1187 0.929 . S
C1180 C1179 1.383 . S
C1180 C1181 1.377 . S
C1181 H1165 0.930 . S
C1181 C1180 1.377 . S
C1181 C1182 1.379 . S
C1182 H1166 0.931 . S
C1182 C1176 1.383 . S
C1182 C1181 1.379 . S
H1183 C1177 0.959 . S
H1184 C1177 0.961 . S
H1185 C1177 0.960 . S
H1186 C1178 0.930 . S
H1187 C1179 0.929 . S
H1188 C1196 0.929 . S
H1189 C1198 0.930 . S
H1190 C1200 0.930 . S
H1191 C1203 0.929 . S
H1192 C1206 0.930 . S
H1193 C1208 0.960 . S
H1194 C1208 0.960 . S
H1195 C1208 0.960 . S
C1196 H1188 0.929 . S
C1196 C1197 1.377 . S
C1196 C1198 1.384 . S
C1197 C1196 1.377 . S
C1197 C1203 1.390 . S
C1198 H1189 0.930 . S
C1198 C1196 1.384 . S
C1198 C1199 1.372 . S
C1199 C1198 1.372 . S
C1199 C1200 1.400 . S
C1199 C1204 1.490 . S
C1200 H1190 0.930 . S
C1200 C1199 1.400 . S
C1200 C1203 1.386 . S
H1201 C1217 0.930 . S
H1202 C1218 0.931 . S
C1203 H1191 0.929 . S
C1203 C1197 1.390 . S
C1203 C1200 1.386 . S
C1204 C1199 1.490 . S
C1204 C1206 1.395 . S
C1204 C1207 1.403 . S
H1205 C1211 0.930 . S
C1206 H1192 0.930 . S
C1206 C1204 1.395 . S
C1206 C1209 1.403 . S
C1207 C1204 1.403 . S
C1207 C1208 1.524 . S
C1207 C1211 1.400 . S
C1208 H1193 0.960 . S
C1208 H1194 0.960 . S
C1208 H1195 0.960 . S
C1208 C1207 1.524 . S
C1209 C1206 1.403 . S
C1209 C1210 1.392 . S
C1209 C1213 1.495 . S
C1210 C1209 1.392 . S
C1210 C1211 1.385 . S
C1210 C1212 1.478 . S
C1211 H1205 0.930 . S
C1211 C1207 1.400 . S
C1211 C1210 1.385 . S
C1212 C1210 1.478 . S
C1212 C1214 1.381 . S
C1212 C1218 1.383 . S
C1213 C1209 1.495 . S
C1213 H1219 0.959 . S
C1213 H1220 0.961 . S
C1213 H1221 0.960 . S
C1214 C1212 1.381 . S
C1214 C1215 1.394 . S
C1214 H1222 0.930 . S
C1215 C1214 1.394 . S
C1215 C1216 1.383 . S
C1215 H1223 0.929 . S
C1216 C1215 1.383 . S
C1216 C1217 1.377 . S
C1217 H1201 0.930 . S
C1217 C1216 1.377 . S
C1217 C1218 1.379 . S
C1218 H1202 0.931 . S
C1218 C1212 1.383 . S
C1218 C1217 1.379 . S
H1219 C1213 0.959 . S
H1220 C1213 0.961 . S
H1221 C1213 0.960 . S
H1222 C1214 0.930 . S
H1223 C1215 0.929 . S
H1224 C1232 0.929 . S
H1225 C1234 0.930 . S
H1226 C1236 0.930 . S
H1227 C1239 0.929 . S
H1228 C1242 0.930 . S
H1229 C1244 0.960 . S
H1230 C1244 0.960 . S
H1231 C1244 0.960 . S
C1232 H1224 0.929 . S
C1232 C1233 1.377 . S
C1232 C1234 1.384 . S
C1233 C1232 1.377 . S
C1233 C1239 1.390 . S
C1234 H1225 0.930 . S
C1234 C1232 1.384 . S
C1234 C1235 1.372 . S
C1235 C1234 1.372 . S
C1235 C1236 1.400 . S
C1235 C1240 1.490 . S
C1236 H1226 0.930 . S
C1236 C1235 1.400 . S
C1236 C1239 1.386 . S
H1237 C1253 0.930 . S
H1238 C1254 0.931 . S
C1239 H1227 0.929 . S
C1239 C1233 1.390 . S
C1239 C1236 1.386 . S
C1240 C1235 1.490 . S
C1240 C1242 1.395 . S
C1240 C1243 1.403 . S
H1241 C1247 0.930 . S
C1242 H1228 0.930 . S
C1242 C1240 1.395 . S
C1242 C1245 1.403 . S
C1243 C1240 1.403 . S
C1243 C1244 1.524 . S
C1243 C1247 1.400 . S
C1244 H1229 0.960 . S
C1244 H1230 0.960 . S
C1244 H1231 0.960 . S
C1244 C1243 1.524 . S
C1245 C1242 1.403 . S
C1245 C1246 1.392 . S
C1245 C1249 1.495 . S
C1246 C1245 1.392 . S
C1246 C1247 1.385 . S
C1246 C1248 1.478 . S
C1247 H1241 0.930 . S
C1247 C1243 1.400 . S
C1247 C1246 1.385 . S
C1248 C1246 1.478 . S
C1248 C1250 1.381 . S
C1248 C1254 1.383 . S
C1249 C1245 1.495 . S
C1249 H1255 0.959 . S
C1249 H1256 0.961 . S
C1249 H1257 0.960 . S
C1250 C1248 1.381 . S
C1250 C1251 1.394 . S
C1250 H1258 0.930 . S
C1251 C1250 1.394 . S
C1251 C1252 1.383 . S
C1251 H1259 0.929 . S
C1252 C1251 1.383 . S
C1252 C1253 1.377 . S
C1253 H1237 0.930 . S
C1253 C1252 1.377 . S
C1253 C1254 1.379 . S
C1254 H1238 0.931 . S
C1254 C1248 1.383 . S
C1254 C1253 1.379 . S
H1255 C1249 0.959 . S
H1256 C1249 0.961 . S
H1257 C1249 0.960 . S
H1258 C1250 0.930 . S
H1259 C1251 0.929 . S
H1260 C1268 0.929 . S
H1261 C1270 0.930 . S
H1262 C1272 0.930 . S
H1263 C1275 0.929 . S
H1264 C1278 0.930 . S
H1265 C1280 0.960 . S
H1266 C1280 0.960 . S
H1267 C1280 0.960 . S
C1268 H1260 0.929 . S
C1268 C1269 1.377 . S
C1268 C1270 1.384 . S
C1269 C1268 1.377 . S
C1269 C1275 1.390 . S
C1270 H1261 0.930 . S
C1270 C1268 1.384 . S
C1270 C1271 1.372 . S
C1271 C1270 1.372 . S
C1271 C1272 1.400 . S
C1271 C1276 1.490 . S
C1272 H1262 0.930 . S
C1272 C1271 1.400 . S
C1272 C1275 1.386 . S
H1273 C1289 0.930 . S
H1274 C1290 0.931 . S
C1275 H1263 0.929 . S
C1275 C1269 1.390 . S
C1275 C1272 1.386 . S
C1276 C1271 1.490 . S
C1276 C1278 1.395 . S
C1276 C1279 1.403 . S
H1277 C1283 0.930 . S
C1278 H1264 0.930 . S
C1278 C1276 1.395 . S
C1278 C1281 1.403 . S
C1279 C1276 1.403 . S
C1279 C1280 1.524 . S
C1279 C1283 1.400 . S
C1280 H1265 0.960 . S
C1280 H1266 0.960 . S
C1280 H1267 0.960 . S
C1280 C1279 1.524 . S
C1281 C1278 1.403 . S
C1281 C1282 1.392 . S
C1281 C1285 1.495 . S
C1282 C1281 1.392 . S
C1282 C1283 1.385 . S
C1282 C1284 1.478 . S
C1283 H1277 0.930 . S
C1283 C1279 1.400 . S
C1283 C1282 1.385 . S
C1284 C1282 1.478 . S
C1284 C1286 1.381 . S
C1284 C1290 1.383 . S
C1285 C1281 1.495 . S
C1285 H1291 0.959 . S
C1285 H1292 0.961 . S
C1285 H1293 0.960 . S
C1286 C1284 1.381 . S
C1286 C1287 1.394 . S
C1286 H1294 0.930 . S
C1287 C1286 1.394 . S
C1287 C1288 1.383 . S
C1287 H1295 0.929 . S
C1288 C1287 1.383 . S
C1288 C1289 1.377 . S
C1289 H1273 0.930 . S
C1289 C1288 1.377 . S
C1289 C1290 1.379 . S
C1290 H1274 0.931 . S
C1290 C1284 1.383 . S
C1290 C1289 1.379 . S
H1291 C1285 0.959 . S
H1292 C1285 0.961 . S
H1293 C1285 0.960 . S
H1294 C1286 0.930 . S
H1295 C1287 0.929 . S
H1296 C1304 0.929 . S
H1297 C1306 0.930 . S
H1298 C1308 0.930 . S
H1299 C1311 0.929 . S
H1300 C1314 0.930 . S
H1301 C1316 0.960 . S
H1302 C1316 0.960 . S
H1303 C1316 0.960 . S
C1304 H1296 0.929 . S
C1304 C1305 1.377 . S
C1304 C1306 1.384 . S
C1305 C1304 1.377 . S
C1305 C1311 1.390 . S
C1306 H1297 0.930 . S
C1306 C1304 1.384 . S
C1306 C1307 1.372 . S
C1307 C1306 1.372 . S
C1307 C1308 1.400 . S
C1307 C1312 1.490 . S
C1308 H1298 0.930 . S
C1308 C1307 1.400 . S
C1308 C1311 1.386 . S
H1309 C1325 0.930 . S
H1310 C1326 0.931 . S
C1311 H1299 0.929 . S
C1311 C1305 1.390 . S
C1311 C1308 1.386 . S
C1312 C1307 1.490 . S
C1312 C1314 1.395 . S
C1312 C1315 1.403 . S
H1313 C1319 0.930 . S
C1314 H1300 0.930 . S
C1314 C1312 1.395 . S
C1314 C1317 1.403 . S
C1315 C1312 1.403 . S
C1315 C1316 1.524 . S
C1315 C1319 1.400 . S
C1316 H1301 0.960 . S
C1316 H1302 0.960 . S
C1316 H1303 0.960 . S
C1316 C1315 1.524 . S
C1317 C1314 1.403 . S
C1317 C1318 1.392 . S
C1317 C1321 1.495 . S
C1318 C1317 1.392 . S
C1318 C1319 1.385 . S
C1318 C1320 1.478 . S
C1319 H1313 0.930 . S
C1319 C1315 1.400 . S
C1319 C1318 1.385 . S
C1320 C1318 1.478 . S
C1320 C1322 1.381 . S
C1320 C1326 1.383 . S
C1321 C1317 1.495 . S
C1321 H1327 0.959 . S
C1321 H1328 0.961 . S
C1321 H1329 0.960 . S
C1322 C1320 1.381 . S
C1322 C1323 1.394 . S
C1322 H1330 0.930 . S
C1323 C1322 1.394 . S
C1323 C1324 1.383 . S
C1323 H1331 0.929 . S
C1324 C1323 1.383 . S
C1324 C1325 1.377 . S
C1325 H1309 0.930 . S
C1325 C1324 1.377 . S
C1325 C1326 1.379 . S
C1326 H1310 0.931 . S
C1326 C1320 1.383 . S
C1326 C1325 1.379 . S
H1327 C1321 0.959 . S
H1328 C1321 0.961 . S
H1329 C1321 0.960 . S
H1330 C1322 0.930 . S
H1331 C1323 0.929 . S
H1332 C1340 0.929 . S
H1333 C1342 0.930 . S
H1334 C1344 0.930 . S
H1335 C1347 0.929 . S
H1336 C1350 0.930 . S
H1337 C1352 0.960 . S
H1338 C1352 0.960 . S
H1339 C1352 0.960 . S
C1340 H1332 0.929 . S
C1340 C1341 1.377 . S
C1340 C1342 1.384 . S
C1341 C1340 1.377 . S
C1341 C1347 1.390 . S
C1342 H1333 0.930 . S
C1342 C1340 1.384 . S
C1342 C1343 1.372 . S
C1343 C1342 1.372 . S
C1343 C1344 1.400 . S
C1343 C1348 1.490 . S
C1344 H1334 0.930 . S
C1344 C1343 1.400 . S
C1344 C1347 1.386 . S
H1345 C1361 0.930 . S
H1346 C1362 0.931 . S
C1347 H1335 0.929 . S
C1347 C1341 1.390 . S
C1347 C1344 1.386 . S
C1348 C1343 1.490 . S
C1348 C1350 1.395 . S
C1348 C1351 1.403 . S
H1349 C1355 0.930 . S
C1350 H1336 0.930 . S
C1350 C1348 1.395 . S
C1350 C1353 1.403 . S
C1351 C1348 1.403 . S
C1351 C1352 1.524 . S
C1351 C1355 1.400 . S
C1352 H1337 0.960 . S
C1352 H1338 0.960 . S
C1352 H1339 0.960 . S
C1352 C1351 1.524 . S
C1353 C1350 1.403 . S
C1353 C1354 1.392 . S
C1353 C1357 1.495 . S
C1354 C1353 1.392 . S
C1354 C1355 1.385 . S
C1354 C1356 1.478 . S
C1355 H1349 0.930 . S
C1355 C1351 1.400 . S
C1355 C1354 1.385 . S
C1356 C1354 1.478 . S
C1356 C1358 1.381 . S
C1356 C1362 1.383 . S
C1357 C1353 1.495 . S
C1357 H1363 0.959 . S
C1357 H1364 0.961 . S
C1357 H1365 0.960 . S
C1358 C1356 1.381 . S
C1358 C1359 1.394 . S
C1358 H1366 0.930 . S
C1359 C1358 1.394 . S
C1359 C1360 1.383 . S
C1359 H1367 0.929 . S
C1360 C1359 1.383 . S
C1360 C1361 1.377 . S
C1361 H1345 0.930 . S
C1361 C1360 1.377 . S
C1361 C1362 1.379 . S
C1362 H1346 0.931 . S
C1362 C1356 1.383 . S
C1362 C1361 1.379 . S
H1363 C1357 0.959 . S
H1364 C1357 0.961 . S
H1365 C1357 0.960 . S
H1366 C1358 0.930 . S
H1367 C1359 0.929 . S
H1368 C1376 0.929 . S
H1369 C1378 0.930 . S
H1370 C1380 0.930 . S
H1371 C1383 0.929 . S
H1372 C1386 0.930 . S
H1373 C1388 0.960 . S
H1374 C1388 0.960 . S
H1375 C1388 0.960 . S
C1376 H1368 0.929 . S
C1376 C1377 1.377 . S
C1376 C1378 1.384 . S
C1377 C1376 1.377 . S
C1377 C1383 1.390 . S
C1378 H1369 0.930 . S
C1378 C1376 1.384 . S
C1378 C1379 1.372 . S
C1379 C1378 1.372 . S
C1379 C1380 1.400 . S
C1379 C1384 1.490 . S
C1380 H1370 0.930 . S
C1380 C1379 1.400 . S
C1380 C1383 1.386 . S
H1381 C1397 0.930 . S
H1382 C1398 0.931 . S
C1383 H1371 0.929 . S
C1383 C1377 1.390 . S
C1383 C1380 1.386 . S
C1384 C1379 1.490 . S
C1384 C1386 1.395 . S
C1384 C1387 1.403 . S
H1385 C1391 0.930 . S
C1386 H1372 0.930 . S
C1386 C1384 1.395 . S
C1386 C1389 1.403 . S
C1387 C1384 1.403 . S
C1387 C1388 1.524 . S
C1387 C1391 1.400 . S
C1388 H1373 0.960 . S
C1388 H1374 0.960 . S
C1388 H1375 0.960 . S
C1388 C1387 1.524 . S
C1389 C1386 1.403 . S
C1389 C1390 1.392 . S
C1389 C1393 1.495 . S
C1390 C1389 1.392 . S
C1390 C1391 1.385 . S
C1390 C1392 1.478 . S
C1391 H1385 0.930 . S
C1391 C1387 1.400 . S
C1391 C1390 1.385 . S
C1392 C1390 1.478 . S
C1392 C1394 1.381 . S
C1392 C1398 1.383 . S
C1393 C1389 1.495 . S
C1393 H1399 0.959 . S
C1393 H1400 0.961 . S
C1393 H1401 0.960 . S
C1394 C1392 1.381 . S
C1394 C1395 1.394 . S
C1394 H1402 0.930 . S
C1395 C1394 1.394 . S
C1395 C1396 1.383 . S
C1395 H1403 0.929 . S
C1396 C1395 1.383 . S
C1396 C1397 1.377 . S
C1397 H1381 0.930 . S
C1397 C1396 1.377 . S
C1397 C1398 1.379 . S
C1398 H1382 0.931 . S
C1398 C1392 1.383 . S
C1398 C1397 1.379 . S
H1399 C1393 0.959 . S
H1400 C1393 0.961 . S
H1401 C1393 0.960 . S
H1402 C1394 0.930 . S
H1403 C1395 0.929 . S
H1404 C1412 0.929 . S
H1405 C1414 0.930 . S
H1406 C1416 0.930 . S
H1407 C1419 0.929 . S
H1408 C1422 0.930 . S
H1409 C1424 0.960 . S
H1410 C1424 0.960 . S
H1411 C1424 0.960 . S
C1412 H1404 0.929 . S
C1412 C1413 1.377 . S
C1412 C1414 1.384 . S
C1413 C1412 1.377 . S
C1413 C1419 1.390 . S
C1414 H1405 0.930 . S
C1414 C1412 1.384 . S
C1414 C1415 1.372 . S
C1415 C1414 1.372 . S
C1415 C1416 1.400 . S
C1415 C1420 1.490 . S
C1416 H1406 0.930 . S
C1416 C1415 1.400 . S
C1416 C1419 1.386 . S
H1417 C1433 0.930 . S
H1418 C1434 0.931 . S
C1419 H1407 0.929 . S
C1419 C1413 1.390 . S
C1419 C1416 1.386 . S
C1420 C1415 1.490 . S
C1420 C1422 1.395 . S
C1420 C1423 1.403 . S
H1421 C1427 0.930 . S
C1422 H1408 0.930 . S
C1422 C1420 1.395 . S
C1422 C1425 1.403 . S
C1423 C1420 1.403 . S
C1423 C1424 1.524 . S
C1423 C1427 1.400 . S
C1424 H1409 0.960 . S
C1424 H1410 0.960 . S
C1424 H1411 0.960 . S
C1424 C1423 1.524 . S
C1425 C1422 1.403 . S
C1425 C1426 1.392 . S
C1425 C1429 1.495 . S
C1426 C1425 1.392 . S
C1426 C1427 1.385 . S
C1426 C1428 1.478 . S
C1427 H1421 0.930 . S
C1427 C1423 1.400 . S
C1427 C1426 1.385 . S
C1428 C1426 1.478 . S
C1428 C1430 1.381 . S
C1428 C1434 1.383 . S
C1429 C1425 1.495 . S
C1429 H1435 0.959 . S
C1429 H1436 0.961 . S
C1429 H1437 0.960 . S
C1430 C1428 1.381 . S
C1430 C1431 1.394 . S
C1430 H1438 0.930 . S
C1431 C1430 1.394 . S
C1431 C1432 1.383 . S
C1431 H1439 0.929 . S
C1432 C1431 1.383 . S
C1432 C1433 1.377 . S
C1433 H1417 0.930 . S
C1433 C1432 1.377 . S
C1433 C1434 1.379 . S
C1434 H1418 0.931 . S
C1434 C1428 1.383 . S
C1434 C1433 1.379 . S
H1435 C1429 0.959 . S
H1436 C1429 0.961 . S
H1437 C1429 0.960 . S
H1438 C1430 0.930 . S
H1439 C1431 0.929 . S
H1440 C1448 0.929 . S
H1441 C1450 0.930 . S
H1442 C1452 0.930 . S
H1443 C1455 0.929 . S
H1444 C1458 0.930 . S
H1445 C1460 0.960 . S
H1446 C1460 0.960 . S
H1447 C1460 0.960 . S
C1448 H1440 0.929 . S
C1448 C1449 1.377 . S
C1448 C1450 1.384 . S
C1449 C1448 1.377 . S
C1449 C1455 1.390 . S
C1450 H1441 0.930 . S
C1450 C1448 1.384 . S
C1450 C1451 1.372 . S
C1451 C1450 1.372 . S
C1451 C1452 1.400 . S
C1451 C1456 1.490 . S
C1452 H1442 0.930 . S
C1452 C1451 1.400 . S
C1452 C1455 1.386 . S
H1453 C1469 0.930 . S
H1454 C1470 0.931 . S
C1455 H1443 0.929 . S
C1455 C1449 1.390 . S
C1455 C1452 1.386 . S
C1456 C1451 1.490 . S
C1456 C1458 1.395 . S
C1456 C1459 1.403 . S
H1457 C1463 0.930 . S
C1458 H1444 0.930 . S
C1458 C1456 1.395 . S
C1458 C1461 1.403 . S
C1459 C1456 1.403 . S
C1459 C1460 1.524 . S
C1459 C1463 1.400 . S
C1460 H1445 0.960 . S
C1460 H1446 0.960 . S
C1460 H1447 0.960 . S
C1460 C1459 1.524 . S
C1461 C1458 1.403 . S
C1461 C1462 1.392 . S
C1461 C1465 1.495 . S
C1462 C1461 1.392 . S
C1462 C1463 1.385 . S
C1462 C1464 1.478 . S
C1463 H1457 0.930 . S
C1463 C1459 1.400 . S
C1463 C1462 1.385 . S
C1464 C1462 1.478 . S
C1464 C1466 1.381 . S
C1464 C1470 1.383 . S
C1465 C1461 1.495 . S
C1465 H1471 0.959 . S
C1465 H1472 0.961 . S
C1465 H1473 0.960 . S
C1466 C1464 1.381 . S
C1466 C1467 1.394 . S
C1466 H1474 0.930 . S
C1467 C1466 1.394 . S
C1467 C1468 1.383 . S
C1467 H1475 0.929 . S
C1468 C1467 1.383 . S
C1468 C1469 1.377 . S
C1469 H1453 0.930 . S
C1469 C1468 1.377 . S
C1469 C1470 1.379 . S
C1470 H1454 0.931 . S
C1470 C1464 1.383 . S
C1470 C1469 1.379 . S
H1471 C1465 0.959 . S
H1472 C1465 0.961 . S
H1473 C1465 0.960 . S
H1474 C1466 0.930 . S
H1475 C1467 0.929 . S
H1476 C1484 0.929 . S
H1477 C1486 0.930 . S
H1478 C1488 0.930 . S
H1479 C1491 0.929 . S
H1480 C1494 0.930 . S
H1481 C1496 0.960 . S
H1482 C1496 0.960 . S
H1483 C1496 0.960 . S
C1484 H1476 0.929 . S
C1484 C1485 1.377 . S
C1484 C1486 1.384 . S
C1485 C1484 1.377 . S
C1485 C1491 1.390 . S
C1486 H1477 0.930 . S
C1486 C1484 1.384 . S
C1486 C1487 1.372 . S
C1487 C1486 1.372 . S
C1487 C1488 1.400 . S
C1487 C1492 1.490 . S
C1488 H1478 0.930 . S
C1488 C1487 1.400 . S
C1488 C1491 1.386 . S
H1489 C1505 0.930 . S
H1490 C1506 0.931 . S
C1491 H1479 0.929 . S
C1491 C1485 1.390 . S
C1491 C1488 1.386 . S
C1492 C1487 1.490 . S
C1492 C1494 1.395 . S
C1492 C1495 1.403 . S
H1493 C1499 0.930 . S
C1494 H1480 0.930 . S
C1494 C1492 1.395 . S
C1494 C1497 1.403 . S
C1495 C1492 1.403 . S
C1495 C1496 1.524 . S
C1495 C1499 1.400 . S
C1496 H1481 0.960 . S
C1496 H1482 0.960 . S
C1496 H1483 0.960 . S
C1496 C1495 1.524 . S
C1497 C1494 1.403 . S
C1497 C1498 1.392 . S
C1497 C1501 1.495 . S
C1498 C1497 1.392 . S
C1498 C1499 1.385 . S
C1498 C1500 1.478 . S
C1499 H1493 0.930 . S
C1499 C1495 1.400 . S
C1499 C1498 1.385 . S
C1500 C1498 1.478 . S
C1500 C1502 1.381 . S
C1500 C1506 1.383 . S
C1501 C1497 1.495 . S
C1501 H1507 0.959 . S
C1501 H1508 0.961 . S
C1501 H1509 0.960 . S
C1502 C1500 1.381 . S
C1502 C1503 1.394 . S
C1502 H1510 0.930 . S
C1503 C1502 1.394 . S
C1503 C1504 1.383 . S
C1503 H1511 0.929 . S
C1504 C1503 1.383 . S
C1504 C1505 1.377 . S
C1505 H1489 0.930 . S
C1505 C1504 1.377 . S
C1505 C1506 1.379 . S
C1506 H1490 0.931 . S
C1506 C1500 1.383 . S
C1506 C1505 1.379 . S
H1507 C1501 0.959 . S
H1508 C1501 0.961 . S
H1509 C1501 0.960 . S
H1510 C1502 0.930 . S
H1511 C1503 0.929 . S
H1512 C1520 0.929 . S
H1513 C1522 0.930 . S
H1514 C1524 0.930 . S
H1515 C1527 0.929 . S
H1516 C1530 0.930 . S
H1517 C1532 0.960 . S
H1518 C1532 0.960 . S
H1519 C1532 0.960 . S
C1520 H1512 0.929 . S
C1520 C1521 1.377 . S
C1520 C1522 1.384 . S
C1521 C1520 1.377 . S
C1521 C1527 1.390 . S
C1522 H1513 0.930 . S
C1522 C1520 1.384 . S
C1522 C1523 1.372 . S
C1523 C1522 1.372 . S
C1523 C1524 1.400 . S
C1523 C1528 1.490 . S
C1524 H1514 0.930 . S
C1524 C1523 1.400 . S
C1524 C1527 1.386 . S
H1525 C1541 0.930 . S
H1526 C1542 0.931 . S
C1527 H1515 0.929 . S
C1527 C1521 1.390 . S
C1527 C1524 1.386 . S
C1528 C1523 1.490 . S
C1528 C1530 1.395 . S
C1528 C1531 1.403 . S
H1529 C1535 0.930 . S
C1530 H1516 0.930 . S
C1530 C1528 1.395 . S
C1530 C1533 1.403 . S
C1531 C1528 1.403 . S
C1531 C1532 1.524 . S
C1531 C1535 1.400 . S
C1532 H1517 0.960 . S
C1532 H1518 0.960 . S
C1532 H1519 0.960 . S
C1532 C1531 1.524 . S
C1533 C1530 1.403 . S
C1533 C1534 1.392 . S
C1533 C1537 1.495 . S
C1534 C1533 1.392 . S
C1534 C1535 1.385 . S
C1534 C1536 1.478 . S
C1535 H1529 0.930 . S
C1535 C1531 1.400 . S
C1535 C1534 1.385 . S
C1536 C1534 1.478 . S
C1536 C1538 1.381 . S
C1536 C1542 1.383 . S
C1537 C1533 1.495 . S
C1537 H1543 0.959 . S
C1537 H1544 0.961 . S
C1537 H1545 0.960 . S
C1538 C1536 1.381 . S
C1538 C1539 1.394 . S
C1538 H1546 0.930 . S
C1539 C1538 1.394 . S
C1539 C1540 1.383 . S
C1539 H1547 0.929 . S
C1540 C1539 1.383 . S
C1540 C1541 1.377 . S
C1541 H1525 0.930 . S
C1541 C1540 1.377 . S
C1541 C1542 1.379 . S
C1542 H1526 0.931 . S
C1542 C1536 1.383 . S
C1542 C1541 1.379 . S
H1543 C1537 0.959 . S
H1544 C1537 0.961 . S
H1545 C1537 0.960 . S
H1546 C1538 0.930 . S
H1547 C1539 0.929 . S
H1548 C1556 0.929 . S
H1549 C1558 0.930 . S
H1550 C1560 0.930 . S
H1551 C1563 0.929 . S
H1552 C1566 0.930 . S
H1553 C1568 0.960 . S
H1554 C1568 0.960 . S
H1555 C1568 0.960 . S
C1556 H1548 0.929 . S
C1556 C1557 1.377 . S
C1556 C1558 1.384 . S
C1557 C1556 1.377 . S
C1557 C1563 1.390 . S
C1558 H1549 0.930 . S
C1558 C1556 1.384 . S
C1558 C1559 1.372 . S
C1559 C1558 1.372 . S
C1559 C1560 1.400 . S
C1559 C1564 1.490 . S
C1560 H1550 0.930 . S
C1560 C1559 1.400 . S
C1560 C1563 1.386 . S
H1561 C1577 0.930 . S
H1562 C1578 0.931 . S
C1563 H1551 0.929 . S
C1563 C1557 1.390 . S
C1563 C1560 1.386 . S
C1564 C1559 1.490 . S
C1564 C1566 1.395 . S
C1564 C1567 1.403 . S
H1565 C1571 0.930 . S
C1566 H1552 0.930 . S
C1566 C1564 1.395 . S
C1566 C1569 1.403 . S
C1567 C1564 1.403 . S
C1567 C1568 1.524 . S
C1567 C1571 1.400 . S
C1568 H1553 0.960 . S
C1568 H1554 0.960 . S
C1568 H1555 0.960 . S
C1568 C1567 1.524 . S
C1569 C1566 1.403 . S
C1569 C1570 1.392 . S
C1569 C1573 1.495 . S
C1570 C1569 1.392 . S
C1570 C1571 1.385 . S
C1570 C1572 1.478 . S
C1571 H1565 0.930 . S
C1571 C1567 1.400 . S
C1571 C1570 1.385 . S
C1572 C1570 1.478 . S
C1572 C1574 1.381 . S
C1572 C1578 1.383 . S
C1573 C1569 1.495 . S
C1573 H1579 0.959 . S
C1573 H1580 0.961 . S
C1573 H1581 0.960 . S
C1574 C1572 1.381 . S
C1574 C1575 1.394 . S
C1574 H1582 0.930 . S
C1575 C1574 1.394 . S
C1575 C1576 1.383 . S
C1575 H1583 0.929 . S
C1576 C1575 1.383 . S
C1576 C1577 1.377 . S
C1577 H1561 0.930 . S
C1577 C1576 1.377 . S
C1577 C1578 1.379 . S
C1578 H1562 0.931 . S
C1578 C1572 1.383 . S
C1578 C1577 1.379 . S
H1579 C1573 0.959 . S
H1580 C1573 0.961 . S
H1581 C1573 0.960 . S
H1582 C1574 0.930 . S
H1583 C1575 0.929 . S
H1584 C1592 0.929 . S
H1585 C1594 0.930 . S
H1586 C1596 0.930 . S
H1587 C1599 0.929 . S
H1588 C1602 0.930 . S
H1589 C1604 0.960 . S
H1590 C1604 0.960 . S
H1591 C1604 0.960 . S
C1592 H1584 0.929 . S
C1592 C1593 1.377 . S
C1592 C1594 1.384 . S
C1593 C1592 1.377 . S
C1593 C1599 1.390 . S
C1594 H1585 0.930 . S
C1594 C1592 1.384 . S
C1594 C1595 1.372 . S
C1595 C1594 1.372 . S
C1595 C1596 1.400 . S
C1595 C1600 1.490 . S
C1596 H1586 0.930 . S
C1596 C1595 1.400 . S
C1596 C1599 1.386 . S
H1597 C1613 0.930 . S
H1598 C1614 0.931 . S
C1599 H1587 0.929 . S
C1599 C1593 1.390 . S
C1599 C1596 1.386 . S
C1600 C1595 1.490 . S
C1600 C1602 1.395 . S
C1600 C1603 1.403 . S
H1601 C1607 0.930 . S
C1602 H1588 0.930 . S
C1602 C1600 1.395 . S
C1602 C1605 1.403 . S
C1603 C1600 1.403 . S
C1603 C1604 1.524 . S
C1603 C1607 1.400 . S
C1604 H1589 0.960 . S
C1604 H1590 0.960 . S
C1604 H1591 0.960 . S
C1604 C1603 1.524 . S
C1605 C1602 1.403 . S
C1605 C1606 1.392 . S
C1605 C1609 1.495 . S
C1606 C1605 1.392 . S
C1606 C1607 1.385 . S
C1606 C1608 1.478 . S
C1607 H1601 0.930 . S
C1607 C1603 1.400 . S
C1607 C1606 1.385 . S
C1608 C1606 1.478 . S
C1608 C1610 1.381 . S
C1608 C1614 1.383 . S
C1609 C1605 1.495 . S
C1609 H1615 0.959 . S
C1609 H1616 0.961 . S
C1609 H1617 0.960 . S
C1610 C1608 1.381 . S
C1610 C1611 1.394 . S
C1610 H1618 0.930 . S
C1611 C1610 1.394 . S
C1611 C1612 1.383 . S
C1611 H1619 0.929 . S
C1612 C1611 1.383 . S
C1612 C1613 1.377 . S
C1613 H1597 0.930 . S
C1613 C1612 1.377 . S
C1613 C1614 1.379 . S
C1614 H1598 0.931 . S
C1614 C1608 1.383 . S
C1614 C1613 1.379 . S
H1615 C1609 0.959 . S
H1616 C1609 0.961 . S
H1617 C1609 0.960 . S
H1618 C1610 0.930 . S
H1619 C1611 0.929 . S
H1620 C1628 0.929 . S
H1621 C1630 0.930 . S
H1622 C1632 0.930 . S
H1623 C1635 0.929 . S
H1624 C1638 0.930 . S
H1625 C1640 0.960 . S
H1626 C1640 0.960 . S
H1627 C1640 0.960 . S
C1628 H1620 0.929 . S
C1628 C1629 1.377 . S
C1628 C1630 1.384 . S
C1629 C1628 1.377 . S
C1629 C1635 1.390 . S
C1630 H1621 0.930 . S
C1630 C1628 1.384 . S
C1630 C1631 1.372 . S
C1631 C1630 1.372 . S
C1631 C1632 1.400 . S
C1631 C1636 1.490 . S
C1632 H1622 0.930 . S
C1632 C1631 1.400 . S
C1632 C1635 1.386 . S
H1633 C1649 0.930 . S
H1634 C1650 0.931 . S
C1635 H1623 0.929 . S
C1635 C1629 1.390 . S
C1635 C1632 1.386 . S
C1636 C1631 1.490 . S
C1636 C1638 1.395 . S
C1636 C1639 1.403 . S
H1637 C1643 0.930 . S
C1638 H1624 0.930 . S
C1638 C1636 1.395 . S
C1638 C1641 1.403 . S
C1639 C1636 1.403 . S
C1639 C1640 1.524 . S
C1639 C1643 1.400 . S
C1640 H1625 0.960 . S
C1640 H1626 0.960 . S
C1640 H1627 0.960 . S
C1640 C1639 1.524 . S
C1641 C1638 1.403 . S
C1641 C1642 1.392 . S
C1641 C1645 1.495 . S
C1642 C1641 1.392 . S
C1642 C1643 1.385 . S
C1642 C1644 1.478 . S
C1643 H1637 0.930 . S
C1643 C1639 1.400 . S
C1643 C1642 1.385 . S
C1644 C1642 1.478 . S
C1644 C1646 1.381 . S
C1644 C1650 1.383 . S
C1645 C1641 1.495 . S
C1645 H1651 0.959 . S
C1645 H1652 0.961 . S
C1645 H1653 0.960 . S
C1646 C1644 1.381 . S
C1646 C1647 1.394 . S
C1646 H1654 0.930 . S
C1647 C1646 1.394 . S
C1647 C1648 1.383 . S
C1647 H1655 0.929 . S
C1648 C1647 1.383 . S
C1648 C1649 1.377 . S
C1649 H1633 0.930 . S
C1649 C1648 1.377 . S
C1649 C1650 1.379 . S
C1650 H1634 0.931 . S
C1650 C1644 1.383 . S
C1650 C1649 1.379 . S
H1651 C1645 0.959 . S
H1652 C1645 0.961 . S
H1653 C1645 0.960 . S
H1654 C1646 0.930 . S
H1655 C1647 0.929 . S
H1656 C1664 0.929 . S
H1657 C1666 0.930 . S
H1658 C1668 0.930 . S
H1659 C1671 0.929 . S
H1660 C1674 0.930 . S
H1661 C1676 0.960 . S
H1662 C1676 0.960 . S
H1663 C1676 0.960 . S
C1664 H1656 0.929 . S
C1664 C1665 1.377 . S
C1664 C1666 1.384 . S
C1665 C1664 1.377 . S
C1665 C1671 1.390 . S
C1666 H1657 0.930 . S
C1666 C1664 1.384 . S
C1666 C1667 1.372 . S
C1667 C1666 1.372 . S
C1667 C1668 1.400 . S
C1667 C1672 1.490 . S
C1668 H1658 0.930 . S
C1668 C1667 1.400 . S
C1668 C1671 1.386 . S
H1669 C1685 0.930 . S
H1670 C1686 0.931 . S
C1671 H1659 0.929 . S
C1671 C1665 1.390 . S
C1671 C1668 1.386 . S
C1672 C1667 1.490 . S
C1672 C1674 1.395 . S
C1672 C1675 1.403 . S
H1673 C1679 0.930 . S
C1674 H1660 0.930 . S
C1674 C1672 1.395 . S
C1674 C1677 1.403 . S
C1675 C1672 1.403 . S
C1675 C1676 1.524 . S
C1675 C1679 1.400 . S
C1676 H1661 0.960 . S
C1676 H1662 0.960 . S
C1676 H1663 0.960 . S
C1676 C1675 1.524 . S
C1677 C1674 1.403 . S
C1677 C1678 1.392 . S
C1677 C1681 1.495 . S
C1678 C1677 1.392 . S
C1678 C1679 1.385 . S
C1678 C1680 1.478 . S
C1679 H1673 0.930 . S
C1679 C1675 1.400 . S
C1679 C1678 1.385 . S
C1680 C1678 1.478 . S
C1680 C1682 1.381 . S
C1680 C1686 1.383 . S
C1681 C1677 1.495 . S
C1681 H1687 0.959 . S
C1681 H1688 0.961 . S
C1681 H1689 0.960 . S
C1682 C1680 1.381 . S
C1682 C1683 1.394 . S
C1682 H1690 0.930 . S
C1683 C1682 1.394 . S
C1683 C1684 1.383 . S
C1683 H1691 0.929 . S
C1684 C1683 1.383 . S
C1684 C1685 1.377 . S
C1685 H1669 0.930 . S
C1685 C1684 1.377 . S
C1685 C1686 1.379 . S
C1686 H1670 0.931 . S
C1686 C1680 1.383 . S
C1686 C1685 1.379 . S
H1687 C1681 0.959 . S
H1688 C1681 0.961 . S
H1689 C1681 0.960 . S
H1690 C1682 0.930 . S
H1691 C1683 0.929 . S
H1692 C1700 0.929 . S
H1693 C1702 0.930 . S
H1694 C1704 0.930 . S
H1695 C1707 0.929 . S
H1696 C1710 0.930 . S
H1697 C1712 0.960 . S
H1698 C1712 0.960 . S
H1699 C1712 0.960 . S
C1700 H1692 0.929 . S
C1700 C1701 1.377 . S
C1700 C1702 1.384 . S
C1701 C1700 1.377 . S
C1701 C1707 1.390 . S
C1702 H1693 0.930 . S
C1702 C1700 1.384 . S
C1702 C1703 1.372 . S
C1703 C1702 1.372 . S
C1703 C1704 1.400 . S
C1703 C1708 1.490 . S
C1704 H1694 0.930 . S
C1704 C1703 1.400 . S
C1704 C1707 1.386 . S
H1705 C1721 0.930 . S
H1706 C1722 0.931 . S
C1707 H1695 0.929 . S
C1707 C1701 1.390 . S
C1707 C1704 1.386 . S
C1708 C1703 1.490 . S
C1708 C1710 1.395 . S
C1708 C1711 1.403 . S
H1709 C1715 0.930 . S
C1710 H1696 0.930 . S
C1710 C1708 1.395 . S
C1710 C1713 1.403 . S
C1711 C1708 1.403 . S
C1711 C1712 1.524 . S
C1711 C1715 1.400 . S
C1712 H1697 0.960 . S
C1712 H1698 0.960 . S
C1712 H1699 0.960 . S
C1712 C1711 1.524 . S
C1713 C1710 1.403 . S
C1713 C1714 1.392 . S
C1713 C1717 1.495 . S
C1714 C1713 1.392 . S
C1714 C1715 1.385 . S
C1714 C1716 1.478 . S
C1715 H1709 0.930 . S
C1715 C1711 1.400 . S
C1715 C1714 1.385 . S
C1716 C1714 1.478 . S
C1716 C1718 1.381 . S
C1716 C1722 1.383 . S
C1717 C1713 1.495 . S
C1717 H1723 0.959 . S
C1717 H1724 0.961 . S
C1717 H1725 0.960 . S
C1718 C1716 1.381 . S
C1718 C1719 1.394 . S
C1718 H1726 0.930 . S
C1719 C1718 1.394 . S
C1719 C1720 1.383 . S
C1719 H1727 0.929 . S
C1720 C1719 1.383 . S
C1720 C1721 1.377 . S
C1721 H1705 0.930 . S
C1721 C1720 1.377 . S
C1721 C1722 1.379 . S
C1722 H1706 0.931 . S
C1722 C1716 1.383 . S
C1722 C1721 1.379 . S
H1723 C1717 0.959 . S
H1724 C1717 0.961 . S
H1725 C1717 0.960 . S
H1726 C1718 0.930 . S
H1727 C1719 0.929 . S
H1728 C1736 0.929 . S
H1729 C1738 0.930 . S
H1730 C1740 0.930 . S
H1731 C1743 0.929 . S
H1732 C1746 0.930 . S
H1733 C1748 0.960 . S
H1734 C1748 0.960 . S
H1735 C1748 0.960 . S
C1736 H1728 0.929 . S
C1736 C1737 1.377 . S
C1736 C1738 1.384 . S
C1737 C1736 1.377 . S
C1737 C1743 1.390 . S
C1738 H1729 0.930 . S
C1738 C1736 1.384 . S
C1738 C1739 1.372 . S
C1739 C1738 1.372 . S
C1739 C1740 1.400 . S
C1739 C1744 1.490 . S
C1740 H1730 0.930 . S
C1740 C1739 1.400 . S
C1740 C1743 1.386 . S
H1741 C1757 0.930 . S
H1742 C1758 0.931 . S
C1743 H1731 0.929 . S
C1743 C1737 1.390 . S
C1743 C1740 1.386 . S
C1744 C1739 1.490 . S
C1744 C1746 1.395 . S
C1744 C1747 1.403 . S
H1745 C1751 0.930 . S
C1746 H1732 0.930 . S
C1746 C1744 1.395 . S
C1746 C1749 1.403 . S
C1747 C1744 1.403 . S
C1747 C1748 1.524 . S
C1747 C1751 1.400 . S
C1748 H1733 0.960 . S
C1748 H1734 0.960 . S
C1748 H1735 0.960 . S
C1748 C1747 1.524 . S
C1749 C1746 1.403 . S
C1749 C1750 1.392 . S
C1749 C1753 1.495 . S
C1750 C1749 1.392 . S
C1750 C1751 1.385 . S
C1750 C1752 1.478 . S
C1751 H1745 0.930 . S
C1751 C1747 1.400 . S
C1751 C1750 1.385 . S
C1752 C1750 1.478 . S
C1752 C1754 1.381 . S
C1752 C1758 1.383 . S
C1753 C1749 1.495 . S
C1753 H1759 0.959 . S
C1753 H1760 0.961 . S
C1753 H1761 0.960 . S
C1754 C1752 1.381 . S
C1754 C1755 1.394 . S
C1754 H1762 0.930 . S
C1755 C1754 1.394 . S
C1755 C1756 1.383 . S
C1755 H1763 0.929 . S
C1756 C1755 1.383 . S
C1756 C1757 1.377 . S
C1757 H1741 0.930 . S
C1757 C1756 1.377 . S
C1757 C1758 1.379 . S
C1758 H1742 0.931 . S
C1758 C1752 1.383 . S
C1758 C1757 1.379 . S
H1759 C1753 0.959 . S
H1760 C1753 0.961 . S
H1761 C1753 0.960 . S
H1762 C1754 0.930 . S
H1763 C1755 0.929 . S
H1764 C1772 0.929 . S
H1765 C1774 0.930 . S
H1766 C1776 0.930 . S
H1767 C1779 0.929 . S
H1768 C1782 0.930 . S
H1769 C1784 0.960 . S
H1770 C1784 0.960 . S
H1771 C1784 0.960 . S
C1772 H1764 0.929 . S
C1772 C1773 1.377 . S
C1772 C1774 1.384 . S
C1773 C1772 1.377 . S
C1773 C1779 1.390 . S
C1774 H1765 0.930 . S
C1774 C1772 1.384 . S
C1774 C1775 1.372 . S
C1775 C1774 1.372 . S
C1775 C1776 1.400 . S
C1775 C1780 1.490 . S
C1776 H1766 0.930 . S
C1776 C1775 1.400 . S
C1776 C1779 1.386 . S
H1777 C1793 0.930 . S
H1778 C1794 0.931 . S
C1779 H1767 0.929 . S
C1779 C1773 1.390 . S
C1779 C1776 1.386 . S
C1780 C1775 1.490 . S
C1780 C1782 1.395 . S
C1780 C1783 1.403 . S
H1781 C1787 0.930 . S
C1782 H1768 0.930 . S
C1782 C1780 1.395 . S
C1782 C1785 1.403 . S
C1783 C1780 1.403 . S
C1783 C1784 1.524 . S
C1783 C1787 1.400 . S
C1784 H1769 0.960 . S
C1784 H1770 0.960 . S
C1784 H1771 0.960 . S
C1784 C1783 1.524 . S
C1785 C1782 1.403 . S
C1785 C1786 1.392 . S
C1785 C1789 1.495 . S
C1786 C1785 1.392 . S
C1786 C1787 1.385 . S
C1786 C1788 1.478 . S
C1787 H1781 0.930 . S
C1787 C1783 1.400 . S
C1787 C1786 1.385 . S
C1788 C1786 1.478 . S
C1788 C1790 1.381 . S
C1788 C1794 1.383 . S
C1789 C1785 1.495 . S
C1789 H1795 0.959 . S
C1789 H1796 0.961 . S
C1789 H1797 0.960 . S
C1790 C1788 1.381 . S
C1790 C1791 1.394 . S
C1790 H1798 0.930 . S
C1791 C1790 1.394 . S
C1791 C1792 1.383 . S
C1791 H1799 0.929 . S
C1792 C1791 1.383 . S
C1792 C1793 1.377 . S
C1793 H1777 0.930 . S
C1793 C1792 1.377 . S
C1793 C1794 1.379 . S
C1794 H1778 0.931 . S
C1794 C1788 1.383 . S
C1794 C1793 1.379 . S
H1795 C1789 0.959 . S
H1796 C1789 0.961 . S
H1797 C1789 0.960 . S
H1798 C1790 0.930 . S
H1799 C1791 0.929 . S
H1800 C1808 0.929 . S
H1801 C1810 0.930 . S
H1802 C1812 0.930 . S
H1803 C1815 0.929 . S
H1804 C1818 0.930 . S
H1805 C1820 0.960 . S
H1806 C1820 0.960 . S
H1807 C1820 0.960 . S
C1808 H1800 0.929 . S
C1808 C1809 1.377 . S
C1808 C1810 1.384 . S
C1809 C1808 1.377 . S
C1809 C1815 1.390 . S
C1810 H1801 0.930 . S
C1810 C1808 1.384 . S
C1810 C1811 1.372 . S
C1811 C1810 1.372 . S
C1811 C1812 1.400 . S
C1811 C1816 1.490 . S
C1812 H1802 0.930 . S
C1812 C1811 1.400 . S
C1812 C1815 1.386 . S
H1813 C1829 0.930 . S
H1814 C1830 0.931 . S
C1815 H1803 0.929 . S
C1815 C1809 1.390 . S
C1815 C1812 1.386 . S
C1816 C1811 1.490 . S
C1816 C1818 1.395 . S
C1816 C1819 1.403 . S
H1817 C1823 0.930 . S
C1818 H1804 0.930 . S
C1818 C1816 1.395 . S
C1818 C1821 1.403 . S
C1819 C1816 1.403 . S
C1819 C1820 1.524 . S
C1819 C1823 1.400 . S
C1820 H1805 0.960 . S
C1820 H1806 0.960 . S
C1820 H1807 0.960 . S
C1820 C1819 1.524 . S
C1821 C1818 1.403 . S
C1821 C1822 1.392 . S
C1821 C1825 1.495 . S
C1822 C1821 1.392 . S
C1822 C1823 1.385 . S
C1822 C1824 1.478 . S
C1823 H1817 0.930 . S
C1823 C1819 1.400 . S
C1823 C1822 1.385 . S
C1824 C1822 1.478 . S
C1824 C1826 1.381 . S
C1824 C1830 1.383 . S
C1825 C1821 1.495 . S
C1825 H1831 0.959 . S
C1825 H1832 0.961 . S
C1825 H1833 0.960 . S
C1826 C1824 1.381 . S
C1826 C1827 1.394 . S
C1826 H1834 0.930 . S
C1827 C1826 1.394 . S
C1827 C1828 1.383 . S
C1827 H1835 0.929 . S
C1828 C1827 1.383 . S
C1828 C1829 1.377 . S
C1829 H1813 0.930 . S
C1829 C1828 1.377 . S
C1829 C1830 1.379 . S
C1830 H1814 0.931 . S
C1830 C1824 1.383 . S
C1830 C1829 1.379 . S
H1831 C1825 0.959 . S
H1832 C1825 0.961 . S
H1833 C1825 0.960 . S
H1834 C1826 0.930 . S
H1835 C1827 0.929 . S
H1836 C1844 0.929 . S
H1837 C1846 0.930 . S
H1838 C1848 0.930 . S
H1839 C1851 0.929 . S
H1840 C1854 0.930 . S
H1841 C1856 0.960 . S
H1842 C1856 0.960 . S
H1843 C1856 0.960 . S
C1844 H1836 0.929 . S
C1844 C1845 1.377 . S
C1844 C1846 1.384 . S
C1845 C1844 1.377 . S
C1845 C1851 1.390 . S
C1846 H1837 0.930 . S
C1846 C1844 1.384 . S
C1846 C1847 1.372 . S
C1847 C1846 1.372 . S
C1847 C1848 1.400 . S
C1847 C1852 1.490 . S
C1848 H1838 0.930 . S
C1848 C1847 1.400 . S
C1848 C1851 1.386 . S
H1849 C1865 0.930 . S
H1850 C1866 0.931 . S
C1851 H1839 0.929 . S
C1851 C1845 1.390 . S
C1851 C1848 1.386 . S
C1852 C1847 1.490 . S
C1852 C1854 1.395 . S
C1852 C1855 1.403 . S
H1853 C1859 0.930 . S
C1854 H1840 0.930 . S
C1854 C1852 1.395 . S
C1854 C1857 1.403 1_565 S
C1855 C1852 1.403 . S
C1855 C1856 1.524 . S
C1855 C1859 1.400 1_565 S
C1856 H1841 0.960 . S
C1856 H1842 0.960 . S
C1856 H1843 0.960 . S
C1856 C1855 1.524 . S
C1857 C1854 1.403 1_545 S
C1857 C1858 1.392 . S
C1857 C1861 1.495 . S
C1858 C1857 1.392 . S
C1858 C1859 1.385 . S
C1858 C1860 1.478 . S
C1859 H1853 0.930 . S
C1859 C1855 1.400 1_545 S
C1859 C1858 1.385 . S
C1860 C1858 1.478 . S
C1860 C1862 1.381 . S
C1860 C1866 1.383 . S
C1861 C1857 1.495 . S
C1861 H1867 0.959 . S
C1861 H1868 0.961 . S
C1861 H1869 0.960 . S
C1862 C1860 1.381 . S
C1862 C1863 1.394 . S
C1862 H1870 0.930 . S
C1863 C1862 1.394 . S
C1863 C1864 1.383 . S
C1863 H1871 0.929 . S
C1864 C1863 1.383 . S
C1864 C1865 1.377 . S
C1865 H1849 0.930 . S
C1865 C1864 1.377 . S
C1865 C1866 1.379 . S
C1866 H1850 0.931 . S
C1866 C1860 1.383 . S
C1866 C1865 1.379 . S
H1867 C1861 0.959 . S
H1868 C1861 0.961 . S
H1869 C1861 0.960 . S
H1870 C1862 0.930 . S
H1871 C1863 0.929 . S
H1872 C1880 0.929 . S
H1873 C1882 0.930 . S
H1874 C1884 0.930 . S
H1875 C1887 0.929 . S
H1876 C1890 0.930 . S
H1877 C1892 0.960 . S
H1878 C1892 0.960 . S
H1879 C1892 0.942 1_655 S
C1880 H1872 0.929 . S
C1880 C1881 1.377 . S
C1880 C1882 1.384 . S
C1881 C1880 1.377 . S
C1881 C1887 1.390 . S
C1882 H1873 0.930 . S
C1882 C1880 1.384 . S
C1882 C1883 1.372 . S
C1883 C1882 1.372 . S
C1883 C1884 1.400 . S
C1883 C1888 1.490 . S
C1884 H1874 0.930 . S
C1884 C1883 1.400 . S
C1884 C1887 1.386 . S
H1885 C1901 0.930 . S
H1886 C1902 0.931 . S
C1887 H1875 0.929 . S
C1887 C1881 1.390 . S
C1887 C1884 1.386 . S
C1888 C1883 1.490 . S
C1888 C1890 1.395 . S
C1888 C1891 1.403 1_655 S
H1889 C1895 0.930 . S
C1890 H1876 0.930 . S
C1890 C1888 1.395 . S
C1890 C1893 1.403 . S
C1891 C1888 1.403 1_455 S
C1891 C1892 1.524 . S
C1891 C1895 1.400 . S
C1892 H1877 0.960 . S
C1892 H1878 0.960 . S
C1892 H1879 0.942 1_455 S
C1892 C1891 1.524 . S
C1893 C1890 1.403 . S
C1893 C1894 1.392 1_655 S
C1893 C1897 1.495 . S
C1894 C1893 1.392 1_455 S
C1894 C1895 1.385 . S
C1894 C1896 1.478 . S
C1895 H1889 0.930 . S
C1895 C1891 1.400 . S
C1895 C1894 1.385 . S
C1896 C1894 1.478 . S
C1896 C1898 1.381 . S
C1896 C1902 1.383 . S
C1897 C1893 1.495 . S
C1897 H1903 0.959 . S
C1897 H1904 0.961 . S
C1897 H1905 0.940 1_655 S
C1898 C1896 1.381 . S
C1898 C1899 1.394 . S
C1898 H1906 0.930 . S
C1899 C1898 1.394 . S
C1899 C1900 1.383 . S
C1899 H1907 0.929 . S
C1900 C1899 1.383 . S
C1900 C1901 1.377 . S
C1901 H1885 0.930 . S
C1901 C1900 1.377 . S
C1901 C1902 1.379 . S
C1902 H1886 0.931 . S
C1902 C1896 1.383 . S
C1902 C1901 1.379 . S
H1903 C1897 0.959 . S
H1904 C1897 0.961 . S
H1905 C1897 0.940 1_455 S
H1906 C1898 0.930 . S
H1907 C1899 0.929 . S
H1908 C1916 0.929 . S
H1909 C1918 0.930 . S
H1910 C1920 0.930 . S
H1911 C1923 0.929 . S
H1912 C1926 0.930 . S
H1913 C1928 0.960 . S
H1914 C1928 0.960 . S
H1915 C1928 0.960 . S
C1916 H1908 0.929 . S
C1916 C1917 1.377 . S
C1916 C1918 1.384 . S
C1917 C1916 1.377 . S
C1917 C1923 1.390 . S
C1918 H1909 0.930 . S
C1918 C1916 1.384 . S
C1918 C1919 1.372 . S
C1919 C1918 1.372 . S
C1919 C1920 1.400 . S
C1919 C1924 1.490 . S
C1920 H1910 0.930 . S
C1920 C1919 1.400 . S
C1920 C1923 1.386 . S
H1921 C1937 0.930 . S
H1922 C1938 0.931 . S
C1923 H1911 0.929 . S
C1923 C1917 1.390 . S
C1923 C1920 1.386 . S
C1924 C1919 1.490 . S
C1924 C1926 1.395 . S
C1924 C1927 1.403 . S
H1925 C1931 0.930 . S
C1926 H1912 0.930 . S
C1926 C1924 1.395 . S
C1926 C1929 1.403 . S
C1927 C1924 1.403 . S
C1927 C1928 1.524 . S
C1927 C1931 1.400 . S
C1928 H1913 0.960 . S
C1928 H1914 0.960 . S
C1928 H1915 0.960 . S
C1928 C1927 1.524 . S
C1929 C1926 1.403 . S
C1929 C1930 1.392 . S
C1929 C1933 1.495 . S
C1930 C1929 1.392 . S
C1930 C1931 1.385 . S
C1930 C1932 1.478 . S
C1931 H1925 0.930 . S
C1931 C1927 1.400 . S
C1931 C1930 1.385 . S
C1932 C1930 1.478 . S
C1932 C1934 1.381 . S
C1932 C1938 1.383 . S
C1933 C1929 1.495 . S
C1933 H1939 0.959 . S
C1933 H1940 0.961 . S
C1933 H1941 0.960 . S
C1934 C1932 1.381 . S
C1934 C1935 1.394 . S
C1934 H1942 0.930 . S
C1935 C1934 1.394 . S
C1935 C1936 1.383 . S
C1935 H1943 0.929 . S
C1936 C1935 1.383 . S
C1936 C1937 1.377 . S
C1937 H1921 0.930 . S
C1937 C1936 1.377 . S
C1937 C1938 1.379 . S
C1938 H1922 0.931 . S
C1938 C1932 1.383 . S
C1938 C1937 1.379 . S
H1939 C1933 0.959 . S
H1940 C1933 0.961 . S
H1941 C1933 0.960 . S
H1942 C1934 0.930 . S
H1943 C1935 0.929 . S
H1944 C1952 0.929 . S
H1945 C1954 0.930 . S
H1946 C1956 0.930 . S
H1947 C1959 0.929 . S
H1948 C1962 0.930 . S
H1949 C1964 0.960 . S
H1950 C1964 0.960 . S
H1951 C1964 0.960 . S
C1952 H1944 0.929 . S
C1952 C1953 1.377 . S
C1952 C1954 1.384 . S
C1953 C1952 1.377 . S
C1953 C1959 1.390 . S
C1954 H1945 0.930 . S
C1954 C1952 1.384 . S
C1954 C1955 1.372 . S
C1955 C1954 1.372 . S
C1955 C1956 1.400 . S
C1955 C1960 1.490 . S
C1956 H1946 0.930 . S
C1956 C1955 1.400 . S
C1956 C1959 1.386 . S
H1957 C1973 0.930 . S
H1958 C1974 0.931 . S
C1959 H1947 0.929 . S
C1959 C1953 1.390 . S
C1959 C1956 1.386 . S
C1960 C1955 1.490 . S
C1960 C1962 1.395 1_545 S
C1960 C1963 1.403 . S
H1961 C1967 0.930 . S
C1962 H1948 0.930 . S
C1962 C1960 1.395 1_565 S
C1962 C1965 1.403 . S
C1963 C1960 1.403 . S
C1963 C1964 1.524 . S
C1963 C1967 1.400 . S
C1964 H1949 0.960 . S
C1964 H1950 0.960 . S
C1964 H1951 0.960 . S
C1964 C1963 1.524 . S
C1965 C1962 1.403 . S
C1965 C1966 1.392 . S
C1965 C1969 1.495 . S
C1966 C1965 1.392 . S
C1966 C1967 1.385 1_565 S
C1966 C1968 1.478 . S
C1967 H1961 0.930 . S
C1967 C1963 1.400 . S
C1967 C1966 1.385 1_545 S
C1968 C1966 1.478 . S
C1968 C1970 1.381 . S
C1968 C1974 1.383 . S
C1969 C1965 1.495 . S
C1969 H1975 0.959 . S
C1969 H1976 0.961 . S
C1969 H1977 0.960 . S
C1970 C1968 1.381 . S
C1970 C1971 1.394 . S
C1970 H1978 0.930 . S
C1971 C1970 1.394 . S
C1971 C1972 1.383 . S
C1971 H1979 0.929 . S
C1972 C1971 1.383 . S
C1972 C1973 1.377 . S
C1973 H1957 0.930 . S
C1973 C1972 1.377 . S
C1973 C1974 1.379 . S
C1974 H1958 0.931 . S
C1974 C1968 1.383 . S
C1974 C1973 1.379 . S
H1975 C1969 0.959 . S
H1976 C1969 0.961 . S
H1977 C1969 0.960 . S
H1978 C1970 0.930 . S
H1979 C1971 0.929 . S
H1980 C1988 0.929 . S
H1981 C1990 0.930 . S
H1982 C1992 0.930 . S
H1983 C1995 0.929 . S
H1984 C1998 0.930 . S
H1985 C2000 0.960 . S
H1986 C2000 0.960 . S
H1987 C2000 0.960 . S
C1988 H1980 0.929 . S
C1988 C1989 1.377 . S
C1988 C1990 1.384 . S
C1989 C1988 1.377 . S
C1989 C1995 1.390 . S
C1990 H1981 0.930 . S
C1990 C1988 1.384 . S
C1990 C1991 1.372 . S
C1991 C1990 1.372 . S
C1991 C1992 1.400 . S
C1991 C1996 1.490 . S
C1992 H1982 0.930 . S
C1992 C1991 1.400 . S
C1992 C1995 1.386 . S
H1993 C2009 0.930 . S
H1994 C2010 0.931 . S
C1995 H1983 0.929 . S
C1995 C1989 1.390 . S
C1995 C1992 1.386 . S
C1996 C1991 1.490 . S
C1996 C1998 1.395 . S
C1996 C1999 1.403 . S
H1997 C2003 0.930 . S
C1998 H1984 0.930 . S
C1998 C1996 1.395 . S
C1998 C2001 1.403 1_655 S
C1999 C1996 1.403 . S
C1999 C2000 1.524 . S
C1999 C2003 1.400 1_655 S
C2000 H1985 0.960 . S
C2000 H1986 0.960 . S
C2000 H1987 0.960 . S
C2000 C1999 1.524 . S
C2001 C1998 1.403 1_455 S
C2001 C2002 1.392 . S
C2001 C2005 1.495 . S
C2002 C2001 1.392 . S
C2002 C2003 1.385 . S
C2002 C2004 1.478 . S
C2003 H1997 0.930 . S
C2003 C1999 1.400 1_455 S
C2003 C2002 1.385 . S
C2004 C2002 1.478 . S
C2004 C2006 1.381 . S
C2004 C2010 1.383 . S
C2005 C2001 1.495 . S
C2005 H2011 0.959 . S
C2005 H2012 0.961 . S
C2005 H2013 0.960 . S
C2006 C2004 1.381 . S
C2006 C2007 1.394 . S
C2006 H2014 0.930 . S
C2007 C2006 1.394 . S
C2007 C2008 1.383 . S
C2007 H2015 0.929 . S
C2008 C2007 1.383 . S
C2008 C2009 1.377 . S
C2009 H1993 0.930 . S
C2009 C2008 1.377 . S
C2009 C2010 1.379 . S
C2010 H1994 0.931 . S
C2010 C2004 1.383 . S
C2010 C2009 1.379 . S
H2011 C2005 0.959 . S
H2012 C2005 0.961 . S
H2013 C2005 0.960 . S
H2014 C2006 0.930 . S
H2015 C2007 0.929 . S
H2016 C2024 0.929 . S
H2017 C2026 0.930 . S
H2018 C2028 0.930 . S
H2019 C2031 0.929 . S
H2020 C2034 0.930 . S
H2021 C2036 0.960 . S
H2022 C2036 0.960 . S
H2023 C2036 0.960 . S
C2024 H2016 0.929 . S
C2024 C2025 1.377 . S
C2024 C2026 1.384 . S
C2025 C2024 1.377 . S
C2025 C2031 1.390 . S
C2026 H2017 0.930 . S
C2026 C2024 1.384 . S
C2026 C2027 1.372 . S
C2027 C2026 1.372 . S
C2027 C2028 1.400 . S
C2027 C2032 1.490 . S
C2028 H2018 0.930 . S
C2028 C2027 1.400 . S
C2028 C2031 1.386 . S
H2029 C2045 0.930 . S
H2030 C2046 0.931 . S
C2031 H2019 0.929 . S
C2031 C2025 1.390 . S
C2031 C2028 1.386 . S
C2032 C2027 1.490 . S
C2032 C2034 1.395 . S
C2032 C2035 1.403 . S
H2033 C2039 0.930 . S
C2034 H2020 0.930 . S
C2034 C2032 1.395 . S
C2034 C2037 1.403 . S
C2035 C2032 1.403 . S
C2035 C2036 1.524 . S
C2035 C2039 1.400 . S
C2036 H2021 0.960 . S
C2036 H2022 0.960 . S
C2036 H2023 0.960 . S
C2036 C2035 1.524 . S
C2037 C2034 1.403 . S
C2037 C2038 1.392 . S
C2037 C2041 1.495 . S
C2038 C2037 1.392 . S
C2038 C2039 1.385 . S
C2038 C2040 1.478 . S
C2039 H2033 0.930 . S
C2039 C2035 1.400 . S
C2039 C2038 1.385 . S
C2040 C2038 1.478 . S
C2040 C2042 1.381 . S
C2040 C2046 1.383 . S
C2041 C2037 1.495 . S
C2041 H2047 0.959 . S
C2041 H2048 0.961 . S
C2041 H2049 0.960 . S
C2042 C2040 1.381 . S
C2042 C2043 1.394 . S
C2042 H2050 0.930 . S
C2043 C2042 1.394 . S
C2043 C2044 1.383 . S
C2043 H2051 0.929 . S
C2044 C2043 1.383 . S
C2044 C2045 1.377 . S
C2045 H2029 0.930 . S
C2045 C2044 1.377 . S
C2045 C2046 1.379 . S
C2046 H2030 0.931 . S
C2046 C2040 1.383 . S
C2046 C2045 1.379 . S
H2047 C2041 0.959 . S
H2048 C2041 0.961 . S
H2049 C2041 0.960 . S
H2050 C2042 0.930 . S
H2051 C2043 0.929 . S
H2052 C2060 0.929 . S
H2053 C2062 0.930 . S
H2054 C2064 0.930 . S
H2055 C2067 0.929 . S
H2056 C2070 0.930 . S
H2057 C2072 0.960 . S
H2058 C2072 0.960 . S
H2059 C2072 0.960 . S
C2060 H2052 0.929 . S
C2060 C2061 1.377 . S
C2060 C2062 1.384 . S
C2061 C2060 1.377 . S
C2061 C2067 1.390 . S
C2062 H2053 0.930 . S
C2062 C2060 1.384 . S
C2062 C2063 1.372 . S
C2063 C2062 1.372 . S
C2063 C2064 1.400 . S
C2063 C2068 1.490 . S
C2064 H2054 0.930 . S
C2064 C2063 1.400 . S
C2064 C2067 1.386 . S
H2065 C2081 0.930 . S
H2066 C2082 0.931 . S
C2067 H2055 0.929 . S
C2067 C2061 1.390 . S
C2067 C2064 1.386 . S
C2068 C2063 1.490 . S
C2068 C2070 1.395 . S
C2068 C2071 1.403 . S
H2069 C2075 0.930 . S
C2070 H2056 0.930 . S
C2070 C2068 1.395 . S
C2070 C2073 1.403 . S
C2071 C2068 1.403 . S
C2071 C2072 1.524 . S
C2071 C2075 1.400 . S
C2072 H2057 0.960 . S
C2072 H2058 0.960 . S
C2072 H2059 0.960 . S
C2072 C2071 1.524 . S
C2073 C2070 1.403 . S
C2073 C2074 1.392 . S
C2073 C2077 1.495 . S
C2074 C2073 1.392 . S
C2074 C2075 1.385 . S
C2074 C2076 1.478 . S
C2075 H2069 0.930 . S
C2075 C2071 1.400 . S
C2075 C2074 1.385 . S
C2076 C2074 1.478 . S
C2076 C2078 1.381 . S
C2076 C2082 1.383 . S
C2077 C2073 1.495 . S
C2077 H2083 0.959 . S
C2077 H2084 0.961 . S
C2077 H2085 0.960 . S
C2078 C2076 1.381 . S
C2078 C2079 1.394 . S
C2078 H2086 0.930 . S
C2079 C2078 1.394 . S
C2079 C2080 1.383 . S
C2079 H2087 0.929 . S
C2080 C2079 1.383 . S
C2080 C2081 1.377 . S
C2081 H2065 0.930 . S
C2081 C2080 1.377 . S
C2081 C2082 1.379 . S
C2082 H2066 0.931 . S
C2082 C2076 1.383 . S
C2082 C2081 1.379 . S
H2083 C2077 0.959 . S
H2084 C2077 0.961 . S
H2085 C2077 0.960 . S
H2086 C2078 0.930 . S
H2087 C2079 0.929 . S
H2088 C2096 0.929 . S
H2089 C2098 0.930 . S
H2090 C2100 0.930 . S
H2091 C2103 0.929 . S
H2092 C2106 0.930 . S
H2093 C2108 0.960 . S
H2094 C2108 0.960 . S
H2095 C2108 0.960 . S
C2096 H2088 0.929 . S
C2096 C2097 1.377 . S
C2096 C2098 1.384 . S
C2097 C2096 1.377 . S
C2097 C2103 1.390 . S
C2098 H2089 0.930 . S
C2098 C2096 1.384 . S
C2098 C2099 1.372 . S
C2099 C2098 1.372 . S
C2099 C2100 1.400 . S
C2099 C2104 1.490 . S
C2100 H2090 0.930 . S
C2100 C2099 1.400 . S
C2100 C2103 1.386 . S
H2101 C2117 0.930 . S
H2102 C2118 0.931 . S
C2103 H2091 0.929 . S
C2103 C2097 1.390 . S
C2103 C2100 1.386 . S
C2104 C2099 1.490 . S
C2104 C2106 1.395 . S
C2104 C2107 1.403 . S
H2105 C2111 0.930 . S
C2106 H2092 0.930 . S
C2106 C2104 1.395 . S
C2106 C2109 1.403 . S
C2107 C2104 1.403 . S
C2107 C2108 1.524 . S
C2107 C2111 1.400 . S
C2108 H2093 0.960 . S
C2108 H2094 0.960 . S
C2108 H2095 0.960 . S
C2108 C2107 1.524 . S
C2109 C2106 1.403 . S
C2109 C2110 1.392 . S
C2109 C2113 1.495 . S
C2110 C2109 1.392 . S
C2110 C2111 1.385 . S
C2110 C2112 1.478 . S
C2111 H2105 0.930 . S
C2111 C2107 1.400 . S
C2111 C2110 1.385 . S
C2112 C2110 1.478 . S
C2112 C2114 1.381 . S
C2112 C2118 1.383 . S
C2113 C2109 1.495 . S
C2113 H2119 0.959 . S
C2113 H2120 0.961 . S
C2113 H2121 0.960 . S
C2114 C2112 1.381 . S
C2114 C2115 1.394 . S
C2114 H2122 0.930 . S
C2115 C2114 1.394 . S
C2115 C2116 1.383 . S
C2115 H2123 0.929 . S
C2116 C2115 1.383 . S
C2116 C2117 1.377 . S
C2117 H2101 0.930 . S
C2117 C2116 1.377 . S
C2117 C2118 1.379 . S
C2118 H2102 0.931 . S
C2118 C2112 1.383 . S
C2118 C2117 1.379 . S
H2119 C2113 0.959 . S
H2120 C2113 0.961 . S
H2121 C2113 0.960 . S
H2122 C2114 0.930 . S
H2123 C2115 0.929 . S
H2124 C2132 0.929 . S
H2125 C2134 0.930 . S
H2126 C2136 0.930 . S
H2127 C2139 0.929 . S
H2128 C2142 0.930 . S
H2129 C2144 0.960 . S
H2130 C2144 0.960 . S
H2131 C2144 0.960 . S
C2132 H2124 0.929 . S
C2132 C2133 1.377 . S
C2132 C2134 1.384 1_556 S
C2133 C2132 1.377 . S
C2133 C2139 1.390 1_556 S
C2134 H2125 0.930 . S
C2134 C2132 1.384 1_554 S
C2134 C2135 1.372 . S
C2135 C2134 1.372 . S
C2135 C2136 1.400 . S
C2135 C2140 1.490 . S
C2136 H2126 0.930 . S
C2136 C2135 1.400 . S
C2136 C2139 1.386 . S
H2137 C2153 0.930 . S
H2138 C2154 0.931 . S
C2139 H2127 0.929 . S
C2139 C2133 1.390 1_554 S
C2139 C2136 1.386 . S
C2140 C2135 1.490 . S
C2140 C2142 1.395 . S
C2140 C2143 1.403 . S
H2141 C2147 0.930 . S
C2142 H2128 0.930 . S
C2142 C2140 1.395 . S
C2142 C2145 1.403 . S
C2143 C2140 1.403 . S
C2143 C2144 1.524 . S
C2143 C2147 1.400 . S
C2144 H2129 0.960 . S
C2144 H2130 0.960 . S
C2144 H2131 0.960 . S
C2144 C2143 1.524 . S
C2145 C2142 1.403 . S
C2145 C2146 1.392 . S
C2145 C2149 1.495 . S
C2146 C2145 1.392 . S
C2146 C2147 1.385 . S
C2146 C2148 1.478 . S
C2147 H2141 0.930 . S
C2147 C2143 1.400 . S
C2147 C2146 1.385 . S
C2148 C2146 1.478 . S
C2148 C2150 1.381 . S
C2148 C2154 1.383 . S
C2149 C2145 1.495 . S
C2149 H2155 0.959 . S
C2149 H2156 0.961 . S
C2149 H2157 0.960 . S
C2150 C2148 1.381 . S
C2150 C2151 1.394 . S
C2150 H2158 0.930 . S
C2151 C2150 1.394 . S
C2151 C2152 1.383 . S
C2151 H2159 0.929 . S
C2152 C2151 1.383 . S
C2152 C2153 1.377 . S
C2153 H2137 0.930 . S
C2153 C2152 1.377 . S
C2153 C2154 1.379 . S
C2154 H2138 0.931 . S
C2154 C2148 1.383 . S
C2154 C2153 1.379 . S
H2155 C2149 0.959 . S
H2156 C2149 0.961 . S
H2157 C2149 0.960 . S
H2158 C2150 0.930 . S
H2159 C2151 0.929 . S
H2160 C2168 0.931 1_556 S
H2161 C2170 0.930 . S
H2162 C2172 0.930 . S
H2163 C2175 0.929 . S
H2164 C2178 0.930 . S
H2165 C2180 0.960 . S
H2166 C2180 0.960 . S
H2167 C2180 0.960 . S
C2168 H2160 0.931 1_554 S
C2168 C2169 1.377 1_554 S
C2168 C2170 1.384 . S
C2169 C2168 1.377 1_556 S
C2169 C2175 1.390 1_556 S
C2170 H2161 0.930 . S
C2170 C2168 1.384 . S
C2170 C2171 1.372 . S
C2171 C2170 1.372 . S
C2171 C2172 1.400 . S
C2171 C2176 1.490 . S
C2172 H2162 0.930 . S
C2172 C2171 1.400 . S
C2172 C2175 1.386 . S
H2173 C2189 0.930 . S
H2174 C2190 0.931 . S
C2175 H2163 0.929 . S
C2175 C2169 1.390 1_554 S
C2175 C2172 1.386 . S
C2176 C2171 1.490 . S
C2176 C2178 1.395 . S
C2176 C2179 1.403 . S
H2177 C2183 0.930 . S
C2178 H2164 0.930 . S
C2178 C2176 1.395 . S
C2178 C2181 1.403 . S
C2179 C2176 1.403 . S
C2179 C2180 1.524 . S
C2179 C2183 1.400 . S
C2180 H2165 0.960 . S
C2180 H2166 0.960 . S
C2180 H2167 0.960 . S
C2180 C2179 1.524 . S
C2181 C2178 1.403 . S
C2181 C2182 1.392 . S
C2181 C2185 1.495 . S
C2182 C2181 1.392 . S
C2182 C2183 1.385 . S
C2182 C2184 1.478 . S
C2183 H2177 0.930 . S
C2183 C2179 1.400 . S
C2183 C2182 1.385 . S
C2184 C2182 1.478 . S
C2184 C2186 1.381 . S
C2184 C2190 1.383 . S
C2185 C2181 1.495 . S
C2185 H2191 0.959 . S
C2185 H2192 0.961 . S
C2185 H2193 0.960 . S
C2186 C2184 1.381 . S
C2186 C2187 1.394 . S
C2186 H2194 0.930 . S
C2187 C2186 1.394 . S
C2187 C2188 1.383 . S
C2187 H2195 0.929 . S
C2188 C2187 1.383 . S
C2188 C2189 1.377 . S
C2189 H2173 0.930 . S
C2189 C2188 1.377 . S
C2189 C2190 1.379 . S
C2190 H2174 0.931 . S
C2190 C2184 1.383 . S
C2190 C2189 1.379 . S
H2191 C2185 0.959 . S
H2192 C2185 0.961 . S
H2193 C2185 0.960 . S
H2194 C2186 0.930 . S
H2195 C2187 0.929 . S
H2196 C2204 0.929 1_556 S
H2197 C2206 0.930 . S
H2198 C2208 0.930 . S
H2199 C2211 0.929 . S
H2200 C2214 0.930 . S
H2201 C2216 0.960 . S
H2202 C2216 0.960 . S
H2203 C2216 0.960 . S
C2204 H2196 0.929 1_554 S
C2204 C2205 1.377 1_554 S
C2204 C2206 1.384 . S
C2205 C2204 1.377 1_556 S
C2205 C2211 1.390 1_556 S
C2206 H2197 0.930 . S
C2206 C2204 1.384 . S
C2206 C2207 1.372 . S
C2207 C2206 1.372 . S
C2207 C2208 1.400 . S
C2207 C2212 1.490 . S
C2208 H2198 0.930 . S
C2208 C2207 1.400 . S
C2208 C2211 1.386 . S
H2209 C2225 0.930 . S
H2210 C2226 0.931 . S
C2211 H2199 0.929 . S
C2211 C2205 1.390 1_554 S
C2211 C2208 1.386 . S
C2212 C2207 1.490 . S
C2212 C2214 1.395 . S
C2212 C2215 1.403 . S
H2213 C2219 0.930 . S
C2214 H2200 0.930 . S
C2214 C2212 1.395 . S
C2214 C2217 1.403 . S
C2215 C2212 1.403 . S
C2215 C2216 1.524 . S
C2215 C2219 1.400 . S
C2216 H2201 0.960 . S
C2216 H2202 0.960 . S
C2216 H2203 0.960 . S
C2216 C2215 1.524 . S
C2217 C2214 1.403 . S
C2217 C2218 1.392 . S
C2217 C2221 1.495 . S
C2218 C2217 1.392 . S
C2218 C2219 1.385 . S
C2218 C2220 1.478 . S
C2219 H2213 0.930 . S
C2219 C2215 1.400 . S
C2219 C2218 1.385 . S
C2220 C2218 1.478 . S
C2220 C2222 1.381 . S
C2220 C2226 1.383 . S
C2221 C2217 1.495 . S
C2221 H2227 0.959 . S
C2221 H2228 0.961 . S
C2221 H2229 0.960 . S
C2222 C2220 1.381 . S
C2222 C2223 1.394 . S
C2222 H2230 0.930 . S
C2223 C2222 1.394 . S
C2223 C2224 1.383 . S
C2223 H2231 0.929 . S
C2224 C2223 1.383 . S
C2224 C2225 1.377 . S
C2225 H2209 0.930 . S
C2225 C2224 1.377 . S
C2225 C2226 1.379 . S
C2226 H2210 0.931 . S
C2226 C2220 1.383 . S
C2226 C2225 1.379 . S
H2227 C2221 0.959 . S
H2228 C2221 0.961 . S
H2229 C2221 0.960 . S
H2230 C2222 0.930 . S
H2231 C2223 0.929 . S
H2232 C2240 0.929 . S
H2233 C2242 0.930 . S
H2234 C2244 0.930 . S
H2235 C2247 0.929 . S
H2236 C2250 0.930 . S
H2237 C2252 0.960 . S
H2238 C2252 0.960 . S
H2239 C2252 0.960 . S
C2240 H2232 0.929 . S
C2240 C2241 1.377 1_556 S
C2240 C2242 1.384 . S
C2241 C2240 1.377 1_554 S
C2241 C2247 1.390 . S
C2242 H2233 0.930 . S
C2242 C2240 1.384 . S
C2242 C2243 1.372 . S
C2243 C2242 1.372 . S
C2243 C2244 1.400 . S
C2243 C2248 1.490 . S
C2244 H2234 0.930 . S
C2244 C2243 1.400 . S
C2244 C2247 1.386 1_556 S
H2245 C2261 0.930 . S
H2246 C2262 0.931 . S
C2247 H2235 0.929 . S
C2247 C2241 1.390 . S
C2247 C2244 1.386 1_554 S
C2248 C2243 1.490 . S
C2248 C2250 1.395 . S
C2248 C2251 1.403 . S
H2249 C2255 0.930 . S
C2250 H2236 0.930 . S
C2250 C2248 1.395 . S
C2250 C2253 1.403 . S
C2251 C2248 1.403 . S
C2251 C2252 1.524 . S
C2251 C2255 1.400 . S
C2252 H2237 0.960 . S
C2252 H2238 0.960 . S
C2252 H2239 0.960 . S
C2252 C2251 1.524 . S
C2253 C2250 1.403 . S
C2253 C2254 1.392 . S
C2253 C2257 1.495 . S
C2254 C2253 1.392 . S
C2254 C2255 1.385 . S
C2254 C2256 1.478 . S
C2255 H2249 0.930 . S
C2255 C2251 1.400 . S
C2255 C2254 1.385 . S
C2256 C2254 1.478 . S
C2256 C2258 1.381 . S
C2256 C2262 1.383 . S
C2257 C2253 1.495 . S
C2257 H2263 0.959 . S
C2257 H2264 0.961 . S
C2257 H2265 0.960 . S
C2258 C2256 1.381 . S
C2258 C2259 1.394 . S
C2258 H2266 0.930 . S
C2259 C2258 1.394 . S
C2259 C2260 1.383 . S
C2259 H2267 0.929 . S
C2260 C2259 1.383 . S
C2260 C2261 1.377 . S
C2261 H2245 0.930 . S
C2261 C2260 1.377 . S
C2261 C2262 1.379 . S
C2262 H2246 0.931 . S
C2262 C2256 1.383 . S
C2262 C2261 1.379 . S
H2263 C2257 0.959 . S
H2264 C2257 0.961 . S
H2265 C2257 0.960 . S
H2266 C2258 0.930 . S
H2267 C2259 0.929 . S
H2268 C2276 0.929 . S
H2269 C2278 0.930 . S
H2270 C2280 0.930 . S
H2271 C2283 0.929 . S
H2272 C2286 0.930 . S
H2273 C2288 0.960 . S
H2274 C2288 0.960 . S
H2275 C2288 0.960 . S
C2276 H2268 0.929 . S
C2276 C2277 1.377 . S
C2276 C2278 1.384 . S
C2277 C2276 1.377 . S
C2277 C2283 1.390 . S
C2278 H2269 0.930 . S
C2278 C2276 1.384 . S
C2278 C2279 1.372 . S
C2279 C2278 1.372 . S
C2279 C2280 1.400 . S
C2279 C2284 1.490 . S
C2280 H2270 0.930 . S
C2280 C2279 1.400 . S
C2280 C2283 1.386 . S
H2281 C2297 0.956 . S
H2282 C2298 0.931 . S
C2283 H2271 0.929 . S
C2283 C2277 1.390 . S
C2283 C2280 1.386 . S
C2284 C2279 1.490 . S
C2284 C2286 1.395 . S
C2284 C2287 1.403 . S
H2285 C2291 0.930 . S
C2286 H2272 0.930 . S
C2286 C2284 1.395 . S
C2286 C2289 1.403 . S
C2287 C2284 1.403 . S
C2287 C2288 1.524 . S
C2287 C2291 1.400 . S
C2288 H2273 0.960 . S
C2288 H2274 0.960 . S
C2288 H2275 0.960 . S
C2288 C2287 1.524 . S
C2289 C2286 1.403 . S
C2289 C2290 1.392 . S
C2289 C2293 1.495 . S
C2290 C2289 1.392 . S
C2290 C2291 1.385 . S
C2290 C2292 1.478 . S
C2291 H2285 0.930 . S
C2291 C2287 1.400 . S
C2291 C2290 1.385 . S
C2292 C2290 1.478 . S
C2292 C2294 1.381 . S
C2292 C2298 1.383 . S
C2293 C2289 1.495 . S
C2293 H2299 0.959 . S
C2293 H2300 0.961 . S
C2293 H2301 0.960 . S
C2294 C2292 1.381 . S
C2294 C2295 1.394 . S
C2294 H2302 0.930 . S
C2295 C2294 1.394 . S
C2295 C2296 1.383 1_556 S
C2295 H2303 0.929 . S
C2296 C2295 1.383 1_554 S
C2296 C2297 1.378 . S
C2297 H2281 0.956 . S
C2297 C2296 1.378 . S
C2297 C2298 1.352 1_554 S
C2298 H2282 0.931 . S
C2298 C2292 1.383 . S
C2298 C2297 1.352 1_556 S
H2299 C2293 0.959 . S
H2300 C2293 0.961 . S
H2301 C2293 0.960 . S
H2302 C2294 0.930 . S
H2303 C2295 0.929 . S
H2304 C2312 0.929 1_554 S
H2305 C2314 0.930 . S
H2306 C2316 0.930 . S
H2307 C2319 0.929 . S
H2308 C2322 0.930 . S
H2309 C2324 0.960 . S
H2310 C2324 0.960 . S
H2311 C2324 0.960 . S
C2312 H2304 0.929 1_556 S
C2312 C2313 1.377 1_556 S
C2312 C2314 1.384 . S
C2313 C2312 1.377 1_554 S
C2313 C2319 1.390 1_554 S
C2314 H2305 0.930 . S
C2314 C2312 1.384 . S
C2314 C2315 1.372 . S
C2315 C2314 1.372 . S
C2315 C2316 1.400 . S
C2315 C2320 1.490 . S
C2316 H2306 0.930 . S
C2316 C2315 1.400 . S
C2316 C2319 1.386 . S
H2317 C2333 0.930 . S
H2318 C2334 0.931 . S
C2319 H2307 0.929 . S
C2319 C2313 1.390 1_556 S
C2319 C2316 1.386 . S
C2320 C2315 1.490 . S
C2320 C2322 1.395 . S
C2320 C2323 1.403 . S
H2321 C2327 0.930 . S
C2322 H2308 0.930 . S
C2322 C2320 1.395 . S
C2322 C2325 1.403 . S
C2323 C2320 1.403 . S
C2323 C2324 1.524 . S
C2323 C2327 1.400 . S
C2324 H2309 0.960 . S
C2324 H2310 0.960 . S
C2324 H2311 0.960 . S
C2324 C2323 1.524 . S
C2325 C2322 1.403 . S
C2325 C2326 1.392 . S
C2325 C2329 1.495 . S
C2326 C2325 1.392 . S
C2326 C2327 1.385 . S
C2326 C2328 1.478 . S
C2327 H2321 0.930 . S
C2327 C2323 1.400 . S
C2327 C2326 1.385 . S
C2328 C2326 1.478 . S
C2328 C2330 1.381 . S
C2328 C2334 1.383 . S
C2329 C2325 1.495 . S
C2329 H2335 0.959 . S
C2329 H2336 0.961 . S
C2329 H2337 0.960 . S
C2330 C2328 1.381 . S
C2330 C2331 1.394 . S
C2330 H2338 0.930 . S
C2331 C2330 1.394 . S
C2331 C2332 1.383 . S
C2331 H2339 0.929 . S
C2332 C2331 1.383 . S
C2332 C2333 1.377 . S
C2333 H2317 0.930 . S
C2333 C2332 1.377 . S
C2333 C2334 1.379 . S
C2334 H2318 0.931 . S
C2334 C2328 1.383 . S
C2334 C2333 1.379 . S
H2335 C2329 0.959 . S
H2336 C2329 0.961 . S
H2337 C2329 0.960 . S
H2338 C2330 0.930 . S
H2339 C2331 0.929 . S
H2340 C2348 0.929 . S
H2341 C2350 0.930 . S
H2342 C2352 0.930 . S
H2343 C2355 0.929 . S
H2344 C2358 0.930 . S
H2345 C2360 0.960 . S
H2346 C2360 0.960 . S
H2347 C2360 0.960 . S
C2348 H2340 0.929 . S
C2348 C2349 1.377 . S
C2348 C2350 1.384 . S
C2349 C2348 1.377 . S
C2349 C2355 1.390 . S
C2350 H2341 0.930 . S
C2350 C2348 1.384 . S
C2350 C2351 1.372 . S
C2351 C2350 1.372 . S
C2351 C2352 1.400 . S
C2351 C2356 1.490 . S
C2352 H2342 0.930 . S
C2352 C2351 1.400 . S
C2352 C2355 1.386 . S
H2353 C2369 0.930 . S
H2354 C2370 0.931 . S
C2355 H2343 0.929 . S
C2355 C2349 1.390 . S
C2355 C2352 1.386 . S
C2356 C2351 1.490 . S
C2356 C2358 1.395 . S
C2356 C2359 1.403 . S
H2357 C2363 0.930 . S
C2358 H2344 0.930 . S
C2358 C2356 1.395 . S
C2358 C2361 1.403 . S
C2359 C2356 1.403 . S
C2359 C2360 1.524 . S
C2359 C2363 1.400 . S
C2360 H2345 0.960 . S
C2360 H2346 0.960 . S
C2360 H2347 0.960 . S
C2360 C2359 1.524 . S
C2361 C2358 1.403 . S
C2361 C2362 1.392 . S
C2361 C2365 1.495 . S
C2362 C2361 1.392 . S
C2362 C2363 1.385 . S
C2362 C2364 1.478 . S
C2363 H2357 0.930 . S
C2363 C2359 1.400 . S
C2363 C2362 1.385 . S
C2364 C2362 1.478 . S
C2364 C2366 1.381 . S
C2364 C2370 1.383 . S
C2365 C2361 1.495 . S
C2365 H2371 0.959 . S
C2365 H2372 0.961 . S
C2365 H2373 0.960 . S
C2366 C2364 1.381 . S
C2366 C2367 1.394 . S
C2366 H2374 0.930 . S
C2367 C2366 1.394 . S
C2367 C2368 1.383 . S
C2367 H2375 0.929 . S
C2368 C2367 1.383 . S
C2368 C2369 1.377 . S
C2369 H2353 0.930 . S
C2369 C2368 1.377 . S
C2369 C2370 1.379 . S
C2370 H2354 0.931 . S
C2370 C2364 1.383 . S
C2370 C2369 1.379 . S
H2371 C2365 0.959 . S
H2372 C2365 0.961 . S
H2373 C2365 0.960 . S
H2374 C2366 0.930 . S
H2375 C2367 0.929 . S
H2376 C2384 0.929 . S
H2377 C2386 0.930 . S
H2378 C2388 0.930 . S
H2379 C2391 0.929 . S
H2380 C2394 0.930 . S
H2381 C2396 0.960 . S
H2382 C2396 0.960 . S
H2383 C2396 0.960 . S
C2384 H2376 0.929 . S
C2384 C2385 1.377 . S
C2384 C2386 1.384 . S
C2385 C2384 1.377 . S
C2385 C2391 1.390 . S
C2386 H2377 0.930 . S
C2386 C2384 1.384 . S
C2386 C2387 1.372 . S
C2387 C2386 1.372 . S
C2387 C2388 1.400 . S
C2387 C2392 1.490 . S
C2388 H2378 0.930 . S
C2388 C2387 1.400 . S
C2388 C2391 1.386 . S
H2389 C2405 0.930 . S
H2390 C2406 0.931 . S
C2391 H2379 0.929 . S
C2391 C2385 1.390 . S
C2391 C2388 1.386 . S
C2392 C2387 1.490 . S
C2392 C2394 1.395 . S
C2392 C2395 1.403 . S
H2393 C2399 0.930 . S
C2394 H2380 0.930 . S
C2394 C2392 1.395 . S
C2394 C2397 1.403 . S
C2395 C2392 1.403 . S
C2395 C2396 1.524 . S
C2395 C2399 1.400 . S
C2396 H2381 0.960 . S
C2396 H2382 0.960 . S
C2396 H2383 0.960 . S
C2396 C2395 1.524 . S
C2397 C2394 1.403 . S
C2397 C2398 1.392 . S
C2397 C2401 1.495 . S
C2398 C2397 1.392 . S
C2398 C2399 1.385 . S
C2398 C2400 1.478 . S
C2399 H2393 0.930 . S
C2399 C2395 1.400 . S
C2399 C2398 1.385 . S
C2400 C2398 1.478 . S
C2400 C2402 1.381 . S
C2400 C2406 1.383 . S
C2401 C2397 1.495 . S
C2401 H2407 0.959 . S
C2401 H2408 0.961 . S
C2401 H2409 0.960 . S
C2402 C2400 1.381 . S
C2402 C2403 1.394 . S
C2402 H2410 0.930 . S
C2403 C2402 1.394 . S
C2403 C2404 1.383 . S
C2403 H2411 0.929 . S
C2404 C2403 1.383 . S
C2404 C2405 1.377 . S
C2405 H2389 0.930 . S
C2405 C2404 1.377 . S
C2405 C2406 1.379 . S
C2406 H2390 0.931 . S
C2406 C2400 1.383 . S
C2406 C2405 1.379 . S
H2407 C2401 0.959 . S
H2408 C2401 0.961 . S
H2409 C2401 0.960 . S
H2410 C2402 0.930 . S
H2411 C2403 0.929 . S
H2412 C2420 0.929 . S
H2413 C2422 0.930 . S
H2414 C2424 0.930 . S
H2415 C2427 0.929 . S
H2416 C2430 0.930 . S
H2417 C2432 0.960 . S
H2418 C2432 0.960 . S
H2419 C2432 0.960 . S
C2420 H2412 0.929 . S
C2420 C2421 1.377 . S
C2420 C2422 1.384 . S
C2421 C2420 1.377 . S
C2421 C2427 1.390 . S
C2422 H2413 0.930 . S
C2422 C2420 1.384 . S
C2422 C2423 1.372 . S
C2423 C2422 1.372 . S
C2423 C2424 1.400 . S
C2423 C2428 1.490 . S
C2424 H2414 0.930 . S
C2424 C2423 1.400 . S
C2424 C2427 1.386 . S
H2425 C2441 0.930 . S
H2426 C2442 0.931 . S
C2427 H2415 0.929 . S
C2427 C2421 1.390 . S
C2427 C2424 1.386 . S
C2428 C2423 1.490 . S
C2428 C2430 1.395 . S
C2428 C2431 1.403 . S
H2429 C2435 0.930 . S
C2430 H2416 0.930 . S
C2430 C2428 1.395 . S
C2430 C2433 1.403 . S
C2431 C2428 1.403 . S
C2431 C2432 1.524 . S
C2431 C2435 1.400 . S
C2432 H2417 0.960 . S
C2432 H2418 0.960 . S
C2432 H2419 0.960 . S
C2432 C2431 1.524 . S
C2433 C2430 1.403 . S
C2433 C2434 1.392 . S
C2433 C2437 1.495 . S
C2434 C2433 1.392 . S
C2434 C2435 1.385 . S
C2434 C2436 1.478 . S
C2435 H2429 0.930 . S
C2435 C2431 1.400 . S
C2435 C2434 1.385 . S
C2436 C2434 1.478 . S
C2436 C2438 1.381 . S
C2436 C2442 1.383 . S
C2437 C2433 1.495 . S
C2437 H2443 0.959 . S
C2437 H2444 0.961 . S
C2437 H2445 0.960 . S
C2438 C2436 1.381 . S
C2438 C2439 1.394 . S
C2438 H2446 0.930 . S
C2439 C2438 1.394 . S
C2439 C2440 1.383 . S
C2439 H2447 0.929 . S
C2440 C2439 1.383 . S
C2440 C2441 1.377 . S
C2441 H2425 0.930 . S
C2441 C2440 1.377 . S
C2441 C2442 1.379 . S
C2442 H2426 0.931 . S
C2442 C2436 1.383 . S
C2442 C2441 1.379 . S
H2443 C2437 0.959 . S
H2444 C2437 0.961 . S
H2445 C2437 0.960 . S
H2446 C2438 0.930 . S
H2447 C2439 0.929 . S
H2448 C2456 0.929 . S
H2449 C2458 0.930 . S
H2450 C2460 0.930 . S
H2451 C2463 0.929 . S
H2452 C2466 0.930 . S
H2453 C2468 0.960 . S
H2454 C2468 0.960 . S
H2455 C2468 0.960 . S
C2456 H2448 0.929 . S
C2456 C2457 1.377 . S
C2456 C2458 1.384 . S
C2457 C2456 1.377 . S
C2457 C2463 1.390 . S
C2458 H2449 0.930 . S
C2458 C2456 1.384 . S
C2458 C2459 1.372 . S
C2459 C2458 1.372 . S
C2459 C2460 1.400 . S
C2459 C2464 1.490 . S
C2460 H2450 0.930 . S
C2460 C2459 1.400 . S
C2460 C2463 1.386 . S
H2461 C2477 0.930 . S
H2462 C2478 0.931 . S
C2463 H2451 0.929 . S
C2463 C2457 1.390 . S
C2463 C2460 1.386 . S
C2464 C2459 1.490 . S
C2464 C2466 1.395 . S
C2464 C2467 1.403 . S
H2465 C2471 0.930 . S
C2466 H2452 0.930 . S
C2466 C2464 1.395 . S
C2466 C2469 1.403 . S
C2467 C2464 1.403 . S
C2467 C2468 1.524 . S
C2467 C2471 1.400 . S
C2468 H2453 0.960 . S
C2468 H2454 0.960 . S
C2468 H2455 0.960 . S
C2468 C2467 1.524 . S
C2469 C2466 1.403 . S
C2469 C2470 1.392 . S
C2469 C2473 1.495 . S
C2470 C2469 1.392 . S
C2470 C2471 1.385 . S
C2470 C2472 1.478 . S
C2471 H2465 0.930 . S
C2471 C2467 1.400 . S
C2471 C2470 1.385 . S
C2472 C2470 1.478 . S
C2472 C2474 1.381 . S
C2472 C2478 1.383 . S
C2473 C2469 1.495 . S
C2473 H2479 0.959 . S
C2473 H2480 0.961 . S
C2473 H2481 0.960 . S
C2474 C2472 1.381 . S
C2474 C2475 1.394 . S
C2474 H2482 0.930 . S
C2475 C2474 1.394 . S
C2475 C2476 1.383 . S
C2475 H2483 0.929 . S
C2476 C2475 1.383 . S
C2476 C2477 1.377 . S
C2477 H2461 0.930 . S
C2477 C2476 1.377 . S
C2477 C2478 1.379 . S
C2478 H2462 0.931 . S
C2478 C2472 1.383 . S
C2478 C2477 1.379 . S
H2479 C2473 0.959 . S
H2480 C2473 0.961 . S
H2481 C2473 0.960 . S
H2482 C2474 0.930 . S
H2483 C2475 0.929 . S
H2484 C2492 0.929 . S
H2485 C2494 0.930 . S
H2486 C2496 0.930 . S
H2487 C2499 0.929 . S
H2488 C2502 0.930 . S
H2489 C2504 0.960 . S
H2490 C2504 0.960 . S
H2491 C2504 0.960 . S
C2492 H2484 0.929 . S
C2492 C2493 1.377 . S
C2492 C2494 1.384 . S
C2493 C2492 1.377 . S
C2493 C2499 1.390 . S
C2494 H2485 0.930 . S
C2494 C2492 1.384 . S
C2494 C2495 1.372 . S
C2495 C2494 1.372 . S
C2495 C2496 1.400 . S
C2495 C2500 1.490 . S
C2496 H2486 0.930 . S
C2496 C2495 1.400 . S
C2496 C2499 1.386 . S
H2497 C2513 0.930 . S
H2498 C2514 0.931 . S
C2499 H2487 0.929 . S
C2499 C2493 1.390 . S
C2499 C2496 1.386 . S
C2500 C2495 1.490 . S
C2500 C2502 1.395 . S
C2500 C2503 1.403 . S
H2501 C2507 0.930 . S
C2502 H2488 0.930 . S
C2502 C2500 1.395 . S
C2502 C2505 1.403 . S
C2503 C2500 1.403 . S
C2503 C2504 1.524 . S
C2503 C2507 1.400 . S
C2504 H2489 0.960 . S
C2504 H2490 0.960 . S
C2504 H2491 0.960 . S
C2504 C2503 1.524 . S
C2505 C2502 1.403 . S
C2505 C2506 1.392 . S
C2505 C2509 1.495 . S
C2506 C2505 1.392 . S
C2506 C2507 1.385 . S
C2506 C2508 1.478 . S
C2507 H2501 0.930 . S
C2507 C2503 1.400 . S
C2507 C2506 1.385 . S
C2508 C2506 1.478 . S
C2508 C2510 1.381 . S
C2508 C2514 1.383 . S
C2509 C2505 1.495 . S
C2509 H2515 0.959 . S
C2509 H2516 0.961 . S
C2509 H2517 0.960 . S
C2510 C2508 1.381 . S
C2510 C2511 1.394 . S
C2510 H2518 0.930 . S
C2511 C2510 1.394 . S
C2511 C2512 1.383 . S
C2511 H2519 0.929 . S
C2512 C2511 1.383 . S
C2512 C2513 1.377 . S
C2513 H2497 0.930 . S
C2513 C2512 1.377 . S
C2513 C2514 1.379 . S
C2514 H2498 0.931 . S
C2514 C2508 1.383 . S
C2514 C2513 1.379 . S
H2515 C2509 0.959 . S
H2516 C2509 0.961 . S
H2517 C2509 0.960 . S
H2518 C2510 0.930 . S
H2519 C2511 0.929 . S
H2520 C2528 0.929 . S
H2521 C2530 0.930 . S
H2522 C2532 0.930 . S
H2523 C2535 0.929 . S
H2524 C2538 0.930 . S
H2525 C2540 0.960 . S
H2526 C2540 0.960 . S
H2527 C2540 0.960 . S
C2528 H2520 0.929 . S
C2528 C2529 1.377 . S
C2528 C2530 1.384 . S
C2529 C2528 1.377 . S
C2529 C2535 1.390 . S
C2530 H2521 0.930 . S
C2530 C2528 1.384 . S
C2530 C2531 1.372 . S
C2531 C2530 1.372 . S
C2531 C2532 1.400 . S
C2531 C2536 1.490 . S
C2532 H2522 0.930 . S
C2532 C2531 1.400 . S
C2532 C2535 1.386 . S
H2533 C2549 0.930 . S
H2534 C2550 0.931 . S
C2535 H2523 0.929 . S
C2535 C2529 1.390 . S
C2535 C2532 1.386 . S
C2536 C2531 1.490 . S
C2536 C2538 1.395 . S
C2536 C2539 1.403 . S
H2537 C2543 0.930 . S
C2538 H2524 0.930 . S
C2538 C2536 1.395 . S
C2538 C2541 1.403 . S
C2539 C2536 1.403 . S
C2539 C2540 1.524 . S
C2539 C2543 1.400 . S
C2540 H2525 0.960 . S
C2540 H2526 0.960 . S
C2540 H2527 0.960 . S
C2540 C2539 1.524 . S
C2541 C2538 1.403 . S
C2541 C2542 1.392 . S
C2541 C2545 1.495 . S
C2542 C2541 1.392 . S
C2542 C2543 1.385 . S
C2542 C2544 1.478 . S
C2543 H2537 0.930 . S
C2543 C2539 1.400 . S
C2543 C2542 1.385 . S
C2544 C2542 1.478 . S
C2544 C2546 1.381 . S
C2544 C2550 1.383 . S
C2545 C2541 1.495 . S
C2545 H2551 0.959 . S
C2545 H2552 0.961 . S
C2545 H2553 0.960 . S
C2546 C2544 1.381 . S
C2546 C2547 1.394 . S
C2546 H2554 0.930 . S
C2547 C2546 1.394 . S
C2547 C2548 1.383 . S
C2547 H2555 0.929 . S
C2548 C2547 1.383 . S
C2548 C2549 1.377 . S
C2549 H2533 0.930 . S
C2549 C2548 1.377 . S
C2549 C2550 1.379 . S
C2550 H2534 0.931 . S
C2550 C2544 1.383 . S
C2550 C2549 1.379 . S
H2551 C2545 0.959 . S
H2552 C2545 0.961 . S
H2553 C2545 0.960 . S
H2554 C2546 0.930 . S
H2555 C2547 0.929 . S
H2556 C2564 0.929 . S
H2557 C2566 0.930 . S
H2558 C2568 0.930 . S
H2559 C2571 0.929 . S
H2560 C2574 0.930 . S
H2561 C2576 0.960 . S
H2562 C2576 0.960 . S
H2563 C2576 0.960 . S
C2564 H2556 0.929 . S
C2564 C2565 1.377 . S
C2564 C2566 1.384 . S
C2565 C2564 1.377 . S
C2565 C2571 1.390 . S
C2566 H2557 0.930 . S
C2566 C2564 1.384 . S
C2566 C2567 1.372 . S
C2567 C2566 1.372 . S
C2567 C2568 1.400 . S
C2567 C2572 1.490 . S
C2568 H2558 0.930 . S
C2568 C2567 1.400 . S
C2568 C2571 1.386 . S
H2569 C2585 0.930 . S
H2570 C2586 0.931 . S
C2571 H2559 0.929 . S
C2571 C2565 1.390 . S
C2571 C2568 1.386 . S
C2572 C2567 1.490 . S
C2572 C2574 1.395 . S
C2572 C2575 1.403 . S
H2573 C2579 0.930 . S
C2574 H2560 0.930 . S
C2574 C2572 1.395 . S
C2574 C2577 1.403 . S
C2575 C2572 1.403 . S
C2575 C2576 1.524 . S
C2575 C2579 1.400 . S
C2576 H2561 0.960 . S
C2576 H2562 0.960 . S
C2576 H2563 0.960 . S
C2576 C2575 1.524 . S
C2577 C2574 1.403 . S
C2577 C2578 1.392 . S
C2577 C2581 1.495 . S
C2578 C2577 1.392 . S
C2578 C2579 1.385 . S
C2578 C2580 1.478 . S
C2579 H2573 0.930 . S
C2579 C2575 1.400 . S
C2579 C2578 1.385 . S
C2580 C2578 1.478 . S
C2580 C2582 1.381 . S
C2580 C2586 1.383 . S
C2581 C2577 1.495 . S
C2581 H2587 0.959 . S
C2581 H2588 0.961 . S
C2581 H2589 0.960 . S
C2582 C2580 1.381 . S
C2582 C2583 1.394 . S
C2582 H2590 0.930 . S
C2583 C2582 1.394 . S
C2583 C2584 1.383 . S
C2583 H2591 0.929 . S
C2584 C2583 1.383 . S
C2584 C2585 1.377 . S
C2585 H2569 0.930 . S
C2585 C2584 1.377 . S
C2585 C2586 1.379 . S
C2586 H2570 0.931 . S
C2586 C2580 1.383 . S
C2586 C2585 1.379 . S
H2587 C2581 0.959 . S
H2588 C2581 0.961 . S
H2589 C2581 0.960 . S
H2590 C2582 0.930 . S
H2591 C2583 0.929 . S
H2592 C2600 0.929 . S
H2593 C2602 0.930 . S
H2594 C2604 0.930 . S
H2595 C2607 0.929 . S
H2596 C2610 0.930 . S
H2597 C2612 0.960 . S
H2598 C2612 0.960 . S
H2599 C2612 0.960 . S
C2600 H2592 0.929 . S
C2600 C2601 1.377 . S
C2600 C2602 1.384 . S
C2601 C2600 1.377 . S
C2601 C2607 1.390 . S
C2602 H2593 0.930 . S
C2602 C2600 1.384 . S
C2602 C2603 1.372 . S
C2603 C2602 1.372 . S
C2603 C2604 1.400 . S
C2603 C2608 1.490 . S
C2604 H2594 0.930 . S
C2604 C2603 1.400 . S
C2604 C2607 1.386 . S
H2605 C2621 0.930 . S
H2606 C2622 0.931 . S
C2607 H2595 0.929 . S
C2607 C2601 1.390 . S
C2607 C2604 1.386 . S
C2608 C2603 1.490 . S
C2608 C2610 1.395 . S
C2608 C2611 1.403 . S
H2609 C2615 0.930 . S
C2610 H2596 0.930 . S
C2610 C2608 1.395 . S
C2610 C2613 1.403 . S
C2611 C2608 1.403 . S
C2611 C2612 1.524 . S
C2611 C2615 1.400 . S
C2612 H2597 0.960 . S
C2612 H2598 0.960 . S
C2612 H2599 0.960 . S
C2612 C2611 1.524 . S
C2613 C2610 1.403 . S
C2613 C2614 1.392 . S
C2613 C2617 1.495 . S
C2614 C2613 1.392 . S
C2614 C2615 1.385 . S
C2614 C2616 1.478 . S
C2615 H2609 0.930 . S
C2615 C2611 1.400 . S
C2615 C2614 1.385 . S
C2616 C2614 1.478 . S
C2616 C2618 1.381 . S
C2616 C2622 1.383 . S
C2617 C2613 1.495 . S
C2617 H2623 0.959 . S
C2617 H2624 0.961 . S
C2617 H2625 0.960 . S
C2618 C2616 1.381 . S
C2618 C2619 1.394 . S
C2618 H2626 0.930 . S
C2619 C2618 1.394 . S
C2619 C2620 1.383 . S
C2619 H2627 0.929 . S
C2620 C2619 1.383 . S
C2620 C2621 1.377 . S
C2621 H2605 0.930 . S
C2621 C2620 1.377 . S
C2621 C2622 1.379 . S
C2622 H2606 0.931 . S
C2622 C2616 1.383 . S
C2622 C2621 1.379 . S
H2623 C2617 0.959 . S
H2624 C2617 0.961 . S
H2625 C2617 0.960 . S
H2626 C2618 0.930 . S
H2627 C2619 0.929 . S
H2628 C2636 0.929 . S
H2629 C2638 0.930 . S
H2630 C2640 0.930 . S
H2631 C2643 0.929 . S
H2632 C2646 0.930 . S
H2633 C2648 0.960 . S
H2634 C2648 0.960 . S
H2635 C2648 0.960 . S
C2636 H2628 0.929 . S
C2636 C2637 1.377 . S
C2636 C2638 1.384 . S
C2637 C2636 1.377 . S
C2637 C2643 1.390 . S
C2638 H2629 0.930 . S
C2638 C2636 1.384 . S
C2638 C2639 1.372 . S
C2639 C2638 1.372 . S
C2639 C2640 1.400 . S
C2639 C2644 1.490 . S
C2640 H2630 0.930 . S
C2640 C2639 1.400 . S
C2640 C2643 1.386 . S
H2641 C2657 0.930 . S
H2642 C2658 0.931 . S
C2643 H2631 0.929 . S
C2643 C2637 1.390 . S
C2643 C2640 1.386 . S
C2644 C2639 1.490 . S
C2644 C2646 1.395 . S
C2644 C2647 1.403 . S
H2645 C2651 0.930 . S
C2646 H2632 0.930 . S
C2646 C2644 1.395 . S
C2646 C2649 1.403 . S
C2647 C2644 1.403 . S
C2647 C2648 1.524 . S
C2647 C2651 1.400 . S
C2648 H2633 0.960 . S
C2648 H2634 0.960 . S
C2648 H2635 0.960 . S
C2648 C2647 1.524 . S
C2649 C2646 1.403 . S
C2649 C2650 1.392 . S
C2649 C2653 1.495 . S
C2650 C2649 1.392 . S
C2650 C2651 1.385 . S
C2650 C2652 1.478 . S
C2651 H2645 0.930 . S
C2651 C2647 1.400 . S
C2651 C2650 1.385 . S
C2652 C2650 1.478 . S
C2652 C2654 1.381 . S
C2652 C2658 1.383 . S
C2653 C2649 1.495 . S
C2653 H2659 0.959 . S
C2653 H2660 0.961 . S
C2653 H2661 0.960 . S
C2654 C2652 1.381 . S
C2654 C2655 1.394 . S
C2654 H2662 0.930 . S
C2655 C2654 1.394 . S
C2655 C2656 1.383 . S
C2655 H2663 0.929 . S
C2656 C2655 1.383 . S
C2656 C2657 1.377 . S
C2657 H2641 0.930 . S
C2657 C2656 1.377 . S
C2657 C2658 1.379 . S
C2658 H2642 0.931 . S
C2658 C2652 1.383 . S
C2658 C2657 1.379 . S
H2659 C2653 0.959 . S
H2660 C2653 0.961 . S
H2661 C2653 0.960 . S
H2662 C2654 0.930 . S
H2663 C2655 0.929 . S
H2664 C2672 0.929 . S
H2665 C2674 0.930 . S
H2666 C2676 0.930 . S
H2667 C2679 0.929 . S
H2668 C2682 0.930 . S
H2669 C2684 0.960 . S
H2670 C2684 0.960 . S
H2671 C2684 0.960 . S
C2672 H2664 0.929 . S
C2672 C2673 1.377 . S
C2672 C2674 1.384 . S
C2673 C2672 1.377 . S
C2673 C2679 1.390 . S
C2674 H2665 0.930 . S
C2674 C2672 1.384 . S
C2674 C2675 1.372 . S
C2675 C2674 1.372 . S
C2675 C2676 1.400 . S
C2675 C2680 1.490 . S
C2676 H2666 0.930 . S
C2676 C2675 1.400 . S
C2676 C2679 1.386 . S
H2677 C2693 0.930 . S
H2678 C2694 0.931 . S
C2679 H2667 0.929 . S
C2679 C2673 1.390 . S
C2679 C2676 1.386 . S
C2680 C2675 1.490 . S
C2680 C2682 1.395 . S
C2680 C2683 1.403 . S
H2681 C2687 0.930 . S
C2682 H2668 0.930 . S
C2682 C2680 1.395 . S
C2682 C2685 1.403 . S
C2683 C2680 1.403 . S
C2683 C2684 1.524 . S
C2683 C2687 1.400 . S
C2684 H2669 0.960 . S
C2684 H2670 0.960 . S
C2684 H2671 0.960 . S
C2684 C2683 1.524 . S
C2685 C2682 1.403 . S
C2685 C2686 1.392 . S
C2685 C2689 1.495 . S
C2686 C2685 1.392 . S
C2686 C2687 1.385 . S
C2686 C2688 1.478 . S
C2687 H2681 0.930 . S
C2687 C2683 1.400 . S
C2687 C2686 1.385 . S
C2688 C2686 1.478 . S
C2688 C2690 1.381 . S
C2688 C2694 1.383 . S
C2689 C2685 1.495 . S
C2689 H2695 0.959 . S
C2689 H2696 0.961 . S
C2689 H2697 0.960 . S
C2690 C2688 1.381 . S
C2690 C2691 1.394 . S
C2690 H2698 0.930 . S
C2691 C2690 1.394 . S
C2691 C2692 1.383 . S
C2691 H2699 0.929 . S
C2692 C2691 1.383 . S
C2692 C2693 1.377 . S
C2693 H2677 0.930 . S
C2693 C2692 1.377 . S
C2693 C2694 1.379 . S
C2694 H2678 0.931 . S
C2694 C2688 1.383 . S
C2694 C2693 1.379 . S
H2695 C2689 0.959 . S
H2696 C2689 0.961 . S
H2697 C2689 0.960 . S
H2698 C2690 0.930 . S
H2699 C2691 0.929 . S
H2700 C2708 0.929 . S
H2701 C2710 0.930 . S
H2702 C2712 0.930 . S
H2703 C2715 0.929 . S
H2704 C2718 0.930 . S
H2705 C2720 0.960 . S
H2706 C2720 0.960 . S
H2707 C2720 0.960 . S
C2708 H2700 0.929 . S
C2708 C2709 1.377 . S
C2708 C2710 1.384 . S
C2709 C2708 1.377 . S
C2709 C2715 1.390 . S
C2710 H2701 0.930 . S
C2710 C2708 1.384 . S
C2710 C2711 1.372 . S
C2711 C2710 1.372 . S
C2711 C2712 1.400 . S
C2711 C2716 1.490 . S
C2712 H2702 0.930 . S
C2712 C2711 1.400 . S
C2712 C2715 1.386 . S
H2713 C2729 0.930 . S
H2714 C2730 0.931 . S
C2715 H2703 0.929 . S
C2715 C2709 1.390 . S
C2715 C2712 1.386 . S
C2716 C2711 1.490 . S
C2716 C2718 1.395 . S
C2716 C2719 1.403 . S
H2717 C2723 0.930 . S
C2718 H2704 0.930 . S
C2718 C2716 1.395 . S
C2718 C2721 1.403 . S
C2719 C2716 1.403 . S
C2719 C2720 1.524 . S
C2719 C2723 1.400 . S
C2720 H2705 0.960 . S
C2720 H2706 0.960 . S
C2720 H2707 0.960 . S
C2720 C2719 1.524 . S
C2721 C2718 1.403 . S
C2721 C2722 1.392 . S
C2721 C2725 1.495 . S
C2722 C2721 1.392 . S
C2722 C2723 1.385 . S
C2722 C2724 1.478 . S
C2723 H2717 0.930 . S
C2723 C2719 1.400 . S
C2723 C2722 1.385 . S
C2724 C2722 1.478 . S
C2724 C2726 1.381 . S
C2724 C2730 1.383 . S
C2725 C2721 1.495 . S
C2725 H2731 0.959 . S
C2725 H2732 0.961 . S
C2725 H2733 0.960 . S
C2726 C2724 1.381 . S
C2726 C2727 1.394 . S
C2726 H2734 0.930 . S
C2727 C2726 1.394 . S
C2727 C2728 1.383 . S
C2727 H2735 0.929 . S
C2728 C2727 1.383 . S
C2728 C2729 1.377 . S
C2729 H2713 0.930 . S
C2729 C2728 1.377 . S
C2729 C2730 1.379 . S
C2730 H2714 0.931 . S
C2730 C2724 1.383 . S
C2730 C2729 1.379 . S
H2731 C2725 0.959 . S
H2732 C2725 0.961 . S
H2733 C2725 0.960 . S
H2734 C2726 0.930 . S
H2735 C2727 0.929 . S
H2736 C2744 0.929 . S
H2737 C2746 0.930 . S
H2738 C2748 0.930 . S
H2739 C2751 0.929 . S
H2740 C2754 0.930 . S
H2741 C2756 0.960 . S
H2742 C2756 0.960 . S
H2743 C2756 0.960 . S
C2744 H2736 0.929 . S
C2744 C2745 1.377 . S
C2744 C2746 1.384 . S
C2745 C2744 1.377 . S
C2745 C2751 1.390 . S
C2746 H2737 0.930 . S
C2746 C2744 1.384 . S
C2746 C2747 1.372 . S
C2747 C2746 1.372 . S
C2747 C2748 1.400 . S
C2747 C2752 1.490 . S
C2748 H2738 0.930 . S
C2748 C2747 1.400 . S
C2748 C2751 1.386 . S
H2749 C2765 0.930 . S
H2750 C2766 0.931 . S
C2751 H2739 0.929 . S
C2751 C2745 1.390 . S
C2751 C2748 1.386 . S
C2752 C2747 1.490 . S
C2752 C2754 1.395 . S
C2752 C2755 1.403 . S
H2753 C2759 0.930 . S
C2754 H2740 0.930 . S
C2754 C2752 1.395 . S
C2754 C2757 1.403 . S
C2755 C2752 1.403 . S
C2755 C2756 1.524 . S
C2755 C2759 1.400 . S
C2756 H2741 0.960 . S
C2756 H2742 0.960 . S
C2756 H2743 0.960 . S
C2756 C2755 1.524 . S
C2757 C2754 1.403 . S
C2757 C2758 1.392 . S
C2757 C2761 1.495 . S
C2758 C2757 1.392 . S
C2758 C2759 1.385 . S
C2758 C2760 1.478 . S
C2759 H2753 0.930 . S
C2759 C2755 1.400 . S
C2759 C2758 1.385 . S
C2760 C2758 1.478 . S
C2760 C2762 1.381 . S
C2760 C2766 1.383 . S
C2761 C2757 1.495 . S
C2761 H2767 0.959 . S
C2761 H2768 0.961 . S
C2761 H2769 0.960 . S
C2762 C2760 1.381 . S
C2762 C2763 1.394 . S
C2762 H2770 0.930 . S
C2763 C2762 1.394 . S
C2763 C2764 1.383 . S
C2763 H2771 0.929 . S
C2764 C2763 1.383 . S
C2764 C2765 1.377 . S
C2765 H2749 0.930 . S
C2765 C2764 1.377 . S
C2765 C2766 1.379 . S
C2766 H2750 0.931 . S
C2766 C2760 1.383 . S
C2766 C2765 1.379 . S
H2767 C2761 0.959 . S
H2768 C2761 0.961 . S
H2769 C2761 0.960 . S
H2770 C2762 0.930 . S
H2771 C2763 0.929 . S
H2772 C2780 0.929 . S
H2773 C2782 0.930 . S
H2774 C2784 0.930 . S
H2775 C2787 0.929 . S
H2776 C2790 0.930 . S
H2777 C2792 0.960 . S
H2778 C2792 0.960 . S
H2779 C2792 0.960 . S
C2780 H2772 0.929 . S
C2780 C2781 1.377 . S
C2780 C2782 1.384 . S
C2781 C2780 1.377 . S
C2781 C2787 1.390 . S
C2782 H2773 0.930 . S
C2782 C2780 1.384 . S
C2782 C2783 1.372 . S
C2783 C2782 1.372 . S
C2783 C2784 1.400 . S
C2783 C2788 1.490 . S
C2784 H2774 0.930 . S
C2784 C2783 1.400 . S
C2784 C2787 1.386 . S
H2785 C2801 0.930 . S
H2786 C2802 0.931 . S
C2787 H2775 0.929 . S
C2787 C2781 1.390 . S
C2787 C2784 1.386 . S
C2788 C2783 1.490 . S
C2788 C2790 1.395 . S
C2788 C2791 1.403 . S
H2789 C2795 0.930 . S
C2790 H2776 0.930 . S
C2790 C2788 1.395 . S
C2790 C2793 1.403 . S
C2791 C2788 1.403 . S
C2791 C2792 1.524 . S
C2791 C2795 1.400 . S
C2792 H2777 0.960 . S
C2792 H2778 0.960 . S
C2792 H2779 0.960 . S
C2792 C2791 1.524 . S
C2793 C2790 1.403 . S
C2793 C2794 1.392 . S
C2793 C2797 1.495 . S
C2794 C2793 1.392 . S
C2794 C2795 1.385 . S
C2794 C2796 1.478 . S
C2795 H2789 0.930 . S
C2795 C2791 1.400 . S
C2795 C2794 1.385 . S
C2796 C2794 1.478 . S
C2796 C2798 1.381 . S
C2796 C2802 1.383 . S
C2797 C2793 1.495 . S
C2797 H2803 0.959 . S
C2797 H2804 0.961 . S
C2797 H2805 0.960 . S
C2798 C2796 1.381 . S
C2798 C2799 1.394 . S
C2798 H2806 0.930 . S
C2799 C2798 1.394 . S
C2799 C2800 1.383 . S
C2799 H2807 0.929 . S
C2800 C2799 1.383 . S
C2800 C2801 1.377 . S
C2801 H2785 0.930 . S
C2801 C2800 1.377 . S
C2801 C2802 1.379 . S
C2802 H2786 0.931 . S
C2802 C2796 1.383 . S
C2802 C2801 1.379 . S
H2803 C2797 0.959 . S
H2804 C2797 0.961 . S
H2805 C2797 0.960 . S
H2806 C2798 0.930 . S
H2807 C2799 0.929 . S
H2808 C2816 0.929 . S
H2809 C2818 0.930 . S
H2810 C2820 0.930 . S
H2811 C2823 0.929 . S
H2812 C2826 0.930 . S
H2813 C2828 0.960 . S
H2814 C2828 0.960 . S
H2815 C2828 0.960 . S
C2816 H2808 0.929 . S
C2816 C2817 1.377 . S
C2816 C2818 1.384 . S
C2817 C2816 1.377 . S
C2817 C2823 1.390 . S
C2818 H2809 0.930 . S
C2818 C2816 1.384 . S
C2818 C2819 1.372 . S
C2819 C2818 1.372 . S
C2819 C2820 1.400 . S
C2819 C2824 1.490 . S
C2820 H2810 0.930 . S
C2820 C2819 1.400 . S
C2820 C2823 1.386 . S
H2821 C2837 0.930 . S
H2822 C2838 0.931 . S
C2823 H2811 0.929 . S
C2823 C2817 1.390 . S
C2823 C2820 1.386 . S
C2824 C2819 1.490 . S
C2824 C2826 1.395 . S
C2824 C2827 1.403 . S
H2825 C2831 0.930 . S
C2826 H2812 0.930 . S
C2826 C2824 1.395 . S
C2826 C2829 1.403 . S
C2827 C2824 1.403 . S
C2827 C2828 1.524 . S
C2827 C2831 1.400 . S
C2828 H2813 0.960 . S
C2828 H2814 0.960 . S
C2828 H2815 0.960 . S
C2828 C2827 1.524 . S
C2829 C2826 1.403 . S
C2829 C2830 1.392 . S
C2829 C2833 1.495 . S
C2830 C2829 1.392 . S
C2830 C2831 1.385 . S
C2830 C2832 1.478 . S
C2831 H2825 0.930 . S
C2831 C2827 1.400 . S
C2831 C2830 1.385 . S
C2832 C2830 1.478 . S
C2832 C2834 1.381 . S
C2832 C2838 1.383 . S
C2833 C2829 1.495 . S
C2833 H2839 0.959 . S
C2833 H2840 0.961 . S
C2833 H2841 0.960 . S
C2834 C2832 1.381 . S
C2834 C2835 1.394 . S
C2834 H2842 0.930 . S
C2835 C2834 1.394 . S
C2835 C2836 1.383 . S
C2835 H2843 0.929 . S
C2836 C2835 1.383 . S
C2836 C2837 1.377 . S
C2837 H2821 0.930 . S
C2837 C2836 1.377 . S
C2837 C2838 1.379 . S
C2838 H2822 0.931 . S
C2838 C2832 1.383 . S
C2838 C2837 1.379 . S
H2839 C2833 0.959 . S
H2840 C2833 0.961 . S
H2841 C2833 0.960 . S
H2842 C2834 0.930 . S
H2843 C2835 0.929 . S
H2844 C2852 0.929 . S
H2845 C2854 0.930 . S
H2846 C2856 0.930 . S
H2847 C2859 0.929 . S
H2848 C2862 0.930 . S
H2849 C2864 0.960 . S
H2850 C2864 0.960 . S
H2851 C2864 0.960 . S
C2852 H2844 0.929 . S
C2852 C2853 1.377 . S
C2852 C2854 1.384 . S
C2853 C2852 1.377 . S
C2853 C2859 1.390 . S
C2854 H2845 0.930 . S
C2854 C2852 1.384 . S
C2854 C2855 1.372 . S
C2855 C2854 1.372 . S
C2855 C2856 1.400 . S
C2855 C2860 1.490 . S
C2856 H2846 0.930 . S
C2856 C2855 1.400 . S
C2856 C2859 1.386 . S
H2857 C2873 0.930 . S
H2858 C2874 0.931 . S
C2859 H2847 0.929 . S
C2859 C2853 1.390 . S
C2859 C2856 1.386 . S
C2860 C2855 1.490 . S
C2860 C2862 1.395 . S
C2860 C2863 1.403 . S
H2861 C2867 0.930 . S
C2862 H2848 0.930 . S
C2862 C2860 1.395 . S
C2862 C2865 1.403 . S
C2863 C2860 1.403 . S
C2863 C2864 1.524 . S
C2863 C2867 1.400 . S
C2864 H2849 0.960 . S
C2864 H2850 0.960 . S
C2864 H2851 0.960 . S
C2864 C2863 1.524 . S
C2865 C2862 1.403 . S
C2865 C2866 1.392 . S
C2865 C2869 1.495 . S
C2866 C2865 1.392 . S
C2866 C2867 1.385 . S
C2866 C2868 1.478 . S
C2867 H2861 0.930 . S
C2867 C2863 1.400 . S
C2867 C2866 1.385 . S
C2868 C2866 1.478 . S
C2868 C2870 1.381 . S
C2868 C2874 1.383 . S
C2869 C2865 1.495 . S
C2869 H2875 0.959 . S
C2869 H2876 0.961 . S
C2869 H2877 0.960 . S
C2870 C2868 1.381 . S
C2870 C2871 1.394 . S
C2870 H2878 0.930 . S
C2871 C2870 1.394 . S
C2871 C2872 1.383 . S
C2871 H2879 0.929 . S
C2872 C2871 1.383 . S
C2872 C2873 1.377 . S
C2873 H2857 0.930 . S
C2873 C2872 1.377 . S
C2873 C2874 1.379 . S
C2874 H2858 0.931 . S
C2874 C2868 1.383 . S
C2874 C2873 1.379 . S
H2875 C2869 0.959 . S
H2876 C2869 0.961 . S
H2877 C2869 0.960 . S
H2878 C2870 0.930 . S
H2879 C2871 0.929 . S
H2880 C2888 0.929 . S
H2881 C2890 0.930 . S
H2882 C2892 0.930 . S
H2883 C2895 0.929 . S
H2884 C2898 0.930 . S
H2885 C2900 0.960 . S
H2886 C2900 0.960 . S
H2887 C2900 0.960 . S
C2888 H2880 0.929 . S
C2888 C2889 1.377 . S
C2888 C2890 1.384 . S
C2889 C2888 1.377 . S
C2889 C2895 1.390 . S
C2890 H2881 0.930 . S
C2890 C2888 1.384 . S
C2890 C2891 1.372 . S
C2891 C2890 1.372 . S
C2891 C2892 1.400 . S
C2891 C2896 1.490 . S
C2892 H2882 0.930 . S
C2892 C2891 1.400 . S
C2892 C2895 1.386 . S
H2893 C2909 0.930 . S
H2894 C2910 0.931 . S
C2895 H2883 0.929 . S
C2895 C2889 1.390 . S
C2895 C2892 1.386 . S
C2896 C2891 1.490 . S
C2896 C2898 1.395 . S
C2896 C2899 1.403 . S
H2897 C2903 0.930 . S
C2898 H2884 0.930 . S
C2898 C2896 1.395 . S
C2898 C2901 1.403 1_455 S
C2899 C2896 1.403 . S
C2899 C2900 1.524 . S
C2899 C2903 1.400 1_455 S
C2900 H2885 0.960 . S
C2900 H2886 0.960 . S
C2900 H2887 0.960 . S
C2900 C2899 1.524 . S
C2901 C2898 1.403 1_655 S
C2901 C2902 1.392 . S
C2901 C2905 1.495 . S
C2902 C2901 1.392 . S
C2902 C2903 1.385 . S
C2902 C2904 1.478 . S
C2903 H2897 0.930 . S
C2903 C2899 1.400 1_655 S
C2903 C2902 1.385 . S
C2904 C2902 1.478 . S
C2904 C2906 1.381 . S
C2904 C2910 1.383 . S
C2905 C2901 1.495 . S
C2905 H2911 0.959 . S
C2905 H2912 0.961 . S
C2905 H2913 0.960 . S
C2906 C2904 1.381 . S
C2906 C2907 1.394 . S
C2906 H2914 0.930 . S
C2907 C2906 1.394 . S
C2907 C2908 1.383 . S
C2907 H2915 0.929 . S
C2908 C2907 1.383 . S
C2908 C2909 1.377 . S
C2909 H2893 0.930 . S
C2909 C2908 1.377 . S
C2909 C2910 1.379 . S
C2910 H2894 0.931 . S
C2910 C2904 1.383 . S
C2910 C2909 1.379 . S
H2911 C2905 0.959 . S
H2912 C2905 0.961 . S
H2913 C2905 0.960 . S
H2914 C2906 0.930 . S
H2915 C2907 0.929 . S
H2916 C2924 0.929 . S
H2917 C2926 0.930 . S
H2918 C2928 0.930 . S
H2919 C2931 0.929 . S
H2920 C2934 0.930 . S
H2921 C2936 0.960 . S
H2922 C2936 0.960 . S
H2923 C2936 0.960 . S
C2924 H2916 0.929 . S
C2924 C2925 1.377 . S
C2924 C2926 1.384 . S
C2925 C2924 1.377 . S
C2925 C2931 1.390 . S
C2926 H2917 0.930 . S
C2926 C2924 1.384 . S
C2926 C2927 1.372 . S
C2927 C2926 1.372 . S
C2927 C2928 1.400 . S
C2927 C2932 1.490 . S
C2928 H2918 0.930 . S
C2928 C2927 1.400 . S
C2928 C2931 1.386 . S
H2929 C2945 0.930 . S
H2930 C2946 0.931 . S
C2931 H2919 0.929 . S
C2931 C2925 1.390 . S
C2931 C2928 1.386 . S
C2932 C2927 1.490 . S
C2932 C2934 1.395 . S
C2932 C2935 1.403 . S
H2933 C2939 0.930 . S
C2934 H2920 0.930 . S
C2934 C2932 1.395 . S
C2934 C2937 1.403 . S
C2935 C2932 1.403 . S
C2935 C2936 1.524 . S
C2935 C2939 1.400 . S
C2936 H2921 0.960 . S
C2936 H2922 0.960 . S
C2936 H2923 0.960 . S
C2936 C2935 1.524 . S
C2937 C2934 1.403 . S
C2937 C2938 1.392 . S
C2937 C2941 1.495 . S
C2938 C2937 1.392 . S
C2938 C2939 1.385 . S
C2938 C2940 1.478 . S
C2939 H2933 0.930 . S
C2939 C2935 1.400 . S
C2939 C2938 1.385 . S
C2940 C2938 1.478 . S
C2940 C2942 1.381 . S
C2940 C2946 1.383 . S
C2941 C2937 1.495 . S
C2941 H2947 0.959 . S
C2941 H2948 0.961 . S
C2941 H2949 0.960 . S
C2942 C2940 1.381 . S
C2942 C2943 1.394 . S
C2942 H2950 0.930 . S
C2943 C2942 1.394 . S
C2943 C2944 1.383 . S
C2943 H2951 0.929 . S
C2944 C2943 1.383 . S
C2944 C2945 1.377 . S
C2945 H2929 0.930 . S
C2945 C2944 1.377 . S
C2945 C2946 1.379 . S
C2946 H2930 0.931 . S
C2946 C2940 1.383 . S
C2946 C2945 1.379 . S
H2947 C2941 0.959 . S
H2948 C2941 0.961 . S
H2949 C2941 0.960 . S
H2950 C2942 0.930 . S
H2951 C2943 0.929 . S
H2952 C2960 0.929 . S
H2953 C2962 0.930 . S
H2954 C2964 0.930 . S
H2955 C2967 0.929 . S
H2956 C2970 0.930 . S
H2957 C2972 0.960 . S
H2958 C2972 0.960 . S
H2959 C2972 0.960 . S
C2960 H2952 0.929 . S
C2960 C2961 1.377 . S
C2960 C2962 1.384 . S
C2961 C2960 1.377 . S
C2961 C2967 1.390 . S
C2962 H2953 0.930 . S
C2962 C2960 1.384 . S
C2962 C2963 1.372 . S
C2963 C2962 1.372 . S
C2963 C2964 1.400 . S
C2963 C2968 1.490 . S
C2964 H2954 0.930 . S
C2964 C2963 1.400 . S
C2964 C2967 1.386 . S
H2965 C2981 0.930 . S
H2966 C2982 0.931 . S
C2967 H2955 0.929 . S
C2967 C2961 1.390 . S
C2967 C2964 1.386 . S
C2968 C2963 1.490 . S
C2968 C2970 1.395 . S
C2968 C2971 1.403 . S
H2969 C2975 0.930 . S
C2970 H2956 0.930 . S
C2970 C2968 1.395 . S
C2970 C2973 1.403 1_545 S
C2971 C2968 1.403 . S
C2971 C2972 1.524 . S
C2971 C2975 1.400 1_545 S
C2972 H2957 0.960 . S
C2972 H2958 0.960 . S
C2972 H2959 0.960 . S
C2972 C2971 1.524 . S
C2973 C2970 1.403 1_565 S
C2973 C2974 1.392 . S
C2973 C2977 1.495 . S
C2974 C2973 1.392 . S
C2974 C2975 1.385 . S
C2974 C2976 1.478 . S
C2975 H2969 0.930 . S
C2975 C2971 1.400 1_565 S
C2975 C2974 1.385 . S
C2976 C2974 1.478 . S
C2976 C2978 1.381 . S
C2976 C2982 1.383 . S
C2977 C2973 1.495 . S
C2977 H2983 0.959 . S
C2977 H2984 0.961 . S
C2977 H2985 0.960 . S
C2978 C2976 1.381 . S
C2978 C2979 1.394 . S
C2978 H2986 0.930 . S
C2979 C2978 1.394 . S
C2979 C2980 1.383 . S
C2979 H2987 0.929 . S
C2980 C2979 1.383 . S
C2980 C2981 1.377 . S
C2981 H2965 0.930 . S
C2981 C2980 1.377 . S
C2981 C2982 1.379 . S
C2982 H2966 0.931 . S
C2982 C2976 1.383 . S
C2982 C2981 1.379 . S
H2983 C2977 0.959 . S
H2984 C2977 0.961 . S
H2985 C2977 0.960 . S
H2986 C2978 0.930 . S
H2987 C2979 0.929 . S
H2988 C2996 0.929 . S
H2989 C2998 0.930 . S
H2990 C3000 0.930 1_554 S
H2991 C3003 0.929 . S
H2992 C3006 0.930 . S
H2993 C3008 0.960 1_565 S
H2994 C3008 0.960 1_556 S
H2995 C3008 0.960 . S
C2996 H2988 0.929 . S
C2996 C2997 1.377 . S
C2996 C2998 1.384 . S
C2997 C2996 1.377 . S
C2997 C3003 1.390 . S
C2998 H2989 0.930 . S
C2998 C2996 1.384 . S
C2998 C2999 1.372 . S
C2999 C2998 1.372 . S
C2999 C3000 1.400 . S
C2999 C3004 1.490 . S
C3000 H2990 0.930 1_556 S
C3000 C2999 1.400 . S
C3000 C3003 1.386 . S
H3001 C3017 0.930 . S
H3002 C3018 0.931 . S
C3003 H2991 0.929 . S
C3003 C2997 1.390 . S
C3003 C3000 1.386 . S
C3004 C2999 1.490 . S
C3004 C3006 1.395 . S
C3004 C3007 1.403 1_556 S
H3005 C3011 0.930 . S
C3006 H2992 0.930 . S
C3006 C3004 1.395 . S
C3006 C3009 1.403 1_545 S
C3007 C3004 1.403 1_554 S
C3007 C3008 1.524 . S
C3007 C3011 1.400 1_545 S
C3008 H2993 0.960 1_545 S
C3008 H2994 0.960 1_554 S
C3008 H2995 0.960 . S
C3008 C3007 1.524 . S
C3009 C3006 1.403 1_565 S
C3009 C3010 1.392 1_556 S
C3009 C3013 1.495 . S
C3010 C3009 1.392 1_554 S
C3010 C3011 1.385 . S
C3010 C3012 1.478 . S
C3011 H3005 0.930 . S
C3011 C3007 1.400 1_565 S
C3011 C3010 1.385 . S
C3012 C3010 1.478 . S
C3012 C3014 1.381 . S
C3012 C3018 1.383 . S
C3013 C3009 1.495 . S
C3013 H3019 0.959 . S
C3013 H3020 0.961 1_556 S
C3013 H3021 0.960 . S
C3014 C3012 1.381 . S
C3014 C3015 1.394 . S
C3014 H3022 0.930 1_554 S
C3015 C3014 1.394 . S
C3015 C3016 1.383 . S
C3015 H3023 0.929 . S
C3016 C3015 1.383 . S
C3016 C3017 1.377 . S
C3017 H3001 0.930 . S
C3017 C3016 1.377 . S
C3017 C3018 1.379 . S
C3018 H3002 0.931 . S
C3018 C3012 1.383 . S
C3018 C3017 1.379 . S
H3019 C3013 0.959 . S
H3020 C3013 0.961 1_554 S
H3021 C3013 0.960 . S
H3022 C3014 0.930 1_556 S
H3023 C3015 0.929 . S
H3024 C3032 0.929 . S
H3025 C3034 0.930 1_554 S
H3026 C3036 0.930 . S
H3027 C3039 0.929 . S
H3028 C3042 0.930 . S
H3029 C3044 0.960 . S
H3030 C3044 0.960 . S
H3031 C3044 0.960 1_556 S
C3032 H3024 0.929 . S
C3032 C3033 1.377 . S
C3032 C3034 1.384 . S
C3033 C3032 1.377 . S
C3033 C3039 1.390 . S
C3034 H3025 0.930 1_556 S
C3034 C3032 1.384 . S
C3034 C3035 1.372 . S
C3035 C3034 1.372 . S
C3035 C3036 1.400 . S
C3035 C3040 1.490 . S
C3036 H3026 0.930 . S
C3036 C3035 1.400 . S
C3036 C3039 1.386 . S
H3037 C3053 0.930 . S
H3038 C3054 0.931 1_556 S
C3039 H3027 0.929 . S
C3039 C3033 1.390 . S
C3039 C3036 1.386 . S
C3040 C3035 1.490 . S
C3040 C3042 1.395 . S
C3040 C3043 1.403 1_556 S
H3041 C3047 0.930 . S
C3042 H3028 0.930 . S
C3042 C3040 1.395 . S
C3042 C3045 1.418 1_655 S
C3043 C3040 1.403 1_554 S
C3043 C3044 1.524 . S
C3043 C3047 1.400 1_655 S
C3044 H3029 0.960 . S
C3044 H3030 0.960 . S
C3044 H3031 0.960 1_554 S
C3044 C3043 1.524 . S
C3045 C3042 1.418 1_455 S
C3045 C3046 1.376 1_556 S
C3045 C3049 1.499 . S
C3046 C3045 1.376 1_554 S
C3046 C3047 1.385 . S
C3046 C3048 1.478 . S
C3047 H3041 0.930 . S
C3047 C3043 1.400 1_455 S
C3047 C3046 1.385 . S
C3048 C3046 1.478 . S
C3048 C3050 1.381 . S
C3048 C3054 1.383 . S
C3049 C3045 1.499 . S
C3049 H3055 0.959 . S
C3049 H3056 0.961 . S
C3049 H3057 0.960 1_556 S
C3050 C3048 1.381 . S
C3050 C3051 1.394 . S
C3050 H3058 0.930 . S
C3051 C3050 1.394 . S
C3051 C3052 1.383 . S
C3051 H3059 0.929 . S
C3052 C3051 1.383 . S
C3052 C3053 1.377 . S
C3053 H3037 0.930 . S
C3053 C3052 1.377 . S
C3053 C3054 1.379 . S
C3054 H3038 0.931 1_554 S
C3054 C3048 1.383 . S
C3054 C3053 1.379 . S
H3055 C3049 0.959 . S
H3056 C3049 0.961 . S
H3057 C3049 0.960 1_554 S
H3058 C3050 0.930 . S
H3059 C3051 0.929 . S
H3060 C3068 0.929 . S
H3061 C3070 0.930 1_554 S
H3062 C3072 0.930 . S
H3063 C3075 0.929 . S
H3064 C3078 0.930 . S
H3065 C3080 0.960 . S
H3066 C3080 0.960 . S
H3067 C3080 0.960 . S
C3068 H3060 0.929 . S
C3068 C3069 1.377 . S
C3068 C3070 1.384 . S
C3069 C3068 1.377 . S
C3069 C3075 1.390 . S
C3070 H3061 0.930 1_556 S
C3070 C3068 1.384 . S
C3070 C3071 1.372 . S
C3071 C3070 1.372 . S
C3071 C3072 1.400 . S
C3071 C3076 1.490 . S
C3072 H3062 0.930 . S
C3072 C3071 1.400 . S
C3072 C3075 1.386 . S
H3073 C3089 0.930 . S
H3074 C3090 0.931 . S
C3075 H3063 0.929 . S
C3075 C3069 1.390 . S
C3075 C3072 1.386 . S
C3076 C3071 1.490 . S
C3076 C3078 1.395 1_556 S
C3076 C3079 1.403 . S
H3077 C3083 0.930 . S
C3078 H3064 0.930 . S
C3078 C3076 1.395 1_554 S
C3078 C3081 1.403 . S
C3079 C3076 1.403 . S
C3079 C3080 1.524 . S
C3079 C3083 1.400 . S
C3080 H3065 0.960 . S
C3080 H3066 0.960 . S
C3080 H3067 0.960 . S
C3080 C3079 1.524 . S
C3081 C3078 1.403 . S
C3081 C3082 1.392 . S
C3081 C3085 1.495 . S
C3082 C3081 1.392 . S
C3082 C3083 1.385 1_554 S
C3082 C3084 1.478 . S
C3083 H3077 0.930 . S
C3083 C3079 1.400 . S
C3083 C3082 1.385 1_556 S
C3084 C3082 1.478 . S
C3084 C3086 1.381 . S
C3084 C3090 1.383 . S
C3085 C3081 1.495 . S
C3085 H3091 0.959 . S
C3085 H3092 0.961 . S
C3085 H3093 0.960 . S
C3086 C3084 1.381 . S
C3086 C3087 1.394 . S
C3086 H3094 0.930 . S
C3087 C3086 1.394 . S
C3087 C3088 1.383 . S
C3087 H3095 0.929 . S
C3088 C3087 1.383 . S
C3088 C3089 1.377 . S
C3089 H3073 0.930 . S
C3089 C3088 1.377 . S
C3089 C3090 1.379 . S
C3090 H3074 0.931 . S
C3090 C3084 1.383 . S
C3090 C3089 1.379 . S
H3091 C3085 0.959 . S
H3092 C3085 0.961 . S
H3093 C3085 0.960 . S
H3094 C3086 0.930 . S
H3095 C3087 0.929 . S
C513 C3 1.254 . S
C532 C107 1.242 . S
C549 C17 1.256 . S
C568 C121 1.207 . S
C585 C93 1.234 . S
C604 C31 1.246 . S
C621 C163 1.234 . S
C640 C45 1.237 . S
C657 C59 1.252 . S
C676 C135 1.251 . S
C693 C73 1.256 . S
C712 C149 1.205 . S
C729 C23 1.224 . S
C748 C87 1.237 . S
C765 C37 1.234 . S
C784 C101 1.262 . S
C801 C115 1.255 . S
C820 C9 1.238 . S
C837 C129 1.251 . S
C856 C79 1.199 . S
C873 C51 1.225 . S
C892 C143 1.242 . S
C909 C157 1.256 . S
C928 C65 1.254 . S
C945 C275 1.226 . S
C964 C171 1.248 . S
C981 C185 1.252 . S
C1000 C289 1.254 . S
C1017 C199 1.251 . S
C1036 C261 1.229 . S
C1053 C331 1.234 . S
C1072 C213 1.249 . S
C1089 C227 1.251 . S
C1108 C303 1.224 . S
C1125 C317 1.229 . S
C1144 C241 1.242 . S
C1161 C191 1.233 . S
C1180 C255 1.262 . S
C1197 C269 1.253 . S
C1216 C205 1.229 . S
C1233 C177 1.226 . S
C1252 C283 1.240 . S
C1269 C297 1.256 . S
C1288 C247 1.254 . S
C1305 C311 1.251 . S
C1324 C219 1.208 . S
C1341 C325 1.252 . S
C1360 C233 1.219 . S
C1377 C443 1.234 . S
C1396 C339 1.248 . S
C1413 C457 1.230 . S
C1432 C353 1.260 . S
C1449 C429 1.224 . S
C1468 C367 1.254 . S
C1485 C381 1.256 . S
C1504 C499 1.218 . S
C1521 C395 1.256 . S
C1540 C471 1.213 . S
C1557 C485 1.231 . S
C1576 C409 1.239 . S
C1593 C423 1.255 . S
C1612 C359 1.243 . S
C1629 C373 1.234 . S
C1648 C437 1.261 . S
C1665 C345 1.235 . S
C1684 C451 1.265 . S
C1701 C465 1.251 . S
C1720 C415 1.211 . S
C1737 C479 1.251 . S
C1756 C387 1.209 . S
C1773 C493 1.255 . S
C1792 C401 1.243 . S
C1809 C49 1.285 . S
C1828 C7 1.301 . S
C1845 C63 1.283 . S
C1864 C21 1.295 . S
C1881 C35 1.276 . S
C1900 C77 1.255 . S
C1917 C133 1.276 . S
C1936 C91 1.300 . S
C1953 C147 1.279 . S
C1972 C105 1.298 . S
C1989 C161 1.284 . S
C2008 C119 1.274 . S
C2025 C217 1.281 . S
C2044 C175 1.278 . S
C2061 C231 1.276 . S
C2080 C189 1.258 . S
C2097 C203 1.282 . S
C2116 C245 1.278 . S
C2133 C301 1.275 . S
C2152 C259 1.294 . S
C2169 C315 1.281 . S
C2188 C273 1.290 . S
C2205 C329 1.278 . S
C2224 C287 1.274 . S
C2241 C385 1.283 . S
C2260 C343 1.293 . S
C2277 C357 1.283 . S
C2296 C399 1.285 . S
C2313 C413 1.276 . S
C2332 C371 1.255 . S
C2349 C427 1.280 . S
C2368 C469 1.263 . S
C2385 C441 1.276 . S
C2404 C483 1.289 . S
C2421 C455 1.283 . S
C2440 C497 1.255 . S
C2457 C8 1.397 . S
C2476 C260 1.397 . S
C2493 C274 1.394 . S
C2512 C22 1.386 . S
C2529 C288 1.396 . S
C2548 C36 1.398 . S
C2565 C470 1.397 . S
C2584 C50 1.394 . S
C2601 C484 1.397 . S
C2620 C64 1.398 . S
C2637 C498 1.394 . S
C2656 C78 1.391 . S
C2673 C92 1.394 . S
C2692 C344 1.389 . S
C2709 C358 1.396 . S
C2728 C106 1.399 . S
C2745 C372 1.395 . S
C2764 C120 1.395 . S
C2781 C134 1.396 . S
C2800 C218 1.399 . S
C2817 C148 1.394 . S
C2836 C232 1.394 . S
C2853 C162 1.396 . S
C2872 C246 1.388 . S
C2889 C428 1.397 . S
C2908 C176 1.393 . S
C2925 C442 1.395 . S
C2944 C190 1.397 . S
C2961 C204 1.396 . S
C2980 C456 1.389 . S
C2997 C302 1.397 . S
C3016 C386 1.397 . S
C3033 C316 1.395 . S
C3052 C400 1.386 . S
C3069 C330 1.394 . S
C3088 C414 1.393 . S
