# Generated by pormake.
# Topology soe, (5)-cn, num edge types: 1
# Building blocks:
#     Node 0, Type 0, BuildingBlock: BEQFEK_clean_sbu_0, # of connection points: 5
#     Node 1, Type 0, BuildingBlock: BEQFEK_clean_sbu_0, # of connection points: 5
#     Node 2, Type 0, BuildingBlock: BEQFEK_clean_sbu_0, # of connection points: 5
#     Node 3, Type 0, BuildingBlock: BEQFEK_clean_sbu_0, # of connection points: 5
#     Node 4, Type 0, BuildingBlock: BEQFEK_clean_sbu_0, # of connection points: 5
#     Node 5, Type 0, BuildingBlock: BEQFEK_clean_sbu_0, # of connection points: 5
#     Node 6, Type 0, BuildingBlock: BEQFEK_clean_sbu_0, # of connection points: 5
#     Node 7, Type 0, BuildingBlock: BEQFEK_clean_sbu_0, # of connection points: 5
#     Edge 8, Type (0, 0), BuildingBlock: OJICUG_clean_linker_0, # of connection points: 2
#     Edge 9, Type (0, 0), BuildingBlock: OJICUG_clean_linker_0, # of connection points: 2
#     Edge 10, Type (0, 0), BuildingBlock: OJICUG_clean_linker_0, # of connection points: 2
#     Edge 11, Type (0, 0), BuildingBlock: OJICUG_clean_linker_0, # of connection points: 2
#     Edge 12, Type (0, 0), BuildingBlock: OJICUG_clean_linker_0, # of connection points: 2
#     Edge 13, Type (0, 0), BuildingBlock: OJICUG_clean_linker_0, # of connection points: 2
#     Edge 14, Type (0, 0), BuildingBlock: OJICUG_clean_linker_0, # of connection points: 2
#     Edge 15, Type (0, 0), BuildingBlock: OJICUG_clean_linker_0, # of connection points: 2
#     Edge 16, Type (0, 0), BuildingBlock: OJICUG_clean_linker_0, # of connection points: 2
#     Edge 17, Type (0, 0), BuildingBlock: OJICUG_clean_linker_0, # of connection points: 2
#     Edge 18, Type (0, 0), BuildingBlock: OJICUG_clean_linker_0, # of connection points: 2
#     Edge 19, Type (0, 0), BuildingBlock: OJICUG_clean_linker_0, # of connection points: 2
#     Edge 20, Type (0, 0), BuildingBlock: OJICUG_clean_linker_0, # of connection points: 2
#     Edge 21, Type (0, 0), BuildingBlock: OJICUG_clean_linker_0, # of connection points: 2
#     Edge 22, Type (0, 0), BuildingBlock: OJICUG_clean_linker_0, # of connection points: 2
#     Edge 23, Type (0, 0), BuildingBlock: OJICUG_clean_linker_0, # of connection points: 2
#     Edge 24, Type (0, 0), BuildingBlock: OJICUG_clean_linker_0, # of connection points: 2
#     Edge 25, Type (0, 0), BuildingBlock: OJICUG_clean_linker_0, # of connection points: 2
#     Edge 26, Type (0, 0), BuildingBlock: OJICUG_clean_linker_0, # of connection points: 2
#     Edge 27, Type (0, 0), BuildingBlock: OJICUG_clean_linker_0, # of connection points: 2
# Relax obj value: 0.168
# Max RMSD: 0.236
# Mean RMSD: 0.178
data_MOF--net-soe--node1-BEQFEK_clean_sbu_0--edge1-OJICUG_clean_linker_0
_symmetry_space_group_name_H-M    P1
_symmetry_Int_Tables_number       1
_symmetry_cell_setting            triclinic
loop_
_symmetry_equiv_pos_as_xyz
'x, y, z'
_cell_length_a     43.368078
_cell_length_b     29.421305
_cell_length_c     15.057031
_cell_angle_alpha  89.548954
_cell_angle_beta   90.210736
_cell_angle_gamma 93.009363
loop_
_atom_site_label
_atom_site_type_symbol
_atom_site_fract_x
_atom_site_fract_y
_atom_site_fract_z
_atom_type_partial_charge
Co0 Co 0.12307 0.01528 0.20333 0.0
Co1 Co 0.13386 0.049 0.00781 0.0
C2 C 0.17821 0.98908 0.10137 0.0
O3 O 0.16159 0.98582 0.17099 0.0
O4 O 0.17003 0.01205 0.03401 0.0
C5 C 0.12935 0.98545 0.38282 0.0
O6 O 0.1548 0.96773 0.35582 0.0
C7 C 0.1437 0.04116 0.81591 0.0
C8 C 0.11278 0.09249 0.76404 0.0
C9 C 0.13049 0.05703 0.73806 0.0
N10 N 0.13287 0.06451 0.88454 0.0
N11 N 0.11517 0.09605 0.85282 0.0
C12 C 0.16705 0.00581 0.82591 0.0
H13 H 0.18491 0.01779 0.87423 0.0
H14 H 0.15563 0.97376 0.85172 0.0
H15 H 0.17881 -0.00054 0.76229 0.0
C16 C 0.06049 0.99113 0.13046 0.0
N17 N 0.09032 0.00568 0.12096 0.0
N18 N 0.09553 0.01672 0.03734 0.0
C19 C 0.0695 0.00705 0.99006 0.0
C20 C 0.04612 0.9916 0.04752 0.0
C21 C 0.04564 0.98134 0.21863 0.0
H22 H 0.05558 0.00511 0.26916 0.0
H23 H 0.05038 0.94615 0.23969 0.0
H24 H 0.02032 0.9848 0.21556 0.0
O25 O 0.13333 0.07989 0.21277 0.0
O26 O 0.13894 0.10735 0.07623 0.0
H27 H 0.06309 0.04371 0.86882 0.0
H28 H 0.04859 0.98531 0.86585 0.0
C29 C 0.06754 0.00863 0.89084 0.0
H30 H 0.0894 -0.00187 0.86172 0.0
H31 H 0.10311 0.11805 0.89229 0.0
O32 O 0.11081 0.00097 0.32618 0.0
C33 C 0.13882 0.11307 0.16013 0.0
Co34 Co 0.3612 0.91839 0.21161 0.0
Co35 Co 0.3536 0.88039 0.01842 0.0
C36 C 0.30349 0.93058 0.10793 0.0
O37 O 0.31979 0.93811 0.17721 0.0
O38 O 0.31389 0.90903 0.04247 0.0
C39 C 0.34951 0.94251 0.38856 0.0
O40 O 0.32148 0.9456 0.35667 0.0
C41 C 0.34759 0.89682 0.82936 0.0
C42 C 0.36588 0.8353 0.77019 0.0
C43 C 0.35521 0.8777 0.74905 0.0
N44 N 0.35393 0.86744 0.89485 0.0
N45 N 0.36431 0.83035 0.85911 0.0
C46 C 0.33857 0.9445 0.84528 0.0
H47 H 0.34552 0.95558 0.91306 0.0
H48 H 0.34936 0.96829 0.79543 0.0
H49 H 0.31311 0.94568 0.83946 0.0
C50 C 0.42043 0.9567 0.13543 0.0
N51 N 0.39218 0.93562 0.12723 0.0
N52 N 0.3891 0.91902 0.04652 0.0
C53 C 0.41543 0.92877 0.00112 0.0
C54 C 0.43616 0.95278 0.05573 0.0
C55 C 0.43324 0.97481 0.22121 0.0
H56 H 0.43665 0.94592 0.26743 0.0
H57 H 0.41635 -0.00313 0.25214 0.0
H58 H 0.4556 -0.00575 0.21147 0.0
O59 O 0.3589 0.85187 0.2234 0.0
O60 O 0.35498 0.82266 0.08826 0.0
H61 H 0.4176 0.87585 0.90489 0.0
H62 H 0.44522 0.92298 0.8862 0.0
C63 C 0.42144 0.91331 0.90853 0.0
H64 H 0.40536 0.92944 0.86226 0.0
H65 H 0.37168 0.80259 0.89564 0.0
O66 O 0.37159 0.93697 0.33495 0.0
C67 C 0.35686 0.81769 0.17233 0.0
Co68 Co 0.14204 0.39039 0.28116 0.0
Co69 Co 0.15199 0.35225 0.47453 0.0
C70 C 0.19848 0.41723 0.38397 0.0
O71 O 0.18186 0.4207 0.31476 0.0
O72 O 0.18969 0.39202 0.4492 0.0
C73 C 0.15268 0.41528 0.10307 0.0
O74 O 0.18054 0.42396 0.1351 0.0
C75 C 0.15729 0.3698 0.66358 0.0
C76 C 0.14274 0.30363 0.72452 0.0
C77 C 0.15084 0.34864 0.74456 0.0
N78 N 0.15272 0.33896 0.59882 0.0
N79 N 0.1446 0.29923 0.63569 0.0
C80 C 0.16364 0.4196 0.6464 0.0
H81 H 0.15622 0.4288 0.57829 0.0
H82 H 0.15158 0.44021 0.69554 0.0
H83 H 0.18884 0.42771 0.65236 0.0
C84 C 0.08383 0.41911 0.36351 0.0
N85 N 0.11133 0.39986 0.36735 0.0
N86 N 0.11494 0.38195 0.44701 0.0
C87 C 0.08936 0.38806 0.49529 0.0
C88 C 0.06901 0.412 0.44443 0.0
C89 C 0.07148 0.44128 0.28211 0.0
H90 H 0.06565 0.41472 0.23197 0.0
H91 H 0.08959 0.46493 0.2531 0.0
H92 H 0.05052 0.45988 0.29693 0.0
O93 O 0.14715 0.32492 0.27052 0.0
O94 O 0.15297 0.29506 0.40478 0.0
H95 H 0.09112 0.33536 0.59398 0.0
H96 H 0.05963 0.37205 0.60839 0.0
C97 C 0.08411 0.3709 0.58821 0.0
H98 H 0.09802 0.39258 0.63472 0.0
H99 H 0.13886 0.26969 0.59997 0.0
O100 O 0.1306 0.40607 0.1569 0.0
C101 C 0.15086 0.29077 0.3207 0.0
Co102 Co 0.37526 0.54129 0.2896 0.0
Co103 Co 0.36494 0.57447 0.48408 0.0
C104 C 0.31896 0.51075 0.38929 0.0
O105 O 0.3355 0.50977 0.31973 0.0
O106 O 0.32757 0.53409 0.45685 0.0
C107 C 0.36969 0.50989 0.11115 0.0
O108 O 0.34425 0.48802 0.13831 0.0
C109 C 0.35515 0.5642 0.67637 0.0
C110 C 0.38577 0.62047 0.72728 0.0
C111 C 0.36826 0.58199 0.75399 0.0
N112 N 0.36588 0.58954 0.60728 0.0
N113 N 0.38338 0.62393 0.63845 0.0
C114 C 0.33211 0.52488 0.66692 0.0
H115 H 0.31435 0.53373 0.61769 0.0
H116 H 0.34386 0.49479 0.64257 0.0
H117 H 0.32018 0.51658 0.73044 0.0
C118 C 0.43282 0.50973 0.36979 0.0
N119 N 0.40586 0.53026 0.37505 0.0
N120 N 0.40185 0.54416 0.45692 0.0
C121 C 0.42632 0.53265 0.50645 0.0
C122 C 0.44675 0.51085 0.45288 0.0
C123 C 0.4451 0.49082 0.28587 0.0
H124 H 0.44635 0.51791 0.23412 0.0
H125 H 0.42884 0.46322 0.2617 0.0
H126 H 0.46833 0.47748 0.29559 0.0
O127 O 0.36898 0.60621 0.27965 0.0
O128 O 0.36293 0.63269 0.41514 0.0
H129 H 0.43275 0.57616 0.61856 0.0
H130 H 0.44923 0.52169 0.63268 0.0
C131 C 0.4294 0.53934 0.60455 0.0
H132 H 0.40819 0.52557 0.63786 0.0
H133 H 0.3953 0.64809 0.59858 0.0
O134 O 0.38804 0.52839 0.16767 0.0
C135 C 0.36455 0.63895 0.33142 0.0
Co136 Co 0.8628 0.88519 -0.00104 0.0
Co137 Co 0.87437 0.91837 0.80299 0.0
C138 C 0.81916 0.94562 0.90314 0.0
O139 O 0.8276 0.92352 0.97109 0.0
O140 O 0.83535 0.94741 0.83276 0.0
C141 C 0.83908 0.88009 0.17475 0.0
O142 O 0.8172 0.90388 0.14019 0.0
C143 C 0.86158 0.92368 0.61158 0.0
C144 C 0.90888 0.92608 0.55691 0.0
C145 C 0.878 0.92171 0.53269 0.0
N146 N 0.88196 0.92736 0.67911 0.0
N147 N 0.91013 0.93019 0.64576 0.0
C148 C 0.82748 0.91531 0.62422 0.0
H149 H 0.8224 0.902 0.69197 0.0
H150 H 0.81776 0.89067 0.57478 0.0
H151 H 0.81603 0.94789 0.6153 0.0
C152 C 0.86679 0.79419 0.91397 0.0
N153 N 0.86619 0.83996 0.91096 0.0
N154 N 0.87052 0.85407 0.82834 0.0
C155 C 0.87344 0.81751 0.77612 0.0
C156 C 0.87164 0.77848 0.82853 0.0
C157 C 0.86455 0.76665 0.99781 0.0
H158 H 0.87638 0.78552 0.05275 0.0
H159 H 0.83986 0.76091 0.01582 0.0
H160 H 0.87483 0.73318 0.98961 0.0
O161 O 0.90268 0.91969 0.00396 0.0
O162 O 0.91147 0.94567 0.86738 0.0
H163 H 0.89714 0.83877 0.65703 0.0
H164 H 0.87501 0.78552 0.64578 0.0
C165 C 0.87563 0.81947 0.67686 0.0
H166 H 0.85549 0.83646 0.65029 0.0
H167 H 0.93026 0.93187 0.68406 0.0
O168 O 0.85831 0.86246 0.12327 0.0
C169 C 0.91977 0.94145 0.9482 0.0
Co170 Co 0.63788 0.02728 0.80526 0.0
Co171 Co 0.64785 0.06541 0.99817 0.0
C172 C 0.69596 0.01233 0.90499 0.0
O173 O 0.67899 0.00574 0.83675 0.0
O174 O 0.68662 0.03439 0.97128 0.0
C175 C 0.64751 -5e-05 0.6279 0.0
O176 O 0.67478 0.99092 0.65958 0.0
C177 C 0.65351 0.04782 0.18737 0.0
C178 C 0.63882 0.11142 0.24729 0.0
C179 C 0.64706 0.06765 0.26806 0.0
N180 N 0.64875 0.07814 0.12217 0.0
N181 N 0.64057 0.11643 0.15841 0.0
C182 C 0.65991 -0.0009 0.17076 0.0
H183 H 0.65315 0.98936 0.10208 0.0
H184 H 0.64731 0.97632 0.21898 0.0
H185 H 0.68502 -0.00532 0.17878 0.0
C186 C 0.57872 0.99157 0.88547 0.0
N187 N 0.60733 0.0116 0.89182 0.0
N188 N 0.61119 0.02872 0.97194 0.0
C189 C 0.58493 0.0206 0.01861 0.0
C190 C 0.56352 -0.00316 0.96563 0.0
C191 C 0.56517 0.97318 0.80081 0.0
H192 H 0.56142 0.00193 0.75454 0.0
H193 H 0.58173 0.95092 0.76896 0.0
H194 H 0.54284 0.95392 0.81226 0.0
O195 O 0.64137 0.09364 0.79427 0.0
O196 O 0.64714 0.12342 0.92851 0.0
H197 H 0.58582 0.07426 0.11408 0.0
H198 H 0.55551 0.03088 0.1328 0.0
C199 C 0.5797 0.03728 0.11081 0.0
H200 H 0.59453 0.01913 0.15768 0.0
H201 H 0.63471 0.14517 0.12224 0.0
O202 O 0.62636 0.00984 0.68174 0.0
C203 C 0.6445 0.12803 0.84451 0.0
Co204 Co 0.87756 0.49985 0.71648 0.0
Co205 Co 0.87316 0.53953 0.52286 0.0
C206 C 0.82114 0.48273 0.60811 0.0
O207 O 0.83687 0.47517 0.67752 0.0
O208 O 0.83229 0.50704 0.54447 0.0
C209 C 0.86122 0.49706 0.88649 0.0
O210 O 0.83775 0.51207 0.84157 0.0
C211 C 0.8695 0.52465 0.33205 0.0
C212 C 0.87932 0.5936 0.27667 0.0
C213 C 0.87287 0.54867 0.25321 0.0
N214 N 0.87438 0.55381 0.39951 0.0
N215 N 0.88021 0.59502 0.36605 0.0
C216 C 0.86044 0.4752 0.3434 0.0
H217 H 0.86397 0.46413 0.41317 0.0
H218 H 0.87405 0.45453 0.29812 0.0
H219 H 0.8357 0.46937 0.32553 0.0
C220 C 0.93548 0.46444 0.64157 0.0
N221 N 0.90896 0.4862 0.63449 0.0
N222 N 0.90717 0.50404 0.55412 0.0
C223 C 0.93286 0.49531 0.50863 0.0
C224 C 0.9515 0.4698 0.56206 0.0
C225 C 0.94624 0.44242 0.72506 0.0
H226 H 0.95684 0.46905 0.76903 0.0
H227 H 0.92629 0.4257 0.76058 0.0
H228 H 0.96373 0.41726 0.71079 0.0
O229 O 0.87564 0.56622 0.72658 0.0
O230 O 0.87573 0.59697 0.59154 0.0
H231 H 0.93427 0.5483 0.40965 0.0
H232 H 0.96446 0.50899 0.39847 0.0
C233 C 0.93994 0.51216 0.41634 0.0
H234 H 0.92587 0.49156 0.36842 0.0
H235 H 0.8847 0.62411 0.40422 0.0
O236 O 0.88395 0.48275 0.84321 0.0
C237 C 0.87556 0.60071 0.6757 0.0
Co238 Co 0.6354 0.40574 0.71669 0.0
Co239 Co 0.64044 0.36791 0.52364 0.0
C240 C 0.69201 0.42463 0.60913 0.0
O241 O 0.6764 0.43066 0.67903 0.0
O242 O 0.6809 0.40123 0.54472 0.0
C243 C 0.64964 0.42331 0.89276 0.0
O244 O 0.67738 0.42013 0.85954 0.0
C245 C 0.64746 0.38182 0.33377 0.0
C246 C 0.62345 0.32044 0.27759 0.0
C247 C 0.638 0.36192 0.25453 0.0
N248 N 0.63855 0.35373 0.40069 0.0
N249 N 0.62469 0.3167 0.36676 0.0
C250 C 0.66083 0.42927 0.34692 0.0
H251 H 0.65397 0.44236 0.41245 0.0
H252 H 0.6531 0.45238 0.29364 0.0
H253 H 0.68638 0.42893 0.34488 0.0
C254 C 0.57794 0.44162 0.64165 0.0
N255 N 0.6042 0.41944 0.63425 0.0
N256 N 0.60621 0.40341 0.5532 0.0
C257 C 0.58112 0.41484 0.50645 0.0
C258 C 0.56235 0.43925 0.56087 0.0
C259 C 0.56736 0.46198 0.72625 0.0
H260 H 0.56844 0.43649 0.78072 0.0
H261 H 0.5833 0.4913 0.74381 0.0
H262 H 0.54347 0.47347 0.72056 0.0
O263 O 0.63759 0.33979 0.7294 0.0
O264 O 0.63949 0.3103 0.59473 0.0
H265 H 0.57558 0.36664 0.40108 0.0
H266 H 0.55369 0.41656 0.38502 0.0
C267 C 0.57567 0.40395 0.41046 0.0
H268 H 0.59447 0.42045 0.3704 0.0
H269 H 0.61487 0.28985 0.40463 0.0
O270 O 0.62666 0.42356 0.84004 0.0
C271 C 0.63898 0.30561 0.67901 0.0
C272 C 0.25516 0.94806 0.02472 0.0
C273 C 0.27122 0.94479 0.10562 0.0
H274 H 0.21301 0.9642 0.95987 0.0
C275 C 0.25579 0.95372 0.18504 0.0
H276 H 0.26633 0.94107 0.96243 0.0
C277 C 0.22512 0.9661 0.18363 0.0
C278 C 0.20932 0.97063 0.10266 0.0
H279 H 0.26734 0.95094 0.24859 0.0
H280 H 0.21412 0.97351 0.24597 0.0
C281 C 0.22461 0.96125 0.02323 0.0
C282 C 0.24354 0.45617 0.30712 0.0
C283 C 0.2292 0.44146 0.38657 0.0
H284 H 0.28325 0.48888 0.24587 0.0
C285 C 0.24479 0.44925 0.46749 0.0
H286 H 0.23227 0.45038 0.2436 0.0
C287 C 0.27401 0.47182 0.4688 0.0
C288 C 0.28836 0.48623 0.38915 0.0
H289 H 0.23434 0.43821 0.52977 0.0
H290 H 0.28549 0.47742 0.53197 0.0
C291 C 0.27288 0.47793 0.30835 0.0
C292 C 0.74396 0.99049 0.98502 0.0
C293 C 0.72772 -0.00392 0.90507 0.0
H294 H 0.78565 0.97025 0.04715 0.0
C295 C 0.74244 0.98712 0.82445 0.0
H296 H 0.73332 -0.00268 0.04817 0.0
C297 C 0.7726 0.97252 0.82375 0.0
C298 C 0.78855 0.96575 0.90374 0.0
H299 H 0.73073 0.99163 0.7616 0.0
H300 H 0.78307 0.96532 0.76056 0.0
C301 C 0.77395 0.97506 0.98439 0.0
C302 C 0.77239 0.45995 0.68678 0.0
C303 C 0.78828 0.467 0.60632 0.0
H304 H 0.72952 0.4423 0.75044 0.0
C305 C 0.77207 0.4612 0.52587 0.0
H306 H 0.78414 0.4647 0.74992 0.0
C307 C 0.7406 0.44773 0.5262 0.0
C308 C 0.72475 0.4411 0.60698 0.0
H309 H 0.78375 0.46664 0.46291 0.0
H310 H 0.72867 0.44274 0.46345 0.0
C311 C 0.74096 0.44764 0.68711 0.0
C312 C 0.9667 0.93109 0.04079 0.0
C313 C 0.95135 0.9566 0.97645 0.0
H314 H 0.00888 0.92089 0.11065 0.0
C315 C 0.96704 -0.00547 0.93743 0.0
H316 H 0.95535 0.90123 0.07121 0.0
C317 C 0.99747 0.00674 0.96265 0.0
C318 C 0.01317 0.98031 0.02494 0.0
H319 H 0.95574 0.01486 0.88798 0.0
H320 H 0.00875 0.0368 0.93296 0.0
C321 C 0.99737 0.94244 0.06382 0.0
C322 C 0.48887 0.92949 0.01562 0.0
C323 C 0.46909 0.96416 0.03668 0.0
H324 H 0.53438 0.91292 0.97519 0.0
C325 C 0.48039 0.00964 0.03331 0.0
H326 H 0.48053 0.89413 0.01776 0.0
C327 C 0.51098 0.02031 0.00827 0.0
C328 C 0.53073 0.98562 0.98693 0.0
H329 H 0.46542 0.03686 0.04847 0.0
H330 H 0.5193 0.05567 0.0057 0.0
C331 C 0.51945 0.94015 0.99063 0.0
C332 C 0.03441 0.473 0.48666 0.0
C333 C 0.03867 0.42676 0.47265 0.0
H334 H 0.0033 0.52276 0.52924 0.0
C335 C 0.01469 0.39441 0.49268 0.0
H336 H 0.05284 0.49831 0.47275 0.0
C337 C 0.9866 0.40824 0.52559 0.0
C338 C 0.98224 0.45456 0.53876 0.0
H339 H 0.01776 0.35849 0.4829 0.0
H340 H 0.96806 0.38298 0.53877 0.0
C341 C 0.00639 0.48681 0.51988 0.0
C342 C 0.49954 0.52125 0.51866 0.0
C343 C 0.47639 0.49255 0.48009 0.0
H344 H 0.54518 0.5266 0.57472 0.0
C345 C 0.48111 0.44605 0.47152 0.0
H346 H 0.49618 0.55724 0.52627 0.0
C347 C 0.50874 0.42851 0.50057 0.0
C348 C 0.53222 0.45734 0.5373 0.0
H349 H 0.4633 0.42328 0.44328 0.0
H350 H 0.51194 0.39244 0.49354 0.0
C351 C 0.52732 0.50377 0.54692 0.0
C352 C 0.13424 0.99097 0.6329 0.0
C353 C 0.13046 0.03764 0.64746 0.0
H354 H 0.13758 0.93783 0.5367 0.0
C355 C 0.12417 0.06568 0.57446 0.0
H356 H 0.13694 0.96751 0.68757 0.0
C357 C 0.12255 0.04792 0.48897 0.0
C358 C 0.12777 0.00189 0.47437 0.0
H359 H 0.12062 0.10154 0.58327 0.0
H360 H 0.11819 0.0706 0.43381 0.0
C361 C 0.13376 0.97352 0.54672 0.0
C362 C 0.32955 0.94091 0.5441 0.0
C363 C 0.3535 0.93302 0.48437 0.0
H364 H 0.31109 0.92908 0.67445 0.0
C365 C 0.37905 0.90971 0.51463 0.0
H366 H 0.30948 0.95854 0.52263 0.0
C367 C 0.37975 0.8924 0.60127 0.0
C368 C 0.35525 0.89884 0.65975 0.0
H369 H 0.39777 0.90272 0.47017 0.0
H370 H 0.39925 0.87333 0.62212 0.0
C371 C 0.33046 0.92408 0.63108 0.0
C372 C 0.17267 0.40161 0.86114 0.0
C373 C 0.1496 0.36954 0.83344 0.0
H374 H 0.19139 0.44193 0.96818 0.0
C375 C 0.12572 0.35627 0.89248 0.0
H376 H 0.19158 0.41198 0.81751 0.0
C377 C 0.12536 0.37384 0.97852 0.0
C378 C 0.14924 0.40437 0.00766 0.0
H379 H 0.10755 0.33176 0.87251 0.0
H380 H 0.10727 0.36166 0.02349 0.0
C381 C 0.17255 0.41873 0.94748 0.0
C382 C 0.3766 0.57356 0.00328 0.0
C383 C 0.37134 0.52671 0.01911 0.0
H384 H 0.37844 0.62766 0.90772 0.0
C385 C 0.3652 0.49757 0.94745 0.0
H386 H 0.38106 0.59681 0.05783 0.0
C387 C 0.36462 0.5151 0.86083 0.0
C388 C 0.36842 0.56238 0.84507 0.0
H389 H 0.36132 0.46128 0.95836 0.0
H390 H 0.36182 0.49131 0.80679 0.0
C391 C 0.37486 0.59123 0.91738 0.0
C392 C 0.87347 0.86758 0.30569 0.0
C393 C 0.84642 0.88495 0.27042 0.0
H394 H 0.90462 0.86595 0.41605 0.0
C395 C 0.82883 0.91266 0.3242 0.0
H396 H 0.88764 0.8463 0.26611 0.0
C397 C 0.83882 0.92441 0.40975 0.0
C398 C 0.86641 0.90832 0.44363 0.0
H399 H 0.808 0.92697 0.29893 0.0
H400 H 0.82549 0.94739 0.44793 0.0
C401 C 0.8834 0.8793 0.39123 0.0
C402 C 0.62114 0.03874 0.50237 0.0
C403 C 0.64445 0.01081 0.5322 0.0
H404 H 0.60408 0.07904 0.39563 0.0
C405 C 0.6675 -0.00083 0.47226 0.0
H406 H 0.6032 0.04873 0.54695 0.0
C407 C 0.66799 0.01662 0.38559 0.0
C408 C 0.6455 0.04619 0.35725 0.0
H409 H 0.68591 0.97798 0.49335 0.0
H410 H 0.68675 0.00856 0.34225 0.0
C411 C 0.62184 0.05656 0.41603 0.0
C412 C 0.84574 0.5493 0.10867 0.0
C413 C 0.8687 0.5317 0.16222 0.0
H414 H 0.82489 0.55108 0.98066 0.0
C415 C 0.88845 0.50017 0.12672 0.0
H416 H 0.83034 0.57369 0.13497 0.0
C417 C 0.88583 0.4876 0.0372 0.0
C418 C 0.86301 0.50582 0.98301 0.0
H419 H 0.90655 0.4866 0.16727 0.0
H420 H 0.90188 0.46439 0.01016 0.0
C421 C 0.84265 0.53609 0.0204 0.0
C422 C 0.66756 0.40406 0.13487 0.0
C423 C 0.64005 0.3818 0.16442 0.0
H424 H 0.69199 0.43543 0.02533 0.0
C425 C 0.61466 0.37752 0.10647 0.0
H426 H 0.68756 0.40737 0.17807 0.0
C427 C 0.61698 0.39422 0.01948 0.0
C428 C 0.64499 0.41459 0.98853 0.0
H429 H 0.59312 0.36072 0.12813 0.0
H430 H 0.59736 0.389 0.9753 0.0
C431 C 0.67006 0.42012 0.04756 0.0
C432 C 0.14749 0.163 0.2924 0.0
C433 C 0.14442 0.15871 0.19951 0.0
H434 H 0.15214 0.20777 0.40347 0.0
C435 C 0.14564 0.19817 0.14663 0.0
H436 H 0.147 0.13326 0.33531 0.0
C437 C 0.14869 0.24103 0.18609 0.0
C438 C 0.15066 0.2453 0.27925 0.0
H439 H 0.14348 0.19605 0.07507 0.0
H440 H 0.14883 0.27086 0.14342 0.0
C441 C 0.15059 0.20577 0.33177 0.0
C442 C 0.35844 0.73294 0.15965 0.0
C443 C 0.35756 0.77173 0.21286 0.0
H444 H 0.36126 0.66084 0.15527 0.0
C445 C 0.35818 0.76645 0.30602 0.0
H446 H 0.35799 0.73574 0.08788 0.0
C447 C 0.36006 0.7234 0.34498 0.0
C448 C 0.36149 0.6847 0.29165 0.0
H449 H 0.35745 0.79564 0.34921 0.0
H450 H 0.36079 0.72055 0.41672 0.0
C451 C 0.36042 0.68997 0.19856 0.0
C452 C 0.85225 0.69696 0.82052 0.0
C453 C 0.87452 0.7313 0.79769 0.0
H454 H 0.83535 0.62803 0.79908 0.0
C455 C 0.89815 0.72146 0.73819 0.0
H456 H 0.83385 0.70367 0.86626 0.0
C457 C 0.89804 0.6793 0.69637 0.0
C458 C 0.87518 0.64561 0.71693 0.0
H459 H 0.91611 0.74706 0.72154 0.0
H460 H 0.91597 0.67284 0.64887 0.0
C461 C 0.85286 0.65411 0.78126 0.0
C462 C 0.64274 0.17809 0.70953 0.0
C463 C 0.644 0.17373 0.8028 0.0
H464 H 0.64011 0.22286 0.59728 0.0
C465 C 0.64382 0.2131 0.85464 0.0
H466 H 0.64286 0.14845 0.66733 0.0
C467 C 0.64211 0.25579 0.81417 0.0
C468 C 0.64064 0.2601 0.72091 0.0
H469 H 0.64469 0.21096 0.92645 0.0
H470 H 0.64192 0.28544 0.85633 0.0
C471 C 0.64111 0.22077 0.66909 0.0
loop_
_geom_bond_atom_site_label_1
_geom_bond_atom_site_label_2
_geom_bond_distance
_geom_bond_site_symmetry_2
_ccdc_geom_bond_type
Co0 O3 1.970 . S
Co0 N17 1.989 . S
Co0 O25 1.967 . S
Co0 O32 1.920 . S
Co1 O4 1.966 . S
Co1 N10 2.022 1_554 S
Co1 N18 1.993 . S
Co1 O26 1.941 . S
C2 O3 1.258 . S
C2 O4 1.263 . S
O3 Co0 1.970 . S
O3 C2 1.258 . S
O4 Co1 1.966 . S
O4 C2 1.263 . S
C5 O6 1.235 . S
C5 O32 1.289 1_565 S
O6 C5 1.235 . S
C7 C9 1.400 . S
C7 N10 1.351 . S
C7 C12 1.501 . S
C8 C9 1.387 . S
C8 N11 1.341 . S
C9 C7 1.400 . S
C9 C8 1.387 . S
N10 Co1 2.022 1_556 S
N10 C7 1.351 . S
N10 N11 1.365 . S
N11 C8 1.341 . S
N11 N10 1.365 . S
N11 H31 0.862 . S
C12 C7 1.501 . S
C12 H13 0.961 . S
C12 H14 0.961 1_545 S
C12 H15 0.960 . S
H13 C12 0.961 . S
H14 C12 0.961 1_565 S
H15 C12 0.960 . S
C16 N17 1.342 1_565 S
C16 C20 1.401 . S
C16 C21 1.499 . S
N17 Co0 1.989 . S
N17 C16 1.342 1_545 S
N17 N18 1.388 . S
N18 Co1 1.993 . S
N18 N17 1.388 . S
N18 C19 1.346 1_545 S
C19 N18 1.346 1_565 S
C19 C20 1.396 . S
C19 C29 1.510 1_554 S
C20 C16 1.401 . S
C20 C19 1.396 . S
C21 C16 1.499 . S
C21 H22 0.959 . S
C21 H23 0.960 . S
C21 H24 0.961 . S
H22 C21 0.959 . S
H23 C21 0.960 . S
H24 C21 0.961 . S
O25 Co0 1.967 . S
O25 C33 1.258 . S
O26 Co1 1.941 . S
O26 C33 1.266 . S
H27 C29 0.959 1_545 S
H28 C29 0.961 . S
C29 C19 1.510 1_556 S
C29 H27 0.959 1_565 S
C29 H28 0.961 . S
C29 H30 0.960 1_565 S
H30 C29 0.960 1_545 S
H31 N11 0.862 . S
O32 Co0 1.920 . S
O32 C5 1.289 1_545 S
C33 O25 1.258 . S
C33 O26 1.266 . S
Co34 O37 1.970 . S
Co34 N51 1.989 . S
Co34 O59 1.967 . S
Co34 O66 1.920 . S
Co35 O38 1.966 . S
Co35 N44 2.022 1_554 S
Co35 N52 1.993 . S
Co35 O60 1.941 . S
C36 O37 1.258 . S
C36 O38 1.263 . S
O37 Co34 1.970 . S
O37 C36 1.258 . S
O38 Co35 1.966 . S
O38 C36 1.263 . S
C39 O40 1.235 1_565 S
C39 O66 1.289 . S
O40 C39 1.235 1_545 S
C41 C43 1.400 . S
C41 N44 1.351 . S
C41 C46 1.501 . S
C42 C43 1.387 . S
C42 N45 1.341 . S
C43 C41 1.400 . S
C43 C42 1.387 . S
N44 Co35 2.022 1_556 S
N44 C41 1.351 . S
N44 N45 1.365 . S
N45 C42 1.341 . S
N45 N44 1.365 . S
N45 H65 0.862 . S
C46 C41 1.501 . S
C46 H47 0.961 . S
C46 H48 0.961 . S
C46 H49 0.960 . S
H47 C46 0.961 . S
H48 C46 0.961 . S
H49 C46 0.960 . S
C50 N51 1.342 . S
C50 C54 1.401 . S
C50 C55 1.499 . S
N51 Co34 1.989 . S
N51 C50 1.342 . S
N51 N52 1.388 . S
N52 Co35 1.993 . S
N52 N51 1.388 . S
N52 C53 1.346 . S
C53 N52 1.346 . S
C53 C54 1.396 . S
C53 C63 1.510 1_554 S
C54 C50 1.401 . S
C54 C53 1.396 . S
C55 C50 1.499 . S
C55 H56 0.959 . S
C55 H57 0.960 1_565 S
C55 H58 0.961 . S
H56 C55 0.959 . S
H57 C55 0.960 1_545 S
H58 C55 0.961 . S
O59 Co34 1.967 . S
O59 C67 1.258 . S
O60 Co35 1.941 . S
O60 C67 1.266 . S
H61 C63 0.959 . S
H62 C63 0.961 . S
C63 C53 1.510 1_556 S
C63 H61 0.959 . S
C63 H62 0.961 . S
C63 H64 0.960 . S
H64 C63 0.960 . S
H65 N45 0.862 . S
O66 Co34 1.920 . S
O66 C39 1.289 . S
C67 O59 1.258 . S
C67 O60 1.266 . S
Co68 O71 1.970 . S
Co68 N85 1.989 . S
Co68 O93 1.967 . S
Co68 O100 1.920 . S
Co69 O72 1.966 . S
Co69 N78 2.022 . S
Co69 N86 1.993 . S
Co69 O94 1.941 . S
C70 O71 1.258 . S
C70 O72 1.263 . S
O71 Co68 1.970 . S
O71 C70 1.258 . S
O72 Co69 1.966 . S
O72 C70 1.263 . S
C73 O74 1.235 . S
C73 O100 1.289 . S
O74 C73 1.235 . S
C75 C77 1.400 . S
C75 N78 1.351 . S
C75 C80 1.501 . S
C76 C77 1.387 . S
C76 N79 1.341 . S
C77 C75 1.400 . S
C77 C76 1.387 . S
N78 Co69 2.022 . S
N78 C75 1.351 . S
N78 N79 1.365 . S
N79 C76 1.341 . S
N79 N78 1.365 . S
N79 H99 0.862 . S
C80 C75 1.501 . S
C80 H81 0.961 . S
C80 H82 0.961 . S
C80 H83 0.960 . S
H81 C80 0.961 . S
H82 C80 0.961 . S
H83 C80 0.960 . S
C84 N85 1.342 . S
C84 C88 1.401 . S
C84 C89 1.499 . S
N85 Co68 1.989 . S
N85 C84 1.342 . S
N85 N86 1.388 . S
N86 Co69 1.993 . S
N86 N85 1.388 . S
N86 C87 1.346 . S
C87 N86 1.346 . S
C87 C88 1.396 . S
C87 C97 1.510 . S
C88 C84 1.401 . S
C88 C87 1.396 . S
C89 C84 1.499 . S
C89 H90 0.959 . S
C89 H91 0.960 . S
C89 H92 0.961 . S
H90 C89 0.959 . S
H91 C89 0.960 . S
H92 C89 0.961 . S
O93 Co68 1.967 . S
O93 C101 1.258 . S
O94 Co69 1.941 . S
O94 C101 1.266 . S
H95 C97 0.959 . S
H96 C97 0.961 . S
C97 C87 1.510 . S
C97 H95 0.959 . S
C97 H96 0.961 . S
C97 H98 0.960 . S
H98 C97 0.960 . S
H99 N79 0.862 . S
O100 Co68 1.920 . S
O100 C73 1.289 . S
C101 O93 1.258 . S
C101 O94 1.266 . S
Co102 O105 1.970 . S
Co102 N119 1.989 . S
Co102 O127 1.967 . S
Co102 O134 1.920 . S
Co103 O106 1.966 . S
Co103 N112 2.022 . S
Co103 N120 1.993 . S
Co103 O128 1.941 . S
C104 O105 1.258 . S
C104 O106 1.263 . S
O105 Co102 1.970 . S
O105 C104 1.258 . S
O106 Co103 1.966 . S
O106 C104 1.263 . S
C107 O108 1.235 . S
C107 O134 1.289 . S
O108 C107 1.235 . S
C109 C111 1.400 . S
C109 N112 1.351 . S
C109 C114 1.501 . S
C110 C111 1.387 . S
C110 N113 1.341 . S
C111 C109 1.400 . S
C111 C110 1.387 . S
N112 Co103 2.022 . S
N112 C109 1.351 . S
N112 N113 1.365 . S
N113 C110 1.341 . S
N113 N112 1.365 . S
N113 H133 0.862 . S
C114 C109 1.501 . S
C114 H115 0.961 . S
C114 H116 0.961 . S
C114 H117 0.960 . S
H115 C114 0.961 . S
H116 C114 0.961 . S
H117 C114 0.960 . S
C118 N119 1.342 . S
C118 C122 1.401 . S
C118 C123 1.499 . S
N119 Co102 1.989 . S
N119 C118 1.342 . S
N119 N120 1.388 . S
N120 Co103 1.993 . S
N120 N119 1.388 . S
N120 C121 1.346 . S
C121 N120 1.346 . S
C121 C122 1.396 . S
C121 C131 1.510 . S
C122 C118 1.401 . S
C122 C121 1.396 . S
C123 C118 1.499 . S
C123 H124 0.959 . S
C123 H125 0.960 . S
C123 H126 0.961 . S
H124 C123 0.959 . S
H125 C123 0.960 . S
H126 C123 0.961 . S
O127 Co102 1.967 . S
O127 C135 1.258 . S
O128 Co103 1.941 . S
O128 C135 1.266 . S
H129 C131 0.959 . S
H130 C131 0.961 . S
C131 C121 1.510 . S
C131 H129 0.959 . S
C131 H130 0.961 . S
C131 H132 0.960 . S
H132 C131 0.960 . S
H133 N113 0.862 . S
O134 Co102 1.920 . S
O134 C107 1.289 . S
C135 O127 1.258 . S
C135 O128 1.266 . S
Co136 O139 1.970 . S
Co136 N153 1.989 . S
Co136 O161 1.967 . S
Co136 O168 1.920 1_556 S
Co137 O140 1.966 . S
Co137 N146 2.022 . S
Co137 N154 1.993 . S
Co137 O162 1.941 . S
C138 O139 1.258 . S
C138 O140 1.263 . S
O139 Co136 1.970 . S
O139 C138 1.258 . S
O140 Co137 1.966 . S
O140 C138 1.263 . S
C141 O142 1.235 . S
C141 O168 1.289 . S
O142 C141 1.235 . S
C143 C145 1.400 . S
C143 N146 1.351 . S
C143 C148 1.501 . S
C144 C145 1.387 . S
C144 N147 1.341 . S
C145 C143 1.400 . S
C145 C144 1.387 . S
N146 Co137 2.022 . S
N146 C143 1.351 . S
N146 N147 1.365 . S
N147 C144 1.341 . S
N147 N146 1.365 . S
N147 H167 0.862 . S
C148 C143 1.501 . S
C148 H149 0.961 . S
C148 H150 0.961 . S
C148 H151 0.960 . S
H149 C148 0.961 . S
H150 C148 0.961 . S
H151 C148 0.960 . S
C152 N153 1.342 . S
C152 C156 1.401 . S
C152 C157 1.499 . S
N153 Co136 1.989 . S
N153 C152 1.342 . S
N153 N154 1.388 . S
N154 Co137 1.993 . S
N154 N153 1.388 . S
N154 C155 1.346 . S
C155 N154 1.346 . S
C155 C156 1.396 . S
C155 C165 1.510 . S
C156 C152 1.401 . S
C156 C155 1.396 . S
C157 C152 1.499 . S
C157 H158 0.959 1_556 S
C157 H159 0.960 1_556 S
C157 H160 0.961 1_556 S
H158 C157 0.959 1_554 S
H159 C157 0.960 1_554 S
H160 C157 0.961 1_554 S
O161 Co136 1.967 . S
O161 C169 1.258 . S
O162 Co137 1.941 . S
O162 C169 1.266 . S
H163 C165 0.959 . S
H164 C165 0.961 . S
C165 C155 1.510 . S
C165 H163 0.959 . S
C165 H164 0.961 . S
C165 H166 0.960 . S
H166 C165 0.960 . S
H167 N147 0.862 . S
O168 Co136 1.920 1_554 S
O168 C141 1.289 . S
C169 O161 1.258 . S
C169 O162 1.266 . S
Co170 O173 1.970 . S
Co170 N187 1.989 . S
Co170 O195 1.967 . S
Co170 O202 1.920 . S
Co171 O174 1.966 1_554 S
Co171 N180 2.022 . S
Co171 N188 1.993 1_554 S
Co171 O196 1.941 1_554 S
C172 O173 1.258 . S
C172 O174 1.263 . S
O173 Co170 1.970 . S
O173 C172 1.258 . S
O174 Co171 1.966 1_556 S
O174 C172 1.263 . S
C175 O176 1.235 1_545 S
C175 O202 1.289 . S
O176 C175 1.235 1_565 S
C177 C179 1.400 . S
C177 N180 1.351 . S
C177 C182 1.501 . S
C178 C179 1.387 . S
C178 N181 1.341 . S
C179 C177 1.400 . S
C179 C178 1.387 . S
N180 Co171 2.022 . S
N180 C177 1.351 . S
N180 N181 1.365 . S
N181 C178 1.341 . S
N181 N180 1.365 . S
N181 H201 0.862 . S
C182 C177 1.501 . S
C182 H183 0.961 . S
C182 H184 0.961 . S
C182 H185 0.960 . S
H183 C182 0.961 . S
H184 C182 0.961 . S
H185 C182 0.960 . S
C186 N187 1.342 . S
C186 C190 1.401 . S
C186 C191 1.499 . S
N187 Co170 1.989 . S
N187 C186 1.342 . S
N187 N188 1.388 . S
N188 Co171 1.993 1_556 S
N188 N187 1.388 . S
N188 C189 1.346 1_556 S
C189 N188 1.346 1_554 S
C189 C190 1.396 1_554 S
C189 C199 1.510 . S
C190 C186 1.401 . S
C190 C189 1.396 1_556 S
C191 C186 1.499 . S
C191 H192 0.959 . S
C191 H193 0.957 1_545 S
C191 H194 0.961 . S
H192 C191 0.959 . S
H193 C191 0.957 1_565 S
H194 C191 0.961 . S
O195 Co170 1.967 . S
O195 C203 1.258 . S
O196 Co171 1.941 1_556 S
O196 C203 1.266 . S
H197 C199 0.959 . S
H198 C199 0.961 . S
C199 C189 1.510 . S
C199 H197 0.959 . S
C199 H198 0.961 . S
C199 H200 0.960 . S
H200 C199 0.960 . S
H201 N181 0.862 . S
O202 Co170 1.920 . S
O202 C175 1.289 . S
C203 O195 1.258 . S
C203 O196 1.266 . S
Co204 O207 1.970 . S
Co204 N221 1.989 . S
Co204 O229 1.967 . S
Co204 O236 1.920 . S
Co205 O208 1.966 . S
Co205 N214 2.022 . S
Co205 N222 1.993 . S
Co205 O230 1.941 . S
C206 O207 1.258 . S
C206 O208 1.263 . S
O207 Co204 1.970 . S
O207 C206 1.258 . S
O208 Co205 1.966 . S
O208 C206 1.263 . S
C209 O210 1.235 . S
C209 O236 1.289 . S
O210 C209 1.235 . S
C211 C213 1.400 . S
C211 N214 1.351 . S
C211 C216 1.501 . S
C212 C213 1.387 . S
C212 N215 1.341 . S
C213 C211 1.400 . S
C213 C212 1.387 . S
N214 Co205 2.022 . S
N214 C211 1.351 . S
N214 N215 1.365 . S
N215 C212 1.341 . S
N215 N214 1.365 . S
N215 H235 0.862 . S
C216 C211 1.501 . S
C216 H217 0.961 . S
C216 H218 0.961 . S
C216 H219 0.960 . S
H217 C216 0.961 . S
H218 C216 0.961 . S
H219 C216 0.960 . S
C220 N221 1.342 . S
C220 C224 1.401 . S
C220 C225 1.499 . S
N221 Co204 1.989 . S
N221 C220 1.342 . S
N221 N222 1.388 . S
N222 Co205 1.993 . S
N222 N221 1.388 . S
N222 C223 1.346 . S
C223 N222 1.346 . S
C223 C224 1.396 . S
C223 C233 1.510 . S
C224 C220 1.401 . S
C224 C223 1.396 . S
C225 C220 1.499 . S
C225 H226 0.959 . S
C225 H227 0.960 . S
C225 H228 0.961 . S
H226 C225 0.959 . S
H227 C225 0.960 . S
H228 C225 0.961 . S
O229 Co204 1.967 . S
O229 C237 1.258 . S
O230 Co205 1.941 . S
O230 C237 1.266 . S
H231 C233 0.959 . S
H232 C233 0.961 . S
C233 C223 1.510 . S
C233 H231 0.959 . S
C233 H232 0.961 . S
C233 H234 0.960 . S
H234 C233 0.960 . S
H235 N215 0.862 . S
O236 Co204 1.920 . S
O236 C209 1.289 . S
C237 O229 1.258 . S
C237 O230 1.266 . S
Co238 O241 1.970 . S
Co238 N255 1.989 . S
Co238 O263 1.967 . S
Co238 O270 1.920 . S
Co239 O242 1.966 . S
Co239 N248 2.022 . S
Co239 N256 1.993 . S
Co239 O264 1.941 . S
C240 O241 1.258 . S
C240 O242 1.263 . S
O241 Co238 1.970 . S
O241 C240 1.258 . S
O242 Co239 1.966 . S
O242 C240 1.263 . S
C243 O244 1.235 . S
C243 O270 1.289 . S
O244 C243 1.235 . S
C245 C247 1.400 . S
C245 N248 1.351 . S
C245 C250 1.501 . S
C246 C247 1.387 . S
C246 N249 1.341 . S
C247 C245 1.400 . S
C247 C246 1.387 . S
N248 Co239 2.022 . S
N248 C245 1.351 . S
N248 N249 1.365 . S
N249 C246 1.341 . S
N249 N248 1.365 . S
N249 H269 0.862 . S
C250 C245 1.501 . S
C250 H251 0.961 . S
C250 H252 0.961 . S
C250 H253 0.960 . S
H251 C250 0.961 . S
H252 C250 0.961 . S
H253 C250 0.960 . S
C254 N255 1.342 . S
C254 C258 1.401 . S
C254 C259 1.499 . S
N255 Co238 1.989 . S
N255 C254 1.342 . S
N255 N256 1.388 . S
N256 Co239 1.993 . S
N256 N255 1.388 . S
N256 C257 1.346 . S
C257 N256 1.346 . S
C257 C258 1.396 . S
C257 C267 1.510 . S
C258 C254 1.401 . S
C258 C257 1.396 . S
C259 C254 1.499 . S
C259 H260 0.959 . S
C259 H261 0.960 . S
C259 H262 0.961 . S
H260 C259 0.959 . S
H261 C259 0.960 . S
H262 C259 0.961 . S
O263 Co238 1.967 . S
O263 C271 1.258 . S
O264 Co239 1.941 . S
O264 C271 1.266 . S
H265 C267 0.959 . S
H266 C267 0.961 . S
C267 C257 1.510 . S
C267 H265 0.959 . S
C267 H266 0.961 . S
C267 H268 0.960 . S
H268 C267 0.960 . S
H269 N249 0.862 . S
O270 Co238 1.920 . S
O270 C243 1.289 . S
C271 O263 1.258 . S
C271 O264 1.266 . S
C272 C273 1.387 . S
C272 H276 0.950 1_554 S
C272 C281 1.390 . S
C273 C272 1.387 . S
C273 C275 1.387 . S
H274 C281 0.950 1_556 S
C275 C273 1.387 . S
C275 C277 1.390 . S
C275 H279 0.950 . S
H276 C272 0.950 1_556 S
C277 C275 1.390 . S
C277 C278 1.387 . S
C277 H280 0.950 . S
C278 C277 1.387 . S
C278 C281 1.387 . S
H279 C275 0.950 . S
H280 C277 0.950 . S
C281 C272 1.390 . S
C281 H274 0.950 1_554 S
C281 C278 1.387 . S
C282 C283 1.387 . S
C282 H286 0.950 . S
C282 C291 1.390 . S
C283 C282 1.387 . S
C283 C285 1.387 . S
H284 C291 0.950 . S
C285 C283 1.387 . S
C285 C287 1.390 . S
C285 H289 0.950 . S
H286 C282 0.950 . S
C287 C285 1.390 . S
C287 C288 1.387 . S
C287 H290 0.950 . S
C288 C287 1.387 . S
C288 C291 1.387 . S
H289 C285 0.950 . S
H290 C287 0.950 . S
C291 C282 1.390 . S
C291 H284 0.950 . S
C291 C288 1.387 . S
C292 C293 1.387 . S
C292 H296 0.950 1_556 S
C292 C301 1.390 1_545 S
C293 C292 1.387 . S
C293 C295 1.387 . S
H294 C301 0.950 1_554 S
C295 C293 1.387 . S
C295 C297 1.390 . S
C295 H299 0.950 . S
H296 C292 0.950 1_554 S
C297 C295 1.390 . S
C297 C298 1.387 1_545 S
C297 H300 0.951 . S
C298 C297 1.387 1_565 S
C298 C301 1.387 . S
H299 C295 0.950 . S
H300 C297 0.951 . S
C301 C292 1.390 1_565 S
C301 H294 0.950 1_556 S
C301 C298 1.387 . S
C302 C303 1.387 . S
C302 H306 0.950 . S
C302 C311 1.390 . S
C303 C302 1.387 . S
C303 C305 1.387 . S
H304 C311 0.950 . S
C305 C303 1.387 . S
C305 C307 1.390 . S
C305 H309 0.950 . S
H306 C302 0.950 . S
C307 C305 1.390 . S
C307 C308 1.387 . S
C307 H310 0.950 . S
C308 C307 1.387 . S
C308 C311 1.387 . S
H309 C305 0.950 . S
H310 C307 0.950 . S
C311 C302 1.390 . S
C311 H304 0.950 . S
C311 C308 1.387 . S
C312 C313 1.387 1_554 S
C312 H316 0.950 . S
C312 C321 1.390 . S
C313 C312 1.387 1_556 S
C313 C315 1.387 . S
H314 C321 0.950 . S
C315 C313 1.387 . S
C315 C317 1.390 1_565 S
C315 H319 0.950 1_565 S
H316 C312 0.950 . S
C317 C315 1.390 1_545 S
C317 C318 1.387 1_646 S
C317 H320 0.950 1_655 S
C318 C317 1.387 1_464 S
C318 C321 1.387 1_455 S
H319 C315 0.950 1_545 S
H320 C317 0.950 1_455 S
C321 C312 1.390 . S
C321 H314 0.950 . S
C321 C318 1.387 1_655 S
C322 C323 1.387 . S
C322 H326 0.950 . S
C322 C331 1.390 1_554 S
C323 C322 1.387 . S
C323 C325 1.387 1_565 S
H324 C331 0.950 . S
C325 C323 1.387 1_545 S
C325 C327 1.390 . S
C325 H329 0.950 . S
H326 C322 0.950 . S
C327 C325 1.390 . S
C327 C328 1.387 1_554 S
C327 H330 0.950 . S
C328 C327 1.387 1_556 S
C328 C331 1.387 1_545 S
H329 C325 0.950 . S
H330 C327 0.950 . S
C331 C322 1.390 1_556 S
C331 H324 0.950 . S
C331 C328 1.387 1_565 S
C332 C333 1.387 . S
C332 H336 0.950 . S
C332 C341 1.390 1_455 S
C333 C332 1.387 . S
C333 C335 1.387 . S
H334 C341 0.950 . S
C335 C333 1.387 . S
C335 C337 1.390 1_455 S
C335 H339 0.950 . S
H336 C332 0.950 . S
C337 C335 1.390 1_655 S
C337 C338 1.387 . S
C337 H340 0.950 . S
C338 C337 1.387 . S
C338 C341 1.387 . S
H339 C335 0.950 . S
H340 C337 0.950 . S
C341 C332 1.390 1_655 S
C341 H334 0.950 . S
C341 C338 1.387 . S
C342 C343 1.387 . S
C342 H346 0.950 . S
C342 C351 1.390 . S
C343 C342 1.387 . S
C343 C345 1.387 . S
H344 C351 0.950 . S
C345 C343 1.387 . S
C345 C347 1.390 . S
C345 H349 0.950 . S
H346 C342 0.950 . S
C347 C345 1.390 . S
C347 C348 1.387 . S
C347 H350 0.950 . S
C348 C347 1.387 . S
C348 C351 1.387 . S
H349 C345 0.950 . S
H350 C347 0.950 . S
C351 C342 1.390 . S
C351 H344 0.950 . S
C351 C348 1.387 . S
C352 C353 1.387 1_565 S
C352 H356 0.950 . S
C352 C361 1.390 . S
C353 C352 1.387 1_545 S
C353 C355 1.387 . S
H354 C361 0.950 . S
C355 C353 1.387 . S
C355 C357 1.390 . S
C355 H359 0.950 . S
H356 C352 0.950 . S
C357 C355 1.390 . S
C357 C358 1.387 1_545 S
C357 H360 0.950 . S
C358 C357 1.387 1_565 S
C358 C361 1.387 . S
H359 C355 0.950 . S
H360 C357 0.950 . S
C361 C352 1.390 . S
C361 H354 0.950 . S
C361 C358 1.387 . S
C362 C363 1.387 . S
C362 H366 0.950 1_565 S
C362 C371 1.390 . S
C363 C362 1.387 . S
C363 C365 1.387 . S
H364 C371 0.950 . S
C365 C363 1.387 . S
C365 C367 1.390 . S
C365 H369 0.950 . S
H366 C362 0.950 1_545 S
C367 C365 1.390 . S
C367 C368 1.387 . S
C367 H370 0.950 . S
C368 C367 1.387 . S
C368 C371 1.387 . S
H369 C365 0.950 . S
H370 C367 0.950 . S
C371 C362 1.390 . S
C371 H364 0.950 . S
C371 C368 1.387 . S
C372 C373 1.387 . S
C372 H376 0.950 . S
C372 C381 1.390 . S
C373 C372 1.387 . S
C373 C375 1.387 . S
H374 C381 0.950 . S
C375 C373 1.387 . S
C375 C377 1.390 . S
C375 H379 0.950 . S
H376 C372 0.950 . S
C377 C375 1.390 . S
C377 C378 1.387 1_556 S
C377 H380 0.950 1_556 S
C378 C377 1.387 1_554 S
C378 C381 1.387 1_554 S
H379 C375 0.950 . S
H380 C377 0.950 1_554 S
C381 C372 1.390 . S
C381 H374 0.950 . S
C381 C378 1.387 1_556 S
C382 C383 1.387 1_556 S
C382 H386 0.950 1_556 S
C382 C391 1.390 . S
C383 C382 1.387 1_554 S
C383 C385 1.387 1_554 S
H384 C391 0.950 . S
C385 C383 1.387 1_556 S
C385 C387 1.390 . S
C385 H389 0.950 . S
H386 C382 0.950 1_554 S
C387 C385 1.390 . S
C387 C388 1.387 . S
C387 H390 0.950 . S
C388 C387 1.387 . S
C388 C391 1.387 . S
H389 C385 0.950 . S
H390 C387 0.950 . S
C391 C382 1.390 . S
C391 H384 0.950 . S
C391 C388 1.387 . S
C392 C393 1.387 . S
C392 H396 0.950 . S
C392 C401 1.390 . S
C393 C392 1.387 . S
C393 C395 1.387 . S
H394 C401 0.950 . S
C395 C393 1.387 . S
C395 C397 1.390 . S
C395 H399 0.950 . S
H396 C392 0.950 . S
C397 C395 1.390 . S
C397 C398 1.387 . S
C397 H400 0.950 . S
C398 C397 1.387 . S
C398 C401 1.387 . S
H399 C395 0.950 . S
H400 C397 0.950 . S
C401 C392 1.390 . S
C401 H394 0.950 . S
C401 C398 1.387 . S
C402 C403 1.387 . S
C402 H406 0.950 . S
C402 C411 1.390 . S
C403 C402 1.387 . S
C403 C405 1.387 . S
H404 C411 0.950 . S
C405 C403 1.387 . S
C405 C407 1.390 . S
C405 H409 0.950 1_545 S
H406 C402 0.950 . S
C407 C405 1.390 . S
C407 C408 1.387 . S
C407 H410 0.950 1_545 S
C408 C407 1.387 . S
C408 C411 1.387 . S
H409 C405 0.950 1_565 S
H410 C407 0.950 1_565 S
C411 C402 1.390 . S
C411 H404 0.950 . S
C411 C408 1.387 . S
C412 C413 1.387 . S
C412 H416 0.950 . S
C412 C421 1.390 . S
C413 C412 1.387 . S
C413 C415 1.387 . S
H414 C421 0.950 1_556 S
C415 C413 1.387 . S
C415 C417 1.390 . S
C415 H419 0.950 . S
H416 C412 0.950 . S
C417 C415 1.390 . S
C417 C418 1.387 1_554 S
C417 H420 0.950 . S
C418 C417 1.387 1_556 S
C418 C421 1.387 1_556 S
H419 C415 0.950 . S
H420 C417 0.950 . S
C421 C412 1.390 . S
C421 H414 0.950 1_554 S
C421 C418 1.387 1_554 S
C422 C423 1.387 . S
C422 H426 0.950 . S
C422 C431 1.390 . S
C423 C422 1.387 . S
C423 C425 1.387 . S
H424 C431 0.950 1_556 S
C425 C423 1.387 . S
C425 C427 1.390 . S
C425 H429 0.950 . S
H426 C422 0.950 . S
C427 C425 1.390 . S
C427 C428 1.387 1_554 S
C427 H430 0.950 1_554 S
C428 C427 1.387 1_556 S
C428 C431 1.387 1_556 S
H429 C425 0.950 . S
H430 C427 0.950 1_556 S
C431 C422 1.390 . S
C431 H424 0.950 1_554 S
C431 C428 1.387 1_554 S
C432 C433 1.387 . S
C432 H436 0.950 . S
C432 C441 1.390 . S
C433 C432 1.387 . S
C433 C435 1.387 . S
H434 C441 0.950 . S
C435 C433 1.387 . S
C435 C437 1.390 . S
C435 H439 0.950 . S
H436 C432 0.950 . S
C437 C435 1.390 . S
C437 C438 1.387 . S
C437 H440 0.950 . S
C438 C437 1.387 . S
C438 C441 1.387 . S
H439 C435 0.950 . S
H440 C437 0.950 . S
C441 C432 1.390 . S
C441 H434 0.950 . S
C441 C438 1.387 . S
C442 C443 1.387 . S
C442 H446 0.950 . S
C442 C451 1.390 . S
C443 C442 1.387 . S
C443 C445 1.387 . S
H444 C451 0.950 . S
C445 C443 1.387 . S
C445 C447 1.390 . S
C445 H449 0.950 . S
H446 C442 0.950 . S
C447 C445 1.390 . S
C447 C448 1.387 . S
C447 H450 0.950 . S
C448 C447 1.387 . S
C448 C451 1.387 . S
H449 C445 0.950 . S
H450 C447 0.950 . S
C451 C442 1.390 . S
C451 H444 0.950 . S
C451 C448 1.387 . S
C452 C453 1.387 . S
C452 H456 0.950 . S
C452 C461 1.390 . S
C453 C452 1.387 . S
C453 C455 1.387 . S
H454 C461 0.950 . S
C455 C453 1.387 . S
C455 C457 1.390 . S
C455 H459 0.950 . S
H456 C452 0.950 . S
C457 C455 1.390 . S
C457 C458 1.387 . S
C457 H460 0.950 . S
C458 C457 1.387 . S
C458 C461 1.387 . S
H459 C455 0.950 . S
H460 C457 0.950 . S
C461 C452 1.390 . S
C461 H454 0.950 . S
C461 C458 1.387 . S
C462 C463 1.387 . S
C462 H466 0.950 . S
C462 C471 1.390 . S
C463 C462 1.387 . S
C463 C465 1.387 . S
H464 C471 0.950 . S
C465 C463 1.387 . S
C465 C467 1.390 . S
C465 H469 0.950 . S
H466 C462 0.950 . S
C467 C465 1.390 . S
C467 C468 1.387 . S
C467 H470 0.950 . S
C468 C467 1.387 . S
C468 C471 1.387 . S
H469 C465 0.950 . S
H470 C467 0.950 . S
C471 C462 1.390 . S
C471 H464 0.950 . S
C471 C468 1.387 . S
C273 C36 1.758 . S
C278 C2 1.760 1_565 S
C283 C70 1.478 . S
C288 C104 1.480 . S
C293 C172 1.716 . S
C298 C138 1.704 . S
C303 C206 1.217 . S
C308 C240 1.219 . S
C313 C169 1.787 . S
C318 C20 1.804 . S
C323 C54 1.717 . S
C328 C190 1.721 . S
C333 C88 1.391 . S
C338 C224 1.387 . S
C343 C122 1.610 . S
C348 C258 1.610 . S
C353 C9 1.413 . S
C358 C5 1.421 . S
C363 C39 1.372 . S
C368 C43 1.352 . S
C373 C77 1.403 . S
C378 C73 1.414 . S
C383 C107 1.366 . S
C388 C111 1.348 . S
C393 C141 1.432 . S
C398 C145 1.391 . S
C403 C175 1.419 . S
C408 C179 1.400 . S
C413 C213 1.342 . S
C418 C209 1.363 . S
C423 C247 1.415 . S
C428 C243 1.414 . S
C433 C33 1.643 . S
C438 C101 1.633 . S
C443 C67 1.800 . S
C448 C135 1.803 . S
C453 C156 1.487 . S
C458 C237 1.500 . S
C463 C203 1.485 . S
C468 C271 1.503 . S
