# Generated by pormake.
# Topology umy, (4)-cn, num edge types: 1
# Building blocks:
#     Node 0, Type 0, BuildingBlock: NAHDIM_clean_sbu_0, # of connection points: 4
#     Node 1, Type 0, BuildingBlock: NAHDIM_clean_sbu_0, # of connection points: 4
#     Node 2, Type 0, BuildingBlock: NAHDIM_clean_sbu_0, # of connection points: 4
#     Node 3, Type 0, BuildingBlock: NAHDIM_clean_sbu_0, # of connection points: 4
#     Node 4, Type 0, BuildingBlock: NAHDIM_clean_sbu_0, # of connection points: 4
#     Node 5, Type 0, BuildingBlock: NAHDIM_clean_sbu_0, # of connection points: 4
#     Node 6, Type 0, BuildingBlock: NAHDIM_clean_sbu_0, # of connection points: 4
#     Node 7, Type 0, BuildingBlock: NAHDIM_clean_sbu_0, # of connection points: 4
#     Node 8, Type 0, BuildingBlock: NAHDIM_clean_sbu_0, # of connection points: 4
#     Node 9, Type 0, BuildingBlock: NAHDIM_clean_sbu_0, # of connection points: 4
#     Node 10, Type 0, BuildingBlock: NAHDIM_clean_sbu_0, # of connection points: 4
#     Node 11, Type 0, BuildingBlock: NAHDIM_clean_sbu_0, # of connection points: 4
#     Edge 12, Type (0, 0), BuildingBlock: XIVTED_clean_linker_0, # of connection points: 2
#     Edge 13, Type (0, 0), BuildingBlock: XIVTED_clean_linker_0, # of connection points: 2
#     Edge 14, Type (0, 0), BuildingBlock: XIVTED_clean_linker_0, # of connection points: 2
#     Edge 15, Type (0, 0), BuildingBlock: XIVTED_clean_linker_0, # of connection points: 2
#     Edge 16, Type (0, 0), BuildingBlock: XIVTED_clean_linker_0, # of connection points: 2
#     Edge 17, Type (0, 0), BuildingBlock: XIVTED_clean_linker_0, # of connection points: 2
#     Edge 18, Type (0, 0), BuildingBlock: XIVTED_clean_linker_0, # of connection points: 2
#     Edge 19, Type (0, 0), BuildingBlock: XIVTED_clean_linker_0, # of connection points: 2
#     Edge 20, Type (0, 0), BuildingBlock: XIVTED_clean_linker_0, # of connection points: 2
#     Edge 21, Type (0, 0), BuildingBlock: XIVTED_clean_linker_0, # of connection points: 2
#     Edge 22, Type (0, 0), BuildingBlock: XIVTED_clean_linker_0, # of connection points: 2
#     Edge 23, Type (0, 0), BuildingBlock: XIVTED_clean_linker_0, # of connection points: 2
#     Edge 24, Type (0, 0), BuildingBlock: XIVTED_clean_linker_0, # of connection points: 2
#     Edge 25, Type (0, 0), BuildingBlock: XIVTED_clean_linker_0, # of connection points: 2
#     Edge 26, Type (0, 0), BuildingBlock: XIVTED_clean_linker_0, # of connection points: 2
#     Edge 27, Type (0, 0), BuildingBlock: XIVTED_clean_linker_0, # of connection points: 2
#     Edge 28, Type (0, 0), BuildingBlock: XIVTED_clean_linker_0, # of connection points: 2
#     Edge 29, Type (0, 0), BuildingBlock: XIVTED_clean_linker_0, # of connection points: 2
#     Edge 30, Type (0, 0), BuildingBlock: XIVTED_clean_linker_0, # of connection points: 2
#     Edge 31, Type (0, 0), BuildingBlock: XIVTED_clean_linker_0, # of connection points: 2
#     Edge 32, Type (0, 0), BuildingBlock: XIVTED_clean_linker_0, # of connection points: 2
#     Edge 33, Type (0, 0), BuildingBlock: XIVTED_clean_linker_0, # of connection points: 2
#     Edge 34, Type (0, 0), BuildingBlock: XIVTED_clean_linker_0, # of connection points: 2
#     Edge 35, Type (0, 0), BuildingBlock: XIVTED_clean_linker_0, # of connection points: 2
# Relax obj value: 0.157
# Max RMSD: 0.142
# Mean RMSD: 0.142
data_MOF--net-umy--node1-NAHDIM_clean_sbu_0--edge1-XIVTED_clean_linker_0
_symmetry_space_group_name_H-M    P1
_symmetry_Int_Tables_number       1
_symmetry_cell_setting            triclinic
loop_
_symmetry_equiv_pos_as_xyz
'x, y, z'
_cell_length_a     39.36396
_cell_length_b     39.325466
_cell_length_c     48.38073
_cell_angle_alpha  90.009514
_cell_angle_beta   90.074832
_cell_angle_gamma 120.27843
loop_
_atom_site_label
_atom_site_type_symbol
_atom_site_fract_x
_atom_site_fract_y
_atom_site_fract_z
_atom_type_partial_charge
C0 C 0.04999 0.38107 0.08178 0.0
O1 O 0.08166 0.37832 0.07858 0.0
O2 O 0.95893 0.26034 0.10782 0.0
Zn3 Zn 0.0159 0.30115 0.10177 0.0
O4 O 0.04231 0.28509 0.07331 0.0
C5 C 0.03021 0.28563 0.15773 0.0
O6 O -0.00457 0.2541 0.15447 0.0
O7 O 0.01873 0.35164 0.09088 0.0
C8 C 0.05017 0.25835 0.07935 0.0
O9 O 0.039 0.2406 0.10339 0.0
C10 C 0.94066 0.22449 0.10024 0.0
O11 O 0.9586 0.2109 0.08481 0.0
O12 O 0.04505 0.31016 0.13799 0.0
C13 C 0.61137 0.02495 0.29531 0.0
O14 O 0.61434 0.0001 0.31187 0.0
O15 O 0.69255 0.00854 0.2993 0.0
Zn16 Zn 0.69584 0.05948 0.28858 0.0
O17 O 0.72591 0.0814 0.25341 0.0
C18 C 0.71318 0.09113 0.34384 0.0
O19 O 0.68292 0.05651 0.34995 0.0
O20 O 0.64196 0.05189 0.28351 0.0
C21 C 0.73312 0.06245 0.23534 0.0
O22 O 0.72072 0.02492 0.23919 0.0
C23 C 0.72237 0.00936 0.31013 0.0
O24 O 0.75521 0.04331 0.31257 0.0
O25 O 0.72384 0.09919 0.31878 0.0
C26 C 0.57827 0.64073 0.41655 0.0
O27 O 0.60208 0.65752 0.39553 0.0
O28 O 0.68214 0.68842 0.45155 0.0
Zn29 Zn 0.64081 0.70411 0.44823 0.0
O30 O 0.65415 0.74548 0.41903 0.0
C31 C 0.66357 0.7357 0.50359 0.0
O32 O 0.69329 0.73033 0.49853 0.0
O33 O 0.58871 0.65584 0.44047 0.0
C34 C 0.68163 0.78042 0.42398 0.0
O35 O 0.70098 0.78797 0.44744 0.0
C36 C 0.71641 0.70593 0.44106 0.0
O37 O 0.7262 0.7351 0.42372 0.0
O38 O 0.63725 0.72659 0.48516 0.0
C39 C 0.94023 0.6251 0.59665 0.0
O40 O 0.94111 0.6448 0.57448 0.0
O41 O 0.9811 0.73292 0.62751 0.0
Zn42 Zn 0.92855 0.68343 0.62376 0.0
O43 O 0.8976 0.68485 0.59121 0.0
C44 C 0.91428 0.68071 0.68171 0.0
O45 O 0.95105 0.68901 0.68238 0.0
O46 O 0.93592 0.63671 0.62019 0.0
C47 C 0.9119 0.70674 0.57009 0.0
O48 O 0.9499 0.7318 0.56886 0.0
C49 C 0.98265 0.76383 0.63693 0.0
O50 O 0.94964 0.76345 0.64186 0.0
O51 O 0.89761 0.67659 0.65844 0.0
C52 C 0.35918 0.96709 0.73804 0.0
O53 O 0.3514 0.99084 0.72383 0.0
O54 O 0.31832 0.01472 0.78196 0.0
Zn55 Zn 0.29439 0.95778 0.77094 0.0
O56 O 0.25365 0.9413 0.74082 0.0
C57 C 0.25802 0.93804 0.82472 0.0
O58 O 0.26342 0.97374 0.8228 0.0
O59 O 0.33801 0.94907 0.75881 0.0
C60 C 0.22081 0.93895 0.7457 0.0
O61 O 0.21458 0.94921 0.77017 0.0
C62 C 0.30752 0.03889 0.77471 0.0
O63 O 0.27921 0.02817 0.75646 0.0
O64 O 0.26879 0.92443 0.80486 0.0
C65 C 0.39145 0.33275 0.94605 0.0
O66 O 0.36718 0.31684 0.9251 0.0
O67 O 0.28887 0.26179 0.97678 0.0
Zn68 Zn 0.33774 0.25891 0.97072 0.0
O69 O 0.33297 0.23026 0.93523 0.0
C70 C 0.33736 0.19558 0.00258 0.0
O71 O 0.32733 0.1764 0.97899 0.0
O72 O 0.38455 0.31346 0.96842 0.0
C73 C 0.36274 0.23006 0.92532 0.0
O74 O 0.39628 0.24807 0.93883 0.0
C75 C 0.25736 0.23029 0.98296 0.0
O76 O 0.2576 0.19703 0.98394 0.0
O77 O 0.3439 0.23069 0.00348 0.0
C78 C 0.5992 0.94739 0.70085 0.0
O79 O 0.6182 0.95955 0.67731 0.0
O80 O 0.70441 0.97782 0.69921 0.0
Zn81 Zn 0.65863 0.92722 0.7125 0.0
O82 O 0.67326 0.90958 0.74714 0.0
C83 C 0.67214 0.87743 0.67782 0.0
O84 O 0.70369 0.89201 0.69352 0.0
O85 O 0.61151 0.93293 0.71908 0.0
C86 C 0.64672 0.88508 0.76323 0.0
O87 O 0.60962 0.87226 0.75726 0.0
C88 C 0.71283 0.0122 0.70657 0.0
O89 O 0.69081 0.01654 0.72499 0.0
O90 O 0.64663 0.88745 0.68246 0.0
C91 C 0.64107 0.59092 0.92169 0.0
O92 O 0.65843 0.61388 0.94305 0.0
O93 O 0.69405 0.69546 0.88736 0.0
Zn94 Zn 0.70693 0.65265 0.89253 0.0
O95 O 0.74346 0.66349 0.92462 0.0
C96 C 0.77111 0.6683 0.85614 0.0
O97 O 0.79203 0.6888 0.8775 0.0
O98 O 0.65666 0.60143 0.89794 0.0
C99 C 0.75185 0.63705 0.93037 0.0
O100 O 0.73441 0.60377 0.91649 0.0
C101 C 0.72086 0.7312 0.88452 0.0
O102 O 0.75784 0.74066 0.88707 0.0
O103 O 0.73376 0.64985 0.85771 0.0
C104 C 0.05815 0.63688 0.04892 0.0
O105 O 0.02978 0.6415 0.05906 0.0
O106 O 0.02333 0.69315 0.01692 0.0
Zn107 Zn 0.07942 0.71173 0.02744 0.0
O108 O 0.09301 0.74531 0.06159 0.0
C109 C 0.12236 0.77947 0.99357 0.0
O110 O 0.10921 0.79417 0.01229 0.0
O111 O 0.08466 0.66423 0.03434 0.0
C112 C 0.11474 0.74545 0.08107 0.0
O113 O 0.12957 0.72214 0.07959 0.0
C114 C 0.00686 0.71307 0.02232 0.0
O115 O 0.02688 0.7469 0.03528 0.0
O116 O 0.11405 0.74389 0.99584 0.0
C117 C 0.35158 0.00708 0.26109 0.0
O118 O 0.31905 0.98114 0.27351 0.0
O119 O 0.25818 0.97655 0.22723 0.0
Zn120 Zn 0.30114 0.03186 0.23588 0.0
O121 O 0.28972 0.05741 0.26773 0.0
C122 C 0.31753 0.05306 0.17903 0.0
O123 O 0.31789 0.01983 0.17849 0.0
O124 O 0.35061 0.03137 0.24428 0.0
C125 C 0.25655 0.05365 0.2736 0.0
O126 O 0.2255 0.02961 0.25892 0.0
C127 C 0.23006 0.9709 0.21134 0.0
O128 O 0.2273 0.00132 0.20327 0.0
O129 O 0.31104 0.06488 0.2018 0.0
C130 C 0.31508 0.3952 0.39606 0.0
O131 O 0.29541 0.37556 0.41802 0.0
O132 O 0.24096 0.28695 0.36634 0.0
Zn133 Zn 0.24336 0.33911 0.36944 0.0
O134 O 0.21141 0.33941 0.40169 0.0
C135 C 0.18187 0.31744 0.33191 0.0
O136 O 0.16511 0.29036 0.35113 0.0
O137 O 0.29899 0.38452 0.37242 0.0
C138 C 0.20265 0.31715 0.42269 0.0
O139 O 0.21554 0.29224 0.42444 0.0
C140 C 0.26842 0.28005 0.37203 0.0
O141 O 0.30181 0.30844 0.38201 0.0
O142 O 0.21763 0.34413 0.33501 0.0
C143 C 0.92865 0.36593 0.57638 0.0
O144 O 0.94042 0.35173 0.59642 0.0
O145 O 0.96789 0.30753 0.53491 0.0
Zn146 Zn 0.91457 0.29562 0.54797 0.0
O147 O 0.89692 0.26198 0.58206 0.0
C148 C 0.88338 0.27603 0.49277 0.0
O149 O 0.91649 0.30827 0.48673 0.0
O150 O 0.91583 0.34655 0.55406 0.0
C151 C 0.89082 0.22718 0.57967 0.0
O152 O 0.89838 0.21614 0.55593 0.0
C153 C -0.00881 0.29811 0.54613 0.0
O154 O 0.98157 0.27883 0.56965 0.0
O155 O 0.87581 0.26526 0.51784 0.0
H156 H 0.1141 0.61856 0.0334 0.0
H157 H -0.00849 0.39795 0.0905 0.0
H158 H 0.00235 0.57067 0.07513 0.0
H159 H 0.11051 0.44941 0.06019 0.0
H160 H -0.00611 0.46023 0.08236 0.0
H161 H 0.11248 0.55617 0.04077 0.0
C162 C 0.08927 0.59498 0.04414 0.0
C163 C 0.0583 0.59984 0.05367 0.0
C164 C 0.01951 0.45796 0.07747 0.0
C165 C 0.05619 0.52843 0.06203 0.0
C166 C 0.01815 0.42233 0.08204 0.0
C167 C 0.05091 0.41845 0.07606 0.0
C168 C 0.05383 0.49005 0.06672 0.0
C169 C 0.0846 0.45111 0.06515 0.0
C170 C 0.08838 0.5594 0.04835 0.0
C171 C 0.02689 0.5683 0.06746 0.0
N172 N 0.0852 0.48558 0.06082 0.0
N173 N 0.02661 0.53395 0.07115 0.0
H174 H 0.59569 0.07134 0.26194 0.0
H175 H 0.36527 0.95974 0.29555 0.0
H176 H 0.53947 0.97188 0.31727 0.0
H177 H 0.42362 0.05764 0.23913 0.0
H178 H 0.42833 0.96336 0.30421 0.0
H179 H 0.53239 0.06645 0.2538 0.0
C180 C 0.57001 0.04841 0.2724 0.0
C181 C 0.57291 0.02195 0.29032 0.0
C182 C 0.42725 0.984 0.28993 0.0
C183 C 0.50008 0.01619 0.28105 0.0
C184 C 0.39129 0.98196 0.28498 0.0
C185 C 0.38917 0.00844 0.2666 0.0
C186 C 0.46125 0.01273 0.27641 0.0
C187 C 0.42381 0.03662 0.25348 0.0
C188 C 0.53379 0.04563 0.26772 0.0
C189 C 0.53857 -0.00712 0.30327 0.0
N190 N 0.45835 0.03801 0.25866 0.0
N191 N 0.50352 0.99077 0.29839 0.0
H192 H 0.54395 0.60222 0.3681 0.0
H193 H 0.35537 0.42852 0.44381 0.0
H194 H 0.52531 0.59585 0.45633 0.0
H195 H 0.36522 0.4417 0.35509 0.0
H196 H 0.41981 0.48762 0.44855 0.0
H197 H 0.48047 0.5415 0.36267 0.0
C198 C 0.52655 0.58809 0.38632 0.0
C199 C 0.53995 0.6042 0.4127 0.0
C200 C 0.40793 0.4776 0.42803 0.0
C201 C 0.46746 0.53471 0.40665 0.0
C202 C 0.37113 0.44376 0.4253 0.0
C203 C 0.35478 0.43018 0.39901 0.0
C204 C 0.42871 0.49806 0.40431 0.0
C205 C 0.37664 0.45118 0.37577 0.0
C206 C 0.49032 0.55344 0.3832 0.0
C207 C 0.51616 0.5846 0.43558 0.0
N208 N 0.41249 0.48412 0.37896 0.0
N209 N 0.48115 0.55091 0.43201 0.0
H210 H 0.94494 0.58029 0.63819 0.0
H211 H 0.91609 0.40768 0.5366 0.0
H212 H 0.93817 0.58603 0.54936 0.0
H213 H 0.9473 0.41228 0.62268 0.0
H214 H 0.92101 0.47171 0.54149 0.0
H215 H 0.94345 0.51765 0.63347 0.0
C216 C 0.94331 0.56847 0.61769 0.0
C217 C 0.94156 0.58836 0.59412 0.0
C218 C 0.92688 0.45879 0.55931 0.0
C219 C 0.93957 0.51663 0.58863 0.0
C220 C 0.92393 0.42213 0.55657 0.0
C221 C 0.93125 0.40456 0.57929 0.0
C222 C 0.93694 0.47798 0.58501 0.0
C223 C 0.94143 0.42475 0.60462 0.0
C224 C 0.9425 0.53274 0.61503 0.0
C225 C 0.93958 0.57173 0.56809 0.0
N226 N 0.94383 0.46037 0.60683 0.0
N227 N 0.9384 0.53671 0.56606 0.0
H228 H 0.54992 0.91909 0.74531 0.0
H229 H 0.41027 2e-05 0.69457 0.0
H230 H 0.56703 0.98104 0.66824 0.0
H231 H 0.38641 0.92497 0.76568 0.0
H232 H 0.46848 -0.00517 0.68479 0.0
H233 H 0.49083 0.92281 0.75355 0.0
C234 C 0.54128 0.93353 0.73011 0.0
C235 C 0.56349 0.9498 0.70604 0.0
C236 C 0.45039 0.9794 0.70246 0.0
C237 C 0.4957 0.95415 0.71538 0.0
C238 C 0.41716 0.98234 0.70806 0.0
C239 C 0.39347 0.96297 0.73102 0.0
C240 C 0.46006 0.95709 0.72003 0.0
C241 C 0.4038 0.94044 0.74777 0.0
C242 C 0.50743 0.93555 0.7348 0.0
C243 C 0.55077 0.96807 0.68706 0.0
N244 N 0.43638 0.93827 0.742 0.0
N245 N 0.51774 0.96984 0.69217 0.0
H246 H 0.44412 0.37729 0.9864 0.0
H247 H 0.59294 0.54136 0.88126 0.0
H248 H 0.42063 0.37691 0.89917 0.0
H249 H 0.60423 0.55479 0.96995 0.0
H250 H 0.53146 0.4792 0.88735 0.0
H251 H 0.50453 0.44076 0.98075 0.0
C252 C 0.4516 0.39059 0.96607 0.0
C253 C 0.42731 0.37175 0.9432 0.0
C254 C 0.54732 0.49579 0.90548 0.0
C255 C 0.49648 0.44421 0.93659 0.0
C256 C 0.58251 0.53123 0.90203 0.0
C257 C 0.60377 0.55331 0.92514 0.0
C258 C 0.53341 0.48209 0.93224 0.0
C259 C 0.58876 0.53877 0.95155 0.0
C260 C 0.48606 0.42685 0.96288 0.0
C261 C 0.43843 0.39039 0.91737 0.0
N262 N 0.55455 0.50398 0.95439 0.0
N263 N 0.47231 0.4255 0.91475 0.0
H264 H 0.06222 0.19585 0.08149 0.0
H265 H 0.24393 0.29204 0.97902 0.0
H266 H 0.09428 0.30166 0.03522 0.0
H267 H 0.19098 0.17194 0.00756 0.0
H268 H 0.18863 0.29581 0.99847 0.0
H269 H 0.10831 0.18587 0.0538 0.0
C270 C 0.07872 0.2168 0.06533 0.0
C271 C 0.07468 0.24981 0.0608 0.0
C272 C 0.1889 0.26849 1.00018 0.0
C273 C 0.12775 0.2388 0.02923 0.0
C274 C 0.2205 0.26635 0.98915 0.0
C275 C 0.22225 0.23174 0.99191 0.0
C276 C 0.15913 0.23597 0.0144 0.0
C277 C 0.19095 0.19928 0.00507 0.0
C278 C 0.10495 0.21103 0.04948 0.0
C279 C 0.09657 0.27586 0.03946 0.0
N280 N 0.16092 0.20235 0.01613 0.0
N281 N 0.12257 0.27008 0.02469 0.0
H282 H 0.75463 0.13668 0.21825 0.0
H283 H 0.90223 0.14369 0.10249 0.0
H284 H 0.76565 0.03616 0.19658 0.0
H285 H 0.89238 0.24353 0.1281 0.0
H286 H 0.84524 0.10103 0.13128 0.0
H287 H 0.79816 0.17328 0.18023 0.0
C288 C 0.76607 0.12219 0.20539 0.0
C289 C 0.75691 0.08344 0.21086 0.0
C290 C 0.85526 0.13219 0.13027 0.0
C291 C 0.8071 0.12541 0.16719 0.0
C292 C 0.88766 0.15653 0.11373 0.0
C293 C 0.90241 0.19731 0.11321 0.0
C294 C 0.83758 0.14883 0.1463 0.0
C295 C 0.88236 0.21234 0.12817 0.0
C296 C 0.79091 0.14313 0.1836 0.0
C297 C 0.7722 0.06608 0.19324 0.0
N298 N 0.85127 0.18818 0.14429 0.0
N299 N 0.79694 0.08736 0.17234 0.0
H300 H 0.74479 0.85517 0.42466 0.0
H301 H 0.66001 0.93385 0.30717 0.0
H302 H 0.63938 0.779 0.37842 0.0
H303 H 0.77641 0.00313 0.34198 0.0
H304 H 0.65235 0.87629 0.33206 0.0
H305 H 0.75737 0.90936 0.39382 0.0
C306 C 0.72437 0.84978 0.40792 0.0
C307 C 0.69082 0.81258 0.40423 0.0
C308 C 0.67971 0.904 0.33403 0.0
C309 C 0.70494 0.87461 0.3689 0.0
C310 C 0.68411 0.93688 0.31984 0.0
C311 C 0.71881 0.97344 0.32267 0.0
C312 C 0.71007 0.90779 0.35138 0.0
C313 C 0.74909 0.97559 0.33927 0.0
C314 C 0.73164 0.88073 0.39026 0.0
C315 C 0.66555 0.80724 0.38206 0.0
N316 N 0.74386 0.94333 0.35321 0.0
N317 N 0.67292 0.83804 0.36538 0.0
H318 H 0.70556 0.64477 0.47379 0.0
H319 H 0.9295 0.75371 0.52409 0.0
H320 H 0.79667 0.75234 0.43706 0.0
H321 H 0.83432 0.65175 0.56362 0.0
H322 H 0.8839 0.7487 0.48761 0.0
H323 H 0.75522 0.64101 0.50154 0.0
C324 C 0.73613 0.66729 0.47123 0.0
C325 C 0.74691 0.69923 0.45338 0.0
C326 C 0.87315 0.72729 0.50418 0.0
C327 C 0.80396 0.69549 0.4855 0.0
C328 C 0.89912 0.73016 0.52502 0.0
C329 C 0.88559 0.7034 0.54712 0.0
C330 C 0.83347 0.69735 0.50546 0.0
C331 C 0.84599 0.67334 0.54719 0.0
C332 C 0.7645 0.66523 0.48718 0.0
C333 C 0.78702 0.72733 0.45071 0.0
N334 N 0.82136 0.67128 0.52679 0.0
N335 N 0.81409 0.72514 0.46694 0.0
H336 H 0.05667 0.77573 0.62842 0.0
H337 H 0.1502 0.93652 0.74716 0.0
H338 H -0.00503 0.82729 0.66792 0.0
H339 H 0.21803 0.90097 0.6975 0.0
H340 H 0.09451 0.90065 0.71588 0.0
H341 H 0.1175 0.8252 0.65061 0.0
C342 C 0.05601 0.79778 0.64146 0.0
C343 C 0.02057 0.79705 0.64661 0.0
C344 C 0.12171 0.90106 0.71161 0.0
C345 C 0.09001 0.85348 0.67233 0.0
C346 C 0.15351 0.92147 0.72951 0.0
C347 C 0.18866 0.92133 0.72513 0.0
C348 C 0.12488 0.87991 0.68933 0.0
C349 C 0.19139 0.90165 0.70178 0.0
C350 C 0.09078 0.82604 0.65413 0.0
C351 C 0.02154 0.82653 0.66352 0.0
N352 N 0.15974 0.88128 0.68496 0.0
N353 N 0.05558 0.8532 0.67609 0.0
H354 H 0.27406 0.08518 0.77909 0.0
H355 H 0.41632 0.21317 0.90284 0.0
H356 H 0.3727 0.07531 0.80759 0.0
H357 H 0.30113 0.19801 0.88885 0.0
H358 H 0.4079 0.17368 0.86161 0.0
H359 H 0.29156 0.13831 0.81248 0.0
C360 C 0.29984 0.0947 0.79196 0.0
C361 C 0.32168 0.07548 0.79083 0.0
C362 C 0.38461 0.17927 0.86747 0.0
C363 C 0.34163 0.13592 0.82908 0.0
C364 C 0.38939 0.20181 0.89099 0.0
C365 C 0.35917 0.20847 0.89948 0.0
C366 C 0.34949 0.16354 0.85224 0.0
C367 C 0.32499 0.1932 0.88324 0.0
C368 C 0.30964 0.12482 0.81114 0.0
C369 C 0.35477 0.08901 0.80803 0.0
N370 N 0.321 0.17128 0.86045 0.0
N371 N 0.36356 0.11818 0.82661 0.0
H372 H 0.77091 0.80682 0.86738 0.0
H373 H 0.59728 0.8274 0.79908 0.0
H374 H 0.64753 0.72144 0.87712 0.0
H375 H 0.72043 0.90464 0.78108 0.0
H376 H 0.61545 0.79526 0.83456 0.0
H377 H 0.75305 0.84995 0.84296 0.0
C378 C 0.74006 0.79738 0.86477 0.0
C379 C 0.71067 0.76018 0.87391 0.0
C380 C 0.63851 0.8195 0.82303 0.0
C381 C 0.69006 0.80927 0.84582 0.0
C382 C 0.62816 0.83789 0.80277 0.0
C383 C 0.65736 0.86838 0.7868 0.0
C384 C 0.67834 0.83166 0.82735 0.0
C385 C 0.69691 0.88094 0.79267 0.0
C386 C 0.72989 0.82198 0.85074 0.0
C387 C 0.67118 0.74964 0.8701 0.0
N388 N 0.70622 0.86228 0.81229 0.0
N389 N 0.66204 0.77387 0.85607 0.0
H390 H 0.79727 0.7044 0.96027 0.0
H391 H 0.95523 0.6419 0.99915 0.0
H392 H 0.78193 0.58971 0.94311 0.0
H393 H 0.96585 0.75232 0.02401 0.0
H394 H 0.8897 0.62086 0.98105 0.0
H395 H 0.85671 0.72096 0.98657 0.0
C396 C 0.80612 0.68252 0.9623 0.0
C397 C 0.78481 0.64575 0.94924 0.0
C398 C 0.90621 0.64959 0.99064 0.0
C399 C 0.85297 0.66464 0.97907 0.0
C400 C 0.94371 0.66167 1.00092 0.0
C401 C 0.96621 0.69908 0.01289 0.0
C402 C 0.89115 0.67519 0.99212 0.0
C403 C 0.94962 0.7233 0.01482 0.0
C404 C 0.8401 0.69202 0.97729 0.0
C405 C 0.79758 0.61852 0.95266 0.0
N406 N 0.9132 0.71107 0.00431 0.0
N407 N 0.83103 0.62867 0.96701 0.0
H408 H 0.2365 0.90483 0.21589 0.0
H409 H 0.08869 0.7971 0.09019 0.0
H410 H 0.16817 0.94884 0.17596 0.0
H411 H 0.16452 0.75809 0.12464 0.0
H412 H 0.1102 0.84714 0.1262 0.0
H413 H 0.20273 0.84517 0.18775 0.0
C414 C 0.21396 0.9017 0.20154 0.0
C415 C 0.2055 0.93213 0.19802 0.0
C416 C 0.12195 0.82747 0.12604 0.0
C417 C 0.16703 0.86407 0.16561 0.0
C418 C 0.10969 0.79886 0.10544 0.0
C419 C 0.12519 0.77363 0.10418 0.0
C420 C 0.15003 0.83106 0.14553 0.0
C421 C 0.15204 0.77711 0.12467 0.0
C422 C 0.19481 0.86768 0.18539 0.0
C423 C 0.17594 0.92636 0.17917 0.0
N424 N 0.16388 0.80555 0.14438 0.0
N425 N 0.15806 0.8932 0.16349 0.0
H426 H 0.19323 0.06185 0.28661 0.0
H427 H 0.3236 0.2571 0.3752 0.0
H428 H 0.31518 0.10639 0.30754 0.0
H429 H 0.20335 0.21556 0.35087 0.0
H430 H 0.31796 0.19662 0.35666 0.0
H431 H 0.19331 0.11229 0.31618 0.0
C432 C 0.21988 0.08188 0.29769 0.0
C433 C 0.2544 0.08023 0.29426 0.0
C434 C 0.29268 0.20058 0.35564 0.0
C435 C 0.25479 0.13821 0.328 0.0
C436 C 0.29587 0.2351 0.36626 0.0
C437 C 0.2641 0.24169 0.36423 0.0
C438 C 0.25749 0.1725 0.34284 0.0
C439 C 0.2288 0.21198 0.35259 0.0
C440 C 0.21993 0.11075 0.31453 0.0
C441 C 0.288 0.10685 0.30928 0.0
N442 N 0.22658 0.17889 0.3421 0.0
N443 N 0.28746 0.13497 0.32524 0.0
H444 H 0.17504 0.2722 0.46973 0.0
H445 H 0.0257 0.34783 0.50269 0.0
H446 H 0.17022 0.36423 0.42435 0.0
H447 H 0.03853 0.26654 0.55552 0.0
H448 H 0.08124 0.35631 0.47531 0.0
H449 H 0.12767 0.2715 0.50285 0.0
C450 C 0.16427 0.29243 0.46683 0.0
C451 C 0.17634 0.31805 0.44408 0.0
C452 C 0.07221 0.33683 0.49301 0.0
C453 C 0.12218 0.31733 0.48179 0.0
C454 C 0.04041 0.33194 0.50865 0.0
C455 C 0.02725 0.30617 0.53129 0.0
C456 C 0.09086 0.3155 0.49979 0.0
C457 C 0.04768 0.28663 0.53818 0.0
C458 C 0.13727 0.29205 0.48576 0.0
C459 C 0.16156 0.34375 0.44143 0.0
N460 N 0.07826 0.29136 0.52229 0.0
N461 N 0.13509 0.34251 0.45992 0.0
H462 H 0.88103 0.15355 0.5832 0.0
H463 H 0.73413 0.09015 0.71139 0.0
H464 H 0.85734 0.23483 0.62725 0.0
H465 H 0.76508 0.01267 0.66937 0.0
H466 H 0.78357 0.14524 0.68394 0.0
H467 H 0.8434 0.10338 0.6177 0.0
C468 C 0.86817 0.16095 0.60028 0.0
C469 C 0.87195 0.19828 0.60218 0.0
C470 C 0.77976 0.11623 0.68096 0.0
C471 C 0.82843 0.14078 0.64171 0.0
C472 C 0.75156 0.08478 0.69663 0.0
C473 C 0.74511 0.04665 0.69244 0.0
C474 C 0.80151 0.10939 0.66096 0.0
C475 C 0.76868 0.04145 0.67311 0.0
C476 C 0.84667 0.13227 0.62001 0.0
C477 C 0.85497 0.20633 0.62491 0.0
N478 N 0.79554 0.07236 0.65796 0.0
N479 N 0.83352 0.17764 0.64365 0.0
H480 H 0.20755 0.36675 0.28688 0.0
H481 H 0.00537 0.24006 0.20414 0.0
H482 H 0.10564 0.26357 0.31944 0.0
H483 H 0.10463 0.34516 0.17104 0.0
H484 H 0.04179 0.24947 0.24688 0.0
H485 H 0.17043 0.36074 0.24468 0.0
C486 C 0.17736 0.34295 0.28521 0.0
C487 C 0.15972 0.31554 0.30669 0.0
C488 C 0.05565 0.27058 0.23033 0.0
C489 C 0.1172 0.30844 0.25851 0.0
C490 C 0.03484 0.2652 0.20586 0.0
C491 C 0.05199 0.29181 0.18392 0.0
C492 C 0.09404 0.30277 0.23297 0.0
C493 C 0.09027 0.32389 0.18742 0.0
C494 C 0.15621 0.33952 0.26112 0.0
C495 C 0.12052 0.28532 0.30341 0.0
N496 N 0.11008 0.32841 0.21147 0.0
N497 N 0.10067 0.28254 0.27978 0.0
H498 H 0.89151 0.28881 0.43688 0.0
H499 H 0.69975 0.08282 0.39964 0.0
H500 H 0.81382 0.20638 0.49804 0.0
H501 H 0.77824 0.16454 0.33847 0.0
H502 H 0.73922 0.12932 0.43592 0.0
H503 H 0.84836 0.24534 0.4005 0.0
C504 C 0.86528 0.26168 0.44268 0.0
C505 C 0.85638 0.25116 0.47056 0.0
C506 C 0.74773 0.13715 0.41456 0.0
C507 C 0.80689 0.20116 0.42899 0.0
C508 C 0.72519 0.1106 0.39381 0.0
C509 C 0.73578 0.1197 0.36596 0.0
C510 C 0.78118 0.17308 0.40743 0.0
C511 C 0.76902 0.1562 0.35967 0.0
C512 C 0.84065 0.23684 0.42188 0.0
C513 C 0.82193 0.21565 0.47682 0.0
N514 N 0.79059 0.18147 0.38024 0.0
N515 N 0.79855 0.19187 0.45621 0.0
H516 H 0.72088 0.85 0.66285 0.0
H517 H 0.60832 0.75426 0.5208 0.0
H518 H 0.6145 0.84799 0.63798 0.0
H519 H 0.71477 0.75735 0.54696 0.0
H520 H 0.6078 0.78551 0.56447 0.0
H521 H 0.71666 0.81265 0.6215 0.0
C522 C 0.69648 0.84151 0.64877 0.0
C523 C 0.66812 0.85235 0.65383 0.0
C524 C 0.63117 0.77919 0.56066 0.0
C525 C 0.6632 0.80965 0.60624 0.0
C526 C 0.63149 0.76136 0.53574 0.0
C527 C 0.66173 0.75332 0.53015 0.0
C528 C 0.66131 0.78905 0.58009 0.0
C529 C 0.69094 0.76311 0.55029 0.0
C530 C 0.6941 0.82019 0.62511 0.0
C531 C 0.63708 0.84036 0.63487 0.0
N532 N 0.69005 0.78054 0.57428 0.0
N533 N 0.63556 0.81984 0.61182 0.0
H534 H 0.94371 0.69608 0.73432 0.0
H535 H 0.73796 0.63781 0.80558 0.0
H536 H 0.83631 0.65734 0.68826 0.0
H537 H 0.84968 0.69753 0.84807 0.0
H538 H 0.77226 0.63919 0.76304 0.0
H539 H 0.90841 0.69128 0.77692 0.0
C540 C 0.91267 0.68645 0.73316 0.0
C541 C 0.89296 0.67718 0.70766 0.0
C542 C 0.78922 0.65194 0.7817 0.0
C543 C 0.85232 0.67157 0.75641 0.0
C544 C 0.76966 0.65107 0.806 0.0
C545 C 0.791 0.66769 0.8304 0.0
C546 C 0.83036 0.6693 0.78187 0.0
C547 C 0.83203 0.68452 0.82973 0.0
C548 C 0.89254 0.6838 0.7575 0.0
C549 C 0.85271 0.6649 0.70744 0.0
N550 N 0.85034 0.68487 0.80588 0.0
N551 N 0.8337 0.66242 0.73146 0.0
H552 H 0.24075 0.8624 0.83581 0.0
H553 H 0.14499 0.85624 0.98307 0.0
H554 H 0.23299 0.95934 0.87067 0.0
H555 H 0.15048 0.75757 0.94914 0.0
H556 H 0.17926 0.89489 0.94244 0.0
H557 H 0.20944 0.82383 0.87744 0.0
C558 C 0.23252 0.87559 0.8522 0.0
C559 C 0.23944 0.91415 0.84971 0.0
C560 C 0.1731 0.86482 0.94386 0.0
C561 C 0.20369 0.87023 0.89736 0.0
C562 C 0.15352 0.8427 0.96711 0.0
C563 C 0.14473 0.80354 0.96951 0.0
C564 C 0.18398 0.84772 0.92272 0.0
C565 C 0.15662 0.78765 0.94815 0.0
C566 C 0.21467 0.85356 0.87596 0.0
C567 C 0.22819 0.92973 0.87161 0.0
N568 N 0.17554 0.80977 0.9256 0.0
N569 N 0.21087 0.90773 0.89446 0.0
H570 H 0.32407 0.12543 0.17326 0.0
H571 H 0.32872 0.12227 0.00808 0.0
H572 H 0.32383 0.03205 0.12616 0.0
H573 H 0.34729 0.22314 0.0557 0.0
H574 H 0.32626 0.08841 0.05104 0.0
H575 H 0.33172 0.16131 0.13034 0.0
C576 C 0.32572 0.1125 0.1539 0.0
C577 C 0.32323 0.07563 0.15331 0.0
C578 C 0.33109 0.11804 0.05208 0.0
C579 C 0.33186 0.11651 0.10406 0.0
C580 C 0.33247 0.13739 0.02755 0.0
C581 C 0.3381 0.17557 0.02828 0.0
C582 C 0.33507 0.13687 0.07755 0.0
C583 C 0.34287 0.19372 0.05412 0.0
C584 C 0.33016 0.13305 0.1294 0.0
C585 C 0.32562 0.06038 0.12761 0.0
N586 N 0.34102 0.17412 0.07772 0.0
N587 N 0.32962 0.0808 0.10401 0.0
loop_
_geom_bond_atom_site_label_1
_geom_bond_atom_site_label_2
_geom_bond_distance
_geom_bond_site_symmetry_2
_ccdc_geom_bond_type
C0 O1 1.160 . S
C0 O7 1.185 . S
O1 C0 1.160 . S
O2 Zn3 1.899 . S
O2 C10 1.284 1_455 S
Zn3 O2 1.899 . S
Zn3 O4 2.032 . S
Zn3 O7 2.086 . S
Zn3 O12 1.977 . S
O4 Zn3 2.032 . S
O4 C8 1.278 . S
C5 O6 1.203 . S
C5 O12 1.267 . S
O6 C5 1.203 . S
O7 C0 1.185 . S
O7 Zn3 2.086 . S
C8 O4 1.278 . S
C8 O9 1.211 . S
O9 C8 1.211 . S
C10 O2 1.284 1_655 S
C10 O11 1.273 1_655 S
O11 C10 1.273 1_455 S
O12 Zn3 1.977 . S
O12 C5 1.267 . S
C13 O14 1.160 . S
C13 O20 1.185 . S
O14 C13 1.160 . S
O15 Zn16 1.899 . S
O15 C23 1.284 1_545 S
Zn16 O15 1.899 . S
Zn16 O17 2.032 . S
Zn16 O20 2.086 . S
Zn16 O25 1.977 . S
O17 Zn16 2.032 . S
O17 C21 1.278 . S
C18 O19 1.203 . S
C18 O25 1.267 . S
O19 C18 1.203 . S
O20 C13 1.185 . S
O20 Zn16 2.086 . S
C21 O17 1.278 . S
C21 O22 1.211 . S
O22 C21 1.211 . S
C23 O15 1.284 1_565 S
C23 O24 1.273 1_565 S
O24 C23 1.273 1_545 S
O25 Zn16 1.977 . S
O25 C18 1.267 . S
C26 O27 1.160 . S
C26 O33 1.185 . S
O27 C26 1.160 . S
O28 Zn29 1.899 . S
O28 C36 1.284 . S
Zn29 O28 1.899 . S
Zn29 O30 2.032 . S
Zn29 O33 2.086 . S
Zn29 O38 1.977 . S
O30 Zn29 2.032 . S
O30 C34 1.278 . S
C31 O32 1.203 . S
C31 O38 1.267 . S
O32 C31 1.203 . S
O33 C26 1.185 . S
O33 Zn29 2.086 . S
C34 O30 1.278 . S
C34 O35 1.211 . S
O35 C34 1.211 . S
C36 O28 1.284 . S
C36 O37 1.273 . S
O37 C36 1.273 . S
O38 Zn29 1.977 . S
O38 C31 1.267 . S
C39 O40 1.160 . S
C39 O46 1.185 . S
O40 C39 1.160 . S
O41 Zn42 1.899 . S
O41 C49 1.284 1_655 S
Zn42 O41 1.899 . S
Zn42 O43 2.032 . S
Zn42 O46 2.086 . S
Zn42 O51 1.977 . S
O43 Zn42 2.032 . S
O43 C47 1.278 . S
C44 O45 1.203 . S
C44 O51 1.267 . S
O45 C44 1.203 . S
O46 C39 1.185 . S
O46 Zn42 2.086 . S
C47 O43 1.278 . S
C47 O48 1.211 . S
O48 C47 1.211 . S
C49 O41 1.284 1_455 S
C49 O50 1.273 1_455 S
O50 C49 1.273 1_655 S
O51 Zn42 1.977 . S
O51 C44 1.267 . S
C52 O53 1.160 . S
C52 O59 1.185 . S
O53 C52 1.160 . S
O54 Zn55 1.899 . S
O54 C62 1.284 1_565 S
Zn55 O54 1.899 . S
Zn55 O56 2.032 . S
Zn55 O59 2.086 . S
Zn55 O64 1.977 . S
O56 Zn55 2.032 . S
O56 C60 1.278 . S
C57 O58 1.203 . S
C57 O64 1.267 . S
O58 C57 1.203 . S
O59 C52 1.185 . S
O59 Zn55 2.086 . S
C60 O56 1.278 . S
C60 O61 1.211 . S
O61 C60 1.211 . S
C62 O54 1.284 1_545 S
C62 O63 1.273 1_545 S
O63 C62 1.273 1_565 S
O64 Zn55 1.977 . S
O64 C57 1.267 . S
C65 O66 1.160 . S
C65 O72 1.185 . S
O66 C65 1.160 . S
O67 Zn68 1.899 . S
O67 C75 1.284 . S
Zn68 O67 1.899 . S
Zn68 O69 2.032 . S
Zn68 O72 2.086 . S
Zn68 O77 1.977 . S
O69 Zn68 2.032 . S
O69 C73 1.278 . S
C70 O71 1.203 . S
C70 O77 1.267 1_554 S
O71 C70 1.203 . S
O72 C65 1.185 . S
O72 Zn68 2.086 . S
C73 O69 1.278 . S
C73 O74 1.211 . S
O74 C73 1.211 . S
C75 O67 1.284 . S
C75 O76 1.273 . S
O76 C75 1.273 . S
O77 Zn68 1.977 . S
O77 C70 1.267 1_556 S
C78 O79 1.160 . S
C78 O85 1.185 . S
O79 C78 1.160 . S
O80 Zn81 1.899 . S
O80 C88 1.284 1_565 S
Zn81 O80 1.899 . S
Zn81 O82 2.032 . S
Zn81 O85 2.086 . S
Zn81 O90 1.977 . S
O82 Zn81 2.032 . S
O82 C86 1.278 . S
C83 O84 1.203 . S
C83 O90 1.267 . S
O84 C83 1.203 . S
O85 C78 1.185 . S
O85 Zn81 2.086 . S
C86 O82 1.278 . S
C86 O87 1.211 . S
O87 C86 1.211 . S
C88 O80 1.284 1_545 S
C88 O89 1.273 1_545 S
O89 C88 1.273 1_565 S
O90 Zn81 1.977 . S
O90 C83 1.267 . S
C91 O92 1.160 . S
C91 O98 1.185 . S
O92 C91 1.160 . S
O93 Zn94 1.899 . S
O93 C101 1.284 . S
Zn94 O93 1.899 . S
Zn94 O95 2.032 . S
Zn94 O98 2.086 . S
Zn94 O103 1.977 . S
O95 Zn94 2.032 . S
O95 C99 1.278 . S
C96 O97 1.203 . S
C96 O103 1.267 . S
O97 C96 1.203 . S
O98 C91 1.185 . S
O98 Zn94 2.086 . S
C99 O95 1.278 . S
C99 O100 1.211 . S
O100 C99 1.211 . S
C101 O93 1.284 . S
C101 O102 1.273 . S
O102 C101 1.273 . S
O103 Zn94 1.977 . S
O103 C96 1.267 . S
C104 O105 1.160 . S
C104 O111 1.185 . S
O105 C104 1.160 . S
O106 Zn107 1.899 . S
O106 C114 1.284 1_455 S
Zn107 O106 1.899 . S
Zn107 O108 2.032 . S
Zn107 O111 2.086 . S
Zn107 O116 1.977 . S
O108 Zn107 2.032 . S
O108 C112 1.278 . S
C109 O110 1.203 . S
C109 O116 1.267 1_556 S
O110 C109 1.203 . S
O111 C104 1.185 . S
O111 Zn107 2.086 . S
C112 O108 1.278 . S
C112 O113 1.211 . S
O113 C112 1.211 . S
C114 O106 1.284 1_655 S
C114 O115 1.273 1_655 S
O115 C114 1.273 1_455 S
O116 Zn107 1.977 . S
O116 C109 1.267 1_554 S
C117 O118 1.160 . S
C117 O124 1.185 . S
O118 C117 1.160 . S
O119 Zn120 1.899 . S
O119 C127 1.284 1_545 S
Zn120 O119 1.899 . S
Zn120 O121 2.032 . S
Zn120 O124 2.086 . S
Zn120 O129 1.977 . S
O121 Zn120 2.032 . S
O121 C125 1.278 . S
C122 O123 1.203 . S
C122 O129 1.267 . S
O123 C122 1.203 . S
O124 C117 1.185 . S
O124 Zn120 2.086 . S
C125 O121 1.278 . S
C125 O126 1.211 . S
O126 C125 1.211 . S
C127 O119 1.284 1_565 S
C127 O128 1.273 1_565 S
O128 C127 1.273 1_545 S
O129 Zn120 1.977 . S
O129 C122 1.267 . S
C130 O131 1.160 . S
C130 O137 1.185 . S
O131 C130 1.160 . S
O132 Zn133 1.899 . S
O132 C140 1.284 . S
Zn133 O132 1.899 . S
Zn133 O134 2.032 . S
Zn133 O137 2.086 . S
Zn133 O142 1.977 . S
O134 Zn133 2.032 . S
O134 C138 1.278 . S
C135 O136 1.203 . S
C135 O142 1.267 . S
O136 C135 1.203 . S
O137 C130 1.185 . S
O137 Zn133 2.086 . S
C138 O134 1.278 . S
C138 O139 1.211 . S
O139 C138 1.211 . S
C140 O132 1.284 . S
C140 O141 1.273 . S
O141 C140 1.273 . S
O142 Zn133 1.977 . S
O142 C135 1.267 . S
C143 O144 1.160 . S
C143 O150 1.185 . S
O144 C143 1.160 . S
O145 Zn146 1.899 . S
O145 C153 1.284 1_655 S
Zn146 O145 1.899 . S
Zn146 O147 2.032 . S
Zn146 O150 2.086 . S
Zn146 O155 1.977 . S
O147 Zn146 2.032 . S
O147 C151 1.278 . S
C148 O149 1.203 . S
C148 O155 1.267 . S
O149 C148 1.203 . S
O150 C143 1.185 . S
O150 Zn146 2.086 . S
C151 O147 1.278 . S
C151 O152 1.211 . S
O152 C151 1.211 . S
C153 O145 1.284 1_455 S
C153 O154 1.273 1_455 S
O154 C153 1.273 1_655 S
O155 Zn146 1.977 . S
O155 C148 1.267 . S
H156 C162 0.930 . S
H157 C166 0.930 . S
H158 C171 0.929 . S
H159 C169 0.929 . S
H160 C164 0.929 . S
H161 C170 0.929 . S
C162 H156 0.930 . S
C162 C163 1.367 . S
C162 C170 1.378 . S
C163 C162 1.367 . S
C163 C171 1.433 . S
C164 H160 0.929 . S
C164 C166 1.378 . S
C164 C168 1.350 . S
C165 C168 1.463 . S
C165 C170 1.350 . S
C165 N173 1.427 . S
C166 H157 0.930 . S
C166 C164 1.378 . S
C166 C167 1.367 . S
C167 C166 1.367 . S
C167 C169 1.433 . S
C168 C164 1.350 . S
C168 C165 1.463 . S
C168 N172 1.427 . S
C169 H159 0.929 . S
C169 C167 1.433 . S
C169 N172 1.384 . S
C170 H161 0.929 . S
C170 C162 1.378 . S
C170 C165 1.350 . S
C171 H158 0.929 . S
C171 C163 1.433 . S
C171 N173 1.384 . S
N172 C168 1.427 . S
N172 C169 1.384 . S
N173 C165 1.427 . S
N173 C171 1.384 . S
H174 C180 0.930 . S
H175 C184 0.943 . S
H176 C189 0.941 . S
H177 C187 0.929 . S
H178 C182 0.958 . S
H179 C188 0.929 . S
C180 H174 0.930 . S
C180 C181 1.367 . S
C180 C188 1.378 . S
C181 C180 1.367 . S
C181 C189 1.433 . S
C182 H178 0.958 . S
C182 C184 1.378 . S
C182 C186 1.350 . S
C183 C186 1.463 . S
C183 C188 1.350 . S
C183 N191 1.427 . S
C184 H175 0.943 . S
C184 C182 1.378 . S
C184 C185 1.367 . S
C185 C184 1.367 . S
C185 C187 1.433 . S
C186 C182 1.350 . S
C186 C183 1.463 . S
C186 N190 1.427 . S
C187 H177 0.929 . S
C187 C185 1.433 . S
C187 N190 1.384 . S
C188 H179 0.929 . S
C188 C180 1.378 . S
C188 C183 1.350 . S
C189 H176 0.941 . S
C189 C181 1.433 . S
C189 N191 1.384 . S
N190 C186 1.427 . S
N190 C187 1.384 . S
N191 C183 1.427 . S
N191 C189 1.384 . S
H192 C198 0.930 . S
H193 C202 0.930 . S
H194 C207 0.929 . S
H195 C205 0.929 . S
H196 C200 0.929 . S
H197 C206 0.929 . S
C198 H192 0.930 . S
C198 C199 1.367 . S
C198 C206 1.378 . S
C199 C198 1.367 . S
C199 C207 1.433 . S
C200 H196 0.929 . S
C200 C202 1.378 . S
C200 C204 1.350 . S
C201 C204 1.463 . S
C201 C206 1.350 . S
C201 N209 1.427 . S
C202 H193 0.930 . S
C202 C200 1.378 . S
C202 C203 1.367 . S
C203 C202 1.367 . S
C203 C205 1.433 . S
C204 C200 1.350 . S
C204 C201 1.463 . S
C204 N208 1.427 . S
C205 H195 0.929 . S
C205 C203 1.433 . S
C205 N208 1.384 . S
C206 H197 0.929 . S
C206 C198 1.378 . S
C206 C201 1.350 . S
C207 H194 0.929 . S
C207 C199 1.433 . S
C207 N209 1.384 . S
N208 C204 1.427 . S
N208 C205 1.384 . S
N209 C201 1.427 . S
N209 C207 1.384 . S
H210 C216 0.930 . S
H211 C220 0.930 . S
H212 C225 0.929 . S
H213 C223 0.929 . S
H214 C218 0.929 . S
H215 C224 0.929 . S
C216 H210 0.930 . S
C216 C217 1.367 . S
C216 C224 1.378 . S
C217 C216 1.367 . S
C217 C225 1.433 . S
C218 H214 0.929 . S
C218 C220 1.378 . S
C218 C222 1.350 . S
C219 C222 1.463 . S
C219 C224 1.350 . S
C219 N227 1.427 . S
C220 H211 0.930 . S
C220 C218 1.378 . S
C220 C221 1.367 . S
C221 C220 1.367 . S
C221 C223 1.433 . S
C222 C218 1.350 . S
C222 C219 1.463 . S
C222 N226 1.427 . S
C223 H213 0.929 . S
C223 C221 1.433 . S
C223 N226 1.384 . S
C224 H215 0.929 . S
C224 C216 1.378 . S
C224 C219 1.350 . S
C225 H212 0.929 . S
C225 C217 1.433 . S
C225 N227 1.384 . S
N226 C222 1.427 . S
N226 C223 1.384 . S
N227 C219 1.427 . S
N227 C225 1.384 . S
H228 C234 0.930 . S
H229 C238 0.930 . S
H230 C243 0.929 . S
H231 C241 0.929 . S
H232 C236 0.929 . S
H233 C242 0.929 . S
C234 H228 0.930 . S
C234 C235 1.367 . S
C234 C242 1.378 . S
C235 C234 1.367 . S
C235 C243 1.433 . S
C236 H232 0.929 . S
C236 C238 1.378 . S
C236 C240 1.350 . S
C237 C240 1.463 . S
C237 C242 1.350 . S
C237 N245 1.427 . S
C238 H229 0.930 . S
C238 C236 1.378 . S
C238 C239 1.367 . S
C239 C238 1.367 . S
C239 C241 1.433 . S
C240 C236 1.350 . S
C240 C237 1.463 . S
C240 N244 1.427 . S
C241 H231 0.929 . S
C241 C239 1.433 . S
C241 N244 1.384 . S
C242 H233 0.929 . S
C242 C234 1.378 . S
C242 C237 1.350 . S
C243 H230 0.929 . S
C243 C235 1.433 . S
C243 N245 1.384 . S
N244 C240 1.427 . S
N244 C241 1.384 . S
N245 C237 1.427 . S
N245 C243 1.384 . S
H246 C252 0.930 . S
H247 C256 0.930 . S
H248 C261 0.929 . S
H249 C259 0.929 . S
H250 C254 0.929 . S
H251 C260 0.929 . S
C252 H246 0.930 . S
C252 C253 1.367 . S
C252 C260 1.378 . S
C253 C252 1.367 . S
C253 C261 1.433 . S
C254 H250 0.929 . S
C254 C256 1.378 . S
C254 C258 1.350 . S
C255 C258 1.463 . S
C255 C260 1.350 . S
C255 N263 1.427 . S
C256 H247 0.930 . S
C256 C254 1.378 . S
C256 C257 1.367 . S
C257 C256 1.367 . S
C257 C259 1.433 . S
C258 C254 1.350 . S
C258 C255 1.463 . S
C258 N262 1.427 . S
C259 H249 0.929 . S
C259 C257 1.433 . S
C259 N262 1.384 . S
C260 H251 0.929 . S
C260 C252 1.378 . S
C260 C255 1.350 . S
C261 H248 0.929 . S
C261 C253 1.433 . S
C261 N263 1.384 . S
N262 C258 1.427 . S
N262 C259 1.384 . S
N263 C255 1.427 . S
N263 C261 1.384 . S
H264 C270 0.930 . S
H265 C274 0.930 . S
H266 C279 0.929 . S
H267 C277 0.929 . S
H268 C272 0.929 . S
H269 C278 0.929 . S
C270 H264 0.930 . S
C270 C271 1.367 . S
C270 C278 1.378 . S
C271 C270 1.367 . S
C271 C279 1.433 . S
C272 H268 0.929 . S
C272 C274 1.378 1_554 S
C272 C276 1.350 . S
C273 C276 1.463 . S
C273 C278 1.350 . S
C273 N281 1.427 . S
C274 H265 0.930 . S
C274 C272 1.378 1_556 S
C274 C275 1.367 . S
C275 C274 1.367 . S
C275 C277 1.433 . S
C276 C272 1.350 . S
C276 C273 1.463 . S
C276 N280 1.427 . S
C277 H267 0.929 . S
C277 C275 1.433 . S
C277 N280 1.384 1_556 S
C278 H269 0.929 . S
C278 C270 1.378 . S
C278 C273 1.350 . S
C279 H266 0.929 . S
C279 C271 1.433 . S
C279 N281 1.384 . S
N280 C276 1.427 . S
N280 C277 1.384 1_554 S
N281 C273 1.427 . S
N281 C279 1.384 . S
H282 C288 0.930 . S
H283 C292 0.930 . S
H284 C297 0.929 . S
H285 C295 0.929 . S
H286 C290 0.929 . S
H287 C296 0.929 . S
C288 H282 0.930 . S
C288 C289 1.367 . S
C288 C296 1.378 . S
C289 C288 1.367 . S
C289 C297 1.433 . S
C290 H286 0.929 . S
C290 C292 1.378 . S
C290 C294 1.350 . S
C291 C294 1.463 . S
C291 C296 1.350 . S
C291 N299 1.427 . S
C292 H283 0.930 . S
C292 C290 1.378 . S
C292 C293 1.367 . S
C293 C292 1.367 . S
C293 C295 1.433 . S
C294 C290 1.350 . S
C294 C291 1.463 . S
C294 N298 1.427 . S
C295 H285 0.929 . S
C295 C293 1.433 . S
C295 N298 1.384 . S
C296 H287 0.929 . S
C296 C288 1.378 . S
C296 C291 1.350 . S
C297 H284 0.929 . S
C297 C289 1.433 . S
C297 N299 1.384 . S
N298 C294 1.427 . S
N298 C295 1.384 . S
N299 C291 1.427 . S
N299 C297 1.384 . S
H300 C306 0.930 . S
H301 C310 0.930 . S
H302 C315 0.929 . S
H303 C313 0.929 . S
H304 C308 0.929 . S
H305 C314 0.929 . S
C306 H300 0.930 . S
C306 C307 1.367 . S
C306 C314 1.378 . S
C307 C306 1.367 . S
C307 C315 1.433 . S
C308 H304 0.929 . S
C308 C310 1.378 . S
C308 C312 1.350 . S
C309 C312 1.463 . S
C309 C314 1.350 . S
C309 N317 1.427 . S
C310 H301 0.930 . S
C310 C308 1.378 . S
C310 C311 1.367 . S
C311 C310 1.367 . S
C311 C313 1.433 . S
C312 C308 1.350 . S
C312 C309 1.463 . S
C312 N316 1.427 . S
C313 H303 0.929 . S
C313 C311 1.433 . S
C313 N316 1.384 . S
C314 H305 0.929 . S
C314 C306 1.378 . S
C314 C309 1.350 . S
C315 H302 0.929 . S
C315 C307 1.433 . S
C315 N317 1.384 . S
N316 C312 1.427 . S
N316 C313 1.384 . S
N317 C309 1.427 . S
N317 C315 1.384 . S
H318 C324 0.930 . S
H319 C328 0.930 . S
H320 C333 0.929 . S
H321 C331 0.929 . S
H322 C326 0.929 . S
H323 C332 0.929 . S
C324 H318 0.930 . S
C324 C325 1.367 . S
C324 C332 1.378 . S
C325 C324 1.367 . S
C325 C333 1.433 . S
C326 H322 0.929 . S
C326 C328 1.378 . S
C326 C330 1.350 . S
C327 C330 1.463 . S
C327 C332 1.350 . S
C327 N335 1.427 . S
C328 H319 0.930 . S
C328 C326 1.378 . S
C328 C329 1.367 . S
C329 C328 1.367 . S
C329 C331 1.433 . S
C330 C326 1.350 . S
C330 C327 1.463 . S
C330 N334 1.427 . S
C331 H321 0.929 . S
C331 C329 1.433 . S
C331 N334 1.384 . S
C332 H323 0.929 . S
C332 C324 1.378 . S
C332 C327 1.350 . S
C333 H320 0.929 . S
C333 C325 1.433 . S
C333 N335 1.384 . S
N334 C330 1.427 . S
N334 C331 1.384 . S
N335 C327 1.427 . S
N335 C333 1.384 . S
H336 C342 0.930 . S
H337 C346 0.930 . S
H338 C351 0.929 . S
H339 C349 0.929 . S
H340 C344 0.929 . S
H341 C350 0.929 . S
C342 H336 0.930 . S
C342 C343 1.367 . S
C342 C350 1.378 . S
C343 C342 1.367 . S
C343 C351 1.433 . S
C344 H340 0.929 . S
C344 C346 1.378 . S
C344 C348 1.350 . S
C345 C348 1.463 . S
C345 C350 1.350 . S
C345 N353 1.427 . S
C346 H337 0.930 . S
C346 C344 1.378 . S
C346 C347 1.367 . S
C347 C346 1.367 . S
C347 C349 1.433 . S
C348 C344 1.350 . S
C348 C345 1.463 . S
C348 N352 1.427 . S
C349 H339 0.929 . S
C349 C347 1.433 . S
C349 N352 1.384 . S
C350 H341 0.929 . S
C350 C342 1.378 . S
C350 C345 1.350 . S
C351 H338 0.929 . S
C351 C343 1.433 . S
C351 N353 1.384 . S
N352 C348 1.427 . S
N352 C349 1.384 . S
N353 C345 1.427 . S
N353 C351 1.384 . S
H354 C360 0.930 . S
H355 C364 0.930 . S
H356 C369 0.929 . S
H357 C367 0.929 . S
H358 C362 0.929 . S
H359 C368 0.929 . S
C360 H354 0.930 . S
C360 C361 1.367 . S
C360 C368 1.378 . S
C361 C360 1.367 . S
C361 C369 1.433 . S
C362 H358 0.929 . S
C362 C364 1.378 . S
C362 C366 1.350 . S
C363 C366 1.463 . S
C363 C368 1.350 . S
C363 N371 1.427 . S
C364 H355 0.930 . S
C364 C362 1.378 . S
C364 C365 1.367 . S
C365 C364 1.367 . S
C365 C367 1.433 . S
C366 C362 1.350 . S
C366 C363 1.463 . S
C366 N370 1.427 . S
C367 H357 0.929 . S
C367 C365 1.433 . S
C367 N370 1.384 . S
C368 H359 0.929 . S
C368 C360 1.378 . S
C368 C363 1.350 . S
C369 H356 0.929 . S
C369 C361 1.433 . S
C369 N371 1.384 . S
N370 C366 1.427 . S
N370 C367 1.384 . S
N371 C363 1.427 . S
N371 C369 1.384 . S
H372 C378 0.930 . S
H373 C382 0.930 . S
H374 C387 0.929 . S
H375 C385 0.929 . S
H376 C380 0.929 . S
H377 C386 0.929 . S
C378 H372 0.930 . S
C378 C379 1.367 . S
C378 C386 1.378 . S
C379 C378 1.367 . S
C379 C387 1.433 . S
C380 H376 0.929 . S
C380 C382 1.378 . S
C380 C384 1.350 . S
C381 C384 1.463 . S
C381 C386 1.350 . S
C381 N389 1.427 . S
C382 H373 0.930 . S
C382 C380 1.378 . S
C382 C383 1.367 . S
C383 C382 1.367 . S
C383 C385 1.433 . S
C384 C380 1.350 . S
C384 C381 1.463 . S
C384 N388 1.427 . S
C385 H375 0.929 . S
C385 C383 1.433 . S
C385 N388 1.384 . S
C386 H377 0.929 . S
C386 C378 1.378 . S
C386 C381 1.350 . S
C387 H374 0.929 . S
C387 C379 1.433 . S
C387 N389 1.384 . S
N388 C384 1.427 . S
N388 C385 1.384 . S
N389 C381 1.427 . S
N389 C387 1.384 . S
H390 C396 0.930 . S
H391 C400 0.930 . S
H392 C405 0.929 . S
H393 C403 0.929 . S
H394 C398 0.929 . S
H395 C404 0.929 . S
C396 H390 0.930 . S
C396 C397 1.367 . S
C396 C404 1.378 . S
C397 C396 1.367 . S
C397 C405 1.433 . S
C398 H394 0.929 . S
C398 C400 1.378 . S
C398 C402 1.350 . S
C399 C402 1.463 . S
C399 C404 1.350 . S
C399 N407 1.427 . S
C400 H391 0.930 . S
C400 C398 1.378 . S
C400 C401 1.367 1_556 S
C401 C400 1.367 1_554 S
C401 C403 1.433 . S
C402 C398 1.350 . S
C402 C399 1.463 . S
C402 N406 1.427 1_556 S
C403 H393 0.929 . S
C403 C401 1.433 . S
C403 N406 1.384 . S
C404 H395 0.929 . S
C404 C396 1.378 . S
C404 C399 1.350 . S
C405 H392 0.929 . S
C405 C397 1.433 . S
C405 N407 1.384 . S
N406 C402 1.427 1_554 S
N406 C403 1.384 . S
N407 C399 1.427 . S
N407 C405 1.384 . S
H408 C414 0.930 . S
H409 C418 0.930 . S
H410 C423 0.929 . S
H411 C421 0.929 . S
H412 C416 0.929 . S
H413 C422 0.929 . S
C414 H408 0.930 . S
C414 C415 1.367 . S
C414 C422 1.378 . S
C415 C414 1.367 . S
C415 C423 1.433 . S
C416 H412 0.929 . S
C416 C418 1.378 . S
C416 C420 1.350 . S
C417 C420 1.463 . S
C417 C422 1.350 . S
C417 N425 1.427 . S
C418 H409 0.930 . S
C418 C416 1.378 . S
C418 C419 1.367 . S
C419 C418 1.367 . S
C419 C421 1.433 . S
C420 C416 1.350 . S
C420 C417 1.463 . S
C420 N424 1.427 . S
C421 H411 0.929 . S
C421 C419 1.433 . S
C421 N424 1.384 . S
C422 H413 0.929 . S
C422 C414 1.378 . S
C422 C417 1.350 . S
C423 H410 0.929 . S
C423 C415 1.433 . S
C423 N425 1.384 . S
N424 C420 1.427 . S
N424 C421 1.384 . S
N425 C417 1.427 . S
N425 C423 1.384 . S
H426 C432 0.930 . S
H427 C436 0.930 . S
H428 C441 0.929 . S
H429 C439 0.929 . S
H430 C434 0.929 . S
H431 C440 0.929 . S
C432 H426 0.930 . S
C432 C433 1.367 . S
C432 C440 1.378 . S
C433 C432 1.367 . S
C433 C441 1.433 . S
C434 H430 0.929 . S
C434 C436 1.378 . S
C434 C438 1.350 . S
C435 C438 1.463 . S
C435 C440 1.350 . S
C435 N443 1.427 . S
C436 H427 0.930 . S
C436 C434 1.378 . S
C436 C437 1.367 . S
C437 C436 1.367 . S
C437 C439 1.433 . S
C438 C434 1.350 . S
C438 C435 1.463 . S
C438 N442 1.427 . S
C439 H429 0.929 . S
C439 C437 1.433 . S
C439 N442 1.384 . S
C440 H431 0.929 . S
C440 C432 1.378 . S
C440 C435 1.350 . S
C441 H428 0.929 . S
C441 C433 1.433 . S
C441 N443 1.384 . S
N442 C438 1.427 . S
N442 C439 1.384 . S
N443 C435 1.427 . S
N443 C441 1.384 . S
H444 C450 0.930 . S
H445 C454 0.930 . S
H446 C459 0.929 . S
H447 C457 0.929 . S
H448 C452 0.929 . S
H449 C458 0.929 . S
C450 H444 0.930 . S
C450 C451 1.367 . S
C450 C458 1.378 . S
C451 C450 1.367 . S
C451 C459 1.433 . S
C452 H448 0.929 . S
C452 C454 1.378 . S
C452 C456 1.350 . S
C453 C456 1.463 . S
C453 C458 1.350 . S
C453 N461 1.427 . S
C454 H445 0.930 . S
C454 C452 1.378 . S
C454 C455 1.367 . S
C455 C454 1.367 . S
C455 C457 1.433 . S
C456 C452 1.350 . S
C456 C453 1.463 . S
C456 N460 1.427 . S
C457 H447 0.929 . S
C457 C455 1.433 . S
C457 N460 1.384 . S
C458 H449 0.929 . S
C458 C450 1.378 . S
C458 C453 1.350 . S
C459 H446 0.929 . S
C459 C451 1.433 . S
C459 N461 1.384 . S
N460 C456 1.427 . S
N460 C457 1.384 . S
N461 C453 1.427 . S
N461 C459 1.384 . S
H462 C468 0.930 . S
H463 C472 0.930 . S
H464 C477 0.929 . S
H465 C475 0.929 . S
H466 C470 0.929 . S
H467 C476 0.929 . S
C468 H462 0.930 . S
C468 C469 1.367 . S
C468 C476 1.378 . S
C469 C468 1.367 . S
C469 C477 1.433 . S
C470 H466 0.929 . S
C470 C472 1.378 . S
C470 C474 1.350 . S
C471 C474 1.463 . S
C471 C476 1.350 . S
C471 N479 1.427 . S
C472 H463 0.930 . S
C472 C470 1.378 . S
C472 C473 1.367 . S
C473 C472 1.367 . S
C473 C475 1.433 . S
C474 C470 1.350 . S
C474 C471 1.463 . S
C474 N478 1.427 . S
C475 H465 0.929 . S
C475 C473 1.433 . S
C475 N478 1.384 . S
C476 H467 0.929 . S
C476 C468 1.378 . S
C476 C471 1.350 . S
C477 H464 0.929 . S
C477 C469 1.433 . S
C477 N479 1.384 . S
N478 C474 1.427 . S
N478 C475 1.384 . S
N479 C471 1.427 . S
N479 C477 1.384 . S
H480 C486 0.930 . S
H481 C490 0.930 . S
H482 C495 0.929 . S
H483 C493 0.929 . S
H484 C488 0.929 . S
H485 C494 0.929 . S
C486 H480 0.930 . S
C486 C487 1.367 . S
C486 C494 1.378 . S
C487 C486 1.367 . S
C487 C495 1.433 . S
C488 H484 0.929 . S
C488 C490 1.378 . S
C488 C492 1.350 . S
C489 C492 1.463 . S
C489 C494 1.350 . S
C489 N497 1.427 . S
C490 H481 0.930 . S
C490 C488 1.378 . S
C490 C491 1.367 . S
C491 C490 1.367 . S
C491 C493 1.433 . S
C492 C488 1.350 . S
C492 C489 1.463 . S
C492 N496 1.427 . S
C493 H483 0.929 . S
C493 C491 1.433 . S
C493 N496 1.384 . S
C494 H485 0.929 . S
C494 C486 1.378 . S
C494 C489 1.350 . S
C495 H482 0.929 . S
C495 C487 1.433 . S
C495 N497 1.384 . S
N496 C492 1.427 . S
N496 C493 1.384 . S
N497 C489 1.427 . S
N497 C495 1.384 . S
H498 C504 0.930 . S
H499 C508 0.930 . S
H500 C513 0.929 . S
H501 C511 0.929 . S
H502 C506 0.929 . S
H503 C512 0.929 . S
C504 H498 0.930 . S
C504 C505 1.367 . S
C504 C512 1.378 . S
C505 C504 1.367 . S
C505 C513 1.433 . S
C506 H502 0.929 . S
C506 C508 1.378 . S
C506 C510 1.350 . S
C507 C510 1.463 . S
C507 C512 1.350 . S
C507 N515 1.427 . S
C508 H499 0.930 . S
C508 C506 1.378 . S
C508 C509 1.367 . S
C509 C508 1.367 . S
C509 C511 1.433 . S
C510 C506 1.350 . S
C510 C507 1.463 . S
C510 N514 1.427 . S
C511 H501 0.929 . S
C511 C509 1.433 . S
C511 N514 1.384 . S
C512 H503 0.929 . S
C512 C504 1.378 . S
C512 C507 1.350 . S
C513 H500 0.929 . S
C513 C505 1.433 . S
C513 N515 1.384 . S
N514 C510 1.427 . S
N514 C511 1.384 . S
N515 C507 1.427 . S
N515 C513 1.384 . S
H516 C522 0.930 . S
H517 C526 0.930 . S
H518 C531 0.929 . S
H519 C529 0.929 . S
H520 C524 0.929 . S
H521 C530 0.929 . S
C522 H516 0.930 . S
C522 C523 1.367 . S
C522 C530 1.378 . S
C523 C522 1.367 . S
C523 C531 1.433 . S
C524 H520 0.929 . S
C524 C526 1.378 . S
C524 C528 1.350 . S
C525 C528 1.463 . S
C525 C530 1.350 . S
C525 N533 1.427 . S
C526 H517 0.930 . S
C526 C524 1.378 . S
C526 C527 1.367 . S
C527 C526 1.367 . S
C527 C529 1.433 . S
C528 C524 1.350 . S
C528 C525 1.463 . S
C528 N532 1.427 . S
C529 H519 0.929 . S
C529 C527 1.433 . S
C529 N532 1.384 . S
C530 H521 0.929 . S
C530 C522 1.378 . S
C530 C525 1.350 . S
C531 H518 0.929 . S
C531 C523 1.433 . S
C531 N533 1.384 . S
N532 C528 1.427 . S
N532 C529 1.384 . S
N533 C525 1.427 . S
N533 C531 1.384 . S
H534 C540 0.930 . S
H535 C544 0.930 . S
H536 C549 0.929 . S
H537 C547 0.929 . S
H538 C542 0.929 . S
H539 C548 0.929 . S
C540 H534 0.930 . S
C540 C541 1.367 . S
C540 C548 1.378 . S
C541 C540 1.367 . S
C541 C549 1.433 . S
C542 H538 0.929 . S
C542 C544 1.378 . S
C542 C546 1.350 . S
C543 C546 1.463 . S
C543 C548 1.350 . S
C543 N551 1.427 . S
C544 H535 0.930 . S
C544 C542 1.378 . S
C544 C545 1.367 . S
C545 C544 1.367 . S
C545 C547 1.433 . S
C546 C542 1.350 . S
C546 C543 1.463 . S
C546 N550 1.427 . S
C547 H537 0.929 . S
C547 C545 1.433 . S
C547 N550 1.384 . S
C548 H539 0.929 . S
C548 C540 1.378 . S
C548 C543 1.350 . S
C549 H536 0.929 . S
C549 C541 1.433 . S
C549 N551 1.384 . S
N550 C546 1.427 . S
N550 C547 1.384 . S
N551 C543 1.427 . S
N551 C549 1.384 . S
H552 C558 0.930 . S
H553 C562 0.930 . S
H554 C567 0.929 . S
H555 C565 0.929 . S
H556 C560 0.929 . S
H557 C566 0.929 . S
C558 H552 0.930 . S
C558 C559 1.367 . S
C558 C566 1.378 . S
C559 C558 1.367 . S
C559 C567 1.433 . S
C560 H556 0.929 . S
C560 C562 1.378 . S
C560 C564 1.350 . S
C561 C564 1.463 . S
C561 C566 1.350 . S
C561 N569 1.427 . S
C562 H553 0.930 . S
C562 C560 1.378 . S
C562 C563 1.367 . S
C563 C562 1.367 . S
C563 C565 1.433 . S
C564 C560 1.350 . S
C564 C561 1.463 . S
C564 N568 1.427 . S
C565 H555 0.929 . S
C565 C563 1.433 . S
C565 N568 1.384 . S
C566 H557 0.929 . S
C566 C558 1.378 . S
C566 C561 1.350 . S
C567 H554 0.929 . S
C567 C559 1.433 . S
C567 N569 1.384 . S
N568 C564 1.427 . S
N568 C565 1.384 . S
N569 C561 1.427 . S
N569 C567 1.384 . S
H570 C576 0.930 . S
H571 C580 0.930 . S
H572 C585 0.929 . S
H573 C583 0.929 . S
H574 C578 0.929 . S
H575 C584 0.929 . S
C576 H570 0.930 . S
C576 C577 1.367 . S
C576 C584 1.378 . S
C577 C576 1.367 . S
C577 C585 1.433 . S
C578 H574 0.929 . S
C578 C580 1.378 . S
C578 C582 1.350 . S
C579 C582 1.463 . S
C579 C584 1.350 . S
C579 N587 1.427 . S
C580 H571 0.930 . S
C580 C578 1.378 . S
C580 C581 1.367 . S
C581 C580 1.367 . S
C581 C583 1.433 . S
C582 C578 1.350 . S
C582 C579 1.463 . S
C582 N586 1.427 . S
C583 H573 0.929 . S
C583 C581 1.433 . S
C583 N586 1.384 . S
C584 H575 0.929 . S
C584 C576 1.378 . S
C584 C579 1.350 . S
C585 H572 0.929 . S
C585 C577 1.433 . S
C585 N587 1.384 . S
N586 C582 1.427 . S
N586 C583 1.384 . S
N587 C579 1.427 . S
N587 C585 1.384 . S
C163 C104 1.420 . S
C167 C0 1.414 . S
C181 C13 1.426 . S
C185 C117 1.417 . S
C199 C26 1.421 . S
C203 C130 1.425 . S
C217 C39 1.420 . S
C221 C143 1.414 . S
C235 C78 1.426 . S
C239 C52 1.418 . S
C253 C65 1.415 . S
C257 C91 1.418 . S
C271 C8 1.328 . S
C275 C75 1.384 . S
C289 C21 1.324 . S
C293 C10 1.375 . S
C307 C34 1.327 . S
C311 C23 1.384 . S
C325 C36 1.384 . S
C329 C47 1.322 . S
C343 C49 1.381 . S
C347 C60 1.333 . S
C361 C62 1.379 . S
C365 C73 1.317 . S
C379 C101 1.380 . S
C383 C86 1.316 . S
C397 C99 1.334 . S
C401 C114 1.380 . S
C415 C127 1.380 . S
C419 C112 1.335 . S
C433 C125 1.319 . S
C437 C140 1.384 . S
C451 C138 1.335 . S
C455 C153 1.379 . S
C469 C151 1.320 . S
C473 C88 1.384 . S
C487 C135 1.200 . S
C491 C5 1.186 . S
C505 C148 1.189 . S
C509 C18 1.195 . S
C523 C83 1.188 . S
C527 C31 1.196 . S
C541 C44 1.188 . S
C545 C96 1.202 . S
C559 C57 1.200 . S
C563 C109 1.190 . S
C577 C122 1.202 . S
C581 C70 1.186 . S
