# Generated by pormake.
# Topology soh, (5)-cn, num edge types: 1
# Building blocks:
#     Node 0, Type 0, BuildingBlock: XOMCOT_clean_sbu_1, # of connection points: 5
#     Node 1, Type 0, BuildingBlock: XOMCOT_clean_sbu_1, # of connection points: 5
#     Node 2, Type 0, BuildingBlock: XOMCOT_clean_sbu_1, # of connection points: 5
#     Node 3, Type 0, BuildingBlock: XOMCOT_clean_sbu_1, # of connection points: 5
#     Node 4, Type 0, BuildingBlock: XOMCOT_clean_sbu_1, # of connection points: 5
#     Node 5, Type 0, BuildingBlock: XOMCOT_clean_sbu_1, # of connection points: 5
#     Node 6, Type 0, BuildingBlock: XOMCOT_clean_sbu_1, # of connection points: 5
#     Node 7, Type 0, BuildingBlock: XOMCOT_clean_sbu_1, # of connection points: 5
#     Node 8, Type 0, BuildingBlock: XOMCOT_clean_sbu_1, # of connection points: 5
#     Node 9, Type 0, BuildingBlock: XOMCOT_clean_sbu_1, # of connection points: 5
#     Node 10, Type 0, BuildingBlock: XOMCOT_clean_sbu_1, # of connection points: 5
#     Node 11, Type 0, BuildingBlock: XOMCOT_clean_sbu_1, # of connection points: 5
#     Node 12, Type 0, BuildingBlock: XOMCOT_clean_sbu_1, # of connection points: 5
#     Node 13, Type 0, BuildingBlock: XOMCOT_clean_sbu_1, # of connection points: 5
#     Node 14, Type 0, BuildingBlock: XOMCOT_clean_sbu_1, # of connection points: 5
#     Node 15, Type 0, BuildingBlock: XOMCOT_clean_sbu_1, # of connection points: 5
#     Node 16, Type 0, BuildingBlock: XOMCOT_clean_sbu_1, # of connection points: 5
#     Node 17, Type 0, BuildingBlock: XOMCOT_clean_sbu_1, # of connection points: 5
#     Node 18, Type 0, BuildingBlock: XOMCOT_clean_sbu_1, # of connection points: 5
#     Node 19, Type 0, BuildingBlock: XOMCOT_clean_sbu_1, # of connection points: 5
#     Node 20, Type 0, BuildingBlock: XOMCOT_clean_sbu_1, # of connection points: 5
#     Node 21, Type 0, BuildingBlock: XOMCOT_clean_sbu_1, # of connection points: 5
#     Node 22, Type 0, BuildingBlock: XOMCOT_clean_sbu_1, # of connection points: 5
#     Node 23, Type 0, BuildingBlock: XOMCOT_clean_sbu_1, # of connection points: 5
#     Node 24, Type 0, BuildingBlock: XOMCOT_clean_sbu_1, # of connection points: 5
#     Node 25, Type 0, BuildingBlock: XOMCOT_clean_sbu_1, # of connection points: 5
#     Node 26, Type 0, BuildingBlock: XOMCOT_clean_sbu_1, # of connection points: 5
#     Node 27, Type 0, BuildingBlock: XOMCOT_clean_sbu_1, # of connection points: 5
#     Node 28, Type 0, BuildingBlock: XOMCOT_clean_sbu_1, # of connection points: 5
#     Node 29, Type 0, BuildingBlock: XOMCOT_clean_sbu_1, # of connection points: 5
#     Node 30, Type 0, BuildingBlock: XOMCOT_clean_sbu_1, # of connection points: 5
#     Node 31, Type 0, BuildingBlock: XOMCOT_clean_sbu_1, # of connection points: 5
#     Edge 32, Type (0, 0), BuildingBlock: ZUJKAS_clean_linker_0, # of connection points: 2
#     Edge 33, Type (0, 0), BuildingBlock: ZUJKAS_clean_linker_0, # of connection points: 2
#     Edge 34, Type (0, 0), BuildingBlock: ZUJKAS_clean_linker_0, # of connection points: 2
#     Edge 35, Type (0, 0), BuildingBlock: ZUJKAS_clean_linker_0, # of connection points: 2
#     Edge 36, Type (0, 0), BuildingBlock: ZUJKAS_clean_linker_0, # of connection points: 2
#     Edge 37, Type (0, 0), BuildingBlock: ZUJKAS_clean_linker_0, # of connection points: 2
#     Edge 38, Type (0, 0), BuildingBlock: ZUJKAS_clean_linker_0, # of connection points: 2
#     Edge 39, Type (0, 0), BuildingBlock: ZUJKAS_clean_linker_0, # of connection points: 2
#     Edge 40, Type (0, 0), BuildingBlock: ZUJKAS_clean_linker_0, # of connection points: 2
#     Edge 41, Type (0, 0), BuildingBlock: ZUJKAS_clean_linker_0, # of connection points: 2
#     Edge 42, Type (0, 0), BuildingBlock: ZUJKAS_clean_linker_0, # of connection points: 2
#     Edge 43, Type (0, 0), BuildingBlock: ZUJKAS_clean_linker_0, # of connection points: 2
#     Edge 44, Type (0, 0), BuildingBlock: ZUJKAS_clean_linker_0, # of connection points: 2
#     Edge 45, Type (0, 0), BuildingBlock: ZUJKAS_clean_linker_0, # of connection points: 2
#     Edge 46, Type (0, 0), BuildingBlock: ZUJKAS_clean_linker_0, # of connection points: 2
#     Edge 47, Type (0, 0), BuildingBlock: ZUJKAS_clean_linker_0, # of connection points: 2
#     Edge 48, Type (0, 0), BuildingBlock: ZUJKAS_clean_linker_0, # of connection points: 2
#     Edge 49, Type (0, 0), BuildingBlock: ZUJKAS_clean_linker_0, # of connection points: 2
#     Edge 50, Type (0, 0), BuildingBlock: ZUJKAS_clean_linker_0, # of connection points: 2
#     Edge 51, Type (0, 0), BuildingBlock: ZUJKAS_clean_linker_0, # of connection points: 2
#     Edge 52, Type (0, 0), BuildingBlock: ZUJKAS_clean_linker_0, # of connection points: 2
#     Edge 53, Type (0, 0), BuildingBlock: ZUJKAS_clean_linker_0, # of connection points: 2
#     Edge 54, Type (0, 0), BuildingBlock: ZUJKAS_clean_linker_0, # of connection points: 2
#     Edge 55, Type (0, 0), BuildingBlock: ZUJKAS_clean_linker_0, # of connection points: 2
#     Edge 56, Type (0, 0), BuildingBlock: ZUJKAS_clean_linker_0, # of connection points: 2
#     Edge 57, Type (0, 0), BuildingBlock: ZUJKAS_clean_linker_0, # of connection points: 2
#     Edge 58, Type (0, 0), BuildingBlock: ZUJKAS_clean_linker_0, # of connection points: 2
#     Edge 59, Type (0, 0), BuildingBlock: ZUJKAS_clean_linker_0, # of connection points: 2
#     Edge 60, Type (0, 0), BuildingBlock: ZUJKAS_clean_linker_0, # of connection points: 2
#     Edge 61, Type (0, 0), BuildingBlock: ZUJKAS_clean_linker_0, # of connection points: 2
#     Edge 62, Type (0, 0), BuildingBlock: ZUJKAS_clean_linker_0, # of connection points: 2
#     Edge 63, Type (0, 0), BuildingBlock: ZUJKAS_clean_linker_0, # of connection points: 2
#     Edge 64, Type (0, 0), BuildingBlock: ZUJKAS_clean_linker_0, # of connection points: 2
#     Edge 65, Type (0, 0), BuildingBlock: ZUJKAS_clean_linker_0, # of connection points: 2
#     Edge 66, Type (0, 0), BuildingBlock: ZUJKAS_clean_linker_0, # of connection points: 2
#     Edge 67, Type (0, 0), BuildingBlock: ZUJKAS_clean_linker_0, # of connection points: 2
#     Edge 68, Type (0, 0), BuildingBlock: ZUJKAS_clean_linker_0, # of connection points: 2
#     Edge 69, Type (0, 0), BuildingBlock: ZUJKAS_clean_linker_0, # of connection points: 2
#     Edge 70, Type (0, 0), BuildingBlock: ZUJKAS_clean_linker_0, # of connection points: 2
#     Edge 71, Type (0, 0), BuildingBlock: ZUJKAS_clean_linker_0, # of connection points: 2
#     Edge 72, Type (0, 0), BuildingBlock: ZUJKAS_clean_linker_0, # of connection points: 2
#     Edge 73, Type (0, 0), BuildingBlock: ZUJKAS_clean_linker_0, # of connection points: 2
#     Edge 74, Type (0, 0), BuildingBlock: ZUJKAS_clean_linker_0, # of connection points: 2
#     Edge 75, Type (0, 0), BuildingBlock: ZUJKAS_clean_linker_0, # of connection points: 2
#     Edge 76, Type (0, 0), BuildingBlock: ZUJKAS_clean_linker_0, # of connection points: 2
#     Edge 77, Type (0, 0), BuildingBlock: ZUJKAS_clean_linker_0, # of connection points: 2
#     Edge 78, Type (0, 0), BuildingBlock: ZUJKAS_clean_linker_0, # of connection points: 2
#     Edge 79, Type (0, 0), BuildingBlock: ZUJKAS_clean_linker_0, # of connection points: 2
#     Edge 80, Type (0, 0), BuildingBlock: ZUJKAS_clean_linker_0, # of connection points: 2
#     Edge 81, Type (0, 0), BuildingBlock: ZUJKAS_clean_linker_0, # of connection points: 2
#     Edge 82, Type (0, 0), BuildingBlock: ZUJKAS_clean_linker_0, # of connection points: 2
#     Edge 83, Type (0, 0), BuildingBlock: ZUJKAS_clean_linker_0, # of connection points: 2
#     Edge 84, Type (0, 0), BuildingBlock: ZUJKAS_clean_linker_0, # of connection points: 2
#     Edge 85, Type (0, 0), BuildingBlock: ZUJKAS_clean_linker_0, # of connection points: 2
#     Edge 86, Type (0, 0), BuildingBlock: ZUJKAS_clean_linker_0, # of connection points: 2
#     Edge 87, Type (0, 0), BuildingBlock: ZUJKAS_clean_linker_0, # of connection points: 2
#     Edge 88, Type (0, 0), BuildingBlock: ZUJKAS_clean_linker_0, # of connection points: 2
#     Edge 89, Type (0, 0), BuildingBlock: ZUJKAS_clean_linker_0, # of connection points: 2
#     Edge 90, Type (0, 0), BuildingBlock: ZUJKAS_clean_linker_0, # of connection points: 2
#     Edge 91, Type (0, 0), BuildingBlock: ZUJKAS_clean_linker_0, # of connection points: 2
#     Edge 92, Type (0, 0), BuildingBlock: ZUJKAS_clean_linker_0, # of connection points: 2
#     Edge 93, Type (0, 0), BuildingBlock: ZUJKAS_clean_linker_0, # of connection points: 2
#     Edge 94, Type (0, 0), BuildingBlock: ZUJKAS_clean_linker_0, # of connection points: 2
#     Edge 95, Type (0, 0), BuildingBlock: ZUJKAS_clean_linker_0, # of connection points: 2
#     Edge 96, Type (0, 0), BuildingBlock: ZUJKAS_clean_linker_0, # of connection points: 2
#     Edge 97, Type (0, 0), BuildingBlock: ZUJKAS_clean_linker_0, # of connection points: 2
#     Edge 98, Type (0, 0), BuildingBlock: ZUJKAS_clean_linker_0, # of connection points: 2
#     Edge 99, Type (0, 0), BuildingBlock: ZUJKAS_clean_linker_0, # of connection points: 2
#     Edge 100, Type (0, 0), BuildingBlock: ZUJKAS_clean_linker_0, # of connection points: 2
#     Edge 101, Type (0, 0), BuildingBlock: ZUJKAS_clean_linker_0, # of connection points: 2
#     Edge 102, Type (0, 0), BuildingBlock: ZUJKAS_clean_linker_0, # of connection points: 2
#     Edge 103, Type (0, 0), BuildingBlock: ZUJKAS_clean_linker_0, # of connection points: 2
#     Edge 104, Type (0, 0), BuildingBlock: ZUJKAS_clean_linker_0, # of connection points: 2
#     Edge 105, Type (0, 0), BuildingBlock: ZUJKAS_clean_linker_0, # of connection points: 2
#     Edge 106, Type (0, 0), BuildingBlock: ZUJKAS_clean_linker_0, # of connection points: 2
#     Edge 107, Type (0, 0), BuildingBlock: ZUJKAS_clean_linker_0, # of connection points: 2
#     Edge 108, Type (0, 0), BuildingBlock: ZUJKAS_clean_linker_0, # of connection points: 2
#     Edge 109, Type (0, 0), BuildingBlock: ZUJKAS_clean_linker_0, # of connection points: 2
#     Edge 110, Type (0, 0), BuildingBlock: ZUJKAS_clean_linker_0, # of connection points: 2
#     Edge 111, Type (0, 0), BuildingBlock: ZUJKAS_clean_linker_0, # of connection points: 2
# Relax obj value: 0.189
# Max RMSD: 0.168
# Mean RMSD: 0.168
data_MOF--net-soh--node1-XOMCOT_clean_sbu_1--edge1-ZUJKAS_clean_linker_0
_symmetry_space_group_name_H-M    P1
_symmetry_Int_Tables_number       1
_symmetry_cell_setting            triclinic
loop_
_symmetry_equiv_pos_as_xyz
'x, y, z'
_cell_length_a     109.38193
_cell_length_b     55.269369
_cell_length_c     55.79291
_cell_angle_alpha  89.98122
_cell_angle_beta   89.988724
_cell_angle_gamma 90.069892
loop_
_atom_site_label
_atom_site_type_symbol
_atom_site_fract_x
_atom_site_fract_y
_atom_site_fract_z
_atom_type_partial_charge
C0 C 0.29921 0.35928 0.224 0.0
C1 C 0.29926 0.37015 0.24615 0.0
N2 N 0.30926 0.36271 0.25819 0.0
N3 N 0.3092 0.3452 0.22186 0.0
C4 C 0.31514 0.34766 0.24296 0.0
H5 H 0.29198 0.36059 0.21088 0.0
Co6 Co 0.31261 0.3231 0.19752 0.0
C7 C 0.3391 0.33083 0.18552 0.0
O8 O 0.3372 0.32372 0.16342 0.0
N9 N 0.31581 0.29973 0.17276 0.0
C10 C 0.31713 0.28064 0.13755 0.0
C11 C 0.31501 0.30239 0.14865 0.0
C12 C 0.31848 0.27588 0.17557 0.0
N13 N 0.31924 0.26388 0.15449 0.0
O14 O 0.3139 0.29842 0.22156 0.0
H15 H 0.31311 0.31904 0.13928 0.0
H16 H 0.3198 0.26726 0.19274 0.0
O17 O 0.33018 0.33134 0.20039 0.0
C18 C 0.30308 0.29006 0.22399 0.0
O19 O 0.29454 0.29831 0.20959 0.0
N20 N 0.30955 0.34731 0.17479 0.0
C21 C 0.29929 0.38262 0.14524 0.0
C22 C 0.31124 0.38536 0.1542 0.0
C23 C 0.31617 0.36757 0.1694 0.0
C24 C 0.29801 0.34443 0.16605 0.0
C25 C 0.29276 0.36169 0.15119 0.0
H26 H 0.32502 0.37058 0.17742 0.0
H27 H 0.29276 0.32864 0.1711 0.0
H28 H 0.32337 0.33776 0.24737 0.0
H29 H 0.29207 0.38146 0.25332 0.0
H30 H 0.31677 0.27735 0.11844 0.0
H31 H 0.31651 0.40147 0.15025 0.0
H32 H 0.28357 0.35872 0.14453 0.0
C33 C 0.9995 0.91112 0.2198 0.0
C34 C 1.00053 0.89927 0.24137 0.0
N35 N 0.99102 0.90574 0.25535 0.0
N36 N 0.98932 0.92484 0.22002 0.0
C37 C 0.98433 0.92113 0.24187 0.0
H38 H 1.00605 0.91056 0.2053 0.0
Co39 Co 0.98477 0.94778 0.1972 0.0
C40 C 0.95863 0.93509 0.18712 0.0
O41 O 0.96069 0.93703 0.16407 0.0
N42 N 0.98036 0.97203 0.17394 0.0
C43 C 0.9761 0.99171 0.13989 0.0
C44 C 0.97842 0.96956 0.15004 0.0
C45 C 0.97939 0.99628 0.1775 0.0
N46 N 0.97679 1.0085 0.15717 0.0
O47 O 0.98393 0.97133 0.22245 0.0
H48 H 0.97873 0.95277 0.14017 0.0
H49 H 0.98064 1.00514 0.19458 0.0
O50 O 0.96738 0.93858 0.202 0.0
C51 C 0.9949 0.97879 0.22519 0.0
O52 O 1.00326 0.97066 0.21028 0.0
N53 N 0.98747 0.92476 0.17308 0.0
C54 C 0.99825 0.8904 0.14309 0.0
C55 C 0.98746 0.88495 0.15573 0.0
C56 C 0.98229 0.90234 0.17103 0.0
C57 C 0.99784 0.93031 0.16069 0.0
C58 C 1.00325 0.91363 0.14537 0.0
H59 H 0.97466 0.89727 0.18226 0.0
H60 H 1.0022 0.94766 0.16346 0.0
H61 H 0.97638 0.93081 0.24831 0.0
H62 H 1.00792 0.88739 0.24657 0.0
H63 H 0.97448 0.9953 0.12108 0.0
H64 H 0.98346 0.86704 0.15485 0.0
H65 H 1.0115 0.91871 0.13589 0.0
C66 C 0.29894 0.9133 0.04002 0.0
C67 C 0.29835 0.90244 0.01789 0.0
N68 N 0.30792 0.91014 1.00469 0.0
N69 N 0.30892 0.92761 0.04096 0.0
C70 C 0.3142 0.92531 0.01919 0.0
H71 H 0.29217 0.91175 0.05404 0.0
Co72 Co 0.31297 0.94961 0.06505 0.0
C73 C 0.33935 0.93936 0.07553 0.0
O74 O 0.33749 0.94352 0.09837 0.0
N75 N 0.31682 0.97291 0.08965 0.0
C76 C 0.31916 0.99142 0.12498 0.0
C77 C 0.31738 0.96965 0.11371 0.0
C78 C 0.31834 0.9972 0.08705 0.0
N79 N 0.31966 1.00885 0.10822 0.0
O80 O 0.31392 0.97436 0.04099 0.0
H81 H 0.31666 0.95251 0.1229 0.0
H82 H 0.31804 1.00649 0.07004 0.0
O83 O 0.33044 0.94109 0.06075 0.0
C84 C 0.30295 0.98192 0.03872 0.0
O85 O 0.29459 0.97283 0.05307 0.0
N86 N 0.31018 0.9254 0.08793 0.0
C87 C 0.29973 0.88963 0.11678 0.0
C88 C 0.3111 0.88578 0.1056 0.0
C89 C 0.31612 0.90387 0.09083 0.0
C90 C 0.29923 0.92938 0.09888 0.0
C91 C 0.29395 0.91197 0.11357 0.0
H92 H 0.32435 0.90003 0.08085 0.0
H93 H 0.29439 0.94611 0.09559 0.0
H94 H 0.32224 0.93537 0.01383 0.0
H95 H 0.29103 0.89091 0.01157 0.0
H96 H 0.31998 0.99411 0.14412 0.0
H97 H 0.31576 0.86858 0.10729 0.0
H98 H 0.28524 0.91584 0.12197 0.0
C99 C 0.99976 0.35807 0.04294 0.0
C100 C 1.001 0.36935 0.02111 0.0
N101 N 0.99131 0.36343 0.00738 0.0
N102 N 0.98926 0.34529 0.04314 0.0
C103 C 0.98429 0.34896 0.02127 0.0
H104 H 1.00638 0.35829 0.05733 0.0
Co105 Co 0.98442 0.32299 0.06642 0.0
C106 C 0.95908 0.33995 0.07764 0.0
O107 O 0.96197 0.34026 0.10042 0.0
N108 N 0.97968 0.29935 0.09008 0.0
C109 C 0.97504 0.2803 0.12432 0.0
C110 C 0.97738 0.30228 0.11381 0.0
C111 C 0.97887 0.275 0.08701 0.0
N112 N 0.97606 0.26315 0.10745 0.0
O113 O 0.98296 0.29919 0.04144 0.0
H114 H 0.97775 0.31919 0.12346 0.0
H115 H 0.98045 0.26579 0.07024 0.0
O116 O 0.96709 0.33337 0.06217 0.0
C117 C 0.99386 0.29137 0.03859 0.0
O118 O 1.00233 0.29928 0.05339 0.0
N119 N 0.98783 0.34617 0.09021 0.0
C120 C 0.99933 0.37994 0.11993 0.0
C121 C 0.98912 0.38653 0.1061 0.0
C122 C 0.98362 0.36944 0.09095 0.0
C123 C 0.99774 0.33961 0.1035 0.0
C124 C 1.00347 0.356 0.11874 0.0
H125 H 0.9765 0.37527 0.07882 0.0
H126 H 1.0015 0.32162 0.1016 0.0
H127 H 0.97612 0.3398 0.01511 0.0
H128 H 1.00867 0.3804 0.01557 0.0
H129 H 0.97329 0.27705 0.14315 0.0
H130 H 0.98584 0.40501 0.10599 0.0
H131 H 1.0113 0.35007 0.12907 0.0
C132 C 0.74615 0.65899 0.79089 0.0
C133 C 0.74702 0.64685 0.76948 0.0
N134 N 0.7377 0.6539 0.75529 0.0
N135 N 0.73624 0.67347 0.79041 0.0
C136 C 0.73126 0.66993 0.76852 0.0
H137 H 0.75263 0.65801 0.80547 0.0
Co138 Co 0.73198 0.6967 0.81315 0.0
C139 C 0.70559 0.68655 0.82334 0.0
O140 O 0.70749 0.69079 0.84615 0.0
N141 N 0.72788 0.72122 0.83635 0.0
C142 C 0.72474 0.74141 0.87051 0.0
C143 C 0.72693 0.71919 0.8605 0.0
C144 C 0.72626 0.74528 0.83241 0.0
N145 N 0.72437 0.7579 0.85285 0.0
O146 O 0.73139 0.72026 0.78782 0.0
H147 H 0.72767 0.70262 0.87065 0.0
H148 H 0.72653 0.75363 0.81492 0.0
O149 O 0.7145 0.68813 0.80852 0.0
C150 C 0.74242 0.72737 0.78513 0.0
O151 O 0.7507 0.71885 0.79997 0.0
N152 N 0.73441 0.67363 0.83732 0.0
C153 C 0.74412 0.63953 0.86902 0.0
C154 C 0.7332 0.63477 0.85653 0.0
C155 C 0.72852 0.65205 0.8405 0.0
C156 C 0.74512 0.67823 0.84896 0.0
C157 C 0.75001 0.66169 0.86508 0.0
H158 H 0.72058 0.64758 0.82987 0.0
H159 H 0.75006 0.69476 0.84516 0.0
H160 H 0.72351 0.68008 0.76191 0.0
H161 H 0.75418 0.63431 0.76455 0.0
H162 H 0.72386 0.74519 0.88947 0.0
H163 H 0.72846 0.6177 0.85875 0.0
H164 H 0.75866 0.66588 0.8736 0.0
C165 C 0.04796 0.10826 0.79259 0.0
C166 C 0.04727 0.12014 0.77099 0.0
N167 N 0.05697 0.11364 0.75755 0.0
N168 N 0.05812 0.09448 0.79295 0.0
C169 C 0.06343 0.09817 0.77138 0.0
H170 H 0.0412 0.10892 0.8067 0.0
Co171 Co 0.06239 0.0718 0.81622 0.0
C172 C 0.08854 0.08322 0.82726 0.0
O173 O 0.08644 0.07942 0.85008 0.0
N174 N 0.06651 0.04781 0.83996 0.0
C175 C 0.0694 0.02811 0.8745 0.0
C176 C 0.0671 0.05014 0.86412 0.0
C177 C 0.06848 0.0238 0.83638 0.0
N178 N 0.0702 0.01145 0.85705 0.0
O179 O 0.06348 0.04793 0.7913 0.0
H180 H 0.06601 0.06678 0.87402 0.0
H181 H 0.06859 0.01527 0.81897 0.0
O182 O 0.0798 0.08097 0.81213 0.0
C183 C 0.05257 0.04007 0.78863 0.0
O184 O 0.04413 0.04822 0.80332 0.0
N185 N 0.05944 0.09515 0.83992 0.0
C186 C 0.04855 0.13 0.86921 0.0
C187 C 0.0598 0.13469 0.85785 0.0
C188 C 0.06503 0.11707 0.84287 0.0
C189 C 0.04861 0.09035 0.85103 0.0
C190 C 0.04312 0.10728 0.86597 0.0
H191 H 0.0731 0.12162 0.83266 0.0
H192 H 0.044 0.07338 0.8476 0.0
H193 H 0.07148 0.08852 0.76544 0.0
H194 H 0.04 0.13216 0.76544 0.0
H195 H 0.07003 0.02456 0.89354 0.0
H196 H 0.06416 0.1522 0.85951 0.0
H197 H 0.03451 0.10277 0.87447 0.0
C198 C 0.74807 0.1055 0.97066 0.0
C199 C 0.7481 0.11671 0.99265 0.0
N200 N 0.73784 0.11035 1.00448 0.0
N201 N 0.73776 0.0923 0.96845 0.0
C202 C 0.73173 0.09557 0.98932 0.0
H203 H 0.75538 0.10606 0.95764 0.0
Co204 Co 0.73396 0.07071 0.94402 0.0
C205 C 0.70754 0.07972 0.93273 0.0
O206 O 0.7094 0.07375 0.91029 0.0
N207 N 0.73034 0.0478 0.91904 0.0
C208 C 0.72855 0.0292 0.88363 0.0
C209 C 0.73091 0.05076 0.89493 0.0
C210 C 0.72753 0.02398 0.92163 0.0
N211 N 0.7265 0.01228 0.90044 0.0
O212 O 0.73274 0.0457 0.96783 0.0
H213 H 0.73281 0.0675 0.88569 0.0
H214 H 0.72629 0.01515 0.93873 0.0
O215 O 0.71645 0.07925 0.94761 0.0
C216 C 0.74336 0.03626 0.96929 0.0
O217 O 0.75182 0.04374 0.95427 0.0
N218 N 0.73696 0.09524 0.92159 0.0
C219 C 0.74724 0.13144 0.89302 0.0
C220 C 0.73553 0.13439 0.90307 0.0
C221 C 0.7306 0.11613 0.91771 0.0
C222 C 0.74828 0.09217 0.91188 0.0
C223 C 0.75351 0.10981 0.89737 0.0
H224 H 0.72201 0.11933 0.92668 0.0
H225 H 0.75339 0.07592 0.91589 0.0
H226 H 0.72323 0.08652 0.99359 0.0
H227 H 0.75547 0.12758 0.99985 0.0
H228 H 0.72873 0.02613 0.86448 0.0
H229 H 0.73049 0.15104 0.9005 0.0
H230 H 0.76249 0.10661 0.88985 0.0
C231 C 0.04857 0.66074 0.971 0.0
C232 C 0.04776 0.65 0.99317 0.0
N233 N 0.05734 0.6574 0.00649 0.0
N234 N 0.05868 0.67472 0.97022 0.0
C235 C 0.06386 0.67221 0.99207 0.0
H236 H 0.04185 0.6594 0.95687 0.0
Co237 Co 0.06276 0.69702 0.9464 0.0
C238 C 0.08893 0.68619 0.93523 0.0
O239 O 0.08674 0.68981 0.91242 0.0
N240 N 0.06666 0.72061 0.92213 0.0
C241 C 0.06924 0.73971 0.88715 0.0
C242 C 0.06708 0.71784 0.89799 0.0
C243 C 0.06858 0.74472 0.92521 0.0
N244 N 0.07012 0.7567 0.90427 0.0
O245 O 0.06381 0.72142 0.9708 0.0
H246 H 0.06598 0.701 0.88843 0.0
H247 H 0.06877 0.75356 0.94245 0.0
O248 O 0.08022 0.68834 0.95045 0.0
C249 C 0.05286 0.7289 0.9736 0.0
O250 O 0.04441 0.72028 0.95917 0.0
N251 N 0.05987 0.6731 0.92323 0.0
C252 C 0.04925 0.63749 0.89443 0.0
C253 C 0.06058 0.63342 0.90568 0.0
C254 C 0.06567 0.6514 0.92043 0.0
C255 C 0.04895 0.67729 0.91226 0.0
C256 C 0.04358 0.65997 0.89758 0.0
H257 H 0.07383 0.64732 0.93054 0.0
H258 H 0.04418 0.6941 0.91556 0.0
H259 H 0.07176 0.68248 0.99784 0.0
H260 H 0.04042 0.63839 0.99928 0.0
H261 H 0.06973 0.7429 0.86804 0.0
H262 H 0.06512 0.6161 0.90408 0.0
H263 H 0.03489 0.664 0.88916 0.0
C264 C 0.29677 0.8573 0.71769 0.0
C265 C 0.29518 0.86947 0.73901 0.0
N266 N 0.30479 0.86459 0.75335 0.0
N267 N 0.30736 0.8449 0.71857 0.0
C268 C 0.31204 0.84973 0.74043 0.0
H269 H 0.29041 0.85685 0.70286 0.0
Co270 Co 0.31329 0.82256 0.69647 0.0
C271 C 0.33963 0.82328 0.70733 0.0
O272 O 0.33926 0.79969 0.71012 0.0
N273 N 0.31927 0.79983 0.67429 0.0
C274 C 0.32973 0.78228 0.6449 0.0
C275 C 0.32776 0.80355 0.65714 0.0
C276 C 0.31613 0.77627 0.67193 0.0
N277 N 0.32242 0.76505 0.65427 0.0
O278 O 0.31435 0.79909 0.72186 0.0
H279 H 0.33234 0.8206 0.65391 0.0
H280 H 0.30926 0.76752 0.68282 0.0
O281 O 0.32985 0.83468 0.70199 0.0
C282 C 0.30349 0.79085 0.72405 0.0
O283 O 0.29513 0.79872 0.70901 0.0
N284 N 0.31065 0.84469 0.67175 0.0
C285 C 0.30021 0.87744 0.63973 0.0
C286 C 0.3104 0.88411 0.65365 0.0
C287 C 0.31546 0.86741 0.66983 0.0
C288 C 0.30119 0.83762 0.65752 0.0
C289 C 0.29587 0.85364 0.64136 0.0
H290 H 0.32269 0.87319 0.68174 0.0
H291 H 0.2973 0.81976 0.65972 0.0
H292 H 0.32028 0.84135 0.74723 0.0
H293 H 0.28742 0.88062 0.74372 0.0
H294 H 0.33626 0.77967 0.63056 0.0
H295 H 0.31397 0.90238 0.65301 0.0
H296 H 0.28815 0.84763 0.63075 0.0
C297 C 0.99806 0.4102 0.71914 0.0
C298 C 0.99937 0.39882 0.74091 0.0
N299 N 0.99001 0.40549 0.75516 0.0
N300 N 0.98785 0.42385 0.71955 0.0
C301 C 0.98312 0.42051 0.74168 0.0
H302 H 1.00447 0.4095 0.7044 0.0
Co303 Co 0.98311 0.44673 0.69684 0.0
C304 C 0.95694 0.43376 0.68758 0.0
O305 O 0.95889 0.43525 0.66447 0.0
N306 N 0.97848 0.47097 0.67371 0.0
C307 C 0.9738 0.49069 0.63988 0.0
C308 C 0.97619 0.46852 0.64993 0.0
C309 C 0.97763 0.49524 0.6773 0.0
N310 N 0.97478 0.50748 0.65711 0.0
O311 O 0.98249 0.47032 0.72209 0.0
H312 H 0.97633 0.45173 0.64004 0.0
H313 H 0.97914 0.5041 0.69429 0.0
O314 O 0.96575 0.43756 0.70224 0.0
C315 C 0.99347 0.47786 0.72451 0.0
O316 O 1.00174 0.46978 0.7094 0.0
N317 N 0.98558 0.42365 0.67265 0.0
C318 C 0.99551 0.38978 0.64099 0.0
C319 C 0.98526 0.38393 0.65512 0.0
C320 C 0.98047 0.40114 0.67108 0.0
C321 C 0.99565 0.42934 0.6594 0.0
C322 C 1.0006 0.41293 0.64321 0.0
H323 H 0.97314 0.39594 0.683 0.0
H324 H 1.0001 0.44663 0.66201 0.0
H325 H 0.97527 0.43036 0.74833 0.0
H326 H 1.00689 0.38725 0.74611 0.0
H327 H 0.97192 0.49429 0.62116 0.0
H328 H 0.98119 0.36609 0.65427 0.0
H329 H 1.00874 0.418 0.63334 0.0
C330 C 0.29902 0.40999 0.5447 0.0
C331 C 0.29832 0.39757 0.52338 0.0
N332 N 0.30776 0.40446 0.50942 0.0
N333 N 0.30892 0.42453 0.5443 0.0
C334 C 0.31408 0.42071 0.52262 0.0
H335 H 0.29243 0.40921 0.55912 0.0
Co336 Co 0.31304 0.44835 0.56656 0.0
C337 C 0.3395 0.43883 0.57653 0.0
O338 O 0.33773 0.44327 0.59934 0.0
N339 N 0.31703 0.47353 0.58919 0.0
C340 C 0.32024 0.49478 0.62272 0.0
C341 C 0.31829 0.47215 0.61333 0.0
C342 C 0.31822 0.49759 0.58464 0.0
N343 N 0.32013 0.51085 0.60466 0.0
O344 O 0.3134 0.47138 0.54084 0.0
H345 H 0.3179 0.45577 0.62385 0.0
H346 H 0.31766 0.50552 0.56698 0.0
O347 O 0.33052 0.44023 0.56189 0.0
C348 C 0.30229 0.47794 0.53822 0.0
O349 O 0.29412 0.46897 0.55306 0.0
N350 N 0.31083 0.42568 0.59122 0.0
C351 C 0.30148 0.39185 0.62364 0.0
C352 C 0.31223 0.38697 0.61066 0.0
C353 C 0.31674 0.40414 0.5943 0.0
C354 C 0.30027 0.43036 0.6033 0.0
C355 C 0.29557 0.41398 0.61983 0.0
H356 H 0.32455 0.39959 0.58335 0.0
H357 H 0.29528 0.44682 0.59956 0.0
H358 H 0.32187 0.43085 0.51609 0.0
H359 H 0.29119 0.38497 0.51833 0.0
H360 H 0.3213 0.49909 0.64153 0.0
H361 H 0.31695 0.36989 0.61276 0.0
H362 H 0.28705 0.41822 0.62879 0.0
C363 C 0.99834 0.85678 0.54272 0.0
C364 C 0.99966 0.86768 0.52072 0.0
N365 N 0.99007 0.86137 0.50691 0.0
N366 N 0.9879 0.8438 0.5429 0.0
C367 C 0.98303 0.84703 0.52087 0.0
H368 H 1.0049 0.85732 0.55722 0.0
Co369 Co 0.98302 0.82172 0.56625 0.0
C370 C 0.95706 0.83574 0.57594 0.0
O371 O 0.95917 0.83442 0.59901 0.0
N372 N 0.97826 0.79824 0.5901 0.0
C373 C 0.97401 0.7794 0.62466 0.0
C374 C 0.97643 0.80127 0.61397 0.0
C375 C 0.97705 0.77395 0.58709 0.0
N376 N 0.9745 0.76222 0.60773 0.0
O377 O 0.98195 0.79763 0.54155 0.0
H378 H 0.97695 0.81826 0.62348 0.0
H379 H 0.97813 0.76466 0.57021 0.0
O380 O 0.96573 0.83148 0.56109 0.0
C381 C 0.99268 0.78872 0.53984 0.0
O382 O 1.00103 0.79602 0.55519 0.0
N383 N 0.98594 0.84526 0.5898 0.0
C384 C 0.99698 0.87996 0.61912 0.0
C385 C 0.9863 0.88548 0.60619 0.0
C386 C 0.98101 0.86792 0.59122 0.0
C387 C 0.99622 0.83966 0.60244 0.0
C388 C 1.00176 0.85652 0.61742 0.0
H389 H 0.97347 0.87299 0.57977 0.0
H390 H 1.00042 0.8221 0.60014 0.0
H391 H 0.97496 0.83759 0.51465 0.0
H392 H 1.00733 0.87868 0.51508 0.0
H393 H 0.97252 0.77624 0.64359 0.0
H394 H 0.98248 0.90354 0.60661 0.0
H395 H 1.00993 0.8514 0.62712 0.0
C396 C 0.74865 0.16161 0.28927 0.0
C397 C 0.74916 0.14966 0.2677 0.0
N398 N 0.73962 0.15684 0.25419 0.0
N399 N 0.73875 0.17611 0.28952 0.0
C400 C 0.73342 0.17279 0.26793 0.0
H401 H 0.75534 0.16044 0.30347 0.0
Co402 Co 0.73481 0.19892 0.31285 0.0
C403 C 0.70835 0.18954 0.32329 0.0
O404 O 0.71029 0.19399 0.34604 0.0
N405 N 0.73106 0.22298 0.33672 0.0
C406 C 0.72856 0.24245 0.3715 0.0
C407 C 0.73034 0.22039 0.36086 0.0
C408 C 0.72964 0.24719 0.33343 0.0
N409 N 0.7282 0.2594 0.35426 0.0
O410 O 0.73429 0.22319 0.2881 0.0
H411 H 0.73087 0.20352 0.37055 0.0
H412 H 0.73003 0.25602 0.31618 0.0
O413 O 0.71725 0.1909 0.30841 0.0
C414 C 0.7454 0.22979 0.28522 0.0
O415 O 0.7537 0.22017 0.29935 0.0
N416 N 0.73717 0.17517 0.33642 0.0
C417 C 0.7463 0.14045 0.36806 0.0
C418 C 0.73539 0.13626 0.35533 0.0
C419 C 0.73099 0.15387 0.33937 0.0
C420 C 0.74794 0.17907 0.34806 0.0
C421 C 0.75254 0.16224 0.36422 0.0
H422 H 0.72299 0.14992 0.32872 0.0
H423 H 0.7531 0.19538 0.34444 0.0
H424 H 0.72555 0.18298 0.26193 0.0
H425 H 0.75621 0.13709 0.26223 0.0
H426 H 0.72758 0.24568 0.39053 0.0
H427 H 0.73043 0.11943 0.35745 0.0
H428 H 0.76118 0.16593 0.373 0.0
C429 C 0.04935 0.61076 0.29374 0.0
C430 C 0.0484 0.62248 0.2721 0.0
N431 N 0.05783 0.61558 0.25813 0.0
N432 N 0.0594 0.59667 0.29359 0.0
C433 C 0.0644 0.60004 0.27169 0.0
H434 H 0.04281 0.61168 0.30824 0.0
Co435 Co 0.06372 0.5738 0.31668 0.0
C436 C 0.09006 0.58491 0.3266 0.0
O437 O 0.08825 0.58162 0.34958 0.0
N438 N 0.06787 0.54966 0.34025 0.0
C439 C 0.07094 0.53019 0.37485 0.0
C440 C 0.06919 0.55229 0.36427 0.0
C441 C 0.06887 0.52537 0.33696 0.0
N442 N 0.07066 0.51315 0.3577 0.0
O443 O 0.06454 0.54999 0.29171 0.0
H444 H 0.06895 0.56921 0.37394 0.0
H445 H 0.06788 0.51649 0.31984 0.0
O446 O 0.08113 0.58254 0.31194 0.0
C447 C 0.05356 0.54299 0.28827 0.0
O448 O 0.04502 0.55162 0.30248 0.0
N449 N 0.06117 0.59717 0.34052 0.0
C450 C 0.05153 0.63145 0.37205 0.0
C451 C 0.0622 0.63645 0.35886 0.0
C452 C 0.06686 0.61904 0.34296 0.0
C453 C 0.05065 0.59237 0.35276 0.0
C454 C 0.04582 0.60899 0.36887 0.0
H455 H 0.07462 0.62361 0.33187 0.0
H456 H 0.04583 0.57559 0.34951 0.0
H457 H 0.07226 0.59005 0.26529 0.0
H458 H 0.04111 0.63459 0.26684 0.0
H459 H 0.07228 0.52697 0.3938 0.0
H460 H 0.06676 0.65378 0.36048 0.0
H461 H 0.03736 0.60463 0.37803 0.0
C462 C 0.74852 0.60646 0.46939 0.0
C463 C 0.74932 0.61702 0.49164 0.0
N464 N 0.73938 0.61061 0.50445 0.0
N465 N 0.73806 0.59362 0.46804 0.0
C466 C 0.73267 0.59654 0.48964 0.0
H467 H 0.7554 0.60722 0.4555 0.0
Co468 Co 0.73366 0.57234 0.44371 0.0
C469 C 0.70822 0.58689 0.43165 0.0
O470 O 0.71121 0.58583 0.40892 0.0
N471 N 0.72934 0.5496 0.4188 0.0
C472 C 0.72653 0.53121 0.3835 0.0
C473 C 0.72897 0.55278 0.3947 0.0
C474 C 0.72697 0.52561 0.42147 0.0
N475 N 0.72536 0.51401 0.40036 0.0
O476 O 0.73215 0.54746 0.46756 0.0
H477 H 0.73037 0.56966 0.38536 0.0
H478 H 0.7265 0.51651 0.43856 0.0
O479 O 0.71627 0.58193 0.4476 0.0
C480 C 0.74275 0.53791 0.46903 0.0
O481 O 0.75122 0.54527 0.45396 0.0
N482 N 0.73703 0.59673 0.42118 0.0
C483 C 0.74744 0.63177 0.39141 0.0
C484 C 0.73693 0.63702 0.40496 0.0
C485 C 0.73193 0.61926 0.42005 0.0
C486 C 0.74754 0.59184 0.40899 0.0
C487 C 0.75273 0.60883 0.39366 0.0
H488 H 0.72433 0.62397 0.43149 0.0
H489 H 0.75201 0.57456 0.41145 0.0
H490 H 0.7244 0.58716 0.49492 0.0
H491 H 0.75686 0.62792 0.49812 0.0
H492 H 0.72611 0.52834 0.36434 0.0
H493 H 0.73274 0.65474 0.40416 0.0
H494 H 0.76109 0.60428 0.38426 0.0
C495 C 0.04911 0.16462 0.47325 0.0
C496 C 0.04893 0.1535 0.49529 0.0
N497 N 0.05909 0.15999 0.50738 0.0
N498 N 0.05941 0.17787 0.47126 0.0
C499 C 0.06529 0.17473 0.49232 0.0
H500 H 0.0419 0.16396 0.46002 0.0
Co501 Co 0.06337 0.19951 0.4469 0.0
C502 C 0.0896 0.18908 0.43532 0.0
O503 O 0.0876 0.19412 0.4127 0.0
N504 N 0.06718 0.22249 0.42201 0.0
C505 C 0.0691 0.24112 0.38663 0.0
C506 C 0.0668 0.21952 0.39789 0.0
C507 C 0.06984 0.24637 0.42464 0.0
N508 N 0.07094 0.25812 0.40346 0.0
O509 O 0.06482 0.22429 0.47083 0.0
H510 H 0.06504 0.20274 0.38862 0.0
H511 H 0.07088 0.25524 0.44176 0.0
O512 O 0.0808 0.19045 0.45042 0.0
C513 C 0.0542 0.23372 0.47256 0.0
O514 O 0.0457 0.22644 0.45756 0.0
N515 N 0.06014 0.17523 0.42434 0.0
C516 C 0.04935 0.13959 0.3958 0.0
C517 C 0.06095 0.13588 0.4061 0.0
C518 C 0.06613 0.15387 0.42073 0.0
C519 C 0.04893 0.17903 0.41439 0.0
C520 C 0.04346 0.16169 0.39986 0.0
H521 H 0.07459 0.15011 0.42996 0.0
H522 H 0.04407 0.19562 0.41823 0.0
H523 H 0.07375 0.18385 0.49679 0.0
H524 H 0.04152 0.14262 0.50234 0.0
H525 H 0.06902 0.24416 0.36747 0.0
H526 H 0.06569 0.11886 0.40378 0.0
H527 H 0.03458 0.16548 0.39216 0.0
C528 C 0.79799 0.36109 0.71504 0.0
C529 C 0.79673 0.37287 0.73659 0.0
N530 N 0.80544 0.36477 0.75173 0.0
N531 N 0.80757 0.34582 0.71633 0.0
C532 C 0.81192 0.34851 0.73883 0.0
H533 H 0.79202 0.36294 0.69972 0.0
Co534 Co 0.81233 0.32267 0.69382 0.0
C535 C 0.83874 0.3345 0.68543 0.0
O536 O 0.83712 0.33216 0.66229 0.0
N537 N 0.81699 0.29821 0.67094 0.0
C538 C 0.8218 0.27826 0.63733 0.0
C539 C 0.81928 0.30047 0.64714 0.0
C540 C 0.81796 0.274 0.67479 0.0
N541 N 0.82089 0.26162 0.65474 0.0
O542 O 0.81266 0.29917 0.71916 0.0
H543 H 0.81918 0.3172 0.63712 0.0
H544 H 0.81654 0.26529 0.69189 0.0
O545 O 0.82968 0.3315 0.6997 0.0
C546 C 0.80169 0.29163 0.72152 0.0
O547 O 0.79344 0.29973 0.70639 0.0
N548 N 0.81021 0.34568 0.66942 0.0
C549 C 0.80089 0.37963 0.63712 0.0
C550 C 0.8112 0.38507 0.65124 0.0
C551 C 0.81569 0.36783 0.66751 0.0
C552 C 0.80009 0.34039 0.65617 0.0
C553 C 0.79543 0.35685 0.63968 0.0
H554 H 0.82309 0.37277 0.67937 0.0
H555 H 0.79539 0.3234 0.65898 0.0
H556 H 0.81927 0.33759 0.74596 0.0
H557 H 0.7897 0.38592 0.74084 0.0
H558 H 0.82379 0.27452 0.61869 0.0
H559 H 0.81556 0.40263 0.65011 0.0
H560 H 0.78724 0.35211 0.62981 0.0
C561 C 0.49834 0.9153 0.72272 0.0
C562 C 0.49856 0.90457 0.74495 0.0
N563 N 0.4882 0.91052 0.75665 0.0
N564 N 0.48783 0.92775 0.72024 0.0
C565 C 0.48185 0.92454 0.74119 0.0
H566 H 0.50564 0.91496 0.70966 0.0
Co567 Co 0.48376 0.94869 0.69541 0.0
C568 C 0.45857 0.933 0.68181 0.0
O569 O 0.4618 0.93393 0.6592 0.0
N570 N 0.47978 0.971 0.66998 0.0
C571 C 0.47752 0.9885 0.63411 0.0
C572 C 0.47976 0.96723 0.64596 0.0
C573 C 0.47739 0.99506 0.67194 0.0
N574 N 0.47613 1.00613 0.65045 0.0
O575 O 0.48152 0.97361 0.71896 0.0
H576 H 0.48127 0.95009 0.63716 0.0
H577 H 0.477 1.00467 0.68875 0.0
O578 O 0.4664 0.93843 0.69805 0.0
C579 C 0.492 0.98356 0.72123 0.0
O580 O 0.50078 0.97678 0.70663 0.0
N581 N 0.48788 0.92435 0.67336 0.0
C582 C 0.49965 0.88968 0.64521 0.0
C583 C 0.48853 0.88428 0.6567 0.0
C584 C 0.48291 0.90176 0.67122 0.0
C585 C 0.49877 0.92963 0.66264 0.0
C586 C 0.5047 0.91276 0.64828 0.0
H587 H 0.47493 0.89676 0.68149 0.0
H588 H 0.50297 0.94709 0.66564 0.0
H589 H 0.47321 0.93312 0.7453 0.0
H590 H 0.50609 0.89436 0.75238 0.0
H591 H 0.47703 0.99074 0.61487 0.0
H592 H 0.48451 0.86642 0.65528 0.0
H593 H 0.51325 0.91773 0.63979 0.0
C594 C 0.79704 0.91278 0.53981 0.0
C595 C 0.79592 0.90187 0.51777 0.0
N596 N 0.80564 0.90819 0.50427 0.0
N597 N 0.80747 0.92577 0.54033 0.0
C598 C 0.81253 0.92255 0.51846 0.0
H599 H 0.79036 0.91221 0.55409 0.0
Co600 Co 0.81218 0.94782 0.56383 0.0
C601 C 0.83814 0.93427 0.57414 0.0
O602 O 0.83598 0.93623 0.59715 0.0
N603 N 0.81677 0.97128 0.58782 0.0
C604 C 0.82073 0.99013 0.62249 0.0
C605 C 0.81819 0.96831 0.61181 0.0
C606 C 0.81835 0.99548 0.58473 0.0
N607 N 0.82073 1.00721 0.60543 0.0
O608 O 0.81342 0.97194 0.5392 0.0
H609 H 0.81742 0.95138 0.62137 0.0
H610 H 0.81771 1.00468 0.5677 0.0
O611 O 0.82949 0.93805 0.55912 0.0
C612 C 0.80275 0.98111 0.53736 0.0
O613 O 0.7943 0.97397 0.55256 0.0
N614 N 0.8091 0.92424 0.58729 0.0
C615 C 0.79806 0.88964 0.61677 0.0
C616 C 0.8089 0.88425 0.60426 0.0
C617 C 0.81419 0.90176 0.58921 0.0
C618 C 0.79865 0.92969 0.59944 0.0
C619 C 0.79311 0.91288 0.6145 0.0
H620 H 0.82189 0.89678 0.57814 0.0
H621 H 0.79436 0.94711 0.59678 0.0
H622 H 0.82067 0.93198 0.51251 0.0
H623 H 0.78831 0.89084 0.51188 0.0
H624 H 0.82204 0.99332 0.64147 0.0
H625 H 0.81286 0.86633 0.60511 0.0
H626 H 0.78482 0.91793 0.62387 0.0
C627 C 0.4978 0.35703 0.54141 0.0
C628 C 0.49876 0.36871 0.51975 0.0
N629 N 0.48923 0.36206 0.50592 0.0
N630 N 0.48763 0.34326 0.54143 0.0
C631 C 0.48258 0.34672 0.51959 0.0
H632 H 0.50438 0.35785 0.55584 0.0
Co633 Co 0.48303 0.32092 0.56474 0.0
C634 C 0.45678 0.33194 0.57458 0.0
O635 O 0.45866 0.32781 0.59741 0.0
N636 N 0.47857 0.2972 0.58859 0.0
C637 C 0.4755 0.27766 0.62318 0.0
C638 C 0.47808 0.29955 0.61277 0.0
C639 C 0.47618 0.27333 0.58505 0.0
N640 N 0.47438 0.26106 0.60574 0.0
O641 O 0.48226 0.29674 0.54005 0.0
H642 H 0.47936 0.31613 0.62268 0.0
H643 H 0.47582 0.26483 0.56765 0.0
O644 O 0.46567 0.33 0.55974 0.0
C645 C 0.49294 0.28747 0.53906 0.0
O646 O 0.50111 0.29474 0.55477 0.0
N647 N 0.48563 0.34462 0.58828 0.0
C648 C 0.49522 0.37906 0.61975 0.0
C649 C 0.48442 0.38377 0.60686 0.0
C650 C 0.4798 0.3663 0.59096 0.0
C651 C 0.4963 0.34019 0.60011 0.0
C652 C 0.50112 0.35688 0.61618 0.0
H653 H 0.47193 0.37067 0.58013 0.0
H654 H 0.5012 0.32357 0.59667 0.0
H655 H 0.47459 0.33701 0.51337 0.0
H656 H 0.50611 0.3807 0.51444 0.0
H657 H 0.4749 0.27414 0.64223 0.0
H658 H 0.47972 0.40089 0.60876 0.0
H659 H 0.50967 0.35276 0.62506 0.0
C660 C 0.24889 0.66105 0.29291 0.0
C661 C 0.24973 0.64863 0.27164 0.0
N662 N 0.24014 0.65487 0.25777 0.0
N663 N 0.23877 0.67492 0.2926 0.0
C664 C 0.23361 0.67073 0.271 0.0
H665 H 0.25552 0.66071 0.30727 0.0
Co666 Co 0.23435 0.6982 0.31511 0.0
C667 C 0.20799 0.68701 0.32482 0.0
O668 O 0.20983 0.68997 0.34783 0.0
N669 N 0.23007 0.72273 0.33809 0.0
C670 C 0.22585 0.74278 0.37194 0.0
C671 C 0.22827 0.72056 0.36207 0.0
C672 C 0.22892 0.74689 0.33419 0.0
N673 N 0.22634 0.75932 0.35439 0.0
O674 O 0.2338 0.72156 0.28965 0.0
H675 H 0.22861 0.70388 0.37214 0.0
H676 H 0.22998 0.75552 0.31694 0.0
O677 O 0.21692 0.68951 0.31016 0.0
C678 C 0.24483 0.72873 0.28703 0.0
O679 O 0.25307 0.72048 0.3021 0.0
N680 N 0.23673 0.6753 0.3394 0.0
C681 C 0.24695 0.64087 0.36999 0.0
C682 C 0.23602 0.63594 0.35764 0.0
C683 C 0.23114 0.65334 0.342 0.0
C684 C 0.24725 0.68036 0.3515 0.0
C685 C 0.2524 0.66361 0.36708 0.0
H686 H 0.22336 0.64861 0.33101 0.0
H687 H 0.25191 0.69733 0.34832 0.0
H688 H 0.22564 0.68032 0.26454 0.0
H689 H 0.25703 0.63647 0.26655 0.0
H690 H 0.22421 0.7466 0.3907 0.0
H691 H 0.23167 0.61838 0.35905 0.0
H692 H 0.26079 0.66826 0.37633 0.0
C693 C 0.55 0.11003 0.29393 0.0
C694 C 0.54921 0.12221 0.27248 0.0
N695 N 0.55866 0.11537 0.25853 0.0
N696 N 0.55996 0.0957 0.29362 0.0
C697 C 0.56508 0.09942 0.27188 0.0
H698 H 0.54342 0.11076 0.30836 0.0
Co699 Co 0.56413 0.07199 0.31593 0.0
C700 C 0.59048 0.08258 0.32625 0.0
O701 O 0.58854 0.07882 0.34913 0.0
N702 N 0.56816 0.04689 0.33862 0.0
C703 C 0.57148 0.02576 0.37221 0.0
C704 C 0.56963 0.04838 0.36271 0.0
C705 C 0.56909 0.02276 0.33422 0.0
N706 N 0.57105 1.00959 0.35427 0.0
O707 O 0.56465 0.04899 0.29019 0.0
H708 H 0.56938 0.06482 0.37315 0.0
H709 H 0.56826 0.0147 0.31667 0.0
O710 O 0.58162 0.08046 0.31139 0.0
C711 C 0.55359 0.04216 0.28733 0.0
O712 O 0.54532 0.05062 0.30223 0.0
N713 N 0.56179 0.09465 0.34057 0.0
C714 C 0.55225 0.12853 0.3727 0.0
C715 C 0.56288 0.13369 0.35944 0.0
C716 C 0.56749 0.1165 0.34325 0.0
C717 C 0.55134 0.08967 0.35294 0.0
C718 C 0.54655 0.10608 0.36934 0.0
H719 H 0.57517 0.12128 0.33204 0.0
H720 H 0.54648 0.07296 0.34949 0.0
H721 H 0.57288 0.08932 0.26538 0.0
H722 H 0.54201 0.13456 0.26732 0.0
H723 H 0.57263 0.0215 0.39101 0.0
H724 H 0.56744 0.15101 0.36119 0.0
H725 H 0.53812 0.10159 0.37852 0.0
C726 C 0.2476 0.10952 0.47178 0.0
C727 C 0.24777 0.12105 0.4936 0.0
N728 N 0.23786 0.11401 0.50622 0.0
N729 N 0.23757 0.09541 0.47047 0.0
C730 C 0.23182 0.09852 0.49167 0.0
H731 H 0.25465 0.1105 0.45822 0.0
Co732 Co 0.23381 0.07299 0.44667 0.0
C733 C 0.2075 0.08334 0.43547 0.0
O734 O 0.20965 0.08029 0.41257 0.0
N735 N 0.23019 0.04934 0.42238 0.0
C736 C 0.22696 0.03045 0.38747 0.0
C737 C 0.22912 0.05233 0.39832 0.0
C738 C 0.22887 0.02507 0.42536 0.0
N739 N 0.22689 0.01333 0.4045 0.0
O740 O 0.233 0.04841 0.47107 0.0
H741 H 0.22971 0.06936 0.38889 0.0
H742 H 0.22934 0.01588 0.44242 0.0
O743 O 0.21624 0.08103 0.45059 0.0
C744 C 0.24409 0.04166 0.47381 0.0
O745 O 0.25242 0.05146 0.45984 0.0
N746 N 0.23652 0.09696 0.42356 0.0
C747 C 0.24707 0.13267 0.39484 0.0
C748 C 0.23574 0.13666 0.40608 0.0
C749 C 0.23068 0.11862 0.42082 0.0
C750 C 0.24743 0.09282 0.4125 0.0
C751 C 0.25277 0.11022 0.39789 0.0
H752 H 0.22252 0.12259 0.43098 0.0
H753 H 0.25222 0.07602 0.41574 0.0
H754 H 0.2236 0.08882 0.49659 0.0
H755 H 0.25503 0.13261 0.50015 0.0
H756 H 0.22585 0.02727 0.36844 0.0
H757 H 0.23117 0.15397 0.4045 0.0
H758 H 0.26147 0.10631 0.38947 0.0
C759 C 0.54808 0.66207 0.46908 0.0
C760 C 0.54691 0.65051 0.49086 0.0
N761 N 0.55651 0.65671 0.50476 0.0
N762 N 0.55842 0.67533 0.4692 0.0
C763 C 0.56336 0.67163 0.49105 0.0
H764 H 0.54155 0.66168 0.45453 0.0
Co765 Co 0.56382 0.69766 0.44653 0.0
C766 C 0.59033 0.69821 0.456 0.0
O767 O 0.58997 0.72191 0.45764 0.0
N768 N 0.5693 0.72039 0.42383 0.0
C769 C 0.57915 0.73807 0.39367 0.0
C770 C 0.57742 0.71675 0.406 0.0
C771 C 0.56614 0.74396 0.42182 0.0
N772 N 0.57206 0.75525 0.40371 0.0
O773 O 0.56493 0.72152 0.47156 0.0
H774 H 0.58194 0.69973 0.4024 0.0
H775 H 0.55956 0.7527 0.43334 0.0
O776 O 0.58053 0.68645 0.45163 0.0
C777 C 0.55404 0.72915 0.47467 0.0
O778 O 0.54545 0.7207 0.46043 0.0
N779 N 0.56122 0.67503 0.42218 0.0
C780 C 0.55189 0.64197 0.38897 0.0
C781 C 0.56201 0.63597 0.40343 0.0
C782 C 0.56653 0.6528 0.42007 0.0
C783 C 0.55162 0.68133 0.40799 0.0
C784 C 0.54686 0.66519 0.39126 0.0
H785 H 0.57389 0.64758 0.43191 0.0
H786 H 0.54728 0.69873 0.41047 0.0
H787 H 0.57165 0.68048 0.49701 0.0
H788 H 0.53923 0.63948 0.4964 0.0
H789 H 0.58538 0.74078 0.37885 0.0
H790 H 0.56622 0.61829 0.40226 0.0
H791 H 0.53889 0.67056 0.38105 0.0
C792 C 0.79937 0.85918 0.2166 0.0
C793 C 0.79814 0.87092 0.23818 0.0
N794 N 0.80745 0.86419 0.25255 0.0
N795 N 0.80948 0.84527 0.21719 0.0
C796 C 0.81424 0.84877 0.23928 0.0
H797 H 0.79298 0.85993 0.20185 0.0
Co798 Co 0.81413 0.82229 0.19449 0.0
C799 C 0.84043 0.83397 0.18495 0.0
O800 O 0.83871 0.83046 0.16197 0.0
N801 N 0.81859 0.79789 0.17132 0.0
C802 C 0.82183 0.7779 0.13706 0.0
C803 C 0.82002 0.80016 0.14729 0.0
C804 C 0.81964 0.77364 0.17497 0.0
N805 N 0.82148 0.76109 0.15446 0.0
O806 O 0.81495 0.7989 0.2198 0.0
H807 H 0.81974 0.81693 0.13736 0.0
H808 H 0.81861 0.765 0.1922 0.0
O809 O 0.83146 0.83154 0.19951 0.0
C810 C 0.80414 0.79044 0.22201 0.0
O811 O 0.79575 0.79775 0.20677 0.0
N812 N 0.81156 0.84529 0.17023 0.0
C813 C 0.80187 0.87897 0.13806 0.0
C814 C 0.81243 0.88439 0.15144 0.0
C815 C 0.81711 0.86729 0.16766 0.0
C816 C 0.80117 0.84006 0.15779 0.0
C817 C 0.79631 0.85638 0.14138 0.0
H818 H 0.82476 0.87221 0.17889 0.0
H819 H 0.79645 0.82318 0.16111 0.0
H820 H 0.82205 0.8389 0.24603 0.0
H821 H 0.79074 0.88289 0.24312 0.0
H822 H 0.82319 0.77442 0.11817 0.0
H823 H 0.81689 0.90181 0.14972 0.0
H824 H 0.78794 0.85167 0.1321 0.0
C825 C 0.49809 0.4109 0.21993 0.0
C826 C 0.49877 0.39927 0.24167 0.0
N827 N 0.48909 0.40599 0.25503 0.0
N828 N 0.48797 0.42479 0.21946 0.0
C829 C 0.48263 0.42129 0.24104 0.0
H830 H 0.5049 0.41023 0.2059 0.0
Co831 Co 0.48399 0.44805 0.1965 0.0
C832 C 0.45812 0.43471 0.18345 0.0
O833 O 0.46058 0.43736 0.16062 0.0
N834 N 0.48019 0.47247 0.17317 0.0
C835 C 0.47667 0.49238 0.13894 0.0
C836 C 0.47866 0.47014 0.14915 0.0
C837 C 0.47941 0.49673 0.17676 0.0
N838 N 0.47722 0.50909 0.15633 0.0
O839 O 0.48189 0.47118 0.22193 0.0
H840 H 0.47908 0.45339 0.13922 0.0
H841 H 0.48052 0.50546 0.19393 0.0
O842 O 0.46656 0.43813 0.19901 0.0
C843 C 0.49242 0.47828 0.22885 0.0
O844 O 0.50217 0.46987 0.21793 0.0
N845 N 0.48768 0.42563 0.17231 0.0
C846 C 0.49848 0.39371 0.13971 0.0
C847 C 0.48763 0.3874 0.15181 0.0
C848 C 0.48243 0.40355 0.16834 0.0
C849 C 0.49833 0.43172 0.16117 0.0
C850 C 0.50379 0.41625 0.14468 0.0
H851 H 0.47453 0.39793 0.17855 0.0
H852 H 0.50277 0.44865 0.1656 0.0
H853 H 0.47467 0.43122 0.24701 0.0
H854 H 0.5061 0.38752 0.24749 0.0
H855 H 0.47539 0.49609 0.12006 0.0
H856 H 0.4833 0.37004 0.14881 0.0
H857 H 0.51236 0.42164 0.13654 0.0
C858 C 0.79766 0.41438 0.04075 0.0
C859 C 0.79584 0.40264 0.01928 0.0
N860 N 0.80496 0.40883 1.00415 0.0
N861 N 0.80793 0.42776 0.03929 0.0
C862 C 0.81217 0.42398 0.01688 0.0
H863 H 0.79167 0.41377 0.05617 0.0
Co864 Co 0.81417 0.44981 0.06137 0.0
C865 C 0.84043 0.44833 0.04995 0.0
O866 O 0.84022 0.47194 0.04719 0.0
N867 N 0.82047 0.47229 0.08353 0.0
C868 C 0.83117 0.48949 0.11287 0.0
C869 C 0.82901 0.46831 0.10055 0.0
C870 C 0.81751 0.4959 0.08605 0.0
N871 N 0.82395 0.5069 0.10365 0.0
O872 O 0.81538 0.47326 0.03599 0.0
H873 H 0.83346 0.45112 0.10366 0.0
H874 H 0.81066 0.5049 0.07538 0.0
O875 O 0.8306 0.43716 0.0555 0.0
C876 C 0.80478 0.4827 0.03417 0.0
O877 O 0.79628 0.4759 0.04945 0.0
N878 N 0.81145 0.42768 0.08614 0.0
C879 C 0.80115 0.39526 0.11879 0.0
C880 C 0.81114 0.38835 0.10444 0.0
C881 C 0.81614 0.40487 0.08798 0.0
C882 C 0.80217 0.43497 0.10069 0.0
C883 C 0.79693 0.41914 0.11718 0.0
H884 H 0.82323 0.39892 0.07585 0.0
H885 H 0.79838 0.45292 0.09859 0.0
H886 H 0.82007 0.43328 0.00971 0.0
H887 H 0.78823 0.39086 0.0151 0.0
H888 H 0.83775 0.49192 0.12715 0.0
H889 H 0.81461 0.37002 0.105 0.0
H890 H 0.78939 0.42539 0.12813 0.0
C891 C 0.49814 0.86067 0.04232 0.0
C892 C 0.49894 0.8727 0.02081 0.0
N893 N 0.48932 0.86622 0.00714 0.0
N894 N 0.48799 0.84683 0.04237 0.0
C895 C 0.48279 0.85061 0.02073 0.0
H896 H 0.5048 0.86129 0.05663 0.0
Co897 Co 0.48359 0.82401 0.06542 0.0
C898 C 0.45741 0.83657 0.07571 0.0
O899 O 0.45949 0.83477 0.09876 0.0
N900 N 0.47934 0.79993 0.08895 0.0
C901 C 0.4753 0.78056 0.1233 0.0
C902 C 0.47735 0.80266 0.11281 0.0
C903 C 0.4787 0.77558 0.08577 0.0
N904 N 0.47624 0.76355 0.10628 0.0
O905 O 0.48268 0.80021 0.04036 0.0
H906 H 0.4775 0.8196 0.12245 0.0
H907 H 0.48012 0.76653 0.06885 0.0
O908 O 0.46614 0.833 0.06081 0.0
C909 C 0.49366 0.79293 0.03732 0.0
O910 O 0.50212 0.80146 0.05177 0.0
N911 N 0.48632 0.84725 0.0893 0.0
C912 C 0.49714 0.882 0.11882 0.0
C913 C 0.48629 0.8872 0.1063 0.0
C914 C 0.4811 0.86961 0.09123 0.0
C915 C 0.49673 0.84192 0.10161 0.0
C916 C 0.50217 0.85881 0.11669 0.0
H917 H 0.47342 0.87449 0.08006 0.0
H918 H 0.50113 0.8246 0.09893 0.0
H919 H 0.47478 0.84094 0.01457 0.0
H920 H 0.50624 0.88481 0.01548 0.0
H921 H 0.47374 0.77716 0.14217 0.0
H922 H 0.48226 0.90507 0.10707 0.0
H923 H 0.51047 0.85393 0.12609 0.0
C924 C 0.24781 0.16507 0.79255 0.0
C925 C 0.24883 0.15389 0.77066 0.0
N926 N 0.23911 0.16017 0.75719 0.0
N927 N 0.23742 0.17816 0.79307 0.0
C928 C 0.2323 0.17477 0.77129 0.0
H929 H 0.25454 0.16451 0.80671 0.0
Co930 Co 0.23278 0.20007 0.8167 0.0
C931 C 0.20657 0.18872 0.82691 0.0
O932 O 0.20843 0.19347 0.84964 0.0
N933 N 0.22832 0.22333 0.84087 0.0
C934 C 0.22565 0.24261 0.8757 0.0
C935 C 0.22837 0.2209 0.86506 0.0
C936 C 0.22545 0.24701 0.83755 0.0
N937 N 0.2239 0.25913 0.85839 0.0
O938 O 0.23166 0.22444 0.79226 0.0
H939 H 0.23018 0.20443 0.87481 0.0
H940 H 0.2246 0.25549 0.82019 0.0
O941 O 0.21546 0.19041 0.81204 0.0
C942 C 0.2422 0.23435 0.7913 0.0
O943 O 0.25046 0.22757 0.80702 0.0
N944 N 0.23575 0.17629 0.83992 0.0
C945 C 0.24644 0.14138 0.86935 0.0
C946 C 0.23504 0.13707 0.85848 0.0
C947 C 0.22992 0.15469 0.84335 0.0
C948 C 0.24675 0.1807 0.85055 0.0
C949 C 0.25218 0.16368 0.86546 0.0
H950 H 0.22167 0.15043 0.83358 0.0
H951 H 0.2515 0.19745 0.84682 0.0
H952 H 0.22415 0.18413 0.76537 0.0
H953 H 0.25635 0.14261 0.76489 0.0
H954 H 0.22543 0.24608 0.89478 0.0
H955 H 0.23044 0.11985 0.86074 0.0
H956 H 0.26093 0.16782 0.87357 0.0
C957 C 0.54619 0.6058 0.79229 0.0
C958 C 0.54495 0.61675 0.77033 0.0
N959 N 0.55443 0.61008 0.75639 0.0
N960 N 0.55651 0.59247 0.79242 0.0
C961 C 0.56135 0.59547 0.77032 0.0
H962 H 0.53969 0.60671 0.80684 0.0
Co963 Co 0.56129 0.57061 0.81608 0.0
C964 C 0.58742 0.58298 0.82594 0.0
O965 O 0.5855 0.57953 0.84888 0.0
N966 N 0.56588 0.54736 0.84027 0.0
C967 C 0.56881 0.52841 0.87522 0.0
C968 C 0.56647 0.55019 0.86439 0.0
C969 C 0.56799 0.52332 0.83721 0.0
N970 N 0.56968 0.51139 0.85813 0.0
O971 O 0.56242 0.54629 0.79168 0.0
H972 H 0.56527 0.567 0.87395 0.0
H973 H 0.56814 0.51444 0.81999 0.0
O974 O 0.57858 0.58032 0.81109 0.0
C975 C 0.55183 0.53667 0.79019 0.0
O976 O 0.54345 0.54342 0.8057 0.0
N977 N 0.55837 0.59447 0.83933 0.0
C978 C 0.54773 0.62977 0.86846 0.0
C979 C 0.5588 0.63438 0.85642 0.0
C980 C 0.5639 0.61654 0.84154 0.0
C981 C 0.54769 0.58976 0.85103 0.0
C982 C 0.54233 0.60693 0.8659 0.0
H983 H 0.57182 0.621 0.83086 0.0
H984 H 0.54311 0.57265 0.84818 0.0
H985 H 0.56936 0.58587 0.76411 0.0
H986 H 0.53743 0.6282 0.76487 0.0
H987 H 0.56934 0.52526 0.89434 0.0
H988 H 0.56312 0.65198 0.8575 0.0
H989 H 0.53385 0.60247 0.87492 0.0
C990 C 0.24815 0.60803 0.97158 0.0
C991 C 0.24899 0.6183 0.99393 0.0
N992 N 0.23938 0.61079 0.00708 0.0
N993 N 0.23799 0.59423 0.9705 0.0
C994 C 0.2328 0.59638 0.99238 0.0
H995 H 0.2549 0.60954 0.95752 0.0
Co996 Co 0.23384 0.5725 0.94629 0.0
C997 C 0.20757 0.58287 0.93547 0.0
O998 O 0.20956 0.57832 0.91275 0.0
N999 N 0.22991 0.54948 0.92155 0.0
C1000 C 0.22775 0.531 0.88617 0.0
C1001 C 0.22993 0.55262 0.89745 0.0
C1002 C 0.22762 0.52545 0.92418 0.0
N1003 N 0.2264 0.5138 0.90299 0.0
O1004 O 0.23271 0.54763 0.97023 0.0
H1005 H 0.23126 0.56957 0.8882 0.0
H1006 H 0.22725 0.5163 0.94127 0.0
O1007 O 0.2164 0.58135 0.95047 0.0
C1008 C 0.24354 0.53924 0.97222 0.0
O1009 O 0.25197 0.54764 0.95762 0.0
N1010 N 0.2368 0.59679 0.92359 0.0
C1011 C 0.24735 0.63236 0.89473 0.0
C1012 C 0.23582 0.63608 0.90526 0.0
C1013 C 0.23076 0.61813 0.92011 0.0
C1014 C 0.24793 0.59295 0.91327 0.0
C1015 C 0.2533 0.61032 0.89867 0.0
H1016 H 0.22238 0.6219 0.9296 0.0
H1017 H 0.25281 0.57637 0.917 0.0
H1018 H 0.22485 0.58612 0.99795 0.0
H1019 H 0.25637 0.62967 1.00028 0.0
H1020 H 0.22724 0.52823 0.867 0.0
H1021 H 0.23105 0.65308 0.90292 0.0
H1022 H 0.26216 0.60664 0.89079 0.0
C1023 C 0.55027 0.15791 0.9722 0.0
C1024 C 0.55037 0.14672 0.99422 0.0
N1025 N 0.56017 0.15466 0.00661 0.0
N1026 N 0.56003 0.17273 0.97054 0.0
C1027 C 0.5659 0.17029 0.9917 0.0
H1028 H 0.54317 0.15633 0.95882 0.0
Co1029 Co 0.56319 0.19561 0.9467 0.0
C1030 C 0.58939 0.18604 0.93359 0.0
O1031 O 0.587 0.19005 0.91092 0.0
N1032 N 0.56619 0.2197 0.92244 0.0
C1033 C 0.56795 0.23897 0.88738 0.0
C1034 C 0.56667 0.21691 0.89831 0.0
C1035 C 0.5672 0.24404 0.92542 0.0
N1036 N 0.56821 0.25613 0.90441 0.0
O1037 O 0.56448 0.2199 0.97129 0.0
H1038 H 0.56623 0.19989 0.88884 0.0
H1039 H 0.5668 0.25301 0.9426 0.0
O1040 O 0.58082 0.18771 0.94914 0.0
C1041 C 0.55343 0.22553 0.97617 0.0
O1042 O 0.54468 0.21524 0.96361 0.0
N1043 N 0.56007 0.17194 0.92343 0.0
C1044 C 0.54991 0.13798 0.89214 0.0
C1045 C 0.56113 0.13339 0.90361 0.0
C1046 C 0.56606 0.15065 0.91942 0.0
C1047 C 0.549 0.17618 0.91305 0.0
C1048 C 0.54387 0.15973 0.89712 0.0
H1049 H 0.57436 0.14647 0.92904 0.0
H1050 H 0.54404 0.1925 0.91749 0.0
H1051 H 0.57394 0.18067 0.99639 0.0
H1052 H 0.54331 0.13485 1.00106 0.0
H1053 H 0.56865 0.24207 0.86827 0.0
H1054 H 0.56597 0.11658 0.90059 0.0
H1055 H 0.53502 0.16372 0.88936 0.0
H1056 H 0.30206 0.40125 0.28473 0.0
H1057 H 0.3048 0.40699 0.3277 0.0
H1058 H 0.3257 0.34099 0.33147 0.0
H1059 H 0.32252 0.3345 0.28863 0.0
H1060 H 0.30855 0.34215 0.36541 0.0
H1061 H 0.33355 0.42906 0.36685 0.0
H1062 H 0.31969 0.43132 0.34984 0.0
H1063 H 0.33171 0.41149 0.33982 0.0
C1064 C 0.30728 0.38796 0.29462 0.0
C1065 C 0.31202 0.36736 0.2831 0.0
C1066 C 0.30898 0.39146 0.3192 0.0
C1067 C 0.31563 0.37464 0.3328 0.0
C1068 C 0.32062 0.35433 0.32131 0.0
H1069 H 0.32937 0.40411 0.48544 0.0
H1070 H 0.33254 0.39497 0.44288 0.0
C1071 C 0.31887 0.35074 0.29672 0.0
C1072 C 0.31648 0.37732 0.35926 0.0
H1073 H 0.32341 0.41771 0.40356 0.0
C1074 C 0.31196 0.35855 0.37375 0.0
C1075 C 0.32112 0.39852 0.37024 0.0
C1076 C 0.32691 0.41861 0.35587 0.0
C1077 C 0.31142 0.36085 0.39879 0.0
C1078 C 0.31524 0.38275 0.40962 0.0
C1079 C 0.32031 0.40106 0.39525 0.0
C1080 C 0.31347 0.38748 0.4356 0.0
C1081 C 0.30672 0.3398 0.41336 0.0
C1082 C 0.30171 0.38655 0.44559 0.0
C1083 C 0.29988 0.39171 0.46983 0.0
C1084 C 0.30977 0.39821 0.48461 0.0
C1085 C 0.32156 0.39928 0.47453 0.0
C1086 C 0.32338 0.394 0.45024 0.0
H1087 H 0.30806 0.32238 0.40378 0.0
H1088 H 0.31136 0.33872 0.43103 0.0
H1089 H 0.29677 0.3421 0.41646 0.0
H1090 H 0.29387 0.38228 0.43452 0.0
H1091 H 0.29066 0.39125 0.47679 0.0
H1092 H 0.9688 0.8645 0.48204 0.0
H1093 H 0.96652 0.8706 0.43861 0.0
H1094 H 1.00569 0.87451 0.4312 0.0
H1095 H 1.00806 0.86822 0.47423 0.0
H1096 H 0.97696 0.91146 0.40913 0.0
H1097 H 0.99369 0.82027 0.38338 0.0
H1098 H 0.98781 0.82699 0.41292 0.0
H1099 H 1.00303 0.83608 0.40479 0.0
C1100 C 0.97691 0.86661 0.47111 0.0
C1101 C 0.98861 0.86591 0.4816 0.0
C1102 C 0.97559 0.87018 0.44637 0.0
C1103 C 0.98594 0.87275 0.43175 0.0
C1104 C 0.9976 0.87234 0.44219 0.0
H1105 H 1.00856 0.89428 0.28773 0.0
H1106 H 1.00579 0.88566 0.3302 0.0
C1107 C 0.99892 0.86898 0.46684 0.0
C1108 C 0.98474 0.87593 0.4055 0.0
H1109 H 0.9924 0.8496 0.35228 0.0
C1110 C 0.98016 0.89786 0.39661 0.0
C1111 C 0.98893 0.8581 0.38934 0.0
C1112 C 0.99355 0.83392 0.398 0.0
C1113 C 0.98023 0.90292 0.3719 0.0
C1114 C 0.98478 0.88535 0.35574 0.0
C1115 C 0.98894 0.86307 0.36468 0.0
C1116 C 0.98615 0.89027 0.32972 0.0
C1117 C 0.97601 0.92746 0.36343 0.0
C1118 C 0.97601 0.89545 0.3152 0.0
C1119 C 0.97757 0.90038 0.29075 0.0
C1120 C 0.98929 0.89997 0.28036 0.0
C1121 C 0.99939 0.8944 0.29497 0.0
C1122 C 0.99783 0.88959 0.31933 0.0
H1123 H 0.97528 0.94061 0.37842 0.0
H1124 H 0.98237 0.9349 0.34977 0.0
H1125 H 0.96685 0.92568 0.35506 0.0
H1126 H 0.96688 0.89557 0.32272 0.0
H1127 H 0.96959 0.9043 0.27994 0.0
H1128 H 0.28703 0.87514 0.78561 0.0
H1129 H 0.2897 0.88503 0.8279 0.0
H1130 H 0.32881 0.87936 0.81993 0.0
H1131 H 0.32619 0.86939 0.77748 0.0
H1132 H 0.32049 0.85483 0.85909 0.0
H1133 H 0.30129 0.94744 0.85859 0.0
H1134 H 0.29099 0.9256 0.846 0.0
H1135 H 0.30535 0.93166 0.83141 0.0
C1136 C 0.29621 0.87642 0.79269 0.0
C1137 C 0.3064 0.87157 0.77808 0.0
C1138 C 0.29773 0.8821 0.81692 0.0
C1139 C 0.30947 0.88334 0.82702 0.0
C1140 C 0.31967 0.8786 0.8125 0.0
H1141 H 0.3196 0.93913 0.97255 0.0
H1142 H 0.32167 0.93238 0.92944 0.0
C1143 C 0.31816 0.87282 0.78826 0.0
C1144 C 0.31101 0.88841 0.85298 0.0
H1145 H 0.30335 0.92853 0.89701 0.0
C1146 C 0.31686 0.87107 0.86735 0.0
C1147 C 0.30645 0.90977 0.86372 0.0
C1148 C 0.30079 0.9298 0.8491 0.0
C1149 C 0.31786 0.87407 0.89227 0.0
C1150 C 0.31265 0.89475 0.90318 0.0
C1151 C 0.30723 0.91254 0.8887 0.0
C1152 C 0.31228 0.8979 0.92961 0.0
C1153 C 0.3245 0.85507 0.90665 0.0
C1154 C 0.30636 0.88074 0.94408 0.0
C1155 C 0.30527 0.88443 0.96877 0.0
C1156 C 0.30996 0.9055 0.97953 0.0
C1157 C 0.31604 0.92253 0.96501 0.0
C1158 C 0.31715 0.91879 0.9403 0.0
H1159 H 0.33115 0.84498 0.8954 0.0
H1160 H 0.32946 0.86323 0.92202 0.0
H1161 H 0.31777 0.84184 0.91375 0.0
H1162 H 0.3023 0.86472 0.93621 0.0
H1163 H 0.30062 0.87086 0.97939 0.0
H1164 H 0.9699 0.36614 0.98284 0.0
H1165 H 0.96733 0.37417 0.93989 0.0
H1166 H 1.00643 0.38043 0.93201 0.0
H1167 H 1.00905 0.37248 0.97463 0.0
H1168 H 0.99391 0.41728 0.90947 0.0
H1169 H 0.97451 0.32759 0.8848 0.0
H1170 H 0.96649 0.34359 0.908 0.0
H1171 H 0.98179 0.33308 0.91331 0.0
C1172 C 0.97794 0.36909 0.97191 0.0
C1173 C 0.98968 0.3687 0.98223 0.0
C1174 C 0.97646 0.37363 0.94736 0.0
C1175 C 0.9867 0.3776 0.93268 0.0
C1176 C 0.99839 0.37744 0.943 0.0
H1177 H 1.00814 0.39678 0.78708 0.0
H1178 H 1.00606 0.39054 0.83019 0.0
C1179 C 0.99987 0.37302 0.96745 0.0
C1180 C 0.9854 0.38224 0.90659 0.0
H1181 H 0.97669 0.35622 0.85368 0.0
C1182 C 0.99007 0.40398 0.8973 0.0
C1183 C 0.98036 0.36489 0.89074 0.0
C1184 C 0.97558 0.34088 0.8996 0.0
C1185 C 0.99006 0.40865 0.87259 0.0
C1186 C 0.98534 0.39104 0.85672 0.0
C1187 C 0.98029 0.36965 0.86597 0.0
C1188 C 0.98637 0.39393 0.83041 0.0
C1189 C 0.99521 0.43229 0.86355 0.0
C1190 C 0.97594 0.39735 0.81618 0.0
C1191 C 0.9771 0.40088 0.79141 0.0
C1192 C 0.9887 0.40072 0.78046 0.0
C1193 C 0.99907 0.39671 0.79481 0.0
C1194 C 0.99792 0.39337 0.81951 0.0
H1195 H 0.9958 0.44606 0.87802 0.0
H1196 H 1.00456 0.4292 0.85648 0.0
H1197 H 0.98953 0.43962 0.84874 0.0
H1198 H 0.96695 0.39769 0.82429 0.0
H1199 H 0.96894 0.40371 0.78081 0.0
H1200 H 0.7164 0.65446 0.73018 0.0
H1201 H 0.71369 0.64507 0.68751 0.0
H1202 H 0.7523 0.63083 0.68122 0.0
H1203 H 0.75508 0.6402 0.72346 0.0
H1204 H 0.72433 0.6671 0.64781 0.0
H1205 H 0.73735 0.57051 0.65154 0.0
H1206 H 0.73361 0.58772 0.67806 0.0
H1207 H 0.74866 0.58962 0.6651 0.0
C1208 C 0.7243 0.64929 0.7197 0.0
C1209 C 0.73594 0.64784 0.73036 0.0
C1210 C 0.72273 0.64385 0.69536 0.0
C1211 C 0.73275 0.63675 0.68131 0.0
C1212 C 0.74438 0.63556 0.69186 0.0
H1213 H 0.75651 0.61736 0.53884 0.0
H1214 H 0.75306 0.62365 0.58158 0.0
C1215 C 0.74594 0.64093 0.71609 0.0
C1216 C 0.73133 0.63151 0.65538 0.0
H1217 H 0.7384 0.5895 0.61273 0.0
C1218 C 0.72717 0.64998 0.64014 0.0
C1219 C 0.73497 0.6091 0.64543 0.0
C1220 C 0.73878 0.58803 0.66092 0.0
C1221 C 0.72726 0.6471 0.6151 0.0
C1222 C 0.73157 0.62519 0.60519 0.0
C1223 C 0.73519 0.60635 0.62044 0.0
C1224 C 0.73335 0.62212 0.57908 0.0
C1225 C 0.72334 0.66784 0.59932 0.0
C1226 C 0.72338 0.61917 0.56353 0.0
C1227 C 0.72532 0.61557 0.53897 0.0
C1228 C 0.73727 0.61501 0.5296 0.0
C1229 C 0.7472 0.61813 0.54533 0.0
C1230 C 0.74525 0.62154 0.56981 0.0
H1231 H 0.72124 0.68441 0.60979 0.0
H1232 H 0.73064 0.6721 0.58614 0.0
H1233 H 0.71506 0.66255 0.5891 0.0
H1234 H 0.71412 0.6194 0.57044 0.0
H1235 H 0.7175 0.61333 0.5273 0.0
H1236 H 0.07877 0.11439 0.73417 0.0
H1237 H 0.08223 0.12386 0.69174 0.0
H1238 H 0.04357 0.13561 0.68224 0.0
H1239 H 0.04005 0.12616 0.72429 0.0
H1240 H 0.07302 0.10119 0.65138 0.0
H1241 H 0.05821 0.19682 0.65362 0.0
H1242 H 0.06156 0.17986 0.68049 0.0
H1243 H 0.04692 0.17686 0.66603 0.0
C1244 C 0.07102 0.11901 0.72304 0.0
C1245 C 0.05915 0.11974 0.73275 0.0
C1246 C 0.07302 0.1245 0.69883 0.0
C1247 C 0.06319 0.13091 0.68395 0.0
C1248 C 0.05134 0.13139 0.69354 0.0
H1249 H 0.05139 0.12128 0.53316 0.0
H1250 H 0.05424 0.11436 0.57596 0.0
C1251 C 0.04934 0.12598 0.71765 0.0
C1252 C 0.06512 0.13621 0.65814 0.0
H1253 H 0.05876 0.17799 0.61486 0.0
C1254 C 0.07007 0.11811 0.64341 0.0
C1255 C 0.06148 0.15844 0.64781 0.0
C1256 C 0.05687 0.1792 0.66285 0.0
C1257 C 0.07088 0.12119 0.61846 0.0
C1258 C 0.06641 0.14276 0.60796 0.0
C1259 C 0.06206 0.16132 0.62284 0.0
C1260 C 0.06554 0.14603 0.58158 0.0
C1261 C 0.07647 0.10125 0.60361 0.0
C1262 C 0.07077 0.16636 0.57048 0.0
C1263 C 0.06897 0.17061 0.546 0.0
C1264 C 0.06183 0.15466 0.53215 0.0
C1265 C 0.05684 0.13405 0.54328 0.0
C1266 C 0.05861 0.12987 0.56773 0.0
H1267 H 0.08297 0.09027 0.61435 0.0
H1268 H 0.06911 0.089 0.59724 0.0
H1269 H 0.08135 0.10861 0.58776 0.0
H1270 H 0.07606 0.1792 0.58086 0.0
H1271 H 0.07282 0.18683 0.53821 0.0
H1272 H 0.7178 0.15722 0.23088 0.0
H1273 H 0.7142 0.1478 0.18849 0.0
H1274 H 0.75268 0.13394 0.17897 0.0
H1275 H 0.75634 0.14332 0.22098 0.0
H1276 H 0.72364 0.16979 0.14808 0.0
H1277 H 0.73725 0.07349 0.15057 0.0
H1278 H 0.73415 0.09068 0.1774 0.0
H1279 H 0.74882 0.09285 0.1629 0.0
C1280 C 0.72548 0.15214 0.21974 0.0
C1281 C 0.73734 0.1508 0.22943 0.0
C1282 C 0.7234 0.14668 0.19557 0.0
C1283 C 0.73314 0.13969 0.1807 0.0
C1284 C 0.74498 0.13861 0.19026 0.0
H1285 H 0.74555 0.14896 0.03035 0.0
H1286 H 0.74243 0.15602 0.07304 0.0
C1287 C 0.74706 0.14398 0.21435 0.0
C1288 C 0.73113 0.13443 0.15493 0.0
H1289 H 0.7371 0.09236 0.11175 0.0
C1290 C 0.72641 0.15274 0.14015 0.0
C1291 C 0.73452 0.11202 0.14465 0.0
C1292 C 0.73884 0.09105 0.15975 0.0
C1293 C 0.72561 0.14968 0.1152 0.0
C1294 C 0.72988 0.12793 0.10475 0.0
C1295 C 0.73398 0.10917 0.11969 0.0
C1296 C 0.73087 0.12467 0.0784 0.0
C1297 C 0.72028 0.16986 0.1003 0.0
C1298 C 0.72557 0.10448 0.06719 0.0
C1299 C 0.72754 0.10013 0.04279 0.0
C1300 C 0.7349 0.11584 0.02912 0.0
C1301 C 0.73994 0.13636 0.04033 0.0
C1302 C 0.73801 0.14062 0.06472 0.0
H1303 H 0.71381 0.181 0.11094 0.0
H1304 H 0.72777 0.18191 0.09414 0.0
H1305 H 0.71543 0.16273 0.08431 0.0
H1306 H 0.72011 0.0918 0.07745 0.0
H1307 H 0.72364 0.08399 0.03493 0.0
H1308 H 0.04032 0.62701 0.22574 0.0
H1309 H 0.04309 0.6354 0.18323 0.0
H1310 H 0.08197 0.62505 0.19065 0.0
H1311 H 0.07925 0.61651 0.23349 0.0
H1312 H 0.05645 0.67115 0.16098 0.0
H1313 H 0.07351 0.58 0.13513 0.0
H1314 H 0.06648 0.58585 0.16382 0.0
H1315 H 0.08199 0.59506 0.15833 0.0
C1316 C 0.04949 0.62674 0.21848 0.0
C1317 C 0.05957 0.62111 0.23308 0.0
C1318 C 0.05105 0.63142 0.19409 0.0
C1319 C 0.06271 0.63057 0.18367 0.0
C1320 C 0.07285 0.62531 0.1982 0.0
H1321 H 0.07888 0.65614 0.03058 0.0
H1322 H 0.08169 0.65068 0.074 0.0
C1323 C 0.07129 0.62049 0.22267 0.0
C1324 C 0.06407 0.63539 0.15763 0.0
H1325 H 0.07163 0.60891 0.10427 0.0
C1326 C 0.05987 0.65761 0.14862 0.0
C1327 C 0.06856 0.61771 0.14151 0.0
C1328 C 0.07281 0.59323 0.15006 0.0
C1329 C 0.05974 0.66239 0.12392 0.0
C1330 C 0.06386 0.64445 0.10781 0.0
C1331 C 0.06851 0.62261 0.11677 0.0
C1332 C 0.06237 0.64732 0.0816 0.0
C1333 C 0.05499 0.68643 0.11514 0.0
C1334 C 0.05062 0.64689 0.0716 0.0
C1335 C 0.04901 0.64986 0.04697 0.0
C1336 C 0.05913 0.65339 0.03179 0.0
C1337 C 0.07092 0.65362 0.04185 0.0
C1338 C 0.07254 0.65043 0.06657 0.0
H1339 H 0.0548 0.70017 0.12967 0.0
H1340 H 0.0607 0.69337 0.10016 0.0
H1341 H 0.04553 0.68405 0.10836 0.0
H1342 H 0.04267 0.64435 0.08292 0.0
H1343 H 0.0398 0.64993 0.03992 0.0
H1344 H 0.82543 0.41169 0.97644 0.0
H1345 H 0.82694 0.40411 0.9334 0.0
H1346 H 0.78891 0.38386 0.9315 0.0
H1347 H 0.78713 0.39206 0.9743 0.0
H1348 H 0.80747 0.35121 0.90644 0.0
H1349 H 0.80899 0.44876 0.88129 0.0
H1350 H 0.81887 0.43868 0.9051 0.0
H1351 H 0.80263 0.4385 0.9094 0.0
C1352 C 0.81733 0.40581 0.96695 0.0
C1353 C 0.80612 0.40274 0.97903 0.0
C1354 C 0.81825 0.40137 0.94233 0.0
C1355 C 0.80802 0.39362 0.92933 0.0
C1356 C 0.79692 0.38984 0.9413 0.0
H1357 H 0.78836 0.38504 0.78112 0.0
H1358 H 0.79006 0.39229 0.82399 0.0
C1359 C 0.79595 0.39444 0.96587 0.0
C1360 C 0.80877 0.38991 0.9031 0.0
H1361 H 0.81015 0.42035 0.84988 0.0
C1362 C 0.80815 0.36627 0.89404 0.0
C1363 C 0.80957 0.40966 0.88707 0.0
C1364 C 0.80999 0.4354 0.89604 0.0
C1365 C 0.80828 0.36187 0.86924 0.0
C1366 C 0.80902 0.38163 0.85322 0.0
C1367 C 0.80967 0.40527 0.86228 0.0
C1368 C 0.8084 0.37814 0.82695 0.0
C1369 C 0.80729 0.33621 0.86023 0.0
C1370 C 0.81826 0.36816 0.81433 0.0
C1371 C 0.81741 0.36424 0.7896 0.0
C1372 C 0.80663 0.37009 0.77703 0.0
C1373 C 0.79686 0.3805 0.78987 0.0
C1374 C 0.79777 0.38457 0.81451 0.0
H1375 H 0.80534 0.32316 0.8749 0.0
H1376 H 0.79995 0.33481 0.84654 0.0
H1377 H 0.81602 0.33095 0.85154 0.0
H1378 H 0.8266 0.36333 0.82365 0.0
H1379 H 0.82521 0.35661 0.78042 0.0
H1380 H 0.50637 0.87919 0.97425 0.0
H1381 H 0.50305 0.88849 0.93211 0.0
H1382 H 0.46438 0.87605 0.94086 0.0
H1383 H 0.46763 0.86677 0.98336 0.0
H1384 H 0.47391 0.85315 0.901 0.0
H1385 H 0.48835 0.94911 0.90252 0.0
H1386 H 0.49964 0.92947 0.91535 0.0
H1387 H 0.48491 0.93237 0.92949 0.0
C1388 C 0.49712 0.87885 0.96743 0.0
C1389 C 0.48725 0.87242 0.98233 0.0
C1390 C 0.49523 0.88418 0.94326 0.0
C1391 C 0.48344 0.88342 0.93343 0.0
C1392 C 0.47355 0.8769 0.94813 0.0
H1393 H 0.47411 0.93729 0.78683 0.0
H1394 H 0.47075 0.93014 0.82956 0.0
C1395 C 0.47543 0.87151 0.97239 0.0
C1396 C 0.48163 0.88841 0.90754 0.0
H1397 H 0.48802 0.92986 0.86393 0.0
C1398 C 0.47683 0.87005 0.89291 0.0
C1399 C 0.48524 0.91061 0.89704 0.0
C1400 C 0.4897 0.93161 0.91196 0.0
C1401 C 0.47613 0.87285 0.86792 0.0
C1402 C 0.48055 0.8944 0.85728 0.0
C1403 C 0.48476 0.91322 0.87204 0.0
C1404 C 0.48154 0.89739 0.8309 0.0
C1405 C 0.47071 0.85262 0.85318 0.0
C1406 C 0.48867 0.8813 0.81739 0.0
C1407 C 0.49052 0.8852 0.79292 0.0
C1408 C 0.48539 0.90545 0.78143 0.0
C1409 C 0.47806 0.92132 0.79494 0.0
C1410 C 0.47619 0.91736 0.81944 0.0
H1411 H 0.46423 0.84155 0.86392 0.0
H1412 H 0.46584 0.85972 0.8372 0.0
H1413 H 0.47816 0.84053 0.84699 0.0
H1414 H 0.49312 0.86606 0.82591 0.0
H1415 H 0.49612 0.87252 0.78306 0.0
H1416 H 0.82714 0.90507 0.48018 0.0
H1417 H 0.82985 0.89885 0.43687 0.0
H1418 H 0.79076 0.89478 0.42803 0.0
H1419 H 0.78797 0.90118 0.47096 0.0
H1420 H 0.81965 0.85783 0.40705 0.0
H1421 H 0.80328 0.94909 0.3806 0.0
H1422 H 0.80889 0.94238 0.41033 0.0
H1423 H 0.79375 0.93329 0.40172 0.0
C1424 C 0.81914 0.9029 0.46897 0.0
C1425 C 0.80734 0.90359 0.47904 0.0
C1426 C 0.8207 0.89926 0.4443 0.0
C1427 C 0.8105 0.8966 0.4293 0.0
C1428 C 0.79875 0.897 0.43931 0.0
H1429 H 0.78955 0.87571 0.28416 0.0
H1430 H 0.79181 0.88408 0.32678 0.0
C1431 C 0.79718 0.90043 0.46391 0.0
C1432 C 0.81197 0.8934 0.4031 0.0
H1433 H 0.80495 0.91982 0.34956 0.0
C1434 C 0.81662 0.87145 0.3944 0.0
C1435 C 0.80798 0.91126 0.38676 0.0
C1436 C 0.80328 0.93544 0.39523 0.0
C1437 C 0.81682 0.86641 0.36969 0.0
C1438 C 0.81249 0.88403 0.35334 0.0
C1439 C 0.80825 0.90631 0.3621 0.0
C1440 C 0.81143 0.87917 0.32724 0.0
C1441 C 0.82111 0.84186 0.3614 0.0
C1442 C 0.82174 0.87387 0.31318 0.0
C1443 C 0.82047 0.86908 0.28864 0.0
C1444 C 0.80889 0.86974 0.27769 0.0
C1445 C 0.79863 0.87539 0.29183 0.0
C1446 C 0.7999 0.88007 0.31629 0.0
H1447 H 0.8216 0.82867 0.37641 0.0
H1448 H 0.81492 0.8345 0.3474 0.0
H1449 H 0.83038 0.84358 0.35353 0.0
H1450 H 0.83076 0.87358 0.32114 0.0
H1451 H 0.82856 0.86508 0.2782 0.0
H1452 H 0.50644 0.39714 0.28849 0.0
H1453 H 0.50335 0.39055 0.3313 0.0
H1454 H 0.46442 0.39795 0.32198 0.0
H1455 H 0.46743 0.40435 0.27876 0.0
H1456 H 0.48956 0.42593 0.36313 0.0
H1457 H 0.47087 0.33204 0.3609 0.0
H1458 H 0.48037 0.34367 0.33701 0.0
H1459 H 0.46499 0.35427 0.34027 0.0
C1460 C 0.4972 0.39697 0.29538 0.0
C1461 C 0.48717 0.40111 0.28015 0.0
C1462 C 0.49546 0.39338 0.3199 0.0
C1463 C 0.48367 0.39364 0.32971 0.0
C1464 C 0.47359 0.39753 0.31465 0.0
H1465 H 0.46771 0.36251 0.48149 0.0
H1466 H 0.46478 0.3718 0.43886 0.0
C1467 C 0.47533 0.4013 0.29005 0.0
C1468 C 0.48213 0.39062 0.35589 0.0
H1469 H 0.47473 0.34906 0.3988 0.0
C1470 C 0.48619 0.40924 0.37098 0.0
C1471 C 0.47762 0.36893 0.36597 0.0
C1472 C 0.47322 0.34844 0.35034 0.0
C1473 C 0.48619 0.40649 0.39597 0.0
C1474 C 0.48232 0.38427 0.40608 0.0
C1475 C 0.47774 0.36603 0.39101 0.0
C1476 C 0.48391 0.37897 0.43197 0.0
C1477 C 0.49045 0.42734 0.4113 0.0
C1478 C 0.49563 0.37953 0.44211 0.0
C1479 C 0.49733 0.3742 0.46632 0.0
C1480 C 0.48735 0.36798 0.48098 0.0
C1481 C 0.4756 0.36713 0.47071 0.0
C1482 C 0.4739 0.37252 0.44639 0.0
H1483 H 0.48922 0.44492 0.40195 0.0
H1484 H 0.48544 0.42794 0.4286 0.0
H1485 H 0.50034 0.42519 0.41517 0.0
H1486 H 0.50354 0.38376 0.43118 0.0
H1487 H 0.50654 0.37446 0.47338 0.0
H1488 H 0.25736 0.64244 0.22512 0.0
H1489 H 0.25419 0.63288 0.18296 0.0
H1490 H 0.21535 0.64306 0.19163 0.0
H1491 H 0.21848 0.65275 0.23409 0.0
H1492 H 0.24057 0.59661 0.16175 0.0
H1493 H 0.22335 0.6875 0.13526 0.0
H1494 H 0.23066 0.68204 0.16374 0.0
H1495 H 0.21511 0.67274 0.15899 0.0
C1496 C 0.24812 0.64241 0.21821 0.0
C1497 C 0.23816 0.64839 0.23303 0.0
C1498 C 0.24633 0.63704 0.19403 0.0
C1499 C 0.23456 0.63756 0.18406 0.0
C1500 C 0.22455 0.64305 0.19883 0.0
H1501 H 0.21783 0.61231 0.03112 0.0
H1502 H 0.21503 0.61734 0.0746 0.0
C1503 C 0.22634 0.64855 0.22309 0.0
C1504 C 0.23297 0.63236 0.15816 0.0
H1505 H 0.22513 0.65832 0.10471 0.0
C1506 C 0.23708 0.61002 0.14932 0.0
C1507 C 0.22838 0.64987 0.14196 0.0
C1508 C 0.2242 0.67447 0.15034 0.0
C1509 C 0.23705 0.60498 0.12468 0.0
C1510 C 0.23289 0.62279 0.10847 0.0
C1511 C 0.22829 0.64472 0.11729 0.0
C1512 C 0.23437 0.61982 0.08228 0.0
C1513 C 0.24172 0.58081 0.11607 0.0
C1514 C 0.24613 0.61991 0.07233 0.0
C1515 C 0.24774 0.6172 0.04768 0.0
C1516 C 0.2376 0.61431 0.03244 0.0
C1517 C 0.22579 0.61434 0.04245 0.0
C1518 C 0.22418 0.61728 0.0672 0.0
H1519 H 0.24177 0.56713 0.13067 0.0
H1520 H 0.23606 0.57392 0.10102 0.0
H1521 H 0.25123 0.58297 0.10947 0.0
H1522 H 0.25409 0.62206 0.08369 0.0
H1523 H 0.25695 0.6169 0.04064 0.0
H1524 H 0.57321 0.18308 0.0373 0.0
H1525 H 0.57621 0.17669 0.08014 0.0
H1526 H 0.55551 0.11036 0.07615 0.0
H1527 H 0.55297 0.11597 0.03311 0.0
H1528 H 0.55892 0.17549 0.11362 0.0
H1529 H 0.58407 0.08885 0.11608 0.0
H1530 H 0.58231 0.10623 0.08889 0.0
H1531 H 0.57027 0.08639 0.09891 0.0
C1532 C 0.56956 0.16678 0.0453 0.0
C1533 C 0.56283 0.15004 0.03158 0.0
C1534 C 0.57122 0.16325 0.06992 0.0
C1535 C 0.56622 0.1429 0.08138 0.0
C1536 C 0.5597 0.12594 0.06769 0.0
H1537 H 0.54139 0.12762 0.22589 0.0
H1538 H 0.54442 0.13587 0.18341 0.0
C1539 C 0.5581 0.12937 0.04306 0.0
C1540 C 0.56695 0.14038 0.10787 0.0
H1541 H 0.57396 0.10058 0.15264 0.0
C1542 C 0.56236 0.15923 0.12214 0.0
C1543 C 0.57162 0.11935 0.11908 0.0
C1544 C 0.57746 0.09918 0.10494 0.0
C1545 C 0.56184 0.1572 0.1472 0.0
C1546 C 0.56573 0.1355 0.15828 0.0
C1547 C 0.57082 0.11708 0.14412 0.0
C1548 C 0.56405 0.13113 0.18435 0.0
C1549 C 0.55709 0.17835 0.16153 0.0
C1550 C 0.57404 0.12512 0.19898 0.0
C1551 C 0.57232 0.12025 0.22339 0.0
C1552 C 0.56057 0.12125 0.23359 0.0
C1553 C 0.5506 0.12724 0.21882 0.0
C1554 C 0.55232 0.13197 0.19447 0.0
H1555 H 0.55832 0.19567 0.15169 0.0
H1556 H 0.54716 0.17588 0.16479 0.0
H1557 H 0.56178 0.17978 0.17912 0.0
H1558 H 0.58318 0.12422 0.19152 0.0
H1559 H 0.58019 0.11581 0.23429 0.0
H1560 H 0.24551 0.15313 0.5315 0.0
H1561 H 0.24313 0.16004 0.57444 0.0
H1562 H 0.22156 0.09497 0.58035 0.0
H1563 H 0.22434 0.08729 0.53764 0.0
H1564 H 0.22314 0.16589 0.60397 0.0
H1565 H 0.249 0.08283 0.62798 0.0
H1566 H 0.24858 0.09463 0.59786 0.0
H1567 H 0.23583 0.07774 0.60945 0.0
C1568 C 0.2403 0.14019 0.54189 0.0
C1569 C 0.2353 0.11944 0.53104 0.0
C1570 C 0.23886 0.1443 0.56644 0.0
C1571 C 0.23236 0.12778 0.58068 0.0
C1572 C 0.22682 0.1077 0.56977 0.0
H1573 H 0.21749 0.1574 0.73338 0.0
H1574 H 0.21456 0.14898 0.69058 0.0
C1575 C 0.22832 0.10349 0.54523 0.0
C1576 C 0.2319 0.13117 0.60705 0.0
H1577 H 0.24109 0.10587 0.65989 0.0
C1578 C 0.22698 0.15271 0.61625 0.0
C1579 C 0.23705 0.11405 0.62298 0.0
C1580 C 0.24302 0.0911 0.61414 0.0
C1581 C 0.22725 0.15778 0.64093 0.0
C1582 C 0.23237 0.14062 0.65683 0.0
C1583 C 0.23708 0.1189 0.64766 0.0
C1584 C 0.23388 0.14558 0.6828 0.0
C1585 C 0.2225 0.18185 0.64964 0.0
C1586 C 0.24565 0.14595 0.69272 0.0
C1587 C 0.24733 0.15057 0.71707 0.0
C1588 C 0.23726 0.15491 0.73213 0.0
C1589 C 0.22544 0.15441 0.7222 0.0
C1590 C 0.22375 0.14965 0.69776 0.0
H1591 H 0.22133 0.19496 0.63472 0.0
H1592 H 0.21346 0.17916 0.65829 0.0
H1593 H 0.22878 0.18984 0.66312 0.0
H1594 H 0.2536 0.14292 0.6815 0.0
H1595 H 0.25657 0.15121 0.72396 0.0
H1596 H 0.56941 0.68259 0.53767 0.0
H1597 H 0.57155 0.67391 0.58028 0.0
H1598 H 0.54923 0.6101 0.57206 0.0
H1599 H 0.54744 0.61809 0.52913 0.0
H1600 H 0.55352 0.67228 0.61302 0.0
H1601 H 0.57745 0.58408 0.61133 0.0
H1602 H 0.57634 0.60334 0.58528 0.0
H1603 H 0.56376 0.58407 0.59359 0.0
C1604 C 0.56518 0.66637 0.54469 0.0
C1605 C 0.55828 0.65097 0.52979 0.0
C1606 C 0.56635 0.66154 0.56918 0.0
C1607 C 0.5607 0.64118 0.57935 0.0
C1608 C 0.5539 0.62564 0.56455 0.0
H1609 H 0.53667 0.62043 0.72408 0.0
H1610 H 0.53922 0.62885 0.68154 0.0
C1611 C 0.55275 0.63042 0.54002 0.0
C1612 C 0.56119 0.63719 0.60566 0.0
H1613 H 0.56815 0.59532 0.64862 0.0
C1614 C 0.55683 0.65554 0.6208 0.0
C1615 C 0.56569 0.61549 0.61587 0.0
C1616 C 0.5712 0.59572 0.60069 0.0
C1617 C 0.55643 0.65247 0.64575 0.0
C1618 C 0.56028 0.63026 0.65585 0.0
C1619 C 0.56507 0.61224 0.64083 0.0
C1620 C 0.5589 0.62509 0.68181 0.0
C1621 C 0.5519 0.67309 0.66108 0.0
C1622 C 0.5691 0.61952 0.69605 0.0
C1623 C 0.56767 0.61467 0.72055 0.0
C1624 C 0.55601 0.61521 0.7312 0.0
C1625 C 0.54582 0.62045 0.71671 0.0
C1626 C 0.54725 0.62524 0.6923 0.0
H1627 H 0.55283 0.69074 0.65173 0.0
H1628 H 0.54206 0.67028 0.66511 0.0
H1629 H 0.55695 0.67402 0.67832 0.0
H1630 H 0.57817 0.61917 0.68826 0.0
H1631 H 0.5757 0.61078 0.73119 0.0
H1632 H 0.34594 0.35675 0.22572 0.0
H1633 H 0.36608 0.37472 0.2341 0.0
H1634 H 0.3801 0.34449 0.16842 0.0
H1635 H 0.36021 0.3265 0.16002 0.0
H1636 H 0.39618 0.33942 0.20811 0.0
H1637 H 0.37965 0.43401 0.19697 0.0
H1638 H 0.37174 0.41534 0.21837 0.0
H1639 H 0.37084 0.40827 0.18703 0.0
C1640 C 0.35335 0.35376 0.21319 0.0
C1641 C 0.3514 0.3403 0.1921 0.0
C1642 C 0.36484 0.36416 0.21794 0.0
C1643 C 0.37458 0.3612 0.20174 0.0
C1644 C 0.37274 0.34709 0.18117 0.0
H1645 H 0.43767 0.43449 0.15582 0.0
H1646 H 0.41767 0.41751 0.165 0.0
C1647 C 0.36131 0.33686 0.17636 0.0
C1648 C 0.38664 0.37332 0.20537 0.0
H1649 H 0.40073 0.42852 0.20237 0.0
C1650 C 0.39718 0.35893 0.20731 0.0
C1651 C 0.38794 0.39877 0.20409 0.0
C1652 C 0.37698 0.41512 0.20135 0.0
C1653 C 0.40897 0.36922 0.20716 0.0
C1654 C 0.41027 0.39463 0.20516 0.0
C1655 C 0.39972 0.40907 0.2041 0.0
C1656 C 0.4224 0.40621 0.20091 0.0
C1657 C 0.41996 0.35277 0.20776 0.0
C1658 C 0.43175 0.40597 0.21825 0.0
C1659 C 0.44332 0.41584 0.21306 0.0
C1660 C 0.44573 0.42597 0.19038 0.0
C1661 C 0.43622 0.4267 0.17341 0.0
C1662 C 0.42472 0.41705 0.17865 0.0
H1663 H 0.41739 0.33339 0.20608 0.0
H1664 H 0.42638 0.35743 0.19304 0.0
H1665 H 0.42487 0.35524 0.22498 0.0
H1666 H 0.43014 0.39794 0.23568 0.0
H1667 H 0.45044 0.415 0.22653 0.0
H1668 H 0.93746 0.93865 0.16214 0.0
H1669 H 0.91744 0.92237 0.17237 0.0
H1670 H 0.93155 0.89655 0.23981 0.0
H1671 H 0.95186 0.91304 0.22961 0.0
H1672 H 0.91851 0.86111 0.21242 0.0
H1673 H 0.89152 0.9452 0.22075 0.0
H1674 H 0.9006 0.94464 0.19395 0.0
H1675 H 0.90802 0.94483 0.22275 0.0
C1676 C 0.93632 0.9298 0.17933 0.0
C1677 C 0.94628 0.92716 0.19506 0.0
C1678 C 0.92481 0.92063 0.18522 0.0
C1679 C 0.92291 0.9085 0.20698 0.0
C1680 C 0.93277 0.90605 0.223 0.0
H1681 H 0.84663 0.85707 0.22719 0.0
H1682 H 0.86675 0.87391 0.23806 0.0
C1683 C 0.94435 0.91554 0.2172 0.0
C1684 C 0.91082 0.89694 0.21169 0.0
H1685 H 0.88016 0.90896 0.21105 0.0
C1686 C 0.91013 0.87159 0.21268 0.0
C1687 C 0.89986 0.91055 0.21232 0.0
C1688 C 0.90001 0.93783 0.21263 0.0
C1689 C 0.89879 0.85952 0.2125 0.0
C1690 C 0.88785 0.87312 0.21108 0.0
C1691 C 0.88852 0.89848 0.2119 0.0
C1692 C 0.87583 0.86151 0.20586 0.0
C1693 C 0.89864 0.83224 0.21305 0.0
C1694 C 0.87423 0.84905 0.1842 0.0
C1695 C 0.86281 0.83966 0.17791 0.0
C1696 C 0.85265 0.84242 0.19314 0.0
C1697 C 0.85428 0.85447 0.21514 0.0
C1698 C 0.86576 0.86415 0.22133 0.0
H1699 H 0.907 0.82494 0.22173 0.0
H1700 H 0.89048 0.82533 0.22277 0.0
H1701 H 0.89833 0.82528 0.19441 0.0
H1702 H 0.88177 0.84715 0.17174 0.0
H1703 H 0.86192 0.83049 0.16084 0.0
H1704 H 0.36072 0.94334 0.10006 0.0
H1705 H 0.38059 0.92628 0.09002 0.0
H1706 H 0.3659 0.89809 0.02398 0.0
H1707 H 0.34577 0.9153 0.03399 0.0
H1708 H 0.379 0.86359 0.05177 0.0
H1709 H 0.40625 0.94713 0.04037 0.0
H1710 H 0.39747 0.94727 0.06755 0.0
H1711 H 0.38974 0.94694 0.03908 0.0
C1712 C 0.3617 0.93378 0.08322 0.0
C1713 C 0.35162 0.93072 0.06783 0.0
C1714 C 0.37313 0.92416 0.07743 0.0
C1715 C 0.37483 0.91117 0.05609 0.0
C1716 C 0.36484 0.90824 0.04046 0.0
H1717 H 0.45066 0.85847 0.03313 0.0
H1718 H 0.43042 0.87519 0.02299 0.0
C1719 C 0.35336 0.91814 0.04615 0.0
C1720 C 0.38684 0.89934 0.05139 0.0
H1721 H 0.41756 0.91095 0.05014 0.0
C1722 C 0.38741 0.87396 0.05089 0.0
C1723 C 0.39785 0.91278 0.04992 0.0
C1724 C 0.39782 0.94005 0.04901 0.0
C1725 C 0.3987 0.86174 0.0507 0.0
C1726 C 0.40972 0.87521 0.05121 0.0
C1727 C 0.40914 0.90056 0.04996 0.0
C1728 C 0.42177 0.86354 0.05593 0.0
C1729 C 0.39873 0.83445 0.05067 0.0
C1730 C 0.42364 0.85148 0.07774 0.0
C1731 C 0.43512 0.84216 0.08359 0.0
C1732 C 0.44508 0.84458 0.06778 0.0
C1733 C 0.44317 0.85613 0.04561 0.0
C1734 C 0.43162 0.86576 0.03984 0.0
H1735 H 0.39021 0.8271 0.04263 0.0
H1736 H 0.4067 0.82725 0.04062 0.0
H1737 H 0.39928 0.82784 0.06942 0.0
H1738 H 0.41629 0.8499 0.09065 0.0
H1739 H 0.43624 0.83338 0.10081 0.0
H1740 H 0.94719 0.33663 0.0338 0.0
H1741 H 0.92657 0.35152 0.02399 0.0
H1742 H 0.923 0.37993 0.09565 0.0
H1743 H 0.94312 0.36463 0.10566 0.0
H1744 H 0.903 0.35655 0.0837 0.0
H1745 H 0.91528 0.41936 0.00975 0.0
H1746 H 0.91968 0.38843 1.00506 0.0
H1747 H 0.92664 0.4056 0.02878 0.0
C1748 C 0.94199 0.34611 0.04738 0.0
C1749 C 0.94683 0.34929 0.07055 0.0
C1750 C 0.93023 0.35477 0.04173 0.0
C1751 C 0.9232 0.36711 0.05902 0.0
C1752 C 0.92814 0.37042 0.08198 0.0
H1753 H 0.86352 0.46736 0.04991 0.0
H1754 H 0.88297 0.44573 0.05006 0.0
C1755 C 0.93972 0.36161 0.08768 0.0
C1756 C 0.9106 0.37633 0.05398 0.0
H1757 H 0.8944 0.41653 0.01987 0.0
C1758 C 0.90111 0.36955 0.06962 0.0
C1759 C 0.90811 0.39347 0.03574 0.0
C1760 C 0.91796 0.40236 0.01897 0.0
C1761 C 0.8894 0.37995 0.06815 0.0
C1762 C 0.88688 0.39709 0.0499 0.0
C1763 C 0.89627 0.40334 0.03378 0.0
C1764 C 0.87489 0.41 0.04836 0.0
C1765 C 0.88008 0.37335 0.08702 0.0
C1766 C 0.86377 0.39728 0.04689 0.0
C1767 C 0.85257 0.40965 0.04722 0.0
C1768 C 0.85225 0.43507 0.04848 0.0
C1769 C 0.8634 0.44779 0.04896 0.0
C1770 C 0.87456 0.43541 0.04898 0.0
H1771 H 0.88443 0.36528 0.10314 0.0
H1772 H 0.87475 0.38943 0.09272 0.0
H1773 H 0.87365 0.35976 0.07957 0.0
H1774 H 0.86372 0.37773 0.04569 0.0
H1775 H 0.84416 0.39929 0.04653 0.0
H1776 H 0.699 0.66187 0.78221 0.0
H1777 H 0.67877 0.6447 0.77269 0.0
H1778 H 0.66434 0.67432 0.83831 0.0
H1779 H 0.68428 0.69136 0.84784 0.0
H1780 H 0.66568 0.61087 0.80101 0.0
H1781 H 0.63853 0.69428 0.78894 0.0
H1782 H 0.65504 0.69407 0.78752 0.0
H1783 H 0.64735 0.69484 0.81605 0.0
C1784 C 0.69145 0.66505 0.79437 0.0
C1785 C 0.69327 0.67801 0.81579 0.0
C1786 C 0.6799 0.65517 0.78895 0.0
C1787 C 0.66996 0.65849 0.80463 0.0
C1788 C 0.67176 0.67189 0.82568 0.0
H1789 H 0.60864 0.58057 0.85109 0.0
H1790 H 0.62852 0.59743 0.84073 0.0
C1791 C 0.68324 0.68149 0.83119 0.0
C1792 C 0.6579 0.64663 0.80032 0.0
H1793 H 0.62719 0.6583 0.79967 0.0
C1794 C 0.65728 0.62125 0.80019 0.0
C1795 C 0.6469 0.66008 0.79894 0.0
C1796 C 0.64697 0.68733 0.79761 0.0
C1797 C 0.64597 0.60906 0.80043 0.0
C1798 C 0.63498 0.62256 0.80105 0.0
C1799 C 0.63559 0.64789 0.79944 0.0
C1800 C 0.62292 0.61095 0.80605 0.0
C1801 C 0.6459 0.58177 0.80071 0.0
C1802 C 0.61302 0.61308 0.7901 0.0
C1803 C 0.60151 0.60329 0.79598 0.0
C1804 C 0.59968 0.59164 0.81814 0.0
C1805 C 0.60968 0.58941 0.83387 0.0
C1806 C 0.62112 0.59892 0.82791 0.0
H1807 H 0.65436 0.57431 0.79255 0.0
H1808 H 0.64546 0.57538 0.81955 0.0
H1809 H 0.63786 0.57446 0.79095 0.0
H1810 H 0.61416 0.62248 0.77321 0.0
H1811 H 0.59399 0.60547 0.78354 0.0
H1812 H 0.09545 0.10605 0.78526 0.0
H1813 H 0.11567 0.1232 0.77569 0.0
H1814 H 0.12952 0.09765 0.84345 0.0
H1815 H 0.10957 0.08063 0.85305 0.0
H1816 H 0.1284 0.15883 0.80263 0.0
H1817 H 0.15582 0.07513 0.79607 0.0
H1818 H 0.13934 0.07511 0.79404 0.0
H1819 H 0.14674 0.07606 0.82284 0.0
C1820 C 0.10287 0.10379 0.79792 0.0
C1821 C 0.10087 0.09194 0.81993 0.0
C1822 C 0.11441 0.11365 0.79247 0.0
C1823 C 0.12419 0.11143 0.8087 0.0
C1824 C 0.12222 0.09921 0.83041 0.0
H1825 H 0.18526 0.1926 0.85162 0.0
H1826 H 0.16543 0.17504 0.84209 0.0
C1827 C 0.11074 0.08961 0.83594 0.0
C1828 C 0.13626 0.12317 0.80414 0.0
H1829 H 0.16699 0.11179 0.80477 0.0
C1830 C 0.13683 0.14851 0.80259 0.0
C1831 C 0.14729 0.10977 0.80378 0.0
C1832 C 0.14729 0.08249 0.80402 0.0
C1833 C 0.14811 0.16081 0.80235 0.0
C1834 C 0.15913 0.14747 0.80392 0.0
C1835 C 0.15857 0.12208 0.80379 0.0
C1836 C 0.17114 0.15947 0.80835 0.0
C1837 C 0.14812 0.18806 0.80105 0.0
C1838 C 0.1811 0.15645 0.79265 0.0
C1839 C 0.19257 0.16663 0.79806 0.0
C1840 C 0.19432 0.17961 0.8195 0.0
C1841 C 0.18428 0.18274 0.83496 0.0
C1842 C 0.17287 0.17282 0.82946 0.0
H1843 H 0.13967 0.19496 0.79237 0.0
H1844 H 0.14849 0.19555 0.81949 0.0
H1845 H 0.15618 0.19487 0.79097 0.0
H1846 H 0.18002 0.14603 0.77635 0.0
H1847 H 0.20013 0.16374 0.78585 0.0
H1848 H 0.59687 0.16351 0.97529 0.0
H1849 H 0.61718 0.14641 0.98387 0.0
H1850 H 0.63011 0.17146 0.91522 0.0
H1851 H 0.61007 0.1885 0.90661 0.0
H1852 H 0.62941 0.11059 0.95681 0.0
H1853 H 0.65712 0.19425 0.9608 0.0
H1854 H 0.64066 0.19441 0.96355 0.0
H1855 H 0.64774 0.19289 0.93446 0.0
C1856 C 0.60411 0.16569 0.96222 0.0
C1857 C 0.60182 0.17742 0.94027 0.0
C1858 C 0.6157 0.15585 0.96711 0.0
C1859 C 0.62525 0.15793 0.95033 0.0
C1860 C 0.623 0.17002 0.92867 0.0
H1861 H 0.68622 0.07502 0.90806 0.0
H1862 H 0.66641 0.09294 0.91701 0.0
C1863 C 0.61147 0.17963 0.9237 0.0
C1864 C 0.63735 0.14618 0.95437 0.0
H1865 H 0.6681 0.15737 0.95257 0.0
C1866 C 0.63787 0.12087 0.95634 0.0
C1867 C 0.64842 0.15952 0.95408 0.0
C1868 C 0.64849 0.18679 0.95335 0.0
C1869 C 0.64911 0.10851 0.95648 0.0
C1870 C 0.66016 0.12176 0.95437 0.0
C1871 C 0.65966 0.14714 0.95396 0.0
C1872 C 0.67214 0.10961 0.95023 0.0
C1873 C 0.64907 0.08129 0.95837 0.0
C1874 C 0.6821 0.11313 0.96582 0.0
C1875 C 0.69355 0.10276 0.96074 0.0
C1876 C 0.69529 0.08905 0.93975 0.0
C1877 C 0.68524 0.08543 0.92439 0.0
C1878 C 0.67384 0.09556 0.92956 0.0
H1879 H 0.64063 0.0746 0.96729 0.0
H1880 H 0.64937 0.0734 0.94009 0.0
H1881 H 0.65714 0.07467 0.9685 0.0
H1882 H 0.68104 0.12408 0.98178 0.0
H1883 H 0.70111 0.10606 0.97286 0.0
H1884 H 0.10976 0.6877 0.90871 0.0
H1885 H 0.12967 0.67052 0.91811 0.0
H1886 H 0.11633 0.64764 0.98721 0.0
H1887 H 0.09612 0.66484 0.97781 0.0
H1888 H 0.14621 0.67964 0.95651 0.0
H1889 H 0.12929 0.58454 0.95554 0.0
H1890 H 0.12046 0.6092 0.94332 0.0
H1891 H 0.1217 0.60553 0.97517 0.0
C1892 C 0.11101 0.67915 0.92601 0.0
C1893 C 0.10127 0.67751 0.94243 0.0
C1894 C 0.12246 0.66939 0.93138 0.0
C1895 C 0.1245 0.65754 0.95324 0.0
C1896 C 0.11493 0.65644 0.97009 0.0
H1897 H 0.20074 0.60609 0.9773 0.0
H1898 H 0.18062 0.62369 0.98663 0.0
C1899 C 0.10341 0.66641 0.96476 0.0
C1900 C 0.13656 0.64572 0.95751 0.0
H1901 H 0.15047 0.59035 0.95856 0.0
C1902 C 0.14715 0.66013 0.95745 0.0
C1903 C 0.13778 0.62025 0.9585 0.0
C1904 C 0.12675 0.60384 0.95801 0.0
C1905 C 0.15891 0.64976 0.95741 0.0
C1906 C 0.16013 0.62426 0.95758 0.0
C1907 C 0.14953 0.60988 0.9586 0.0
C1908 C 0.17215 0.61225 0.95344 0.0
C1909 C 0.16993 0.66611 0.95573 0.0
C1910 C 0.17399 0.59942 0.93207 0.0
C1911 C 0.1854 0.58944 0.92673 0.0
C1912 C 0.19528 0.59183 0.94271 0.0
C1913 C 0.19334 0.60393 0.9646 0.0
C1914 C 0.18186 0.61412 0.96988 0.0
H1915 H 0.16736 0.68528 0.95247 0.0
H1916 H 0.17515 0.66521 0.97275 0.0
H1917 H 0.17607 0.66007 0.94106 0.0
H1918 H 0.16666 0.59768 0.91913 0.0
H1919 H 0.1865 0.58012 0.9098 0.0
H1920 H 0.44641 0.9339 0.72532 0.0
H1921 H 0.42581 0.91823 0.73396 0.0
H1922 H 0.42258 0.89391 0.66077 0.0
H1923 H 0.44271 0.91016 0.6519 0.0
H1924 H 0.40238 0.91524 0.67357 0.0
H1925 H 0.415 0.84984 0.74488 0.0
H1926 H 0.41911 0.88059 0.75138 0.0
H1927 H 0.4263 0.86509 0.72679 0.0
C1928 C 0.44128 0.92518 0.71113 0.0
C1929 C 0.44623 0.92338 0.68791 0.0
C1930 C 0.42953 0.91605 0.71612 0.0
C1931 C 0.42262 0.90453 0.6981 0.0
C1932 C 0.42764 0.90272 0.67501 0.0
H1933 H 0.3626 0.80381 0.70622 0.0
H1934 H 0.38218 0.8251 0.70564 0.0
C1935 C 0.43922 0.91205 0.66997 0.0
C1936 C 0.41009 0.89466 0.70263 0.0
H1937 H 0.394 0.85339 0.7358 0.0
C1938 C 0.40055 0.90177 0.68727 0.0
C1939 C 0.40766 0.87689 0.72034 0.0
C1940 C 0.41756 0.86744 0.73666 0.0
C1941 C 0.38885 0.89128 0.68861 0.0
C1942 C 0.38637 0.87369 0.70647 0.0
C1943 C 0.39582 0.86696 0.72221 0.0
C1944 C 0.37432 0.86095 0.70808 0.0
C1945 C 0.37946 0.89837 0.67006 0.0
C1946 C 0.36328 0.87385 0.71012 0.0
C1947 C 0.35202 0.86168 0.71004 0.0
C1948 C 0.35154 0.83628 0.70849 0.0
C1949 C 0.3626 0.82337 0.70743 0.0
C1950 C 0.37384 0.83555 0.70714 0.0
H1951 H 0.38378 0.90663 0.65399 0.0
H1952 H 0.374 0.8825 0.66421 0.0
H1953 H 0.37316 0.91196 0.67787 0.0
H1954 H 0.36336 0.89337 0.71162 0.0
H1955 H 0.34368 0.87217 0.7112 0.0
H1956 H 0.93564 0.43742 0.66306 0.0
H1957 H 0.91564 0.42139 0.67377 0.0
H1958 H 0.93004 0.39586 0.74109 0.0
H1959 H 0.95033 0.41211 0.7304 0.0
H1960 H 0.91681 0.36034 0.71416 0.0
H1961 H 0.88997 0.44461 0.72243 0.0
H1962 H 0.89893 0.4439 0.6955 0.0
H1963 H 0.90647 0.44416 0.72417 0.0
C1964 C 0.93457 0.42869 0.68032 0.0
C1965 C 0.94461 0.42606 0.69587 0.0
C1966 C 0.92307 0.41967 0.6865 0.0
C1967 C 0.92125 0.40768 0.70837 0.0
C1968 C 0.9312 0.40525 0.7242 0.0
H1969 H 0.84477 0.35707 0.72807 0.0
H1970 H 0.86492 0.37349 0.73949 0.0
C1971 C 0.94277 0.41461 0.71812 0.0
C1972 C 0.90917 0.39622 0.71334 0.0
H1973 H 0.87853 0.4084 0.71277 0.0
C1974 C 0.90845 0.37088 0.71444 0.0
C1975 C 0.89823 0.40989 0.71399 0.0
C1976 C 0.89842 0.43717 0.71421 0.0
C1977 C 0.89709 0.35886 0.71434 0.0
C1978 C 0.88617 0.37252 0.71288 0.0
C1979 C 0.88688 0.39787 0.71365 0.0
C1980 C 0.87415 0.36098 0.70749 0.0
C1981 C 0.8969 0.33159 0.71497 0.0
C1982 C 0.87262 0.34855 0.68578 0.0
C1983 C 0.8612 0.33942 0.6792 0.0
C1984 C 0.85096 0.34239 0.69415 0.0
C1985 C 0.8525 0.35431 0.71624 0.0
C1986 C 0.86399 0.36376 0.72274 0.0
H1987 H 0.90522 0.32429 0.72379 0.0
H1988 H 0.8887 0.32473 0.72457 0.0
H1989 H 0.89667 0.32457 0.69634 0.0
H1990 H 0.88023 0.34656 0.67349 0.0
H1991 H 0.86037 0.33034 0.66207 0.0
H1992 H 0.36092 0.44229 0.60102 0.0
H1993 H 0.38068 0.42487 0.59085 0.0
H1994 H 0.36582 0.39745 0.52463 0.0
H1995 H 0.34579 0.41494 0.53481 0.0
H1996 H 0.37865 0.36256 0.55137 0.0
H1997 H 0.40656 0.44544 0.54205 0.0
H1998 H 0.39789 0.44529 0.56935 0.0
H1999 H 0.39005 0.44586 0.54099 0.0
C2000 C 0.36183 0.43283 0.58411 0.0
C2001 C 0.35173 0.43005 0.56873 0.0
C2002 C 0.37321 0.42301 0.57824 0.0
C2003 C 0.37483 0.41013 0.55681 0.0
C2004 C 0.36482 0.40751 0.54117 0.0
H2005 H 0.45035 0.35633 0.53318 0.0
H2006 H 0.43028 0.37408 0.52361 0.0
C2007 C 0.35339 0.41757 0.54697 0.0
C2008 C 0.38678 0.39806 0.552 0.0
H2009 H 0.41758 0.40873 0.55136 0.0
C2010 C 0.38715 0.37269 0.55086 0.0
C2011 C 0.3979 0.41119 0.55098 0.0
C2012 C 0.3981 0.43847 0.55065 0.0
C2013 C 0.39833 0.36012 0.55043 0.0
C2014 C 0.40946 0.37322 0.55144 0.0
C2015 C 0.40908 0.39861 0.55085 0.0
C2016 C 0.42141 0.36104 0.55581 0.0
C2017 C 0.39813 0.33285 0.54956 0.0
C2018 C 0.42312 0.34787 0.57704 0.0
C2019 C 0.43451 0.33792 0.58256 0.0
C2020 C 0.44454 0.34084 0.56702 0.0
C2021 C 0.4428 0.35359 0.54544 0.0
C2022 C 0.43135 0.3638 0.54 0.0
H2023 H 0.38961 0.32605 0.54105 0.0
H2024 H 0.40611 0.32566 0.53955 0.0
H2025 H 0.39846 0.32564 0.56812 0.0
H2026 H 0.41571 0.34588 0.58977 0.0
H2027 H 0.43549 0.32823 0.59934 0.0
H2028 H 0.84509 0.91358 0.53107 0.0
H2029 H 0.86531 0.89676 0.52094 0.0
H2030 H 0.87908 0.91941 0.58977 0.0
H2031 H 0.85914 0.93604 0.59994 0.0
H2032 H 0.89518 0.92917 0.54917 0.0
H2033 H 0.87885 0.83373 0.55409 0.0
H2034 H 0.8707 0.85459 0.53515 0.0
H2035 H 0.87026 0.85834 0.56706 0.0
C2036 C 0.85248 0.91519 0.54388 0.0
C2037 C 0.85046 0.926 0.56638 0.0
C2038 C 0.86401 0.90548 0.53813 0.0
C2039 C 0.87369 0.90665 0.5547 0.0
C2040 C 0.87177 0.91825 0.57671 0.0
H2041 H 0.93608 0.83524 0.60188 0.0
H2042 H 0.91616 0.85152 0.59111 0.0
C2043 C 0.86031 0.92769 0.58253 0.0
C2044 C 0.88575 0.89501 0.5501 0.0
H2045 H 0.90001 0.84 0.5515 0.0
C2046 C 0.89625 0.90966 0.54908 0.0
C2047 C 0.88713 0.86956 0.55024 0.0
C2048 C 0.87619 0.85298 0.55179 0.0
C2049 C 0.90807 0.89958 0.54927 0.0
C2050 C 0.90945 0.87415 0.55047 0.0
C2051 C 0.89895 0.85948 0.55038 0.0
C2052 C 0.92152 0.86275 0.55551 0.0
C2053 C 0.91901 0.91622 0.54976 0.0
C2054 C 0.93119 0.86318 0.53886 0.0
C2055 C 0.94272 0.85367 0.54497 0.0
C2056 C 0.94475 0.8438 0.56789 0.0
C2057 C 0.93491 0.84286 0.58414 0.0
C2058 C 0.92346 0.85209 0.57799 0.0
H2059 H 0.91635 0.93556 0.55118 0.0
H2060 H 0.92503 0.91163 0.56512 0.0
H2061 H 0.9244 0.91381 0.53308 0.0
H2062 H 0.92987 0.87113 0.52131 0.0
H2063 H 0.9501 0.85469 0.53206 0.0
H2064 H 0.61157 0.08143 0.35199 0.0
H2065 H 0.63129 0.09927 0.34202 0.0
H2066 H 0.6172 0.12213 0.27352 0.0
H2067 H 0.59719 0.1043 0.28351 0.0
H2068 H 0.64762 0.09103 0.30365 0.0
H2069 H 0.62994 0.18548 0.30443 0.0
H2070 H 0.62131 0.16051 0.31668 0.0
H2071 H 0.62247 0.16428 0.28482 0.0
C2072 C 0.61262 0.0901 0.3347 0.0
C2073 C 0.60273 0.09156 0.31863 0.0
C2074 C 0.62396 0.10026 0.329 0.0
C2075 C 0.62573 0.11231 0.30715 0.0
C2076 C 0.61601 0.11319 0.29064 0.0
H2077 H 0.70164 0.16555 0.28178 0.0
H2078 H 0.68159 0.1474 0.27273 0.0
C2079 C 0.60461 0.10285 0.2963 0.0
C2080 C 0.63767 0.12457 0.30257 0.0
H2081 H 0.65113 0.18043 0.30071 0.0
C2082 C 0.64839 0.11056 0.30253 0.0
C2083 C 0.63869 0.15008 0.30134 0.0
C2084 C 0.62753 0.1661 0.30195 0.0
C2085 C 0.66006 0.12136 0.30226 0.0
C2086 C 0.66108 0.1469 0.30181 0.0
C2087 C 0.65036 0.16087 0.30087 0.0
C2088 C 0.67302 0.15941 0.30562 0.0
C2089 C 0.67122 0.10541 0.30393 0.0
C2090 C 0.67478 0.17283 0.32667 0.0
C2091 C 0.68614 0.18316 0.33182 0.0
C2092 C 0.69607 0.18053 0.31599 0.0
C2093 C 0.6942 0.16792 0.29437 0.0
C2094 C 0.68277 0.1574 0.28926 0.0
H2095 H 0.66881 0.08624 0.30767 0.0
H2096 H 0.67628 0.1061 0.28671 0.0
H2097 H 0.67744 0.11195 0.31826 0.0
H2098 H 0.66743 0.17472 0.33955 0.0
H2099 H 0.68719 0.19287 0.34856 0.0
H2100 H 0.2016 0.66351 0.28291 0.0
H2101 H 0.1814 0.64665 0.27261 0.0
H2102 H 0.16667 0.6748 0.33862 0.0
H2103 H 0.18658 0.69149 0.34893 0.0
H2104 H 0.16823 0.61218 0.30033 0.0
H2105 H 0.14108 0.69568 0.28904 0.0
H2106 H 0.15759 0.6955 0.28772 0.0
H2107 H 0.14986 0.69597 0.31621 0.0
C2108 C 0.19398 0.66645 0.29497 0.0
C2109 C 0.19571 0.67885 0.31675 0.0
C2110 C 0.18246 0.65675 0.28911 0.0
C2111 C 0.17246 0.65974 0.30469 0.0
C2112 C 0.17415 0.67264 0.32607 0.0
H2113 H 0.11145 0.58187 0.35112 0.0
H2114 H 0.13131 0.59847 0.34029 0.0
C2115 C 0.18561 0.68204 0.33203 0.0
C2116 C 0.16043 0.64793 0.3 0.0
H2117 H 0.12974 0.65959 0.29958 0.0
C2118 C 0.15983 0.62256 0.29961 0.0
C2119 C 0.14944 0.66139 0.29875 0.0
C2120 C 0.14951 0.68865 0.2977 0.0
C2121 C 0.14853 0.61035 0.2998 0.0
C2122 C 0.13754 0.62385 0.30064 0.0
C2123 C 0.13814 0.64919 0.2992 0.0
C2124 C 0.12552 0.61223 0.30583 0.0
C2125 C 0.14846 0.58307 0.29986 0.0
C2126 C 0.11552 0.61458 0.29015 0.0
C2127 C 0.10402 0.60496 0.29631 0.0
C2128 C 0.10231 0.59325 0.31848 0.0
C2129 C 0.1124 0.59076 0.33391 0.0
C2130 C 0.12384 0.60011 0.32767 0.0
H2131 H 0.15688 0.57569 0.29145 0.0
H2132 H 0.14813 0.57652 0.31865 0.0
H2133 H 0.14037 0.57582 0.29021 0.0
H2134 H 0.11657 0.62407 0.27329 0.0
H2135 H 0.09642 0.60733 0.2841 0.0
H2136 H 0.6974 0.59027 0.47644 0.0
H2137 H 0.67682 0.6057 0.48577 0.0
H2138 H 0.67092 0.62068 0.41081 0.0
H2139 H 0.69101 0.60485 0.40137 0.0
H2140 H 0.66639 0.6494 0.47977 0.0
H2141 H 0.64051 0.58347 0.4257 0.0
H2142 H 0.65652 0.57954 0.43239 0.0
H2143 H 0.6518 0.59826 0.40759 0.0
C2144 C 0.69164 0.59664 0.46197 0.0
C2145 C 0.69584 0.59599 0.43812 0.0
C2146 C 0.67989 0.6055 0.46731 0.0
C2147 C 0.67215 0.61382 0.44892 0.0
C2148 C 0.67649 0.61365 0.42526 0.0
H2149 H 0.61333 0.71715 0.45161 0.0
H2150 H 0.63281 0.69569 0.45263 0.0
C2151 C 0.68809 0.60468 0.41992 0.0
C2152 C 0.65968 0.62353 0.45409 0.0
H2153 H 0.63011 0.62093 0.43448 0.0
C2154 C 0.65842 0.64293 0.47015 0.0
C2155 C 0.64916 0.61483 0.44201 0.0
C2156 C 0.64954 0.5927 0.42619 0.0
C2157 C 0.6471 0.65462 0.47347 0.0
C2158 C 0.63682 0.64725 0.45979 0.0
C2159 C 0.63797 0.62702 0.4447 0.0
C2160 C 0.62491 0.66054 0.46018 0.0
C2161 C 0.64633 0.67467 0.49176 0.0
C2162 C 0.61381 0.64798 0.4632 0.0
C2163 C 0.60259 0.66018 0.46197 0.0
C2164 C 0.6022 0.68528 0.45791 0.0
C2165 C 0.61329 0.69787 0.45509 0.0
C2166 C 0.62449 0.68561 0.4559 0.0
H2167 H 0.65317 0.67208 0.50627 0.0
H2168 H 0.64839 0.69219 0.48291 0.0
H2169 H 0.6371 0.67571 0.49995 0.0
H2170 H 0.61382 0.62864 0.46637 0.0
H2171 H 0.59422 0.64993 0.46424 0.0
H2172 H 0.20059 0.1065 0.47722 0.0
H2173 H 0.18036 0.12366 0.48656 0.0
H2174 H 0.16646 0.09666 0.41939 0.0
H2175 H 0.18642 0.07963 0.41004 0.0
H2176 H 0.16778 0.15874 0.45869 0.0
H2177 H 0.14007 0.07545 0.46728 0.0
H2178 H 0.15655 0.07534 0.46935 0.0
H2179 H 0.14917 0.07568 0.44052 0.0
C2180 C 0.19315 0.10388 0.46468 0.0
C2181 C 0.19513 0.09167 0.44289 0.0
C2182 C 0.18161 0.11376 0.46999 0.0
C2183 C 0.17182 0.11119 0.45382 0.0
C2184 C 0.17376 0.09851 0.43238 0.0
H2185 H 0.11074 0.19218 0.40983 0.0
H2186 H 0.13057 0.17452 0.41916 0.0
C2187 C 0.18524 0.0889 0.42699 0.0
C2188 C 0.15979 0.12312 0.45808 0.0
H2189 H 0.12902 0.112 0.45781 0.0
C2190 C 0.15932 0.1485 0.45899 0.0
C2191 C 0.14872 0.10983 0.45876 0.0
C2192 C 0.14863 0.08255 0.45918 0.0
C2193 C 0.14808 0.1609 0.45896 0.0
C2194 C 0.13701 0.14762 0.45776 0.0
C2195 C 0.13748 0.12224 0.45848 0.0
C2196 C 0.12502 0.15962 0.45333 0.0
C2197 C 0.14816 0.18818 0.4596 0.0
C2198 C 0.11516 0.15698 0.46932 0.0
C2199 C 0.1037 0.1672 0.46403 0.0
C2200 C 0.10186 0.17986 0.44243 0.0
C2201 C 0.1118 0.18258 0.42663 0.0
C2202 C 0.12321 0.17261 0.43201 0.0
H2203 H 0.15667 0.19522 0.46797 0.0
H2204 H 0.14773 0.19523 0.441 0.0
H2205 H 0.14017 0.19528 0.46966 0.0
H2206 H 0.11631 0.14685 0.48579 0.0
H2207 H 0.09622 0.16462 0.4765 0.0
H2208 H 0.31279 0.03334 0.14818 0.0
H2209 H 0.31404 0.07679 0.1552 0.0
H2210 H 0.32961 0.08688 0.08492 0.0
H2211 H 0.32845 0.0432 0.07773 0.0
H2212 H 0.33424 0.10734 0.15535 0.0
H2213 H 0.301 0.13443 0.08504 0.0
H2214 H 0.30257 0.10354 0.09506 0.0
H2215 H 0.3135 0.11625 0.07456 0.0
C2216 C 0.31659 0.04467 0.13424 0.0
C2217 C 0.32052 0.03464 0.11235 0.0
C2218 C 0.31724 0.06959 0.13827 0.0
C2219 C 0.32177 0.08515 0.1205 0.0
C2220 C 0.32584 0.07528 0.09871 0.0
H2221 H 0.32879 0.24214 0.11514 0.0
H2222 H 0.3302 0.19873 0.10729 0.0
C2223 C 0.32517 0.05028 0.09463 0.0
C2224 C 0.32227 0.11165 0.12503 0.0
H2225 H 0.31106 0.16596 0.10576 0.0
C2226 C 0.32918 0.12017 0.1445 0.0
C2227 C 0.31565 0.12838 0.11087 0.0
C2228 C 0.30767 0.12026 0.09033 0.0
C2229 C 0.32973 0.14495 0.15011 0.0
C2230 C 0.32302 0.16164 0.1361 0.0
C2231 C 0.31621 0.15315 0.11647 0.0
C2232 C 0.32278 0.18797 0.14161 0.0
C2233 C 0.33763 0.15307 0.17076 0.0
C2234 C 0.31816 0.19641 0.16356 0.0
C2235 C 0.31731 0.22128 0.16809 0.0
C2236 C 0.32096 0.23823 0.15067 0.0
C2237 C 0.32575 0.22965 0.12884 0.0
C2238 C 0.3266 0.20482 0.12435 0.0
H2239 H 0.34466 0.13933 0.17534 0.0
H2240 H 0.3423 0.17043 0.16659 0.0
H2241 H 0.33181 0.15585 0.1868 0.0
H2242 H 0.3149 0.18378 0.17696 0.0
H2243 H 0.31339 0.22719 0.18491 0.0
H2244 H 0.9607 0.03237 0.12932 0.0
H2245 H 0.96011 0.07593 0.12141 0.0
H2246 H 0.99097 0.08626 0.16854 0.0
H2247 H 0.9911 0.04278 0.17738 0.0
H2248 H 0.9758 0.12125 0.17488 0.0
H2249 H 0.98191 0.11138 0.07705 0.0
H2250 H 0.96838 0.09612 0.08704 0.0
H2251 H 0.98317 0.08608 0.09727 0.0
C2252 C 0.9673 0.04403 0.13803 0.0
C2253 C 0.97598 0.03428 0.15384 0.0
C2254 C 0.96705 0.06888 0.13334 0.0
C2255 C 0.97574 0.0844 0.14374 0.0
C2256 C 0.98422 0.07471 0.16011 0.0
H2257 H 0.99084 0.22913 0.08825 0.0
H2258 H 0.99096 0.18578 0.09756 0.0
C2259 C 0.98428 0.0499 0.16522 0.0
C2260 C 0.97596 0.11069 0.13773 0.0
H2261 H 0.97605 0.15055 0.09087 0.0
C2262 C 0.97594 0.12763 0.1565 0.0
C2263 C 0.97641 0.11917 0.11375 0.0
C2264 C 0.97761 0.10222 0.09266 0.0
C2265 C 0.97616 0.15265 0.15201 0.0
C2266 C 0.97586 0.16111 0.12802 0.0
C2267 C 0.97608 0.14418 0.10926 0.0
C2268 C 0.97556 0.18739 0.12195 0.0
C2269 C 0.97708 0.16964 0.17312 0.0
C2270 C 0.9667 0.20274 0.13202 0.0
C2271 C 0.9668 0.22755 0.12705 0.0
C2272 C 0.97549 0.23741 0.11129 0.0
C2273 C 0.984 0.22194 0.10033 0.0
C2274 C 0.98408 0.1972 0.10573 0.0
H2275 H 0.98129 0.1606 0.18887 0.0
H2276 H 0.98258 0.18593 0.16868 0.0
H2277 H 0.96777 0.17549 0.17845 0.0
H2278 H 0.95973 0.19559 0.14384 0.0
H2279 H 0.96005 0.23908 0.13544 0.0
H2280 H 0.71633 0.99106 0.86143 0.0
H2281 H 0.7149 0.94776 0.85301 0.0
H2282 H 0.73106 0.93193 0.92171 0.0
H2283 H 0.73284 0.97528 0.93001 0.0
H2284 H 0.74199 0.90717 0.88366 0.0
H2285 H 0.69152 0.89713 0.88104 0.0
H2286 H 0.69738 0.92066 0.86201 0.0
H2287 H 0.69897 0.9232 0.89398 0.0
C2288 C 0.71956 0.97839 0.87479 0.0
C2289 C 0.7247 0.9867 0.8964 0.0
C2290 C 0.71862 0.95362 0.87004 0.0
C2291 C 0.72274 0.93659 0.88684 0.0
C2292 C 0.72775 0.94476 0.90856 0.0
H2293 H 0.71229 0.78138 0.88823 0.0
H2294 H 0.71184 0.82496 0.89553 0.0
C2295 C 0.72867 0.96956 0.91336 0.0
C2296 C 0.72241 0.91032 0.88123 0.0
H2297 H 0.70319 0.86355 0.8675 0.0
C2298 C 0.73351 0.89761 0.88018 0.0
C2299 C 0.71133 0.89785 0.87685 0.0
C2300 C 0.6991 0.91031 0.87872 0.0
C2301 C 0.73383 0.87282 0.87463 0.0
C2302 C 0.72278 0.86048 0.86967 0.0
C2303 C 0.71167 0.87312 0.871 0.0
C2304 C 0.72253 0.83418 0.86421 0.0
C2305 C 0.74599 0.85994 0.87463 0.0
C2306 C 0.72844 0.82489 0.84384 0.0
C2307 C 0.72875 0.79991 0.83966 0.0
C2308 C 0.72315 0.78375 0.85579 0.0
C2309 C 0.71687 0.79325 0.87569 0.0
C2310 C 0.71654 0.81818 0.87981 0.0
H2311 H 0.75316 0.87056 0.88405 0.0
H2312 H 0.74521 0.84193 0.88332 0.0
H2313 H 0.74902 0.85715 0.85585 0.0
H2314 H 0.73295 0.83696 0.83134 0.0
H2315 H 0.73371 0.79323 0.82424 0.0
H2316 H 0.08165 0.98861 0.89371 0.0
H2317 H 0.08258 0.94509 0.90104 0.0
H2318 H 0.06311 0.93193 0.83514 0.0
H2319 H 0.06183 0.97558 0.82799 0.0
H2320 H 0.05348 0.90689 0.87406 0.0
H2321 H 0.10364 0.89361 0.86866 0.0
H2322 H 0.09913 0.91702 0.88913 0.0
H2323 H 0.09619 0.92053 0.85761 0.0
C2324 C 0.07758 0.9765 0.88072 0.0
C2325 C 0.07164 0.98566 0.86026 0.0
C2326 C 0.07824 0.95157 0.88483 0.0
C2327 C 0.07305 0.93522 0.86851 0.0
C2328 C 0.06725 0.94423 0.8479 0.0
H2329 H 0.08126 0.77902 0.8669 0.0
H2330 H 0.08196 0.82241 0.85864 0.0
C2331 C 0.0666 0.9692 0.84374 0.0
C2332 C 0.07313 0.90881 0.87361 0.0
H2333 H 0.09201 0.86079 0.88439 0.0
C2334 C 0.0619 0.89678 0.87622 0.0
C2335 C 0.08413 0.8956 0.87624 0.0
C2336 C 0.09646 0.90726 0.87255 0.0
C2337 C 0.06136 0.87199 0.88175 0.0
C2338 C 0.07235 0.85895 0.88514 0.0
C2339 C 0.08359 0.87088 0.88212 0.0
C2340 C 0.07236 0.8327 0.89095 0.0
C2341 C 0.04901 0.8599 0.88351 0.0
C2342 C 0.06698 0.82405 0.91216 0.0
C2343 C 0.06652 0.79917 0.9169 0.0
C2344 C 0.07145 0.78245 0.90051 0.0
C2345 C 0.07719 0.79131 0.87969 0.0
C2346 C 0.07766 0.81614 0.875 0.0
H2347 H 0.04174 0.87082 0.87479 0.0
H2348 H 0.04919 0.84169 0.87511 0.0
H2349 H 0.04655 0.85766 0.90268 0.0
H2350 H 0.06303 0.83653 0.92494 0.0
H2351 H 0.06198 0.79303 0.93303 0.0
H2352 H 0.32889 0.74525 0.61145 0.0
H2353 H 0.32834 0.7025 0.60033 0.0
H2354 H 0.3139 0.68454 0.66998 0.0
H2355 H 0.31458 0.72714 0.68143 0.0
H2356 H 0.34036 0.66357 0.62249 0.0
H2357 H 0.29005 0.6508 0.62376 0.0
H2358 H 0.29712 0.68034 0.62311 0.0
H2359 H 0.29615 0.66375 0.65076 0.0
C2360 C 0.32564 0.73227 0.62449 0.0
C2361 C 0.32175 0.73983 0.64736 0.0
C2362 C 0.32527 0.7078 0.61802 0.0
C2363 C 0.32092 0.69035 0.63419 0.0
C2364 C 0.31704 0.69775 0.65701 0.0
H2365 H 0.33238 0.53607 0.63868 0.0
H2366 H 0.3328 0.57994 0.64405 0.0
C2367 C 0.31743 0.72219 0.66353 0.0
C2368 C 0.32085 0.6643 0.62749 0.0
H2369 H 0.30216 0.61509 0.62132 0.0
C2370 C 0.332 0.653 0.62208 0.0
C2371 C 0.30992 0.65059 0.62665 0.0
C2372 C 0.29761 0.66199 0.63115 0.0
C2373 C 0.33256 0.6282 0.61657 0.0
C2374 C 0.3217 0.61428 0.61671 0.0
C2375 C 0.3105 0.62573 0.6214 0.0
C2376 C 0.3218 0.58768 0.61277 0.0
C2377 C 0.34478 0.61713 0.61057 0.0
C2378 C 0.31535 0.57737 0.59354 0.0
C2379 C 0.31505 0.5522 0.59048 0.0
C2380 C 0.32107 0.53685 0.60678 0.0
C2381 C 0.32758 0.54731 0.62591 0.0
C2382 C 0.32793 0.57243 0.62888 0.0
H2383 H 0.35152 0.63106 0.60491 0.0
H2384 H 0.34846 0.60789 0.62669 0.0
H2385 H 0.34388 0.60349 0.59605 0.0
H2386 H 0.31049 0.5888 0.58099 0.0
H2387 H 0.30982 0.54477 0.57576 0.0
H2388 H 0.95836 0.53153 0.63017 0.0
H2389 H 0.95774 0.57512 0.62238 0.0
H2390 H 0.98929 0.58511 0.66779 0.0
H2391 H 0.98946 0.54161 0.67654 0.0
H2392 H 0.97433 0.62021 0.67504 0.0
H2393 H 0.97893 0.61047 0.57687 0.0
H2394 H 0.96551 0.59535 0.58762 0.0
H2395 H 0.98042 0.58511 0.59696 0.0
C2396 C 0.9651 0.54313 0.63852 0.0
C2397 C 0.97399 0.53327 0.65383 0.0
C2398 C 0.96484 0.56799 0.6339 0.0
C2399 C 0.97371 0.58342 0.64385 0.0
C2400 C 0.98239 0.57363 0.65972 0.0
H2401 H 0.98869 0.72778 0.58761 0.0
H2402 H 0.98864 0.68444 0.59691 0.0
C2403 C 0.98248 0.54881 0.66478 0.0
C2404 C 0.9739 0.60973 0.63787 0.0
H2405 H 0.97344 0.64967 0.5911 0.0
C2406 C 0.97421 0.62662 0.65666 0.0
C2407 C 0.97402 0.61824 0.61389 0.0
C2408 C 0.97484 0.60133 0.59271 0.0
C2409 C 0.97447 0.65166 0.65222 0.0
C2410 C 0.97386 0.66018 0.62827 0.0
C2411 C 0.97371 0.64327 0.60947 0.0
C2412 C 0.97365 0.68647 0.62224 0.0
C2413 C 0.97579 0.66858 0.6733 0.0
C2414 C 0.96508 0.70208 0.63287 0.0
C2415 C 0.96528 0.72689 0.62791 0.0
C2416 C 0.97379 0.7365 0.61161 0.0
C2417 C 0.98199 0.72078 0.60012 0.0
C2418 C 0.98197 0.69604 0.6055 0.0
H2419 H 0.98018 0.65942 0.6888 0.0
H2420 H 0.98131 0.68476 0.66859 0.0
H2421 H 0.96659 0.67462 0.67914 0.0
H2422 H 0.95825 0.69513 0.64512 0.0
H2423 H 0.95877 0.73863 0.63673 0.0
H2424 H 0.71484 0.49225 0.36192 0.0
H2425 H 0.71391 0.44889 0.35348 0.0
H2426 H 0.73167 0.43394 0.42084 0.0
H2427 H 0.73278 0.47725 0.4293 0.0
H2428 H 0.73392 0.41734 0.34966 0.0
H2429 H 0.70218 0.38788 0.42155 0.0
H2430 H 0.70374 0.41915 0.41262 0.0
H2431 H 0.71491 0.40551 0.43199 0.0
C2432 C 0.71853 0.47978 0.37499 0.0
C2433 C 0.7239 0.48834 0.39631 0.0
C2434 C 0.71794 0.45497 0.37016 0.0
C2435 C 0.7226 0.43817 0.38662 0.0
C2436 C 0.72779 0.44656 0.40809 0.0
H2437 H 0.73535 0.28499 0.39323 0.0
H2438 H 0.73348 0.32844 0.39963 0.0
C2439 C 0.7284 0.47138 0.41293 0.0
C2440 C 0.72262 0.41195 0.38078 0.0
H2441 H 0.71277 0.35681 0.4006 0.0
C2442 C 0.72921 0.40409 0.36064 0.0
C2443 C 0.71646 0.39474 0.39516 0.0
C2444 C 0.70882 0.4022 0.41642 0.0
C2445 C 0.73016 0.3794 0.35495 0.0
C2446 C 0.72415 0.36213 0.36953 0.0
C2447 C 0.71738 0.37005 0.38944 0.0
C2448 C 0.72521 0.33569 0.36516 0.0
C2449 C 0.73797 0.37196 0.3339 0.0
C2450 C 0.72112 0.32521 0.34367 0.0
C2451 C 0.72217 0.30022 0.33993 0.0
C2452 C 0.72721 0.28522 0.35775 0.0
C2453 C 0.73124 0.29586 0.37927 0.0
C2454 C 0.73023 0.32076 0.38293 0.0
H2455 H 0.74423 0.3867 0.32816 0.0
H2456 H 0.7435 0.35572 0.33829 0.0
H2457 H 0.73196 0.36741 0.31851 0.0
H2458 H 0.71698 0.33631 0.32988 0.0
H2459 H 0.71883 0.29259 0.32331 0.0
H2460 H 0.08063 0.2797 0.36409 0.0
H2461 H 0.08186 0.32306 0.3558 0.0
H2462 H 0.06615 0.33834 0.42502 0.0
H2463 H 0.06476 0.295 0.43337 0.0
H2464 H 0.06224 0.3556 0.35413 0.0
H2465 H 0.09611 0.38304 0.42298 0.0
H2466 H 0.09392 0.35191 0.41413 0.0
H2467 H 0.08341 0.36604 0.43456 0.0
C2468 C 0.07745 0.29224 0.3776 0.0
C2469 C 0.07259 0.28376 0.39941 0.0
C2470 C 0.07821 0.31705 0.37285 0.0
C2471 C 0.07421 0.33396 0.38987 0.0
C2472 C 0.06952 0.32564 0.41181 0.0
H2473 H 0.06413 0.48813 0.3975 0.0
H2474 H 0.06541 0.44459 0.4039 0.0
C2475 C 0.06875 0.3008 0.41658 0.0
C2476 C 0.07437 0.36023 0.38416 0.0
H2477 H 0.08552 0.41474 0.40301 0.0
C2478 C 0.06741 0.36853 0.36468 0.0
C2479 C 0.08112 0.37705 0.39795 0.0
C2480 C 0.08916 0.3691 0.41845 0.0
C2481 C 0.0667 0.39329 0.35907 0.0
C2482 C 0.07333 0.41017 0.37304 0.0
C2483 C 0.08044 0.4018 0.39231 0.0
C2484 C 0.07263 0.43668 0.36868 0.0
C2485 C 0.05851 0.40122 0.33877 0.0
C2486 C 0.07634 0.44684 0.34675 0.0
C2487 C 0.07563 0.47189 0.34301 0.0
C2488 C 0.07131 0.48728 0.36123 0.0
C2489 C 0.06767 0.47696 0.38319 0.0
C2490 C 0.06835 0.452 0.38686 0.0
H2491 H 0.05185 0.38691 0.33374 0.0
H2492 H 0.05339 0.41786 0.34361 0.0
H2493 H 0.0642 0.40529 0.32279 0.0
H2494 H 0.07991 0.43544 0.33262 0.0
H2495 H 0.07865 0.47924 0.32603 0.0
H2496 H 0.80743 0.0425 0.58449 0.0
H2497 H 0.80827 0.08587 0.59328 0.0
H2498 H 0.83775 0.07333 0.64318 0.0
H2499 H 0.83641 0.0298 0.63527 0.0
H2500 H 0.82267 0.10265 0.66244 0.0
H2501 H 0.83093 0.13646 0.57068 0.0
H2502 H 0.81709 0.11917 0.57199 0.0
H2503 H 0.83155 0.10471 0.57791 0.0
C2504 C 0.81419 0.04913 0.59707 0.0
C2505 C 0.82191 0.0329 0.6091 0.0
C2506 C 0.81472 0.07394 0.60202 0.0
C2507 C 0.82326 0.08311 0.61855 0.0
C2508 C 0.8311 0.06683 0.63033 0.0
H2509 H 0.83774 0.23807 0.62839 0.0
H2510 H 0.839 0.19442 0.62131 0.0
C2511 C 0.83036 0.04198 0.62579 0.0
C2512 C 0.82367 0.10944 0.62444 0.0
H2513 H 0.82456 0.16587 0.59952 0.0
C2514 C 0.82321 0.11645 0.64865 0.0
C2515 C 0.82458 0.12759 0.60658 0.0
C2516 C 0.8262 0.12158 0.58038 0.0
C2517 C 0.82347 0.14094 0.65546 0.0
C2518 C 0.82364 0.1591 0.63754 0.0
C2519 C 0.82428 0.15207 0.61334 0.0
C2520 C 0.8233 0.18546 0.6433 0.0
C2521 C 0.82386 0.14692 0.68185 0.0
C2522 C 0.81413 0.19514 0.65816 0.0
C2523 C 0.81362 0.22005 0.66269 0.0
C2524 C 0.82203 0.23584 0.65183 0.0
C2525 C 0.83115 0.22623 0.63691 0.0
C2526 C 0.83184 0.20131 0.63284 0.0
H2527 H 0.82791 0.13186 0.69239 0.0
H2528 H 0.82927 0.16356 0.68532 0.0
H2529 H 0.81441 0.14974 0.68848 0.0
H2530 H 0.80717 0.18355 0.66582 0.0
H2531 H 0.80637 0.2271 0.6739 0.0
H2532 H 0.466 0.04002 0.67976 0.0
H2533 H 0.46406 0.08346 0.67186 0.0
H2534 H 0.48107 0.07381 0.60282 0.0
H2535 H 0.48312 0.03065 0.61056 0.0
H2536 H 0.48254 0.11671 0.66267 0.0
H2537 H 0.45056 0.11234 0.58573 0.0
H2538 H 0.45319 0.08692 0.60539 0.0
H2539 H 0.46391 0.09389 0.58191 0.0
C2540 C 0.46933 0.04712 0.6629 0.0
C2541 C 0.47464 0.03169 0.64575 0.0
C2542 C 0.46816 0.07195 0.65836 0.0
C2543 C 0.4722 0.08182 0.63655 0.0
C2544 C 0.47756 0.06653 0.61949 0.0
H2545 H 0.48214 0.22496 0.57632 0.0
H2546 H 0.48091 0.18138 0.58392 0.0
C2547 C 0.47873 0.04177 0.62398 0.0
C2548 C 0.47139 0.10827 0.632 0.0
H2549 H 0.46041 0.15029 0.59254 0.0
C2550 C 0.47759 0.12408 0.64749 0.0
C2551 C 0.46498 0.11785 0.61211 0.0
C2552 C 0.45768 0.1019 0.59545 0.0
C2553 C 0.47785 0.14914 0.64326 0.0
C2554 C 0.47156 0.15869 0.62321 0.0
C2555 C 0.46525 0.14292 0.60785 0.0
C2556 C 0.47152 0.185 0.61786 0.0
C2557 C 0.48515 0.16511 0.65989 0.0
C2558 C 0.46633 0.20144 0.63405 0.0
C2559 C 0.46696 0.22632 0.62971 0.0
C2560 C 0.47276 0.23532 0.60901 0.0
C2561 C 0.47753 0.21872 0.59234 0.0
C2562 C 0.4769 0.19379 0.59671 0.0
H2563 H 0.49174 0.15452 0.67083 0.0
H2564 H 0.49028 0.17905 0.64965 0.0
H2565 H 0.47883 0.17453 0.67231 0.0
H2566 H 0.46189 0.19503 0.65021 0.0
H2567 H 0.46297 0.23854 0.64269 0.0
H2568 H 0.20965 0.78276 0.38112 0.0
H2569 H 0.20843 0.8264 0.38833 0.0
H2570 H 0.23999 0.83733 0.34308 0.0
H2571 H 0.2407 0.79381 0.33484 0.0
H2572 H 0.22302 0.85472 0.40988 0.0
H2573 H 0.21918 0.88924 0.31727 0.0
H2574 H 0.21784 0.8575 0.3242 0.0
H2575 H 0.23269 0.87129 0.32076 0.0
C2576 C 0.21618 0.79463 0.37245 0.0
C2577 C 0.22519 0.78507 0.35728 0.0
C2578 C 0.21552 0.81953 0.3766 0.0
C2579 C 0.224 0.83538 0.36599 0.0
C2580 C 0.23307 0.82574 0.35086 0.0
H2581 H 0.24024 0.97804 0.42525 0.0
H2582 H 0.23937 0.93467 0.41632 0.0
C2583 C 0.23353 0.80086 0.34624 0.0
C2584 C 0.22374 0.8617 0.37188 0.0
H2585 H 0.22469 0.91824 0.34724 0.0
C2586 C 0.22325 0.86859 0.39613 0.0
C2587 C 0.22385 0.87994 0.35404 0.0
C2588 C 0.22328 0.87411 0.32763 0.0
C2589 C 0.22302 0.89303 0.40302 0.0
C2590 C 0.22387 0.91126 0.38523 0.0
C2591 C 0.22419 0.90437 0.36097 0.0
C2592 C 0.22431 0.93754 0.39122 0.0
C2593 C 0.22153 0.89891 0.42928 0.0
C2594 C 0.21645 0.95386 0.37957 0.0
C2595 C 0.21722 0.97868 0.38415 0.0
C2596 C 0.22571 0.98769 0.40076 0.0
C2597 C 0.23346 0.97143 0.4127 0.0
C2598 C 0.2329 0.94664 0.40768 0.0
H2599 H 0.21683 0.88401 0.43899 0.0
H2600 H 0.23069 0.90123 0.43751 0.0
H2601 H 0.21622 0.9158 0.43194 0.0
H2602 H 0.20975 0.94741 0.36678 0.0
H2603 H 0.21115 0.99091 0.37476 0.0
H2604 H 0.58374 0.98413 0.38742 0.0
H2605 H 0.58378 0.94024 0.39307 0.0
H2606 H 0.55987 0.93194 0.33222 0.0
H2607 H 0.55965 0.97597 0.32663 0.0
H2608 H 0.55237 0.90641 0.37492 0.0
H2609 H 0.60074 0.88814 0.35098 0.0
H2610 H 0.59861 0.912 0.37245 0.0
H2611 H 0.59296 0.91564 0.34243 0.0
C2612 C 0.57851 0.97298 0.3752 0.0
C2613 C 0.5717 0.98358 0.35656 0.0
C2614 C 0.57862 0.94788 0.37834 0.0
C2615 C 0.57192 0.9328 0.36294 0.0
C2616 C 0.56516 0.94325 0.34422 0.0
H2617 H 0.57714 0.77514 0.36025 0.0
H2618 H 0.5766 0.81802 0.34949 0.0
C2619 C 0.56512 0.96839 0.34094 0.0
C2620 C 0.57163 0.90624 0.36704 0.0
H2621 H 0.58979 0.85607 0.36965 0.0
C2622 C 0.56052 0.89535 0.37361 0.0
C2623 C 0.58225 0.89182 0.36512 0.0
C2624 C 0.59431 0.90238 0.35716 0.0
C2625 C 0.55983 0.87051 0.37895 0.0
C2626 C 0.57056 0.85625 0.3779 0.0
C2627 C 0.58159 0.86704 0.37066 0.0
C2628 C 0.57056 0.83014 0.38439 0.0
C2629 C 0.5476 0.85974 0.38551 0.0
C2630 C 0.56744 0.82266 0.40765 0.0
C2631 C 0.5678 0.79814 0.41391 0.0
C2632 C 0.57136 0.78053 0.39707 0.0
C2633 C 0.57448 0.78814 0.37377 0.0
C2634 C 0.57413 0.81267 0.36753 0.0
H2635 H 0.53991 0.87128 0.37933 0.0
H2636 H 0.54651 0.84139 0.37767 0.0
H2637 H 0.54696 0.85812 0.40529 0.0
H2638 H 0.56494 0.83585 0.42113 0.0
H2639 H 0.56555 0.7931 0.43213 0.0
H2640 H 0.83009 0.52637 0.1468 0.0
H2641 H 0.82944 0.56911 0.1582 0.0
H2642 H 0.81615 0.58754 0.08781 0.0
H2643 H 0.81684 0.54502 0.0762 0.0
H2644 H 0.84158 0.60855 0.13785 0.0
H2645 H 0.79138 0.62047 0.13174 0.0
H2646 H 0.7985 0.59103 0.13242 0.0
H2647 H 0.79803 0.60814 0.105 0.0
C2648 C 0.82706 0.53949 0.1337 0.0
C2649 C 0.82344 0.5321 0.1106 0.0
C2650 C 0.82665 0.56393 0.1403 0.0
C2651 C 0.82255 0.5815 0.12401 0.0
C2652 C 0.81905 0.57425 0.10089 0.0
H2653 H 0.81543 0.73566 0.11457 0.0
H2654 H 0.81612 0.69197 0.10909 0.0
C2655 C 0.81945 0.54986 0.09428 0.0
C2656 C 0.82223 0.60749 0.13088 0.0
H2657 H 0.80331 0.6565 0.13449 0.0
C2658 C 0.8332 0.619 0.13738 0.0
C2659 C 0.81128 0.62109 0.13033 0.0
C2660 C 0.79911 0.60953 0.12473 0.0
C2661 C 0.83359 0.64394 0.14238 0.0
C2662 C 0.82268 0.65765 0.14123 0.0
C2663 C 0.81167 0.646 0.13529 0.0
C2664 C 0.82255 0.68429 0.14494 0.0
C2665 C 0.84574 0.65559 0.14797 0.0
C2666 C 0.82587 0.69461 0.16702 0.0
C2667 C 0.82557 0.71977 0.17019 0.0
C2668 C 0.82192 0.73511 0.15135 0.0
C2669 C 0.81852 0.72459 0.12935 0.0
C2670 C 0.81881 0.69952 0.12623 0.0
H2671 H 0.85354 0.64371 0.1431 0.0
H2672 H 0.84672 0.67305 0.1383 0.0
H2673 H 0.84627 0.65935 0.16748 0.0
H2674 H 0.8286 0.68319 0.18185 0.0
H2675 H 0.8283 0.72719 0.18732 0.0
H2676 H 0.46146 0.53317 0.12801 0.0
H2677 H 0.46111 0.57672 0.12007 0.0
H2678 H 0.49158 0.58663 0.16824 0.0
H2679 H 0.49145 0.54313 0.17714 0.0
H2680 H 0.4766 0.6219 0.17394 0.0
H2681 H 0.48337 0.61173 0.07637 0.0
H2682 H 0.46971 0.59661 0.08584 0.0
H2683 H 0.48437 0.58644 0.09665 0.0
C2684 C 0.46803 0.54475 0.13694 0.0
C2685 C 0.47653 0.53487 0.15304 0.0
C2686 C 0.46792 0.56958 0.13223 0.0
C2687 C 0.47659 0.58496 0.1429 0.0
C2688 C 0.48487 0.57517 0.15959 0.0
H2689 H 0.49122 0.72997 0.08695 0.0
H2690 H 0.49169 0.68663 0.09637 0.0
C2691 C 0.48478 0.55036 0.16473 0.0
C2692 C 0.47695 0.61123 0.13682 0.0
H2693 H 0.47717 0.65091 0.08983 0.0
C2694 C 0.47683 0.62822 0.15554 0.0
C2695 C 0.47753 0.61962 0.11283 0.0
C2696 C 0.47889 0.60262 0.09182 0.0
C2697 C 0.47702 0.65322 0.15097 0.0
C2698 C 0.47677 0.6616 0.12695 0.0
C2699 C 0.47715 0.64461 0.10824 0.0
C2700 C 0.47628 0.68784 0.12078 0.0
C2701 C 0.47783 0.67028 0.17204 0.0
C2702 C 0.4673 0.70293 0.13081 0.0
C2703 C 0.46721 0.72772 0.12579 0.0
C2704 C 0.47583 0.7378 0.11002 0.0
C2705 C 0.48444 0.72257 0.09906 0.0
C2706 C 0.48472 0.69785 0.10451 0.0
H2707 H 0.48212 0.66138 0.1878 0.0
H2708 H 0.48322 0.68671 0.16757 0.0
H2709 H 0.46848 0.67588 0.17738 0.0
H2710 H 0.46038 0.6956 0.14264 0.0
H2711 H 0.46038 0.73908 0.13418 0.0
H2712 H 0.21309 0.28115 0.89628 0.0
H2713 H 0.21172 0.32462 0.90385 0.0
H2714 H 0.22929 0.33898 0.83613 0.0
H2715 H 0.23077 0.29553 0.82849 0.0
H2716 H 0.23129 0.3564 0.90751 0.0
H2717 H 0.19999 0.38481 0.83458 0.0
H2718 H 0.20167 0.3536 0.84358 0.0
H2719 H 0.21288 0.36752 0.82443 0.0
C2720 C 0.21661 0.29353 0.88292 0.0
C2721 C 0.22205 0.28478 0.86177 0.0
C2722 C 0.21578 0.31839 0.88725 0.0
C2723 C 0.22028 0.33507 0.87047 0.0
C2724 C 0.22551 0.32646 0.84912 0.0
H2725 H 0.23359 0.48826 0.86395 0.0
H2726 H 0.2314 0.44492 0.8572 0.0
C2727 C 0.22634 0.30158 0.84476 0.0
C2728 C 0.22022 0.36137 0.87599 0.0
H2729 H 0.21048 0.41625 0.85538 0.0
C2730 C 0.22664 0.36948 0.89626 0.0
C2731 C 0.21416 0.3784 0.86127 0.0
C2732 C 0.20669 0.37068 0.83987 0.0
C2733 C 0.2275 0.39423 0.90178 0.0
C2734 C 0.22158 0.4113 0.88687 0.0
C2735 C 0.21501 0.40315 0.8668 0.0
C2736 C 0.22256 0.43776 0.89114 0.0
C2737 C 0.23509 0.40193 0.92303 0.0
C2738 C 0.21818 0.44827 0.91239 0.0
C2739 C 0.21939 0.4732 0.91632 0.0
C2740 C 0.22492 0.48812 0.89897 0.0
C2741 C 0.22913 0.47749 0.87758 0.0
C2742 C 0.22794 0.45263 0.87371 0.0
H2743 H 0.24129 0.38728 0.92918 0.0
H2744 H 0.24068 0.41813 0.91865 0.0
H2745 H 0.22894 0.40666 0.93813 0.0
H2746 H 0.21377 0.43722 0.9259 0.0
H2747 H 0.21588 0.4808 0.93281 0.0
H2748 H 0.56049 0.28087 0.86528 0.0
H2749 H 0.56173 0.32434 0.85831 0.0
H2750 H 0.57795 0.33416 0.92804 0.0
H2751 H 0.57703 0.29036 0.93497 0.0
H2752 H 0.55101 0.3616 0.88542 0.0
H2753 H 0.60164 0.37023 0.88276 0.0
H2754 H 0.59394 0.34144 0.88005 0.0
H2755 H 0.59548 0.35556 0.90887 0.0
C2756 C 0.56448 0.29214 0.87906 0.0
C2757 C 0.56877 0.28199 0.90062 0.0
C2758 C 0.5651 0.31706 0.87509 0.0
C2759 C 0.57009 0.33248 0.89249 0.0
C2760 C 0.57426 0.32255 0.91418 0.0
H2761 H 0.58018 0.4887 0.89605 0.0
H2762 H 0.5803 0.44529 0.90437 0.0
C2763 C 0.57361 0.29754 0.91822 0.0
C2764 C 0.5706 0.35895 0.88794 0.0
H2765 H 0.59024 0.40643 0.88 0.0
C2766 C 0.55959 0.37141 0.88422 0.0
C2767 C 0.58179 0.37172 0.88644 0.0
C2768 C 0.59391 0.3591 0.88954 0.0
C2769 C 0.55945 0.39632 0.87921 0.0
C2770 C 0.57065 0.40905 0.87733 0.0
C2771 C 0.58166 0.39664 0.88131 0.0
C2772 C 0.57108 0.4353 0.87154 0.0
C2773 C 0.54728 0.40886 0.87645 0.0
C2774 C 0.56616 0.44413 0.85 0.0
C2775 C 0.56598 0.46901 0.84525 0.0
C2776 C 0.57081 0.48559 0.8619 0.0
C2777 C 0.57618 0.47655 0.88302 0.0
C2778 C 0.57633 0.45169 0.88776 0.0
H2779 H 0.53974 0.39826 0.88471 0.0
H2780 H 0.54746 0.42713 0.88473 0.0
H2781 H 0.5452 0.41098 0.8571 0.0
H2782 H 0.56229 0.43178 0.83696 0.0
H2783 H 0.56172 0.47522 0.82888 0.0
H2784 H 0.27097 0.14623 0.39802 0.0
H2785 H 0.28203 0.17497 0.37276 0.0
H2786 H 0.24872 0.19086 0.3345 0.0
H2787 H 0.23755 0.16221 0.36002 0.0
H2788 H 0.28536 0.17238 0.32499 0.0
H2789 H 0.2618 0.25804 0.34733 0.0
H2790 H 0.26007 0.231 0.36517 0.0
H2791 H 0.25137 0.2348 0.33805 0.0
C2792 C 0.26597 0.15598 0.38432 0.0
C2793 C 0.25339 0.15187 0.38089 0.0
C2794 C 0.27231 0.17244 0.36994 0.0
C2795 C 0.26621 0.18525 0.35185 0.0
C2796 C 0.25358 0.18158 0.34868 0.0
H2797 H 0.28185 0.26518 0.22715 0.0
H2798 H 0.2746 0.24003 0.25995 0.0
C2799 C 0.2472 0.16518 0.36321 0.0
C2800 C 0.27323 0.20123 0.33539 0.0
H2801 H 0.27395 0.25811 0.31149 0.0
C2802 C 0.283 0.19124 0.32233 0.0
C2803 C 0.27021 0.22589 0.33204 0.0
C2804 C 0.26037 0.23814 0.34657 0.0
C2805 C 0.28941 0.20492 0.30519 0.0
C2806 C 0.286 0.22918 0.3011 0.0
C2807 C 0.27654 0.23945 0.31472 0.0
C2808 C 0.29111 0.24337 0.28093 0.0
C2809 C 0.29942 0.19313 0.29074 0.0
C2810 C 0.30294 0.25329 0.2817 0.0
C2811 C 0.30719 0.26787 0.2628 0.0
C2812 C 0.2996 0.27267 0.24301 0.0
C2813 C 0.28792 0.26202 0.24216 0.0
C2814 C 0.28372 0.24762 0.26091 0.0
H2815 H 0.30055 0.17368 0.29524 0.0
H2816 H 0.29737 0.19479 0.27131 0.0
H2817 H 0.3082 0.20259 0.29412 0.0
H2818 H 0.30876 0.25022 0.29712 0.0
H2819 H 0.31619 0.27595 0.26401 0.0
H2820 H 0.05905 0.11011 0.361 0.0
H2821 H 0.04803 0.08136 0.33531 0.0
H2822 H 1.01451 0.09725 0.37276 0.0
H2823 H 0.0254 0.12583 0.39844 0.0
H2824 H 0.0337 0.03998 0.34668 0.0
H2825 H 1.00579 0.11124 0.30253 0.0
H2826 H 1.01918 0.11818 0.32013 0.0
H2827 H 1.00502 0.11074 0.33469 0.0
C2828 C 0.04936 0.10727 0.36391 0.0
C2829 C 0.04307 0.12054 0.3815 0.0
C2830 C 0.04306 0.09093 0.34917 0.0
C2831 C 0.03039 0.08759 0.35178 0.0
C2832 C 0.02421 0.10001 0.37001 0.0
H2833 H 0.98098 0.99825 0.26191 0.0
H2834 H 0.98835 0.02404 0.29501 0.0
C2835 C 0.03047 0.11634 0.38467 0.0
C2836 C 0.02361 0.07134 0.33525 0.0
H2837 H 1.00177 0.07083 0.29138 0.0
C2838 C 0.02668 0.04671 0.33468 0.0
C2839 C 1.01436 0.08011 0.31974 0.0
C2840 C 1.01092 0.10653 0.31907 0.0
C2841 C 1.02091 0.0307 0.31875 0.0
C2842 C 1.01195 0.03961 0.30273 0.0
C2843 C 1.00858 0.06405 0.3038 0.0
C2844 C 1.00715 0.02447 0.2829 0.0
C2845 C 0.02454 1.00437 0.31895 0.0
C2846 C 1.0152 0.01679 0.26496 0.0
C2847 C 1.01105 1.00239 0.24619 0.0
C2848 C 0.99871 0.99527 0.24479 0.0
C2849 C 0.99053 1.0034 0.26251 0.0
C2850 C 0.99473 0.01804 0.28141 0.0
H2851 H 0.02875 0.99912 0.33631 0.0
H2852 H 1.01653 0.99252 0.31553 0.0
H2853 H 0.03136 1.00114 0.30458 0.0
H2854 H 0.02476 0.02194 0.26551 0.0
H2855 H 1.01763 0.99666 0.23284 0.0
H2856 H 0.28092 1.00378 0.03532 0.0
H2857 H 0.27354 0.03077 1.00431 0.0
H2858 H 0.30869 0.02828 0.96938 0.0
H2859 H 0.31621 1.00041 1.00057 0.0
H2860 H 0.28163 0.07565 0.99108 0.0
H2861 H 0.28495 0.0107 0.91509 0.0
H2862 H 0.28623 1.00121 0.94595 0.0
H2863 H 0.29879 0.01629 0.93157 0.0
C2864 C 0.28716 1.00888 0.02111 0.0
C2865 C 0.29917 0.99979 0.02037 0.0
C2866 C 0.2829 0.02441 1.00337 0.0
C2867 C 0.29048 0.03132 0.98434 0.0
C2868 C 0.30261 0.02282 0.9837 0.0
H2869 H 0.2702 0.12701 0.86618 0.0
H2870 H 0.28131 0.0999 0.89317 0.0
C2871 C 0.30693 1.0071 1.00161 0.0
C2872 C 0.28541 0.04745 0.96551 0.0
H2873 H 0.27655 0.04906 0.90676 0.0
C2874 C 0.2806 0.06989 0.97261 0.0
C2875 C 0.28404 0.03989 0.94142 0.0
C2876 C 0.28868 0.01565 0.93296 0.0
C2877 C 0.27427 0.08475 0.95644 0.0
C2878 C 0.2726 0.07688 0.93257 0.0
C2879 C 0.27775 0.05487 0.92517 0.0
C2880 C 0.26557 0.09151 0.91509 0.0
C2881 C 0.26939 0.10876 0.96502 0.0
C2882 C 0.25295 0.09521 0.91809 0.0
C2883 C 0.24655 0.11066 0.90263 0.0
C2884 C 0.25271 0.12276 0.88407 0.0
C2885 C 0.26525 0.1182 0.88057 0.0
C2886 C 0.2716 0.10265 0.89587 0.0
H2887 H 0.2736 0.11438 0.98226 0.0
H2888 H 0.27106 0.1231 0.95146 0.0
H2889 H 0.25937 0.10727 0.96774 0.0
H2890 H 0.24811 0.08653 0.9327 0.0
H2891 H 0.23691 0.11386 0.90576 0.0
H2892 H 0.05807 0.16127 0.90269 0.0
H2893 H 0.0468 0.18987 0.9281 0.0
H2894 H 1.01315 0.16988 0.89303 0.0
H2895 H 0.02429 0.1414 0.8677 0.0
H2896 H 0.03171 0.22953 0.91646 0.0
H2897 H 1.00537 0.15787 0.96379 0.0
H2898 H 1.01862 0.15125 0.94568 0.0
H2899 H 1.00416 0.15738 0.93169 0.0
C2900 C 0.04829 0.16315 0.90028 0.0
C2901 C 0.04205 0.14878 0.88347 0.0
C2902 C 0.04185 0.17941 0.91484 0.0
C2903 C 0.02909 0.18159 0.91283 0.0
C2904 C 1.02293 0.16802 0.89537 0.0
H2905 H 0.97967 0.27161 1.00232 0.0
H2906 H 0.98682 0.24547 0.96928 0.0
C2907 C 0.02933 0.15176 0.8809 0.0
C2908 C 1.0222 0.19789 0.92914 0.0
H2909 H 1.00079 0.19833 0.97385 0.0
C2910 C 0.0249 0.22271 0.9289 0.0
C2911 C 1.01323 0.18901 0.94525 0.0
C2912 C 1.01021 0.16241 0.94685 0.0
C2913 C 1.01905 0.23881 0.94463 0.0
C2914 C 1.01039 0.22982 0.96122 0.0
C2915 C 1.00736 0.20517 0.96095 0.0
C2916 C 1.00569 0.24514 0.98098 0.0
C2917 C 1.02234 0.26531 0.9437 0.0
C2918 C 1.01384 0.25302 0.99863 0.0
C2919 C 1.00982 0.26759 0.01737 0.0
C2920 C 0.9975 0.27472 0.019 0.0
C2921 C 0.98921 0.26645 1.00154 0.0
C2922 C 0.99328 0.2516 0.98268 0.0
H2923 H 0.02645 0.27034 0.92617 0.0
H2924 H 1.01418 0.27678 0.9469 0.0
H2925 H 0.02914 0.26931 0.95793 0.0
H2926 H 1.0234 0.2479 0.99789 0.0
H2927 H 1.01649 0.27344 0.03049 0.0
H2928 H 0.72838 0.75067 0.75082 0.0
H2929 H 0.73586 0.77714 0.71832 0.0
H2930 H 0.77284 0.76738 0.74318 0.0
H2931 H 0.7656 0.74139 0.77523 0.0
H2932 H 0.75117 0.82136 0.72347 0.0
H2933 H 0.77402 0.74945 0.67073 0.0
H2934 H 0.76218 0.7431 0.69244 0.0
H2935 H 0.77759 0.74881 0.70215 0.0
C2936 C 0.73809 0.7542 0.74928 0.0
C2937 C 0.74637 0.74383 0.76558 0.0
C2938 C 0.74235 0.76927 0.73074 0.0
C2939 C 0.75493 0.77384 0.72814 0.0
C2940 C 0.76312 0.76374 0.74457 0.0
H2941 H 0.80765 0.85654 0.64839 0.0
H2942 H 0.79638 0.82805 0.67398 0.0
C2943 C 0.75892 0.74894 0.76302 0.0
C2944 C 0.75977 0.78966 0.70884 0.0
H2945 H 0.78018 0.79016 0.66246 0.0
C2946 C 0.75733 0.81455 0.70982 0.0
C2947 C 0.7679 0.7807 0.69123 0.0
C2948 C 0.77051 0.75402 0.68887 0.0
C2949 C 0.76326 0.83087 0.69434 0.0
C2950 C 0.77167 0.82197 0.67715 0.0
C2951 C 0.7738 0.79698 0.67572 0.0
C2952 C 0.77851 0.83836 0.66081 0.0
C2953 C 0.76089 0.85761 0.69725 0.0
C2954 C 0.77225 0.85308 0.64446 0.0
C2955 C 0.77865 0.8693 0.62989 0.0
C2956 C 0.79148 0.87108 0.63122 0.0
C2957 C 0.79779 0.85561 0.64693 0.0
C2958 C 0.79135 0.8394 0.6616 0.0
H2959 H 0.75659 0.8618 0.71481 0.0
H2960 H 0.76951 0.86813 0.69567 0.0
H2961 H 0.75458 0.86374 0.68292 0.0
H2962 H 0.76239 0.85213 0.64305 0.0
H2963 H 0.77352 0.88051 0.61754 0.0
H2964 H 0.02994 0.02182 0.78082 0.0
H2965 H 1.02304 0.99593 0.74841 0.0
H2966 H 0.05959 0.99384 0.71961 0.0
H2967 H 0.06673 0.02027 0.75241 0.0
H2968 H 0.02592 1.00719 0.69652 0.0
H2969 H 0.0473 0.92072 0.72627 0.0
H2970 H 0.04449 0.94524 0.74695 0.0
H2971 H 0.05652 0.94777 0.72528 0.0
C2972 C 0.03661 0.01588 0.76774 0.0
C2973 C 0.04893 0.02318 0.76925 0.0
C2974 C 0.0326 1.00107 0.74915 0.0
C2975 C 0.04078 0.99298 0.73165 0.0
C2976 C 0.05315 0.99984 0.73308 0.0
H2977 H 1.02156 0.88849 0.62007 0.0
H2978 H 0.03278 0.91716 0.64511 0.0
C2979 C 0.05721 0.0149 0.75179 0.0
C2980 C 0.03604 0.97765 0.71192 0.0
H2981 H 0.03385 0.91892 0.69353 0.0
C2982 C 0.02777 0.98793 0.69561 0.0
C2983 C 0.03847 0.95259 0.71085 0.0
C2984 C 0.04714 0.94072 0.72826 0.0
C2985 C 1.02165 0.9737 0.67853 0.0
C2986 C 0.02363 0.9484 0.67817 0.0
C2987 C 0.03226 0.93828 0.69393 0.0
C2988 C 1.01666 0.93199 0.66204 0.0
C2989 C 1.01312 0.98592 0.66108 0.0
C2990 C 1.00382 0.93078 0.66313 0.0
C2991 C 0.99735 0.91437 0.64877 0.0
C2992 C 1.00362 0.8986 0.63332 0.0
C2993 C 1.01646 0.90011 0.63206 0.0
C2994 C 1.0229 0.91656 0.6463 0.0
H2995 H 1.01547 1.00534 0.65874 0.0
H2996 H 1.01337 0.97696 0.64327 0.0
H2997 H 1.00364 0.98491 0.66808 0.0
H2998 H 0.99881 0.94213 0.67552 0.0
H2999 H 0.98749 0.91348 0.65031 0.0
H3000 H 0.79242 0.87089 0.09346 0.0
H3001 H 0.78116 0.89916 0.06806 0.0
H3002 H 0.78668 0.95573 0.12017 0.0
H3003 H 0.798 0.92744 0.14577 0.0
H3004 H 0.75972 0.92445 0.07898 0.0
H3005 H 0.798 0.98716 0.05752 0.0
H3006 H 0.80048 0.95764 0.07044 0.0
H3007 H 0.79524 0.98216 0.08888 0.0
C3008 C 0.79129 0.88938 0.0995 0.0
C3009 C 0.79613 0.89692 0.12164 0.0
C3010 C 0.78483 0.90551 0.08496 0.0
C3011 C 0.7831 0.92958 0.09215 0.0
C3012 C 0.78805 0.93733 0.11408 0.0
H3013 H 0.73322 0.02879 0.01401 0.0
H3014 H 0.74163 1.00309 0.04615 0.0
C3015 C 0.79457 0.92117 0.12865 0.0
C3016 C 0.77599 0.9463 0.0766 0.0
H3017 H 0.77866 0.9968 0.04172 0.0
C3018 C 0.76382 0.9404 0.07097 0.0
C3019 C 0.78137 0.96704 0.06611 0.0
C3020 C 0.79451 0.97387 0.07083 0.0
C3021 C 0.75698 0.95436 0.0547 0.0
C3022 C 0.76243 0.97486 0.04396 0.0
C3023 C 0.77448 0.98112 0.05009 0.0
C3024 C 0.75635 0.9887 0.02448 0.0
C3025 C 0.74417 0.94654 0.04831 0.0
C3026 C 0.7617 0.98882 1.00166 0.0
C3027 C 0.75697 1.00337 0.98351 0.0
C3028 C 0.74676 0.0182 0.98769 0.0
C3029 C 0.74101 0.01734 0.01023 0.0
C3030 C 0.74583 1.00273 0.02858 0.0
H3031 H 0.74196 0.92828 0.05546 0.0
H3032 H 0.73754 0.95965 0.05589 0.0
H3033 H 0.74295 0.94637 0.02855 0.0
H3034 H 0.76976 0.97804 0.99803 0.0
H3035 H 0.76156 1.00351 0.9663 0.0
H3036 H 0.0672 0.75101 0.00821 0.0
H3037 H 0.06005 0.7774 0.04103 0.0
H3038 H 1.02303 0.7704 0.01553 0.0
H3039 H 0.02993 0.74458 0.98311 0.0
H3040 H 0.04483 0.82291 0.03585 0.0
H3041 H 1.02206 0.75043 0.08828 0.0
H3042 H 0.03408 0.74439 0.06686 0.0
H3043 H 1.01874 0.74997 0.05673 0.0
C3044 C 0.05755 0.7552 0.00963 0.0
C3045 C 0.04915 0.74561 0.99307 0.0
C3046 C 0.05349 0.77019 0.02836 0.0
C3047 C 0.04098 0.77547 0.03087 0.0
C3048 C 0.03268 0.76621 0.01416 0.0
H3049 H 0.98861 0.85743 0.11139 0.0
H3050 H 0.99984 0.82902 0.08572 0.0
C3051 C 0.03669 0.7515 0.99552 0.0
C3052 C 0.03633 0.79106 0.05045 0.0
H3053 H 1.01612 0.79104 0.09715 0.0
C3054 C 0.03875 0.81596 0.04958 0.0
C3055 C 0.02829 0.7819 0.06813 0.0
C3056 C 0.02569 0.75517 0.07027 0.0
C3057 C 0.03288 0.83212 0.06526 0.0
C3058 C 0.02454 0.82302 0.08251 0.0
C3059 C 1.02244 0.79801 0.08384 0.0
C3060 C 1.01772 0.83926 0.09896 0.0
C3061 C 0.03521 0.8589 0.06248 0.0
C3062 C 0.024 0.8539 0.11536 0.0
C3063 C 1.01762 0.87006 0.12997 0.0
C3064 C 1.0048 0.87188 0.12861 0.0
C3065 C 0.99847 0.85647 0.11286 0.0
C3066 C 1.00488 0.84031 0.09815 0.0
H3067 H 0.0395 0.86325 0.04494 0.0
H3068 H 0.02658 0.86931 0.06412 0.0
H3069 H 0.04151 0.86501 0.07685 0.0
H3070 H 0.03386 0.85293 0.11677 0.0
H3071 H 1.02276 0.88122 0.14235 0.0
H3072 H 0.28174 0.76787 0.72753 0.0
H3073 H 0.27448 0.7414 0.75908 0.0
H3074 H 0.30928 0.74704 0.795 0.0
H3075 H 0.31668 0.77441 0.7632 0.0
H3076 H 0.28318 0.69739 0.77372 0.0
H3077 H 0.28472 0.76458 0.84802 0.0
H3078 H 0.2861 0.77333 0.81696 0.0
H3079 H 0.29878 0.75947 0.83208 0.0
C3080 C 0.28793 0.76359 0.74207 0.0
C3081 C 0.2998 0.77341 0.7429 0.0
C3082 C 0.28373 0.74835 0.76013 0.0
C3083 C 0.29125 0.74245 0.77957 0.0
C3084 C 0.30324 0.75171 0.78034 0.0
H3085 H 0.27087 0.64811 0.89883 0.0
H3086 H 0.28195 0.67543 0.87195 0.0
C3087 C 0.3075 0.76714 0.7621 0.0
C3088 C 0.28624 0.72652 0.79864 0.0
H3089 H 0.27666 0.72605 0.85699 0.0
C3090 C 0.28185 0.7036 0.79197 0.0
C3091 C 0.28447 0.73468 0.82244 0.0
C3092 C 0.28867 0.75941 0.8304 0.0
C3093 C 0.27552 0.68884 0.80825 0.0
C3094 C 0.27342 0.69729 0.8318 0.0
C3095 C 0.27818 0.7198 0.83881 0.0
C3096 C 0.26635 0.68275 0.84931 0.0
C3097 C 0.27106 0.66433 0.80014 0.0
C3098 C 0.25381 0.67842 0.84587 0.0
C3099 C 0.24742 0.66287 0.86128 0.0
C3100 C 0.25353 0.65129 0.88021 0.0
C3101 C 0.26597 0.65654 0.88417 0.0
C3102 C 0.2723 0.6722 0.86892 0.0
H3103 H 0.27552 0.65851 0.78321 0.0
H3104 H 0.27279 0.65046 0.81413 0.0
H3105 H 0.26104 0.66514 0.79702 0.0
H3106 H 0.24904 0.68663 0.83093 0.0
H3107 H 0.23787 0.65912 0.85779 0.0
H3108 H 0.02516 0.62476 0.8964 0.0
H3109 H 1.01427 0.59572 0.87123 0.0
H3110 H 0.04799 0.578 0.83524 0.0
H3111 H 0.05899 0.60706 0.86055 0.0
H3112 H 1.01178 0.59688 0.8228 0.0
H3113 H 0.03424 0.51147 0.85012 0.0
H3114 H 0.03576 0.53912 0.8671 0.0
H3115 H 0.04495 0.53421 0.8408 0.0
C3116 C 0.03028 0.61462 0.88318 0.0
C3117 C 0.04294 0.61833 0.88035 0.0
C3118 C 0.02404 0.59796 0.86886 0.0
C3119 C 0.03031 0.5845 0.85148 0.0
C3120 C 0.043 0.58781 0.84888 0.0
H3121 H 1.01599 0.49727 0.73064 0.0
H3122 H 1.02331 0.52264 0.76312 0.0
C3123 C 0.04928 0.60445 0.8633 0.0
C3124 C 0.02344 0.56809 0.8352 0.0
H3125 H 1.02253 0.51021 0.81386 0.0
C3126 C 1.014 0.57784 0.82108 0.0
C3127 C 0.02627 0.54321 0.83312 0.0
C3128 C 0.03577 0.5313 0.84877 0.0
C3129 C 1.00776 0.56366 0.80411 0.0
C3130 C 1.01096 0.53907 0.80136 0.0
C3131 C 1.02009 0.52911 0.81603 0.0
C3132 C 1.00597 0.52406 0.78161 0.0
C3133 C 0.99818 0.57528 0.78846 0.0
C3134 C 0.99368 0.51651 0.78111 0.0
C3135 C 0.98939 0.5018 0.76235 0.0
C3136 C 0.99735 0.4945 0.74393 0.0
C3137 C 1.00957 0.50245 0.7445 0.0
C3138 C 1.01382 0.51696 0.76312 0.0
H3139 H 0.99774 0.5952 0.791 0.0
H3140 H 1.00007 0.57141 0.76929 0.0
H3141 H 0.98908 0.56752 0.79282 0.0
H3142 H 0.9875 0.52169 0.79536 0.0
H3143 H 0.97995 0.49587 0.76247 0.0
H3144 H 0.2791 0.49268 0.52986 0.0
H3145 H 0.2717 0.52019 0.49931 0.0
H3146 H 0.30846 0.52991 0.47301 0.0
H3147 H 0.31607 0.5017 0.50381 0.0
H3148 H 0.27817 0.56848 0.49307 0.0
H3149 H 0.28854 0.51338 0.41205 0.0
H3150 H 0.28846 0.50059 0.44183 0.0
H3151 H 0.30102 0.51915 0.43227 0.0
C3152 C 0.28569 0.50053 0.51762 0.0
C3153 C 0.29821 0.49494 0.51931 0.0
C3154 C 0.28141 0.51632 0.50012 0.0
C3155 C 0.28949 0.52696 0.48376 0.0
C3156 C 0.30203 0.52158 0.48527 0.0
H3157 H 0.27116 0.62915 0.37017 0.0
H3158 H 0.28181 0.60148 0.39722 0.0
C3159 C 0.30638 0.50561 0.50293 0.0
C3160 C 0.28452 0.54405 0.46572 0.0
H3161 H 0.27865 0.55075 0.40592 0.0
C3162 C 0.27834 0.56468 0.47399 0.0
C3163 C 0.28474 0.53903 0.44086 0.0
C3164 C 0.29096 0.51678 0.43109 0.0
C3165 C 0.27223 0.58025 0.45816 0.0
C3166 C 0.27214 0.57486 0.4334 0.0
C3167 C 0.27863 0.55465 0.42497 0.0
C3168 C 0.26547 0.59026 0.41601 0.0
C3169 C 0.26596 0.6024 0.46806 0.0
C3170 C 0.25269 0.59264 0.4172 0.0
C3171 C 0.24655 0.60851 0.40177 0.0
C3172 C 0.25313 0.62232 0.38498 0.0
C3173 C 0.26587 0.61912 0.38325 0.0
C3174 C 0.27197 0.60321 0.39857 0.0
H3175 H 0.26927 0.60697 0.48634 0.0
H3176 H 0.26743 0.61826 0.45618 0.0
H3177 H 0.25598 0.59894 0.46915 0.0
H3178 H 0.24749 0.5825 0.43033 0.0
H3179 H 0.23675 0.61057 0.40348 0.0
H3180 H 0.98249 0.78146 0.49515 0.0
H3181 H 0.99096 0.75624 0.46269 0.0
H3182 H 1.01952 0.73181 0.51014 0.0
H3183 H 1.01127 0.7568 0.54216 0.0
H3184 H 0.02804 0.75077 0.4662 0.0
H3185 H 0.99162 0.68142 0.45364 0.0
H3186 H 0.98707 0.71271 0.4532 0.0
H3187 H 0.99267 0.69959 0.48046 0.0
C3188 C 0.99041 0.77027 0.49869 0.0
C3189 C 0.99624 0.77114 0.52113 0.0
C3190 C 0.99525 0.75594 0.48017 0.0
C3191 C 1.0059 0.7422 0.48402 0.0
C3192 C 1.01136 0.74238 0.50672 0.0
H3193 H 0.0421 0.62416 0.41675 0.0
H3194 H 0.0308 0.65285 0.4416 0.0
C3195 C 1.00661 0.75666 0.52502 0.0
C3196 C 1.01192 0.72846 0.46444 0.0
H3197 H 1.00938 0.67755 0.43015 0.0
C3198 C 0.02392 0.73492 0.45806 0.0
C3199 C 1.00654 0.70773 0.45403 0.0
C3200 C 0.9938 0.69972 0.46068 0.0
C3201 C 0.03084 0.72075 0.44218 0.0
C3202 C 0.02555 0.69974 0.43209 0.0
C3203 C 1.01341 0.6937 0.43788 0.0
C3204 C 0.03272 0.68282 0.41692 0.0
C3205 C 0.04394 0.72776 0.43727 0.0
C3206 C 0.0377 0.69018 0.39486 0.0
C3207 C 0.04425 0.67379 0.38064 0.0
C3208 C 0.04582 0.64969 0.38813 0.0
C3209 C 0.04097 0.64254 0.41039 0.0
C3210 C 0.03449 0.6589 0.42459 0.0
H3211 H 0.04738 0.74135 0.45031 0.0
H3212 H 0.04999 0.71166 0.43791 0.0
H3213 H 0.0446 0.73574 0.41906 0.0
H3214 H 0.0363 0.70845 0.38841 0.0
H3215 H 0.04769 0.67974 0.36341 0.0
H3216 H 0.7765 0.38921 0.12367 0.0
H3217 H 0.7656 0.36197 0.15085 0.0
H3218 H 0.79998 0.33369 0.17611 0.0
H3219 H 0.811 0.36123 0.1491 0.0
H3220 H 0.76656 0.30999 0.15484 0.0
H3221 H 0.78186 0.35682 0.23762 0.0
H3222 H 0.78292 0.37053 0.20831 0.0
H3223 H 0.79394 0.3483 0.21749 0.0
C3224 C 0.78176 0.3773 0.13511 0.0
C3225 C 0.79464 0.37763 0.13447 0.0
C3226 C 0.7755 0.36163 0.15051 0.0
C3227 C 0.78197 0.34606 0.16573 0.0
C3228 C 0.79481 0.34583 0.16472 0.0
H3229 H 0.76869 0.24193 0.27416 0.0
H3230 H 0.77597 0.27061 0.24455 0.0
C3231 C 0.8011 0.36143 0.14918 0.0
C3232 C 0.77527 0.33037 0.18293 0.0
H3233 H 0.77149 0.31948 0.24269 0.0
C3234 C 0.76755 0.31211 0.17406 0.0
C3235 C 0.77646 0.33342 0.20797 0.0
C3236 C 0.78415 0.35345 0.21851 0.0
C3237 C 0.76144 0.29607 0.18962 0.0
C3238 C 0.76294 0.29869 0.21468 0.0
C3239 C 0.77035 0.31747 0.22348 0.0
C3240 C 0.75798 0.2808 0.23212 0.0
C3241 C 0.75388 0.27584 0.17913 0.0
C3242 C 0.74535 0.27684 0.23506 0.0
C3243 C 0.74107 0.26014 0.25217 0.0
C3244 C 0.74938 0.24735 0.26664 0.0
C3245 C 0.76198 0.25146 0.26347 0.0
C3246 C 0.7662 0.26792 0.24649 0.0
H3247 H 0.75547 0.27368 0.15958 0.0
H3248 H 0.75597 0.25843 0.18819 0.0
H3249 H 0.74404 0.27981 0.18195 0.0
H3250 H 0.73882 0.28686 0.22441 0.0
H3251 H 0.73132 0.25743 0.25424 0.0
H3252 H 0.06832 0.51755 0.25684 0.0
H3253 H 0.06152 0.49062 0.22416 0.0
H3254 H 0.02395 0.50476 0.24274 0.0
H3255 H 0.03051 0.53122 0.27496 0.0
H3256 H 0.04493 0.4481 0.22908 0.0
H3257 H 0.02619 0.51924 0.16951 0.0
H3258 H 0.03734 0.52555 0.1926 0.0
H3259 H 1.02146 0.52197 0.20022 0.0
C3260 C 0.05863 0.51491 0.25385 0.0
C3261 C 0.04997 0.52656 0.26849 0.0
C3262 C 0.05476 0.49958 0.23523 0.0
C3263 C 0.04223 0.49605 0.23085 0.0
C3264 C 0.03365 0.50757 0.24554 0.0
H3265 H 0.99002 0.41546 0.1491 0.0
H3266 H 1.00147 0.44376 0.17451 0.0
C3267 C 0.03746 0.52261 0.26409 0.0
C3268 C 0.0378 0.47976 0.21162 0.0
H3269 H 1.01914 0.47882 0.16254 0.0
C3270 C 0.0395 0.45476 0.21423 0.0
C3271 C 0.03063 0.48857 0.19242 0.0
C3272 C 0.02887 0.51532 0.18833 0.0
C3273 C 0.03368 0.43823 0.19882 0.0
C3274 C 0.02616 0.44703 0.18009 0.0
C3275 C 0.02483 0.47209 0.177 0.0
C3276 C 1.01929 0.43052 0.16396 0.0
C3277 C 0.03516 0.41149 0.20346 0.0
C3278 C 0.02551 0.41412 0.1492 0.0
C3279 C 1.01901 0.398 0.13471 0.0
C3280 C 1.00613 0.398 0.13457 0.0
C3281 C 0.99992 0.41501 0.14878 0.0
C3282 C 1.00645 0.43112 0.16335 0.0
H3283 H 0.03883 0.40784 0.22167 0.0
H3284 H 0.0263 0.40188 0.20148 0.0
H3285 H 0.04166 0.40383 0.19021 0.0
H3286 H 0.03541 0.41376 0.14889 0.0
H3287 H 0.02409 0.38554 0.12353 0.0
H3288 H 0.7921 0.37236 0.59187 0.0
H3289 H 0.78086 0.40085 0.56667 0.0
H3290 H 0.78528 0.45629 0.62035 0.0
H3291 H 0.79655 0.42777 0.64576 0.0
H3292 H 0.75902 0.42512 0.57766 0.0
H3293 H 0.79692 0.48957 0.55873 0.0
H3294 H 0.79956 0.45979 0.57093 0.0
H3295 H 0.79397 0.48361 0.58986 0.0
C3296 C 0.79074 0.39065 0.59829 0.0
C3297 C 0.79524 0.3978 0.62083 0.0
C3298 C 0.78429 0.4069 0.58388 0.0
C3299 C 0.78224 0.43071 0.59158 0.0
C3300 C 0.78689 0.4381 0.61389 0.0
H3301 H 0.73241 0.53014 0.51354 0.0
H3302 H 0.74072 0.50431 0.54569 0.0
C3303 C 0.79338 0.42182 0.62835 0.0
C3304 C 0.77512 0.44753 0.57619 0.0
H3305 H 0.77765 0.49878 0.54236 0.0
C3306 C 0.76304 0.44136 0.57009 0.0
C3307 C 0.78041 0.46865 0.56629 0.0
C3308 C 0.79345 0.47581 0.57157 0.0
C3309 C 0.75622 0.45543 0.55389 0.0
C3310 C 0.76159 0.47629 0.54371 0.0
C3311 C 0.77354 0.48282 0.55033 0.0
C3312 C 0.75558 0.4902 0.52422 0.0
C3313 C 0.74352 0.44736 0.54697 0.0
C3314 C 0.76104 0.49048 0.50151 0.0
C3315 C 0.75637 0.50509 0.48335 0.0
C3316 C 0.74611 0.51981 0.48743 0.0
C3317 C 0.74025 0.51878 0.50985 0.0
C3318 C 0.74501 0.50411 0.5282 0.0
H3319 H 0.74132 0.42905 0.55399 0.0
H3320 H 0.73674 0.46034 0.55426 0.0
H3321 H 0.74253 0.44721 0.52716 0.0
H3322 H 0.76914 0.47979 0.49798 0.0
H3323 H 0.76104 0.50534 0.46623 0.0
H3324 H 1.00052 0.34203 0.65045 0.0
H3325 H 1.01245 0.3139 0.62575 0.0
H3326 H 1.01614 0.36871 0.5712 0.0
H3327 H 1.00426 0.39679 0.59566 0.0
H3328 H 1.00863 0.29615 0.58032 0.0
H3329 H 0.05158 0.34909 0.58255 0.0
H3330 H 0.03897 0.35503 0.6026 0.0
H3331 H 0.03882 0.36677 0.5725 0.0
C3332 C 1.00374 0.34796 0.63305 0.0
C3333 C 1.00152 0.37172 0.6251 0.0
C3334 C 1.01065 0.33195 0.61906 0.0
C3335 C 1.01549 0.33943 0.59694 0.0
C3336 C 1.01285 0.36278 0.58855 0.0
H3337 H 0.03538 0.26522 0.47135 0.0
H3338 H 0.02735 0.28966 0.50402 0.0
C3339 C 1.00598 0.37877 0.60249 0.0
C3340 C 1.023 0.32274 0.58214 0.0
H3341 H 0.05007 0.31877 0.55167 0.0
C3342 C 1.01776 0.30093 0.57438 0.0
C3343 C 0.03503 0.32872 0.5747 0.0
C3344 C 0.04149 0.35106 0.58372 0.0
C3345 C 0.02391 0.28571 0.55825 0.0
C3346 C 0.03554 0.29261 0.54943 0.0
C3347 C 0.04111 0.31366 0.55826 0.0
C3348 C 0.04138 0.27939 0.52933 0.0
C3349 C 1.01778 0.26261 0.55027 0.0
C3350 C 0.05231 0.26637 0.53239 0.0
C3351 C 0.05702 0.25233 0.51352 0.0
C3352 C 0.05083 0.25126 0.49145 0.0
C3353 C 0.04029 0.26542 0.48822 0.0
C3354 C 0.03565 0.27935 0.5069 0.0
H3355 H 1.01073 0.25659 0.56331 0.0
H3356 H 1.0132 0.26573 0.53279 0.0
H3357 H 0.02457 0.24788 0.5479 0.0
H3358 H 0.05692 0.26637 0.54957 0.0
H3359 H 0.06512 0.24151 0.51654 0.0
H3360 H 0.7709 0.14698 0.89595 0.0
H3361 H 0.78137 0.17614 0.87021 0.0
H3362 H 0.74779 0.18882 0.83175 0.0
H3363 H 0.73721 0.15957 0.85754 0.0
H3364 H 0.78444 0.17319 0.82159 0.0
H3365 H 0.7597 0.25729 0.84512 0.0
H3366 H 0.75876 0.23019 0.8631 0.0
H3367 H 0.74969 0.23311 0.83636 0.0
C3368 C 0.76571 0.15603 0.88206 0.0
C3369 C 0.75323 0.15083 0.87868 0.0
C3370 C 0.77172 0.17276 0.86742 0.0
C3371 C 0.76537 0.18483 0.84917 0.0
C3372 C 0.75283 0.18009 0.84603 0.0
H3373 H 0.77931 0.27135 0.7271 0.0
H3374 H 0.772 0.24591 0.75958 0.0
C3375 C 0.74679 0.16335 0.86075 0.0
C3376 C 0.77202 0.20129 0.83262 0.0
H3377 H 0.77191 0.25852 0.80955 0.0
C3378 C 0.78181 0.19194 0.81917 0.0
C3379 C 0.76865 0.2258 0.82962 0.0
C3380 C 0.75871 0.23729 0.84448 0.0
C3381 C 0.78792 0.20613 0.802 0.0
C3382 C 0.78423 0.23034 0.79839 0.0
C3383 C 0.77472 0.23992 0.81237 0.0
C3384 C 0.78921 0.24531 0.77858 0.0
C3385 C 0.79791 0.19485 0.78709 0.0
C3386 C 0.80142 0.25335 0.77835 0.0
C3387 C 0.80571 0.26807 0.7596 0.0
C3388 C 0.79781 0.27494 0.7409 0.0
C3389 C 0.78567 0.26651 0.74119 0.0
C3390 C 0.78143 0.25196 0.7598 0.0
H3391 H 0.79852 0.17497 0.78983 0.0
H3392 H 0.79633 0.19848 0.76776 0.0
H3393 H 0.80683 0.20303 0.79203 0.0
H3394 H 0.80755 0.24858 0.79284 0.0
H3395 H 0.81508 0.27438 0.75994 0.0
H3396 H 0.50927 0.01832 0.71946 0.0
H3397 H 0.51728 0.04235 0.75252 0.0
H3398 H 0.48998 0.01227 0.79971 0.0
H3399 H 0.48179 0.98793 0.76627 0.0
H3400 H 0.49507 0.06481 0.80498 0.0
H3401 H 0.53687 1.00836 0.8072 0.0
H3402 H 0.53319 0.01937 0.77778 0.0
H3403 H 0.52295 0.99874 0.7926 0.0
C3404 C 0.50482 0.01704 0.73677 0.0
C3405 C 0.49496 1.00114 0.74034 0.0
C3406 C 0.50946 0.03071 0.75568 0.0
C3407 C 0.50442 0.02865 0.77866 0.0
C3408 C 0.49407 0.01392 0.7821 0.0
H3409 H 0.54736 0.08891 0.89846 0.0
H3410 H 0.5356 0.06067 0.87343 0.0
C3411 C 0.48935 1.00019 0.763 0.0
C3412 C 0.51044 0.04135 0.79892 0.0
H3413 H 0.53814 0.04691 0.82668 0.0
C3414 C 0.50441 0.06069 0.81004 0.0
C3415 C 0.52257 0.03569 0.80578 0.0
C3416 C 0.52925 0.01425 0.7954 0.0
C3417 C 0.51046 0.07542 0.82685 0.0
C3418 C 0.52291 0.07089 0.83232 0.0
C3419 C 0.52867 0.05063 0.82226 0.0
C3420 C 0.53029 0.08767 0.84732 0.0
C3421 C 0.50349 0.09585 0.8384 0.0
C3422 C 0.53161 0.11197 0.8405 0.0
C3423 C 0.53834 0.12802 0.85464 0.0
C3424 C 0.54402 0.1201 0.87586 0.0
C3425 C 0.54315 0.09552 0.88216 0.0
C3426 C 0.53635 0.07943 0.86799 0.0
H3427 H 0.49349 0.09218 0.83852 0.0
H3428 H 0.50657 0.09895 0.85711 0.0
H3429 H 0.50503 0.1127 0.82801 0.0
H3430 H 0.52738 0.11859 0.82422 0.0
H3431 H 0.53901 0.14675 0.84906 0.0
H3432 H 0.81302 0.98791 0.49267 0.0
H3433 H 0.80482 0.01343 0.46019 0.0
H3434 H 0.77656 0.03918 0.50764 0.0
H3435 H 0.78452 0.01383 0.53968 0.0
H3436 H 0.76767 0.02107 0.46419 0.0
H3437 H 0.80521 0.08779 0.45047 0.0
H3438 H 0.80929 0.05627 0.44975 0.0
H3439 H 0.80407 0.06954 0.47724 0.0
C3440 C 0.80523 0.99945 0.49621 0.0
C3441 C 0.79939 0.99885 0.51865 0.0
C3442 C 0.80054 0.01396 0.47768 0.0
C3443 C 0.79005 0.02818 0.48151 0.0
C3444 C 0.78459 0.02825 0.50422 0.0
H3445 H 0.75603 0.14789 0.41243 0.0
H3446 H 0.76678 0.11881 0.43776 0.0
C3447 C 0.78918 0.01377 0.52254 0.0
C3448 C 0.78419 0.04217 0.46191 0.0
H3449 H 0.78757 0.09229 0.42672 0.0
C3450 C 0.77206 0.0365 0.45577 0.0
C3451 C 0.78991 0.06234 0.4511 0.0
C3452 C 0.80281 0.06958 0.45749 0.0
C3453 C 0.76535 0.05091 0.43975 0.0
C3454 C 0.771 0.07134 0.42922 0.0
C3455 C 0.78326 0.07658 0.43478 0.0
C3456 C 0.76412 0.0885 0.41379 0.0
C3457 C 0.75211 0.04479 0.43513 0.0
C3458 C 0.7589 0.08108 0.39198 0.0
C3459 C 0.75265 0.0977 0.37748 0.0
C3460 C 0.75165 0.12207 0.38444 0.0
C3461 C 0.75673 0.12929 0.40648 0.0
C3462 C 0.7629 0.1127 0.42095 0.0
H3463 H 0.74846 0.03178 0.44853 0.0
H3464 H 0.74637 0.06135 0.43545 0.0
H3465 H 0.75125 0.03643 0.41714 0.0
H3466 H 0.75988 0.06257 0.38591 0.0
H3467 H 0.749 0.09168 0.36045 0.0
H3468 H 0.48304 0.27937 0.49421 0.0
H3469 H 0.49171 0.25356 0.46243 0.0
H3470 H 0.52 0.23007 0.51095 0.0
H3471 H 0.51156 0.25566 0.54231 0.0
H3472 H 0.52889 0.24777 0.46719 0.0
H3473 H 0.49229 0.17889 0.45436 0.0
H3474 H 0.48781 0.21018 0.453 0.0
H3475 H 0.49311 0.19768 0.48079 0.0
C3476 C 0.49095 0.26829 0.49814 0.0
C3477 C 0.49665 0.26961 0.52069 0.0
C3478 C 0.4959 0.2536 0.48001 0.0
C3479 C 0.50653 0.23992 0.48433 0.0
C3480 C 0.51186 0.24057 0.50715 0.0
H3481 H 0.5426 0.12094 0.41723 0.0
H3482 H 0.53133 0.14958 0.44222 0.0
C3483 C 0.507 0.25521 0.52508 0.0
C3484 C 0.51266 0.2258 0.46513 0.0
H3485 H 0.51007 0.17484 0.43089 0.0
C3486 C 0.52473 0.23196 0.45903 0.0
C3487 C 0.50725 0.20511 0.45468 0.0
C3488 C 0.49443 0.19735 0.46105 0.0
C3489 C 0.53168 0.21761 0.44334 0.0
C3490 C 0.52633 0.19671 0.43312 0.0
C3491 C 0.51414 0.1909 0.43871 0.0
C3492 C 0.53347 0.17977 0.41788 0.0
C3493 C 0.54484 0.22436 0.43871 0.0
C3494 C 0.53855 0.18726 0.39595 0.0
C3495 C 0.54507 0.1709 0.38164 0.0
C3496 C 0.54652 0.14669 0.38889 0.0
C3497 C 0.54157 0.1394 0.41103 0.0
C3498 C 0.5351 0.15574 0.42532 0.0
H3499 H 0.5483 0.23774 0.45194 0.0
H3500 H 0.5508 0.20812 0.43929 0.0
H3501 H 0.54563 0.23252 0.4206 0.0
H3502 H 0.53725 0.20561 0.38966 0.0
H3503 H 0.54859 0.17698 0.36452 0.0
H3504 H 0.23106 0.74918 0.25063 0.0
H3505 H 0.23865 0.77488 0.21764 0.0
H3506 H 0.27514 0.77043 0.24645 0.0
H3507 H 0.26779 0.7452 0.27899 0.0
H3508 H 0.25249 0.82075 0.22155 0.0
H3509 H 0.27877 0.7488 0.17545 0.0
H3510 H 0.26661 0.7423 0.19642 0.0
H3511 H 0.28156 0.7504 0.20713 0.0
C3512 C 0.24068 0.75376 0.24988 0.0
C3513 C 0.24881 0.74502 0.26739 0.0
C3514 C 0.245 0.76837 0.23105 0.0
C3515 C 0.2575 0.77414 0.2294 0.0
C3516 C 0.26551 0.76579 0.2471 0.0
H3517 H 0.30961 0.85937 0.15074 0.0
H3518 H 0.29865 0.83051 0.17648 0.0
C3519 C 0.26124 0.75143 0.26581 0.0
C3520 C 0.2624 0.78937 0.20972 0.0
H3521 H 0.28398 0.78964 0.16542 0.0
C3522 C 0.25921 0.81392 0.20896 0.0
C3523 C 0.27124 0.7804 0.19349 0.0
C3524 C 0.27469 0.75398 0.19295 0.0
C3525 C 0.26504 0.82999 0.1931 0.0
C3526 C 0.27415 0.82113 0.17732 0.0
C3527 C 0.27707 0.79642 0.17762 0.0
C3528 C 0.28091 0.83736 0.16071 0.0
C3529 C 0.26179 0.8565 0.19412 0.0
C3530 C 0.27464 0.85014 0.14284 0.0
C3531 C 0.28086 0.86653 0.12818 0.0
C3532 C 0.29351 0.87043 0.13098 0.0
C3533 C 0.29988 0.85677 0.14815 0.0
C3534 C 0.29362 0.84036 0.16291 0.0
H3535 H 0.25685 0.86118 0.21088 0.0
H3536 H 0.27012 0.86795 0.19284 0.0
H3537 H 0.25576 0.861 0.17876 0.0
H3538 H 0.2649 0.84763 0.14038 0.0
H3539 H 0.27573 0.87635 0.11472 0.0
H3540 H 0.53057 0.02628 0.27884 0.0
H3541 H 0.52331 1.0005 0.24666 0.0
H3542 H 0.55997 0.99484 0.21885 0.0
H3543 H 0.56747 0.02101 0.25151 0.0
H3544 H 0.52583 1.00963 0.19582 0.0
H3545 H 0.54726 0.9233 0.22574 0.0
H3546 H 0.54526 0.94864 0.24579 0.0
H3547 H 0.55688 0.94964 0.22314 0.0
C3548 C 0.53718 0.01958 0.26602 0.0
C3549 C 0.54964 0.02572 0.26781 0.0
C3550 C 0.53297 1.00484 0.24755 0.0
C3551 C 0.54108 0.99571 0.23043 0.0
C3552 C 0.55357 1.00158 0.23206 0.0
H3553 H 0.52162 0.89153 0.11892 0.0
H3554 H 0.53278 0.92035 0.14386 0.0
C3555 C 0.55784 0.01653 0.25066 0.0
C3556 C 0.53616 0.98023 0.21098 0.0
H3557 H 0.53406 0.92148 0.1926 0.0
C3558 C 0.52773 0.99039 0.1949 0.0
C3559 C 0.53865 0.95518 0.20987 0.0
C3560 C 0.54745 0.94335 0.22707 0.0
C3561 C 0.52153 0.97607 0.17802 0.0
C3562 C 0.52363 0.95083 0.17756 0.0
C3563 C 0.53239 0.94081 0.19308 0.0
C3564 C 0.51667 0.93436 0.16151 0.0
C3565 C 0.5128 0.98814 0.16084 0.0
C3566 C 0.50386 0.93265 0.16306 0.0
C3567 C 0.49742 0.91612 0.14878 0.0
C3568 C 0.50371 0.90077 0.13295 0.0
C3569 C 0.51651 0.90281 0.13122 0.0
C3570 C 0.52291 0.91935 0.14539 0.0
H3571 H 0.51495 1.00767 0.15863 0.0
H3572 H 0.51304 0.97934 0.14296 0.0
H3573 H 0.50337 0.98669 0.16802 0.0
H3574 H 0.49886 0.94369 0.17574 0.0
H3575 H 0.48759 0.91483 0.15066 0.0
H3576 H 0.30975 0.91047 0.608 0.0
H3577 H 0.2984 0.93802 0.58152 0.0
H3578 H 0.26437 0.91203 0.61086 0.0
H3579 H 0.2756 0.88464 0.63733 0.0
H3580 H 0.27912 0.92101 0.54714 0.0
H3581 H 0.26226 0.98821 0.61369 0.0
H3582 H 0.27551 0.96953 0.6192 0.0
H3583 H 0.26048 0.95666 0.62095 0.0
C3584 C 0.29986 0.91087 0.60898 0.0
C3585 C 0.29357 0.89528 0.62461 0.0
C3586 C 0.29339 0.92653 0.59383 0.0
C3587 C 0.28055 0.92714 0.59437 0.0
C3588 C 0.27427 0.91199 0.61032 0.0
H3589 H 0.23016 0.01699 0.5075 0.0
H3590 H 0.23762 0.9873 0.53714 0.0
C3591 C 0.28071 0.89622 0.62527 0.0
C3592 C 0.27368 0.94264 0.57735 0.0
H3593 H 0.25579 0.99318 0.57364 0.0
C3594 C 0.274 0.93676 0.55292 0.0
C3595 C 0.26681 0.96287 0.58504 0.0
C3596 C 0.26624 0.96991 0.61112 0.0
C3597 C 0.26781 0.95083 0.53587 0.0
C3598 C 0.26137 0.97172 0.54338 0.0
C3599 C 0.26071 0.97716 0.56792 0.0
C3600 C 0.25652 0.98943 0.52575 0.0
C3601 C 0.26827 0.94323 0.50991 0.0
C3602 C 0.26466 1.00069 0.50993 0.0
C3603 C 0.26047 0.01739 0.49317 0.0
C3604 C 0.248 0.02353 0.49186 0.0
C3605 C 0.2398 0.01253 0.50795 0.0
C3606 C 0.24405 0.99564 0.52489 0.0
H3607 H 0.26986 0.92346 0.50814 0.0
H3608 H 0.25966 0.94792 0.50043 0.0
H3609 H 0.27595 0.95271 0.5009 0.0
H3610 H 0.27435 0.99667 0.51062 0.0
H3611 H 0.26712 0.02557 0.48127 0.0
H3612 H 0.52401 0.87885 0.64611 0.0
H3613 H 0.53525 0.85192 0.61912 0.0
H3614 H 0.50153 0.83234 0.58415 0.0
H3615 H 0.4902 0.85945 0.611 0.0
H3616 H 0.53166 0.79966 0.60852 0.0
H3617 H 0.52472 0.86069 0.53055 0.0
H3618 H 0.52285 0.87067 0.56116 0.0
H3619 H 0.51112 0.853 0.54698 0.0
C3620 C 0.51898 0.86876 0.6327 0.0
C3621 C 0.50623 0.87147 0.63047 0.0
C3622 C 0.52541 0.8533 0.61741 0.0
C3623 C 0.51924 0.84042 0.59949 0.0
C3624 C 0.50646 0.84236 0.59776 0.0
H3625 H 0.53159 0.74809 0.4823 0.0
H3626 H 0.52506 0.77553 0.51359 0.0
C3627 C 0.5 0.8577 0.61317 0.0
C3628 C 0.52619 0.82572 0.58196 0.0
H3629 H 0.53309 0.82202 0.52245 0.0
C3630 C 0.5321 0.80458 0.58972 0.0
C3631 C 0.52686 0.83245 0.55756 0.0
C3632 C 0.52115 0.85554 0.54849 0.0
C3633 C 0.53809 0.78923 0.57338 0.0
C3634 C 0.53836 0.79553 0.5488 0.0
C3635 C 0.53289 0.81722 0.5413 0.0
C3636 C 0.54287 0.77865 0.53008 0.0
C3637 C 0.54356 0.76588 0.58233 0.0
C3638 C 0.55517 0.77127 0.52878 0.0
C3639 C 0.55901 0.75528 0.51068 0.0
C3640 C 0.55059 0.7466 0.49367 0.0
C3641 C 0.53836 0.75432 0.49505 0.0
C3642 C 0.53457 0.7701 0.51297 0.0
H3643 H 0.54086 0.76187 0.60111 0.0
H3644 H 0.54071 0.75052 0.57077 0.0
H3645 H 0.55368 0.76715 0.58159 0.0
H3646 H 0.56178 0.77796 0.54162 0.0
H3647 H 0.56849 0.74967 0.51007 0.0
H3648 H 0.75215 0.6795 0.40139 0.0
H3649 H 0.76339 0.70858 0.37648 0.0
H3650 H 0.7674 0.65444 0.32139 0.0
H3651 H 0.75629 0.62536 0.34618 0.0
H3652 H 0.78911 0.67832 0.33137 0.0
H3653 H 0.75113 0.74351 0.31679 0.0
H3654 H 0.75468 0.73706 0.34757 0.0
H3655 H 0.74862 0.71358 0.32874 0.0
C3656 C 0.75527 0.67395 0.38381 0.0
C3657 C 0.75331 0.65016 0.37572 0.0
C3658 C 0.76172 0.69055 0.36963 0.0
C3659 C 0.76619 0.68371 0.34701 0.0
C3660 C 0.7641 0.66007 0.33882 0.0
H3661 H 0.78462 0.76054 0.22178 0.0
H3662 H 0.77692 0.7355 0.25429 0.0
C3663 C 0.75773 0.64349 0.35299 0.0
C3664 C 0.7731 0.70095 0.3317 0.0
H3665 H 0.77009 0.75298 0.29929 0.0
C3666 C 0.78501 0.69478 0.3245 0.0
C3667 C 0.76771 0.72236 0.32274 0.0
C3668 C 0.7548 0.72952 0.32915 0.0
C3669 C 0.79153 0.70906 0.30799 0.0
C3670 C 0.78604 0.7302 0.29871 0.0
C3671 C 0.7743 0.7368 0.30656 0.0
C3672 C 0.79159 0.74424 0.2788 0.0
C3673 C 0.80398 0.70084 0.29973 0.0
C3674 C 0.8026 0.75714 0.28157 0.0
C3675 C 0.80713 0.77148 0.26274 0.0
C3676 C 0.80061 0.77323 0.24109 0.0
C3677 C 0.78981 0.75972 0.23829 0.0
C3678 C 0.78537 0.74541 0.25689 0.0
H3679 H 0.80611 0.68217 0.30581 0.0
H3680 H 0.8046 0.70149 0.27987 0.0
H3681 H 0.81105 0.71321 0.30706 0.0
H3682 H 0.80747 0.75669 0.29845 0.0
H3683 H 0.81541 0.78189 0.26545 0.0
H3684 H 0.48997 0.52723 0.22965 0.0
H3685 H 0.49888 0.5546 0.25964 0.0
H3686 H 0.5087 0.4932 0.30332 0.0
H3687 H 0.50006 0.46589 0.27307 0.0
H3688 H 0.49622 0.56363 0.30866 0.0
H3689 H 0.54171 0.52395 0.28876 0.0
H3690 H 0.52839 0.51771 0.27073 0.0
H3691 H 0.5306 0.50226 0.29877 0.0
C3692 C 0.49364 0.51972 0.24607 0.0
C3693 C 0.49421 0.49458 0.24933 0.0
C3694 C 0.49883 0.53531 0.26309 0.0
C3695 C 0.50472 0.52591 0.28346 0.0
C3696 C 0.50444 0.50083 0.28751 0.0
H3697 H 0.5483 0.59328 0.39658 0.0
H3698 H 0.5369 0.56482 0.37136 0.0
C3699 C 0.49936 0.48528 0.27043 0.0
C3700 C 0.51192 0.5421 0.29944 0.0
H3701 H 0.54089 0.55279 0.32004 0.0
C3702 C 0.50598 0.56126 0.31115 0.0
C3703 C 0.5247 0.53912 0.30255 0.0
C3704 C 0.53177 0.51981 0.28938 0.0
C3705 C 0.51245 0.57728 0.3261 0.0
C3706 C 0.52519 0.5742 0.32924 0.0
C3707 C 0.53111 0.555 0.31768 0.0
C3708 C 0.53257 0.59114 0.34397 0.0
C3709 C 0.5056 0.5973 0.33862 0.0
C3710 C 0.53426 0.61514 0.33652 0.0
C3711 C 0.54092 0.63135 0.35066 0.0
C3712 C 0.54602 0.62395 0.37267 0.0
C3713 C 0.54464 0.59961 0.37967 0.0
C3714 C 0.53802 0.58335 0.36539 0.0
H3715 H 0.49556 0.59423 0.33837 0.0
H3716 H 0.50866 0.599 0.35753 0.0
H3717 H 0.50753 0.61472 0.32946 0.0
H3718 H 0.53035 0.62138 0.31979 0.0
H3719 H 0.542 0.64978 0.34441 0.0
H3720 H 0.74649 0.59053 0.86188 0.0
H3721 H 0.758 0.56168 0.88654 0.0
H3722 H 0.76672 0.61862 0.9365 0.0
H3723 H 0.75515 0.6474 0.91227 0.0
H3724 H 0.78737 0.58999 0.9207 0.0
H3725 H 0.74833 0.53433 0.95352 0.0
H3726 H 0.74934 0.5391 0.92168 0.0
H3727 H 0.74626 0.56422 0.94111 0.0
C3728 C 0.75066 0.5968 0.87836 0.0
C3729 C 0.74991 0.6213 0.88507 0.0
C3730 C 0.75729 0.58032 0.89235 0.0
C3731 C 0.76325 0.58805 0.9133 0.0
C3732 C 0.76229 0.61233 0.92028 0.0
H3733 H 0.78856 0.51896 0.03855 0.0
H3734 H 0.77988 0.54388 0.00682 0.0
C3735 C 0.75566 0.62875 0.90641 0.0
C3736 C 0.77057 0.57107 0.92807 0.0
H3737 H 0.76796 0.52355 0.9668 0.0
C3738 C 0.78318 0.57527 0.93062 0.0
C3739 C 0.76504 0.55198 0.941 0.0
C3740 C 0.75149 0.5471 0.93942 0.0
C3741 C 0.79035 0.56127 0.94628 0.0
C3742 C 0.78476 0.54254 0.9596 0.0
C3743 C 0.77223 0.53789 0.95647 0.0
C3744 C 0.79132 0.52918 0.97877 0.0
C3745 C 0.80372 0.56726 0.94928 0.0
C3746 C 0.80096 0.51312 0.97369 0.0
C3747 C 0.80607 0.49891 0.99203 0.0
C3748 C 0.80148 0.50046 0.0155 0.0
C3749 C 0.79223 0.51731 0.02058 0.0
C3750 C 0.78724 0.53152 1.00246 0.0
H3751 H 0.80624 0.58449 0.94028 0.0
H3752 H 0.80609 0.56862 0.96859 0.0
H3753 H 0.80931 0.55252 0.94142 0.0
H3754 H 0.80416 0.51085 0.95547 0.0
H3755 H 0.81308 0.4858 0.98762 0.0
H3756 H 0.52337 0.64066 0.86854 0.0
H3757 H 0.51262 0.66985 0.89372 0.0
H3758 H 0.54683 0.69102 0.92595 0.0
H3759 H 0.55769 0.66178 0.90069 0.0
H3760 H 0.51125 0.67079 0.94253 0.0
H3761 H 0.53179 0.75601 0.90915 0.0
H3762 H 0.53327 0.72768 0.89331 0.0
H3763 H 0.54303 0.73431 0.91844 0.0
C3764 C 0.52863 0.65154 0.88098 0.0
C3765 C 0.5414 0.64877 0.88273 0.0
C3766 C 0.52246 0.66829 0.89529 0.0
C3767 C 0.5289 0.68281 0.91157 0.0
C3768 C 0.54168 0.68038 0.91315 0.0
H3769 H 0.51635 0.77521 0.02924 0.0
H3770 H 0.5232 0.74885 0.99719 0.0
C3771 C 0.54788 0.66363 0.89875 0.0
C3772 C 0.52218 0.69959 0.92769 0.0
H3773 H 0.52093 0.75838 0.94633 0.0
C3774 C 0.51324 0.69001 0.94314 0.0
C3775 C 0.52469 0.7247 0.92833 0.0
C3776 C 0.53363 0.73635 0.91125 0.0
C3777 C 0.5072 0.70465 0.96 0.0
C3778 C 0.5101 0.72953 0.96129 0.0
C3779 C 0.51871 0.73927 0.94529 0.0
C3780 C 0.5054 0.74521 0.9808 0.0
C3781 C 0.49819 0.69326 0.9771 0.0
C3782 C 0.49301 0.7519 0.98235 0.0
C3783 C 0.48898 0.76719 1.00087 0.0
C3784 C 0.49731 0.77594 0.01803 0.0
C3785 C 0.50965 0.7689 0.01639 0.0
C3786 C 0.51363 0.75383 0.998 0.0
H3787 H 0.49804 0.67321 0.97562 0.0
H3788 H 0.50045 0.69827 0.99586 0.0
H3789 H 0.48888 0.70016 0.97319 0.0
H3790 H 0.48653 0.74558 0.96909 0.0
H3791 H 0.47944 0.77236 1.0016 0.0
H3792 H 0.26006 0.26784 0.79476 0.0
H3793 H 0.26851 0.2931 0.76309 0.0
H3794 H 0.24134 0.26615 0.71382 0.0
H3795 H 0.23268 0.24064 0.7459 0.0
H3796 H 0.2782 0.27391 0.7201 0.0
H3797 H 0.24116 0.34089 0.70354 0.0
H3798 H 0.24194 0.32329 0.73078 0.0
H3799 H 0.23701 0.30936 0.7034 0.0
C3800 C 0.25573 0.26751 0.7773 0.0
C3801 C 0.24572 0.2522 0.77278 0.0
C3802 C 0.2606 0.28194 0.75919 0.0
C3803 C 0.25561 0.28146 0.73608 0.0
C3804 C 0.24528 0.26695 0.73162 0.0
H3805 H 0.29829 0.34313 0.61625 0.0
H3806 H 0.28698 0.31456 0.64162 0.0
C3807 C 0.24031 0.25246 0.74992 0.0
C3808 C 0.26184 0.29524 0.71674 0.0
H3809 H 0.25924 0.34517 0.68105 0.0
C3810 C 0.27402 0.28934 0.71133 0.0
C3811 C 0.25638 0.31543 0.70549 0.0
C3812 C 0.24343 0.32285 0.71109 0.0
C3813 C 0.28102 0.30349 0.69553 0.0
C3814 C 0.27564 0.32393 0.68455 0.0
C3815 C 0.26334 0.32945 0.68945 0.0
C3816 C 0.28283 0.34077 0.66926 0.0
C3817 C 0.29428 0.29709 0.69159 0.0
C3818 C 0.28428 0.36495 0.67636 0.0
C3819 C 0.29074 0.38123 0.66197 0.0
C3820 C 0.29586 0.37374 0.64006 0.0
C3821 C 0.29463 0.34937 0.63319 0.0
C3822 C 0.28812 0.33305 0.64762 0.0
H3823 H 0.29767 0.28399 0.70516 0.0
H3824 H 0.29533 0.28874 0.67363 0.0
H3825 H 0.30012 0.31353 0.69221 0.0
H3826 H 0.28035 0.37127 0.69305 0.0
H3827 H 0.29161 0.39982 0.66788 0.0
H3828 H 0.56244 0.52991 0.74581 0.0
H3829 H 0.55423 0.50521 0.71269 0.0
H3830 H 0.52517 0.48019 0.75873 0.0
H3831 H 0.53318 0.50462 0.79145 0.0
H3832 H 0.54852 0.45411 0.70885 0.0
H3833 H 0.50717 0.51128 0.70136 0.0
H3834 H 0.52074 0.52097 0.71712 0.0
H3835 H 0.50993 0.50108 0.73142 0.0
C3836 C 0.55443 0.5188 0.74888 0.0
C3837 C 0.54838 0.51937 0.77112 0.0
C3838 C 0.54971 0.50484 0.72997 0.0
C3839 C 0.53891 0.49138 0.73312 0.0
C3840 C 0.53333 0.49092 0.75572 0.0
H3841 H 0.50502 0.37148 0.66409 0.0
H3842 H 0.51623 0.40021 0.68905 0.0
C3843 C 0.53797 0.50483 0.77445 0.0
C3844 C 0.53315 0.478 0.71301 0.0
H3845 H 0.50597 0.47187 0.68345 0.0
C3846 C 0.53929 0.45818 0.703 0.0
C3847 C 0.52118 0.48359 0.70508 0.0
C3848 C 0.51441 0.50554 0.71411 0.0
C3849 C 0.5335 0.44297 0.68628 0.0
C3850 C 0.52119 0.4475 0.67976 0.0
C3851 C 0.51532 0.46816 0.68871 0.0
C3852 C 0.51406 0.43038 0.66469 0.0
C3853 C 0.5406 0.42204 0.67593 0.0
C3854 C 0.50857 0.43805 0.64322 0.0
C3855 C 0.50203 0.42164 0.62895 0.0
C3856 C 0.50085 0.3973 0.63598 0.0
C3857 C 0.50595 0.38999 0.65796 0.0
C3858 C 0.51243 0.40636 0.67218 0.0
H3859 H 0.5506 0.42547 0.67656 0.0
H3860 H 0.53871 0.40554 0.68665 0.0
H3861 H 0.53791 0.41846 0.65707 0.0
H3862 H 0.50958 0.45659 0.63724 0.0
H3863 H 0.49829 0.4278 0.61206 0.0
H3864 H 0.27639 0.40136 0.15021 0.0
H3865 H 0.26554 0.42818 0.12255 0.0
H3866 H 0.29779 0.43306 0.07838 0.0
H3867 H 0.30871 0.40598 0.10598 0.0
H3868 H 0.27148 0.47662 0.10462 0.0
H3869 H 0.27004 0.40599 0.03382 0.0
H3870 H 0.27333 0.39913 0.0648 0.0
H3871 H 0.28493 0.41221 0.04603 0.0
C3872 C 0.2812 0.40827 0.13467 0.0
C3873 C 0.29336 0.40135 0.13008 0.0
C3874 C 0.275 0.42366 0.11897 0.0
C3875 C 0.2808 0.43229 0.09826 0.0
C3876 C 0.29311 0.42632 0.09414 0.0
H3877 H 0.26466 0.51397 0.97395 0.0
H3878 H 0.27207 0.48774 0.00563 0.0
C3879 C 0.29937 0.41103 0.10998 0.0
C3880 C 0.27379 0.44663 0.08048 0.0
H3881 H 0.26313 0.44507 0.02302 0.0
C3882 C 0.26957 0.46974 0.08681 0.0
C3883 C 0.27118 0.4374 0.05742 0.0
C3884 C 0.27499 0.41225 0.05007 0.0
C3885 C 0.26331 0.48438 0.07022 0.0
C3886 C 0.261 0.47538 0.04688 0.0
C3887 C 0.26488 0.45193 0.04091 0.0
C3888 C 0.25584 0.49081 0.02755 0.0
C3889 C 0.2597 0.50969 0.07743 0.0
C3890 C 0.24407 0.50098 0.02902 0.0
C3891 C 0.23974 0.51623 0.01072 0.0
C3892 C 0.24714 0.52142 0.99076 0.0
C3893 C 0.25872 0.51053 0.98913 0.0
C3894 C 0.263 0.49544 0.00725 0.0
H3895 H 0.26415 0.51539 0.09442 0.0
H3896 H 0.26214 0.52286 0.06317 0.0
H3897 H 0.24965 0.51044 0.08006 0.0
H3898 H 0.23828 0.49727 0.04434 0.0
H3899 H 0.23078 0.52436 0.01247 0.0
H3900 H 0.53133 0.22932 0.99726 0.0
H3901 H 0.52432 0.2595 0.0257 0.0
H3902 H 0.5603 0.29138 0.02725 0.0
H3903 H 0.56755 0.26065 0.9984 0.0
H3904 H 0.54754 0.28637 0.0742 0.0
H3905 H 0.51927 0.33106 1.00473 0.0
H3906 H 0.51692 0.29894 0.0064 0.0
H3907 H 0.53159 0.31061 0.99747 0.0
C3908 C 0.53783 0.24265 1.00362 0.0
C3909 C 0.54997 0.24281 0.99528 0.0
C3910 C 0.53378 0.25992 0.01991 0.0
C3911 C 0.54171 0.27795 0.0282 0.0
C3912 C 0.55402 0.27766 0.02087 0.0
H3913 H 0.50999 0.40471 0.09749 0.0
H3914 H 0.52163 0.37779 0.07148 0.0
C3915 C 0.55814 0.26014 1.00447 0.0
C3916 C 0.53675 0.2973 0.04384 0.0
H3917 H 0.51442 0.34037 0.04544 0.0
C3918 C 0.54043 0.29845 0.0679 0.0
C3919 C 0.52756 0.3132 0.03551 0.0
C3920 C 0.52367 0.31362 0.00956 0.0
C3921 C 0.53477 0.31445 0.08409 0.0
C3922 C 0.52503 0.32929 0.07605 0.0
C3923 C 0.52175 0.32879 0.05174 0.0
C3924 C 0.5181 0.34555 0.0924 0.0
C3925 C 0.5393 0.31532 0.10961 0.0
C3926 C 0.51199 0.33638 0.11262 0.0
C3927 C 0.50538 0.35183 0.12774 0.0
C3928 C 0.50467 0.37677 0.12281 0.0
C3929 C 0.51051 0.38571 0.10213 0.0
C3930 C 0.51715 0.37031 0.08714 0.0
H3931 H 0.54886 0.3087 0.11103 0.0
H3932 H 0.53887 0.33399 0.11692 0.0
H3933 H 0.53347 0.30347 0.12091 0.0
H3934 H 0.51229 0.31724 0.11671 0.0
H3935 H 0.50107 0.34432 0.14355 0.0
loop_
_geom_bond_atom_site_label_1
_geom_bond_atom_site_label_2
_geom_bond_distance
_geom_bond_site_symmetry_2
_ccdc_geom_bond_type
C0 C1 1.351 . S
C0 N3 1.368 . S
C0 H5 0.931 . S
C1 C0 1.351 . S
C1 N2 1.373 . S
C1 H29 0.930 . S
N2 C1 1.373 . S
N2 C4 1.340 . S
N3 C0 1.368 . S
N3 C4 1.321 . S
N3 Co6 2.135 . S
C4 N2 1.340 . S
C4 N3 1.321 . S
C4 H28 0.930 . S
H5 C0 0.931 . S
Co6 N3 2.135 . S
Co6 N9 2.121 . S
Co6 O14 2.055 . S
Co6 O17 2.039 . S
Co6 N20 2.140 . S
C7 O8 1.227 . S
C7 O17 1.265 . S
O8 C7 1.227 . S
N9 Co6 2.121 . S
N9 C11 1.375 . S
N9 C12 1.313 . S
C10 C11 1.338 . S
C10 N13 1.377 . S
C10 H30 0.930 . S
C11 N9 1.375 . S
C11 C10 1.338 . S
C11 H15 0.931 . S
C12 N9 1.313 . S
C12 N13 1.344 . S
C12 H16 0.930 . S
N13 C10 1.377 . S
N13 C12 1.344 . S
O14 Co6 2.055 . S
O14 C18 1.253 . S
H15 C11 0.931 . S
H16 C12 0.930 . S
O17 Co6 2.039 . S
O17 C7 1.265 . S
C18 O14 1.253 . S
C18 O19 1.227 . S
O19 C18 1.227 . S
N20 Co6 2.140 . S
N20 C23 1.346 . S
N20 C24 1.345 . S
C21 C22 1.387 . S
C21 C25 1.391 . S
C22 C21 1.387 . S
C22 C23 1.369 . S
C22 H31 0.929 . S
C23 N20 1.346 . S
C23 C22 1.369 . S
C23 H26 0.928 . S
C24 N20 1.345 . S
C24 C25 1.371 . S
C24 H27 0.931 . S
C25 C21 1.391 . S
C25 C24 1.371 . S
C25 H32 0.930 . S
H26 C23 0.928 . S
H27 C24 0.931 . S
H28 C4 0.930 . S
H29 C1 0.930 . S
H30 C10 0.930 . S
H31 C22 0.929 . S
H32 C25 0.930 . S
C33 C34 1.351 . S
C33 N36 1.368 . S
C33 H38 0.931 . S
C34 C33 1.351 . S
C34 N35 1.373 . S
C34 H62 0.930 . S
N35 C34 1.373 . S
N35 C37 1.340 . S
N36 C33 1.368 . S
N36 C37 1.321 . S
N36 Co39 2.135 . S
C37 N35 1.340 . S
C37 N36 1.321 . S
C37 H61 0.930 . S
H38 C33 0.931 . S
Co39 N36 2.135 . S
Co39 N42 2.121 . S
Co39 O47 2.055 . S
Co39 O50 2.039 . S
Co39 N53 2.140 . S
C40 O41 1.227 . S
C40 O50 1.265 . S
O41 C40 1.227 . S
N42 Co39 2.121 . S
N42 C44 1.375 . S
N42 C45 1.313 1_565 S
C43 C44 1.338 1_545 S
C43 N46 1.377 . S
C43 H63 0.930 . S
C44 N42 1.375 . S
C44 C43 1.338 1_565 S
C44 H48 0.931 . S
C45 N42 1.313 1_545 S
C45 N46 1.344 . S
C45 H49 0.930 . S
N46 C43 1.377 . S
N46 C45 1.344 . S
O47 Co39 2.055 . S
O47 C51 1.253 1_565 S
H48 C44 0.931 . S
H49 C45 0.930 . S
O50 Co39 2.039 . S
O50 C40 1.265 . S
C51 O47 1.253 1_545 S
C51 O52 1.227 1_545 S
O52 C51 1.227 1_565 S
N53 Co39 2.140 . S
N53 C56 1.346 . S
N53 C57 1.345 . S
C54 C55 1.387 . S
C54 C58 1.391 . S
C55 C54 1.387 . S
C55 C56 1.369 . S
C55 H64 0.929 . S
C56 N53 1.346 . S
C56 C55 1.369 . S
C56 H59 0.928 . S
C57 N53 1.345 . S
C57 C58 1.371 . S
C57 H60 0.931 . S
C58 C54 1.391 . S
C58 C57 1.371 . S
C58 H65 0.930 . S
H59 C56 0.928 . S
H60 C57 0.931 . S
H61 C37 0.930 . S
H62 C34 0.930 . S
H63 C43 0.930 . S
H64 C55 0.929 . S
H65 C58 0.930 . S
C66 C67 1.351 . S
C66 N69 1.368 . S
C66 H71 0.931 . S
C67 C66 1.351 . S
C67 N68 1.373 . S
C67 H95 0.930 . S
N68 C67 1.373 . S
N68 C70 1.340 . S
N69 C66 1.368 . S
N69 C70 1.321 . S
N69 Co72 2.135 1_556 S
C70 N68 1.340 . S
C70 N69 1.321 . S
C70 H94 0.930 . S
H71 C66 0.931 . S
Co72 N69 2.135 1_554 S
Co72 N75 2.121 . S
Co72 O80 2.055 1_554 S
Co72 O83 2.039 . S
Co72 N86 2.140 . S
C73 O74 1.227 . S
C73 O83 1.265 . S
O74 C73 1.227 . S
N75 Co72 2.121 . S
N75 C77 1.375 . S
N75 C78 1.313 1_565 S
C76 C77 1.338 1_545 S
C76 N79 1.377 . S
C76 H96 0.930 . S
C77 N75 1.375 . S
C77 C76 1.338 1_565 S
C77 H81 0.931 . S
C78 N75 1.313 1_545 S
C78 N79 1.344 . S
C78 H82 0.930 . S
N79 C76 1.377 . S
N79 C78 1.344 . S
O80 Co72 2.055 1_556 S
O80 C84 1.253 1_565 S
H81 C77 0.931 . S
H82 C78 0.930 . S
O83 Co72 2.039 . S
O83 C73 1.265 . S
C84 O80 1.253 1_545 S
C84 O85 1.227 1_546 S
O85 C84 1.227 1_564 S
N86 Co72 2.140 . S
N86 C89 1.346 . S
N86 C90 1.345 . S
C87 C88 1.387 . S
C87 C91 1.391 . S
C88 C87 1.387 . S
C88 C89 1.369 . S
C88 H97 0.929 . S
C89 N86 1.346 . S
C89 C88 1.369 . S
C89 H92 0.928 . S
C90 N86 1.345 . S
C90 C91 1.371 . S
C90 H93 0.931 . S
C91 C87 1.391 . S
C91 C90 1.371 . S
C91 H98 0.930 . S
H92 C89 0.928 . S
H93 C90 0.931 . S
H94 C70 0.930 . S
H95 C67 0.930 . S
H96 C76 0.930 . S
H97 C88 0.929 . S
H98 C91 0.930 . S
C99 C100 1.351 . S
C99 N102 1.368 . S
C99 H104 0.931 . S
C100 C99 1.351 . S
C100 N101 1.373 . S
C100 H128 0.930 . S
N101 C100 1.373 . S
N101 C103 1.340 . S
N102 C99 1.368 . S
N102 C103 1.321 . S
N102 Co105 2.135 1_556 S
C103 N101 1.340 . S
C103 N102 1.321 . S
C103 H127 0.930 . S
H104 C99 0.931 . S
Co105 N102 2.135 1_554 S
Co105 N108 2.121 . S
Co105 O113 2.055 1_554 S
Co105 O116 2.039 . S
Co105 N119 2.140 . S
C106 O107 1.227 . S
C106 O116 1.265 . S
O107 C106 1.227 . S
N108 Co105 2.121 . S
N108 C110 1.375 . S
N108 C111 1.313 . S
C109 C110 1.338 . S
C109 N112 1.377 . S
C109 H129 0.930 . S
C110 N108 1.375 . S
C110 C109 1.338 . S
C110 H114 0.931 . S
C111 N108 1.313 . S
C111 N112 1.344 . S
C111 H115 0.930 . S
N112 C109 1.377 . S
N112 C111 1.344 . S
O113 Co105 2.055 1_556 S
O113 C117 1.253 . S
H114 C110 0.931 . S
H115 C111 0.930 . S
O116 Co105 2.039 . S
O116 C106 1.265 . S
C117 O113 1.253 . S
C117 O118 1.227 1_556 S
O118 C117 1.227 1_554 S
N119 Co105 2.140 . S
N119 C122 1.346 . S
N119 C123 1.345 . S
C120 C121 1.387 . S
C120 C124 1.391 . S
C121 C120 1.387 . S
C121 C122 1.369 . S
C121 H130 0.929 . S
C122 N119 1.346 . S
C122 C121 1.369 . S
C122 H125 0.928 . S
C123 N119 1.345 . S
C123 C124 1.371 . S
C123 H126 0.931 . S
C124 C120 1.391 . S
C124 C123 1.371 . S
C124 H131 0.930 . S
H125 C122 0.928 . S
H126 C123 0.931 . S
H127 C103 0.930 . S
H128 C100 0.930 . S
H129 C109 0.930 . S
H130 C121 0.929 . S
H131 C124 0.930 . S
C132 C133 1.351 . S
C132 N135 1.368 . S
C132 H137 0.931 . S
C133 C132 1.351 . S
C133 N134 1.373 . S
C133 H161 0.930 . S
N134 C133 1.373 . S
N134 C136 1.340 . S
N135 C132 1.368 . S
N135 C136 1.321 . S
N135 Co138 2.135 . S
C136 N134 1.340 . S
C136 N135 1.321 . S
C136 H160 0.930 . S
H137 C132 0.931 . S
Co138 N135 2.135 . S
Co138 N141 2.121 . S
Co138 O146 2.055 . S
Co138 O149 2.039 . S
Co138 N152 2.140 . S
C139 O140 1.227 . S
C139 O149 1.265 . S
O140 C139 1.227 . S
N141 Co138 2.121 . S
N141 C143 1.375 . S
N141 C144 1.313 . S
C142 C143 1.338 . S
C142 N145 1.377 . S
C142 H162 0.930 . S
C143 N141 1.375 . S
C143 C142 1.338 . S
C143 H147 0.931 . S
C144 N141 1.313 . S
C144 N145 1.344 . S
C144 H148 0.930 . S
N145 C142 1.377 . S
N145 C144 1.344 . S
O146 Co138 2.055 . S
O146 C150 1.253 . S
H147 C143 0.931 . S
H148 C144 0.930 . S
O149 Co138 2.039 . S
O149 C139 1.265 . S
C150 O146 1.253 . S
C150 O151 1.227 . S
O151 C150 1.227 . S
N152 Co138 2.140 . S
N152 C155 1.346 . S
N152 C156 1.345 . S
C153 C154 1.387 . S
C153 C157 1.391 . S
C154 C153 1.387 . S
C154 C155 1.369 . S
C154 H163 0.929 . S
C155 N152 1.346 . S
C155 C154 1.369 . S
C155 H158 0.928 . S
C156 N152 1.345 . S
C156 C157 1.371 . S
C156 H159 0.931 . S
C157 C153 1.391 . S
C157 C156 1.371 . S
C157 H164 0.930 . S
H158 C155 0.928 . S
H159 C156 0.931 . S
H160 C136 0.930 . S
H161 C133 0.930 . S
H162 C142 0.930 . S
H163 C154 0.929 . S
H164 C157 0.930 . S
C165 C166 1.351 . S
C165 N168 1.368 . S
C165 H170 0.931 . S
C166 C165 1.351 . S
C166 N167 1.373 . S
C166 H194 0.930 . S
N167 C166 1.373 . S
N167 C169 1.340 . S
N168 C165 1.368 . S
N168 C169 1.321 . S
N168 Co171 2.135 . S
C169 N167 1.340 . S
C169 N168 1.321 . S
C169 H193 0.930 . S
H170 C165 0.931 . S
Co171 N168 2.135 . S
Co171 N174 2.121 . S
Co171 O179 2.055 . S
Co171 O182 2.039 . S
Co171 N185 2.140 . S
C172 O173 1.227 . S
C172 O182 1.265 . S
O173 C172 1.227 . S
N174 Co171 2.121 . S
N174 C176 1.375 . S
N174 C177 1.313 1_545 S
C175 C176 1.338 1_565 S
C175 N178 1.377 . S
C175 H195 0.930 . S
C176 N174 1.375 . S
C176 C175 1.338 1_545 S
C176 H180 0.931 . S
C177 N174 1.313 1_565 S
C177 N178 1.344 . S
C177 H181 0.930 . S
N178 C175 1.377 . S
N178 C177 1.344 . S
O179 Co171 2.055 . S
O179 C183 1.253 1_545 S
H180 C176 0.931 . S
H181 C177 0.930 . S
O182 Co171 2.039 . S
O182 C172 1.265 . S
C183 O179 1.253 1_565 S
C183 O184 1.227 1_565 S
O184 C183 1.227 1_545 S
N185 Co171 2.140 . S
N185 C188 1.346 . S
N185 C189 1.345 . S
C186 C187 1.387 . S
C186 C190 1.391 . S
C187 C186 1.387 . S
C187 C188 1.369 . S
C187 H196 0.929 . S
C188 N185 1.346 . S
C188 C187 1.369 . S
C188 H191 0.928 . S
C189 N185 1.345 . S
C189 C190 1.371 . S
C189 H192 0.931 . S
C190 C186 1.391 . S
C190 C189 1.371 . S
C190 H197 0.930 . S
H191 C188 0.928 . S
H192 C189 0.931 . S
H193 C169 0.930 . S
H194 C166 0.930 . S
H195 C175 0.930 . S
H196 C187 0.929 . S
H197 C190 0.930 . S
C198 C199 1.351 . S
C198 N201 1.368 . S
C198 H203 0.931 . S
C199 C198 1.351 . S
C199 N200 1.373 . S
C199 H227 0.930 . S
N200 C199 1.373 . S
N200 C202 1.340 . S
N201 C198 1.368 . S
N201 C202 1.321 . S
N201 Co204 2.135 1_554 S
C202 N200 1.340 . S
C202 N201 1.321 . S
C202 H226 0.930 . S
H203 C198 0.931 . S
Co204 N201 2.135 1_556 S
Co204 N207 2.121 . S
Co204 O212 2.055 1_556 S
Co204 O215 2.039 . S
Co204 N218 2.140 . S
C205 O206 1.227 . S
C205 O215 1.265 . S
O206 C205 1.227 . S
N207 Co204 2.121 . S
N207 C209 1.375 . S
N207 C210 1.313 1_545 S
C208 C209 1.338 1_565 S
C208 N211 1.377 . S
C208 H228 0.930 . S
C209 N207 1.375 . S
C209 C208 1.338 1_545 S
C209 H213 0.931 . S
C210 N207 1.313 1_565 S
C210 N211 1.344 . S
C210 H214 0.930 . S
N211 C208 1.377 . S
N211 C210 1.344 . S
O212 Co204 2.055 1_554 S
O212 C216 1.253 1_545 S
H213 C209 0.931 . S
H214 C210 0.930 . S
O215 Co204 2.039 . S
O215 C205 1.265 . S
C216 O212 1.253 1_565 S
C216 O217 1.227 1_564 S
O217 C216 1.227 1_546 S
N218 Co204 2.140 . S
N218 C221 1.346 . S
N218 C222 1.345 . S
C219 C220 1.387 . S
C219 C223 1.391 . S
C220 C219 1.387 . S
C220 C221 1.369 . S
C220 H229 0.929 . S
C221 N218 1.346 . S
C221 C220 1.369 . S
C221 H224 0.928 . S
C222 N218 1.345 . S
C222 C223 1.371 . S
C222 H225 0.931 . S
C223 C219 1.391 . S
C223 C222 1.371 . S
C223 H230 0.930 . S
H224 C221 0.928 . S
H225 C222 0.931 . S
H226 C202 0.930 . S
H227 C199 0.930 . S
H228 C208 0.930 . S
H229 C220 0.929 . S
H230 C223 0.930 . S
C231 C232 1.351 . S
C231 N234 1.368 . S
C231 H236 0.931 . S
C232 C231 1.351 . S
C232 N233 1.373 . S
C232 H260 0.930 . S
N233 C232 1.373 . S
N233 C235 1.340 . S
N234 C231 1.368 . S
N234 C235 1.321 . S
N234 Co237 2.135 1_554 S
C235 N233 1.340 . S
C235 N234 1.321 . S
C235 H259 0.930 . S
H236 C231 0.931 . S
Co237 N234 2.135 1_556 S
Co237 N240 2.121 . S
Co237 O245 2.055 1_556 S
Co237 O248 2.039 . S
Co237 N251 2.140 . S
C238 O239 1.227 . S
C238 O248 1.265 . S
O239 C238 1.227 . S
N240 Co237 2.121 . S
N240 C242 1.375 . S
N240 C243 1.313 . S
C241 C242 1.338 . S
C241 N244 1.377 . S
C241 H261 0.930 . S
C242 N240 1.375 . S
C242 C241 1.338 . S
C242 H246 0.931 . S
C243 N240 1.313 . S
C243 N244 1.344 . S
C243 H247 0.930 . S
N244 C241 1.377 . S
N244 C243 1.344 . S
O245 Co237 2.055 1_554 S
O245 C249 1.253 . S
H246 C242 0.931 . S
H247 C243 0.930 . S
O248 Co237 2.039 . S
O248 C238 1.265 . S
C249 O245 1.253 . S
C249 O250 1.227 1_554 S
O250 C249 1.227 1_556 S
N251 Co237 2.140 . S
N251 C254 1.346 . S
N251 C255 1.345 . S
C252 C253 1.387 . S
C252 C256 1.391 . S
C253 C252 1.387 . S
C253 C254 1.369 . S
C253 H262 0.929 . S
C254 N251 1.346 . S
C254 C253 1.369 . S
C254 H257 0.928 . S
C255 N251 1.345 . S
C255 C256 1.371 . S
C255 H258 0.931 . S
C256 C252 1.391 . S
C256 C255 1.371 . S
C256 H263 0.930 . S
H257 C254 0.928 . S
H258 C255 0.931 . S
H259 C235 0.930 . S
H260 C232 0.930 . S
H261 C241 0.930 . S
H262 C253 0.929 . S
H263 C256 0.930 . S
C264 C265 1.351 . S
C264 N267 1.368 . S
C264 H269 0.931 . S
C265 C264 1.351 . S
C265 N266 1.373 . S
C265 H293 0.930 . S
N266 C265 1.373 . S
N266 C268 1.340 . S
N267 C264 1.368 . S
N267 C268 1.321 . S
N267 Co270 2.135 . S
C268 N266 1.340 . S
C268 N267 1.321 . S
C268 H292 0.930 . S
H269 C264 0.931 . S
Co270 N267 2.135 . S
Co270 N273 2.121 . S
Co270 O278 2.055 . S
Co270 O281 2.039 . S
Co270 N284 2.140 . S
C271 O272 1.227 . S
C271 O281 1.265 . S
O272 C271 1.227 . S
N273 Co270 2.121 . S
N273 C275 1.375 . S
N273 C276 1.313 . S
C274 C275 1.338 . S
C274 N277 1.377 . S
C274 H294 0.930 . S
C275 N273 1.375 . S
C275 C274 1.338 . S
C275 H279 0.931 . S
C276 N273 1.313 . S
C276 N277 1.344 . S
C276 H280 0.930 . S
N277 C274 1.377 . S
N277 C276 1.344 . S
O278 Co270 2.055 . S
O278 C282 1.253 . S
H279 C275 0.931 . S
H280 C276 0.930 . S
O281 Co270 2.039 . S
O281 C271 1.265 . S
C282 O278 1.253 . S
C282 O283 1.227 . S
O283 C282 1.227 . S
N284 Co270 2.140 . S
N284 C287 1.346 . S
N284 C288 1.345 . S
C285 C286 1.387 . S
C285 C289 1.391 . S
C286 C285 1.387 . S
C286 C287 1.369 . S
C286 H295 0.929 . S
C287 N284 1.346 . S
C287 C286 1.369 . S
C287 H290 0.928 . S
C288 N284 1.345 . S
C288 C289 1.371 . S
C288 H291 0.931 . S
C289 C285 1.391 . S
C289 C288 1.371 . S
C289 H296 0.930 . S
H290 C287 0.928 . S
H291 C288 0.931 . S
H292 C268 0.930 . S
H293 C265 0.930 . S
H294 C274 0.930 . S
H295 C286 0.929 . S
H296 C289 0.930 . S
C297 C298 1.351 . S
C297 N300 1.368 . S
C297 H302 0.931 . S
C298 C297 1.351 . S
C298 N299 1.373 . S
C298 H326 0.930 . S
N299 C298 1.373 . S
N299 C301 1.340 . S
N300 C297 1.368 . S
N300 C301 1.321 . S
N300 Co303 2.135 . S
C301 N299 1.340 . S
C301 N300 1.321 . S
C301 H325 0.930 . S
H302 C297 0.931 . S
Co303 N300 2.135 . S
Co303 N306 2.121 . S
Co303 O311 2.055 . S
Co303 O314 2.039 . S
Co303 N317 2.140 . S
C304 O305 1.227 . S
C304 O314 1.265 . S
O305 C304 1.227 . S
N306 Co303 2.121 . S
N306 C308 1.375 . S
N306 C309 1.313 . S
C307 C308 1.338 . S
C307 N310 1.377 . S
C307 H327 0.930 . S
C308 N306 1.375 . S
C308 C307 1.338 . S
C308 H312 0.931 . S
C309 N306 1.313 . S
C309 N310 1.344 . S
C309 H313 0.930 . S
N310 C307 1.377 . S
N310 C309 1.344 . S
O311 Co303 2.055 . S
O311 C315 1.253 . S
H312 C308 0.931 . S
H313 C309 0.930 . S
O314 Co303 2.039 . S
O314 C304 1.265 . S
C315 O311 1.253 . S
C315 O316 1.227 . S
O316 C315 1.227 . S
N317 Co303 2.140 . S
N317 C320 1.346 . S
N317 C321 1.345 . S
C318 C319 1.387 . S
C318 C322 1.391 . S
C319 C318 1.387 . S
C319 C320 1.369 . S
C319 H328 0.929 . S
C320 N317 1.346 . S
C320 C319 1.369 . S
C320 H323 0.928 . S
C321 N317 1.345 . S
C321 C322 1.371 . S
C321 H324 0.931 . S
C322 C318 1.391 . S
C322 C321 1.371 . S
C322 H329 0.930 . S
H323 C320 0.928 . S
H324 C321 0.931 . S
H325 C301 0.930 . S
H326 C298 0.930 . S
H327 C307 0.930 . S
H328 C319 0.929 . S
H329 C322 0.930 . S
C330 C331 1.351 . S
C330 N333 1.368 . S
C330 H335 0.931 . S
C331 C330 1.351 . S
C331 N332 1.373 . S
C331 H359 0.930 . S
N332 C331 1.373 . S
N332 C334 1.340 . S
N333 C330 1.368 . S
N333 C334 1.321 . S
N333 Co336 2.135 . S
C334 N332 1.340 . S
C334 N333 1.321 . S
C334 H358 0.930 . S
H335 C330 0.931 . S
Co336 N333 2.135 . S
Co336 N339 2.121 . S
Co336 O344 2.055 . S
Co336 O347 2.039 . S
Co336 N350 2.140 . S
C337 O338 1.227 . S
C337 O347 1.265 . S
O338 C337 1.227 . S
N339 Co336 2.121 . S
N339 C341 1.375 . S
N339 C342 1.313 . S
C340 C341 1.338 . S
C340 N343 1.377 . S
C340 H360 0.930 . S
C341 N339 1.375 . S
C341 C340 1.338 . S
C341 H345 0.931 . S
C342 N339 1.313 . S
C342 N343 1.344 . S
C342 H346 0.930 . S
N343 C340 1.377 . S
N343 C342 1.344 . S
O344 Co336 2.055 . S
O344 C348 1.253 . S
H345 C341 0.931 . S
H346 C342 0.930 . S
O347 Co336 2.039 . S
O347 C337 1.265 . S
C348 O344 1.253 . S
C348 O349 1.227 . S
O349 C348 1.227 . S
N350 Co336 2.140 . S
N350 C353 1.346 . S
N350 C354 1.345 . S
C351 C352 1.387 . S
C351 C355 1.391 . S
C352 C351 1.387 . S
C352 C353 1.369 . S
C352 H361 0.929 . S
C353 N350 1.346 . S
C353 C352 1.369 . S
C353 H356 0.928 . S
C354 N350 1.345 . S
C354 C355 1.371 . S
C354 H357 0.931 . S
C355 C351 1.391 . S
C355 C354 1.371 . S
C355 H362 0.930 . S
H356 C353 0.928 . S
H357 C354 0.931 . S
H358 C334 0.930 . S
H359 C331 0.930 . S
H360 C340 0.930 . S
H361 C352 0.929 . S
H362 C355 0.930 . S
C363 C364 1.351 . S
C363 N366 1.368 . S
C363 H368 0.931 . S
C364 C363 1.351 . S
C364 N365 1.373 . S
C364 H392 0.930 . S
N365 C364 1.373 . S
N365 C367 1.340 . S
N366 C363 1.368 . S
N366 C367 1.321 . S
N366 Co369 2.135 . S
C367 N365 1.340 . S
C367 N366 1.321 . S
C367 H391 0.930 . S
H368 C363 0.931 . S
Co369 N366 2.135 . S
Co369 N372 2.121 . S
Co369 O377 2.055 . S
Co369 O380 2.039 . S
Co369 N383 2.140 . S
C370 O371 1.227 . S
C370 O380 1.265 . S
O371 C370 1.227 . S
N372 Co369 2.121 . S
N372 C374 1.375 . S
N372 C375 1.313 . S
C373 C374 1.338 . S
C373 N376 1.377 . S
C373 H393 0.930 . S
C374 N372 1.375 . S
C374 C373 1.338 . S
C374 H378 0.931 . S
C375 N372 1.313 . S
C375 N376 1.344 . S
C375 H379 0.930 . S
N376 C373 1.377 . S
N376 C375 1.344 . S
O377 Co369 2.055 . S
O377 C381 1.253 . S
H378 C374 0.931 . S
H379 C375 0.930 . S
O380 Co369 2.039 . S
O380 C370 1.265 . S
C381 O377 1.253 . S
C381 O382 1.227 . S
O382 C381 1.227 . S
N383 Co369 2.140 . S
N383 C386 1.346 . S
N383 C387 1.345 . S
C384 C385 1.387 . S
C384 C388 1.391 . S
C385 C384 1.387 . S
C385 C386 1.369 . S
C385 H394 0.929 . S
C386 N383 1.346 . S
C386 C385 1.369 . S
C386 H389 0.928 . S
C387 N383 1.345 . S
C387 C388 1.371 . S
C387 H390 0.931 . S
C388 C384 1.391 . S
C388 C387 1.371 . S
C388 H395 0.930 . S
H389 C386 0.928 . S
H390 C387 0.931 . S
H391 C367 0.930 . S
H392 C364 0.930 . S
H393 C373 0.930 . S
H394 C385 0.929 . S
H395 C388 0.930 . S
C396 C397 1.351 . S
C396 N399 1.368 . S
C396 H401 0.931 . S
C397 C396 1.351 . S
C397 N398 1.373 . S
C397 H425 0.930 . S
N398 C397 1.373 . S
N398 C400 1.340 . S
N399 C396 1.368 . S
N399 C400 1.321 . S
N399 Co402 2.135 . S
C400 N398 1.340 . S
C400 N399 1.321 . S
C400 H424 0.930 . S
H401 C396 0.931 . S
Co402 N399 2.135 . S
Co402 N405 2.121 . S
Co402 O410 2.055 . S
Co402 O413 2.039 . S
Co402 N416 2.140 . S
C403 O404 1.227 . S
C403 O413 1.265 . S
O404 C403 1.227 . S
N405 Co402 2.121 . S
N405 C407 1.375 . S
N405 C408 1.313 . S
C406 C407 1.338 . S
C406 N409 1.377 . S
C406 H426 0.930 . S
C407 N405 1.375 . S
C407 C406 1.338 . S
C407 H411 0.931 . S
C408 N405 1.313 . S
C408 N409 1.344 . S
C408 H412 0.930 . S
N409 C406 1.377 . S
N409 C408 1.344 . S
O410 Co402 2.055 . S
O410 C414 1.253 . S
H411 C407 0.931 . S
H412 C408 0.930 . S
O413 Co402 2.039 . S
O413 C403 1.265 . S
C414 O410 1.253 . S
C414 O415 1.227 . S
O415 C414 1.227 . S
N416 Co402 2.140 . S
N416 C419 1.346 . S
N416 C420 1.345 . S
C417 C418 1.387 . S
C417 C421 1.391 . S
C418 C417 1.387 . S
C418 C419 1.369 . S
C418 H427 0.929 . S
C419 N416 1.346 . S
C419 C418 1.369 . S
C419 H422 0.928 . S
C420 N416 1.345 . S
C420 C421 1.371 . S
C420 H423 0.931 . S
C421 C417 1.391 . S
C421 C420 1.371 . S
C421 H428 0.930 . S
H422 C419 0.928 . S
H423 C420 0.931 . S
H424 C400 0.930 . S
H425 C397 0.930 . S
H426 C406 0.930 . S
H427 C418 0.929 . S
H428 C421 0.930 . S
C429 C430 1.351 . S
C429 N432 1.368 . S
C429 H434 0.931 . S
C430 C429 1.351 . S
C430 N431 1.373 . S
C430 H458 0.930 . S
N431 C430 1.373 . S
N431 C433 1.340 . S
N432 C429 1.368 . S
N432 C433 1.321 . S
N432 Co435 2.135 . S
C433 N431 1.340 . S
C433 N432 1.321 . S
C433 H457 0.930 . S
H434 C429 0.931 . S
Co435 N432 2.135 . S
Co435 N438 2.121 . S
Co435 O443 2.055 . S
Co435 O446 2.039 . S
Co435 N449 2.140 . S
C436 O437 1.227 . S
C436 O446 1.265 . S
O437 C436 1.227 . S
N438 Co435 2.121 . S
N438 C440 1.375 . S
N438 C441 1.313 . S
C439 C440 1.338 . S
C439 N442 1.377 . S
C439 H459 0.930 . S
C440 N438 1.375 . S
C440 C439 1.338 . S
C440 H444 0.931 . S
C441 N438 1.313 . S
C441 N442 1.344 . S
C441 H445 0.930 . S
N442 C439 1.377 . S
N442 C441 1.344 . S
O443 Co435 2.055 . S
O443 C447 1.253 . S
H444 C440 0.931 . S
H445 C441 0.930 . S
O446 Co435 2.039 . S
O446 C436 1.265 . S
C447 O443 1.253 . S
C447 O448 1.227 . S
O448 C447 1.227 . S
N449 Co435 2.140 . S
N449 C452 1.346 . S
N449 C453 1.345 . S
C450 C451 1.387 . S
C450 C454 1.391 . S
C451 C450 1.387 . S
C451 C452 1.369 . S
C451 H460 0.929 . S
C452 N449 1.346 . S
C452 C451 1.369 . S
C452 H455 0.928 . S
C453 N449 1.345 . S
C453 C454 1.371 . S
C453 H456 0.931 . S
C454 C450 1.391 . S
C454 C453 1.371 . S
C454 H461 0.930 . S
H455 C452 0.928 . S
H456 C453 0.931 . S
H457 C433 0.930 . S
H458 C430 0.930 . S
H459 C439 0.930 . S
H460 C451 0.929 . S
H461 C454 0.930 . S
C462 C463 1.351 . S
C462 N465 1.368 . S
C462 H467 0.931 . S
C463 C462 1.351 . S
C463 N464 1.373 . S
C463 H491 0.930 . S
N464 C463 1.373 . S
N464 C466 1.340 . S
N465 C462 1.368 . S
N465 C466 1.321 . S
N465 Co468 2.135 . S
C466 N464 1.340 . S
C466 N465 1.321 . S
C466 H490 0.930 . S
H467 C462 0.931 . S
Co468 N465 2.135 . S
Co468 N471 2.121 . S
Co468 O476 2.055 . S
Co468 O479 2.039 . S
Co468 N482 2.140 . S
C469 O470 1.227 . S
C469 O479 1.265 . S
O470 C469 1.227 . S
N471 Co468 2.121 . S
N471 C473 1.375 . S
N471 C474 1.313 . S
C472 C473 1.338 . S
C472 N475 1.377 . S
C472 H492 0.930 . S
C473 N471 1.375 . S
C473 C472 1.338 . S
C473 H477 0.931 . S
C474 N471 1.313 . S
C474 N475 1.344 . S
C474 H478 0.930 . S
N475 C472 1.377 . S
N475 C474 1.344 . S
O476 Co468 2.055 . S
O476 C480 1.253 . S
H477 C473 0.931 . S
H478 C474 0.930 . S
O479 Co468 2.039 . S
O479 C469 1.265 . S
C480 O476 1.253 . S
C480 O481 1.227 . S
O481 C480 1.227 . S
N482 Co468 2.140 . S
N482 C485 1.346 . S
N482 C486 1.345 . S
C483 C484 1.387 . S
C483 C487 1.391 . S
C484 C483 1.387 . S
C484 C485 1.369 . S
C484 H493 0.929 . S
C485 N482 1.346 . S
C485 C484 1.369 . S
C485 H488 0.928 . S
C486 N482 1.345 . S
C486 C487 1.371 . S
C486 H489 0.931 . S
C487 C483 1.391 . S
C487 C486 1.371 . S
C487 H494 0.930 . S
H488 C485 0.928 . S
H489 C486 0.931 . S
H490 C466 0.930 . S
H491 C463 0.930 . S
H492 C472 0.930 . S
H493 C484 0.929 . S
H494 C487 0.930 . S
C495 C496 1.351 . S
C495 N498 1.368 . S
C495 H500 0.931 . S
C496 C495 1.351 . S
C496 N497 1.373 . S
C496 H524 0.930 . S
N497 C496 1.373 . S
N497 C499 1.340 . S
N498 C495 1.368 . S
N498 C499 1.321 . S
N498 Co501 2.135 . S
C499 N497 1.340 . S
C499 N498 1.321 . S
C499 H523 0.930 . S
H500 C495 0.931 . S
Co501 N498 2.135 . S
Co501 N504 2.121 . S
Co501 O509 2.055 . S
Co501 O512 2.039 . S
Co501 N515 2.140 . S
C502 O503 1.227 . S
C502 O512 1.265 . S
O503 C502 1.227 . S
N504 Co501 2.121 . S
N504 C506 1.375 . S
N504 C507 1.313 . S
C505 C506 1.338 . S
C505 N508 1.377 . S
C505 H525 0.930 . S
C506 N504 1.375 . S
C506 C505 1.338 . S
C506 H510 0.931 . S
C507 N504 1.313 . S
C507 N508 1.344 . S
C507 H511 0.930 . S
N508 C505 1.377 . S
N508 C507 1.344 . S
O509 Co501 2.055 . S
O509 C513 1.253 . S
H510 C506 0.931 . S
H511 C507 0.930 . S
O512 Co501 2.039 . S
O512 C502 1.265 . S
C513 O509 1.253 . S
C513 O514 1.227 . S
O514 C513 1.227 . S
N515 Co501 2.140 . S
N515 C518 1.346 . S
N515 C519 1.345 . S
C516 C517 1.387 . S
C516 C520 1.391 . S
C517 C516 1.387 . S
C517 C518 1.369 . S
C517 H526 0.929 . S
C518 N515 1.346 . S
C518 C517 1.369 . S
C518 H521 0.928 . S
C519 N515 1.345 . S
C519 C520 1.371 . S
C519 H522 0.931 . S
C520 C516 1.391 . S
C520 C519 1.371 . S
C520 H527 0.930 . S
H521 C518 0.928 . S
H522 C519 0.931 . S
H523 C499 0.930 . S
H524 C496 0.930 . S
H525 C505 0.930 . S
H526 C517 0.929 . S
H527 C520 0.930 . S
C528 C529 1.351 . S
C528 N531 1.368 . S
C528 H533 0.931 . S
C529 C528 1.351 . S
C529 N530 1.373 . S
C529 H557 0.930 . S
N530 C529 1.373 . S
N530 C532 1.340 . S
N531 C528 1.368 . S
N531 C532 1.321 . S
N531 Co534 2.135 . S
C532 N530 1.340 . S
C532 N531 1.321 . S
C532 H556 0.930 . S
H533 C528 0.931 . S
Co534 N531 2.135 . S
Co534 N537 2.121 . S
Co534 O542 2.055 . S
Co534 O545 2.039 . S
Co534 N548 2.140 . S
C535 O536 1.227 . S
C535 O545 1.265 . S
O536 C535 1.227 . S
N537 Co534 2.121 . S
N537 C539 1.375 . S
N537 C540 1.313 . S
C538 C539 1.338 . S
C538 N541 1.377 . S
C538 H558 0.930 . S
C539 N537 1.375 . S
C539 C538 1.338 . S
C539 H543 0.931 . S
C540 N537 1.313 . S
C540 N541 1.344 . S
C540 H544 0.930 . S
N541 C538 1.377 . S
N541 C540 1.344 . S
O542 Co534 2.055 . S
O542 C546 1.253 . S
H543 C539 0.931 . S
H544 C540 0.930 . S
O545 Co534 2.039 . S
O545 C535 1.265 . S
C546 O542 1.253 . S
C546 O547 1.227 . S
O547 C546 1.227 . S
N548 Co534 2.140 . S
N548 C551 1.346 . S
N548 C552 1.345 . S
C549 C550 1.387 . S
C549 C553 1.391 . S
C550 C549 1.387 . S
C550 C551 1.369 . S
C550 H559 0.929 . S
C551 N548 1.346 . S
C551 C550 1.369 . S
C551 H554 0.928 . S
C552 N548 1.345 . S
C552 C553 1.371 . S
C552 H555 0.931 . S
C553 C549 1.391 . S
C553 C552 1.371 . S
C553 H560 0.930 . S
H554 C551 0.928 . S
H555 C552 0.931 . S
H556 C532 0.930 . S
H557 C529 0.930 . S
H558 C538 0.930 . S
H559 C550 0.929 . S
H560 C553 0.930 . S
C561 C562 1.351 . S
C561 N564 1.368 . S
C561 H566 0.931 . S
C562 C561 1.351 . S
C562 N563 1.373 . S
C562 H590 0.930 . S
N563 C562 1.373 . S
N563 C565 1.340 . S
N564 C561 1.368 . S
N564 C565 1.321 . S
N564 Co567 2.135 . S
C565 N563 1.340 . S
C565 N564 1.321 . S
C565 H589 0.930 . S
H566 C561 0.931 . S
Co567 N564 2.135 . S
Co567 N570 2.121 . S
Co567 O575 2.055 . S
Co567 O578 2.039 . S
Co567 N581 2.140 . S
C568 O569 1.227 . S
C568 O578 1.265 . S
O569 C568 1.227 . S
N570 Co567 2.121 . S
N570 C572 1.375 . S
N570 C573 1.313 1_565 S
C571 C572 1.338 1_545 S
C571 N574 1.377 . S
C571 H591 0.930 . S
C572 N570 1.375 . S
C572 C571 1.338 1_565 S
C572 H576 0.931 . S
C573 N570 1.313 1_545 S
C573 N574 1.344 . S
C573 H577 0.930 . S
N574 C571 1.377 . S
N574 C573 1.344 . S
O575 Co567 2.055 . S
O575 C579 1.253 1_565 S
H576 C572 0.931 . S
H577 C573 0.930 . S
O578 Co567 2.039 . S
O578 C568 1.265 . S
C579 O575 1.253 1_545 S
C579 O580 1.227 1_545 S
O580 C579 1.227 1_565 S
N581 Co567 2.140 . S
N581 C584 1.346 . S
N581 C585 1.345 . S
C582 C583 1.387 . S
C582 C586 1.391 . S
C583 C582 1.387 . S
C583 C584 1.369 . S
C583 H592 0.929 . S
C584 N581 1.346 . S
C584 C583 1.369 . S
C584 H587 0.928 . S
C585 N581 1.345 . S
C585 C586 1.371 . S
C585 H588 0.931 . S
C586 C582 1.391 . S
C586 C585 1.371 . S
C586 H593 0.930 . S
H587 C584 0.928 . S
H588 C585 0.931 . S
H589 C565 0.930 . S
H590 C562 0.930 . S
H591 C571 0.930 . S
H592 C583 0.929 . S
H593 C586 0.930 . S
C594 C595 1.351 . S
C594 N597 1.368 . S
C594 H599 0.931 . S
C595 C594 1.351 . S
C595 N596 1.373 . S
C595 H623 0.930 . S
N596 C595 1.373 . S
N596 C598 1.340 . S
N597 C594 1.368 . S
N597 C598 1.321 . S
N597 Co600 2.135 . S
C598 N596 1.340 . S
C598 N597 1.321 . S
C598 H622 0.930 . S
H599 C594 0.931 . S
Co600 N597 2.135 . S
Co600 N603 2.121 . S
Co600 O608 2.055 . S
Co600 O611 2.039 . S
Co600 N614 2.140 . S
C601 O602 1.227 . S
C601 O611 1.265 . S
O602 C601 1.227 . S
N603 Co600 2.121 . S
N603 C605 1.375 . S
N603 C606 1.313 1_565 S
C604 C605 1.338 1_545 S
C604 N607 1.377 . S
C604 H624 0.930 . S
C605 N603 1.375 . S
C605 C604 1.338 1_565 S
C605 H609 0.931 . S
C606 N603 1.313 1_545 S
C606 N607 1.344 . S
C606 H610 0.930 . S
N607 C604 1.377 . S
N607 C606 1.344 . S
O608 Co600 2.055 . S
O608 C612 1.253 1_565 S
H609 C605 0.931 . S
H610 C606 0.930 . S
O611 Co600 2.039 . S
O611 C601 1.265 . S
C612 O608 1.253 1_545 S
C612 O613 1.227 1_545 S
O613 C612 1.227 1_565 S
N614 Co600 2.140 . S
N614 C617 1.346 . S
N614 C618 1.345 . S
C615 C616 1.387 . S
C615 C619 1.391 . S
C616 C615 1.387 . S
C616 C617 1.369 . S
C616 H625 0.929 . S
C617 N614 1.346 . S
C617 C616 1.369 . S
C617 H620 0.928 . S
C618 N614 1.345 . S
C618 C619 1.371 . S
C618 H621 0.931 . S
C619 C615 1.391 . S
C619 C618 1.371 . S
C619 H626 0.930 . S
H620 C617 0.928 . S
H621 C618 0.931 . S
H622 C598 0.930 . S
H623 C595 0.930 . S
H624 C604 0.930 . S
H625 C616 0.929 . S
H626 C619 0.930 . S
C627 C628 1.351 . S
C627 N630 1.368 . S
C627 H632 0.931 . S
C628 C627 1.351 . S
C628 N629 1.373 . S
C628 H656 0.930 . S
N629 C628 1.373 . S
N629 C631 1.340 . S
N630 C627 1.368 . S
N630 C631 1.321 . S
N630 Co633 2.135 . S
C631 N629 1.340 . S
C631 N630 1.321 . S
C631 H655 0.930 . S
H632 C627 0.931 . S
Co633 N630 2.135 . S
Co633 N636 2.121 . S
Co633 O641 2.055 . S
Co633 O644 2.039 . S
Co633 N647 2.140 . S
C634 O635 1.227 . S
C634 O644 1.265 . S
O635 C634 1.227 . S
N636 Co633 2.121 . S
N636 C638 1.375 . S
N636 C639 1.313 . S
C637 C638 1.338 . S
C637 N640 1.377 . S
C637 H657 0.930 . S
C638 N636 1.375 . S
C638 C637 1.338 . S
C638 H642 0.931 . S
C639 N636 1.313 . S
C639 N640 1.344 . S
C639 H643 0.930 . S
N640 C637 1.377 . S
N640 C639 1.344 . S
O641 Co633 2.055 . S
O641 C645 1.253 . S
H642 C638 0.931 . S
H643 C639 0.930 . S
O644 Co633 2.039 . S
O644 C634 1.265 . S
C645 O641 1.253 . S
C645 O646 1.227 . S
O646 C645 1.227 . S
N647 Co633 2.140 . S
N647 C650 1.346 . S
N647 C651 1.345 . S
C648 C649 1.387 . S
C648 C652 1.391 . S
C649 C648 1.387 . S
C649 C650 1.369 . S
C649 H658 0.929 . S
C650 N647 1.346 . S
C650 C649 1.369 . S
C650 H653 0.928 . S
C651 N647 1.345 . S
C651 C652 1.371 . S
C651 H654 0.931 . S
C652 C648 1.391 . S
C652 C651 1.371 . S
C652 H659 0.930 . S
H653 C650 0.928 . S
H654 C651 0.931 . S
H655 C631 0.930 . S
H656 C628 0.930 . S
H657 C637 0.930 . S
H658 C649 0.929 . S
H659 C652 0.930 . S
C660 C661 1.351 . S
C660 N663 1.368 . S
C660 H665 0.931 . S
C661 C660 1.351 . S
C661 N662 1.373 . S
C661 H689 0.930 . S
N662 C661 1.373 . S
N662 C664 1.340 . S
N663 C660 1.368 . S
N663 C664 1.321 . S
N663 Co666 2.135 . S
C664 N662 1.340 . S
C664 N663 1.321 . S
C664 H688 0.930 . S
H665 C660 0.931 . S
Co666 N663 2.135 . S
Co666 N669 2.121 . S
Co666 O674 2.055 . S
Co666 O677 2.039 . S
Co666 N680 2.140 . S
C667 O668 1.227 . S
C667 O677 1.265 . S
O668 C667 1.227 . S
N669 Co666 2.121 . S
N669 C671 1.375 . S
N669 C672 1.313 . S
C670 C671 1.338 . S
C670 N673 1.377 . S
C670 H690 0.930 . S
C671 N669 1.375 . S
C671 C670 1.338 . S
C671 H675 0.931 . S
C672 N669 1.313 . S
C672 N673 1.344 . S
C672 H676 0.930 . S
N673 C670 1.377 . S
N673 C672 1.344 . S
O674 Co666 2.055 . S
O674 C678 1.253 . S
H675 C671 0.931 . S
H676 C672 0.930 . S
O677 Co666 2.039 . S
O677 C667 1.265 . S
C678 O674 1.253 . S
C678 O679 1.227 . S
O679 C678 1.227 . S
N680 Co666 2.140 . S
N680 C683 1.346 . S
N680 C684 1.345 . S
C681 C682 1.387 . S
C681 C685 1.391 . S
C682 C681 1.387 . S
C682 C683 1.369 . S
C682 H691 0.929 . S
C683 N680 1.346 . S
C683 C682 1.369 . S
C683 H686 0.928 . S
C684 N680 1.345 . S
C684 C685 1.371 . S
C684 H687 0.931 . S
C685 C681 1.391 . S
C685 C684 1.371 . S
C685 H692 0.930 . S
H686 C683 0.928 . S
H687 C684 0.931 . S
H688 C664 0.930 . S
H689 C661 0.930 . S
H690 C670 0.930 . S
H691 C682 0.929 . S
H692 C685 0.930 . S
C693 C694 1.351 . S
C693 N696 1.368 . S
C693 H698 0.931 . S
C694 C693 1.351 . S
C694 N695 1.373 . S
C694 H722 0.930 . S
N695 C694 1.373 . S
N695 C697 1.340 . S
N696 C693 1.368 . S
N696 C697 1.321 . S
N696 Co699 2.135 . S
C697 N695 1.340 . S
C697 N696 1.321 . S
C697 H721 0.930 . S
H698 C693 0.931 . S
Co699 N696 2.135 . S
Co699 N702 2.121 . S
Co699 O707 2.055 . S
Co699 O710 2.039 . S
Co699 N713 2.140 . S
C700 O701 1.227 . S
C700 O710 1.265 . S
O701 C700 1.227 . S
N702 Co699 2.121 . S
N702 C704 1.375 . S
N702 C705 1.313 1_545 S
C703 C704 1.338 1_565 S
C703 N706 1.377 . S
C703 H723 0.930 . S
C704 N702 1.375 . S
C704 C703 1.338 1_545 S
C704 H708 0.931 . S
C705 N702 1.313 1_565 S
C705 N706 1.344 . S
C705 H709 0.930 . S
N706 C703 1.377 . S
N706 C705 1.344 . S
O707 Co699 2.055 . S
O707 C711 1.253 1_545 S
H708 C704 0.931 . S
H709 C705 0.930 . S
O710 Co699 2.039 . S
O710 C700 1.265 . S
C711 O707 1.253 1_565 S
C711 O712 1.227 1_565 S
O712 C711 1.227 1_545 S
N713 Co699 2.140 . S
N713 C716 1.346 . S
N713 C717 1.345 . S
C714 C715 1.387 . S
C714 C718 1.391 . S
C715 C714 1.387 . S
C715 C716 1.369 . S
C715 H724 0.929 . S
C716 N713 1.346 . S
C716 C715 1.369 . S
C716 H719 0.928 . S
C717 N713 1.345 . S
C717 C718 1.371 . S
C717 H720 0.931 . S
C718 C714 1.391 . S
C718 C717 1.371 . S
C718 H725 0.930 . S
H719 C716 0.928 . S
H720 C717 0.931 . S
H721 C697 0.930 . S
H722 C694 0.930 . S
H723 C703 0.930 . S
H724 C715 0.929 . S
H725 C718 0.930 . S
C726 C727 1.351 . S
C726 N729 1.368 . S
C726 H731 0.931 . S
C727 C726 1.351 . S
C727 N728 1.373 . S
C727 H755 0.930 . S
N728 C727 1.373 . S
N728 C730 1.340 . S
N729 C726 1.368 . S
N729 C730 1.321 . S
N729 Co732 2.135 . S
C730 N728 1.340 . S
C730 N729 1.321 . S
C730 H754 0.930 . S
H731 C726 0.931 . S
Co732 N729 2.135 . S
Co732 N735 2.121 . S
Co732 O740 2.055 . S
Co732 O743 2.039 . S
Co732 N746 2.140 . S
C733 O734 1.227 . S
C733 O743 1.265 . S
O734 C733 1.227 . S
N735 Co732 2.121 . S
N735 C737 1.375 . S
N735 C738 1.313 1_545 S
C736 C737 1.338 1_565 S
C736 N739 1.377 . S
C736 H756 0.930 . S
C737 N735 1.375 . S
C737 C736 1.338 1_545 S
C737 H741 0.931 . S
C738 N735 1.313 1_565 S
C738 N739 1.344 . S
C738 H742 0.930 . S
N739 C736 1.377 . S
N739 C738 1.344 . S
O740 Co732 2.055 . S
O740 C744 1.253 1_545 S
H741 C737 0.931 . S
H742 C738 0.930 . S
O743 Co732 2.039 . S
O743 C733 1.265 . S
C744 O740 1.253 1_565 S
C744 O745 1.227 1_565 S
O745 C744 1.227 1_545 S
N746 Co732 2.140 . S
N746 C749 1.346 . S
N746 C750 1.345 . S
C747 C748 1.387 . S
C747 C751 1.391 . S
C748 C747 1.387 . S
C748 C749 1.369 . S
C748 H757 0.929 . S
C749 N746 1.346 . S
C749 C748 1.369 . S
C749 H752 0.928 . S
C750 N746 1.345 . S
C750 C751 1.371 . S
C750 H753 0.931 . S
C751 C747 1.391 . S
C751 C750 1.371 . S
C751 H758 0.930 . S
H752 C749 0.928 . S
H753 C750 0.931 . S
H754 C730 0.930 . S
H755 C727 0.930 . S
H756 C736 0.930 . S
H757 C748 0.929 . S
H758 C751 0.930 . S
C759 C760 1.351 . S
C759 N762 1.368 . S
C759 H764 0.931 . S
C760 C759 1.351 . S
C760 N761 1.373 . S
C760 H788 0.930 . S
N761 C760 1.373 . S
N761 C763 1.340 . S
N762 C759 1.368 . S
N762 C763 1.321 . S
N762 Co765 2.135 . S
C763 N761 1.340 . S
C763 N762 1.321 . S
C763 H787 0.930 . S
H764 C759 0.931 . S
Co765 N762 2.135 . S
Co765 N768 2.121 . S
Co765 O773 2.055 . S
Co765 O776 2.039 . S
Co765 N779 2.140 . S
C766 O767 1.227 . S
C766 O776 1.265 . S
O767 C766 1.227 . S
N768 Co765 2.121 . S
N768 C770 1.375 . S
N768 C771 1.313 . S
C769 C770 1.338 . S
C769 N772 1.377 . S
C769 H789 0.930 . S
C770 N768 1.375 . S
C770 C769 1.338 . S
C770 H774 0.931 . S
C771 N768 1.313 . S
C771 N772 1.344 . S
C771 H775 0.930 . S
N772 C769 1.377 . S
N772 C771 1.344 . S
O773 Co765 2.055 . S
O773 C777 1.253 . S
H774 C770 0.931 . S
H775 C771 0.930 . S
O776 Co765 2.039 . S
O776 C766 1.265 . S
C777 O773 1.253 . S
C777 O778 1.227 . S
O778 C777 1.227 . S
N779 Co765 2.140 . S
N779 C782 1.346 . S
N779 C783 1.345 . S
C780 C781 1.387 . S
C780 C784 1.391 . S
C781 C780 1.387 . S
C781 C782 1.369 . S
C781 H790 0.929 . S
C782 N779 1.346 . S
C782 C781 1.369 . S
C782 H785 0.928 . S
C783 N779 1.345 . S
C783 C784 1.371 . S
C783 H786 0.931 . S
C784 C780 1.391 . S
C784 C783 1.371 . S
C784 H791 0.930 . S
H785 C782 0.928 . S
H786 C783 0.931 . S
H787 C763 0.930 . S
H788 C760 0.930 . S
H789 C769 0.930 . S
H790 C781 0.929 . S
H791 C784 0.930 . S
C792 C793 1.351 . S
C792 N795 1.368 . S
C792 H797 0.931 . S
C793 C792 1.351 . S
C793 N794 1.373 . S
C793 H821 0.930 . S
N794 C793 1.373 . S
N794 C796 1.340 . S
N795 C792 1.368 . S
N795 C796 1.321 . S
N795 Co798 2.135 . S
C796 N794 1.340 . S
C796 N795 1.321 . S
C796 H820 0.930 . S
H797 C792 0.931 . S
Co798 N795 2.135 . S
Co798 N801 2.121 . S
Co798 O806 2.055 . S
Co798 O809 2.039 . S
Co798 N812 2.140 . S
C799 O800 1.227 . S
C799 O809 1.265 . S
O800 C799 1.227 . S
N801 Co798 2.121 . S
N801 C803 1.375 . S
N801 C804 1.313 . S
C802 C803 1.338 . S
C802 N805 1.377 . S
C802 H822 0.930 . S
C803 N801 1.375 . S
C803 C802 1.338 . S
C803 H807 0.931 . S
C804 N801 1.313 . S
C804 N805 1.344 . S
C804 H808 0.930 . S
N805 C802 1.377 . S
N805 C804 1.344 . S
O806 Co798 2.055 . S
O806 C810 1.253 . S
H807 C803 0.931 . S
H808 C804 0.930 . S
O809 Co798 2.039 . S
O809 C799 1.265 . S
C810 O806 1.253 . S
C810 O811 1.227 . S
O811 C810 1.227 . S
N812 Co798 2.140 . S
N812 C815 1.346 . S
N812 C816 1.345 . S
C813 C814 1.387 . S
C813 C817 1.391 . S
C814 C813 1.387 . S
C814 C815 1.369 . S
C814 H823 0.929 . S
C815 N812 1.346 . S
C815 C814 1.369 . S
C815 H818 0.928 . S
C816 N812 1.345 . S
C816 C817 1.371 . S
C816 H819 0.931 . S
C817 C813 1.391 . S
C817 C816 1.371 . S
C817 H824 0.930 . S
H818 C815 0.928 . S
H819 C816 0.931 . S
H820 C796 0.930 . S
H821 C793 0.930 . S
H822 C802 0.930 . S
H823 C814 0.929 . S
H824 C817 0.930 . S
C825 C826 1.351 . S
C825 N828 1.368 . S
C825 H830 0.931 . S
C826 C825 1.351 . S
C826 N827 1.373 . S
C826 H854 0.930 . S
N827 C826 1.373 . S
N827 C829 1.340 . S
N828 C825 1.368 . S
N828 C829 1.321 . S
N828 Co831 2.135 . S
C829 N827 1.340 . S
C829 N828 1.321 . S
C829 H853 0.930 . S
H830 C825 0.931 . S
Co831 N828 2.135 . S
Co831 N834 2.121 . S
Co831 O839 2.055 . S
Co831 O842 2.039 . S
Co831 N845 2.140 . S
C832 O833 1.227 . S
C832 O842 1.265 . S
O833 C832 1.227 . S
N834 Co831 2.121 . S
N834 C836 1.375 . S
N834 C837 1.313 . S
C835 C836 1.338 . S
C835 N838 1.377 . S
C835 H855 0.930 . S
C836 N834 1.375 . S
C836 C835 1.338 . S
C836 H840 0.931 . S
C837 N834 1.313 . S
C837 N838 1.344 . S
C837 H841 0.930 . S
N838 C835 1.377 . S
N838 C837 1.344 . S
O839 Co831 2.055 . S
O839 C843 1.253 . S
H840 C836 0.931 . S
H841 C837 0.930 . S
O842 Co831 2.039 . S
O842 C832 1.265 . S
C843 O839 1.253 . S
C843 O844 1.227 . S
O844 C843 1.227 . S
N845 Co831 2.140 . S
N845 C848 1.346 . S
N845 C849 1.345 . S
C846 C847 1.387 . S
C846 C850 1.391 . S
C847 C846 1.387 . S
C847 C848 1.369 . S
C847 H856 0.929 . S
C848 N845 1.346 . S
C848 C847 1.369 . S
C848 H851 0.928 . S
C849 N845 1.345 . S
C849 C850 1.371 . S
C849 H852 0.931 . S
C850 C846 1.391 . S
C850 C849 1.371 . S
C850 H857 0.930 . S
H851 C848 0.928 . S
H852 C849 0.931 . S
H853 C829 0.930 . S
H854 C826 0.930 . S
H855 C835 0.930 . S
H856 C847 0.929 . S
H857 C850 0.930 . S
C858 C859 1.351 . S
C858 N861 1.368 . S
C858 H863 0.931 . S
C859 C858 1.351 . S
C859 N860 1.373 . S
C859 H887 0.930 . S
N860 C859 1.373 . S
N860 C862 1.340 . S
N861 C858 1.368 . S
N861 C862 1.321 . S
N861 Co864 2.135 1_556 S
C862 N860 1.340 . S
C862 N861 1.321 . S
C862 H886 0.930 . S
H863 C858 0.931 . S
Co864 N861 2.135 1_554 S
Co864 N867 2.121 . S
Co864 O872 2.055 1_554 S
Co864 O875 2.039 . S
Co864 N878 2.140 . S
C865 O866 1.227 . S
C865 O875 1.265 . S
O866 C865 1.227 . S
N867 Co864 2.121 . S
N867 C869 1.375 . S
N867 C870 1.313 . S
C868 C869 1.338 . S
C868 N871 1.377 . S
C868 H888 0.930 . S
C869 N867 1.375 . S
C869 C868 1.338 . S
C869 H873 0.931 . S
C870 N867 1.313 . S
C870 N871 1.344 . S
C870 H874 0.930 . S
N871 C868 1.377 . S
N871 C870 1.344 . S
O872 Co864 2.055 1_556 S
O872 C876 1.253 . S
H873 C869 0.931 . S
H874 C870 0.930 . S
O875 Co864 2.039 . S
O875 C865 1.265 . S
C876 O872 1.253 . S
C876 O877 1.227 1_556 S
O877 C876 1.227 1_554 S
N878 Co864 2.140 . S
N878 C881 1.346 . S
N878 C882 1.345 . S
C879 C880 1.387 . S
C879 C883 1.391 . S
C880 C879 1.387 . S
C880 C881 1.369 . S
C880 H889 0.929 . S
C881 N878 1.346 . S
C881 C880 1.369 . S
C881 H884 0.928 . S
C882 N878 1.345 . S
C882 C883 1.371 . S
C882 H885 0.931 . S
C883 C879 1.391 . S
C883 C882 1.371 . S
C883 H890 0.930 . S
H884 C881 0.928 . S
H885 C882 0.931 . S
H886 C862 0.930 . S
H887 C859 0.930 . S
H888 C868 0.930 . S
H889 C880 0.929 . S
H890 C883 0.930 . S
C891 C892 1.351 . S
C891 N894 1.368 . S
C891 H896 0.931 . S
C892 C891 1.351 . S
C892 N893 1.373 . S
C892 H920 0.930 . S
N893 C892 1.373 . S
N893 C895 1.340 . S
N894 C891 1.368 . S
N894 C895 1.321 . S
N894 Co897 2.135 1_556 S
C895 N893 1.340 . S
C895 N894 1.321 . S
C895 H919 0.930 . S
H896 C891 0.931 . S
Co897 N894 2.135 1_554 S
Co897 N900 2.121 . S
Co897 O905 2.055 1_554 S
Co897 O908 2.039 . S
Co897 N911 2.140 . S
C898 O899 1.227 . S
C898 O908 1.265 . S
O899 C898 1.227 . S
N900 Co897 2.121 . S
N900 C902 1.375 . S
N900 C903 1.313 . S
C901 C902 1.338 . S
C901 N904 1.377 . S
C901 H921 0.930 . S
C902 N900 1.375 . S
C902 C901 1.338 . S
C902 H906 0.931 . S
C903 N900 1.313 . S
C903 N904 1.344 . S
C903 H907 0.930 . S
N904 C901 1.377 . S
N904 C903 1.344 . S
O905 Co897 2.055 1_556 S
O905 C909 1.253 . S
H906 C902 0.931 . S
H907 C903 0.930 . S
O908 Co897 2.039 . S
O908 C898 1.265 . S
C909 O905 1.253 . S
C909 O910 1.227 1_556 S
O910 C909 1.227 1_554 S
N911 Co897 2.140 . S
N911 C914 1.346 . S
N911 C915 1.345 . S
C912 C913 1.387 . S
C912 C916 1.391 . S
C913 C912 1.387 . S
C913 C914 1.369 . S
C913 H922 0.929 . S
C914 N911 1.346 . S
C914 C913 1.369 . S
C914 H917 0.928 . S
C915 N911 1.345 . S
C915 C916 1.371 . S
C915 H918 0.931 . S
C916 C912 1.391 . S
C916 C915 1.371 . S
C916 H923 0.930 . S
H917 C914 0.928 . S
H918 C915 0.931 . S
H919 C895 0.930 . S
H920 C892 0.930 . S
H921 C901 0.930 . S
H922 C913 0.929 . S
H923 C916 0.930 . S
C924 C925 1.351 . S
C924 N927 1.368 . S
C924 H929 0.931 . S
C925 C924 1.351 . S
C925 N926 1.373 . S
C925 H953 0.930 . S
N926 C925 1.373 . S
N926 C928 1.340 . S
N927 C924 1.368 . S
N927 C928 1.321 . S
N927 Co930 2.135 . S
C928 N926 1.340 . S
C928 N927 1.321 . S
C928 H952 0.930 . S
H929 C924 0.931 . S
Co930 N927 2.135 . S
Co930 N933 2.121 . S
Co930 O938 2.055 . S
Co930 O941 2.039 . S
Co930 N944 2.140 . S
C931 O932 1.227 . S
C931 O941 1.265 . S
O932 C931 1.227 . S
N933 Co930 2.121 . S
N933 C935 1.375 . S
N933 C936 1.313 . S
C934 C935 1.338 . S
C934 N937 1.377 . S
C934 H954 0.930 . S
C935 N933 1.375 . S
C935 C934 1.338 . S
C935 H939 0.931 . S
C936 N933 1.313 . S
C936 N937 1.344 . S
C936 H940 0.930 . S
N937 C934 1.377 . S
N937 C936 1.344 . S
O938 Co930 2.055 . S
O938 C942 1.253 . S
H939 C935 0.931 . S
H940 C936 0.930 . S
O941 Co930 2.039 . S
O941 C931 1.265 . S
C942 O938 1.253 . S
C942 O943 1.227 . S
O943 C942 1.227 . S
N944 Co930 2.140 . S
N944 C947 1.346 . S
N944 C948 1.345 . S
C945 C946 1.387 . S
C945 C949 1.391 . S
C946 C945 1.387 . S
C946 C947 1.369 . S
C946 H955 0.929 . S
C947 N944 1.346 . S
C947 C946 1.369 . S
C947 H950 0.928 . S
C948 N944 1.345 . S
C948 C949 1.371 . S
C948 H951 0.931 . S
C949 C945 1.391 . S
C949 C948 1.371 . S
C949 H956 0.930 . S
H950 C947 0.928 . S
H951 C948 0.931 . S
H952 C928 0.930 . S
H953 C925 0.930 . S
H954 C934 0.930 . S
H955 C946 0.929 . S
H956 C949 0.930 . S
C957 C958 1.351 . S
C957 N960 1.368 . S
C957 H962 0.931 . S
C958 C957 1.351 . S
C958 N959 1.373 . S
C958 H986 0.930 . S
N959 C958 1.373 . S
N959 C961 1.340 . S
N960 C957 1.368 . S
N960 C961 1.321 . S
N960 Co963 2.135 . S
C961 N959 1.340 . S
C961 N960 1.321 . S
C961 H985 0.930 . S
H962 C957 0.931 . S
Co963 N960 2.135 . S
Co963 N966 2.121 . S
Co963 O971 2.055 . S
Co963 O974 2.039 . S
Co963 N977 2.140 . S
C964 O965 1.227 . S
C964 O974 1.265 . S
O965 C964 1.227 . S
N966 Co963 2.121 . S
N966 C968 1.375 . S
N966 C969 1.313 . S
C967 C968 1.338 . S
C967 N970 1.377 . S
C967 H987 0.930 . S
C968 N966 1.375 . S
C968 C967 1.338 . S
C968 H972 0.931 . S
C969 N966 1.313 . S
C969 N970 1.344 . S
C969 H973 0.930 . S
N970 C967 1.377 . S
N970 C969 1.344 . S
O971 Co963 2.055 . S
O971 C975 1.253 . S
H972 C968 0.931 . S
H973 C969 0.930 . S
O974 Co963 2.039 . S
O974 C964 1.265 . S
C975 O971 1.253 . S
C975 O976 1.227 . S
O976 C975 1.227 . S
N977 Co963 2.140 . S
N977 C980 1.346 . S
N977 C981 1.345 . S
C978 C979 1.387 . S
C978 C982 1.391 . S
C979 C978 1.387 . S
C979 C980 1.369 . S
C979 H988 0.929 . S
C980 N977 1.346 . S
C980 C979 1.369 . S
C980 H983 0.928 . S
C981 N977 1.345 . S
C981 C982 1.371 . S
C981 H984 0.931 . S
C982 C978 1.391 . S
C982 C981 1.371 . S
C982 H989 0.930 . S
H983 C980 0.928 . S
H984 C981 0.931 . S
H985 C961 0.930 . S
H986 C958 0.930 . S
H987 C967 0.930 . S
H988 C979 0.929 . S
H989 C982 0.930 . S
C990 C991 1.351 . S
C990 N993 1.368 . S
C990 H995 0.931 . S
C991 C990 1.351 . S
C991 N992 1.373 . S
C991 H1019 0.930 . S
N992 C991 1.373 . S
N992 C994 1.340 . S
N993 C990 1.368 . S
N993 C994 1.321 . S
N993 Co996 2.135 1_554 S
C994 N992 1.340 . S
C994 N993 1.321 . S
C994 H1018 0.930 . S
H995 C990 0.931 . S
Co996 N993 2.135 1_556 S
Co996 N999 2.121 . S
Co996 O1004 2.055 1_556 S
Co996 O1007 2.039 . S
Co996 N1010 2.140 . S
C997 O998 1.227 . S
C997 O1007 1.265 . S
O998 C997 1.227 . S
N999 Co996 2.121 . S
N999 C1001 1.375 . S
N999 C1002 1.313 . S
C1000 C1001 1.338 . S
C1000 N1003 1.377 . S
C1000 H1020 0.930 . S
C1001 N999 1.375 . S
C1001 C1000 1.338 . S
C1001 H1005 0.931 . S
C1002 N999 1.313 . S
C1002 N1003 1.344 . S
C1002 H1006 0.930 . S
N1003 C1000 1.377 . S
N1003 C1002 1.344 . S
O1004 Co996 2.055 1_554 S
O1004 C1008 1.253 . S
H1005 C1001 0.931 . S
H1006 C1002 0.930 . S
O1007 Co996 2.039 . S
O1007 C997 1.265 . S
C1008 O1004 1.253 . S
C1008 O1009 1.227 1_554 S
O1009 C1008 1.227 1_556 S
N1010 Co996 2.140 . S
N1010 C1013 1.346 . S
N1010 C1014 1.345 . S
C1011 C1012 1.387 . S
C1011 C1015 1.391 . S
C1012 C1011 1.387 . S
C1012 C1013 1.369 . S
C1012 H1021 0.929 . S
C1013 N1010 1.346 . S
C1013 C1012 1.369 . S
C1013 H1016 0.928 . S
C1014 N1010 1.345 . S
C1014 C1015 1.371 . S
C1014 H1017 0.931 . S
C1015 C1011 1.391 . S
C1015 C1014 1.371 . S
C1015 H1022 0.930 . S
H1016 C1013 0.928 . S
H1017 C1014 0.931 . S
H1018 C994 0.930 . S
H1019 C991 0.930 . S
H1020 C1000 0.930 . S
H1021 C1012 0.929 . S
H1022 C1015 0.930 . S
C1023 C1024 1.351 . S
C1023 N1026 1.368 . S
C1023 H1028 0.931 . S
C1024 C1023 1.351 . S
C1024 N1025 1.373 . S
C1024 H1052 0.930 . S
N1025 C1024 1.373 . S
N1025 C1027 1.340 . S
N1026 C1023 1.368 . S
N1026 C1027 1.321 . S
N1026 Co1029 2.135 1_554 S
C1027 N1025 1.340 . S
C1027 N1026 1.321 . S
C1027 H1051 0.930 . S
H1028 C1023 0.931 . S
Co1029 N1026 2.135 1_556 S
Co1029 N1032 2.121 . S
Co1029 O1037 2.055 1_556 S
Co1029 O1040 2.039 . S
Co1029 N1043 2.140 . S
C1030 O1031 1.227 . S
C1030 O1040 1.265 . S
O1031 C1030 1.227 . S
N1032 Co1029 2.121 . S
N1032 C1034 1.375 . S
N1032 C1035 1.313 . S
C1033 C1034 1.338 . S
C1033 N1036 1.377 . S
C1033 H1053 0.930 . S
C1034 N1032 1.375 . S
C1034 C1033 1.338 . S
C1034 H1038 0.931 . S
C1035 N1032 1.313 . S
C1035 N1036 1.344 . S
C1035 H1039 0.930 . S
N1036 C1033 1.377 . S
N1036 C1035 1.344 . S
O1037 Co1029 2.055 1_554 S
O1037 C1041 1.253 . S
H1038 C1034 0.931 . S
H1039 C1035 0.930 . S
O1040 Co1029 2.039 . S
O1040 C1030 1.265 . S
C1041 O1037 1.253 . S
C1041 O1042 1.227 1_554 S
O1042 C1041 1.227 1_556 S
N1043 Co1029 2.140 . S
N1043 C1046 1.346 . S
N1043 C1047 1.345 . S
C1044 C1045 1.387 . S
C1044 C1048 1.391 . S
C1045 C1044 1.387 . S
C1045 C1046 1.369 . S
C1045 H1054 0.929 . S
C1046 N1043 1.346 . S
C1046 C1045 1.369 . S
C1046 H1049 0.928 . S
C1047 N1043 1.345 . S
C1047 C1048 1.371 . S
C1047 H1050 0.931 . S
C1048 C1044 1.391 . S
C1048 C1047 1.371 . S
C1048 H1055 0.930 . S
H1049 C1046 0.928 . S
H1050 C1047 0.931 . S
H1051 C1027 0.930 . S
H1052 C1024 0.930 . S
H1053 C1033 0.930 . S
H1054 C1045 0.929 . S
H1055 C1048 0.930 . S
H1056 C1064 0.929 . S
H1057 C1066 0.930 . S
H1058 C1068 0.930 . S
H1059 C1071 0.929 . S
H1060 C1074 0.930 . S
H1061 C1076 0.960 . S
H1062 C1076 0.960 . S
H1063 C1076 0.960 . S
C1064 H1056 0.929 . S
C1064 C1065 1.377 . S
C1064 C1066 1.384 . S
C1065 C1064 1.377 . S
C1065 C1071 1.390 . S
C1066 H1057 0.930 . S
C1066 C1064 1.384 . S
C1066 C1067 1.372 . S
C1067 C1066 1.372 . S
C1067 C1068 1.400 . S
C1067 C1072 1.490 . S
C1068 H1058 0.930 . S
C1068 C1067 1.400 . S
C1068 C1071 1.386 . S
H1069 C1085 0.930 . S
H1070 C1086 0.931 . S
C1071 H1059 0.929 . S
C1071 C1065 1.390 . S
C1071 C1068 1.386 . S
C1072 C1067 1.490 . S
C1072 C1074 1.395 . S
C1072 C1075 1.403 . S
H1073 C1079 0.930 . S
C1074 H1060 0.930 . S
C1074 C1072 1.395 . S
C1074 C1077 1.403 . S
C1075 C1072 1.403 . S
C1075 C1076 1.524 . S
C1075 C1079 1.400 . S
C1076 H1061 0.960 . S
C1076 H1062 0.960 . S
C1076 H1063 0.960 . S
C1076 C1075 1.524 . S
C1077 C1074 1.403 . S
C1077 C1078 1.392 . S
C1077 C1081 1.495 . S
C1078 C1077 1.392 . S
C1078 C1079 1.385 . S
C1078 C1080 1.478 . S
C1079 H1073 0.930 . S
C1079 C1075 1.400 . S
C1079 C1078 1.385 . S
C1080 C1078 1.478 . S
C1080 C1082 1.381 . S
C1080 C1086 1.383 . S
C1081 C1077 1.495 . S
C1081 H1087 0.959 . S
C1081 H1088 0.961 . S
C1081 H1089 0.960 . S
C1082 C1080 1.381 . S
C1082 C1083 1.394 . S
C1082 H1090 0.930 . S
C1083 C1082 1.394 . S
C1083 C1084 1.383 . S
C1083 H1091 0.929 . S
C1084 C1083 1.383 . S
C1084 C1085 1.377 . S
C1085 H1069 0.930 . S
C1085 C1084 1.377 . S
C1085 C1086 1.379 . S
C1086 H1070 0.931 . S
C1086 C1080 1.383 . S
C1086 C1085 1.379 . S
H1087 C1081 0.959 . S
H1088 C1081 0.961 . S
H1089 C1081 0.960 . S
H1090 C1082 0.930 . S
H1091 C1083 0.929 . S
H1092 C1100 0.929 . S
H1093 C1102 0.930 . S
H1094 C1104 0.930 . S
H1095 C1107 0.929 . S
H1096 C1110 0.930 . S
H1097 C1112 0.960 . S
H1098 C1112 0.960 . S
H1099 C1112 0.960 . S
C1100 H1092 0.929 . S
C1100 C1101 1.377 . S
C1100 C1102 1.384 . S
C1101 C1100 1.377 . S
C1101 C1107 1.390 . S
C1102 H1093 0.930 . S
C1102 C1100 1.384 . S
C1102 C1103 1.372 . S
C1103 C1102 1.372 . S
C1103 C1104 1.400 . S
C1103 C1108 1.490 . S
C1104 H1094 0.930 . S
C1104 C1103 1.400 . S
C1104 C1107 1.386 . S
H1105 C1121 0.930 . S
H1106 C1122 0.931 . S
C1107 H1095 0.929 . S
C1107 C1101 1.390 . S
C1107 C1104 1.386 . S
C1108 C1103 1.490 . S
C1108 C1110 1.395 . S
C1108 C1111 1.403 . S
H1109 C1115 0.930 . S
C1110 H1096 0.930 . S
C1110 C1108 1.395 . S
C1110 C1113 1.403 . S
C1111 C1108 1.403 . S
C1111 C1112 1.524 . S
C1111 C1115 1.400 . S
C1112 H1097 0.960 . S
C1112 H1098 0.960 . S
C1112 H1099 0.960 . S
C1112 C1111 1.524 . S
C1113 C1110 1.403 . S
C1113 C1114 1.392 . S
C1113 C1117 1.495 . S
C1114 C1113 1.392 . S
C1114 C1115 1.385 . S
C1114 C1116 1.478 . S
C1115 H1109 0.930 . S
C1115 C1111 1.400 . S
C1115 C1114 1.385 . S
C1116 C1114 1.478 . S
C1116 C1118 1.381 . S
C1116 C1122 1.383 . S
C1117 C1113 1.495 . S
C1117 H1123 0.959 . S
C1117 H1124 0.961 . S
C1117 H1125 0.960 . S
C1118 C1116 1.381 . S
C1118 C1119 1.394 . S
C1118 H1126 0.930 . S
C1119 C1118 1.394 . S
C1119 C1120 1.383 . S
C1119 H1127 0.929 . S
C1120 C1119 1.383 . S
C1120 C1121 1.377 . S
C1121 H1105 0.930 . S
C1121 C1120 1.377 . S
C1121 C1122 1.379 . S
C1122 H1106 0.931 . S
C1122 C1116 1.383 . S
C1122 C1121 1.379 . S
H1123 C1117 0.959 . S
H1124 C1117 0.961 . S
H1125 C1117 0.960 . S
H1126 C1118 0.930 . S
H1127 C1119 0.929 . S
H1128 C1136 0.929 . S
H1129 C1138 0.930 . S
H1130 C1140 0.930 . S
H1131 C1143 0.929 . S
H1132 C1146 0.930 . S
H1133 C1148 0.960 . S
H1134 C1148 0.960 . S
H1135 C1148 0.960 . S
C1136 H1128 0.929 . S
C1136 C1137 1.377 . S
C1136 C1138 1.384 . S
C1137 C1136 1.377 . S
C1137 C1143 1.390 . S
C1138 H1129 0.930 . S
C1138 C1136 1.384 . S
C1138 C1139 1.372 . S
C1139 C1138 1.372 . S
C1139 C1140 1.400 . S
C1139 C1144 1.490 . S
C1140 H1130 0.930 . S
C1140 C1139 1.400 . S
C1140 C1143 1.386 . S
H1141 C1157 0.930 . S
H1142 C1158 0.931 . S
C1143 H1131 0.929 . S
C1143 C1137 1.390 . S
C1143 C1140 1.386 . S
C1144 C1139 1.490 . S
C1144 C1146 1.395 . S
C1144 C1147 1.403 . S
H1145 C1151 0.930 . S
C1146 H1132 0.930 . S
C1146 C1144 1.395 . S
C1146 C1149 1.403 . S
C1147 C1144 1.403 . S
C1147 C1148 1.524 . S
C1147 C1151 1.400 . S
C1148 H1133 0.960 . S
C1148 H1134 0.960 . S
C1148 H1135 0.960 . S
C1148 C1147 1.524 . S
C1149 C1146 1.403 . S
C1149 C1150 1.392 . S
C1149 C1153 1.495 . S
C1150 C1149 1.392 . S
C1150 C1151 1.385 . S
C1150 C1152 1.478 . S
C1151 H1145 0.930 . S
C1151 C1147 1.400 . S
C1151 C1150 1.385 . S
C1152 C1150 1.478 . S
C1152 C1154 1.381 . S
C1152 C1158 1.383 . S
C1153 C1149 1.495 . S
C1153 H1159 0.959 . S
C1153 H1160 0.961 . S
C1153 H1161 0.960 . S
C1154 C1152 1.381 . S
C1154 C1155 1.394 . S
C1154 H1162 0.930 . S
C1155 C1154 1.394 . S
C1155 C1156 1.383 . S
C1155 H1163 0.929 . S
C1156 C1155 1.383 . S
C1156 C1157 1.377 . S
C1157 H1141 0.930 . S
C1157 C1156 1.377 . S
C1157 C1158 1.379 . S
C1158 H1142 0.931 . S
C1158 C1152 1.383 . S
C1158 C1157 1.379 . S
H1159 C1153 0.959 . S
H1160 C1153 0.961 . S
H1161 C1153 0.960 . S
H1162 C1154 0.930 . S
H1163 C1155 0.929 . S
H1164 C1172 0.929 . S
H1165 C1174 0.930 . S
H1166 C1176 0.930 . S
H1167 C1179 0.929 . S
H1168 C1182 0.930 . S
H1169 C1184 0.960 . S
H1170 C1184 0.960 . S
H1171 C1184 0.960 . S
C1172 H1164 0.929 . S
C1172 C1173 1.377 . S
C1172 C1174 1.384 . S
C1173 C1172 1.377 . S
C1173 C1179 1.390 . S
C1174 H1165 0.930 . S
C1174 C1172 1.384 . S
C1174 C1175 1.372 . S
C1175 C1174 1.372 . S
C1175 C1176 1.400 . S
C1175 C1180 1.490 . S
C1176 H1166 0.930 . S
C1176 C1175 1.400 . S
C1176 C1179 1.386 . S
H1177 C1193 0.930 . S
H1178 C1194 0.931 . S
C1179 H1167 0.929 . S
C1179 C1173 1.390 . S
C1179 C1176 1.386 . S
C1180 C1175 1.490 . S
C1180 C1182 1.395 . S
C1180 C1183 1.403 . S
H1181 C1187 0.930 . S
C1182 H1168 0.930 . S
C1182 C1180 1.395 . S
C1182 C1185 1.403 . S
C1183 C1180 1.403 . S
C1183 C1184 1.524 . S
C1183 C1187 1.400 . S
C1184 H1169 0.960 . S
C1184 H1170 0.960 . S
C1184 H1171 0.960 . S
C1184 C1183 1.524 . S
C1185 C1182 1.403 . S
C1185 C1186 1.392 . S
C1185 C1189 1.495 . S
C1186 C1185 1.392 . S
C1186 C1187 1.385 . S
C1186 C1188 1.478 . S
C1187 H1181 0.930 . S
C1187 C1183 1.400 . S
C1187 C1186 1.385 . S
C1188 C1186 1.478 . S
C1188 C1190 1.381 . S
C1188 C1194 1.383 . S
C1189 C1185 1.495 . S
C1189 H1195 0.959 . S
C1189 H1196 0.961 . S
C1189 H1197 0.960 . S
C1190 C1188 1.381 . S
C1190 C1191 1.394 . S
C1190 H1198 0.930 . S
C1191 C1190 1.394 . S
C1191 C1192 1.383 . S
C1191 H1199 0.929 . S
C1192 C1191 1.383 . S
C1192 C1193 1.377 . S
C1193 H1177 0.930 . S
C1193 C1192 1.377 . S
C1193 C1194 1.379 . S
C1194 H1178 0.931 . S
C1194 C1188 1.383 . S
C1194 C1193 1.379 . S
H1195 C1189 0.959 . S
H1196 C1189 0.961 . S
H1197 C1189 0.960 . S
H1198 C1190 0.930 . S
H1199 C1191 0.929 . S
H1200 C1208 0.929 . S
H1201 C1210 0.930 . S
H1202 C1212 0.930 . S
H1203 C1215 0.929 . S
H1204 C1218 0.930 . S
H1205 C1220 0.960 . S
H1206 C1220 0.960 . S
H1207 C1220 0.960 . S
C1208 H1200 0.929 . S
C1208 C1209 1.377 . S
C1208 C1210 1.384 . S
C1209 C1208 1.377 . S
C1209 C1215 1.390 . S
C1210 H1201 0.930 . S
C1210 C1208 1.384 . S
C1210 C1211 1.372 . S
C1211 C1210 1.372 . S
C1211 C1212 1.400 . S
C1211 C1216 1.490 . S
C1212 H1202 0.930 . S
C1212 C1211 1.400 . S
C1212 C1215 1.386 . S
H1213 C1229 0.930 . S
H1214 C1230 0.931 . S
C1215 H1203 0.929 . S
C1215 C1209 1.390 . S
C1215 C1212 1.386 . S
C1216 C1211 1.490 . S
C1216 C1218 1.395 . S
C1216 C1219 1.403 . S
H1217 C1223 0.930 . S
C1218 H1204 0.930 . S
C1218 C1216 1.395 . S
C1218 C1221 1.403 . S
C1219 C1216 1.403 . S
C1219 C1220 1.524 . S
C1219 C1223 1.400 . S
C1220 H1205 0.960 . S
C1220 H1206 0.960 . S
C1220 H1207 0.960 . S
C1220 C1219 1.524 . S
C1221 C1218 1.403 . S
C1221 C1222 1.392 . S
C1221 C1225 1.495 . S
C1222 C1221 1.392 . S
C1222 C1223 1.385 . S
C1222 C1224 1.478 . S
C1223 H1217 0.930 . S
C1223 C1219 1.400 . S
C1223 C1222 1.385 . S
C1224 C1222 1.478 . S
C1224 C1226 1.381 . S
C1224 C1230 1.383 . S
C1225 C1221 1.495 . S
C1225 H1231 0.959 . S
C1225 H1232 0.961 . S
C1225 H1233 0.960 . S
C1226 C1224 1.381 . S
C1226 C1227 1.394 . S
C1226 H1234 0.930 . S
C1227 C1226 1.394 . S
C1227 C1228 1.383 . S
C1227 H1235 0.929 . S
C1228 C1227 1.383 . S
C1228 C1229 1.377 . S
C1229 H1213 0.930 . S
C1229 C1228 1.377 . S
C1229 C1230 1.379 . S
C1230 H1214 0.931 . S
C1230 C1224 1.383 . S
C1230 C1229 1.379 . S
H1231 C1225 0.959 . S
H1232 C1225 0.961 . S
H1233 C1225 0.960 . S
H1234 C1226 0.930 . S
H1235 C1227 0.929 . S
H1236 C1244 0.929 . S
H1237 C1246 0.930 . S
H1238 C1248 0.930 . S
H1239 C1251 0.929 . S
H1240 C1254 0.930 . S
H1241 C1256 0.960 . S
H1242 C1256 0.960 . S
H1243 C1256 0.960 . S
C1244 H1236 0.929 . S
C1244 C1245 1.377 . S
C1244 C1246 1.384 . S
C1245 C1244 1.377 . S
C1245 C1251 1.390 . S
C1246 H1237 0.930 . S
C1246 C1244 1.384 . S
C1246 C1247 1.372 . S
C1247 C1246 1.372 . S
C1247 C1248 1.400 . S
C1247 C1252 1.490 . S
C1248 H1238 0.930 . S
C1248 C1247 1.400 . S
C1248 C1251 1.386 . S
H1249 C1265 0.930 . S
H1250 C1266 0.931 . S
C1251 H1239 0.929 . S
C1251 C1245 1.390 . S
C1251 C1248 1.386 . S
C1252 C1247 1.490 . S
C1252 C1254 1.395 . S
C1252 C1255 1.403 . S
H1253 C1259 0.930 . S
C1254 H1240 0.930 . S
C1254 C1252 1.395 . S
C1254 C1257 1.403 . S
C1255 C1252 1.403 . S
C1255 C1256 1.524 . S
C1255 C1259 1.400 . S
C1256 H1241 0.960 . S
C1256 H1242 0.960 . S
C1256 H1243 0.960 . S
C1256 C1255 1.524 . S
C1257 C1254 1.403 . S
C1257 C1258 1.392 . S
C1257 C1261 1.495 . S
C1258 C1257 1.392 . S
C1258 C1259 1.385 . S
C1258 C1260 1.478 . S
C1259 H1253 0.930 . S
C1259 C1255 1.400 . S
C1259 C1258 1.385 . S
C1260 C1258 1.478 . S
C1260 C1262 1.381 . S
C1260 C1266 1.383 . S
C1261 C1257 1.495 . S
C1261 H1267 0.959 . S
C1261 H1268 0.961 . S
C1261 H1269 0.960 . S
C1262 C1260 1.381 . S
C1262 C1263 1.394 . S
C1262 H1270 0.930 . S
C1263 C1262 1.394 . S
C1263 C1264 1.383 . S
C1263 H1271 0.929 . S
C1264 C1263 1.383 . S
C1264 C1265 1.377 . S
C1265 H1249 0.930 . S
C1265 C1264 1.377 . S
C1265 C1266 1.379 . S
C1266 H1250 0.931 . S
C1266 C1260 1.383 . S
C1266 C1265 1.379 . S
H1267 C1261 0.959 . S
H1268 C1261 0.961 . S
H1269 C1261 0.960 . S
H1270 C1262 0.930 . S
H1271 C1263 0.929 . S
H1272 C1280 0.929 . S
H1273 C1282 0.930 . S
H1274 C1284 0.930 . S
H1275 C1287 0.929 . S
H1276 C1290 0.930 . S
H1277 C1292 0.960 . S
H1278 C1292 0.960 . S
H1279 C1292 0.960 . S
C1280 H1272 0.929 . S
C1280 C1281 1.377 . S
C1280 C1282 1.384 . S
C1281 C1280 1.377 . S
C1281 C1287 1.390 . S
C1282 H1273 0.930 . S
C1282 C1280 1.384 . S
C1282 C1283 1.372 . S
C1283 C1282 1.372 . S
C1283 C1284 1.400 . S
C1283 C1288 1.490 . S
C1284 H1274 0.930 . S
C1284 C1283 1.400 . S
C1284 C1287 1.386 . S
H1285 C1301 0.930 . S
H1286 C1302 0.931 . S
C1287 H1275 0.929 . S
C1287 C1281 1.390 . S
C1287 C1284 1.386 . S
C1288 C1283 1.490 . S
C1288 C1290 1.395 . S
C1288 C1291 1.403 . S
H1289 C1295 0.930 . S
C1290 H1276 0.930 . S
C1290 C1288 1.395 . S
C1290 C1293 1.403 . S
C1291 C1288 1.403 . S
C1291 C1292 1.524 . S
C1291 C1295 1.400 . S
C1292 H1277 0.960 . S
C1292 H1278 0.960 . S
C1292 H1279 0.960 . S
C1292 C1291 1.524 . S
C1293 C1290 1.403 . S
C1293 C1294 1.392 . S
C1293 C1297 1.495 . S
C1294 C1293 1.392 . S
C1294 C1295 1.385 . S
C1294 C1296 1.478 . S
C1295 H1289 0.930 . S
C1295 C1291 1.400 . S
C1295 C1294 1.385 . S
C1296 C1294 1.478 . S
C1296 C1298 1.381 . S
C1296 C1302 1.383 . S
C1297 C1293 1.495 . S
C1297 H1303 0.959 . S
C1297 H1304 0.961 . S
C1297 H1305 0.960 . S
C1298 C1296 1.381 . S
C1298 C1299 1.394 . S
C1298 H1306 0.930 . S
C1299 C1298 1.394 . S
C1299 C1300 1.383 . S
C1299 H1307 0.929 . S
C1300 C1299 1.383 . S
C1300 C1301 1.377 . S
C1301 H1285 0.930 . S
C1301 C1300 1.377 . S
C1301 C1302 1.379 . S
C1302 H1286 0.931 . S
C1302 C1296 1.383 . S
C1302 C1301 1.379 . S
H1303 C1297 0.959 . S
H1304 C1297 0.961 . S
H1305 C1297 0.960 . S
H1306 C1298 0.930 . S
H1307 C1299 0.929 . S
H1308 C1316 0.929 . S
H1309 C1318 0.930 . S
H1310 C1320 0.930 . S
H1311 C1323 0.929 . S
H1312 C1326 0.930 . S
H1313 C1328 0.960 . S
H1314 C1328 0.960 . S
H1315 C1328 0.960 . S
C1316 H1308 0.929 . S
C1316 C1317 1.377 . S
C1316 C1318 1.384 . S
C1317 C1316 1.377 . S
C1317 C1323 1.390 . S
C1318 H1309 0.930 . S
C1318 C1316 1.384 . S
C1318 C1319 1.372 . S
C1319 C1318 1.372 . S
C1319 C1320 1.400 . S
C1319 C1324 1.490 . S
C1320 H1310 0.930 . S
C1320 C1319 1.400 . S
C1320 C1323 1.386 . S
H1321 C1337 0.930 . S
H1322 C1338 0.931 . S
C1323 H1311 0.929 . S
C1323 C1317 1.390 . S
C1323 C1320 1.386 . S
C1324 C1319 1.490 . S
C1324 C1326 1.395 . S
C1324 C1327 1.403 . S
H1325 C1331 0.930 . S
C1326 H1312 0.930 . S
C1326 C1324 1.395 . S
C1326 C1329 1.403 . S
C1327 C1324 1.403 . S
C1327 C1328 1.524 . S
C1327 C1331 1.400 . S
C1328 H1313 0.960 . S
C1328 H1314 0.960 . S
C1328 H1315 0.960 . S
C1328 C1327 1.524 . S
C1329 C1326 1.403 . S
C1329 C1330 1.392 . S
C1329 C1333 1.495 . S
C1330 C1329 1.392 . S
C1330 C1331 1.385 . S
C1330 C1332 1.478 . S
C1331 H1325 0.930 . S
C1331 C1327 1.400 . S
C1331 C1330 1.385 . S
C1332 C1330 1.478 . S
C1332 C1334 1.381 . S
C1332 C1338 1.383 . S
C1333 C1329 1.495 . S
C1333 H1339 0.959 . S
C1333 H1340 0.961 . S
C1333 H1341 0.960 . S
C1334 C1332 1.381 . S
C1334 C1335 1.394 . S
C1334 H1342 0.930 . S
C1335 C1334 1.394 . S
C1335 C1336 1.383 . S
C1335 H1343 0.929 . S
C1336 C1335 1.383 . S
C1336 C1337 1.377 . S
C1337 H1321 0.930 . S
C1337 C1336 1.377 . S
C1337 C1338 1.379 . S
C1338 H1322 0.931 . S
C1338 C1332 1.383 . S
C1338 C1337 1.379 . S
H1339 C1333 0.959 . S
H1340 C1333 0.961 . S
H1341 C1333 0.960 . S
H1342 C1334 0.930 . S
H1343 C1335 0.929 . S
H1344 C1352 0.929 . S
H1345 C1354 0.930 . S
H1346 C1356 0.930 . S
H1347 C1359 0.929 . S
H1348 C1362 0.930 . S
H1349 C1364 0.960 . S
H1350 C1364 0.960 . S
H1351 C1364 0.960 . S
C1352 H1344 0.929 . S
C1352 C1353 1.377 . S
C1352 C1354 1.384 . S
C1353 C1352 1.377 . S
C1353 C1359 1.390 . S
C1354 H1345 0.930 . S
C1354 C1352 1.384 . S
C1354 C1355 1.372 . S
C1355 C1354 1.372 . S
C1355 C1356 1.400 . S
C1355 C1360 1.490 . S
C1356 H1346 0.930 . S
C1356 C1355 1.400 . S
C1356 C1359 1.386 . S
H1357 C1373 0.930 . S
H1358 C1374 0.931 . S
C1359 H1347 0.929 . S
C1359 C1353 1.390 . S
C1359 C1356 1.386 . S
C1360 C1355 1.490 . S
C1360 C1362 1.395 . S
C1360 C1363 1.403 . S
H1361 C1367 0.930 . S
C1362 H1348 0.930 . S
C1362 C1360 1.395 . S
C1362 C1365 1.403 . S
C1363 C1360 1.403 . S
C1363 C1364 1.524 . S
C1363 C1367 1.400 . S
C1364 H1349 0.960 . S
C1364 H1350 0.960 . S
C1364 H1351 0.960 . S
C1364 C1363 1.524 . S
C1365 C1362 1.403 . S
C1365 C1366 1.392 . S
C1365 C1369 1.495 . S
C1366 C1365 1.392 . S
C1366 C1367 1.385 . S
C1366 C1368 1.478 . S
C1367 H1361 0.930 . S
C1367 C1363 1.400 . S
C1367 C1366 1.385 . S
C1368 C1366 1.478 . S
C1368 C1370 1.381 . S
C1368 C1374 1.383 . S
C1369 C1365 1.495 . S
C1369 H1375 0.959 . S
C1369 H1376 0.961 . S
C1369 H1377 0.960 . S
C1370 C1368 1.381 . S
C1370 C1371 1.394 . S
C1370 H1378 0.930 . S
C1371 C1370 1.394 . S
C1371 C1372 1.383 . S
C1371 H1379 0.929 . S
C1372 C1371 1.383 . S
C1372 C1373 1.377 . S
C1373 H1357 0.930 . S
C1373 C1372 1.377 . S
C1373 C1374 1.379 . S
C1374 H1358 0.931 . S
C1374 C1368 1.383 . S
C1374 C1373 1.379 . S
H1375 C1369 0.959 . S
H1376 C1369 0.961 . S
H1377 C1369 0.960 . S
H1378 C1370 0.930 . S
H1379 C1371 0.929 . S
H1380 C1388 0.929 . S
H1381 C1390 0.930 . S
H1382 C1392 0.930 . S
H1383 C1395 0.929 . S
H1384 C1398 0.930 . S
H1385 C1400 0.960 . S
H1386 C1400 0.960 . S
H1387 C1400 0.960 . S
C1388 H1380 0.929 . S
C1388 C1389 1.377 . S
C1388 C1390 1.384 . S
C1389 C1388 1.377 . S
C1389 C1395 1.390 . S
C1390 H1381 0.930 . S
C1390 C1388 1.384 . S
C1390 C1391 1.372 . S
C1391 C1390 1.372 . S
C1391 C1392 1.400 . S
C1391 C1396 1.490 . S
C1392 H1382 0.930 . S
C1392 C1391 1.400 . S
C1392 C1395 1.386 . S
H1393 C1409 0.930 . S
H1394 C1410 0.931 . S
C1395 H1383 0.929 . S
C1395 C1389 1.390 . S
C1395 C1392 1.386 . S
C1396 C1391 1.490 . S
C1396 C1398 1.395 . S
C1396 C1399 1.403 . S
H1397 C1403 0.930 . S
C1398 H1384 0.930 . S
C1398 C1396 1.395 . S
C1398 C1401 1.403 . S
C1399 C1396 1.403 . S
C1399 C1400 1.524 . S
C1399 C1403 1.400 . S
C1400 H1385 0.960 . S
C1400 H1386 0.960 . S
C1400 H1387 0.960 . S
C1400 C1399 1.524 . S
C1401 C1398 1.403 . S
C1401 C1402 1.392 . S
C1401 C1405 1.495 . S
C1402 C1401 1.392 . S
C1402 C1403 1.385 . S
C1402 C1404 1.478 . S
C1403 H1397 0.930 . S
C1403 C1399 1.400 . S
C1403 C1402 1.385 . S
C1404 C1402 1.478 . S
C1404 C1406 1.381 . S
C1404 C1410 1.383 . S
C1405 C1401 1.495 . S
C1405 H1411 0.959 . S
C1405 H1412 0.961 . S
C1405 H1413 0.960 . S
C1406 C1404 1.381 . S
C1406 C1407 1.394 . S
C1406 H1414 0.930 . S
C1407 C1406 1.394 . S
C1407 C1408 1.383 . S
C1407 H1415 0.929 . S
C1408 C1407 1.383 . S
C1408 C1409 1.377 . S
C1409 H1393 0.930 . S
C1409 C1408 1.377 . S
C1409 C1410 1.379 . S
C1410 H1394 0.931 . S
C1410 C1404 1.383 . S
C1410 C1409 1.379 . S
H1411 C1405 0.959 . S
H1412 C1405 0.961 . S
H1413 C1405 0.960 . S
H1414 C1406 0.930 . S
H1415 C1407 0.929 . S
H1416 C1424 0.929 . S
H1417 C1426 0.930 . S
H1418 C1428 0.930 . S
H1419 C1431 0.929 . S
H1420 C1434 0.930 . S
H1421 C1436 0.960 . S
H1422 C1436 0.960 . S
H1423 C1436 0.960 . S
C1424 H1416 0.929 . S
C1424 C1425 1.377 . S
C1424 C1426 1.384 . S
C1425 C1424 1.377 . S
C1425 C1431 1.390 . S
C1426 H1417 0.930 . S
C1426 C1424 1.384 . S
C1426 C1427 1.372 . S
C1427 C1426 1.372 . S
C1427 C1428 1.400 . S
C1427 C1432 1.490 . S
C1428 H1418 0.930 . S
C1428 C1427 1.400 . S
C1428 C1431 1.386 . S
H1429 C1445 0.930 . S
H1430 C1446 0.931 . S
C1431 H1419 0.929 . S
C1431 C1425 1.390 . S
C1431 C1428 1.386 . S
C1432 C1427 1.490 . S
C1432 C1434 1.395 . S
C1432 C1435 1.403 . S
H1433 C1439 0.930 . S
C1434 H1420 0.930 . S
C1434 C1432 1.395 . S
C1434 C1437 1.403 . S
C1435 C1432 1.403 . S
C1435 C1436 1.524 . S
C1435 C1439 1.400 . S
C1436 H1421 0.960 . S
C1436 H1422 0.960 . S
C1436 H1423 0.960 . S
C1436 C1435 1.524 . S
C1437 C1434 1.403 . S
C1437 C1438 1.392 . S
C1437 C1441 1.495 . S
C1438 C1437 1.392 . S
C1438 C1439 1.385 . S
C1438 C1440 1.478 . S
C1439 H1433 0.930 . S
C1439 C1435 1.400 . S
C1439 C1438 1.385 . S
C1440 C1438 1.478 . S
C1440 C1442 1.381 . S
C1440 C1446 1.383 . S
C1441 C1437 1.495 . S
C1441 H1447 0.959 . S
C1441 H1448 0.961 . S
C1441 H1449 0.960 . S
C1442 C1440 1.381 . S
C1442 C1443 1.394 . S
C1442 H1450 0.930 . S
C1443 C1442 1.394 . S
C1443 C1444 1.383 . S
C1443 H1451 0.929 . S
C1444 C1443 1.383 . S
C1444 C1445 1.377 . S
C1445 H1429 0.930 . S
C1445 C1444 1.377 . S
C1445 C1446 1.379 . S
C1446 H1430 0.931 . S
C1446 C1440 1.383 . S
C1446 C1445 1.379 . S
H1447 C1441 0.959 . S
H1448 C1441 0.961 . S
H1449 C1441 0.960 . S
H1450 C1442 0.930 . S
H1451 C1443 0.929 . S
H1452 C1460 0.929 . S
H1453 C1462 0.930 . S
H1454 C1464 0.930 . S
H1455 C1467 0.929 . S
H1456 C1470 0.930 . S
H1457 C1472 0.960 . S
H1458 C1472 0.960 . S
H1459 C1472 0.960 . S
C1460 H1452 0.929 . S
C1460 C1461 1.377 . S
C1460 C1462 1.384 . S
C1461 C1460 1.377 . S
C1461 C1467 1.390 . S
C1462 H1453 0.930 . S
C1462 C1460 1.384 . S
C1462 C1463 1.372 . S
C1463 C1462 1.372 . S
C1463 C1464 1.400 . S
C1463 C1468 1.490 . S
C1464 H1454 0.930 . S
C1464 C1463 1.400 . S
C1464 C1467 1.386 . S
H1465 C1481 0.930 . S
H1466 C1482 0.931 . S
C1467 H1455 0.929 . S
C1467 C1461 1.390 . S
C1467 C1464 1.386 . S
C1468 C1463 1.490 . S
C1468 C1470 1.395 . S
C1468 C1471 1.403 . S
H1469 C1475 0.930 . S
C1470 H1456 0.930 . S
C1470 C1468 1.395 . S
C1470 C1473 1.403 . S
C1471 C1468 1.403 . S
C1471 C1472 1.524 . S
C1471 C1475 1.400 . S
C1472 H1457 0.960 . S
C1472 H1458 0.960 . S
C1472 H1459 0.960 . S
C1472 C1471 1.524 . S
C1473 C1470 1.403 . S
C1473 C1474 1.392 . S
C1473 C1477 1.495 . S
C1474 C1473 1.392 . S
C1474 C1475 1.385 . S
C1474 C1476 1.478 . S
C1475 H1469 0.930 . S
C1475 C1471 1.400 . S
C1475 C1474 1.385 . S
C1476 C1474 1.478 . S
C1476 C1478 1.381 . S
C1476 C1482 1.383 . S
C1477 C1473 1.495 . S
C1477 H1483 0.959 . S
C1477 H1484 0.961 . S
C1477 H1485 0.960 . S
C1478 C1476 1.381 . S
C1478 C1479 1.394 . S
C1478 H1486 0.930 . S
C1479 C1478 1.394 . S
C1479 C1480 1.383 . S
C1479 H1487 0.929 . S
C1480 C1479 1.383 . S
C1480 C1481 1.377 . S
C1481 H1465 0.930 . S
C1481 C1480 1.377 . S
C1481 C1482 1.379 . S
C1482 H1466 0.931 . S
C1482 C1476 1.383 . S
C1482 C1481 1.379 . S
H1483 C1477 0.959 . S
H1484 C1477 0.961 . S
H1485 C1477 0.960 . S
H1486 C1478 0.930 . S
H1487 C1479 0.929 . S
H1488 C1496 0.929 . S
H1489 C1498 0.930 . S
H1490 C1500 0.930 . S
H1491 C1503 0.929 . S
H1492 C1506 0.930 . S
H1493 C1508 0.960 . S
H1494 C1508 0.960 . S
H1495 C1508 0.960 . S
C1496 H1488 0.929 . S
C1496 C1497 1.377 . S
C1496 C1498 1.384 . S
C1497 C1496 1.377 . S
C1497 C1503 1.390 . S
C1498 H1489 0.930 . S
C1498 C1496 1.384 . S
C1498 C1499 1.372 . S
C1499 C1498 1.372 . S
C1499 C1500 1.400 . S
C1499 C1504 1.490 . S
C1500 H1490 0.930 . S
C1500 C1499 1.400 . S
C1500 C1503 1.386 . S
H1501 C1517 0.930 . S
H1502 C1518 0.931 . S
C1503 H1491 0.929 . S
C1503 C1497 1.390 . S
C1503 C1500 1.386 . S
C1504 C1499 1.490 . S
C1504 C1506 1.395 . S
C1504 C1507 1.403 . S
H1505 C1511 0.930 . S
C1506 H1492 0.930 . S
C1506 C1504 1.395 . S
C1506 C1509 1.403 . S
C1507 C1504 1.403 . S
C1507 C1508 1.524 . S
C1507 C1511 1.400 . S
C1508 H1493 0.960 . S
C1508 H1494 0.960 . S
C1508 H1495 0.960 . S
C1508 C1507 1.524 . S
C1509 C1506 1.403 . S
C1509 C1510 1.392 . S
C1509 C1513 1.495 . S
C1510 C1509 1.392 . S
C1510 C1511 1.385 . S
C1510 C1512 1.478 . S
C1511 H1505 0.930 . S
C1511 C1507 1.400 . S
C1511 C1510 1.385 . S
C1512 C1510 1.478 . S
C1512 C1514 1.381 . S
C1512 C1518 1.383 . S
C1513 C1509 1.495 . S
C1513 H1519 0.959 . S
C1513 H1520 0.961 . S
C1513 H1521 0.960 . S
C1514 C1512 1.381 . S
C1514 C1515 1.394 . S
C1514 H1522 0.930 . S
C1515 C1514 1.394 . S
C1515 C1516 1.383 . S
C1515 H1523 0.929 . S
C1516 C1515 1.383 . S
C1516 C1517 1.377 . S
C1517 H1501 0.930 . S
C1517 C1516 1.377 . S
C1517 C1518 1.379 . S
C1518 H1502 0.931 . S
C1518 C1512 1.383 . S
C1518 C1517 1.379 . S
H1519 C1513 0.959 . S
H1520 C1513 0.961 . S
H1521 C1513 0.960 . S
H1522 C1514 0.930 . S
H1523 C1515 0.929 . S
H1524 C1532 0.929 . S
H1525 C1534 0.930 . S
H1526 C1536 0.930 . S
H1527 C1539 0.929 . S
H1528 C1542 0.930 . S
H1529 C1544 0.960 . S
H1530 C1544 0.960 . S
H1531 C1544 0.960 . S
C1532 H1524 0.929 . S
C1532 C1533 1.377 . S
C1532 C1534 1.384 . S
C1533 C1532 1.377 . S
C1533 C1539 1.390 . S
C1534 H1525 0.930 . S
C1534 C1532 1.384 . S
C1534 C1535 1.372 . S
C1535 C1534 1.372 . S
C1535 C1536 1.400 . S
C1535 C1540 1.490 . S
C1536 H1526 0.930 . S
C1536 C1535 1.400 . S
C1536 C1539 1.386 . S
H1537 C1553 0.930 . S
H1538 C1554 0.931 . S
C1539 H1527 0.929 . S
C1539 C1533 1.390 . S
C1539 C1536 1.386 . S
C1540 C1535 1.490 . S
C1540 C1542 1.395 . S
C1540 C1543 1.403 . S
H1541 C1547 0.930 . S
C1542 H1528 0.930 . S
C1542 C1540 1.395 . S
C1542 C1545 1.403 . S
C1543 C1540 1.403 . S
C1543 C1544 1.524 . S
C1543 C1547 1.400 . S
C1544 H1529 0.960 . S
C1544 H1530 0.960 . S
C1544 H1531 0.960 . S
C1544 C1543 1.524 . S
C1545 C1542 1.403 . S
C1545 C1546 1.392 . S
C1545 C1549 1.495 . S
C1546 C1545 1.392 . S
C1546 C1547 1.385 . S
C1546 C1548 1.478 . S
C1547 H1541 0.930 . S
C1547 C1543 1.400 . S
C1547 C1546 1.385 . S
C1548 C1546 1.478 . S
C1548 C1550 1.381 . S
C1548 C1554 1.383 . S
C1549 C1545 1.495 . S
C1549 H1555 0.959 . S
C1549 H1556 0.961 . S
C1549 H1557 0.960 . S
C1550 C1548 1.381 . S
C1550 C1551 1.394 . S
C1550 H1558 0.930 . S
C1551 C1550 1.394 . S
C1551 C1552 1.383 . S
C1551 H1559 0.929 . S
C1552 C1551 1.383 . S
C1552 C1553 1.377 . S
C1553 H1537 0.930 . S
C1553 C1552 1.377 . S
C1553 C1554 1.379 . S
C1554 H1538 0.931 . S
C1554 C1548 1.383 . S
C1554 C1553 1.379 . S
H1555 C1549 0.959 . S
H1556 C1549 0.961 . S
H1557 C1549 0.960 . S
H1558 C1550 0.930 . S
H1559 C1551 0.929 . S
H1560 C1568 0.929 . S
H1561 C1570 0.930 . S
H1562 C1572 0.930 . S
H1563 C1575 0.929 . S
H1564 C1578 0.930 . S
H1565 C1580 0.960 . S
H1566 C1580 0.960 . S
H1567 C1580 0.960 . S
C1568 H1560 0.929 . S
C1568 C1569 1.377 . S
C1568 C1570 1.384 . S
C1569 C1568 1.377 . S
C1569 C1575 1.390 . S
C1570 H1561 0.930 . S
C1570 C1568 1.384 . S
C1570 C1571 1.372 . S
C1571 C1570 1.372 . S
C1571 C1572 1.400 . S
C1571 C1576 1.490 . S
C1572 H1562 0.930 . S
C1572 C1571 1.400 . S
C1572 C1575 1.386 . S
H1573 C1589 0.930 . S
H1574 C1590 0.931 . S
C1575 H1563 0.929 . S
C1575 C1569 1.390 . S
C1575 C1572 1.386 . S
C1576 C1571 1.490 . S
C1576 C1578 1.395 . S
C1576 C1579 1.403 . S
H1577 C1583 0.930 . S
C1578 H1564 0.930 . S
C1578 C1576 1.395 . S
C1578 C1581 1.403 . S
C1579 C1576 1.403 . S
C1579 C1580 1.524 . S
C1579 C1583 1.400 . S
C1580 H1565 0.960 . S
C1580 H1566 0.960 . S
C1580 H1567 0.960 . S
C1580 C1579 1.524 . S
C1581 C1578 1.403 . S
C1581 C1582 1.392 . S
C1581 C1585 1.495 . S
C1582 C1581 1.392 . S
C1582 C1583 1.385 . S
C1582 C1584 1.478 . S
C1583 H1577 0.930 . S
C1583 C1579 1.400 . S
C1583 C1582 1.385 . S
C1584 C1582 1.478 . S
C1584 C1586 1.381 . S
C1584 C1590 1.383 . S
C1585 C1581 1.495 . S
C1585 H1591 0.959 . S
C1585 H1592 0.961 . S
C1585 H1593 0.960 . S
C1586 C1584 1.381 . S
C1586 C1587 1.394 . S
C1586 H1594 0.930 . S
C1587 C1586 1.394 . S
C1587 C1588 1.383 . S
C1587 H1595 0.929 . S
C1588 C1587 1.383 . S
C1588 C1589 1.377 . S
C1589 H1573 0.930 . S
C1589 C1588 1.377 . S
C1589 C1590 1.379 . S
C1590 H1574 0.931 . S
C1590 C1584 1.383 . S
C1590 C1589 1.379 . S
H1591 C1585 0.959 . S
H1592 C1585 0.961 . S
H1593 C1585 0.960 . S
H1594 C1586 0.930 . S
H1595 C1587 0.929 . S
H1596 C1604 0.929 . S
H1597 C1606 0.930 . S
H1598 C1608 0.930 . S
H1599 C1611 0.929 . S
H1600 C1614 0.930 . S
H1601 C1616 0.960 . S
H1602 C1616 0.960 . S
H1603 C1616 0.960 . S
C1604 H1596 0.929 . S
C1604 C1605 1.377 . S
C1604 C1606 1.384 . S
C1605 C1604 1.377 . S
C1605 C1611 1.390 . S
C1606 H1597 0.930 . S
C1606 C1604 1.384 . S
C1606 C1607 1.372 . S
C1607 C1606 1.372 . S
C1607 C1608 1.400 . S
C1607 C1612 1.490 . S
C1608 H1598 0.930 . S
C1608 C1607 1.400 . S
C1608 C1611 1.386 . S
H1609 C1625 0.930 . S
H1610 C1626 0.931 . S
C1611 H1599 0.929 . S
C1611 C1605 1.390 . S
C1611 C1608 1.386 . S
C1612 C1607 1.490 . S
C1612 C1614 1.395 . S
C1612 C1615 1.403 . S
H1613 C1619 0.930 . S
C1614 H1600 0.930 . S
C1614 C1612 1.395 . S
C1614 C1617 1.403 . S
C1615 C1612 1.403 . S
C1615 C1616 1.524 . S
C1615 C1619 1.400 . S
C1616 H1601 0.960 . S
C1616 H1602 0.960 . S
C1616 H1603 0.960 . S
C1616 C1615 1.524 . S
C1617 C1614 1.403 . S
C1617 C1618 1.392 . S
C1617 C1621 1.495 . S
C1618 C1617 1.392 . S
C1618 C1619 1.385 . S
C1618 C1620 1.478 . S
C1619 H1613 0.930 . S
C1619 C1615 1.400 . S
C1619 C1618 1.385 . S
C1620 C1618 1.478 . S
C1620 C1622 1.381 . S
C1620 C1626 1.383 . S
C1621 C1617 1.495 . S
C1621 H1627 0.959 . S
C1621 H1628 0.961 . S
C1621 H1629 0.960 . S
C1622 C1620 1.381 . S
C1622 C1623 1.394 . S
C1622 H1630 0.930 . S
C1623 C1622 1.394 . S
C1623 C1624 1.383 . S
C1623 H1631 0.929 . S
C1624 C1623 1.383 . S
C1624 C1625 1.377 . S
C1625 H1609 0.930 . S
C1625 C1624 1.377 . S
C1625 C1626 1.379 . S
C1626 H1610 0.931 . S
C1626 C1620 1.383 . S
C1626 C1625 1.379 . S
H1627 C1621 0.959 . S
H1628 C1621 0.961 . S
H1629 C1621 0.960 . S
H1630 C1622 0.930 . S
H1631 C1623 0.929 . S
H1632 C1640 0.929 . S
H1633 C1642 0.930 . S
H1634 C1644 0.930 . S
H1635 C1647 0.929 . S
H1636 C1650 0.930 . S
H1637 C1652 0.960 . S
H1638 C1652 0.960 . S
H1639 C1652 0.960 . S
C1640 H1632 0.929 . S
C1640 C1641 1.377 . S
C1640 C1642 1.384 . S
C1641 C1640 1.377 . S
C1641 C1647 1.390 . S
C1642 H1633 0.930 . S
C1642 C1640 1.384 . S
C1642 C1643 1.372 . S
C1643 C1642 1.372 . S
C1643 C1644 1.400 . S
C1643 C1648 1.490 . S
C1644 H1634 0.930 . S
C1644 C1643 1.400 . S
C1644 C1647 1.386 . S
H1645 C1661 0.930 . S
H1646 C1662 0.931 . S
C1647 H1635 0.929 . S
C1647 C1641 1.390 . S
C1647 C1644 1.386 . S
C1648 C1643 1.490 . S
C1648 C1650 1.395 . S
C1648 C1651 1.403 . S
H1649 C1655 0.930 . S
C1650 H1636 0.930 . S
C1650 C1648 1.395 . S
C1650 C1653 1.403 . S
C1651 C1648 1.403 . S
C1651 C1652 1.524 . S
C1651 C1655 1.400 . S
C1652 H1637 0.960 . S
C1652 H1638 0.960 . S
C1652 H1639 0.960 . S
C1652 C1651 1.524 . S
C1653 C1650 1.403 . S
C1653 C1654 1.392 . S
C1653 C1657 1.495 . S
C1654 C1653 1.392 . S
C1654 C1655 1.385 . S
C1654 C1656 1.478 . S
C1655 H1649 0.930 . S
C1655 C1651 1.400 . S
C1655 C1654 1.385 . S
C1656 C1654 1.478 . S
C1656 C1658 1.381 . S
C1656 C1662 1.383 . S
C1657 C1653 1.495 . S
C1657 H1663 0.959 . S
C1657 H1664 0.961 . S
C1657 H1665 0.960 . S
C1658 C1656 1.381 . S
C1658 C1659 1.394 . S
C1658 H1666 0.930 . S
C1659 C1658 1.394 . S
C1659 C1660 1.383 . S
C1659 H1667 0.929 . S
C1660 C1659 1.383 . S
C1660 C1661 1.377 . S
C1661 H1645 0.930 . S
C1661 C1660 1.377 . S
C1661 C1662 1.379 . S
C1662 H1646 0.931 . S
C1662 C1656 1.383 . S
C1662 C1661 1.379 . S
H1663 C1657 0.959 . S
H1664 C1657 0.961 . S
H1665 C1657 0.960 . S
H1666 C1658 0.930 . S
H1667 C1659 0.929 . S
H1668 C1676 0.929 . S
H1669 C1678 0.930 . S
H1670 C1680 0.930 . S
H1671 C1683 0.929 . S
H1672 C1686 0.930 . S
H1673 C1688 0.960 . S
H1674 C1688 0.960 . S
H1675 C1688 0.960 . S
C1676 H1668 0.929 . S
C1676 C1677 1.377 . S
C1676 C1678 1.384 . S
C1677 C1676 1.377 . S
C1677 C1683 1.390 . S
C1678 H1669 0.930 . S
C1678 C1676 1.384 . S
C1678 C1679 1.372 . S
C1679 C1678 1.372 . S
C1679 C1680 1.400 . S
C1679 C1684 1.490 . S
C1680 H1670 0.930 . S
C1680 C1679 1.400 . S
C1680 C1683 1.386 . S
H1681 C1697 0.930 . S
H1682 C1698 0.931 . S
C1683 H1671 0.929 . S
C1683 C1677 1.390 . S
C1683 C1680 1.386 . S
C1684 C1679 1.490 . S
C1684 C1686 1.395 . S
C1684 C1687 1.403 . S
H1685 C1691 0.930 . S
C1686 H1672 0.930 . S
C1686 C1684 1.395 . S
C1686 C1689 1.403 . S
C1687 C1684 1.403 . S
C1687 C1688 1.524 . S
C1687 C1691 1.400 . S
C1688 H1673 0.960 . S
C1688 H1674 0.960 . S
C1688 H1675 0.960 . S
C1688 C1687 1.524 . S
C1689 C1686 1.403 . S
C1689 C1690 1.392 . S
C1689 C1693 1.495 . S
C1690 C1689 1.392 . S
C1690 C1691 1.385 . S
C1690 C1692 1.478 . S
C1691 H1685 0.930 . S
C1691 C1687 1.400 . S
C1691 C1690 1.385 . S
C1692 C1690 1.478 . S
C1692 C1694 1.381 . S
C1692 C1698 1.383 . S
C1693 C1689 1.495 . S
C1693 H1699 0.959 . S
C1693 H1700 0.961 . S
C1693 H1701 0.960 . S
C1694 C1692 1.381 . S
C1694 C1695 1.394 . S
C1694 H1702 0.930 . S
C1695 C1694 1.394 . S
C1695 C1696 1.383 . S
C1695 H1703 0.929 . S
C1696 C1695 1.383 . S
C1696 C1697 1.377 . S
C1697 H1681 0.930 . S
C1697 C1696 1.377 . S
C1697 C1698 1.379 . S
C1698 H1682 0.931 . S
C1698 C1692 1.383 . S
C1698 C1697 1.379 . S
H1699 C1693 0.959 . S
H1700 C1693 0.961 . S
H1701 C1693 0.960 . S
H1702 C1694 0.930 . S
H1703 C1695 0.929 . S
H1704 C1712 0.929 . S
H1705 C1714 0.930 . S
H1706 C1716 0.930 1_556 S
H1707 C1719 0.929 1_556 S
H1708 C1722 0.930 . S
H1709 C1724 0.960 . S
H1710 C1724 0.960 . S
H1711 C1724 0.960 . S
C1712 H1704 0.929 . S
C1712 C1713 1.377 . S
C1712 C1714 1.384 . S
C1713 C1712 1.377 . S
C1713 C1719 1.390 . S
C1714 H1705 0.930 . S
C1714 C1712 1.384 . S
C1714 C1715 1.372 . S
C1715 C1714 1.372 . S
C1715 C1716 1.400 . S
C1715 C1720 1.490 . S
C1716 H1706 0.930 1_554 S
C1716 C1715 1.400 . S
C1716 C1719 1.386 . S
H1717 C1733 0.930 1_556 S
H1718 C1734 0.931 1_556 S
C1719 H1707 0.929 1_554 S
C1719 C1713 1.390 . S
C1719 C1716 1.386 . S
C1720 C1715 1.490 . S
C1720 C1722 1.395 . S
C1720 C1723 1.403 . S
H1721 C1727 0.930 . S
C1722 H1708 0.930 . S
C1722 C1720 1.395 . S
C1722 C1725 1.403 . S
C1723 C1720 1.403 . S
C1723 C1724 1.524 . S
C1723 C1727 1.400 . S
C1724 H1709 0.960 . S
C1724 H1710 0.960 . S
C1724 H1711 0.960 . S
C1724 C1723 1.524 . S
C1725 C1722 1.403 . S
C1725 C1726 1.392 . S
C1725 C1729 1.495 . S
C1726 C1725 1.392 . S
C1726 C1727 1.385 . S
C1726 C1728 1.478 . S
C1727 H1721 0.930 . S
C1727 C1723 1.400 . S
C1727 C1726 1.385 . S
C1728 C1726 1.478 . S
C1728 C1730 1.381 . S
C1728 C1734 1.383 . S
C1729 C1725 1.495 . S
C1729 H1735 0.959 . S
C1729 H1736 0.961 . S
C1729 H1737 0.960 . S
C1730 C1728 1.381 . S
C1730 C1731 1.394 . S
C1730 H1738 0.930 . S
C1731 C1730 1.394 . S
C1731 C1732 1.383 . S
C1731 H1739 0.929 . S
C1732 C1731 1.383 . S
C1732 C1733 1.377 . S
C1733 H1717 0.930 1_554 S
C1733 C1732 1.377 . S
C1733 C1734 1.379 . S
C1734 H1718 0.931 1_554 S
C1734 C1728 1.383 . S
C1734 C1733 1.379 . S
H1735 C1729 0.959 . S
H1736 C1729 0.961 . S
H1737 C1729 0.960 . S
H1738 C1730 0.930 . S
H1739 C1731 0.929 . S
H1740 C1748 0.929 . S
H1741 C1750 0.930 . S
H1742 C1752 0.930 . S
H1743 C1755 0.929 . S
H1744 C1758 0.930 . S
H1745 C1760 0.960 . S
H1746 C1760 0.960 . S
H1747 C1760 0.960 . S
C1748 H1740 0.929 . S
C1748 C1749 1.377 . S
C1748 C1750 1.384 . S
C1749 C1748 1.377 . S
C1749 C1755 1.390 . S
C1750 H1741 0.930 . S
C1750 C1748 1.384 . S
C1750 C1751 1.372 . S
C1751 C1750 1.372 . S
C1751 C1752 1.400 . S
C1751 C1756 1.490 . S
C1752 H1742 0.930 . S
C1752 C1751 1.400 . S
C1752 C1755 1.386 . S
H1753 C1769 0.930 . S
H1754 C1770 0.931 . S
C1755 H1743 0.929 . S
C1755 C1749 1.390 . S
C1755 C1752 1.386 . S
C1756 C1751 1.490 . S
C1756 C1758 1.395 . S
C1756 C1759 1.403 . S
H1757 C1763 0.904 1_556 S
C1758 H1744 0.930 . S
C1758 C1756 1.395 . S
C1758 C1761 1.403 . S
C1759 C1756 1.403 . S
C1759 C1760 1.524 1_554 S
C1759 C1763 1.400 . S
C1760 H1745 0.960 . S
C1760 H1746 0.960 . S
C1760 H1747 0.960 . S
C1760 C1759 1.524 1_556 S
C1761 C1758 1.403 . S
C1761 C1762 1.392 . S
C1761 C1765 1.495 . S
C1762 C1761 1.392 . S
C1762 C1763 1.385 . S
C1762 C1764 1.478 . S
C1763 H1757 0.904 1_554 S
C1763 C1759 1.400 . S
C1763 C1762 1.385 . S
C1764 C1762 1.478 . S
C1764 C1766 1.381 . S
C1764 C1770 1.383 . S
C1765 C1761 1.495 . S
C1765 H1771 0.959 . S
C1765 H1772 0.961 . S
C1765 H1773 0.960 . S
C1766 C1764 1.381 . S
C1766 C1767 1.394 . S
C1766 H1774 0.930 . S
C1767 C1766 1.394 . S
C1767 C1768 1.383 . S
C1767 H1775 0.929 . S
C1768 C1767 1.383 . S
C1768 C1769 1.377 . S
C1769 H1753 0.930 . S
C1769 C1768 1.377 . S
C1769 C1770 1.379 . S
C1770 H1754 0.931 . S
C1770 C1764 1.383 . S
C1770 C1769 1.379 . S
H1771 C1765 0.959 . S
H1772 C1765 0.961 . S
H1773 C1765 0.960 . S
H1774 C1766 0.930 . S
H1775 C1767 0.929 . S
H1776 C1784 0.929 . S
H1777 C1786 0.930 . S
H1778 C1788 0.930 . S
H1779 C1791 0.929 . S
H1780 C1794 0.930 . S
H1781 C1796 0.960 . S
H1782 C1796 0.960 . S
H1783 C1796 0.960 . S
C1784 H1776 0.929 . S
C1784 C1785 1.377 . S
C1784 C1786 1.384 . S
C1785 C1784 1.377 . S
C1785 C1791 1.390 . S
C1786 H1777 0.930 . S
C1786 C1784 1.384 . S
C1786 C1787 1.372 . S
C1787 C1786 1.372 . S
C1787 C1788 1.400 . S
C1787 C1792 1.490 . S
C1788 H1778 0.930 . S
C1788 C1787 1.400 . S
C1788 C1791 1.386 . S
H1789 C1805 0.930 . S
H1790 C1806 0.931 . S
C1791 H1779 0.929 . S
C1791 C1785 1.390 . S
C1791 C1788 1.386 . S
C1792 C1787 1.490 . S
C1792 C1794 1.395 . S
C1792 C1795 1.403 . S
H1793 C1799 0.930 . S
C1794 H1780 0.930 . S
C1794 C1792 1.395 . S
C1794 C1797 1.403 . S
C1795 C1792 1.403 . S
C1795 C1796 1.524 . S
C1795 C1799 1.400 . S
C1796 H1781 0.960 . S
C1796 H1782 0.960 . S
C1796 H1783 0.960 . S
C1796 C1795 1.524 . S
C1797 C1794 1.403 . S
C1797 C1798 1.392 . S
C1797 C1801 1.495 . S
C1798 C1797 1.392 . S
C1798 C1799 1.385 . S
C1798 C1800 1.478 . S
C1799 H1793 0.930 . S
C1799 C1795 1.400 . S
C1799 C1798 1.385 . S
C1800 C1798 1.478 . S
C1800 C1802 1.381 . S
C1800 C1806 1.383 . S
C1801 C1797 1.495 . S
C1801 H1807 0.959 . S
C1801 H1808 0.961 . S
C1801 H1809 0.960 . S
C1802 C1800 1.381 . S
C1802 C1803 1.394 . S
C1802 H1810 0.930 . S
C1803 C1802 1.394 . S
C1803 C1804 1.383 . S
C1803 H1811 0.929 . S
C1804 C1803 1.383 . S
C1804 C1805 1.377 . S
C1805 H1789 0.930 . S
C1805 C1804 1.377 . S
C1805 C1806 1.379 . S
C1806 H1790 0.931 . S
C1806 C1800 1.383 . S
C1806 C1805 1.379 . S
H1807 C1801 0.959 . S
H1808 C1801 0.961 . S
H1809 C1801 0.960 . S
H1810 C1802 0.930 . S
H1811 C1803 0.929 . S
H1812 C1820 0.929 . S
H1813 C1822 0.930 . S
H1814 C1824 0.930 . S
H1815 C1827 0.929 . S
H1816 C1830 0.930 . S
H1817 C1832 0.960 . S
H1818 C1832 0.960 . S
H1819 C1832 0.960 . S
C1820 H1812 0.929 . S
C1820 C1821 1.377 . S
C1820 C1822 1.384 . S
C1821 C1820 1.377 . S
C1821 C1827 1.390 . S
C1822 H1813 0.930 . S
C1822 C1820 1.384 . S
C1822 C1823 1.372 . S
C1823 C1822 1.372 . S
C1823 C1824 1.400 . S
C1823 C1828 1.490 . S
C1824 H1814 0.930 . S
C1824 C1823 1.400 . S
C1824 C1827 1.386 . S
H1825 C1841 0.930 . S
H1826 C1842 0.931 . S
C1827 H1815 0.929 . S
C1827 C1821 1.390 . S
C1827 C1824 1.386 . S
C1828 C1823 1.490 . S
C1828 C1830 1.395 . S
C1828 C1831 1.403 . S
H1829 C1835 0.930 . S
C1830 H1816 0.930 . S
C1830 C1828 1.395 . S
C1830 C1833 1.403 . S
C1831 C1828 1.403 . S
C1831 C1832 1.524 . S
C1831 C1835 1.400 . S
C1832 H1817 0.960 . S
C1832 H1818 0.960 . S
C1832 H1819 0.960 . S
C1832 C1831 1.524 . S
C1833 C1830 1.403 . S
C1833 C1834 1.392 . S
C1833 C1837 1.495 . S
C1834 C1833 1.392 . S
C1834 C1835 1.385 . S
C1834 C1836 1.478 . S
C1835 H1829 0.930 . S
C1835 C1831 1.400 . S
C1835 C1834 1.385 . S
C1836 C1834 1.478 . S
C1836 C1838 1.381 . S
C1836 C1842 1.383 . S
C1837 C1833 1.495 . S
C1837 H1843 0.959 . S
C1837 H1844 0.961 . S
C1837 H1845 0.960 . S
C1838 C1836 1.381 . S
C1838 C1839 1.394 . S
C1838 H1846 0.930 . S
C1839 C1838 1.394 . S
C1839 C1840 1.383 . S
C1839 H1847 0.929 . S
C1840 C1839 1.383 . S
C1840 C1841 1.377 . S
C1841 H1825 0.930 . S
C1841 C1840 1.377 . S
C1841 C1842 1.379 . S
C1842 H1826 0.931 . S
C1842 C1836 1.383 . S
C1842 C1841 1.379 . S
H1843 C1837 0.959 . S
H1844 C1837 0.961 . S
H1845 C1837 0.960 . S
H1846 C1838 0.930 . S
H1847 C1839 0.929 . S
H1848 C1856 0.929 1_554 S
H1849 C1858 0.930 1_554 S
H1850 C1860 0.930 . S
H1851 C1863 0.929 . S
H1852 C1866 0.930 . S
H1853 C1868 0.960 . S
H1854 C1868 0.960 . S
H1855 C1868 0.960 . S
C1856 H1848 0.929 1_556 S
C1856 C1857 1.377 . S
C1856 C1858 1.384 . S
C1857 C1856 1.377 . S
C1857 C1863 1.390 . S
C1858 H1849 0.930 1_556 S
C1858 C1856 1.384 . S
C1858 C1859 1.372 . S
C1859 C1858 1.372 . S
C1859 C1860 1.400 . S
C1859 C1864 1.490 . S
C1860 H1850 0.930 . S
C1860 C1859 1.400 . S
C1860 C1863 1.386 . S
H1861 C1877 0.930 . S
H1862 C1878 0.931 . S
C1863 H1851 0.929 . S
C1863 C1857 1.390 . S
C1863 C1860 1.386 . S
C1864 C1859 1.490 . S
C1864 C1866 1.395 . S
C1864 C1867 1.403 . S
H1865 C1871 0.930 . S
C1866 H1852 0.930 . S
C1866 C1864 1.395 . S
C1866 C1869 1.403 . S
C1867 C1864 1.403 . S
C1867 C1868 1.524 . S
C1867 C1871 1.400 . S
C1868 H1853 0.960 . S
C1868 H1854 0.960 . S
C1868 H1855 0.960 . S
C1868 C1867 1.524 . S
C1869 C1866 1.403 . S
C1869 C1870 1.392 . S
C1869 C1873 1.495 . S
C1870 C1869 1.392 . S
C1870 C1871 1.385 . S
C1870 C1872 1.478 . S
C1871 H1865 0.930 . S
C1871 C1867 1.400 . S
C1871 C1870 1.385 . S
C1872 C1870 1.478 . S
C1872 C1874 1.381 . S
C1872 C1878 1.383 . S
C1873 C1869 1.495 . S
C1873 H1879 0.959 . S
C1873 H1880 0.961 . S
C1873 H1881 0.960 1_556 S
C1874 C1872 1.381 . S
C1874 C1875 1.394 . S
C1874 H1882 0.930 1_556 S
C1875 C1874 1.394 . S
C1875 C1876 1.383 . S
C1875 H1883 0.929 1_556 S
C1876 C1875 1.383 . S
C1876 C1877 1.377 . S
C1877 H1861 0.930 . S
C1877 C1876 1.377 . S
C1877 C1878 1.379 . S
C1878 H1862 0.931 . S
C1878 C1872 1.383 . S
C1878 C1877 1.379 . S
H1879 C1873 0.959 . S
H1880 C1873 0.961 . S
H1881 C1873 0.960 1_554 S
H1882 C1874 0.930 1_554 S
H1883 C1875 0.929 1_554 S
H1884 C1892 0.929 . S
H1885 C1894 0.930 . S
H1886 C1896 0.930 1_554 S
H1887 C1899 0.929 1_554 S
H1888 C1902 0.930 . S
H1889 C1904 0.960 . S
H1890 C1904 0.960 . S
H1891 C1904 0.960 . S
C1892 H1884 0.929 . S
C1892 C1893 1.377 . S
C1892 C1894 1.384 . S
C1893 C1892 1.377 . S
C1893 C1899 1.390 . S
C1894 H1885 0.930 . S
C1894 C1892 1.384 . S
C1894 C1895 1.372 . S
C1895 C1894 1.372 . S
C1895 C1896 1.400 . S
C1895 C1900 1.490 . S
C1896 H1886 0.930 1_556 S
C1896 C1895 1.400 . S
C1896 C1899 1.386 . S
H1897 C1913 0.930 1_554 S
H1898 C1914 0.931 1_554 S
C1899 H1887 0.929 1_556 S
C1899 C1893 1.390 . S
C1899 C1896 1.386 . S
C1900 C1895 1.490 . S
C1900 C1902 1.395 . S
C1900 C1903 1.403 . S
H1901 C1907 0.930 . S
C1902 H1888 0.930 . S
C1902 C1900 1.395 . S
C1902 C1905 1.403 . S
C1903 C1900 1.403 . S
C1903 C1904 1.524 . S
C1903 C1907 1.400 . S
C1904 H1889 0.960 . S
C1904 H1890 0.960 . S
C1904 H1891 0.960 . S
C1904 C1903 1.524 . S
C1905 C1902 1.403 . S
C1905 C1906 1.392 . S
C1905 C1909 1.495 . S
C1906 C1905 1.392 . S
C1906 C1907 1.385 . S
C1906 C1908 1.478 . S
C1907 H1901 0.930 . S
C1907 C1903 1.400 . S
C1907 C1906 1.385 . S
C1908 C1906 1.478 . S
C1908 C1910 1.381 . S
C1908 C1914 1.383 . S
C1909 C1905 1.495 . S
C1909 H1915 0.959 . S
C1909 H1916 0.961 . S
C1909 H1917 0.960 . S
C1910 C1908 1.381 . S
C1910 C1911 1.394 . S
C1910 H1918 0.930 . S
C1911 C1910 1.394 . S
C1911 C1912 1.383 . S
C1911 H1919 0.929 . S
C1912 C1911 1.383 . S
C1912 C1913 1.377 . S
C1913 H1897 0.930 1_556 S
C1913 C1912 1.377 . S
C1913 C1914 1.379 . S
C1914 H1898 0.931 1_556 S
C1914 C1908 1.383 . S
C1914 C1913 1.379 . S
H1915 C1909 0.959 . S
H1916 C1909 0.961 . S
H1917 C1909 0.960 . S
H1918 C1910 0.930 . S
H1919 C1911 0.929 . S
H1920 C1928 0.929 . S
H1921 C1930 0.930 . S
H1922 C1932 0.930 . S
H1923 C1935 0.929 . S
H1924 C1938 0.930 . S
H1925 C1940 0.960 . S
H1926 C1940 0.960 . S
H1927 C1940 0.960 . S
C1928 H1920 0.929 . S
C1928 C1929 1.377 . S
C1928 C1930 1.384 . S
C1929 C1928 1.377 . S
C1929 C1935 1.390 . S
C1930 H1921 0.930 . S
C1930 C1928 1.384 . S
C1930 C1931 1.372 . S
C1931 C1930 1.372 . S
C1931 C1932 1.400 . S
C1931 C1936 1.490 . S
C1932 H1922 0.930 . S
C1932 C1931 1.400 . S
C1932 C1935 1.386 . S
H1933 C1949 0.930 . S
H1934 C1950 0.931 . S
C1935 H1923 0.929 . S
C1935 C1929 1.390 . S
C1935 C1932 1.386 . S
C1936 C1931 1.490 . S
C1936 C1938 1.395 . S
C1936 C1939 1.403 . S
H1937 C1943 0.930 . S
C1938 H1924 0.930 . S
C1938 C1936 1.395 . S
C1938 C1941 1.403 . S
C1939 C1936 1.403 . S
C1939 C1940 1.524 . S
C1939 C1943 1.400 . S
C1940 H1925 0.960 . S
C1940 H1926 0.960 . S
C1940 H1927 0.960 . S
C1940 C1939 1.524 . S
C1941 C1938 1.403 . S
C1941 C1942 1.392 . S
C1941 C1945 1.495 . S
C1942 C1941 1.392 . S
C1942 C1943 1.385 . S
C1942 C1944 1.478 . S
C1943 H1937 0.930 . S
C1943 C1939 1.400 . S
C1943 C1942 1.385 . S
C1944 C1942 1.478 . S
C1944 C1946 1.381 . S
C1944 C1950 1.383 . S
C1945 C1941 1.495 . S
C1945 H1951 0.959 . S
C1945 H1952 0.961 . S
C1945 H1953 0.960 . S
C1946 C1944 1.381 . S
C1946 C1947 1.394 . S
C1946 H1954 0.930 . S
C1947 C1946 1.394 . S
C1947 C1948 1.383 . S
C1947 H1955 0.929 . S
C1948 C1947 1.383 . S
C1948 C1949 1.377 . S
C1949 H1933 0.930 . S
C1949 C1948 1.377 . S
C1949 C1950 1.379 . S
C1950 H1934 0.931 . S
C1950 C1944 1.383 . S
C1950 C1949 1.379 . S
H1951 C1945 0.959 . S
H1952 C1945 0.961 . S
H1953 C1945 0.960 . S
H1954 C1946 0.930 . S
H1955 C1947 0.929 . S
H1956 C1964 0.929 . S
H1957 C1966 0.930 . S
H1958 C1968 0.930 . S
H1959 C1971 0.929 . S
H1960 C1974 0.930 . S
H1961 C1976 0.960 . S
H1962 C1976 0.960 . S
H1963 C1976 0.960 . S
C1964 H1956 0.929 . S
C1964 C1965 1.377 . S
C1964 C1966 1.384 . S
C1965 C1964 1.377 . S
C1965 C1971 1.390 . S
C1966 H1957 0.930 . S
C1966 C1964 1.384 . S
C1966 C1967 1.372 . S
C1967 C1966 1.372 . S
C1967 C1968 1.400 . S
C1967 C1972 1.490 . S
C1968 H1958 0.930 . S
C1968 C1967 1.400 . S
C1968 C1971 1.386 . S
H1969 C1985 0.930 . S
H1970 C1986 0.931 . S
C1971 H1959 0.929 . S
C1971 C1965 1.390 . S
C1971 C1968 1.386 . S
C1972 C1967 1.490 . S
C1972 C1974 1.395 . S
C1972 C1975 1.403 . S
H1973 C1979 0.930 . S
C1974 H1960 0.930 . S
C1974 C1972 1.395 . S
C1974 C1977 1.403 . S
C1975 C1972 1.403 . S
C1975 C1976 1.524 . S
C1975 C1979 1.400 . S
C1976 H1961 0.960 . S
C1976 H1962 0.960 . S
C1976 H1963 0.960 . S
C1976 C1975 1.524 . S
C1977 C1974 1.403 . S
C1977 C1978 1.392 . S
C1977 C1981 1.495 . S
C1978 C1977 1.392 . S
C1978 C1979 1.385 . S
C1978 C1980 1.478 . S
C1979 H1973 0.930 . S
C1979 C1975 1.400 . S
C1979 C1978 1.385 . S
C1980 C1978 1.478 . S
C1980 C1982 1.381 . S
C1980 C1986 1.383 . S
C1981 C1977 1.495 . S
C1981 H1987 0.959 . S
C1981 H1988 0.961 . S
C1981 H1989 0.960 . S
C1982 C1980 1.381 . S
C1982 C1983 1.394 . S
C1982 H1990 0.930 . S
C1983 C1982 1.394 . S
C1983 C1984 1.383 . S
C1983 H1991 0.929 . S
C1984 C1983 1.383 . S
C1984 C1985 1.377 . S
C1985 H1969 0.930 . S
C1985 C1984 1.377 . S
C1985 C1986 1.379 . S
C1986 H1970 0.931 . S
C1986 C1980 1.383 . S
C1986 C1985 1.379 . S
H1987 C1981 0.959 . S
H1988 C1981 0.961 . S
H1989 C1981 0.960 . S
H1990 C1982 0.930 . S
H1991 C1983 0.929 . S
H1992 C2000 0.929 . S
H1993 C2002 0.930 . S
H1994 C2004 0.930 . S
H1995 C2007 0.929 . S
H1996 C2010 0.930 . S
H1997 C2012 0.960 . S
H1998 C2012 0.960 . S
H1999 C2012 0.960 . S
C2000 H1992 0.929 . S
C2000 C2001 1.377 . S
C2000 C2002 1.384 . S
C2001 C2000 1.377 . S
C2001 C2007 1.390 . S
C2002 H1993 0.930 . S
C2002 C2000 1.384 . S
C2002 C2003 1.372 . S
C2003 C2002 1.372 . S
C2003 C2004 1.400 . S
C2003 C2008 1.490 . S
C2004 H1994 0.930 . S
C2004 C2003 1.400 . S
C2004 C2007 1.386 . S
H2005 C2021 0.930 . S
H2006 C2022 0.931 . S
C2007 H1995 0.929 . S
C2007 C2001 1.390 . S
C2007 C2004 1.386 . S
C2008 C2003 1.490 . S
C2008 C2010 1.395 . S
C2008 C2011 1.403 . S
H2009 C2015 0.930 . S
C2010 H1996 0.930 . S
C2010 C2008 1.395 . S
C2010 C2013 1.403 . S
C2011 C2008 1.403 . S
C2011 C2012 1.524 . S
C2011 C2015 1.400 . S
C2012 H1997 0.960 . S
C2012 H1998 0.960 . S
C2012 H1999 0.960 . S
C2012 C2011 1.524 . S
C2013 C2010 1.403 . S
C2013 C2014 1.392 . S
C2013 C2017 1.495 . S
C2014 C2013 1.392 . S
C2014 C2015 1.385 . S
C2014 C2016 1.478 . S
C2015 H2009 0.930 . S
C2015 C2011 1.400 . S
C2015 C2014 1.385 . S
C2016 C2014 1.478 . S
C2016 C2018 1.381 . S
C2016 C2022 1.383 . S
C2017 C2013 1.495 . S
C2017 H2023 0.959 . S
C2017 H2024 0.961 . S
C2017 H2025 0.960 . S
C2018 C2016 1.381 . S
C2018 C2019 1.394 . S
C2018 H2026 0.930 . S
C2019 C2018 1.394 . S
C2019 C2020 1.383 . S
C2019 H2027 0.929 . S
C2020 C2019 1.383 . S
C2020 C2021 1.377 . S
C2021 H2005 0.930 . S
C2021 C2020 1.377 . S
C2021 C2022 1.379 . S
C2022 H2006 0.931 . S
C2022 C2016 1.383 . S
C2022 C2021 1.379 . S
H2023 C2017 0.959 . S
H2024 C2017 0.961 . S
H2025 C2017 0.960 . S
H2026 C2018 0.930 . S
H2027 C2019 0.929 . S
H2028 C2036 0.929 . S
H2029 C2038 0.930 . S
H2030 C2040 0.930 . S
H2031 C2043 0.929 . S
H2032 C2046 0.930 . S
H2033 C2048 0.960 . S
H2034 C2048 0.960 . S
H2035 C2048 0.960 . S
C2036 H2028 0.929 . S
C2036 C2037 1.377 . S
C2036 C2038 1.384 . S
C2037 C2036 1.377 . S
C2037 C2043 1.390 . S
C2038 H2029 0.930 . S
C2038 C2036 1.384 . S
C2038 C2039 1.372 . S
C2039 C2038 1.372 . S
C2039 C2040 1.400 . S
C2039 C2044 1.490 . S
C2040 H2030 0.930 . S
C2040 C2039 1.400 . S
C2040 C2043 1.386 . S
H2041 C2057 0.930 . S
H2042 C2058 0.931 . S
C2043 H2031 0.929 . S
C2043 C2037 1.390 . S
C2043 C2040 1.386 . S
C2044 C2039 1.490 . S
C2044 C2046 1.395 . S
C2044 C2047 1.403 . S
H2045 C2051 0.930 . S
C2046 H2032 0.930 . S
C2046 C2044 1.395 . S
C2046 C2049 1.403 . S
C2047 C2044 1.403 . S
C2047 C2048 1.524 . S
C2047 C2051 1.400 . S
C2048 H2033 0.960 . S
C2048 H2034 0.960 . S
C2048 H2035 0.960 . S
C2048 C2047 1.524 . S
C2049 C2046 1.403 . S
C2049 C2050 1.392 . S
C2049 C2053 1.495 . S
C2050 C2049 1.392 . S
C2050 C2051 1.385 . S
C2050 C2052 1.478 . S
C2051 H2045 0.930 . S
C2051 C2047 1.400 . S
C2051 C2050 1.385 . S
C2052 C2050 1.478 . S
C2052 C2054 1.381 . S
C2052 C2058 1.383 . S
C2053 C2049 1.495 . S
C2053 H2059 0.959 . S
C2053 H2060 0.961 . S
C2053 H2061 0.960 . S
C2054 C2052 1.381 . S
C2054 C2055 1.394 . S
C2054 H2062 0.930 . S
C2055 C2054 1.394 . S
C2055 C2056 1.383 . S
C2055 H2063 0.929 . S
C2056 C2055 1.383 . S
C2056 C2057 1.377 . S
C2057 H2041 0.930 . S
C2057 C2056 1.377 . S
C2057 C2058 1.379 . S
C2058 H2042 0.931 . S
C2058 C2052 1.383 . S
C2058 C2057 1.379 . S
H2059 C2053 0.959 . S
H2060 C2053 0.961 . S
H2061 C2053 0.960 . S
H2062 C2054 0.930 . S
H2063 C2055 0.929 . S
H2064 C2072 0.929 . S
H2065 C2074 0.930 . S
H2066 C2076 0.930 . S
H2067 C2079 0.929 . S
H2068 C2082 0.930 . S
H2069 C2084 0.960 . S
H2070 C2084 0.960 . S
H2071 C2084 0.960 . S
C2072 H2064 0.929 . S
C2072 C2073 1.377 . S
C2072 C2074 1.384 . S
C2073 C2072 1.377 . S
C2073 C2079 1.390 . S
C2074 H2065 0.930 . S
C2074 C2072 1.384 . S
C2074 C2075 1.372 . S
C2075 C2074 1.372 . S
C2075 C2076 1.400 . S
C2075 C2080 1.490 . S
C2076 H2066 0.930 . S
C2076 C2075 1.400 . S
C2076 C2079 1.386 . S
H2077 C2093 0.930 . S
H2078 C2094 0.931 . S
C2079 H2067 0.929 . S
C2079 C2073 1.390 . S
C2079 C2076 1.386 . S
C2080 C2075 1.490 . S
C2080 C2082 1.395 . S
C2080 C2083 1.403 . S
H2081 C2087 0.930 . S
C2082 H2068 0.930 . S
C2082 C2080 1.395 . S
C2082 C2085 1.403 . S
C2083 C2080 1.403 . S
C2083 C2084 1.524 . S
C2083 C2087 1.400 . S
C2084 H2069 0.960 . S
C2084 H2070 0.960 . S
C2084 H2071 0.960 . S
C2084 C2083 1.524 . S
C2085 C2082 1.403 . S
C2085 C2086 1.392 . S
C2085 C2089 1.495 . S
C2086 C2085 1.392 . S
C2086 C2087 1.385 . S
C2086 C2088 1.478 . S
C2087 H2081 0.930 . S
C2087 C2083 1.400 . S
C2087 C2086 1.385 . S
C2088 C2086 1.478 . S
C2088 C2090 1.381 . S
C2088 C2094 1.383 . S
C2089 C2085 1.495 . S
C2089 H2095 0.959 . S
C2089 H2096 0.961 . S
C2089 H2097 0.960 . S
C2090 C2088 1.381 . S
C2090 C2091 1.394 . S
C2090 H2098 0.930 . S
C2091 C2090 1.394 . S
C2091 C2092 1.383 . S
C2091 H2099 0.929 . S
C2092 C2091 1.383 . S
C2092 C2093 1.377 . S
C2093 H2077 0.930 . S
C2093 C2092 1.377 . S
C2093 C2094 1.379 . S
C2094 H2078 0.931 . S
C2094 C2088 1.383 . S
C2094 C2093 1.379 . S
H2095 C2089 0.959 . S
H2096 C2089 0.961 . S
H2097 C2089 0.960 . S
H2098 C2090 0.930 . S
H2099 C2091 0.929 . S
H2100 C2108 0.929 . S
H2101 C2110 0.930 . S
H2102 C2112 0.930 . S
H2103 C2115 0.929 . S
H2104 C2118 0.930 . S
H2105 C2120 0.960 . S
H2106 C2120 0.960 . S
H2107 C2120 0.960 . S
C2108 H2100 0.929 . S
C2108 C2109 1.377 . S
C2108 C2110 1.384 . S
C2109 C2108 1.377 . S
C2109 C2115 1.390 . S
C2110 H2101 0.930 . S
C2110 C2108 1.384 . S
C2110 C2111 1.372 . S
C2111 C2110 1.372 . S
C2111 C2112 1.400 . S
C2111 C2116 1.490 . S
C2112 H2102 0.930 . S
C2112 C2111 1.400 . S
C2112 C2115 1.386 . S
H2113 C2129 0.930 . S
H2114 C2130 0.931 . S
C2115 H2103 0.929 . S
C2115 C2109 1.390 . S
C2115 C2112 1.386 . S
C2116 C2111 1.490 . S
C2116 C2118 1.395 . S
C2116 C2119 1.403 . S
H2117 C2123 0.930 . S
C2118 H2104 0.930 . S
C2118 C2116 1.395 . S
C2118 C2121 1.403 . S
C2119 C2116 1.403 . S
C2119 C2120 1.524 . S
C2119 C2123 1.400 . S
C2120 H2105 0.960 . S
C2120 H2106 0.960 . S
C2120 H2107 0.960 . S
C2120 C2119 1.524 . S
C2121 C2118 1.403 . S
C2121 C2122 1.392 . S
C2121 C2125 1.495 . S
C2122 C2121 1.392 . S
C2122 C2123 1.385 . S
C2122 C2124 1.478 . S
C2123 H2117 0.930 . S
C2123 C2119 1.400 . S
C2123 C2122 1.385 . S
C2124 C2122 1.478 . S
C2124 C2126 1.381 . S
C2124 C2130 1.383 . S
C2125 C2121 1.495 . S
C2125 H2131 0.959 . S
C2125 H2132 0.961 . S
C2125 H2133 0.960 . S
C2126 C2124 1.381 . S
C2126 C2127 1.394 . S
C2126 H2134 0.930 . S
C2127 C2126 1.394 . S
C2127 C2128 1.383 . S
C2127 H2135 0.929 . S
C2128 C2127 1.383 . S
C2128 C2129 1.377 . S
C2129 H2113 0.930 . S
C2129 C2128 1.377 . S
C2129 C2130 1.379 . S
C2130 H2114 0.931 . S
C2130 C2124 1.383 . S
C2130 C2129 1.379 . S
H2131 C2125 0.959 . S
H2132 C2125 0.961 . S
H2133 C2125 0.960 . S
H2134 C2126 0.930 . S
H2135 C2127 0.929 . S
H2136 C2144 0.929 . S
H2137 C2146 0.930 . S
H2138 C2148 0.930 . S
H2139 C2151 0.929 . S
H2140 C2154 0.930 . S
H2141 C2156 0.960 . S
H2142 C2156 0.960 . S
H2143 C2156 0.960 . S
C2144 H2136 0.929 . S
C2144 C2145 1.377 . S
C2144 C2146 1.384 . S
C2145 C2144 1.377 . S
C2145 C2151 1.390 . S
C2146 H2137 0.930 . S
C2146 C2144 1.384 . S
C2146 C2147 1.372 . S
C2147 C2146 1.372 . S
C2147 C2148 1.400 . S
C2147 C2152 1.490 . S
C2148 H2138 0.930 . S
C2148 C2147 1.400 . S
C2148 C2151 1.386 . S
H2149 C2165 0.930 . S
H2150 C2166 0.931 . S
C2151 H2139 0.929 . S
C2151 C2145 1.390 . S
C2151 C2148 1.386 . S
C2152 C2147 1.490 . S
C2152 C2154 1.395 . S
C2152 C2155 1.403 . S
H2153 C2159 0.930 . S
C2154 H2140 0.930 . S
C2154 C2152 1.395 . S
C2154 C2157 1.403 . S
C2155 C2152 1.403 . S
C2155 C2156 1.524 . S
C2155 C2159 1.400 . S
C2156 H2141 0.960 . S
C2156 H2142 0.960 . S
C2156 H2143 0.960 . S
C2156 C2155 1.524 . S
C2157 C2154 1.403 . S
C2157 C2158 1.392 . S
C2157 C2161 1.495 . S
C2158 C2157 1.392 . S
C2158 C2159 1.385 . S
C2158 C2160 1.478 . S
C2159 H2153 0.930 . S
C2159 C2155 1.400 . S
C2159 C2158 1.385 . S
C2160 C2158 1.478 . S
C2160 C2162 1.381 . S
C2160 C2166 1.383 . S
C2161 C2157 1.495 . S
C2161 H2167 0.959 . S
C2161 H2168 0.961 . S
C2161 H2169 0.960 . S
C2162 C2160 1.381 . S
C2162 C2163 1.394 . S
C2162 H2170 0.930 . S
C2163 C2162 1.394 . S
C2163 C2164 1.383 . S
C2163 H2171 0.929 . S
C2164 C2163 1.383 . S
C2164 C2165 1.377 . S
C2165 H2149 0.930 . S
C2165 C2164 1.377 . S
C2165 C2166 1.379 . S
C2166 H2150 0.931 . S
C2166 C2160 1.383 . S
C2166 C2165 1.379 . S
H2167 C2161 0.959 . S
H2168 C2161 0.961 . S
H2169 C2161 0.960 . S
H2170 C2162 0.930 . S
H2171 C2163 0.929 . S
H2172 C2180 0.929 . S
H2173 C2182 0.930 . S
H2174 C2184 0.930 . S
H2175 C2187 0.929 . S
H2176 C2190 0.930 . S
H2177 C2192 0.960 . S
H2178 C2192 0.960 . S
H2179 C2192 0.960 . S
C2180 H2172 0.929 . S
C2180 C2181 1.377 . S
C2180 C2182 1.384 . S
C2181 C2180 1.377 . S
C2181 C2187 1.390 . S
C2182 H2173 0.930 . S
C2182 C2180 1.384 . S
C2182 C2183 1.372 . S
C2183 C2182 1.372 . S
C2183 C2184 1.400 . S
C2183 C2188 1.490 . S
C2184 H2174 0.930 . S
C2184 C2183 1.400 . S
C2184 C2187 1.386 . S
H2185 C2201 0.930 . S
H2186 C2202 0.931 . S
C2187 H2175 0.929 . S
C2187 C2181 1.390 . S
C2187 C2184 1.386 . S
C2188 C2183 1.490 . S
C2188 C2190 1.395 . S
C2188 C2191 1.403 . S
H2189 C2195 0.930 . S
C2190 H2176 0.930 . S
C2190 C2188 1.395 . S
C2190 C2193 1.403 . S
C2191 C2188 1.403 . S
C2191 C2192 1.524 . S
C2191 C2195 1.400 . S
C2192 H2177 0.960 . S
C2192 H2178 0.960 . S
C2192 H2179 0.960 . S
C2192 C2191 1.524 . S
C2193 C2190 1.403 . S
C2193 C2194 1.392 . S
C2193 C2197 1.495 . S
C2194 C2193 1.392 . S
C2194 C2195 1.385 . S
C2194 C2196 1.478 . S
C2195 H2189 0.930 . S
C2195 C2191 1.400 . S
C2195 C2194 1.385 . S
C2196 C2194 1.478 . S
C2196 C2198 1.381 . S
C2196 C2202 1.383 . S
C2197 C2193 1.495 . S
C2197 H2203 0.959 . S
C2197 H2204 0.961 . S
C2197 H2205 0.960 . S
C2198 C2196 1.381 . S
C2198 C2199 1.394 . S
C2198 H2206 0.930 . S
C2199 C2198 1.394 . S
C2199 C2200 1.383 . S
C2199 H2207 0.929 . S
C2200 C2199 1.383 . S
C2200 C2201 1.377 . S
C2201 H2185 0.930 . S
C2201 C2200 1.377 . S
C2201 C2202 1.379 . S
C2202 H2186 0.931 . S
C2202 C2196 1.383 . S
C2202 C2201 1.379 . S
H2203 C2197 0.959 . S
H2204 C2197 0.961 . S
H2205 C2197 0.960 . S
H2206 C2198 0.930 . S
H2207 C2199 0.929 . S
H2208 C2216 0.929 . S
H2209 C2218 0.930 . S
H2210 C2220 0.930 . S
H2211 C2223 0.929 . S
H2212 C2226 0.930 . S
H2213 C2228 0.960 . S
H2214 C2228 0.960 . S
H2215 C2228 0.960 . S
C2216 H2208 0.929 . S
C2216 C2217 1.377 . S
C2216 C2218 1.384 . S
C2217 C2216 1.377 . S
C2217 C2223 1.390 . S
C2218 H2209 0.930 . S
C2218 C2216 1.384 . S
C2218 C2219 1.372 . S
C2219 C2218 1.372 . S
C2219 C2220 1.400 . S
C2219 C2224 1.490 . S
C2220 H2210 0.930 . S
C2220 C2219 1.400 . S
C2220 C2223 1.386 . S
H2221 C2237 0.930 . S
H2222 C2238 0.931 . S
C2223 H2211 0.929 . S
C2223 C2217 1.390 . S
C2223 C2220 1.386 . S
C2224 C2219 1.490 . S
C2224 C2226 1.395 . S
C2224 C2227 1.403 . S
H2225 C2231 0.930 . S
C2226 H2212 0.930 . S
C2226 C2224 1.395 . S
C2226 C2229 1.403 . S
C2227 C2224 1.403 . S
C2227 C2228 1.524 . S
C2227 C2231 1.400 . S
C2228 H2213 0.960 . S
C2228 H2214 0.960 . S
C2228 H2215 0.960 . S
C2228 C2227 1.524 . S
C2229 C2226 1.403 . S
C2229 C2230 1.392 . S
C2229 C2233 1.495 . S
C2230 C2229 1.392 . S
C2230 C2231 1.385 . S
C2230 C2232 1.478 . S
C2231 H2225 0.930 . S
C2231 C2227 1.400 . S
C2231 C2230 1.385 . S
C2232 C2230 1.478 . S
C2232 C2234 1.381 . S
C2232 C2238 1.383 . S
C2233 C2229 1.495 . S
C2233 H2239 0.959 . S
C2233 H2240 0.961 . S
C2233 H2241 0.960 . S
C2234 C2232 1.381 . S
C2234 C2235 1.394 . S
C2234 H2242 0.930 . S
C2235 C2234 1.394 . S
C2235 C2236 1.383 . S
C2235 H2243 0.929 . S
C2236 C2235 1.383 . S
C2236 C2237 1.377 . S
C2237 H2221 0.930 . S
C2237 C2236 1.377 . S
C2237 C2238 1.379 . S
C2238 H2222 0.931 . S
C2238 C2232 1.383 . S
C2238 C2237 1.379 . S
H2239 C2233 0.959 . S
H2240 C2233 0.961 . S
H2241 C2233 0.960 . S
H2242 C2234 0.930 . S
H2243 C2235 0.929 . S
H2244 C2252 0.929 . S
H2245 C2254 0.930 . S
H2246 C2256 0.930 . S
H2247 C2259 0.929 . S
H2248 C2262 0.930 . S
H2249 C2264 0.960 . S
H2250 C2264 0.960 . S
H2251 C2264 0.960 . S
C2252 H2244 0.929 . S
C2252 C2253 1.377 . S
C2252 C2254 1.384 . S
C2253 C2252 1.377 . S
C2253 C2259 1.390 . S
C2254 H2245 0.930 . S
C2254 C2252 1.384 . S
C2254 C2255 1.372 . S
C2255 C2254 1.372 . S
C2255 C2256 1.400 . S
C2255 C2260 1.490 . S
C2256 H2246 0.930 . S
C2256 C2255 1.400 . S
C2256 C2259 1.386 . S
H2257 C2273 0.930 . S
H2258 C2274 0.931 . S
C2259 H2247 0.929 . S
C2259 C2253 1.390 . S
C2259 C2256 1.386 . S
C2260 C2255 1.490 . S
C2260 C2262 1.395 . S
C2260 C2263 1.403 . S
H2261 C2267 0.930 . S
C2262 H2248 0.930 . S
C2262 C2260 1.395 . S
C2262 C2265 1.403 . S
C2263 C2260 1.403 . S
C2263 C2264 1.524 . S
C2263 C2267 1.400 . S
C2264 H2249 0.960 . S
C2264 H2250 0.960 . S
C2264 H2251 0.960 . S
C2264 C2263 1.524 . S
C2265 C2262 1.403 . S
C2265 C2266 1.392 . S
C2265 C2269 1.495 . S
C2266 C2265 1.392 . S
C2266 C2267 1.385 . S
C2266 C2268 1.478 . S
C2267 H2261 0.930 . S
C2267 C2263 1.400 . S
C2267 C2266 1.385 . S
C2268 C2266 1.478 . S
C2268 C2270 1.381 . S
C2268 C2274 1.383 . S
C2269 C2265 1.495 . S
C2269 H2275 0.959 . S
C2269 H2276 0.961 . S
C2269 H2277 0.960 . S
C2270 C2268 1.381 . S
C2270 C2271 1.394 . S
C2270 H2278 0.930 . S
C2271 C2270 1.394 . S
C2271 C2272 1.383 . S
C2271 H2279 0.929 . S
C2272 C2271 1.383 . S
C2272 C2273 1.377 . S
C2273 H2257 0.930 . S
C2273 C2272 1.377 . S
C2273 C2274 1.379 . S
C2274 H2258 0.931 . S
C2274 C2268 1.383 . S
C2274 C2273 1.379 . S
H2275 C2269 0.959 . S
H2276 C2269 0.961 . S
H2277 C2269 0.960 . S
H2278 C2270 0.930 . S
H2279 C2271 0.929 . S
H2280 C2288 0.929 . S
H2281 C2290 0.930 . S
H2282 C2292 0.930 . S
H2283 C2295 0.929 . S
H2284 C2298 0.930 . S
H2285 C2300 0.960 . S
H2286 C2300 0.960 . S
H2287 C2300 0.960 . S
C2288 H2280 0.929 . S
C2288 C2289 1.377 . S
C2288 C2290 1.384 . S
C2289 C2288 1.377 . S
C2289 C2295 1.390 . S
C2290 H2281 0.930 . S
C2290 C2288 1.384 . S
C2290 C2291 1.372 . S
C2291 C2290 1.372 . S
C2291 C2292 1.400 . S
C2291 C2296 1.490 . S
C2292 H2282 0.930 . S
C2292 C2291 1.400 . S
C2292 C2295 1.386 . S
H2293 C2309 0.930 . S
H2294 C2310 0.931 . S
C2295 H2283 0.929 . S
C2295 C2289 1.390 . S
C2295 C2292 1.386 . S
C2296 C2291 1.490 . S
C2296 C2298 1.395 . S
C2296 C2299 1.403 . S
H2297 C2303 0.930 . S
C2298 H2284 0.930 . S
C2298 C2296 1.395 . S
C2298 C2301 1.403 . S
C2299 C2296 1.403 . S
C2299 C2300 1.524 . S
C2299 C2303 1.400 . S
C2300 H2285 0.960 . S
C2300 H2286 0.960 . S
C2300 H2287 0.960 . S
C2300 C2299 1.524 . S
C2301 C2298 1.403 . S
C2301 C2302 1.392 . S
C2301 C2305 1.495 . S
C2302 C2301 1.392 . S
C2302 C2303 1.385 . S
C2302 C2304 1.478 . S
C2303 H2297 0.930 . S
C2303 C2299 1.400 . S
C2303 C2302 1.385 . S
C2304 C2302 1.478 . S
C2304 C2306 1.381 . S
C2304 C2310 1.383 . S
C2305 C2301 1.495 . S
C2305 H2311 0.959 . S
C2305 H2312 0.961 . S
C2305 H2313 0.960 . S
C2306 C2304 1.381 . S
C2306 C2307 1.394 . S
C2306 H2314 0.930 . S
C2307 C2306 1.394 . S
C2307 C2308 1.383 . S
C2307 H2315 0.929 . S
C2308 C2307 1.383 . S
C2308 C2309 1.377 . S
C2309 H2293 0.930 . S
C2309 C2308 1.377 . S
C2309 C2310 1.379 . S
C2310 H2294 0.931 . S
C2310 C2304 1.383 . S
C2310 C2309 1.379 . S
H2311 C2305 0.959 . S
H2312 C2305 0.961 . S
H2313 C2305 0.960 . S
H2314 C2306 0.930 . S
H2315 C2307 0.929 . S
H2316 C2324 0.929 . S
H2317 C2326 0.930 . S
H2318 C2328 0.930 . S
H2319 C2331 0.929 . S
H2320 C2334 0.930 . S
H2321 C2336 0.960 . S
H2322 C2336 0.960 . S
H2323 C2336 0.960 . S
C2324 H2316 0.929 . S
C2324 C2325 1.377 . S
C2324 C2326 1.384 . S
C2325 C2324 1.377 . S
C2325 C2331 1.390 . S
C2326 H2317 0.930 . S
C2326 C2324 1.384 . S
C2326 C2327 1.372 . S
C2327 C2326 1.372 . S
C2327 C2328 1.400 . S
C2327 C2332 1.490 . S
C2328 H2318 0.930 . S
C2328 C2327 1.400 . S
C2328 C2331 1.386 . S
H2329 C2345 0.930 . S
H2330 C2346 0.931 . S
C2331 H2319 0.929 . S
C2331 C2325 1.390 . S
C2331 C2328 1.386 . S
C2332 C2327 1.490 . S
C2332 C2334 1.395 . S
C2332 C2335 1.403 . S
H2333 C2339 0.930 . S
C2334 H2320 0.930 . S
C2334 C2332 1.395 . S
C2334 C2337 1.403 . S
C2335 C2332 1.403 . S
C2335 C2336 1.524 . S
C2335 C2339 1.400 . S
C2336 H2321 0.960 . S
C2336 H2322 0.960 . S
C2336 H2323 0.960 . S
C2336 C2335 1.524 . S
C2337 C2334 1.403 . S
C2337 C2338 1.392 . S
C2337 C2341 1.495 . S
C2338 C2337 1.392 . S
C2338 C2339 1.385 . S
C2338 C2340 1.478 . S
C2339 H2333 0.930 . S
C2339 C2335 1.400 . S
C2339 C2338 1.385 . S
C2340 C2338 1.478 . S
C2340 C2342 1.381 . S
C2340 C2346 1.383 . S
C2341 C2337 1.495 . S
C2341 H2347 0.959 . S
C2341 H2348 0.961 . S
C2341 H2349 0.960 . S
C2342 C2340 1.381 . S
C2342 C2343 1.394 . S
C2342 H2350 0.930 . S
C2343 C2342 1.394 . S
C2343 C2344 1.383 . S
C2343 H2351 0.929 . S
C2344 C2343 1.383 . S
C2344 C2345 1.377 . S
C2345 H2329 0.930 . S
C2345 C2344 1.377 . S
C2345 C2346 1.379 . S
C2346 H2330 0.931 . S
C2346 C2340 1.383 . S
C2346 C2345 1.379 . S
H2347 C2341 0.959 . S
H2348 C2341 0.961 . S
H2349 C2341 0.960 . S
H2350 C2342 0.930 . S
H2351 C2343 0.929 . S
H2352 C2360 0.929 . S
H2353 C2362 0.930 . S
H2354 C2364 0.930 . S
H2355 C2367 0.929 . S
H2356 C2370 0.930 . S
H2357 C2372 0.960 . S
H2358 C2372 0.960 . S
H2359 C2372 0.960 . S
C2360 H2352 0.929 . S
C2360 C2361 1.377 . S
C2360 C2362 1.384 . S
C2361 C2360 1.377 . S
C2361 C2367 1.390 . S
C2362 H2353 0.930 . S
C2362 C2360 1.384 . S
C2362 C2363 1.372 . S
C2363 C2362 1.372 . S
C2363 C2364 1.400 . S
C2363 C2368 1.490 . S
C2364 H2354 0.930 . S
C2364 C2363 1.400 . S
C2364 C2367 1.386 . S
H2365 C2381 0.930 . S
H2366 C2382 0.931 . S
C2367 H2355 0.929 . S
C2367 C2361 1.390 . S
C2367 C2364 1.386 . S
C2368 C2363 1.490 . S
C2368 C2370 1.395 . S
C2368 C2371 1.403 . S
H2369 C2375 0.930 . S
C2370 H2356 0.930 . S
C2370 C2368 1.395 . S
C2370 C2373 1.403 . S
C2371 C2368 1.403 . S
C2371 C2372 1.524 . S
C2371 C2375 1.400 . S
C2372 H2357 0.960 . S
C2372 H2358 0.960 . S
C2372 H2359 0.960 . S
C2372 C2371 1.524 . S
C2373 C2370 1.403 . S
C2373 C2374 1.392 . S
C2373 C2377 1.495 . S
C2374 C2373 1.392 . S
C2374 C2375 1.385 . S
C2374 C2376 1.478 . S
C2375 H2369 0.930 . S
C2375 C2371 1.400 . S
C2375 C2374 1.385 . S
C2376 C2374 1.478 . S
C2376 C2378 1.381 . S
C2376 C2382 1.383 . S
C2377 C2373 1.495 . S
C2377 H2383 0.959 . S
C2377 H2384 0.961 . S
C2377 H2385 0.960 . S
C2378 C2376 1.381 . S
C2378 C2379 1.394 . S
C2378 H2386 0.930 . S
C2379 C2378 1.394 . S
C2379 C2380 1.383 . S
C2379 H2387 0.929 . S
C2380 C2379 1.383 . S
C2380 C2381 1.377 . S
C2381 H2365 0.930 . S
C2381 C2380 1.377 . S
C2381 C2382 1.379 . S
C2382 H2366 0.931 . S
C2382 C2376 1.383 . S
C2382 C2381 1.379 . S
H2383 C2377 0.959 . S
H2384 C2377 0.961 . S
H2385 C2377 0.960 . S
H2386 C2378 0.930 . S
H2387 C2379 0.929 . S
H2388 C2396 0.929 . S
H2389 C2398 0.930 . S
H2390 C2400 0.930 . S
H2391 C2403 0.929 . S
H2392 C2406 0.930 . S
H2393 C2408 0.960 . S
H2394 C2408 0.960 . S
H2395 C2408 0.960 . S
C2396 H2388 0.929 . S
C2396 C2397 1.377 . S
C2396 C2398 1.384 . S
C2397 C2396 1.377 . S
C2397 C2403 1.390 . S
C2398 H2389 0.930 . S
C2398 C2396 1.384 . S
C2398 C2399 1.372 . S
C2399 C2398 1.372 . S
C2399 C2400 1.400 . S
C2399 C2404 1.490 . S
C2400 H2390 0.930 . S
C2400 C2399 1.400 . S
C2400 C2403 1.386 . S
H2401 C2417 0.930 . S
H2402 C2418 0.931 . S
C2403 H2391 0.929 . S
C2403 C2397 1.390 . S
C2403 C2400 1.386 . S
C2404 C2399 1.490 . S
C2404 C2406 1.395 . S
C2404 C2407 1.403 . S
H2405 C2411 0.930 . S
C2406 H2392 0.930 . S
C2406 C2404 1.395 . S
C2406 C2409 1.403 . S
C2407 C2404 1.403 . S
C2407 C2408 1.524 . S
C2407 C2411 1.400 . S
C2408 H2393 0.960 . S
C2408 H2394 0.960 . S
C2408 H2395 0.960 . S
C2408 C2407 1.524 . S
C2409 C2406 1.403 . S
C2409 C2410 1.392 . S
C2409 C2413 1.495 . S
C2410 C2409 1.392 . S
C2410 C2411 1.385 . S
C2410 C2412 1.478 . S
C2411 H2405 0.930 . S
C2411 C2407 1.400 . S
C2411 C2410 1.385 . S
C2412 C2410 1.478 . S
C2412 C2414 1.381 . S
C2412 C2418 1.383 . S
C2413 C2409 1.495 . S
C2413 H2419 0.959 . S
C2413 H2420 0.961 . S
C2413 H2421 0.960 . S
C2414 C2412 1.381 . S
C2414 C2415 1.394 . S
C2414 H2422 0.930 . S
C2415 C2414 1.394 . S
C2415 C2416 1.383 . S
C2415 H2423 0.929 . S
C2416 C2415 1.383 . S
C2416 C2417 1.377 . S
C2417 H2401 0.930 . S
C2417 C2416 1.377 . S
C2417 C2418 1.379 . S
C2418 H2402 0.931 . S
C2418 C2412 1.383 . S
C2418 C2417 1.379 . S
H2419 C2413 0.959 . S
H2420 C2413 0.961 . S
H2421 C2413 0.960 . S
H2422 C2414 0.930 . S
H2423 C2415 0.929 . S
H2424 C2432 0.929 . S
H2425 C2434 0.930 . S
H2426 C2436 0.930 . S
H2427 C2439 0.929 . S
H2428 C2442 0.930 . S
H2429 C2444 0.960 . S
H2430 C2444 0.960 . S
H2431 C2444 0.960 . S
C2432 H2424 0.929 . S
C2432 C2433 1.377 . S
C2432 C2434 1.384 . S
C2433 C2432 1.377 . S
C2433 C2439 1.390 . S
C2434 H2425 0.930 . S
C2434 C2432 1.384 . S
C2434 C2435 1.372 . S
C2435 C2434 1.372 . S
C2435 C2436 1.400 . S
C2435 C2440 1.490 . S
C2436 H2426 0.930 . S
C2436 C2435 1.400 . S
C2436 C2439 1.386 . S
H2437 C2453 0.930 . S
H2438 C2454 0.931 . S
C2439 H2427 0.929 . S
C2439 C2433 1.390 . S
C2439 C2436 1.386 . S
C2440 C2435 1.490 . S
C2440 C2442 1.395 . S
C2440 C2443 1.403 . S
H2441 C2447 0.930 . S
C2442 H2428 0.930 . S
C2442 C2440 1.395 . S
C2442 C2445 1.403 . S
C2443 C2440 1.403 . S
C2443 C2444 1.524 . S
C2443 C2447 1.400 . S
C2444 H2429 0.960 . S
C2444 H2430 0.960 . S
C2444 H2431 0.960 . S
C2444 C2443 1.524 . S
C2445 C2442 1.403 . S
C2445 C2446 1.392 . S
C2445 C2449 1.495 . S
C2446 C2445 1.392 . S
C2446 C2447 1.385 . S
C2446 C2448 1.478 . S
C2447 H2441 0.930 . S
C2447 C2443 1.400 . S
C2447 C2446 1.385 . S
C2448 C2446 1.478 . S
C2448 C2450 1.381 . S
C2448 C2454 1.383 . S
C2449 C2445 1.495 . S
C2449 H2455 0.959 . S
C2449 H2456 0.961 . S
C2449 H2457 0.960 . S
C2450 C2448 1.381 . S
C2450 C2451 1.394 . S
C2450 H2458 0.930 . S
C2451 C2450 1.394 . S
C2451 C2452 1.383 . S
C2451 H2459 0.929 . S
C2452 C2451 1.383 . S
C2452 C2453 1.377 . S
C2453 H2437 0.930 . S
C2453 C2452 1.377 . S
C2453 C2454 1.379 . S
C2454 H2438 0.931 . S
C2454 C2448 1.383 . S
C2454 C2453 1.379 . S
H2455 C2449 0.959 . S
H2456 C2449 0.961 . S
H2457 C2449 0.960 . S
H2458 C2450 0.930 . S
H2459 C2451 0.929 . S
H2460 C2468 0.929 . S
H2461 C2470 0.930 . S
H2462 C2472 0.930 . S
H2463 C2475 0.929 . S
H2464 C2478 0.930 . S
H2465 C2480 0.960 . S
H2466 C2480 0.960 . S
H2467 C2480 0.960 . S
C2468 H2460 0.929 . S
C2468 C2469 1.377 . S
C2468 C2470 1.384 . S
C2469 C2468 1.377 . S
C2469 C2475 1.390 . S
C2470 H2461 0.930 . S
C2470 C2468 1.384 . S
C2470 C2471 1.372 . S
C2471 C2470 1.372 . S
C2471 C2472 1.400 . S
C2471 C2476 1.490 . S
C2472 H2462 0.930 . S
C2472 C2471 1.400 . S
C2472 C2475 1.386 . S
H2473 C2489 0.930 . S
H2474 C2490 0.931 . S
C2475 H2463 0.929 . S
C2475 C2469 1.390 . S
C2475 C2472 1.386 . S
C2476 C2471 1.490 . S
C2476 C2478 1.395 . S
C2476 C2479 1.403 . S
H2477 C2483 0.930 . S
C2478 H2464 0.930 . S
C2478 C2476 1.395 . S
C2478 C2481 1.403 . S
C2479 C2476 1.403 . S
C2479 C2480 1.524 . S
C2479 C2483 1.400 . S
C2480 H2465 0.960 . S
C2480 H2466 0.960 . S
C2480 H2467 0.960 . S
C2480 C2479 1.524 . S
C2481 C2478 1.403 . S
C2481 C2482 1.392 . S
C2481 C2485 1.495 . S
C2482 C2481 1.392 . S
C2482 C2483 1.385 . S
C2482 C2484 1.478 . S
C2483 H2477 0.930 . S
C2483 C2479 1.400 . S
C2483 C2482 1.385 . S
C2484 C2482 1.478 . S
C2484 C2486 1.381 . S
C2484 C2490 1.383 . S
C2485 C2481 1.495 . S
C2485 H2491 0.959 . S
C2485 H2492 0.961 . S
C2485 H2493 0.960 . S
C2486 C2484 1.381 . S
C2486 C2487 1.394 . S
C2486 H2494 0.930 . S
C2487 C2486 1.394 . S
C2487 C2488 1.383 . S
C2487 H2495 0.929 . S
C2488 C2487 1.383 . S
C2488 C2489 1.377 . S
C2489 H2473 0.930 . S
C2489 C2488 1.377 . S
C2489 C2490 1.379 . S
C2490 H2474 0.931 . S
C2490 C2484 1.383 . S
C2490 C2489 1.379 . S
H2491 C2485 0.959 . S
H2492 C2485 0.961 . S
H2493 C2485 0.960 . S
H2494 C2486 0.930 . S
H2495 C2487 0.929 . S
H2496 C2504 0.929 . S
H2497 C2506 0.930 . S
H2498 C2508 0.930 . S
H2499 C2511 0.929 . S
H2500 C2514 0.930 . S
H2501 C2516 0.960 . S
H2502 C2516 0.960 . S
H2503 C2516 0.960 . S
C2504 H2496 0.929 . S
C2504 C2505 1.377 . S
C2504 C2506 1.384 . S
C2505 C2504 1.377 . S
C2505 C2511 1.390 . S
C2506 H2497 0.930 . S
C2506 C2504 1.384 . S
C2506 C2507 1.372 . S
C2507 C2506 1.372 . S
C2507 C2508 1.400 . S
C2507 C2512 1.490 . S
C2508 H2498 0.930 . S
C2508 C2507 1.400 . S
C2508 C2511 1.386 . S
H2509 C2525 0.930 . S
H2510 C2526 0.931 . S
C2511 H2499 0.929 . S
C2511 C2505 1.390 . S
C2511 C2508 1.386 . S
C2512 C2507 1.490 . S
C2512 C2514 1.395 . S
C2512 C2515 1.403 . S
H2513 C2519 0.930 . S
C2514 H2500 0.930 . S
C2514 C2512 1.395 . S
C2514 C2517 1.403 . S
C2515 C2512 1.403 . S
C2515 C2516 1.524 . S
C2515 C2519 1.400 . S
C2516 H2501 0.960 . S
C2516 H2502 0.960 . S
C2516 H2503 0.960 . S
C2516 C2515 1.524 . S
C2517 C2514 1.403 . S
C2517 C2518 1.392 . S
C2517 C2521 1.495 . S
C2518 C2517 1.392 . S
C2518 C2519 1.385 . S
C2518 C2520 1.478 . S
C2519 H2513 0.930 . S
C2519 C2515 1.400 . S
C2519 C2518 1.385 . S
C2520 C2518 1.478 . S
C2520 C2522 1.381 . S
C2520 C2526 1.383 . S
C2521 C2517 1.495 . S
C2521 H2527 0.959 . S
C2521 H2528 0.961 . S
C2521 H2529 0.960 . S
C2522 C2520 1.381 . S
C2522 C2523 1.394 . S
C2522 H2530 0.930 . S
C2523 C2522 1.394 . S
C2523 C2524 1.383 . S
C2523 H2531 0.929 . S
C2524 C2523 1.383 . S
C2524 C2525 1.377 . S
C2525 H2509 0.930 . S
C2525 C2524 1.377 . S
C2525 C2526 1.379 . S
C2526 H2510 0.931 . S
C2526 C2520 1.383 . S
C2526 C2525 1.379 . S
H2527 C2521 0.959 . S
H2528 C2521 0.961 . S
H2529 C2521 0.960 . S
H2530 C2522 0.930 . S
H2531 C2523 0.929 . S
H2532 C2540 0.929 . S
H2533 C2542 0.930 . S
H2534 C2544 0.930 . S
H2535 C2547 0.929 . S
H2536 C2550 0.930 . S
H2537 C2552 0.960 . S
H2538 C2552 0.960 . S
H2539 C2552 0.960 . S
C2540 H2532 0.929 . S
C2540 C2541 1.377 . S
C2540 C2542 1.384 . S
C2541 C2540 1.377 . S
C2541 C2547 1.390 . S
C2542 H2533 0.930 . S
C2542 C2540 1.384 . S
C2542 C2543 1.372 . S
C2543 C2542 1.372 . S
C2543 C2544 1.400 . S
C2543 C2548 1.490 . S
C2544 H2534 0.930 . S
C2544 C2543 1.400 . S
C2544 C2547 1.386 . S
H2545 C2561 0.930 . S
H2546 C2562 0.931 . S
C2547 H2535 0.929 . S
C2547 C2541 1.390 . S
C2547 C2544 1.386 . S
C2548 C2543 1.490 . S
C2548 C2550 1.395 . S
C2548 C2551 1.403 . S
H2549 C2555 0.930 . S
C2550 H2536 0.930 . S
C2550 C2548 1.395 . S
C2550 C2553 1.403 . S
C2551 C2548 1.403 . S
C2551 C2552 1.524 . S
C2551 C2555 1.400 . S
C2552 H2537 0.960 . S
C2552 H2538 0.960 . S
C2552 H2539 0.960 . S
C2552 C2551 1.524 . S
C2553 C2550 1.403 . S
C2553 C2554 1.392 . S
C2553 C2557 1.495 . S
C2554 C2553 1.392 . S
C2554 C2555 1.385 . S
C2554 C2556 1.478 . S
C2555 H2549 0.930 . S
C2555 C2551 1.400 . S
C2555 C2554 1.385 . S
C2556 C2554 1.478 . S
C2556 C2558 1.381 . S
C2556 C2562 1.383 . S
C2557 C2553 1.495 . S
C2557 H2563 0.959 . S
C2557 H2564 0.961 . S
C2557 H2565 0.960 . S
C2558 C2556 1.381 . S
C2558 C2559 1.394 . S
C2558 H2566 0.930 . S
C2559 C2558 1.394 . S
C2559 C2560 1.383 . S
C2559 H2567 0.929 . S
C2560 C2559 1.383 . S
C2560 C2561 1.377 . S
C2561 H2545 0.930 . S
C2561 C2560 1.377 . S
C2561 C2562 1.379 . S
C2562 H2546 0.931 . S
C2562 C2556 1.383 . S
C2562 C2561 1.379 . S
H2563 C2557 0.959 . S
H2564 C2557 0.961 . S
H2565 C2557 0.960 . S
H2566 C2558 0.930 . S
H2567 C2559 0.929 . S
H2568 C2576 0.929 . S
H2569 C2578 0.930 . S
H2570 C2580 0.930 . S
H2571 C2583 0.929 . S
H2572 C2586 0.930 . S
H2573 C2588 0.960 . S
H2574 C2588 0.960 . S
H2575 C2588 0.960 . S
C2576 H2568 0.929 . S
C2576 C2577 1.377 . S
C2576 C2578 1.384 . S
C2577 C2576 1.377 . S
C2577 C2583 1.390 . S
C2578 H2569 0.930 . S
C2578 C2576 1.384 . S
C2578 C2579 1.372 . S
C2579 C2578 1.372 . S
C2579 C2580 1.400 . S
C2579 C2584 1.490 . S
C2580 H2570 0.930 . S
C2580 C2579 1.400 . S
C2580 C2583 1.386 . S
H2581 C2597 0.930 . S
H2582 C2598 0.931 . S
C2583 H2571 0.929 . S
C2583 C2577 1.390 . S
C2583 C2580 1.386 . S
C2584 C2579 1.490 . S
C2584 C2586 1.395 . S
C2584 C2587 1.403 . S
H2585 C2591 0.930 . S
C2586 H2572 0.930 . S
C2586 C2584 1.395 . S
C2586 C2589 1.403 . S
C2587 C2584 1.403 . S
C2587 C2588 1.524 . S
C2587 C2591 1.400 . S
C2588 H2573 0.960 . S
C2588 H2574 0.960 . S
C2588 H2575 0.960 . S
C2588 C2587 1.524 . S
C2589 C2586 1.403 . S
C2589 C2590 1.392 . S
C2589 C2593 1.495 . S
C2590 C2589 1.392 . S
C2590 C2591 1.385 . S
C2590 C2592 1.478 . S
C2591 H2585 0.930 . S
C2591 C2587 1.400 . S
C2591 C2590 1.385 . S
C2592 C2590 1.478 . S
C2592 C2594 1.381 . S
C2592 C2598 1.383 . S
C2593 C2589 1.495 . S
C2593 H2599 0.959 . S
C2593 H2600 0.961 . S
C2593 H2601 0.960 . S
C2594 C2592 1.381 . S
C2594 C2595 1.394 . S
C2594 H2602 0.930 . S
C2595 C2594 1.394 . S
C2595 C2596 1.383 . S
C2595 H2603 0.929 . S
C2596 C2595 1.383 . S
C2596 C2597 1.377 . S
C2597 H2581 0.930 . S
C2597 C2596 1.377 . S
C2597 C2598 1.379 . S
C2598 H2582 0.931 . S
C2598 C2592 1.383 . S
C2598 C2597 1.379 . S
H2599 C2593 0.959 . S
H2600 C2593 0.961 . S
H2601 C2593 0.960 . S
H2602 C2594 0.930 . S
H2603 C2595 0.929 . S
H2604 C2612 0.929 . S
H2605 C2614 0.930 . S
H2606 C2616 0.930 . S
H2607 C2619 0.929 . S
H2608 C2622 0.930 . S
H2609 C2624 0.960 . S
H2610 C2624 0.960 . S
H2611 C2624 0.960 . S
C2612 H2604 0.929 . S
C2612 C2613 1.377 . S
C2612 C2614 1.384 . S
C2613 C2612 1.377 . S
C2613 C2619 1.390 . S
C2614 H2605 0.930 . S
C2614 C2612 1.384 . S
C2614 C2615 1.372 . S
C2615 C2614 1.372 . S
C2615 C2616 1.400 . S
C2615 C2620 1.490 . S
C2616 H2606 0.930 . S
C2616 C2615 1.400 . S
C2616 C2619 1.386 . S
H2617 C2633 0.930 . S
H2618 C2634 0.931 . S
C2619 H2607 0.929 . S
C2619 C2613 1.390 . S
C2619 C2616 1.386 . S
C2620 C2615 1.490 . S
C2620 C2622 1.395 . S
C2620 C2623 1.403 . S
H2621 C2627 0.930 . S
C2622 H2608 0.930 . S
C2622 C2620 1.395 . S
C2622 C2625 1.403 . S
C2623 C2620 1.403 . S
C2623 C2624 1.524 . S
C2623 C2627 1.400 . S
C2624 H2609 0.960 . S
C2624 H2610 0.960 . S
C2624 H2611 0.960 . S
C2624 C2623 1.524 . S
C2625 C2622 1.403 . S
C2625 C2626 1.392 . S
C2625 C2629 1.495 . S
C2626 C2625 1.392 . S
C2626 C2627 1.385 . S
C2626 C2628 1.478 . S
C2627 H2621 0.930 . S
C2627 C2623 1.400 . S
C2627 C2626 1.385 . S
C2628 C2626 1.478 . S
C2628 C2630 1.381 . S
C2628 C2634 1.383 . S
C2629 C2625 1.495 . S
C2629 H2635 0.959 . S
C2629 H2636 0.961 . S
C2629 H2637 0.960 . S
C2630 C2628 1.381 . S
C2630 C2631 1.394 . S
C2630 H2638 0.930 . S
C2631 C2630 1.394 . S
C2631 C2632 1.383 . S
C2631 H2639 0.929 . S
C2632 C2631 1.383 . S
C2632 C2633 1.377 . S
C2633 H2617 0.930 . S
C2633 C2632 1.377 . S
C2633 C2634 1.379 . S
C2634 H2618 0.931 . S
C2634 C2628 1.383 . S
C2634 C2633 1.379 . S
H2635 C2629 0.959 . S
H2636 C2629 0.961 . S
H2637 C2629 0.960 . S
H2638 C2630 0.930 . S
H2639 C2631 0.929 . S
H2640 C2648 0.929 . S
H2641 C2650 0.930 . S
H2642 C2652 0.930 . S
H2643 C2655 0.929 . S
H2644 C2658 0.930 . S
H2645 C2660 0.960 . S
H2646 C2660 0.960 . S
H2647 C2660 0.960 . S
C2648 H2640 0.929 . S
C2648 C2649 1.377 . S
C2648 C2650 1.384 . S
C2649 C2648 1.377 . S
C2649 C2655 1.390 . S
C2650 H2641 0.930 . S
C2650 C2648 1.384 . S
C2650 C2651 1.372 . S
C2651 C2650 1.372 . S
C2651 C2652 1.400 . S
C2651 C2656 1.490 . S
C2652 H2642 0.930 . S
C2652 C2651 1.400 . S
C2652 C2655 1.386 . S
H2653 C2669 0.930 . S
H2654 C2670 0.931 . S
C2655 H2643 0.929 . S
C2655 C2649 1.390 . S
C2655 C2652 1.386 . S
C2656 C2651 1.490 . S
C2656 C2658 1.395 . S
C2656 C2659 1.403 . S
H2657 C2663 0.930 . S
C2658 H2644 0.930 . S
C2658 C2656 1.395 . S
C2658 C2661 1.403 . S
C2659 C2656 1.403 . S
C2659 C2660 1.524 . S
C2659 C2663 1.400 . S
C2660 H2645 0.960 . S
C2660 H2646 0.960 . S
C2660 H2647 0.960 . S
C2660 C2659 1.524 . S
C2661 C2658 1.403 . S
C2661 C2662 1.392 . S
C2661 C2665 1.495 . S
C2662 C2661 1.392 . S
C2662 C2663 1.385 . S
C2662 C2664 1.478 . S
C2663 H2657 0.930 . S
C2663 C2659 1.400 . S
C2663 C2662 1.385 . S
C2664 C2662 1.478 . S
C2664 C2666 1.381 . S
C2664 C2670 1.383 . S
C2665 C2661 1.495 . S
C2665 H2671 0.959 . S
C2665 H2672 0.961 . S
C2665 H2673 0.960 . S
C2666 C2664 1.381 . S
C2666 C2667 1.394 . S
C2666 H2674 0.930 . S
C2667 C2666 1.394 . S
C2667 C2668 1.383 . S
C2667 H2675 0.929 . S
C2668 C2667 1.383 . S
C2668 C2669 1.377 . S
C2669 H2653 0.930 . S
C2669 C2668 1.377 . S
C2669 C2670 1.379 . S
C2670 H2654 0.931 . S
C2670 C2664 1.383 . S
C2670 C2669 1.379 . S
H2671 C2665 0.959 . S
H2672 C2665 0.961 . S
H2673 C2665 0.960 . S
H2674 C2666 0.930 . S
H2675 C2667 0.929 . S
H2676 C2684 0.929 . S
H2677 C2686 0.930 . S
H2678 C2688 0.930 . S
H2679 C2691 0.929 . S
H2680 C2694 0.930 . S
H2681 C2696 0.960 . S
H2682 C2696 0.960 . S
H2683 C2696 0.960 . S
C2684 H2676 0.929 . S
C2684 C2685 1.377 . S
C2684 C2686 1.384 . S
C2685 C2684 1.377 . S
C2685 C2691 1.390 . S
C2686 H2677 0.930 . S
C2686 C2684 1.384 . S
C2686 C2687 1.372 . S
C2687 C2686 1.372 . S
C2687 C2688 1.400 . S
C2687 C2692 1.490 . S
C2688 H2678 0.930 . S
C2688 C2687 1.400 . S
C2688 C2691 1.386 . S
H2689 C2705 0.930 . S
H2690 C2706 0.931 . S
C2691 H2679 0.929 . S
C2691 C2685 1.390 . S
C2691 C2688 1.386 . S
C2692 C2687 1.490 . S
C2692 C2694 1.395 . S
C2692 C2695 1.403 . S
H2693 C2699 0.930 . S
C2694 H2680 0.930 . S
C2694 C2692 1.395 . S
C2694 C2697 1.403 . S
C2695 C2692 1.403 . S
C2695 C2696 1.524 . S
C2695 C2699 1.400 . S
C2696 H2681 0.960 . S
C2696 H2682 0.960 . S
C2696 H2683 0.960 . S
C2696 C2695 1.524 . S
C2697 C2694 1.403 . S
C2697 C2698 1.392 . S
C2697 C2701 1.495 . S
C2698 C2697 1.392 . S
C2698 C2699 1.385 . S
C2698 C2700 1.478 . S
C2699 H2693 0.930 . S
C2699 C2695 1.400 . S
C2699 C2698 1.385 . S
C2700 C2698 1.478 . S
C2700 C2702 1.381 . S
C2700 C2706 1.383 . S
C2701 C2697 1.495 . S
C2701 H2707 0.959 . S
C2701 H2708 0.961 . S
C2701 H2709 0.960 . S
C2702 C2700 1.381 . S
C2702 C2703 1.394 . S
C2702 H2710 0.930 . S
C2703 C2702 1.394 . S
C2703 C2704 1.383 . S
C2703 H2711 0.929 . S
C2704 C2703 1.383 . S
C2704 C2705 1.377 . S
C2705 H2689 0.930 . S
C2705 C2704 1.377 . S
C2705 C2706 1.379 . S
C2706 H2690 0.931 . S
C2706 C2700 1.383 . S
C2706 C2705 1.379 . S
H2707 C2701 0.959 . S
H2708 C2701 0.961 . S
H2709 C2701 0.960 . S
H2710 C2702 0.930 . S
H2711 C2703 0.929 . S
H2712 C2720 0.929 . S
H2713 C2722 0.930 . S
H2714 C2724 0.930 . S
H2715 C2727 0.929 . S
H2716 C2730 0.930 . S
H2717 C2732 0.960 . S
H2718 C2732 0.960 . S
H2719 C2732 0.960 . S
C2720 H2712 0.929 . S
C2720 C2721 1.377 . S
C2720 C2722 1.384 . S
C2721 C2720 1.377 . S
C2721 C2727 1.390 . S
C2722 H2713 0.930 . S
C2722 C2720 1.384 . S
C2722 C2723 1.372 . S
C2723 C2722 1.372 . S
C2723 C2724 1.400 . S
C2723 C2728 1.490 . S
C2724 H2714 0.930 . S
C2724 C2723 1.400 . S
C2724 C2727 1.386 . S
H2725 C2741 0.930 . S
H2726 C2742 0.931 . S
C2727 H2715 0.929 . S
C2727 C2721 1.390 . S
C2727 C2724 1.386 . S
C2728 C2723 1.490 . S
C2728 C2730 1.395 . S
C2728 C2731 1.403 . S
H2729 C2735 0.930 . S
C2730 H2716 0.930 . S
C2730 C2728 1.395 . S
C2730 C2733 1.403 . S
C2731 C2728 1.403 . S
C2731 C2732 1.524 . S
C2731 C2735 1.400 . S
C2732 H2717 0.960 . S
C2732 H2718 0.960 . S
C2732 H2719 0.960 . S
C2732 C2731 1.524 . S
C2733 C2730 1.403 . S
C2733 C2734 1.392 . S
C2733 C2737 1.495 . S
C2734 C2733 1.392 . S
C2734 C2735 1.385 . S
C2734 C2736 1.478 . S
C2735 H2729 0.930 . S
C2735 C2731 1.400 . S
C2735 C2734 1.385 . S
C2736 C2734 1.478 . S
C2736 C2738 1.381 . S
C2736 C2742 1.383 . S
C2737 C2733 1.495 . S
C2737 H2743 0.959 . S
C2737 H2744 0.961 . S
C2737 H2745 0.960 . S
C2738 C2736 1.381 . S
C2738 C2739 1.394 . S
C2738 H2746 0.930 . S
C2739 C2738 1.394 . S
C2739 C2740 1.383 . S
C2739 H2747 0.929 . S
C2740 C2739 1.383 . S
C2740 C2741 1.377 . S
C2741 H2725 0.930 . S
C2741 C2740 1.377 . S
C2741 C2742 1.379 . S
C2742 H2726 0.931 . S
C2742 C2736 1.383 . S
C2742 C2741 1.379 . S
H2743 C2737 0.959 . S
H2744 C2737 0.961 . S
H2745 C2737 0.960 . S
H2746 C2738 0.930 . S
H2747 C2739 0.929 . S
H2748 C2756 0.929 . S
H2749 C2758 0.930 . S
H2750 C2760 0.930 . S
H2751 C2763 0.929 . S
H2752 C2766 0.930 . S
H2753 C2768 0.960 . S
H2754 C2768 0.960 . S
H2755 C2768 0.960 . S
C2756 H2748 0.929 . S
C2756 C2757 1.377 . S
C2756 C2758 1.384 . S
C2757 C2756 1.377 . S
C2757 C2763 1.390 . S
C2758 H2749 0.930 . S
C2758 C2756 1.384 . S
C2758 C2759 1.372 . S
C2759 C2758 1.372 . S
C2759 C2760 1.400 . S
C2759 C2764 1.490 . S
C2760 H2750 0.930 . S
C2760 C2759 1.400 . S
C2760 C2763 1.386 . S
H2761 C2777 0.930 . S
H2762 C2778 0.931 . S
C2763 H2751 0.929 . S
C2763 C2757 1.390 . S
C2763 C2760 1.386 . S
C2764 C2759 1.490 . S
C2764 C2766 1.395 . S
C2764 C2767 1.403 . S
H2765 C2771 0.930 . S
C2766 H2752 0.930 . S
C2766 C2764 1.395 . S
C2766 C2769 1.403 . S
C2767 C2764 1.403 . S
C2767 C2768 1.524 . S
C2767 C2771 1.400 . S
C2768 H2753 0.960 . S
C2768 H2754 0.960 . S
C2768 H2755 0.960 . S
C2768 C2767 1.524 . S
C2769 C2766 1.403 . S
C2769 C2770 1.392 . S
C2769 C2773 1.495 . S
C2770 C2769 1.392 . S
C2770 C2771 1.385 . S
C2770 C2772 1.478 . S
C2771 H2765 0.930 . S
C2771 C2767 1.400 . S
C2771 C2770 1.385 . S
C2772 C2770 1.478 . S
C2772 C2774 1.381 . S
C2772 C2778 1.383 . S
C2773 C2769 1.495 . S
C2773 H2779 0.959 . S
C2773 H2780 0.961 . S
C2773 H2781 0.960 . S
C2774 C2772 1.381 . S
C2774 C2775 1.394 . S
C2774 H2782 0.930 . S
C2775 C2774 1.394 . S
C2775 C2776 1.383 . S
C2775 H2783 0.929 . S
C2776 C2775 1.383 . S
C2776 C2777 1.377 . S
C2777 H2761 0.930 . S
C2777 C2776 1.377 . S
C2777 C2778 1.379 . S
C2778 H2762 0.931 . S
C2778 C2772 1.383 . S
C2778 C2777 1.379 . S
H2779 C2773 0.959 . S
H2780 C2773 0.961 . S
H2781 C2773 0.960 . S
H2782 C2774 0.930 . S
H2783 C2775 0.929 . S
H2784 C2792 0.929 . S
H2785 C2794 0.930 . S
H2786 C2796 0.930 . S
H2787 C2799 0.929 . S
H2788 C2802 0.930 . S
H2789 C2804 0.960 . S
H2790 C2804 0.960 . S
H2791 C2804 0.960 . S
C2792 H2784 0.929 . S
C2792 C2793 1.377 . S
C2792 C2794 1.384 . S
C2793 C2792 1.377 . S
C2793 C2799 1.390 . S
C2794 H2785 0.930 . S
C2794 C2792 1.384 . S
C2794 C2795 1.372 . S
C2795 C2794 1.372 . S
C2795 C2796 1.400 . S
C2795 C2800 1.490 . S
C2796 H2786 0.930 . S
C2796 C2795 1.400 . S
C2796 C2799 1.386 . S
H2797 C2813 0.930 . S
H2798 C2814 0.931 . S
C2799 H2787 0.929 . S
C2799 C2793 1.390 . S
C2799 C2796 1.386 . S
C2800 C2795 1.490 . S
C2800 C2802 1.395 . S
C2800 C2803 1.403 . S
H2801 C2807 0.930 . S
C2802 H2788 0.930 . S
C2802 C2800 1.395 . S
C2802 C2805 1.403 . S
C2803 C2800 1.403 . S
C2803 C2804 1.524 . S
C2803 C2807 1.400 . S
C2804 H2789 0.960 . S
C2804 H2790 0.960 . S
C2804 H2791 0.960 . S
C2804 C2803 1.524 . S
C2805 C2802 1.403 . S
C2805 C2806 1.392 . S
C2805 C2809 1.495 . S
C2806 C2805 1.392 . S
C2806 C2807 1.385 . S
C2806 C2808 1.478 . S
C2807 H2801 0.930 . S
C2807 C2803 1.400 . S
C2807 C2806 1.385 . S
C2808 C2806 1.478 . S
C2808 C2810 1.381 . S
C2808 C2814 1.383 . S
C2809 C2805 1.495 . S
C2809 H2815 0.959 . S
C2809 H2816 0.961 . S
C2809 H2817 0.960 . S
C2810 C2808 1.381 . S
C2810 C2811 1.394 . S
C2810 H2818 0.930 . S
C2811 C2810 1.394 . S
C2811 C2812 1.383 . S
C2811 H2819 0.929 . S
C2812 C2811 1.383 . S
C2812 C2813 1.377 . S
C2813 H2797 0.930 . S
C2813 C2812 1.377 . S
C2813 C2814 1.379 . S
C2814 H2798 0.931 . S
C2814 C2808 1.383 . S
C2814 C2813 1.379 . S
H2815 C2809 0.959 . S
H2816 C2809 0.961 . S
H2817 C2809 0.960 . S
H2818 C2810 0.930 . S
H2819 C2811 0.929 . S
H2820 C2828 0.929 . S
H2821 C2830 0.930 . S
H2822 C2832 0.949 . S
H2823 C2835 0.952 . S
H2824 C2838 0.930 . S
H2825 C2840 0.960 . S
H2826 C2840 0.960 . S
H2827 C2840 0.960 . S
C2828 H2820 0.929 . S
C2828 C2829 1.377 . S
C2828 C2830 1.384 . S
C2829 C2828 1.377 . S
C2829 C2835 1.390 . S
C2830 H2821 0.930 . S
C2830 C2828 1.384 . S
C2830 C2831 1.372 . S
C2831 C2830 1.372 . S
C2831 C2832 1.389 1_455 S
C2831 C2836 1.523 . S
C2832 H2822 0.949 . S
C2832 C2831 1.389 1_655 S
C2832 C2835 1.377 1_655 S
H2833 C2849 0.930 . S
H2834 C2850 0.931 . S
C2835 H2823 0.952 . S
C2835 C2829 1.390 . S
C2835 C2832 1.377 1_455 S
C2836 C2831 1.523 . S
C2836 C2838 1.421 . S
C2836 C2839 1.348 1_455 S
H2837 C2843 0.930 . S
C2838 H2824 0.930 . S
C2838 C2836 1.421 . S
C2838 C2841 1.400 . S
C2839 C2836 1.348 1_655 S
C2839 C2840 1.524 . S
C2839 C2843 1.400 . S
C2840 H2825 0.960 . S
C2840 H2826 0.960 . S
C2840 H2827 0.960 . S
C2840 C2839 1.524 . S
C2841 C2838 1.400 . S
C2841 C2842 1.399 1_455 S
C2841 C2845 1.492 . S
C2842 C2841 1.399 1_655 S
C2842 C2843 1.385 . S
C2842 C2844 1.478 . S
C2843 H2837 0.930 . S
C2843 C2839 1.400 . S
C2843 C2842 1.385 . S
C2844 C2842 1.478 . S
C2844 C2846 1.381 . S
C2844 C2850 1.383 . S
C2845 C2841 1.492 . S
C2845 H2851 0.959 . S
C2845 H2852 0.961 1_455 S
C2845 H2853 0.960 . S
C2846 C2844 1.381 . S
C2846 C2847 1.394 . S
C2846 H2854 0.930 . S
C2847 C2846 1.394 . S
C2847 C2848 1.383 . S
C2847 H2855 0.929 . S
C2848 C2847 1.383 . S
C2848 C2849 1.377 . S
C2849 H2833 0.930 . S
C2849 C2848 1.377 . S
C2849 C2850 1.379 . S
C2850 H2834 0.931 . S
C2850 C2844 1.383 . S
C2850 C2849 1.379 . S
H2851 C2845 0.959 . S
H2852 C2845 0.961 1_655 S
H2853 C2845 0.960 . S
H2854 C2846 0.930 . S
H2855 C2847 0.929 . S
H2856 C2864 0.913 1_565 S
H2857 C2866 0.930 . S
H2858 C2868 0.930 . S
H2859 C2871 0.929 . S
H2860 C2874 0.930 . S
H2861 C2876 0.960 . S
H2862 C2876 0.960 . S
H2863 C2876 0.960 . S
C2864 H2856 0.913 1_545 S
C2864 C2865 1.377 . S
C2864 C2866 1.384 . S
C2865 C2864 1.377 . S
C2865 C2871 1.390 . S
C2866 H2857 0.930 . S
C2866 C2864 1.384 . S
C2866 C2867 1.372 . S
C2867 C2866 1.372 . S
C2867 C2868 1.400 . S
C2867 C2872 1.490 . S
C2868 H2858 0.930 . S
C2868 C2867 1.400 . S
C2868 C2871 1.386 . S
H2869 C2885 0.930 . S
H2870 C2886 0.931 . S
C2871 H2859 0.929 . S
C2871 C2865 1.390 . S
C2871 C2868 1.386 . S
C2872 C2867 1.490 . S
C2872 C2874 1.395 . S
C2872 C2875 1.403 . S
H2873 C2879 0.930 . S
C2874 H2860 0.930 . S
C2874 C2872 1.395 . S
C2874 C2877 1.403 . S
C2875 C2872 1.403 . S
C2875 C2876 1.524 . S
C2875 C2879 1.400 . S
C2876 H2861 0.960 . S
C2876 H2862 0.960 . S
C2876 H2863 0.960 . S
C2876 C2875 1.524 . S
C2877 C2874 1.403 . S
C2877 C2878 1.392 . S
C2877 C2881 1.495 . S
C2878 C2877 1.392 . S
C2878 C2879 1.385 . S
C2878 C2880 1.478 . S
C2879 H2873 0.930 . S
C2879 C2875 1.400 . S
C2879 C2878 1.385 . S
C2880 C2878 1.478 . S
C2880 C2882 1.381 . S
C2880 C2886 1.383 . S
C2881 C2877 1.495 . S
C2881 H2887 0.959 . S
C2881 H2888 0.961 . S
C2881 H2889 0.960 . S
C2882 C2880 1.381 . S
C2882 C2883 1.394 . S
C2882 H2890 0.930 . S
C2883 C2882 1.394 . S
C2883 C2884 1.383 . S
C2883 H2891 0.929 . S
C2884 C2883 1.383 . S
C2884 C2885 1.377 . S
C2885 H2869 0.930 . S
C2885 C2884 1.377 . S
C2885 C2886 1.379 . S
C2886 H2870 0.931 . S
C2886 C2880 1.383 . S
C2886 C2885 1.379 . S
H2887 C2881 0.959 . S
H2888 C2881 0.961 . S
H2889 C2881 0.960 . S
H2890 C2882 0.930 . S
H2891 C2883 0.929 . S
H2892 C2900 0.929 . S
H2893 C2902 0.930 . S
H2894 C2904 0.930 1_655 S
H2895 C2907 0.929 . S
H2896 C2910 0.930 . S
H2897 C2912 0.960 . S
H2898 C2912 0.960 . S
H2899 C2912 0.960 . S
C2900 H2892 0.929 . S
C2900 C2901 1.377 . S
C2900 C2902 1.384 . S
C2901 C2900 1.377 . S
C2901 C2907 1.390 . S
C2902 H2893 0.930 . S
C2902 C2900 1.384 . S
C2902 C2903 1.372 . S
C2903 C2902 1.372 . S
C2903 C2904 1.400 . S
C2903 C2908 1.495 . S
C2904 H2894 0.930 1_455 S
C2904 C2903 1.400 . S
C2904 C2907 1.386 . S
H2905 C2921 0.930 . S
H2906 C2922 0.931 . S
C2907 H2895 0.929 . S
C2907 C2901 1.390 . S
C2907 C2904 1.386 . S
C2908 C2903 1.495 . S
C2908 C2910 1.389 1_455 S
C2908 C2911 1.404 . S
H2909 C2915 0.930 . S
C2910 H2896 0.930 . S
C2910 C2908 1.389 1_655 S
C2910 C2913 1.403 . S
C2911 C2908 1.404 . S
C2911 C2912 1.524 . S
C2911 C2915 1.400 1_455 S
C2912 H2897 0.960 . S
C2912 H2898 0.960 . S
C2912 H2899 0.960 . S
C2912 C2911 1.524 . S
C2913 C2910 1.403 . S
C2913 C2914 1.392 . S
C2913 C2917 1.495 . S
C2914 C2913 1.392 . S
C2914 C2915 1.385 . S
C2914 C2916 1.478 . S
C2915 H2909 0.930 . S
C2915 C2911 1.400 1_655 S
C2915 C2914 1.385 . S
C2916 C2914 1.478 . S
C2916 C2918 1.381 . S
C2916 C2922 1.383 . S
C2917 C2913 1.495 . S
C2917 H2923 0.959 . S
C2917 H2924 0.961 . S
C2917 H2925 0.960 . S
C2918 C2916 1.381 . S
C2918 C2919 1.394 . S
C2918 H2926 0.930 . S
C2919 C2918 1.394 . S
C2919 C2920 1.383 . S
C2919 H2927 0.929 . S
C2920 C2919 1.383 . S
C2920 C2921 1.377 . S
C2921 H2905 0.930 . S
C2921 C2920 1.377 . S
C2921 C2922 1.379 . S
C2922 H2906 0.931 . S
C2922 C2916 1.383 . S
C2922 C2921 1.379 . S
H2923 C2917 0.959 . S
H2924 C2917 0.961 . S
H2925 C2917 0.960 . S
H2926 C2918 0.930 . S
H2927 C2919 0.929 . S
H2928 C2936 0.929 . S
H2929 C2938 0.930 . S
H2930 C2940 0.930 . S
H2931 C2943 0.929 . S
H2932 C2946 0.930 . S
H2933 C2948 0.960 . S
H2934 C2948 0.960 . S
H2935 C2948 0.960 . S
C2936 H2928 0.929 . S
C2936 C2937 1.377 . S
C2936 C2938 1.384 . S
C2937 C2936 1.377 . S
C2937 C2943 1.390 . S
C2938 H2929 0.930 . S
C2938 C2936 1.384 . S
C2938 C2939 1.372 . S
C2939 C2938 1.372 . S
C2939 C2940 1.400 . S
C2939 C2944 1.490 . S
C2940 H2930 0.930 . S
C2940 C2939 1.400 . S
C2940 C2943 1.386 . S
H2941 C2957 0.930 . S
H2942 C2958 0.931 . S
C2943 H2931 0.929 . S
C2943 C2937 1.390 . S
C2943 C2940 1.386 . S
C2944 C2939 1.490 . S
C2944 C2946 1.395 . S
C2944 C2947 1.403 . S
H2945 C2951 0.930 . S
C2946 H2932 0.930 . S
C2946 C2944 1.395 . S
C2946 C2949 1.403 . S
C2947 C2944 1.403 . S
C2947 C2948 1.524 . S
C2947 C2951 1.400 . S
C2948 H2933 0.960 . S
C2948 H2934 0.960 . S
C2948 H2935 0.960 . S
C2948 C2947 1.524 . S
C2949 C2946 1.403 . S
C2949 C2950 1.392 . S
C2949 C2953 1.495 . S
C2950 C2949 1.392 . S
C2950 C2951 1.385 . S
C2950 C2952 1.478 . S
C2951 H2945 0.930 . S
C2951 C2947 1.400 . S
C2951 C2950 1.385 . S
C2952 C2950 1.478 . S
C2952 C2954 1.381 . S
C2952 C2958 1.383 . S
C2953 C2949 1.495 . S
C2953 H2959 0.959 . S
C2953 H2960 0.961 . S
C2953 H2961 0.960 . S
C2954 C2952 1.381 . S
C2954 C2955 1.394 . S
C2954 H2962 0.930 . S
C2955 C2954 1.394 . S
C2955 C2956 1.383 . S
C2955 H2963 0.929 . S
C2956 C2955 1.383 . S
C2956 C2957 1.377 . S
C2957 H2941 0.930 . S
C2957 C2956 1.377 . S
C2957 C2958 1.379 . S
C2958 H2942 0.931 . S
C2958 C2952 1.383 . S
C2958 C2957 1.379 . S
H2959 C2953 0.959 . S
H2960 C2953 0.961 . S
H2961 C2953 0.960 . S
H2962 C2954 0.930 . S
H2963 C2955 0.929 . S
H2964 C2972 0.907 1_545 S
H2965 C2974 0.930 . S
H2966 C2976 0.930 . S
H2967 C2979 0.929 . S
H2968 C2982 0.930 . S
H2969 C2984 0.960 1_655 S
H2970 C2984 0.960 1_655 S
H2971 C2984 0.960 . S
C2972 H2964 0.907 1_565 S
C2972 C2973 1.377 . S
C2972 C2974 1.384 . S
C2973 C2972 1.377 . S
C2973 C2979 1.390 . S
C2974 H2965 0.930 . S
C2974 C2972 1.384 . S
C2974 C2975 1.372 . S
C2975 C2974 1.372 . S
C2975 C2976 1.400 . S
C2975 C2980 1.490 . S
C2976 H2966 0.930 . S
C2976 C2975 1.400 . S
C2976 C2979 1.386 . S
H2977 C2993 0.930 . S
H2978 C2994 0.931 1_455 S
C2979 H2967 0.929 . S
C2979 C2973 1.390 . S
C2979 C2976 1.386 . S
C2980 C2975 1.490 . S
C2980 C2982 1.395 . S
C2980 C2983 1.403 . S
H2981 C2987 0.989 . S
C2982 H2968 0.930 . S
C2982 C2980 1.395 . S
C2982 C2985 1.403 . S
C2983 C2980 1.403 . S
C2983 C2984 1.524 . S
C2983 C2987 1.363 1_455 S
C2984 H2969 0.960 1_455 S
C2984 H2970 0.960 1_455 S
C2984 H2971 0.960 . S
C2984 C2983 1.524 . S
C2985 C2982 1.403 . S
C2985 C2986 1.418 . S
C2985 C2989 1.495 . S
C2986 C2985 1.418 . S
C2986 C2987 1.375 1_455 S
C2986 C2988 1.458 1_455 S
C2987 H2981 0.989 . S
C2987 C2983 1.363 1_655 S
C2987 C2986 1.375 1_655 S
C2988 C2986 1.458 1_655 S
C2988 C2990 1.381 . S
C2988 C2994 1.383 . S
C2989 C2985 1.495 . S
C2989 H2995 0.959 . S
C2989 H2996 0.961 . S
C2989 H2997 0.960 . S
C2990 C2988 1.381 . S
C2990 C2991 1.394 . S
C2990 H2998 0.930 . S
C2991 C2990 1.394 . S
C2991 C2992 1.383 . S
C2991 H2999 0.929 . S
C2992 C2991 1.383 . S
C2992 C2993 1.377 . S
C2993 H2977 0.930 . S
C2993 C2992 1.377 . S
C2993 C2994 1.379 . S
C2994 H2978 0.931 1_655 S
C2994 C2988 1.383 . S
C2994 C2993 1.379 . S
H2995 C2989 0.959 . S
H2996 C2989 0.961 . S
H2997 C2989 0.960 . S
H2998 C2990 0.930 . S
H2999 C2991 0.929 . S
H3000 C3008 0.929 . S
H3001 C3010 0.930 . S
H3002 C3012 0.930 . S
H3003 C3015 0.929 . S
H3004 C3018 0.930 . S
H3005 C3020 0.960 . S
H3006 C3020 0.960 . S
H3007 C3020 0.960 . S
C3008 H3000 0.929 . S
C3008 C3009 1.377 . S
C3008 C3010 1.384 . S
C3009 C3008 1.377 . S
C3009 C3015 1.390 . S
C3010 H3001 0.930 . S
C3010 C3008 1.384 . S
C3010 C3011 1.372 . S
C3011 C3010 1.372 . S
C3011 C3012 1.400 . S
C3011 C3016 1.490 . S
C3012 H3002 0.930 . S
C3012 C3011 1.400 . S
C3012 C3015 1.386 . S
H3013 C3029 0.930 . S
H3014 C3030 0.931 . S
C3015 H3003 0.929 . S
C3015 C3009 1.390 . S
C3015 C3012 1.386 . S
C3016 C3011 1.490 . S
C3016 C3018 1.395 . S
C3016 C3019 1.403 . S
H3017 C3023 0.930 . S
C3018 H3004 0.930 . S
C3018 C3016 1.395 . S
C3018 C3021 1.403 . S
C3019 C3016 1.403 . S
C3019 C3020 1.524 . S
C3019 C3023 1.400 . S
C3020 H3005 0.960 . S
C3020 H3006 0.960 . S
C3020 H3007 0.960 . S
C3020 C3019 1.524 . S
C3021 C3018 1.403 . S
C3021 C3022 1.392 . S
C3021 C3025 1.495 . S
C3022 C3021 1.392 . S
C3022 C3023 1.385 . S
C3022 C3024 1.478 . S
C3023 H3017 0.930 . S
C3023 C3019 1.400 . S
C3023 C3022 1.385 . S
C3024 C3022 1.478 . S
C3024 C3026 1.381 . S
C3024 C3030 1.383 . S
C3025 C3021 1.495 . S
C3025 H3031 0.959 . S
C3025 H3032 0.961 . S
C3025 H3033 0.960 . S
C3026 C3024 1.381 . S
C3026 C3027 1.394 . S
C3026 H3034 0.930 . S
C3027 C3026 1.394 . S
C3027 C3028 1.383 . S
C3027 H3035 0.961 . S
C3028 C3027 1.383 . S
C3028 C3029 1.377 . S
C3029 H3013 0.930 . S
C3029 C3028 1.377 . S
C3029 C3030 1.379 . S
C3030 H3014 0.931 . S
C3030 C3024 1.383 . S
C3030 C3029 1.379 . S
H3031 C3025 0.959 . S
H3032 C3025 0.961 . S
H3033 C3025 0.960 . S
H3034 C3026 0.930 . S
H3035 C3027 0.961 . S
H3036 C3044 0.929 . S
H3037 C3046 0.930 . S
H3038 C3048 0.930 . S
H3039 C3051 0.929 . S
H3040 C3054 0.930 . S
H3041 C3056 0.960 . S
H3042 C3056 0.960 . S
H3043 C3056 0.960 . S
C3044 H3036 0.929 . S
C3044 C3045 1.377 . S
C3044 C3046 1.384 . S
C3045 C3044 1.377 . S
C3045 C3051 1.390 . S
C3046 H3037 0.930 . S
C3046 C3044 1.384 . S
C3046 C3047 1.372 . S
C3047 C3046 1.372 . S
C3047 C3048 1.400 . S
C3047 C3052 1.490 . S
C3048 H3038 0.930 . S
C3048 C3047 1.400 . S
C3048 C3051 1.386 . S
H3049 C3065 0.930 . S
H3050 C3066 0.931 . S
C3051 H3039 0.929 . S
C3051 C3045 1.390 . S
C3051 C3048 1.386 . S
C3052 C3047 1.490 . S
C3052 C3054 1.395 . S
C3052 C3055 1.403 . S
H3053 C3059 0.930 1_655 S
C3054 H3040 0.930 . S
C3054 C3052 1.395 . S
C3054 C3057 1.403 . S
C3055 C3052 1.403 . S
C3055 C3056 1.524 . S
C3055 C3059 1.400 . S
C3056 H3041 0.960 . S
C3056 H3042 0.960 . S
C3056 H3043 0.960 . S
C3056 C3055 1.524 . S
C3057 C3054 1.403 . S
C3057 C3058 1.418 . S
C3057 C3061 1.495 . S
C3058 C3057 1.418 . S
C3058 C3059 1.390 . S
C3058 C3060 1.450 1_455 S
C3059 H3053 0.930 1_455 S
C3059 C3055 1.400 . S
C3059 C3058 1.390 . S
C3060 C3058 1.450 1_655 S
C3060 C3062 1.347 1_655 S
C3060 C3066 1.383 . S
C3061 C3057 1.495 . S
C3061 H3067 0.959 . S
C3061 H3068 0.961 1_455 S
C3061 H3069 0.960 . S
C3062 C3060 1.347 1_455 S
C3062 C3063 1.364 1_455 S
C3062 H3070 0.999 . S
C3063 C3062 1.364 1_655 S
C3063 C3064 1.383 . S
C3063 H3071 0.958 . S
C3064 C3063 1.383 . S
C3064 C3065 1.377 . S
C3065 H3049 0.930 . S
C3065 C3064 1.377 . S
C3065 C3066 1.379 . S
C3066 H3050 0.931 . S
C3066 C3060 1.383 . S
C3066 C3065 1.379 . S
H3067 C3061 0.959 . S
H3068 C3061 0.961 1_655 S
H3069 C3061 0.960 . S
H3070 C3062 0.999 . S
H3071 C3063 0.958 . S
H3072 C3080 0.929 . S
H3073 C3082 0.930 . S
H3074 C3084 0.930 . S
H3075 C3087 0.929 . S
H3076 C3090 0.930 . S
H3077 C3092 0.960 . S
H3078 C3092 0.960 . S
H3079 C3092 0.960 . S
C3080 H3072 0.929 . S
C3080 C3081 1.377 . S
C3080 C3082 1.384 . S
C3081 C3080 1.377 . S
C3081 C3087 1.390 . S
C3082 H3073 0.930 . S
C3082 C3080 1.384 . S
C3082 C3083 1.372 . S
C3083 C3082 1.372 . S
C3083 C3084 1.400 . S
C3083 C3088 1.490 . S
C3084 H3074 0.930 . S
C3084 C3083 1.400 . S
C3084 C3087 1.386 . S
H3085 C3101 0.930 . S
H3086 C3102 0.931 . S
C3087 H3075 0.929 . S
C3087 C3081 1.390 . S
C3087 C3084 1.386 . S
C3088 C3083 1.490 . S
C3088 C3090 1.395 . S
C3088 C3091 1.403 . S
H3089 C3095 0.930 . S
C3090 H3076 0.930 . S
C3090 C3088 1.395 . S
C3090 C3093 1.403 . S
C3091 C3088 1.403 . S
C3091 C3092 1.524 . S
C3091 C3095 1.400 . S
C3092 H3077 0.960 . S
C3092 H3078 0.960 . S
C3092 H3079 0.960 . S
C3092 C3091 1.524 . S
C3093 C3090 1.403 . S
C3093 C3094 1.392 . S
C3093 C3097 1.495 . S
C3094 C3093 1.392 . S
C3094 C3095 1.385 . S
C3094 C3096 1.478 . S
C3095 H3089 0.930 . S
C3095 C3091 1.400 . S
C3095 C3094 1.385 . S
C3096 C3094 1.478 . S
C3096 C3098 1.381 . S
C3096 C3102 1.383 . S
C3097 C3093 1.495 . S
C3097 H3103 0.959 . S
C3097 H3104 0.961 . S
C3097 H3105 0.960 . S
C3098 C3096 1.381 . S
C3098 C3099 1.394 . S
C3098 H3106 0.930 . S
C3099 C3098 1.394 . S
C3099 C3100 1.383 . S
C3099 H3107 0.929 . S
C3100 C3099 1.383 . S
C3100 C3101 1.377 . S
C3101 H3085 0.930 . S
C3101 C3100 1.377 . S
C3101 C3102 1.379 . S
C3102 H3086 0.931 . S
C3102 C3096 1.383 . S
C3102 C3101 1.379 . S
H3103 C3097 0.959 . S
H3104 C3097 0.961 . S
H3105 C3097 0.960 . S
H3106 C3098 0.930 . S
H3107 C3099 0.929 . S
H3108 C3116 0.933 . S
H3109 C3118 0.930 . S
H3110 C3120 0.930 . S
H3111 C3123 0.929 . S
H3112 C3126 0.930 . S
H3113 C3128 0.960 . S
H3114 C3128 0.960 . S
H3115 C3128 0.960 . S
C3116 H3108 0.933 . S
C3116 C3117 1.377 . S
C3116 C3118 1.384 1_455 S
C3117 C3116 1.377 . S
C3117 C3123 1.390 . S
C3118 H3109 0.930 . S
C3118 C3116 1.384 1_655 S
C3118 C3119 1.372 1_655 S
C3119 C3118 1.372 1_455 S
C3119 C3120 1.400 . S
C3119 C3124 1.455 1_455 S
C3120 H3110 0.930 . S
C3120 C3119 1.400 . S
C3120 C3123 1.386 . S
H3121 C3137 0.930 . S
H3122 C3138 0.931 . S
C3123 H3111 0.929 . S
C3123 C3117 1.390 . S
C3123 C3120 1.386 . S
C3124 C3119 1.455 1_655 S
C3124 C3126 1.440 . S
C3124 C3127 1.399 1_655 S
H3125 C3131 0.930 . S
C3126 H3112 0.930 . S
C3126 C3124 1.440 . S
C3126 C3129 1.403 . S
C3127 C3124 1.399 1_455 S
C3127 C3128 1.525 . S
C3127 C3131 1.398 1_455 S
C3128 H3113 0.960 . S
C3128 H3114 0.960 . S
C3128 H3115 0.960 . S
C3128 C3127 1.525 . S
C3129 C3126 1.403 . S
C3129 C3130 1.392 . S
C3129 C3133 1.495 . S
C3130 C3129 1.392 . S
C3130 C3131 1.385 . S
C3130 C3132 1.478 . S
C3131 H3125 0.930 . S
C3131 C3127 1.398 1_655 S
C3131 C3130 1.385 . S
C3132 C3130 1.478 . S
C3132 C3134 1.381 . S
C3132 C3138 1.383 . S
C3133 C3129 1.495 . S
C3133 H3139 0.959 . S
C3133 H3140 0.961 . S
C3133 H3141 0.960 . S
C3134 C3132 1.381 . S
C3134 C3135 1.394 . S
C3134 H3142 0.930 . S
C3135 C3134 1.394 . S
C3135 C3136 1.383 . S
C3135 H3143 0.929 . S
C3136 C3135 1.383 . S
C3136 C3137 1.377 . S
C3137 H3121 0.930 . S
C3137 C3136 1.377 . S
C3137 C3138 1.379 . S
C3138 H3122 0.931 . S
C3138 C3132 1.383 . S
C3138 C3137 1.379 . S
H3139 C3133 0.959 . S
H3140 C3133 0.961 . S
H3141 C3133 0.960 . S
H3142 C3134 0.930 . S
H3143 C3135 0.929 . S
H3144 C3152 0.929 . S
H3145 C3154 0.930 . S
H3146 C3156 0.930 . S
H3147 C3159 0.929 . S
H3148 C3162 0.930 . S
H3149 C3164 0.960 . S
H3150 C3164 0.960 . S
H3151 C3164 0.960 . S
C3152 H3144 0.929 . S
C3152 C3153 1.377 . S
C3152 C3154 1.384 . S
C3153 C3152 1.377 . S
C3153 C3159 1.390 . S
C3154 H3145 0.930 . S
C3154 C3152 1.384 . S
C3154 C3155 1.372 . S
C3155 C3154 1.372 . S
C3155 C3156 1.400 . S
C3155 C3160 1.490 . S
C3156 H3146 0.930 . S
C3156 C3155 1.400 . S
C3156 C3159 1.386 . S
H3157 C3173 0.930 . S
H3158 C3174 0.931 . S
C3159 H3147 0.929 . S
C3159 C3153 1.390 . S
C3159 C3156 1.386 . S
C3160 C3155 1.490 . S
C3160 C3162 1.395 . S
C3160 C3163 1.403 . S
H3161 C3167 0.930 . S
C3162 H3148 0.930 . S
C3162 C3160 1.395 . S
C3162 C3165 1.403 . S
C3163 C3160 1.403 . S
C3163 C3164 1.524 . S
C3163 C3167 1.400 . S
C3164 H3149 0.960 . S
C3164 H3150 0.960 . S
C3164 H3151 0.960 . S
C3164 C3163 1.524 . S
C3165 C3162 1.403 . S
C3165 C3166 1.392 . S
C3165 C3169 1.495 . S
C3166 C3165 1.392 . S
C3166 C3167 1.385 . S
C3166 C3168 1.478 . S
C3167 H3161 0.930 . S
C3167 C3163 1.400 . S
C3167 C3166 1.385 . S
C3168 C3166 1.478 . S
C3168 C3170 1.381 . S
C3168 C3174 1.383 . S
C3169 C3165 1.495 . S
C3169 H3175 0.959 . S
C3169 H3176 0.961 . S
C3169 H3177 0.960 . S
C3170 C3168 1.381 . S
C3170 C3171 1.394 . S
C3170 H3178 0.930 . S
C3171 C3170 1.394 . S
C3171 C3172 1.383 . S
C3171 H3179 0.929 . S
C3172 C3171 1.383 . S
C3172 C3173 1.377 . S
C3173 H3157 0.930 . S
C3173 C3172 1.377 . S
C3173 C3174 1.379 . S
C3174 H3158 0.931 . S
C3174 C3168 1.383 . S
C3174 C3173 1.379 . S
H3175 C3169 0.959 . S
H3176 C3169 0.961 . S
H3177 C3169 0.960 . S
H3178 C3170 0.930 . S
H3179 C3171 0.929 . S
H3180 C3188 0.929 . S
H3181 C3190 0.930 . S
H3182 C3192 0.930 . S
H3183 C3195 0.929 . S
H3184 C3198 0.930 . S
H3185 C3200 0.960 . S
H3186 C3200 0.960 . S
H3187 C3200 0.960 . S
C3188 H3180 0.929 . S
C3188 C3189 1.377 . S
C3188 C3190 1.384 . S
C3189 C3188 1.377 . S
C3189 C3195 1.390 . S
C3190 H3181 0.930 . S
C3190 C3188 1.384 . S
C3190 C3191 1.372 . S
C3191 C3190 1.372 . S
C3191 C3192 1.400 . S
C3191 C3196 1.490 . S
C3192 H3182 0.930 . S
C3192 C3191 1.400 . S
C3192 C3195 1.386 . S
H3193 C3209 0.930 . S
H3194 C3210 0.931 . S
C3195 H3183 0.929 . S
C3195 C3189 1.390 . S
C3195 C3192 1.386 . S
C3196 C3191 1.490 . S
C3196 C3198 1.395 1_655 S
C3196 C3199 1.403 . S
H3197 C3203 0.930 . S
C3198 H3184 0.930 . S
C3198 C3196 1.395 1_455 S
C3198 C3201 1.403 . S
C3199 C3196 1.403 . S
C3199 C3200 1.524 . S
C3199 C3203 1.400 . S
C3200 H3185 0.960 . S
C3200 H3186 0.960 . S
C3200 H3187 0.960 . S
C3200 C3199 1.524 . S
C3201 C3198 1.403 . S
C3201 C3202 1.392 . S
C3201 C3205 1.495 . S
C3202 C3201 1.392 . S
C3202 C3203 1.385 1_455 S
C3202 C3204 1.478 . S
C3203 H3197 0.930 . S
C3203 C3199 1.400 . S
C3203 C3202 1.385 1_655 S
C3204 C3202 1.478 . S
C3204 C3206 1.381 . S
C3204 C3210 1.383 . S
C3205 C3201 1.495 . S
C3205 H3211 0.959 . S
C3205 H3212 0.961 . S
C3205 H3213 0.960 . S
C3206 C3204 1.381 . S
C3206 C3207 1.394 . S
C3206 H3214 0.930 . S
C3207 C3206 1.394 . S
C3207 C3208 1.383 . S
C3207 H3215 0.929 . S
C3208 C3207 1.383 . S
C3208 C3209 1.377 . S
C3209 H3193 0.930 . S
C3209 C3208 1.377 . S
C3209 C3210 1.379 . S
C3210 H3194 0.931 . S
C3210 C3204 1.383 . S
C3210 C3209 1.379 . S
H3211 C3205 0.959 . S
H3212 C3205 0.961 . S
H3213 C3205 0.960 . S
H3214 C3206 0.930 . S
H3215 C3207 0.929 . S
H3216 C3224 0.929 . S
H3217 C3226 0.930 . S
H3218 C3228 0.930 . S
H3219 C3231 0.929 . S
H3220 C3234 0.930 . S
H3221 C3236 0.960 . S
H3222 C3236 0.960 . S
H3223 C3236 0.960 . S
C3224 H3216 0.929 . S
C3224 C3225 1.377 . S
C3224 C3226 1.384 . S
C3225 C3224 1.377 . S
C3225 C3231 1.390 . S
C3226 H3217 0.930 . S
C3226 C3224 1.384 . S
C3226 C3227 1.372 . S
C3227 C3226 1.372 . S
C3227 C3228 1.400 . S
C3227 C3232 1.490 . S
C3228 H3218 0.930 . S
C3228 C3227 1.400 . S
C3228 C3231 1.386 . S
H3229 C3245 0.930 . S
H3230 C3246 0.931 . S
C3231 H3219 0.929 . S
C3231 C3225 1.390 . S
C3231 C3228 1.386 . S
C3232 C3227 1.490 . S
C3232 C3234 1.395 . S
C3232 C3235 1.403 . S
H3233 C3239 0.930 . S
C3234 H3220 0.930 . S
C3234 C3232 1.395 . S
C3234 C3237 1.403 . S
C3235 C3232 1.403 . S
C3235 C3236 1.524 . S
C3235 C3239 1.400 . S
C3236 H3221 0.960 . S
C3236 H3222 0.960 . S
C3236 H3223 0.960 . S
C3236 C3235 1.524 . S
C3237 C3234 1.403 . S
C3237 C3238 1.392 . S
C3237 C3241 1.495 . S
C3238 C3237 1.392 . S
C3238 C3239 1.385 . S
C3238 C3240 1.478 . S
C3239 H3233 0.930 . S
C3239 C3235 1.400 . S
C3239 C3238 1.385 . S
C3240 C3238 1.478 . S
C3240 C3242 1.381 . S
C3240 C3246 1.383 . S
C3241 C3237 1.495 . S
C3241 H3247 0.959 . S
C3241 H3248 0.961 . S
C3241 H3249 0.960 . S
C3242 C3240 1.381 . S
C3242 C3243 1.394 . S
C3242 H3250 0.930 . S
C3243 C3242 1.394 . S
C3243 C3244 1.383 . S
C3243 H3251 0.929 . S
C3244 C3243 1.383 . S
C3244 C3245 1.377 . S
C3245 H3229 0.930 . S
C3245 C3244 1.377 . S
C3245 C3246 1.379 . S
C3246 H3230 0.931 . S
C3246 C3240 1.383 . S
C3246 C3245 1.379 . S
H3247 C3241 0.959 . S
H3248 C3241 0.961 . S
H3249 C3241 0.960 . S
H3250 C3242 0.930 . S
H3251 C3243 0.929 . S
H3252 C3260 0.929 . S
H3253 C3262 0.930 . S
H3254 C3264 0.930 . S
H3255 C3267 0.929 . S
H3256 C3270 0.930 . S
H3257 C3272 0.960 . S
H3258 C3272 0.960 1_455 S
H3259 C3272 0.960 . S
C3260 H3252 0.929 . S
C3260 C3261 1.377 . S
C3260 C3262 1.384 . S
C3261 C3260 1.377 . S
C3261 C3267 1.390 . S
C3262 H3253 0.930 . S
C3262 C3260 1.384 . S
C3262 C3263 1.372 . S
C3263 C3262 1.372 . S
C3263 C3264 1.400 . S
C3263 C3268 1.490 . S
C3264 H3254 0.930 . S
C3264 C3263 1.400 . S
C3264 C3267 1.386 . S
H3265 C3281 0.930 . S
H3266 C3282 0.931 . S
C3267 H3255 0.929 . S
C3267 C3261 1.390 . S
C3267 C3264 1.386 . S
C3268 C3263 1.490 . S
C3268 C3270 1.395 . S
C3268 C3271 1.403 . S
H3269 C3275 0.930 . S
C3270 H3256 0.930 . S
C3270 C3268 1.395 . S
C3270 C3273 1.403 . S
C3271 C3268 1.403 . S
C3271 C3272 1.524 1_455 S
C3271 C3275 1.400 1_455 S
C3272 H3257 0.960 . S
C3272 H3258 0.960 1_655 S
C3272 H3259 0.960 . S
C3272 C3271 1.524 1_655 S
C3273 C3270 1.403 . S
C3273 C3274 1.392 . S
C3273 C3277 1.495 . S
C3274 C3273 1.392 . S
C3274 C3275 1.385 1_455 S
C3274 C3276 1.478 1_455 S
C3275 H3269 0.930 . S
C3275 C3271 1.400 1_655 S
C3275 C3274 1.385 1_655 S
C3276 C3274 1.478 1_655 S
C3276 C3278 1.344 1_655 S
C3276 C3282 1.383 . S
C3277 C3273 1.495 . S
C3277 H3283 0.959 . S
C3277 H3284 0.961 . S
C3277 H3285 0.960 . S
C3278 C3276 1.344 1_455 S
C3278 C3279 1.351 1_455 S
C3278 H3286 1.018 . S
C3279 C3278 1.351 1_655 S
C3279 C3280 1.383 . S
C3279 H3287 0.929 . S
C3280 C3279 1.383 . S
C3280 C3281 1.377 . S
C3281 H3265 0.930 . S
C3281 C3280 1.377 . S
C3281 C3282 1.379 . S
C3282 H3266 0.931 . S
C3282 C3276 1.383 . S
C3282 C3281 1.379 . S
H3283 C3277 0.959 . S
H3284 C3277 0.961 . S
H3285 C3277 0.960 . S
H3286 C3278 1.018 . S
H3287 C3279 0.929 . S
H3288 C3296 0.929 . S
H3289 C3298 0.930 . S
H3290 C3300 0.930 . S
H3291 C3303 0.929 . S
H3292 C3306 0.930 . S
H3293 C3308 0.960 . S
H3294 C3308 0.960 . S
H3295 C3308 0.960 . S
C3296 H3288 0.929 . S
C3296 C3297 1.377 . S
C3296 C3298 1.384 . S
C3297 C3296 1.377 . S
C3297 C3303 1.390 . S
C3298 H3289 0.930 . S
C3298 C3296 1.384 . S
C3298 C3299 1.372 . S
C3299 C3298 1.372 . S
C3299 C3300 1.400 . S
C3299 C3304 1.490 . S
C3300 H3290 0.930 . S
C3300 C3299 1.400 . S
C3300 C3303 1.386 . S
H3301 C3317 0.930 . S
H3302 C3318 0.931 . S
C3303 H3291 0.929 . S
C3303 C3297 1.390 . S
C3303 C3300 1.386 . S
C3304 C3299 1.490 . S
C3304 C3306 1.395 . S
C3304 C3307 1.403 . S
H3305 C3311 0.930 . S
C3306 H3292 0.930 . S
C3306 C3304 1.395 . S
C3306 C3309 1.403 . S
C3307 C3304 1.403 . S
C3307 C3308 1.524 . S
C3307 C3311 1.400 . S
C3308 H3293 0.960 . S
C3308 H3294 0.960 . S
C3308 H3295 0.960 . S
C3308 C3307 1.524 . S
C3309 C3306 1.403 . S
C3309 C3310 1.392 . S
C3309 C3313 1.495 . S
C3310 C3309 1.392 . S
C3310 C3311 1.385 . S
C3310 C3312 1.478 . S
C3311 H3305 0.930 . S
C3311 C3307 1.400 . S
C3311 C3310 1.385 . S
C3312 C3310 1.478 . S
C3312 C3314 1.381 . S
C3312 C3318 1.383 . S
C3313 C3309 1.495 . S
C3313 H3319 0.959 . S
C3313 H3320 0.961 . S
C3313 H3321 0.960 . S
C3314 C3312 1.381 . S
C3314 C3315 1.394 . S
C3314 H3322 0.930 . S
C3315 C3314 1.394 . S
C3315 C3316 1.383 . S
C3315 H3323 0.929 . S
C3316 C3315 1.383 . S
C3316 C3317 1.377 . S
C3317 H3301 0.930 . S
C3317 C3316 1.377 . S
C3317 C3318 1.379 . S
C3318 H3302 0.931 . S
C3318 C3312 1.383 . S
C3318 C3317 1.379 . S
H3319 C3313 0.959 . S
H3320 C3313 0.961 . S
H3321 C3313 0.960 . S
H3322 C3314 0.930 . S
H3323 C3315 0.929 . S
H3324 C3332 0.929 . S
H3325 C3334 0.930 . S
H3326 C3336 0.930 . S
H3327 C3339 0.929 . S
H3328 C3342 0.930 . S
H3329 C3344 0.960 . S
H3330 C3344 0.960 . S
H3331 C3344 0.960 . S
C3332 H3324 0.929 . S
C3332 C3333 1.377 . S
C3332 C3334 1.384 . S
C3333 C3332 1.377 . S
C3333 C3339 1.390 . S
C3334 H3325 0.930 . S
C3334 C3332 1.384 . S
C3334 C3335 1.372 . S
C3335 C3334 1.372 . S
C3335 C3336 1.400 . S
C3335 C3340 1.489 . S
C3336 H3326 0.930 . S
C3336 C3335 1.400 . S
C3336 C3339 1.386 . S
H3337 C3353 0.930 . S
H3338 C3354 0.931 . S
C3339 H3327 0.929 . S
C3339 C3333 1.390 . S
C3339 C3336 1.386 . S
C3340 C3335 1.489 . S
C3340 C3342 1.394 . S
C3340 C3343 1.404 1_655 S
H3341 C3347 0.930 . S
C3342 H3328 0.930 . S
C3342 C3340 1.394 . S
C3342 C3345 1.441 . S
C3343 C3340 1.404 1_455 S
C3343 C3344 1.524 . S
C3343 C3347 1.400 . S
C3344 H3329 0.960 . S
C3344 H3330 0.960 . S
C3344 H3331 0.960 . S
C3344 C3343 1.524 . S
C3345 C3342 1.441 . S
C3345 C3346 1.315 1_655 S
C3345 C3349 1.542 . S
C3346 C3345 1.315 1_455 S
C3346 C3347 1.385 . S
C3346 C3348 1.478 . S
C3347 H3341 0.930 . S
C3347 C3343 1.400 . S
C3347 C3346 1.385 . S
C3348 C3346 1.478 . S
C3348 C3350 1.381 . S
C3348 C3354 1.383 . S
C3349 C3345 1.542 . S
C3349 H3355 0.959 . S
C3349 H3356 0.961 . S
C3349 H3357 0.960 . S
C3350 C3348 1.381 . S
C3350 C3351 1.394 . S
C3350 H3358 0.930 . S
C3351 C3350 1.394 . S
C3351 C3352 1.383 . S
C3351 H3359 0.929 . S
C3352 C3351 1.383 . S
C3352 C3353 1.377 . S
C3353 H3337 0.930 . S
C3353 C3352 1.377 . S
C3353 C3354 1.379 . S
C3354 H3338 0.931 . S
C3354 C3348 1.383 . S
C3354 C3353 1.379 . S
H3355 C3349 0.959 . S
H3356 C3349 0.961 . S
H3357 C3349 0.960 . S
H3358 C3350 0.930 . S
H3359 C3351 0.929 . S
H3360 C3368 0.929 . S
H3361 C3370 0.930 . S
H3362 C3372 0.930 . S
H3363 C3375 0.929 . S
H3364 C3378 0.930 . S
H3365 C3380 0.960 . S
H3366 C3380 0.960 . S
H3367 C3380 0.960 . S
C3368 H3360 0.929 . S
C3368 C3369 1.377 . S
C3368 C3370 1.384 . S
C3369 C3368 1.377 . S
C3369 C3375 1.390 . S
C3370 H3361 0.930 . S
C3370 C3368 1.384 . S
C3370 C3371 1.372 . S
C3371 C3370 1.372 . S
C3371 C3372 1.400 . S
C3371 C3376 1.490 . S
C3372 H3362 0.930 . S
C3372 C3371 1.400 . S
C3372 C3375 1.386 . S
H3373 C3389 0.930 . S
H3374 C3390 0.931 . S
C3375 H3363 0.929 . S
C3375 C3369 1.390 . S
C3375 C3372 1.386 . S
C3376 C3371 1.490 . S
C3376 C3378 1.395 . S
C3376 C3379 1.403 . S
H3377 C3383 0.930 . S
C3378 H3364 0.930 . S
C3378 C3376 1.395 . S
C3378 C3381 1.403 . S
C3379 C3376 1.403 . S
C3379 C3380 1.524 . S
C3379 C3383 1.400 . S
C3380 H3365 0.960 . S
C3380 H3366 0.960 . S
C3380 H3367 0.960 . S
C3380 C3379 1.524 . S
C3381 C3378 1.403 . S
C3381 C3382 1.392 . S
C3381 C3385 1.495 . S
C3382 C3381 1.392 . S
C3382 C3383 1.385 . S
C3382 C3384 1.478 . S
C3383 H3377 0.930 . S
C3383 C3379 1.400 . S
C3383 C3382 1.385 . S
C3384 C3382 1.478 . S
C3384 C3386 1.381 . S
C3384 C3390 1.383 . S
C3385 C3381 1.495 . S
C3385 H3391 0.959 . S
C3385 H3392 0.961 . S
C3385 H3393 0.960 . S
C3386 C3384 1.381 . S
C3386 C3387 1.394 . S
C3386 H3394 0.930 . S
C3387 C3386 1.394 . S
C3387 C3388 1.383 . S
C3387 H3395 0.929 . S
C3388 C3387 1.383 . S
C3388 C3389 1.377 . S
C3389 H3373 0.930 . S
C3389 C3388 1.377 . S
C3389 C3390 1.379 . S
C3390 H3374 0.931 . S
C3390 C3384 1.383 . S
C3390 C3389 1.379 . S
H3391 C3385 0.959 . S
H3392 C3385 0.961 . S
H3393 C3385 0.960 . S
H3394 C3386 0.930 . S
H3395 C3387 0.929 . S
H3396 C3404 0.929 . S
H3397 C3406 0.930 . S
H3398 C3408 0.930 . S
H3399 C3411 0.936 . S
H3400 C3414 0.930 . S
H3401 C3416 0.960 . S
H3402 C3416 0.960 . S
H3403 C3416 0.960 . S
C3404 H3396 0.929 . S
C3404 C3405 1.377 . S
C3404 C3406 1.384 . S
C3405 C3404 1.377 . S
C3405 C3411 1.390 . S
C3406 H3397 0.930 . S
C3406 C3404 1.384 . S
C3406 C3407 1.372 . S
C3407 C3406 1.372 . S
C3407 C3408 1.400 . S
C3407 C3412 1.490 . S
C3408 H3398 0.930 . S
C3408 C3407 1.400 . S
C3408 C3411 1.386 . S
H3409 C3425 0.930 . S
H3410 C3426 0.931 . S
C3411 H3399 0.936 . S
C3411 C3405 1.390 . S
C3411 C3408 1.386 . S
C3412 C3407 1.490 . S
C3412 C3414 1.395 . S
C3412 C3415 1.403 . S
H3413 C3419 0.930 . S
C3414 H3400 0.930 . S
C3414 C3412 1.395 . S
C3414 C3417 1.403 . S
C3415 C3412 1.403 . S
C3415 C3416 1.524 . S
C3415 C3419 1.400 . S
C3416 H3401 0.960 . S
C3416 H3402 0.960 . S
C3416 H3403 0.960 . S
C3416 C3415 1.524 . S
C3417 C3414 1.403 . S
C3417 C3418 1.392 . S
C3417 C3421 1.495 . S
C3418 C3417 1.392 . S
C3418 C3419 1.385 . S
C3418 C3420 1.478 . S
C3419 H3413 0.930 . S
C3419 C3415 1.400 . S
C3419 C3418 1.385 . S
C3420 C3418 1.478 . S
C3420 C3422 1.381 . S
C3420 C3426 1.383 . S
C3421 C3417 1.495 . S
C3421 H3427 0.959 . S
C3421 H3428 0.961 . S
C3421 H3429 0.960 . S
C3422 C3420 1.381 . S
C3422 C3423 1.394 . S
C3422 H3430 0.930 . S
C3423 C3422 1.394 . S
C3423 C3424 1.383 . S
C3423 H3431 0.929 . S
C3424 C3423 1.383 . S
C3424 C3425 1.377 . S
C3425 H3409 0.930 . S
C3425 C3424 1.377 . S
C3425 C3426 1.379 . S
C3426 H3410 0.931 . S
C3426 C3420 1.383 . S
C3426 C3425 1.379 . S
H3427 C3421 0.959 . S
H3428 C3421 0.961 . S
H3429 C3421 0.960 . S
H3430 C3422 0.930 . S
H3431 C3423 0.929 . S
H3432 C3440 0.929 . S
H3433 C3442 0.930 . S
H3434 C3444 0.930 . S
H3435 C3447 0.929 . S
H3436 C3450 0.930 . S
H3437 C3452 0.960 . S
H3438 C3452 0.960 . S
H3439 C3452 0.960 . S
C3440 H3432 0.929 . S
C3440 C3441 1.377 . S
C3440 C3442 1.384 . S
C3441 C3440 1.377 . S
C3441 C3447 1.390 . S
C3442 H3433 0.930 . S
C3442 C3440 1.384 . S
C3442 C3443 1.372 . S
C3443 C3442 1.372 . S
C3443 C3444 1.400 . S
C3443 C3448 1.490 . S
C3444 H3434 0.930 . S
C3444 C3443 1.400 . S
C3444 C3447 1.386 . S
H3445 C3461 0.930 . S
H3446 C3462 0.931 . S
C3447 H3435 0.929 . S
C3447 C3441 1.390 . S
C3447 C3444 1.386 . S
C3448 C3443 1.490 . S
C3448 C3450 1.395 . S
C3448 C3451 1.403 . S
H3449 C3455 0.930 . S
C3450 H3436 0.930 . S
C3450 C3448 1.395 . S
C3450 C3453 1.403 . S
C3451 C3448 1.403 . S
C3451 C3452 1.524 . S
C3451 C3455 1.400 . S
C3452 H3437 0.960 . S
C3452 H3438 0.960 . S
C3452 H3439 0.960 . S
C3452 C3451 1.524 . S
C3453 C3450 1.403 . S
C3453 C3454 1.392 . S
C3453 C3457 1.495 . S
C3454 C3453 1.392 . S
C3454 C3455 1.385 . S
C3454 C3456 1.478 . S
C3455 H3449 0.930 . S
C3455 C3451 1.400 . S
C3455 C3454 1.385 . S
C3456 C3454 1.478 . S
C3456 C3458 1.381 . S
C3456 C3462 1.383 . S
C3457 C3453 1.495 . S
C3457 H3463 0.959 . S
C3457 H3464 0.961 . S
C3457 H3465 0.960 . S
C3458 C3456 1.381 . S
C3458 C3459 1.394 . S
C3458 H3466 0.930 . S
C3459 C3458 1.394 . S
C3459 C3460 1.383 . S
C3459 H3467 0.929 . S
C3460 C3459 1.383 . S
C3460 C3461 1.377 . S
C3461 H3445 0.930 . S
C3461 C3460 1.377 . S
C3461 C3462 1.379 . S
C3462 H3446 0.931 . S
C3462 C3456 1.383 . S
C3462 C3461 1.379 . S
H3463 C3457 0.959 . S
H3464 C3457 0.961 . S
H3465 C3457 0.960 . S
H3466 C3458 0.930 . S
H3467 C3459 0.929 . S
H3468 C3476 0.929 . S
H3469 C3478 0.930 . S
H3470 C3480 0.930 . S
H3471 C3483 0.929 . S
H3472 C3486 0.930 . S
H3473 C3488 0.960 . S
H3474 C3488 0.960 . S
H3475 C3488 0.960 . S
C3476 H3468 0.929 . S
C3476 C3477 1.377 . S
C3476 C3478 1.384 . S
C3477 C3476 1.377 . S
C3477 C3483 1.390 . S
C3478 H3469 0.930 . S
C3478 C3476 1.384 . S
C3478 C3479 1.372 . S
C3479 C3478 1.372 . S
C3479 C3480 1.400 . S
C3479 C3484 1.490 . S
C3480 H3470 0.930 . S
C3480 C3479 1.400 . S
C3480 C3483 1.386 . S
H3481 C3497 0.930 . S
H3482 C3498 0.931 . S
C3483 H3471 0.929 . S
C3483 C3477 1.390 . S
C3483 C3480 1.386 . S
C3484 C3479 1.490 . S
C3484 C3486 1.395 . S
C3484 C3487 1.403 . S
H3485 C3491 0.930 . S
C3486 H3472 0.930 . S
C3486 C3484 1.395 . S
C3486 C3489 1.403 . S
C3487 C3484 1.403 . S
C3487 C3488 1.524 . S
C3487 C3491 1.400 . S
C3488 H3473 0.960 . S
C3488 H3474 0.960 . S
C3488 H3475 0.960 . S
C3488 C3487 1.524 . S
C3489 C3486 1.403 . S
C3489 C3490 1.392 . S
C3489 C3493 1.495 . S
C3490 C3489 1.392 . S
C3490 C3491 1.385 . S
C3490 C3492 1.478 . S
C3491 H3485 0.930 . S
C3491 C3487 1.400 . S
C3491 C3490 1.385 . S
C3492 C3490 1.478 . S
C3492 C3494 1.381 . S
C3492 C3498 1.383 . S
C3493 C3489 1.495 . S
C3493 H3499 0.959 . S
C3493 H3500 0.961 . S
C3493 H3501 0.960 . S
C3494 C3492 1.381 . S
C3494 C3495 1.394 . S
C3494 H3502 0.930 . S
C3495 C3494 1.394 . S
C3495 C3496 1.383 . S
C3495 H3503 0.929 . S
C3496 C3495 1.383 . S
C3496 C3497 1.377 . S
C3497 H3481 0.930 . S
C3497 C3496 1.377 . S
C3497 C3498 1.379 . S
C3498 H3482 0.931 . S
C3498 C3492 1.383 . S
C3498 C3497 1.379 . S
H3499 C3493 0.959 . S
H3500 C3493 0.961 . S
H3501 C3493 0.960 . S
H3502 C3494 0.930 . S
H3503 C3495 0.929 . S
H3504 C3512 0.929 . S
H3505 C3514 0.930 . S
H3506 C3516 0.930 . S
H3507 C3519 0.929 . S
H3508 C3522 0.930 . S
H3509 C3524 0.960 . S
H3510 C3524 0.960 . S
H3511 C3524 0.960 . S
C3512 H3504 0.929 . S
C3512 C3513 1.377 . S
C3512 C3514 1.384 . S
C3513 C3512 1.377 . S
C3513 C3519 1.390 . S
C3514 H3505 0.930 . S
C3514 C3512 1.384 . S
C3514 C3515 1.372 . S
C3515 C3514 1.372 . S
C3515 C3516 1.400 . S
C3515 C3520 1.490 . S
C3516 H3506 0.930 . S
C3516 C3515 1.400 . S
C3516 C3519 1.386 . S
H3517 C3533 0.930 . S
H3518 C3534 0.931 . S
C3519 H3507 0.929 . S
C3519 C3513 1.390 . S
C3519 C3516 1.386 . S
C3520 C3515 1.490 . S
C3520 C3522 1.395 . S
C3520 C3523 1.403 . S
H3521 C3527 0.930 . S
C3522 H3508 0.930 . S
C3522 C3520 1.395 . S
C3522 C3525 1.403 . S
C3523 C3520 1.403 . S
C3523 C3524 1.524 . S
C3523 C3527 1.400 . S
C3524 H3509 0.960 . S
C3524 H3510 0.960 . S
C3524 H3511 0.960 . S
C3524 C3523 1.524 . S
C3525 C3522 1.403 . S
C3525 C3526 1.392 . S
C3525 C3529 1.495 . S
C3526 C3525 1.392 . S
C3526 C3527 1.385 . S
C3526 C3528 1.478 . S
C3527 H3521 0.930 . S
C3527 C3523 1.400 . S
C3527 C3526 1.385 . S
C3528 C3526 1.478 . S
C3528 C3530 1.381 . S
C3528 C3534 1.383 . S
C3529 C3525 1.495 . S
C3529 H3535 0.959 . S
C3529 H3536 0.961 . S
C3529 H3537 0.960 . S
C3530 C3528 1.381 . S
C3530 C3531 1.394 . S
C3530 H3538 0.930 . S
C3531 C3530 1.394 . S
C3531 C3532 1.383 . S
C3531 H3539 0.929 . S
C3532 C3531 1.383 . S
C3532 C3533 1.377 . S
C3533 H3517 0.930 . S
C3533 C3532 1.377 . S
C3533 C3534 1.379 . S
C3534 H3518 0.931 . S
C3534 C3528 1.383 . S
C3534 C3533 1.379 . S
H3535 C3529 0.959 . S
H3536 C3529 0.961 . S
H3537 C3529 0.960 . S
H3538 C3530 0.930 . S
H3539 C3531 0.929 . S
H3540 C3548 0.929 . S
H3541 C3550 0.930 . S
H3542 C3552 0.930 . S
H3543 C3555 0.929 . S
H3544 C3558 0.930 . S
H3545 C3560 0.960 . S
H3546 C3560 0.960 . S
H3547 C3560 0.960 . S
C3548 H3540 0.929 . S
C3548 C3549 1.377 . S
C3548 C3550 1.384 . S
C3549 C3548 1.377 . S
C3549 C3555 1.390 . S
C3550 H3541 0.930 . S
C3550 C3548 1.384 . S
C3550 C3551 1.372 . S
C3551 C3550 1.372 . S
C3551 C3552 1.400 . S
C3551 C3556 1.490 . S
C3552 H3542 0.930 . S
C3552 C3551 1.400 . S
C3552 C3555 1.386 . S
H3553 C3569 0.930 . S
H3554 C3570 0.931 . S
C3555 H3543 0.929 . S
C3555 C3549 1.390 . S
C3555 C3552 1.386 . S
C3556 C3551 1.490 . S
C3556 C3558 1.395 . S
C3556 C3559 1.403 . S
H3557 C3563 0.930 . S
C3558 H3544 0.930 . S
C3558 C3556 1.395 . S
C3558 C3561 1.403 . S
C3559 C3556 1.403 . S
C3559 C3560 1.524 . S
C3559 C3563 1.400 . S
C3560 H3545 0.960 . S
C3560 H3546 0.960 . S
C3560 H3547 0.960 . S
C3560 C3559 1.524 . S
C3561 C3558 1.403 . S
C3561 C3562 1.392 . S
C3561 C3565 1.495 . S
C3562 C3561 1.392 . S
C3562 C3563 1.385 . S
C3562 C3564 1.478 . S
C3563 H3557 0.930 . S
C3563 C3559 1.400 . S
C3563 C3562 1.385 . S
C3564 C3562 1.478 . S
C3564 C3566 1.381 . S
C3564 C3570 1.383 . S
C3565 C3561 1.495 . S
C3565 H3571 0.959 . S
C3565 H3572 0.961 . S
C3565 H3573 0.960 . S
C3566 C3564 1.381 . S
C3566 C3567 1.394 . S
C3566 H3574 0.930 . S
C3567 C3566 1.394 . S
C3567 C3568 1.383 . S
C3567 H3575 0.929 . S
C3568 C3567 1.383 . S
C3568 C3569 1.377 . S
C3569 H3553 0.930 . S
C3569 C3568 1.377 . S
C3569 C3570 1.379 . S
C3570 H3554 0.931 . S
C3570 C3564 1.383 . S
C3570 C3569 1.379 . S
H3571 C3565 0.959 . S
H3572 C3565 0.961 . S
H3573 C3565 0.960 . S
H3574 C3566 0.930 . S
H3575 C3567 0.929 . S
H3576 C3584 0.929 . S
H3577 C3586 0.930 . S
H3578 C3588 0.930 . S
H3579 C3591 0.929 . S
H3580 C3594 0.930 . S
H3581 C3596 0.960 . S
H3582 C3596 0.960 . S
H3583 C3596 0.960 . S
C3584 H3576 0.929 . S
C3584 C3585 1.377 . S
C3584 C3586 1.384 . S
C3585 C3584 1.377 . S
C3585 C3591 1.390 . S
C3586 H3577 0.930 . S
C3586 C3584 1.384 . S
C3586 C3587 1.372 . S
C3587 C3586 1.372 . S
C3587 C3588 1.400 . S
C3587 C3592 1.490 . S
C3588 H3578 0.930 . S
C3588 C3587 1.400 . S
C3588 C3591 1.386 . S
H3589 C3605 0.930 . S
H3590 C3606 0.931 . S
C3591 H3579 0.929 . S
C3591 C3585 1.390 . S
C3591 C3588 1.386 . S
C3592 C3587 1.490 . S
C3592 C3594 1.395 . S
C3592 C3595 1.403 . S
H3593 C3599 0.930 . S
C3594 H3580 0.930 . S
C3594 C3592 1.395 . S
C3594 C3597 1.403 . S
C3595 C3592 1.403 . S
C3595 C3596 1.524 . S
C3595 C3599 1.400 . S
C3596 H3581 0.960 . S
C3596 H3582 0.960 . S
C3596 H3583 0.960 . S
C3596 C3595 1.524 . S
C3597 C3594 1.403 . S
C3597 C3598 1.392 . S
C3597 C3601 1.495 . S
C3598 C3597 1.392 . S
C3598 C3599 1.385 . S
C3598 C3600 1.478 . S
C3599 H3593 0.930 . S
C3599 C3595 1.400 . S
C3599 C3598 1.385 . S
C3600 C3598 1.478 . S
C3600 C3602 1.381 . S
C3600 C3606 1.383 . S
C3601 C3597 1.495 . S
C3601 H3607 0.959 . S
C3601 H3608 0.961 . S
C3601 H3609 0.960 . S
C3602 C3600 1.381 . S
C3602 C3603 1.394 . S
C3602 H3610 0.930 . S
C3603 C3602 1.394 . S
C3603 C3604 1.383 . S
C3603 H3611 0.929 . S
C3604 C3603 1.383 . S
C3604 C3605 1.377 . S
C3605 H3589 0.930 . S
C3605 C3604 1.377 . S
C3605 C3606 1.379 . S
C3606 H3590 0.931 . S
C3606 C3600 1.383 . S
C3606 C3605 1.379 . S
H3607 C3601 0.959 . S
H3608 C3601 0.961 . S
H3609 C3601 0.960 . S
H3610 C3602 0.930 . S
H3611 C3603 0.929 . S
H3612 C3620 0.929 . S
H3613 C3622 0.930 . S
H3614 C3624 0.930 . S
H3615 C3627 0.929 . S
H3616 C3630 0.930 . S
H3617 C3632 0.960 . S
H3618 C3632 0.960 . S
H3619 C3632 0.960 . S
C3620 H3612 0.929 . S
C3620 C3621 1.377 . S
C3620 C3622 1.384 . S
C3621 C3620 1.377 . S
C3621 C3627 1.390 . S
C3622 H3613 0.930 . S
C3622 C3620 1.384 . S
C3622 C3623 1.372 . S
C3623 C3622 1.372 . S
C3623 C3624 1.400 . S
C3623 C3628 1.490 . S
C3624 H3614 0.930 . S
C3624 C3623 1.400 . S
C3624 C3627 1.386 . S
H3625 C3641 0.930 . S
H3626 C3642 0.931 . S
C3627 H3615 0.929 . S
C3627 C3621 1.390 . S
C3627 C3624 1.386 . S
C3628 C3623 1.490 . S
C3628 C3630 1.395 . S
C3628 C3631 1.403 . S
H3629 C3635 0.930 . S
C3630 H3616 0.930 . S
C3630 C3628 1.395 . S
C3630 C3633 1.403 . S
C3631 C3628 1.403 . S
C3631 C3632 1.524 . S
C3631 C3635 1.400 . S
C3632 H3617 0.960 . S
C3632 H3618 0.960 . S
C3632 H3619 0.960 . S
C3632 C3631 1.524 . S
C3633 C3630 1.403 . S
C3633 C3634 1.392 . S
C3633 C3637 1.495 . S
C3634 C3633 1.392 . S
C3634 C3635 1.385 . S
C3634 C3636 1.478 . S
C3635 H3629 0.930 . S
C3635 C3631 1.400 . S
C3635 C3634 1.385 . S
C3636 C3634 1.478 . S
C3636 C3638 1.381 . S
C3636 C3642 1.383 . S
C3637 C3633 1.495 . S
C3637 H3643 0.959 . S
C3637 H3644 0.961 . S
C3637 H3645 0.960 . S
C3638 C3636 1.381 . S
C3638 C3639 1.394 . S
C3638 H3646 0.930 . S
C3639 C3638 1.394 . S
C3639 C3640 1.383 . S
C3639 H3647 0.929 . S
C3640 C3639 1.383 . S
C3640 C3641 1.377 . S
C3641 H3625 0.930 . S
C3641 C3640 1.377 . S
C3641 C3642 1.379 . S
C3642 H3626 0.931 . S
C3642 C3636 1.383 . S
C3642 C3641 1.379 . S
H3643 C3637 0.959 . S
H3644 C3637 0.961 . S
H3645 C3637 0.960 . S
H3646 C3638 0.930 . S
H3647 C3639 0.929 . S
H3648 C3656 0.929 . S
H3649 C3658 0.930 . S
H3650 C3660 0.930 . S
H3651 C3663 0.929 . S
H3652 C3666 0.930 . S
H3653 C3668 0.960 . S
H3654 C3668 0.960 . S
H3655 C3668 0.960 . S
C3656 H3648 0.929 . S
C3656 C3657 1.377 . S
C3656 C3658 1.384 . S
C3657 C3656 1.377 . S
C3657 C3663 1.390 . S
C3658 H3649 0.930 . S
C3658 C3656 1.384 . S
C3658 C3659 1.372 . S
C3659 C3658 1.372 . S
C3659 C3660 1.400 . S
C3659 C3664 1.490 . S
C3660 H3650 0.930 . S
C3660 C3659 1.400 . S
C3660 C3663 1.386 . S
H3661 C3677 0.930 . S
H3662 C3678 0.931 . S
C3663 H3651 0.929 . S
C3663 C3657 1.390 . S
C3663 C3660 1.386 . S
C3664 C3659 1.490 . S
C3664 C3666 1.395 . S
C3664 C3667 1.403 . S
H3665 C3671 0.930 . S
C3666 H3652 0.930 . S
C3666 C3664 1.395 . S
C3666 C3669 1.403 . S
C3667 C3664 1.403 . S
C3667 C3668 1.524 . S
C3667 C3671 1.400 . S
C3668 H3653 0.960 . S
C3668 H3654 0.960 . S
C3668 H3655 0.960 . S
C3668 C3667 1.524 . S
C3669 C3666 1.403 . S
C3669 C3670 1.392 . S
C3669 C3673 1.495 . S
C3670 C3669 1.392 . S
C3670 C3671 1.385 . S
C3670 C3672 1.478 . S
C3671 H3665 0.930 . S
C3671 C3667 1.400 . S
C3671 C3670 1.385 . S
C3672 C3670 1.478 . S
C3672 C3674 1.381 . S
C3672 C3678 1.383 . S
C3673 C3669 1.495 . S
C3673 H3679 0.959 . S
C3673 H3680 0.961 . S
C3673 H3681 0.960 . S
C3674 C3672 1.381 . S
C3674 C3675 1.394 . S
C3674 H3682 0.930 . S
C3675 C3674 1.394 . S
C3675 C3676 1.383 . S
C3675 H3683 0.929 . S
C3676 C3675 1.383 . S
C3676 C3677 1.377 . S
C3677 H3661 0.930 . S
C3677 C3676 1.377 . S
C3677 C3678 1.379 . S
C3678 H3662 0.931 . S
C3678 C3672 1.383 . S
C3678 C3677 1.379 . S
H3679 C3673 0.959 . S
H3680 C3673 0.961 . S
H3681 C3673 0.960 . S
H3682 C3674 0.930 . S
H3683 C3675 0.929 . S
H3684 C3692 0.929 . S
H3685 C3694 0.930 . S
H3686 C3696 0.930 . S
H3687 C3699 0.929 . S
H3688 C3702 0.930 . S
H3689 C3704 0.960 . S
H3690 C3704 0.960 . S
H3691 C3704 0.960 . S
C3692 H3684 0.929 . S
C3692 C3693 1.377 . S
C3692 C3694 1.384 . S
C3693 C3692 1.377 . S
C3693 C3699 1.390 . S
C3694 H3685 0.930 . S
C3694 C3692 1.384 . S
C3694 C3695 1.372 . S
C3695 C3694 1.372 . S
C3695 C3696 1.400 . S
C3695 C3700 1.490 . S
C3696 H3686 0.930 . S
C3696 C3695 1.400 . S
C3696 C3699 1.386 . S
H3697 C3713 0.930 . S
H3698 C3714 0.931 . S
C3699 H3687 0.929 . S
C3699 C3693 1.390 . S
C3699 C3696 1.386 . S
C3700 C3695 1.490 . S
C3700 C3702 1.395 . S
C3700 C3703 1.403 . S
H3701 C3707 0.930 . S
C3702 H3688 0.930 . S
C3702 C3700 1.395 . S
C3702 C3705 1.403 . S
C3703 C3700 1.403 . S
C3703 C3704 1.524 . S
C3703 C3707 1.400 . S
C3704 H3689 0.960 . S
C3704 H3690 0.960 . S
C3704 H3691 0.960 . S
C3704 C3703 1.524 . S
C3705 C3702 1.403 . S
C3705 C3706 1.392 . S
C3705 C3709 1.495 . S
C3706 C3705 1.392 . S
C3706 C3707 1.385 . S
C3706 C3708 1.478 . S
C3707 H3701 0.930 . S
C3707 C3703 1.400 . S
C3707 C3706 1.385 . S
C3708 C3706 1.478 . S
C3708 C3710 1.381 . S
C3708 C3714 1.383 . S
C3709 C3705 1.495 . S
C3709 H3715 0.959 . S
C3709 H3716 0.961 . S
C3709 H3717 0.960 . S
C3710 C3708 1.381 . S
C3710 C3711 1.394 . S
C3710 H3718 0.930 . S
C3711 C3710 1.394 . S
C3711 C3712 1.383 . S
C3711 H3719 0.929 . S
C3712 C3711 1.383 . S
C3712 C3713 1.377 . S
C3713 H3697 0.930 . S
C3713 C3712 1.377 . S
C3713 C3714 1.379 . S
C3714 H3698 0.931 . S
C3714 C3708 1.383 . S
C3714 C3713 1.379 . S
H3715 C3709 0.959 . S
H3716 C3709 0.961 . S
H3717 C3709 0.960 . S
H3718 C3710 0.930 . S
H3719 C3711 0.929 . S
H3720 C3728 0.929 . S
H3721 C3730 0.930 . S
H3722 C3732 0.930 . S
H3723 C3735 0.929 . S
H3724 C3738 0.930 . S
H3725 C3740 0.960 . S
H3726 C3740 0.960 . S
H3727 C3740 0.960 . S
C3728 H3720 0.929 . S
C3728 C3729 1.377 . S
C3728 C3730 1.384 . S
C3729 C3728 1.377 . S
C3729 C3735 1.390 . S
C3730 H3721 0.930 . S
C3730 C3728 1.384 . S
C3730 C3731 1.372 . S
C3731 C3730 1.372 . S
C3731 C3732 1.400 . S
C3731 C3736 1.490 . S
C3732 H3722 0.930 . S
C3732 C3731 1.400 . S
C3732 C3735 1.386 . S
H3733 C3749 0.930 . S
H3734 C3750 0.931 . S
C3735 H3723 0.929 . S
C3735 C3729 1.390 . S
C3735 C3732 1.386 . S
C3736 C3731 1.490 . S
C3736 C3738 1.395 . S
C3736 C3739 1.403 . S
H3737 C3743 0.930 . S
C3738 H3724 0.930 . S
C3738 C3736 1.395 . S
C3738 C3741 1.403 . S
C3739 C3736 1.403 . S
C3739 C3740 1.524 . S
C3739 C3743 1.400 . S
C3740 H3725 0.960 . S
C3740 H3726 0.960 . S
C3740 H3727 0.960 . S
C3740 C3739 1.524 . S
C3741 C3738 1.403 . S
C3741 C3742 1.392 . S
C3741 C3745 1.495 . S
C3742 C3741 1.392 . S
C3742 C3743 1.385 . S
C3742 C3744 1.478 . S
C3743 H3737 0.930 . S
C3743 C3739 1.400 . S
C3743 C3742 1.385 . S
C3744 C3742 1.478 . S
C3744 C3746 1.381 . S
C3744 C3750 1.383 . S
C3745 C3741 1.495 . S
C3745 H3751 0.959 . S
C3745 H3752 0.961 . S
C3745 H3753 0.960 . S
C3746 C3744 1.381 . S
C3746 C3747 1.394 . S
C3746 H3754 0.930 . S
C3747 C3746 1.394 . S
C3747 C3748 1.383 . S
C3747 H3755 0.929 . S
C3748 C3747 1.383 . S
C3748 C3749 1.377 . S
C3749 H3733 0.930 . S
C3749 C3748 1.377 . S
C3749 C3750 1.379 . S
C3750 H3734 0.931 . S
C3750 C3744 1.383 . S
C3750 C3749 1.379 . S
H3751 C3745 0.959 . S
H3752 C3745 0.961 . S
H3753 C3745 0.960 . S
H3754 C3746 0.930 . S
H3755 C3747 0.929 . S
H3756 C3764 0.929 . S
H3757 C3766 0.930 . S
H3758 C3768 0.930 . S
H3759 C3771 0.929 . S
H3760 C3774 0.930 . S
H3761 C3776 0.960 . S
H3762 C3776 0.960 . S
H3763 C3776 0.960 . S
C3764 H3756 0.929 . S
C3764 C3765 1.377 . S
C3764 C3766 1.384 . S
C3765 C3764 1.377 . S
C3765 C3771 1.390 . S
C3766 H3757 0.930 . S
C3766 C3764 1.384 . S
C3766 C3767 1.372 . S
C3767 C3766 1.372 . S
C3767 C3768 1.400 . S
C3767 C3772 1.490 . S
C3768 H3758 0.930 . S
C3768 C3767 1.400 . S
C3768 C3771 1.386 . S
H3769 C3785 0.930 . S
H3770 C3786 0.931 . S
C3771 H3759 0.929 . S
C3771 C3765 1.390 . S
C3771 C3768 1.386 . S
C3772 C3767 1.490 . S
C3772 C3774 1.395 . S
C3772 C3775 1.403 . S
H3773 C3779 0.930 . S
C3774 H3760 0.930 . S
C3774 C3772 1.395 . S
C3774 C3777 1.403 . S
C3775 C3772 1.403 . S
C3775 C3776 1.524 . S
C3775 C3779 1.400 . S
C3776 H3761 0.960 . S
C3776 H3762 0.960 . S
C3776 H3763 0.960 . S
C3776 C3775 1.524 . S
C3777 C3774 1.403 . S
C3777 C3778 1.392 . S
C3777 C3781 1.495 . S
C3778 C3777 1.392 . S
C3778 C3779 1.385 . S
C3778 C3780 1.478 . S
C3779 H3773 0.930 . S
C3779 C3775 1.400 . S
C3779 C3778 1.385 . S
C3780 C3778 1.478 . S
C3780 C3782 1.381 . S
C3780 C3786 1.383 . S
C3781 C3777 1.495 . S
C3781 H3787 0.959 . S
C3781 H3788 0.961 . S
C3781 H3789 0.960 . S
C3782 C3780 1.381 . S
C3782 C3783 1.394 . S
C3782 H3790 0.930 . S
C3783 C3782 1.394 . S
C3783 C3784 1.383 . S
C3783 H3791 0.929 . S
C3784 C3783 1.383 . S
C3784 C3785 1.377 . S
C3785 H3769 0.930 . S
C3785 C3784 1.377 . S
C3785 C3786 1.379 . S
C3786 H3770 0.931 . S
C3786 C3780 1.383 . S
C3786 C3785 1.379 . S
H3787 C3781 0.959 . S
H3788 C3781 0.961 . S
H3789 C3781 0.960 . S
H3790 C3782 0.930 . S
H3791 C3783 0.929 . S
H3792 C3800 0.929 . S
H3793 C3802 0.930 . S
H3794 C3804 0.930 . S
H3795 C3807 0.929 . S
H3796 C3810 0.930 . S
H3797 C3812 0.960 . S
H3798 C3812 0.960 . S
H3799 C3812 0.960 . S
C3800 H3792 0.929 . S
C3800 C3801 1.377 . S
C3800 C3802 1.384 . S
C3801 C3800 1.377 . S
C3801 C3807 1.390 . S
C3802 H3793 0.930 . S
C3802 C3800 1.384 . S
C3802 C3803 1.372 . S
C3803 C3802 1.372 . S
C3803 C3804 1.400 . S
C3803 C3808 1.490 . S
C3804 H3794 0.930 . S
C3804 C3803 1.400 . S
C3804 C3807 1.386 . S
H3805 C3821 0.930 . S
H3806 C3822 0.931 . S
C3807 H3795 0.929 . S
C3807 C3801 1.390 . S
C3807 C3804 1.386 . S
C3808 C3803 1.490 . S
C3808 C3810 1.395 . S
C3808 C3811 1.403 . S
H3809 C3815 0.930 . S
C3810 H3796 0.930 . S
C3810 C3808 1.395 . S
C3810 C3813 1.403 . S
C3811 C3808 1.403 . S
C3811 C3812 1.524 . S
C3811 C3815 1.400 . S
C3812 H3797 0.960 . S
C3812 H3798 0.960 . S
C3812 H3799 0.960 . S
C3812 C3811 1.524 . S
C3813 C3810 1.403 . S
C3813 C3814 1.392 . S
C3813 C3817 1.495 . S
C3814 C3813 1.392 . S
C3814 C3815 1.385 . S
C3814 C3816 1.478 . S
C3815 H3809 0.930 . S
C3815 C3811 1.400 . S
C3815 C3814 1.385 . S
C3816 C3814 1.478 . S
C3816 C3818 1.381 . S
C3816 C3822 1.383 . S
C3817 C3813 1.495 . S
C3817 H3823 0.959 . S
C3817 H3824 0.961 . S
C3817 H3825 0.960 . S
C3818 C3816 1.381 . S
C3818 C3819 1.394 . S
C3818 H3826 0.930 . S
C3819 C3818 1.394 . S
C3819 C3820 1.383 . S
C3819 H3827 0.929 . S
C3820 C3819 1.383 . S
C3820 C3821 1.377 . S
C3821 H3805 0.930 . S
C3821 C3820 1.377 . S
C3821 C3822 1.379 . S
C3822 H3806 0.931 . S
C3822 C3816 1.383 . S
C3822 C3821 1.379 . S
H3823 C3817 0.959 . S
H3824 C3817 0.961 . S
H3825 C3817 0.960 . S
H3826 C3818 0.930 . S
H3827 C3819 0.929 . S
H3828 C3836 0.929 . S
H3829 C3838 0.930 . S
H3830 C3840 0.930 . S
H3831 C3843 0.929 . S
H3832 C3846 0.930 . S
H3833 C3848 0.960 . S
H3834 C3848 0.960 . S
H3835 C3848 0.960 . S
C3836 H3828 0.929 . S
C3836 C3837 1.377 . S
C3836 C3838 1.384 . S
C3837 C3836 1.377 . S
C3837 C3843 1.390 . S
C3838 H3829 0.930 . S
C3838 C3836 1.384 . S
C3838 C3839 1.372 . S
C3839 C3838 1.372 . S
C3839 C3840 1.400 . S
C3839 C3844 1.490 . S
C3840 H3830 0.930 . S
C3840 C3839 1.400 . S
C3840 C3843 1.386 . S
H3841 C3857 0.930 . S
H3842 C3858 0.931 . S
C3843 H3831 0.929 . S
C3843 C3837 1.390 . S
C3843 C3840 1.386 . S
C3844 C3839 1.490 . S
C3844 C3846 1.395 . S
C3844 C3847 1.403 . S
H3845 C3851 0.930 . S
C3846 H3832 0.930 . S
C3846 C3844 1.395 . S
C3846 C3849 1.403 . S
C3847 C3844 1.403 . S
C3847 C3848 1.524 . S
C3847 C3851 1.400 . S
C3848 H3833 0.960 . S
C3848 H3834 0.960 . S
C3848 H3835 0.960 . S
C3848 C3847 1.524 . S
C3849 C3846 1.403 . S
C3849 C3850 1.392 . S
C3849 C3853 1.495 . S
C3850 C3849 1.392 . S
C3850 C3851 1.385 . S
C3850 C3852 1.478 . S
C3851 H3845 0.930 . S
C3851 C3847 1.400 . S
C3851 C3850 1.385 . S
C3852 C3850 1.478 . S
C3852 C3854 1.381 . S
C3852 C3858 1.383 . S
C3853 C3849 1.495 . S
C3853 H3859 0.959 . S
C3853 H3860 0.961 . S
C3853 H3861 0.960 . S
C3854 C3852 1.381 . S
C3854 C3855 1.394 . S
C3854 H3862 0.930 . S
C3855 C3854 1.394 . S
C3855 C3856 1.383 . S
C3855 H3863 0.929 . S
C3856 C3855 1.383 . S
C3856 C3857 1.377 . S
C3857 H3841 0.930 . S
C3857 C3856 1.377 . S
C3857 C3858 1.379 . S
C3858 H3842 0.931 . S
C3858 C3852 1.383 . S
C3858 C3857 1.379 . S
H3859 C3853 0.959 . S
H3860 C3853 0.961 . S
H3861 C3853 0.960 . S
H3862 C3854 0.930 . S
H3863 C3855 0.929 . S
H3864 C3872 0.929 . S
H3865 C3874 0.930 . S
H3866 C3876 0.930 . S
H3867 C3879 0.929 . S
H3868 C3882 0.930 . S
H3869 C3884 0.960 . S
H3870 C3884 0.960 . S
H3871 C3884 0.960 . S
C3872 H3864 0.929 . S
C3872 C3873 1.377 . S
C3872 C3874 1.384 . S
C3873 C3872 1.377 . S
C3873 C3879 1.390 . S
C3874 H3865 0.930 . S
C3874 C3872 1.384 . S
C3874 C3875 1.372 . S
C3875 C3874 1.372 . S
C3875 C3876 1.400 . S
C3875 C3880 1.490 . S
C3876 H3866 0.930 . S
C3876 C3875 1.400 . S
C3876 C3879 1.386 . S
H3877 C3893 0.930 . S
H3878 C3894 0.931 . S
C3879 H3867 0.929 . S
C3879 C3873 1.390 . S
C3879 C3876 1.386 . S
C3880 C3875 1.490 . S
C3880 C3882 1.395 . S
C3880 C3883 1.403 . S
H3881 C3887 0.930 . S
C3882 H3868 0.930 . S
C3882 C3880 1.395 . S
C3882 C3885 1.403 . S
C3883 C3880 1.403 . S
C3883 C3884 1.524 . S
C3883 C3887 1.400 . S
C3884 H3869 0.960 . S
C3884 H3870 0.960 . S
C3884 H3871 0.960 . S
C3884 C3883 1.524 . S
C3885 C3882 1.403 . S
C3885 C3886 1.392 . S
C3885 C3889 1.495 . S
C3886 C3885 1.392 . S
C3886 C3887 1.385 . S
C3886 C3888 1.478 . S
C3887 H3881 0.930 . S
C3887 C3883 1.400 . S
C3887 C3886 1.385 . S
C3888 C3886 1.478 . S
C3888 C3890 1.381 . S
C3888 C3894 1.383 . S
C3889 C3885 1.495 . S
C3889 H3895 0.959 . S
C3889 H3896 0.961 . S
C3889 H3897 0.960 . S
C3890 C3888 1.381 . S
C3890 C3891 1.394 . S
C3890 H3898 0.930 . S
C3891 C3890 1.394 . S
C3891 C3892 1.383 . S
C3891 H3899 0.929 . S
C3892 C3891 1.383 . S
C3892 C3893 1.377 . S
C3893 H3877 0.930 . S
C3893 C3892 1.377 . S
C3893 C3894 1.379 . S
C3894 H3878 0.931 . S
C3894 C3888 1.383 . S
C3894 C3893 1.379 . S
H3895 C3889 0.959 . S
H3896 C3889 0.961 . S
H3897 C3889 0.960 . S
H3898 C3890 0.930 . S
H3899 C3891 0.929 . S
H3900 C3908 0.929 . S
H3901 C3910 0.930 . S
H3902 C3912 0.930 . S
H3903 C3915 0.929 . S
H3904 C3918 0.930 . S
H3905 C3920 0.960 . S
H3906 C3920 0.960 . S
H3907 C3920 0.960 . S
C3908 H3900 0.929 . S
C3908 C3909 1.377 . S
C3908 C3910 1.384 . S
C3909 C3908 1.377 . S
C3909 C3915 1.390 . S
C3910 H3901 0.930 . S
C3910 C3908 1.384 . S
C3910 C3911 1.372 . S
C3911 C3910 1.372 . S
C3911 C3912 1.400 . S
C3911 C3916 1.490 . S
C3912 H3902 0.930 . S
C3912 C3911 1.400 . S
C3912 C3915 1.386 . S
H3913 C3929 0.930 . S
H3914 C3930 0.931 . S
C3915 H3903 0.929 . S
C3915 C3909 1.390 . S
C3915 C3912 1.386 . S
C3916 C3911 1.490 . S
C3916 C3918 1.395 . S
C3916 C3919 1.403 . S
H3917 C3923 0.930 . S
C3918 H3904 0.930 . S
C3918 C3916 1.395 . S
C3918 C3921 1.403 . S
C3919 C3916 1.403 . S
C3919 C3920 1.524 . S
C3919 C3923 1.400 . S
C3920 H3905 0.960 . S
C3920 H3906 0.960 . S
C3920 H3907 0.960 . S
C3920 C3919 1.524 . S
C3921 C3918 1.403 . S
C3921 C3922 1.392 . S
C3921 C3925 1.495 . S
C3922 C3921 1.392 . S
C3922 C3923 1.385 . S
C3922 C3924 1.478 . S
C3923 H3917 0.930 . S
C3923 C3919 1.400 . S
C3923 C3922 1.385 . S
C3924 C3922 1.478 . S
C3924 C3926 1.381 . S
C3924 C3930 1.383 . S
C3925 C3921 1.495 . S
C3925 H3931 0.959 . S
C3925 H3932 0.961 . S
C3925 H3933 0.960 . S
C3926 C3924 1.381 . S
C3926 C3927 1.394 . S
C3926 H3934 0.930 . S
C3927 C3926 1.394 . S
C3927 C3928 1.383 . S
C3927 H3935 0.929 . S
C3928 C3927 1.383 . S
C3928 C3929 1.377 . S
C3929 H3913 0.930 . S
C3929 C3928 1.377 . S
C3929 C3930 1.379 . S
C3930 H3914 0.931 . S
C3930 C3924 1.383 . S
C3930 C3929 1.379 . S
H3931 C3925 0.959 . S
H3932 C3925 0.961 . S
H3933 C3925 0.960 . S
H3934 C3926 0.930 . S
H3935 C3927 0.929 . S
C1065 N2 0.630 . S
C1084 N332 0.612 . S
C1101 N365 0.617 . S
C1120 N35 0.523 . S
C1137 N266 0.610 . S
C1156 N68 0.706 . S
C1173 N101 0.609 . S
C1192 N299 0.529 . S
C1209 N134 0.630 . S
C1228 N464 0.703 . S
C1245 N167 0.630 . S
C1264 N497 0.691 . S
C1281 N398 0.627 . S
C1300 N200 0.669 . S
C1317 N431 0.594 . S
C1336 N233 0.524 . S
C1353 N860 0.605 . S
C1372 N530 0.539 . S
C1389 N893 0.595 . S
C1408 N563 0.684 . S
C1425 N596 0.602 . S
C1444 N794 0.547 . S
C1461 N827 0.619 . S
C1480 N629 0.692 . S
C1497 N662 0.608 . S
C1516 N992 0.576 . S
C1533 N1025 0.623 . S
C1552 N695 0.694 . S
C1569 N728 0.614 . S
C1588 N926 0.600 . S
C1605 N761 0.624 . S
C1624 N959 0.699 . S
C1641 C7 1.789 . S
C1660 C832 1.772 . S
C1677 C40 1.791 . S
C1696 C799 1.782 . S
C1713 C73 1.789 . S
C1732 C898 1.806 . S
C1749 C106 1.790 . S
C1768 C865 1.773 . S
C1785 C139 1.785 . S
C1804 C964 1.797 . S
C1821 C172 1.787 . S
C1840 C931 1.804 . S
C1857 C1030 1.790 . S
C1876 C205 1.806 . S
C1893 C238 1.786 . S
C1912 C997 1.760 . S
C1929 C568 1.788 . S
C1948 C271 1.768 . S
C1965 C304 1.789 . S
C1984 C535 1.806 . S
C2001 C337 1.791 . S
C2020 C634 1.780 . S
C2037 C601 1.783 . S
C2056 C370 1.771 . S
C2073 C700 1.783 . S
C2092 C403 1.766 . S
C2109 C667 1.792 . S
C2128 C436 1.785 . S
C2145 C469 1.792 . S
C2164 C766 1.794 . S
C2181 C733 1.790 . S
C2200 C502 1.806 . S
C2217 N79 0.970 . S
C2236 N13 0.958 . S
C2253 N46 0.962 . S
C2272 N112 0.966 . S
C2289 N211 0.966 . S
C2308 N145 0.980 . S
C2325 N178 0.964 . S
C2344 N244 0.984 . S
C2361 N277 0.970 . S
C2380 N343 0.957 . S
C2397 N310 0.964 . S
C2416 N376 0.952 . S
C2433 N475 0.962 . S
C2452 N409 0.982 . S
C2469 N508 0.962 . S
C2488 N442 0.982 . S
C2505 N607 0.970 . S
C2524 N541 0.968 . S
C2541 N574 0.964 . S
C2560 N640 0.983 . S
C2577 N673 0.963 . S
C2596 N739 0.967 . S
C2613 N706 0.962 . S
C2632 N772 0.982 . S
C2649 N871 0.970 . S
C2668 N805 0.950 . S
C2685 N838 0.963 . S
C2704 N904 0.955 . S
C2721 N937 0.964 . S
C2740 N1003 0.985 . S
C2757 N1036 0.965 . S
C2776 N970 0.983 . S
C2793 C747 2.005 . S
C2812 C18 2.005 . S
C2829 C516 2.004 . S
C2848 C51 1.995 . S
C2865 C84 2.003 . S
C2884 C945 1.996 . S
C2901 C186 2.004 . S
C2920 C117 1.996 . S
C2937 C150 2.003 . S
C2956 C615 2.003 . S
C2973 C183 2.004 . S
C2992 C384 2.003 . S
C3009 C813 2.004 . S
C3028 C216 2.005 . S
C3045 C249 2.004 . S
C3064 C54 2.001 . S
C3081 C282 2.003 . S
C3100 C1011 1.997 . S
C3117 C252 2.005 . S
C3136 C315 2.005 . S
C3153 C348 2.003 . S
C3172 C681 1.996 . S
C3189 C381 2.003 . S
C3208 C450 1.996 . S
C3225 C879 2.006 . S
C3244 C414 1.995 . S
C3261 C447 2.003 . S
C3280 C120 2.004 . S
C3297 C549 2.004 . S
C3316 C480 2.005 . S
C3333 C318 2.006 . S
C3352 C513 1.996 . S
C3369 C219 2.005 . S
C3388 C546 2.005 . S
C3405 C579 2.005 . S
C3424 C1044 2.006 . S
C3441 C612 2.005 . S
C3460 C417 2.000 . S
C3477 C645 2.003 . S
C3496 C714 1.996 . S
C3513 C678 2.003 . S
C3532 C87 2.004 . S
C3549 C711 2.005 . S
C3568 C912 1.997 . S
C3585 C285 2.004 . S
C3604 C744 2.005 . S
C3621 C582 2.004 . S
C3640 C777 2.001 . S
C3657 C483 2.005 . S
C3676 C810 2.004 . S
C3693 C843 2.005 . S
C3712 C780 2.005 . S
C3729 C153 2.004 . S
C3748 C876 2.001 . S
C3765 C978 2.005 . S
C3784 C909 2.005 . S
C3801 C942 2.005 . S
C3820 C351 1.996 . S
C3837 C975 2.003 . S
C3856 C648 2.005 . S
C3873 C21 2.005 . S
C3892 C1008 1.995 . S
C3909 C1041 2.003 . S
C3928 C846 2.005 . S
