# Generated by pormake.
# Topology uoo, (4)-cn, num edge types: 1
# Building blocks:
#     Node 0, Type 0, BuildingBlock: GALJAG_clean_sbu_0, # of connection points: 4
#     Node 1, Type 0, BuildingBlock: GALJAG_clean_sbu_0, # of connection points: 4
#     Node 2, Type 0, BuildingBlock: GALJAG_clean_sbu_0, # of connection points: 4
#     Node 3, Type 0, BuildingBlock: GALJAG_clean_sbu_0, # of connection points: 4
#     Node 4, Type 0, BuildingBlock: GALJAG_clean_sbu_0, # of connection points: 4
#     Node 5, Type 0, BuildingBlock: GALJAG_clean_sbu_0, # of connection points: 4
#     Edge 6, Type (0, 0), BuildingBlock: MIFKUJ_clean_linker_0, # of connection points: 2
#     Edge 7, Type (0, 0), BuildingBlock: MIFKUJ_clean_linker_0, # of connection points: 2
#     Edge 8, Type (0, 0), BuildingBlock: MIFKUJ_clean_linker_0, # of connection points: 2
#     Edge 9, Type (0, 0), BuildingBlock: MIFKUJ_clean_linker_0, # of connection points: 2
#     Edge 10, Type (0, 0), BuildingBlock: MIFKUJ_clean_linker_0, # of connection points: 2
#     Edge 11, Type (0, 0), BuildingBlock: MIFKUJ_clean_linker_0, # of connection points: 2
#     Edge 12, Type (0, 0), BuildingBlock: MIFKUJ_clean_linker_0, # of connection points: 2
#     Edge 13, Type (0, 0), BuildingBlock: MIFKUJ_clean_linker_0, # of connection points: 2
#     Edge 14, Type (0, 0), BuildingBlock: MIFKUJ_clean_linker_0, # of connection points: 2
#     Edge 15, Type (0, 0), BuildingBlock: MIFKUJ_clean_linker_0, # of connection points: 2
#     Edge 16, Type (0, 0), BuildingBlock: MIFKUJ_clean_linker_0, # of connection points: 2
#     Edge 17, Type (0, 0), BuildingBlock: MIFKUJ_clean_linker_0, # of connection points: 2
# Relax obj value: 0.098
# Max RMSD: 0.113
# Mean RMSD: 0.113
data_MOF--net-uoo--node1-GALJAG_clean_sbu_0--edge1-MIFKUJ_clean_linker_0
_symmetry_space_group_name_H-M    P1
_symmetry_Int_Tables_number       1
_symmetry_cell_setting            triclinic
loop_
_symmetry_equiv_pos_as_xyz
'x, y, z'
_cell_length_a     32.907562
_cell_length_b     32.919108
_cell_length_c     50.398415
_cell_angle_alpha  90.003727
_cell_angle_beta   90.027844
_cell_angle_gamma 120.01169
loop_
_atom_site_label
_atom_site_type_symbol
_atom_site_fract_x
_atom_site_fract_y
_atom_site_fract_z
_atom_type_partial_charge
In0 In 0.15637 0.30964 0.01491 0.0
O1 O 0.09932 0.2485 0.03845 0.0
O2 O 0.16459 0.29215 0.05759 0.0
C3 C 0.14039 0.26221 0.96872 0.0
C4 C 0.11356 0.36164 0.01242 0.0
C5 C 0.25035 0.35961 0.02137 0.0
O6 O 0.13654 0.24315 0.99096 0.0
O7 O 0.15156 0.30477 0.96982 0.0
O8 O 0.22338 0.37396 0.02937 0.0
O9 O 0.22986 0.31978 0.01043 0.0
C10 C 0.12367 0.25729 0.05927 0.0
O11 O 0.15279 0.37438 0.00181 0.0
O12 O 0.09584 0.3227 0.02414 0.0
In13 In 0.84999 0.1528 0.34728 0.0
O14 O 0.82744 0.07995 0.36351 0.0
O15 O 0.87599 0.13867 0.38625 0.0
C16 C 0.8953 0.14296 0.3052 0.0
C17 C 0.75729 0.12253 0.3484 0.0
C18 C 0.88862 0.24685 0.35257 0.0
O19 O 0.91525 0.15934 0.32712 0.0
O20 O 0.85257 0.13124 0.30459 0.0
O21 O 0.85951 0.22372 0.3346 0.0
O22 O 0.89819 0.22262 0.36795 0.0
C23 C 0.85166 0.09463 0.38438 0.0
O24 O 0.78327 0.1398 0.36852 0.0
O25 O 0.77828 0.12148 0.32769 0.0
In26 In 0.68782 0.84711 0.6827 0.0
O27 O 0.61766 0.77935 0.67883 0.0
O28 O 0.67849 0.77368 0.6848 0.0
C29 C 0.64055 0.89387 0.68783 0.0
C30 C 0.74097 0.86448 0.72676 0.0
C31 C 0.72653 0.8729 0.63407 0.0
O32 O 0.62502 0.85269 0.69641 0.0
O33 O 0.68055 0.91199 0.67712 0.0
O34 O 0.74823 0.89406 0.65485 0.0
O35 O 0.68587 0.8388 0.63795 0.0
C36 C 0.63463 0.75273 0.68155 0.0
O37 O 0.75095 0.85262 0.70503 0.0
O38 O 0.70508 0.86885 0.72603 0.0
In39 In 0.84751 0.69297 0.0179 0.0
O40 O 0.9046 0.75907 0.0385 0.0
O41 O 0.856 0.70293 0.06262 0.0
C42 C 0.85369 0.7424 0.97385 0.0
C43 C 0.8901 0.64119 0.0148 0.0
C44 C 0.75302 0.64069 0.02086 0.0
O45 O 0.84307 0.75148 0.99625 0.0
O46 O 0.86165 0.7087 0.97371 0.0
O47 O 0.77746 0.62802 0.00778 0.0
O48 O 0.7762 0.67974 0.03238 0.0
C49 C 0.89136 0.74351 0.06164 0.0
O50 O 0.85164 0.62727 0.02669 0.0
O51 O 0.90711 0.68127 0.00436 0.0
In52 In 0.15936 0.84314 0.35183 0.0
O53 O 0.22908 0.86664 0.37301 0.0
O54 O 0.23059 0.87475 0.33122 0.0
C55 C 0.11301 0.74934 0.36003 0.0
C56 C 0.14141 0.88956 0.38999 0.0
C57 C 0.13059 0.85455 0.30372 0.0
O58 O 0.15598 0.77507 0.36537 0.0
O59 O 0.09339 0.77097 0.35107 0.0
O60 O 0.12715 0.87467 0.32422 0.0
O61 O 0.14891 0.82933 0.30753 0.0
C62 C 0.25362 0.88051 0.35225 0.0
O63 O 0.17022 0.91019 0.37145 0.0
O64 O 0.12063 0.84537 0.3889 0.0
In65 In 0.30544 0.15552 0.68023 0.0
O66 O 0.37362 0.22475 0.68443 0.0
O67 O 0.31204 0.22754 0.67509 0.0
C68 C 0.35554 0.1109 0.68096 0.0
C69 C 0.25934 0.14487 0.72622 0.0
C70 C 0.25585 0.12055 0.63503 0.0
O71 O 0.36798 0.14804 0.66803 0.0
O72 O 0.3175 0.09587 0.69346 0.0
O73 O 0.24355 0.09891 0.65682 0.0
O74 O 0.2928 0.15998 0.63611 0.0
C75 C 0.3556 0.24997 0.67969 0.0
O76 O 0.2391 0.13648 0.70397 0.0
O77 O 0.30248 0.1581 0.7252 0.0
H78 H 0.2992 0.1752 0.77471 0.0
H79 H 0.2608 0.1763 0.81575 0.0
H80 H 0.12647 0.10806 0.77608 0.0
H81 H 0.16527 0.10851 0.73448 0.0
H82 H 0.13238 0.17597 0.80337 0.0
H83 H 0.15498 0.04973 0.82461 0.0
H84 H 0.19592 0.00449 0.82849 0.0
H85 H 0.29475 0.10672 0.8828 0.0
H86 H 0.25482 0.15295 0.87898 0.0
H87 H 0.10671 0.16857 0.96065 0.0
H88 H 0.1059 0.13 0.9189 0.0
H89 H 0.16606 0.26335 0.87851 0.0
H90 H 0.16499 0.30135 0.91971 0.0
H91 H 0.1738 0.13887 0.8912 0.0
H92 H 0.14236 0.25534 0.81516 0.0
H93 H 0.09278 0.29164 0.81135 0.0
H94 H 0.99436 0.19153 0.8666 0.0
H95 H 0.04296 0.15416 0.87046 0.0
C96 C 0.26142 0.15993 0.77478 0.0
C97 C 0.23521 0.14181 0.75142 0.0
C98 C 0.23939 0.16023 0.79833 0.0
C99 C 0.19056 0.14153 0.79918 0.0
C100 C 0.16414 0.12252 0.77594 0.0
C101 C 0.18631 0.12274 0.75222 0.0
C102 C 0.16818 0.14549 0.82387 0.0
C103 C 0.14094 0.16735 0.82257 0.0
C104 C 0.17774 0.13261 0.84891 0.0
C105 C 0.20194 0.10492 0.85141 0.0
C106 C 0.18561 0.06273 0.83726 0.0
C107 C 0.20862 0.03688 0.83947 0.0
C108 C 0.24793 0.05275 0.85586 0.0
C109 C 0.26426 0.09446 0.87012 0.0
C110 C 0.24139 0.12045 0.86798 0.0
C111 C 0.1189 0.18937 0.94271 0.0
C112 C 0.13587 0.23791 0.94337 0.0
C113 C 0.11851 0.16735 0.9189 0.0
C114 C 0.13537 0.19358 0.89542 0.0
C115 C 0.15161 0.24199 0.8961 0.0
C116 C 0.15135 0.26382 0.91975 0.0
C117 C 0.14026 0.17174 0.87073 0.0
C118 C 0.1642 0.14649 0.87202 0.0
C119 C 0.12623 0.18005 0.84569 0.0
C120 C 0.09649 0.20206 0.84318 0.0
C121 C 0.10998 0.24083 0.82636 0.0
C122 C 0.08208 0.26167 0.82423 0.0
C123 C 0.04049 0.24396 0.83876 0.0
C124 C 0.02665 0.2053 0.85541 0.0
C125 C 0.0544 0.18432 0.8576 0.0
H126 H 0.01896 0.26016 0.83709 0.0
H127 H 0.26571 0.03269 0.85753 0.0
H128 H 0.98806 0.16953 0.30132 0.0
H129 H 0.03167 0.17517 0.26085 0.0
H130 H 0.90367 0.1183 0.21533 0.0
H131 H 0.85976 0.112 0.25573 0.0
H132 H 0.96257 0.08657 0.1974 0.0
H133 H 0.9716 0.23389 0.22036 0.0
H134 H 0.98906 0.30016 0.25012 0.0
H135 H 0.13293 0.33405 0.25525 0.0
H136 H 0.11611 0.26751 0.22578 0.0
H137 H 0.03298 0.19108 0.07002 0.0
H138 H -0.00041 0.15773 0.11331 0.0
H139 H 0.13772 0.23179 0.14834 0.0
H140 H 0.17112 0.26615 0.1052 0.0
H141 H 0.08058 0.2504 0.17403 0.0
H142 H 0.07382 0.10982 0.14474 0.0
H143 H 0.05567 0.04294 0.11539 0.0
H144 H 0.90849 0.99555 0.1216 0.0
H145 H 0.92574 0.06256 0.15066 0.0
C146 C 0.96911 0.1575 0.28275 0.0
C147 C 0.92065 0.14092 0.28157 0.0
C148 C 0.99405 0.16072 0.25968 0.0
C149 C 0.97094 0.14771 0.23509 0.0
C150 C 0.92212 0.1285 0.23413 0.0
C151 C 0.89716 0.1252 0.25719 0.0
C152 C 0.99801 0.15865 0.2101 0.0
C153 C 0.98831 0.12233 0.19212 0.0
C154 C 0.03227 0.20521 0.20362 0.0
C155 C 0.04248 0.24544 0.22114 0.0
C156 C 0.00687 0.25528 0.228 0.0
C157 C 0.01666 0.2929 0.24478 0.0
C158 C 0.06205 0.32121 0.25464 0.0
C159 C 0.09777 0.31203 0.24765 0.0
C160 C 0.08814 0.27438 0.2309 0.0
C161 C 0.05633 0.1995 0.08686 0.0
C162 C 0.10456 0.23159 0.08433 0.0
C163 C 0.03725 0.18014 0.11157 0.0
C164 C 0.06617 0.19208 0.13409 0.0
C165 C 0.11474 0.22212 0.13125 0.0
C166 C 0.13376 0.24176 0.1066 0.0
C167 C 0.04516 0.17835 0.16093 0.0
C168 C 0.05569 0.21435 0.1793 0.0
C169 C 0.01168 0.1315 0.16762 0.0
C170 C 0.00115 0.09152 0.14975 0.0
C171 C 0.0376 0.08544 0.13964 0.0
C172 C 0.02746 0.04742 0.12309 0.0
C173 C 0.98097 0.01506 0.1166 0.0
C174 C 0.9445 0.02066 0.12663 0.0
C175 C 0.95444 0.05864 0.14317 0.0
H176 H 0.97319 0.98559 0.10383 0.0
H177 H 0.06956 0.35032 0.26763 0.0
H178 H 0.90977 0.11464 0.42703 0.0
H179 H 0.89468 0.06668 0.46699 0.0
H180 H 0.76736 0.95697 0.43183 0.0
H181 H 0.78273 0.00413 0.39162 0.0
H182 H 0.75727 0.99544 0.48107 0.0
H183 H 0.8414 0.92804 0.44291 0.0
H184 H 0.90607 0.92307 0.42154 0.0
H185 H 0.99635 0.99543 0.48741 0.0
H186 H 0.9323 0.00144 0.50908 0.0
H187 H 0.68225 0.83656 0.5872 0.0
H188 H 0.7099 0.86742 0.54272 0.0
H189 H 0.84088 0.97546 0.57541 0.0
H190 H 0.81335 0.94479 0.6202 0.0
H191 H 0.84975 0.93455 0.52657 0.0
H192 H 0.76358 0.00392 0.56351 0.0
H193 H 0.69588 0.00301 0.58504 0.0
H194 H 0.60737 0.92373 0.51996 0.0
H195 H 0.67443 0.92343 0.49825 0.0
C196 C 0.87923 0.07979 0.42759 0.0
C197 C 0.84724 0.06316 0.40636 0.0
C198 C 0.87078 0.05242 0.45033 0.0
C199 C 0.82994 0.00842 0.45225 0.0
C200 C 0.79917 0.9908 0.43058 0.0
C201 C 0.80803 0.01775 0.40766 0.0
C202 C 0.8161 0.98403 0.47806 0.0
C203 C 0.77703 0.98141 0.49083 0.0
C204 C 0.84275 0.96699 0.49095 0.0
C205 C 0.88216 0.96567 0.47749 0.0
C206 C 0.87525 0.9436 0.45267 0.0
C207 C 0.91172 0.94038 0.44055 0.0
C208 C 0.95524 0.95888 0.45312 0.0
C209 C 0.96257 0.98108 0.47772 0.0
C210 C 0.92617 0.98438 0.48994 0.0
C211 C 0.71719 0.86652 0.58493 0.0
C212 C 0.74551 0.8886 0.60716 0.0
C213 C 0.7329 0.88405 0.55951 0.0
C214 C 0.77718 0.9239 0.5559 0.0
C215 C 0.80658 0.94463 0.57789 0.0
C216 C 0.79075 0.92723 0.60341 0.0
C217 C 0.79095 0.94597 0.52945 0.0
C218 C 0.83003 0.94849 0.5167 0.0
C219 C 0.76428 0.96291 0.51643 0.0
C220 C 0.72391 0.96316 0.52942 0.0
C221 C 0.72959 0.98588 0.55392 0.0
C222 C 0.69134 0.98565 0.56613 0.0
C223 C 0.64731 0.96319 0.55392 0.0
C224 C 0.64147 0.94101 0.52943 0.0
C225 C 0.67959 0.94104 0.51716 0.0
H226 H 0.61776 0.96309 0.5634 0.0
H227 H 0.98313 0.95567 0.44384 0.0
H228 H 0.88548 0.73651 0.92481 0.0
H229 H 0.87828 0.77161 0.88349 0.0
H230 H 0.81397 0.83821 0.92637 0.0
H231 H 0.82151 0.80369 0.9678 0.0
H232 H 0.76126 0.78246 0.88313 0.0
H233 H 0.91849 0.90506 0.90218 0.0
H234 H 0.00232 0.93823 0.91287 0.0
H235 H 0.02249 0.88105 0.84078 0.0
H236 H 0.93859 0.84693 0.82983 0.0
H237 H 0.7287 0.89442 0.77487 0.0
H238 H 0.75961 0.88699 0.81756 0.0
H239 H 0.83826 0.83208 0.77805 0.0
H240 H 0.80819 0.84036 0.73515 0.0
H241 H 0.88662 0.88639 0.82033 0.0
H242 H 0.73304 0.75712 0.80296 0.0
H243 H 0.6492 0.71847 0.79095 0.0
H244 H 0.62223 0.78098 0.85851 0.0
H245 H 0.70607 0.82038 0.87077 0.0
C246 C 0.87048 0.75923 0.92547 0.0
C247 C 0.85381 0.7672 0.94945 0.0
C248 C 0.86662 0.77941 0.90191 0.0
C249 C 0.84575 0.80758 0.90196 0.0
C250 C 0.83032 0.81667 0.926 0.0
C251 C 0.83466 0.79696 0.94961 0.0
C252 C 0.83581 0.82365 0.87665 0.0
C253 C 0.7887 0.80597 0.86964 0.0
C254 C 0.87167 0.85277 0.85868 0.0
C255 C 0.9221 0.87304 0.86531 0.0
C256 C 0.94067 0.89914 0.88873 0.0
C257 C 0.98824 0.91822 0.89481 0.0
C258 C 0.01769 0.91167 0.87755 0.0
C259 C -0.00036 0.88607 0.85415 0.0
C260 C 0.95208 0.86689 0.84798 0.0
C261 C 0.75332 0.88165 0.77522 0.0
C262 C 0.7656 0.8674 0.75176 0.0
C263 C 0.77086 0.87733 0.79961 0.0
C264 C 0.80045 0.8581 0.80098 0.0
C265 C 0.81533 0.84686 0.77742 0.0
C266 C 0.79804 0.85149 0.75295 0.0
C267 C 0.81208 0.84558 0.82701 0.0
C268 C 0.85929 0.86343 0.83403 0.0
C269 C 0.77634 0.81577 0.84488 0.0
C270 C 0.72588 0.7921 0.83762 0.0
C271 C 0.70928 0.7629 0.81514 0.0
C272 C 0.66176 0.7408 0.80831 0.0
C273 C 0.63044 0.7474 0.82391 0.0
C274 C 0.64655 0.77597 0.84642 0.0
C275 C 0.69405 0.79815 0.85334 0.0
H276 H 0.59366 0.73027 0.81859 0.0
H277 H 0.05452 0.92651 0.88227 0.0
H278 H 0.1246 0.80554 0.25911 0.0
H279 H 0.0901 0.80698 0.21664 0.0
H280 H 0.06214 0.91366 0.24622 0.0
H281 H 0.09548 0.91121 0.28932 0.0
H282 H 0.98862 0.85053 0.22205 0.0
H283 H 0.14772 0.93943 0.19805 0.0
H284 H 0.23098 0.96131 0.19492 0.0
H285 H 0.19311 0.8371 0.14939 0.0
H286 H 0.10954 0.81407 0.15257 0.0
H287 H 0.96772 0.8319 0.06493 0.0
H288 H 0.01237 0.87187 0.10492 0.0
H289 H 0.91723 0.75248 0.15222 0.0
H290 H 0.87211 0.71315 0.11267 0.0
H291 H 0.06019 0.84846 0.13581 0.0
H292 H 0.9072 0.7806 0.21321 0.0
H293 H 0.82661 0.76735 0.21555 0.0
H294 H 0.85765 0.86704 0.15289 0.0
H295 H 0.93859 0.88137 0.15038 0.0
C296 C 0.11156 0.82968 0.25652 0.0
C297 C 0.11273 0.85828 0.27751 0.0
C298 C 0.09214 0.83074 0.23213 0.0
C299 C 0.07421 0.86102 0.22803 0.0
C300 C 0.07594 0.89018 0.24888 0.0
C301 C 0.09504 0.8888 0.27345 0.0
C302 C 0.0508 0.85938 0.20254 0.0
C303 C 0.00445 0.85063 0.20317 0.0
C304 C 0.07197 0.86124 0.17778 0.0
C305 C 0.12227 0.87495 0.17564 0.0
C306 C 0.1571 0.91662 0.1875 0.0
C307 C 0.20437 0.92925 0.1857 0.0
C308 C 0.21732 0.90059 0.17198 0.0
C309 C 0.18303 0.85928 0.15999 0.0
C310 C 0.13569 0.84647 0.16175 0.0
C311 C 0.95602 0.81459 0.08395 0.0
C312 C 0.9165 0.76942 0.08571 0.0
C313 C 0.98155 0.83741 0.10675 0.0
C314 C 0.96788 0.81545 0.13163 0.0
C315 C 0.9279 0.77066 0.13338 0.0
C316 C 0.90229 0.74802 0.1107 0.0
C317 C 0.99724 0.83698 0.15554 0.0
C318 C 0.04471 0.84948 0.15462 0.0
C319 C 0.97754 0.83999 0.17991 0.0
C320 C 0.92896 0.83188 0.18153 0.0
C321 C 0.89695 0.79993 0.20004 0.0
C322 C 0.85116 0.79216 0.20136 0.0
C323 C 0.83699 0.81627 0.18435 0.0
C324 C 0.86861 0.84827 0.166 0.0
C325 C 0.91443 0.85617 0.16459 0.0
H326 H 0.80152 0.81018 0.1854 0.0
H327 H 0.25394 0.91043 0.17062 0.0
H328 H 0.17506 0.03695 0.62803 0.0
H329 H 0.13938 0.9988 0.5859 0.0
H330 H 0.24558 0.11871 0.54329 0.0
H331 H 0.28085 0.15743 0.58532 0.0
H332 H 0.16154 0.08231 0.51852 0.0
H333 H 0.25977 0.026 0.55428 0.0
H334 H 0.28725 0.99152 0.58837 0.0
H335 H 0.15195 0.86642 0.58909 0.0
H336 H 0.12351 0.90045 0.55519 0.0
H337 H 0.19109 0.98362 0.39953 0.0
H338 H 0.19344 0.02369 0.44073 0.0
H339 H 0.08374 0.89344 0.47324 0.0
H340 H 0.08198 0.85289 0.4322 0.0
H341 H 0.15821 0.93155 0.5044 0.0
H342 H 0.06787 0.98822 0.4597 0.0
H343 H 0.04831 0.0266 0.42379 0.0
H344 H 0.17689 0.1553 0.43761 0.0
H345 H 0.19782 0.11761 0.47314 0.0
C346 C 0.19034 0.05547 0.60968 0.0
C347 C 0.23105 0.09989 0.60991 0.0
C348 C 0.16996 0.03364 0.58565 0.0
C349 C 0.19028 0.05565 0.56149 0.0
C350 C 0.22936 0.10112 0.56171 0.0
C351 C 0.24961 0.12307 0.58573 0.0
C352 C 0.17372 0.02977 0.5361 0.0
C353 C 0.16084 0.04938 0.5153 0.0
C354 C 0.17235 0.98657 0.53213 0.0
C355 C 0.18935 0.96598 0.55246 0.0
C356 C 0.23578 0.99129 0.56187 0.0
C357 C 0.25155 0.97181 0.58112 0.0
C358 C 0.22131 0.92687 0.59096 0.0
C359 C 0.17529 0.90127 0.58149 0.0
C360 C 0.15933 0.92062 0.56226 0.0
C361 C 0.16671 0.96372 0.41523 0.0
C362 C 0.13668 0.91505 0.41278 0.0
C363 C 0.16788 0.98675 0.43873 0.0
C364 C 0.13862 0.96161 0.46006 0.0
C365 C 0.10661 0.9135 0.45702 0.0
C366 C 0.10562 0.89039 0.43357 0.0
C367 C 0.14602 0.98401 0.48651 0.0
C368 C 0.15766 0.96387 0.5076 0.0
C369 C 0.14714 0.02717 0.49044 0.0
C370 C 0.13451 0.04992 0.46904 0.0
C371 C 0.09215 0.02459 0.45495 0.0
C372 C 0.08078 0.04624 0.43469 0.0
C373 C 0.11128 0.09329 0.42847 0.0
C374 C 0.15326 0.11885 0.44247 0.0
C375 C 0.16489 0.09736 0.46268 0.0
H376 H 0.10238 0.10996 0.4128 0.0
H377 H 0.23359 0.91184 0.60585 0.0
H378 H 0.30204 0.44652 0.0435 0.0
H379 H 0.3876 0.49447 0.04592 0.0
H380 H 0.4006 0.38465 0.00716 0.0
H381 H 0.31506 0.33628 0.00499 0.0
H382 H 0.46172 0.42219 0.04803 0.0
H383 H 0.41556 0.47934 0.9726 0.0
H384 H 0.37132 0.51078 0.94926 0.0
H385 H 0.4319 0.63152 0.00022 0.0
H386 H 0.47603 0.60046 0.02413 0.0
H387 H 0.6968 0.55192 0.00214 0.0
H388 H 0.61124 0.50453 0.00506 0.0
H389 H 0.6071 0.6172 0.04633 0.0
H390 H 0.69274 0.66484 0.04349 0.0
H391 H 0.54166 0.57985 0.0063 0.0
H392 H 0.59066 0.52433 0.08045 0.0
H393 H 0.63502 0.4929 0.10365 0.0
H394 H 0.56942 0.36922 0.05506 0.0
H395 H 0.52515 0.40024 0.03127 0.0
C396 C 0.32314 0.43251 0.03562 0.0
C397 C 0.30191 0.38777 0.02392 0.0
C398 C 0.37199 0.45999 0.03693 0.0
C399 C 0.40044 0.44334 0.02642 0.0
C400 C 0.37928 0.39819 0.01536 0.0
C401 C 0.33044 0.37067 0.01406 0.0
C402 C 0.45227 0.47332 0.02643 0.0
C403 C 0.47924 0.45644 0.03866 0.0
C404 C 0.47504 0.51848 0.01475 0.0
C405 C 0.44871 0.53733 0.00033 0.0
C406 C 0.41916 0.51242 0.97896 0.0
C407 C 0.39415 0.5302 0.96561 0.0
C408 C 0.39869 0.57306 0.9733 0.0
C409 C 0.42836 0.59829 0.99432 0.0
C410 C 0.4534 0.58063 0.00776 0.0
C411 C 0.67766 0.56657 0.01186 0.0
C412 C 0.7014 0.61204 0.02262 0.0
C413 C 0.62884 0.5394 0.01362 0.0
C414 C 0.60292 0.55724 0.02612 0.0
C415 C 0.6265 0.60279 0.03666 0.0
C416 C 0.67538 0.62988 0.03507 0.0
C417 C 0.5511 0.52857 0.02773 0.0
C418 C 0.52414 0.54569 0.01579 0.0
C419 C 0.52837 0.48363 0.03965 0.0
C420 C 0.55493 0.46484 0.0539 0.0
C421 C 0.586 0.49062 0.07454 0.0
C422 C 0.61107 0.47284 0.08783 0.0
C423 C 0.60513 0.42915 0.08078 0.0
C424 C 0.57403 0.40309 0.06047 0.0
C425 C 0.54891 0.42074 0.04709 0.0
H426 H 0.62456 0.41543 0.09111 0.0
H427 H 0.3793 0.58677 0.96293 0.0
H428 H 0.95926 0.30515 0.38598 0.0
H429 H 0.9963 0.3905 0.38932 0.0
H430 H 0.90307 0.38977 0.32881 0.0
H431 H 0.86686 0.30459 0.32487 0.0
H432 H 0.98813 0.45684 0.31917 0.0
H433 H 0.88933 0.40658 0.3958 0.0
H434 H 0.85635 0.36379 0.43762 0.0
H435 H 0.9924 0.43783 0.47409 0.0
H436 H 0.02635 0.48064 0.43234 0.0
H437 H 0.02733 0.68665 0.33997 0.0
H438 H 0.98869 0.60097 0.34104 0.0
H439 H 0.10352 0.60961 0.38679 0.0
H440 H 0.14289 0.6956 0.38546 0.0
H441 H 0.00871 0.53967 0.40473 0.0
H442 H 0.10593 0.58969 0.32637 0.0
H443 H 0.13553 0.63337 0.28446 0.0
H444 H 0.99682 0.55942 0.25125 0.0
H445 H 0.96625 0.51579 0.29315 0.0
C446 C 0.94657 0.32321 0.37346 0.0
C447 C 0.91015 0.29824 0.35518 0.0
C448 C 0.9676 0.37196 0.37548 0.0
C449 C 0.9521 0.39657 0.35955 0.0
C450 C 0.91562 0.37158 0.34132 0.0
C451 C 0.89488 0.3229 0.33913 0.0
C452 C 0.97478 0.44848 0.36127 0.0
C453 C 0.99198 0.47478 0.33787 0.0
C454 C 0.98074 0.47214 0.38571 0.0
C455 C 0.96047 0.44646 0.41085 0.0
C456 C 0.9123 0.41346 0.41267 0.0
C457 C 0.89341 0.38925 0.43637 0.0
C458 C 0.92229 0.39799 0.45848 0.0
C459 C 0.97009 0.43105 0.45694 0.0
C460 C 0.98917 0.45532 0.43327 0.0
C461 C 0.04418 0.67033 0.35046 0.0
C462 C 0.08821 0.69774 0.36254 0.0
C463 C 0.02211 0.62144 0.35102 0.0
C464 C 0.04344 0.59914 0.36387 0.0
C465 C 0.08657 0.62631 0.37679 0.0
C466 C 0.10903 0.67531 0.37593 0.0
C467 C 0.02158 0.54748 0.36268 0.0
C468 C 0.0047 0.52142 0.38613 0.0
C469 C 0.01536 0.52393 0.33827 0.0
C470 C 0.03373 0.54984 0.31299 0.0
C471 C 0.08166 0.58304 0.31022 0.0
C472 C 0.09863 0.60773 0.28645 0.0
C473 C 0.06805 0.59927 0.26523 0.0
C474 C 0.02045 0.56599 0.26772 0.0
C475 C 0.00329 0.54125 0.29146 0.0
H476 H 0.08125 0.61842 0.24684 0.0
H477 H 0.9076 0.37922 0.47682 0.0
H478 H 0.44064 0.14042 0.65795 0.0
H479 H 0.48852 0.10291 0.65992 0.0
H480 H 0.38244 0.99113 0.70744 0.0
H481 H 0.33465 0.02907 0.70597 0.0
H482 H 0.46797 0.02021 0.72728 0.0
H483 H 0.39548 0.97446 0.64202 0.0
H484 H 0.37181 0.98618 0.59754 0.0
H485 H 0.51654 0.07092 0.57528 0.0
H486 H 0.5411 0.06031 0.61978 0.0
H487 H 0.55538 0.86255 0.71128 0.0
H488 H 0.50736 0.90008 0.71107 0.0
H489 H 0.61479 0.01657 0.66687 0.0
H490 H 0.66294 0.97901 0.66683 0.0
H491 H 0.52754 0.9838 0.64551 0.0
H492 H 0.59897 0.02867 0.73185 0.0
H493 H 0.62079 0.01492 0.77638 0.0
H494 H 0.47521 0.9284 0.7964 0.0
H495 H 0.45251 0.94112 0.75184 0.0
C496 C 0.42743 0.10777 0.66876 0.0
C497 C 0.38385 0.08755 0.68174 0.0
C498 C 0.45476 0.0863 0.66979 0.0
C499 C 0.43879 0.04393 0.68356 0.0
C500 C 0.39537 0.02378 0.69667 0.0
C501 C 0.36807 0.04538 0.69574 0.0
C502 C 0.4678 0.02108 0.68453 0.0
C503 C 0.48045 0.01162 0.7094 0.0
C504 C 0.48477 0.0107 0.66119 0.0
C505 C 0.47013 0.01695 0.63434 0.0
C506 C 0.42227 0.9959 0.62771 0.0
C507 C 0.40869 0.0023 0.60248 0.0
C508 C 0.44265 0.02937 0.58362 0.0
C509 C 0.49027 0.05001 0.58992 0.0
C510 C 0.50404 0.04378 0.61514 0.0
C511 C 0.56894 0.89634 0.7017 0.0
C512 C 0.61293 0.91793 0.6891 0.0
C513 C 0.54152 0.91778 0.70166 0.0
C514 C 0.55768 0.96124 0.68911 0.0
C515 C 0.60174 0.98303 0.67667 0.0
C516 C 0.62925 0.96165 0.67677 0.0
C517 C 0.52793 0.98324 0.68824 0.0
C518 C 0.51506 0.99243 0.66337 0.0
C519 C 0.51047 0.99301 0.71157 0.0
C520 C 0.52406 0.98549 0.73841 0.0
C521 C 0.57161 0.00641 0.74567 0.0
C522 C 0.58414 0.99886 0.77093 0.0
C523 C 0.54941 0.97071 0.78918 0.0
C524 C 0.50207 0.95015 0.78223 0.0
C525 C 0.48936 0.95756 0.75699 0.0
H526 H 0.55918 0.9649 0.80873 0.0
H527 H 0.43207 0.03428 0.56409 0.0
H528 H 0.32415 0.31199 0.67308 0.0
H529 H 0.37082 0.39775 0.6735 0.0
H530 H 0.49655 0.3902 0.68632 0.0
H531 H 0.45002 0.30458 0.68645 0.0
H532 H 0.49505 0.45415 0.71807 0.0
H533 H 0.47008 0.41642 0.62517 0.0
H534 H 0.42331 0.37991 0.58489 0.0
H535 H 0.35127 0.45734 0.59529 0.0
H536 H 0.3972 0.49387 0.63586 0.0
H537 H 0.66375 0.68871 0.68627 0.0
H538 H 0.61511 0.60319 0.6858 0.0
H539 H 0.49117 0.61488 0.67552 0.0
H540 H 0.5397 0.70048 0.67558 0.0
H541 H 0.49063 0.54923 0.64291 0.0
H542 H 0.51749 0.58847 0.73544 0.0
H543 H 0.56625 0.62645 0.7749 0.0
H544 H 0.63593 0.54669 0.76477 0.0
H545 H 0.58811 0.50878 0.72497 0.0
C546 C 0.36174 0.32866 0.67596 0.0
C547 C 0.3835 0.30166 0.67966 0.0
C548 C 0.38837 0.37762 0.6761 0.0
C549 C 0.43723 0.40034 0.67966 0.0
C550 C 0.45891 0.37338 0.68355 0.0
C551 C 0.4323 0.32449 0.68353 0.0
C552 C 0.46584 0.45224 0.67949 0.0
C553 C 0.4945 0.47491 0.7015 0.0
C554 C 0.46433 0.47935 0.65812 0.0
C555 C 0.43674 0.4575 0.63371 0.0
C556 C 0.444 0.42538 0.61899 0.0
C557 C 0.41769 0.40473 0.59608 0.0
C558 C 0.38425 0.4162 0.58758 0.0
C559 C 0.37714 0.44844 0.60193 0.0
C560 C 0.40332 0.46915 0.62487 0.0
C561 C 0.62614 0.67304 0.68389 0.0
C562 C 0.60545 0.70118 0.68106 0.0
C563 C 0.5984 0.62423 0.68372 0.0
C564 C 0.5495 0.60276 0.68094 0.0
C565 C 0.52884 0.6308 0.67773 0.0
C566 C 0.55658 0.67963 0.67785 0.0
C567 C 0.51988 0.55102 0.68142 0.0
C568 C 0.49104 0.52842 0.65949 0.0
C569 C 0.52129 0.52398 0.70284 0.0
C570 C 0.54948 0.54607 0.72708 0.0
C571 C 0.54341 0.57923 0.74153 0.0
C572 C 0.57086 0.60074 0.76396 0.0
C573 C 0.60423 0.58907 0.7723 0.0
C574 C 0.61009 0.55573 0.75827 0.0
C575 C 0.5828 0.53419 0.73579 0.0
H576 H 0.6255 0.6058 0.78965 0.0
H577 H 0.36392 0.40018 0.56984 0.0
H578 H 0.86287 0.55724 0.03879 0.0
H579 H 0.90227 0.511 0.03738 0.0
H580 H 0.00943 0.61475 0.98661 0.0
H581 H 0.97004 0.66122 0.98786 0.0
H582 H 0.97887 0.52457 0.96945 0.0
H583 H 0.03337 0.61198 0.0502 0.0
H584 H 0.02579 0.64216 0.09358 0.0
H585 H 0.94783 0.50152 0.12366 0.0
H586 H 0.95435 0.47043 0.08029 0.0
H587 H 0.14246 0.44388 0.9858 0.0
H588 H 0.10474 0.49186 0.98511 0.0
H589 H 0.99523 0.39221 0.03639 0.0
H590 H 0.03281 0.34418 0.03724 0.0
H591 H 0.0292 0.48252 0.05289 0.0
H592 H 0.97383 0.3952 0.97174 0.0
H593 H 0.98155 0.36531 0.92829 0.0
H594 H 0.06181 0.50628 0.89897 0.0
H595 H 0.05514 0.53706 0.9424 0.0
C596 C 0.89479 0.57019 0.0273 0.0
C597 C 0.91351 0.61293 0.01352 0.0
C598 C 0.91733 0.54381 0.02657 0.0
C599 C 0.95901 0.55971 0.01211 0.0
C600 C 0.97734 0.60195 0.99793 0.0
C601 C 0.9549 0.62848 -0.00127 0.0
C602 C 0.98351 0.53225 0.01196 0.0
C603 C 0.99052 0.51593 0.98764 0.0
C604 C 0.99785 0.52029 0.03577 0.0
C605 C 0.99396 0.53886 0.06191 0.0
C606 C 0.01426 0.58746 0.06599 0.0
C607 C 0.01022 0.60474 0.09059 0.0
C608 C 0.98624 0.57377 0.11134 0.0
C609 C 0.96634 0.52546 0.10755 0.0
C610 C 0.97023 0.50799 0.08297 0.0
C611 C 0.11027 0.43216 0.99686 0.0
C612 C 0.09051 0.39028 0.01154 0.0
C613 C 0.0887 0.4595 0.99638 0.0
C614 C 0.04702 0.4454 0.01056 0.0
C615 C 0.02737 0.40369 0.02531 0.0
C616 C 0.04879 0.37624 0.02571 0.0
C617 C 0.02426 0.4745 0.0104 0.0
C618 C 0.01764 0.49122 0.03468 0.0
C619 C 0.01038 0.48686 0.98656 0.0
C620 C 0.01441 0.46845 0.96042 0.0
C621 C 0.99349 0.41985 0.9561 0.0
C622 C 0.9976 0.40274 0.93146 0.0
C623 C 0.02228 0.43388 0.9109 0.0
C624 C 0.04278 0.4822 0.91493 0.0
C625 C 0.03881 0.4995 0.93955 0.0
H626 H 0.02541 0.42057 0.89183 0.0
H627 H 0.98316 0.58722 0.13038 0.0
H628 H 0.70278 0.10978 0.39195 0.0
H629 H 0.61698 0.07071 0.39373 0.0
H630 H 0.61015 0.05025 0.30895 0.0
H631 H 0.69581 0.0893 0.307 0.0
H632 H 0.54944 0.0797 0.32698 0.0
H633 H 0.59124 0.96222 0.34881 0.0
H634 H 0.63311 0.93056 0.37438 0.0
H635 H 0.56646 0.93806 0.44596 0.0
H636 H 0.52467 0.97044 0.42085 0.0
H637 H 0.31281 0.90622 0.30984 0.0
H638 H 0.39857 0.94861 0.31046 0.0
H639 H 0.39703 0.95123 0.39606 0.0
H640 H 0.31114 0.90763 0.39555 0.0
H641 H 0.46245 0.93334 0.37953 0.0
H642 H 0.41904 0.04822 0.35902 0.0
H643 H 0.37812 0.08241 0.33485 0.0
H644 H 0.44821 0.0831 0.26286 0.0
H645 H 0.48908 0.04828 0.28654 0.0
C646 C 0.68299 0.09734 0.37367 0.0
C647 C 0.70592 0.10238 0.34935 0.0
C648 C 0.63403 0.07489 0.37474 0.0
C649 C 0.60729 0.05717 0.35151 0.0
C650 C 0.63019 0.06362 0.3271 0.0
C651 C 0.67909 0.08581 0.32603 0.0
C652 C 0.55537 0.03066 0.35265 0.0
C653 C 0.53034 0.04743 0.33823 0.0
C654 C 0.53064 0.98931 0.36795 0.0
C655 C 0.5552 0.9692 0.38299 0.0
C656 C 0.58576 0.95743 0.37003 0.0
C657 C 0.60944 0.93931 0.38444 0.0
C658 C 0.60255 0.93242 0.41179 0.0
C659 C 0.57181 0.94348 0.42478 0.0
C660 C 0.5481 0.96168 0.41047 0.0
C661 C 0.33076 0.91559 0.32879 0.0
C662 C 0.30534 0.90384 0.35265 0.0
C663 C 0.37976 0.94005 0.32912 0.0
C664 C 0.40426 0.95389 0.3533 0.0
C665 C 0.37889 0.94108 0.37717 0.0
C666 C 0.32984 0.91623 0.37685 0.0
C667 C 0.45629 0.9821 0.35363 0.0
C668 C 0.48141 0.96569 0.36834 0.0
C669 C 0.48114 0.02408 0.3388 0.0
C670 C 0.4568 0.04524 0.32451 0.0
C671 C 0.42548 0.05535 0.338 0.0
C672 C 0.40233 0.07489 0.32439 0.0
C673 C 0.41047 0.08482 0.29732 0.0
C674 C 0.44189 0.07533 0.28382 0.0
C675 C 0.46509 0.05574 0.29733 0.0
H676 H 0.39251 0.09994 0.28682 0.0
H677 H 0.62095 0.91844 0.42292 0.0
loop_
_geom_bond_atom_site_label_1
_geom_bond_atom_site_label_2
_geom_bond_distance
_geom_bond_site_symmetry_2
_ccdc_geom_bond_type
In0 O1 2.294 . S
In0 O2 2.326 . S
In0 O6 2.266 1_554 S
In0 O7 2.326 1_554 S
In0 O8 2.266 . S
In0 O9 2.326 . S
In0 O11 2.294 . S
In0 O12 2.326 . S
O1 In0 2.294 . S
O1 C10 1.240 . S
O2 In0 2.326 . S
O2 C10 1.252 . S
C3 O6 1.252 . S
C3 O7 1.260 . S
C4 O11 1.240 . S
C4 O12 1.252 . S
C5 O8 1.252 . S
C5 O9 1.260 . S
O6 In0 2.266 1_556 S
O6 C3 1.252 . S
O7 In0 2.326 1_556 S
O7 C3 1.260 . S
O8 In0 2.266 . S
O8 C5 1.252 . S
O9 In0 2.326 . S
O9 C5 1.260 . S
C10 O1 1.240 . S
C10 O2 1.252 . S
O11 In0 2.294 . S
O11 C4 1.240 . S
O12 In0 2.326 . S
O12 C4 1.252 . S
In13 O14 2.294 . S
In13 O15 2.326 . S
In13 O19 2.266 . S
In13 O20 2.326 . S
In13 O21 2.266 . S
In13 O22 2.326 . S
In13 O24 2.294 . S
In13 O25 2.326 . S
O14 In13 2.294 . S
O14 C23 1.240 . S
O15 In13 2.326 . S
O15 C23 1.252 . S
C16 O19 1.252 . S
C16 O20 1.260 . S
C17 O24 1.240 . S
C17 O25 1.252 . S
C18 O21 1.252 . S
C18 O22 1.260 . S
O19 In13 2.266 . S
O19 C16 1.252 . S
O20 In13 2.326 . S
O20 C16 1.260 . S
O21 In13 2.266 . S
O21 C18 1.252 . S
O22 In13 2.326 . S
O22 C18 1.260 . S
C23 O14 1.240 . S
C23 O15 1.252 . S
O24 In13 2.294 . S
O24 C17 1.240 . S
O25 In13 2.326 . S
O25 C17 1.252 . S
In26 O27 2.294 . S
In26 O28 2.326 . S
In26 O32 2.266 . S
In26 O33 2.326 . S
In26 O34 2.266 . S
In26 O35 2.326 . S
In26 O37 2.294 . S
In26 O38 2.326 . S
O27 In26 2.294 . S
O27 C36 1.240 . S
O28 In26 2.326 . S
O28 C36 1.252 . S
C29 O32 1.252 . S
C29 O33 1.260 . S
C30 O37 1.240 . S
C30 O38 1.252 . S
C31 O34 1.252 . S
C31 O35 1.260 . S
O32 In26 2.266 . S
O32 C29 1.252 . S
O33 In26 2.326 . S
O33 C29 1.260 . S
O34 In26 2.266 . S
O34 C31 1.252 . S
O35 In26 2.326 . S
O35 C31 1.260 . S
C36 O27 1.240 . S
C36 O28 1.252 . S
O37 In26 2.294 . S
O37 C30 1.240 . S
O38 In26 2.326 . S
O38 C30 1.252 . S
In39 O40 2.294 . S
In39 O41 2.326 . S
In39 O45 2.266 1_554 S
In39 O46 2.326 1_554 S
In39 O47 2.266 . S
In39 O48 2.326 . S
In39 O50 2.294 . S
In39 O51 2.326 . S
O40 In39 2.294 . S
O40 C49 1.240 . S
O41 In39 2.326 . S
O41 C49 1.252 . S
C42 O45 1.252 . S
C42 O46 1.260 . S
C43 O50 1.240 . S
C43 O51 1.252 . S
C44 O47 1.252 . S
C44 O48 1.260 . S
O45 In39 2.266 1_556 S
O45 C42 1.252 . S
O46 In39 2.326 1_556 S
O46 C42 1.260 . S
O47 In39 2.266 . S
O47 C44 1.252 . S
O48 In39 2.326 . S
O48 C44 1.260 . S
C49 O40 1.240 . S
C49 O41 1.252 . S
O50 In39 2.294 . S
O50 C43 1.240 . S
O51 In39 2.326 . S
O51 C43 1.252 . S
In52 O53 2.294 . S
In52 O54 2.326 . S
In52 O58 2.266 . S
In52 O59 2.326 . S
In52 O60 2.266 . S
In52 O61 2.326 . S
In52 O63 2.294 . S
In52 O64 2.326 . S
O53 In52 2.294 . S
O53 C62 1.240 . S
O54 In52 2.326 . S
O54 C62 1.252 . S
C55 O58 1.252 . S
C55 O59 1.260 . S
C56 O63 1.240 . S
C56 O64 1.252 . S
C57 O60 1.252 . S
C57 O61 1.260 . S
O58 In52 2.266 . S
O58 C55 1.252 . S
O59 In52 2.326 . S
O59 C55 1.260 . S
O60 In52 2.266 . S
O60 C57 1.252 . S
O61 In52 2.326 . S
O61 C57 1.260 . S
C62 O53 1.240 . S
C62 O54 1.252 . S
O63 In52 2.294 . S
O63 C56 1.240 . S
O64 In52 2.326 . S
O64 C56 1.252 . S
In65 O66 2.294 . S
In65 O67 2.326 . S
In65 O71 2.266 . S
In65 O72 2.326 . S
In65 O73 2.266 . S
In65 O74 2.326 . S
In65 O76 2.294 . S
In65 O77 2.326 . S
O66 In65 2.294 . S
O66 C75 1.240 . S
O67 In65 2.326 . S
O67 C75 1.252 . S
C68 O71 1.252 . S
C68 O72 1.260 . S
C69 O76 1.240 . S
C69 O77 1.252 . S
C70 O73 1.252 . S
C70 O74 1.260 . S
O71 In65 2.266 . S
O71 C68 1.252 . S
O72 In65 2.326 . S
O72 C68 1.260 . S
O73 In65 2.266 . S
O73 C70 1.252 . S
O74 In65 2.326 . S
O74 C70 1.260 . S
C75 O66 1.240 . S
C75 O67 1.252 . S
O76 In65 2.294 . S
O76 C69 1.240 . S
O77 In65 2.326 . S
O77 C69 1.252 . S
H78 C96 0.951 . S
H79 C98 0.951 . S
H80 C100 0.950 . S
H81 C101 0.950 . S
H82 C103 0.950 . S
H83 C106 0.950 . S
H84 C107 0.950 . S
H85 C109 0.950 . S
H86 C110 0.950 . S
H87 C111 0.951 . S
H88 C113 0.951 . S
H89 C115 0.950 . S
H90 C116 0.950 . S
H91 C118 0.950 . S
H92 C121 0.950 . S
H93 C122 0.950 . S
H94 C124 0.950 . S
H95 C125 0.950 . S
C96 H78 0.951 . S
C96 C97 1.366 . S
C96 C98 1.388 . S
C97 C96 1.366 . S
C97 C101 1.385 . S
C98 H79 0.951 . S
C98 C96 1.388 . S
C98 C99 1.366 . S
C99 C98 1.366 . S
C99 C100 1.414 . S
C99 C102 1.499 . S
C100 H80 0.950 . S
C100 C99 1.414 . S
C100 C101 1.374 . S
C101 H81 0.950 . S
C101 C97 1.385 . S
C101 C100 1.374 . S
C102 C99 1.499 . S
C102 C103 1.373 . S
C102 C104 1.389 . S
C103 H82 0.950 . S
C103 C102 1.373 . S
C103 C119 1.377 . S
C104 C102 1.389 . S
C104 C105 1.524 . S
C104 C118 1.377 . S
C105 C104 1.524 . S
C105 C106 1.397 . S
C105 C110 1.363 . S
C106 H83 0.950 . S
C106 C105 1.397 . S
C106 C107 1.334 . S
C107 H84 0.950 . S
C107 C106 1.334 . S
C107 C108 1.287 . S
C108 C107 1.287 . S
C108 C109 1.524 . S
C108 H127 0.913 . S
C109 H85 0.950 . S
C109 C108 1.524 . S
C109 C110 1.415 . S
C110 H86 0.950 . S
C110 C105 1.363 . S
C110 C109 1.415 . S
C111 H87 0.951 . S
C111 C112 1.366 . S
C111 C113 1.388 . S
C112 C111 1.366 . S
C112 C116 1.385 . S
C113 H88 0.951 . S
C113 C111 1.388 . S
C113 C114 1.366 . S
C114 C113 1.366 . S
C114 C115 1.414 . S
C114 C117 1.499 . S
C115 H89 0.950 . S
C115 C114 1.414 . S
C115 C116 1.374 . S
C116 H90 0.950 . S
C116 C112 1.385 . S
C116 C115 1.374 . S
C117 C114 1.499 . S
C117 C118 1.373 . S
C117 C119 1.389 . S
C118 H91 0.950 . S
C118 C104 1.377 . S
C118 C117 1.373 . S
C119 C103 1.377 . S
C119 C117 1.389 . S
C119 C120 1.524 . S
C120 C119 1.524 . S
C120 C121 1.397 . S
C120 C125 1.363 . S
C121 H92 0.950 . S
C121 C120 1.397 . S
C121 C122 1.334 . S
C122 H93 0.950 . S
C122 C121 1.334 . S
C122 C123 1.287 . S
C123 C122 1.287 . S
C123 C124 1.524 . S
C123 H126 0.999 . S
C124 H94 0.950 . S
C124 C123 1.524 . S
C124 C125 1.415 . S
C125 H95 0.950 . S
C125 C120 1.363 . S
C125 C124 1.415 . S
H126 C123 0.999 . S
H127 C108 0.913 . S
H128 C146 0.951 . S
H129 C148 0.951 1_455 S
H130 C150 0.950 . S
H131 C151 0.950 . S
H132 C153 0.950 . S
H133 C156 0.950 . S
H134 C157 0.950 1_655 S
H135 C159 0.950 . S
H136 C160 0.950 . S
H137 C161 0.951 . S
H138 C163 0.951 1_655 S
H139 C165 0.950 . S
H140 C166 0.950 . S
H141 C168 0.950 . S
H142 C171 0.950 . S
H143 C172 0.950 1_455 S
H144 C174 0.950 . S
H145 C175 0.950 . S
C146 H128 0.951 . S
C146 C147 1.366 . S
C146 C148 1.388 . S
C147 C146 1.366 . S
C147 C151 1.385 . S
C148 H129 0.951 1_655 S
C148 C146 1.388 . S
C148 C149 1.366 . S
C149 C148 1.366 . S
C149 C150 1.414 . S
C149 C152 1.499 . S
C150 H130 0.950 . S
C150 C149 1.414 . S
C150 C151 1.374 . S
C151 H131 0.950 . S
C151 C147 1.385 . S
C151 C150 1.374 . S
C152 C149 1.499 . S
C152 C153 1.373 . S
C152 C154 1.389 1_655 S
C153 H132 0.950 . S
C153 C152 1.373 . S
C153 C169 1.377 . S
C154 C152 1.389 1_455 S
C154 C155 1.524 . S
C154 C168 1.377 . S
C155 C154 1.524 . S
C155 C156 1.397 1_455 S
C155 C160 1.363 . S
C156 H133 0.950 . S
C156 C155 1.397 1_655 S
C156 C157 1.334 1_655 S
C157 H134 0.950 1_455 S
C157 C156 1.334 1_455 S
C157 C158 1.287 . S
C158 C157 1.287 . S
C158 C159 1.524 . S
C158 H177 0.913 . S
C159 H135 0.950 . S
C159 C158 1.524 . S
C159 C160 1.415 . S
C160 H136 0.950 . S
C160 C155 1.363 . S
C160 C159 1.415 . S
C161 H137 0.951 . S
C161 C162 1.366 . S
C161 C163 1.388 . S
C162 C161 1.366 . S
C162 C166 1.385 . S
C163 H138 0.951 1_455 S
C163 C161 1.388 . S
C163 C164 1.366 . S
C164 C163 1.366 . S
C164 C165 1.414 . S
C164 C167 1.499 . S
C165 H139 0.950 . S
C165 C164 1.414 . S
C165 C166 1.374 . S
C166 H140 0.950 . S
C166 C162 1.385 . S
C166 C165 1.374 . S
C167 C164 1.499 . S
C167 C168 1.373 . S
C167 C169 1.389 1_455 S
C168 H141 0.950 . S
C168 C154 1.377 . S
C168 C167 1.373 . S
C169 C153 1.377 . S
C169 C167 1.389 1_655 S
C169 C170 1.524 . S
C170 C169 1.524 . S
C170 C171 1.397 1_655 S
C170 C175 1.363 . S
C171 H142 0.950 . S
C171 C170 1.397 1_455 S
C171 C172 1.334 1_455 S
C172 H143 0.950 1_655 S
C172 C171 1.334 1_655 S
C172 C173 1.287 . S
C173 C172 1.287 . S
C173 C174 1.524 . S
C173 H176 0.999 . S
C174 H144 0.950 . S
C174 C173 1.524 . S
C174 C175 1.415 . S
C175 H145 0.950 . S
C175 C170 1.363 . S
C175 C174 1.415 . S
H176 C173 0.999 . S
H177 C158 0.913 . S
H178 C196 0.951 . S
H179 C198 0.951 . S
H180 C200 0.950 . S
H181 C201 0.950 . S
H182 C203 0.950 . S
H183 C206 0.950 . S
H184 C207 0.950 . S
H185 C209 0.950 . S
H186 C210 0.950 . S
H187 C211 0.951 . S
H188 C213 0.951 . S
H189 C215 0.950 . S
H190 C216 0.950 . S
H191 C218 0.950 . S
H192 C221 0.950 . S
H193 C222 0.950 . S
H194 C224 0.950 . S
H195 C225 0.950 . S
C196 H178 0.951 . S
C196 C197 1.366 . S
C196 C198 1.388 . S
C197 C196 1.366 . S
C197 C201 1.385 . S
C198 H179 0.951 . S
C198 C196 1.388 . S
C198 C199 1.366 . S
C199 C198 1.366 . S
C199 C200 1.414 . S
C199 C202 1.499 . S
C200 H180 0.950 . S
C200 C199 1.414 . S
C200 C201 1.374 . S
C201 H181 0.950 . S
C201 C197 1.385 . S
C201 C200 1.374 . S
C202 C199 1.499 . S
C202 C203 1.373 . S
C202 C204 1.389 . S
C203 H182 0.950 . S
C203 C202 1.373 . S
C203 C219 1.377 1_545 S
C204 C202 1.389 . S
C204 C205 1.524 . S
C204 C218 1.377 1_545 S
C205 C204 1.524 . S
C205 C206 1.397 1_545 S
C205 C210 1.363 . S
C206 H183 0.950 . S
C206 C205 1.397 1_565 S
C206 C207 1.334 . S
C207 H184 0.950 . S
C207 C206 1.334 . S
C207 C208 1.287 . S
C208 C207 1.287 . S
C208 C209 1.524 1_565 S
C208 H227 0.913 . S
C209 H185 0.950 . S
C209 C208 1.524 1_545 S
C209 C210 1.415 . S
C210 H186 0.950 . S
C210 C205 1.363 . S
C210 C209 1.415 . S
C211 H187 0.951 . S
C211 C212 1.366 . S
C211 C213 1.388 . S
C212 C211 1.366 . S
C212 C216 1.385 . S
C213 H188 0.951 . S
C213 C211 1.388 . S
C213 C214 1.366 . S
C214 C213 1.366 . S
C214 C215 1.414 . S
C214 C217 1.499 . S
C215 H189 0.950 . S
C215 C214 1.414 . S
C215 C216 1.374 . S
C216 H190 0.950 . S
C216 C212 1.385 . S
C216 C215 1.374 . S
C217 C214 1.499 . S
C217 C218 1.373 . S
C217 C219 1.389 . S
C218 H191 0.950 . S
C218 C204 1.377 1_565 S
C218 C217 1.373 . S
C219 C203 1.377 1_565 S
C219 C217 1.389 . S
C219 C220 1.524 . S
C220 C219 1.524 . S
C220 C221 1.397 1_565 S
C220 C225 1.363 . S
C221 H192 0.950 . S
C221 C220 1.397 1_545 S
C221 C222 1.334 . S
C222 H193 0.950 . S
C222 C221 1.334 . S
C222 C223 1.287 . S
C223 C222 1.287 . S
C223 C224 1.524 1_545 S
C223 H226 0.999 . S
C224 H194 0.950 . S
C224 C223 1.524 1_565 S
C224 C225 1.415 . S
C225 H195 0.950 . S
C225 C220 1.363 . S
C225 C224 1.415 . S
H226 C223 0.999 . S
H227 C208 0.913 . S
H228 C246 0.951 . S
H229 C248 0.951 . S
H230 C250 0.950 . S
H231 C251 0.950 . S
H232 C253 0.950 . S
H233 C256 0.950 . S
H234 C257 0.950 . S
H235 C259 0.950 . S
H236 C260 0.950 . S
H237 C261 0.951 . S
H238 C263 0.951 . S
H239 C265 0.950 . S
H240 C266 0.950 . S
H241 C268 0.950 . S
H242 C271 0.950 . S
H243 C272 0.950 . S
H244 C274 0.950 . S
H245 C275 0.950 . S
C246 H228 0.951 . S
C246 C247 1.366 . S
C246 C248 1.388 . S
C247 C246 1.366 . S
C247 C251 1.385 . S
C248 H229 0.951 . S
C248 C246 1.388 . S
C248 C249 1.366 . S
C249 C248 1.366 . S
C249 C250 1.414 . S
C249 C252 1.499 . S
C250 H230 0.950 . S
C250 C249 1.414 . S
C250 C251 1.374 . S
C251 H231 0.950 . S
C251 C247 1.385 . S
C251 C250 1.374 . S
C252 C249 1.499 . S
C252 C253 1.373 . S
C252 C254 1.389 . S
C253 H232 0.950 . S
C253 C252 1.373 . S
C253 C269 1.377 . S
C254 C252 1.389 . S
C254 C255 1.524 . S
C254 C268 1.377 . S
C255 C254 1.524 . S
C255 C256 1.397 . S
C255 C260 1.363 . S
C256 H233 0.950 . S
C256 C255 1.397 . S
C256 C257 1.334 . S
C257 H234 0.950 . S
C257 C256 1.334 . S
C257 C258 1.287 . S
C258 C257 1.287 . S
C258 C259 1.524 . S
C258 H277 0.913 . S
C259 H235 0.950 . S
C259 C258 1.524 . S
C259 C260 1.415 . S
C260 H236 0.950 . S
C260 C255 1.363 . S
C260 C259 1.415 . S
C261 H237 0.951 . S
C261 C262 1.366 . S
C261 C263 1.388 . S
C262 C261 1.366 . S
C262 C266 1.385 . S
C263 H238 0.951 . S
C263 C261 1.388 . S
C263 C264 1.366 . S
C264 C263 1.366 . S
C264 C265 1.414 . S
C264 C267 1.499 . S
C265 H239 0.950 . S
C265 C264 1.414 . S
C265 C266 1.374 . S
C266 H240 0.950 . S
C266 C262 1.385 . S
C266 C265 1.374 . S
C267 C264 1.499 . S
C267 C268 1.373 . S
C267 C269 1.389 . S
C268 H241 0.950 . S
C268 C254 1.377 . S
C268 C267 1.373 . S
C269 C253 1.377 . S
C269 C267 1.389 . S
C269 C270 1.524 . S
C270 C269 1.524 . S
C270 C271 1.397 . S
C270 C275 1.363 . S
C271 H242 0.950 . S
C271 C270 1.397 . S
C271 C272 1.334 . S
C272 H243 0.950 . S
C272 C271 1.334 . S
C272 C273 1.287 . S
C273 C272 1.287 . S
C273 C274 1.524 . S
C273 H276 0.999 . S
C274 H244 0.950 . S
C274 C273 1.524 . S
C274 C275 1.415 . S
C275 H245 0.950 . S
C275 C270 1.363 . S
C275 C274 1.415 . S
H276 C273 0.999 . S
H277 C258 0.913 . S
H278 C296 0.951 . S
H279 C298 0.951 . S
H280 C300 0.950 . S
H281 C301 0.950 . S
H282 C303 0.950 . S
H283 C306 0.950 . S
H284 C307 0.950 . S
H285 C309 0.950 . S
H286 C310 0.950 . S
H287 C311 0.951 . S
H288 C313 0.951 . S
H289 C315 0.950 . S
H290 C316 0.950 . S
H291 C318 0.950 . S
H292 C321 0.950 . S
H293 C322 0.950 . S
H294 C324 0.950 . S
H295 C325 0.950 . S
C296 H278 0.951 . S
C296 C297 1.366 . S
C296 C298 1.388 . S
C297 C296 1.366 . S
C297 C301 1.385 . S
C298 H279 0.951 . S
C298 C296 1.388 . S
C298 C299 1.366 . S
C299 C298 1.366 . S
C299 C300 1.414 . S
C299 C302 1.499 . S
C300 H280 0.950 . S
C300 C299 1.414 . S
C300 C301 1.374 . S
C301 H281 0.950 . S
C301 C297 1.385 . S
C301 C300 1.374 . S
C302 C299 1.499 . S
C302 C303 1.373 1_455 S
C302 C304 1.389 . S
C303 H282 0.950 . S
C303 C302 1.373 1_655 S
C303 C319 1.377 . S
C304 C302 1.389 . S
C304 C305 1.524 . S
C304 C318 1.377 . S
C305 C304 1.524 . S
C305 C306 1.397 . S
C305 C310 1.363 . S
C306 H283 0.950 . S
C306 C305 1.397 . S
C306 C307 1.334 . S
C307 H284 0.950 . S
C307 C306 1.334 . S
C307 C308 1.287 . S
C308 C307 1.287 . S
C308 C309 1.524 . S
C308 H327 0.913 . S
C309 H285 0.950 . S
C309 C308 1.524 . S
C309 C310 1.415 . S
C310 H286 0.950 . S
C310 C305 1.363 . S
C310 C309 1.415 . S
C311 H287 0.951 . S
C311 C312 1.366 . S
C311 C313 1.388 . S
C312 C311 1.366 . S
C312 C316 1.385 . S
C313 H288 0.951 . S
C313 C311 1.388 . S
C313 C314 1.366 . S
C314 C313 1.366 . S
C314 C315 1.414 . S
C314 C317 1.499 . S
C315 H289 0.950 . S
C315 C314 1.414 . S
C315 C316 1.374 . S
C316 H290 0.950 . S
C316 C312 1.385 . S
C316 C315 1.374 . S
C317 C314 1.499 . S
C317 C318 1.373 1_655 S
C317 C319 1.389 . S
C318 H291 0.950 . S
C318 C304 1.377 . S
C318 C317 1.373 1_455 S
C319 C303 1.377 . S
C319 C317 1.389 . S
C319 C320 1.524 . S
C320 C319 1.524 . S
C320 C321 1.397 . S
C320 C325 1.363 . S
C321 H292 0.950 . S
C321 C320 1.397 . S
C321 C322 1.334 . S
C322 H293 0.950 . S
C322 C321 1.334 . S
C322 C323 1.287 . S
C323 C322 1.287 . S
C323 C324 1.524 . S
C323 H326 0.999 . S
C324 H294 0.950 . S
C324 C323 1.524 . S
C324 C325 1.415 . S
C325 H295 0.950 . S
C325 C320 1.363 . S
C325 C324 1.415 . S
H326 C323 0.999 . S
H327 C308 0.913 . S
H328 C346 0.951 . S
H329 C348 0.951 1_565 S
H330 C350 0.950 . S
H331 C351 0.950 . S
H332 C353 0.950 . S
H333 C356 0.950 . S
H334 C357 0.950 1_545 S
H335 C359 0.950 . S
H336 C360 0.950 . S
H337 C361 0.951 . S
H338 C363 0.951 1_545 S
H339 C365 0.950 . S
H340 C366 0.950 . S
H341 C368 0.950 . S
H342 C371 0.950 . S
H343 C372 0.950 1_565 S
H344 C374 0.950 . S
H345 C375 0.950 . S
C346 H328 0.951 . S
C346 C347 1.366 . S
C346 C348 1.388 . S
C347 C346 1.366 . S
C347 C351 1.385 . S
C348 H329 0.951 1_545 S
C348 C346 1.388 . S
C348 C349 1.366 . S
C349 C348 1.366 . S
C349 C350 1.414 . S
C349 C352 1.499 . S
C350 H330 0.950 . S
C350 C349 1.414 . S
C350 C351 1.374 . S
C351 H331 0.950 . S
C351 C347 1.385 . S
C351 C350 1.374 . S
C352 C349 1.499 . S
C352 C353 1.373 . S
C352 C354 1.389 1_545 S
C353 H332 0.950 . S
C353 C352 1.373 . S
C353 C369 1.377 . S
C354 C352 1.389 1_565 S
C354 C355 1.524 . S
C354 C368 1.377 . S
C355 C354 1.524 . S
C355 C356 1.397 1_565 S
C355 C360 1.363 . S
C356 H333 0.950 . S
C356 C355 1.397 1_545 S
C356 C357 1.334 1_545 S
C357 H334 0.950 1_565 S
C357 C356 1.334 1_565 S
C357 C358 1.287 . S
C358 C357 1.287 . S
C358 C359 1.524 . S
C358 H377 0.913 . S
C359 H335 0.950 . S
C359 C358 1.524 . S
C359 C360 1.415 . S
C360 H336 0.950 . S
C360 C355 1.363 . S
C360 C359 1.415 . S
C361 H337 0.951 . S
C361 C362 1.366 . S
C361 C363 1.388 . S
C362 C361 1.366 . S
C362 C366 1.385 . S
C363 H338 0.951 1_565 S
C363 C361 1.388 . S
C363 C364 1.366 . S
C364 C363 1.366 . S
C364 C365 1.414 . S
C364 C367 1.499 . S
C365 H339 0.950 . S
C365 C364 1.414 . S
C365 C366 1.374 . S
C366 H340 0.950 . S
C366 C362 1.385 . S
C366 C365 1.374 . S
C367 C364 1.499 . S
C367 C368 1.373 . S
C367 C369 1.389 1_565 S
C368 H341 0.950 . S
C368 C354 1.377 . S
C368 C367 1.373 . S
C369 C353 1.377 . S
C369 C367 1.389 1_545 S
C369 C370 1.524 . S
C370 C369 1.524 . S
C370 C371 1.397 1_545 S
C370 C375 1.363 . S
C371 H342 0.950 . S
C371 C370 1.397 1_565 S
C371 C372 1.334 1_565 S
C372 H343 0.950 1_545 S
C372 C371 1.334 1_545 S
C372 C373 1.287 . S
C373 C372 1.287 . S
C373 C374 1.524 . S
C373 H376 0.999 . S
C374 H344 0.950 . S
C374 C373 1.524 . S
C374 C375 1.415 . S
C375 H345 0.950 . S
C375 C370 1.363 . S
C375 C374 1.415 . S
H376 C373 0.999 . S
H377 C358 0.913 . S
H378 C396 0.951 . S
H379 C398 0.951 . S
H380 C400 0.950 . S
H381 C401 0.950 . S
H382 C403 0.950 . S
H383 C406 0.950 . S
H384 C407 0.950 . S
H385 C409 0.950 . S
H386 C410 0.950 . S
H387 C411 0.951 . S
H388 C413 0.951 . S
H389 C415 0.950 . S
H390 C416 0.950 . S
H391 C418 0.950 . S
H392 C421 0.950 . S
H393 C422 0.950 . S
H394 C424 0.950 . S
H395 C425 0.950 . S
C396 H378 0.951 . S
C396 C397 1.366 . S
C396 C398 1.388 . S
C397 C396 1.366 . S
C397 C401 1.385 . S
C398 H379 0.951 . S
C398 C396 1.388 . S
C398 C399 1.366 . S
C399 C398 1.366 . S
C399 C400 1.414 . S
C399 C402 1.499 . S
C400 H380 0.950 . S
C400 C399 1.414 . S
C400 C401 1.374 . S
C401 H381 0.950 . S
C401 C397 1.385 . S
C401 C400 1.374 . S
C402 C399 1.499 . S
C402 C403 1.373 . S
C402 C404 1.389 . S
C403 H382 0.950 . S
C403 C402 1.373 . S
C403 C419 1.377 . S
C404 C402 1.389 . S
C404 C405 1.524 1_554 S
C404 C418 1.377 . S
C405 C404 1.524 1_556 S
C405 C406 1.397 . S
C405 C410 1.363 1_556 S
C406 H383 0.950 . S
C406 C405 1.397 . S
C406 C407 1.334 . S
C407 H384 0.950 . S
C407 C406 1.334 . S
C407 C408 1.287 . S
C408 C407 1.287 . S
C408 C409 1.524 . S
C408 H427 0.913 . S
C409 H385 0.950 . S
C409 C408 1.524 . S
C409 C410 1.415 1_556 S
C410 H386 0.950 . S
C410 C405 1.363 1_554 S
C410 C409 1.415 1_554 S
C411 H387 0.951 . S
C411 C412 1.366 . S
C411 C413 1.388 . S
C412 C411 1.366 . S
C412 C416 1.385 . S
C413 H388 0.951 . S
C413 C411 1.388 . S
C413 C414 1.366 . S
C414 C413 1.366 . S
C414 C415 1.414 . S
C414 C417 1.499 . S
C415 H389 0.950 . S
C415 C414 1.414 . S
C415 C416 1.374 . S
C416 H390 0.950 . S
C416 C412 1.385 . S
C416 C415 1.374 . S
C417 C414 1.499 . S
C417 C418 1.373 . S
C417 C419 1.389 . S
C418 H391 0.950 . S
C418 C404 1.377 . S
C418 C417 1.373 . S
C419 C403 1.377 . S
C419 C417 1.389 . S
C419 C420 1.524 . S
C420 C419 1.524 . S
C420 C421 1.397 . S
C420 C425 1.363 . S
C421 H392 0.950 . S
C421 C420 1.397 . S
C421 C422 1.334 . S
C422 H393 0.950 . S
C422 C421 1.334 . S
C422 C423 1.287 . S
C423 C422 1.287 . S
C423 C424 1.524 . S
C423 H426 0.999 . S
C424 H394 0.950 . S
C424 C423 1.524 . S
C424 C425 1.415 . S
C425 H395 0.950 . S
C425 C420 1.363 . S
C425 C424 1.415 . S
H426 C423 0.999 . S
H427 C408 0.913 . S
H428 C446 0.951 . S
H429 C448 0.951 . S
H430 C450 0.950 . S
H431 C451 0.950 . S
H432 C453 0.948 . S
H433 C456 0.950 . S
H434 C457 0.950 . S
H435 C459 0.950 . S
H436 C460 0.950 1_455 S
H437 C461 0.951 . S
H438 C463 0.951 . S
H439 C465 0.950 . S
H440 C466 0.950 . S
H441 C468 0.948 . S
H442 C471 0.950 . S
H443 C472 0.950 . S
H444 C474 0.950 . S
H445 C475 0.950 1_655 S
C446 H428 0.951 . S
C446 C447 1.366 . S
C446 C448 1.388 . S
C447 C446 1.366 . S
C447 C451 1.385 . S
C448 H429 0.951 . S
C448 C446 1.388 . S
C448 C449 1.366 . S
C449 C448 1.366 . S
C449 C450 1.414 . S
C449 C452 1.499 . S
C450 H430 0.950 . S
C450 C449 1.414 . S
C450 C451 1.374 . S
C451 H431 0.950 . S
C451 C447 1.385 . S
C451 C450 1.374 . S
C452 C449 1.499 . S
C452 C453 1.372 1_655 S
C452 C454 1.389 . S
C453 H432 0.948 . S
C453 C452 1.372 1_455 S
C453 C469 1.376 . S
C454 C452 1.389 . S
C454 C455 1.524 . S
C454 C468 1.376 . S
C455 C454 1.524 . S
C455 C456 1.397 . S
C455 C460 1.363 . S
C456 H433 0.950 . S
C456 C455 1.397 . S
C456 C457 1.334 . S
C457 H434 0.950 . S
C457 C456 1.334 . S
C457 C458 1.287 . S
C458 C457 1.287 . S
C458 C459 1.524 . S
C458 H477 0.913 . S
C459 H435 0.950 . S
C459 C458 1.524 . S
C459 C460 1.415 . S
C460 H436 0.950 1_655 S
C460 C455 1.363 . S
C460 C459 1.415 . S
C461 H437 0.951 . S
C461 C462 1.366 . S
C461 C463 1.388 . S
C462 C461 1.366 . S
C462 C466 1.385 . S
C463 H438 0.951 . S
C463 C461 1.388 . S
C463 C464 1.366 . S
C464 C463 1.366 . S
C464 C465 1.414 . S
C464 C467 1.499 . S
C465 H439 0.950 . S
C465 C464 1.414 . S
C465 C466 1.374 . S
C466 H440 0.950 . S
C466 C462 1.385 . S
C466 C465 1.374 . S
C467 C464 1.499 . S
C467 C468 1.372 1_455 S
C467 C469 1.389 . S
C468 H441 0.948 . S
C468 C454 1.376 . S
C468 C467 1.372 1_655 S
C469 C453 1.376 . S
C469 C467 1.389 . S
C469 C470 1.524 . S
C470 C469 1.524 . S
C470 C471 1.397 . S
C470 C475 1.363 . S
C471 H442 0.950 . S
C471 C470 1.397 . S
C471 C472 1.334 . S
C472 H443 0.950 . S
C472 C471 1.334 . S
C472 C473 1.287 . S
C473 C472 1.287 . S
C473 C474 1.524 . S
C473 H476 0.999 . S
C474 H444 0.950 . S
C474 C473 1.524 . S
C474 C475 1.415 . S
C475 H445 0.950 1_455 S
C475 C470 1.363 . S
C475 C474 1.415 . S
H476 C473 0.999 . S
H477 C458 0.913 . S
H478 C496 0.951 . S
H479 C498 0.951 . S
H480 C500 0.950 1_565 S
H481 C501 0.950 . S
H482 C503 0.950 . S
H483 C506 0.950 1_565 S
H484 C507 0.950 1_565 S
H485 C509 0.950 . S
H486 C510 0.950 . S
H487 C511 0.951 . S
H488 C513 0.951 . S
H489 C515 0.950 1_545 S
H490 C516 0.950 . S
H491 C518 0.950 . S
H492 C521 0.950 1_545 S
H493 C522 0.950 1_545 S
H494 C524 0.950 . S
H495 C525 0.950 . S
C496 H478 0.951 . S
C496 C497 1.366 . S
C496 C498 1.388 . S
C497 C496 1.366 . S
C497 C501 1.385 . S
C498 H479 0.951 . S
C498 C496 1.388 . S
C498 C499 1.366 . S
C499 C498 1.366 . S
C499 C500 1.414 . S
C499 C502 1.499 . S
C500 H480 0.950 1_545 S
C500 C499 1.414 . S
C500 C501 1.374 . S
C501 H481 0.950 . S
C501 C497 1.385 . S
C501 C500 1.374 . S
C502 C499 1.499 . S
C502 C503 1.373 . S
C502 C504 1.389 . S
C503 H482 0.950 . S
C503 C502 1.373 . S
C503 C519 1.377 1_545 S
C504 C502 1.389 . S
C504 C505 1.524 . S
C504 C518 1.377 1_545 S
C505 C504 1.524 . S
C505 C506 1.397 . S
C505 C510 1.363 . S
C506 H483 0.950 1_545 S
C506 C505 1.397 . S
C506 C507 1.334 . S
C507 H484 0.950 1_545 S
C507 C506 1.334 . S
C507 C508 1.287 . S
C508 C507 1.287 . S
C508 C509 1.524 . S
C508 H527 0.913 . S
C509 H485 0.950 . S
C509 C508 1.524 . S
C509 C510 1.415 . S
C510 H486 0.950 . S
C510 C505 1.363 . S
C510 C509 1.415 . S
C511 H487 0.951 . S
C511 C512 1.366 . S
C511 C513 1.388 . S
C512 C511 1.366 . S
C512 C516 1.385 . S
C513 H488 0.951 . S
C513 C511 1.388 . S
C513 C514 1.366 . S
C514 C513 1.366 . S
C514 C515 1.414 . S
C514 C517 1.499 . S
C515 H489 0.950 1_565 S
C515 C514 1.414 . S
C515 C516 1.374 . S
C516 H490 0.950 . S
C516 C512 1.385 . S
C516 C515 1.374 . S
C517 C514 1.499 . S
C517 C518 1.373 . S
C517 C519 1.389 . S
C518 H491 0.950 . S
C518 C504 1.377 1_565 S
C518 C517 1.373 . S
C519 C503 1.377 1_565 S
C519 C517 1.389 . S
C519 C520 1.524 . S
C520 C519 1.524 . S
C520 C521 1.397 . S
C520 C525 1.363 . S
C521 H492 0.950 1_565 S
C521 C520 1.397 . S
C521 C522 1.334 . S
C522 H493 0.950 1_565 S
C522 C521 1.334 . S
C522 C523 1.287 . S
C523 C522 1.287 . S
C523 C524 1.524 . S
C523 H526 0.999 . S
C524 H494 0.950 . S
C524 C523 1.524 . S
C524 C525 1.415 . S
C525 H495 0.950 . S
C525 C520 1.363 . S
C525 C524 1.415 . S
H526 C523 0.999 . S
H527 C508 0.913 . S
H528 C546 0.951 . S
H529 C548 0.951 . S
H530 C550 0.950 . S
H531 C551 0.950 . S
H532 C553 0.950 . S
H533 C556 0.950 . S
H534 C557 0.950 . S
H535 C559 0.950 . S
H536 C560 0.950 . S
H537 C561 0.951 . S
H538 C563 0.951 . S
H539 C565 0.950 . S
H540 C566 0.950 . S
H541 C568 0.950 . S
H542 C571 0.950 . S
H543 C572 0.950 . S
H544 C574 0.950 . S
H545 C575 0.950 . S
C546 H528 0.951 . S
C546 C547 1.366 . S
C546 C548 1.388 . S
C547 C546 1.366 . S
C547 C551 1.385 . S
C548 H529 0.951 . S
C548 C546 1.388 . S
C548 C549 1.366 . S
C549 C548 1.366 . S
C549 C550 1.414 . S
C549 C552 1.499 . S
C550 H530 0.950 . S
C550 C549 1.414 . S
C550 C551 1.374 . S
C551 H531 0.950 . S
C551 C547 1.385 . S
C551 C550 1.374 . S
C552 C549 1.499 . S
C552 C553 1.373 . S
C552 C554 1.389 . S
C553 H532 0.950 . S
C553 C552 1.373 . S
C553 C569 1.377 . S
C554 C552 1.389 . S
C554 C555 1.524 . S
C554 C568 1.377 . S
C555 C554 1.524 . S
C555 C556 1.397 . S
C555 C560 1.363 . S
C556 H533 0.950 . S
C556 C555 1.397 . S
C556 C557 1.334 . S
C557 H534 0.950 . S
C557 C556 1.334 . S
C557 C558 1.287 . S
C558 C557 1.287 . S
C558 C559 1.524 . S
C558 H577 0.913 . S
C559 H535 0.950 . S
C559 C558 1.524 . S
C559 C560 1.415 . S
C560 H536 0.950 . S
C560 C555 1.363 . S
C560 C559 1.415 . S
C561 H537 0.951 . S
C561 C562 1.366 . S
C561 C563 1.388 . S
C562 C561 1.366 . S
C562 C566 1.385 . S
C563 H538 0.951 . S
C563 C561 1.388 . S
C563 C564 1.366 . S
C564 C563 1.366 . S
C564 C565 1.414 . S
C564 C567 1.499 . S
C565 H539 0.950 . S
C565 C564 1.414 . S
C565 C566 1.374 . S
C566 H540 0.950 . S
C566 C562 1.385 . S
C566 C565 1.374 . S
C567 C564 1.499 . S
C567 C568 1.373 . S
C567 C569 1.389 . S
C568 H541 0.950 . S
C568 C554 1.377 . S
C568 C567 1.373 . S
C569 C553 1.377 . S
C569 C567 1.389 . S
C569 C570 1.524 . S
C570 C569 1.524 . S
C570 C571 1.397 . S
C570 C575 1.363 . S
C571 H542 0.950 . S
C571 C570 1.397 . S
C571 C572 1.334 . S
C572 H543 0.950 . S
C572 C571 1.334 . S
C572 C573 1.287 . S
C573 C572 1.287 . S
C573 C574 1.524 . S
C573 H576 0.999 . S
C574 H544 0.950 . S
C574 C573 1.524 . S
C574 C575 1.415 . S
C575 H545 0.950 . S
C575 C570 1.363 . S
C575 C574 1.415 . S
H576 C573 0.999 . S
H577 C558 0.913 . S
H578 C596 0.951 . S
H579 C598 0.951 . S
H580 C600 0.950 . S
H581 C601 0.950 . S
H582 C603 0.950 . S
H583 C606 0.950 . S
H584 C607 0.950 . S
H585 C609 0.950 1_655 S
H586 C610 0.950 . S
H587 C611 0.951 . S
H588 C613 0.951 . S
H589 C615 0.950 . S
H590 C616 0.950 . S
H591 C618 0.950 . S
H592 C621 0.950 . S
H593 C622 0.950 . S
H594 C624 0.950 1_455 S
H595 C625 0.950 . S
C596 H578 0.951 . S
C596 C597 1.366 . S
C596 C598 1.388 . S
C597 C596 1.366 . S
C597 C601 1.385 1_554 S
C598 H579 0.951 . S
C598 C596 1.388 . S
C598 C599 1.366 . S
C599 C598 1.366 . S
C599 C600 1.414 1_554 S
C599 C602 1.499 . S
C600 H580 0.950 . S
C600 C599 1.414 1_556 S
C600 C601 1.374 . S
C601 H581 0.950 . S
C601 C597 1.385 1_556 S
C601 C600 1.374 . S
C602 C599 1.499 . S
C602 C603 1.373 1_554 S
C602 C604 1.389 1_655 S
C603 H582 0.950 . S
C603 C602 1.373 1_556 S
C603 C619 1.377 . S
C604 C602 1.389 1_455 S
C604 C605 1.524 . S
C604 C618 1.377 . S
C605 C604 1.524 . S
C605 C606 1.397 . S
C605 C610 1.363 1_455 S
C606 H583 0.950 . S
C606 C605 1.397 . S
C606 C607 1.334 . S
C607 H584 0.950 . S
C607 C606 1.334 . S
C607 C608 1.287 . S
C608 C607 1.287 . S
C608 C609 1.524 . S
C608 H627 0.913 . S
C609 H585 0.950 1_455 S
C609 C608 1.524 . S
C609 C610 1.415 1_455 S
C610 H586 0.950 . S
C610 C605 1.363 1_655 S
C610 C609 1.415 1_655 S
C611 H587 0.951 . S
C611 C612 1.366 1_556 S
C611 C613 1.388 . S
C612 C611 1.366 1_554 S
C612 C616 1.385 . S
C613 H588 0.951 . S
C613 C611 1.388 . S
C613 C614 1.366 1_556 S
C614 C613 1.366 1_554 S
C614 C615 1.414 . S
C614 C617 1.499 . S
C615 H589 0.950 . S
C615 C614 1.414 . S
C615 C616 1.374 . S
C616 H590 0.950 . S
C616 C612 1.385 . S
C616 C615 1.374 . S
C617 C614 1.499 . S
C617 C618 1.373 . S
C617 C619 1.389 1_454 S
C618 H591 0.950 . S
C618 C604 1.377 . S
C618 C617 1.373 . S
C619 C603 1.377 . S
C619 C617 1.389 1_656 S
C619 C620 1.524 . S
C620 C619 1.524 . S
C620 C621 1.397 . S
C620 C625 1.363 1_655 S
C621 H592 0.950 . S
C621 C620 1.397 . S
C621 C622 1.334 . S
C622 H593 0.950 . S
C622 C621 1.334 . S
C622 C623 1.287 . S
C623 C622 1.287 . S
C623 C624 1.524 . S
C623 H626 0.999 . S
C624 H594 0.950 1_655 S
C624 C623 1.524 . S
C624 C625 1.415 1_655 S
C625 H595 0.950 . S
C625 C620 1.363 1_455 S
C625 C624 1.415 1_455 S
H626 C623 0.999 . S
H627 C608 0.913 . S
H628 C646 0.951 . S
H629 C648 0.951 . S
H630 C650 0.950 . S
H631 C651 0.950 . S
H632 C653 0.950 . S
H633 C656 0.950 . S
H634 C657 0.950 . S
H635 C659 0.950 . S
H636 C660 0.950 . S
H637 C661 0.951 . S
H638 C663 0.951 . S
H639 C665 0.950 . S
H640 C666 0.950 . S
H641 C668 0.950 . S
H642 C671 0.950 . S
H643 C672 0.950 . S
H644 C674 0.950 . S
H645 C675 0.950 . S
C646 H628 0.951 . S
C646 C647 1.366 . S
C646 C648 1.388 . S
C647 C646 1.366 . S
C647 C651 1.385 . S
C648 H629 0.951 . S
C648 C646 1.388 . S
C648 C649 1.366 . S
C649 C648 1.366 . S
C649 C650 1.414 . S
C649 C652 1.499 . S
C650 H630 0.950 . S
C650 C649 1.414 . S
C650 C651 1.374 . S
C651 H631 0.950 . S
C651 C647 1.385 . S
C651 C650 1.374 . S
C652 C649 1.499 . S
C652 C653 1.373 . S
C652 C654 1.389 1_545 S
C653 H632 0.950 . S
C653 C652 1.373 . S
C653 C669 1.377 . S
C654 C652 1.389 1_565 S
C654 C655 1.524 . S
C654 C668 1.377 . S
C655 C654 1.524 . S
C655 C656 1.397 . S
C655 C660 1.363 . S
C656 H633 0.950 . S
C656 C655 1.397 . S
C656 C657 1.334 . S
C657 H634 0.950 . S
C657 C656 1.334 . S
C657 C658 1.287 . S
C658 C657 1.287 . S
C658 C659 1.524 . S
C658 H677 0.913 . S
C659 H635 0.950 . S
C659 C658 1.524 . S
C659 C660 1.415 . S
C660 H636 0.950 . S
C660 C655 1.363 . S
C660 C659 1.415 . S
C661 H637 0.951 . S
C661 C662 1.366 . S
C661 C663 1.388 . S
C662 C661 1.366 . S
C662 C666 1.385 . S
C663 H638 0.951 . S
C663 C661 1.388 . S
C663 C664 1.366 . S
C664 C663 1.366 . S
C664 C665 1.414 . S
C664 C667 1.499 . S
C665 H639 0.950 . S
C665 C664 1.414 . S
C665 C666 1.374 . S
C666 H640 0.950 . S
C666 C662 1.385 . S
C666 C665 1.374 . S
C667 C664 1.499 . S
C667 C668 1.373 . S
C667 C669 1.389 1_565 S
C668 H641 0.950 . S
C668 C654 1.377 . S
C668 C667 1.373 . S
C669 C653 1.377 . S
C669 C667 1.389 1_545 S
C669 C670 1.524 . S
C670 C669 1.524 . S
C670 C671 1.397 . S
C670 C675 1.363 . S
C671 H642 0.950 . S
C671 C670 1.397 . S
C671 C672 1.334 . S
C672 H643 0.950 . S
C672 C671 1.334 . S
C672 C673 1.287 . S
C673 C672 1.287 . S
C673 C674 1.524 . S
C673 H676 0.999 . S
C674 H644 0.950 . S
C674 C673 1.524 . S
C674 C675 1.415 . S
C675 H645 0.950 . S
C675 C670 1.363 . S
C675 C674 1.415 . S
H676 C673 0.999 . S
H677 C658 0.913 . S
C97 C69 1.263 . S
C112 C3 1.265 . S
C147 C16 1.265 . S
C162 C10 1.263 . S
C197 C23 1.263 . S
C212 C31 1.265 . S
C247 C42 1.265 . S
C262 C30 1.264 . S
C297 C57 1.265 . S
C312 C49 1.263 . S
C347 C70 1.265 . S
C362 C56 1.263 . S
C397 C5 1.407 . S
C412 C44 1.407 . S
C447 C18 1.407 . S
C462 C55 1.407 . S
C497 C68 1.407 . S
C512 C29 1.407 . S
C547 C75 1.377 . S
C562 C36 1.378 . S
C597 C43 1.377 . S
C612 C4 1.377 . S
C647 C17 1.377 . S
C662 C62 1.377 . S
