# Generated by pormake.
# Topology sow, (4)-cn, num edge types: 1
# Building blocks:
#     Node 0, Type 0, BuildingBlock: KOZSID_clean_sbu_0, # of connection points: 4
#     Node 1, Type 0, BuildingBlock: KOZSID_clean_sbu_0, # of connection points: 4
#     Node 2, Type 0, BuildingBlock: KOZSID_clean_sbu_0, # of connection points: 4
#     Node 3, Type 0, BuildingBlock: KOZSID_clean_sbu_0, # of connection points: 4
#     Node 4, Type 0, BuildingBlock: KOZSID_clean_sbu_0, # of connection points: 4
#     Node 5, Type 0, BuildingBlock: KOZSID_clean_sbu_0, # of connection points: 4
#     Node 6, Type 0, BuildingBlock: KOZSID_clean_sbu_0, # of connection points: 4
#     Node 7, Type 0, BuildingBlock: KOZSID_clean_sbu_0, # of connection points: 4
#     Edge 8, Type (0, 0), BuildingBlock: TEMPAE_clean_linker_10, # of connection points: 2
#     Edge 9, Type (0, 0), BuildingBlock: TEMPAE_clean_linker_10, # of connection points: 2
#     Edge 10, Type (0, 0), BuildingBlock: TEMPAE_clean_linker_10, # of connection points: 2
#     Edge 11, Type (0, 0), BuildingBlock: TEMPAE_clean_linker_10, # of connection points: 2
#     Edge 12, Type (0, 0), BuildingBlock: TEMPAE_clean_linker_10, # of connection points: 2
#     Edge 13, Type (0, 0), BuildingBlock: TEMPAE_clean_linker_10, # of connection points: 2
#     Edge 14, Type (0, 0), BuildingBlock: TEMPAE_clean_linker_10, # of connection points: 2
#     Edge 15, Type (0, 0), BuildingBlock: TEMPAE_clean_linker_10, # of connection points: 2
#     Edge 16, Type (0, 0), BuildingBlock: TEMPAE_clean_linker_10, # of connection points: 2
#     Edge 17, Type (0, 0), BuildingBlock: TEMPAE_clean_linker_10, # of connection points: 2
#     Edge 18, Type (0, 0), BuildingBlock: TEMPAE_clean_linker_10, # of connection points: 2
#     Edge 19, Type (0, 0), BuildingBlock: TEMPAE_clean_linker_10, # of connection points: 2
#     Edge 20, Type (0, 0), BuildingBlock: TEMPAE_clean_linker_10, # of connection points: 2
#     Edge 21, Type (0, 0), BuildingBlock: TEMPAE_clean_linker_10, # of connection points: 2
#     Edge 22, Type (0, 0), BuildingBlock: TEMPAE_clean_linker_10, # of connection points: 2
#     Edge 23, Type (0, 0), BuildingBlock: TEMPAE_clean_linker_10, # of connection points: 2
# Relax obj value: 0.058
# Max RMSD: 0.287
# Mean RMSD: 0.222
data_MOF--net-sow--node1-KOZSID_clean_sbu_0--edge1-TEMPAE_clean_linker_10
_symmetry_space_group_name_H-M    P1
_symmetry_Int_Tables_number       1
_symmetry_cell_setting            triclinic
loop_
_symmetry_equiv_pos_as_xyz
'x, y, z'
_cell_length_a     57.226492
_cell_length_b     16.359777
_cell_length_c     25.218419
_cell_angle_alpha  88.695611
_cell_angle_beta   90.248387
_cell_angle_gamma 90.099903
loop_
_atom_site_label
_atom_site_type_symbol
_atom_site_fract_x
_atom_site_fract_y
_atom_site_fract_z
_atom_type_partial_charge
C0 C 0.08993 0.9546 0.22157 0.0
C1 C 0.0747 0.89987 0.24656 0.0
C2 C 0.08413 0.82389 0.24244 0.0
C3 C 0.10432 0.83528 0.21447 0.0
N4 N 0.10887 0.91427 0.20161 0.0
Co5 Co 0.13299 0.95103 0.14805 0.0
N6 N 0.14727 0.83933 0.14347 0.0
C7 C 0.13841 0.77018 0.1652 0.0
C8 C 0.15136 0.7019 0.15511 0.0
C9 C 0.16967 0.72931 0.1249 0.0
C10 C 0.16694 0.81328 0.11849 0.0
N11 N 0.15595 0.98791 0.0927 0.0
C12 C 0.17535 0.95045 0.07391 0.0
C13 C 0.1883 0.00401 0.04193 0.0
C14 C 0.17618 0.07541 0.03836 0.0
C15 C 0.1569 0.06312 0.06946 0.0
N16 N 0.11979 0.06376 0.15483 0.0
C17 C 0.12691 0.13143 0.1282 0.0
C18 C 0.11727 0.20219 0.14615 0.0
C19 C 0.10249 0.17777 0.1858 0.0
C20 C 0.10347 0.09296 0.18863 0.0
N21 N 0.15632 0.97531 0.20475 0.0
C22 C 0.19205 0.9962 0.28206 0.0
C23 C 0.19019 0.0494 0.23798 0.0
C24 C 0.17212 0.03858 0.20034 0.0
C25 C 0.17559 0.93271 0.28644 0.0
C26 C 0.15819 0.92316 0.24776 0.0
N27 N 0.10966 0.92296 0.09199 0.0
C28 C 0.06848 0.91506 0.06967 0.0
C29 C 0.07172 0.84174 0.04294 0.0
C30 C 0.0949 0.81623 0.03552 0.0
C31 C 0.11354 0.85866 0.05916 0.0
C32 C 0.08755 0.95505 0.09277 0.0
H33 H 0.13094 0.83619 0.05285 0.0
H34 H 0.08379 0.0095 0.1136 0.0
H35 H 0.17127 0.08177 0.16778 0.0
H36 H 0.14647 0.87232 0.25271 0.0
C37 C 0.11839 0.77252 0.19619 0.0
C38 C 0.08489 0.04304 0.21343 0.0
C39 C 0.18202 0.8643 0.08402 0.0
C40 C 0.14314 0.12642 0.08772 0.0
H41 H 0.0578 0.91108 0.26351 0.0
H42 H 0.07645 0.76646 0.25563 0.0
H43 H 0.14787 0.63954 0.16803 0.0
H44 H 0.1831 0.69122 0.10838 0.0
H45 H 0.20517 0.99394 0.02412 0.0
H46 H 0.18178 0.13179 0.01898 0.0
H47 H 0.12029 0.26401 0.13151 0.0
H48 H 0.09087 0.21723 0.20725 0.0
H49 H 0.20219 0.10029 0.23329 0.0
H50 H 0.17619 0.88962 0.31966 0.0
H51 H 0.05114 0.93954 0.07557 0.0
H52 H 0.09865 0.76257 0.01271 0.0
C53 C 0.40414 0.08482 0.80945 0.0
C54 C 0.40198 0.15245 0.84146 0.0
C55 C 0.3798 0.18192 0.83401 0.0
C56 C 0.36959 0.13137 0.79799 0.0
N57 N 0.3838 0.07066 0.78329 0.0
Co58 Co 0.37674 0.98723 0.72938 0.0
N59 N 0.35104 0.05405 0.69788 0.0
C60 C 0.3424 0.12346 0.71792 0.0
C61 C 0.3278 0.16479 0.6835 0.0
C62 C 0.32682 0.11799 0.63935 0.0
C63 C 0.34068 0.04955 0.64953 0.0
N64 N 0.3698 0.90355 0.67558 0.0
C65 C 0.35592 0.90726 0.63153 0.0
C66 C 0.35481 0.83155 0.60793 0.0
C67 C 0.36826 0.779 0.63843 0.0
C68 C 0.37682 0.82504 0.67911 0.0
N69 N 0.40286 0.92322 0.76058 0.0
C70 C 0.40637 0.84269 0.75553 0.0
C71 C 0.42703 0.81749 0.7789 0.0
C72 C 0.43704 0.88694 0.79922 0.0
C73 C 0.42194 0.9507 0.78696 0.0
N74 N 0.35462 0.9306 0.77904 0.0
C75 C 0.3228 0.85181 0.85069 0.0
C76 C 0.31797 0.85953 0.79609 0.0
C77 C 0.33392 0.89869 0.7613 0.0
C78 C 0.34497 0.87864 0.86722 0.0
C79 C 0.36047 0.91763 0.83128 0.0
N80 N 0.39887 0.04076 0.68051 0.0
C81 C 0.43344 0.03121 0.62702 0.0
C82 C 0.4343 0.11665 0.61936 0.0
C83 C 0.4161 0.16235 0.64148 0.0
C84 C 0.39894 0.12365 0.67251 0.0
C85 C 0.41547 0.99482 0.65644 0.0
H86 H 0.38608 0.1614 0.6909 0.0
H87 H 0.41566 0.92932 0.66162 0.0
H88 H 0.32894 0.9058 0.72019 0.0
H89 H 0.37709 0.93877 0.84617 0.0
C90 C 0.35057 0.15324 0.76604 0.0
C91 C 0.42555 0.03635 0.80216 0.0
C92 C 0.34166 0.97849 0.61446 0.0
C93 C 0.39325 0.79956 0.71793 0.0
H94 H 0.41489 0.18087 0.86612 0.0
H95 H 0.37279 0.2381 0.84924 0.0
H96 H 0.31934 0.22302 0.68925 0.0
H97 H 0.31684 0.13256 0.60387 0.0
H98 H 0.34489 0.81551 0.57304 0.0
H99 H 0.37159 0.71507 0.63139 0.0
H100 H 0.43473 0.75716 0.7781 0.0
H101 H 0.45364 0.89073 0.81978 0.0
H102 H 0.30157 0.83825 0.78023 0.0
H103 H 0.35022 0.87112 0.90815 0.0
H104 H 0.44699 0.99163 0.61265 0.0
H105 H 0.41503 0.22791 0.63587 0.0
C106 C 0.58451 0.44095 0.75547 0.0
C107 C 0.5685 0.49878 0.73703 0.0
C108 C 0.57803 0.57396 0.74583 0.0
C109 C 0.59923 0.55887 0.76935 0.0
N110 N 0.60432 0.47853 0.77431 0.0
Co111 Co 0.63009 0.43208 0.82043 0.0
N112 N 0.64334 0.54171 0.83692 0.0
C113 C 0.63415 0.61437 0.82224 0.0
C114 C 0.6479 0.67945 0.83602 0.0
C115 C 0.66709 0.64561 0.8608 0.0
C116 C 0.66387 0.56155 0.86097 0.0
N117 N 0.65392 0.38302 0.8693 0.0
C118 C 0.67246 0.4175 0.89368 0.0
C119 C 0.68426 0.36036 0.92527 0.0
C120 C 0.67322 0.28728 0.91938 0.0
C121 C 0.6552 0.30357 0.88494 0.0
N122 N 0.61832 0.32186 0.80037 0.0
C123 C 0.62742 0.24919 0.81523 0.0
C124 C 0.61859 0.18497 0.78736 0.0
C125 C 0.60222 0.219 0.75391 0.0
C126 C 0.6015 0.30176 0.76492 0.0
N127 N 0.65293 0.43079 0.76072 0.0
C128 C 0.69373 0.46049 0.69929 0.0
C129 C 0.69118 0.38913 0.7303 0.0
C130 C 0.67082 0.37513 0.76033 0.0
C131 C 0.67433 0.51234 0.69525 0.0
C132 C 0.65422 0.4964 0.72588 0.0
N133 N 0.60784 0.4403 0.88086 0.0
C134 C 0.56688 0.43659 0.90367 0.0
C135 C 0.56882 0.51075 0.93059 0.0
C136 C 0.59162 0.53923 0.94019 0.0
C137 C 0.61083 0.50111 0.91681 0.0
C138 C 0.58664 0.40184 0.88022 0.0
H139 H 0.62788 0.52578 0.92497 0.0
H140 H 0.5844 0.3464 0.85948 0.0
H141 H 0.67016 0.32042 0.7846 0.0
H142 H 0.64031 0.54017 0.7231 0.0
C143 C 0.61357 0.61797 0.79228 0.0
C144 C 0.58031 0.35088 0.75688 0.0
C145 C 0.68002 0.50265 0.8865 0.0
C146 C 0.64317 0.24375 0.85728 0.0
H147 H 0.5514 0.48985 0.72039 0.0
H148 H 0.56983 0.63277 0.73861 0.0
H149 H 0.64466 0.74371 0.82796 0.0
H150 H 0.68174 0.67891 0.87694 0.0
H151 H 0.69986 0.36945 0.94833 0.0
H152 H 0.67878 0.22831 0.93513 0.0
H153 H 0.62262 0.12069 0.79275 0.0
H154 H 0.59004 0.18552 0.72956 0.0
H155 H 0.7046 0.34343 0.73067 0.0
H156 H 0.6749 0.56651 0.66978 0.0
H157 H 0.55013 0.40675 0.89886 0.0
H158 H 0.59479 0.59357 0.96275 0.0
C159 C 0.90082 0.25644 0.25007 0.0
C160 C 0.89794 0.17711 0.2325 0.0
C161 C 0.87564 0.15368 0.24531 0.0
C162 C 0.86612 0.21859 0.27095 0.0
N163 N 0.88099 0.28213 0.27415 0.0
Co164 Co 0.87566 0.38309 0.31481 0.0
N165 N 0.85085 0.33075 0.35874 0.0
C166 C 0.84094 0.2575 0.35006 0.0
C167 C 0.82873 0.22794 0.39304 0.0
C168 C 0.83048 0.28739 0.43022 0.0
C169 C 0.84268 0.35239 0.40685 0.0
N170 N 0.87013 0.48516 0.35446 0.0
C171 C 0.85545 0.50056 0.39569 0.0
C172 C 0.85347 0.58445 0.40246 0.0
C173 C 0.86743 0.62204 0.36526 0.0
C174 C 0.87694 0.55998 0.33695 0.0
N175 N 0.90109 0.43291 0.27183 0.0
C176 C 0.90494 0.5132 0.26418 0.0
C177 C 0.92472 0.52882 0.23476 0.0
C178 C 0.93389 0.45329 0.22386 0.0
C179 C 0.91921 0.3958 0.24749 0.0
N180 N 0.85206 0.42053 0.26199 0.0
C181 C 0.81683 0.46123 0.18712 0.0
C182 C 0.81229 0.45948 0.24179 0.0
C183 C 0.83002 0.44009 0.27822 0.0
C184 C 0.84025 0.45506 0.17202 0.0
C185 C 0.85732 0.4299 0.20921 0.0
N186 N 0.89914 0.34604 0.36671 0.0
C187 C 0.93786 0.36154 0.40268 0.0
C188 C 0.93844 0.27829 0.41782 0.0
C189 C 0.91788 0.23269 0.41173 0.0
C190 C 0.89872 0.26701 0.38542 0.0
C191 C 0.91784 0.39456 0.37842 0.0
H192 H 0.88419 0.22749 0.3776 0.0
H193 H 0.91816 0.45791 0.36564 0.0
H194 H 0.82539 0.438 0.31949 0.0
H195 H 0.87463 0.41709 0.19485 0.0
C196 C 0.84771 0.21101 0.30694 0.0
C197 C 0.92234 0.30645 0.24482 0.0
C198 C 0.84145 0.43804 0.42529 0.0
C199 C 0.89264 0.56941 0.29448 0.0
H200 H 0.91058 0.13724 0.21509 0.0
H201 H 0.86828 0.09304 0.24173 0.0
H202 H 0.82045 0.1687 0.39781 0.0
H203 H 0.82252 0.28477 0.46907 0.0
H204 H 0.84233 0.6165 0.42939 0.0
H205 H 0.86989 0.68712 0.35883 0.0
H206 H 0.93235 0.58783 0.22507 0.0
H207 H 0.94969 0.44175 0.20182 0.0
H208 H 0.79494 0.46669 0.25692 0.0
H209 H 0.845 0.46617 0.13126 0.0
H210 H 0.95308 0.40029 0.40659 0.0
H211 H 0.91674 0.16951 0.42512 0.0
C212 C 0.90167 0.55934 0.95952 0.0
C213 C 0.89815 0.63151 0.98624 0.0
C214 C 0.87478 0.64903 0.98206 0.0
C215 C 0.86536 0.5873 0.95276 0.0
N216 N 0.88131 0.53186 0.93849 0.0
Co217 Co 0.87543 0.43602 0.89297 0.0
N218 N 0.84563 0.48302 0.86437 0.0
C219 C 0.83405 0.54606 0.88565 0.0
C220 C 0.8135 0.56417 0.8602 0.0
C221 C 0.81151 0.50771 0.82137 0.0
C222 C 0.83108 0.45742 0.82508 0.0
N223 N 0.86957 0.33898 0.84821 0.0
C224 C 0.85295 0.32468 0.81058 0.0
C225 C 0.85438 0.24484 0.79322 0.0
C226 C 0.8721 0.20778 0.82126 0.0
C227 C 0.88054 0.26642 0.8543 0.0
N228 N 0.90523 0.39048 0.9216 0.0
C229 C 0.91199 0.31201 0.92022 0.0
C230 C 0.93403 0.29989 0.94088 0.0
C231 C 0.9416 0.37575 0.95587 0.0
C232 C 0.92373 0.42996 0.9433 0.0
N233 N 0.85791 0.38315 0.95136 0.0
C234 C 0.82801 0.35392 0.03703 0.0
C235 C 0.82035 0.34234 0.98507 0.0
C236 C 0.83572 0.35491 0.94291 0.0
C237 C 0.85193 0.36623 0.04559 0.0
C238 C 0.86649 0.38346 0.00214 0.0
N239 N 0.89315 0.49047 0.83588 0.0
C240 C 0.92918 0.49571 0.78689 0.0
C241 C 0.92803 0.58135 0.78365 0.0
C242 C 0.90771 0.61925 0.80173 0.0
C243 C 0.8904 0.57269 0.82712 0.0
C244 C 0.91145 0.45135 0.81277 0.0
H245 H 0.87574 0.60444 0.84353 0.0
H246 H 0.91357 0.38619 0.81794 0.0
H247 H 0.82892 0.34818 0.90353 0.0
H248 H 0.88421 0.40247 0.00994 0.0
C249 C 0.8436 0.58975 0.9276 0.0
C250 C 0.92429 0.51763 0.9548 0.0
C251 C 0.8336 0.38036 0.79567 0.0
C252 C 0.89953 0.25694 0.88924 0.0
H253 H 0.91105 0.66896 0.0056 0.0
H254 H 0.86606 0.70339 0.99553 0.0
H255 H 0.80119 0.61195 0.8693 0.0
H256 H 0.79653 0.5024 0.79564 0.0
H257 H 0.84316 0.2151 0.76489 0.0
H258 H 0.87798 0.14522 0.81823 0.0
H259 H 0.94397 0.24365 0.9421 0.0
H260 H 0.95837 0.38982 0.97349 0.0
H261 H 0.80215 0.32925 0.97682 0.0
H262 H 0.85913 0.36897 0.0851 0.0
H263 H 0.94442 0.46353 0.77299 0.0
H264 H 0.9057 0.685 0.79859 0.0
C265 C 0.59956 0.24628 0.45149 0.0
C266 C 0.58962 0.16958 0.44569 0.0
C267 C 0.60387 0.12813 0.41207 0.0
C268 C 0.62165 0.18163 0.39949 0.0
N269 N 0.6196 0.25364 0.42383 0.0
Co270 Co 0.64064 0.34961 0.41627 0.0
N271 N 0.65438 0.30696 0.35037 0.0
C272 C 0.64969 0.2344 0.32846 0.0
C273 C 0.65742 0.22983 0.27723 0.0
C274 C 0.66831 0.30305 0.26696 0.0
C275 C 0.66754 0.34685 0.31356 0.0
N276 N 0.66251 0.44467 0.40972 0.0
C277 C 0.67934 0.46244 0.37305 0.0
C278 C 0.69183 0.53166 0.3877 0.0
C279 C 0.68245 0.55781 0.43391 0.0
C280 C 0.66572 0.50171 0.44692 0.0
N281 N 0.62591 0.39346 0.48107 0.0
C282 C 0.63407 0.45365 0.51142 0.0
C283 C 0.61918 0.47281 0.55188 0.0
C284 C 0.60029 0.42199 0.54614 0.0
C285 C 0.6049 0.37466 0.50246 0.0
N286 N 0.66436 0.29196 0.46052 0.0
C287 C 0.7003 0.25546 0.53359 0.0
C288 C 0.67682 0.24992 0.54873 0.0
C289 C 0.65909 0.26653 0.51127 0.0
C290 C 0.70517 0.26874 0.47972 0.0
C291 C 0.68705 0.28685 0.44397 0.0
N292 N 0.61675 0.40802 0.37321 0.0
C293 C 0.59384 0.52979 0.35615 0.0
C294 C 0.57921 0.48839 0.3209 0.0
C295 C 0.58442 0.40628 0.31111 0.0
C296 C 0.60321 0.3676 0.33732 0.0
C297 C 0.61229 0.48878 0.38181 0.0
H298 H 0.60623 0.30419 0.32948 0.0
H299 H 0.62249 0.52244 0.40973 0.0
H300 H 0.64122 0.265 0.52466 0.0
H301 H 0.69181 0.30229 0.40391 0.0
C302 C 0.63579 0.1761 0.35474 0.0
C303 C 0.58936 0.31171 0.48214 0.0
C304 C 0.68455 0.41152 0.32658 0.0
C305 C 0.65274 0.50128 0.49372 0.0
H306 H 0.57334 0.14723 0.46227 0.0
H307 H 0.60051 0.06898 0.39521 0.0
H308 H 0.6553 0.17958 0.25043 0.0
H309 H 0.67764 0.31924 0.23096 0.0
H310 H 0.70679 0.56039 0.36977 0.0
H311 H 0.68779 0.61013 0.45645 0.0
H312 H 0.62109 0.5214 0.58001 0.0
H313 H 0.58477 0.42114 0.5705 0.0
H314 H 0.67222 0.24004 0.59001 0.0
H315 H 0.72304 0.27229 0.46606 0.0
H316 H 0.59103 0.59367 0.3644 0.0
H317 H 0.57364 0.37099 0.28464 0.0
C318 C 0.40328 0.82512 0.98715 0.0
C319 C 0.39978 0.76039 0.95356 0.0
C320 C 0.37695 0.73617 0.96025 0.0
C321 C 0.36786 0.78773 0.99725 0.0
N322 N 0.38347 0.84335 0.01339 0.0
Co323 Co 0.37849 0.92723 0.06756 0.0
N324 N 0.35144 0.86701 0.09859 0.0
C325 C 0.34084 0.80188 0.077 0.0
C326 C 0.32639 0.76148 0.11191 0.0
C327 C 0.32747 0.80505 0.15756 0.0
C328 C 0.34152 0.87302 0.14725 0.0
N329 N 0.37325 0.01308 0.12069 0.0
C330 C 0.35728 0.0169 0.16065 0.0
C331 C 0.35486 0.09776 0.1762 0.0
C332 C 0.37035 0.14411 0.1473 0.0
C333 C 0.38091 0.09074 0.11412 0.0
N334 N 0.40593 0.98469 0.03656 0.0
C335 C 0.41103 0.06413 0.04133 0.0
C336 C 0.43224 0.08445 0.01917 0.0
C337 C 0.44098 0.01276 0.99968 0.0
C338 C 0.42447 0.95265 0.01082 0.0
N339 N 0.3573 0.9877 0.0186 0.0
C340 C 0.32443 0.06178 0.94787 0.0
C341 C 0.34739 0.0433 0.93175 0.0
C342 C 0.36333 0.00532 0.9672 0.0
C343 C 0.32018 0.05379 0.00273 0.0
C344 C 0.33631 0.01517 0.03652 0.0
N345 N 0.39983 0.86796 0.11605 0.0
C346 C 0.43597 0.86775 0.16553 0.0
C347 C 0.43669 0.78192 0.16604 0.0
C348 C 0.41745 0.74045 0.14468 0.0
C349 C 0.39929 0.78443 0.1199 0.0
C350 C 0.41737 0.90938 0.14082 0.0
H351 H 0.38551 0.75045 0.10123 0.0
H352 H 0.41785 0.97529 0.13927 0.0
H353 H 0.38017 0.98717 0.95232 0.0
H354 H 0.33111 0.00478 0.07694 0.0
C355 C 0.34818 0.77125 0.02834 0.0
C356 C 0.42571 0.86652 0.99504 0.0
C357 C 0.34218 0.94774 0.17995 0.0
C358 C 0.39813 0.11121 0.07644 0.0
H359 H 0.41263 0.73188 0.92865 0.0
H360 H 0.36866 0.68303 0.94358 0.0
H361 H 0.31718 0.70453 0.10598 0.0
H362 H 0.31869 0.78809 0.19404 0.0
H363 H 0.3423 0.12299 0.20309 0.0
H364 H 0.3729 0.20958 0.14889 0.0
H365 H 0.44102 0.14307 0.01997 0.0
H366 H 0.45764 0.00623 0.98033 0.0
H367 H 0.353 0.05381 0.89156 0.0
H368 H 0.30393 0.0713 0.02047 0.0
H369 H 0.44993 0.90289 0.1831 0.0
H370 H 0.41702 0.67433 0.14395 0.0
C371 C 0.10249 0.13023 0.55998 0.0
C372 C 0.09215 0.20696 0.55773 0.0
C373 C 0.10385 0.25365 0.59357 0.0
C374 C 0.12058 0.20297 0.61546 0.0
N375 N 0.12035 0.12775 0.59483 0.0
Co376 Co 0.14099 0.03467 0.61449 0.0
N377 N 0.15002 0.08701 0.68182 0.0
C378 C 0.14354 0.1614 0.69811 0.0
C379 C 0.14887 0.17438 0.7503 0.0
C380 C 0.16003 0.10467 0.76747 0.0
C381 C 0.16155 0.05416 0.724 0.0
N382 N 0.16321 0.94399 0.63266 0.0
C383 C 0.17873 0.93666 0.67367 0.0
C384 C 0.19497 0.87555 0.66376 0.0
C385 C 0.18951 0.8441 0.61558 0.0
C386 C 0.17059 0.88785 0.59794 0.0
N387 N 0.13039 0.98083 0.54869 0.0
C388 C 0.14069 0.91835 0.52445 0.0
C389 C 0.12815 0.89187 0.48143 0.0
C390 C 0.1086 0.94062 0.47895 0.0
C391 C 0.1105 0.99398 0.52062 0.0
N392 N 0.16678 0.08782 0.5756 0.0
C393 C 0.20798 0.08483 0.51603 0.0
C394 C 0.18614 0.0948 0.49116 0.0
C395 C 0.16571 0.09677 0.52161 0.0
C396 C 0.20859 0.09541 0.5711 0.0
C397 C 0.18789 0.09743 0.59989 0.0
N398 N 0.11526 0.9785 0.6517 0.0
C399 C 0.09332 0.85408 0.66576 0.0
C400 C 0.07488 0.89757 0.68774 0.0
C401 C 0.07746 0.98207 0.6936 0.0
C402 C 0.09794 0.02116 0.67611 0.0
C403 C 0.11317 0.89551 0.64777 0.0
H404 H 0.0993 0.08625 0.68069 0.0
H405 H 0.12631 0.86029 0.62839 0.0
H406 H 0.14908 0.09879 0.50127 0.0
H407 H 0.18929 0.10111 0.64208 0.0
C408 C 0.13138 0.21526 0.66433 0.0
C409 C 0.09402 0.05923 0.53181 0.0
C410 C 0.1801 0.99302 0.71878 0.0
C411 C 0.15978 0.87923 0.54838 0.0
H412 H 0.07701 0.22596 0.53472 0.0
H413 H 0.09924 0.31455 0.60572 0.0
H414 H 0.14545 0.22849 0.77291 0.0
H415 H 0.16837 0.09571 0.80579 0.0
H416 H 0.2101 0.85728 0.68655 0.0
H417 H 0.19891 0.7973 0.59483 0.0
H418 H 0.13217 0.84099 0.45636 0.0
H419 H 0.09459 0.93731 0.45012 0.0
H420 H 0.18454 0.09761 0.44854 0.0
H421 H 0.22427 0.10309 0.59346 0.0
H422 H 0.09198 0.78874 0.66028 0.0
H423 H 0.06367 0.01775 0.71103 0.0
C424 C 0.28734 0.76434 0.8784 0.0
C425 C 0.30421 0.82411 0.89026 0.0
C426 C 0.26791 0.74871 0.91205 0.0
C427 C 0.26437 0.79636 0.95795 0.0
C428 C 0.28232 0.852 0.97205 0.0
C429 C 0.30206 0.8628 0.93915 0.0
C430 C 0.25132 0.68119 0.89722 0.0
C431 C 0.28047 0.90628 0.0195 0.0
C432 C 0.20088 0.84167 0.99592 0.0
C433 C 0.20109 0.82742 0.05079 0.0
C434 C 0.22109 0.83185 0.96546 0.0
C435 C 0.24138 0.79485 0.98813 0.0
C436 C 0.23994 0.76537 0.04167 0.0
C437 C 0.22042 0.78605 0.07311 0.0
C438 C 0.22095 0.86777 0.9103 0.0
C439 C 0.25963 0.71762 0.06743 0.0
H440 H 0.28901 0.73048 0.84218 0.0
H441 H 0.31536 0.90526 0.95085 0.0
H442 H 0.23824 0.66682 0.9284 0.0
H443 H 0.24211 0.69824 0.85979 0.0
H444 H 0.26139 0.62481 0.88932 0.0
H445 H 0.27615 0.96884 0.0053 0.0
H446 H 0.26687 0.88896 0.04838 0.0
H447 H 0.29742 0.90803 0.04093 0.0
H448 H 0.18551 0.86924 0.97768 0.0
H449 H 0.22064 0.77191 0.11531 0.0
H450 H 0.2197 0.81753 0.88182 0.0
H451 H 0.23718 0.90325 0.90374 0.0
H452 H 0.2059 0.90937 0.90279 0.0
H453 H 0.25252 0.66946 0.09465 0.0
H454 H 0.27045 0.75894 0.09177 0.0
H455 H 0.271 0.68841 0.03779 0.0
C456 C 0.20344 0.00213 0.37914 0.0
C457 C 0.20921 0.00922 0.32631 0.0
C458 C 0.22838 0.98162 0.41071 0.0
C459 C 0.26061 0.04047 0.43409 0.0
C460 C 0.24246 0.01455 0.3991 0.0
C461 C 0.23356 0.0135 0.32534 0.0
C462 C 0.21752 0.88672 0.41998 0.0
C463 C 0.26984 0.09767 0.43879 0.0
C464 C 0.30006 0.98079 0.5849 0.0
C465 C 0.32316 0.97187 0.57182 0.0
C466 C 0.28325 0.00601 0.54698 0.0
C467 C 0.2863 0.99606 0.4893 0.0
C468 C 0.31079 0.97161 0.47812 0.0
C469 C 0.32835 0.96738 0.51861 0.0
C470 C 0.26319 0.04695 0.57367 0.0
C471 C 0.32122 0.94017 0.42786 0.0
H472 H 0.18606 0.98107 0.39043 0.0
H473 H 0.24284 0.02727 0.2887 0.0
H474 H 0.22923 0.83723 0.43416 0.0
H475 H 0.20304 0.88722 0.44944 0.0
H476 H 0.21073 0.85862 0.38294 0.0
H477 H 0.2719 0.17031 0.42994 0.0
H478 H 0.26938 0.1404 0.47997 0.0
H479 H 0.29072 0.11087 0.42381 0.0
H480 H 0.29597 0.98085 0.62697 0.0
H481 H 0.34655 0.95703 0.50868 0.0
H482 H 0.24891 0.00208 0.58 0.0
H483 H 0.25779 0.1031 0.55291 0.0
H484 H 0.26752 0.06857 0.61412 0.0
H485 H 0.32634 0.87521 0.43461 0.0
H486 H 0.33777 0.97247 0.41785 0.0
H487 H 0.3103 0.9408 0.39396 0.0
C488 C 0.79108 0.55825 0.11937 0.0
C489 C 0.79712 0.46258 0.14505 0.0
C490 C 0.77091 0.57465 0.07022 0.0
C491 C 0.75341 0.50342 0.03937 0.0
C492 C 0.7525 0.39973 0.05303 0.0
C493 C 0.77049 0.35389 0.09934 0.0
C494 C 0.77145 0.66029 0.04773 0.0
C495 C 0.73426 0.34741 0.02817 0.0
C496 C 0.69814 0.57092 0.96409 0.0
C497 C 0.70106 0.52918 0.91705 0.0
C498 C 0.71623 0.57544 1.00188 0.0
C499 C 0.73753 0.53139 0.99404 0.0
C500 C 0.74159 0.50092 0.94246 0.0
C501 C 0.72325 0.49899 0.90496 0.0
C502 C 0.71129 0.62849 0.04853 0.0
C503 C 0.76527 0.46951 0.92671 0.0
H504 H 0.80106 0.60961 0.13355 0.0
H505 H 0.76888 0.28751 0.1046 0.0
H506 H 0.76067 0.66794 0.0114 0.0
H507 H 0.76545 0.70309 0.07832 0.0
H508 H 0.78977 0.67715 0.03811 0.0
H509 H 0.73326 0.28677 0.04864 0.0
H510 H 0.71709 0.37835 0.03079 0.0
H511 H 0.73837 0.33808 0.9859 0.0
H512 H 0.68118 0.59691 0.97271 0.0
H513 H 0.72579 0.46892 0.86755 0.0
H514 H 0.72703 0.64524 0.0707 0.0
H515 H 0.69847 0.5977 0.07519 0.0
H516 H 0.70292 0.68643 0.03464 0.0
H517 H 0.77896 0.51355 0.93864 0.0
H518 H 0.76651 0.46049 0.88328 0.0
H519 H 0.76898 0.41032 0.94705 0.0
C520 C 0.71145 0.49888 0.59853 0.0
C521 C 0.71533 0.47652 0.66713 0.0
C522 C 0.73626 0.50581 0.55484 0.0
C523 C 0.76529 0.49276 0.5794 0.0
C524 C 0.77041 0.47774 0.65013 0.0
C525 C 0.74426 0.46725 0.69549 0.0
C526 C 0.73207 0.53254 0.49877 0.0
C527 C 0.79605 0.50209 0.66841 0.0
C528 C 0.79978 0.42522 0.45692 0.0
C529 C 0.82172 0.46173 0.46241 0.0
C530 C 0.78317 0.42693 0.49759 0.0
C531 C 0.78491 0.48565 0.5386 0.0
C532 C 0.80532 0.53644 0.53743 0.0
C533 C 0.8243 0.51746 0.50369 0.0
C534 C 0.76538 0.35926 0.49751 0.0
C535 C 0.80718 0.61484 0.56714 0.0
H536 H 0.69401 0.50663 0.5824 0.0
H537 H 0.75974 0.47215 0.67841 0.0
H538 H 0.74851 0.53943 0.47614 0.0
H539 H 0.72044 0.48756 0.47977 0.0
H540 H 0.7231 0.59241 0.49886 0.0
H541 H 0.79729 0.56953 0.66914 0.0
H542 H 0.80958 0.47838 0.64163 0.0
H543 H 0.79908 0.48222 0.70959 0.0
H544 H 0.79628 0.38811 0.42274 0.0
H545 H 0.84079 0.54903 0.50861 0.0
H546 H 0.74806 0.3831 0.48615 0.0
H547 H 0.76486 0.32925 0.53703 0.0
H548 H 0.76965 0.31087 0.46888 0.0
H549 H 0.7905 0.63313 0.58511 0.0
H550 H 0.81265 0.66497 0.53941 0.0
H551 H 0.82119 0.60957 0.59759 0.0
C552 C 0.80802 0.32011 0.13577 0.0
C553 C 0.81038 0.37342 0.07768 0.0
C554 C 0.78768 0.33088 0.18512 0.0
C555 C 0.76462 0.39905 0.18656 0.0
C556 C 0.75943 0.46736 0.1337 0.0
C557 C 0.7912 0.44838 0.06073 0.0
C558 C 0.79244 0.27753 0.23311 0.0
C559 C 0.73571 0.51269 0.13775 0.0
C560 C 0.71833 0.33286 0.28819 0.0
C561 C 0.70853 0.40847 0.30131 0.0
C562 C 0.73569 0.32788 0.24919 0.0
C563 C 0.7483 0.39949 0.23348 0.0
C564 C 0.74207 0.47439 0.25808 0.0
C565 C 0.72071 0.47893 0.28529 0.0
C566 C 0.73794 0.24667 0.22235 0.0
C567 C 0.75554 0.55354 0.25105 0.0
H568 H 0.82114 0.27345 0.14265 0.0
H569 H 0.79398 0.47788 0.02195 0.0
H570 H 0.81145 0.27721 0.24158 0.0
H571 H 0.78308 0.29843 0.26868 0.0
H572 H 0.78756 0.21361 0.22441 0.0
H573 H 0.72356 0.49942 0.10515 0.0
H574 H 0.72464 0.49054 0.17033 0.0
H575 H 0.73839 0.57899 0.14316 0.0
H576 H 0.71042 0.27667 0.30302 0.0
H577 H 0.71315 0.53845 0.29049 0.0
H578 H 0.74761 0.20337 0.24883 0.0
H579 H 0.74652 0.25108 0.18321 0.0
H580 H 0.72037 0.21933 0.21613 0.0
H581 H 0.76424 0.56753 0.28922 0.0
H582 H 0.74351 0.60522 0.24179 0.0
H583 H 0.76904 0.55236 0.22005 0.0
C584 C 0.72372 0.35581 0.57705 0.0
C585 C 0.71854 0.27448 0.57358 0.0
C586 C 0.74025 0.39574 0.61769 0.0
C587 C 0.75418 0.31991 0.65138 0.0
C588 C 0.7469 0.23671 0.64239 0.0
C589 C 0.72912 0.2168 0.60624 0.0
C590 C 0.74177 0.57267 0.63324 0.0
C591 C 0.7585 0.16419 0.6708 0.0
C592 C 0.81761 0.33241 0.70706 0.0
C593 C 0.81393 0.35078 0.76051 0.0
C594 C 0.79863 0.31738 0.67218 0.0
C595 C 0.77508 0.32407 0.69052 0.0
C596 C 0.77195 0.3273 0.74672 0.0
C597 C 0.79119 0.34243 0.78033 0.0
C598 C 0.80427 0.299 0.6153 0.0
C599 C 0.74867 0.3131 0.77303 0.0
H600 H 0.73324 0.38703 0.60057 0.0
H601 H 0.72398 0.15355 0.60153 0.0
H602 H 0.73591 0.60078 0.67155 0.0
H603 H 0.75847 0.60907 0.63203 0.0
H604 H 0.73208 0.6192 0.60749 0.0
H605 H 0.75033 0.10468 0.66111 0.0
H606 H 0.77719 0.16073 0.65971 0.0
H607 H 0.75775 0.17017 0.71439 0.0
H608 H 0.83528 0.33405 0.69171 0.0
H609 H 0.78833 0.34934 0.82248 0.0
H610 H 0.80643 0.35693 0.59242 0.0
H611 H 0.7905 0.26238 0.59605 0.0
H612 H 0.82104 0.26523 0.61275 0.0
H613 H 0.74067 0.37242 0.78311 0.0
H614 H 0.75096 0.27833 0.81106 0.0
H615 H 0.73667 0.27791 0.74785 0.0
C616 C 0.28134 0.08889 0.92592 0.0
C617 C 0.30435 0.07413 0.90838 0.0
C618 C 0.26175 0.07846 0.89286 0.0
C619 C 0.26494 0.06023 0.83885 0.0
C620 C 0.2878 0.05642 0.81872 0.0
C621 C 0.30715 0.06105 0.8535 0.0
C622 C 0.23777 0.08711 0.91703 0.0
C623 C 0.29163 0.04905 0.75996 0.0
C624 C 0.21568 0.94581 0.77092 0.0
C625 C 0.20293 0.00912 0.74657 0.0
C626 C 0.23739 0.96107 0.79477 0.0
C627 C 0.24448 0.04275 0.8037 0.0
C628 C 0.23177 0.10734 0.77937 0.0
C629 C 0.21186 0.0894 0.74905 0.0
C630 C 0.25349 0.88972 0.80472 0.0
C631 C 0.23934 0.19516 0.78472 0.0
H632 H 0.27797 0.10597 0.96618 0.0
H633 H 0.32425 0.05215 0.83703 0.0
H634 H 0.23378 0.15307 0.92082 0.0
H635 H 0.22368 0.05881 0.89334 0.0
H636 H 0.23747 0.05916 0.9576 0.0
H637 H 0.27968 0.00456 0.7416 0.0
H638 H 0.28825 0.1092 0.74032 0.0
H639 H 0.30953 0.03025 0.75136 0.0
H640 H 0.20903 0.88387 0.77067 0.0
H641 H 0.20286 0.13913 0.72864 0.0
H642 H 0.24378 0.83192 0.8117 0.0
H643 H 0.26577 0.90064 0.83777 0.0
H644 H 0.26376 0.88047 0.76825 0.0
H645 H 0.23747 0.21338 0.8266 0.0
H646 H 0.22884 0.23767 0.75929 0.0
H647 H 0.25805 0.2021 0.77409 0.0
C648 C 0.30211 0.92807 0.2252 0.0
C649 C 0.32507 0.9597 0.22558 0.0
C650 C 0.28724 0.93363 0.26955 0.0
C651 C 0.29282 0.98882 0.31045 0.0
C652 C 0.31458 0.03136 0.30648 0.0
C653 C 0.33128 0.00724 0.26904 0.0
C654 C 0.26548 0.88148 0.26988 0.0
C655 C 0.3205 0.10455 0.3395 0.0
C656 C 0.23284 0.14498 0.41508 0.0
C657 C 0.22895 0.06643 0.48277 0.0
C658 C 0.25796 0.12104 0.35358 0.0
C659 C 0.27636 0.00439 0.35599 0.0
C660 C 0.26837 0.91121 0.41822 0.0
C661 C 0.24606 0.94557 0.48815 0.0
C662 C 0.26118 0.18134 0.30896 0.0
C663 C 0.27797 0.82486 0.41052 0.0
H664 H 0.29542 0.89791 0.1906 0.0
H665 H 0.3489 0.03101 0.27193 0.0
H666 H 0.25763 0.87428 0.30973 0.0
H667 H 0.25243 0.9085 0.24193 0.0
H668 H 0.26958 0.81956 0.2553 0.0
H669 H 0.30579 0.14804 0.33961 0.0
H670 H 0.32432 0.08668 0.38093 0.0
H671 H 0.33603 0.13807 0.324 0.0
H672 H 0.22249 0.20012 0.4122 0.0
H673 H 0.25664 0.90864 0.46358 0.0
H674 H 0.27154 0.15397 0.27684 0.0
H675 H 0.27026 0.23615 0.32401 0.0
H676 H 0.24379 0.20108 0.29389 0.0
H677 H 0.26332 0.78195 0.40374 0.0
H678 H 0.28714 0.80361 0.44713 0.0
H679 H 0.28975 0.82334 0.37579 0.0
C680 C 0.05138 0.12816 0.17458 0.0
C681 C 0.06027 0.07867 0.21655 0.0
C682 C 0.02981 0.16938 0.17817 0.0
C683 C 0.01498 0.15402 0.22228 0.0
C684 C 0.02291 0.09856 0.26258 0.0
C685 C 0.04589 0.0667 0.2611 0.0
C686 C 0.02333 0.229 0.134 0.0
C687 C 1.00665 0.0686 0.30563 0.0
C688 C 0.96511 0.29309 0.26886 0.0
C689 C 0.9463 0.26981 0.23667 0.0
C690 C 0.98758 0.25885 0.26329 0.0
C691 C 0.99136 0.19528 0.22655 0.0
C692 C 0.97239 0.17251 0.19337 0.0
C693 C 0.95069 0.21302 0.19698 0.0
C694 C 1.00693 0.29344 0.2969 0.0
C695 C 0.97456 0.10548 0.15354 0.0
H696 H 0.06168 0.13721 0.13897 0.0
H697 H 0.05245 0.03228 0.2951 0.0
H698 H 0.01647 0.19459 0.09987 0.0
H699 H 0.01003 0.27413 0.14603 0.0
H700 H 0.03905 0.26287 0.11989 0.0
H701 H 0.016 0.03178 0.33647 0.0
H702 H 0.99752 0.11996 0.32446 0.0
H703 H 0.99296 0.02967 0.28769 0.0
H704 H 0.96234 0.33904 0.29849 0.0
H705 H 0.9372 0.19993 0.16821 0.0
H706 H 0.00864 0.35992 0.28786 0.0
H707 H 0.02417 0.26462 0.29078 0.0
H708 H 1.00207 0.28747 0.33941 0.0
H709 H 0.97874 0.13312 0.11415 0.0
H710 H 0.95773 0.07223 0.14938 0.0
H711 H 0.98834 0.06047 0.1645 0.0
C712 C 0.46375 0.06771 0.7566 0.0
C713 C 0.44944 0.0756 0.80111 0.0
C714 C 0.48512 0.11031 0.75182 0.0
C715 C 0.49207 0.1665 0.7912 0.0
C716 C 0.47807 0.17197 0.8374 0.0
C717 C 0.45768 0.12375 0.84269 0.0
C718 C 0.49989 0.09445 0.70394 0.0
C719 C 0.48428 0.22846 0.88183 0.0
C720 C 0.5552 0.24324 0.80509 0.0
C721 C 0.55662 0.30904 0.76769 0.0
C722 C 0.53491 0.19526 0.81183 0.0
C723 C 0.51411 0.21719 0.78465 0.0
C724 C 0.51457 0.28735 0.75052 0.0
C725 C 0.53591 0.32886 0.73992 0.0
C726 C 0.53615 0.12096 0.84839 0.0
C727 C 0.49233 0.31909 0.7256 0.0
H728 H 0.45817 0.02834 0.725 0.0
H729 H 0.44825 0.12406 0.87974 0.0
H730 H 0.49381 0.13456 0.67075 0.0
H731 H 0.5187 0.10605 0.71156 0.0
H732 H 0.49784 0.03034 0.69105 0.0
H733 H 0.46825 0.25146 0.9012 0.0
H734 H 0.4944 0.19391 0.91249 0.0
H735 H 0.49483 0.28173 0.86802 0.0
H736 H 0.57033 0.22642 0.82871 0.0
H737 H 0.53616 0.37449 0.70849 0.0
H738 H 0.52392 0.07202 0.83624 0.0
H739 H 0.53165 0.13909 0.88919 0.0
H740 H 0.55411 0.09528 0.84975 0.0
H741 H 0.4948 0.37996 0.70606 0.0
H742 H 0.47857 0.32429 0.75625 0.0
H743 H 0.48592 0.27521 0.69612 0.0
C744 C 0.03134 0.88224 0.68228 0.0
C745 C 0.05286 0.85457 0.70232 0.0
C746 C 0.01059 0.83852 0.69257 0.0
C747 C 0.0113 0.76623 0.72467 0.0
C748 C 0.03313 0.73806 0.74482 0.0
C749 C 0.05355 0.78258 0.73337 0.0
C750 C 0.98801 0.86838 0.66778 0.0
C751 C 0.03547 0.66174 0.77915 0.0
C752 C 0.95555 0.69922 0.79536 0.0
C753 C 0.94859 0.63117 0.76615 0.0
C754 C 0.9757 0.74423 0.78186 0.0
C755 C 0.98924 0.7212 0.73781 0.0
C756 C 0.98208 0.65356 0.70752 0.0
C757 C 0.96196 0.60903 0.72224 0.0
C758 C 0.98275 0.81551 0.81545 0.0
C759 C 0.99601 0.62717 0.66024 0.0
H760 H 0.03088 0.93682 0.65722 0.0
H761 H 0.07018 0.76093 0.74893 0.0
H762 H 0.98046 0.81998 0.64273 0.0
H763 H 0.97505 0.88138 0.69901 0.0
H764 H 0.99049 0.92458 0.64289 0.0
H765 H 0.0512 0.62672 0.7676 0.0
H766 H 0.03812 0.67989 0.82086 0.0
H767 H 0.02011 0.62065 0.77713 0.0
H768 H 0.94563 0.71585 0.83 0.0
H769 H 0.95667 0.55683 0.69934 0.0
H770 H 0.98236 0.87288 0.79122 0.0
H771 H 1.00095 0.8074 0.82999 0.0
H772 H 0.971 0.82295 0.84991 0.0
H773 H 0.99896 0.67997 0.63264 0.0
H774 H 0.98718 0.57765 0.63829 0.0
H775 H 0.01341 0.6049 0.67369 0.0
C776 C 0.45542 0.66106 0.21397 0.0
C777 C 0.45773 0.73641 0.18659 0.0
C778 C 0.47511 0.61813 0.2334 0.0
C779 C 0.49777 0.65143 0.22596 0.0
C780 C 0.50028 0.72667 0.19762 0.0
C781 C 0.48033 0.7678 0.17807 0.0
C782 C 0.47162 0.53745 0.26257 0.0
C783 C 0.52404 0.76488 0.18898 0.0
C784 C 0.54526 0.58634 0.32484 0.0
C785 C 0.55838 0.53006 0.296 0.0
C786 C 0.52574 0.62645 0.30239 0.0
C787 C 0.51872 0.60942 0.24985 0.0
C788 C 0.5317 0.55235 0.22048 0.0
C789 C 0.55137 0.51371 0.24376 0.0
C790 C 0.51258 0.68724 0.33508 0.0
C791 C 0.52486 0.53237 0.16433 0.0
H792 H 0.43815 0.63607 0.22114 0.0
H793 H 0.4825 0.8247 0.15579 0.0
H794 H 0.48236 0.48938 0.24419 0.0
H795 H 0.47756 0.54251 0.3043 0.0
H796 H 0.45305 0.51752 0.26251 0.0
H797 H 0.52325 0.82011 0.16258 0.0
H798 H 0.53156 0.78249 0.22772 0.0
H799 H 0.53617 0.72025 0.17143 0.0
H800 H 0.55006 0.59851 0.36551 0.0
H801 H 0.56142 0.47133 0.22066 0.0
H802 H 0.49423 0.66677 0.3404 0.0
H803 H 0.51209 0.74754 0.31404 0.0
H804 H 0.52058 0.69529 0.37484 0.0
H805 H 0.50635 0.51207 0.16296 0.0
H806 H 0.536 0.4838 0.14767 0.0
H807 H 0.52629 0.58791 0.13848 0.0
C808 C 0.03038 0.82829 0.00689 0.0
C809 C 0.0511 0.79111 0.02549 0.0
C810 C 0.01034 0.78181 0.99461 0.0
C811 C 0.0107 0.69543 1.00107 0.0
C812 C 0.03166 0.65727 0.01875 0.0
C813 C 0.05149 0.70526 0.03064 0.0
C814 C 0.98854 0.82573 0.97598 0.0
C815 C 0.03299 0.56564 0.0264 0.0
C816 C 0.95172 0.58638 0.01909 0.0
C817 C 0.94688 0.55974 0.96768 0.0
C818 C 0.97243 0.62965 0.03064 0.0
C819 C 0.98905 0.64557 0.99006 0.0
C820 C 0.98455 0.6158 0.93855 0.0
C821 C 0.96359 0.57339 0.92802 0.0
C822 C 0.97634 0.6594 0.08617 0.0
C823 C 1.00182 0.62906 0.89434 0.0
H824 H 0.02974 0.89421 1.002 0.0
H825 H 0.06713 0.67538 0.04569 0.0
H826 H 0.98054 0.79438 0.94187 0.0
H827 H 0.97553 0.82486 0.00848 0.0
H828 H 0.99208 0.89041 0.96422 0.0
H829 H 0.05072 0.54482 0.03861 0.0
H830 H 0.02032 0.54524 0.05718 0.0
H831 H 0.02809 0.53512 0.98913 0.0
H832 H 0.93912 0.57407 0.05024 0.0
H833 H 0.96008 0.55178 0.88844 0.0
H834 H 0.97714 0.72718 0.08557 0.0
H835 H 0.99332 0.63665 0.10185 0.0
H836 H 0.96226 0.63928 0.11377 0.0
H837 H 0.99476 0.60954 0.85555 0.0
H838 H 0.01795 0.59373 0.90317 0.0
H839 H 1.00685 0.69444 0.89124 0.0
C840 C 0.54631 0.31659 0.46774 0.0
C841 C 0.56526 0.30202 0.50184 0.0
C842 C 0.52349 0.29572 0.48339 0.0
C843 C 0.51986 0.25778 0.53376 0.0
C844 C 0.53911 0.24553 0.56867 0.0
C845 C 0.56158 0.26785 0.55225 0.0
C846 C 0.50355 0.31103 0.44511 0.0
C847 C 0.53625 0.20504 0.62238 0.0
C848 C 0.4609 0.23878 0.60144 0.0
C849 C 0.45463 0.15714 0.59141 0.0
C850 C 0.48124 0.27416 0.57973 0.0
C851 C 0.49637 0.22617 0.5492 0.0
C852 C 0.48983 0.14546 0.53683 0.0
C853 C 0.46883 0.1129 0.55672 0.0
C854 C 0.48696 0.36237 0.59061 0.0
C855 C 0.5055 0.09215 0.50422 0.0
H856 H 0.54945 0.34216 0.42834 0.0
H857 H 0.57647 0.25542 0.57793 0.0
H858 H 0.49826 0.25253 0.42717 0.0
H859 H 0.4881 0.33548 0.46586 0.0
H860 H 0.50852 0.35456 0.4126 0.0
H861 H 0.55242 0.20781 0.64685 0.0
H862 H 0.52196 0.23485 0.64404 0.0
H863 H 0.53149 0.13994 0.61721 0.0
H864 H 0.45059 0.27496 0.62791 0.0
H865 H 0.46395 0.05177 0.54558 0.0
H866 H 0.48834 0.39748 0.55259 0.0
H867 H 0.50419 0.36671 0.61072 0.0
H868 H 0.47352 0.39169 0.61547 0.0
H869 H 0.50941 0.12276 0.46559 0.0
H870 H 0.49759 0.03144 0.49665 0.0
H871 H 0.52239 0.0826 0.52523 0.0
C872 C 0.45082 0.74585 0.01926 0.0
C873 C 0.44803 0.81922 0.99 0.0
C874 C 0.47055 0.69573 0.01308 0.0
C875 C 0.48812 0.71891 0.97624 0.0
C876 C 0.48554 0.79354 0.94684 0.0
C877 C 0.4654 0.84202 0.95346 0.0
C878 C 0.47216 0.61657 0.04489 0.0
C879 C 0.50385 0.82152 0.90755 0.0
C880 C 0.54805 0.61505 0.98759 0.0
C881 C 0.54753 0.55986 0.94545 0.0
C882 C 0.52902 0.66709 0.99795 0.0
C883 C 0.50848 0.66312 0.96647 0.0
C884 C 0.5074 0.60557 0.92535 0.0
C885 C 0.5269 0.55595 0.9149 0.0
C886 C 0.53113 0.728 0.04182 0.0
C887 C 0.48565 0.59688 0.89181 0.0
H888 H 0.43718 0.72654 0.0463 0.0
H889 H 0.46292 0.89612 0.92858 0.0
H890 H 0.47214 0.56425 0.01764 0.0
H891 H 0.48877 0.61401 0.06765 0.0
H892 H 0.45744 0.60877 0.07316 0.0
H893 H 0.50044 0.88432 0.89169 0.0
H894 H 0.5214 0.82023 0.92649 0.0
H895 H 0.50431 0.77923 0.87382 0.0
H896 H 0.56342 0.6184 0.01261 0.0
H897 H 0.52604 0.51548 0.88157 0.0
H898 H 0.51633 0.72121 0.0698 0.0
H899 H 0.5303 0.791 0.02463 0.0
H900 H 0.54773 0.7211 0.06446 0.0
H901 H 0.47021 0.58647 0.9176 0.0
H902 H 0.48693 0.54557 0.86386 0.0
H903 H 0.4825 0.65417 0.86855 0.0
C904 C 0.05127 0.05139 0.54375 0.0
C905 C 0.07023 0.06269 0.50952 0.0
C906 C 0.02902 0.08089 0.52978 0.0
C907 C 0.02586 0.12258 0.48045 0.0
C908 C 0.04492 0.13055 0.44485 0.0
C909 C 0.06685 0.09973 0.45971 0.0
C910 C 0.0093 0.07127 0.569 0.0
C911 C 0.04315 0.17809 0.39315 0.0
C912 C 0.96461 0.15481 0.42573 0.0
C913 C 0.96051 0.23765 0.43645 0.0
C914 C 0.98533 0.11566 0.44171 0.0
C915 C 1.00299 0.16105 0.46709 0.0
C916 C 0.99904 0.2442 0.47863 0.0
C917 C 0.97781 0.28123 0.46368 0.0
C918 C 0.98774 0.02514 0.43243 0.0
C919 C 0.01723 0.29388 0.50721 0.0
H920 H 0.05423 0.02434 0.58286 0.0
H921 H 0.08182 0.11093 0.43428 0.0
H922 H 0.0157 0.05341 0.60921 0.0
H923 H 0.99924 0.12889 0.57204 0.0
H924 H 0.99713 0.02328 0.55526 0.0
H925 H 0.0546 0.15132 0.36267 0.0
H926 H 0.02507 0.18057 0.37798 0.0
H927 H 0.04917 0.24169 0.39933 0.0
H928 H 0.9518 0.11996 0.40402 0.0
H929 H 0.97481 0.34435 0.47366 0.0
H930 H 0.97751 0.00647 0.39716 0.0
H931 H 0.98063 0.99098 0.46729 0.0
H932 H 1.00617 0.0062 0.4274 0.0
H933 H 0.02235 0.26228 0.54491 0.0
H934 H 0.01094 0.35622 0.51624 0.0
H935 H 0.03316 0.29963 0.48247 0.0
loop_
_geom_bond_atom_site_label_1
_geom_bond_atom_site_label_2
_geom_bond_distance
_geom_bond_site_symmetry_2
_ccdc_geom_bond_type
C0 C1 1.443 . S
C0 N4 1.376 . S
C0 C38 1.389 1_565 S
C1 C0 1.443 . S
C1 C2 1.340 . S
C1 H41 0.951 . S
C2 C1 1.340 . S
C2 C3 1.439 . S
C2 H42 0.950 . S
C3 C2 1.439 . S
C3 N4 1.374 . S
C3 C37 1.395 . S
N4 C0 1.376 . S
N4 C3 1.374 . S
N4 Co5 2.008 1_565 S
Co5 N4 2.008 1_545 S
Co5 N6 1.995 1_545 S
Co5 N11 2.008 . S
Co5 N16 1.995 . S
Co5 N21 2.282 . S
Co5 N27 2.282 1_545 S
N6 Co5 1.995 1_565 S
N6 C7 1.376 . S
N6 C10 1.383 . S
C7 N6 1.376 . S
C7 C8 1.446 . S
C7 C37 1.391 . S
C8 C7 1.446 . S
C8 C9 1.339 . S
C8 H43 0.949 . S
C9 C8 1.339 . S
C9 C10 1.439 . S
C9 H44 0.950 . S
C10 N6 1.383 . S
C10 C9 1.439 . S
C10 C39 1.392 . S
N11 Co5 2.008 . S
N11 C12 1.376 . S
N11 C15 1.374 . S
C12 N11 1.376 . S
C12 C13 1.443 . S
C12 C39 1.389 1_545 S
C13 C12 1.443 . S
C13 C14 1.340 . S
C13 H45 0.951 . S
C14 C13 1.340 . S
C14 C15 1.439 . S
C14 H46 0.950 . S
C15 N11 1.374 . S
C15 C14 1.439 . S
C15 C40 1.395 . S
N16 Co5 1.995 . S
N16 C17 1.376 . S
N16 C20 1.383 . S
C17 N16 1.376 . S
C17 C18 1.446 . S
C17 C40 1.391 . S
C18 C17 1.446 . S
C18 C19 1.339 . S
C18 H47 0.949 . S
C19 C18 1.339 . S
C19 C20 1.439 . S
C19 H48 0.950 . S
C20 N16 1.383 . S
C20 C19 1.439 . S
C20 C38 1.392 . S
N21 Co5 2.282 . S
N21 C24 1.332 . S
N21 C26 1.332 1_545 S
C22 C23 1.386 . S
C22 C25 1.388 . S
C23 C22 1.386 . S
C23 C24 1.382 . S
C23 H49 0.950 . S
C24 N21 1.332 . S
C24 C23 1.382 . S
C24 H35 0.952 . S
C25 C22 1.388 . S
C25 C26 1.382 1_545 S
C25 H50 0.950 1_545 S
C26 N21 1.332 1_565 S
C26 C25 1.382 1_565 S
C26 H36 0.948 . S
N27 Co5 2.282 1_565 S
N27 C31 1.332 . S
N27 C32 1.332 1_565 S
C28 C29 1.388 . S
C28 C32 1.382 1_565 S
C28 H51 0.950 1_565 S
C29 C28 1.388 . S
C29 C30 1.386 . S
C30 C29 1.386 . S
C30 C31 1.382 . S
C30 H52 0.950 . S
C31 N27 1.332 . S
C31 C30 1.382 . S
C31 H33 0.952 . S
C32 N27 1.332 1_545 S
C32 C28 1.382 1_545 S
C32 H34 0.948 . S
H33 C31 0.952 . S
H34 C32 0.948 . S
H35 C24 0.952 . S
H36 C26 0.948 . S
C37 C3 1.395 . S
C37 C7 1.391 . S
C38 C0 1.389 1_545 S
C38 C20 1.392 . S
C39 C10 1.392 . S
C39 C12 1.389 1_565 S
C40 C15 1.395 . S
C40 C17 1.391 . S
H41 C1 0.951 . S
H42 C2 0.950 . S
H43 C8 0.949 . S
H44 C9 0.950 . S
H45 C13 0.951 . S
H46 C14 0.950 . S
H47 C18 0.949 . S
H48 C19 0.950 . S
H49 C23 0.950 . S
H50 C25 0.950 1_565 S
H51 C28 0.950 1_545 S
H52 C30 0.950 . S
C53 C54 1.443 . S
C53 N57 1.376 . S
C53 C91 1.389 . S
C54 C53 1.443 . S
C54 C55 1.340 . S
C54 H94 0.951 . S
C55 C54 1.340 . S
C55 C56 1.439 . S
C55 H95 0.950 . S
C56 C55 1.439 . S
C56 N57 1.374 . S
C56 C90 1.395 . S
N57 C53 1.376 . S
N57 C56 1.374 . S
N57 Co58 2.008 . S
Co58 N57 2.008 . S
Co58 N59 1.995 . S
Co58 N64 2.008 1_545 S
Co58 N69 1.995 1_545 S
Co58 N74 2.282 . S
Co58 N80 2.282 . S
N59 Co58 1.995 . S
N59 C60 1.376 . S
N59 C63 1.383 . S
C60 N59 1.376 . S
C60 C61 1.446 . S
C60 C90 1.391 . S
C61 C60 1.446 . S
C61 C62 1.339 . S
C61 H96 0.949 . S
C62 C61 1.339 . S
C62 C63 1.439 . S
C62 H97 0.950 . S
C63 N59 1.383 . S
C63 C62 1.439 . S
C63 C92 1.392 1_545 S
N64 Co58 2.008 1_565 S
N64 C65 1.376 . S
N64 C68 1.374 . S
C65 N64 1.376 . S
C65 C66 1.443 . S
C65 C92 1.389 . S
C66 C65 1.443 . S
C66 C67 1.340 . S
C66 H98 0.951 . S
C67 C66 1.340 . S
C67 C68 1.439 . S
C67 H99 0.950 . S
C68 N64 1.374 . S
C68 C67 1.439 . S
C68 C93 1.395 . S
N69 Co58 1.995 1_565 S
N69 C70 1.376 . S
N69 C73 1.383 . S
C70 N69 1.376 . S
C70 C71 1.446 . S
C70 C93 1.391 . S
C71 C70 1.446 . S
C71 C72 1.339 . S
C71 H100 0.949 . S
C72 C71 1.339 . S
C72 C73 1.439 . S
C72 H101 0.950 . S
C73 N69 1.383 . S
C73 C72 1.439 . S
C73 C91 1.392 1_565 S
N74 Co58 2.282 . S
N74 C77 1.332 1_545 S
N74 C79 1.332 . S
C75 C76 1.386 . S
C75 C78 1.388 1_565 S
C76 C75 1.386 . S
C76 C77 1.382 . S
C76 H102 0.950 . S
C77 N74 1.332 1_565 S
C77 C76 1.382 . S
C77 H88 0.952 . S
C78 C75 1.388 1_545 S
C78 C79 1.382 . S
C78 H103 0.950 . S
C79 N74 1.332 . S
C79 C78 1.382 . S
C79 H89 0.948 . S
N80 Co58 2.282 . S
N80 C84 1.332 . S
N80 C85 1.332 1_545 S
C81 C82 1.388 . S
C81 C85 1.382 1_545 S
C81 H104 0.950 1_545 S
C82 C81 1.388 . S
C82 C83 1.386 . S
C83 C82 1.386 . S
C83 C84 1.382 . S
C83 H105 0.950 . S
C84 N80 1.332 . S
C84 C83 1.382 . S
C84 H86 0.952 . S
C85 N80 1.332 1_565 S
C85 C81 1.382 1_565 S
C85 H87 0.948 . S
H86 C84 0.952 . S
H87 C85 0.948 . S
H88 C77 0.952 . S
H89 C79 0.948 . S
C90 C56 1.395 . S
C90 C60 1.391 . S
C91 C53 1.389 . S
C91 C73 1.392 1_545 S
C92 C63 1.392 1_565 S
C92 C65 1.389 . S
C93 C68 1.395 . S
C93 C70 1.391 . S
H94 C54 0.951 . S
H95 C55 0.950 . S
H96 C61 0.949 . S
H97 C62 0.950 . S
H98 C66 0.951 . S
H99 C67 0.950 . S
H100 C71 0.949 . S
H101 C72 0.950 . S
H102 C76 0.950 . S
H103 C78 0.950 . S
H104 C81 0.950 1_565 S
H105 C83 0.950 . S
C106 C107 1.443 . S
C106 N110 1.376 . S
C106 C144 1.389 . S
C107 C106 1.443 . S
C107 C108 1.340 . S
C107 H147 0.951 . S
C108 C107 1.340 . S
C108 C109 1.439 . S
C108 H148 0.950 . S
C109 C108 1.439 . S
C109 N110 1.374 . S
C109 C143 1.395 . S
N110 C106 1.376 . S
N110 C109 1.374 . S
N110 Co111 2.008 . S
Co111 N110 2.008 . S
Co111 N112 1.995 . S
Co111 N117 2.008 . S
Co111 N122 1.995 . S
Co111 N127 2.282 . S
Co111 N133 2.282 . S
N112 Co111 1.995 . S
N112 C113 1.376 . S
N112 C116 1.383 . S
C113 N112 1.376 . S
C113 C114 1.446 . S
C113 C143 1.391 . S
C114 C113 1.446 . S
C114 C115 1.339 . S
C114 H149 0.949 . S
C115 C114 1.339 . S
C115 C116 1.439 . S
C115 H150 0.950 . S
C116 N112 1.383 . S
C116 C115 1.439 . S
C116 C145 1.392 . S
N117 Co111 2.008 . S
N117 C118 1.376 . S
N117 C121 1.374 . S
C118 N117 1.376 . S
C118 C119 1.443 . S
C118 C145 1.389 . S
C119 C118 1.443 . S
C119 C120 1.340 . S
C119 H151 0.951 . S
C120 C119 1.340 . S
C120 C121 1.439 . S
C120 H152 0.950 . S
C121 N117 1.374 . S
C121 C120 1.439 . S
C121 C146 1.395 . S
N122 Co111 1.995 . S
N122 C123 1.376 . S
N122 C126 1.383 . S
C123 N122 1.376 . S
C123 C124 1.446 . S
C123 C146 1.391 . S
C124 C123 1.446 . S
C124 C125 1.339 . S
C124 H153 0.949 . S
C125 C124 1.339 . S
C125 C126 1.439 . S
C125 H154 0.950 . S
C126 N122 1.383 . S
C126 C125 1.439 . S
C126 C144 1.392 . S
N127 Co111 2.282 . S
N127 C130 1.332 . S
N127 C132 1.332 . S
C128 C129 1.386 . S
C128 C131 1.388 . S
C129 C128 1.386 . S
C129 C130 1.382 . S
C129 H155 0.950 . S
C130 N127 1.332 . S
C130 C129 1.382 . S
C130 H141 0.952 . S
C131 C128 1.388 . S
C131 C132 1.382 . S
C131 H156 0.950 . S
C132 N127 1.332 . S
C132 C131 1.382 . S
C132 H142 0.948 . S
N133 Co111 2.282 . S
N133 C137 1.332 . S
N133 C138 1.332 . S
C134 C135 1.388 . S
C134 C138 1.382 . S
C134 H157 0.950 . S
C135 C134 1.388 . S
C135 C136 1.386 . S
C136 C135 1.386 . S
C136 C137 1.382 . S
C136 H158 0.950 . S
C137 N133 1.332 . S
C137 C136 1.382 . S
C137 H139 0.952 . S
C138 N133 1.332 . S
C138 C134 1.382 . S
C138 H140 0.948 . S
H139 C137 0.952 . S
H140 C138 0.948 . S
H141 C130 0.952 . S
H142 C132 0.948 . S
C143 C109 1.395 . S
C143 C113 1.391 . S
C144 C106 1.389 . S
C144 C126 1.392 . S
C145 C116 1.392 . S
C145 C118 1.389 . S
C146 C121 1.395 . S
C146 C123 1.391 . S
H147 C107 0.951 . S
H148 C108 0.950 . S
H149 C114 0.949 . S
H150 C115 0.950 . S
H151 C119 0.951 . S
H152 C120 0.950 . S
H153 C124 0.949 . S
H154 C125 0.950 . S
H155 C129 0.950 . S
H156 C131 0.950 . S
H157 C134 0.950 . S
H158 C136 0.950 . S
C159 C160 1.443 . S
C159 N163 1.376 . S
C159 C197 1.389 . S
C160 C159 1.443 . S
C160 C161 1.340 . S
C160 H200 0.951 . S
C161 C160 1.340 . S
C161 C162 1.439 . S
C161 H201 0.950 . S
C162 C161 1.439 . S
C162 N163 1.374 . S
C162 C196 1.395 . S
N163 C159 1.376 . S
N163 C162 1.374 . S
N163 Co164 2.008 . S
Co164 N163 2.008 . S
Co164 N165 1.995 . S
Co164 N170 2.008 . S
Co164 N175 1.995 . S
Co164 N180 2.282 . S
Co164 N186 2.282 . S
N165 Co164 1.995 . S
N165 C166 1.376 . S
N165 C169 1.383 . S
C166 N165 1.376 . S
C166 C167 1.446 . S
C166 C196 1.391 . S
C167 C166 1.446 . S
C167 C168 1.339 . S
C167 H202 0.949 . S
C168 C167 1.339 . S
C168 C169 1.439 . S
C168 H203 0.950 . S
C169 N165 1.383 . S
C169 C168 1.439 . S
C169 C198 1.392 . S
N170 Co164 2.008 . S
N170 C171 1.376 . S
N170 C174 1.374 . S
C171 N170 1.376 . S
C171 C172 1.443 . S
C171 C198 1.389 . S
C172 C171 1.443 . S
C172 C173 1.340 . S
C172 H204 0.951 . S
C173 C172 1.340 . S
C173 C174 1.439 . S
C173 H205 0.950 . S
C174 N170 1.374 . S
C174 C173 1.439 . S
C174 C199 1.395 . S
N175 Co164 1.995 . S
N175 C176 1.376 . S
N175 C179 1.383 . S
C176 N175 1.376 . S
C176 C177 1.446 . S
C176 C199 1.391 . S
C177 C176 1.446 . S
C177 C178 1.339 . S
C177 H206 0.949 . S
C178 C177 1.339 . S
C178 C179 1.439 . S
C178 H207 0.950 . S
C179 N175 1.383 . S
C179 C178 1.439 . S
C179 C197 1.392 . S
N180 Co164 2.282 . S
N180 C183 1.332 . S
N180 C185 1.332 . S
C181 C182 1.386 . S
C181 C184 1.388 . S
C182 C181 1.386 . S
C182 C183 1.382 . S
C182 H208 0.950 . S
C183 N180 1.332 . S
C183 C182 1.382 . S
C183 H194 0.952 . S
C184 C181 1.388 . S
C184 C185 1.382 . S
C184 H209 0.950 . S
C185 N180 1.332 . S
C185 C184 1.382 . S
C185 H195 0.948 . S
N186 Co164 2.282 . S
N186 C190 1.332 . S
N186 C191 1.332 . S
C187 C188 1.388 . S
C187 C191 1.382 . S
C187 H210 0.950 . S
C188 C187 1.388 . S
C188 C189 1.386 . S
C189 C188 1.386 . S
C189 C190 1.382 . S
C189 H211 0.950 . S
C190 N186 1.332 . S
C190 C189 1.382 . S
C190 H192 0.952 . S
C191 N186 1.332 . S
C191 C187 1.382 . S
C191 H193 0.948 . S
H192 C190 0.952 . S
H193 C191 0.948 . S
H194 C183 0.952 . S
H195 C185 0.948 . S
C196 C162 1.395 . S
C196 C166 1.391 . S
C197 C159 1.389 . S
C197 C179 1.392 . S
C198 C169 1.392 . S
C198 C171 1.389 . S
C199 C174 1.395 . S
C199 C176 1.391 . S
H200 C160 0.951 . S
H201 C161 0.950 . S
H202 C167 0.949 . S
H203 C168 0.950 . S
H204 C172 0.951 . S
H205 C173 0.950 . S
H206 C177 0.949 . S
H207 C178 0.950 . S
H208 C182 0.950 . S
H209 C184 0.950 . S
H210 C187 0.950 . S
H211 C189 0.950 . S
C212 C213 1.443 . S
C212 N216 1.376 . S
C212 C250 1.389 . S
C213 C212 1.443 . S
C213 C214 1.340 . S
C213 H253 0.951 . S
C214 C213 1.340 . S
C214 C215 1.439 . S
C214 H254 0.950 . S
C215 C214 1.439 . S
C215 N216 1.374 . S
C215 C249 1.395 . S
N216 C212 1.376 . S
N216 C215 1.374 . S
N216 Co217 2.008 . S
Co217 N216 2.008 . S
Co217 N218 1.995 . S
Co217 N223 2.008 . S
Co217 N228 1.995 . S
Co217 N233 2.282 . S
Co217 N239 2.282 . S
N218 Co217 1.995 . S
N218 C219 1.376 . S
N218 C222 1.383 . S
C219 N218 1.376 . S
C219 C220 1.446 . S
C219 C249 1.391 . S
C220 C219 1.446 . S
C220 C221 1.339 . S
C220 H255 0.949 . S
C221 C220 1.339 . S
C221 C222 1.439 . S
C221 H256 0.950 . S
C222 N218 1.383 . S
C222 C221 1.439 . S
C222 C251 1.392 . S
N223 Co217 2.008 . S
N223 C224 1.376 . S
N223 C227 1.374 . S
C224 N223 1.376 . S
C224 C225 1.443 . S
C224 C251 1.389 . S
C225 C224 1.443 . S
C225 C226 1.340 . S
C225 H257 0.951 . S
C226 C225 1.340 . S
C226 C227 1.439 . S
C226 H258 0.950 . S
C227 N223 1.374 . S
C227 C226 1.439 . S
C227 C252 1.395 . S
N228 Co217 1.995 . S
N228 C229 1.376 . S
N228 C232 1.383 . S
C229 N228 1.376 . S
C229 C230 1.446 . S
C229 C252 1.391 . S
C230 C229 1.446 . S
C230 C231 1.339 1_556 S
C230 H259 0.949 . S
C231 C230 1.339 1_554 S
C231 C232 1.439 1_554 S
C231 H260 0.950 . S
C232 N228 1.383 . S
C232 C231 1.439 1_556 S
C232 C250 1.392 . S
N233 Co217 2.282 . S
N233 C236 1.332 . S
N233 C238 1.332 . S
C234 C235 1.386 . S
C234 C237 1.388 . S
C235 C234 1.386 . S
C235 C236 1.382 1_554 S
C235 H261 0.950 . S
C236 N233 1.332 . S
C236 C235 1.382 1_556 S
C236 H247 0.952 . S
C237 C234 1.388 . S
C237 C238 1.382 1_554 S
C237 H262 0.950 . S
C238 N233 1.332 . S
C238 C237 1.382 1_556 S
C238 H248 0.948 . S
N239 Co217 2.282 . S
N239 C243 1.332 . S
N239 C244 1.332 . S
C240 C241 1.388 . S
C240 C244 1.382 . S
C240 H263 0.950 . S
C241 C240 1.388 . S
C241 C242 1.386 . S
C242 C241 1.386 . S
C242 C243 1.382 . S
C242 H264 0.950 . S
C243 N239 1.332 . S
C243 C242 1.382 . S
C243 H245 0.952 . S
C244 N239 1.332 . S
C244 C240 1.382 . S
C244 H246 0.948 . S
H245 C243 0.952 . S
H246 C244 0.948 . S
H247 C236 0.952 . S
H248 C238 0.948 . S
C249 C215 1.395 . S
C249 C219 1.391 . S
C250 C212 1.389 . S
C250 C232 1.392 . S
C251 C222 1.392 . S
C251 C224 1.389 . S
C252 C227 1.395 . S
C252 C229 1.391 . S
H253 C213 0.951 . S
H254 C214 0.950 . S
H255 C220 0.949 . S
H256 C221 0.950 . S
H257 C225 0.951 . S
H258 C226 0.950 . S
H259 C230 0.949 . S
H260 C231 0.950 . S
H261 C235 0.950 . S
H262 C237 0.950 . S
H263 C240 0.950 . S
H264 C242 0.950 . S
C265 C266 1.443 . S
C265 N269 1.376 . S
C265 C303 1.389 . S
C266 C265 1.443 . S
C266 C267 1.340 . S
C266 H306 0.951 . S
C267 C266 1.340 . S
C267 C268 1.439 . S
C267 H307 0.950 . S
C268 C267 1.439 . S
C268 N269 1.374 . S
C268 C302 1.395 . S
N269 C265 1.376 . S
N269 C268 1.374 . S
N269 Co270 2.008 . S
Co270 N269 2.008 . S
Co270 N271 1.995 . S
Co270 N276 2.008 . S
Co270 N281 1.995 . S
Co270 N286 2.282 . S
Co270 N292 2.282 . S
N271 Co270 1.995 . S
N271 C272 1.376 . S
N271 C275 1.383 . S
C272 N271 1.376 . S
C272 C273 1.446 . S
C272 C302 1.391 . S
C273 C272 1.446 . S
C273 C274 1.339 . S
C273 H308 0.949 . S
C274 C273 1.339 . S
C274 C275 1.439 . S
C274 H309 0.950 . S
C275 N271 1.383 . S
C275 C274 1.439 . S
C275 C304 1.392 . S
N276 Co270 2.008 . S
N276 C277 1.376 . S
N276 C280 1.374 . S
C277 N276 1.376 . S
C277 C278 1.443 . S
C277 C304 1.389 . S
C278 C277 1.443 . S
C278 C279 1.340 . S
C278 H310 0.951 . S
C279 C278 1.340 . S
C279 C280 1.439 . S
C279 H311 0.950 . S
C280 N276 1.374 . S
C280 C279 1.439 . S
C280 C305 1.395 . S
N281 Co270 1.995 . S
N281 C282 1.376 . S
N281 C285 1.383 . S
C282 N281 1.376 . S
C282 C283 1.446 . S
C282 C305 1.391 . S
C283 C282 1.446 . S
C283 C284 1.339 . S
C283 H312 0.949 . S
C284 C283 1.339 . S
C284 C285 1.439 . S
C284 H313 0.950 . S
C285 N281 1.383 . S
C285 C284 1.439 . S
C285 C303 1.392 . S
N286 Co270 2.282 . S
N286 C289 1.332 . S
N286 C291 1.332 . S
C287 C288 1.386 . S
C287 C290 1.388 . S
C288 C287 1.386 . S
C288 C289 1.382 . S
C288 H314 0.950 . S
C289 N286 1.332 . S
C289 C288 1.382 . S
C289 H300 0.952 . S
C290 C287 1.388 . S
C290 C291 1.382 . S
C290 H315 0.950 . S
C291 N286 1.332 . S
C291 C290 1.382 . S
C291 H301 0.948 . S
N292 Co270 2.282 . S
N292 C296 1.332 . S
N292 C297 1.332 . S
C293 C294 1.388 . S
C293 C297 1.382 . S
C293 H316 0.950 . S
C294 C293 1.388 . S
C294 C295 1.386 . S
C295 C294 1.386 . S
C295 C296 1.382 . S
C295 H317 0.950 . S
C296 N292 1.332 . S
C296 C295 1.382 . S
C296 H298 0.952 . S
C297 N292 1.332 . S
C297 C293 1.382 . S
C297 H299 0.948 . S
H298 C296 0.952 . S
H299 C297 0.948 . S
H300 C289 0.952 . S
H301 C291 0.948 . S
C302 C268 1.395 . S
C302 C272 1.391 . S
C303 C265 1.389 . S
C303 C285 1.392 . S
C304 C275 1.392 . S
C304 C277 1.389 . S
C305 C280 1.395 . S
C305 C282 1.391 . S
H306 C266 0.951 . S
H307 C267 0.950 . S
H308 C273 0.949 . S
H309 C274 0.950 . S
H310 C278 0.951 . S
H311 C279 0.950 . S
H312 C283 0.949 . S
H313 C284 0.950 . S
H314 C288 0.950 . S
H315 C290 0.950 . S
H316 C293 0.950 . S
H317 C295 0.950 . S
C318 C319 1.443 . S
C318 N322 1.376 . S
C318 C356 1.389 . S
C319 C318 1.443 . S
C319 C320 1.340 . S
C319 H359 0.951 . S
C320 C319 1.340 . S
C320 C321 1.439 . S
C320 H360 0.950 . S
C321 C320 1.439 . S
C321 N322 1.374 . S
C321 C355 1.395 . S
N322 C318 1.376 . S
N322 C321 1.374 . S
N322 Co323 2.008 . S
Co323 N322 2.008 . S
Co323 N324 1.995 . S
Co323 N329 2.008 1_565 S
Co323 N334 1.995 1_565 S
Co323 N339 2.282 . S
Co323 N345 2.282 . S
N324 Co323 1.995 . S
N324 C325 1.376 . S
N324 C328 1.383 . S
C325 N324 1.376 . S
C325 C326 1.446 . S
C325 C355 1.391 . S
C326 C325 1.446 . S
C326 C327 1.339 . S
C326 H361 0.949 . S
C327 C326 1.339 . S
C327 C328 1.439 . S
C327 H362 0.950 . S
C328 N324 1.383 . S
C328 C327 1.439 . S
C328 C357 1.392 1_565 S
N329 Co323 2.008 1_545 S
N329 C330 1.376 . S
N329 C333 1.374 . S
C330 N329 1.376 . S
C330 C331 1.443 . S
C330 C357 1.389 . S
C331 C330 1.443 . S
C331 C332 1.340 . S
C331 H363 0.951 . S
C332 C331 1.340 . S
C332 C333 1.439 . S
C332 H364 0.950 . S
C333 N329 1.374 . S
C333 C332 1.439 . S
C333 C358 1.395 . S
N334 Co323 1.995 1_545 S
N334 C335 1.376 . S
N334 C338 1.383 1_545 S
C335 N334 1.376 . S
C335 C336 1.446 . S
C335 C358 1.391 . S
C336 C335 1.446 . S
C336 C337 1.346 . S
C336 H365 0.949 . S
C337 C336 1.346 . S
C337 C338 1.445 1_545 S
C337 H366 0.938 1_554 S
C338 N334 1.383 1_565 S
C338 C337 1.445 1_565 S
C338 C356 1.392 . S
N339 Co323 2.282 . S
N339 C342 1.332 1_565 S
N339 C344 1.332 . S
C340 C341 1.386 . S
C340 C343 1.388 1_545 S
C341 C340 1.386 . S
C341 C342 1.382 1_556 S
C341 H367 0.950 . S
C342 N339 1.332 1_545 S
C342 C341 1.382 1_554 S
C342 H353 0.952 . S
C343 C340 1.388 1_565 S
C343 C344 1.382 1_556 S
C343 H368 0.950 . S
C344 N339 1.332 . S
C344 C343 1.382 1_554 S
C344 H354 0.948 . S
N345 Co323 2.282 . S
N345 C349 1.332 . S
N345 C350 1.332 . S
C346 C347 1.388 . S
C346 C350 1.382 . S
C346 H369 0.950 . S
C347 C346 1.388 . S
C347 C348 1.386 . S
C348 C347 1.386 . S
C348 C349 1.382 . S
C348 H370 0.950 . S
C349 N345 1.332 . S
C349 C348 1.382 . S
C349 H351 0.952 . S
C350 N345 1.332 . S
C350 C346 1.382 . S
C350 H352 0.948 1_565 S
H351 C349 0.952 . S
H352 C350 0.948 1_545 S
H353 C342 0.952 . S
H354 C344 0.948 . S
C355 C321 1.395 . S
C355 C325 1.391 . S
C356 C318 1.389 . S
C356 C338 1.392 . S
C357 C328 1.392 1_545 S
C357 C330 1.389 . S
C358 C333 1.395 . S
C358 C335 1.391 . S
H359 C319 0.951 . S
H360 C320 0.950 . S
H361 C326 0.949 . S
H362 C327 0.950 . S
H363 C331 0.951 . S
H364 C332 0.950 . S
H365 C336 0.949 . S
H366 C337 0.938 1_556 S
H367 C341 0.950 . S
H368 C343 0.950 . S
H369 C346 0.950 . S
H370 C348 0.950 . S
C371 C372 1.443 . S
C371 N375 1.376 . S
C371 C409 1.389 . S
C372 C371 1.443 . S
C372 C373 1.340 . S
C372 H412 0.951 . S
C373 C372 1.340 . S
C373 C374 1.439 . S
C373 H413 0.950 . S
C374 C373 1.439 . S
C374 N375 1.374 . S
C374 C408 1.395 . S
N375 C371 1.376 . S
N375 C374 1.374 . S
N375 Co376 2.008 1_545 S
Co376 N375 2.008 1_565 S
Co376 N377 1.995 1_565 S
Co376 N382 2.008 . S
Co376 N387 1.995 . S
Co376 N392 2.282 1_565 S
Co376 N398 2.282 . S
N377 Co376 1.995 1_545 S
N377 C378 1.376 . S
N377 C381 1.383 . S
C378 N377 1.376 . S
C378 C379 1.446 . S
C378 C408 1.391 . S
C379 C378 1.446 . S
C379 C380 1.339 . S
C379 H414 0.949 . S
C380 C379 1.339 . S
C380 C381 1.439 . S
C380 H415 0.950 . S
C381 N377 1.383 . S
C381 C380 1.439 . S
C381 C410 1.392 1_545 S
N382 Co376 2.008 . S
N382 C383 1.376 . S
N382 C386 1.374 . S
C383 N382 1.376 . S
C383 C384 1.443 . S
C383 C410 1.389 . S
C384 C383 1.443 . S
C384 C385 1.340 . S
C384 H416 0.951 . S
C385 C384 1.340 . S
C385 C386 1.439 . S
C385 H417 0.950 . S
C386 N382 1.374 . S
C386 C385 1.439 . S
C386 C411 1.395 . S
N387 Co376 1.995 . S
N387 C388 1.376 . S
N387 C391 1.383 . S
C388 N387 1.376 . S
C388 C389 1.446 . S
C388 C411 1.391 . S
C389 C388 1.446 . S
C389 C390 1.339 . S
C389 H418 0.949 . S
C390 C389 1.339 . S
C390 C391 1.439 . S
C390 H419 0.950 . S
C391 N387 1.383 . S
C391 C390 1.439 . S
C391 C409 1.392 1_565 S
N392 Co376 2.282 1_545 S
N392 C395 1.332 1_545 S
N392 C397 1.332 . S
C393 C394 1.386 . S
C393 C396 1.388 . S
C394 C393 1.386 . S
C394 C395 1.382 1_545 S
C394 H420 0.950 1_545 S
C395 N392 1.332 1_565 S
C395 C394 1.382 1_565 S
C395 H406 0.952 . S
C396 C393 1.388 . S
C396 C397 1.382 . S
C396 H421 0.950 . S
C397 N392 1.332 . S
C397 C396 1.382 . S
C397 H407 0.948 . S
N398 Co376 2.282 . S
N398 C402 1.332 1_565 S
N398 C403 1.332 . S
C399 C400 1.388 . S
C399 C403 1.382 . S
C399 H422 0.950 . S
C400 C399 1.388 . S
C400 C401 1.386 . S
C401 C400 1.386 . S
C401 C402 1.382 1_565 S
C401 H423 0.950 1_565 S
C402 N398 1.332 1_545 S
C402 C401 1.382 1_545 S
C402 H404 0.952 . S
C403 N398 1.332 . S
C403 C399 1.382 . S
C403 H405 0.948 . S
H404 C402 0.952 . S
H405 C403 0.948 . S
H406 C395 0.952 . S
H407 C397 0.948 . S
C408 C374 1.395 . S
C408 C378 1.391 . S
C409 C371 1.389 . S
C409 C391 1.392 1_545 S
C410 C381 1.392 1_565 S
C410 C383 1.389 . S
C411 C386 1.395 . S
C411 C388 1.391 . S
H412 C372 0.951 . S
H413 C373 0.950 . S
H414 C379 0.949 . S
H415 C380 0.950 . S
H416 C384 0.951 . S
H417 C385 0.950 . S
H418 C389 0.949 . S
H419 C390 0.950 . S
H420 C394 0.950 1_565 S
H421 C396 0.950 . S
H422 C399 0.950 . S
H423 C401 0.950 1_545 S
C424 C425 1.391 . S
C424 C426 1.394 . S
C424 H440 0.931 . S
C425 C424 1.391 . S
C425 C429 1.376 1_565 S
C426 C424 1.394 . S
C426 C427 1.369 . S
C426 C430 1.531 . S
C427 C426 1.369 . S
C427 C428 1.410 . S
C427 C435 1.503 . S
C428 C427 1.410 . S
C428 C429 1.392 1_565 S
C428 C431 1.511 1_565 S
C429 C425 1.376 1_545 S
C429 C428 1.392 1_545 S
C429 H441 0.929 . S
C430 C426 1.531 . S
C430 H442 0.960 . S
C430 H443 0.962 . S
C430 H444 0.960 . S
C431 C428 1.511 1_545 S
C431 H445 0.961 . S
C431 H446 0.961 . S
C431 H447 0.961 1_546 S
C432 C433 1.370 1_546 S
C432 C434 1.363 . S
C432 H448 0.931 . S
C433 C432 1.370 1_564 S
C433 C437 1.408 . S
C434 C432 1.363 . S
C434 C435 1.370 1_545 S
C434 C438 1.524 . S
C435 C427 1.503 . S
C435 C434 1.370 1_565 S
C435 C436 1.403 . S
C436 C435 1.403 . S
C436 C437 1.404 1_556 S
C436 C439 1.539 . S
C437 C433 1.408 . S
C437 C436 1.404 1_554 S
C437 H449 0.930 . S
C438 C434 1.524 . S
C438 H450 0.956 . S
C438 H451 0.961 . S
C438 H452 0.961 . S
C439 C436 1.539 . S
C439 H453 0.958 . S
C439 H454 0.961 1_556 S
C439 H455 0.960 . S
H440 C424 0.931 . S
H441 C429 0.929 . S
H442 C430 0.960 . S
H443 C430 0.962 . S
H444 C430 0.960 . S
H445 C431 0.961 . S
H446 C431 0.961 . S
H447 C431 0.961 1_564 S
H448 C432 0.931 . S
H449 C437 0.930 . S
H450 C438 0.956 . S
H451 C438 0.961 . S
H452 C438 0.961 . S
H453 C439 0.958 . S
H454 C439 0.961 1_554 S
H455 C439 0.960 . S
C456 C457 1.391 . S
C456 C458 1.394 . S
C456 H472 0.931 1_545 S
C457 C456 1.391 . S
C457 C461 1.376 . S
C458 C456 1.394 . S
C458 C459 1.369 . S
C458 C462 1.531 1_545 S
C459 C458 1.369 . S
C459 C460 1.410 . S
C459 C467 1.503 . S
C460 C459 1.410 . S
C460 C461 1.392 . S
C460 C463 1.511 . S
C461 C457 1.376 . S
C461 C460 1.392 . S
C461 H473 0.929 . S
C462 C458 1.531 1_565 S
C462 H474 0.960 . S
C462 H475 0.962 . S
C462 H476 0.960 . S
C463 C460 1.511 . S
C463 H477 0.961 . S
C463 H478 0.961 . S
C463 H479 0.961 . S
C464 C465 1.370 . S
C464 C466 1.363 . S
C464 H480 0.931 . S
C465 C464 1.370 . S
C465 C469 1.408 1_545 S
C466 C464 1.363 . S
C466 C467 1.370 . S
C466 C470 1.524 . S
C467 C459 1.503 . S
C467 C466 1.370 . S
C467 C468 1.403 1_545 S
C468 C467 1.403 1_565 S
C468 C469 1.404 . S
C468 C471 1.539 . S
C469 C465 1.408 1_565 S
C469 C468 1.404 . S
C469 H481 0.930 . S
C470 C466 1.524 . S
C470 H482 0.956 . S
C470 H483 0.961 . S
C470 H484 0.961 . S
C471 C468 1.539 . S
C471 H485 0.958 . S
C471 H486 0.961 . S
C471 H487 0.960 . S
H472 C456 0.931 1_565 S
H473 C461 0.929 . S
H474 C462 0.960 . S
H475 C462 0.962 . S
H476 C462 0.960 . S
H477 C463 0.961 . S
H478 C463 0.961 . S
H479 C463 0.961 . S
H480 C464 0.931 . S
H481 C469 0.930 . S
H482 C470 0.956 . S
H483 C470 0.961 . S
H484 C470 0.961 . S
H485 C471 0.958 . S
H486 C471 0.961 . S
H487 C471 0.960 . S
C488 C489 1.391 . S
C488 C490 1.394 . S
C488 H504 0.931 . S
C489 C488 1.391 . S
C489 C493 1.376 . S
C490 C488 1.394 . S
C490 C491 1.369 . S
C490 C494 1.531 . S
C491 C490 1.369 . S
C491 C492 1.410 . S
C491 C499 1.503 . S
C492 C491 1.410 . S
C492 C493 1.392 . S
C492 C495 1.511 . S
C493 C489 1.376 . S
C493 C492 1.392 . S
C493 H505 0.929 . S
C494 C490 1.531 . S
C494 H506 0.960 . S
C494 H507 0.962 . S
C494 H508 0.960 . S
C495 C492 1.511 . S
C495 H509 0.961 . S
C495 H510 0.961 . S
C495 H511 0.961 . S
C496 C497 1.370 1_554 S
C496 C498 1.363 . S
C496 H512 0.931 . S
C497 C496 1.370 1_556 S
C497 C501 1.408 . S
C498 C496 1.363 . S
C498 C499 1.370 . S
C498 C502 1.524 . S
C499 C491 1.503 . S
C499 C498 1.370 . S
C499 C500 1.403 1_554 S
C500 C499 1.403 1_556 S
C500 C501 1.404 . S
C500 C503 1.539 . S
C501 C497 1.408 . S
C501 C500 1.404 . S
C501 H513 0.930 . S
C502 C498 1.524 . S
C502 H514 0.956 . S
C502 H515 0.961 . S
C502 H516 0.961 . S
C503 C500 1.539 . S
C503 H517 0.958 . S
C503 H518 0.961 . S
C503 H519 0.960 1_556 S
H504 C488 0.931 . S
H505 C493 0.929 . S
H506 C494 0.960 . S
H507 C494 0.962 . S
H508 C494 0.960 . S
H509 C495 0.961 . S
H510 C495 0.961 . S
H511 C495 0.961 . S
H512 C496 0.931 . S
H513 C501 0.930 . S
H514 C502 0.956 . S
H515 C502 0.961 . S
H516 C502 0.961 . S
H517 C503 0.958 . S
H518 C503 0.961 . S
H519 C503 0.960 1_554 S
C520 C521 1.391 . S
C520 C522 1.394 . S
C520 H536 0.931 . S
C521 C520 1.391 . S
C521 C525 1.376 . S
C522 C520 1.394 . S
C522 C523 1.369 . S
C522 C526 1.531 . S
C523 C522 1.369 . S
C523 C524 1.410 . S
C523 C531 1.503 . S
C524 C523 1.410 . S
C524 C525 1.392 . S
C524 C527 1.511 . S
C525 C521 1.376 . S
C525 C524 1.392 . S
C525 H537 0.929 . S
C526 C522 1.531 . S
C526 H538 0.960 . S
C526 H539 0.962 . S
C526 H540 0.960 . S
C527 C524 1.511 . S
C527 H541 0.961 . S
C527 H542 0.961 . S
C527 H543 0.961 . S
C528 C529 1.370 . S
C528 C530 1.363 . S
C528 H544 0.931 . S
C529 C528 1.370 . S
C529 C533 1.408 . S
C530 C528 1.363 . S
C530 C531 1.370 . S
C530 C534 1.524 . S
C531 C523 1.503 . S
C531 C530 1.370 . S
C531 C532 1.403 . S
C532 C531 1.403 . S
C532 C533 1.404 . S
C532 C535 1.539 . S
C533 C529 1.408 . S
C533 C532 1.404 . S
C533 H545 0.930 . S
C534 C530 1.524 . S
C534 H546 0.956 . S
C534 H547 0.961 . S
C534 H548 0.961 . S
C535 C532 1.539 . S
C535 H549 0.958 . S
C535 H550 0.961 . S
C535 H551 0.960 . S
H536 C520 0.931 . S
H537 C525 0.929 . S
H538 C526 0.960 . S
H539 C526 0.962 . S
H540 C526 0.960 . S
H541 C527 0.961 . S
H542 C527 0.961 . S
H543 C527 0.961 . S
H544 C528 0.931 . S
H545 C533 0.930 . S
H546 C534 0.956 . S
H547 C534 0.961 . S
H548 C534 0.961 . S
H549 C535 0.958 . S
H550 C535 0.961 . S
H551 C535 0.960 . S
C552 C553 1.391 . S
C552 C554 1.394 . S
C552 H568 0.931 . S
C553 C552 1.391 . S
C553 C557 1.376 . S
C554 C552 1.394 . S
C554 C555 1.369 . S
C554 C558 1.531 . S
C555 C554 1.369 . S
C555 C556 1.410 . S
C555 C563 1.503 . S
C556 C555 1.410 . S
C556 C557 1.392 . S
C556 C559 1.511 . S
C557 C553 1.376 . S
C557 C556 1.392 . S
C557 H569 0.929 . S
C558 C554 1.531 . S
C558 H570 0.960 . S
C558 H571 0.962 . S
C558 H572 0.960 . S
C559 C556 1.511 . S
C559 H573 0.961 . S
C559 H574 0.961 . S
C559 H575 0.961 . S
C560 C561 1.370 . S
C560 C562 1.363 . S
C560 H576 0.931 . S
C561 C560 1.370 . S
C561 C565 1.408 . S
C562 C560 1.363 . S
C562 C563 1.370 . S
C562 C566 1.524 . S
C563 C555 1.503 . S
C563 C562 1.370 . S
C563 C564 1.403 . S
C564 C563 1.403 . S
C564 C565 1.404 . S
C564 C567 1.539 . S
C565 C561 1.408 . S
C565 C564 1.404 . S
C565 H577 0.930 . S
C566 C562 1.524 . S
C566 H578 0.956 . S
C566 H579 0.961 . S
C566 H580 0.961 . S
C567 C564 1.539 . S
C567 H581 0.958 . S
C567 H582 0.961 . S
C567 H583 0.960 . S
H568 C552 0.931 . S
H569 C557 0.929 . S
H570 C558 0.960 . S
H571 C558 0.962 . S
H572 C558 0.960 . S
H573 C559 0.961 . S
H574 C559 0.961 . S
H575 C559 0.961 . S
H576 C560 0.931 . S
H577 C565 0.930 . S
H578 C566 0.956 . S
H579 C566 0.961 . S
H580 C566 0.961 . S
H581 C567 0.958 . S
H582 C567 0.961 . S
H583 C567 0.960 . S
C584 C585 1.391 . S
C584 C586 1.394 . S
C584 H600 0.931 . S
C585 C584 1.391 . S
C585 C589 1.376 . S
C586 C584 1.394 . S
C586 C587 1.369 . S
C586 C590 1.531 . S
C587 C586 1.369 . S
C587 C588 1.410 . S
C587 C595 1.503 . S
C588 C587 1.410 . S
C588 C589 1.392 . S
C588 C591 1.511 . S
C589 C585 1.376 . S
C589 C588 1.392 . S
C589 H601 0.929 . S
C590 C586 1.531 . S
C590 H602 0.960 . S
C590 H603 0.962 . S
C590 H604 0.960 . S
C591 C588 1.511 . S
C591 H605 0.961 . S
C591 H606 0.961 . S
C591 H607 0.961 . S
C592 C593 1.370 . S
C592 C594 1.363 . S
C592 H608 0.931 . S
C593 C592 1.370 . S
C593 C597 1.408 . S
C594 C592 1.363 . S
C594 C595 1.370 . S
C594 C598 1.524 . S
C595 C587 1.503 . S
C595 C594 1.370 . S
C595 C596 1.403 . S
C596 C595 1.403 . S
C596 C597 1.404 . S
C596 C599 1.539 . S
C597 C593 1.408 . S
C597 C596 1.404 . S
C597 H609 0.930 . S
C598 C594 1.524 . S
C598 H610 0.956 . S
C598 H611 0.961 . S
C598 H612 0.961 . S
C599 C596 1.539 . S
C599 H613 0.958 . S
C599 H614 0.961 . S
C599 H615 0.960 . S
H600 C584 0.931 . S
H601 C589 0.929 . S
H602 C590 0.960 . S
H603 C590 0.962 . S
H604 C590 0.960 . S
H605 C591 0.961 . S
H606 C591 0.961 . S
H607 C591 0.961 . S
H608 C592 0.931 . S
H609 C597 0.930 . S
H610 C598 0.956 . S
H611 C598 0.961 . S
H612 C598 0.961 . S
H613 C599 0.958 . S
H614 C599 0.961 . S
H615 C599 0.960 . S
C616 C617 1.391 . S
C616 C618 1.394 . S
C616 H632 0.931 . S
C617 C616 1.391 . S
C617 C621 1.376 . S
C618 C616 1.394 . S
C618 C619 1.369 . S
C618 C622 1.531 . S
C619 C618 1.369 . S
C619 C620 1.410 . S
C619 C627 1.503 . S
C620 C619 1.410 . S
C620 C621 1.392 . S
C620 C623 1.511 1_545 S
C621 C617 1.376 . S
C621 C620 1.392 . S
C621 H633 0.929 1_545 S
C622 C618 1.531 . S
C622 H634 0.960 . S
C622 H635 0.962 . S
C622 H636 0.960 . S
C623 C620 1.511 1_565 S
C623 H637 0.961 . S
C623 H638 0.961 . S
C623 H639 0.961 1_565 S
C624 C625 1.370 . S
C624 C626 1.363 . S
C624 H640 0.931 . S
C625 C624 1.370 . S
C625 C629 1.408 1_565 S
C626 C624 1.363 . S
C626 C627 1.370 1_565 S
C626 C630 1.524 . S
C627 C619 1.503 . S
C627 C626 1.370 1_545 S
C627 C628 1.403 . S
C628 C627 1.403 . S
C628 C629 1.404 . S
C628 C631 1.539 . S
C629 C625 1.408 1_545 S
C629 C628 1.404 . S
C629 H641 0.930 . S
C630 C626 1.524 . S
C630 H642 0.956 . S
C630 H643 0.961 . S
C630 H644 0.961 . S
C631 C628 1.539 . S
C631 H645 0.958 . S
C631 H646 0.961 . S
C631 H647 0.960 . S
H632 C616 0.931 . S
H633 C621 0.929 1_565 S
H634 C622 0.960 . S
H635 C622 0.962 . S
H636 C622 0.960 . S
H637 C623 0.961 . S
H638 C623 0.961 . S
H639 C623 0.961 1_545 S
H640 C624 0.931 . S
H641 C629 0.930 . S
H642 C630 0.956 . S
H643 C630 0.961 . S
H644 C630 0.961 . S
H645 C631 0.958 . S
H646 C631 0.961 . S
H647 C631 0.960 . S
C648 C649 1.391 . S
C648 C650 1.394 . S
C648 H664 0.931 . S
C649 C648 1.391 . S
C649 C653 1.376 . S
C650 C648 1.394 . S
C650 C651 1.369 . S
C650 C654 1.531 . S
C651 C650 1.369 . S
C651 C652 1.410 . S
C651 C659 1.503 . S
C652 C651 1.410 . S
C652 C653 1.392 . S
C652 C655 1.511 . S
C653 C649 1.376 . S
C653 C652 1.392 . S
C653 H665 0.929 . S
C654 C650 1.531 . S
C654 H666 0.960 1_545 S
C654 H667 0.962 . S
C654 H668 0.960 1_545 S
C655 C652 1.511 . S
C655 H669 0.961 . S
C655 H670 0.961 . S
C655 H671 0.961 1_545 S
C656 C657 1.370 . S
C656 C658 1.363 . S
C656 H672 0.931 . S
C657 C656 1.370 . S
C657 C661 1.408 1_545 S
C658 C656 1.363 . S
C658 C659 1.370 . S
C658 C662 1.524 . S
C659 C651 1.503 . S
C659 C658 1.370 . S
C659 C660 1.403 1_545 S
C660 C659 1.403 1_565 S
C660 C661 1.404 . S
C660 C663 1.539 . S
C661 C657 1.408 1_565 S
C661 C660 1.404 . S
C661 H673 0.930 . S
C662 C658 1.524 . S
C662 H674 0.956 . S
C662 H675 0.961 . S
C662 H676 0.961 . S
C663 C660 1.539 . S
C663 H677 0.958 . S
C663 H678 0.961 . S
C663 H679 0.960 . S
H664 C648 0.931 . S
H665 C653 0.929 . S
H666 C654 0.960 1_565 S
H667 C654 0.962 . S
H668 C654 0.960 1_565 S
H669 C655 0.961 . S
H670 C655 0.961 . S
H671 C655 0.961 1_565 S
H672 C656 0.931 . S
H673 C661 0.930 . S
H674 C662 0.956 . S
H675 C662 0.961 . S
H676 C662 0.961 . S
H677 C663 0.958 . S
H678 C663 0.961 . S
H679 C663 0.960 . S
C680 C681 1.391 . S
C680 C682 1.394 . S
C680 H696 0.931 . S
C681 C680 1.391 . S
C681 C685 1.376 . S
C682 C680 1.394 . S
C682 C683 1.369 . S
C682 C686 1.531 . S
C683 C682 1.369 . S
C683 C684 1.410 . S
C683 C691 1.503 1_455 S
C684 C683 1.410 . S
C684 C685 1.392 . S
C684 C687 1.511 1_455 S
C685 C681 1.376 . S
C685 C684 1.392 . S
C685 H697 0.929 1_545 S
C686 C682 1.531 . S
C686 H698 0.960 . S
C686 H699 0.962 . S
C686 H700 0.960 . S
C687 C684 1.511 1_655 S
C687 H701 0.956 1_545 S
C687 H702 0.961 . S
C687 H703 0.961 1_545 S
C688 C689 1.370 . S
C688 C690 1.363 . S
C688 H704 0.931 . S
C689 C688 1.370 . S
C689 C693 1.408 . S
C690 C688 1.363 . S
C690 C691 1.370 . S
C690 C694 1.524 . S
C691 C683 1.503 1_655 S
C691 C690 1.370 . S
C691 C692 1.403 . S
C692 C691 1.403 . S
C692 C693 1.404 . S
C692 C695 1.539 . S
C693 C689 1.408 . S
C693 C692 1.404 . S
C693 H705 0.930 . S
C694 C690 1.524 . S
C694 H706 0.956 1_655 S
C694 H707 0.966 . S
C694 H708 0.961 . S
C695 C692 1.539 . S
C695 H709 0.958 . S
C695 H710 0.961 . S
C695 H711 0.960 . S
H696 C680 0.931 . S
H697 C685 0.929 1_565 S
H698 C686 0.960 . S
H699 C686 0.962 . S
H700 C686 0.960 . S
H701 C687 0.956 1_565 S
H702 C687 0.961 . S
H703 C687 0.961 1_565 S
H704 C688 0.931 . S
H705 C693 0.930 . S
H706 C694 0.956 1_455 S
H707 C694 0.966 . S
H708 C694 0.961 . S
H709 C695 0.958 . S
H710 C695 0.961 . S
H711 C695 0.960 . S
C712 C713 1.391 . S
C712 C714 1.394 . S
C712 H728 0.931 . S
C713 C712 1.391 . S
C713 C717 1.376 . S
C714 C712 1.394 . S
C714 C715 1.369 . S
C714 C718 1.531 . S
C715 C714 1.369 . S
C715 C716 1.410 . S
C715 C723 1.503 . S
C716 C715 1.410 . S
C716 C717 1.392 . S
C716 C719 1.511 . S
C717 C713 1.376 . S
C717 C716 1.392 . S
C717 H729 0.929 . S
C718 C714 1.531 . S
C718 H730 0.960 . S
C718 H731 0.962 . S
C718 H732 0.960 . S
C719 C716 1.511 . S
C719 H733 0.961 . S
C719 H734 0.961 . S
C719 H735 0.961 . S
C720 C721 1.370 . S
C720 C722 1.363 . S
C720 H736 0.931 . S
C721 C720 1.370 . S
C721 C725 1.408 . S
C722 C720 1.363 . S
C722 C723 1.370 . S
C722 C726 1.524 . S
C723 C715 1.503 . S
C723 C722 1.370 . S
C723 C724 1.403 . S
C724 C723 1.403 . S
C724 C725 1.404 . S
C724 C727 1.539 . S
C725 C721 1.408 . S
C725 C724 1.404 . S
C725 H737 0.930 . S
C726 C722 1.524 . S
C726 H738 0.956 . S
C726 H739 0.961 . S
C726 H740 0.961 . S
C727 C724 1.539 . S
C727 H741 0.958 . S
C727 H742 0.961 . S
C727 H743 0.960 . S
H728 C712 0.931 . S
H729 C717 0.929 . S
H730 C718 0.960 . S
H731 C718 0.962 . S
H732 C718 0.960 . S
H733 C719 0.961 . S
H734 C719 0.961 . S
H735 C719 0.961 . S
H736 C720 0.931 . S
H737 C725 0.930 . S
H738 C726 0.956 . S
H739 C726 0.961 . S
H740 C726 0.961 . S
H741 C727 0.958 . S
H742 C727 0.961 . S
H743 C727 0.960 . S
C744 C745 1.391 . S
C744 C746 1.394 . S
C744 H760 0.931 . S
C745 C744 1.391 . S
C745 C749 1.376 . S
C746 C744 1.394 . S
C746 C747 1.369 . S
C746 C750 1.531 1_455 S
C747 C746 1.369 . S
C747 C748 1.410 . S
C747 C755 1.503 1_455 S
C748 C747 1.410 . S
C748 C749 1.392 . S
C748 C751 1.511 . S
C749 C745 1.376 . S
C749 C748 1.392 . S
C749 H761 0.929 . S
C750 C746 1.531 1_655 S
C750 H762 0.960 . S
C750 H763 0.962 . S
C750 H764 0.960 . S
C751 C748 1.511 . S
C751 H765 0.961 . S
C751 H766 0.961 . S
C751 H767 0.961 . S
C752 C753 1.370 . S
C752 C754 1.363 . S
C752 H768 0.931 . S
C753 C752 1.370 . S
C753 C757 1.408 . S
C754 C752 1.363 . S
C754 C755 1.370 . S
C754 C758 1.524 1_655 S
C755 C747 1.503 1_655 S
C755 C754 1.370 . S
C755 C756 1.403 . S
C756 C755 1.403 . S
C756 C757 1.404 . S
C756 C759 1.539 . S
C757 C753 1.408 . S
C757 C756 1.404 . S
C757 H769 0.930 . S
C758 C754 1.524 1_455 S
C758 H770 0.956 1_455 S
C758 H771 0.961 . S
C758 H772 0.961 1_455 S
C759 C756 1.539 . S
C759 H773 0.958 . S
C759 H774 0.961 . S
C759 H775 0.960 1_655 S
H760 C744 0.931 . S
H761 C749 0.929 . S
H762 C750 0.960 . S
H763 C750 0.962 . S
H764 C750 0.960 . S
H765 C751 0.961 . S
H766 C751 0.961 . S
H767 C751 0.961 . S
H768 C752 0.931 . S
H769 C757 0.930 . S
H770 C758 0.956 1_655 S
H771 C758 0.961 . S
H772 C758 0.961 1_655 S
H773 C759 0.958 . S
H774 C759 0.961 . S
H775 C759 0.960 1_455 S
C776 C777 1.391 . S
C776 C778 1.394 . S
C776 H792 0.931 . S
C777 C776 1.391 . S
C777 C781 1.376 . S
C778 C776 1.394 . S
C778 C779 1.369 . S
C778 C782 1.531 . S
C779 C778 1.369 . S
C779 C780 1.410 . S
C779 C787 1.503 . S
C780 C779 1.410 . S
C780 C781 1.392 . S
C780 C783 1.511 . S
C781 C777 1.376 . S
C781 C780 1.392 . S
C781 H793 0.929 . S
C782 C778 1.531 . S
C782 H794 0.960 . S
C782 H795 0.962 . S
C782 H796 0.960 . S
C783 C780 1.511 . S
C783 H797 0.961 . S
C783 H798 0.961 . S
C783 H799 0.961 . S
C784 C785 1.370 . S
C784 C786 1.363 . S
C784 H800 0.931 . S
C785 C784 1.370 . S
C785 C789 1.408 . S
C786 C784 1.363 . S
C786 C787 1.370 . S
C786 C790 1.524 . S
C787 C779 1.503 . S
C787 C786 1.370 . S
C787 C788 1.403 . S
C788 C787 1.403 . S
C788 C789 1.404 . S
C788 C791 1.539 . S
C789 C785 1.408 . S
C789 C788 1.404 . S
C789 H801 0.930 . S
C790 C786 1.524 . S
C790 H802 0.956 . S
C790 H803 0.961 . S
C790 H804 0.961 . S
C791 C788 1.539 . S
C791 H805 0.958 . S
C791 H806 0.961 . S
C791 H807 0.960 . S
H792 C776 0.931 . S
H793 C781 0.929 . S
H794 C782 0.960 . S
H795 C782 0.962 . S
H796 C782 0.960 . S
H797 C783 0.961 . S
H798 C783 0.961 . S
H799 C783 0.961 . S
H800 C784 0.931 . S
H801 C789 0.930 . S
H802 C790 0.956 . S
H803 C790 0.961 . S
H804 C790 0.961 . S
H805 C791 0.958 . S
H806 C791 0.961 . S
H807 C791 0.960 . S
C808 C809 1.391 1_556 S
C808 C810 1.394 . S
C808 H824 0.931 . S
C809 C808 1.391 1_554 S
C809 C813 1.376 . S
C810 C808 1.394 . S
C810 C811 1.366 1_456 S
C810 C814 1.531 1_455 S
C811 C810 1.366 1_654 S
C811 C812 1.393 1_655 S
C811 C819 1.526 . S
C812 C811 1.393 1_455 S
C812 C813 1.392 . S
C812 C815 1.511 . S
C813 C809 1.376 . S
C813 C812 1.392 . S
C813 H825 0.929 . S
C814 C810 1.531 1_655 S
C814 H826 0.960 . S
C814 H827 0.962 . S
C814 H828 0.960 . S
C815 C812 1.511 . S
C815 H829 0.961 . S
C815 H830 0.961 1_455 S
C815 H831 0.961 . S
C816 C817 1.370 . S
C816 C818 1.363 . S
C816 H832 0.931 . S
C817 C816 1.370 . S
C817 C821 1.408 1_554 S
C818 C816 1.363 . S
C818 C819 1.370 . S
C818 C822 1.524 . S
C819 C811 1.526 . S
C819 C818 1.370 . S
C819 C820 1.403 1_554 S
C820 C819 1.403 1_556 S
C820 C821 1.404 . S
C820 C823 1.539 1_655 S
C821 C817 1.408 1_556 S
C821 C820 1.404 . S
C821 H833 0.930 . S
C822 C818 1.524 . S
C822 H834 0.956 . S
C822 H835 0.961 . S
C822 H836 0.961 . S
C823 C820 1.539 1_455 S
C823 H837 0.958 . S
C823 H838 0.961 . S
C823 H839 0.960 . S
H824 C808 0.931 . S
H825 C813 0.929 . S
H826 C814 0.960 . S
H827 C814 0.962 . S
H828 C814 0.960 . S
H829 C815 0.961 . S
H830 C815 0.961 1_655 S
H831 C815 0.961 . S
H832 C816 0.931 . S
H833 C821 0.930 . S
H834 C822 0.956 . S
H835 C822 0.961 . S
H836 C822 0.961 . S
H837 C823 0.958 . S
H838 C823 0.961 . S
H839 C823 0.960 . S
C840 C841 1.391 . S
C840 C842 1.394 . S
C840 H856 0.931 . S
C841 C840 1.391 . S
C841 C845 1.376 . S
C842 C840 1.394 . S
C842 C843 1.369 . S
C842 C846 1.531 . S
C843 C842 1.369 . S
C843 C844 1.410 . S
C843 C851 1.503 . S
C844 C843 1.410 . S
C844 C845 1.392 . S
C844 C847 1.511 . S
C845 C841 1.376 . S
C845 C844 1.392 . S
C845 H857 0.929 . S
C846 C842 1.531 . S
C846 H858 0.960 . S
C846 H859 0.962 . S
C846 H860 0.960 . S
C847 C844 1.511 . S
C847 H861 0.961 . S
C847 H862 0.961 . S
C847 H863 0.961 . S
C848 C849 1.370 . S
C848 C850 1.363 . S
C848 H864 0.931 . S
C849 C848 1.370 . S
C849 C853 1.408 . S
C850 C848 1.363 . S
C850 C851 1.370 . S
C850 C854 1.524 . S
C851 C843 1.503 . S
C851 C850 1.370 . S
C851 C852 1.403 . S
C852 C851 1.403 . S
C852 C853 1.404 . S
C852 C855 1.539 . S
C853 C849 1.408 . S
C853 C852 1.404 . S
C853 H865 0.930 . S
C854 C850 1.524 . S
C854 H866 0.956 . S
C854 H867 0.961 . S
C854 H868 0.961 . S
C855 C852 1.539 . S
C855 H869 0.958 . S
C855 H870 0.961 . S
C855 H871 0.960 . S
H856 C840 0.931 . S
H857 C845 0.929 . S
H858 C846 0.960 . S
H859 C846 0.962 . S
H860 C846 0.960 . S
H861 C847 0.961 . S
H862 C847 0.961 . S
H863 C847 0.961 . S
H864 C848 0.931 . S
H865 C853 0.930 . S
H866 C854 0.956 . S
H867 C854 0.961 . S
H868 C854 0.961 . S
H869 C855 0.958 . S
H870 C855 0.961 . S
H871 C855 0.960 . S
C872 C873 1.391 1_554 S
C872 C874 1.394 1_554 S
C872 H888 0.931 . S
C873 C872 1.391 1_556 S
C873 C877 1.376 . S
C874 C872 1.394 1_556 S
C874 C875 1.369 . S
C874 C878 1.531 1_556 S
C875 C874 1.369 . S
C875 C876 1.410 . S
C875 C883 1.503 . S
C876 C875 1.410 . S
C876 C877 1.392 . S
C876 C879 1.511 . S
C877 C873 1.376 . S
C877 C876 1.392 . S
C877 H889 0.929 . S
C878 C874 1.531 1_554 S
C878 H890 0.960 1_554 S
C878 H891 0.962 . S
C878 H892 0.960 . S
C879 C876 1.511 . S
C879 H893 0.961 . S
C879 H894 0.961 . S
C879 H895 0.961 . S
C880 C881 1.370 1_554 S
C880 C882 1.363 . S
C880 H896 0.931 . S
C881 C880 1.370 1_556 S
C881 C885 1.408 . S
C882 C880 1.363 . S
C882 C883 1.370 1_554 S
C882 C886 1.524 . S
C883 C875 1.503 . S
C883 C882 1.370 1_556 S
C883 C884 1.403 . S
C884 C883 1.403 . S
C884 C885 1.404 . S
C884 C887 1.539 . S
C885 C881 1.408 . S
C885 C884 1.404 . S
C885 H897 0.930 . S
C886 C882 1.524 . S
C886 H898 0.956 . S
C886 H899 0.961 . S
C886 H900 0.961 . S
C887 C884 1.539 . S
C887 H901 0.958 . S
C887 H902 0.961 . S
C887 H903 0.960 . S
H888 C872 0.931 . S
H889 C877 0.929 . S
H890 C878 0.960 1_556 S
H891 C878 0.962 . S
H892 C878 0.960 . S
H893 C879 0.961 . S
H894 C879 0.961 . S
H895 C879 0.961 . S
H896 C880 0.931 . S
H897 C885 0.930 . S
H898 C886 0.956 . S
H899 C886 0.961 . S
H900 C886 0.961 . S
H901 C887 0.958 . S
H902 C887 0.961 . S
H903 C887 0.960 . S
C904 C905 1.391 . S
C904 C906 1.394 . S
C904 H920 0.931 1_545 S
C905 C904 1.391 . S
C905 C909 1.376 . S
C906 C904 1.394 . S
C906 C907 1.369 . S
C906 C910 1.535 1_455 S
C907 C906 1.369 . S
C907 C908 1.410 . S
C907 C915 1.503 1_455 S
C908 C907 1.410 . S
C908 C909 1.392 . S
C908 C911 1.511 . S
C909 C905 1.376 . S
C909 C908 1.392 . S
C909 H921 0.929 . S
C910 C906 1.535 1_655 S
C910 H922 0.956 . S
C910 H923 0.961 . S
C910 H924 0.961 1_645 S
C911 C908 1.511 . S
C911 H925 0.961 . S
C911 H926 0.961 . S
C911 H927 0.961 . S
C912 C913 1.370 . S
C912 C914 1.363 . S
C912 H928 0.931 . S
C913 C912 1.370 . S
C913 C917 1.408 . S
C914 C912 1.363 . S
C914 C915 1.370 . S
C914 C918 1.524 1_655 S
C915 C907 1.503 1_655 S
C915 C914 1.370 . S
C915 C916 1.403 . S
C916 C915 1.403 . S
C916 C917 1.404 . S
C916 C919 1.539 . S
C917 C913 1.408 . S
C917 C916 1.404 . S
C917 H929 0.930 . S
C918 C914 1.524 1_455 S
C918 H930 0.956 . S
C918 H931 0.961 . S
C918 H932 0.979 . S
C919 C916 1.539 . S
C919 H933 0.958 . S
C919 H934 0.961 . S
C919 H935 0.960 1_655 S
H920 C904 0.931 1_565 S
H921 C909 0.929 . S
H922 C910 0.956 . S
H923 C910 0.961 . S
H924 C910 0.961 1_465 S
H925 C911 0.961 . S
H926 C911 0.961 . S
H927 C911 0.961 . S
H928 C912 0.931 . S
H929 C917 0.930 . S
H930 C918 0.956 . S
H931 C918 0.961 . S
H932 C918 0.979 . S
H933 C919 0.958 . S
H934 C919 0.961 . S
H935 C919 0.960 1_455 S
C425 C75 2.039 . S
C433 C39 2.028 . S
C457 C22 2.199 . S
C465 C92 2.243 1_545 S
C489 C181 2.033 . S
C497 C145 2.027 . S
C521 C128 2.155 . S
C529 C198 2.211 . S
C553 C234 1.965 . S
C561 C304 2.011 . S
C585 C287 2.117 . S
C593 C251 2.162 . S
C617 C340 2.035 . S
C625 C410 2.041 . S
C649 C357 2.124 . S
C657 C393 2.109 . S
C681 C38 1.547 . S
C689 C197 1.553 . S
C713 C91 1.570 . S
C721 C144 1.631 . S
C745 C400 1.481 . S
C753 C241 1.536 . S
C777 C347 1.559 . S
C785 C294 1.599 . S
C809 C29 1.642 . S
C817 C250 1.649 1_554 S
C841 C303 1.265 . S
C849 C82 1.305 . S
C873 C356 1.562 1_556 S
C881 C135 1.556 . S
C905 C409 1.344 . S
C913 C188 1.380 . S
