# Generated by pormake.
# Topology wju, (5)-cn, num edge types: 1
# Building blocks:
#     Node 0, Type 0, BuildingBlock: XOMCOT_clean_sbu_0, # of connection points: 5
#     Node 1, Type 0, BuildingBlock: XOMCOT_clean_sbu_0, # of connection points: 5
#     Node 2, Type 0, BuildingBlock: XOMCOT_clean_sbu_0, # of connection points: 5
#     Node 3, Type 0, BuildingBlock: XOMCOT_clean_sbu_0, # of connection points: 5
#     Node 4, Type 0, BuildingBlock: XOMCOT_clean_sbu_0, # of connection points: 5
#     Node 5, Type 0, BuildingBlock: XOMCOT_clean_sbu_0, # of connection points: 5
#     Node 6, Type 0, BuildingBlock: XOMCOT_clean_sbu_0, # of connection points: 5
#     Node 7, Type 0, BuildingBlock: XOMCOT_clean_sbu_0, # of connection points: 5
#     Node 8, Type 0, BuildingBlock: XOMCOT_clean_sbu_0, # of connection points: 5
#     Node 9, Type 0, BuildingBlock: XOMCOT_clean_sbu_0, # of connection points: 5
#     Node 10, Type 0, BuildingBlock: XOMCOT_clean_sbu_0, # of connection points: 5
#     Node 11, Type 0, BuildingBlock: XOMCOT_clean_sbu_0, # of connection points: 5
#     Edge 12, Type (0, 0), None
#     Edge 13, Type (0, 0), None
#     Edge 14, Type (0, 0), None
#     Edge 15, Type (0, 0), None
#     Edge 16, Type (0, 0), None
#     Edge 17, Type (0, 0), None
#     Edge 18, Type (0, 0), None
#     Edge 19, Type (0, 0), None
#     Edge 20, Type (0, 0), None
#     Edge 21, Type (0, 0), None
#     Edge 22, Type (0, 0), None
#     Edge 23, Type (0, 0), None
#     Edge 24, Type (0, 0), None
#     Edge 25, Type (0, 0), None
#     Edge 26, Type (0, 0), None
#     Edge 27, Type (0, 0), None
#     Edge 28, Type (0, 0), None
#     Edge 29, Type (0, 0), None
#     Edge 30, Type (0, 0), None
#     Edge 31, Type (0, 0), None
#     Edge 32, Type (0, 0), None
#     Edge 33, Type (0, 0), None
#     Edge 34, Type (0, 0), None
#     Edge 35, Type (0, 0), None
#     Edge 36, Type (0, 0), None
#     Edge 37, Type (0, 0), None
#     Edge 38, Type (0, 0), None
#     Edge 39, Type (0, 0), None
#     Edge 40, Type (0, 0), None
#     Edge 41, Type (0, 0), None
# Relax obj value: 0.123
# Max RMSD: 0.149
# Mean RMSD: 0.149
data_MOF--net-wju--node1-XOMCOT_clean_sbu_0--edge1-none
_symmetry_space_group_name_H-M    P1
_symmetry_Int_Tables_number       1
_symmetry_cell_setting            triclinic
loop_
_symmetry_equiv_pos_as_xyz
'x, y, z'
_cell_length_a     13.47662
_cell_length_b     13.478251
_cell_length_c     54.756695
_cell_angle_alpha  89.998481
_cell_angle_beta   90.000778
_cell_angle_gamma 120.0065
loop_
_atom_site_label
_atom_site_type_symbol
_atom_site_fract_x
_atom_site_fract_y
_atom_site_fract_z
_atom_type_partial_charge
Co0 Co 0.34221 0.08634 0.11901 0.0
C1 C 0.25951 0.10919 0.1674 0.0
C2 C 0.35562 1.0222 0.17097 0.0
C3 C 0.33467 0.04992 0.19402 0.0
N4 N 0.31068 0.06187 0.15417 0.0
N5 N 0.27559 0.10587 0.19162 0.0
H6 H 0.22377 0.1579 0.15939 0.0
H7 H 0.40935 0.98586 0.16696 0.0
C8 C 0.10815 0.04784 0.09784 0.0
O9 O 0.15841 0.08453 0.07663 0.0
N10 N 0.36985 0.10587 0.08399 0.0
C11 C 0.44933 0.19924 0.07177 0.0
C12 C 0.44502 0.17253 0.0473 0.0
C13 C 0.32356 1.02168 0.06705 0.0
N14 N 0.36622 0.06119 0.04459 0.0
C15 C 0.45475 0.29538 0.14051 0.0
C16 C 0.41568 0.41677 0.10514 0.0
C17 C 0.50784 0.46969 0.12114 0.0
C18 C 0.52428 0.41054 0.1397 0.0
C19 C 0.34694 0.29898 0.10657 0.0
N20 N 0.37225 0.23936 0.12315 0.0
H21 H 0.47789 0.25066 0.15358 0.0
H22 H 0.28415 0.2581 0.0927 0.0
H23 H 0.50869 0.28045 0.08007 0.0
H24 H 0.25908 0.93406 0.07105 0.0
O25 O 0.5083 0.13884 0.12297 0.0
O26 O 0.38464 0.96123 0.11755 0.0
O27 O 0.16279 1.02597 0.11482 0.0
C28 C 0.49334 0.03919 0.12004 0.0
H29 H 0.3712 0.0412 0.21093 0.0
H30 H 0.49786 0.22893 1.03283 0.0
H31 H 0.40034 0.46501 0.0913 0.0
H32 H 0.59335 0.45259 0.15285 0.0
Co33 Co 0.28538 0.32738 0.45235 0.0
C34 C 0.17977 0.24467 0.50073 0.0
C35 C 0.36288 0.34077 0.50431 0.0
C36 C 0.31418 0.3198 0.52735 0.0
N37 N 0.27828 0.29584 0.4875 0.0
N38 N 0.19914 0.26073 0.52495 0.0
H39 H 0.0953 0.20892 0.49272 0.0
H40 H 0.45297 0.3945 0.50029 0.0
C41 C 0.08982 0.09333 0.43117 0.0
O42 O 0.10337 0.14357 0.40996 0.0
N43 N 0.29351 0.35502 0.41732 0.0
C44 C 0.27966 0.43451 0.4051 0.0
C45 C 0.30207 0.43021 0.38063 0.0
C46 C 0.33142 0.30874 0.40038 0.0
N47 N 0.3346 0.35141 0.37793 0.0
C48 C 0.18883 0.43987 0.47383 0.0
C49 C 1.02843 0.40086 0.43845 0.0
C50 C 0.06767 0.49302 0.45445 0.0
C51 C 0.14325 0.50944 0.47301 0.0
C52 C 0.07744 0.3321 0.43989 0.0
N53 N 0.16235 0.35738 0.45648 0.0
H54 H 0.25667 0.463 0.48691 0.0
H55 H 0.05553 0.26931 0.42602 0.0
H56 H 0.25782 0.49387 0.4134 0.0
H57 H 0.35454 0.24425 0.40439 0.0
O58 O 0.39895 0.49345 0.4563 0.0
O59 O 0.45295 0.36983 0.45089 0.0
O60 O 0.16634 0.14797 0.44815 0.0
C61 C 0.48367 0.47851 0.45338 0.0
H62 H 0.35942 0.35632 0.54426 0.0
H63 H 0.29854 0.48306 0.36616 0.0
H64 H 0.96487 0.38553 0.4246 0.0
H65 H 0.17026 0.5785 0.48616 0.0
Co66 Co 0.98763 0.27058 0.78568 0.0
C67 C 0.9648 0.16503 0.83407 0.0
C68 C 0.05176 0.34813 0.83764 0.0
C69 C 1.02404 0.29945 0.86068 0.0
N70 N 1.01212 0.26352 0.82084 0.0
N71 N 0.9681 0.18442 0.85829 0.0
H72 H 0.9161 0.08057 0.82606 0.0
H73 H 0.08809 0.4382 0.83362 0.0
C74 C 1.02608 0.075 0.76451 0.0
O75 O 0.98937 0.08853 0.7433 0.0
N76 N 0.96808 0.27866 0.75066 0.0
C77 C 0.87471 0.26478 0.73844 0.0
C78 C 0.90141 0.28717 0.71396 0.0
C79 C 0.05227 0.31656 0.73371 0.0
N80 N 1.01275 0.3197 0.71126 0.0
C81 C 0.77858 0.17402 0.80718 0.0
C82 C 0.65714 1.01361 0.77181 0.0
C83 C 0.60423 0.05283 0.78782 0.0
C84 C 0.66341 0.1284 0.80637 0.0
C85 C 0.77493 0.06264 0.77324 0.0
N86 N 0.83458 0.14756 0.78982 0.0
H87 H 0.82332 0.24188 0.82025 0.0
H88 H 0.8158 0.04075 0.75936 0.0
H89 H 0.79351 0.24295 0.74674 0.0
H90 H 0.13989 0.33969 0.73771 0.0
O91 O 0.93509 0.38412 0.78963 0.0
O92 O 0.11272 0.43816 0.78421 0.0
O93 O 0.04799 0.15154 0.78149 0.0
C94 C 1.03474 0.46885 0.78671 0.0
H95 H 1.03274 0.34469 0.87759 0.0
H96 H 0.845 0.28362 0.6995 0.0
H97 H 0.60888 0.95005 0.75796 0.0
H98 H 0.62137 0.1554 0.81953 0.0
Co99 Co 0.74659 0.97279 0.11902 0.0
C100 C 0.82931 0.94996 0.1674 0.0
C101 C 0.73321 0.03695 0.17097 0.0
C102 C 0.75417 1.00923 0.19402 0.0
N103 N 0.77815 0.99729 0.15417 0.0
N104 N 0.81324 0.95327 0.19162 0.0
H105 H 0.86504 0.90124 0.15939 0.0
H106 H 0.67948 0.0733 0.16696 0.0
C107 C 0.98063 1.01125 0.09784 0.0
O108 O 0.93035 0.97447 0.07663 0.0
N109 N 0.71894 0.95324 0.08399 0.0
C110 C 0.63942 0.85988 0.07177 0.0
C111 C 0.64374 0.88657 0.0473 0.0
C112 C 0.76525 0.03742 0.06705 0.0
N113 N 0.72257 0.9979 0.04459 0.0
C114 C 0.634 0.76377 0.14052 0.0
C115 C 0.67291 0.64232 0.10514 0.0
C116 C 0.58071 0.58946 0.12114 0.0
C117 C 0.56435 0.64863 0.1397 0.0
C118 C 0.74176 0.76009 0.10658 0.0
N119 N 0.71651 0.81976 0.12316 0.0
H120 H 0.61092 0.80852 0.15359 0.0
H121 H 0.80458 0.80095 0.09272 0.0
H122 H 0.58004 0.77869 0.08008 0.0
H123 H 0.82975 0.12503 0.07105 0.0
O124 O 0.58051 0.92031 0.12297 0.0
O125 O 0.70417 0.09792 0.11754 0.0
O126 O 0.926 0.03313 0.11482 0.0
C127 C 0.59547 1.01997 0.12005 0.0
H128 H 0.71764 1.01795 0.21093 0.0
H129 H 0.59087 0.83018 1.03283 0.0
H130 H 0.68821 0.59405 0.0913 0.0
H131 H 0.49528 0.60661 0.15285 0.0
Co132 Co 0.80335 0.73177 0.45235 0.0
C133 C 0.90894 0.81448 0.50073 0.0
C134 C 0.72583 0.7184 0.50431 0.0
C135 C 0.77451 0.73935 0.52735 0.0
N136 N 0.81043 0.76332 0.48751 0.0
N137 N 0.88956 0.79841 0.52496 0.0
H138 H 0.99341 0.8502 0.49272 0.0
H139 H 0.63574 0.66468 0.5003 0.0
C140 C 0.99892 0.96581 0.43117 0.0
O141 O 0.98544 0.91554 0.40996 0.0
N142 N 0.79524 0.70413 0.41733 0.0
C143 C 0.80906 0.62461 0.40511 0.0
C144 C 0.78667 0.62892 0.38064 0.0
C145 C 0.75736 0.75043 0.40039 0.0
N146 N 0.75418 0.70775 0.37793 0.0
C147 C 0.89982 0.61921 0.47384 0.0
C148 C 0.06013 0.65809 0.43845 0.0
C149 C 1.02078 0.56588 0.45444 0.0
C150 C 0.94526 0.54953 0.47301 0.0
C151 C 1.01125 0.72696 0.4399 0.0
N152 N 0.92635 0.70173 0.45649 0.0
H153 H 0.83201 0.59615 0.48692 0.0
H154 H 1.03323 0.7898 0.42604 0.0
H155 H 0.83086 0.56523 0.41341 0.0
H156 H 0.73426 0.81493 0.40438 0.0
O157 O 0.68976 0.56571 0.45631 0.0
O158 O 0.63578 0.68933 0.45088 0.0
O159 O 0.92241 0.91117 0.44816 0.0
C160 C 0.60504 0.58065 0.45338 0.0
H161 H 0.72927 0.70283 0.54427 0.0
H162 H 0.79019 0.57606 0.36617 0.0
H163 H 0.12371 0.6734 0.42461 0.0
H164 H 0.9182 0.48046 0.48616 0.0
Co165 Co 0.10109 0.78849 0.78569 0.0
C166 C 0.12389 0.89401 0.83407 0.0
C167 C 1.03691 0.71091 0.83764 0.0
C168 C 0.06463 0.75958 0.86069 0.0
N169 N 0.07657 0.79552 0.82084 0.0
N170 N 0.12059 0.87462 0.85829 0.0
H171 H 0.17261 0.97847 0.82606 0.0
H172 H 1.00058 0.62084 0.83363 0.0
C173 C 0.06268 0.98409 0.76451 0.0
O174 O 0.09948 0.97062 0.7433 0.0
N175 N 0.12066 0.78043 0.75067 0.0
C176 C 0.21403 0.79427 0.73845 0.0
C177 C 0.18733 0.77189 0.71397 0.0
C178 C 1.03648 0.74256 0.73372 0.0
N179 N 0.076 0.7394 0.71127 0.0
C180 C 0.31011 0.88496 0.8072 0.0
C181 C 0.43162 0.04529 0.77182 0.0
C182 C 0.48446 1.00596 0.78781 0.0
C183 C 0.42526 0.93044 0.80638 0.0
C184 C 0.31384 0.99638 0.77326 0.0
N185 N 0.25414 0.91148 0.78984 0.0
H186 H 0.26535 0.81713 0.82027 0.0
H187 H 0.273 1.01835 0.75939 0.0
H188 H 0.29521 0.81606 0.74675 0.0
H189 H 0.94887 0.71946 0.73772 0.0
O190 O 0.1536 0.67493 0.78964 0.0
O191 O 0.97598 0.62091 0.78421 0.0
O192 O 1.04076 0.90756 0.78149 0.0
C193 C 0.05394 0.5902 0.78671 0.0
H194 H 0.05593 0.71434 0.8776 0.0
H195 H 0.24373 0.77541 0.69951 0.0
H196 H 0.47991 0.10885 0.75797 0.0
H197 H 0.46727 0.90339 0.81953 0.0
Co198 Co 0.98764 0.73179 0.61485 0.0
C199 C 0.96434 0.81437 0.56649 0.0
C200 C 0.0514 0.71835 0.56286 0.0
C201 C 1.02346 0.73922 0.53983 0.0
N202 N 1.01182 0.76327 0.57969 0.0
N203 N 0.96736 0.79811 0.54227 0.0
H204 H 0.91572 0.85017 0.57452 0.0
H205 H 0.08789 0.66473 0.56685 0.0
C206 C 1.0262 0.96583 0.63604 0.0
O207 O 0.98975 0.91562 0.65726 0.0
N208 N 0.96835 0.70419 0.64988 0.0
C209 C 0.87504 0.62467 0.66211 0.0
C210 C 0.90182 0.62904 0.68658 0.0
C211 C 0.05261 0.75053 0.66681 0.0
N212 N 1.01316 0.70789 0.68927 0.0
C213 C 0.77841 0.61916 0.59344 0.0
C214 C 0.65727 0.65828 0.62886 0.0
C215 C 0.60424 0.56605 0.61289 0.0
C216 C 0.66327 0.54953 0.59432 0.0
C217 C 0.77505 0.72706 0.62738 0.0
N218 N 0.83456 0.70173 0.61078 0.0
H219 H 0.82303 0.59604 0.58034 0.0
H220 H 0.81604 0.78993 0.64123 0.0
H221 H 0.79381 0.56529 0.65382 0.0
H222 H 0.1402 0.81508 0.6628 0.0
O223 O 0.93509 0.56571 0.6109 0.0
O224 O 0.11275 0.68931 0.61626 0.0
O225 O 0.04797 0.91121 0.61904 0.0
C226 C 1.03475 0.58062 0.61378 0.0
H227 H 1.03218 0.7028 0.5229 0.0
H228 H 0.84546 0.57623 0.70106 0.0
H229 H 0.60912 0.6737 0.64272 0.0
H230 H 0.62112 0.48042 0.58118 0.0
Co231 Co 0.28537 0.97275 0.94818 0.0
C232 C 0.17943 0.94938 0.89983 0.0
C233 C 0.36254 0.03649 0.89619 0.0
C234 C 0.31371 1.00854 0.87316 0.0
N235 N 0.27803 0.99689 0.91302 0.0
N236 N 0.1987 0.95241 0.87561 0.0
H237 H 0.09501 0.90075 0.90786 0.0
H238 H 0.45267 0.07301 0.90018 0.0
C239 C 0.08992 1.01135 0.96938 0.0
O240 O 0.10369 0.97491 0.9906 0.0
N241 N 0.29373 0.9535 0.98321 0.0
C242 C 0.27996 0.86022 0.99545 0.0
C243 C 0.30241 0.88702 1.01991 0.0
C244 C 0.33166 0.03776 1.00014 0.0
N245 N 0.33489 0.99835 1.0226 0.0
C246 C 0.18875 0.76352 0.92679 0.0
C247 C 1.02854 0.64243 0.96223 0.0
C248 C 0.06777 0.5894 0.94626 0.0
C249 C 0.14329 0.64841 0.92768 0.0
C250 C 0.07751 0.76019 0.96073 0.0
N251 N 0.16233 0.81968 0.94412 0.0
H252 H 0.25648 0.80813 0.91369 0.0
H253 H 0.05561 0.80118 0.97458 0.0
H254 H 0.25812 0.779 0.98716 0.0
H255 H 0.35468 0.12533 0.99612 0.0
O256 O 0.39893 0.92023 0.94423 0.0
O257 O 0.45297 0.09788 0.94958 0.0
O258 O 0.1663 0.03309 0.95237 0.0
C259 C 0.48368 1.0199 0.9471 0.0
H260 H 0.35885 1.01729 0.85623 0.0
H261 H 0.29889 0.83068 0.03439 0.0
H262 H 0.96498 0.5943 0.97609 0.0
H263 H 0.17027 0.60626 0.91455 0.0
Co264 Co 0.3422 0.27059 0.28152 0.0
C265 C 0.25965 0.16467 0.23316 0.0
C266 C 0.35562 0.34776 0.22952 0.0
C267 C 0.33476 0.29896 0.20649 0.0
N268 N 0.31072 0.26325 0.24635 0.0
N269 N 0.27589 0.18395 0.20894 0.0
H270 H 0.22386 0.08025 0.24119 0.0
H271 H 0.40922 0.43788 0.23352 0.0
C272 C 0.10812 0.07514 0.30271 0.0
O273 O 0.15835 0.08894 0.32394 0.0
N274 N 0.3698 0.27894 0.31654 0.0
C275 C 0.44931 0.26514 0.32878 0.0
C276 C 0.44495 0.28758 0.35325 0.0
C277 C 0.32348 0.31687 0.33347 0.0
N278 N 0.36611 0.32008 0.35593 0.0
C279 C 0.45486 0.17402 0.26013 0.0
C280 C 0.41564 1.01375 0.29555 0.0
C281 C 0.50793 0.05298 0.27958 0.0
C282 C 0.52449 0.12853 0.26101 0.0
C283 C 0.34687 0.06274 0.29406 0.0
N284 N 0.37225 0.14758 0.27745 0.0
H285 H 0.478 0.24177 0.24703 0.0
H286 H 0.28396 0.04083 0.3079 0.0
H287 H 0.50868 0.24329 0.32049 0.0
H288 H 0.25894 0.33991 0.32946 0.0
O289 O 0.50829 0.38416 0.27756 0.0
O290 O 0.38463 0.43815 0.28292 0.0
O291 O 0.16276 0.15149 0.2857 0.0
C292 C 0.49333 0.46888 0.28044 0.0
H293 H 0.37115 0.3441 0.18956 0.0
H294 H 0.49775 0.28404 0.36773 0.0
H295 H 0.40018 0.95017 0.3094 0.0
H296 H 0.59363 0.15551 0.24788 0.0
Co297 Co 0.10107 0.32731 0.61484 0.0
C298 C 0.12435 0.24473 0.56648 0.0
C299 C 1.03726 0.34073 0.56285 0.0
C300 C 0.0652 0.31988 0.53982 0.0
N301 N 0.07685 0.29581 0.57968 0.0
N302 N 0.12132 0.26099 0.54226 0.0
H303 H 0.17298 0.20894 0.57452 0.0
H304 H 1.00077 0.39435 0.56685 0.0
C305 C 0.06255 0.09329 0.63604 0.0
O306 O 0.09909 0.14353 0.65726 0.0
N307 N 0.12039 0.35492 0.64987 0.0
C308 C 0.2137 0.43446 0.6621 0.0
C309 C 0.18692 0.43009 0.68657 0.0
C310 C 1.03614 0.30855 0.6668 0.0
N311 N 0.07559 0.35121 0.68926 0.0
C312 C 0.31028 0.44 0.59343 0.0
C313 C 0.43148 0.40102 0.62886 0.0
C314 C 0.48445 0.49332 0.61289 0.0
C315 C 0.4254 0.50975 0.59431 0.0
C316 C 0.31372 0.33214 0.62737 0.0
N317 N 0.25416 0.35741 0.61076 0.0
H318 H 0.26562 0.46306 0.58032 0.0
H319 H 0.27276 0.26922 0.64121 0.0
H320 H 0.29491 0.49387 0.65381 0.0
H321 H 0.94856 0.24398 0.66279 0.0
O322 O 0.1536 0.49339 0.61089 0.0
O323 O 0.97595 0.36977 0.61626 0.0
O324 O 1.04078 0.1479 0.61903 0.0
C325 C 0.05393 0.47846 0.61377 0.0
H326 H 0.05648 0.35629 0.52289 0.0
H327 H 0.24327 0.48293 0.70104 0.0
H328 H 0.47966 0.38564 0.64271 0.0
H329 H 0.46751 0.57888 0.58117 0.0
Co330 Co 0.80336 0.08628 0.94818 0.0
C331 C 0.90928 0.10965 0.89982 0.0
C332 C 0.72617 1.0225 0.89618 0.0
C333 C 0.77499 0.05045 0.87315 0.0
N334 N 0.81068 0.06212 0.91302 0.0
N335 N 0.89 0.1066 0.8756 0.0
H336 H 0.9937 0.15829 0.90786 0.0
H337 H 0.63604 0.98597 0.90018 0.0
C338 C 0.99883 0.04772 0.96938 0.0
O339 O 0.98512 0.08425 0.9906 0.0
N340 N 0.79502 0.10555 0.98321 0.0
C341 C 0.80876 0.19883 0.99544 0.0
C342 C 0.78634 0.17205 1.01991 0.0
C343 C 0.75712 1.02131 1.00014 0.0
N344 N 0.7539 0.06073 1.0226 0.0
C345 C 0.89989 0.29549 0.92678 0.0
C346 C 0.06003 0.41664 0.96222 0.0
C347 C 1.02068 0.46961 0.94627 0.0
C348 C 0.94521 0.41059 0.92768 0.0
C349 C 1.01118 0.2989 0.96072 0.0
N350 N 0.92637 0.23937 0.94411 0.0
H351 H 0.83219 0.25085 0.91367 0.0
H352 H 1.03316 0.25793 0.97456 0.0
H353 H 0.83056 0.28004 0.98715 0.0
H354 H 0.73413 0.93374 0.99613 0.0
O355 O 0.68978 0.13878 0.94422 0.0
O356 O 0.63576 0.96114 0.94958 0.0
O357 O 0.92246 1.02598 0.95237 0.0
C358 C 0.60504 0.03911 0.9471 0.0
H359 H 0.72984 0.0417 0.85622 0.0
H360 H 0.78985 0.22838 0.03438 0.0
H361 H 0.1236 0.4648 0.97608 0.0
H362 H 0.91819 0.4527 0.91455 0.0
Co363 Co 0.7466 0.78854 0.28151 0.0
C364 C 0.82917 0.89447 0.23316 0.0
C365 C 0.73321 0.71137 0.22952 0.0
C366 C 0.75408 0.76019 0.20649 0.0
N367 N 0.7781 0.79587 0.24635 0.0
N368 N 0.81294 0.87519 0.20894 0.0
H369 H 0.86495 0.97888 0.24119 0.0
H370 H 0.67961 0.62125 0.23351 0.0
C371 C 0.98065 0.98401 0.30271 0.0
O372 O 0.93041 0.97027 0.32393 0.0
N373 N 0.71898 0.7802 0.31654 0.0
C374 C 0.63945 0.79395 0.32878 0.0
C375 C 0.64381 0.77153 0.35324 0.0
C376 C 0.76533 0.7423 0.33347 0.0
N377 N 0.72268 0.73908 0.35593 0.0
C378 C 0.63388 0.88503 0.26012 0.0
C379 C 0.67294 0.04521 0.29555 0.0
C380 C 0.58062 1.00588 0.27959 0.0
C381 C 0.56414 0.93039 0.26101 0.0
C382 C 0.74181 0.99634 0.29405 0.0
N383 N 0.71651 0.91152 0.27744 0.0
H384 H 0.61081 0.81732 0.24701 0.0
H385 H 0.80477 1.01831 0.30789 0.0
H386 H 0.58004 0.81576 0.32048 0.0
H387 H 0.8299 0.7193 0.32946 0.0
O388 O 0.58052 0.67495 0.27756 0.0
O389 O 0.70418 0.62098 0.28292 0.0
O390 O 0.92602 0.90766 0.2857 0.0
C391 C 0.59548 0.59024 0.28044 0.0
H392 H 0.71769 0.71505 0.18956 0.0
H393 H 0.59098 0.77504 0.36772 0.0
H394 H 0.68837 0.10879 0.3094 0.0
H395 H 0.49499 0.90338 0.24787 0.0
loop_
_geom_bond_atom_site_label_1
_geom_bond_atom_site_label_2
_geom_bond_distance
_geom_bond_site_symmetry_2
_ccdc_geom_bond_type
Co0 N4 2.148 . S
Co0 N10 2.128 . S
Co0 N20 2.194 . S
Co0 O25 2.351 . S
Co0 O26 2.155 1_545 S
Co0 O27 2.096 1_545 S
C1 N4 1.301 . S
C1 N5 1.328 . S
C1 H6 0.930 . S
C2 C3 1.333 . S
C2 N4 1.317 . S
C2 H7 0.930 . S
C3 C2 1.333 . S
C3 N5 1.350 . S
C3 H29 0.931 . S
N4 Co0 2.148 . S
N4 C1 1.301 . S
N4 C2 1.317 . S
N5 C1 1.328 . S
N5 C3 1.350 . S
H6 C1 0.930 . S
H7 C2 0.930 . S
C8 O9 1.224 1_565 S
C8 O27 1.247 . S
O9 C8 1.224 1_545 S
N10 Co0 2.128 . S
N10 C11 1.355 . S
N10 C13 1.311 . S
C11 N10 1.355 . S
C11 C12 1.363 . S
C11 H23 0.929 . S
C12 C11 1.363 . S
C12 N14 1.375 . S
C12 H30 0.901 1_554 S
C13 N10 1.311 . S
C13 N14 1.347 . S
C13 H24 0.929 1_545 S
N14 C12 1.375 . S
N14 C13 1.347 . S
C15 C18 1.365 . S
C15 N20 1.328 . S
C15 H21 0.929 . S
C16 C17 1.362 . S
C16 C19 1.378 . S
C16 H31 0.929 . S
C17 C16 1.362 . S
C17 C18 1.366 . S
C18 C15 1.365 . S
C18 C17 1.366 . S
C18 H32 0.930 . S
C19 C16 1.378 . S
C19 N20 1.315 . S
C19 H22 0.930 . S
N20 Co0 2.194 . S
N20 C15 1.328 . S
N20 C19 1.315 . S
H21 C15 0.929 . S
H22 C19 0.930 . S
H23 C11 0.929 . S
H24 C13 0.929 1_565 S
O25 Co0 2.351 . S
O25 C28 1.244 1_545 S
O26 Co0 2.155 1_565 S
O26 C28 1.240 . S
O27 Co0 2.096 1_565 S
O27 C8 1.247 . S
C28 O25 1.244 1_565 S
C28 O26 1.240 . S
H29 C3 0.931 . S
H30 C12 0.901 1_556 S
H31 C16 0.929 . S
H32 C18 0.930 . S
Co33 N37 2.148 . S
Co33 N43 2.128 . S
Co33 N53 2.194 . S
Co33 O58 2.351 . S
Co33 O59 2.155 . S
Co33 O60 2.096 . S
C34 N37 1.301 . S
C34 N38 1.328 . S
C34 H39 0.930 . S
C35 C36 1.333 . S
C35 N37 1.317 . S
C35 H40 0.930 . S
C36 C35 1.333 . S
C36 N38 1.350 . S
C36 H62 0.931 . S
N37 Co33 2.148 . S
N37 C34 1.301 . S
N37 C35 1.317 . S
N38 C34 1.328 . S
N38 C36 1.350 . S
H39 C34 0.930 . S
H40 C35 0.930 . S
C41 O42 1.224 . S
C41 O60 1.247 . S
O42 C41 1.224 . S
N43 Co33 2.128 . S
N43 C44 1.355 . S
N43 C46 1.311 . S
C44 N43 1.355 . S
C44 C45 1.363 . S
C44 H56 0.929 . S
C45 C44 1.363 . S
C45 N47 1.375 . S
C45 H63 0.931 . S
C46 N43 1.311 . S
C46 N47 1.347 . S
C46 H57 0.929 . S
N47 C45 1.375 . S
N47 C46 1.347 . S
C48 C51 1.365 . S
C48 N53 1.328 . S
C48 H54 0.929 . S
C49 C50 1.362 1_655 S
C49 C52 1.378 1_655 S
C49 H64 0.929 . S
C50 C49 1.362 1_455 S
C50 C51 1.366 . S
C51 C48 1.365 . S
C51 C50 1.366 . S
C51 H65 0.930 . S
C52 C49 1.378 1_455 S
C52 N53 1.315 . S
C52 H55 0.930 1_455 S
N53 Co33 2.194 . S
N53 C48 1.328 . S
N53 C52 1.315 . S
H54 C48 0.929 . S
H55 C52 0.930 1_655 S
H56 C44 0.929 . S
H57 C46 0.929 . S
O58 Co33 2.351 . S
O58 C61 1.244 . S
O59 Co33 2.155 . S
O59 C61 1.240 . S
O60 Co33 2.096 . S
O60 C41 1.247 . S
C61 O58 1.244 . S
C61 O59 1.240 . S
H62 C36 0.931 . S
H63 C45 0.931 . S
H64 C49 0.929 . S
H65 C51 0.930 . S
Co66 N70 2.148 . S
Co66 N76 2.128 . S
Co66 N86 2.194 . S
Co66 O91 2.351 . S
Co66 O92 2.155 1_655 S
Co66 O93 2.096 1_655 S
C67 N70 1.301 . S
C67 N71 1.328 . S
C67 H72 0.930 . S
C68 C69 1.333 . S
C68 N70 1.317 . S
C68 H73 0.930 . S
C69 C68 1.333 . S
C69 N71 1.350 . S
C69 H95 0.931 . S
N70 Co66 2.148 . S
N70 C67 1.301 . S
N70 C68 1.317 . S
N71 C67 1.328 . S
N71 C69 1.350 . S
H72 C67 0.930 . S
H73 C68 0.930 . S
C74 O75 1.224 1_455 S
C74 O93 1.247 . S
O75 C74 1.224 1_655 S
N76 Co66 2.128 . S
N76 C77 1.355 . S
N76 C79 1.311 . S
C77 N76 1.355 . S
C77 C78 1.363 . S
C77 H89 0.929 . S
C78 C77 1.363 . S
C78 N80 1.375 . S
C78 H96 0.931 . S
C79 N76 1.311 . S
C79 N80 1.347 . S
C79 H90 0.929 1_655 S
N80 C78 1.375 . S
N80 C79 1.347 . S
C81 C84 1.365 . S
C81 N86 1.328 . S
C81 H87 0.929 . S
C82 C83 1.362 1_565 S
C82 C85 1.378 1_565 S
C82 H97 0.929 . S
C83 C82 1.362 1_545 S
C83 C84 1.366 . S
C84 C81 1.365 . S
C84 C83 1.366 . S
C84 H98 0.930 . S
C85 C82 1.378 1_545 S
C85 N86 1.315 . S
C85 H88 0.930 1_545 S
N86 Co66 2.194 . S
N86 C81 1.328 . S
N86 C85 1.315 . S
H87 C81 0.929 . S
H88 C85 0.930 1_565 S
H89 C77 0.929 . S
H90 C79 0.929 1_455 S
O91 Co66 2.351 . S
O91 C94 1.244 1_655 S
O92 Co66 2.155 1_455 S
O92 C94 1.240 . S
O93 Co66 2.096 1_455 S
O93 C74 1.247 . S
C94 O91 1.244 1_455 S
C94 O92 1.240 . S
H95 C69 0.931 . S
H96 C78 0.931 . S
H97 C82 0.929 . S
H98 C84 0.930 . S
Co99 N103 2.148 . S
Co99 N109 2.128 . S
Co99 N119 2.194 . S
Co99 O124 2.351 . S
Co99 O125 2.155 1_565 S
Co99 O126 2.096 1_565 S
C100 N103 1.301 . S
C100 N104 1.328 . S
C100 H105 0.930 . S
C101 C102 1.333 . S
C101 N103 1.317 . S
C101 H106 0.930 . S
C102 C101 1.333 . S
C102 N104 1.350 . S
C102 H128 0.931 . S
N103 Co99 2.148 . S
N103 C100 1.301 . S
N103 C101 1.317 . S
N104 C100 1.328 . S
N104 C102 1.350 . S
H105 C100 0.930 . S
H106 C101 0.930 . S
C107 O108 1.224 1_545 S
C107 O126 1.247 . S
O108 C107 1.224 1_565 S
N109 Co99 2.128 . S
N109 C110 1.355 . S
N109 C112 1.311 . S
C110 N109 1.355 . S
C110 C111 1.363 . S
C110 H122 0.929 . S
C111 C110 1.363 . S
C111 N113 1.375 . S
C111 H129 0.901 1_554 S
C112 N109 1.311 . S
C112 N113 1.347 . S
C112 H123 0.929 1_565 S
N113 C111 1.375 . S
N113 C112 1.347 . S
C114 C117 1.365 . S
C114 N119 1.328 . S
C114 H120 0.929 . S
C115 C116 1.362 . S
C115 C118 1.378 . S
C115 H130 0.929 . S
C116 C115 1.362 . S
C116 C117 1.366 . S
C117 C114 1.365 . S
C117 C116 1.366 . S
C117 H131 0.930 . S
C118 C115 1.378 . S
C118 N119 1.315 . S
C118 H121 0.930 . S
N119 Co99 2.194 . S
N119 C114 1.328 . S
N119 C118 1.315 . S
H120 C114 0.929 . S
H121 C118 0.930 . S
H122 C110 0.929 . S
H123 C112 0.929 1_545 S
O124 Co99 2.351 . S
O124 C127 1.244 1_565 S
O125 Co99 2.155 1_545 S
O125 C127 1.240 . S
O126 Co99 2.096 1_545 S
O126 C107 1.247 . S
C127 O124 1.244 1_545 S
C127 O125 1.240 . S
H128 C102 0.931 . S
H129 C111 0.901 1_556 S
H130 C115 0.929 . S
H131 C117 0.930 . S
Co132 N136 2.148 . S
Co132 N142 2.128 . S
Co132 N152 2.194 . S
Co132 O157 2.351 . S
Co132 O158 2.155 . S
Co132 O159 2.096 . S
C133 N136 1.301 . S
C133 N137 1.328 . S
C133 H138 0.930 . S
C134 C135 1.333 . S
C134 N136 1.317 . S
C134 H139 0.930 . S
C135 C134 1.333 . S
C135 N137 1.350 . S
C135 H161 0.931 . S
N136 Co132 2.148 . S
N136 C133 1.301 . S
N136 C134 1.317 . S
N137 C133 1.328 . S
N137 C135 1.350 . S
H138 C133 0.930 . S
H139 C134 0.930 . S
C140 O141 1.224 . S
C140 O159 1.247 . S
O141 C140 1.224 . S
N142 Co132 2.128 . S
N142 C143 1.355 . S
N142 C145 1.311 . S
C143 N142 1.355 . S
C143 C144 1.363 . S
C143 H155 0.929 . S
C144 C143 1.363 . S
C144 N146 1.375 . S
C144 H162 0.931 . S
C145 N142 1.311 . S
C145 N146 1.347 . S
C145 H156 0.929 . S
N146 C144 1.375 . S
N146 C145 1.347 . S
C147 C150 1.365 . S
C147 N152 1.328 . S
C147 H153 0.929 . S
C148 C149 1.362 1_455 S
C148 C151 1.378 1_455 S
C148 H163 0.929 . S
C149 C148 1.362 1_655 S
C149 C150 1.366 . S
C150 C147 1.365 . S
C150 C149 1.366 . S
C150 H164 0.930 . S
C151 C148 1.378 1_655 S
C151 N152 1.315 . S
C151 H154 0.930 1_655 S
N152 Co132 2.194 . S
N152 C147 1.328 . S
N152 C151 1.315 . S
H153 C147 0.929 . S
H154 C151 0.930 1_455 S
H155 C143 0.929 . S
H156 C145 0.929 . S
O157 Co132 2.351 . S
O157 C160 1.244 . S
O158 Co132 2.155 . S
O158 C160 1.240 . S
O159 Co132 2.096 . S
O159 C140 1.247 . S
C160 O157 1.244 . S
C160 O158 1.240 . S
H161 C135 0.931 . S
H162 C144 0.931 . S
H163 C148 0.929 . S
H164 C150 0.930 . S
Co165 N169 2.148 . S
Co165 N175 2.128 . S
Co165 N185 2.194 . S
Co165 O190 2.351 . S
Co165 O191 2.155 1_455 S
Co165 O192 2.096 1_455 S
C166 N169 1.301 . S
C166 N170 1.328 . S
C166 H171 0.930 . S
C167 C168 1.333 . S
C167 N169 1.317 . S
C167 H172 0.930 . S
C168 C167 1.333 . S
C168 N170 1.350 . S
C168 H194 0.931 . S
N169 Co165 2.148 . S
N169 C166 1.301 . S
N169 C167 1.317 . S
N170 C166 1.328 . S
N170 C168 1.350 . S
H171 C166 0.930 . S
H172 C167 0.930 . S
C173 O174 1.224 1_655 S
C173 O192 1.247 . S
O174 C173 1.224 1_455 S
N175 Co165 2.128 . S
N175 C176 1.355 . S
N175 C178 1.311 . S
C176 N175 1.355 . S
C176 C177 1.363 . S
C176 H188 0.929 . S
C177 C176 1.363 . S
C177 N179 1.375 . S
C177 H195 0.931 . S
C178 N175 1.311 . S
C178 N179 1.347 . S
C178 H189 0.929 1_455 S
N179 C177 1.375 . S
N179 C178 1.347 . S
C180 C183 1.365 . S
C180 N185 1.328 . S
C180 H186 0.929 . S
C181 C182 1.362 1_545 S
C181 C184 1.378 1_545 S
C181 H196 0.929 . S
C182 C181 1.362 1_565 S
C182 C183 1.366 . S
C183 C180 1.365 . S
C183 C182 1.366 . S
C183 H197 0.930 . S
C184 C181 1.378 1_565 S
C184 N185 1.315 . S
C184 H187 0.930 1_565 S
N185 Co165 2.194 . S
N185 C180 1.328 . S
N185 C184 1.315 . S
H186 C180 0.929 . S
H187 C184 0.930 1_545 S
H188 C176 0.929 . S
H189 C178 0.929 1_655 S
O190 Co165 2.351 . S
O190 C193 1.244 1_455 S
O191 Co165 2.155 1_655 S
O191 C193 1.240 . S
O192 Co165 2.096 1_655 S
O192 C173 1.247 . S
C193 O190 1.244 1_655 S
C193 O191 1.240 . S
H194 C168 0.931 . S
H195 C177 0.931 . S
H196 C181 0.929 . S
H197 C183 0.930 . S
Co198 N202 2.148 . S
Co198 N208 2.128 . S
Co198 N218 2.194 . S
Co198 O223 2.351 . S
Co198 O224 2.155 1_655 S
Co198 O225 2.096 1_655 S
C199 N202 1.301 . S
C199 N203 1.328 . S
C199 H204 0.930 . S
C200 C201 1.333 . S
C200 N202 1.317 . S
C200 H205 0.930 . S
C201 C200 1.333 . S
C201 N203 1.350 . S
C201 H227 0.931 . S
N202 Co198 2.148 . S
N202 C199 1.301 . S
N202 C200 1.317 . S
N203 C199 1.328 . S
N203 C201 1.350 . S
H204 C199 0.930 . S
H205 C200 0.930 . S
C206 O207 1.224 1_455 S
C206 O225 1.247 . S
O207 C206 1.224 1_655 S
N208 Co198 2.128 . S
N208 C209 1.355 . S
N208 C211 1.311 . S
C209 N208 1.355 . S
C209 C210 1.363 . S
C209 H221 0.929 . S
C210 C209 1.363 . S
C210 N212 1.375 . S
C210 H228 0.931 . S
C211 N208 1.311 . S
C211 N212 1.347 . S
C211 H222 0.929 1_655 S
N212 C210 1.375 . S
N212 C211 1.347 . S
C213 C216 1.365 . S
C213 N218 1.328 . S
C213 H219 0.929 . S
C214 C215 1.362 . S
C214 C217 1.378 . S
C214 H229 0.929 . S
C215 C214 1.362 . S
C215 C216 1.366 . S
C216 C213 1.365 . S
C216 C215 1.366 . S
C216 H230 0.930 . S
C217 C214 1.378 . S
C217 N218 1.315 . S
C217 H220 0.930 . S
N218 Co198 2.194 . S
N218 C213 1.328 . S
N218 C217 1.315 . S
H219 C213 0.929 . S
H220 C217 0.930 . S
H221 C209 0.929 . S
H222 C211 0.929 1_455 S
O223 Co198 2.351 . S
O223 C226 1.244 1_655 S
O224 Co198 2.155 1_455 S
O224 C226 1.240 . S
O225 Co198 2.096 1_455 S
O225 C206 1.247 . S
C226 O223 1.244 1_455 S
C226 O224 1.240 . S
H227 C201 0.931 . S
H228 C210 0.931 . S
H229 C214 0.929 . S
H230 C216 0.930 . S
Co231 N235 2.148 . S
Co231 N241 2.128 . S
Co231 N251 2.194 . S
Co231 O256 2.351 . S
Co231 O257 2.155 1_565 S
Co231 O258 2.096 1_565 S
C232 N235 1.301 . S
C232 N236 1.328 . S
C232 H237 0.930 . S
C233 C234 1.333 . S
C233 N235 1.317 . S
C233 H238 0.930 . S
C234 C233 1.333 . S
C234 N236 1.350 . S
C234 H260 0.931 . S
N235 Co231 2.148 . S
N235 C232 1.301 . S
N235 C233 1.317 . S
N236 C232 1.328 . S
N236 C234 1.350 . S
H237 C232 0.930 . S
H238 C233 0.930 . S
C239 O240 1.224 1_545 S
C239 O258 1.247 . S
O240 C239 1.224 1_565 S
N241 Co231 2.128 . S
N241 C242 1.355 . S
N241 C244 1.311 . S
C242 N241 1.355 . S
C242 C243 1.363 . S
C242 H254 0.929 . S
C243 C242 1.363 . S
C243 N245 1.375 . S
C243 H261 0.901 1_556 S
C244 N241 1.311 . S
C244 N245 1.347 . S
C244 H255 0.929 1_565 S
N245 C243 1.375 . S
N245 C244 1.347 . S
C246 C249 1.365 . S
C246 N251 1.328 . S
C246 H252 0.929 . S
C247 C248 1.362 1_655 S
C247 C250 1.378 1_655 S
C247 H262 0.929 . S
C248 C247 1.362 1_455 S
C248 C249 1.366 . S
C249 C246 1.365 . S
C249 C248 1.366 . S
C249 H263 0.930 . S
C250 C247 1.378 1_455 S
C250 N251 1.315 . S
C250 H253 0.930 1_455 S
N251 Co231 2.194 . S
N251 C246 1.328 . S
N251 C250 1.315 . S
H252 C246 0.929 . S
H253 C250 0.930 1_655 S
H254 C242 0.929 . S
H255 C244 0.929 1_545 S
O256 Co231 2.351 . S
O256 C259 1.244 1_565 S
O257 Co231 2.155 1_545 S
O257 C259 1.240 . S
O258 Co231 2.096 1_545 S
O258 C239 1.247 . S
C259 O256 1.244 1_545 S
C259 O257 1.240 . S
H260 C234 0.931 . S
H261 C243 0.901 1_554 S
H262 C247 0.929 . S
H263 C249 0.930 . S
Co264 N268 2.148 . S
Co264 N274 2.128 . S
Co264 N284 2.194 . S
Co264 O289 2.351 . S
Co264 O290 2.155 . S
Co264 O291 2.096 . S
C265 N268 1.301 . S
C265 N269 1.328 . S
C265 H270 0.930 . S
C266 C267 1.333 . S
C266 N268 1.317 . S
C266 H271 0.930 . S
C267 C266 1.333 . S
C267 N269 1.350 . S
C267 H293 0.931 . S
N268 Co264 2.148 . S
N268 C265 1.301 . S
N268 C266 1.317 . S
N269 C265 1.328 . S
N269 C267 1.350 . S
H270 C265 0.930 . S
H271 C266 0.930 . S
C272 O273 1.224 . S
C272 O291 1.247 . S
O273 C272 1.224 . S
N274 Co264 2.128 . S
N274 C275 1.355 . S
N274 C277 1.311 . S
C275 N274 1.355 . S
C275 C276 1.363 . S
C275 H287 0.929 . S
C276 C275 1.363 . S
C276 N278 1.375 . S
C276 H294 0.931 . S
C277 N274 1.311 . S
C277 N278 1.347 . S
C277 H288 0.929 . S
N278 C276 1.375 . S
N278 C277 1.347 . S
C279 C282 1.365 . S
C279 N284 1.328 . S
C279 H285 0.929 . S
C280 C281 1.362 1_565 S
C280 C283 1.378 1_565 S
C280 H295 0.929 . S
C281 C280 1.362 1_545 S
C281 C282 1.366 . S
C282 C279 1.365 . S
C282 C281 1.366 . S
C282 H296 0.930 . S
C283 C280 1.378 1_545 S
C283 N284 1.315 . S
C283 H286 0.930 1_545 S
N284 Co264 2.194 . S
N284 C279 1.328 . S
N284 C283 1.315 . S
H285 C279 0.929 . S
H286 C283 0.930 1_565 S
H287 C275 0.929 . S
H288 C277 0.929 . S
O289 Co264 2.351 . S
O289 C292 1.244 . S
O290 Co264 2.155 . S
O290 C292 1.240 . S
O291 Co264 2.096 . S
O291 C272 1.247 . S
C292 O289 1.244 . S
C292 O290 1.240 . S
H293 C267 0.931 . S
H294 C276 0.931 . S
H295 C280 0.929 . S
H296 C282 0.930 . S
Co297 N301 2.148 . S
Co297 N307 2.128 . S
Co297 N317 2.194 . S
Co297 O322 2.351 . S
Co297 O323 2.155 1_455 S
Co297 O324 2.096 1_455 S
C298 N301 1.301 . S
C298 N302 1.328 . S
C298 H303 0.930 . S
C299 C300 1.333 . S
C299 N301 1.317 . S
C299 H304 0.930 . S
C300 C299 1.333 . S
C300 N302 1.350 . S
C300 H326 0.931 . S
N301 Co297 2.148 . S
N301 C298 1.301 . S
N301 C299 1.317 . S
N302 C298 1.328 . S
N302 C300 1.350 . S
H303 C298 0.930 . S
H304 C299 0.930 . S
C305 O306 1.224 1_655 S
C305 O324 1.247 . S
O306 C305 1.224 1_455 S
N307 Co297 2.128 . S
N307 C308 1.355 . S
N307 C310 1.311 . S
C308 N307 1.355 . S
C308 C309 1.363 . S
C308 H320 0.929 . S
C309 C308 1.363 . S
C309 N311 1.375 . S
C309 H327 0.931 . S
C310 N307 1.311 . S
C310 N311 1.347 . S
C310 H321 0.929 1_455 S
N311 C309 1.375 . S
N311 C310 1.347 . S
C312 C315 1.365 . S
C312 N317 1.328 . S
C312 H318 0.929 . S
C313 C314 1.362 . S
C313 C316 1.378 . S
C313 H328 0.929 . S
C314 C313 1.362 . S
C314 C315 1.366 . S
C315 C312 1.365 . S
C315 C314 1.366 . S
C315 H329 0.930 . S
C316 C313 1.378 . S
C316 N317 1.315 . S
C316 H319 0.930 . S
N317 Co297 2.194 . S
N317 C312 1.328 . S
N317 C316 1.315 . S
H318 C312 0.929 . S
H319 C316 0.930 . S
H320 C308 0.929 . S
H321 C310 0.929 1_655 S
O322 Co297 2.351 . S
O322 C325 1.244 1_455 S
O323 Co297 2.155 1_655 S
O323 C325 1.240 . S
O324 Co297 2.096 1_655 S
O324 C305 1.247 . S
C325 O322 1.244 1_655 S
C325 O323 1.240 . S
H326 C300 0.931 . S
H327 C309 0.931 . S
H328 C313 0.929 . S
H329 C315 0.930 . S
Co330 N334 2.148 . S
Co330 N340 2.128 . S
Co330 N350 2.194 . S
Co330 O355 2.351 . S
Co330 O356 2.155 1_545 S
Co330 O357 2.096 1_545 S
C331 N334 1.301 . S
C331 N335 1.328 . S
C331 H336 0.930 . S
C332 C333 1.333 . S
C332 N334 1.317 . S
C332 H337 0.930 . S
C333 C332 1.333 . S
C333 N335 1.350 . S
C333 H359 0.931 . S
N334 Co330 2.148 . S
N334 C331 1.301 . S
N334 C332 1.317 . S
N335 C331 1.328 . S
N335 C333 1.350 . S
H336 C331 0.930 . S
H337 C332 0.930 . S
C338 O339 1.224 1_565 S
C338 O357 1.247 . S
O339 C338 1.224 1_545 S
N340 Co330 2.128 . S
N340 C341 1.355 . S
N340 C343 1.311 . S
C341 N340 1.355 . S
C341 C342 1.363 . S
C341 H353 0.929 . S
C342 C341 1.363 . S
C342 N344 1.375 . S
C342 H360 0.901 1_556 S
C343 N340 1.311 . S
C343 N344 1.347 . S
C343 H354 0.929 1_545 S
N344 C342 1.375 . S
N344 C343 1.347 . S
C345 C348 1.365 . S
C345 N350 1.328 . S
C345 H351 0.929 . S
C346 C347 1.362 1_455 S
C346 C349 1.378 1_455 S
C346 H361 0.929 . S
C347 C346 1.362 1_655 S
C347 C348 1.366 . S
C348 C345 1.365 . S
C348 C347 1.366 . S
C348 H362 0.930 . S
C349 C346 1.378 1_655 S
C349 N350 1.315 . S
C349 H352 0.930 1_655 S
N350 Co330 2.194 . S
N350 C345 1.328 . S
N350 C349 1.315 . S
H351 C345 0.929 . S
H352 C349 0.930 1_455 S
H353 C341 0.929 . S
H354 C343 0.929 1_565 S
O355 Co330 2.351 . S
O355 C358 1.244 1_545 S
O356 Co330 2.155 1_565 S
O356 C358 1.240 . S
O357 Co330 2.096 1_565 S
O357 C338 1.247 . S
C358 O355 1.244 1_565 S
C358 O356 1.240 . S
H359 C333 0.931 . S
H360 C342 0.901 1_554 S
H361 C346 0.929 . S
H362 C348 0.930 . S
Co363 N367 2.148 . S
Co363 N373 2.128 . S
Co363 N383 2.194 . S
Co363 O388 2.351 . S
Co363 O389 2.155 . S
Co363 O390 2.096 . S
C364 N367 1.301 . S
C364 N368 1.328 . S
C364 H369 0.930 . S
C365 C366 1.333 . S
C365 N367 1.317 . S
C365 H370 0.930 . S
C366 C365 1.333 . S
C366 N368 1.350 . S
C366 H392 0.931 . S
N367 Co363 2.148 . S
N367 C364 1.301 . S
N367 C365 1.317 . S
N368 C364 1.328 . S
N368 C366 1.350 . S
H369 C364 0.930 . S
H370 C365 0.930 . S
C371 O372 1.224 . S
C371 O390 1.247 . S
O372 C371 1.224 . S
N373 Co363 2.128 . S
N373 C374 1.355 . S
N373 C376 1.311 . S
C374 N373 1.355 . S
C374 C375 1.363 . S
C374 H386 0.929 . S
C375 C374 1.363 . S
C375 N377 1.375 . S
C375 H393 0.931 . S
C376 N373 1.311 . S
C376 N377 1.347 . S
C376 H387 0.929 . S
N377 C375 1.375 . S
N377 C376 1.347 . S
C378 C381 1.365 . S
C378 N383 1.328 . S
C378 H384 0.929 . S
C379 C380 1.362 1_545 S
C379 C382 1.378 1_545 S
C379 H394 0.929 . S
C380 C379 1.362 1_565 S
C380 C381 1.366 . S
C381 C378 1.365 . S
C381 C380 1.366 . S
C381 H395 0.930 . S
C382 C379 1.378 1_565 S
C382 N383 1.315 . S
C382 H385 0.930 1_565 S
N383 Co363 2.194 . S
N383 C378 1.328 . S
N383 C382 1.315 . S
H384 C378 0.929 . S
H385 C382 0.930 1_545 S
H386 C374 0.929 . S
H387 C376 0.929 . S
O388 Co363 2.351 . S
O388 C391 1.244 . S
O389 Co363 2.155 . S
O389 C391 1.240 . S
O390 Co363 2.096 . S
O390 C371 1.247 . S
C391 O388 1.244 . S
C391 O389 1.240 . S
H392 C366 0.931 . S
H393 C375 0.931 . S
H394 C379 0.929 . S
H395 C381 0.930 . S
N14 N245 1.658 1_544 S
N47 N278 1.658 . S
N80 N311 1.658 1_655 S
N344 N113 1.658 1_546 S
N377 N146 1.658 . S
N179 N212 1.658 1_455 S
C127 C28 2.406 1_545 S
C61 C160 2.406 . S
C193 C94 2.406 1_655 S
C325 C226 2.406 1_655 S
C358 C259 2.406 1_565 S
C292 C391 2.406 . S
N269 N5 1.755 . S
N38 N302 1.755 . S
N71 N335 1.755 . S
N104 N368 1.755 . S
N137 N203 1.755 . S
N236 N170 1.755 . S
C116 C17 0.806 . S
C50 C149 0.806 1_455 S
C182 C83 0.806 1_565 S
C215 C314 0.806 . S
C248 C347 0.806 1_455 S
C380 C281 0.806 1_565 S
C8 C107 1.887 1_465 S
C41 C140 1.887 1_445 S
C74 C173 1.887 1_445 S
C206 C305 1.887 1_465 S
C338 C239 1.887 1_665 S
C272 C371 1.887 1_445 S
