# Generated by pormake.
# Topology wmy, (6)-cn, num edge types: 1
# Building blocks:
#     Node 0, Type 0, BuildingBlock: IZENUY_clean_sbu_0, # of connection points: 6
#     Node 1, Type 0, BuildingBlock: IZENUY_clean_sbu_0, # of connection points: 6
#     Node 2, Type 0, BuildingBlock: IZENUY_clean_sbu_0, # of connection points: 6
#     Node 3, Type 0, BuildingBlock: IZENUY_clean_sbu_0, # of connection points: 6
#     Node 4, Type 0, BuildingBlock: IZENUY_clean_sbu_0, # of connection points: 6
#     Node 5, Type 0, BuildingBlock: IZENUY_clean_sbu_0, # of connection points: 6
#     Node 6, Type 0, BuildingBlock: IZENUY_clean_sbu_0, # of connection points: 6
#     Node 7, Type 0, BuildingBlock: IZENUY_clean_sbu_0, # of connection points: 6
#     Node 8, Type 0, BuildingBlock: IZENUY_clean_sbu_0, # of connection points: 6
#     Node 9, Type 0, BuildingBlock: IZENUY_clean_sbu_0, # of connection points: 6
#     Node 10, Type 0, BuildingBlock: IZENUY_clean_sbu_0, # of connection points: 6
#     Node 11, Type 0, BuildingBlock: IZENUY_clean_sbu_0, # of connection points: 6
#     Node 12, Type 0, BuildingBlock: IZENUY_clean_sbu_0, # of connection points: 6
#     Node 13, Type 0, BuildingBlock: IZENUY_clean_sbu_0, # of connection points: 6
#     Node 14, Type 0, BuildingBlock: IZENUY_clean_sbu_0, # of connection points: 6
#     Node 15, Type 0, BuildingBlock: IZENUY_clean_sbu_0, # of connection points: 6
#     Node 16, Type 0, BuildingBlock: IZENUY_clean_sbu_0, # of connection points: 6
#     Node 17, Type 0, BuildingBlock: IZENUY_clean_sbu_0, # of connection points: 6
#     Node 18, Type 0, BuildingBlock: IZENUY_clean_sbu_0, # of connection points: 6
#     Node 19, Type 0, BuildingBlock: IZENUY_clean_sbu_0, # of connection points: 6
#     Node 20, Type 0, BuildingBlock: IZENUY_clean_sbu_0, # of connection points: 6
#     Node 21, Type 0, BuildingBlock: IZENUY_clean_sbu_0, # of connection points: 6
#     Node 22, Type 0, BuildingBlock: IZENUY_clean_sbu_0, # of connection points: 6
#     Node 23, Type 0, BuildingBlock: IZENUY_clean_sbu_0, # of connection points: 6
#     Node 24, Type 0, BuildingBlock: IZENUY_clean_sbu_0, # of connection points: 6
#     Node 25, Type 0, BuildingBlock: IZENUY_clean_sbu_0, # of connection points: 6
#     Node 26, Type 0, BuildingBlock: IZENUY_clean_sbu_0, # of connection points: 6
#     Node 27, Type 0, BuildingBlock: IZENUY_clean_sbu_0, # of connection points: 6
#     Node 28, Type 0, BuildingBlock: IZENUY_clean_sbu_0, # of connection points: 6
#     Node 29, Type 0, BuildingBlock: IZENUY_clean_sbu_0, # of connection points: 6
#     Node 30, Type 0, BuildingBlock: IZENUY_clean_sbu_0, # of connection points: 6
#     Node 31, Type 0, BuildingBlock: IZENUY_clean_sbu_0, # of connection points: 6
#     Node 32, Type 0, BuildingBlock: IZENUY_clean_sbu_0, # of connection points: 6
#     Node 33, Type 0, BuildingBlock: IZENUY_clean_sbu_0, # of connection points: 6
#     Node 34, Type 0, BuildingBlock: IZENUY_clean_sbu_0, # of connection points: 6
#     Node 35, Type 0, BuildingBlock: IZENUY_clean_sbu_0, # of connection points: 6
#     Edge 36, Type (0, 0), BuildingBlock: CIFDUS_clean_linker_0, # of connection points: 2
#     Edge 37, Type (0, 0), BuildingBlock: CIFDUS_clean_linker_0, # of connection points: 2
#     Edge 38, Type (0, 0), BuildingBlock: CIFDUS_clean_linker_0, # of connection points: 2
#     Edge 39, Type (0, 0), BuildingBlock: CIFDUS_clean_linker_0, # of connection points: 2
#     Edge 40, Type (0, 0), BuildingBlock: CIFDUS_clean_linker_0, # of connection points: 2
#     Edge 41, Type (0, 0), BuildingBlock: CIFDUS_clean_linker_0, # of connection points: 2
#     Edge 42, Type (0, 0), BuildingBlock: CIFDUS_clean_linker_0, # of connection points: 2
#     Edge 43, Type (0, 0), BuildingBlock: CIFDUS_clean_linker_0, # of connection points: 2
#     Edge 44, Type (0, 0), BuildingBlock: CIFDUS_clean_linker_0, # of connection points: 2
#     Edge 45, Type (0, 0), BuildingBlock: CIFDUS_clean_linker_0, # of connection points: 2
#     Edge 46, Type (0, 0), BuildingBlock: CIFDUS_clean_linker_0, # of connection points: 2
#     Edge 47, Type (0, 0), BuildingBlock: CIFDUS_clean_linker_0, # of connection points: 2
#     Edge 48, Type (0, 0), BuildingBlock: CIFDUS_clean_linker_0, # of connection points: 2
#     Edge 49, Type (0, 0), BuildingBlock: CIFDUS_clean_linker_0, # of connection points: 2
#     Edge 50, Type (0, 0), BuildingBlock: CIFDUS_clean_linker_0, # of connection points: 2
#     Edge 51, Type (0, 0), BuildingBlock: CIFDUS_clean_linker_0, # of connection points: 2
#     Edge 52, Type (0, 0), BuildingBlock: CIFDUS_clean_linker_0, # of connection points: 2
#     Edge 53, Type (0, 0), BuildingBlock: CIFDUS_clean_linker_0, # of connection points: 2
#     Edge 54, Type (0, 0), BuildingBlock: CIFDUS_clean_linker_0, # of connection points: 2
#     Edge 55, Type (0, 0), BuildingBlock: CIFDUS_clean_linker_0, # of connection points: 2
#     Edge 56, Type (0, 0), BuildingBlock: CIFDUS_clean_linker_0, # of connection points: 2
#     Edge 57, Type (0, 0), BuildingBlock: CIFDUS_clean_linker_0, # of connection points: 2
#     Edge 58, Type (0, 0), BuildingBlock: CIFDUS_clean_linker_0, # of connection points: 2
#     Edge 59, Type (0, 0), BuildingBlock: CIFDUS_clean_linker_0, # of connection points: 2
#     Edge 60, Type (0, 0), BuildingBlock: CIFDUS_clean_linker_0, # of connection points: 2
#     Edge 61, Type (0, 0), BuildingBlock: CIFDUS_clean_linker_0, # of connection points: 2
#     Edge 62, Type (0, 0), BuildingBlock: CIFDUS_clean_linker_0, # of connection points: 2
#     Edge 63, Type (0, 0), BuildingBlock: CIFDUS_clean_linker_0, # of connection points: 2
#     Edge 64, Type (0, 0), BuildingBlock: CIFDUS_clean_linker_0, # of connection points: 2
#     Edge 65, Type (0, 0), BuildingBlock: CIFDUS_clean_linker_0, # of connection points: 2
#     Edge 66, Type (0, 0), BuildingBlock: CIFDUS_clean_linker_0, # of connection points: 2
#     Edge 67, Type (0, 0), BuildingBlock: CIFDUS_clean_linker_0, # of connection points: 2
#     Edge 68, Type (0, 0), BuildingBlock: CIFDUS_clean_linker_0, # of connection points: 2
#     Edge 69, Type (0, 0), BuildingBlock: CIFDUS_clean_linker_0, # of connection points: 2
#     Edge 70, Type (0, 0), BuildingBlock: CIFDUS_clean_linker_0, # of connection points: 2
#     Edge 71, Type (0, 0), BuildingBlock: CIFDUS_clean_linker_0, # of connection points: 2
#     Edge 72, Type (0, 0), BuildingBlock: CIFDUS_clean_linker_0, # of connection points: 2
#     Edge 73, Type (0, 0), BuildingBlock: CIFDUS_clean_linker_0, # of connection points: 2
#     Edge 74, Type (0, 0), BuildingBlock: CIFDUS_clean_linker_0, # of connection points: 2
#     Edge 75, Type (0, 0), BuildingBlock: CIFDUS_clean_linker_0, # of connection points: 2
#     Edge 76, Type (0, 0), BuildingBlock: CIFDUS_clean_linker_0, # of connection points: 2
#     Edge 77, Type (0, 0), BuildingBlock: CIFDUS_clean_linker_0, # of connection points: 2
#     Edge 78, Type (0, 0), BuildingBlock: CIFDUS_clean_linker_0, # of connection points: 2
#     Edge 79, Type (0, 0), BuildingBlock: CIFDUS_clean_linker_0, # of connection points: 2
#     Edge 80, Type (0, 0), BuildingBlock: CIFDUS_clean_linker_0, # of connection points: 2
#     Edge 81, Type (0, 0), BuildingBlock: CIFDUS_clean_linker_0, # of connection points: 2
#     Edge 82, Type (0, 0), BuildingBlock: CIFDUS_clean_linker_0, # of connection points: 2
#     Edge 83, Type (0, 0), BuildingBlock: CIFDUS_clean_linker_0, # of connection points: 2
#     Edge 84, Type (0, 0), BuildingBlock: CIFDUS_clean_linker_0, # of connection points: 2
#     Edge 85, Type (0, 0), BuildingBlock: CIFDUS_clean_linker_0, # of connection points: 2
#     Edge 86, Type (0, 0), BuildingBlock: CIFDUS_clean_linker_0, # of connection points: 2
#     Edge 87, Type (0, 0), BuildingBlock: CIFDUS_clean_linker_0, # of connection points: 2
#     Edge 88, Type (0, 0), BuildingBlock: CIFDUS_clean_linker_0, # of connection points: 2
#     Edge 89, Type (0, 0), BuildingBlock: CIFDUS_clean_linker_0, # of connection points: 2
#     Edge 90, Type (0, 0), BuildingBlock: CIFDUS_clean_linker_0, # of connection points: 2
#     Edge 91, Type (0, 0), BuildingBlock: CIFDUS_clean_linker_0, # of connection points: 2
#     Edge 92, Type (0, 0), BuildingBlock: CIFDUS_clean_linker_0, # of connection points: 2
#     Edge 93, Type (0, 0), BuildingBlock: CIFDUS_clean_linker_0, # of connection points: 2
#     Edge 94, Type (0, 0), BuildingBlock: CIFDUS_clean_linker_0, # of connection points: 2
#     Edge 95, Type (0, 0), BuildingBlock: CIFDUS_clean_linker_0, # of connection points: 2
#     Edge 96, Type (0, 0), BuildingBlock: CIFDUS_clean_linker_0, # of connection points: 2
#     Edge 97, Type (0, 0), BuildingBlock: CIFDUS_clean_linker_0, # of connection points: 2
#     Edge 98, Type (0, 0), BuildingBlock: CIFDUS_clean_linker_0, # of connection points: 2
#     Edge 99, Type (0, 0), BuildingBlock: CIFDUS_clean_linker_0, # of connection points: 2
#     Edge 100, Type (0, 0), BuildingBlock: CIFDUS_clean_linker_0, # of connection points: 2
#     Edge 101, Type (0, 0), BuildingBlock: CIFDUS_clean_linker_0, # of connection points: 2
#     Edge 102, Type (0, 0), BuildingBlock: CIFDUS_clean_linker_0, # of connection points: 2
#     Edge 103, Type (0, 0), BuildingBlock: CIFDUS_clean_linker_0, # of connection points: 2
#     Edge 104, Type (0, 0), BuildingBlock: CIFDUS_clean_linker_0, # of connection points: 2
#     Edge 105, Type (0, 0), BuildingBlock: CIFDUS_clean_linker_0, # of connection points: 2
#     Edge 106, Type (0, 0), BuildingBlock: CIFDUS_clean_linker_0, # of connection points: 2
#     Edge 107, Type (0, 0), BuildingBlock: CIFDUS_clean_linker_0, # of connection points: 2
#     Edge 108, Type (0, 0), BuildingBlock: CIFDUS_clean_linker_0, # of connection points: 2
#     Edge 109, Type (0, 0), BuildingBlock: CIFDUS_clean_linker_0, # of connection points: 2
#     Edge 110, Type (0, 0), BuildingBlock: CIFDUS_clean_linker_0, # of connection points: 2
#     Edge 111, Type (0, 0), BuildingBlock: CIFDUS_clean_linker_0, # of connection points: 2
#     Edge 112, Type (0, 0), BuildingBlock: CIFDUS_clean_linker_0, # of connection points: 2
#     Edge 113, Type (0, 0), BuildingBlock: CIFDUS_clean_linker_0, # of connection points: 2
#     Edge 114, Type (0, 0), BuildingBlock: CIFDUS_clean_linker_0, # of connection points: 2
#     Edge 115, Type (0, 0), BuildingBlock: CIFDUS_clean_linker_0, # of connection points: 2
#     Edge 116, Type (0, 0), BuildingBlock: CIFDUS_clean_linker_0, # of connection points: 2
#     Edge 117, Type (0, 0), BuildingBlock: CIFDUS_clean_linker_0, # of connection points: 2
#     Edge 118, Type (0, 0), BuildingBlock: CIFDUS_clean_linker_0, # of connection points: 2
#     Edge 119, Type (0, 0), BuildingBlock: CIFDUS_clean_linker_0, # of connection points: 2
#     Edge 120, Type (0, 0), BuildingBlock: CIFDUS_clean_linker_0, # of connection points: 2
#     Edge 121, Type (0, 0), BuildingBlock: CIFDUS_clean_linker_0, # of connection points: 2
#     Edge 122, Type (0, 0), BuildingBlock: CIFDUS_clean_linker_0, # of connection points: 2
#     Edge 123, Type (0, 0), BuildingBlock: CIFDUS_clean_linker_0, # of connection points: 2
#     Edge 124, Type (0, 0), BuildingBlock: CIFDUS_clean_linker_0, # of connection points: 2
#     Edge 125, Type (0, 0), BuildingBlock: CIFDUS_clean_linker_0, # of connection points: 2
#     Edge 126, Type (0, 0), BuildingBlock: CIFDUS_clean_linker_0, # of connection points: 2
#     Edge 127, Type (0, 0), BuildingBlock: CIFDUS_clean_linker_0, # of connection points: 2
#     Edge 128, Type (0, 0), BuildingBlock: CIFDUS_clean_linker_0, # of connection points: 2
#     Edge 129, Type (0, 0), BuildingBlock: CIFDUS_clean_linker_0, # of connection points: 2
#     Edge 130, Type (0, 0), BuildingBlock: CIFDUS_clean_linker_0, # of connection points: 2
#     Edge 131, Type (0, 0), BuildingBlock: CIFDUS_clean_linker_0, # of connection points: 2
#     Edge 132, Type (0, 0), BuildingBlock: CIFDUS_clean_linker_0, # of connection points: 2
#     Edge 133, Type (0, 0), BuildingBlock: CIFDUS_clean_linker_0, # of connection points: 2
#     Edge 134, Type (0, 0), BuildingBlock: CIFDUS_clean_linker_0, # of connection points: 2
#     Edge 135, Type (0, 0), BuildingBlock: CIFDUS_clean_linker_0, # of connection points: 2
#     Edge 136, Type (0, 0), BuildingBlock: CIFDUS_clean_linker_0, # of connection points: 2
#     Edge 137, Type (0, 0), BuildingBlock: CIFDUS_clean_linker_0, # of connection points: 2
#     Edge 138, Type (0, 0), BuildingBlock: CIFDUS_clean_linker_0, # of connection points: 2
#     Edge 139, Type (0, 0), BuildingBlock: CIFDUS_clean_linker_0, # of connection points: 2
#     Edge 140, Type (0, 0), BuildingBlock: CIFDUS_clean_linker_0, # of connection points: 2
#     Edge 141, Type (0, 0), BuildingBlock: CIFDUS_clean_linker_0, # of connection points: 2
#     Edge 142, Type (0, 0), BuildingBlock: CIFDUS_clean_linker_0, # of connection points: 2
#     Edge 143, Type (0, 0), BuildingBlock: CIFDUS_clean_linker_0, # of connection points: 2
# Relax obj value: 0.470
# Max RMSD: 0.183
# Mean RMSD: 0.183
data_MOF--net-wmy--node1-IZENUY_clean_sbu_0--edge1-CIFDUS_clean_linker_0
_symmetry_space_group_name_H-M    P1
_symmetry_Int_Tables_number       1
_symmetry_cell_setting            triclinic
loop_
_symmetry_equiv_pos_as_xyz
'x, y, z'
_cell_length_a     47.068712
_cell_length_b     47.104716
_cell_length_c     48.293865
_cell_angle_alpha  90.09462
_cell_angle_beta   90.05064
_cell_angle_gamma 120.00321
loop_
_atom_site_label
_atom_site_type_symbol
_atom_site_fract_x
_atom_site_fract_y
_atom_site_fract_z
_atom_type_partial_charge
Fe0 Fe 0.02205 0.14228 0.10124 0.0
Fe1 Fe 0.99868 0.18547 0.12872 0.0
O2 O 0.03018 0.17578 0.12279 0.0
Fe3 Fe 0.06965 0.19891 0.13797 0.0
O4 O 0.06726 0.1634 0.15498 0.0
O5 O 0.05149 0.13299 0.11772 0.0
O6 O 0.99194 0.11452 0.12529 0.0
C7 C 0.96714 0.11607 0.1329 0.0
C8 C 0.0821 0.18746 0.08266 0.0
O9 O 0.96524 0.14178 0.12864 0.0
C10 C 0.05688 0.24787 0.12357 0.0
O11 O 0.99085 0.14424 0.08002 0.0
O12 O 0.99409 0.19058 0.09182 0.0
O13 O 0.09142 0.19468 0.10769 0.0
O14 O 0.0522 0.16928 0.07665 0.0
C15 C 0.02596 0.194 0.18088 0.0
O16 O 0.02684 0.23041 0.13011 0.0
O17 O 0.07563 0.23606 0.12243 0.0
C18 C 0.98768 0.16854 0.07411 0.0
O19 O 1.00071 0.18118 0.16577 0.0
O20 O 0.05449 0.207 0.17046 0.0
C21 C 0.0633 0.13862 0.14185 0.0
Fe22 Fe 0.8596 0.89007 0.10404 0.0
Fe23 Fe 0.82546 0.82123 0.12922 0.0
O24 O 0.82785 0.85968 0.12417 0.0
Fe25 Fe 0.79854 0.86825 0.1391 0.0
O26 O 0.82717 0.91287 0.14323 0.0
O27 O 0.87477 0.91759 0.13333 0.0
O28 O 0.8898 0.87806 0.11278 0.0
C29 C 0.89171 0.86294 0.13357 0.0
C30 C 0.8048 0.89496 0.08797 0.0
O31 O 0.8663 0.84008 0.14454 0.0
C32 C 0.76043 0.80199 0.12296 0.0
O33 O 0.84603 0.86401 0.07386 0.0
O34 O 0.84121 0.81998 0.09417 0.0
O35 O 0.78518 0.87382 0.1049 0.0
O36 O 0.83544 0.90805 0.09133 0.0
C37 C 0.81091 0.83788 0.18212 0.0
O38 O 0.78437 0.79953 0.11428 0.0
O39 O 0.76479 0.82567 0.1382 0.0
C40 C 0.84341 0.83608 0.07233 0.0
O41 O 0.80989 0.81657 0.1652 0.0
O42 O 0.81028 0.86293 0.17354 0.0
C43 C 0.85821 0.92824 0.14529 0.0
Fe44 Fe 0.13823 0.94307 0.14136 0.0
Fe45 Fe 0.12338 0.98307 0.10044 0.0
O46 O 0.15146 0.97941 0.12203 0.0
Fe47 Fe 0.19265 0.01212 0.12448 0.0
O48 O 0.19752 0.00416 0.16114 0.0
O49 O 0.1479 0.96606 0.17355 0.0
O50 O 0.09533 0.93376 0.1455 0.0
C51 C 0.08288 0.95213 0.14361 0.0
C52 C 0.20142 0.95885 0.12309 0.0
O53 O 0.0968 0.97784 0.12929 0.0
C54 C 0.17724 0.01136 0.06734 0.0
O55 O 0.12776 0.91804 0.10999 0.0
O56 O 0.10006 0.93949 0.09144 0.0
O57 O 0.20815 0.98576 0.11186 0.0
O58 O 0.17838 0.94561 0.1406 0.0
C59 C 0.15847 0.04502 0.12556 0.0
O60 O 0.14819 0.98837 0.07037 0.0
O61 O 0.19475 0.02629 0.08829 0.0
C62 C 0.10804 0.91754 0.09198 0.0
O63 O 0.14152 0.02729 0.10557 0.0
O64 O 0.1794 0.03999 0.13744 0.0
C65 C 0.17576 0.99006 0.17969 0.0
Fe66 Fe 0.13697 0.00653 0.42417 0.0
Fe67 Fe 0.18539 0.99049 0.39625 0.0
O68 O 0.17136 0.0187 0.40252 0.0
Fe69 Fe 0.19086 0.05861 0.38787 0.0
O70 O 0.15335 0.0532 0.37207 0.0
O71 O 0.12412 0.03407 0.40956 0.0
O72 O 0.11138 0.97657 0.39892 0.0
C73 C 0.11632 0.95426 0.38985 0.0
C74 C 0.17955 0.06701 0.44451 0.0
O75 O 0.14307 0.95453 0.39493 0.0
C76 C 0.24375 0.05146 0.4037 0.0
O77 O 0.14156 0.9759 0.44386 0.0
O78 O 0.19061 0.98578 0.43307 0.0
O79 O 0.18536 0.07768 0.41967 0.0
O80 O 0.16235 0.03672 0.44964 0.0
C81 C 0.18925 0.01713 0.34419 0.0
O82 O 0.22951 0.02169 0.39613 0.0
O83 O 0.22957 0.06801 0.40246 0.0
C84 C 0.16728 0.97538 0.44995 0.0
O85 O 0.18119 0.99272 0.35951 0.0
O86 O 0.19947 0.04563 0.35413 0.0
C87 C 0.12804 0.0463 0.38577 0.0
Fe88 Fe 0.97067 0.1199 0.42412 0.0
Fe89 Fe 0.00632 0.18427 0.39157 0.0
O90 O 0.96954 0.1478 0.40051 0.0
Fe91 Fe 0.93129 0.13901 0.38608 0.0
O92 O 0.92506 0.10136 0.37003 0.0
O93 O 0.93646 0.08349 0.40815 0.0
O94 O 0.99727 0.11313 0.40168 0.0
C95 C 0.02457 0.135 0.39253 0.0
C96 C 0.91487 0.11716 0.44185 0.0
O97 O 0.0324 0.16506 0.39314 0.0
C98 C 0.95909 0.20433 0.39837 0.0
O99 O 0.00516 0.15081 0.4444 0.0
O100 O 0.01538 0.19814 0.42727 0.0
O101 O 0.90663 0.11631 0.41668 0.0
O102 O 0.94393 0.12512 0.44794 0.0
C103 C 0.97576 0.16746 0.34114 0.0
O104 O 0.98626 0.20943 0.38848 0.0
O105 O 0.93523 0.17569 0.40151 0.0
C106 C 0.01684 0.18135 0.44686 0.0
O107 O 1.00056 0.17347 0.35535 0.0
O108 O 0.94868 0.1598 0.35277 0.0
C109 C 0.92492 0.07859 0.38384 0.0
Fe110 Fe 0.83099 0.83011 0.39319 0.0
Fe111 Fe 0.87557 0.79995 0.38317 0.0
O112 O 0.86919 0.83132 0.39682 0.0
Fe113 Fe 0.90149 0.86433 0.41458 0.0
O114 O 0.90307 0.89246 0.38873 0.0
O115 O 0.85012 0.87535 0.38959 0.0
O116 O 0.83316 0.82884 0.35593 0.0
C117 C 0.8383 0.80957 0.34147 0.0
C118 C 0.84701 0.85334 0.44616 0.0
O119 O 0.84903 0.79221 0.35244 0.0
C120 C 0.90626 0.81394 0.43623 0.0
O121 O 0.80587 0.78491 0.39587 0.0
O122 O 0.84253 0.76967 0.40367 0.0
O123 O 0.87541 0.87269 0.43717 0.0
O124 O 0.82594 0.83134 0.43065 0.0
C125 C 0.93489 0.85242 0.37181 0.0
O126 O 0.9033 0.80244 0.41183 0.0
O127 O 0.90102 0.8372 0.44104 0.0
C128 C 0.81367 0.76451 0.40514 0.0
O129 O 0.90974 0.82836 0.36171 0.0
O130 O 0.93436 0.86285 0.39576 0.0
C131 C 0.8793 0.8965 0.38259 0.0
Fe132 Fe 0.99506 0.86265 0.92851 0.0
Fe133 Fe 0.01654 0.82056 0.89615 0.0
O134 O 0.98607 0.83075 0.90481 0.0
Fe135 Fe 0.94651 0.80904 0.88979 0.0
O136 O 0.93902 0.84377 0.89028 0.0
O137 O 0.98638 0.88534 0.9029 0.0
O138 O 0.03828 0.88737 0.91869 0.0
C139 C 0.05237 0.88758 0.89638 0.0
C140 C 0.93087 0.81425 0.9433 0.0
O141 O 0.04358 0.86161 0.8828 0.0
C142 C 0.96205 0.75952 0.90009 0.0
O143 O 0.00412 0.84184 0.95549 0.0
O144 O 0.03682 0.83142 0.93054 0.0
O145 O 0.92722 0.79491 0.92368 0.0
O146 O 0.95349 0.84389 0.94273 0.0
C147 C 0.98546 0.81714 0.84496 0.0
O148 O 0.99086 0.77856 0.90885 0.0
O149 O 0.94686 0.77067 0.88644 0.0
C150 C 0.02661 0.83482 0.95397 0.0
O151 O 1.00224 0.80892 0.86011 0.0
O152 O 0.96343 0.82178 0.85529 0.0
C153 C 0.95885 0.87434 0.8913 0.0
Fe154 Fe 0.14049 0.11589 0.91237 0.0
Fe155 Fe 0.17722 0.18396 0.88615 0.0
O156 O 0.17403 0.14558 0.89329 0.0
Fe157 Fe 0.20479 0.13702 0.88167 0.0
O158 O 0.17661 0.09237 0.87753 0.0
O159 O 0.12805 0.08704 0.88396 0.0
O160 O 0.11129 0.1275 0.89909 0.0
C161 C 0.11163 0.14332 0.87784 0.0
C162 C 0.19399 0.11113 0.93359 0.0
O163 O 0.1383 0.16528 0.86761 0.0
C164 C 0.24068 0.20264 0.89928 0.0
O165 O 0.15094 0.14315 0.94197 0.0
O166 O 0.15733 0.18566 0.91818 0.0
O167 O 0.21492 0.1317 0.91708 0.0
O168 O 0.16357 0.09872 0.92907 0.0
C169 C 0.19645 0.16697 0.83643 0.0
O170 O 0.21583 0.20503 0.9048 0.0
O171 O 0.23848 0.17986 0.88386 0.0
C172 C 0.1532 0.17096 0.94098 0.0
O173 O 0.19732 0.18867 0.85256 0.0
O174 O 0.19629 0.14187 0.84584 0.0
C175 C 0.14567 0.0761 0.87459 0.0
Fe176 Fe 0.82007 0.99564 0.89603 0.0
Fe177 Fe 0.86414 0.07038 0.88777 0.0
O178 O 0.8567 0.03308 0.90299 0.0
Fe179 Fe 0.88635 0.03337 0.92546 0.0
O180 O 0.89256 0.00694 0.90252 0.0
O181 O 0.8402 0.97041 0.89764 0.0
O182 O 0.82859 0.99932 0.85928 0.0
C183 C 0.83419 0.02344 0.84429 0.0
C184 C 0.82725 0.98874 0.95134 0.0
O185 O 0.84212 0.05109 0.85509 0.0
C186 C 0.88617 0.0878 0.94331 0.0
O187 O 0.79409 0.01476 0.89307 0.0
O188 O 0.82779 0.06667 0.90376 0.0
O189 O 0.85719 0.99897 0.94665 0.0
O190 O 0.8088 0.98913 0.9326 0.0
C191 C 0.92495 0.07734 0.88392 0.0
O192 O 0.88734 0.09626 0.91811 0.0
O193 O 0.88119 0.05973 0.94937 0.0
C194 C 0.79922 0.04232 0.90197 0.0
O195 O 0.90125 0.07615 0.87079 0.0
O196 O 0.92163 0.06793 0.90877 0.0
C197 C 0.87035 0.97887 0.89508 0.0
Fe198 Fe 0.80723 0.9353 0.63709 0.0
Fe199 Fe 0.86117 0.9884 0.60146 0.0
O200 O 0.82792 0.97592 0.62433 0.0
Fe201 Fe 0.8156 0.0044 0.63467 0.0
O202 O 0.80158 0.98656 0.66934 0.0
O203 O 0.81746 0.95006 0.67262 0.0
O204 O 0.84374 0.93026 0.63745 0.0
C205 C 0.87413 0.95128 0.63694 0.0
C206 C 0.75617 0.94923 0.62619 0.0
O207 O 0.88397 0.97915 0.62648 0.0
C208 C 0.83336 0.02077 0.57801 0.0
O209 O 0.79587 0.91784 0.60214 0.0
O210 O 0.84522 0.94847 0.58479 0.0
O211 O 0.77491 0.9789 0.61954 0.0
O212 O 0.76733 0.93331 0.63893 0.0
C213 C 0.88218 0.04178 0.63774 0.0
O214 O 0.8404 0.99845 0.57489 0.0
O215 O 0.82833 0.02816 0.60208 0.0
C216 C 0.81668 0.92387 0.58323 0.0
O217 O 0.88348 0.03059 0.61429 0.0
O218 O 0.85542 0.03099 0.65054 0.0
C219 C 0.8109 0.97035 0.68392 0.0
Fe220 Fe 0.07838 0.86579 0.63969 0.0
Fe221 Fe 0.03873 0.88705 0.60375 0.0
O222 O 0.04004 0.85835 0.62632 0.0
Fe223 Fe 0.00321 0.82216 0.63527 0.0
O224 O 0.01715 0.82003 0.67043 0.0
O225 O 0.06492 0.86543 0.67508 0.0
O226 O 0.09748 0.91096 0.64011 0.0
C227 C 0.08452 0.92896 0.64023 0.0
C228 C 0.0452 0.79836 0.62757 0.0
O229 O 0.0565 0.91879 0.62989 0.0
C230 C 0.9938 0.83041 0.57831 0.0
O231 O 0.09396 0.86635 0.60493 0.0
O232 O 0.07869 0.90001 0.58799 0.0
O233 O 0.01864 0.79682 0.62052 0.0
O234 O 0.06652 0.8223 0.64154 0.0
C235 C 0.98312 0.86756 0.63761 0.0
O236 O 0.02064 0.85694 0.57609 0.0
O237 O 0.98263 0.81832 0.60193 0.0
C238 C 0.09496 0.88541 0.58611 0.0
O239 O 0.99873 0.87965 0.61543 0.0
O240 O 0.98527 0.84523 0.65023 0.0
C241 C 0.0391 0.84224 0.68558 0.0
Fe242 Fe 0.12678 0.20186 0.63837 0.0
Fe243 Fe 0.10987 0.14204 0.60266 0.0
O244 O 0.1387 0.17541 0.6227 0.0
Fe245 Fe 0.17897 0.18192 0.62719 0.0
O246 O 0.18335 0.19755 0.66283 0.0
O247 O 0.13493 0.19186 0.67252 0.0
O248 O 0.08357 0.17009 0.64332 0.0
C249 C 0.07036 0.13919 0.64475 0.0
C250 C 0.19236 0.24522 0.62173 0.0
O251 O 0.08281 0.12458 0.63215 0.0
C252 C 0.16419 0.16297 0.57057 0.0
O253 O 0.11778 0.21354 0.60481 0.0
O254 O 0.08797 0.16257 0.5906 0.0
O255 O 0.19744 0.22306 0.61238 0.0
O256 O 0.16758 0.2381 0.6366 0.0
C257 C 0.14256 0.11513 0.63158 0.0
O258 O 0.13527 0.15779 0.5722 0.0
O259 O 0.18099 0.16666 0.5923 0.0
C260 C 0.09723 0.19265 0.58815 0.0
O261 O 0.12618 0.11501 0.61086 0.0
O262 O 0.16344 0.14161 0.64275 0.0
C263 C 0.16167 0.19421 0.68021 0.0
Fe264 Fe 0.66198 0.51672 0.46008 0.0
Fe265 Fe 0.73584 0.54031 0.46469 0.0
O266 O 0.69582 0.51087 0.45337 0.0
Fe267 Fe 0.69005 0.47581 0.43536 0.0
O268 O 0.64905 0.44869 0.449 0.0
O269 O 0.63989 0.47844 0.47893 0.0
O270 O 0.67795 0.53637 0.49404 0.0
C271 C 0.69847 0.53458 0.51006 0.0
C272 C 0.64972 0.49061 0.4053 0.0
O273 O 0.72267 0.53308 0.50049 0.0
C274 C 0.74951 0.52662 0.41332 0.0
O275 O 0.68141 0.55553 0.44153 0.0
O276 O 0.72902 0.5753 0.46239 0.0
O277 O 0.67398 0.48611 0.40526 0.0
O278 O 0.63999 0.49728 0.4276 0.0
C279 C 0.73482 0.48014 0.47305 0.0
O280 O 0.75112 0.54883 0.42912 0.0
O281 O 0.73013 0.49664 0.41843 0.0
C282 C 0.70921 0.57939 0.44756 0.0
O283 O 0.75043 0.51086 0.46932 0.0
O284 O 0.70582 0.4632 0.46426 0.0
C285 C 0.63439 0.45104 0.47001 0.0
Fe286 Fe 0.53025 0.2308 0.43109 0.0
Fe287 Fe 0.49834 0.1619 0.45595 0.0
O288 O 0.49933 0.19983 0.4515 0.0
Fe289 Fe 0.46969 0.20746 0.46712 0.0
O290 O 0.50082 0.24214 0.48673 0.0
O291 O 0.53139 0.26489 0.4502 0.0
O292 O 0.56139 0.23386 0.45432 0.0
C293 C 0.56628 0.21064 0.46032 0.0
C294 C 0.47806 0.23522 0.41351 0.0
O295 O 0.54389 0.1809 0.45645 0.0
C296 C 0.43129 0.14436 0.44866 0.0
O297 O 0.53564 0.20322 0.40801 0.0
O298 O 0.49584 0.15417 0.41868 0.0
O299 O 0.46989 0.23421 0.43873 0.0
O300 O 0.50018 0.22895 0.40687 0.0
C301 C 0.48167 0.17173 0.50843 0.0
O302 O 0.45286 0.13709 0.45602 0.0
O303 O 0.43715 0.17358 0.44883 0.0
C304 C 0.51572 0.17401 0.40126 0.0
O305 O 0.50055 0.16645 0.49346 0.0
O306 O 0.46388 0.18208 0.49787 0.0
C307 C 0.52447 0.26633 0.4752 0.0
Fe308 Fe 0.80754 0.3374 0.42533 0.0
Fe309 Fe 0.87184 0.36063 0.45701 0.0
O310 O 0.83135 0.3293 0.44874 0.0
Fe311 Fe 0.81487 0.29013 0.46419 0.0
O312 O 0.77209 0.28122 0.46461 0.0
O313 O 0.77565 0.32727 0.45088 0.0
O314 O 0.8247 0.3802 0.43593 0.0
C315 C 0.83807 0.39396 0.45854 0.0
C316 C 0.79256 0.27309 0.4109 0.0
O317 O 0.85659 0.38632 0.47151 0.0
C318 C 0.88041 0.30767 0.45212 0.0
O319 O 0.83775 0.34803 0.39804 0.0
O320 O 0.88004 0.38151 0.42341 0.0
O321 O 0.80876 0.27 0.43044 0.0
O322 O 0.78601 0.29603 0.41086 0.0
C323 C 0.84698 0.33048 0.50827 0.0
O324 O 0.8889 0.33609 0.44315 0.0
O325 O 0.85449 0.29181 0.46629 0.0
C326 C 0.86697 0.3712 0.39993 0.0
O327 O 0.87112 0.34612 0.49225 0.0
O328 O 0.81988 0.30795 0.49882 0.0
C329 C 0.75998 0.29981 0.46268 0.0
Fe330 Fe 0.81551 0.36015 0.75646 0.0
Fe331 Fe 0.8444 0.3232 0.7265 0.0
O332 O 0.84365 0.36003 0.73253 0.0
Fe333 Fe 0.87106 0.397 0.71504 0.0
O334 O 0.83784 0.40065 0.69957 0.0
O335 O 0.81132 0.39234 0.73886 0.0
O336 O 0.78141 0.33109 0.73581 0.0
C337 C 0.77654 0.3033 0.7285 0.0
C338 C 0.86925 0.41778 0.77004 0.0
O339 O 0.79937 0.29633 0.72994 0.0
C340 C 0.91124 0.37269 0.72954 0.0
O341 O 0.81354 0.32761 0.77863 0.0
O342 O 0.85163 0.31845 0.76263 0.0
O343 O 0.87452 0.42408 0.74435 0.0
O344 O 0.84863 0.38936 0.77808 0.0
C345 C 0.8523 0.34783 0.67374 0.0
O346 O 0.88947 0.34404 0.72216 0.0
O347 O 0.90571 0.39618 0.72974 0.0
C348 C 0.83307 0.31685 0.78196 0.0
O349 O 0.83676 0.32447 0.69019 0.0
O350 O 0.8723 0.3764 0.6827 0.0
C351 C 0.81606 0.40175 0.71392 0.0
Fe352 Fe 0.67114 0.50972 0.72137 0.0
Fe353 Fe 0.59715 0.46439 0.70954 0.0
O354 O 0.63398 0.4722 0.72623 0.0
Fe355 Fe 0.63382 0.44206 0.74785 0.0
O356 O 0.67624 0.45342 0.74108 0.0
O357 O 0.69157 0.48848 0.70697 0.0
O358 O 0.66192 0.51531 0.68529 0.0
C359 C 0.64166 0.49508 0.66786 0.0
C360 C 0.67178 0.49624 0.77888 0.0
O361 O 0.61564 0.46999 0.67568 0.0
C362 C 0.57302 0.43696 0.75984 0.0
O363 O 0.6527 0.53285 0.73518 0.0
O364 O 0.60687 0.50728 0.71085 0.0
O365 O 0.64541 0.46909 0.77758 0.0
O366 O 0.6869 0.51062 0.75682 0.0
C367 C 0.59626 0.40383 0.70534 0.0
O368 O 0.57574 0.45816 0.74249 0.0
O369 O 0.59135 0.42463 0.75876 0.0
C370 C 0.62652 0.53084 0.72617 0.0
O371 O 0.58118 0.41988 0.70524 0.0
O372 O 0.62226 0.41376 0.71915 0.0
C373 C 0.69264 0.46544 0.71933 0.0
Fe374 Fe 0.53584 0.18805 0.75326 0.0
Fe375 Fe 0.4724 0.14862 0.72017 0.0
O376 O 0.51208 0.15637 0.72968 0.0
Fe377 Fe 0.52817 0.13249 0.71571 0.0
O378 O 0.57144 0.16593 0.71639 0.0
O379 O 0.56775 0.20907 0.72783 0.0
O380 O 0.51955 0.21448 0.74262 0.0
C381 C 0.50637 0.21534 0.72007 0.0
C382 C 0.54848 0.13764 0.76921 0.0
O383 O 0.4886 0.18967 0.70641 0.0
C384 C 0.46167 0.08629 0.72546 0.0
O385 O 0.50528 0.16871 0.77996 0.0
O386 O 0.46325 0.16066 0.75433 0.0
O387 O 0.53182 0.11822 0.74997 0.0
O388 O 0.55672 0.16762 0.76824 0.0
C389 C 0.49992 0.14214 0.66971 0.0
O390 O 0.45386 0.107 0.73337 0.0
O391 O 0.48804 0.09497 0.71239 0.0
C392 C 0.47615 0.16283 0.77797 0.0
O393 O 0.47493 0.13594 0.68427 0.0
O394 O 0.52561 0.14534 0.68095 0.0
C395 C 0.58354 0.19679 0.71707 0.0
Fe396 Fe 0.64758 0.2051 0.24584 0.0
Fe397 Fe 0.67974 0.1659 0.22584 0.0
O398 O 0.64497 0.1712 0.22808 0.0
Fe399 Fe 0.60733 0.14241 0.21257 0.0
O400 O 0.59328 0.17183 0.20539 0.0
O401 O 0.6364 0.21927 0.21503 0.0
O402 O 0.69043 0.23289 0.23679 0.0
C403 C 0.70698 0.23194 0.21661 0.0
C404 C 0.58609 0.153 0.26209 0.0
O405 O 0.70346 0.20507 0.20794 0.0
C406 C 0.63016 0.10304 0.2356 0.0
O407 O 0.65867 0.19298 0.27768 0.0
O408 O 0.69688 0.18453 0.26008 0.0
O409 O 0.5868 0.13204 0.2462 0.0
O410 O 0.60512 0.18333 0.25821 0.0
C411 C 0.65151 0.14977 0.1723 0.0
O412 O 0.65766 0.12624 0.24356 0.0
O413 O 0.61414 0.10773 0.21693 0.0
C414 C 0.68309 0.18908 0.28087 0.0
O415 O 0.66883 0.14691 0.19113 0.0
O416 O 0.62633 0.15159 0.17852 0.0
C417 C 0.60921 0.20271 0.20291 0.0
Fe418 Fe 0.82001 0.4509 0.24537 0.0
Fe419 Fe 0.85031 0.52214 0.22621 0.0
O420 O 0.85079 0.48468 0.22741 0.0
Fe421 Fe 0.88204 0.48095 0.2103 0.0
O422 O 0.85671 0.43664 0.20293 0.0
O423 O 0.80738 0.42597 0.21424 0.0
O424 O 0.78789 0.46055 0.23787 0.0
C425 C 0.78536 0.47702 0.21843 0.0
C426 C 0.87756 0.44903 0.25848 0.0
O427 O 0.81012 0.50262 0.20956 0.0
C428 C 0.91565 0.5442 0.23362 0.0
O429 O 0.83074 0.47367 0.27754 0.0
O430 O 0.83219 0.51774 0.26089 0.0
O431 O 0.8964 0.4725 0.24284 0.0
O432 O 0.84673 0.43519 0.2561 0.0
C433 C 0.8664 0.51378 0.17189 0.0
O434 O 0.89035 0.54372 0.24291 0.0
O435 O 0.91324 0.52434 0.2148 0.0
C436 C 0.83091 0.50025 0.28131 0.0
O437 O 0.86804 0.5329 0.19116 0.0
O438 O 0.86878 0.48875 0.17723 0.0
C439 C 0.82589 0.41805 0.20175 0.0
Fe440 Fe 0.54652 0.35016 0.24624 0.0
Fe441 Fe 0.48246 0.33083 0.21545 0.0
O442 O 0.52362 0.36063 0.22384 0.0
Fe443 Fe 0.54178 0.40064 0.20978 0.0
O444 O 0.58349 0.40677 0.20802 0.0
O445 O 0.57718 0.35899 0.2199 0.0
O446 O 0.52677 0.30736 0.23506 0.0
C447 C 0.51295 0.29462 0.21232 0.0
C448 C 0.56578 0.41496 0.26274 0.0
O449 O 0.49564 0.30406 0.19981 0.0
C450 C 0.47818 0.3861 0.22441 0.0
O451 O 0.51733 0.34089 0.27402 0.0
O452 O 0.47393 0.30914 0.24896 0.0
O453 O 0.54971 0.41971 0.24413 0.0
O454 O 0.57068 0.391 0.26135 0.0
C455 C 0.5083 0.36289 0.16472 0.0
O456 O 0.46739 0.35636 0.23065 0.0
O457 O 0.50332 0.40139 0.20928 0.0
C458 C 0.48771 0.31863 0.27241 0.0
O459 O 0.48377 0.34656 0.18032 0.0
O460 O 0.53545 0.38446 0.17469 0.0
C461 C 0.59385 0.3866 0.20853 0.0
Fe462 Fe 0.49114 0.34202 0.95652 0.0
Fe463 Fe 0.45706 0.26658 0.95944 0.0
O464 O 0.48814 0.30455 0.94582 0.0
Fe465 Fe 0.51621 0.30544 0.92134 0.0
O466 O 0.55006 0.34466 0.93316 0.0
O467 O 0.53232 0.35684 0.97092 0.0
O468 O 0.47503 0.32769 0.99138 0.0
C469 C 0.4755 0.30563 1.00595 0.0
C470 C 0.50545 0.35245 0.89947 0.0
O471 O 0.47183 0.27966 0.99481 0.0
C472 C 0.4569 0.24963 0.90496 0.0
O473 O 0.45047 0.32861 0.94223 0.0
O474 O 0.42695 0.28034 0.96257 0.0
O475 O 0.50324 0.32491 0.89569 0.0
O476 O 0.50799 0.36363 0.92374 0.0
C477 C 0.51283 0.25862 0.95662 0.0
O478 O 0.44006 0.25063 0.92494 0.0
O479 O 0.48779 0.26628 0.90532 0.0
C480 C 0.42501 0.30195 0.94846 0.0
O481 O 0.48204 0.24643 0.95838 0.0
O482 O 0.53064 0.28609 0.9454 0.0
C483 C 0.55544 0.35763 0.95693 0.0
Fe484 Fe 0.65739 0.14895 0.95295 0.0
Fe485 Fe 0.73057 0.19395 0.96931 0.0
O486 O 0.69539 0.18613 0.94976 0.0
Fe487 Fe 0.69849 0.21659 0.92681 0.0
O488 O 0.66963 0.22196 0.94706 0.0
O489 O 0.6324 0.16938 0.94972 0.0
O490 O 0.65613 0.15468 0.98975 0.0
C491 C 0.67809 0.16128 1.00756 0.0
C492 C 0.65614 0.15916 0.89746 0.0
O493 O 0.70752 0.17122 1.00039 0.0
C494 C 0.75529 0.2184 0.91519 0.0
O495 O 0.67669 0.12322 0.95716 0.0
O496 O 0.73008 0.15847 0.95509 0.0
O497 O 0.66661 0.18887 0.90298 0.0
O498 O 0.65482 0.13978 0.91598 0.0
C499 C 0.73719 0.25439 0.97132 0.0
O500 O 0.76 0.21816 0.9412 0.0
O501 O 0.72761 0.21192 0.90601 0.0
C502 C 0.70615 0.12966 0.95387 0.0
O503 O 0.73353 0.23036 0.98536 0.0
O504 O 0.73101 0.25131 0.94576 0.0
C505 C 0.6412 0.1995 0.95341 0.0
Fe506 Fe 0.85586 0.51043 0.95951 0.0
Fe507 Fe 0.80284 0.53076 0.96523 0.0
O508 O 0.81643 0.50463 0.95139 0.0
Fe509 Fe 0.79053 0.47219 0.92919 0.0
O510 O 0.78893 0.44253 0.95375 0.0
O511 O 0.84247 0.46624 0.95843 0.0
O512 O 0.84586 0.50456 0.99552 0.0
C513 C 0.83451 0.51864 0.01015 0.0
C514 C 0.85293 0.49463 0.90524 0.0
O515 O 0.82344 0.53584 0.99934 0.0
C516 C 0.78213 0.52124 0.90866 0.0
O517 O 0.8762 0.55548 0.96256 0.0
O518 O 0.83754 0.56625 0.95045 0.0
O519 O 0.82382 0.4721 0.90964 0.0
O520 O 0.86844 0.51614 0.9234 0.0
C521 C 0.74525 0.47277 0.96749 0.0
O522 O 0.77992 0.52957 0.93334 0.0
O523 O 0.79108 0.50056 0.9039 0.0
C524 C 0.86739 0.575 0.95321 0.0
O525 O 0.7664 0.49719 0.98088 0.0
O526 O 0.75203 0.46571 0.9441 0.0
C527 C 0.81396 0.44176 0.96197 0.0
Fe528 Fe 0.34861 0.80065 0.76209 0.0
Fe529 Fe 0.32691 0.84324 0.79281 0.0
O530 O 0.35829 0.83479 0.78321 0.0
Fe531 Fe 0.39908 0.86019 0.79494 0.0
O532 O 0.40916 0.82687 0.79697 0.0
O533 O 0.36191 0.78267 0.78839 0.0
O534 O 0.30701 0.77544 0.77589 0.0
C535 C 0.2959 0.77701 0.79933 0.0
C536 C 0.41044 0.84918 0.74174 0.0
O537 O 0.30451 0.80421 0.81069 0.0
C538 C 0.37716 0.90463 0.78166 0.0
O539 O 0.33468 0.81667 0.73444 0.0
O540 O 0.30252 0.82634 0.76078 0.0
O541 O 0.41463 0.8705 0.75963 0.0
O542 O 0.38853 0.81948 0.7448 0.0
C543 C 0.36425 0.856 0.84159 0.0
O544 O 0.34814 0.88288 0.77574 0.0
O545 O 0.39614 0.89773 0.79501 0.0
C546 C 0.31096 0.82177 0.73698 0.0
O547 O 0.34517 0.86113 0.8266 0.0
O548 O 0.38603 0.8514 0.83077 0.0
C549 C 0.39047 0.79599 0.79834 0.0
Fe550 Fe 0.15896 0.48906 0.79262 0.0
Fe551 Fe 0.12352 0.52839 0.80296 0.0
O552 O 0.15669 0.52536 0.78883 0.0
Fe553 Fe 0.18776 0.55895 0.77078 0.0
O554 O 0.22036 0.55058 0.77994 0.0
O555 O 0.19858 0.51083 0.81035 0.0
O556 O 0.13998 0.47932 0.82729 0.0
C557 C 0.13658 0.4975 0.84485 0.0
C558 C 0.17877 0.5085 0.73717 0.0
O559 O 0.13357 0.52148 0.83733 0.0
C560 C 0.13071 0.55989 0.75438 0.0
O561 O 0.11984 0.46511 0.77492 0.0
O562 O 0.09328 0.48473 0.79822 0.0
O563 O 0.17834 0.535 0.73926 0.0
O564 O 0.17841 0.49277 0.75863 0.0
C565 C 0.17883 0.5916 0.81297 0.0
O566 O 0.11132 0.53585 0.76909 0.0
O567 O 0.1613 0.57404 0.75814 0.0
C568 C 0.09341 0.46404 0.78153 0.0
O569 O 0.14808 0.57282 0.81031 0.0
O570 O 0.19849 0.58445 0.80146 0.0
C571 C 0.22317 0.53594 0.80066 0.0
Fe572 Fe 0.45358 0.63599 0.76466 0.0
Fe573 Fe 0.51948 0.66681 0.79509 0.0
O574 O 0.4811 0.63189 0.78679 0.0
Fe575 Fe 0.47026 0.59275 0.80062 0.0
O576 O 0.42579 0.57757 0.8019 0.0
O577 O 0.42214 0.62084 0.79112 0.0
O578 O 0.46492 0.67718 0.7763 0.0
C579 C 0.47881 0.69268 0.79817 0.0
C580 C 0.44898 0.57673 0.74712 0.0
O581 O 0.50008 0.68836 0.81038 0.0
C582 C 0.53741 0.62025 0.78788 0.0
O583 O 0.48317 0.65152 0.73661 0.0
O584 O 0.52441 0.68753 0.76174 0.0
O585 O 0.4667 0.57524 0.76609 0.0
O586 O 0.43717 0.59554 0.74906 0.0
C587 C 0.498 0.63263 0.84571 0.0
O588 O 0.54135 0.64759 0.78014 0.0
O589 O 0.51259 0.60063 0.8019 0.0
C590 C 0.511 0.67695 0.73837 0.0
O591 O 0.52102 0.65264 0.83017 0.0
O592 O 0.47308 0.60782 0.83577 0.0
C593 C 0.41008 0.59292 0.80209 0.0
Fe594 Fe 0.53985 0.73197 0.04803 0.0
Fe595 Fe 0.48041 0.68758 0.08375 0.0
O596 O 0.51263 0.69267 0.06198 0.0
Fe597 Fe 0.51779 0.6587 0.05418 0.0
O598 O 0.53324 0.67293 0.01899 0.0
O599 O 0.52796 0.71648 0.013 0.0
O600 O 0.50921 0.74561 0.04642 0.0
C601 C 0.47818 0.72874 0.04552 0.0
C602 C 0.58152 0.70705 0.06133 0.0
O603 O 0.46325 0.70098 0.05676 0.0
C604 C 0.49904 0.64877 0.11089 0.0
O605 O 0.5533 0.74957 0.08254 0.0
O606 O 0.50322 0.72879 0.09902 0.0
O607 O 0.55882 0.67944 0.06929 0.0
O608 O 0.57535 0.72574 0.04694 0.0
C609 C 0.45108 0.63053 0.05048 0.0
O610 O 0.49547 0.67356 0.11209 0.0
O611 O 0.50245 0.6381 0.08776 0.0
C612 C 0.53377 0.74845 0.101 0.0
O613 O 0.4517 0.64566 0.07233 0.0
O614 O 0.47716 0.63586 0.03867 0.0
C615 C 0.52909 0.69214 1.00327 0.0
Fe616 Fe 0.34691 0.85754 0.05343 0.0
Fe617 Fe 0.27328 0.80691 0.04505 0.0
O618 O 0.31218 0.81835 0.05969 0.0
Fe619 Fe 0.31613 0.79012 0.0808 0.0
O620 O 0.34458 0.7886 0.05682 0.0
O621 O 0.37638 0.84213 0.05289 0.0
O622 O 0.34312 0.85053 0.01657 0.0
C623 C 0.31798 0.8421 1.00201 0.0
C624 C 0.35839 0.85031 0.10749 0.0
O625 O 0.28998 0.83093 0.01307 0.0
C626 C 0.25832 0.78166 0.09964 0.0
O627 O 0.32305 0.87922 0.05287 0.0
O628 O 0.27259 0.84029 0.06258 0.0
O629 O 0.34944 0.8208 0.10215 0.0
O630 O 0.35402 0.86767 0.09012 0.0
C631 C 0.27309 0.74955 0.03907 0.0
O632 O 0.24958 0.78093 0.07464 0.0
O633 O 0.28772 0.79063 0.10558 0.0
C634 C 0.29442 0.87012 0.06202 0.0
O635 O 0.27133 0.77214 0.02667 0.0
O636 O 0.28384 0.75352 0.06355 0.0
C637 C 0.3713 0.81313 0.04952 0.0
Fe638 Fe 0.15373 0.49257 0.05364 0.0
Fe639 Fe 0.20636 0.47193 0.04702 0.0
O640 O 0.19376 0.49918 0.06003 0.0
Fe641 Fe 0.22149 0.53332 0.07989 0.0
O642 O 0.22122 0.561 0.05427 0.0
O643 O 0.16738 0.53694 0.0512 0.0
O644 O 0.15979 0.49356 0.01683 0.0
C645 C 0.16852 0.47647 1.00314 0.0
C646 C 0.16142 0.51425 0.10679 0.0
O647 O 0.18198 0.4621 0.01486 0.0
C648 C 0.23223 0.48643 0.10153 0.0
O649 O 0.13353 0.44736 0.05478 0.0
O650 O 0.1737 0.4381 0.0655 0.0
O651 O 0.19028 0.53577 0.10053 0.0
O652 O 0.14439 0.49115 0.09035 0.0
C653 C 0.26265 0.52998 0.0393 0.0
O654 O 0.23288 0.47698 0.07702 0.0
O655 O 0.22287 0.50683 0.10627 0.0
C656 C 0.14358 0.4291 0.06489 0.0
O657 O 0.24059 0.50429 0.02782 0.0
O658 O 0.25841 0.53815 0.06315 0.0
C659 C 0.19577 0.56138 0.04665 0.0
Fe660 Fe 0.34233 0.49177 0.55567 0.0
Fe661 Fe 0.26748 0.46525 0.55041 0.0
O662 O 0.30685 0.49458 0.56286 0.0
Fe663 Fe 0.31096 0.52779 0.58289 0.0
O664 O 0.33459 0.55561 0.55576 0.0
O665 O 0.36901 0.53684 0.5517 0.0
O666 O 0.33595 0.49135 0.51925 0.0
C667 C 0.31041 0.4744 0.50531 0.0
C668 C 0.3584 0.5161 0.60768 0.0
O669 O 0.28245 0.45859 0.51683 0.0
C670 C 0.25788 0.47725 0.60665 0.0
O671 O 0.32119 0.44657 0.55743 0.0
O672 O 0.2699 0.43239 0.56697 0.0
O673 O 0.34817 0.53536 0.60127 0.0
O674 O 0.35216 0.49218 0.59224 0.0
C675 C 0.2619 0.51966 0.54528 0.0
O676 O 0.24638 0.46718 0.58239 0.0
O677 O 0.28703 0.50019 0.61022 0.0
C678 C 0.29279 0.42594 0.56602 0.0
O679 O 0.26157 0.49611 0.5327 0.0
O680 O 0.2749 0.52803 0.56889 0.0
C681 C 0.36043 0.55789 0.54578 0.0
Fe682 Fe 0.50934 0.84053 0.55318 0.0
Fe683 Fe 0.53919 0.79561 0.54468 0.0
O684 O 0.50783 0.80234 0.55778 0.0
Fe685 Fe 0.47499 0.77076 0.57606 0.0
O686 O 0.44606 0.76902 0.55079 0.0
O687 O 0.46386 0.82196 0.55074 0.0
O688 O 0.50954 0.83663 0.51586 0.0
C689 C 0.52938 0.83153 0.50212 0.0
C690 C 0.48792 0.82662 0.60667 0.0
O691 O 0.54711 0.8218 0.51396 0.0
C692 C 0.52521 0.76517 0.59748 0.0
O693 O 0.55487 0.86541 0.5549 0.0
O694 O 0.56936 0.82888 0.56527 0.0
O695 O 0.46816 0.79781 0.59869 0.0
O696 O 0.50933 0.84708 0.59047 0.0
C697 C 0.48628 0.73653 0.53334 0.0
O698 O 0.53658 0.76801 0.57318 0.0
O699 O 0.50238 0.77101 0.60232 0.0
C700 C 0.57514 0.858 0.56531 0.0
O701 O 0.51087 0.76123 0.52335 0.0
O702 O 0.47548 0.73753 0.55702 0.0
C703 C 0.44138 0.79257 0.54569 0.0
Fe704 Fe 0.20092 0.67308 0.58831 0.0
Fe705 Fe 0.13617 0.64958 0.55759 0.0
O706 O 0.17693 0.68094 0.56494 0.0
Fe707 Fe 0.19323 0.71967 0.54859 0.0
O708 O 0.2358 0.72773 0.54688 0.0
O709 O 0.23229 0.68227 0.56247 0.0
O710 O 0.18319 0.63 0.57829 0.0
C711 C 0.16916 0.61557 0.55603 0.0
C712 C 0.21769 0.7385 0.60112 0.0
O713 O 0.15072 0.6233 0.54292 0.0
C714 C 0.12848 0.70306 0.56327 0.0
O715 O 0.17119 0.6633 0.61594 0.0
O716 O 0.12883 0.62918 0.59109 0.0
O717 O 0.20148 0.74142 0.58157 0.0
O718 O 0.22305 0.71478 0.60206 0.0
C719 C 0.15892 0.67811 0.5059 0.0
O720 O 0.12015 0.6746 0.57198 0.0
O721 O 0.15354 0.71862 0.54793 0.0
C722 C 0.14198 0.64 0.61437 0.0
O723 O 0.1354 0.66349 0.52255 0.0
O724 O 0.18648 0.70054 0.51449 0.0
C725 C 0.2477 0.70898 0.54951 0.0
Fe726 Fe 0.16516 0.67798 0.28958 0.0
Fe727 Fe 0.14075 0.60466 0.30103 0.0
O728 O 0.16894 0.64254 0.28543 0.0
Fe729 Fe 0.20129 0.64523 0.26524 0.0
O730 O 0.23117 0.67425 0.28936 0.0
O731 O 0.21 0.70669 0.28946 0.0
O732 O 0.16915 0.67676 0.32623 0.0
C733 C 0.15408 0.65276 0.34213 0.0
C734 C 0.18376 0.68613 0.23598 0.0
O735 O 0.13577 0.62391 0.3328 0.0
C736 C 0.15027 0.58772 0.24663 0.0
O737 O 0.11986 0.65552 0.29082 0.0
O738 O 0.10694 0.60435 0.28346 0.0
O739 O 0.20476 0.6782 0.24284 0.0
O740 O 0.16148 0.68201 0.25259 0.0
C741 C 0.19607 0.60108 0.30745 0.0
O742 O 0.14141 0.5795 0.27163 0.0
O743 O 0.17245 0.61644 0.24059 0.0
C744 C 0.09985 0.62671 0.28266 0.0
O745 O 0.17264 0.60147 0.31954 0.0
O746 O 0.20431 0.61269 0.28336 0.0
C747 C 0.23344 0.7015 0.29504 0.0
Fe748 Fe 0.40453 0.53565 0.30184 0.0
Fe749 Fe 0.35715 0.5503 0.27022 0.0
O750 O 0.36442 0.52312 0.28983 0.0
Fe751 Fe 0.33116 0.48354 0.29785 0.0
O752 O 0.34781 0.48047 0.33129 0.0
O753 O 0.39055 0.52949 0.3375 0.0
O754 O 0.41677 0.57923 0.30626 0.0
C755 C 0.39963 0.59302 0.3084 0.0
C756 C 0.37966 0.46997 0.28454 0.0
O757 O 0.37116 0.57989 0.29819 0.0
C758 C 0.31809 0.49378 0.24257 0.0
O759 O 0.42132 0.54313 0.26679 0.0
O760 O 0.39749 0.57092 0.25386 0.0
O761 O 0.35072 0.46391 0.27975 0.0
O762 O 0.39921 0.49441 0.29922 0.0
C763 C 0.30338 0.52166 0.30612 0.0
O764 O 0.3428 0.52215 0.24119 0.0
O765 O 0.30822 0.47961 0.26575 0.0
C766 C 0.41887 0.56255 0.25027 0.0
O767 O 0.31548 0.53501 0.28317 0.0
O768 O 0.31015 0.5013 0.31672 0.0
C769 C 0.36716 0.50336 0.34721 0.0
Fe770 Fe 0.47879 0.87259 0.29825 0.0
Fe771 Fe 0.46288 0.8141 0.2613 0.0
O772 O 0.491 0.84619 0.28285 0.0
Fe773 Fe 0.53064 0.85128 0.28879 0.0
O774 O 0.52434 0.84765 0.32602 0.0
O775 O 0.50239 0.87912 0.33028 0.0
O776 O 0.44421 0.83894 0.31594 0.0
C777 C 0.42195 0.81465 0.30323 0.0
C778 C 0.54221 0.91662 0.28314 0.0
O779 O 0.42603 0.80881 0.27854 0.0
C780 C 0.52254 0.83402 0.234 0.0
O781 O 0.4529 0.87079 0.26856 0.0
O782 O 0.46261 0.84307 0.2369 0.0
O783 O 0.55177 0.89668 0.29002 0.0
O784 O 0.51213 0.90773 0.28196 0.0
C785 C 0.48677 0.78265 0.29262 0.0
O786 O 0.49363 0.81228 0.23966 0.0
O787 O 0.5402 0.85518 0.25178 0.0
C788 C 0.45335 0.86314 0.24336 0.0
O789 O 0.46203 0.78426 0.28488 0.0
O790 O 0.51571 0.80652 0.28878 0.0
C791 C 0.51471 0.86316 0.34099 0.0
H792 H 0.08267 0.2088 0.03115 0.0
H793 H 0.13321 0.17604 0.08529 0.0
H794 H 0.1623 0.17004 0.04571 0.0
H795 H 0.16707 0.16682 0.99493 0.0
H796 H 0.11776 0.20177 0.94135 0.0
H797 H 0.0946 0.21448 0.98143 0.0
C798 C 0.10082 0.2013 0.03425 0.0
C799 C 0.10583 0.19272 0.06082 0.0
C800 C 0.1172 0.19782 0.01149 0.0
C801 C 0.12929 0.18303 0.06491 0.0
C802 C 0.14559 0.17924 0.04228 0.0
C803 C 0.15168 0.17772 0.99219 0.0
C804 C 0.1437 0.18296 0.96538 0.0
C805 C 0.13876 0.18537 0.01536 0.0
C806 C 0.12418 0.19752 0.96187 0.0
C807 C 0.11083 0.20468 0.98474 0.0
H808 H 0.82364 0.95733 0.07623 0.0
H809 H 0.76268 0.85871 0.04647 0.0
H810 H 0.75929 0.87973 1.00078 0.0
H811 H 0.78289 0.92625 0.96735 0.0
H812 H 0.84634 0.02417 0.99796 0.0
H813 H 0.83917 0.00369 0.04527 0.0
C814 C 0.80861 0.94055 0.05998 0.0
C815 C 0.79338 0.90664 0.06453 0.0
C816 C 0.80768 0.95281 0.03378 0.0
C817 C 0.77421 0.88496 0.04343 0.0
C818 C 0.77269 0.897 0.01723 0.0
C819 C 0.79406 0.94305 0.98459 0.0
C820 C 0.81505 0.97663 0.97938 0.0
C821 C 0.79059 0.93087 0.01181 0.0
C822 C 0.83002 0.99826 1.00165 0.0
C823 C 0.82608 0.98654 0.02865 0.0
H824 H 0.13148 0.90161 0.04694 0.0
H825 H 0.04388 0.87281 0.09448 0.0
H826 H 0.01006 0.8382 0.05638 0.0
H827 H 0.00522 0.82548 1.00687 0.0
H828 H 0.09241 0.85666 0.95792 0.0
H829 H 0.12657 0.88018 0.99916 0.0
C830 C 0.1051 0.88656 0.04925 0.0
C831 C 0.09005 0.88933 0.07341 0.0
C832 C 0.08573 0.86765 0.02677 0.0
C833 C 0.05584 0.87057 0.0761 0.0
C834 C 0.03652 0.85108 0.05423 0.0
C835 C 0.03167 0.83657 1.00541 0.0
C836 C 0.04627 0.83976 0.97935 0.0
C837 C 0.05112 0.85079 0.02902 0.0
C838 C 0.08054 0.85388 0.97774 0.0
C839 C 0.10012 0.86766 1.0013 0.0
H840 H 0.1689 0.11831 0.44926 0.0
H841 H 0.20769 0.06522 0.49267 0.0
H842 H 0.21227 0.09547 0.53523 0.0
H843 H 0.19744 0.13076 0.56152 0.0
H844 H 0.15239 0.17887 0.51943 0.0
H845 H 0.15851 0.15752 0.47496 0.0
C846 C 0.17919 0.11415 0.4679 0.0
C847 C 0.18805 0.08978 0.46802 0.0
C848 C 0.1803 0.13057 0.49259 0.0
C849 C 0.20073 0.08394 0.49229 0.0
C850 C 0.20325 0.10114 0.51659 0.0
C851 C 0.18991 0.13736 0.54249 0.0
C852 C 0.17461 0.1564 0.54365 0.0
C853 C 0.19201 0.12365 0.51724 0.0
C854 C 0.16429 0.16424 0.51895 0.0
C855 C 0.16762 0.1519 0.49356 0.0
H856 H 0.81846 0.00889 0.52321 0.0
H857 H 0.87098 0.08672 0.58229 0.0
H858 H 0.89893 0.1254 0.54469 0.0
H859 H 0.91456 0.13477 0.49532 0.0
H860 H 0.85951 0.05815 0.43596 0.0
H861 H 0.82603 0.02151 0.47312 0.0
C862 C 0.83525 0.03456 0.52772 0.0
C863 C 0.84276 0.04494 0.55541 0.0
C864 C 0.85103 0.0568 0.50594 0.0
C865 C 0.86457 0.07822 0.56111 0.0
C866 C 0.88082 0.1003 0.53962 0.0
C867 C 0.89453 0.11039 0.49053 0.0
C868 C 0.88958 0.09905 0.46304 0.0
C869 C 0.87514 0.08958 0.512 0.0
C870 C 0.8636 0.06746 0.45697 0.0
C871 C 0.84465 0.04639 0.47825 0.0
H872 H 0.01085 0.83156 0.52411 0.0
H873 H 0.92744 0.80114 0.57792 0.0
H874 H 0.89147 0.78854 0.53788 0.0
H875 H 0.88512 0.79354 0.48792 0.0
H876 H 0.96736 0.82163 0.43357 0.0
H877 H 1.00227 0.82708 0.47325 0.0
C878 C 0.98469 0.82158 0.52697 0.0
C879 C 0.97189 0.81769 0.55391 0.0
C880 C 0.96396 0.81395 0.50376 0.0
C881 C 0.93792 0.80437 0.5574 0.0
C882 C 0.91731 0.79728 0.53452 0.0
C883 C 0.91039 0.79964 0.48478 0.0
C884 C 0.92372 0.80696 0.45803 0.0
C885 C 0.93022 0.8029 0.50766 0.0
C886 C 0.95653 0.81532 0.45401 0.0
C887 C 0.97657 0.81888 0.47673 0.0
H888 H 0.86734 0.79487 0.06018 0.0
H889 H 0.8323 0.85461 0.0223 0.0
H890 H 0.85198 0.84847 0.97736 0.0
H891 H 0.88686 0.83381 0.95038 0.0
H892 H 0.92339 0.77527 0.98738 0.0
H893 H 0.89514 0.77272 0.03086 0.0
C894 C 0.86324 0.80576 0.04196 0.0
C895 C 0.84887 0.82564 0.04475 0.0
C896 C 0.87517 0.80257 0.016 0.0
C897 C 0.84376 0.83962 0.02087 0.0
C898 C 0.85504 0.83617 0.9951 0.0
C899 C 0.88755 0.81951 0.9677 0.0
C900 C 0.90669 0.80441 0.96578 0.0
C901 C 0.8719 0.81883 0.99263 0.0
C902 C 0.90818 0.78651 0.98837 0.0
C903 C 0.89236 0.78542 0.01329 0.0
H904 H 0.17316 0.048 0.94421 0.0
H905 H 0.23596 0.14543 0.97582 0.0
H906 H 0.24096 0.1226 0.02011 0.0
H907 H 0.21963 0.07485 0.05186 0.0
H908 H 0.15607 0.97779 0.01916 0.0
H909 H 0.15982 1.0004 0.97312 0.0
C910 C 0.18866 0.06414 0.9606 0.0
C911 C 0.20402 0.09821 0.95706 0.0
C912 C 0.19102 0.05086 0.98586 0.0
C913 C 0.22411 0.11906 0.9782 0.0
C914 C 0.22669 0.106 1.00355 0.0
C915 C 0.20749 0.05862 0.03448 0.0
C916 C 0.18716 0.02473 0.03902 0.0
C917 C 0.20919 0.07192 1.00797 0.0
C918 C 0.17149 0.004 0.01628 0.0
C919 C 0.17351 0.0169 0.98995 0.0
H920 H 0.94647 0.14104 0.95037 0.0
H921 H 0.85153 0.08528 0.98842 0.0
H922 H 0.87436 0.11113 0.03311 0.0
H923 H 0.92319 0.14064 0.06276 0.0
H924 H 0.01888 0.19292 0.02557 0.0
H925 H 0.9943 0.17802 0.97926 0.0
C926 C 0.93064 0.13585 0.96821 0.0
C927 C 0.89735 0.1117 0.96618 0.0
C928 C 0.94434 0.14974 0.99416 0.0
C929 C 0.87714 0.1042 0.98955 0.0
C930 C 0.89028 0.11867 0.01516 0.0
C931 C 0.9384 0.14982 0.0444 0.0
C932 C 0.97262 0.16818 0.04732 0.0
C933 C 0.92411 0.1402 0.01797 0.0
C934 C 0.99239 0.17924 0.02361 0.0
C935 C 0.97835 0.17044 0.99719 0.0
H936 H 0.79328 0.85508 0.46704 0.0
H937 H 0.88523 0.86222 0.49005 0.0
H938 H 0.88078 0.87955 0.53654 0.0
H939 H 0.85542 0.90034 0.5683 0.0
H940 H 0.76502 0.89674 0.54639 0.0
H941 H 0.76367 0.86991 0.50219 0.0
C942 C 0.81181 0.85971 0.48252 0.0
C943 C 0.83973 0.85772 0.47511 0.0
C944 C 0.80952 0.87061 0.50931 0.0
C945 C 0.86374 0.86396 0.49522 0.0
C946 C 0.86125 0.87389 0.52181 0.0
C947 C 0.83498 0.89292 0.5541 0.0
C948 C 0.81044 0.90052 0.5604 0.0
C949 C 0.83494 0.87846 0.52873 0.0
C950 C 0.78404 0.89083 0.542 0.0
C951 C 0.78351 0.87584 0.51663 0.0
H952 H 0.15043 0.94161 0.57469 0.0
H953 H 0.08341 0.84589 0.54192 0.0
H954 H 0.10463 0.86456 0.49516 0.0
H955 H 0.13396 0.91129 0.46322 0.0
H956 H 0.20066 0.00709 0.49603 0.0
H957 H 0.1885 0.98539 0.54328 0.0
C958 C 0.14169 0.92453 0.55742 0.0
C959 C 0.11573 0.89242 0.56154 0.0
C960 C 0.15358 0.93571 0.53063 0.0
C961 C 0.10386 0.87053 0.53914 0.0
C962 C 0.11567 0.88136 0.51239 0.0
C963 C 0.14678 0.92698 0.48075 0.0
C964 C 0.16822 0.9606 0.47643 0.0
C965 C 0.13934 0.91432 0.50777 0.0
C966 C 0.18439 0.98105 0.49906 0.0
C967 C 0.17719 0.96869 0.52603 0.0
H968 H 0.12083 0.22888 0.54141 0.0
H969 H 0.03299 0.17254 0.58932 0.0
H970 H 0.99917 0.1683 0.54945 0.0
H971 H 0.99482 0.17091 0.49904 0.0
H972 H 0.08198 0.22604 0.45019 0.0
H973 H 0.116 0.24088 0.49214 0.0
C974 C 0.09437 0.21708 0.54332 0.0
C975 C 0.07927 0.20121 0.56813 0.0
C976 C 0.07502 0.21385 0.51995 0.0
C977 C 0.04496 0.18519 0.57039 0.0
C978 C 0.02565 0.18243 0.54753 0.0
C979 C 0.02119 0.18707 0.49782 0.0
C980 C 0.03608 0.19736 0.47185 0.0
C981 C 0.04039 0.19517 0.52189 0.0
C982 C 0.07016 0.21813 0.47017 0.0
C983 C 0.08956 0.22636 0.4941 0.0
H984 H 0.7849 0.49773 0.40342 0.0
H985 H 0.76468 0.57112 0.37146 0.0
H986 H 0.79203 0.57229 0.32775 0.0
H987 H 0.81435 0.54619 0.29673 0.0
H988 H 0.83274 0.47159 0.32962 0.0
H989 H 0.81369 0.47734 0.37495 0.0
C990 C 0.78721 0.51454 0.38707 0.0
C991 C 0.77275 0.53416 0.39037 0.0
C992 C 0.80216 0.51445 0.36206 0.0
C993 C 0.77592 0.55601 0.3693 0.0
C994 C 0.7912 0.55636 0.34427 0.0
C995 C 0.81472 0.5316 0.31392 0.0
C996 C 0.8243 0.50796 0.30955 0.0
C997 C 0.8033 0.53474 0.34006 0.0
C998 C 0.82492 0.48951 0.33218 0.0
C999 C 0.81406 0.49279 0.35818 0.0
H1000 H 0.45066 0.21234 0.36353 0.0
H1001 H 0.48912 0.29737 0.41638 0.0
H1002 H 0.49193 0.33132 0.37691 0.0
H1003 H 0.49234 0.33794 0.32608 0.0
H1004 H 0.45175 0.25222 0.27369 0.0
H1005 H 0.44023 0.21722 0.31423 0.0
C1006 C 0.4584 0.23805 0.3665 0.0
C1007 C 0.46956 0.25246 0.39265 0.0
C1008 C 0.46001 0.25731 0.34373 0.0
C1009 C 0.47995 0.28579 0.39643 0.0
C1010 C 0.48195 0.30524 0.37381 0.0
C1011 C 0.48007 0.31151 0.3237 0.0
C1012 C 0.47318 0.29767 0.29699 0.0
C1013 C 0.47337 0.29149 0.34716 0.0
C1014 C 0.45715 0.26342 0.29406 0.0
C1015 C 0.45081 0.2434 0.31723 0.0
H1016 H 0.74635 0.20635 0.29526 0.0
H1017 H 0.6532 0.18526 0.32979 0.0
H1018 H 0.67852 0.20422 0.37502 0.0
H1019 H 0.72821 0.23462 0.40291 0.0
H1020 H 0.82202 0.258 0.36924 0.0
H1021 H 0.79549 0.22977 0.32584 0.0
C1022 C 0.7315 0.20523 0.31283 0.0
C1023 C 0.69801 0.19498 0.30893 0.0
C1024 C 0.7464 0.21672 0.33896 0.0
C1025 C 0.67912 0.19359 0.332 0.0
C1026 C 0.69355 0.2044 0.35795 0.0
C1027 C 0.74262 0.23243 0.38637 0.0
C1028 C 0.77685 0.24795 0.38918 0.0
C1029 C 0.72732 0.21712 0.36142 0.0
C1030 C 0.79553 0.24561 0.36761 0.0
C1031 C 0.78038 0.22989 0.3427 0.0
H1032 H 0.85869 0.51365 0.85171 0.0
H1033 H 0.88439 0.46053 0.90943 0.0
H1034 H 0.89792 0.43532 0.87119 0.0
H1035 H 0.89166 0.4205 0.82186 0.0
H1036 H 0.86606 0.47343 0.76377 0.0
H1037 H 0.86413 0.50735 0.80136 0.0
C1038 C 0.86861 0.49764 0.85575 0.0
C1039 C 0.87082 0.48896 0.88311 0.0
C1040 C 0.87592 0.48294 0.83359 0.0
C1041 C 0.883 0.46775 0.88839 0.0
C1042 C 0.89041 0.45312 0.86656 0.0
C1043 C 0.88689 0.44032 0.8174 0.0
C1044 C 0.87881 0.44444 0.7903 0.0
C1045 C 0.88544 0.45936 0.83913 0.0
C1046 C 0.87261 0.47006 0.78454 0.0
C1047 C 0.87111 0.48918 0.80607 0.0
H1048 H 0.48635 0.33573 0.84592 0.0
H1049 H 0.5405 0.41915 0.89968 0.0
H1050 H 0.56071 0.45547 0.85971 0.0
H1051 H 0.5711 0.46165 0.8095 0.0
H1052 H 0.51788 0.37832 0.75586 0.0
H1053 H 0.48829 0.34407 0.79548 0.0
C1054 C 0.50206 0.36194 0.84884 0.0
C1055 C 0.51249 0.37462 0.87562 0.0
C1056 C 0.51359 0.38277 0.82573 0.0
C1057 C 0.53233 0.4087 0.87923 0.0
C1058 C 0.54397 0.42954 0.85637 0.0
C1059 C 0.55172 0.43646 0.80646 0.0
C1060 C 0.54625 0.42249 0.77995 0.0
C1061 C 0.53579 0.41667 0.82949 0.0
C1062 C 0.5219 0.3896 0.77613 0.0
C1063 C 0.50544 0.3699 0.79884 0.0
H1064 H 0.61262 0.16121 0.7769 0.0
H1065 H 0.51798 0.09336 0.81073 0.0
H1066 H 0.54416 0.08888 0.8533 0.0
H1067 H 0.59364 0.11247 0.88362 0.0
H1068 H 0.68741 0.18248 0.84934 0.0
H1069 H 0.6623 0.17738 0.80402 0.0
C1070 C 0.59789 0.14462 0.79329 0.0
C1071 C 0.5636 0.1276 0.79091 0.0
C1072 C 0.61307 0.14281 0.81769 0.0
C1073 C 0.54452 0.10639 0.81217 0.0
C1074 C 0.55949 0.10411 0.83656 0.0
C1075 C 0.60861 0.12549 0.86589 0.0
C1076 C 0.64229 0.14771 0.86961 0.0
C1077 C 0.59369 0.12327 0.84 0.0
C1078 C 0.66147 0.16512 0.84677 0.0
C1079 C 0.64709 0.16242 0.82094 0.0
H1080 H 0.52765 0.12628 0.3817 0.0
H1081 H 0.50732 0.20204 0.35632 0.0
H1082 H 0.52202 0.19781 0.30875 0.0
H1083 H 0.54968 0.17977 0.27652 0.0
H1084 H 0.57306 0.106 0.30111 0.0
H1085 H 0.54768 0.10157 0.34648 0.0
C1086 C 0.52545 0.14096 0.36547 0.0
C1087 C 0.51652 0.16448 0.37234 0.0
C1088 C 0.53493 0.13904 0.33811 0.0
C1089 C 0.51419 0.18383 0.35138 0.0
C1090 C 0.52274 0.18154 0.32422 0.0
C1091 C 0.54831 0.16203 0.29157 0.0
C1092 C 0.56319 0.1433 0.28565 0.0
C1093 C 0.5345 0.16031 0.31764 0.0
C1094 C 0.56136 0.12038 0.30516 0.0
C1095 C 0.54723 0.11818 0.33122 0.0
H1096 H 0.86359 0.35047 0.34704 0.0
H1097 H 0.90449 0.43761 0.39762 0.0
H1098 H 0.91928 0.4718 0.35621 0.0
H1099 H 0.91021 0.47563 0.30623 0.0
H1100 H 0.86879 0.38822 0.25619 0.0
H1101 H 0.86576 0.35559 0.29637 0.0
C1102 C 0.87653 0.37698 0.34889 0.0
C1103 C 0.88245 0.39149 0.37521 0.0
C1104 C 0.88497 0.39648 0.325 0.0
C1105 C 0.89959 0.42587 0.37749 0.0
C1106 C 0.90792 0.44546 0.35382 0.0
C1107 C 0.90222 0.44978 0.30397 0.0
C1108 C 0.88992 0.43428 0.27839 0.0
C1109 C 0.89944 0.43094 0.32749 0.0
C1110 C 0.87878 0.40063 0.27569 0.0
C1111 C 0.87653 0.38187 0.29876 0.0
H1112 H 0.67045 0.49551 0.35226 0.0
H1113 H 0.58374 0.4676 0.40101 0.0
H1114 H 0.54948 0.44601 0.35954 0.0
H1115 H 0.54382 0.42806 0.31046 0.0
H1116 H 0.63087 0.45566 0.26247 0.0
H1117 H 0.66536 0.48493 0.30224 0.0
C1118 C 0.64409 0.48519 0.35371 0.0
C1119 C 0.62964 0.48276 0.37973 0.0
C1120 C 0.62459 0.47279 0.32981 0.0
C1121 C 0.5955 0.46973 0.38124 0.0
C1122 C 0.57586 0.45723 0.35753 0.0
C1123 C 0.57033 0.44163 0.30855 0.0
C1124 C 0.58492 0.44023 0.28359 0.0
C1125 C 0.59004 0.45774 0.33182 0.0
C1126 C 0.61926 0.45701 0.28142 0.0
C1127 C 0.63894 0.47339 0.30424 0.0
H1128 H 0.44237 0.19546 0.78609 0.0
H1129 H 0.47703 0.13776 0.82795 0.0
H1130 H 0.46597 0.15414 0.87278 0.0
H1131 H 0.45758 0.19353 0.89954 0.0
H1132 H 0.42755 0.25513 0.85834 0.0
H1133 H 0.42475 0.22826 0.81402 0.0
C1134 C 0.44626 0.18554 0.80504 0.0
C1135 C 0.46057 0.16548 0.80375 0.0
C1136 C 0.44097 0.19613 0.83092 0.0
C1137 C 0.46609 0.15326 0.82846 0.0
C1138 C 0.45992 0.16276 0.85411 0.0
C1139 C 0.44885 0.19986 0.88105 0.0
C1140 C 0.44218 0.22576 0.88218 0.0
C1141 C 0.44888 0.18539 0.85558 0.0
C1142 C 0.43197 0.23466 0.85802 0.0
C1143 C 0.43094 0.21965 0.83261 0.0
H1144 H 0.76105 0.20054 0.86352 0.0
H1145 H 0.80973 0.27789 0.92352 0.0
H1146 H 0.84223 0.31616 0.8868 0.0
H1147 H 0.84834 0.32953 0.83662 0.0
H1148 H 0.80037 0.25138 0.77709 0.0
H1149 H 0.77621 0.21132 0.81445 0.0
C1150 C 0.77984 0.22541 0.86861 0.0
C1151 C 0.78293 0.23653 0.89605 0.0
C1152 C 0.79801 0.24725 0.84735 0.0
C1153 C 0.80712 0.2688 0.90254 0.0
C1154 C 0.82536 0.29079 0.88147 0.0
C1155 C 0.83347 0.30358 0.83201 0.0
C1156 C 0.82596 0.29319 0.80436 0.0
C1157 C 0.81976 0.28066 0.85366 0.0
C1158 C 0.80654 0.25967 0.79834 0.0
C1159 C 0.79261 0.23684 0.81967 0.0
H1160 H 0.73728 0.53303 0.78976 0.0
H1161 H 0.64277 0.48278 0.82967 0.0
H1162 H 0.66935 0.49185 0.87487 0.0
H1163 H 0.71923 0.50682 0.90225 0.0
H1164 H 0.81309 0.5519 0.86157 0.0
H1165 H 0.78736 0.55284 0.81777 0.0
C1166 C 0.72253 0.52478 0.8084 0.0
C1167 C 0.68809 0.50706 0.80629 0.0
C1168 C 0.73799 0.52909 0.83429 0.0
C1169 C 0.66933 0.49625 0.83068 0.0
C1170 C 0.68452 0.50139 0.85656 0.0
C1171 C 0.73405 0.51792 0.88397 0.0
C1172 C 0.768 0.52982 0.88509 0.0
C1173 C 0.7188 0.5168 0.85855 0.0
C1174 C 0.78697 0.54312 0.86115 0.0
C1175 C 0.7722 0.54334 0.83608 0.0
H1176 H 0.44251 0.81775 0.72854 0.0
H1177 H 0.42882 0.89758 0.70289 0.0
H1178 H 0.45703 0.90155 0.65896 0.0
H1179 H 0.47781 0.87593 0.62523 0.0
H1180 H 0.48906 0.7948 0.65198 0.0
H1181 H 0.47035 0.79806 0.69826 0.0
C1182 C 0.44644 0.83652 0.71355 0.0
C1183 C 0.43353 0.85715 0.71861 0.0
C1184 C 0.46212 0.83823 0.68848 0.0
C1185 C 0.43878 0.88154 0.6993 0.0
C1186 C 0.45464 0.88359 0.67416 0.0
C1187 C 0.4771 0.85979 0.64153 0.0
C1188 C 0.48463 0.83509 0.63536 0.0
C1189 C 0.46537 0.86123 0.66809 0.0
C1190 C 0.48325 0.81391 0.65639 0.0
C1191 C 0.47242 0.81564 0.68278 0.0
H1192 H 0.1466 0.66051 0.66744 0.0
H1193 H 0.10325 0.57381 0.61619 0.0
H1194 H 0.08785 0.53911 0.6572 0.0
H1195 H 0.09722 0.53437 0.70683 0.0
H1196 H 0.14134 0.62127 0.75757 0.0
H1197 H 0.14468 0.65478 0.718 0.0
C1198 C 0.13306 0.63401 0.66539 0.0
C1199 C 0.12667 0.61973 0.63901 0.0
C1200 C 0.12428 0.61419 0.68904 0.0
C1201 C 0.10864 0.58537 0.63641 0.0
C1202 C 0.0999 0.56547 0.65983 0.0
C1203 C 0.10592 0.56035 0.70937 0.0
C1204 C 0.11901 0.57549 0.73485 0.0
C1205 C 0.10893 0.57966 0.6862 0.0
C1206 C 0.1309 0.60923 0.73804 0.0
C1207 C 0.13329 0.62846 0.71534 0.0
H1208 H 0.46556 0.59729 0.69549 0.0
H1209 H 0.40863 0.51028 0.74386 0.0
H1210 H 0.37746 0.48081 0.70237 0.0
H1211 H 0.35981 0.48387 0.65429 0.0
H1212 H 0.41467 0.57361 0.60833 0.0
H1213 H 0.45346 0.59797 0.64655 0.0
C1214 C 0.44725 0.57145 0.6966 0.0
C1215 C 0.43954 0.55575 0.72239 0.0
C1216 C 0.42856 0.55547 0.67311 0.0
C1217 C 0.41536 0.52254 0.72399 0.0
C1218 C 0.39721 0.50593 0.70036 0.0
C1219 C 0.38081 0.50837 0.65253 0.0
C1220 C 0.38443 0.52711 0.62877 0.0
C1221 C 0.40253 0.52267 0.67509 0.0
C1222 C 0.41143 0.55895 0.62661 0.0
C1223 C 0.43357 0.57287 0.64842 0.0
H1224 H 0.51787 0.79483 0.11129 0.0
H1225 H 0.57404 0.75281 0.14324 0.0
H1226 H 0.58122 0.78144 0.18749 0.0
H1227 H 0.5628 0.81059 0.21931 0.0
H1228 H 0.50589 0.85153 0.18669 0.0
H1229 H 0.50841 0.83214 0.14032 0.0
C1230 C 0.53259 0.79289 0.1277 0.0
C1231 C 0.54545 0.77191 0.12423 0.0
C1232 C 0.53634 0.8092 0.15298 0.0
C1233 C 0.56424 0.76917 0.14552 0.0
C1234 C 0.56809 0.78532 0.17085 0.0
C1235 C 0.55234 0.8165 0.20174 0.0
C1236 C 0.53458 0.83283 0.20617 0.0
C1237 C 0.55316 0.80441 0.17518 0.0
C1238 C 0.52016 0.83951 0.18354 0.0
C1239 C 0.52124 0.82806 0.15711 0.0
H1240 H 0.16257 0.67575 0.18263 0.0
H1241 H 0.22653 0.75023 0.24043 0.0
H1242 H 0.25241 0.78927 0.20269 0.0
H1243 H 0.26267 0.79899 0.15306 0.0
H1244 H 0.19974 0.72488 0.09452 0.0
H1245 H 0.16697 0.6891 0.13253 0.0
C1246 C 0.18146 0.70086 0.18682 0.0
C1247 C 0.19285 0.71041 0.21398 0.0
C1248 C 0.19651 0.72303 0.16491 0.0
C1249 C 0.21751 0.7427 0.21951 0.0
C1250 C 0.23237 0.7649 0.19798 0.0
C1251 C 0.24119 0.77536 0.1487 0.0
C1252 C 0.23369 0.76433 0.12127 0.0
C1253 C 0.22294 0.75491 0.17056 0.0
C1254 C 0.20579 0.73385 0.11561 0.0
C1255 C 0.18729 0.71328 0.13732 0.0
H1256 H 0.33502 0.49664 0.18869 0.0
H1257 H 0.25181 0.46534 0.24278 0.0
H1258 H 0.21637 0.45704 0.20297 0.0
H1259 H 0.21101 0.46616 0.15346 0.0
H1260 H 0.29332 0.4946 0.09899 0.0
H1261 H 0.32721 0.49619 0.13814 0.0
C1262 C 0.30896 0.48723 0.19158 0.0
C1263 C 0.296 0.48186 0.21847 0.0
C1264 C 0.28873 0.48232 0.16861 0.0
C1265 C 0.26222 0.46947 0.22217 0.0
C1266 C 0.24202 0.46499 0.19946 0.0
C1267 C 0.23614 0.4719 0.15021 0.0
C1268 C 0.24991 0.48047 0.12369 0.0
C1269 C 0.25527 0.47243 0.17271 0.0
C1270 C 0.28234 0.48775 0.11937 0.0
C1271 C 0.30173 0.4889 0.14173 0.0
H1272 H 0.21356 0.49648 0.61362 0.0
H1273 H 0.25591 0.44447 0.65322 0.0
H1274 H 0.23098 0.44583 0.6974 0.0
H1275 H 0.20417 0.46904 0.72576 0.0
H1276 H 0.16671 0.52605 0.68667 0.0
H1277 H 0.18244 0.51548 0.64129 0.0
C1278 C 0.21618 0.4844 0.63176 0.0
C1279 C 0.23581 0.46979 0.63031 0.0
C1280 C 0.2033 0.48692 0.65726 0.0
C1281 C 0.24026 0.45524 0.65398 0.0
C1282 C 0.22635 0.45639 0.67921 0.0
C1283 C 0.19894 0.47867 0.70727 0.0
C1284 C 0.18467 0.49863 0.70962 0.0
C1285 C 0.2089 0.47327 0.68132 0.0
C1286 C 0.17811 0.51099 0.68545 0.0
C1287 C 0.18703 0.50491 0.65949 0.0
H1288 H 0.5485 0.78598 0.64883 0.0
H1289 H 0.5135 0.70283 0.59414 0.0
H1290 H 0.50831 0.66749 0.63331 0.0
H1291 H 0.50637 0.65928 0.68403 0.0
H1292 H 0.5439 0.74341 0.73817 0.0
H1293 H 0.55599 0.77945 0.69838 0.0
C1294 C 0.54089 0.76035 0.64548 0.0
C1295 C 0.53158 0.7469 0.61885 0.0
C1296 C 0.53798 0.74033 0.66804 0.0
C1297 C 0.52131 0.71367 0.61452 0.0
C1298 C 0.51796 0.69344 0.63694 0.0
C1299 C 0.51783 0.68558 0.68699 0.0
C1300 C 0.52387 0.69863 0.71397 0.0
C1301 C 0.52509 0.7063 0.66393 0.0
C1302 C 0.53905 0.73276 0.7176 0.0
C1303 C 0.54581 0.75341 0.69486 0.0
H1304 H 0.19787 0.75033 0.65029 0.0
H1305 H 0.28077 0.78512 0.59555 0.0
H1306 H 0.31766 0.81857 0.63277 0.0
H1307 H 0.32704 0.82998 0.68259 0.0
H1308 H 0.24439 0.79492 0.73785 0.0
H1309 H 0.20665 0.7701 0.69884 0.0
C1310 C 0.22383 0.76637 0.64636 0.0
C1311 C 0.23672 0.76577 0.6203 0.0
C1312 C 0.24497 0.78497 0.6681 0.0
C1313 C 0.27043 0.78582 0.61541 0.0
C1314 C 0.29152 0.8046 0.63676 0.0
C1315 C 0.30074 0.8176 0.68595 0.0
C1316 C 0.28853 0.81389 0.71306 0.0
C1317 C 0.27923 0.8032 0.66347 0.0
C1318 C 0.25442 0.7981 0.71716 0.0
C1319 C 0.23281 0.78368 0.69488 0.0
H1320 H 0.1498 0.49022 0.15914 0.0
H1321 H 0.14063 0.55769 0.10489 0.0
H1322 H 0.13036 0.58366 0.14445 0.0
H1323 H 0.13444 0.59347 0.19445 0.0
H1324 H 0.14456 0.52713 0.24939 0.0
H1325 H 0.14328 0.49386 0.20984 0.0
C1326 C 0.14423 0.50974 0.15609 0.0
C1327 C 0.14571 0.52208 0.12937 0.0
C1328 C 0.13905 0.52501 0.17907 0.0
C1329 C 0.1392 0.54776 0.1254 0.0
C1330 C 0.13363 0.56275 0.14799 0.0
C1331 C 0.13535 0.57113 0.19773 0.0
C1332 C 0.14 0.56287 0.22458 0.0
C1333 C 0.13503 0.55255 0.17494 0.0
C1334 C 0.14095 0.53388 0.22883 0.0
C1335 C 0.14051 0.51505 0.20619 0.0
H1336 H 0.50478 0.66857 0.16428 0.0
H1337 H 0.47651 0.58284 0.11384 0.0
H1338 H 0.45359 0.54769 0.15445 0.0
H1339 H 0.43349 0.54109 0.20286 0.0
H1340 H 0.46036 0.62729 0.25203 0.0
H1341 H 0.49238 0.66242 0.21376 0.0
C1342 C 0.4942 0.64224 0.16229 0.0
C1343 C 0.49187 0.62834 0.13604 0.0
C1344 C 0.48065 0.62218 0.1856 0.0
C1345 C 0.47852 0.5942 0.13382 0.0
C1346 C 0.46519 0.57403 0.15702 0.0
C1347 C 0.4474 0.56751 0.20536 0.0
C1348 C 0.44488 0.58173 0.23013 0.0
C1349 C 0.46499 0.58766 0.18284 0.0
C1350 C 0.46233 0.61597 0.23314 0.0
C1351 C 0.48037 0.63604 0.21119 0.0
H1352 H 0.34649 0.8554 0.16167 0.0
H1353 H 0.42357 0.87696 0.10309 0.0
H1354 H 0.46205 0.88689 0.14091 0.0
H1355 H 0.47095 0.88065 0.19018 0.0
H1356 H 0.39457 0.8604 0.24922 0.0
H1357 H 0.35874 0.85934 0.21195 0.0
C1358 C 0.37207 0.86359 0.15738 0.0
C1359 C 0.38249 0.86587 0.12984 0.0
C1360 C 0.39396 0.86898 0.1793 0.0
C1361 C 0.41537 0.87569 0.12426 0.0
C1362 C 0.43723 0.88099 0.14584 0.0
C1363 C 0.44677 0.8769 0.19488 0.0
C1364 C 0.43523 0.87037 0.22223 0.0
C1365 C 0.42643 0.87642 0.17338 0.0
C1366 C 0.40398 0.86567 0.22826 0.0
C1367 C 0.38341 0.8648 0.20693 0.0
H1368 H 0.12704 0.15864 0.1343 0.0
H1369 H 0.03702 0.07927 0.16648 0.0
H1370 H 0.06196 0.04446 0.16909 0.0
H1371 H 0.10614 0.03419 0.15482 0.0
H1372 H 0.19372 0.11121 0.11745 0.0
H1373 H 0.17364 0.14986 0.12449 0.0
C1374 C 0.11341 0.13405 0.14269 0.0
C1375 C 0.08054 0.12144 0.15059 0.0
C1376 C 0.12744 0.11382 0.14275 0.0
C1377 C 0.06256 0.08943 0.16082 0.0
C1378 C 0.07672 0.06952 0.162 0.0
C1379 C 0.12099 0.05964 0.14883 0.0
C1380 C 0.15119 0.07008 0.13571 0.0
C1381 C 0.10863 0.08105 0.15196 0.0
C1382 C 0.17054 0.10296 0.1279 0.0
C1383 C 0.1589 0.12486 0.13171 0.0
H1384 H 0.84375 0.97634 0.1349 0.0
H1385 H 0.91382 0.95685 0.17556 0.0
H1386 H 0.95195 0.01555 0.18038 0.0
H1387 H 0.96919 0.07108 0.16509 0.0
H1388 H 0.90188 0.0914 0.12077 0.0
H1389 H 0.85847 0.03393 0.12582 0.0
C1390 C 0.86687 0.98508 0.14573 0.0
C1391 C 0.87613 0.9625 0.15488 0.0
C1392 C 0.88929 0.01897 0.14733 0.0
C1393 C 0.90632 0.97393 0.16841 0.0
C1394 C 0.92817 0.00743 0.171 0.0
C1395 C 0.94471 0.06306 0.1572 0.0
C1396 C 0.93871 0.08512 0.1423 0.0
C1397 C 0.92053 0.03003 0.15933 0.0
C1398 C 0.90696 0.07476 0.13237 0.0
C1399 C 0.88229 0.04185 0.13502 0.0
H1400 H 0.93869 0.92358 0.146 0.0
H1401 H 0.91838 0.82377 0.14359 0.0
H1402 H 0.97687 0.84265 0.15117 0.0
H1403 H 0.03442 0.8885 0.1512 0.0
H1404 H 0.05318 0.98806 0.15242 0.0
H1405 H 0.99462 0.96839 0.15338 0.0
C1406 C 0.94705 0.90596 0.14778 0.0
C1407 C 0.92466 0.87249 0.144 0.0
C1408 C 0.98042 0.91702 0.15183 0.0
C1409 C 0.9354 0.84969 0.14652 0.0
C1410 C 0.9688 0.86053 0.15065 0.0
C1411 C 0.02569 0.90584 0.15253 0.0
C1412 C 0.04823 0.93978 0.1514 0.0
C1413 C 0.99171 0.89428 0.15233 0.0
C1414 C 0.03647 0.9619 0.15303 0.0
C1415 C 1.00291 0.95066 0.15342 0.0
H1416 H 0.01202 0.07377 0.38019 0.0
H1417 H 0.0915 0.17364 0.38696 0.0
H1418 H 0.13128 0.15508 0.38048 0.0
H1419 H 0.14328 0.10945 0.37931 0.0
H1420 H 0.0632 0.00985 0.37597 0.0
H1421 H 0.02375 0.02923 0.37418 0.0
C1422 C 0.03804 0.09161 0.37996 0.0
C1423 C 0.04877 0.12501 0.38454 0.0
C1424 C 0.06065 0.08071 0.37677 0.0
C1425 C 0.08256 0.14777 0.38367 0.0
C1426 C 0.10532 0.13714 0.38005 0.0
C1427 C 0.11724 0.0922 0.3772 0.0
C1428 C 0.10597 0.05835 0.37732 0.0
C1429 C 0.09466 0.10356 0.3774 0.0
C1430 C 0.07223 0.036 0.37549 0.0
C1431 C 0.04974 0.04708 0.37474 0.0
H1432 H 0.95065 0.04631 0.35826 0.0
H1433 H 0.86023 0.03504 0.39 0.0
H1434 H 0.83514 0.97523 0.38846 0.0
H1435 H 0.84291 0.92711 0.38614 0.0
H1436 H 0.93463 0.93959 0.35553 0.0
H1437 H 0.95499 0.99766 0.348 0.0
C1438 C 0.92504 0.03061 0.3637 0.0
C1439 C 0.90709 0.04465 0.374 0.0
C1440 C 0.91124 0.99644 0.36344 0.0
C1441 C 0.87421 0.02443 0.38168 0.0
C1442 C 0.86004 0.99031 0.38106 0.0
C1443 C 0.86694 0.94236 0.37708 0.0
C1444 C 0.88749 0.92921 0.37206 0.0
C1445 C 0.87885 0.97608 0.3732 0.0
C1446 C 0.91856 0.94927 0.36016 0.0
C1447 C 0.93029 0.98253 0.35582 0.0
H1448 H 0.07685 0.95511 0.35059 0.0
H1449 H 0.09154 0.88982 0.40324 0.0
H1450 H 0.03466 0.84646 0.39527 0.0
H1451 H 0.97847 0.83334 0.38312 0.0
H1452 H 0.96353 0.9013 0.33453 0.0
H1453 H 0.02287 0.93716 0.3301 0.0
C1454 C 0.06784 0.9309 0.35938 0.0
C1455 C 0.08785 0.92552 0.37772 0.0
C1456 C 0.03498 0.90679 0.35553 0.0
C1457 C 0.07639 0.89428 0.38902 0.0
C1458 C 0.04381 0.86969 0.38469 0.0
C1459 C 0.98841 0.85522 0.37044 0.0
C1460 C 0.96708 0.86484 0.35902 0.0
C1461 C 0.02246 0.87644 0.36937 0.0
C1462 C 0.97974 0.89338 0.34305 0.0
C1463 C 0.01361 0.91406 0.34092 0.0
H1464 H 0.89561 0.86025 0.88589 0.0
H1465 H 0.99572 0.94015 0.88259 0.0
H1466 H 0.97636 0.97942 0.87983 0.0
H1467 H 0.93179 0.99117 0.88429 0.0
H1468 H 0.83161 0.91197 0.89012 0.0
H1469 H 0.85029 0.87212 0.88559 0.0
C1470 C 0.91319 0.88621 0.88401 0.0
C1471 C 0.94708 0.89732 0.88477 0.0
C1472 C 0.90191 0.90871 0.8832 0.0
C1473 C 0.96953 0.93102 0.88235 0.0
C1474 C 0.95849 0.95347 0.88083 0.0
C1475 C 0.91388 0.96521 0.88419 0.0
C1476 C 0.88037 0.95457 0.88798 0.0
C1477 C 0.92482 0.94261 0.8822 0.0
C1478 C 0.85756 0.92082 0.88744 0.0
C1479 C 0.86825 0.89805 0.88497 0.0
H1480 H 0.16535 0.03259 0.88771 0.0
H1481 H 0.08781 0.04058 0.84751 0.0
H1482 H 0.05373 0.98088 0.84617 0.0
H1483 H 0.04271 0.92733 0.86341 0.0
H1484 H 0.11762 0.91956 0.90816 0.0
H1485 H 0.15631 0.97805 0.90052 0.0
C1486 C 0.14144 0.02118 0.87781 0.0
C1487 C 0.12908 0.04086 0.86762 0.0
C1488 C 0.12143 0.98685 0.87827 0.0
C1489 C 0.09779 0.02584 0.8554 0.0
C1490 C 0.07825 0.99175 0.85478 0.0
C1491 C 0.0679 0.93836 0.87058 0.0
C1492 C 0.07774 0.91944 0.88584 0.0
C1493 C 0.08932 0.97211 0.86714 0.0
C1494 C 0.10996 0.9338 0.89587 0.0
C1495 C 0.13188 0.96722 0.89172 0.0
H1496 H 0.97764 0.13877 0.88384 0.0
H1497 H 0.94376 0.03984 0.85666 0.0
H1498 H 1.00028 0.05299 0.84811 0.0
H1499 H 0.05929 0.09008 0.85646 0.0
H1500 H 0.0936 0.18939 0.88279 0.0
H1501 H 0.03718 0.17922 0.88298 0.0
C1502 C 0.98273 0.12062 0.87495 0.0
C1503 C 0.95689 0.08846 0.87076 0.0
C1504 C 0.01536 0.12842 0.87023 0.0
C1505 C 0.96349 0.06478 0.85981 0.0
C1506 C 0.99576 0.07225 0.85512 0.0
C1507 C 0.05438 0.10977 0.86114 0.0
C1508 C 0.08028 0.14044 0.86942 0.0
C1509 C 0.02193 0.10359 0.86139 0.0
C1510 C 0.07391 0.16577 0.87591 0.0
C1511 C 0.04165 0.15981 0.87633 0.0
H1512 H 0.99492 0.92923 0.63957 0.0
H1513 H 0.91921 0.82951 0.65436 0.0
H1514 H 0.87838 0.84728 0.65857 0.0
H1515 H 0.86361 0.89049 0.65173 0.0
H1516 H 0.94066 0.9901 0.63686 0.0
H1517 H 0.98157 0.97313 0.63946 0.0
C1518 C 0.96955 0.91151 0.64431 0.0
C1519 C 0.95988 0.87815 0.64643 0.0
C1520 C 0.94644 0.92187 0.64639 0.0
C1521 C 0.92714 0.85536 0.65278 0.0
C1522 C 0.90381 0.86551 0.65492 0.0
C1523 C 0.88939 0.90858 0.64955 0.0
C1524 C 0.89885 0.94145 0.64357 0.0
C1525 C 0.91303 0.89859 0.65082 0.0
C1526 C 0.93247 0.96458 0.64111 0.0
C1527 C 0.95599 0.95491 0.64252 0.0
H1528 H 0.06546 0.9683 0.66445 0.0
H1529 H 0.14846 0.96917 0.62599 0.0
H1530 H 0.17698 0.02908 0.62324 0.0
H1531 H 0.17395 0.08023 0.62485 0.0
H1532 H 0.09119 0.07871 0.66415 0.0
H1533 H 0.06698 0.02024 0.67388 0.0
C1534 C 0.09019 0.98176 0.65623 0.0
C1535 C 0.10479 0.96451 0.64529 0.0
C1536 C 0.10628 0.01607 0.65461 0.0
C1537 C 0.13684 0.98203 0.63472 0.0
C1538 C 0.15302 0.01626 0.63289 0.0
C1539 C 0.15124 0.06719 0.63641 0.0
C1540 C 0.1341 0.08335 0.64375 0.0
C1541 C 0.13744 0.03345 0.6418 0.0
C1542 C 0.10452 0.06642 0.65833 0.0
C1543 C 0.09068 0.03305 0.66378 0.0
H1544 H 0.92535 0.02952 0.66218 0.0
H1545 H 0.90897 0.10808 0.63809 0.0
H1546 H 0.96766 0.14767 0.64368 0.0
H1547 H 0.02402 0.15734 0.64623 0.0
H1548 H 0.03992 0.07667 0.66437 0.0
H1549 H 0.98114 0.0404 0.67067 0.0
C1550 C 0.93463 0.05552 0.6592 0.0
C1551 C 0.91328 0.06621 0.65008 0.0
C1552 C 0.96838 0.07751 0.66085 0.0
C1553 C 0.92516 0.09967 0.64567 0.0
C1554 C 0.9587 0.12211 0.64848 0.0
C1555 C 0.01469 0.13206 0.65236 0.0
C1556 C 0.03623 0.11957 0.65458 0.0
C1557 C 0.98069 0.11101 0.65471 0.0
C1558 C 0.0238 0.08673 0.6623 0.0
C1559 C 0.99018 0.06597 0.66584 0.0
H1560 H 0.78412 0.37971 0.48694 0.0
H1561 H 0.87162 0.46033 0.45276 0.0
H1562 H 0.84853 0.49654 0.45883 0.0
H1563 H 0.79989 0.5022 0.46637 0.0
H1564 H 0.71009 0.41929 0.49556 0.0
H1565 H 0.73747 0.38698 0.49928 0.0
C1566 C 0.79839 0.40549 0.48169 0.0
C1567 C 0.82953 0.41765 0.46981 0.0
C1568 C 0.78422 0.42547 0.48391 0.0
C1569 C 0.84785 0.45081 0.46251 0.0
C1570 C 0.83445 0.4713 0.46565 0.0
C1571 C 0.78656 0.47735 0.47426 0.0
C1572 C 0.75294 0.46308 0.48058 0.0
C1573 C 0.80213 0.45852 0.47525 0.0
C1574 C 0.7359 0.43072 0.49043 0.0
C1575 C 0.75153 0.41222 0.49247 0.0
H1576 H 0.50978 0.31463 0.47579 0.0
H1577 H 0.58128 0.2891 0.50285 0.0
H1578 H 0.62207 0.34707 0.50882 0.0
H1579 H 0.64004 0.40405 0.49605 0.0
H1580 H 0.56929 0.42991 0.46751 0.0
H1581 H 0.52514 0.37293 0.47287 0.0
C1582 C 0.5338 0.32191 0.48435 0.0
C1583 C 0.54273 0.29803 0.48914 0.0
C1584 C 0.55731 0.3553 0.48688 0.0
C1585 C 0.57402 0.30733 0.49946 0.0
C1586 C 0.59739 0.34042 0.50253 0.0
C1587 C 0.6147 0.39728 0.49211 0.0
C1588 C 0.60759 0.42067 0.48142 0.0
C1589 C 0.58978 0.36454 0.4948 0.0
C1590 C 0.57498 0.41206 0.47603 0.0
C1591 C 0.54989 0.3795 0.47884 0.0
H1592 H 0.71096 0.23591 0.46392 0.0
H1593 H 0.73017 0.33487 0.47539 0.0
H1594 H 0.6716 0.31476 0.48001 0.0
H1595 H 0.61534 0.27038 0.47545 0.0
H1596 H 0.59467 0.17159 0.45981 0.0
H1597 H 0.65348 0.19019 0.46273 0.0
C1598 C 0.70233 0.25298 0.468 0.0
C1599 C 0.72495 0.28692 0.46935 0.0
C1600 C 0.66839 0.24127 0.46964 0.0
C1601 C 0.71335 0.30873 0.47427 0.0
C1602 C 0.67983 0.29723 0.47683 0.0
C1603 C 0.62351 0.25268 0.47299 0.0
C1604 C 0.60058 0.21966 0.46703 0.0
C1605 C 0.65717 0.26372 0.47373 0.0
C1606 C 0.61173 0.19714 0.46434 0.0
C1607 C 0.64538 0.20784 0.46581 0.0
H1608 H 0.75173 0.37427 0.70619 0.0
H1609 H 0.84182 0.46643 0.7011 0.0
H1610 H 0.81088 0.49565 0.69766 0.0
H1611 H 0.7578 0.49481 0.70433 0.0
H1612 H 0.66907 0.40132 0.71217 0.0
H1613 H 0.69937 0.37278 0.70547 0.0
C1614 C 0.76444 0.40064 0.70332 0.0
C1615 C 0.79871 0.41827 0.70367 0.0
C1616 C 0.74657 0.41706 0.70208 0.0
C1617 C 0.81526 0.45245 0.7004 0.0
C1618 C 0.79757 0.46912 0.69877 0.0
C1619 C 0.74518 0.46826 0.70365 0.0
C1620 C 0.71124 0.45018 0.70872 0.0
C1621 C 0.76316 0.45175 0.70075 0.0
C1622 C 0.69511 0.41575 0.70821 0.0
C1623 C 0.71246 0.39934 0.70457 0.0
H1624 H 0.55859 0.25814 0.69133 0.0
H1625 H 0.4693 0.24399 0.7283 0.0
H1626 H 0.48714 0.30219 0.72144 0.0
H1627 H 0.53235 0.35821 0.71228 0.0
H1628 H 0.62358 0.37236 0.6793 0.0
H1629 H 0.60078 0.31306 0.67651 0.0
C1630 C 0.54274 0.26778 0.69704 0.0
C1631 C 0.51274 0.24726 0.71003 0.0
C1632 C 0.55373 0.30127 0.69392 0.0
C1633 C 0.49234 0.25962 0.7179 0.0
C1634 C 0.50267 0.29283 0.71417 0.0
C1635 C 0.54674 0.34821 0.7036 0.0
C1636 C 0.57961 0.3694 0.6962 0.0
C1637 C 0.53388 0.31412 0.70319 0.0
C1638 C 0.59829 0.35634 0.68531 0.0
C1639 C 0.58532 0.3225 0.68384 0.0
H1640 H 0.633 0.1826 0.71977 0.0
H1641 H 0.61314 0.26094 0.70263 0.0
H1642 H 0.67179 0.30032 0.70177 0.0
H1643 H 0.7279 0.31338 0.7111 0.0
H1644 H 0.74875 0.23625 0.7304 0.0
H1645 H 0.69051 0.19536 0.72486 0.0
C1646 C 0.64157 0.20816 0.71519 0.0
C1647 C 0.61877 0.21889 0.7114 0.0
C1648 C 0.67543 0.23089 0.71547 0.0
C1649 C 0.6302 0.25213 0.70576 0.0
C1650 C 0.66372 0.27467 0.70536 0.0
C1651 C 0.7198 0.28759 0.71387 0.0
C1652 C 0.74252 0.2779 0.72157 0.0
C1653 C 0.68644 0.26447 0.71108 0.0
C1654 C 0.73172 0.24435 0.72456 0.0
C1655 C 0.69841 0.221 0.72151 0.0
H1656 H 0.54429 0.18221 0.20648 0.0
H1657 H 0.63631 0.26265 0.17818 0.0
H1658 H 0.61106 0.29657 0.17242 0.0
H1659 H 0.56602 0.3064 0.18387 0.0
H1660 H 0.47599 0.22835 0.21716 0.0
H1661 H 0.49662 0.19 0.21183 0.0
C1662 C 0.55852 0.20681 0.19821 0.0
C1663 C 0.59226 0.22006 0.19304 0.0
C1664 C 0.54409 0.22659 0.19602 0.0
C1665 C 0.61048 0.25207 0.18264 0.0
C1666 C 0.59603 0.27148 0.17937 0.0
C1667 C 0.55054 0.28066 0.18888 0.0
C1668 C 0.5195 0.26985 0.20048 0.0
C1669 C 0.56331 0.25947 0.18719 0.0
C1670 C 0.49971 0.2368 0.20763 0.0
C1671 C 0.51172 0.21509 0.20494 0.0
H1672 H 0.76533 0.3765 0.18154 0.0
H1673 H 0.85524 0.3809 0.20687 0.0
H1674 H 0.82706 0.32113 0.21004 0.0
H1675 H 0.77412 0.26862 0.21432 0.0
H1676 H 0.68536 0.26508 0.18713 0.0
H1677 H 0.71561 0.32311 0.17544 0.0
C1678 C 0.77896 0.36428 0.18684 0.0
C1679 C 0.81204 0.38304 0.19459 0.0
C1680 C 0.76261 0.32996 0.18861 0.0
C1681 C 0.82959 0.36697 0.20109 0.0
C1682 C 0.81343 0.33275 0.20311 0.0
C1683 C 0.7618 0.28039 0.20482 0.0
C1684 C 0.72752 0.26294 0.20189 0.0
C1685 C 0.77954 0.31406 0.19822 0.0
C1686 C 0.71165 0.27834 0.18981 0.0
C1687 C 0.72895 0.31152 0.18319 0.0
H1688 H 0.73839 0.41529 0.20905 0.0
H1689 H 0.75815 0.51493 0.20487 0.0
H1690 H 0.69957 0.49507 0.19699 0.0
H1691 H 0.64244 0.44932 0.19849 0.0
H1692 H 0.62366 0.34984 0.20424 0.0
H1693 H 0.68239 0.36972 0.20372 0.0
C1694 C 0.72988 0.43264 0.20593 0.0
C1695 C 0.75217 0.46642 0.20799 0.0
C1696 C 0.69643 0.42105 0.20187 0.0
C1697 C 0.74124 0.48879 0.20343 0.0
C1698 C 0.7078 0.47741 0.19913 0.0
C1699 C 0.65114 0.43191 0.199 0.0
C1700 C 0.62865 0.39814 0.20195 0.0
C1701 C 0.68506 0.44358 0.19936 0.0
C1702 C 0.64039 0.37595 0.20236 0.0
C1703 C 0.674 0.3873 0.20216 0.0
H1704 H 0.57417 0.16795 0.94665 0.0
H1705 H 0.65644 0.25488 0.98106 0.0
H1706 H 0.62202 0.27882 0.98938 0.0
H1707 H 0.57113 0.27876 0.9806 0.0
H1708 H 0.48849 0.19369 0.94494 0.0
H1709 H 0.51992 0.16496 0.94401 0.0
C1710 C 0.58424 0.19175 0.95654 0.0
C1711 C 0.61793 0.2099 0.96272 0.0
C1712 C 0.56428 0.20582 0.96086 0.0
C1713 C 0.63071 0.24069 0.97564 0.0
C1714 C 0.61106 0.25444 0.98045 0.0
C1715 C 0.55987 0.2537 0.97314 0.0
C1716 C 0.52793 0.23847 0.9625 0.0
C1717 C 0.57822 0.23782 0.97214 0.0
C1718 C 0.51317 0.20582 0.95329 0.0
C1719 C 0.53124 0.18955 0.95251 0.0
H1720 H 0.79888 0.30272 0.96281 0.0
H1721 H 0.70902 0.27995 1.00411 0.0
H1722 H 0.72726 0.33848 1.00814 0.0
H1723 H 0.76422 0.39473 0.99171 0.0
H1724 H 0.8542 0.41733 0.95023 0.0
H1725 H 0.84092 0.36028 0.95475 0.0
C1726 C 0.78399 0.31078 0.97363 0.0
C1727 C 0.7527 0.28747 0.98302 0.0
C1728 C 0.79445 0.3443 0.97532 0.0
C1729 C 0.73326 0.29775 0.99687 0.0
C1730 C 0.74356 0.33112 0.99889 0.0
C1731 C 0.78122 0.38722 0.98428 0.0
C1732 C 0.80977 0.40983 0.9702 0.0
C1733 C 0.77336 0.35444 0.98689 0.0
C1734 C 0.83199 0.40021 0.96101 0.0
C1735 C 0.82433 0.3676 0.96347 0.0
H1736 H 0.70494 0.40798 0.96551 0.0
H1737 H 0.70803 0.4979 0.9881 0.0
H1738 H 0.64786 0.4689 0.99123 0.0
H1739 H 0.59406 0.4191 0.9799 0.0
H1740 H 0.59355 0.33072 0.95555 0.0
H1741 H 0.65255 0.35746 0.96146 0.0
C1742 C 0.69241 0.42101 0.97182 0.0
C1743 C 0.71063 0.4549 0.97635 0.0
C1744 C 0.6581 0.40435 0.97309 0.0
C1745 C 0.69436 0.47166 0.98465 0.0
C1746 C 0.65996 0.45513 0.98617 0.0
C1747 C 0.6069 0.40561 0.97676 0.0
C1748 C 0.58952 0.373 0.96723 0.0
C1749 C 0.64144 0.42164 0.97937 0.0
C1750 C 0.6064 0.3558 0.96291 0.0
C1751 C 0.64022 0.37114 0.96609 0.0
H1752 H 0.419 0.68049 0.81138 0.0
H1753 H 0.51888 0.75902 0.80461 0.0
H1754 H 0.5005 0.79949 0.80775 0.0
H1755 H 0.45473 0.81146 0.80508 0.0
H1756 H 0.35498 0.73101 0.80996 0.0
H1757 H 0.37452 0.69252 0.81542 0.0
C1758 C 0.43677 0.70653 0.81149 0.0
C1759 C 0.47011 0.71695 0.80789 0.0
C1760 C 0.42593 0.72929 0.81259 0.0
C1761 C 0.49309 0.7506 0.80777 0.0
C1762 C 0.4825 0.77364 0.80922 0.0
C1763 C 0.43734 0.78562 0.80799 0.0
C1764 C 0.40336 0.77424 0.8068 0.0
C1765 C 0.44879 0.76319 0.81054 0.0
C1766 C 0.3812 0.7406 0.8106 0.0
C1767 C 0.39234 0.71842 0.81365 0.0
H1768 H 0.23822 0.63314 0.8354 0.0
H1769 H 0.14878 0.62798 0.80735 0.0
H1770 H 0.17666 0.68767 0.80417 0.0
H1771 H 0.22941 0.73996 0.80011 0.0
H1772 H 0.31782 0.74519 0.83066 0.0
H1773 H 0.28754 0.68693 0.84247 0.0
C1774 C 0.22461 0.64519 0.82952 0.0
C1775 C 0.19186 0.62626 0.82078 0.0
C1776 C 0.24078 0.67948 0.82776 0.0
C1777 C 0.17422 0.64205 0.81372 0.0
C1778 C 0.19021 0.67621 0.81171 0.0
C1779 C 0.2416 0.72849 0.81036 0.0
C1780 C 0.2757 0.74625 0.81415 0.0
C1781 C 0.22391 0.69502 0.81725 0.0
C1782 C 0.29156 0.73148 0.82728 0.0
C1783 C 0.27429 0.69827 0.83399 0.0
H1784 H 0.37374 0.62044 0.81662 0.0
H1785 H 0.36738 0.52672 0.80442 0.0
H1786 H 0.30757 0.49915 0.80791 0.0
H1787 H 0.25678 0.50293 0.80683 0.0
H1788 H 0.26446 0.59742 0.81706 0.0
H1789 H 0.32377 0.62333 0.82251 0.0
C1790 C 0.35931 0.59393 0.81523 0.0
C1791 C 0.37493 0.57575 0.8098 0.0
C1792 C 0.32501 0.57834 0.81683 0.0
C1793 C 0.35595 0.54135 0.80849 0.0
C1794 C 0.32169 0.52555 0.81032 0.0
C1795 C 0.27145 0.52894 0.81126 0.0
C1796 C 0.2565 0.54833 0.81161 0.0
C1797 C 0.30586 0.54391 0.81346 0.0
C1798 C 0.27562 0.58212 0.81682 0.0
C1799 C 0.30953 0.59697 0.81971 0.0
H1800 H 0.36536 0.7591 0.02521 0.0
H1801 H 0.43756 0.85321 0.05783 0.0
H1802 H 0.47949 0.83689 0.05529 0.0
H1803 H 0.49287 0.79238 0.05083 0.0
H1804 H 0.41873 0.69759 0.02077 0.0
H1805 H 0.38037 0.71767 0.01499 0.0
C1806 C 0.39044 0.77629 0.03126 0.0
C1807 C 0.39828 0.80708 0.04208 0.0
C1808 C 0.41397 0.76643 0.03045 0.0
C1809 C 0.43093 0.82933 0.04946 0.0
C1810 C 0.45482 0.81988 0.04822 0.0
C1811 C 0.46863 0.77649 0.04227 0.0
C1812 C 0.45844 0.74345 0.03647 0.0
C1813 C 0.44629 0.788 0.03977 0.0
C1814 C 0.42691 0.72298 0.02565 0.0
C1815 C 0.40497 0.73443 0.02238 0.0
H1816 H 0.21074 0.70079 0.0454 0.0
H1817 H 0.30365 0.72412 0.00963 0.0
H1818 H 0.28528 0.66571 1.00469 0.0
H1819 H 0.24679 0.60911 0.01854 0.0
H1820 H 0.15438 0.58546 0.05591 0.0
H1821 H 0.16803 0.64271 0.05175 0.0
C1822 C 0.22626 0.69288 0.03541 0.0
C1823 C 0.25824 0.71639 0.02747 0.0
C1824 C 0.21581 0.65928 0.03346 0.0
C1825 C 0.27872 0.70625 0.01532 0.0
C1826 C 0.26835 0.67291 0.01284 0.0
C1827 C 0.22931 0.61638 0.02515 0.0
C1828 C 0.1999 0.5933 0.03795 0.0
C1829 C 0.23755 0.64933 0.02304 0.0
C1830 C 0.17722 0.60282 0.04608 0.0
C1831 C 0.18514 0.6356 0.04387 0.0
H1832 H 0.3088 0.51188 0.03931 0.0
H1833 H 0.29119 0.59028 0.01721 0.0
H1834 H 0.35022 0.62848 0.01451 0.0
H1835 H 0.40589 0.64135 0.02726 0.0
H1836 H 0.42418 0.56414 0.05162 0.0
H1837 H 0.36602 0.52339 0.04445 0.0
C1838 C 0.31806 0.53696 0.03261 0.0
C1839 C 0.29595 0.54831 0.02794 0.0
C1840 C 0.3521 0.55904 0.0322 0.0
C1841 C 0.30793 0.58105 0.02029 0.0
C1842 C 0.34163 0.60294 0.01913 0.0
C1843 C 0.39718 0.61546 0.03011 0.0
C1844 C 0.4189 0.60552 0.03985 0.0
C1845 C 0.36383 0.59252 0.02634 0.0
C1846 C 0.4077 0.57209 0.04384 0.0
C1847 C 0.37448 0.54892 0.03993 0.0
H1848 H 0.2017 0.50374 0.56294 0.0
H1849 H 0.27885 0.56843 0.5079 0.0
H1850 H 0.25235 0.60155 0.50182 0.0
H1851 H 0.2125 0.6171 0.51895 0.0
H1852 H 0.13762 0.55409 0.57646 0.0
H1853 H 0.15719 0.51476 0.57446 0.0
C1854 C 0.21195 0.52444 0.54888 0.0
C1855 C 0.24186 0.53363 0.53564 0.0
C1856 C 0.19697 0.54367 0.54612 0.0
C1857 C 0.25552 0.56078 0.51789 0.0
C1858 C 0.24051 0.57981 0.51464 0.0
C1859 C 0.19964 0.594 0.52997 0.0
C1860 C 0.17328 0.58796 0.54735 0.0
C1861 C 0.2119 0.57219 0.52949 0.0
C1862 C 0.15744 0.55867 0.56245 0.0
C1863 C 0.16892 0.53645 0.56157 0.0
H1864 H 0.42965 0.70169 0.50662 0.0
H1865 H 0.51412 0.69853 0.53648 0.0
H1866 H 0.48237 0.6386 0.53822 0.0
H1867 H 0.42738 0.58946 0.54255 0.0
H1868 H 0.34259 0.59442 0.51541 0.0
H1869 H 0.37747 0.6509 0.50076 0.0
C1870 C 0.44143 0.68763 0.51195 0.0
C1871 C 0.47393 0.70405 0.52125 0.0
C1872 C 0.4226 0.6535 0.51422 0.0
C1873 C 0.48912 0.68605 0.52879 0.0
C1874 C 0.47079 0.65186 0.53029 0.0
C1875 C 0.41676 0.60264 0.53261 0.0
C1876 C 0.38252 0.5883 0.53084 0.0
C1877 C 0.43697 0.63555 0.52482 0.0
C1878 C 0.36893 0.60539 0.51768 0.0
C1879 C 0.38882 0.63766 0.50923 0.0
H1880 H 0.39015 0.73289 0.53226 0.0
H1881 H 0.41482 0.83317 0.54648 0.0
H1882 H 0.35645 0.81646 0.54541 0.0
H1883 H 0.29825 0.77218 0.54624 0.0
H1884 H 0.27483 0.67175 0.53573 0.0
H1885 H 0.33288 0.68975 0.5295 0.0
C1886 C 0.38294 0.75131 0.53479 0.0
C1887 C 0.407 0.78427 0.5398 0.0
C1888 C 0.34942 0.74137 0.5351 0.0
C1889 C 0.39697 0.80767 0.54266 0.0
C1890 C 0.36353 0.79806 0.54224 0.0
C1891 C 0.30584 0.75433 0.54204 0.0
C1892 C 0.28223 0.72062 0.54156 0.0
C1893 C 0.33949 0.76481 0.53933 0.0
C1894 C 0.29249 0.69777 0.53637 0.0
C1895 C 0.32569 0.70805 0.53283 0.0
H1896 H 0.23797 0.4962 0.30047 0.0
H1897 H 0.32357 0.5721 0.34146 0.0
H1898 H 0.29562 0.60338 0.34959 0.0
H1899 H 0.25076 0.61362 0.33611 0.0
H1900 H 0.16431 0.53654 0.29687 0.0
H1901 H 0.18805 0.50074 0.29736 0.0
C1902 C 0.24977 0.51878 0.31238 0.0
C1903 C 0.28264 0.53208 0.32035 0.0
C1904 C 0.23353 0.5366 0.31679 0.0
C1905 C 0.29816 0.56161 0.33527 0.0
C1906 C 0.28229 0.57957 0.33968 0.0
C1907 C 0.23673 0.58852 0.32877 0.0
C1908 C 0.20606 0.57758 0.31631 0.0
C1909 C 0.25056 0.56807 0.32923 0.0
C1910 C 0.18803 0.54524 0.30651 0.0
C1911 C 0.20166 0.52488 0.30667 0.0
H1912 H 0.43383 0.73807 0.32 0.0
H1913 H 0.52585 0.75484 0.28671 0.0
H1914 H 0.50874 0.69685 0.29389 0.0
H1915 H 0.46374 0.64014 0.30235 0.0
H1916 H 0.37021 0.62435 0.33126 0.0
H1917 H 0.39194 0.6833 0.33372 0.0
C1918 C 0.4504 0.72916 0.31477 0.0
C1919 C 0.48074 0.75042 0.3024 0.0
C1920 C 0.43996 0.6959 0.31808 0.0
C1921 C 0.5023 0.73883 0.29618 0.0
C1922 C 0.49239 0.70566 0.3001 0.0
C1923 C 0.44843 0.64967 0.30985 0.0
C1924 C 0.41527 0.62793 0.31632 0.0
C1925 C 0.46071 0.68372 0.30997 0.0
C1926 C 0.39568 0.64056 0.32599 0.0
C1927 C 0.40806 0.67427 0.32726 0.0
H1928 H 0.2824 0.69815 0.32154 0.0
H1929 H 0.25744 0.76683 0.28598 0.0
H1930 H 0.31437 0.81082 0.29054 0.0
H1931 H 0.37254 0.82713 0.29725 0.0
H1932 H 0.39744 0.75834 0.33208 0.0
H1933 H 0.33924 0.7171 0.33585 0.0
C1934 C 0.28935 0.72289 0.31527 0.0
C1935 C 0.26598 0.7291 0.30283 0.0
C1936 C 0.32212 0.748 0.31787 0.0
C1937 C 0.27507 0.76135 0.29532 0.0
C1938 C 0.30764 0.78651 0.29786 0.0
C1939 C 0.365 0.80356 0.30677 0.0
C1940 C 0.38887 0.79561 0.31465 0.0
C1941 C 0.33157 0.77982 0.30813 0.0
C1942 C 0.37923 0.76489 0.32629 0.0
C1943 C 0.34603 0.74126 0.32812 0.0
H1944 H 0.03235 0.19432 0.31149 0.0
H1945 H 0.92741 0.14983 0.302 0.0
H1946 H 0.93378 0.1551 0.25166 0.0
H1947 H 0.96907 0.1709 0.21035 0.0
H1948 H 0.07405 0.21574 0.22039 0.0
H1949 H 0.0676 0.21186 0.27057 0.0
C1950 C 0.01078 0.18578 0.29849 0.0
C1951 C 0.97938 0.17153 0.31061 0.0
C1952 C 0.01462 0.18897 0.26963 0.0
C1953 C 0.95185 0.16088 0.29331 0.0
C1954 C 0.95548 0.16385 0.26449 0.0
C1955 C 0.99061 0.18004 0.22347 0.0
C1956 C 0.02204 0.19357 0.21145 0.0
C1957 C 0.98675 0.17768 0.25242 0.0
C1958 C 0.04958 0.20526 0.22893 0.0
C1959 C 0.04591 0.20298 0.25768 0.0
H1960 H 0.81558 0.84358 0.31262 0.0
H1961 H 0.84674 0.7723 0.30159 0.0
H1962 H 0.83938 0.77325 0.25139 0.0
H1963 H 0.82649 0.79659 0.21024 0.0
H1964 H 0.79701 0.86902 0.22279 0.0
H1965 H 0.80127 0.86515 0.27263 0.0
C1966 C 0.82058 0.82796 0.29939 0.0
C1967 C 0.83175 0.80789 0.31108 0.0
C1968 C 0.8167 0.82893 0.27063 0.0
C1969 C 0.83808 0.78798 0.29332 0.0
C1970 C 0.83394 0.78857 0.26455 0.0
C1971 C 0.82068 0.81125 0.22391 0.0
C1972 C 0.81149 0.83313 0.21258 0.0
C1973 C 0.82359 0.80926 0.25289 0.0
C1974 C 0.8043 0.8521 0.23072 0.0
C1975 C 0.80671 0.84992 0.25933 0.0
H1976 H 0.2267 0.05244 0.29923 0.0
H1977 H 0.1362 0.96595 0.32201 0.0
H1978 H 0.12384 0.9503 0.27364 0.0
H1979 H 0.13892 0.95972 0.22499 0.0
H1980 H 0.23005 0.04447 0.20074 0.0
H1981 H 0.24199 0.06198 0.24919 0.0
C1982 C 0.20424 0.03038 0.29345 0.0
C1983 C 0.1825 0.01034 0.3142 0.0
C1984 C 0.19746 0.02094 0.26529 0.0
C1985 C 0.15353 0.98164 0.30646 0.0
C1986 C 0.14636 0.97262 0.27877 0.0
C1987 C 0.16144 0.98204 0.2302 0.0
C1988 C 0.18355 1.00059 0.20914 0.0
C1989 C 0.16827 0.99182 0.25804 0.0
C1990 C 0.21261 0.02949 0.21648 0.0
C1991 C 0.21943 0.03962 0.24423 0.0
H1992 H 0.98212 0.81746 0.71405 0.0
H1993 H 0.08664 0.86185 0.72551 0.0
H1994 H 0.07916 0.85663 0.77584 0.0
H1995 H 0.04266 0.83949 0.81673 0.0
H1996 H 0.93873 0.79978 0.80502 0.0
H1997 H 0.9461 0.80303 0.75475 0.0
C1998 C 0.00324 0.82586 0.72759 0.0
C1999 C 0.03486 0.8397 0.71608 0.0
C2000 C 0.9988 0.82359 0.75648 0.0
C2001 C 0.06206 0.85108 0.73387 0.0
C2002 C 0.05777 0.84803 0.76264 0.0
C2003 C 0.02166 0.83139 0.8031 0.0
C2004 C 0.99013 0.81906 0.81453 0.0
C2005 C 0.02624 0.83429 0.77419 0.0
C2006 C 0.9632 0.80929 0.79671 0.0
C2007 C 0.96741 0.81112 0.76797 0.0
H2008 H 0.19469 0.16809 0.70558 0.0
H2009 H 0.1425 0.21994 0.72165 0.0
H2010 H 0.15089 0.21801 0.77142 0.0
H2011 H 0.17092 0.19963 0.81031 0.0
H2012 H 0.21865 0.14328 0.79495 0.0
H2013 H 0.21423 0.14889 0.74491 0.0
C2014 C 0.18552 0.17925 0.72004 0.0
C2015 C 0.16824 0.19436 0.71008 0.0
C2016 C 0.1895 0.17709 0.74867 0.0
C2017 C 0.15586 0.20818 0.72892 0.0
C2018 C 0.16066 0.2071 0.75733 0.0
C2019 C 0.18071 0.1889 0.796 0.0
C2020 C 0.19539 0.17136 0.80624 0.0
C2021 C 0.17716 0.19136 0.76743 0.0
C2022 C 0.20731 0.15696 0.78751 0.0
C2023 C 0.20479 0.16017 0.75894 0.0
H2024 H 0.82753 0.97149 0.81414 0.0
H2025 H 0.83046 0.0641 0.80547 0.0
H2026 H 0.82222 0.05523 0.75547 0.0
H2027 H 0.81469 0.02135 0.714 0.0
H2028 H 0.81399 0.92984 0.72285 0.0
H2029 H 0.82064 0.93808 0.7729 0.0
C2030 C 0.82626 0.98975 0.80139 0.0
C2031 C 0.82948 0.0184 0.81374 0.0
C2032 C 0.82182 0.98464 0.77259 0.0
C2033 C 0.8281 0.04185 0.79667 0.0
C2034 C 0.82331 0.03675 0.76802 0.0
C2035 C 0.81569 0.00304 0.72689 0.0
C2036 C 0.81354 0.97483 0.71456 0.0
C2037 C 0.82013 0.00823 0.75573 0.0
C2038 C 0.81546 0.9517 0.73165 0.0
C2039 C 0.81931 0.95642 0.76033 0.0
H2040 H 0.70003 0.52979 0.64091 0.0
H2041 H 0.59542 0.47562 0.62727 0.0
H2042 H 0.6038 0.48566 0.57757 0.0
H2043 H 0.64078 0.50779 0.53765 0.0
H2044 H 0.74543 0.55778 0.55052 0.0
H2045 H 0.73721 0.55173 0.6007 0.0
C2046 C 0.67911 0.52042 0.62704 0.0
C2047 C 0.64716 0.50205 0.6378 0.0
C2048 C 0.68413 0.52558 0.59831 0.0
C2049 C 0.62028 0.4897 0.61954 0.0
C2050 C 0.62503 0.4955 0.5911 0.0
C2051 C 0.66178 0.5178 0.55148 0.0
C2052 C 0.69367 0.53354 0.54043 0.0
C2053 C 0.65683 0.51318 0.58021 0.0
C2054 C 0.72064 0.54569 0.55856 0.0
C2055 C 0.71594 0.54216 0.58724 0.0
H2056 H 0.45652 0.15074 0.63788 0.0
H2057 H 0.54185 0.13941 0.63223 0.0
H2058 H 0.54305 0.14634 0.58218 0.0
H2059 H 0.52124 0.15747 0.53992 0.0
H2060 H 0.43703 0.17066 0.54541 0.0
H2061 H 0.43413 0.16115 0.59526 0.0
C2062 C 0.47519 0.14948 0.62567 0.0
C2063 C 0.49899 0.14447 0.63898 0.0
C2064 C 0.47611 0.154 0.59673 0.0
C2065 C 0.52321 0.14328 0.62272 0.0
C2066 C 0.52396 0.14726 0.594 0.0
C2067 C 0.50209 0.15807 0.55194 0.0
C2068 C 0.4794 0.16478 0.53873 0.0
C2069 C 0.50074 0.15293 0.58077 0.0
C2070 C 0.45493 0.16564 0.55487 0.0
C2071 C 0.45321 0.16018 0.58347 0.0
H2072 H 0.808 0.29466 0.55165 0.0
H2073 H 0.89739 0.38427 0.53253 0.0
H2074 H 0.90683 0.39814 0.5815 0.0
H2075 H 0.89021 0.38482 0.63026 0.0
H2076 H 0.80163 0.2944 0.64938 0.0
H2077 H 0.7916 0.28115 0.60037 0.0
C2078 C 0.82951 0.31721 0.55821 0.0
C2079 C 0.85194 0.33821 0.53834 0.0
C2080 C 0.8351 0.32503 0.5866 0.0
C2081 C 0.87975 0.36738 0.5473 0.0
C2082 C 0.88521 0.37548 0.57538 0.0
C2083 C 0.86872 0.36227 0.62369 0.0
C2084 C 0.8469 0.34067 0.6436 0.0
C2085 C 0.86313 0.35446 0.59528 0.0
C2086 C 0.81913 0.31145 0.63461 0.0
C2087 C 0.81323 0.3038 0.6065 0.0
H2088 H 0.71335 0.16128 0.05318 0.0
H2089 H 0.62091 0.15258 0.02904 0.0
H2090 H 0.6044 0.14752 0.07723 0.0
H2091 H 0.61614 0.14671 0.12648 0.0
H2092 H 0.70779 0.15438 0.15143 0.0
H2093 H 0.72433 0.15847 0.10299 0.0
C2094 C 0.68958 0.1582 0.05848 0.0
C2095 C 0.66851 0.15731 0.03731 0.0
C2096 C 0.67993 0.15506 0.08651 0.0
C2097 C 0.6377 0.15318 0.0447 0.0
C2098 C 0.62816 0.15035 0.07236 0.0
C2099 C 0.63968 0.1491 0.12138 0.0
C2100 C 0.6606 0.15021 0.14271 0.0
C2101 C 0.64907 0.15138 0.09346 0.0
C2102 C 0.69102 0.15328 0.13553 0.0
C2103 C 0.7006 0.15575 0.10778 0.0
H2104 H 0.84277 0.47085 0.12931 0.0
H2105 H 0.87789 0.57224 0.14955 0.0
H2106 H 0.86841 0.58283 0.10171 0.0
H2107 H 0.8521 0.56329 0.05305 0.0
H2108 H 0.81655 0.46131 0.03458 0.0
H2109 H 0.82361 0.4509 0.08267 0.0
C2110 C 0.84857 0.49534 0.12326 0.0
C2111 C 0.86154 0.52079 0.14287 0.0
C2112 C 0.84258 0.5011 0.09596 0.0
C2113 C 0.86816 0.55222 0.13478 0.0
C2114 C 0.86264 0.55828 0.10743 0.0
C2115 C 0.84532 0.53876 0.05981 0.0
C2116 C 0.83391 0.51314 0.04031 0.0
C2117 C 0.84996 0.53291 0.08771 0.0
C2118 C 0.82553 0.48147 0.04922 0.0
C2119 C 0.82969 0.47548 0.07669 0.0
H2120 H 0.5087 0.36295 0.03379 0.0
H2121 H 0.44971 0.25869 0.04661 0.0
H2122 H 0.45337 0.26737 0.09691 0.0
H2123 H 0.47322 0.30496 0.13734 0.0
H2124 H 0.53617 0.40865 0.12403 0.0
H2125 H 0.53099 0.39995 0.07386 0.0
C2126 C 0.49658 0.34211 0.04761 0.0
C2127 C 0.47864 0.31022 0.03647 0.0
C2128 C 0.49943 0.34727 0.07642 0.0
C2129 C 0.46363 0.28345 0.05464 0.0
C2130 C 0.46564 0.28844 0.08339 0.0
C2131 C 0.48559 0.32563 0.12339 0.0
C2132 C 0.50468 0.3575 0.13435 0.0
C2133 C 0.48335 0.32027 0.09453 0.0
C2134 C 0.52123 0.38396 0.1161 0.0
C2135 C 0.51828 0.37898 0.08743 0.0
H2136 H 0.31268 0.85012 0.87156 0.0
H2137 H 0.40928 0.8618 0.88023 0.0
H2138 H 0.4037 0.85976 0.93054 0.0
H2139 H 0.37101 0.85307 0.97184 0.0
H2140 H 0.27342 0.83896 0.9636 0.0
H2141 H 0.27984 0.84358 0.91323 0.0
C2142 C 0.33265 0.85254 0.88446 0.0
C2143 C 0.36144 0.85629 0.87212 0.0
C2144 C 0.32906 0.85077 0.9134 0.0
C2145 C 0.38688 0.85891 0.88915 0.0
C2146 C 0.38371 0.85773 0.91793 0.0
C2147 C 0.35116 0.85125 0.95911 0.0
C2148 C 0.32181 0.84584 0.97154 0.0
C2149 C 0.35484 0.85345 0.93024 0.0
C2150 C 0.29627 0.84313 0.95461 0.0
C2151 C 0.29993 0.84579 0.92581 0.0
H2152 H 0.1318 0.49567 0.97446 0.0
H2153 H 0.19095 0.45 0.96377 0.0
H2154 H 0.18375 0.44958 0.91345 0.0
H2155 H 0.16401 0.46636 0.87234 0.0
H2156 H 0.10675 0.51386 0.88458 0.0
H2157 H 0.10974 0.50915 0.93451 0.0
C2158 C 0.14305 0.48541 0.96124 0.0
C2159 C 0.16217 0.47318 0.97291 0.0
C2160 C 0.13919 0.48565 0.93254 0.0
C2161 C 0.17617 0.45966 0.95535 0.0
C2162 C 0.17213 0.4595 0.92657 0.0
C2163 C 0.15177 0.47515 0.88599 0.0
C2164 C 0.13534 0.4906 0.87478 0.0
C2165 C 0.15414 0.47298 0.9149 0.0
C2166 C 0.1198 0.50214 0.89268 0.0
C2167 C 0.12149 0.49948 0.92124 0.0
H2168 H 0.50118 0.63377 0.97658 0.0
H2169 H 0.55137 0.73806 0.96231 0.0
H2170 H 0.54719 0.72867 0.91222 0.0
H2171 H 0.52875 0.69077 0.87255 0.0
H2172 H 0.47429 0.58647 0.88669 0.0
H2173 H 0.48052 0.59579 0.93681 0.0
C2174 C 0.51138 0.65441 0.96245 0.0
C2175 C 0.52691 0.68657 0.97304 0.0
C2176 C 0.508 0.64878 0.93373 0.0
C2177 C 0.5394 0.71311 0.9546 0.0
C2178 C 0.53703 0.70774 0.92599 0.0
C2179 C 0.51841 0.6701 0.88664 0.0
C2180 C 0.5014 0.63797 0.876 0.0
C2181 C 0.52134 0.67569 0.91534 0.0
C2182 C 0.48752 0.6114 0.89442 0.0
C2183 C 0.49114 0.61673 0.92304 0.0
H2184 H 0.31112 0.46103 0.37464 0.0
H2185 H 0.41139 0.53778 0.38772 0.0
H2186 H 0.40219 0.53458 0.43754 0.0
H2187 H 0.36596 0.51182 0.47673 0.0
H2188 H 0.26489 0.43625 0.46527 0.0
H2189 H 0.27417 0.43732 0.41509 0.0
C2190 C 0.33105 0.47676 0.38845 0.0
C2191 C 0.36201 0.49952 0.37748 0.0
C2192 C 0.32541 0.47521 0.41717 0.0
C2193 C 0.38741 0.52008 0.39559 0.0
C2194 C 0.38215 0.5183 0.42407 0.0
C2195 C 0.34577 0.49527 0.46347 0.0
C2196 C 0.31471 0.4738 0.47489 0.0
C2197 C 0.35124 0.49622 0.43498 0.0
C2198 C 0.28901 0.45297 0.45709 0.0
C2199 C 0.29436 0.45358 0.42844 0.0
H2200 H 0.54533 0.8373 0.37168 0.0
H2201 H 0.48975 0.88717 0.37961 0.0
H2202 H 0.49031 0.88272 0.42985 0.0
H2203 H 0.50439 0.8627 0.47157 0.0
H2204 H 0.5606 0.8135 0.46407 0.0
H2205 H 0.56207 0.81987 0.4138 0.0
C2206 C 0.53353 0.84742 0.38437 0.0
C2207 C 0.51744 0.86248 0.37168 0.0
C2208 C 0.53394 0.84483 0.41342 0.0
C2209 C 0.5024 0.8755 0.38863 0.0
C2210 C 0.5026 0.87289 0.41745 0.0
C2211 C 0.51714 0.8535 0.459 0.0
C2212 C 0.53225 0.83751 0.47172 0.0
C2213 C 0.51797 0.8573 0.43006 0.0
C2214 C 0.5488 0.82597 0.45497 0.0
C2215 C 0.54957 0.82951 0.42615 0.0
H2216 H 0.11227 0.62065 0.38526 0.0
H2217 H 0.20888 0.70072 0.36601 0.0
H2218 H 0.2192 0.71567 0.41464 0.0
H2219 H 0.20072 0.70714 0.4627 0.0
H2220 H 0.10369 0.62818 0.48248 0.0
H2221 H 0.09373 0.61198 0.43396 0.0
C2222 C 0.13556 0.64119 0.39184 0.0
C2223 C 0.15957 0.65964 0.37207 0.0
C2224 C 0.14131 0.65015 0.41999 0.0
C2225 C 0.18972 0.68633 0.38082 0.0
C2226 C 0.19576 0.69494 0.40865 0.0
C2227 C 0.17738 0.68646 0.4564 0.0
C2228 C 0.15303 0.66914 0.47622 0.0
C2229 C 0.17165 0.67726 0.42841 0.0
C2230 C 0.12291 0.64223 0.46765 0.0
C2231 C 0.11714 0.63279 0.43987 0.0
H2232 H 0.15523 0.39673 0.10484 0.0
H2233 H 0.07925 0.38762 0.04945 0.0
H2234 H 0.04325 0.331 0.06513 0.0
H2235 H 0.03582 0.28223 0.09176 0.0
H2236 H 0.11351 0.29343 0.1462 0.0
H2237 H 0.14612 0.35112 0.13411 0.0
C2238 C 0.13072 0.38242 0.09623 0.0
C2239 C 0.12013 0.39607 0.07566 0.0
C2240 C 0.11041 0.35021 0.1053 0.0
C2241 C 0.08805 0.37752 0.0652 0.0
C2242 C 0.06751 0.34515 0.07413 0.0
C2243 C 0.05953 0.29763 0.10139 0.0
C2244 C 0.07236 0.28366 0.11975 0.0
C2245 C 0.07868 0.33096 0.09382 0.0
C2246 C 0.10326 0.30367 0.13191 0.0
C2247 C 0.12199 0.33662 0.12493 0.0
H2248 H 0.73507 0.77986 0.07201 0.0
H2249 H 0.70988 0.76961 0.15855 0.0
H2250 H 0.65176 0.73443 0.14706 0.0
H2251 H 0.6076 0.71198 0.11212 0.0
H2252 H 0.63246 0.7286 0.02561 0.0
H2253 H 0.69097 0.75543 0.03705 0.0
C2254 C 0.71682 0.76918 0.08827 0.0
C2255 C 0.72652 0.77685 0.11604 0.0
C2256 C 0.68334 0.75033 0.08141 0.0
C2257 C 0.70278 0.76375 0.13703 0.0
C2258 C 0.66961 0.74377 0.13046 0.0
C2259 C 0.62593 0.72077 0.09586 0.0
C2260 C 0.616 0.71805 0.06811 0.0
C2261 C 0.65949 0.73761 0.1027 0.0
C2262 C 0.63976 0.73029 0.04711 0.0
C2263 C 0.67315 0.74573 0.05365 0.0
H2264 H 0.25092 0.97555 0.08459 0.0
H2265 H 0.19453 0.90392 0.14734 0.0
H2266 H 0.21998 0.87202 0.13493 0.0
H2267 H 0.25483 0.86171 0.10457 0.0
H2268 H 0.31293 0.93197 0.04203 0.0
H2269 H 0.29068 0.96726 0.05625 0.0
C2270 C 0.24453 0.95318 0.09573 0.0
C2271 C 0.22045 0.94215 0.11672 0.0
C2272 C 0.25945 0.93455 0.08848 0.0
C2273 C 0.21265 0.91309 0.13097 0.0
C2274 C 0.22721 0.89466 0.12391 0.0
C2275 C 0.26284 0.8849 0.09414 0.0
C2276 C 0.28511 0.89407 0.07208 0.0
C2277 C 0.25006 0.90477 0.1024 0.0
C2278 C 0.29576 0.92441 0.05909 0.0
C2279 C 0.28288 0.94444 0.06713 0.0
H2280 H 0.29527 0.03907 0.3964 0.0
H2281 H 0.26629 0.10026 0.44088 0.0
H2282 H 0.3205 0.13153 0.4607 0.0
H2283 H 0.37702 0.14503 0.4629 0.0
H2284 H 0.40954 0.08681 0.41903 0.0
H2285 H 0.35322 0.05056 0.40202 0.0
C2286 C 0.3009 0.05909 0.41057 0.0
C2287 C 0.27685 0.06775 0.41651 0.0
C2288 C 0.33276 0.07757 0.42206 0.0
C2289 C 0.28443 0.09354 0.43523 0.0
C2290 C 0.31545 0.11143 0.44681 0.0
C2291 C 0.37177 0.12419 0.44981 0.0
C2292 C 0.39731 0.11875 0.44196 0.0
C2293 C 0.33991 0.10418 0.4399 0.0
C2294 C 0.39013 0.09139 0.4254 0.0
C2295 C 0.35802 0.0709 0.4155 0.0
H2296 H 0.93439 0.2107 0.44597 0.0
H2297 H 0.97216 0.25881 0.3679 0.0
H2298 H 0.95435 0.29861 0.37885 0.0
H2299 H 0.92171 0.31511 0.40883 0.0
H2300 H 0.88515 0.26563 0.48694 0.0
H2301 H 0.90928 0.23148 0.47805 0.0
C2302 C 0.9392 0.23029 0.43158 0.0
C2303 C 0.95414 0.2318 0.40613 0.0
C2304 C 0.92894 0.25275 0.43801 0.0
C2305 C 0.96066 0.25734 0.38767 0.0
C2306 C 0.95031 0.27991 0.39388 0.0
C2307 C 0.91979 0.29739 0.42411 0.0
C2308 C 0.90119 0.29257 0.44829 0.0
C2309 C 0.93355 0.27728 0.41873 0.0
C2310 C 0.89885 0.26948 0.46794 0.0
C2311 C 0.91261 0.24986 0.46291 0.0
H2312 H 0.75776 0.71262 0.38401 0.0
H2313 H 0.81772 0.74865 0.4574 0.0
H2314 H 0.78769 0.69456 0.47858 0.0
H2315 H 0.75013 0.63591 0.47367 0.0
H2316 H 0.69047 0.59798 0.40031 0.0
H2317 H 0.71419 0.65375 0.38174 0.0
C2318 C 0.76335 0.70867 0.40496 0.0
C2319 C 0.78969 0.73437 0.41929 0.0
C2320 C 0.74648 0.67708 0.41676 0.0
C2321 C 0.79735 0.72908 0.44618 0.0
C2322 C 0.78038 0.69816 0.45819 0.0
C2323 C 0.74197 0.63989 0.45377 0.0
C2324 C 0.719 0.61293 0.43818 0.0
C2325 C 0.75583 0.67177 0.44326 0.0
C2326 C 0.70822 0.61842 0.41266 0.0
C2327 C 0.7219 0.65028 0.40199 0.0
H2328 H 0.86127 0.60946 0.91216 0.0
H2329 H 0.92853 0.61607 0.97579 0.0
H2330 H 0.96587 0.6739 0.96381 0.0
H2331 H 0.97684 0.72386 0.93709 0.0
H2332 H 0.90833 0.71387 0.87286 0.0
H2333 H 0.87435 0.65624 0.88318 0.0
C2334 C 0.88417 0.62351 0.9234 0.0
C2335 C 0.8919 0.60882 0.94512 0.0
C2336 C 0.90533 0.65627 0.9163 0.0
C2337 C 0.92199 0.62702 0.95906 0.0
C2338 C 0.94325 0.66007 0.95225 0.0
C2339 C 0.95478 0.7089 0.92511 0.0
C2340 C 0.94507 0.72352 0.9045 0.0
C2341 C 0.93489 0.67518 0.93115 0.0
C2342 C 0.91636 0.70364 0.88911 0.0
C2343 C 0.89675 0.67052 0.89495 0.0
H2344 H 0.36621 0.27154 0.97424 0.0
H2345 H 0.41201 0.31163 0.89571 0.0
H2346 H 0.35821 0.28531 0.87302 0.0
H2347 H 0.29853 0.24541 0.87492 0.0
H2348 H 0.25272 0.20846 0.95403 0.0
H2349 H 0.30599 0.23898 0.97725 0.0
C2350 C 0.36423 0.27519 0.9523 0.0
C2351 C 0.39284 0.29341 0.93662 0.0
C2352 C 0.33328 0.26013 0.9395 0.0
C2353 C 0.39018 0.29803 0.90822 0.0
C2354 C 0.35948 0.28266 0.8952 0.0
C2355 C 0.30034 0.24462 0.89727 0.0
C2356 C 0.27211 0.22471 0.91286 0.0
C2357 C 0.33095 0.26283 0.9105 0.0
C2358 C 0.27434 0.22381 0.94177 0.0
C2359 C 0.30473 0.24113 0.955 0.0
H2360 H 0.69616 0.08923 0.91003 0.0
H2361 H 0.73728 0.11417 0.99217 0.0
H2362 H 0.76721 0.08497 0.98431 0.0
H2363 H 0.78894 0.06097 0.95145 0.0
H2364 H 0.74917 0.03604 0.86897 0.0
H2365 H 0.71122 0.05624 0.87939 0.0
C2366 C 0.71061 0.08699 0.92649 0.0
C2367 C 0.7144 0.10347 0.95172 0.0
C2368 C 0.72851 0.07081 0.92149 0.0
C2369 C 0.7338 0.10126 0.97274 0.0
C2370 C 0.75118 0.08489 0.96814 0.0
C2371 C 0.77129 0.05919 0.93606 0.0
C2372 C 0.77173 0.0473 0.90952 0.0
C2373 C 0.74985 0.0709 0.94222 0.0
C2374 C 0.74897 0.04501 0.8896 0.0
C2375 C 0.72749 0.05675 0.89553 0.0
H2376 H 0.7222 0.96645 0.58954 0.0
H2377 H 0.70917 0.89398 0.65067 0.0
H2378 H 0.65149 0.86166 0.63894 0.0
H2379 H 0.60595 0.85081 0.60878 0.0
H2380 H 0.6165 0.92113 0.54685 0.0
H2381 H 0.6736 0.95768 0.56173 0.0
C2382 C 0.70659 0.94384 0.60053 0.0
C2383 C 0.7203 0.93253 0.62071 0.0
C2384 C 0.67299 0.92487 0.59348 0.0
C2385 C 0.69961 0.90317 0.63478 0.0
C2386 C 0.66648 0.88458 0.62814 0.0
C2387 C 0.62063 0.87436 0.59872 0.0
C2388 C 0.60727 0.88315 0.57658 0.0
C2389 C 0.65316 0.89473 0.6071 0.0
C2390 C 0.6263 0.91388 0.564 0.0
C2391 C 0.65899 0.93461 0.57238 0.0
H2392 H 0.06319 0.79102 0.57659 0.0
H2393 H 0.04647 0.75112 0.65894 0.0
H2394 H 0.06747 0.71476 0.64533 0.0
H2395 H 0.09547 0.69823 0.61094 0.0
H2396 H 0.1172 0.74288 0.5301 0.0
H2397 H 0.08932 0.77324 0.5419 0.0
C2398 C 0.06349 0.77374 0.59127 0.0
C2399 C 0.05281 0.77307 0.6185 0.0
C2400 C 0.07685 0.75405 0.58357 0.0
C2401 C 0.05414 0.75149 0.63774 0.0
C2402 C 0.06632 0.73092 0.62998 0.0
C2403 C 0.09351 0.71415 0.5958 0.0
C2404 C 0.10825 0.71823 0.56966 0.0
C2405 C 0.07841 0.73248 0.6031 0.0
C2406 C 0.1061 0.7394 0.55038 0.0
C2407 C 0.09018 0.75678 0.5571 0.0
H2408 H 0.26485 0.39817 0.61376 0.0
H2409 H 0.302 0.38011 0.53839 0.0
H2410 H 0.27665 0.3216 0.55026 0.0
H2411 H 0.23741 0.27462 0.57964 0.0
H2412 H 0.2008 0.29523 0.65455 0.0
H2413 H 0.23262 0.35354 0.64547 0.0
C2414 C 0.26802 0.38148 0.60027 0.0
C2415 C 0.285 0.39309 0.57529 0.0
C2416 C 0.25306 0.34822 0.60701 0.0
C2417 C 0.28915 0.37154 0.55788 0.0
C2418 C 0.27438 0.33811 0.56456 0.0
C2419 C 0.23697 0.29198 0.59416 0.0
C2420 C 0.21619 0.28046 0.61743 0.0
C2421 C 0.25528 0.32595 0.58868 0.0
C2422 C 0.21598 0.30328 0.63616 0.0
C2423 C 0.23426 0.33673 0.63108 0.0
H2424 H 0.03385 0.43196 0.80596 0.0
H2425 H 0.08289 0.44181 0.7283 0.0
H2426 H 0.02982 0.40966 0.70495 0.0
H2427 H 0.96919 0.38555 0.70582 0.0
H2428 H 0.92109 0.37524 0.78404 0.0
H2429 H 0.9738 0.40007 0.80811 0.0
C2430 C 0.03286 0.42644 0.78404 0.0
C2431 C 0.06208 0.43943 0.76879 0.0
C2432 C 1.00236 0.40786 0.77086 0.0
C2433 C 0.06062 0.43193 0.74046 0.0
C2434 C 0.03029 0.41374 0.72708 0.0
C2435 C 0.97035 0.38768 0.72821 0.0
C2436 C 0.94151 0.37838 0.74329 0.0
C2437 C 1.00093 0.40243 0.74191 0.0
C2438 C 0.9431 0.38186 0.7722 0.0
C2439 C 0.97322 0.39635 0.78591 0.0
H2440 H 0.56184 0.61896 0.73751 0.0
H2441 H 0.56626 0.59818 0.8237 0.0
H2442 H 0.59956 0.57312 0.81241 0.0
H2443 H 0.62134 0.55088 0.77741 0.0
H2444 H 0.61026 0.56511 0.69087 0.0
H2445 H 0.58619 0.59919 0.70261 0.0
C2446 C 0.5709 0.60968 0.75378 0.0
C2447 C 0.56206 0.61064 0.78138 0.0
C2448 C 0.58862 0.59384 0.74695 0.0
C2449 C 0.57306 0.59781 0.80233 0.0
C2450 C 0.59195 0.58338 0.79586 0.0
C2451 C 0.61443 0.56226 0.76123 0.0
C2452 C 0.61786 0.556 0.73337 0.0
C2453 C 0.59906 0.58038 0.76817 0.0
C2454 C 0.60803 0.56995 0.71247 0.0
C2455 C 0.59413 0.58926 0.71918 0.0
H2456 H 0.44192 0.05801 0.7754 0.0
H2457 H 0.43465 0.03661 0.68812 0.0
H2458 H 0.40391 0.97763 0.6978 0.0
H2459 H 0.38329 0.93221 0.73146 0.0
H2460 H 0.39719 0.9541 0.81869 0.0
H2461 H 0.42094 0.0127 0.80899 0.0
C2462 C 0.43295 0.04029 0.7586 0.0
C2463 C 0.43991 0.05127 0.73114 0.0
C2464 C 0.41676 0.00657 0.76442 0.0
C2465 C 0.42916 0.02841 0.7094 0.0
C2466 C 0.41175 0.9948 0.71495 0.0
C2467 C 0.39107 0.94991 0.74824 0.0
C2468 C 0.38831 0.9392 0.7757 0.0
C2469 C 0.40598 0.98358 0.74239 0.0
C2470 C 0.39904 0.96209 0.79741 0.0
C2471 C 0.41263 0.99548 0.79186 0.0
H2472 H 0.65208 0.05907 0.24497 0.0
H2473 H 0.56988 0.07441 0.25698 0.0
H2474 H 0.53727 0.01975 0.27523 0.0
H2475 H 0.5296 0.96619 0.28385 0.0
H2476 H 0.60833 0.94611 0.26993 0.0
H2477 H 0.64469 0.00366 0.25655 0.0
C2478 C 0.62726 0.05045 0.25209 0.0
C2479 C 0.61354 0.07099 0.2498 0.0
C2480 C 0.60779 0.01793 0.26183 0.0
C2481 C 0.58118 0.0594 0.25867 0.0
C2482 C 0.56233 0.02793 0.26901 0.0
C2483 C 0.55475 0.97421 0.27798 0.0
C2484 C 0.56603 0.95169 0.27752 0.0
C2485 C 0.57503 0.00678 0.27 0.0
C2486 C 0.59893 0.96291 0.27036 0.0
C2487 C 0.61968 0.9958 0.26262 0.0
H2488 H 0.04513 0.62532 0.30383 0.0
H2489 H 0.0863 0.60977 0.22957 0.0
H2490 H 0.03317 0.58615 0.20643 0.0
H2491 H 0.97414 0.56377 0.20914 0.0
H2492 H 0.93109 0.57667 0.28346 0.0
H2493 H 0.98562 0.60779 0.30463 0.0
C2494 C 0.04244 0.61754 0.28238 0.0
C2495 C 0.06936 0.61928 0.26827 0.0
C2496 C 0.01143 0.60311 0.26936 0.0
C2497 C 0.06575 0.60868 0.24066 0.0
C2498 C 0.0354 0.59504 0.22749 0.0
C2499 C 0.97667 0.57376 0.22984 0.0
C2500 C 0.94858 0.56759 0.2448 0.0
C2501 C 0.00789 0.59113 0.24193 0.0
C2502 C 0.95236 0.58108 0.27148 0.0
C2503 C 0.98353 0.59872 0.28365 0.0
H2504 H 0.44203 0.4877 0.27307 0.0
H2505 H 0.34405 0.40445 0.27026 0.0
H2506 H 0.36561 0.37014 0.25211 0.0
H2507 H 0.41323 0.36428 0.23697 0.0
H2508 H 0.50992 0.45007 0.23752 0.0
H2509 H 0.48799 0.48275 0.25675 0.0
C2510 C 0.42532 0.46197 0.26867 0.0
C2511 C 0.39158 0.44852 0.27334 0.0
C2512 C 0.43774 0.44283 0.25777 0.0
C2513 C 0.37019 0.41534 0.26693 0.0
C2514 C 0.38254 0.39574 0.2566 0.0
C2515 C 0.42934 0.3901 0.24134 0.0
C2516 C 0.46315 0.40471 0.23575 0.0
C2517 C 0.41637 0.40924 0.25193 0.0
C2518 C 0.48378 0.43826 0.24134 0.0
C2519 C 0.47131 0.45702 0.25245 0.0
loop_
_geom_bond_atom_site_label_1
_geom_bond_atom_site_label_2
_geom_bond_distance
_geom_bond_site_symmetry_2
_ccdc_geom_bond_type
Fe0 O2 1.918 . S
Fe0 O5 1.997 . S
Fe0 O6 2.002 1_455 S
Fe0 O11 1.976 1_455 S
Fe0 O14 1.996 . S
Fe1 O2 1.918 1_655 S
Fe1 O9 1.997 . S
Fe1 O12 1.996 . S
Fe1 O16 1.975 . S
Fe1 O19 2.002 . S
O2 Fe0 1.918 . S
O2 Fe1 1.918 1_455 S
O2 Fe3 1.918 . S
Fe3 O2 1.918 . S
Fe3 O4 2.002 . S
Fe3 O13 1.976 . S
Fe3 O17 1.996 . S
Fe3 O20 1.997 . S
O4 Fe3 2.002 . S
O4 C21 1.295 . S
O5 Fe0 1.997 . S
O5 C21 1.235 . S
O6 Fe0 2.002 1_655 S
O6 C7 1.295 . S
C7 O6 1.295 . S
C7 O9 1.235 . S
C8 O13 1.287 . S
C8 O14 1.255 . S
O9 Fe1 1.997 . S
O9 C7 1.235 . S
C10 O16 1.265 1_455 S
C10 O17 1.255 . S
O11 Fe0 1.976 1_655 S
O11 C18 1.287 . S
O12 Fe1 1.996 . S
O12 C18 1.255 . S
O13 Fe3 1.976 . S
O13 C8 1.287 . S
O14 Fe0 1.996 . S
O14 C8 1.255 . S
C15 O19 1.295 1_455 S
C15 O20 1.235 . S
O16 Fe1 1.975 . S
O16 C10 1.265 1_655 S
O17 Fe3 1.996 . S
O17 C10 1.255 . S
C18 O11 1.287 . S
C18 O12 1.255 . S
O19 Fe1 2.002 . S
O19 C15 1.295 1_655 S
O20 Fe3 1.997 . S
O20 C15 1.235 . S
C21 O4 1.295 . S
C21 O5 1.235 . S
Fe22 O24 1.918 . S
Fe22 O27 1.997 . S
Fe22 O28 2.002 . S
Fe22 O33 1.976 . S
Fe22 O36 1.996 . S
Fe23 O24 1.918 . S
Fe23 O31 1.997 . S
Fe23 O34 1.996 . S
Fe23 O38 1.976 . S
Fe23 O41 2.002 . S
O24 Fe22 1.918 . S
O24 Fe23 1.918 . S
O24 Fe25 1.918 . S
Fe25 O24 1.918 . S
Fe25 O26 2.002 . S
Fe25 O35 1.976 . S
Fe25 O39 1.996 . S
Fe25 O42 1.997 . S
O26 Fe25 2.002 . S
O26 C43 1.295 . S
O27 Fe22 1.997 . S
O27 C43 1.235 . S
O28 Fe22 2.002 . S
O28 C29 1.295 . S
C29 O28 1.295 . S
C29 O31 1.235 . S
C30 O35 1.287 . S
C30 O36 1.255 . S
O31 Fe23 1.997 . S
O31 C29 1.235 . S
C32 O38 1.287 . S
C32 O39 1.255 . S
O33 Fe22 1.976 . S
O33 C40 1.287 . S
O34 Fe23 1.996 . S
O34 C40 1.255 . S
O35 Fe25 1.976 . S
O35 C30 1.287 . S
O36 Fe22 1.996 . S
O36 C30 1.255 . S
C37 O41 1.295 . S
C37 O42 1.235 . S
O38 Fe23 1.976 . S
O38 C32 1.287 . S
O39 Fe25 1.996 . S
O39 C32 1.255 . S
C40 O33 1.287 . S
C40 O34 1.255 . S
O41 Fe23 2.002 . S
O41 C37 1.295 . S
O42 Fe25 1.997 . S
O42 C37 1.235 . S
C43 O26 1.295 . S
C43 O27 1.235 . S
Fe44 O46 1.918 . S
Fe44 O49 1.997 . S
Fe44 O50 2.002 . S
Fe44 O55 1.976 . S
Fe44 O58 1.996 . S
Fe45 O46 1.918 . S
Fe45 O53 1.997 . S
Fe45 O56 1.996 . S
Fe45 O60 1.976 1_565 S
Fe45 O63 2.002 1_565 S
O46 Fe44 1.918 . S
O46 Fe45 1.918 . S
O46 Fe47 1.918 1_565 S
Fe47 O46 1.918 1_545 S
Fe47 O48 2.002 . S
Fe47 O57 2.003 . S
Fe47 O61 1.996 . S
Fe47 O64 1.997 . S
O48 Fe47 2.002 . S
O48 C65 1.295 1_545 S
O49 Fe44 1.997 . S
O49 C65 1.235 . S
O50 Fe44 2.002 . S
O50 C51 1.295 . S
C51 O50 1.295 . S
C51 O53 1.235 . S
C52 O57 1.255 1_565 S
C52 O58 1.255 . S
O53 Fe45 1.997 . S
O53 C51 1.235 . S
C54 O60 1.287 . S
C54 O61 1.255 . S
O55 Fe44 1.976 . S
O55 C62 1.287 . S
O56 Fe45 1.996 . S
O56 C62 1.255 . S
O57 Fe47 2.003 . S
O57 C52 1.255 1_545 S
O58 Fe44 1.996 . S
O58 C52 1.255 . S
C59 O63 1.295 . S
C59 O64 1.235 . S
O60 Fe45 1.976 1_545 S
O60 C54 1.287 . S
O61 Fe47 1.996 . S
O61 C54 1.255 . S
C62 O55 1.287 . S
C62 O56 1.255 . S
O63 Fe45 2.002 1_545 S
O63 C59 1.295 . S
O64 Fe47 1.997 . S
O64 C59 1.235 . S
C65 O48 1.295 1_565 S
C65 O49 1.235 . S
Fe66 O68 1.918 . S
Fe66 O71 1.997 . S
Fe66 O72 2.002 1_545 S
Fe66 O77 1.976 1_545 S
Fe66 O80 1.996 . S
Fe67 O68 1.918 1_565 S
Fe67 O75 1.997 . S
Fe67 O78 1.996 . S
Fe67 O82 1.975 . S
Fe67 O85 2.002 . S
O68 Fe66 1.918 . S
O68 Fe67 1.918 1_545 S
O68 Fe69 1.918 . S
Fe69 O68 1.918 . S
Fe69 O70 2.002 . S
Fe69 O79 1.976 . S
Fe69 O83 1.996 . S
Fe69 O86 1.997 . S
O70 Fe69 2.002 . S
O70 C87 1.295 . S
O71 Fe66 1.997 . S
O71 C87 1.235 . S
O72 Fe66 2.002 1_565 S
O72 C73 1.295 . S
C73 O72 1.295 . S
C73 O75 1.235 . S
C74 O79 1.287 . S
C74 O80 1.255 . S
O75 Fe67 1.997 . S
O75 C73 1.235 . S
C76 O82 1.265 1_545 S
C76 O83 1.255 . S
O77 Fe66 1.976 1_565 S
O77 C84 1.287 . S
O78 Fe67 1.996 . S
O78 C84 1.255 . S
O79 Fe69 1.976 . S
O79 C74 1.287 . S
O80 Fe66 1.996 . S
O80 C74 1.255 . S
C81 O85 1.295 1_545 S
C81 O86 1.235 . S
O82 Fe67 1.975 . S
O82 C76 1.265 1_565 S
O83 Fe69 1.996 . S
O83 C76 1.255 . S
C84 O77 1.287 . S
C84 O78 1.255 . S
O85 Fe67 2.002 . S
O85 C81 1.295 1_565 S
O86 Fe69 1.997 . S
O86 C81 1.235 . S
C87 O70 1.295 . S
C87 O71 1.235 . S
Fe88 O90 1.918 . S
Fe88 O93 1.997 . S
Fe88 O94 2.002 1_655 S
Fe88 O99 1.976 1_655 S
Fe88 O102 1.996 . S
Fe89 O90 1.918 1_455 S
Fe89 O97 1.997 . S
Fe89 O100 1.996 . S
Fe89 O104 2.003 . S
Fe89 O107 2.002 . S
O90 Fe88 1.918 . S
O90 Fe89 1.918 1_655 S
O90 Fe91 1.918 . S
Fe91 O90 1.918 . S
Fe91 O92 2.002 . S
Fe91 O101 1.976 . S
Fe91 O105 1.996 . S
Fe91 O108 1.997 . S
O92 Fe91 2.002 . S
O92 C109 1.295 . S
O93 Fe88 1.997 . S
O93 C109 1.235 . S
O94 Fe88 2.002 1_455 S
O94 C95 1.295 . S
C95 O94 1.295 . S
C95 O97 1.235 . S
C96 O101 1.287 . S
C96 O102 1.255 . S
O97 Fe89 1.997 . S
O97 C95 1.235 . S
C98 O104 1.255 1_655 S
C98 O105 1.255 . S
O99 Fe88 1.976 1_455 S
O99 C106 1.287 . S
O100 Fe89 1.996 . S
O100 C106 1.255 . S
O101 Fe91 1.976 . S
O101 C96 1.287 . S
O102 Fe88 1.996 . S
O102 C96 1.255 . S
C103 O107 1.295 1_655 S
C103 O108 1.235 . S
O104 Fe89 2.003 . S
O104 C98 1.255 1_455 S
O105 Fe91 1.996 . S
O105 C98 1.255 . S
C106 O99 1.287 . S
C106 O100 1.255 . S
O107 Fe89 2.002 . S
O107 C103 1.295 1_455 S
O108 Fe91 1.997 . S
O108 C103 1.235 . S
C109 O92 1.295 . S
C109 O93 1.235 . S
Fe110 O112 1.918 . S
Fe110 O115 1.997 . S
Fe110 O116 2.002 . S
Fe110 O121 1.976 . S
Fe110 O124 1.996 . S
Fe111 O112 1.918 . S
Fe111 O119 1.997 . S
Fe111 O122 1.996 . S
Fe111 O126 1.976 . S
Fe111 O129 2.002 . S
O112 Fe110 1.918 . S
O112 Fe111 1.918 . S
O112 Fe113 1.918 . S
Fe113 O112 1.918 . S
Fe113 O114 2.002 . S
Fe113 O123 1.976 . S
Fe113 O127 1.996 . S
Fe113 O130 1.997 . S
O114 Fe113 2.002 . S
O114 C131 1.295 . S
O115 Fe110 1.997 . S
O115 C131 1.235 . S
O116 Fe110 2.002 . S
O116 C117 1.295 . S
C117 O116 1.295 . S
C117 O119 1.235 . S
C118 O123 1.287 . S
C118 O124 1.255 . S
O119 Fe111 1.997 . S
O119 C117 1.235 . S
C120 O126 1.287 . S
C120 O127 1.255 . S
O121 Fe110 1.976 . S
O121 C128 1.287 . S
O122 Fe111 1.996 . S
O122 C128 1.255 . S
O123 Fe113 1.976 . S
O123 C118 1.287 . S
O124 Fe110 1.996 . S
O124 C118 1.255 . S
C125 O129 1.295 . S
C125 O130 1.235 . S
O126 Fe111 1.976 . S
O126 C120 1.287 . S
O127 Fe113 1.996 . S
O127 C120 1.255 . S
C128 O121 1.287 . S
C128 O122 1.255 . S
O129 Fe111 2.002 . S
O129 C125 1.295 . S
O130 Fe113 1.997 . S
O130 C125 1.235 . S
C131 O114 1.295 . S
C131 O115 1.235 . S
Fe132 O134 1.918 . S
Fe132 O137 1.997 . S
Fe132 O138 2.002 1_655 S
Fe132 O143 1.976 1_655 S
Fe132 O146 1.996 . S
Fe133 O134 1.918 1_455 S
Fe133 O141 1.997 . S
Fe133 O144 1.996 . S
Fe133 O148 1.975 . S
Fe133 O151 2.002 . S
O134 Fe132 1.918 . S
O134 Fe133 1.918 1_655 S
O134 Fe135 1.918 . S
Fe135 O134 1.918 . S
Fe135 O136 2.002 . S
Fe135 O145 1.976 . S
Fe135 O149 1.996 . S
Fe135 O152 1.997 . S
O136 Fe135 2.002 . S
O136 C153 1.295 . S
O137 Fe132 1.997 . S
O137 C153 1.235 . S
O138 Fe132 2.002 1_455 S
O138 C139 1.295 . S
C139 O138 1.295 . S
C139 O141 1.235 . S
C140 O145 1.287 . S
C140 O146 1.255 . S
O141 Fe133 1.997 . S
O141 C139 1.235 . S
C142 O148 1.265 1_655 S
C142 O149 1.255 . S
O143 Fe132 1.976 1_455 S
O143 C150 1.287 . S
O144 Fe133 1.996 . S
O144 C150 1.255 . S
O145 Fe135 1.976 . S
O145 C140 1.287 . S
O146 Fe132 1.996 . S
O146 C140 1.255 . S
C147 O151 1.295 1_655 S
C147 O152 1.235 . S
O148 Fe133 1.975 . S
O148 C142 1.265 1_455 S
O149 Fe135 1.996 . S
O149 C142 1.255 . S
C150 O143 1.287 . S
C150 O144 1.255 . S
O151 Fe133 2.002 . S
O151 C147 1.295 1_455 S
O152 Fe135 1.997 . S
O152 C147 1.235 . S
C153 O136 1.295 . S
C153 O137 1.235 . S
Fe154 O156 1.918 . S
Fe154 O159 1.997 . S
Fe154 O160 2.002 . S
Fe154 O165 1.976 . S
Fe154 O168 1.996 . S
Fe155 O156 1.918 . S
Fe155 O163 1.997 . S
Fe155 O166 1.996 . S
Fe155 O170 1.976 . S
Fe155 O173 2.002 . S
O156 Fe154 1.918 . S
O156 Fe155 1.918 . S
O156 Fe157 1.918 . S
Fe157 O156 1.918 . S
Fe157 O158 2.002 . S
Fe157 O167 1.976 . S
Fe157 O171 1.996 . S
Fe157 O174 1.997 . S
O158 Fe157 2.002 . S
O158 C175 1.295 . S
O159 Fe154 1.997 . S
O159 C175 1.235 . S
O160 Fe154 2.002 . S
O160 C161 1.295 . S
C161 O160 1.295 . S
C161 O163 1.235 . S
C162 O167 1.287 . S
C162 O168 1.255 . S
O163 Fe155 1.997 . S
O163 C161 1.235 . S
C164 O170 1.287 . S
C164 O171 1.255 . S
O165 Fe154 1.976 . S
O165 C172 1.287 . S
O166 Fe155 1.996 . S
O166 C172 1.255 . S
O167 Fe157 1.976 . S
O167 C162 1.287 . S
O168 Fe154 1.996 . S
O168 C162 1.255 . S
C169 O173 1.295 . S
C169 O174 1.235 . S
O170 Fe155 1.976 . S
O170 C164 1.287 . S
O171 Fe157 1.996 . S
O171 C164 1.255 . S
C172 O165 1.287 . S
C172 O166 1.255 . S
O173 Fe155 2.002 . S
O173 C169 1.295 . S
O174 Fe157 1.997 . S
O174 C169 1.235 . S
C175 O158 1.295 . S
C175 O159 1.235 . S
Fe176 O178 1.918 1_565 S
Fe176 O181 1.997 . S
Fe176 O182 2.002 . S
Fe176 O187 2.003 . S
Fe176 O190 1.996 . S
Fe177 O178 1.918 . S
Fe177 O185 1.997 . S
Fe177 O188 1.996 . S
Fe177 O192 1.976 . S
Fe177 O195 2.002 . S
O178 Fe176 1.918 1_545 S
O178 Fe177 1.918 . S
O178 Fe179 1.918 . S
Fe179 O178 1.918 . S
Fe179 O180 2.002 1_545 S
Fe179 O189 1.976 1_545 S
Fe179 O193 1.996 . S
Fe179 O196 1.997 . S
O180 Fe179 2.002 1_565 S
O180 C197 1.295 . S
O181 Fe176 1.997 . S
O181 C197 1.235 . S
O182 Fe176 2.002 . S
O182 C183 1.295 1_565 S
C183 O182 1.295 1_545 S
C183 O185 1.235 . S
C184 O189 1.287 . S
C184 O190 1.255 . S
O185 Fe177 1.997 . S
O185 C183 1.235 . S
C186 O192 1.287 . S
C186 O193 1.255 . S
O187 Fe176 2.003 . S
O187 C194 1.255 1_565 S
O188 Fe177 1.996 . S
O188 C194 1.255 . S
O189 Fe179 1.976 1_565 S
O189 C184 1.287 . S
O190 Fe176 1.996 . S
O190 C184 1.255 . S
C191 O195 1.295 . S
C191 O196 1.235 . S
O192 Fe177 1.976 . S
O192 C186 1.287 . S
O193 Fe179 1.996 . S
O193 C186 1.255 . S
C194 O187 1.255 1_545 S
C194 O188 1.255 . S
O195 Fe177 2.002 . S
O195 C191 1.295 . S
O196 Fe179 1.997 . S
O196 C191 1.235 . S
C197 O180 1.295 . S
C197 O181 1.235 . S
Fe198 O200 1.918 . S
Fe198 O203 1.997 . S
Fe198 O204 2.002 . S
Fe198 O209 1.976 . S
Fe198 O212 1.996 . S
Fe199 O200 1.918 . S
Fe199 O207 1.997 . S
Fe199 O210 1.996 . S
Fe199 O214 1.976 1_565 S
Fe199 O217 2.002 1_565 S
O200 Fe198 1.918 . S
O200 Fe199 1.918 . S
O200 Fe201 1.918 1_565 S
Fe201 O200 1.918 1_545 S
Fe201 O202 2.002 . S
Fe201 O211 1.975 . S
Fe201 O215 1.996 . S
Fe201 O218 1.997 . S
O202 Fe201 2.002 . S
O202 C219 1.295 1_545 S
O203 Fe198 1.997 . S
O203 C219 1.235 . S
O204 Fe198 2.002 . S
O204 C205 1.295 . S
C205 O204 1.295 . S
C205 O207 1.235 . S
C206 O211 1.265 1_565 S
C206 O212 1.255 . S
O207 Fe199 1.997 . S
O207 C205 1.235 . S
C208 O214 1.287 . S
C208 O215 1.255 . S
O209 Fe198 1.976 . S
O209 C216 1.287 . S
O210 Fe199 1.996 . S
O210 C216 1.255 . S
O211 Fe201 1.975 . S
O211 C206 1.265 1_545 S
O212 Fe198 1.996 . S
O212 C206 1.255 . S
C213 O217 1.295 . S
C213 O218 1.235 . S
O214 Fe199 1.976 1_545 S
O214 C208 1.287 . S
O215 Fe201 1.996 . S
O215 C208 1.255 . S
C216 O209 1.287 . S
C216 O210 1.255 . S
O217 Fe199 2.002 1_545 S
O217 C213 1.295 . S
O218 Fe201 1.997 . S
O218 C213 1.235 . S
C219 O202 1.295 1_565 S
C219 O203 1.235 . S
Fe220 O222 1.918 . S
Fe220 O225 1.997 . S
Fe220 O226 2.002 . S
Fe220 O231 1.976 . S
Fe220 O234 1.996 . S
Fe221 O222 1.918 . S
Fe221 O229 1.997 . S
Fe221 O232 1.996 . S
Fe221 O236 1.976 1_455 S
Fe221 O239 2.002 1_455 S
O222 Fe220 1.918 . S
O222 Fe221 1.918 . S
O222 Fe223 1.918 1_455 S
Fe223 O222 1.918 1_655 S
Fe223 O224 2.002 . S
Fe223 O233 2.003 . S
Fe223 O237 1.996 . S
Fe223 O240 1.997 . S
O224 Fe223 2.002 . S
O224 C241 1.295 1_655 S
O225 Fe220 1.997 . S
O225 C241 1.235 . S
O226 Fe220 2.002 . S
O226 C227 1.295 . S
C227 O226 1.295 . S
C227 O229 1.235 . S
C228 O233 1.255 1_455 S
C228 O234 1.255 . S
O229 Fe221 1.997 . S
O229 C227 1.235 . S
C230 O236 1.287 . S
C230 O237 1.255 . S
O231 Fe220 1.976 . S
O231 C238 1.287 . S
O232 Fe221 1.996 . S
O232 C238 1.255 . S
O233 Fe223 2.003 . S
O233 C228 1.255 1_655 S
O234 Fe220 1.996 . S
O234 C228 1.255 . S
C235 O239 1.295 . S
C235 O240 1.235 . S
O236 Fe221 1.976 1_655 S
O236 C230 1.287 . S
O237 Fe223 1.996 . S
O237 C230 1.255 . S
C238 O231 1.287 . S
C238 O232 1.255 . S
O239 Fe221 2.002 1_655 S
O239 C235 1.295 . S
O240 Fe223 1.997 . S
O240 C235 1.235 . S
C241 O224 1.295 1_455 S
C241 O225 1.235 . S
Fe242 O244 1.918 . S
Fe242 O247 1.997 . S
Fe242 O248 2.002 . S
Fe242 O253 1.976 . S
Fe242 O256 1.996 . S
Fe243 O244 1.918 . S
Fe243 O251 1.997 . S
Fe243 O254 1.996 . S
Fe243 O258 1.976 . S
Fe243 O261 2.002 . S
O244 Fe242 1.918 . S
O244 Fe243 1.918 . S
O244 Fe245 1.918 . S
Fe245 O244 1.918 . S
Fe245 O246 2.002 . S
Fe245 O255 1.976 . S
Fe245 O259 1.996 . S
Fe245 O262 1.997 . S
O246 Fe245 2.002 . S
O246 C263 1.295 . S
O247 Fe242 1.997 . S
O247 C263 1.235 . S
O248 Fe242 2.002 . S
O248 C249 1.295 . S
C249 O248 1.295 . S
C249 O251 1.235 . S
C250 O255 1.287 . S
C250 O256 1.255 . S
O251 Fe243 1.997 . S
O251 C249 1.235 . S
C252 O258 1.287 . S
C252 O259 1.255 . S
O253 Fe242 1.976 . S
O253 C260 1.287 . S
O254 Fe243 1.996 . S
O254 C260 1.255 . S
O255 Fe245 1.976 . S
O255 C250 1.287 . S
O256 Fe242 1.996 . S
O256 C250 1.255 . S
C257 O261 1.295 . S
C257 O262 1.235 . S
O258 Fe243 1.976 . S
O258 C252 1.287 . S
O259 Fe245 1.996 . S
O259 C252 1.255 . S
C260 O253 1.287 . S
C260 O254 1.255 . S
O261 Fe243 2.002 . S
O261 C257 1.295 . S
O262 Fe245 1.997 . S
O262 C257 1.235 . S
C263 O246 1.295 . S
C263 O247 1.235 . S
Fe264 O266 1.918 . S
Fe264 O269 1.997 . S
Fe264 O270 2.002 . S
Fe264 O275 1.976 . S
Fe264 O278 1.996 . S
Fe265 O266 1.918 . S
Fe265 O273 1.997 . S
Fe265 O276 1.996 . S
Fe265 O280 1.976 . S
Fe265 O283 2.002 . S
O266 Fe264 1.918 . S
O266 Fe265 1.918 . S
O266 Fe267 1.918 . S
Fe267 O266 1.918 . S
Fe267 O268 2.002 . S
Fe267 O277 1.976 . S
Fe267 O281 1.996 . S
Fe267 O284 1.997 . S
O268 Fe267 2.002 . S
O268 C285 1.295 . S
O269 Fe264 1.997 . S
O269 C285 1.235 . S
O270 Fe264 2.002 . S
O270 C271 1.295 . S
C271 O270 1.295 . S
C271 O273 1.235 . S
C272 O277 1.287 . S
C272 O278 1.255 . S
O273 Fe265 1.997 . S
O273 C271 1.235 . S
C274 O280 1.287 . S
C274 O281 1.255 . S
O275 Fe264 1.976 . S
O275 C282 1.287 . S
O276 Fe265 1.996 . S
O276 C282 1.255 . S
O277 Fe267 1.976 . S
O277 C272 1.287 . S
O278 Fe264 1.996 . S
O278 C272 1.255 . S
C279 O283 1.295 . S
C279 O284 1.235 . S
O280 Fe265 1.976 . S
O280 C274 1.287 . S
O281 Fe267 1.996 . S
O281 C274 1.255 . S
C282 O275 1.287 . S
C282 O276 1.255 . S
O283 Fe265 2.002 . S
O283 C279 1.295 . S
O284 Fe267 1.997 . S
O284 C279 1.235 . S
C285 O268 1.295 . S
C285 O269 1.235 . S
Fe286 O288 1.918 . S
Fe286 O291 1.997 . S
Fe286 O292 2.002 . S
Fe286 O297 1.976 . S
Fe286 O300 1.996 . S
Fe287 O288 1.918 . S
Fe287 O295 1.997 . S
Fe287 O298 1.996 . S
Fe287 O302 1.976 . S
Fe287 O305 2.002 . S
O288 Fe286 1.918 . S
O288 Fe287 1.918 . S
O288 Fe289 1.918 . S
Fe289 O288 1.918 . S
Fe289 O290 2.002 . S
Fe289 O299 1.976 . S
Fe289 O303 1.996 . S
Fe289 O306 1.997 . S
O290 Fe289 2.002 . S
O290 C307 1.295 . S
O291 Fe286 1.997 . S
O291 C307 1.235 . S
O292 Fe286 2.002 . S
O292 C293 1.295 . S
C293 O292 1.295 . S
C293 O295 1.235 . S
C294 O299 1.287 . S
C294 O300 1.255 . S
O295 Fe287 1.997 . S
O295 C293 1.235 . S
C296 O302 1.287 . S
C296 O303 1.255 . S
O297 Fe286 1.976 . S
O297 C304 1.287 . S
O298 Fe287 1.996 . S
O298 C304 1.255 . S
O299 Fe289 1.976 . S
O299 C294 1.287 . S
O300 Fe286 1.996 . S
O300 C294 1.255 . S
C301 O305 1.295 . S
C301 O306 1.235 . S
O302 Fe287 1.976 . S
O302 C296 1.287 . S
O303 Fe289 1.996 . S
O303 C296 1.255 . S
C304 O297 1.287 . S
C304 O298 1.255 . S
O305 Fe287 2.002 . S
O305 C301 1.295 . S
O306 Fe289 1.997 . S
O306 C301 1.235 . S
C307 O290 1.295 . S
C307 O291 1.235 . S
Fe308 O310 1.918 . S
Fe308 O313 1.997 . S
Fe308 O314 2.002 . S
Fe308 O319 1.976 . S
Fe308 O322 1.996 . S
Fe309 O310 1.918 . S
Fe309 O317 1.997 . S
Fe309 O320 1.996 . S
Fe309 O324 1.976 . S
Fe309 O327 2.002 . S
O310 Fe308 1.918 . S
O310 Fe309 1.918 . S
O310 Fe311 1.918 . S
Fe311 O310 1.918 . S
Fe311 O312 2.002 . S
Fe311 O321 1.976 . S
Fe311 O325 1.996 . S
Fe311 O328 1.997 . S
O312 Fe311 2.002 . S
O312 C329 1.295 . S
O313 Fe308 1.997 . S
O313 C329 1.235 . S
O314 Fe308 2.002 . S
O314 C315 1.295 . S
C315 O314 1.295 . S
C315 O317 1.235 . S
C316 O321 1.287 . S
C316 O322 1.255 . S
O317 Fe309 1.997 . S
O317 C315 1.235 . S
C318 O324 1.287 . S
C318 O325 1.255 . S
O319 Fe308 1.976 . S
O319 C326 1.287 . S
O320 Fe309 1.996 . S
O320 C326 1.255 . S
O321 Fe311 1.976 . S
O321 C316 1.287 . S
O322 Fe308 1.996 . S
O322 C316 1.255 . S
C323 O327 1.295 . S
C323 O328 1.235 . S
O324 Fe309 1.976 . S
O324 C318 1.287 . S
O325 Fe311 1.996 . S
O325 C318 1.255 . S
C326 O319 1.287 . S
C326 O320 1.255 . S
O327 Fe309 2.002 . S
O327 C323 1.295 . S
O328 Fe311 1.997 . S
O328 C323 1.235 . S
C329 O312 1.295 . S
C329 O313 1.235 . S
Fe330 O332 1.918 . S
Fe330 O335 1.997 . S
Fe330 O336 2.002 . S
Fe330 O341 1.976 . S
Fe330 O344 1.996 . S
Fe331 O332 1.918 . S
Fe331 O339 1.997 . S
Fe331 O342 1.996 . S
Fe331 O346 1.976 . S
Fe331 O349 2.002 . S
O332 Fe330 1.918 . S
O332 Fe331 1.918 . S
O332 Fe333 1.918 . S
Fe333 O332 1.918 . S
Fe333 O334 2.002 . S
Fe333 O343 1.976 . S
Fe333 O347 1.996 . S
Fe333 O350 1.997 . S
O334 Fe333 2.002 . S
O334 C351 1.295 . S
O335 Fe330 1.997 . S
O335 C351 1.235 . S
O336 Fe330 2.002 . S
O336 C337 1.295 . S
C337 O336 1.295 . S
C337 O339 1.235 . S
C338 O343 1.287 . S
C338 O344 1.255 . S
O339 Fe331 1.997 . S
O339 C337 1.235 . S
C340 O346 1.287 . S
C340 O347 1.255 . S
O341 Fe330 1.976 . S
O341 C348 1.287 . S
O342 Fe331 1.996 . S
O342 C348 1.255 . S
O343 Fe333 1.976 . S
O343 C338 1.287 . S
O344 Fe330 1.996 . S
O344 C338 1.255 . S
C345 O349 1.295 . S
C345 O350 1.235 . S
O346 Fe331 1.976 . S
O346 C340 1.287 . S
O347 Fe333 1.996 . S
O347 C340 1.255 . S
C348 O341 1.287 . S
C348 O342 1.255 . S
O349 Fe331 2.002 . S
O349 C345 1.295 . S
O350 Fe333 1.997 . S
O350 C345 1.235 . S
C351 O334 1.295 . S
C351 O335 1.235 . S
Fe352 O354 1.918 . S
Fe352 O357 1.997 . S
Fe352 O358 2.002 . S
Fe352 O363 1.976 . S
Fe352 O366 1.996 . S
Fe353 O354 1.918 . S
Fe353 O361 1.997 . S
Fe353 O364 1.996 . S
Fe353 O368 1.976 . S
Fe353 O371 2.002 . S
O354 Fe352 1.918 . S
O354 Fe353 1.918 . S
O354 Fe355 1.918 . S
Fe355 O354 1.918 . S
Fe355 O356 2.002 . S
Fe355 O365 1.976 . S
Fe355 O369 1.996 . S
Fe355 O372 1.997 . S
O356 Fe355 2.002 . S
O356 C373 1.295 . S
O357 Fe352 1.997 . S
O357 C373 1.235 . S
O358 Fe352 2.002 . S
O358 C359 1.295 . S
C359 O358 1.295 . S
C359 O361 1.235 . S
C360 O365 1.287 . S
C360 O366 1.255 . S
O361 Fe353 1.997 . S
O361 C359 1.235 . S
C362 O368 1.287 . S
C362 O369 1.255 . S
O363 Fe352 1.976 . S
O363 C370 1.287 . S
O364 Fe353 1.996 . S
O364 C370 1.255 . S
O365 Fe355 1.976 . S
O365 C360 1.287 . S
O366 Fe352 1.996 . S
O366 C360 1.255 . S
C367 O371 1.295 . S
C367 O372 1.235 . S
O368 Fe353 1.976 . S
O368 C362 1.287 . S
O369 Fe355 1.996 . S
O369 C362 1.255 . S
C370 O363 1.287 . S
C370 O364 1.255 . S
O371 Fe353 2.002 . S
O371 C367 1.295 . S
O372 Fe355 1.997 . S
O372 C367 1.235 . S
C373 O356 1.295 . S
C373 O357 1.235 . S
Fe374 O376 1.918 . S
Fe374 O379 1.997 . S
Fe374 O380 2.002 . S
Fe374 O385 1.976 . S
Fe374 O388 1.996 . S
Fe375 O376 1.918 . S
Fe375 O383 1.997 . S
Fe375 O386 1.996 . S
Fe375 O390 1.976 . S
Fe375 O393 2.002 . S
O376 Fe374 1.918 . S
O376 Fe375 1.918 . S
O376 Fe377 1.918 . S
Fe377 O376 1.918 . S
Fe377 O378 2.002 . S
Fe377 O387 1.976 . S
Fe377 O391 1.996 . S
Fe377 O394 1.997 . S
O378 Fe377 2.002 . S
O378 C395 1.295 . S
O379 Fe374 1.997 . S
O379 C395 1.235 . S
O380 Fe374 2.002 . S
O380 C381 1.295 . S
C381 O380 1.295 . S
C381 O383 1.235 . S
C382 O387 1.287 . S
C382 O388 1.255 . S
O383 Fe375 1.997 . S
O383 C381 1.235 . S
C384 O390 1.287 . S
C384 O391 1.255 . S
O385 Fe374 1.976 . S
O385 C392 1.287 . S
O386 Fe375 1.996 . S
O386 C392 1.255 . S
O387 Fe377 1.976 . S
O387 C382 1.287 . S
O388 Fe374 1.996 . S
O388 C382 1.255 . S
C389 O393 1.295 . S
C389 O394 1.235 . S
O390 Fe375 1.976 . S
O390 C384 1.287 . S
O391 Fe377 1.996 . S
O391 C384 1.255 . S
C392 O385 1.287 . S
C392 O386 1.255 . S
O393 Fe375 2.002 . S
O393 C389 1.295 . S
O394 Fe377 1.997 . S
O394 C389 1.235 . S
C395 O378 1.295 . S
C395 O379 1.235 . S
Fe396 O398 1.918 . S
Fe396 O401 1.997 . S
Fe396 O402 2.002 . S
Fe396 O407 1.976 . S
Fe396 O410 1.996 . S
Fe397 O398 1.918 . S
Fe397 O405 1.997 . S
Fe397 O408 1.996 . S
Fe397 O412 1.976 . S
Fe397 O415 2.002 . S
O398 Fe396 1.918 . S
O398 Fe397 1.918 . S
O398 Fe399 1.918 . S
Fe399 O398 1.918 . S
Fe399 O400 2.002 . S
Fe399 O409 1.976 . S
Fe399 O413 1.996 . S
Fe399 O416 1.997 . S
O400 Fe399 2.002 . S
O400 C417 1.295 . S
O401 Fe396 1.997 . S
O401 C417 1.235 . S
O402 Fe396 2.002 . S
O402 C403 1.295 . S
C403 O402 1.295 . S
C403 O405 1.235 . S
C404 O409 1.287 . S
C404 O410 1.255 . S
O405 Fe397 1.997 . S
O405 C403 1.235 . S
C406 O412 1.287 . S
C406 O413 1.255 . S
O407 Fe396 1.976 . S
O407 C414 1.287 . S
O408 Fe397 1.996 . S
O408 C414 1.255 . S
O409 Fe399 1.976 . S
O409 C404 1.287 . S
O410 Fe396 1.996 . S
O410 C404 1.255 . S
C411 O415 1.295 . S
C411 O416 1.235 . S
O412 Fe397 1.976 . S
O412 C406 1.287 . S
O413 Fe399 1.996 . S
O413 C406 1.255 . S
C414 O407 1.287 . S
C414 O408 1.255 . S
O415 Fe397 2.002 . S
O415 C411 1.295 . S
O416 Fe399 1.997 . S
O416 C411 1.235 . S
C417 O400 1.295 . S
C417 O401 1.235 . S
Fe418 O420 1.918 . S
Fe418 O423 1.997 . S
Fe418 O424 2.002 . S
Fe418 O429 1.976 . S
Fe418 O432 1.996 . S
Fe419 O420 1.918 . S
Fe419 O427 1.997 . S
Fe419 O430 1.996 . S
Fe419 O434 1.976 . S
Fe419 O437 2.002 . S
O420 Fe418 1.918 . S
O420 Fe419 1.918 . S
O420 Fe421 1.918 . S
Fe421 O420 1.918 . S
Fe421 O422 2.002 . S
Fe421 O431 1.976 . S
Fe421 O435 1.996 . S
Fe421 O438 1.997 . S
O422 Fe421 2.002 . S
O422 C439 1.295 . S
O423 Fe418 1.997 . S
O423 C439 1.235 . S
O424 Fe418 2.002 . S
O424 C425 1.295 . S
C425 O424 1.295 . S
C425 O427 1.235 . S
C426 O431 1.287 . S
C426 O432 1.255 . S
O427 Fe419 1.997 . S
O427 C425 1.235 . S
C428 O434 1.287 . S
C428 O435 1.255 . S
O429 Fe418 1.976 . S
O429 C436 1.287 . S
O430 Fe419 1.996 . S
O430 C436 1.255 . S
O431 Fe421 1.976 . S
O431 C426 1.287 . S
O432 Fe418 1.996 . S
O432 C426 1.255 . S
C433 O437 1.295 . S
C433 O438 1.235 . S
O434 Fe419 1.976 . S
O434 C428 1.287 . S
O435 Fe421 1.996 . S
O435 C428 1.255 . S
C436 O429 1.287 . S
C436 O430 1.255 . S
O437 Fe419 2.002 . S
O437 C433 1.295 . S
O438 Fe421 1.997 . S
O438 C433 1.235 . S
C439 O422 1.295 . S
C439 O423 1.235 . S
Fe440 O442 1.918 . S
Fe440 O445 1.997 . S
Fe440 O446 2.002 . S
Fe440 O451 1.976 . S
Fe440 O454 1.996 . S
Fe441 O442 1.918 . S
Fe441 O449 1.997 . S
Fe441 O452 1.996 . S
Fe441 O456 1.976 . S
Fe441 O459 2.002 . S
O442 Fe440 1.918 . S
O442 Fe441 1.918 . S
O442 Fe443 1.918 . S
Fe443 O442 1.918 . S
Fe443 O444 2.002 . S
Fe443 O453 1.976 . S
Fe443 O457 1.996 . S
Fe443 O460 1.997 . S
O444 Fe443 2.002 . S
O444 C461 1.295 . S
O445 Fe440 1.997 . S
O445 C461 1.235 . S
O446 Fe440 2.002 . S
O446 C447 1.295 . S
C447 O446 1.295 . S
C447 O449 1.235 . S
C448 O453 1.287 . S
C448 O454 1.255 . S
O449 Fe441 1.997 . S
O449 C447 1.235 . S
C450 O456 1.287 . S
C450 O457 1.255 . S
O451 Fe440 1.976 . S
O451 C458 1.287 . S
O452 Fe441 1.996 . S
O452 C458 1.255 . S
O453 Fe443 1.976 . S
O453 C448 1.287 . S
O454 Fe440 1.996 . S
O454 C448 1.255 . S
C455 O459 1.295 . S
C455 O460 1.235 . S
O456 Fe441 1.976 . S
O456 C450 1.287 . S
O457 Fe443 1.996 . S
O457 C450 1.255 . S
C458 O451 1.287 . S
C458 O452 1.255 . S
O459 Fe441 2.002 . S
O459 C455 1.295 . S
O460 Fe443 1.997 . S
O460 C455 1.235 . S
C461 O444 1.295 . S
C461 O445 1.235 . S
Fe462 O464 1.918 . S
Fe462 O467 1.997 . S
Fe462 O468 2.002 . S
Fe462 O473 1.976 . S
Fe462 O476 1.996 . S
Fe463 O464 1.918 . S
Fe463 O471 1.997 . S
Fe463 O474 1.996 . S
Fe463 O478 1.976 . S
Fe463 O481 2.002 . S
O464 Fe462 1.918 . S
O464 Fe463 1.918 . S
O464 Fe465 1.918 . S
Fe465 O464 1.918 . S
Fe465 O466 2.002 . S
Fe465 O475 1.976 . S
Fe465 O479 1.996 . S
Fe465 O482 1.997 . S
O466 Fe465 2.002 . S
O466 C483 1.295 . S
O467 Fe462 1.997 . S
O467 C483 1.235 . S
O468 Fe462 2.002 . S
O468 C469 1.295 1_556 S
C469 O468 1.295 1_554 S
C469 O471 1.235 1_554 S
C470 O475 1.287 . S
C470 O476 1.255 . S
O471 Fe463 1.997 . S
O471 C469 1.235 1_556 S
C472 O478 1.287 . S
C472 O479 1.255 . S
O473 Fe462 1.976 . S
O473 C480 1.287 . S
O474 Fe463 1.996 . S
O474 C480 1.255 . S
O475 Fe465 1.976 . S
O475 C470 1.287 . S
O476 Fe462 1.996 . S
O476 C470 1.255 . S
C477 O481 1.295 . S
C477 O482 1.235 . S
O478 Fe463 1.976 . S
O478 C472 1.287 . S
O479 Fe465 1.996 . S
O479 C472 1.255 . S
C480 O473 1.287 . S
C480 O474 1.255 . S
O481 Fe463 2.002 . S
O481 C477 1.295 . S
O482 Fe465 1.997 . S
O482 C477 1.235 . S
C483 O466 1.295 . S
C483 O467 1.235 . S
Fe484 O486 1.918 . S
Fe484 O489 1.997 . S
Fe484 O490 2.002 . S
Fe484 O495 1.976 . S
Fe484 O498 1.996 . S
Fe485 O486 1.918 . S
Fe485 O493 1.997 . S
Fe485 O496 1.996 . S
Fe485 O500 1.976 . S
Fe485 O503 2.002 . S
O486 Fe484 1.918 . S
O486 Fe485 1.918 . S
O486 Fe487 1.918 . S
Fe487 O486 1.918 . S
Fe487 O488 2.002 . S
Fe487 O497 1.976 . S
Fe487 O501 1.996 . S
Fe487 O504 1.997 . S
O488 Fe487 2.002 . S
O488 C505 1.295 . S
O489 Fe484 1.997 . S
O489 C505 1.235 . S
O490 Fe484 2.002 . S
O490 C491 1.295 1_556 S
C491 O490 1.295 1_554 S
C491 O493 1.235 1_554 S
C492 O497 1.287 . S
C492 O498 1.255 . S
O493 Fe485 1.997 . S
O493 C491 1.235 1_556 S
C494 O500 1.287 . S
C494 O501 1.255 . S
O495 Fe484 1.976 . S
O495 C502 1.287 . S
O496 Fe485 1.996 . S
O496 C502 1.255 . S
O497 Fe487 1.976 . S
O497 C492 1.287 . S
O498 Fe484 1.996 . S
O498 C492 1.255 . S
C499 O503 1.295 . S
C499 O504 1.235 . S
O500 Fe485 1.976 . S
O500 C494 1.287 . S
O501 Fe487 1.996 . S
O501 C494 1.255 . S
C502 O495 1.287 . S
C502 O496 1.255 . S
O503 Fe485 2.002 . S
O503 C499 1.295 . S
O504 Fe487 1.997 . S
O504 C499 1.235 . S
C505 O488 1.295 . S
C505 O489 1.235 . S
Fe506 O508 1.918 . S
Fe506 O511 1.997 . S
Fe506 O512 2.002 . S
Fe506 O517 1.976 . S
Fe506 O520 1.996 . S
Fe507 O508 1.918 . S
Fe507 O515 1.997 . S
Fe507 O518 1.996 . S
Fe507 O522 1.976 . S
Fe507 O525 2.002 . S
O508 Fe506 1.918 . S
O508 Fe507 1.918 . S
O508 Fe509 1.918 . S
Fe509 O508 1.918 . S
Fe509 O510 2.002 . S
Fe509 O519 1.976 . S
Fe509 O523 1.996 . S
Fe509 O526 1.997 . S
O510 Fe509 2.002 . S
O510 C527 1.295 . S
O511 Fe506 1.997 . S
O511 C527 1.235 . S
O512 Fe506 2.002 . S
O512 C513 1.295 1_556 S
C513 O512 1.295 1_554 S
C513 O515 1.235 1_554 S
C514 O519 1.287 . S
C514 O520 1.255 . S
O515 Fe507 1.997 . S
O515 C513 1.235 1_556 S
C516 O522 1.287 . S
C516 O523 1.255 . S
O517 Fe506 1.976 . S
O517 C524 1.287 . S
O518 Fe507 1.996 . S
O518 C524 1.255 . S
O519 Fe509 1.976 . S
O519 C514 1.287 . S
O520 Fe506 1.996 . S
O520 C514 1.255 . S
C521 O525 1.295 . S
C521 O526 1.235 . S
O522 Fe507 1.976 . S
O522 C516 1.287 . S
O523 Fe509 1.996 . S
O523 C516 1.255 . S
C524 O517 1.287 . S
C524 O518 1.255 . S
O525 Fe507 2.002 . S
O525 C521 1.295 . S
O526 Fe509 1.997 . S
O526 C521 1.235 . S
C527 O510 1.295 . S
C527 O511 1.235 . S
Fe528 O530 1.918 . S
Fe528 O533 1.997 . S
Fe528 O534 2.002 . S
Fe528 O539 1.976 . S
Fe528 O542 1.996 . S
Fe529 O530 1.918 . S
Fe529 O537 1.997 . S
Fe529 O540 1.996 . S
Fe529 O544 1.976 . S
Fe529 O547 2.002 . S
O530 Fe528 1.918 . S
O530 Fe529 1.918 . S
O530 Fe531 1.918 . S
Fe531 O530 1.918 . S
Fe531 O532 2.002 . S
Fe531 O541 1.976 . S
Fe531 O545 1.996 . S
Fe531 O548 1.997 . S
O532 Fe531 2.002 . S
O532 C549 1.295 . S
O533 Fe528 1.997 . S
O533 C549 1.235 . S
O534 Fe528 2.002 . S
O534 C535 1.295 . S
C535 O534 1.295 . S
C535 O537 1.235 . S
C536 O541 1.287 . S
C536 O542 1.255 . S
O537 Fe529 1.997 . S
O537 C535 1.235 . S
C538 O544 1.287 . S
C538 O545 1.255 . S
O539 Fe528 1.976 . S
O539 C546 1.287 . S
O540 Fe529 1.996 . S
O540 C546 1.255 . S
O541 Fe531 1.976 . S
O541 C536 1.287 . S
O542 Fe528 1.996 . S
O542 C536 1.255 . S
C543 O547 1.295 . S
C543 O548 1.235 . S
O544 Fe529 1.976 . S
O544 C538 1.287 . S
O545 Fe531 1.996 . S
O545 C538 1.255 . S
C546 O539 1.287 . S
C546 O540 1.255 . S
O547 Fe529 2.002 . S
O547 C543 1.295 . S
O548 Fe531 1.997 . S
O548 C543 1.235 . S
C549 O532 1.295 . S
C549 O533 1.235 . S
Fe550 O552 1.918 . S
Fe550 O555 1.997 . S
Fe550 O556 2.002 . S
Fe550 O561 1.976 . S
Fe550 O564 1.996 . S
Fe551 O552 1.918 . S
Fe551 O559 1.997 . S
Fe551 O562 1.996 . S
Fe551 O566 1.976 . S
Fe551 O569 2.002 . S
O552 Fe550 1.918 . S
O552 Fe551 1.918 . S
O552 Fe553 1.918 . S
Fe553 O552 1.918 . S
Fe553 O554 2.002 . S
Fe553 O563 1.976 . S
Fe553 O567 1.996 . S
Fe553 O570 1.997 . S
O554 Fe553 2.002 . S
O554 C571 1.295 . S
O555 Fe550 1.997 . S
O555 C571 1.235 . S
O556 Fe550 2.002 . S
O556 C557 1.295 . S
C557 O556 1.295 . S
C557 O559 1.235 . S
C558 O563 1.287 . S
C558 O564 1.255 . S
O559 Fe551 1.997 . S
O559 C557 1.235 . S
C560 O566 1.287 . S
C560 O567 1.255 . S
O561 Fe550 1.976 . S
O561 C568 1.287 . S
O562 Fe551 1.996 . S
O562 C568 1.255 . S
O563 Fe553 1.976 . S
O563 C558 1.287 . S
O564 Fe550 1.996 . S
O564 C558 1.255 . S
C565 O569 1.295 . S
C565 O570 1.235 . S
O566 Fe551 1.976 . S
O566 C560 1.287 . S
O567 Fe553 1.996 . S
O567 C560 1.255 . S
C568 O561 1.287 . S
C568 O562 1.255 . S
O569 Fe551 2.002 . S
O569 C565 1.295 . S
O570 Fe553 1.997 . S
O570 C565 1.235 . S
C571 O554 1.295 . S
C571 O555 1.235 . S
Fe572 O574 1.918 . S
Fe572 O577 1.997 . S
Fe572 O578 2.002 . S
Fe572 O583 1.976 . S
Fe572 O586 1.996 . S
Fe573 O574 1.918 . S
Fe573 O581 1.997 . S
Fe573 O584 1.996 . S
Fe573 O588 1.976 . S
Fe573 O591 2.002 . S
O574 Fe572 1.918 . S
O574 Fe573 1.918 . S
O574 Fe575 1.918 . S
Fe575 O574 1.918 . S
Fe575 O576 2.002 . S
Fe575 O585 1.976 . S
Fe575 O589 1.996 . S
Fe575 O592 1.997 . S
O576 Fe575 2.002 . S
O576 C593 1.295 . S
O577 Fe572 1.997 . S
O577 C593 1.235 . S
O578 Fe572 2.002 . S
O578 C579 1.295 . S
C579 O578 1.295 . S
C579 O581 1.235 . S
C580 O585 1.287 . S
C580 O586 1.255 . S
O581 Fe573 1.997 . S
O581 C579 1.235 . S
C582 O588 1.287 . S
C582 O589 1.255 . S
O583 Fe572 1.976 . S
O583 C590 1.287 . S
O584 Fe573 1.996 . S
O584 C590 1.255 . S
O585 Fe575 1.976 . S
O585 C580 1.287 . S
O586 Fe572 1.996 . S
O586 C580 1.255 . S
C587 O591 1.295 . S
C587 O592 1.235 . S
O588 Fe573 1.976 . S
O588 C582 1.287 . S
O589 Fe575 1.996 . S
O589 C582 1.255 . S
C590 O583 1.287 . S
C590 O584 1.255 . S
O591 Fe573 2.002 . S
O591 C587 1.295 . S
O592 Fe575 1.997 . S
O592 C587 1.235 . S
C593 O576 1.295 . S
C593 O577 1.235 . S
Fe594 O596 1.918 . S
Fe594 O599 1.997 . S
Fe594 O600 2.002 . S
Fe594 O605 1.976 . S
Fe594 O608 1.996 . S
Fe595 O596 1.918 . S
Fe595 O603 1.997 . S
Fe595 O606 1.996 . S
Fe595 O610 1.976 . S
Fe595 O613 2.002 . S
O596 Fe594 1.918 . S
O596 Fe595 1.918 . S
O596 Fe597 1.918 . S
Fe597 O596 1.918 . S
Fe597 O598 2.002 . S
Fe597 O607 1.976 . S
Fe597 O611 1.996 . S
Fe597 O614 1.997 . S
O598 Fe597 2.002 . S
O598 C615 1.295 1_554 S
O599 Fe594 1.997 . S
O599 C615 1.235 1_554 S
O600 Fe594 2.002 . S
O600 C601 1.295 . S
C601 O600 1.295 . S
C601 O603 1.235 . S
C602 O607 1.287 . S
C602 O608 1.255 . S
O603 Fe595 1.997 . S
O603 C601 1.235 . S
C604 O610 1.287 . S
C604 O611 1.255 . S
O605 Fe594 1.976 . S
O605 C612 1.287 . S
O606 Fe595 1.996 . S
O606 C612 1.255 . S
O607 Fe597 1.976 . S
O607 C602 1.287 . S
O608 Fe594 1.996 . S
O608 C602 1.255 . S
C609 O613 1.295 . S
C609 O614 1.235 . S
O610 Fe595 1.976 . S
O610 C604 1.287 . S
O611 Fe597 1.996 . S
O611 C604 1.255 . S
C612 O605 1.287 . S
C612 O606 1.255 . S
O613 Fe595 2.002 . S
O613 C609 1.295 . S
O614 Fe597 1.997 . S
O614 C609 1.235 . S
C615 O598 1.295 1_556 S
C615 O599 1.235 1_556 S
Fe616 O618 1.918 . S
Fe616 O621 1.997 . S
Fe616 O622 2.002 . S
Fe616 O627 1.976 . S
Fe616 O630 1.996 . S
Fe617 O618 1.918 . S
Fe617 O625 1.997 . S
Fe617 O628 1.996 . S
Fe617 O632 1.976 . S
Fe617 O635 2.002 . S
O618 Fe616 1.918 . S
O618 Fe617 1.918 . S
O618 Fe619 1.918 . S
Fe619 O618 1.918 . S
Fe619 O620 2.002 . S
Fe619 O629 1.976 . S
Fe619 O633 1.996 . S
Fe619 O636 1.997 . S
O620 Fe619 2.002 . S
O620 C637 1.295 . S
O621 Fe616 1.997 . S
O621 C637 1.235 . S
O622 Fe616 2.002 . S
O622 C623 1.295 1_554 S
C623 O622 1.295 1_556 S
C623 O625 1.235 1_556 S
C624 O629 1.287 . S
C624 O630 1.255 . S
O625 Fe617 1.997 . S
O625 C623 1.235 1_554 S
C626 O632 1.287 . S
C626 O633 1.255 . S
O627 Fe616 1.976 . S
O627 C634 1.287 . S
O628 Fe617 1.996 . S
O628 C634 1.255 . S
O629 Fe619 1.976 . S
O629 C624 1.287 . S
O630 Fe616 1.996 . S
O630 C624 1.255 . S
C631 O635 1.295 . S
C631 O636 1.235 . S
O632 Fe617 1.976 . S
O632 C626 1.287 . S
O633 Fe619 1.996 . S
O633 C626 1.255 . S
C634 O627 1.287 . S
C634 O628 1.255 . S
O635 Fe617 2.002 . S
O635 C631 1.295 . S
O636 Fe619 1.997 . S
O636 C631 1.235 . S
C637 O620 1.295 . S
C637 O621 1.235 . S
Fe638 O640 1.918 . S
Fe638 O643 1.997 . S
Fe638 O644 2.002 . S
Fe638 O649 1.976 . S
Fe638 O652 1.996 . S
Fe639 O640 1.918 . S
Fe639 O647 1.997 . S
Fe639 O650 1.996 . S
Fe639 O654 1.976 . S
Fe639 O657 2.002 . S
O640 Fe638 1.918 . S
O640 Fe639 1.918 . S
O640 Fe641 1.918 . S
Fe641 O640 1.918 . S
Fe641 O642 2.002 . S
Fe641 O651 1.976 . S
Fe641 O655 1.996 . S
Fe641 O658 1.997 . S
O642 Fe641 2.002 . S
O642 C659 1.295 . S
O643 Fe638 1.997 . S
O643 C659 1.235 . S
O644 Fe638 2.002 . S
O644 C645 1.295 1_554 S
C645 O644 1.295 1_556 S
C645 O647 1.235 1_556 S
C646 O651 1.287 . S
C646 O652 1.255 . S
O647 Fe639 1.997 . S
O647 C645 1.235 1_554 S
C648 O654 1.287 . S
C648 O655 1.255 . S
O649 Fe638 1.976 . S
O649 C656 1.287 . S
O650 Fe639 1.996 . S
O650 C656 1.255 . S
O651 Fe641 1.976 . S
O651 C646 1.287 . S
O652 Fe638 1.996 . S
O652 C646 1.255 . S
C653 O657 1.295 . S
C653 O658 1.235 . S
O654 Fe639 1.976 . S
O654 C648 1.287 . S
O655 Fe641 1.996 . S
O655 C648 1.255 . S
C656 O649 1.287 . S
C656 O650 1.255 . S
O657 Fe639 2.002 . S
O657 C653 1.295 . S
O658 Fe641 1.997 . S
O658 C653 1.235 . S
C659 O642 1.295 . S
C659 O643 1.235 . S
Fe660 O662 1.918 . S
Fe660 O665 1.997 . S
Fe660 O666 2.002 . S
Fe660 O671 1.976 . S
Fe660 O674 1.996 . S
Fe661 O662 1.918 . S
Fe661 O669 1.997 . S
Fe661 O672 1.996 . S
Fe661 O676 1.976 . S
Fe661 O679 2.002 . S
O662 Fe660 1.918 . S
O662 Fe661 1.918 . S
O662 Fe663 1.918 . S
Fe663 O662 1.918 . S
Fe663 O664 2.002 . S
Fe663 O673 1.976 . S
Fe663 O677 1.996 . S
Fe663 O680 1.997 . S
O664 Fe663 2.002 . S
O664 C681 1.295 . S
O665 Fe660 1.997 . S
O665 C681 1.235 . S
O666 Fe660 2.002 . S
O666 C667 1.295 . S
C667 O666 1.295 . S
C667 O669 1.235 . S
C668 O673 1.287 . S
C668 O674 1.255 . S
O669 Fe661 1.997 . S
O669 C667 1.235 . S
C670 O676 1.287 . S
C670 O677 1.255 . S
O671 Fe660 1.976 . S
O671 C678 1.287 . S
O672 Fe661 1.996 . S
O672 C678 1.255 . S
O673 Fe663 1.976 . S
O673 C668 1.287 . S
O674 Fe660 1.996 . S
O674 C668 1.255 . S
C675 O679 1.295 . S
C675 O680 1.235 . S
O676 Fe661 1.976 . S
O676 C670 1.287 . S
O677 Fe663 1.996 . S
O677 C670 1.255 . S
C678 O671 1.287 . S
C678 O672 1.255 . S
O679 Fe661 2.002 . S
O679 C675 1.295 . S
O680 Fe663 1.997 . S
O680 C675 1.235 . S
C681 O664 1.295 . S
C681 O665 1.235 . S
Fe682 O684 1.918 . S
Fe682 O687 1.997 . S
Fe682 O688 2.002 . S
Fe682 O693 1.976 . S
Fe682 O696 1.996 . S
Fe683 O684 1.918 . S
Fe683 O691 1.997 . S
Fe683 O694 1.996 . S
Fe683 O698 1.976 . S
Fe683 O701 2.002 . S
O684 Fe682 1.918 . S
O684 Fe683 1.918 . S
O684 Fe685 1.918 . S
Fe685 O684 1.918 . S
Fe685 O686 2.002 . S
Fe685 O695 1.976 . S
Fe685 O699 1.996 . S
Fe685 O702 1.997 . S
O686 Fe685 2.002 . S
O686 C703 1.295 . S
O687 Fe682 1.997 . S
O687 C703 1.235 . S
O688 Fe682 2.002 . S
O688 C689 1.295 . S
C689 O688 1.295 . S
C689 O691 1.235 . S
C690 O695 1.287 . S
C690 O696 1.255 . S
O691 Fe683 1.997 . S
O691 C689 1.235 . S
C692 O698 1.287 . S
C692 O699 1.255 . S
O693 Fe682 1.976 . S
O693 C700 1.287 . S
O694 Fe683 1.996 . S
O694 C700 1.255 . S
O695 Fe685 1.976 . S
O695 C690 1.287 . S
O696 Fe682 1.996 . S
O696 C690 1.255 . S
C697 O701 1.295 . S
C697 O702 1.235 . S
O698 Fe683 1.976 . S
O698 C692 1.287 . S
O699 Fe685 1.996 . S
O699 C692 1.255 . S
C700 O693 1.287 . S
C700 O694 1.255 . S
O701 Fe683 2.002 . S
O701 C697 1.295 . S
O702 Fe685 1.997 . S
O702 C697 1.235 . S
C703 O686 1.295 . S
C703 O687 1.235 . S
Fe704 O706 1.918 . S
Fe704 O709 1.997 . S
Fe704 O710 2.002 . S
Fe704 O715 1.976 . S
Fe704 O718 1.996 . S
Fe705 O706 1.918 . S
Fe705 O713 1.997 . S
Fe705 O716 1.996 . S
Fe705 O720 1.976 . S
Fe705 O723 2.002 . S
O706 Fe704 1.918 . S
O706 Fe705 1.918 . S
O706 Fe707 1.918 . S
Fe707 O706 1.918 . S
Fe707 O708 2.002 . S
Fe707 O717 1.976 . S
Fe707 O721 1.996 . S
Fe707 O724 1.997 . S
O708 Fe707 2.002 . S
O708 C725 1.295 . S
O709 Fe704 1.997 . S
O709 C725 1.235 . S
O710 Fe704 2.002 . S
O710 C711 1.295 . S
C711 O710 1.295 . S
C711 O713 1.235 . S
C712 O717 1.287 . S
C712 O718 1.255 . S
O713 Fe705 1.997 . S
O713 C711 1.235 . S
C714 O720 1.287 . S
C714 O721 1.255 . S
O715 Fe704 1.976 . S
O715 C722 1.287 . S
O716 Fe705 1.996 . S
O716 C722 1.255 . S
O717 Fe707 1.976 . S
O717 C712 1.287 . S
O718 Fe704 1.996 . S
O718 C712 1.255 . S
C719 O723 1.295 . S
C719 O724 1.235 . S
O720 Fe705 1.976 . S
O720 C714 1.287 . S
O721 Fe707 1.996 . S
O721 C714 1.255 . S
C722 O715 1.287 . S
C722 O716 1.255 . S
O723 Fe705 2.002 . S
O723 C719 1.295 . S
O724 Fe707 1.997 . S
O724 C719 1.235 . S
C725 O708 1.295 . S
C725 O709 1.235 . S
Fe726 O728 1.918 . S
Fe726 O731 1.997 . S
Fe726 O732 2.002 . S
Fe726 O737 1.976 . S
Fe726 O740 1.996 . S
Fe727 O728 1.918 . S
Fe727 O735 1.997 . S
Fe727 O738 1.996 . S
Fe727 O742 1.976 . S
Fe727 O745 2.002 . S
O728 Fe726 1.918 . S
O728 Fe727 1.918 . S
O728 Fe729 1.918 . S
Fe729 O728 1.918 . S
Fe729 O730 2.002 . S
Fe729 O739 1.976 . S
Fe729 O743 1.996 . S
Fe729 O746 1.997 . S
O730 Fe729 2.002 . S
O730 C747 1.295 . S
O731 Fe726 1.997 . S
O731 C747 1.235 . S
O732 Fe726 2.002 . S
O732 C733 1.295 . S
C733 O732 1.295 . S
C733 O735 1.235 . S
C734 O739 1.287 . S
C734 O740 1.255 . S
O735 Fe727 1.997 . S
O735 C733 1.235 . S
C736 O742 1.287 . S
C736 O743 1.255 . S
O737 Fe726 1.976 . S
O737 C744 1.287 . S
O738 Fe727 1.996 . S
O738 C744 1.255 . S
O739 Fe729 1.976 . S
O739 C734 1.287 . S
O740 Fe726 1.996 . S
O740 C734 1.255 . S
C741 O745 1.295 . S
C741 O746 1.235 . S
O742 Fe727 1.976 . S
O742 C736 1.287 . S
O743 Fe729 1.996 . S
O743 C736 1.255 . S
C744 O737 1.287 . S
C744 O738 1.255 . S
O745 Fe727 2.002 . S
O745 C741 1.295 . S
O746 Fe729 1.997 . S
O746 C741 1.235 . S
C747 O730 1.295 . S
C747 O731 1.235 . S
Fe748 O750 1.918 . S
Fe748 O753 1.997 . S
Fe748 O754 2.002 . S
Fe748 O759 1.976 . S
Fe748 O762 1.996 . S
Fe749 O750 1.918 . S
Fe749 O757 1.997 . S
Fe749 O760 1.996 . S
Fe749 O764 1.976 . S
Fe749 O767 2.002 . S
O750 Fe748 1.918 . S
O750 Fe749 1.918 . S
O750 Fe751 1.918 . S
Fe751 O750 1.918 . S
Fe751 O752 2.002 . S
Fe751 O761 1.976 . S
Fe751 O765 1.996 . S
Fe751 O768 1.997 . S
O752 Fe751 2.002 . S
O752 C769 1.295 . S
O753 Fe748 1.997 . S
O753 C769 1.235 . S
O754 Fe748 2.002 . S
O754 C755 1.295 . S
C755 O754 1.295 . S
C755 O757 1.235 . S
C756 O761 1.287 . S
C756 O762 1.255 . S
O757 Fe749 1.997 . S
O757 C755 1.235 . S
C758 O764 1.287 . S
C758 O765 1.255 . S
O759 Fe748 1.976 . S
O759 C766 1.287 . S
O760 Fe749 1.996 . S
O760 C766 1.255 . S
O761 Fe751 1.976 . S
O761 C756 1.287 . S
O762 Fe748 1.996 . S
O762 C756 1.255 . S
C763 O767 1.295 . S
C763 O768 1.235 . S
O764 Fe749 1.976 . S
O764 C758 1.287 . S
O765 Fe751 1.996 . S
O765 C758 1.255 . S
C766 O759 1.287 . S
C766 O760 1.255 . S
O767 Fe749 2.002 . S
O767 C763 1.295 . S
O768 Fe751 1.997 . S
O768 C763 1.235 . S
C769 O752 1.295 . S
C769 O753 1.235 . S
Fe770 O772 1.918 . S
Fe770 O775 1.997 . S
Fe770 O776 2.002 . S
Fe770 O781 1.976 . S
Fe770 O784 1.996 . S
Fe771 O772 1.918 . S
Fe771 O779 1.997 . S
Fe771 O782 1.996 . S
Fe771 O786 1.976 . S
Fe771 O789 2.002 . S
O772 Fe770 1.918 . S
O772 Fe771 1.918 . S
O772 Fe773 1.918 . S
Fe773 O772 1.918 . S
Fe773 O774 2.002 . S
Fe773 O783 1.976 . S
Fe773 O787 1.996 . S
Fe773 O790 1.997 . S
O774 Fe773 2.002 . S
O774 C791 1.295 . S
O775 Fe770 1.997 . S
O775 C791 1.235 . S
O776 Fe770 2.002 . S
O776 C777 1.295 . S
C777 O776 1.295 . S
C777 O779 1.235 . S
C778 O783 1.287 . S
C778 O784 1.255 . S
O779 Fe771 1.997 . S
O779 C777 1.235 . S
C780 O786 1.287 . S
C780 O787 1.255 . S
O781 Fe770 1.976 . S
O781 C788 1.287 . S
O782 Fe771 1.996 . S
O782 C788 1.255 . S
O783 Fe773 1.976 . S
O783 C778 1.287 . S
O784 Fe770 1.996 . S
O784 C778 1.255 . S
C785 O789 1.295 . S
C785 O790 1.235 . S
O786 Fe771 1.976 . S
O786 C780 1.287 . S
O787 Fe773 1.996 . S
O787 C780 1.255 . S
C788 O781 1.287 . S
C788 O782 1.255 . S
O789 Fe771 2.002 . S
O789 C785 1.295 . S
O790 Fe773 1.997 . S
O790 C785 1.235 . S
C791 O774 1.295 . S
C791 O775 1.235 . S
H792 C798 0.930 . S
H793 C801 0.930 . S
H794 C802 0.930 . S
H795 C803 0.930 . S
H796 C806 0.930 . S
H797 C807 0.930 . S
C798 H792 0.930 . S
C798 C799 1.355 . S
C798 C800 1.415 1_554 S
C799 C798 1.355 . S
C799 C801 1.419 . S
C800 C798 1.415 1_556 S
C800 C805 1.425 1_556 S
C800 C807 1.409 . S
C801 H793 0.930 . S
C801 C799 1.419 . S
C801 C802 1.362 . S
C802 H794 0.930 . S
C802 C801 1.362 . S
C802 C805 1.409 . S
C803 H795 0.930 . S
C803 C804 1.355 . S
C803 C805 1.415 1_556 S
C804 C803 1.355 . S
C804 C806 1.419 . S
C805 C800 1.425 1_554 S
C805 C802 1.409 . S
C805 C803 1.415 1_554 S
C806 H796 0.930 . S
C806 C804 1.419 . S
C806 C807 1.362 . S
C807 H797 0.930 . S
C807 C800 1.409 . S
C807 C806 1.362 . S
H808 C814 0.930 . S
H809 C817 0.930 . S
H810 C818 0.930 . S
H811 C819 0.930 . S
H812 C822 0.930 . S
H813 C823 0.930 . S
C814 H808 0.930 . S
C814 C815 1.355 . S
C814 C816 1.415 . S
C815 C814 1.355 . S
C815 C817 1.419 . S
C816 C814 1.415 . S
C816 C821 1.425 1_554 S
C816 C823 1.409 . S
C817 H809 0.930 . S
C817 C815 1.419 . S
C817 C818 1.362 1_554 S
C818 H810 0.930 . S
C818 C817 1.362 1_556 S
C818 C821 1.409 . S
C819 H811 0.930 . S
C819 C820 1.355 . S
C819 C821 1.415 . S
C820 C819 1.355 . S
C820 C822 1.419 . S
C821 C816 1.425 1_556 S
C821 C818 1.409 . S
C821 C819 1.415 . S
C822 H812 0.930 . S
C822 C820 1.419 . S
C822 C823 1.362 1_556 S
C823 H813 0.930 . S
C823 C816 1.409 . S
C823 C822 1.362 1_554 S
H824 C830 0.930 . S
H825 C833 0.930 . S
H826 C834 0.930 . S
H827 C835 0.930 . S
H828 C838 0.930 . S
H829 C839 0.930 . S
C830 H824 0.930 . S
C830 C831 1.355 . S
C830 C832 1.415 1_554 S
C831 C830 1.355 . S
C831 C833 1.419 . S
C832 C830 1.415 1_556 S
C832 C837 1.425 1_556 S
C832 C839 1.409 . S
C833 H825 0.930 . S
C833 C831 1.419 . S
C833 C834 1.362 . S
C834 H826 0.930 . S
C834 C833 1.362 . S
C834 C837 1.409 . S
C835 H827 0.930 . S
C835 C836 1.355 . S
C835 C837 1.415 1_556 S
C836 C835 1.355 . S
C836 C838 1.419 . S
C837 C832 1.425 1_554 S
C837 C834 1.409 . S
C837 C835 1.415 1_554 S
C838 H828 0.930 . S
C838 C836 1.419 . S
C838 C839 1.362 . S
C839 H829 0.930 . S
C839 C832 1.409 . S
C839 C838 1.362 . S
H840 C846 0.930 . S
H841 C849 0.930 . S
H842 C850 0.930 . S
H843 C851 0.930 . S
H844 C854 0.930 . S
H845 C855 0.930 . S
C846 H840 0.930 . S
C846 C847 1.355 . S
C846 C848 1.415 . S
C847 C846 1.355 . S
C847 C849 1.419 . S
C848 C846 1.415 . S
C848 C853 1.425 . S
C848 C855 1.409 . S
C849 H841 0.930 . S
C849 C847 1.419 . S
C849 C850 1.362 . S
C850 H842 0.930 . S
C850 C849 1.362 . S
C850 C853 1.409 . S
C851 H843 0.930 . S
C851 C852 1.355 . S
C851 C853 1.415 . S
C852 C851 1.355 . S
C852 C854 1.419 . S
C853 C848 1.425 . S
C853 C850 1.409 . S
C853 C851 1.415 . S
C854 H844 0.930 . S
C854 C852 1.419 . S
C854 C855 1.362 . S
C855 H845 0.930 . S
C855 C848 1.409 . S
C855 C854 1.362 . S
H856 C862 0.930 . S
H857 C865 0.930 . S
H858 C866 0.930 . S
H859 C867 0.930 . S
H860 C870 0.930 . S
H861 C871 0.930 . S
C862 H856 0.930 . S
C862 C863 1.355 . S
C862 C864 1.415 . S
C863 C862 1.355 . S
C863 C865 1.419 . S
C864 C862 1.415 . S
C864 C869 1.425 . S
C864 C871 1.409 . S
C865 H857 0.930 . S
C865 C863 1.419 . S
C865 C866 1.362 . S
C866 H858 0.930 . S
C866 C865 1.362 . S
C866 C869 1.409 . S
C867 H859 0.930 . S
C867 C868 1.355 . S
C867 C869 1.415 . S
C868 C867 1.355 . S
C868 C870 1.419 . S
C869 C864 1.425 . S
C869 C866 1.409 . S
C869 C867 1.415 . S
C870 H860 0.930 . S
C870 C868 1.419 . S
C870 C871 1.362 . S
C871 H861 0.930 . S
C871 C864 1.409 . S
C871 C870 1.362 . S
H872 C878 0.930 . S
H873 C881 0.930 . S
H874 C882 0.930 . S
H875 C883 0.930 . S
H876 C886 0.930 . S
H877 C887 0.930 . S
C878 H872 0.930 . S
C878 C879 1.355 . S
C878 C880 1.415 . S
C879 C878 1.355 . S
C879 C881 1.419 . S
C880 C878 1.415 . S
C880 C885 1.425 . S
C880 C887 1.409 . S
C881 H873 0.930 . S
C881 C879 1.419 . S
C881 C882 1.362 . S
C882 H874 0.930 . S
C882 C881 1.362 . S
C882 C885 1.409 . S
C883 H875 0.930 . S
C883 C884 1.355 . S
C883 C885 1.415 . S
C884 C883 1.355 . S
C884 C886 1.419 . S
C885 C880 1.425 . S
C885 C882 1.409 . S
C885 C883 1.415 . S
C886 H876 0.930 . S
C886 C884 1.419 . S
C886 C887 1.362 . S
C887 H877 0.930 . S
C887 C880 1.409 . S
C887 C886 1.362 . S
H888 C894 0.930 . S
H889 C897 0.930 . S
H890 C898 0.930 . S
H891 C899 0.930 . S
H892 C902 0.930 . S
H893 C903 0.930 . S
C894 H888 0.930 . S
C894 C895 1.355 . S
C894 C896 1.415 . S
C895 C894 1.355 . S
C895 C897 1.419 . S
C896 C894 1.415 . S
C896 C901 1.425 1_554 S
C896 C903 1.409 . S
C897 H889 0.930 . S
C897 C895 1.419 . S
C897 C898 1.362 1_554 S
C898 H890 0.930 . S
C898 C897 1.362 1_556 S
C898 C901 1.409 . S
C899 H891 0.930 . S
C899 C900 1.355 . S
C899 C901 1.415 . S
C900 C899 1.355 . S
C900 C902 1.419 . S
C901 C896 1.425 1_556 S
C901 C898 1.409 . S
C901 C899 1.415 . S
C902 H892 0.930 . S
C902 C900 1.419 . S
C902 C903 1.362 1_556 S
C903 H893 0.930 . S
C903 C896 1.409 . S
C903 C902 1.362 1_554 S
H904 C910 0.930 . S
H905 C913 0.930 . S
H906 C914 0.935 . S
H907 C915 0.930 . S
H908 C918 0.930 . S
H909 C919 0.943 . S
C910 H904 0.930 . S
C910 C911 1.355 . S
C910 C912 1.415 . S
C911 C910 1.355 . S
C911 C913 1.419 . S
C912 C910 1.415 . S
C912 C917 1.425 1_556 S
C912 C919 1.416 . S
C913 H905 0.930 . S
C913 C911 1.419 . S
C913 C914 1.355 1_556 S
C914 H906 0.935 . S
C914 C913 1.355 1_554 S
C914 C917 1.411 . S
C915 H907 0.930 . S
C915 C916 1.355 . S
C915 C917 1.415 . S
C916 C915 1.355 . S
C916 C918 1.419 . S
C917 C912 1.425 1_554 S
C917 C914 1.411 . S
C917 C915 1.415 . S
C918 H908 0.930 . S
C918 C916 1.419 . S
C918 C919 1.343 1_554 S
C919 H909 0.943 . S
C919 C912 1.416 . S
C919 C918 1.343 1_556 S
H920 C926 0.930 . S
H921 C929 0.930 . S
H922 C930 0.930 . S
H923 C931 0.930 . S
H924 C934 0.930 . S
H925 C935 0.930 . S
C926 H920 0.930 . S
C926 C927 1.355 . S
C926 C928 1.415 . S
C927 C926 1.355 . S
C927 C929 1.419 . S
C928 C926 1.415 . S
C928 C933 1.425 1_556 S
C928 C935 1.409 . S
C929 H921 0.930 . S
C929 C927 1.419 . S
C929 C930 1.362 1_556 S
C930 H922 0.930 . S
C930 C929 1.362 1_554 S
C930 C933 1.409 . S
C931 H923 0.930 . S
C931 C932 1.355 . S
C931 C933 1.415 . S
C932 C931 1.355 . S
C932 C934 1.419 . S
C933 C928 1.425 1_554 S
C933 C930 1.409 . S
C933 C931 1.415 . S
C934 H924 0.930 . S
C934 C932 1.419 . S
C934 C935 1.362 1_554 S
C935 H925 0.930 . S
C935 C928 1.409 . S
C935 C934 1.362 1_556 S
H936 C942 0.930 . S
H937 C945 0.930 . S
H938 C946 0.930 . S
H939 C947 0.930 . S
H940 C950 0.930 . S
H941 C951 0.930 . S
C942 H936 0.930 . S
C942 C943 1.355 . S
C942 C944 1.415 . S
C943 C942 1.355 . S
C943 C945 1.419 . S
C944 C942 1.415 . S
C944 C949 1.425 . S
C944 C951 1.409 . S
C945 H937 0.930 . S
C945 C943 1.419 . S
C945 C946 1.362 . S
C946 H938 0.930 . S
C946 C945 1.362 . S
C946 C949 1.409 . S
C947 H939 0.930 . S
C947 C948 1.355 . S
C947 C949 1.415 . S
C948 C947 1.355 . S
C948 C950 1.419 . S
C949 C944 1.425 . S
C949 C946 1.409 . S
C949 C947 1.415 . S
C950 H940 0.930 . S
C950 C948 1.419 . S
C950 C951 1.362 . S
C951 H941 0.930 . S
C951 C944 1.409 . S
C951 C950 1.362 . S
H952 C958 0.930 . S
H953 C961 0.930 . S
H954 C962 0.930 . S
H955 C963 0.930 . S
H956 C966 0.930 . S
H957 C967 0.930 . S
C958 H952 0.930 . S
C958 C959 1.355 . S
C958 C960 1.415 . S
C959 C958 1.355 . S
C959 C961 1.419 . S
C960 C958 1.415 . S
C960 C965 1.425 . S
C960 C967 1.409 . S
C961 H953 0.930 . S
C961 C959 1.419 . S
C961 C962 1.362 . S
C962 H954 0.930 . S
C962 C961 1.362 . S
C962 C965 1.409 . S
C963 H955 0.930 . S
C963 C964 1.355 . S
C963 C965 1.415 . S
C964 C963 1.355 . S
C964 C966 1.419 . S
C965 C960 1.425 . S
C965 C962 1.409 . S
C965 C963 1.415 . S
C966 H956 0.930 . S
C966 C964 1.419 . S
C966 C967 1.362 . S
C967 H957 0.930 . S
C967 C960 1.409 . S
C967 C966 1.362 . S
H968 C974 0.930 . S
H969 C977 0.930 . S
H970 C978 0.930 . S
H971 C979 0.930 . S
H972 C982 0.930 . S
H973 C983 0.930 . S
C974 H968 0.930 . S
C974 C975 1.355 . S
C974 C976 1.415 . S
C975 C974 1.355 . S
C975 C977 1.419 . S
C976 C974 1.415 . S
C976 C981 1.425 . S
C976 C983 1.409 . S
C977 H969 0.930 . S
C977 C975 1.419 . S
C977 C978 1.362 . S
C978 H970 0.930 . S
C978 C977 1.362 . S
C978 C981 1.409 . S
C979 H971 0.930 . S
C979 C980 1.355 . S
C979 C981 1.415 . S
C980 C979 1.355 . S
C980 C982 1.419 . S
C981 C976 1.425 . S
C981 C978 1.409 . S
C981 C979 1.415 . S
C982 H972 0.930 . S
C982 C980 1.419 . S
C982 C983 1.362 . S
C983 H973 0.930 . S
C983 C976 1.409 . S
C983 C982 1.362 . S
H984 C990 0.930 . S
H985 C993 0.930 . S
H986 C994 0.930 . S
H987 C995 0.930 . S
H988 C998 0.930 . S
H989 C999 0.930 . S
C990 H984 0.930 . S
C990 C991 1.355 . S
C990 C992 1.415 . S
C991 C990 1.355 . S
C991 C993 1.419 . S
C992 C990 1.415 . S
C992 C997 1.425 . S
C992 C999 1.409 . S
C993 H985 0.930 . S
C993 C991 1.419 . S
C993 C994 1.362 . S
C994 H986 0.930 . S
C994 C993 1.362 . S
C994 C997 1.409 . S
C995 H987 0.930 . S
C995 C996 1.355 . S
C995 C997 1.415 . S
C996 C995 1.355 . S
C996 C998 1.419 . S
C997 C992 1.425 . S
C997 C994 1.409 . S
C997 C995 1.415 . S
C998 H988 0.930 . S
C998 C996 1.419 . S
C998 C999 1.362 . S
C999 H989 0.930 . S
C999 C992 1.409 . S
C999 C998 1.362 . S
H1000 C1006 0.930 . S
H1001 C1009 0.930 . S
H1002 C1010 0.930 . S
H1003 C1011 0.930 . S
H1004 C1014 0.930 . S
H1005 C1015 0.930 . S
C1006 H1000 0.930 . S
C1006 C1007 1.355 . S
C1006 C1008 1.415 . S
C1007 C1006 1.355 . S
C1007 C1009 1.419 . S
C1008 C1006 1.415 . S
C1008 C1013 1.425 . S
C1008 C1015 1.409 . S
C1009 H1001 0.930 . S
C1009 C1007 1.419 . S
C1009 C1010 1.362 . S
C1010 H1002 0.930 . S
C1010 C1009 1.362 . S
C1010 C1013 1.409 . S
C1011 H1003 0.930 . S
C1011 C1012 1.355 . S
C1011 C1013 1.415 . S
C1012 C1011 1.355 . S
C1012 C1014 1.419 . S
C1013 C1008 1.425 . S
C1013 C1010 1.409 . S
C1013 C1011 1.415 . S
C1014 H1004 0.930 . S
C1014 C1012 1.419 . S
C1014 C1015 1.362 . S
C1015 H1005 0.930 . S
C1015 C1008 1.409 . S
C1015 C1014 1.362 . S
H1016 C1022 0.930 . S
H1017 C1025 0.930 . S
H1018 C1026 0.930 . S
H1019 C1027 0.930 . S
H1020 C1030 0.930 . S
H1021 C1031 0.930 . S
C1022 H1016 0.930 . S
C1022 C1023 1.355 . S
C1022 C1024 1.415 . S
C1023 C1022 1.355 . S
C1023 C1025 1.419 . S
C1024 C1022 1.415 . S
C1024 C1029 1.425 . S
C1024 C1031 1.409 . S
C1025 H1017 0.930 . S
C1025 C1023 1.419 . S
C1025 C1026 1.362 . S
C1026 H1018 0.930 . S
C1026 C1025 1.362 . S
C1026 C1029 1.409 . S
C1027 H1019 0.930 . S
C1027 C1028 1.355 . S
C1027 C1029 1.415 . S
C1028 C1027 1.355 . S
C1028 C1030 1.419 . S
C1029 C1024 1.425 . S
C1029 C1026 1.409 . S
C1029 C1027 1.415 . S
C1030 H1020 0.930 . S
C1030 C1028 1.419 . S
C1030 C1031 1.362 . S
C1031 H1021 0.930 . S
C1031 C1024 1.409 . S
C1031 C1030 1.362 . S
H1032 C1038 0.930 . S
H1033 C1041 0.930 . S
H1034 C1042 0.930 . S
H1035 C1043 0.930 . S
H1036 C1046 0.930 . S
H1037 C1047 0.930 . S
C1038 H1032 0.930 . S
C1038 C1039 1.355 . S
C1038 C1040 1.415 . S
C1039 C1038 1.355 . S
C1039 C1041 1.419 . S
C1040 C1038 1.415 . S
C1040 C1045 1.425 . S
C1040 C1047 1.409 . S
C1041 H1033 0.930 . S
C1041 C1039 1.419 . S
C1041 C1042 1.362 . S
C1042 H1034 0.930 . S
C1042 C1041 1.362 . S
C1042 C1045 1.409 . S
C1043 H1035 0.930 . S
C1043 C1044 1.355 . S
C1043 C1045 1.415 . S
C1044 C1043 1.355 . S
C1044 C1046 1.419 . S
C1045 C1040 1.425 . S
C1045 C1042 1.409 . S
C1045 C1043 1.415 . S
C1046 H1036 0.930 . S
C1046 C1044 1.419 . S
C1046 C1047 1.362 . S
C1047 H1037 0.930 . S
C1047 C1040 1.409 . S
C1047 C1046 1.362 . S
H1048 C1054 0.930 . S
H1049 C1057 0.930 . S
H1050 C1058 0.930 . S
H1051 C1059 0.930 . S
H1052 C1062 0.930 . S
H1053 C1063 0.930 . S
C1054 H1048 0.930 . S
C1054 C1055 1.355 . S
C1054 C1056 1.415 . S
C1055 C1054 1.355 . S
C1055 C1057 1.419 . S
C1056 C1054 1.415 . S
C1056 C1061 1.425 . S
C1056 C1063 1.409 . S
C1057 H1049 0.930 . S
C1057 C1055 1.419 . S
C1057 C1058 1.362 . S
C1058 H1050 0.930 . S
C1058 C1057 1.362 . S
C1058 C1061 1.409 . S
C1059 H1051 0.930 . S
C1059 C1060 1.355 . S
C1059 C1061 1.415 . S
C1060 C1059 1.355 . S
C1060 C1062 1.419 . S
C1061 C1056 1.425 . S
C1061 C1058 1.409 . S
C1061 C1059 1.415 . S
C1062 H1052 0.930 . S
C1062 C1060 1.419 . S
C1062 C1063 1.362 . S
C1063 H1053 0.930 . S
C1063 C1056 1.409 . S
C1063 C1062 1.362 . S
H1064 C1070 0.930 . S
H1065 C1073 0.930 . S
H1066 C1074 0.930 . S
H1067 C1075 0.930 . S
H1068 C1078 0.930 . S
H1069 C1079 0.930 . S
C1070 H1064 0.930 . S
C1070 C1071 1.355 . S
C1070 C1072 1.415 . S
C1071 C1070 1.355 . S
C1071 C1073 1.419 . S
C1072 C1070 1.415 . S
C1072 C1077 1.425 . S
C1072 C1079 1.409 . S
C1073 H1065 0.930 . S
C1073 C1071 1.419 . S
C1073 C1074 1.362 . S
C1074 H1066 0.930 . S
C1074 C1073 1.362 . S
C1074 C1077 1.409 . S
C1075 H1067 0.930 . S
C1075 C1076 1.355 . S
C1075 C1077 1.415 . S
C1076 C1075 1.355 . S
C1076 C1078 1.419 . S
C1077 C1072 1.425 . S
C1077 C1074 1.409 . S
C1077 C1075 1.415 . S
C1078 H1068 0.930 . S
C1078 C1076 1.419 . S
C1078 C1079 1.362 . S
C1079 H1069 0.930 . S
C1079 C1072 1.409 . S
C1079 C1078 1.362 . S
H1080 C1086 0.930 . S
H1081 C1089 0.930 . S
H1082 C1090 0.930 . S
H1083 C1091 0.930 . S
H1084 C1094 0.930 . S
H1085 C1095 0.930 . S
C1086 H1080 0.930 . S
C1086 C1087 1.355 . S
C1086 C1088 1.415 . S
C1087 C1086 1.355 . S
C1087 C1089 1.419 . S
C1088 C1086 1.415 . S
C1088 C1093 1.425 . S
C1088 C1095 1.409 . S
C1089 H1081 0.930 . S
C1089 C1087 1.419 . S
C1089 C1090 1.362 . S
C1090 H1082 0.930 . S
C1090 C1089 1.362 . S
C1090 C1093 1.409 . S
C1091 H1083 0.930 . S
C1091 C1092 1.355 . S
C1091 C1093 1.415 . S
C1092 C1091 1.355 . S
C1092 C1094 1.419 . S
C1093 C1088 1.425 . S
C1093 C1090 1.409 . S
C1093 C1091 1.415 . S
C1094 H1084 0.930 . S
C1094 C1092 1.419 . S
C1094 C1095 1.362 . S
C1095 H1085 0.930 . S
C1095 C1088 1.409 . S
C1095 C1094 1.362 . S
H1096 C1102 0.930 . S
H1097 C1105 0.930 . S
H1098 C1106 0.930 . S
H1099 C1107 0.930 . S
H1100 C1110 0.930 . S
H1101 C1111 0.930 . S
C1102 H1096 0.930 . S
C1102 C1103 1.355 . S
C1102 C1104 1.415 . S
C1103 C1102 1.355 . S
C1103 C1105 1.419 . S
C1104 C1102 1.415 . S
C1104 C1109 1.425 . S
C1104 C1111 1.409 . S
C1105 H1097 0.930 . S
C1105 C1103 1.419 . S
C1105 C1106 1.362 . S
C1106 H1098 0.930 . S
C1106 C1105 1.362 . S
C1106 C1109 1.409 . S
C1107 H1099 0.930 . S
C1107 C1108 1.355 . S
C1107 C1109 1.415 . S
C1108 C1107 1.355 . S
C1108 C1110 1.419 . S
C1109 C1104 1.425 . S
C1109 C1106 1.409 . S
C1109 C1107 1.415 . S
C1110 H1100 0.930 . S
C1110 C1108 1.419 . S
C1110 C1111 1.362 . S
C1111 H1101 0.930 . S
C1111 C1104 1.409 . S
C1111 C1110 1.362 . S
H1112 C1118 0.930 . S
H1113 C1121 0.930 . S
H1114 C1122 0.930 . S
H1115 C1123 0.930 . S
H1116 C1126 0.930 . S
H1117 C1127 0.930 . S
C1118 H1112 0.930 . S
C1118 C1119 1.355 . S
C1118 C1120 1.415 . S
C1119 C1118 1.355 . S
C1119 C1121 1.419 . S
C1120 C1118 1.415 . S
C1120 C1125 1.425 . S
C1120 C1127 1.409 . S
C1121 H1113 0.930 . S
C1121 C1119 1.419 . S
C1121 C1122 1.362 . S
C1122 H1114 0.930 . S
C1122 C1121 1.362 . S
C1122 C1125 1.409 . S
C1123 H1115 0.930 . S
C1123 C1124 1.355 . S
C1123 C1125 1.415 . S
C1124 C1123 1.355 . S
C1124 C1126 1.419 . S
C1125 C1120 1.425 . S
C1125 C1122 1.409 . S
C1125 C1123 1.415 . S
C1126 H1116 0.930 . S
C1126 C1124 1.419 . S
C1126 C1127 1.362 . S
C1127 H1117 0.930 . S
C1127 C1120 1.409 . S
C1127 C1126 1.362 . S
H1128 C1134 0.930 . S
H1129 C1137 0.930 . S
H1130 C1138 0.930 . S
H1131 C1139 0.930 . S
H1132 C1142 0.930 . S
H1133 C1143 0.930 . S
C1134 H1128 0.930 . S
C1134 C1135 1.355 . S
C1134 C1136 1.415 . S
C1135 C1134 1.355 . S
C1135 C1137 1.419 . S
C1136 C1134 1.415 . S
C1136 C1141 1.425 . S
C1136 C1143 1.409 . S
C1137 H1129 0.930 . S
C1137 C1135 1.419 . S
C1137 C1138 1.362 . S
C1138 H1130 0.930 . S
C1138 C1137 1.362 . S
C1138 C1141 1.409 . S
C1139 H1131 0.930 . S
C1139 C1140 1.355 . S
C1139 C1141 1.415 . S
C1140 C1139 1.355 . S
C1140 C1142 1.419 . S
C1141 C1136 1.425 . S
C1141 C1138 1.409 . S
C1141 C1139 1.415 . S
C1142 H1132 0.930 . S
C1142 C1140 1.419 . S
C1142 C1143 1.362 . S
C1143 H1133 0.930 . S
C1143 C1136 1.409 . S
C1143 C1142 1.362 . S
H1144 C1150 0.930 . S
H1145 C1153 0.930 . S
H1146 C1154 0.930 . S
H1147 C1155 0.930 . S
H1148 C1158 0.930 . S
H1149 C1159 0.930 . S
C1150 H1144 0.930 . S
C1150 C1151 1.355 . S
C1150 C1152 1.415 . S
C1151 C1150 1.355 . S
C1151 C1153 1.419 . S
C1152 C1150 1.415 . S
C1152 C1157 1.425 . S
C1152 C1159 1.409 . S
C1153 H1145 0.930 . S
C1153 C1151 1.419 . S
C1153 C1154 1.362 . S
C1154 H1146 0.930 . S
C1154 C1153 1.362 . S
C1154 C1157 1.409 . S
C1155 H1147 0.930 . S
C1155 C1156 1.355 . S
C1155 C1157 1.415 . S
C1156 C1155 1.355 . S
C1156 C1158 1.419 . S
C1157 C1152 1.425 . S
C1157 C1154 1.409 . S
C1157 C1155 1.415 . S
C1158 H1148 0.930 . S
C1158 C1156 1.419 . S
C1158 C1159 1.362 . S
C1159 H1149 0.930 . S
C1159 C1152 1.409 . S
C1159 C1158 1.362 . S
H1160 C1166 0.930 . S
H1161 C1169 0.930 . S
H1162 C1170 0.930 . S
H1163 C1171 0.930 . S
H1164 C1174 0.930 . S
H1165 C1175 0.930 . S
C1166 H1160 0.930 . S
C1166 C1167 1.355 . S
C1166 C1168 1.415 . S
C1167 C1166 1.355 . S
C1167 C1169 1.419 . S
C1168 C1166 1.415 . S
C1168 C1173 1.425 . S
C1168 C1175 1.409 . S
C1169 H1161 0.930 . S
C1169 C1167 1.419 . S
C1169 C1170 1.362 . S
C1170 H1162 0.930 . S
C1170 C1169 1.362 . S
C1170 C1173 1.409 . S
C1171 H1163 0.930 . S
C1171 C1172 1.355 . S
C1171 C1173 1.415 . S
C1172 C1171 1.355 . S
C1172 C1174 1.419 . S
C1173 C1168 1.425 . S
C1173 C1170 1.409 . S
C1173 C1171 1.415 . S
C1174 H1164 0.930 . S
C1174 C1172 1.419 . S
C1174 C1175 1.362 . S
C1175 H1165 0.930 . S
C1175 C1168 1.409 . S
C1175 C1174 1.362 . S
H1176 C1182 0.930 . S
H1177 C1185 0.930 . S
H1178 C1186 0.930 . S
H1179 C1187 0.930 . S
H1180 C1190 0.930 . S
H1181 C1191 0.930 . S
C1182 H1176 0.930 . S
C1182 C1183 1.355 . S
C1182 C1184 1.415 . S
C1183 C1182 1.355 . S
C1183 C1185 1.419 . S
C1184 C1182 1.415 . S
C1184 C1189 1.425 . S
C1184 C1191 1.409 . S
C1185 H1177 0.930 . S
C1185 C1183 1.419 . S
C1185 C1186 1.362 . S
C1186 H1178 0.930 . S
C1186 C1185 1.362 . S
C1186 C1189 1.409 . S
C1187 H1179 0.930 . S
C1187 C1188 1.355 . S
C1187 C1189 1.415 . S
C1188 C1187 1.355 . S
C1188 C1190 1.419 . S
C1189 C1184 1.425 . S
C1189 C1186 1.409 . S
C1189 C1187 1.415 . S
C1190 H1180 0.930 . S
C1190 C1188 1.419 . S
C1190 C1191 1.362 . S
C1191 H1181 0.930 . S
C1191 C1184 1.409 . S
C1191 C1190 1.362 . S
H1192 C1198 0.930 . S
H1193 C1201 0.930 . S
H1194 C1202 0.930 . S
H1195 C1203 0.930 . S
H1196 C1206 0.930 . S
H1197 C1207 0.930 . S
C1198 H1192 0.930 . S
C1198 C1199 1.355 . S
C1198 C1200 1.415 . S
C1199 C1198 1.355 . S
C1199 C1201 1.419 . S
C1200 C1198 1.415 . S
C1200 C1205 1.425 . S
C1200 C1207 1.409 . S
C1201 H1193 0.930 . S
C1201 C1199 1.419 . S
C1201 C1202 1.362 . S
C1202 H1194 0.930 . S
C1202 C1201 1.362 . S
C1202 C1205 1.409 . S
C1203 H1195 0.930 . S
C1203 C1204 1.355 . S
C1203 C1205 1.415 . S
C1204 C1203 1.355 . S
C1204 C1206 1.419 . S
C1205 C1200 1.425 . S
C1205 C1202 1.409 . S
C1205 C1203 1.415 . S
C1206 H1196 0.930 . S
C1206 C1204 1.419 . S
C1206 C1207 1.362 . S
C1207 H1197 0.930 . S
C1207 C1200 1.409 . S
C1207 C1206 1.362 . S
H1208 C1214 0.930 . S
H1209 C1217 0.930 . S
H1210 C1218 0.930 . S
H1211 C1219 0.930 . S
H1212 C1222 0.930 . S
H1213 C1223 0.930 . S
C1214 H1208 0.930 . S
C1214 C1215 1.355 . S
C1214 C1216 1.415 . S
C1215 C1214 1.355 . S
C1215 C1217 1.419 . S
C1216 C1214 1.415 . S
C1216 C1221 1.425 . S
C1216 C1223 1.409 . S
C1217 H1209 0.930 . S
C1217 C1215 1.419 . S
C1217 C1218 1.362 . S
C1218 H1210 0.930 . S
C1218 C1217 1.362 . S
C1218 C1221 1.409 . S
C1219 H1211 0.930 . S
C1219 C1220 1.355 . S
C1219 C1221 1.415 . S
C1220 C1219 1.355 . S
C1220 C1222 1.419 . S
C1221 C1216 1.425 . S
C1221 C1218 1.409 . S
C1221 C1219 1.415 . S
C1222 H1212 0.930 . S
C1222 C1220 1.419 . S
C1222 C1223 1.362 . S
C1223 H1213 0.930 . S
C1223 C1216 1.409 . S
C1223 C1222 1.362 . S
H1224 C1230 0.930 . S
H1225 C1233 0.930 . S
H1226 C1234 0.930 . S
H1227 C1235 0.930 . S
H1228 C1238 0.930 . S
H1229 C1239 0.930 . S
C1230 H1224 0.930 . S
C1230 C1231 1.355 . S
C1230 C1232 1.415 . S
C1231 C1230 1.355 . S
C1231 C1233 1.419 . S
C1232 C1230 1.415 . S
C1232 C1237 1.425 . S
C1232 C1239 1.409 . S
C1233 H1225 0.930 . S
C1233 C1231 1.419 . S
C1233 C1234 1.362 . S
C1234 H1226 0.930 . S
C1234 C1233 1.362 . S
C1234 C1237 1.409 . S
C1235 H1227 0.930 . S
C1235 C1236 1.355 . S
C1235 C1237 1.415 . S
C1236 C1235 1.355 . S
C1236 C1238 1.419 . S
C1237 C1232 1.425 . S
C1237 C1234 1.409 . S
C1237 C1235 1.415 . S
C1238 H1228 0.930 . S
C1238 C1236 1.419 . S
C1238 C1239 1.362 . S
C1239 H1229 0.930 . S
C1239 C1232 1.409 . S
C1239 C1238 1.362 . S
H1240 C1246 0.930 . S
H1241 C1249 0.930 . S
H1242 C1250 0.930 . S
H1243 C1251 0.930 . S
H1244 C1254 0.930 . S
H1245 C1255 0.930 . S
C1246 H1240 0.930 . S
C1246 C1247 1.355 . S
C1246 C1248 1.415 . S
C1247 C1246 1.355 . S
C1247 C1249 1.419 . S
C1248 C1246 1.415 . S
C1248 C1253 1.425 . S
C1248 C1255 1.409 . S
C1249 H1241 0.930 . S
C1249 C1247 1.419 . S
C1249 C1250 1.362 . S
C1250 H1242 0.930 . S
C1250 C1249 1.362 . S
C1250 C1253 1.409 . S
C1251 H1243 0.930 . S
C1251 C1252 1.355 . S
C1251 C1253 1.415 . S
C1252 C1251 1.355 . S
C1252 C1254 1.419 . S
C1253 C1248 1.425 . S
C1253 C1250 1.409 . S
C1253 C1251 1.415 . S
C1254 H1244 0.930 . S
C1254 C1252 1.419 . S
C1254 C1255 1.362 . S
C1255 H1245 0.930 . S
C1255 C1248 1.409 . S
C1255 C1254 1.362 . S
H1256 C1262 0.930 . S
H1257 C1265 0.930 . S
H1258 C1266 0.930 . S
H1259 C1267 0.930 . S
H1260 C1270 0.930 . S
H1261 C1271 0.930 . S
C1262 H1256 0.930 . S
C1262 C1263 1.355 . S
C1262 C1264 1.415 . S
C1263 C1262 1.355 . S
C1263 C1265 1.419 . S
C1264 C1262 1.415 . S
C1264 C1269 1.425 . S
C1264 C1271 1.409 . S
C1265 H1257 0.930 . S
C1265 C1263 1.419 . S
C1265 C1266 1.362 . S
C1266 H1258 0.930 . S
C1266 C1265 1.362 . S
C1266 C1269 1.409 . S
C1267 H1259 0.930 . S
C1267 C1268 1.355 . S
C1267 C1269 1.415 . S
C1268 C1267 1.355 . S
C1268 C1270 1.419 . S
C1269 C1264 1.425 . S
C1269 C1266 1.409 . S
C1269 C1267 1.415 . S
C1270 H1260 0.930 . S
C1270 C1268 1.419 . S
C1270 C1271 1.362 . S
C1271 H1261 0.930 . S
C1271 C1264 1.409 . S
C1271 C1270 1.362 . S
H1272 C1278 0.930 . S
H1273 C1281 0.930 . S
H1274 C1282 0.930 . S
H1275 C1283 0.930 . S
H1276 C1286 0.930 . S
H1277 C1287 0.930 . S
C1278 H1272 0.930 . S
C1278 C1279 1.355 . S
C1278 C1280 1.415 . S
C1279 C1278 1.355 . S
C1279 C1281 1.419 . S
C1280 C1278 1.415 . S
C1280 C1285 1.425 . S
C1280 C1287 1.409 . S
C1281 H1273 0.930 . S
C1281 C1279 1.419 . S
C1281 C1282 1.362 . S
C1282 H1274 0.930 . S
C1282 C1281 1.362 . S
C1282 C1285 1.409 . S
C1283 H1275 0.930 . S
C1283 C1284 1.355 . S
C1283 C1285 1.415 . S
C1284 C1283 1.355 . S
C1284 C1286 1.419 . S
C1285 C1280 1.425 . S
C1285 C1282 1.409 . S
C1285 C1283 1.415 . S
C1286 H1276 0.930 . S
C1286 C1284 1.419 . S
C1286 C1287 1.362 . S
C1287 H1277 0.930 . S
C1287 C1280 1.409 . S
C1287 C1286 1.362 . S
H1288 C1294 0.930 . S
H1289 C1297 0.930 . S
H1290 C1298 0.930 . S
H1291 C1299 0.930 . S
H1292 C1302 0.930 . S
H1293 C1303 0.930 . S
C1294 H1288 0.930 . S
C1294 C1295 1.355 . S
C1294 C1296 1.415 . S
C1295 C1294 1.355 . S
C1295 C1297 1.419 . S
C1296 C1294 1.415 . S
C1296 C1301 1.425 . S
C1296 C1303 1.409 . S
C1297 H1289 0.930 . S
C1297 C1295 1.419 . S
C1297 C1298 1.362 . S
C1298 H1290 0.930 . S
C1298 C1297 1.362 . S
C1298 C1301 1.409 . S
C1299 H1291 0.930 . S
C1299 C1300 1.355 . S
C1299 C1301 1.415 . S
C1300 C1299 1.355 . S
C1300 C1302 1.419 . S
C1301 C1296 1.425 . S
C1301 C1298 1.409 . S
C1301 C1299 1.415 . S
C1302 H1292 0.930 . S
C1302 C1300 1.419 . S
C1302 C1303 1.362 . S
C1303 H1293 0.930 . S
C1303 C1296 1.409 . S
C1303 C1302 1.362 . S
H1304 C1310 0.930 . S
H1305 C1313 0.930 . S
H1306 C1314 0.930 . S
H1307 C1315 0.930 . S
H1308 C1318 0.930 . S
H1309 C1319 0.930 . S
C1310 H1304 0.930 . S
C1310 C1311 1.355 . S
C1310 C1312 1.415 . S
C1311 C1310 1.355 . S
C1311 C1313 1.419 . S
C1312 C1310 1.415 . S
C1312 C1317 1.425 . S
C1312 C1319 1.409 . S
C1313 H1305 0.930 . S
C1313 C1311 1.419 . S
C1313 C1314 1.362 . S
C1314 H1306 0.930 . S
C1314 C1313 1.362 . S
C1314 C1317 1.409 . S
C1315 H1307 0.930 . S
C1315 C1316 1.355 . S
C1315 C1317 1.415 . S
C1316 C1315 1.355 . S
C1316 C1318 1.419 . S
C1317 C1312 1.425 . S
C1317 C1314 1.409 . S
C1317 C1315 1.415 . S
C1318 H1308 0.930 . S
C1318 C1316 1.419 . S
C1318 C1319 1.362 . S
C1319 H1309 0.930 . S
C1319 C1312 1.409 . S
C1319 C1318 1.362 . S
H1320 C1326 0.930 . S
H1321 C1329 0.930 . S
H1322 C1330 0.930 . S
H1323 C1331 0.930 . S
H1324 C1334 0.930 . S
H1325 C1335 0.930 . S
C1326 H1320 0.930 . S
C1326 C1327 1.355 . S
C1326 C1328 1.415 . S
C1327 C1326 1.355 . S
C1327 C1329 1.419 . S
C1328 C1326 1.415 . S
C1328 C1333 1.425 . S
C1328 C1335 1.409 . S
C1329 H1321 0.930 . S
C1329 C1327 1.419 . S
C1329 C1330 1.362 . S
C1330 H1322 0.930 . S
C1330 C1329 1.362 . S
C1330 C1333 1.409 . S
C1331 H1323 0.930 . S
C1331 C1332 1.355 . S
C1331 C1333 1.415 . S
C1332 C1331 1.355 . S
C1332 C1334 1.419 . S
C1333 C1328 1.425 . S
C1333 C1330 1.409 . S
C1333 C1331 1.415 . S
C1334 H1324 0.930 . S
C1334 C1332 1.419 . S
C1334 C1335 1.362 . S
C1335 H1325 0.930 . S
C1335 C1328 1.409 . S
C1335 C1334 1.362 . S
H1336 C1342 0.930 . S
H1337 C1345 0.930 . S
H1338 C1346 0.930 . S
H1339 C1347 0.930 . S
H1340 C1350 0.930 . S
H1341 C1351 0.930 . S
C1342 H1336 0.930 . S
C1342 C1343 1.355 . S
C1342 C1344 1.415 . S
C1343 C1342 1.355 . S
C1343 C1345 1.419 . S
C1344 C1342 1.415 . S
C1344 C1349 1.425 . S
C1344 C1351 1.409 . S
C1345 H1337 0.930 . S
C1345 C1343 1.419 . S
C1345 C1346 1.362 . S
C1346 H1338 0.930 . S
C1346 C1345 1.362 . S
C1346 C1349 1.409 . S
C1347 H1339 0.930 . S
C1347 C1348 1.355 . S
C1347 C1349 1.415 . S
C1348 C1347 1.355 . S
C1348 C1350 1.419 . S
C1349 C1344 1.425 . S
C1349 C1346 1.409 . S
C1349 C1347 1.415 . S
C1350 H1340 0.930 . S
C1350 C1348 1.419 . S
C1350 C1351 1.362 . S
C1351 H1341 0.930 . S
C1351 C1344 1.409 . S
C1351 C1350 1.362 . S
H1352 C1358 0.930 . S
H1353 C1361 0.930 . S
H1354 C1362 0.930 . S
H1355 C1363 0.930 . S
H1356 C1366 0.930 . S
H1357 C1367 0.930 . S
C1358 H1352 0.930 . S
C1358 C1359 1.355 . S
C1358 C1360 1.415 . S
C1359 C1358 1.355 . S
C1359 C1361 1.419 . S
C1360 C1358 1.415 . S
C1360 C1365 1.425 . S
C1360 C1367 1.409 . S
C1361 H1353 0.930 . S
C1361 C1359 1.419 . S
C1361 C1362 1.362 . S
C1362 H1354 0.930 . S
C1362 C1361 1.362 . S
C1362 C1365 1.409 . S
C1363 H1355 0.930 . S
C1363 C1364 1.355 . S
C1363 C1365 1.415 . S
C1364 C1363 1.355 . S
C1364 C1366 1.419 . S
C1365 C1360 1.425 . S
C1365 C1362 1.409 . S
C1365 C1363 1.415 . S
C1366 H1356 0.930 . S
C1366 C1364 1.419 . S
C1366 C1367 1.362 . S
C1367 H1357 0.930 . S
C1367 C1360 1.409 . S
C1367 C1366 1.362 . S
H1368 C1374 0.930 . S
H1369 C1377 0.930 . S
H1370 C1378 0.930 . S
H1371 C1379 0.930 . S
H1372 C1382 0.930 . S
H1373 C1383 0.930 . S
C1374 H1368 0.930 . S
C1374 C1375 1.355 . S
C1374 C1376 1.415 . S
C1375 C1374 1.355 . S
C1375 C1377 1.419 . S
C1376 C1374 1.415 . S
C1376 C1381 1.425 . S
C1376 C1383 1.409 . S
C1377 H1369 0.930 . S
C1377 C1375 1.419 . S
C1377 C1378 1.362 . S
C1378 H1370 0.930 . S
C1378 C1377 1.362 . S
C1378 C1381 1.409 . S
C1379 H1371 0.930 . S
C1379 C1380 1.355 . S
C1379 C1381 1.415 . S
C1380 C1379 1.355 . S
C1380 C1382 1.419 . S
C1381 C1376 1.425 . S
C1381 C1378 1.409 . S
C1381 C1379 1.415 . S
C1382 H1372 0.930 . S
C1382 C1380 1.419 . S
C1382 C1383 1.362 . S
C1383 H1373 0.930 . S
C1383 C1376 1.409 . S
C1383 C1382 1.362 . S
H1384 C1390 0.930 . S
H1385 C1393 0.930 . S
H1386 C1394 0.918 1_545 S
H1387 C1395 0.930 . S
H1388 C1398 0.930 . S
H1389 C1399 0.930 . S
C1390 H1384 0.930 . S
C1390 C1391 1.355 . S
C1390 C1392 1.415 1_565 S
C1391 C1390 1.355 . S
C1391 C1393 1.419 . S
C1392 C1390 1.415 1_545 S
C1392 C1397 1.425 . S
C1392 C1399 1.409 . S
C1393 H1385 0.930 . S
C1393 C1391 1.419 . S
C1393 C1394 1.362 . S
C1394 H1386 0.918 1_565 S
C1394 C1393 1.362 . S
C1394 C1397 1.409 1_565 S
C1395 H1387 0.930 . S
C1395 C1396 1.355 . S
C1395 C1397 1.415 . S
C1396 C1395 1.355 . S
C1396 C1398 1.419 . S
C1397 C1392 1.425 . S
C1397 C1394 1.409 1_545 S
C1397 C1395 1.415 . S
C1398 H1388 0.930 . S
C1398 C1396 1.419 . S
C1398 C1399 1.362 . S
C1399 H1389 0.930 . S
C1399 C1392 1.409 . S
C1399 C1398 1.362 . S
H1400 C1406 0.930 . S
H1401 C1409 0.930 . S
H1402 C1410 0.930 . S
H1403 C1411 0.930 . S
H1404 C1414 0.930 . S
H1405 C1415 0.930 1_655 S
C1406 H1400 0.930 . S
C1406 C1407 1.355 . S
C1406 C1408 1.415 . S
C1407 C1406 1.355 . S
C1407 C1409 1.419 . S
C1408 C1406 1.415 . S
C1408 C1413 1.425 . S
C1408 C1415 1.409 1_655 S
C1409 H1401 0.930 . S
C1409 C1407 1.419 . S
C1409 C1410 1.362 . S
C1410 H1402 0.930 . S
C1410 C1409 1.362 . S
C1410 C1413 1.409 . S
C1411 H1403 0.930 . S
C1411 C1412 1.355 . S
C1411 C1413 1.415 1_455 S
C1412 C1411 1.355 . S
C1412 C1414 1.419 . S
C1413 C1408 1.425 . S
C1413 C1410 1.409 . S
C1413 C1411 1.415 1_655 S
C1414 H1404 0.930 . S
C1414 C1412 1.419 . S
C1414 C1415 1.362 . S
C1415 H1405 0.930 1_455 S
C1415 C1408 1.409 1_455 S
C1415 C1414 1.362 . S
H1416 C1422 0.930 . S
H1417 C1425 0.930 . S
H1418 C1426 0.930 . S
H1419 C1427 0.930 . S
H1420 C1430 0.930 . S
H1421 C1431 0.930 . S
C1422 H1416 0.930 . S
C1422 C1423 1.355 . S
C1422 C1424 1.415 . S
C1423 C1422 1.355 . S
C1423 C1425 1.419 . S
C1424 C1422 1.415 . S
C1424 C1429 1.425 . S
C1424 C1431 1.409 . S
C1425 H1417 0.930 . S
C1425 C1423 1.419 . S
C1425 C1426 1.362 . S
C1426 H1418 0.930 . S
C1426 C1425 1.362 . S
C1426 C1429 1.409 . S
C1427 H1419 0.930 . S
C1427 C1428 1.355 . S
C1427 C1429 1.415 . S
C1428 C1427 1.355 . S
C1428 C1430 1.419 . S
C1429 C1424 1.425 . S
C1429 C1426 1.409 . S
C1429 C1427 1.415 . S
C1430 H1420 0.930 . S
C1430 C1428 1.419 . S
C1430 C1431 1.362 . S
C1431 H1421 0.930 . S
C1431 C1424 1.409 . S
C1431 C1430 1.362 . S
H1432 C1438 0.930 . S
H1433 C1441 0.930 . S
H1434 C1442 0.930 . S
H1435 C1443 0.930 . S
H1436 C1446 0.930 . S
H1437 C1447 0.930 . S
C1438 H1432 0.930 . S
C1438 C1439 1.355 . S
C1438 C1440 1.415 1_545 S
C1439 C1438 1.355 . S
C1439 C1441 1.419 . S
C1440 C1438 1.415 1_565 S
C1440 C1445 1.425 . S
C1440 C1447 1.409 . S
C1441 H1433 0.930 . S
C1441 C1439 1.419 . S
C1441 C1442 1.362 . S
C1442 H1434 0.930 . S
C1442 C1441 1.362 . S
C1442 C1445 1.409 1_545 S
C1443 H1435 0.930 . S
C1443 C1444 1.355 . S
C1443 C1445 1.415 . S
C1444 C1443 1.355 . S
C1444 C1446 1.419 . S
C1445 C1440 1.425 . S
C1445 C1442 1.409 1_565 S
C1445 C1443 1.415 . S
C1446 H1436 0.930 . S
C1446 C1444 1.419 . S
C1446 C1447 1.362 . S
C1447 H1437 0.930 . S
C1447 C1440 1.409 . S
C1447 C1446 1.362 . S
H1448 C1454 0.930 . S
H1449 C1457 0.930 . S
H1450 C1458 0.930 . S
H1451 C1459 0.930 . S
H1452 C1462 0.930 . S
H1453 C1463 0.930 1_455 S
C1454 H1448 0.930 . S
C1454 C1455 1.355 . S
C1454 C1456 1.415 . S
C1455 C1454 1.355 . S
C1455 C1457 1.419 . S
C1456 C1454 1.415 . S
C1456 C1461 1.425 . S
C1456 C1463 1.409 1_455 S
C1457 H1449 0.930 . S
C1457 C1455 1.419 . S
C1457 C1458 1.362 . S
C1458 H1450 0.930 . S
C1458 C1457 1.362 . S
C1458 C1461 1.409 . S
C1459 H1451 0.930 . S
C1459 C1460 1.355 . S
C1459 C1461 1.415 1_655 S
C1460 C1459 1.355 . S
C1460 C1462 1.419 . S
C1461 C1456 1.425 . S
C1461 C1458 1.409 . S
C1461 C1459 1.415 1_455 S
C1462 H1452 0.930 . S
C1462 C1460 1.419 . S
C1462 C1463 1.362 . S
C1463 H1453 0.930 1_655 S
C1463 C1456 1.409 1_655 S
C1463 C1462 1.362 . S
H1464 C1470 0.930 . S
H1465 C1473 0.930 . S
H1466 C1474 0.930 . S
H1467 C1475 0.930 . S
H1468 C1478 0.930 . S
H1469 C1479 0.930 . S
C1470 H1464 0.930 . S
C1470 C1471 1.355 . S
C1470 C1472 1.415 . S
C1471 C1470 1.355 . S
C1471 C1473 1.419 . S
C1472 C1470 1.415 . S
C1472 C1477 1.425 . S
C1472 C1479 1.409 . S
C1473 H1465 0.930 . S
C1473 C1471 1.419 . S
C1473 C1474 1.362 . S
C1474 H1466 0.930 . S
C1474 C1473 1.362 . S
C1474 C1477 1.409 . S
C1475 H1467 0.930 . S
C1475 C1476 1.355 . S
C1475 C1477 1.415 . S
C1476 C1475 1.355 . S
C1476 C1478 1.419 . S
C1477 C1472 1.425 . S
C1477 C1474 1.409 . S
C1477 C1475 1.415 . S
C1478 H1468 0.930 . S
C1478 C1476 1.419 . S
C1478 C1479 1.362 . S
C1479 H1469 0.930 . S
C1479 C1472 1.409 . S
C1479 C1478 1.362 . S
H1480 C1486 0.930 . S
H1481 C1489 0.930 . S
H1482 C1490 0.930 1_565 S
H1483 C1491 0.930 . S
H1484 C1494 0.930 . S
H1485 C1495 0.930 . S
C1486 H1480 0.930 . S
C1486 C1487 1.355 . S
C1486 C1488 1.415 1_545 S
C1487 C1486 1.355 . S
C1487 C1489 1.419 . S
C1488 C1486 1.415 1_565 S
C1488 C1493 1.425 . S
C1488 C1495 1.409 . S
C1489 H1481 0.930 . S
C1489 C1487 1.419 . S
C1489 C1490 1.362 . S
C1490 H1482 0.930 1_545 S
C1490 C1489 1.362 . S
C1490 C1493 1.409 1_545 S
C1491 H1483 0.930 . S
C1491 C1492 1.355 . S
C1491 C1493 1.415 . S
C1492 C1491 1.355 . S
C1492 C1494 1.419 . S
C1493 C1488 1.425 . S
C1493 C1490 1.409 1_565 S
C1493 C1491 1.415 . S
C1494 H1484 0.930 . S
C1494 C1492 1.419 . S
C1494 C1495 1.362 . S
C1495 H1485 0.930 . S
C1495 C1488 1.409 . S
C1495 C1494 1.362 . S
H1496 C1502 0.930 . S
H1497 C1505 0.930 . S
H1498 C1506 0.930 1_455 S
H1499 C1507 0.930 . S
H1500 C1510 0.930 . S
H1501 C1511 0.930 . S
C1502 H1496 0.930 . S
C1502 C1503 1.355 . S
C1502 C1504 1.415 1_655 S
C1503 C1502 1.355 . S
C1503 C1505 1.419 . S
C1504 C1502 1.415 1_455 S
C1504 C1509 1.425 . S
C1504 C1511 1.409 . S
C1505 H1497 0.930 . S
C1505 C1503 1.419 . S
C1505 C1506 1.362 . S
C1506 H1498 0.930 1_655 S
C1506 C1505 1.362 . S
C1506 C1509 1.409 1_655 S
C1507 H1499 0.930 . S
C1507 C1508 1.355 . S
C1507 C1509 1.415 . S
C1508 C1507 1.355 . S
C1508 C1510 1.419 . S
C1509 C1504 1.425 . S
C1509 C1506 1.409 1_455 S
C1509 C1507 1.415 . S
C1510 H1500 0.930 . S
C1510 C1508 1.419 . S
C1510 C1511 1.362 . S
C1511 H1501 0.930 . S
C1511 C1504 1.409 . S
C1511 C1510 1.362 . S
H1512 C1518 0.930 . S
H1513 C1521 0.930 . S
H1514 C1522 0.930 . S
H1515 C1523 0.930 . S
H1516 C1526 0.930 . S
H1517 C1527 0.930 . S
C1518 H1512 0.930 . S
C1518 C1519 1.355 . S
C1518 C1520 1.415 . S
C1519 C1518 1.355 . S
C1519 C1521 1.419 . S
C1520 C1518 1.415 . S
C1520 C1525 1.425 . S
C1520 C1527 1.409 . S
C1521 H1513 0.930 . S
C1521 C1519 1.419 . S
C1521 C1522 1.362 . S
C1522 H1514 0.930 . S
C1522 C1521 1.362 . S
C1522 C1525 1.409 . S
C1523 H1515 0.930 . S
C1523 C1524 1.355 . S
C1523 C1525 1.415 . S
C1524 C1523 1.355 . S
C1524 C1526 1.419 . S
C1525 C1520 1.425 . S
C1525 C1522 1.409 . S
C1525 C1523 1.415 . S
C1526 H1516 0.930 . S
C1526 C1524 1.419 . S
C1526 C1527 1.362 . S
C1527 H1517 0.930 . S
C1527 C1520 1.409 . S
C1527 C1526 1.362 . S
H1528 C1534 0.930 . S
H1529 C1537 0.930 . S
H1530 C1538 0.930 . S
H1531 C1539 0.930 . S
H1532 C1542 0.930 . S
H1533 C1543 0.930 . S
C1534 H1528 0.930 . S
C1534 C1535 1.355 . S
C1534 C1536 1.415 1_565 S
C1535 C1534 1.355 . S
C1535 C1537 1.419 . S
C1536 C1534 1.415 1_545 S
C1536 C1541 1.425 . S
C1536 C1543 1.409 . S
C1537 H1529 0.930 . S
C1537 C1535 1.419 . S
C1537 C1538 1.362 . S
C1538 H1530 0.930 . S
C1538 C1537 1.362 . S
C1538 C1541 1.409 1_565 S
C1539 H1531 0.930 . S
C1539 C1540 1.355 . S
C1539 C1541 1.415 . S
C1540 C1539 1.355 . S
C1540 C1542 1.419 . S
C1541 C1536 1.425 . S
C1541 C1538 1.409 1_545 S
C1541 C1539 1.415 . S
C1542 H1532 0.930 . S
C1542 C1540 1.419 . S
C1542 C1543 1.362 . S
C1543 H1533 0.930 . S
C1543 C1536 1.409 . S
C1543 C1542 1.362 . S
H1544 C1550 0.930 . S
H1545 C1553 0.930 . S
H1546 C1554 0.930 . S
H1547 C1555 0.930 . S
H1548 C1558 0.930 . S
H1549 C1559 0.930 1_655 S
C1550 H1544 0.930 . S
C1550 C1551 1.355 . S
C1550 C1552 1.415 . S
C1551 C1550 1.355 . S
C1551 C1553 1.419 . S
C1552 C1550 1.415 . S
C1552 C1557 1.425 . S
C1552 C1559 1.409 1_655 S
C1553 H1545 0.930 . S
C1553 C1551 1.419 . S
C1553 C1554 1.362 . S
C1554 H1546 0.930 . S
C1554 C1553 1.362 . S
C1554 C1557 1.409 . S
C1555 H1547 0.930 . S
C1555 C1556 1.355 . S
C1555 C1557 1.415 1_455 S
C1556 C1555 1.355 . S
C1556 C1558 1.419 . S
C1557 C1552 1.425 . S
C1557 C1554 1.409 . S
C1557 C1555 1.415 1_655 S
C1558 H1548 0.930 . S
C1558 C1556 1.419 . S
C1558 C1559 1.362 . S
C1559 H1549 0.930 1_455 S
C1559 C1552 1.409 1_455 S
C1559 C1558 1.362 . S
H1560 C1566 0.930 . S
H1561 C1569 0.930 . S
H1562 C1570 0.930 . S
H1563 C1571 0.930 . S
H1564 C1574 0.930 . S
H1565 C1575 0.930 . S
C1566 H1560 0.930 . S
C1566 C1567 1.355 . S
C1566 C1568 1.415 . S
C1567 C1566 1.355 . S
C1567 C1569 1.419 . S
C1568 C1566 1.415 . S
C1568 C1573 1.425 . S
C1568 C1575 1.409 . S
C1569 H1561 0.930 . S
C1569 C1567 1.419 . S
C1569 C1570 1.362 . S
C1570 H1562 0.930 . S
C1570 C1569 1.362 . S
C1570 C1573 1.409 . S
C1571 H1563 0.930 . S
C1571 C1572 1.355 . S
C1571 C1573 1.415 . S
C1572 C1571 1.355 . S
C1572 C1574 1.419 . S
C1573 C1568 1.425 . S
C1573 C1570 1.409 . S
C1573 C1571 1.415 . S
C1574 H1564 0.930 . S
C1574 C1572 1.419 . S
C1574 C1575 1.362 . S
C1575 H1565 0.930 . S
C1575 C1568 1.409 . S
C1575 C1574 1.362 . S
H1576 C1582 0.930 . S
H1577 C1585 0.930 . S
H1578 C1586 0.930 . S
H1579 C1587 0.930 . S
H1580 C1590 0.930 . S
H1581 C1591 0.930 . S
C1582 H1576 0.930 . S
C1582 C1583 1.355 . S
C1582 C1584 1.415 . S
C1583 C1582 1.355 . S
C1583 C1585 1.419 . S
C1584 C1582 1.415 . S
C1584 C1589 1.425 . S
C1584 C1591 1.409 . S
C1585 H1577 0.930 . S
C1585 C1583 1.419 . S
C1585 C1586 1.362 . S
C1586 H1578 0.930 . S
C1586 C1585 1.362 . S
C1586 C1589 1.409 . S
C1587 H1579 0.930 . S
C1587 C1588 1.355 . S
C1587 C1589 1.415 . S
C1588 C1587 1.355 . S
C1588 C1590 1.419 . S
C1589 C1584 1.425 . S
C1589 C1586 1.409 . S
C1589 C1587 1.415 . S
C1590 H1580 0.930 . S
C1590 C1588 1.419 . S
C1590 C1591 1.362 . S
C1591 H1581 0.930 . S
C1591 C1584 1.409 . S
C1591 C1590 1.362 . S
H1592 C1598 0.930 . S
H1593 C1601 0.930 . S
H1594 C1602 0.930 . S
H1595 C1603 0.930 . S
H1596 C1606 0.930 . S
H1597 C1607 0.930 . S
C1598 H1592 0.930 . S
C1598 C1599 1.355 . S
C1598 C1600 1.415 . S
C1599 C1598 1.355 . S
C1599 C1601 1.419 . S
C1600 C1598 1.415 . S
C1600 C1605 1.425 . S
C1600 C1607 1.409 . S
C1601 H1593 0.930 . S
C1601 C1599 1.419 . S
C1601 C1602 1.362 . S
C1602 H1594 0.930 . S
C1602 C1601 1.362 . S
C1602 C1605 1.409 . S
C1603 H1595 0.930 . S
C1603 C1604 1.355 . S
C1603 C1605 1.415 . S
C1604 C1603 1.355 . S
C1604 C1606 1.419 . S
C1605 C1600 1.425 . S
C1605 C1602 1.409 . S
C1605 C1603 1.415 . S
C1606 H1596 0.930 . S
C1606 C1604 1.419 . S
C1606 C1607 1.362 . S
C1607 H1597 0.930 . S
C1607 C1600 1.409 . S
C1607 C1606 1.362 . S
H1608 C1614 0.930 . S
H1609 C1617 0.930 . S
H1610 C1618 0.930 . S
H1611 C1619 0.930 . S
H1612 C1622 0.930 . S
H1613 C1623 0.930 . S
C1614 H1608 0.930 . S
C1614 C1615 1.355 . S
C1614 C1616 1.415 . S
C1615 C1614 1.355 . S
C1615 C1617 1.419 . S
C1616 C1614 1.415 . S
C1616 C1621 1.425 . S
C1616 C1623 1.409 . S
C1617 H1609 0.930 . S
C1617 C1615 1.419 . S
C1617 C1618 1.362 . S
C1618 H1610 0.930 . S
C1618 C1617 1.362 . S
C1618 C1621 1.409 . S
C1619 H1611 0.930 . S
C1619 C1620 1.355 . S
C1619 C1621 1.415 . S
C1620 C1619 1.355 . S
C1620 C1622 1.419 . S
C1621 C1616 1.425 . S
C1621 C1618 1.409 . S
C1621 C1619 1.415 . S
C1622 H1612 0.930 . S
C1622 C1620 1.419 . S
C1622 C1623 1.362 . S
C1623 H1613 0.930 . S
C1623 C1616 1.409 . S
C1623 C1622 1.362 . S
H1624 C1630 0.930 . S
H1625 C1633 0.930 . S
H1626 C1634 0.930 . S
H1627 C1635 0.930 . S
H1628 C1638 0.930 . S
H1629 C1639 0.930 . S
C1630 H1624 0.930 . S
C1630 C1631 1.355 . S
C1630 C1632 1.415 . S
C1631 C1630 1.355 . S
C1631 C1633 1.419 . S
C1632 C1630 1.415 . S
C1632 C1637 1.425 . S
C1632 C1639 1.409 . S
C1633 H1625 0.930 . S
C1633 C1631 1.419 . S
C1633 C1634 1.362 . S
C1634 H1626 0.930 . S
C1634 C1633 1.362 . S
C1634 C1637 1.409 . S
C1635 H1627 0.930 . S
C1635 C1636 1.355 . S
C1635 C1637 1.415 . S
C1636 C1635 1.355 . S
C1636 C1638 1.419 . S
C1637 C1632 1.425 . S
C1637 C1634 1.409 . S
C1637 C1635 1.415 . S
C1638 H1628 0.930 . S
C1638 C1636 1.419 . S
C1638 C1639 1.362 . S
C1639 H1629 0.930 . S
C1639 C1632 1.409 . S
C1639 C1638 1.362 . S
H1640 C1646 0.930 . S
H1641 C1649 0.930 . S
H1642 C1650 0.930 . S
H1643 C1651 0.930 . S
H1644 C1654 0.930 . S
H1645 C1655 0.930 . S
C1646 H1640 0.930 . S
C1646 C1647 1.355 . S
C1646 C1648 1.415 . S
C1647 C1646 1.355 . S
C1647 C1649 1.419 . S
C1648 C1646 1.415 . S
C1648 C1653 1.425 . S
C1648 C1655 1.409 . S
C1649 H1641 0.930 . S
C1649 C1647 1.419 . S
C1649 C1650 1.362 . S
C1650 H1642 0.930 . S
C1650 C1649 1.362 . S
C1650 C1653 1.409 . S
C1651 H1643 0.930 . S
C1651 C1652 1.355 . S
C1651 C1653 1.415 . S
C1652 C1651 1.355 . S
C1652 C1654 1.419 . S
C1653 C1648 1.425 . S
C1653 C1650 1.409 . S
C1653 C1651 1.415 . S
C1654 H1644 0.930 . S
C1654 C1652 1.419 . S
C1654 C1655 1.362 . S
C1655 H1645 0.930 . S
C1655 C1648 1.409 . S
C1655 C1654 1.362 . S
H1656 C1662 0.930 . S
H1657 C1665 0.930 . S
H1658 C1666 0.930 . S
H1659 C1667 0.930 . S
H1660 C1670 0.930 . S
H1661 C1671 0.930 . S
C1662 H1656 0.930 . S
C1662 C1663 1.355 . S
C1662 C1664 1.415 . S
C1663 C1662 1.355 . S
C1663 C1665 1.419 . S
C1664 C1662 1.415 . S
C1664 C1669 1.425 . S
C1664 C1671 1.409 . S
C1665 H1657 0.930 . S
C1665 C1663 1.419 . S
C1665 C1666 1.362 . S
C1666 H1658 0.930 . S
C1666 C1665 1.362 . S
C1666 C1669 1.409 . S
C1667 H1659 0.930 . S
C1667 C1668 1.355 . S
C1667 C1669 1.415 . S
C1668 C1667 1.355 . S
C1668 C1670 1.419 . S
C1669 C1664 1.425 . S
C1669 C1666 1.409 . S
C1669 C1667 1.415 . S
C1670 H1660 0.930 . S
C1670 C1668 1.419 . S
C1670 C1671 1.362 . S
C1671 H1661 0.930 . S
C1671 C1664 1.409 . S
C1671 C1670 1.362 . S
H1672 C1678 0.930 . S
H1673 C1681 0.930 . S
H1674 C1682 0.930 . S
H1675 C1683 0.930 . S
H1676 C1686 0.930 . S
H1677 C1687 0.930 . S
C1678 H1672 0.930 . S
C1678 C1679 1.355 . S
C1678 C1680 1.415 . S
C1679 C1678 1.355 . S
C1679 C1681 1.419 . S
C1680 C1678 1.415 . S
C1680 C1685 1.425 . S
C1680 C1687 1.409 . S
C1681 H1673 0.930 . S
C1681 C1679 1.419 . S
C1681 C1682 1.362 . S
C1682 H1674 0.930 . S
C1682 C1681 1.362 . S
C1682 C1685 1.409 . S
C1683 H1675 0.930 . S
C1683 C1684 1.355 . S
C1683 C1685 1.415 . S
C1684 C1683 1.355 . S
C1684 C1686 1.419 . S
C1685 C1680 1.425 . S
C1685 C1682 1.409 . S
C1685 C1683 1.415 . S
C1686 H1676 0.930 . S
C1686 C1684 1.419 . S
C1686 C1687 1.362 . S
C1687 H1677 0.930 . S
C1687 C1680 1.409 . S
C1687 C1686 1.362 . S
H1688 C1694 0.930 . S
H1689 C1697 0.930 . S
H1690 C1698 0.930 . S
H1691 C1699 0.930 . S
H1692 C1702 0.930 . S
H1693 C1703 0.930 . S
C1694 H1688 0.930 . S
C1694 C1695 1.355 . S
C1694 C1696 1.415 . S
C1695 C1694 1.355 . S
C1695 C1697 1.419 . S
C1696 C1694 1.415 . S
C1696 C1701 1.425 . S
C1696 C1703 1.409 . S
C1697 H1689 0.930 . S
C1697 C1695 1.419 . S
C1697 C1698 1.362 . S
C1698 H1690 0.930 . S
C1698 C1697 1.362 . S
C1698 C1701 1.409 . S
C1699 H1691 0.930 . S
C1699 C1700 1.355 . S
C1699 C1701 1.415 . S
C1700 C1699 1.355 . S
C1700 C1702 1.419 . S
C1701 C1696 1.425 . S
C1701 C1698 1.409 . S
C1701 C1699 1.415 . S
C1702 H1692 0.930 . S
C1702 C1700 1.419 . S
C1702 C1703 1.362 . S
C1703 H1693 0.930 . S
C1703 C1696 1.409 . S
C1703 C1702 1.362 . S
H1704 C1710 0.930 . S
H1705 C1713 0.930 . S
H1706 C1714 0.930 . S
H1707 C1715 0.930 . S
H1708 C1718 0.930 . S
H1709 C1719 0.930 . S
C1710 H1704 0.930 . S
C1710 C1711 1.355 . S
C1710 C1712 1.415 . S
C1711 C1710 1.355 . S
C1711 C1713 1.419 . S
C1712 C1710 1.415 . S
C1712 C1717 1.425 . S
C1712 C1719 1.409 . S
C1713 H1705 0.930 . S
C1713 C1711 1.419 . S
C1713 C1714 1.362 . S
C1714 H1706 0.930 . S
C1714 C1713 1.362 . S
C1714 C1717 1.409 . S
C1715 H1707 0.930 . S
C1715 C1716 1.355 . S
C1715 C1717 1.415 . S
C1716 C1715 1.355 . S
C1716 C1718 1.419 . S
C1717 C1712 1.425 . S
C1717 C1714 1.409 . S
C1717 C1715 1.415 . S
C1718 H1708 0.930 . S
C1718 C1716 1.419 . S
C1718 C1719 1.362 . S
C1719 H1709 0.930 . S
C1719 C1712 1.409 . S
C1719 C1718 1.362 . S
H1720 C1726 0.930 . S
H1721 C1729 0.930 . S
H1722 C1730 0.930 . S
H1723 C1731 0.930 . S
H1724 C1734 0.930 . S
H1725 C1735 0.930 1_554 S
C1726 H1720 0.930 . S
C1726 C1727 1.355 . S
C1726 C1728 1.415 . S
C1727 C1726 1.355 . S
C1727 C1729 1.419 . S
C1728 C1726 1.415 . S
C1728 C1733 1.425 . S
C1728 C1735 1.409 . S
C1729 H1721 0.930 . S
C1729 C1727 1.419 . S
C1729 C1730 1.362 . S
C1730 H1722 0.930 . S
C1730 C1729 1.362 . S
C1730 C1733 1.409 . S
C1731 H1723 0.930 . S
C1731 C1732 1.355 . S
C1731 C1733 1.415 . S
C1732 C1731 1.355 . S
C1732 C1734 1.419 . S
C1733 C1728 1.425 . S
C1733 C1730 1.409 . S
C1733 C1731 1.415 . S
C1734 H1724 0.930 . S
C1734 C1732 1.419 . S
C1734 C1735 1.362 . S
C1735 H1725 0.930 1_556 S
C1735 C1728 1.409 . S
C1735 C1734 1.362 . S
H1736 C1742 0.930 . S
H1737 C1745 0.930 . S
H1738 C1746 0.930 . S
H1739 C1747 0.930 . S
H1740 C1750 0.930 . S
H1741 C1751 0.930 . S
C1742 H1736 0.930 . S
C1742 C1743 1.355 . S
C1742 C1744 1.415 . S
C1743 C1742 1.355 . S
C1743 C1745 1.419 . S
C1744 C1742 1.415 . S
C1744 C1749 1.425 . S
C1744 C1751 1.409 . S
C1745 H1737 0.930 . S
C1745 C1743 1.419 . S
C1745 C1746 1.362 . S
C1746 H1738 0.930 . S
C1746 C1745 1.362 . S
C1746 C1749 1.409 . S
C1747 H1739 0.930 . S
C1747 C1748 1.355 . S
C1747 C1749 1.415 . S
C1748 C1747 1.355 . S
C1748 C1750 1.419 . S
C1749 C1744 1.425 . S
C1749 C1746 1.409 . S
C1749 C1747 1.415 . S
C1750 H1740 0.930 . S
C1750 C1748 1.419 . S
C1750 C1751 1.362 . S
C1751 H1741 0.930 . S
C1751 C1744 1.409 . S
C1751 C1750 1.362 . S
H1752 C1758 0.930 . S
H1753 C1761 0.930 . S
H1754 C1762 0.930 . S
H1755 C1763 0.930 . S
H1756 C1766 0.930 . S
H1757 C1767 0.930 . S
C1758 H1752 0.930 . S
C1758 C1759 1.355 . S
C1758 C1760 1.415 . S
C1759 C1758 1.355 . S
C1759 C1761 1.419 . S
C1760 C1758 1.415 . S
C1760 C1765 1.425 . S
C1760 C1767 1.409 . S
C1761 H1753 0.930 . S
C1761 C1759 1.419 . S
C1761 C1762 1.362 . S
C1762 H1754 0.930 . S
C1762 C1761 1.362 . S
C1762 C1765 1.409 . S
C1763 H1755 0.930 . S
C1763 C1764 1.355 . S
C1763 C1765 1.415 . S
C1764 C1763 1.355 . S
C1764 C1766 1.419 . S
C1765 C1760 1.425 . S
C1765 C1762 1.409 . S
C1765 C1763 1.415 . S
C1766 H1756 0.930 . S
C1766 C1764 1.419 . S
C1766 C1767 1.362 . S
C1767 H1757 0.930 . S
C1767 C1760 1.409 . S
C1767 C1766 1.362 . S
H1768 C1774 0.930 . S
H1769 C1777 0.930 . S
H1770 C1778 0.930 . S
H1771 C1779 0.930 . S
H1772 C1782 0.930 . S
H1773 C1783 0.930 . S
C1774 H1768 0.930 . S
C1774 C1775 1.355 . S
C1774 C1776 1.415 . S
C1775 C1774 1.355 . S
C1775 C1777 1.419 . S
C1776 C1774 1.415 . S
C1776 C1781 1.425 . S
C1776 C1783 1.409 . S
C1777 H1769 0.930 . S
C1777 C1775 1.419 . S
C1777 C1778 1.362 . S
C1778 H1770 0.930 . S
C1778 C1777 1.362 . S
C1778 C1781 1.409 . S
C1779 H1771 0.930 . S
C1779 C1780 1.355 . S
C1779 C1781 1.415 . S
C1780 C1779 1.355 . S
C1780 C1782 1.419 . S
C1781 C1776 1.425 . S
C1781 C1778 1.409 . S
C1781 C1779 1.415 . S
C1782 H1772 0.930 . S
C1782 C1780 1.419 . S
C1782 C1783 1.362 . S
C1783 H1773 0.930 . S
C1783 C1776 1.409 . S
C1783 C1782 1.362 . S
H1784 C1790 0.930 . S
H1785 C1793 0.930 . S
H1786 C1794 0.930 . S
H1787 C1795 0.930 . S
H1788 C1798 0.930 . S
H1789 C1799 0.930 . S
C1790 H1784 0.930 . S
C1790 C1791 1.355 . S
C1790 C1792 1.415 . S
C1791 C1790 1.355 . S
C1791 C1793 1.419 . S
C1792 C1790 1.415 . S
C1792 C1797 1.425 . S
C1792 C1799 1.409 . S
C1793 H1785 0.930 . S
C1793 C1791 1.419 . S
C1793 C1794 1.362 . S
C1794 H1786 0.930 . S
C1794 C1793 1.362 . S
C1794 C1797 1.409 . S
C1795 H1787 0.930 . S
C1795 C1796 1.355 . S
C1795 C1797 1.415 . S
C1796 C1795 1.355 . S
C1796 C1798 1.419 . S
C1797 C1792 1.425 . S
C1797 C1794 1.409 . S
C1797 C1795 1.415 . S
C1798 H1788 0.930 . S
C1798 C1796 1.419 . S
C1798 C1799 1.362 . S
C1799 H1789 0.930 . S
C1799 C1792 1.409 . S
C1799 C1798 1.362 . S
H1800 C1806 0.930 . S
H1801 C1809 0.930 . S
H1802 C1810 0.930 . S
H1803 C1811 0.930 . S
H1804 C1814 0.930 . S
H1805 C1815 0.930 . S
C1806 H1800 0.930 . S
C1806 C1807 1.355 . S
C1806 C1808 1.415 . S
C1807 C1806 1.355 . S
C1807 C1809 1.419 . S
C1808 C1806 1.415 . S
C1808 C1813 1.425 . S
C1808 C1815 1.409 . S
C1809 H1801 0.930 . S
C1809 C1807 1.419 . S
C1809 C1810 1.362 . S
C1810 H1802 0.930 . S
C1810 C1809 1.362 . S
C1810 C1813 1.409 . S
C1811 H1803 0.930 . S
C1811 C1812 1.355 . S
C1811 C1813 1.415 . S
C1812 C1811 1.355 . S
C1812 C1814 1.419 . S
C1813 C1808 1.425 . S
C1813 C1810 1.409 . S
C1813 C1811 1.415 . S
C1814 H1804 0.930 . S
C1814 C1812 1.419 . S
C1814 C1815 1.362 . S
C1815 H1805 0.930 . S
C1815 C1808 1.409 . S
C1815 C1814 1.362 . S
H1816 C1822 0.930 . S
H1817 C1825 0.930 . S
H1818 C1826 0.930 . S
H1819 C1827 0.930 . S
H1820 C1830 0.930 . S
H1821 C1831 0.930 . S
C1822 H1816 0.930 . S
C1822 C1823 1.355 . S
C1822 C1824 1.415 . S
C1823 C1822 1.355 . S
C1823 C1825 1.419 . S
C1824 C1822 1.415 . S
C1824 C1829 1.425 . S
C1824 C1831 1.409 . S
C1825 H1817 0.930 . S
C1825 C1823 1.419 . S
C1825 C1826 1.362 . S
C1826 H1818 0.930 . S
C1826 C1825 1.362 . S
C1826 C1829 1.409 . S
C1827 H1819 0.930 . S
C1827 C1828 1.355 . S
C1827 C1829 1.415 . S
C1828 C1827 1.355 . S
C1828 C1830 1.419 . S
C1829 C1824 1.425 . S
C1829 C1826 1.409 . S
C1829 C1827 1.415 . S
C1830 H1820 0.930 . S
C1830 C1828 1.419 . S
C1830 C1831 1.362 . S
C1831 H1821 0.930 . S
C1831 C1824 1.409 . S
C1831 C1830 1.362 . S
H1832 C1838 0.930 . S
H1833 C1841 0.930 . S
H1834 C1842 0.930 . S
H1835 C1843 0.930 . S
H1836 C1846 0.930 . S
H1837 C1847 0.930 . S
C1838 H1832 0.930 . S
C1838 C1839 1.355 . S
C1838 C1840 1.415 . S
C1839 C1838 1.355 . S
C1839 C1841 1.419 . S
C1840 C1838 1.415 . S
C1840 C1845 1.425 . S
C1840 C1847 1.409 . S
C1841 H1833 0.930 . S
C1841 C1839 1.419 . S
C1841 C1842 1.362 . S
C1842 H1834 0.930 . S
C1842 C1841 1.362 . S
C1842 C1845 1.409 . S
C1843 H1835 0.930 . S
C1843 C1844 1.355 . S
C1843 C1845 1.415 . S
C1844 C1843 1.355 . S
C1844 C1846 1.419 . S
C1845 C1840 1.425 . S
C1845 C1842 1.409 . S
C1845 C1843 1.415 . S
C1846 H1836 0.930 . S
C1846 C1844 1.419 . S
C1846 C1847 1.362 . S
C1847 H1837 0.930 . S
C1847 C1840 1.409 . S
C1847 C1846 1.362 . S
H1848 C1854 0.930 . S
H1849 C1857 0.930 . S
H1850 C1858 0.930 . S
H1851 C1859 0.930 . S
H1852 C1862 0.930 . S
H1853 C1863 0.930 . S
C1854 H1848 0.930 . S
C1854 C1855 1.355 . S
C1854 C1856 1.415 . S
C1855 C1854 1.355 . S
C1855 C1857 1.419 . S
C1856 C1854 1.415 . S
C1856 C1861 1.425 . S
C1856 C1863 1.409 . S
C1857 H1849 0.930 . S
C1857 C1855 1.419 . S
C1857 C1858 1.362 . S
C1858 H1850 0.930 . S
C1858 C1857 1.362 . S
C1858 C1861 1.409 . S
C1859 H1851 0.930 . S
C1859 C1860 1.355 . S
C1859 C1861 1.415 . S
C1860 C1859 1.355 . S
C1860 C1862 1.419 . S
C1861 C1856 1.425 . S
C1861 C1858 1.409 . S
C1861 C1859 1.415 . S
C1862 H1852 0.930 . S
C1862 C1860 1.419 . S
C1862 C1863 1.362 . S
C1863 H1853 0.930 . S
C1863 C1856 1.409 . S
C1863 C1862 1.362 . S
H1864 C1870 0.930 . S
H1865 C1873 0.930 . S
H1866 C1874 0.930 . S
H1867 C1875 0.930 . S
H1868 C1878 0.930 . S
H1869 C1879 0.930 . S
C1870 H1864 0.930 . S
C1870 C1871 1.355 . S
C1870 C1872 1.415 . S
C1871 C1870 1.355 . S
C1871 C1873 1.419 . S
C1872 C1870 1.415 . S
C1872 C1877 1.425 . S
C1872 C1879 1.409 . S
C1873 H1865 0.930 . S
C1873 C1871 1.419 . S
C1873 C1874 1.362 . S
C1874 H1866 0.930 . S
C1874 C1873 1.362 . S
C1874 C1877 1.409 . S
C1875 H1867 0.930 . S
C1875 C1876 1.355 . S
C1875 C1877 1.415 . S
C1876 C1875 1.355 . S
C1876 C1878 1.419 . S
C1877 C1872 1.425 . S
C1877 C1874 1.409 . S
C1877 C1875 1.415 . S
C1878 H1868 0.930 . S
C1878 C1876 1.419 . S
C1878 C1879 1.362 . S
C1879 H1869 0.930 . S
C1879 C1872 1.409 . S
C1879 C1878 1.362 . S
H1880 C1886 0.930 . S
H1881 C1889 0.930 . S
H1882 C1890 0.930 . S
H1883 C1891 0.930 . S
H1884 C1894 0.930 . S
H1885 C1895 0.930 . S
C1886 H1880 0.930 . S
C1886 C1887 1.355 . S
C1886 C1888 1.415 . S
C1887 C1886 1.355 . S
C1887 C1889 1.419 . S
C1888 C1886 1.415 . S
C1888 C1893 1.425 . S
C1888 C1895 1.409 . S
C1889 H1881 0.930 . S
C1889 C1887 1.419 . S
C1889 C1890 1.362 . S
C1890 H1882 0.930 . S
C1890 C1889 1.362 . S
C1890 C1893 1.409 . S
C1891 H1883 0.930 . S
C1891 C1892 1.355 . S
C1891 C1893 1.415 . S
C1892 C1891 1.355 . S
C1892 C1894 1.419 . S
C1893 C1888 1.425 . S
C1893 C1890 1.409 . S
C1893 C1891 1.415 . S
C1894 H1884 0.930 . S
C1894 C1892 1.419 . S
C1894 C1895 1.362 . S
C1895 H1885 0.930 . S
C1895 C1888 1.409 . S
C1895 C1894 1.362 . S
H1896 C1902 0.930 . S
H1897 C1905 0.930 . S
H1898 C1906 0.930 . S
H1899 C1907 0.930 . S
H1900 C1910 0.930 . S
H1901 C1911 0.930 . S
C1902 H1896 0.930 . S
C1902 C1903 1.355 . S
C1902 C1904 1.415 . S
C1903 C1902 1.355 . S
C1903 C1905 1.419 . S
C1904 C1902 1.415 . S
C1904 C1909 1.425 . S
C1904 C1911 1.409 . S
C1905 H1897 0.930 . S
C1905 C1903 1.419 . S
C1905 C1906 1.362 . S
C1906 H1898 0.930 . S
C1906 C1905 1.362 . S
C1906 C1909 1.409 . S
C1907 H1899 0.930 . S
C1907 C1908 1.355 . S
C1907 C1909 1.415 . S
C1908 C1907 1.355 . S
C1908 C1910 1.419 . S
C1909 C1904 1.425 . S
C1909 C1906 1.409 . S
C1909 C1907 1.415 . S
C1910 H1900 0.930 . S
C1910 C1908 1.419 . S
C1910 C1911 1.362 . S
C1911 H1901 0.930 . S
C1911 C1904 1.409 . S
C1911 C1910 1.362 . S
H1912 C1918 0.930 . S
H1913 C1921 0.930 . S
H1914 C1922 0.930 . S
H1915 C1923 0.930 . S
H1916 C1926 0.930 . S
H1917 C1927 0.930 . S
C1918 H1912 0.930 . S
C1918 C1919 1.355 . S
C1918 C1920 1.415 . S
C1919 C1918 1.355 . S
C1919 C1921 1.419 . S
C1920 C1918 1.415 . S
C1920 C1925 1.425 . S
C1920 C1927 1.409 . S
C1921 H1913 0.930 . S
C1921 C1919 1.419 . S
C1921 C1922 1.362 . S
C1922 H1914 0.930 . S
C1922 C1921 1.362 . S
C1922 C1925 1.409 . S
C1923 H1915 0.930 . S
C1923 C1924 1.355 . S
C1923 C1925 1.415 . S
C1924 C1923 1.355 . S
C1924 C1926 1.419 . S
C1925 C1920 1.425 . S
C1925 C1922 1.409 . S
C1925 C1923 1.415 . S
C1926 H1916 0.930 . S
C1926 C1924 1.419 . S
C1926 C1927 1.362 . S
C1927 H1917 0.930 . S
C1927 C1920 1.409 . S
C1927 C1926 1.362 . S
H1928 C1934 0.930 . S
H1929 C1937 0.930 . S
H1930 C1938 0.930 . S
H1931 C1939 0.930 . S
H1932 C1942 0.930 . S
H1933 C1943 0.930 . S
C1934 H1928 0.930 . S
C1934 C1935 1.355 . S
C1934 C1936 1.415 . S
C1935 C1934 1.355 . S
C1935 C1937 1.419 . S
C1936 C1934 1.415 . S
C1936 C1941 1.425 . S
C1936 C1943 1.409 . S
C1937 H1929 0.930 . S
C1937 C1935 1.419 . S
C1937 C1938 1.362 . S
C1938 H1930 0.930 . S
C1938 C1937 1.362 . S
C1938 C1941 1.409 . S
C1939 H1931 0.930 . S
C1939 C1940 1.355 . S
C1939 C1941 1.415 . S
C1940 C1939 1.355 . S
C1940 C1942 1.419 . S
C1941 C1936 1.425 . S
C1941 C1938 1.409 . S
C1941 C1939 1.415 . S
C1942 H1932 0.930 . S
C1942 C1940 1.419 . S
C1942 C1943 1.362 . S
C1943 H1933 0.930 . S
C1943 C1936 1.409 . S
C1943 C1942 1.362 . S
H1944 C1950 0.930 . S
H1945 C1953 0.930 . S
H1946 C1954 0.930 . S
H1947 C1955 0.930 . S
H1948 C1958 0.930 . S
H1949 C1959 0.930 . S
C1950 H1944 0.930 . S
C1950 C1951 1.355 1_455 S
C1950 C1952 1.415 . S
C1951 C1950 1.355 1_655 S
C1951 C1953 1.419 . S
C1952 C1950 1.415 . S
C1952 C1957 1.425 1_455 S
C1952 C1959 1.409 . S
C1953 H1945 0.930 . S
C1953 C1951 1.419 . S
C1953 C1954 1.362 . S
C1954 H1946 0.930 . S
C1954 C1953 1.362 . S
C1954 C1957 1.409 . S
C1955 H1947 0.930 . S
C1955 C1956 1.355 1_655 S
C1955 C1957 1.415 . S
C1956 C1955 1.355 1_455 S
C1956 C1958 1.419 . S
C1957 C1952 1.425 1_655 S
C1957 C1954 1.409 . S
C1957 C1955 1.415 . S
C1958 H1948 0.930 . S
C1958 C1956 1.419 . S
C1958 C1959 1.362 . S
C1959 H1949 0.930 . S
C1959 C1952 1.409 . S
C1959 C1958 1.362 . S
H1960 C1966 0.930 . S
H1961 C1969 0.930 . S
H1962 C1970 0.930 . S
H1963 C1971 0.930 . S
H1964 C1974 0.930 . S
H1965 C1975 0.930 . S
C1966 H1960 0.930 . S
C1966 C1967 1.355 . S
C1966 C1968 1.415 . S
C1967 C1966 1.355 . S
C1967 C1969 1.419 . S
C1968 C1966 1.415 . S
C1968 C1973 1.425 . S
C1968 C1975 1.409 . S
C1969 H1961 0.930 . S
C1969 C1967 1.419 . S
C1969 C1970 1.362 . S
C1970 H1962 0.930 . S
C1970 C1969 1.362 . S
C1970 C1973 1.409 . S
C1971 H1963 0.930 . S
C1971 C1972 1.355 . S
C1971 C1973 1.415 . S
C1972 C1971 1.355 . S
C1972 C1974 1.419 . S
C1973 C1968 1.425 . S
C1973 C1970 1.409 . S
C1973 C1971 1.415 . S
C1974 H1964 0.930 . S
C1974 C1972 1.419 . S
C1974 C1975 1.362 . S
C1975 H1965 0.930 . S
C1975 C1968 1.409 . S
C1975 C1974 1.362 . S
H1976 C1982 0.930 . S
H1977 C1985 0.930 . S
H1978 C1986 0.930 . S
H1979 C1987 0.930 . S
H1980 C1990 0.930 . S
H1981 C1991 0.930 . S
C1982 H1976 0.930 . S
C1982 C1983 1.355 . S
C1982 C1984 1.415 . S
C1983 C1982 1.355 . S
C1983 C1985 1.419 1_545 S
C1984 C1982 1.415 . S
C1984 C1989 1.425 1_545 S
C1984 C1991 1.409 . S
C1985 H1977 0.930 . S
C1985 C1983 1.419 1_565 S
C1985 C1986 1.362 . S
C1986 H1978 0.930 . S
C1986 C1985 1.362 . S
C1986 C1989 1.409 . S
C1987 H1979 0.930 . S
C1987 C1988 1.355 . S
C1987 C1989 1.415 . S
C1988 C1987 1.355 . S
C1988 C1990 1.419 1_565 S
C1989 C1984 1.425 1_565 S
C1989 C1986 1.409 . S
C1989 C1987 1.415 . S
C1990 H1980 0.930 . S
C1990 C1988 1.419 1_545 S
C1990 C1991 1.362 . S
C1991 H1981 0.930 . S
C1991 C1984 1.409 . S
C1991 C1990 1.362 . S
H1992 C1998 0.930 . S
H1993 C2001 0.930 . S
H1994 C2002 0.930 . S
H1995 C2003 0.930 . S
H1996 C2006 0.930 . S
H1997 C2007 0.930 . S
C1998 H1992 0.930 . S
C1998 C1999 1.355 1_655 S
C1998 C2000 1.415 . S
C1999 C1998 1.355 1_455 S
C1999 C2001 1.419 . S
C2000 C1998 1.415 . S
C2000 C2005 1.425 1_655 S
C2000 C2007 1.409 . S
C2001 H1993 0.930 . S
C2001 C1999 1.419 . S
C2001 C2002 1.362 . S
C2002 H1994 0.930 . S
C2002 C2001 1.362 . S
C2002 C2005 1.409 . S
C2003 H1995 0.930 . S
C2003 C2004 1.355 1_455 S
C2003 C2005 1.415 . S
C2004 C2003 1.355 1_655 S
C2004 C2006 1.419 . S
C2005 C2000 1.425 1_455 S
C2005 C2002 1.409 . S
C2005 C2003 1.415 . S
C2006 H1996 0.930 . S
C2006 C2004 1.419 . S
C2006 C2007 1.362 . S
C2007 H1997 0.930 . S
C2007 C2000 1.409 . S
C2007 C2006 1.362 . S
H2008 C2014 0.930 . S
H2009 C2017 0.930 . S
H2010 C2018 0.930 . S
H2011 C2019 0.930 . S
H2012 C2022 0.930 . S
H2013 C2023 0.930 . S
C2014 H2008 0.930 . S
C2014 C2015 1.355 . S
C2014 C2016 1.415 . S
C2015 C2014 1.355 . S
C2015 C2017 1.419 . S
C2016 C2014 1.415 . S
C2016 C2021 1.425 . S
C2016 C2023 1.409 . S
C2017 H2009 0.930 . S
C2017 C2015 1.419 . S
C2017 C2018 1.362 . S
C2018 H2010 0.930 . S
C2018 C2017 1.362 . S
C2018 C2021 1.409 . S
C2019 H2011 0.930 . S
C2019 C2020 1.355 . S
C2019 C2021 1.415 . S
C2020 C2019 1.355 . S
C2020 C2022 1.419 . S
C2021 C2016 1.425 . S
C2021 C2018 1.409 . S
C2021 C2019 1.415 . S
C2022 H2012 0.930 . S
C2022 C2020 1.419 . S
C2022 C2023 1.362 . S
C2023 H2013 0.930 . S
C2023 C2016 1.409 . S
C2023 C2022 1.362 . S
H2024 C2030 0.930 . S
H2025 C2033 0.930 . S
H2026 C2034 0.930 . S
H2027 C2035 0.930 . S
H2028 C2038 0.930 . S
H2029 C2039 0.930 . S
C2030 H2024 0.930 . S
C2030 C2031 1.355 1_565 S
C2030 C2032 1.415 . S
C2031 C2030 1.355 1_545 S
C2031 C2033 1.419 . S
C2032 C2030 1.415 . S
C2032 C2037 1.425 1_565 S
C2032 C2039 1.409 . S
C2033 H2025 0.930 . S
C2033 C2031 1.419 . S
C2033 C2034 1.362 . S
C2034 H2026 0.930 . S
C2034 C2033 1.362 . S
C2034 C2037 1.409 . S
C2035 H2027 0.930 . S
C2035 C2036 1.355 1_545 S
C2035 C2037 1.415 . S
C2036 C2035 1.355 1_565 S
C2036 C2038 1.419 . S
C2037 C2032 1.425 1_545 S
C2037 C2034 1.409 . S
C2037 C2035 1.415 . S
C2038 H2028 0.930 . S
C2038 C2036 1.419 . S
C2038 C2039 1.362 . S
C2039 H2029 0.930 . S
C2039 C2032 1.409 . S
C2039 C2038 1.362 . S
H2040 C2046 0.930 . S
H2041 C2049 0.930 . S
H2042 C2050 0.930 . S
H2043 C2051 0.930 . S
H2044 C2054 0.930 . S
H2045 C2055 0.930 . S
C2046 H2040 0.930 . S
C2046 C2047 1.355 . S
C2046 C2048 1.415 . S
C2047 C2046 1.355 . S
C2047 C2049 1.419 . S
C2048 C2046 1.415 . S
C2048 C2053 1.425 . S
C2048 C2055 1.409 . S
C2049 H2041 0.930 . S
C2049 C2047 1.419 . S
C2049 C2050 1.362 . S
C2050 H2042 0.930 . S
C2050 C2049 1.362 . S
C2050 C2053 1.409 . S
C2051 H2043 0.930 . S
C2051 C2052 1.355 . S
C2051 C2053 1.415 . S
C2052 C2051 1.355 . S
C2052 C2054 1.419 . S
C2053 C2048 1.425 . S
C2053 C2050 1.409 . S
C2053 C2051 1.415 . S
C2054 H2044 0.930 . S
C2054 C2052 1.419 . S
C2054 C2055 1.362 . S
C2055 H2045 0.930 . S
C2055 C2048 1.409 . S
C2055 C2054 1.362 . S
H2056 C2062 0.930 . S
H2057 C2065 0.930 . S
H2058 C2066 0.930 . S
H2059 C2067 0.930 . S
H2060 C2070 0.930 . S
H2061 C2071 0.930 . S
C2062 H2056 0.930 . S
C2062 C2063 1.355 . S
C2062 C2064 1.415 . S
C2063 C2062 1.355 . S
C2063 C2065 1.419 . S
C2064 C2062 1.415 . S
C2064 C2069 1.425 . S
C2064 C2071 1.409 . S
C2065 H2057 0.930 . S
C2065 C2063 1.419 . S
C2065 C2066 1.362 . S
C2066 H2058 0.930 . S
C2066 C2065 1.362 . S
C2066 C2069 1.409 . S
C2067 H2059 0.930 . S
C2067 C2068 1.355 . S
C2067 C2069 1.415 . S
C2068 C2067 1.355 . S
C2068 C2070 1.419 . S
C2069 C2064 1.425 . S
C2069 C2066 1.409 . S
C2069 C2067 1.415 . S
C2070 H2060 0.930 . S
C2070 C2068 1.419 . S
C2070 C2071 1.362 . S
C2071 H2061 0.930 . S
C2071 C2064 1.409 . S
C2071 C2070 1.362 . S
H2072 C2078 0.930 . S
H2073 C2081 0.930 . S
H2074 C2082 0.930 . S
H2075 C2083 0.930 . S
H2076 C2086 0.930 . S
H2077 C2087 0.930 . S
C2078 H2072 0.930 . S
C2078 C2079 1.355 . S
C2078 C2080 1.415 . S
C2079 C2078 1.355 . S
C2079 C2081 1.419 . S
C2080 C2078 1.415 . S
C2080 C2085 1.425 . S
C2080 C2087 1.409 . S
C2081 H2073 0.930 . S
C2081 C2079 1.419 . S
C2081 C2082 1.362 . S
C2082 H2074 0.930 . S
C2082 C2081 1.362 . S
C2082 C2085 1.409 . S
C2083 H2075 0.930 . S
C2083 C2084 1.355 . S
C2083 C2085 1.415 . S
C2084 C2083 1.355 . S
C2084 C2086 1.419 . S
C2085 C2080 1.425 . S
C2085 C2082 1.409 . S
C2085 C2083 1.415 . S
C2086 H2076 0.930 . S
C2086 C2084 1.419 . S
C2086 C2087 1.362 . S
C2087 H2077 0.930 . S
C2087 C2080 1.409 . S
C2087 C2086 1.362 . S
H2088 C2094 0.930 . S
H2089 C2097 0.930 . S
H2090 C2098 0.930 . S
H2091 C2099 0.930 . S
H2092 C2102 0.930 . S
H2093 C2103 0.930 . S
C2094 H2088 0.930 . S
C2094 C2095 1.355 . S
C2094 C2096 1.415 . S
C2095 C2094 1.355 . S
C2095 C2097 1.419 . S
C2096 C2094 1.415 . S
C2096 C2101 1.425 . S
C2096 C2103 1.409 . S
C2097 H2089 0.930 . S
C2097 C2095 1.419 . S
C2097 C2098 1.362 . S
C2098 H2090 0.930 . S
C2098 C2097 1.362 . S
C2098 C2101 1.409 . S
C2099 H2091 0.930 . S
C2099 C2100 1.355 . S
C2099 C2101 1.415 . S
C2100 C2099 1.355 . S
C2100 C2102 1.419 . S
C2101 C2096 1.425 . S
C2101 C2098 1.409 . S
C2101 C2099 1.415 . S
C2102 H2092 0.930 . S
C2102 C2100 1.419 . S
C2102 C2103 1.362 . S
C2103 H2093 0.930 . S
C2103 C2096 1.409 . S
C2103 C2102 1.362 . S
H2104 C2110 0.930 . S
H2105 C2113 0.930 . S
H2106 C2114 0.930 . S
H2107 C2115 0.930 . S
H2108 C2118 0.930 . S
H2109 C2119 0.930 . S
C2110 H2104 0.930 . S
C2110 C2111 1.355 . S
C2110 C2112 1.415 . S
C2111 C2110 1.355 . S
C2111 C2113 1.419 . S
C2112 C2110 1.415 . S
C2112 C2117 1.425 . S
C2112 C2119 1.409 . S
C2113 H2105 0.930 . S
C2113 C2111 1.419 . S
C2113 C2114 1.362 . S
C2114 H2106 0.930 . S
C2114 C2113 1.362 . S
C2114 C2117 1.409 . S
C2115 H2107 0.930 . S
C2115 C2116 1.355 . S
C2115 C2117 1.415 . S
C2116 C2115 1.355 . S
C2116 C2118 1.419 . S
C2117 C2112 1.425 . S
C2117 C2114 1.409 . S
C2117 C2115 1.415 . S
C2118 H2108 0.930 . S
C2118 C2116 1.419 . S
C2118 C2119 1.362 . S
C2119 H2109 0.930 . S
C2119 C2112 1.409 . S
C2119 C2118 1.362 . S
H2120 C2126 0.930 . S
H2121 C2129 0.930 . S
H2122 C2130 0.930 . S
H2123 C2131 0.930 . S
H2124 C2134 0.930 . S
H2125 C2135 0.930 . S
C2126 H2120 0.930 . S
C2126 C2127 1.355 . S
C2126 C2128 1.415 . S
C2127 C2126 1.355 . S
C2127 C2129 1.419 . S
C2128 C2126 1.415 . S
C2128 C2133 1.425 . S
C2128 C2135 1.409 . S
C2129 H2121 0.930 . S
C2129 C2127 1.419 . S
C2129 C2130 1.362 . S
C2130 H2122 0.930 . S
C2130 C2129 1.362 . S
C2130 C2133 1.409 . S
C2131 H2123 0.930 . S
C2131 C2132 1.355 . S
C2131 C2133 1.415 . S
C2132 C2131 1.355 . S
C2132 C2134 1.419 . S
C2133 C2128 1.425 . S
C2133 C2130 1.409 . S
C2133 C2131 1.415 . S
C2134 H2124 0.930 . S
C2134 C2132 1.419 . S
C2134 C2135 1.362 . S
C2135 H2125 0.930 . S
C2135 C2128 1.409 . S
C2135 C2134 1.362 . S
H2136 C2142 0.930 . S
H2137 C2145 0.930 . S
H2138 C2146 0.930 . S
H2139 C2147 0.930 . S
H2140 C2150 0.930 . S
H2141 C2151 0.930 . S
C2142 H2136 0.930 . S
C2142 C2143 1.355 . S
C2142 C2144 1.415 . S
C2143 C2142 1.355 . S
C2143 C2145 1.419 . S
C2144 C2142 1.415 . S
C2144 C2149 1.425 . S
C2144 C2151 1.409 . S
C2145 H2137 0.930 . S
C2145 C2143 1.419 . S
C2145 C2146 1.362 . S
C2146 H2138 0.930 . S
C2146 C2145 1.362 . S
C2146 C2149 1.409 . S
C2147 H2139 0.930 . S
C2147 C2148 1.355 . S
C2147 C2149 1.415 . S
C2148 C2147 1.355 . S
C2148 C2150 1.419 . S
C2149 C2144 1.425 . S
C2149 C2146 1.409 . S
C2149 C2147 1.415 . S
C2150 H2140 0.930 . S
C2150 C2148 1.419 . S
C2150 C2151 1.362 . S
C2151 H2141 0.930 . S
C2151 C2144 1.409 . S
C2151 C2150 1.362 . S
H2152 C2158 0.930 . S
H2153 C2161 0.930 . S
H2154 C2162 0.930 . S
H2155 C2163 0.930 . S
H2156 C2166 0.930 . S
H2157 C2167 0.930 . S
C2158 H2152 0.930 . S
C2158 C2159 1.355 . S
C2158 C2160 1.415 . S
C2159 C2158 1.355 . S
C2159 C2161 1.419 . S
C2160 C2158 1.415 . S
C2160 C2165 1.425 . S
C2160 C2167 1.409 . S
C2161 H2153 0.930 . S
C2161 C2159 1.419 . S
C2161 C2162 1.362 . S
C2162 H2154 0.930 . S
C2162 C2161 1.362 . S
C2162 C2165 1.409 . S
C2163 H2155 0.930 . S
C2163 C2164 1.355 . S
C2163 C2165 1.415 . S
C2164 C2163 1.355 . S
C2164 C2166 1.419 . S
C2165 C2160 1.425 . S
C2165 C2162 1.409 . S
C2165 C2163 1.415 . S
C2166 H2156 0.930 . S
C2166 C2164 1.419 . S
C2166 C2167 1.362 . S
C2167 H2157 0.930 . S
C2167 C2160 1.409 . S
C2167 C2166 1.362 . S
H2168 C2174 0.930 . S
H2169 C2177 0.930 . S
H2170 C2178 0.930 . S
H2171 C2179 0.930 . S
H2172 C2182 0.930 . S
H2173 C2183 0.930 . S
C2174 H2168 0.930 . S
C2174 C2175 1.355 . S
C2174 C2176 1.415 . S
C2175 C2174 1.355 . S
C2175 C2177 1.419 . S
C2176 C2174 1.415 . S
C2176 C2181 1.425 . S
C2176 C2183 1.409 . S
C2177 H2169 0.930 . S
C2177 C2175 1.419 . S
C2177 C2178 1.362 . S
C2178 H2170 0.930 . S
C2178 C2177 1.362 . S
C2178 C2181 1.409 . S
C2179 H2171 0.930 . S
C2179 C2180 1.355 . S
C2179 C2181 1.415 . S
C2180 C2179 1.355 . S
C2180 C2182 1.419 . S
C2181 C2176 1.425 . S
C2181 C2178 1.409 . S
C2181 C2179 1.415 . S
C2182 H2172 0.930 . S
C2182 C2180 1.419 . S
C2182 C2183 1.362 . S
C2183 H2173 0.930 . S
C2183 C2176 1.409 . S
C2183 C2182 1.362 . S
H2184 C2190 0.930 . S
H2185 C2193 0.930 . S
H2186 C2194 0.930 . S
H2187 C2195 0.930 . S
H2188 C2198 0.930 . S
H2189 C2199 0.930 . S
C2190 H2184 0.930 . S
C2190 C2191 1.355 . S
C2190 C2192 1.415 . S
C2191 C2190 1.355 . S
C2191 C2193 1.419 . S
C2192 C2190 1.415 . S
C2192 C2197 1.425 . S
C2192 C2199 1.409 . S
C2193 H2185 0.930 . S
C2193 C2191 1.419 . S
C2193 C2194 1.362 . S
C2194 H2186 0.930 . S
C2194 C2193 1.362 . S
C2194 C2197 1.409 . S
C2195 H2187 0.930 . S
C2195 C2196 1.355 . S
C2195 C2197 1.415 . S
C2196 C2195 1.355 . S
C2196 C2198 1.419 . S
C2197 C2192 1.425 . S
C2197 C2194 1.409 . S
C2197 C2195 1.415 . S
C2198 H2188 0.930 . S
C2198 C2196 1.419 . S
C2198 C2199 1.362 . S
C2199 H2189 0.930 . S
C2199 C2192 1.409 . S
C2199 C2198 1.362 . S
H2200 C2206 0.930 . S
H2201 C2209 0.930 . S
H2202 C2210 0.930 . S
H2203 C2211 0.930 . S
H2204 C2214 0.930 . S
H2205 C2215 0.930 . S
C2206 H2200 0.930 . S
C2206 C2207 1.355 . S
C2206 C2208 1.415 . S
C2207 C2206 1.355 . S
C2207 C2209 1.419 . S
C2208 C2206 1.415 . S
C2208 C2213 1.425 . S
C2208 C2215 1.409 . S
C2209 H2201 0.930 . S
C2209 C2207 1.419 . S
C2209 C2210 1.362 . S
C2210 H2202 0.930 . S
C2210 C2209 1.362 . S
C2210 C2213 1.409 . S
C2211 H2203 0.930 . S
C2211 C2212 1.355 . S
C2211 C2213 1.415 . S
C2212 C2211 1.355 . S
C2212 C2214 1.419 . S
C2213 C2208 1.425 . S
C2213 C2210 1.409 . S
C2213 C2211 1.415 . S
C2214 H2204 0.930 . S
C2214 C2212 1.419 . S
C2214 C2215 1.362 . S
C2215 H2205 0.930 . S
C2215 C2208 1.409 . S
C2215 C2214 1.362 . S
H2216 C2222 0.930 . S
H2217 C2225 0.930 . S
H2218 C2226 0.930 . S
H2219 C2227 0.930 . S
H2220 C2230 0.930 . S
H2221 C2231 0.930 . S
C2222 H2216 0.930 . S
C2222 C2223 1.355 . S
C2222 C2224 1.415 . S
C2223 C2222 1.355 . S
C2223 C2225 1.419 . S
C2224 C2222 1.415 . S
C2224 C2229 1.425 . S
C2224 C2231 1.409 . S
C2225 H2217 0.930 . S
C2225 C2223 1.419 . S
C2225 C2226 1.362 . S
C2226 H2218 0.930 . S
C2226 C2225 1.362 . S
C2226 C2229 1.409 . S
C2227 H2219 0.930 . S
C2227 C2228 1.355 . S
C2227 C2229 1.415 . S
C2228 C2227 1.355 . S
C2228 C2230 1.419 . S
C2229 C2224 1.425 . S
C2229 C2226 1.409 . S
C2229 C2227 1.415 . S
C2230 H2220 0.930 . S
C2230 C2228 1.419 . S
C2230 C2231 1.362 . S
C2231 H2221 0.930 . S
C2231 C2224 1.409 . S
C2231 C2230 1.362 . S
H2232 C2238 0.930 . S
H2233 C2241 0.930 . S
H2234 C2242 0.930 . S
H2235 C2243 0.930 . S
H2236 C2246 0.930 . S
H2237 C2247 0.930 . S
C2238 H2232 0.930 . S
C2238 C2239 1.355 . S
C2238 C2240 1.415 . S
C2239 C2238 1.355 . S
C2239 C2241 1.419 . S
C2240 C2238 1.415 . S
C2240 C2245 1.425 . S
C2240 C2247 1.409 . S
C2241 H2233 0.930 . S
C2241 C2239 1.419 . S
C2241 C2242 1.362 . S
C2242 H2234 0.930 . S
C2242 C2241 1.362 . S
C2242 C2245 1.409 . S
C2243 H2235 0.930 . S
C2243 C2244 1.355 . S
C2243 C2245 1.415 . S
C2244 C2243 1.355 . S
C2244 C2246 1.419 . S
C2245 C2240 1.425 . S
C2245 C2242 1.409 . S
C2245 C2243 1.415 . S
C2246 H2236 0.930 . S
C2246 C2244 1.419 . S
C2246 C2247 1.362 . S
C2247 H2237 0.930 . S
C2247 C2240 1.409 . S
C2247 C2246 1.362 . S
H2248 C2254 0.930 . S
H2249 C2257 0.930 . S
H2250 C2258 0.930 . S
H2251 C2259 0.930 . S
H2252 C2262 0.930 . S
H2253 C2263 0.930 . S
C2254 H2248 0.930 . S
C2254 C2255 1.355 . S
C2254 C2256 1.415 . S
C2255 C2254 1.355 . S
C2255 C2257 1.419 . S
C2256 C2254 1.415 . S
C2256 C2261 1.425 . S
C2256 C2263 1.409 . S
C2257 H2249 0.930 . S
C2257 C2255 1.419 . S
C2257 C2258 1.362 . S
C2258 H2250 0.930 . S
C2258 C2257 1.362 . S
C2258 C2261 1.409 . S
C2259 H2251 0.930 . S
C2259 C2260 1.355 . S
C2259 C2261 1.415 . S
C2260 C2259 1.355 . S
C2260 C2262 1.419 . S
C2261 C2256 1.425 . S
C2261 C2258 1.409 . S
C2261 C2259 1.415 . S
C2262 H2252 0.930 . S
C2262 C2260 1.419 . S
C2262 C2263 1.362 . S
C2263 H2253 0.930 . S
C2263 C2256 1.409 . S
C2263 C2262 1.362 . S
H2264 C2270 0.930 . S
H2265 C2273 0.930 . S
H2266 C2274 0.930 . S
H2267 C2275 0.930 . S
H2268 C2278 0.930 . S
H2269 C2279 0.930 . S
C2270 H2264 0.930 . S
C2270 C2271 1.355 . S
C2270 C2272 1.415 . S
C2271 C2270 1.355 . S
C2271 C2273 1.419 . S
C2272 C2270 1.415 . S
C2272 C2277 1.425 . S
C2272 C2279 1.409 . S
C2273 H2265 0.930 . S
C2273 C2271 1.419 . S
C2273 C2274 1.362 . S
C2274 H2266 0.930 . S
C2274 C2273 1.362 . S
C2274 C2277 1.409 . S
C2275 H2267 0.930 . S
C2275 C2276 1.355 . S
C2275 C2277 1.415 . S
C2276 C2275 1.355 . S
C2276 C2278 1.419 . S
C2277 C2272 1.425 . S
C2277 C2274 1.409 . S
C2277 C2275 1.415 . S
C2278 H2268 0.930 . S
C2278 C2276 1.419 . S
C2278 C2279 1.362 . S
C2279 H2269 0.930 . S
C2279 C2272 1.409 . S
C2279 C2278 1.362 . S
H2280 C2286 0.930 . S
H2281 C2289 0.930 . S
H2282 C2290 0.930 . S
H2283 C2291 0.930 . S
H2284 C2294 0.930 . S
H2285 C2295 0.930 . S
C2286 H2280 0.930 . S
C2286 C2287 1.355 . S
C2286 C2288 1.415 . S
C2287 C2286 1.355 . S
C2287 C2289 1.419 . S
C2288 C2286 1.415 . S
C2288 C2293 1.425 . S
C2288 C2295 1.409 . S
C2289 H2281 0.930 . S
C2289 C2287 1.419 . S
C2289 C2290 1.362 . S
C2290 H2282 0.930 . S
C2290 C2289 1.362 . S
C2290 C2293 1.409 . S
C2291 H2283 0.930 . S
C2291 C2292 1.355 . S
C2291 C2293 1.415 . S
C2292 C2291 1.355 . S
C2292 C2294 1.419 . S
C2293 C2288 1.425 . S
C2293 C2290 1.409 . S
C2293 C2291 1.415 . S
C2294 H2284 0.930 . S
C2294 C2292 1.419 . S
C2294 C2295 1.362 . S
C2295 H2285 0.930 . S
C2295 C2288 1.409 . S
C2295 C2294 1.362 . S
H2296 C2302 0.930 . S
H2297 C2305 0.930 1_455 S
H2298 C2306 0.930 . S
H2299 C2307 0.930 . S
H2300 C2310 0.930 . S
H2301 C2311 0.930 . S
C2302 H2296 0.930 . S
C2302 C2303 1.355 . S
C2302 C2304 1.415 . S
C2303 C2302 1.355 . S
C2303 C2305 1.419 . S
C2304 C2302 1.415 . S
C2304 C2309 1.425 . S
C2304 C2311 1.409 . S
C2305 H2297 0.930 1_655 S
C2305 C2303 1.419 . S
C2305 C2306 1.362 . S
C2306 H2298 0.930 . S
C2306 C2305 1.362 . S
C2306 C2309 1.409 . S
C2307 H2299 0.930 . S
C2307 C2308 1.355 . S
C2307 C2309 1.415 . S
C2308 C2307 1.355 . S
C2308 C2310 1.419 . S
C2309 C2304 1.425 . S
C2309 C2306 1.409 . S
C2309 C2307 1.415 . S
C2310 H2300 0.930 . S
C2310 C2308 1.419 . S
C2310 C2311 1.362 . S
C2311 H2301 0.930 . S
C2311 C2304 1.409 . S
C2311 C2310 1.362 . S
H2312 C2318 0.930 . S
H2313 C2321 0.930 . S
H2314 C2322 0.930 . S
H2315 C2323 0.930 . S
H2316 C2326 0.930 . S
H2317 C2327 0.930 . S
C2318 H2312 0.930 . S
C2318 C2319 1.355 . S
C2318 C2320 1.415 . S
C2319 C2318 1.355 . S
C2319 C2321 1.419 . S
C2320 C2318 1.415 . S
C2320 C2325 1.425 . S
C2320 C2327 1.409 . S
C2321 H2313 0.930 . S
C2321 C2319 1.419 . S
C2321 C2322 1.362 . S
C2322 H2314 0.930 . S
C2322 C2321 1.362 . S
C2322 C2325 1.409 . S
C2323 H2315 0.930 . S
C2323 C2324 1.355 . S
C2323 C2325 1.415 . S
C2324 C2323 1.355 . S
C2324 C2326 1.419 . S
C2325 C2320 1.425 . S
C2325 C2322 1.409 . S
C2325 C2323 1.415 . S
C2326 H2316 0.930 . S
C2326 C2324 1.419 . S
C2326 C2327 1.362 . S
C2327 H2317 0.930 . S
C2327 C2320 1.409 . S
C2327 C2326 1.362 . S
H2328 C2334 0.930 . S
H2329 C2337 0.930 . S
H2330 C2338 0.930 . S
H2331 C2339 0.930 . S
H2332 C2342 0.930 . S
H2333 C2343 0.930 . S
C2334 H2328 0.930 . S
C2334 C2335 1.355 . S
C2334 C2336 1.415 . S
C2335 C2334 1.355 . S
C2335 C2337 1.419 . S
C2336 C2334 1.415 . S
C2336 C2341 1.425 . S
C2336 C2343 1.409 . S
C2337 H2329 0.930 . S
C2337 C2335 1.419 . S
C2337 C2338 1.362 . S
C2338 H2330 0.930 . S
C2338 C2337 1.362 . S
C2338 C2341 1.409 . S
C2339 H2331 0.930 . S
C2339 C2340 1.355 . S
C2339 C2341 1.415 . S
C2340 C2339 1.355 . S
C2340 C2342 1.419 . S
C2341 C2336 1.425 . S
C2341 C2338 1.409 . S
C2341 C2339 1.415 . S
C2342 H2332 0.930 . S
C2342 C2340 1.419 . S
C2342 C2343 1.362 . S
C2343 H2333 0.930 . S
C2343 C2336 1.409 . S
C2343 C2342 1.362 . S
H2344 C2350 0.930 . S
H2345 C2353 0.930 . S
H2346 C2354 0.930 . S
H2347 C2355 0.930 . S
H2348 C2358 0.930 . S
H2349 C2359 0.930 . S
C2350 H2344 0.930 . S
C2350 C2351 1.355 . S
C2350 C2352 1.415 . S
C2351 C2350 1.355 . S
C2351 C2353 1.419 . S
C2352 C2350 1.415 . S
C2352 C2357 1.425 . S
C2352 C2359 1.409 . S
C2353 H2345 0.930 . S
C2353 C2351 1.419 . S
C2353 C2354 1.362 . S
C2354 H2346 0.930 . S
C2354 C2353 1.362 . S
C2354 C2357 1.409 . S
C2355 H2347 0.930 . S
C2355 C2356 1.355 . S
C2355 C2357 1.415 . S
C2356 C2355 1.355 . S
C2356 C2358 1.419 . S
C2357 C2352 1.425 . S
C2357 C2354 1.409 . S
C2357 C2355 1.415 . S
C2358 H2348 0.930 . S
C2358 C2356 1.419 . S
C2358 C2359 1.362 . S
C2359 H2349 0.930 . S
C2359 C2352 1.409 . S
C2359 C2358 1.362 . S
H2360 C2366 0.930 . S
H2361 C2369 0.930 . S
H2362 C2370 0.930 . S
H2363 C2371 0.930 . S
H2364 C2374 0.930 . S
H2365 C2375 0.930 . S
C2366 H2360 0.930 . S
C2366 C2367 1.355 . S
C2366 C2368 1.415 . S
C2367 C2366 1.355 . S
C2367 C2369 1.419 . S
C2368 C2366 1.415 . S
C2368 C2373 1.425 . S
C2368 C2375 1.409 . S
C2369 H2361 0.930 . S
C2369 C2367 1.419 . S
C2369 C2370 1.362 . S
C2370 H2362 0.930 . S
C2370 C2369 1.362 . S
C2370 C2373 1.409 . S
C2371 H2363 0.930 . S
C2371 C2372 1.355 . S
C2371 C2373 1.415 . S
C2372 C2371 1.355 . S
C2372 C2374 1.419 . S
C2373 C2368 1.425 . S
C2373 C2370 1.409 . S
C2373 C2371 1.415 . S
C2374 H2364 0.930 . S
C2374 C2372 1.419 . S
C2374 C2375 1.362 . S
C2375 H2365 0.930 . S
C2375 C2368 1.409 . S
C2375 C2374 1.362 . S
H2376 C2382 0.930 . S
H2377 C2385 0.930 . S
H2378 C2386 0.930 . S
H2379 C2387 0.930 . S
H2380 C2390 0.930 . S
H2381 C2391 0.930 . S
C2382 H2376 0.930 . S
C2382 C2383 1.355 . S
C2382 C2384 1.415 . S
C2383 C2382 1.355 . S
C2383 C2385 1.419 . S
C2384 C2382 1.415 . S
C2384 C2389 1.425 . S
C2384 C2391 1.409 . S
C2385 H2377 0.930 . S
C2385 C2383 1.419 . S
C2385 C2386 1.362 . S
C2386 H2378 0.930 . S
C2386 C2385 1.362 . S
C2386 C2389 1.409 . S
C2387 H2379 0.930 . S
C2387 C2388 1.355 . S
C2387 C2389 1.415 . S
C2388 C2387 1.355 . S
C2388 C2390 1.419 . S
C2389 C2384 1.425 . S
C2389 C2386 1.409 . S
C2389 C2387 1.415 . S
C2390 H2380 0.930 . S
C2390 C2388 1.419 . S
C2390 C2391 1.362 . S
C2391 H2381 0.930 . S
C2391 C2384 1.409 . S
C2391 C2390 1.362 . S
H2392 C2398 0.930 . S
H2393 C2401 0.930 . S
H2394 C2402 0.930 . S
H2395 C2403 0.930 . S
H2396 C2406 0.930 . S
H2397 C2407 0.930 . S
C2398 H2392 0.930 . S
C2398 C2399 1.355 . S
C2398 C2400 1.415 . S
C2399 C2398 1.355 . S
C2399 C2401 1.419 . S
C2400 C2398 1.415 . S
C2400 C2405 1.425 . S
C2400 C2407 1.409 . S
C2401 H2393 0.930 . S
C2401 C2399 1.419 . S
C2401 C2402 1.362 . S
C2402 H2394 0.930 . S
C2402 C2401 1.362 . S
C2402 C2405 1.409 . S
C2403 H2395 0.930 . S
C2403 C2404 1.355 . S
C2403 C2405 1.415 . S
C2404 C2403 1.355 . S
C2404 C2406 1.419 . S
C2405 C2400 1.425 . S
C2405 C2402 1.409 . S
C2405 C2403 1.415 . S
C2406 H2396 0.930 . S
C2406 C2404 1.419 . S
C2406 C2407 1.362 . S
C2407 H2397 0.930 . S
C2407 C2400 1.409 . S
C2407 C2406 1.362 . S
H2408 C2414 0.930 . S
H2409 C2417 0.930 . S
H2410 C2418 0.930 . S
H2411 C2419 0.930 . S
H2412 C2422 0.930 . S
H2413 C2423 0.930 . S
C2414 H2408 0.930 . S
C2414 C2415 1.355 . S
C2414 C2416 1.415 . S
C2415 C2414 1.355 . S
C2415 C2417 1.419 . S
C2416 C2414 1.415 . S
C2416 C2421 1.425 . S
C2416 C2423 1.409 . S
C2417 H2409 0.930 . S
C2417 C2415 1.419 . S
C2417 C2418 1.362 . S
C2418 H2410 0.930 . S
C2418 C2417 1.362 . S
C2418 C2421 1.409 . S
C2419 H2411 0.930 . S
C2419 C2420 1.355 . S
C2419 C2421 1.415 . S
C2420 C2419 1.355 . S
C2420 C2422 1.419 . S
C2421 C2416 1.425 . S
C2421 C2418 1.409 . S
C2421 C2419 1.415 . S
C2422 H2412 0.930 . S
C2422 C2420 1.419 . S
C2422 C2423 1.362 . S
C2423 H2413 0.930 . S
C2423 C2416 1.409 . S
C2423 C2422 1.362 . S
H2424 C2430 0.930 . S
H2425 C2433 0.930 . S
H2426 C2434 0.930 . S
H2427 C2435 0.930 . S
H2428 C2438 0.930 . S
H2429 C2439 0.930 . S
C2430 H2424 0.930 . S
C2430 C2431 1.355 . S
C2430 C2432 1.390 1_455 S
C2431 C2430 1.355 . S
C2431 C2433 1.419 . S
C2432 C2430 1.390 1_655 S
C2432 C2437 1.425 1_655 S
C2432 C2439 1.435 . S
C2433 H2425 0.930 . S
C2433 C2431 1.419 . S
C2433 C2434 1.362 . S
C2434 H2426 0.930 . S
C2434 C2433 1.362 . S
C2434 C2437 1.435 . S
C2435 H2427 0.930 . S
C2435 C2436 1.355 . S
C2435 C2437 1.390 1_655 S
C2436 C2435 1.355 . S
C2436 C2438 1.419 . S
C2437 C2432 1.425 1_455 S
C2437 C2434 1.435 . S
C2437 C2435 1.390 1_455 S
C2438 H2428 0.930 . S
C2438 C2436 1.419 . S
C2438 C2439 1.362 . S
C2439 H2429 0.930 . S
C2439 C2432 1.435 . S
C2439 C2438 1.362 . S
H2440 C2446 0.930 . S
H2441 C2449 0.930 . S
H2442 C2450 0.930 . S
H2443 C2451 0.930 . S
H2444 C2454 0.930 . S
H2445 C2455 0.930 . S
C2446 H2440 0.930 . S
C2446 C2447 1.355 . S
C2446 C2448 1.415 . S
C2447 C2446 1.355 . S
C2447 C2449 1.419 . S
C2448 C2446 1.415 . S
C2448 C2453 1.425 . S
C2448 C2455 1.409 . S
C2449 H2441 0.930 . S
C2449 C2447 1.419 . S
C2449 C2450 1.362 . S
C2450 H2442 0.930 . S
C2450 C2449 1.362 . S
C2450 C2453 1.409 . S
C2451 H2443 0.930 . S
C2451 C2452 1.355 . S
C2451 C2453 1.415 . S
C2452 C2451 1.355 . S
C2452 C2454 1.419 . S
C2453 C2448 1.425 . S
C2453 C2450 1.409 . S
C2453 C2451 1.415 . S
C2454 H2444 0.930 . S
C2454 C2452 1.419 . S
C2454 C2455 1.362 . S
C2455 H2445 0.930 . S
C2455 C2448 1.409 . S
C2455 C2454 1.362 . S
H2456 C2462 0.930 . S
H2457 C2465 0.930 . S
H2458 C2466 0.915 1_565 S
H2459 C2467 0.930 . S
H2460 C2470 0.930 . S
H2461 C2471 0.915 1_545 S
C2462 H2456 0.930 . S
C2462 C2463 1.355 . S
C2462 C2464 1.415 . S
C2463 C2462 1.355 . S
C2463 C2465 1.419 . S
C2464 C2462 1.415 . S
C2464 C2469 1.425 1_545 S
C2464 C2471 1.393 1_545 S
C2465 H2457 0.930 . S
C2465 C2463 1.419 . S
C2465 C2466 1.394 . S
C2466 H2458 0.915 1_545 S
C2466 C2465 1.394 . S
C2466 C2469 1.393 1_545 S
C2467 H2459 0.930 . S
C2467 C2468 1.355 . S
C2467 C2469 1.415 . S
C2468 C2467 1.355 . S
C2468 C2470 1.419 . S
C2469 C2464 1.425 1_565 S
C2469 C2466 1.393 1_565 S
C2469 C2467 1.415 . S
C2470 H2460 0.930 . S
C2470 C2468 1.419 . S
C2470 C2471 1.394 . S
C2471 H2461 0.915 1_565 S
C2471 C2464 1.393 1_565 S
C2471 C2470 1.394 . S
H2472 C2478 0.930 . S
H2473 C2481 0.930 . S
H2474 C2482 0.930 . S
H2475 C2483 0.930 . S
H2476 C2486 0.930 . S
H2477 C2487 0.930 . S
C2478 H2472 0.930 . S
C2478 C2479 1.355 . S
C2478 C2480 1.415 . S
C2479 C2478 1.355 . S
C2479 C2481 1.419 . S
C2480 C2478 1.415 . S
C2480 C2485 1.425 1_545 S
C2480 C2487 1.409 1_545 S
C2481 H2473 0.930 . S
C2481 C2479 1.419 . S
C2481 C2482 1.362 . S
C2482 H2474 0.930 . S
C2482 C2481 1.362 . S
C2482 C2485 1.409 1_545 S
C2483 H2475 0.930 . S
C2483 C2484 1.355 . S
C2483 C2485 1.415 . S
C2484 C2483 1.355 . S
C2484 C2486 1.419 . S
C2485 C2480 1.425 1_565 S
C2485 C2482 1.409 1_565 S
C2485 C2483 1.415 . S
C2486 H2476 0.930 . S
C2486 C2484 1.419 . S
C2486 C2487 1.362 . S
C2487 H2477 0.930 . S
C2487 C2480 1.409 1_565 S
C2487 C2486 1.362 . S
H2488 C2494 0.930 . S
H2489 C2497 0.930 . S
H2490 C2498 0.930 . S
H2491 C2499 0.930 . S
H2492 C2502 0.930 . S
H2493 C2503 0.930 . S
C2494 H2488 0.930 . S
C2494 C2495 1.355 . S
C2494 C2496 1.435 . S
C2495 C2494 1.355 . S
C2495 C2497 1.419 . S
C2496 C2494 1.435 . S
C2496 C2501 1.442 1_455 S
C2496 C2503 1.382 1_455 S
C2497 H2489 0.930 . S
C2497 C2495 1.419 . S
C2497 C2498 1.362 . S
C2498 H2490 0.930 . S
C2498 C2497 1.362 . S
C2498 C2501 1.382 1_455 S
C2499 H2491 0.930 . S
C2499 C2500 1.355 . S
C2499 C2501 1.435 . S
C2500 C2499 1.355 . S
C2500 C2502 1.419 . S
C2501 C2496 1.442 1_655 S
C2501 C2498 1.382 1_655 S
C2501 C2499 1.435 . S
C2502 H2492 0.930 . S
C2502 C2500 1.419 . S
C2502 C2503 1.362 . S
C2503 H2493 0.930 . S
C2503 C2496 1.382 1_655 S
C2503 C2502 1.362 . S
H2504 C2510 0.930 . S
H2505 C2513 0.930 . S
H2506 C2514 0.930 . S
H2507 C2515 0.930 . S
H2508 C2518 0.930 . S
H2509 C2519 0.930 . S
C2510 H2504 0.930 . S
C2510 C2511 1.355 . S
C2510 C2512 1.415 . S
C2511 C2510 1.355 . S
C2511 C2513 1.419 . S
C2512 C2510 1.415 . S
C2512 C2517 1.425 . S
C2512 C2519 1.409 . S
C2513 H2505 0.930 . S
C2513 C2511 1.419 . S
C2513 C2514 1.362 . S
C2514 H2506 0.930 . S
C2514 C2513 1.362 . S
C2514 C2517 1.409 . S
C2515 H2507 0.930 . S
C2515 C2516 1.355 . S
C2515 C2517 1.415 . S
C2516 C2515 1.355 . S
C2516 C2518 1.419 . S
C2517 C2512 1.425 . S
C2517 C2514 1.409 . S
C2517 C2515 1.415 . S
C2518 H2508 0.930 . S
C2518 C2516 1.419 . S
C2518 C2519 1.362 . S
C2519 H2509 0.930 . S
C2519 C2512 1.409 . S
C2519 C2518 1.362 . S
C799 C8 1.030 . S
C804 C172 1.052 . S
C815 C30 1.071 . S
C820 C184 0.986 . S
C831 C62 1.038 . S
C836 C150 1.039 . S
C847 C74 1.036 . S
C852 C252 1.046 . S
C863 C208 0.973 . S
C868 C96 1.077 . S
C879 C230 0.982 . S
C884 C120 1.074 . S
C895 C40 1.059 . S
C900 C140 1.028 . S
C911 C162 1.015 . S
C916 C54 1.077 . S
C927 C186 1.016 . S
C932 C18 1.077 . S
C943 C118 0.990 . S
C948 C216 1.069 . S
C959 C238 1.055 . S
C964 C84 1.016 . S
C975 C260 1.068 . S
C980 C106 0.988 . S
C991 C274 1.044 . S
C996 C436 1.034 . S
C1007 C294 1.015 . S
C1012 C458 1.077 . S
C1023 C414 1.077 . S
C1028 C316 1.015 . S
C1039 C514 1.061 . S
C1044 C338 1.024 . S
C1055 C470 0.986 . S
C1060 C362 1.069 . S
C1071 C382 1.077 . S
C1076 C492 0.975 . S
C1087 C304 1.035 . S
C1092 C404 1.043 . S
C1103 C326 0.990 . S
C1108 C426 1.067 . S
C1119 C272 0.988 . S
C1124 C448 1.069 . S
C1135 C392 1.043 . S
C1140 C472 1.038 . S
C1151 C494 1.073 . S
C1156 C348 0.981 . S
C1167 C360 1.006 . S
C1172 C516 1.061 . S
C1183 C536 1.075 . S
C1188 C690 0.980 . S
C1199 C722 0.972 . S
C1204 C560 1.078 . S
C1215 C580 1.021 . S
C1220 C668 1.067 . S
C1231 C612 1.078 . S
C1236 C780 0.973 . S
C1247 C734 1.059 . S
C1252 C626 1.026 . S
C1263 C758 0.978 . S
C1268 C648 1.075 . S
C1279 C670 1.015 . S
C1284 C558 1.077 . S
C1295 C692 1.078 . S
C1300 C590 0.972 . S
C1311 C712 1.022 . S
C1316 C546 1.066 . S
C1327 C646 1.075 . S
C1332 C736 1.016 . S
C1343 C604 1.031 . S
C1348 C766 1.043 . S
C1359 C624 1.040 . S
C1364 C788 1.037 . S
C1375 C21 1.226 . S
C1380 C59 1.256 . S
C1391 C43 1.269 . S
C1396 C7 1.182 . S
C1407 C29 1.246 . S
C1412 C51 1.241 . S
C1423 C95 1.170 . S
C1428 C87 1.260 . S
C1439 C109 1.210 . S
C1444 C131 1.203 . S
C1455 C73 1.257 . S
C1460 C125 1.225 . S
C1471 C153 1.233 . S
C1476 C197 1.252 . S
C1487 C175 1.237 . S
C1492 C139 1.249 . S
C1503 C191 1.253 . S
C1508 C161 1.231 . S
C1519 C235 1.223 . S
C1524 C205 1.258 . S
C1535 C227 1.223 . S
C1540 C257 1.187 . S
C1551 C213 1.244 . S
C1556 C249 1.243 . S
C1567 C315 1.260 . S
C1572 C279 1.216 . S
C1583 C307 1.200 . S
C1588 C285 1.256 . S
C1599 C329 1.269 . S
C1604 C293 1.194 . S
C1615 C351 1.251 . S
C1620 C373 1.169 . S
C1631 C381 1.247 . S
C1636 C367 1.239 . S
C1647 C395 1.269 . S
C1652 C337 1.196 . S
C1663 C417 1.249 . S
C1668 C447 1.237 . S
C1679 C439 1.215 . S
C1684 C403 1.196 . S
C1695 C425 1.257 . S
C1700 C461 1.224 . S
C1711 C505 1.202 . S
C1716 C477 1.210 . S
C1727 C499 1.222 . S
C1732 C527 1.258 . S
C1743 C521 1.216 . S
C1748 C483 1.194 . S
C1759 C579 1.221 . S
C1764 C549 1.260 . S
C1775 C565 1.226 . S
C1780 C535 1.184 . S
C1791 C593 1.227 . S
C1796 C571 1.183 . S
C1807 C637 1.228 . S
C1812 C601 1.255 . S
C1823 C631 1.211 . S
C1828 C659 1.260 . S
C1839 C653 1.215 . S
C1844 C609 1.260 . S
C1855 C675 1.269 . S
C1860 C711 1.190 . S
C1871 C697 1.214 . S
C1876 C681 1.260 . S
C1887 C703 1.239 . S
C1892 C725 1.248 . S
C1903 C763 1.225 . S
C1908 C741 1.199 . S
C1919 C785 1.170 . S
C1924 C755 1.259 . S
C1935 C747 1.178 . S
C1940 C777 1.268 . S
C1951 C103 1.582 . S
C1956 C15 1.582 . S
C1967 C117 1.574 . S
C1972 C37 1.574 . S
C1983 C81 1.556 . S
C1988 C65 1.556 . S
C1999 C241 1.581 . S
C2004 C147 1.581 . S
C2015 C263 1.581 . S
C2020 C169 1.581 . S
C2031 C183 1.571 . S
C2036 C219 1.570 . S
C2047 C359 1.581 . S
C2052 C271 1.581 . S
C2063 C389 1.569 . S
C2068 C301 1.569 . S
C2079 C323 1.562 . S
C2084 C345 1.562 . S
C2095 C491 1.552 . S
C2100 C411 1.552 . S
C2111 C433 1.563 . S
C2116 C513 1.563 . S
C2127 C469 1.574 . S
C2132 C455 1.574 . S
C2143 C543 1.582 . S
C2148 C623 1.582 . S
C2159 C645 1.561 . S
C2164 C557 1.561 . S
C2175 C615 1.582 . S
C2180 C587 1.582 . S
C2191 C769 1.580 . S
C2196 C667 1.579 . S
C2207 C791 1.573 . S
C2212 C689 1.573 . S
C2223 C733 1.562 . S
C2228 C719 1.561 . S
C2239 C656 1.425 . S
C2244 C10 1.403 . S
C2255 C32 1.390 . S
C2260 C602 1.429 . S
C2271 C52 1.366 . S
C2276 C634 1.394 . S
C2287 C76 1.365 . S
C2292 C296 1.399 . S
C2303 C98 1.429 . S
C2308 C318 1.385 . S
C2319 C128 1.390 . S
C2324 C282 1.368 . S
C2335 C524 1.408 . S
C2340 C142 1.364 . S
C2351 C480 1.403 . S
C2356 C164 1.364 . S
C2367 C502 1.408 . S
C2372 C194 1.422 . S
C2383 C206 1.365 . S
C2388 C700 1.415 . S
C2399 C228 1.429 . S
C2404 C714 1.388 . S
C2415 C678 1.392 . S
C2420 C250 1.429 . S
C2431 C568 1.387 . S
C2436 C340 1.370 . S
C2447 C582 1.395 . S
C2452 C370 1.428 . S
C2463 C384 1.416 . S
C2468 C538 1.416 . S
C2479 C406 1.369 . S
C2484 C778 1.422 . S
C2495 C744 1.364 . S
C2500 C428 1.410 . S
C2511 C756 1.367 . S
C2516 C450 1.392 . S
