# Generated by pormake.
# Topology umy, (4)-cn, num edge types: 1
# Building blocks:
#     Node 0, Type 0, BuildingBlock: ICAMEG_clean_sbu_1, # of connection points: 4
#     Node 1, Type 0, BuildingBlock: ICAMEG_clean_sbu_1, # of connection points: 4
#     Node 2, Type 0, BuildingBlock: ICAMEG_clean_sbu_1, # of connection points: 4
#     Node 3, Type 0, BuildingBlock: ICAMEG_clean_sbu_1, # of connection points: 4
#     Node 4, Type 0, BuildingBlock: ICAMEG_clean_sbu_1, # of connection points: 4
#     Node 5, Type 0, BuildingBlock: ICAMEG_clean_sbu_1, # of connection points: 4
#     Node 6, Type 0, BuildingBlock: ICAMEG_clean_sbu_1, # of connection points: 4
#     Node 7, Type 0, BuildingBlock: ICAMEG_clean_sbu_1, # of connection points: 4
#     Node 8, Type 0, BuildingBlock: ICAMEG_clean_sbu_1, # of connection points: 4
#     Node 9, Type 0, BuildingBlock: ICAMEG_clean_sbu_1, # of connection points: 4
#     Node 10, Type 0, BuildingBlock: ICAMEG_clean_sbu_1, # of connection points: 4
#     Node 11, Type 0, BuildingBlock: ICAMEG_clean_sbu_1, # of connection points: 4
#     Edge 12, Type (0, 0), None
#     Edge 13, Type (0, 0), None
#     Edge 14, Type (0, 0), None
#     Edge 15, Type (0, 0), None
#     Edge 16, Type (0, 0), None
#     Edge 17, Type (0, 0), None
#     Edge 18, Type (0, 0), None
#     Edge 19, Type (0, 0), None
#     Edge 20, Type (0, 0), None
#     Edge 21, Type (0, 0), None
#     Edge 22, Type (0, 0), None
#     Edge 23, Type (0, 0), None
#     Edge 24, Type (0, 0), None
#     Edge 25, Type (0, 0), None
#     Edge 26, Type (0, 0), None
#     Edge 27, Type (0, 0), None
#     Edge 28, Type (0, 0), None
#     Edge 29, Type (0, 0), None
#     Edge 30, Type (0, 0), None
#     Edge 31, Type (0, 0), None
#     Edge 32, Type (0, 0), None
#     Edge 33, Type (0, 0), None
#     Edge 34, Type (0, 0), None
#     Edge 35, Type (0, 0), None
# Relax obj value: 0.081
# Max RMSD: 0.110
# Mean RMSD: 0.110
data_MOF--net-umy--node1-ICAMEG_clean_sbu_1--edge1-none
_symmetry_space_group_name_H-M    P1
_symmetry_Int_Tables_number       1
_symmetry_cell_setting            triclinic
loop_
_symmetry_equiv_pos_as_xyz
'x, y, z'
_cell_length_a     18.543014
_cell_length_b     18.543831
_cell_length_c     31.254798
_cell_angle_alpha  89.999963
_cell_angle_beta   89.99998
_cell_angle_gamma 119.99585
loop_
_atom_site_label
_atom_site_type_symbol
_atom_site_fract_x
_atom_site_fract_y
_atom_site_fract_z
_atom_type_partial_charge
Co0 Co 0.10574 0.27385 0.08118 0.0
Co1 Co 0.13483 0.46631 0.11614 0.0
O2 O 0.13532 0.38973 0.07264 0.0
C3 C 0.27168 0.35796 0.02313 0.0
O4 O 0.30539 0.42635 0.04587 0.0
C5 C 0.07164 0.50944 0.03156 0.0
O6 O 0.07484 0.45083 0.00992 0.0
O7 O 1.02389 0.3793 0.14289 0.0
O8 O 1.01138 0.26036 0.1205 0.0
H9 H 0.12738 0.56503 0.26521 0.0
H10 H 0.12161 0.34122 -0.0069 0.0
O11 O 0.20275 0.29305 0.03727 0.0
H12 H 0.831 0.11416 0.00471 0.0
H13 H 1.04098 0.88774 0.10869 0.0
H14 H 1.03949 0.18065 0.15757 0.0
H15 H 0.92593 0.15082 0.06619 0.0
H16 H 0.08793 0.14132 0.0753 0.0
O17 O 0.08351 0.51468 0.07265 0.0
H18 H 0.10727 0.46056 0.21078 0.0
H19 H 0.17197 0.6416 0.11269 0.0
H20 H 0.94398 0.98148 0.16786 0.0
H21 H 1.02546 0.31429 0.93316 0.0
H22 H 0.99722 0.93839 0.136 0.0
H23 H 0.87909 0.19879 -0.06168 0.0
O24 O 0.17972 0.30516 0.13532 0.0
H25 H 0.36538 0.61012 0.00707 0.0
H26 H 0.28995 0.58802 0.15916 0.0
H27 H 0.43358 0.68703 0.13731 0.0
H28 H 0.47314 0.69682 0.06067 0.0
H29 H 0.2217 0.51859 0.0299 0.0
H30 H 0.19061 0.74608 0.16548 0.0
H31 H 0.16689 0.70845 0.24295 0.0
O32 O 0.18562 0.42369 0.15909 0.0
C33 C 0.99929 0.30162 0.14937 0.0
C34 C 0.1346 0.58143 0.23166 0.0
C35 C 0.17002 0.68331 0.17593 0.0
N36 N 0.13755 0.54443 0.15838 0.0
C37 C 0.12409 0.52274 0.20065 0.0
C38 C 0.15891 0.62327 0.14587 0.0
C39 C 0.15739 0.66216 0.21915 0.0
C40 C 0.05761 0.29229 -0.00379 0.0
N41 N 1.03015 0.2468 0.03311 0.0
C42 C 1.00324 0.27757 -0.03789 0.0
C43 C 0.9211 0.21304 -0.03491 0.0
C44 C 0.89376 0.16627 0.00254 0.0
C45 C 0.94841 0.18639 0.03706 0.0
C46 C 1.02675 0.94573 0.11556 0.0
C47 C 1.01635 0.13118 0.13487 0.0
C48 C 0.09003 0.08519 0.06892 0.0
N49 N 0.06796 0.15038 0.09172 0.0
C50 C 0.96797 0.04563 0.1633 0.0
C51 C 0.96605 0.95474 0.15631 0.0
C52 C 0.19506 0.36049 0.16493 0.0
C53 C 0.34894 0.60759 0.04048 0.0
C54 C 0.30566 0.59432 0.12573 0.0
C55 C 0.38746 0.64993 0.1135 0.0
C56 C 0.40947 0.6556 0.07057 0.0
N57 N 0.24591 0.54844 0.09607 0.0
C58 C 0.26675 0.55595 0.0537 0.0
Co59 Co 0.86698 0.08824 0.24786 0.0
Co60 Co 0.70355 0.11726 0.28281 0.0
O61 O 0.78063 0.11776 0.23932 0.0
C62 C 0.94872 0.25413 0.18983 0.0
O63 O 0.91405 0.28787 0.21255 0.0
C64 C 0.59726 0.05407 0.19822 0.0
O65 O 0.65909 0.05728 0.17659 0.0
O66 O 0.67962 1.00631 0.30955 0.0
O67 O 0.78617 0.99391 0.2872 0.0
H68 H 0.59737 0.10982 0.43188 0.0
H69 H 0.8155 0.1041 0.15977 0.0
O70 O 0.9447 0.18521 0.20396 0.0
H71 H 0.75186 0.81347 0.17141 0.0
H72 H 0.18852 1.0237 0.2754 0.0
H73 H 0.89395 1.02187 0.32422 0.0
H74 H 0.81016 0.90841 0.23289 0.0
H75 H 0.98182 0.0706 0.24197 0.0
O76 O 0.60388 0.06595 0.23932 0.0
H77 H 0.68174 0.0897 0.37745 0.0
H78 H 0.56537 0.15437 0.27936 0.0
H79 H 0.99765 0.92641 0.33444 0.0
H80 H 0.74622 1.00794 0.09985 0.0
H81 H 0.09405 0.97982 0.30265 0.0
H82 H 0.71529 0.86155 0.10503 0.0
O83 O 0.90962 0.16221 0.30198 0.0
H84 H 0.79031 0.34783 0.17376 0.0
H85 H 0.73694 0.27237 0.32584 0.0
H86 H 0.7816 0.41601 0.30401 0.0
H87 H 0.81138 0.45558 0.22736 0.0
H88 H 0.73812 0.20414 0.19658 0.0
H89 H 0.47949 0.17297 0.33214 0.0
H90 H 0.49343 0.1493 0.40962 0.0
O91 O 0.79695 0.16803 0.32576 0.0
C92 C 0.7327 0.9817 0.31603 0.0
C93 C 0.58819 0.11702 0.39833 0.0
C94 C 0.5217 0.15241 0.3426 0.0
N95 N 0.62813 0.11996 0.32504 0.0
C96 C 0.63637 0.10652 0.36732 0.0
C97 C 0.57065 0.14132 0.31254 0.0
C98 C 0.53023 0.1398 0.38582 0.0
C99 C 0.80042 0.0401 0.16289 0.0
N100 N 0.81845 1.01264 0.1998 0.0
C101 C 0.76073 0.98572 0.12881 0.0
C102 C 0.74308 0.90357 0.1318 0.0
C103 C 0.76251 0.87624 0.16924 0.0
C104 C 0.79707 0.93089 0.20376 0.0
C105 C 0.11626 1.0094 0.28224 0.0
C106 C 0.9203 0.9988 0.30149 0.0
C107 C 1.0401 0.07277 0.2356 0.0
N108 N 0.95277 0.05055 0.25838 0.0
C109 C 0.95748 0.9504 0.32989 0.0
C110 C 1.04649 0.94856 0.32293 0.0
C111 C 0.86961 0.1775 0.3316 0.0
C112 C 0.77638 0.33138 0.20717 0.0
C113 C 0.74636 0.28808 0.29241 0.0
C114 C 0.77257 0.36989 0.28019 0.0
C115 C 0.78892 0.39191 0.23726 0.0
N116 N 0.73249 0.22834 0.26275 0.0
C117 C 0.74582 0.24919 0.22038 0.0
Co118 Co 0.81374 0.84929 0.41446 0.0
Co119 Co 0.62135 0.68593 0.44947 0.0
O120 O 0.69788 0.76297 0.40595 0.0
C121 C 0.72959 0.9311 0.35647 0.0
O122 O 0.66115 0.89637 0.37917 0.0
C123 C 0.57831 0.57963 0.3649 0.0
O124 O 0.63694 0.64146 0.34327 0.0
O125 O 0.70842 0.66208 0.47624 0.0
O126 O 0.82731 0.76831 0.4537 0.0
H127 H 0.52267 0.57979 0.59855 0.0
H128 H 0.74638 0.79798 0.32635 0.0
O129 O 0.79449 0.9271 0.37062 0.0
H130 H 0.97334 0.73424 0.33789 0.0
H131 H 0.19977 0.1706 0.44218 0.0
H132 H 0.90674 0.87621 0.49078 0.0
H133 H 0.93675 0.7925 0.39939 0.0
H134 H 0.94622 0.96415 0.40855 0.0
O135 O 0.57302 0.58624 0.40599 0.0
H136 H 0.62714 0.66414 0.54412 0.0
H137 H 0.4461 0.54778 0.44603 0.0
H138 H 0.10583 0.97965 0.50115 0.0
H139 H 0.7733 0.72885 0.26636 0.0
H140 H 0.14899 0.07611 0.46939 0.0
H141 H 0.88872 0.69784 0.2715 0.0
O142 O 0.78248 0.89191 0.46862 0.0
H143 H 0.47755 0.7727 0.34041 0.0
H144 H 0.49962 0.71932 0.49249 0.0
H145 H 0.40067 0.76403 0.47066 0.0
H146 H 0.39091 0.79383 0.39402 0.0
H147 H 0.569 0.72044 0.36323 0.0
H148 H 0.34161 0.46195 0.49882 0.0
H149 H 0.37925 0.47588 0.5763 0.0
O150 O 0.66396 0.77934 0.49242 0.0
C151 C 0.7861 0.71522 0.48269 0.0
C152 C 0.50627 0.57061 0.565 0.0
C153 C 0.40439 0.50413 0.50928 0.0
N154 N 0.54326 0.61053 0.49172 0.0
C155 C 0.56496 0.61878 0.53399 0.0
C156 C 0.46443 0.55306 0.47921 0.0
C157 C 0.42554 0.51267 0.55249 0.0
C158 C 0.79532 0.78291 0.32944 0.0
N159 N 0.8408 0.80085 0.36634 0.0
C160 C 0.81002 0.7433 0.29532 0.0
C161 C 0.8745 0.7256 0.29829 0.0
C162 C 0.92125 0.74493 0.33573 0.0
C163 C 0.90117 0.77946 0.37027 0.0
C164 C 0.14172 0.09837 0.44898 0.0
C165 C 0.95624 0.90253 0.46809 0.0
C166 C 1.00237 1.02241 0.40223 0.0
N167 N 0.93715 0.93507 0.42496 0.0
C168 C 1.04167 0.93954 0.49655 0.0
C169 C 0.13257 1.0285 0.48966 0.0
C170 C 0.72721 0.85195 0.49825 0.0
C171 C 0.48007 0.75877 0.37382 0.0
C172 C 0.49333 0.72873 0.45906 0.0
C173 C 0.43776 0.75498 0.44684 0.0
C174 C 0.43209 0.77134 0.40392 0.0
N175 N 0.53918 0.71483 0.42941 0.0
C176 C 0.53166 0.72816 0.38704 0.0
Co177 Co 0.99962 0.79627 0.58117 0.0
Co178 Co 0.9705 0.60381 0.61614 0.0
O179 O 0.97001 0.68039 0.57263 0.0
C180 C 0.83366 0.71218 0.52314 0.0
O181 O 0.79998 0.64376 0.54585 0.0
C182 C 1.03374 0.56074 0.53157 0.0
O183 O 1.03055 0.61937 0.50994 0.0
O184 O 0.08142 0.69084 0.64291 0.0
O185 O 0.09408 0.80978 0.62042 0.0
H186 H 0.97794 0.50509 0.76521 0.0
H187 H 0.98362 0.72888 0.49307 0.0
O188 O 0.90258 0.77708 0.53729 0.0
H189 H 0.27428 0.95585 0.5046 0.0
H190 H 0.06455 0.18241 0.60874 0.0
H191 H 0.06574 0.8893 0.65754 0.0
H192 H 0.17942 0.91927 0.56611 0.0
H193 H 1.01747 0.92882 0.57527 0.0
O194 O 1.02185 0.55547 0.57266 0.0
H195 H 0.99805 0.60957 0.71079 0.0
H196 H 0.93336 0.42854 0.61269 0.0
H197 H 0.16132 0.08846 0.66791 0.0
H198 H 0.07967 0.75577 0.43309 0.0
H199 H 0.10819 0.13166 0.63605 0.0
H200 H 0.22608 0.87121 0.43822 0.0
O201 O 0.92569 0.76499 0.63533 0.0
H202 H 0.73997 0.46005 0.50706 0.0
H203 H 0.81537 0.48209 0.65915 0.0
H204 H 0.67175 0.38311 0.63729 0.0
H205 H 0.6322 0.37336 0.56065 0.0
H206 H 0.88366 0.55153 0.52989 0.0
H207 H 0.91466 0.32404 0.66548 0.0
H208 H 0.9384 0.36167 0.74295 0.0
O209 O 0.91967 0.64641 0.65908 0.0
C210 C 0.10601 0.76853 0.64937 0.0
C211 C 0.97072 0.4887 0.73166 0.0
C212 C 0.93528 0.38682 0.67594 0.0
N213 N 0.96778 0.5257 0.65838 0.0
C214 C 0.98123 0.54739 0.70065 0.0
C215 C 0.94641 0.44686 0.64587 0.0
C216 C 0.94791 0.40796 0.71915 0.0
C217 C 1.04762 0.77781 0.49617 0.0
N218 N 0.07513 0.8233 0.53306 0.0
C219 C 0.10194 0.7925 0.46205 0.0
C220 C 0.1841 0.85699 0.46501 0.0
C221 C 0.2115 0.90376 0.50245 0.0
C222 C 0.15689 0.88369 0.53699 0.0
C223 C 0.07871 0.12437 0.6156 0.0
C224 C 0.08894 0.93882 0.63487 0.0
C225 C 1.01542 0.98499 0.5689 0.0
N226 N 1.0374 0.91973 0.5917 0.0
C227 C 0.13731 1.02431 0.66333 0.0
C228 C 0.13931 0.11525 0.65637 0.0
C229 C 0.91028 0.70963 0.66493 0.0
C230 C 0.75641 0.46256 0.54047 0.0
C231 C 0.79967 0.4758 0.62571 0.0
C232 C 0.71787 0.42021 0.61348 0.0
C233 C 0.69587 0.41456 0.57055 0.0
N234 N 0.85943 0.52167 0.59607 0.0
C235 C 0.8386 0.51417 0.55369 0.0
Co236 Co 0.23831 0.98193 0.74788 0.0
Co237 Co 0.40178 0.95294 0.78281 0.0
O238 O 0.32469 0.95243 0.73932 0.0
C239 C 0.15659 0.81605 0.68982 0.0
O240 O 0.19121 0.78229 0.71257 0.0
C241 C 0.50808 1.01608 0.69822 0.0
O242 O 0.44625 1.01286 0.67657 0.0
O243 O 0.42574 0.06391 0.80952 0.0
O244 O 0.31904 0.07616 0.78727 0.0
H245 H 0.50797 0.9604 0.93187 0.0
H246 H 0.28992 0.96621 0.6598 0.0
O247 O 0.16064 0.885 0.70394 0.0
H248 H 0.35339 0.25678 0.67152 0.0
H249 H 0.91664 0.04632 0.77535 0.0
H250 H 0.21131 0.04844 0.82426 0.0
H251 H 0.29511 0.16178 0.73297 0.0
H252 H 0.12345 0.99954 0.742 0.0
O253 O 0.50145 1.00422 0.73931 0.0
H254 H 0.4236 0.98051 0.87745 0.0
H255 H 0.53997 0.91583 0.77936 0.0
H256 H 0.10752 0.14382 0.83439 0.0
H257 H 0.35924 0.06246 0.59991 0.0
H258 H 1.01111 0.0903 0.8026 0.0
H259 H 0.39006 0.2088 0.60512 0.0
O260 O 0.19566 0.90791 0.80198 0.0
H261 H 0.31504 0.72234 0.67377 0.0
H262 H 0.36839 0.79785 0.82585 0.0
H263 H 0.32375 0.65421 0.80403 0.0
H264 H 0.29399 0.61462 0.72739 0.0
H265 H 0.36716 0.86603 0.69659 0.0
H266 H 0.62589 0.89728 0.83214 0.0
H267 H 0.61192 0.92094 0.90962 0.0
O268 O 0.30839 0.90221 0.82577 0.0
C269 C 0.37267 0.08853 0.81603 0.0
C270 C 0.51715 0.95319 0.89833 0.0
C271 C 0.58366 0.91782 0.8426 0.0
N272 N 0.4772 0.95024 0.82504 0.0
C273 C 0.46897 0.96369 0.86731 0.0
C274 C 0.53469 0.92889 0.81254 0.0
C275 C 0.57512 0.93043 0.88582 0.0
C276 C 0.30498 1.0302 0.66294 0.0
N277 N 0.28689 0.0576 0.69985 0.0
C278 C 0.34469 0.08463 0.62887 0.0
C279 C 0.36228 0.16676 0.63188 0.0
C280 C 0.34279 0.19403 0.66933 0.0
C281 C 0.30823 0.13934 0.70383 0.0
C282 C 0.98892 0.06068 0.7822 0.0
C283 C 0.18494 0.07145 0.80149 0.0
C284 C 0.06516 0.99732 0.73562 0.0
N285 N 0.15251 1.01962 0.7584 0.0
C286 C 0.14772 0.11985 0.82986 0.0
C287 C 0.05867 0.12161 0.82287 0.0
C288 C 0.23571 0.89269 0.8316 0.0
C289 C 0.32895 0.7388 0.70718 0.0
C290 C 0.35897 0.78212 0.79242 0.0
C291 C 0.33277 0.70032 0.78021 0.0
C292 C 0.31643 0.67828 0.73728 0.0
N293 N 0.37282 0.84185 0.76276 0.0
C294 C 0.35949 0.82099 0.72039 0.0
Co295 Co 0.29167 0.22094 0.91444 0.0
Co296 Co 0.48405 0.38428 -0.05052 0.0
O297 O 0.40753 0.30725 0.90594 0.0
C298 C 0.37581 0.13912 0.85647 0.0
O299 O 0.44427 0.17389 0.87915 0.0
C300 C 0.52704 0.49056 0.86491 0.0
O301 O 0.46839 0.42873 0.84329 0.0
O302 O 0.39697 0.40809 -0.02374 0.0
O303 O 0.27808 0.302 -0.04637 0.0
H304 H 0.58274 0.4904 0.09855 0.0
H305 H 0.35904 0.27214 0.82632 0.0
O306 O 0.3109 0.1431 0.87064 0.0
H307 H 0.13218 0.33603 0.83779 0.0
H308 H 0.90561 0.89976 -0.05777 0.0
H309 H 0.19884 0.19406 -0.00926 0.0
H310 H 0.16869 0.27776 0.89932 0.0
H311 H 0.15917 0.1061 0.90852 0.0
O312 O 0.53236 0.48396 0.906 0.0
H313 H 0.47827 0.40605 0.04412 0.0
H314 H 0.6593 0.52241 -0.05396 0.0
H315 H 0.99976 0.09071 0.00119 0.0
H316 H 0.33215 0.34122 0.7663 0.0
H317 H 0.95649 0.99425 -0.03056 0.0
H318 H 0.2168 0.37234 0.77141 0.0
O319 O 0.3229 0.17834 -0.03137 0.0
H320 H 0.62781 0.29748 0.8404 0.0
H321 H 0.60579 0.35088 -0.00752 0.0
H322 H 0.70471 0.30615 -0.02936 0.0
H323 H 0.71445 0.27633 0.894 0.0
H324 H 0.53641 0.34981 0.86322 0.0
H325 H 0.7638 0.6082 -0.00118 0.0
H326 H 0.72616 0.59429 0.0763 0.0
O327 O 0.44146 0.29085 -0.00758 0.0
C328 C 0.31929 0.35495 -0.01731 0.0
C329 C 0.59913 0.49959 0.065 0.0
C330 C 0.70102 0.56604 0.00928 0.0
N331 N 0.56214 0.45966 -0.00828 0.0
C332 C 0.54045 0.45141 0.03399 0.0
C333 C 0.64097 0.51713 -0.02079 0.0
C334 C 0.67987 0.55751 0.0525 0.0
C335 C 0.31011 0.28722 0.8294 0.0
N336 N 0.26464 0.26934 0.8663 0.0
C337 C 0.29543 0.32682 0.79526 0.0
C338 C 0.23099 0.34458 0.79821 0.0
C339 C 0.18424 0.3253 0.83565 0.0
C340 C 0.20428 0.29077 0.8702 0.0
C341 C 0.96371 0.97197 -0.05098 0.0
C342 C 0.14929 0.16775 -0.03192 0.0
C343 C 0.10299 0.04786 0.90222 0.0
N344 N 0.16828 0.13519 0.92494 0.0
C345 C 0.06391 0.13079 -0.00342 0.0
C346 C 0.97297 0.04186 -0.01029 0.0
C347 C 0.3782 0.21827 -0.00175 0.0
C348 C 0.62531 0.31143 0.87381 0.0
C349 C 0.61208 0.34147 -0.04095 0.0
C350 C 0.66763 0.31521 -0.05317 0.0
C351 C 0.67328 0.29884 0.9039 0.0
N352 N 0.56623 0.35539 0.9294 0.0
C353 C 0.57374 0.34207 0.88703 0.0
Co354 Co 0.81395 0.98199 0.62386 0.0
Co355 Co 0.62147 0.95295 0.58893 0.0
O356 O 0.69807 0.95245 0.63242 0.0
C357 C 0.72983 0.81609 0.68193 0.0
O358 O 0.66146 0.78236 0.65917 0.0
C359 C 0.57832 1.01609 0.67352 0.0
O360 O 0.63691 1.01287 0.69517 0.0
O361 O 0.70847 0.06391 0.5622 0.0
O362 O 0.82743 0.07623 0.58448 0.0
H363 H 0.52273 0.9604 0.43987 0.0
H364 H 0.74661 0.96626 0.71193 0.0
O365 O 0.79473 0.88504 0.66781 0.0
H366 H 0.97371 0.25682 0.70024 0.0
H367 H 0.20007 0.04661 0.59643 0.0
H368 H 0.90736 0.04842 0.54745 0.0
H369 H 0.937 0.16183 0.63879 0.0
H370 H 0.94647 0.99977 0.62973 0.0
O371 O 0.57309 1.00424 0.63243 0.0
H372 H 0.62721 0.98051 0.49429 0.0
H373 H 0.44617 0.91582 0.59239 0.0
H374 H 0.10656 0.14383 0.53726 0.0
H375 H 0.77354 0.06249 0.77183 0.0
H376 H 0.14953 0.09047 0.56912 0.0
H377 H 0.88907 0.20883 0.76663 0.0
O378 O 0.78259 0.90797 0.56975 0.0
H379 H 0.47763 0.72237 0.69798 0.0
H380 H 0.49976 0.79784 0.5459 0.0
H381 H 0.40073 0.65422 0.56774 0.0
H382 H 0.39092 0.61465 0.64438 0.0
H383 H 0.5692 0.86605 0.67516 0.0
H384 H 0.34169 0.89723 0.53961 0.0
H385 H 0.37931 0.92093 0.46213 0.0
O386 O 0.66411 0.90219 0.54598 0.0
C387 C 0.78615 0.08853 0.5557 0.0
C388 C 0.50633 0.95319 0.47342 0.0
C389 C 0.40446 0.9178 0.52915 0.0
N390 N 0.54334 0.95024 0.5467 0.0
C391 C 0.56503 0.96369 0.50443 0.0
C392 C 0.4645 0.92888 0.55921 0.0
C393 C 0.4256 0.93041 0.48593 0.0
C394 C 0.79554 1.03025 0.7088 0.0
N395 N 0.84103 0.05765 0.6719 0.0
C396 C 0.81026 0.08467 0.74287 0.0
C397 C 0.87481 0.16679 0.73987 0.0
C398 C 0.92158 0.19407 0.70242 0.0
C399 C 0.90144 0.13938 0.66792 0.0
C400 C 0.14213 0.06091 0.58955 0.0
C401 C 0.95677 0.07148 0.57018 0.0
C402 C 1.00258 0.99762 0.63613 0.0
N403 N 0.93745 1.01977 0.61331 0.0
C404 C 1.0424 0.11986 0.54179 0.0
C405 C 0.13325 0.1217 0.54881 0.0
C406 C 0.72728 0.8927 0.54014 0.0
C407 C 0.48017 0.73882 0.66457 0.0
C408 C 0.49346 0.78213 0.57933 0.0
C409 C 0.43784 0.70033 0.59156 0.0
C410 C 0.43215 0.67831 0.63448 0.0
N411 N 0.53934 0.84186 0.60899 0.0
C412 C 0.53183 0.82101 0.65136 0.0
Co413 Co 0.86682 0.79614 0.79063 0.0
Co414 Co 0.70351 0.60374 0.7556 0.0
O415 O 0.78054 0.68027 0.79913 0.0
C416 C 0.94867 0.71201 0.84861 0.0
O417 O 0.9139 0.64356 0.82592 0.0
C418 C 0.59722 0.56076 0.84017 0.0
O419 O 0.65905 0.6194 0.86179 0.0
O420 O 0.67969 0.69081 0.72881 0.0
O421 O 0.78575 0.80971 0.75144 0.0
H422 H 0.59736 0.50505 0.60653 0.0
H423 H 0.81562 0.72876 0.87874 0.0
O424 O 0.94471 0.77692 0.83444 0.0
H425 H 0.75175 0.95563 0.86729 0.0
H426 H 0.18792 0.18223 0.76286 0.0
H427 H 0.89369 0.8889 0.71431 0.0
H428 H 0.81001 0.91911 0.80576 0.0
H429 H 0.9816 0.92866 0.79654 0.0
O430 O 0.60381 0.55544 0.79908 0.0
H431 H 0.68172 0.60952 0.66095 0.0
H432 H 0.56538 0.4285 0.75904 0.0
H433 H 0.99704 0.088 0.70383 0.0
H434 H 0.74656 0.75565 -0.06123 0.0
H435 H 0.09346 0.13132 0.73562 0.0
H436 H 0.71545 0.87101 0.93367 0.0
O437 O 0.90943 0.76491 0.73643 0.0
H438 H 0.79031 0.46 0.86468 0.0
H439 H 0.7369 0.482 0.7126 0.0
H440 H 0.7816 0.38306 0.73445 0.0
H441 H 0.81144 0.37334 0.81109 0.0
H442 H 0.738 0.55141 0.84185 0.0
H443 H 0.47959 0.324 0.70626 0.0
H444 H 0.49348 0.36163 0.62878 0.0
O445 O 0.79693 0.64632 0.71266 0.0
C446 C 0.73282 0.7685 0.72238 0.0
C447 C 0.58818 0.48865 0.64008 0.0
C448 C 0.52174 0.38677 0.6958 0.0
N449 N 0.62812 0.52565 0.71336 0.0
C450 C 0.63636 0.54734 0.67109 0.0
C451 C 0.57065 0.44682 0.72587 0.0
C452 C 0.53026 0.40792 0.65259 0.0
C453 C 0.80054 0.77769 0.87567 0.0
N454 N 0.81843 0.82316 0.83878 0.0
C455 C 0.76096 0.79237 0.90982 0.0
C456 C 0.74321 0.85681 0.90687 0.0
C457 C 0.76248 0.90356 0.86943 0.0
C458 C 0.79701 0.88352 0.83487 0.0
C459 C 0.11572 0.12411 0.75606 0.0
C460 C 0.92 0.93848 0.73695 0.0
C461 C 1.03982 0.98486 0.80286 0.0
N462 N 0.95253 0.91953 0.78012 0.0
C463 C 0.95697 1.02385 0.70845 0.0
C464 C 1.04587 0.11482 0.71532 0.0
C465 C 0.86951 0.70959 0.70681 0.0
C466 C 0.77636 0.46249 0.83127 0.0
C467 C 0.7463 0.47571 0.74603 0.0
C468 C 0.77256 0.42015 0.75826 0.0
C469 C 0.78893 0.41452 0.80118 0.0
N470 N 0.7324 0.52157 0.77568 0.0
C471 C 0.74573 0.51407 0.81805 0.0
Co472 Co 0.10586 0.8494 -0.04278 0.0
Co473 Co 0.13482 0.68594 0.92226 0.0
O474 O 0.13534 0.76302 -0.03424 0.0
C475 C 0.27175 0.93111 0.01526 0.0
O476 O 0.3055 0.89647 -0.00748 0.0
C477 C 0.07164 0.57966 0.00686 0.0
O478 O 0.07487 0.64149 0.0285 0.0
O479 O 1.02386 0.66202 0.89554 0.0
O480 O 1.01152 0.7686 0.91788 0.0
H481 H 0.12736 0.57977 0.7732 0.0
H482 H 0.12167 0.7979 0.04532 0.0
O483 O 0.20282 0.92709 0.00113 0.0
H484 H 0.83105 0.73432 0.03364 0.0
H485 H 1.04143 0.171 0.92964 0.0
H486 H 1.03948 0.87639 0.88087 0.0
H487 H 0.92602 0.7926 -0.02783 0.0
H488 H 0.08831 0.96431 -0.03689 0.0
O489 O 0.08352 0.58628 -0.03424 0.0
H490 H 0.10725 0.66413 0.82762 0.0
H491 H 0.17191 0.54776 0.92571 0.0
H492 H 0.944 0.98004 0.87067 0.0
H493 H 1.02547 0.72863 0.10523 0.0
H494 H 0.9975 0.07649 0.90243 0.0
H495 H 0.87909 0.69775 0.10003 0.0
O496 O 0.17983 0.89203 0.90311 0.0
H497 H 0.36543 0.7727 0.0313 0.0
H498 H 0.28992 0.71932 0.87923 0.0
H499 H 0.43357 0.76399 0.90105 0.0
H500 H 0.47317 0.79378 -0.02231 0.0
H501 H 0.22173 0.72053 0.00849 0.0
H502 H 0.19047 0.46185 0.87293 0.0
H503 H 0.16681 0.47581 0.79545 0.0
O504 O 0.18557 0.77934 0.87931 0.0
C505 C 0.99928 0.71512 0.88905 0.0
C506 C 0.13456 0.57058 0.80675 0.0
C507 C 0.16993 0.50407 0.86247 0.0
N508 N 0.13751 0.61053 0.88003 0.0
C509 C 0.12406 0.61877 0.83776 0.0
C510 C 0.15886 0.55303 0.89254 0.0
C511 C 0.15733 0.51262 0.81926 0.0
C512 C 0.05767 0.78284 0.04219 0.0
N513 N 1.03024 0.80087 0.00528 0.0
C514 C 1.00327 0.74315 0.07627 0.0
C515 C 0.92112 0.72552 0.07327 0.0
C516 C 0.89381 0.74496 0.03581 0.0
C517 C 0.94849 0.77951 0.00131 0.0
C518 C 1.02711 0.09873 0.92282 0.0
C519 C 1.01643 0.90274 0.90362 0.0
C520 C 0.09051 1.0226 -0.03054 0.0
N521 N 0.06823 0.93523 -0.05329 0.0
C522 C 0.968 0.93988 0.87523 0.0
C523 C 0.96621 1.0289 0.88217 0.0
C524 C 0.19503 0.85199 0.87348 0.0
C525 C 0.34897 0.75878 -0.00211 0.0
C526 C 0.30564 0.72875 0.91265 0.0
C527 C 0.38746 0.75497 0.92487 0.0
C528 C 0.40949 0.77132 -0.03221 0.0
N529 N 0.24591 0.71488 -0.05769 0.0
C530 C 0.26677 0.72822 -0.01532 0.0
Co531 Co 0.29145 0.08817 0.12387 0.0
Co532 Co 0.48394 0.11725 0.08893 0.0
O533 O 0.40734 0.11775 0.13243 0.0
C534 C 0.37557 0.25409 0.18193 0.0
O535 O 0.44396 0.2878 0.15919 0.0
C536 C 0.52703 0.05406 0.17352 0.0
O537 O 0.46842 0.05727 0.19516 0.0
O538 O 0.39692 1.00631 0.06218 0.0
O539 O 0.27797 0.99384 0.08455 0.0
H540 H 0.58268 0.10981 -0.06013 0.0
H541 H 0.35881 0.10404 0.21196 0.0
O542 O 0.31066 0.18516 0.16779 0.0
H543 H 0.13181 0.81342 0.20034 0.0
H544 H 0.9053 1.0234 0.09638 0.0
H545 H 0.19822 1.02189 0.04748 0.0
H546 H 0.16844 0.90835 0.13886 0.0
H547 H 0.15892 0.07036 0.12976 0.0
O548 O 0.53229 0.06593 0.13242 0.0
H549 H 0.4782 0.08969 -0.00571 0.0
H550 H 0.65922 0.15439 0.09239 0.0
H551 H 0.99903 0.9264 0.03721 0.0
H552 H 0.33191 1.0079 0.2719 0.0
H553 H 0.95595 0.97964 0.06907 0.0
H554 H 0.21644 0.86152 0.26673 0.0
O555 O 0.32278 0.16215 0.06974 0.0
H556 H 0.62772 0.3478 0.198 0.0
H557 H 0.60565 0.27237 0.04592 0.0
H558 H 0.70466 0.41599 0.06776 0.0
H559 H 0.71443 0.45555 0.1444 0.0
H560 H 0.5362 0.20412 0.17517 0.0
H561 H 0.76372 0.17303 0.03961 0.0
H562 H 0.7261 0.14931 -0.03787 0.0
O563 O 0.44132 0.16804 0.04598 0.0
C564 C 0.31923 0.98169 0.0557 0.0
C565 C 0.59908 0.11702 -0.02658 0.0
C566 C 0.70095 0.15244 0.02915 0.0
N567 N 0.56206 0.11997 0.0467 0.0
C568 C 0.54038 0.10651 0.00443 0.0
C569 C 0.6409 0.14133 0.05921 0.0
C570 C 0.67981 0.13981 -0.01407 0.0
C571 C 0.30989 0.04004 0.20884 0.0
N572 N 0.2644 1.01258 0.17195 0.0
C573 C 0.29519 0.98567 0.24294 0.0
C574 C 0.23068 0.90353 0.23996 0.0
C575 C 0.18391 0.87619 0.20251 0.0
C576 C 0.20401 0.93084 0.16799 0.0
C577 C 0.9633 1.00917 0.08951 0.0
C578 C 0.14875 0.99876 0.07019 0.0
C579 C 0.10278 0.07246 0.13614 0.0
N580 N 0.16797 0.05039 0.11334 0.0
C581 C 0.06318 0.95038 0.04176 0.0
C582 C 0.97229 0.94846 0.04876 0.0
C583 C 0.37812 0.17749 0.04013 0.0
C584 C 0.6252 0.33136 0.16459 0.0
C585 C 0.61195 0.28807 0.07935 0.0
C586 C 0.66755 0.36987 0.09157 0.0
C587 C 0.67321 0.39188 0.1345 0.0
N588 N 0.56607 0.22833 0.109 0.0
C589 C 0.57357 0.24917 0.15137 0.0
Co590 Co 0.23847 0.27399 0.29061 0.0
Co591 Co 0.40182 0.46639 0.2556 0.0
O592 O 0.32478 0.38985 0.29912 0.0
C593 C 0.15664 0.35812 0.34861 0.0
O594 O 0.19137 0.42655 0.32591 0.0
C595 C 0.50812 0.50943 0.34017 0.0
O596 O 0.44629 0.4508 0.36181 0.0
O597 O 0.42568 0.37933 0.22883 0.0
O598 O 0.31947 0.26043 0.25138 0.0
H599 H 0.50798 0.56508 0.10653 0.0
H600 H 0.2898 0.34136 0.37872 0.0
O601 O 0.16064 0.29321 0.33446 0.0
H602 H 0.35352 0.11439 0.36719 0.0
H603 H 0.91725 0.88793 0.26291 0.0
H604 H 0.21157 0.18105 0.21427 0.0
H605 H 0.29527 0.15098 0.30568 0.0
H606 H 0.12368 0.14149 0.29651 0.0
O607 O 0.50151 0.51472 0.29908 0.0
H608 H 0.42362 0.46061 0.16095 0.0
H609 H 0.53997 0.64164 0.25904 0.0
H610 H 0.10813 0.98195 0.20388 0.0
H611 H 0.3589 0.31443 0.43871 0.0
H612 H 1.01171 0.93873 0.23567 0.0
H613 H 0.3899 0.199 0.43358 0.0
O614 O 0.19585 0.30524 0.23644 0.0
H615 H 0.31504 0.61017 0.36466 0.0
H616 H 0.36844 0.58812 0.21258 0.0
H617 H 0.32375 0.68708 0.23442 0.0
H618 H 0.29394 0.69684 0.31106 0.0
H619 H 0.3673 0.51872 0.34184 0.0
H620 H 0.62578 0.74613 0.20626 0.0
H621 H 0.61188 0.70849 0.12878 0.0
O622 O 0.30841 0.42378 0.21265 0.0
C623 C 0.37255 0.30165 0.22238 0.0
C624 C 0.51716 0.58148 0.14008 0.0
C625 C 0.58361 0.68335 0.1958 0.0
N626 N 0.47722 0.54448 0.21336 0.0
C627 C 0.46898 0.52279 0.17109 0.0
C628 C 0.53469 0.62331 0.22586 0.0
C629 C 0.57509 0.66221 0.15258 0.0
C630 C 0.30486 0.29242 0.37563 0.0
N631 N 0.28692 0.24694 0.33873 0.0
C632 C 0.34446 0.27771 0.40975 0.0
C633 C 0.36215 0.21323 0.40679 0.0
C634 C 0.34282 0.16648 0.36934 0.0
C635 C 0.3083 0.18656 0.3348 0.0
C636 C 0.98946 0.94599 0.2561 0.0
C637 C 0.18526 0.13153 0.23695 0.0
C638 C 0.06544 0.08532 0.30284 0.0
N639 N 0.15274 0.15058 0.28009 0.0
C640 C 0.14823 0.0461 0.20848 0.0
C641 C 0.05929 0.95518 0.21538 0.0
C642 C 0.23581 0.36053 0.20681 0.0
C643 C 0.32898 0.60766 0.33126 0.0
C644 C 0.35902 0.59441 0.24601 0.0
C645 C 0.33279 0.64999 0.25824 0.0
C646 C 0.31642 0.65565 0.30116 0.0
N647 N 0.37291 0.54855 0.27567 0.0
C648 C 0.35958 0.55606 0.31804 0.0
Co649 Co 0.99951 0.22084 0.45724 0.0
Co650 Co 0.97051 0.38426 0.42226 0.0
O651 O 0.97 0.30719 0.46577 0.0
C652 C 0.8336 0.1391 0.51525 0.0
O653 O 0.79987 0.17379 0.49254 0.0
C654 C 1.03373 0.49053 0.50685 0.0
O655 O 1.03052 0.4287 0.52849 0.0
O656 O 0.08145 0.40814 0.39552 0.0
O657 O 0.09394 0.30172 0.41795 0.0
H658 H 0.97796 0.49043 0.2732 0.0
H659 H 0.98356 0.27221 0.54534 0.0
O660 O 0.9025 0.1431 0.5011 0.0
H661 H 0.27423 0.33595 0.53374 0.0
H662 H 0.06409 0.89937 0.42959 0.0
H663 H 0.06575 0.19389 0.38091 0.0
H664 H 0.17933 0.27765 0.47225 0.0
H665 H 1.01709 0.10595 0.46314 0.0
O666 O 1.02184 0.48392 0.46576 0.0
H667 H 0.99807 0.40606 0.32762 0.0
H668 H 0.93342 0.52243 0.42572 0.0
H669 H 0.16131 0.09032 0.37063 0.0
H670 H 0.07967 0.34143 0.60529 0.0
H671 H 0.10792 0.99387 0.40238 0.0
H672 H 0.22609 0.37243 0.60012 0.0
O673 O 0.92558 0.17822 0.4031 0.0
H674 H 0.73993 0.29748 0.53131 0.0
H675 H 0.8154 0.35088 0.37924 0.0
H676 H 0.67175 0.30619 0.40107 0.0
H677 H 0.63217 0.27638 0.47771 0.0
H678 H 0.88363 0.34971 0.5085 0.0
H679 H 0.91481 0.60831 0.37294 0.0
H680 H 0.93849 0.59436 0.29546 0.0
O681 O 0.91973 0.29086 0.37931 0.0
C682 C 0.10603 0.35504 0.38905 0.0
C683 C 0.97076 0.49961 0.30675 0.0
C684 C 0.93538 0.5661 0.36248 0.0
N685 N 0.96782 0.45967 0.38003 0.0
C686 C 0.98126 0.45143 0.33776 0.0
C687 C 0.94647 0.51716 0.39254 0.0
C688 C 0.94798 0.55757 0.31926 0.0
C689 C 1.04756 0.28729 0.54223 0.0
N690 N 0.07505 0.26931 0.50533 0.0
C691 C 0.10192 0.32696 0.57633 0.0
C692 C 0.18408 0.34465 0.57335 0.0
C693 C 0.21146 0.32527 0.5359 0.0
C694 C 0.15682 0.29071 0.50138 0.0
C695 C 0.07834 0.97162 0.42279 0.0
C696 C 0.08886 0.16754 0.40363 0.0
C697 C 1.01494 0.04767 0.46948 0.0
N698 N 1.03714 0.13503 0.44673 0.0
C699 C 0.13729 0.13045 0.3752 0.0
C700 C 0.13916 0.04146 0.38212 0.0
C701 C 0.91031 0.21823 0.37348 0.0
C702 C 0.75638 0.31141 0.49791 0.0
C703 C 0.79969 0.34146 0.41267 0.0
C704 C 0.71787 0.31522 0.42489 0.0
C705 C 0.69584 0.29886 0.46781 0.0
N706 N 0.85943 0.35534 0.44232 0.0
C707 C 0.83858 0.34201 0.48469 0.0
loop_
_geom_bond_atom_site_label_1
_geom_bond_atom_site_label_2
_geom_bond_distance
_geom_bond_site_symmetry_2
_ccdc_geom_bond_type
Co0 O2 2.143 . S
Co0 O8 2.074 1_455 S
Co0 O11 2.093 . S
Co0 O24 2.097 . S
Co0 N41 2.151 1_455 S
Co0 N49 2.214 . S
Co1 O2 2.160 . S
Co1 O7 2.058 1_455 S
Co1 O17 2.057 . S
Co1 O32 2.037 . S
Co1 N36 2.145 . S
Co1 N57 2.257 . S
O2 Co0 2.143 . S
O2 Co1 2.160 . S
C3 O4 1.278 . S
C3 O11 1.224 . S
O4 C3 1.278 . S
C5 O6 1.245 . S
C5 O17 1.232 . S
O6 C5 1.245 . S
O7 Co1 2.058 1_655 S
O7 C33 1.269 . S
O8 Co0 2.074 1_655 S
O8 C33 1.257 . S
H9 C34 0.930 . S
H10 C40 0.930 . S
O11 Co0 2.093 . S
O11 C3 1.224 . S
H12 C44 0.929 . S
H13 C46 0.930 1_565 S
H14 C47 0.930 . S
H15 C45 0.929 . S
H16 C48 0.928 . S
O17 Co1 2.057 . S
O17 C5 1.232 . S
H18 C37 0.929 . S
H19 C38 0.929 . S
H20 C50 0.931 . S
H21 C42 0.929 . S
H22 C51 0.930 1_655 S
H23 C43 0.931 1_556 S
O24 Co0 2.097 . S
O24 C52 1.214 . S
H25 C53 0.929 . S
H26 C54 0.929 . S
H27 C55 0.930 . S
H28 C56 0.929 . S
H29 C58 0.930 . S
H30 C35 0.930 . S
H31 C39 0.930 . S
O32 Co1 2.037 . S
O32 C52 1.234 . S
C33 O7 1.269 . S
C33 O8 1.257 . S
C34 H9 0.930 . S
C34 C37 1.388 . S
C34 C39 1.418 . S
C35 H30 0.930 . S
C35 C38 1.404 . S
C35 C39 1.353 . S
N36 Co1 2.145 . S
N36 C37 1.397 . S
N36 C38 1.334 . S
C37 H18 0.929 . S
C37 C34 1.388 . S
C37 N36 1.397 . S
C38 H19 0.929 . S
C38 C35 1.404 . S
C38 N36 1.334 . S
C39 H31 0.930 . S
C39 C34 1.418 . S
C39 C35 1.353 . S
C40 H10 0.930 . S
C40 N41 1.330 1_455 S
C40 C42 1.446 1_454 S
N41 Co0 2.151 1_655 S
N41 C40 1.330 1_655 S
N41 C45 1.418 . S
C42 H21 0.929 . S
C42 C40 1.446 1_656 S
C42 C43 1.332 1_556 S
C43 H23 0.931 1_554 S
C43 C42 1.332 1_554 S
C43 C44 1.267 . S
C44 H12 0.929 . S
C44 C43 1.267 . S
C44 C45 1.251 . S
C45 H15 0.929 . S
C45 N41 1.418 . S
C45 C44 1.251 . S
C46 H13 0.930 1_545 S
C46 C48 1.406 . S
C46 C51 1.261 1_545 S
C47 H14 0.930 . S
C47 N49 1.325 . S
C47 C50 1.357 . S
C48 H16 0.928 . S
C48 C46 1.406 . S
C48 N49 1.261 . S
N49 Co0 2.214 . S
N49 C47 1.325 . S
N49 C48 1.261 . S
C50 H20 0.931 . S
C50 C47 1.357 . S
C50 C51 1.312 1_545 S
C51 H22 0.930 1_455 S
C51 C46 1.261 1_565 S
C51 C50 1.312 1_565 S
C52 O24 1.214 . S
C52 O32 1.234 . S
C53 H25 0.929 . S
C53 C56 1.391 . S
C53 C58 1.391 . S
C54 H26 0.929 . S
C54 C55 1.390 . S
C54 N57 1.391 . S
C55 H27 0.930 . S
C55 C54 1.390 . S
C55 C56 1.392 . S
C56 H28 0.929 . S
C56 C53 1.391 . S
C56 C55 1.392 . S
N57 Co1 2.257 . S
N57 C54 1.391 . S
N57 C58 1.388 . S
C58 H29 0.930 . S
C58 C53 1.391 . S
C58 N57 1.388 . S
Co59 O61 2.143 . S
Co59 O67 2.074 1_545 S
Co59 O70 2.093 . S
Co59 O83 2.097 . S
Co59 N100 2.151 1_545 S
Co59 N108 2.214 . S
Co60 O61 2.160 . S
Co60 O66 2.058 1_545 S
Co60 O76 2.057 . S
Co60 O91 2.037 . S
Co60 N95 2.145 . S
Co60 N116 2.257 . S
O61 Co59 2.143 . S
O61 Co60 2.160 . S
C62 O63 1.278 . S
C62 O70 1.224 . S
O63 C62 1.278 . S
C64 O65 1.245 . S
C64 O76 1.232 . S
O65 C64 1.245 . S
O66 Co60 2.058 1_565 S
O66 C92 1.269 . S
O67 Co59 2.074 1_565 S
O67 C92 1.257 . S
H68 C93 0.930 . S
H69 C99 0.930 . S
O70 Co59 2.093 . S
O70 C62 1.224 . S
H71 C103 0.929 . S
H72 C105 0.930 . S
H73 C106 0.930 . S
H74 C104 0.929 . S
H75 C107 0.928 . S
O76 Co60 2.057 . S
O76 C64 1.232 . S
H77 C96 0.929 . S
H78 C97 0.929 . S
H79 C109 0.932 . S
H80 C101 0.929 . S
H81 C110 0.930 1_565 S
H82 C102 0.931 . S
O83 Co59 2.097 . S
O83 C111 1.214 . S
H84 C112 0.929 . S
H85 C113 0.929 . S
H86 C114 0.930 . S
H87 C115 0.929 . S
H88 C117 0.930 . S
H89 C94 0.930 . S
H90 C98 0.930 . S
O91 Co60 2.037 . S
O91 C111 1.234 . S
C92 O66 1.269 . S
C92 O67 1.257 . S
C93 H68 0.930 . S
C93 C96 1.388 . S
C93 C98 1.418 . S
C94 H89 0.930 . S
C94 C97 1.404 . S
C94 C98 1.353 . S
N95 Co60 2.145 . S
N95 C96 1.397 . S
N95 C97 1.334 . S
C96 H77 0.929 . S
C96 C93 1.388 . S
C96 N95 1.397 . S
C97 H78 0.929 . S
C97 C94 1.404 . S
C97 N95 1.334 . S
C98 H90 0.930 . S
C98 C93 1.418 . S
C98 C94 1.353 . S
C99 H69 0.930 . S
C99 N100 1.330 1_545 S
C99 C101 1.446 1_545 S
N100 Co59 2.151 1_565 S
N100 C99 1.330 1_565 S
N100 C104 1.418 . S
C101 H80 0.929 . S
C101 C99 1.446 1_565 S
C101 C102 1.332 . S
C102 H82 0.931 . S
C102 C101 1.332 . S
C102 C103 1.267 . S
C103 H71 0.929 . S
C103 C102 1.267 . S
C103 C104 1.251 . S
C104 H74 0.929 . S
C104 N100 1.418 . S
C104 C103 1.251 . S
C105 H72 0.930 . S
C105 C107 1.406 1_455 S
C105 C110 1.261 . S
C106 H73 0.930 . S
C106 N108 1.325 . S
C106 C109 1.357 . S
C107 H75 0.928 . S
C107 C105 1.406 1_655 S
C107 N108 1.261 . S
N108 Co59 2.214 . S
N108 C106 1.325 . S
N108 C107 1.261 . S
C109 H79 0.932 . S
C109 C106 1.357 . S
C109 C110 1.312 1_655 S
C110 H81 0.930 1_545 S
C110 C105 1.261 . S
C110 C109 1.312 1_455 S
C111 O83 1.214 . S
C111 O91 1.234 . S
C112 H84 0.929 . S
C112 C115 1.391 . S
C112 C117 1.391 . S
C113 H85 0.929 . S
C113 C114 1.390 . S
C113 N116 1.391 . S
C114 H86 0.930 . S
C114 C113 1.390 . S
C114 C115 1.392 . S
C115 H87 0.929 . S
C115 C112 1.391 . S
C115 C114 1.392 . S
N116 Co60 2.257 . S
N116 C113 1.391 . S
N116 C117 1.388 . S
C117 H88 0.930 . S
C117 C112 1.391 . S
C117 N116 1.388 . S
Co118 O120 2.143 . S
Co118 O126 2.074 . S
Co118 O129 2.093 . S
Co118 O142 2.097 . S
Co118 N159 2.151 . S
Co118 N167 2.214 . S
Co119 O120 2.160 . S
Co119 O125 2.058 . S
Co119 O135 2.057 . S
Co119 O150 2.037 . S
Co119 N154 2.145 . S
Co119 N175 2.257 . S
O120 Co118 2.143 . S
O120 Co119 2.160 . S
C121 O122 1.278 . S
C121 O129 1.224 . S
O122 C121 1.278 . S
C123 O124 1.245 . S
C123 O135 1.232 . S
O124 C123 1.245 . S
O125 Co119 2.058 . S
O125 C151 1.269 . S
O126 Co118 2.074 . S
O126 C151 1.257 . S
H127 C152 0.930 . S
H128 C158 0.930 . S
O129 Co118 2.093 . S
O129 C121 1.224 . S
H130 C162 0.929 . S
H131 C164 0.930 1_455 S
H132 C165 0.930 . S
H133 C163 0.929 . S
H134 C166 0.928 . S
O135 Co119 2.057 . S
O135 C123 1.232 . S
H136 C155 0.929 . S
H137 C156 0.929 . S
H138 C168 0.931 . S
H139 C160 0.929 . S
H140 C169 0.930 . S
H141 C161 0.931 . S
O142 Co118 2.097 . S
O142 C170 1.214 . S
H143 C171 0.929 . S
H144 C172 0.929 . S
H145 C173 0.930 . S
H146 C174 0.929 . S
H147 C176 0.930 . S
H148 C153 0.930 . S
H149 C157 0.930 . S
O150 Co119 2.037 . S
O150 C170 1.234 . S
C151 O125 1.269 . S
C151 O126 1.257 . S
C152 H127 0.930 . S
C152 C155 1.388 . S
C152 C157 1.418 . S
C153 H148 0.930 . S
C153 C156 1.404 . S
C153 C157 1.353 . S
N154 Co119 2.145 . S
N154 C155 1.397 . S
N154 C156 1.334 . S
C155 H136 0.929 . S
C155 C152 1.388 . S
C155 N154 1.397 . S
C156 H137 0.929 . S
C156 C153 1.404 . S
C156 N154 1.334 . S
C157 H149 0.930 . S
C157 C152 1.418 . S
C157 C153 1.353 . S
C158 H128 0.930 . S
C158 N159 1.330 . S
C158 C160 1.446 . S
N159 Co118 2.151 . S
N159 C158 1.330 . S
N159 C163 1.418 . S
C160 H139 0.929 . S
C160 C158 1.446 . S
C160 C161 1.332 . S
C161 H141 0.931 . S
C161 C160 1.332 . S
C161 C162 1.267 . S
C162 H130 0.929 . S
C162 C161 1.267 . S
C162 C163 1.251 . S
C163 H133 0.929 . S
C163 N159 1.418 . S
C163 C162 1.251 . S
C164 H131 0.930 1_655 S
C164 C166 1.406 1_545 S
C164 C169 1.261 1_655 S
C165 H132 0.930 . S
C165 N167 1.325 . S
C165 C168 1.357 . S
C166 H134 0.928 . S
C166 C164 1.406 1_565 S
C166 N167 1.261 . S
N167 Co118 2.214 . S
N167 C165 1.325 . S
N167 C166 1.261 . S
C168 H138 0.931 . S
C168 C165 1.357 . S
C168 C169 1.312 1_665 S
C169 H140 0.930 . S
C169 C164 1.261 1_455 S
C169 C168 1.312 1_445 S
C170 O142 1.214 . S
C170 O150 1.234 . S
C171 H143 0.929 . S
C171 C174 1.391 . S
C171 C176 1.391 . S
C172 H144 0.929 . S
C172 C173 1.390 . S
C172 N175 1.391 . S
C173 H145 0.930 . S
C173 C172 1.390 . S
C173 C174 1.392 . S
C174 H146 0.929 . S
C174 C171 1.391 . S
C174 C173 1.392 . S
N175 Co119 2.257 . S
N175 C172 1.391 . S
N175 C176 1.388 . S
C176 H147 0.930 . S
C176 C171 1.391 . S
C176 N175 1.388 . S
Co177 O179 2.143 . S
Co177 O185 2.074 1_655 S
Co177 O188 2.093 . S
Co177 O201 2.097 . S
Co177 N218 2.151 1_655 S
Co177 N226 2.214 . S
Co178 O179 2.160 . S
Co178 O184 2.058 1_655 S
Co178 O194 2.057 . S
Co178 O209 2.037 . S
Co178 N213 2.145 . S
Co178 N234 2.257 . S
O179 Co177 2.143 . S
O179 Co178 2.160 . S
C180 O181 1.278 . S
C180 O188 1.224 . S
O181 C180 1.278 . S
C182 O183 1.245 . S
C182 O194 1.232 . S
O183 C182 1.245 . S
O184 Co178 2.058 1_455 S
O184 C210 1.269 . S
O185 Co177 2.074 1_455 S
O185 C210 1.257 . S
H186 C211 0.930 . S
H187 C217 0.930 . S
O188 Co177 2.093 . S
O188 C180 1.224 . S
H189 C221 0.929 . S
H190 C223 0.930 1_545 S
H191 C224 0.930 . S
H192 C222 0.929 . S
H193 C225 0.928 . S
O194 Co178 2.057 . S
O194 C182 1.232 . S
H195 C214 0.929 . S
H196 C215 0.929 . S
H197 C227 0.931 . S
H198 C219 0.929 . S
H199 C228 0.930 1_455 S
H200 C220 0.931 . S
O201 Co177 2.097 . S
O201 C229 1.214 . S
H202 C230 0.929 . S
H203 C231 0.929 . S
H204 C232 0.930 . S
H205 C233 0.929 . S
H206 C235 0.930 . S
H207 C212 0.930 . S
H208 C216 0.930 . S
O209 Co178 2.037 . S
O209 C229 1.234 . S
C210 O184 1.269 . S
C210 O185 1.257 . S
C211 H186 0.930 . S
C211 C214 1.388 . S
C211 C216 1.418 . S
C212 H207 0.930 . S
C212 C215 1.404 . S
C212 C216 1.353 . S
N213 Co178 2.145 . S
N213 C214 1.397 . S
N213 C215 1.334 . S
C214 H195 0.929 . S
C214 C211 1.388 . S
C214 N213 1.397 . S
C215 H196 0.929 . S
C215 C212 1.404 . S
C215 N213 1.334 . S
C216 H208 0.930 . S
C216 C211 1.418 . S
C216 C212 1.353 . S
C217 H187 0.930 . S
C217 N218 1.330 1_655 S
C217 C219 1.446 1_655 S
N218 Co177 2.151 1_455 S
N218 C217 1.330 1_455 S
N218 C222 1.418 . S
C219 H198 0.929 . S
C219 C217 1.446 1_455 S
C219 C220 1.332 . S
C220 H200 0.931 . S
C220 C219 1.332 . S
C220 C221 1.267 . S
C221 H189 0.929 . S
C221 C220 1.267 . S
C221 C222 1.251 . S
C222 H192 0.929 . S
C222 N218 1.418 . S
C222 C221 1.251 . S
C223 H190 0.930 1_565 S
C223 C225 1.406 . S
C223 C228 1.261 1_565 S
C224 H191 0.930 . S
C224 N226 1.325 . S
C224 C227 1.357 . S
C225 H193 0.928 . S
C225 C223 1.406 . S
C225 N226 1.261 . S
N226 Co177 2.214 . S
N226 C224 1.325 . S
N226 C225 1.261 . S
C227 H197 0.931 . S
C227 C224 1.357 . S
C227 C228 1.312 1_565 S
C228 H199 0.930 1_655 S
C228 C223 1.261 1_545 S
C228 C227 1.312 1_545 S
C229 O201 1.214 . S
C229 O209 1.234 . S
C230 H202 0.929 . S
C230 C233 1.391 . S
C230 C235 1.391 . S
C231 H203 0.929 . S
C231 C232 1.390 . S
C231 N234 1.391 . S
C232 H204 0.930 . S
C232 C231 1.390 . S
C232 C233 1.392 . S
C233 H205 0.929 . S
C233 C230 1.391 . S
C233 C232 1.392 . S
N234 Co178 2.257 . S
N234 C231 1.391 . S
N234 C235 1.388 . S
C235 H206 0.930 . S
C235 C230 1.391 . S
C235 N234 1.388 . S
Co236 O238 2.143 . S
Co236 O244 2.074 1_565 S
Co236 O247 2.093 . S
Co236 O260 2.097 . S
Co236 N277 2.151 1_565 S
Co236 N285 2.214 . S
Co237 O238 2.160 . S
Co237 O243 2.058 1_565 S
Co237 O253 2.057 . S
Co237 O268 2.037 . S
Co237 N272 2.145 . S
Co237 N293 2.257 . S
O238 Co236 2.143 . S
O238 Co237 2.160 . S
C239 O240 1.278 . S
C239 O247 1.224 . S
O240 C239 1.278 . S
C241 O242 1.245 . S
C241 O253 1.232 . S
O242 C241 1.245 . S
O243 Co237 2.058 1_545 S
O243 C269 1.269 . S
O244 Co236 2.074 1_545 S
O244 C269 1.257 . S
H245 C270 0.930 1_554 S
H246 C276 0.930 . S
O247 Co236 2.093 . S
O247 C239 1.224 . S
H248 C280 0.929 . S
H249 C282 0.930 . S
H250 C283 0.930 . S
H251 C281 0.929 . S
H252 C284 0.928 . S
O253 Co237 2.057 . S
O253 C241 1.232 . S
H254 C273 0.929 . S
H255 C274 0.929 . S
H256 C286 0.932 . S
H257 C278 0.929 . S
H258 C287 0.930 1_545 S
H259 C279 0.931 . S
O260 Co236 2.097 . S
O260 C288 1.214 . S
H261 C289 0.929 . S
H262 C290 0.929 . S
H263 C291 0.930 . S
H264 C292 0.929 . S
H265 C294 0.930 . S
H266 C271 0.930 . S
H267 C275 0.930 . S
O268 Co237 2.037 . S
O268 C288 1.234 . S
C269 O243 1.269 . S
C269 O244 1.257 . S
C270 H245 0.930 1_556 S
C270 C273 1.388 . S
C270 C275 1.418 . S
C271 H266 0.930 . S
C271 C274 1.404 . S
C271 C275 1.353 . S
N272 Co237 2.145 . S
N272 C273 1.397 . S
N272 C274 1.334 . S
C273 H254 0.929 . S
C273 C270 1.388 . S
C273 N272 1.397 . S
C274 H255 0.929 . S
C274 C271 1.404 . S
C274 N272 1.334 . S
C275 H267 0.930 . S
C275 C270 1.418 . S
C275 C271 1.353 . S
C276 H246 0.930 . S
C276 N277 1.330 1_565 S
C276 C278 1.446 1_565 S
N277 Co236 2.151 1_545 S
N277 C276 1.330 1_545 S
N277 C281 1.418 . S
C278 H257 0.929 . S
C278 C276 1.446 1_545 S
C278 C279 1.332 . S
C279 H259 0.931 . S
C279 C278 1.332 . S
C279 C280 1.267 . S
C280 H248 0.929 . S
C280 C279 1.267 . S
C280 C281 1.251 . S
C281 H251 0.929 . S
C281 N277 1.418 . S
C281 C280 1.251 . S
C282 H249 0.930 . S
C282 C284 1.406 1_655 S
C282 C287 1.261 . S
C283 H250 0.930 . S
C283 N285 1.325 . S
C283 C286 1.357 . S
C284 H252 0.928 . S
C284 C282 1.406 1_455 S
C284 N285 1.261 . S
N285 Co236 2.214 . S
N285 C283 1.325 . S
N285 C284 1.261 . S
C286 H256 0.932 . S
C286 C283 1.357 . S
C286 C287 1.312 1_455 S
C287 H258 0.930 1_565 S
C287 C282 1.261 . S
C287 C286 1.312 1_655 S
C288 O260 1.214 . S
C288 O268 1.234 . S
C289 H261 0.929 . S
C289 C292 1.391 . S
C289 C294 1.391 . S
C290 H262 0.929 . S
C290 C291 1.390 . S
C290 N293 1.391 . S
C291 H263 0.930 . S
C291 C290 1.390 . S
C291 C292 1.392 . S
C292 H264 0.929 . S
C292 C289 1.391 . S
C292 C291 1.392 . S
N293 Co237 2.257 . S
N293 C290 1.391 . S
N293 C294 1.388 . S
C294 H265 0.930 . S
C294 C289 1.391 . S
C294 N293 1.388 . S
Co295 O297 2.143 . S
Co295 O303 2.074 1_556 S
Co295 O306 2.093 . S
Co295 O319 2.097 1_556 S
Co295 N336 2.151 . S
Co295 N344 2.214 . S
Co296 O297 2.160 1_554 S
Co296 O302 2.058 . S
Co296 O312 2.057 1_554 S
Co296 O327 2.037 . S
Co296 N331 2.145 . S
Co296 N352 2.257 1_554 S
O297 Co295 2.143 . S
O297 Co296 2.160 1_556 S
C298 O299 1.278 . S
C298 O306 1.224 . S
O299 C298 1.278 . S
C300 O301 1.245 . S
C300 O312 1.232 . S
O301 C300 1.245 . S
O302 Co296 2.058 . S
O302 C328 1.269 . S
O303 Co295 2.074 1_554 S
O303 C328 1.257 . S
H304 C329 0.930 . S
H305 C335 0.930 . S
O306 Co295 2.093 . S
O306 C298 1.224 . S
H307 C339 0.929 . S
H308 C341 0.930 1_655 S
H309 C342 0.930 . S
H310 C340 0.929 . S
H311 C343 0.928 . S
O312 Co296 2.057 1_556 S
O312 C300 1.232 . S
H313 C332 0.929 . S
H314 C333 0.929 . S
H315 C345 0.931 . S
H316 C337 0.929 . S
H317 C346 0.930 . S
H318 C338 0.931 . S
O319 Co295 2.097 1_554 S
O319 C347 1.214 . S
H320 C348 0.929 . S
H321 C349 0.929 . S
H322 C350 0.930 . S
H323 C351 0.929 . S
H324 C353 0.930 . S
H325 C330 0.930 . S
H326 C334 0.930 . S
O327 Co296 2.037 . S
O327 C347 1.234 . S
C328 O302 1.269 . S
C328 O303 1.257 . S
C329 H304 0.930 . S
C329 C332 1.388 . S
C329 C334 1.418 . S
C330 H325 0.930 . S
C330 C333 1.404 . S
C330 C334 1.353 . S
N331 Co296 2.145 . S
N331 C332 1.397 . S
N331 C333 1.334 . S
C332 H313 0.929 . S
C332 C329 1.388 . S
C332 N331 1.397 . S
C333 H314 0.929 . S
C333 C330 1.404 . S
C333 N331 1.334 . S
C334 H326 0.930 . S
C334 C329 1.418 . S
C334 C330 1.353 . S
C335 H305 0.930 . S
C335 N336 1.330 . S
C335 C337 1.446 . S
N336 Co295 2.151 . S
N336 C335 1.330 . S
N336 C340 1.418 . S
C337 H316 0.929 . S
C337 C335 1.446 . S
C337 C338 1.332 . S
C338 H318 0.931 . S
C338 C337 1.332 . S
C338 C339 1.267 . S
C339 H307 0.929 . S
C339 C338 1.267 . S
C339 C340 1.251 . S
C340 H310 0.929 . S
C340 N336 1.418 . S
C340 C339 1.251 . S
C341 H308 0.930 1_455 S
C341 C343 1.406 1_565 S
C341 C346 1.261 1_456 S
C342 H309 0.930 . S
C342 N344 1.325 1_554 S
C342 C345 1.357 . S
C343 H311 0.928 . S
C343 C341 1.406 1_545 S
C343 N344 1.261 . S
N344 Co295 2.214 . S
N344 C342 1.325 1_556 S
N344 C343 1.261 . S
C345 H315 0.931 . S
C345 C342 1.357 . S
C345 C346 1.312 1_445 S
C346 H317 0.930 . S
C346 C341 1.261 1_654 S
C346 C345 1.312 1_665 S
C347 O319 1.214 . S
C347 O327 1.234 . S
C348 H320 0.929 . S
C348 C351 1.391 . S
C348 C353 1.391 . S
C349 H321 0.929 . S
C349 C350 1.390 . S
C349 N352 1.391 1_554 S
C350 H322 0.930 . S
C350 C349 1.390 . S
C350 C351 1.392 1_554 S
C351 H323 0.929 . S
C351 C348 1.391 . S
C351 C350 1.392 1_556 S
N352 Co296 2.257 1_556 S
N352 C349 1.391 1_556 S
N352 C353 1.388 . S
C353 H324 0.930 . S
C353 C348 1.391 . S
C353 N352 1.388 . S
Co354 O356 2.143 . S
Co354 O362 2.074 1_565 S
Co354 O365 2.093 . S
Co354 O378 2.097 . S
Co354 N395 2.151 1_565 S
Co354 N403 2.214 . S
Co355 O356 2.160 . S
Co355 O361 2.058 1_565 S
Co355 O371 2.057 . S
Co355 O386 2.037 . S
Co355 N390 2.145 . S
Co355 N411 2.257 . S
O356 Co354 2.143 . S
O356 Co355 2.160 . S
C357 O358 1.278 . S
C357 O365 1.224 . S
O358 C357 1.278 . S
C359 O360 1.245 . S
C359 O371 1.232 . S
O360 C359 1.245 . S
O361 Co355 2.058 1_545 S
O361 C387 1.269 . S
O362 Co354 2.074 1_545 S
O362 C387 1.257 . S
H363 C388 0.930 . S
H364 C394 0.930 . S
O365 Co354 2.093 . S
O365 C357 1.224 . S
H366 C398 0.929 . S
H367 C400 0.930 1_455 S
H368 C401 0.930 . S
H369 C399 0.929 . S
H370 C402 0.928 . S
O371 Co355 2.057 . S
O371 C359 1.232 . S
H372 C391 0.929 . S
H373 C392 0.929 . S
H374 C404 0.931 . S
H375 C396 0.929 . S
H376 C405 0.930 1_545 S
H377 C397 0.931 . S
O378 Co354 2.097 . S
O378 C406 1.214 . S
H379 C407 0.929 . S
H380 C408 0.929 . S
H381 C409 0.930 . S
H382 C410 0.929 . S
H383 C412 0.930 . S
H384 C389 0.930 . S
H385 C393 0.930 . S
O386 Co355 2.037 . S
O386 C406 1.234 . S
C387 O361 1.269 . S
C387 O362 1.257 . S
C388 H363 0.930 . S
C388 C391 1.388 . S
C388 C393 1.418 . S
C389 H384 0.930 . S
C389 C392 1.404 . S
C389 C393 1.353 . S
N390 Co355 2.145 . S
N390 C391 1.397 . S
N390 C392 1.334 . S
C391 H372 0.929 . S
C391 C388 1.388 . S
C391 N390 1.397 . S
C392 H373 0.929 . S
C392 C389 1.404 . S
C392 N390 1.334 . S
C393 H385 0.930 . S
C393 C388 1.418 . S
C393 C389 1.353 . S
C394 H364 0.930 . S
C394 N395 1.330 1_565 S
C394 C396 1.446 1_565 S
N395 Co354 2.151 1_545 S
N395 C394 1.330 1_545 S
N395 C399 1.418 . S
C396 H375 0.929 . S
C396 C394 1.446 1_545 S
C396 C397 1.332 . S
C397 H377 0.931 . S
C397 C396 1.332 . S
C397 C398 1.267 . S
C398 H366 0.929 . S
C398 C397 1.267 . S
C398 C399 1.251 . S
C399 H369 0.929 . S
C399 N395 1.418 . S
C399 C398 1.251 . S
C400 H367 0.930 1_655 S
C400 C402 1.406 . S
C400 C405 1.261 1_655 S
C401 H368 0.930 . S
C401 N403 1.325 . S
C401 C404 1.357 . S
C402 H370 0.928 . S
C402 C400 1.406 . S
C402 N403 1.261 . S
N403 Co354 2.214 . S
N403 C401 1.325 . S
N403 C402 1.261 . S
C404 H374 0.931 . S
C404 C401 1.357 . S
C404 C405 1.312 1_655 S
C405 H376 0.930 1_565 S
C405 C400 1.261 1_455 S
C405 C404 1.312 1_455 S
C406 O378 1.214 . S
C406 O386 1.234 . S
C407 H379 0.929 . S
C407 C410 1.391 . S
C407 C412 1.391 . S
C408 H380 0.929 . S
C408 C409 1.390 . S
C408 N411 1.391 . S
C409 H381 0.930 . S
C409 C408 1.390 . S
C409 C410 1.392 . S
C410 H382 0.929 . S
C410 C407 1.391 . S
C410 C409 1.392 . S
N411 Co355 2.257 . S
N411 C408 1.391 . S
N411 C412 1.388 . S
C412 H383 0.930 . S
C412 C407 1.391 . S
C412 N411 1.388 . S
Co413 O415 2.143 . S
Co413 O421 2.074 . S
Co413 O424 2.093 . S
Co413 O437 2.097 . S
Co413 N454 2.151 . S
Co413 N462 2.214 . S
Co414 O415 2.160 . S
Co414 O420 2.058 . S
Co414 O430 2.057 . S
Co414 O445 2.037 . S
Co414 N449 2.145 . S
Co414 N470 2.257 . S
O415 Co413 2.143 . S
O415 Co414 2.160 . S
C416 O417 1.278 . S
C416 O424 1.224 . S
O417 C416 1.278 . S
C418 O419 1.245 . S
C418 O430 1.232 . S
O419 C418 1.245 . S
O420 Co414 2.058 . S
O420 C446 1.269 . S
O421 Co413 2.074 . S
O421 C446 1.257 . S
H422 C447 0.930 . S
H423 C453 0.930 . S
O424 Co413 2.093 . S
O424 C416 1.224 . S
H425 C457 0.929 . S
H426 C459 0.930 1_545 S
H427 C460 0.930 . S
H428 C458 0.929 . S
H429 C461 0.928 . S
O430 Co414 2.057 . S
O430 C418 1.232 . S
H431 C450 0.929 . S
H432 C451 0.929 . S
H433 C463 0.931 . S
H434 C455 0.929 . S
H435 C464 0.930 . S
H436 C456 0.931 1_554 S
O437 Co413 2.097 . S
O437 C465 1.214 . S
H438 C466 0.929 . S
H439 C467 0.929 . S
H440 C468 0.930 . S
H441 C469 0.929 . S
H442 C471 0.930 . S
H443 C448 0.930 . S
H444 C452 0.930 . S
O445 Co414 2.037 . S
O445 C465 1.234 . S
C446 O420 1.269 . S
C446 O421 1.257 . S
C447 H422 0.930 . S
C447 C450 1.388 . S
C447 C452 1.418 . S
C448 H443 0.930 . S
C448 C451 1.404 . S
C448 C452 1.353 . S
N449 Co414 2.145 . S
N449 C450 1.397 . S
N449 C451 1.334 . S
C450 H431 0.929 . S
C450 C447 1.388 . S
C450 N449 1.397 . S
C451 H432 0.929 . S
C451 C448 1.404 . S
C451 N449 1.334 . S
C452 H444 0.930 . S
C452 C447 1.418 . S
C452 C448 1.353 . S
C453 H423 0.930 . S
C453 N454 1.330 . S
C453 C455 1.446 1_556 S
N454 Co413 2.151 . S
N454 C453 1.330 . S
N454 C458 1.418 . S
C455 H434 0.929 . S
C455 C453 1.446 1_554 S
C455 C456 1.332 1_554 S
C456 H436 0.931 1_556 S
C456 C455 1.332 1_556 S
C456 C457 1.267 . S
C457 H425 0.929 . S
C457 C456 1.267 . S
C457 C458 1.251 . S
C458 H428 0.929 . S
C458 N454 1.418 . S
C458 C457 1.251 . S
C459 H426 0.930 1_565 S
C459 C461 1.406 1_455 S
C459 C464 1.261 1_565 S
C460 H427 0.930 . S
C460 N462 1.325 . S
C460 C463 1.357 . S
C461 H429 0.928 . S
C461 C459 1.406 1_655 S
C461 N462 1.261 . S
N462 Co413 2.214 . S
N462 C460 1.325 . S
N462 C461 1.261 . S
C463 H433 0.931 . S
C463 C460 1.357 . S
C463 C464 1.312 1_665 S
C464 H435 0.930 . S
C464 C459 1.261 1_545 S
C464 C463 1.312 1_445 S
C465 O437 1.214 . S
C465 O445 1.234 . S
C466 H438 0.929 . S
C466 C469 1.391 . S
C466 C471 1.391 . S
C467 H439 0.929 . S
C467 C468 1.390 . S
C467 N470 1.391 . S
C468 H440 0.930 . S
C468 C467 1.390 . S
C468 C469 1.392 . S
C469 H441 0.929 . S
C469 C466 1.391 . S
C469 C468 1.392 . S
N470 Co414 2.257 . S
N470 C467 1.391 . S
N470 C471 1.388 . S
C471 H442 0.930 . S
C471 C466 1.391 . S
C471 N470 1.388 . S
Co472 O474 2.143 . S
Co472 O480 2.074 1_454 S
Co472 O483 2.093 . S
Co472 O496 2.097 1_554 S
Co472 N513 2.151 1_455 S
Co472 N521 2.214 . S
Co473 O474 2.160 1_556 S
Co473 O479 2.058 1_455 S
Co473 O489 2.057 1_556 S
Co473 O504 2.037 . S
Co473 N508 2.145 . S
Co473 N529 2.257 1_556 S
O474 Co472 2.143 . S
O474 Co473 2.160 1_554 S
C475 O476 1.278 . S
C475 O483 1.224 . S
O476 C475 1.278 . S
C477 O478 1.245 . S
C477 O489 1.232 . S
O478 C477 1.245 . S
O479 Co473 2.058 1_655 S
O479 C505 1.269 . S
O480 Co472 2.074 1_656 S
O480 C505 1.257 . S
H481 C506 0.930 . S
H482 C512 0.930 . S
O483 Co472 2.093 . S
O483 C475 1.224 . S
H484 C516 0.929 . S
H485 C518 0.930 . S
H486 C519 0.930 . S
H487 C517 0.929 . S
H488 C520 0.928 . S
O489 Co473 2.057 1_554 S
O489 C477 1.232 . S
H490 C509 0.929 . S
H491 C510 0.929 . S
H492 C522 0.932 . S
H493 C514 0.929 . S
H494 C523 0.930 1_655 S
H495 C515 0.931 . S
O496 Co472 2.097 1_556 S
O496 C524 1.214 . S
H497 C525 0.929 . S
H498 C526 0.929 . S
H499 C527 0.930 . S
H500 C528 0.929 . S
H501 C530 0.930 . S
H502 C507 0.930 . S
H503 C511 0.930 . S
O504 Co473 2.037 . S
O504 C524 1.234 . S
C505 O479 1.269 . S
C505 O480 1.257 . S
C506 H481 0.930 . S
C506 C509 1.388 . S
C506 C511 1.418 . S
C507 H502 0.930 . S
C507 C510 1.404 . S
C507 C511 1.353 . S
N508 Co473 2.145 . S
N508 C509 1.397 . S
N508 C510 1.334 . S
C509 H490 0.929 . S
C509 C506 1.388 . S
C509 N508 1.397 . S
C510 H491 0.929 . S
C510 C507 1.404 . S
C510 N508 1.334 . S
C511 H503 0.930 . S
C511 C506 1.418 . S
C511 C507 1.353 . S
C512 H482 0.930 . S
C512 N513 1.330 1_455 S
C512 C514 1.446 1_455 S
N513 Co472 2.151 1_655 S
N513 C512 1.330 1_655 S
N513 C517 1.418 . S
C514 H493 0.929 . S
C514 C512 1.446 1_655 S
C514 C515 1.332 . S
C515 H495 0.931 . S
C515 C514 1.332 . S
C515 C516 1.267 . S
C516 H484 0.929 . S
C516 C515 1.267 . S
C516 C517 1.251 . S
C517 H487 0.929 . S
C517 N513 1.418 . S
C517 C516 1.251 . S
C518 H485 0.930 . S
C518 C520 1.406 1_545 S
C518 C523 1.261 1_554 S
C519 H486 0.930 . S
C519 N521 1.325 1_556 S
C519 C522 1.357 . S
C520 H488 0.928 . S
C520 C518 1.406 1_565 S
C520 N521 1.261 . S
N521 Co472 2.214 . S
N521 C519 1.325 1_554 S
N521 C520 1.261 . S
C522 H492 0.932 . S
C522 C519 1.357 . S
C522 C523 1.312 1_565 S
C523 H494 0.930 1_455 S
C523 C518 1.261 1_556 S
C523 C522 1.312 1_545 S
C524 O496 1.214 . S
C524 O504 1.234 . S
C525 H497 0.929 . S
C525 C528 1.391 . S
C525 C530 1.391 . S
C526 H498 0.929 . S
C526 C527 1.390 . S
C526 N529 1.391 1_556 S
C527 H499 0.930 . S
C527 C526 1.390 . S
C527 C528 1.392 1_556 S
C528 H500 0.929 . S
C528 C525 1.391 . S
C528 C527 1.392 1_554 S
N529 Co473 2.257 1_554 S
N529 C526 1.391 1_554 S
N529 C530 1.388 . S
C530 H501 0.930 . S
C530 C525 1.391 . S
C530 N529 1.388 . S
Co531 O533 2.143 . S
Co531 O539 2.074 1_545 S
Co531 O542 2.093 . S
Co531 O555 2.097 . S
Co531 N572 2.151 1_545 S
Co531 N580 2.214 . S
Co532 O533 2.160 . S
Co532 O538 2.058 1_545 S
Co532 O548 2.057 . S
Co532 O563 2.037 . S
Co532 N567 2.145 . S
Co532 N588 2.257 . S
O533 Co531 2.143 . S
O533 Co532 2.160 . S
C534 O535 1.278 . S
C534 O542 1.224 . S
O535 C534 1.278 . S
C536 O537 1.245 . S
C536 O548 1.232 . S
O537 C536 1.245 . S
O538 Co532 2.058 1_565 S
O538 C564 1.269 . S
O539 Co531 2.074 1_565 S
O539 C564 1.257 . S
H540 C565 0.930 1_556 S
H541 C571 0.930 . S
O542 Co531 2.093 . S
O542 C534 1.224 . S
H543 C575 0.929 . S
H544 C577 0.930 1_655 S
H545 C578 0.930 . S
H546 C576 0.929 . S
H547 C579 0.928 . S
O548 Co532 2.057 . S
O548 C536 1.232 . S
H549 C568 0.929 . S
H550 C569 0.929 . S
H551 C581 0.931 . S
H552 C573 0.929 . S
H553 C582 0.930 1_565 S
H554 C574 0.931 . S
O555 Co531 2.097 . S
O555 C583 1.214 . S
H556 C584 0.929 . S
H557 C585 0.929 . S
H558 C586 0.930 . S
H559 C587 0.929 . S
H560 C589 0.930 . S
H561 C566 0.930 . S
H562 C570 0.930 . S
O563 Co532 2.037 . S
O563 C583 1.234 . S
C564 O538 1.269 . S
C564 O539 1.257 . S
C565 H540 0.930 1_554 S
C565 C568 1.388 . S
C565 C570 1.418 . S
C566 H561 0.930 . S
C566 C569 1.404 . S
C566 C570 1.353 . S
N567 Co532 2.145 . S
N567 C568 1.397 . S
N567 C569 1.334 . S
C568 H549 0.929 . S
C568 C565 1.388 . S
C568 N567 1.397 . S
C569 H550 0.929 . S
C569 C566 1.404 . S
C569 N567 1.334 . S
C570 H562 0.930 . S
C570 C565 1.418 . S
C570 C566 1.353 . S
C571 H541 0.930 . S
C571 N572 1.330 1_545 S
C571 C573 1.446 1_545 S
N572 Co531 2.151 1_565 S
N572 C571 1.330 1_565 S
N572 C576 1.418 . S
C573 H552 0.929 . S
C573 C571 1.446 1_565 S
C573 C574 1.332 . S
C574 H554 0.931 . S
C574 C573 1.332 . S
C574 C575 1.267 . S
C575 H543 0.929 . S
C575 C574 1.267 . S
C575 C576 1.251 . S
C576 H546 0.929 . S
C576 N572 1.418 . S
C576 C575 1.251 . S
C577 H544 0.930 1_455 S
C577 C579 1.406 . S
C577 C582 1.261 1_455 S
C578 H545 0.930 . S
C578 N580 1.325 . S
C578 C581 1.357 . S
C579 H547 0.928 . S
C579 C577 1.406 . S
C579 N580 1.261 . S
N580 Co531 2.214 . S
N580 C578 1.325 . S
N580 C579 1.261 . S
C581 H551 0.931 . S
C581 C578 1.357 . S
C581 C582 1.312 1_455 S
C582 H553 0.930 1_545 S
C582 C577 1.261 1_655 S
C582 C581 1.312 1_655 S
C583 O555 1.214 . S
C583 O563 1.234 . S
C584 H556 0.929 . S
C584 C587 1.391 . S
C584 C589 1.391 . S
C585 H557 0.929 . S
C585 C586 1.390 . S
C585 N588 1.391 . S
C586 H558 0.930 . S
C586 C585 1.390 . S
C586 C587 1.392 . S
C587 H559 0.929 . S
C587 C584 1.391 . S
C587 C586 1.392 . S
N588 Co532 2.257 . S
N588 C585 1.391 . S
N588 C589 1.388 . S
C589 H560 0.930 . S
C589 C584 1.391 . S
C589 N588 1.388 . S
Co590 O592 2.143 . S
Co590 O598 2.074 . S
Co590 O601 2.093 . S
Co590 O614 2.097 . S
Co590 N631 2.151 . S
Co590 N639 2.214 . S
Co591 O592 2.160 . S
Co591 O597 2.058 . S
Co591 O607 2.057 . S
Co591 O622 2.037 . S
Co591 N626 2.145 . S
Co591 N647 2.257 . S
O592 Co590 2.143 . S
O592 Co591 2.160 . S
C593 O594 1.278 . S
C593 O601 1.224 . S
O594 C593 1.278 . S
C595 O596 1.245 . S
C595 O607 1.232 . S
O596 C595 1.245 . S
O597 Co591 2.058 . S
O597 C623 1.269 . S
O598 Co590 2.074 . S
O598 C623 1.257 . S
H599 C624 0.930 . S
H600 C630 0.930 . S
O601 Co590 2.093 . S
O601 C593 1.224 . S
H602 C634 0.929 . S
H603 C636 0.930 1_565 S
H604 C637 0.930 . S
H605 C635 0.929 . S
H606 C638 0.928 . S
O607 Co591 2.057 . S
O607 C595 1.232 . S
H608 C627 0.929 . S
H609 C628 0.929 . S
H610 C640 0.931 . S
H611 C632 0.929 . S
H612 C641 0.930 . S
H613 C633 0.931 . S
O614 Co590 2.097 . S
O614 C642 1.214 . S
H615 C643 0.929 . S
H616 C644 0.929 . S
H617 C645 0.930 . S
H618 C646 0.929 . S
H619 C648 0.930 . S
H620 C625 0.930 . S
H621 C629 0.930 . S
O622 Co591 2.037 . S
O622 C642 1.234 . S
C623 O597 1.269 . S
C623 O598 1.257 . S
C624 H599 0.930 . S
C624 C627 1.388 . S
C624 C629 1.418 . S
C625 H620 0.930 . S
C625 C628 1.404 . S
C625 C629 1.353 . S
N626 Co591 2.145 . S
N626 C627 1.397 . S
N626 C628 1.334 . S
C627 H608 0.929 . S
C627 C624 1.388 . S
C627 N626 1.397 . S
C628 H609 0.929 . S
C628 C625 1.404 . S
C628 N626 1.334 . S
C629 H621 0.930 . S
C629 C624 1.418 . S
C629 C625 1.353 . S
C630 H600 0.930 . S
C630 N631 1.330 . S
C630 C632 1.446 . S
N631 Co590 2.151 . S
N631 C630 1.330 . S
N631 C635 1.418 . S
C632 H611 0.929 . S
C632 C630 1.446 . S
C632 C633 1.332 . S
C633 H613 0.931 . S
C633 C632 1.332 . S
C633 C634 1.267 . S
C634 H602 0.929 . S
C634 C633 1.267 . S
C634 C635 1.251 . S
C635 H605 0.929 . S
C635 N631 1.418 . S
C635 C634 1.251 . S
C636 H603 0.930 1_545 S
C636 C638 1.406 1_655 S
C636 C641 1.261 1_545 S
C637 H604 0.930 . S
C637 N639 1.325 . S
C637 C640 1.357 . S
C638 H606 0.928 . S
C638 C636 1.406 1_455 S
C638 N639 1.261 . S
N639 Co590 2.214 . S
N639 C637 1.325 . S
N639 C638 1.261 . S
C640 H610 0.931 . S
C640 C637 1.357 . S
C640 C641 1.312 1_445 S
C641 H612 0.930 . S
C641 C636 1.261 1_565 S
C641 C640 1.312 1_665 S
C642 O614 1.214 . S
C642 O622 1.234 . S
C643 H615 0.929 . S
C643 C646 1.391 . S
C643 C648 1.391 . S
C644 H616 0.929 . S
C644 C645 1.390 . S
C644 N647 1.391 . S
C645 H617 0.930 . S
C645 C644 1.390 . S
C645 C646 1.392 . S
C646 H618 0.929 . S
C646 C643 1.391 . S
C646 C645 1.392 . S
N647 Co591 2.257 . S
N647 C644 1.391 . S
N647 C648 1.388 . S
C648 H619 0.930 . S
C648 C643 1.391 . S
C648 N647 1.388 . S
Co649 O651 2.143 . S
Co649 O657 2.074 1_655 S
Co649 O660 2.093 . S
Co649 O673 2.097 . S
Co649 N690 2.151 1_655 S
Co649 N698 2.214 . S
Co650 O651 2.160 . S
Co650 O656 2.058 1_655 S
Co650 O666 2.057 . S
Co650 O681 2.037 . S
Co650 N685 2.145 . S
Co650 N706 2.257 . S
O651 Co649 2.143 . S
O651 Co650 2.160 . S
C652 O653 1.278 . S
C652 O660 1.224 . S
O653 C652 1.278 . S
C654 O655 1.245 . S
C654 O666 1.232 . S
O655 C654 1.245 . S
O656 Co650 2.058 1_455 S
O656 C682 1.269 . S
O657 Co649 2.074 1_455 S
O657 C682 1.257 . S
H658 C683 0.930 . S
H659 C689 0.930 . S
O660 Co649 2.093 . S
O660 C652 1.224 . S
H661 C693 0.929 . S
H662 C695 0.930 . S
H663 C696 0.930 . S
H664 C694 0.929 . S
H665 C697 0.928 . S
O666 Co650 2.057 . S
O666 C654 1.232 . S
H667 C686 0.929 . S
H668 C687 0.929 . S
H669 C699 0.932 . S
H670 C691 0.929 . S
H671 C700 0.930 1_455 S
H672 C692 0.931 . S
O673 Co649 2.097 . S
O673 C701 1.214 . S
H674 C702 0.929 . S
H675 C703 0.929 . S
H676 C704 0.930 . S
H677 C705 0.929 . S
H678 C707 0.930 . S
H679 C684 0.930 . S
H680 C688 0.930 . S
O681 Co650 2.037 . S
O681 C701 1.234 . S
C682 O656 1.269 . S
C682 O657 1.257 . S
C683 H658 0.930 . S
C683 C686 1.388 . S
C683 C688 1.418 . S
C684 H679 0.930 . S
C684 C687 1.404 . S
C684 C688 1.353 . S
N685 Co650 2.145 . S
N685 C686 1.397 . S
N685 C687 1.334 . S
C686 H667 0.929 . S
C686 C683 1.388 . S
C686 N685 1.397 . S
C687 H668 0.929 . S
C687 C684 1.404 . S
C687 N685 1.334 . S
C688 H680 0.930 . S
C688 C683 1.418 . S
C688 C684 1.353 . S
C689 H659 0.930 . S
C689 N690 1.330 1_655 S
C689 C691 1.446 1_655 S
N690 Co649 2.151 1_455 S
N690 C689 1.330 1_455 S
N690 C694 1.418 . S
C691 H670 0.929 . S
C691 C689 1.446 1_455 S
C691 C692 1.332 . S
C692 H672 0.931 . S
C692 C691 1.332 . S
C692 C693 1.267 . S
C693 H661 0.929 . S
C693 C692 1.267 . S
C693 C694 1.251 . S
C694 H664 0.929 . S
C694 N690 1.418 . S
C694 C693 1.251 . S
C695 H662 0.930 . S
C695 C697 1.406 1_565 S
C695 C700 1.261 . S
C696 H663 0.930 . S
C696 N698 1.325 . S
C696 C699 1.357 . S
C697 H665 0.928 . S
C697 C695 1.406 1_545 S
C697 N698 1.261 . S
N698 Co649 2.214 . S
N698 C696 1.325 . S
N698 C697 1.261 . S
C699 H669 0.932 . S
C699 C696 1.357 . S
C699 C700 1.312 1_545 S
C700 H671 0.930 1_655 S
C700 C695 1.261 . S
C700 C699 1.312 1_565 S
C701 O673 1.214 . S
C701 O681 1.234 . S
C702 H674 0.929 . S
C702 C705 1.391 . S
C702 C707 1.391 . S
C703 H675 0.929 . S
C703 C704 1.390 . S
C703 N706 1.391 . S
C704 H676 0.930 . S
C704 C703 1.390 . S
C704 C705 1.392 . S
C705 H677 0.929 . S
C705 C702 1.391 . S
C705 C704 1.392 . S
N706 Co650 2.257 . S
N706 C703 1.391 . S
N706 C707 1.388 . S
C707 H678 0.930 . S
C707 C702 1.391 . S
C707 N706 1.388 . S
C477 C5 1.691 . S
C64 C536 1.691 . S
C123 C595 1.691 . S
C182 C654 1.691 . S
C359 C241 1.691 . S
C300 C418 1.691 . S
C3 C328 1.629 . S
C62 C33 1.629 . S
C121 C92 1.629 . S
C151 C180 1.629 . S
C210 C239 1.629 . S
C269 C298 1.629 . S
C446 C357 1.629 . S
C416 C505 1.629 . S
C564 C475 1.629 . S
C534 C623 1.629 . S
C593 C682 1.629 . S
C652 C387 1.629 . S
C642 C52 1.526 . S
C701 C111 1.526 . S
C406 C170 1.526 . S
C229 C465 1.526 . S
C288 C524 1.526 . S
C583 C347 1.526 . S
