# Generated by pormake.
# Topology smu, (6)-cn, num edge types: 1
# Building blocks:
#     Node 0, Type 0, BuildingBlock: INOVEN_clean_sbu_0, # of connection points: 6
#     Node 1, Type 0, BuildingBlock: INOVEN_clean_sbu_0, # of connection points: 6
#     Node 2, Type 0, BuildingBlock: INOVEN_clean_sbu_0, # of connection points: 6
#     Node 3, Type 0, BuildingBlock: INOVEN_clean_sbu_0, # of connection points: 6
#     Node 4, Type 0, BuildingBlock: INOVEN_clean_sbu_0, # of connection points: 6
#     Node 5, Type 0, BuildingBlock: INOVEN_clean_sbu_0, # of connection points: 6
#     Edge 6, Type (0, 0), BuildingBlock: EZIPEK_clean_linker_0, # of connection points: 2
#     Edge 7, Type (0, 0), BuildingBlock: EZIPEK_clean_linker_0, # of connection points: 2
#     Edge 8, Type (0, 0), BuildingBlock: EZIPEK_clean_linker_0, # of connection points: 2
#     Edge 9, Type (0, 0), BuildingBlock: EZIPEK_clean_linker_0, # of connection points: 2
#     Edge 10, Type (0, 0), BuildingBlock: EZIPEK_clean_linker_0, # of connection points: 2
#     Edge 11, Type (0, 0), BuildingBlock: EZIPEK_clean_linker_0, # of connection points: 2
#     Edge 12, Type (0, 0), BuildingBlock: EZIPEK_clean_linker_0, # of connection points: 2
#     Edge 13, Type (0, 0), BuildingBlock: EZIPEK_clean_linker_0, # of connection points: 2
#     Edge 14, Type (0, 0), BuildingBlock: EZIPEK_clean_linker_0, # of connection points: 2
#     Edge 15, Type (0, 0), BuildingBlock: EZIPEK_clean_linker_0, # of connection points: 2
#     Edge 16, Type (0, 0), BuildingBlock: EZIPEK_clean_linker_0, # of connection points: 2
#     Edge 17, Type (0, 0), BuildingBlock: EZIPEK_clean_linker_0, # of connection points: 2
#     Edge 18, Type (0, 0), BuildingBlock: EZIPEK_clean_linker_0, # of connection points: 2
#     Edge 19, Type (0, 0), BuildingBlock: EZIPEK_clean_linker_0, # of connection points: 2
#     Edge 20, Type (0, 0), BuildingBlock: EZIPEK_clean_linker_0, # of connection points: 2
#     Edge 21, Type (0, 0), BuildingBlock: EZIPEK_clean_linker_0, # of connection points: 2
#     Edge 22, Type (0, 0), BuildingBlock: EZIPEK_clean_linker_0, # of connection points: 2
#     Edge 23, Type (0, 0), BuildingBlock: EZIPEK_clean_linker_0, # of connection points: 2
# Relax obj value: 0.228
# Max RMSD: 0.338
# Mean RMSD: 0.338
data_MOF--net-smu--node1-INOVEN_clean_sbu_0--edge1-EZIPEK_clean_linker_0
_symmetry_space_group_name_H-M    P1
_symmetry_Int_Tables_number       1
_symmetry_cell_setting            triclinic
loop_
_symmetry_equiv_pos_as_xyz
'x, y, z'
_cell_length_a     31.30707
_cell_length_b     31.468597
_cell_length_c     19.269731
_cell_angle_alpha  89.61164
_cell_angle_beta   90.125352
_cell_angle_gamma 120.14398
loop_
_atom_site_label
_atom_site_type_symbol
_atom_site_fract_x
_atom_site_fract_y
_atom_site_fract_z
_atom_type_partial_charge
Gd0 Gd 0.40788 0.08377 0.27681 0.0
Gd1 Gd 0.33956 0.12001 0.27775 0.0
C2 C 0.44956 0.20223 0.28086 0.0
C3 C 0.48357 0.0721 0.25564 0.0
C4 C 0.53883 0.10485 0.25885 0.0
C5 C 0.5653 0.10597 0.31885 0.0
C6 C 0.56604 0.13423 0.20173 0.0
C7 C 0.64419 0.16372 0.26404 0.0
C8 C 0.61794 0.16325 0.20434 0.0
C9 C 0.61715 0.13504 0.32143 0.0
C10 C 0.37148 0.0748 0.40465 0.0
C11 C 0.28979 1.00729 0.28611 0.0
C12 C 0.27734 0.14952 0.30023 0.0
C13 C 0.23975 0.16341 0.28748 0.0
C14 C 0.23905 0.1879 0.22701 0.0
C15 C 0.20971 0.15975 0.34299 0.0
C16 C 0.17424 0.20141 0.27622 0.0
C17 C 0.17904 0.17978 0.33846 0.0
C18 C 0.20764 0.20756 0.22204 0.0
C19 C 0.35721 0.09559 0.14502 0.0
O20 O 0.45707 0.16709 0.2578 0.0
O21 O 0.40633 0.19068 0.30541 0.0
O22 O 0.45939 0.06142 0.31429 0.0
O23 O 0.45973 0.07964 0.2057 0.0
O24 O 0.38181 0.04416 0.37563 0.0
O25 O 0.38382 0.11289 0.36581 0.0
O26 O 0.29024 0.04434 0.31703 0.0
O27 O 0.33124 1.01437 0.25484 0.0
O28 O 0.3219 0.17789 0.27639 0.0
O29 O 0.26541 0.10366 0.30845 0.0
O30 O 0.34846 0.13076 0.15822 0.0
O31 O 0.35261 0.07422 0.20124 0.0
H32 H 0.54595 0.08377 0.36376 0.0
H33 H 0.54731 0.13437 0.15448 0.0
H34 H 0.63778 0.1847 0.15916 0.0
H35 H 0.63632 0.13434 0.3679 0.0
H36 H 0.26436 0.19384 0.18487 0.0
H37 H 0.21213 0.14386 0.39194 0.0
H38 H 0.16169 0.18008 0.38644 0.0
H39 H 0.21249 0.22984 0.1768 0.0
Gd40 Gd 0.72743 0.64871 0.26829 0.0
Gd41 Gd 0.83306 0.71409 0.27799 0.0
C42 C 0.80255 0.60425 0.28625 0.0
C43 C 0.6414 0.57548 0.23444 0.0
C44 C 0.61773 0.52055 0.2411 0.0
C45 C 0.58628 0.49539 0.29762 0.0
C46 C 0.62574 0.49249 0.19153 0.0
C47 C 0.57102 0.41609 0.25424 0.0
C48 C 0.6027 0.44099 0.19806 0.0
C49 C 0.56339 0.44398 0.30415 0.0
C50 C 0.7428 0.68632 0.39362 0.0
C51 C 0.7771 0.77126 0.2756 0.0
C52 C 0.92625 0.77055 0.30424 0.0
C53 C 0.97732 0.80845 0.28515 0.0
C54 C 1.00331 0.80003 0.23248 0.0
C55 C 1.00326 0.84942 0.32833 0.0
C56 C 0.08057 0.86988 0.27123 0.0
C57 C 0.05442 0.88001 0.32124 0.0
C58 C 0.05453 0.83052 0.22567 0.0
C59 C 0.79364 0.70086 0.14297 0.0
O60 O 0.76107 0.59792 0.25861 0.0
O61 O 0.83305 0.64667 0.31295 0.0
O62 O 0.6498 0.59991 0.29215 0.0
O63 O 0.6776 0.5984 0.18994 0.0
O64 O 0.70155 0.667 0.36056 0.0
O65 O 0.77436 0.67609 0.3644 0.0
O66 O 0.81712 0.77216 0.2968 0.0
O67 O 0.73859 0.72864 0.2514 0.0
O68 O 0.90749 0.7276 0.27467 0.0
O69 O 0.89322 0.7829 0.31974 0.0
O70 O 0.83725 0.70818 0.1575 0.0
O71 O 0.77688 0.70452 0.19895 0.0
H72 H 0.57893 0.51545 0.33674 0.0
H73 H 0.64949 0.51024 0.14723 0.0
H74 H 0.60894 0.4204 0.15851 0.0
H75 H 0.53887 0.42581 0.34762 0.0
H76 H 0.98451 0.7687 0.19845 0.0
H77 H 0.98433 0.85647 0.36975 0.0
H78 H 0.07386 0.91071 0.35619 0.0
H79 H 0.07405 0.82275 0.18596 0.0
Gd80 Gd 0.97661 0.3323 0.2709 0.0
Gd81 Gd 0.93874 0.22701 0.28014 0.0
C82 C 0.85996 0.26032 0.28172 0.0
C83 C 0.99703 0.42265 0.24914 0.0
C84 C 0.96482 0.44577 0.25379 0.0
C85 C 0.96567 0.47221 0.31323 0.0
C86 C 0.93231 0.44128 0.19969 0.0
C87 C 0.90346 0.48942 0.26386 0.0
C88 C 0.9022 0.46275 0.20466 0.0
C89 C 0.93547 0.4936 0.3182 0.0
C90 C 0.96937 0.30317 0.40825 0.0
C91 C 0.0531 0.28908 0.2842 0.0
C92 C 0.88789 0.13266 0.29926 0.0
C93 C 0.87377 0.08063 0.29002 0.0
C94 C 0.88572 0.06338 0.23014 0.0
C95 C 0.84303 0.04668 0.3403 0.0
C96 C 0.83571 0.97868 0.2716 0.0
C97 C 0.82408 0.99637 0.33114 0.0
C98 C 0.86715 1.01266 0.2213 0.0
C99 C 0.97741 0.26376 0.15073 0.0
O100 O 0.89415 0.3 0.25001 0.0
O101 O 0.87321 0.23231 0.31418 0.0
O102 O 1.00724 0.40797 0.30693 0.0
O103 O 0.9883 0.39141 0.19943 0.0
O104 O 0.95258 0.33014 0.38296 0.0
O105 O 0.98177 0.287 0.357 0.0
O106 O 1.01457 0.24894 0.30856 0.0
O107 O 0.0481 0.32631 0.25846 0.0
O108 O 0.88063 0.15549 0.24774 0.0
O109 O 0.92496 0.16162 0.33929 0.0
O110 O 0.97904 0.22854 0.18323 0.0
O111 O 0.95143 0.2764 0.18739 0.0
H112 H 0.99 0.47665 0.35606 0.0
H113 H 0.93022 0.42131 0.15306 0.0
H114 H 0.87831 0.45913 0.16164 0.0
H115 H 0.93775 0.51421 0.36421 0.0
H116 H 0.9091 0.08896 0.19038 0.0
H117 H 0.83296 0.05908 0.38653 0.0
H118 H 0.80078 0.97107 0.37125 0.0
H119 H 0.87757 0.99998 0.17576 0.0
Gd120 Gd 0.13762 0.3264 0.76701 0.0
Gd121 Gd 0.10386 0.3953 0.79447 0.0
C122 C 1.02532 0.27206 0.7912 0.0
C123 C 0.18399 0.27777 0.7776 0.0
C124 C 0.19489 0.23684 0.77865 0.0
C125 C 0.2052 0.21985 0.71746 0.0
C126 C 0.20458 0.22132 0.84202 0.0
C127 C 0.23059 0.16845 0.78335 0.0
C128 C 0.22332 0.18918 0.84432 0.0
C129 C 0.22367 0.18739 0.71977 0.0
C130 C 0.09417 0.34112 0.65368 0.0
C131 C 0.22194 0.43998 0.77819 0.0
C132 C 0.07713 0.46144 0.78844 0.0
C133 C 0.10632 0.51695 0.78839 0.0
C134 C 0.10259 0.54345 0.84403 0.0
C135 C 0.14029 0.54428 0.73555 0.0
C136 C 0.15791 0.62371 0.78684 0.0
C137 C 0.16657 0.59624 0.73602 0.0
C138 C 0.12901 0.59529 0.8444 0.0
C139 C 0.11807 0.36292 0.91823 0.0
O140 O 0.06165 0.26689 0.76826 0.0
O141 O 1.03182 0.31692 0.80542 0.0
O142 O 0.17916 0.2961 0.71878 0.0
O143 O 0.16153 0.28457 0.83006 0.0
O144 O 0.09337 0.30041 0.66813 0.0
O145 O 0.1236 0.37472 0.69537 0.0
O146 O 0.18651 0.45075 0.78499 0.0
O147 O 0.21126 0.3945 0.77161 0.0
O148 O 0.07699 0.43909 0.84579 0.0
O149 O 0.08012 0.43863 0.73379 0.0
O150 O 0.13643 0.40876 0.90124 0.0
O151 O 0.10203 0.33762 0.86292 0.0
H152 H 0.20135 0.23352 0.66747 0.0
H153 H 0.20038 0.23631 0.89032 0.0
H154 H 0.23459 0.18382 0.89485 0.0
H155 H 0.23496 0.18 0.67068 0.0
H156 H 0.07953 0.52399 0.88826 0.0
H157 H 0.14731 0.52558 0.69399 0.0
H158 H 0.19457 0.61401 0.69665 0.0
H159 H 0.12684 0.61236 0.89155 0.0
Gd160 Gd 0.24138 0.93059 0.78432 0.0
Gd161 Gd 0.34722 0.95833 0.78368 0.0
C162 C 0.31259 0.04347 0.79148 0.0
C163 C 0.14741 0.88825 0.80186 0.0
C164 C 0.09578 0.8759 0.79236 0.0
C165 C 0.06582 0.83772 0.7468 0.0
C166 C 0.07379 0.89462 0.83702 0.0
C167 C 0.99261 0.83339 0.79569 0.0
C168 C 1.02236 0.87379 0.8381 0.0
C169 C 1.01479 0.81655 0.74876 0.0
C170 C 0.28517 0.96932 0.65964 0.0
C171 C 0.26455 0.84251 0.79872 0.0
C172 C 0.43351 0.96916 0.75242 0.0
C173 C 0.45841 0.93984 0.76651 0.0
C174 C 0.50806 0.96288 0.78782 0.0
C175 C 0.43379 0.88882 0.75368 0.0
C176 C 0.50841 0.88536 0.77913 0.0
C177 C 0.45849 0.86207 0.75968 0.0
C178 C 0.53276 0.93592 0.79425 0.0
C179 C 0.3135 0.95701 0.91707 0.0
O180 O 0.26892 1.00772 0.81156 0.0
O181 O 0.34877 0.03435 0.77273 0.0
O182 O 0.16847 0.8768 0.75251 0.0
O183 O 0.1783 0.92494 0.84087 0.0
O184 O 0.24865 0.97198 0.68615 0.0
O185 O 0.29348 0.94036 0.69716 0.0
O186 O 0.31034 0.87443 0.78088 0.0
O187 O 0.2348 0.85868 0.81536 0.0
O188 O 0.42703 0.99228 0.80365 0.0
O189 O 0.39489 0.94809 0.71228 0.0
O190 O 0.34316 0.94101 0.9002 0.0
O191 O 0.30102 0.96786 0.86099 0.0
H192 H 0.08148 0.82208 0.71227 0.0
H193 H 0.09601 0.92372 0.87313 0.0
H194 H 1.00569 0.88772 0.87381 0.0
H195 H 0.99236 0.78585 0.715 0.0
H196 H 0.52813 1.00198 0.79797 0.0
H197 H 0.39557 0.86954 0.73732 0.0
H198 H 0.43882 0.82321 0.74783 0.0
H199 H 0.57124 0.95476 0.80949 0.0
Gd200 Gd 0.74095 0.81705 0.78021 0.0
Gd201 Gd 0.66704 0.71334 0.79712 0.0
C202 C 0.78699 0.75142 0.80287 0.0
C203 C 0.79508 0.91075 0.79089 0.0
C204 C 0.82622 0.96458 0.79694 0.0
C205 C 0.86494 0.99134 0.74971 0.0
C206 C 0.8175 0.98971 0.85002 0.0
C207 C 0.88434 0.06744 0.80708 0.0
C208 C 0.84631 0.04079 0.85493 0.0
C209 C 0.89401 0.04243 0.755 0.0
C210 C 0.72768 0.76352 0.66342 0.0
C211 C 0.62725 0.79012 0.78436 0.0
C212 C 0.59721 0.62225 0.78513 0.0
C213 C 0.54207 0.59943 0.78461 0.0
C214 C 0.51234 0.5616 0.83164 0.0
C215 C 0.51848 0.61547 0.73738 0.0
C216 C 0.43711 0.55549 0.78276 0.0
C217 C 0.46681 0.59378 0.73648 0.0
C218 C 0.46051 0.53991 0.83076 0.0
C219 C 0.70148 0.75648 0.92419 0.0
O220 O 0.79282 0.79451 0.81883 0.0
O221 O 0.74203 0.71365 0.78777 0.0
O222 O 0.79707 0.88676 0.73693 0.0
O223 O 0.76323 0.88364 0.83892 0.0
O224 O 0.76889 0.80149 0.6819 0.0
O225 O 0.69296 0.75952 0.70265 0.0
O226 O 0.61456 0.74341 0.78785 0.0
O227 O 0.67362 0.8246 0.78149 0.0
O228 O 0.62006 0.64069 0.8436 0.0
O229 O 0.62092 0.65044 0.73235 0.0
O230 O 0.6554 0.72901 0.9077 0.0
O231 O 0.72533 0.76505 0.86847 0.0
H232 H 0.87291 0.97281 0.70891 0.0
H233 H 0.7883 0.96997 0.88762 0.0
H234 H 0.8393 0.05957 0.8964 0.0
H235 H 0.92401 0.06246 0.71859 0.0
H236 H 0.5292 0.54858 0.86889 0.0
H237 H 0.53991 0.64478 0.70067 0.0
H238 H 0.44986 0.60653 0.69895 0.0
H239 H 0.43856 0.51047 0.86703 0.0
C240 C 0.37526 0.03201 0.98824 0.0
C241 C 0.32572 0.99318 0.97613 0.0
C242 C 0.29824 0.03703 0.05372 0.0
C243 C 0.34729 0.06793 0.0777 0.0
N244 N 0.43355 0.09478 0.06589 0.0
N245 N 0.23925 0.95903 1.00219 0.0
C246 C 0.38597 0.06473 0.04506 0.0
C247 C 0.28699 0.99576 1.01065 0.0
N248 N 0.4113 0.04195 0.94082 0.0
N249 N 0.26317 0.04937 0.067 0.0
H250 H 0.22963 0.92859 0.97088 0.0
H251 H 0.21007 0.95684 0.03104 0.0
H252 H 0.27181 0.08224 0.09127 0.0
H253 H 0.22762 0.03046 0.04644 0.0
H254 H 0.44702 0.07193 0.94413 0.0
H255 H 0.40314 0.02565 0.89253 0.0
H256 H 0.46269 0.09005 0.0499 0.0
H257 H 0.44328 0.1231 0.1014 0.0
C258 C 0.72787 0.6963 0.58913 0.0
C259 C 0.72314 0.73901 0.59443 0.0
C260 C 0.72601 0.7435 0.46774 0.0
C261 C 0.74295 0.70853 0.4633 0.0
N262 N 0.76262 0.65408 0.52598 0.0
N263 N 0.72595 0.80796 0.53528 0.0
C264 C 0.74524 0.68608 0.52608 0.0
C265 C 0.72521 0.76421 0.53273 0.0
N266 N 0.71456 0.66455 0.64371 0.0
N267 N 0.70838 0.75613 0.41111 0.0
H268 H 0.72197 0.82293 0.5813 0.0
H269 H 0.73372 0.83065 0.49181 0.0
H270 H 0.70536 0.74188 0.36205 0.0
H271 H 0.69173 0.77761 0.41457 0.0
H272 H 0.71316 0.6308 0.64142 0.0
H273 H 0.69987 0.67011 0.68846 0.0
H274 H 0.76923 0.64019 0.57145 0.0
H275 H 0.77457 0.64494 0.48104 0.0
C276 C 1.03403 0.26613 0.05218 0.0
C277 C 1.00936 0.28832 0.08579 0.0
C278 C 0.06247 0.36429 1.01817 0.0
C279 C 0.08786 0.3424 0.98553 0.0
N280 N 0.10708 0.27802 0.99012 0.0
N281 N 0.98632 0.34999 0.0719 0.0
C282 C 0.07608 0.29483 1.00822 0.0
C283 C 1.01975 0.33508 0.06085 0.0
N284 N 1.01441 0.2164 0.05679 0.0
N285 N 0.08078 0.41377 1.01365 0.0
H286 H 0.95229 0.32737 0.09554 0.0
H287 H 0.98919 0.38141 0.04894 0.0
H288 H 0.11542 0.43818 0.99343 0.0
H289 H 0.06557 0.43158 0.04075 0.0
H290 H 1.02845 0.19726 0.03061 0.0
H291 H 0.97959 0.19318 0.07792 0.0
H292 H 0.10134 0.24344 1.00307 0.0
H293 H 0.13999 0.29992 0.96319 0.0
C294 C 0.30461 0.0442 0.49372 0.0
C295 C 0.35546 0.06571 0.47915 0.0
C296 C 0.36338 0.02663 0.58626 0.0
C297 C 0.31076 0.9978 0.59346 0.0
N298 N 0.2315 0.97634 0.54246 0.0
N299 N 0.43434 0.07729 0.51262 0.0
C300 C 0.28166 1.00569 0.54344 0.0
C301 C 0.38505 0.05693 0.52618 0.0
N302 N 0.27703 0.06047 0.46121 0.0
N303 N 0.39306 0.02851 0.63887 0.0
H304 H 0.45174 0.10287 0.47263 0.0
H305 H 0.45715 0.06729 0.53881 0.0
H306 H 0.37855 1.00869 0.68372 0.0
H307 H 0.43093 0.05316 0.64091 0.0
H308 H 0.29281 0.09165 0.42941 0.0
H309 H 0.29281 0.09165 0.42941 0.0
H310 H 0.20944 0.98167 0.50675 0.0
H311 H 0.21284 0.94443 0.57246 0.0
C312 C 0.77182 0.78014 1.01036 0.0
C313 C 0.72321 0.74516 0.98767 0.0
C314 C 0.73201 0.68076 0.04865 0.0
C315 C 0.77751 0.71592 0.07813 0.0
N316 N 0.83728 0.80158 0.09489 0.0
N317 N 0.65187 0.66489 1.01152 0.0
C318 C 0.79661 0.76641 0.06098 0.0
C319 C 0.70169 0.69618 1.0142 0.0
N320 N 0.79437 0.82681 0.98399 0.0
N321 N 0.71745 0.63209 0.05384 0.0
H322 H 0.62692 0.67638 0.99892 0.0
H323 H 0.63481 0.62985 0.03367 0.0
H324 H 0.73948 0.62 0.07769 0.0
H325 H 0.68646 0.60481 1.0283 0.0
H326 H 0.8317 0.85209 0.9913 0.0
H327 H 0.77599 0.83947 0.95234 0.0
H328 H 0.84925 0.83896 0.09135 0.0
H329 H 0.85738 0.79317 0.12996 0.0
C330 C 0.05474 0.35154 0.46702 0.0
C331 C 1.00221 0.32087 0.47264 0.0
C332 C 1.01356 0.3266 0.59954 0.0
C333 C 0.06521 0.34522 0.59292 0.0
N334 N 0.13515 0.37492 0.51671 0.0
N335 N 0.93197 0.27919 0.54862 0.0
C336 C 0.0859 0.35785 0.52551 0.0
C337 C 0.98175 0.30853 0.54028 0.0
N338 N 0.07518 0.37564 0.40634 0.0
N339 N 0.99532 0.3302 0.66162 0.0
H340 H 0.90755 0.26639 0.50677 0.0
H341 H 0.91573 0.26508 0.59681 0.0
H342 H 1.01895 0.34901 0.70235 0.0
H343 H 0.95909 0.32257 0.66798 0.0
H344 H 0.1126 0.40131 0.40079 0.0
H345 H 0.0538 0.37382 0.36403 0.0
H346 H 0.15143 0.37936 0.46807 0.0
H347 H 0.15904 0.38193 0.55847 0.0
C348 C 0.72692 0.23673 0.30093 0.0
C349 C 0.70002 0.19141 0.26483 0.0
C350 C 0.7789 0.19887 0.22772 0.0
C351 C 0.8056 0.24078 0.27049 0.0
N352 N 0.80528 0.29868 0.35085 0.0
N353 N 0.70061 0.12608 0.20101 0.0
C354 C 0.77965 0.2597 0.30757 0.0
C355 C 0.72616 0.17176 0.2299 0.0
N356 N 0.70205 0.25826 0.32767 0.0
N357 N 0.80416 0.18575 0.18314 0.0
H358 H 0.66214 0.10512 0.20096 0.0
H359 H 0.71747 0.10715 0.1822 0.0
H360 H 0.84257 0.20544 0.17882 0.0
H361 H 0.78712 0.15869 0.14558 0.0
H362 H 0.71938 0.29343 0.34856 0.0
H363 H 0.66375 0.24226 0.32428 0.0
H364 H 0.78858 0.31121 0.38537 0.0
H365 H 0.84371 0.31704 0.35483 0.0
C366 C 0.50127 0.33363 0.2145 0.0
C367 C 0.54286 0.36066 0.25813 0.0
C368 C 0.52623 0.2828 0.31446 0.0
C369 C 0.486 0.25585 0.26859 0.0
N370 N 0.44267 0.25489 0.1648 0.0
N371 N 0.59986 0.36067 0.34225 0.0
C372 C 0.4759 0.28119 0.21556 0.0
C373 C 0.55682 0.33506 0.30595 0.0
N374 N 0.48453 0.35806 0.17396 0.0
N375 N 0.53418 0.25861 0.36754 0.0
H376 H 0.62262 0.39868 0.33763 0.0
H377 H 0.61494 0.34411 0.37281 0.0
H378 H 0.51361 0.22048 0.37343 0.0
H379 H 0.5591 0.27627 0.40767 0.0
H380 H 0.45106 0.34058 0.14745 0.0
H381 H 0.50193 0.39628 0.1713 0.0
H382 H 0.43703 0.2708 0.12077 0.0
H383 H 0.42449 0.21667 0.16304 0.0
C384 C 0.83075 0.49797 0.30814 0.0
C385 C 0.87424 0.51604 0.26661 0.0
C386 C 0.86141 0.58347 0.22608 0.0
C387 C 0.82181 0.56925 0.27387 0.0
N388 N 0.76996 0.51389 0.36321 0.0
N389 N 0.93464 0.58044 0.19324 0.0
C390 C 0.80658 0.52646 0.31538 0.0
C391 C 0.89035 0.5599 0.22734 0.0
N392 N 0.812 0.45304 0.33953 0.0
N393 N 0.87051 0.61888 0.17759 0.0
H394 H 0.95697 0.5646 0.19256 0.0
H395 H 0.95137 0.61532 0.17072 0.0
H396 H 0.84902 0.63548 0.17367 0.0
H397 H 0.89541 0.6278 0.1368 0.0
H398 H 0.77805 0.43521 0.36488 0.0
H399 H 0.82889 0.43177 0.33573 0.0
H400 H 0.76037 0.48654 0.4006 0.0
H401 H 0.75071 0.53287 0.36761 0.0
C402 C 0.17265 0.7072 0.83595 0.0
C403 C 0.18211 0.68089 0.78406 0.0
C404 C 0.24732 0.76219 0.73814 0.0
C405 C 0.24294 0.78685 0.79741 0.0
N406 N 0.20655 0.7779 0.91072 0.0
N407 N 0.20269 0.69281 0.6624 0.0
C408 C 0.20739 0.75767 0.84869 0.0
C409 C 0.21317 0.71061 0.72839 0.0
N410 N 0.12642 0.68759 0.8635 0.0
N411 N 0.28298 0.7875 0.68945 0.0
H412 H 0.16969 0.66089 0.65055 0.0
H413 H 0.221 0.71357 0.61861 0.0
H414 H 0.30706 0.82519 0.69072 0.0
H415 H 0.2912 0.76992 0.65041 0.0
H416 H 0.11638 0.70695 0.89713 0.0
H417 H 0.0965 0.65588 0.84329 0.0
H418 H 0.18337 0.75697 0.95135 0.0
H419 H 0.23273 0.81388 0.92396 0.0
C420 C 0.54346 0.83931 0.84461 0.0
C421 C 0.53551 0.85707 0.78064 0.0
C422 C 0.57664 0.81885 0.71882 0.0
C423 C 0.58947 0.8061 0.78317 0.0
N424 N 0.58822 0.80674 0.90801 0.0
N425 N 0.5483 0.86771 0.65699 0.0
C426 C 0.57337 0.81671 0.84629 0.0
C427 C 0.55282 0.84755 0.71768 0.0
N428 N 0.52157 0.84325 0.90361 0.0
N429 N 0.58686 0.80294 0.65863 0.0
H430 H 0.53085 0.8885 0.65388 0.0
H431 H 0.56493 0.86706 0.61061 0.0
H432 H 0.60429 0.78207 0.65799 0.0
H433 H 0.57436 0.80652 0.61006 0.0
H434 H 0.52136 0.82664 0.9506 0.0
H435 H 0.50024 0.8602 0.9044 0.0
H436 H 0.58318 0.81885 0.95579 0.0
H437 H 0.60813 0.78836 0.91113 0.0
C438 C 0.30374 0.4774 0.71691 0.0
C439 C 0.27591 0.47836 0.77449 0.0
C440 C 0.35406 0.53765 0.83159 0.0
C441 C 0.38152 0.53042 0.77887 0.0
N442 N 0.38155 0.48817 0.67491 0.0
N443 N 0.27502 0.50697 0.88985 0.0
C444 C 0.35608 0.49916 0.72218 0.0
C445 C 0.30118 0.50835 0.83243 0.0
N446 N 0.27992 0.45619 0.65639 0.0
N447 N 0.3785 0.57318 0.88024 0.0
H448 H 0.23657 0.48695 0.89194 0.0
H449 H 0.29147 0.52312 0.93683 0.0
H450 H 0.41691 0.595 0.88125 0.0
H451 H 0.3607 0.5839 0.91568 0.0
H452 H 0.29829 0.45828 0.61037 0.0
H453 H 0.24186 0.44102 0.65037 0.0
H454 H 0.36441 0.46127 0.63714 0.0
H455 H 0.41968 0.50275 0.67708 0.0
C456 C 0.13629 0.24842 0.21352 0.0
C457 C 0.14006 0.22311 0.27275 0.0
C458 C 0.10266 0.25964 0.34276 0.0
C459 C 0.09928 0.28607 0.28517 0.0
N460 N 0.12384 0.31388 0.16824 0.0
N461 N 0.08596 0.17848 0.36783 0.0
C462 C 0.12013 0.28348 0.22139 0.0
C463 C 0.1124 0.22132 0.33153 0.0
N464 N 0.13794 0.2318 0.14918 0.0
N465 N 0.09039 0.26692 0.40738 0.0
H466 H 0.08346 0.14578 0.35117 0.0
H467 H 0.06153 0.17435 0.40759 0.0
H468 H 0.08102 0.29365 0.41618 0.0
H469 H 0.09363 0.24904 0.45122 0.0
H470 H 0.13402 0.24746 0.104 0.0
H471 H 0.13592 0.19797 0.14209 0.0
H472 H 0.14355 0.31746 0.123 0.0
H473 H 0.11224 0.33951 0.17333 0.0
C474 C 0.16645 0.88937 0.30661 0.0
C475 C 0.13537 0.90098 0.26657 0.0
C476 C 0.20704 0.97859 0.23086 0.0
C477 C 0.2391 0.9666 0.26839 0.0
N478 N 0.25011 0.90808 0.33481 0.0
N479 N 0.12682 0.95149 0.1796 0.0
C480 C 0.21897 0.92082 0.30343 0.0
C481 C 0.15602 0.94379 0.22492 0.0
N482 N 0.14553 0.84939 0.34988 0.0
N483 N 0.22456 0.02482 0.20483 0.0
H484 H 0.08882 0.92773 0.17547 0.0
H485 H 0.1409 0.97917 0.14198 0.0
H486 H 0.26187 0.05091 0.20331 0.0
H487 H 0.20186 0.03835 0.18845 0.0
H488 H 0.16529 0.8417 0.3864 0.0
H489 H 0.10751 0.82514 0.35218 0.0
H490 H 0.23858 0.87373 0.35693 0.0
H491 H 0.28842 0.93096 0.33385 0.0
C492 C 0.83779 0.90587 0.31832 0.0
C493 C 0.81937 0.92512 0.26797 0.0
C494 C 0.76737 0.84137 0.22105 0.0
C495 C 0.78182 0.82151 0.27717 0.0
N496 N 0.82153 0.83742 0.39076 0.0
N497 N 0.7615 0.91086 0.17619 0.0
C498 C 0.81368 0.8546 0.32952 0.0
C499 C 0.78255 0.89274 0.22069 0.0
N500 N 0.87989 0.93654 0.35415 0.0
N501 N 0.74145 0.81241 0.16648 0.0
H502 H 0.77242 0.94808 0.17373 0.0
H503 H 0.73095 0.88859 0.14553 0.0
H504 H 0.72839 0.77487 0.16487 0.0
H505 H 0.73555 0.82636 0.12057 0.0
H506 H 0.89804 0.92373 0.38601 0.0
H507 H 0.8998 0.97448 0.34597 0.0
H508 H 0.83955 0.86017 0.43282 0.0
H509 H 0.80655 0.80043 0.40241 0.0
C510 C 0.26115 0.1147 0.72395 0.0
C511 C 0.25173 0.13345 0.78559 0.0
C512 C 0.30294 0.10703 0.84901 0.0
C513 C 0.31508 0.09198 0.78689 0.0
N514 N 0.31716 0.09597 0.66316 0.0
N515 N 0.23561 0.10836 0.90574 0.0
C516 C 0.29842 0.10142 0.72377 0.0
C517 C 0.26548 0.12002 0.84903 0.0
N518 N 0.22827 0.09989 0.67045 0.0
N519 N 0.32485 0.10531 0.90916 0.0
H520 H 0.20053 0.1045 0.90224 0.0
H521 H 0.24179 0.09459 0.95165 0.0
H522 H 0.3518 0.09503 0.90943 0.0
H523 H 0.31976 0.1189 0.95575 0.0
H524 H 0.23105 0.08186 0.62696 0.0
H525 H 0.19441 0.09858 0.67522 0.0
H526 H 0.30831 0.10495 0.6151 0.0
H527 H 0.34594 0.08833 0.66337 0.0
C528 C 0.9121 0.77813 0.85791 0.0
C529 C 0.93797 0.80756 0.79923 0.0
C530 C 0.86079 0.77298 0.73545 0.0
C531 C 0.83381 0.75096 0.79667 0.0
N532 N 0.83301 0.73178 0.91722 0.0
N533 N 0.93511 0.84023 0.68674 0.0
C534 C 0.85939 0.75286 0.85822 0.0
C535 C 0.91177 0.80701 0.73918 0.0
N536 N 0.93766 0.77372 0.91236 0.0
N537 N 0.83707 0.7612 0.67354 0.0
H538 H 0.97237 0.86724 0.68891 0.0
H539 H 0.91628 0.84414 0.64475 0.0
H540 H 0.80044 0.73371 0.67166 0.0
H541 H 0.85478 0.77348 0.62576 0.0
H542 H 0.92083 0.74957 0.95378 0.0
H543 H 0.97612 0.79165 0.91388 0.0
H544 H 0.84902 0.73603 0.96594 0.0
H545 H 0.79447 0.71103 0.91673 0.0
C546 C 0.993 0.19129 0.85312 0.0
C547 C 0.98236 0.2242 0.81502 0.0
C548 C 0.90441 0.15363 0.77647 0.0
C549 C 0.91581 0.12149 0.81376 0.0
N550 N 0.9646 0.11006 0.90081 0.0
N551 N 0.9215 0.23741 0.75951 0.0
C552 C 0.9578 0.14055 0.85691 0.0
C553 C 0.93577 0.20554 0.78298 0.0
N554 N 0.03863 0.20799 0.88135 0.0
N555 N 0.86452 0.1345 0.73316 0.0
H556 H 0.94269 0.27494 0.76913 0.0
H557 H 0.88675 0.22641 0.73884 0.0
H558 H 0.84018 0.0968 0.72859 0.0
H559 H 0.85739 0.15574 0.69859 0.0
H560 H 0.05178 0.18525 0.89869 0.0
H561 H 0.06482 0.245 0.88284 0.0
H562 H 0.99143 0.12274 0.9395 0.0
H563 H 0.94098 0.0721 0.90253 0.0
loop_
_geom_bond_atom_site_label_1
_geom_bond_atom_site_label_2
_geom_bond_distance
_geom_bond_site_symmetry_2
_ccdc_geom_bond_type
Gd0 C3 2.818 . S
Gd0 O20 2.377 . S
Gd0 O22 2.448 . S
Gd0 O23 2.506 . S
Gd0 O24 2.435 . S
Gd0 O25 2.717 . S
Gd0 O27 2.395 . S
Gd0 O31 2.327 . S
Gd1 C12 2.818 . S
Gd1 O21 2.395 . S
Gd1 O25 2.327 . S
Gd1 O26 2.377 . S
Gd1 O28 2.448 . S
Gd1 O29 2.506 . S
Gd1 O30 2.435 . S
Gd1 O31 2.717 . S
C2 O20 1.240 . S
C2 O21 1.240 . S
C3 Gd0 2.818 . S
C3 C4 1.510 . S
C3 O22 1.249 . S
C3 O23 1.252 . S
C4 C3 1.510 . S
C4 C5 1.404 . S
C4 C6 1.352 . S
C5 C4 1.404 . S
C5 C9 1.389 . S
C5 H32 0.930 . S
C6 C4 1.352 . S
C6 C8 1.374 . S
C6 H33 0.931 . S
C7 C8 1.359 . S
C7 C9 1.364 . S
C8 C6 1.374 . S
C8 C7 1.359 . S
C8 H34 0.931 . S
C9 C5 1.389 . S
C9 C7 1.364 . S
C9 H35 0.931 . S
C10 O24 1.256 . S
C10 O25 1.257 . S
C11 O26 1.240 . S
C11 O27 1.240 . S
C12 Gd1 2.818 . S
C12 C13 1.510 . S
C12 O28 1.249 . S
C12 O29 1.252 . S
C13 C12 1.510 . S
C13 C14 1.404 . S
C13 C15 1.352 . S
C14 C13 1.404 . S
C14 C18 1.389 . S
C14 H36 0.930 . S
C15 C13 1.352 . S
C15 C17 1.374 . S
C15 H37 0.931 . S
C16 C17 1.359 . S
C16 C18 1.364 . S
C17 C15 1.374 . S
C17 C16 1.359 . S
C17 H38 0.931 . S
C18 C14 1.389 . S
C18 C16 1.364 . S
C18 H39 0.931 . S
C19 O30 1.256 . S
C19 O31 1.257 . S
O20 Gd0 2.377 . S
O20 C2 1.240 . S
O21 Gd1 2.395 . S
O21 C2 1.240 . S
O22 Gd0 2.448 . S
O22 C3 1.249 . S
O23 Gd0 2.506 . S
O23 C3 1.252 . S
O24 Gd0 2.435 . S
O24 C10 1.256 . S
O25 Gd0 2.717 . S
O25 Gd1 2.327 . S
O25 C10 1.257 . S
O26 Gd1 2.377 . S
O26 C11 1.240 . S
O27 Gd0 2.395 . S
O27 C11 1.240 . S
O28 Gd1 2.448 . S
O28 C12 1.249 . S
O29 Gd1 2.506 . S
O29 C12 1.252 . S
O30 Gd1 2.435 . S
O30 C19 1.256 . S
O31 Gd0 2.327 . S
O31 Gd1 2.717 . S
O31 C19 1.257 . S
H32 C5 0.930 . S
H33 C6 0.931 . S
H34 C8 0.931 . S
H35 C9 0.931 . S
H36 C14 0.930 . S
H37 C15 0.931 . S
H38 C17 0.931 . S
H39 C18 0.931 . S
Gd40 C43 2.818 . S
Gd40 O60 2.377 . S
Gd40 O62 2.448 . S
Gd40 O63 2.506 . S
Gd40 O64 2.435 . S
Gd40 O65 2.717 . S
Gd40 O67 2.395 . S
Gd40 O71 2.327 . S
Gd41 C52 2.818 . S
Gd41 O61 2.395 . S
Gd41 O65 2.327 . S
Gd41 O66 2.377 . S
Gd41 O68 2.448 . S
Gd41 O69 2.506 . S
Gd41 O70 2.435 . S
Gd41 O71 2.717 . S
C42 O60 1.240 . S
C42 O61 1.240 . S
C43 Gd40 2.818 . S
C43 C44 1.510 . S
C43 O62 1.249 . S
C43 O63 1.252 . S
C44 C43 1.510 . S
C44 C45 1.404 . S
C44 C46 1.352 . S
C45 C44 1.404 . S
C45 C49 1.389 . S
C45 H72 0.930 . S
C46 C44 1.352 . S
C46 C48 1.374 . S
C46 H73 0.931 . S
C47 C48 1.359 . S
C47 C49 1.364 . S
C48 C46 1.374 . S
C48 C47 1.359 . S
C48 H74 0.931 . S
C49 C45 1.389 . S
C49 C47 1.364 . S
C49 H75 0.931 . S
C50 O64 1.256 . S
C50 O65 1.257 . S
C51 O66 1.240 . S
C51 O67 1.240 . S
C52 Gd41 2.818 . S
C52 C53 1.510 . S
C52 O68 1.249 . S
C52 O69 1.252 . S
C53 C52 1.510 . S
C53 C54 1.404 . S
C53 C55 1.352 . S
C54 C53 1.404 . S
C54 C58 1.389 1_655 S
C54 H76 0.930 . S
C55 C53 1.352 . S
C55 C57 1.374 1_655 S
C55 H77 0.931 . S
C56 C57 1.359 . S
C56 C58 1.364 . S
C57 C55 1.374 1_455 S
C57 C56 1.359 . S
C57 H78 0.931 . S
C58 C54 1.389 1_455 S
C58 C56 1.364 . S
C58 H79 0.931 . S
C59 O70 1.256 . S
C59 O71 1.257 . S
O60 Gd40 2.377 . S
O60 C42 1.240 . S
O61 Gd41 2.395 . S
O61 C42 1.240 . S
O62 Gd40 2.448 . S
O62 C43 1.249 . S
O63 Gd40 2.506 . S
O63 C43 1.252 . S
O64 Gd40 2.435 . S
O64 C50 1.256 . S
O65 Gd40 2.717 . S
O65 Gd41 2.327 . S
O65 C50 1.257 . S
O66 Gd41 2.377 . S
O66 C51 1.240 . S
O67 Gd40 2.395 . S
O67 C51 1.240 . S
O68 Gd41 2.448 . S
O68 C52 1.249 . S
O69 Gd41 2.506 . S
O69 C52 1.252 . S
O70 Gd41 2.435 . S
O70 C59 1.256 . S
O71 Gd40 2.327 . S
O71 Gd41 2.717 . S
O71 C59 1.257 . S
H72 C45 0.930 . S
H73 C46 0.931 . S
H74 C48 0.931 . S
H75 C49 0.931 . S
H76 C54 0.930 . S
H77 C55 0.931 . S
H78 C57 0.931 . S
H79 C58 0.931 . S
Gd80 C83 2.818 . S
Gd80 O100 2.377 . S
Gd80 O102 2.448 . S
Gd80 O103 2.506 . S
Gd80 O104 2.435 . S
Gd80 O105 2.717 . S
Gd80 O107 2.395 . S
Gd80 O111 2.327 . S
Gd81 C92 2.818 . S
Gd81 O101 2.395 . S
Gd81 O105 2.327 . S
Gd81 O106 2.377 . S
Gd81 O108 2.448 . S
Gd81 O109 2.506 . S
Gd81 O110 2.435 . S
Gd81 O111 2.717 . S
C82 O100 1.240 . S
C82 O101 1.240 . S
C83 Gd80 2.818 . S
C83 C84 1.510 . S
C83 O102 1.249 . S
C83 O103 1.252 . S
C84 C83 1.510 . S
C84 C85 1.404 . S
C84 C86 1.352 . S
C85 C84 1.404 . S
C85 C89 1.389 . S
C85 H112 0.930 . S
C86 C84 1.352 . S
C86 C88 1.374 . S
C86 H113 0.931 . S
C87 C88 1.359 . S
C87 C89 1.364 . S
C88 C86 1.374 . S
C88 C87 1.359 . S
C88 H114 0.931 . S
C89 C85 1.389 . S
C89 C87 1.364 . S
C89 H115 0.931 . S
C90 O104 1.256 . S
C90 O105 1.257 . S
C91 O106 1.240 . S
C91 O107 1.240 . S
C92 Gd81 2.818 . S
C92 C93 1.510 . S
C92 O108 1.249 . S
C92 O109 1.252 . S
C93 C92 1.510 . S
C93 C94 1.404 . S
C93 C95 1.352 . S
C94 C93 1.404 . S
C94 C98 1.389 1_545 S
C94 H116 0.930 . S
C95 C93 1.352 . S
C95 C97 1.374 1_545 S
C95 H117 0.931 . S
C96 C97 1.359 . S
C96 C98 1.364 . S
C97 C95 1.374 1_565 S
C97 C96 1.359 . S
C97 H118 0.931 . S
C98 C94 1.389 1_565 S
C98 C96 1.364 . S
C98 H119 0.931 . S
C99 O110 1.256 . S
C99 O111 1.257 . S
O100 Gd80 2.377 . S
O100 C82 1.240 . S
O101 Gd81 2.395 . S
O101 C82 1.240 . S
O102 Gd80 2.448 . S
O102 C83 1.249 . S
O103 Gd80 2.506 . S
O103 C83 1.252 . S
O104 Gd80 2.435 . S
O104 C90 1.256 . S
O105 Gd80 2.717 . S
O105 Gd81 2.327 . S
O105 C90 1.257 . S
O106 Gd81 2.377 . S
O106 C91 1.240 . S
O107 Gd80 2.395 . S
O107 C91 1.240 . S
O108 Gd81 2.448 . S
O108 C92 1.249 . S
O109 Gd81 2.506 . S
O109 C92 1.252 . S
O110 Gd81 2.435 . S
O110 C99 1.256 . S
O111 Gd80 2.327 . S
O111 Gd81 2.717 . S
O111 C99 1.257 . S
H112 C85 0.930 . S
H113 C86 0.931 . S
H114 C88 0.931 . S
H115 C89 0.931 . S
H116 C94 0.930 . S
H117 C95 0.931 . S
H118 C97 0.931 . S
H119 C98 0.931 . S
Gd120 C123 2.818 . S
Gd120 O140 2.377 . S
Gd120 O142 2.448 . S
Gd120 O143 2.506 . S
Gd120 O144 2.435 . S
Gd120 O145 2.717 . S
Gd120 O147 2.395 . S
Gd120 O151 2.327 . S
Gd121 C132 2.818 . S
Gd121 O141 2.395 . S
Gd121 O145 2.327 . S
Gd121 O146 2.377 . S
Gd121 O148 2.448 . S
Gd121 O149 2.506 . S
Gd121 O150 2.435 . S
Gd121 O151 2.717 . S
C122 O140 1.240 . S
C122 O141 1.240 . S
C123 Gd120 2.818 . S
C123 C124 1.510 . S
C123 O142 1.249 . S
C123 O143 1.252 . S
C124 C123 1.510 . S
C124 C125 1.404 . S
C124 C126 1.352 . S
C125 C124 1.404 . S
C125 C129 1.389 . S
C125 H152 0.930 . S
C126 C124 1.352 . S
C126 C128 1.374 . S
C126 H153 0.931 . S
C127 C128 1.359 . S
C127 C129 1.364 . S
C128 C126 1.374 . S
C128 C127 1.359 . S
C128 H154 0.931 . S
C129 C125 1.389 . S
C129 C127 1.364 . S
C129 H155 0.931 . S
C130 O144 1.256 . S
C130 O145 1.257 . S
C131 O146 1.240 . S
C131 O147 1.240 . S
C132 Gd121 2.818 . S
C132 C133 1.510 . S
C132 O148 1.249 . S
C132 O149 1.252 . S
C133 C132 1.510 . S
C133 C134 1.404 . S
C133 C135 1.352 . S
C134 C133 1.404 . S
C134 C138 1.389 . S
C134 H156 0.930 . S
C135 C133 1.352 . S
C135 C137 1.374 . S
C135 H157 0.931 . S
C136 C137 1.359 . S
C136 C138 1.364 . S
C137 C135 1.374 . S
C137 C136 1.359 . S
C137 H158 0.931 . S
C138 C134 1.389 . S
C138 C136 1.364 . S
C138 H159 0.931 . S
C139 O150 1.256 . S
C139 O151 1.257 . S
O140 Gd120 2.377 . S
O140 C122 1.240 . S
O141 Gd121 2.395 . S
O141 C122 1.240 . S
O142 Gd120 2.448 . S
O142 C123 1.249 . S
O143 Gd120 2.506 . S
O143 C123 1.252 . S
O144 Gd120 2.435 . S
O144 C130 1.256 . S
O145 Gd120 2.717 . S
O145 Gd121 2.327 . S
O145 C130 1.257 . S
O146 Gd121 2.377 . S
O146 C131 1.240 . S
O147 Gd120 2.395 . S
O147 C131 1.240 . S
O148 Gd121 2.448 . S
O148 C132 1.249 . S
O149 Gd121 2.506 . S
O149 C132 1.252 . S
O150 Gd121 2.435 . S
O150 C139 1.256 . S
O151 Gd120 2.327 . S
O151 Gd121 2.717 . S
O151 C139 1.257 . S
H152 C125 0.930 . S
H153 C126 0.931 . S
H154 C128 0.931 . S
H155 C129 0.931 . S
H156 C134 0.930 . S
H157 C135 0.931 . S
H158 C137 0.931 . S
H159 C138 0.931 . S
Gd160 C163 2.818 . S
Gd160 O180 2.377 . S
Gd160 O182 2.448 . S
Gd160 O183 2.506 . S
Gd160 O184 2.435 . S
Gd160 O185 2.717 . S
Gd160 O187 2.395 . S
Gd160 O191 2.327 . S
Gd161 C172 2.818 . S
Gd161 O181 2.395 . S
Gd161 O185 2.327 . S
Gd161 O186 2.377 . S
Gd161 O188 2.448 . S
Gd161 O189 2.506 . S
Gd161 O190 2.435 . S
Gd161 O191 2.717 . S
C162 O180 1.240 . S
C162 O181 1.240 . S
C163 Gd160 2.818 . S
C163 C164 1.510 . S
C163 O182 1.249 . S
C163 O183 1.252 . S
C164 C163 1.510 . S
C164 C165 1.404 . S
C164 C166 1.352 . S
C165 C164 1.404 . S
C165 C169 1.389 1_455 S
C165 H192 0.930 . S
C166 C164 1.352 . S
C166 C168 1.374 1_455 S
C166 H193 0.931 . S
C167 C168 1.359 . S
C167 C169 1.364 . S
C168 C166 1.374 1_655 S
C168 C167 1.359 . S
C168 H194 0.931 . S
C169 C165 1.389 1_655 S
C169 C167 1.364 . S
C169 H195 0.931 . S
C170 O184 1.256 . S
C170 O185 1.257 . S
C171 O186 1.240 . S
C171 O187 1.240 . S
C172 Gd161 2.818 . S
C172 C173 1.510 . S
C172 O188 1.249 . S
C172 O189 1.252 . S
C173 C172 1.510 . S
C173 C174 1.404 . S
C173 C175 1.352 . S
C174 C173 1.404 . S
C174 C178 1.389 . S
C174 H196 0.930 . S
C175 C173 1.352 . S
C175 C177 1.374 . S
C175 H197 0.931 . S
C176 C177 1.359 . S
C176 C178 1.364 . S
C177 C175 1.374 . S
C177 C176 1.359 . S
C177 H198 0.931 . S
C178 C174 1.389 . S
C178 C176 1.364 . S
C178 H199 0.931 . S
C179 O190 1.256 . S
C179 O191 1.257 . S
O180 Gd160 2.377 . S
O180 C162 1.240 . S
O181 Gd161 2.395 . S
O181 C162 1.240 . S
O182 Gd160 2.448 . S
O182 C163 1.249 . S
O183 Gd160 2.506 . S
O183 C163 1.252 . S
O184 Gd160 2.435 . S
O184 C170 1.256 . S
O185 Gd160 2.717 . S
O185 Gd161 2.327 . S
O185 C170 1.257 . S
O186 Gd161 2.377 . S
O186 C171 1.240 . S
O187 Gd160 2.395 . S
O187 C171 1.240 . S
O188 Gd161 2.448 . S
O188 C172 1.249 . S
O189 Gd161 2.506 . S
O189 C172 1.252 . S
O190 Gd161 2.435 . S
O190 C179 1.256 . S
O191 Gd160 2.327 . S
O191 Gd161 2.717 . S
O191 C179 1.257 . S
H192 C165 0.930 . S
H193 C166 0.931 . S
H194 C168 0.931 . S
H195 C169 0.931 . S
H196 C174 0.930 . S
H197 C175 0.931 . S
H198 C177 0.931 . S
H199 C178 0.931 . S
Gd200 C203 2.818 . S
Gd200 O220 2.377 . S
Gd200 O222 2.448 . S
Gd200 O223 2.506 . S
Gd200 O224 2.435 . S
Gd200 O225 2.717 . S
Gd200 O227 2.395 . S
Gd200 O231 2.327 . S
Gd201 C212 2.818 . S
Gd201 O221 2.395 . S
Gd201 O225 2.327 . S
Gd201 O226 2.377 . S
Gd201 O228 2.448 . S
Gd201 O229 2.506 . S
Gd201 O230 2.435 . S
Gd201 O231 2.717 . S
C202 O220 1.240 . S
C202 O221 1.240 . S
C203 Gd200 2.818 . S
C203 C204 1.510 . S
C203 O222 1.249 . S
C203 O223 1.252 . S
C204 C203 1.510 . S
C204 C205 1.404 . S
C204 C206 1.352 . S
C205 C204 1.404 . S
C205 C209 1.389 1_565 S
C205 H232 0.930 . S
C206 C204 1.352 . S
C206 C208 1.374 1_565 S
C206 H233 0.931 . S
C207 C208 1.359 . S
C207 C209 1.364 . S
C208 C206 1.374 1_545 S
C208 C207 1.359 . S
C208 H234 0.931 . S
C209 C205 1.389 1_545 S
C209 C207 1.364 . S
C209 H235 0.931 . S
C210 O224 1.256 . S
C210 O225 1.257 . S
C211 O226 1.240 . S
C211 O227 1.240 . S
C212 Gd201 2.818 . S
C212 C213 1.510 . S
C212 O228 1.249 . S
C212 O229 1.252 . S
C213 C212 1.510 . S
C213 C214 1.404 . S
C213 C215 1.352 . S
C214 C213 1.404 . S
C214 C218 1.389 . S
C214 H236 0.930 . S
C215 C213 1.352 . S
C215 C217 1.374 . S
C215 H237 0.931 . S
C216 C217 1.359 . S
C216 C218 1.364 . S
C217 C215 1.374 . S
C217 C216 1.359 . S
C217 H238 0.931 . S
C218 C214 1.389 . S
C218 C216 1.364 . S
C218 H239 0.931 . S
C219 O230 1.256 . S
C219 O231 1.257 . S
O220 Gd200 2.377 . S
O220 C202 1.240 . S
O221 Gd201 2.395 . S
O221 C202 1.240 . S
O222 Gd200 2.448 . S
O222 C203 1.249 . S
O223 Gd200 2.506 . S
O223 C203 1.252 . S
O224 Gd200 2.435 . S
O224 C210 1.256 . S
O225 Gd200 2.717 . S
O225 Gd201 2.327 . S
O225 C210 1.257 . S
O226 Gd201 2.377 . S
O226 C211 1.240 . S
O227 Gd200 2.395 . S
O227 C211 1.240 . S
O228 Gd201 2.448 . S
O228 C212 1.249 . S
O229 Gd201 2.506 . S
O229 C212 1.252 . S
O230 Gd201 2.435 . S
O230 C219 1.256 . S
O231 Gd200 2.327 . S
O231 Gd201 2.717 . S
O231 C219 1.257 . S
H232 C205 0.930 . S
H233 C206 0.931 . S
H234 C208 0.931 . S
H235 C209 0.931 . S
H236 C214 0.930 . S
H237 C215 0.931 . S
H238 C217 0.931 . S
H239 C218 0.931 . S
C240 C241 1.363 . S
C240 C246 1.379 1_565 S
C240 N248 1.356 . S
C241 C240 1.363 . S
C241 C247 1.363 1_556 S
C242 C243 1.363 . S
C242 C247 1.379 1_545 S
C242 N249 1.356 . S
C243 C242 1.363 . S
C243 C246 1.363 1_554 S
N244 C246 1.356 . S
N244 H256 0.984 . S
N244 H257 0.985 1_556 S
N245 C247 1.356 . S
N245 H250 0.984 1_554 S
N245 H251 0.985 . S
C246 C240 1.379 1_545 S
C246 C243 1.363 1_556 S
C246 N244 1.356 . S
C247 C241 1.363 1_554 S
C247 C242 1.379 1_565 S
C247 N245 1.356 . S
N248 C240 1.356 . S
N248 H254 0.984 . S
N248 H255 0.984 . S
N249 C242 1.356 . S
N249 H252 0.984 . S
N249 H253 0.985 . S
H250 N245 0.984 1_556 S
H251 N245 0.985 . S
H252 N249 0.984 . S
H253 N249 0.985 . S
H254 N248 0.984 . S
H255 N248 0.984 . S
H256 N244 0.984 . S
H257 N244 0.985 1_554 S
C258 C259 1.363 . S
C258 C264 1.379 . S
C258 N266 1.356 . S
C259 C258 1.363 . S
C259 C265 1.363 . S
C260 C261 1.363 . S
C260 C265 1.379 . S
C260 N267 1.356 . S
C261 C260 1.363 . S
C261 C264 1.363 . S
N262 C264 1.356 . S
N262 H274 0.984 . S
N262 H275 0.985 . S
N263 C265 1.356 . S
N263 H268 0.984 . S
N263 H269 0.985 . S
C264 C258 1.379 . S
C264 C261 1.363 . S
C264 N262 1.356 . S
C265 C259 1.363 . S
C265 C260 1.379 . S
C265 N263 1.356 . S
N266 C258 1.356 . S
N266 H272 0.984 . S
N266 H273 0.984 . S
N267 C260 1.356 . S
N267 H270 0.984 . S
N267 H271 0.985 . S
H268 N263 0.984 . S
H269 N263 0.985 . S
H270 N267 0.984 . S
H271 N267 0.985 . S
H272 N266 0.984 . S
H273 N266 0.984 . S
H274 N262 0.984 . S
H275 N262 0.985 . S
C276 C277 1.363 . S
C276 C282 1.379 1_654 S
C276 N284 1.356 . S
C277 C276 1.363 . S
C277 C283 1.363 . S
C278 C279 1.363 . S
C278 C283 1.379 1_456 S
C278 N285 1.356 . S
C279 C278 1.363 . S
C279 C282 1.363 . S
N280 C282 1.356 . S
N280 H292 0.984 . S
N280 H293 0.985 . S
N281 C283 1.356 . S
N281 H286 0.984 . S
N281 H287 0.985 . S
C282 C276 1.379 1_456 S
C282 C279 1.363 . S
C282 N280 1.356 . S
C283 C277 1.363 . S
C283 C278 1.379 1_654 S
C283 N281 1.356 . S
N284 C276 1.356 . S
N284 H290 0.984 1_554 S
N284 H291 0.984 . S
N285 C278 1.356 . S
N285 H288 0.984 . S
N285 H289 0.985 1_556 S
H286 N281 0.984 . S
H287 N281 0.985 . S
H288 N285 0.984 . S
H289 N285 0.985 1_554 S
H290 N284 0.984 1_556 S
H291 N284 0.984 . S
H292 N280 0.984 . S
H293 N280 0.985 . S
C294 C295 1.363 1_565 S
C294 C300 1.379 . S
C294 N302 1.356 1_565 S
C295 C294 1.363 1_545 S
C295 C301 1.363 . S
C296 C297 1.363 . S
C296 C301 1.379 1_565 S
C296 N303 1.356 . S
C297 C296 1.363 . S
C297 C300 1.363 . S
N298 C300 1.356 . S
N298 H310 0.984 . S
N298 H311 0.985 . S
N299 C301 1.356 . S
N299 H304 0.984 . S
N299 H305 0.985 . S
C300 C294 1.379 . S
C300 C297 1.363 . S
C300 N298 1.356 . S
C301 C295 1.363 . S
C301 C296 1.379 1_545 S
C301 N299 1.356 . S
N302 C294 1.356 1_545 S
N302 H308 0.984 1_545 S
N302 H309 0.984 . S
N303 C296 1.356 . S
N303 H306 0.984 . S
N303 H307 0.985 1_565 S
H304 N299 0.984 . S
H305 N299 0.985 . S
H306 N303 0.984 . S
H307 N303 0.985 1_545 S
H308 N302 0.984 1_565 S
H309 N302 0.984 . S
H310 N298 0.984 . S
H311 N298 0.985 . S
C312 C313 1.363 . S
C312 C318 1.379 1_556 S
C312 N320 1.356 . S
C313 C312 1.363 . S
C313 C319 1.363 . S
C314 C315 1.363 . S
C314 C319 1.379 1_554 S
C314 N321 1.356 . S
C315 C314 1.363 . S
C315 C318 1.363 . S
N316 C318 1.356 . S
N316 H328 0.984 . S
N316 H329 0.985 . S
N317 C319 1.356 . S
N317 H322 0.984 . S
N317 H323 0.985 . S
C318 C312 1.379 1_554 S
C318 C315 1.363 . S
C318 N316 1.356 . S
C319 C313 1.363 . S
C319 C314 1.379 1_556 S
C319 N317 1.356 . S
N320 C312 1.356 . S
N320 H326 0.984 . S
N320 H327 0.984 . S
N321 C314 1.356 . S
N321 H324 0.984 . S
N321 H325 0.985 . S
H322 N317 0.984 . S
H323 N317 0.985 . S
H324 N321 0.984 . S
H325 N321 0.985 . S
H326 N320 0.984 . S
H327 N320 0.984 . S
H328 N316 0.984 . S
H329 N316 0.985 . S
C330 C331 1.363 1_455 S
C330 C336 1.379 . S
C330 N338 1.356 1_455 S
C331 C330 1.363 1_655 S
C331 C337 1.363 . S
C332 C333 1.363 . S
C332 C337 1.379 1_455 S
C332 N339 1.356 . S
C333 C332 1.363 . S
C333 C336 1.363 . S
N334 C336 1.356 . S
N334 H346 0.984 . S
N334 H347 0.985 . S
N335 C337 1.356 . S
N335 H340 0.984 . S
N335 H341 0.985 . S
C336 C330 1.379 . S
C336 C333 1.363 . S
C336 N334 1.356 . S
C337 C331 1.363 . S
C337 C332 1.379 1_655 S
C337 N335 1.356 . S
N338 C330 1.356 1_655 S
N338 H344 0.984 1_655 S
N338 H345 0.984 . S
N339 C332 1.356 . S
N339 H342 0.984 . S
N339 H343 0.985 1_455 S
H340 N335 0.984 . S
H341 N335 0.985 . S
H342 N339 0.984 . S
H343 N339 0.985 1_655 S
H344 N338 0.984 1_455 S
H345 N338 0.984 . S
H346 N334 0.984 . S
H347 N334 0.985 . S
C348 C349 1.363 . S
C348 C354 1.379 . S
C348 N356 1.356 . S
C349 C348 1.363 . S
C349 C355 1.363 . S
C350 C351 1.363 . S
C350 C355 1.379 . S
C350 N357 1.356 . S
C351 C350 1.363 . S
C351 C354 1.363 . S
N352 C354 1.356 . S
N352 H364 0.984 . S
N352 H365 0.985 . S
N353 C355 1.356 . S
N353 H358 0.984 . S
N353 H359 0.985 . S
C354 C348 1.379 . S
C354 C351 1.363 . S
C354 N352 1.356 . S
C355 C349 1.363 . S
C355 C350 1.379 . S
C355 N353 1.356 . S
N356 C348 1.356 . S
N356 H362 0.984 . S
N356 H363 0.984 . S
N357 C350 1.356 . S
N357 H360 0.984 . S
N357 H361 0.985 . S
H358 N353 0.984 . S
H359 N353 0.985 . S
H360 N357 0.984 . S
H361 N357 0.985 . S
H362 N356 0.984 . S
H363 N356 0.984 . S
H364 N352 0.984 . S
H365 N352 0.985 . S
C366 C367 1.363 . S
C366 C372 1.379 . S
C366 N374 1.356 . S
C367 C366 1.363 . S
C367 C373 1.363 . S
C368 C369 1.363 . S
C368 C373 1.379 . S
C368 N375 1.356 . S
C369 C368 1.363 . S
C369 C372 1.363 . S
N370 C372 1.356 . S
N370 H382 0.984 . S
N370 H383 0.985 . S
N371 C373 1.356 . S
N371 H376 0.984 . S
N371 H377 0.985 . S
C372 C366 1.379 . S
C372 C369 1.363 . S
C372 N370 1.356 . S
C373 C367 1.363 . S
C373 C368 1.379 . S
C373 N371 1.356 . S
N374 C366 1.356 . S
N374 H380 0.984 . S
N374 H381 0.984 . S
N375 C368 1.356 . S
N375 H378 0.984 . S
N375 H379 0.985 . S
H376 N371 0.984 . S
H377 N371 0.985 . S
H378 N375 0.984 . S
H379 N375 0.985 . S
H380 N374 0.984 . S
H381 N374 0.984 . S
H382 N370 0.984 . S
H383 N370 0.985 . S
C384 C385 1.363 . S
C384 C390 1.379 . S
C384 N392 1.356 . S
C385 C384 1.363 . S
C385 C391 1.363 . S
C386 C387 1.363 . S
C386 C391 1.379 . S
C386 N393 1.356 . S
C387 C386 1.363 . S
C387 C390 1.363 . S
N388 C390 1.356 . S
N388 H400 0.984 . S
N388 H401 0.985 . S
N389 C391 1.356 . S
N389 H394 0.984 . S
N389 H395 0.985 . S
C390 C384 1.379 . S
C390 C387 1.363 . S
C390 N388 1.356 . S
C391 C385 1.363 . S
C391 C386 1.379 . S
C391 N389 1.356 . S
N392 C384 1.356 . S
N392 H398 0.984 . S
N392 H399 0.984 . S
N393 C386 1.356 . S
N393 H396 0.984 . S
N393 H397 0.985 . S
H394 N389 0.984 . S
H395 N389 0.985 . S
H396 N393 0.984 . S
H397 N393 0.985 . S
H398 N392 0.984 . S
H399 N392 0.984 . S
H400 N388 0.984 . S
H401 N388 0.985 . S
C402 C403 1.363 . S
C402 C408 1.379 . S
C402 N410 1.356 . S
C403 C402 1.363 . S
C403 C409 1.363 . S
C404 C405 1.363 . S
C404 C409 1.379 . S
C404 N411 1.356 . S
C405 C404 1.363 . S
C405 C408 1.363 . S
N406 C408 1.356 . S
N406 H418 0.984 . S
N406 H419 0.985 . S
N407 C409 1.356 . S
N407 H412 0.984 . S
N407 H413 0.985 . S
C408 C402 1.379 . S
C408 C405 1.363 . S
C408 N406 1.356 . S
C409 C403 1.363 . S
C409 C404 1.379 . S
C409 N407 1.356 . S
N410 C402 1.356 . S
N410 H416 0.984 . S
N410 H417 0.984 . S
N411 C404 1.356 . S
N411 H414 0.984 . S
N411 H415 0.985 . S
H412 N407 0.984 . S
H413 N407 0.985 . S
H414 N411 0.984 . S
H415 N411 0.985 . S
H416 N410 0.984 . S
H417 N410 0.984 . S
H418 N406 0.984 . S
H419 N406 0.985 . S
C420 C421 1.363 . S
C420 C426 1.379 . S
C420 N428 1.356 . S
C421 C420 1.363 . S
C421 C427 1.363 . S
C422 C423 1.363 . S
C422 C427 1.379 . S
C422 N429 1.356 . S
C423 C422 1.363 . S
C423 C426 1.363 . S
N424 C426 1.356 . S
N424 H436 0.984 . S
N424 H437 0.985 . S
N425 C427 1.356 . S
N425 H430 0.984 . S
N425 H431 0.985 . S
C426 C420 1.379 . S
C426 C423 1.363 . S
C426 N424 1.356 . S
C427 C421 1.363 . S
C427 C422 1.379 . S
C427 N425 1.356 . S
N428 C420 1.356 . S
N428 H434 0.984 . S
N428 H435 0.984 . S
N429 C422 1.356 . S
N429 H432 0.984 . S
N429 H433 0.985 . S
H430 N425 0.984 . S
H431 N425 0.985 . S
H432 N429 0.984 . S
H433 N429 0.985 . S
H434 N428 0.984 . S
H435 N428 0.984 . S
H436 N424 0.984 . S
H437 N424 0.985 . S
C438 C439 1.363 . S
C438 C444 1.379 . S
C438 N446 1.356 . S
C439 C438 1.363 . S
C439 C445 1.363 . S
C440 C441 1.363 . S
C440 C445 1.379 . S
C440 N447 1.356 . S
C441 C440 1.363 . S
C441 C444 1.363 . S
N442 C444 1.356 . S
N442 H454 0.984 . S
N442 H455 0.985 . S
N443 C445 1.356 . S
N443 H448 0.984 . S
N443 H449 0.985 . S
C444 C438 1.379 . S
C444 C441 1.363 . S
C444 N442 1.356 . S
C445 C439 1.363 . S
C445 C440 1.379 . S
C445 N443 1.356 . S
N446 C438 1.356 . S
N446 H452 0.984 . S
N446 H453 0.984 . S
N447 C440 1.356 . S
N447 H450 0.984 . S
N447 H451 0.985 . S
H448 N443 0.984 . S
H449 N443 0.985 . S
H450 N447 0.984 . S
H451 N447 0.985 . S
H452 N446 0.984 . S
H453 N446 0.984 . S
H454 N442 0.984 . S
H455 N442 0.985 . S
C456 C457 1.363 . S
C456 C462 1.379 . S
C456 N464 1.356 . S
C457 C456 1.363 . S
C457 C463 1.363 1_455 S
C458 C459 1.363 1_655 S
C458 C463 1.379 . S
C458 N465 1.356 . S
C459 C458 1.363 1_455 S
C459 C462 1.363 . S
N460 C462 1.356 . S
N460 H472 0.984 . S
N460 H473 0.985 . S
N461 C463 1.356 . S
N461 H466 0.984 . S
N461 H467 0.985 . S
C462 C456 1.379 . S
C462 C459 1.363 . S
C462 N460 1.356 . S
C463 C457 1.363 1_655 S
C463 C458 1.379 . S
C463 N461 1.356 . S
N464 C456 1.356 . S
N464 H470 0.984 . S
N464 H471 0.984 . S
N465 C458 1.356 . S
N465 H468 0.984 . S
N465 H469 0.985 . S
H466 N461 0.984 . S
H467 N461 0.985 . S
H468 N465 0.984 . S
H469 N465 0.985 . S
H470 N464 0.984 . S
H471 N464 0.984 . S
H472 N460 0.984 . S
H473 N460 0.985 . S
C474 C475 1.363 . S
C474 C480 1.379 . S
C474 N482 1.356 . S
C475 C474 1.363 . S
C475 C481 1.364 . S
C476 C477 1.363 1_545 S
C476 C481 1.381 1_545 S
C476 N483 1.356 . S
C477 C476 1.363 1_565 S
C477 C480 1.363 . S
N478 C480 1.356 . S
N478 H490 0.984 . S
N478 H491 0.985 . S
N479 C481 1.353 1_545 S
N479 H484 0.984 1_545 S
N479 H485 0.985 . S
C480 C474 1.379 . S
C480 C477 1.363 . S
C480 N478 1.356 . S
C481 C475 1.364 . S
C481 C476 1.381 1_565 S
C481 N479 1.353 1_565 S
N482 C474 1.356 . S
N482 H488 0.984 . S
N482 H489 0.984 . S
N483 C476 1.356 . S
N483 H486 0.984 . S
N483 H487 0.985 . S
H484 N479 0.984 1_565 S
H485 N479 0.985 . S
H486 N483 0.984 . S
H487 N483 0.985 . S
H488 N482 0.984 . S
H489 N482 0.984 . S
H490 N478 0.984 . S
H491 N478 0.985 . S
C492 C493 1.363 . S
C492 C498 1.379 . S
C492 N500 1.356 . S
C493 C492 1.363 . S
C493 C499 1.363 . S
C494 C495 1.363 . S
C494 C499 1.379 . S
C494 N501 1.356 . S
C495 C494 1.363 . S
C495 C498 1.363 . S
N496 C498 1.356 . S
N496 H508 0.984 . S
N496 H509 0.985 . S
N497 C499 1.356 . S
N497 H502 0.984 . S
N497 H503 0.985 . S
C498 C492 1.379 . S
C498 C495 1.363 . S
C498 N496 1.356 . S
C499 C493 1.363 . S
C499 C494 1.379 . S
C499 N497 1.356 . S
N500 C492 1.356 . S
N500 H506 0.984 . S
N500 H507 0.984 . S
N501 C494 1.356 . S
N501 H504 0.984 . S
N501 H505 0.985 . S
H502 N497 0.984 . S
H503 N497 0.985 . S
H504 N501 0.984 . S
H505 N501 0.985 . S
H506 N500 0.984 . S
H507 N500 0.984 . S
H508 N496 0.984 . S
H509 N496 0.985 . S
C510 C511 1.363 . S
C510 C516 1.379 . S
C510 N518 1.356 . S
C511 C510 1.363 . S
C511 C517 1.363 . S
C512 C513 1.363 . S
C512 C517 1.379 . S
C512 N519 1.356 . S
C513 C512 1.363 . S
C513 C516 1.363 . S
N514 C516 1.356 1_565 S
N514 H526 0.984 . S
N514 H527 0.985 . S
N515 C517 1.356 . S
N515 H520 0.984 . S
N515 H521 0.985 . S
C516 C510 1.379 . S
C516 C513 1.363 . S
C516 N514 1.356 1_545 S
C517 C511 1.363 . S
C517 C512 1.379 . S
C517 N515 1.356 . S
N518 C510 1.356 . S
N518 H524 0.984 . S
N518 H525 0.984 . S
N519 C512 1.356 . S
N519 H522 0.987 . S
N519 H523 0.985 . S
H520 N515 0.984 . S
H521 N515 0.985 . S
H522 N519 0.987 . S
H523 N519 0.985 . S
H524 N518 0.984 . S
H525 N518 0.984 . S
H526 N514 0.984 . S
H527 N514 0.985 . S
C528 C529 1.363 . S
C528 C534 1.379 . S
C528 N536 1.356 . S
C529 C528 1.363 . S
C529 C535 1.363 . S
C530 C531 1.363 . S
C530 C535 1.379 . S
C530 N537 1.356 . S
C531 C530 1.363 . S
C531 C534 1.363 . S
N532 C534 1.356 . S
N532 H544 0.984 . S
N532 H545 0.985 . S
N533 C535 1.356 . S
N533 H538 0.984 . S
N533 H539 0.985 . S
C534 C528 1.379 . S
C534 C531 1.363 . S
C534 N532 1.356 . S
C535 C529 1.363 . S
C535 C530 1.379 . S
C535 N533 1.356 . S
N536 C528 1.356 . S
N536 H542 0.984 . S
N536 H543 0.984 . S
N537 C530 1.356 . S
N537 H540 0.984 . S
N537 H541 0.985 . S
H538 N533 0.984 . S
H539 N533 0.985 . S
H540 N537 0.984 . S
H541 N537 0.985 . S
H542 N536 0.984 . S
H543 N536 0.984 . S
H544 N532 0.984 . S
H545 N532 0.985 . S
C546 C547 1.363 1_455 S
C546 C552 1.379 . S
C546 N554 1.356 . S
C547 C546 1.363 1_655 S
C547 C553 1.363 . S
C548 C549 1.363 . S
C548 C553 1.379 . S
C548 N555 1.356 . S
C549 C548 1.363 . S
C549 C552 1.363 1_655 S
N550 C552 1.356 . S
N550 H562 0.984 . S
N550 H563 0.985 . S
N551 C553 1.356 . S
N551 H556 0.984 . S
N551 H557 0.985 . S
C552 C546 1.379 . S
C552 C549 1.363 1_455 S
C552 N550 1.356 . S
C553 C547 1.363 . S
C553 C548 1.379 . S
C553 N551 1.356 . S
N554 C546 1.356 . S
N554 H560 0.984 . S
N554 H561 0.984 . S
N555 C548 1.356 . S
N555 H558 0.984 . S
N555 H559 0.985 . S
H556 N551 0.984 . S
H557 N551 0.985 . S
H558 N555 0.984 . S
H559 N555 0.985 . S
H560 N554 0.984 . S
H561 N554 0.984 . S
H562 N550 0.984 . S
H563 N550 0.985 . S
C241 C179 2.400 . S
C243 C19 2.591 . S
C259 C210 2.591 . S
C261 C50 2.400 . S
C277 C99 2.591 . S
C279 C139 2.400 . S
C295 C10 2.400 . S
C297 C170 2.591 . S
C313 C219 2.400 . S
C315 C59 2.591 . S
C331 C90 2.400 . S
C333 C130 2.591 . S
C349 C7 1.951 . S
C351 C82 1.879 . S
C367 C47 1.951 . S
C369 C2 1.879 . S
C385 C87 1.951 . S
C387 C42 1.879 . S
C403 C136 1.951 . S
C405 C171 1.879 . S
C421 C176 1.951 . S
C423 C211 1.879 . S
C439 C131 1.879 . S
C441 C216 1.951 . S
C457 C16 1.444 . S
C459 C91 1.528 1_455 S
C475 C56 1.444 . S
C477 C11 1.528 1_565 S
C493 C96 1.444 . S
C495 C51 1.528 . S
C511 C127 1.444 . S
C513 C162 1.528 1_545 S
C529 C167 1.444 . S
C531 C202 1.528 . S
C547 C122 1.528 1_655 S
C549 C207 1.444 . S
