# Generated by pormake.
# Topology wne, (6)-cn, num edge types: 1
# Building blocks:
#     Node 0, Type 0, BuildingBlock: IZENUY_clean_sbu_0, # of connection points: 6
#     Node 1, Type 0, BuildingBlock: IZENUY_clean_sbu_0, # of connection points: 6
#     Node 2, Type 0, BuildingBlock: IZENUY_clean_sbu_0, # of connection points: 6
#     Node 3, Type 0, BuildingBlock: IZENUY_clean_sbu_0, # of connection points: 6
#     Node 4, Type 0, BuildingBlock: IZENUY_clean_sbu_0, # of connection points: 6
#     Node 5, Type 0, BuildingBlock: IZENUY_clean_sbu_0, # of connection points: 6
#     Node 6, Type 0, BuildingBlock: IZENUY_clean_sbu_0, # of connection points: 6
#     Node 7, Type 0, BuildingBlock: IZENUY_clean_sbu_0, # of connection points: 6
#     Node 8, Type 0, BuildingBlock: IZENUY_clean_sbu_0, # of connection points: 6
#     Node 9, Type 0, BuildingBlock: IZENUY_clean_sbu_0, # of connection points: 6
#     Node 10, Type 0, BuildingBlock: IZENUY_clean_sbu_0, # of connection points: 6
#     Node 11, Type 0, BuildingBlock: IZENUY_clean_sbu_0, # of connection points: 6
#     Node 12, Type 0, BuildingBlock: IZENUY_clean_sbu_0, # of connection points: 6
#     Node 13, Type 0, BuildingBlock: IZENUY_clean_sbu_0, # of connection points: 6
#     Node 14, Type 0, BuildingBlock: IZENUY_clean_sbu_0, # of connection points: 6
#     Node 15, Type 0, BuildingBlock: IZENUY_clean_sbu_0, # of connection points: 6
#     Node 16, Type 0, BuildingBlock: IZENUY_clean_sbu_0, # of connection points: 6
#     Node 17, Type 0, BuildingBlock: IZENUY_clean_sbu_0, # of connection points: 6
#     Node 18, Type 0, BuildingBlock: IZENUY_clean_sbu_0, # of connection points: 6
#     Node 19, Type 0, BuildingBlock: IZENUY_clean_sbu_0, # of connection points: 6
#     Node 20, Type 0, BuildingBlock: IZENUY_clean_sbu_0, # of connection points: 6
#     Node 21, Type 0, BuildingBlock: IZENUY_clean_sbu_0, # of connection points: 6
#     Node 22, Type 0, BuildingBlock: IZENUY_clean_sbu_0, # of connection points: 6
#     Node 23, Type 0, BuildingBlock: IZENUY_clean_sbu_0, # of connection points: 6
#     Node 24, Type 0, BuildingBlock: IZENUY_clean_sbu_0, # of connection points: 6
#     Node 25, Type 0, BuildingBlock: IZENUY_clean_sbu_0, # of connection points: 6
#     Node 26, Type 0, BuildingBlock: IZENUY_clean_sbu_0, # of connection points: 6
#     Node 27, Type 0, BuildingBlock: IZENUY_clean_sbu_0, # of connection points: 6
#     Node 28, Type 0, BuildingBlock: IZENUY_clean_sbu_0, # of connection points: 6
#     Node 29, Type 0, BuildingBlock: IZENUY_clean_sbu_0, # of connection points: 6
#     Node 30, Type 0, BuildingBlock: IZENUY_clean_sbu_0, # of connection points: 6
#     Node 31, Type 0, BuildingBlock: IZENUY_clean_sbu_0, # of connection points: 6
#     Node 32, Type 0, BuildingBlock: IZENUY_clean_sbu_0, # of connection points: 6
#     Node 33, Type 0, BuildingBlock: IZENUY_clean_sbu_0, # of connection points: 6
#     Node 34, Type 0, BuildingBlock: IZENUY_clean_sbu_0, # of connection points: 6
#     Node 35, Type 0, BuildingBlock: IZENUY_clean_sbu_0, # of connection points: 6
#     Edge 36, Type (0, 0), BuildingBlock: OJICUG_clean_linker_0, # of connection points: 2
#     Edge 37, Type (0, 0), BuildingBlock: OJICUG_clean_linker_0, # of connection points: 2
#     Edge 38, Type (0, 0), BuildingBlock: OJICUG_clean_linker_0, # of connection points: 2
#     Edge 39, Type (0, 0), BuildingBlock: OJICUG_clean_linker_0, # of connection points: 2
#     Edge 40, Type (0, 0), BuildingBlock: OJICUG_clean_linker_0, # of connection points: 2
#     Edge 41, Type (0, 0), BuildingBlock: OJICUG_clean_linker_0, # of connection points: 2
#     Edge 42, Type (0, 0), BuildingBlock: OJICUG_clean_linker_0, # of connection points: 2
#     Edge 43, Type (0, 0), BuildingBlock: OJICUG_clean_linker_0, # of connection points: 2
#     Edge 44, Type (0, 0), BuildingBlock: OJICUG_clean_linker_0, # of connection points: 2
#     Edge 45, Type (0, 0), BuildingBlock: OJICUG_clean_linker_0, # of connection points: 2
#     Edge 46, Type (0, 0), BuildingBlock: OJICUG_clean_linker_0, # of connection points: 2
#     Edge 47, Type (0, 0), BuildingBlock: OJICUG_clean_linker_0, # of connection points: 2
#     Edge 48, Type (0, 0), BuildingBlock: OJICUG_clean_linker_0, # of connection points: 2
#     Edge 49, Type (0, 0), BuildingBlock: OJICUG_clean_linker_0, # of connection points: 2
#     Edge 50, Type (0, 0), BuildingBlock: OJICUG_clean_linker_0, # of connection points: 2
#     Edge 51, Type (0, 0), BuildingBlock: OJICUG_clean_linker_0, # of connection points: 2
#     Edge 52, Type (0, 0), BuildingBlock: OJICUG_clean_linker_0, # of connection points: 2
#     Edge 53, Type (0, 0), BuildingBlock: OJICUG_clean_linker_0, # of connection points: 2
#     Edge 54, Type (0, 0), BuildingBlock: OJICUG_clean_linker_0, # of connection points: 2
#     Edge 55, Type (0, 0), BuildingBlock: OJICUG_clean_linker_0, # of connection points: 2
#     Edge 56, Type (0, 0), BuildingBlock: OJICUG_clean_linker_0, # of connection points: 2
#     Edge 57, Type (0, 0), BuildingBlock: OJICUG_clean_linker_0, # of connection points: 2
#     Edge 58, Type (0, 0), BuildingBlock: OJICUG_clean_linker_0, # of connection points: 2
#     Edge 59, Type (0, 0), BuildingBlock: OJICUG_clean_linker_0, # of connection points: 2
#     Edge 60, Type (0, 0), BuildingBlock: OJICUG_clean_linker_0, # of connection points: 2
#     Edge 61, Type (0, 0), BuildingBlock: OJICUG_clean_linker_0, # of connection points: 2
#     Edge 62, Type (0, 0), BuildingBlock: OJICUG_clean_linker_0, # of connection points: 2
#     Edge 63, Type (0, 0), BuildingBlock: OJICUG_clean_linker_0, # of connection points: 2
#     Edge 64, Type (0, 0), BuildingBlock: OJICUG_clean_linker_0, # of connection points: 2
#     Edge 65, Type (0, 0), BuildingBlock: OJICUG_clean_linker_0, # of connection points: 2
#     Edge 66, Type (0, 0), BuildingBlock: OJICUG_clean_linker_0, # of connection points: 2
#     Edge 67, Type (0, 0), BuildingBlock: OJICUG_clean_linker_0, # of connection points: 2
#     Edge 68, Type (0, 0), BuildingBlock: OJICUG_clean_linker_0, # of connection points: 2
#     Edge 69, Type (0, 0), BuildingBlock: OJICUG_clean_linker_0, # of connection points: 2
#     Edge 70, Type (0, 0), BuildingBlock: OJICUG_clean_linker_0, # of connection points: 2
#     Edge 71, Type (0, 0), BuildingBlock: OJICUG_clean_linker_0, # of connection points: 2
#     Edge 72, Type (0, 0), BuildingBlock: OJICUG_clean_linker_0, # of connection points: 2
#     Edge 73, Type (0, 0), BuildingBlock: OJICUG_clean_linker_0, # of connection points: 2
#     Edge 74, Type (0, 0), BuildingBlock: OJICUG_clean_linker_0, # of connection points: 2
#     Edge 75, Type (0, 0), BuildingBlock: OJICUG_clean_linker_0, # of connection points: 2
#     Edge 76, Type (0, 0), BuildingBlock: OJICUG_clean_linker_0, # of connection points: 2
#     Edge 77, Type (0, 0), BuildingBlock: OJICUG_clean_linker_0, # of connection points: 2
#     Edge 78, Type (0, 0), BuildingBlock: OJICUG_clean_linker_0, # of connection points: 2
#     Edge 79, Type (0, 0), BuildingBlock: OJICUG_clean_linker_0, # of connection points: 2
#     Edge 80, Type (0, 0), BuildingBlock: OJICUG_clean_linker_0, # of connection points: 2
#     Edge 81, Type (0, 0), BuildingBlock: OJICUG_clean_linker_0, # of connection points: 2
#     Edge 82, Type (0, 0), BuildingBlock: OJICUG_clean_linker_0, # of connection points: 2
#     Edge 83, Type (0, 0), BuildingBlock: OJICUG_clean_linker_0, # of connection points: 2
#     Edge 84, Type (0, 0), BuildingBlock: OJICUG_clean_linker_0, # of connection points: 2
#     Edge 85, Type (0, 0), BuildingBlock: OJICUG_clean_linker_0, # of connection points: 2
#     Edge 86, Type (0, 0), BuildingBlock: OJICUG_clean_linker_0, # of connection points: 2
#     Edge 87, Type (0, 0), BuildingBlock: OJICUG_clean_linker_0, # of connection points: 2
#     Edge 88, Type (0, 0), BuildingBlock: OJICUG_clean_linker_0, # of connection points: 2
#     Edge 89, Type (0, 0), BuildingBlock: OJICUG_clean_linker_0, # of connection points: 2
#     Edge 90, Type (0, 0), BuildingBlock: OJICUG_clean_linker_0, # of connection points: 2
#     Edge 91, Type (0, 0), BuildingBlock: OJICUG_clean_linker_0, # of connection points: 2
#     Edge 92, Type (0, 0), BuildingBlock: OJICUG_clean_linker_0, # of connection points: 2
#     Edge 93, Type (0, 0), BuildingBlock: OJICUG_clean_linker_0, # of connection points: 2
#     Edge 94, Type (0, 0), BuildingBlock: OJICUG_clean_linker_0, # of connection points: 2
#     Edge 95, Type (0, 0), BuildingBlock: OJICUG_clean_linker_0, # of connection points: 2
#     Edge 96, Type (0, 0), BuildingBlock: OJICUG_clean_linker_0, # of connection points: 2
#     Edge 97, Type (0, 0), BuildingBlock: OJICUG_clean_linker_0, # of connection points: 2
#     Edge 98, Type (0, 0), BuildingBlock: OJICUG_clean_linker_0, # of connection points: 2
#     Edge 99, Type (0, 0), BuildingBlock: OJICUG_clean_linker_0, # of connection points: 2
#     Edge 100, Type (0, 0), BuildingBlock: OJICUG_clean_linker_0, # of connection points: 2
#     Edge 101, Type (0, 0), BuildingBlock: OJICUG_clean_linker_0, # of connection points: 2
#     Edge 102, Type (0, 0), BuildingBlock: OJICUG_clean_linker_0, # of connection points: 2
#     Edge 103, Type (0, 0), BuildingBlock: OJICUG_clean_linker_0, # of connection points: 2
#     Edge 104, Type (0, 0), BuildingBlock: OJICUG_clean_linker_0, # of connection points: 2
#     Edge 105, Type (0, 0), BuildingBlock: OJICUG_clean_linker_0, # of connection points: 2
#     Edge 106, Type (0, 0), BuildingBlock: OJICUG_clean_linker_0, # of connection points: 2
#     Edge 107, Type (0, 0), BuildingBlock: OJICUG_clean_linker_0, # of connection points: 2
#     Edge 108, Type (0, 0), BuildingBlock: OJICUG_clean_linker_0, # of connection points: 2
#     Edge 109, Type (0, 0), BuildingBlock: OJICUG_clean_linker_0, # of connection points: 2
#     Edge 110, Type (0, 0), BuildingBlock: OJICUG_clean_linker_0, # of connection points: 2
#     Edge 111, Type (0, 0), BuildingBlock: OJICUG_clean_linker_0, # of connection points: 2
#     Edge 112, Type (0, 0), BuildingBlock: OJICUG_clean_linker_0, # of connection points: 2
#     Edge 113, Type (0, 0), BuildingBlock: OJICUG_clean_linker_0, # of connection points: 2
#     Edge 114, Type (0, 0), BuildingBlock: OJICUG_clean_linker_0, # of connection points: 2
#     Edge 115, Type (0, 0), BuildingBlock: OJICUG_clean_linker_0, # of connection points: 2
#     Edge 116, Type (0, 0), BuildingBlock: OJICUG_clean_linker_0, # of connection points: 2
#     Edge 117, Type (0, 0), BuildingBlock: OJICUG_clean_linker_0, # of connection points: 2
#     Edge 118, Type (0, 0), BuildingBlock: OJICUG_clean_linker_0, # of connection points: 2
#     Edge 119, Type (0, 0), BuildingBlock: OJICUG_clean_linker_0, # of connection points: 2
#     Edge 120, Type (0, 0), BuildingBlock: OJICUG_clean_linker_0, # of connection points: 2
#     Edge 121, Type (0, 0), BuildingBlock: OJICUG_clean_linker_0, # of connection points: 2
#     Edge 122, Type (0, 0), BuildingBlock: OJICUG_clean_linker_0, # of connection points: 2
#     Edge 123, Type (0, 0), BuildingBlock: OJICUG_clean_linker_0, # of connection points: 2
#     Edge 124, Type (0, 0), BuildingBlock: OJICUG_clean_linker_0, # of connection points: 2
#     Edge 125, Type (0, 0), BuildingBlock: OJICUG_clean_linker_0, # of connection points: 2
#     Edge 126, Type (0, 0), BuildingBlock: OJICUG_clean_linker_0, # of connection points: 2
#     Edge 127, Type (0, 0), BuildingBlock: OJICUG_clean_linker_0, # of connection points: 2
#     Edge 128, Type (0, 0), BuildingBlock: OJICUG_clean_linker_0, # of connection points: 2
#     Edge 129, Type (0, 0), BuildingBlock: OJICUG_clean_linker_0, # of connection points: 2
#     Edge 130, Type (0, 0), BuildingBlock: OJICUG_clean_linker_0, # of connection points: 2
#     Edge 131, Type (0, 0), BuildingBlock: OJICUG_clean_linker_0, # of connection points: 2
#     Edge 132, Type (0, 0), BuildingBlock: OJICUG_clean_linker_0, # of connection points: 2
#     Edge 133, Type (0, 0), BuildingBlock: OJICUG_clean_linker_0, # of connection points: 2
#     Edge 134, Type (0, 0), BuildingBlock: OJICUG_clean_linker_0, # of connection points: 2
#     Edge 135, Type (0, 0), BuildingBlock: OJICUG_clean_linker_0, # of connection points: 2
#     Edge 136, Type (0, 0), BuildingBlock: OJICUG_clean_linker_0, # of connection points: 2
#     Edge 137, Type (0, 0), BuildingBlock: OJICUG_clean_linker_0, # of connection points: 2
#     Edge 138, Type (0, 0), BuildingBlock: OJICUG_clean_linker_0, # of connection points: 2
#     Edge 139, Type (0, 0), BuildingBlock: OJICUG_clean_linker_0, # of connection points: 2
#     Edge 140, Type (0, 0), BuildingBlock: OJICUG_clean_linker_0, # of connection points: 2
#     Edge 141, Type (0, 0), BuildingBlock: OJICUG_clean_linker_0, # of connection points: 2
#     Edge 142, Type (0, 0), BuildingBlock: OJICUG_clean_linker_0, # of connection points: 2
#     Edge 143, Type (0, 0), BuildingBlock: OJICUG_clean_linker_0, # of connection points: 2
# Relax obj value: 0.280
# Max RMSD: 0.272
# Mean RMSD: 0.272
data_MOF--net-wne--node1-IZENUY_clean_sbu_0--edge1-OJICUG_clean_linker_0
_symmetry_space_group_name_H-M    P1
_symmetry_Int_Tables_number       1
_symmetry_cell_setting            triclinic
loop_
_symmetry_equiv_pos_as_xyz
'x, y, z'
_cell_length_a     45.422433
_cell_length_b     45.43155
_cell_length_c     29.680271
_cell_angle_alpha  89.985136
_cell_angle_beta   90.030563
_cell_angle_gamma 120.01262
loop_
_atom_site_label
_atom_site_type_symbol
_atom_site_fract_x
_atom_site_fract_y
_atom_site_fract_z
_atom_type_partial_charge
Fe0 Fe 0.27446 0.23784 0.02307 0.0
Fe1 Fe 0.3304 0.25916 0.09373 0.0
O2 O 0.29042 0.22881 0.07209 0.0
Fe3 Fe 0.26551 0.18996 0.1008 0.0
O4 O 0.26631 0.16592 0.05284 0.0
O5 O 0.25099 0.19261 1.004 0.0
O6 O 0.30919 0.24212 0.98984 0.0
C7 C 0.33989 0.26277 0.99798 0.0
C8 C 0.21684 0.2081 0.07214 0.0
O9 O 0.34955 0.27522 0.0373 0.0
C10 C 0.28781 0.23511 0.17009 0.0
O11 O 0.29503 0.28438 0.03344 0.0
O12 O 0.31709 0.2897 0.10038 0.0
O13 O 0.22352 0.18485 0.08268 0.0
O14 O 0.23912 0.23474 0.05379 0.0
C15 C 0.33484 0.20455 0.11525 0.0
O16 O 0.31764 0.24902 0.15363 0.0
O17 O 0.26288 0.21215 0.14895 0.0
C18 C 0.30446 0.29972 0.07101 0.0
O19 O 0.34605 0.22988 0.08968 0.0
O20 O 0.30321 0.18874 0.12551 0.0
C21 C 0.25428 0.1672 0.0149 0.0
Fe22 Fe 0.84985 0.05404 0.02268 0.0
Fe23 Fe 0.82843 0.08842 0.09348 0.0
O24 O 0.85879 0.0788 0.07191 0.0
Fe25 Fe 0.8975 0.09249 0.1009 0.0
O26 O 0.92181 0.11745 0.05314 0.0
O27 O 0.89513 0.07572 1.00394 0.0
O28 O 0.84583 0.08476 0.98963 0.0
C29 C 0.82516 0.09478 0.99775 0.0
C30 C 0.87919 1.02574 0.07181 0.0
O31 O 0.81257 0.09177 0.03701 0.0
C32 C 0.85216 0.06959 0.16995 0.0
O33 O 0.80329 1.02816 0.03271 0.0
O34 O 0.79782 0.04455 0.09978 0.0
O35 O 0.90248 0.05557 0.08271 0.0
O36 O 0.85271 1.02157 0.05317 0.0
C37 C 0.88309 0.14734 0.1155 0.0
O38 O 0.83835 0.08557 0.15342 0.0
O39 O 0.87509 0.06755 0.14887 0.0
C40 C 0.78787 1.02204 0.07023 0.0
O41 O 0.85782 0.13336 0.08978 0.0
O42 O 0.89882 0.13143 0.12571 0.0
C43 C 0.92062 0.10425 0.01515 0.0
Fe44 Fe 1.0333 0.81317 0.02307 0.0
Fe45 Fe 0.99888 0.75749 0.09405 0.0
O46 O 1.00851 0.79741 0.07226 0.0
Fe47 Fe 0.99479 0.82247 0.10103 0.0
O48 O 0.96978 0.82164 0.0532 0.0
O49 O 1.01155 0.83666 1.00408 0.0
O50 O 1.00263 0.77834 0.99009 0.0
C51 C 0.99257 0.74766 0.99835 0.0
C52 C 0.06152 0.87093 0.07191 0.0
O53 O 0.99552 0.73814 0.03769 0.0
C54 C 1.01799 0.80034 0.17015 0.0
O55 O 0.05923 0.79254 0.03336 0.0
O56 O 1.04274 0.77073 0.10045 0.0
O57 O 1.03166 0.86435 0.08265 0.0
O58 O 0.06573 0.84858 0.05351 0.0
C59 C 0.93997 0.75324 0.11586 0.0
O60 O 1.00178 0.77045 0.15391 0.0
O61 O 1.01983 0.82519 0.14899 0.0
C62 C 0.06528 0.78323 0.07093 0.0
O63 O 0.95395 0.74194 0.09024 0.0
O64 O 0.95589 0.7849 0.12602 0.0
C65 C 0.98298 0.83358 0.01519 0.0
Fe66 Fe 0.20723 0.24739 0.40973 0.0
Fe67 Fe 0.25501 0.2566 0.48779 0.0
O68 O 0.24603 0.2724 0.43857 0.0
Fe69 Fe 0.2764 0.31232 0.41684 0.0
O70 O 0.24708 0.32794 0.42056 0.0
O71 O 0.20598 0.285 0.38479 0.0
O72 O 0.18306 0.2482 0.45754 0.0
C73 C 0.18429 0.23622 0.49554 0.0
C74 C 0.2526 0.26954 0.34068 0.0
O75 O 0.20976 0.23311 0.50667 0.0
C76 C 0.31698 0.28653 0.4401 0.0
O77 O 0.20217 0.20549 0.42806 0.0
O78 O 0.25201 0.22121 0.45733 0.0
O79 O 0.26635 0.29941 0.35696 0.0
O80 O 0.22954 0.24469 0.36179 0.0
C81 C 0.27986 0.32209 0.51255 0.0
O82 O 0.30158 0.27723 0.47763 0.0
O83 O 0.30696 0.29901 0.41052 0.0
C84 C 0.22545 0.1989 0.43882 0.0
O85 O 0.25917 0.29141 0.52076 0.0
O86 O 0.29238 0.33162 0.47324 0.0
C87 C 0.22176 0.31665 0.39493 0.0
Fe88 Fe 0.83099 1.01579 0.48845 0.0
Fe89 Fe 0.77532 0.98167 0.41735 0.0
O90 O 0.81523 0.99116 0.4391 0.0
Fe91 Fe 0.84025 0.97748 0.41016 0.0
O92 O 0.83947 0.95239 0.45783 0.0
O93 O 0.85448 0.994 0.50722 0.0
O94 O 0.79613 0.98504 0.52129 0.0
C95 C 0.76548 0.97518 0.51306 0.0
C96 C 0.88873 0.04415 0.43949 0.0
O97 O 0.75601 0.97828 0.47375 0.0
C98 C 0.81808 1.00076 0.34117 0.0
O99 O 0.81042 0.04178 0.47838 0.0
O100 O 0.78872 1.02558 0.41117 0.0
O101 O 0.88217 1.01433 0.42853 0.0
O102 O 0.86644 0.04831 0.4582 0.0
C103 C 0.77094 0.92274 0.39523 0.0
O104 O 0.78821 0.98462 0.35746 0.0
O105 O 0.84294 1.00259 0.3623 0.0
C106 C 0.80125 0.04802 0.44083 0.0
O107 O 0.75964 0.93671 0.42091 0.0
O108 O 0.80261 0.93863 0.38514 0.0
C109 C 0.85143 0.96549 0.49589 0.0
Fe110 Fe 0.07076 0.8317 0.4883 0.0
Fe111 Fe 0.10527 0.81021 0.4178 0.0
O112 O 0.09577 0.84065 0.43933 0.0
Fe113 Fe 0.10985 0.87949 0.41055 0.0
O114 O 0.13466 0.90352 0.45857 0.0
O115 O 0.0926 0.87694 0.50732 0.0
O116 O 0.10117 0.82734 0.52162 0.0
C117 C 0.11104 0.80655 0.51353 0.0
C118 C 1.04304 0.86149 0.43899 0.0
O119 O 0.10811 0.79404 0.47424 0.0
C120 C 0.08709 0.83439 0.34122 0.0
O121 O 1.04471 0.78517 0.47791 0.0
O122 O 0.06137 0.77985 0.41095 0.0
O123 O 0.073 0.8847 0.42844 0.0
O124 O 1.0386 0.83487 0.45748 0.0
C125 C 0.16452 0.86472 0.39664 0.0
O126 O 0.1029 0.82042 0.35786 0.0
O127 O 0.08508 0.85733 0.36231 0.0
C128 C 1.03872 0.76986 0.4403 0.0
O129 O 0.15025 0.83936 0.42212 0.0
O130 O 0.14878 0.88057 0.38614 0.0
C131 C 0.12131 0.90232 0.49643 0.0
Fe132 Fe 0.83983 0.88004 0.90981 0.0
Fe133 Fe 0.83055 0.83222 0.98778 0.0
O134 O 0.81476 0.84127 0.9386 0.0
Fe135 Fe 0.77478 0.81097 0.91688 0.0
O136 O 0.75926 0.84037 0.92065 0.0
O137 O 0.80224 0.8814 0.88487 0.0
O138 O 0.83909 0.90423 0.95764 0.0
C139 C 0.85107 0.90296 0.99563 0.0
C140 C 0.81753 0.83474 0.84068 0.0
O141 O 0.85415 0.87747 0.00672 0.0
C142 C 0.80047 0.77028 0.94003 0.0
O143 O 0.88172 0.88499 0.92811 0.0
O144 O 0.86589 0.83512 0.95729 0.0
O145 O 0.78767 0.82099 0.857 0.0
O146 O 0.84244 0.85771 0.86182 0.0
C147 C 0.7651 0.80753 0.01261 0.0
O148 O 0.80983 0.78566 0.97757 0.0
O149 O 0.78798 0.78033 0.9105 0.0
C150 C 0.88826 0.86168 0.93886 0.0
O151 O 0.7958 0.82815 0.0208 0.0
O152 O 0.7555 0.79503 0.9733 0.0
C153 C 0.77057 0.86566 0.895 0.0
Fe154 Fe 0.20738 0.97732 0.90971 0.0
Fe155 Fe 0.25515 1.01523 0.98805 0.0
O156 O 0.24601 0.99058 0.93869 0.0
Fe157 Fe 0.27606 0.98053 0.91707 0.0
O158 O 0.24625 0.93574 0.92073 0.0
O159 O 0.20564 0.93825 0.88464 0.0
O160 O 0.1829 0.95236 0.95735 0.0
C161 C 0.18421 0.96549 0.99543 0.0
C162 C 0.25277 1.00004 0.84074 0.0
O163 O 0.20987 0.99386 0.00678 0.0
C164 C 0.31713 0.04678 0.94044 0.0
O165 O 0.20283 1.01445 0.92811 0.0
O166 O 0.25266 0.04803 0.95783 0.0
O167 O 0.26628 0.98371 0.85713 0.0
O168 O 0.22999 1.00229 0.86188 0.0
C169 C 0.27904 0.97368 0.01268 0.0
O170 O 0.30175 0.04076 0.97798 0.0
O171 O 0.30705 1.02425 0.9109 0.0
C172 C 0.2263 0.04417 0.93915 0.0
O173 O 0.25874 0.98415 0.02084 0.0
O174 O 0.29176 0.97677 0.9735 0.0
C175 C 0.22106 0.92203 0.89489 0.0
Fe176 Fe 0.10621 0.31231 0.91716 0.0
Fe177 Fe 0.11026 0.24731 0.91008 0.0
O178 O 0.09661 0.27239 0.93892 0.0
Fe179 Fe 0.0719 0.25667 0.98819 0.0
O180 O 0.10267 0.29148 0.02109 0.0
O181 O 0.10963 0.33166 0.97354 0.0
O182 O 0.15115 0.32786 0.92085 0.0
C183 C 0.16509 0.31654 0.89516 0.0
C184 C 1.03988 0.28664 0.9405 0.0
O185 O 0.14915 0.28487 0.88506 0.0
C186 C 1.04354 0.19892 0.93929 0.0
O187 O 0.10326 0.29938 0.85728 0.0
O188 O 0.0852 0.24463 0.86217 0.0
O189 O 1.04601 0.27735 0.97803 0.0
O190 O 0.06234 0.29906 0.91087 0.0
C191 C 0.12213 0.23614 0.99586 0.0
O192 O 0.07337 0.20545 0.92846 0.0
O193 O 1.03938 0.22127 0.95783 0.0
C194 C 0.08707 0.2695 0.84102 0.0
O195 O 0.1353 0.24809 0.95783 0.0
O196 O 0.09361 0.23312 0.00706 0.0
C197 C 0.11264 0.32215 0.01286 0.0
Fe198 Fe 0.89758 0.82213 0.60097 0.0
Fe199 Fe 0.84965 0.81298 0.52317 0.0
O200 O 0.85874 0.79712 0.57224 0.0
Fe201 Fe 0.82845 0.75714 0.59392 0.0
O202 O 0.85782 0.7416 0.58999 0.0
O203 O 0.89891 0.78452 0.62578 0.0
O204 O 0.92167 0.82138 0.55304 0.0
C205 C 0.92037 0.83342 0.51511 0.0
C206 C 0.85236 0.79984 0.67018 0.0
O207 O 0.89487 0.83653 0.50414 0.0
C208 C 0.78777 0.78293 0.57107 0.0
O209 O 0.90259 0.86404 0.58279 0.0
O210 O 0.85267 0.84831 0.55384 0.0
O211 O 0.83856 0.76999 0.65381 0.0
O212 O 0.87534 0.82474 0.64905 0.0
C213 C 0.82485 0.74755 0.49817 0.0
O214 O 0.8031 0.79233 0.5335 0.0
O215 O 0.79782 0.77035 0.60047 0.0
C216 C 0.87929 0.87064 0.57219 0.0
O217 O 0.84545 0.77825 0.49 0.0
O218 O 0.81242 0.73792 0.5375 0.0
C219 C 0.88314 0.75287 0.61561 0.0
Fe220 Fe 0.26467 0.09232 0.60076 0.0
Fe221 Fe 0.2742 0.05416 0.5225 0.0
O222 O 0.28985 0.07884 0.57184 0.0
Fe223 Fe 0.32983 0.08857 0.59358 0.0
O224 O 0.34523 0.13346 0.58988 0.0
O225 O 0.3022 0.13131 0.62576 0.0
O226 O 0.26529 0.11731 0.55306 0.0
C227 C 0.25339 0.10416 0.515 0.0
C228 C 0.28707 0.06929 0.66978 0.0
O229 O 0.25048 0.0757 0.50372 0.0
C230 C 0.30432 1.02232 0.57019 0.0
O231 O 0.22285 0.05531 0.58241 0.0
O232 O 0.23883 1.02152 0.55277 0.0
O233 O 0.31693 0.08558 0.65349 0.0
O234 O 0.26214 0.06731 0.64864 0.0
C235 C 0.33967 0.09513 0.49786 0.0
O236 O 0.29508 1.02847 0.53263 0.0
O237 O 0.31668 0.04475 0.59986 0.0
C238 C 0.21645 1.02553 0.57147 0.0
O239 O 0.30897 0.08505 0.48964 0.0
O240 O 0.34919 0.09208 0.53716 0.0
C241 C 0.33386 0.14734 0.61557 0.0
Fe242 Fe 1.03363 0.23786 0.52315 0.0
Fe243 Fe 0.99896 0.25904 0.59383 0.0
O244 O 1.00867 0.22877 0.57219 0.0
Fe245 Fe 0.99485 0.18995 0.60092 0.0
O246 O 0.97002 0.16585 0.55296 0.0
O247 O 1.01198 0.19264 0.50412 0.0
O248 O 1.00306 0.24201 0.48994 0.0
C249 C 0.99294 0.26259 0.49809 0.0
C250 C 0.0617 0.20828 0.5722 0.0
O251 O 0.99577 0.27505 0.53741 0.0
C252 C 1.01766 0.23511 0.6702 0.0
O253 O 0.05949 0.2844 0.53349 0.0
O254 O 1.04281 0.28966 0.60046 0.0
O255 O 1.0318 0.18498 0.5828 0.0
O256 O 0.06597 0.2349 0.55386 0.0
C257 C 0.93998 0.20433 0.6154 0.0
O258 O 1.00166 0.24893 0.65374 0.0
O259 O 1.01969 0.21219 0.64906 0.0
C260 C 0.06544 0.29974 0.57107 0.0
O261 O 0.95404 0.22965 0.58981 0.0
O262 O 0.95587 0.18859 0.62564 0.0
C263 C 0.98336 0.16715 0.51506 0.0
Fe264 Fe 0.9407 0.57078 0.35617 0.0
Fe265 Fe 0.99643 0.59219 0.42718 0.0
O266 O 0.9565 0.56181 0.40542 0.0
Fe267 Fe 0.93149 0.52305 0.43426 0.0
O268 O 0.93228 0.49885 0.38647 0.0
O269 O 0.91722 0.52553 0.33727 0.0
O270 O 0.97554 0.57497 0.32322 0.0
C271 C 1.00621 0.5957 0.33146 0.0
C272 C 0.88297 0.54124 0.40509 0.0
O273 O 1.01572 0.60819 0.37079 0.0
C274 C 0.95369 0.56835 0.50339 0.0
O275 O 0.96128 0.61732 0.3664 0.0
O276 O 0.98308 0.62271 0.43353 0.0
O277 O 0.88956 0.51799 0.41593 0.0
O278 O 0.90528 0.56778 0.38656 0.0
C279 C 1.00079 0.53759 0.44907 0.0
O280 O 0.98355 0.58214 0.48707 0.0
O281 O 0.92881 0.54536 0.48223 0.0
C282 C 0.9705 0.63267 0.40398 0.0
O283 O 1.01208 0.5629 0.42345 0.0
O284 O 0.96913 0.52179 0.4592 0.0
C285 C 0.92029 0.50006 0.34846 0.0
Fe286 Fe 0.51626 0.38746 0.35636 0.0
Fe287 Fe 0.49503 0.42206 0.4271 0.0
O288 O 0.52535 0.41244 0.40539 0.0
Fe289 Fe 0.56422 0.42634 0.43408 0.0
O290 O 0.58824 0.45121 0.38611 0.0
O291 O 0.56147 0.40921 0.33729 0.0
O292 O 0.51198 0.41794 0.32315 0.0
C293 C 0.49137 0.42804 0.33135 0.0
C294 C 0.54606 0.35958 0.40533 0.0
O295 O 0.47897 0.42524 0.37069 0.0
C296 C 0.51904 0.40331 0.50333 0.0
O297 O 0.46973 0.36152 0.36672 0.0
O298 O 0.46445 0.3782 0.43367 0.0
O299 O 0.56932 0.38951 0.41588 0.0
O300 O 0.51937 0.35521 0.38707 0.0
C301 C 0.54969 0.48107 0.44874 0.0
O302 O 0.50519 0.41933 0.48698 0.0
O303 O 0.54205 0.40145 0.48219 0.0
C304 C 0.4544 0.35557 0.40428 0.0
O305 O 0.52435 0.46699 0.42315 0.0
O306 O 0.5655 0.46524 0.4589 0.0
C307 C 0.58693 0.43787 0.34819 0.0
Fe308 Fe 0.70076 0.14646 0.35631 0.0
Fe309 Fe 0.66599 0.09036 0.42667 0.0
O310 O 0.67559 0.13034 0.40514 0.0
Fe311 Fe 0.66144 0.15508 0.43379 0.0
O312 O 0.63677 0.15435 0.38563 0.0
O313 O 0.679 0.16991 0.33714 0.0
O314 O 0.67045 0.11176 0.32283 0.0
C315 C 0.66046 0.08107 0.33092 0.0
C316 C 0.72834 0.20395 0.40564 0.0
O317 O 0.66325 0.07141 0.37023 0.0
C318 C 0.68401 0.13266 0.50328 0.0
O319 O 0.72675 0.12596 0.36686 0.0
O320 O 0.70986 0.10384 0.43371 0.0
O321 O 0.69834 0.19716 0.41602 0.0
O322 O 0.73283 0.18175 0.38732 0.0
C323 C 0.60672 0.08565 0.44757 0.0
O324 O 0.66826 0.1029 0.4866 0.0
O325 O 0.68608 0.15764 0.48218 0.0
C326 C 0.73262 0.11657 0.40449 0.0
O327 O 0.62103 0.07457 0.42217 0.0
O328 O 0.62246 0.11724 0.45809 0.0
C329 C 0.65024 0.16654 0.34783 0.0
Fe330 Fe 0.92137 0.58972 0.82202 0.0
Fe331 Fe 0.94295 0.64543 0.75101 0.0
O332 O 0.91253 0.60548 0.77262 0.0
Fe333 Fe 0.87388 0.58043 0.74352 0.0
O334 O 0.84945 0.58107 0.79112 0.0
O335 O 0.87606 0.56614 0.84061 0.0
O336 O 0.92533 0.62452 0.85486 0.0
C337 C 0.94609 0.65519 0.8467 0.0
C338 C 0.89218 0.53205 0.77292 0.0
O339 O 0.95876 0.66469 0.80746 0.0
C340 C 0.91936 0.60282 0.67461 0.0
O341 O 0.96796 0.61041 0.81214 0.0
O342 O 0.97352 0.63211 0.74493 0.0
O343 O 0.8689 0.53854 0.76183 0.0
O344 O 0.91857 0.55435 0.79177 0.0
C345 C 0.88833 0.6497 0.72874 0.0
O346 O 0.93312 0.63263 0.69107 0.0
O347 O 0.89639 0.57787 0.69568 0.0
C348 C 0.98341 0.61959 0.77464 0.0
O349 O 0.91359 0.66101 0.75449 0.0
O350 O 0.8726 0.61804 0.71857 0.0
C351 C 0.85058 0.56913 0.82919 0.0
Fe352 Fe 0.5065 0.31059 0.74307 0.0
Fe353 Fe 0.49739 0.34914 0.82114 0.0
O354 O 0.48153 0.32437 0.77193 0.0
Fe355 Fe 0.44159 0.31482 0.75026 0.0
O356 O 0.42593 0.26988 0.75404 0.0
O357 O 0.46883 0.27172 0.71819 0.0
O358 O 0.50571 0.28558 0.79084 0.0
C359 C 0.51768 0.29874 0.82887 0.0
C360 C 0.48425 0.33369 0.67398 0.0
O361 O 0.52088 0.32735 0.84001 0.0
C362 C 0.46748 0.38121 0.77345 0.0
O363 O 0.54846 0.34746 0.76135 0.0
O364 O 0.53276 0.38155 0.79068 0.0
O365 O 0.4544 0.31764 0.69036 0.0
O366 O 0.50915 0.33559 0.6951 0.0
C367 C 0.43193 0.30856 0.84598 0.0
O368 O 0.47679 0.3751 0.81099 0.0
O369 O 0.45494 0.3587 0.74389 0.0
C370 C 0.55506 0.37732 0.77215 0.0
O371 O 0.46261 0.31848 0.85413 0.0
O372 O 0.42237 0.31155 0.80669 0.0
C373 C 0.43718 0.25584 0.7284 0.0
Fe374 Fe 0.73838 0.16588 0.8213 0.0
Fe375 Fe 0.7726 0.14447 0.75026 0.0
O376 O 0.76306 0.17482 0.77201 0.0
Fe377 Fe 0.77673 0.21356 0.74311 0.0
O378 O 0.80184 0.23783 0.79081 0.0
O379 O 0.76019 0.21115 0.84013 0.0
O380 O 0.76912 0.16178 0.85418 0.0
C381 C 0.77909 0.14108 0.84595 0.0
C382 C 0.71006 0.19532 0.7724 0.0
O383 O 0.77604 0.12854 0.80664 0.0
C384 C 0.75332 0.16807 0.67417 0.0
O385 O 0.71241 0.1193 0.81117 0.0
O386 O 0.72871 0.11386 0.74403 0.0
O387 O 0.7399 0.2186 0.76153 0.0
O388 O 0.70588 0.16881 0.79096 0.0
C389 C 0.8315 0.19909 0.7282 0.0
O390 O 0.7696 0.15445 0.69037 0.0
O391 O 0.75159 0.19115 0.69526 0.0
C392 C 0.70625 0.10388 0.77364 0.0
O393 O 0.81754 0.17382 0.75389 0.0
O394 O 0.81558 0.21482 0.71805 0.0
C395 C 0.78873 0.23663 0.82887 0.0
Fe396 Fe 0.44223 0.14478 0.2505 0.0
Fe397 Fe 0.50737 0.21369 0.24315 0.0
O398 O 0.48216 0.17511 0.27226 0.0
Fe399 Fe 0.49769 0.16624 0.32182 0.0
O400 O 0.46286 0.16249 0.35439 0.0
O401 O 0.42278 0.129 0.30691 0.0
O402 O 0.42679 0.17423 0.25388 0.0
C403 C 0.43819 0.19946 0.22811 0.0
C404 C 0.46766 0.10411 0.2745 0.0
O405 O 0.46986 0.21507 0.21795 0.0
C406 C 0.55549 0.19513 0.27292 0.0
O407 O 0.45518 0.15456 0.19058 0.0
O408 O 0.50995 0.19106 0.19549 0.0
O409 O 0.47679 0.11962 0.31199 0.0
O410 O 0.45547 0.11414 0.24455 0.0
C411 C 0.51858 0.23708 0.32877 0.0
O412 O 0.54915 0.2185 0.26169 0.0
O413 O 0.5331 0.16884 0.29187 0.0
C414 C 0.48506 0.16805 0.17438 0.0
O415 O 0.50674 0.23822 0.29062 0.0
O416 O 0.52141 0.21155 0.34035 0.0
C417 C 0.4322 0.14172 0.34616 0.0
Fe418 Fe 0.94292 0.3146 0.2505 0.0
Fe419 Fe 0.87381 0.31047 0.24338 0.0
O420 O 0.9126 0.32421 0.27221 0.0
Fe421 Fe 0.92162 0.34902 0.3214 0.0
O422 O 0.92575 0.31836 0.35441 0.0
O423 O 0.95891 0.31129 0.3069 0.0
O424 O 0.91355 0.26967 0.25428 0.0
C425 C 0.88825 0.25567 0.22861 0.0
C426 C 0.98356 0.381 0.27363 0.0
O427 O 0.8725 0.27157 0.21846 0.0
C428 C 0.89211 0.37722 0.27242 0.0
O429 O 0.93287 0.31745 0.19062 0.0
O430 O 0.89615 0.33547 0.19542 0.0
O431 O 0.96819 0.37493 0.31118 0.0
O432 O 0.97353 0.35846 0.24411 0.0
C433 C 0.85087 0.29874 0.32918 0.0
O434 O 0.86881 0.34736 0.26166 0.0
O435 O 0.91867 0.38144 0.29091 0.0
C436 C 0.91917 0.33362 0.17432 0.0
O437 O 0.84961 0.28551 0.29119 0.0
O438 O 0.87637 0.3273 0.34031 0.0
C439 C 0.94643 0.30836 0.34622 0.0
Fe440 Fe 0.73805 0.58995 0.32129 0.0
Fe441 Fe 0.77251 0.64574 0.25047 0.0
O442 O 0.76287 0.60578 0.27212 0.0
Fe443 Fe 0.77658 0.58076 0.24326 0.0
O444 O 0.80151 0.58144 0.29109 0.0
O445 O 0.75971 0.56635 0.34016 0.0
O446 O 0.76875 0.62469 0.35435 0.0
C447 C 0.77878 0.65538 0.34621 0.0
C448 C 0.70978 0.53232 0.27217 0.0
O449 O 0.77582 0.66497 0.30692 0.0
C450 C 0.75361 0.60311 0.17414 0.0
O451 O 0.71219 0.61066 0.31112 0.0
O452 O 0.72865 0.63249 0.24405 0.0
O453 O 0.73964 0.53886 0.26144 0.0
O454 O 0.7056 0.55463 0.29075 0.0
C455 C 0.83145 0.65002 0.22867 0.0
O456 O 0.76968 0.63294 0.19055 0.0
O457 O 0.75165 0.57819 0.19525 0.0
C458 C 0.70612 0.61999 0.27358 0.0
O459 O 0.81744 0.6613 0.2543 0.0
O460 O 0.81553 0.61837 0.21846 0.0
C461 C 0.78827 0.56942 0.32905 0.0
Fe462 Fe 0.51632 0.14573 0.85615 0.0
Fe463 Fe 0.4955 0.09006 0.92706 0.0
O464 O 0.52551 0.13017 0.90542 0.0
Fe465 Fe 0.56421 0.15551 0.9343 0.0
O466 O 0.58858 0.15501 0.88655 0.0
O467 O 0.56156 0.16962 0.83728 0.0
O468 O 0.51261 0.11106 0.82326 0.0
C469 C 0.49235 0.08027 0.83145 0.0
C470 C 0.54534 0.20352 0.90499 0.0
O471 O 0.47971 0.07063 0.87067 0.0
C472 C 0.51896 0.13281 1.00342 0.0
O473 O 0.46973 0.12469 0.86637 0.0
O474 O 0.46451 0.10278 0.93339 0.0
O475 O 0.56879 0.19722 0.91594 0.0
O476 O 0.5189 0.18101 0.88647 0.0
C477 C 0.5505 0.08653 0.94904 0.0
O478 O 0.50538 0.10298 0.98699 0.0
O479 O 0.5417 0.15787 0.98225 0.0
C480 C 0.45441 0.11528 0.90395 0.0
O481 O 0.5253 0.07507 0.92323 0.0
O482 O 0.56595 0.11816 0.9593 0.0
C483 C 0.58722 0.16687 0.84851 0.0
Fe484 Fe 0.93208 0.42613 0.93448 0.0
Fe485 Fe 0.94132 0.38743 0.85673 0.0
O486 O 0.95715 0.41239 0.9058 0.0
Fe487 Fe 0.99715 0.42215 0.92751 0.0
O488 O 1.01264 0.46706 0.9236 0.0
O489 O 0.96966 0.46512 0.95933 0.0
O490 O 0.93282 0.45097 0.88653 0.0
C491 C 0.9208 0.43763 0.8486 0.0
C492 C 0.95443 0.40332 1.00377 0.0
O493 O 0.91769 0.40903 0.83767 0.0
C494 C 0.97148 0.35571 0.90465 0.0
O495 O 0.89018 0.38916 0.91624 0.0
O496 O 0.90601 0.35505 0.88737 0.0
O497 O 0.98428 0.41936 0.9874 0.0
O498 O 0.92949 0.40129 0.98258 0.0
C499 C 1.00675 0.4282 0.83176 0.0
O500 O 0.96205 0.36163 0.86708 0.0
O501 O 0.98402 0.37833 0.93406 0.0
C502 C 0.88362 0.35928 0.90563 0.0
O503 O 0.97603 0.41804 0.82358 0.0
O504 O 1.0164 0.42543 0.8711 0.0
C505 C 1.00132 0.48105 0.94921 0.0
Fe506 Fe 0.69976 0.57094 0.85629 0.0
Fe507 Fe 0.66526 0.59221 0.92709 0.0
O508 O 0.67487 0.56189 0.9054 0.0
Fe509 Fe 0.66106 0.52309 0.93416 0.0
O510 O 0.63615 0.49895 0.88626 0.0
O511 O 0.67805 0.5257 0.83731 0.0
O512 O 0.66916 0.5751 0.82317 0.0
C513 C 0.65911 0.59574 0.83135 0.0
C514 C 0.72785 0.54134 0.90531 0.0
O515 O 0.66201 0.60821 0.87068 0.0
C516 C 0.68411 0.56835 1.00335 0.0
O517 O 0.72568 0.61748 0.86657 0.0
O518 O 0.70912 0.6228 0.9336 0.0
O519 O 0.69795 0.51806 0.91596 0.0
O520 O 0.73213 0.56794 0.8869 0.0
C521 C 0.60627 0.53756 0.94881 0.0
O522 O 0.66804 0.58213 0.98699 0.0
O523 O 0.68599 0.54535 0.98222 0.0
C524 C 0.73169 0.63285 0.90413 0.0
O525 O 0.62031 0.56287 0.92319 0.0
O526 O 0.62214 0.52178 0.95898 0.0
C527 C 0.64945 0.50021 0.84832 0.0
Fe528 Fe 0.60738 0.90466 0.6894 0.0
Fe529 Fe 0.66307 0.92571 0.76038 0.0
O530 O 0.62318 0.89547 0.73844 0.0
Fe531 Fe 0.59814 0.85653 0.76692 0.0
O532 O 0.59926 0.83269 0.71893 0.0
O533 O 0.58406 0.85949 0.67008 0.0
O534 O 0.64224 0.90911 0.6563 0.0
C535 C 0.67294 0.92963 0.66466 0.0
C536 C 0.54941 0.87447 0.73756 0.0
O537 O 0.6825 0.94189 0.70409 0.0
C538 C 0.62004 0.90155 0.83635 0.0
O539 O 0.62789 0.95116 0.7 0.0
O540 O 0.64985 0.95632 0.76698 0.0
O541 O 0.55621 0.85133 0.74826 0.0
O542 O 0.57189 0.9014 0.72002 0.0
C543 C 0.66738 0.87105 0.78199 0.0
O544 O 0.64996 0.91539 0.82017 0.0
O545 O 0.5952 0.8786 0.81504 0.0
C546 C 0.63733 0.96646 0.7376 0.0
O547 O 0.67866 0.89638 0.75642 0.0
O548 O 0.63571 0.85526 0.79206 0.0
C549 C 0.58732 0.83406 0.68094 0.0
Fe550 Fe 0.18227 0.71991 0.69008 0.0
Fe551 Fe 0.16131 0.75465 0.76089 0.0
O552 O 0.19157 0.74505 0.73896 0.0
Fe553 Fe 0.23065 0.75921 0.76724 0.0
O554 O 0.25429 0.78397 0.71895 0.0
O555 O 0.22735 0.74175 0.67048 0.0
O556 O 0.17767 0.75018 0.65687 0.0
C557 C 0.15706 0.76022 0.66522 0.0
C558 C 0.21254 0.69239 0.73881 0.0
O559 O 0.14483 0.7575 0.70465 0.0
C560 C 0.1859 0.73641 0.837 0.0
O561 O 0.13583 0.69388 0.70095 0.0
O562 O 0.13087 0.71079 0.7679 0.0
O563 O 0.2358 0.7224 0.74903 0.0
O564 O 0.18571 0.68785 0.72081 0.0
C565 C 0.21597 0.81384 0.78178 0.0
O566 O 0.17189 0.75227 0.82065 0.0
O567 O 0.20882 0.73449 0.81569 0.0
C568 C 0.12069 0.68805 0.73864 0.0
O569 O 0.1905 0.79958 0.75646 0.0
O570 O 0.2319 0.79812 0.79193 0.0
C571 C 0.25267 0.77062 0.68095 0.0
Fe572 Fe 0.36685 0.47982 0.68946 0.0
Fe573 Fe 0.33216 0.42393 0.76013 0.0
O574 O 0.34189 0.46393 0.73851 0.0
Fe575 Fe 0.3281 0.48893 0.76728 0.0
O576 O 0.30326 0.48823 0.71934 0.0
O577 O 0.34518 0.50339 0.67044 0.0
O578 O 0.33627 0.4451 0.65623 0.0
C579 C 0.32615 0.41439 0.66439 0.0
C580 C 0.39493 0.53745 0.73855 0.0
O581 O 0.32896 0.40475 0.70371 0.0
C582 C 0.35083 0.46649 0.83655 0.0
O583 O 0.39271 0.45915 0.6998 0.0
O584 O 0.376 0.43712 0.76674 0.0
O585 O 0.36504 0.53085 0.74918 0.0
O586 O 0.3992 0.51514 0.72014 0.0
C587 C 0.27322 0.41967 0.78178 0.0
O588 O 0.33486 0.43669 0.82004 0.0
O589 O 0.35292 0.49147 0.81542 0.0
C590 C 0.39864 0.44972 0.73737 0.0
O591 O 0.28723 0.40841 0.75613 0.0
O592 O 0.28912 0.45131 0.79199 0.0
C593 C 0.31658 0.50027 0.68141 0.0
Fe594 Fe 0.58887 0.92324 0.15451 0.0
Fe595 Fe 0.61 0.9789 0.08357 0.0
O596 O 0.57968 0.93903 0.10547 0.0
Fe597 Fe 0.54068 0.9141 0.07704 0.0
O598 O 0.51688 0.91516 0.12516 0.0
O599 O 0.54375 0.89998 0.17391 0.0
O600 O 0.59336 0.95813 0.18755 0.0
C601 C 0.61406 0.98877 0.17922 0.0
C602 C 0.55881 0.86546 0.10572 0.0
O603 O 0.62638 0.99824 0.13982 0.0
C604 C 0.58559 0.93608 0.00745 0.0
O605 O 0.63534 0.94367 0.14383 0.0
O606 O 0.64043 0.96546 0.07677 0.0
O607 O 0.53554 0.87215 0.09531 0.0
O608 O 0.58553 0.88773 0.12396 0.0
C609 C 0.55537 0.9834 0.06238 0.0
O610 O 0.59955 0.96595 0.02378 0.0
O611 O 0.56264 0.91123 0.02872 0.0
C612 C 0.65056 0.95295 0.10618 0.0
O613 O 0.5808 0.99463 0.08779 0.0
O614 O 0.53947 0.95175 0.05224 0.0
C615 C 0.51842 0.90345 0.16324 0.0
Fe616 Fe 0.16432 0.68301 0.15521 0.0
Fe617 Fe 0.10868 0.64848 0.08415 0.0
O618 O 0.14858 0.65813 0.10608 0.0
Fe619 Fe 0.17366 0.64434 0.07752 0.0
O620 O 0.17257 0.6193 0.12542 0.0
O621 O 0.18767 0.66116 0.17444 0.0
O622 O 0.12945 0.65248 0.18822 0.0
C623 C 0.09876 0.64235 0.17986 0.0
C624 C 0.2223 0.71098 0.107 0.0
O625 O 0.08923 0.64514 0.14044 0.0
C626 C 0.15171 0.66751 0.00819 0.0
O627 O 0.14378 0.70898 0.1447 0.0
O628 O 0.12189 0.69231 0.07767 0.0
O629 O 0.21556 0.68108 0.09621 0.0
O630 O 0.19982 0.71534 0.12472 0.0
C631 C 0.10443 0.58957 0.06238 0.0
O632 O 0.12179 0.65136 0.02436 0.0
O633 O 0.17656 0.6694 0.02948 0.0
C634 C 0.13437 0.71491 0.10712 0.0
O635 O 0.09312 0.60355 0.088 0.0
O636 O 0.13611 0.60549 0.05233 0.0
C637 C 0.18446 0.63251 0.16346 0.0
Fe638 Fe 0.44312 0.54687 0.07664 0.0
Fe639 Fe 0.40468 0.49913 0.15473 0.0
O640 O 0.42942 0.50812 0.1055 0.0
Fe641 Fe 0.43901 0.47779 0.08377 0.0
O642 O 0.48395 0.50716 0.0875 0.0
O643 O 0.482 0.54817 0.05166 0.0
O644 O 0.46816 0.5711 0.1244 0.0
C645 C 0.455 0.56988 0.16243 0.0
C646 C 0.41989 0.50148 0.00761 0.0
O647 O 0.42643 0.5444 0.1736 0.0
C648 C 0.37265 0.43714 0.10704 0.0
O649 O 0.40625 0.55188 0.09499 0.0
O650 O 0.37221 0.50206 0.12432 0.0
O651 O 0.43609 0.48781 0.02388 0.0
O652 O 0.41806 0.52451 0.02873 0.0
C653 C 0.44538 0.47436 0.17948 0.0
O654 O 0.37875 0.45256 0.14457 0.0
O655 O 0.39513 0.44718 0.07745 0.0
C656 C 0.3764 0.52859 0.10578 0.0
O657 O 0.4354 0.49504 0.18768 0.0
O658 O 0.44239 0.46184 0.14017 0.0
C659 C 0.49792 0.53243 0.06182 0.0
Fe660 Fe 0.16423 0.49908 0.65476 0.0
Fe661 Fe 0.10837 0.47767 0.58396 0.0
O662 O 0.14836 0.50802 0.60557 0.0
Fe663 Fe 0.17337 0.54674 0.57663 0.0
O664 O 0.17271 0.57102 0.6244 0.0
O665 O 0.18783 0.54436 0.67355 0.0
O666 O 0.12951 0.49503 0.68782 0.0
C667 C 0.09881 0.47435 0.67971 0.0
C668 C 0.22186 0.52846 0.60562 0.0
O669 O 0.08918 0.46179 0.64043 0.0
C670 C 0.15098 0.50134 0.50763 0.0
O671 O 0.14354 0.45251 0.64467 0.0
O672 O 0.12161 0.44706 0.57762 0.0
O673 O 0.2153 0.55175 0.59483 0.0
O674 O 0.19955 0.50197 0.62424 0.0
C675 C 0.10407 0.53229 0.56198 0.0
O676 O 0.12115 0.4876 0.52403 0.0
O677 O 0.17591 0.52434 0.52871 0.0
C678 C 0.13417 0.43708 0.60715 0.0
O679 O 0.0928 0.50703 0.58768 0.0
O680 O 0.13572 0.54804 0.55178 0.0
C681 C 0.18476 0.56984 0.66237 0.0
Fe682 Fe 0.5406 0.64429 0.57655 0.0
Fe683 Fe 0.58835 0.68273 0.65468 0.0
O684 O 0.57934 0.65796 0.60545 0.0
Fe685 Fe 0.60964 0.6483 0.58378 0.0
O686 O 0.58022 0.60339 0.5875 0.0
O687 O 0.53923 0.60537 0.55163 0.0
O688 O 0.51633 0.61932 0.62431 0.0
C689 C 0.51758 0.6325 0.66232 0.0
C690 C 0.58598 0.66737 0.50754 0.0
O691 O 0.54308 0.66105 0.67351 0.0
C692 C 0.65035 0.71466 0.60703 0.0
O693 O 0.53566 0.68122 0.5948 0.0
O694 O 0.58548 0.71521 0.62424 0.0
O695 O 0.59967 0.65121 0.52388 0.0
O696 O 0.56299 0.66928 0.52864 0.0
C697 C 0.61302 0.64195 0.67949 0.0
O698 O 0.63493 0.70858 0.64456 0.0
O699 O 0.6403 0.69215 0.57746 0.0
C700 C 0.55902 0.71106 0.60556 0.0
O701 O 0.59238 0.652 0.68767 0.0
O702 O 0.62556 0.64492 0.64021 0.0
C703 C 0.55494 0.58943 0.56181 0.0
Fe704 Fe 0.44162 0.91311 0.57257 0.0
Fe705 Fe 0.40536 0.92338 0.65282 0.0
O706 O 0.42998 0.93903 0.60351 0.0
Fe707 Fe 0.44169 0.97995 0.58343 0.0
O708 O 0.48605 0.99292 0.58746 0.0
O709 O 0.48126 0.95023 0.54789 0.0
O710 O 0.46657 0.91182 0.61916 0.0
C711 C 0.45397 0.90044 0.65768 0.0
C712 C 0.41989 0.93881 0.5064 0.0
O713 O 0.42626 0.89874 0.67031 0.0
C714 C 0.37542 0.95595 0.60617 0.0
O715 O 0.40414 0.8717 0.59065 0.0
O716 O 0.37194 0.88875 0.62233 0.0
O717 O 0.43865 0.96808 0.52324 0.0
O718 O 0.41616 0.9125 0.52567 0.0
C719 C 0.44778 0.98832 0.67914 0.0
O720 O 0.38055 0.94529 0.64333 0.0
O721 O 0.39842 0.969 0.57724 0.0
C722 C 0.37489 0.86599 0.6029 0.0
O723 O 0.43678 0.95735 0.68654 0.0
O724 O 0.44554 0.99864 0.64013 0.0
C725 C 0.49879 0.98146 0.55997 0.0
Fe726 Fe 0.23072 0.48906 0.26761 0.0
Fe727 Fe 0.18284 0.47989 0.18971 0.0
O728 O 0.19193 0.46403 0.2388 0.0
Fe729 Fe 0.16166 0.42402 0.2604 0.0
O730 O 0.19108 0.40854 0.25647 0.0
O731 O 0.23212 0.45146 0.29233 0.0
O732 O 0.25489 0.48842 0.2197 0.0
C733 C 0.25359 0.50045 0.18177 0.0
C734 C 0.18548 0.46661 0.33678 0.0
O735 O 0.22808 0.50353 0.17076 0.0
C736 C 0.12093 0.44973 0.23753 0.0
O737 O 0.23565 0.53095 0.24954 0.0
O738 O 0.18577 0.51519 0.22036 0.0
O739 O 0.1717 0.43679 0.32033 0.0
O740 O 0.20842 0.49156 0.31568 0.0
C741 C 0.15819 0.41448 0.16467 0.0
O742 O 0.13628 0.45915 0.19997 0.0
O743 O 0.13099 0.43717 0.26694 0.0
C744 C 0.2123 0.53749 0.23894 0.0
O745 O 0.17874 0.4452 0.15652 0.0
O746 O 0.1457 0.40483 0.20396 0.0
C747 C 0.2164 0.41983 0.28209 0.0
Fe748 Fe 0.59846 0.75944 0.26751 0.0
Fe749 Fe 0.60757 0.72072 0.18966 0.0
O750 O 0.62347 0.74567 0.23873 0.0
Fe751 Fe 0.66349 0.75542 0.26035 0.0
O752 O 0.679 0.80033 0.25642 0.0
O753 O 0.63608 0.79843 0.29226 0.0
O754 O 0.59912 0.78426 0.21959 0.0
C755 C 0.58704 0.77092 0.18168 0.0
C756 C 0.6209 0.73665 0.33672 0.0
O757 O 0.58395 0.74234 0.17069 0.0
C758 C 0.63772 0.68896 0.23751 0.0
O759 O 0.55653 0.72248 0.24938 0.0
O760 O 0.57228 0.68835 0.22034 0.0
O761 O 0.65072 0.75267 0.32026 0.0
O762 O 0.59593 0.73461 0.31559 0.0
C763 C 0.67299 0.76144 0.16459 0.0
O764 O 0.62829 0.69489 0.19995 0.0
O765 O 0.65032 0.71159 0.26691 0.0
C766 C 0.54994 0.6926 0.23874 0.0
O767 O 0.64227 0.75131 0.15646 0.0
O768 O 0.68266 0.75864 0.20391 0.0
C769 C 0.66773 0.81434 0.28207 0.0
Fe770 Fe 0.36613 0.90409 0.19188 0.0
Fe771 Fe 0.32936 0.92399 0.26099 0.0
O772 O 0.34127 0.89492 0.24096 0.0
Fe773 Fe 0.32954 0.85726 0.27175 0.0
O774 O 0.30477 0.83118 0.22496 0.0
O775 O 0.34533 0.85859 0.17416 0.0
O776 O 0.33489 0.90672 0.15787 0.0
C777 C 0.32369 0.92652 0.16522 0.0
C778 C 0.39639 0.87698 0.24181 0.0
O779 O 0.32564 0.93891 0.20428 0.0
C780 C 0.35099 0.90449 0.33812 0.0
O781 O 0.39086 0.95078 0.20161 0.0
O782 O 0.37255 0.95642 0.26746 0.0
O783 O 0.36708 0.8534 0.2538 0.0
O784 O 0.39942 0.90283 0.22267 0.0
C785 C 0.27228 0.86828 0.28415 0.0
O786 O 0.33227 0.91504 0.32119 0.0
O787 O 0.35482 0.88198 0.31884 0.0
C788 C 0.39572 0.96651 0.23877 0.0
O789 O 0.28505 0.8925 0.25667 0.0
O790 O 0.28982 0.85461 0.29629 0.0
C791 C 0.31754 0.83253 0.18653 0.0
C792 C 0.21337 0.10524 0.00556 0.0
C793 C 0.23876 0.13601 0.98697 0.0
H794 H 0.18718 0.05079 1.00211 0.0
C795 C 0.25249 0.13547 0.94488 0.0
H796 H 0.20241 0.10506 0.03805 0.0
C797 C 0.24382 0.1043 0.92436 0.0
C798 C 0.2208 0.07329 0.94516 0.0
H799 H 0.27226 0.15884 0.93005 0.0
H800 H 0.25787 0.10437 0.89481 0.0
C801 C 0.20413 0.07417 0.98453 0.0
C802 C 0.98367 0.15575 0.92422 0.0
C803 C 1.01466 0.1642 0.94548 0.0
H804 H 0.9291 0.12945 0.92956 0.0
C805 C 1.01377 0.14722 0.98544 0.0
H806 H 0.98361 0.16928 0.89418 0.0
C807 C 0.98269 0.12561 0.00656 0.0
C808 C 0.95191 0.11983 0.98747 0.0
H809 H 1.03713 0.15401 1.00332 0.0
H810 H 0.98284 0.1153 0.03943 0.0
C811 C 0.95248 0.13342 0.94484 0.0
C812 C 0.93147 0.845 0.92404 0.0
C813 C 0.92299 0.86754 0.94517 0.0
H814 H 0.9578 0.81677 0.92956 0.0
C815 C 0.93995 0.88366 0.98514 0.0
H816 H 0.91796 0.83138 0.89399 0.0
C817 C 0.96157 0.87424 0.00636 0.0
C818 C 0.96738 0.84924 0.98738 0.0
H819 H 0.93314 0.90024 1.00293 0.0
H820 H 0.97187 0.88474 0.03922 0.0
C821 C 0.95381 0.83618 0.94475 0.0
C822 C 0.12155 0.22474 0.5869 0.0
C823 C 0.09047 0.20232 0.56576 0.0
H824 H 0.17612 0.25287 0.5813 0.0
C825 C 0.09119 0.18627 0.52568 0.0
H826 H 0.12176 0.2383 0.61704 0.0
C827 C 0.12218 0.19569 0.50435 0.0
C828 C 0.15305 0.22058 0.52335 0.0
H829 H 0.06776 0.16978 0.50789 0.0
H830 H 0.12189 0.18526 0.47142 0.0
C831 C 0.15266 0.23354 0.56609 0.0
C832 C 0.85417 0.93645 0.56636 0.0
C833 C 0.86705 0.94981 0.52359 0.0
H834 H 0.84943 0.90074 0.61724 0.0
C835 C 0.89186 0.94379 0.50446 0.0
H836 H 0.83492 0.94063 0.58167 0.0
C837 C 0.90126 0.92215 0.52569 0.0
C838 C 0.88528 0.90539 0.5658 0.0
H839 H 0.90223 0.95393 0.4715 0.0
H840 H 0.91767 0.91518 0.5078 0.0
C841 C 0.86295 0.9141 0.58708 0.0
C842 C 0.1512 0.93428 0.56639 0.0
C843 C 0.13695 0.93359 0.52421 0.0
H844 H 0.18768 0.96554 0.61639 0.0
C845 C 0.14236 0.9643 0.50537 0.0
H846 H 0.14757 0.91095 0.58142 0.0
C847 C 0.16421 0.99544 0.52623 0.0
C848 C 0.18176 0.99646 0.5657 0.0
H849 H 0.1316 0.96437 0.4728 0.0
H850 H 0.17067 1.01875 0.50847 0.0
C851 C 0.17371 0.96552 0.58676 0.0
C852 C 0.90122 0.99605 0.02573 0.0
C853 C 0.88506 0.99687 0.06563 0.0
H854 H 0.90233 0.96523 0.97168 0.0
C855 C 0.86249 0.96584 0.08675 0.0
H856 H 0.91783 1.01944 0.00795 0.0
C857 C 0.85366 0.9347 0.06604 0.0
C858 C 0.86676 0.9342 0.02345 0.0
H859 H 0.84883 0.96572 0.11674 0.0
H860 H 0.83421 0.91129 0.08119 0.0
C861 C 0.8918 0.96501 1.00451 0.0
C862 C 0.15251 0.93663 0.06599 0.0
C863 C 0.15296 0.94997 0.02321 0.0
H864 H 0.12154 0.90098 0.11692 0.0
C865 C 0.12211 0.94399 1.00412 0.0
H866 H 0.17594 0.94076 0.08126 0.0
C867 C 0.09109 0.92242 0.02539 0.0
C868 C 0.09032 0.90567 0.06551 0.0
H869 H 0.12187 0.95412 0.97114 0.0
H870 H 0.06769 0.91548 0.00752 0.0
C871 C 0.12137 0.91433 0.08675 0.0
C872 C 0.17341 0.22444 0.08709 0.0
C873 C 0.18206 0.20208 0.06581 0.0
H874 H 0.14699 0.25258 0.08168 0.0
C875 C 0.16526 0.18611 0.0257 0.0
H876 H 0.1868 0.23795 0.11726 0.0
C877 C 0.14366 0.19556 1.00447 0.0
C878 C 0.13772 0.22042 0.02359 0.0
H879 H 0.17218 0.16966 0.0078 0.0
H880 H 0.1335 0.18521 0.9715 0.0
C881 C 0.1511 0.23329 0.06636 0.0
C882 C 0.98325 0.84508 0.42389 0.0
C883 C 1.01429 0.86756 0.44509 0.0
H884 H 0.92869 0.8168 0.42939 0.0
C885 C 1.01347 0.88366 0.48507 0.0
H886 H 0.98313 0.83148 0.39382 0.0
C887 C 0.98243 0.87419 0.50629 0.0
C888 C 0.95161 0.84919 0.48729 0.0
H889 H 1.03686 0.9002 0.5029 0.0
H890 H 0.98264 0.88464 0.53919 0.0
C891 C 0.9521 0.8362 0.44461 0.0
C892 C 0.2507 0.13321 0.44455 0.0
C893 C 0.23771 0.11973 0.48723 0.0
H894 H 0.25551 0.16901 0.39377 0.0
C895 C 0.21279 0.12563 0.50627 0.0
H896 H 0.27004 0.12913 0.42932 0.0
C897 C 0.20339 0.14726 0.48506 0.0
C898 C 0.21948 0.16415 0.44506 0.0
H899 H 0.20234 0.1154 0.53917 0.0
H900 H 0.18689 0.15415 0.5029 0.0
C901 C 0.24191 0.15556 0.42384 0.0
C902 C 0.95409 0.13525 0.44478 0.0
C903 C 0.96789 0.13589 0.48728 0.0
H904 H 0.91807 0.10404 0.39431 0.0
C905 C 0.96231 0.10516 0.50627 0.0
H906 H 0.95789 0.15859 0.4296 0.0
C907 C 0.94067 0.07405 0.48521 0.0
C908 C 0.92347 0.07307 0.44541 0.0
H909 H 0.97277 0.10506 0.53905 0.0
H910 H 0.93402 0.05072 0.50306 0.0
C911 C 0.93176 0.10403 0.42421 0.0
C912 C 0.91755 0.46824 0.27806 0.0
C913 C 0.90458 0.46877 0.32074 0.0
H914 H 0.92226 0.43717 0.22732 0.0
C915 C 0.87964 0.43797 0.33982 0.0
H916 H 0.93691 0.49164 0.2628 0.0
C917 C 0.87018 0.40691 0.31865 0.0
C918 C 0.88622 0.40606 0.27865 0.0
H919 H 0.86921 0.43779 0.37272 0.0
H920 H 0.85366 0.38355 0.33653 0.0
C921 C 0.90869 0.43707 0.2574 0.0
C922 C 0.64988 0.48929 0.25713 0.0
C923 C 0.68088 0.4976 0.27825 0.0
H924 H 0.59532 0.4632 0.26269 0.0
C925 C 0.67999 0.48049 0.31808 0.0
H926 H 0.64981 0.50291 0.22719 0.0
C927 C 0.64892 0.45893 0.33927 0.0
C928 C 0.61815 0.45334 0.32036 0.0
H929 H 0.70337 0.48716 0.33585 0.0
H930 H 0.64909 0.44853 0.37207 0.0
C931 C 0.6187 0.46703 0.27782 0.0
C932 C 0.60783 0.21719 0.3179 0.0
C933 C 0.59015 0.20063 0.27854 0.0
H934 H 0.64046 0.21865 0.37127 0.0
C935 C 0.59797 0.17756 0.25753 0.0
H936 H 0.60154 0.23418 0.33561 0.0
C937 C 0.62038 0.1687 0.2779 0.0
C938 C 0.63476 0.1823 0.32001 0.0
H939 H 0.5839 0.16361 0.22798 0.0
H940 H 0.62382 0.14887 0.26294 0.0
C941 C 0.6296 0.20778 0.33876 0.0
C942 C 0.78842 0.5287 0.83771 0.0
C943 C 0.81927 0.55352 0.85685 0.0
H944 H 0.734 0.5029 0.84098 0.0
C945 C 0.8188 0.56646 0.89958 0.0
H946 H 0.78819 0.5183 0.80478 0.0
C947 C 0.78765 0.55771 0.92024 0.0
C948 C 0.75661 0.53535 0.89896 0.0
H949 H 0.84224 0.58573 0.9149 0.0
H950 H 0.78782 0.57126 0.95038 0.0
C951 C 0.75739 0.51933 0.85889 0.0
C952 C 0.52821 0.24644 0.91962 0.0
C953 C 0.55098 0.23816 0.89871 0.0
H954 H 0.50004 0.27282 0.914 0.0
C955 C 0.56746 0.25543 0.85909 0.0
H956 H 0.51431 0.23268 0.94937 0.0
C957 C 0.55827 0.27727 0.83798 0.0
C958 C 0.53312 0.28296 0.85673 0.0
H959 H 0.58421 0.24878 0.84146 0.0
H960 H 0.56907 0.28784 0.80534 0.0
C961 C 0.51961 0.26897 0.89902 0.0
C962 C 0.81049 0.29877 0.83763 0.0
C963 C 0.80444 0.2679 0.85666 0.0
H964 H 0.83911 0.35319 0.84113 0.0
C965 C 0.81781 0.2683 0.89941 0.0
H966 H 0.80035 0.29906 0.80468 0.0
C967 C 0.84018 0.2994 0.92022 0.0
C968 C 0.84888 0.33048 0.89906 0.0
H969 H 0.81362 0.24484 0.91465 0.0
H970 H 0.85352 0.29919 0.95038 0.0
C971 C 0.83213 0.32977 0.85895 0.0
C972 C 0.52139 0.26877 0.39933 0.0
C973 C 0.53414 0.26839 0.35645 0.0
H974 H 0.51662 0.2996 0.45039 0.0
C975 C 0.55876 0.29929 0.33723 0.0
H976 H 0.50229 0.24528 0.41472 0.0
C977 C 0.56807 0.33027 0.35852 0.0
C978 C 0.55218 0.33093 0.39877 0.0
H979 H 0.56904 0.2996 0.30418 0.0
H980 H 0.58433 0.3537 0.34059 0.0
C981 C 0.53006 0.29985 0.42011 0.0
C982 C 0.75775 0.25552 0.35923 0.0
C983 C 0.75702 0.23877 0.39934 0.0
H984 H 0.78846 0.28722 0.30495 0.0
C985 C 0.78811 0.24753 0.42057 0.0
H986 H 0.73432 0.24851 0.34138 0.0
C987 C 0.81922 0.26986 0.39977 0.0
C988 C 0.81962 0.28316 0.35698 0.0
H989 H 0.78832 0.2342 0.45074 0.0
H990 H 0.84268 0.27404 0.41504 0.0
C991 C 0.78875 0.27713 0.33793 0.0
C992 C 0.81736 0.56665 0.39947 0.0
C993 C 0.80382 0.55368 0.3568 0.0
H994 H 0.85318 0.57138 0.45021 0.0
C995 C 0.80966 0.52874 0.33771 0.0
H996 H 0.81334 0.58602 0.41474 0.0
C997 C 0.83128 0.51929 0.35887 0.0
C998 C 0.84821 0.53533 0.39888 0.0
H999 H 0.7994 0.51831 0.3048 0.0
H1000 H 0.83812 0.50277 0.34099 0.0
C1001 C 0.83969 0.5578 0.42014 0.0
C1002 C 0.68033 0.21722 0.81859 0.0
C1003 C 0.6812 0.20118 0.77858 0.0
H1004 H 0.64945 0.21811 0.87269 0.0
C1005 C 0.65019 0.17866 0.75735 0.0
H1006 H 0.7037 0.23378 0.83644 0.0
C1007 C 0.61901 0.16974 0.77804 0.0
C1008 C 0.61847 0.18269 0.82072 0.0
H1009 H 0.6501 0.1651 0.72726 0.0
H1010 H 0.59562 0.15032 0.76279 0.0
C1011 C 0.64926 0.2077 0.83978 0.0
C1012 C 0.87022 0.48013 0.81861 0.0
C1013 C 0.88644 0.49734 0.77883 0.0
H1014 H 0.86918 0.44808 0.87247 0.0
C1015 C 0.90918 0.48914 0.7577 0.0
H1016 H 0.85348 0.48672 0.8364 0.0
C1017 C 0.91814 0.46687 0.77831 0.0
C1018 C 0.90497 0.45306 0.82079 0.0
H1019 H 0.92288 0.50284 0.72782 0.0
H1020 H 0.93773 0.46313 0.76318 0.0
C1021 C 0.87975 0.45855 0.83971 0.0
C1022 C 0.62053 0.46836 0.77783 0.0
C1023 C 0.63398 0.46893 0.82057 0.0
H1024 H 0.58487 0.43724 0.72696 0.0
C1025 C 0.62819 0.43816 0.83967 0.0
H1026 H 0.62452 0.49173 0.76254 0.0
C1027 C 0.60668 0.40708 0.81845 0.0
C1028 C 0.58981 0.40617 0.77837 0.0
H1029 H 0.6384 0.438 0.87262 0.0
H1030 H 0.59987 0.38373 0.83635 0.0
C1031 C 0.59832 0.43717 0.7571 0.0
C1032 C 0.54625 0.77213 0.67185 0.0
C1033 C 0.57161 0.80285 0.65308 0.0
H1034 H 0.51997 0.71769 0.66857 0.0
C1035 C 0.58505 0.80222 0.61081 0.0
H1036 H 0.53549 0.77203 0.70446 0.0
C1037 C 0.57619 0.771 0.5903 0.0
C1038 C 0.5533 0.74005 0.61133 0.0
H1039 H 0.60475 0.82555 0.59581 0.0
H1040 H 0.59006 0.771 0.5606 0.0
C1041 C 0.53683 0.74102 0.65085 0.0
C1042 C 0.31439 0.79143 0.66929 0.0
C1043 C 0.28339 0.78656 0.65219 0.0
H1044 H 0.36877 0.81936 0.66415 0.0
C1045 C 0.28333 0.80159 0.61095 0.0
H1046 H 0.31502 0.78011 0.70115 0.0
C1047 C 0.31419 0.82422 0.58986 0.0
C1048 C 0.34547 0.83158 0.60919 0.0
H1049 H 0.25977 0.7984 0.59732 0.0
H1050 H 0.31373 0.83869 0.56108 0.0
C1051 C 0.34513 0.81341 0.64765 0.0
C1052 C 0.27376 0.55054 0.65143 0.0
C1053 C 0.2566 0.5343 0.61163 0.0
H1054 H 0.30586 0.5517 0.70532 0.0
C1055 C 0.26493 0.51166 0.59048 0.0
H1056 H 0.26707 0.5672 0.66923 0.0
C1057 C 0.28729 0.50282 0.61109 0.0
C1058 C 0.30107 0.51601 0.6536 0.0
H1059 H 0.25127 0.49795 0.56057 0.0
H1060 H 0.29114 0.48331 0.59594 0.0
C1061 C 0.29543 0.54112 0.67254 0.0
C1062 C 0.45707 0.89557 0.25458 0.0
C1063 C 0.42571 0.87187 0.23517 0.0
H1064 H 0.51149 0.92386 0.24714 0.0
C1065 C 0.4259 0.8542 0.19646 0.0
H1066 H 0.45764 0.91037 0.28354 0.0
C1067 C 0.45659 0.8629 0.17472 0.0
C1068 C 0.48767 0.88877 0.19195 0.0
H1069 H 0.4022 0.83671 0.17993 0.0
H1070 H 0.45585 0.85107 0.14272 0.0
C1071 C 0.48786 0.90369 0.23339 0.0
C1072 C 0.22535 0.61144 0.1726 0.0
C1073 C 0.20006 0.61691 0.19134 0.0
H1074 H 0.25146 0.58312 0.17593 0.0
C1075 C 0.18655 0.60283 0.23359 0.0
H1076 H 0.23616 0.62211 0.14 0.0
C1077 C 0.19527 0.58037 0.25411 0.0
C1078 C 0.2181 0.57222 0.23312 0.0
H1079 H 0.16689 0.60654 0.24856 0.0
H1080 H 0.18135 0.5665 0.28379 0.0
C1081 C 0.23464 0.58966 0.19363 0.0
C1082 C 0.4983 0.66301 0.1924 0.0
C1083 C 0.51519 0.66378 0.2324 0.0
H1084 H 0.46637 0.63223 0.13829 0.0
C1085 C 0.50657 0.63273 0.25358 0.0
H1086 H 0.5052 0.68641 0.17458 0.0
C1087 C 0.48417 0.6016 0.23287 0.0
C1088 C 0.47066 0.60114 0.19021 0.0
H1089 H 0.52003 0.63256 0.28366 0.0
H1090 H 0.48007 0.57817 0.24809 0.0
C1091 C 0.47661 0.63199 0.17118 0.0
C1092 C 0.23455 0.66301 0.69212 0.0
C1093 C 0.21868 0.66374 0.73235 0.0
H1094 H 0.23542 0.63226 0.63782 0.0
C1095 C 0.19651 0.63268 0.75371 0.0
H1096 H 0.25084 0.68641 0.67417 0.0
C1097 C 0.18774 0.60156 0.73296 0.0
C1098 C 0.20048 0.60113 0.69009 0.0
H1099 H 0.18308 0.63248 0.78398 0.0
H1100 H 0.16858 0.57811 0.74835 0.0
C1101 C 0.22516 0.63199 0.67087 0.0
C1102 C 0.48593 0.60326 0.73273 0.0
C1103 C 0.48634 0.61684 0.69014 0.0
H1104 H 0.45502 0.5673 0.78341 0.0
C1105 C 0.45548 0.61091 0.67119 0.0
H1106 H 0.50938 0.60733 0.74788 0.0
C1107 C 0.42447 0.58917 0.69239 0.0
C1108 C 0.42374 0.57222 0.73229 0.0
H1109 H 0.4552 0.6212 0.63835 0.0
H1110 H 0.40105 0.58229 0.6746 0.0
C1111 C 0.45481 0.58081 0.75342 0.0
C1112 C 0.49931 0.85258 0.68827 0.0
C1113 C 0.51461 0.8679 0.72939 0.0
H1114 H 0.4686 0.85172 0.63274 0.0
C1115 C 0.50443 0.88911 0.7506 0.0
H1116 H 0.50743 0.83705 0.67046 0.0
C1117 C 0.4819 0.89734 0.72913 0.0
C1118 C 0.46999 0.88521 0.68558 0.0
H1119 H 0.51666 0.90215 0.78156 0.0
H1120 H 0.47649 0.91571 0.74464 0.0
C1121 C 0.47762 0.86155 0.66626 0.0
C1122 C 0.31562 0.54125 0.1729 0.0
C1123 C 0.28482 0.51617 0.15395 0.0
H1124 H 0.37006 0.56729 0.16957 0.0
C1125 C 0.28534 0.50302 0.11141 0.0
H1126 H 0.31581 0.5518 0.20571 0.0
C1127 C 0.31651 0.51184 0.09077 0.0
C1128 C 0.34753 0.53445 0.11191 0.0
H1129 H 0.26194 0.48354 0.09626 0.0
H1130 H 0.3164 0.49815 0.06081 0.0
C1131 C 0.34668 0.55066 0.15176 0.0
C1132 C 0.58408 0.7998 0.11121 0.0
C1133 C 0.5712 0.78636 0.15393 0.0
H1134 H 0.58871 0.83554 0.06043 0.0
C1135 C 0.54628 0.79221 0.17307 0.0
H1136 H 0.60343 0.79576 0.0959 0.0
C1137 C 0.5368 0.8138 0.15192 0.0
C1138 C 0.5528 0.83068 0.11188 0.0
H1139 H 0.53592 0.78201 0.20601 0.0
H1140 H 0.52032 0.82068 0.16985 0.0
C1141 C 0.57519 0.82209 0.09055 0.0
C1142 C 0.28946 0.8015 0.11517 0.0
C1143 C 0.30168 0.80134 0.15855 0.0
H1144 H 0.2545 0.77145 0.06301 0.0
C1145 C 0.29438 0.7701 0.17771 0.0
H1146 H 0.29461 0.82524 0.0998 0.0
C1147 C 0.2727 0.7394 0.15578 0.0
C1148 C 0.25709 0.73934 0.11489 0.0
H1149 H 0.30362 0.76934 0.21111 0.0
H1150 H 0.26481 0.71576 0.17354 0.0
C1151 C 0.26697 0.7707 0.09377 0.0
C1152 C 0.39556 0.21932 0.1307 0.0
C1153 C 0.36076 0.20108 0.14278 0.0
H1154 H 0.44713 0.23396 0.14792 0.0
C1155 C 0.35223 0.18383 0.18423 0.0
H1156 H 0.40337 0.23329 0.09927 0.0
C1157 C 0.37757 0.1848 0.21255 0.0
C1158 C 0.41237 0.20302 0.20047 0.0
H1159 H 0.32601 0.17013 0.19533 0.0
H1160 H 0.36973 0.17085 0.24398 0.0
C1161 C 0.42091 0.22027 0.15902 0.0
C1162 C 0.904 0.18547 0.1845 0.0
C1163 C 0.88659 0.17668 0.14314 0.0
H1164 H 0.91717 0.21602 0.24422 0.0
C1165 C 0.86824 0.19317 0.13124 0.0
H1166 H 0.91781 0.17303 0.19547 0.0
C1167 C 0.86733 0.21753 0.15962 0.0
C1168 C 0.88474 0.22632 0.20097 0.0
H1169 H 0.85416 0.18698 0.0999 0.0
H1170 H 0.85353 0.22997 0.14865 0.0
C1171 C 0.90309 0.20984 0.21287 0.0
C1172 C 0.86964 0.66728 0.15978 0.0
C1173 C 0.86084 0.67587 0.20112 0.0
H1174 H 0.90023 0.68471 0.10012 0.0
C1175 C 0.87737 0.71069 0.21309 0.0
H1176 H 0.85716 0.64105 0.14876 0.0
C1177 C 0.90178 0.73599 0.18478 0.0
C1178 C 0.91058 0.7274 0.14343 0.0
H1179 H 0.87118 0.71856 0.24443 0.0
H1180 H 0.91426 0.76223 0.19579 0.0
C1181 C 0.89405 0.69259 0.13146 0.0
C1182 C 0.20161 0.35916 0.29772 0.0
C1183 C 0.21996 0.39399 0.30964 0.0
H1184 H 0.18693 0.30763 0.31507 0.0
C1185 C 0.23744 0.4026 0.35095 0.0
H1186 H 0.18748 0.35127 0.26641 0.0
C1187 C 0.23658 0.37731 0.37927 0.0
C1188 C 0.21822 0.34249 0.36735 0.0
H1189 H 0.25126 0.42884 0.36192 0.0
H1190 H 0.2507 0.3852 0.41058 0.0
C1191 C 0.20074 0.33388 0.32605 0.0
C1192 C 0.72843 0.86017 0.29787 0.0
C1193 C 0.69359 0.84371 0.3097 0.0
H1194 H 0.77998 0.89699 0.31535 0.0
C1195 C 0.68496 0.85255 0.35099 0.0
H1196 H 0.73634 0.85396 0.26658 0.0
C1197 C 0.71024 0.87693 0.37938 0.0
C1198 C 0.74509 0.89339 0.36756 0.0
H1199 H 0.6587 0.84013 0.36191 0.0
H1200 H 0.70233 0.88314 0.41068 0.0
C1201 C 0.75372 0.88456 0.32626 0.0
C1202 C 0.2356 0.8496 0.35465 0.0
C1203 C 0.24315 0.8651 0.31198 0.0
H1204 H 0.206 0.83831 0.41511 0.0
C1205 C 0.22562 0.8821 0.29854 0.0
H1206 H 0.24888 0.83691 0.36677 0.0
C1207 C 0.2015 0.88361 0.32671 0.0
C1208 C 0.19388 0.86804 0.3693 0.0
H1209 H 0.23081 0.8947 0.26614 0.0
H1210 H 0.18822 0.89629 0.31455 0.0
C1211 C 0.21134 0.85099 0.38275 0.0
C1212 C 0.70989 0.85086 0.87924 0.0
C1213 C 0.74473 0.86923 0.86739 0.0
H1214 H 0.65835 0.83617 0.86181 0.0
C1215 C 0.75336 0.88674 0.82612 0.0
H1216 H 0.70198 0.8367 0.91051 0.0
C1217 C 0.72808 0.8859 0.79778 0.0
C1218 C 0.69323 0.86752 0.80962 0.0
H1219 H 0.77962 0.90058 0.8152 0.0
H1220 H 0.73599 0.90006 0.7665 0.0
C1221 C 0.68461 0.85001 0.85088 0.0
C1222 C 0.23661 0.85176 0.85086 0.0
C1223 C 0.21945 0.84318 0.80934 0.0
H1224 H 0.24949 0.88204 0.91075 0.0
C1225 C 0.20126 0.85979 0.79726 0.0
H1226 H 0.25026 0.83919 0.86197 0.0
C1227 C 0.2003 0.88413 0.82564 0.0
C1228 C 0.21747 0.8927 0.86717 0.0
H1229 H 0.18735 0.85372 0.76578 0.0
H1230 H 0.18666 0.89672 0.81456 0.0
C1231 C 0.23561 0.87604 0.87926 0.0
C1232 C 0.21089 0.37719 0.87928 0.0
C1233 C 0.19439 0.34235 0.86743 0.0
H1234 H 0.24765 0.42871 0.86176 0.0
C1235 C 0.2031 0.33371 0.82606 0.0
H1236 H 0.20477 0.38511 0.91064 0.0
C1237 C 0.22742 0.35898 0.79761 0.0
C1238 C 0.24391 0.39382 0.80946 0.0
H1239 H 0.19064 0.30746 0.81514 0.0
H1240 H 0.23355 0.35108 0.76626 0.0
C1241 C 0.23519 0.40246 0.85083 0.0
C1242 C 0.86829 0.69219 0.63135 0.0
C1243 C 0.88665 0.72702 0.64324 0.0
H1244 H 0.85358 0.64066 0.64878 0.0
C1245 C 0.90408 0.73564 0.68457 0.0
H1246 H 0.85419 0.68429 0.60002 0.0
C1247 C 0.90317 0.71036 0.71296 0.0
C1248 C 0.88482 0.67553 0.70107 0.0
H1249 H 0.9179 0.76189 0.69553 0.0
H1250 H 0.91727 0.71827 0.74429 0.0
C1251 C 0.86739 0.66691 0.65973 0.0
C1252 C 0.35114 0.18548 0.68458 0.0
C1253 C 0.35969 0.17675 0.64316 0.0
H1254 H 0.36864 0.21605 0.74428 0.0
C1255 C 0.3945 0.19334 0.63111 0.0
H1256 H 0.32491 0.17296 0.69565 0.0
C1257 C 0.41983 0.21773 0.65942 0.0
C1258 C 0.41128 0.22647 0.70084 0.0
H1259 H 0.40235 0.18721 0.5997 0.0
H1260 H 0.44605 0.23024 0.64834 0.0
C1261 C 0.37648 0.2099 0.71288 0.0
C1262 C 0.89409 0.21911 0.63095 0.0
C1263 C 0.91059 0.2008 0.64293 0.0
H1264 H 0.85722 0.23379 0.64824 0.0
C1265 C 0.90177 0.1834 0.68428 0.0
H1266 H 0.90029 0.23319 0.59961 0.0
C1267 C 0.87738 0.18431 0.71259 0.0
C1268 C 0.86087 0.20262 0.70061 0.0
H1269 H 0.91423 0.16963 0.69531 0.0
H1270 H 0.87119 0.17024 0.74394 0.0
C1271 C 0.86968 0.22001 0.65926 0.0
C1272 C 0.06149 0.55242 0.46477 0.0
C1273 C 1.02666 0.53405 0.47666 0.0
H1274 H 0.11304 0.56712 0.48214 0.0
C1275 C 1.01806 0.51657 0.51795 0.0
H1276 H 0.06938 0.56655 0.43348 0.0
C1277 C 1.04337 0.51744 0.54628 0.0
C1278 C 0.0782 0.53581 0.53439 0.0
H1279 H 0.99181 0.50274 0.52891 0.0
H1280 H 1.03548 0.50331 0.57758 0.0
C1281 C 0.0868 0.55329 0.4931 0.0
C1282 C 0.56978 0.54362 0.54603 0.0
C1283 C 0.5514 0.56008 0.53416 0.0
H1284 H 0.58451 0.50684 0.52859 0.0
C1285 C 0.53393 0.55125 0.49286 0.0
H1286 H 0.58391 0.54983 0.57734 0.0
C1287 C 0.53481 0.52687 0.46448 0.0
C1288 C 0.5532 0.51043 0.47634 0.0
H1289 H 0.52009 0.56367 0.48192 0.0
H1290 H 0.52068 0.52065 0.43317 0.0
C1291 C 0.57068 0.51926 0.51765 0.0
C1292 C 0.56959 0.06757 0.51737 0.0
C1293 C 0.57731 0.0596 0.47486 0.0
H1294 H 0.54017 0.04939 0.57785 0.0
C1295 C 0.55989 1.02507 0.46147 0.0
H1296 H 0.58283 0.09354 0.52947 0.0
C1297 C 0.53559 0.99943 0.48956 0.0
C1298 C 0.52795 1.00741 0.53215 0.0
H1299 H 0.56531 1.01771 0.42919 0.0
H1300 H 0.52235 0.97346 0.47749 0.0
C1301 C 0.54542 0.04195 0.54551 0.0
C1302 C 0.57012 0.04406 0.04681 0.0
C1303 C 0.55194 1.00926 0.03474 0.0
H1304 H 0.58477 0.09559 0.02946 0.0
C1305 C 0.53485 1.00069 0.99316 0.0
H1306 H 0.58396 0.05189 0.07834 0.0
C1307 C 0.53592 1.02598 0.9647 0.0
C1308 C 0.55405 0.06078 0.97679 0.0
H1309 H 0.52122 0.97447 0.98206 0.0
H1310 H 0.52209 1.01811 0.93317 0.0
C1311 C 0.57115 0.06936 0.01837 0.0
C1312 C 0.06201 0.52694 0.96505 0.0
C1313 C 1.02715 0.51045 0.97685 0.0
H1314 H 0.11353 0.56379 0.98255 0.0
C1315 C 1.01849 0.5193 0.01811 0.0
H1316 H 0.06994 0.52071 0.93379 0.0
C1317 C 1.04375 0.54372 0.04649 0.0
C1318 C 0.0786 0.5602 0.0347 0.0
H1319 H 0.99223 0.50686 0.029 0.0
H1320 H 1.03582 0.54994 0.07776 0.0
C1321 C 0.08727 0.55136 0.99344 0.0
C1322 C 0.54374 0.51758 0.0461 0.0
C1323 C 0.52727 0.53593 0.03418 0.0
H1324 H 0.58055 0.50285 0.02873 0.0
C1325 C 0.53607 0.55334 0.99284 0.0
H1326 H 0.53756 0.50351 0.07744 0.0
C1327 C 0.56044 0.55241 0.96448 0.0
C1328 C 0.57691 0.53406 0.9764 0.0
H1329 H 0.52363 0.56714 0.98186 0.0
H1330 H 0.56663 0.5665 0.93315 0.0
C1331 C 0.56811 0.51666 0.01774 0.0
C1332 C 0.35091 0.26844 0.91489 0.0
C1333 C 0.36367 0.27473 0.95935 0.0
H1334 H 0.36232 0.27438 0.84424 0.0
C1335 C 0.39891 0.29229 0.96602 0.0
H1336 H 0.3238 0.25507 0.90848 0.0
C1337 C 0.4209 0.303 0.92907 0.0
C1338 C 0.40815 0.29681 0.8846 0.0
H1339 H 0.4095 0.29746 0.99972 0.0
H1340 H 0.44802 0.31641 0.93548 0.0
C1341 C 0.37291 0.27956 0.87794 0.0
C1342 C 0.81963 0.10044 0.91465 0.0
C1343 C 0.81323 0.10669 0.95915 0.0
H1344 H 0.81367 0.10605 0.84402 0.0
C1345 C 0.7955 0.12419 0.9659 0.0
H1346 H 0.83314 0.08686 0.90818 0.0
C1347 C 0.7847 0.13546 0.92901 0.0
C1348 C 0.79096 0.12907 0.88451 0.0
H1349 H 0.79023 0.12943 0.99963 0.0
H1350 H 0.77114 0.14899 0.9355 0.0
C1351 C 0.80841 0.1113 0.87775 0.0
C1352 C 0.95156 0.66644 0.92978 0.0
C1353 C 0.95809 0.67906 0.88526 0.0
H1354 H 0.95754 0.67805 1.00039 0.0
C1355 C 0.97607 0.71428 0.87845 0.0
H1356 H 0.93786 0.63935 0.9363 0.0
C1357 C 0.987 0.73638 0.9153 0.0
C1358 C 0.98061 0.72376 0.95983 0.0
H1359 H 0.98145 0.72478 0.84471 0.0
H1360 H 1.00075 0.76347 0.90878 0.0
C1361 C 0.9629 0.68854 0.96664 0.0
C1362 C 0.28542 0.33327 0.59562 0.0
C1363 C 0.29188 0.34595 0.55113 0.0
H1364 H 0.29138 0.3448 0.66624 0.0
C1365 C 0.30973 0.38117 0.54438 0.0
H1366 H 0.27183 0.30618 0.6021 0.0
C1367 C 0.3206 0.40324 0.58128 0.0
C1368 C 0.31426 0.39056 0.62578 0.0
H1369 H 0.31505 0.3917 0.51066 0.0
H1370 H 0.33424 0.43033 0.57482 0.0
C1371 C 0.29669 0.35533 0.63252 0.0
C1372 C 0.68426 0.93549 0.58163 0.0
C1373 C 0.69688 0.94157 0.62617 0.0
H1374 H 0.69587 0.94151 0.51104 0.0
C1375 C 0.7321 0.95881 0.63301 0.0
H1376 H 0.65717 0.92237 0.57508 0.0
C1377 C 0.75421 0.96943 0.59616 0.0
C1378 C 0.74159 0.96346 0.55162 0.0
H1379 H 0.74258 0.96381 0.66676 0.0
H1380 H 0.7813 0.9826 0.6027 0.0
C1381 C 0.70637 0.94652 0.54479 0.0
C1382 C 0.11658 0.80094 0.59662 0.0
C1383 C 0.12274 0.79444 0.55212 0.0
H1384 H 0.12224 0.79501 0.66724 0.0
C1385 C 0.13999 0.77648 0.54534 0.0
H1386 H 0.10318 0.81463 0.60309 0.0
C1387 C 0.15116 0.76557 0.58221 0.0
C1388 C 0.14493 0.77199 0.62671 0.0
H1389 H 0.14515 0.77113 0.51162 0.0
H1390 H 0.16454 0.75187 0.5757 0.0
C1391 C 0.12736 0.78963 0.6335 0.0
C1392 C 0.68403 0.76696 0.08148 0.0
C1393 C 0.69678 0.77329 0.12596 0.0
H1394 H 0.69547 0.77246 0.01083 0.0
C1395 C 0.73202 0.7908 0.13264 0.0
H1396 H 0.65692 0.75335 0.07506 0.0
C1397 C 0.75403 0.80202 0.0957 0.0
C1398 C 0.74129 0.79556 0.05122 0.0
H1399 H 0.7426 0.79611 0.16634 0.0
H1400 H 0.78114 0.81557 0.10213 0.0
C1401 C 0.70605 0.77777 0.04454 0.0
C1402 C 0.2832 0.96673 0.09568 0.0
C1403 C 0.29033 0.96107 0.05128 0.0
H1404 H 0.28823 0.96052 0.1663 0.0
C1405 C 0.30811 0.94358 0.04476 0.0
H1406 H 0.26959 0.98022 0.10206 0.0
C1407 C 0.31845 0.93194 0.08183 0.0
C1408 C 0.31165 0.93798 0.12622 0.0
H1409 H 0.31388 0.93873 0.0111 0.0
H1410 H 0.33221 0.91857 0.07562 0.0
C1411 C 0.29393 0.95552 0.13268 0.0
C1412 C 0.15267 0.40331 0.08158 0.0
C1413 C 0.14636 0.39063 0.12608 0.0
H1414 H 0.14678 0.39176 0.01095 0.0
C1415 C 0.12888 0.35541 0.13283 0.0
H1416 H 0.16598 0.4304 0.0751 0.0
C1417 C 0.11824 0.33335 0.09594 0.0
C1418 C 0.12441 0.34602 0.05143 0.0
H1419 H 0.12371 0.34488 0.16656 0.0
H1420 H 0.10487 0.30625 0.10243 0.0
C1421 C 0.14161 0.38124 0.04468 0.0
C1422 C 0.79521 0.6885 0.46624 0.0
C1423 C 0.81287 0.72373 0.45955 0.0
H1424 H 0.77092 0.63937 0.43574 0.0
C1425 C 0.8192 0.73644 0.41507 0.0
H1426 H 0.79 0.67794 0.49995 0.0
C1427 C 0.80799 0.71442 0.37814 0.0
C1428 C 0.79063 0.67919 0.38483 0.0
H1429 H 0.83264 0.76355 0.40864 0.0
H1430 H 0.8132 0.72498 0.34443 0.0
C1431 C 0.78442 0.66647 0.42931 0.0
C1432 C 0.3988 0.12493 0.46612 0.0
C1433 C 0.36357 0.10714 0.45931 0.0
H1434 H 0.448 0.15006 0.43579 0.0
C1435 C 0.35095 0.10069 0.41477 0.0
H1436 H 0.4093 0.13034 0.49987 0.0
C1437 C 0.37305 0.11164 0.37791 0.0
C1438 C 0.40828 0.12971 0.38471 0.0
H1439 H 0.32385 0.08687 0.40824 0.0
H1440 H 0.36255 0.1062 0.34416 0.0
C1441 C 0.4209 0.1363 0.42925 0.0
C1442 C 0.98735 0.26816 0.415 0.0
C1443 C 0.98101 0.2745 0.45949 0.0
H1444 H 0.98174 0.27408 0.34437 0.0
C1445 C 0.96336 0.29207 0.46621 0.0
H1446 H 1.00106 0.25477 0.40855 0.0
C1447 C 0.95202 0.30278 0.4293 0.0
C1448 C 0.95849 0.29657 0.38481 0.0
H1449 H 0.95803 0.29728 0.49993 0.0
H1450 H 0.93836 0.31622 0.43576 0.0
C1451 C 0.97642 0.27928 0.37809 0.0
C1452 C 1.0396 0.61264 0.21152 0.0
C1453 C 0.07482 0.63041 0.21836 0.0
H1454 H 0.99039 0.58751 0.24182 0.0
C1455 C 0.08744 0.63683 0.2629 0.0
H1456 H 1.02911 0.60725 0.17776 0.0
C1457 C 0.06533 0.62585 0.29974 0.0
C1458 C 1.03011 0.6078 0.29291 0.0
H1459 H 0.11453 0.65063 0.26946 0.0
H1460 H 0.07582 0.63125 0.33349 0.0
C1461 C 1.01749 0.60126 0.24837 0.0
C1462 C 0.4856 0.43344 0.24826 0.0
C1463 C 0.47939 0.4399 0.29275 0.0
H1464 H 0.47955 0.43892 0.17763 0.0
C1465 C 0.46188 0.45761 0.29948 0.0
H1466 H 0.49894 0.41968 0.2418 0.0
C1467 C 0.45112 0.46891 0.26257 0.0
C1468 C 0.45722 0.46234 0.21807 0.0
H1469 H 0.45677 0.46303 0.3332 0.0
H1470 H 0.43774 0.48263 0.26904 0.0
C1471 C 0.47443 0.44434 0.21135 0.0
C1472 C 0.63112 1.02205 0.2991 0.0
C1473 C 0.64867 0.05727 0.29232 0.0
H1474 H 0.60621 0.9729 0.26874 0.0
C1475 C 0.65501 0.06995 0.24783 0.0
H1476 H 0.6258 1.01153 0.33283 0.0
C1477 C 0.64411 0.04788 0.21094 0.0
C1478 C 0.62624 1.01266 0.21773 0.0
H1479 H 0.66865 0.09705 0.24136 0.0
H1480 H 0.64939 0.05839 0.17721 0.0
C1481 C 0.61982 0.99999 0.26223 0.0
C1482 C 0.47721 0.04713 0.71153 0.0
C1483 C 0.45982 1.01187 0.71808 0.0
H1484 H 0.50124 0.0962 0.74203 0.0
C1485 C 0.4533 0.99907 0.7625 0.0
H1486 H 0.48266 0.05778 0.67787 0.0
C1487 C 0.4636 1.02109 0.79951 0.0
C1488 C 0.48106 0.05636 0.7929 0.0
H1489 H 0.43981 0.97195 0.76879 0.0
H1490 H 0.45807 1.0105 0.83321 0.0
C1491 C 0.48789 0.0691 0.74847 0.0
C1492 C 0.08778 0.46894 0.76283 0.0
C1493 C 0.07502 0.46239 0.71836 0.0
H1494 H 0.07638 0.46309 0.83349 0.0
C1495 C 1.03978 0.44447 0.71171 0.0
H1496 H 0.1149 0.4826 0.76923 0.0
C1497 C 1.01779 0.43363 0.74866 0.0
C1498 C 1.03054 0.44006 0.79313 0.0
H1499 H 1.02919 0.43907 0.67801 0.0
H1500 H 0.99067 0.41992 0.74225 0.0
C1501 C 0.06579 0.4577 0.79979 0.0
C1502 C 0.64277 0.61263 0.71136 0.0
C1503 C 0.62498 0.63006 0.71809 0.0
H1504 H 0.66719 0.5879 0.74181 0.0
C1505 C 0.61853 0.63628 0.76258 0.0
H1506 H 0.64808 0.60741 0.67764 0.0
C1507 C 0.62976 0.62545 0.79949 0.0
C1508 C 0.64726 0.60774 0.79276 0.0
H1509 H 0.60498 0.64983 0.76904 0.0
H1510 H 0.62446 0.63068 0.83321 0.0
C1511 C 0.65359 0.60139 0.74826 0.0
C1512 C 0.29342 0.28529 0.27538 0.0
C1513 C 0.26238 0.26261 0.29626 0.0
H1514 H 0.32646 0.29414 0.21873 0.0
C1515 C 0.24107 0.23098 0.27606 0.0
H1516 H 0.31053 0.30966 0.2906 0.0
C1517 C 0.25027 0.22206 0.23613 0.0
C1518 C 0.28105 0.24448 0.21485 0.0
H1519 H 0.21703 0.21277 0.29116 0.0
H1520 H 0.23289 0.19741 0.22176 0.0
C1521 C 0.30276 0.27622 0.23482 0.0
C1522 C 0.86543 0.04559 0.23636 0.0
C1523 C 0.84286 0.05365 0.21483 0.0
H1524 H 0.87493 1.02211 0.29179 0.0
C1525 C 0.81111 0.04358 0.23475 0.0
H1526 H 0.8901 0.05292 0.22204 0.0
C1527 C 0.80215 1.0254 0.2755 0.0
C1528 C 0.82496 1.01733 0.29664 0.0
H1529 H 0.79309 0.04914 0.21847 0.0
H1530 H 0.77775 1.01808 0.29066 0.0
C1531 C 0.85662 1.02771 0.2765 0.0
C1532 C 1.04551 0.83909 0.23451 0.0
C1533 C 1.03471 0.80727 0.2146 0.0
H1534 H 0.07111 0.87266 0.28878 0.0
C1535 C 1.0425 0.78431 0.23587 0.0
H1536 H 1.04016 0.85753 0.21911 0.0
C1537 C 0.06077 0.79326 0.27657 0.0
C1538 C 0.07121 0.82515 0.2963 0.0
H1539 H 1.03487 0.75978 0.22089 0.0
H1540 H 0.06607 0.77511 0.29299 0.0
C1541 C 0.06349 0.84788 0.2746 0.0
C1542 C 0.81137 0.78452 0.73514 0.0
C1543 C 0.8428 0.80668 0.71477 0.0
H1544 H 0.77808 0.77626 0.79129 0.0
C1545 C 0.86471 0.83788 0.73554 0.0
H1546 H 0.79381 0.76049 0.71946 0.0
C1547 C 0.85564 0.84697 0.77543 0.0
C1548 C 0.82438 0.82513 0.79612 0.0
H1549 H 0.8891 0.85565 0.72086 0.0
H1550 H 0.87347 0.87131 0.79018 0.0
C1551 C 0.80215 0.79375 0.77568 0.0
C1552 C 0.29385 1.02601 0.7759 0.0
C1553 C 0.26216 1.0161 0.79592 0.0
H1554 H 0.32722 0.05151 0.71996 0.0
C1555 C 0.23976 1.02447 0.77458 0.0
H1556 H 0.31176 1.02022 0.79202 0.0
C1557 C 0.24865 0.0425 0.73457 0.0
C1558 C 0.28023 0.0527 0.7143 0.0
H1559 H 0.21514 1.01728 0.78898 0.0
H1560 H 0.23045 0.04833 0.71945 0.0
C1561 C 0.30289 0.04434 0.73523 0.0
C1562 C 1.04366 0.27616 0.73502 0.0
C1563 C 1.03378 0.24449 0.71498 0.0
H1564 H 0.06916 0.30954 0.79094 0.0
C1565 C 1.04223 0.22212 0.73625 0.0
H1566 H 1.03782 0.29403 0.71895 0.0
C1567 C 0.06029 0.23104 0.77625 0.0
C1568 C 0.07045 0.2626 0.79653 0.0
H1569 H 1.03507 0.19752 0.72182 0.0
H1570 H 0.06619 0.21288 0.79134 0.0
C1571 C 0.06202 0.28522 0.77565 0.0
C1572 C 0.90647 0.5653 0.60854 0.0
C1573 C 0.92877 0.59613 0.62983 0.0
H1574 H 0.89724 0.53225 0.55328 0.0
C1575 C 0.96037 0.61808 0.60971 0.0
H1576 H 0.88193 0.54774 0.62302 0.0
C1577 C 0.96941 0.60895 0.56896 0.0
C1578 C 0.94683 0.5779 0.54802 0.0
H1579 H 0.9782 0.64182 0.62578 0.0
H1580 H 0.99367 0.62625 0.55361 0.0
C1581 C 0.91536 0.55632 0.56841 0.0
C1582 C 0.47819 0.37788 0.5685 0.0
C1583 C 0.50946 0.38684 0.54791 0.0
H1584 H 0.44503 0.35317 0.62488 0.0
C1585 C 0.53121 0.37724 0.56848 0.0
H1586 H 0.46075 0.3846 0.55299 0.0
C1587 C 0.52214 0.35913 0.60843 0.0
C1588 C 0.49106 0.35006 0.62935 0.0
H1589 H 0.55547 0.38359 0.55362 0.0
H1590 H 0.53984 0.35238 0.62304 0.0
C1591 C 0.46897 0.35948 0.60908 0.0
C1592 C 0.71069 0.11812 0.56774 0.0
C1593 C 0.69975 0.13925 0.54828 0.0
H1594 H 0.73711 0.11093 0.62311 0.0
C1595 C 0.70693 0.16945 0.57025 0.0
H1596 H 0.7058 0.09488 0.55111 0.0
C1597 C 0.72497 0.17874 0.61028 0.0
C1598 C 0.73637 0.1581 0.62987 0.0
H1599 H 0.69888 0.18633 0.55627 0.0
H1600 H 0.72993 0.20235 0.62587 0.0
C1601 C 0.72903 0.12755 0.60839 0.0
C1602 C 0.52386 0.179 0.1102 0.0
C1603 C 0.49196 0.15812 0.13002 0.0
H1604 H 0.55745 0.18682 0.05605 0.0
C1605 C 0.46889 0.12743 0.1087 0.0
H1606 H 0.5424 0.20275 0.12563 0.0
C1607 C 0.4778 0.11804 0.06803 0.0
C1608 C 0.50975 0.13939 0.04838 0.0
H1609 H 0.44431 0.11064 0.12361 0.0
H1610 H 0.45957 0.09466 0.05155 0.0
C1611 C 0.53261 0.16976 0.07016 0.0
C1612 C 0.90754 0.36043 0.10955 0.0
C1613 C 0.92894 0.35028 0.12988 0.0
H1614 H 0.89932 0.38574 0.05517 0.0
C1615 C 0.96006 0.3588 0.10913 0.0
H1616 H 0.88343 0.35447 0.12454 0.0
C1617 C 0.96942 0.37724 0.06858 0.0
C1618 C 0.94763 0.38713 0.0485 0.0
H1619 H 0.97724 0.35167 0.12447 0.0
H1620 H 0.99319 0.38316 0.05261 0.0
C1621 C 0.91676 0.37859 0.06964 0.0
C1622 C 0.72792 0.61843 0.10914 0.0
C1623 C 0.73728 0.59632 0.12947 0.0
H1624 H 0.70287 0.62667 0.05296 0.0
C1625 C 0.72818 0.56522 0.10856 0.0
H1626 H 0.73426 0.64238 0.12493 0.0
C1627 C 0.71009 0.55616 0.06858 0.0
C1628 C 0.70055 0.57793 0.04795 0.0
H1629 H 0.73489 0.5475 0.12321 0.0
H1630 H 0.70372 0.53189 0.05374 0.0
C1631 C 0.70954 0.60922 0.06852 0.0
C1632 C 0.58179 0.88926 0.90156 0.0
C1633 C 0.61312 0.91102 0.88098 0.0
H1634 H 0.54844 0.88054 0.95636 0.0
C1635 C 0.63553 0.94221 0.90171 0.0
H1636 H 0.56382 0.86507 0.88657 0.0
C1637 C 0.62644 0.95134 0.94241 0.0
C1638 C 0.59497 0.92925 0.96273 0.0
H1639 H 0.65967 0.95965 0.88621 0.0
H1640 H 0.64414 0.97523 0.95827 0.0
C1641 C 0.57285 0.89823 0.94169 0.0
C1642 C 0.1361 0.69259 0.94282 0.0
C1643 C 0.15861 0.68394 0.96358 0.0
H1644 H 0.12734 0.71685 0.88619 0.0
C1645 C 0.18998 0.69367 0.94303 0.0
H1646 H 0.11192 0.68577 0.9583 0.0
C1647 C 0.19885 0.71156 0.90287 0.0
C1648 C 0.17662 0.72029 0.88179 0.0
H1649 H 0.20803 0.68756 0.95805 0.0
H1650 H 0.22329 0.71839 0.88821 0.0
C1651 C 0.14512 0.71079 0.9021 0.0
C1652 C 0.39535 0.46094 0.94193 0.0
C1653 C 0.40319 0.49171 0.96316 0.0
H1654 H 0.37175 0.42816 0.88485 0.0
C1655 C 0.39247 0.51277 0.94319 0.0
H1656 H 0.40293 0.44401 0.95696 0.0
C1657 C 0.37451 0.50361 0.90311 0.0
C1658 C 0.36673 0.47313 0.88146 0.0
H1659 H 0.39787 0.53659 0.95856 0.0
H1660 H 0.36693 0.5208 0.88889 0.0
C1661 C 0.37709 0.45163 0.90123 0.0
C1662 C 0.18911 0.51348 0.44242 0.0
C1663 C 0.15779 0.49173 0.46304 0.0
H1664 H 0.22251 0.52212 0.3878 0.0
C1665 C 0.13541 0.46046 0.44244 0.0
H1666 H 0.20705 0.53773 0.45728 0.0
C1667 C 0.14454 0.45126 0.4018 0.0
C1668 C 0.17601 0.47336 0.38148 0.0
H1669 H 0.11129 0.44304 0.45799 0.0
H1670 H 0.12687 0.42734 0.38598 0.0
C1671 C 0.19808 0.50442 0.40244 0.0
C1672 C 0.63604 0.71078 0.40161 0.0
C1673 C 0.61417 0.72053 0.38148 0.0
H1674 H 0.64401 0.68541 0.45762 0.0
C1675 C 0.5833 0.71198 0.40265 0.0
H1676 H 0.65981 0.71671 0.38561 0.0
C1677 C 0.57418 0.69393 0.44264 0.0
C1678 C 0.59567 0.68392 0.46303 0.0
H1679 H 0.5658 0.71903 0.38816 0.0
H1680 H 0.55007 0.68794 0.45765 0.0
C1681 C 0.62678 0.69244 0.44224 0.0
C1682 C 0.36685 0.91679 0.46243 0.0
C1683 C 0.40255 0.93484 0.46356 0.0
H1684 H 0.32215 0.89406 0.42083 0.0
C1685 C 0.42103 0.94524 0.42335 0.0
H1686 H 0.35233 0.90805 0.49337 0.0
C1687 C 0.40387 0.93615 0.38219 0.0
C1688 C 0.36818 0.91776 0.38106 0.0
H1689 H 0.44858 0.95863 0.42379 0.0
H1690 H 0.41842 0.94254 0.35123 0.0
C1691 C 0.34968 0.9088 0.42128 0.0
C1692 C 0.31167 0.34494 0.12425 0.0
C1693 C 0.30853 0.33356 0.07925 0.0
H1694 H 0.33485 0.38769 0.169 0.0
C1695 C 0.31742 0.35705 0.04423 0.0
H1696 H 0.3041 0.32708 0.15199 0.0
C1697 C 0.33438 0.39174 0.05417 0.0
C1698 C 0.34298 0.40316 0.09911 0.0
H1699 H 0.3149 0.34902 0.00939 0.0
H1700 H 0.3442 0.40962 0.02641 0.0
C1701 C 0.32904 0.37963 0.1342 0.0
C1702 C 0.70798 0.96633 0.13304 0.0
C1703 C 0.68446 0.95718 0.09799 0.0
H1704 H 0.76054 0.99361 0.1509 0.0
C1705 C 0.69585 0.96031 0.053 0.0
H1706 H 0.69992 0.96381 0.16787 0.0
C1707 C 0.73055 0.97798 0.04309 0.0
C1708 C 0.75404 0.99221 0.07819 0.0
H1709 H 0.67797 0.95254 0.02525 0.0
H1710 H 0.73859 0.98379 0.00829 0.0
C1711 C 0.74267 0.9836 0.12313 0.0
C1712 C 0.10352 0.77622 0.12401 0.0
C1713 C 0.09505 0.77911 0.07903 0.0
H1714 H 0.12321 0.75319 0.16883 0.0
C1715 C 0.10936 0.76992 0.044 0.0
H1716 H 0.09344 0.78401 0.15174 0.0
C1717 C 0.12702 0.75289 0.05398 0.0
C1718 C 0.13007 0.74455 0.09897 0.0
H1719 H 0.10366 0.77225 0.00918 0.0
H1720 H 0.13487 0.74286 0.02625 0.0
C1721 C 0.12078 0.75879 0.134 0.0
C1722 C 0.40913 0.31751 0.45743 0.0
C1723 C 0.42053 0.32582 0.41245 0.0
H1724 H 0.36636 0.29796 0.5021 0.0
C1725 C 0.39705 0.3113 0.37738 0.0
H1726 H 0.42699 0.32775 0.48519 0.0
C1727 C 0.36235 0.29363 0.38727 0.0
C1728 C 0.35092 0.29077 0.43219 0.0
H1729 H 0.40511 0.31686 0.34256 0.0
H1730 H 0.34448 0.28564 0.35948 0.0
C1731 C 0.37443 0.30025 0.46731 0.0
C1732 C 0.78768 0.09183 0.46796 0.0
C1733 C 0.79723 0.07784 0.43291 0.0
H1734 H 0.7602 0.11692 0.48562 0.0
C1735 C 0.79461 0.08657 0.38797 0.0
H1736 H 0.7898 0.08593 0.50276 0.0
C1737 C 0.77704 0.10366 0.37794 0.0
C1738 C 0.76239 0.11255 0.41289 0.0
H1739 H 0.80269 0.07673 0.36025 0.0
H1740 H 0.77162 0.10625 0.34307 0.0
C1741 C 0.77053 0.10935 0.45794 0.0
C1742 C 0.99467 0.71245 0.46709 0.0
C1743 C 1.00897 0.73601 0.43209 0.0
H1744 H 0.96944 0.65987 0.48478 0.0
C1745 C 1.00063 0.72467 0.38709 0.0
H1746 H 1.00025 0.72045 0.50193 0.0
C1747 C 0.98364 0.69 0.37706 0.0
C1748 C 0.97445 0.66646 0.41208 0.0
H1749 H 1.01071 0.74259 0.35939 0.0
H1750 H 0.98137 0.68201 0.34223 0.0
C1751 C 0.97724 0.67777 0.45706 0.0
C1752 C 0.77571 0.69025 0.87714 0.0
C1753 C 0.76141 0.66676 0.91221 0.0
H1754 H 0.80111 0.74279 0.85927 0.0
C1755 C 0.76983 0.67818 0.95718 0.0
H1756 H 0.77005 0.68218 0.84232 0.0
C1757 C 0.78699 0.71287 0.96708 0.0
C1758 C 0.79625 0.73636 0.932 0.0
H1759 H 0.75976 0.66032 0.98494 0.0
H1760 H 0.78938 0.72094 1.00189 0.0
C1761 C 0.79328 0.72494 0.88704 0.0
C1762 C 0.36231 0.08496 0.88733 0.0
C1763 C 0.35102 0.07649 0.93233 0.0
H1764 H 0.40492 0.10442 0.84238 0.0
C1765 C 0.37462 0.09069 0.96731 0.0
H1766 H 0.34435 0.07498 0.85965 0.0
C1767 C 0.40929 0.10819 0.95723 0.0
C1768 C 0.42055 0.11115 0.91219 0.0
H1769 H 0.36666 0.085 1.00215 0.0
H1770 H 0.42723 0.11597 0.9849 0.0
C1771 C 0.39697 0.10202 0.87724 0.0
C1772 C 0.97882 0.31773 0.95782 0.0
C1773 C 0.97566 0.32601 0.91284 0.0
H1774 H 1.00205 0.29818 1.0025 0.0
C1775 C 0.98459 0.31148 0.87778 0.0
H1776 H 0.97122 0.32797 0.98558 0.0
C1777 C 1.0016 0.2938 0.88767 0.0
C1778 C 1.01021 0.29094 0.9326 0.0
H1779 H 0.98205 0.31702 0.84295 0.0
H1780 H 1.01143 0.28578 0.85989 0.0
C1781 C 0.99624 0.30045 0.96771 0.0
C1782 C 0.74254 0.77574 0.62426 0.0
C1783 C 0.75391 0.77883 0.57926 0.0
H1784 H 0.69979 0.75256 0.66898 0.0
C1785 C 0.73041 0.76988 0.54422 0.0
H1786 H 0.76041 0.78335 0.652 0.0
C1787 C 0.69572 0.75289 0.55415 0.0
C1788 C 0.68431 0.74433 0.59909 0.0
H1789 H 0.73845 0.77237 0.50939 0.0
H1790 H 0.67783 0.74303 0.52639 0.0
C1791 C 0.70784 0.75834 0.63418 0.0
C1792 C 0.33778 0.96347 0.55262 0.0
C1793 C 0.34563 0.95994 0.59766 0.0
H1794 H 0.31768 0.98614 0.50796 0.0
C1795 C 0.33015 0.96779 0.63263 0.0
H1796 H 0.34888 0.95688 0.5249 0.0
C1797 C 0.31175 0.98408 0.6227 0.0
C1798 C 0.3091 0.99296 0.57783 0.0
H1799 H 0.33536 0.96494 0.6675 0.0
H1800 H 0.30299 0.99321 0.65047 0.0
C1801 C 0.31968 0.98001 0.5427 0.0
C1802 C 0.12717 0.39181 0.5542 0.0
C1803 C 0.13002 0.4032 0.59916 0.0
H1804 H 0.10402 0.3491 0.50941 0.0
C1805 C 0.12065 0.37968 0.63423 0.0
H1806 H 0.1351 0.4097 0.52646 0.0
C1807 C 0.10348 0.34499 0.62427 0.0
C1808 C 0.09516 0.33362 0.57927 0.0
H1809 H 0.12294 0.38772 0.66903 0.0
H1810 H 0.09332 0.32711 0.652 0.0
C1811 C 0.10959 0.35713 0.54424 0.0
C1812 C 1.02864 0.62616 0.72197 0.0
C1813 C 1.01726 0.62361 0.76687 0.0
H1814 H 0.07134 0.64903 0.67718 0.0
C1815 C 1.04078 0.6332 0.80199 0.0
H1816 H 1.01074 0.61805 0.69421 0.0
C1817 C 0.07547 0.65032 0.79206 0.0
C1818 C 0.08684 0.65836 0.74704 0.0
H1819 H 1.03273 0.63113 0.83676 0.0
H1820 H 0.09335 0.66066 0.81979 0.0
C1821 C 0.06332 0.64368 0.71203 0.0
C1822 C 0.46048 0.41951 0.72052 0.0
C1823 C 0.46332 0.41095 0.76547 0.0
H1824 H 0.4373 0.43905 0.67572 0.0
C1825 C 0.45389 0.42503 0.80054 0.0
H1826 H 0.46844 0.40959 0.69278 0.0
C1827 C 0.43669 0.44251 0.79058 0.0
C1828 C 0.42838 0.44559 0.74558 0.0
H1829 H 0.45618 0.41926 0.83535 0.0
H1830 H 0.42649 0.45018 0.81831 0.0
C1831 C 0.44285 0.43657 0.71056 0.0
C1832 C 0.66784 0.05858 0.72076 0.0
C1833 C 0.67648 0.06997 0.76571 0.0
H1834 H 0.6481 1.01585 0.67598 0.0
C1835 C 0.66238 0.04646 0.80079 0.0
H1836 H 0.67776 0.07646 0.69301 0.0
C1837 C 0.64479 1.01177 0.79084 0.0
C1838 C 0.6416 1.00037 0.74584 0.0
H1839 H 0.66822 0.05451 0.83559 0.0
H1840 H 0.63711 0.9939 0.81858 0.0
C1841 C 0.65066 1.02389 0.71082 0.0
C1842 C 0.46033 0.05819 0.22257 0.0
C1843 C 0.46262 0.06984 0.26731 0.0
H1844 H 0.43682 1.01543 0.17782 0.0
C1845 C 0.45126 0.04633 0.30252 0.0
H1846 H 0.46964 0.07607 0.19478 0.0
C1847 C 0.43284 1.01169 0.29267 0.0
C1848 C 0.42547 1.00027 0.24759 0.0
H1849 H 0.45293 0.05455 0.33716 0.0
H1850 H 0.4212 0.99411 0.32037 0.0
C1851 C 0.44165 1.02351 0.21269 0.0
C1852 C 1.02881 0.41923 0.22061 0.0
C1853 C 1.01745 0.41074 0.26558 0.0
H1854 H 0.07152 0.4388 0.17582 0.0
C1855 C 1.04099 0.42496 0.30063 0.0
H1856 H 1.01091 0.40921 0.19288 0.0
C1857 C 0.07568 0.44252 0.29067 0.0
C1858 C 0.08704 0.44554 0.24568 0.0
H1859 H 1.03296 0.41925 0.33545 0.0
H1860 H 0.09357 0.45029 0.3184 0.0
C1861 C 0.0635 0.43638 0.21065 0.0
C1862 C 0.6449 0.6509 0.29069 0.0
C1863 C 0.64184 0.65922 0.2457 0.0
H1864 H 0.6681 0.63136 0.33546 0.0
C1865 C 0.65085 0.64475 0.21067 0.0
H1866 H 0.63723 0.6611 0.31843 0.0
C1867 C 0.66789 0.6271 0.22062 0.0
C1868 C 0.67642 0.62422 0.26558 0.0
H1869 H 0.64838 0.65032 0.17584 0.0
H1870 H 0.6778 0.61913 0.19287 0.0
C1871 C 0.66234 0.63366 0.30065 0.0
loop_
_geom_bond_atom_site_label_1
_geom_bond_atom_site_label_2
_geom_bond_distance
_geom_bond_site_symmetry_2
_ccdc_geom_bond_type
Fe0 O2 1.918 . S
Fe0 O5 1.997 1_554 S
Fe0 O6 2.002 1_554 S
Fe0 O11 1.976 . S
Fe0 O14 1.996 . S
Fe1 O2 1.918 . S
Fe1 O9 1.997 . S
Fe1 O12 1.996 . S
Fe1 O16 1.976 . S
Fe1 O19 2.002 . S
O2 Fe0 1.918 . S
O2 Fe1 1.918 . S
O2 Fe3 1.918 . S
Fe3 O2 1.918 . S
Fe3 O4 2.002 . S
Fe3 O13 1.976 . S
Fe3 O17 1.996 . S
Fe3 O20 1.997 . S
O4 Fe3 2.002 . S
O4 C21 1.295 . S
O5 Fe0 1.997 1_556 S
O5 C21 1.235 1_556 S
O6 Fe0 2.002 1_556 S
O6 C7 1.295 1_556 S
C7 O6 1.295 1_554 S
C7 O9 1.235 . S
C8 O13 1.287 . S
C8 O14 1.255 . S
O9 Fe1 1.997 . S
O9 C7 1.235 . S
C10 O16 1.287 . S
C10 O17 1.255 . S
O11 Fe0 1.976 . S
O11 C18 1.287 . S
O12 Fe1 1.996 . S
O12 C18 1.255 . S
O13 Fe3 1.976 . S
O13 C8 1.287 . S
O14 Fe0 1.996 . S
O14 C8 1.255 . S
C15 O19 1.295 . S
C15 O20 1.235 . S
O16 Fe1 1.976 . S
O16 C10 1.287 . S
O17 Fe3 1.996 . S
O17 C10 1.255 . S
C18 O11 1.287 . S
C18 O12 1.255 . S
O19 Fe1 2.002 . S
O19 C15 1.295 . S
O20 Fe3 1.997 . S
O20 C15 1.235 . S
C21 O4 1.295 . S
C21 O5 1.235 1_554 S
Fe22 O24 1.918 . S
Fe22 O27 1.997 1_554 S
Fe22 O28 2.002 1_554 S
Fe22 O33 1.976 1_545 S
Fe22 O36 1.996 1_545 S
Fe23 O24 1.918 . S
Fe23 O31 1.997 . S
Fe23 O34 1.996 . S
Fe23 O38 1.976 . S
Fe23 O41 2.002 . S
O24 Fe22 1.918 . S
O24 Fe23 1.918 . S
O24 Fe25 1.918 . S
Fe25 O24 1.918 . S
Fe25 O26 2.002 . S
Fe25 O35 1.976 . S
Fe25 O39 1.996 . S
Fe25 O42 1.997 . S
O26 Fe25 2.002 . S
O26 C43 1.295 . S
O27 Fe22 1.997 1_556 S
O27 C43 1.235 1_556 S
O28 Fe22 2.002 1_556 S
O28 C29 1.295 1_556 S
C29 O28 1.295 1_554 S
C29 O31 1.235 . S
C30 O35 1.287 1_565 S
C30 O36 1.255 . S
O31 Fe23 1.997 . S
O31 C29 1.235 . S
C32 O38 1.287 . S
C32 O39 1.255 . S
O33 Fe22 1.976 1_565 S
O33 C40 1.287 . S
O34 Fe23 1.996 . S
O34 C40 1.255 1_545 S
O35 Fe25 1.976 . S
O35 C30 1.287 1_545 S
O36 Fe22 1.996 1_565 S
O36 C30 1.255 . S
C37 O41 1.295 . S
C37 O42 1.235 . S
O38 Fe23 1.976 . S
O38 C32 1.287 . S
O39 Fe25 1.996 . S
O39 C32 1.255 . S
C40 O33 1.287 . S
C40 O34 1.255 1_565 S
O41 Fe23 2.002 . S
O41 C37 1.295 . S
O42 Fe25 1.997 . S
O42 C37 1.235 . S
C43 O26 1.295 . S
C43 O27 1.235 1_554 S
Fe44 O46 1.918 . S
Fe44 O49 1.997 1_554 S
Fe44 O50 2.002 1_554 S
Fe44 O55 1.976 1_655 S
Fe44 O58 1.996 1_655 S
Fe45 O46 1.918 . S
Fe45 O53 1.997 . S
Fe45 O56 1.996 . S
Fe45 O60 1.976 . S
Fe45 O63 2.002 . S
O46 Fe44 1.918 . S
O46 Fe45 1.918 . S
O46 Fe47 1.918 . S
Fe47 O46 1.918 . S
Fe47 O48 2.002 . S
Fe47 O57 1.976 . S
Fe47 O61 1.996 . S
Fe47 O64 1.997 . S
O48 Fe47 2.002 . S
O48 C65 1.295 . S
O49 Fe44 1.997 1_556 S
O49 C65 1.235 1_556 S
O50 Fe44 2.002 1_556 S
O50 C51 1.295 1_556 S
C51 O50 1.295 1_554 S
C51 O53 1.235 . S
C52 O57 1.287 1_455 S
C52 O58 1.255 . S
O53 Fe45 1.997 . S
O53 C51 1.235 . S
C54 O60 1.287 . S
C54 O61 1.255 . S
O55 Fe44 1.976 1_455 S
O55 C62 1.287 . S
O56 Fe45 1.996 . S
O56 C62 1.255 1_655 S
O57 Fe47 1.976 . S
O57 C52 1.287 1_655 S
O58 Fe44 1.996 1_455 S
O58 C52 1.255 . S
C59 O63 1.295 . S
C59 O64 1.235 . S
O60 Fe45 1.976 . S
O60 C54 1.287 . S
O61 Fe47 1.996 . S
O61 C54 1.255 . S
C62 O55 1.287 . S
C62 O56 1.255 1_455 S
O63 Fe45 2.002 . S
O63 C59 1.295 . S
O64 Fe47 1.997 . S
O64 C59 1.235 . S
C65 O48 1.295 . S
C65 O49 1.235 1_554 S
Fe66 O68 1.918 . S
Fe66 O71 1.997 . S
Fe66 O72 2.002 . S
Fe66 O77 1.976 . S
Fe66 O80 1.996 . S
Fe67 O68 1.918 . S
Fe67 O75 1.997 . S
Fe67 O78 1.996 . S
Fe67 O82 1.976 . S
Fe67 O85 2.002 . S
O68 Fe66 1.918 . S
O68 Fe67 1.918 . S
O68 Fe69 1.918 . S
Fe69 O68 1.918 . S
Fe69 O70 2.002 . S
Fe69 O79 1.976 . S
Fe69 O83 1.996 . S
Fe69 O86 1.997 . S
O70 Fe69 2.002 . S
O70 C87 1.295 . S
O71 Fe66 1.997 . S
O71 C87 1.235 . S
O72 Fe66 2.002 . S
O72 C73 1.295 . S
C73 O72 1.295 . S
C73 O75 1.235 . S
C74 O79 1.287 . S
C74 O80 1.255 . S
O75 Fe67 1.997 . S
O75 C73 1.235 . S
C76 O82 1.287 . S
C76 O83 1.255 . S
O77 Fe66 1.976 . S
O77 C84 1.287 . S
O78 Fe67 1.996 . S
O78 C84 1.255 . S
O79 Fe69 1.976 . S
O79 C74 1.287 . S
O80 Fe66 1.996 . S
O80 C74 1.255 . S
C81 O85 1.295 . S
C81 O86 1.235 . S
O82 Fe67 1.976 . S
O82 C76 1.287 . S
O83 Fe69 1.996 . S
O83 C76 1.255 . S
C84 O77 1.287 . S
C84 O78 1.255 . S
O85 Fe67 2.002 . S
O85 C81 1.295 . S
O86 Fe69 1.997 . S
O86 C81 1.235 . S
C87 O70 1.295 . S
C87 O71 1.235 . S
Fe88 O90 1.918 . S
Fe88 O93 1.997 . S
Fe88 O94 2.002 . S
Fe88 O99 1.976 1_565 S
Fe88 O102 1.996 1_565 S
Fe89 O90 1.918 . S
Fe89 O97 1.997 . S
Fe89 O100 1.996 . S
Fe89 O104 1.976 . S
Fe89 O107 2.002 . S
O90 Fe88 1.918 . S
O90 Fe89 1.918 . S
O90 Fe91 1.918 . S
Fe91 O90 1.918 . S
Fe91 O92 2.002 . S
Fe91 O101 1.976 . S
Fe91 O105 1.996 . S
Fe91 O108 1.997 . S
O92 Fe91 2.002 . S
O92 C109 1.295 . S
O93 Fe88 1.997 . S
O93 C109 1.235 . S
O94 Fe88 2.002 . S
O94 C95 1.295 . S
C95 O94 1.295 . S
C95 O97 1.235 . S
C96 O101 1.287 1_545 S
C96 O102 1.255 . S
O97 Fe89 1.997 . S
O97 C95 1.235 . S
C98 O104 1.287 . S
C98 O105 1.255 . S
O99 Fe88 1.976 1_545 S
O99 C106 1.287 . S
O100 Fe89 1.996 . S
O100 C106 1.255 1_565 S
O101 Fe91 1.976 . S
O101 C96 1.287 1_565 S
O102 Fe88 1.996 1_545 S
O102 C96 1.255 . S
C103 O107 1.295 . S
C103 O108 1.235 . S
O104 Fe89 1.976 . S
O104 C98 1.287 . S
O105 Fe91 1.996 . S
O105 C98 1.255 . S
C106 O99 1.287 . S
C106 O100 1.255 1_545 S
O107 Fe89 2.002 . S
O107 C103 1.295 . S
O108 Fe91 1.997 . S
O108 C103 1.235 . S
C109 O92 1.295 . S
C109 O93 1.235 . S
Fe110 O112 1.918 . S
Fe110 O115 1.997 . S
Fe110 O116 2.002 . S
Fe110 O121 1.976 1_455 S
Fe110 O124 1.996 1_455 S
Fe111 O112 1.918 . S
Fe111 O119 1.997 . S
Fe111 O122 1.996 . S
Fe111 O126 1.976 . S
Fe111 O129 2.002 . S
O112 Fe110 1.918 . S
O112 Fe111 1.918 . S
O112 Fe113 1.918 . S
Fe113 O112 1.918 . S
Fe113 O114 2.002 . S
Fe113 O123 1.976 . S
Fe113 O127 1.996 . S
Fe113 O130 1.997 . S
O114 Fe113 2.002 . S
O114 C131 1.295 . S
O115 Fe110 1.997 . S
O115 C131 1.235 . S
O116 Fe110 2.002 . S
O116 C117 1.295 . S
C117 O116 1.295 . S
C117 O119 1.235 . S
C118 O123 1.287 1_655 S
C118 O124 1.255 . S
O119 Fe111 1.997 . S
O119 C117 1.235 . S
C120 O126 1.287 . S
C120 O127 1.255 . S
O121 Fe110 1.976 1_655 S
O121 C128 1.287 . S
O122 Fe111 1.996 . S
O122 C128 1.255 1_455 S
O123 Fe113 1.976 . S
O123 C118 1.287 1_455 S
O124 Fe110 1.996 1_655 S
O124 C118 1.255 . S
C125 O129 1.295 . S
C125 O130 1.235 . S
O126 Fe111 1.976 . S
O126 C120 1.287 . S
O127 Fe113 1.996 . S
O127 C120 1.255 . S
C128 O121 1.287 . S
C128 O122 1.255 1_655 S
O129 Fe111 2.002 . S
O129 C125 1.295 . S
O130 Fe113 1.997 . S
O130 C125 1.235 . S
C131 O114 1.295 . S
C131 O115 1.235 . S
Fe132 O134 1.918 . S
Fe132 O137 1.997 . S
Fe132 O138 2.002 . S
Fe132 O143 1.976 . S
Fe132 O146 1.996 . S
Fe133 O134 1.918 . S
Fe133 O141 1.997 1_556 S
Fe133 O144 1.996 . S
Fe133 O148 1.976 . S
Fe133 O151 2.002 1_556 S
O134 Fe132 1.918 . S
O134 Fe133 1.918 . S
O134 Fe135 1.918 . S
Fe135 O134 1.918 . S
Fe135 O136 2.002 . S
Fe135 O145 1.976 . S
Fe135 O149 1.996 . S
Fe135 O152 1.997 . S
O136 Fe135 2.002 . S
O136 C153 1.295 . S
O137 Fe132 1.997 . S
O137 C153 1.235 . S
O138 Fe132 2.002 . S
O138 C139 1.295 . S
C139 O138 1.295 . S
C139 O141 1.235 1_556 S
C140 O145 1.287 . S
C140 O146 1.255 . S
O141 Fe133 1.997 1_554 S
O141 C139 1.235 1_554 S
C142 O148 1.287 . S
C142 O149 1.255 . S
O143 Fe132 1.976 . S
O143 C150 1.287 . S
O144 Fe133 1.996 . S
O144 C150 1.255 . S
O145 Fe135 1.976 . S
O145 C140 1.287 . S
O146 Fe132 1.996 . S
O146 C140 1.255 . S
C147 O151 1.295 1_556 S
C147 O152 1.235 . S
O148 Fe133 1.976 . S
O148 C142 1.287 . S
O149 Fe135 1.996 . S
O149 C142 1.255 . S
C150 O143 1.287 . S
C150 O144 1.255 . S
O151 Fe133 2.002 1_554 S
O151 C147 1.295 1_554 S
O152 Fe135 1.997 . S
O152 C147 1.235 . S
C153 O136 1.295 . S
C153 O137 1.235 . S
Fe154 O156 1.918 . S
Fe154 O159 1.997 . S
Fe154 O160 2.002 . S
Fe154 O165 1.976 . S
Fe154 O168 1.996 . S
Fe155 O156 1.918 . S
Fe155 O163 1.997 1_556 S
Fe155 O166 1.996 1_565 S
Fe155 O170 1.976 1_565 S
Fe155 O173 2.002 1_556 S
O156 Fe154 1.918 . S
O156 Fe155 1.918 . S
O156 Fe157 1.918 . S
Fe157 O156 1.918 . S
Fe157 O158 2.002 . S
Fe157 O167 1.976 . S
Fe157 O171 1.996 . S
Fe157 O174 1.997 . S
O158 Fe157 2.002 . S
O158 C175 1.295 . S
O159 Fe154 1.997 . S
O159 C175 1.235 . S
O160 Fe154 2.002 . S
O160 C161 1.295 . S
C161 O160 1.295 . S
C161 O163 1.235 1_556 S
C162 O167 1.287 . S
C162 O168 1.255 . S
O163 Fe155 1.997 1_554 S
O163 C161 1.235 1_554 S
C164 O170 1.287 . S
C164 O171 1.255 1_545 S
O165 Fe154 1.976 . S
O165 C172 1.287 1_565 S
O166 Fe155 1.996 1_545 S
O166 C172 1.255 . S
O167 Fe157 1.976 . S
O167 C162 1.287 . S
O168 Fe154 1.996 . S
O168 C162 1.255 . S
C169 O173 1.295 1_556 S
C169 O174 1.235 . S
O170 Fe155 1.976 1_545 S
O170 C164 1.287 . S
O171 Fe157 1.996 . S
O171 C164 1.255 1_565 S
C172 O165 1.287 1_545 S
C172 O166 1.255 . S
O173 Fe155 2.002 1_554 S
O173 C169 1.295 1_554 S
O174 Fe157 1.997 . S
O174 C169 1.235 . S
C175 O158 1.295 . S
C175 O159 1.235 . S
Fe176 O178 1.918 . S
Fe176 O181 1.997 . S
Fe176 O182 2.002 . S
Fe176 O187 1.976 . S
Fe176 O190 1.996 . S
Fe177 O178 1.918 . S
Fe177 O185 1.997 . S
Fe177 O188 1.996 . S
Fe177 O192 1.976 . S
Fe177 O195 2.002 . S
O178 Fe176 1.918 . S
O178 Fe177 1.918 . S
O178 Fe179 1.918 . S
Fe179 O178 1.918 . S
Fe179 O180 2.002 1_556 S
Fe179 O189 1.976 1_455 S
Fe179 O193 1.996 1_455 S
Fe179 O196 1.997 1_556 S
O180 Fe179 2.002 1_554 S
O180 C197 1.295 1_554 S
O181 Fe176 1.997 . S
O181 C197 1.235 . S
O182 Fe176 2.002 . S
O182 C183 1.295 . S
C183 O182 1.295 . S
C183 O185 1.235 . S
C184 O189 1.287 . S
C184 O190 1.255 1_655 S
O185 Fe177 1.997 . S
O185 C183 1.235 . S
C186 O192 1.287 1_655 S
C186 O193 1.255 . S
O187 Fe176 1.976 . S
O187 C194 1.287 . S
O188 Fe177 1.996 . S
O188 C194 1.255 . S
O189 Fe179 1.976 1_655 S
O189 C184 1.287 . S
O190 Fe176 1.996 . S
O190 C184 1.255 1_455 S
C191 O195 1.295 . S
C191 O196 1.235 1_556 S
O192 Fe177 1.976 . S
O192 C186 1.287 1_455 S
O193 Fe179 1.996 1_655 S
O193 C186 1.255 . S
C194 O187 1.287 . S
C194 O188 1.255 . S
O195 Fe177 2.002 . S
O195 C191 1.295 . S
O196 Fe179 1.997 1_554 S
O196 C191 1.235 1_554 S
C197 O180 1.295 1_556 S
C197 O181 1.235 . S
Fe198 O200 1.918 . S
Fe198 O203 1.997 . S
Fe198 O204 2.002 . S
Fe198 O209 1.976 . S
Fe198 O212 1.996 . S
Fe199 O200 1.918 . S
Fe199 O207 1.997 . S
Fe199 O210 1.996 . S
Fe199 O214 1.976 . S
Fe199 O217 2.002 . S
O200 Fe198 1.918 . S
O200 Fe199 1.918 . S
O200 Fe201 1.918 . S
Fe201 O200 1.918 . S
Fe201 O202 2.002 . S
Fe201 O211 1.976 . S
Fe201 O215 1.996 . S
Fe201 O218 1.997 . S
O202 Fe201 2.002 . S
O202 C219 1.295 . S
O203 Fe198 1.997 . S
O203 C219 1.235 . S
O204 Fe198 2.002 . S
O204 C205 1.295 . S
C205 O204 1.295 . S
C205 O207 1.235 . S
C206 O211 1.287 . S
C206 O212 1.255 . S
O207 Fe199 1.997 . S
O207 C205 1.235 . S
C208 O214 1.287 . S
C208 O215 1.255 . S
O209 Fe198 1.976 . S
O209 C216 1.287 . S
O210 Fe199 1.996 . S
O210 C216 1.255 . S
O211 Fe201 1.976 . S
O211 C206 1.287 . S
O212 Fe198 1.996 . S
O212 C206 1.255 . S
C213 O217 1.295 . S
C213 O218 1.235 . S
O214 Fe199 1.976 . S
O214 C208 1.287 . S
O215 Fe201 1.996 . S
O215 C208 1.255 . S
C216 O209 1.287 . S
C216 O210 1.255 . S
O217 Fe199 2.002 . S
O217 C213 1.295 . S
O218 Fe201 1.997 . S
O218 C213 1.235 . S
C219 O202 1.295 . S
C219 O203 1.235 . S
Fe220 O222 1.918 . S
Fe220 O225 1.997 . S
Fe220 O226 2.002 . S
Fe220 O231 1.976 . S
Fe220 O234 1.996 . S
Fe221 O222 1.918 . S
Fe221 O229 1.997 . S
Fe221 O232 1.996 1_545 S
Fe221 O236 1.976 1_545 S
Fe221 O239 2.002 . S
O222 Fe220 1.918 . S
O222 Fe221 1.918 . S
O222 Fe223 1.918 . S
Fe223 O222 1.918 . S
Fe223 O224 2.002 . S
Fe223 O233 1.976 . S
Fe223 O237 1.996 . S
Fe223 O240 1.997 . S
O224 Fe223 2.002 . S
O224 C241 1.295 . S
O225 Fe220 1.997 . S
O225 C241 1.235 . S
O226 Fe220 2.002 . S
O226 C227 1.295 . S
C227 O226 1.295 . S
C227 O229 1.235 . S
C228 O233 1.287 . S
C228 O234 1.255 . S
O229 Fe221 1.997 . S
O229 C227 1.235 . S
C230 O236 1.287 . S
C230 O237 1.255 1_565 S
O231 Fe220 1.976 . S
O231 C238 1.287 1_545 S
O232 Fe221 1.996 1_565 S
O232 C238 1.255 . S
O233 Fe223 1.976 . S
O233 C228 1.287 . S
O234 Fe220 1.996 . S
O234 C228 1.255 . S
C235 O239 1.295 . S
C235 O240 1.235 . S
O236 Fe221 1.976 1_565 S
O236 C230 1.287 . S
O237 Fe223 1.996 . S
O237 C230 1.255 1_545 S
C238 O231 1.287 1_565 S
C238 O232 1.255 . S
O239 Fe221 2.002 . S
O239 C235 1.295 . S
O240 Fe223 1.997 . S
O240 C235 1.235 . S
C241 O224 1.295 . S
C241 O225 1.235 . S
Fe242 O244 1.918 . S
Fe242 O247 1.997 . S
Fe242 O248 2.002 . S
Fe242 O253 1.976 1_655 S
Fe242 O256 1.996 1_655 S
Fe243 O244 1.918 . S
Fe243 O251 1.997 . S
Fe243 O254 1.996 . S
Fe243 O258 1.976 . S
Fe243 O261 2.002 . S
O244 Fe242 1.918 . S
O244 Fe243 1.918 . S
O244 Fe245 1.918 . S
Fe245 O244 1.918 . S
Fe245 O246 2.002 . S
Fe245 O255 1.976 . S
Fe245 O259 1.996 . S
Fe245 O262 1.997 . S
O246 Fe245 2.002 . S
O246 C263 1.295 . S
O247 Fe242 1.997 . S
O247 C263 1.235 . S
O248 Fe242 2.002 . S
O248 C249 1.295 . S
C249 O248 1.295 . S
C249 O251 1.235 . S
C250 O255 1.287 1_455 S
C250 O256 1.255 . S
O251 Fe243 1.997 . S
O251 C249 1.235 . S
C252 O258 1.287 . S
C252 O259 1.255 . S
O253 Fe242 1.976 1_455 S
O253 C260 1.287 . S
O254 Fe243 1.996 . S
O254 C260 1.255 1_655 S
O255 Fe245 1.976 . S
O255 C250 1.287 1_655 S
O256 Fe242 1.996 1_455 S
O256 C250 1.255 . S
C257 O261 1.295 . S
C257 O262 1.235 . S
O258 Fe243 1.976 . S
O258 C252 1.287 . S
O259 Fe245 1.996 . S
O259 C252 1.255 . S
C260 O253 1.287 . S
C260 O254 1.255 1_455 S
O261 Fe243 2.002 . S
O261 C257 1.295 . S
O262 Fe245 1.997 . S
O262 C257 1.235 . S
C263 O246 1.295 . S
C263 O247 1.235 . S
Fe264 O266 1.918 . S
Fe264 O269 1.997 . S
Fe264 O270 2.002 . S
Fe264 O275 1.976 . S
Fe264 O278 1.996 . S
Fe265 O266 1.918 . S
Fe265 O273 1.997 . S
Fe265 O276 1.996 . S
Fe265 O280 1.976 . S
Fe265 O283 2.002 . S
O266 Fe264 1.918 . S
O266 Fe265 1.918 . S
O266 Fe267 1.918 . S
Fe267 O266 1.918 . S
Fe267 O268 2.002 . S
Fe267 O277 1.976 . S
Fe267 O281 1.996 . S
Fe267 O284 1.997 . S
O268 Fe267 2.002 . S
O268 C285 1.295 . S
O269 Fe264 1.997 . S
O269 C285 1.235 . S
O270 Fe264 2.002 . S
O270 C271 1.295 . S
C271 O270 1.295 . S
C271 O273 1.235 . S
C272 O277 1.287 . S
C272 O278 1.255 . S
O273 Fe265 1.997 . S
O273 C271 1.235 . S
C274 O280 1.287 . S
C274 O281 1.255 . S
O275 Fe264 1.976 . S
O275 C282 1.287 . S
O276 Fe265 1.996 . S
O276 C282 1.255 . S
O277 Fe267 1.976 . S
O277 C272 1.287 . S
O278 Fe264 1.996 . S
O278 C272 1.255 . S
C279 O283 1.295 . S
C279 O284 1.235 . S
O280 Fe265 1.976 . S
O280 C274 1.287 . S
O281 Fe267 1.996 . S
O281 C274 1.255 . S
C282 O275 1.287 . S
C282 O276 1.255 . S
O283 Fe265 2.002 . S
O283 C279 1.295 . S
O284 Fe267 1.997 . S
O284 C279 1.235 . S
C285 O268 1.295 . S
C285 O269 1.235 . S
Fe286 O288 1.918 . S
Fe286 O291 1.997 . S
Fe286 O292 2.002 . S
Fe286 O297 1.976 . S
Fe286 O300 1.996 . S
Fe287 O288 1.918 . S
Fe287 O295 1.997 . S
Fe287 O298 1.996 . S
Fe287 O302 1.976 . S
Fe287 O305 2.002 . S
O288 Fe286 1.918 . S
O288 Fe287 1.918 . S
O288 Fe289 1.918 . S
Fe289 O288 1.918 . S
Fe289 O290 2.002 . S
Fe289 O299 1.976 . S
Fe289 O303 1.996 . S
Fe289 O306 1.997 . S
O290 Fe289 2.002 . S
O290 C307 1.295 . S
O291 Fe286 1.997 . S
O291 C307 1.235 . S
O292 Fe286 2.002 . S
O292 C293 1.295 . S
C293 O292 1.295 . S
C293 O295 1.235 . S
C294 O299 1.287 . S
C294 O300 1.255 . S
O295 Fe287 1.997 . S
O295 C293 1.235 . S
C296 O302 1.287 . S
C296 O303 1.255 . S
O297 Fe286 1.976 . S
O297 C304 1.287 . S
O298 Fe287 1.996 . S
O298 C304 1.255 . S
O299 Fe289 1.976 . S
O299 C294 1.287 . S
O300 Fe286 1.996 . S
O300 C294 1.255 . S
C301 O305 1.295 . S
C301 O306 1.235 . S
O302 Fe287 1.976 . S
O302 C296 1.287 . S
O303 Fe289 1.996 . S
O303 C296 1.255 . S
C304 O297 1.287 . S
C304 O298 1.255 . S
O305 Fe287 2.002 . S
O305 C301 1.295 . S
O306 Fe289 1.997 . S
O306 C301 1.235 . S
C307 O290 1.295 . S
C307 O291 1.235 . S
Fe308 O310 1.918 . S
Fe308 O313 1.997 . S
Fe308 O314 2.002 . S
Fe308 O319 1.976 . S
Fe308 O322 1.996 . S
Fe309 O310 1.918 . S
Fe309 O317 1.997 . S
Fe309 O320 1.996 . S
Fe309 O324 1.976 . S
Fe309 O327 2.002 . S
O310 Fe308 1.918 . S
O310 Fe309 1.918 . S
O310 Fe311 1.918 . S
Fe311 O310 1.918 . S
Fe311 O312 2.002 . S
Fe311 O321 1.976 . S
Fe311 O325 1.996 . S
Fe311 O328 1.997 . S
O312 Fe311 2.002 . S
O312 C329 1.295 . S
O313 Fe308 1.997 . S
O313 C329 1.235 . S
O314 Fe308 2.002 . S
O314 C315 1.295 . S
C315 O314 1.295 . S
C315 O317 1.235 . S
C316 O321 1.287 . S
C316 O322 1.255 . S
O317 Fe309 1.997 . S
O317 C315 1.235 . S
C318 O324 1.287 . S
C318 O325 1.255 . S
O319 Fe308 1.976 . S
O319 C326 1.287 . S
O320 Fe309 1.996 . S
O320 C326 1.255 . S
O321 Fe311 1.976 . S
O321 C316 1.287 . S
O322 Fe308 1.996 . S
O322 C316 1.255 . S
C323 O327 1.295 . S
C323 O328 1.235 . S
O324 Fe309 1.976 . S
O324 C318 1.287 . S
O325 Fe311 1.996 . S
O325 C318 1.255 . S
C326 O319 1.287 . S
C326 O320 1.255 . S
O327 Fe309 2.002 . S
O327 C323 1.295 . S
O328 Fe311 1.997 . S
O328 C323 1.235 . S
C329 O312 1.295 . S
C329 O313 1.235 . S
Fe330 O332 1.918 . S
Fe330 O335 1.997 . S
Fe330 O336 2.002 . S
Fe330 O341 1.976 . S
Fe330 O344 1.996 . S
Fe331 O332 1.918 . S
Fe331 O339 1.997 . S
Fe331 O342 1.996 . S
Fe331 O346 1.976 . S
Fe331 O349 2.002 . S
O332 Fe330 1.918 . S
O332 Fe331 1.918 . S
O332 Fe333 1.918 . S
Fe333 O332 1.918 . S
Fe333 O334 2.002 . S
Fe333 O343 1.976 . S
Fe333 O347 1.996 . S
Fe333 O350 1.997 . S
O334 Fe333 2.002 . S
O334 C351 1.295 . S
O335 Fe330 1.997 . S
O335 C351 1.235 . S
O336 Fe330 2.002 . S
O336 C337 1.295 . S
C337 O336 1.295 . S
C337 O339 1.235 . S
C338 O343 1.287 . S
C338 O344 1.255 . S
O339 Fe331 1.997 . S
O339 C337 1.235 . S
C340 O346 1.287 . S
C340 O347 1.255 . S
O341 Fe330 1.976 . S
O341 C348 1.287 . S
O342 Fe331 1.996 . S
O342 C348 1.255 . S
O343 Fe333 1.976 . S
O343 C338 1.287 . S
O344 Fe330 1.996 . S
O344 C338 1.255 . S
C345 O349 1.295 . S
C345 O350 1.235 . S
O346 Fe331 1.976 . S
O346 C340 1.287 . S
O347 Fe333 1.996 . S
O347 C340 1.255 . S
C348 O341 1.287 . S
C348 O342 1.255 . S
O349 Fe331 2.002 . S
O349 C345 1.295 . S
O350 Fe333 1.997 . S
O350 C345 1.235 . S
C351 O334 1.295 . S
C351 O335 1.235 . S
Fe352 O354 1.918 . S
Fe352 O357 1.997 . S
Fe352 O358 2.002 . S
Fe352 O363 1.976 . S
Fe352 O366 1.996 . S
Fe353 O354 1.918 . S
Fe353 O361 1.997 . S
Fe353 O364 1.996 . S
Fe353 O368 1.976 . S
Fe353 O371 2.002 . S
O354 Fe352 1.918 . S
O354 Fe353 1.918 . S
O354 Fe355 1.918 . S
Fe355 O354 1.918 . S
Fe355 O356 2.002 . S
Fe355 O365 1.976 . S
Fe355 O369 1.996 . S
Fe355 O372 1.997 . S
O356 Fe355 2.002 . S
O356 C373 1.295 . S
O357 Fe352 1.997 . S
O357 C373 1.235 . S
O358 Fe352 2.002 . S
O358 C359 1.295 . S
C359 O358 1.295 . S
C359 O361 1.235 . S
C360 O365 1.287 . S
C360 O366 1.255 . S
O361 Fe353 1.997 . S
O361 C359 1.235 . S
C362 O368 1.287 . S
C362 O369 1.255 . S
O363 Fe352 1.976 . S
O363 C370 1.287 . S
O364 Fe353 1.996 . S
O364 C370 1.255 . S
O365 Fe355 1.976 . S
O365 C360 1.287 . S
O366 Fe352 1.996 . S
O366 C360 1.255 . S
C367 O371 1.295 . S
C367 O372 1.235 . S
O368 Fe353 1.976 . S
O368 C362 1.287 . S
O369 Fe355 1.996 . S
O369 C362 1.255 . S
C370 O363 1.287 . S
C370 O364 1.255 . S
O371 Fe353 2.002 . S
O371 C367 1.295 . S
O372 Fe355 1.997 . S
O372 C367 1.235 . S
C373 O356 1.295 . S
C373 O357 1.235 . S
Fe374 O376 1.918 . S
Fe374 O379 1.997 . S
Fe374 O380 2.002 . S
Fe374 O385 1.976 . S
Fe374 O388 1.996 . S
Fe375 O376 1.918 . S
Fe375 O383 1.997 . S
Fe375 O386 1.996 . S
Fe375 O390 1.976 . S
Fe375 O393 2.002 . S
O376 Fe374 1.918 . S
O376 Fe375 1.918 . S
O376 Fe377 1.918 . S
Fe377 O376 1.918 . S
Fe377 O378 2.002 . S
Fe377 O387 1.976 . S
Fe377 O391 1.996 . S
Fe377 O394 1.997 . S
O378 Fe377 2.002 . S
O378 C395 1.295 . S
O379 Fe374 1.997 . S
O379 C395 1.235 . S
O380 Fe374 2.002 . S
O380 C381 1.295 . S
C381 O380 1.295 . S
C381 O383 1.235 . S
C382 O387 1.287 . S
C382 O388 1.255 . S
O383 Fe375 1.997 . S
O383 C381 1.235 . S
C384 O390 1.287 . S
C384 O391 1.255 . S
O385 Fe374 1.976 . S
O385 C392 1.287 . S
O386 Fe375 1.996 . S
O386 C392 1.255 . S
O387 Fe377 1.976 . S
O387 C382 1.287 . S
O388 Fe374 1.996 . S
O388 C382 1.255 . S
C389 O393 1.295 . S
C389 O394 1.235 . S
O390 Fe375 1.976 . S
O390 C384 1.287 . S
O391 Fe377 1.996 . S
O391 C384 1.255 . S
C392 O385 1.287 . S
C392 O386 1.255 . S
O393 Fe375 2.002 . S
O393 C389 1.295 . S
O394 Fe377 1.997 . S
O394 C389 1.235 . S
C395 O378 1.295 . S
C395 O379 1.235 . S
Fe396 O398 1.918 . S
Fe396 O401 1.997 . S
Fe396 O402 2.002 . S
Fe396 O407 1.976 . S
Fe396 O410 1.996 . S
Fe397 O398 1.918 . S
Fe397 O405 1.997 . S
Fe397 O408 1.996 . S
Fe397 O412 1.976 . S
Fe397 O415 2.002 . S
O398 Fe396 1.918 . S
O398 Fe397 1.918 . S
O398 Fe399 1.918 . S
Fe399 O398 1.918 . S
Fe399 O400 2.002 . S
Fe399 O409 1.976 . S
Fe399 O413 1.996 . S
Fe399 O416 1.997 . S
O400 Fe399 2.002 . S
O400 C417 1.295 . S
O401 Fe396 1.997 . S
O401 C417 1.235 . S
O402 Fe396 2.002 . S
O402 C403 1.295 . S
C403 O402 1.295 . S
C403 O405 1.235 . S
C404 O409 1.287 . S
C404 O410 1.255 . S
O405 Fe397 1.997 . S
O405 C403 1.235 . S
C406 O412 1.287 . S
C406 O413 1.255 . S
O407 Fe396 1.976 . S
O407 C414 1.287 . S
O408 Fe397 1.996 . S
O408 C414 1.255 . S
O409 Fe399 1.976 . S
O409 C404 1.287 . S
O410 Fe396 1.996 . S
O410 C404 1.255 . S
C411 O415 1.295 . S
C411 O416 1.235 . S
O412 Fe397 1.976 . S
O412 C406 1.287 . S
O413 Fe399 1.996 . S
O413 C406 1.255 . S
C414 O407 1.287 . S
C414 O408 1.255 . S
O415 Fe397 2.002 . S
O415 C411 1.295 . S
O416 Fe399 1.997 . S
O416 C411 1.235 . S
C417 O400 1.295 . S
C417 O401 1.235 . S
Fe418 O420 1.918 . S
Fe418 O423 1.997 . S
Fe418 O424 2.002 . S
Fe418 O429 1.976 . S
Fe418 O432 1.996 . S
Fe419 O420 1.918 . S
Fe419 O427 1.997 . S
Fe419 O430 1.996 . S
Fe419 O434 1.976 . S
Fe419 O437 2.002 . S
O420 Fe418 1.918 . S
O420 Fe419 1.918 . S
O420 Fe421 1.918 . S
Fe421 O420 1.918 . S
Fe421 O422 2.002 . S
Fe421 O431 1.976 . S
Fe421 O435 1.996 . S
Fe421 O438 1.997 . S
O422 Fe421 2.002 . S
O422 C439 1.295 . S
O423 Fe418 1.997 . S
O423 C439 1.235 . S
O424 Fe418 2.002 . S
O424 C425 1.295 . S
C425 O424 1.295 . S
C425 O427 1.235 . S
C426 O431 1.287 . S
C426 O432 1.255 . S
O427 Fe419 1.997 . S
O427 C425 1.235 . S
C428 O434 1.287 . S
C428 O435 1.255 . S
O429 Fe418 1.976 . S
O429 C436 1.287 . S
O430 Fe419 1.996 . S
O430 C436 1.255 . S
O431 Fe421 1.976 . S
O431 C426 1.287 . S
O432 Fe418 1.996 . S
O432 C426 1.255 . S
C433 O437 1.295 . S
C433 O438 1.235 . S
O434 Fe419 1.976 . S
O434 C428 1.287 . S
O435 Fe421 1.996 . S
O435 C428 1.255 . S
C436 O429 1.287 . S
C436 O430 1.255 . S
O437 Fe419 2.002 . S
O437 C433 1.295 . S
O438 Fe421 1.997 . S
O438 C433 1.235 . S
C439 O422 1.295 . S
C439 O423 1.235 . S
Fe440 O442 1.918 . S
Fe440 O445 1.997 . S
Fe440 O446 2.002 . S
Fe440 O451 1.976 . S
Fe440 O454 1.996 . S
Fe441 O442 1.918 . S
Fe441 O449 1.997 . S
Fe441 O452 1.996 . S
Fe441 O456 1.976 . S
Fe441 O459 2.002 . S
O442 Fe440 1.918 . S
O442 Fe441 1.918 . S
O442 Fe443 1.918 . S
Fe443 O442 1.918 . S
Fe443 O444 2.002 . S
Fe443 O453 1.976 . S
Fe443 O457 1.996 . S
Fe443 O460 1.997 . S
O444 Fe443 2.002 . S
O444 C461 1.295 . S
O445 Fe440 1.997 . S
O445 C461 1.235 . S
O446 Fe440 2.002 . S
O446 C447 1.295 . S
C447 O446 1.295 . S
C447 O449 1.235 . S
C448 O453 1.287 . S
C448 O454 1.255 . S
O449 Fe441 1.997 . S
O449 C447 1.235 . S
C450 O456 1.287 . S
C450 O457 1.255 . S
O451 Fe440 1.976 . S
O451 C458 1.287 . S
O452 Fe441 1.996 . S
O452 C458 1.255 . S
O453 Fe443 1.976 . S
O453 C448 1.287 . S
O454 Fe440 1.996 . S
O454 C448 1.255 . S
C455 O459 1.295 . S
C455 O460 1.235 . S
O456 Fe441 1.976 . S
O456 C450 1.287 . S
O457 Fe443 1.996 . S
O457 C450 1.255 . S
C458 O451 1.287 . S
C458 O452 1.255 . S
O459 Fe441 2.002 . S
O459 C455 1.295 . S
O460 Fe443 1.997 . S
O460 C455 1.235 . S
C461 O444 1.295 . S
C461 O445 1.235 . S
Fe462 O464 1.918 . S
Fe462 O467 1.997 . S
Fe462 O468 2.002 . S
Fe462 O473 1.976 . S
Fe462 O476 1.996 . S
Fe463 O464 1.918 . S
Fe463 O471 1.997 . S
Fe463 O474 1.996 . S
Fe463 O478 1.976 . S
Fe463 O481 2.002 . S
O464 Fe462 1.918 . S
O464 Fe463 1.918 . S
O464 Fe465 1.918 . S
Fe465 O464 1.918 . S
Fe465 O466 2.002 . S
Fe465 O475 1.976 . S
Fe465 O479 1.996 . S
Fe465 O482 1.997 . S
O466 Fe465 2.002 . S
O466 C483 1.295 . S
O467 Fe462 1.997 . S
O467 C483 1.235 . S
O468 Fe462 2.002 . S
O468 C469 1.295 . S
C469 O468 1.295 . S
C469 O471 1.235 . S
C470 O475 1.287 . S
C470 O476 1.255 . S
O471 Fe463 1.997 . S
O471 C469 1.235 . S
C472 O478 1.287 1_554 S
C472 O479 1.255 1_554 S
O473 Fe462 1.976 . S
O473 C480 1.287 . S
O474 Fe463 1.996 . S
O474 C480 1.255 . S
O475 Fe465 1.976 . S
O475 C470 1.287 . S
O476 Fe462 1.996 . S
O476 C470 1.255 . S
C477 O481 1.295 . S
C477 O482 1.235 . S
O478 Fe463 1.976 . S
O478 C472 1.287 1_556 S
O479 Fe465 1.996 . S
O479 C472 1.255 1_556 S
C480 O473 1.287 . S
C480 O474 1.255 . S
O481 Fe463 2.002 . S
O481 C477 1.295 . S
O482 Fe465 1.997 . S
O482 C477 1.235 . S
C483 O466 1.295 . S
C483 O467 1.235 . S
Fe484 O486 1.918 . S
Fe484 O489 1.997 . S
Fe484 O490 2.002 . S
Fe484 O495 1.976 . S
Fe484 O498 1.996 . S
Fe485 O486 1.918 . S
Fe485 O493 1.997 . S
Fe485 O496 1.996 . S
Fe485 O500 1.976 . S
Fe485 O503 2.002 . S
O486 Fe484 1.918 . S
O486 Fe485 1.918 . S
O486 Fe487 1.918 . S
Fe487 O486 1.918 . S
Fe487 O488 2.002 . S
Fe487 O497 1.976 . S
Fe487 O501 1.996 . S
Fe487 O504 1.997 . S
O488 Fe487 2.002 . S
O488 C505 1.295 . S
O489 Fe484 1.997 . S
O489 C505 1.235 . S
O490 Fe484 2.002 . S
O490 C491 1.295 . S
C491 O490 1.295 . S
C491 O493 1.235 . S
C492 O497 1.287 1_554 S
C492 O498 1.255 1_554 S
O493 Fe485 1.997 . S
O493 C491 1.235 . S
C494 O500 1.287 . S
C494 O501 1.255 . S
O495 Fe484 1.976 . S
O495 C502 1.287 . S
O496 Fe485 1.996 . S
O496 C502 1.255 . S
O497 Fe487 1.976 . S
O497 C492 1.287 1_556 S
O498 Fe484 1.996 . S
O498 C492 1.255 1_556 S
C499 O503 1.295 . S
C499 O504 1.235 . S
O500 Fe485 1.976 . S
O500 C494 1.287 . S
O501 Fe487 1.996 . S
O501 C494 1.255 . S
C502 O495 1.287 . S
C502 O496 1.255 . S
O503 Fe485 2.002 . S
O503 C499 1.295 . S
O504 Fe487 1.997 . S
O504 C499 1.235 . S
C505 O488 1.295 . S
C505 O489 1.235 . S
Fe506 O508 1.918 . S
Fe506 O511 1.997 . S
Fe506 O512 2.002 . S
Fe506 O517 1.976 . S
Fe506 O520 1.996 . S
Fe507 O508 1.918 . S
Fe507 O515 1.997 . S
Fe507 O518 1.996 . S
Fe507 O522 1.976 . S
Fe507 O525 2.002 . S
O508 Fe506 1.918 . S
O508 Fe507 1.918 . S
O508 Fe509 1.918 . S
Fe509 O508 1.918 . S
Fe509 O510 2.002 . S
Fe509 O519 1.976 . S
Fe509 O523 1.996 . S
Fe509 O526 1.997 . S
O510 Fe509 2.002 . S
O510 C527 1.295 . S
O511 Fe506 1.997 . S
O511 C527 1.235 . S
O512 Fe506 2.002 . S
O512 C513 1.295 . S
C513 O512 1.295 . S
C513 O515 1.235 . S
C514 O519 1.287 . S
C514 O520 1.255 . S
O515 Fe507 1.997 . S
O515 C513 1.235 . S
C516 O522 1.287 1_554 S
C516 O523 1.255 1_554 S
O517 Fe506 1.976 . S
O517 C524 1.287 . S
O518 Fe507 1.996 . S
O518 C524 1.255 . S
O519 Fe509 1.976 . S
O519 C514 1.287 . S
O520 Fe506 1.996 . S
O520 C514 1.255 . S
C521 O525 1.295 . S
C521 O526 1.235 . S
O522 Fe507 1.976 . S
O522 C516 1.287 1_556 S
O523 Fe509 1.996 . S
O523 C516 1.255 1_556 S
C524 O517 1.287 . S
C524 O518 1.255 . S
O525 Fe507 2.002 . S
O525 C521 1.295 . S
O526 Fe509 1.997 . S
O526 C521 1.235 . S
C527 O510 1.295 . S
C527 O511 1.235 . S
Fe528 O530 1.918 . S
Fe528 O533 1.997 . S
Fe528 O534 2.002 . S
Fe528 O539 1.976 . S
Fe528 O542 1.996 . S
Fe529 O530 1.918 . S
Fe529 O537 1.997 . S
Fe529 O540 1.996 . S
Fe529 O544 1.976 . S
Fe529 O547 2.002 . S
O530 Fe528 1.918 . S
O530 Fe529 1.918 . S
O530 Fe531 1.918 . S
Fe531 O530 1.918 . S
Fe531 O532 2.002 . S
Fe531 O541 1.976 . S
Fe531 O545 1.996 . S
Fe531 O548 1.997 . S
O532 Fe531 2.002 . S
O532 C549 1.295 . S
O533 Fe528 1.997 . S
O533 C549 1.235 . S
O534 Fe528 2.002 . S
O534 C535 1.295 . S
C535 O534 1.295 . S
C535 O537 1.235 . S
C536 O541 1.287 . S
C536 O542 1.255 . S
O537 Fe529 1.997 . S
O537 C535 1.235 . S
C538 O544 1.287 . S
C538 O545 1.255 . S
O539 Fe528 1.976 . S
O539 C546 1.287 . S
O540 Fe529 1.996 . S
O540 C546 1.255 . S
O541 Fe531 1.976 . S
O541 C536 1.287 . S
O542 Fe528 1.996 . S
O542 C536 1.255 . S
C543 O547 1.295 . S
C543 O548 1.235 . S
O544 Fe529 1.976 . S
O544 C538 1.287 . S
O545 Fe531 1.996 . S
O545 C538 1.255 . S
C546 O539 1.287 . S
C546 O540 1.255 . S
O547 Fe529 2.002 . S
O547 C543 1.295 . S
O548 Fe531 1.997 . S
O548 C543 1.235 . S
C549 O532 1.295 . S
C549 O533 1.235 . S
Fe550 O552 1.918 . S
Fe550 O555 1.997 . S
Fe550 O556 2.002 . S
Fe550 O561 1.976 . S
Fe550 O564 1.996 . S
Fe551 O552 1.918 . S
Fe551 O559 1.997 . S
Fe551 O562 1.996 . S
Fe551 O566 1.976 . S
Fe551 O569 2.002 . S
O552 Fe550 1.918 . S
O552 Fe551 1.918 . S
O552 Fe553 1.918 . S
Fe553 O552 1.918 . S
Fe553 O554 2.002 . S
Fe553 O563 1.976 . S
Fe553 O567 1.996 . S
Fe553 O570 1.997 . S
O554 Fe553 2.002 . S
O554 C571 1.295 . S
O555 Fe550 1.997 . S
O555 C571 1.235 . S
O556 Fe550 2.002 . S
O556 C557 1.295 . S
C557 O556 1.295 . S
C557 O559 1.235 . S
C558 O563 1.287 . S
C558 O564 1.255 . S
O559 Fe551 1.997 . S
O559 C557 1.235 . S
C560 O566 1.287 . S
C560 O567 1.255 . S
O561 Fe550 1.976 . S
O561 C568 1.287 . S
O562 Fe551 1.996 . S
O562 C568 1.255 . S
O563 Fe553 1.976 . S
O563 C558 1.287 . S
O564 Fe550 1.996 . S
O564 C558 1.255 . S
C565 O569 1.295 . S
C565 O570 1.235 . S
O566 Fe551 1.976 . S
O566 C560 1.287 . S
O567 Fe553 1.996 . S
O567 C560 1.255 . S
C568 O561 1.287 . S
C568 O562 1.255 . S
O569 Fe551 2.002 . S
O569 C565 1.295 . S
O570 Fe553 1.997 . S
O570 C565 1.235 . S
C571 O554 1.295 . S
C571 O555 1.235 . S
Fe572 O574 1.918 . S
Fe572 O577 1.997 . S
Fe572 O578 2.002 . S
Fe572 O583 1.976 . S
Fe572 O586 1.996 . S
Fe573 O574 1.918 . S
Fe573 O581 1.997 . S
Fe573 O584 1.996 . S
Fe573 O588 1.976 . S
Fe573 O591 2.002 . S
O574 Fe572 1.918 . S
O574 Fe573 1.918 . S
O574 Fe575 1.918 . S
Fe575 O574 1.918 . S
Fe575 O576 2.002 . S
Fe575 O585 1.976 . S
Fe575 O589 1.996 . S
Fe575 O592 1.997 . S
O576 Fe575 2.002 . S
O576 C593 1.295 . S
O577 Fe572 1.997 . S
O577 C593 1.235 . S
O578 Fe572 2.002 . S
O578 C579 1.295 . S
C579 O578 1.295 . S
C579 O581 1.235 . S
C580 O585 1.287 . S
C580 O586 1.255 . S
O581 Fe573 1.997 . S
O581 C579 1.235 . S
C582 O588 1.287 . S
C582 O589 1.255 . S
O583 Fe572 1.976 . S
O583 C590 1.287 . S
O584 Fe573 1.996 . S
O584 C590 1.255 . S
O585 Fe575 1.976 . S
O585 C580 1.287 . S
O586 Fe572 1.996 . S
O586 C580 1.255 . S
C587 O591 1.295 . S
C587 O592 1.235 . S
O588 Fe573 1.976 . S
O588 C582 1.287 . S
O589 Fe575 1.996 . S
O589 C582 1.255 . S
C590 O583 1.287 . S
C590 O584 1.255 . S
O591 Fe573 2.002 . S
O591 C587 1.295 . S
O592 Fe575 1.997 . S
O592 C587 1.235 . S
C593 O576 1.295 . S
C593 O577 1.235 . S
Fe594 O596 1.918 . S
Fe594 O599 1.997 . S
Fe594 O600 2.002 . S
Fe594 O605 1.976 . S
Fe594 O608 1.996 . S
Fe595 O596 1.918 . S
Fe595 O603 1.997 . S
Fe595 O606 1.996 . S
Fe595 O610 1.976 . S
Fe595 O613 2.002 . S
O596 Fe594 1.918 . S
O596 Fe595 1.918 . S
O596 Fe597 1.918 . S
Fe597 O596 1.918 . S
Fe597 O598 2.002 . S
Fe597 O607 1.976 . S
Fe597 O611 1.996 . S
Fe597 O614 1.997 . S
O598 Fe597 2.002 . S
O598 C615 1.295 . S
O599 Fe594 1.997 . S
O599 C615 1.235 . S
O600 Fe594 2.002 . S
O600 C601 1.295 . S
C601 O600 1.295 . S
C601 O603 1.235 . S
C602 O607 1.287 . S
C602 O608 1.255 . S
O603 Fe595 1.997 . S
O603 C601 1.235 . S
C604 O610 1.287 1_556 S
C604 O611 1.255 1_556 S
O605 Fe594 1.976 . S
O605 C612 1.287 . S
O606 Fe595 1.996 . S
O606 C612 1.255 . S
O607 Fe597 1.976 . S
O607 C602 1.287 . S
O608 Fe594 1.996 . S
O608 C602 1.255 . S
C609 O613 1.295 . S
C609 O614 1.235 . S
O610 Fe595 1.976 . S
O610 C604 1.287 1_554 S
O611 Fe597 1.996 . S
O611 C604 1.255 1_554 S
C612 O605 1.287 . S
C612 O606 1.255 . S
O613 Fe595 2.002 . S
O613 C609 1.295 . S
O614 Fe597 1.997 . S
O614 C609 1.235 . S
C615 O598 1.295 . S
C615 O599 1.235 . S
Fe616 O618 1.918 . S
Fe616 O621 1.997 . S
Fe616 O622 2.002 . S
Fe616 O627 1.976 . S
Fe616 O630 1.996 . S
Fe617 O618 1.918 . S
Fe617 O625 1.997 . S
Fe617 O628 1.996 . S
Fe617 O632 1.976 . S
Fe617 O635 2.002 . S
O618 Fe616 1.918 . S
O618 Fe617 1.918 . S
O618 Fe619 1.918 . S
Fe619 O618 1.918 . S
Fe619 O620 2.002 . S
Fe619 O629 1.976 . S
Fe619 O633 1.996 . S
Fe619 O636 1.997 . S
O620 Fe619 2.002 . S
O620 C637 1.295 . S
O621 Fe616 1.997 . S
O621 C637 1.235 . S
O622 Fe616 2.002 . S
O622 C623 1.295 . S
C623 O622 1.295 . S
C623 O625 1.235 . S
C624 O629 1.287 . S
C624 O630 1.255 . S
O625 Fe617 1.997 . S
O625 C623 1.235 . S
C626 O632 1.287 1_556 S
C626 O633 1.255 1_556 S
O627 Fe616 1.976 . S
O627 C634 1.287 . S
O628 Fe617 1.996 . S
O628 C634 1.255 . S
O629 Fe619 1.976 . S
O629 C624 1.287 . S
O630 Fe616 1.996 . S
O630 C624 1.255 . S
C631 O635 1.295 . S
C631 O636 1.235 . S
O632 Fe617 1.976 . S
O632 C626 1.287 1_554 S
O633 Fe619 1.996 . S
O633 C626 1.255 1_554 S
C634 O627 1.287 . S
C634 O628 1.255 . S
O635 Fe617 2.002 . S
O635 C631 1.295 . S
O636 Fe619 1.997 . S
O636 C631 1.235 . S
C637 O620 1.295 . S
C637 O621 1.235 . S
Fe638 O640 1.918 . S
Fe638 O643 1.997 . S
Fe638 O644 2.002 . S
Fe638 O649 1.976 . S
Fe638 O652 1.996 . S
Fe639 O640 1.918 . S
Fe639 O647 1.997 . S
Fe639 O650 1.996 . S
Fe639 O654 1.976 . S
Fe639 O657 2.002 . S
O640 Fe638 1.918 . S
O640 Fe639 1.918 . S
O640 Fe641 1.918 . S
Fe641 O640 1.918 . S
Fe641 O642 2.002 . S
Fe641 O651 1.976 . S
Fe641 O655 1.996 . S
Fe641 O658 1.997 . S
O642 Fe641 2.002 . S
O642 C659 1.295 . S
O643 Fe638 1.997 . S
O643 C659 1.235 . S
O644 Fe638 2.002 . S
O644 C645 1.295 . S
C645 O644 1.295 . S
C645 O647 1.235 . S
C646 O651 1.287 1_556 S
C646 O652 1.255 1_556 S
O647 Fe639 1.997 . S
O647 C645 1.235 . S
C648 O654 1.287 . S
C648 O655 1.255 . S
O649 Fe638 1.976 . S
O649 C656 1.287 . S
O650 Fe639 1.996 . S
O650 C656 1.255 . S
O651 Fe641 1.976 . S
O651 C646 1.287 1_554 S
O652 Fe638 1.996 . S
O652 C646 1.255 1_554 S
C653 O657 1.295 . S
C653 O658 1.235 . S
O654 Fe639 1.976 . S
O654 C648 1.287 . S
O655 Fe641 1.996 . S
O655 C648 1.255 . S
C656 O649 1.287 . S
C656 O650 1.255 . S
O657 Fe639 2.002 . S
O657 C653 1.295 . S
O658 Fe641 1.997 . S
O658 C653 1.235 . S
C659 O642 1.295 . S
C659 O643 1.235 . S
Fe660 O662 1.918 . S
Fe660 O665 1.997 . S
Fe660 O666 2.002 . S
Fe660 O671 1.976 . S
Fe660 O674 1.996 . S
Fe661 O662 1.918 . S
Fe661 O669 1.997 . S
Fe661 O672 1.996 . S
Fe661 O676 1.976 . S
Fe661 O679 2.002 . S
O662 Fe660 1.918 . S
O662 Fe661 1.918 . S
O662 Fe663 1.918 . S
Fe663 O662 1.918 . S
Fe663 O664 2.002 . S
Fe663 O673 1.976 . S
Fe663 O677 1.996 . S
Fe663 O680 1.997 . S
O664 Fe663 2.002 . S
O664 C681 1.295 . S
O665 Fe660 1.997 . S
O665 C681 1.235 . S
O666 Fe660 2.002 . S
O666 C667 1.295 . S
C667 O666 1.295 . S
C667 O669 1.235 . S
C668 O673 1.287 . S
C668 O674 1.255 . S
O669 Fe661 1.997 . S
O669 C667 1.235 . S
C670 O676 1.287 . S
C670 O677 1.255 . S
O671 Fe660 1.976 . S
O671 C678 1.287 . S
O672 Fe661 1.996 . S
O672 C678 1.255 . S
O673 Fe663 1.976 . S
O673 C668 1.287 . S
O674 Fe660 1.996 . S
O674 C668 1.255 . S
C675 O679 1.295 . S
C675 O680 1.235 . S
O676 Fe661 1.976 . S
O676 C670 1.287 . S
O677 Fe663 1.996 . S
O677 C670 1.255 . S
C678 O671 1.287 . S
C678 O672 1.255 . S
O679 Fe661 2.002 . S
O679 C675 1.295 . S
O680 Fe663 1.997 . S
O680 C675 1.235 . S
C681 O664 1.295 . S
C681 O665 1.235 . S
Fe682 O684 1.918 . S
Fe682 O687 1.997 . S
Fe682 O688 2.002 . S
Fe682 O693 1.976 . S
Fe682 O696 1.996 . S
Fe683 O684 1.918 . S
Fe683 O691 1.997 . S
Fe683 O694 1.996 . S
Fe683 O698 1.976 . S
Fe683 O701 2.002 . S
O684 Fe682 1.918 . S
O684 Fe683 1.918 . S
O684 Fe685 1.918 . S
Fe685 O684 1.918 . S
Fe685 O686 2.002 . S
Fe685 O695 1.976 . S
Fe685 O699 1.996 . S
Fe685 O702 1.997 . S
O686 Fe685 2.002 . S
O686 C703 1.295 . S
O687 Fe682 1.997 . S
O687 C703 1.235 . S
O688 Fe682 2.002 . S
O688 C689 1.295 . S
C689 O688 1.295 . S
C689 O691 1.235 . S
C690 O695 1.287 . S
C690 O696 1.255 . S
O691 Fe683 1.997 . S
O691 C689 1.235 . S
C692 O698 1.287 . S
C692 O699 1.255 . S
O693 Fe682 1.976 . S
O693 C700 1.287 . S
O694 Fe683 1.996 . S
O694 C700 1.255 . S
O695 Fe685 1.976 . S
O695 C690 1.287 . S
O696 Fe682 1.996 . S
O696 C690 1.255 . S
C697 O701 1.295 . S
C697 O702 1.235 . S
O698 Fe683 1.976 . S
O698 C692 1.287 . S
O699 Fe685 1.996 . S
O699 C692 1.255 . S
C700 O693 1.287 . S
C700 O694 1.255 . S
O701 Fe683 2.002 . S
O701 C697 1.295 . S
O702 Fe685 1.997 . S
O702 C697 1.235 . S
C703 O686 1.295 . S
C703 O687 1.235 . S
Fe704 O706 1.918 . S
Fe704 O709 1.997 . S
Fe704 O710 2.002 . S
Fe704 O715 1.976 . S
Fe704 O718 1.996 . S
Fe705 O706 1.918 . S
Fe705 O713 1.997 . S
Fe705 O716 1.996 . S
Fe705 O720 1.976 . S
Fe705 O723 2.002 . S
O706 Fe704 1.918 . S
O706 Fe705 1.918 . S
O706 Fe707 1.918 . S
Fe707 O706 1.918 . S
Fe707 O708 2.002 . S
Fe707 O717 1.976 . S
Fe707 O721 1.996 . S
Fe707 O724 1.997 . S
O708 Fe707 2.002 . S
O708 C725 1.295 . S
O709 Fe704 1.997 . S
O709 C725 1.235 . S
O710 Fe704 2.002 . S
O710 C711 1.295 . S
C711 O710 1.295 . S
C711 O713 1.235 . S
C712 O717 1.287 . S
C712 O718 1.255 . S
O713 Fe705 1.997 . S
O713 C711 1.235 . S
C714 O720 1.287 . S
C714 O721 1.255 . S
O715 Fe704 1.976 . S
O715 C722 1.287 . S
O716 Fe705 1.996 . S
O716 C722 1.255 . S
O717 Fe707 1.976 . S
O717 C712 1.287 . S
O718 Fe704 1.996 . S
O718 C712 1.255 . S
C719 O723 1.295 . S
C719 O724 1.235 . S
O720 Fe705 1.976 . S
O720 C714 1.287 . S
O721 Fe707 1.996 . S
O721 C714 1.255 . S
C722 O715 1.287 . S
C722 O716 1.255 . S
O723 Fe705 2.002 . S
O723 C719 1.295 . S
O724 Fe707 1.997 . S
O724 C719 1.235 . S
C725 O708 1.295 . S
C725 O709 1.235 . S
Fe726 O728 1.918 . S
Fe726 O731 1.997 . S
Fe726 O732 2.002 . S
Fe726 O737 1.976 . S
Fe726 O740 1.996 . S
Fe727 O728 1.918 . S
Fe727 O735 1.997 . S
Fe727 O738 1.996 . S
Fe727 O742 1.976 . S
Fe727 O745 2.002 . S
O728 Fe726 1.918 . S
O728 Fe727 1.918 . S
O728 Fe729 1.918 . S
Fe729 O728 1.918 . S
Fe729 O730 2.002 . S
Fe729 O739 1.976 . S
Fe729 O743 1.996 . S
Fe729 O746 1.997 . S
O730 Fe729 2.002 . S
O730 C747 1.295 . S
O731 Fe726 1.997 . S
O731 C747 1.235 . S
O732 Fe726 2.002 . S
O732 C733 1.295 . S
C733 O732 1.295 . S
C733 O735 1.235 . S
C734 O739 1.287 . S
C734 O740 1.255 . S
O735 Fe727 1.997 . S
O735 C733 1.235 . S
C736 O742 1.287 . S
C736 O743 1.255 . S
O737 Fe726 1.976 . S
O737 C744 1.287 . S
O738 Fe727 1.996 . S
O738 C744 1.255 . S
O739 Fe729 1.976 . S
O739 C734 1.287 . S
O740 Fe726 1.996 . S
O740 C734 1.255 . S
C741 O745 1.295 . S
C741 O746 1.235 . S
O742 Fe727 1.976 . S
O742 C736 1.287 . S
O743 Fe729 1.996 . S
O743 C736 1.255 . S
C744 O737 1.287 . S
C744 O738 1.255 . S
O745 Fe727 2.002 . S
O745 C741 1.295 . S
O746 Fe729 1.997 . S
O746 C741 1.235 . S
C747 O730 1.295 . S
C747 O731 1.235 . S
Fe748 O750 1.918 . S
Fe748 O753 1.997 . S
Fe748 O754 2.002 . S
Fe748 O759 1.976 . S
Fe748 O762 1.996 . S
Fe749 O750 1.918 . S
Fe749 O757 1.997 . S
Fe749 O760 1.996 . S
Fe749 O764 1.976 . S
Fe749 O767 2.002 . S
O750 Fe748 1.918 . S
O750 Fe749 1.918 . S
O750 Fe751 1.918 . S
Fe751 O750 1.918 . S
Fe751 O752 2.002 . S
Fe751 O761 1.976 . S
Fe751 O765 1.996 . S
Fe751 O768 1.997 . S
O752 Fe751 2.002 . S
O752 C769 1.295 . S
O753 Fe748 1.997 . S
O753 C769 1.235 . S
O754 Fe748 2.002 . S
O754 C755 1.295 . S
C755 O754 1.295 . S
C755 O757 1.235 . S
C756 O761 1.287 . S
C756 O762 1.255 . S
O757 Fe749 1.997 . S
O757 C755 1.235 . S
C758 O764 1.287 . S
C758 O765 1.255 . S
O759 Fe748 1.976 . S
O759 C766 1.287 . S
O760 Fe749 1.996 . S
O760 C766 1.255 . S
O761 Fe751 1.976 . S
O761 C756 1.287 . S
O762 Fe748 1.996 . S
O762 C756 1.255 . S
C763 O767 1.295 . S
C763 O768 1.235 . S
O764 Fe749 1.976 . S
O764 C758 1.287 . S
O765 Fe751 1.996 . S
O765 C758 1.255 . S
C766 O759 1.287 . S
C766 O760 1.255 . S
O767 Fe749 2.002 . S
O767 C763 1.295 . S
O768 Fe751 1.997 . S
O768 C763 1.235 . S
C769 O752 1.295 . S
C769 O753 1.235 . S
Fe770 O772 1.918 . S
Fe770 O775 1.997 . S
Fe770 O776 2.002 . S
Fe770 O781 1.976 . S
Fe770 O784 1.996 . S
Fe771 O772 1.918 . S
Fe771 O779 1.997 . S
Fe771 O782 1.996 . S
Fe771 O786 1.976 . S
Fe771 O789 2.002 . S
O772 Fe770 1.918 . S
O772 Fe771 1.918 . S
O772 Fe773 1.918 . S
Fe773 O772 1.918 . S
Fe773 O774 2.002 . S
Fe773 O783 1.976 . S
Fe773 O787 1.996 . S
Fe773 O790 1.997 . S
O774 Fe773 2.002 . S
O774 C791 1.295 . S
O775 Fe770 1.997 . S
O775 C791 1.235 . S
O776 Fe770 2.002 . S
O776 C777 1.295 . S
C777 O776 1.295 . S
C777 O779 1.235 . S
C778 O783 1.287 . S
C778 O784 1.255 . S
O779 Fe771 1.997 . S
O779 C777 1.235 . S
C780 O786 1.287 . S
C780 O787 1.255 . S
O781 Fe770 1.976 . S
O781 C788 1.287 . S
O782 Fe771 1.996 . S
O782 C788 1.255 . S
O783 Fe773 1.976 . S
O783 C778 1.287 . S
O784 Fe770 1.996 . S
O784 C778 1.255 . S
C785 O789 1.295 . S
C785 O790 1.235 . S
O786 Fe771 1.976 . S
O786 C780 1.287 . S
O787 Fe773 1.996 . S
O787 C780 1.255 . S
C788 O781 1.287 . S
C788 O782 1.255 . S
O789 Fe771 2.002 . S
O789 C785 1.295 . S
O790 Fe773 1.997 . S
O790 C785 1.235 . S
C791 O774 1.295 . S
C791 O775 1.235 . S
C792 C793 1.387 1_554 S
C792 H796 0.950 . S
C792 C801 1.390 . S
C793 C792 1.387 1_556 S
C793 C795 1.387 . S
H794 C801 0.950 . S
C795 C793 1.387 . S
C795 C797 1.390 . S
C795 H799 0.950 . S
H796 C792 0.950 . S
C797 C795 1.390 . S
C797 C798 1.387 . S
C797 H800 0.950 . S
C798 C797 1.387 . S
C798 C801 1.387 1_556 S
H799 C795 0.950 . S
H800 C797 0.950 . S
C801 C792 1.390 . S
C801 H794 0.950 . S
C801 C798 1.387 1_554 S
C802 C803 1.387 . S
C802 H806 0.950 . S
C802 C811 1.390 . S
C803 C802 1.387 . S
C803 C805 1.387 1_556 S
H804 C811 0.950 . S
C805 C803 1.387 1_554 S
C805 C807 1.390 . S
C805 H809 0.950 . S
H806 C802 0.950 . S
C807 C805 1.390 . S
C807 C808 1.387 1_554 S
C807 H810 0.950 . S
C808 C807 1.387 1_556 S
C808 C811 1.387 . S
H809 C805 0.950 . S
H810 C807 0.950 . S
C811 C802 1.390 . S
C811 H804 0.950 . S
C811 C808 1.387 . S
C812 C813 1.387 . S
C812 H816 0.950 . S
C812 C821 1.390 . S
C813 C812 1.387 . S
C813 C815 1.387 . S
H814 C821 0.950 . S
C815 C813 1.387 . S
C815 C817 1.390 1_556 S
C815 H819 0.950 . S
H816 C812 0.950 . S
C817 C815 1.390 1_554 S
C817 C818 1.387 1_554 S
C817 H820 0.950 . S
C818 C817 1.387 1_556 S
C818 C821 1.387 . S
H819 C815 0.950 . S
H820 C817 0.950 . S
C821 C812 1.390 . S
C821 H814 0.950 . S
C821 C818 1.387 . S
C822 C823 1.387 . S
C822 H826 0.950 . S
C822 C831 1.390 . S
C823 C822 1.387 . S
C823 C825 1.387 . S
H824 C831 0.950 . S
C825 C823 1.387 . S
C825 C827 1.390 . S
C825 H829 0.950 . S
H826 C822 0.950 . S
C827 C825 1.390 . S
C827 C828 1.387 . S
C827 H830 0.950 . S
C828 C827 1.387 . S
C828 C831 1.387 . S
H829 C825 0.950 . S
H830 C827 0.950 . S
C831 C822 1.390 . S
C831 H824 0.950 . S
C831 C828 1.387 . S
C832 C833 1.387 . S
C832 H836 0.950 . S
C832 C841 1.390 . S
C833 C832 1.387 . S
C833 C835 1.387 . S
H834 C841 0.950 . S
C835 C833 1.387 . S
C835 C837 1.390 . S
C835 H839 0.950 . S
H836 C832 0.950 . S
C837 C835 1.390 . S
C837 C838 1.387 . S
C837 H840 0.950 . S
C838 C837 1.387 . S
C838 C841 1.387 . S
H839 C835 0.950 . S
H840 C837 0.950 . S
C841 C832 1.390 . S
C841 H834 0.950 . S
C841 C838 1.387 . S
C842 C843 1.387 . S
C842 H846 0.950 . S
C842 C851 1.390 . S
C843 C842 1.387 . S
C843 C845 1.387 . S
H844 C851 0.950 . S
C845 C843 1.387 . S
C845 C847 1.390 . S
C845 H849 0.950 . S
H846 C842 0.950 . S
C847 C845 1.390 . S
C847 C848 1.387 . S
C847 H850 0.950 . S
C848 C847 1.387 . S
C848 C851 1.387 . S
H849 C845 0.950 . S
H850 C847 0.950 . S
C851 C842 1.390 . S
C851 H844 0.950 . S
C851 C848 1.387 . S
C852 C853 1.387 . S
C852 H856 0.950 . S
C852 C861 1.390 . S
C853 C852 1.387 . S
C853 C855 1.387 . S
H854 C861 0.950 . S
C855 C853 1.387 . S
C855 C857 1.390 . S
C855 H859 0.950 . S
H856 C852 0.950 . S
C857 C855 1.390 . S
C857 C858 1.387 . S
C857 H860 0.950 . S
C858 C857 1.387 . S
C858 C861 1.387 . S
H859 C855 0.950 . S
H860 C857 0.950 . S
C861 C852 1.390 . S
C861 H854 0.950 . S
C861 C858 1.387 . S
C862 C863 1.391 . S
C862 H866 0.942 1_554 S
C862 C871 1.395 . S
C863 C862 1.391 . S
C863 C865 1.387 . S
H864 C871 0.950 . S
C865 C863 1.387 . S
C865 C867 1.390 . S
C865 H869 0.950 . S
H866 C862 0.942 1_556 S
C867 C865 1.390 . S
C867 C868 1.387 . S
C867 H870 0.950 . S
C868 C867 1.387 . S
C868 C871 1.387 . S
H869 C865 0.950 . S
H870 C867 0.950 . S
C871 C862 1.395 . S
C871 H864 0.950 . S
C871 C868 1.387 . S
C872 C873 1.387 . S
C872 H876 0.950 . S
C872 C881 1.390 . S
C873 C872 1.387 . S
C873 C875 1.387 . S
H874 C881 0.950 . S
C875 C873 1.387 . S
C875 C877 1.390 . S
C875 H879 0.950 . S
H876 C872 0.950 . S
C877 C875 1.390 . S
C877 C878 1.387 . S
C877 H880 0.950 1_554 S
C878 C877 1.387 . S
C878 C881 1.387 . S
H879 C875 0.950 . S
H880 C877 0.950 1_556 S
C881 C872 1.390 . S
C881 H874 0.950 . S
C881 C878 1.387 . S
C882 C883 1.387 . S
C882 H886 0.950 . S
C882 C891 1.390 . S
C883 C882 1.387 . S
C883 C885 1.387 . S
H884 C891 0.950 . S
C885 C883 1.387 . S
C885 C887 1.390 . S
C885 H889 0.950 . S
H886 C882 0.950 . S
C887 C885 1.390 . S
C887 C888 1.387 . S
C887 H890 0.950 . S
C888 C887 1.387 . S
C888 C891 1.387 . S
H889 C885 0.950 . S
H890 C887 0.950 . S
C891 C882 1.390 . S
C891 H884 0.950 . S
C891 C888 1.387 . S
C892 C893 1.387 . S
C892 H896 0.950 . S
C892 C901 1.390 . S
C893 C892 1.387 . S
C893 C895 1.387 . S
H894 C901 0.950 . S
C895 C893 1.387 . S
C895 C897 1.390 . S
C895 H899 0.950 . S
H896 C892 0.950 . S
C897 C895 1.390 . S
C897 C898 1.387 . S
C897 H900 0.950 . S
C898 C897 1.387 . S
C898 C901 1.387 . S
H899 C895 0.950 . S
H900 C897 0.950 . S
C901 C892 1.390 . S
C901 H894 0.950 . S
C901 C898 1.387 . S
C902 C903 1.387 . S
C902 H906 0.950 . S
C902 C911 1.390 . S
C903 C902 1.387 . S
C903 C905 1.387 . S
H904 C911 0.950 . S
C905 C903 1.387 . S
C905 C907 1.390 . S
C905 H909 0.950 . S
H906 C902 0.950 . S
C907 C905 1.390 . S
C907 C908 1.387 . S
C907 H910 0.950 . S
C908 C907 1.387 . S
C908 C911 1.387 . S
H909 C905 0.950 . S
H910 C907 0.950 . S
C911 C902 1.390 . S
C911 H904 0.950 . S
C911 C908 1.387 . S
C912 C913 1.387 . S
C912 H916 0.950 . S
C912 C921 1.390 . S
C913 C912 1.387 . S
C913 C915 1.387 . S
H914 C921 0.950 . S
C915 C913 1.387 . S
C915 C917 1.390 . S
C915 H919 0.950 . S
H916 C912 0.950 . S
C917 C915 1.390 . S
C917 C918 1.387 . S
C917 H920 0.950 . S
C918 C917 1.387 . S
C918 C921 1.387 . S
H919 C915 0.950 . S
H920 C917 0.950 . S
C921 C912 1.390 . S
C921 H914 0.950 . S
C921 C918 1.387 . S
C922 C923 1.387 . S
C922 H926 0.950 . S
C922 C931 1.390 . S
C923 C922 1.387 . S
C923 C925 1.387 . S
H924 C931 0.950 . S
C925 C923 1.387 . S
C925 C927 1.390 . S
C925 H929 0.950 . S
H926 C922 0.950 . S
C927 C925 1.390 . S
C927 C928 1.387 . S
C927 H930 0.950 . S
C928 C927 1.387 . S
C928 C931 1.387 . S
H929 C925 0.950 . S
H930 C927 0.950 . S
C931 C922 1.390 . S
C931 H924 0.950 . S
C931 C928 1.387 . S
C932 C933 1.387 . S
C932 H936 0.950 . S
C932 C941 1.390 . S
C933 C932 1.387 . S
C933 C935 1.387 . S
H934 C941 0.950 . S
C935 C933 1.387 . S
C935 C937 1.390 . S
C935 H939 0.950 . S
H936 C932 0.950 . S
C937 C935 1.390 . S
C937 C938 1.387 . S
C937 H940 0.950 . S
C938 C937 1.387 . S
C938 C941 1.387 . S
H939 C935 0.950 . S
H940 C937 0.950 . S
C941 C932 1.390 . S
C941 H934 0.950 . S
C941 C938 1.387 . S
C942 C943 1.387 . S
C942 H946 0.950 . S
C942 C951 1.390 . S
C943 C942 1.387 . S
C943 C945 1.387 . S
H944 C951 0.950 . S
C945 C943 1.387 . S
C945 C947 1.390 . S
C945 H949 0.950 . S
H946 C942 0.950 . S
C947 C945 1.390 . S
C947 C948 1.387 . S
C947 H950 0.950 . S
C948 C947 1.387 . S
C948 C951 1.387 . S
H949 C945 0.950 . S
H950 C947 0.950 . S
C951 C942 1.390 . S
C951 H944 0.950 . S
C951 C948 1.387 . S
C952 C953 1.387 . S
C952 H956 0.950 . S
C952 C961 1.390 . S
C953 C952 1.387 . S
C953 C955 1.387 . S
H954 C961 0.950 . S
C955 C953 1.387 . S
C955 C957 1.390 . S
C955 H959 0.950 . S
H956 C952 0.950 . S
C957 C955 1.390 . S
C957 C958 1.387 . S
C957 H960 0.950 . S
C958 C957 1.387 . S
C958 C961 1.387 . S
H959 C955 0.950 . S
H960 C957 0.950 . S
C961 C952 1.390 . S
C961 H954 0.950 . S
C961 C958 1.387 . S
C962 C963 1.387 . S
C962 H966 0.950 . S
C962 C971 1.390 . S
C963 C962 1.387 . S
C963 C965 1.387 . S
H964 C971 0.950 . S
C965 C963 1.387 . S
C965 C967 1.390 . S
C965 H969 0.950 . S
H966 C962 0.950 . S
C967 C965 1.390 . S
C967 C968 1.387 . S
C967 H970 0.950 . S
C968 C967 1.387 . S
C968 C971 1.387 . S
H969 C965 0.950 . S
H970 C967 0.950 . S
C971 C962 1.390 . S
C971 H964 0.950 . S
C971 C968 1.387 . S
C972 C973 1.387 . S
C972 H976 0.950 . S
C972 C981 1.390 . S
C973 C972 1.387 . S
C973 C975 1.387 . S
H974 C981 0.950 . S
C975 C973 1.387 . S
C975 C977 1.390 . S
C975 H979 0.950 . S
H976 C972 0.950 . S
C977 C975 1.390 . S
C977 C978 1.387 . S
C977 H980 0.950 . S
C978 C977 1.387 . S
C978 C981 1.387 . S
H979 C975 0.950 . S
H980 C977 0.950 . S
C981 C972 1.390 . S
C981 H974 0.950 . S
C981 C978 1.387 . S
C982 C983 1.387 . S
C982 H986 0.950 . S
C982 C991 1.390 . S
C983 C982 1.387 . S
C983 C985 1.387 . S
H984 C991 0.950 . S
C985 C983 1.387 . S
C985 C987 1.390 . S
C985 H989 0.950 . S
H986 C982 0.950 . S
C987 C985 1.390 . S
C987 C988 1.387 . S
C987 H990 0.950 . S
C988 C987 1.387 . S
C988 C991 1.387 . S
H989 C985 0.950 . S
H990 C987 0.950 . S
C991 C982 1.390 . S
C991 H984 0.950 . S
C991 C988 1.387 . S
C992 C993 1.387 . S
C992 H996 0.950 . S
C992 C1001 1.390 . S
C993 C992 1.387 . S
C993 C995 1.387 . S
H994 C1001 0.950 . S
C995 C993 1.387 . S
C995 C997 1.390 . S
C995 H999 0.950 . S
H996 C992 0.950 . S
C997 C995 1.390 . S
C997 C998 1.387 . S
C997 H1000 0.950 . S
C998 C997 1.387 . S
C998 C1001 1.387 . S
H999 C995 0.950 . S
H1000 C997 0.950 . S
C1001 C992 1.390 . S
C1001 H994 0.950 . S
C1001 C998 1.387 . S
C1002 C1003 1.387 . S
C1002 H1006 0.950 . S
C1002 C1011 1.390 . S
C1003 C1002 1.387 . S
C1003 C1005 1.387 . S
H1004 C1011 0.950 . S
C1005 C1003 1.387 . S
C1005 C1007 1.390 . S
C1005 H1009 0.950 . S
H1006 C1002 0.950 . S
C1007 C1005 1.390 . S
C1007 C1008 1.387 . S
C1007 H1010 0.950 . S
C1008 C1007 1.387 . S
C1008 C1011 1.387 . S
H1009 C1005 0.950 . S
H1010 C1007 0.950 . S
C1011 C1002 1.390 . S
C1011 H1004 0.950 . S
C1011 C1008 1.387 . S
C1012 C1013 1.387 . S
C1012 H1016 0.950 . S
C1012 C1021 1.390 . S
C1013 C1012 1.387 . S
C1013 C1015 1.387 . S
H1014 C1021 0.950 . S
C1015 C1013 1.387 . S
C1015 C1017 1.390 . S
C1015 H1019 0.950 . S
H1016 C1012 0.950 . S
C1017 C1015 1.390 . S
C1017 C1018 1.387 . S
C1017 H1020 0.950 . S
C1018 C1017 1.387 . S
C1018 C1021 1.387 . S
H1019 C1015 0.950 . S
H1020 C1017 0.950 . S
C1021 C1012 1.390 . S
C1021 H1014 0.950 . S
C1021 C1018 1.387 . S
C1022 C1023 1.387 . S
C1022 H1026 0.950 . S
C1022 C1031 1.390 . S
C1023 C1022 1.387 . S
C1023 C1025 1.387 . S
H1024 C1031 0.950 . S
C1025 C1023 1.387 . S
C1025 C1027 1.390 . S
C1025 H1029 0.950 . S
H1026 C1022 0.950 . S
C1027 C1025 1.390 . S
C1027 C1028 1.387 . S
C1027 H1030 0.950 . S
C1028 C1027 1.387 . S
C1028 C1031 1.387 . S
H1029 C1025 0.950 . S
H1030 C1027 0.950 . S
C1031 C1022 1.390 . S
C1031 H1024 0.950 . S
C1031 C1028 1.387 . S
C1032 C1033 1.387 . S
C1032 H1036 0.950 . S
C1032 C1041 1.390 . S
C1033 C1032 1.387 . S
C1033 C1035 1.387 . S
H1034 C1041 0.950 . S
C1035 C1033 1.387 . S
C1035 C1037 1.390 . S
C1035 H1039 0.950 . S
H1036 C1032 0.950 . S
C1037 C1035 1.390 . S
C1037 C1038 1.387 . S
C1037 H1040 0.950 . S
C1038 C1037 1.387 . S
C1038 C1041 1.387 . S
H1039 C1035 0.950 . S
H1040 C1037 0.950 . S
C1041 C1032 1.390 . S
C1041 H1034 0.950 . S
C1041 C1038 1.387 . S
C1042 C1043 1.387 . S
C1042 H1046 0.950 . S
C1042 C1051 1.390 . S
C1043 C1042 1.387 . S
C1043 C1045 1.387 . S
H1044 C1051 0.950 . S
C1045 C1043 1.387 . S
C1045 C1047 1.390 . S
C1045 H1049 0.950 . S
H1046 C1042 0.950 . S
C1047 C1045 1.390 . S
C1047 C1048 1.387 . S
C1047 H1050 0.950 . S
C1048 C1047 1.387 . S
C1048 C1051 1.387 . S
H1049 C1045 0.950 . S
H1050 C1047 0.950 . S
C1051 C1042 1.390 . S
C1051 H1044 0.950 . S
C1051 C1048 1.387 . S
C1052 C1053 1.387 . S
C1052 H1056 0.950 . S
C1052 C1061 1.390 . S
C1053 C1052 1.387 . S
C1053 C1055 1.387 . S
H1054 C1061 0.950 . S
C1055 C1053 1.387 . S
C1055 C1057 1.390 . S
C1055 H1059 0.950 . S
H1056 C1052 0.950 . S
C1057 C1055 1.390 . S
C1057 C1058 1.387 . S
C1057 H1060 0.950 . S
C1058 C1057 1.387 . S
C1058 C1061 1.387 . S
H1059 C1055 0.950 . S
H1060 C1057 0.950 . S
C1061 C1052 1.390 . S
C1061 H1054 0.950 . S
C1061 C1058 1.387 . S
C1062 C1063 1.387 . S
C1062 H1066 0.950 . S
C1062 C1071 1.390 . S
C1063 C1062 1.387 . S
C1063 C1065 1.387 . S
H1064 C1071 0.950 . S
C1065 C1063 1.387 . S
C1065 C1067 1.390 . S
C1065 H1069 0.950 . S
H1066 C1062 0.950 . S
C1067 C1065 1.390 . S
C1067 C1068 1.387 . S
C1067 H1070 0.950 . S
C1068 C1067 1.387 . S
C1068 C1071 1.387 . S
H1069 C1065 0.950 . S
H1070 C1067 0.950 . S
C1071 C1062 1.390 . S
C1071 H1064 0.950 . S
C1071 C1068 1.387 . S
C1072 C1073 1.387 . S
C1072 H1076 0.950 . S
C1072 C1081 1.390 . S
C1073 C1072 1.387 . S
C1073 C1075 1.387 . S
H1074 C1081 0.950 . S
C1075 C1073 1.387 . S
C1075 C1077 1.390 . S
C1075 H1079 0.950 . S
H1076 C1072 0.950 . S
C1077 C1075 1.390 . S
C1077 C1078 1.387 . S
C1077 H1080 0.950 . S
C1078 C1077 1.387 . S
C1078 C1081 1.387 . S
H1079 C1075 0.950 . S
H1080 C1077 0.950 . S
C1081 C1072 1.390 . S
C1081 H1074 0.950 . S
C1081 C1078 1.387 . S
C1082 C1083 1.387 . S
C1082 H1086 0.950 . S
C1082 C1091 1.390 . S
C1083 C1082 1.387 . S
C1083 C1085 1.387 . S
H1084 C1091 0.950 . S
C1085 C1083 1.387 . S
C1085 C1087 1.390 . S
C1085 H1089 0.950 . S
H1086 C1082 0.950 . S
C1087 C1085 1.390 . S
C1087 C1088 1.387 . S
C1087 H1090 0.950 . S
C1088 C1087 1.387 . S
C1088 C1091 1.387 . S
H1089 C1085 0.950 . S
H1090 C1087 0.950 . S
C1091 C1082 1.390 . S
C1091 H1084 0.950 . S
C1091 C1088 1.387 . S
C1092 C1093 1.387 . S
C1092 H1096 0.950 . S
C1092 C1101 1.390 . S
C1093 C1092 1.387 . S
C1093 C1095 1.387 . S
H1094 C1101 0.950 . S
C1095 C1093 1.387 . S
C1095 C1097 1.390 . S
C1095 H1099 0.950 . S
H1096 C1092 0.950 . S
C1097 C1095 1.390 . S
C1097 C1098 1.387 . S
C1097 H1100 0.950 . S
C1098 C1097 1.387 . S
C1098 C1101 1.387 . S
H1099 C1095 0.950 . S
H1100 C1097 0.950 . S
C1101 C1092 1.390 . S
C1101 H1094 0.950 . S
C1101 C1098 1.387 . S
C1102 C1103 1.387 . S
C1102 H1106 0.950 . S
C1102 C1111 1.390 . S
C1103 C1102 1.387 . S
C1103 C1105 1.387 . S
H1104 C1111 0.950 . S
C1105 C1103 1.387 . S
C1105 C1107 1.390 . S
C1105 H1109 0.950 . S
H1106 C1102 0.950 . S
C1107 C1105 1.390 . S
C1107 C1108 1.387 . S
C1107 H1110 0.950 . S
C1108 C1107 1.387 . S
C1108 C1111 1.387 . S
H1109 C1105 0.950 . S
H1110 C1107 0.950 . S
C1111 C1102 1.390 . S
C1111 H1104 0.950 . S
C1111 C1108 1.387 . S
C1112 C1113 1.387 . S
C1112 H1116 0.950 . S
C1112 C1121 1.390 . S
C1113 C1112 1.387 . S
C1113 C1115 1.387 . S
H1114 C1121 0.950 . S
C1115 C1113 1.387 . S
C1115 C1117 1.390 . S
C1115 H1119 0.950 . S
H1116 C1112 0.950 . S
C1117 C1115 1.390 . S
C1117 C1118 1.387 . S
C1117 H1120 0.950 . S
C1118 C1117 1.387 . S
C1118 C1121 1.387 . S
H1119 C1115 0.950 . S
H1120 C1117 0.950 . S
C1121 C1112 1.390 . S
C1121 H1114 0.950 . S
C1121 C1118 1.387 . S
C1122 C1123 1.387 . S
C1122 H1126 0.950 . S
C1122 C1131 1.390 . S
C1123 C1122 1.387 . S
C1123 C1125 1.387 . S
H1124 C1131 0.950 . S
C1125 C1123 1.387 . S
C1125 C1127 1.390 . S
C1125 H1129 0.950 . S
H1126 C1122 0.950 . S
C1127 C1125 1.390 . S
C1127 C1128 1.387 . S
C1127 H1130 0.950 . S
C1128 C1127 1.387 . S
C1128 C1131 1.387 . S
H1129 C1125 0.950 . S
H1130 C1127 0.950 . S
C1131 C1122 1.390 . S
C1131 H1124 0.950 . S
C1131 C1128 1.387 . S
C1132 C1133 1.387 . S
C1132 H1136 0.950 . S
C1132 C1141 1.390 . S
C1133 C1132 1.387 . S
C1133 C1135 1.387 . S
H1134 C1141 0.950 . S
C1135 C1133 1.387 . S
C1135 C1137 1.390 . S
C1135 H1139 0.950 . S
H1136 C1132 0.950 . S
C1137 C1135 1.390 . S
C1137 C1138 1.387 . S
C1137 H1140 0.950 . S
C1138 C1137 1.387 . S
C1138 C1141 1.387 . S
H1139 C1135 0.950 . S
H1140 C1137 0.950 . S
C1141 C1132 1.390 . S
C1141 H1134 0.950 . S
C1141 C1138 1.387 . S
C1142 C1143 1.387 . S
C1142 H1146 0.950 . S
C1142 C1151 1.390 . S
C1143 C1142 1.387 . S
C1143 C1145 1.387 . S
H1144 C1151 0.950 . S
C1145 C1143 1.387 . S
C1145 C1147 1.390 . S
C1145 H1149 0.950 . S
H1146 C1142 0.950 . S
C1147 C1145 1.390 . S
C1147 C1148 1.387 . S
C1147 H1150 0.950 . S
C1148 C1147 1.387 . S
C1148 C1151 1.387 . S
H1149 C1145 0.950 . S
H1150 C1147 0.950 . S
C1151 C1142 1.390 . S
C1151 H1144 0.950 . S
C1151 C1148 1.387 . S
C1152 C1153 1.387 . S
C1152 H1156 0.950 . S
C1152 C1161 1.390 . S
C1153 C1152 1.387 . S
C1153 C1155 1.387 . S
H1154 C1161 0.950 . S
C1155 C1153 1.387 . S
C1155 C1157 1.390 . S
C1155 H1159 0.950 . S
H1156 C1152 0.950 . S
C1157 C1155 1.390 . S
C1157 C1158 1.387 . S
C1157 H1160 0.950 . S
C1158 C1157 1.387 . S
C1158 C1161 1.387 . S
H1159 C1155 0.950 . S
H1160 C1157 0.950 . S
C1161 C1152 1.390 . S
C1161 H1154 0.950 . S
C1161 C1158 1.387 . S
C1162 C1163 1.387 . S
C1162 H1166 0.950 . S
C1162 C1171 1.390 . S
C1163 C1162 1.387 . S
C1163 C1165 1.387 . S
H1164 C1171 0.950 . S
C1165 C1163 1.387 . S
C1165 C1167 1.390 . S
C1165 H1169 0.950 . S
H1166 C1162 0.950 . S
C1167 C1165 1.390 . S
C1167 C1168 1.387 . S
C1167 H1170 0.950 . S
C1168 C1167 1.387 . S
C1168 C1171 1.387 . S
H1169 C1165 0.950 . S
H1170 C1167 0.950 . S
C1171 C1162 1.390 . S
C1171 H1164 0.950 . S
C1171 C1168 1.387 . S
C1172 C1173 1.387 . S
C1172 H1176 0.950 . S
C1172 C1181 1.390 . S
C1173 C1172 1.387 . S
C1173 C1175 1.387 . S
H1174 C1181 0.950 . S
C1175 C1173 1.387 . S
C1175 C1177 1.390 . S
C1175 H1179 0.950 . S
H1176 C1172 0.950 . S
C1177 C1175 1.390 . S
C1177 C1178 1.387 . S
C1177 H1180 0.950 . S
C1178 C1177 1.387 . S
C1178 C1181 1.387 . S
H1179 C1175 0.950 . S
H1180 C1177 0.950 . S
C1181 C1172 1.390 . S
C1181 H1174 0.950 . S
C1181 C1178 1.387 . S
C1182 C1183 1.387 . S
C1182 H1186 0.950 . S
C1182 C1191 1.390 . S
C1183 C1182 1.387 . S
C1183 C1185 1.387 . S
H1184 C1191 0.950 . S
C1185 C1183 1.387 . S
C1185 C1187 1.390 . S
C1185 H1189 0.950 . S
H1186 C1182 0.950 . S
C1187 C1185 1.390 . S
C1187 C1188 1.387 . S
C1187 H1190 0.950 . S
C1188 C1187 1.387 . S
C1188 C1191 1.387 . S
H1189 C1185 0.950 . S
H1190 C1187 0.950 . S
C1191 C1182 1.390 . S
C1191 H1184 0.950 . S
C1191 C1188 1.387 . S
C1192 C1193 1.387 . S
C1192 H1196 0.950 . S
C1192 C1201 1.390 . S
C1193 C1192 1.387 . S
C1193 C1195 1.387 . S
H1194 C1201 0.950 . S
C1195 C1193 1.387 . S
C1195 C1197 1.390 . S
C1195 H1199 0.950 . S
H1196 C1192 0.950 . S
C1197 C1195 1.390 . S
C1197 C1198 1.387 . S
C1197 H1200 0.950 . S
C1198 C1197 1.387 . S
C1198 C1201 1.387 . S
H1199 C1195 0.950 . S
H1200 C1197 0.950 . S
C1201 C1192 1.390 . S
C1201 H1194 0.950 . S
C1201 C1198 1.387 . S
C1202 C1203 1.387 . S
C1202 H1206 0.950 . S
C1202 C1211 1.390 . S
C1203 C1202 1.387 . S
C1203 C1205 1.387 . S
H1204 C1211 0.950 . S
C1205 C1203 1.387 . S
C1205 C1207 1.390 . S
C1205 H1209 0.950 . S
H1206 C1202 0.950 . S
C1207 C1205 1.390 . S
C1207 C1208 1.387 . S
C1207 H1210 0.950 . S
C1208 C1207 1.387 . S
C1208 C1211 1.387 . S
H1209 C1205 0.950 . S
H1210 C1207 0.950 . S
C1211 C1202 1.390 . S
C1211 H1204 0.950 . S
C1211 C1208 1.387 . S
C1212 C1213 1.387 . S
C1212 H1216 0.950 . S
C1212 C1221 1.390 . S
C1213 C1212 1.387 . S
C1213 C1215 1.387 . S
H1214 C1221 0.950 . S
C1215 C1213 1.387 . S
C1215 C1217 1.390 . S
C1215 H1219 0.950 . S
H1216 C1212 0.950 . S
C1217 C1215 1.390 . S
C1217 C1218 1.387 . S
C1217 H1220 0.950 . S
C1218 C1217 1.387 . S
C1218 C1221 1.387 . S
H1219 C1215 0.950 . S
H1220 C1217 0.950 . S
C1221 C1212 1.390 . S
C1221 H1214 0.950 . S
C1221 C1218 1.387 . S
C1222 C1223 1.387 . S
C1222 H1226 0.950 . S
C1222 C1231 1.390 . S
C1223 C1222 1.387 . S
C1223 C1225 1.387 . S
H1224 C1231 0.950 . S
C1225 C1223 1.387 . S
C1225 C1227 1.390 . S
C1225 H1229 0.950 . S
H1226 C1222 0.950 . S
C1227 C1225 1.390 . S
C1227 C1228 1.387 . S
C1227 H1230 0.950 . S
C1228 C1227 1.387 . S
C1228 C1231 1.387 . S
H1229 C1225 0.950 . S
H1230 C1227 0.950 . S
C1231 C1222 1.390 . S
C1231 H1224 0.950 . S
C1231 C1228 1.387 . S
C1232 C1233 1.387 . S
C1232 H1236 0.950 . S
C1232 C1241 1.390 . S
C1233 C1232 1.387 . S
C1233 C1235 1.387 . S
H1234 C1241 0.950 . S
C1235 C1233 1.387 . S
C1235 C1237 1.390 . S
C1235 H1239 0.950 . S
H1236 C1232 0.950 . S
C1237 C1235 1.390 . S
C1237 C1238 1.387 . S
C1237 H1240 0.950 . S
C1238 C1237 1.387 . S
C1238 C1241 1.387 . S
H1239 C1235 0.950 . S
H1240 C1237 0.950 . S
C1241 C1232 1.390 . S
C1241 H1234 0.950 . S
C1241 C1238 1.387 . S
C1242 C1243 1.387 . S
C1242 H1246 0.950 . S
C1242 C1251 1.390 . S
C1243 C1242 1.387 . S
C1243 C1245 1.387 . S
H1244 C1251 0.950 . S
C1245 C1243 1.387 . S
C1245 C1247 1.390 . S
C1245 H1249 0.950 . S
H1246 C1242 0.950 . S
C1247 C1245 1.390 . S
C1247 C1248 1.387 . S
C1247 H1250 0.950 . S
C1248 C1247 1.387 . S
C1248 C1251 1.387 . S
H1249 C1245 0.950 . S
H1250 C1247 0.950 . S
C1251 C1242 1.390 . S
C1251 H1244 0.950 . S
C1251 C1248 1.387 . S
C1252 C1253 1.387 . S
C1252 H1256 0.950 . S
C1252 C1261 1.390 . S
C1253 C1252 1.387 . S
C1253 C1255 1.387 . S
H1254 C1261 0.950 . S
C1255 C1253 1.387 . S
C1255 C1257 1.390 . S
C1255 H1259 0.950 . S
H1256 C1252 0.950 . S
C1257 C1255 1.390 . S
C1257 C1258 1.387 . S
C1257 H1260 0.950 . S
C1258 C1257 1.387 . S
C1258 C1261 1.387 . S
H1259 C1255 0.950 . S
H1260 C1257 0.950 . S
C1261 C1252 1.390 . S
C1261 H1254 0.950 . S
C1261 C1258 1.387 . S
C1262 C1263 1.387 . S
C1262 H1266 0.950 . S
C1262 C1271 1.390 . S
C1263 C1262 1.387 . S
C1263 C1265 1.387 . S
H1264 C1271 0.950 . S
C1265 C1263 1.387 . S
C1265 C1267 1.390 . S
C1265 H1269 0.950 . S
H1266 C1262 0.950 . S
C1267 C1265 1.390 . S
C1267 C1268 1.387 . S
C1267 H1270 0.950 . S
C1268 C1267 1.387 . S
C1268 C1271 1.387 . S
H1269 C1265 0.950 . S
H1270 C1267 0.950 . S
C1271 C1262 1.390 . S
C1271 H1264 0.950 . S
C1271 C1268 1.387 . S
C1272 C1273 1.387 . S
C1272 H1276 0.950 . S
C1272 C1281 1.390 1_655 S
C1273 C1272 1.387 . S
C1273 C1275 1.387 . S
H1274 C1281 0.950 . S
C1275 C1273 1.387 . S
C1275 C1277 1.390 1_655 S
C1275 H1279 0.950 . S
H1276 C1272 0.950 . S
C1277 C1275 1.390 1_455 S
C1277 C1278 1.387 . S
C1277 H1280 0.950 . S
C1278 C1277 1.387 . S
C1278 C1281 1.387 . S
H1279 C1275 0.950 . S
H1280 C1277 0.950 . S
C1281 C1272 1.390 1_455 S
C1281 H1274 0.950 . S
C1281 C1278 1.387 . S
C1282 C1283 1.387 . S
C1282 H1286 0.950 . S
C1282 C1291 1.390 . S
C1283 C1282 1.387 . S
C1283 C1285 1.387 . S
H1284 C1291 0.950 . S
C1285 C1283 1.387 . S
C1285 C1287 1.390 . S
C1285 H1289 0.950 . S
H1286 C1282 0.950 . S
C1287 C1285 1.390 . S
C1287 C1288 1.387 . S
C1287 H1290 0.950 . S
C1288 C1287 1.387 . S
C1288 C1291 1.387 . S
H1289 C1285 0.950 . S
H1290 C1287 0.950 . S
C1291 C1282 1.390 . S
C1291 H1284 0.950 . S
C1291 C1288 1.387 . S
C1292 C1293 1.387 . S
C1292 H1296 0.950 . S
C1292 C1301 1.390 1_545 S
C1293 C1292 1.387 . S
C1293 C1295 1.387 . S
H1294 C1301 0.950 . S
C1295 C1293 1.387 . S
C1295 C1297 1.390 1_545 S
C1295 H1299 0.950 . S
H1296 C1292 0.950 . S
C1297 C1295 1.390 1_565 S
C1297 C1298 1.387 . S
C1297 H1300 0.950 . S
C1298 C1297 1.387 . S
C1298 C1301 1.387 . S
H1299 C1295 0.950 . S
H1300 C1297 0.950 . S
C1301 C1292 1.390 1_565 S
C1301 H1294 0.950 . S
C1301 C1298 1.387 . S
C1302 C1303 1.387 . S
C1302 H1306 0.950 . S
C1302 C1311 1.390 1_565 S
C1303 C1302 1.387 . S
C1303 C1305 1.387 1_554 S
H1304 C1311 0.950 . S
C1305 C1303 1.387 1_556 S
C1305 C1307 1.390 1_565 S
C1305 H1309 0.950 . S
H1306 C1302 0.950 . S
C1307 C1305 1.390 1_545 S
C1307 C1308 1.387 . S
C1307 H1310 0.950 . S
C1308 C1307 1.387 . S
C1308 C1311 1.387 1_556 S
H1309 C1305 0.950 . S
H1310 C1307 0.950 . S
C1311 C1302 1.390 1_545 S
C1311 H1304 0.950 . S
C1311 C1308 1.387 1_554 S
C1312 C1313 1.387 . S
C1312 H1316 0.950 . S
C1312 C1321 1.390 1_655 S
C1313 C1312 1.387 . S
C1313 C1315 1.387 1_556 S
H1314 C1321 0.950 . S
C1315 C1313 1.387 1_554 S
C1315 C1317 1.390 1_655 S
C1315 H1319 0.950 . S
H1316 C1312 0.950 . S
C1317 C1315 1.390 1_455 S
C1317 C1318 1.387 . S
C1317 H1320 0.950 . S
C1318 C1317 1.387 . S
C1318 C1321 1.387 1_554 S
H1319 C1315 0.950 . S
H1320 C1317 0.950 . S
C1321 C1312 1.390 1_455 S
C1321 H1314 0.950 . S
C1321 C1318 1.387 1_556 S
C1322 C1323 1.387 . S
C1322 H1326 0.950 . S
C1322 C1331 1.390 . S
C1323 C1322 1.387 . S
C1323 C1325 1.387 1_554 S
H1324 C1331 0.950 . S
C1325 C1323 1.387 1_556 S
C1325 C1327 1.390 . S
C1325 H1329 0.950 . S
H1326 C1322 0.950 . S
C1327 C1325 1.390 . S
C1327 C1328 1.387 . S
C1327 H1330 0.950 . S
C1328 C1327 1.387 . S
C1328 C1331 1.387 1_556 S
H1329 C1325 0.950 . S
H1330 C1327 0.950 . S
C1331 C1322 1.390 . S
C1331 H1324 0.950 . S
C1331 C1328 1.387 1_554 S
C1332 C1333 1.387 . S
C1332 H1336 0.950 . S
C1332 C1341 1.390 . S
C1333 C1332 1.387 . S
C1333 C1335 1.387 . S
H1334 C1341 0.950 . S
C1335 C1333 1.387 . S
C1335 C1337 1.390 . S
C1335 H1339 0.950 . S
H1336 C1332 0.950 . S
C1337 C1335 1.390 . S
C1337 C1338 1.387 . S
C1337 H1340 0.950 . S
C1338 C1337 1.387 . S
C1338 C1341 1.387 . S
H1339 C1335 0.950 . S
H1340 C1337 0.950 . S
C1341 C1332 1.390 . S
C1341 H1334 0.950 . S
C1341 C1338 1.387 . S
C1342 C1343 1.387 . S
C1342 H1346 0.950 . S
C1342 C1351 1.390 . S
C1343 C1342 1.387 . S
C1343 C1345 1.387 . S
H1344 C1351 0.950 . S
C1345 C1343 1.387 . S
C1345 C1347 1.390 . S
C1345 H1349 0.950 . S
H1346 C1342 0.950 . S
C1347 C1345 1.390 . S
C1347 C1348 1.387 . S
C1347 H1350 0.950 . S
C1348 C1347 1.387 . S
C1348 C1351 1.387 . S
H1349 C1345 0.950 . S
H1350 C1347 0.950 . S
C1351 C1342 1.390 . S
C1351 H1344 0.950 . S
C1351 C1348 1.387 . S
C1352 C1353 1.387 . S
C1352 H1356 0.950 . S
C1352 C1361 1.390 . S
C1353 C1352 1.387 . S
C1353 C1355 1.387 . S
H1354 C1361 0.950 . S
C1355 C1353 1.387 . S
C1355 C1357 1.390 . S
C1355 H1359 0.950 . S
H1356 C1352 0.950 . S
C1357 C1355 1.390 . S
C1357 C1358 1.387 . S
C1357 H1360 0.950 . S
C1358 C1357 1.387 . S
C1358 C1361 1.387 . S
H1359 C1355 0.950 . S
H1360 C1357 0.950 . S
C1361 C1352 1.390 . S
C1361 H1354 0.950 . S
C1361 C1358 1.387 . S
C1362 C1363 1.387 . S
C1362 H1366 0.950 . S
C1362 C1371 1.390 . S
C1363 C1362 1.387 . S
C1363 C1365 1.387 . S
H1364 C1371 0.950 . S
C1365 C1363 1.387 . S
C1365 C1367 1.390 . S
C1365 H1369 0.950 . S
H1366 C1362 0.950 . S
C1367 C1365 1.390 . S
C1367 C1368 1.387 . S
C1367 H1370 0.950 . S
C1368 C1367 1.387 . S
C1368 C1371 1.387 . S
H1369 C1365 0.950 . S
H1370 C1367 0.950 . S
C1371 C1362 1.390 . S
C1371 H1364 0.950 . S
C1371 C1368 1.387 . S
C1372 C1373 1.387 . S
C1372 H1376 0.950 . S
C1372 C1381 1.390 . S
C1373 C1372 1.387 . S
C1373 C1375 1.387 . S
H1374 C1381 0.950 . S
C1375 C1373 1.387 . S
C1375 C1377 1.390 . S
C1375 H1379 0.950 . S
H1376 C1372 0.950 . S
C1377 C1375 1.390 . S
C1377 C1378 1.387 . S
C1377 H1380 0.950 . S
C1378 C1377 1.387 . S
C1378 C1381 1.387 . S
H1379 C1375 0.950 . S
H1380 C1377 0.950 . S
C1381 C1372 1.390 . S
C1381 H1374 0.950 . S
C1381 C1378 1.387 . S
C1382 C1383 1.387 . S
C1382 H1386 0.950 . S
C1382 C1391 1.390 . S
C1383 C1382 1.387 . S
C1383 C1385 1.387 . S
H1384 C1391 0.950 . S
C1385 C1383 1.387 . S
C1385 C1387 1.390 . S
C1385 H1389 0.950 . S
H1386 C1382 0.950 . S
C1387 C1385 1.390 . S
C1387 C1388 1.387 . S
C1387 H1390 0.950 . S
C1388 C1387 1.387 . S
C1388 C1391 1.387 . S
H1389 C1385 0.950 . S
H1390 C1387 0.950 . S
C1391 C1382 1.390 . S
C1391 H1384 0.950 . S
C1391 C1388 1.387 . S
C1392 C1393 1.387 . S
C1392 H1396 0.950 . S
C1392 C1401 1.390 . S
C1393 C1392 1.387 . S
C1393 C1395 1.387 . S
H1394 C1401 0.950 . S
C1395 C1393 1.387 . S
C1395 C1397 1.390 . S
C1395 H1399 0.950 . S
H1396 C1392 0.950 . S
C1397 C1395 1.390 . S
C1397 C1398 1.387 . S
C1397 H1400 0.950 . S
C1398 C1397 1.387 . S
C1398 C1401 1.387 . S
H1399 C1395 0.950 . S
H1400 C1397 0.950 . S
C1401 C1392 1.390 . S
C1401 H1394 0.950 . S
C1401 C1398 1.387 . S
C1402 C1403 1.387 . S
C1402 H1406 0.950 . S
C1402 C1411 1.390 . S
C1403 C1402 1.387 . S
C1403 C1405 1.387 . S
H1404 C1411 0.950 . S
C1405 C1403 1.387 . S
C1405 C1407 1.390 . S
C1405 H1409 0.950 . S
H1406 C1402 0.950 . S
C1407 C1405 1.390 . S
C1407 C1408 1.387 . S
C1407 H1410 0.950 . S
C1408 C1407 1.387 . S
C1408 C1411 1.387 . S
H1409 C1405 0.950 . S
H1410 C1407 0.950 . S
C1411 C1402 1.390 . S
C1411 H1404 0.950 . S
C1411 C1408 1.387 . S
C1412 C1413 1.387 . S
C1412 H1416 0.950 . S
C1412 C1421 1.390 . S
C1413 C1412 1.387 . S
C1413 C1415 1.387 . S
H1414 C1421 0.950 . S
C1415 C1413 1.387 . S
C1415 C1417 1.390 . S
C1415 H1419 0.950 . S
H1416 C1412 0.950 . S
C1417 C1415 1.390 . S
C1417 C1418 1.387 . S
C1417 H1420 0.950 . S
C1418 C1417 1.387 . S
C1418 C1421 1.387 . S
H1419 C1415 0.950 . S
H1420 C1417 0.950 . S
C1421 C1412 1.390 . S
C1421 H1414 0.950 . S
C1421 C1418 1.387 . S
C1422 C1423 1.387 . S
C1422 H1426 0.950 . S
C1422 C1431 1.390 . S
C1423 C1422 1.387 . S
C1423 C1425 1.387 . S
H1424 C1431 0.950 . S
C1425 C1423 1.387 . S
C1425 C1427 1.390 . S
C1425 H1429 0.950 . S
H1426 C1422 0.950 . S
C1427 C1425 1.390 . S
C1427 C1428 1.387 . S
C1427 H1430 0.950 . S
C1428 C1427 1.387 . S
C1428 C1431 1.387 . S
H1429 C1425 0.950 . S
H1430 C1427 0.950 . S
C1431 C1422 1.390 . S
C1431 H1424 0.950 . S
C1431 C1428 1.387 . S
C1432 C1433 1.387 . S
C1432 H1436 0.950 . S
C1432 C1441 1.390 . S
C1433 C1432 1.387 . S
C1433 C1435 1.387 . S
H1434 C1441 0.950 . S
C1435 C1433 1.387 . S
C1435 C1437 1.390 . S
C1435 H1439 0.950 . S
H1436 C1432 0.950 . S
C1437 C1435 1.390 . S
C1437 C1438 1.387 . S
C1437 H1440 0.950 . S
C1438 C1437 1.387 . S
C1438 C1441 1.387 . S
H1439 C1435 0.950 . S
H1440 C1437 0.950 . S
C1441 C1432 1.390 . S
C1441 H1434 0.950 . S
C1441 C1438 1.387 . S
C1442 C1443 1.387 . S
C1442 H1446 0.950 . S
C1442 C1451 1.390 . S
C1443 C1442 1.387 . S
C1443 C1445 1.387 . S
H1444 C1451 0.950 . S
C1445 C1443 1.387 . S
C1445 C1447 1.390 . S
C1445 H1449 0.950 . S
H1446 C1442 0.950 . S
C1447 C1445 1.390 . S
C1447 C1448 1.387 . S
C1447 H1450 0.950 . S
C1448 C1447 1.387 . S
C1448 C1451 1.387 . S
H1449 C1445 0.950 . S
H1450 C1447 0.950 . S
C1451 C1442 1.390 . S
C1451 H1444 0.950 . S
C1451 C1448 1.387 . S
C1452 C1453 1.387 1_655 S
C1452 H1456 0.950 . S
C1452 C1461 1.390 . S
C1453 C1452 1.387 1_455 S
C1453 C1455 1.387 . S
H1454 C1461 0.950 . S
C1455 C1453 1.387 . S
C1455 C1457 1.390 . S
C1455 H1459 0.950 . S
H1456 C1452 0.950 . S
C1457 C1455 1.390 . S
C1457 C1458 1.387 1_455 S
C1457 H1460 0.950 . S
C1458 C1457 1.387 1_655 S
C1458 C1461 1.387 . S
H1459 C1455 0.950 . S
H1460 C1457 0.950 . S
C1461 C1452 1.390 . S
C1461 H1454 0.950 . S
C1461 C1458 1.387 . S
C1462 C1463 1.387 . S
C1462 H1466 0.950 . S
C1462 C1471 1.390 . S
C1463 C1462 1.387 . S
C1463 C1465 1.387 . S
H1464 C1471 0.950 . S
C1465 C1463 1.387 . S
C1465 C1467 1.390 . S
C1465 H1469 0.950 . S
H1466 C1462 0.950 . S
C1467 C1465 1.390 . S
C1467 C1468 1.387 . S
C1467 H1470 0.950 . S
C1468 C1467 1.387 . S
C1468 C1471 1.387 . S
H1469 C1465 0.950 . S
H1470 C1467 0.950 . S
C1471 C1462 1.390 . S
C1471 H1464 0.950 . S
C1471 C1468 1.387 . S
C1472 C1473 1.387 . S
C1472 H1476 0.950 . S
C1472 C1481 1.390 1_545 S
C1473 C1472 1.387 . S
C1473 C1475 1.387 . S
H1474 C1481 0.950 . S
C1475 C1473 1.387 . S
C1475 C1477 1.390 1_545 S
C1475 H1479 0.950 . S
H1476 C1472 0.950 . S
C1477 C1475 1.390 1_565 S
C1477 C1478 1.387 . S
C1477 H1480 0.950 . S
C1478 C1477 1.387 . S
C1478 C1481 1.387 . S
H1479 C1475 0.950 . S
H1480 C1477 0.950 . S
C1481 C1472 1.390 1_565 S
C1481 H1474 0.950 . S
C1481 C1478 1.387 . S
C1482 C1483 1.387 . S
C1482 H1486 0.950 . S
C1482 C1491 1.390 1_565 S
C1483 C1482 1.387 . S
C1483 C1485 1.387 . S
H1484 C1491 0.950 . S
C1485 C1483 1.387 . S
C1485 C1487 1.390 1_565 S
C1485 H1489 0.950 . S
H1486 C1482 0.950 . S
C1487 C1485 1.390 1_545 S
C1487 C1488 1.387 . S
C1487 H1490 0.950 . S
C1488 C1487 1.387 . S
C1488 C1491 1.387 . S
H1489 C1485 0.950 . S
H1490 C1487 0.950 . S
C1491 C1482 1.390 1_545 S
C1491 H1484 0.950 . S
C1491 C1488 1.387 . S
C1492 C1493 1.387 . S
C1492 H1496 0.950 . S
C1492 C1501 1.390 1_455 S
C1493 C1492 1.387 . S
C1493 C1495 1.387 . S
H1494 C1501 0.950 . S
C1495 C1493 1.387 . S
C1495 C1497 1.390 1_455 S
C1495 H1499 0.950 . S
H1496 C1492 0.950 . S
C1497 C1495 1.390 1_655 S
C1497 C1498 1.387 . S
C1497 H1500 0.950 . S
C1498 C1497 1.387 . S
C1498 C1501 1.387 . S
H1499 C1495 0.950 . S
H1500 C1497 0.950 . S
C1501 C1492 1.390 1_655 S
C1501 H1494 0.950 . S
C1501 C1498 1.387 . S
C1502 C1503 1.387 . S
C1502 H1506 0.950 . S
C1502 C1511 1.390 . S
C1503 C1502 1.387 . S
C1503 C1505 1.387 . S
H1504 C1511 0.950 . S
C1505 C1503 1.387 . S
C1505 C1507 1.390 . S
C1505 H1509 0.950 . S
H1506 C1502 0.950 . S
C1507 C1505 1.390 . S
C1507 C1508 1.387 . S
C1507 H1510 0.950 . S
C1508 C1507 1.387 . S
C1508 C1511 1.387 . S
H1509 C1505 0.950 . S
H1510 C1507 0.950 . S
C1511 C1502 1.390 . S
C1511 H1504 0.950 . S
C1511 C1508 1.387 . S
C1512 C1513 1.387 . S
C1512 H1516 0.950 . S
C1512 C1521 1.390 . S
C1513 C1512 1.387 . S
C1513 C1515 1.387 . S
H1514 C1521 0.950 . S
C1515 C1513 1.387 . S
C1515 C1517 1.390 . S
C1515 H1519 0.950 . S
H1516 C1512 0.950 . S
C1517 C1515 1.390 . S
C1517 C1518 1.387 . S
C1517 H1520 0.950 . S
C1518 C1517 1.387 . S
C1518 C1521 1.387 . S
H1519 C1515 0.950 . S
H1520 C1517 0.950 . S
C1521 C1512 1.390 . S
C1521 H1514 0.950 . S
C1521 C1518 1.387 . S
C1522 C1523 1.387 . S
C1522 H1526 0.950 . S
C1522 C1531 1.390 1_545 S
C1523 C1522 1.387 . S
C1523 C1525 1.387 . S
H1524 C1531 0.950 . S
C1525 C1523 1.387 . S
C1525 C1527 1.390 1_545 S
C1525 H1529 0.950 . S
H1526 C1522 0.950 . S
C1527 C1525 1.390 1_565 S
C1527 C1528 1.387 . S
C1527 H1530 0.950 . S
C1528 C1527 1.387 . S
C1528 C1531 1.387 . S
H1529 C1525 0.950 . S
H1530 C1527 0.950 . S
C1531 C1522 1.390 1_565 S
C1531 H1524 0.950 . S
C1531 C1528 1.387 . S
C1532 C1533 1.387 1_455 S
C1532 H1536 0.950 . S
C1532 C1541 1.390 . S
C1533 C1532 1.387 1_655 S
C1533 C1535 1.387 . S
H1534 C1541 0.950 . S
C1535 C1533 1.387 . S
C1535 C1537 1.390 . S
C1535 H1539 0.950 . S
H1536 C1532 0.950 . S
C1537 C1535 1.390 . S
C1537 C1538 1.387 1_655 S
C1537 H1540 0.950 . S
C1538 C1537 1.387 1_455 S
C1538 C1541 1.387 . S
H1539 C1535 0.950 . S
H1540 C1537 0.950 . S
C1541 C1532 1.390 . S
C1541 H1534 0.950 . S
C1541 C1538 1.387 . S
C1542 C1543 1.387 . S
C1542 H1546 0.950 . S
C1542 C1551 1.390 . S
C1543 C1542 1.387 . S
C1543 C1545 1.387 . S
H1544 C1551 0.950 . S
C1545 C1543 1.387 . S
C1545 C1547 1.390 . S
C1545 H1549 0.950 . S
H1546 C1542 0.950 . S
C1547 C1545 1.390 . S
C1547 C1548 1.387 . S
C1547 H1550 0.950 . S
C1548 C1547 1.387 . S
C1548 C1551 1.387 . S
H1549 C1545 0.950 . S
H1550 C1547 0.950 . S
C1551 C1542 1.390 . S
C1551 H1544 0.950 . S
C1551 C1548 1.387 . S
C1552 C1553 1.387 . S
C1552 H1556 0.950 . S
C1552 C1561 1.390 1_565 S
C1553 C1552 1.387 . S
C1553 C1555 1.387 . S
H1554 C1561 0.950 . S
C1555 C1553 1.387 . S
C1555 C1557 1.390 1_565 S
C1555 H1559 0.950 . S
H1556 C1552 0.950 . S
C1557 C1555 1.390 1_545 S
C1557 C1558 1.387 . S
C1557 H1560 0.950 . S
C1558 C1557 1.387 . S
C1558 C1561 1.387 . S
H1559 C1555 0.950 . S
H1560 C1557 0.950 . S
C1561 C1552 1.390 1_545 S
C1561 H1554 0.950 . S
C1561 C1558 1.387 . S
C1562 C1563 1.387 1_455 S
C1562 H1566 0.950 . S
C1562 C1571 1.390 . S
C1563 C1562 1.387 1_655 S
C1563 C1565 1.387 . S
H1564 C1571 0.950 . S
C1565 C1563 1.387 . S
C1565 C1567 1.390 . S
C1565 H1569 0.950 . S
H1566 C1562 0.950 . S
C1567 C1565 1.390 . S
C1567 C1568 1.387 1_655 S
C1567 H1570 0.950 . S
C1568 C1567 1.387 1_455 S
C1568 C1571 1.387 . S
H1569 C1565 0.950 . S
H1570 C1567 0.950 . S
C1571 C1562 1.390 . S
C1571 H1564 0.950 . S
C1571 C1568 1.387 . S
C1572 C1573 1.387 . S
C1572 H1576 0.950 . S
C1572 C1581 1.390 . S
C1573 C1572 1.387 . S
C1573 C1575 1.387 . S
H1574 C1581 0.950 . S
C1575 C1573 1.387 . S
C1575 C1577 1.390 . S
C1575 H1579 0.950 . S
H1576 C1572 0.950 . S
C1577 C1575 1.390 . S
C1577 C1578 1.387 . S
C1577 H1580 0.950 . S
C1578 C1577 1.387 . S
C1578 C1581 1.387 . S
H1579 C1575 0.950 . S
H1580 C1577 0.950 . S
C1581 C1572 1.390 . S
C1581 H1574 0.950 . S
C1581 C1578 1.387 . S
C1582 C1583 1.387 . S
C1582 H1586 0.950 . S
C1582 C1591 1.390 . S
C1583 C1582 1.387 . S
C1583 C1585 1.387 . S
H1584 C1591 0.950 . S
C1585 C1583 1.387 . S
C1585 C1587 1.390 . S
C1585 H1589 0.950 . S
H1586 C1582 0.950 . S
C1587 C1585 1.390 . S
C1587 C1588 1.387 . S
C1587 H1590 0.950 . S
C1588 C1587 1.387 . S
C1588 C1591 1.387 . S
H1589 C1585 0.950 . S
H1590 C1587 0.950 . S
C1591 C1582 1.390 . S
C1591 H1584 0.950 . S
C1591 C1588 1.387 . S
C1592 C1593 1.387 . S
C1592 H1596 0.950 . S
C1592 C1601 1.390 . S
C1593 C1592 1.387 . S
C1593 C1595 1.387 . S
H1594 C1601 0.950 . S
C1595 C1593 1.387 . S
C1595 C1597 1.390 . S
C1595 H1599 0.950 . S
H1596 C1592 0.950 . S
C1597 C1595 1.390 . S
C1597 C1598 1.387 . S
C1597 H1600 0.950 . S
C1598 C1597 1.387 . S
C1598 C1601 1.387 . S
H1599 C1595 0.950 . S
H1600 C1597 0.950 . S
C1601 C1592 1.390 . S
C1601 H1594 0.950 . S
C1601 C1598 1.387 . S
C1602 C1603 1.387 . S
C1602 H1606 0.950 . S
C1602 C1611 1.390 . S
C1603 C1602 1.387 . S
C1603 C1605 1.387 . S
H1604 C1611 0.950 . S
C1605 C1603 1.387 . S
C1605 C1607 1.390 . S
C1605 H1609 0.950 . S
H1606 C1602 0.950 . S
C1607 C1605 1.390 . S
C1607 C1608 1.387 . S
C1607 H1610 0.950 . S
C1608 C1607 1.387 . S
C1608 C1611 1.387 . S
H1609 C1605 0.950 . S
H1610 C1607 0.950 . S
C1611 C1602 1.390 . S
C1611 H1604 0.950 . S
C1611 C1608 1.387 . S
C1612 C1613 1.387 . S
C1612 H1616 0.950 . S
C1612 C1621 1.390 . S
C1613 C1612 1.387 . S
C1613 C1615 1.387 . S
H1614 C1621 0.950 . S
C1615 C1613 1.387 . S
C1615 C1617 1.390 . S
C1615 H1619 0.950 . S
H1616 C1612 0.950 . S
C1617 C1615 1.390 . S
C1617 C1618 1.387 . S
C1617 H1620 0.950 . S
C1618 C1617 1.387 . S
C1618 C1621 1.387 . S
H1619 C1615 0.950 . S
H1620 C1617 0.950 . S
C1621 C1612 1.390 . S
C1621 H1614 0.950 . S
C1621 C1618 1.387 . S
C1622 C1623 1.387 . S
C1622 H1626 0.950 . S
C1622 C1631 1.390 . S
C1623 C1622 1.387 . S
C1623 C1625 1.387 . S
H1624 C1631 0.950 . S
C1625 C1623 1.387 . S
C1625 C1627 1.390 . S
C1625 H1629 0.950 . S
H1626 C1622 0.950 . S
C1627 C1625 1.390 . S
C1627 C1628 1.387 . S
C1627 H1630 0.950 . S
C1628 C1627 1.387 . S
C1628 C1631 1.387 . S
H1629 C1625 0.950 . S
H1630 C1627 0.950 . S
C1631 C1622 1.390 . S
C1631 H1624 0.950 . S
C1631 C1628 1.387 . S
C1632 C1633 1.387 . S
C1632 H1636 0.950 . S
C1632 C1641 1.390 . S
C1633 C1632 1.387 . S
C1633 C1635 1.387 . S
H1634 C1641 0.950 . S
C1635 C1633 1.387 . S
C1635 C1637 1.390 . S
C1635 H1639 0.950 . S
H1636 C1632 0.950 . S
C1637 C1635 1.390 . S
C1637 C1638 1.387 . S
C1637 H1640 0.950 . S
C1638 C1637 1.387 . S
C1638 C1641 1.387 . S
H1639 C1635 0.950 . S
H1640 C1637 0.950 . S
C1641 C1632 1.390 . S
C1641 H1634 0.950 . S
C1641 C1638 1.387 . S
C1642 C1643 1.387 . S
C1642 H1646 0.950 . S
C1642 C1651 1.390 . S
C1643 C1642 1.387 . S
C1643 C1645 1.387 . S
H1644 C1651 0.950 . S
C1645 C1643 1.387 . S
C1645 C1647 1.390 . S
C1645 H1649 0.950 . S
H1646 C1642 0.950 . S
C1647 C1645 1.390 . S
C1647 C1648 1.387 . S
C1647 H1650 0.950 . S
C1648 C1647 1.387 . S
C1648 C1651 1.387 . S
H1649 C1645 0.950 . S
H1650 C1647 0.950 . S
C1651 C1642 1.390 . S
C1651 H1644 0.950 . S
C1651 C1648 1.387 . S
C1652 C1653 1.387 . S
C1652 H1656 0.950 . S
C1652 C1661 1.390 . S
C1653 C1652 1.387 . S
C1653 C1655 1.387 . S
H1654 C1661 0.950 . S
C1655 C1653 1.387 . S
C1655 C1657 1.390 . S
C1655 H1659 0.950 . S
H1656 C1652 0.950 . S
C1657 C1655 1.390 . S
C1657 C1658 1.387 . S
C1657 H1660 0.950 . S
C1658 C1657 1.387 . S
C1658 C1661 1.387 . S
H1659 C1655 0.950 . S
H1660 C1657 0.950 . S
C1661 C1652 1.390 . S
C1661 H1654 0.950 . S
C1661 C1658 1.387 . S
C1662 C1663 1.387 . S
C1662 H1666 0.950 . S
C1662 C1671 1.390 . S
C1663 C1662 1.387 . S
C1663 C1665 1.387 . S
H1664 C1671 0.950 . S
C1665 C1663 1.387 . S
C1665 C1667 1.390 . S
C1665 H1669 0.950 . S
H1666 C1662 0.950 . S
C1667 C1665 1.390 . S
C1667 C1668 1.387 . S
C1667 H1670 0.950 . S
C1668 C1667 1.387 . S
C1668 C1671 1.387 . S
H1669 C1665 0.950 . S
H1670 C1667 0.950 . S
C1671 C1662 1.390 . S
C1671 H1664 0.950 . S
C1671 C1668 1.387 . S
C1672 C1673 1.387 . S
C1672 H1676 0.950 . S
C1672 C1681 1.390 . S
C1673 C1672 1.387 . S
C1673 C1675 1.387 . S
H1674 C1681 0.950 . S
C1675 C1673 1.387 . S
C1675 C1677 1.390 . S
C1675 H1679 0.950 . S
H1676 C1672 0.950 . S
C1677 C1675 1.390 . S
C1677 C1678 1.387 . S
C1677 H1680 0.950 . S
C1678 C1677 1.387 . S
C1678 C1681 1.387 . S
H1679 C1675 0.950 . S
H1680 C1677 0.950 . S
C1681 C1672 1.390 . S
C1681 H1674 0.950 . S
C1681 C1678 1.387 . S
C1682 C1683 1.387 . S
C1682 H1686 0.950 . S
C1682 C1691 1.390 . S
C1683 C1682 1.387 . S
C1683 C1685 1.387 . S
H1684 C1691 0.950 . S
C1685 C1683 1.387 . S
C1685 C1687 1.390 . S
C1685 H1689 0.950 . S
H1686 C1682 0.950 . S
C1687 C1685 1.390 . S
C1687 C1688 1.387 . S
C1687 H1690 0.950 . S
C1688 C1687 1.387 . S
C1688 C1691 1.387 . S
H1689 C1685 0.950 . S
H1690 C1687 0.950 . S
C1691 C1682 1.390 . S
C1691 H1684 0.950 . S
C1691 C1688 1.387 . S
C1692 C1693 1.387 . S
C1692 H1696 0.950 . S
C1692 C1701 1.390 . S
C1693 C1692 1.387 . S
C1693 C1695 1.387 . S
H1694 C1701 0.950 . S
C1695 C1693 1.387 . S
C1695 C1697 1.390 . S
C1695 H1699 0.950 . S
H1696 C1692 0.950 . S
C1697 C1695 1.390 . S
C1697 C1698 1.387 . S
C1697 H1700 0.950 . S
C1698 C1697 1.387 . S
C1698 C1701 1.387 . S
H1699 C1695 0.950 . S
H1700 C1697 0.950 . S
C1701 C1692 1.390 . S
C1701 H1694 0.950 . S
C1701 C1698 1.387 . S
C1702 C1703 1.387 . S
C1702 H1706 0.950 . S
C1702 C1711 1.390 . S
C1703 C1702 1.387 . S
C1703 C1705 1.387 . S
H1704 C1711 0.950 . S
C1705 C1703 1.387 . S
C1705 C1707 1.390 . S
C1705 H1709 0.950 . S
H1706 C1702 0.950 . S
C1707 C1705 1.390 . S
C1707 C1708 1.387 . S
C1707 H1710 0.950 . S
C1708 C1707 1.387 . S
C1708 C1711 1.387 . S
H1709 C1705 0.950 . S
H1710 C1707 0.950 . S
C1711 C1702 1.390 . S
C1711 H1704 0.950 . S
C1711 C1708 1.387 . S
C1712 C1713 1.387 . S
C1712 H1716 0.950 . S
C1712 C1721 1.390 . S
C1713 C1712 1.387 . S
C1713 C1715 1.387 . S
H1714 C1721 0.950 . S
C1715 C1713 1.387 . S
C1715 C1717 1.390 . S
C1715 H1719 0.950 . S
H1716 C1712 0.950 . S
C1717 C1715 1.390 . S
C1717 C1718 1.387 . S
C1717 H1720 0.950 . S
C1718 C1717 1.387 . S
C1718 C1721 1.387 . S
H1719 C1715 0.950 . S
H1720 C1717 0.950 . S
C1721 C1712 1.390 . S
C1721 H1714 0.950 . S
C1721 C1718 1.387 . S
C1722 C1723 1.387 . S
C1722 H1726 0.950 . S
C1722 C1731 1.390 . S
C1723 C1722 1.387 . S
C1723 C1725 1.387 . S
H1724 C1731 0.950 . S
C1725 C1723 1.387 . S
C1725 C1727 1.390 . S
C1725 H1729 0.950 . S
H1726 C1722 0.950 . S
C1727 C1725 1.390 . S
C1727 C1728 1.387 . S
C1727 H1730 0.950 . S
C1728 C1727 1.387 . S
C1728 C1731 1.387 . S
H1729 C1725 0.950 . S
H1730 C1727 0.950 . S
C1731 C1722 1.390 . S
C1731 H1724 0.950 . S
C1731 C1728 1.387 . S
C1732 C1733 1.387 . S
C1732 H1736 0.950 1_545 S
C1732 C1741 1.390 . S
C1733 C1732 1.387 . S
C1733 C1735 1.387 . S
H1734 C1741 0.950 . S
C1735 C1733 1.387 . S
C1735 C1737 1.390 . S
C1735 H1739 0.950 . S
H1736 C1732 0.950 1_565 S
C1737 C1735 1.390 . S
C1737 C1738 1.387 . S
C1737 H1740 0.950 . S
C1738 C1737 1.387 . S
C1738 C1741 1.387 . S
H1739 C1735 0.950 . S
H1740 C1737 0.950 . S
C1741 C1732 1.390 . S
C1741 H1734 0.950 . S
C1741 C1738 1.387 . S
C1742 C1743 1.387 . S
C1742 H1746 0.950 . S
C1742 C1751 1.390 . S
C1743 C1742 1.387 . S
C1743 C1745 1.387 . S
H1744 C1751 0.950 . S
C1745 C1743 1.387 . S
C1745 C1747 1.390 . S
C1745 H1749 0.950 1_655 S
H1746 C1742 0.950 . S
C1747 C1745 1.390 . S
C1747 C1748 1.387 . S
C1747 H1750 0.950 . S
C1748 C1747 1.387 . S
C1748 C1751 1.387 . S
H1749 C1745 0.950 1_455 S
H1750 C1747 0.950 . S
C1751 C1742 1.390 . S
C1751 H1744 0.950 . S
C1751 C1748 1.387 . S
C1752 C1753 1.387 . S
C1752 H1756 0.950 . S
C1752 C1761 1.390 . S
C1753 C1752 1.387 . S
C1753 C1755 1.387 . S
H1754 C1761 0.950 . S
C1755 C1753 1.387 . S
C1755 C1757 1.390 . S
C1755 H1759 0.950 . S
H1756 C1752 0.950 . S
C1757 C1755 1.390 . S
C1757 C1758 1.387 . S
C1757 H1760 0.950 . S
C1758 C1757 1.387 . S
C1758 C1761 1.387 . S
H1759 C1755 0.950 . S
H1760 C1757 0.950 . S
C1761 C1752 1.390 . S
C1761 H1754 0.950 . S
C1761 C1758 1.387 . S
C1762 C1763 1.387 . S
C1762 H1766 0.950 1_545 S
C1762 C1771 1.390 . S
C1763 C1762 1.387 . S
C1763 C1765 1.387 . S
H1764 C1771 0.950 . S
C1765 C1763 1.387 . S
C1765 C1767 1.390 . S
C1765 H1769 0.950 . S
H1766 C1762 0.950 1_565 S
C1767 C1765 1.390 . S
C1767 C1768 1.387 . S
C1767 H1770 0.950 . S
C1768 C1767 1.387 . S
C1768 C1771 1.387 . S
H1769 C1765 0.950 . S
H1770 C1767 0.950 . S
C1771 C1762 1.390 . S
C1771 H1764 0.950 . S
C1771 C1768 1.387 . S
C1772 C1773 1.387 . S
C1772 H1776 0.950 . S
C1772 C1781 1.390 . S
C1773 C1772 1.387 . S
C1773 C1775 1.387 . S
H1774 C1781 0.950 . S
C1775 C1773 1.387 . S
C1775 C1777 1.390 . S
C1775 H1779 0.950 . S
H1776 C1772 0.950 . S
C1777 C1775 1.390 . S
C1777 C1778 1.387 . S
C1777 H1780 0.950 . S
C1778 C1777 1.387 . S
C1778 C1781 1.387 . S
H1779 C1775 0.950 . S
H1780 C1777 0.950 . S
C1781 C1772 1.390 . S
C1781 H1774 0.950 . S
C1781 C1778 1.387 . S
C1782 C1783 1.387 . S
C1782 H1786 0.950 . S
C1782 C1791 1.390 . S
C1783 C1782 1.387 . S
C1783 C1785 1.387 . S
H1784 C1791 0.950 . S
C1785 C1783 1.387 . S
C1785 C1787 1.390 . S
C1785 H1789 0.950 . S
H1786 C1782 0.950 . S
C1787 C1785 1.390 . S
C1787 C1788 1.387 . S
C1787 H1790 0.950 . S
C1788 C1787 1.387 . S
C1788 C1791 1.387 . S
H1789 C1785 0.950 . S
H1790 C1787 0.950 . S
C1791 C1782 1.390 . S
C1791 H1784 0.950 . S
C1791 C1788 1.387 . S
C1792 C1793 1.387 . S
C1792 H1796 0.950 . S
C1792 C1801 1.390 . S
C1793 C1792 1.387 . S
C1793 C1795 1.387 . S
H1794 C1801 0.950 . S
C1795 C1793 1.387 . S
C1795 C1797 1.390 . S
C1795 H1799 0.950 . S
H1796 C1792 0.950 . S
C1797 C1795 1.390 . S
C1797 C1798 1.387 . S
C1797 H1800 0.950 . S
C1798 C1797 1.387 . S
C1798 C1801 1.387 . S
H1799 C1795 0.950 . S
H1800 C1797 0.950 . S
C1801 C1792 1.390 . S
C1801 H1794 0.950 . S
C1801 C1798 1.387 . S
C1802 C1803 1.387 . S
C1802 H1806 0.950 . S
C1802 C1811 1.390 . S
C1803 C1802 1.387 . S
C1803 C1805 1.387 . S
H1804 C1811 0.950 . S
C1805 C1803 1.387 . S
C1805 C1807 1.390 . S
C1805 H1809 0.950 . S
H1806 C1802 0.950 . S
C1807 C1805 1.390 . S
C1807 C1808 1.387 . S
C1807 H1810 0.950 1_455 S
C1808 C1807 1.387 . S
C1808 C1811 1.387 . S
H1809 C1805 0.950 . S
H1810 C1807 0.950 1_655 S
C1811 C1802 1.390 . S
C1811 H1804 0.950 . S
C1811 C1808 1.387 . S
C1812 C1813 1.387 . S
C1812 H1816 0.950 . S
C1812 C1821 1.390 1_655 S
C1813 C1812 1.387 . S
C1813 C1815 1.387 . S
H1814 C1821 0.950 . S
C1815 C1813 1.387 . S
C1815 C1817 1.390 1_655 S
C1815 H1819 0.950 . S
H1816 C1812 0.950 . S
C1817 C1815 1.390 1_455 S
C1817 C1818 1.387 . S
C1817 H1820 0.950 . S
C1818 C1817 1.387 . S
C1818 C1821 1.387 . S
H1819 C1815 0.950 . S
H1820 C1817 0.950 . S
C1821 C1812 1.390 1_455 S
C1821 H1814 0.950 . S
C1821 C1818 1.387 . S
C1822 C1823 1.387 . S
C1822 H1826 0.950 . S
C1822 C1831 1.390 . S
C1823 C1822 1.387 . S
C1823 C1825 1.387 . S
H1824 C1831 0.950 . S
C1825 C1823 1.387 . S
C1825 C1827 1.390 . S
C1825 H1829 0.950 . S
H1826 C1822 0.950 . S
C1827 C1825 1.390 . S
C1827 C1828 1.387 . S
C1827 H1830 0.950 . S
C1828 C1827 1.387 . S
C1828 C1831 1.387 . S
H1829 C1825 0.950 . S
H1830 C1827 0.950 . S
C1831 C1822 1.390 . S
C1831 H1824 0.950 . S
C1831 C1828 1.387 . S
C1832 C1833 1.387 . S
C1832 H1836 0.950 . S
C1832 C1841 1.390 1_545 S
C1833 C1832 1.387 . S
C1833 C1835 1.387 . S
H1834 C1841 0.950 . S
C1835 C1833 1.387 . S
C1835 C1837 1.390 1_545 S
C1835 H1839 0.950 . S
H1836 C1832 0.950 . S
C1837 C1835 1.390 1_565 S
C1837 C1838 1.387 . S
C1837 H1840 0.950 . S
C1838 C1837 1.387 . S
C1838 C1841 1.387 . S
H1839 C1835 0.950 . S
H1840 C1837 0.950 . S
C1841 C1832 1.390 1_565 S
C1841 H1834 0.950 . S
C1841 C1838 1.387 . S
C1842 C1843 1.387 . S
C1842 H1846 0.950 . S
C1842 C1851 1.390 1_545 S
C1843 C1842 1.387 . S
C1843 C1845 1.387 . S
H1844 C1851 0.950 . S
C1845 C1843 1.387 . S
C1845 C1847 1.390 1_545 S
C1845 H1849 0.950 . S
H1846 C1842 0.950 . S
C1847 C1845 1.390 1_565 S
C1847 C1848 1.387 . S
C1847 H1850 0.950 . S
C1848 C1847 1.387 . S
C1848 C1851 1.387 . S
H1849 C1845 0.950 . S
H1850 C1847 0.950 . S
C1851 C1842 1.390 1_565 S
C1851 H1844 0.950 . S
C1851 C1848 1.387 . S
C1852 C1853 1.387 . S
C1852 H1856 0.950 . S
C1852 C1861 1.390 1_655 S
C1853 C1852 1.387 . S
C1853 C1855 1.387 . S
H1854 C1861 0.950 . S
C1855 C1853 1.387 . S
C1855 C1857 1.390 1_655 S
C1855 H1859 0.950 . S
H1856 C1852 0.950 . S
C1857 C1855 1.390 1_455 S
C1857 C1858 1.387 . S
C1857 H1860 0.950 . S
C1858 C1857 1.387 . S
C1858 C1861 1.387 . S
H1859 C1855 0.950 . S
H1860 C1857 0.950 . S
C1861 C1852 1.390 1_455 S
C1861 H1854 0.950 . S
C1861 C1858 1.387 . S
C1862 C1863 1.387 . S
C1862 H1866 0.950 . S
C1862 C1871 1.390 . S
C1863 C1862 1.387 . S
C1863 C1865 1.387 . S
H1864 C1871 0.950 . S
C1865 C1863 1.387 . S
C1865 C1867 1.390 . S
C1865 H1869 0.950 . S
H1866 C1862 0.950 . S
C1867 C1865 1.390 . S
C1867 C1868 1.387 . S
C1867 H1870 0.950 . S
C1868 C1867 1.387 . S
C1868 C1871 1.387 . S
H1869 C1865 0.950 . S
H1870 C1867 0.950 . S
C1871 C1862 1.390 . S
C1871 H1864 0.950 . S
C1871 C1868 1.387 . S
C793 C21 1.450 1_556 S
C798 C172 1.424 . S
C803 C186 1.422 . S
C808 C43 1.449 1_556 S
C813 C150 1.422 . S
C818 C65 1.450 1_556 S
C823 C250 1.422 . S
C828 C73 1.450 . S
C833 C109 1.449 . S
C838 C216 1.421 . S
C843 C131 1.449 . S
C848 C238 1.422 . S
C853 C30 1.422 . S
C858 C139 1.450 1_554 S
C863 C161 1.448 1_554 S
C868 C52 1.423 . S
C873 C8 1.424 . S
C878 C191 1.449 1_554 S
C883 C118 1.424 . S
C888 C205 1.449 . S
C893 C227 1.448 . S
C898 C84 1.423 . S
C903 C263 1.448 . S
C908 C96 1.423 . S
C913 C285 1.449 . S
C918 C428 1.421 . S
C923 C448 1.421 . S
C928 C307 1.450 . S
C933 C406 1.423 . S
C938 C329 1.449 . S
C943 C351 1.449 . S
C948 C514 1.424 . S
C953 C470 1.423 . S
C958 C359 1.450 . S
C963 C395 1.449 . S
C968 C502 1.424 . S
C973 C411 1.450 . S
C978 C294 1.424 . S
C983 C316 1.421 . S
C988 C433 1.449 . S
C993 C461 1.449 . S
C998 C272 1.424 . S
C1003 C382 1.421 . S
C1008 C483 1.449 . S
C1013 C338 1.422 . S
C1018 C491 1.449 . S
C1023 C527 1.450 . S
C1028 C370 1.424 . S
C1033 C549 1.450 . S
C1038 C700 1.423 . S
C1043 C571 1.448 . S
C1048 C722 1.423 . S
C1053 C668 1.424 . S
C1058 C593 1.449 . S
C1063 C778 1.422 . S
C1068 C615 1.450 . S
C1073 C637 1.450 . S
C1078 C744 1.423 . S
C1083 C766 1.424 . S
C1088 C645 1.450 . S
C1093 C558 1.422 . S
C1098 C681 1.449 . S
C1103 C689 1.450 . S
C1108 C580 1.424 . S
C1113 C536 1.422 . S
C1118 C711 1.449 . S
C1123 C733 1.450 . S
C1128 C656 1.421 . S
C1133 C755 1.450 . S
C1138 C602 1.424 . S
C1143 C791 1.449 . S
C1148 C624 1.424 . S
C1153 C15 1.863 . S
C1158 C403 1.863 . S
C1163 C37 1.860 . S
C1168 C425 1.860 . S
C1173 C455 1.863 . S
C1178 C59 1.863 . S
C1183 C747 1.859 . S
C1188 C87 1.859 . S
C1193 C769 1.859 . S
C1198 C103 1.859 . S
C1203 C785 1.862 . S
C1208 C125 1.862 . S
C1213 C153 1.861 . S
C1218 C543 1.861 . S
C1223 C565 1.860 . S
C1228 C175 1.860 . S
C1233 C183 1.859 . S
C1238 C587 1.859 . S
C1243 C219 1.859 . S
C1248 C345 1.859 . S
C1253 C241 1.863 . S
C1258 C373 1.863 . S
C1263 C257 1.860 . S
C1268 C389 1.860 . S
C1273 C279 1.861 . S
C1278 C675 1.861 . S
C1283 C703 1.859 . S
C1288 C301 1.859 . S
C1293 C323 1.859 . S
C1298 C725 1.859 . S
C1303 C609 1.862 . S
C1308 C477 1.862 . S
C1313 C505 1.860 . S
C1318 C631 1.860 . S
C1323 C659 1.862 . S
C1328 C521 1.862 . S
C1333 C7 1.701 1_556 S
C1338 C367 1.700 . S
C1343 C29 1.699 1_556 S
C1348 C381 1.698 . S
C1353 C337 1.699 . S
C1358 C51 1.698 1_556 S
C1363 C81 1.698 . S
C1368 C579 1.698 . S
C1373 C535 1.701 . S
C1378 C95 1.700 . S
C1383 C117 1.701 . S
C1388 C557 1.701 . S
C1393 C763 1.700 . S
C1398 C147 1.701 1_554 S
C1403 C169 1.700 1_554 S
C1408 C777 1.701 . S
C1413 C741 1.698 . S
C1418 C197 1.698 1_554 S
C1423 C213 1.701 . S
C1428 C447 1.701 . S
C1433 C235 1.698 . S
C1438 C417 1.698 . S
C1443 C249 1.701 . S
C1448 C439 1.701 . S
C1453 C623 1.701 . S
C1458 C271 1.701 . S
C1463 C293 1.698 . S
C1468 C653 1.698 . S
C1473 C315 1.698 . S
C1478 C601 1.698 . S
C1483 C719 1.698 . S
C1488 C469 1.698 . S
C1493 C667 1.698 . S
C1498 C499 1.698 . S
C1503 C697 1.699 . S
C1508 C513 1.698 . S
C1513 C74 1.099 . S
C1518 C10 1.099 . S
C1523 C32 1.099 . S
C1528 C98 1.099 . S
C1533 C54 1.099 . S
C1538 C120 1.099 . S
C1543 C206 1.099 . S
C1548 C140 1.099 . S
C1553 C162 1.099 . S
C1558 C228 1.099 . S
C1563 C252 1.099 . S
C1568 C194 1.099 . S
C1573 C340 1.099 . S
C1578 C274 1.099 . S
C1583 C296 1.099 . S
C1588 C360 1.099 . S
C1593 C318 1.099 . S
C1598 C384 1.099 . S
C1603 C414 1.099 . S
C1608 C472 1.099 . S
C1613 C436 1.099 . S
C1618 C492 1.099 . S
C1623 C450 1.099 . S
C1628 C516 1.099 . S
C1633 C538 1.099 . S
C1638 C604 1.099 . S
C1643 C626 1.099 . S
C1648 C560 1.099 . S
C1653 C646 1.099 . S
C1658 C582 1.099 . S
C1663 C670 1.099 . S
C1668 C734 1.099 . S
C1673 C756 1.099 . S
C1678 C690 1.099 . S
C1683 C712 1.099 . S
C1688 C780 1.099 . S
C1693 C18 1.580 . S
C1698 C648 1.580 . S
C1703 C612 1.581 . S
C1708 C40 1.583 . S
C1713 C62 1.584 . S
C1718 C634 1.582 . S
C1723 C304 1.582 . S
C1728 C76 1.580 . S
C1733 C106 1.580 . S
C1738 C326 1.580 . S
C1743 C128 1.584 . S
C1748 C282 1.584 . S
C1753 C524 1.584 . S
C1758 C142 1.584 . S
C1763 C164 1.583 . S
C1768 C480 1.584 . S
C1773 C494 1.582 . S
C1778 C184 1.584 . S
C1783 C208 1.580 . S
C1788 C692 1.582 . S
C1793 C714 1.581 . S
C1798 C230 1.582 . S
C1803 C678 1.580 . S
C1808 C260 1.580 . S
C1813 C348 1.584 . S
C1818 C568 1.583 . S
C1823 C362 1.581 . S
C1828 C590 1.580 . S
C1833 C392 1.580 . S
C1838 C546 1.580 . S
C1843 C404 1.580 . S
C1848 C788 1.580 . S
C1853 C426 1.583 . S
C1858 C736 1.584 . S
C1863 C758 1.583 . S
C1868 C458 1.584 . S
