# Generated by pormake.
# Topology ukg, (4)-cn, num edge types: 1
# Building blocks:
#     Node 0, Type 0, BuildingBlock: QUQFOY_clean_sbu_1, # of connection points: 4
#     Node 1, Type 0, BuildingBlock: QUQFOY_clean_sbu_1, # of connection points: 4
#     Node 2, Type 0, BuildingBlock: QUQFOY_clean_sbu_1, # of connection points: 4
#     Node 3, Type 0, BuildingBlock: QUQFOY_clean_sbu_1, # of connection points: 4
#     Node 4, Type 0, BuildingBlock: QUQFOY_clean_sbu_1, # of connection points: 4
#     Node 5, Type 0, BuildingBlock: QUQFOY_clean_sbu_1, # of connection points: 4
#     Node 6, Type 0, BuildingBlock: QUQFOY_clean_sbu_1, # of connection points: 4
#     Node 7, Type 0, BuildingBlock: QUQFOY_clean_sbu_1, # of connection points: 4
#     Edge 8, Type (0, 0), BuildingBlock: OJICUG_clean_linker_0, # of connection points: 2
#     Edge 9, Type (0, 0), BuildingBlock: OJICUG_clean_linker_0, # of connection points: 2
#     Edge 10, Type (0, 0), BuildingBlock: OJICUG_clean_linker_0, # of connection points: 2
#     Edge 11, Type (0, 0), BuildingBlock: OJICUG_clean_linker_0, # of connection points: 2
#     Edge 12, Type (0, 0), BuildingBlock: OJICUG_clean_linker_0, # of connection points: 2
#     Edge 13, Type (0, 0), BuildingBlock: OJICUG_clean_linker_0, # of connection points: 2
#     Edge 14, Type (0, 0), BuildingBlock: OJICUG_clean_linker_0, # of connection points: 2
#     Edge 15, Type (0, 0), BuildingBlock: OJICUG_clean_linker_0, # of connection points: 2
#     Edge 16, Type (0, 0), BuildingBlock: OJICUG_clean_linker_0, # of connection points: 2
#     Edge 17, Type (0, 0), BuildingBlock: OJICUG_clean_linker_0, # of connection points: 2
#     Edge 18, Type (0, 0), BuildingBlock: OJICUG_clean_linker_0, # of connection points: 2
#     Edge 19, Type (0, 0), BuildingBlock: OJICUG_clean_linker_0, # of connection points: 2
#     Edge 20, Type (0, 0), BuildingBlock: OJICUG_clean_linker_0, # of connection points: 2
#     Edge 21, Type (0, 0), BuildingBlock: OJICUG_clean_linker_0, # of connection points: 2
#     Edge 22, Type (0, 0), BuildingBlock: OJICUG_clean_linker_0, # of connection points: 2
#     Edge 23, Type (0, 0), BuildingBlock: OJICUG_clean_linker_0, # of connection points: 2
# Relax obj value: 0.026
# Max RMSD: 0.115
# Mean RMSD: 0.115
data_MOF--net-ukg--node1-QUQFOY_clean_sbu_1--edge1-OJICUG_clean_linker_0
_symmetry_space_group_name_H-M    P1
_symmetry_Int_Tables_number       1
_symmetry_cell_setting            triclinic
loop_
_symmetry_equiv_pos_as_xyz
'x, y, z'
_cell_length_a     24.399823
_cell_length_b     24.380009
_cell_length_c     25.409367
_cell_angle_alpha  89.885877
_cell_angle_beta   90.039322
_cell_angle_gamma 90.012197
loop_
_atom_site_label
_atom_site_type_symbol
_atom_site_fract_x
_atom_site_fract_y
_atom_site_fract_z
_atom_type_partial_charge
O0 O 0.93091 0.62684 0.27382 0.0
Cd1 Cd 0.96869 0.65337 0.20595 0.0
Cd2 Cd 0.04562 0.67753 0.2792 0.0
O3 O 0.00247 0.62426 0.32722 0.0
O4 O 0.9351 0.61044 0.147 0.0
O5 O 0.02213 0.60258 0.17032 0.0
C6 C 0.98184 0.58641 0.14106 0.0
C7 C 0.13962 0.69184 0.28374 0.0
C8 C 0.95221 0.61471 0.31797 0.0
C9 C 0.98087 0.76973 0.22766 0.0
O10 O 0.0095 0.75161 0.26557 0.0
O11 O 0.96249 0.73714 0.19281 0.0
O12 O 0.10833 0.70169 0.32334 0.0
O13 O 0.11834 0.66832 0.24304 0.0
O14 O 0.35922 0.43085 0.76973 0.0
Cd15 Cd 0.33337 0.46952 0.70202 0.0
Cd16 Cd 0.31214 0.54662 0.77499 0.0
O17 O 0.36612 0.50295 0.82192 0.0
O18 O 0.37596 0.43627 0.6427 0.0
O19 O 0.38472 0.52296 0.66695 0.0
C20 C 0.40054 0.48287 0.63731 0.0
C21 C 0.29839 0.64079 0.77962 0.0
C22 C 0.37334 0.45216 0.81326 0.0
C23 C 0.21805 0.48304 0.72551 0.0
O24 O 0.23753 0.51094 0.76323 0.0
O25 O 0.24948 0.46484 0.68964 0.0
O26 O 0.28938 0.60951 0.81953 0.0
O27 O 0.32085 0.6194 0.73846 0.0
O28 O 0.55849 0.86831 0.26808 0.0
Cd29 Cd 0.52327 0.83639 0.20119 0.0
Cd30 Cd 0.44802 0.80694 0.27723 0.0
O31 O 0.49036 0.86075 0.32512 0.0
O32 O 0.55652 0.87905 0.14173 0.0
O33 O 0.46866 0.88373 0.16251 0.0
C34 C 0.50908 0.90109 0.13405 0.0
C35 C 0.35454 0.78991 0.2828 0.0
C36 C 0.53832 0.87691 0.3134 0.0
C37 C 0.51665 0.71856 0.22433 0.0
O38 O 0.48623 0.73467 0.26165 0.0
O39 O 0.5348 0.75253 0.19045 0.0
O40 O 0.38678 0.77989 0.32175 0.0
O41 O 0.3745 0.81494 0.24224 0.0
O42 O 0.12579 0.06203 0.76786 0.0
Cd43 Cd 0.1552 0.02623 0.70025 0.0
Cd44 Cd 0.18429 0.94988 0.77487 0.0
O45 O 0.13111 0.99222 0.82345 0.0
O46 O 0.1115 0.05932 0.64142 0.0
O47 O 0.10646 0.97165 0.66344 0.0
C48 C 0.08891 0.01193 0.63481 0.0
C49 C 0.20095 0.85617 0.7801 0.0
C50 C 0.11672 0.04108 0.81284 0.0
C51 C 0.27285 0.01792 0.72117 0.0
O52 O 0.25675 0.98773 0.75879 0.0
O53 O 0.23879 0.0364 0.68758 0.0
O54 O 0.21139 0.88821 0.81903 0.0
O55 O 0.17568 0.87646 0.73981 0.0
O56 O 0.05129 0.38327 0.85811 0.0
Cd57 Cd 0.02009 0.34488 0.9238 0.0
Cd58 Cd 0.9473 0.31124 0.84628 0.0
O59 O 0.98786 0.36587 0.79813 0.0
O60 O 0.05387 0.38576 0.98405 0.0
O61 O 0.96515 0.38764 0.96659 0.0
C62 C 0.00595 0.40539 0.99426 0.0
C63 C 0.85386 0.29546 0.84182 0.0
C64 C 0.03231 0.38878 0.81181 0.0
C65 C 0.01967 0.22591 0.89842 0.0
O66 O 0.98684 0.23974 0.86208 0.0
O67 O 0.03748 0.2613 0.93106 0.0
O68 O 0.88549 0.28454 0.8027 0.0
O69 O 0.87466 0.31989 0.88226 0.0
O70 O 0.61268 0.55137 0.35684 0.0
Cd71 Cd 0.64734 0.52023 0.42448 0.0
Cd72 Cd 0.68563 0.44702 0.34831 0.0
O73 O 0.63377 0.48821 0.29774 0.0
O74 O 0.60379 0.55454 0.48273 0.0
O75 O 0.60264 0.46562 0.46621 0.0
C76 C 0.58388 0.50665 0.49287 0.0
C77 C 0.70318 0.35382 0.34255 0.0
C78 C 0.61012 0.53266 0.31026 0.0
C79 C 0.7674 0.52009 0.40469 0.0
O80 O 0.7558 0.48678 0.36813 0.0
O81 O 0.73022 0.53819 0.43525 0.0
O82 O 0.71572 0.38674 0.30479 0.0
O83 O 0.67611 0.37311 0.38208 0.0
O84 O 0.44005 0.11252 0.85253 0.0
Cd85 Cd 0.47029 0.14745 0.92022 0.0
Cd86 Cd 0.54326 0.18692 0.84467 0.0
O87 O 0.50285 0.13518 0.79354 0.0
O88 O 0.43594 0.10323 0.97813 0.0
O89 O 0.52496 0.10326 0.96233 0.0
C90 C 0.48392 0.08382 0.9886 0.0
C91 C 0.63651 0.20408 0.84038 0.0
C92 C 0.45885 0.11062 0.80595 0.0
C93 C 0.46921 0.2678 0.90063 0.0
O94 O 0.50304 0.25689 0.86433 0.0
O95 O 0.4512 0.23012 0.93083 0.0
O96 O 0.60434 0.21712 0.8022 0.0
O97 O 0.6164 0.17688 0.87956 0.0
O98 O 0.87974 0.93746 0.35631 0.0
Cd99 Cd 0.8433 0.97071 0.42191 0.0
Cd100 Cd 0.8119 0.04363 0.34473 0.0
O101 O 0.86655 0.00276 0.29706 0.0
O102 O 0.88475 0.93792 0.4824 0.0
O103 O 0.8877 0.02618 0.46247 0.0
C104 C 0.90539 0.98583 0.49093 0.0
C105 C 0.79667 0.13723 0.34116 0.0
C106 C 0.88688 0.95691 0.3104 0.0
C107 C 0.72489 0.97319 0.39654 0.0
O108 O 0.73987 0.0047 0.35951 0.0
O109 O 0.75949 0.95569 0.43019 0.0
O110 O 0.78615 0.10622 0.30147 0.0
O111 O 0.8207 0.11576 0.38158 0.0
C112 C 0.94817 0.47599 1.04039 0.0
C113 C -0.00096 0.44984 1.03377 0.0
H114 H 0.90298 0.53971 0.0788 0.0
C115 C 0.04429 0.4691 0.06279 0.0
H116 H 0.91255 0.46252 1.01847 0.0
C117 C 0.03887 0.51358 0.09726 0.0
C118 C 0.98813 0.54008 0.10348 0.0
H119 H 0.08417 0.45016 1.05852 0.0
H120 H 0.07457 0.52725 0.11896 0.0
C121 C 0.94279 0.52056 0.07476 0.0
C122 C 0.47386 0.5399 0.594 0.0
C123 C 0.44717 0.48917 0.60002 0.0
H124 H 0.53797 0.58511 0.55601 0.0
C125 C 0.46691 0.4438 0.57154 0.0
H126 H 0.46002 0.57563 0.6155 0.0
C127 C 0.512 0.4491 0.53773 0.0
C128 C 0.53842 0.49994 0.5314 0.0
H129 H 0.44763 0.40399 0.57543 0.0
H130 H 0.52572 0.41342 0.51608 0.0
C131 C 0.51882 0.54525 0.56005 0.0
C132 C 0.54776 0.96816 0.06852 0.0
C133 C 0.50227 0.94708 0.096 0.0
H134 H 0.57793 0.02799 1.01375 0.0
C135 C 0.45099 0.97225 0.08867 0.0
H136 H 0.58798 0.95007 0.07343 0.0
C137 C 0.4453 0.01718 1.05459 0.0
C138 C 0.49079 0.03822 1.02707 0.0
H139 H 0.41516 0.95739 0.10942 0.0
H140 H 0.40508 0.03523 1.04962 0.0
C141 C 0.5421 0.01316 1.03453 0.0
C142 C 0.97095 0.94813 0.55833 0.0
C143 C 0.95078 0.99316 0.52944 0.0
H144 H 0.03039 0.91847 0.6137 0.0
C145 C 0.97679 0.04424 0.53526 0.0
H146 H 0.95216 0.90807 0.55464 0.0
C147 C 0.02199 0.05009 0.56888 0.0
C148 C 0.04234 0.005 0.59756 0.0
H149 H 0.96265 0.07971 0.5134 0.0
H150 H 0.0409 0.0901 0.57243 0.0
C151 C 0.01611 0.95399 0.59199 0.0
C152 C 0.22142 0.7276 0.23539 0.0
C153 C 0.19609 0.71347 0.28317 0.0
H154 H 0.29079 0.76488 0.19785 0.0
C155 C 0.22245 0.72642 0.33071 0.0
H156 H 0.20156 0.71897 0.19817 0.0
C157 C 0.27336 0.75255 0.33052 0.0
C158 C 0.29842 0.76737 0.28282 0.0
H159 H 0.20359 0.7165 0.36813 0.0
H160 H 0.29311 0.76121 0.36779 0.0
C161 C 0.27194 0.75479 0.23522 0.0
C162 C 0.26214 0.72289 0.73178 0.0
C163 C 0.27691 0.69737 0.77935 0.0
H164 H 0.22455 0.79251 0.69479 0.0
C165 C 0.26473 0.72366 0.82707 0.0
H166 H 0.27017 0.7031 0.69444 0.0
C167 C 0.23874 0.77467 0.82726 0.0
C168 C 0.22331 0.79993 0.77978 0.0
H169 H 0.27513 0.70468 0.86435 0.0
H170 H 0.23068 0.79435 0.86466 0.0
C171 C 0.23511 0.77352 0.73201 0.0
C172 C 0.71976 0.23562 0.88888 0.0
C173 C 0.69314 0.22489 0.84097 0.0
H174 H 0.7911 0.26849 0.92674 0.0
C175 C 0.71886 0.23955 0.79358 0.0
H176 H 0.70037 0.22553 0.926 0.0
C177 C 0.77064 0.26379 0.79399 0.0
C178 C 0.79709 0.27505 0.84184 0.0
H179 H 0.69898 0.23216 0.75611 0.0
H180 H 0.79 0.27374 0.75681 0.0
C181 C 0.77113 0.26106 0.88933 0.0
C182 C 0.73958 0.27262 0.29466 0.0
C183 C 0.72456 0.29736 0.34237 0.0
H184 H 0.77461 0.20247 0.25699 0.0
C185 C 0.73556 0.27002 0.38992 0.0
H186 H 0.73202 0.29307 0.25746 0.0
C187 C 0.76156 0.21891 0.38971 0.0
C188 C 0.77591 0.19392 0.34191 0.0
H189 H 0.72521 0.28865 0.42728 0.0
H190 H 0.76913 0.19836 0.42686 0.0
C191 C 0.76443 0.22109 0.29441 0.0
C192 C 0.82929 0.6009 0.40404 0.0
C193 C 0.82292 0.54373 0.40381 0.0
H194 H 0.87709 0.66873 0.37595 0.0
C195 C 0.86677 0.51065 0.38689 0.0
H196 H 0.79587 0.62725 0.41614 0.0
C197 C 0.9133 0.53435 0.3643 0.0
C198 C 0.91633 0.59132 0.3584 0.0
H199 H 0.86261 0.4664 0.38612 0.0
H200 H 0.944 0.50809 0.34665 0.0
C201 C 0.87558 0.62458 0.38081 0.0
C202 C 0.3635 0.3741 0.87473 0.0
C203 C 0.39651 0.41587 0.85357 0.0
H204 H 0.36141 0.29397 0.9095 0.0
C205 C 0.45328 0.41403 0.861 0.0
H206 H 0.31951 0.37476 0.86879 0.0
C207 C 0.47727 0.36765 0.88377 0.0
C208 C 0.44463 0.32292 0.89957 0.0
H209 H 0.47937 0.44557 0.84437 0.0
H210 H 0.52156 0.36438 0.88409 0.0
C211 C 0.38741 0.32809 0.89832 0.0
C212 C 0.61002 0.87247 0.38225 0.0
C213 C 0.57329 0.90408 0.35228 0.0
H214 H 0.68775 0.87047 0.42186 0.0
C215 C 0.581 0.96078 0.34849 0.0
H216 H 0.60507 0.82837 0.38472 0.0
C217 C 0.62797 0.98478 0.36963 0.0
C218 C 0.66823 0.95223 0.3942 0.0
H219 H 0.55351 0.98562 0.3249 0.0
H220 H 0.63536 0.02793 0.36215 0.0
C221 C 0.65725 0.89654 0.40351 0.0
C222 C 0.09851 0.16086 0.90208 0.0
C223 C 0.04205 0.16978 0.89598 0.0
H224 H 0.1671 0.11089 0.87985 0.0
C225 C 0.00946 0.12809 0.87388 0.0
H226 H 0.12457 0.19254 0.9184 0.0
C227 C 0.0337 0.08157 0.85206 0.0
C228 C 0.09073 0.07593 0.85251 0.0
H229 H 0.96575 0.134 0.86879 0.0
H230 H 0.00842 0.05285 0.83041 0.0
C231 C 0.12281 0.11425 0.87996 0.0
C232 C 0.09647 0.38971 0.73618 0.0
C233 C 0.06579 0.41883 0.77363 0.0
H234 H 0.1701 0.38811 0.68998 0.0
C235 C 0.07855 0.47366 0.78397 0.0
H236 H 0.08747 0.34698 0.72833 0.0
C237 C 0.12504 0.49731 0.76172 0.0
C238 C 0.16023 0.46593 0.72988 0.0
H239 H 0.0555 0.49659 0.81299 0.0
H240 H 0.13646 0.53834 0.77388 0.0
C241 C 0.14369 0.41323 0.71427 0.0
C242 C 0.52643 0.57595 0.27567 0.0
C243 C 0.58267 0.5665 0.27055 0.0
H244 H 0.46039 0.6315 0.26193 0.0
C245 C 0.61412 0.60089 0.23799 0.0
H246 H 0.50169 0.55011 0.30102 0.0
C247 C 0.59073 0.64823 0.21604 0.0
C248 C 0.53584 0.66125 0.22687 0.0
H249 H 0.6579 0.59452 0.23432 0.0
H250 H 0.61698 0.67737 0.19599 0.0
C251 C 0.50301 0.62267 0.25344 0.0
C252 C 0.39117 0.11466 0.73339 0.0
C253 C 0.42535 0.08313 0.76611 0.0
H254 H 0.31465 0.11782 0.69171 0.0
C255 C 0.41561 0.0269 0.77155 0.0
H256 H 0.39776 0.15843 0.72948 0.0
C257 C 0.36874 0.00364 0.74964 0.0
C258 C 0.33029 0.03665 0.72308 0.0
H259 H 0.44129 0.0021 0.79701 0.0
H260 H 0.35964 0.96109 0.75845 0.0
C261 C 0.34367 0.09144 0.71179 0.0
C262 C 0.99508 0.86415 0.26054 0.0
C263 C 0.96327 0.82751 0.23062 0.0
H264 H 0.99495 0.93548 0.30951 0.0
C265 C 0.90996 0.84284 0.2158 0.0
H266 H 0.03654 0.8536 0.27208 0.0
C267 C 0.88648 0.89045 0.23682 0.0
C268 C 0.91629 0.92285 0.27242 0.0
H269 H 0.88452 0.81526 0.19302 0.0
H270 H 0.84342 0.89858 0.22981 0.0
C271 C 0.97153 0.91117 0.2818 0.0
loop_
_geom_bond_atom_site_label_1
_geom_bond_atom_site_label_2
_geom_bond_distance
_geom_bond_site_symmetry_2
_ccdc_geom_bond_type
O0 Cd1 2.223 . S
O0 C8 1.315 . S
Cd1 O0 2.223 . S
Cd1 O4 2.297 . S
Cd1 O5 2.439 1_655 S
Cd1 O11 2.240 . S
Cd2 O3 2.240 1_455 S
Cd2 O10 2.211 1_455 S
Cd2 O12 2.297 . S
Cd2 O13 2.439 . S
O3 Cd2 2.240 1_655 S
O3 C8 1.279 . S
O4 Cd1 2.297 . S
O4 C6 1.247 . S
O5 Cd1 2.439 1_455 S
O5 C6 1.208 1_455 S
C6 O4 1.247 . S
C6 O5 1.208 1_655 S
C7 O12 1.247 . S
C7 O13 1.208 . S
C8 O0 1.315 . S
C8 O3 1.279 . S
C9 O10 1.321 . S
C9 O11 1.279 . S
O10 Cd2 2.211 1_655 S
O10 C9 1.321 . S
O11 Cd1 2.240 . S
O11 C9 1.279 . S
O12 Cd2 2.297 . S
O12 C7 1.247 . S
O13 Cd2 2.439 . S
O13 C7 1.208 . S
O14 Cd15 2.223 . S
O14 C22 1.315 . S
Cd15 O14 2.223 . S
Cd15 O18 2.297 . S
Cd15 O19 2.439 . S
Cd15 O25 2.240 . S
Cd16 O17 2.240 . S
Cd16 O24 2.223 . S
Cd16 O26 2.297 . S
Cd16 O27 2.439 . S
O17 Cd16 2.240 . S
O17 C22 1.279 . S
O18 Cd15 2.297 . S
O18 C20 1.247 . S
O19 Cd15 2.439 . S
O19 C20 1.208 . S
C20 O18 1.247 . S
C20 O19 1.208 . S
C21 O26 1.247 . S
C21 O27 1.208 . S
C22 O14 1.315 . S
C22 O17 1.279 . S
C23 O24 1.315 . S
C23 O25 1.279 . S
O24 Cd16 2.223 . S
O24 C23 1.315 . S
O25 Cd15 2.240 . S
O25 C23 1.279 . S
O26 Cd16 2.297 . S
O26 C21 1.247 . S
O27 Cd16 2.439 . S
O27 C21 1.208 . S
O28 Cd29 2.223 . S
O28 C36 1.315 . S
Cd29 O28 2.223 . S
Cd29 O32 2.297 . S
Cd29 O33 2.439 . S
Cd29 O39 2.240 . S
Cd30 O31 2.240 . S
Cd30 O38 2.223 . S
Cd30 O40 2.297 . S
Cd30 O41 2.439 . S
O31 Cd30 2.240 . S
O31 C36 1.279 . S
O32 Cd29 2.297 . S
O32 C34 1.247 . S
O33 Cd29 2.439 . S
O33 C34 1.208 . S
C34 O32 1.247 . S
C34 O33 1.208 . S
C35 O40 1.247 . S
C35 O41 1.208 . S
C36 O28 1.315 . S
C36 O31 1.279 . S
C37 O38 1.315 . S
C37 O39 1.279 . S
O38 Cd30 2.223 . S
O38 C37 1.315 . S
O39 Cd29 2.240 . S
O39 C37 1.279 . S
O40 Cd30 2.297 . S
O40 C35 1.247 . S
O41 Cd30 2.439 . S
O41 C35 1.208 . S
O42 Cd43 2.223 . S
O42 C50 1.315 . S
Cd43 O42 2.223 . S
Cd43 O46 2.297 . S
Cd43 O47 2.439 1_545 S
Cd43 O53 2.240 . S
Cd44 O45 2.240 1_565 S
Cd44 O52 2.211 1_565 S
Cd44 O54 2.297 . S
Cd44 O55 2.439 . S
O45 Cd44 2.240 1_545 S
O45 C50 1.279 . S
O46 Cd43 2.297 . S
O46 C48 1.247 . S
O47 Cd43 2.439 1_565 S
O47 C48 1.208 1_565 S
C48 O46 1.247 . S
C48 O47 1.208 1_545 S
C49 O54 1.247 . S
C49 O55 1.208 . S
C50 O42 1.315 . S
C50 O45 1.279 . S
C51 O52 1.321 . S
C51 O53 1.279 . S
O52 Cd44 2.211 1_545 S
O52 C51 1.321 . S
O53 Cd43 2.240 . S
O53 C51 1.279 . S
O54 Cd44 2.297 . S
O54 C49 1.247 . S
O55 Cd44 2.439 . S
O55 C49 1.208 . S
O56 Cd57 2.223 . S
O56 C64 1.315 . S
Cd57 O56 2.223 . S
Cd57 O60 2.297 . S
Cd57 O61 2.439 1_455 S
Cd57 O67 2.240 . S
Cd58 O59 2.240 1_655 S
Cd58 O66 2.211 1_655 S
Cd58 O68 2.297 . S
Cd58 O69 2.439 . S
O59 Cd58 2.240 1_455 S
O59 C64 1.279 . S
O60 Cd57 2.297 . S
O60 C62 1.247 . S
O61 Cd57 2.439 1_655 S
O61 C62 1.208 1_655 S
C62 O60 1.247 . S
C62 O61 1.208 1_455 S
C63 O68 1.247 . S
C63 O69 1.208 . S
C64 O56 1.315 . S
C64 O59 1.279 . S
C65 O66 1.321 . S
C65 O67 1.279 . S
O66 Cd58 2.211 1_455 S
O66 C65 1.321 . S
O67 Cd57 2.240 . S
O67 C65 1.279 . S
O68 Cd58 2.297 . S
O68 C63 1.247 . S
O69 Cd58 2.439 . S
O69 C63 1.208 . S
O70 Cd71 2.223 . S
O70 C78 1.315 . S
Cd71 O70 2.223 . S
Cd71 O74 2.297 . S
Cd71 O75 2.439 . S
Cd71 O81 2.240 . S
Cd72 O73 2.240 . S
Cd72 O80 2.223 . S
Cd72 O82 2.297 . S
Cd72 O83 2.439 . S
O73 Cd72 2.240 . S
O73 C78 1.279 . S
O74 Cd71 2.297 . S
O74 C76 1.247 . S
O75 Cd71 2.439 . S
O75 C76 1.208 . S
C76 O74 1.247 . S
C76 O75 1.208 . S
C77 O82 1.247 . S
C77 O83 1.208 . S
C78 O70 1.315 . S
C78 O73 1.279 . S
C79 O80 1.315 . S
C79 O81 1.279 . S
O80 Cd72 2.223 . S
O80 C79 1.315 . S
O81 Cd71 2.240 . S
O81 C79 1.279 . S
O82 Cd72 2.297 . S
O82 C77 1.247 . S
O83 Cd72 2.439 . S
O83 C77 1.208 . S
O84 Cd85 2.223 . S
O84 C92 1.315 . S
Cd85 O84 2.223 . S
Cd85 O88 2.297 . S
Cd85 O89 2.439 . S
Cd85 O95 2.240 . S
Cd86 O87 2.240 . S
Cd86 O94 2.223 . S
Cd86 O96 2.297 . S
Cd86 O97 2.439 . S
O87 Cd86 2.240 . S
O87 C92 1.279 . S
O88 Cd85 2.297 . S
O88 C90 1.247 . S
O89 Cd85 2.439 . S
O89 C90 1.208 . S
C90 O88 1.247 . S
C90 O89 1.208 . S
C91 O96 1.247 . S
C91 O97 1.208 . S
C92 O84 1.315 . S
C92 O87 1.279 . S
C93 O94 1.315 . S
C93 O95 1.279 . S
O94 Cd86 2.223 . S
O94 C93 1.315 . S
O95 Cd85 2.240 . S
O95 C93 1.279 . S
O96 Cd86 2.297 . S
O96 C91 1.247 . S
O97 Cd86 2.439 . S
O97 C91 1.208 . S
O98 Cd99 2.223 . S
O98 C106 1.315 . S
Cd99 O98 2.223 . S
Cd99 O102 2.297 . S
Cd99 O103 2.439 1_565 S
Cd99 O109 2.240 . S
Cd100 O101 2.240 1_545 S
Cd100 O108 2.211 1_545 S
Cd100 O110 2.297 . S
Cd100 O111 2.439 . S
O101 Cd100 2.240 1_565 S
O101 C106 1.279 . S
O102 Cd99 2.297 . S
O102 C104 1.247 . S
O103 Cd99 2.439 1_545 S
O103 C104 1.208 1_545 S
C104 O102 1.247 . S
C104 O103 1.208 1_565 S
C105 O110 1.247 . S
C105 O111 1.208 . S
C106 O98 1.315 . S
C106 O101 1.279 . S
C107 O108 1.321 . S
C107 O109 1.279 . S
O108 Cd100 2.211 1_565 S
O108 C107 1.321 . S
O109 Cd99 2.240 . S
O109 C107 1.279 . S
O110 Cd100 2.297 . S
O110 C105 1.247 . S
O111 Cd100 2.439 . S
O111 C105 1.208 . S
C112 C113 1.370 1_655 S
C112 H116 0.950 . S
C112 C121 1.390 1_556 S
C113 C112 1.370 1_455 S
C113 C115 1.404 . S
H114 C121 0.950 . S
C115 C113 1.404 . S
C115 C117 1.390 1_556 S
C115 H119 0.950 . S
H116 C112 0.950 . S
C117 C115 1.390 1_554 S
C117 C118 1.370 1_455 S
C117 H120 0.950 . S
C118 C117 1.370 1_655 S
C118 C121 1.404 . S
H119 C115 0.950 . S
H120 C117 0.950 . S
C121 C112 1.390 1_554 S
C121 H114 0.950 . S
C121 C118 1.404 . S
C122 C123 1.387 . S
C122 H126 0.950 . S
C122 C131 1.390 . S
C123 C122 1.387 . S
C123 C125 1.387 . S
H124 C131 0.950 . S
C125 C123 1.387 . S
C125 C127 1.390 . S
C125 H129 0.950 . S
H126 C122 0.950 . S
C127 C125 1.390 . S
C127 C128 1.387 . S
C127 H130 0.950 . S
C128 C127 1.387 . S
C128 C131 1.387 . S
H129 C125 0.950 . S
H130 C127 0.950 . S
C131 C122 1.390 . S
C131 H124 0.950 . S
C131 C128 1.387 . S
C132 C133 1.387 . S
C132 H136 0.950 . S
C132 C141 1.390 1_564 S
C133 C132 1.387 . S
C133 C135 1.387 . S
H134 C141 0.950 . S
C135 C133 1.387 . S
C135 C137 1.390 1_564 S
C135 H139 0.950 . S
H136 C132 0.950 . S
C137 C135 1.390 1_546 S
C137 C138 1.387 . S
C137 H140 0.950 . S
C138 C137 1.387 . S
C138 C141 1.387 . S
H139 C135 0.950 . S
H140 C137 0.950 . S
C141 C132 1.390 1_546 S
C141 H134 0.950 . S
C141 C138 1.387 . S
C142 C143 1.404 . S
C142 H146 0.950 . S
C142 C151 1.390 1_655 S
C143 C142 1.404 . S
C143 C145 1.371 1_565 S
H144 C151 0.950 . S
C145 C143 1.371 1_545 S
C145 C147 1.390 1_655 S
C145 H149 0.950 . S
H146 C142 0.950 . S
C147 C145 1.390 1_455 S
C147 C148 1.404 . S
C147 H150 0.950 . S
C148 C147 1.404 . S
C148 C151 1.371 1_545 S
H149 C145 0.950 . S
H150 C147 0.950 . S
C151 C142 1.390 1_455 S
C151 H144 0.950 . S
C151 C148 1.371 1_565 S
C152 C153 1.387 . S
C152 H156 0.950 . S
C152 C161 1.390 . S
C153 C152 1.387 . S
C153 C155 1.387 . S
H154 C161 0.950 . S
C155 C153 1.387 . S
C155 C157 1.390 . S
C155 H159 0.950 . S
H156 C152 0.950 . S
C157 C155 1.390 . S
C157 C158 1.387 . S
C157 H160 0.950 . S
C158 C157 1.387 . S
C158 C161 1.387 . S
H159 C155 0.950 . S
H160 C157 0.950 . S
C161 C152 1.390 . S
C161 H154 0.950 . S
C161 C158 1.387 . S
C162 C163 1.387 . S
C162 H166 0.950 . S
C162 C171 1.390 . S
C163 C162 1.387 . S
C163 C165 1.387 . S
H164 C171 0.950 . S
C165 C163 1.387 . S
C165 C167 1.390 . S
C165 H169 0.950 . S
H166 C162 0.950 . S
C167 C165 1.390 . S
C167 C168 1.387 . S
C167 H170 0.950 . S
C168 C167 1.387 . S
C168 C171 1.387 . S
H169 C165 0.950 . S
H170 C167 0.950 . S
C171 C162 1.390 . S
C171 H164 0.950 . S
C171 C168 1.387 . S
C172 C173 1.387 . S
C172 H176 0.950 . S
C172 C181 1.390 . S
C173 C172 1.387 . S
C173 C175 1.387 . S
H174 C181 0.950 . S
C175 C173 1.387 . S
C175 C177 1.390 . S
C175 H179 0.950 . S
H176 C172 0.950 . S
C177 C175 1.390 . S
C177 C178 1.387 . S
C177 H180 0.950 . S
C178 C177 1.387 . S
C178 C181 1.387 . S
H179 C175 0.950 . S
H180 C177 0.950 . S
C181 C172 1.390 . S
C181 H174 0.950 . S
C181 C178 1.387 . S
C182 C183 1.387 . S
C182 H186 0.950 . S
C182 C191 1.390 . S
C183 C182 1.387 . S
C183 C185 1.387 . S
H184 C191 0.950 . S
C185 C183 1.387 . S
C185 C187 1.390 . S
C185 H189 0.950 . S
H186 C182 0.950 . S
C187 C185 1.390 . S
C187 C188 1.387 . S
C187 H190 0.950 . S
C188 C187 1.387 . S
C188 C191 1.387 . S
H189 C185 0.950 . S
H190 C187 0.950 . S
C191 C182 1.390 . S
C191 H184 0.950 . S
C191 C188 1.387 . S
C192 C193 1.387 . S
C192 H196 0.950 . S
C192 C201 1.390 . S
C193 C192 1.387 . S
C193 C195 1.387 . S
H194 C201 0.950 . S
C195 C193 1.387 . S
C195 C197 1.390 . S
C195 H199 0.950 . S
H196 C192 0.950 . S
C197 C195 1.390 . S
C197 C198 1.387 . S
C197 H200 0.950 . S
C198 C197 1.387 . S
C198 C201 1.387 . S
H199 C195 0.950 . S
H200 C197 0.950 . S
C201 C192 1.390 . S
C201 H194 0.950 . S
C201 C198 1.387 . S
C202 C203 1.387 . S
C202 H206 0.950 . S
C202 C211 1.390 . S
C203 C202 1.387 . S
C203 C205 1.387 . S
H204 C211 0.950 . S
C205 C203 1.387 . S
C205 C207 1.390 . S
C205 H209 0.950 . S
H206 C202 0.950 . S
C207 C205 1.390 . S
C207 C208 1.387 . S
C207 H210 0.950 . S
C208 C207 1.387 . S
C208 C211 1.387 . S
H209 C205 0.950 . S
H210 C207 0.950 . S
C211 C202 1.390 . S
C211 H204 0.950 . S
C211 C208 1.387 . S
C212 C213 1.387 . S
C212 H216 0.950 . S
C212 C221 1.390 . S
C213 C212 1.387 . S
C213 C215 1.387 . S
H214 C221 0.950 . S
C215 C213 1.387 . S
C215 C217 1.390 . S
C215 H219 0.950 . S
H216 C212 0.950 . S
C217 C215 1.390 . S
C217 C218 1.387 . S
C217 H220 0.950 . S
C218 C217 1.387 . S
C218 C221 1.387 . S
H219 C215 0.950 . S
H220 C217 0.950 . S
C221 C212 1.390 . S
C221 H214 0.950 . S
C221 C218 1.387 . S
C222 C223 1.387 . S
C222 H226 0.950 . S
C222 C231 1.390 . S
C223 C222 1.387 . S
C223 C225 1.387 . S
H224 C231 0.950 . S
C225 C223 1.387 . S
C225 C227 1.390 . S
C225 H229 0.950 . S
H226 C222 0.950 . S
C227 C225 1.390 . S
C227 C228 1.387 . S
C227 H230 0.950 . S
C228 C227 1.387 . S
C228 C231 1.387 . S
H229 C225 0.950 . S
H230 C227 0.950 . S
C231 C222 1.390 . S
C231 H224 0.950 . S
C231 C228 1.387 . S
C232 C233 1.387 . S
C232 H236 0.950 . S
C232 C241 1.390 . S
C233 C232 1.387 . S
C233 C235 1.387 . S
H234 C241 0.950 . S
C235 C233 1.387 . S
C235 C237 1.390 . S
C235 H239 0.950 . S
H236 C232 0.950 . S
C237 C235 1.390 . S
C237 C238 1.387 . S
C237 H240 0.950 . S
C238 C237 1.387 . S
C238 C241 1.387 . S
H239 C235 0.950 . S
H240 C237 0.950 . S
C241 C232 1.390 . S
C241 H234 0.950 . S
C241 C238 1.387 . S
C242 C243 1.387 . S
C242 H246 0.950 . S
C242 C251 1.390 . S
C243 C242 1.387 . S
C243 C245 1.387 . S
H244 C251 0.950 . S
C245 C243 1.387 . S
C245 C247 1.390 . S
C245 H249 0.950 . S
H246 C242 0.950 . S
C247 C245 1.390 . S
C247 C248 1.387 . S
C247 H250 0.950 . S
C248 C247 1.387 . S
C248 C251 1.387 . S
H249 C245 0.950 . S
H250 C247 0.950 . S
C251 C242 1.390 . S
C251 H244 0.950 . S
C251 C248 1.387 . S
C252 C253 1.387 . S
C252 H256 0.950 . S
C252 C261 1.390 . S
C253 C252 1.387 . S
C253 C255 1.387 . S
H254 C261 0.950 . S
C255 C253 1.387 . S
C255 C257 1.390 . S
C255 H259 0.950 . S
H256 C252 0.950 . S
C257 C255 1.390 . S
C257 C258 1.387 . S
C257 H260 0.944 1_545 S
C258 C257 1.387 . S
C258 C261 1.387 . S
H259 C255 0.950 . S
H260 C257 0.944 1_565 S
C261 C252 1.390 . S
C261 H254 0.950 . S
C261 C258 1.387 . S
C262 C263 1.387 . S
C262 H266 0.950 . S
C262 C271 1.390 . S
C263 C262 1.387 . S
C263 C265 1.387 . S
H264 C271 0.950 . S
C265 C263 1.387 . S
C265 C267 1.390 . S
C265 H269 0.950 . S
H266 C262 0.950 . S
C267 C265 1.390 . S
C267 C268 1.387 . S
C267 H270 0.950 . S
C268 C267 1.387 . S
C268 C271 1.387 . S
H269 C265 0.950 . S
H270 C267 0.950 . S
C271 C262 1.390 . S
C271 H264 0.950 . S
C271 C268 1.387 . S
C113 C62 1.507 . S
C118 C6 1.507 . S
C123 C20 1.504 . S
C128 C76 1.504 . S
C133 C34 1.505 . S
C138 C90 1.505 . S
C143 C104 1.507 . S
C148 C48 1.507 . S
C153 C7 1.395 . S
C158 C35 1.395 . S
C163 C21 1.395 . S
C168 C49 1.395 . S
C173 C91 1.394 . S
C178 C63 1.394 . S
C183 C77 1.395 . S
C188 C105 1.395 . S
C193 C79 1.438 . S
C198 C8 1.384 . S
C203 C22 1.384 . S
C208 C93 1.437 . S
C213 C36 1.382 . S
C218 C107 1.439 . S
C223 C65 1.439 . S
C228 C50 1.383 . S
C233 C64 1.380 . S
C238 C23 1.438 . S
C243 C78 1.384 . S
C248 C37 1.438 . S
C253 C92 1.380 . S
C258 C51 1.437 . S
C263 C9 1.439 . S
C268 C106 1.382 . S
