# Generated by pormake.
# Topology ske, (6)-cn, num edge types: 1
# Building blocks:
#     Node 0, Type 0, BuildingBlock: MIFKUJ_clean_sbu_0, # of connection points: 6
#     Node 1, Type 0, BuildingBlock: MIFKUJ_clean_sbu_0, # of connection points: 6
#     Node 2, Type 0, BuildingBlock: MIFKUJ_clean_sbu_0, # of connection points: 6
#     Node 3, Type 0, BuildingBlock: MIFKUJ_clean_sbu_0, # of connection points: 6
#     Node 4, Type 0, BuildingBlock: MIFKUJ_clean_sbu_0, # of connection points: 6
#     Node 5, Type 0, BuildingBlock: MIFKUJ_clean_sbu_0, # of connection points: 6
#     Node 6, Type 0, BuildingBlock: MIFKUJ_clean_sbu_0, # of connection points: 6
#     Node 7, Type 0, BuildingBlock: MIFKUJ_clean_sbu_0, # of connection points: 6
#     Edge 8, Type (0, 0), BuildingBlock: EZIPEK_clean_linker_0, # of connection points: 2
#     Edge 9, Type (0, 0), BuildingBlock: EZIPEK_clean_linker_0, # of connection points: 2
#     Edge 10, Type (0, 0), BuildingBlock: EZIPEK_clean_linker_0, # of connection points: 2
#     Edge 11, Type (0, 0), BuildingBlock: EZIPEK_clean_linker_0, # of connection points: 2
#     Edge 12, Type (0, 0), BuildingBlock: EZIPEK_clean_linker_0, # of connection points: 2
#     Edge 13, Type (0, 0), BuildingBlock: EZIPEK_clean_linker_0, # of connection points: 2
#     Edge 14, Type (0, 0), BuildingBlock: EZIPEK_clean_linker_0, # of connection points: 2
#     Edge 15, Type (0, 0), BuildingBlock: EZIPEK_clean_linker_0, # of connection points: 2
#     Edge 16, Type (0, 0), BuildingBlock: EZIPEK_clean_linker_0, # of connection points: 2
#     Edge 17, Type (0, 0), BuildingBlock: EZIPEK_clean_linker_0, # of connection points: 2
#     Edge 18, Type (0, 0), BuildingBlock: EZIPEK_clean_linker_0, # of connection points: 2
#     Edge 19, Type (0, 0), BuildingBlock: EZIPEK_clean_linker_0, # of connection points: 2
#     Edge 20, Type (0, 0), BuildingBlock: EZIPEK_clean_linker_0, # of connection points: 2
#     Edge 21, Type (0, 0), BuildingBlock: EZIPEK_clean_linker_0, # of connection points: 2
#     Edge 22, Type (0, 0), BuildingBlock: EZIPEK_clean_linker_0, # of connection points: 2
#     Edge 23, Type (0, 0), BuildingBlock: EZIPEK_clean_linker_0, # of connection points: 2
#     Edge 24, Type (0, 0), BuildingBlock: EZIPEK_clean_linker_0, # of connection points: 2
#     Edge 25, Type (0, 0), BuildingBlock: EZIPEK_clean_linker_0, # of connection points: 2
#     Edge 26, Type (0, 0), BuildingBlock: EZIPEK_clean_linker_0, # of connection points: 2
#     Edge 27, Type (0, 0), BuildingBlock: EZIPEK_clean_linker_0, # of connection points: 2
#     Edge 28, Type (0, 0), BuildingBlock: EZIPEK_clean_linker_0, # of connection points: 2
#     Edge 29, Type (0, 0), BuildingBlock: EZIPEK_clean_linker_0, # of connection points: 2
#     Edge 30, Type (0, 0), BuildingBlock: EZIPEK_clean_linker_0, # of connection points: 2
#     Edge 31, Type (0, 0), BuildingBlock: EZIPEK_clean_linker_0, # of connection points: 2
# Relax obj value: 0.143
# Max RMSD: 0.179
# Mean RMSD: 0.158
data_MOF--net-ske--node1-MIFKUJ_clean_sbu_0--edge1-EZIPEK_clean_linker_0
_symmetry_space_group_name_H-M    P1
_symmetry_Int_Tables_number       1
_symmetry_cell_setting            triclinic
loop_
_symmetry_equiv_pos_as_xyz
'x, y, z'
_cell_length_a     55.913259
_cell_length_b     20.192947
_cell_length_c     13.349734
_cell_angle_alpha  90.834082
_cell_angle_beta   89.985885
_cell_angle_gamma 84.364236
loop_
_atom_site_label
_atom_site_type_symbol
_atom_site_fract_x
_atom_site_fract_y
_atom_site_fract_z
_atom_type_partial_charge
Zn0 Zn 0.15758 0.24065 0.61465 0.0
Zn1 Zn 0.104 0.24032 0.43311 0.0
C2 C 0.14854 0.26111 0.82743 0.0
O3 O 0.17124 0.27239 0.829 0.0
C4 C 0.10589 0.23187 0.21698 0.0
O5 O 0.08829 0.19431 0.23018 0.0
O6 O 0.19253 0.24303 0.6516 0.0
O7 O 0.15385 0.1519 0.56019 0.0
O8 O 0.12063 0.15264 0.46728 0.0
C9 C 0.20609 0.18979 0.66672 0.0
O10 O 0.19774 0.13187 0.65204 0.0
O11 O 0.13836 0.24968 0.74442 0.0
C12 C 0.05303 0.28041 0.42428 0.0
O13 O 0.06032 0.3402 0.42264 0.0
O14 O 0.06841 0.22983 0.4282 0.0
O15 O 0.10913 0.31698 0.52634 0.0
O16 O 0.14878 0.31357 0.51856 0.0
O17 O 0.11523 0.25852 0.29253 0.0
C18 C 0.13891 0.12282 0.50886 0.0
C19 C 0.12822 0.34603 0.52199 0.0
Zn20 Zn 0.90201 0.23247 0.44029 0.0
Zn21 Zn 0.85037 0.24231 0.60682 0.0
C22 C 0.8979 0.24726 0.22097 0.0
O23 O 0.92028 0.2609 0.22918 0.0
C24 C 0.86052 0.22848 0.81712 0.0
O25 O 0.84078 0.19846 0.81146 0.0
O26 O 0.93818 0.22796 0.42101 0.0
O27 O 0.89264 0.31755 0.51766 0.0
O28 O 0.85316 0.31861 0.51433 0.0
C29 C 0.94989 0.2784 0.43325 0.0
O30 O 0.93846 0.33656 0.45603 0.0
O31 O 0.88633 0.23412 0.29958 0.0
C32 C 0.7993 0.2171 0.638 0.0
O33 O 0.80341 0.16264 0.58315 0.0
O34 O 0.81584 0.25493 0.65238 0.0
O35 O 0.85778 0.15041 0.54799 0.0
O36 O 0.89656 0.14613 0.50668 0.0
O37 O 0.86924 0.25135 0.73775 0.0
C38 C 0.8719 0.34909 0.5151 0.0
C39 C 0.87778 0.11781 0.52593 0.0
Zn40 Zn 0.15864 0.72486 0.38944 0.0
Zn41 Zn 0.10315 0.76004 0.57492 0.0
C42 C 0.14888 0.74558 0.17578 0.0
O43 O 0.17233 0.74136 0.16851 0.0
C44 C 0.10571 0.73154 0.78548 0.0
O45 O 0.09306 0.68296 0.75815 0.0
O46 O 0.19433 0.7069 0.3577 0.0
O47 O 0.15472 0.79931 0.48879 0.0
O48 O 0.11582 0.83225 0.49638 0.0
C49 C 0.20663 0.75157 0.32434 0.0
O50 O 0.19645 0.81265 0.31587 0.0
O51 O 0.13905 0.74251 0.26138 0.0
C52 C 0.05404 0.72197 0.57421 0.0
O53 O 0.06423 0.66145 0.58849 0.0
O54 O 0.06694 0.76999 0.56488 0.0
O55 O 0.11586 0.66817 0.53859 0.0
O56 O 0.14841 0.64209 0.44345 0.0
O57 O 0.1118 0.77215 0.72052 0.0
C58 C 0.13738 0.84406 0.48063 0.0
C59 C 0.13114 0.62628 0.49666 0.0
Zn60 Zn 0.84526 0.74239 0.37794 0.0
Zn61 Zn 0.90208 0.73696 0.59158 0.0
C62 C 0.85481 0.76761 0.17735 0.0
O63 O 0.8414 0.8229 0.19975 0.0
C64 C 0.90258 0.73027 0.7976 0.0
O65 O 0.91666 0.6761 0.7753 0.0
O66 O 0.80956 0.73618 0.36977 0.0
O67 O 0.86327 0.67549 0.47056 0.0
O68 O 0.89119 0.64557 0.58258 0.0
C69 C 0.80237 0.68982 0.31563 0.0
O70 O 0.8181 0.64278 0.28011 0.0
O71 O 0.8589 0.72309 0.24277 0.0
C72 C 0.95041 0.77844 0.57544 0.0
O73 O 0.94013 0.83814 0.59786 0.0
O74 O 0.93757 0.73044 0.56399 0.0
O75 O 0.88 0.78748 0.5002 0.0
O76 O 0.85232 0.83723 0.40812 0.0
O77 O 0.89482 0.769 0.7287 0.0
C78 C 0.87394 0.63151 0.52646 0.0
C79 C 0.87012 0.84104 0.46563 0.0
Zn80 Zn 0.65748 0.73202 0.10578 0.0
Zn81 Zn 0.60552 0.72978 0.941 0.0
C82 C 0.64982 0.72611 0.32246 0.0
O83 O 0.67337 0.7201 0.32337 0.0
C84 C 0.60814 0.73793 0.7209 0.0
O85 O 0.58462 0.74354 0.72733 0.0
O86 O 0.69226 0.73513 0.14575 0.0
O87 O 0.65621 0.6458 0.02847 0.0
O88 O 0.61718 0.64151 1.00178 0.0
C89 C 0.70747 0.68397 0.14606 0.0
O90 O 0.70133 0.62681 0.11163 0.0
O91 O 0.63865 0.73181 0.239 0.0
C92 C 0.55486 0.77814 0.92539 0.0
O93 O 0.5629 0.83701 0.93051 0.0
O94 O 0.5696 0.72599 0.92598 0.0
O95 O 0.60913 0.81607 0.01703 0.0
O96 O 0.64853 0.81747 0.03268 0.0
O97 O 0.62067 0.73182 0.80067 0.0
C98 C 0.63831 0.61305 0.01263 0.0
C99 C 0.62775 0.84733 0.01847 0.0
Zn100 Zn 0.40393 0.73161 0.94197 0.0
Zn101 Zn 0.35124 0.73975 0.1064 0.0
C102 C 0.40061 0.74822 0.72279 0.0
O103 O 0.42329 0.75869 0.73196 0.0
C104 C 0.36115 0.73563 0.32312 0.0
O105 O 0.34083 0.70864 0.32573 0.0
O106 O 0.44004 0.72808 0.92401 0.0
O107 O 0.39412 0.81457 0.02399 0.0
O108 O 0.35477 0.81547 0.01284 0.0
C109 C 0.45159 0.77858 0.9385 0.0
O110 O 0.44002 0.83607 0.96393 0.0
O111 O 0.38859 0.73616 0.80072 0.0
C112 C 0.30453 0.70292 0.17539 0.0
O113 O 0.31586 0.64317 0.18487 0.0
O114 O 0.31562 0.74914 0.13925 0.0
O115 O 0.36023 0.64718 0.05161 0.0
O116 O 0.39847 0.64363 1.00242 0.0
O117 O 0.36951 0.75272 0.2393 0.0
C118 C 0.37347 0.84612 0.01665 0.0
C119 C 0.38006 0.61495 0.02606 0.0
Zn120 Zn 0.662 0.22635 0.88753 0.0
Zn121 Zn 0.60478 0.23489 0.08702 0.0
C122 C 0.65289 0.2283 0.68317 0.0
O123 O 0.67117 0.1823 0.68766 0.0
C124 C 0.60711 0.25966 0.2975 0.0
O125 O 0.59202 0.3113 0.27507 0.0
O126 O 0.69778 0.22705 0.86868 0.0
O127 O 0.65018 0.28212 0.0106 0.0
O128 O 0.61385 0.32503 0.05299 0.0
C129 C 0.70662 0.27448 0.82477 0.0
O130 O 0.69153 0.32198 0.78841 0.0
O131 O 0.64512 0.25785 0.76295 0.0
C132 C 0.55492 0.21099 0.12267 0.0
O133 O 0.56348 0.18143 0.20382 0.0
O134 O 0.5692 0.23387 0.0609 0.0
O135 O 0.62627 0.17538 1.00078 0.0
O136 O 0.65436 0.13041 0.90282 0.0
O137 O 0.61437 0.21819 0.22919 0.0
C138 C 0.6342 0.33173 0.01382 0.0
C139 C 0.63656 0.1237 0.95933 0.0
Zn140 Zn 0.34652 0.24221 0.87584 0.0
Zn141 Zn 0.40349 0.23399 0.08823 0.0
C142 C 0.35676 0.26942 0.67685 0.0
O143 O 0.3443 0.32589 0.7012 0.0
C144 C 0.40311 0.22858 0.29456 0.0
O145 O 0.41678 0.17341 0.27384 0.0
O146 O 0.31073 0.23784 0.86597 0.0
O147 O 0.36394 0.17263 0.96723 0.0
O148 O 0.39206 0.14345 0.07938 0.0
C149 C 0.30306 0.18992 0.81678 0.0
O150 O 0.31837 0.14116 0.78325 0.0
O151 O 0.36003 0.2235 0.74053 0.0
C152 C 0.45209 0.27296 0.07734 0.0
O153 O 0.44177 0.3329 0.09801 0.0
O154 O 0.43916 0.22544 0.06332 0.0
O155 O 0.38171 0.28424 0.99625 0.0
O156 O 0.35404 0.33651 0.90749 0.0
O157 O 0.39589 0.26712 0.22462 0.0
C158 C 0.37472 0.12915 0.02389 0.0
C159 C 0.37207 0.33874 0.96403 0.0
C160 C 0.23735 0.1572 0.79646 0.0
C161 C 0.23054 0.19291 0.7083 0.0
C162 C 0.26996 0.23627 0.70391 0.0
C163 C 0.27771 0.19375 0.78385 0.0
N164 N 0.26987 0.10801 0.8997 0.0
N165 N 0.24154 0.25864 0.5689 0.0
C166 C 0.26173 0.15233 0.82802 0.0
C167 C 0.24707 0.23092 0.65992 0.0
N168 N 0.22031 0.13095 0.8531 0.0
N169 N 0.28448 0.28162 0.6695 0.0
H170 H 0.22531 0.25416 0.5322 0.0
H171 H 0.25386 0.28071 0.52502 0.0
H172 H 0.30179 0.28509 0.69632 0.0
H173 H 0.2787 0.31926 0.62003 0.0
H174 H 0.22385 0.10999 0.92301 0.0
H175 H 0.20205 0.13632 0.83563 0.0
H176 H 0.25983 0.07101 0.9259 0.0
H177 H 0.28731 0.10528 0.92819 0.0
C178 C 0.74844 0.21279 0.82701 0.0
C179 C 0.73283 0.26863 0.79657 0.0
C180 C 0.76207 0.2939 0.66925 0.0
C181 C 0.77605 0.23325 0.69033 0.0
N182 N 0.78291 0.13389 0.78898 0.0
N183 N 0.73214 0.37936 0.73056 0.0
C184 C 0.76936 0.19234 0.76924 0.0
C185 C 0.74169 0.31444 0.72955 0.0
N186 N 0.74467 0.18398 0.91691 0.0
N187 N 0.76769 0.33069 0.5889 0.0
H188 H 0.71991 0.39847 0.78514 0.0
H189 H 0.73905 0.41624 0.6887 0.0
H190 H 0.78233 0.31701 0.54204 0.0
H191 H 0.75656 0.37131 0.5632 0.0
H192 H 0.75625 0.14614 0.94755 0.0
H193 H 0.73185 0.20467 0.96809 0.0
H194 H 0.77728 0.09781 0.83612 0.0
H195 H 0.79924 0.11923 0.75373 0.0
C196 C 0.27315 0.7686 0.28357 0.0
C197 C 0.27937 0.71653 0.21229 0.0
C198 C 0.23823 0.68322 0.21973 0.0
C199 C 0.23197 0.73558 0.29056 0.0
N200 N 0.24464 0.81728 0.40732 0.0
N201 N 0.26691 0.63363 0.09716 0.0
C202 C 0.2497 0.77581 0.32634 0.0
C203 C 0.26174 0.67577 0.17728 0.0
N204 N 0.28947 0.81196 0.31007 0.0
N205 N 0.22191 0.63985 0.19324 0.0
H206 H 0.2835 0.62877 0.06074 0.0
H207 H 0.25424 0.60816 0.05961 0.0
H208 H 0.20391 0.64559 0.21376 0.0
H209 H 0.22649 0.59497 0.15543 0.0
H210 H 0.28488 0.8569 0.34776 0.0
H211 H 0.30751 0.8058 0.28999 0.0
H212 H 0.25738 0.84254 0.44485 0.0
H213 H 0.22816 0.8214 0.44458 0.0
C214 C 0.74624 0.73624 0.16225 0.0
C215 C 0.73128 0.68762 0.19357 0.0
C216 C 0.7627 0.64175 0.30872 0.0
C217 C 0.77707 0.69273 0.28148 0.0
N218 N 0.78062 0.79657 0.19708 0.0
N219 N 0.72285 0.60448 0.31365 0.0
C220 C 0.76815 0.74282 0.21355 0.0
C221 C 0.73883 0.6431 0.2715 0.0
N222 N 0.74027 0.77345 0.07946 0.0
N223 N 0.77186 0.59189 0.37005 0.0
H224 H 0.70495 0.60555 0.29141 0.0
H225 H 0.7266 0.57622 0.37737 0.0
H226 H 0.7886 0.59169 0.40463 0.0
H227 H 0.76346 0.54889 0.38215 0.0
H228 H 0.75178 0.80426 0.04623 0.0
H229 H 0.72479 0.76883 0.03752 0.0
H230 H 0.77354 0.83833 0.15817 0.0
H231 H 0.79724 0.80238 0.22907 0.0
C232 C 0.13847 0.94516 0.58523 0.0
C233 C 0.14243 0.91318 0.49098 0.0
C234 C 0.14989 0.01792 0.41457 0.0
C235 C 0.14179 0.05073 0.50445 0.0
N236 N 0.12598 0.04813 0.67277 0.0
N237 N 0.15206 0.9162 0.31534 0.0
C238 C 0.13563 0.01515 0.58969 0.0
C239 C 0.14853 0.94855 0.40545 0.0
N240 N 0.13785 0.90841 0.67018 0.0
N241 N 0.159 0.05308 0.33907 0.0
H242 H 0.15188 0.86485 0.30764 0.0
H243 H 0.15396 0.94023 0.24775 0.0
H244 H 0.15996 0.10439 0.34369 0.0
H245 H 0.16724 0.03105 0.27531 0.0
H246 H 0.13695 0.92919 0.74211 0.0
H247 H 0.14097 0.85664 0.669 0.0
H248 H 0.11867 0.02421 0.73245 0.0
H249 H 0.12345 0.0999 0.67885 0.0
C250 C 0.85677 0.46103 0.58664 0.0
C251 C 0.86975 0.42239 0.51092 0.0
C252 C 0.883 0.52312 0.43787 0.0
C253 C 0.8698 0.5614 0.51267 0.0
N254 N 0.83996 0.5707 0.6431 0.0
N255 N 0.8909 0.41673 0.35274 0.0
C256 C 0.85524 0.53151 0.58203 0.0
C257 C 0.88155 0.45353 0.43282 0.0
N258 N 0.84728 0.43061 0.66629 0.0
N259 N 0.89769 0.55302 0.37421 0.0
H260 H 0.89058 0.36539 0.34711 0.0
H261 H 0.89724 0.43738 0.28809 0.0
H262 H 0.89844 0.60442 0.37246 0.0
H263 H 0.9102 0.52684 0.32695 0.0
H264 H 0.83996 0.45629 0.72905 0.0
H265 H 0.84846 0.37915 0.67426 0.0
H266 H 0.82713 0.55219 0.68867 0.0
H267 H 0.83869 0.62259 0.64138 0.0
C268 C 0.89054 0.94041 0.427 0.0
C269 C 0.87728 0.90642 0.49599 0.0
C270 C 0.87019 0.00766 0.59846 0.0
C271 C 0.87911 0.04435 0.5188 0.0
N272 N 0.89477 0.04552 0.34926 0.0
N273 N 0.85432 0.90543 0.64834 0.0
C274 C 0.88887 0.01073 0.43134 0.0
C275 C 0.86726 0.93918 0.58282 0.0
N276 N 0.90462 0.90526 0.3571 0.0
N277 N 0.86515 0.03775 0.68942 0.0
H278 H 0.85281 0.85449 0.64098 0.0
H279 H 0.84416 0.92845 0.70677 0.0
H280 H 0.86772 0.08738 0.70425 0.0
H281 H 0.86067 0.01208 0.75275 0.0
H282 H 0.9164 0.92714 0.31023 0.0
H283 H 0.90631 0.85331 0.35374 0.0
H284 H 0.89968 0.02278 0.28073 0.0
H285 H 0.89231 0.09721 0.34532 0.0
C286 C 0.14369 0.51978 0.57949 0.0
C287 C 0.12864 0.55616 0.51041 0.0
C288 C 0.1127 0.45544 0.44987 0.0
C289 C 0.12678 0.41892 0.52268 0.0
N290 N 0.15099 0.4183 0.67275 0.0
N291 N 0.09505 0.56314 0.39623 0.0
C292 C 0.14093 0.45168 0.59241 0.0
C293 C 0.11175 0.5255 0.45152 0.0
N294 N 0.16078 0.55004 0.6315 0.0
N295 N 0.10176 0.42338 0.37452 0.0
H296 H 0.0944 0.61484 0.39216 0.0
H297 H 0.08058 0.54361 0.36119 0.0
H298 H 0.1029 0.37188 0.36733 0.0
H299 H 0.09349 0.44775 0.31358 0.0
H300 H 0.17411 0.5241 0.67406 0.0
H301 H 0.1626 0.60085 0.62722 0.0
H302 H 0.15958 0.44127 0.731 0.0
H303 H 0.14861 0.36877 0.68655 0.0
C304 C 0.651 0.50168 0.08853 0.0
C305 C 0.64197 0.53947 0.00536 0.0
C306 C 0.63189 0.43793 0.9193 0.0
C307 C 0.64081 0.40023 1.00236 0.0
N308 N 0.664 0.39294 0.15495 0.0
N309 N 0.63055 0.54238 0.83124 0.0
C310 C 0.65229 0.43105 0.08289 0.0
C311 C 0.63456 0.5071 0.91726 0.0
N312 N 0.65675 0.53313 0.17544 0.0
N313 N 0.62 0.40812 0.84426 0.0
H314 H 0.63287 0.59291 0.82695 0.0
H315 H 0.62732 0.52047 0.76208 0.0
H316 H 0.61814 0.35724 0.8424 0.0
H317 H 0.61072 0.43427 0.78732 0.0
H318 H 0.66051 0.50852 0.24244 0.0
H319 H 0.65604 0.58467 0.18344 0.0
H320 H 0.67487 0.41201 0.20942 0.0
H321 H 0.66455 0.34123 0.1557 0.0
C322 C 0.3575 0.95858 0.08419 0.0
C323 C 0.37137 0.9195 0.01145 0.0
C324 C 0.38497 0.02008 0.93895 0.0
C325 C 0.37085 0.05876 0.01058 0.0
N326 N 0.33995 0.06849 0.13656 0.0
N327 N 0.39459 0.91286 0.85831 0.0
C328 C 0.3558 0.02907 0.07822 0.0
C329 C 0.38397 0.95026 0.93531 0.0
N330 N 0.34731 0.92862 0.16259 0.0
N331 N 0.40008 0.04994 0.87707 0.0
H332 H 0.39486 0.86134 0.85427 0.0
H333 H 0.40153 0.93293 0.79441 0.0
H334 H 0.40042 0.10143 0.87372 0.0
H335 H 0.41326 0.02382 0.83291 0.0
H336 H 0.33926 0.95462 0.22364 0.0
H337 H 0.34859 0.87722 0.17155 0.0
H338 H 0.32682 0.05015 0.18077 0.0
H339 H 0.33856 0.12037 0.13389 0.0
C340 C 0.36971 0.43604 0.08296 0.0
C341 C 0.37968 0.40334 0.99601 0.0
C342 C 0.39114 0.5077 0.93129 0.0
C343 C 0.3815 0.54135 0.019 0.0
N344 N 0.36797 0.53424 0.19025 0.0
N345 N 0.40716 0.40229 0.85772 0.0
C346 C 0.37276 0.50446 0.09889 0.0
C347 C 0.39298 0.43737 0.92734 0.0
N348 N 0.35673 0.40231 0.14831 0.0
N349 N 0.39664 0.54231 0.84844 0.0
H350 H 0.40894 0.35033 0.8547 0.0
H351 H 0.41893 0.42432 0.81094 0.0
H352 H 0.39373 0.59389 0.84352 0.0
H353 H 0.40154 0.51928 0.7801 0.0
H354 H 0.34664 0.42533 0.20693 0.0
H355 H 0.35514 0.35142 0.14056 0.0
H356 H 0.36357 0.50832 0.25346 0.0
H357 H 0.37071 0.5837 0.20549 0.0
C358 C 0.61667 0.02236 0.91372 0.0
C359 C 0.62996 0.05693 0.98396 0.0
C360 C 0.63444 0.95898 0.09064 0.0
C361 C 0.62528 0.92096 0.01179 0.0
N362 N 0.60687 0.91588 0.84837 0.0
N363 N 0.65128 0.06062 0.14057 0.0
C364 C 0.61572 0.95268 0.92401 0.0
C365 C 0.6385 0.02625 0.07363 0.0
N366 N 0.60479 0.05657 0.83801 0.0
N367 N 0.63858 0.93102 0.18247 0.0
H368 H 0.65392 0.11067 0.13217 0.0
H369 H 0.6604 0.03877 0.20152 0.0
H370 H 0.6351 0.88233 0.19771 0.0
H371 H 0.64311 0.95765 0.24589 0.0
H372 H 0.59287 0.03595 0.78953 0.0
H373 H 0.60518 0.10774 0.82926 0.0
H374 H 0.60231 0.93458 0.77795 0.0
H375 H 0.60541 0.86507 0.85332 0.0
C376 C 0.12517 0.18221 0.05953 0.0
C377 C 0.11582 0.23951 0.11514 0.0
C378 C 0.12843 0.31138 0.98227 0.0
C379 C 0.13595 0.25406 0.92349 0.0
N380 N 0.13891 0.13485 0.89928 0.0
N381 N 0.10418 0.35767 0.12166 0.0
C382 C 0.13332 0.18944 0.95974 0.0
C383 C 0.1163 0.30395 0.0745 0.0
N384 N 0.12771 0.12135 0.10418 0.0
N385 N 0.13309 0.37289 0.95049 0.0
H386 H 0.0942 0.35351 0.18683 0.0
H387 H 0.10198 0.40507 0.09127 0.0
H388 H 0.14091 0.38059 0.88124 0.0
H389 H 0.1307 0.41563 0.99542 0.0
H390 H 0.13679 0.07903 0.07136 0.0
H391 H 0.12277 0.11403 0.1782 0.0
H392 H 0.13456 0.08737 0.91669 0.0
H393 H 0.14646 0.13751 0.8282 0.0
C394 C 0.8688 0.28916 0.08558 0.0
C395 C 0.8874 0.24144 0.11878 0.0
C396 C 0.8902 0.18996 0.95009 0.0
C397 C 0.87152 0.23716 0.91728 0.0
N398 N 0.84511 0.33692 0.94628 0.0
N399 N 0.91286 0.13966 0.08956 0.0
C400 C 0.86133 0.28816 0.9832 0.0
C401 C 0.89742 0.19023 0.05258 0.0
N402 N 0.85792 0.33423 0.15275 0.0
N403 N 0.90139 0.14587 0.88225 0.0
H404 H 0.91806 0.1373 0.16457 0.0
H405 H 0.91899 0.09703 0.04889 0.0
H406 H 0.8965 0.14453 0.80692 0.0
H407 H 0.9167 0.11417 0.89782 0.0
H408 H 0.84296 0.36715 0.13695 0.0
H409 H 0.86287 0.33606 0.2278 0.0
H410 H 0.83833 0.37915 0.98639 0.0
H411 H 0.83949 0.33765 0.87172 0.0
C412 C 0.13901 0.68065 0.02449 0.0
C413 C 0.13481 0.73981 0.08294 0.0
C414 C 0.10852 0.79011 0.95186 0.0
C415 C 0.11521 0.73411 0.88876 0.0
N416 N 0.13959 0.6301 0.85909 0.0
N417 N 0.11664 0.85235 0.10304 0.0
C418 C 0.13106 0.68016 0.92367 0.0
C419 C 0.11968 0.79488 0.04724 0.0
N420 N 0.1502 0.62442 0.06632 0.0
N421 N 0.091 0.83764 0.92169 0.0
H422 H 0.12351 0.85612 0.17519 0.0
H423 H 0.1084 0.89708 0.07631 0.0
H424 H 0.08247 0.83564 0.85236 0.0
H425 H 0.08355 0.8762 0.96795 0.0
H426 H 0.15159 0.57791 0.03086 0.0
H427 H 0.15599 0.62274 0.14064 0.0
H428 H 0.15328 0.59354 0.87733 0.0
H429 H 0.1346 0.62824 0.78396 0.0
C430 C 0.89612 0.79241 0.95903 0.0
C431 C 0.89117 0.73822 0.89643 0.0
C432 C 0.86116 0.70589 0.01511 0.0
C433 C 0.86659 0.75909 0.07904 0.0
N434 N 0.89111 0.84744 0.12116 0.0
N435 N 0.86691 0.6492 0.85417 0.0
C436 C 0.88442 0.80134 0.05318 0.0
C437 C 0.87332 0.69587 0.92203 0.0
N438 N 0.9116 0.83619 0.92704 0.0
N439 N 0.84434 0.66506 0.04393 0.0
H440 H 0.87515 0.64067 0.78454 0.0
H441 H 0.85247 0.62108 0.86296 0.0
H442 H 0.83323 0.67526 0.106 0.0
H443 H 0.84166 0.6201 0.00878 0.0
H444 H 0.9137 0.88144 0.96257 0.0
H445 H 0.9215 0.8292 0.86086 0.0
H446 H 0.90585 0.87446 0.1122 0.0
H447 H 0.88292 0.85585 0.19087 0.0
C448 C 0.62405 0.67871 0.45332 0.0
C449 C 0.63701 0.7314 0.42031 0.0
C450 C 0.63326 0.7847 0.58712 0.0
C451 C 0.61961 0.73338 0.61985 0.0
N452 N 0.60415 0.62755 0.59076 0.0
N453 N 0.65002 0.84039 0.44735 0.0
C454 C 0.61539 0.67947 0.55426 0.0
C455 C 0.64057 0.78591 0.48509 0.0
N456 N 0.6202 0.62804 0.38789 0.0
N457 N 0.63987 0.83131 0.65421 0.0
H458 H 0.65518 0.84348 0.37258 0.0
H459 H 0.65071 0.88497 0.48685 0.0
H460 H 0.635 0.83205 0.72941 0.0
H461 H 0.65196 0.86572 0.63807 0.0
H462 H 0.61022 0.58872 0.40364 0.0
H463 H 0.6265 0.62604 0.31434 0.0
H464 H 0.60092 0.58515 0.55004 0.0
H465 H 0.59882 0.62497 0.66536 0.0
C466 C 0.3722 0.7953 0.58845 0.0
C467 C 0.39011 0.74515 0.62028 0.0
C468 C 0.39189 0.69537 0.45042 0.0
C469 C 0.37376 0.74474 0.41944 0.0
N470 N 0.34955 0.848 0.45014 0.0
N471 N 0.41439 0.64173 0.58778 0.0
C472 C 0.36471 0.79651 0.4862 0.0
C473 C 0.39944 0.69395 0.55253 0.0
N474 N 0.36183 0.84039 0.65679 0.0
N475 N 0.40212 0.65056 0.38129 0.0
H476 H 0.4197 0.63799 0.66254 0.0
H477 H 0.42007 0.59928 0.54587 0.0
H478 H 0.39699 0.65073 0.30619 0.0
H479 H 0.4169 0.61661 0.39541 0.0
H480 H 0.34721 0.87466 0.64168 0.0
H481 H 0.36672 0.84062 0.73197 0.0
H482 H 0.34375 0.89077 0.49108 0.0
H483 H 0.34422 0.85052 0.37527 0.0
C484 C 0.61626 0.19283 0.45248 0.0
C485 C 0.61745 0.25301 0.39935 0.0
C486 C 0.63942 0.29976 0.53833 0.0
C487 C 0.63957 0.23837 0.58843 0.0
N488 N 0.62553 0.12993 0.60417 0.0
N489 N 0.63427 0.35813 0.38177 0.0
C490 C 0.62742 0.18551 0.54808 0.0
C491 C 0.62985 0.3054 0.44004 0.0
N492 N 0.6046 0.14267 0.4108 0.0
N493 N 0.64828 0.35295 0.58491 0.0
H494 H 0.62861 0.3633 0.30771 0.0
H495 H 0.6456 0.39378 0.40297 0.0
H496 H 0.65641 0.35022 0.65511 0.0
H497 H 0.64586 0.40123 0.55779 0.0
H498 H 0.60515 0.09475 0.43855 0.0
H499 H 0.59443 0.14827 0.34566 0.0
H500 H 0.61576 0.09072 0.58378 0.0
H501 H 0.63279 0.12399 0.67579 0.0
C502 C 0.37339 0.19736 0.41971 0.0
C503 C 0.3916 0.23832 0.39304 0.0
C504 C 0.38627 0.30089 0.55072 0.0
C505 C 0.368 0.26038 0.57756 0.0
N506 N 0.34372 0.17063 0.54207 0.0
N507 N 0.4126 0.33557 0.4216 0.0
C508 C 0.36145 0.20859 0.51325 0.0
C509 C 0.39722 0.29205 0.45517 0.0
N510 N 0.36663 0.15062 0.3527 0.0
N511 N 0.39411 0.34517 0.61889 0.0
H512 H 0.4217 0.3293 0.35347 0.0
H513 H 0.41515 0.38042 0.45754 0.0
H514 H 0.38652 0.35345 0.68976 0.0
H515 H 0.4093 0.37027 0.6088 0.0
H516 H 0.35247 0.12173 0.36318 0.0
H517 H 0.37452 0.14203 0.2824 0.0
H518 H 0.33953 0.12757 0.50533 0.0
H519 H 0.33304 0.18176 0.60521 0.0
C520 C 0.01584 0.24122 0.50069 0.0
C521 C 0.02695 0.27262 0.42096 0.0
C522 C 0.98752 0.30496 0.34633 0.0
C523 C 0.97645 0.2719 0.42441 0.0
N524 N 0.98005 0.19825 0.56575 0.0
N525 N 0.02424 0.31981 0.2561 0.0
C526 C 0.99064 0.23617 0.49775 0.0
C527 C 0.01302 0.30032 0.34027 0.0
N528 N 0.02905 0.22023 0.58258 0.0
N529 N 0.97367 0.34146 0.27851 0.0
H530 H 0.0429 0.31546 0.24805 0.0
H531 H 0.0152 0.33418 0.19058 0.0
H532 H 0.95498 0.34296 0.27656 0.0
H533 H 0.98056 0.37339 0.22779 0.0
H534 H 0.02152 0.20419 0.64815 0.0
H535 H 0.04745 0.22392 0.58898 0.0
H536 H 0.98971 0.16462 0.61257 0.0
H537 H 0.96152 0.1966 0.57103 0.0
C538 C 0.9887 0.73119 0.4911 0.0
C539 C 0.97701 0.76477 0.57455 0.0
C540 C 0.01603 0.77234 0.65607 0.0
C541 C 0.02752 0.73518 0.57541 0.0
N542 N 0.02471 0.6692 0.4245 0.0
N543 N 0.97897 0.80246 0.74676 0.0
C544 C 0.01379 0.71115 0.49578 0.0
C545 C 0.99051 0.78173 0.65976 0.0
N546 N 0.97605 0.72135 0.40537 0.0
N547 N 0.02947 0.79805 0.73002 0.0
H548 H 0.96034 0.80691 0.75472 0.0
H549 H 0.98782 0.80868 0.81437 0.0
H550 H 0.04807 0.78781 0.73516 0.0
H551 H 0.02233 0.83275 0.7832 0.0
H552 H 0.984 0.70325 0.33861 0.0
H553 H 0.95782 0.7371 0.39771 0.0
H554 H 0.01525 0.64339 0.37208 0.0
H555 H 0.04322 0.6563 0.42182 0.0
C556 C 0.51766 0.74007 1.0023 0.0
C557 C 0.52861 0.77293 0.92364 0.0
C558 C 0.48896 0.80794 0.85269 0.0
C559 C 0.4781 0.7728 0.92905 0.0
N560 N 0.48199 0.69614 0.06665 0.0
N561 N 0.52544 0.82685 0.76358 0.0
C562 C 0.49245 0.7354 1.00011 0.0
C563 C 0.51446 0.80374 0.84583 0.0
N564 N 0.53103 0.71736 0.08283 0.0
N565 N 0.47489 0.84591 0.78725 0.0
H566 H 0.54406 0.82445 0.75575 0.0
H567 H 0.51629 0.8432 0.69927 0.0
H568 H 0.45621 0.84697 0.78552 0.0
H569 H 0.48155 0.87929 0.73822 0.0
H570 H 0.52363 0.70013 0.14789 0.0
H571 H 0.54944 0.72106 0.08914 0.0
H572 H 0.49175 0.66129 0.11126 0.0
H573 H 0.46348 0.69474 0.0729 0.0
C574 C 0.48999 0.2748 0.17775 0.0
C575 C 0.47852 0.25789 0.08731 0.0
C576 C 0.51684 0.20237 0.02506 0.0
C577 C 0.52863 0.22636 0.11034 0.0
N578 N 0.52708 0.29773 0.25759 0.0
N579 N 0.48158 0.21342 0.91852 0.0
C580 C 0.5154 0.26612 0.18377 0.0
C581 C 0.4921 0.22366 0.00911 0.0
N582 N 0.47664 0.29556 0.26022 0.0
N583 N 0.52905 0.15752 0.96121 0.0
H584 H 0.46364 0.22929 0.90349 0.0
H585 H 0.49112 0.19466 0.85561 0.0
H586 H 0.54714 0.14067 0.97089 0.0
H587 H 0.52079 0.13266 0.90394 0.0
H588 H 0.48414 0.30179 0.33078 0.0
H589 H 0.45794 0.29927 0.2613 0.0
H590 H 0.51836 0.33315 0.3061 0.0
H591 H 0.54572 0.29378 0.26425 0.0
loop_
_geom_bond_atom_site_label_1
_geom_bond_atom_site_label_2
_geom_bond_distance
_geom_bond_site_symmetry_2
_ccdc_geom_bond_type
Zn0 O6 1.969 . S
Zn0 O7 1.965 . S
Zn0 O11 2.024 . S
Zn0 O16 1.969 . S
Zn1 O8 1.969 . S
Zn1 O14 1.969 . S
Zn1 O15 1.965 . S
Zn1 O17 2.024 . S
C2 O3 1.229 . S
C2 O11 1.058 . S
O3 C2 1.229 . S
C4 O5 1.229 . S
C4 O17 1.058 . S
O5 C4 1.229 . S
O6 Zn0 1.969 . S
O6 C9 1.267 . S
O7 Zn0 1.965 . S
O7 C18 1.260 . S
O8 Zn1 1.969 . S
O8 C18 1.258 . S
C9 O6 1.267 . S
C9 O10 1.228 . S
O10 C9 1.228 . S
O11 Zn0 2.024 . S
O11 C2 1.058 . S
C12 O13 1.228 . S
C12 O14 1.267 . S
O13 C12 1.228 . S
O14 Zn1 1.969 . S
O14 C12 1.267 . S
O15 Zn1 1.965 . S
O15 C19 1.260 . S
O16 Zn0 1.969 . S
O16 C19 1.258 . S
O17 Zn1 2.024 . S
O17 C4 1.058 . S
C18 O7 1.260 . S
C18 O8 1.258 . S
C19 O15 1.260 . S
C19 O16 1.258 . S
Zn20 O26 1.969 . S
Zn20 O27 1.965 . S
Zn20 O31 2.024 . S
Zn20 O36 1.969 . S
Zn21 O28 1.969 . S
Zn21 O34 1.969 . S
Zn21 O35 1.965 . S
Zn21 O37 2.024 . S
C22 O23 1.229 . S
C22 O31 1.058 . S
O23 C22 1.229 . S
C24 O25 1.229 . S
C24 O37 1.058 . S
O25 C24 1.229 . S
O26 Zn20 1.969 . S
O26 C29 1.267 . S
O27 Zn20 1.965 . S
O27 C38 1.260 . S
O28 Zn21 1.969 . S
O28 C38 1.258 . S
C29 O26 1.267 . S
C29 O30 1.228 . S
O30 C29 1.228 . S
O31 Zn20 2.024 . S
O31 C22 1.058 . S
C32 O33 1.228 . S
C32 O34 1.267 . S
O33 C32 1.228 . S
O34 Zn21 1.969 . S
O34 C32 1.267 . S
O35 Zn21 1.965 . S
O35 C39 1.260 . S
O36 Zn20 1.969 . S
O36 C39 1.258 . S
O37 Zn21 2.024 . S
O37 C24 1.058 . S
C38 O27 1.260 . S
C38 O28 1.258 . S
C39 O35 1.260 . S
C39 O36 1.258 . S
Zn40 O46 1.969 . S
Zn40 O47 1.965 . S
Zn40 O51 2.024 . S
Zn40 O56 1.969 . S
Zn41 O48 1.969 . S
Zn41 O54 1.969 . S
Zn41 O55 1.965 . S
Zn41 O57 2.024 . S
C42 O43 1.229 . S
C42 O51 1.058 . S
O43 C42 1.229 . S
C44 O45 1.229 . S
C44 O57 1.058 . S
O45 C44 1.229 . S
O46 Zn40 1.969 . S
O46 C49 1.267 . S
O47 Zn40 1.965 . S
O47 C58 1.260 . S
O48 Zn41 1.969 . S
O48 C58 1.258 . S
C49 O46 1.267 . S
C49 O50 1.228 . S
O50 C49 1.228 . S
O51 Zn40 2.024 . S
O51 C42 1.058 . S
C52 O53 1.228 . S
C52 O54 1.267 . S
O53 C52 1.228 . S
O54 Zn41 1.969 . S
O54 C52 1.267 . S
O55 Zn41 1.965 . S
O55 C59 1.260 . S
O56 Zn40 1.969 . S
O56 C59 1.258 . S
O57 Zn41 2.024 . S
O57 C44 1.058 . S
C58 O47 1.260 . S
C58 O48 1.258 . S
C59 O55 1.260 . S
C59 O56 1.258 . S
Zn60 O66 1.969 . S
Zn60 O67 1.965 . S
Zn60 O71 2.024 . S
Zn60 O76 1.969 . S
Zn61 O68 1.969 . S
Zn61 O74 1.969 . S
Zn61 O75 1.965 . S
Zn61 O77 2.024 . S
C62 O63 1.229 . S
C62 O71 1.058 . S
O63 C62 1.229 . S
C64 O65 1.229 . S
C64 O77 1.058 . S
O65 C64 1.229 . S
O66 Zn60 1.969 . S
O66 C69 1.267 . S
O67 Zn60 1.965 . S
O67 C78 1.260 . S
O68 Zn61 1.969 . S
O68 C78 1.258 . S
C69 O66 1.267 . S
C69 O70 1.228 . S
O70 C69 1.228 . S
O71 Zn60 2.024 . S
O71 C62 1.058 . S
C72 O73 1.228 . S
C72 O74 1.267 . S
O73 C72 1.228 . S
O74 Zn61 1.969 . S
O74 C72 1.267 . S
O75 Zn61 1.965 . S
O75 C79 1.260 . S
O76 Zn60 1.969 . S
O76 C79 1.258 . S
O77 Zn61 2.024 . S
O77 C64 1.058 . S
C78 O67 1.260 . S
C78 O68 1.258 . S
C79 O75 1.260 . S
C79 O76 1.258 . S
Zn80 O86 1.969 . S
Zn80 O87 1.965 . S
Zn80 O91 2.024 . S
Zn80 O96 1.969 . S
Zn81 O88 1.969 . S
Zn81 O94 1.969 . S
Zn81 O95 1.965 1_556 S
Zn81 O97 2.024 . S
C82 O83 1.229 . S
C82 O91 1.058 . S
O83 C82 1.229 . S
C84 O85 1.229 . S
C84 O97 1.058 . S
O85 C84 1.229 . S
O86 Zn80 1.969 . S
O86 C89 1.267 . S
O87 Zn80 1.965 . S
O87 C98 1.260 1_554 S
O88 Zn81 1.969 . S
O88 C98 1.258 . S
C89 O86 1.267 . S
C89 O90 1.228 . S
O90 C89 1.228 . S
O91 Zn80 2.024 . S
O91 C82 1.058 . S
C92 O93 1.228 . S
C92 O94 1.267 . S
O93 C92 1.228 . S
O94 Zn81 1.969 . S
O94 C92 1.267 . S
O95 Zn81 1.965 1_554 S
O95 C99 1.260 . S
O96 Zn80 1.969 . S
O96 C99 1.258 . S
O97 Zn81 2.024 . S
O97 C84 1.058 . S
C98 O87 1.260 1_556 S
C98 O88 1.258 . S
C99 O95 1.260 . S
C99 O96 1.258 . S
Zn100 O106 1.969 . S
Zn100 O107 1.965 1_556 S
Zn100 O111 2.024 . S
Zn100 O116 1.969 . S
Zn101 O108 1.969 . S
Zn101 O114 1.969 . S
Zn101 O115 1.965 . S
Zn101 O117 2.024 . S
C102 O103 1.229 . S
C102 O111 1.058 . S
O103 C102 1.229 . S
C104 O105 1.229 . S
C104 O117 1.058 . S
O105 C104 1.229 . S
O106 Zn100 1.969 . S
O106 C109 1.267 . S
O107 Zn100 1.965 1_554 S
O107 C118 1.260 . S
O108 Zn101 1.969 . S
O108 C118 1.258 . S
C109 O106 1.267 . S
C109 O110 1.228 . S
O110 C109 1.228 . S
O111 Zn100 2.024 . S
O111 C102 1.058 . S
C112 O113 1.228 . S
C112 O114 1.267 . S
O113 C112 1.228 . S
O114 Zn101 1.969 . S
O114 C112 1.267 . S
O115 Zn101 1.965 . S
O115 C119 1.260 1_554 S
O116 Zn100 1.969 . S
O116 C119 1.258 . S
O117 Zn101 2.024 . S
O117 C104 1.058 . S
C118 O107 1.260 . S
C118 O108 1.258 . S
C119 O115 1.260 1_556 S
C119 O116 1.258 . S
Zn120 O126 1.969 . S
Zn120 O127 1.965 . S
Zn120 O131 2.024 . S
Zn120 O136 1.969 . S
Zn121 O128 1.969 . S
Zn121 O134 1.969 . S
Zn121 O135 1.965 1_554 S
Zn121 O137 2.024 . S
C122 O123 1.229 . S
C122 O131 1.058 . S
O123 C122 1.229 . S
C124 O125 1.229 . S
C124 O137 1.058 . S
O125 C124 1.229 . S
O126 Zn120 1.969 . S
O126 C129 1.267 . S
O127 Zn120 1.965 . S
O127 C138 1.260 1_556 S
O128 Zn121 1.969 . S
O128 C138 1.258 . S
C129 O126 1.267 . S
C129 O130 1.228 . S
O130 C129 1.228 . S
O131 Zn120 2.024 . S
O131 C122 1.058 . S
C132 O133 1.228 . S
C132 O134 1.267 . S
O133 C132 1.228 . S
O134 Zn121 1.969 . S
O134 C132 1.267 . S
O135 Zn121 1.965 1_556 S
O135 C139 1.260 . S
O136 Zn120 1.969 . S
O136 C139 1.258 . S
O137 Zn121 2.024 . S
O137 C124 1.058 . S
C138 O127 1.260 1_554 S
C138 O128 1.258 . S
C139 O135 1.260 . S
C139 O136 1.258 . S
Zn140 O146 1.969 . S
Zn140 O147 1.965 . S
Zn140 O151 2.024 . S
Zn140 O156 1.969 . S
Zn141 O148 1.969 . S
Zn141 O154 1.969 . S
Zn141 O155 1.965 1_554 S
Zn141 O157 2.024 . S
C142 O143 1.229 . S
C142 O151 1.058 . S
O143 C142 1.229 . S
C144 O145 1.229 . S
C144 O157 1.058 . S
O145 C144 1.229 . S
O146 Zn140 1.969 . S
O146 C149 1.267 . S
O147 Zn140 1.965 . S
O147 C158 1.260 1_556 S
O148 Zn141 1.969 . S
O148 C158 1.258 . S
C149 O146 1.267 . S
C149 O150 1.228 . S
O150 C149 1.228 . S
O151 Zn140 2.024 . S
O151 C142 1.058 . S
C152 O153 1.228 . S
C152 O154 1.267 . S
O153 C152 1.228 . S
O154 Zn141 1.969 . S
O154 C152 1.267 . S
O155 Zn141 1.965 1_556 S
O155 C159 1.260 . S
O156 Zn140 1.969 . S
O156 C159 1.258 . S
O157 Zn141 2.024 . S
O157 C144 1.058 . S
C158 O147 1.260 1_554 S
C158 O148 1.258 . S
C159 O155 1.260 . S
C159 O156 1.258 . S
C160 C161 1.363 . S
C160 C166 1.379 . S
C160 N168 1.356 . S
C161 C160 1.363 . S
C161 C167 1.363 . S
C162 C163 1.363 . S
C162 C167 1.379 . S
C162 N169 1.356 . S
C163 C162 1.363 . S
C163 C166 1.363 . S
N164 C166 1.356 . S
N164 H176 0.984 . S
N164 H177 0.985 . S
N165 C167 1.356 . S
N165 H170 0.984 . S
N165 H171 0.985 . S
C166 C160 1.379 . S
C166 C163 1.363 . S
C166 N164 1.356 . S
C167 C161 1.363 . S
C167 C162 1.379 . S
C167 N165 1.356 . S
N168 C160 1.356 . S
N168 H174 0.984 . S
N168 H175 0.984 . S
N169 C162 1.356 . S
N169 H172 0.984 . S
N169 H173 0.985 . S
H170 N165 0.984 . S
H171 N165 0.985 . S
H172 N169 0.984 . S
H173 N169 0.985 . S
H174 N168 0.984 . S
H175 N168 0.984 . S
H176 N164 0.984 . S
H177 N164 0.985 . S
C178 C179 1.363 . S
C178 C184 1.379 . S
C178 N186 1.356 . S
C179 C178 1.363 . S
C179 C185 1.363 . S
C180 C181 1.363 . S
C180 C185 1.379 . S
C180 N187 1.356 . S
C181 C180 1.363 . S
C181 C184 1.363 . S
N182 C184 1.356 . S
N182 H194 0.984 . S
N182 H195 0.985 . S
N183 C185 1.356 . S
N183 H188 0.984 . S
N183 H189 0.985 . S
C184 C178 1.379 . S
C184 C181 1.363 . S
C184 N182 1.356 . S
C185 C179 1.363 . S
C185 C180 1.379 . S
C185 N183 1.356 . S
N186 C178 1.356 . S
N186 H192 0.984 . S
N186 H193 0.984 . S
N187 C180 1.356 . S
N187 H190 0.984 . S
N187 H191 0.985 . S
H188 N183 0.984 . S
H189 N183 0.985 . S
H190 N187 0.984 . S
H191 N187 0.985 . S
H192 N186 0.984 . S
H193 N186 0.984 . S
H194 N182 0.984 . S
H195 N182 0.985 . S
C196 C197 1.363 . S
C196 C202 1.379 . S
C196 N204 1.356 . S
C197 C196 1.363 . S
C197 C203 1.363 . S
C198 C199 1.363 . S
C198 C203 1.379 . S
C198 N205 1.356 . S
C199 C198 1.363 . S
C199 C202 1.363 . S
N200 C202 1.356 . S
N200 H212 0.984 . S
N200 H213 0.985 . S
N201 C203 1.356 . S
N201 H206 0.984 . S
N201 H207 0.985 . S
C202 C196 1.379 . S
C202 C199 1.363 . S
C202 N200 1.356 . S
C203 C197 1.363 . S
C203 C198 1.379 . S
C203 N201 1.356 . S
N204 C196 1.356 . S
N204 H210 0.984 . S
N204 H211 0.984 . S
N205 C198 1.356 . S
N205 H208 0.984 . S
N205 H209 0.985 . S
H206 N201 0.984 . S
H207 N201 0.985 . S
H208 N205 0.984 . S
H209 N205 0.985 . S
H210 N204 0.984 . S
H211 N204 0.984 . S
H212 N200 0.984 . S
H213 N200 0.985 . S
C214 C215 1.363 . S
C214 C220 1.379 . S
C214 N222 1.356 . S
C215 C214 1.363 . S
C215 C221 1.363 . S
C216 C217 1.363 . S
C216 C221 1.379 . S
C216 N223 1.356 . S
C217 C216 1.363 . S
C217 C220 1.363 . S
N218 C220 1.356 . S
N218 H230 0.984 . S
N218 H231 0.985 . S
N219 C221 1.356 . S
N219 H224 0.984 . S
N219 H225 0.985 . S
C220 C214 1.379 . S
C220 C217 1.363 . S
C220 N218 1.356 . S
C221 C215 1.363 . S
C221 C216 1.379 . S
C221 N219 1.356 . S
N222 C214 1.356 . S
N222 H228 0.984 . S
N222 H229 0.984 . S
N223 C216 1.356 . S
N223 H226 0.984 . S
N223 H227 0.985 . S
H224 N219 0.984 . S
H225 N219 0.985 . S
H226 N223 0.984 . S
H227 N223 0.985 . S
H228 N222 0.984 . S
H229 N222 0.984 . S
H230 N218 0.984 . S
H231 N218 0.985 . S
C232 C233 1.363 . S
C232 C238 1.379 1_565 S
C232 N240 1.356 . S
C233 C232 1.363 . S
C233 C239 1.363 . S
C234 C235 1.363 . S
C234 C239 1.379 1_545 S
C234 N241 1.356 . S
C235 C234 1.363 . S
C235 C238 1.363 . S
N236 C238 1.356 . S
N236 H248 0.984 . S
N236 H249 0.985 . S
N237 C239 1.356 . S
N237 H242 0.984 . S
N237 H243 0.985 . S
C238 C232 1.379 1_545 S
C238 C235 1.363 . S
C238 N236 1.356 . S
C239 C233 1.363 . S
C239 C234 1.379 1_565 S
C239 N237 1.356 . S
N240 C232 1.356 . S
N240 H246 0.984 . S
N240 H247 0.984 . S
N241 C234 1.356 . S
N241 H244 0.984 . S
N241 H245 0.985 . S
H242 N237 0.984 . S
H243 N237 0.985 . S
H244 N241 0.984 . S
H245 N241 0.985 . S
H246 N240 0.984 . S
H247 N240 0.984 . S
H248 N236 0.984 . S
H249 N236 0.985 . S
C250 C251 1.363 . S
C250 C256 1.379 . S
C250 N258 1.356 . S
C251 C250 1.363 . S
C251 C257 1.363 . S
C252 C253 1.363 . S
C252 C257 1.379 . S
C252 N259 1.356 . S
C253 C252 1.363 . S
C253 C256 1.363 . S
N254 C256 1.356 . S
N254 H266 0.984 . S
N254 H267 0.985 . S
N255 C257 1.356 . S
N255 H260 0.984 . S
N255 H261 0.985 . S
C256 C250 1.379 . S
C256 C253 1.363 . S
C256 N254 1.356 . S
C257 C251 1.363 . S
C257 C252 1.379 . S
C257 N255 1.356 . S
N258 C250 1.356 . S
N258 H264 0.984 . S
N258 H265 0.984 . S
N259 C252 1.356 . S
N259 H262 0.984 . S
N259 H263 0.985 . S
H260 N255 0.984 . S
H261 N255 0.985 . S
H262 N259 0.984 . S
H263 N259 0.985 . S
H264 N258 0.984 . S
H265 N258 0.984 . S
H266 N254 0.984 . S
H267 N254 0.985 . S
C268 C269 1.363 . S
C268 C274 1.379 1_565 S
C268 N276 1.356 . S
C269 C268 1.363 . S
C269 C275 1.363 . S
C270 C271 1.363 . S
C270 C275 1.379 1_545 S
C270 N277 1.356 . S
C271 C270 1.363 . S
C271 C274 1.363 . S
N272 C274 1.356 . S
N272 H284 0.984 . S
N272 H285 0.985 . S
N273 C275 1.356 . S
N273 H278 0.984 . S
N273 H279 0.985 . S
C274 C268 1.379 1_545 S
C274 C271 1.363 . S
C274 N272 1.356 . S
C275 C269 1.363 . S
C275 C270 1.379 1_565 S
C275 N273 1.356 . S
N276 C268 1.356 . S
N276 H282 0.984 . S
N276 H283 0.984 . S
N277 C270 1.356 . S
N277 H280 0.984 . S
N277 H281 0.985 . S
H278 N273 0.984 . S
H279 N273 0.985 . S
H280 N277 0.984 . S
H281 N277 0.985 . S
H282 N276 0.984 . S
H283 N276 0.984 . S
H284 N272 0.984 . S
H285 N272 0.985 . S
C286 C287 1.363 . S
C286 C292 1.379 . S
C286 N294 1.356 . S
C287 C286 1.363 . S
C287 C293 1.363 . S
C288 C289 1.363 . S
C288 C293 1.379 . S
C288 N295 1.356 . S
C289 C288 1.363 . S
C289 C292 1.363 . S
N290 C292 1.356 . S
N290 H302 0.984 . S
N290 H303 0.985 . S
N291 C293 1.356 . S
N291 H296 0.984 . S
N291 H297 0.985 . S
C292 C286 1.379 . S
C292 C289 1.363 . S
C292 N290 1.356 . S
C293 C287 1.363 . S
C293 C288 1.379 . S
C293 N291 1.356 . S
N294 C286 1.356 . S
N294 H300 0.984 . S
N294 H301 0.984 . S
N295 C288 1.356 . S
N295 H298 0.984 . S
N295 H299 0.985 . S
H296 N291 0.984 . S
H297 N291 0.985 . S
H298 N295 0.984 . S
H299 N295 0.985 . S
H300 N294 0.984 . S
H301 N294 0.984 . S
H302 N290 0.984 . S
H303 N290 0.985 . S
C304 C305 1.363 . S
C304 C310 1.379 . S
C304 N312 1.356 . S
C305 C304 1.363 . S
C305 C311 1.363 1_554 S
C306 C307 1.363 . S
C306 C311 1.379 . S
C306 N313 1.356 . S
C307 C306 1.363 . S
C307 C310 1.363 1_556 S
N308 C310 1.356 . S
N308 H320 0.984 . S
N308 H321 0.985 . S
N309 C311 1.356 . S
N309 H314 0.984 . S
N309 H315 0.985 . S
C310 C304 1.379 . S
C310 C307 1.363 1_554 S
C310 N308 1.356 . S
C311 C305 1.363 1_556 S
C311 C306 1.379 . S
C311 N309 1.356 . S
N312 C304 1.356 . S
N312 H318 0.984 . S
N312 H319 0.984 . S
N313 C306 1.356 . S
N313 H316 0.984 . S
N313 H317 0.985 . S
H314 N309 0.984 . S
H315 N309 0.985 . S
H316 N313 0.984 . S
H317 N313 0.985 . S
H318 N312 0.984 . S
H319 N312 0.984 . S
H320 N308 0.984 . S
H321 N308 0.985 . S
C322 C323 1.363 . S
C322 C328 1.379 1_565 S
C322 N330 1.356 . S
C323 C322 1.363 . S
C323 C329 1.363 1_554 S
C324 C325 1.363 . S
C324 C329 1.379 1_545 S
C324 N331 1.356 . S
C325 C324 1.363 . S
C325 C328 1.363 1_556 S
N326 C328 1.356 . S
N326 H338 0.984 . S
N326 H339 0.985 . S
N327 C329 1.356 . S
N327 H332 0.984 . S
N327 H333 0.985 . S
C328 C322 1.379 1_545 S
C328 C325 1.363 1_554 S
C328 N326 1.356 . S
C329 C323 1.363 1_556 S
C329 C324 1.379 1_565 S
C329 N327 1.356 . S
N330 C322 1.356 . S
N330 H336 0.984 . S
N330 H337 0.984 . S
N331 C324 1.356 . S
N331 H334 0.984 . S
N331 H335 0.985 . S
H332 N327 0.984 . S
H333 N327 0.985 . S
H334 N331 0.984 . S
H335 N331 0.985 . S
H336 N330 0.984 . S
H337 N330 0.984 . S
H338 N326 0.984 . S
H339 N326 0.985 . S
C340 C341 1.363 1_554 S
C340 C346 1.379 . S
C340 N348 1.356 . S
C341 C340 1.363 1_556 S
C341 C347 1.363 . S
C342 C343 1.363 1_556 S
C342 C347 1.379 . S
C342 N349 1.356 . S
C343 C342 1.363 1_554 S
C343 C346 1.363 . S
N344 C346 1.356 . S
N344 H356 0.984 . S
N344 H357 0.985 . S
N345 C347 1.356 . S
N345 H350 0.984 . S
N345 H351 0.985 . S
C346 C340 1.379 . S
C346 C343 1.363 . S
C346 N344 1.356 . S
C347 C341 1.363 . S
C347 C342 1.379 . S
C347 N345 1.356 . S
N348 C340 1.356 . S
N348 H354 0.984 . S
N348 H355 0.984 . S
N349 C342 1.356 . S
N349 H352 0.984 . S
N349 H353 0.985 . S
H350 N345 0.984 . S
H351 N345 0.985 . S
H352 N349 0.984 . S
H353 N349 0.985 . S
H354 N348 0.984 . S
H355 N348 0.984 . S
H356 N344 0.984 . S
H357 N344 0.985 . S
C358 C359 1.363 . S
C358 C364 1.379 1_545 S
C358 N366 1.356 . S
C359 C358 1.363 . S
C359 C365 1.363 1_556 S
C360 C361 1.363 . S
C360 C365 1.379 1_565 S
C360 N367 1.356 . S
C361 C360 1.363 . S
C361 C364 1.363 1_554 S
N362 C364 1.356 . S
N362 H374 0.984 . S
N362 H375 0.985 . S
N363 C365 1.356 . S
N363 H368 0.984 . S
N363 H369 0.985 . S
C364 C358 1.379 1_565 S
C364 C361 1.363 1_556 S
C364 N362 1.356 . S
C365 C359 1.363 1_554 S
C365 C360 1.379 1_545 S
C365 N363 1.356 . S
N366 C358 1.356 . S
N366 H372 0.984 . S
N366 H373 0.984 . S
N367 C360 1.356 . S
N367 H370 0.984 . S
N367 H371 0.985 . S
H368 N363 0.984 . S
H369 N363 0.985 . S
H370 N367 0.984 . S
H371 N367 0.985 . S
H372 N366 0.984 . S
H373 N366 0.984 . S
H374 N362 0.984 . S
H375 N362 0.985 . S
C376 C377 1.363 . S
C376 C382 1.379 1_554 S
C376 N384 1.356 . S
C377 C376 1.363 . S
C377 C383 1.363 . S
C378 C379 1.363 . S
C378 C383 1.379 1_556 S
C378 N385 1.356 . S
C379 C378 1.363 . S
C379 C382 1.363 . S
N380 C382 1.356 . S
N380 H392 0.984 . S
N380 H393 0.985 . S
N381 C383 1.356 . S
N381 H386 0.984 . S
N381 H387 0.985 . S
C382 C376 1.379 1_556 S
C382 C379 1.363 . S
C382 N380 1.356 . S
C383 C377 1.363 . S
C383 C378 1.379 1_554 S
C383 N381 1.356 . S
N384 C376 1.356 . S
N384 H390 0.984 . S
N384 H391 0.984 . S
N385 C378 1.356 . S
N385 H388 0.984 . S
N385 H389 0.985 . S
H386 N381 0.984 . S
H387 N381 0.985 . S
H388 N385 0.984 . S
H389 N385 0.985 . S
H390 N384 0.984 . S
H391 N384 0.984 . S
H392 N380 0.984 . S
H393 N380 0.985 . S
C394 C395 1.363 . S
C394 C400 1.379 1_554 S
C394 N402 1.356 . S
C395 C394 1.363 . S
C395 C401 1.363 . S
C396 C397 1.363 . S
C396 C401 1.379 1_556 S
C396 N403 1.356 . S
C397 C396 1.363 . S
C397 C400 1.363 . S
N398 C400 1.356 . S
N398 H410 0.984 . S
N398 H411 0.985 . S
N399 C401 1.356 . S
N399 H404 0.984 . S
N399 H405 0.985 . S
C400 C394 1.379 1_556 S
C400 C397 1.363 . S
C400 N398 1.356 . S
C401 C395 1.363 . S
C401 C396 1.379 1_554 S
C401 N399 1.356 . S
N402 C394 1.356 . S
N402 H408 0.984 . S
N402 H409 0.984 . S
N403 C396 1.356 . S
N403 H406 0.984 . S
N403 H407 0.985 . S
H404 N399 0.984 . S
H405 N399 0.985 . S
H406 N403 0.984 . S
H407 N403 0.985 . S
H408 N402 0.984 . S
H409 N402 0.984 . S
H410 N398 0.984 . S
H411 N398 0.985 . S
C412 C413 1.363 . S
C412 C418 1.379 1_554 S
C412 N420 1.356 . S
C413 C412 1.363 . S
C413 C419 1.363 . S
C414 C415 1.363 . S
C414 C419 1.379 1_556 S
C414 N421 1.356 . S
C415 C414 1.363 . S
C415 C418 1.363 . S
N416 C418 1.356 . S
N416 H428 0.984 . S
N416 H429 0.985 . S
N417 C419 1.356 . S
N417 H422 0.984 . S
N417 H423 0.985 . S
C418 C412 1.379 1_556 S
C418 C415 1.363 . S
C418 N416 1.356 . S
C419 C413 1.363 . S
C419 C414 1.379 1_554 S
C419 N417 1.356 . S
N420 C412 1.356 . S
N420 H426 0.984 . S
N420 H427 0.984 . S
N421 C414 1.356 . S
N421 H424 0.984 . S
N421 H425 0.985 . S
H422 N417 0.984 . S
H423 N417 0.985 . S
H424 N421 0.984 . S
H425 N421 0.985 . S
H426 N420 0.984 . S
H427 N420 0.984 . S
H428 N416 0.984 . S
H429 N416 0.985 . S
C430 C431 1.363 . S
C430 C436 1.379 1_556 S
C430 N438 1.356 . S
C431 C430 1.363 . S
C431 C437 1.363 . S
C432 C433 1.363 . S
C432 C437 1.379 1_554 S
C432 N439 1.356 . S
C433 C432 1.363 . S
C433 C436 1.363 . S
N434 C436 1.356 . S
N434 H446 0.984 . S
N434 H447 0.985 . S
N435 C437 1.356 . S
N435 H440 0.984 . S
N435 H441 0.985 . S
C436 C430 1.379 1_554 S
C436 C433 1.363 . S
C436 N434 1.356 . S
C437 C431 1.363 . S
C437 C432 1.379 1_556 S
C437 N435 1.356 . S
N438 C430 1.356 . S
N438 H444 0.984 . S
N438 H445 0.984 . S
N439 C432 1.356 . S
N439 H442 0.984 . S
N439 H443 0.985 . S
H440 N435 0.984 . S
H441 N435 0.985 . S
H442 N439 0.984 . S
H443 N439 0.985 . S
H444 N438 0.984 . S
H445 N438 0.984 . S
H446 N434 0.984 . S
H447 N434 0.985 . S
C448 C449 1.363 . S
C448 C454 1.379 . S
C448 N456 1.356 . S
C449 C448 1.363 . S
C449 C455 1.363 . S
C450 C451 1.363 . S
C450 C455 1.379 . S
C450 N457 1.356 . S
C451 C450 1.363 . S
C451 C454 1.363 . S
N452 C454 1.356 . S
N452 H464 0.984 . S
N452 H465 0.985 . S
N453 C455 1.356 . S
N453 H458 0.984 . S
N453 H459 0.985 . S
C454 C448 1.379 . S
C454 C451 1.363 . S
C454 N452 1.356 . S
C455 C449 1.363 . S
C455 C450 1.379 . S
C455 N453 1.356 . S
N456 C448 1.356 . S
N456 H462 0.984 . S
N456 H463 0.984 . S
N457 C450 1.356 . S
N457 H460 0.984 . S
N457 H461 0.985 . S
H458 N453 0.984 . S
H459 N453 0.985 . S
H460 N457 0.984 . S
H461 N457 0.985 . S
H462 N456 0.984 . S
H463 N456 0.984 . S
H464 N452 0.984 . S
H465 N452 0.985 . S
C466 C467 1.363 . S
C466 C472 1.379 . S
C466 N474 1.356 . S
C467 C466 1.363 . S
C467 C473 1.363 . S
C468 C469 1.363 . S
C468 C473 1.379 . S
C468 N475 1.356 . S
C469 C468 1.363 . S
C469 C472 1.363 . S
N470 C472 1.356 . S
N470 H482 0.984 . S
N470 H483 0.985 . S
N471 C473 1.356 . S
N471 H476 0.984 . S
N471 H477 0.985 . S
C472 C466 1.379 . S
C472 C469 1.363 . S
C472 N470 1.356 . S
C473 C467 1.363 . S
C473 C468 1.379 . S
C473 N471 1.356 . S
N474 C466 1.356 . S
N474 H480 0.984 . S
N474 H481 0.984 . S
N475 C468 1.356 . S
N475 H478 0.984 . S
N475 H479 0.985 . S
H476 N471 0.984 . S
H477 N471 0.985 . S
H478 N475 0.984 . S
H479 N475 0.985 . S
H480 N474 0.984 . S
H481 N474 0.984 . S
H482 N470 0.984 . S
H483 N470 0.985 . S
C484 C485 1.363 . S
C484 C490 1.379 . S
C484 N492 1.356 . S
C485 C484 1.363 . S
C485 C491 1.363 . S
C486 C487 1.363 . S
C486 C491 1.379 . S
C486 N493 1.356 . S
C487 C486 1.363 . S
C487 C490 1.363 . S
N488 C490 1.356 . S
N488 H500 0.984 . S
N488 H501 0.985 . S
N489 C491 1.356 . S
N489 H494 0.984 . S
N489 H495 0.985 . S
C490 C484 1.379 . S
C490 C487 1.363 . S
C490 N488 1.356 . S
C491 C485 1.363 . S
C491 C486 1.379 . S
C491 N489 1.356 . S
N492 C484 1.356 . S
N492 H498 0.984 . S
N492 H499 0.984 . S
N493 C486 1.356 . S
N493 H496 0.984 . S
N493 H497 0.985 . S
H494 N489 0.984 . S
H495 N489 0.985 . S
H496 N493 0.984 . S
H497 N493 0.985 . S
H498 N492 0.984 . S
H499 N492 0.984 . S
H500 N488 0.984 . S
H501 N488 0.985 . S
C502 C503 1.363 . S
C502 C508 1.379 . S
C502 N510 1.356 . S
C503 C502 1.363 . S
C503 C509 1.363 . S
C504 C505 1.363 . S
C504 C509 1.379 . S
C504 N511 1.356 . S
C505 C504 1.363 . S
C505 C508 1.363 . S
N506 C508 1.356 . S
N506 H518 0.984 . S
N506 H519 0.985 . S
N507 C509 1.356 . S
N507 H512 0.984 . S
N507 H513 0.985 . S
C508 C502 1.379 . S
C508 C505 1.363 . S
C508 N506 1.356 . S
C509 C503 1.363 . S
C509 C504 1.379 . S
C509 N507 1.356 . S
N510 C502 1.356 . S
N510 H516 0.984 . S
N510 H517 0.984 . S
N511 C504 1.356 . S
N511 H514 0.984 . S
N511 H515 0.985 . S
H512 N507 0.984 . S
H513 N507 0.985 . S
H514 N511 0.984 . S
H515 N511 0.985 . S
H516 N510 0.984 . S
H517 N510 0.984 . S
H518 N506 0.984 . S
H519 N506 0.985 . S
C520 C521 1.363 . S
C520 C526 1.379 1_455 S
C520 N528 1.356 . S
C521 C520 1.363 . S
C521 C527 1.363 . S
C522 C523 1.363 . S
C522 C527 1.379 1_655 S
C522 N529 1.356 . S
C523 C522 1.363 . S
C523 C526 1.363 . S
N524 C526 1.356 . S
N524 H536 0.984 . S
N524 H537 0.985 . S
N525 C527 1.356 . S
N525 H530 0.984 . S
N525 H531 0.985 . S
C526 C520 1.379 1_655 S
C526 C523 1.363 . S
C526 N524 1.356 . S
C527 C521 1.363 . S
C527 C522 1.379 1_455 S
C527 N525 1.356 . S
N528 C520 1.356 . S
N528 H534 0.984 . S
N528 H535 0.984 . S
N529 C522 1.356 . S
N529 H532 0.984 . S
N529 H533 0.985 . S
H530 N525 0.984 . S
H531 N525 0.985 . S
H532 N529 0.984 . S
H533 N529 0.985 . S
H534 N528 0.984 . S
H535 N528 0.984 . S
H536 N524 0.984 . S
H537 N524 0.985 . S
C538 C539 1.363 . S
C538 C544 1.379 1_655 S
C538 N546 1.356 . S
C539 C538 1.363 . S
C539 C545 1.363 . S
C540 C541 1.363 . S
C540 C545 1.379 1_455 S
C540 N547 1.356 . S
C541 C540 1.363 . S
C541 C544 1.363 . S
N542 C544 1.356 . S
N542 H554 0.984 . S
N542 H555 0.985 . S
N543 C545 1.356 . S
N543 H548 0.984 . S
N543 H549 0.985 . S
C544 C538 1.379 1_455 S
C544 C541 1.363 . S
C544 N542 1.356 . S
C545 C539 1.363 . S
C545 C540 1.379 1_655 S
C545 N543 1.356 . S
N546 C538 1.356 . S
N546 H552 0.984 . S
N546 H553 0.984 . S
N547 C540 1.356 . S
N547 H550 0.984 . S
N547 H551 0.985 . S
H548 N543 0.984 . S
H549 N543 0.985 . S
H550 N547 0.984 . S
H551 N547 0.985 . S
H552 N546 0.984 . S
H553 N546 0.984 . S
H554 N542 0.984 . S
H555 N542 0.985 . S
C556 C557 1.363 . S
C556 C562 1.379 . S
C556 N564 1.356 1_556 S
C557 C556 1.363 . S
C557 C563 1.363 . S
C558 C559 1.363 . S
C558 C563 1.379 . S
C558 N565 1.356 . S
C559 C558 1.363 . S
C559 C562 1.363 . S
N560 C562 1.356 1_554 S
N560 H572 0.984 . S
N560 H573 0.985 1_554 S
N561 C563 1.356 . S
N561 H566 0.984 . S
N561 H567 0.985 . S
C562 C556 1.379 . S
C562 C559 1.363 . S
C562 N560 1.356 1_556 S
C563 C557 1.363 . S
C563 C558 1.379 . S
C563 N561 1.356 . S
N564 C556 1.356 1_554 S
N564 H570 0.984 . S
N564 H571 0.984 1_554 S
N565 C558 1.356 . S
N565 H568 0.984 . S
N565 H569 0.985 . S
H566 N561 0.984 . S
H567 N561 0.985 . S
H568 N565 0.984 . S
H569 N565 0.985 . S
H570 N564 0.984 . S
H571 N564 0.984 1_556 S
H572 N560 0.984 . S
H573 N560 0.985 1_556 S
C574 C575 1.363 . S
C574 C580 1.379 . S
C574 N582 1.356 . S
C575 C574 1.363 . S
C575 C581 1.363 . S
C576 C577 1.363 . S
C576 C581 1.379 . S
C576 N583 1.356 1_554 S
C577 C576 1.363 . S
C577 C580 1.363 . S
N578 C580 1.356 . S
N578 H590 0.984 . S
N578 H591 0.985 . S
N579 C581 1.356 1_556 S
N579 H584 0.984 1_556 S
N579 H585 0.985 . S
C580 C574 1.379 . S
C580 C577 1.363 . S
C580 N578 1.356 . S
C581 C575 1.363 . S
C581 C576 1.379 . S
C581 N579 1.356 1_554 S
N582 C574 1.356 . S
N582 H588 0.984 . S
N582 H589 0.984 . S
N583 C576 1.356 1_556 S
N583 H586 0.984 1_556 S
N583 H587 0.985 . S
H584 N579 0.984 1_554 S
H585 N579 0.985 . S
H586 N583 0.984 1_554 S
H587 N583 0.985 . S
H588 N582 0.984 . S
H589 N582 0.984 . S
H590 N578 0.984 . S
H591 N578 0.985 . S
C161 C9 1.640 . S
C163 C149 1.633 . S
C179 C129 1.618 . S
C181 C32 1.618 . S
C197 C112 1.617 . S
C199 C49 1.618 . S
C215 C89 1.639 . S
C217 C69 1.633 . S
C233 C58 1.480 . S
C235 C18 1.471 . S
C251 C38 1.257 . S
C253 C78 1.240 . S
C269 C79 1.731 . S
C271 C39 1.719 . S
C287 C59 1.516 . S
C289 C19 1.508 . S
C305 C98 1.471 1_554 S
C307 C138 1.480 1_556 S
C323 C118 1.257 . S
C325 C158 1.241 1_556 S
C341 C159 1.730 . S
C343 C119 1.719 1_554 S
C359 C139 1.516 . S
C361 C99 1.508 . S
C377 C4 1.529 . S
C379 C2 1.529 . S
C395 C22 1.525 . S
C397 C24 1.525 . S
C413 C42 1.523 . S
C415 C44 1.523 . S
C431 C64 1.520 . S
C433 C62 1.520 . S
C449 C82 1.529 . S
C451 C84 1.529 . S
C467 C102 1.525 . S
C469 C104 1.525 . S
C485 C124 1.523 . S
C487 C122 1.523 . S
C503 C144 1.520 . S
C505 C142 1.520 . S
C521 C12 1.921 . S
C523 C29 1.915 . S
C539 C72 1.899 . S
C541 C52 1.900 . S
C557 C92 1.921 . S
C559 C109 1.915 . S
C575 C152 1.898 . S
C577 C132 1.899 . S
