# Generated by pormake.
# Topology snz, (6)-cn, num edge types: 1
# Building blocks:
#     Node 0, Type 0, BuildingBlock: MIFKUJ_clean_sbu_0, # of connection points: 6
#     Node 1, Type 0, BuildingBlock: MIFKUJ_clean_sbu_0, # of connection points: 6
#     Node 2, Type 0, BuildingBlock: MIFKUJ_clean_sbu_0, # of connection points: 6
#     Node 3, Type 0, BuildingBlock: MIFKUJ_clean_sbu_0, # of connection points: 6
#     Node 4, Type 0, BuildingBlock: MIFKUJ_clean_sbu_0, # of connection points: 6
#     Node 5, Type 0, BuildingBlock: MIFKUJ_clean_sbu_0, # of connection points: 6
#     Node 6, Type 0, BuildingBlock: MIFKUJ_clean_sbu_0, # of connection points: 6
#     Node 7, Type 0, BuildingBlock: MIFKUJ_clean_sbu_0, # of connection points: 6
#     Node 8, Type 0, BuildingBlock: MIFKUJ_clean_sbu_0, # of connection points: 6
#     Edge 9, Type (0, 0), BuildingBlock: TEMPAE_clean_linker_10, # of connection points: 2
#     Edge 10, Type (0, 0), BuildingBlock: TEMPAE_clean_linker_10, # of connection points: 2
#     Edge 11, Type (0, 0), BuildingBlock: TEMPAE_clean_linker_10, # of connection points: 2
#     Edge 12, Type (0, 0), BuildingBlock: TEMPAE_clean_linker_10, # of connection points: 2
#     Edge 13, Type (0, 0), BuildingBlock: TEMPAE_clean_linker_10, # of connection points: 2
#     Edge 14, Type (0, 0), BuildingBlock: TEMPAE_clean_linker_10, # of connection points: 2
#     Edge 15, Type (0, 0), BuildingBlock: TEMPAE_clean_linker_10, # of connection points: 2
#     Edge 16, Type (0, 0), BuildingBlock: TEMPAE_clean_linker_10, # of connection points: 2
#     Edge 17, Type (0, 0), BuildingBlock: TEMPAE_clean_linker_10, # of connection points: 2
#     Edge 18, Type (0, 0), BuildingBlock: TEMPAE_clean_linker_10, # of connection points: 2
#     Edge 19, Type (0, 0), BuildingBlock: TEMPAE_clean_linker_10, # of connection points: 2
#     Edge 20, Type (0, 0), BuildingBlock: TEMPAE_clean_linker_10, # of connection points: 2
#     Edge 21, Type (0, 0), BuildingBlock: TEMPAE_clean_linker_10, # of connection points: 2
#     Edge 22, Type (0, 0), BuildingBlock: TEMPAE_clean_linker_10, # of connection points: 2
#     Edge 23, Type (0, 0), BuildingBlock: TEMPAE_clean_linker_10, # of connection points: 2
#     Edge 24, Type (0, 0), BuildingBlock: TEMPAE_clean_linker_10, # of connection points: 2
#     Edge 25, Type (0, 0), BuildingBlock: TEMPAE_clean_linker_10, # of connection points: 2
#     Edge 26, Type (0, 0), BuildingBlock: TEMPAE_clean_linker_10, # of connection points: 2
#     Edge 27, Type (0, 0), BuildingBlock: TEMPAE_clean_linker_10, # of connection points: 2
#     Edge 28, Type (0, 0), BuildingBlock: TEMPAE_clean_linker_10, # of connection points: 2
#     Edge 29, Type (0, 0), BuildingBlock: TEMPAE_clean_linker_10, # of connection points: 2
#     Edge 30, Type (0, 0), BuildingBlock: TEMPAE_clean_linker_10, # of connection points: 2
#     Edge 31, Type (0, 0), BuildingBlock: TEMPAE_clean_linker_10, # of connection points: 2
#     Edge 32, Type (0, 0), BuildingBlock: TEMPAE_clean_linker_10, # of connection points: 2
#     Edge 33, Type (0, 0), BuildingBlock: TEMPAE_clean_linker_10, # of connection points: 2
#     Edge 34, Type (0, 0), BuildingBlock: TEMPAE_clean_linker_10, # of connection points: 2
#     Edge 35, Type (0, 0), BuildingBlock: TEMPAE_clean_linker_10, # of connection points: 2
# Relax obj value: 0.114
# Max RMSD: 0.178
# Mean RMSD: 0.123
data_MOF--net-snz--node1-MIFKUJ_clean_sbu_0--edge1-TEMPAE_clean_linker_10
_symmetry_space_group_name_H-M    P1
_symmetry_Int_Tables_number       1
_symmetry_cell_setting            triclinic
loop_
_symmetry_equiv_pos_as_xyz
'x, y, z'
_cell_length_a     58.40862
_cell_length_b     55.079353
_cell_length_c     14.908587
_cell_angle_alpha  93.516208
_cell_angle_beta   94.330505
_cell_angle_gamma 119.92028
loop_
_atom_site_label
_atom_site_type_symbol
_atom_site_fract_x
_atom_site_fract_y
_atom_site_fract_z
_atom_type_partial_charge
Zn0 Zn 0.04569 0.51749 0.96303 0.0
Zn1 Zn 0.07802 0.48016 0.96698 0.0
C2 C 0.07947 0.56645 0.08118 0.0
O3 O 0.05777 0.55484 0.12137 0.0
C4 C 0.04421 0.42444 0.88678 0.0
O5 O 0.06105 0.43511 0.82707 0.0
O6 O 0.01919 0.53113 0.94548 0.0
O7 O 0.04758 0.50431 0.83575 0.0
O8 O 0.07979 0.49402 0.84253 0.0
C9 C 0.0274 0.5528 0.90286 0.0
O10 O 0.05091 0.5634 0.87431 0.0
O11 O 0.08027 0.55325 0.00955 0.0
C12 C 0.10686 0.46103 0.06688 0.0
O13 O 0.08778 0.45695 0.11623 0.0
O14 O 0.10832 0.47283 0.99502 0.0
O15 O 0.07882 0.50326 0.08025 0.0
O16 O 0.0368 0.49165 0.06327 0.0
O17 O 0.04613 0.44055 0.95548 0.0
C18 C 0.06355 0.49905 0.79713 0.0
C19 C 0.05737 0.4963 0.11433 0.0
Zn20 Zn 0.54699 0.4498 0.12464 0.0
Zn21 Zn 0.61664 0.4923 0.14782 0.0
C22 C 0.53271 0.38972 0.1237 0.0
O23 O 0.53853 0.3951 0.21214 0.0
C24 C 0.62885 0.54521 0.2172 0.0
O25 O 0.64148 0.5375 0.27493 0.0
O26 O 0.51255 0.44972 0.13441 0.0
O27 O 0.56543 0.45831 0.25464 0.0
O28 O 0.60939 0.47818 0.27087 0.0
C29 C 0.49598 0.43184 0.18075 0.0
O30 O 0.50238 0.41535 0.2224 0.0
O31 O 0.5356 0.40945 0.07697 0.0
C32 C 0.66034 0.51989 0.05601 0.0
O33 O 0.64031 0.51755 1.00208 0.0
O34 O 0.65568 0.50922 0.13064 0.0
O35 O 0.59711 0.46448 0.03447 0.0
O36 O 0.5644 0.47317 0.02175 0.0
O37 O 0.61322 0.52728 0.15114 0.0
C38 C 0.58743 0.46727 0.30448 0.0
C39 C 0.5808 0.46824 0.98476 0.0
Zn40 Zn 0.61089 0.03445 0.10155 0.0
Zn41 Zn 0.54467 0.00736 0.0724 0.0
C42 C 0.62609 0.99803 0.16503 0.0
O43 O 0.63801 0.02057 0.22477 0.0
C44 C 0.5337 0.05364 0.06037 0.0
O45 O 0.5162 0.04051 0.11625 0.0
O46 O 0.64947 0.06202 0.09091 0.0
O47 O 0.59163 0.03753 0.987 0.0
O48 O 0.55829 0.99408 0.96894 0.0
C49 C 0.65612 0.05673 0.01601 0.0
O50 O 0.63793 0.03572 0.95803 0.0
O51 O 0.61049 0.9973 0.09902 0.0
C52 C 0.49575 0.95746 0.10016 0.0
O53 O 0.51192 0.94859 0.12769 0.0
O54 O 0.50523 0.98112 0.06885 0.0
O55 O 0.55855 0.01104 0.20481 0.0
O56 O 0.60192 0.04129 0.22619 0.0
O57 O 0.54868 0.04425 0.03836 0.0
C58 C 0.57529 0.01546 0.93464 0.0
C59 C 0.58003 0.02633 0.25762 0.0
Zn60 Zn 0.74141 0.8594 0.30244 0.0
Zn61 Zn 0.7634 0.80687 0.30102 0.0
C62 C 0.76971 0.91751 0.38541 0.0
O63 O 0.74535 0.91274 0.38586 0.0
C64 C 0.72566 0.75371 0.2196 0.0
O65 O 0.74528 0.76236 0.16946 0.0
O66 O 0.71074 0.86625 0.26976 0.0
O67 O 0.74938 0.84809 0.1808 0.0
O68 O 0.76835 0.82185 0.17862 0.0
C69 C 0.71364 0.88181 0.20676 0.0
O70 O 0.73507 0.89085 0.16543 0.0
O71 O 0.77338 0.89779 0.35454 0.0
C72 C 0.78168 0.77424 0.3853 0.0
O73 O 0.76003 0.7678 0.42308 0.0
O74 O 0.78871 0.79214 0.32796 0.0
O75 O 0.76968 0.83258 0.4158 0.0
O76 O 0.73275 0.83445 0.40619 0.0
O77 O 0.72721 0.77089 0.28434 0.0
C78 C 0.75964 0.83587 0.13833 0.0
C79 C 0.7514 0.83371 0.45372 0.0
Zn80 Zn 0.19738 0.82703 0.30213 0.0
Zn81 Zn 0.2607 0.85518 0.32046 0.0
C82 C 0.1807 0.77542 0.20275 0.0
O83 O 0.16978 0.78678 0.15319 0.0
C84 C 0.27685 0.9087 0.41204 0.0
O85 O 0.28291 0.89673 0.47586 0.0
O86 O 0.1584 0.81434 0.30674 0.0
O87 O 0.21405 0.84414 0.43063 0.0
O88 O 0.24868 0.83802 0.43806 0.0
C89 C 0.14894 0.79744 0.36633 0.0
O90 O 0.16471 0.79098 0.41336 0.0
O91 O 0.19601 0.7898 0.27461 0.0
C92 C 0.30579 0.86838 0.23055 0.0
O93 O 0.28952 0.86868 0.16543 0.0
O94 O 0.29797 0.86256 0.308 0.0
O95 O 0.23913 0.83355 0.19939 0.0
O96 O 0.21169 0.84988 0.19645 0.0
O97 O 0.26588 0.8946 0.33484 0.0
C98 C 0.23121 0.84069 0.47677 0.0
C99 C 0.22586 0.84242 0.15515 0.0
Zn100 Zn 0.25927 0.33195 0.23987 0.0
Zn101 Zn 0.19224 0.29505 0.21225 0.0
C102 C 0.28843 0.30232 0.24233 0.0
O103 O 0.29911 0.31759 0.17665 0.0
C104 C 0.17903 0.33213 0.14577 0.0
O105 O 0.16514 0.30845 0.09162 0.0
O106 O 0.2954 0.36723 0.2427 0.0
O107 O 0.24208 0.32045 0.10731 0.0
O108 O 0.19986 0.28627 0.08827 0.0
C109 C 0.30494 0.37667 0.1702 0.0
O110 O 0.28939 0.36631 0.09288 0.0
O111 O 0.26951 0.30342 0.27574 0.0
C112 C 0.14782 0.27692 0.30247 0.0
O113 O 0.16694 0.2983 0.3569 0.0
O114 O 0.15341 0.26967 0.22822 0.0
O115 O 0.21218 0.29141 0.32368 0.0
O116 O 0.241 0.33662 0.34638 0.0
O117 O 0.19521 0.33333 0.2106 0.0
C118 C 0.22114 0.30256 0.05556 0.0
C119 C 0.22663 0.31354 0.37834 0.0
Zn120 Zn 0.44525 0.14772 0.68237 0.0
Zn121 Zn 0.40609 0.17772 0.57144 0.0
C122 C 0.49607 0.16124 0.61246 0.0
O123 O 0.51353 0.17221 0.55489 0.0
C124 C 0.38752 0.21868 0.55845 0.0
O125 O 0.40735 0.2347 0.62184 0.0
O126 O 0.44666 0.11835 0.75196 0.0
O127 O 0.45038 0.18109 0.76405 0.0
O128 O 0.42672 0.19781 0.69511 0.0
C129 C 0.44443 0.11319 0.83354 0.0
O130 O 0.44179 0.08924 0.855 0.0
O131 O 0.47424 0.16128 0.5999 0.0
C132 C 0.43476 0.20007 0.41754 0.0
O133 O 0.42658 0.21824 0.42827 0.0
O134 O 0.43022 0.18248 0.47497 0.0
O135 O 0.38 0.13604 0.56315 0.0
O136 O 0.4087 0.12394 0.61575 0.0
O137 O 0.38359 0.19448 0.53017 0.0
C138 C 0.44235 0.19876 0.76165 0.0
C139 C 0.38602 0.11726 0.57612 0.0
Zn140 Zn 0.93368 0.1709 0.66256 0.0
Zn141 Zn 0.89064 0.1562 0.79231 0.0
C142 C 0.97161 0.20389 0.53888 0.0
O143 O 0.96218 0.221 0.54917 0.0
C144 C 0.84157 0.12741 0.86193 0.0
O145 O 0.8504 0.10983 0.87107 0.0
O146 O 0.9025 0.17466 0.61121 0.0
O147 O 0.91987 0.12996 0.67807 0.0
O148 O 0.88048 0.12473 0.69285 0.0
C149 C 0.89209 0.17303 0.53157 0.0
O150 O 0.87224 0.17788 0.52145 0.0
O151 O 0.96213 0.1818 0.57913 0.0
C152 C 0.92753 0.14856 0.92831 0.0
O153 O 0.94761 0.15923 0.88038 0.0
O154 O 0.90572 0.14709 0.90095 0.0
O155 O 0.91336 0.19832 0.7836 0.0
O156 O 0.95132 0.19993 0.7715 0.0
O157 O 0.85556 0.14994 0.82664 0.0
C158 C 0.89475 0.11431 0.67218 0.0
C159 C 0.93867 0.21219 0.79315 0.0
Zn160 Zn 0.88837 0.67255 0.78655 0.0
Zn161 Zn 0.91097 0.6461 0.54599 0.0
C162 C 0.83692 0.65328 0.85399 0.0
O163 O 0.84432 0.68015 0.85964 0.0
C164 C 0.95964 0.6934 0.50935 0.0
O165 O 0.94787 0.7067 0.53995 0.0
O166 O 0.9023 0.71222 0.85089 0.0
O167 O 0.91368 0.65788 0.82356 0.0
O168 O 0.91432 0.65021 0.6804 0.0
C169 C 0.90553 0.72231 0.93353 0.0
O170 O 0.91468 0.74948 0.95101 0.0
O171 O 0.85177 0.64518 0.82096 0.0
C172 C 0.87659 0.59567 0.42206 0.0
O173 O 0.86052 0.56851 0.39911 0.0
O174 O 0.88974 0.60449 0.50047 0.0
O175 O 0.89002 0.66511 0.50695 0.0
O176 O 0.88578 0.6725 0.64918 0.0
O177 O 0.94776 0.66668 0.50639 0.0
C178 C 0.92138 0.64823 0.76062 0.0
C179 C 0.88149 0.67521 0.56645 0.0
C180 C 0.0707 0.48247 0.64627 0.0
C181 C 0.06297 0.49887 0.69708 0.0
C182 C 0.06905 0.48131 0.55116 0.0
C183 C 0.06017 0.49756 0.50575 0.0
C184 C 0.05278 0.51452 0.55699 0.0
C185 C 0.05393 0.51467 0.65163 0.0
C186 C 0.07658 0.46247 0.49914 0.0
C187 C 0.04392 0.53278 0.51194 0.0
C188 C 0.08109 0.51537 0.2713 0.0
C189 C 0.05756 0.49696 0.21418 0.0
C190 C 0.08207 0.51608 0.36599 0.0
C191 C 0.05916 0.49732 0.40495 0.0
C192 C 0.03535 0.47853 0.34752 0.0
C193 C 0.03472 0.47888 0.25289 0.0
C194 C 0.10763 0.53705 0.42438 0.0
C195 C 0.01066 0.45776 0.386 0.0
H196 H 0.0775 0.47002 0.6807 0.0
H197 H 0.04807 0.52755 0.69037 0.0
H198 H 0.05975 0.44747 0.44788 0.0
H199 H 0.0937 0.47532 0.46214 0.0
H200 H 0.08201 0.45027 0.54396 0.0
H201 H 0.03937 0.54521 0.56151 0.0
H202 H 0.05969 0.54757 0.4734 0.0
H203 H 0.0259 0.5195 0.46278 0.0
H204 H 0.09876 0.52959 0.24183 0.0
H205 H 0.01656 0.46446 0.20902 0.0
H206 H 0.11522 0.52577 0.46495 0.0
H207 H 0.10387 0.55045 0.4727 0.0
H208 H 0.12334 0.55093 0.38375 0.0
H209 H 0.01513 0.44416 0.42714 0.0
H210 H 0.99396 0.44409 0.33233 0.0
H211 H 0.00412 0.46916 0.43168 0.0
C212 C 0.59247 0.45302 0.84122 0.0
C213 C 0.58157 0.46752 0.88482 0.0
C214 C 0.59354 0.45214 0.74705 0.0
C215 C 0.58414 0.46677 0.69486 0.0
C216 C 0.57338 0.48174 0.7387 0.0
C217 C 0.5719 0.48162 0.83271 0.0
C218 C 0.60454 0.43534 0.70326 0.0
C219 C 0.5637 0.49817 0.68639 0.0
C220 C 0.60939 0.48577 0.46509 0.0
C221 C 0.58728 0.46606 0.40423 0.0
C222 C 0.60861 0.48634 0.55952 0.0
C223 C 0.58541 0.46627 0.59449 0.0
C224 C 0.56333 0.44582 0.53332 0.0
C225 C 0.56439 0.44622 0.43927 0.0
C226 C 0.63242 0.5089 0.62184 0.0
C227 C 0.53846 0.42355 0.56722 0.0
H228 H 0.59987 0.44193 0.88071 0.0
H229 H 0.56366 0.49309 0.8658 0.0
H230 H 0.5895 0.41931 0.64926 0.0
H231 H 0.62227 0.44941 0.6707 0.0
H232 H 0.61031 0.42444 0.75268 0.0
H233 H 0.55665 0.50942 0.73065 0.0
H234 H 0.57997 0.51384 0.65142 0.0
H235 H 0.54714 0.48376 0.63346 0.0
H236 H 0.62704 0.5014 0.43881 0.0
H237 H 0.54723 0.43085 0.39293 0.0
H238 H 0.64 0.49911 0.66953 0.0
H239 H 0.62646 0.52182 0.66311 0.0
H240 H 0.64887 0.52306 0.58421 0.0
H241 H 0.54358 0.41176 0.61478 0.0
H242 H 0.52356 0.40831 0.51124 0.0
H243 H 0.52919 0.43364 0.60516 0.0
C244 C 0.58299 0.04202 0.79917 0.0
C245 C 0.57456 0.01627 0.83486 0.0
C246 C 0.58347 0.04382 0.70557 0.0
C247 C 0.57596 0.01938 0.64561 0.0
C248 C 0.56753 0.9933 0.68127 0.0
C249 C 0.56656 0.99197 0.77528 0.0
C250 C 0.59174 0.07187 0.67087 0.0
C251 C 0.56005 0.96689 0.62026 0.0
C252 C 0.55561 0.01792 0.39466 0.0
C253 C 0.57937 0.02566 0.3573 0.0
C254 C 0.55428 0.01604 0.48812 0.0
C255 C 0.57706 0.02126 0.54585 0.0
C256 C 0.60107 0.02889 0.50841 0.0
C257 C 0.60203 0.03135 0.41501 0.0
C258 C 0.5285 0.00862 0.52516 0.0
C259 C 0.62573 0.03424 0.56702 0.0
H260 H 0.58902 0.06088 0.84465 0.0
H261 H 0.56028 0.97208 0.80246 0.0
H262 H 0.57444 0.07064 0.62993 0.0
H263 H 0.59922 0.08931 0.72663 0.0
H264 H 0.60752 0.07713 0.62608 0.0
H265 H 0.55437 0.9484 0.65843 0.0
H266 H 0.54315 0.96195 0.56876 0.0
H267 H 0.57703 0.9703 0.58334 0.0
H268 H 0.53801 0.01354 0.35074 0.0
H269 H 0.62039 0.03704 0.38675 0.0
H270 H 0.53185 0.02557 0.57787 0.0
H271 H 0.52123 0.98895 0.55792 0.0
H272 H 0.51272 0.00564 0.47169 0.0
H273 H 0.63217 0.05232 0.61946 0.0
H274 H 0.6425 0.03888 0.5272 0.0
H275 H 0.62128 0.01557 0.60285 0.0
C276 C 0.7296 0.82555 0.59733 0.0
C277 C 0.7527 0.83522 0.55439 0.0
C278 C 0.73072 0.82576 0.69229 0.0
C279 C 0.75563 0.83662 0.74614 0.0
C280 C 0.77906 0.84706 0.70312 0.0
C281 C 0.77728 0.84587 0.60808 0.0
C282 C 0.70518 0.81383 0.73489 0.0
C283 C 0.8061 0.85954 0.75754 0.0
C284 C 0.76027 0.85924 0.99785 0.0
C285 C 0.76003 0.83681 0.03861 0.0
C286 C 0.75925 0.85967 0.90323 0.0
C287 C 0.7572 0.83674 0.84723 0.0
C288 C 0.75686 0.81399 0.88805 0.0
C289 C 0.75863 0.81447 0.98303 0.0
C290 C 0.76043 0.88474 0.8632 0.0
C291 C 0.75412 0.78882 0.83122 0.0
H292 H 0.71053 0.81712 0.55646 0.0
H293 H 0.79528 0.85362 0.5757 0.0
H294 H 0.70288 0.79625 0.77322 0.0
H295 H 0.70582 0.8302 0.78391 0.0
H296 H 0.68742 0.80589 0.68383 0.0
H297 H 0.8225 0.86802 0.71436 0.0
H298 H 0.80931 0.87681 0.80863 0.0
H299 H 0.80717 0.84326 0.79487 0.0
H300 H 0.76148 0.87666 0.04016 0.0
H301 H 0.7581 0.79688 0.01366 0.0
H302 H 0.74197 0.8779 0.81703 0.0
H303 H 0.7773 0.89416 0.82229 0.0
H304 H 0.76286 0.90126 0.91598 0.0
H305 H 0.73566 0.77915 0.7827 0.0
H306 H 0.75345 0.7725 0.87297 0.0
H307 H 0.77106 0.79558 0.79085 0.0
C308 C 0.20659 0.83119 0.6126 0.0
C309 C 0.23072 0.84037 0.57635 0.0
C310 C 0.2054 0.83091 0.70634 0.0
C311 C 0.22912 0.8412 0.76627 0.0
C312 C 0.25365 0.85091 0.73026 0.0
C313 C 0.25409 0.84988 0.63567 0.0
C314 C 0.17868 0.81937 0.74108 0.0
C315 C 0.2795 0.86285 0.79173 0.0
C316 C 0.22699 0.86414 0.01129 0.0
C317 C 0.22556 0.8418 0.05553 0.0
C318 C 0.22878 0.86455 0.91757 0.0
C319 C 0.2281 0.84155 0.86641 0.0
C320 C 0.22593 0.8186 0.91081 0.0
C321 C 0.22521 0.81927 1.00495 0.0
C322 C 0.23186 0.88981 0.87359 0.0
C323 C 0.22413 0.79318 0.85878 0.0
H324 H 0.18843 0.82383 0.56743 0.0
H325 H 0.27283 0.85725 0.60828 0.0
H326 H 0.17544 0.80248 0.78424 0.0
H327 H 0.17817 0.83626 0.78381 0.0
H328 H 0.16197 0.81063 0.68533 0.0
H329 H 0.29698 0.87055 0.75342 0.0
H330 H 0.28218 0.88058 0.83952 0.0
H331 H 0.27903 0.84654 0.8329 0.0
H332 H 0.22761 0.88174 0.05053 0.0
H333 H 0.22398 0.80189 0.03906 0.0
H334 H 0.21469 0.88331 0.8214 0.0
H335 H 0.25004 0.89888 0.83876 0.0
H336 H 0.23326 0.9065 0.92333 0.0
H337 H 0.20726 0.78407 0.80365 0.0
H338 H 0.2213 0.77655 0.90269 0.0
H339 H 0.24252 0.79954 0.82664 0.0
C340 C 0.23318 0.33569 0.53834 0.0
C341 C 0.22655 0.31197 0.47786 0.0
C342 C 0.23199 0.33386 0.63206 0.0
C343 C 0.22468 0.30786 0.66676 0.0
C344 C 0.2185 0.284 0.60602 0.0
C345 C 0.21917 0.28626 0.51256 0.0
C346 C 0.23819 0.35968 0.69386 0.0
C347 C 0.21129 0.25606 0.63978 0.0
C348 C 0.24547 0.31061 0.91842 0.0
C349 C 0.22154 0.30201 0.95554 0.0
C350 C 0.24666 0.3121 0.82474 0.0
C351 C 0.22352 0.30557 0.76643 0.0
C352 C 0.19927 0.29683 0.80356 0.0
C353 C 0.1985 0.2948 0.89727 0.0
C354 C 0.27275 0.32076 0.78821 0.0
C355 C 0.17425 0.29025 0.74453 0.0
H356 H 0.2387 0.35557 0.51213 0.0
H357 H 0.21419 0.26784 0.4665 0.0
H358 H 0.22093 0.35514 0.73078 0.0
H359 H 0.25532 0.36536 0.74531 0.0
H360 H 0.24298 0.37814 0.65633 0.0
H361 H 0.208 0.23981 0.58436 0.0
H362 H 0.22738 0.25875 0.69124 0.0
H363 H 0.19292 0.24821 0.67317 0.0
H364 H 0.26334 0.31611 0.9628 0.0
H365 H 0.18002 0.28849 0.92542 0.0
H366 H 0.27941 0.34053 0.75641 0.0
H367 H 0.27013 0.30431 0.73485 0.0
H368 H 0.28868 0.32417 0.84182 0.0
H369 H 0.17773 0.30891 0.71022 0.0
H370 H 0.15712 0.28417 0.78377 0.0
H371 H 0.16888 0.27279 0.69085 0.0
C372 C 0.43853 0.20703 0.25388 0.0
C373 C 0.44354 0.19585 0.33018 0.0
C374 C 0.44124 0.19828 0.16681 0.0
C375 C 0.44973 0.17841 0.15629 0.0
C376 C 0.45718 0.1691 0.23384 0.0
C377 C 0.45378 0.17775 0.31985 0.0
C378 C 0.43316 0.20866 0.08565 0.0
C379 C 0.46688 0.14836 0.2256 0.0
C380 C 0.42232 0.12269 0.95415 0.0
C381 C 0.44383 0.13263 0.90381 0.0
C382 C 0.42344 0.13842 0.0335 0.0
C383 C 0.44713 0.16418 0.06494 0.0
C384 C 0.46865 0.17477 0.01243 0.0
C385 C 0.46653 0.15901 0.9312 0.0
C386 C 0.39979 0.12666 0.0863 0.0
C387 C 0.49454 0.20153 0.04534 0.0
H388 H 0.4308 0.22121 0.26125 0.0
H389 H 0.45803 0.16933 0.3786 0.0
H390 H 0.44975 0.21821 0.04381 0.0
H391 H 0.41607 0.19065 0.04248 0.0
H392 H 0.4274 0.22447 0.10523 0.0
H393 H 0.47564 0.1466 0.29196 0.0
H394 H 0.44997 0.12721 0.19831 0.0
H395 H 0.48201 0.15462 0.17772 0.0
H396 H 0.4049 0.10212 0.93286 0.0
H397 H 0.48333 0.16633 0.89265 0.0
H398 H 0.39449 0.14297 0.10376 0.0
H399 H 0.4049 0.12039 0.15073 0.0
H400 H 0.38205 0.10794 0.04805 0.0
H401 H 0.49087 0.21895 0.06455 0.0
H402 H 0.5086 0.20796 0.99361 0.0
H403 H 0.50418 0.19834 0.1069 0.0
C404 C 0.90047 0.17856 0.37179 0.0
C405 C 0.90244 0.16713 0.45116 0.0
C406 C 0.90936 0.17278 0.29327 0.0
C407 C 0.92088 0.1554 0.29464 0.0
C408 C 0.92362 0.14442 0.37538 0.0
C409 C 0.91362 0.1498 0.4521 0.0
C410 C 0.90581 0.18477 0.20821 0.0
C411 C 0.93639 0.12648 0.38069 0.0
C412 C 0.90893 0.12251 0.05738 0.0
C413 C 0.93097 0.1436 0.02254 0.0
C414 C 0.90693 0.12388 0.15011 0.0
C415 C 0.92746 0.14702 0.20839 0.0
C416 C 0.95148 0.16585 0.17514 0.0
C417 C 0.95303 0.16387 0.08169 0.0
C418 C 0.88121 0.10297 0.18313 0.0
C419 C 0.97425 0.18984 0.23679 0.0
H420 H 0.89175 0.19193 0.37086 0.0
H421 H 0.91449 0.14034 0.51259 0.0
H422 H 0.92534 0.19779 0.18357 0.0
H423 H 0.89291 0.16738 0.15397 0.0
H424 H 0.89668 0.19806 0.21912 0.0
H425 H 0.94476 0.1276 0.45127 0.0
H426 H 0.92115 0.10418 0.35778 0.0
H427 H 0.95253 0.13303 0.33676 0.0
H428 H 0.89206 0.10657 0.01112 0.0
H429 H 0.97019 0.17999 0.05447 0.0
H430 H 0.86924 0.11315 0.19514 0.0
H431 H 0.88517 0.09617 0.24808 0.0
H432 H 0.86917 0.08402 0.13306 0.0
H433 H 0.96781 0.20401 0.26717 0.0
H434 H 0.99163 0.20251 0.20059 0.0
H435 H 0.98049 0.18131 0.29299 0.0
C436 C 0.9049 0.63511 0.3375 0.0
C437 C 0.87952 0.61573 0.35717 0.0
C438 C 0.90845 0.65431 0.27511 0.0
C439 C 0.88589 0.65368 0.23011 0.0
C440 C 0.86005 0.63395 0.24971 0.0
C441 C 0.85719 0.61508 0.31303 0.0
C442 C 0.93625 0.67454 0.25478 0.0
C443 C 0.83516 0.63161 0.20199 0.0
C444 C 0.90097 0.71611 0.0984 0.0
C445 C 0.8994 0.7046 0.00981 0.0
C446 C 0.89618 0.69984 0.17136 0.0
C447 C 0.88944 0.67126 0.15507 0.0
C448 C 0.88758 0.65957 0.06606 0.0
C449 C 0.89264 0.67643 0.9956 0.0
C450 C 0.89909 0.71396 0.26488 0.0
C451 C 0.88096 0.62939 0.04508 0.0
H452 H 0.92191 0.63442 0.36836 0.0
H453 H 0.83749 0.59975 0.32772 0.0
H454 H 0.93751 0.67203 0.18117 0.0
H455 H 0.94108 0.69654 0.27353 0.0
H456 H 0.95149 0.67128 0.29219 0.0
H457 H 0.83908 0.6505 0.16836 0.0
H458 H 0.82568 0.61304 0.14976 0.0
H459 H 0.82056 0.62802 0.25063 0.0
H460 H 0.90625 0.73797 0.11142 0.0
H461 H 0.89154 0.66738 0.92958 0.0
H462 H 0.91972 0.73203 0.28183 0.0
H463 H 0.8948 0.69976 0.31851 0.0
H464 H 0.88563 0.72275 0.2654 0.0
H465 H 0.88182 0.62408 0.97275 0.0
H466 H 0.86063 0.61482 0.06134 0.0
H467 H 0.89503 0.62552 0.08744 0.0
C468 C 0.18854 0.38162 0.1878 0.0
C469 C 0.17362 0.35544 0.13469 0.0
C470 C 0.18194 0.40283 0.18009 0.0
C471 C 0.15969 0.39746 0.11905 0.0
C472 C 0.14502 0.37131 0.06391 0.0
C473 C 0.1523 0.3508 0.0719 0.0
C474 C 0.1983 0.43065 0.2388 0.0
C475 C 0.12091 0.36448 0.9988 0.0
C476 C 0.11803 0.43115 0.15873 0.0
C477 C 0.12365 0.44851 0.08878 0.0
C478 C 0.13086 0.41571 0.17292 0.0
C479 C 0.15014 0.41796 0.11665 0.0
C480 C 0.15731 0.43697 0.05015 0.0
C481 C 0.14382 0.45189 0.03647 0.0
C482 C 0.12234 0.39545 0.24388 0.0
C483 C 0.17812 0.44035 0.99 0.0
H484 H 0.20513 0.38542 0.23608 0.0
H485 H 0.14062 0.33068 0.03036 0.0
H486 H 0.20402 0.44839 0.19718 0.0
H487 H 0.18628 0.43268 0.2897 0.0
H488 H 0.21663 0.43272 0.27503 0.0
H489 H 0.11219 0.34349 0.95872 0.0
H490 H 0.10539 0.3647 0.03687 0.0
H491 H 0.1263 0.38068 0.95123 0.0
H492 H 0.1026 0.4285 0.2 0.0
H493 H 0.14848 0.46547 0.98288 0.0
H494 H 0.13995 0.39817 0.28711 0.0
H495 H 0.11146 0.37346 0.21017 0.0
H496 H 0.10914 0.39828 0.28797 0.0
H497 H 0.19585 0.44237 0.0305 0.0
H498 H 0.18449 0.45905 0.95239 0.0
H499 H 0.16994 0.42133 0.9401 0.0
C500 C 0.65781 0.59506 0.28559 0.0
C501 C 0.6365 0.57537 0.22206 0.0
C502 C 0.6684 0.6241 0.2841 0.0
C503 C 0.65708 0.63388 0.21866 0.0
C504 C 0.63441 0.61416 0.15819 0.0
C505 C 0.62453 0.58507 0.15992 0.0
C506 C 0.69286 0.6443 0.34895 0.0
C507 C 0.62138 0.62378 0.08896 0.0
C508 C 0.68413 0.71282 0.2634 0.0
C509 C 0.70507 0.72333 0.20979 0.0
C510 C 0.6669 0.68357 0.26211 0.0
C511 C 0.67113 0.66451 0.20752 0.0
C512 C 0.69141 0.67509 0.15004 0.0
C513 C 0.70788 0.70429 0.15117 0.0
C514 C 0.64507 0.67309 0.32261 0.0
C515 C 0.69702 0.65564 0.09188 0.0
H516 H 0.66719 0.58787 0.33427 0.0
H517 H 0.60795 0.57002 0.11101 0.0
H518 H 0.71 0.65581 0.31041 0.0
H519 H 0.68966 0.66022 0.38598 0.0
H520 H 0.69827 0.63335 0.3992 0.0
H521 H 0.60161 0.60626 0.05763 0.0
H522 H 0.61891 0.641 0.12037 0.0
H523 H 0.63426 0.63226 0.03455 0.0
H524 H 0.68167 0.72737 0.30834 0.0
H525 H 0.72389 0.71212 0.10907 0.0
H526 H 0.65069 0.66494 0.38146 0.0
H527 H 0.62626 0.65544 0.28578 0.0
H528 H 0.64142 0.69006 0.34841 0.0
H529 H 0.70432 0.64477 0.13589 0.0
H530 H 0.7122 0.6671 0.04619 0.0
H531 H 0.67854 0.63915 0.05007 0.0
C532 C 0.45254 0.95546 0.11478 0.0
C533 C 0.46739 0.94182 0.11538 0.0
C534 C 0.42626 0.94176 0.13559 0.0
C535 C 0.41432 0.91351 0.1559 0.0
C536 C 0.42901 0.89941 0.15484 0.0
C537 C 0.45548 0.91383 0.1354 0.0
C538 C 0.41138 0.95766 0.13697 0.0
C539 C 0.41676 0.86912 0.17432 0.0
C540 C 0.35418 0.88883 0.28501 0.0
C541 C 0.33327 0.87679 0.21396 0.0
C542 C 0.38072 0.90013 0.26746 0.0
C543 C 0.38632 0.89883 0.17698 0.0
C544 C 0.36513 0.88531 0.10566 0.0
C545 C 0.3389 0.87471 0.12494 0.0
C546 C 0.40281 0.91472 0.34518 0.0
C547 C 0.37019 0.88298 0.00851 0.0
H548 H 0.46167 0.97717 0.10019 0.0
H549 H 0.46684 0.90316 0.13582 0.0
H550 H 0.39333 0.94681 0.08659 0.0
H551 H 0.40469 0.95804 0.20449 0.0
H552 H 0.42374 0.97973 0.12167 0.0
H553 H 0.43065 0.86098 0.16891 0.0
H554 H 0.41071 0.86716 0.24348 0.0
H555 H 0.39851 0.85558 0.12629 0.0
H556 H 0.34991 0.8906 0.35383 0.0
H557 H 0.32275 0.86517 0.06984 0.0
H558 H 0.41467 0.93756 0.33802 0.0
H559 H 0.4165 0.90626 0.34405 0.0
H560 H 0.39512 0.91226 0.41194 0.0
H561 H 0.38039 0.90426 0.98544 0.0
H562 H 0.35149 0.86947 0.96228 0.0
H563 H 0.38351 0.87416 1.00272 0.0
C564 C 0.51557 0.08562 0.03242 0.0
C565 C 0.53282 0.07591 0.0114 0.0
C566 C 0.51129 0.1032 0.97769 0.0
C567 C 0.52435 0.11103 0.89892 0.0
C568 C 0.54364 0.10338 0.88229 0.0
C569 C 0.5475 0.08579 0.93824 0.0
C570 C 0.49208 0.11223 1.00474 0.0
C571 C 0.55948 0.11273 0.8031 0.0
C572 C 0.49124 0.11939 0.6825 0.0
C573 C 0.50195 0.14858 0.6887 0.0
C574 C 0.49754 0.10692 0.75241 0.0
C575 C 0.51597 0.12421 0.8285 0.0
C576 C 0.52712 0.15385 0.83426 0.0
C577 C 0.51988 0.16569 0.76426 0.0
C578 C 0.48441 0.0752 0.74467 0.0
C579 C 0.54684 0.173 0.91381 0.0
H580 H 0.5046 0.07874 0.09016 0.0
H581 H 0.56131 0.0789 0.9222 0.0
H582 H 0.49075 0.12708 0.96116 0.0
H583 H 0.47204 0.09333 1.00335 0.0
H584 H 0.49831 0.12251 0.07565 0.0
H585 H 0.57788 0.11148 0.81309 0.0
H586 H 0.54724 0.09886 0.74059 0.0
H587 H 0.5651 0.1347 0.79255 0.0
H588 H 0.47765 0.10627 0.62324 0.0
H589 H 0.52844 0.18835 0.76805 0.0
H590 H 0.47645 0.06735 0.80874 0.0
H591 H 0.49931 0.06886 0.73266 0.0
H592 H 0.46787 0.06472 0.68828 0.0
H593 H 0.53708 0.16852 0.97662 0.0
H594 H 0.5549 0.19565 0.90557 0.0
H595 H 0.56362 0.16893 0.92279 0.0
C596 C 0.93913 0.25779 0.81964 0.0
C597 C 0.95311 0.24316 0.8191 0.0
C598 C 0.95257 0.28733 0.83634 0.0
C599 C 0.98068 0.30266 0.85417 0.0
C600 C 0.99485 0.28798 0.85741 0.0
C601 C 0.98092 0.25843 0.83919 0.0
C602 C 0.93674 0.30217 0.83123 0.0
C603 C 0.02481 0.30355 0.87747 0.0
C604 C 0.0191 0.37762 0.79369 0.0
C605 C 0.02566 0.3936 0.87826 0.0
C606 C 0.0039 0.34809 0.78481 0.0
C607 C 0.99539 0.33409 0.86269 0.0
C608 C 0.00146 0.35011 0.94812 0.0
C609 C 0.01636 0.37974 0.95481 0.0
C610 C 0.99747 0.33185 0.69219 0.0
C611 C 0.993 0.33594 0.03283 0.0
H612 H 0.91764 0.24622 0.8041 0.0
H613 H 0.99187 0.24731 0.83956 0.0
H614 H 0.94197 0.31689 0.8935 0.0
H615 H 0.94177 0.31494 0.77335 0.0
H616 H 0.91493 0.28717 0.82239 0.0
H617 H 0.03265 0.289 0.88519 0.0
H618 H 0.03381 0.31631 0.82169 0.0
H619 H 0.0314 0.31833 0.94044 0.0
H620 H 0.02614 0.38825 0.73424 0.0
H621 H 0.02162 0.39199 0.02049 0.0
H622 H 0.97567 0.31731 0.67666 0.0
H623 H 0.00701 0.31877 0.69105 0.0
H624 H 0.00438 0.34594 0.63789 0.0
H625 H 0.9712 0.32111 0.02415 0.0
H626 H 0.99827 0.35137 0.09336 0.0
H627 H 0.00275 0.32338 0.04539 0.0
C628 C 0.80532 0.60453 0.89009 0.0
C629 C 0.81243 0.63295 0.89092 0.0
C630 C 0.78195 0.585 0.92354 0.0
C631 C 0.76528 0.59409 0.9587 0.0
C632 C 0.7728 0.62291 0.96255 0.0
C633 C 0.79626 0.64197 0.92859 0.0
C634 C 0.77466 0.55448 0.91853 0.0
C635 C 0.75564 0.63348 1.00001 0.0
C636 C 0.69106 0.54291 0.94183 0.0
C637 C 0.68765 0.53657 0.03128 0.0
C638 C 0.7163 0.56095 0.91715 0.0
C639 C 0.73881 0.57316 0.98361 0.0
C640 C 0.73568 0.56623 0.07363 0.0
C641 C 0.71008 0.54786 0.09641 0.0
C642 C 0.71872 0.56761 0.82027 0.0
C643 C 0.75926 0.57883 0.1462 0.0
H644 H 0.81787 0.59742 0.86228 0.0
H645 H 0.80174 0.66394 0.93058 0.0
H646 H 0.77015 0.54665 0.98546 0.0
H647 H 0.75643 0.54145 0.86992 0.0
H648 H 0.79079 0.55125 0.89648 0.0
H649 H 0.76522 0.6568 1.00434 0.0
H650 H 0.73634 0.62397 0.9561 0.0
H651 H 0.75122 0.62698 0.06853 0.0
H652 H 0.67385 0.53409 0.89088 0.0
H653 H 0.70755 0.54311 0.16569 0.0
H654 H 0.73345 0.56309 0.7923 0.0
H655 H 0.72603 0.59039 0.81782 0.0
H656 H 0.69945 0.5553 0.77594 0.0
H657 H 0.77448 0.57388 0.12562 0.0
H658 H 0.7536 0.57091 0.21247 0.0
H659 H 0.76871 0.60213 0.15493 0.0
C660 C 0.94657 0.63512 0.87147 0.0
C661 C 0.93718 0.6345 0.78136 0.0
C662 C 0.96088 0.62157 0.8932 0.0
C663 C 0.96568 0.6067 0.82329 0.0
C664 C 0.95616 0.60589 0.73217 0.0
C665 C 0.94218 0.61996 0.71223 0.0
C666 C 0.97104 0.62338 0.99102 0.0
C667 C 0.96068 0.59009 0.65575 0.0
C668 C 0.02388 0.59434 0.86428 0.0
C669 C 0.01136 0.56643 0.88552 0.0
C670 C 0.0093 0.60773 0.84497 0.0
C671 C 0.98136 0.59273 0.8453 0.0
C672 C 0.96855 0.56456 0.86697 0.0
C673 C 0.98375 0.55181 0.88768 0.0
C674 C 0.02384 0.63796 0.82417 0.0
C675 C 0.93876 0.54779 0.86711 0.0
H676 H 0.9428 0.64631 0.92538 0.0
H677 H 0.93488 0.61926 0.64253 0.0
H678 H 0.96296 0.60191 0.01202 0.0
H679 H 0.99305 0.63346 0.99913 0.0
H680 H 0.96551 0.63566 0.03739 0.0
H681 H 0.95128 0.59073 0.58899 0.0
H682 H 0.98234 0.59925 0.65281 0.0
H683 H 0.9525 0.56773 0.66801 0.0
H684 H 0.04526 0.60589 0.86331 0.0
H685 H 0.97396 0.53022 0.90367 0.0
H686 H 0.01968 0.65121 0.87158 0.0
H687 H 0.01663 0.63933 0.75472 0.0
H688 H 0.04572 0.64692 0.82936 0.0
H689 H 0.93252 0.55862 0.91631 0.0
H690 H 0.93181 0.52609 0.88479 0.0
H691 H 0.92866 0.54641 0.79931 0.0
C692 C 0.51915 0.35542 0.98477 0.0
C693 C 0.5207 0.36046 0.07899 0.0
C694 C 0.50649 0.32784 0.94061 0.0
C695 C 0.49472 0.30461 0.99164 0.0
C696 C 0.49659 0.30952 0.087 0.0
C697 C 0.50966 0.33739 0.12956 0.0
C698 C 0.50545 0.32357 0.839 0.0
C699 C 0.48395 0.28544 0.14387 0.0
C700 C 0.44048 0.23751 0.85144 0.0
C701 C 0.4542 0.22337 0.83191 0.0
C702 C 0.45296 0.26317 0.90802 0.0
C703 C 0.48003 0.27534 0.94405 0.0
C704 C 0.49363 0.26056 0.9275 0.0
C705 C 0.48046 0.2346 0.87238 0.0
C706 C 0.43752 0.27786 0.92604 0.0
C707 C 0.52249 0.27283 0.96443 0.0
H708 H 0.52777 0.37311 0.94524 0.0
H709 H 0.51057 0.34108 0.20234 0.0
H710 H 0.51382 0.31 0.82076 0.0
H711 H 0.48447 0.31259 0.80718 0.0
H712 H 0.51666 0.34379 0.80979 0.0
H713 H 0.49072 0.29249 0.21728 0.0
H714 H 0.46203 0.27597 0.13297 0.0
H715 H 0.48841 0.26866 0.12376 0.0
H716 H 0.42011 0.22879 0.82079 0.0
H717 H 0.49124 0.22387 0.85693 0.0
H718 H 0.44576 0.29749 0.89268 0.0
H719 H 0.43953 0.28397 0.99977 0.0
H720 H 0.41604 0.26441 0.90047 0.0
H721 H 0.53483 0.29332 0.93819 0.0
H722 H 0.5302 0.25864 0.94579 0.0
H723 H 0.52499 0.27696 0.03931 0.0
C724 C 0.80512 0.13839 0.87813 0.0
C725 C 0.81562 0.12069 0.89162 0.0
C726 C 0.77997 0.13135 0.90285 0.0
C727 C 0.76505 0.10603 0.94178 0.0
C728 C 0.77591 0.08855 0.95804 0.0
C729 C 0.80104 0.09609 0.93279 0.0
C730 C 0.76903 0.15052 0.88474 0.0
C731 C 0.76061 0.06135 0.99937 0.0
C732 C 0.70488 0.0905 0.06237 0.0
C733 C 0.68397 0.07211 0.99564 0.0
C734 C 0.7315 0.10276 0.04483 0.0
C735 C 0.73719 0.0964 0.95869 0.0
C736 C 0.71609 0.07885 0.89005 0.0
C737 C 0.68978 0.06695 0.90935 0.0
C738 C 0.75353 0.12153 0.11946 0.0
C739 C 0.72129 0.07158 0.79722 0.0
H740 H 0.81633 0.15752 0.84683 0.0
H741 H 0.80907 0.08239 0.94417 0.0
H742 H 0.75157 0.13967 0.83187 0.0
H743 H 0.76206 0.15548 0.94673 0.0
H744 H 0.78402 0.17059 0.86159 0.0
H745 H 0.77255 0.05106 0.01281 0.0
H746 H 0.75412 0.06533 0.06393 0.0
H747 H 0.74241 0.04643 0.95297 0.0
H748 H 0.70052 0.09462 0.12911 0.0
H749 H 0.67374 0.05299 0.85703 0.0
H750 H 0.76806 0.14143 0.09447 0.0
H751 H 0.76445 0.11081 0.14152 0.0
H752 H 0.74584 0.12673 0.17919 0.0
H753 H 0.73484 0.09106 0.76799 0.0
H754 H 0.70268 0.05928 0.74957 0.0
H755 H 0.73126 0.05898 0.80282 0.0
C756 C 0.65248 0.97923 0.24125 0.0
C757 C 0.63342 0.9759 0.17082 0.0
C758 C 0.66225 0.96064 0.24393 0.0
C759 C 0.65252 0.93777 0.1751 0.0
C760 C 0.63229 0.93336 0.10622 0.0
C761 C 0.62306 0.95261 0.10452 0.0
C762 C 0.68399 0.96634 0.31825 0.0
C763 C 0.62111 0.90894 0.03256 0.0
C764 C 0.70284 0.91522 0.1347 0.0
C765 C 0.69568 0.89325 0.18937 0.0
C766 C 0.68816 0.92895 0.12597 0.0
C767 C 0.66542 0.92026 0.17187 0.0
C768 C 0.65712 0.897 0.22278 0.0
C769 C 0.67248 0.8839 0.23158 0.0
C770 C 0.69797 0.95389 0.07197 0.0
C771 C 0.63274 0.88679 0.27139 0.0
H772 H 0.66053 0.99703 0.29324 0.0
H773 H 0.60825 0.94978 0.05013 0.0
H774 H 0.67825 0.94731 0.35349 0.0
H775 H 0.7025 0.97138 0.28845 0.0
H776 H 0.68841 0.98417 0.36919 0.0
H777 H 0.6033 0.90638 0.99084 0.0
H778 H 0.63647 0.91236 0.98749 0.0
H779 H 0.61564 0.88904 0.06229 0.0
H780 H 0.72067 0.92259 0.10153 0.0
H781 H 0.66667 0.8668 0.27337 0.0
H782 H 0.70484 0.97343 0.11824 0.0
H783 H 0.68159 0.95149 0.0226 0.0
H784 H 0.7147 0.95659 0.03466 0.0
H785 H 0.63681 0.90244 0.32983 0.0
H786 H 0.62678 0.86617 0.29691 0.0
H787 H 0.61578 0.88471 0.2258 0.0
C788 C 0.15189 0.72905 0.10985 0.0
C789 C 0.17212 0.74526 0.18124 0.0
C790 C 0.14057 0.69974 0.09545 0.0
C791 C 0.15001 0.68626 0.15291 0.0
C792 C 0.17162 0.70266 0.22136 0.0
C793 C 0.18232 0.73202 0.23526 0.0
C794 C 0.11741 0.68306 0.02202 0.0
C795 C 0.18261 0.68909 0.28255 0.0
C796 C 0.09624 0.61197 0.17773 0.0
C797 C 0.10033 0.59616 0.11012 0.0
C798 C 0.11325 0.64119 0.19601 0.0
C799 C 0.1352 0.65494 0.14654 0.0
C800 C 0.14066 0.63883 0.08323 0.0
C801 C 0.12302 0.60959 0.06518 0.0
C802 C 0.10656 0.65758 0.26366 0.0
C803 C 0.16423 0.65265 0.03074 0.0
H804 H 0.14398 0.73907 0.06726 0.0
H805 H 0.19811 0.74443 0.29009 0.0
H806 H 0.1212 0.66896 0.97716 0.0
H807 H 0.09916 0.66951 0.05315 0.0
H808 H 0.11351 0.69685 0.97984 0.0
H809 H 0.2019 0.70487 0.32223 0.0
H810 H 0.16824 0.67776 0.3306 0.0
H811 H 0.18544 0.67333 0.24251 0.0
H812 H 0.07889 0.60177 0.2134 0.0
H813 H 0.12648 0.59748 0.0135 0.0
H814 H 0.10037 0.67081 0.22766 0.0
H815 H 0.1243 0.67194 0.31262 0.0
H816 H 0.09021 0.64356 0.30192 0.0
H817 H 0.16023 0.66399 0.97845 0.0
H818 H 0.16834 0.63699 0.99639 0.0
H819 H 0.18231 0.6684 0.07608 0.0
C820 C 0.46383 0.44938 0.16241 0.0
C821 C 0.4691 0.428 0.18292 0.0
C822 C 0.43809 0.44536 0.16258 0.0
C823 C 0.4171 0.4191 0.1814 0.0
C824 C 0.42238 0.39751 0.20243 0.0
C825 C 0.44836 0.40236 0.20397 0.0
C826 C 0.4333 0.46906 0.14201 0.0
C827 C 0.40047 0.36897 0.22116 0.0
C828 C 0.35114 0.40597 0.25148 0.0
C829 C 0.33418 0.39286 0.17027 0.0
C830 C 0.37865 0.41661 0.25484 0.0
C831 C 0.38928 0.41344 0.17559 0.0
C832 C 0.37248 0.40171 0.09243 0.0
C833 C 0.34518 0.39188 0.0906 0.0
C834 C 0.39606 0.42968 0.3443 0.0
C835 C 0.38289 0.39747 1.00666 0.0
H836 H 0.47986 0.46931 0.14673 0.0
H837 H 0.45227 0.38568 0.21932 0.0
H838 H 0.41961 0.46281 0.07831 0.0
H839 H 0.42355 0.47347 0.19671 0.0
H840 H 0.45203 0.48876 0.13475 0.0
H841 H 0.40791 0.35443 0.23613 0.0
H842 H 0.39079 0.37138 0.27955 0.0
H843 H 0.38492 0.35905 0.16175 0.0
H844 H 0.34278 0.40696 0.31317 0.0
H845 H 0.33223 0.3817 0.02754 0.0
H846 H 0.41464 0.44931 0.3356 0.0
H847 H 0.40183 0.41485 0.37075 0.0
H848 H 0.38572 0.43466 0.3956 0.0
H849 H 0.40093 0.41721 0.99523 0.0
H850 H 0.36784 0.39052 0.94618 0.0
H851 H 0.38867 0.38122 0.01339 0.0
C852 C 0.86464 0.7081 0.60255 0.0
C853 C 0.86693 0.68975 0.53926 0.0
C854 C 0.85151 0.72259 0.57678 0.0
C855 C 0.84007 0.71833 0.48581 0.0
C856 C 0.84216 0.69966 0.42182 0.0
C857 C 0.85555 0.68562 0.44931 0.0
C858 C 0.84993 0.74251 0.64687 0.0
C859 C 0.82971 0.69399 0.32475 0.0
C860 C 0.78393 0.73383 0.44269 0.0
C861 C 0.79678 0.75995 0.4082 0.0
C862 C 0.79769 0.71991 0.46685 0.0
C863 C 0.82516 0.73268 0.45825 0.0
C864 C 0.83827 0.75902 0.42312 0.0
C865 C 0.82384 0.77223 0.39757 0.0
C866 C 0.78277 0.6915 0.50154 0.0
C867 C 0.86756 0.7733 0.41319 0.0
H868 H 0.87343 0.71143 0.67213 0.0
H869 H 0.85683 0.67107 0.40045 0.0
H870 H 0.85859 0.76383 0.62416 0.0
H871 H 0.82881 0.7352 0.65486 0.0
H872 H 0.86059 0.74418 0.71398 0.0
H873 H 0.80773 0.68133 0.32182 0.0
H874 H 0.83466 0.71398 0.29653 0.0
H875 H 0.83637 0.68231 0.28097 0.0
H876 H 0.76293 0.72405 0.45001 0.0
H877 H 0.83385 0.79243 0.37111 0.0
H878 H 0.79136 0.69267 0.57171 0.0
H879 H 0.7849 0.67561 0.45927 0.0
H880 H 0.76123 0.68402 0.50123 0.0
H881 H 0.87919 0.77686 0.47995 0.0
H882 H 0.87488 0.79387 0.38576 0.0
H883 H 0.87149 0.75949 0.3674 0.0
C884 C 0.37576 0.06778 0.54032 0.0
C885 C 0.36669 0.08704 0.546 0.0
C886 C 0.35824 0.03908 0.51229 0.0
C887 C 0.33076 0.02912 0.49043 0.0
C888 C 0.3214 0.04841 0.4952 0.0
C889 C 0.33953 0.07723 0.52231 0.0
C890 C 0.36917 0.01934 0.50719 0.0
C891 C 0.2922 0.03849 0.47355 0.0
C892 C 0.29331 0.95617 0.3579 0.0
C893 C 0.28582 0.93905 0.42841 0.0
C894 C 0.3066 0.98572 0.3763 0.0
C895 C 0.31203 0.99827 0.46706 0.0
C896 C 0.30255 0.98089 0.53738 0.0
C897 C 0.2898 0.95152 0.5173 0.0
C898 C 0.3166 0.00347 0.29949 0.0
C899 C 0.30745 0.99332 0.63483 0.0
H900 H 0.39675 0.07515 0.55744 0.0
H901 H 0.33237 0.09198 0.52644 0.0
H902 H 0.36067 0.00379 0.55658 0.0
H903 H 0.36331 0.00736 0.43881 0.0
H904 H 0.39122 0.03068 0.52182 0.0
H905 H 0.28826 0.05626 0.47652 0.0
H906 H 0.28458 0.02658 0.40502 0.0
H907 H 0.28077 0.02389 0.52234 0.0
H908 H 0.29034 0.94659 0.28911 0.0
H909 H 0.28376 0.93831 0.57188 0.0
H910 H 0.33853 0.0131 0.30389 0.0
H911 H 0.31228 0.02094 0.30428 0.0
H912 H 0.3076 0.99083 0.23229 0.0
H913 H 0.32885 0.00284 0.66026 0.0
H914 H 0.29561 0.97718 0.6792 0.0
H915 H 0.30252 0.01032 0.64052 0.0
C916 C 0.00557 0.19378 0.48203 0.0
C917 C 0.99429 0.21108 0.48635 0.0
C918 C 0.0288 0.20177 0.44112 0.0
C919 C 0.04106 0.22766 0.40343 0.0
C920 C 0.02881 0.24431 0.40231 0.0
C921 C 0.00563 0.23588 0.44414 0.0
C922 C 0.041 0.18322 0.44243 0.0
C923 C 0.04092 0.27171 0.36079 0.0
C924 C 0.11628 0.26772 0.41652 0.0
C925 C 0.12039 0.26272 0.32744 0.0
C926 C 0.09059 0.25607 0.44186 0.0
C927 C 0.0683 0.23906 0.37643 0.0
C928 C 0.07226 0.23341 0.28663 0.0
C929 C 0.09832 0.24532 0.26316 0.0
C930 C 0.08734 0.26231 0.53872 0.0
C931 C 0.04909 0.21563 0.21452 0.0
H932 H 0.99674 0.17434 0.5132 0.0
H933 H 0.99683 0.24916 0.44584 0.0
H934 H 0.04574 0.17962 0.37396 0.0
H935 H 0.05995 0.19392 0.48862 0.0
H936 H 0.02764 0.16246 0.46558 0.0
H937 H 0.02759 0.28068 0.35695 0.0
H938 H 0.05998 0.28733 0.40188 0.0
H939 H 0.04545 0.26851 0.2916 0.0
H940 H 0.13323 0.28095 0.46686 0.0
H941 H 0.10137 0.24154 0.19404 0.0
H942 H 0.07561 0.24233 0.56846 0.0
H943 H 0.07621 0.27376 0.5407 0.0
H944 H 0.10676 0.27526 0.58186 0.0
H945 H 0.03324 0.19696 0.24133 0.0
H946 H 0.0553 0.20832 0.15489 0.0
H947 H 0.04042 0.2284 0.19134 0.0
C948 C 0.37608 0.25661 0.54253 0.0
C949 C 0.37109 0.2294 0.51512 0.0
C950 C 0.36157 0.26751 0.49878 0.0
C951 C 0.34157 0.25081 0.42583 0.0
C952 C 0.3361 0.22316 0.39893 0.0
C953 C 0.3509 0.21279 0.44383 0.0
C954 C 0.36799 0.2971 0.52956 0.0
C955 C 0.31494 0.20469 0.32151 0.0
C956 C 0.29031 0.27196 0.35821 0.0
C957 C 0.30066 0.28714 0.2848 0.0
C958 C 0.30319 0.25966 0.40398 0.0
C959 C 0.327 0.26265 0.37578 0.0
C960 C 0.33724 0.27746 0.30062 0.0
C961 C 0.32394 0.28946 0.256 0.0
C962 C 0.29162 0.244 0.48373 0.0
C963 C 0.36261 0.2812 0.2685 0.0
H964 H 0.3916 0.2696 0.59754 0.0
H965 H 0.34684 0.19174 0.42208 0.0
H966 H 0.37512 0.31044 0.47363 0.0
H967 H 0.34979 0.29691 0.5472 0.0
H968 H 0.38348 0.307 0.58924 0.0
H969 H 0.3124 0.1833 0.31116 0.0
H970 H 0.29557 0.20256 0.33415 0.0
H971 H 0.32025 0.21464 0.258 0.0
H972 H 0.27238 0.2701 0.38111 0.0
H973 H 0.33219 0.30125 0.19967 0.0
H974 H 0.30595 0.25466 0.54591 0.0
H975 H 0.28816 0.22226 0.47287 0.0
H976 H 0.27253 0.24281 0.49536 0.0
H977 H 0.37944 0.29319 0.32311 0.0
H978 H 0.36753 0.29262 0.20748 0.0
H979 H 0.36083 0.26035 0.2525 0.0
C980 C 0.8147 0.94943 0.47292 0.0
C981 C 0.79225 0.94588 0.41933 0.0
C982 C 0.83453 0.97634 0.51417 0.0
C983 C 0.83211 1.00018 0.499 0.0
C984 C 0.81021 0.99673 0.44031 0.0
C985 C 0.79035 0.96959 0.40255 0.0
C986 C 0.85733 0.9791 0.57738 0.0
C987 C 0.80724 0.02161 0.41987 0.0
C988 C 0.85885 0.06455 0.67118 0.0
C989 C 0.8814 0.08433 0.63502 0.0
C990 C 0.84376 0.03655 0.63093 0.0
C991 C 0.85083 0.02834 0.55049 0.0
C992 C 0.87419 0.04804 0.51543 0.0
C993 C 0.88945 0.07576 0.55906 0.0
C994 C 0.81951 0.0161 0.67233 0.0
C995 C 0.88212 0.04057 0.42855 0.0
H996 H 0.81608 0.93103 0.48623 0.0
H997 H 0.7731 0.96686 0.36024 0.0
H998 H 0.87661 0.99559 0.55852 0.0
H999 H 0.85587 0.9858 0.64742 0.0
H1000 H 0.85742 0.95897 0.57699 0.0
H1001 H 0.79071 0.01575 0.36539 0.0
H1002 H 0.80325 0.03042 0.48172 0.0
H1003 H 0.82596 0.03855 0.39907 0.0
H1004 H 0.85276 0.07114 0.73043 0.0
H1005 H 0.9068 0.0911 0.53076 0.0
H1006 H 0.81934 0.99601 0.67808 0.0
H1007 H 0.80124 0.01113 0.62799 0.0
H1008 H 0.81868 0.02474 0.74056 0.0
H1009 H 0.87888 0.01888 0.42434 0.0
H1010 H 0.9033 0.05553 0.42155 0.0
H1011 H 0.86959 0.0414 0.37039 0.0
C1012 C 0.99785 0.69538 0.43712 0.0
C1013 C 0.98648 0.70944 0.48003 0.0
C1014 C 0.02358 0.71039 0.41152 0.0
C1015 C 0.03845 0.74015 0.4305 0.0
C1016 C 0.02686 0.7545 0.47205 0.0
C1017 C 0.00097 0.73899 0.49581 0.0
C1018 C 0.03513 0.69434 0.36635 0.0
C1019 C 0.04215 0.78616 0.49439 0.0
C1020 C 0.11351 0.77344 0.46522 0.0
C1021 C 0.12078 0.78446 0.38294 0.0
C1022 C 0.08687 0.75944 0.48184 0.0
C1023 C 0.06686 0.756 0.41401 0.0
C1024 C 0.07405 0.76738 0.33104 0.0
C1025 C 0.10103 0.78172 0.3167 0.0
C1026 C 0.08015 0.74805 0.57179 0.0
C1027 C 0.05321 0.76386 0.25685 0.0
H1028 H 0.98671 0.67257 0.42392 0.0
H1029 H 0.99233 0.75005 0.52876 0.0
H1030 H 0.04302 0.70335 0.30349 0.0
H1031 H 0.05203 0.69636 0.41206 0.0
H1032 H 0.02021 0.67158 0.34907 0.0
H1033 H 0.02974 0.79428 0.52149 0.0
H1034 H 0.05952 0.79245 0.54558 0.0
H1035 H 0.04998 0.79649 0.43326 0.0
H1036 H 0.12872 0.77571 0.51704 0.0
H1037 H 0.10657 0.79006 0.25281 0.0
H1038 H 0.06729 0.72476 0.56101 0.0
H1039 H 0.06881 0.75653 0.60493 0.0
H1040 H 0.09818 0.75349 0.61862 0.0
H1041 H 0.0394 0.7411 0.23467 0.0
H1042 H 0.06209 0.77447 0.19713 0.0
H1043 H 0.04116 0.77259 0.28264 0.0
loop_
_geom_bond_atom_site_label_1
_geom_bond_atom_site_label_2
_geom_bond_distance
_geom_bond_site_symmetry_2
_ccdc_geom_bond_type
Zn0 O6 1.969 1_455 S
Zn0 O7 1.965 1_554 S
Zn0 O11 2.024 . S
Zn0 O16 1.969 . S
Zn1 O8 1.969 1_554 S
Zn1 O14 1.969 . S
Zn1 O15 1.965 . S
Zn1 O17 2.027 1_455 S
C2 O3 1.229 . S
C2 O11 1.058 . S
O3 C2 1.229 . S
C4 O5 1.218 1_655 S
C4 O17 1.066 1_556 S
O5 C4 1.218 1_455 S
O6 Zn0 1.969 1_655 S
O6 C9 1.267 1_554 S
O7 Zn0 1.965 1_556 S
O7 C18 1.260 . S
O8 Zn1 1.969 1_556 S
O8 C18 1.258 . S
C9 O6 1.267 1_556 S
C9 O10 1.228 1_655 S
O10 C9 1.228 1_455 S
O11 Zn0 2.024 . S
O11 C2 1.058 . S
C12 O13 1.228 . S
C12 O14 1.267 . S
O13 C12 1.228 . S
O14 Zn1 1.969 . S
O14 C12 1.267 . S
O15 Zn1 1.965 . S
O15 C19 1.260 . S
O16 Zn0 1.969 . S
O16 C19 1.258 . S
O17 Zn1 2.027 1_655 S
O17 C4 1.066 1_554 S
C18 O7 1.260 . S
C18 O8 1.258 . S
C19 O15 1.260 . S
C19 O16 1.258 . S
Zn20 O26 1.969 . S
Zn20 O27 1.965 . S
Zn20 O31 2.024 . S
Zn20 O36 1.969 1_554 S
Zn21 O28 1.969 . S
Zn21 O34 1.969 . S
Zn21 O35 1.965 1_554 S
Zn21 O37 2.024 . S
C22 O23 1.229 1_554 S
C22 O31 1.058 . S
O23 C22 1.229 1_556 S
C24 O25 1.229 . S
C24 O37 1.058 . S
O25 C24 1.229 . S
O26 Zn20 1.969 . S
O26 C29 1.267 . S
O27 Zn20 1.965 . S
O27 C38 1.260 . S
O28 Zn21 1.969 . S
O28 C38 1.258 . S
C29 O26 1.267 . S
C29 O30 1.228 . S
O30 C29 1.228 . S
O31 Zn20 2.024 . S
O31 C22 1.058 . S
C32 O33 1.228 1_554 S
C32 O34 1.267 . S
O33 C32 1.228 1_556 S
O34 Zn21 1.969 . S
O34 C32 1.267 . S
O35 Zn21 1.965 1_556 S
O35 C39 1.260 . S
O36 Zn20 1.969 1_556 S
O36 C39 1.258 . S
O37 Zn21 2.024 . S
O37 C24 1.058 . S
C38 O27 1.260 . S
C38 O28 1.258 . S
C39 O35 1.260 . S
C39 O36 1.258 . S
Zn40 O46 1.969 . S
Zn40 O47 1.965 . S
Zn40 O51 2.024 1_545 S
Zn40 O56 1.969 . S
Zn41 O48 1.969 1_554 S
Zn41 O54 1.969 1_545 S
Zn41 O55 1.965 . S
Zn41 O57 2.024 . S
C42 O43 1.223 1_565 S
C42 O51 1.052 . S
O43 C42 1.223 1_545 S
C44 O45 1.229 . S
C44 O57 1.058 . S
O45 C44 1.229 . S
O46 Zn40 1.969 . S
O46 C49 1.267 . S
O47 Zn40 1.965 . S
O47 C58 1.260 1_554 S
O48 Zn41 1.969 1_556 S
O48 C58 1.258 . S
C49 O46 1.267 . S
C49 O50 1.228 . S
O50 C49 1.228 . S
O51 Zn40 2.024 1_565 S
O51 C42 1.052 . S
C52 O53 1.228 1_565 S
C52 O54 1.267 . S
O53 C52 1.228 1_545 S
O54 Zn41 1.969 1_565 S
O54 C52 1.267 . S
O55 Zn41 1.965 . S
O55 C59 1.260 . S
O56 Zn40 1.969 . S
O56 C59 1.258 . S
O57 Zn41 2.024 . S
O57 C44 1.058 . S
C58 O47 1.260 1_556 S
C58 O48 1.258 . S
C59 O55 1.260 . S
C59 O56 1.258 . S
Zn60 O66 1.969 . S
Zn60 O67 1.965 . S
Zn60 O71 2.024 . S
Zn60 O76 1.969 . S
Zn61 O68 1.969 . S
Zn61 O74 1.969 . S
Zn61 O75 1.965 . S
Zn61 O77 2.024 . S
C62 O63 1.229 . S
C62 O71 1.058 . S
O63 C62 1.229 . S
C64 O65 1.229 . S
C64 O77 1.058 . S
O65 C64 1.229 . S
O66 Zn60 1.969 . S
O66 C69 1.267 . S
O67 Zn60 1.965 . S
O67 C78 1.260 . S
O68 Zn61 1.969 . S
O68 C78 1.258 . S
C69 O66 1.267 . S
C69 O70 1.228 . S
O70 C69 1.228 . S
O71 Zn60 2.024 . S
O71 C62 1.058 . S
C72 O73 1.228 . S
C72 O74 1.267 . S
O73 C72 1.228 . S
O74 Zn61 1.969 . S
O74 C72 1.267 . S
O75 Zn61 1.965 . S
O75 C79 1.260 . S
O76 Zn60 1.969 . S
O76 C79 1.258 . S
O77 Zn61 2.024 . S
O77 C64 1.058 . S
C78 O67 1.260 . S
C78 O68 1.258 . S
C79 O75 1.260 . S
C79 O76 1.258 . S
Zn80 O86 1.969 . S
Zn80 O87 1.965 . S
Zn80 O91 2.024 . S
Zn80 O96 1.969 . S
Zn81 O88 1.969 . S
Zn81 O94 1.969 . S
Zn81 O95 1.965 . S
Zn81 O97 2.024 . S
C82 O83 1.229 . S
C82 O91 1.058 . S
O83 C82 1.229 . S
C84 O85 1.229 . S
C84 O97 1.058 . S
O85 C84 1.229 . S
O86 Zn80 1.969 . S
O86 C89 1.267 . S
O87 Zn80 1.965 . S
O87 C98 1.260 . S
O88 Zn81 1.969 . S
O88 C98 1.258 . S
C89 O86 1.267 . S
C89 O90 1.228 . S
O90 C89 1.228 . S
O91 Zn80 2.024 . S
O91 C82 1.058 . S
C92 O93 1.228 . S
C92 O94 1.267 . S
O93 C92 1.228 . S
O94 Zn81 1.969 . S
O94 C92 1.267 . S
O95 Zn81 1.965 . S
O95 C99 1.260 . S
O96 Zn80 1.969 . S
O96 C99 1.258 . S
O97 Zn81 2.024 . S
O97 C84 1.058 . S
C98 O87 1.260 . S
C98 O88 1.258 . S
C99 O95 1.260 . S
C99 O96 1.258 . S
Zn100 O106 1.969 . S
Zn100 O107 1.965 . S
Zn100 O111 2.024 . S
Zn100 O116 1.969 . S
Zn101 O108 1.969 . S
Zn101 O114 1.969 . S
Zn101 O115 1.965 . S
Zn101 O117 2.024 . S
C102 O103 1.229 . S
C102 O111 1.058 . S
O103 C102 1.229 . S
C104 O105 1.229 . S
C104 O117 1.058 . S
O105 C104 1.229 . S
O106 Zn100 1.969 . S
O106 C109 1.267 . S
O107 Zn100 1.965 . S
O107 C118 1.260 . S
O108 Zn101 1.969 . S
O108 C118 1.258 . S
C109 O106 1.267 . S
C109 O110 1.228 . S
O110 C109 1.228 . S
O111 Zn100 2.024 . S
O111 C102 1.058 . S
C112 O113 1.228 . S
C112 O114 1.267 . S
O113 C112 1.228 . S
O114 Zn101 1.969 . S
O114 C112 1.267 . S
O115 Zn101 1.965 . S
O115 C119 1.260 . S
O116 Zn100 1.969 . S
O116 C119 1.258 . S
O117 Zn101 2.024 . S
O117 C104 1.058 . S
C118 O107 1.260 . S
C118 O108 1.258 . S
C119 O115 1.260 . S
C119 O116 1.258 . S
Zn120 O126 1.969 . S
Zn120 O127 1.965 . S
Zn120 O131 2.024 . S
Zn120 O136 1.969 . S
Zn121 O128 1.969 . S
Zn121 O134 1.969 . S
Zn121 O135 1.965 . S
Zn121 O137 2.024 . S
C122 O123 1.229 . S
C122 O131 1.058 . S
O123 C122 1.229 . S
C124 O125 1.229 . S
C124 O137 1.058 . S
O125 C124 1.229 . S
O126 Zn120 1.969 . S
O126 C129 1.267 . S
O127 Zn120 1.965 . S
O127 C138 1.260 . S
O128 Zn121 1.969 . S
O128 C138 1.258 . S
C129 O126 1.267 . S
C129 O130 1.228 . S
O130 C129 1.228 . S
O131 Zn120 2.024 . S
O131 C122 1.058 . S
C132 O133 1.228 . S
C132 O134 1.267 . S
O133 C132 1.228 . S
O134 Zn121 1.969 . S
O134 C132 1.267 . S
O135 Zn121 1.965 . S
O135 C139 1.260 . S
O136 Zn120 1.969 . S
O136 C139 1.258 . S
O137 Zn121 2.024 . S
O137 C124 1.058 . S
C138 O127 1.260 . S
C138 O128 1.258 . S
C139 O135 1.260 . S
C139 O136 1.258 . S
Zn140 O146 1.969 . S
Zn140 O147 1.965 . S
Zn140 O151 2.024 . S
Zn140 O156 1.969 . S
Zn141 O148 1.969 . S
Zn141 O154 1.969 . S
Zn141 O155 1.965 . S
Zn141 O157 2.024 . S
C142 O143 1.229 . S
C142 O151 1.058 . S
O143 C142 1.229 . S
C144 O145 1.229 . S
C144 O157 1.058 . S
O145 C144 1.229 . S
O146 Zn140 1.969 . S
O146 C149 1.267 . S
O147 Zn140 1.965 . S
O147 C158 1.260 . S
O148 Zn141 1.969 . S
O148 C158 1.258 . S
C149 O146 1.267 . S
C149 O150 1.228 . S
O150 C149 1.228 . S
O151 Zn140 2.024 . S
O151 C142 1.058 . S
C152 O153 1.228 . S
C152 O154 1.267 . S
O153 C152 1.228 . S
O154 Zn141 1.969 . S
O154 C152 1.267 . S
O155 Zn141 1.965 . S
O155 C159 1.260 . S
O156 Zn140 1.969 . S
O156 C159 1.258 . S
O157 Zn141 2.024 . S
O157 C144 1.058 . S
C158 O147 1.260 . S
C158 O148 1.258 . S
C159 O155 1.260 . S
C159 O156 1.258 . S
Zn160 O166 1.969 . S
Zn160 O167 1.965 . S
Zn160 O171 2.024 . S
Zn160 O176 1.969 . S
Zn161 O168 1.969 . S
Zn161 O174 1.969 . S
Zn161 O175 1.965 . S
Zn161 O177 2.024 . S
C162 O163 1.229 . S
C162 O171 1.058 . S
O163 C162 1.229 . S
C164 O165 1.229 . S
C164 O177 1.058 . S
O165 C164 1.229 . S
O166 Zn160 1.969 . S
O166 C169 1.267 . S
O167 Zn160 1.965 . S
O167 C178 1.260 . S
O168 Zn161 1.969 . S
O168 C178 1.258 . S
C169 O166 1.267 . S
C169 O170 1.228 . S
O170 C169 1.228 . S
O171 Zn160 2.024 . S
O171 C162 1.058 . S
C172 O173 1.228 . S
C172 O174 1.267 . S
O173 C172 1.228 . S
O174 Zn161 1.969 . S
O174 C172 1.267 . S
O175 Zn161 1.965 . S
O175 C179 1.260 . S
O176 Zn160 1.969 . S
O176 C179 1.258 . S
O177 Zn161 2.024 . S
O177 C164 1.058 . S
C178 O167 1.260 . S
C178 O168 1.258 . S
C179 O175 1.260 . S
C179 O176 1.258 . S
C180 C181 1.391 . S
C180 C182 1.394 . S
C180 H196 0.931 . S
C181 C180 1.391 . S
C181 C185 1.376 . S
C182 C180 1.394 . S
C182 C183 1.369 . S
C182 C186 1.531 . S
C183 C182 1.369 . S
C183 C184 1.410 . S
C183 C191 1.503 . S
C184 C183 1.410 . S
C184 C185 1.392 . S
C184 C187 1.511 . S
C185 C181 1.376 . S
C185 C184 1.392 . S
C185 H197 0.929 . S
C186 C182 1.531 . S
C186 H198 0.960 . S
C186 H199 0.962 . S
C186 H200 0.960 . S
C187 C184 1.511 . S
C187 H201 0.961 . S
C187 H202 0.961 . S
C187 H203 0.961 1_455 S
C188 C189 1.370 . S
C188 C190 1.363 . S
C188 H204 0.931 . S
C189 C188 1.370 . S
C189 C193 1.408 . S
C190 C188 1.363 . S
C190 C191 1.370 . S
C190 C194 1.524 . S
C191 C183 1.503 . S
C191 C190 1.370 . S
C191 C192 1.403 . S
C192 C191 1.403 . S
C192 C193 1.404 . S
C192 C195 1.539 1_455 S
C193 C189 1.408 . S
C193 C192 1.404 . S
C193 H205 0.930 1_455 S
C194 C190 1.524 . S
C194 H206 0.956 . S
C194 H207 0.961 . S
C194 H208 0.961 . S
C195 C192 1.539 1_655 S
C195 H209 0.958 . S
C195 H210 0.961 . S
C195 H211 0.960 . S
H196 C180 0.931 . S
H197 C185 0.929 . S
H198 C186 0.960 . S
H199 C186 0.962 . S
H200 C186 0.960 . S
H201 C187 0.961 . S
H202 C187 0.961 . S
H203 C187 0.961 1_655 S
H204 C188 0.931 . S
H205 C193 0.930 1_655 S
H206 C194 0.956 . S
H207 C194 0.961 . S
H208 C194 0.961 . S
H209 C195 0.958 . S
H210 C195 0.961 . S
H211 C195 0.960 . S
C212 C213 1.391 . S
C212 C214 1.394 . S
C212 H228 0.931 . S
C213 C212 1.391 . S
C213 C217 1.376 . S
C214 C212 1.394 . S
C214 C215 1.369 . S
C214 C218 1.531 . S
C215 C214 1.369 . S
C215 C216 1.410 . S
C215 C223 1.503 . S
C216 C215 1.410 . S
C216 C217 1.392 . S
C216 C219 1.511 . S
C217 C213 1.376 . S
C217 C216 1.392 . S
C217 H229 0.929 . S
C218 C214 1.531 . S
C218 H230 0.960 . S
C218 H231 0.962 . S
C218 H232 0.960 . S
C219 C216 1.511 . S
C219 H233 0.961 . S
C219 H234 0.961 . S
C219 H235 0.961 . S
C220 C221 1.370 . S
C220 C222 1.363 . S
C220 H236 0.931 . S
C221 C220 1.370 . S
C221 C225 1.408 . S
C222 C220 1.363 . S
C222 C223 1.370 . S
C222 C226 1.524 . S
C223 C215 1.503 . S
C223 C222 1.370 . S
C223 C224 1.403 . S
C224 C223 1.403 . S
C224 C225 1.404 . S
C224 C227 1.539 . S
C225 C221 1.408 . S
C225 C224 1.404 . S
C225 H237 0.930 . S
C226 C222 1.524 . S
C226 H238 0.956 . S
C226 H239 0.961 . S
C226 H240 0.961 . S
C227 C224 1.539 . S
C227 H241 0.958 . S
C227 H242 0.961 . S
C227 H243 0.960 . S
H228 C212 0.931 . S
H229 C217 0.929 . S
H230 C218 0.960 . S
H231 C218 0.962 . S
H232 C218 0.960 . S
H233 C219 0.961 . S
H234 C219 0.961 . S
H235 C219 0.961 . S
H236 C220 0.931 . S
H237 C225 0.930 . S
H238 C226 0.956 . S
H239 C226 0.961 . S
H240 C226 0.961 . S
H241 C227 0.958 . S
H242 C227 0.961 . S
H243 C227 0.960 . S
C244 C245 1.391 . S
C244 C246 1.394 . S
C244 H260 0.931 . S
C245 C244 1.391 . S
C245 C249 1.376 . S
C246 C244 1.394 . S
C246 C247 1.369 . S
C246 C250 1.531 . S
C247 C246 1.369 . S
C247 C248 1.410 . S
C247 C255 1.503 . S
C248 C247 1.410 . S
C248 C249 1.392 . S
C248 C251 1.511 . S
C249 C245 1.376 . S
C249 C248 1.392 . S
C249 H261 0.929 . S
C250 C246 1.531 . S
C250 H262 0.960 . S
C250 H263 0.962 . S
C250 H264 0.960 . S
C251 C248 1.511 . S
C251 H265 0.961 . S
C251 H266 0.961 . S
C251 H267 0.961 . S
C252 C253 1.370 . S
C252 C254 1.363 . S
C252 H268 0.931 . S
C253 C252 1.370 . S
C253 C257 1.408 . S
C254 C252 1.363 . S
C254 C255 1.370 . S
C254 C258 1.524 1_545 S
C255 C247 1.503 . S
C255 C254 1.370 . S
C255 C256 1.403 . S
C256 C255 1.403 . S
C256 C257 1.404 . S
C256 C259 1.539 . S
C257 C253 1.408 . S
C257 C256 1.404 . S
C257 H269 0.930 . S
C258 C254 1.524 1_565 S
C258 H270 0.956 . S
C258 H271 0.961 . S
C258 H272 0.961 . S
C259 C256 1.539 . S
C259 H273 0.958 . S
C259 H274 0.961 . S
C259 H275 0.960 . S
H260 C244 0.931 . S
H261 C249 0.929 . S
H262 C250 0.960 . S
H263 C250 0.962 . S
H264 C250 0.960 . S
H265 C251 0.961 . S
H266 C251 0.961 . S
H267 C251 0.961 . S
H268 C252 0.931 . S
H269 C257 0.930 . S
H270 C258 0.956 . S
H271 C258 0.961 . S
H272 C258 0.961 . S
H273 C259 0.958 . S
H274 C259 0.961 . S
H275 C259 0.960 . S
C276 C277 1.391 . S
C276 C278 1.394 . S
C276 H292 0.931 . S
C277 C276 1.391 . S
C277 C281 1.376 . S
C278 C276 1.394 . S
C278 C279 1.369 . S
C278 C282 1.531 . S
C279 C278 1.369 . S
C279 C280 1.410 . S
C279 C287 1.503 . S
C280 C279 1.410 . S
C280 C281 1.392 . S
C280 C283 1.511 . S
C281 C277 1.376 . S
C281 C280 1.392 . S
C281 H293 0.929 . S
C282 C278 1.531 . S
C282 H294 0.960 . S
C282 H295 0.962 . S
C282 H296 0.960 . S
C283 C280 1.511 . S
C283 H297 0.961 . S
C283 H298 0.961 . S
C283 H299 0.961 . S
C284 C285 1.370 . S
C284 C286 1.363 1_554 S
C284 H300 0.931 . S
C285 C284 1.370 . S
C285 C289 1.408 . S
C286 C284 1.363 1_556 S
C286 C287 1.370 . S
C286 C290 1.524 . S
C287 C279 1.503 . S
C287 C286 1.370 . S
C287 C288 1.403 . S
C288 C287 1.403 . S
C288 C289 1.404 1_556 S
C288 C291 1.539 . S
C289 C285 1.408 . S
C289 C288 1.404 1_554 S
C289 H301 0.930 . S
C290 C286 1.524 . S
C290 H302 0.956 . S
C290 H303 0.961 . S
C290 H304 0.961 . S
C291 C288 1.539 . S
C291 H305 0.958 . S
C291 H306 0.961 . S
C291 H307 0.960 . S
H292 C276 0.931 . S
H293 C281 0.929 . S
H294 C282 0.960 . S
H295 C282 0.962 . S
H296 C282 0.960 . S
H297 C283 0.961 . S
H298 C283 0.961 . S
H299 C283 0.961 . S
H300 C284 0.931 . S
H301 C289 0.930 . S
H302 C290 0.956 . S
H303 C290 0.961 . S
H304 C290 0.961 . S
H305 C291 0.958 . S
H306 C291 0.961 . S
H307 C291 0.960 . S
C308 C309 1.391 . S
C308 C310 1.394 . S
C308 H324 0.931 . S
C309 C308 1.391 . S
C309 C313 1.376 . S
C310 C308 1.394 . S
C310 C311 1.369 . S
C310 C314 1.531 . S
C311 C310 1.369 . S
C311 C312 1.410 . S
C311 C319 1.503 . S
C312 C311 1.410 . S
C312 C313 1.392 . S
C312 C315 1.511 . S
C313 C309 1.376 . S
C313 C312 1.392 . S
C313 H325 0.929 . S
C314 C310 1.531 . S
C314 H326 0.960 . S
C314 H327 0.962 . S
C314 H328 0.960 . S
C315 C312 1.511 . S
C315 H329 0.961 . S
C315 H330 0.961 . S
C315 H331 0.961 . S
C316 C317 1.370 1_556 S
C316 C318 1.363 . S
C316 H332 0.931 . S
C317 C316 1.370 1_554 S
C317 C321 1.409 1_554 S
C318 C316 1.363 . S
C318 C319 1.370 . S
C318 C322 1.524 . S
C319 C311 1.503 . S
C319 C318 1.370 . S
C319 C320 1.403 . S
C320 C319 1.403 . S
C320 C321 1.404 . S
C320 C323 1.539 . S
C321 C317 1.409 1_556 S
C321 C320 1.404 . S
C321 H333 0.930 . S
C322 C318 1.524 . S
C322 H334 0.956 . S
C322 H335 0.961 . S
C322 H336 0.961 . S
C323 C320 1.539 . S
C323 H337 0.958 . S
C323 H338 0.961 . S
C323 H339 0.960 . S
H324 C308 0.931 . S
H325 C313 0.929 . S
H326 C314 0.960 . S
H327 C314 0.962 . S
H328 C314 0.960 . S
H329 C315 0.961 . S
H330 C315 0.961 . S
H331 C315 0.961 . S
H332 C316 0.931 . S
H333 C321 0.930 . S
H334 C322 0.956 . S
H335 C322 0.961 . S
H336 C322 0.961 . S
H337 C323 0.958 . S
H338 C323 0.961 . S
H339 C323 0.960 . S
C340 C341 1.391 . S
C340 C342 1.394 . S
C340 H356 0.931 . S
C341 C340 1.391 . S
C341 C345 1.376 . S
C342 C340 1.394 . S
C342 C343 1.369 . S
C342 C346 1.531 . S
C343 C342 1.369 . S
C343 C344 1.410 . S
C343 C351 1.503 . S
C344 C343 1.410 . S
C344 C345 1.392 . S
C344 C347 1.511 . S
C345 C341 1.376 . S
C345 C344 1.392 . S
C345 H357 0.929 . S
C346 C342 1.531 . S
C346 H358 0.960 . S
C346 H359 0.962 . S
C346 H360 0.960 . S
C347 C344 1.511 . S
C347 H361 0.961 . S
C347 H362 0.961 . S
C347 H363 0.961 . S
C348 C349 1.370 . S
C348 C350 1.363 . S
C348 H364 0.931 . S
C349 C348 1.370 . S
C349 C353 1.408 . S
C350 C348 1.363 . S
C350 C351 1.370 . S
C350 C354 1.524 . S
C351 C343 1.503 . S
C351 C350 1.370 . S
C351 C352 1.403 . S
C352 C351 1.403 . S
C352 C353 1.404 . S
C352 C355 1.539 . S
C353 C349 1.408 . S
C353 C352 1.404 . S
C353 H365 0.930 . S
C354 C350 1.524 . S
C354 H366 0.956 . S
C354 H367 0.961 . S
C354 H368 0.961 . S
C355 C352 1.539 . S
C355 H369 0.958 . S
C355 H370 0.961 . S
C355 H371 0.960 . S
H356 C340 0.931 . S
H357 C345 0.929 . S
H358 C346 0.960 . S
H359 C346 0.962 . S
H360 C346 0.960 . S
H361 C347 0.961 . S
H362 C347 0.961 . S
H363 C347 0.961 . S
H364 C348 0.931 . S
H365 C353 0.930 . S
H366 C354 0.956 . S
H367 C354 0.961 . S
H368 C354 0.961 . S
H369 C355 0.958 . S
H370 C355 0.961 . S
H371 C355 0.960 . S
C372 C373 1.391 . S
C372 C374 1.394 . S
C372 H388 0.931 . S
C373 C372 1.391 . S
C373 C377 1.376 . S
C374 C372 1.394 . S
C374 C375 1.369 . S
C374 C378 1.531 . S
C375 C374 1.369 . S
C375 C376 1.410 . S
C375 C383 1.503 . S
C376 C375 1.410 . S
C376 C377 1.392 . S
C376 C379 1.511 . S
C377 C373 1.376 . S
C377 C376 1.392 . S
C377 H389 0.929 . S
C378 C374 1.531 . S
C378 H390 0.960 . S
C378 H391 0.962 . S
C378 H392 0.960 . S
C379 C376 1.511 . S
C379 H393 0.961 . S
C379 H394 0.961 . S
C379 H395 0.961 . S
C380 C381 1.370 . S
C380 C382 1.363 1_556 S
C380 H396 0.931 . S
C381 C380 1.370 . S
C381 C385 1.408 . S
C382 C380 1.363 1_554 S
C382 C383 1.370 . S
C382 C386 1.524 . S
C383 C375 1.503 . S
C383 C382 1.370 . S
C383 C384 1.403 . S
C384 C383 1.403 . S
C384 C385 1.404 1_554 S
C384 C387 1.539 . S
C385 C381 1.408 . S
C385 C384 1.404 1_556 S
C385 H397 0.930 . S
C386 C382 1.524 . S
C386 H398 0.956 . S
C386 H399 0.961 . S
C386 H400 0.961 . S
C387 C384 1.539 . S
C387 H401 0.958 . S
C387 H402 0.961 . S
C387 H403 0.960 . S
H388 C372 0.931 . S
H389 C377 0.929 . S
H390 C378 0.960 . S
H391 C378 0.962 . S
H392 C378 0.960 . S
H393 C379 0.961 . S
H394 C379 0.961 . S
H395 C379 0.961 . S
H396 C380 0.931 . S
H397 C385 0.930 . S
H398 C386 0.956 . S
H399 C386 0.961 . S
H400 C386 0.961 . S
H401 C387 0.958 . S
H402 C387 0.961 . S
H403 C387 0.960 . S
C404 C405 1.391 . S
C404 C406 1.394 . S
C404 H420 0.931 . S
C405 C404 1.391 . S
C405 C409 1.376 . S
C406 C404 1.394 . S
C406 C407 1.369 . S
C406 C410 1.531 . S
C407 C406 1.369 . S
C407 C408 1.410 . S
C407 C415 1.503 . S
C408 C407 1.410 . S
C408 C409 1.392 . S
C408 C411 1.511 . S
C409 C405 1.376 . S
C409 C408 1.392 . S
C409 H421 0.929 . S
C410 C406 1.531 . S
C410 H422 0.960 . S
C410 H423 0.962 . S
C410 H424 0.960 . S
C411 C408 1.511 . S
C411 H425 0.961 . S
C411 H426 0.961 . S
C411 H427 0.961 . S
C412 C413 1.370 . S
C412 C414 1.363 1_556 S
C412 H428 0.931 . S
C413 C412 1.370 . S
C413 C417 1.408 . S
C414 C412 1.363 1_554 S
C414 C415 1.370 . S
C414 C418 1.524 . S
C415 C407 1.503 . S
C415 C414 1.370 . S
C415 C416 1.403 . S
C416 C415 1.403 . S
C416 C417 1.404 1_554 S
C416 C419 1.539 . S
C417 C413 1.408 . S
C417 C416 1.404 1_556 S
C417 H429 0.930 . S
C418 C414 1.524 . S
C418 H430 0.956 . S
C418 H431 0.961 . S
C418 H432 0.961 . S
C419 C416 1.539 . S
C419 H433 0.958 . S
C419 H434 0.961 . S
C419 H435 0.960 . S
H420 C404 0.931 . S
H421 C409 0.929 . S
H422 C410 0.960 . S
H423 C410 0.962 . S
H424 C410 0.960 . S
H425 C411 0.961 . S
H426 C411 0.961 . S
H427 C411 0.961 . S
H428 C412 0.931 . S
H429 C417 0.930 . S
H430 C418 0.956 . S
H431 C418 0.961 . S
H432 C418 0.961 . S
H433 C419 0.958 . S
H434 C419 0.961 . S
H435 C419 0.960 . S
C436 C437 1.391 . S
C436 C438 1.394 . S
C436 H452 0.931 . S
C437 C436 1.391 . S
C437 C441 1.376 . S
C438 C436 1.394 . S
C438 C439 1.369 . S
C438 C442 1.531 . S
C439 C438 1.369 . S
C439 C440 1.410 . S
C439 C447 1.503 . S
C440 C439 1.410 . S
C440 C441 1.392 . S
C440 C443 1.511 . S
C441 C437 1.376 . S
C441 C440 1.392 . S
C441 H453 0.929 . S
C442 C438 1.531 . S
C442 H454 0.960 . S
C442 H455 0.962 . S
C442 H456 0.960 . S
C443 C440 1.511 . S
C443 H457 0.961 . S
C443 H458 0.961 . S
C443 H459 0.961 . S
C444 C445 1.370 1_554 S
C444 C446 1.363 . S
C444 H460 0.931 . S
C445 C444 1.370 1_556 S
C445 C449 1.408 . S
C446 C444 1.363 . S
C446 C447 1.370 . S
C446 C450 1.524 . S
C447 C439 1.503 . S
C447 C446 1.370 . S
C447 C448 1.403 . S
C448 C447 1.403 . S
C448 C449 1.404 1_554 S
C448 C451 1.539 . S
C449 C445 1.408 . S
C449 C448 1.404 1_556 S
C449 H461 0.930 . S
C450 C446 1.524 . S
C450 H462 0.956 . S
C450 H463 0.961 . S
C450 H464 0.961 . S
C451 C448 1.539 . S
C451 H465 0.958 . S
C451 H466 0.961 . S
C451 H467 0.960 . S
H452 C436 0.931 . S
H453 C441 0.929 . S
H454 C442 0.960 . S
H455 C442 0.962 . S
H456 C442 0.960 . S
H457 C443 0.961 . S
H458 C443 0.961 . S
H459 C443 0.961 . S
H460 C444 0.931 . S
H461 C449 0.930 . S
H462 C450 0.956 . S
H463 C450 0.961 . S
H464 C450 0.961 . S
H465 C451 0.958 . S
H466 C451 0.961 . S
H467 C451 0.960 . S
C468 C469 1.391 . S
C468 C470 1.394 . S
C468 H484 0.931 . S
C469 C468 1.391 . S
C469 C473 1.376 . S
C470 C468 1.394 . S
C470 C471 1.369 . S
C470 C474 1.531 . S
C471 C470 1.369 . S
C471 C472 1.410 . S
C471 C479 1.503 . S
C472 C471 1.410 . S
C472 C473 1.392 . S
C472 C475 1.511 . S
C473 C469 1.376 . S
C473 C472 1.392 . S
C473 H485 0.929 . S
C474 C470 1.531 . S
C474 H486 0.960 . S
C474 H487 0.962 . S
C474 H488 0.960 . S
C475 C472 1.511 . S
C475 H489 0.961 . S
C475 H490 0.961 . S
C475 H491 0.961 . S
C476 C477 1.370 . S
C476 C478 1.363 . S
C476 H492 0.931 . S
C477 C476 1.370 . S
C477 C481 1.408 . S
C478 C476 1.363 . S
C478 C479 1.370 . S
C478 C482 1.524 . S
C479 C471 1.503 . S
C479 C478 1.370 . S
C479 C480 1.403 . S
C480 C479 1.403 . S
C480 C481 1.404 . S
C480 C483 1.539 1_554 S
C481 C477 1.408 . S
C481 C480 1.404 . S
C481 H493 0.930 1_554 S
C482 C478 1.524 . S
C482 H494 0.956 . S
C482 H495 0.961 . S
C482 H496 0.961 . S
C483 C480 1.539 1_556 S
C483 H497 0.958 . S
C483 H498 0.961 . S
C483 H499 0.960 . S
H484 C468 0.931 . S
H485 C473 0.929 . S
H486 C474 0.960 . S
H487 C474 0.962 . S
H488 C474 0.960 . S
H489 C475 0.961 . S
H490 C475 0.961 . S
H491 C475 0.961 . S
H492 C476 0.931 . S
H493 C481 0.930 1_556 S
H494 C482 0.956 . S
H495 C482 0.961 . S
H496 C482 0.961 . S
H497 C483 0.958 . S
H498 C483 0.961 . S
H499 C483 0.960 . S
C500 C501 1.391 . S
C500 C502 1.394 . S
C500 H516 0.931 . S
C501 C500 1.391 . S
C501 C505 1.376 . S
C502 C500 1.394 . S
C502 C503 1.369 . S
C502 C506 1.531 . S
C503 C502 1.369 . S
C503 C504 1.410 . S
C503 C511 1.503 . S
C504 C503 1.410 . S
C504 C505 1.392 . S
C504 C507 1.511 . S
C505 C501 1.376 . S
C505 C504 1.392 . S
C505 H517 0.929 . S
C506 C502 1.531 . S
C506 H518 0.960 . S
C506 H519 0.962 . S
C506 H520 0.960 . S
C507 C504 1.511 . S
C507 H521 0.961 . S
C507 H522 0.961 . S
C507 H523 0.961 . S
C508 C509 1.370 . S
C508 C510 1.363 . S
C508 H524 0.931 . S
C509 C508 1.370 . S
C509 C513 1.408 . S
C510 C508 1.363 . S
C510 C511 1.370 . S
C510 C514 1.524 . S
C511 C503 1.503 . S
C511 C510 1.370 . S
C511 C512 1.403 . S
C512 C511 1.403 . S
C512 C513 1.404 . S
C512 C515 1.539 . S
C513 C509 1.408 . S
C513 C512 1.404 . S
C513 H525 0.930 . S
C514 C510 1.524 . S
C514 H526 0.956 . S
C514 H527 0.961 . S
C514 H528 0.961 . S
C515 C512 1.539 . S
C515 H529 0.958 1_554 S
C515 H530 0.961 . S
C515 H531 0.960 . S
H516 C500 0.931 . S
H517 C505 0.929 . S
H518 C506 0.960 . S
H519 C506 0.962 . S
H520 C506 0.960 . S
H521 C507 0.961 . S
H522 C507 0.961 . S
H523 C507 0.961 . S
H524 C508 0.931 . S
H525 C513 0.930 . S
H526 C514 0.956 . S
H527 C514 0.961 . S
H528 C514 0.961 . S
H529 C515 0.958 1_556 S
H530 C515 0.961 . S
H531 C515 0.960 . S
C532 C533 1.391 . S
C532 C534 1.394 . S
C532 H548 0.931 . S
C533 C532 1.391 . S
C533 C537 1.376 . S
C534 C532 1.394 . S
C534 C535 1.369 . S
C534 C538 1.531 . S
C535 C534 1.369 . S
C535 C536 1.410 . S
C535 C543 1.503 . S
C536 C535 1.410 . S
C536 C537 1.392 . S
C536 C539 1.511 . S
C537 C533 1.376 . S
C537 C536 1.392 . S
C537 H549 0.929 . S
C538 C534 1.531 . S
C538 H550 0.960 . S
C538 H551 0.962 . S
C538 H552 0.960 . S
C539 C536 1.511 . S
C539 H553 0.961 . S
C539 H554 0.961 . S
C539 H555 0.961 . S
C540 C541 1.370 . S
C540 C542 1.363 . S
C540 H556 0.931 . S
C541 C540 1.370 . S
C541 C545 1.408 . S
C542 C540 1.363 . S
C542 C543 1.370 . S
C542 C546 1.524 . S
C543 C535 1.503 . S
C543 C542 1.370 . S
C543 C544 1.403 . S
C544 C543 1.403 . S
C544 C545 1.404 . S
C544 C547 1.539 . S
C545 C541 1.408 . S
C545 C544 1.404 . S
C545 H557 0.930 . S
C546 C542 1.524 . S
C546 H558 0.956 . S
C546 H559 0.961 . S
C546 H560 0.961 . S
C547 C544 1.539 . S
C547 H561 0.958 1_554 S
C547 H562 0.961 . S
C547 H563 0.960 . S
H548 C532 0.931 . S
H549 C537 0.929 . S
H550 C538 0.960 . S
H551 C538 0.962 . S
H552 C538 0.960 . S
H553 C539 0.961 . S
H554 C539 0.961 . S
H555 C539 0.961 . S
H556 C540 0.931 . S
H557 C545 0.930 . S
H558 C546 0.956 . S
H559 C546 0.961 . S
H560 C546 0.961 . S
H561 C547 0.958 1_556 S
H562 C547 0.961 . S
H563 C547 0.960 . S
C564 C565 1.391 . S
C564 C566 1.394 . S
C564 H580 0.931 . S
C565 C564 1.391 . S
C565 C569 1.376 1_554 S
C566 C564 1.394 . S
C566 C567 1.369 1_554 S
C566 C570 1.531 . S
C567 C566 1.369 1_556 S
C567 C568 1.410 . S
C567 C575 1.503 . S
C568 C567 1.410 . S
C568 C569 1.392 . S
C568 C571 1.511 . S
C569 C565 1.376 1_556 S
C569 C568 1.392 . S
C569 H581 0.929 . S
C570 C566 1.531 . S
C570 H582 0.960 . S
C570 H583 0.962 . S
C570 H584 0.960 . S
C571 C568 1.511 . S
C571 H585 0.961 . S
C571 H586 0.961 . S
C571 H587 0.961 . S
C572 C573 1.370 . S
C572 C574 1.363 . S
C572 H588 0.931 . S
C573 C572 1.370 . S
C573 C577 1.408 . S
C574 C572 1.363 . S
C574 C575 1.370 . S
C574 C578 1.524 . S
C575 C567 1.503 . S
C575 C574 1.370 . S
C575 C576 1.403 . S
C576 C575 1.403 . S
C576 C577 1.404 . S
C576 C579 1.539 . S
C577 C573 1.408 . S
C577 C576 1.404 . S
C577 H589 0.930 . S
C578 C574 1.524 . S
C578 H590 0.956 . S
C578 H591 0.961 . S
C578 H592 0.961 . S
C579 C576 1.539 . S
C579 H593 0.958 . S
C579 H594 0.961 . S
C579 H595 0.960 . S
H580 C564 0.931 . S
H581 C569 0.929 . S
H582 C570 0.960 . S
H583 C570 0.962 . S
H584 C570 0.960 . S
H585 C571 0.961 . S
H586 C571 0.961 . S
H587 C571 0.961 . S
H588 C572 0.931 . S
H589 C577 0.930 . S
H590 C578 0.956 . S
H591 C578 0.961 . S
H592 C578 0.961 . S
H593 C579 0.958 . S
H594 C579 0.961 . S
H595 C579 0.960 . S
C596 C597 1.391 . S
C596 C598 1.394 . S
C596 H612 0.931 . S
C597 C596 1.391 . S
C597 C601 1.376 . S
C598 C596 1.394 . S
C598 C599 1.369 . S
C598 C602 1.531 . S
C599 C598 1.369 . S
C599 C600 1.410 . S
C599 C607 1.503 . S
C600 C599 1.410 . S
C600 C601 1.392 . S
C600 C603 1.511 . S
C601 C597 1.376 . S
C601 C600 1.392 . S
C601 H613 0.929 . S
C602 C598 1.531 . S
C602 H614 0.960 . S
C602 H615 0.962 . S
C602 H616 0.960 . S
C603 C600 1.511 . S
C603 H617 0.961 1_655 S
C603 H618 0.961 1_655 S
C603 H619 0.961 1_655 S
C604 C605 1.370 . S
C604 C606 1.363 . S
C604 H620 0.931 . S
C605 C604 1.370 . S
C605 C609 1.408 1_556 S
C606 C604 1.363 . S
C606 C607 1.370 . S
C606 C610 1.524 . S
C607 C599 1.503 . S
C607 C606 1.370 . S
C607 C608 1.403 . S
C608 C607 1.403 . S
C608 C609 1.404 1_556 S
C608 C611 1.539 1_556 S
C609 C605 1.408 1_554 S
C609 C608 1.404 1_554 S
C609 H621 0.930 . S
C610 C606 1.524 . S
C610 H622 0.956 . S
C610 H623 0.961 . S
C610 H624 0.961 . S
C611 C608 1.539 1_554 S
C611 H625 0.958 . S
C611 H626 0.961 . S
C611 H627 0.960 . S
H612 C596 0.931 . S
H613 C601 0.929 . S
H614 C602 0.960 . S
H615 C602 0.962 . S
H616 C602 0.960 . S
H617 C603 0.961 1_455 S
H618 C603 0.961 1_455 S
H619 C603 0.961 1_455 S
H620 C604 0.931 . S
H621 C609 0.930 . S
H622 C610 0.956 . S
H623 C610 0.961 . S
H624 C610 0.961 . S
H625 C611 0.958 . S
H626 C611 0.961 . S
H627 C611 0.960 . S
C628 C629 1.391 . S
C628 C630 1.394 . S
C628 H644 0.931 . S
C629 C628 1.391 . S
C629 C633 1.376 . S
C630 C628 1.394 . S
C630 C631 1.369 . S
C630 C634 1.531 . S
C631 C630 1.369 . S
C631 C632 1.410 . S
C631 C639 1.503 . S
C632 C631 1.410 . S
C632 C633 1.392 . S
C632 C635 1.511 . S
C633 C629 1.376 . S
C633 C632 1.392 . S
C633 H645 0.929 . S
C634 C630 1.531 . S
C634 H646 0.960 1_556 S
C634 H647 0.962 . S
C634 H648 0.960 1_556 S
C635 C632 1.511 . S
C635 H649 0.961 . S
C635 H650 0.961 . S
C635 H651 0.961 . S
C636 C637 1.370 1_556 S
C636 C638 1.363 . S
C636 H652 0.931 . S
C637 C636 1.370 1_554 S
C637 C641 1.408 . S
C638 C636 1.363 . S
C638 C639 1.370 . S
C638 C642 1.524 . S
C639 C631 1.503 . S
C639 C638 1.370 . S
C639 C640 1.403 1_556 S
C640 C639 1.403 1_554 S
C640 C641 1.404 . S
C640 C643 1.539 . S
C641 C637 1.408 . S
C641 C640 1.404 . S
C641 H653 0.930 . S
C642 C638 1.524 . S
C642 H654 0.956 . S
C642 H655 0.961 . S
C642 H656 0.961 . S
C643 C640 1.539 . S
C643 H657 0.958 . S
C643 H658 0.961 . S
C643 H659 0.960 . S
H644 C628 0.931 . S
H645 C633 0.929 . S
H646 C634 0.960 1_554 S
H647 C634 0.962 . S
H648 C634 0.960 1_554 S
H649 C635 0.961 . S
H650 C635 0.961 . S
H651 C635 0.961 . S
H652 C636 0.931 . S
H653 C641 0.930 . S
H654 C642 0.956 . S
H655 C642 0.961 . S
H656 C642 0.961 . S
H657 C643 0.958 . S
H658 C643 0.961 . S
H659 C643 0.960 . S
C660 C661 1.391 . S
C660 C662 1.394 . S
C660 H676 0.931 . S
C661 C660 1.391 . S
C661 C665 1.376 . S
C662 C660 1.394 . S
C662 C663 1.369 . S
C662 C666 1.531 . S
C663 C662 1.369 . S
C663 C664 1.410 . S
C663 C671 1.503 . S
C664 C663 1.410 . S
C664 C665 1.392 . S
C664 C667 1.511 . S
C665 C661 1.376 . S
C665 C664 1.392 . S
C665 H677 0.929 . S
C666 C662 1.531 . S
C666 H678 0.960 . S
C666 H679 0.962 . S
C666 H680 0.966 . S
C667 C664 1.511 . S
C667 H681 0.961 . S
C667 H682 0.961 . S
C667 H683 0.961 . S
C668 C669 1.370 . S
C668 C670 1.363 . S
C668 H684 0.931 1_655 S
C669 C668 1.370 . S
C669 C673 1.408 . S
C670 C668 1.363 . S
C670 C671 1.370 . S
C670 C674 1.524 . S
C671 C663 1.503 . S
C671 C670 1.370 . S
C671 C672 1.403 . S
C672 C671 1.403 . S
C672 C673 1.404 . S
C672 C675 1.539 . S
C673 C669 1.408 . S
C673 C672 1.404 . S
C673 H685 0.930 . S
C674 C670 1.524 . S
C674 H686 0.956 1_655 S
C674 H687 0.961 . S
C674 H688 0.961 1_655 S
C675 C672 1.539 . S
C675 H689 0.958 . S
C675 H690 0.961 . S
C675 H691 0.960 . S
H676 C660 0.931 . S
H677 C665 0.929 . S
H678 C666 0.960 . S
H679 C666 0.962 . S
H680 C666 0.966 . S
H681 C667 0.961 . S
H682 C667 0.961 . S
H683 C667 0.961 . S
H684 C668 0.931 1_455 S
H685 C673 0.930 . S
H686 C674 0.956 1_455 S
H687 C674 0.961 . S
H688 C674 0.961 1_455 S
H689 C675 0.958 . S
H690 C675 0.961 . S
H691 C675 0.960 . S
C692 C693 1.391 . S
C692 C694 1.394 . S
C692 H708 0.931 . S
C693 C692 1.391 . S
C693 C697 1.376 1_556 S
C694 C692 1.394 . S
C694 C695 1.369 . S
C694 C698 1.531 . S
C695 C694 1.369 . S
C695 C696 1.410 . S
C695 C703 1.503 . S
C696 C695 1.410 . S
C696 C697 1.392 1_556 S
C696 C699 1.508 1_556 S
C697 C693 1.376 1_554 S
C697 C696 1.392 1_554 S
C697 H709 0.929 . S
C698 C694 1.531 . S
C698 H710 0.960 . S
C698 H711 0.962 . S
C698 H712 0.960 . S
C699 C696 1.508 1_554 S
C699 H713 0.970 . S
C699 H714 0.960 1_554 S
C699 H715 0.956 1_554 S
C700 C701 1.370 . S
C700 C702 1.363 . S
C700 H716 0.931 . S
C701 C700 1.370 . S
C701 C705 1.408 . S
C702 C700 1.363 . S
C702 C703 1.370 . S
C702 C706 1.524 . S
C703 C695 1.503 . S
C703 C702 1.370 . S
C703 C704 1.403 . S
C704 C703 1.403 . S
C704 C705 1.404 . S
C704 C707 1.539 . S
C705 C701 1.408 . S
C705 C704 1.404 . S
C705 H717 0.930 . S
C706 C702 1.524 . S
C706 H718 0.956 . S
C706 H719 0.961 . S
C706 H720 0.961 . S
C707 C704 1.539 . S
C707 H721 0.958 . S
C707 H722 0.961 . S
C707 H723 0.960 . S
H708 C692 0.931 . S
H709 C697 0.929 . S
H710 C698 0.960 . S
H711 C698 0.962 . S
H712 C698 0.960 . S
H713 C699 0.970 . S
H714 C699 0.960 1_556 S
H715 C699 0.956 1_556 S
H716 C700 0.931 . S
H717 C705 0.930 . S
H718 C706 0.956 . S
H719 C706 0.961 . S
H720 C706 0.961 . S
H721 C707 0.958 . S
H722 C707 0.961 . S
H723 C707 0.960 . S
C724 C725 1.391 . S
C724 C726 1.394 . S
C724 H740 0.931 . S
C725 C724 1.391 . S
C725 C729 1.376 . S
C726 C724 1.394 . S
C726 C727 1.369 . S
C726 C730 1.531 . S
C727 C726 1.369 . S
C727 C728 1.410 . S
C727 C735 1.503 . S
C728 C727 1.410 . S
C728 C729 1.392 . S
C728 C731 1.511 1_556 S
C729 C725 1.376 . S
C729 C728 1.392 . S
C729 H741 0.929 . S
C730 C726 1.531 . S
C730 H742 0.960 . S
C730 H743 0.962 . S
C730 H744 0.960 . S
C731 C728 1.511 1_554 S
C731 H745 0.961 . S
C731 H746 0.961 . S
C731 H747 0.961 . S
C732 C733 1.370 . S
C732 C734 1.363 1_554 S
C732 H748 0.931 . S
C733 C732 1.370 . S
C733 C737 1.408 . S
C734 C732 1.363 1_556 S
C734 C735 1.370 . S
C734 C738 1.524 . S
C735 C727 1.503 . S
C735 C734 1.370 . S
C735 C736 1.403 . S
C736 C735 1.403 . S
C736 C737 1.404 1_556 S
C736 C739 1.539 . S
C737 C733 1.408 . S
C737 C736 1.404 1_554 S
C737 H749 0.930 . S
C738 C734 1.524 . S
C738 H750 0.956 . S
C738 H751 0.960 . S
C738 H752 0.961 1_556 S
C739 C736 1.539 . S
C739 H753 0.958 . S
C739 H754 0.961 . S
C739 H755 0.960 . S
H740 C724 0.931 . S
H741 C729 0.929 . S
H742 C730 0.960 . S
H743 C730 0.962 . S
H744 C730 0.960 . S
H745 C731 0.961 . S
H746 C731 0.961 . S
H747 C731 0.961 . S
H748 C732 0.931 . S
H749 C737 0.930 . S
H750 C738 0.956 . S
H751 C738 0.960 . S
H752 C738 0.961 1_554 S
H753 C739 0.958 . S
H754 C739 0.961 . S
H755 C739 0.960 . S
C756 C757 1.391 . S
C756 C758 1.394 . S
C756 H772 0.931 . S
C757 C756 1.391 . S
C757 C761 1.376 . S
C758 C756 1.394 . S
C758 C759 1.369 . S
C758 C762 1.531 . S
C759 C758 1.369 . S
C759 C760 1.410 . S
C759 C767 1.503 . S
C760 C759 1.410 . S
C760 C761 1.392 . S
C760 C763 1.511 . S
C761 C757 1.376 . S
C761 C760 1.392 . S
C761 H773 0.929 . S
C762 C758 1.531 . S
C762 H774 0.960 . S
C762 H775 0.962 . S
C762 H776 0.960 . S
C763 C760 1.511 . S
C763 H777 0.961 1_554 S
C763 H778 0.961 . S
C763 H779 0.961 . S
C764 C765 1.370 . S
C764 C766 1.363 . S
C764 H780 0.931 . S
C765 C764 1.370 . S
C765 C769 1.408 . S
C766 C764 1.363 . S
C766 C767 1.370 . S
C766 C770 1.524 . S
C767 C759 1.503 . S
C767 C766 1.370 . S
C767 C768 1.403 . S
C768 C767 1.403 . S
C768 C769 1.404 . S
C768 C771 1.539 . S
C769 C765 1.408 . S
C769 C768 1.404 . S
C769 H781 0.930 . S
C770 C766 1.524 . S
C770 H782 0.956 . S
C770 H783 0.961 . S
C770 H784 0.961 . S
C771 C768 1.539 . S
C771 H785 0.958 . S
C771 H786 0.961 . S
C771 H787 0.960 . S
H772 C756 0.931 . S
H773 C761 0.929 . S
H774 C762 0.960 . S
H775 C762 0.962 . S
H776 C762 0.960 . S
H777 C763 0.961 1_556 S
H778 C763 0.961 . S
H779 C763 0.961 . S
H780 C764 0.931 . S
H781 C769 0.930 . S
H782 C770 0.956 . S
H783 C770 0.961 . S
H784 C770 0.961 . S
H785 C771 0.958 . S
H786 C771 0.961 . S
H787 C771 0.960 . S
C788 C789 1.391 . S
C788 C790 1.394 . S
C788 H804 0.931 . S
C789 C788 1.391 . S
C789 C793 1.376 . S
C790 C788 1.394 . S
C790 C791 1.369 . S
C790 C794 1.531 . S
C791 C790 1.369 . S
C791 C792 1.410 . S
C791 C799 1.503 . S
C792 C791 1.410 . S
C792 C793 1.392 . S
C792 C795 1.511 . S
C793 C789 1.376 . S
C793 C792 1.392 . S
C793 H805 0.929 . S
C794 C790 1.531 . S
C794 H806 0.960 . S
C794 H807 0.962 . S
C794 H808 0.960 . S
C795 C792 1.511 . S
C795 H809 0.961 . S
C795 H810 0.961 . S
C795 H811 0.961 . S
C796 C797 1.370 . S
C796 C798 1.363 . S
C796 H812 0.931 . S
C797 C796 1.370 . S
C797 C801 1.408 . S
C798 C796 1.363 . S
C798 C799 1.370 . S
C798 C802 1.524 . S
C799 C791 1.503 . S
C799 C798 1.370 . S
C799 C800 1.403 . S
C800 C799 1.403 . S
C800 C801 1.404 . S
C800 C803 1.539 1_554 S
C801 C797 1.408 . S
C801 C800 1.404 . S
C801 H813 0.930 1_554 S
C802 C798 1.524 . S
C802 H814 0.956 . S
C802 H815 0.961 . S
C802 H816 0.961 . S
C803 C800 1.539 1_556 S
C803 H817 0.958 . S
C803 H818 0.961 . S
C803 H819 0.960 . S
H804 C788 0.931 . S
H805 C793 0.929 . S
H806 C794 0.960 . S
H807 C794 0.962 . S
H808 C794 0.960 . S
H809 C795 0.961 . S
H810 C795 0.961 . S
H811 C795 0.961 . S
H812 C796 0.931 . S
H813 C801 0.930 1_556 S
H814 C802 0.956 . S
H815 C802 0.961 . S
H816 C802 0.961 . S
H817 C803 0.958 . S
H818 C803 0.961 . S
H819 C803 0.960 . S
C820 C821 1.391 . S
C820 C822 1.394 . S
C820 H836 0.931 . S
C821 C820 1.391 . S
C821 C825 1.376 . S
C822 C820 1.394 . S
C822 C823 1.369 . S
C822 C826 1.531 . S
C823 C822 1.369 . S
C823 C824 1.410 . S
C823 C831 1.503 . S
C824 C823 1.410 . S
C824 C825 1.392 . S
C824 C827 1.511 . S
C825 C821 1.376 . S
C825 C824 1.392 . S
C825 H837 0.929 . S
C826 C822 1.531 . S
C826 H838 0.960 . S
C826 H839 0.962 . S
C826 H840 0.960 . S
C827 C824 1.511 . S
C827 H841 0.961 . S
C827 H842 0.961 . S
C827 H843 0.961 . S
C828 C829 1.370 . S
C828 C830 1.363 . S
C828 H844 0.931 . S
C829 C828 1.370 . S
C829 C833 1.408 . S
C830 C828 1.363 . S
C830 C831 1.370 . S
C830 C834 1.524 . S
C831 C823 1.503 . S
C831 C830 1.370 . S
C831 C832 1.403 . S
C832 C831 1.403 . S
C832 C833 1.404 . S
C832 C835 1.539 1_554 S
C833 C829 1.408 . S
C833 C832 1.404 . S
C833 H845 0.930 . S
C834 C830 1.524 . S
C834 H846 0.956 . S
C834 H847 0.961 . S
C834 H848 0.961 . S
C835 C832 1.539 1_556 S
C835 H849 0.958 . S
C835 H850 0.961 . S
C835 H851 0.960 . S
H836 C820 0.931 . S
H837 C825 0.929 . S
H838 C826 0.960 . S
H839 C826 0.962 . S
H840 C826 0.960 . S
H841 C827 0.961 . S
H842 C827 0.961 . S
H843 C827 0.961 . S
H844 C828 0.931 . S
H845 C833 0.930 . S
H846 C834 0.956 . S
H847 C834 0.961 . S
H848 C834 0.961 . S
H849 C835 0.958 . S
H850 C835 0.961 . S
H851 C835 0.960 . S
C852 C853 1.391 . S
C852 C854 1.394 . S
C852 H868 0.931 . S
C853 C852 1.391 . S
C853 C857 1.376 . S
C854 C852 1.394 . S
C854 C855 1.369 . S
C854 C858 1.531 . S
C855 C854 1.369 . S
C855 C856 1.410 . S
C855 C863 1.503 . S
C856 C855 1.410 . S
C856 C857 1.392 . S
C856 C859 1.511 . S
C857 C853 1.376 . S
C857 C856 1.392 . S
C857 H869 0.929 . S
C858 C854 1.531 . S
C858 H870 0.960 . S
C858 H871 0.962 . S
C858 H872 0.960 . S
C859 C856 1.511 . S
C859 H873 0.961 . S
C859 H874 0.961 . S
C859 H875 0.961 . S
C860 C861 1.370 . S
C860 C862 1.363 . S
C860 H876 0.931 . S
C861 C860 1.370 . S
C861 C865 1.408 . S
C862 C860 1.363 . S
C862 C863 1.370 . S
C862 C866 1.524 . S
C863 C855 1.503 . S
C863 C862 1.370 . S
C863 C864 1.403 . S
C864 C863 1.403 . S
C864 C865 1.404 . S
C864 C867 1.539 . S
C865 C861 1.408 . S
C865 C864 1.404 . S
C865 H877 0.930 . S
C866 C862 1.524 . S
C866 H878 0.956 . S
C866 H879 0.961 . S
C866 H880 0.961 . S
C867 C864 1.539 . S
C867 H881 0.958 . S
C867 H882 0.961 . S
C867 H883 0.960 . S
H868 C852 0.931 . S
H869 C857 0.929 . S
H870 C858 0.960 . S
H871 C858 0.962 . S
H872 C858 0.960 . S
H873 C859 0.961 . S
H874 C859 0.961 . S
H875 C859 0.961 . S
H876 C860 0.931 . S
H877 C865 0.930 . S
H878 C866 0.956 . S
H879 C866 0.961 . S
H880 C866 0.961 . S
H881 C867 0.958 . S
H882 C867 0.961 . S
H883 C867 0.960 . S
C884 C885 1.391 . S
C884 C886 1.394 . S
C884 H900 0.931 . S
C885 C884 1.391 . S
C885 C889 1.376 . S
C886 C884 1.394 . S
C886 C887 1.369 . S
C886 C890 1.531 . S
C887 C886 1.369 . S
C887 C888 1.410 . S
C887 C895 1.503 . S
C888 C887 1.410 . S
C888 C889 1.392 . S
C888 C891 1.511 . S
C889 C885 1.376 . S
C889 C888 1.392 . S
C889 H901 0.929 . S
C890 C886 1.531 . S
C890 H902 0.960 . S
C890 H903 0.962 . S
C890 H904 0.960 . S
C891 C888 1.511 . S
C891 H905 0.961 . S
C891 H906 0.961 . S
C891 H907 0.961 . S
C892 C893 1.370 . S
C892 C894 1.363 1_565 S
C892 H908 0.931 . S
C893 C892 1.370 . S
C893 C897 1.408 . S
C894 C892 1.363 1_545 S
C894 C895 1.370 . S
C894 C898 1.524 . S
C895 C887 1.503 . S
C895 C894 1.370 . S
C895 C896 1.403 1_545 S
C896 C895 1.403 1_565 S
C896 C897 1.404 . S
C896 C899 1.539 . S
C897 C893 1.408 . S
C897 C896 1.404 . S
C897 H909 0.930 . S
C898 C894 1.524 . S
C898 H910 0.956 . S
C898 H911 0.961 . S
C898 H912 0.961 . S
C899 C896 1.539 . S
C899 H913 0.958 . S
C899 H914 0.961 . S
C899 H915 0.960 1_565 S
H900 C884 0.931 . S
H901 C889 0.929 . S
H902 C890 0.960 . S
H903 C890 0.962 . S
H904 C890 0.960 . S
H905 C891 0.961 . S
H906 C891 0.961 . S
H907 C891 0.961 . S
H908 C892 0.931 . S
H909 C897 0.930 . S
H910 C898 0.956 . S
H911 C898 0.961 . S
H912 C898 0.961 . S
H913 C899 0.958 . S
H914 C899 0.961 . S
H915 C899 0.960 1_545 S
C916 C917 1.391 1_455 S
C916 C918 1.394 . S
C916 H932 0.931 1_455 S
C917 C916 1.391 1_655 S
C917 C921 1.376 1_655 S
C918 C916 1.394 . S
C918 C919 1.369 . S
C918 C922 1.531 . S
C919 C918 1.369 . S
C919 C920 1.410 . S
C919 C927 1.503 . S
C920 C919 1.410 . S
C920 C921 1.392 . S
C920 C923 1.511 . S
C921 C917 1.376 1_455 S
C921 C920 1.392 . S
C921 H933 0.929 . S
C922 C918 1.531 . S
C922 H934 0.960 . S
C922 H935 0.962 . S
C922 H936 0.960 . S
C923 C920 1.511 . S
C923 H937 0.961 . S
C923 H938 0.961 . S
C923 H939 0.961 . S
C924 C925 1.370 . S
C924 C926 1.363 . S
C924 H940 0.931 . S
C925 C924 1.370 . S
C925 C929 1.408 . S
C926 C924 1.363 . S
C926 C927 1.370 . S
C926 C930 1.524 . S
C927 C919 1.503 . S
C927 C926 1.370 . S
C927 C928 1.403 . S
C928 C927 1.403 . S
C928 C929 1.404 . S
C928 C931 1.539 . S
C929 C925 1.408 . S
C929 C928 1.404 . S
C929 H941 0.930 . S
C930 C926 1.524 . S
C930 H942 0.956 . S
C930 H943 0.961 . S
C930 H944 0.961 . S
C931 C928 1.539 . S
C931 H945 0.958 . S
C931 H946 0.961 . S
C931 H947 0.960 . S
H932 C916 0.931 1_655 S
H933 C921 0.929 . S
H934 C922 0.960 . S
H935 C922 0.962 . S
H936 C922 0.960 . S
H937 C923 0.961 . S
H938 C923 0.961 . S
H939 C923 0.961 . S
H940 C924 0.931 . S
H941 C929 0.930 . S
H942 C930 0.956 . S
H943 C930 0.961 . S
H944 C930 0.961 . S
H945 C931 0.958 . S
H946 C931 0.961 . S
H947 C931 0.960 . S
C948 C949 1.391 . S
C948 C950 1.394 . S
C948 H964 0.931 . S
C949 C948 1.391 . S
C949 C953 1.376 . S
C950 C948 1.394 . S
C950 C951 1.369 . S
C950 C954 1.531 . S
C951 C950 1.369 . S
C951 C952 1.410 . S
C951 C959 1.503 . S
C952 C951 1.410 . S
C952 C953 1.392 . S
C952 C955 1.511 . S
C953 C949 1.376 . S
C953 C952 1.392 . S
C953 H965 0.929 . S
C954 C950 1.531 . S
C954 H966 0.960 . S
C954 H967 0.962 . S
C954 H968 0.960 . S
C955 C952 1.511 . S
C955 H969 0.961 . S
C955 H970 0.961 . S
C955 H971 0.961 . S
C956 C957 1.370 . S
C956 C958 1.363 . S
C956 H972 0.931 . S
C957 C956 1.370 . S
C957 C961 1.408 . S
C958 C956 1.363 . S
C958 C959 1.370 . S
C958 C962 1.524 . S
C959 C951 1.503 . S
C959 C958 1.370 . S
C959 C960 1.403 . S
C960 C959 1.403 . S
C960 C961 1.404 . S
C960 C963 1.539 . S
C961 C957 1.408 . S
C961 C960 1.404 . S
C961 H973 0.930 . S
C962 C958 1.524 . S
C962 H974 0.956 . S
C962 H975 0.961 . S
C962 H976 0.961 . S
C963 C960 1.539 . S
C963 H977 0.958 . S
C963 H978 0.961 . S
C963 H979 0.960 . S
H964 C948 0.931 . S
H965 C953 0.929 . S
H966 C954 0.960 . S
H967 C954 0.962 . S
H968 C954 0.960 . S
H969 C955 0.961 . S
H970 C955 0.961 . S
H971 C955 0.961 . S
H972 C956 0.931 . S
H973 C961 0.930 . S
H974 C962 0.956 . S
H975 C962 0.961 . S
H976 C962 0.961 . S
H977 C963 0.958 . S
H978 C963 0.961 . S
H979 C963 0.960 . S
C980 C981 1.391 . S
C980 C982 1.394 1_565 S
C980 H996 0.931 . S
C981 C980 1.391 . S
C981 C985 1.376 . S
C982 C980 1.394 1_545 S
C982 C983 1.369 . S
C982 C986 1.531 . S
C983 C982 1.369 . S
C983 C984 1.410 1_545 S
C983 C991 1.503 . S
C984 C983 1.410 1_565 S
C984 C985 1.392 . S
C984 C987 1.511 1_565 S
C985 C981 1.376 . S
C985 C984 1.392 . S
C985 H997 0.929 . S
C986 C982 1.531 . S
C986 H998 0.960 . S
C986 H999 0.962 . S
C986 H1000 0.960 . S
C987 C984 1.511 1_545 S
C987 H1001 0.961 1_545 S
C987 H1002 0.961 . S
C987 H1003 0.961 . S
C988 C989 1.370 . S
C988 C990 1.363 . S
C988 H1004 0.931 . S
C989 C988 1.370 . S
C989 C993 1.408 . S
C990 C988 1.363 . S
C990 C991 1.370 . S
C990 C994 1.524 . S
C991 C983 1.503 . S
C991 C990 1.370 . S
C991 C992 1.403 . S
C992 C991 1.403 . S
C992 C993 1.404 . S
C992 C995 1.539 . S
C993 C989 1.408 . S
C993 C992 1.404 . S
C993 H1005 0.930 . S
C994 C990 1.524 . S
C994 H1006 0.956 . S
C994 H1007 0.961 . S
C994 H1008 0.961 . S
C995 C992 1.539 . S
C995 H1009 0.958 . S
C995 H1010 0.961 . S
C995 H1011 0.960 . S
H996 C980 0.931 . S
H997 C985 0.929 . S
H998 C986 0.960 . S
H999 C986 0.962 . S
H1000 C986 0.960 . S
H1001 C987 0.961 1_565 S
H1002 C987 0.961 . S
H1003 C987 0.961 . S
H1004 C988 0.931 . S
H1005 C993 0.930 . S
H1006 C994 0.956 . S
H1007 C994 0.961 . S
H1008 C994 0.961 . S
H1009 C995 0.958 . S
H1010 C995 0.961 . S
H1011 C995 0.960 . S
C1012 C1013 1.390 1_655 S
C1012 C1014 1.394 1_655 S
C1012 H1028 0.931 . S
C1013 C1012 1.390 1_455 S
C1013 C1017 1.392 . S
C1014 C1012 1.394 1_455 S
C1014 C1015 1.369 . S
C1014 C1018 1.531 . S
C1015 C1014 1.369 . S
C1015 C1016 1.410 . S
C1015 C1023 1.503 . S
C1016 C1015 1.410 . S
C1016 C1017 1.392 . S
C1016 C1019 1.511 . S
C1017 C1013 1.392 . S
C1017 C1016 1.392 . S
C1017 H1029 0.929 . S
C1018 C1014 1.531 . S
C1018 H1030 0.960 . S
C1018 H1031 0.962 . S
C1018 H1032 0.987 . S
C1019 C1016 1.511 . S
C1019 H1033 0.961 . S
C1019 H1034 0.961 . S
C1019 H1035 0.961 . S
C1020 C1021 1.370 . S
C1020 C1022 1.363 . S
C1020 H1036 0.931 . S
C1021 C1020 1.370 . S
C1021 C1025 1.408 . S
C1022 C1020 1.363 . S
C1022 C1023 1.370 . S
C1022 C1026 1.524 . S
C1023 C1015 1.503 . S
C1023 C1022 1.370 . S
C1023 C1024 1.403 . S
C1024 C1023 1.403 . S
C1024 C1025 1.404 . S
C1024 C1027 1.539 . S
C1025 C1021 1.408 . S
C1025 C1024 1.404 . S
C1025 H1037 0.930 . S
C1026 C1022 1.524 . S
C1026 H1038 0.956 . S
C1026 H1039 0.961 . S
C1026 H1040 0.961 . S
C1027 C1024 1.539 . S
C1027 H1041 0.958 . S
C1027 H1042 0.961 . S
C1027 H1043 0.960 . S
H1028 C1012 0.931 . S
H1029 C1017 0.929 . S
H1030 C1018 0.960 . S
H1031 C1018 0.962 . S
H1032 C1018 0.987 . S
H1033 C1019 0.961 . S
H1034 C1019 0.961 . S
H1035 C1019 0.961 . S
H1036 C1020 0.931 . S
H1037 C1025 0.930 . S
H1038 C1026 0.956 . S
H1039 C1026 0.961 . S
H1040 C1026 0.961 . S
H1041 C1027 0.958 . S
H1042 C1027 0.961 . S
H1043 C1027 0.960 . S
C181 C18 1.983 . S
C189 C19 2.014 . S
C213 C39 1.997 . S
C221 C38 2.025 . S
C245 C58 2.012 . S
C253 C59 2.031 . S
C277 C79 2.020 . S
C285 C78 1.999 . S
C309 C98 2.033 . S
C317 C99 2.010 . S
C341 C119 2.046 . S
C349 C118 2.018 1_556 S
C373 C132 0.636 . S
C381 C129 0.536 . S
C405 C149 0.653 . S
C413 C152 0.660 . S
C437 C172 0.749 . S
C445 C169 0.632 . S
C469 C104 1.509 . S
C477 C12 1.588 . S
C501 C24 1.489 . S
C509 C64 1.506 . S
C533 C52 1.644 . S
C541 C92 1.650 . S
C565 C44 1.273 . S
C573 C122 1.278 . S
C597 C159 1.371 . S
C605 C4 1.259 . S
C629 C162 1.307 . S
C637 C32 1.371 . S
C661 C178 1.494 . S
C669 C9 1.427 . S
C693 C22 1.269 1_556 S
C701 C138 1.358 . S
C725 C144 1.336 . S
C733 C49 1.357 . S
C757 C42 1.575 . S
C765 C69 1.603 . S
C789 C82 1.485 . S
C797 C2 1.508 . S
C821 C29 1.644 . S
C829 C109 1.625 . S
C853 C179 1.496 . S
C861 C72 1.426 . S
C885 C139 1.354 . S
C893 C84 1.244 . S
C917 C142 1.300 . S
C925 C112 1.381 . S
C949 C124 1.230 . S
C957 C102 1.244 . S
C981 C62 1.278 . S
C989 C158 1.379 . S
C1013 C164 1.361 1_455 S
C1021 C89 1.393 . S
