# Generated by pormake.
# Topology lon, (4)-cn, num edge types: 1
# Building blocks:
#     Node 0, Type 0, BuildingBlock: NAHDIM_clean_sbu_0, # of connection points: 4
#     Node 1, Type 0, BuildingBlock: NAHDIM_clean_sbu_0, # of connection points: 4
#     Node 2, Type 0, BuildingBlock: NAHDIM_clean_sbu_0, # of connection points: 4
#     Node 3, Type 0, BuildingBlock: NAHDIM_clean_sbu_0, # of connection points: 4
#     Edge 4, Type (0, 0), BuildingBlock: UVAHIK_clean_linker_0, # of connection points: 2
#     Edge 5, Type (0, 0), BuildingBlock: UVAHIK_clean_linker_0, # of connection points: 2
#     Edge 6, Type (0, 0), BuildingBlock: UVAHIK_clean_linker_0, # of connection points: 2
#     Edge 7, Type (0, 0), BuildingBlock: UVAHIK_clean_linker_0, # of connection points: 2
#     Edge 8, Type (0, 0), BuildingBlock: UVAHIK_clean_linker_0, # of connection points: 2
#     Edge 9, Type (0, 0), BuildingBlock: UVAHIK_clean_linker_0, # of connection points: 2
#     Edge 10, Type (0, 0), BuildingBlock: UVAHIK_clean_linker_0, # of connection points: 2
#     Edge 11, Type (0, 0), BuildingBlock: UVAHIK_clean_linker_0, # of connection points: 2
# Relax obj value: 0.020
# Max RMSD: 0.062
# Mean RMSD: 0.061
data_MOF--net-lon--node1-NAHDIM_clean_sbu_0--edge1-UVAHIK_clean_linker_0
_symmetry_space_group_name_H-M    P1
_symmetry_Int_Tables_number       1
_symmetry_cell_setting            triclinic
loop_
_symmetry_equiv_pos_as_xyz
'x, y, z'
_cell_length_a     32.148508
_cell_length_b     32.068612
_cell_length_c     53.203958
_cell_angle_alpha  88.260138
_cell_angle_beta   89.985754
_cell_angle_gamma 120.02059
loop_
_atom_site_label
_atom_site_type_symbol
_atom_site_fract_x
_atom_site_fract_y
_atom_site_fract_z
_atom_type_partial_charge
C0 C 0.36614 0.61857 0.02641 0.0
O1 O 0.33804 0.62694 0.01174 0.0
O2 O 0.37231 0.73457 0.0481 0.0
Zn3 Zn 0.33779 0.66589 0.06154 0.0
O4 O 0.26959 0.632 0.04954 0.0
C5 C 0.31478 0.68073 0.11144 0.0
O6 O 0.28887 0.69525 0.09889 0.0
O7 O 0.37169 0.63208 0.04897 0.0
C8 C 0.2363 0.59549 0.06138 0.0
O9 O 0.24655 0.5791 0.08199 0.0
C10 C 0.34977 0.75699 0.04336 0.0
O11 O 0.30297 0.73455 0.04693 0.0
O12 O 0.33879 0.66596 0.09939 0.0
C13 C 0.75836 0.36972 0.52977 0.0
O14 O 0.72407 0.35499 0.51314 0.0
O15 O 0.64445 0.35787 0.55271 0.0
Zn16 Zn 0.67761 0.32127 0.56368 0.0
O17 O 0.64787 0.25687 0.54753 0.0
C18 C 0.64274 0.31642 0.61442 0.0
O19 O 0.61168 0.32517 0.60285 0.0
O20 O 0.74709 0.35952 0.55294 0.0
C21 C 0.60865 0.22094 0.55551 0.0
O22 O 0.58645 0.22567 0.57501 0.0
C23 C 0.62024 0.34922 0.53273 0.0
O24 O 0.61622 0.31491 0.5183 0.0
O25 O 0.67385 0.31259 0.60148 0.0
C26 C 0.39869 0.6302 0.46357 0.0
O27 O 0.39599 0.65927 0.47953 0.0
O28 O 0.2775 0.62397 0.44337 0.0
Zn29 Zn 0.34655 0.662 0.43149 0.0
O30 O 0.37812 0.7273 0.44673 0.0
C31 C 0.32795 0.68772 0.38195 0.0
O32 O 0.30485 0.70447 0.39475 0.0
O33 O 0.38031 0.62599 0.442 0.0
C34 C 0.41512 0.7637 0.43712 0.0
O35 O 0.43448 0.75898 0.41643 0.0
C36 C 0.25482 0.64492 0.45012 0.0
O37 O 0.27698 0.69223 0.44937 0.0
O38 O 0.34887 0.66854 0.39373 0.0
C39 C 0.7523 0.36966 0.96999 0.0
O40 O 0.71579 0.34088 0.98486 0.0
O41 O 0.64205 0.27498 0.94974 0.0
Zn42 Zn 0.67663 0.34286 0.93481 0.0
O43 O 0.64389 0.37896 0.9461 0.0
C44 C 0.65157 0.30336 0.8851 0.0
O45 O 0.6236 0.26315 0.89794 0.0
O46 O 0.74445 0.3765 0.94725 0.0
C47 C 0.61389 0.38349 0.93241 0.0
O48 O 0.60404 0.36443 0.91016 0.0
C49 C 0.59813 0.25406 0.95665 0.0
O50 O 0.57418 0.27716 0.9541 0.0
O51 O 0.67759 0.34168 0.89684 0.0
C52 C 0.34392 0.66649 0.15274 0.0
C53 C 0.31627 0.68198 0.13921 0.0
C54 C 0.34567 0.66818 0.17895 0.0
C55 C 0.27998 0.67389 0.2345 0.0
H56 H 0.40133 0.71602 0.26771 0.0
C57 C 0.30223 0.70745 0.34095 0.0
C58 C 0.32837 0.6897 0.35412 0.0
C59 C 0.30146 0.70789 0.31468 0.0
C60 C 0.36709 0.70377 0.25873 0.0
H61 H 0.26874 0.71139 0.14263 0.0
H62 H 0.27216 0.71473 0.18831 0.0
H63 H 0.39831 0.71368 0.22195 0.0
H64 H 0.37467 0.65902 0.34999 0.0
H65 H 0.37311 0.65962 0.30421 0.0
H66 H 0.24878 0.66396 0.27129 0.0
C67 C 0.29204 0.70074 0.17868 0.0
C68 C 0.36534 0.70237 0.23251 0.0
C69 C 0.2903 0.69906 0.15247 0.0
C70 C 0.35419 0.67297 0.34043 0.0
C71 C 0.35353 0.67355 0.31418 0.0
C72 C 0.28175 0.67535 0.26071 0.0
C73 C 0.3198 0.68538 0.19223 0.0
C74 C 0.32174 0.68728 0.22009 0.0
C75 C 0.32695 0.69077 0.30101 0.0
C76 C 0.3253 0.69018 0.27312 0.0
H77 H 0.36425 0.65301 0.1431 0.0
H78 H 0.36686 0.65546 0.18885 0.0
H79 H 0.24569 0.66141 0.22554 0.0
H80 H 0.28203 0.7207 0.35092 0.0
H81 H 0.28111 0.72192 0.30506 0.0
C82 C 0.67458 0.30168 0.6547 0.0
C83 C 0.64256 0.31271 0.64222 0.0
C84 C 0.67532 0.29964 0.68097 0.0
C85 C 0.64383 0.34381 0.73678 0.0
H86 H 0.65447 0.24227 0.77235 0.0
C87 C 0.67907 0.34764 0.84332 0.0
C88 C 0.6518 0.30419 0.85727 0.0
C89 C 0.67839 0.34842 0.81705 0.0
C90 C 0.65125 0.27071 0.76268 0.0
H91 H 0.58579 0.32967 0.64756 0.0
H92 H 0.58704 0.32595 0.69336 0.0
H93 H 0.65096 0.24309 0.7265 0.0
H94 H 0.60265 0.22739 0.85453 0.0
H95 H 0.60139 0.22885 0.80873 0.0
H96 H 0.64351 0.37111 0.77294 0.0
C97 C 0.61189 0.31936 0.68282 0.0
C98 C 0.6497 0.27143 0.73643 0.0
C99 C 0.61099 0.32119 0.65657 0.0
C100 C 0.62415 0.26148 0.84437 0.0
C101 C 0.62361 0.26224 0.8181 0.0
C102 C 0.6456 0.34321 0.76301 0.0
C103 C 0.64421 0.30879 0.69531 0.0
C104 C 0.64587 0.30793 0.7232 0.0
C105 C 0.65057 0.30574 0.80416 0.0
C106 C 0.64925 0.30662 0.77626 0.0
H107 H 0.69938 0.29496 0.64421 0.0
H108 H 0.70094 0.29183 0.69004 0.0
H109 H 0.64137 0.37269 0.72711 0.0
H110 H 0.70082 0.38117 0.85268 0.0
H111 H 0.69999 0.38241 0.80682 0.0
C112 C 0.38364 0.57745 0.99209 0.0
C113 C 0.39126 0.59412 0.01673 0.0
C114 C 0.40756 0.55461 0.98289 0.0
C115 C 0.47171 0.49116 0.00365 0.0
H116 H 0.52255 0.51997 0.93527 0.0
C117 C 0.59772 0.42676 0.9661 0.0
C118 C 0.58914 0.40853 0.94178 0.0
C119 C 0.57364 0.44956 0.97512 0.0
C120 C 0.50814 0.51118 0.95432 0.0
H121 H 0.4301 0.59996 0.05101 0.0
H122 H 0.47226 0.5607 0.03485 0.0
H123 H 0.48022 0.55926 0.9513 0.0
H124 H 0.54867 0.40017 0.90783 0.0
H125 H 0.50651 0.43978 0.92366 0.0
H126 H 0.49981 0.44323 0.00669 0.0
C127 C 0.44725 0.56463 0.02275 0.0
C128 C 0.48384 0.53365 0.9635 0.0
C129 C 0.42327 0.58739 0.03197 0.0
C130 C 0.55619 0.4139 0.92664 0.0
C131 C 0.5322 0.43681 0.93565 0.0
C132 C 0.49609 0.46878 0.99449 0.0
C133 C 0.43971 0.54799 -0.0019 0.0
C134 C 0.46536 0.52393 0.98828 0.0
C135 C 0.54053 0.45475 0.96002 0.0
C136 C 0.5146 0.47855 0.96973 0.0
H137 H 0.35907 0.58189 0.97989 0.0
H138 H 0.40042 0.54163 0.96394 0.0
H139 H 0.45724 0.48226 0.02269 0.0
H140 H 0.62296 0.42331 0.97824 0.0
H141 H 0.58131 0.46354 0.99387 0.0
C142 C 0.17804 0.63953 0.46443 0.0
C143 C 0.20394 0.61641 0.45848 0.0
C144 C 0.12988 0.61268 0.47215 0.0
C145 C 0.03996 0.49457 0.49966 0.0
H146 H 0.94833 0.52877 0.47291 0.0
C147 C 0.84621 0.41124 0.53921 0.0
C148 C 0.8094 0.39776 0.52163 0.0
C149 C 0.8944 0.43765 0.53149 0.0
C150 C 0.97343 0.5186 0.48043 0.0
H151 H 0.1996 0.54691 0.45605 0.0
H152 H 0.11547 0.50007 0.46947 0.0
H153 H 0.03238 0.57502 0.45922 0.0
H154 H 0.79435 0.40144 0.48212 0.0
H155 H 0.87847 0.44744 0.46866 0.0
H156 H 0.98089 0.43781 0.52065 0.0
C157 C 0.13257 0.539 0.46834 0.0
C158 C 0.02164 0.54539 0.47279 0.0
C159 C 0.18069 0.56585 0.46052 0.0
C160 C 0.82183 0.41132 0.49616 0.0
C161 C 0.87002 0.4379 0.48845 0.0
C162 C 0.99178 0.46792 0.50739 0.0
C163 C 0.10662 0.56213 0.47418 0.0
C164 C 0.05542 0.53365 0.48231 0.0
C165 C 0.90682 0.45133 0.50603 0.0
C166 C 0.958 0.47963 0.49784 0.0
H167 H 0.19489 0.67843 0.4631 0.0
H168 H 0.11099 0.63155 0.47681 0.0
H169 H 0.06522 0.48491 0.50749 0.0
H170 H 0.83786 0.40142 0.55899 0.0
H171 H 0.92196 0.44794 0.54551 0.0
C172 C 0.59916 0.1786 0.96911 0.0
C173 C 0.57385 0.2037 0.96667 0.0
C174 C 0.5759 0.13068 0.97804 0.0
C175 C 0.46789 0.03956 0.0136 0.0
H176 H 0.49416 0.94856 0.98083 0.0
C177 C 0.35178 0.83413 0.03153 0.0
C178 C 0.37604 0.80808 0.03452 0.0
C179 C 0.37666 0.88263 0.02362 0.0
C180 C 0.48684 0.97365 0.99035 0.0
H181 H 0.50434 0.19826 0.97187 0.0
H182 H 0.46369 0.11457 0.98718 0.0
H183 H 0.53643 0.03303 0.96661 0.0
H184 H 0.44545 0.81248 0.0314 0.0
H185 H 0.48885 0.89719 0.0176 0.0
H186 H 0.41799 0.98003 0.03718 0.0
C187 C 0.50166 0.13208 0.98248 0.0
C188 C 0.51108 0.02205 0.98223 0.0
C189 C 0.52491 0.17999 0.97356 0.0
C190 C 0.42568 0.83151 0.02926 0.0
C191 C 0.45052 0.87997 0.02124 0.0
C192 C 0.44357 0.99115 0.02166 0.0
C193 C 0.52683 0.1068 0.98473 0.0
C194 C 0.50178 0.05554 0.99371 0.0
C195 C 0.4263 0.90609 0.01842 0.0
C196 C 0.45266 0.95764 0.01007 0.0
H197 H 0.63697 0.19588 0.96405 0.0
H198 H 0.59648 0.11244 0.97988 0.0
H199 H 0.46048 0.06458 0.02311 0.0
H200 H 0.31355 0.81716 0.03539 0.0
H201 H 0.3569 0.90164 0.02132 0.0
C202 C 0.59914 0.41265 0.54192 0.0
C203 C 0.59724 0.37789 0.52574 0.0
C204 C 0.57769 0.43994 0.53529 0.0
C205 C 0.48655 0.44119 0.49335 0.0
H206 H 0.5518 0.57727 0.50742 0.0
C207 C 0.42236 0.56875 0.45415 0.0
C208 C 0.42214 0.60201 0.47069 0.0
C209 C 0.44385 0.54158 0.46096 0.0
C210 C 0.53292 0.53921 0.5036 0.0
H211 H 0.57136 0.34463 0.48989 0.0
H212 H 0.5345 0.39271 0.47817 0.0
H213 H 0.58903 0.52942 0.51902 0.0
H214 H 0.44461 0.63299 0.50732 0.0
H215 H 0.48204 0.58541 0.51921 0.0
H216 H 0.43058 0.4511 0.47779 0.0
C217 C 0.55197 0.39837 0.49616 0.0
C218 C 0.55421 0.51176 0.51026 0.0
C219 C 0.57333 0.37098 0.50282 0.0
C220 C 0.44419 0.60771 0.49413 0.0
C221 C 0.46586 0.58065 0.5009 0.0
C222 C 0.46534 0.46866 0.48662 0.0
C223 C 0.55391 0.4332 0.51231 0.0
C224 C 0.53128 0.46241 0.50522 0.0
C225 C 0.46577 0.54716 0.48442 0.0
C226 C 0.48829 0.51798 0.49167 0.0
H227 H 0.61708 0.41872 0.55978 0.0
H228 H 0.57925 0.46594 0.54833 0.0
H229 H 0.46753 0.40312 0.48957 0.0
H230 H 0.4058 0.56353 0.43592 0.0
H231 H 0.44374 0.51653 0.44771 0.0
C232 C 0.17644 0.58649 0.02878 0.0
C233 C 0.1865 0.57212 0.05213 0.0
C234 C 0.12943 0.56463 0.02006 0.0
C235 C 0.00985 0.45517 0.02909 0.0
H236 H 0.96557 0.53308 0.99393 0.0
C237 C 0.81094 0.382 0.00394 0.0
C238 C 0.80188 0.39336 0.97957 0.0
C239 C 0.85778 0.40393 0.01294 0.0
C240 C 0.97757 0.5108 0.00352 0.0
H241 H 0.15502 0.52373 0.08472 0.0
H242 H 0.07287 0.48621 0.06974 0.0
H243 H 0.04734 0.57112 0.00957 0.0
H244 H 0.83491 0.43691 0.94559 0.0
H245 H 0.91668 0.47524 0.96136 0.0
H246 H 0.93978 0.39494 0.02323 0.0
C247 C 0.10143 0.51376 0.05793 0.0
C248 C 0.02445 0.53255 0.01245 0.0
C249 C 0.14851 0.53545 0.06659 0.0
C250 C 0.84066 0.42737 0.96446 0.0
C251 C 0.88747 0.44953 0.97352 0.0
C252 C 0.96288 0.43348 0.02029 0.0
C253 C 0.0913 0.52807 0.03454 0.0
C254 C 0.04123 0.50498 0.02528 0.0
C255 C 0.89654 0.43792 -0.00217 0.0
C256 C 0.94629 0.46105 0.00735 0.0
H257 H 0.20494 0.61449 0.01711 0.0
H258 H 0.12309 0.57602 0.00179 0.0
H259 H 0.02178 0.43271 0.03852 0.0
H260 H 0.78188 0.356 0.01609 0.0
H261 H 0.86361 0.39465 0.03185 0.0
C262 C 0.54687 0.1335 0.55265 0.0
C263 C 0.58848 0.17432 0.54298 0.0
C264 C 0.52815 0.08941 0.5409 0.0
C265 C 0.56175 0.023 0.49733 0.0
H266 H 0.42391 0.94194 0.491 0.0
C267 C 0.47623 0.8517 0.43851 0.0
C268 C 0.43552 0.81097 0.449 0.0
C269 C 0.49507 0.89636 0.4497 0.0
C270 C 0.46247 0.96395 0.49284 0.0
H271 H 0.64281 0.20097 0.51322 0.0
H272 H 0.60982 0.1243 0.49258 0.0
H273 H 0.45624 0.01923 0.51102 0.0
H274 H 0.38281 0.78517 0.47955 0.0
H275 H 0.41591 0.86285 0.49912 0.0
H276 H 0.56792 0.96768 0.4791 0.0
C277 C 0.59207 0.12612 0.50948 0.0
C278 C 0.481 0.00823 0.50433 0.0
C279 C 0.61083 0.17015 0.52124 0.0
C280 C 0.41414 0.81584 0.47094 0.0
C281 C 0.43292 0.86045 0.48208 0.0
C282 C 0.54321 0.97873 0.48579 0.0
C283 C 0.55057 0.08518 0.51919 0.0
C284 C 0.53086 0.03824 0.50677 0.0
C285 C 0.47355 0.90124 0.47158 0.0
C286 C 0.49335 0.94864 0.48349 0.0
H287 H 0.52888 0.13544 0.56941 0.0
H288 H 0.4965 0.05844 0.54906 0.0
H289 H 0.6003 0.0449 0.49923 0.0
H290 H 0.49347 0.84921 0.42159 0.0
H291 H 0.5261 0.92722 0.441 0.0
loop_
_geom_bond_atom_site_label_1
_geom_bond_atom_site_label_2
_geom_bond_distance
_geom_bond_site_symmetry_2
_ccdc_geom_bond_type
C0 O1 1.160 . S
C0 O7 1.185 . S
O1 C0 1.160 . S
O2 Zn3 1.899 . S
O2 C10 1.284 . S
Zn3 O2 1.899 . S
Zn3 O4 2.032 . S
Zn3 O7 2.086 . S
Zn3 O12 1.977 . S
O4 Zn3 2.032 . S
O4 C8 1.278 . S
C5 O6 1.203 . S
C5 O12 1.267 . S
O6 C5 1.203 . S
O7 C0 1.185 . S
O7 Zn3 2.086 . S
C8 O4 1.278 . S
C8 O9 1.211 . S
O9 C8 1.211 . S
C10 O2 1.284 . S
C10 O11 1.273 . S
O11 C10 1.273 . S
O12 Zn3 1.977 . S
O12 C5 1.267 . S
C13 O14 1.160 . S
C13 O20 1.185 . S
O14 C13 1.160 . S
O15 Zn16 1.899 . S
O15 C23 1.284 . S
Zn16 O15 1.899 . S
Zn16 O17 2.032 . S
Zn16 O20 2.086 . S
Zn16 O25 1.977 . S
O17 Zn16 2.032 . S
O17 C21 1.278 . S
C18 O19 1.203 . S
C18 O25 1.267 . S
O19 C18 1.203 . S
O20 C13 1.185 . S
O20 Zn16 2.086 . S
C21 O17 1.278 . S
C21 O22 1.211 . S
O22 C21 1.211 . S
C23 O15 1.284 . S
C23 O24 1.273 . S
O24 C23 1.273 . S
O25 Zn16 1.977 . S
O25 C18 1.267 . S
C26 O27 1.160 . S
C26 O33 1.185 . S
O27 C26 1.160 . S
O28 Zn29 1.899 . S
O28 C36 1.284 . S
Zn29 O28 1.899 . S
Zn29 O30 2.032 . S
Zn29 O33 2.086 . S
Zn29 O38 1.977 . S
O30 Zn29 2.032 . S
O30 C34 1.278 . S
C31 O32 1.203 . S
C31 O38 1.267 . S
O32 C31 1.203 . S
O33 C26 1.185 . S
O33 Zn29 2.086 . S
C34 O30 1.278 . S
C34 O35 1.211 . S
O35 C34 1.211 . S
C36 O28 1.284 . S
C36 O37 1.273 . S
O37 C36 1.273 . S
O38 Zn29 1.977 . S
O38 C31 1.267 . S
C39 O40 1.160 . S
C39 O46 1.185 . S
O40 C39 1.160 . S
O41 Zn42 1.899 . S
O41 C49 1.284 . S
Zn42 O41 1.899 . S
Zn42 O43 2.032 . S
Zn42 O46 2.086 . S
Zn42 O51 1.977 . S
O43 Zn42 2.032 . S
O43 C47 1.278 . S
C44 O45 1.203 . S
C44 O51 1.267 . S
O45 C44 1.203 . S
O46 C39 1.185 . S
O46 Zn42 2.086 . S
C47 O43 1.278 . S
C47 O48 1.211 . S
O48 C47 1.211 . S
C49 O41 1.284 . S
C49 O50 1.273 . S
O50 C49 1.273 . S
O51 Zn42 1.977 . S
O51 C44 1.267 . S
C52 C53 1.349 . S
C52 C54 1.327 . S
C52 H77 0.950 . S
C53 C52 1.349 . S
C53 C69 1.349 . S
C54 C52 1.327 . S
C54 C73 1.429 . S
C54 H78 0.950 . S
C55 C72 1.574 . S
C55 C74 1.368 . S
C55 H79 0.949 . S
H56 C60 0.949 . S
C57 C58 1.349 . S
C57 C59 1.327 . S
C57 H80 0.950 . S
C58 C57 1.349 . S
C58 C70 1.349 . S
C59 C57 1.327 . S
C59 C75 1.429 . S
C59 H81 0.950 . S
C60 H56 0.949 . S
C60 C68 1.574 . S
C60 C76 1.368 . S
H61 C69 0.950 . S
H62 C67 0.950 . S
H63 C68 0.949 . S
H64 C70 0.950 . S
H65 C71 0.950 . S
H66 C72 0.949 . S
C67 H62 0.950 . S
C67 C69 1.327 . S
C67 C73 1.429 . S
C68 C60 1.574 . S
C68 H63 0.949 . S
C68 C74 1.368 . S
C69 C53 1.349 . S
C69 H61 0.950 . S
C69 C67 1.327 . S
C70 C58 1.349 . S
C70 H64 0.950 . S
C70 C71 1.327 . S
C71 H65 0.950 . S
C71 C70 1.327 . S
C71 C75 1.429 . S
C72 C55 1.574 . S
C72 H66 0.949 . S
C72 C76 1.368 . S
C73 C54 1.429 . S
C73 C67 1.429 . S
C73 C74 1.523 . S
C74 C55 1.368 . S
C74 C68 1.368 . S
C74 C73 1.523 . S
C75 C59 1.429 . S
C75 C71 1.429 . S
C75 C76 1.523 . S
C76 C60 1.368 . S
C76 C72 1.368 . S
C76 C75 1.523 . S
H77 C52 0.950 . S
H78 C54 0.950 . S
H79 C55 0.949 . S
H80 C57 0.950 . S
H81 C59 0.950 . S
C82 C83 1.349 . S
C82 C84 1.327 . S
C82 H107 0.950 . S
C83 C82 1.349 . S
C83 C99 1.349 . S
C84 C82 1.327 . S
C84 C103 1.429 . S
C84 H108 0.950 . S
C85 C102 1.574 . S
C85 C104 1.368 . S
C85 H109 0.949 . S
H86 C90 0.949 . S
C87 C88 1.349 . S
C87 C89 1.327 . S
C87 H110 0.950 . S
C88 C87 1.349 . S
C88 C100 1.349 . S
C89 C87 1.327 . S
C89 C105 1.429 . S
C89 H111 0.950 . S
C90 H86 0.949 . S
C90 C98 1.574 . S
C90 C106 1.368 . S
H91 C99 0.950 . S
H92 C97 0.950 . S
H93 C98 0.949 . S
H94 C100 0.950 . S
H95 C101 0.950 . S
H96 C102 0.949 . S
C97 H92 0.950 . S
C97 C99 1.327 . S
C97 C103 1.429 . S
C98 C90 1.574 . S
C98 H93 0.949 . S
C98 C104 1.368 . S
C99 C83 1.349 . S
C99 H91 0.950 . S
C99 C97 1.327 . S
C100 C88 1.349 . S
C100 H94 0.950 . S
C100 C101 1.327 . S
C101 H95 0.950 . S
C101 C100 1.327 . S
C101 C105 1.429 . S
C102 C85 1.574 . S
C102 H96 0.949 . S
C102 C106 1.368 . S
C103 C84 1.429 . S
C103 C97 1.429 . S
C103 C104 1.523 . S
C104 C85 1.368 . S
C104 C98 1.368 . S
C104 C103 1.523 . S
C105 C89 1.429 . S
C105 C101 1.429 . S
C105 C106 1.523 . S
C106 C90 1.368 . S
C106 C102 1.368 . S
C106 C105 1.523 . S
H107 C82 0.950 . S
H108 C84 0.950 . S
H109 C85 0.949 . S
H110 C87 0.950 . S
H111 C89 0.950 . S
C112 C113 1.349 . S
C112 C114 1.327 1_554 S
C112 H137 0.950 1_554 S
C113 C112 1.349 . S
C113 C129 1.349 . S
C114 C112 1.327 1_556 S
C114 C133 1.429 1_556 S
C114 H138 0.950 . S
C115 C132 1.574 . S
C115 C134 1.368 . S
C115 H139 0.949 . S
H116 C120 0.949 . S
C117 C118 1.349 . S
C117 C119 1.327 . S
C117 H140 0.950 . S
C118 C117 1.349 . S
C118 C130 1.349 . S
C119 C117 1.327 . S
C119 C135 1.429 . S
C119 H141 0.950 1_556 S
C120 H116 0.949 . S
C120 C128 1.574 . S
C120 C136 1.368 . S
H121 C129 0.950 . S
H122 C127 0.950 . S
H123 C128 0.949 . S
H124 C130 0.950 . S
H125 C131 0.950 . S
H126 C132 0.949 . S
C127 H122 0.950 . S
C127 C129 1.327 . S
C127 C133 1.429 . S
C128 C120 1.574 . S
C128 H123 0.949 . S
C128 C134 1.368 1_556 S
C129 C113 1.349 . S
C129 H121 0.950 . S
C129 C127 1.327 . S
C130 C118 1.349 . S
C130 H124 0.950 . S
C130 C131 1.327 . S
C131 H125 0.950 . S
C131 C130 1.327 . S
C131 C135 1.429 . S
C132 C115 1.574 . S
C132 H126 0.949 . S
C132 C136 1.368 1_554 S
C133 C114 1.429 1_554 S
C133 C127 1.429 . S
C133 C134 1.523 . S
C134 C115 1.368 . S
C134 C128 1.368 1_554 S
C134 C133 1.523 . S
C135 C119 1.429 . S
C135 C131 1.429 . S
C135 C136 1.523 . S
C136 C120 1.368 . S
C136 C132 1.368 1_556 S
C136 C135 1.523 . S
H137 C112 0.950 1_556 S
H138 C114 0.950 . S
H139 C115 0.949 . S
H140 C117 0.950 . S
H141 C119 0.950 1_554 S
C142 C143 1.349 . S
C142 C144 1.327 . S
C142 H167 0.950 . S
C143 C142 1.349 . S
C143 C159 1.349 . S
C144 C142 1.327 . S
C144 C163 1.429 . S
C144 H168 0.950 . S
C145 C162 1.574 1_455 S
C145 C164 1.368 . S
C145 H169 0.949 . S
H146 C150 0.949 . S
C147 C148 1.349 . S
C147 C149 1.327 . S
C147 H170 0.950 . S
C148 C147 1.349 . S
C148 C160 1.349 . S
C149 C147 1.327 . S
C149 C165 1.429 . S
C149 H171 0.950 . S
C150 H146 0.949 . S
C150 C158 1.574 1_655 S
C150 C166 1.368 . S
H151 C159 0.950 . S
H152 C157 0.950 . S
H153 C158 0.949 . S
H154 C160 0.950 . S
H155 C161 0.950 . S
H156 C162 0.949 . S
C157 H152 0.950 . S
C157 C159 1.327 . S
C157 C163 1.429 . S
C158 C150 1.574 1_455 S
C158 H153 0.949 . S
C158 C164 1.368 . S
C159 C143 1.349 . S
C159 H151 0.950 . S
C159 C157 1.327 . S
C160 C148 1.349 . S
C160 H154 0.950 . S
C160 C161 1.327 . S
C161 H155 0.950 . S
C161 C160 1.327 . S
C161 C165 1.429 . S
C162 C145 1.574 1_655 S
C162 H156 0.949 . S
C162 C166 1.368 . S
C163 C144 1.429 . S
C163 C157 1.429 . S
C163 C164 1.523 . S
C164 C145 1.368 . S
C164 C158 1.368 . S
C164 C163 1.523 . S
C165 C149 1.429 . S
C165 C161 1.429 . S
C165 C166 1.523 . S
C166 C150 1.368 . S
C166 C162 1.368 . S
C166 C165 1.523 . S
H167 C142 0.950 . S
H168 C144 0.950 . S
H169 C145 0.949 . S
H170 C147 0.950 . S
H171 C149 0.950 . S
C172 C173 1.349 . S
C172 C174 1.327 . S
C172 H197 0.950 . S
C173 C172 1.349 . S
C173 C189 1.349 . S
C174 C172 1.327 . S
C174 C193 1.429 . S
C174 H198 0.950 . S
C175 C192 1.574 1_545 S
C175 C194 1.368 1_554 S
C175 H199 0.949 . S
H176 C180 0.949 . S
C177 C178 1.349 . S
C177 C179 1.327 . S
C177 H200 0.950 . S
C178 C177 1.349 . S
C178 C190 1.349 . S
C179 C177 1.327 . S
C179 C195 1.429 . S
C179 H201 0.950 . S
C180 H176 0.949 . S
C180 C188 1.574 1_565 S
C180 C196 1.368 1_556 S
H181 C189 0.950 . S
H182 C187 0.950 1_554 S
H183 C188 0.949 . S
H184 C190 0.950 . S
H185 C191 0.950 1_556 S
H186 C192 0.949 . S
C187 H182 0.950 1_556 S
C187 C189 1.327 . S
C187 C193 1.429 . S
C188 C180 1.574 1_545 S
C188 H183 0.949 . S
C188 C194 1.368 . S
C189 C173 1.349 . S
C189 H181 0.950 . S
C189 C187 1.327 . S
C190 C178 1.349 . S
C190 H184 0.950 . S
C190 C191 1.327 . S
C191 H185 0.950 1_554 S
C191 C190 1.327 . S
C191 C195 1.429 . S
C192 C175 1.574 1_565 S
C192 H186 0.949 . S
C192 C196 1.368 . S
C193 C174 1.429 . S
C193 C187 1.429 . S
C193 C194 1.523 . S
C194 C175 1.368 1_556 S
C194 C188 1.368 . S
C194 C193 1.523 . S
C195 C179 1.429 . S
C195 C191 1.429 . S
C195 C196 1.523 . S
C196 C180 1.368 1_554 S
C196 C192 1.368 . S
C196 C195 1.523 . S
H197 C172 0.950 . S
H198 C174 0.950 . S
H199 C175 0.949 . S
H200 C177 0.950 . S
H201 C179 0.950 . S
C202 C203 1.349 . S
C202 C204 1.327 . S
C202 H227 0.950 . S
C203 C202 1.349 . S
C203 C219 1.349 . S
C204 C202 1.327 . S
C204 C223 1.429 . S
C204 H228 0.950 . S
C205 C222 1.574 . S
C205 C224 1.368 . S
C205 H229 0.949 . S
H206 C210 0.949 . S
C207 C208 1.349 . S
C207 C209 1.327 . S
C207 H230 0.950 . S
C208 C207 1.349 . S
C208 C220 1.349 . S
C209 C207 1.327 . S
C209 C225 1.429 . S
C209 H231 0.950 . S
C210 H206 0.949 . S
C210 C218 1.574 . S
C210 C226 1.368 . S
H211 C219 0.950 . S
H212 C217 0.950 . S
H213 C218 0.949 . S
H214 C220 0.950 . S
H215 C221 0.950 . S
H216 C222 0.949 . S
C217 H212 0.950 . S
C217 C219 1.327 . S
C217 C223 1.429 . S
C218 C210 1.574 . S
C218 H213 0.949 . S
C218 C224 1.368 . S
C219 C203 1.349 . S
C219 H211 0.950 . S
C219 C217 1.327 . S
C220 C208 1.349 . S
C220 H214 0.950 . S
C220 C221 1.327 . S
C221 H215 0.950 . S
C221 C220 1.327 . S
C221 C225 1.429 . S
C222 C205 1.574 . S
C222 H216 0.949 . S
C222 C226 1.368 . S
C223 C204 1.429 . S
C223 C217 1.429 . S
C223 C224 1.523 . S
C224 C205 1.368 . S
C224 C218 1.368 . S
C224 C223 1.523 . S
C225 C209 1.429 . S
C225 C221 1.429 . S
C225 C226 1.523 . S
C226 C210 1.368 . S
C226 C222 1.368 . S
C226 C225 1.523 . S
H227 C202 0.950 . S
H228 C204 0.950 . S
H229 C205 0.949 . S
H230 C207 0.950 . S
H231 C209 0.950 . S
C232 C233 1.349 . S
C232 C234 1.327 . S
C232 H257 0.950 . S
C233 C232 1.349 . S
C233 C249 1.349 . S
C234 C232 1.327 . S
C234 C253 1.429 . S
C234 H258 0.950 1_554 S
C235 C252 1.574 1_455 S
C235 C254 1.368 . S
C235 H259 0.949 . S
H236 C240 0.949 . S
C237 C238 1.349 . S
C237 C239 1.327 1_556 S
C237 H260 0.950 1_556 S
C238 C237 1.349 . S
C238 C250 1.349 . S
C239 C237 1.327 1_554 S
C239 C255 1.429 1_554 S
C239 H261 0.950 . S
C240 H236 0.949 . S
C240 C248 1.574 1_655 S
C240 C256 1.368 . S
H241 C249 0.950 . S
H242 C247 0.950 . S
H243 C248 0.949 . S
H244 C250 0.950 . S
H245 C251 0.950 . S
H246 C252 0.949 . S
C247 H242 0.950 . S
C247 C249 1.327 . S
C247 C253 1.429 . S
C248 C240 1.574 1_455 S
C248 H243 0.949 . S
C248 C254 1.368 1_556 S
C249 C233 1.349 . S
C249 H241 0.950 . S
C249 C247 1.327 . S
C250 C238 1.349 . S
C250 H244 0.950 . S
C250 C251 1.327 . S
C251 H245 0.950 . S
C251 C250 1.327 . S
C251 C255 1.429 . S
C252 C235 1.574 1_655 S
C252 H246 0.949 . S
C252 C256 1.368 1_554 S
C253 C234 1.429 . S
C253 C247 1.429 . S
C253 C254 1.523 . S
C254 C235 1.368 . S
C254 C248 1.368 1_554 S
C254 C253 1.523 . S
C255 C239 1.429 1_556 S
C255 C251 1.429 . S
C255 C256 1.523 . S
C256 C240 1.368 . S
C256 C252 1.368 1_556 S
C256 C255 1.523 . S
H257 C232 0.950 . S
H258 C234 0.950 1_556 S
H259 C235 0.949 . S
H260 C237 0.950 1_554 S
H261 C239 0.950 . S
C262 C263 1.349 . S
C262 C264 1.327 . S
C262 H287 0.950 . S
C263 C262 1.349 . S
C263 C279 1.349 . S
C264 C262 1.327 . S
C264 C283 1.429 . S
C264 H288 0.950 . S
C265 C282 1.574 1_545 S
C265 C284 1.368 . S
C265 H289 0.949 . S
H266 C270 0.949 . S
C267 C268 1.349 . S
C267 C269 1.327 . S
C267 H290 0.950 . S
C268 C267 1.349 . S
C268 C280 1.349 . S
C269 C267 1.327 . S
C269 C285 1.429 . S
C269 H291 0.950 . S
C270 H266 0.949 . S
C270 C278 1.574 1_565 S
C270 C286 1.368 . S
H271 C279 0.950 . S
H272 C277 0.950 . S
H273 C278 0.949 . S
H274 C280 0.950 . S
H275 C281 0.950 . S
H276 C282 0.949 . S
C277 H272 0.950 . S
C277 C279 1.327 . S
C277 C283 1.429 . S
C278 C270 1.574 1_545 S
C278 H273 0.949 . S
C278 C284 1.368 . S
C279 C263 1.349 . S
C279 H271 0.950 . S
C279 C277 1.327 . S
C280 C268 1.349 . S
C280 H274 0.950 . S
C280 C281 1.327 . S
C281 H275 0.950 . S
C281 C280 1.327 . S
C281 C285 1.429 . S
C282 C265 1.574 1_565 S
C282 H276 0.949 . S
C282 C286 1.368 . S
C283 C264 1.429 . S
C283 C277 1.429 . S
C283 C284 1.523 . S
C284 C265 1.368 . S
C284 C278 1.368 . S
C284 C283 1.523 . S
C285 C269 1.429 . S
C285 C281 1.429 . S
C285 C286 1.523 . S
C286 C270 1.368 . S
C286 C282 1.368 . S
C286 C285 1.523 . S
H287 C262 0.950 . S
H288 C264 0.950 . S
H289 C265 0.949 . S
H290 C267 0.950 . S
H291 C269 0.950 . S
C53 C5 1.498 . S
C58 C31 1.497 . S
C83 C18 1.497 . S
C88 C44 1.498 . S
C113 C0 1.529 . S
C118 C47 1.530 . S
C143 C36 1.442 . S
C148 C13 1.422 . S
C173 C49 1.380 . S
C178 C10 1.380 . S
C203 C23 1.442 . S
C208 C26 1.422 . S
C233 C8 1.530 . S
C238 C39 1.529 . S
C263 C21 1.583 . S
C268 C34 1.583 . S
