# Generated by pormake.
# Topology whc, (6)-cn, num edge types: 1
# Building blocks:
#     Node 0, Type 0, BuildingBlock: IZENUY_clean_sbu_0, # of connection points: 6
#     Node 1, Type 0, BuildingBlock: IZENUY_clean_sbu_0, # of connection points: 6
#     Node 2, Type 0, BuildingBlock: IZENUY_clean_sbu_0, # of connection points: 6
#     Node 3, Type 0, BuildingBlock: IZENUY_clean_sbu_0, # of connection points: 6
#     Node 4, Type 0, BuildingBlock: IZENUY_clean_sbu_0, # of connection points: 6
#     Node 5, Type 0, BuildingBlock: IZENUY_clean_sbu_0, # of connection points: 6
#     Node 6, Type 0, BuildingBlock: IZENUY_clean_sbu_0, # of connection points: 6
#     Node 7, Type 0, BuildingBlock: IZENUY_clean_sbu_0, # of connection points: 6
#     Edge 8, Type (0, 0), BuildingBlock: AJUNOK_clean_linker_0, # of connection points: 2
#     Edge 9, Type (0, 0), BuildingBlock: AJUNOK_clean_linker_0, # of connection points: 2
#     Edge 10, Type (0, 0), BuildingBlock: AJUNOK_clean_linker_0, # of connection points: 2
#     Edge 11, Type (0, 0), BuildingBlock: AJUNOK_clean_linker_0, # of connection points: 2
#     Edge 12, Type (0, 0), BuildingBlock: AJUNOK_clean_linker_0, # of connection points: 2
#     Edge 13, Type (0, 0), BuildingBlock: AJUNOK_clean_linker_0, # of connection points: 2
#     Edge 14, Type (0, 0), BuildingBlock: AJUNOK_clean_linker_0, # of connection points: 2
#     Edge 15, Type (0, 0), BuildingBlock: AJUNOK_clean_linker_0, # of connection points: 2
#     Edge 16, Type (0, 0), BuildingBlock: AJUNOK_clean_linker_0, # of connection points: 2
#     Edge 17, Type (0, 0), BuildingBlock: AJUNOK_clean_linker_0, # of connection points: 2
#     Edge 18, Type (0, 0), BuildingBlock: AJUNOK_clean_linker_0, # of connection points: 2
#     Edge 19, Type (0, 0), BuildingBlock: AJUNOK_clean_linker_0, # of connection points: 2
#     Edge 20, Type (0, 0), BuildingBlock: AJUNOK_clean_linker_0, # of connection points: 2
#     Edge 21, Type (0, 0), BuildingBlock: AJUNOK_clean_linker_0, # of connection points: 2
#     Edge 22, Type (0, 0), BuildingBlock: AJUNOK_clean_linker_0, # of connection points: 2
#     Edge 23, Type (0, 0), BuildingBlock: AJUNOK_clean_linker_0, # of connection points: 2
#     Edge 24, Type (0, 0), BuildingBlock: AJUNOK_clean_linker_0, # of connection points: 2
#     Edge 25, Type (0, 0), BuildingBlock: AJUNOK_clean_linker_0, # of connection points: 2
#     Edge 26, Type (0, 0), BuildingBlock: AJUNOK_clean_linker_0, # of connection points: 2
#     Edge 27, Type (0, 0), BuildingBlock: AJUNOK_clean_linker_0, # of connection points: 2
#     Edge 28, Type (0, 0), BuildingBlock: AJUNOK_clean_linker_0, # of connection points: 2
#     Edge 29, Type (0, 0), BuildingBlock: AJUNOK_clean_linker_0, # of connection points: 2
#     Edge 30, Type (0, 0), BuildingBlock: AJUNOK_clean_linker_0, # of connection points: 2
#     Edge 31, Type (0, 0), BuildingBlock: AJUNOK_clean_linker_0, # of connection points: 2
# Relax obj value: 0.364
# Max RMSD: 0.283
# Mean RMSD: 0.283
data_MOF--net-whc--node1-IZENUY_clean_sbu_0--edge1-AJUNOK_clean_linker_0
_symmetry_space_group_name_H-M    P1
_symmetry_Int_Tables_number       1
_symmetry_cell_setting            triclinic
loop_
_symmetry_equiv_pos_as_xyz
'x, y, z'
_cell_length_a     26.055884
_cell_length_b     26.055805
_cell_length_c     21.642794
_cell_angle_alpha  89.943459
_cell_angle_beta   89.894101
_cell_angle_gamma 89.777472
loop_
_atom_site_label
_atom_site_type_symbol
_atom_site_fract_x
_atom_site_fract_y
_atom_site_fract_z
_atom_type_partial_charge
Fe0 Fe 0.53076 0.18981 0.11105 0.0
Fe1 Fe 0.41381 0.20126 0.09168 0.0
O2 O 0.47312 0.22493 0.11985 0.0
Fe3 Fe 0.47492 0.28491 0.15806 0.0
O4 O 0.54268 0.29997 0.14012 0.0
O5 O 0.56248 0.24171 0.07197 0.0
O6 O 0.51483 0.16628 0.03199 0.0
C7 C 0.47869 0.17887 0.99514 0.0
C8 C 0.52684 0.22101 0.23517 0.0
O9 O 0.43766 0.19789 0.01486 0.0
C10 C 0.37687 0.24783 0.19443 0.0
O11 O 0.50497 0.13534 0.14947 0.0
O12 O 0.42974 0.13175 0.1046 0.0
O13 O 0.4909 0.25308 0.22922 0.0
O14 O 0.55438 0.20779 0.189 0.0
C15 C 0.41712 0.30669 0.05799 0.0
O16 O 0.38276 0.20487 0.1679 0.0
O17 O 0.40792 0.28382 0.18347 0.0
C18 C 0.46682 0.11026 0.13316 0.0
O19 O 0.39113 0.26635 0.06976 0.0
O20 O 0.4575 0.31713 0.08758 0.0
C21 C 0.56948 0.2852 0.09468 0.0
Fe22 Fe 0.20187 0.60943 0.93064 0.0
Fe23 Fe 0.209 0.49265 0.90754 0.0
O24 O 0.23583 0.55464 0.9037 0.0
Fe25 Fe 0.29887 0.56212 0.87416 0.0
O26 O 0.321 0.5814 0.94903 0.0
O27 O 0.26127 0.64101 0.95986 0.0
O28 O 0.19732 0.58346 1.00649 0.0
C29 C 0.18601 0.53899 0.02357 0.0
C30 C 0.24946 0.65259 0.83269 0.0
O31 O 0.17929 0.50271 0.98496 0.0
C32 C 0.253 0.50346 0.78716 0.0
O33 O 0.13652 0.5846 0.91037 0.0
O34 O 0.15287 0.51086 0.86586 0.0
O35 O 0.28935 0.62881 0.84983 0.0
O36 O 0.20611 0.64128 0.85528 0.0
C37 C 0.30768 0.46735 0.93346 0.0
O38 O 0.23514 0.47463 0.83008 0.0
O39 O 0.27788 0.54348 0.79944 0.0
C40 C 0.12149 0.54468 0.88151 0.0
O41 O 0.26214 0.46786 0.95078 0.0
O42 O 0.32243 0.49681 0.89102 0.0
C43 C 0.30337 0.61997 0.97722 0.0
Fe44 Fe 0.60719 0.81985 0.09387 0.0
Fe45 Fe 0.55803 0.72933 0.16174 0.0
O46 O 0.55284 0.79158 0.13003 0.0
Fe47 Fe 0.49466 0.82582 0.13577 0.0
O48 O 0.50022 0.85216 0.05553 0.0
O49 O 0.5748 0.82178 0.02191 0.0
O50 O 0.63366 0.7573 0.06738 0.0
C51 C 0.60988 0.71588 0.05477 0.0
C52 C 0.55507 0.90738 0.14526 0.0
O53 O 0.57129 0.70274 0.0863 0.0
C54 C 0.5117 0.78404 0.25472 0.0
O55 O 0.64413 0.81753 0.16588 0.0
O56 O 0.62642 0.7356 0.17959 0.0
O57 O 0.52591 0.87801 0.17344 0.0
O58 O 0.58787 0.88832 0.10825 0.0
C59 C 0.45607 0.73035 0.11605 0.0
O60 O 0.54646 0.75352 0.23789 0.0
O61 O 0.48098 0.80375 0.21547 0.0
C62 C 0.65355 0.77466 0.19147 0.0
O63 O 0.49023 0.7112 0.15067 0.0
O64 O 0.4582 0.7763 0.09994 0.0
C65 C 0.53099 0.83998 1.01169 0.0
Fe66 Fe 0.81634 0.53779 0.90321 0.0
Fe67 Fe 0.73246 0.46748 0.85586 0.0
O68 O 0.7909 0.47484 0.89584 0.0
Fe69 Fe 0.82514 0.42267 0.92915 0.0
O70 O 0.84093 0.46076 0.99818 0.0
O71 O 0.80123 0.53601 0.98552 0.0
O72 O 0.75785 0.57361 0.8876 0.0
C73 C 0.71379 0.56236 0.90548 0.0
C74 C 0.90613 0.48446 0.89374 0.0
O75 O 0.70021 0.51633 0.903 0.0
C76 C 0.783 0.37793 0.81977 0.0
O77 O 0.83152 0.53727 0.8211 0.0
O78 O 0.75331 0.51226 0.79456 0.0
O79 O 0.88568 0.44051 0.88757 0.0
O80 O 0.88096 0.51852 0.92046 0.0
C81 C 0.72247 0.40037 0.95899 0.0
O82 O 0.75678 0.41706 0.8064 0.0
O83 O 0.81046 0.37592 0.86798 0.0
C84 C 0.79909 0.52503 0.77982 0.0
O85 O 0.70549 0.42156 0.9105 0.0
O86 O 0.76963 0.40038 0.97282 0.0
C87 C 0.81697 0.49952 0.02013 0.0
Fe88 Fe 0.55358 0.2852 0.65859 0.0
Fe89 Fe 0.61443 0.20013 0.59344 0.0
O90 O 0.55511 0.22484 0.62081 0.0
Fe91 Fe 0.49723 0.19083 0.61123 0.0
O92 O 0.46645 0.24368 0.57302 0.0
O93 O 0.48578 0.30127 0.64154 0.0
O94 O 0.57137 0.31674 0.58759 0.0
C95 C 0.61204 0.30566 0.55838 0.0
C96 C 0.50177 0.2215 0.73586 0.0
O97 O 0.63743 0.26483 0.57111 0.0
C98 C 0.55995 0.10954 0.63301 0.0
O99 O 0.62053 0.28337 0.68397 0.0
O100 O 0.64469 0.20371 0.66991 0.0
O101 O 0.47406 0.20836 0.68986 0.0
O102 O 0.53728 0.25383 0.72975 0.0
C103 C 0.55017 0.18007 0.49558 0.0
O104 O 0.5981 0.13077 0.60641 0.0
O105 O 0.52161 0.13505 0.64843 0.0
C106 C 0.65072 0.24672 0.69611 0.0
O107 O 0.59157 0.19676 0.51649 0.0
O108 O 0.51311 0.16822 0.53152 0.0
C109 C 0.45847 0.28658 0.5968 0.0
Fe110 Fe 0.19885 0.4194 0.43318 0.0
Fe111 Fe 0.29226 0.46577 0.36258 0.0
O112 O 0.23299 0.47199 0.40121 0.0
Fe113 Fe 0.20703 0.53452 0.40939 0.0
O114 O 0.22201 0.53132 0.49147 0.0
O115 O 0.18173 0.45671 0.50285 0.0
O116 O 0.25381 0.39699 0.47744 0.0
C117 C 0.30118 0.39803 0.46508 0.0
C118 C 0.11679 0.48048 0.40234 0.0
O119 O 0.31885 0.41939 0.41707 0.0
C120 C 0.22598 0.52441 0.28645 0.0
O121 O 0.21486 0.3736 0.3707 0.0
O122 O 0.26953 0.41603 0.31166 0.0
O123 O 0.14261 0.51539 0.42602 0.0
O124 O 0.13841 0.43754 0.39188 0.0
C125 C 0.30896 0.55998 0.41382 0.0
O126 O 0.2717 0.51142 0.30174 0.0
O127 O 0.19232 0.53486 0.32726 0.0
C128 C 0.24333 0.37663 0.3231 0.0
O129 O 0.32315 0.51408 0.41134 0.0
O130 O 0.26514 0.57088 0.39481 0.0
C131 C 0.20565 0.49493 0.52578 0.0
Fe132 Fe 0.41845 0.81922 0.59549 0.0
Fe133 Fe 0.53132 0.8226 0.63599 0.0
O134 O 0.47222 0.79022 0.63232 0.0
Fe135 Fe 0.46592 0.72894 0.66682 0.0
O136 O 0.45212 0.70049 0.59247 0.0
O137 O 0.39141 0.75679 0.57077 0.0
O138 O 0.45089 0.81925 0.52313 0.0
C139 C 0.49511 0.83571 0.51214 0.0
C140 C 0.37041 0.77649 0.6937 0.0
O141 O 0.52618 0.8477 0.55537 0.0
C142 C 0.51292 0.7864 0.75636 0.0
O143 O 0.43894 0.88751 0.60864 0.0
O144 O 0.50222 0.87696 0.67223 0.0
O145 O 0.39774 0.737 0.6842 0.0
O146 O 0.3808 0.81879 0.66731 0.0
C147 C 0.56767 0.72569 0.62048 0.0
O148 O 0.54484 0.80148 0.71572 0.0
O149 O 0.47771 0.75563 0.7422 0.0
C150 C 0.47266 0.90637 0.64442 0.0
O151 O 0.56581 0.77088 0.60146 0.0
O152 O 0.53344 0.70845 0.65635 0.0
C153 C 0.41409 0.71418 0.5601 0.0
Fe154 Fe 0.82097 0.60677 0.43236 0.0
Fe155 Fe 0.72553 0.56141 0.37164 0.0
O156 O 0.78829 0.55307 0.40136 0.0
Fe157 Fe 0.81736 0.49169 0.39961 0.0
O158 O 0.84708 0.49851 0.47726 0.0
O159 O 0.82535 0.57701 0.50647 0.0
O160 O 0.76115 0.63683 0.46211 0.0
C161 C 0.71883 0.61584 0.47768 0.0
C162 C 0.90299 0.54664 0.37874 0.0
O163 O 0.70182 0.57807 0.4475 0.0
C164 C 0.77436 0.50704 0.28135 0.0
O165 O 0.81729 0.64186 0.35901 0.0
O166 O 0.7343 0.62897 0.35085 0.0
O167 O 0.87219 0.51449 0.35828 0.0
O168 O 0.88667 0.58348 0.41215 0.0
C169 C 0.71983 0.46234 0.42346 0.0
O170 O 0.74809 0.54598 0.29545 0.0
O171 O 0.79135 0.47621 0.32224 0.0
C172 C 0.77417 0.65357 0.33597 0.0
O173 O 0.7033 0.49537 0.38569 0.0
O174 O 0.76551 0.46262 0.44046 0.0
C175 C 0.8401 0.53233 0.51903 0.0
C176 C 0.26557 0.33571 0.22261 0.0
C177 C 0.25727 0.33024 0.28654 0.0
C178 C 0.29927 0.3029 0.19062 0.0
C179 C 0.32681 0.26385 0.22135 0.0
H180 H 0.24998 0.36869 0.19841 0.0
H181 H 0.30791 0.31162 0.14278 0.0
S182 S 0.31229 0.22781 0.38576 0.0
N183 N 0.27338 0.27755 0.37718 0.0
N184 N 0.33807 0.21725 0.31714 0.0
C185 C 0.3146 0.2544 0.28342 0.0
C186 C 0.2794 0.28724 0.31596 0.0
C187 C 0.28678 0.73935 0.82423 0.0
C188 C 0.25792 0.6999 0.79656 0.0
C189 C 0.31775 0.77218 0.78859 0.0
C190 C 0.32066 0.76666 0.72415 0.0
H191 H 0.29039 0.74074 0.87409 0.0
H192 H 0.3444 0.79723 0.81221 0.0
S193 S 0.24699 0.67447 0.62901 0.0
N194 N 0.22966 0.66133 0.70077 0.0
N195 N 0.28686 0.72346 0.63367 0.0
C196 C 0.28695 0.73178 0.69567 0.0
C197 C 0.25586 0.6981 0.73195 0.0
C198 C 0.76629 0.69575 0.23434 0.0
C199 C 0.766 0.70044 0.2989 0.0
C200 C 0.73527 0.72738 0.19739 0.0
C201 C 0.70227 0.76427 0.22387 0.0
H202 H 0.78523 0.66344 0.21282 0.0
H203 H 0.73211 0.71837 0.14865 0.0
S204 S 0.69505 0.79839 0.38956 0.0
N205 N 0.73657 0.75031 0.38689 0.0
N206 N 0.67732 0.8091 0.31738 0.0
C207 C 0.70643 0.7736 0.28743 0.0
C208 C 0.73849 0.74168 0.32503 0.0
C209 C 0.73946 0.29339 0.82005 0.0
C210 C 0.76838 0.33013 0.78731 0.0
C211 C 0.70542 0.26023 0.78925 0.0
C212 C 0.70023 0.26162 0.72464 0.0
H213 H 0.73834 0.2945 0.8701 0.0
H214 H 0.67934 0.23742 0.81662 0.0
S215 S 0.77383 0.34479 0.61736 0.0
N216 N 0.79389 0.36185 0.68668 0.0
N217 N 0.73218 0.29808 0.62875 0.0
C218 C 0.73348 0.29401 0.69129 0.0
C219 C 0.76703 0.3286 0.72261 0.0
C220 C 0.44591 0.20045 0.82637 0.0
C221 C 0.49411 0.1994 0.79801 0.0
C222 C 0.44095 0.18931 0.88948 0.0
C223 C 0.48404 0.17672 0.92664 0.0
H224 H 0.41247 0.21311 0.80077 0.0
H225 H 0.40319 0.19358 0.9099 0.0
S226 S 0.61646 0.1563 0.86928 0.0
N227 N 0.58415 0.17588 0.80795 0.0
N228 N 0.57475 0.15511 0.92677 0.0
C229 C 0.53148 0.17041 0.89697 0.0
C230 C 0.53654 0.18192 0.83266 0.0
C231 C 0.24226 0.543 0.11443 0.0
C232 C 0.19433 0.52902 0.08988 0.0
C233 C 0.25178 0.5419 0.17786 0.0
C234 C 0.21318 0.52829 0.21993 0.0
H235 H 0.27275 0.55577 0.08408 0.0
H236 H 0.28961 0.55252 0.19406 0.0
S237 S 0.07984 0.49113 0.17982 0.0
N238 N 0.10725 0.50245 0.11227 0.0
N239 N 0.12438 0.50119 0.23272 0.0
C240 C 0.16455 0.51489 0.19629 0.0
C241 C 0.15526 0.51502 0.13098 0.0
C242 C 0.47816 0.80746 0.92575 0.0
C243 C 0.51624 0.84128 0.94616 0.0
C244 C 0.47735 0.79033 0.86427 0.0
C245 C 0.51471 0.80626 0.82086 0.0
H246 H 0.45149 0.79078 0.95854 0.0
H247 H 0.44806 0.76296 0.85141 0.0
S248 S 0.61831 0.90049 0.8504 0.0
N249 N 0.5891 0.89403 0.91771 0.0
N250 N 0.58726 0.86282 0.80202 0.0
C251 C 0.55069 0.84308 0.83998 0.0
C252 C 0.55142 0.8604 0.90254 0.0
C253 C 0.76957 0.46275 0.17935 0.0
C254 C 0.78979 0.50171 0.21648 0.0
C255 C 0.77902 0.46233 0.11551 0.0
C256 C 0.80828 0.5012 0.08714 0.0
H257 H 0.74522 0.43348 0.19937 0.0
H258 H 0.76229 0.43206 0.08804 0.0
S259 S 0.87535 0.60723 0.16607 0.0
N260 N 0.84455 0.57687 0.22196 0.0
N261 N 0.86114 0.57656 0.10158 0.0
C262 C 0.83001 0.53925 0.12416 0.0
C263 C 0.82102 0.53934 0.18908 0.0
C264 C 0.58185 0.21127 0.32826 0.0
C265 C 0.53619 0.20031 0.29751 0.0
C266 C 0.58667 0.2013 0.39156 0.0
C267 C 0.54588 0.18008 0.42682 0.0
H268 H 0.61288 0.23041 0.3042 0.0
H269 H 0.62212 0.21301 0.41337 0.0
S270 S 0.42279 0.13375 0.36299 0.0
N271 N 0.45243 0.15983 0.3032 0.0
N272 N 0.46156 0.14091 0.42264 0.0
C273 C 0.50164 0.16496 0.39499 0.0
C274 C 0.49675 0.17525 0.33029 0.0
C275 C 0.26032 0.52058 0.61421 0.0
C276 C 0.21641 0.4953 0.59282 0.0
C277 C 0.27357 0.51954 0.67665 0.0
C278 C 0.24316 0.4937 0.7208 0.0
H279 H 0.28505 0.54111 0.58241 0.0
H280 H 0.30741 0.54057 0.6906 0.0
S281 S 0.12446 0.42065 0.68831 0.0
N282 N 0.14305 0.44216 0.62005 0.0
N283 N 0.16748 0.44141 0.73824 0.0
C284 C 0.19977 0.46711 0.69989 0.0
C285 C 0.18643 0.46776 0.6358 0.0
C286 C 0.48224 0.84282 0.34009 0.0
C287 C 0.5102 0.79926 0.32099 0.0
C288 C 0.48224 0.85862 0.40217 0.0
C289 C 0.51113 0.8323 0.44714 0.0
H290 H 0.45945 0.86436 0.30718 0.0
H291 H 0.45735 0.89007 0.41577 0.0
S292 S 0.58998 0.71554 0.42236 0.0
N293 N 0.56733 0.7298 0.35329 0.0
N294 N 0.56777 0.76064 0.4688 0.0
C295 C 0.54059 0.78999 0.42843 0.0
C296 C 0.53994 0.77315 0.36574 0.0
C297 C 0.78648 0.49307 0.67182 0.0
C298 C 0.81455 0.52353 0.71362 0.0
C299 C 0.79941 0.49079 0.60891 0.0
C300 C 0.8406 0.51926 0.58517 0.0
H301 H 0.7535 0.47143 0.68749 0.0
H302 H 0.77464 0.46962 0.57794 0.0
S303 S 0.92864 0.60213 0.67458 0.0
N304 N 0.88805 0.57982 0.72672 0.0
N305 N 0.91086 0.57695 0.60797 0.0
C306 C 0.8703 0.54811 0.62652 0.0
C307 C 0.85772 0.54985 0.69083 0.0
C308 C 0.36353 0.38946 0.92959 0.0
C309 C 0.34234 0.43059 0.96314 0.0
C310 C 0.38808 0.34872 0.96042 0.0
C311 C 0.39261 0.34904 0.02509 0.0
H312 H 0.35894 0.38762 0.8799 0.0
H313 H 0.40305 0.31674 0.93386 0.0
S314 S 0.34554 0.44875 0.13288 0.0
N315 N 0.32803 0.46916 0.06377 0.0
N316 N 0.3764 0.3942 0.12111 0.0
C317 C 0.37336 0.39078 0.05853 0.0
C318 C 0.34756 0.43126 0.0276 0.0
C319 C 0.3323 0.69813 0.03394 0.0
C320 C 0.33764 0.64547 0.02214 0.0
C321 C 0.36949 0.72457 0.06776 0.0
C322 C 0.41323 0.69932 0.09157 0.0
H323 H 0.30072 0.71973 0.01419 0.0
H324 H 0.36486 0.76567 0.0731 0.0
S325 S 0.44137 0.56007 0.08109 0.0
N326 N 0.38719 0.56773 0.04271 0.0
N327 N 0.45692 0.61771 0.10631 0.0
C328 C 0.41705 0.64599 0.08415 0.0
C329 C 0.37933 0.61903 0.04934 0.0
C330 C 0.61821 0.62616 0.01365 0.0
C331 C 0.6323 0.67834 1.01065 0.0
C332 C 0.64255 0.58907 0.97674 0.0
C333 C 0.6818 0.60265 0.9353 0.0
H334 H 0.58953 0.61336 0.04647 0.0
H335 H 0.63211 0.54927 0.98284 0.0
S336 S 0.72647 0.73519 0.90187 0.0
N337 N 0.68343 0.7424 0.95726 0.0
N338 N 0.72902 0.67298 0.8878 0.0
C339 C 0.69372 0.65517 0.92882 0.0
C340 C 0.66907 0.69288 0.96652 0.0
C341 C 0.69468 0.32241 0.01732 0.0
C342 C 0.68562 0.37351 0.99964 0.0
C343 C 0.65748 0.29461 0.0502 0.0
C344 C 0.6107 0.31746 0.06833 0.0
H345 H 0.7297 0.30312 1.00323 0.0
H346 H 0.66494 0.25456 0.06049 0.0
S347 S 0.57029 0.45145 0.03718 0.0
N348 N 0.62749 0.44651 1.00455 0.0
N349 N 0.55855 0.39486 0.06858 0.0
C350 C 0.60234 0.36926 0.05356 0.0
C351 C 0.63956 0.39711 0.01855 0.0
C352 C 0.6824 0.3341 0.48827 0.0
C353 C 0.63478 0.34443 0.51641 0.0
C354 C 0.70826 0.37192 0.45494 0.0
C355 C 0.68705 0.42114 0.44723 0.0
H356 H 0.70106 0.29719 0.49405 0.0
H357 H 0.74608 0.36308 0.43682 0.0
S358 S 0.56134 0.46682 0.50486 0.0
N359 N 0.56552 0.40696 0.52959 0.0
N360 N 0.61459 0.4776 0.46565 0.0
C361 C 0.63813 0.43121 0.47107 0.0
C362 C 0.61184 0.39292 0.50598 0.0
C363 C 0.3723 0.29183 0.5474 0.0
C364 C 0.4149 0.3174 0.57298 0.0
C365 C 0.33375 0.31872 0.51588 0.0
C366 C 0.33741 0.37178 0.5067 0.0
H367 H 0.36927 0.25044 0.55057 0.0
H368 H 0.30202 0.29758 0.49641 0.0
S369 S 0.43559 0.45804 0.57291 0.0
N370 N 0.45416 0.39997 0.59438 0.0
N371 N 0.38269 0.45011 0.53211 0.0
C372 C 0.37786 0.39831 0.53498 0.0
C373 C 0.41639 0.37117 0.56892 0.0
C374 C 0.4068 0.62469 0.5176 0.0
C375 C 0.39077 0.67649 0.51704 0.0
C376 C 0.38203 0.58751 0.48155 0.0
C377 C 0.34025 0.60059 0.4436 0.0
H378 H 0.43768 0.61226 0.5476 0.0
H379 H 0.39456 0.54801 0.48524 0.0
S380 S 0.28831 0.73208 0.41828 0.0
N381 N 0.33408 0.73967 0.46997 0.0
N382 N 0.28765 0.67016 0.40249 0.0
C383 C 0.3259 0.65277 0.4398 0.0
C384 C 0.35106 0.69055 0.47645 0.0
C385 C 0.63733 0.61764 0.53986 0.0
C386 C 0.68445 0.64081 0.52364 0.0
C387 C 0.60086 0.64348 0.57629 0.0
C388 C 0.61023 0.69339 0.59756 0.0
H389 H 0.62746 0.58013 0.52211 0.0
H390 H 0.56388 0.62571 0.58415 0.0
S391 S 0.72996 0.76817 0.57683 0.0
N392 N 0.7404 0.71438 0.53856 0.0
N393 N 0.67183 0.76277 0.60643 0.0
C394 C 0.6585 0.71539 0.58576 0.0
C395 C 0.69565 0.68915 0.54901 0.0
C396 C 0.4864 0.03034 0.19021 0.0
C397 C 0.4764 0.05432 0.1332 0.0
C398 C 0.51472 0.98441 0.19374 0.0
C399 C 0.536 0.96118 0.14064 0.0
H400 H 0.47406 0.04851 0.23279 0.0
H401 H 0.52006 0.96678 0.23866 0.0
S402 S 0.52145 1.00877 0.97992 0.0
N403 N 0.4899 0.05121 0.02225 0.0
N404 N 0.5439 0.9655 0.02886 0.0
C405 C 0.52624 0.98469 0.08325 0.0
C406 C 0.49623 0.03088 0.07957 0.0
C407 C 1.00041 0.46186 0.8815 0.0
C408 C 0.96054 0.498 0.87877 0.0
C409 C 0.05211 0.47764 0.88004 0.0
C410 C 0.06618 0.53021 0.8765 0.0
H411 H 0.99179 0.42158 0.88796 0.0
H412 H 0.08139 0.44826 0.88458 0.0
S413 S 0.97639 0.63931 0.85826 0.0
N414 N 0.93895 0.58855 0.86399 0.0
N415 N 0.03572 0.61734 0.86369 0.0
C416 C 0.02678 0.56629 0.87037 0.0
C417 C 0.97424 0.55037 0.87064 0.0
C418 C 0.51223 0.98344 0.6932 0.0
C419 C 0.4912 0.96031 0.64004 0.0
C420 C 0.54024 0.02942 0.68985 0.0
C421 C 0.55031 0.05357 0.63295 0.0
H422 H 0.50698 0.96565 0.73805 0.0
H423 H 0.55239 0.04741 0.7325 0.0
S424 S 0.50603 1.00826 0.47952 0.0
N425 N 0.48382 0.96481 0.52829 0.0
N426 N 0.53697 0.05072 0.522 0.0
C427 C 0.53065 0.03026 0.57926 0.0
C428 C 0.50101 0.98398 0.58276 0.0
C429 C 0.99171 0.55397 0.42079 0.0
C430 C 0.95838 0.53161 0.37807 0.0
C431 C 0.04133 0.53486 0.42947 0.0
C432 C 0.06101 0.49264 0.3954 0.0
H433 H 0.97899 0.58561 0.44951 0.0
H434 H 0.06464 0.554 0.46379 0.0
S435 S 0.98946 0.41961 0.27728 0.0
N436 N 0.94848 0.46411 0.30065 0.0
N437 N 0.0426 0.42885 0.31724 0.0
C438 C 0.02832 0.46962 0.35239 0.0
C439 C 0.97714 0.4891 0.34342 0.0
loop_
_geom_bond_atom_site_label_1
_geom_bond_atom_site_label_2
_geom_bond_distance
_geom_bond_site_symmetry_2
_ccdc_geom_bond_type
Fe0 O2 1.918 . S
Fe0 O5 1.997 . S
Fe0 O6 2.002 1_554 S
Fe0 O11 1.976 . S
Fe0 O14 1.996 . S
Fe1 O2 1.918 . S
Fe1 O9 1.997 1_554 S
Fe1 O12 1.996 . S
Fe1 O16 1.976 . S
Fe1 O19 2.002 . S
O2 Fe0 1.918 . S
O2 Fe1 1.918 . S
O2 Fe3 1.918 . S
Fe3 O2 1.918 . S
Fe3 O4 2.002 . S
Fe3 O13 1.976 . S
Fe3 O17 1.996 . S
Fe3 O20 1.997 . S
O4 Fe3 2.002 . S
O4 C21 1.295 . S
O5 Fe0 1.997 . S
O5 C21 1.235 . S
O6 Fe0 2.002 1_556 S
O6 C7 1.295 . S
C7 O6 1.295 . S
C7 O9 1.235 . S
C8 O13 1.287 . S
C8 O14 1.255 . S
O9 Fe1 1.997 1_556 S
O9 C7 1.235 . S
C10 O16 1.287 . S
C10 O17 1.255 . S
O11 Fe0 1.976 . S
O11 C18 1.287 . S
O12 Fe1 1.996 . S
O12 C18 1.255 . S
O13 Fe3 1.976 . S
O13 C8 1.287 . S
O14 Fe0 1.996 . S
O14 C8 1.255 . S
C15 O19 1.295 . S
C15 O20 1.235 . S
O16 Fe1 1.976 . S
O16 C10 1.287 . S
O17 Fe3 1.996 . S
O17 C10 1.255 . S
C18 O11 1.287 . S
C18 O12 1.255 . S
O19 Fe1 2.002 . S
O19 C15 1.295 . S
O20 Fe3 1.997 . S
O20 C15 1.235 . S
C21 O4 1.295 . S
C21 O5 1.235 . S
Fe22 O24 1.918 . S
Fe22 O27 1.997 . S
Fe22 O28 2.002 1_556 S
Fe22 O33 1.976 . S
Fe22 O36 1.996 . S
Fe23 O24 1.918 . S
Fe23 O31 1.997 1_556 S
Fe23 O34 1.996 . S
Fe23 O38 1.976 . S
Fe23 O41 2.002 . S
O24 Fe22 1.918 . S
O24 Fe23 1.918 . S
O24 Fe25 1.918 . S
Fe25 O24 1.918 . S
Fe25 O26 2.002 . S
Fe25 O35 1.976 . S
Fe25 O39 1.996 . S
Fe25 O42 1.997 . S
O26 Fe25 2.002 . S
O26 C43 1.295 . S
O27 Fe22 1.997 . S
O27 C43 1.235 . S
O28 Fe22 2.002 1_554 S
O28 C29 1.295 . S
C29 O28 1.295 . S
C29 O31 1.235 . S
C30 O35 1.287 . S
C30 O36 1.255 . S
O31 Fe23 1.997 1_554 S
O31 C29 1.235 . S
C32 O38 1.287 . S
C32 O39 1.255 . S
O33 Fe22 1.976 . S
O33 C40 1.287 . S
O34 Fe23 1.996 . S
O34 C40 1.255 . S
O35 Fe25 1.976 . S
O35 C30 1.287 . S
O36 Fe22 1.996 . S
O36 C30 1.255 . S
C37 O41 1.295 . S
C37 O42 1.235 . S
O38 Fe23 1.976 . S
O38 C32 1.287 . S
O39 Fe25 1.996 . S
O39 C32 1.255 . S
C40 O33 1.287 . S
C40 O34 1.255 . S
O41 Fe23 2.002 . S
O41 C37 1.295 . S
O42 Fe25 1.997 . S
O42 C37 1.235 . S
C43 O26 1.295 . S
C43 O27 1.235 . S
Fe44 O46 1.918 . S
Fe44 O49 1.997 1_554 S
Fe44 O50 2.002 . S
Fe44 O55 1.976 . S
Fe44 O58 1.996 . S
Fe45 O46 1.918 . S
Fe45 O53 1.997 . S
Fe45 O56 1.996 . S
Fe45 O60 1.976 . S
Fe45 O63 2.002 . S
O46 Fe44 1.918 . S
O46 Fe45 1.918 . S
O46 Fe47 1.918 . S
Fe47 O46 1.918 . S
Fe47 O48 2.002 1_554 S
Fe47 O57 1.976 . S
Fe47 O61 1.996 . S
Fe47 O64 1.997 . S
O48 Fe47 2.002 1_556 S
O48 C65 1.295 . S
O49 Fe44 1.997 1_556 S
O49 C65 1.235 . S
O50 Fe44 2.002 . S
O50 C51 1.295 . S
C51 O50 1.295 . S
C51 O53 1.235 . S
C52 O57 1.287 . S
C52 O58 1.255 . S
O53 Fe45 1.997 . S
O53 C51 1.235 . S
C54 O60 1.287 . S
C54 O61 1.255 . S
O55 Fe44 1.976 . S
O55 C62 1.287 . S
O56 Fe45 1.996 . S
O56 C62 1.255 . S
O57 Fe47 1.976 . S
O57 C52 1.287 . S
O58 Fe44 1.996 . S
O58 C52 1.255 . S
C59 O63 1.295 . S
C59 O64 1.235 . S
O60 Fe45 1.976 . S
O60 C54 1.287 . S
O61 Fe47 1.996 . S
O61 C54 1.255 . S
C62 O55 1.287 . S
C62 O56 1.255 . S
O63 Fe45 2.002 . S
O63 C59 1.295 . S
O64 Fe47 1.997 . S
O64 C59 1.235 . S
C65 O48 1.295 . S
C65 O49 1.235 . S
Fe66 O68 1.918 . S
Fe66 O71 1.997 1_556 S
Fe66 O72 2.002 . S
Fe66 O77 1.976 . S
Fe66 O80 1.996 . S
Fe67 O68 1.918 . S
Fe67 O75 1.997 . S
Fe67 O78 1.996 . S
Fe67 O82 1.976 . S
Fe67 O85 2.002 . S
O68 Fe66 1.918 . S
O68 Fe67 1.918 . S
O68 Fe69 1.918 . S
Fe69 O68 1.918 . S
Fe69 O70 2.002 1_556 S
Fe69 O79 1.976 . S
Fe69 O83 1.996 . S
Fe69 O86 1.997 . S
O70 Fe69 2.002 1_554 S
O70 C87 1.295 . S
O71 Fe66 1.997 1_554 S
O71 C87 1.235 . S
O72 Fe66 2.002 . S
O72 C73 1.295 . S
C73 O72 1.295 . S
C73 O75 1.235 . S
C74 O79 1.287 . S
C74 O80 1.255 . S
O75 Fe67 1.997 . S
O75 C73 1.235 . S
C76 O82 1.287 . S
C76 O83 1.255 . S
O77 Fe66 1.976 . S
O77 C84 1.287 . S
O78 Fe67 1.996 . S
O78 C84 1.255 . S
O79 Fe69 1.976 . S
O79 C74 1.287 . S
O80 Fe66 1.996 . S
O80 C74 1.255 . S
C81 O85 1.295 . S
C81 O86 1.235 . S
O82 Fe67 1.976 . S
O82 C76 1.287 . S
O83 Fe69 1.996 . S
O83 C76 1.255 . S
C84 O77 1.287 . S
C84 O78 1.255 . S
O85 Fe67 2.002 . S
O85 C81 1.295 . S
O86 Fe69 1.997 . S
O86 C81 1.235 . S
C87 O70 1.295 . S
C87 O71 1.235 . S
Fe88 O90 1.918 . S
Fe88 O93 1.997 . S
Fe88 O94 2.002 . S
Fe88 O99 1.976 . S
Fe88 O102 1.996 . S
Fe89 O90 1.918 . S
Fe89 O97 1.997 . S
Fe89 O100 1.996 . S
Fe89 O104 1.976 . S
Fe89 O107 2.002 . S
O90 Fe88 1.918 . S
O90 Fe89 1.918 . S
O90 Fe91 1.918 . S
Fe91 O90 1.918 . S
Fe91 O92 2.002 . S
Fe91 O101 1.976 . S
Fe91 O105 1.996 . S
Fe91 O108 1.997 . S
O92 Fe91 2.002 . S
O92 C109 1.295 . S
O93 Fe88 1.997 . S
O93 C109 1.235 . S
O94 Fe88 2.002 . S
O94 C95 1.295 . S
C95 O94 1.295 . S
C95 O97 1.235 . S
C96 O101 1.287 . S
C96 O102 1.255 . S
O97 Fe89 1.997 . S
O97 C95 1.235 . S
C98 O104 1.287 . S
C98 O105 1.255 . S
O99 Fe88 1.976 . S
O99 C106 1.287 . S
O100 Fe89 1.996 . S
O100 C106 1.255 . S
O101 Fe91 1.976 . S
O101 C96 1.287 . S
O102 Fe88 1.996 . S
O102 C96 1.255 . S
C103 O107 1.295 . S
C103 O108 1.235 . S
O104 Fe89 1.976 . S
O104 C98 1.287 . S
O105 Fe91 1.996 . S
O105 C98 1.255 . S
C106 O99 1.287 . S
C106 O100 1.255 . S
O107 Fe89 2.002 . S
O107 C103 1.295 . S
O108 Fe91 1.997 . S
O108 C103 1.235 . S
C109 O92 1.295 . S
C109 O93 1.235 . S
Fe110 O112 1.918 . S
Fe110 O115 1.997 . S
Fe110 O116 2.002 . S
Fe110 O121 1.976 . S
Fe110 O124 1.996 . S
Fe111 O112 1.918 . S
Fe111 O119 1.997 . S
Fe111 O122 1.996 . S
Fe111 O126 1.976 . S
Fe111 O129 2.002 . S
O112 Fe110 1.918 . S
O112 Fe111 1.918 . S
O112 Fe113 1.918 . S
Fe113 O112 1.918 . S
Fe113 O114 2.002 . S
Fe113 O123 1.976 . S
Fe113 O127 1.996 . S
Fe113 O130 1.997 . S
O114 Fe113 2.002 . S
O114 C131 1.295 . S
O115 Fe110 1.997 . S
O115 C131 1.235 . S
O116 Fe110 2.002 . S
O116 C117 1.295 . S
C117 O116 1.295 . S
C117 O119 1.235 . S
C118 O123 1.287 . S
C118 O124 1.255 . S
O119 Fe111 1.997 . S
O119 C117 1.235 . S
C120 O126 1.287 . S
C120 O127 1.255 . S
O121 Fe110 1.976 . S
O121 C128 1.287 . S
O122 Fe111 1.996 . S
O122 C128 1.255 . S
O123 Fe113 1.976 . S
O123 C118 1.287 . S
O124 Fe110 1.996 . S
O124 C118 1.255 . S
C125 O129 1.295 . S
C125 O130 1.235 . S
O126 Fe111 1.976 . S
O126 C120 1.287 . S
O127 Fe113 1.996 . S
O127 C120 1.255 . S
C128 O121 1.287 . S
C128 O122 1.255 . S
O129 Fe111 2.002 . S
O129 C125 1.295 . S
O130 Fe113 1.997 . S
O130 C125 1.235 . S
C131 O114 1.295 . S
C131 O115 1.235 . S
Fe132 O134 1.918 . S
Fe132 O137 1.997 . S
Fe132 O138 2.002 . S
Fe132 O143 1.976 . S
Fe132 O146 1.996 . S
Fe133 O134 1.918 . S
Fe133 O141 1.997 . S
Fe133 O144 1.996 . S
Fe133 O148 1.976 . S
Fe133 O151 2.002 . S
O134 Fe132 1.918 . S
O134 Fe133 1.918 . S
O134 Fe135 1.918 . S
Fe135 O134 1.918 . S
Fe135 O136 2.002 . S
Fe135 O145 1.976 . S
Fe135 O149 1.996 . S
Fe135 O152 1.997 . S
O136 Fe135 2.002 . S
O136 C153 1.295 . S
O137 Fe132 1.997 . S
O137 C153 1.235 . S
O138 Fe132 2.002 . S
O138 C139 1.295 . S
C139 O138 1.295 . S
C139 O141 1.235 . S
C140 O145 1.287 . S
C140 O146 1.255 . S
O141 Fe133 1.997 . S
O141 C139 1.235 . S
C142 O148 1.287 . S
C142 O149 1.255 . S
O143 Fe132 1.976 . S
O143 C150 1.287 . S
O144 Fe133 1.996 . S
O144 C150 1.255 . S
O145 Fe135 1.976 . S
O145 C140 1.287 . S
O146 Fe132 1.996 . S
O146 C140 1.255 . S
C147 O151 1.295 . S
C147 O152 1.235 . S
O148 Fe133 1.976 . S
O148 C142 1.287 . S
O149 Fe135 1.996 . S
O149 C142 1.255 . S
C150 O143 1.287 . S
C150 O144 1.255 . S
O151 Fe133 2.002 . S
O151 C147 1.295 . S
O152 Fe135 1.997 . S
O152 C147 1.235 . S
C153 O136 1.295 . S
C153 O137 1.235 . S
Fe154 O156 1.918 . S
Fe154 O159 1.997 . S
Fe154 O160 2.002 . S
Fe154 O165 1.976 . S
Fe154 O168 1.996 . S
Fe155 O156 1.918 . S
Fe155 O163 1.997 . S
Fe155 O166 1.996 . S
Fe155 O170 1.976 . S
Fe155 O173 2.002 . S
O156 Fe154 1.918 . S
O156 Fe155 1.918 . S
O156 Fe157 1.918 . S
Fe157 O156 1.918 . S
Fe157 O158 2.002 . S
Fe157 O167 1.976 . S
Fe157 O171 1.996 . S
Fe157 O174 1.997 . S
O158 Fe157 2.002 . S
O158 C175 1.295 . S
O159 Fe154 1.997 . S
O159 C175 1.235 . S
O160 Fe154 2.002 . S
O160 C161 1.295 . S
C161 O160 1.295 . S
C161 O163 1.235 . S
C162 O167 1.287 . S
C162 O168 1.255 . S
O163 Fe155 1.997 . S
O163 C161 1.235 . S
C164 O170 1.287 . S
C164 O171 1.255 . S
O165 Fe154 1.976 . S
O165 C172 1.287 . S
O166 Fe155 1.996 . S
O166 C172 1.255 . S
O167 Fe157 1.976 . S
O167 C162 1.287 . S
O168 Fe154 1.996 . S
O168 C162 1.255 . S
C169 O173 1.295 . S
C169 O174 1.235 . S
O170 Fe155 1.976 . S
O170 C164 1.287 . S
O171 Fe157 1.996 . S
O171 C164 1.255 . S
C172 O165 1.287 . S
C172 O166 1.255 . S
O173 Fe155 2.002 . S
O173 C169 1.295 . S
O174 Fe157 1.997 . S
O174 C169 1.235 . S
C175 O158 1.295 . S
C175 O159 1.235 . S
C176 C177 1.369 . S
C176 C178 1.419 . S
C176 H180 0.930 . S
C177 C176 1.369 . S
C177 C186 1.429 . S
C178 C176 1.419 . S
C178 C179 1.363 . S
C178 H181 0.929 . S
C179 C178 1.363 . S
C179 C185 1.428 . S
H180 C176 0.930 . S
H181 C178 0.929 . S
S182 N183 1.613 . S
S182 N184 1.610 . S
N183 S182 1.613 . S
N183 C186 1.350 . S
N184 S182 1.610 . S
N184 C185 1.351 . S
C185 C179 1.428 . S
C185 N184 1.351 . S
C185 C186 1.434 . S
C186 C177 1.429 . S
C186 N183 1.350 . S
C186 C185 1.434 . S
C187 C188 1.369 . S
C187 C189 1.419 . S
C187 H191 0.930 . S
C188 C187 1.369 . S
C188 C197 1.429 . S
C189 C187 1.419 . S
C189 C190 1.363 . S
C189 H192 0.929 . S
C190 C189 1.363 . S
C190 C196 1.428 . S
H191 C187 0.930 . S
H192 C189 0.929 . S
S193 N194 1.613 . S
S193 N195 1.610 . S
N194 S193 1.613 . S
N194 C197 1.350 . S
N195 S193 1.610 . S
N195 C196 1.351 . S
C196 C190 1.428 . S
C196 N195 1.351 . S
C196 C197 1.434 . S
C197 C188 1.429 . S
C197 N194 1.350 . S
C197 C196 1.434 . S
C198 C199 1.369 . S
C198 C200 1.419 . S
C198 H202 0.930 . S
C199 C198 1.369 . S
C199 C208 1.429 . S
C200 C198 1.419 . S
C200 C201 1.363 . S
C200 H203 0.929 . S
C201 C200 1.363 . S
C201 C207 1.428 . S
H202 C198 0.930 . S
H203 C200 0.929 . S
S204 N205 1.613 . S
S204 N206 1.610 . S
N205 S204 1.613 . S
N205 C208 1.350 . S
N206 S204 1.610 . S
N206 C207 1.351 . S
C207 C201 1.428 . S
C207 N206 1.351 . S
C207 C208 1.434 . S
C208 C199 1.429 . S
C208 N205 1.350 . S
C208 C207 1.434 . S
C209 C210 1.369 . S
C209 C211 1.419 . S
C209 H213 0.930 . S
C210 C209 1.369 . S
C210 C219 1.429 . S
C211 C209 1.419 . S
C211 C212 1.363 . S
C211 H214 0.929 . S
C212 C211 1.363 . S
C212 C218 1.428 . S
H213 C209 0.930 . S
H214 C211 0.929 . S
S215 N216 1.613 . S
S215 N217 1.610 . S
N216 S215 1.613 . S
N216 C219 1.350 . S
N217 S215 1.610 . S
N217 C218 1.351 . S
C218 C212 1.428 . S
C218 N217 1.351 . S
C218 C219 1.434 . S
C219 C210 1.429 . S
C219 N216 1.350 . S
C219 C218 1.434 . S
C220 C221 1.369 . S
C220 C222 1.419 . S
C220 H224 0.930 . S
C221 C220 1.369 . S
C221 C230 1.429 . S
C222 C220 1.419 . S
C222 C223 1.363 . S
C222 H225 0.929 . S
C223 C222 1.363 . S
C223 C229 1.428 . S
H224 C220 0.930 . S
H225 C222 0.929 . S
S226 N227 1.613 . S
S226 N228 1.610 . S
N227 S226 1.613 . S
N227 C230 1.350 . S
N228 S226 1.610 . S
N228 C229 1.351 . S
C229 C223 1.428 . S
C229 N228 1.351 . S
C229 C230 1.434 . S
C230 C221 1.429 . S
C230 N227 1.350 . S
C230 C229 1.434 . S
C231 C232 1.369 . S
C231 C233 1.419 . S
C231 H235 0.930 . S
C232 C231 1.369 . S
C232 C241 1.429 . S
C233 C231 1.419 . S
C233 C234 1.363 . S
C233 H236 0.929 . S
C234 C233 1.363 . S
C234 C240 1.428 . S
H235 C231 0.930 . S
H236 C233 0.929 . S
S237 N238 1.613 . S
S237 N239 1.610 . S
N238 S237 1.613 . S
N238 C241 1.350 . S
N239 S237 1.610 . S
N239 C240 1.351 . S
C240 C234 1.428 . S
C240 N239 1.351 . S
C240 C241 1.434 . S
C241 C232 1.429 . S
C241 N238 1.350 . S
C241 C240 1.434 . S
C242 C243 1.369 . S
C242 C244 1.419 . S
C242 H246 0.930 . S
C243 C242 1.369 . S
C243 C252 1.429 . S
C244 C242 1.419 . S
C244 C245 1.363 . S
C244 H247 0.929 . S
C245 C244 1.363 . S
C245 C251 1.428 . S
H246 C242 0.930 . S
H247 C244 0.929 . S
S248 N249 1.613 . S
S248 N250 1.610 . S
N249 S248 1.613 . S
N249 C252 1.350 . S
N250 S248 1.610 . S
N250 C251 1.351 . S
C251 C245 1.428 . S
C251 N250 1.351 . S
C251 C252 1.434 . S
C252 C243 1.429 . S
C252 N249 1.350 . S
C252 C251 1.434 . S
C253 C254 1.369 . S
C253 C255 1.419 . S
C253 H257 0.930 . S
C254 C253 1.369 . S
C254 C263 1.429 . S
C255 C253 1.419 . S
C255 C256 1.363 . S
C255 H258 0.929 . S
C256 C255 1.363 . S
C256 C262 1.428 . S
H257 C253 0.930 . S
H258 C255 0.929 . S
S259 N260 1.613 . S
S259 N261 1.610 . S
N260 S259 1.613 . S
N260 C263 1.350 . S
N261 S259 1.610 . S
N261 C262 1.351 . S
C262 C256 1.428 . S
C262 N261 1.351 . S
C262 C263 1.434 . S
C263 C254 1.429 . S
C263 N260 1.350 . S
C263 C262 1.434 . S
C264 C265 1.369 . S
C264 C266 1.419 . S
C264 H268 0.930 . S
C265 C264 1.369 . S
C265 C274 1.429 . S
C266 C264 1.419 . S
C266 C267 1.363 . S
C266 H269 0.929 . S
C267 C266 1.363 . S
C267 C273 1.428 . S
H268 C264 0.930 . S
H269 C266 0.929 . S
S270 N271 1.613 . S
S270 N272 1.610 . S
N271 S270 1.613 . S
N271 C274 1.350 . S
N272 S270 1.610 . S
N272 C273 1.351 . S
C273 C267 1.428 . S
C273 N272 1.351 . S
C273 C274 1.434 . S
C274 C265 1.429 . S
C274 N271 1.350 . S
C274 C273 1.434 . S
C275 C276 1.369 . S
C275 C277 1.419 . S
C275 H279 0.930 . S
C276 C275 1.369 . S
C276 C285 1.429 . S
C277 C275 1.419 . S
C277 C278 1.363 . S
C277 H280 0.929 . S
C278 C277 1.363 . S
C278 C284 1.428 . S
H279 C275 0.930 . S
H280 C277 0.929 . S
S281 N282 1.613 . S
S281 N283 1.610 . S
N282 S281 1.613 . S
N282 C285 1.350 . S
N283 S281 1.610 . S
N283 C284 1.351 . S
C284 C278 1.428 . S
C284 N283 1.351 . S
C284 C285 1.434 . S
C285 C276 1.429 . S
C285 N282 1.350 . S
C285 C284 1.434 . S
C286 C287 1.369 . S
C286 C288 1.419 . S
C286 H290 0.930 . S
C287 C286 1.369 . S
C287 C296 1.429 . S
C288 C286 1.419 . S
C288 C289 1.363 . S
C288 H291 0.929 . S
C289 C288 1.363 . S
C289 C295 1.428 . S
H290 C286 0.930 . S
H291 C288 0.929 . S
S292 N293 1.613 . S
S292 N294 1.610 . S
N293 S292 1.613 . S
N293 C296 1.350 . S
N294 S292 1.610 . S
N294 C295 1.351 . S
C295 C289 1.428 . S
C295 N294 1.351 . S
C295 C296 1.434 . S
C296 C287 1.429 . S
C296 N293 1.350 . S
C296 C295 1.434 . S
C297 C298 1.369 . S
C297 C299 1.419 . S
C297 H301 0.930 . S
C298 C297 1.369 . S
C298 C307 1.429 . S
C299 C297 1.419 . S
C299 C300 1.363 . S
C299 H302 0.929 . S
C300 C299 1.363 . S
C300 C306 1.428 . S
H301 C297 0.930 . S
H302 C299 0.929 . S
S303 N304 1.613 . S
S303 N305 1.610 . S
N304 S303 1.613 . S
N304 C307 1.350 . S
N305 S303 1.610 . S
N305 C306 1.351 . S
C306 C300 1.428 . S
C306 N305 1.351 . S
C306 C307 1.434 . S
C307 C298 1.429 . S
C307 N304 1.350 . S
C307 C306 1.434 . S
C308 C309 1.369 . S
C308 C310 1.419 . S
C308 H312 0.930 . S
C309 C308 1.369 . S
C309 C318 1.429 1_556 S
C310 C308 1.419 . S
C310 C311 1.353 1_556 S
C310 H313 0.929 . S
C311 C310 1.353 1_554 S
C311 C317 1.435 . S
H312 C308 0.930 . S
H313 C310 0.929 . S
S314 N315 1.613 . S
S314 N316 1.610 . S
N315 S314 1.613 . S
N315 C318 1.350 . S
N316 S314 1.610 . S
N316 C317 1.351 . S
C317 C311 1.435 . S
C317 N316 1.351 . S
C317 C318 1.434 . S
C318 C309 1.429 1_554 S
C318 N315 1.350 . S
C318 C317 1.434 . S
C319 C320 1.369 1_554 S
C319 C321 1.419 . S
C319 H323 0.930 . S
C320 C319 1.369 1_556 S
C320 C329 1.429 . S
C321 C319 1.419 . S
C321 C322 1.363 . S
C321 H324 0.929 . S
C322 C321 1.363 . S
C322 C328 1.428 1_554 S
H323 C319 0.930 . S
H324 C321 0.929 . S
S325 N326 1.613 . S
S325 N327 1.610 . S
N326 S325 1.613 . S
N326 C329 1.350 . S
N327 S325 1.610 . S
N327 C328 1.351 . S
C328 C322 1.428 1_556 S
C328 N327 1.351 . S
C328 C329 1.434 . S
C329 C320 1.429 . S
C329 N326 1.350 . S
C329 C328 1.434 . S
C330 C331 1.368 1_554 S
C330 C332 1.419 1_554 S
C330 H334 0.930 . S
C331 C330 1.368 1_556 S
C331 C340 1.433 . S
C332 C330 1.419 1_556 S
C332 C333 1.363 . S
C332 H335 0.929 . S
C333 C332 1.363 . S
C333 C339 1.428 . S
H334 C330 0.930 . S
H335 C332 0.929 . S
S336 N337 1.613 . S
S336 N338 1.610 . S
N337 S336 1.613 . S
N337 C340 1.350 . S
N338 S336 1.610 . S
N338 C339 1.351 . S
C339 C333 1.428 . S
C339 N338 1.351 . S
C339 C340 1.434 . S
C340 C331 1.433 . S
C340 N337 1.350 . S
C340 C339 1.434 . S
C341 C342 1.369 1_554 S
C341 C343 1.419 . S
C341 H345 0.930 1_554 S
C342 C341 1.369 1_556 S
C342 C351 1.427 1_556 S
C343 C341 1.419 . S
C343 C344 1.363 . S
C343 H346 0.929 . S
C344 C343 1.363 . S
C344 C350 1.428 . S
H345 C341 0.930 1_556 S
H346 C343 0.929 . S
S347 N348 1.613 . S
S347 N349 1.610 . S
N348 S347 1.613 . S
N348 C351 1.350 . S
N349 S347 1.610 . S
N349 C350 1.351 . S
C350 C344 1.428 . S
C350 N349 1.351 . S
C350 C351 1.434 . S
C351 C342 1.427 1_554 S
C351 N348 1.350 . S
C351 C350 1.434 . S
C352 C353 1.369 . S
C352 C354 1.419 . S
C352 H356 0.930 . S
C353 C352 1.369 . S
C353 C362 1.429 . S
C354 C352 1.419 . S
C354 C355 1.363 . S
C354 H357 0.929 . S
C355 C354 1.363 . S
C355 C361 1.428 . S
H356 C352 0.930 . S
H357 C354 0.929 . S
S358 N359 1.613 . S
S358 N360 1.610 . S
N359 S358 1.613 . S
N359 C362 1.350 . S
N360 S358 1.610 . S
N360 C361 1.351 . S
C361 C355 1.428 . S
C361 N360 1.351 . S
C361 C362 1.434 . S
C362 C353 1.429 . S
C362 N359 1.350 . S
C362 C361 1.434 . S
C363 C364 1.369 . S
C363 C365 1.419 . S
C363 H367 0.930 . S
C364 C363 1.369 . S
C364 C373 1.429 . S
C365 C363 1.419 . S
C365 C366 1.363 . S
C365 H368 0.929 . S
C366 C365 1.363 . S
C366 C372 1.428 . S
H367 C363 0.930 . S
H368 C365 0.929 . S
S369 N370 1.613 . S
S369 N371 1.610 . S
N370 S369 1.613 . S
N370 C373 1.350 . S
N371 S369 1.610 . S
N371 C372 1.351 . S
C372 C366 1.428 . S
C372 N371 1.351 . S
C372 C373 1.434 . S
C373 C364 1.429 . S
C373 N370 1.350 . S
C373 C372 1.434 . S
C374 C375 1.369 . S
C374 C376 1.419 . S
C374 H378 0.930 . S
C375 C374 1.369 . S
C375 C384 1.429 . S
C376 C374 1.419 . S
C376 C377 1.363 . S
C376 H379 0.929 . S
C377 C376 1.363 . S
C377 C383 1.428 . S
H378 C374 0.930 . S
H379 C376 0.929 . S
S380 N381 1.613 . S
S380 N382 1.610 . S
N381 S380 1.613 . S
N381 C384 1.350 . S
N382 S380 1.610 . S
N382 C383 1.351 . S
C383 C377 1.428 . S
C383 N382 1.351 . S
C383 C384 1.434 . S
C384 C375 1.429 . S
C384 N381 1.350 . S
C384 C383 1.434 . S
C385 C386 1.369 . S
C385 C387 1.419 . S
C385 H389 0.930 . S
C386 C385 1.369 . S
C386 C395 1.429 . S
C387 C385 1.419 . S
C387 C388 1.363 . S
C387 H390 0.929 . S
C388 C387 1.363 . S
C388 C394 1.428 . S
H389 C385 0.930 . S
H390 C387 0.929 . S
S391 N392 1.613 . S
S391 N393 1.610 . S
N392 S391 1.613 . S
N392 C395 1.350 . S
N393 S391 1.610 . S
N393 C394 1.351 . S
C394 C388 1.428 . S
C394 N393 1.351 . S
C394 C395 1.434 . S
C395 C386 1.429 . S
C395 N392 1.350 . S
C395 C394 1.434 . S
C396 C397 1.369 . S
C396 C398 1.419 1_545 S
C396 H400 0.930 . S
C397 C396 1.369 . S
C397 C406 1.429 . S
C398 C396 1.419 1_565 S
C398 C399 1.363 . S
C398 H401 0.929 . S
C399 C398 1.363 . S
C399 C405 1.428 . S
H400 C396 0.930 . S
H401 C398 0.929 . S
S402 N403 1.613 1_565 S
S402 N404 1.610 . S
N403 S402 1.613 1_545 S
N403 C406 1.350 1_556 S
N404 S402 1.610 . S
N404 C405 1.351 1_556 S
C405 C399 1.428 . S
C405 N404 1.351 1_554 S
C405 C406 1.434 1_565 S
C406 C397 1.429 . S
C406 N403 1.350 1_554 S
C406 C405 1.434 1_545 S
C407 C408 1.369 1_455 S
C407 C409 1.419 . S
C407 H411 0.930 . S
C408 C407 1.369 1_655 S
C408 C417 1.429 . S
C409 C407 1.419 . S
C409 C410 1.363 . S
C409 H412 0.929 . S
C410 C409 1.363 . S
C410 C416 1.428 1_455 S
H411 C407 0.930 . S
H412 C409 0.929 . S
S413 N414 1.613 . S
S413 N415 1.610 . S
N414 S413 1.613 . S
N414 C417 1.350 . S
N415 S413 1.610 . S
N415 C416 1.351 . S
C416 C410 1.428 1_655 S
C416 N415 1.351 . S
C416 C417 1.434 . S
C417 C408 1.429 . S
C417 N414 1.350 . S
C417 C416 1.434 . S
C418 C419 1.369 1_545 S
C418 C420 1.419 . S
C418 H422 0.930 . S
C419 C418 1.369 1_565 S
C419 C428 1.429 . S
C420 C418 1.419 . S
C420 C421 1.363 . S
C420 H423 0.929 . S
C421 C420 1.363 . S
C421 C427 1.428 1_545 S
H422 C418 0.930 . S
H423 C420 0.929 . S
S424 N425 1.613 . S
S424 N426 1.610 . S
N425 S424 1.613 . S
N425 C428 1.350 . S
N426 S424 1.610 . S
N426 C427 1.351 . S
C427 C421 1.428 1_565 S
C427 N426 1.351 . S
C427 C428 1.434 . S
C428 C419 1.429 . S
C428 N425 1.350 . S
C428 C427 1.434 . S
C429 C430 1.369 1_455 S
C429 C431 1.419 . S
C429 H433 0.930 . S
C430 C429 1.369 1_655 S
C430 C439 1.429 . S
C431 C429 1.419 . S
C431 C432 1.363 . S
C431 H434 0.929 . S
C432 C431 1.363 . S
C432 C438 1.428 1_455 S
H433 C429 0.930 . S
H434 C431 0.929 . S
S435 N436 1.613 . S
S435 N437 1.610 . S
N436 S435 1.613 . S
N436 C439 1.350 . S
N437 S435 1.610 . S
N437 C438 1.351 . S
C438 C432 1.428 1_655 S
C438 N437 1.351 . S
C438 C439 1.434 . S
C439 C430 1.429 . S
C439 N436 1.350 . S
C439 C438 1.434 . S
C177 C128 1.456 . S
C179 C10 1.457 . S
C188 C30 1.497 . S
C190 C140 1.494 . S
C199 C172 1.456 . S
C201 C62 1.458 . S
C210 C76 1.496 . S
C212 C106 1.494 . S
C221 C96 1.379 . S
C223 C7 1.391 . S
C232 C29 1.394 . S
C234 C120 1.390 . S
C243 C65 1.391 . S
C245 C142 1.382 . S
C254 C164 1.386 . S
C256 C87 1.394 . S
C265 C8 1.386 . S
C267 C103 1.394 . S
C276 C131 1.387 . S
C278 C32 1.382 . S
C287 C54 1.390 . S
C289 C139 1.391 . S
C298 C84 1.380 . S
C300 C175 1.391 . S
C309 C37 1.262 . S
C311 C15 1.264 . S
C320 C43 1.255 . S
C322 C59 1.263 . S
C331 C51 1.258 1_556 S
C333 C73 1.259 . S
C342 C81 1.261 . S
C344 C21 1.263 . S
C353 C95 1.253 . S
C355 C169 1.262 . S
C364 C109 1.263 . S
C366 C117 1.261 . S
C375 C153 1.258 . S
C377 C125 1.260 . S
C386 C161 1.264 . S
C388 C147 1.260 . S
C397 C18 1.775 . S
C399 C52 1.770 . S
C408 C74 1.751 . S
C410 C40 1.760 . S
C419 C150 1.750 . S
C421 C98 1.759 . S
C430 C162 1.767 . S
C432 C118 1.777 . S
