# Generated by pormake.
# Topology umb, (4)-cn, num edge types: 1
# Building blocks:
#     Node 0, Type 0, BuildingBlock: KOZSID_clean_sbu_0, # of connection points: 4
#     Node 1, Type 0, BuildingBlock: KOZSID_clean_sbu_0, # of connection points: 4
#     Node 2, Type 0, BuildingBlock: KOZSID_clean_sbu_0, # of connection points: 4
#     Node 3, Type 0, BuildingBlock: KOZSID_clean_sbu_0, # of connection points: 4
#     Node 4, Type 0, BuildingBlock: KOZSID_clean_sbu_0, # of connection points: 4
#     Node 5, Type 0, BuildingBlock: KOZSID_clean_sbu_0, # of connection points: 4
#     Node 6, Type 0, BuildingBlock: KOZSID_clean_sbu_0, # of connection points: 4
#     Node 7, Type 0, BuildingBlock: KOZSID_clean_sbu_0, # of connection points: 4
#     Node 8, Type 0, BuildingBlock: KOZSID_clean_sbu_0, # of connection points: 4
#     Node 9, Type 0, BuildingBlock: KOZSID_clean_sbu_0, # of connection points: 4
#     Node 10, Type 0, BuildingBlock: KOZSID_clean_sbu_0, # of connection points: 4
#     Node 11, Type 0, BuildingBlock: KOZSID_clean_sbu_0, # of connection points: 4
#     Edge 12, Type (0, 0), BuildingBlock: OJICUG_clean_linker_0, # of connection points: 2
#     Edge 13, Type (0, 0), BuildingBlock: OJICUG_clean_linker_0, # of connection points: 2
#     Edge 14, Type (0, 0), BuildingBlock: OJICUG_clean_linker_0, # of connection points: 2
#     Edge 15, Type (0, 0), BuildingBlock: OJICUG_clean_linker_0, # of connection points: 2
#     Edge 16, Type (0, 0), BuildingBlock: OJICUG_clean_linker_0, # of connection points: 2
#     Edge 17, Type (0, 0), BuildingBlock: OJICUG_clean_linker_0, # of connection points: 2
#     Edge 18, Type (0, 0), BuildingBlock: OJICUG_clean_linker_0, # of connection points: 2
#     Edge 19, Type (0, 0), BuildingBlock: OJICUG_clean_linker_0, # of connection points: 2
#     Edge 20, Type (0, 0), BuildingBlock: OJICUG_clean_linker_0, # of connection points: 2
#     Edge 21, Type (0, 0), BuildingBlock: OJICUG_clean_linker_0, # of connection points: 2
#     Edge 22, Type (0, 0), BuildingBlock: OJICUG_clean_linker_0, # of connection points: 2
#     Edge 23, Type (0, 0), BuildingBlock: OJICUG_clean_linker_0, # of connection points: 2
#     Edge 24, Type (0, 0), BuildingBlock: OJICUG_clean_linker_0, # of connection points: 2
#     Edge 25, Type (0, 0), BuildingBlock: OJICUG_clean_linker_0, # of connection points: 2
#     Edge 26, Type (0, 0), BuildingBlock: OJICUG_clean_linker_0, # of connection points: 2
#     Edge 27, Type (0, 0), BuildingBlock: OJICUG_clean_linker_0, # of connection points: 2
#     Edge 28, Type (0, 0), BuildingBlock: OJICUG_clean_linker_0, # of connection points: 2
#     Edge 29, Type (0, 0), BuildingBlock: OJICUG_clean_linker_0, # of connection points: 2
#     Edge 30, Type (0, 0), BuildingBlock: OJICUG_clean_linker_0, # of connection points: 2
#     Edge 31, Type (0, 0), BuildingBlock: OJICUG_clean_linker_0, # of connection points: 2
#     Edge 32, Type (0, 0), BuildingBlock: OJICUG_clean_linker_0, # of connection points: 2
#     Edge 33, Type (0, 0), BuildingBlock: OJICUG_clean_linker_0, # of connection points: 2
#     Edge 34, Type (0, 0), BuildingBlock: OJICUG_clean_linker_0, # of connection points: 2
#     Edge 35, Type (0, 0), BuildingBlock: OJICUG_clean_linker_0, # of connection points: 2
# Relax obj value: 0.223
# Max RMSD: 0.237
# Mean RMSD: 0.236
data_MOF--net-umb--node1-KOZSID_clean_sbu_0--edge1-OJICUG_clean_linker_0
_symmetry_space_group_name_H-M    P1
_symmetry_Int_Tables_number       1
_symmetry_cell_setting            triclinic
loop_
_symmetry_equiv_pos_as_xyz
'x, y, z'
_cell_length_a     48.278689
_cell_length_b     48.479345
_cell_length_c     31.38612
_cell_angle_alpha  89.912605
_cell_angle_beta   89.997283
_cell_angle_gamma 120.0724
loop_
_atom_site_label
_atom_site_type_symbol
_atom_site_fract_x
_atom_site_fract_y
_atom_site_fract_z
_atom_type_partial_charge
C0 C 0.58433 0.21937 0.22303 0.0
C1 C 0.60631 0.22533 0.1909 0.0
C2 C 0.62359 0.21096 0.20319 0.0
C3 C 0.61141 0.19702 0.24221 0.0
N4 N 0.58729 0.20146 0.25445 0.0
Co5 Co 0.56693 0.19132 0.31145 0.0
N6 N 0.60341 0.19073 0.33902 0.0
C7 C 0.62551 0.18678 0.3181 0.0
C8 C 0.64749 0.18613 0.34532 0.0
C9 C 0.63827 0.18949 0.38565 0.0
C10 C 0.61104 0.19203 0.38098 0.0
N11 N 0.54608 0.18253 0.36806 0.0
C12 C 0.55864 0.18563 0.40768 0.0
C13 C 0.53483 0.17598 0.43838 0.0
C14 C 0.50657 0.16633 0.41703 0.0
C15 C 0.51452 0.17052 0.37454 0.0
N16 N 0.53081 0.19228 0.28336 0.0
C17 C 0.50068 0.17874 0.2981 0.0
C18 C 0.48209 0.18697 0.2739 0.0
C19 C 0.50206 0.20735 0.24282 0.0
C20 C 0.53184 0.21055 0.24979 0.0
N21 N 0.5478 0.14417 0.30148 0.0
C22 C 0.53317 0.07934 0.2902 0.0
C23 C 0.53891 0.09372 0.33049 0.0
C24 C 0.5463 0.12547 0.33531 0.0
C25 C 0.5331 0.09811 0.25559 0.0
C26 C 0.54036 0.13024 0.26188 0.0
N27 N 0.5871 0.23718 0.32197 0.0
C28 C 0.58523 0.28447 0.34088 0.0
C29 C 0.61716 0.30352 0.32795 0.0
C30 C 0.63389 0.28873 0.31382 0.0
C31 C 0.6187 0.2558 0.31169 0.0
C32 C 0.57044 0.25112 0.33713 0.0
H33 H 0.63258 0.24549 0.30068 0.0
H34 H 0.54555 0.23667 0.34587 0.0
H35 H 0.55233 0.13507 0.36693 0.0
H36 H 0.54108 0.1441 0.23446 0.0
C37 C 0.62756 0.18904 0.2731 0.0
C38 C 0.56078 0.23074 0.22407 0.0
C39 C 0.5918 0.19345 0.41684 0.0
C40 C 0.49432 0.1681 0.34061 0.0
H41 H 0.61034 0.23951 0.1625 0.0
H42 H 0.6445 0.21311 0.18736 0.0
H43 H 0.66834 0.18446 0.33689 0.0
H44 H 0.6501 0.18981 0.41508 0.0
H45 H 0.53746 0.17526 0.47254 0.0
H46 H 0.48318 0.158 0.43095 0.0
H47 H 0.4578 0.18138 0.28045 0.0
H48 H 0.49581 0.21936 0.21885 0.0
H49 H 0.53828 0.08072 0.35887 0.0
H50 H 0.52862 0.08855 0.2236 0.0
H51 H 0.57183 0.29521 0.35298 0.0
H52 H 0.65893 0.30261 0.30499 0.0
C53 C 0.36951 0.56528 0.56003 0.0
C54 C 0.38449 0.58313 0.52395 0.0
C55 C 0.41663 0.60162 0.53363 0.0
C56 C 0.41986 0.59397 0.57492 0.0
N57 N 0.39176 0.57148 0.59107 0.0
Co58 Co 0.38473 0.55611 0.65057 0.0
N59 N 0.42286 0.59467 0.67229 0.0
C60 C 0.4478 0.61484 0.6479 0.0
C61 C 0.47172 0.63885 0.67149 0.0
C62 C 0.46117 0.633 0.71315 0.0
C63 C 0.43125 0.60564 0.71286 0.0
N64 N 0.3759 0.54019 0.71003 0.0
C65 C 0.38707 0.55583 0.7475 0.0
C66 C 0.37508 0.53462 0.78153 0.0
C67 C 0.35621 0.50485 0.76451 0.0
C68 C 0.35771 0.50944 0.72122 0.0
N69 N 0.34639 0.51779 0.62829 0.0
C70 C 0.33074 0.48951 0.64858 0.0
C71 C 0.30092 0.47024 0.63191 0.0
C72 C 0.29743 0.48756 0.60002 0.0
C73 C 0.32613 0.51636 0.59676 0.0
N74 N 0.41299 0.53691 0.6425 0.0
C75 C 0.46477 0.52419 0.63194 0.0
C76 C 0.45678 0.53149 0.67172 0.0
C77 C 0.43173 0.53803 0.67613 0.0
C78 C 0.44432 0.52129 0.59774 0.0
C79 C 0.41862 0.52751 0.6037 0.0
N80 N 0.35908 0.57666 0.65901 0.0
C81 C 0.31171 0.57711 0.68254 0.0
C82 C 0.32362 0.60772 0.6653 0.0
C83 C 0.35368 0.62252 0.64591 0.0
C84 C 0.37107 0.60693 0.64371 0.0
C85 C 0.32976 0.56174 0.67856 0.0
H86 H 0.39435 0.61954 0.62919 0.0
H87 H 0.32012 0.53792 0.69115 0.0
H88 H 0.42903 0.54575 0.70709 0.0
H89 H 0.40423 0.526 0.57647 0.0
C90 C 0.44546 0.6128 0.60288 0.0
C91 C 0.33434 0.54215 0.56407 0.0
C92 C 0.41244 0.5894 0.75161 0.0
C93 C 0.33832 0.48687 0.69093 0.0
H94 H 0.37331 0.58345 0.49423 0.0
H95 H 0.43488 0.62022 0.51399 0.0
H96 H 0.49383 0.65875 0.6598 0.0
H97 H 0.47412 0.64704 0.74058 0.0
H98 H 0.38012 0.53992 0.81506 0.0
H99 H 0.34239 0.4827 0.78174 0.0
H100 H 0.28209 0.44819 0.64536 0.0
H101 H 0.27481 0.48011 0.58488 0.0
H102 H 0.47025 0.5329 0.69999 0.0
H103 H 0.44871 0.5154 0.56616 0.0
H104 H 0.28881 0.56528 0.69872 0.0
H105 H 0.36425 0.6466 0.63356 0.0
C106 C 0.80997 0.37027 0.88986 0.0
C107 C 0.80392 0.38704 0.85904 0.0
C108 C 0.8184 0.41831 0.87281 0.0
C109 C 0.83252 0.41911 0.91134 0.0
N110 N 0.82805 0.39032 0.92187 0.0
Co111 Co 0.83838 0.37866 0.97771 0.0
N112 N 0.83893 0.41468 0.00773 0.0
C113 C 0.84299 0.44126 0.98841 0.0
C114 C 0.8437 0.463 0.01713 0.0
C115 C 0.84023 0.44924 0.0567 0.0
C116 C 0.8374 0.41962 0.05012 0.0
N117 N 0.84741 0.36515 0.03307 0.0
C118 C 0.84403 0.37312 0.07345 0.0
C119 C 0.85224 0.35688 0.10273 0.0
C120 C 0.86202 0.33919 0.07975 0.0
C121 C 0.85895 0.34514 0.03777 0.0
N122 N 0.83741 0.34257 0.94719 0.0
C123 C 0.85107 0.32576 0.96016 0.0
C124 C 0.84295 0.29982 0.93437 0.0
C125 C 0.82248 0.30018 0.90409 0.0
C126 C 0.81913 0.3263 0.91314 0.0
N127 N 0.88574 0.40724 0.96768 0.0
C128 C 0.95073 0.45831 0.95701 0.0
C129 C 0.93638 0.44847 0.99729 0.0
C130 C 0.90457 0.42367 1.00183 0.0
C131 C 0.93185 0.44023 0.92201 0.0
C132 C 0.89965 0.41493 0.92798 0.0
N133 N 0.79225 0.35256 0.98841 0.0
C134 C 0.74449 0.30336 0.0073 0.0
C135 C 0.7256 0.31684 0.99661 0.0
C136 C 0.74071 0.34852 0.98325 0.0
C137 C 0.77375 0.36593 0.97996 0.0
C138 C 0.778 0.32165 1.00247 0.0
H139 H 0.78422 0.39028 0.96972 0.0
H140 H 0.79232 0.31085 0.00967 0.0
H141 H 0.89498 0.41911 0.03359 0.0
H142 H 0.8857 0.40245 0.90028 0.0
C143 C 0.84067 0.44234 0.9435 0.0
C144 C 0.79868 0.33545 0.88904 0.0
C145 C 0.83637 0.39821 0.0847 0.0
C146 C 0.86146 0.32858 1.00256 0.0
H147 H 0.78964 0.3776 0.83055 0.0
H148 H 0.81624 0.4374 0.85828 0.0
H149 H 0.84556 0.48575 0.01018 0.0
H150 H 0.84022 0.45995 0.08692 0.0
H151 H 0.85157 0.35779 0.13711 0.0
H152 H 0.86935 0.32301 0.09226 0.0
H153 H 0.8486 0.28109 0.93938 0.0
H154 H 0.81044 0.28266 0.87931 0.0
H155 H 0.94946 0.46025 0.0259 0.0
H156 H 0.94136 0.44624 0.88998 0.0
H157 H 0.73352 0.27901 0.01862 0.0
H158 H 0.72699 0.36006 0.97592 0.0
C159 C 0.45183 0.80453 0.22268 0.0
C160 C 0.42939 0.79843 0.19119 0.0
C161 C 0.41233 0.8129 0.20398 0.0
C162 C 0.42511 0.82706 0.24264 0.0
N163 N 0.44936 0.82263 0.25418 0.0
Co164 Co 0.47061 0.83314 0.31057 0.0
N165 N 0.43454 0.83386 0.33922 0.0
C166 C 0.4122 0.83779 0.31892 0.0
C167 C 0.39065 0.83866 0.34675 0.0
C168 C 0.40041 0.83544 0.38681 0.0
C169 C 0.42741 0.83261 0.38138 0.0
N170 N 0.49234 0.84234 0.36657 0.0
C171 C 0.48038 0.83935 0.4066 0.0
C172 C 0.50449 0.84778 0.43658 0.0
C173 C 0.53236 0.85721 0.41438 0.0
C174 C 0.5239 0.85378 0.37215 0.0
N175 N 0.50629 0.83198 0.28136 0.0
C176 C 0.53663 0.84551 0.29519 0.0
C177 C 0.55484 0.83721 0.27036 0.0
C178 C 0.53441 0.81675 0.23982 0.0
C179 C 0.50475 0.81358 0.24774 0.0
N180 N 0.48968 0.88022 0.29998 0.0
C181 C 0.50739 0.94582 0.28842 0.0
C182 C 0.50091 0.93147 0.32876 0.0
C183 C 0.49198 0.89927 0.33373 0.0
C184 C 0.50516 0.9263 0.25364 0.0
C185 C 0.49673 0.89385 0.26012 0.0
N186 N 0.45056 0.78734 0.3217 0.0
C187 C 0.45271 0.74002 0.33978 0.0
C188 C 0.4206 0.721 0.32774 0.0
C189 C 0.40363 0.7358 0.31463 0.0
C190 C 0.41878 0.76872 0.31244 0.0
C191 C 0.46745 0.77338 0.33604 0.0
H192 H 0.40475 0.77903 0.30205 0.0
H193 H 0.49247 0.78782 0.344 0.0
H194 H 0.48568 0.88971 0.36541 0.0
H195 H 0.49517 0.87964 0.23274 0.0
C196 C 0.40948 0.83529 0.27398 0.0
C197 C 0.47542 0.79321 0.22296 0.0
C198 C 0.44737 0.83188 0.41682 0.0
C199 C 0.54354 0.85602 0.3376 0.0
H200 H 0.42497 0.78413 0.16288 0.0
H201 H 0.39122 0.81073 0.18873 0.0
H202 H 0.3698 0.84048 0.33891 0.0
H203 H 0.3892 0.83561 0.41659 0.0
H204 H 0.50241 0.8475 0.4709 0.0
H205 H 0.55577 0.86462 0.42759 0.0
H206 H 0.57919 0.84274 0.27621 0.0
H207 H 0.54028 0.80461 0.21562 0.0
H208 H 0.50166 0.94484 0.35678 0.0
H209 H 0.51007 0.93602 0.22167 0.0
H210 H 0.46632 0.72926 0.35109 0.0
H211 H 0.37846 0.72191 0.30648 0.0
C212 C 0.66867 0.45835 0.56083 0.0
C213 C 0.65383 0.44058 0.52473 0.0
C214 C 0.62163 0.42224 0.53416 0.0
C215 C 0.61821 0.4299 0.57532 0.0
N216 N 0.64627 0.45225 0.59165 0.0
Co217 Co 0.65289 0.46771 0.65104 0.0
N218 N 0.61435 0.42937 0.67262 0.0
C219 C 0.58956 0.40929 0.64805 0.0
C220 C 0.56536 0.38537 0.67154 0.0
C221 C 0.57558 0.39119 0.71331 0.0
C222 C 0.60558 0.41843 0.7132 0.0
N223 N 0.66124 0.48369 0.71041 0.0
C224 C 0.64961 0.46814 0.74791 0.0
C225 C 0.66138 0.48938 0.78181 0.0
C226 C 0.68061 0.51909 0.76469 0.0
C227 C 0.67952 0.51443 0.72146 0.0
N228 N 0.69164 0.50582 0.62894 0.0
C229 C 0.70738 0.53407 0.64917 0.0
C230 C 0.73742 0.55308 0.63289 0.0
C231 C 0.74094 0.53565 0.6013 0.0
C232 C 0.71205 0.50707 0.59775 0.0
N233 N 0.62516 0.48737 0.64191 0.0
C234 C 0.57611 0.50358 0.63013 0.0
C235 C 0.58229 0.49482 0.66998 0.0
C236 C 0.60611 0.48655 0.67502 0.0
C237 C 0.59586 0.5048 0.59611 0.0
C238 C 0.62048 0.49715 0.60278 0.0
N239 N 0.67811 0.4468 0.66043 0.0
C240 C 0.72536 0.44618 0.68414 0.0
C241 C 0.71339 0.41557 0.66702 0.0
C242 C 0.6833 0.4008 0.6478 0.0
C243 C 0.666 0.41648 0.64542 0.0
C244 C 0.70738 0.46163 0.68004 0.0
H245 H 0.64276 0.40396 0.63085 0.0
H246 H 0.71708 0.48547 0.69245 0.0
H247 H 0.60777 0.47803 0.70596 0.0
H248 H 0.63502 0.49824 0.57595 0.0
C249 C 0.59231 0.41126 0.60306 0.0
C250 C 0.70385 0.48139 0.56503 0.0
C251 C 0.62414 0.43461 0.75206 0.0
C252 C 0.69942 0.53686 0.69125 0.0
H253 H 0.66514 0.44024 0.49513 0.0
H254 H 0.60342 0.40376 0.51442 0.0
H255 H 0.5433 0.36555 0.65971 0.0
H256 H 0.56235 0.3772 0.74071 0.0
H257 H 0.65601 0.48414 0.81532 0.0
H258 H 0.69443 0.54123 0.78184 0.0
H259 H 0.7563 0.57501 0.64646 0.0
H260 H 0.76364 0.54281 0.5865 0.0
H261 H 0.56781 0.49315 0.69732 0.0
H262 H 0.59244 0.51174 0.56461 0.0
H263 H 0.74827 0.458 0.70021 0.0
H264 H 0.67269 0.37672 0.63555 0.0
C265 C 0.22622 0.65372 0.88941 0.0
C266 C 0.23235 0.63698 0.85872 0.0
C267 C 0.21783 0.6057 0.87258 0.0
C268 C 0.2036 0.60486 0.91104 0.0
N269 N 0.20806 0.63364 0.92145 0.0
Co270 Co 0.19751 0.64519 0.97717 0.0
N271 N 0.19676 0.60907 0.00735 0.0
C272 C 0.19275 0.58251 0.98812 0.0
C273 C 0.19198 0.56074 0.01693 0.0
C274 C 0.19538 0.57446 0.05646 0.0
C275 C 0.19823 0.60408 0.04976 0.0
N276 N 0.18827 0.65857 0.03244 0.0
C277 C 0.19152 0.65052 0.07287 0.0
C278 C 0.18322 0.66672 0.10204 0.0
C279 C 0.17352 0.68445 0.07893 0.0
C280 C 0.17673 0.67858 0.03698 0.0
N281 N 0.19866 0.68139 0.94653 0.0
C282 C 0.18496 0.69817 0.95936 0.0
C283 C 0.1931 0.72411 0.93345 0.0
C284 C 0.21362 0.72378 0.90324 0.0
C285 C 0.21698 0.69767 0.91244 0.0
N286 N 0.1502 0.6168 0.96687 0.0
C287 C 0.08443 0.56794 0.95592 0.0
C288 C 0.0988 0.57666 0.99623 0.0
C289 C 0.13105 0.60041 1.00091 0.0
C290 C 0.10406 0.58497 0.92089 0.0
C291 C 0.13656 0.60942 0.92703 0.0
N292 N 0.24361 0.6712 0.98808 0.0
C293 C 0.29135 0.72046 1.00657 0.0
C294 C 0.31026 0.70697 0.99606 0.0
C295 C 0.29514 0.67524 0.98306 0.0
C296 C 0.26211 0.65781 0.97986 0.0
C297 C 0.25785 0.70214 1.00187 0.0
H298 H 0.25164 0.63345 0.96981 0.0
H299 H 0.24352 0.71295 0.0089 0.0
H300 H 0.14062 0.60433 0.03264 0.0
H301 H 0.15082 0.62175 0.89942 0.0
C302 C 0.19527 0.58155 0.94324 0.0
C303 C 0.23745 0.68854 0.8884 0.0
C304 C 0.19926 0.62549 0.08426 0.0
C305 C 0.17439 0.69524 1.0017 0.0
H306 H 0.2467 0.64644 0.83024 0.0
H307 H 0.22001 0.58661 0.85816 0.0
H308 H 0.19017 0.53802 0.01007 0.0
H309 H 0.19536 0.56372 0.08672 0.0
H310 H 0.18381 0.66577 0.13642 0.0
H311 H 0.16617 0.70062 0.09132 0.0
H312 H 0.18739 0.74281 0.93832 0.0
H313 H 0.22566 0.7413 0.87838 0.0
H314 H 0.08546 0.5643 0.0245 0.0
H315 H 0.0944 0.57959 0.88891 0.0
H316 H 0.30232 0.74485 0.01762 0.0
H317 H 0.30888 0.6637 0.97589 0.0
C318 C 0.81587 0.45868 0.45383 0.0
C319 C 0.81292 0.44087 0.48993 0.0
C320 C 0.82647 0.42239 0.48028 0.0
C321 C 0.8374 0.43003 0.43898 0.0
N322 N 0.8319 0.45249 0.4228 0.0
Co323 Co 0.84033 0.46783 0.36329 0.0
N324 N 0.8397 0.42928 0.34162 0.0
C325 C 0.84436 0.40914 0.36604 0.0
C326 C 0.84416 0.38513 0.34247 0.0
C327 C 0.83949 0.39096 0.30081 0.0
C328 C 0.83707 0.41829 0.30106 0.0
N329 N 0.84752 0.48372 0.30381 0.0
C330 C 0.84297 0.46807 0.26636 0.0
C331 C 0.85231 0.48926 0.23231 0.0
C332 C 0.86337 0.51903 0.2493 0.0
C333 C 0.86025 0.51447 0.29259 0.0
N334 N 0.8405 0.50614 0.38552 0.0
C335 C 0.85328 0.5344 0.3652 0.0
C336 C 0.84281 0.55365 0.38183 0.0
C337 C 0.8219 0.53633 0.41372 0.0
C338 C 0.82166 0.50756 0.41703 0.0
N339 N 0.88792 0.48708 0.37137 0.0
C340 C 0.95248 0.49977 0.38198 0.0
C341 C 0.93716 0.49248 0.34218 0.0
C342 C 0.90554 0.48595 0.33775 0.0
C343 C 0.93494 0.50268 0.41616 0.0
C344 C 0.90299 0.49647 0.41018 0.0
N345 N 0.794 0.44724 0.35484 0.0
C346 C 0.74616 0.44667 0.33114 0.0
C347 C 0.72729 0.41606 0.34839 0.0
C348 C 0.74248 0.40133 0.36789 0.0
C349 C 0.77555 0.41697 0.37017 0.0
C350 C 0.77968 0.46211 0.33521 0.0
H351 H 0.78616 0.4044 0.38475 0.0
H352 H 0.79399 0.48592 0.32259 0.0
H353 H 0.89508 0.47824 0.30679 0.0
H354 H 0.89011 0.49798 0.4374 0.0
C355 C 0.84408 0.4112 0.41105 0.0
C356 C 0.80394 0.48178 0.44975 0.0
C357 C 0.83458 0.4345 0.26229 0.0
C358 C 0.86355 0.53704 0.32286 0.0
H359 H 0.80141 0.44055 0.51965 0.0
H360 H 0.82604 0.40383 0.49995 0.0
H361 H 0.84628 0.36526 0.35419 0.0
H362 H 0.83834 0.37691 0.27339 0.0
H363 H 0.85202 0.48394 0.19878 0.0
H364 H 0.87182 0.54117 0.23204 0.0
H365 H 0.84614 0.57568 0.36834 0.0
H366 H 0.80674 0.54376 0.42882 0.0
H367 H 0.94923 0.49107 0.31393 0.0
H368 H 0.94525 0.50857 0.44775 0.0
H369 H 0.73516 0.45846 0.31487 0.0
H370 H 0.72884 0.37725 0.38025 0.0
C371 C 0.37748 0.80458 0.78959 0.0
C372 C 0.3937 0.79892 0.8217 0.0
C373 C 0.4254 0.81347 0.80923 0.0
C374 C 0.427 0.82721 0.77014 0.0
N375 N 0.39828 0.82246 0.758 0.0
Co376 Co 0.38782 0.83231 0.70101 0.0
N377 N 0.42503 0.83322 0.67333 0.0
C378 C 0.45124 0.83747 0.69417 0.0
C379 C 0.47394 0.83832 0.66688 0.0
C380 C 0.46124 0.83478 0.6266 0.0
C381 C 0.43133 0.83195 0.63136 0.0
N382 N 0.37555 0.84082 0.64441 0.0
C383 C 0.38502 0.83779 0.60477 0.0
C384 C 0.37068 0.84719 0.57409 0.0
C385 C 0.35196 0.85662 0.59547 0.0
C386 C 0.35583 0.85255 0.63795 0.0
N387 N 0.35062 0.83105 0.72919 0.0
C388 C 0.33387 0.84433 0.71447 0.0
C389 C 0.30705 0.83601 0.73882 0.0
C390 C 0.30681 0.81585 0.77001 0.0
C391 C 0.33349 0.81286 0.76294 0.0
N392 N 0.41577 0.87949 0.71084 0.0
C393 C 0.46594 0.94446 0.72207 0.0
C394 C 0.45733 0.93006 0.68177 0.0
C395 C 0.43298 0.89823 0.67698 0.0
C396 C 0.44706 0.92564 0.75668 0.0
C397 C 0.4222 0.89343 0.75042 0.0
N398 N 0.36217 0.7864 0.69067 0.0
C399 C 0.31288 0.73879 0.6721 0.0
C400 C 0.32594 0.72001 0.685 0.0
C401 C 0.35761 0.73509 0.69897 0.0
C402 C 0.37532 0.76803 0.70095 0.0
C403 C 0.33141 0.77217 0.67568 0.0
H404 H 0.39961 0.77857 0.71185 0.0
H405 H 0.32084 0.78642 0.66695 0.0
H406 H 0.42942 0.88861 0.64537 0.0
H407 H 0.40902 0.87953 0.77784 0.0
C408 C 0.45115 0.83532 0.73916 0.0
C409 C 0.34245 0.79298 0.78874 0.0
C410 C 0.41052 0.83029 0.59554 0.0
C411 C 0.33802 0.85485 0.67192 0.0
H412 H 0.38364 0.78484 0.85021 0.0
H413 H 0.44432 0.81159 0.82503 0.0
H414 H 0.49659 0.84024 0.67525 0.0
H415 H 0.47276 0.83455 0.59713 0.0
H416 H 0.374 0.84791 0.53992 0.0
H417 H 0.33678 0.86474 0.58157 0.0
H418 H 0.28824 0.8414 0.73234 0.0
H419 H 0.2886 0.80384 0.79414 0.0
H420 H 0.46974 0.94311 0.65339 0.0
H421 H 0.45211 0.93522 0.78866 0.0
H422 H 0.28862 0.72783 0.66012 0.0
H423 H 0.3689 0.72141 0.70779 0.0
C424 C 0.58398 0.37019 0.1245 0.0
C425 C 0.60701 0.38689 0.15515 0.0
C426 C 0.62391 0.4182 0.1414 0.0
C427 C 0.61045 0.41911 0.10304 0.0
N428 N 0.58594 0.39033 0.09259 0.0
Co429 Co 0.56374 0.37885 0.0369 0.0
N430 N 0.5993 0.41501 0.00674 0.0
C431 C 0.62202 0.44155 0.02598 0.0
C432 C 0.64315 0.46335 0.99718 0.0
C433 C 0.63273 0.44966 0.95764 0.0
C434 C 0.60577 0.42003 0.96432 0.0
N435 N 0.541 0.36552 0.98166 0.0
C436 C 0.55232 0.37359 0.94122 0.0
C437 C 0.5277 0.3574 0.91208 0.0
C438 C 0.50017 0.33964 0.93522 0.0
C439 C 0.50933 0.3455 0.97716 0.0
N440 N 0.52852 0.3426 0.06753 0.0
C441 C 0.49791 0.32581 0.05476 0.0
C442 C 0.48002 0.29978 0.08056 0.0
C443 C 0.50094 0.30007 0.11064 0.0
C444 C 0.53053 0.32623 0.10147 0.0
N445 N 0.54498 0.40726 0.04731 0.0
C446 C 0.52828 0.4561 0.05825 0.0
C447 C 0.53388 0.44735 0.01796 0.0
C448 C 0.54226 0.42362 0.01327 0.0
C449 C 0.53086 0.43911 0.09329 0.0
C450 C 0.5388 0.41467 0.08715 0.0
N451 N 0.58368 0.35288 0.02583 0.0
C452 C 0.58187 0.30366 0.00716 0.0
C453 C 0.61434 0.31713 0.01767 0.0
C454 C 0.63116 0.34885 0.03073 0.0
C455 C 0.61566 0.36627 0.03402 0.0
C456 C 0.56679 0.32196 0.01195 0.0
H457 H 0.62971 0.39062 0.04411 0.0
H458 H 0.54158 0.31115 1.00495 0.0
H459 H 0.54787 0.4197 0.98153 0.0
H460 H 0.54073 0.4024 0.11477 0.0
C461 C 0.62555 0.44246 0.07086 0.0
C462 C 0.56025 0.33534 0.12538 0.0
C463 C 0.58524 0.39863 0.92982 0.0
C464 C 0.49025 0.32879 0.01245 0.0
H465 H 0.6119 0.37738 0.18352 0.0
H466 H 0.64532 0.43727 0.15581 0.0
H467 H 0.66421 0.48606 1.00405 0.0
H468 H 0.6435 0.46042 0.92738 0.0
H469 H 0.52922 0.35835 0.87769 0.0
H470 H 0.47655 0.32345 0.92284 0.0
H471 H 0.45551 0.28106 0.07568 0.0
H472 H 0.4954 0.28247 0.13538 0.0
H473 H 0.53293 0.45967 0.98966 0.0
H474 H 0.52665 0.4445 0.12528 0.0
H475 H 0.56829 0.27928 0.99607 0.0
H476 H 0.65651 0.36038 0.0379 0.0
C477 C 0.22257 0.5655 0.45309 0.0
C478 C 0.22559 0.58323 0.48924 0.0
C479 C 0.21181 0.60155 0.47986 0.0
C480 C 0.2007 0.59392 0.43869 0.0
N481 N 0.2063 0.57162 0.4223 0.0
Co482 Co 0.19739 0.55622 0.36289 0.0
N483 N 0.1974 0.59456 0.34139 0.0
C484 C 0.19278 0.61459 0.36601 0.0
C485 C 0.19262 0.63852 0.34257 0.0
C486 C 0.19701 0.63275 0.30079 0.0
C487 C 0.19964 0.60554 0.30084 0.0
N488 N 0.18967 0.54029 0.30349 0.0
C489 C 0.19369 0.55587 0.26602 0.0
C490 C 0.18411 0.53467 0.23208 0.0
C491 C 0.17347 0.50496 0.24915 0.0
C492 C 0.17706 0.50956 0.29238 0.0
N493 N 0.19784 0.51811 0.3849 0.0
C494 C 0.18518 0.48988 0.36462 0.0
C495 C 0.19612 0.47088 0.38083 0.0
C496 C 0.21717 0.4883 0.41245 0.0
C497 C 0.217 0.51685 0.41606 0.0
N498 N 0.14988 0.53651 0.37201 0.0
C499 C 0.08451 0.52029 0.38382 0.0
C500 C 0.0995 0.52906 0.34397 0.0
C501 C 0.13165 0.53734 0.33892 0.0
C502 C 0.10303 0.51905 0.41782 0.0
C503 C 0.13535 0.5267 0.41114 0.0
N504 N 0.24365 0.57717 0.3535 0.0
C505 C 0.29154 0.57792 0.32957 0.0
C506 C 0.31036 0.60852 0.34672 0.0
C507 C 0.29511 0.62321 0.3661 0.0
C508 C 0.26203 0.60748 0.36856 0.0
C509 C 0.25802 0.5624 0.33377 0.0
H510 H 0.25138 0.61995 0.38322 0.0
H511 H 0.24375 0.53857 0.32132 0.0
H512 H 0.14188 0.54588 0.30798 0.0
H513 H 0.14879 0.5256 0.43797 0.0
C514 C 0.19353 0.61258 0.411 0.0
C515 C 0.23461 0.5425 0.44883 0.0
C516 C 0.20194 0.58941 0.26194 0.0
C517 C 0.1744 0.48712 0.32254 0.0
H518 H 0.23724 0.58355 0.51883 0.0
H519 H 0.21217 0.61999 0.49964 0.0
H520 H 0.19048 0.65831 0.35445 0.0
H521 H 0.19785 0.64676 0.27342 0.0
H522 H 0.18401 0.53995 0.19858 0.0
H523 H 0.16503 0.48283 0.23195 0.0
H524 H 0.19295 0.44897 0.36723 0.0
H525 H 0.23268 0.48114 0.42721 0.0
H526 H 0.0867 0.53074 0.31664 0.0
H527 H 0.09263 0.5121 0.44932 0.0
H528 H 0.30259 0.56616 0.31338 0.0
H529 H 0.30871 0.64729 0.37838 0.0
C530 C 0.65887 0.2194 0.78989 0.0
C531 C 0.64234 0.22517 0.82139 0.0
C532 C 0.61074 0.21051 0.80847 0.0
C533 C 0.60952 0.19658 0.76972 0.0
N534 N 0.63837 0.20133 0.75823 0.0
Co535 Co 0.64932 0.19113 0.70183 0.0
N536 N 0.61237 0.19006 0.67312 0.0
C537 C 0.58594 0.18581 0.69339 0.0
C538 C 0.56343 0.18473 0.66553 0.0
C539 C 0.57651 0.18813 0.6255 0.0
C540 C 0.6065 0.19128 0.63096 0.0
N541 N 0.66206 0.18223 0.6458 0.0
C542 C 0.65304 0.18514 0.60577 0.0
C543 C 0.6689 0.17699 0.57578 0.0
C544 C 0.68747 0.16779 0.59796 0.0
C545 C 0.68236 0.17109 0.6402 0.0
N546 N 0.6863 0.1926 0.73107 0.0
C547 C 0.70328 0.17936 0.71721 0.0
C548 C 0.72982 0.18777 0.74215 0.0
C549 C 0.72967 0.20799 0.77283 0.0
C550 C 0.70306 0.21091 0.76486 0.0
N551 N 0.62142 0.14402 0.71228 0.0
C552 C 0.57363 0.07829 0.72382 0.0
C553 C 0.58143 0.09265 0.68348 0.0
C554 C 0.60466 0.12492 0.67852 0.0
C555 C 0.59095 0.09786 0.7586 0.0
C556 C 0.61493 0.13038 0.75213 0.0
N557 N 0.67501 0.23699 0.69087 0.0
C558 C 0.72458 0.28463 0.67313 0.0
C559 C 0.7113 0.30337 0.68518 0.0
C560 C 0.67938 0.28827 0.69814 0.0
C561 C 0.66167 0.25533 0.70016 0.0
C562 C 0.70601 0.25125 0.67668 0.0
H563 H 0.63722 0.24478 0.71047 0.0
H564 H 0.71674 0.23702 0.66871 0.0
H565 H 0.60788 0.13449 0.64685 0.0
H566 H 0.62762 0.14463 0.7795 0.0
C567 C 0.58563 0.18819 0.73832 0.0
C568 C 0.6939 0.23097 0.78975 0.0
C569 C 0.62732 0.19227 0.59554 0.0
C570 C 0.6998 0.16897 0.67475 0.0
H571 H 0.65213 0.23938 0.84981 0.0
H572 H 0.59165 0.2124 0.82371 0.0
H573 H 0.54062 0.18263 0.67334 0.0
H574 H 0.5651 0.18786 0.5957 0.0
H575 H 0.66712 0.17729 0.54146 0.0
H576 H 0.7036 0.16062 0.58475 0.0
H577 H 0.74875 0.18245 0.73634 0.0
H578 H 0.74763 0.22012 0.79717 0.0
H579 H 0.56877 0.07921 0.65547 0.0
H580 H 0.58619 0.08811 0.79056 0.0
H581 H 0.74907 0.29564 0.66194 0.0
H582 H 0.66796 0.30194 0.70631 0.0
C583 C 0.452 0.65372 0.12393 0.0
C584 C 0.429 0.637 0.15468 0.0
C585 C 0.41207 0.6057 0.14101 0.0
C586 C 0.42549 0.60483 0.10259 0.0
N587 N 0.45002 0.63361 0.09206 0.0
Co588 Co 0.47217 0.64519 0.03628 0.0
N589 N 0.43652 0.60916 1.00623 0.0
C590 C 0.41379 0.5826 0.02554 0.0
C591 C 0.39265 0.56084 0.99681 0.0
C592 C 0.40309 0.57458 0.95724 0.0
C593 C 0.43007 0.6042 0.96383 0.0
N594 N 0.49488 0.65866 0.98097 0.0
C595 C 0.48354 0.65068 0.94057 0.0
C596 C 0.50814 0.66692 0.91134 0.0
C597 C 0.53569 0.68461 0.93439 0.0
C598 C 0.52656 0.67866 0.97635 0.0
N599 N 0.50746 0.68132 0.06683 0.0
C600 C 0.53805 0.69813 0.05395 0.0
C601 C 0.55595 0.72414 0.07966 0.0
C602 C 0.53504 0.72384 0.10977 0.0
C603 C 0.50544 0.69768 0.10072 0.0
N604 N 0.49076 0.61658 0.04646 0.0
C605 C 0.50447 0.56555 0.05716 0.0
C606 C 0.50005 0.57542 0.01688 0.0
C607 C 0.49313 0.60018 0.01233 0.0
C608 C 0.50365 0.58357 0.09216 0.0
C609 C 0.49684 0.60884 0.08618 0.0
N610 N 0.45232 0.67129 0.02537 0.0
C611 C 0.45414 0.7205 1.00636 0.0
C612 C 0.42168 0.70706 0.017 0.0
C613 C 0.40487 0.67538 0.03035 0.0
C614 C 0.42036 0.65794 0.03372 0.0
C615 C 0.46921 0.70219 0.01127 0.0
H616 H 0.40629 0.6336 0.04396 0.0
H617 H 0.49441 0.71297 1.00414 0.0
H618 H 0.48817 0.60474 0.98055 0.0
H619 H 0.49536 0.62127 0.11388 0.0
C620 C 0.41032 0.58157 0.07045 0.0
C621 C 0.47571 0.68857 0.12465 0.0
C622 C 0.45063 0.62561 0.92926 0.0
C623 C 0.54567 0.69526 0.0116 0.0
H624 H 0.42414 0.6465 0.18305 0.0
H625 H 0.39065 0.58663 0.15549 0.0
H626 H 0.3716 0.53812 1.00375 0.0
H627 H 0.39233 0.56386 0.92701 0.0
H628 H 0.5066 0.666 0.87696 0.0
H629 H 0.55931 0.70079 0.92193 0.0
H630 H 0.58044 0.74289 0.07466 0.0
H631 H 0.54056 0.74144 0.13442 0.0
H632 H 0.50136 0.56369 0.98827 0.0
H633 H 0.50708 0.57756 0.1242 0.0
H634 H 0.46771 0.74485 0.99505 0.0
H635 H 0.37953 0.66386 0.03762 0.0
C636 C 0.6118 0.22055 0.48843 0.0
C637 C 0.60171 0.19355 0.46241 0.0
H638 H 0.62787 0.24136 0.55067 0.0
C639 C 0.59903 0.16585 0.48082 0.0
H640 H 0.6135 0.24204 0.47534 0.0
C641 C 0.60675 0.16531 0.52393 0.0
C642 C 0.61777 0.19257 0.54976 0.0
H643 H 0.59063 0.14447 0.46186 0.0
H644 H 0.60425 0.14351 0.53713 0.0
C645 C 0.61983 0.2201 0.53156 0.0
C646 C 0.44981 0.59975 0.81355 0.0
C647 C 0.42432 0.60203 0.79568 0.0
H648 H 0.47743 0.60444 0.86961 0.0
C649 C 0.40719 0.61168 0.82218 0.0
H650 H 0.46272 0.59133 0.79437 0.0
C651 C 0.4157 0.61937 0.86532 0.0
C652 C 0.44134 0.61728 0.88313 0.0
H653 H 0.38683 0.61272 0.80965 0.0
H654 H 0.40213 0.62679 0.88489 0.0
C655 C 0.45805 0.60704 0.85671 0.0
C656 C 0.80693 0.41216 0.19175 0.0
C657 C 0.83377 0.42185 0.21824 0.0
H658 H 0.78665 0.397 0.12905 0.0
C659 C 0.86156 0.42415 0.20038 0.0
H660 H 0.78551 0.41111 0.20427 0.0
C661 C 0.86247 0.41683 0.15724 0.0
C662 C 0.83546 0.40656 0.13082 0.0
H663 H 0.88296 0.4326 0.21956 0.0
H664 H 0.88447 0.41944 0.14433 0.0
C665 C 0.8077 0.40445 0.14862 0.0
C666 C 0.45364 0.85878 0.48841 0.0
C667 C 0.43745 0.83147 0.4626 0.0
H668 H 0.45828 0.87955 0.55048 0.0
C669 C 0.412 0.8038 0.48081 0.0
H670 H 0.47292 0.88067 0.4752 0.0
C671 C 0.40348 0.80326 0.52395 0.0
C672 C 0.42034 0.8303 0.54996 0.0
H673 H 0.39883 0.78251 0.46171 0.0
H674 H 0.38372 0.78166 0.53706 0.0
C675 C 0.44534 0.85814 0.53153 0.0
C676 C 0.62042 0.40481 0.86614 0.0
C677 C 0.59467 0.40686 0.88364 0.0
H678 H 0.64954 0.41144 0.81071 0.0
C679 C 0.57802 0.41697 0.85686 0.0
H680 H 0.63397 0.39749 0.88596 0.0
C681 C 0.58642 0.4242 0.81368 0.0
C682 C 0.61203 0.42197 0.79614 0.0
H683 H 0.55857 0.41957 0.86951 0.0
H684 H 0.57355 0.43255 0.79425 0.0
C685 C 0.62909 0.41243 0.82299 0.0
C686 C 0.22922 0.61166 0.19105 0.0
C687 C 0.20255 0.60209 0.2179 0.0
H688 H 0.24915 0.62666 0.12809 0.0
C689 C 0.17469 0.59985 0.20036 0.0
H690 H 0.25068 0.61266 0.20331 0.0
C691 C 0.17356 0.60711 0.1572 0.0
C692 C 0.20041 0.61726 0.13043 0.0
H693 H 0.15342 0.59148 0.2198 0.0
H694 H 0.15151 0.60451 0.14456 0.0
C695 C 0.22822 0.61931 0.14792 0.0
C696 C 0.68014 0.38612 0.30152 0.0
C697 C 0.69222 0.39681 0.34256 0.0
H698 H 0.64499 0.34715 0.26455 0.0
C699 C 0.67284 0.38096 0.37802 0.0
H700 H 0.69468 0.39781 0.27374 0.0
C701 C 0.6444 0.35193 0.37279 0.0
C702 C 0.63518 0.33859 0.33206 0.0
H703 H 0.68173 0.38884 0.41 0.0
H704 H 0.63216 0.33806 0.4008 0.0
C705 C 0.65173 0.35707 0.2963 0.0
C706 C 0.30704 0.66662 0.71693 0.0
C707 C 0.30894 0.68493 0.68105 0.0
H708 H 0.3093 0.62612 0.7398 0.0
C709 C 0.30484 0.6715 0.6404 0.0
H710 H 0.31023 0.67664 0.74862 0.0
C711 C 0.30429 0.64257 0.63537 0.0
C712 C 0.30781 0.62688 0.67096 0.0
H713 H 0.30646 0.68525 0.61231 0.0
H714 H 0.30532 0.63463 0.60345 0.0
C715 C 0.30642 0.63766 0.71191 0.0
C716 C 0.64274 0.29772 0.97169 0.0
C717 C 0.63273 0.30044 0.01264 0.0
H718 H 0.68092 0.29979 0.93438 0.0
C719 C 0.64908 0.29791 0.0482 0.0
H720 H 0.63077 0.30002 0.94384 0.0
C721 C 0.6778 0.29777 0.04282 0.0
C722 C 0.69043 0.30023 1.00184 0.0
H723 H 0.6419 0.30024 0.08009 0.0
H724 H 0.6921 0.30012 0.07065 0.0
C725 C 0.67149 0.29765 0.96632 0.0
C726 C 0.38635 0.66777 0.29546 0.0
C727 C 0.4027 0.6859 0.33145 0.0
H728 H 0.34346 0.62734 0.27234 0.0
C729 C 0.39317 0.67222 0.37202 0.0
H730 H 0.39332 0.67799 0.26384 0.0
C731 C 0.36464 0.64321 0.37687 0.0
C732 C 0.34547 0.62772 0.34117 0.0
H733 H 0.40524 0.68584 0.4002 0.0
H734 H 0.35551 0.63509 0.40874 0.0
C735 C 0.35783 0.63873 0.30029 0.0
C736 C 0.73298 0.38116 0.63655 0.0
C737 C 0.7293 0.39647 0.67237 0.0
H738 H 0.73103 0.33877 0.6129 0.0
C739 C 0.73065 0.38537 0.71316 0.0
H740 H 0.73196 0.38935 0.60474 0.0
C741 C 0.73017 0.35643 0.71778 0.0
C742 C 0.72843 0.33848 0.68166 0.0
H743 H 0.72765 0.39662 0.74121 0.0
H744 H 0.72691 0.34612 0.74934 0.0
C745 C 0.73256 0.35225 0.64118 0.0
C746 C 0.3643 0.72614 0.96548 0.0
C747 C 0.34544 0.72365 1.00107 0.0
H748 H 0.40502 0.72382 0.94297 0.0
C749 C 0.3582 0.72636 0.042 0.0
H750 H 0.35476 0.72382 0.9336 0.0
C751 C 0.38699 0.72636 0.04733 0.0
C752 C 0.40328 0.72372 0.01178 0.0
H753 H 0.34396 0.72409 0.06987 0.0
H754 H 0.39428 0.7242 0.07925 0.0
C755 C 0.39313 0.72621 0.97082 0.0
C756 C 0.50797 0.02344 0.25493 0.0
C757 C 0.52835 0.04568 0.28577 0.0
H758 H 0.48545 0.97507 0.23103 0.0
C759 C 0.54368 0.03496 0.31426 0.0
H760 H 0.49561 0.03025 0.2322 0.0
C761 C 0.53762 1.00334 0.31379 0.0
C762 C 0.51629 0.98071 0.28439 0.0
H763 H 0.56053 0.05102 0.33758 0.0
H764 H 0.54963 0.9965 0.33709 0.0
C765 C 0.50212 0.99157 0.2542 0.0
C766 C 0.497 0.50033 0.59724 0.0
C767 C 0.49451 0.52065 0.6275 0.0
H768 H 0.52434 0.47922 0.57368 0.0
C769 C 0.52092 0.53729 0.65525 0.0
H770 H 0.47764 0.48698 0.5751 0.0
C771 C 0.54735 0.53244 0.65477 0.0
C772 C 0.54932 0.51132 0.62584 0.0
H773 H 0.52133 0.55422 0.67801 0.0
H774 H 0.56634 0.54515 0.6777 0.0
C775 C 0.52398 0.49586 0.59634 0.0
C776 C 1.00684 0.49052 0.92159 0.0
C777 C 0.98444 0.48756 0.95303 0.0
H778 H 0.05529 0.51755 0.89734 0.0
C779 C 0.99504 0.51294 0.98248 0.0
H780 H 1.00013 0.47191 0.8981 0.0
C781 C 0.02665 0.53891 0.98218 0.0
C782 C 0.04949 0.54132 0.95211 0.0
H783 H 0.97885 0.51287 1.00637 0.0
H784 H 0.03328 0.55725 1.00608 0.0
C785 C 0.03872 0.51692 0.92109 0.0
C786 C 0.04018 0.52807 0.41758 0.0
C787 C 0.04993 0.51256 0.38811 0.0
H788 H 1.00281 0.537 0.43878 0.0
C789 C 0.0267 0.49143 0.35922 0.0
H790 H 0.0573 0.54472 0.44021 0.0
C791 C 0.9954 0.4866 0.35873 0.0
C792 C 0.98577 0.50328 0.38643 0.0
H793 H 0.0329 0.47869 0.33632 0.0
H794 H 0.97877 0.46965 0.33599 0.0
C795 C 1.00871 0.52361 0.41667 0.0
C796 C 0.52253 0.03233 0.75799 0.0
C797 C 0.54767 0.04334 0.72787 0.0
H798 H 0.47721 0.99342 0.77991 0.0
C799 C 0.54652 0.02079 0.69856 0.0
H800 H 0.52226 0.04877 0.78108 0.0
C801 C 0.52096 0.98909 0.69809 0.0
C802 C 0.49477 0.97821 0.7265 0.0
H803 H 0.56548 0.02778 0.67532 0.0
H804 H 0.52183 0.97309 0.67484 0.0
C805 C 0.4965 1.00037 0.75726 0.0
C806 C 0.52821 0.53337 0.09267 0.0
C807 C 0.50887 0.53635 0.06112 0.0
H808 H 0.5495 0.50639 0.11702 0.0
C809 C 0.49413 0.51103 0.03155 0.0
H810 H 0.54009 0.55192 0.11627 0.0
C811 C 0.4997 0.48511 0.03185 0.0
C812 C 0.52003 0.48268 0.06203 0.0
H813 H 0.47806 0.51108 0.00755 0.0
H814 H 0.48799 0.46682 0.00785 0.0
C815 C 0.53364 0.50703 0.09316 0.0
C816 C 0.56437 0.28517 0.2191 0.0
C817 C 0.56375 0.25898 0.19839 0.0
H818 H 0.5643 0.32955 0.21332 0.0
C819 C 0.5632 0.25904 0.15344 0.0
H820 H 0.56416 0.28587 0.25355 0.0
C821 C 0.56297 0.28408 0.13028 0.0
C822 C 0.56377 0.31036 0.15097 0.0
H823 H 0.56179 0.2391 0.13607 0.0
H824 H 0.5616 0.2826 0.09587 0.0
C825 C 0.56463 0.31046 0.19591 0.0
C826 C 0.28749 0.57173 0.49274 0.0
C827 C 0.2601 0.54304 0.47946 0.0
H828 H 0.33055 0.59425 0.53115 0.0
C829 C 0.25788 0.51479 0.49541 0.0
H830 H 0.29074 0.59441 0.48209 0.0
C831 C 0.28329 0.51472 0.51737 0.0
C832 C 0.30946 0.54286 0.53348 0.0
H833 H 0.23623 0.49218 0.49178 0.0
H834 H 0.28219 0.49209 0.52073 0.0
C835 C 0.31099 0.57164 0.52037 0.0
C836 C 0.74434 0.28432 0.88383 0.0
C837 C 0.7702 0.31056 0.86327 0.0
H838 H 0.70027 0.23938 0.87775 0.0
C839 C 0.76986 0.31071 0.81833 0.0
H840 H 0.74391 0.28283 0.91825 0.0
C841 C 0.74487 0.28546 0.795 0.0
C842 C 0.71893 0.25929 0.81555 0.0
H843 H 0.78959 0.32979 0.80107 0.0
H844 H 0.74613 0.28615 0.76057 0.0
C845 C 0.7191 0.25932 0.8605 0.0
C846 C 0.47257 0.73961 0.12937 0.0
C847 C 0.47216 0.71351 0.15016 0.0
H848 H 0.47344 0.78445 0.13501 0.0
C849 C 0.47164 0.71354 0.1951 0.0
H850 H 0.47366 0.74098 0.09494 0.0
C851 C 0.47191 0.73883 0.2182 0.0
C852 C 0.47217 0.76485 0.1974 0.0
H853 H 0.47224 0.69457 0.21256 0.0
H854 H 0.47246 0.73827 0.25264 0.0
C855 C 0.47232 0.76463 0.15246 0.0
C856 C 0.75496 0.50911 0.51836 0.0
C857 C 0.72879 0.48086 0.53437 0.0
H858 H 0.8021 0.53184 0.493 0.0
C859 C 0.72736 0.45218 0.52115 0.0
H860 H 0.75604 0.53171 0.52195 0.0
C861 C 0.75094 0.45228 0.49351 0.0
C862 C 0.77834 0.48106 0.48034 0.0
H863 H 0.7078 0.42949 0.53185 0.0
H864 H 0.74778 0.42967 0.48278 0.0
C865 C 0.78045 0.5092 0.49639 0.0
C866 C 0.26648 0.71319 0.81763 0.0
C867 C 0.26594 0.71347 0.86256 0.0
H868 H 0.29044 0.73761 0.75975 0.0
C869 C 0.2916 0.73988 0.88301 0.0
H870 H 0.2469 0.69398 0.80041 0.0
C871 C 0.31684 0.7649 0.85961 0.0
C872 C 0.31723 0.76477 0.81467 0.0
H873 H 0.29186 0.74148 0.91742 0.0
H874 H 0.3355 0.78496 0.87678 0.0
C875 C 0.2915 0.73844 0.7942 0.0
loop_
_geom_bond_atom_site_label_1
_geom_bond_atom_site_label_2
_geom_bond_distance
_geom_bond_site_symmetry_2
_ccdc_geom_bond_type
C0 C1 1.443 . S
C0 N4 1.376 . S
C0 C38 1.389 . S
C1 C0 1.443 . S
C1 C2 1.340 . S
C1 H41 0.951 . S
C2 C1 1.340 . S
C2 C3 1.439 . S
C2 H42 0.950 . S
C3 C2 1.439 . S
C3 N4 1.374 . S
C3 C37 1.395 . S
N4 C0 1.376 . S
N4 C3 1.374 . S
N4 Co5 2.008 . S
Co5 N4 2.008 . S
Co5 N6 1.995 . S
Co5 N11 2.008 . S
Co5 N16 1.995 . S
Co5 N21 2.282 . S
Co5 N27 2.282 . S
N6 Co5 1.995 . S
N6 C7 1.376 . S
N6 C10 1.383 . S
C7 N6 1.376 . S
C7 C8 1.446 . S
C7 C37 1.391 . S
C8 C7 1.446 . S
C8 C9 1.339 . S
C8 H43 0.949 . S
C9 C8 1.339 . S
C9 C10 1.439 . S
C9 H44 0.950 . S
C10 N6 1.383 . S
C10 C9 1.439 . S
C10 C39 1.392 . S
N11 Co5 2.008 . S
N11 C12 1.376 . S
N11 C15 1.374 . S
C12 N11 1.376 . S
C12 C13 1.443 . S
C12 C39 1.389 . S
C13 C12 1.443 . S
C13 C14 1.340 . S
C13 H45 0.951 . S
C14 C13 1.340 . S
C14 C15 1.439 . S
C14 H46 0.950 . S
C15 N11 1.374 . S
C15 C14 1.439 . S
C15 C40 1.395 . S
N16 Co5 1.995 . S
N16 C17 1.376 . S
N16 C20 1.383 . S
C17 N16 1.376 . S
C17 C18 1.446 . S
C17 C40 1.391 . S
C18 C17 1.446 . S
C18 C19 1.339 . S
C18 H47 0.949 . S
C19 C18 1.339 . S
C19 C20 1.439 . S
C19 H48 0.950 . S
C20 N16 1.383 . S
C20 C19 1.439 . S
C20 C38 1.392 . S
N21 Co5 2.282 . S
N21 C24 1.332 . S
N21 C26 1.332 . S
C22 C23 1.386 . S
C22 C25 1.388 . S
C23 C22 1.386 . S
C23 C24 1.382 . S
C23 H49 0.950 . S
C24 N21 1.332 . S
C24 C23 1.382 . S
C24 H35 0.952 . S
C25 C22 1.388 . S
C25 C26 1.382 . S
C25 H50 0.950 . S
C26 N21 1.332 . S
C26 C25 1.382 . S
C26 H36 0.948 . S
N27 Co5 2.282 . S
N27 C31 1.332 . S
N27 C32 1.332 . S
C28 C29 1.388 . S
C28 C32 1.382 . S
C28 H51 0.950 . S
C29 C28 1.388 . S
C29 C30 1.386 . S
C30 C29 1.386 . S
C30 C31 1.382 . S
C30 H52 0.950 . S
C31 N27 1.332 . S
C31 C30 1.382 . S
C31 H33 0.952 . S
C32 N27 1.332 . S
C32 C28 1.382 . S
C32 H34 0.948 . S
H33 C31 0.952 . S
H34 C32 0.948 . S
H35 C24 0.952 . S
H36 C26 0.948 . S
C37 C3 1.395 . S
C37 C7 1.391 . S
C38 C0 1.389 . S
C38 C20 1.392 . S
C39 C10 1.392 . S
C39 C12 1.389 . S
C40 C15 1.395 . S
C40 C17 1.391 . S
H41 C1 0.951 . S
H42 C2 0.950 . S
H43 C8 0.949 . S
H44 C9 0.950 . S
H45 C13 0.951 . S
H46 C14 0.950 . S
H47 C18 0.949 . S
H48 C19 0.950 . S
H49 C23 0.950 . S
H50 C25 0.950 . S
H51 C28 0.950 . S
H52 C30 0.950 . S
C53 C54 1.443 . S
C53 N57 1.376 . S
C53 C91 1.389 . S
C54 C53 1.443 . S
C54 C55 1.340 . S
C54 H94 0.951 . S
C55 C54 1.340 . S
C55 C56 1.439 . S
C55 H95 0.950 . S
C56 C55 1.439 . S
C56 N57 1.374 . S
C56 C90 1.395 . S
N57 C53 1.376 . S
N57 C56 1.374 . S
N57 Co58 2.008 . S
Co58 N57 2.008 . S
Co58 N59 1.995 . S
Co58 N64 2.008 . S
Co58 N69 1.995 . S
Co58 N74 2.282 . S
Co58 N80 2.282 . S
N59 Co58 1.995 . S
N59 C60 1.376 . S
N59 C63 1.383 . S
C60 N59 1.376 . S
C60 C61 1.446 . S
C60 C90 1.391 . S
C61 C60 1.446 . S
C61 C62 1.339 . S
C61 H96 0.949 . S
C62 C61 1.339 . S
C62 C63 1.439 . S
C62 H97 0.950 . S
C63 N59 1.383 . S
C63 C62 1.439 . S
C63 C92 1.392 . S
N64 Co58 2.008 . S
N64 C65 1.376 . S
N64 C68 1.374 . S
C65 N64 1.376 . S
C65 C66 1.443 . S
C65 C92 1.389 . S
C66 C65 1.443 . S
C66 C67 1.340 . S
C66 H98 0.951 . S
C67 C66 1.340 . S
C67 C68 1.439 . S
C67 H99 0.950 . S
C68 N64 1.374 . S
C68 C67 1.439 . S
C68 C93 1.395 . S
N69 Co58 1.995 . S
N69 C70 1.376 . S
N69 C73 1.383 . S
C70 N69 1.376 . S
C70 C71 1.446 . S
C70 C93 1.391 . S
C71 C70 1.446 . S
C71 C72 1.339 . S
C71 H100 0.949 . S
C72 C71 1.339 . S
C72 C73 1.439 . S
C72 H101 0.950 . S
C73 N69 1.383 . S
C73 C72 1.439 . S
C73 C91 1.392 . S
N74 Co58 2.282 . S
N74 C77 1.332 . S
N74 C79 1.332 . S
C75 C76 1.386 . S
C75 C78 1.388 . S
C76 C75 1.386 . S
C76 C77 1.382 . S
C76 H102 0.950 . S
C77 N74 1.332 . S
C77 C76 1.382 . S
C77 H88 0.952 . S
C78 C75 1.388 . S
C78 C79 1.382 . S
C78 H103 0.950 . S
C79 N74 1.332 . S
C79 C78 1.382 . S
C79 H89 0.948 . S
N80 Co58 2.282 . S
N80 C84 1.332 . S
N80 C85 1.332 . S
C81 C82 1.388 . S
C81 C85 1.382 . S
C81 H104 0.950 . S
C82 C81 1.388 . S
C82 C83 1.386 . S
C83 C82 1.386 . S
C83 C84 1.382 . S
C83 H105 0.950 . S
C84 N80 1.332 . S
C84 C83 1.382 . S
C84 H86 0.952 . S
C85 N80 1.332 . S
C85 C81 1.382 . S
C85 H87 0.948 . S
H86 C84 0.952 . S
H87 C85 0.948 . S
H88 C77 0.952 . S
H89 C79 0.948 . S
C90 C56 1.395 . S
C90 C60 1.391 . S
C91 C53 1.389 . S
C91 C73 1.392 . S
C92 C63 1.392 . S
C92 C65 1.389 . S
C93 C68 1.395 . S
C93 C70 1.391 . S
H94 C54 0.951 . S
H95 C55 0.950 . S
H96 C61 0.949 . S
H97 C62 0.950 . S
H98 C66 0.951 . S
H99 C67 0.950 . S
H100 C71 0.949 . S
H101 C72 0.950 . S
H102 C76 0.950 . S
H103 C78 0.950 . S
H104 C81 0.950 . S
H105 C83 0.950 . S
C106 C107 1.443 . S
C106 N110 1.376 . S
C106 C144 1.389 . S
C107 C106 1.443 . S
C107 C108 1.340 . S
C107 H147 0.951 . S
C108 C107 1.340 . S
C108 C109 1.439 . S
C108 H148 0.950 . S
C109 C108 1.439 . S
C109 N110 1.374 . S
C109 C143 1.395 . S
N110 C106 1.376 . S
N110 C109 1.374 . S
N110 Co111 2.008 . S
Co111 N110 2.008 . S
Co111 N112 1.995 1_556 S
Co111 N117 2.008 1_556 S
Co111 N122 1.995 . S
Co111 N127 2.282 . S
Co111 N133 2.282 1_556 S
N112 Co111 1.995 1_554 S
N112 C113 1.376 1_554 S
N112 C116 1.383 . S
C113 N112 1.376 1_556 S
C113 C114 1.446 1_556 S
C113 C143 1.391 . S
C114 C113 1.446 1_554 S
C114 C115 1.339 . S
C114 H149 0.949 . S
C115 C114 1.339 . S
C115 C116 1.439 . S
C115 H150 0.950 . S
C116 N112 1.383 . S
C116 C115 1.439 . S
C116 C145 1.392 . S
N117 Co111 2.008 1_554 S
N117 C118 1.376 . S
N117 C121 1.374 . S
C118 N117 1.376 . S
C118 C119 1.443 . S
C118 C145 1.389 . S
C119 C118 1.443 . S
C119 C120 1.340 . S
C119 H151 0.951 . S
C120 C119 1.340 . S
C120 C121 1.439 . S
C120 H152 0.950 . S
C121 N117 1.374 . S
C121 C120 1.439 . S
C121 C146 1.395 . S
N122 Co111 1.995 . S
N122 C123 1.376 1_556 S
N122 C126 1.383 . S
C123 N122 1.376 1_554 S
C123 C124 1.446 1_554 S
C123 C146 1.391 . S
C124 C123 1.446 1_556 S
C124 C125 1.339 . S
C124 H153 0.949 . S
C125 C124 1.339 . S
C125 C126 1.439 . S
C125 H154 0.950 . S
C126 N122 1.383 . S
C126 C125 1.439 . S
C126 C144 1.392 . S
N127 Co111 2.282 . S
N127 C130 1.332 1_556 S
N127 C132 1.332 . S
C128 C129 1.386 . S
C128 C131 1.388 1_554 S
C129 C128 1.386 . S
C129 C130 1.382 . S
C129 H155 0.950 . S
C130 N127 1.332 1_554 S
C130 C129 1.382 . S
C130 H141 0.952 . S
C131 C128 1.388 1_556 S
C131 C132 1.382 . S
C131 H156 0.950 . S
C132 N127 1.332 . S
C132 C131 1.382 . S
C132 H142 0.948 . S
N133 Co111 2.282 1_554 S
N133 C137 1.332 1_554 S
N133 C138 1.332 . S
C134 C135 1.388 1_554 S
C134 C138 1.382 . S
C134 H157 0.950 . S
C135 C134 1.388 1_556 S
C135 C136 1.386 . S
C136 C135 1.386 . S
C136 C137 1.382 . S
C136 H158 0.950 . S
C137 N133 1.332 1_556 S
C137 C136 1.382 . S
C137 H139 0.952 . S
C138 N133 1.332 . S
C138 C134 1.382 . S
C138 H140 0.948 . S
H139 C137 0.952 . S
H140 C138 0.948 . S
H141 C130 0.952 . S
H142 C132 0.948 . S
C143 C109 1.395 . S
C143 C113 1.391 . S
C144 C106 1.389 . S
C144 C126 1.392 . S
C145 C116 1.392 . S
C145 C118 1.389 . S
C146 C121 1.395 . S
C146 C123 1.391 . S
H147 C107 0.951 . S
H148 C108 0.950 . S
H149 C114 0.949 . S
H150 C115 0.950 . S
H151 C119 0.951 . S
H152 C120 0.950 . S
H153 C124 0.949 . S
H154 C125 0.950 . S
H155 C129 0.950 . S
H156 C131 0.950 . S
H157 C134 0.950 . S
H158 C136 0.950 . S
C159 C160 1.443 . S
C159 N163 1.376 . S
C159 C197 1.389 . S
C160 C159 1.443 . S
C160 C161 1.340 . S
C160 H200 0.951 . S
C161 C160 1.340 . S
C161 C162 1.439 . S
C161 H201 0.950 . S
C162 C161 1.439 . S
C162 N163 1.374 . S
C162 C196 1.395 . S
N163 C159 1.376 . S
N163 C162 1.374 . S
N163 Co164 2.008 . S
Co164 N163 2.008 . S
Co164 N165 1.995 . S
Co164 N170 2.008 . S
Co164 N175 1.995 . S
Co164 N180 2.282 . S
Co164 N186 2.282 . S
N165 Co164 1.995 . S
N165 C166 1.376 . S
N165 C169 1.383 . S
C166 N165 1.376 . S
C166 C167 1.446 . S
C166 C196 1.391 . S
C167 C166 1.446 . S
C167 C168 1.339 . S
C167 H202 0.949 . S
C168 C167 1.339 . S
C168 C169 1.439 . S
C168 H203 0.950 . S
C169 N165 1.383 . S
C169 C168 1.439 . S
C169 C198 1.392 . S
N170 Co164 2.008 . S
N170 C171 1.376 . S
N170 C174 1.374 . S
C171 N170 1.376 . S
C171 C172 1.443 . S
C171 C198 1.389 . S
C172 C171 1.443 . S
C172 C173 1.340 . S
C172 H204 0.951 . S
C173 C172 1.340 . S
C173 C174 1.439 . S
C173 H205 0.950 . S
C174 N170 1.374 . S
C174 C173 1.439 . S
C174 C199 1.395 . S
N175 Co164 1.995 . S
N175 C176 1.376 . S
N175 C179 1.383 . S
C176 N175 1.376 . S
C176 C177 1.446 . S
C176 C199 1.391 . S
C177 C176 1.446 . S
C177 C178 1.339 . S
C177 H206 0.949 . S
C178 C177 1.339 . S
C178 C179 1.439 . S
C178 H207 0.950 . S
C179 N175 1.383 . S
C179 C178 1.439 . S
C179 C197 1.392 . S
N180 Co164 2.282 . S
N180 C183 1.332 . S
N180 C185 1.332 . S
C181 C182 1.386 . S
C181 C184 1.388 . S
C182 C181 1.386 . S
C182 C183 1.382 . S
C182 H208 0.950 . S
C183 N180 1.332 . S
C183 C182 1.382 . S
C183 H194 0.952 . S
C184 C181 1.388 . S
C184 C185 1.382 . S
C184 H209 0.950 . S
C185 N180 1.332 . S
C185 C184 1.382 . S
C185 H195 0.948 . S
N186 Co164 2.282 . S
N186 C190 1.332 . S
N186 C191 1.332 . S
C187 C188 1.388 . S
C187 C191 1.382 . S
C187 H210 0.950 . S
C188 C187 1.388 . S
C188 C189 1.386 . S
C189 C188 1.386 . S
C189 C190 1.382 . S
C189 H211 0.950 . S
C190 N186 1.332 . S
C190 C189 1.382 . S
C190 H192 0.952 . S
C191 N186 1.332 . S
C191 C187 1.382 . S
C191 H193 0.948 . S
H192 C190 0.952 . S
H193 C191 0.948 . S
H194 C183 0.952 . S
H195 C185 0.948 . S
C196 C162 1.395 . S
C196 C166 1.391 . S
C197 C159 1.389 . S
C197 C179 1.392 . S
C198 C169 1.392 . S
C198 C171 1.389 . S
C199 C174 1.395 . S
C199 C176 1.391 . S
H200 C160 0.951 . S
H201 C161 0.950 . S
H202 C167 0.949 . S
H203 C168 0.950 . S
H204 C172 0.951 . S
H205 C173 0.950 . S
H206 C177 0.949 . S
H207 C178 0.950 . S
H208 C182 0.950 . S
H209 C184 0.950 . S
H210 C187 0.950 . S
H211 C189 0.950 . S
C212 C213 1.443 . S
C212 N216 1.376 . S
C212 C250 1.389 . S
C213 C212 1.443 . S
C213 C214 1.340 . S
C213 H253 0.951 . S
C214 C213 1.340 . S
C214 C215 1.439 . S
C214 H254 0.950 . S
C215 C214 1.439 . S
C215 N216 1.374 . S
C215 C249 1.395 . S
N216 C212 1.376 . S
N216 C215 1.374 . S
N216 Co217 2.008 . S
Co217 N216 2.008 . S
Co217 N218 1.995 . S
Co217 N223 2.008 . S
Co217 N228 1.995 . S
Co217 N233 2.282 . S
Co217 N239 2.282 . S
N218 Co217 1.995 . S
N218 C219 1.376 . S
N218 C222 1.383 . S
C219 N218 1.376 . S
C219 C220 1.446 . S
C219 C249 1.391 . S
C220 C219 1.446 . S
C220 C221 1.339 . S
C220 H255 0.949 . S
C221 C220 1.339 . S
C221 C222 1.439 . S
C221 H256 0.950 . S
C222 N218 1.383 . S
C222 C221 1.439 . S
C222 C251 1.392 . S
N223 Co217 2.008 . S
N223 C224 1.376 . S
N223 C227 1.374 . S
C224 N223 1.376 . S
C224 C225 1.443 . S
C224 C251 1.389 . S
C225 C224 1.443 . S
C225 C226 1.340 . S
C225 H257 0.951 . S
C226 C225 1.340 . S
C226 C227 1.439 . S
C226 H258 0.950 . S
C227 N223 1.374 . S
C227 C226 1.439 . S
C227 C252 1.395 . S
N228 Co217 1.995 . S
N228 C229 1.376 . S
N228 C232 1.383 . S
C229 N228 1.376 . S
C229 C230 1.446 . S
C229 C252 1.391 . S
C230 C229 1.446 . S
C230 C231 1.339 . S
C230 H259 0.949 . S
C231 C230 1.339 . S
C231 C232 1.439 . S
C231 H260 0.950 . S
C232 N228 1.383 . S
C232 C231 1.439 . S
C232 C250 1.392 . S
N233 Co217 2.282 . S
N233 C236 1.332 . S
N233 C238 1.332 . S
C234 C235 1.386 . S
C234 C237 1.388 . S
C235 C234 1.386 . S
C235 C236 1.382 . S
C235 H261 0.950 . S
C236 N233 1.332 . S
C236 C235 1.382 . S
C236 H247 0.952 . S
C237 C234 1.388 . S
C237 C238 1.382 . S
C237 H262 0.950 . S
C238 N233 1.332 . S
C238 C237 1.382 . S
C238 H248 0.948 . S
N239 Co217 2.282 . S
N239 C243 1.332 . S
N239 C244 1.332 . S
C240 C241 1.388 . S
C240 C244 1.382 . S
C240 H263 0.950 . S
C241 C240 1.388 . S
C241 C242 1.386 . S
C242 C241 1.386 . S
C242 C243 1.382 . S
C242 H264 0.950 . S
C243 N239 1.332 . S
C243 C242 1.382 . S
C243 H245 0.952 . S
C244 N239 1.332 . S
C244 C240 1.382 . S
C244 H246 0.948 . S
H245 C243 0.952 . S
H246 C244 0.948 . S
H247 C236 0.952 . S
H248 C238 0.948 . S
C249 C215 1.395 . S
C249 C219 1.391 . S
C250 C212 1.389 . S
C250 C232 1.392 . S
C251 C222 1.392 . S
C251 C224 1.389 . S
C252 C227 1.395 . S
C252 C229 1.391 . S
H253 C213 0.951 . S
H254 C214 0.950 . S
H255 C220 0.949 . S
H256 C221 0.950 . S
H257 C225 0.951 . S
H258 C226 0.950 . S
H259 C230 0.949 . S
H260 C231 0.950 . S
H261 C235 0.950 . S
H262 C237 0.950 . S
H263 C240 0.950 . S
H264 C242 0.950 . S
C265 C266 1.443 . S
C265 N269 1.376 . S
C265 C303 1.389 . S
C266 C265 1.443 . S
C266 C267 1.340 . S
C266 H306 0.951 . S
C267 C266 1.340 . S
C267 C268 1.439 . S
C267 H307 0.950 . S
C268 C267 1.439 . S
C268 N269 1.374 . S
C268 C302 1.395 . S
N269 C265 1.376 . S
N269 C268 1.374 . S
N269 Co270 2.008 . S
Co270 N269 2.008 . S
Co270 N271 1.995 1_556 S
Co270 N276 2.008 1_556 S
Co270 N281 1.995 . S
Co270 N286 2.282 . S
Co270 N292 2.282 1_556 S
N271 Co270 1.995 1_554 S
N271 C272 1.376 1_554 S
N271 C275 1.383 . S
C272 N271 1.376 1_556 S
C272 C273 1.446 1_556 S
C272 C302 1.391 . S
C273 C272 1.446 1_554 S
C273 C274 1.339 . S
C273 H308 0.949 . S
C274 C273 1.339 . S
C274 C275 1.439 . S
C274 H309 0.950 . S
C275 N271 1.383 . S
C275 C274 1.439 . S
C275 C304 1.392 . S
N276 Co270 2.008 1_554 S
N276 C277 1.376 . S
N276 C280 1.374 . S
C277 N276 1.376 . S
C277 C278 1.443 . S
C277 C304 1.389 . S
C278 C277 1.443 . S
C278 C279 1.340 . S
C278 H310 0.951 . S
C279 C278 1.340 . S
C279 C280 1.439 . S
C279 H311 0.950 . S
C280 N276 1.374 . S
C280 C279 1.439 . S
C280 C305 1.395 . S
N281 Co270 1.995 . S
N281 C282 1.376 1_556 S
N281 C285 1.383 . S
C282 N281 1.376 1_554 S
C282 C283 1.446 1_554 S
C282 C305 1.391 . S
C283 C282 1.446 1_556 S
C283 C284 1.339 . S
C283 H312 0.949 . S
C284 C283 1.339 . S
C284 C285 1.439 . S
C284 H313 0.950 . S
C285 N281 1.383 . S
C285 C284 1.439 . S
C285 C303 1.392 . S
N286 Co270 2.282 . S
N286 C289 1.332 1_556 S
N286 C291 1.332 . S
C287 C288 1.386 . S
C287 C290 1.388 1_554 S
C288 C287 1.386 . S
C288 C289 1.382 . S
C288 H314 0.950 . S
C289 N286 1.332 1_554 S
C289 C288 1.382 . S
C289 H300 0.952 . S
C290 C287 1.388 1_556 S
C290 C291 1.382 . S
C290 H315 0.950 . S
C291 N286 1.332 . S
C291 C290 1.382 . S
C291 H301 0.948 . S
N292 Co270 2.282 1_554 S
N292 C296 1.332 1_554 S
N292 C297 1.332 . S
C293 C294 1.388 1_554 S
C293 C297 1.382 . S
C293 H316 0.950 . S
C294 C293 1.388 1_556 S
C294 C295 1.386 . S
C295 C294 1.386 . S
C295 C296 1.382 . S
C295 H317 0.950 . S
C296 N292 1.332 1_556 S
C296 C295 1.382 . S
C296 H298 0.952 . S
C297 N292 1.332 . S
C297 C293 1.382 . S
C297 H299 0.948 . S
H298 C296 0.952 . S
H299 C297 0.948 . S
H300 C289 0.952 . S
H301 C291 0.948 . S
C302 C268 1.395 . S
C302 C272 1.391 . S
C303 C265 1.389 . S
C303 C285 1.392 . S
C304 C275 1.392 . S
C304 C277 1.389 . S
C305 C280 1.395 . S
C305 C282 1.391 . S
H306 C266 0.951 . S
H307 C267 0.950 . S
H308 C273 0.949 . S
H309 C274 0.950 . S
H310 C278 0.951 . S
H311 C279 0.950 . S
H312 C283 0.949 . S
H313 C284 0.950 . S
H314 C288 0.950 . S
H315 C290 0.950 . S
H316 C293 0.950 . S
H317 C295 0.950 . S
C318 C319 1.443 . S
C318 N322 1.376 . S
C318 C356 1.389 . S
C319 C318 1.443 . S
C319 C320 1.340 . S
C319 H359 0.951 . S
C320 C319 1.340 . S
C320 C321 1.439 . S
C320 H360 0.950 . S
C321 C320 1.439 . S
C321 N322 1.374 . S
C321 C355 1.395 . S
N322 C318 1.376 . S
N322 C321 1.374 . S
N322 Co323 2.008 . S
Co323 N322 2.008 . S
Co323 N324 1.995 . S
Co323 N329 2.008 . S
Co323 N334 1.995 . S
Co323 N339 2.282 . S
Co323 N345 2.282 . S
N324 Co323 1.995 . S
N324 C325 1.376 . S
N324 C328 1.383 . S
C325 N324 1.376 . S
C325 C326 1.446 . S
C325 C355 1.391 . S
C326 C325 1.446 . S
C326 C327 1.339 . S
C326 H361 0.949 . S
C327 C326 1.339 . S
C327 C328 1.439 . S
C327 H362 0.950 . S
C328 N324 1.383 . S
C328 C327 1.439 . S
C328 C357 1.392 . S
N329 Co323 2.008 . S
N329 C330 1.376 . S
N329 C333 1.374 . S
C330 N329 1.376 . S
C330 C331 1.443 . S
C330 C357 1.389 . S
C331 C330 1.443 . S
C331 C332 1.340 . S
C331 H363 0.951 . S
C332 C331 1.340 . S
C332 C333 1.439 . S
C332 H364 0.950 . S
C333 N329 1.374 . S
C333 C332 1.439 . S
C333 C358 1.395 . S
N334 Co323 1.995 . S
N334 C335 1.376 . S
N334 C338 1.383 . S
C335 N334 1.376 . S
C335 C336 1.446 . S
C335 C358 1.391 . S
C336 C335 1.446 . S
C336 C337 1.339 . S
C336 H365 0.949 . S
C337 C336 1.339 . S
C337 C338 1.439 . S
C337 H366 0.950 . S
C338 N334 1.383 . S
C338 C337 1.439 . S
C338 C356 1.392 . S
N339 Co323 2.282 . S
N339 C342 1.332 . S
N339 C344 1.332 . S
C340 C341 1.386 . S
C340 C343 1.388 . S
C341 C340 1.386 . S
C341 C342 1.382 . S
C341 H367 0.950 . S
C342 N339 1.332 . S
C342 C341 1.382 . S
C342 H353 0.952 . S
C343 C340 1.388 . S
C343 C344 1.382 . S
C343 H368 0.950 . S
C344 N339 1.332 . S
C344 C343 1.382 . S
C344 H354 0.948 . S
N345 Co323 2.282 . S
N345 C349 1.332 . S
N345 C350 1.332 . S
C346 C347 1.388 . S
C346 C350 1.382 . S
C346 H369 0.950 . S
C347 C346 1.388 . S
C347 C348 1.386 . S
C348 C347 1.386 . S
C348 C349 1.382 . S
C348 H370 0.950 . S
C349 N345 1.332 . S
C349 C348 1.382 . S
C349 H351 0.952 . S
C350 N345 1.332 . S
C350 C346 1.382 . S
C350 H352 0.948 . S
H351 C349 0.952 . S
H352 C350 0.948 . S
H353 C342 0.952 . S
H354 C344 0.948 . S
C355 C321 1.395 . S
C355 C325 1.391 . S
C356 C318 1.389 . S
C356 C338 1.392 . S
C357 C328 1.392 . S
C357 C330 1.389 . S
C358 C333 1.395 . S
C358 C335 1.391 . S
H359 C319 0.951 . S
H360 C320 0.950 . S
H361 C326 0.949 . S
H362 C327 0.950 . S
H363 C331 0.951 . S
H364 C332 0.950 . S
H365 C336 0.949 . S
H366 C337 0.950 . S
H367 C341 0.950 . S
H368 C343 0.950 . S
H369 C346 0.950 . S
H370 C348 0.950 . S
C371 C372 1.443 . S
C371 N375 1.376 . S
C371 C409 1.389 . S
C372 C371 1.443 . S
C372 C373 1.340 . S
C372 H412 0.951 . S
C373 C372 1.340 . S
C373 C374 1.439 . S
C373 H413 0.950 . S
C374 C373 1.439 . S
C374 N375 1.374 . S
C374 C408 1.395 . S
N375 C371 1.376 . S
N375 C374 1.374 . S
N375 Co376 2.008 . S
Co376 N375 2.008 . S
Co376 N377 1.995 . S
Co376 N382 2.008 . S
Co376 N387 1.995 . S
Co376 N392 2.282 . S
Co376 N398 2.282 . S
N377 Co376 1.995 . S
N377 C378 1.376 . S
N377 C381 1.383 . S
C378 N377 1.376 . S
C378 C379 1.446 . S
C378 C408 1.391 . S
C379 C378 1.446 . S
C379 C380 1.339 . S
C379 H414 0.949 . S
C380 C379 1.339 . S
C380 C381 1.439 . S
C380 H415 0.950 . S
C381 N377 1.383 . S
C381 C380 1.439 . S
C381 C410 1.392 . S
N382 Co376 2.008 . S
N382 C383 1.376 . S
N382 C386 1.374 . S
C383 N382 1.376 . S
C383 C384 1.443 . S
C383 C410 1.389 . S
C384 C383 1.443 . S
C384 C385 1.340 . S
C384 H416 0.951 . S
C385 C384 1.340 . S
C385 C386 1.439 . S
C385 H417 0.950 . S
C386 N382 1.374 . S
C386 C385 1.439 . S
C386 C411 1.395 . S
N387 Co376 1.995 . S
N387 C388 1.376 . S
N387 C391 1.383 . S
C388 N387 1.376 . S
C388 C389 1.446 . S
C388 C411 1.391 . S
C389 C388 1.446 . S
C389 C390 1.339 . S
C389 H418 0.949 . S
C390 C389 1.339 . S
C390 C391 1.439 . S
C390 H419 0.950 . S
C391 N387 1.383 . S
C391 C390 1.439 . S
C391 C409 1.392 . S
N392 Co376 2.282 . S
N392 C395 1.332 . S
N392 C397 1.332 . S
C393 C394 1.386 . S
C393 C396 1.388 . S
C394 C393 1.386 . S
C394 C395 1.382 . S
C394 H420 0.950 . S
C395 N392 1.332 . S
C395 C394 1.382 . S
C395 H406 0.952 . S
C396 C393 1.388 . S
C396 C397 1.382 . S
C396 H421 0.950 . S
C397 N392 1.332 . S
C397 C396 1.382 . S
C397 H407 0.948 . S
N398 Co376 2.282 . S
N398 C402 1.332 . S
N398 C403 1.332 . S
C399 C400 1.388 . S
C399 C403 1.382 . S
C399 H422 0.950 . S
C400 C399 1.388 . S
C400 C401 1.386 . S
C401 C400 1.386 . S
C401 C402 1.382 . S
C401 H423 0.950 . S
C402 N398 1.332 . S
C402 C401 1.382 . S
C402 H404 0.952 . S
C403 N398 1.332 . S
C403 C399 1.382 . S
C403 H405 0.948 . S
H404 C402 0.952 . S
H405 C403 0.948 . S
H406 C395 0.952 . S
H407 C397 0.948 . S
C408 C374 1.395 . S
C408 C378 1.391 . S
C409 C371 1.389 . S
C409 C391 1.392 . S
C410 C381 1.392 . S
C410 C383 1.389 . S
C411 C386 1.395 . S
C411 C388 1.391 . S
H412 C372 0.951 . S
H413 C373 0.950 . S
H414 C379 0.949 . S
H415 C380 0.950 . S
H416 C384 0.951 . S
H417 C385 0.950 . S
H418 C389 0.949 . S
H419 C390 0.950 . S
H420 C394 0.950 . S
H421 C396 0.950 . S
H422 C399 0.950 . S
H423 C401 0.950 . S
C424 C425 1.443 . S
C424 N428 1.376 . S
C424 C462 1.389 . S
C425 C424 1.443 . S
C425 C426 1.340 . S
C425 H465 0.951 . S
C426 C425 1.340 . S
C426 C427 1.439 . S
C426 H466 0.950 . S
C427 C426 1.439 . S
C427 N428 1.374 . S
C427 C461 1.395 . S
N428 C424 1.376 . S
N428 C427 1.374 . S
N428 Co429 2.008 . S
Co429 N428 2.008 . S
Co429 N430 1.995 1_554 S
Co429 N435 2.008 1_554 S
Co429 N440 1.995 . S
Co429 N445 2.282 . S
Co429 N451 2.282 1_554 S
N430 Co429 1.995 1_556 S
N430 C431 1.376 1_556 S
N430 C434 1.383 . S
C431 N430 1.376 1_554 S
C431 C432 1.446 1_554 S
C431 C461 1.391 . S
C432 C431 1.446 1_556 S
C432 C433 1.339 . S
C432 H467 0.949 . S
C433 C432 1.339 . S
C433 C434 1.439 . S
C433 H468 0.950 . S
C434 N430 1.383 . S
C434 C433 1.439 . S
C434 C463 1.392 . S
N435 Co429 2.008 1_556 S
N435 C436 1.376 . S
N435 C439 1.374 . S
C436 N435 1.376 . S
C436 C437 1.443 . S
C436 C463 1.389 . S
C437 C436 1.443 . S
C437 C438 1.340 . S
C437 H469 0.951 . S
C438 C437 1.340 . S
C438 C439 1.439 . S
C438 H470 0.950 . S
C439 N435 1.374 . S
C439 C438 1.439 . S
C439 C464 1.395 . S
N440 Co429 1.995 . S
N440 C441 1.376 1_554 S
N440 C444 1.383 . S
C441 N440 1.376 1_556 S
C441 C442 1.446 1_556 S
C441 C464 1.391 . S
C442 C441 1.446 1_554 S
C442 C443 1.339 . S
C442 H471 0.949 . S
C443 C442 1.339 . S
C443 C444 1.439 . S
C443 H472 0.950 . S
C444 N440 1.383 . S
C444 C443 1.439 . S
C444 C462 1.392 . S
N445 Co429 2.282 . S
N445 C448 1.332 1_554 S
N445 C450 1.332 . S
C446 C447 1.386 . S
C446 C449 1.388 1_556 S
C447 C446 1.386 . S
C447 C448 1.382 . S
C447 H473 0.950 . S
C448 N445 1.332 1_556 S
C448 C447 1.382 . S
C448 H459 0.952 . S
C449 C446 1.388 1_554 S
C449 C450 1.382 . S
C449 H474 0.950 . S
C450 N445 1.332 . S
C450 C449 1.382 . S
C450 H460 0.948 . S
N451 Co429 2.282 1_556 S
N451 C455 1.332 1_556 S
N451 C456 1.332 . S
C452 C453 1.388 1_556 S
C452 C456 1.382 . S
C452 H475 0.950 . S
C453 C452 1.388 1_554 S
C453 C454 1.386 . S
C454 C453 1.386 . S
C454 C455 1.382 . S
C454 H476 0.950 . S
C455 N451 1.332 1_554 S
C455 C454 1.382 . S
C455 H457 0.952 . S
C456 N451 1.332 . S
C456 C452 1.382 . S
C456 H458 0.948 . S
H457 C455 0.952 . S
H458 C456 0.948 . S
H459 C448 0.952 . S
H460 C450 0.948 . S
C461 C427 1.395 . S
C461 C431 1.391 . S
C462 C424 1.389 . S
C462 C444 1.392 . S
C463 C434 1.392 . S
C463 C436 1.389 . S
C464 C439 1.395 . S
C464 C441 1.391 . S
H465 C425 0.951 . S
H466 C426 0.950 . S
H467 C432 0.949 . S
H468 C433 0.950 . S
H469 C437 0.951 . S
H470 C438 0.950 . S
H471 C442 0.949 . S
H472 C443 0.950 . S
H473 C447 0.950 . S
H474 C449 0.950 . S
H475 C452 0.950 . S
H476 C454 0.950 . S
C477 C478 1.443 . S
C477 N481 1.376 . S
C477 C515 1.389 . S
C478 C477 1.443 . S
C478 C479 1.340 . S
C478 H518 0.951 . S
C479 C478 1.340 . S
C479 C480 1.439 . S
C479 H519 0.950 . S
C480 C479 1.439 . S
C480 N481 1.374 . S
C480 C514 1.395 . S
N481 C477 1.376 . S
N481 C480 1.374 . S
N481 Co482 2.008 . S
Co482 N481 2.008 . S
Co482 N483 1.995 . S
Co482 N488 2.008 . S
Co482 N493 1.995 . S
Co482 N498 2.282 . S
Co482 N504 2.282 . S
N483 Co482 1.995 . S
N483 C484 1.376 . S
N483 C487 1.383 . S
C484 N483 1.376 . S
C484 C485 1.446 . S
C484 C514 1.391 . S
C485 C484 1.446 . S
C485 C486 1.339 . S
C485 H520 0.949 . S
C486 C485 1.339 . S
C486 C487 1.439 . S
C486 H521 0.950 . S
C487 N483 1.383 . S
C487 C486 1.439 . S
C487 C516 1.392 . S
N488 Co482 2.008 . S
N488 C489 1.376 . S
N488 C492 1.374 . S
C489 N488 1.376 . S
C489 C490 1.443 . S
C489 C516 1.389 . S
C490 C489 1.443 . S
C490 C491 1.340 . S
C490 H522 0.951 . S
C491 C490 1.340 . S
C491 C492 1.439 . S
C491 H523 0.950 . S
C492 N488 1.374 . S
C492 C491 1.439 . S
C492 C517 1.395 . S
N493 Co482 1.995 . S
N493 C494 1.376 . S
N493 C497 1.383 . S
C494 N493 1.376 . S
C494 C495 1.446 . S
C494 C517 1.391 . S
C495 C494 1.446 . S
C495 C496 1.339 . S
C495 H524 0.949 . S
C496 C495 1.339 . S
C496 C497 1.439 . S
C496 H525 0.950 . S
C497 N493 1.383 . S
C497 C496 1.439 . S
C497 C515 1.392 . S
N498 Co482 2.282 . S
N498 C501 1.332 . S
N498 C503 1.332 . S
C499 C500 1.386 . S
C499 C502 1.388 . S
C500 C499 1.386 . S
C500 C501 1.382 . S
C500 H526 0.950 . S
C501 N498 1.332 . S
C501 C500 1.382 . S
C501 H512 0.952 . S
C502 C499 1.388 . S
C502 C503 1.382 . S
C502 H527 0.950 . S
C503 N498 1.332 . S
C503 C502 1.382 . S
C503 H513 0.948 . S
N504 Co482 2.282 . S
N504 C508 1.332 . S
N504 C509 1.332 . S
C505 C506 1.388 . S
C505 C509 1.382 . S
C505 H528 0.950 . S
C506 C505 1.388 . S
C506 C507 1.386 . S
C507 C506 1.386 . S
C507 C508 1.382 . S
C507 H529 0.950 . S
C508 N504 1.332 . S
C508 C507 1.382 . S
C508 H510 0.952 . S
C509 N504 1.332 . S
C509 C505 1.382 . S
C509 H511 0.948 . S
H510 C508 0.952 . S
H511 C509 0.948 . S
H512 C501 0.952 . S
H513 C503 0.948 . S
C514 C480 1.395 . S
C514 C484 1.391 . S
C515 C477 1.389 . S
C515 C497 1.392 . S
C516 C487 1.392 . S
C516 C489 1.389 . S
C517 C492 1.395 . S
C517 C494 1.391 . S
H518 C478 0.951 . S
H519 C479 0.950 . S
H520 C485 0.949 . S
H521 C486 0.950 . S
H522 C490 0.951 . S
H523 C491 0.950 . S
H524 C495 0.949 . S
H525 C496 0.950 . S
H526 C500 0.950 . S
H527 C502 0.950 . S
H528 C505 0.950 . S
H529 C507 0.950 . S
C530 C531 1.443 . S
C530 N534 1.376 . S
C530 C568 1.389 . S
C531 C530 1.443 . S
C531 C532 1.340 . S
C531 H571 0.951 . S
C532 C531 1.340 . S
C532 C533 1.439 . S
C532 H572 0.950 . S
C533 C532 1.439 . S
C533 N534 1.374 . S
C533 C567 1.395 . S
N534 C530 1.376 . S
N534 C533 1.374 . S
N534 Co535 2.008 . S
Co535 N534 2.008 . S
Co535 N536 1.995 . S
Co535 N541 2.008 . S
Co535 N546 1.995 . S
Co535 N551 2.282 . S
Co535 N557 2.282 . S
N536 Co535 1.995 . S
N536 C537 1.376 . S
N536 C540 1.383 . S
C537 N536 1.376 . S
C537 C538 1.446 . S
C537 C567 1.391 . S
C538 C537 1.446 . S
C538 C539 1.339 . S
C538 H573 0.949 . S
C539 C538 1.339 . S
C539 C540 1.439 . S
C539 H574 0.950 . S
C540 N536 1.383 . S
C540 C539 1.439 . S
C540 C569 1.392 . S
N541 Co535 2.008 . S
N541 C542 1.376 . S
N541 C545 1.374 . S
C542 N541 1.376 . S
C542 C543 1.443 . S
C542 C569 1.389 . S
C543 C542 1.443 . S
C543 C544 1.340 . S
C543 H575 0.951 . S
C544 C543 1.340 . S
C544 C545 1.439 . S
C544 H576 0.950 . S
C545 N541 1.374 . S
C545 C544 1.439 . S
C545 C570 1.395 . S
N546 Co535 1.995 . S
N546 C547 1.376 . S
N546 C550 1.383 . S
C547 N546 1.376 . S
C547 C548 1.446 . S
C547 C570 1.391 . S
C548 C547 1.446 . S
C548 C549 1.339 . S
C548 H577 0.949 . S
C549 C548 1.339 . S
C549 C550 1.439 . S
C549 H578 0.950 . S
C550 N546 1.383 . S
C550 C549 1.439 . S
C550 C568 1.392 . S
N551 Co535 2.282 . S
N551 C554 1.332 . S
N551 C556 1.332 . S
C552 C553 1.386 . S
C552 C555 1.388 . S
C553 C552 1.386 . S
C553 C554 1.382 . S
C553 H579 0.950 . S
C554 N551 1.332 . S
C554 C553 1.382 . S
C554 H565 0.952 . S
C555 C552 1.388 . S
C555 C556 1.382 . S
C555 H580 0.950 . S
C556 N551 1.332 . S
C556 C555 1.382 . S
C556 H566 0.948 . S
N557 Co535 2.282 . S
N557 C561 1.332 . S
N557 C562 1.332 . S
C558 C559 1.388 . S
C558 C562 1.382 . S
C558 H581 0.950 . S
C559 C558 1.388 . S
C559 C560 1.386 . S
C560 C559 1.386 . S
C560 C561 1.382 . S
C560 H582 0.950 . S
C561 N557 1.332 . S
C561 C560 1.382 . S
C561 H563 0.952 . S
C562 N557 1.332 . S
C562 C558 1.382 . S
C562 H564 0.948 . S
H563 C561 0.952 . S
H564 C562 0.948 . S
H565 C554 0.952 . S
H566 C556 0.948 . S
C567 C533 1.395 . S
C567 C537 1.391 . S
C568 C530 1.389 . S
C568 C550 1.392 . S
C569 C540 1.392 . S
C569 C542 1.389 . S
C570 C545 1.395 . S
C570 C547 1.391 . S
H571 C531 0.951 . S
H572 C532 0.950 . S
H573 C538 0.949 . S
H574 C539 0.950 . S
H575 C543 0.951 . S
H576 C544 0.950 . S
H577 C548 0.949 . S
H578 C549 0.950 . S
H579 C553 0.950 . S
H580 C555 0.950 . S
H581 C558 0.950 . S
H582 C560 0.950 . S
C583 C584 1.443 . S
C583 N587 1.376 . S
C583 C621 1.389 . S
C584 C583 1.443 . S
C584 C585 1.340 . S
C584 H624 0.951 . S
C585 C584 1.340 . S
C585 C586 1.439 . S
C585 H625 0.950 . S
C586 C585 1.439 . S
C586 N587 1.374 . S
C586 C620 1.395 . S
N587 C583 1.376 . S
N587 C586 1.374 . S
N587 Co588 2.008 . S
Co588 N587 2.008 . S
Co588 N589 1.995 1_554 S
Co588 N594 2.008 1_554 S
Co588 N599 1.995 . S
Co588 N604 2.282 . S
Co588 N610 2.282 1_554 S
N589 Co588 1.995 1_556 S
N589 C590 1.376 1_556 S
N589 C593 1.383 . S
C590 N589 1.376 1_554 S
C590 C591 1.446 1_554 S
C590 C620 1.391 . S
C591 C590 1.446 1_556 S
C591 C592 1.339 . S
C591 H626 0.949 . S
C592 C591 1.339 . S
C592 C593 1.439 . S
C592 H627 0.950 . S
C593 N589 1.383 . S
C593 C592 1.439 . S
C593 C622 1.392 . S
N594 Co588 2.008 1_556 S
N594 C595 1.376 . S
N594 C598 1.374 . S
C595 N594 1.376 . S
C595 C596 1.443 . S
C595 C622 1.389 . S
C596 C595 1.443 . S
C596 C597 1.340 . S
C596 H628 0.951 . S
C597 C596 1.340 . S
C597 C598 1.439 . S
C597 H629 0.950 . S
C598 N594 1.374 . S
C598 C597 1.439 . S
C598 C623 1.395 . S
N599 Co588 1.995 . S
N599 C600 1.376 1_554 S
N599 C603 1.383 . S
C600 N599 1.376 1_556 S
C600 C601 1.446 1_556 S
C600 C623 1.391 . S
C601 C600 1.446 1_554 S
C601 C602 1.339 . S
C601 H630 0.949 . S
C602 C601 1.339 . S
C602 C603 1.439 . S
C602 H631 0.950 . S
C603 N599 1.383 . S
C603 C602 1.439 . S
C603 C621 1.392 . S
N604 Co588 2.282 . S
N604 C607 1.332 1_554 S
N604 C609 1.332 . S
C605 C606 1.386 . S
C605 C608 1.388 1_556 S
C606 C605 1.386 . S
C606 C607 1.382 . S
C606 H632 0.950 . S
C607 N604 1.332 1_556 S
C607 C606 1.382 . S
C607 H618 0.952 . S
C608 C605 1.388 1_554 S
C608 C609 1.382 . S
C608 H633 0.950 . S
C609 N604 1.332 . S
C609 C608 1.382 . S
C609 H619 0.948 . S
N610 Co588 2.282 1_556 S
N610 C614 1.332 1_556 S
N610 C615 1.332 . S
C611 C612 1.388 1_556 S
C611 C615 1.382 . S
C611 H634 0.950 . S
C612 C611 1.388 1_554 S
C612 C613 1.386 . S
C613 C612 1.386 . S
C613 C614 1.382 . S
C613 H635 0.950 . S
C614 N610 1.332 1_554 S
C614 C613 1.382 . S
C614 H616 0.952 . S
C615 N610 1.332 . S
C615 C611 1.382 . S
C615 H617 0.948 . S
H616 C614 0.952 . S
H617 C615 0.948 . S
H618 C607 0.952 . S
H619 C609 0.948 . S
C620 C586 1.395 . S
C620 C590 1.391 . S
C621 C583 1.389 . S
C621 C603 1.392 . S
C622 C593 1.392 . S
C622 C595 1.389 . S
C623 C598 1.395 . S
C623 C600 1.391 . S
H624 C584 0.951 . S
H625 C585 0.950 . S
H626 C591 0.949 . S
H627 C592 0.950 . S
H628 C596 0.951 . S
H629 C597 0.950 . S
H630 C601 0.949 . S
H631 C602 0.950 . S
H632 C606 0.950 . S
H633 C608 0.950 . S
H634 C611 0.950 . S
H635 C613 0.950 . S
C636 C637 1.387 . S
C636 H640 0.950 . S
C636 C645 1.390 . S
C637 C636 1.387 . S
C637 C639 1.387 . S
H638 C645 0.950 . S
C639 C637 1.387 . S
C639 C641 1.390 . S
C639 H643 0.950 . S
H640 C636 0.950 . S
C641 C639 1.390 . S
C641 C642 1.387 . S
C641 H644 0.950 . S
C642 C641 1.387 . S
C642 C645 1.387 . S
H643 C639 0.950 . S
H644 C641 0.950 . S
C645 C636 1.390 . S
C645 H638 0.950 . S
C645 C642 1.387 . S
C646 C647 1.387 . S
C646 H650 0.950 . S
C646 C655 1.390 . S
C647 C646 1.387 . S
C647 C649 1.387 . S
H648 C655 0.950 . S
C649 C647 1.387 . S
C649 C651 1.390 . S
C649 H653 0.950 . S
H650 C646 0.950 . S
C651 C649 1.390 . S
C651 C652 1.387 . S
C651 H654 0.950 . S
C652 C651 1.387 . S
C652 C655 1.387 . S
H653 C649 0.950 . S
H654 C651 0.950 . S
C655 C646 1.390 . S
C655 H648 0.950 . S
C655 C652 1.387 . S
C656 C657 1.387 . S
C656 H660 0.950 . S
C656 C665 1.390 . S
C657 C656 1.387 . S
C657 C659 1.387 . S
H658 C665 0.950 . S
C659 C657 1.387 . S
C659 C661 1.390 . S
C659 H663 0.950 . S
H660 C656 0.950 . S
C661 C659 1.390 . S
C661 C662 1.387 . S
C661 H664 0.950 . S
C662 C661 1.387 . S
C662 C665 1.387 . S
H663 C659 0.950 . S
H664 C661 0.950 . S
C665 C656 1.390 . S
C665 H658 0.950 . S
C665 C662 1.387 . S
C666 C667 1.387 . S
C666 H670 0.950 . S
C666 C675 1.390 . S
C667 C666 1.387 . S
C667 C669 1.387 . S
H668 C675 0.950 . S
C669 C667 1.387 . S
C669 C671 1.390 . S
C669 H673 0.950 . S
H670 C666 0.950 . S
C671 C669 1.390 . S
C671 C672 1.387 . S
C671 H674 0.950 . S
C672 C671 1.387 . S
C672 C675 1.387 . S
H673 C669 0.950 . S
H674 C671 0.950 . S
C675 C666 1.390 . S
C675 H668 0.950 . S
C675 C672 1.387 . S
C676 C677 1.387 . S
C676 H680 0.950 . S
C676 C685 1.390 . S
C677 C676 1.387 . S
C677 C679 1.387 . S
H678 C685 0.950 . S
C679 C677 1.387 . S
C679 C681 1.390 . S
C679 H683 0.950 . S
H680 C676 0.950 . S
C681 C679 1.390 . S
C681 C682 1.387 . S
C681 H684 0.950 . S
C682 C681 1.387 . S
C682 C685 1.387 . S
H683 C679 0.950 . S
H684 C681 0.950 . S
C685 C676 1.390 . S
C685 H678 0.950 . S
C685 C682 1.387 . S
C686 C687 1.387 . S
C686 H690 0.950 . S
C686 C695 1.390 . S
C687 C686 1.387 . S
C687 C689 1.387 . S
H688 C695 0.950 . S
C689 C687 1.387 . S
C689 C691 1.390 . S
C689 H693 0.950 . S
H690 C686 0.950 . S
C691 C689 1.390 . S
C691 C692 1.387 . S
C691 H694 0.950 . S
C692 C691 1.387 . S
C692 C695 1.387 . S
H693 C689 0.950 . S
H694 C691 0.950 . S
C695 C686 1.390 . S
C695 H688 0.950 . S
C695 C692 1.387 . S
C696 C697 1.387 . S
C696 H700 0.950 . S
C696 C705 1.390 . S
C697 C696 1.387 . S
C697 C699 1.387 . S
H698 C705 0.950 . S
C699 C697 1.387 . S
C699 C701 1.390 . S
C699 H703 0.950 . S
H700 C696 0.950 . S
C701 C699 1.390 . S
C701 C702 1.387 . S
C701 H704 0.950 . S
C702 C701 1.387 . S
C702 C705 1.387 . S
H703 C699 0.950 . S
H704 C701 0.950 . S
C705 C696 1.390 . S
C705 H698 0.950 . S
C705 C702 1.387 . S
C706 C707 1.387 . S
C706 H710 0.950 . S
C706 C715 1.390 . S
C707 C706 1.387 . S
C707 C709 1.387 . S
H708 C715 0.950 . S
C709 C707 1.387 . S
C709 C711 1.390 . S
C709 H713 0.950 . S
H710 C706 0.950 . S
C711 C709 1.390 . S
C711 C712 1.387 . S
C711 H714 0.950 . S
C712 C711 1.387 . S
C712 C715 1.387 . S
H713 C709 0.950 . S
H714 C711 0.950 . S
C715 C706 1.390 . S
C715 H708 0.950 . S
C715 C712 1.387 . S
C716 C717 1.387 . S
C716 H720 0.950 . S
C716 C725 1.390 1_554 S
C717 C716 1.387 . S
C717 C719 1.387 . S
H718 C725 0.950 . S
C719 C717 1.387 . S
C719 C721 1.390 1_554 S
C719 H723 0.950 . S
H720 C716 0.950 . S
C721 C719 1.390 1_556 S
C721 C722 1.387 . S
C721 H724 0.950 . S
C722 C721 1.387 . S
C722 C725 1.387 . S
H723 C719 0.950 . S
H724 C721 0.950 . S
C725 C716 1.390 1_556 S
C725 H718 0.950 . S
C725 C722 1.387 . S
C726 C727 1.387 . S
C726 H730 0.950 . S
C726 C735 1.390 . S
C727 C726 1.387 . S
C727 C729 1.387 . S
H728 C735 0.950 . S
C729 C727 1.387 . S
C729 C731 1.390 . S
C729 H733 0.950 . S
H730 C726 0.950 . S
C731 C729 1.390 . S
C731 C732 1.387 . S
C731 H734 0.950 . S
C732 C731 1.387 . S
C732 C735 1.387 . S
H733 C729 0.950 . S
H734 C731 0.950 . S
C735 C726 1.390 . S
C735 H728 0.950 . S
C735 C732 1.387 . S
C736 C737 1.387 . S
C736 H740 0.950 . S
C736 C745 1.390 . S
C737 C736 1.387 . S
C737 C739 1.387 . S
H738 C745 0.950 . S
C739 C737 1.387 . S
C739 C741 1.390 . S
C739 H743 0.950 . S
H740 C736 0.950 . S
C741 C739 1.390 . S
C741 C742 1.387 . S
C741 H744 0.950 . S
C742 C741 1.387 . S
C742 C745 1.387 . S
H743 C739 0.950 . S
H744 C741 0.950 . S
C745 C736 1.390 . S
C745 H738 0.950 . S
C745 C742 1.387 . S
C746 C747 1.387 . S
C746 H750 0.950 . S
C746 C755 1.390 1_556 S
C747 C746 1.387 . S
C747 C749 1.387 . S
H748 C755 0.950 . S
C749 C747 1.387 . S
C749 C751 1.390 1_556 S
C749 H753 0.950 . S
H750 C746 0.950 . S
C751 C749 1.390 1_554 S
C751 C752 1.387 . S
C751 H754 0.950 . S
C752 C751 1.387 . S
C752 C755 1.387 . S
H753 C749 0.950 . S
H754 C751 0.950 . S
C755 C746 1.390 1_554 S
C755 H748 0.950 . S
C755 C752 1.387 . S
C756 C757 1.387 . S
C756 H760 0.950 . S
C756 C765 1.390 1_545 S
C757 C756 1.387 . S
C757 C759 1.387 . S
H758 C765 0.950 . S
C759 C757 1.387 . S
C759 C761 1.390 1_545 S
C759 H763 0.950 . S
H760 C756 0.950 . S
C761 C759 1.390 1_565 S
C761 C762 1.387 . S
C761 H764 0.950 . S
C762 C761 1.387 . S
C762 C765 1.387 . S
H763 C759 0.950 . S
H764 C761 0.950 . S
C765 C756 1.390 1_565 S
C765 H758 0.950 . S
C765 C762 1.387 . S
C766 C767 1.387 . S
C766 H770 0.950 . S
C766 C775 1.390 . S
C767 C766 1.387 . S
C767 C769 1.387 . S
H768 C775 0.950 . S
C769 C767 1.387 . S
C769 C771 1.390 . S
C769 H773 0.950 . S
H770 C766 0.950 . S
C771 C769 1.390 . S
C771 C772 1.387 . S
C771 H774 0.950 . S
C772 C771 1.387 . S
C772 C775 1.387 . S
H773 C769 0.950 . S
H774 C771 0.950 . S
C775 C766 1.390 . S
C775 H768 0.950 . S
C775 C772 1.387 . S
C776 C777 1.387 1_556 S
C776 H780 0.950 . S
C776 C785 1.390 1_655 S
C777 C776 1.387 1_554 S
C777 C779 1.387 . S
H778 C785 0.950 . S
C779 C777 1.387 . S
C779 C781 1.390 1_655 S
C779 H783 0.950 . S
H780 C776 0.950 . S
C781 C779 1.390 1_455 S
C781 C782 1.387 . S
C781 H784 0.950 . S
C782 C781 1.387 . S
C782 C785 1.387 1_554 S
H783 C779 0.950 . S
H784 C781 0.950 . S
C785 C776 1.390 1_455 S
C785 H778 0.950 . S
C785 C782 1.387 1_556 S
C786 C787 1.387 . S
C786 H790 0.950 . S
C786 C795 1.390 1_455 S
C787 C786 1.387 . S
C787 C789 1.387 . S
H788 C795 0.950 . S
C789 C787 1.387 . S
C789 C791 1.390 1_455 S
C789 H793 0.950 . S
H790 C786 0.950 . S
C791 C789 1.390 1_655 S
C791 C792 1.387 . S
C791 H794 0.950 . S
C792 C791 1.387 . S
C792 C795 1.387 . S
H793 C789 0.950 . S
H794 C791 0.950 . S
C795 C786 1.390 1_655 S
C795 H788 0.950 . S
C795 C792 1.387 . S
C796 C797 1.387 . S
C796 H800 0.950 . S
C796 C805 1.390 1_545 S
C797 C796 1.387 . S
C797 C799 1.387 . S
H798 C805 0.950 . S
C799 C797 1.387 . S
C799 C801 1.390 1_545 S
C799 H803 0.950 . S
H800 C796 0.950 . S
C801 C799 1.390 1_565 S
C801 C802 1.387 . S
C801 H804 0.950 . S
C802 C801 1.387 . S
C802 C805 1.387 . S
H803 C799 0.950 . S
H804 C801 0.950 . S
C805 C796 1.390 1_565 S
C805 H798 0.950 . S
C805 C802 1.387 . S
C806 C807 1.387 1_554 S
C806 H810 0.950 . S
C806 C815 1.390 . S
C807 C806 1.387 1_556 S
C807 C809 1.387 . S
H808 C815 0.950 . S
C809 C807 1.387 . S
C809 C811 1.390 . S
C809 H813 0.950 . S
H810 C806 0.950 . S
C811 C809 1.390 . S
C811 C812 1.387 . S
C811 H814 0.950 . S
C812 C811 1.387 . S
C812 C815 1.387 1_556 S
H813 C809 0.950 . S
H814 C811 0.950 . S
C815 C806 1.390 . S
C815 H808 0.950 . S
C815 C812 1.387 1_554 S
C816 C817 1.387 . S
C816 H820 0.950 . S
C816 C825 1.390 . S
C817 C816 1.387 . S
C817 C819 1.387 . S
H818 C825 0.950 . S
C819 C817 1.387 . S
C819 C821 1.390 . S
C819 H823 0.950 . S
H820 C816 0.950 . S
C821 C819 1.390 . S
C821 C822 1.387 . S
C821 H824 0.950 . S
C822 C821 1.387 . S
C822 C825 1.387 . S
H823 C819 0.950 . S
H824 C821 0.950 . S
C825 C816 1.390 . S
C825 H818 0.950 . S
C825 C822 1.387 . S
C826 C827 1.387 . S
C826 H830 0.950 . S
C826 C835 1.390 . S
C827 C826 1.387 . S
C827 C829 1.387 . S
H828 C835 0.950 . S
C829 C827 1.387 . S
C829 C831 1.390 . S
C829 H833 0.950 . S
H830 C826 0.950 . S
C831 C829 1.390 . S
C831 C832 1.387 . S
C831 H834 0.950 . S
C832 C831 1.387 . S
C832 C835 1.387 . S
H833 C829 0.950 . S
H834 C831 0.950 . S
C835 C826 1.390 . S
C835 H828 0.950 . S
C835 C832 1.387 . S
C836 C837 1.387 . S
C836 H840 0.950 . S
C836 C845 1.390 . S
C837 C836 1.387 . S
C837 C839 1.387 . S
H838 C845 0.950 . S
C839 C837 1.387 . S
C839 C841 1.390 . S
C839 H843 0.950 . S
H840 C836 0.950 . S
C841 C839 1.390 . S
C841 C842 1.387 . S
C841 H844 0.950 . S
C842 C841 1.387 . S
C842 C845 1.387 . S
H843 C839 0.950 . S
H844 C841 0.950 . S
C845 C836 1.390 . S
C845 H838 0.950 . S
C845 C842 1.387 . S
C846 C847 1.387 . S
C846 H850 0.950 . S
C846 C855 1.390 . S
C847 C846 1.387 . S
C847 C849 1.387 . S
H848 C855 0.950 . S
C849 C847 1.387 . S
C849 C851 1.390 . S
C849 H853 0.950 . S
H850 C846 0.950 . S
C851 C849 1.390 . S
C851 C852 1.387 . S
C851 H854 0.950 . S
C852 C851 1.387 . S
C852 C855 1.387 . S
H853 C849 0.950 . S
H854 C851 0.950 . S
C855 C846 1.390 . S
C855 H848 0.950 . S
C855 C852 1.387 . S
C856 C857 1.387 . S
C856 H860 0.950 . S
C856 C865 1.390 . S
C857 C856 1.387 . S
C857 C859 1.387 . S
H858 C865 0.950 . S
C859 C857 1.387 . S
C859 C861 1.390 . S
C859 H863 0.950 . S
H860 C856 0.950 . S
C861 C859 1.390 . S
C861 C862 1.387 . S
C861 H864 0.950 . S
C862 C861 1.387 . S
C862 C865 1.387 . S
H863 C859 0.950 . S
H864 C861 0.950 . S
C865 C856 1.390 . S
C865 H858 0.950 . S
C865 C862 1.387 . S
C866 C867 1.387 . S
C866 H870 0.950 . S
C866 C875 1.390 . S
C867 C866 1.387 . S
C867 C869 1.387 . S
H868 C875 0.950 . S
C869 C867 1.387 . S
C869 C871 1.390 . S
C869 H873 0.950 . S
H870 C866 0.950 . S
C871 C869 1.390 . S
C871 C872 1.387 . S
C871 H874 0.950 . S
C872 C871 1.387 . S
C872 C875 1.387 . S
H873 C869 0.950 . S
H874 C871 0.950 . S
C875 C866 1.390 . S
C875 H868 0.950 . S
C875 C872 1.387 . S
C637 C39 1.446 . S
C642 C569 1.446 . S
C647 C92 1.547 . S
C652 C622 1.547 . S
C657 C357 1.548 . S
C662 C145 1.545 . S
C667 C198 1.448 . S
C672 C410 1.448 . S
C677 C463 1.544 . S
C682 C251 1.549 . S
C687 C516 1.547 . S
C692 C304 1.547 . S
C697 C347 1.502 . S
C702 C29 1.500 . S
C707 C400 1.500 . S
C712 C82 1.502 . S
C717 C453 1.510 . S
C722 C135 1.510 . S
C727 C188 1.500 . S
C732 C506 1.502 . S
C737 C241 1.500 . S
C742 C559 1.503 . S
C747 C294 1.509 . S
C752 C612 1.509 . S
C757 C22 3.046 . S
C762 C181 3.046 . S
C767 C75 3.042 . S
C772 C234 3.042 . S
C777 C128 3.024 . S
C782 C287 3.024 . S
C787 C499 3.042 . S
C792 C340 3.042 . S
C797 C552 3.046 . S
C802 C393 3.046 . S
C807 C605 3.024 . S
C812 C446 3.024 . S
C817 C38 2.223 . S
C822 C462 2.223 . S
C827 C515 2.307 . S
C832 C91 2.307 . S
C837 C144 2.226 . S
C842 C568 2.220 . S
C847 C621 2.226 . S
C852 C197 2.220 . S
C857 C250 2.308 . S
C862 C356 2.308 . S
C867 C303 2.225 . S
C872 C409 2.220 . S
