# Generated by pormake.
# Topology vby, (6)-cn, num edge types: 1
# Building blocks:
#     Node 0, Type 0, BuildingBlock: BETDEL_clean_sbu_0, # of connection points: 6
#     Node 1, Type 0, BuildingBlock: BETDEL_clean_sbu_0, # of connection points: 6
#     Node 2, Type 0, BuildingBlock: BETDEL_clean_sbu_0, # of connection points: 6
#     Node 3, Type 0, BuildingBlock: BETDEL_clean_sbu_0, # of connection points: 6
#     Node 4, Type 0, BuildingBlock: BETDEL_clean_sbu_0, # of connection points: 6
#     Node 5, Type 0, BuildingBlock: BETDEL_clean_sbu_0, # of connection points: 6
#     Node 6, Type 0, BuildingBlock: BETDEL_clean_sbu_0, # of connection points: 6
#     Node 7, Type 0, BuildingBlock: BETDEL_clean_sbu_0, # of connection points: 6
#     Edge 8, Type (0, 0), BuildingBlock: ZUJKAS_clean_linker_0, # of connection points: 2
#     Edge 9, Type (0, 0), BuildingBlock: ZUJKAS_clean_linker_0, # of connection points: 2
#     Edge 10, Type (0, 0), BuildingBlock: ZUJKAS_clean_linker_0, # of connection points: 2
#     Edge 11, Type (0, 0), BuildingBlock: ZUJKAS_clean_linker_0, # of connection points: 2
#     Edge 12, Type (0, 0), BuildingBlock: ZUJKAS_clean_linker_0, # of connection points: 2
#     Edge 13, Type (0, 0), BuildingBlock: ZUJKAS_clean_linker_0, # of connection points: 2
#     Edge 14, Type (0, 0), BuildingBlock: ZUJKAS_clean_linker_0, # of connection points: 2
#     Edge 15, Type (0, 0), BuildingBlock: ZUJKAS_clean_linker_0, # of connection points: 2
#     Edge 16, Type (0, 0), BuildingBlock: ZUJKAS_clean_linker_0, # of connection points: 2
#     Edge 17, Type (0, 0), BuildingBlock: ZUJKAS_clean_linker_0, # of connection points: 2
#     Edge 18, Type (0, 0), BuildingBlock: ZUJKAS_clean_linker_0, # of connection points: 2
#     Edge 19, Type (0, 0), BuildingBlock: ZUJKAS_clean_linker_0, # of connection points: 2
#     Edge 20, Type (0, 0), BuildingBlock: ZUJKAS_clean_linker_0, # of connection points: 2
#     Edge 21, Type (0, 0), BuildingBlock: ZUJKAS_clean_linker_0, # of connection points: 2
#     Edge 22, Type (0, 0), BuildingBlock: ZUJKAS_clean_linker_0, # of connection points: 2
#     Edge 23, Type (0, 0), BuildingBlock: ZUJKAS_clean_linker_0, # of connection points: 2
#     Edge 24, Type (0, 0), BuildingBlock: ZUJKAS_clean_linker_0, # of connection points: 2
#     Edge 25, Type (0, 0), BuildingBlock: ZUJKAS_clean_linker_0, # of connection points: 2
#     Edge 26, Type (0, 0), BuildingBlock: ZUJKAS_clean_linker_0, # of connection points: 2
#     Edge 27, Type (0, 0), BuildingBlock: ZUJKAS_clean_linker_0, # of connection points: 2
#     Edge 28, Type (0, 0), BuildingBlock: ZUJKAS_clean_linker_0, # of connection points: 2
#     Edge 29, Type (0, 0), BuildingBlock: ZUJKAS_clean_linker_0, # of connection points: 2
#     Edge 30, Type (0, 0), BuildingBlock: ZUJKAS_clean_linker_0, # of connection points: 2
#     Edge 31, Type (0, 0), BuildingBlock: ZUJKAS_clean_linker_0, # of connection points: 2
# Relax obj value: 0.118
# Max RMSD: 0.160
# Mean RMSD: 0.160
data_MOF--net-vby--node1-BETDEL_clean_sbu_0--edge1-ZUJKAS_clean_linker_0
_symmetry_space_group_name_H-M    P1
_symmetry_Int_Tables_number       1
_symmetry_cell_setting            triclinic
loop_
_symmetry_equiv_pos_as_xyz
'x, y, z'
_cell_length_a     19.978024
_cell_length_b     87.913244
_cell_length_c     37.436484
_cell_angle_alpha  90.138778
_cell_angle_beta   86.580603
_cell_angle_gamma 90.020123
loop_
_atom_site_label
_atom_site_type_symbol
_atom_site_fract_x
_atom_site_fract_y
_atom_site_fract_z
_atom_type_partial_charge
Dy0 Dy 0.06278 0.40186 0.0251 0.0
C1 C 0.09108 0.33735 0.01997 0.0
C2 C 0.04307 0.43273 0.02537 0.0
Dy3 Dy 0.06233 0.36783 0.01778 0.0
O4 O 0.03568 0.42388 0.05293 0.0
O5 O 0.06109 0.42471 0.99719 0.0
O6 O 0.11252 0.39921 0.07676 0.0
O7 O 0.04133 0.38314 0.06283 0.0
C8 C 0.08173 0.38672 0.08609 0.0
C9 C 0.03611 0.38255 0.95788 0.0
O10 O 0.95351 0.37076 0.03311 0.0
O11 O 0.95373 0.39652 0.01966 0.0
O12 O 0.08846 0.34546 0.99122 0.0
O13 O 0.07593 0.34581 0.04783 0.0
O14 O 0.00909 0.36965 0.96754 0.0
O15 O 0.07971 0.38654 0.97931 0.0
O16 O 0.17148 0.39916 1.01008 0.0
O17 O 0.17144 0.37336 0.02192 0.0
C18 C 0.92134 0.38364 0.02736 0.0
C19 C 0.20368 0.38626 0.01481 0.0
Dy20 Dy 0.94515 0.66121 0.01596 0.0
C21 C 0.94704 0.59501 0.0356 0.0
C22 C 0.91809 0.69139 1.00546 0.0
Dy23 Dy 0.94405 0.62516 0.01829 0.0
O24 O 0.94012 0.68558 0.03431 0.0
O25 O 0.91303 0.68074 0.98158 0.0
O26 O 0.99171 0.66152 0.06846 0.0
O27 O 0.92623 0.64355 0.0574 0.0
C28 C 0.9665 0.64863 0.07951 0.0
C29 C 0.95481 0.6351 0.94968 0.0
O30 O 0.83426 0.6299 0.0283 0.0
O31 O 0.83526 0.65599 0.0173 0.0
O32 O 0.90323 0.60143 0.01629 0.0
O33 O 0.9887 0.60519 0.04648 0.0
O34 O 0.95271 0.62085 0.95851 0.0
O35 O 0.95056 0.64275 0.9781 0.0
O36 O 0.05194 0.65614 0.99858 0.0
O37 O 0.05237 0.6315 0.0219 0.0
C38 C 0.803 0.643 0.02352 0.0
C39 C 0.08411 0.64378 1.00885 0.0
Dy40 Dy 0.05869 0.66157 0.50819 0.0
C41 C 0.03738 0.59686 0.51286 0.0
C42 C 0.08953 0.69196 0.50876 0.0
Dy43 Dy 0.05778 0.62769 0.51479 0.0
O44 O 0.0925 0.68318 0.48089 0.0
O45 O 0.06769 0.68423 0.53668 0.0
O46 O 0.00562 0.66024 0.4579 0.0
O47 O 0.07454 0.64292 0.46888 0.0
C48 C 0.03155 0.64733 0.44747 0.0
C49 C 0.07779 0.64248 0.57654 0.0
O50 O 0.16712 0.63031 0.50109 0.0
O51 O 0.16704 0.656 0.51404 0.0
O52 O 0.0212 0.60571 0.53971 0.0
O53 O 0.06458 0.60485 0.48668 0.0
O54 O 0.10674 0.62978 0.56694 0.0
O55 O 0.03771 0.64631 0.55334 0.0
O56 O 0.94962 0.65886 0.52326 0.0
O57 O 0.94931 0.63321 0.50861 0.0
C58 C 0.19934 0.64315 0.50662 0.0
C59 C 0.91716 0.64605 0.51701 0.0
Dy60 Dy 0.94271 0.40315 0.52207 0.0
C61 C 0.91397 0.3386 0.5279 0.0
C62 C 0.96238 0.43399 0.52421 0.0
Dy63 Dy 0.94316 0.36906 0.5287 0.0
O64 O 0.9775 0.42523 0.49704 0.0
O65 O 0.93657 0.4259 0.55059 0.0
O66 O 0.89391 0.4009 0.46995 0.0
O67 O 0.9633 0.38449 0.48391 0.0
C68 C 0.92337 0.38823 0.4606 0.0
C69 C 0.97115 0.38373 0.58852 0.0
O70 O 0.05185 0.37204 0.51307 0.0
O71 O 0.05169 0.39774 0.52754 0.0
O72 O 0.91042 0.34733 0.55588 0.0
O73 O 0.93545 0.34643 0.50006 0.0
O74 O 0.99791 0.37084 0.57851 0.0
O75 O 0.92691 0.38773 0.56757 0.0
O76 O 0.83364 0.40027 0.53592 0.0
O77 O 0.83449 0.37453 0.52311 0.0
C78 C 0.08406 0.38491 0.51912 0.0
C79 C 0.80185 0.38736 0.53047 0.0
Dy80 Dy 0.56652 0.90284 1.00839 0.0
C81 C 0.59111 0.83708 0.02067 0.0
C82 C 0.5443 0.93351 1.0048 0.0
Dy83 Dy 0.57008 0.86696 1.00464 0.0
O84 O 0.515 0.9243 0.02786 0.0
O85 O 0.5855 0.92592 0.98317 0.0
O86 O 0.60695 0.90131 0.06283 0.0
O87 O 0.5442 0.88399 0.04612 0.0
C88 C 0.58 0.88824 0.07099 0.0
C89 C 0.57763 0.87876 0.93774 0.0
O90 O 0.45948 0.87097 1.0123 0.0
O91 O 0.46168 0.89657 0.99571 0.0
O92 O 0.54886 0.84196 0.99814 0.0
O93 O 0.61937 0.8486 0.0356 0.0
O94 O 0.57886 0.86429 0.94442 0.0
O95 O 0.57433 0.88569 0.96723 0.0
O96 O 0.67562 0.8992 0.99431 0.0
O97 O 0.67742 0.87359 1.0098 0.0
C98 C 0.42885 0.88369 1.00307 0.0
C99 C 0.70842 0.8865 1.00098 0.0
Dy100 Dy 0.44915 0.16131 0.02507 0.0
C101 C 0.46788 0.09633 0.02032 0.0
C102 C 0.41986 0.19174 0.02146 0.0
Dy103 Dy 0.44919 0.12726 0.01902 0.0
O104 O 0.42264 0.18387 0.05055 0.0
O105 O 0.43517 0.18307 0.99399 0.0
O106 O 0.50003 0.16019 0.07591 0.0
O107 O 0.43121 0.14284 0.06447 0.0
C108 C 0.47358 0.14732 0.08624 0.0
C109 C 0.4319 0.14209 0.9572 0.0
O110 O 0.34033 0.13005 0.03381 0.0
O111 O 0.34043 0.15569 0.0204 0.0
O112 O 0.46944 0.10473 0.99193 0.0
O113 O 0.45627 0.10483 0.04846 0.0
O114 O 0.40126 0.12958 0.96658 0.0
O115 O 0.47163 0.14575 0.98072 0.0
O116 O 0.55841 0.15838 1.01068 0.0
O117 O 0.5582 0.1326 0.02402 0.0
C118 C 0.30814 0.14287 0.02816 0.0
C119 C 0.59055 0.1455 0.01652 0.0
Dy120 Dy 0.568 0.16116 0.51816 0.0
C121 C 0.56347 0.09505 0.50073 0.0
C122 C 0.6005 0.19131 0.52184 0.0
Dy123 Dy 0.56815 0.12528 0.51727 0.0
O124 O 0.61233 0.18249 0.49439 0.0
O125 O 0.56922 0.18372 0.5477 0.0
O126 O 0.51606 0.16093 0.46722 0.0
O127 O 0.58336 0.14319 0.47693 0.0
C128 C 0.541 0.14806 0.45577 0.0
C129 C 0.56284 0.13562 0.58557 0.0
O130 O 0.6774 0.13004 0.50582 0.0
O131 O 0.67553 0.1552 0.52493 0.0
O132 O 0.61092 0.10169 0.51717 0.0
O133 O 0.5191 0.10506 0.49226 0.0
O134 O 0.56364 0.12132 0.57705 0.0
O135 O 0.56547 0.14315 0.55704 0.0
O136 O 0.46054 0.15679 0.53523 0.0
O137 O 0.45935 0.13157 0.51526 0.0
C138 C 0.70843 0.14264 0.51517 0.0
C139 C 0.42804 0.14414 0.52705 0.0
Dy140 Dy 0.4472 0.90374 0.5112 0.0
C141 C 0.41502 0.83785 0.50984 0.0
C142 C 0.4525 0.93406 0.52688 0.0
Dy143 Dy 0.44744 0.86804 0.51173 0.0
O144 O 0.40479 0.92737 0.51075 0.0
O145 O 0.49679 0.92406 0.5355 0.0
O146 O 0.45075 0.90749 0.45144 0.0
O147 O 0.44949 0.88566 0.47167 0.0
C148 C 0.45163 0.89318 0.44306 0.0
C149 C 0.47556 0.88167 0.57343 0.0
O150 O 0.55464 0.87222 0.4939 0.0
O151 O 0.55613 0.89754 0.51298 0.0
O152 O 0.40414 0.8469 0.53695 0.0
O153 O 0.44536 0.84523 0.48335 0.0
O154 O 0.50158 0.8689 0.56206 0.0
O155 O 0.43221 0.88619 0.55246 0.0
O156 O 0.33804 0.89914 0.52313 0.0
O157 O 0.33966 0.87386 0.50511 0.0
C158 C 0.58731 0.88491 0.50153 0.0
C159 C 0.30686 0.88648 0.5144 0.0
H160 H 0.2857 0.36186 0.02318 0.0
H161 H 0.40742 0.36176 0.02526 0.0
H162 H 0.41227 0.41011 1.00624 0.0
H163 H 0.2899 0.41041 1.00459 0.0
H164 H 0.50638 0.3707 0.97357 0.0
H165 H 0.51462 0.40538 0.09754 0.0
H166 H 0.43827 0.39686 0.08347 0.0
H167 H 0.47015 0.41395 0.06246 0.0
C168 C 0.31243 0.37251 0.01938 0.0
C169 C 0.27787 0.38618 0.01396 0.0
C170 C 0.38209 0.3724 0.02055 0.0
C171 C 0.41866 0.38595 0.01649 0.0
C172 C 0.38473 0.39958 1.01016 0.0
H173 H 0.83957 0.40799 0.01787 0.0
H174 H 0.71793 0.40808 0.01537 0.0
C175 C 0.31486 0.39971 1.00899 0.0
C176 C 0.49235 0.38573 0.0189 0.0
H177 H 0.61885 0.39919 0.06762 0.0
C178 C 0.53105 0.37689 0.99417 0.0
C179 C 0.52418 0.39378 0.04589 0.0
C180 C 0.48477 0.40293 0.07409 0.0
C181 C 0.60105 0.37611 0.99532 0.0
C182 C 0.63286 0.38417 0.02231 0.0
C183 C 0.59417 0.393 0.04703 0.0
C184 C 0.70652 0.38393 0.02475 0.0
C185 C 0.64051 0.36694 0.96718 0.0
C186 C 0.74031 0.37033 0.03152 0.0
C187 C 0.81013 0.37021 0.03297 0.0
C188 C 0.84719 0.38371 0.02781 0.0
C189 C 0.81278 0.39736 0.02185 0.0
C190 C 0.74317 0.39746 0.02042 0.0
H191 H 0.6106 0.36441 0.94379 0.0
H192 H 0.68684 0.37306 0.95768 0.0
H193 H 0.65547 0.35597 0.97892 0.0
H194 H 0.71268 0.35982 0.0356 0.0
H195 H 0.83499 0.35953 0.03776 0.0
H196 H 0.16664 0.61996 0.02223 0.0
H197 H 0.28822 0.62017 0.02466 0.0
H198 H 0.29269 0.66768 0.99627 0.0
H199 H 0.17044 0.66757 0.99327 0.0
H200 H 0.39217 0.6504 0.95934 0.0
H201 H 0.38911 0.6392 0.10519 0.0
H202 H 0.34308 0.62547 0.08093 0.0
H203 H 0.31519 0.64491 0.08321 0.0
C204 C 0.19321 0.63048 0.0164 0.0
C205 C 0.15849 0.6438 1.00782 0.0
C206 C 0.26284 0.63059 0.01804 0.0
C207 C 0.29935 0.64402 1.01147 0.0
C208 C 0.26532 0.65722 1.00177 0.0
H209 H 0.72159 0.66743 0.01327 0.0
H210 H 0.59995 0.66766 1.01064 0.0
C211 C 0.19546 0.65713 1.00001 0.0
C212 C 0.37306 0.64418 0.01458 0.0
H213 H 0.49506 0.63753 0.07286 0.0
C214 C 0.41469 0.64769 0.9842 0.0
C215 C 0.40232 0.64062 0.04707 0.0
C216 C 0.36017 0.63748 0.08106 0.0
C217 C 0.48486 0.6474 0.98522 0.0
C218 C 0.51406 0.64371 0.01762 0.0
C219 C 0.47248 0.64027 0.04803 0.0
C220 C 0.58775 0.64357 0.02053 0.0
C221 C 0.52725 0.65071 0.95142 0.0
C222 C 0.6211 0.63001 0.02813 0.0
C223 C 0.69095 0.62981 0.0298 0.0
C224 C 0.7286 0.64322 0.02416 0.0
C225 C 0.69452 0.65686 0.01758 0.0
C226 C 0.62487 0.65702 0.01584 0.0
H227 H 0.49794 0.64973 0.92721 0.0
H228 H 0.54684 0.6625 0.95266 0.0
H229 H 0.57075 0.64285 0.94855 0.0
H230 H 0.59318 0.61952 0.03211 0.0
H231 H 0.71539 0.61912 0.035 0.0
H232 H 0.83067 0.67016 0.52767 0.0
H233 H 0.70798 0.66967 0.52714 0.0
H234 H 0.71371 0.62134 0.50736 0.0
H235 H 0.83546 0.62163 0.50819 0.0
H236 H 0.63119 0.65981 0.46997 0.0
H237 H 0.57546 0.62549 0.59243 0.0
H238 H 0.65548 0.63462 0.58282 0.0
H239 H 0.63608 0.61706 0.56103 0.0
C240 C 0.80577 0.65941 0.52354 0.0
C241 C 0.84296 0.64594 0.51808 0.0
C242 C 0.73575 0.65916 0.52318 0.0
C243 C 0.70186 0.64543 0.51771 0.0
C244 C 0.73881 0.632 0.51234 0.0
H245 H 0.28614 0.61903 0.49701 0.0
H246 H 0.40874 0.61958 0.4981 0.0
C247 C 0.80857 0.63223 0.51262 0.0
C248 C 0.62804 0.64517 0.51605 0.0
H249 H 0.48524 0.62954 0.55492 0.0
C250 C 0.59914 0.65329 0.48867 0.0
C251 C 0.5866 0.63654 0.54034 0.0
C252 C 0.61478 0.62803 0.57103 0.0
C253 C 0.52982 0.6528 0.48455 0.0
C254 C 0.48836 0.64418 0.50884 0.0
C255 C 0.51727 0.63606 0.53623 0.0
C256 C 0.41455 0.64386 0.50706 0.0
C257 C 0.50173 0.66128 0.45379 0.0
C258 C 0.37743 0.6573 0.512 0.0
C259 C 0.30772 0.65703 0.51136 0.0
C260 C 0.27352 0.64329 0.50599 0.0
C261 C 0.31088 0.62981 0.50105 0.0
C262 C 0.38085 0.6301 0.50174 0.0
H263 H 0.54107 0.66377 0.43236 0.0
H264 H 0.46096 0.6547 0.44204 0.0
H265 H 0.48059 0.67228 0.4637 0.0
H266 H 0.40235 0.66798 0.51688 0.0
H267 H 0.28069 0.66764 0.51542 0.0
H268 H 0.71481 0.41138 0.54072 0.0
H269 H 0.59233 0.41083 0.53937 0.0
H270 H 0.59903 0.36254 0.51909 0.0
H271 H 0.72072 0.36288 0.52082 0.0
H272 H 0.51645 0.40133 0.48221 0.0
H273 H 0.45944 0.36621 0.60324 0.0
H274 H 0.53974 0.37527 0.59407 0.0
H275 H 0.51992 0.35788 0.57162 0.0
C276 C 0.69019 0.40062 0.5363 0.0
C277 C 0.72766 0.38717 0.53102 0.0
C278 C 0.62026 0.40033 0.53547 0.0
C279 C 0.58666 0.38661 0.52963 0.0
C280 C 0.62387 0.37319 0.52437 0.0
H281 H 0.17049 0.36087 0.50757 0.0
H282 H 0.29309 0.36128 0.50824 0.0
C283 C 0.69359 0.37345 0.52518 0.0
C284 C 0.51287 0.38633 0.52766 0.0
H285 H 0.36956 0.37063 0.56577 0.0
C286 C 0.48422 0.3947 0.5006 0.0
C287 C 0.47113 0.37758 0.55156 0.0
C288 C 0.49892 0.36882 0.58198 0.0
C289 C 0.41489 0.39438 0.49643 0.0
C290 C 0.37317 0.38563 0.52034 0.0
C291 C 0.40181 0.37725 0.54738 0.0
C292 C 0.29936 0.38545 0.51856 0.0
C293 C 0.38701 0.40316 0.46608 0.0
C294 C 0.26248 0.39888 0.52435 0.0
C295 C 0.1927 0.39869 0.52397 0.0
C296 C 0.15826 0.38504 0.518 0.0
C297 C 0.19541 0.37158 0.51211 0.0
C298 C 0.2654 0.37179 0.51254 0.0
H299 H 0.42646 0.40582 0.44483 0.0
H300 H 0.34624 0.39671 0.45396 0.0
H301 H 0.36589 0.41408 0.47653 0.0
H302 H 0.28764 0.40948 0.52974 0.0
H303 H 0.16583 0.40927 0.52878 0.0
H304 H 0.79148 0.86262 0.01298 0.0
H305 H 0.91339 0.86259 1.0123 0.0
H306 H 0.91719 0.91025 0.98543 0.0
H307 H 0.79434 0.91043 0.98573 0.0
H308 H 0.01106 0.8918 0.94388 0.0
H309 H 0.02521 0.88175 0.08956 0.0
H310 H 0.97337 0.86842 0.06751 0.0
H311 H 0.94953 0.88812 0.07016 0.0
C312 C 0.81788 0.87315 1.00693 0.0
C313 C 0.78281 0.88658 0.99962 0.0
C314 C 0.88773 0.8731 1.00675 0.0
C315 C 0.92421 0.88647 0.99944 0.0
C316 C 0.88979 0.89984 0.9914 0.0
H317 H 0.34938 0.9075 0.98539 0.0
H318 H 0.22773 0.90799 0.98355 0.0
C319 C 0.81962 0.89992 0.9916 0.0
C320 C 0.99834 0.88633 0.99987 0.0
H321 H 0.12693 0.87944 0.05379 0.0
C322 C 0.03651 0.88921 0.96792 0.0
C323 C 0.03127 0.88286 0.03128 0.0
C324 C 0.99287 0.88024 0.06667 0.0
C325 C 0.10685 0.88839 0.96636 0.0
C326 C 0.13978 0.88486 0.99775 0.0
C327 C 0.10156 0.88205 0.02972 0.0
C328 C 0.21392 0.88437 0.99824 0.0
C329 C 0.14522 0.89095 0.93093 0.0
C330 C 0.24661 0.87099 1.00795 0.0
C331 C 0.31649 0.87067 1.00929 0.0
C332 C 0.35487 0.88376 1.00118 0.0
C333 C 0.32169 0.89715 0.99162 0.0
C334 C 0.25201 0.89746 0.99031 0.0
H335 H 0.11286 0.88937 0.90808 0.0
H336 H 0.16457 0.90278 0.92995 0.0
H337 H 0.18863 0.88308 0.92751 0.0
H338 H 0.21801 0.86079 0.01442 0.0
H339 H 0.34027 0.86018 0.01685 0.0
H340 H 0.2214 0.11876 0.03802 0.0
H341 H 0.09902 0.11918 0.03559 0.0
H342 H 0.1051 0.1676 0.01763 0.0
H343 H 0.22672 0.16734 0.01969 0.0
H344 H 1.00207 0.13631 0.07792 0.0
H345 H 1.00146 0.15119 0.93386 0.0
H346 H 0.07511 0.14413 0.9541 0.0
H347 H 0.05058 0.16369 0.95986 0.0
C348 C 0.19669 0.1295 0.03363 0.0
C349 C 0.23398 0.14299 0.02878 0.0
C350 C 0.12683 0.12971 0.03223 0.0
C351 C 0.09335 0.14338 0.02575 0.0
C352 C 0.13021 0.15689 0.02186 0.0
H353 H 0.67732 0.1696 1.00674 0.0
H354 H 0.79966 0.16918 1.00932 0.0
C355 C 0.19979 0.1567 0.02325 0.0
C356 C 0.01972 0.14362 0.02335 0.0
H357 H 0.89655 0.15205 0.96712 0.0
C358 C 0.9789 0.13966 0.05367 0.0
C359 C 0.98986 0.14807 0.99167 0.0
C360 C 0.0314 0.15189 0.95789 0.0
C361 C 0.90876 0.14029 0.05337 0.0
C362 C 0.8789 0.14475 0.02169 0.0
C363 C 0.91972 0.14871 0.99137 0.0
C364 C 0.80528 0.14499 0.01928 0.0
C365 C 0.8672 0.13648 0.08715 0.0
C366 C 0.7684 0.13148 0.0232 0.0
C367 C 0.69883 0.13167 0.02173 0.0
C368 C 0.66468 0.14538 0.01608 0.0
C369 C 0.70199 0.15886 1.01122 0.0
C370 C 0.77183 0.15865 0.01271 0.0
H371 H 0.89713 0.13719 0.11118 0.0
H372 H 0.82348 0.14423 0.09093 0.0
H373 H 0.84806 0.12467 0.08519 0.0
H374 H 0.79347 0.12078 0.0275 0.0
H375 H 0.67189 0.12104 0.02531 0.0
H376 H 0.34185 0.16792 0.54338 0.0
H377 H 0.21911 0.16772 0.54347 0.0
H378 H 0.22323 0.12022 0.5146 0.0
H379 H 0.34507 0.1202 0.51484 0.0
H380 H 0.14118 0.16054 0.4857 0.0
H381 H 0.08455 0.12128 0.59927 0.0
H382 H 0.16525 0.13033 0.59148 0.0
H383 H 0.14413 0.11384 0.56592 0.0
C384 C 0.31663 0.15738 0.53746 0.0
C385 C 0.35356 0.14407 0.5292 0.0
C386 C 0.24648 0.1573 0.53744 0.0
C387 C 0.21197 0.1439 0.52952 0.0
C388 C 0.24864 0.13061 0.52151 0.0
H389 H 0.79664 0.11904 0.50113 0.0
H390 H 0.91899 0.11954 0.50352 0.0
C391 C 0.31854 0.13067 0.52147 0.0
C392 C 0.13788 0.14391 0.52787 0.0
H393 H 0.99454 0.12693 0.56255 0.0
C394 C 0.10902 0.15329 0.50269 0.0
C395 C 0.09609 0.13436 0.5499 0.0
C396 C 0.1239 0.12448 0.5784 0.0
C397 C 0.03962 0.15315 0.49843 0.0
C398 C 0.99785 0.14356 0.52036 0.0
C399 C 0.02668 0.13421 0.54563 0.0
C400 C 0.92391 0.14332 0.51811 0.0
C401 C 0.01182 0.16302 0.46989 0.0
C402 C 0.8861 0.15649 0.5258 0.0
C403 C 0.81638 0.15626 0.52442 0.0
C404 C 0.78275 0.14281 0.51552 0.0
C405 C 0.8208 0.12961 0.50791 0.0
C406 C 0.89072 0.12985 0.50934 0.0
H407 H 0.05136 0.16644 0.44935 0.0
H408 H 0.97131 0.15704 0.4564 0.0
H409 H 0.99038 0.17352 0.48245 0.0
H410 H 0.91047 0.16692 0.53333 0.0
H411 H 0.78892 0.16664 0.53063 0.0
H412 H 0.67059 0.90888 0.51285 0.0
H413 H 0.79248 0.90877 0.51341 0.0
H414 H 0.79564 0.86097 0.48735 0.0
H415 H 0.67313 0.86096 0.48632 0.0
H416 H 0.86956 0.89164 0.55784 0.0
H417 H 0.93599 0.87876 0.41477 0.0
H418 H 0.8533 0.88499 0.43053 0.0
H419 H 0.87839 0.86559 0.43666 0.0
C420 C 0.69696 0.89833 0.50688 0.0
C421 C 0.66179 0.88491 0.49948 0.0
C422 C 0.7668 0.89831 0.50728 0.0
C423 C 0.80325 0.88491 0.50012 0.0
C424 C 0.7686 0.87151 0.49233 0.0
H425 H 0.22579 0.8624 0.50022 0.0
H426 H 0.10404 0.86218 0.49795 0.0
C427 C 0.6985 0.87151 0.49189 0.0
C428 C 0.87721 0.88493 0.50239 0.0
H429 H 0.02509 0.87896 0.45382 0.0
C430 C 0.90362 0.88891 0.53507 0.0
C431 C 0.92149 0.88135 0.47267 0.0
C432 C 0.89609 0.87756 0.43656 0.0
C433 C 0.9731 0.88922 0.539 0.0
C434 C 0.01742 0.88571 0.50925 0.0
C435 C 0.99101 0.88167 0.47659 0.0
C436 C 0.09138 0.88597 0.5115 0.0
C437 C 0.99837 0.89297 0.57518 0.0
C438 C 0.12492 0.89946 0.51975 0.0
C439 C 0.19482 0.89965 0.52118 0.0
C440 C 0.23254 0.88635 0.51414 0.0
C441 C 0.19858 0.87287 0.50585 0.0
C442 C 0.12885 0.8727 0.50447 0.0
H443 H 0.95864 0.89153 0.59696 0.0
H444 H 0.04176 0.88569 0.58101 0.0
H445 H 0.01505 0.90501 0.57536 0.0
H446 H 0.09712 0.90991 0.52461 0.0
H447 H 0.21925 0.91025 0.5274 0.0
H448 H 0.04178 0.57925 0.07057 0.0
H449 H 0.05816 0.55155 0.07122 0.0
H450 H 0.88545 0.5457 1.00866 0.0
H451 H 0.86802 0.57319 1.00872 0.0
H452 H 0.88733 0.52487 0.06114 0.0
H453 H 0.13598 0.52697 0.98687 0.0
H454 H 0.1316 0.53778 0.0277 0.0
H455 H 0.08158 0.54332 0.99152 0.0
C456 C 0.00699 0.57201 0.05733 0.0
C457 C 0.95381 0.57836 0.03948 0.0
C458 C 0.01675 0.55621 0.05739 0.0
C459 C 0.97391 0.54655 0.03928 0.0
C460 C 0.91942 0.5529 0.0226 0.0
H461 H 0.05045 0.45297 0.96966 0.0
H462 H 0.03253 0.48062 0.97288 0.0
C463 C 0.90948 0.56863 0.02269 0.0
C464 C 0.98559 0.52985 0.03727 0.0
H465 H 0.09939 0.50282 1.00829 0.0
C466 C 0.93374 0.52005 0.0496 0.0
C467 C 0.04565 0.52355 0.02156 0.0
C468 C 0.10168 0.53342 1.00582 0.0
C469 C 0.94045 0.50418 0.04702 0.0
C470 C 1.00135 0.49787 0.03244 0.0
C471 C 0.05295 0.50765 0.01972 0.0
C472 C 0.01253 0.48116 0.03036 0.0
C473 C 0.88157 0.49433 0.0592 0.0
C474 C 0.00822 0.47232 0.06157 0.0
C475 C 0.01796 0.45659 0.05973 0.0
C476 C 0.03305 0.44939 0.02668 0.0
C477 C 0.03862 0.45824 0.99545 0.0
C478 C 0.02851 0.47401 0.9973 0.0
H479 H 0.83361 0.50074 0.05958 0.0
H480 H 0.8775 0.48423 0.04158 0.0
H481 H 0.88842 0.4903 0.08681 0.0
H482 H 0.99762 0.4776 0.08746 0.0
H483 H 0.01395 0.45008 0.08429 0.0
H484 H 0.01548 0.45146 0.46987 0.0
H485 H 0.02884 0.47912 0.46872 0.0
H486 H 0.94188 0.48194 0.57679 0.0
H487 H 0.92918 0.45416 0.57823 0.0
H488 H 0.93005 0.50124 0.47734 0.0
H489 H 0.1144 0.50673 0.58191 0.0
H490 H 0.09591 0.48875 0.56127 0.0
H491 H 0.03948 0.49651 0.59582 0.0
C492 C 0.99962 0.45797 0.49349 0.0
C493 C 0.97155 0.45068 0.52421 0.0
C494 C 0.00717 0.47377 0.49276 0.0
C495 C 0.98714 0.4826 0.52279 0.0
C496 C 0.9589 0.47534 0.55354 0.0
H497 H 0.98307 0.57951 0.56713 0.0
H498 H 0.96966 0.55184 0.56853 0.0
C499 C 0.95135 0.45949 0.55429 0.0
C500 C 0.99417 0.49942 0.52137 0.0
H501 H 0.06931 0.52964 0.56027 0.0
C502 C 0.9607 0.50745 0.49538 0.0
C503 C 0.03418 0.50751 0.54492 0.0
C504 C 0.07358 0.49946 0.57237 0.0
C505 C 0.96522 0.52336 0.49269 0.0
C506 C 1.00523 0.53145 0.51624 0.0
C507 C 0.03866 0.52342 0.54224 0.0
C508 C 0.0124 0.54826 0.51471 0.0
C509 C 0.92593 0.53142 0.4652 0.0
C510 C 0.04125 0.55545 0.48402 0.0
C511 C 0.04888 0.5713 0.48314 0.0
C512 C 0.02809 0.58018 0.51301 0.0
C513 C 0.99937 0.57295 0.54367 0.0
C514 C 0.9918 0.55715 0.54454 0.0
H515 H 0.88526 0.52414 0.45553 0.0
H516 H 0.90345 0.5421 0.47632 0.0
H517 H 0.96016 0.53441 0.44184 0.0
H518 H 0.05865 0.5488 0.46092 0.0
H519 H 0.07154 0.57657 0.45925 0.0
H520 H 0.4556 0.94991 0.0472 0.0
H521 H 0.44236 0.97759 0.04976 0.0
H522 H 0.59864 0.98255 0.96609 0.0
H523 H 0.61215 0.95477 0.96338 0.0
H524 H 0.61047 1.00199 0.02875 0.0
H525 H 0.35862 1.00501 0.97356 0.0
H526 H 0.36629 0.99179 1.00965 0.0
H527 H 0.41234 0.98856 0.96765 0.0
C528 C 0.48681 0.95689 0.02915 0.0
C529 C 0.53472 0.9502 1.00496 0.0
C530 C 0.47907 0.9727 0.0306 0.0
C531 C 0.5191 0.98212 1.00791 0.0
C532 C 0.5671 0.97547 0.98375 0.0
H533 H 0.47793 0.07788 0.96204 0.0
H534 H 0.49128 0.05022 0.96031 0.0
C535 C 0.57462 0.95962 0.98214 0.0
C536 C 0.51158 0.99892 1.00999 0.0
H537 H 0.4016 0.02785 0.99686 0.0
C538 C 0.56487 1.00766 0.02176 0.0
C539 C 0.45213 1.00628 1.00071 0.0
C540 C 0.39414 0.99748 0.9869 0.0
C541 C 0.55993 0.02358 0.02485 0.0
C542 C 0.50013 0.03091 0.01605 0.0
C543 C 0.44715 0.02218 1.00392 0.0
C544 C 0.49263 0.0477 0.0177 0.0
C545 C 0.619 0.03251 0.03693 0.0
C546 C 0.48849 0.05546 0.05063 0.0
C547 C 0.48035 0.07131 0.05172 0.0
C548 C 0.4766 0.07961 0.01987 0.0
C549 C 0.48087 0.07179 0.98702 0.0
C550 C 0.4884 0.05599 0.98597 0.0
H551 H 0.66512 0.02546 0.03711 0.0
H552 H 0.62911 0.04247 0.01923 0.0
H553 H 0.60724 0.03685 0.06445 0.0
H554 H 0.49098 0.04924 0.07545 0.0
H555 H 0.47708 0.07706 0.07739 0.0
H556 H 0.45684 0.07908 0.47742 0.0
H557 H 0.43814 0.05153 0.48197 0.0
H558 H 0.63326 0.04598 0.52365 0.0
H559 H 0.65186 0.07345 0.51956 0.0
H560 H 0.51167 0.02626 0.45316 0.0
H561 H 0.50588 0.0271 0.60164 0.0
H562 H 0.49994 0.04419 0.57537 0.0
H563 H 0.57998 0.03531 0.58003 0.0
C564 C 0.49602 0.07194 0.48709 0.0
C565 C 0.5556 0.07839 0.49836 0.0
C566 C 0.48523 0.05623 0.48979 0.0
C567 C 0.53371 0.04677 0.50392 0.0
C568 C 0.59457 0.05312 0.51346 0.0
H569 H 0.55925 0.95006 0.54992 0.0
H570 H 0.57802 0.9776 0.54514 0.0
C571 C 0.60533 0.06879 0.51083 0.0
C572 C 0.52023 0.03031 0.50941 0.0
H573 H 0.50449 1.00284 0.57384 0.0
C574 C 0.50978 0.02114 0.47954 0.0
C575 C 0.51787 0.02367 0.54389 0.0
C576 C 0.5259 0.03307 0.57714 0.0
C577 C 0.49829 1.00544 0.48312 0.0
C578 C 0.49594 0.99879 0.5176 0.0
C579 C 0.50639 1.00796 0.54747 0.0
C580 C 0.4825 0.98234 0.5231 0.0
C581 C 0.49026 0.99603 0.44987 0.0
C582 C 0.42166 0.97597 0.51356 0.0
C583 C 0.41086 0.9603 0.51633 0.0
C584 C 0.46053 0.95073 0.52894 0.0
C585 C 0.52012 0.95718 0.54015 0.0
C586 C 0.53095 0.97289 0.53732 0.0
H587 H 0.51029 1.002 0.42538 0.0
H588 H 0.51621 0.98492 0.45165 0.0
H589 H 0.43619 0.9938 0.44698 0.0
H590 H 0.38298 0.9831 0.50332 0.0
H591 H 0.36432 0.95564 0.50764 0.0
H592 H 0.12843 0.31954 0.96279 0.0
H593 H 0.18267 0.29459 0.96303 0.0
H594 H 0.17031 0.29492 0.07843 0.0
H595 H 0.1152 0.31988 0.07832 0.0
H596 H 0.30373 0.28782 0.99189 0.0
H597 H 0.0987 0.25269 0.0552 0.0
H598 H 0.08438 0.27135 0.03716 0.0
H599 H 0.11853 0.26937 0.08026 0.0
C600 C 0.13628 0.31419 0.98823 0.0
C601 C 0.11727 0.32161 0.02056 0.0
C602 C 0.16754 0.29996 0.98832 0.0
C603 C 0.18012 0.2928 0.02071 0.0
C604 C 0.16006 0.30008 0.0531 0.0
H605 H 0.38239 0.20991 0.07793 0.0
H606 H 0.32754 0.23475 0.07682 0.0
C607 C 0.12871 0.31435 0.05302 0.0
C608 C 0.21723 0.27812 0.02043 0.0
H609 H 0.20583 0.24107 0.04744 0.0
C610 C 0.28221 0.27757 1.00387 0.0
C611 C 0.18917 0.26476 0.0361 0.0
C612 C 0.11865 0.26447 0.05291 0.0
C613 C 0.32032 0.26411 1.00316 0.0
C614 C 0.29234 0.25077 0.01893 0.0
C615 C 0.2273 0.25131 0.0354 0.0
C616 C 0.32977 0.23614 0.01908 0.0
C617 C 0.39083 0.26439 0.98631 0.0
C618 C 0.34988 0.22868 0.98694 0.0
C619 C 0.38157 0.21445 0.98751 0.0
C620 C 0.39333 0.20744 0.02024 0.0
C621 C 0.37429 0.21506 0.05229 0.0
C622 C 0.34268 0.22924 0.05171 0.0
H623 H 0.41052 0.27618 0.98353 0.0
H624 H 0.42523 0.25768 1.00236 0.0
H625 H 0.39106 0.25927 0.95919 0.0
H626 H 0.33942 0.23365 0.96144 0.0
H627 H 0.39511 0.20876 0.96242 0.0
H628 H 0.68437 0.82574 0.06379 0.0
H629 H 0.73664 0.8005 0.06045 0.0
H630 H 0.6061 0.78746 0.97799 0.0
H631 H 0.55357 0.81268 0.98122 0.0
H632 H 0.67792 0.77003 0.06714 0.0
H633 H 0.8006 0.78131 0.93249 0.0
H634 H 0.76691 0.79633 0.96122 0.0
H635 H 0.71158 0.78446 0.93735 0.0
C636 C 0.66603 0.8174 0.04539 0.0
C637 C 0.61497 0.82118 0.02272 0.0
C638 C 0.69609 0.80301 0.04342 0.0
C639 C 0.67607 0.79221 0.01853 0.0
C640 C 0.62304 0.79572 0.99698 0.0
H641 H 0.83677 0.70288 0.95574 0.0
H642 H 0.77766 0.72738 0.95833 0.0
C643 C 0.5927 0.81008 0.99907 0.0
C644 C 0.71209 0.77746 0.01448 0.0
H645 H 0.81653 0.75696 0.95692 0.0
C646 C 0.70823 0.76715 0.04307 0.0
C647 C 0.75134 0.77371 0.98296 0.0
C648 C 0.75853 0.78454 0.95176 0.0
C649 C 0.74207 0.75313 0.0409 0.0
C650 C 0.78259 0.74949 1.00965 0.0
C651 C 0.78581 0.75975 0.9809 0.0
C652 C 0.82221 0.73514 1.00646 0.0
C653 C 0.73276 0.74222 0.07187 0.0
C654 C 0.86895 0.73158 0.03175 0.0
C655 C 0.9023 0.71758 0.03043 0.0
C656 C 0.89063 0.70697 1.00338 0.0
C657 C 0.84689 0.71087 0.97682 0.0
C658 C 0.81291 0.72484 0.97838 0.0
H659 H 0.68564 0.74457 0.08824 0.0
H660 H 0.7317 0.73025 0.06244 0.0
H661 H 0.7751 0.74353 0.08952 0.0
H662 H 0.8787 0.73951 0.053 0.0
H663 H 0.93606 0.71492 0.05113 0.0
H664 H 0.10104 0.7112 0.56594 0.0
H665 H 0.15558 0.73628 0.56545 0.0
H666 H 0.19581 0.73268 0.45127 0.0
H667 H 0.14062 0.70791 0.45153 0.0
H668 H 0.28727 0.74275 0.54419 0.0
H669 H 0.11721 0.77503 0.46055 0.0
H670 H 0.09438 0.7569 0.48024 0.0
H671 H 0.14772 0.75775 0.43983 0.0
C672 C 0.12048 0.71592 0.54071 0.0
C673 C 0.11618 0.70766 0.50875 0.0
C674 C 0.15185 0.7302 0.54045 0.0
C675 C 0.17902 0.73648 0.50823 0.0
C676 C 0.17393 0.72828 0.47631 0.0
H677 H 0.41184 0.81842 0.45231 0.0
H678 H 0.35883 0.79314 0.45133 0.0
C679 C 0.14258 0.71406 0.47654 0.0
C680 C 0.21604 0.75117 0.50807 0.0
H681 H 0.22185 0.78669 0.47104 0.0
C682 C 0.27268 0.75239 0.52838 0.0
C683 C 0.19738 0.76372 0.48719 0.0
C684 C 0.1355 0.76338 0.46598 0.0
C685 C 0.31158 0.76572 0.52805 0.0
C686 C 0.29289 0.77826 0.5072 0.0
C687 C 0.23646 0.77703 0.48677 0.0
C688 C 0.32886 0.79305 0.50786 0.0
C689 C 0.373 0.76619 0.54961 0.0
C690 C 0.32962 0.80134 0.53987 0.0
C691 C 0.35965 0.81568 0.54045 0.0
C692 C 0.38944 0.82207 0.509 0.0
C693 C 0.38973 0.8137 0.47698 0.0
C694 C 0.35927 0.79932 0.47638 0.0
H695 H 0.39099 0.75457 0.55569 0.0
H696 H 0.4144 0.77254 0.53525 0.0
H697 H 0.3604 0.77206 0.57541 0.0
H698 H 0.3054 0.79689 0.56432 0.0
H699 H 0.35823 0.8219 0.56549 0.0
H700 H 0.86237 0.3224 0.5847 0.0
H701 H 0.81016 0.29724 0.58436 0.0
H702 H 0.85288 0.29412 0.4703 0.0
H703 H 0.90572 0.31937 0.47052 0.0
H704 H 0.69867 0.28884 0.54599 0.0
H705 H 0.92138 0.25327 0.50782 0.0
H706 H 0.92828 0.2725 0.52429 0.0
H707 H 0.90858 0.26911 0.47875 0.0
C708 C 0.86149 0.31627 0.55959 0.0
C709 C 0.8884 0.32281 0.52764 0.0
C710 C 0.83139 0.30192 0.55944 0.0
C711 C 0.82801 0.29374 0.52739 0.0
C712 C 0.85585 0.30013 0.49545 0.0
H713 H 0.65896 0.20769 0.46738 0.0
H714 H 0.71039 0.23282 0.46996 0.0
C715 C 0.88592 0.31455 0.49557 0.0
C716 C 0.79278 0.27885 0.52735 0.0
H717 H 0.81555 0.24105 0.50932 0.0
C718 C 0.72422 0.27837 0.53813 0.0
C719 C 0.82621 0.26521 0.51712 0.0
C720 C 0.9003 0.26494 0.50662 0.0
C721 C 0.68783 0.26467 0.53815 0.0
C722 C 0.72123 0.25102 0.52779 0.0
C723 C 0.78993 0.25151 0.51726 0.0
C724 C 0.68574 0.23616 0.52649 0.0
C725 C 0.6136 0.265 0.54826 0.0
C726 C 0.65404 0.22967 0.5574 0.0
C727 C 0.62399 0.21526 0.55593 0.0
C728 C 0.62579 0.20709 0.5236 0.0
C729 C 0.65664 0.21372 0.49269 0.0
C730 C 0.68629 0.22807 0.49413 0.0
H731 H 0.59272 0.27668 0.54673 0.0
H732 H 0.5858 0.25741 0.53059 0.0
H733 H 0.60479 0.26095 0.5762 0.0
H734 H 0.65404 0.23557 0.58283 0.0
H735 H 0.60113 0.21035 0.58021 0.0
H736 H 0.16146 0.39393 0.13996 0.0
H737 H 0.13782 0.38979 0.20406 0.0
H738 H 0.95736 0.36543 0.18186 0.0
H739 H 0.98201 0.36914 0.11765 0.0
H740 H 0.03215 0.40149 0.24015 0.0
H741 H 0.02777 0.33904 0.25898 0.0
H742 H 0.0632 0.34786 0.21865 0.0
H743 H 0.97397 0.34523 0.22517 0.0
C744 C 0.11768 0.38735 0.14874 0.0
C745 C 0.07343 0.38192 0.12389 0.0
C746 C 0.10412 0.38501 0.18536 0.0
C747 C 0.04594 0.37723 0.19789 0.0
C748 C 1.00326 0.37118 0.17294 0.0
H749 H 0.84824 0.39666 0.40567 0.0
H750 H 0.87413 0.3924 0.34168 0.0
C751 C 0.01721 0.37338 0.13621 0.0
C752 C 0.0263 0.37706 0.23684 0.0
H753 H 0.97929 0.35402 0.30744 0.0
C754 C 0.02107 0.39108 0.25485 0.0
C755 C 0.01216 0.36349 0.25616 0.0
C756 C 0.02018 0.34804 0.23884 0.0
C757 C 1.00155 0.39195 0.29139 0.0
C758 C 0.9848 0.37845 0.31041 0.0
C759 C 0.99105 0.36438 0.29267 0.0
C760 C 0.9627 0.37886 0.349 0.0
C761 C 1.0003 0.40735 0.30939 0.0
C762 C 1.00141 0.37185 0.37438 0.0
C763 C 0.98612 0.37409 0.411 0.0
C764 C 0.93204 0.38343 0.42274 0.0
C765 C 0.89067 0.38955 0.39735 0.0
C766 C 0.90563 0.3872 0.3608 0.0
H767 H 0.03125 0.4158 0.29376 0.0
H768 H 0.94799 0.41164 0.31172 0.0
H769 H 0.01893 0.40663 0.33669 0.0
H770 H 0.04537 0.36527 0.36586 0.0
H771 H 0.01871 0.36917 0.42999 0.0
H772 H 0.03889 0.66168 0.1298 0.0
H773 H 0.05171 0.65361 0.19087 0.0
H774 H 0.9308 0.6139 0.17348 0.0
H775 H 0.91563 0.62237 0.11169 0.0
H776 H 0.89298 0.6265 0.23513 0.0
H777 H 0.16736 0.62256 0.23253 0.0
H778 H 0.14576 0.64091 0.21619 0.0
H779 H 0.12333 0.62406 0.19196 0.0
C780 C 0.01542 0.65113 0.13868 0.0
C781 C 0.97623 0.64266 0.11585 0.0
C782 C 0.02353 0.64641 0.17367 0.0
C783 C 0.99395 0.6329 0.18676 0.0
C784 C 0.95491 0.62428 0.16394 0.0
H785 H 0.09594 0.62312 0.41265 0.0
H786 H 0.08383 0.61494 0.35029 0.0
C787 C 0.94622 0.62911 0.12868 0.0
C788 C 0.99986 0.62879 0.22514 0.0
H789 H 0.11194 0.62971 0.29061 0.0
C790 C 0.94107 0.62682 0.24711 0.0
C791 C 0.06251 0.62866 0.24108 0.0
C792 C 0.12821 0.62897 0.21902 0.0
C793 C 0.94285 0.62621 0.28459 0.0
C794 C 1.00481 0.62816 0.30068 0.0
C795 C 0.0641 0.62861 0.27859 0.0
C796 C 0.0083 0.63174 0.33955 0.0
C797 C 0.87786 0.62388 0.30653 0.0
C798 C 0.97036 0.64388 0.35434 0.0
C799 C 0.97688 0.64844 0.38966 0.0
C800 C 0.02254 0.64119 0.41114 0.0
C801 C 0.06025 0.62889 0.39674 0.0
C802 C 0.05335 0.62424 0.36113 0.0
H803 H 0.84345 0.61643 0.29213 0.0
H804 H 0.8862 0.61873 0.33295 0.0
H805 H 0.85244 0.63501 0.31085 0.0
H806 H 0.93704 0.65025 0.33819 0.0
H807 H 0.94715 0.65798 0.39982 0.0
H808 H 0.98213 0.66418 0.92458 0.0
H809 H 0.9998 0.67197 0.86133 0.0
H810 H 0.96411 0.62583 0.82805 0.0
H811 H 0.94645 0.61812 0.89026 0.0
H812 H 0.09728 0.66006 0.80854 0.0
H813 H 0.83906 0.65084 0.76763 0.0
H814 H 0.85852 0.65288 0.81392 0.0
H815 H 0.86983 0.63485 0.79146 0.0
C816 C 0.97729 0.65581 0.90363 0.0
C817 C 0.96247 0.64058 0.9123 0.0
C818 C 0.98759 0.66023 0.8676 0.0
C819 C 0.98218 0.64951 0.83992 0.0
C820 C 0.96718 0.63436 0.84881 0.0
H821 H 0.14708 0.63198 0.63182 0.0
H822 H 0.12585 0.63733 0.69549 0.0
C823 C 0.95742 0.62996 0.88448 0.0
C824 C 0.99489 0.65362 0.80157 0.0
H825 H 0.92679 0.64968 0.72053 0.0
C826 C 0.05965 0.65813 0.78931 0.0
C827 C 0.94565 0.65132 0.77644 0.0
C828 C 0.87417 0.64736 0.78805 0.0
C829 C 0.07762 0.65934 0.75247 0.0
C830 C 0.02985 0.65572 0.72725 0.0
C831 C 0.96384 0.65229 0.73968 0.0
C832 C 0.04825 0.65405 0.68823 0.0
C833 C 0.14799 0.66421 0.74098 0.0
C834 C 0.01161 0.66157 0.66264 0.0
C835 C 0.02336 0.65841 0.62604 0.0
C836 C 0.07153 0.64754 0.61441 0.0
C837 C 0.10976 0.64044 0.63992 0.0
C838 C 0.09801 0.6436 0.6764 0.0
H839 H 0.16939 0.67164 0.76149 0.0
H840 H 0.1804 0.65399 0.73778 0.0
H841 H 0.14958 0.6704 0.71512 0.0
H842 H 0.97266 0.66961 0.67105 0.0
H843 H 0.99302 0.66404 0.60701 0.0
H844 H 0.88268 0.39952 0.6339 0.0
H845 H 0.89818 0.40551 0.6971 0.0
H846 H 0.10193 0.38916 0.68478 0.0
H847 H 0.08572 0.38271 0.62248 0.0
H848 H 0.03223 0.37451 0.73636 0.0
H849 H 0.99454 0.4365 0.75639 0.0
H850 H 0.92779 0.42733 0.7345 0.0
H851 H 0.01033 0.42808 0.71262 0.0
C852 C 0.93121 0.39764 0.64457 0.0
C853 C 0.98284 0.39053 0.62362 0.0
C854 C 0.94021 0.40113 0.68061 0.0
C855 C 1.00138 0.39783 0.69576 0.0
C856 C 0.0543 0.39179 0.67381 0.0
H857 H 0.12172 0.40125 0.91766 0.0
H858 H 0.11335 0.40759 0.85394 0.0
C859 C 0.04499 0.38809 0.63822 0.0
C860 C 0.00769 0.39837 0.73513 0.0
H861 H 0.99311 0.42116 0.80945 0.0
C862 C 0.02444 0.38479 0.75215 0.0
C863 C 0.99755 0.41175 0.75587 0.0
C864 C 0.98217 0.42679 0.73892 0.0
C865 C 0.0302 0.38413 0.78919 0.0
C866 C 0.01784 0.39734 0.81009 0.0
C867 C 1.00235 0.41105 0.79327 0.0
C868 C 0.01737 0.39654 0.84961 0.0
C869 C 0.04864 0.3692 0.80589 0.0
C870 C 0.96525 0.38872 0.8683 0.0
C871 C 0.97027 0.38498 0.9042 0.0
C872 C 0.02729 0.38909 0.92221 0.0
C873 C 0.0773 0.39795 0.90432 0.0
C874 C 0.07249 0.4016 0.86805 0.0
H875 H 0.06946 0.36095 0.78562 0.0
H876 H 0.08603 0.37099 0.82628 0.0
H877 H 1.00317 0.36409 0.81948 0.0
H878 H 0.92233 0.38475 0.85453 0.0
H879 H 0.93066 0.37828 0.91748 0.0
H880 H 0.64487 0.89855 0.12797 0.0
H881 H 0.62177 0.89241 0.19098 0.0
H882 H 0.47423 0.85942 0.16235 0.0
H883 H 0.49658 0.86578 0.09884 0.0
H884 H 0.42394 0.87835 0.21329 0.0
H885 H 0.66801 0.85776 0.25479 0.0
H886 H 0.6776 0.8757 0.23243 0.0
H887 H 0.64952 0.85936 0.2083 0.0
C888 C 0.60841 0.88977 0.13498 0.0
C889 C 0.57241 0.88269 0.10842 0.0
C890 C 0.59559 0.88616 0.17111 0.0
C891 C 0.54692 0.87527 0.18161 0.0
C892 C 0.51237 0.86778 0.15498 0.0
H893 H 0.48211 0.86417 0.4178 0.0
H894 H 0.4996 0.85636 0.35444 0.0
C895 C 0.52526 0.8714 0.11869 0.0
C896 C 0.52759 0.87305 0.22041 0.0
H897 H 0.59377 0.86876 0.302 0.0
C898 C 0.46088 0.8759 0.23257 0.0
C899 C 0.57517 0.8696 0.24582 0.0
C900 C 0.64638 0.86527 0.23459 0.0
C901 C 0.44176 0.87655 0.2693 0.0
C902 C 0.49075 0.87452 0.2947 0.0
C903 C 0.55628 0.87051 0.28262 0.0
C904 C 0.47695 0.87853 0.33314 0.0
C905 C 0.36952 0.8799 0.28059 0.0
C906 C 0.45897 0.89352 0.34219 0.0
C907 C 0.44939 0.89794 0.37791 0.0
C908 C 0.45759 0.88751 0.40569 0.0
C909 C 0.47488 0.8724 0.3969 0.0
C910 C 0.48507 0.86797 0.36079 0.0
H911 H 0.33544 0.87601 0.26002 0.0
H912 H 0.35439 0.87434 0.30644 0.0
H913 H 0.36294 0.89237 0.28385 0.0
H914 H 0.45383 0.90197 0.3215 0.0
H915 H 0.43643 0.90969 0.38376 0.0
H916 H 0.41373 0.12223 0.11968 0.0
H917 H 0.4244 0.11422 0.18219 0.0
H918 H 0.55916 0.15173 0.19761 0.0
H919 H 0.55101 0.15924 0.13579 0.0
H920 H 0.60288 0.12737 0.22935 0.0
H921 H 0.33098 0.1344 0.26737 0.0
H922 H 0.3521 0.12056 0.2332 0.0
H923 H 0.36724 0.1404 0.22448 0.0
C924 C 0.44593 0.12863 0.13649 0.0
C925 C 0.4809 0.14146 0.12291 0.0
C926 C 0.45167 0.12413 0.17226 0.0
C927 C 0.49172 0.13253 0.19501 0.0
C928 C 0.52795 0.14503 0.18086 0.0
H929 H 0.46899 0.16141 0.40582 0.0
H930 H 0.45689 0.15366 0.34431 0.0
C931 C 0.52289 0.14937 0.14537 0.0
C932 C 0.49526 0.12908 0.23391 0.0
H933 H 0.40233 0.13028 0.31353 0.0
C934 C 0.55892 0.12777 0.24779 0.0
C935 C 0.43792 0.12956 0.25803 0.0
C936 C 0.36817 0.13141 0.24522 0.0
C937 C 0.56733 0.12818 0.28484 0.0
C938 C 0.51015 0.12936 0.30894 0.0
C939 C 0.44619 0.12941 0.29511 0.0
C940 C 0.51547 0.13305 0.34766 0.0
C941 C 0.63764 0.12854 0.29752 0.0
C942 C 0.55181 0.12396 0.37071 0.0
C943 C 0.55995 0.12859 0.40622 0.0
C944 C 0.5309 0.14222 0.4193 0.0
C945 C 0.49241 0.15088 0.3966 0.0
C946 C 0.48511 0.14641 0.36131 0.0
H947 H 0.67585 0.13051 0.27521 0.0
H948 H 0.64275 0.13761 0.31785 0.0
H949 H 0.64888 0.11746 0.30998 0.0
H950 H 0.57437 0.1134 0.36122 0.0
H951 H 0.58924 0.1216 0.42327 0.0
H952 H 0.51555 0.16415 0.9284 0.0
H953 H 0.53739 0.17015 0.86477 0.0
H954 H 0.38843 0.13725 0.8375 0.0
H955 H 0.36559 0.13148 0.90079 0.0
H956 H 0.58702 0.15091 0.81503 0.0
H957 H 0.34371 0.17149 0.77227 0.0
H958 H 0.36174 0.17011 0.81886 0.0
H959 H 0.33371 0.15366 0.7951 0.0
C960 C 0.48644 0.15846 0.90883 0.0
C961 C 0.43898 0.14731 0.91956 0.0
C962 C 0.49902 0.16188 0.87248 0.0
C963 C 0.464 0.15431 0.84621 0.0
C964 C 0.41496 0.14355 0.85713 0.0
H965 H 0.57545 0.11907 0.64507 0.0
H966 H 0.55701 0.12694 0.7072 0.0
C967 C 0.4023 0.14016 0.89339 0.0
C968 C 0.48355 0.15627 0.80742 0.0
H969 H 0.41845 0.16032 0.72554 0.0
C970 C 0.55035 0.15332 0.79557 0.0
C971 C 0.4363 0.15966 0.78182 0.0
C972 C 0.36506 0.16407 0.79273 0.0
C973 C 0.56989 0.15255 0.75894 0.0
C974 C 0.52125 0.15454 0.73337 0.0
C975 C 0.45563 0.15862 0.74511 0.0
C976 C 0.5355 0.15042 0.69511 0.0
C977 C 0.64218 0.14911 0.74794 0.0
C978 C 0.52864 0.16097 0.66734 0.0
C979 C 0.53943 0.15646 0.63135 0.0
C980 C 0.55609 0.14129 0.62285 0.0
C981 C 0.563 0.13086 0.65075 0.0
C982 C 0.5528 0.13536 0.68637 0.0
H983 H 0.67608 0.15295 0.76864 0.0
H984 H 0.64848 0.13663 0.7447 0.0
H985 H 0.65778 0.15464 0.72212 0.0
H986 H 0.51466 0.17263 0.6735 0.0
H987 H 0.53321 0.16468 0.61032 0.0
H988 H 0.40156 0.90301 0.61333 0.0
H989 H 0.41711 0.91049 0.67589 0.0
H990 H 0.59008 0.8812 0.67699 0.0
H991 H 0.57527 0.87391 0.61526 0.0
H992 H 0.41286 0.89135 0.73441 0.0
H993 H 0.66059 0.91913 0.72265 0.0
H994 H 0.61124 0.91599 0.6844 0.0
H995 H 0.66349 0.90106 0.70037 0.0
C996 C 0.44356 0.89845 0.62684 0.0
C997 C 0.48715 0.88787 0.60943 0.0
C998 C 0.45235 0.90268 0.66255 0.0
C999 C 0.50551 0.89661 0.68109 0.0
C1000 C 0.54976 0.88637 0.6632 0.0
H1001 H 0.60836 0.86432 0.8755 0.0
H1002 H 0.58794 0.87264 0.815 0.0
C1003 C 0.54084 0.8821 0.62787 0.0
C1004 C 0.51226 0.89963 0.71997 0.0
H1005 H 0.63057 0.90704 0.78013 0.0
C1006 C 0.45971 0.89526 0.74443 0.0
C1007 C 0.57327 0.90478 0.73328 0.0
C1008 C 0.63003 0.91066 0.70873 0.0
C1009 C 0.46862 0.89469 0.78144 0.0
C1010 C 0.53149 0.89859 0.7943 0.0
C1011 C 0.5824 0.90401 0.77022 0.0
C1012 C 0.54836 0.89462 0.83125 0.0
C1013 C 0.41244 0.88891 0.80647 0.0
C1014 C 0.53419 0.9044 0.86053 0.0
C1015 C 0.54649 0.89969 0.89547 0.0
C1016 C 0.57248 0.8851 0.90139 0.0
C1017 C 0.58827 0.87562 0.87181 0.0
C1018 C 0.57661 0.88034 0.83719 0.0
H1019 H 0.36474 0.88763 0.79295 0.0
H1020 H 0.42654 0.87768 0.81726 0.0
H1021 H 0.40421 0.89681 0.82951 0.0
H1022 H 0.51225 0.91548 0.85643 0.0
H1023 H 0.53336 0.90717 0.91784 0.0
loop_
_geom_bond_atom_site_label_1
_geom_bond_atom_site_label_2
_geom_bond_distance
_geom_bond_site_symmetry_2
_ccdc_geom_bond_type
Dy0 O4 2.398 . S
Dy0 O5 2.492 1_454 S
Dy0 O6 2.403 . S
Dy0 O7 2.664 . S
Dy0 O11 2.326 1_455 S
Dy0 O15 2.310 1_554 S
Dy0 O16 2.351 . S
C1 O12 1.185 1_554 S
C1 O13 1.355 . S
C2 O4 1.185 1_655 S
C2 O5 1.355 1_554 S
Dy3 O7 2.310 1_556 S
Dy3 O10 2.351 1_456 S
Dy3 O12 2.398 . S
Dy3 O13 2.491 1_556 S
Dy3 O14 2.403 . S
Dy3 O15 2.664 . S
Dy3 O17 2.326 . S
O4 Dy0 2.398 . S
O4 C2 1.185 1_455 S
O5 Dy0 2.492 1_656 S
O5 C2 1.355 1_556 S
O6 Dy0 2.403 . S
O6 C8 1.254 . S
O7 Dy0 2.664 . S
O7 Dy3 2.310 1_554 S
O7 C8 1.268 . S
C8 O6 1.254 . S
C8 O7 1.268 . S
C9 O14 1.254 . S
C9 O15 1.268 . S
O10 Dy3 2.351 1_654 S
O10 C18 1.249 . S
O11 Dy0 2.326 1_655 S
O11 C18 1.267 . S
O12 C1 1.185 1_556 S
O12 Dy3 2.398 . S
O13 C1 1.355 . S
O13 Dy3 2.491 1_554 S
O14 Dy3 2.403 . S
O14 C9 1.254 . S
O15 Dy0 2.310 1_556 S
O15 Dy3 2.664 . S
O15 C9 1.268 . S
O16 Dy0 2.351 . S
O16 C19 1.249 1_554 S
O17 Dy3 2.326 . S
O17 C19 1.267 . S
C18 O10 1.249 . S
C18 O11 1.267 . S
C19 O16 1.249 1_556 S
C19 O17 1.267 . S
Dy20 O24 2.398 . S
Dy20 O25 2.491 1_554 S
Dy20 O26 2.403 . S
Dy20 O27 2.664 . S
Dy20 O31 2.326 . S
Dy20 O35 2.310 1_554 S
Dy20 O36 2.351 1_655 S
C21 O32 1.185 1_454 S
C21 O33 1.355 . S
C22 O24 1.185 . S
C22 O25 1.355 1_554 S
Dy23 O27 2.314 . S
Dy23 O30 2.351 . S
Dy23 O32 2.396 1_554 S
Dy23 O33 2.496 1_655 S
Dy23 O34 2.397 1_554 S
Dy23 O35 2.661 1_554 S
Dy23 O37 2.325 1_654 S
O24 Dy20 2.398 . S
O24 C22 1.185 . S
O25 Dy20 2.491 1_556 S
O25 C22 1.355 1_556 S
O26 Dy20 2.403 . S
O26 C28 1.254 . S
O27 Dy20 2.664 . S
O27 Dy23 2.314 . S
O27 C28 1.268 . S
C28 O26 1.254 . S
C28 O27 1.268 . S
C29 O34 1.254 . S
C29 O35 1.268 . S
O30 Dy23 2.351 . S
O30 C38 1.249 . S
O31 Dy20 2.326 . S
O31 C38 1.267 . S
O32 C21 1.185 1_656 S
O32 Dy23 2.396 1_556 S
O33 C21 1.355 . S
O33 Dy23 2.496 1_455 S
O34 Dy23 2.397 1_556 S
O34 C29 1.254 . S
O35 Dy20 2.310 1_556 S
O35 Dy23 2.661 1_556 S
O35 C29 1.268 . S
O36 Dy20 2.351 1_455 S
O36 C39 1.249 . S
O37 Dy23 2.325 1_456 S
O37 C39 1.267 1_556 S
C38 O30 1.249 . S
C38 O31 1.267 . S
C39 O36 1.249 . S
C39 O37 1.267 1_554 S
Dy40 O44 2.398 . S
Dy40 O45 2.491 . S
Dy40 O46 2.403 . S
Dy40 O47 2.664 . S
Dy40 O51 2.326 . S
Dy40 O55 2.310 . S
Dy40 O56 2.351 1_455 S
C41 O52 1.185 1_655 S
C41 O53 1.355 . S
C42 O44 1.185 . S
C42 O45 1.355 . S
Dy43 O47 2.310 . S
Dy43 O50 2.351 . S
Dy43 O52 2.398 . S
Dy43 O53 2.492 1_455 S
Dy43 O54 2.403 . S
Dy43 O55 2.664 . S
Dy43 O57 2.326 1_455 S
O44 Dy40 2.398 . S
O44 C42 1.185 . S
O45 Dy40 2.491 . S
O45 C42 1.355 . S
O46 Dy40 2.403 . S
O46 C48 1.254 . S
O47 Dy40 2.664 . S
O47 Dy43 2.310 . S
O47 C48 1.268 . S
C48 O46 1.254 . S
C48 O47 1.268 . S
C49 O54 1.254 . S
C49 O55 1.268 . S
O50 Dy43 2.351 . S
O50 C58 1.249 . S
O51 Dy40 2.326 . S
O51 C58 1.267 . S
O52 C41 1.185 1_455 S
O52 Dy43 2.398 . S
O53 C41 1.355 . S
O53 Dy43 2.492 1_655 S
O54 Dy43 2.403 . S
O54 C49 1.254 . S
O55 Dy40 2.310 . S
O55 Dy43 2.664 . S
O55 C49 1.268 . S
O56 Dy40 2.351 1_655 S
O56 C59 1.249 . S
O57 Dy43 2.326 1_655 S
O57 C59 1.267 . S
C58 O50 1.249 . S
C58 O51 1.267 . S
C59 O56 1.249 . S
C59 O57 1.267 . S
Dy60 O64 2.398 . S
Dy60 O65 2.492 1_655 S
Dy60 O66 2.403 . S
Dy60 O67 2.664 . S
Dy60 O71 2.326 1_655 S
Dy60 O75 2.310 . S
Dy60 O76 2.351 . S
C61 O72 1.185 . S
C61 O73 1.355 . S
C62 O64 1.185 1_455 S
C62 O65 1.355 . S
Dy63 O67 2.310 . S
Dy63 O70 2.351 1_655 S
Dy63 O72 2.398 . S
Dy63 O73 2.491 . S
Dy63 O74 2.403 . S
Dy63 O75 2.664 . S
Dy63 O77 2.326 . S
O64 Dy60 2.398 . S
O64 C62 1.185 1_655 S
O65 Dy60 2.492 1_455 S
O65 C62 1.355 . S
O66 Dy60 2.403 . S
O66 C68 1.254 . S
O67 Dy60 2.664 . S
O67 Dy63 2.310 . S
O67 C68 1.268 . S
C68 O66 1.254 . S
C68 O67 1.268 . S
C69 O74 1.254 . S
C69 O75 1.268 . S
O70 Dy63 2.351 1_455 S
O70 C78 1.249 . S
O71 Dy60 2.326 1_455 S
O71 C78 1.267 . S
O72 C61 1.185 . S
O72 Dy63 2.398 . S
O73 C61 1.355 . S
O73 Dy63 2.491 . S
O74 Dy63 2.403 . S
O74 C69 1.254 . S
O75 Dy60 2.310 . S
O75 Dy63 2.664 . S
O75 C69 1.268 . S
O76 Dy60 2.351 . S
O76 C79 1.249 . S
O77 Dy63 2.326 . S
O77 C79 1.267 . S
C78 O70 1.249 . S
C78 O71 1.267 . S
C79 O76 1.249 . S
C79 O77 1.267 . S
Dy80 O84 2.398 . S
Dy80 O85 2.491 1_554 S
Dy80 O86 2.403 . S
Dy80 O87 2.664 . S
Dy80 O91 2.326 . S
Dy80 O95 2.310 1_554 S
Dy80 O96 2.351 . S
C81 O92 1.185 1_554 S
C81 O93 1.355 . S
C82 O84 1.185 . S
C82 O85 1.355 1_554 S
Dy83 O87 2.310 1_556 S
Dy83 O90 2.351 1_556 S
Dy83 O92 2.398 . S
Dy83 O93 2.491 1_556 S
Dy83 O94 2.403 . S
Dy83 O95 2.664 . S
Dy83 O97 2.326 . S
O84 Dy80 2.398 . S
O84 C82 1.185 . S
O85 Dy80 2.491 1_556 S
O85 C82 1.355 1_556 S
O86 Dy80 2.403 . S
O86 C88 1.254 . S
O87 Dy80 2.664 . S
O87 Dy83 2.310 1_554 S
O87 C88 1.268 . S
C88 O86 1.254 . S
C88 O87 1.268 . S
C89 O94 1.254 . S
C89 O95 1.268 . S
O90 Dy83 2.351 1_554 S
O90 C98 1.249 . S
O91 Dy80 2.326 . S
O91 C98 1.267 . S
O92 C81 1.185 1_556 S
O92 Dy83 2.398 . S
O93 C81 1.355 . S
O93 Dy83 2.491 1_554 S
O94 Dy83 2.403 . S
O94 C89 1.254 . S
O95 Dy80 2.310 1_556 S
O95 Dy83 2.664 . S
O95 C89 1.268 . S
O96 Dy80 2.351 . S
O96 C99 1.249 1_554 S
O97 Dy83 2.326 . S
O97 C99 1.267 . S
C98 O90 1.249 . S
C98 O91 1.267 . S
C99 O96 1.249 1_556 S
C99 O97 1.267 . S
Dy100 O104 2.398 . S
Dy100 O105 2.491 1_554 S
Dy100 O106 2.403 . S
Dy100 O107 2.664 . S
Dy100 O111 2.326 . S
Dy100 O115 2.310 1_554 S
Dy100 O116 2.351 . S
C101 O112 1.185 1_554 S
C101 O113 1.355 . S
C102 O104 1.185 . S
C102 O105 1.355 1_554 S
Dy103 O107 2.314 . S
Dy103 O110 2.351 . S
Dy103 O112 2.396 1_554 S
Dy103 O113 2.495 . S
Dy103 O114 2.397 1_554 S
Dy103 O115 2.661 1_554 S
Dy103 O117 2.325 1_554 S
O104 Dy100 2.398 . S
O104 C102 1.185 . S
O105 Dy100 2.491 1_556 S
O105 C102 1.355 1_556 S
O106 Dy100 2.403 . S
O106 C108 1.254 . S
O107 Dy100 2.664 . S
O107 Dy103 2.314 . S
O107 C108 1.268 . S
C108 O106 1.254 . S
C108 O107 1.268 . S
C109 O114 1.254 . S
C109 O115 1.268 . S
O110 Dy103 2.351 . S
O110 C118 1.249 . S
O111 Dy100 2.326 . S
O111 C118 1.267 . S
O112 C101 1.185 1_556 S
O112 Dy103 2.396 1_556 S
O113 C101 1.355 . S
O113 Dy103 2.495 . S
O114 Dy103 2.397 1_556 S
O114 C109 1.254 . S
O115 Dy100 2.310 1_556 S
O115 Dy103 2.661 1_556 S
O115 C109 1.268 . S
O116 Dy100 2.351 . S
O116 C119 1.249 . S
O117 Dy103 2.325 1_556 S
O117 C119 1.267 1_556 S
C118 O110 1.249 . S
C118 O111 1.267 . S
C119 O116 1.249 . S
C119 O117 1.267 1_554 S
Dy120 O124 2.398 . S
Dy120 O125 2.491 . S
Dy120 O126 2.403 . S
Dy120 O127 2.664 . S
Dy120 O131 2.326 . S
Dy120 O135 2.310 . S
Dy120 O136 2.351 . S
C121 O132 1.185 . S
C121 O133 1.355 . S
C122 O124 1.185 . S
C122 O125 1.355 . S
Dy123 O127 2.310 . S
Dy123 O130 2.351 . S
Dy123 O132 2.398 . S
Dy123 O133 2.491 . S
Dy123 O134 2.403 . S
Dy123 O135 2.664 . S
Dy123 O137 2.326 . S
O124 Dy120 2.398 . S
O124 C122 1.185 . S
O125 Dy120 2.491 . S
O125 C122 1.355 . S
O126 Dy120 2.403 . S
O126 C128 1.254 . S
O127 Dy120 2.664 . S
O127 Dy123 2.310 . S
O127 C128 1.268 . S
C128 O126 1.254 . S
C128 O127 1.268 . S
C129 O134 1.254 . S
C129 O135 1.268 . S
O130 Dy123 2.351 . S
O130 C138 1.249 . S
O131 Dy120 2.326 . S
O131 C138 1.267 . S
O132 C121 1.185 . S
O132 Dy123 2.398 . S
O133 C121 1.355 . S
O133 Dy123 2.491 . S
O134 Dy123 2.403 . S
O134 C129 1.254 . S
O135 Dy120 2.310 . S
O135 Dy123 2.664 . S
O135 C129 1.268 . S
O136 Dy120 2.351 . S
O136 C139 1.249 . S
O137 Dy123 2.326 . S
O137 C139 1.267 . S
C138 O130 1.249 . S
C138 O131 1.267 . S
C139 O136 1.249 . S
C139 O137 1.267 . S
Dy140 O144 2.398 . S
Dy140 O145 2.491 . S
Dy140 O146 2.403 . S
Dy140 O147 2.664 . S
Dy140 O151 2.326 . S
Dy140 O155 2.310 . S
Dy140 O156 2.351 . S
C141 O152 1.185 . S
C141 O153 1.355 . S
C142 O144 1.185 . S
C142 O145 1.355 . S
Dy143 O147 2.310 . S
Dy143 O150 2.351 . S
Dy143 O152 2.398 . S
Dy143 O153 2.491 . S
Dy143 O154 2.403 . S
Dy143 O155 2.664 . S
Dy143 O157 2.326 . S
O144 Dy140 2.398 . S
O144 C142 1.185 . S
O145 Dy140 2.491 . S
O145 C142 1.355 . S
O146 Dy140 2.403 . S
O146 C148 1.254 . S
O147 Dy140 2.664 . S
O147 Dy143 2.310 . S
O147 C148 1.268 . S
C148 O146 1.254 . S
C148 O147 1.268 . S
C149 O154 1.254 . S
C149 O155 1.268 . S
O150 Dy143 2.351 . S
O150 C158 1.249 . S
O151 Dy140 2.326 . S
O151 C158 1.267 . S
O152 C141 1.185 . S
O152 Dy143 2.398 . S
O153 C141 1.355 . S
O153 Dy143 2.491 . S
O154 Dy143 2.403 . S
O154 C149 1.254 . S
O155 Dy140 2.310 . S
O155 Dy143 2.664 . S
O155 C149 1.268 . S
O156 Dy140 2.351 . S
O156 C159 1.249 . S
O157 Dy143 2.326 . S
O157 C159 1.267 . S
C158 O150 1.249 . S
C158 O151 1.267 . S
C159 O156 1.249 . S
C159 O157 1.267 . S
H160 C168 0.929 . S
H161 C170 0.930 . S
H162 C172 0.930 . S
H163 C175 0.929 . S
H164 C178 0.930 . S
H165 C180 0.960 . S
H166 C180 0.960 . S
H167 C180 0.960 . S
C168 H160 0.929 . S
C168 C169 1.377 . S
C168 C170 1.384 . S
C169 C168 1.377 . S
C169 C175 1.390 1_554 S
C170 H161 0.930 . S
C170 C168 1.384 . S
C170 C171 1.372 . S
C171 C170 1.372 . S
C171 C172 1.400 1_554 S
C171 C176 1.490 . S
C172 H162 0.930 . S
C172 C171 1.400 1_556 S
C172 C175 1.386 . S
H173 C189 0.930 . S
H174 C190 0.931 . S
C175 H163 0.929 . S
C175 C169 1.390 1_556 S
C175 C172 1.386 . S
C176 C171 1.490 . S
C176 C178 1.395 1_554 S
C176 C179 1.403 . S
H177 C183 0.930 . S
C178 H164 0.930 . S
C178 C176 1.395 1_556 S
C178 C181 1.403 . S
C179 C176 1.403 . S
C179 C180 1.524 . S
C179 C183 1.400 . S
C180 H165 0.960 . S
C180 H166 0.960 . S
C180 H167 0.960 . S
C180 C179 1.524 . S
C181 C178 1.403 . S
C181 C182 1.392 1_556 S
C181 C185 1.495 . S
C182 C181 1.392 1_554 S
C182 C183 1.385 . S
C182 C184 1.478 . S
C183 H177 0.930 . S
C183 C179 1.400 . S
C183 C182 1.385 . S
C184 C182 1.478 . S
C184 C186 1.381 . S
C184 C190 1.383 1_554 S
C185 C181 1.495 . S
C185 H191 0.959 . S
C185 H192 0.961 . S
C185 H193 0.960 1_556 S
C186 C184 1.381 . S
C186 C187 1.394 . S
C186 H194 0.930 . S
C187 C186 1.394 . S
C187 C188 1.383 . S
C187 H195 0.929 . S
C188 C187 1.383 . S
C188 C189 1.377 1_554 S
C189 H173 0.930 . S
C189 C188 1.377 1_556 S
C189 C190 1.379 . S
C190 H174 0.931 . S
C190 C184 1.383 1_556 S
C190 C189 1.379 . S
H191 C185 0.959 . S
H192 C185 0.961 . S
H193 C185 0.960 1_554 S
H194 C186 0.930 . S
H195 C187 0.929 . S
H196 C204 0.929 . S
H197 C206 0.930 . S
H198 C208 0.930 . S
H199 C211 0.929 . S
H200 C214 0.930 . S
H201 C216 0.960 . S
H202 C216 0.960 . S
H203 C216 0.960 . S
C204 H196 0.929 . S
C204 C205 1.377 1_556 S
C204 C206 1.384 . S
C205 C204 1.377 1_554 S
C205 C211 1.390 . S
C206 H197 0.930 . S
C206 C204 1.384 . S
C206 C207 1.372 1_556 S
C207 C206 1.372 1_554 S
C207 C208 1.400 . S
C207 C212 1.490 . S
C208 H198 0.930 . S
C208 C207 1.400 . S
C208 C211 1.386 . S
H209 C225 0.930 . S
H210 C226 0.931 . S
C211 H199 0.929 . S
C211 C205 1.390 . S
C211 C208 1.386 . S
C212 C207 1.490 . S
C212 C214 1.395 1_554 S
C212 C215 1.403 . S
H213 C219 0.930 . S
C214 H200 0.930 . S
C214 C212 1.395 1_556 S
C214 C217 1.403 . S
C215 C212 1.403 . S
C215 C216 1.524 . S
C215 C219 1.400 . S
C216 H201 0.960 . S
C216 H202 0.960 . S
C216 H203 0.960 . S
C216 C215 1.524 . S
C217 C214 1.403 . S
C217 C218 1.392 . S
C217 C221 1.495 . S
C218 C217 1.392 . S
C218 C219 1.385 1_556 S
C218 C220 1.480 . S
C219 H213 0.930 . S
C219 C215 1.400 . S
C219 C218 1.385 1_554 S
C220 C218 1.480 . S
C220 C222 1.398 . S
C220 C226 1.363 1_556 S
C221 C217 1.495 . S
C221 H227 0.959 . S
C221 H228 0.961 . S
C221 H229 0.960 . S
C222 C220 1.398 . S
C222 C223 1.394 . S
C222 H230 0.930 . S
C223 C222 1.394 . S
C223 C224 1.383 1_556 S
C223 H231 0.929 . S
C224 C223 1.383 1_554 S
C224 C225 1.377 . S
C225 H209 0.930 . S
C225 C224 1.377 . S
C225 C226 1.379 . S
C226 H210 0.931 . S
C226 C220 1.363 1_554 S
C226 C225 1.379 . S
H227 C221 0.959 . S
H228 C221 0.961 . S
H229 C221 0.960 . S
H230 C222 0.930 . S
H231 C223 0.929 . S
H232 C240 0.929 . S
H233 C242 0.930 . S
H234 C244 0.930 . S
H235 C247 0.929 . S
H236 C250 0.930 . S
H237 C252 0.960 . S
H238 C252 0.960 . S
H239 C252 0.960 . S
C240 H232 0.929 . S
C240 C241 1.377 . S
C240 C242 1.384 . S
C241 C240 1.377 . S
C241 C247 1.390 . S
C242 H233 0.930 . S
C242 C240 1.384 . S
C242 C243 1.372 . S
C243 C242 1.372 . S
C243 C244 1.400 . S
C243 C248 1.490 . S
C244 H234 0.930 . S
C244 C243 1.400 . S
C244 C247 1.386 . S
H245 C261 0.930 . S
H246 C262 0.931 . S
C247 H235 0.929 . S
C247 C241 1.390 . S
C247 C244 1.386 . S
C248 C243 1.490 . S
C248 C250 1.395 . S
C248 C251 1.403 . S
H249 C255 0.930 . S
C250 H236 0.930 . S
C250 C248 1.395 . S
C250 C253 1.403 . S
C251 C248 1.403 . S
C251 C252 1.524 . S
C251 C255 1.400 . S
C252 H237 0.960 . S
C252 H238 0.960 . S
C252 H239 0.960 . S
C252 C251 1.524 . S
C253 C250 1.403 . S
C253 C254 1.392 . S
C253 C257 1.495 . S
C254 C253 1.392 . S
C254 C255 1.385 . S
C254 C256 1.478 . S
C255 H249 0.930 . S
C255 C251 1.400 . S
C255 C254 1.385 . S
C256 C254 1.478 . S
C256 C258 1.381 . S
C256 C262 1.383 . S
C257 C253 1.495 . S
C257 H263 0.959 . S
C257 H264 0.961 . S
C257 H265 0.960 . S
C258 C256 1.381 . S
C258 C259 1.394 . S
C258 H266 0.930 . S
C259 C258 1.394 . S
C259 C260 1.383 . S
C259 H267 0.929 . S
C260 C259 1.383 . S
C260 C261 1.377 . S
C261 H245 0.930 . S
C261 C260 1.377 . S
C261 C262 1.379 . S
C262 H246 0.931 . S
C262 C256 1.383 . S
C262 C261 1.379 . S
H263 C257 0.959 . S
H264 C257 0.961 . S
H265 C257 0.960 . S
H266 C258 0.930 . S
H267 C259 0.929 . S
H268 C276 0.929 . S
H269 C278 0.930 . S
H270 C280 0.930 . S
H271 C283 0.929 . S
H272 C286 0.930 . S
H273 C288 0.960 . S
H274 C288 0.960 . S
H275 C288 0.960 . S
C276 H268 0.929 . S
C276 C277 1.377 . S
C276 C278 1.384 . S
C277 C276 1.377 . S
C277 C283 1.390 . S
C278 H269 0.930 . S
C278 C276 1.384 . S
C278 C279 1.372 . S
C279 C278 1.372 . S
C279 C280 1.400 . S
C279 C284 1.490 . S
C280 H270 0.930 . S
C280 C279 1.400 . S
C280 C283 1.386 . S
H281 C297 0.930 . S
H282 C298 0.931 . S
C283 H271 0.929 . S
C283 C277 1.390 . S
C283 C280 1.386 . S
C284 C279 1.490 . S
C284 C286 1.395 . S
C284 C287 1.403 . S
H285 C291 0.930 . S
C286 H272 0.930 . S
C286 C284 1.395 . S
C286 C289 1.403 . S
C287 C284 1.403 . S
C287 C288 1.524 . S
C287 C291 1.400 . S
C288 H273 0.960 . S
C288 H274 0.960 . S
C288 H275 0.960 . S
C288 C287 1.524 . S
C289 C286 1.403 . S
C289 C290 1.392 . S
C289 C293 1.495 . S
C290 C289 1.392 . S
C290 C291 1.385 . S
C290 C292 1.478 . S
C291 H285 0.930 . S
C291 C287 1.400 . S
C291 C290 1.385 . S
C292 C290 1.478 . S
C292 C294 1.381 . S
C292 C298 1.383 . S
C293 C289 1.495 . S
C293 H299 0.959 . S
C293 H300 0.961 . S
C293 H301 0.960 . S
C294 C292 1.381 . S
C294 C295 1.394 . S
C294 H302 0.930 . S
C295 C294 1.394 . S
C295 C296 1.383 . S
C295 H303 0.929 . S
C296 C295 1.383 . S
C296 C297 1.377 . S
C297 H281 0.930 . S
C297 C296 1.377 . S
C297 C298 1.379 . S
C298 H282 0.931 . S
C298 C292 1.383 . S
C298 C297 1.379 . S
H299 C293 0.959 . S
H300 C293 0.961 . S
H301 C293 0.960 . S
H302 C294 0.930 . S
H303 C295 0.929 . S
H304 C312 0.929 . S
H305 C314 0.930 . S
H306 C316 0.930 . S
H307 C319 0.929 . S
H308 C322 0.930 . S
H309 C324 0.960 1_455 S
H310 C324 0.960 . S
H311 C324 0.960 . S
C312 H304 0.929 . S
C312 C313 1.377 1_556 S
C312 C314 1.384 . S
C313 C312 1.377 1_554 S
C313 C319 1.390 . S
C314 H305 0.930 . S
C314 C312 1.384 . S
C314 C315 1.372 1_556 S
C315 C314 1.372 1_554 S
C315 C316 1.400 . S
C315 C320 1.489 . S
C316 H306 0.930 . S
C316 C315 1.400 . S
C316 C319 1.386 . S
H317 C333 0.930 . S
H318 C334 0.931 . S
C319 H307 0.929 . S
C319 C313 1.390 . S
C319 C316 1.386 . S
C320 C315 1.489 . S
C320 C322 1.375 1_654 S
C320 C323 1.423 1_655 S
H321 C327 0.930 . S
C322 H308 0.930 . S
C322 C320 1.375 1_456 S
C322 C325 1.403 . S
C323 C320 1.423 1_455 S
C323 C324 1.524 1_455 S
C323 C327 1.400 . S
C324 H309 0.960 1_655 S
C324 H310 0.960 . S
C324 H311 0.960 . S
C324 C323 1.524 1_655 S
C325 C322 1.403 . S
C325 C326 1.392 . S
C325 C329 1.495 . S
C326 C325 1.392 . S
C326 C327 1.385 1_556 S
C326 C328 1.478 . S
C327 H321 0.930 . S
C327 C323 1.400 . S
C327 C326 1.385 1_554 S
C328 C326 1.478 . S
C328 C330 1.381 . S
C328 C334 1.383 1_556 S
C329 C325 1.495 . S
C329 H335 0.959 . S
C329 H336 0.961 . S
C329 H337 0.960 . S
C330 C328 1.381 . S
C330 C331 1.394 . S
C330 H338 0.930 . S
C331 C330 1.394 . S
C331 C332 1.383 1_556 S
C331 H339 0.929 . S
C332 C331 1.383 1_554 S
C332 C333 1.377 . S
C333 H317 0.930 . S
C333 C332 1.377 . S
C333 C334 1.379 . S
C334 H318 0.931 . S
C334 C328 1.383 1_554 S
C334 C333 1.379 . S
H335 C329 0.959 . S
H336 C329 0.961 . S
H337 C329 0.960 . S
H338 C330 0.930 . S
H339 C331 0.929 . S
H340 C348 0.929 . S
H341 C350 0.930 . S
H342 C352 0.930 . S
H343 C355 0.929 . S
H344 C358 0.930 . S
H345 C360 0.960 1_655 S
H346 C360 0.960 . S
H347 C360 0.960 . S
C348 H340 0.929 . S
C348 C349 1.377 . S
C348 C350 1.384 . S
C349 C348 1.377 . S
C349 C355 1.390 1_554 S
C350 H341 0.930 . S
C350 C348 1.384 . S
C350 C351 1.372 . S
C351 C350 1.372 . S
C351 C352 1.400 1_554 S
C351 C356 1.490 . S
C352 H342 0.930 . S
C352 C351 1.400 1_556 S
C352 C355 1.386 . S
H353 C369 0.930 . S
H354 C370 0.931 . S
C355 H343 0.929 . S
C355 C349 1.390 1_556 S
C355 C352 1.386 . S
C356 C351 1.490 . S
C356 C358 1.395 1_455 S
C356 C359 1.403 1_454 S
H357 C363 0.930 . S
C358 H344 0.930 . S
C358 C356 1.395 1_655 S
C358 C361 1.403 . S
C359 C356 1.403 1_656 S
C359 C360 1.524 1_655 S
C359 C363 1.400 . S
C360 H345 0.960 1_455 S
C360 H346 0.960 . S
C360 H347 0.960 . S
C360 C359 1.524 1_455 S
C361 C358 1.403 . S
C361 C362 1.392 . S
C361 C365 1.495 . S
C362 C361 1.392 . S
C362 C363 1.385 1_554 S
C362 C364 1.478 . S
C363 H357 0.930 . S
C363 C359 1.400 . S
C363 C362 1.385 1_556 S
C364 C362 1.478 . S
C364 C366 1.381 . S
C364 C370 1.383 1_554 S
C365 C361 1.495 . S
C365 H371 0.959 . S
C365 H372 0.961 . S
C365 H373 0.960 . S
C366 C364 1.381 . S
C366 C367 1.394 . S
C366 H374 0.930 . S
C367 C366 1.394 . S
C367 C368 1.383 . S
C367 H375 0.929 . S
C368 C367 1.383 . S
C368 C369 1.377 1_554 S
C369 H353 0.930 . S
C369 C368 1.377 1_556 S
C369 C370 1.379 . S
C370 H354 0.931 . S
C370 C364 1.383 1_556 S
C370 C369 1.379 . S
H371 C365 0.959 . S
H372 C365 0.961 . S
H373 C365 0.960 . S
H374 C366 0.930 . S
H375 C367 0.929 . S
H376 C384 0.929 . S
H377 C386 0.930 . S
H378 C388 0.930 . S
H379 C391 0.929 . S
H380 C394 0.930 . S
H381 C396 0.960 . S
H382 C396 0.960 . S
H383 C396 0.960 . S
C384 H376 0.929 . S
C384 C385 1.377 . S
C384 C386 1.384 . S
C385 C384 1.377 . S
C385 C391 1.390 . S
C386 H377 0.930 . S
C386 C384 1.384 . S
C386 C387 1.372 . S
C387 C386 1.372 . S
C387 C388 1.400 . S
C387 C392 1.490 . S
C388 H378 0.930 . S
C388 C387 1.400 . S
C388 C391 1.386 . S
H389 C405 0.930 . S
H390 C406 0.931 . S
C391 H379 0.929 . S
C391 C385 1.390 . S
C391 C388 1.386 . S
C392 C387 1.490 . S
C392 C394 1.395 . S
C392 C395 1.403 . S
H393 C399 0.930 1_655 S
C394 H380 0.930 . S
C394 C392 1.395 . S
C394 C397 1.403 . S
C395 C392 1.403 . S
C395 C396 1.524 . S
C395 C399 1.400 . S
C396 H381 0.960 . S
C396 H382 0.960 . S
C396 H383 0.960 . S
C396 C395 1.524 . S
C397 C394 1.403 . S
C397 C398 1.392 1_455 S
C397 C401 1.495 . S
C398 C397 1.392 1_655 S
C398 C399 1.385 1_655 S
C398 C400 1.478 . S
C399 H393 0.930 1_455 S
C399 C395 1.400 . S
C399 C398 1.385 1_455 S
C400 C398 1.478 . S
C400 C402 1.381 . S
C400 C406 1.383 . S
C401 C397 1.495 . S
C401 H407 0.959 . S
C401 H408 0.961 1_455 S
C401 H409 0.960 1_455 S
C402 C400 1.381 . S
C402 C403 1.394 . S
C402 H410 0.930 . S
C403 C402 1.394 . S
C403 C404 1.383 . S
C403 H411 0.929 . S
C404 C403 1.383 . S
C404 C405 1.377 . S
C405 H389 0.930 . S
C405 C404 1.377 . S
C405 C406 1.379 . S
C406 H390 0.931 . S
C406 C400 1.383 . S
C406 C405 1.379 . S
H407 C401 0.959 . S
H408 C401 0.961 1_655 S
H409 C401 0.960 1_655 S
H410 C402 0.930 . S
H411 C403 0.929 . S
H412 C420 0.929 . S
H413 C422 0.930 . S
H414 C424 0.930 . S
H415 C427 0.929 . S
H416 C430 0.930 . S
H417 C432 0.960 . S
H418 C432 0.960 . S
H419 C432 0.960 . S
C420 H412 0.929 . S
C420 C421 1.377 . S
C420 C422 1.384 . S
C421 C420 1.377 . S
C421 C427 1.390 . S
C422 H413 0.930 . S
C422 C420 1.384 . S
C422 C423 1.372 . S
C423 C422 1.372 . S
C423 C424 1.400 . S
C423 C428 1.490 . S
C424 H414 0.930 . S
C424 C423 1.400 . S
C424 C427 1.386 . S
H425 C441 0.930 . S
H426 C442 0.931 . S
C427 H415 0.929 . S
C427 C421 1.390 . S
C427 C424 1.386 . S
C428 C423 1.490 . S
C428 C430 1.395 . S
C428 C431 1.403 . S
H429 C435 0.930 . S
C430 H416 0.930 . S
C430 C428 1.395 . S
C430 C433 1.403 . S
C431 C428 1.403 . S
C431 C432 1.524 . S
C431 C435 1.400 . S
C432 H417 0.960 . S
C432 H418 0.960 . S
C432 H419 0.960 . S
C432 C431 1.524 . S
C433 C430 1.403 . S
C433 C434 1.392 1_655 S
C433 C437 1.495 1_655 S
C434 C433 1.392 1_455 S
C434 C435 1.385 1_455 S
C434 C436 1.478 . S
C435 H429 0.930 . S
C435 C431 1.400 . S
C435 C434 1.385 1_655 S
C436 C434 1.478 . S
C436 C438 1.381 . S
C436 C442 1.383 . S
C437 C433 1.495 1_455 S
C437 H443 0.959 1_455 S
C437 H444 0.961 . S
C437 H445 0.960 . S
C438 C436 1.381 . S
C438 C439 1.394 . S
C438 H446 0.930 . S
C439 C438 1.394 . S
C439 C440 1.383 . S
C439 H447 0.929 . S
C440 C439 1.383 . S
C440 C441 1.377 . S
C441 H425 0.930 . S
C441 C440 1.377 . S
C441 C442 1.379 . S
C442 H426 0.931 . S
C442 C436 1.383 . S
C442 C441 1.379 . S
H443 C437 0.959 1_655 S
H444 C437 0.961 . S
H445 C437 0.960 . S
H446 C438 0.930 . S
H447 C439 0.929 . S
H448 C456 0.929 . S
H449 C458 0.930 . S
H450 C460 0.930 1_655 S
H451 C463 0.929 . S
H452 C466 0.930 . S
H453 C468 0.960 . S
H454 C468 0.960 . S
H455 C468 0.960 . S
C456 H448 0.929 . S
C456 C457 1.377 . S
C456 C458 1.384 . S
C457 C456 1.377 . S
C457 C463 1.390 1_554 S
C458 H449 0.930 . S
C458 C456 1.384 . S
C458 C459 1.372 . S
C459 C458 1.372 . S
C459 C460 1.400 1_554 S
C459 C464 1.490 . S
C460 H450 0.930 1_455 S
C460 C459 1.400 1_556 S
C460 C463 1.386 . S
H461 C477 0.930 . S
H462 C478 0.931 . S
C463 H451 0.929 . S
C463 C457 1.390 1_556 S
C463 C460 1.386 . S
C464 C459 1.490 . S
C464 C466 1.395 1_455 S
C464 C467 1.403 1_554 S
H465 C471 0.930 . S
C466 H452 0.930 . S
C466 C464 1.395 1_655 S
C466 C469 1.403 . S
C467 C464 1.403 1_556 S
C467 C468 1.524 . S
C467 C471 1.400 . S
C468 H453 0.960 . S
C468 H454 0.960 . S
C468 H455 0.960 . S
C468 C467 1.524 . S
C469 C466 1.403 . S
C469 C470 1.392 . S
C469 C473 1.495 . S
C470 C469 1.392 . S
C470 C471 1.385 1_654 S
C470 C472 1.478 . S
C471 H465 0.930 . S
C471 C467 1.400 . S
C471 C470 1.385 1_456 S
C472 C470 1.478 . S
C472 C474 1.381 . S
C472 C478 1.383 1_554 S
C473 C469 1.495 . S
C473 H479 0.959 . S
C473 H480 0.961 . S
C473 H481 0.960 . S
C474 C472 1.381 . S
C474 C475 1.394 . S
C474 H482 0.930 1_655 S
C475 C474 1.394 . S
C475 C476 1.383 . S
C475 H483 0.928 1_655 S
C476 C475 1.383 . S
C476 C477 1.377 1_554 S
C477 H461 0.930 . S
C477 C476 1.377 1_556 S
C477 C478 1.379 . S
C478 H462 0.931 . S
C478 C472 1.383 1_556 S
C478 C477 1.379 . S
H479 C473 0.959 . S
H480 C473 0.961 . S
H481 C473 0.960 . S
H482 C474 0.930 1_455 S
H483 C475 0.928 1_455 S
H484 C492 0.929 . S
H485 C494 0.930 . S
H486 C496 0.930 . S
H487 C499 0.929 . S
H488 C502 0.930 . S
H489 C504 0.960 . S
H490 C504 0.960 . S
H491 C504 0.960 . S
C492 H484 0.929 . S
C492 C493 1.377 1_655 S
C492 C494 1.384 . S
C493 C492 1.377 1_455 S
C493 C499 1.390 . S
C494 H485 0.930 . S
C494 C492 1.384 . S
C494 C495 1.372 1_655 S
C495 C494 1.372 1_455 S
C495 C496 1.400 . S
C495 C500 1.490 . S
C496 H486 0.930 . S
C496 C495 1.400 . S
C496 C499 1.386 . S
H497 C513 0.930 . S
H498 C514 0.931 . S
C499 H487 0.929 . S
C499 C493 1.390 . S
C499 C496 1.386 . S
C500 C495 1.490 . S
C500 C502 1.395 1_455 S
C500 C503 1.403 . S
H501 C507 0.930 . S
C502 H488 0.930 . S
C502 C500 1.395 1_655 S
C502 C505 1.403 . S
C503 C500 1.403 . S
C503 C504 1.524 . S
C503 C507 1.400 . S
C504 H489 0.960 . S
C504 H490 0.960 . S
C504 H491 0.960 . S
C504 C503 1.524 . S
C505 C502 1.403 . S
C505 C506 1.392 . S
C505 C509 1.495 . S
C506 C505 1.392 . S
C506 C507 1.385 1_655 S
C506 C508 1.478 . S
C507 H501 0.930 . S
C507 C503 1.400 . S
C507 C506 1.385 1_455 S
C508 C506 1.478 . S
C508 C510 1.381 . S
C508 C514 1.383 1_655 S
C509 C505 1.495 . S
C509 H515 0.959 . S
C509 H516 0.961 . S
C509 H517 0.960 . S
C510 C508 1.381 . S
C510 C511 1.394 . S
C510 H518 0.930 . S
C511 C510 1.394 . S
C511 C512 1.383 . S
C511 H519 0.929 . S
C512 C511 1.383 . S
C512 C513 1.377 1_655 S
C513 H497 0.930 . S
C513 C512 1.377 1_455 S
C513 C514 1.379 . S
C514 H498 0.931 . S
C514 C508 1.383 1_455 S
C514 C513 1.379 . S
H515 C509 0.959 . S
H516 C509 0.961 . S
H517 C509 0.960 . S
H518 C510 0.930 . S
H519 C511 0.929 . S
H520 C528 0.929 . S
H521 C530 0.930 . S
H522 C532 0.930 . S
H523 C535 0.929 . S
H524 C538 0.930 . S
H525 C540 0.960 . S
H526 C540 0.960 . S
H527 C540 0.960 . S
C528 H520 0.929 . S
C528 C529 1.377 . S
C528 C530 1.384 . S
C529 C528 1.377 . S
C529 C535 1.390 1_554 S
C530 H521 0.930 . S
C530 C528 1.384 . S
C530 C531 1.372 . S
C531 C530 1.372 . S
C531 C532 1.400 1_554 S
C531 C536 1.490 . S
C532 H522 0.930 . S
C532 C531 1.400 1_556 S
C532 C535 1.386 . S
H533 C549 0.930 . S
H534 C550 0.931 . S
C535 H523 0.929 . S
C535 C529 1.390 1_556 S
C535 C532 1.386 . S
C536 C531 1.490 . S
C536 C538 1.395 1_554 S
C536 C539 1.403 . S
H537 C543 0.930 . S
C538 H524 0.930 . S
C538 C536 1.395 1_556 S
C538 C541 1.403 1_565 S
C539 C536 1.403 . S
C539 C540 1.524 . S
C539 C543 1.400 1_565 S
C540 H525 0.960 . S
C540 H526 0.960 . S
C540 H527 0.960 . S
C540 C539 1.524 . S
C541 C538 1.403 1_545 S
C541 C542 1.392 1_556 S
C541 C545 1.495 . S
C542 C541 1.392 1_554 S
C542 C543 1.385 . S
C542 C544 1.478 . S
C543 H537 0.930 . S
C543 C539 1.400 1_545 S
C543 C542 1.385 . S
C544 C542 1.478 . S
C544 C546 1.381 . S
C544 C550 1.383 1_554 S
C545 C541 1.495 . S
C545 H551 0.959 . S
C545 H552 0.961 . S
C545 H553 0.960 . S
C546 C544 1.381 . S
C546 C547 1.394 . S
C546 H554 0.930 . S
C547 C546 1.394 . S
C547 C548 1.383 . S
C547 H555 0.929 . S
C548 C547 1.383 . S
C548 C549 1.377 1_554 S
C549 H533 0.930 . S
C549 C548 1.377 1_556 S
C549 C550 1.379 . S
C550 H534 0.931 . S
C550 C544 1.383 1_556 S
C550 C549 1.379 . S
H551 C545 0.959 . S
H552 C545 0.961 . S
H553 C545 0.960 . S
H554 C546 0.930 . S
H555 C547 0.929 . S
H556 C564 0.929 . S
H557 C566 0.930 . S
H558 C568 0.930 . S
H559 C571 0.929 . S
H560 C574 0.930 . S
H561 C576 0.960 . S
H562 C576 0.960 . S
H563 C576 0.960 . S
C564 H556 0.929 . S
C564 C565 1.377 . S
C564 C566 1.384 . S
C565 C564 1.377 . S
C565 C571 1.390 . S
C566 H557 0.930 . S
C566 C564 1.384 . S
C566 C567 1.372 . S
C567 C566 1.372 . S
C567 C568 1.400 . S
C567 C572 1.490 . S
C568 H558 0.930 . S
C568 C567 1.400 . S
C568 C571 1.386 . S
H569 C585 0.930 . S
H570 C586 0.931 . S
C571 H559 0.929 . S
C571 C565 1.390 . S
C571 C568 1.386 . S
C572 C567 1.490 . S
C572 C574 1.395 . S
C572 C575 1.403 . S
H573 C579 0.930 . S
C574 H560 0.930 . S
C574 C572 1.395 . S
C574 C577 1.403 1_545 S
C575 C572 1.403 . S
C575 C576 1.524 . S
C575 C579 1.400 1_545 S
C576 H561 0.960 . S
C576 H562 0.960 . S
C576 H563 0.960 . S
C576 C575 1.524 . S
C577 C574 1.403 1_565 S
C577 C578 1.392 . S
C577 C581 1.495 . S
C578 C577 1.392 . S
C578 C579 1.385 . S
C578 C580 1.478 . S
C579 H573 0.930 . S
C579 C575 1.400 1_565 S
C579 C578 1.385 . S
C580 C578 1.478 . S
C580 C582 1.381 . S
C580 C586 1.383 . S
C581 C577 1.495 . S
C581 H587 0.959 . S
C581 H588 0.961 . S
C581 H589 0.960 . S
C582 C580 1.381 . S
C582 C583 1.394 . S
C582 H590 0.930 . S
C583 C582 1.394 . S
C583 C584 1.383 . S
C583 H591 0.929 . S
C584 C583 1.383 . S
C584 C585 1.377 . S
C585 H569 0.930 . S
C585 C584 1.377 . S
C585 C586 1.379 . S
C586 H570 0.931 . S
C586 C580 1.383 . S
C586 C585 1.379 . S
H587 C581 0.959 . S
H588 C581 0.961 . S
H589 C581 0.960 . S
H590 C582 0.930 . S
H591 C583 0.929 . S
H592 C600 0.929 . S
H593 C602 0.930 . S
H594 C604 0.930 . S
H595 C607 0.929 . S
H596 C610 0.930 . S
H597 C612 0.960 . S
H598 C612 0.960 1_556 S
H599 C612 0.960 . S
C600 H592 0.929 . S
C600 C601 1.377 1_556 S
C600 C602 1.384 . S
C601 C600 1.377 1_554 S
C601 C607 1.390 . S
C602 H593 0.930 . S
C602 C600 1.384 . S
C602 C603 1.372 1_556 S
C603 C602 1.372 1_554 S
C603 C604 1.400 . S
C603 C608 1.490 . S
C604 H594 0.930 . S
C604 C603 1.400 . S
C604 C607 1.386 . S
H605 C621 0.930 . S
H606 C622 0.931 . S
C607 H595 0.929 . S
C607 C601 1.390 . S
C607 C604 1.386 . S
C608 C603 1.490 . S
C608 C610 1.395 1_554 S
C608 C611 1.403 . S
H609 C615 0.930 . S
C610 H596 0.930 . S
C610 C608 1.395 1_556 S
C610 C613 1.403 . S
C611 C608 1.403 . S
C611 C612 1.524 . S
C611 C615 1.400 . S
C612 H597 0.960 . S
C612 H598 0.960 1_554 S
C612 H599 0.960 . S
C612 C611 1.524 . S
C613 C610 1.403 . S
C613 C614 1.392 1_556 S
C613 C617 1.495 . S
C614 C613 1.392 1_554 S
C614 C615 1.385 . S
C614 C616 1.478 . S
C615 H609 0.930 . S
C615 C611 1.400 . S
C615 C614 1.385 . S
C616 C614 1.478 . S
C616 C618 1.381 1_554 S
C616 C622 1.383 . S
C617 C613 1.495 . S
C617 H623 0.959 . S
C617 H624 0.961 1_556 S
C617 H625 0.960 . S
C618 C616 1.381 1_556 S
C618 C619 1.394 . S
C618 H626 0.930 . S
C619 C618 1.394 . S
C619 C620 1.383 1_556 S
C619 H627 0.929 . S
C620 C619 1.383 1_554 S
C620 C621 1.377 . S
C621 H605 0.930 . S
C621 C620 1.377 . S
C621 C622 1.379 . S
C622 H606 0.931 . S
C622 C616 1.383 . S
C622 C621 1.379 . S
H623 C617 0.959 . S
H624 C617 0.961 1_554 S
H625 C617 0.960 . S
H626 C618 0.930 . S
H627 C619 0.929 . S
H628 C636 0.929 . S
H629 C638 0.930 . S
H630 C640 0.930 . S
H631 C643 0.929 . S
H632 C646 0.930 . S
H633 C648 0.960 . S
H634 C648 0.960 . S
H635 C648 0.960 . S
C636 H628 0.929 . S
C636 C637 1.377 . S
C636 C638 1.384 . S
C637 C636 1.377 . S
C637 C643 1.390 1_554 S
C638 H629 0.930 . S
C638 C636 1.384 . S
C638 C639 1.372 . S
C639 C638 1.372 . S
C639 C640 1.400 1_554 S
C639 C644 1.490 . S
C640 H630 0.930 . S
C640 C639 1.400 1_556 S
C640 C643 1.386 . S
H641 C657 0.930 . S
H642 C658 0.931 . S
C643 H631 0.929 . S
C643 C637 1.390 1_556 S
C643 C640 1.386 . S
C644 C639 1.490 . S
C644 C646 1.395 . S
C644 C647 1.403 1_554 S
H645 C651 0.930 . S
C646 H632 0.930 . S
C646 C644 1.395 . S
C646 C649 1.403 . S
C647 C644 1.403 1_556 S
C647 C648 1.524 . S
C647 C651 1.400 . S
C648 H633 0.960 . S
C648 H634 0.960 . S
C648 H635 0.960 . S
C648 C647 1.524 . S
C649 C646 1.403 . S
C649 C650 1.392 . S
C649 C653 1.495 . S
C650 C649 1.392 . S
C650 C651 1.385 1_554 S
C650 C652 1.478 . S
C651 H645 0.930 . S
C651 C647 1.400 . S
C651 C650 1.385 1_556 S
C652 C650 1.478 . S
C652 C654 1.381 . S
C652 C658 1.383 1_554 S
C653 C649 1.495 . S
C653 H659 0.959 . S
C653 H660 0.961 . S
C653 H661 0.960 . S
C654 C652 1.381 . S
C654 C655 1.394 . S
C654 H662 0.930 . S
C655 C654 1.394 . S
C655 C656 1.383 . S
C655 H663 0.929 . S
C656 C655 1.383 . S
C656 C657 1.377 1_554 S
C657 H641 0.930 . S
C657 C656 1.377 1_556 S
C657 C658 1.379 . S
C658 H642 0.931 . S
C658 C652 1.383 1_556 S
C658 C657 1.379 . S
H659 C653 0.959 . S
H660 C653 0.961 . S
H661 C653 0.960 . S
H662 C654 0.930 . S
H663 C655 0.929 . S
H664 C672 0.929 . S
H665 C674 0.930 . S
H666 C676 0.930 . S
H667 C679 0.929 . S
H668 C682 0.930 . S
H669 C684 0.960 . S
H670 C684 0.960 . S
H671 C684 0.960 . S
C672 H664 0.929 . S
C672 C673 1.377 . S
C672 C674 1.384 . S
C673 C672 1.377 . S
C673 C679 1.390 . S
C674 H665 0.930 . S
C674 C672 1.384 . S
C674 C675 1.372 . S
C675 C674 1.372 . S
C675 C676 1.400 . S
C675 C680 1.490 . S
C676 H666 0.930 . S
C676 C675 1.400 . S
C676 C679 1.386 . S
H677 C693 0.930 . S
H678 C694 0.931 . S
C679 H667 0.929 . S
C679 C673 1.390 . S
C679 C676 1.386 . S
C680 C675 1.490 . S
C680 C682 1.395 . S
C680 C683 1.403 . S
H681 C687 0.930 . S
C682 H668 0.930 . S
C682 C680 1.395 . S
C682 C685 1.403 . S
C683 C680 1.403 . S
C683 C684 1.524 . S
C683 C687 1.400 . S
C684 H669 0.960 . S
C684 H670 0.960 . S
C684 H671 0.960 . S
C684 C683 1.524 . S
C685 C682 1.403 . S
C685 C686 1.392 . S
C685 C689 1.495 . S
C686 C685 1.392 . S
C686 C687 1.385 . S
C686 C688 1.478 . S
C687 H681 0.930 . S
C687 C683 1.400 . S
C687 C686 1.385 . S
C688 C686 1.478 . S
C688 C690 1.381 . S
C688 C694 1.383 . S
C689 C685 1.495 . S
C689 H695 0.959 . S
C689 H696 0.961 . S
C689 H697 0.960 . S
C690 C688 1.381 . S
C690 C691 1.394 . S
C690 H698 0.930 . S
C691 C690 1.394 . S
C691 C692 1.383 . S
C691 H699 0.929 . S
C692 C691 1.383 . S
C692 C693 1.377 . S
C693 H677 0.930 . S
C693 C692 1.377 . S
C693 C694 1.379 . S
C694 H678 0.931 . S
C694 C688 1.383 . S
C694 C693 1.379 . S
H695 C689 0.959 . S
H696 C689 0.961 . S
H697 C689 0.960 . S
H698 C690 0.930 . S
H699 C691 0.929 . S
H700 C708 0.929 . S
H701 C710 0.930 . S
H702 C712 0.930 . S
H703 C715 0.929 . S
H704 C718 0.930 . S
H705 C720 0.960 . S
H706 C720 0.960 . S
H707 C720 0.960 . S
C708 H700 0.929 . S
C708 C709 1.377 . S
C708 C710 1.384 . S
C709 C708 1.377 . S
C709 C715 1.390 . S
C710 H701 0.930 . S
C710 C708 1.384 . S
C710 C711 1.372 . S
C711 C710 1.372 . S
C711 C712 1.400 . S
C711 C716 1.490 . S
C712 H702 0.930 . S
C712 C711 1.400 . S
C712 C715 1.386 . S
H713 C729 0.930 . S
H714 C730 0.931 . S
C715 H703 0.929 . S
C715 C709 1.390 . S
C715 C712 1.386 . S
C716 C711 1.490 . S
C716 C718 1.395 . S
C716 C719 1.403 . S
H717 C723 0.930 . S
C718 H704 0.930 . S
C718 C716 1.395 . S
C718 C721 1.403 . S
C719 C716 1.403 . S
C719 C720 1.524 . S
C719 C723 1.400 . S
C720 H705 0.960 . S
C720 H706 0.960 . S
C720 H707 0.960 . S
C720 C719 1.524 . S
C721 C718 1.403 . S
C721 C722 1.392 . S
C721 C725 1.495 . S
C722 C721 1.392 . S
C722 C723 1.385 . S
C722 C724 1.478 . S
C723 H717 0.930 . S
C723 C719 1.400 . S
C723 C722 1.385 . S
C724 C722 1.478 . S
C724 C726 1.381 . S
C724 C730 1.383 . S
C725 C721 1.495 . S
C725 H731 0.959 . S
C725 H732 0.961 . S
C725 H733 0.960 . S
C726 C724 1.381 . S
C726 C727 1.394 . S
C726 H734 0.930 . S
C727 C726 1.394 . S
C727 C728 1.383 . S
C727 H735 0.929 . S
C728 C727 1.383 . S
C728 C729 1.377 . S
C729 H713 0.930 . S
C729 C728 1.377 . S
C729 C730 1.379 . S
C730 H714 0.931 . S
C730 C724 1.383 . S
C730 C729 1.379 . S
H731 C725 0.959 . S
H732 C725 0.961 . S
H733 C725 0.960 . S
H734 C726 0.930 . S
H735 C727 0.929 . S
H736 C744 0.929 . S
H737 C746 0.930 . S
H738 C748 0.930 . S
H739 C751 0.929 . S
H740 C754 0.930 . S
H741 C756 0.960 . S
H742 C756 0.960 1_455 S
H743 C756 0.960 . S
C744 H736 0.929 . S
C744 C745 1.377 . S
C744 C746 1.384 . S
C745 C744 1.377 . S
C745 C751 1.390 1_455 S
C746 H737 0.930 . S
C746 C744 1.384 . S
C746 C747 1.372 . S
C747 C746 1.372 . S
C747 C748 1.400 1_455 S
C747 C752 1.490 . S
C748 H738 0.930 . S
C748 C747 1.400 1_655 S
C748 C751 1.386 . S
H749 C765 0.930 . S
H750 C766 0.931 . S
C751 H739 0.929 . S
C751 C745 1.390 1_655 S
C751 C748 1.386 . S
C752 C747 1.490 . S
C752 C754 1.395 . S
C752 C755 1.403 1_455 S
H753 C759 0.930 . S
C754 H740 0.930 . S
C754 C752 1.395 . S
C754 C757 1.403 . S
C755 C752 1.403 1_655 S
C755 C756 1.524 . S
C755 C759 1.400 . S
C756 H741 0.960 . S
C756 H742 0.960 1_655 S
C756 H743 0.960 . S
C756 C755 1.524 . S
C757 C754 1.403 . S
C757 C758 1.392 1_455 S
C757 C761 1.495 . S
C758 C757 1.392 1_655 S
C758 C759 1.385 . S
C758 C760 1.478 . S
C759 H753 0.930 . S
C759 C755 1.400 . S
C759 C758 1.385 . S
C760 C758 1.478 . S
C760 C762 1.381 1_655 S
C760 C766 1.383 . S
C761 C757 1.495 . S
C761 H767 0.959 . S
C761 H768 0.961 . S
C761 H769 0.960 . S
C762 C760 1.381 1_455 S
C762 C763 1.394 . S
C762 H770 0.930 . S
C763 C762 1.394 . S
C763 C764 1.383 1_455 S
C763 H771 0.929 . S
C764 C763 1.383 1_655 S
C764 C765 1.377 . S
C765 H749 0.930 . S
C765 C764 1.377 . S
C765 C766 1.379 . S
C766 H750 0.931 . S
C766 C760 1.383 . S
C766 C765 1.379 . S
H767 C761 0.959 . S
H768 C761 0.961 . S
H769 C761 0.960 . S
H770 C762 0.930 . S
H771 C763 0.929 . S
H772 C780 0.929 . S
H773 C782 0.930 . S
H774 C784 0.930 . S
H775 C787 0.929 1_455 S
H776 C790 0.930 . S
H777 C792 0.960 . S
H778 C792 0.960 . S
H779 C792 0.960 . S
C780 H772 0.929 . S
C780 C781 1.377 . S
C780 C782 1.384 . S
C781 C780 1.377 . S
C781 C787 1.390 . S
C782 H773 0.930 . S
C782 C780 1.384 . S
C782 C783 1.372 . S
C783 C782 1.372 . S
C783 C784 1.400 1_655 S
C783 C788 1.490 . S
C784 H774 0.930 . S
C784 C783 1.400 1_455 S
C784 C787 1.386 1_455 S
H785 C801 0.930 . S
H786 C802 0.931 . S
C787 H775 0.929 1_655 S
C787 C781 1.390 . S
C787 C784 1.386 1_655 S
C788 C783 1.490 . S
C788 C790 1.395 . S
C788 C791 1.403 1_655 S
H789 C795 0.930 . S
C790 H776 0.930 . S
C790 C788 1.395 . S
C790 C793 1.403 . S
C791 C788 1.403 1_455 S
C791 C792 1.524 . S
C791 C795 1.400 . S
C792 H777 0.960 . S
C792 H778 0.960 . S
C792 H779 0.960 . S
C792 C791 1.524 . S
C793 C790 1.403 . S
C793 C794 1.387 1_655 S
C793 C797 1.495 . S
C794 C793 1.387 1_455 S
C794 C795 1.389 . S
C794 C796 1.479 . S
C795 H789 0.930 . S
C795 C791 1.400 . S
C795 C794 1.389 . S
C796 C794 1.479 . S
C796 C798 1.381 1_455 S
C796 C802 1.383 . S
C797 C793 1.495 . S
C797 H803 0.959 . S
C797 H804 0.961 . S
C797 H805 0.960 . S
C798 C796 1.381 1_655 S
C798 C799 1.394 1_655 S
C798 H806 0.930 . S
C799 C798 1.394 1_455 S
C799 C800 1.383 . S
C799 H807 0.929 1_455 S
C800 C799 1.383 . S
C800 C801 1.377 . S
C801 H785 0.930 . S
C801 C800 1.377 . S
C801 C802 1.379 . S
C802 H786 0.931 . S
C802 C796 1.383 . S
C802 C801 1.379 . S
H803 C797 0.959 . S
H804 C797 0.961 . S
H805 C797 0.960 . S
H806 C798 0.930 . S
H807 C799 0.929 1_655 S
H808 C816 0.929 . S
H809 C818 0.930 . S
H810 C820 0.930 . S
H811 C823 0.929 . S
H812 C826 0.930 . S
H813 C828 0.960 . S
H814 C828 0.960 . S
H815 C828 0.960 . S
C816 H808 0.929 . S
C816 C817 1.377 . S
C816 C818 1.384 . S
C817 C816 1.377 . S
C817 C823 1.390 . S
C818 H809 0.930 . S
C818 C816 1.384 . S
C818 C819 1.372 . S
C819 C818 1.372 . S
C819 C820 1.400 . S
C819 C824 1.490 . S
C820 H810 0.930 . S
C820 C819 1.400 . S
C820 C823 1.386 . S
H821 C837 0.930 . S
H822 C838 0.931 . S
C823 H811 0.929 . S
C823 C817 1.390 . S
C823 C820 1.386 . S
C824 C819 1.490 . S
C824 C826 1.395 1_655 S
C824 C827 1.403 . S
H825 C831 0.930 . S
C826 H812 0.930 . S
C826 C824 1.395 1_455 S
C826 C829 1.403 . S
C827 C824 1.403 . S
C827 C828 1.524 . S
C827 C831 1.400 . S
C828 H813 0.960 . S
C828 H814 0.960 . S
C828 H815 0.960 . S
C828 C827 1.524 . S
C829 C826 1.403 . S
C829 C830 1.392 . S
C829 C833 1.495 . S
C830 C829 1.392 . S
C830 C831 1.385 1_455 S
C830 C832 1.478 . S
C831 H825 0.930 . S
C831 C827 1.400 . S
C831 C830 1.385 1_655 S
C832 C830 1.478 . S
C832 C834 1.381 . S
C832 C838 1.383 . S
C833 C829 1.495 . S
C833 H839 0.959 . S
C833 H840 0.961 . S
C833 H841 0.960 . S
C834 C832 1.381 . S
C834 C835 1.394 . S
C834 H842 0.930 . S
C835 C834 1.394 . S
C835 C836 1.383 . S
C835 H843 0.929 . S
C836 C835 1.383 . S
C836 C837 1.377 . S
C837 H821 0.930 . S
C837 C836 1.377 . S
C837 C838 1.379 . S
C838 H822 0.931 . S
C838 C832 1.383 . S
C838 C837 1.379 . S
H839 C833 0.959 . S
H840 C833 0.961 . S
H841 C833 0.960 . S
H842 C834 0.930 . S
H843 C835 0.929 . S
H844 C852 0.929 . S
H845 C854 0.930 . S
H846 C856 0.930 . S
H847 C859 0.929 . S
H848 C862 0.930 . S
H849 C864 0.960 . S
H850 C864 0.960 1_655 S
H851 C864 0.960 . S
C852 H844 0.929 . S
C852 C853 1.377 . S
C852 C854 1.384 . S
C853 C852 1.377 . S
C853 C859 1.390 1_655 S
C854 H845 0.930 . S
C854 C852 1.384 . S
C854 C855 1.372 . S
C855 C854 1.372 . S
C855 C856 1.400 1_655 S
C855 C860 1.490 . S
C856 H846 0.930 . S
C856 C855 1.400 1_455 S
C856 C859 1.386 . S
H857 C873 0.930 . S
H858 C874 0.931 . S
C859 H847 0.929 . S
C859 C853 1.390 1_455 S
C859 C856 1.386 . S
C860 C855 1.490 . S
C860 C862 1.395 . S
C860 C863 1.403 1_655 S
H861 C867 0.930 . S
C862 H848 0.930 . S
C862 C860 1.395 . S
C862 C865 1.403 . S
C863 C860 1.403 1_455 S
C863 C864 1.524 . S
C863 C867 1.400 . S
C864 H849 0.960 . S
C864 H850 0.960 1_455 S
C864 H851 0.960 . S
C864 C863 1.524 . S
C865 C862 1.403 . S
C865 C866 1.392 1_655 S
C865 C869 1.495 . S
C866 C865 1.392 1_455 S
C866 C867 1.385 . S
C866 C868 1.478 . S
C867 H861 0.930 . S
C867 C863 1.400 . S
C867 C866 1.385 . S
C868 C866 1.478 . S
C868 C870 1.381 1_455 S
C868 C874 1.383 . S
C869 C865 1.495 . S
C869 H875 0.959 . S
C869 H876 0.961 1_655 S
C869 H877 0.960 . S
C870 C868 1.381 1_655 S
C870 C871 1.394 . S
C870 H878 0.930 . S
C871 C870 1.394 . S
C871 C872 1.383 1_655 S
C871 H879 0.929 . S
C872 C871 1.383 1_455 S
C872 C873 1.377 . S
C873 H857 0.930 . S
C873 C872 1.377 . S
C873 C874 1.379 . S
C874 H858 0.931 . S
C874 C868 1.383 . S
C874 C873 1.379 . S
H875 C869 0.959 . S
H876 C869 0.961 1_455 S
H877 C869 0.960 . S
H878 C870 0.930 . S
H879 C871 0.929 . S
H880 C888 0.929 . S
H881 C890 0.930 . S
H882 C892 0.930 . S
H883 C895 0.929 . S
H884 C898 0.930 . S
H885 C900 0.960 . S
H886 C900 0.960 . S
H887 C900 0.960 . S
C888 H880 0.929 . S
C888 C889 1.377 . S
C888 C890 1.384 . S
C889 C888 1.377 . S
C889 C895 1.390 . S
C890 H881 0.930 . S
C890 C888 1.384 . S
C890 C891 1.372 . S
C891 C890 1.372 . S
C891 C892 1.400 . S
C891 C896 1.490 . S
C892 H882 0.930 . S
C892 C891 1.400 . S
C892 C895 1.386 . S
H893 C909 0.930 . S
H894 C910 0.931 . S
C895 H883 0.929 . S
C895 C889 1.390 . S
C895 C892 1.386 . S
C896 C891 1.490 . S
C896 C898 1.395 . S
C896 C899 1.403 . S
H897 C903 0.930 . S
C898 H884 0.930 . S
C898 C896 1.395 . S
C898 C901 1.403 . S
C899 C896 1.403 . S
C899 C900 1.524 . S
C899 C903 1.400 . S
C900 H885 0.960 . S
C900 H886 0.960 . S
C900 H887 0.960 . S
C900 C899 1.524 . S
C901 C898 1.403 . S
C901 C902 1.392 . S
C901 C905 1.495 . S
C902 C901 1.392 . S
C902 C903 1.385 . S
C902 C904 1.478 . S
C903 H897 0.930 . S
C903 C899 1.400 . S
C903 C902 1.385 . S
C904 C902 1.478 . S
C904 C906 1.381 . S
C904 C910 1.383 . S
C905 C901 1.495 . S
C905 H911 0.959 . S
C905 H912 0.961 . S
C905 H913 0.960 . S
C906 C904 1.381 . S
C906 C907 1.394 . S
C906 H914 0.930 . S
C907 C906 1.394 . S
C907 C908 1.383 . S
C907 H915 0.929 . S
C908 C907 1.383 . S
C908 C909 1.377 . S
C909 H893 0.930 . S
C909 C908 1.377 . S
C909 C910 1.379 . S
C910 H894 0.931 . S
C910 C904 1.383 . S
C910 C909 1.379 . S
H911 C905 0.959 . S
H912 C905 0.961 . S
H913 C905 0.960 . S
H914 C906 0.930 . S
H915 C907 0.929 . S
H916 C924 0.929 . S
H917 C926 0.930 . S
H918 C928 0.930 . S
H919 C931 0.929 . S
H920 C934 0.930 . S
H921 C936 0.960 . S
H922 C936 0.960 . S
H923 C936 0.960 . S
C924 H916 0.929 . S
C924 C925 1.377 . S
C924 C926 1.384 . S
C925 C924 1.377 . S
C925 C931 1.390 . S
C926 H917 0.930 . S
C926 C924 1.384 . S
C926 C927 1.372 . S
C927 C926 1.372 . S
C927 C928 1.400 . S
C927 C932 1.490 . S
C928 H918 0.930 . S
C928 C927 1.400 . S
C928 C931 1.386 . S
H929 C945 0.930 . S
H930 C946 0.931 . S
C931 H919 0.929 . S
C931 C925 1.390 . S
C931 C928 1.386 . S
C932 C927 1.490 . S
C932 C934 1.395 . S
C932 C935 1.403 . S
H933 C939 0.930 . S
C934 H920 0.930 . S
C934 C932 1.395 . S
C934 C937 1.403 . S
C935 C932 1.403 . S
C935 C936 1.524 . S
C935 C939 1.400 . S
C936 H921 0.960 . S
C936 H922 0.960 . S
C936 H923 0.960 . S
C936 C935 1.524 . S
C937 C934 1.403 . S
C937 C938 1.392 . S
C937 C941 1.495 . S
C938 C937 1.392 . S
C938 C939 1.385 . S
C938 C940 1.478 . S
C939 H933 0.930 . S
C939 C935 1.400 . S
C939 C938 1.385 . S
C940 C938 1.478 . S
C940 C942 1.381 . S
C940 C946 1.383 . S
C941 C937 1.495 . S
C941 H947 0.959 . S
C941 H948 0.961 . S
C941 H949 0.960 . S
C942 C940 1.381 . S
C942 C943 1.394 . S
C942 H950 0.930 . S
C943 C942 1.394 . S
C943 C944 1.383 . S
C943 H951 0.929 . S
C944 C943 1.383 . S
C944 C945 1.377 . S
C945 H929 0.930 . S
C945 C944 1.377 . S
C945 C946 1.379 . S
C946 H930 0.931 . S
C946 C940 1.383 . S
C946 C945 1.379 . S
H947 C941 0.959 . S
H948 C941 0.961 . S
H949 C941 0.960 . S
H950 C942 0.930 . S
H951 C943 0.929 . S
H952 C960 0.929 . S
H953 C962 0.930 . S
H954 C964 0.930 . S
H955 C967 0.929 . S
H956 C970 0.930 . S
H957 C972 0.960 . S
H958 C972 0.960 . S
H959 C972 0.960 . S
C960 H952 0.929 . S
C960 C961 1.377 . S
C960 C962 1.384 . S
C961 C960 1.377 . S
C961 C967 1.390 . S
C962 H953 0.930 . S
C962 C960 1.384 . S
C962 C963 1.372 . S
C963 C962 1.372 . S
C963 C964 1.400 . S
C963 C968 1.490 . S
C964 H954 0.930 . S
C964 C963 1.400 . S
C964 C967 1.386 . S
H965 C981 0.930 . S
H966 C982 0.931 . S
C967 H955 0.929 . S
C967 C961 1.390 . S
C967 C964 1.386 . S
C968 C963 1.490 . S
C968 C970 1.395 . S
C968 C971 1.403 . S
H969 C975 0.930 . S
C970 H956 0.930 . S
C970 C968 1.395 . S
C970 C973 1.403 . S
C971 C968 1.403 . S
C971 C972 1.524 . S
C971 C975 1.400 . S
C972 H957 0.960 . S
C972 H958 0.960 . S
C972 H959 0.960 . S
C972 C971 1.524 . S
C973 C970 1.403 . S
C973 C974 1.392 . S
C973 C977 1.495 . S
C974 C973 1.392 . S
C974 C975 1.385 . S
C974 C976 1.478 . S
C975 H969 0.930 . S
C975 C971 1.400 . S
C975 C974 1.385 . S
C976 C974 1.478 . S
C976 C978 1.381 . S
C976 C982 1.383 . S
C977 C973 1.495 . S
C977 H983 0.959 . S
C977 H984 0.961 . S
C977 H985 0.960 . S
C978 C976 1.381 . S
C978 C979 1.394 . S
C978 H986 0.930 . S
C979 C978 1.394 . S
C979 C980 1.383 . S
C979 H987 0.929 . S
C980 C979 1.383 . S
C980 C981 1.377 . S
C981 H965 0.930 . S
C981 C980 1.377 . S
C981 C982 1.379 . S
C982 H966 0.931 . S
C982 C976 1.383 . S
C982 C981 1.379 . S
H983 C977 0.959 . S
H984 C977 0.961 . S
H985 C977 0.960 . S
H986 C978 0.930 . S
H987 C979 0.929 . S
H988 C996 0.929 . S
H989 C998 0.930 . S
H990 C1000 0.930 . S
H991 C1003 0.929 . S
H992 C1006 0.930 . S
H993 C1008 0.960 . S
H994 C1008 0.960 . S
H995 C1008 0.960 . S
C996 H988 0.929 . S
C996 C997 1.377 . S
C996 C998 1.384 . S
C997 C996 1.377 . S
C997 C1003 1.390 . S
C998 H989 0.930 . S
C998 C996 1.384 . S
C998 C999 1.372 . S
C999 C998 1.372 . S
C999 C1000 1.400 . S
C999 C1004 1.490 . S
C1000 H990 0.930 . S
C1000 C999 1.400 . S
C1000 C1003 1.386 . S
H1001 C1017 0.930 . S
H1002 C1018 0.931 . S
C1003 H991 0.929 . S
C1003 C997 1.390 . S
C1003 C1000 1.386 . S
C1004 C999 1.490 . S
C1004 C1006 1.395 . S
C1004 C1007 1.403 . S
H1005 C1011 0.930 . S
C1006 H992 0.930 . S
C1006 C1004 1.395 . S
C1006 C1009 1.403 . S
C1007 C1004 1.403 . S
C1007 C1008 1.524 . S
C1007 C1011 1.400 . S
C1008 H993 0.960 . S
C1008 H994 0.960 . S
C1008 H995 0.960 . S
C1008 C1007 1.524 . S
C1009 C1006 1.403 . S
C1009 C1010 1.392 . S
C1009 C1013 1.495 . S
C1010 C1009 1.392 . S
C1010 C1011 1.385 . S
C1010 C1012 1.478 . S
C1011 H1005 0.930 . S
C1011 C1007 1.400 . S
C1011 C1010 1.385 . S
C1012 C1010 1.478 . S
C1012 C1014 1.381 . S
C1012 C1018 1.383 . S
C1013 C1009 1.495 . S
C1013 H1019 0.959 . S
C1013 H1020 0.961 . S
C1013 H1021 0.960 . S
C1014 C1012 1.381 . S
C1014 C1015 1.394 . S
C1014 H1022 0.930 . S
C1015 C1014 1.394 . S
C1015 C1016 1.383 . S
C1015 H1023 0.929 . S
C1016 C1015 1.383 . S
C1016 C1017 1.377 . S
C1017 H1001 0.930 . S
C1017 C1016 1.377 . S
C1017 C1018 1.379 . S
C1018 H1002 0.931 . S
C1018 C1012 1.383 . S
C1018 C1017 1.379 . S
H1019 C1013 0.959 . S
H1020 C1013 0.961 . S
H1021 C1013 0.960 . S
H1022 C1014 0.930 . S
H1023 C1015 0.929 . S
C169 C19 1.832 1_554 S
C188 C18 1.819 . S
C205 C39 1.833 . S
C224 C38 1.841 . S
C241 C59 1.831 . S
C260 C58 1.839 . S
C277 C79 1.830 . S
C296 C78 1.835 . S
C313 C99 1.833 1_554 S
C332 C98 1.840 . S
C349 C118 1.829 . S
C368 C119 1.830 . S
C385 C139 1.830 . S
C404 C138 1.835 . S
C421 C158 1.828 . S
C440 C159 1.815 . S
C457 C21 1.748 . S
C476 C2 1.758 . S
C493 C62 1.741 . S
C512 C41 1.762 . S
C529 C82 1.738 . S
C548 C101 1.755 . S
C565 C121 1.747 . S
C584 C142 1.741 . S
C601 C1 1.531 . S
C620 C102 1.513 . S
C637 C81 1.538 . S
C656 C22 1.533 . S
C673 C42 1.535 . S
C692 C141 1.517 . S
C709 C61 1.531 . S
C728 C122 1.515 . S
C745 C8 1.490 . S
C764 C68 1.459 . S
C781 C28 1.578 . S
C800 C48 1.579 . S
C817 C29 1.490 . S
C836 C49 1.495 . S
C853 C69 1.588 . S
C872 C9 1.555 . S
C889 C88 1.483 . S
C908 C148 1.482 . S
C925 C108 1.588 . S
C944 C128 1.594 . S
C961 C109 1.490 . S
C980 C129 1.495 . S
C997 C149 1.588 . S
C1016 C89 1.555 . S
