# Generated by pormake.
# Topology vby, (6)-cn, num edge types: 1
# Building blocks:
#     Node 0, Type 0, BuildingBlock: KUMJIN_clean_sbu_1, # of connection points: 6
#     Node 1, Type 0, BuildingBlock: KUMJIN_clean_sbu_1, # of connection points: 6
#     Node 2, Type 0, BuildingBlock: KUMJIN_clean_sbu_1, # of connection points: 6
#     Node 3, Type 0, BuildingBlock: KUMJIN_clean_sbu_1, # of connection points: 6
#     Node 4, Type 0, BuildingBlock: KUMJIN_clean_sbu_1, # of connection points: 6
#     Node 5, Type 0, BuildingBlock: KUMJIN_clean_sbu_1, # of connection points: 6
#     Node 6, Type 0, BuildingBlock: KUMJIN_clean_sbu_1, # of connection points: 6
#     Node 7, Type 0, BuildingBlock: KUMJIN_clean_sbu_1, # of connection points: 6
#     Edge 8, Type (0, 0), BuildingBlock: KIFKEQ_clean_linker_1, # of connection points: 2
#     Edge 9, Type (0, 0), BuildingBlock: KIFKEQ_clean_linker_1, # of connection points: 2
#     Edge 10, Type (0, 0), BuildingBlock: KIFKEQ_clean_linker_1, # of connection points: 2
#     Edge 11, Type (0, 0), BuildingBlock: KIFKEQ_clean_linker_1, # of connection points: 2
#     Edge 12, Type (0, 0), BuildingBlock: KIFKEQ_clean_linker_1, # of connection points: 2
#     Edge 13, Type (0, 0), BuildingBlock: KIFKEQ_clean_linker_1, # of connection points: 2
#     Edge 14, Type (0, 0), BuildingBlock: KIFKEQ_clean_linker_1, # of connection points: 2
#     Edge 15, Type (0, 0), BuildingBlock: KIFKEQ_clean_linker_1, # of connection points: 2
#     Edge 16, Type (0, 0), BuildingBlock: KIFKEQ_clean_linker_1, # of connection points: 2
#     Edge 17, Type (0, 0), BuildingBlock: KIFKEQ_clean_linker_1, # of connection points: 2
#     Edge 18, Type (0, 0), BuildingBlock: KIFKEQ_clean_linker_1, # of connection points: 2
#     Edge 19, Type (0, 0), BuildingBlock: KIFKEQ_clean_linker_1, # of connection points: 2
#     Edge 20, Type (0, 0), BuildingBlock: KIFKEQ_clean_linker_1, # of connection points: 2
#     Edge 21, Type (0, 0), BuildingBlock: KIFKEQ_clean_linker_1, # of connection points: 2
#     Edge 22, Type (0, 0), BuildingBlock: KIFKEQ_clean_linker_1, # of connection points: 2
#     Edge 23, Type (0, 0), BuildingBlock: KIFKEQ_clean_linker_1, # of connection points: 2
#     Edge 24, Type (0, 0), BuildingBlock: KIFKEQ_clean_linker_1, # of connection points: 2
#     Edge 25, Type (0, 0), BuildingBlock: KIFKEQ_clean_linker_1, # of connection points: 2
#     Edge 26, Type (0, 0), BuildingBlock: KIFKEQ_clean_linker_1, # of connection points: 2
#     Edge 27, Type (0, 0), BuildingBlock: KIFKEQ_clean_linker_1, # of connection points: 2
#     Edge 28, Type (0, 0), BuildingBlock: KIFKEQ_clean_linker_1, # of connection points: 2
#     Edge 29, Type (0, 0), BuildingBlock: KIFKEQ_clean_linker_1, # of connection points: 2
#     Edge 30, Type (0, 0), BuildingBlock: KIFKEQ_clean_linker_1, # of connection points: 2
#     Edge 31, Type (0, 0), BuildingBlock: KIFKEQ_clean_linker_1, # of connection points: 2
# Relax obj value: 0.189
# Max RMSD: 0.310
# Mean RMSD: 0.217
data_MOF--net-vby--node1-KUMJIN_clean_sbu_1--edge1-KIFKEQ_clean_linker_1
_symmetry_space_group_name_H-M    P1
_symmetry_Int_Tables_number       1
_symmetry_cell_setting            triclinic
loop_
_symmetry_equiv_pos_as_xyz
'x, y, z'
_cell_length_a     15.492193
_cell_length_b     100.36532
_cell_length_c     30.178582
_cell_angle_alpha  101.42214
_cell_angle_beta   94.458729
_cell_angle_gamma 90.071081
loop_
_atom_site_label
_atom_site_type_symbol
_atom_site_fract_x
_atom_site_fract_y
_atom_site_fract_z
_atom_type_partial_charge
Eu0 Eu 0.06685 0.36063 0.99958 0.0
C1 C 0.27017 0.41315 0.07315 0.0
N2 N 0.19539 0.40893 0.08748 0.0
C3 C 0.25089 0.41565 0.16499 0.0
C4 C 0.33935 0.41856 0.10479 0.0
C5 C 0.18416 0.41028 0.1325 0.0
C6 C 0.32882 0.41979 0.15111 0.0
C7 C 0.35785 0.41514 0.01122 0.0
C8 C 0.27919 0.41145 0.02655 0.0
C9 C 0.42645 0.42061 0.0428 0.0
C10 C 0.41716 0.42234 0.08936 0.0
Eu11 Eu 0.08545 0.40145 0.02994 0.0
N12 N 0.21245 0.40582 0.99637 0.0
C13 C 0.36558 0.41318 0.96449 0.0
C14 C 0.21832 0.40453 0.95087 0.0
C15 C 0.29533 0.40794 0.93424 0.0
H16 H 0.12327 0.40746 0.14347 0.0
H17 H 0.29997 0.40675 0.89807 0.0
H18 H 0.09261 0.35061 0.88785 0.0
H19 H 0.81344 0.34705 0.09917 0.0
H20 H 0.16334 0.4013 0.92724 0.0
H21 H 0.42506 0.41585 0.95142 0.0
H22 H 0.95285 0.35718 0.08672 0.0
H23 H 0.24198 0.4167 0.20072 0.0
H24 H 0.48728 0.42347 0.03153 0.0
H25 H 0.47099 0.42649 0.11321 0.0
H26 H 1.00721 0.33883 0.81874 0.0
H27 H 0.38046 0.42392 0.17642 0.0
H28 H 0.71851 0.33509 0.03356 0.0
N29 N 0.99327 0.349 0.93141 0.0
C30 C 0.91502 0.34339 0.93556 0.0
C31 C 0.98015 0.34017 0.85131 0.0
C32 C 0.8652 0.33618 0.89715 0.0
C33 C 0.02774 0.34706 0.8904 0.0
C34 C 0.89817 0.33482 0.85461 0.0
N35 N 0.93425 0.35167 0.01496 0.0
C36 C 0.911 0.35222 0.05797 0.0
C37 C 0.80591 0.33845 0.98405 0.0
C38 C 0.88557 0.34449 0.97854 0.0
C39 C 0.77933 0.33959 0.02794 0.0
C40 C 0.83256 0.34638 0.06507 0.0
H41 H 0.86177 0.32939 0.82429 0.0
H42 H 0.74568 0.32487 0.87328 0.0
H43 H 0.69384 0.32687 0.94928 0.0
O44 O 0.14286 0.34959 0.04453 0.0
O45 O 0.93598 0.37127 0.00294 0.0
O46 O 0.9429 0.39492 0.02461 0.0
O47 O 0.09959 0.3394 0.9765 0.0
O48 O 0.08968 0.37148 0.0736 0.0
O49 O 0.02486 0.39253 0.08368 0.0
O50 O 0.06819 0.41953 1.00006 0.0
O51 O 0.19819 0.38751 0.0453 0.0
O52 O 0.19201 0.37 0.9844 0.0
O53 O 0.04854 0.42078 0.0709 0.0
O54 O 0.03329 0.39171 0.95819 0.0
O55 O 0.1071 0.37165 0.94555 0.0
C56 C 0.89917 0.38326 0.01249 0.0
C57 C 0.22199 0.33043 0.01044 0.0
C58 C 0.29173 0.30837 0.00638 0.0
C59 C 0.36903 0.31434 0.99713 0.0
C60 C 0.29945 0.33616 1.00127 0.0
C61 C 0.37275 0.32813 0.99489 0.0
C62 C 0.21859 0.31665 0.01339 0.0
C63 C 0.0468 0.38131 0.09781 0.0
C64 C 0.1421 0.3383 0.01438 0.0
C65 C 0.78497 0.33039 0.90244 0.0
C66 C 0.7555 0.3315 0.94575 0.0
C67 C 0.23791 0.37884 0.01513 0.0
C68 C 0.98332 0.43773 0.03473 0.0
C69 C 0.94967 0.46105 0.02655 0.0
C70 C 0.86253 0.45842 0.03293 0.0
C71 C 0.89626 0.43533 0.04049 0.0
C72 C 1.00946 0.45048 0.02721 0.0
C73 C 0.83622 0.44565 0.03949 0.0
C74 C 0.06057 0.38101 0.93053 0.0
C75 C 0.04927 0.42734 0.03774 0.0
H76 H 0.42634 0.30833 0.99067 0.0
H77 H 0.30286 0.34674 0.99853 0.0
H78 H 0.43243 0.33255 0.98749 0.0
H79 H 0.15842 0.31241 0.02105 0.0
H80 H 0.81457 0.46628 0.03373 0.0
H81 H 0.87501 0.42555 0.04614 0.0
H82 H 0.07673 0.45208 0.02186 0.0
H83 H 0.76909 0.44382 0.04438 0.0
Eu84 Eu 0.95262 0.65375 0.01767 0.0
C85 C 0.79536 0.59719 0.02567 0.0
N86 N 0.86262 0.60495 0.04926 0.0
C87 C 0.82066 0.59973 0.11886 0.0
C88 C 0.73672 0.5907 0.04843 0.0
C89 C 0.87788 0.6058 0.09493 0.0
C90 C 0.74943 0.59223 0.0956 0.0
C91 C 0.71436 0.58791 0.95359 0.0
C92 C 0.78425 0.59575 0.97843 0.0
C93 C 0.65649 0.58143 0.97638 0.0
C94 C 0.66752 0.58285 0.02358 0.0
Eu95 Eu 0.95798 0.61318 0.00314 0.0
N96 N 0.83854 0.60263 0.95716 0.0
C97 C 0.70362 0.58703 0.90658 0.0
C98 C 0.83016 0.60148 0.91124 0.0
C99 C 0.7619 0.59381 0.88534 0.0
H100 H 0.93596 0.61057 0.11298 0.0
H101 H 0.75475 0.59302 0.84894 0.0
H102 H 0.03346 0.6579 0.92193 0.0
H103 H 0.0588 0.67704 0.19376 0.0
H104 H 0.87657 0.60632 0.89445 0.0
H105 H 0.65066 0.58112 0.88639 0.0
H106 H 0.95637 0.6654 0.13191 0.0
H107 H 0.83274 0.60056 0.15513 0.0
H108 H 0.60241 0.5754 0.95782 0.0
H109 H 0.62199 0.57781 0.04059 0.0
H110 H 0.15875 0.66924 0.89798 0.0
H111 H 0.7057 0.58743 0.11425 0.0
H112 H 0.1992 0.68572 0.17655 0.0
N113 N 0.07388 0.66325 0.992 0.0
C114 C 0.13184 0.67024 0.02443 0.0
C115 C 0.15232 0.66952 0.93361 0.0
C116 C 0.20504 0.67667 0.01238 0.0
C117 C 0.0816 0.6631 0.94716 0.0
C118 C 0.21488 0.67621 0.96634 0.0
N119 N 0.04218 0.66578 0.08022 0.0
C120 C 1.01931 0.66839 0.1239 0.0
C121 C 0.17551 0.67855 0.10406 0.0
C122 C 0.11668 0.67123 0.06976 0.0
C123 C 0.15559 0.6802 0.14924 0.0
C124 C 0.0765 0.67529 0.1591 0.0
H125 H 0.26997 0.68109 0.95575 0.0
H126 H 0.32236 0.68837 0.03791 0.0
H127 H 0.29682 0.68995 0.11817 0.0
O128 O 0.91442 0.67507 0.03752 0.0
O129 O 0.0791 0.64287 0.9972 0.0
O130 O 0.08547 0.62433 0.03149 0.0
O131 O 0.85921 0.66283 0.97501 0.0
O132 O 0.92449 0.64469 0.0789 0.0
O133 O 1.00658 0.62533 0.0723 0.0
O134 O 0.03331 0.59796 0.95973 0.0
O135 O 0.82584 0.62345 0.99103 0.0
O136 O 0.83446 0.64417 0.04007 0.0
O137 O 0.98442 0.59348 0.0204 0.0
O138 O 0.99603 0.6213 0.9423 0.0
O139 O 0.91367 0.64052 0.94857 0.0
C140 C 0.12427 0.63388 0.01547 0.0
C141 C 0.88472 0.68623 0.97577 0.0
C142 C 0.89188 0.71052 0.97429 0.0
C143 C 0.92401 0.70731 0.93127 0.0
C144 C 0.91398 0.68334 0.93196 0.0
C145 C 0.93433 0.69381 0.9102 0.0
C146 C 0.87224 0.69991 0.99657 0.0
C147 C 0.97124 0.63589 0.097 0.0
C148 C 0.8679 0.67504 0.99973 0.0
C149 C 0.26518 0.68352 0.04651 0.0
C150 C 0.25069 0.68439 0.09222 0.0
C151 C 0.78807 0.6339 0.01574 0.0
C152 C 0.09484 0.57932 0.99028 0.0
C153 C 0.13364 0.55628 0.99959 0.0
C154 C 0.22094 0.56066 0.00809 0.0
C155 C 0.18179 0.58347 0.99893 0.0
C156 C 0.07139 0.56577 0.99007 0.0
C157 C 0.2446 0.5741 0.00745 0.0
C158 C 0.96104 0.63126 0.925 0.0
C159 C 0.02501 0.58887 0.9847 0.0
H160 H 0.93938 0.71528 0.91348 0.0
H161 H 0.92115 0.67297 0.9143 0.0
H162 H 0.95772 0.69145 0.8767 0.0
H163 H 0.84835 0.7023 0.03 0.0
H164 H 0.27095 0.55382 0.01628 0.0
H165 H 0.20076 0.59391 0.99972 0.0
H166 H 1.00384 0.5627 0.9828 0.0
H167 H 0.31182 0.57733 0.01441 0.0
Eu168 Eu 0.05977 0.65506 0.53471 0.0
C169 C 0.2478 0.60317 0.46648 0.0
N170 N 0.17168 0.60724 0.44806 0.0
C171 C 0.21946 0.60089 0.37339 0.0
C172 C 0.31395 0.59806 0.43852 0.0
C173 C 0.15592 0.606 0.40235 0.0
C174 C 0.29882 0.59693 0.39153 0.0
C175 C 0.34165 0.60128 0.53332 0.0
C176 C 0.26131 0.60478 0.51368 0.0
C177 C 0.4074 0.59617 0.50541 0.0
C178 C 0.3935 0.59452 0.45823 0.0
Eu179 Eu 0.06685 0.61421 0.49933 0.0
N180 N 0.19711 0.61001 0.5403 0.0
C181 C 0.35373 0.603 0.58054 0.0
C182 C 0.20709 0.61093 0.58613 0.0
C183 C 0.28592 0.60772 0.60697 0.0
H184 H 0.0939 0.60875 0.3882 0.0
H185 H 0.29378 0.60864 0.64341 0.0
H186 H 0.1081 0.6637 0.64768 0.0
H187 H 0.7858 0.66936 0.43008 0.0
H188 H 0.15406 0.61364 0.60684 0.0
H189 H 0.41457 0.60046 0.59686 0.0
H190 H 0.92691 0.65895 0.44506 0.0
H191 H 0.20704 0.59995 0.33711 0.0
H192 H 0.46945 0.59348 0.52003 0.0
H193 H 0.44514 0.59063 0.43727 0.0
H194 H 0.03762 0.675 0.71554 0.0
H195 H 0.34806 0.59303 0.36897 0.0
H196 H 0.70585 0.68103 0.49415 0.0
N197 N 1.00078 0.66612 0.60179 0.0
C198 C 0.92233 0.6719 0.59613 0.0
C199 C 1.0042 0.6741 0.6822 0.0
C200 C 0.88082 0.6788 0.63381 0.0
C201 C 0.04336 0.66751 0.6438 0.0
C202 C 0.92228 0.67967 0.67723 0.0
N203 N 0.9244 0.66417 0.51669 0.0
C204 C 0.89186 0.66387 0.47315 0.0
C205 C 0.80353 0.6773 0.54543 0.0
C206 C 0.88397 0.67117 0.5524 0.0
C207 C 0.76758 0.67646 0.5009 0.0
C208 C 0.81235 0.66983 0.46462 0.0
H209 H 0.89238 0.68485 0.70704 0.0
H210 H 0.76705 0.69002 0.65557 0.0
H211 H 0.69949 0.6887 0.57828 0.0
O212 O 0.12378 0.66712 0.49326 0.0
O213 O 0.92672 0.64446 0.52667 0.0
O214 O 0.92595 0.62084 0.50352 0.0
O215 O 0.10412 0.67588 0.56305 0.0
O216 O 0.06673 0.64546 0.46003 0.0
O217 O 1.00108 0.62401 0.44444 0.0
O218 O 0.05611 0.59506 0.52294 0.0
O219 O 0.17628 0.62836 0.48685 0.0
O220 O 0.18762 0.64514 0.54991 0.0
O221 O 1.01671 0.59575 0.45314 0.0
O222 O 0.02505 0.62312 0.56942 0.0
O223 O 0.10596 0.64285 0.58734 0.0
C224 C 0.88626 0.63253 0.51546 0.0
C225 C 0.21467 0.68582 0.53024 0.0
C226 C 0.28555 0.70781 0.53204 0.0
C227 C 0.36521 0.7021 0.54368 0.0
C228 C 0.29449 0.68036 0.54166 0.0
C229 C 0.36948 0.68849 0.54813 0.0
C230 C 0.21055 0.69942 0.52501 0.0
C231 C 0.02496 0.63528 0.43217 0.0
C232 C 0.13375 0.67785 0.52572 0.0
C233 C 0.80001 0.68473 0.62699 0.0
C234 C 0.76157 0.684 0.58296 0.0
C235 C 0.2247 0.63671 0.51828 0.0
C236 C 0.96006 0.57756 0.48307 0.0
C237 C 0.92723 0.55397 0.48639 0.0
C238 C 0.83917 0.55627 0.47629 0.0
C239 C 0.87172 0.57976 0.47371 0.0
C240 C 0.98734 0.56472 0.4901 0.0
C241 C 0.81161 0.56913 0.47047 0.0
C242 C 0.05542 0.63383 0.59901 0.0
C243 C 0.02592 0.58819 0.48362 0.0
H244 H 0.42423 0.70819 0.5503 0.0
H245 H 0.29857 0.66992 0.54601 0.0
H246 H 0.43108 0.68427 0.55729 0.0
H247 H 0.14842 0.70342 0.51549 0.0
H248 H 0.79176 0.54812 0.47317 0.0
H249 H 0.84948 0.5896 0.46843 0.0
H250 H 0.05565 0.56297 0.49718 0.0
H251 H 0.74352 0.57083 0.46297 0.0
Eu252 Eu 0.95605 0.40085 0.52175 0.0
C253 C 0.13227 0.34262 0.48828 0.0
N254 N 0.07776 0.3495 0.46363 0.0
C255 C 0.15947 0.34284 0.39886 0.0
C256 C 0.20513 0.33603 0.46944 0.0
C257 C 0.08833 0.34929 0.41905 0.0
C258 C 0.21861 0.33629 0.42427 0.0
C259 C 0.17252 0.33567 0.55957 0.0
C260 C 0.11606 0.34247 0.53288 0.0
C261 C 0.24583 0.32925 0.5411 0.0
C262 C 0.26201 0.32941 0.49616 0.0
Eu263 Eu 0.95848 0.35971 0.5002 0.0
N264 N 0.04481 0.34883 0.54998 0.0
C265 C 0.15319 0.33543 0.60396 0.0
C266 C 1.02334 0.34802 0.59237 0.0
C267 C 0.07784 0.34152 0.62026 0.0
H268 H 0.04172 0.35398 0.39889 0.0
H269 H 0.06115 0.34108 0.65411 0.0
H270 H 0.95341 0.4072 0.6374 0.0
H271 H 0.71805 0.41425 0.3961 0.0
H272 H 0.96323 0.35212 0.60441 0.0
H273 H 0.19505 0.33034 0.62558 0.0
H274 H 0.85797 0.40564 0.42383 0.0
H275 H 0.16832 0.34285 0.36364 0.0
H276 H 0.29008 0.32403 0.56118 0.0
H277 H 0.31856 0.32434 0.48233 0.0
H278 H 0.84718 0.41307 0.69393 0.0
H279 H 0.27377 0.33133 0.40854 0.0
H280 H 0.60463 0.42104 0.44915 0.0
N281 N 0.86188 0.40688 0.58062 0.0
C282 C 0.78191 0.41101 0.56706 0.0
C283 C 0.82735 0.41223 0.65828 0.0
C284 C 0.72014 0.41522 0.59879 0.0
C285 C 0.88692 0.40841 0.6258 0.0
C286 C 0.74307 0.41539 0.64465 0.0
N287 N 0.82229 0.40744 0.49127 0.0
C288 C 0.80831 0.40861 0.44697 0.0
C289 C 0.68182 0.4165 0.50715 0.0
C290 C 0.76256 0.41167 0.52158 0.0
C291 C 0.66583 0.41736 0.46146 0.0
C292 C 0.72959 0.41349 0.43134 0.0
H293 H 0.69745 0.41855 0.67001 0.0
H294 H 0.59034 0.42274 0.60805 0.0
H295 H 0.55688 0.42384 0.52795 0.0
O296 O 0.98759 0.41724 0.48749 0.0
O297 O 0.83792 0.38714 0.4904 0.0
O298 O 0.84174 0.37044 0.53115 0.0
O299 O 0.99381 0.42119 0.56052 0.0
O300 O 1.00325 0.39061 0.45477 0.0
O301 O 0.93123 0.36971 0.43869 0.0
O302 O 0.91212 0.33951 0.50661 0.0
O303 O 0.09335 0.36964 0.50363 0.0
O304 O 0.09568 0.39342 0.5221 0.0
O305 O 0.87127 0.34769 0.44636 0.0
O306 O 0.93125 0.37201 0.56898 0.0
O307 O 1.01581 0.39132 0.57943 0.0
C308 C 0.7969 0.37899 0.51127 0.0
C309 C 0.07061 0.43642 0.5258 0.0
C310 C 0.11105 0.45961 0.52074 0.0
C311 C 0.19835 0.45579 0.52091 0.0
C312 C 0.15793 0.43282 0.52636 0.0
C313 C 0.22152 0.44251 0.52408 0.0
C314 C 0.04754 0.44984 0.52353 0.0
C315 C 0.97308 0.37967 0.42625 0.0
C316 C 1.00148 0.4263 0.52461 0.0
C317 C 0.63859 0.41958 0.58414 0.0
C318 C 0.61964 0.42027 0.53854 0.0
C319 C 0.13466 0.38154 0.5132 0.0
C320 C 0.81571 0.32501 0.44869 0.0
C321 C 0.77315 0.30151 0.44999 0.0
C322 C 0.71537 0.30153 0.41166 0.0
C323 C 0.75743 0.32466 0.41044 0.0
C324 C 0.82369 0.31334 0.46834 0.0
C325 C 0.70775 0.313 0.39215 0.0
C326 C 0.98529 0.38095 0.59451 0.0
C327 C 0.86757 0.33756 0.46747 0.0
H328 H 0.24865 0.4631 0.5189 0.0
H329 H 0.17659 0.42252 0.52801 0.0
H330 H 0.28895 0.43969 0.52434 0.0
H331 H 0.97978 0.45256 0.52251 0.0
H332 H 0.67682 0.29257 0.39617 0.0
H333 H 0.75 0.33342 0.39461 0.0
H334 H 0.86845 0.31349 0.49787 0.0
H335 H 0.66324 0.31283 0.36255 0.0
Eu336 Eu 0.56731 0.86035 0.00174 0.0
C337 C 0.77582 0.91265 0.06751 0.0
N338 N 0.70302 0.90871 0.08436 0.0
C339 C 0.76667 0.91565 0.16033 0.0
C340 C 0.84813 0.91802 0.09699 0.0
C341 C 0.69677 0.91029 0.1299 0.0
C342 C 0.8427 0.91951 0.14383 0.0
C343 C 0.85592 0.9142 0.00251 0.0
C344 C 0.77948 0.91073 0.02051 0.0
C345 C 0.92789 0.91954 0.03189 0.0
C346 C 0.92391 0.92148 0.07892 0.0
Eu347 Eu 0.58678 0.9013 0.0305 0.0
N348 N 0.70924 0.90533 0.99251 0.0
C349 C 0.85776 0.91229 0.9554 0.0
C350 C 0.70901 0.90437 0.94678 0.0
C351 C 0.78368 0.9075 0.92748 0.0
H352 H 0.6375 0.90762 0.14276 0.0
H353 H 0.7834 0.90652 0.8911 0.0
H354 H 0.61294 0.8502 0.89299 0.0
H355 H 0.29633 0.84594 0.08842 0.0
H356 H 0.65077 0.90177 0.92506 0.0
H357 H 0.91532 0.9148 0.94031 0.0
H358 H 0.43802 0.8566 0.08238 0.0
H359 H 0.7617 0.91687 0.19648 0.0
H360 H 0.98708 0.92221 0.01855 0.0
H361 H 0.98017 0.92557 0.10106 0.0
H362 H 0.53956 0.83813 0.82056 0.0
H363 H 0.89686 0.9236 0.16753 0.0
H364 H 0.21208 0.83377 0.01915 0.0
N365 N 0.50539 0.84833 0.93115 0.0
C366 C 0.42588 0.84261 0.93141 0.0
C367 C 0.50656 0.83942 0.85141 0.0
C368 C 0.38266 0.83527 0.8911 0.0
C369 C 0.54742 0.84643 0.89235 0.0
C370 C 0.42348 0.83392 0.85068 0.0
N371 N 0.43175 0.85091 0.01064 0.0
C372 C 0.40126 0.85136 0.05214 0.0
C373 C 0.30802 0.83741 0.97418 0.0
C374 C 0.38883 0.84369 0.97241 0.0
C375 C 0.27408 0.83842 0.01639 0.0
C376 C 0.32133 0.84531 0.05558 0.0
H377 H 0.3923 0.82839 0.81898 0.0
H378 H 0.26677 0.82366 0.86186 0.0
H379 H 0.20152 0.82554 0.93458 0.0
O380 O 0.63642 0.85001 0.05073 0.0
O381 O 0.43627 0.87096 0.00406 0.0
O382 O 0.44427 0.89463 0.02573 0.0
O383 O 0.60755 0.83926 0.98176 0.0
O384 O 0.58206 0.8711 0.07609 0.0
O385 O 0.52756 0.89296 0.08554 0.0
O386 O 0.56745 0.91959 0.00194 0.0
O387 O 0.69766 0.88735 0.04837 0.0
O388 O 0.69344 0.86977 0.98788 0.0
O389 O 0.5508 0.92045 0.07287 0.0
O390 O 0.53231 0.89126 0.95957 0.0
O391 O 0.61022 0.87172 0.94935 0.0
C392 C 0.40004 0.883 0.01387 0.0
C393 C 0.72832 0.83194 0.02266 0.0
C394 C 0.81089 0.81131 0.02598 0.0
C395 C 0.88759 0.81878 0.02508 0.0
C396 C 0.80547 0.83914 0.02174 0.0
C397 C 0.88469 0.83257 0.02298 0.0
C398 C 0.73117 0.81805 0.02465 0.0
C399 C 0.54435 0.88162 0.10007 0.0
C400 C 0.6442 0.83869 0.02156 0.0
C401 C 0.3011 0.82929 0.89252 0.0
C402 C 0.26398 0.83034 0.93396 0.0
C403 C 0.73854 0.87871 0.01866 0.0
C404 C 0.48113 0.9373 0.03814 0.0
C405 C 0.44276 0.96051 0.03078 0.0
C406 C 0.35676 0.95757 0.03841 0.0
C407 C 0.39513 0.93458 0.04516 0.0
C408 C 0.50431 0.95014 0.03036 0.0
C409 C 0.33329 0.94469 0.04517 0.0
C410 C 0.56056 0.88045 0.93295 0.0
C411 C 0.5491 0.92718 0.0401 0.0
H412 H 0.94995 0.81392 0.0252 0.0
H413 H 0.80439 0.84981 0.02006 0.0
H414 H 0.94412 0.83816 0.02211 0.0
H415 H 0.67129 0.81256 0.02569 0.0
H416 H 0.30762 0.96527 0.04001 0.0
H417 H 0.37614 0.92472 0.05102 0.0
H418 H 0.57072 0.95198 0.02398 0.0
H419 H 0.26701 0.94261 0.05103 0.0
Eu420 Eu 0.48312 0.1556 0.02397 0.0
C421 C 0.27624 0.10539 0.01645 0.0
N422 N 0.34917 0.11074 0.04222 0.0
C423 C 0.28329 0.10864 0.10991 0.0
C424 C 0.20257 0.10205 0.03704 0.0
C425 C 0.35509 0.11161 0.08806 0.0
C426 C 0.20631 0.10402 0.08437 0.0
C427 C 0.19995 0.09774 0.94195 0.0
C428 C 0.27472 0.10321 0.96913 0.0
C429 C 0.12675 0.09449 0.9626 0.0
C430 C 0.12793 0.09669 0.00994 0.0
Eu431 Eu 0.46584 0.11467 0.99998 0.0
N432 N 0.34491 0.10702 0.94974 0.0
C433 C 0.20037 0.09594 0.89473 0.0
C434 C 0.34649 0.10509 0.90383 0.0
C435 C 0.27399 0.09961 0.87561 0.0
H436 H 0.41576 0.11395 0.10787 0.0
H437 H 0.27501 0.09815 0.83916 0.0
H438 H 0.59331 0.15787 0.93453 0.0
H439 H 0.55105 0.1789 0.20313 0.0
H440 H 0.40395 0.10769 0.88903 0.0
H441 H 0.14415 0.09176 0.87273 0.0
H442 H 0.46344 0.16638 0.13601 0.0
H443 H 0.2881 0.10958 0.14638 0.0
H444 H 0.06856 0.09035 0.94225 0.0
H445 H 0.07079 0.09413 0.02528 0.0
H446 H 0.73118 0.1678 0.91896 0.0
H447 H 0.15105 0.1016 0.10142 0.0
H448 H 0.69461 0.18846 0.19449 0.0
N449 N 0.61466 0.16424 0.00595 0.0
C450 C 0.66432 0.17184 0.04112 0.0
C451 C 0.71356 0.16889 0.95349 0.0
C452 C 0.74315 0.17778 0.03383 0.0
C453 C 0.636 0.16317 0.96236 0.0
C454 C 0.76782 0.17612 0.98941 0.0
N455 N 0.55964 0.16777 0.09046 0.0
C456 C 0.52748 0.17001 0.13209 0.0
C457 C 0.68795 0.18099 0.12187 0.0
C458 C 0.63689 0.1734 0.08464 0.0
C459 C 0.65723 0.18273 0.16503 0.0
C460 C 0.57632 0.17731 0.17007 0.0
H461 H 0.82796 0.18052 0.98243 0.0
H462 H 0.8557 0.18974 0.06605 0.0
H463 H 0.80742 0.19255 0.14307 0.0
O464 O 0.44263 0.17657 0.04681 0.0
O465 O 0.61423 0.14504 0.0203 0.0
O466 O 0.60826 0.12133 0.0073 0.0
O467 O 0.41504 0.16662 0.97669 0.0
O468 O 0.44421 0.14513 0.07955 0.0
O469 O 0.52147 0.12542 0.07007 0.0
O470 O 0.50851 0.09595 0.9571 0.0
O471 O 0.35271 0.12814 0.98178 0.0
O472 O 0.35808 0.14638 0.04024 0.0
O473 O 0.48069 0.09598 0.02606 0.0
O474 O 0.5207 0.12288 0.94314 0.0
O475 O 0.45621 0.14394 0.95122 0.0
C476 C 0.65143 0.13305 0.01465 0.0
C477 C 0.3275 0.1853 0.0053 0.0
C478 C 0.25724 0.20712 0.00432 0.0
C479 C 0.17636 0.20026 0.99758 0.0
C480 C 0.24643 0.17871 0.999 0.0
C481 C 0.17123 0.18621 0.99527 0.0
C482 C 0.33257 0.19944 0.00849 0.0
C483 C 0.49297 0.13633 0.09627 0.0
C484 C 0.40834 0.17771 0.00706 0.0
C485 C 0.79468 0.18516 0.07095 0.0
C486 C 0.76724 0.18674 0.11483 0.0
C487 C 0.31264 0.13706 0.011 0.0
C488 C 0.57416 0.07904 0.99339 0.0
C489 C 0.61379 0.05598 0.00168 0.0
C490 C 0.7013 0.06028 0.00881 0.0
C491 C 0.66145 0.0831 1.00056 0.0
C492 C 0.55078 0.06552 0.99352 0.0
C493 C 0.72471 0.0737 0.00796 0.0
C494 C 0.49802 0.13386 0.92764 0.0
C495 C 0.50518 0.0888 0.98857 0.0
H496 H 0.11688 0.20567 0.99328 0.0
H497 H 0.24142 0.16782 0.99656 0.0
H498 H 0.10865 0.18108 0.99001 0.0
H499 H 0.39571 0.20442 0.01428 0.0
H500 H 0.75179 0.0534 0.01604 0.0
H501 H 0.68038 0.09352 1.00098 0.0
H502 H 0.48302 0.06251 0.98741 0.0
H503 H 0.79213 0.07688 0.01379 0.0
Eu504 Eu 0.57822 0.15565 0.53343 0.0
C505 C 0.76355 0.10319 0.46532 0.0
N506 N 0.6872 0.1073 0.44728 0.0
C507 C 0.73271 0.10063 0.37224 0.0
C508 C 0.82867 0.09789 0.43695 0.0
C509 C 0.67021 0.10592 0.40159 0.0
C510 C 0.8123 0.09661 0.38997 0.0
C511 C 0.85882 0.10135 0.53172 0.0
C512 C 0.7783 0.10493 0.51251 0.0
C513 C 0.92354 0.09605 0.50341 0.0
C514 C 0.90843 0.09428 0.45624 0.0
Eu515 Eu 0.58428 0.11467 0.49931 0.0
N516 N 0.7151 0.11035 0.53951 0.0
C517 C 0.87208 0.10318 0.57893 0.0
C518 C 0.72619 0.11139 0.58536 0.0
C519 C 0.80523 0.1081 0.60579 0.0
H520 H 0.60798 0.1087 0.38776 0.0
H521 H 0.81398 0.10911 0.64225 0.0
H522 H 0.62301 0.1644 0.64664 0.0
H523 H 0.30535 0.16917 0.42643 0.0
H524 H 0.67385 0.11427 0.60641 0.0
H525 H 0.93308 0.10058 0.59494 0.0
H526 H 0.44627 0.1589 0.44276 0.0
H527 H 0.71931 0.09957 0.33597 0.0
H528 H 0.98572 0.09328 0.51769 0.0
H529 H 0.95929 0.09023 0.43496 0.0
H530 H 0.55093 0.1759 0.71365 0.0
H531 H 0.86072 0.09257 0.36709 0.0
H532 H 0.22448 0.18121 0.48958 0.0
N533 N 0.51727 0.16682 0.5998 0.0
C534 C 0.43919 0.17264 0.5934 0.0
C535 C 0.5185 0.17495 0.68006 0.0
C536 C 0.39678 0.17964 0.63059 0.0
C537 C 0.55854 0.16825 0.64213 0.0
C538 C 0.437 0.18059 0.67432 0.0
N539 N 0.4428 0.16456 0.51424 0.0
C540 C 0.4108 0.16397 0.47045 0.0
C541 C 0.32141 0.1778 0.54167 0.0
C542 C 0.40179 0.17174 0.54941 0.0
C543 C 0.28614 0.1767 0.49691 0.0
C544 C 0.33141 0.16986 0.46116 0.0
H545 H 0.40639 0.18586 0.70377 0.0
H546 H 0.2826 0.19094 0.6512 0.0
H547 H 0.2167 0.18932 0.57344 0.0
O548 O 0.63654 0.1681 0.49141 0.0
O549 O 0.44519 0.14507 0.52673 0.0
O550 O 0.44385 0.12146 0.50308 0.0
O551 O 0.62732 0.1762 0.56268 0.0
O552 O 0.58756 0.14574 0.45919 0.0
O553 O 0.51907 0.12453 0.44439 0.0
O554 O 0.5725 0.09572 0.52396 0.0
O555 O 0.69479 0.12853 0.4863 0.0
O556 O 0.70604 0.14568 0.54842 0.0
O557 O 0.53233 0.09614 0.45408 0.0
O558 O 0.54444 0.12389 0.56959 0.0
O559 O 0.62567 0.14362 0.58634 0.0
C560 C 0.4045 0.13316 0.51539 0.0
C561 C 0.73381 0.18609 0.52664 0.0
C562 C 0.80859 0.20737 0.52334 0.0
C563 C 0.88815 0.20106 0.53065 0.0
C564 C 0.81364 0.18002 0.53389 0.0
C565 C 0.89044 0.18751 0.53588 0.0
C566 C 0.73148 0.19972 0.52145 0.0
C567 C 0.545 0.1356 0.43157 0.0
C568 C 0.65183 0.17851 0.52463 0.0
C569 C 0.31621 0.18556 0.62301 0.0
C570 C 0.27873 0.18466 0.5787 0.0
C571 C 0.74301 0.13705 0.51726 0.0
C572 C 0.47333 0.07851 0.4857 0.0
C573 C 0.43578 0.05514 0.49028 0.0
C574 C 0.34774 0.05816 0.48328 0.0
C575 C 0.38522 0.08136 0.4793 0.0
C576 C 0.49824 0.06546 0.49172 0.0
C577 C 0.3228 0.0712 0.47816 0.0
C578 C 0.57597 0.13462 0.59873 0.0
C579 C 0.54105 0.08874 0.48504 0.0
H580 H 0.94872 0.20664 0.53289 0.0
H581 H 0.81645 0.16955 0.53806 0.0
H582 H 0.95205 0.1828 0.54162 0.0
H583 H 0.66942 0.20428 0.5153 0.0
H584 H 0.29816 0.05046 0.48224 0.0
H585 H 0.36487 0.09137 0.47489 0.0
H586 H 0.56646 0.06324 0.49642 0.0
H587 H 0.25481 0.07342 0.47307 0.0
Eu588 Eu 0.46382 0.90095 0.52842 0.0
C589 C 0.61628 0.84243 0.4421 0.0
N590 N 0.53727 0.84774 0.4339 0.0
C591 C 0.53764 0.8379 0.35479 0.0
C592 C 0.66016 0.83489 0.40638 0.0
C593 C 0.49633 0.84519 0.39137 0.0
C594 C 0.62029 0.83283 0.36225 0.0
C595 C 0.73443 0.83886 0.49615 0.0
C596 C 0.65305 0.84437 0.4865 0.0
C597 C 0.7787 0.83149 0.46056 0.0
C598 C 0.74174 0.82953 0.41582 0.0
Eu599 Eu 0.4733 0.85993 0.49785 0.0
N600 N 0.61029 0.85201 0.52013 0.0
C601 C 0.76902 0.84097 0.5413 0.0
C602 C 0.64167 0.85353 0.56441 0.0
C603 C 0.72202 0.84823 0.57559 0.0
H604 H 0.43072 0.84842 0.38597 0.0
H605 H 0.74741 0.84966 0.61068 0.0
H606 H 0.45061 0.90821 0.64102 0.0
H607 H 0.22154 0.90507 0.38927 0.0
H608 H 0.60488 0.85882 0.59112 0.0
H609 H 0.83138 0.83691 0.55009 0.0
H610 H 0.36439 0.90007 0.42256 0.0
H611 H 0.50521 0.83602 0.32101 0.0
H612 H 0.84149 0.82724 0.4673 0.0
H613 H 0.7765 0.82375 0.38877 0.0
H614 H 0.34388 0.9178 0.6949 0.0
H615 H 0.65193 0.82711 0.33389 0.0
H616 H 0.10737 0.91432 0.43897 0.0
N617 N 0.36606 0.90893 0.5827 0.0
C618 C 0.28817 0.91289 0.5659 0.0
C619 C 0.32724 0.91637 0.65874 0.0
C620 C 0.22561 0.91848 0.5955 0.0
C621 C 0.38713 0.91079 0.62822 0.0
C622 C 0.2461 0.9202 0.64235 0.0
N623 N 0.32991 0.90503 0.49065 0.0
C624 C 0.31442 0.90338 0.44476 0.0
C625 C 0.18725 0.91419 0.50102 0.0
C626 C 0.26931 0.91076 0.51884 0.0
C627 C 0.1697 0.91186 0.45391 0.0
C628 C 0.23377 0.90654 0.42572 0.0
H629 H 0.19976 0.92448 0.66614 0.0
H630 H 0.09546 0.92624 0.59983 0.0
H631 H 0.06183 0.92245 0.51736 0.0
O632 O 0.46964 0.91943 0.50106 0.0
O633 O 0.3534 0.88726 0.54226 0.0
O634 O 0.3441 0.86947 0.48195 0.0
O635 O 0.52023 0.91985 0.57004 0.0
O636 O 0.50001 0.8912 0.45808 0.0
O637 O 0.42532 0.87071 0.44141 0.0
O638 O 0.42222 0.84761 0.54225 0.0
O639 O 0.60461 0.87075 0.50144 0.0
O640 O 0.60471 0.89436 0.52446 0.0
O641 O 0.42186 0.83936 0.47046 0.0
O642 O 0.45988 0.87063 0.57087 0.0
O643 O 0.53076 0.89156 0.58387 0.0
C644 C 0.30627 0.87838 0.51199 0.0
C645 C 0.57348 0.93652 0.53212 0.0
C646 C 0.61037 0.95946 0.52198 0.0
C647 C 0.69545 0.95509 0.51458 0.0
C648 C 0.65836 0.93243 0.52467 0.0
C649 C 0.7191 0.94173 0.5162 0.0
C650 C 0.55001 0.95001 0.53114 0.0
C651 C 0.46896 0.88042 0.42889 0.0
C652 C 0.50633 0.9268 0.53807 0.0
C653 C 0.14434 0.92197 0.57758 0.0
C654 C 0.12516 0.91979 0.53056 0.0
C655 C 0.64458 0.88273 0.51206 0.0
C656 C 0.32292 0.82955 0.51135 0.0
C657 C 0.25275 0.80807 0.51587 0.0
C658 C 0.17302 0.81475 0.51895 0.0
C659 C 0.24286 0.83602 0.51405 0.0
C660 C 0.32749 0.81558 0.51178 0.0
C661 C 0.16821 0.82861 0.51773 0.0
C662 C 0.50389 0.88074 0.59775 0.0
C663 C 0.4033 0.83715 0.50968 0.0
H664 H 0.74357 0.96188 0.50653 0.0
H665 H 0.67721 0.92205 0.52486 0.0
H666 H 0.78455 0.93851 0.51014 0.0
H667 H 0.48427 0.95306 0.5374 0.0
H668 H 0.1143 0.80923 0.52187 0.0
H669 H 0.23832 0.84677 0.5137 0.0
H670 H 0.3897 0.81064 0.5101 0.0
H671 H 0.10644 0.83363 0.51992 0.0
H672 H 0.33701 0.3705 0.94356 0.0
H673 H 0.35905 0.38827 0.08623 0.0
H674 H 0.49372 0.37225 0.94191 0.0
H675 H 0.5162 0.38995 0.08505 0.0
H676 H 0.79334 0.40187 0.06165 0.0
H677 H 0.63526 0.40104 0.062 0.0
H678 H 0.62711 0.3636 0.96222 0.0
H679 H 0.78302 0.36506 0.95978 0.0
C680 C 0.37543 0.37469 0.97476 0.0
C681 C 0.3348 0.37935 0.01493 0.0
C682 C 0.46592 0.37569 0.97392 0.0
C683 C 0.51931 0.38128 0.01335 0.0
C684 C 0.4783 0.3858 0.05368 0.0
C685 C 0.38771 0.3848 0.05446 0.0
C686 C 0.75758 0.39354 0.03945 0.0
C687 C 0.8019 0.38335 0.01139 0.0
C688 C 0.66658 0.39296 0.04002 0.0
C689 C 0.61684 0.38217 0.01244 0.0
C690 C 0.66163 0.37215 0.98381 0.0
C691 C 0.7521 0.37281 0.98306 0.0
H692 H 0.24304 0.61961 0.06018 0.0
H693 H 0.22866 0.64818 0.97068 0.0
H694 H 0.40124 0.62015 0.06119 0.0
H695 H 0.38643 0.64936 0.97376 0.0
H696 H 0.68172 0.65629 0.02795 0.0
H697 H 0.52291 0.6568 0.02851 0.0
H698 H 0.51416 0.61303 0.00582 0.0
H699 H 0.6694 0.6127 0.00432 0.0
C700 C 0.27319 0.62616 0.04111 0.0
C701 C 0.22184 0.63417 0.01627 0.0
C702 C 0.36433 0.62648 0.04173 0.0
C703 C 0.40747 0.63495 0.01805 0.0
C704 C 0.3562 0.64295 0.99327 0.0
C705 C 0.26515 0.64237 0.99185 0.0
C706 C 0.64595 0.64677 0.02302 0.0
C707 C 0.69036 0.63434 0.01587 0.0
C708 C 0.55458 0.64706 0.0232 0.0
C709 C 0.50492 0.63494 0.01752 0.0
C710 C 0.54943 0.62261 0.0108 0.0
C711 C 0.6398 0.62237 0.0095 0.0
H712 H 0.78786 0.65037 0.57031 0.0
H713 H 0.76379 0.61434 0.46518 0.0
H714 H 0.63141 0.65183 0.56952 0.0
H715 H 0.60573 0.61517 0.46629 0.0
H716 H 0.32244 0.62839 0.44589 0.0
H717 H 0.47965 0.62676 0.44565 0.0
H718 H 0.50467 0.64276 0.58994 0.0
H719 H 0.34737 0.64443 0.58977 0.0
C720 C 0.74915 0.6428 0.54655 0.0
C721 C 0.78933 0.6325 0.51682 0.0
C722 C 0.65859 0.64346 0.54678 0.0
C723 C 0.60418 0.63366 0.51771 0.0
C724 C 0.64449 0.6231 0.48867 0.0
C725 C 0.73557 0.62251 0.48832 0.0
C726 C 0.36152 0.63151 0.47763 0.0
C727 C 0.32164 0.63644 0.51792 0.0
C728 C 0.45219 0.63053 0.47756 0.0
C729 C 0.50649 0.63456 0.51779 0.0
C730 C 0.46622 0.63969 0.55801 0.0
C731 C 0.37548 0.64065 0.55802 0.0
H732 H 0.69487 0.37112 0.57246 0.0
H733 H 0.67777 0.38678 0.44915 0.0
H734 H 0.53719 0.37201 0.57375 0.0
H735 H 0.52034 0.38801 0.45079 0.0
H736 H 0.24491 0.40053 0.49152 0.0
H737 H 0.40318 0.39997 0.49129 0.0
H738 H 0.40339 0.36165 0.53567 0.0
H739 H 0.24658 0.36254 0.53747 0.0
C740 C 0.65751 0.37474 0.54551 0.0
C741 C 0.69976 0.3791 0.5111 0.0
C742 C 0.56668 0.37526 0.54621 0.0
C743 C 0.51483 0.38018 0.51253 0.0
C744 C 0.55733 0.38439 0.47783 0.0
C745 C 0.64804 0.38371 0.4769 0.0
C746 C 0.27879 0.39203 0.50151 0.0
C747 C 0.23198 0.38146 0.51386 0.0
C748 C 0.36982 0.39163 0.50095 0.0
C749 C 0.41724 0.38072 0.51324 0.0
C750 C 0.37019 0.37028 0.52621 0.0
C751 C 0.27943 0.37066 0.5265 0.0
H752 H 0.83701 0.87082 0.94669 0.0
H753 H 0.86048 0.88801 0.08978 0.0
H754 H 0.9936 0.87257 0.94464 0.0
H755 H 1.01777 0.88975 0.08813 0.0
H756 H 0.29512 0.90173 0.06338 0.0
H757 H 0.13704 0.901 0.06448 0.0
H758 H 0.12677 0.86355 0.96473 0.0
H759 H 0.28272 0.86485 0.96179 0.0
C760 C 0.87572 0.8749 0.97791 0.0
C761 C 0.83547 0.87939 0.01832 0.0
C762 C 0.96616 0.87589 0.97682 0.0
C763 C 1.02002 0.88132 0.01622 0.0
C764 C 0.97945 0.8857 0.0568 0.0
C765 C 0.88883 0.88469 0.05784 0.0
C766 C 0.25891 0.89342 0.04134 0.0
C767 C 0.30269 0.88318 0.01311 0.0
C768 C 0.16792 0.89289 0.04234 0.0
C769 C 0.11758 0.88214 0.01498 0.0
C770 C 0.16179 0.87208 0.98617 0.0
C771 C 0.25225 0.87266 0.98507 0.0
H772 H 0.21386 0.14589 0.08232 0.0
H773 H 0.19114 0.12726 0.94039 0.0
H774 H 0.05697 0.14431 0.08423 0.0
H775 H 0.03388 0.12562 0.94196 0.0
H776 H 0.75723 0.11381 0.96843 0.0
H777 H 0.91542 0.11456 0.96771 0.0
H778 H 0.92364 0.15314 0.06173 0.0
H779 H 0.76751 0.15187 0.06433 0.0
C780 C 0.17528 0.14153 0.05135 0.0
C781 C 0.21574 0.13657 0.01132 0.0
C782 C 0.08476 0.14062 0.05236 0.0
C783 C 0.03123 0.13478 0.01326 0.0
C784 C 0.07202 0.12997 0.97306 0.0
C785 C 0.16261 0.13093 0.97208 0.0
C786 C 0.79302 0.12237 0.98928 0.0
C787 C 0.7487 0.13294 0.01573 0.0
C788 C 0.88402 0.12291 0.98848 0.0
C789 C 0.93373 0.13398 0.01436 0.0
C790 C 0.88898 0.14437 0.04146 0.0
C791 C 0.79847 0.1438 0.0423 0.0
H792 H 0.30546 0.15123 0.56919 0.0
H793 H 0.28265 0.11473 0.46598 0.0
H794 H 0.14897 0.15259 0.56811 0.0
H795 H 0.12468 0.11545 0.46697 0.0
H796 H 0.841 0.12817 0.44538 0.0
H797 H 0.99824 0.12664 0.44541 0.0
H798 H 1.02254 0.1437 0.58902 0.0
H799 H 0.86523 0.14529 0.58854 0.0
C800 C 0.26705 0.14354 0.5458 0.0
C801 C 0.30758 0.13312 0.51667 0.0
C802 C 0.17646 0.14414 0.54588 0.0
C803 C 0.12243 0.13417 0.51732 0.0
C804 C 0.16312 0.1235 0.48892 0.0
C805 C 0.25418 0.12298 0.48866 0.0
C806 C 0.87994 0.13153 0.47703 0.0
C807 C 0.8399 0.13675 0.51703 0.0
C808 C 0.97063 0.13061 0.47713 0.0
C809 C 1.02473 0.13499 0.51724 0.0
C810 C 0.98426 0.14037 0.55717 0.0
C811 C 0.89351 0.14128 0.55701 0.0
H812 H 0.74346 0.8644 0.45909 0.0
H813 H 0.76651 0.90148 0.55976 0.0
H814 H 0.89986 0.86292 0.46051 0.0
H815 H 0.92449 0.90063 0.55897 0.0
H816 H 0.20726 0.88798 0.58278 0.0
H817 H 0.0501 0.88966 0.58195 0.0
H818 H 0.02746 0.87124 0.43938 0.0
H819 H 0.18481 0.86947 0.44071 0.0
C820 C 0.78191 0.87222 0.48192 0.0
C821 C 0.74143 0.88282 0.51033 0.0
C822 C 0.8725 0.87154 0.48204 0.0
C823 C 0.92664 0.88161 0.51003 0.0
C824 C 0.886 0.89249 0.53754 0.0
C825 C 0.79492 0.89309 0.53764 0.0
C826 C 0.16872 0.88432 0.55118 0.0
C827 C 0.20928 0.87867 0.51173 0.0
C828 C 0.07804 0.88534 0.55062 0.0
C829 C 1.02438 0.88066 0.51056 0.0
C830 C 0.06535 0.87483 0.4712 0.0
C831 C 0.15613 0.8738 0.47184 0.0
H832 H 0.98347 0.54762 0.02939 0.0
H833 H 0.22303 0.53249 0.97539 0.0
H834 H 0.93965 0.52457 0.03262 0.0
H835 H 0.18017 0.50949 0.98092 0.0
H836 H 0.106 0.47447 0.0552 0.0
H837 H 0.15095 0.49695 0.04585 0.0
H838 H 0.90262 0.50188 0.97649 0.0
H839 H 0.85846 0.47912 0.98352 0.0
C840 C 0.02667 0.53943 0.01773 0.0
C841 C 0.10697 0.54207 0.00184 0.0
C842 C 1.00149 0.52619 0.01988 0.0
C843 C 0.05642 0.51521 0.00703 0.0
C844 C 0.1368 0.51777 0.99146 0.0
C845 C 0.16148 0.531 0.98855 0.0
C846 C 0.06123 0.48014 0.03705 0.0
C847 C 0.97817 0.47481 0.02021 0.0
C848 C 0.08711 0.4931 0.03195 0.0
C849 C 0.03024 0.5012 0.0106 0.0
C850 C 0.94752 0.49594 0.9936 0.0
C851 C 0.9221 0.48288 0.99795 0.0
H852 H 0.15831 0.47387 0.45798 0.0
H853 H 1.00668 0.47694 0.57351 0.0
H854 H 0.11498 0.4968 0.44983 0.0
H855 H 0.9646 0.49999 0.56584 0.0
H856 H 1.00156 0.5465 0.56255 0.0
H857 H 0.04661 0.52365 0.57165 0.0
H858 H 0.96562 0.50794 0.43086 0.0
H859 H 0.91847 0.53069 0.42226 0.0
C860 C 0.11627 0.4795 0.48181 0.0
C861 C 0.08596 0.47363 0.51642 0.0
C862 C 0.09114 0.49257 0.477 0.0
C863 C 0.03659 0.50017 0.50726 0.0
C864 C 1.00715 0.49438 0.54224 0.0
C865 C 0.03082 0.48119 0.54647 0.0
C866 C 0.99348 0.53813 0.53369 0.0
C867 C 0.95646 0.54028 0.49176 0.0
C868 C 1.01885 0.52508 0.53889 0.0
C869 C 1.00958 0.51403 0.50194 0.0
C870 C 0.97386 0.51627 0.45982 0.0
C871 C 0.94665 0.52924 0.45493 0.0
H872 H 0.59801 0.97434 0.05773 0.0
H873 H 0.34632 0.97835 0.9892 0.0
H874 H 0.6392 0.9969 0.0476 0.0
H875 H 0.38682 1.00122 0.98147 0.0
H876 H 0.46681 0.04719 0.03405 0.0
H877 H 0.42529 0.02405 0.03785 0.0
H878 H 0.66193 0.00923 0.98084 0.0
H879 H 0.70223 0.03227 0.97472 0.0
C880 C 0.55153 0.9799 0.04011 0.0
C881 C 0.46851 0.97436 0.02429 0.0
C882 C 0.57524 0.9929 0.03458 0.0
C883 C 0.51619 1.00083 0.01386 0.0
C884 C 0.43337 0.99538 0.99802 0.0
C885 C 0.41009 0.98228 0.00277 0.0
C886 C 0.50951 0.03903 0.02135 0.0
C887 C 0.58806 0.04174 0.00389 0.0
C888 C 0.4857 0.02575 0.02382 0.0
C889 C 0.54039 0.01485 0.0097 0.0
C890 C 0.61889 0.01747 0.99239 0.0
C891 C 0.64211 0.03072 0.98916 0.0
H892 H 0.38219 0.0309 0.43662 0.0
H893 H 0.54934 0.04796 0.55535 0.0
H894 H 0.42525 0.0081 0.44435 0.0
H895 H 0.58975 0.02513 0.56478 0.0
H896 H 0.70799 0.98316 0.54673 0.0
H897 H 0.66801 1.00593 0.53802 0.0
H898 H 0.41085 0.99112 0.48509 0.0
H899 H 0.45317 0.9682 0.49007 0.0
C900 C 0.42747 0.02974 0.46476 0.0
C901 C 0.46225 0.04122 0.4954 0.0
C902 C 0.45193 0.01663 0.46945 0.0
C903 C 0.51085 0.01461 0.50544 0.0
C904 C 0.54547 0.02617 0.53615 0.0
C905 C 0.52202 0.0393 0.53096 0.0
C906 C 0.64327 0.98468 0.53253 0.0
C907 C 0.58427 0.97367 0.51892 0.0
C908 C 0.61971 0.99787 0.52822 0.0
C909 C 0.53594 1.00053 0.51072 0.0
C910 C 0.47648 0.98955 0.49791 0.0
C911 C 0.50043 0.97634 0.5016 0.0
H912 H 0.15374 0.29053 0.97844 0.0
H913 H 0.4184 0.29234 0.037 0.0
H914 H 0.14579 0.26643 0.98051 0.0
H915 H 0.41093 0.26805 0.03694 0.0
H916 H 0.38338 0.22153 0.97323 0.0
H917 H 0.39274 0.24593 0.97634 0.0
H918 H 0.15251 0.2513 0.04047 0.0
H919 H 0.14456 0.22697 0.03954 0.0
C920 C 0.21007 0.28589 0.99219 0.0
C921 C 0.28674 0.29354 0.00769 0.0
C922 C 0.20546 0.27202 0.9931 0.0
C923 C 0.27773 0.26535 0.00883 0.0
C924 C 0.35444 0.27289 0.02418 0.0
C925 C 0.35872 0.28682 0.02395 0.0
C926 C 0.33319 0.22787 0.98887 0.0
C927 C 0.26318 0.22213 0.00621 0.0
C928 C 0.3385 0.24188 0.99039 0.0
C929 C 0.27331 0.25052 0.00856 0.0
C930 C 0.20327 0.24486 0.0258 0.0
C931 C 0.19858 0.23088 0.02498 0.0
H932 H 0.70236 0.79059 0.97988 0.0
H933 H 0.92802 0.79844 0.07526 0.0
H934 H 0.7174 0.76622 0.9768 0.0
H935 H 0.94339 0.77409 0.07179 0.0
H936 H 1.0117 0.73101 0.99231 0.0
H937 H 0.98627 0.75537 0.01222 0.0
H938 H 0.71436 0.74723 0.01936 0.0
H939 H 0.74057 0.72271 0.9994 0.0
C940 C 0.75426 0.78716 1.00083 0.0
C941 C 0.8147 0.79652 0.02733 0.0
C942 C 0.76281 0.77316 0.9991 0.0
C943 C 0.8321 0.76818 0.02374 0.0
C944 C 0.89019 0.77757 0.05177 0.0
C945 C 0.88152 0.79154 0.05361 0.0
C946 C 0.9469 0.73444 0.99916 0.0
C947 C 0.87815 0.72501 0.99446 0.0
C948 C 0.93223 0.74839 0.01067 0.0
C949 C 0.84815 0.75328 0.01718 0.0
C950 C 0.77975 0.7438 0.0142 0.0
C951 C 0.79477 0.72979 0.00326 0.0
H952 H 0.15332 0.72567 0.55408 0.0
H953 H 0.4059 0.72347 0.50168 0.0
H954 H 0.14417 0.7493 0.54761 0.0
H955 H 0.39997 0.74747 0.49904 0.0
H956 H 0.33382 0.78801 0.45962 0.0
H957 H 0.34023 0.76386 0.46185 0.0
H958 H 0.19382 0.77101 0.58042 0.0
H959 H 0.18435 0.79497 0.57653 0.0
C960 C 0.20709 0.73016 0.54109 0.0
C961 C 0.28034 0.72248 0.52833 0.0
C962 C 0.20249 0.7439 0.53818 0.0
C963 C 0.27158 0.7505 0.52314 0.0
C964 C 0.34481 0.74282 0.5103 0.0
C965 C 0.34886 0.72901 0.51256 0.0
C966 C 0.30308 0.78437 0.48611 0.0
C967 C 0.25813 0.79337 0.51772 0.0
C968 C 0.30708 0.77051 0.48762 0.0
C969 C 0.26737 0.76532 0.52128 0.0
C970 C 0.22347 0.77445 0.55327 0.0
C971 C 0.21834 0.78824 0.55127 0.0
H972 H 0.64222 0.28516 0.46552 0.0
H973 H 0.92086 0.28928 0.47791 0.0
H974 H 0.65322 0.26304 0.48682 0.0
H975 H 0.93211 0.26723 0.5008 0.0
H976 H 0.91555 0.2202 0.47603 0.0
H977 H 0.90997 0.24357 0.46478 0.0
H978 H 0.69063 0.25075 0.54587 0.0
H979 H 0.69611 0.22734 0.55702 0.0
C980 C 0.70597 0.28139 0.4733 0.0
C981 C 0.78069 0.28893 0.46941 0.0
C982 C 0.7123 0.26873 0.48598 0.0
C983 C 0.79361 0.26322 0.49518 0.0
C984 C 0.86841 0.27103 0.49323 0.0
C985 C 0.86202 0.28376 0.48063 0.0
C986 C 0.86677 0.2268 0.49199 0.0
C987 C 0.80615 0.22181 0.51736 0.0
C988 C 0.86369 0.24025 0.48561 0.0
C989 C 0.79993 0.24913 0.50443 0.0
C990 C 0.73994 0.24419 0.5303 0.0
C991 C 0.74297 0.23073 0.53664 0.0
H992 H 0.91584 0.39208 0.14861 0.0
H993 H 0.14931 0.36884 0.15452 0.0
H994 H 0.89543 0.39079 0.22761 0.0
H995 H 0.13012 0.36793 0.23368 0.0
H996 H 0.1091 0.38907 0.38908 0.0
H997 H 0.12557 0.3888 0.30885 0.0
H998 H 0.87497 0.36917 0.27312 0.0
H999 H 0.85948 0.36903 0.35355 0.0
C1000 C 0.96287 0.38676 0.16685 0.0
C1001 C 0.03425 0.38059 0.14549 0.0
C1002 C 0.95088 0.38595 0.21183 0.0
C1003 C 1.01122 0.37925 0.23657 0.0
C1004 C 0.08276 0.37315 0.2153 0.0
C1005 C 0.09356 0.37366 0.17004 0.0
C1006 C 0.05766 0.38465 0.36408 0.0
C1007 C 0.98295 0.37909 0.37749 0.0
C1008 C 0.06726 0.38446 0.31825 0.0
C1009 C 1.00141 0.37901 0.28495 0.0
C1010 C 0.92647 0.37348 0.29825 0.0
C1011 C 0.91784 0.37333 0.34411 0.0
H1012 H 0.11137 0.63014 0.14938 0.0
H1013 H 0.84839 0.64401 0.15661 0.0
H1014 H 0.12257 0.63057 0.23109 0.0
H1015 H 0.85883 0.64407 0.23836 0.0
H1016 H 0.90072 0.62278 0.36754 0.0
H1017 H 0.88579 0.62388 0.28669 0.0
H1018 H 0.11231 0.65004 0.30578 0.0
H1019 H 0.12621 0.64925 0.38644 0.0
C1020 C 0.05614 0.63333 0.16856 0.0
C1021 C 0.97916 0.6371 0.14683 0.0
C1022 C 0.06257 0.63359 0.21522 0.0
C1023 C 0.99142 0.63729 0.24091 0.0
C1024 C 0.91442 0.64111 0.21923 0.0
C1025 C 0.9087 0.64118 0.17267 0.0
C1026 C 0.947 0.6288 0.35445 0.0
C1027 C 1.01447 0.63594 0.38337 0.0
C1028 C 0.93819 0.62949 0.30833 0.0
C1029 C 0.99789 0.63705 0.29011 0.0
C1030 C 0.06552 0.64412 0.31897 0.0
C1031 C 0.07316 0.64369 0.36515 0.0
H1032 H 0.09248 0.62037 0.87489 0.0
H1033 H 0.86002 0.64379 0.86736 0.0
H1034 H 0.11647 0.62189 0.7968 0.0
H1035 H 0.88338 0.64507 0.78894 0.0
H1036 H 0.90861 0.62721 0.63361 0.0
H1037 H 0.88542 0.62717 0.71296 0.0
H1038 H 0.14875 0.64124 0.7526 0.0
H1039 H 0.17144 0.64149 0.67309 0.0
C1040 C 0.04613 0.62574 0.85645 0.0
C1041 C 0.97392 0.63186 0.87719 0.0
C1042 C 0.06034 0.62671 0.81191 0.0
C1043 C 1.0018 0.63359 0.78681 0.0
C1044 C 0.92931 0.63964 0.80742 0.0
C1045 C 0.91601 0.63891 0.85229 0.0
C1046 C 0.96132 0.63036 0.65937 0.0
C1047 C 0.04169 0.63439 0.64734 0.0
C1048 C 0.94793 0.6304 0.70473 0.0
C1049 C 1.01528 0.63418 0.73894 0.0
C1050 C 0.09582 0.63822 0.72689 0.0
C1051 C 0.10865 0.63844 0.68155 0.0
H1052 H 0.86877 0.37306 0.64772 0.0
H1053 H 0.12899 0.38893 0.65228 0.0
H1054 H 0.88779 0.37301 0.72885 0.0
H1055 H 0.14849 0.38876 0.73373 0.0
H1056 H 0.17136 0.37081 0.86624 0.0
H1057 H 0.15436 0.37086 0.78486 0.0
H1058 H 0.90937 0.39089 0.80216 0.0
H1059 H 0.92663 0.3909 0.88351 0.0
C1060 C 0.93025 0.37647 0.6661 0.0
C1061 C 0.99765 0.38093 0.6437 0.0
C1062 C 0.94092 0.37652 0.71258 0.0
C1063 C 1.01964 0.38086 0.73765 0.0
C1064 C 0.08732 0.38526 0.7152 0.0
C1065 C 0.07608 0.38543 0.66874 0.0
C1066 C 0.11364 0.37514 0.85255 0.0
C1067 C 0.04994 0.38076 0.88112 0.0
C1068 C 0.10432 0.37528 0.80608 0.0
C1069 C 0.03052 0.38087 0.78712 0.0
C1070 C 0.96664 0.38642 0.81572 0.0
C1071 C 0.97666 0.38648 0.86227 0.0
H1072 H 0.56221 0.85997 0.14308 0.0
H1073 H 0.4905 0.90229 0.16562 0.0
H1074 H 0.53837 0.85944 0.22186 0.0
H1075 H 0.47045 0.90175 0.24475 0.0
H1076 H 0.5804 0.89543 0.39231 0.0
H1077 H 0.59338 0.89567 0.31238 0.0
H1078 H 0.39003 0.86527 0.27437 0.0
H1079 H 0.37233 0.86565 0.35463 0.0
C1080 C 0.54141 0.86916 0.16464 0.0
C1081 C 0.52868 0.8812 0.14781 0.0
C1082 C 0.52761 0.86881 0.20969 0.0
C1083 C 0.50273 0.88055 0.23912 0.0
C1084 C 0.48989 0.89257 0.22258 0.0
C1085 C 0.50159 0.89286 0.17727 0.0
C1086 C 0.53792 0.88883 0.36706 0.0
C1087 C 0.47663 0.88026 0.38 0.0
C1088 C 0.54558 0.88898 0.32134 0.0
C1089 C 0.49319 0.88042 0.28745 0.0
C1090 C 0.43189 0.87184 0.30003 0.0
C1091 C 0.42263 0.87193 0.34593 0.0
H1092 H 0.63077 0.12882 0.14692 0.0
H1093 H 0.37421 0.14526 0.15734 0.0
H1094 H 0.64288 0.12899 0.22859 0.0
H1095 H 0.38548 0.14507 0.23876 0.0
H1096 H 0.41793 0.12384 0.36745 0.0
H1097 H 0.40471 0.12464 0.28635 0.0
H1098 H 0.64041 0.14868 0.30401 0.0
H1099 H 0.65259 0.14822 0.38498 0.0
C1100 C 0.57718 0.1325 0.16675 0.0
C1101 C 0.50188 0.13711 0.14596 0.0
C1102 C 0.58412 0.1326 0.21337 0.0
C1103 C 0.51495 0.13699 0.23985 0.0
C1104 C 0.43952 0.14158 0.21904 0.0
C1105 C 0.43342 0.14179 0.17263 0.0
C1106 C 0.46667 0.12932 0.35397 0.0
C1107 C 0.53606 0.136 0.38258 0.0
C1108 C 0.45891 0.12983 0.30772 0.0
C1109 C 0.5216 0.13673 0.28904 0.0
C1110 C 0.59138 0.14327 0.31755 0.0
C1111 C 0.598 0.14305 0.3639 0.0
H1112 H 0.62352 0.12152 0.87575 0.0
H1113 H 0.39932 0.14686 0.87082 0.0
H1114 H 0.64411 0.12235 0.79652 0.0
H1115 H 0.4189 0.1474 0.79151 0.0
H1116 H 0.69619 0.1421 0.67093 0.0
H1117 H 0.67823 0.142 0.75107 0.0
H1118 H 0.41283 0.12843 0.71591 0.0
H1119 H 0.4314 0.12825 0.63587 0.0
C1120 C 0.5784 0.12718 0.85767 0.0
C1121 C 0.50969 0.13409 0.87946 0.0
C1122 C 0.59055 0.12773 0.81251 0.0
C1123 C 0.53309 0.13494 0.78795 0.0
C1124 C 0.46395 0.14173 0.80961 0.0
C1125 C 0.45296 0.14145 0.85502 0.0
C1126 C 0.63403 0.13917 0.6805 0.0
C1127 C 0.5651 0.1352 0.64737 0.0
C1128 C 0.62392 0.13903 0.72617 0.0
C1129 C 0.54416 0.13519 0.73962 0.0
C1130 C 0.47487 0.13148 0.70651 0.0
C1131 C 0.48557 0.13133 0.66079 0.0
H1132 H 0.63165 0.8927 0.66094 0.0
H1133 H 0.39615 0.86859 0.6455 0.0
H1134 H 0.64607 0.89222 0.74224 0.0
H1135 H 0.40968 0.8684 0.72661 0.0
H1136 H 0.42175 0.88789 0.88305 0.0
H1137 H 0.4083 0.88782 0.80146 0.0
H1138 H 0.66688 0.87226 0.79029 0.0
H1139 H 0.67967 0.87205 0.87166 0.0
C1140 C 0.58294 0.88736 0.67494 0.0
C1141 C 0.51299 0.88066 0.6469 0.0
C1142 C 0.59139 0.88703 0.72129 0.0
C1143 C 0.52893 0.88027 0.74056 0.0
C1144 C 0.45851 0.87372 0.71261 0.0
C1145 C 0.45111 0.87378 0.66619 0.0
C1146 C 0.47536 0.88437 0.86302 0.0
C1147 C 0.55139 0.87987 0.88345 0.0
C1148 C 0.46765 0.88432 0.81647 0.0
C1149 C 0.53669 0.88008 0.78974 0.0
C1150 C 0.61294 0.87564 0.81023 0.0
C1151 C 0.6199 0.8754 0.85659 0.0
loop_
_geom_bond_atom_site_label_1
_geom_bond_atom_site_label_2
_geom_bond_distance
_geom_bond_site_symmetry_2
_ccdc_geom_bond_type
Eu0 N29 2.600 1_455 S
Eu0 N35 2.562 1_456 S
Eu0 O44 2.462 1_556 S
Eu0 O45 2.373 1_455 S
Eu0 O47 2.432 . S
Eu0 O48 2.291 1_556 S
Eu0 O52 2.334 1_556 S
Eu0 O55 2.372 . S
Eu0 C64 2.787 . S
C1 N2 1.365 . S
C1 C4 1.405 . S
C1 C8 1.448 . S
N2 C1 1.365 . S
N2 C5 1.319 . S
N2 Eu11 2.600 . S
C3 C5 1.397 . S
C3 C6 1.367 . S
C3 H23 0.931 . S
C4 C1 1.405 . S
C4 C6 1.403 . S
C4 C10 1.439 . S
C5 N2 1.319 . S
C5 C3 1.397 . S
C5 H16 0.930 . S
C6 C3 1.367 . S
C6 C4 1.403 . S
C6 H27 0.929 . S
C7 C8 1.430 . S
C7 C9 1.387 . S
C7 C13 1.404 1_554 S
C8 C1 1.448 . S
C8 C7 1.430 . S
C8 N12 1.351 . S
C9 C7 1.387 . S
C9 C10 1.374 . S
C9 H24 0.931 . S
C10 C4 1.439 . S
C10 C9 1.374 . S
C10 H25 0.931 . S
Eu11 N2 2.600 . S
Eu11 N12 2.562 . S
Eu11 O46 2.335 1_455 S
Eu11 O49 2.372 . S
Eu11 O50 2.457 1_554 S
Eu11 O51 2.373 . S
Eu11 O53 2.432 . S
Eu11 O54 2.291 1_554 S
Eu11 C75 2.787 . S
N12 C8 1.351 . S
N12 Eu11 2.562 . S
N12 C14 1.325 1_554 S
C13 C7 1.404 1_556 S
C13 C15 1.366 . S
C13 H21 0.930 . S
C14 N12 1.325 1_556 S
C14 C15 1.416 . S
C14 H20 0.929 . S
C15 C13 1.366 . S
C15 C14 1.416 . S
C15 H17 0.930 . S
H16 C5 0.930 . S
H17 C15 0.930 . S
H18 C33 0.930 . S
H19 C40 0.930 . S
H20 C14 0.929 . S
H21 C13 0.930 . S
H22 C36 0.929 . S
H23 C3 0.931 . S
H24 C9 0.931 . S
H25 C10 0.931 . S
H26 C31 0.931 . S
H27 C6 0.929 . S
H28 C39 0.930 . S
N29 Eu0 2.600 1_655 S
N29 C30 1.365 . S
N29 C33 1.319 . S
C30 N29 1.365 . S
C30 C32 1.405 . S
C30 C38 1.448 . S
C31 H26 0.931 . S
C31 C33 1.397 . S
C31 C34 1.367 . S
C32 C30 1.405 . S
C32 C34 1.403 . S
C32 C65 1.439 . S
C33 H18 0.930 . S
C33 N29 1.319 . S
C33 C31 1.397 . S
C34 C31 1.367 . S
C34 C32 1.403 . S
C34 H41 0.929 . S
N35 Eu0 2.562 1_654 S
N35 C36 1.325 . S
N35 C38 1.351 1_554 S
C36 H22 0.929 . S
C36 N35 1.325 . S
C36 C40 1.416 . S
C37 C38 1.430 . S
C37 C39 1.404 1_556 S
C37 C66 1.387 . S
C38 C30 1.448 . S
C38 N35 1.351 1_556 S
C38 C37 1.430 . S
C39 H28 0.930 . S
C39 C37 1.404 1_554 S
C39 C40 1.366 . S
C40 H19 0.930 . S
C40 C36 1.416 . S
C40 C39 1.366 . S
H41 C34 0.929 . S
H42 C65 0.931 . S
H43 C66 0.931 . S
O44 Eu0 2.462 1_554 S
O44 C64 1.252 1_554 S
O45 Eu0 2.373 1_655 S
O45 C56 1.249 1_556 S
O46 Eu11 2.335 1_655 S
O46 C56 1.264 . S
O47 Eu0 2.432 . S
O47 C64 1.268 . S
O48 Eu0 2.291 1_554 S
O48 C63 1.255 . S
O49 Eu11 2.372 . S
O49 C63 1.257 . S
O50 Eu11 2.457 1_556 S
O50 C75 1.246 1_556 S
O51 Eu11 2.373 . S
O51 C67 1.249 . S
O52 Eu0 2.334 1_554 S
O52 C67 1.267 . S
O53 Eu11 2.432 . S
O53 C75 1.268 . S
O54 Eu11 2.291 1_556 S
O54 C74 1.255 . S
O55 Eu0 2.372 . S
O55 C74 1.257 . S
C56 O45 1.249 1_554 S
C56 O46 1.264 . S
C57 C60 1.382 . S
C57 C62 1.390 1_556 S
C57 C64 1.506 . S
C58 C59 1.398 1_554 S
C58 C62 1.392 . S
C59 C58 1.398 1_556 S
C59 C61 1.372 . S
C59 H76 0.931 . S
C60 C57 1.382 . S
C60 C61 1.390 . S
C60 H77 0.931 . S
C61 C59 1.372 . S
C61 C60 1.390 . S
C61 H78 0.929 . S
C62 C57 1.390 1_554 S
C62 C58 1.392 . S
C62 H79 0.930 . S
C63 O48 1.255 . S
C63 O49 1.257 . S
C64 Eu0 2.787 . S
C64 O44 1.252 1_556 S
C64 O47 1.268 . S
C64 C57 1.506 . S
C65 C32 1.439 . S
C65 H42 0.931 . S
C65 C66 1.374 . S
C66 C37 1.387 . S
C66 H43 0.931 . S
C66 C65 1.374 . S
C67 O51 1.249 . S
C67 O52 1.267 . S
C68 C71 1.382 . S
C68 C72 1.390 1_554 S
C68 C75 1.506 1_655 S
C69 C70 1.398 1_556 S
C69 C72 1.392 . S
C70 C69 1.398 1_554 S
C70 C73 1.372 . S
C70 H80 0.931 . S
C71 C68 1.382 . S
C71 C73 1.390 . S
C71 H81 0.931 . S
C72 C68 1.390 1_556 S
C72 C69 1.392 . S
C72 H82 0.930 . S
C73 C70 1.372 . S
C73 C71 1.390 . S
C73 H83 0.929 . S
C74 O54 1.255 . S
C74 O55 1.257 . S
C75 Eu11 2.787 . S
C75 O50 1.246 1_554 S
C75 O53 1.268 . S
C75 C68 1.506 1_455 S
H76 C59 0.931 . S
H77 C60 0.931 . S
H78 C61 0.929 . S
H79 C62 0.930 . S
H80 C70 0.931 . S
H81 C71 0.931 . S
H82 C72 0.930 . S
H83 C73 0.929 . S
Eu84 N113 2.600 1_654 S
Eu84 N119 2.562 1_655 S
Eu84 O128 2.462 . S
Eu84 O129 2.373 1_655 S
Eu84 O131 2.432 1_554 S
Eu84 O132 2.291 . S
Eu84 O136 2.335 . S
Eu84 O139 2.372 1_554 S
Eu84 C148 2.787 . S
C85 N86 1.365 . S
C85 C88 1.405 . S
C85 C92 1.448 . S
N86 C85 1.365 . S
N86 C89 1.319 . S
N86 Eu95 2.600 . S
C87 C89 1.397 . S
C87 C90 1.367 . S
C87 H107 0.931 . S
C88 C85 1.405 . S
C88 C90 1.403 . S
C88 C94 1.439 . S
C89 N86 1.319 . S
C89 C87 1.397 . S
C89 H100 0.930 . S
C90 C87 1.367 . S
C90 C88 1.403 . S
C90 H111 0.929 . S
C91 C92 1.430 1_556 S
C91 C93 1.387 1_556 S
C91 C97 1.404 . S
C92 C85 1.448 . S
C92 C91 1.430 1_554 S
C92 N96 1.351 1_554 S
C93 C91 1.387 1_554 S
C93 C94 1.374 . S
C93 H108 0.930 . S
C94 C88 1.439 . S
C94 C93 1.374 . S
C94 H109 0.931 . S
Eu95 N86 2.600 . S
Eu95 N96 2.562 1_554 S
Eu95 O130 2.335 1_655 S
Eu95 O133 2.372 . S
Eu95 O134 2.462 1_554 S
Eu95 O135 2.373 . S
Eu95 O137 2.432 . S
Eu95 O138 2.291 1_554 S
Eu95 C159 2.787 . S
N96 C92 1.351 1_556 S
N96 Eu95 2.562 1_556 S
N96 C98 1.325 . S
C97 C91 1.404 . S
C97 C99 1.366 . S
C97 H105 0.930 . S
C98 N96 1.325 . S
C98 C99 1.416 . S
C98 H104 0.929 . S
C99 C97 1.366 . S
C99 C98 1.416 . S
C99 H101 0.930 . S
H100 C89 0.930 . S
H101 C99 0.930 . S
H102 C117 0.930 1_655 S
H103 C124 0.930 . S
H104 C98 0.929 . S
H105 C97 0.930 . S
H106 C120 0.929 . S
H107 C87 0.931 . S
H108 C93 0.930 . S
H109 C94 0.931 . S
H110 C115 0.931 . S
H111 C90 0.929 . S
H112 C123 0.930 . S
N113 Eu84 2.600 1_456 S
N113 C114 1.365 . S
N113 C117 1.319 . S
C114 N113 1.365 . S
C114 C116 1.405 . S
C114 C122 1.448 1_556 S
C115 H110 0.931 . S
C115 C117 1.397 . S
C115 C118 1.367 . S
C116 C114 1.405 . S
C116 C118 1.403 . S
C116 C149 1.439 . S
C117 H102 0.930 1_455 S
C117 N113 1.319 . S
C117 C115 1.397 . S
C118 C115 1.367 . S
C118 C116 1.403 . S
C118 H125 0.929 . S
N119 Eu84 2.562 1_455 S
N119 C120 1.325 . S
N119 C122 1.351 . S
C120 H106 0.929 . S
C120 N119 1.325 . S
C120 C124 1.416 . S
C121 C122 1.430 . S
C121 C123 1.404 . S
C121 C150 1.387 . S
C122 C114 1.448 1_554 S
C122 N119 1.351 . S
C122 C121 1.430 . S
C123 H112 0.930 . S
C123 C121 1.404 . S
C123 C124 1.366 . S
C124 H103 0.930 . S
C124 C120 1.416 . S
C124 C123 1.366 . S
H125 C118 0.929 . S
H126 C149 0.931 . S
H127 C150 0.931 . S
O128 Eu84 2.462 . S
O128 C148 1.252 . S
O129 Eu84 2.373 1_455 S
O129 C140 1.257 . S
O130 Eu95 2.335 1_455 S
O130 C140 1.264 . S
O131 Eu84 2.432 1_556 S
O131 C148 1.268 1_556 S
O132 Eu84 2.291 . S
O132 C147 1.255 . S
O133 Eu95 2.372 . S
O133 C147 1.257 . S
O134 Eu95 2.462 1_556 S
O134 C159 1.252 1_556 S
O135 Eu95 2.373 . S
O135 C151 1.249 . S
O136 Eu84 2.335 . S
O136 C151 1.264 . S
O137 Eu95 2.432 . S
O137 C159 1.268 . S
O138 Eu95 2.291 1_556 S
O138 C158 1.255 . S
O139 Eu84 2.372 1_556 S
O139 C158 1.257 . S
C140 O129 1.257 . S
C140 O130 1.264 . S
C141 C144 1.382 1_554 S
C141 C146 1.390 . S
C141 C148 1.506 . S
C142 C143 1.398 . S
C142 C146 1.392 . S
C143 C142 1.398 . S
C143 C145 1.381 . S
C143 H160 0.931 . S
C144 C141 1.382 1_556 S
C144 C145 1.390 1_556 S
C144 H161 0.931 . S
C145 C143 1.381 . S
C145 C144 1.390 1_554 S
C145 H162 0.920 1_554 S
C146 C141 1.390 . S
C146 C142 1.392 . S
C146 H163 0.930 . S
C147 O132 1.255 . S
C147 O133 1.257 . S
C148 Eu84 2.787 . S
C148 O128 1.252 . S
C148 O131 1.268 1_554 S
C148 C141 1.506 . S
C149 C116 1.439 . S
C149 H126 0.931 . S
C149 C150 1.374 1_556 S
C150 C121 1.387 . S
C150 H127 0.931 . S
C150 C149 1.374 1_554 S
C151 O135 1.249 . S
C151 O136 1.264 . S
C152 C155 1.382 1_556 S
C152 C156 1.390 . S
C152 C159 1.506 1_456 S
C153 C154 1.398 . S
C153 C156 1.392 . S
C154 C153 1.398 . S
C154 C157 1.372 1_556 S
C154 H164 0.931 . S
C155 C152 1.382 1_554 S
C155 C157 1.390 . S
C155 H165 0.931 . S
C156 C152 1.390 . S
C156 C153 1.392 . S
C156 H166 0.930 . S
C157 C154 1.372 1_554 S
C157 C155 1.390 . S
C157 H167 0.929 . S
C158 O138 1.255 . S
C158 O139 1.257 . S
C159 Eu95 2.787 . S
C159 O134 1.252 1_554 S
C159 O137 1.268 . S
C159 C152 1.506 1_654 S
H160 C143 0.931 . S
H161 C144 0.931 . S
H162 C145 0.920 1_556 S
H163 C146 0.930 . S
H164 C154 0.931 . S
H165 C155 0.931 . S
H166 C156 0.930 . S
H167 C157 0.929 . S
Eu168 N197 2.600 1_455 S
Eu168 N203 2.562 1_455 S
Eu168 O212 2.462 . S
Eu168 O213 2.373 1_455 S
Eu168 O215 2.432 . S
Eu168 O216 2.291 . S
Eu168 O220 2.335 . S
Eu168 O223 2.372 . S
Eu168 C232 2.787 . S
C169 N170 1.365 . S
C169 C172 1.405 . S
C169 C176 1.448 . S
N170 C169 1.365 . S
N170 C173 1.319 . S
N170 Eu179 2.600 . S
C171 C173 1.397 . S
C171 C174 1.367 . S
C171 H191 0.931 . S
C172 C169 1.405 . S
C172 C174 1.403 . S
C172 C178 1.439 . S
C173 N170 1.319 . S
C173 C171 1.397 . S
C173 H184 0.930 . S
C174 C171 1.367 . S
C174 C172 1.403 . S
C174 H195 0.929 . S
C175 C176 1.430 . S
C175 C177 1.387 . S
C175 C181 1.404 . S
C176 C169 1.448 . S
C176 C175 1.430 . S
C176 N180 1.351 . S
C177 C175 1.387 . S
C177 C178 1.374 . S
C177 H192 0.931 . S
C178 C172 1.439 . S
C178 C177 1.374 . S
C178 H193 0.931 . S
Eu179 N170 2.600 . S
Eu179 N180 2.562 . S
Eu179 O214 2.335 1_455 S
Eu179 O217 2.372 . S
Eu179 O218 2.462 . S
Eu179 O219 2.373 . S
Eu179 O221 2.432 . S
Eu179 O222 2.291 . S
Eu179 C243 2.787 1_455 S
N180 C176 1.351 . S
N180 Eu179 2.562 . S
N180 C182 1.325 . S
C181 C175 1.404 . S
C181 C183 1.366 . S
C181 H189 0.930 . S
C182 N180 1.325 . S
C182 C183 1.416 . S
C182 H188 0.929 . S
C183 C181 1.366 . S
C183 C182 1.416 . S
C183 H185 0.930 . S
H184 C173 0.930 . S
H185 C183 0.930 . S
H186 C201 0.930 1_455 S
H187 C208 0.930 . S
H188 C182 0.929 . S
H189 C181 0.930 . S
H190 C204 0.929 . S
H191 C171 0.931 . S
H192 C177 0.931 . S
H193 C178 0.931 . S
H194 C199 0.931 . S
H195 C174 0.929 . S
H196 C207 0.930 . S
N197 Eu168 2.600 1_655 S
N197 C198 1.365 . S
N197 C201 1.319 . S
C198 N197 1.365 . S
C198 C200 1.405 . S
C198 C206 1.448 . S
C199 H194 0.931 . S
C199 C201 1.397 . S
C199 C202 1.367 . S
C200 C198 1.405 . S
C200 C202 1.403 . S
C200 C233 1.439 . S
C201 H186 0.930 1_655 S
C201 N197 1.319 . S
C201 C199 1.397 . S
C202 C199 1.367 . S
C202 C200 1.403 . S
C202 H209 0.929 . S
N203 Eu168 2.562 1_655 S
N203 C204 1.325 . S
N203 C206 1.351 . S
C204 H190 0.929 . S
C204 N203 1.325 . S
C204 C208 1.416 . S
C205 C206 1.430 . S
C205 C207 1.404 . S
C205 C234 1.387 . S
C206 C198 1.448 . S
C206 N203 1.351 . S
C206 C205 1.430 . S
C207 H196 0.930 . S
C207 C205 1.404 . S
C207 C208 1.366 . S
C208 H187 0.930 . S
C208 C204 1.416 . S
C208 C207 1.366 . S
H209 C202 0.929 . S
H210 C233 0.931 . S
H211 C234 0.931 . S
O212 Eu168 2.462 . S
O212 C232 1.252 . S
O213 Eu168 2.373 1_655 S
O213 C224 1.249 . S
O214 Eu179 2.335 1_655 S
O214 C224 1.264 . S
O215 Eu168 2.432 . S
O215 C232 1.268 . S
O216 Eu168 2.291 . S
O216 C231 1.255 . S
O217 Eu179 2.372 . S
O217 C231 1.257 . S
O218 Eu179 2.462 . S
O218 C243 1.252 1_455 S
O219 Eu179 2.373 . S
O219 C235 1.249 . S
O220 Eu168 2.335 . S
O220 C235 1.264 . S
O221 Eu179 2.432 . S
O221 C243 1.268 1_455 S
O222 Eu179 2.291 . S
O222 C242 1.255 . S
O223 Eu168 2.372 . S
O223 C242 1.257 . S
C224 O213 1.249 . S
C224 O214 1.264 . S
C225 C228 1.382 . S
C225 C230 1.390 . S
C225 C232 1.506 . S
C226 C227 1.398 . S
C226 C230 1.392 . S
C227 C226 1.398 . S
C227 C229 1.372 . S
C227 H244 0.931 . S
C228 C225 1.382 . S
C228 C229 1.390 . S
C228 H245 0.931 . S
C229 C227 1.372 . S
C229 C228 1.390 . S
C229 H246 0.929 . S
C230 C225 1.390 . S
C230 C226 1.392 . S
C230 H247 0.930 . S
C231 O216 1.255 . S
C231 O217 1.257 . S
C232 Eu168 2.787 . S
C232 O212 1.252 . S
C232 O215 1.268 . S
C232 C225 1.506 . S
C233 C200 1.439 . S
C233 H210 0.931 . S
C233 C234 1.374 . S
C234 C205 1.387 . S
C234 H211 0.931 . S
C234 C233 1.374 . S
C235 O219 1.249 . S
C235 O220 1.264 . S
C236 C239 1.382 . S
C236 C240 1.390 . S
C236 C243 1.506 . S
C237 C238 1.398 . S
C237 C240 1.392 . S
C238 C237 1.398 . S
C238 C241 1.372 . S
C238 H248 0.931 . S
C239 C236 1.382 . S
C239 C241 1.390 . S
C239 H249 0.931 . S
C240 C236 1.390 . S
C240 C237 1.392 . S
C240 H250 0.930 . S
C241 C238 1.372 . S
C241 C239 1.390 . S
C241 H251 0.929 . S
C242 O222 1.255 . S
C242 O223 1.257 . S
C243 Eu179 2.787 1_655 S
C243 O218 1.252 1_655 S
C243 O221 1.268 1_655 S
C243 C236 1.506 . S
H244 C227 0.931 . S
H245 C228 0.931 . S
H246 C229 0.929 . S
H247 C230 0.930 . S
H248 C238 0.931 . S
H249 C239 0.931 . S
H250 C240 0.930 . S
H251 C241 0.929 . S
Eu252 N281 2.600 . S
Eu252 N287 2.562 . S
Eu252 O296 2.462 . S
Eu252 O297 2.373 . S
Eu252 O299 2.432 . S
Eu252 O300 2.291 . S
Eu252 O304 2.335 1_655 S
Eu252 O307 2.372 . S
Eu252 C316 2.787 1_655 S
C253 N254 1.365 . S
C253 C256 1.405 . S
C253 C260 1.448 . S
N254 C253 1.365 . S
N254 C257 1.319 . S
N254 Eu263 2.600 1_455 S
C255 C257 1.397 . S
C255 C258 1.367 . S
C255 H275 0.931 . S
C256 C253 1.405 . S
C256 C258 1.403 . S
C256 C262 1.439 . S
C257 N254 1.319 . S
C257 C255 1.397 . S
C257 H268 0.930 1_455 S
C258 C255 1.367 . S
C258 C256 1.403 . S
C258 H279 0.929 . S
C259 C260 1.430 . S
C259 C261 1.387 . S
C259 C265 1.404 . S
C260 C253 1.448 . S
C260 C259 1.430 . S
C260 N264 1.351 . S
C261 C259 1.387 . S
C261 C262 1.374 . S
C261 H276 0.931 . S
C262 C256 1.439 . S
C262 C261 1.374 . S
C262 H277 0.931 . S
Eu263 N254 2.600 1_655 S
Eu263 N264 2.562 1_655 S
Eu263 O298 2.335 . S
Eu263 O301 2.372 . S
Eu263 O302 2.462 . S
Eu263 O303 2.373 1_655 S
Eu263 O305 2.432 . S
Eu263 O306 2.291 . S
Eu263 C327 2.787 . S
N264 C260 1.351 . S
N264 Eu263 2.562 1_455 S
N264 C266 1.325 . S
C265 C259 1.404 . S
C265 C267 1.366 . S
C265 H273 0.930 . S
C266 N264 1.325 . S
C266 C267 1.416 . S
C266 H272 0.929 . S
C267 C265 1.366 . S
C267 C266 1.416 . S
C267 H269 0.930 . S
H268 C257 0.930 1_655 S
H269 C267 0.930 . S
H270 C285 0.930 . S
H271 C292 0.930 . S
H272 C266 0.929 . S
H273 C265 0.930 . S
H274 C288 0.929 . S
H275 C255 0.931 . S
H276 C261 0.931 . S
H277 C262 0.931 . S
H278 C283 0.931 . S
H279 C258 0.929 . S
H280 C291 0.930 . S
N281 Eu252 2.600 . S
N281 C282 1.365 . S
N281 C285 1.319 . S
C282 N281 1.365 . S
C282 C284 1.405 . S
C282 C290 1.448 . S
C283 H278 0.931 . S
C283 C285 1.397 . S
C283 C286 1.367 . S
C284 C282 1.405 . S
C284 C286 1.403 . S
C284 C317 1.439 . S
C285 H270 0.930 . S
C285 N281 1.319 . S
C285 C283 1.397 . S
C286 C283 1.367 . S
C286 C284 1.403 . S
C286 H293 0.929 . S
N287 Eu252 2.562 . S
N287 C288 1.325 . S
N287 C290 1.351 . S
C288 H274 0.929 . S
C288 N287 1.325 . S
C288 C292 1.416 . S
C289 C290 1.430 . S
C289 C291 1.404 . S
C289 C318 1.387 . S
C290 C282 1.448 . S
C290 N287 1.351 . S
C290 C289 1.430 . S
C291 H280 0.930 . S
C291 C289 1.404 . S
C291 C292 1.366 . S
C292 H271 0.930 . S
C292 C288 1.416 . S
C292 C291 1.366 . S
H293 C286 0.929 . S
H294 C317 0.931 . S
H295 C318 0.931 . S
O296 Eu252 2.462 . S
O296 C316 1.252 1_655 S
O297 Eu252 2.373 . S
O297 C308 1.249 . S
O298 Eu263 2.335 . S
O298 C308 1.264 . S
O299 Eu252 2.432 . S
O299 C316 1.268 1_655 S
O300 Eu252 2.291 . S
O300 C315 1.255 . S
O301 Eu263 2.372 . S
O301 C315 1.257 . S
O302 Eu263 2.462 . S
O302 C327 1.252 . S
O303 Eu263 2.373 1_455 S
O303 C319 1.249 . S
O304 Eu252 2.335 1_455 S
O304 C319 1.264 . S
O305 Eu263 2.432 . S
O305 C327 1.268 . S
O306 Eu263 2.291 . S
O306 C326 1.255 . S
O307 Eu252 2.372 . S
O307 C326 1.257 . S
C308 O297 1.249 . S
C308 O298 1.264 . S
C309 C312 1.382 . S
C309 C314 1.390 . S
C309 C316 1.506 . S
C310 C311 1.398 . S
C310 C314 1.392 . S
C311 C310 1.398 . S
C311 C313 1.372 . S
C311 H328 0.931 . S
C312 C309 1.382 . S
C312 C313 1.390 . S
C312 H329 0.931 . S
C313 C311 1.372 . S
C313 C312 1.390 . S
C313 H330 0.929 . S
C314 C309 1.390 . S
C314 C310 1.392 . S
C314 H331 0.930 . S
C315 O300 1.255 . S
C315 O301 1.257 . S
C316 Eu252 2.787 1_455 S
C316 O296 1.252 1_455 S
C316 O299 1.268 1_455 S
C316 C309 1.506 . S
C317 C284 1.439 . S
C317 H294 0.931 . S
C317 C318 1.374 . S
C318 C289 1.387 . S
C318 H295 0.931 . S
C318 C317 1.374 . S
C319 O303 1.249 . S
C319 O304 1.264 . S
C320 C323 1.382 . S
C320 C324 1.390 . S
C320 C327 1.506 . S
C321 C322 1.398 . S
C321 C324 1.392 . S
C322 C321 1.398 . S
C322 C325 1.372 . S
C322 H332 0.931 . S
C323 C320 1.382 . S
C323 C325 1.390 . S
C323 H333 0.931 . S
C324 C320 1.390 . S
C324 C321 1.392 . S
C324 H334 0.930 . S
C325 C322 1.372 . S
C325 C323 1.390 . S
C325 H335 0.929 . S
C326 O306 1.255 . S
C326 O307 1.257 . S
C327 Eu263 2.787 . S
C327 O302 1.252 . S
C327 O305 1.268 . S
C327 C320 1.506 . S
H328 C311 0.931 . S
H329 C312 0.931 . S
H330 C313 0.929 . S
H331 C314 0.930 . S
H332 C322 0.931 . S
H333 C323 0.931 . S
H334 C324 0.930 . S
H335 C325 0.929 . S
Eu336 N365 2.600 . S
Eu336 N371 2.562 1_556 S
Eu336 O380 2.462 1_556 S
Eu336 O381 2.373 . S
Eu336 O383 2.432 . S
Eu336 O384 2.291 1_556 S
Eu336 O388 2.334 1_556 S
Eu336 O391 2.372 . S
Eu336 C400 2.787 . S
C337 N338 1.365 . S
C337 C340 1.405 . S
C337 C344 1.448 . S
N338 C337 1.365 . S
N338 C341 1.319 . S
N338 Eu347 2.600 . S
C339 C341 1.397 . S
C339 C342 1.367 . S
C339 H359 0.931 . S
C340 C337 1.405 . S
C340 C342 1.403 . S
C340 C346 1.439 . S
C341 N338 1.319 . S
C341 C339 1.397 . S
C341 H352 0.930 . S
C342 C339 1.367 . S
C342 C340 1.403 . S
C342 H363 0.929 . S
C343 C344 1.430 . S
C343 C345 1.387 . S
C343 C349 1.404 1_554 S
C344 C337 1.448 . S
C344 C343 1.430 . S
C344 N348 1.351 . S
C345 C343 1.387 . S
C345 C346 1.374 . S
C345 H360 0.931 . S
C346 C340 1.439 . S
C346 C345 1.374 . S
C346 H361 0.931 . S
Eu347 N338 2.600 . S
Eu347 N348 2.562 . S
Eu347 O382 2.335 . S
Eu347 O385 2.372 . S
Eu347 O386 2.456 1_554 S
Eu347 O387 2.373 . S
Eu347 O389 2.432 . S
Eu347 O390 2.291 1_554 S
Eu347 C411 2.787 . S
N348 C344 1.351 . S
N348 Eu347 2.562 . S
N348 C350 1.325 1_554 S
C349 C343 1.404 1_556 S
C349 C351 1.366 . S
C349 H357 0.930 . S
C350 N348 1.325 1_556 S
C350 C351 1.416 . S
C350 H356 0.929 . S
C351 C349 1.366 . S
C351 C350 1.416 . S
C351 H353 0.930 . S
H352 C341 0.930 . S
H353 C351 0.930 . S
H354 C369 0.930 . S
H355 C376 0.930 . S
H356 C350 0.929 . S
H357 C349 0.930 . S
H358 C372 0.929 . S
H359 C339 0.931 . S
H360 C345 0.931 . S
H361 C346 0.931 . S
H362 C367 0.931 . S
H363 C342 0.929 . S
H364 C375 0.930 . S
N365 Eu336 2.600 . S
N365 C366 1.365 . S
N365 C369 1.319 . S
C366 N365 1.365 . S
C366 C368 1.405 . S
C366 C374 1.448 . S
C367 H362 0.931 . S
C367 C369 1.397 . S
C367 C370 1.367 . S
C368 C366 1.405 . S
C368 C370 1.403 . S
C368 C401 1.439 . S
C369 H354 0.930 . S
C369 N365 1.319 . S
C369 C367 1.397 . S
C370 C367 1.367 . S
C370 C368 1.403 . S
C370 H377 0.929 . S
N371 Eu336 2.562 1_554 S
N371 C372 1.325 . S
N371 C374 1.351 1_554 S
C372 H358 0.929 . S
C372 N371 1.325 . S
C372 C376 1.416 . S
C373 C374 1.430 . S
C373 C375 1.404 1_556 S
C373 C402 1.387 . S
C374 C366 1.448 . S
C374 N371 1.351 1_556 S
C374 C373 1.430 . S
C375 H364 0.930 . S
C375 C373 1.404 1_554 S
C375 C376 1.366 . S
C376 H355 0.930 . S
C376 C372 1.416 . S
C376 C375 1.366 . S
H377 C370 0.929 . S
H378 C401 0.931 . S
H379 C402 0.931 . S
O380 Eu336 2.462 1_554 S
O380 C400 1.252 1_554 S
O381 Eu336 2.373 . S
O381 C392 1.249 1_556 S
O382 Eu347 2.335 . S
O382 C392 1.264 . S
O383 Eu336 2.432 . S
O383 C400 1.268 . S
O384 Eu336 2.291 1_554 S
O384 C399 1.255 . S
O385 Eu347 2.372 . S
O385 C399 1.257 . S
O386 Eu347 2.456 1_556 S
O386 C411 1.245 1_556 S
O387 Eu347 2.373 . S
O387 C403 1.249 . S
O388 Eu336 2.334 1_554 S
O388 C403 1.266 . S
O389 Eu347 2.432 . S
O389 C411 1.268 . S
O390 Eu347 2.291 1_556 S
O390 C410 1.255 . S
O391 Eu336 2.372 . S
O391 C410 1.257 . S
C392 O381 1.249 1_554 S
C392 O382 1.264 . S
C393 C396 1.382 . S
C393 C398 1.390 1_556 S
C393 C400 1.506 . S
C394 C395 1.398 1_554 S
C394 C398 1.392 . S
C395 C394 1.398 1_556 S
C395 C397 1.372 . S
C395 H412 0.931 . S
C396 C393 1.382 . S
C396 C397 1.390 . S
C396 H413 0.931 . S
C397 C395 1.372 . S
C397 C396 1.390 . S
C397 H414 0.929 . S
C398 C393 1.390 1_554 S
C398 C394 1.392 . S
C398 H415 0.930 . S
C399 O384 1.255 . S
C399 O385 1.257 . S
C400 Eu336 2.787 . S
C400 O380 1.252 1_556 S
C400 O383 1.268 . S
C400 C393 1.506 . S
C401 C368 1.439 . S
C401 H378 0.931 . S
C401 C402 1.374 . S
C402 C373 1.387 . S
C402 H379 0.931 . S
C402 C401 1.374 . S
C403 O387 1.249 . S
C403 O388 1.266 . S
C404 C407 1.382 . S
C404 C408 1.390 1_554 S
C404 C411 1.506 . S
C405 C406 1.398 1_556 S
C405 C408 1.392 . S
C406 C405 1.398 1_554 S
C406 C409 1.372 . S
C406 H416 0.931 . S
C407 C404 1.382 . S
C407 C409 1.390 . S
C407 H417 0.931 . S
C408 C404 1.390 1_556 S
C408 C405 1.392 . S
C408 H418 0.930 . S
C409 C406 1.372 . S
C409 C407 1.390 . S
C409 H419 0.929 . S
C410 O390 1.255 . S
C410 O391 1.257 . S
C411 Eu347 2.787 . S
C411 O386 1.245 1_554 S
C411 O389 1.268 . S
C411 C404 1.506 . S
H412 C395 0.931 . S
H413 C396 0.931 . S
H414 C397 0.929 . S
H415 C398 0.930 . S
H416 C406 0.931 . S
H417 C407 0.931 . S
H418 C408 0.930 . S
H419 C409 0.929 . S
Eu420 N449 2.600 1_554 S
Eu420 N455 2.562 . S
Eu420 O464 2.462 . S
Eu420 O465 2.373 . S
Eu420 O467 2.432 1_554 S
Eu420 O468 2.291 . S
Eu420 O472 2.335 . S
Eu420 O475 2.372 1_554 S
Eu420 C484 2.787 . S
C421 N422 1.365 . S
C421 C424 1.405 . S
C421 C428 1.448 . S
N422 C421 1.365 . S
N422 C425 1.319 . S
N422 Eu431 2.600 . S
C423 C425 1.397 . S
C423 C426 1.367 . S
C423 H443 0.931 . S
C424 C421 1.405 . S
C424 C426 1.403 . S
C424 C430 1.439 . S
C425 N422 1.319 . S
C425 C423 1.397 . S
C425 H436 0.930 . S
C426 C423 1.367 . S
C426 C424 1.403 . S
C426 H447 0.929 . S
C427 C428 1.430 1_556 S
C427 C429 1.387 1_556 S
C427 C433 1.404 . S
C428 C421 1.448 . S
C428 C427 1.430 1_554 S
C428 N432 1.351 1_554 S
C429 C427 1.387 1_554 S
C429 C430 1.374 . S
C429 H444 0.930 . S
C430 C424 1.439 . S
C430 C429 1.374 . S
C430 H445 0.931 . S
Eu431 N422 2.600 . S
Eu431 N432 2.562 1_554 S
Eu431 O466 2.335 . S
Eu431 O469 2.372 . S
Eu431 O470 2.462 1_554 S
Eu431 O471 2.373 . S
Eu431 O473 2.432 . S
Eu431 O474 2.291 1_554 S
Eu431 C495 2.787 . S
N432 C428 1.351 1_556 S
N432 Eu431 2.562 1_556 S
N432 C434 1.325 . S
C433 C427 1.404 . S
C433 C435 1.366 . S
C433 H441 0.930 . S
C434 N432 1.325 . S
C434 C435 1.416 . S
C434 H440 0.929 . S
C435 C433 1.366 . S
C435 C434 1.416 . S
C435 H437 0.930 . S
H436 C425 0.930 . S
H437 C435 0.930 . S
H438 C453 0.930 . S
H439 C460 0.930 . S
H440 C434 0.929 . S
H441 C433 0.930 . S
H442 C456 0.929 . S
H443 C423 0.931 . S
H444 C429 0.930 . S
H445 C430 0.931 . S
H446 C451 0.931 . S
H447 C426 0.929 . S
H448 C459 0.930 . S
N449 Eu420 2.600 1_556 S
N449 C450 1.365 . S
N449 C453 1.319 . S
C450 N449 1.365 . S
C450 C452 1.405 . S
C450 C458 1.448 1_556 S
C451 H446 0.931 . S
C451 C453 1.397 . S
C451 C454 1.367 . S
C452 C450 1.405 . S
C452 C454 1.403 . S
C452 C485 1.439 . S
C453 H438 0.930 . S
C453 N449 1.319 . S
C453 C451 1.397 . S
C454 C451 1.367 . S
C454 C452 1.403 . S
C454 H461 0.929 . S
N455 Eu420 2.562 . S
N455 C456 1.325 . S
N455 C458 1.351 . S
C456 H442 0.929 . S
C456 N455 1.325 . S
C456 C460 1.416 . S
C457 C458 1.430 . S
C457 C459 1.404 . S
C457 C486 1.387 . S
C458 C450 1.448 1_554 S
C458 N455 1.351 . S
C458 C457 1.430 . S
C459 H448 0.930 . S
C459 C457 1.404 . S
C459 C460 1.366 . S
C460 H439 0.930 . S
C460 C456 1.416 . S
C460 C459 1.366 . S
H461 C454 0.929 . S
H462 C485 0.931 . S
H463 C486 0.931 . S
O464 Eu420 2.462 . S
O464 C484 1.252 . S
O465 Eu420 2.373 . S
O465 C476 1.258 . S
O466 Eu431 2.335 . S
O466 C476 1.264 . S
O467 Eu420 2.432 1_556 S
O467 C484 1.268 1_556 S
O468 Eu420 2.291 . S
O468 C483 1.255 . S
O469 Eu431 2.372 . S
O469 C483 1.257 . S
O470 Eu431 2.462 1_556 S
O470 C495 1.252 1_556 S
O471 Eu431 2.373 . S
O471 C487 1.249 . S
O472 Eu420 2.335 . S
O472 C487 1.264 . S
O473 Eu431 2.432 . S
O473 C495 1.268 . S
O474 Eu431 2.291 1_556 S
O474 C494 1.255 . S
O475 Eu420 2.372 1_556 S
O475 C494 1.257 . S
C476 O465 1.258 . S
C476 O466 1.264 . S
C477 C480 1.382 1_554 S
C477 C482 1.390 . S
C477 C484 1.506 . S
C478 C479 1.398 . S
C478 C482 1.392 . S
C479 C478 1.398 . S
C479 C481 1.383 . S
C479 H496 0.931 . S
C480 C477 1.382 1_556 S
C480 C481 1.390 1_556 S
C480 H497 0.931 . S
C481 C479 1.383 . S
C481 C480 1.390 1_554 S
C481 H498 0.918 1_554 S
C482 C477 1.390 . S
C482 C478 1.392 . S
C482 H499 0.930 . S
C483 O468 1.255 . S
C483 O469 1.257 . S
C484 Eu420 2.787 . S
C484 O464 1.252 . S
C484 O467 1.268 1_554 S
C484 C477 1.506 . S
C485 C452 1.439 . S
C485 H462 0.931 . S
C485 C486 1.374 1_556 S
C486 C457 1.387 . S
C486 H463 0.931 . S
C486 C485 1.374 1_554 S
C487 O471 1.249 . S
C487 O472 1.264 . S
C488 C491 1.382 1_556 S
C488 C492 1.390 . S
C488 C495 1.506 1_556 S
C489 C490 1.398 . S
C489 C492 1.392 . S
C490 C489 1.398 . S
C490 C493 1.372 1_556 S
C490 H500 0.931 . S
C491 C488 1.382 1_554 S
C491 C493 1.390 . S
C491 H501 0.931 . S
C492 C488 1.390 . S
C492 C489 1.392 . S
C492 H502 0.930 . S
C493 C490 1.372 1_554 S
C493 C491 1.390 . S
C493 H503 0.929 . S
C494 O474 1.255 . S
C494 O475 1.257 . S
C495 Eu431 2.787 . S
C495 O470 1.252 1_554 S
C495 O473 1.268 . S
C495 C488 1.506 1_554 S
H496 C479 0.931 . S
H497 C480 0.931 . S
H498 C481 0.918 1_556 S
H499 C482 0.930 . S
H500 C490 0.931 . S
H501 C491 0.931 . S
H502 C492 0.930 . S
H503 C493 0.929 . S
Eu504 N533 2.600 . S
Eu504 N539 2.562 . S
Eu504 O548 2.462 . S
Eu504 O549 2.373 . S
Eu504 O551 2.432 . S
Eu504 O552 2.291 . S
Eu504 O556 2.335 . S
Eu504 O559 2.372 . S
Eu504 C568 2.787 . S
C505 N506 1.365 . S
C505 C508 1.405 . S
C505 C512 1.448 . S
N506 C505 1.365 . S
N506 C509 1.319 . S
N506 Eu515 2.600 . S
C507 C509 1.397 . S
C507 C510 1.367 . S
C507 H527 0.931 . S
C508 C505 1.405 . S
C508 C510 1.403 . S
C508 C514 1.439 . S
C509 N506 1.319 . S
C509 C507 1.397 . S
C509 H520 0.930 . S
C510 C507 1.367 . S
C510 C508 1.403 . S
C510 H531 0.929 . S
C511 C512 1.430 . S
C511 C513 1.387 . S
C511 C517 1.404 . S
C512 C505 1.448 . S
C512 C511 1.430 . S
C512 N516 1.351 . S
C513 C511 1.387 . S
C513 C514 1.374 . S
C513 H528 0.931 . S
C514 C508 1.439 . S
C514 C513 1.374 . S
C514 H529 0.931 . S
Eu515 N506 2.600 . S
Eu515 N516 2.562 . S
Eu515 O550 2.335 . S
Eu515 O553 2.372 . S
Eu515 O554 2.462 . S
Eu515 O555 2.373 . S
Eu515 O557 2.432 . S
Eu515 O558 2.291 . S
Eu515 C579 2.787 . S
N516 C512 1.351 . S
N516 Eu515 2.562 . S
N516 C518 1.325 . S
C517 C511 1.404 . S
C517 C519 1.366 . S
C517 H525 0.930 . S
C518 N516 1.325 . S
C518 C519 1.416 . S
C518 H524 0.929 . S
C519 C517 1.366 . S
C519 C518 1.416 . S
C519 H521 0.930 . S
H520 C509 0.930 . S
H521 C519 0.930 . S
H522 C537 0.930 . S
H523 C544 0.930 . S
H524 C518 0.929 . S
H525 C517 0.930 . S
H526 C540 0.929 . S
H527 C507 0.931 . S
H528 C513 0.931 . S
H529 C514 0.931 . S
H530 C535 0.931 . S
H531 C510 0.929 . S
H532 C543 0.930 . S
N533 Eu504 2.600 . S
N533 C534 1.365 . S
N533 C537 1.319 . S
C534 N533 1.365 . S
C534 C536 1.405 . S
C534 C542 1.448 . S
C535 H530 0.931 . S
C535 C537 1.397 . S
C535 C538 1.367 . S
C536 C534 1.405 . S
C536 C538 1.403 . S
C536 C569 1.439 . S
C537 H522 0.930 . S
C537 N533 1.319 . S
C537 C535 1.397 . S
C538 C535 1.367 . S
C538 C536 1.403 . S
C538 H545 0.929 . S
N539 Eu504 2.562 . S
N539 C540 1.325 . S
N539 C542 1.351 . S
C540 H526 0.929 . S
C540 N539 1.325 . S
C540 C544 1.416 . S
C541 C542 1.430 . S
C541 C543 1.404 . S
C541 C570 1.387 . S
C542 C534 1.448 . S
C542 N539 1.351 . S
C542 C541 1.430 . S
C543 H532 0.930 . S
C543 C541 1.404 . S
C543 C544 1.366 . S
C544 H523 0.930 . S
C544 C540 1.416 . S
C544 C543 1.366 . S
H545 C538 0.929 . S
H546 C569 0.931 . S
H547 C570 0.931 . S
O548 Eu504 2.462 . S
O548 C568 1.252 . S
O549 Eu504 2.373 . S
O549 C560 1.249 . S
O550 Eu515 2.335 . S
O550 C560 1.264 . S
O551 Eu504 2.432 . S
O551 C568 1.268 . S
O552 Eu504 2.291 . S
O552 C567 1.255 . S
O553 Eu515 2.372 . S
O553 C567 1.257 . S
O554 Eu515 2.462 . S
O554 C579 1.252 . S
O555 Eu515 2.373 . S
O555 C571 1.249 . S
O556 Eu504 2.335 . S
O556 C571 1.264 . S
O557 Eu515 2.432 . S
O557 C579 1.268 . S
O558 Eu515 2.291 . S
O558 C578 1.255 . S
O559 Eu504 2.372 . S
O559 C578 1.257 . S
C560 O549 1.249 . S
C560 O550 1.264 . S
C561 C564 1.382 . S
C561 C566 1.390 . S
C561 C568 1.506 . S
C562 C563 1.398 . S
C562 C566 1.392 . S
C563 C562 1.398 . S
C563 C565 1.372 . S
C563 H580 0.931 . S
C564 C561 1.382 . S
C564 C565 1.390 . S
C564 H581 0.931 . S
C565 C563 1.372 . S
C565 C564 1.390 . S
C565 H582 0.929 . S
C566 C561 1.390 . S
C566 C562 1.392 . S
C566 H583 0.930 . S
C567 O552 1.255 . S
C567 O553 1.257 . S
C568 Eu504 2.787 . S
C568 O548 1.252 . S
C568 O551 1.268 . S
C568 C561 1.506 . S
C569 C536 1.439 . S
C569 H546 0.931 . S
C569 C570 1.374 . S
C570 C541 1.387 . S
C570 H547 0.931 . S
C570 C569 1.374 . S
C571 O555 1.249 . S
C571 O556 1.264 . S
C572 C575 1.382 . S
C572 C576 1.390 . S
C572 C579 1.506 . S
C573 C574 1.398 . S
C573 C576 1.392 . S
C574 C573 1.398 . S
C574 C577 1.372 . S
C574 H584 0.931 . S
C575 C572 1.382 . S
C575 C577 1.390 . S
C575 H585 0.931 . S
C576 C572 1.390 . S
C576 C573 1.392 . S
C576 H586 0.930 . S
C577 C574 1.372 . S
C577 C575 1.390 . S
C577 H587 0.929 . S
C578 O558 1.255 . S
C578 O559 1.257 . S
C579 Eu515 2.787 . S
C579 O554 1.252 . S
C579 O557 1.268 . S
C579 C572 1.506 . S
H580 C563 0.931 . S
H581 C564 0.931 . S
H582 C565 0.929 . S
H583 C566 0.930 . S
H584 C574 0.931 . S
H585 C575 0.931 . S
H586 C576 0.930 . S
H587 C577 0.929 . S
Eu588 N617 2.600 . S
Eu588 N623 2.562 . S
Eu588 O632 2.462 . S
Eu588 O633 2.373 . S
Eu588 O635 2.432 . S
Eu588 O636 2.291 . S
Eu588 O640 2.335 . S
Eu588 O643 2.372 . S
Eu588 C652 2.787 . S
C589 N590 1.365 . S
C589 C592 1.405 . S
C589 C596 1.448 . S
N590 C589 1.365 . S
N590 C593 1.319 . S
N590 Eu599 2.600 . S
C591 C593 1.397 . S
C591 C594 1.367 . S
C591 H611 0.931 . S
C592 C589 1.405 . S
C592 C594 1.403 . S
C592 C598 1.439 . S
C593 N590 1.319 . S
C593 C591 1.397 . S
C593 H604 0.930 . S
C594 C591 1.367 . S
C594 C592 1.403 . S
C594 H615 0.929 . S
C595 C596 1.430 . S
C595 C597 1.387 . S
C595 C601 1.404 . S
C596 C589 1.448 . S
C596 C595 1.430 . S
C596 N600 1.351 . S
C597 C595 1.387 . S
C597 C598 1.374 . S
C597 H612 0.931 . S
C598 C592 1.439 . S
C598 C597 1.374 . S
C598 H613 0.931 . S
Eu599 N590 2.600 . S
Eu599 N600 2.562 . S
Eu599 O634 2.335 . S
Eu599 O637 2.372 . S
Eu599 O638 2.462 . S
Eu599 O639 2.373 . S
Eu599 O641 2.432 . S
Eu599 O642 2.291 . S
Eu599 C663 2.787 . S
N600 C596 1.351 . S
N600 Eu599 2.562 . S
N600 C602 1.325 . S
C601 C595 1.404 . S
C601 C603 1.366 . S
C601 H609 0.930 . S
C602 N600 1.325 . S
C602 C603 1.416 . S
C602 H608 0.929 . S
C603 C601 1.366 . S
C603 C602 1.416 . S
C603 H605 0.930 . S
H604 C593 0.930 . S
H605 C603 0.930 . S
H606 C621 0.930 . S
H607 C628 0.930 . S
H608 C602 0.929 . S
H609 C601 0.930 . S
H610 C624 0.929 . S
H611 C591 0.931 . S
H612 C597 0.931 . S
H613 C598 0.931 . S
H614 C619 0.931 . S
H615 C594 0.929 . S
H616 C627 0.930 . S
N617 Eu588 2.600 . S
N617 C618 1.365 . S
N617 C621 1.319 . S
C618 N617 1.365 . S
C618 C620 1.405 . S
C618 C626 1.448 . S
C619 H614 0.931 . S
C619 C621 1.397 . S
C619 C622 1.367 . S
C620 C618 1.405 . S
C620 C622 1.403 . S
C620 C653 1.439 . S
C621 H606 0.930 . S
C621 N617 1.319 . S
C621 C619 1.397 . S
C622 C619 1.367 . S
C622 C620 1.403 . S
C622 H629 0.929 . S
N623 Eu588 2.562 . S
N623 C624 1.325 . S
N623 C626 1.351 . S
C624 H610 0.929 . S
C624 N623 1.325 . S
C624 C628 1.416 . S
C625 C626 1.430 . S
C625 C627 1.404 . S
C625 C654 1.387 . S
C626 C618 1.448 . S
C626 N623 1.351 . S
C626 C625 1.430 . S
C627 H616 0.930 . S
C627 C625 1.404 . S
C627 C628 1.366 . S
C628 H607 0.930 . S
C628 C624 1.416 . S
C628 C627 1.366 . S
H629 C622 0.929 . S
H630 C653 0.931 . S
H631 C654 0.931 . S
O632 Eu588 2.462 . S
O632 C652 1.252 . S
O633 Eu588 2.373 . S
O633 C644 1.249 . S
O634 Eu599 2.335 . S
O634 C644 1.264 . S
O635 Eu588 2.432 . S
O635 C652 1.268 . S
O636 Eu588 2.291 . S
O636 C651 1.255 . S
O637 Eu599 2.372 . S
O637 C651 1.257 . S
O638 Eu599 2.462 . S
O638 C663 1.252 . S
O639 Eu599 2.373 . S
O639 C655 1.249 . S
O640 Eu588 2.335 . S
O640 C655 1.264 . S
O641 Eu599 2.432 . S
O641 C663 1.268 . S
O642 Eu599 2.291 . S
O642 C662 1.255 . S
O643 Eu588 2.372 . S
O643 C662 1.257 . S
C644 O633 1.249 . S
C644 O634 1.264 . S
C645 C648 1.382 . S
C645 C650 1.390 . S
C645 C652 1.506 . S
C646 C647 1.398 . S
C646 C650 1.392 . S
C647 C646 1.398 . S
C647 C649 1.372 . S
C647 H664 0.931 . S
C648 C645 1.382 . S
C648 C649 1.390 . S
C648 H665 0.931 . S
C649 C647 1.372 . S
C649 C648 1.390 . S
C649 H666 0.929 . S
C650 C645 1.390 . S
C650 C646 1.392 . S
C650 H667 0.930 . S
C651 O636 1.255 . S
C651 O637 1.257 . S
C652 Eu588 2.787 . S
C652 O632 1.252 . S
C652 O635 1.268 . S
C652 C645 1.506 . S
C653 C620 1.439 . S
C653 H630 0.931 . S
C653 C654 1.374 . S
C654 C625 1.387 . S
C654 H631 0.931 . S
C654 C653 1.374 . S
C655 O639 1.249 . S
C655 O640 1.264 . S
C656 C659 1.382 . S
C656 C660 1.390 . S
C656 C663 1.506 . S
C657 C658 1.398 . S
C657 C660 1.392 . S
C658 C657 1.398 . S
C658 C661 1.372 . S
C658 H668 0.931 . S
C659 C656 1.382 . S
C659 C661 1.390 . S
C659 H669 0.931 . S
C660 C656 1.390 . S
C660 C657 1.392 . S
C660 H670 0.930 . S
C661 C658 1.372 . S
C661 C659 1.390 . S
C661 H671 0.929 . S
C662 O642 1.255 . S
C662 O643 1.257 . S
C663 Eu599 2.787 . S
C663 O638 1.252 . S
C663 O641 1.268 . S
C663 C656 1.506 . S
H664 C647 0.931 . S
H665 C648 0.931 . S
H666 C649 0.929 . S
H667 C650 0.930 . S
H668 C658 0.931 . S
H669 C659 0.931 . S
H670 C660 0.930 . S
H671 C661 0.929 . S
H672 C680 0.950 . S
H673 C685 0.950 . S
H674 C682 0.950 . S
H675 C684 0.950 . S
H676 C686 0.950 . S
H677 C688 0.950 . S
H678 C690 0.950 . S
H679 C691 0.950 . S
C680 H672 0.950 . S
C680 C681 1.386 1_556 S
C680 C682 1.391 . S
C681 C680 1.386 1_554 S
C681 C685 1.393 . S
C682 H674 0.950 . S
C682 C680 1.391 . S
C682 C683 1.400 1_556 S
C683 C682 1.400 1_554 S
C683 C684 1.398 . S
C683 C689 1.491 . S
C684 H675 0.950 . S
C684 C683 1.398 . S
C684 C685 1.391 . S
C685 H673 0.950 . S
C685 C681 1.393 . S
C685 C684 1.391 . S
C686 H676 0.950 . S
C686 C687 1.386 . S
C686 C688 1.391 . S
C687 C686 1.386 . S
C687 C691 1.393 1_554 S
C688 H677 0.950 . S
C688 C686 1.391 . S
C688 C689 1.400 . S
C689 C683 1.491 . S
C689 C688 1.400 . S
C689 C690 1.398 1_554 S
C690 H678 0.950 . S
C690 C689 1.398 1_556 S
C690 C691 1.391 . S
C691 H679 0.950 . S
C691 C687 1.393 1_556 S
C691 C690 1.391 . S
H692 C700 0.950 . S
H693 C705 0.950 . S
H694 C702 0.950 . S
H695 C704 0.950 . S
H696 C706 0.950 . S
H697 C708 0.950 . S
H698 C710 0.950 . S
H699 C711 0.950 . S
C700 H692 0.950 . S
C700 C701 1.386 . S
C700 C702 1.391 . S
C701 C700 1.386 . S
C701 C705 1.393 1_554 S
C702 H694 0.950 . S
C702 C700 1.391 . S
C702 C703 1.400 . S
C703 C702 1.400 . S
C703 C704 1.398 1_554 S
C703 C709 1.491 . S
C704 H695 0.950 . S
C704 C703 1.398 1_556 S
C704 C705 1.391 . S
C705 H693 0.950 . S
C705 C701 1.393 1_556 S
C705 C704 1.391 . S
C706 H696 0.950 . S
C706 C707 1.386 1_556 S
C706 C708 1.391 . S
C707 C706 1.386 1_554 S
C707 C711 1.393 . S
C708 H697 0.950 . S
C708 C706 1.391 . S
C708 C709 1.400 1_556 S
C709 C703 1.491 . S
C709 C708 1.400 1_554 S
C709 C710 1.398 . S
C710 H698 0.950 . S
C710 C709 1.398 . S
C710 C711 1.391 . S
C711 H699 0.950 . S
C711 C707 1.393 . S
C711 C710 1.391 . S
H712 C720 0.950 . S
H713 C725 0.950 . S
H714 C722 0.950 . S
H715 C724 0.950 . S
H716 C726 0.950 . S
H717 C728 0.950 . S
H718 C730 0.950 . S
H719 C731 0.950 . S
C720 H712 0.950 . S
C720 C721 1.386 . S
C720 C722 1.391 . S
C721 C720 1.386 . S
C721 C725 1.393 . S
C722 H714 0.950 . S
C722 C720 1.391 . S
C722 C723 1.400 . S
C723 C722 1.400 . S
C723 C724 1.398 . S
C723 C729 1.491 . S
C724 H715 0.950 . S
C724 C723 1.398 . S
C724 C725 1.391 . S
C725 H713 0.950 . S
C725 C721 1.393 . S
C725 C724 1.391 . S
C726 H716 0.950 . S
C726 C727 1.386 . S
C726 C728 1.391 . S
C727 C726 1.386 . S
C727 C731 1.393 . S
C728 H717 0.950 . S
C728 C726 1.391 . S
C728 C729 1.400 . S
C729 C723 1.491 . S
C729 C728 1.400 . S
C729 C730 1.398 . S
C730 H718 0.950 . S
C730 C729 1.398 . S
C730 C731 1.391 . S
C731 H719 0.950 . S
C731 C727 1.393 . S
C731 C730 1.391 . S
H732 C740 0.950 . S
H733 C745 0.950 . S
H734 C742 0.950 . S
H735 C744 0.950 . S
H736 C746 0.950 . S
H737 C748 0.950 . S
H738 C750 0.950 . S
H739 C751 0.950 . S
C740 H732 0.950 . S
C740 C741 1.386 . S
C740 C742 1.391 . S
C741 C740 1.386 . S
C741 C745 1.393 . S
C742 H734 0.950 . S
C742 C740 1.391 . S
C742 C743 1.400 . S
C743 C742 1.400 . S
C743 C744 1.398 . S
C743 C749 1.491 . S
C744 H735 0.950 . S
C744 C743 1.398 . S
C744 C745 1.391 . S
C745 H733 0.950 . S
C745 C741 1.393 . S
C745 C744 1.391 . S
C746 H736 0.950 . S
C746 C747 1.386 . S
C746 C748 1.391 . S
C747 C746 1.386 . S
C747 C751 1.393 . S
C748 H737 0.950 . S
C748 C746 1.391 . S
C748 C749 1.400 . S
C749 C743 1.491 . S
C749 C748 1.400 . S
C749 C750 1.398 . S
C750 H738 0.950 . S
C750 C749 1.398 . S
C750 C751 1.391 . S
C751 H739 0.950 . S
C751 C747 1.393 . S
C751 C750 1.391 . S
H752 C760 0.950 . S
H753 C765 0.950 . S
H754 C762 0.950 . S
H755 C764 0.950 1_455 S
H756 C766 0.950 . S
H757 C768 0.950 . S
H758 C770 0.950 . S
H759 C771 0.950 . S
C760 H752 0.950 . S
C760 C761 1.386 1_556 S
C760 C762 1.391 . S
C761 C760 1.386 1_554 S
C761 C765 1.393 . S
C762 H754 0.950 . S
C762 C760 1.391 . S
C762 C763 1.400 1_656 S
C763 C762 1.400 1_454 S
C763 C764 1.398 1_455 S
C763 C769 1.491 . S
C764 H755 0.950 1_655 S
C764 C763 1.398 1_655 S
C764 C765 1.391 . S
C765 H753 0.950 . S
C765 C761 1.393 . S
C765 C764 1.391 . S
C766 H756 0.950 . S
C766 C767 1.386 . S
C766 C768 1.391 . S
C767 C766 1.386 . S
C767 C771 1.393 1_554 S
C768 H757 0.950 . S
C768 C766 1.391 . S
C768 C769 1.400 . S
C769 C763 1.491 . S
C769 C768 1.400 . S
C769 C770 1.398 1_554 S
C770 H758 0.950 . S
C770 C769 1.398 1_556 S
C770 C771 1.391 . S
C771 H759 0.950 . S
C771 C767 1.393 1_556 S
C771 C770 1.391 . S
H772 C780 0.950 . S
H773 C785 0.950 . S
H774 C782 0.950 1_655 S
H775 C784 0.950 . S
H776 C786 0.950 1_556 S
H777 C788 0.950 1_556 S
H778 C790 0.950 . S
H779 C791 0.950 . S
C780 H772 0.950 . S
C780 C781 1.386 . S
C780 C782 1.391 . S
C781 C780 1.386 . S
C781 C785 1.393 1_554 S
C782 H774 0.950 1_455 S
C782 C780 1.391 . S
C782 C783 1.400 1_455 S
C783 C782 1.400 1_655 S
C783 C784 1.398 1_654 S
C783 C789 1.491 . S
C784 H775 0.950 . S
C784 C783 1.398 1_456 S
C784 C785 1.391 . S
C785 H773 0.950 . S
C785 C781 1.393 1_556 S
C785 C784 1.391 . S
C786 H776 0.950 1_554 S
C786 C787 1.386 . S
C786 C788 1.391 . S
C787 C786 1.386 . S
C787 C791 1.393 . S
C788 H777 0.950 1_554 S
C788 C786 1.391 . S
C788 C789 1.400 . S
C789 C783 1.491 . S
C789 C788 1.400 . S
C789 C790 1.398 . S
C790 H778 0.950 . S
C790 C789 1.398 . S
C790 C791 1.391 . S
C791 H779 0.950 . S
C791 C787 1.393 . S
C791 C790 1.391 . S
H792 C800 0.950 . S
H793 C805 0.950 . S
H794 C802 0.950 . S
H795 C804 0.950 . S
H796 C806 0.950 . S
H797 C808 0.950 . S
H798 C810 0.950 1_455 S
H799 C811 0.950 . S
C800 H792 0.950 . S
C800 C801 1.386 . S
C800 C802 1.391 . S
C801 C800 1.386 . S
C801 C805 1.393 . S
C802 H794 0.950 . S
C802 C800 1.391 . S
C802 C803 1.400 . S
C803 C802 1.400 . S
C803 C804 1.398 . S
C803 C809 1.491 . S
C804 H795 0.950 . S
C804 C803 1.398 . S
C804 C805 1.391 . S
C805 H793 0.950 . S
C805 C801 1.393 . S
C805 C804 1.391 . S
C806 H796 0.950 . S
C806 C807 1.386 . S
C806 C808 1.391 . S
C807 C806 1.386 . S
C807 C811 1.393 . S
C808 H797 0.950 . S
C808 C806 1.391 . S
C808 C809 1.400 1_655 S
C809 C803 1.491 . S
C809 C808 1.400 1_455 S
C809 C810 1.398 1_455 S
C810 H798 0.950 1_655 S
C810 C809 1.398 1_655 S
C810 C811 1.391 . S
C811 H799 0.950 . S
C811 C807 1.393 . S
C811 C810 1.391 . S
H812 C820 0.950 . S
H813 C825 0.950 . S
H814 C822 0.950 . S
H815 C824 0.950 . S
H816 C826 0.950 . S
H817 C828 0.950 . S
H818 C830 0.950 1_655 S
H819 C831 0.950 . S
C820 H812 0.950 . S
C820 C821 1.386 . S
C820 C822 1.391 . S
C821 C820 1.386 . S
C821 C825 1.393 . S
C822 H814 0.950 . S
C822 C820 1.391 . S
C822 C823 1.400 . S
C823 C822 1.400 . S
C823 C824 1.398 . S
C823 C829 1.491 . S
C824 H815 0.950 . S
C824 C823 1.398 . S
C824 C825 1.391 . S
C825 H813 0.950 . S
C825 C821 1.393 . S
C825 C824 1.391 . S
C826 H816 0.950 . S
C826 C827 1.386 . S
C826 C828 1.391 . S
C827 C826 1.386 . S
C827 C831 1.393 . S
C828 H817 0.950 . S
C828 C826 1.391 . S
C828 C829 1.400 1_455 S
C829 C823 1.491 . S
C829 C828 1.400 1_655 S
C829 C830 1.398 1_655 S
C830 H818 0.950 1_455 S
C830 C829 1.398 1_455 S
C830 C831 1.391 . S
C831 H819 0.950 . S
C831 C827 1.393 . S
C831 C830 1.391 . S
H832 C840 0.950 . S
H833 C845 0.950 . S
H834 C842 0.950 . S
H835 C844 0.950 . S
H836 C846 0.950 . S
H837 C848 0.950 . S
H838 C850 0.950 . S
H839 C851 0.950 . S
C840 H832 0.950 . S
C840 C841 1.386 1_655 S
C840 C842 1.391 . S
C841 C840 1.386 1_455 S
C841 C845 1.393 . S
C842 H834 0.950 . S
C842 C840 1.391 . S
C842 C843 1.400 1_655 S
C843 C842 1.400 1_455 S
C843 C844 1.398 . S
C843 C849 1.491 1_455 S
C844 H835 0.950 . S
C844 C843 1.398 . S
C844 C845 1.391 . S
C845 H833 0.950 . S
C845 C841 1.393 . S
C845 C844 1.391 . S
C846 H836 0.950 . S
C846 C847 1.386 1_455 S
C846 C848 1.391 . S
C847 C846 1.386 1_655 S
C847 C851 1.393 . S
C848 H837 0.950 . S
C848 C846 1.391 . S
C848 C849 1.400 1_455 S
C849 C843 1.491 1_655 S
C849 C848 1.400 1_655 S
C849 C850 1.398 . S
C850 H838 0.950 . S
C850 C849 1.398 . S
C850 C851 1.391 . S
C851 H839 0.950 . S
C851 C847 1.393 . S
C851 C850 1.391 . S
H852 C860 0.950 . S
H853 C865 0.950 . S
H854 C862 0.950 . S
H855 C864 0.950 . S
H856 C866 0.950 . S
H857 C868 0.950 . S
H858 C870 0.950 . S
H859 C871 0.950 . S
C860 H852 0.950 . S
C860 C861 1.386 . S
C860 C862 1.391 . S
C861 C860 1.386 . S
C861 C865 1.393 . S
C862 H854 0.950 . S
C862 C860 1.391 . S
C862 C863 1.400 . S
C863 C862 1.400 . S
C863 C864 1.398 . S
C863 C869 1.491 1_455 S
C864 H855 0.950 . S
C864 C863 1.398 . S
C864 C865 1.391 . S
C865 H853 0.950 . S
C865 C861 1.393 . S
C865 C864 1.391 . S
C866 H856 0.950 . S
C866 C867 1.386 . S
C866 C868 1.391 . S
C867 C866 1.386 . S
C867 C871 1.393 . S
C868 H857 0.950 . S
C868 C866 1.391 . S
C868 C869 1.400 . S
C869 C863 1.491 1_655 S
C869 C868 1.400 . S
C869 C870 1.398 . S
C870 H858 0.950 . S
C870 C869 1.398 . S
C870 C871 1.391 . S
C871 H859 0.950 . S
C871 C867 1.393 . S
C871 C870 1.391 . S
H872 C880 0.950 . S
H873 C885 0.950 1_554 S
H874 C882 0.950 . S
H875 C884 0.991 . S
H876 C886 0.950 . S
H877 C888 0.950 . S
H878 C890 0.950 1_565 S
H879 C891 0.950 . S
C880 H872 0.950 . S
C880 C881 1.386 . S
C880 C882 1.391 . S
C881 C880 1.386 . S
C881 C885 1.393 . S
C882 H874 0.950 . S
C882 C880 1.391 . S
C882 C883 1.400 . S
C883 C882 1.400 . S
C883 C884 1.398 . S
C883 C889 1.491 1_565 S
C884 H875 0.991 . S
C884 C883 1.398 . S
C884 C885 1.391 . S
C885 H873 0.950 1_556 S
C885 C881 1.393 . S
C885 C884 1.391 . S
C886 H876 0.950 . S
C886 C887 1.386 . S
C886 C888 1.391 . S
C887 C886 1.386 . S
C887 C891 1.393 . S
C888 H877 0.950 . S
C888 C886 1.391 . S
C888 C889 1.400 . S
C889 C883 1.491 1_545 S
C889 C888 1.400 . S
C889 C890 1.398 . S
C890 H878 0.950 1_545 S
C890 C889 1.398 . S
C890 C891 1.391 . S
C891 H879 0.950 . S
C891 C887 1.393 . S
C891 C890 1.391 . S
H892 C900 0.950 . S
H893 C905 0.950 . S
H894 C902 0.950 . S
H895 C904 0.950 . S
H896 C906 0.950 . S
H897 C908 0.950 . S
H898 C910 0.950 . S
H899 C911 0.950 . S
C900 H892 0.950 . S
C900 C901 1.386 . S
C900 C902 1.391 . S
C901 C900 1.386 . S
C901 C905 1.393 . S
C902 H894 0.950 . S
C902 C900 1.391 . S
C902 C903 1.400 . S
C903 C902 1.400 . S
C903 C904 1.398 . S
C903 C909 1.491 1_545 S
C904 H895 0.950 . S
C904 C903 1.398 . S
C904 C905 1.391 . S
C905 H893 0.950 . S
C905 C901 1.393 . S
C905 C904 1.391 . S
C906 H896 0.950 . S
C906 C907 1.386 . S
C906 C908 1.391 . S
C907 C906 1.386 . S
C907 C911 1.393 . S
C908 H897 0.950 . S
C908 C906 1.391 . S
C908 C909 1.400 . S
C909 C903 1.491 1_565 S
C909 C908 1.400 . S
C909 C910 1.398 . S
C910 H898 0.950 . S
C910 C909 1.398 . S
C910 C911 1.391 . S
C911 H899 0.950 . S
C911 C907 1.393 . S
C911 C910 1.391 . S
H912 C920 0.950 . S
H913 C925 0.950 . S
H914 C922 0.950 . S
H915 C924 0.950 . S
H916 C926 0.950 . S
H917 C928 0.950 . S
H918 C930 0.950 . S
H919 C931 0.950 . S
C920 H912 0.950 . S
C920 C921 1.386 . S
C920 C922 1.391 . S
C921 C920 1.386 . S
C921 C925 1.393 . S
C922 H914 0.950 . S
C922 C920 1.391 . S
C922 C923 1.400 . S
C923 C922 1.400 . S
C923 C924 1.398 . S
C923 C929 1.491 . S
C924 H915 0.950 . S
C924 C923 1.398 . S
C924 C925 1.391 . S
C925 H913 0.950 . S
C925 C921 1.393 . S
C925 C924 1.391 . S
C926 H916 0.950 . S
C926 C927 1.386 . S
C926 C928 1.391 . S
C927 C926 1.386 . S
C927 C931 1.393 . S
C928 H917 0.950 . S
C928 C926 1.391 . S
C928 C929 1.400 . S
C929 C923 1.491 . S
C929 C928 1.400 . S
C929 C930 1.398 . S
C930 H918 0.950 . S
C930 C929 1.398 . S
C930 C931 1.391 . S
C931 H919 0.950 . S
C931 C927 1.393 . S
C931 C930 1.391 . S
H932 C940 0.950 . S
H933 C945 0.950 . S
H934 C942 0.950 . S
H935 C944 0.950 . S
H936 C946 0.950 . S
H937 C948 0.950 . S
H938 C950 0.950 . S
H939 C951 0.950 . S
C940 H932 0.950 . S
C940 C941 1.386 . S
C940 C942 1.391 . S
C941 C940 1.386 . S
C941 C945 1.393 . S
C942 H934 0.950 . S
C942 C940 1.391 . S
C942 C943 1.400 . S
C943 C942 1.400 . S
C943 C944 1.398 . S
C943 C949 1.491 . S
C944 H935 0.950 . S
C944 C943 1.398 . S
C944 C945 1.391 . S
C945 H933 0.950 . S
C945 C941 1.393 . S
C945 C944 1.391 . S
C946 H936 0.950 . S
C946 C947 1.386 . S
C946 C948 1.391 . S
C947 C946 1.386 . S
C947 C951 1.393 . S
C948 H937 0.950 . S
C948 C946 1.391 . S
C948 C949 1.400 . S
C949 C943 1.491 . S
C949 C948 1.400 . S
C949 C950 1.398 . S
C950 H938 0.950 . S
C950 C949 1.398 . S
C950 C951 1.391 . S
C951 H939 0.950 . S
C951 C947 1.393 . S
C951 C950 1.391 . S
H952 C960 0.950 . S
H953 C965 0.950 . S
H954 C962 0.950 . S
H955 C964 0.950 . S
H956 C966 0.950 . S
H957 C968 0.950 . S
H958 C970 0.950 . S
H959 C971 0.950 . S
C960 H952 0.950 . S
C960 C961 1.386 . S
C960 C962 1.391 . S
C961 C960 1.386 . S
C961 C965 1.393 . S
C962 H954 0.950 . S
C962 C960 1.391 . S
C962 C963 1.400 . S
C963 C962 1.400 . S
C963 C964 1.398 . S
C963 C969 1.491 . S
C964 H955 0.950 . S
C964 C963 1.398 . S
C964 C965 1.391 . S
C965 H953 0.950 . S
C965 C961 1.393 . S
C965 C964 1.391 . S
C966 H956 0.950 . S
C966 C967 1.386 . S
C966 C968 1.391 . S
C967 C966 1.386 . S
C967 C971 1.393 . S
C968 H957 0.950 . S
C968 C966 1.391 . S
C968 C969 1.400 . S
C969 C963 1.491 . S
C969 C968 1.400 . S
C969 C970 1.398 . S
C970 H958 0.950 . S
C970 C969 1.398 . S
C970 C971 1.391 . S
C971 H959 0.950 . S
C971 C967 1.393 . S
C971 C970 1.391 . S
H972 C980 0.950 . S
H973 C985 0.950 . S
H974 C982 0.950 . S
H975 C984 0.950 . S
H976 C986 0.950 . S
H977 C988 0.950 . S
H978 C990 0.950 . S
H979 C991 0.950 . S
C980 H972 0.950 . S
C980 C981 1.386 . S
C980 C982 1.391 . S
C981 C980 1.386 . S
C981 C985 1.393 . S
C982 H974 0.950 . S
C982 C980 1.391 . S
C982 C983 1.400 . S
C983 C982 1.400 . S
C983 C984 1.398 . S
C983 C989 1.491 . S
C984 H975 0.950 . S
C984 C983 1.398 . S
C984 C985 1.391 . S
C985 H973 0.950 . S
C985 C981 1.393 . S
C985 C984 1.391 . S
C986 H976 0.950 . S
C986 C987 1.386 . S
C986 C988 1.391 . S
C987 C986 1.386 . S
C987 C991 1.393 . S
C988 H977 0.950 . S
C988 C986 1.391 . S
C988 C989 1.400 . S
C989 C983 1.491 . S
C989 C988 1.400 . S
C989 C990 1.398 . S
C990 H978 0.950 . S
C990 C989 1.398 . S
C990 C991 1.391 . S
C991 H979 0.950 . S
C991 C987 1.393 . S
C991 C990 1.391 . S
H992 C1000 0.950 . S
H993 C1005 0.950 . S
H994 C1002 0.950 . S
H995 C1004 0.950 . S
H996 C1006 0.950 . S
H997 C1008 0.950 . S
H998 C1010 0.950 . S
H999 C1011 0.950 . S
C1000 H992 0.950 . S
C1000 C1001 1.386 1_655 S
C1000 C1002 1.391 . S
C1001 C1000 1.386 1_455 S
C1001 C1005 1.393 . S
C1002 H994 0.950 . S
C1002 C1000 1.391 . S
C1002 C1003 1.400 1_655 S
C1003 C1002 1.400 1_455 S
C1003 C1004 1.398 . S
C1003 C1009 1.491 1_455 S
C1004 H995 0.950 . S
C1004 C1003 1.398 . S
C1004 C1005 1.391 . S
C1005 H993 0.950 . S
C1005 C1001 1.393 . S
C1005 C1004 1.391 . S
C1006 H996 0.950 . S
C1006 C1007 1.386 1_455 S
C1006 C1008 1.391 . S
C1007 C1006 1.386 1_655 S
C1007 C1011 1.393 . S
C1008 H997 0.950 . S
C1008 C1006 1.391 . S
C1008 C1009 1.400 1_455 S
C1009 C1003 1.491 1_655 S
C1009 C1008 1.400 1_655 S
C1009 C1010 1.398 . S
C1010 H998 0.950 . S
C1010 C1009 1.398 . S
C1010 C1011 1.391 . S
C1011 H999 0.950 . S
C1011 C1007 1.393 . S
C1011 C1010 1.391 . S
H1012 C1020 0.950 . S
H1013 C1025 0.950 . S
H1014 C1022 0.950 . S
H1015 C1024 0.950 . S
H1016 C1026 0.950 . S
H1017 C1028 0.950 . S
H1018 C1030 0.950 . S
H1019 C1031 0.950 . S
C1020 H1012 0.950 . S
C1020 C1021 1.386 1_455 S
C1020 C1022 1.391 . S
C1021 C1020 1.386 1_655 S
C1021 C1025 1.393 . S
C1022 H1014 0.950 . S
C1022 C1020 1.391 . S
C1022 C1023 1.400 1_455 S
C1023 C1022 1.400 1_655 S
C1023 C1024 1.398 . S
C1023 C1029 1.491 1_655 S
C1024 H1015 0.950 . S
C1024 C1023 1.398 . S
C1024 C1025 1.391 . S
C1025 H1013 0.950 . S
C1025 C1021 1.393 . S
C1025 C1024 1.391 . S
C1026 H1016 0.950 . S
C1026 C1027 1.386 1_655 S
C1026 C1028 1.391 . S
C1027 C1026 1.386 1_455 S
C1027 C1031 1.393 . S
C1028 H1017 0.950 . S
C1028 C1026 1.391 . S
C1028 C1029 1.400 1_655 S
C1029 C1023 1.491 1_455 S
C1029 C1028 1.400 1_455 S
C1029 C1030 1.398 . S
C1030 H1018 0.950 . S
C1030 C1029 1.398 . S
C1030 C1031 1.391 . S
C1031 H1019 0.950 . S
C1031 C1027 1.393 . S
C1031 C1030 1.391 . S
H1032 C1040 0.950 . S
H1033 C1045 0.950 . S
H1034 C1042 0.950 . S
H1035 C1044 0.950 . S
H1036 C1046 0.950 . S
H1037 C1048 0.950 . S
H1038 C1050 0.950 . S
H1039 C1051 0.950 . S
C1040 H1032 0.950 . S
C1040 C1041 1.386 1_455 S
C1040 C1042 1.391 . S
C1041 C1040 1.386 1_655 S
C1041 C1045 1.393 . S
C1042 H1034 0.950 . S
C1042 C1040 1.391 . S
C1042 C1043 1.400 1_455 S
C1043 C1042 1.400 1_655 S
C1043 C1044 1.398 . S
C1043 C1049 1.491 1_655 S
C1044 H1035 0.950 . S
C1044 C1043 1.398 . S
C1044 C1045 1.391 . S
C1045 H1033 0.950 . S
C1045 C1041 1.393 . S
C1045 C1044 1.391 . S
C1046 H1036 0.950 . S
C1046 C1047 1.385 1_655 S
C1046 C1048 1.392 . S
C1047 C1046 1.385 1_455 S
C1047 C1051 1.393 . S
C1048 H1037 0.950 . S
C1048 C1046 1.392 . S
C1048 C1049 1.400 1_655 S
C1049 C1043 1.491 1_455 S
C1049 C1048 1.400 1_455 S
C1049 C1050 1.398 . S
C1050 H1038 0.950 . S
C1050 C1049 1.398 . S
C1050 C1051 1.391 . S
C1051 H1039 0.950 . S
C1051 C1047 1.393 . S
C1051 C1050 1.391 . S
H1052 C1060 0.950 . S
H1053 C1065 0.950 . S
H1054 C1062 0.950 . S
H1055 C1064 0.950 . S
H1056 C1066 0.950 . S
H1057 C1068 0.950 . S
H1058 C1070 0.950 . S
H1059 C1071 0.950 . S
C1060 H1052 0.950 . S
C1060 C1061 1.386 . S
C1060 C1062 1.391 . S
C1061 C1060 1.386 . S
C1061 C1065 1.393 1_655 S
C1062 H1054 0.950 . S
C1062 C1060 1.391 . S
C1062 C1063 1.400 . S
C1063 C1062 1.400 . S
C1063 C1064 1.398 1_655 S
C1063 C1069 1.491 1_655 S
C1064 H1055 0.950 . S
C1064 C1063 1.398 1_455 S
C1064 C1065 1.391 . S
C1065 H1053 0.950 . S
C1065 C1061 1.393 1_455 S
C1065 C1064 1.391 . S
C1066 H1056 0.950 . S
C1066 C1067 1.386 . S
C1066 C1068 1.391 . S
C1067 C1066 1.386 . S
C1067 C1071 1.393 1_455 S
C1068 H1057 0.950 . S
C1068 C1066 1.391 . S
C1068 C1069 1.400 . S
C1069 C1063 1.491 1_455 S
C1069 C1068 1.400 . S
C1069 C1070 1.398 1_455 S
C1070 H1058 0.950 . S
C1070 C1069 1.398 1_655 S
C1070 C1071 1.391 . S
C1071 H1059 0.950 . S
C1071 C1067 1.393 1_655 S
C1071 C1070 1.391 . S
H1072 C1080 0.950 . S
H1073 C1085 0.950 . S
H1074 C1082 0.950 . S
H1075 C1084 0.950 . S
H1076 C1086 0.950 . S
H1077 C1088 0.950 . S
H1078 C1090 0.950 . S
H1079 C1091 0.950 . S
C1080 H1072 0.950 . S
C1080 C1081 1.386 . S
C1080 C1082 1.391 . S
C1081 C1080 1.386 . S
C1081 C1085 1.393 . S
C1082 H1074 0.950 . S
C1082 C1080 1.391 . S
C1082 C1083 1.400 . S
C1083 C1082 1.400 . S
C1083 C1084 1.398 . S
C1083 C1089 1.491 . S
C1084 H1075 0.950 . S
C1084 C1083 1.398 . S
C1084 C1085 1.391 . S
C1085 H1073 0.950 . S
C1085 C1081 1.393 . S
C1085 C1084 1.391 . S
C1086 H1076 0.950 . S
C1086 C1087 1.386 . S
C1086 C1088 1.391 . S
C1087 C1086 1.386 . S
C1087 C1091 1.393 . S
C1088 H1077 0.950 . S
C1088 C1086 1.391 . S
C1088 C1089 1.400 . S
C1089 C1083 1.491 . S
C1089 C1088 1.400 . S
C1089 C1090 1.398 . S
C1090 H1078 0.950 . S
C1090 C1089 1.398 . S
C1090 C1091 1.391 . S
C1091 H1079 0.950 . S
C1091 C1087 1.393 . S
C1091 C1090 1.391 . S
H1092 C1100 0.950 . S
H1093 C1105 0.950 . S
H1094 C1102 0.950 . S
H1095 C1104 0.950 . S
H1096 C1106 0.950 . S
H1097 C1108 0.950 . S
H1098 C1110 0.950 . S
H1099 C1111 0.950 . S
C1100 H1092 0.950 . S
C1100 C1101 1.386 . S
C1100 C1102 1.391 . S
C1101 C1100 1.386 . S
C1101 C1105 1.393 . S
C1102 H1094 0.950 . S
C1102 C1100 1.391 . S
C1102 C1103 1.400 . S
C1103 C1102 1.400 . S
C1103 C1104 1.398 . S
C1103 C1109 1.491 . S
C1104 H1095 0.950 . S
C1104 C1103 1.398 . S
C1104 C1105 1.391 . S
C1105 H1093 0.950 . S
C1105 C1101 1.393 . S
C1105 C1104 1.391 . S
C1106 H1096 0.950 . S
C1106 C1107 1.386 . S
C1106 C1108 1.391 . S
C1107 C1106 1.386 . S
C1107 C1111 1.393 . S
C1108 H1097 0.950 . S
C1108 C1106 1.391 . S
C1108 C1109 1.400 . S
C1109 C1103 1.491 . S
C1109 C1108 1.400 . S
C1109 C1110 1.398 . S
C1110 H1098 0.950 . S
C1110 C1109 1.398 . S
C1110 C1111 1.391 . S
C1111 H1099 0.950 . S
C1111 C1107 1.393 . S
C1111 C1110 1.391 . S
H1112 C1120 0.950 . S
H1113 C1125 0.950 . S
H1114 C1122 0.950 . S
H1115 C1124 0.950 . S
H1116 C1126 0.950 . S
H1117 C1128 0.950 . S
H1118 C1130 0.950 . S
H1119 C1131 0.950 . S
C1120 H1112 0.950 . S
C1120 C1121 1.386 . S
C1120 C1122 1.391 . S
C1121 C1120 1.386 . S
C1121 C1125 1.393 . S
C1122 H1114 0.950 . S
C1122 C1120 1.391 . S
C1122 C1123 1.400 . S
C1123 C1122 1.400 . S
C1123 C1124 1.398 . S
C1123 C1129 1.491 . S
C1124 H1115 0.950 . S
C1124 C1123 1.398 . S
C1124 C1125 1.391 . S
C1125 H1113 0.950 . S
C1125 C1121 1.393 . S
C1125 C1124 1.391 . S
C1126 H1116 0.950 . S
C1126 C1127 1.386 . S
C1126 C1128 1.391 . S
C1127 C1126 1.386 . S
C1127 C1131 1.393 . S
C1128 H1117 0.950 . S
C1128 C1126 1.391 . S
C1128 C1129 1.400 . S
C1129 C1123 1.491 . S
C1129 C1128 1.400 . S
C1129 C1130 1.398 . S
C1130 H1118 0.950 . S
C1130 C1129 1.398 . S
C1130 C1131 1.391 . S
C1131 H1119 0.950 . S
C1131 C1127 1.393 . S
C1131 C1130 1.391 . S
H1132 C1140 0.950 . S
H1133 C1145 0.950 . S
H1134 C1142 0.950 . S
H1135 C1144 0.950 . S
H1136 C1146 0.950 . S
H1137 C1148 0.950 . S
H1138 C1150 0.950 . S
H1139 C1151 0.950 . S
C1140 H1132 0.950 . S
C1140 C1141 1.386 . S
C1140 C1142 1.391 . S
C1141 C1140 1.386 . S
C1141 C1145 1.393 . S
C1142 H1134 0.950 . S
C1142 C1140 1.391 . S
C1142 C1143 1.400 . S
C1143 C1142 1.400 . S
C1143 C1144 1.398 . S
C1143 C1149 1.491 . S
C1144 H1135 0.950 . S
C1144 C1143 1.398 . S
C1144 C1145 1.391 . S
C1145 H1133 0.950 . S
C1145 C1141 1.393 . S
C1145 C1144 1.391 . S
C1146 H1136 0.950 . S
C1146 C1147 1.386 . S
C1146 C1148 1.391 . S
C1147 C1146 1.386 . S
C1147 C1151 1.393 . S
C1148 H1137 0.950 . S
C1148 C1146 1.391 . S
C1148 C1149 1.400 . S
C1149 C1143 1.491 . S
C1149 C1148 1.400 . S
C1149 C1150 1.398 . S
C1150 H1138 0.950 . S
C1150 C1149 1.398 . S
C1150 C1151 1.391 . S
C1151 H1139 0.950 . S
C1151 C1147 1.393 . S
C1151 C1150 1.391 . S
C681 C67 1.960 . S
C687 C56 1.960 . S
C701 C140 1.950 . S
C707 C151 1.950 . S
C721 C224 1.946 . S
C727 C235 1.946 . S
C741 C308 1.944 . S
C747 C319 1.944 . S
C761 C403 1.957 . S
C767 C392 1.957 . S
C781 C487 1.959 . S
C787 C476 1.959 . S
C801 C560 1.948 . S
C807 C571 1.948 . S
C821 C655 1.952 . S
C827 C644 1.952 . S
C841 C153 1.977 . S
C847 C69 2.263 . S
C861 C310 1.950 . S
C867 C237 1.950 . S
C881 C405 2.283 . S
C887 C489 1.953 . S
C901 C573 1.948 . S
C907 C646 1.948 . S
C921 C58 1.760 . S
C927 C478 1.524 . S
C941 C394 1.763 . S
C947 C142 1.525 . S
C961 C226 1.446 . S
C967 C657 1.446 . S
C981 C321 1.431 . S
C987 C562 1.431 . S
C1001 C63 1.637 . S
C1007 C315 1.690 . S
C1021 C147 1.521 . S
C1027 C231 1.570 . S
C1041 C158 1.699 . S
C1047 C242 1.751 . S
C1061 C326 1.496 . S
C1067 C74 1.515 . S
C1081 C399 1.636 . S
C1087 C651 1.680 . S
C1101 C483 1.519 . S
C1107 C567 1.568 . S
C1121 C494 1.686 . S
C1127 C578 1.759 . S
C1141 C662 1.489 . S
C1147 C410 1.501 . S
