# Generated by pormake.
# Topology wkj, (6)-cn, num edge types: 1
# Building blocks:
#     Node 0, Type 0, BuildingBlock: JUFBIX_clean_sbu_0, # of connection points: 6
#     Node 1, Type 0, BuildingBlock: JUFBIX_clean_sbu_0, # of connection points: 6
#     Node 2, Type 0, BuildingBlock: JUFBIX_clean_sbu_0, # of connection points: 6
#     Node 3, Type 0, BuildingBlock: JUFBIX_clean_sbu_0, # of connection points: 6
#     Node 4, Type 0, BuildingBlock: JUFBIX_clean_sbu_0, # of connection points: 6
#     Node 5, Type 0, BuildingBlock: JUFBIX_clean_sbu_0, # of connection points: 6
#     Node 6, Type 0, BuildingBlock: JUFBIX_clean_sbu_0, # of connection points: 6
#     Node 7, Type 0, BuildingBlock: JUFBIX_clean_sbu_0, # of connection points: 6
#     Node 8, Type 0, BuildingBlock: JUFBIX_clean_sbu_0, # of connection points: 6
#     Node 9, Type 0, BuildingBlock: JUFBIX_clean_sbu_0, # of connection points: 6
#     Node 10, Type 0, BuildingBlock: JUFBIX_clean_sbu_0, # of connection points: 6
#     Node 11, Type 0, BuildingBlock: JUFBIX_clean_sbu_0, # of connection points: 6
#     Edge 12, Type (0, 0), BuildingBlock: ZUJKAS_clean_linker_0, # of connection points: 2
#     Edge 13, Type (0, 0), BuildingBlock: ZUJKAS_clean_linker_0, # of connection points: 2
#     Edge 14, Type (0, 0), BuildingBlock: ZUJKAS_clean_linker_0, # of connection points: 2
#     Edge 15, Type (0, 0), BuildingBlock: ZUJKAS_clean_linker_0, # of connection points: 2
#     Edge 16, Type (0, 0), BuildingBlock: ZUJKAS_clean_linker_0, # of connection points: 2
#     Edge 17, Type (0, 0), BuildingBlock: ZUJKAS_clean_linker_0, # of connection points: 2
#     Edge 18, Type (0, 0), BuildingBlock: ZUJKAS_clean_linker_0, # of connection points: 2
#     Edge 19, Type (0, 0), BuildingBlock: ZUJKAS_clean_linker_0, # of connection points: 2
#     Edge 20, Type (0, 0), BuildingBlock: ZUJKAS_clean_linker_0, # of connection points: 2
#     Edge 21, Type (0, 0), BuildingBlock: ZUJKAS_clean_linker_0, # of connection points: 2
#     Edge 22, Type (0, 0), BuildingBlock: ZUJKAS_clean_linker_0, # of connection points: 2
#     Edge 23, Type (0, 0), BuildingBlock: ZUJKAS_clean_linker_0, # of connection points: 2
#     Edge 24, Type (0, 0), BuildingBlock: ZUJKAS_clean_linker_0, # of connection points: 2
#     Edge 25, Type (0, 0), BuildingBlock: ZUJKAS_clean_linker_0, # of connection points: 2
#     Edge 26, Type (0, 0), BuildingBlock: ZUJKAS_clean_linker_0, # of connection points: 2
#     Edge 27, Type (0, 0), BuildingBlock: ZUJKAS_clean_linker_0, # of connection points: 2
#     Edge 28, Type (0, 0), BuildingBlock: ZUJKAS_clean_linker_0, # of connection points: 2
#     Edge 29, Type (0, 0), BuildingBlock: ZUJKAS_clean_linker_0, # of connection points: 2
#     Edge 30, Type (0, 0), BuildingBlock: ZUJKAS_clean_linker_0, # of connection points: 2
#     Edge 31, Type (0, 0), BuildingBlock: ZUJKAS_clean_linker_0, # of connection points: 2
#     Edge 32, Type (0, 0), BuildingBlock: ZUJKAS_clean_linker_0, # of connection points: 2
#     Edge 33, Type (0, 0), BuildingBlock: ZUJKAS_clean_linker_0, # of connection points: 2
#     Edge 34, Type (0, 0), BuildingBlock: ZUJKAS_clean_linker_0, # of connection points: 2
#     Edge 35, Type (0, 0), BuildingBlock: ZUJKAS_clean_linker_0, # of connection points: 2
#     Edge 36, Type (0, 0), BuildingBlock: ZUJKAS_clean_linker_0, # of connection points: 2
#     Edge 37, Type (0, 0), BuildingBlock: ZUJKAS_clean_linker_0, # of connection points: 2
#     Edge 38, Type (0, 0), BuildingBlock: ZUJKAS_clean_linker_0, # of connection points: 2
#     Edge 39, Type (0, 0), BuildingBlock: ZUJKAS_clean_linker_0, # of connection points: 2
#     Edge 40, Type (0, 0), BuildingBlock: ZUJKAS_clean_linker_0, # of connection points: 2
#     Edge 41, Type (0, 0), BuildingBlock: ZUJKAS_clean_linker_0, # of connection points: 2
#     Edge 42, Type (0, 0), BuildingBlock: ZUJKAS_clean_linker_0, # of connection points: 2
#     Edge 43, Type (0, 0), BuildingBlock: ZUJKAS_clean_linker_0, # of connection points: 2
#     Edge 44, Type (0, 0), BuildingBlock: ZUJKAS_clean_linker_0, # of connection points: 2
#     Edge 45, Type (0, 0), BuildingBlock: ZUJKAS_clean_linker_0, # of connection points: 2
#     Edge 46, Type (0, 0), BuildingBlock: ZUJKAS_clean_linker_0, # of connection points: 2
#     Edge 47, Type (0, 0), BuildingBlock: ZUJKAS_clean_linker_0, # of connection points: 2
# Relax obj value: 0.777
# Max RMSD: 0.257
# Mean RMSD: 0.255
data_MOF--net-wkj--node1-JUFBIX_clean_sbu_0--edge1-ZUJKAS_clean_linker_0
_symmetry_space_group_name_H-M    P1
_symmetry_Int_Tables_number       1
_symmetry_cell_setting            triclinic
loop_
_symmetry_equiv_pos_as_xyz
'x, y, z'
_cell_length_a     64.775982
_cell_length_b     64.760172
_cell_length_c     34.170541
_cell_angle_alpha  90.030771
_cell_angle_beta   89.963661
_cell_angle_gamma 119.9692
loop_
_atom_site_label
_atom_site_type_symbol
_atom_site_fract_x
_atom_site_fract_y
_atom_site_fract_z
_atom_type_partial_charge
Co0 Co 0.41993 0.06435 0.19087 0.0
C1 C 0.44077 0.04018 0.22042 0.0
Co2 Co 0.45469 0.08789 0.21762 0.0
C3 C 0.3843 0.04864 0.1317 0.0
C4 C 0.3717 0.02572 0.18167 0.0
N5 N 0.39079 0.04551 0.16762 0.0
N6 N 0.36203 0.03149 0.12236 0.0
C7 C 0.354 0.01696 0.15376 0.0
H8 H 0.39622 0.06263 0.11199 0.0
H9 H 0.37096 0.01783 0.2099 0.0
C10 C 0.4332 0.11244 0.19093 0.0
N11 N 0.48371 0.10704 0.24105 0.0
C12 C 0.49063 0.10369 0.27646 0.0
C13 C 0.50197 0.12783 0.22803 0.0
N14 N 0.51235 0.12167 0.28645 0.0
C15 C 0.51968 0.13688 0.25593 0.0
C16 C 0.45862 0.08107 0.13844 0.0
O17 O 0.41745 0.09188 0.17928 0.0
O18 O 0.45121 0.11468 0.20928 0.0
O19 O 0.47013 0.09271 0.16841 0.0
O20 O 0.43613 0.06742 0.14135 0.0
O21 O 0.45793 0.06112 0.22633 0.0
H22 H 0.50212 0.13616 0.20051 0.0
H23 H 0.47975 0.08837 0.29472 0.0
O24 O 0.42206 0.03719 0.20346 0.0
O25 O 0.40438 0.06055 0.24023 0.0
O26 O 0.43917 0.08229 0.26768 0.0
C27 C 0.4168 0.0686 0.27116 0.0
H28 H 0.3369 0.00078 0.15593 0.0
H29 H 0.5362 0.15371 0.25446 0.0
Co30 Co 0.36609 0.45265 0.62678 0.0
C31 C 0.40651 0.48524 0.66703 0.0
Co32 Co 0.36359 0.48215 0.6536 0.0
C33 C 0.36028 0.41799 0.56982 0.0
C34 C 0.37451 0.41307 0.62322 0.0
N35 N 0.36796 0.42754 0.6055 0.0
N36 N 0.36146 0.39799 0.56466 0.0
C37 C 0.37039 0.39473 0.59813 0.0
H38 H 0.35304 0.42506 0.54855 0.0
H39 H 0.38117 0.4153 0.65286 0.0
C40 C 0.3223 0.4497 0.61582 0.0
N41 N 0.36128 0.50692 0.67583 0.0
C42 C 0.36846 0.51583 0.71206 0.0
C43 C 0.35308 0.52048 0.65982 0.0
N44 N 0.36525 0.53449 0.71943 0.0
C45 C 0.35562 0.53757 0.68655 0.0
C46 C 0.38054 0.49098 0.57545 0.0
O47 O 0.33418 0.43954 0.60717 0.0
O48 O 0.33194 0.46839 0.63664 0.0
O49 O 0.37483 0.49984 0.60412 0.0
O50 O 0.37818 0.47041 0.57956 0.0
O51 O 0.39464 0.49575 0.67104 0.0
H52 H 0.34605 0.5183 0.63045 0.0
H53 H 0.37673 0.50923 0.73218 0.0
O54 O 0.39788 0.46606 0.64714 0.0
O55 O 0.35443 0.43496 0.67342 0.0
O56 O 0.35341 0.4644 0.70273 0.0
C57 C 0.35128 0.44374 0.70442 0.0
H58 H 0.37363 0.38017 0.60399 0.0
H59 H 0.35093 0.55126 0.68204 0.0
Co60 Co 0.93225 0.35369 0.86313 0.0
C61 C 0.95951 0.39608 0.89946 0.0
Co62 Co 0.91075 0.36641 0.89291 0.0
C63 C 0.94457 0.33366 0.79971 0.0
C64 C 0.96682 0.33878 0.84922 0.0
N65 N 0.94887 0.34196 0.83662 0.0
N66 N 0.95916 0.32554 0.78845 0.0
C67 C 0.97322 0.32866 0.81954 0.0
H68 H 0.93091 0.33361 0.78141 0.0
H69 H 0.97483 0.34367 0.87797 0.0
C70 C 0.88314 0.32275 0.85936 0.0
N71 N 0.89392 0.37775 0.91998 0.0
C72 C 0.89922 0.3873 0.95609 0.0
C73 C 0.87381 0.37774 0.90983 0.0
N74 N 0.88315 0.39305 0.9693 0.0
C75 C 0.86713 0.3872 0.94018 0.0
C76 C 0.92016 0.38213 0.81644 0.0
O77 O 0.90329 0.32641 0.84764 0.0
O78 O 0.88213 0.33836 0.88042 0.0
O79 O 0.9085 0.38132 0.84684 0.0
O80 O 0.93185 0.37106 0.8167 0.0
O81 O 0.9393 0.3941 0.90572 0.0
H82 H 0.86442 0.37091 0.88249 0.0
H83 H 0.91468 0.38994 0.97237 0.0
O84 O 0.96099 0.38028 0.87977 0.0
O85 O 0.9333 0.3376 0.90932 0.0
O86 O 0.91375 0.35215 0.93988 0.0
C87 C 0.9253 0.34107 0.94111 0.0
H88 H 0.98763 0.32477 0.82026 0.0
H89 H 0.85138 0.38895 0.94115 0.0
Co90 Co 0.55906 0.93108 0.27953 0.0
C91 C 0.53116 0.94266 0.32429 0.0
Co92 Co 0.5288 0.89995 0.307 0.0
C93 C 0.59382 0.9572 0.22117 0.0
C94 C 0.60163 0.97707 0.27446 0.0
N95 N 0.58528 0.95658 0.2573 0.0
N96 N 0.61497 0.97706 0.21515 0.0
C97 C 0.62004 0.9897 0.24856 0.0
H98 H 0.58515 0.94281 0.20022 0.0
H99 H 0.60061 0.98211 0.30429 0.0
C100 C 0.55712 0.88764 0.26511 0.0
N101 N 0.50274 0.87449 0.33036 0.0
C102 C 0.49538 0.87371 0.36755 0.0
C103 C 0.48571 0.85418 0.31375 0.0
N104 N 0.47432 0.85395 0.37475 0.0
C105 C 0.46809 0.84157 0.34096 0.0
C106 C 0.51928 0.91031 0.2307 0.0
O107 O 0.56869 0.90987 0.25795 0.0
O108 O 0.53876 0.87937 0.28673 0.0
O109 O 0.51027 0.89589 0.25945 0.0
O110 O 0.54065 0.92735 0.23364 0.0
O111 O 0.51915 0.92024 0.32779 0.0
H112 H 0.48569 0.8493 0.28346 0.0
H113 H 0.50466 0.88805 0.38838 0.0
O114 O 0.54934 0.95199 0.30203 0.0
O115 O 0.57726 0.93509 0.32483 0.0
O116 O 0.54746 0.90494 0.35406 0.0
C117 C 0.56862 0.9226 0.35537 0.0
H118 H 0.63591 0.0067 0.25388 0.0
H119 H 0.45176 0.8249 0.33607 0.0
Co120 Co 0.64629 0.56957 0.53666 0.0
C121 C 0.60183 0.54873 0.5689 0.0
Co122 Co 0.63554 0.53505 0.56383 0.0
C123 C 0.66234 0.6026 0.47401 0.0
C124 C 0.65386 0.61703 0.52373 0.0
N125 N 0.65539 0.59803 0.51164 0.0
N126 N 0.66439 0.62324 0.4614 0.0
C127 C 0.65936 0.63259 0.49279 0.0
H128 H 0.66451 0.59025 0.45552 0.0
H129 H 0.64765 0.61871 0.55231 0.0
C130 C 0.68144 0.5569 0.53525 0.0
N131 N 0.62662 0.50651 0.58807 0.0
C132 C 0.61483 0.49899 0.62218 0.0
C133 C 0.63067 0.48893 0.5765 0.0
N134 N 0.61136 0.47743 0.63259 0.0
C135 C 0.62136 0.47099 0.60401 0.0
C136 C 0.62353 0.52992 0.48549 0.0
O137 O 0.67635 0.5725 0.52385 0.0
O138 O 0.66598 0.53898 0.5542 0.0
O139 O 0.62418 0.51864 0.51538 0.0
O140 O 0.63241 0.5524 0.48816 0.0
O141 O 0.60547 0.53141 0.57402 0.0
H142 H 0.63996 0.48925 0.54999 0.0
H143 H 0.60946 0.50949 0.63956 0.0
O144 O 0.61704 0.56703 0.5504 0.0
O145 O 0.6585 0.58604 0.58538 0.0
O146 O 0.64587 0.55136 0.6132 0.0
C147 C 0.65396 0.57368 0.6165 0.0
H148 H 0.65775 0.64845 0.49254 0.0
H149 H 0.6219 0.45456 0.60305 0.0
Co150 Co 0.07186 0.62183 0.95115 0.0
C151 C 0.062 0.58273 0.99608 0.0
Co152 Co 0.1039 0.62285 0.97522 0.0
C153 C 0.04482 0.63429 0.90009 0.0
C154 C 0.02323 0.61203 0.94683 0.0
N155 N 0.04537 0.62198 0.93142 0.0
N156 N 0.02344 0.6327 0.89557 0.0
C157 C 0.00959 0.61843 0.92452 0.0
H158 H 0.05985 0.64433 0.88082 0.0
H159 H 0.01753 0.60135 0.97318 0.0
C160 C 0.11476 0.66316 0.93335 0.0
N161 N 0.13015 0.6228 0.99629 0.0
C162 C 0.13202 0.61739 0.0337 0.0
C163 C 0.15001 0.62567 0.97853 0.0
N164 N 0.15206 0.61649 0.0401 0.0
C165 C 0.16347 0.62158 1.00542 0.0
C166 C 0.09101 0.60196 0.90022 0.0
O167 O 0.09232 0.65254 0.92845 0.0
O168 O 0.12373 0.6531 0.95338 0.0
O169 O 0.10637 0.60766 0.92756 0.0
O170 O 0.0743 0.60672 0.90462 0.0
O171 O 0.08449 0.5932 0.99771 0.0
H172 H 0.15401 0.6296 0.94777 0.0
H173 H 0.1182 0.61279 0.05539 0.0
O174 O 0.05199 0.59136 0.97497 0.0
O175 O 0.06906 0.63647 0.99712 0.0
O176 O 0.10036 0.63712 0.02256 0.0
C177 C 0.08289 0.6408 0.02601 0.0
H178 H 0.9912 0.61353 0.92969 0.0
H179 H 0.17998 0.62171 0.99972 0.0
Co180 Co 0.95076 0.5792 0.45198 0.0
C181 C 0.97732 0.56197 0.41831 0.0
Co182 Co 0.92883 0.54505 0.42198 0.0
C183 C 0.96496 0.61446 0.51224 0.0
C184 C 0.98662 0.62834 0.46109 0.0
N185 N 0.96844 0.60827 0.47628 0.0
N186 N 0.98019 0.63767 0.52027 0.0
C187 C 0.99389 0.64643 0.48802 0.0
H188 H 0.95165 0.60193 0.53224 0.0
H189 H 0.99403 0.62977 0.43217 0.0
C190 C 0.90202 0.5631 0.45358 0.0
N191 N 0.91087 0.51629 0.39702 0.0
C192 C 0.91466 0.51029 0.36109 0.0
C193 C 0.89031 0.4974 0.40929 0.0
N194 N 0.89714 0.48853 0.35014 0.0
C195 C 0.88175 0.4803 0.3804 0.0
C196 C 0.93645 0.53937 0.50045 0.0
O197 O 0.92228 0.5795 0.46514 0.0
O198 O 0.90079 0.546 0.4336 0.0
O199 O 0.92592 0.5288 0.46918 0.0
O200 O 0.94863 0.56213 0.50047 0.0
O201 O 0.95694 0.54449 0.41001 0.0
H202 H 0.88178 0.49641 0.43702 0.0
H203 H 0.9295 0.52212 0.34265 0.0
O204 O 0.97901 0.57933 0.438 0.0
O205 O 0.95335 0.59543 0.40358 0.0
O206 O 0.93234 0.56122 0.37406 0.0
C207 C 0.94521 0.58371 0.37204 0.0
H208 H 0.00817 0.66458 0.48397 0.0
H209 H 0.86535 0.46332 0.38136 0.0
Co210 Co 0.34271 0.89861 0.72248 0.0
C211 C 0.30907 0.86692 0.77303 0.0
Co212 Co 0.35904 0.88807 0.77084 0.0
C213 C 0.34205 0.91921 0.64641 0.0
C214 C 0.31423 0.91573 0.68437 0.0
N215 N 0.3317 0.91022 0.68163 0.0
N216 N 0.33213 0.93054 0.62765 0.0
C217 C 0.31449 0.92819 0.65148 0.0
H218 H 0.3576 0.91889 0.63583 0.0
H219 H 0.30294 0.91218 0.70973 0.0
C220 C 0.39182 0.91707 0.71805 0.0
N221 N 0.37083 0.87737 0.81248 0.0
C222 C 0.38491 0.88899 0.84381 0.0
C223 C 0.36513 0.85451 0.81771 0.0
N224 N 0.38814 0.87421 0.86829 0.0
C225 C 0.37567 0.85255 0.85128 0.0
C226 C 0.34784 0.86039 0.70266 0.0
O227 O 0.37381 0.91699 0.70335 0.0
O228 O 0.39005 0.90705 0.75086 0.0
O229 O 0.35607 0.86308 0.73734 0.0
O230 O 0.33951 0.87339 0.69082 0.0
O231 O 0.32748 0.86856 0.78946 0.0
H232 H 0.35363 0.83993 0.79863 0.0
H233 H 0.39224 0.90787 0.84883 0.0
O234 O 0.31141 0.87905 0.74231 0.0
O235 O 0.34637 0.924 0.75453 0.0
O236 O 0.36204 0.91353 0.80215 0.0
C237 C 0.35508 0.92737 0.78878 0.0
H238 H 0.30306 0.93564 0.64617 0.0
H239 H 0.37399 0.8361 0.86205 0.0
Co240 Co 0.42922 0.36923 0.11713 0.0
C241 C 0.45031 0.41279 0.08079 0.0
Co242 Co 0.46164 0.37751 0.08465 0.0
C243 C 0.39687 0.35376 0.18111 0.0
C244 C 0.38245 0.36274 0.13199 0.0
N245 N 0.40191 0.36207 0.14424 0.0
N246 N 0.3751 0.3492 0.19251 0.0
C247 C 0.36584 0.35475 0.16172 0.0
H248 H 0.40895 0.35095 0.19925 0.0
H249 H 0.38051 0.36875 0.10341 0.0
C250 C 0.43925 0.33248 0.11753 0.0
N251 N 0.48878 0.38389 0.05779 0.0
C252 C 0.4945 0.3916 0.02068 0.0
C253 C 0.50657 0.38043 0.07031 0.0
N254 N 0.51506 0.3929 0.00933 0.0
C255 C 0.52282 0.38603 0.04057 0.0
C256 C 0.47071 0.39153 0.16295 0.0
O257 O 0.42503 0.3389 0.13085 0.0
O258 O 0.4565 0.34679 0.09616 0.0
O259 O 0.48012 0.38987 0.13134 0.0
O260 O 0.44829 0.38342 0.16362 0.0
O261 O 0.46646 0.40787 0.07242 0.0
H262 H 0.50735 0.37371 0.09892 0.0
H263 H 0.48366 0.39602 1.00229 0.0
O264 O 0.43298 0.39881 0.10243 0.0
O265 O 0.41071 0.35635 0.07072 0.0
O266 O 0.44308 0.36605 0.03736 0.0
C267 C 0.42084 0.35882 0.03781 0.0
H268 H 0.34866 0.35378 0.1612 0.0
H269 H 0.53865 0.38441 0.04145 0.0
Co270 Co 0.08152 0.42701 0.38751 0.0
C271 C 0.11568 0.43446 0.4425 0.0
Co272 Co 0.08523 0.45298 0.43407 0.0
C273 C 0.06968 0.40593 0.3111 0.0
C274 C 0.07368 0.38287 0.3512 0.0
N275 N 0.07663 0.40494 0.34804 0.0
N276 N 0.06157 0.38518 0.2915 0.0
C277 C 0.06445 0.3707 0.3165 0.0
H278 H 0.06921 0.42122 0.29955 0.0
H279 H 0.0762 0.37546 0.37792 0.0
C280 C 0.05211 0.44624 0.37747 0.0
N281 N 0.089 0.47588 0.47237 0.0
C282 C 0.09019 0.47668 0.51222 0.0
C283 C 0.09054 0.49674 0.46228 0.0
N284 N 0.09265 0.49737 0.52694 0.0
C285 C 0.09275 0.50978 0.49521 0.0
C286 C 0.11389 0.47329 0.36803 0.0
O287 O 0.0581 0.43185 0.36389 0.0
O288 O 0.06093 0.45672 0.40972 0.0
O289 O 0.10821 0.47778 0.40133 0.0
O290 O 0.10475 0.4518 0.35671 0.0
O291 O 0.10967 0.44885 0.45715 0.0
H292 H 0.08981 0.5021 0.43257 0.0
H293 H 0.0894 0.46247 0.52998 0.0
O294 O 0.1054 0.42279 0.41161 0.0
O295 O 0.05829 0.40244 0.41881 0.0
O296 O 0.06223 0.4278 0.46516 0.0
C297 C 0.05261 0.40648 0.45237 0.0
H298 H 0.05853 0.35207 0.31134 0.0
H299 H 0.09382 0.52699 0.4956 0.0
Co300 Co 0.628 0.06183 0.771 0.0
C301 C 0.5868 0.04063 0.72791 0.0
Co302 Co 0.62118 0.0872 0.73905 0.0
C303 C 0.64277 0.04358 0.83419 0.0
C304 C 0.63396 0.02117 0.78373 0.0
N305 N 0.63435 0.04091 0.79747 0.0
N306 N 0.64786 0.02645 0.84393 0.0
C307 C 0.64236 0.01225 0.81231 0.0
H308 H 0.64577 0.05826 0.85306 0.0
H309 H 0.62836 0.014 0.75458 0.0
C310 C 0.6638 0.10906 0.77857 0.0
N311 N 0.61545 0.10838 0.71203 0.0
C312 C 0.60734 0.1057 0.67509 0.0
C313 C 0.61883 0.12977 0.72364 0.0
N314 N 0.60547 0.12448 0.66301 0.0
C315 C 0.61277 0.1398 0.69338 0.0
C316 C 0.60274 0.0784 0.81502 0.0
O317 O 0.6574 0.08796 0.78958 0.0
O318 O 0.65036 0.1125 0.7559 0.0
O319 O 0.60567 0.09072 0.78435 0.0
O320 O 0.61132 0.06447 0.81572 0.0
O321 O 0.5924 0.06206 0.72144 0.0
H322 H 0.62541 0.1376 0.75213 0.0
H323 H 0.6034 0.09044 0.65705 0.0
O324 O 0.59919 0.03607 0.75141 0.0
O325 O 0.64366 0.05859 0.72639 0.0
O326 O 0.63588 0.08274 0.6933 0.0
C327 C 0.64337 0.06793 0.69392 0.0
H328 H 0.64409 0.99651 0.81017 0.0
H329 H 0.61348 0.15685 0.6938 0.0
Co330 Co 0.54431 0.65091 0.05549 0.0
C331 C 0.55069 0.68638 0.10666 0.0
Co332 Co 0.51718 0.63753 0.10437 0.0
C333 C 0.56924 0.64574 0.98691 0.0
C334 C 0.57981 0.68213 0.99832 0.0
N335 N 0.56579 0.65994 0.01238 0.0
N336 N 0.58461 0.65811 0.95747 0.0
C337 C 0.59133 0.68109 0.96505 0.0
H338 H 0.56011 0.62654 0.98928 0.0
H339 H 0.58128 0.69814 0.01084 0.0
C340 C 0.50983 0.60288 0.05237 0.0
N341 N 0.49523 0.62749 0.14718 0.0
C342 C 0.49288 0.61397 0.17931 0.0
C343 C 0.47782 0.633 0.1516 0.0
N344 N 0.47456 0.6107 0.20292 0.0
C345 C 0.46516 0.62269 0.18526 0.0
C346 C 0.50305 0.65205 0.03805 0.0
O347 O 0.52843 0.61953 0.03671 0.0
O348 O 0.50182 0.60638 0.08411 0.0
O349 O 0.49678 0.64385 0.07257 0.0
O350 O 0.52352 0.65701 0.02544 0.0
O351 O 0.5327 0.66921 0.12335 0.0
H352 H 0.4745 0.64403 0.13181 0.0
H353 H 0.50416 0.60641 0.1851 0.0
O354 O 0.55921 0.6825 0.07567 0.0
O355 O 0.5648 0.64467 0.08639 0.0
O356 O 0.5382 0.63146 0.13386 0.0
C357 C 0.55853 0.63626 0.12076 0.0
H358 H 0.60363 0.6963 0.94779 0.0
H359 H 0.45035 0.6243 0.19631 0.0
H360 H 0.46443 0.15855 0.21061 0.0
H361 H 0.46034 0.19349 0.19924 0.0
H362 H 0.39222 0.14933 0.14406 0.0
H363 H 0.39629 0.11411 0.15483 0.0
H364 H 0.42169 0.19006 0.10192 0.0
H365 H 0.4172 0.2125 0.2569 0.0
H366 H 0.44264 0.20927 0.24691 0.0
H367 H 0.41314 0.18394 0.24199 0.0
C368 C 0.4485 0.15618 0.19619 0.0
C369 C 0.43062 0.13352 0.18378 0.0
C370 C 0.44612 0.17617 0.18999 0.0
C371 C 0.42575 0.1739 0.17158 0.0
C372 C 0.40797 0.15138 0.15869 0.0
H373 H 0.40306 0.29645 0.15931 0.0
H374 H 0.39695 0.25647 0.17152 0.0
C375 C 0.41033 0.13131 0.16483 0.0
C376 C 0.42369 0.19531 0.16435 0.0
H377 H 0.42644 0.24351 0.20995 0.0
C378 C 0.4224 0.2016 0.12553 0.0
C379 C 0.42423 0.21012 0.19526 0.0
C380 C 0.42413 0.2035 0.23762 0.0
C381 C 0.42282 0.22295 0.11669 0.0
C382 C 0.425 0.23852 0.14748 0.0
C383 C 0.42508 0.23167 0.18638 0.0
C384 C 0.42842 0.26251 0.13983 0.0
C385 C 0.42113 0.22871 0.07444 0.0
C386 C 0.44836 0.2792 0.11865 0.0
C387 C 0.4519 0.30195 0.11163 0.0
C388 C 0.43564 0.30852 0.12596 0.0
C389 C 0.41586 0.29189 0.14779 0.0
C390 C 0.41233 0.26907 0.15476 0.0
H391 H 0.41236 0.21233 0.05621 0.0
H392 H 0.41105 0.23835 0.0715 0.0
H393 H 0.43935 0.24027 0.0627 0.0
H394 H 0.46131 0.27467 0.10775 0.0
H395 H 0.46741 0.31438 0.09496 0.0
H396 H 0.29981 0.41842 0.55518 0.0
H397 H 0.26229 0.41004 0.52347 0.0
H398 H 0.25328 0.45393 0.60886 0.0
H399 H 0.29041 0.46244 0.64043 0.0
H400 H 0.21161 0.39327 0.55887 0.0
H401 H 0.25938 0.48443 0.49531 0.0
H402 H 0.27465 0.46917 0.51216 0.0
H403 H 0.26403 0.48261 0.54677 0.0
C404 C 0.28955 0.42587 0.56759 0.0
C405 C 0.29818 0.44132 0.59998 0.0
C406 C 0.2682 0.42108 0.54947 0.0
C407 C 0.25531 0.43164 0.56367 0.0
C408 C 0.26316 0.44583 0.59734 0.0
H409 H 0.14248 0.45775 0.50658 0.0
H410 H 0.17542 0.45449 0.53471 0.0
C411 C 0.2844 0.45067 0.61528 0.0
C412 C 0.23475 0.42977 0.54197 0.0
H413 H 0.21715 0.46388 0.49191 0.0
C414 C 0.21277 0.40852 0.54369 0.0
C415 C 0.2365 0.44977 0.5223 0.0
C416 C 0.25993 0.47277 0.51863 0.0
C417 C 0.19215 0.40713 0.52757 0.0
C418 C 0.19379 0.42746 0.50912 0.0
C419 C 0.21596 0.4484 0.50635 0.0
C420 C 0.17269 0.42784 0.49355 0.0
C421 C 0.16861 0.38434 0.53173 0.0
C422 C 0.16027 0.41388 0.46114 0.0
C423 C 0.14146 0.41573 0.44489 0.0
C424 C 0.13484 0.43166 0.46075 0.0
C425 C 0.14713 0.44533 0.49363 0.0
C426 C 0.16594 0.44349 0.50976 0.0
H427 H 0.16961 0.37188 0.55295 0.0
H428 H 0.1545 0.38819 0.54138 0.0
H429 H 0.16326 0.3753 0.50289 0.0
H430 H 0.16549 0.40199 0.44784 0.0
H431 H 0.13236 0.40495 0.41955 0.0
H432 H 0.87973 0.2843 0.82049 0.0
H433 H 0.84377 0.24597 0.80862 0.0
H434 H 0.80137 0.27143 0.86589 0.0
H435 H 0.83726 0.3097 0.87851 0.0
H436 H 0.79108 0.22577 0.8903 0.0
H437 H 0.79185 0.23323 0.7281 0.0
H438 H 0.81886 0.23693 0.74934 0.0
H439 H 0.80974 0.25843 0.75934 0.0
C440 C 0.86274 0.28181 0.83034 0.0
C441 C 0.86131 0.30007 0.85029 0.0
C442 C 0.84223 0.25992 0.82347 0.0
C443 C 0.81995 0.256 0.83608 0.0
C444 C 0.81845 0.27416 0.85594 0.0
H445 H 0.67934 0.15588 0.76525 0.0
H446 H 0.7179 0.18996 0.78165 0.0
C447 C 0.83894 0.29603 0.86296 0.0
C448 C 0.79813 0.23296 0.82874 0.0
H449 H 0.7621 0.1972 0.7558 0.0
C450 C 0.78474 0.21941 0.86093 0.0
C451 C 0.78998 0.22487 0.79036 0.0
C452 C 0.8032 0.23917 0.75474 0.0
C453 C 0.76312 0.19807 0.85572 0.0
C454 C 0.75495 0.19006 0.81734 0.0
C455 C 0.76857 0.20339 0.78519 0.0
C456 C 0.73134 0.16907 0.80961 0.0
C457 C 0.74876 0.18474 0.89119 0.0
C458 C 0.72607 0.146 0.82026 0.0
C459 C 0.70387 0.12634 0.81103 0.0
C460 C 0.68679 0.12955 0.79077 0.0
C461 C 0.69212 0.15275 0.78072 0.0
C462 C 0.71416 0.17228 0.79002 0.0
H463 H 0.75547 0.19552 0.91835 0.0
H464 H 0.72973 0.17943 0.88726 0.0
H465 H 0.74978 0.16826 0.89503 0.0
H466 H 0.73927 0.14319 0.83498 0.0
H467 H 0.70027 0.10866 0.81901 0.0
H468 H 0.58334 0.72873 0.07266 0.0
H469 H 0.59632 0.76907 0.09706 0.0
H470 H 0.5529 0.73919 0.20006 0.0
H471 H 0.54011 0.69917 0.17636 0.0
H472 H 0.56595 0.78669 0.11155 0.0
H473 H 0.61484 0.79134 0.24654 0.0
H474 H 0.60883 0.76958 0.20863 0.0
H475 H 0.58651 0.76441 0.24484 0.0
C476 C 0.57695 0.73081 0.10086 0.0
C477 C 0.56066 0.71076 0.12255 0.0
C478 C 0.58437 0.75384 0.11471 0.0
C479 C 0.57588 0.75711 0.15066 0.0
C480 C 0.56015 0.73711 0.17273 0.0
H481 H 0.53895 0.84058 0.28146 0.0
H482 H 0.54918 0.81283 0.25097 0.0
C483 C 0.55267 0.7142 0.15891 0.0
C484 C 0.58116 0.78108 0.16368 0.0
H485 H 0.59638 0.81614 0.24515 0.0
C486 C 0.57327 0.79357 0.14028 0.0
C487 C 0.59079 0.79003 0.20111 0.0
C488 C 0.60095 0.77824 0.22652 0.0
C489 C 0.57284 0.81366 0.15471 0.0
C490 C 0.58072 0.82145 0.19331 0.0
C491 C 0.59022 0.81 0.21563 0.0
C492 C 0.57613 0.83914 0.21281 0.0
C493 C 0.56235 0.82535 0.12976 0.0
C494 C 0.58818 0.86321 0.20172 0.0
C495 C 0.58239 0.87923 0.2192 0.0
C496 C 0.56441 0.87131 0.24788 0.0
C497 C 0.5528 0.84726 0.25936 0.0
C498 C 0.55867 0.83138 0.24208 0.0
H499 H 0.55508 0.81577 0.10169 0.0
H500 H 0.54786 0.82611 0.14589 0.0
H501 H 0.57632 0.84393 0.12306 0.0
H502 H 0.60183 0.86952 0.17933 0.0
H503 H 0.59166 0.89767 0.20978 0.0
H504 H 0.71932 0.59345 0.49703 0.0
H505 H 0.75817 0.59714 0.48334 0.0
H506 H 0.73547 0.52967 0.54009 0.0
H507 H 0.69684 0.52596 0.55436 0.0
H508 H 0.78075 0.56526 0.5629 0.0
H509 H 0.77158 0.55914 0.40093 0.0
H510 H 0.76747 0.58196 0.42325 0.0
H511 H 0.7466 0.55115 0.43313 0.0
C512 C 0.7226 0.57939 0.50654 0.0
C513 C 0.70497 0.55938 0.52668 0.0
C514 C 0.74476 0.58148 0.49853 0.0
C515 C 0.74957 0.56353 0.5103 0.0
C516 C 0.73209 0.54369 0.53069 0.0
H517 H 0.85618 0.53038 0.43433 0.0
H518 H 0.82005 0.53187 0.44903 0.0
C519 C 0.71 0.54159 0.53875 0.0
C520 C 0.77282 0.56532 0.50174 0.0
H521 H 0.80831 0.56621 0.42708 0.0
C522 C 0.78686 0.56557 0.53322 0.0
C523 C 0.78056 0.56547 0.46298 0.0
C524 C 0.76573 0.56422 0.42805 0.0
C525 C 0.8084 0.56582 0.52701 0.0
C526 C 0.81625 0.5662 0.48825 0.0
C527 C 0.80229 0.56609 0.45676 0.0
C528 C 0.83835 0.56558 0.47967 0.0
C529 C 0.82218 0.56491 0.56192 0.0
C530 C 0.86065 0.58414 0.49184 0.0
C531 C 0.88138 0.58331 0.48362 0.0
C532 C 0.88015 0.56397 0.46282 0.0
C533 C 0.85777 0.54551 0.45045 0.0
C534 C 0.83709 0.54635 0.45874 0.0
H535 H 0.8111 0.55917 0.58888 0.0
H536 H 0.82906 0.55253 0.55654 0.0
H537 H 0.83764 0.58294 0.56724 0.0
H538 H 0.86204 0.59935 0.50744 0.0
H539 H 0.89835 0.59788 0.49336 0.0
H540 H 0.29884 0.83954 0.83842 0.0
H541 H 0.25988 0.8092 0.86193 0.0
H542 H 0.22602 0.82559 0.7679 0.0
H543 H 0.26526 0.856 0.74354 0.0
H544 H 0.21975 0.81188 0.88561 0.0
H545 H 0.20105 0.75377 0.75462 0.0
H546 H 0.23038 0.77851 0.76474 0.0
H547 H 0.20751 0.78384 0.74632 0.0
C548 C 0.28316 0.83687 0.82274 0.0
C549 C 0.28518 0.85006 0.78885 0.0
C550 C 0.26087 0.81954 0.83633 0.0
C551 C 0.2401 0.81495 0.81638 0.0
C552 C 0.24189 0.82862 0.78333 0.0
H553 H 0.10335 0.68707 0.87893 0.0
H554 H 0.13035 0.726 0.84919 0.0
C555 C 0.26429 0.84605 0.7696 0.0
C556 C 0.21691 0.79509 0.82989 0.0
H557 H 0.17476 0.73784 0.80764 0.0
C558 C 0.20963 0.79585 0.8683 0.0
C559 C 0.2037 0.77424 0.80717 0.0
C560 C 0.21101 0.77231 0.76599 0.0
C561 C 0.19027 0.77586 0.88533 0.0
C562 C 0.17806 0.75456 0.86348 0.0
C563 C 0.18425 0.75426 0.82424 0.0
C564 C 0.16119 0.73171 0.88236 0.0
C565 C 0.18359 0.77736 0.9271 0.0
C566 C 0.16974 0.72204 0.91041 0.0
C567 C 0.15456 0.69988 0.92706 0.0
C568 C 0.13045 0.6869 0.91605 0.0
C569 C 0.12182 0.69669 0.88811 0.0
C570 C 0.13716 0.71888 0.87112 0.0
H571 H 0.18967 0.79607 0.9358 0.0
H572 H 0.16401 0.76652 0.93144 0.0
H573 H 0.19225 0.77033 0.94681 0.0
H574 H 0.18833 0.7315 0.91894 0.0
H575 H 0.16179 0.69287 0.94846 0.0
H576 H 0.58641 0.04913 0.87941 0.0
H577 H 0.56078 0.04915 0.93207 0.0
H578 H 0.56149 0.11017 0.88012 0.0
H579 H 0.58643 0.10974 0.82672 0.0
H580 H 0.56628 0.07966 0.98705 0.0
H581 H 0.49137 0.068 0.89406 0.0
H582 H 0.51565 0.06486 0.87513 0.0
H583 H 0.51883 0.09398 0.88066 0.0
C584 C 0.58111 0.06257 0.87913 0.0
C585 C 0.58841 0.07933 0.84854 0.0
C586 C 0.56638 0.06254 0.90933 0.0
C587 C 0.55859 0.0793 0.90985 0.0
C588 C 0.56649 0.09653 0.87996 0.0
H589 H 0.50459 0.11372 0.11939 0.0
H590 H 0.52792 0.11329 0.0636 0.0
C591 C 0.58101 0.09642 0.84954 0.0
C592 C 0.54272 0.07907 0.9421 0.0
H593 H 0.4906 0.07886 0.96062 0.0
C594 C 0.54969 0.07938 0.98115 0.0
C595 C 0.52073 0.07821 0.93481 0.0
C596 C 0.51106 0.07598 0.89391 0.0
C597 C 0.53571 0.07936 0.0128 0.0
C598 C 0.51437 0.0798 1.00548 0.0
C599 C 0.50709 0.07892 0.96646 0.0
C600 C 0.49941 0.08107 0.0379 0.0
C601 C 0.54379 0.07831 0.0538 0.0
C602 C 0.47505 0.06395 0.04118 0.0
C603 C 0.46141 0.06444 0.07286 0.0
C604 C 0.47186 0.08206 0.10205 0.0
C605 C 0.49597 0.09973 0.09776 0.0
C606 C 0.50946 0.09937 0.06596 0.0
H607 H 0.55561 0.07044 0.05419 0.0
H608 H 0.55409 0.09665 0.06574 0.0
H609 H 0.52839 0.06763 0.07341 0.0
H610 H 0.46671 0.04976 0.01981 0.0
H611 H 0.44293 0.05054 0.07519 0.0
H612 H 0.42892 0.58444 0.22759 0.0
H613 H 0.41459 0.56503 0.29092 0.0
H614 H 0.48686 0.58841 0.32623 0.0
H615 H 0.50119 0.60714 0.26171 0.0
H616 H 0.45984 0.54588 0.35373 0.0
H617 H 0.41398 0.59576 0.39021 0.0
H618 H 0.40237 0.57938 0.34571 0.0
H619 H 0.43305 0.60295 0.348 0.0
C620 C 0.44181 0.58546 0.24881 0.0
C621 C 0.46627 0.59762 0.23955 0.0
C622 C 0.43357 0.5745 0.28538 0.0
C623 C 0.44956 0.57583 0.31448 0.0
C624 C 0.47402 0.58725 0.30479 0.0
H625 H 0.40028 0.53922 0.56014 0.0
H626 H 0.4183 0.56036 0.49872 0.0
C627 C 0.48226 0.59792 0.26776 0.0
C628 C 0.44063 0.56505 0.3545 0.0
H629 H 0.40347 0.56119 0.4293 0.0
C630 C 0.44766 0.54944 0.37027 0.0
C631 C 0.42512 0.56991 0.37718 0.0
C632 C 0.41843 0.58813 0.3646 0.0
C633 C 0.43916 0.53812 0.40688 0.0
C634 C 0.42234 0.5417 0.42825 0.0
C635 C 0.41594 0.55791 0.41306 0.0
C636 C 0.41114 0.52878 0.46604 0.0
C637 C 0.44887 0.52288 0.42253 0.0
C638 C 0.40042 0.50382 0.4686 0.0
C639 C 0.39045 0.49178 0.50386 0.0
C640 C 0.39024 0.50418 0.53766 0.0
C641 C 0.4001 0.52905 0.53485 0.0
C642 C 0.41046 0.54117 0.49958 0.0
H643 H 0.46693 0.52867 0.41067 0.0
H644 H 0.44994 0.52354 0.45497 0.0
H645 H 0.43706 0.50414 0.41329 0.0
H646 H 0.39965 0.49348 0.44318 0.0
H647 H 0.38276 0.4726 0.50455 0.0
H648 H 0.89958 0.40993 0.81106 0.0
H649 H 0.90329 0.43712 0.75881 0.0
H650 H 0.94715 0.41682 0.69297 0.0
H651 H 0.94398 0.38973 0.74602 0.0
H652 H 0.96544 0.46535 0.69207 0.0
H653 H 0.8695 0.42037 0.65501 0.0
H654 H 0.87497 0.42837 0.70574 0.0
H655 H 0.8819 0.40675 0.68598 0.0
C656 C 0.90987 0.41098 0.78537 0.0
C657 C 0.92131 0.39737 0.78276 0.0
C658 C 0.9119 0.42657 0.75532 0.0
C659 C 0.92516 0.42884 0.72146 0.0
C660 C 0.9367 0.41535 0.71867 0.0
H661 H 0.91412 0.49098 0.50445 0.0
H662 H 0.91289 0.46599 0.55831 0.0
C663 C 0.93477 0.39975 0.74895 0.0
C664 C 0.92712 0.44553 0.68946 0.0
H665 H 0.89379 0.45906 0.62823 0.0
C666 C 0.94977 0.46391 0.67796 0.0
C667 C 0.90674 0.44365 0.6707 0.0
C668 C 0.88193 0.42358 0.67967 0.0
C669 C 0.95257 0.48047 0.64864 0.0
C670 C 0.93213 0.47899 0.63073 0.0
C671 C 0.90951 0.46051 0.64214 0.0
C672 C 0.93359 0.49514 0.59808 0.0
C673 C 0.97743 0.49898 0.63642 0.0
C674 C 0.94549 0.52015 0.60214 0.0
C675 C 0.9464 0.53476 0.57084 0.0
C676 C 0.93518 0.52462 0.535 0.0
C677 C 0.92299 0.49959 0.53147 0.0
C678 C 0.92224 0.48514 0.56242 0.0
H679 H 0.99084 0.49401 0.64554 0.0
H680 H 0.97858 0.50158 0.60421 0.0
H681 H 0.98216 0.51623 0.65049 0.0
H682 H 0.95394 0.52839 0.62958 0.0
H683 H 0.95587 0.55392 0.57469 0.0
H684 H 0.38868 0.84259 0.92119 0.0
H685 H 0.41115 0.85114 0.98134 0.0
H686 H 0.44037 0.92639 0.96262 0.0
H687 H 0.41806 0.91814 0.90114 0.0
H688 H 0.46151 0.87841 0.99149 0.0
H689 H 0.41449 0.9155 0.07722 0.0
H690 H 0.40197 0.89806 0.03336 0.0
H691 H 0.42554 0.92846 0.02982 0.0
C692 C 0.39987 0.86108 0.92908 0.0
C693 C 0.40135 0.87961 0.90517 0.0
C694 C 0.41277 0.86591 0.96408 0.0
C695 C 0.42743 0.88939 0.97699 0.0
C696 C 0.42896 0.90805 0.95371 0.0
H697 H 0.53593 0.9341 0.16121 0.0
H698 H 0.51396 0.92953 0.10059 0.0
C699 C 0.41613 0.90325 0.91829 0.0
C700 C 0.44136 0.89392 0.0143 0.0
H701 H 0.44647 0.91439 0.10844 0.0
C702 C 0.45829 0.88641 0.01694 0.0
C703 C 0.43707 0.9041 0.04788 0.0
C704 C 0.41868 0.91189 0.04733 0.0
C705 C 0.471 0.88888 0.05183 0.0
C706 C 0.46678 0.89913 0.08534 0.0
C707 C 0.44979 0.90656 0.08285 0.0
C708 C 0.47996 0.90225 0.12303 0.0
C709 C 0.48862 0.88011 0.05286 0.0
C710 C 0.46823 0.88862 0.15634 0.0
C711 C 0.48086 0.89104 0.19124 0.0
C712 C 0.50548 0.90743 0.19385 0.0
C713 C 0.51703 0.92129 0.16053 0.0
C714 C 0.50447 0.91867 0.12565 0.0
H715 H 0.48676 0.86881 0.02712 0.0
H716 H 0.50699 0.89564 0.05296 0.0
H717 H 0.48631 0.8697 0.07995 0.0
H718 H 0.44934 0.87582 0.15518 0.0
H719 H 0.47131 0.88012 0.2162 0.0
H720 H 0.45879 0.4071 0.22966 0.0
H721 H 0.48523 0.43114 0.28297 0.0
H722 H 0.54374 0.42831 0.22814 0.0
H723 H 0.51768 0.40507 0.17424 0.0
H724 H 0.51013 0.42426 0.3367 0.0
H725 H 0.57415 0.49851 0.24344 0.0
H726 H 0.54612 0.47502 0.22495 0.0
H727 H 0.57142 0.47065 0.22892 0.0
C728 C 0.47728 0.41155 0.22898 0.0
C729 C 0.48609 0.40427 0.19736 0.0
C730 C 0.49245 0.42538 0.25952 0.0
C731 C 0.51679 0.43222 0.25933 0.0
C732 C 0.52533 0.4241 0.22855 0.0
H733 H 0.60787 0.4832 0.46717 0.0
H734 H 0.58287 0.46014 0.41216 0.0
C735 C 0.51027 0.41053 0.19783 0.0
C736 C 0.53309 0.44753 0.29146 0.0
H737 H 0.58637 0.49827 0.30922 0.0
C738 C 0.52674 0.44049 0.33059 0.0
C739 C 0.55466 0.46907 0.28394 0.0
C740 C 0.56188 0.47891 0.24307 0.0
C741 C 0.5414 0.45396 0.36204 0.0
C742 C 0.56356 0.47481 0.35441 0.0
C743 C 0.56967 0.48214 0.31533 0.0
C744 C 0.58041 0.4894 0.38651 0.0
C745 C 0.53258 0.44591 0.40319 0.0
C746 C 0.58876 0.51402 0.38954 0.0
C747 C 0.6036 0.52746 0.42068 0.0
C748 C 0.61041 0.51658 0.44966 0.0
C749 C 0.60282 0.49217 0.44568 0.0
C750 C 0.58824 0.47884 0.41435 0.0
H751 H 0.51284 0.43471 0.40416 0.0
H752 H 0.54011 0.43497 0.41434 0.0
H753 H 0.53808 0.46134 0.42312 0.0
H754 H 0.58326 0.52277 0.36837 0.0
H755 H 0.60906 0.54619 0.42273 0.0
H756 H 0.06537 0.59396 0.83256 0.0
H757 H 0.06647 0.57351 0.77326 0.0
H758 H 0.11956 0.56066 0.82561 0.0
H759 H 0.11913 0.58195 0.88479 0.0
H760 H 0.13128 0.57325 0.75302 0.0
H761 H 0.03614 0.50423 0.75141 0.0
H762 H 0.03958 0.53344 0.75126 0.0
H763 H 0.04969 0.52371 0.79276 0.0
C764 C 0.07726 0.58674 0.83164 0.0
C765 C 0.09208 0.58958 0.8638 0.0
C766 C 0.0777 0.57476 0.79765 0.0
C767 C 0.0926 0.56479 0.79489 0.0
C768 C 0.10769 0.5679 0.82679 0.0
H769 H 0.07536 0.47023 0.59334 0.0
H770 H 0.07643 0.4847 0.66044 0.0
C771 C 0.10745 0.58013 0.86075 0.0
C772 C 0.09311 0.55206 0.75826 0.0
H773 H 0.05746 0.50984 0.69106 0.0
C774 C 0.1151 0.55921 0.73983 0.0
C775 C 0.07219 0.53326 0.74096 0.0
C776 C 0.04813 0.52303 0.76038 0.0
C777 C 0.11664 0.54898 0.70424 0.0
C778 C 0.09555 0.53141 0.68553 0.0
C779 C 0.07367 0.52349 0.70477 0.0
C780 C 0.09575 0.52216 0.64516 0.0
C781 C 0.14102 0.55707 0.68727 0.0
C782 C 0.10615 0.53816 0.61389 0.0
C783 C 0.10576 0.52996 0.57583 0.0
C784 C 0.09458 0.50538 0.56732 0.0
C785 C 0.08431 0.48924 0.59865 0.0
C786 C 0.08477 0.49754 0.63706 0.0
H787 H 0.15479 0.56335 0.71059 0.0
H788 H 0.14148 0.54256 0.6707 0.0
H789 H 0.14585 0.57226 0.66715 0.0
H790 H 0.11425 0.55717 0.61872 0.0
H791 H 0.11417 0.54307 0.5529 0.0
H792 H 0.33503 0.95497 0.77365 0.0
H793 H 0.33279 0.9836 0.81779 0.0
H794 H 0.37369 0.9707 0.90394 0.0
H795 H 0.37607 0.94219 0.86023 0.0
H796 H 0.31167 0.97196 0.89203 0.0
H797 H 0.40552 0.04363 0.90233 0.0
H798 H 0.39451 0.02251 0.86235 0.0
H799 H 0.40299 0.01492 0.90799 0.0
C800 C 0.3439 0.95855 0.80175 0.0
C801 C 0.35571 0.94631 0.81357 0.0
C802 C 0.34259 0.97489 0.82684 0.0
C803 C 0.35337 0.97948 0.86377 0.0
C804 C 0.3657 0.96777 0.87515 0.0
H805 H 0.33288 0.98865 0.08933 0.0
H806 H 0.32464 0.98114 0.01995 0.0
C807 C 0.36689 0.95135 0.85028 0.0
C808 C 0.3499 0.99451 0.89245 0.0
H809 H 0.3812 0.03704 0.96064 0.0
C810 C 0.32678 0.98671 0.90639 0.0
C811 C 0.3695 0.01415 0.91035 0.0
C812 C 0.3945 0.02446 0.89465 0.0
C813 C 0.32308 0.99627 0.94075 0.0
C814 C 0.34304 0.01365 0.96168 0.0
C815 C 0.36585 0.02342 0.94499 0.0
C816 C 0.34162 0.01842 1.00364 0.0
C817 C 0.29797 0.98668 0.95544 0.0
C818 C 0.35327 0.04187 0.01788 0.0
C819 C 0.35822 0.0462 0.05777 0.0
C820 C 0.35172 0.02715 0.08389 0.0
C821 C 0.338 0.0037 0.07006 0.0
C822 C 0.33314 -0.00062 0.03024 0.0
H823 H 0.28541 0.98225 0.93057 0.0
H824 H 0.29241 0.96997 0.97201 0.0
H825 H 0.2965 -0.00038 0.9749 0.0
H826 H 0.36 0.05682 0.99786 0.0
H827 H 0.36842 0.06446 0.06782 0.0
H828 H 0.32873 0.32013 0.21169 0.0
H829 H 0.31204 0.31042 0.27827 0.0
H830 H 0.38266 0.35413 0.32587 0.0
H831 H 0.39918 0.36298 0.2602 0.0
H832 H 0.35743 0.31416 0.36834 0.0
H833 H 0.30302 0.35768 0.341 0.0
H834 H 0.29693 0.33198 0.31235 0.0
H835 H 0.32449 0.35944 0.30567 0.0
C836 C 0.34055 0.32742 0.23659 0.0
C837 C 0.36518 0.34236 0.23102 0.0
C838 C 0.33105 0.32191 0.27446 0.0
C839 C 0.34607 0.33178 0.30702 0.0
C840 C 0.37072 0.34611 0.30124 0.0
H841 H 0.36718 0.41304 0.49033 0.0
H842 H 0.3554 0.38852 0.43152 0.0
C843 C 0.38018 0.35123 0.26369 0.0
C844 C 0.33675 0.32949 0.34728 0.0
H845 H 0.31216 0.35425 0.40546 0.0
C846 C 0.34696 0.32231 0.3767 0.0
C847 C 0.32271 0.33974 0.3579 0.0
C848 C 0.31117 0.34776 0.32774 0.0
C849 C 0.34652 0.32831 0.416 0.0
C850 C 0.33469 0.34094 0.426 0.0
C851 C 0.32151 0.34489 0.39738 0.0
C852 C 0.34023 0.35489 0.46262 0.0
C853 C 0.36086 0.32338 0.44552 0.0
C854 C 0.33565 0.34415 0.49969 0.0
C855 C 0.34289 0.3583 0.53342 0.0
C856 C 0.35427 0.38326 0.53039 0.0
C857 C 0.35829 0.39384 0.49335 0.0
C858 C 0.35147 0.37982 0.45983 0.0
H859 H 0.37118 0.31581 0.43177 0.0
H860 H 0.3735 0.34002 0.46109 0.0
H861 H 0.34869 0.31044 0.46753 0.0
H862 H 0.32662 0.32494 0.50252 0.0
H863 H 0.33931 0.3498 0.56183 0.0
H864 H 0.0374 0.3592 0.44111 0.0
H865 H 0.01546 0.32661 0.48777 0.0
H866 H 0.01006 0.3756 0.56683 0.0
H867 H 0.03215 0.40828 0.52094 0.0
H868 H 0.03515 0.34352 0.58832 0.0
H869 H 0.94115 0.29847 0.53739 0.0
H870 H 0.96619 0.31005 0.50403 0.0
H871 H 0.95906 0.3301 0.52888 0.0
C872 C 0.03115 0.36294 0.46815 0.0
C873 C 0.03662 0.38633 0.4776 0.0
C874 C 0.01866 0.34431 0.49462 0.0
C875 C 0.01127 0.34887 0.53044 0.0
C876 C 0.01568 0.37189 0.53909 0.0
H877 H 0.94993 0.34092 0.72111 0.0
H878 H 0.95893 0.33374 0.65553 0.0
C879 C 0.0283 0.39051 0.51294 0.0
C880 C 0.00098 0.33065 0.56121 0.0
H881 H 0.94756 0.29648 0.60582 0.0
C882 C 0.01603 0.33237 0.59195 0.0
C883 C 0.97615 0.31597 0.56503 0.0
C884 C 0.95957 0.31329 0.53204 0.0
C885 C 0.00672 0.32267 0.62873 0.0
C886 C 0.9817 0.31065 0.6342 0.0
C887 C 0.96672 0.30586 0.60161 0.0
C888 C 0.97161 0.3099 0.67332 0.0
C889 C 0.02382 0.32812 0.66235 0.0
C890 C 0.97497 0.29823 0.70522 0.0
C891 C 0.97012 0.30268 0.74326 0.0
C892 C 0.96144 0.31845 0.7496 0.0
C893 C 0.95641 0.32855 0.71728 0.0
C894 C 0.9615 0.32437 0.67962 0.0
H895 H 0.04274 0.33881 0.65308 0.0
H896 H 0.02051 0.33816 0.68551 0.0
H897 H 0.02111 0.31123 0.67525 0.0
H898 H 0.98232 0.28662 0.70091 0.0
H899 H 0.97371 0.29433 0.76771 0.0
H900 H 0.66318 -0.00026 0.21006 0.0
H901 H 0.68687 0.00895 0.14964 0.0
H902 H 0.62199 0.97693 0.08176 0.0
H903 H 0.59858 0.96732 0.14155 0.0
H904 H 0.65438 0.96393 0.05598 0.0
H905 H 0.69781 0.06248 0.07555 0.0
H906 H 0.70197 0.04491 0.11209 0.0
H907 H 0.67329 0.04249 0.10635 0.0
C908 C 0.65414 0.99479 0.1821 0.0
C909 C 0.6291 0.98291 0.18026 0.0
C910 C 0.66763 -2e-05 0.14774 0.0
C911 C 0.65618 0.99368 0.11125 0.0
C912 C 0.6312 0.9817 0.10964 0.0
H913 H 0.63733 0.03719 0.91428 0.0
H914 H 0.65035 0.03116 0.97775 0.0
C915 C 0.61781 0.97628 0.14375 0.0
C916 C 0.66944 0.0005 0.07388 0.0
H917 H 0.69424 0.04804 0.01202 0.0
C918 C 0.66385 0.98236 0.04635 0.0
C919 C 0.68228 0.02458 0.06186 0.0
C920 C 0.68924 0.04484 0.09031 0.0
C921 C 0.66717 0.98742 0.00623 0.0
C922 C 0.67707 0.01135 0.99383 0.0
C923 C 0.68628 0.02969 0.0218 0.0
C924 C 0.67196 0.01708 0.95442 0.0
C925 C 0.65739 0.96695 0.97754 0.0
C926 C 0.67991 0.01133 0.92009 0.0
C927 C 0.67206 0.01443 0.88355 0.0
C928 C 0.65658 0.02373 0.88102 0.0
C929 C 0.64943 0.03023 0.91537 0.0
C930 C 0.65694 0.02685 0.95164 0.0
H931 H 0.64879 0.94933 0.99237 0.0
H932 H 0.64405 0.96769 0.95808 0.0
H933 H 0.67207 0.96829 0.95899 0.0
H934 H 0.69178 0.00412 0.92156 0.0
H935 H 0.67809 0.00965 0.85733 0.0
H936 H 0.68169 0.66793 0.43258 0.0
H937 H 0.67609 0.67827 0.36574 0.0
H938 H 0.64164 0.60398 0.33346 0.0
H939 H 0.6475 0.59372 0.39897 0.0
H940 H 0.66751 0.63258 0.27296 0.0
H941 H 0.60922 0.66358 0.34016 0.0
H942 H 0.64006 0.6794 0.35404 0.0
H943 H 0.62149 0.64881 0.36843 0.0
C944 C 0.67335 0.65395 0.41088 0.0
C945 C 0.66486 0.63003 0.42118 0.0
C946 C 0.67016 0.65985 0.37282 0.0
C947 C 0.65802 0.64181 0.34492 0.0
C948 C 0.65111 0.6182 0.35446 0.0
H949 H 0.54871 0.61079 0.18813 0.0
H950 H 0.57711 0.61429 0.23818 0.0
C951 C 0.65452 0.61236 0.39212 0.0
C952 C 0.64938 0.64641 0.30771 0.0
H953 H 0.60715 0.65832 0.27269 0.0
C954 C 0.65466 0.63866 0.27262 0.0
C955 C 0.63245 0.65416 0.30759 0.0
C956 C 0.62527 0.66182 0.3445 0.0
C957 C 0.64231 0.63699 0.23792 0.0
C958 C 0.62465 0.64369 0.23842 0.0
C959 C 0.62062 0.65303 0.27273 0.0
C960 C 0.60832 0.63904 0.20522 0.0
C961 C 0.6471 0.62665 0.20178 0.0
C962 C 0.61658 0.65114 0.16958 0.0
C963 C 0.60035 0.64892 0.14062 0.0
C964 C 0.57568 0.63486 0.14732 0.0
C965 C 0.5676 0.62183 0.18224 0.0
C966 C 0.58379 0.62386 0.21087 0.0
H967 H 0.6586 0.61883 0.20806 0.0
H968 H 0.63012 0.61266 0.18879 0.0
H969 H 0.65623 0.64093 0.17964 0.0
H970 H 0.63543 0.66317 0.1649 0.0
H971 H 0.60706 0.65931 0.11406 0.0
H972 H 0.98183 0.61363 0.85627 0.0
H973 H 0.97456 0.62936 0.79578 0.0
H974 H 0.04346 0.69277 0.80659 0.0
H975 H 0.05095 0.67684 0.86653 0.0
H976 H 0.9773 0.67345 0.76684 0.0
H977 H 0.04858 0.65686 0.71039 0.0
H978 H 0.03484 0.64612 0.75748 0.0
H979 H 0.05638 0.67711 0.75086 0.0
C980 C 0.99507 0.63119 0.84624 0.0
C981 C 0.01713 0.64382 0.86526 0.0
C982 C 0.9909 0.6402 0.81189 0.0
C983 C 0.00867 0.66202 0.79656 0.0
C984 C 0.0297 0.67576 0.81779 0.0
H985 H 0.01877 0.67861 0.54592 0.0
H986 H 0.0259 0.69394 0.61242 0.0
C987 C 0.034 0.6666 0.85175 0.0
C988 C 0.00696 0.66801 0.75553 0.0
H989 H 0.02801 0.66634 0.66504 0.0
C990 C 0.98863 0.67237 0.74449 0.0
C991 C 0.02187 0.66666 0.72661 0.0
C992 C 0.04144 0.66129 0.73668 0.0
C993 C 0.98419 0.67444 0.70487 0.0
C994 C -0.00184 0.67156 0.6759 0.0
C995 C 0.01739 0.6687 0.68724 0.0
C996 C 0.99125 0.66748 0.63414 0.0
C997 C 0.96427 0.67911 0.6945 0.0
C998 C 0.96895 0.64825 0.62373 0.0
C999 C 0.96467 0.63959 0.58549 0.0
C1000 C 0.98281 0.64962 0.55712 0.0
C1001 C 0.00439 0.67022 0.56684 0.0
C1002 C 0.00852 0.6791 0.60499 0.0
H1003 H 0.96235 0.69036 0.71714 0.0
H1004 H 0.96727 0.68805 0.66565 0.0
H1005 H 0.94723 0.66191 0.69341 0.0
H1006 H 0.95544 0.63867 0.64573 0.0
H1007 H 0.94755 0.62422 0.5789 0.0
H1008 H 0.47579 0.02982 0.23201 0.0
H1009 H 0.48036 0.01171 0.29154 0.0
H1010 H 0.40943 0.99345 0.32819 0.0
H1011 H 0.40444 0.01069 0.26755 0.0
H1012 H 0.47567 0.03153 0.36883 0.0
H1013 H 0.41593 0.93364 0.35425 0.0
H1014 H 0.42388 0.95086 0.30972 0.0
H1015 H 0.40584 0.95469 0.34568 0.0
C1016 C 0.46078 0.02085 0.2518 0.0
C1017 C 0.43978 0.02141 0.24526 0.0
C1018 C 0.46352 0.011 0.28612 0.0
C1019 C 0.44548 0.00201 0.31464 0.0
C1020 C 0.42361 0.00056 0.30668 0.0
H1021 H 0.50834 0.93069 0.39397 0.0
H1022 H 0.48798 0.94934 0.42541 0.0
C1023 C 0.42067 0.01001 0.27177 0.0
C1024 C 0.45083 0.99516 0.35266 0.0
H1025 H 0.45446 0.94706 0.38079 0.0
C1026 C 0.47047 0.01296 0.3732 0.0
C1027 C 0.44314 0.97104 0.36026 0.0
C1028 C 0.42092 0.95134 0.34164 0.0
C1029 C 0.48605 0.0074 0.3927 0.0
C1030 C 0.48144 0.98372 0.39122 0.0
C1031 C 0.4586 0.96549 0.3802 0.0
C1032 C 0.50106 0.97872 0.38461 0.0
C1033 C 0.50897 0.02727 0.40915 0.0
C1034 C 0.51643 0.98988 0.3526 0.0
C1035 C 0.52797 0.97916 0.33434 0.0
C1036 C 0.52401 0.95707 0.34766 0.0
C1037 C 0.51104 0.94744 0.38243 0.0
C1038 C 0.49972 0.95826 0.4009 0.0
H1039 H 0.50552 0.04015 0.42524 0.0
H1040 H 0.51768 0.02039 0.42912 0.0
H1041 H 0.52137 0.03714 0.3848 0.0
H1042 H 0.51743 0.00543 0.33887 0.0
H1043 H 0.53815 0.98703 0.30791 0.0
H1044 H 0.42228 0.51666 0.72751 0.0
H1045 H 0.46254 0.53792 0.75454 0.0
H1046 H 0.48303 0.49785 0.67879 0.0
H1047 H 0.44267 0.47616 0.65214 0.0
H1048 H 0.50733 0.51154 0.75674 0.0
H1049 H 0.50966 0.58753 0.67614 0.0
H1050 H 0.48907 0.57273 0.71567 0.0
H1051 H 0.48415 0.55833 0.66888 0.0
C1052 C 0.4353 0.51211 0.71706 0.0
C1053 C 0.42969 0.49532 0.68679 0.0
C1054 C 0.45817 0.52411 0.7329 0.0
C1055 C 0.47571 0.51964 0.71835 0.0
C1056 C 0.46958 0.50143 0.69056 0.0
H1057 H 0.56052 0.51275 0.5977 0.0
H1058 H 0.53858 0.51495 0.65389 0.0
C1059 C 0.44665 0.48924 0.67498 0.0
C1060 C 0.50117 0.53661 0.72467 0.0
H1061 H 0.54185 0.58089 0.66696 0.0
C1062 C 0.51534 0.52752 0.73888 0.0
C1063 C 0.51196 0.55821 0.70329 0.0
C1064 C 0.49806 0.56998 0.69021 0.0
C1065 C 0.5385 0.53637 0.72461 0.0
C1066 C 0.54675 0.55386 0.69492 0.0
C1067 C 0.53491 0.56665 0.68842 0.0
C1068 C 0.56134 0.55307 0.66247 0.0
C1069 C 0.55256 0.52474 0.73725 0.0
C1070 C 0.58018 0.57399 0.64674 0.0
C1071 C 0.59204 0.57284 0.61342 0.0
C1072 C 0.58525 0.55073 0.59562 0.0
C1073 C 0.56587 0.52999 0.61061 0.0
C1074 C 0.55385 0.5312 0.64344 0.0
H1075 H 0.55111 0.52196 0.76944 0.0
H1076 H 0.54502 0.50693 0.72332 0.0
H1077 H 0.57168 0.53564 0.72914 0.0
H1078 H 0.58585 0.59108 0.66046 0.0
H1079 H 0.60739 0.58906 0.60305 0.0
H1080 H 0.97736 0.44329 0.90871 0.0
H1081 H 0.99696 0.46543 0.96811 0.0
H1082 H 0.00093 0.40509 0.01201 0.0
H1083 H 0.98218 0.38312 0.95147 0.0
H1084 H 0.97172 0.43948 0.04899 0.0
H1085 H 0.06821 0.47165 0.03405 0.0
H1086 H 0.05249 0.46605 0.98831 0.0
H1087 H 0.04535 0.4417 0.02114 0.0
C1088 C 0.9836 0.43528 0.93007 0.0
C1089 C 0.97879 0.41185 0.92545 0.0
C1090 C 0.99433 0.44766 0.96419 0.0
C1091 C -0.00015 0.43654 0.99444 0.0
C1092 C 0.9967 0.41376 0.98885 0.0
H1093 H 0.07615 0.57224 0.06403 0.0
H1094 H 0.05776 0.53377 0.09717 0.0
C1095 C 0.9864 0.4015 0.95412 0.0
C1096 C 0.00748 0.44903 0.03206 0.0
H1097 H 0.05723 0.50053 0.05545 0.0
C1098 C 0.99052 0.45235 0.05242 0.0
C1099 C 0.03188 0.46492 0.03827 0.0
C1100 C 0.05062 0.46084 0.01963 0.0
C1101 C 0.99724 0.47424 0.07035 0.0
C1102 C 0.02118 0.49264 0.06715 0.0
C1103 C 0.0386 0.48678 0.05628 0.0
C1104 C 0.02701 0.51739 0.05911 0.0
C1105 C 0.97826 0.47866 0.08704 0.0
C1106 C 0.01516 0.52141 0.02796 0.0
C1107 C 0.02567 0.54338 0.00884 0.0
C1108 C 0.0483 0.5614 0.02026 0.0
C1109 C 0.05892 0.55826 0.05397 0.0
C1110 C 0.04828 0.53644 0.07339 0.0
H1111 H 0.96553 0.46313 0.10487 0.0
H1112 H 0.98604 0.49497 0.10546 0.0
H1113 H 0.96796 0.48062 0.06282 0.0
H1114 H -0.00099 0.50691 0.01564 0.0
H1115 H 0.01707 0.54553 0.98323 0.0
H1116 H 0.0557 0.44992 0.29831 0.0
H1117 H 0.04886 0.47723 0.25834 0.0
H1118 H 0.01652 0.49127 0.35757 0.0
H1119 H 0.02421 0.46484 0.39809 0.0
H1120 H -0.00209 0.49081 0.26927 0.0
H1121 H 0.09389 0.5501 0.30187 0.0
H1122 H 0.08229 0.52094 0.28004 0.0
H1123 H 0.0789 0.52369 0.33165 0.0
C1124 C 0.04616 0.45801 0.31115 0.0
C1125 C 0.04059 0.45547 0.35141 0.0
C1126 C 0.04234 0.47362 0.28818 0.0
C1127 C 0.03234 0.48626 0.30513 0.0
C1128 C 0.02423 0.48154 0.34405 0.0
H1129 H 0.00059 0.53749 0.42858 0.0
H1130 H 0.02415 0.53182 0.37836 0.0
C1131 C 0.0286 0.46647 0.36722 0.0
C1132 C 0.03467 0.50786 0.28685 0.0
H1133 H 0.06728 0.5649 0.3188 0.0
C1134 C 0.01353 0.50756 0.2772 0.0
C1135 C 0.05529 0.52982 0.29559 0.0
C1136 C 0.07901 0.53135 0.30253 0.0
C1137 C 0.01107 0.52742 0.2854 0.0
C1138 C 0.02995 0.54713 0.30469 0.0
C1139 C 0.0526 0.5494 0.30513 0.0
C1140 C 0.02374 0.5574 0.33794 0.0
C1141 C 0.98692 0.5253 0.28107 0.0
C1142 C 0.01716 0.57476 0.33264 0.0
C1143 C 0.00437 0.57851 0.36201 0.0
C1144 C -0.00232 0.56453 0.39619 0.0
C1145 C 0.00598 0.54867 0.40273 0.0
C1146 C 0.01933 0.54545 0.37401 0.0
H1147 H 0.97562 0.51124 0.25965 0.0
H1148 H 0.97768 0.52065 0.30982 0.0
H1149 H 0.98883 0.54255 0.27148 0.0
H1150 H 0.02017 0.58389 0.30486 0.0
H1151 H -0.00232 0.59058 0.35638 0.0
H1152 H 0.4376 0.93143 0.73934 0.0
H1153 H 0.47069 0.93938 0.69563 0.0
H1154 H 0.4241 0.92108 0.59559 0.0
H1155 H 0.39117 0.91363 0.63899 0.0
H1156 H 0.4786 0.91218 0.6305 0.0
H1157 H 0.47491 0.9914 0.57758 0.0
H1158 H 0.45648 0.97625 0.61925 0.0
H1159 H 0.45021 0.96145 0.5726 0.0
C1160 C 0.43451 0.92926 0.70807 0.0
C1161 C 0.4122 0.923 0.69243 0.0
C1162 C 0.4532 0.93329 0.68317 0.0
C1163 C 0.4497 0.9307 0.6424 0.0
C1164 C 0.42713 0.92328 0.62687 0.0
H1165 H 0.58003 0.04669 0.65201 0.0
H1166 H 0.55341 0.01691 0.60566 0.0
C1167 C 0.40853 0.91956 0.65171 0.0
C1168 C 0.47088 0.94017 0.61721 0.0
H1169 H 0.51182 0.99794 0.60203 0.0
C1170 C 0.48603 0.93072 0.6222 0.0
C1171 C 0.48043 0.96367 0.60313 0.0
C1172 C 0.46472 0.97384 0.59239 0.0
C1173 C 0.51073 0.94601 0.62383 0.0
C1174 C 0.51962 0.97084 0.62195 0.0
C1175 C 0.50498 0.97903 0.60618 0.0
C1176 C 0.5397 0.98765 0.64703 0.0
C1177 C 0.52665 0.93574 0.63196 0.0
C1178 C 0.54115 0.98134 0.68605 0.0
C1179 C 0.55657 -0.00157 0.71268 0.0
C1180 C 0.57008 0.02225 0.7011 0.0
C1181 C 0.56911 0.02851 0.66206 0.0
C1182 C 0.55417 0.0114 0.6353 0.0
H1183 H 0.5221 0.92062 0.61177 0.0
H1184 H 0.54579 0.94924 0.62833 0.0
H1185 H 0.52349 0.92849 0.66217 0.0
H1186 H 0.52946 0.96348 0.69676 0.0
H1187 H 0.55731 0.99323 0.74254 0.0
H1188 H 0.47429 0.59671 1.00478 0.0
H1189 H 0.45078 0.56275 0.96098 0.0
H1190 H 0.4897 0.5291 1.00337 0.0
H1191 H 0.51358 0.56336 0.04564 0.0
H1192 H 0.47969 0.52314 0.91933 0.0
H1193 H 0.39765 0.49988 1.00297 0.0
H1194 H 0.41409 0.5274 0.9761 0.0
H1195 H 0.42455 0.52408 0.02318 0.0
C1196 C 0.4776 0.58189 1.00446 0.0
C1197 C 0.49506 0.58194 0.02889 0.0
C1198 C 0.46443 0.56276 0.97926 0.0
C1199 C 0.46858 0.54353 0.97867 0.0
C1200 C 0.48648 0.544 1.00278 0.0
H1201 H 0.48558 0.45526 0.05342 0.0
H1202 H 0.4815 0.4806 1.00493 0.0
C1203 C 0.4998 0.56321 0.02747 0.0
C1204 C 0.45255 0.52113 0.95815 0.0
H1205 H 0.41054 0.47119 1.00293 0.0
C1206 C 0.46373 0.51135 0.93574 0.0
C1207 C 0.43062 0.50556 0.97633 0.0
C1208 C 0.41578 0.51465 0.99566 0.0
C1209 C 0.45835 0.48788 0.94263 0.0
C1210 C 0.44082 0.47435 0.97102 0.0
C1211 C 0.42503 0.48203 0.98307 0.0
C1212 C 0.44332 0.45748 0.99703 0.0
C1213 C 0.47374 0.47929 0.92373 0.0
C1214 C 0.42312 0.43691 0.01081 0.0
C1215 C 0.42535 0.42329 0.04026 0.0
C1216 C 0.44785 0.42979 0.05594 0.0
C1217 C 0.46805 0.45018 0.04211 0.0
C1218 C 0.46574 0.4642 0.0135 0.0
H1219 H 0.47389 0.48169 0.89153 0.0
H1220 H 0.49241 0.49034 0.93401 0.0
H1221 H 0.46754 0.46029 0.93015 0.0
H1222 H 0.40563 0.43148 0.99898 0.0
H1223 H 0.40956 0.40714 0.04966 0.0
H1224 H 0.33133 0.97112 0.61134 0.0
H1225 H 0.34571 0.99548 0.55233 0.0
H1226 H 0.36632 0.94689 0.50402 0.0
H1227 H 0.35266 0.92286 0.56402 0.0
H1228 H 0.3993 0.99031 0.48788 0.0
H1229 H 0.31348 0.98402 0.44986 0.0
H1230 H 0.32321 0.99662 0.49758 0.0
H1231 H 0.31595 0.96631 0.48824 0.0
C1232 C 0.33867 0.96544 0.58802 0.0
C1233 C 0.3405 0.94478 0.59229 0.0
C1234 C 0.34684 0.97939 0.55405 0.0
C1235 C 0.35655 0.97281 0.52285 0.0
C1236 C 0.35876 0.95238 0.52733 0.0
H1237 H 0.37291 0.03001 0.28642 0.0
H1238 H 0.3592 0.00743 0.34721 0.0
C1239 C 0.35094 0.9386 0.56167 0.0
C1240 C 0.36474 0.98747 0.48607 0.0
H1241 H 0.34765 0.01355 0.41576 0.0
C1242 C 0.38791 0.99525 0.47202 0.0
C1243 C 0.34991 0.99374 0.46464 0.0
C1244 C 0.32419 0.98451 0.47561 0.0
C1245 C 0.39669 0.00922 0.43784 0.0
C1246 C 0.38224 0.01648 0.41753 0.0
C1247 C 0.35899 0.00844 0.43135 0.0
C1248 C 0.39035 0.03142 0.38102 0.0
C1249 C 0.42116 0.01542 0.42348 0.0
C1250 C 0.41213 0.05308 0.37954 0.0
C1251 C 0.42019 0.06599 0.34442 0.0
C1252 C 0.4064 0.05789 0.31005 0.0
C1253 C 0.38396 0.03701 0.31224 0.0
C1254 C 0.37613 0.02393 0.34713 0.0
H1255 H 0.42616 0.00218 0.43357 0.0
H1256 H 0.42224 0.0163 0.39109 0.0
H1257 H 0.43451 0.03305 0.43541 0.0
H1258 H 0.42319 0.05984 0.40538 0.0
H1259 H 0.43758 0.08194 0.34393 0.0
H1260 H 0.43757 0.3665 0.96196 0.0
H1261 H 0.42133 0.37719 0.90584 0.0
H1262 H 0.36127 0.3664 0.97562 0.0
H1263 H 0.37674 0.35462 0.03107 0.0
H1264 H 0.34669 0.35287 0.90396 0.0
H1265 H 0.43443 0.41803 0.88573 0.0
H1266 H 0.42401 0.4201 0.93362 0.0
H1267 H 0.42793 0.44132 0.89615 0.0
C1268 C 0.42056 0.36574 0.96509 0.0
C1269 C 0.40857 0.35971 1.00131 0.0
C1270 C 0.41144 0.37226 0.93304 0.0
C1271 C 0.3904 0.37346 0.93661 0.0
C1272 C 0.37763 0.36592 0.97194 0.0
H1273 H 0.36049 0.46258 0.77901 0.0
H1274 H 0.36688 0.44468 0.83782 0.0
C1275 C 0.38651 0.35904 1.00375 0.0
C1276 C 0.38211 0.3834 0.9044 0.0
H1277 H 0.40013 0.43189 0.84465 0.0
C1278 C 0.35841 0.3702 0.89116 0.0
C1279 C 0.39706 0.40625 0.88788 0.0
C1280 C 0.42218 0.42232 0.90188 0.0
C1281 C 0.34953 0.37892 0.86161 0.0
C1282 C 0.36482 0.40134 0.8441 0.0
C1283 C 0.38832 0.4147 0.85784 0.0
C1284 C 0.35736 0.41093 0.81035 0.0
C1285 C 0.32371 0.36411 0.84993 0.0
C1286 C 0.34931 0.39786 0.77542 0.0
C1287 C 0.34546 0.40797 0.74197 0.0
C1288 C 0.34973 0.43156 0.74229 0.0
C1289 C 0.35667 0.44428 0.77777 0.0
C1290 C 0.36055 0.43411 0.81136 0.0
H1291 H 0.3128 0.35208 0.87403 0.0
H1292 H 0.31611 0.37551 0.84153 0.0
H1293 H 0.32227 0.35281 0.82448 0.0
H1294 H 0.3472 0.38023 0.77329 0.0
H1295 H 0.34032 0.39766 0.71516 0.0
H1296 H 0.92194 0.35808 0.01256 0.0
H1297 H 0.94434 0.36096 0.07148 0.0
H1298 H 0.97163 0.31962 0.01603 0.0
H1299 H 0.94999 0.31756 0.95602 0.0
H1300 H 0.94592 0.3314 0.12265 0.0
H1301 H 0.03268 0.37772 0.04509 0.0
H1302 H 0.00505 0.37017 0.02109 0.0
H1303 H 0.01364 0.34795 0.02766 0.0
C1304 C 0.93231 0.34916 0.01298 0.0
C1305 C 0.93418 0.33764 0.97933 0.0
C1306 C 0.94527 0.35094 0.0468 0.0
C1307 C 0.96027 0.34108 0.04804 0.0
C1308 C 0.9608 0.32804 0.0155 0.0
H1309 H 0.05687 0.35142 0.23916 0.0
H1310 H 0.03215 0.33882 0.17971 0.0
C1311 C 0.94811 0.32655 0.98135 0.0
C1312 C 0.97574 0.34524 0.083 0.0
H1313 H 0.03385 0.36951 0.11242 0.0
C1314 C 0.96513 0.33966 0.12028 0.0
C1315 C 0.00092 0.35607 0.08017 0.0
C1316 C 0.01378 0.36355 0.04141 0.0
C1317 C 0.97887 0.3448 0.15454 0.0
C1318 C 0.00396 0.35593 0.15166 0.0
C1319 C 0.0146 0.36093 0.11452 0.0
C1320 C 0.01944 0.36376 0.18702 0.0
C1321 C 0.96646 0.33843 0.19371 0.0
C1322 C 0.02084 0.38223 0.2104 0.0
C1323 C 0.03499 0.38952 0.24409 0.0
C1324 C 0.04811 0.3785 0.25532 0.0
C1325 C 0.04692 0.36018 0.2315 0.0
C1326 C 0.03286 0.35301 0.1975 0.0
H1327 H 0.94717 0.32522 0.19082 0.0
H1328 H 0.97475 0.33107 0.21359 0.0
H1329 H 0.9682 0.35475 0.20748 0.0
H1330 H 0.01083 0.39094 0.20268 0.0
H1331 H 0.03508 0.4034 0.26184 0.0
H1332 H 0.63312 0.07535 0.619 0.0
H1333 H 0.62526 0.0491 0.56271 0.0
H1334 H 0.64763 0.0072 0.62928 0.0
H1335 H 0.65603 0.03362 0.68543 0.0
H1336 H 0.66062 0.01023 0.55172 0.0
H1337 H 0.5653 0.98353 0.56475 0.0
H1338 H 0.58446 0.01513 0.55913 0.0
H1339 H 0.58708 0.00034 0.6019 0.0
C1340 C 0.63713 0.06104 0.62137 0.0
C1341 C 0.64512 0.05661 0.657 0.0
C1342 C 0.63229 0.0458 0.58924 0.0
C1343 C 0.63517 0.02571 0.59205 0.0
C1344 C 0.64502 0.02241 0.62643 0.0
H1345 H 0.55256 0.90738 0.43045 0.0
H1346 H 0.57047 0.92924 0.49115 0.0
C1347 C 0.64993 0.03766 0.65854 0.0
C1348 C 0.62635 0.00732 0.5604 0.0
H1349 H 0.57633 0.97018 0.50822 0.0
C1350 C 0.64217 0.0014 0.54227 0.0
C1351 C 0.60209 0.99502 0.54896 0.0
C1352 C 0.58364 -0.00142 0.56991 0.0
C1353 C 0.63461 0.98434 0.51199 0.0
C1354 C 0.61068 0.97334 0.49862 0.0
C1355 C 0.59472 0.97864 0.5179 0.0
C1356 C 0.602 0.95756 0.4633 0.0
C1357 C 0.65233 0.97809 0.49518 0.0
C1358 C 0.61398 0.96558 0.42744 0.0
C1359 C 0.60403 0.95284 0.39295 0.0
C1360 C 0.58149 0.93199 0.39308 0.0
C1361 C 0.57001 0.92322 0.42922 0.0
C1362 C 0.58018 0.93587 0.46396 0.0
H1363 H 0.66575 0.98022 0.51747 0.0
H1364 H 0.64346 0.9595 0.48405 0.0
H1365 H 0.66206 0.99041 0.4707 0.0
H1366 H 0.63042 0.98248 0.42555 0.0
H1367 H 0.61339 0.96029 0.36572 0.0
H1368 H 0.60625 0.68146 0.88966 0.0
H1369 H 0.6185 0.66645 0.83435 0.0
H1370 H 0.59134 0.59861 0.8919 0.0
H1371 H 0.5792 0.61354 0.948 0.0
H1372 H 0.65038 0.65005 0.83138 0.0
H1373 H 0.56116 0.57872 0.78329 0.0
H1374 H 0.56504 0.60148 0.81783 0.0
H1375 H 0.56783 0.5765 0.8336 0.0
C1376 C 0.6029 0.66337 0.8911 0.0
C1377 C 0.59163 0.64889 0.92405 0.0
C1378 C 0.60988 0.65473 0.859 0.0
C1379 C 0.60566 0.63124 0.85838 0.0
C1380 C 0.59442 0.61665 0.89105 0.0
H1381 H 0.63712 0.55007 0.68628 0.0
H1382 H 0.6264 0.56418 0.74506 0.0
C1383 C 0.58749 0.62531 0.92337 0.0
C1384 C 0.61381 0.62252 0.82413 0.0
H1385 H 0.59449 0.58048 0.75134 0.0
C1386 C 0.6381 0.63484 0.8139 0.0
C1387 C 0.59793 0.60264 0.80106 0.0
C1388 C 0.5715 0.58916 0.80916 0.0
C1389 C 0.64695 0.62774 0.78195 0.0
C1390 C 0.63107 0.60797 0.75875 0.0
C1391 C 0.60677 0.59557 0.76903 0.0
C1392 C 0.63923 0.59997 0.72362 0.0
C1393 C 0.67337 0.64125 0.77384 0.0
C1394 C 0.65033 0.61535 0.69172 0.0
C1395 C 0.65667 0.60735 0.65795 0.0
C1396 C 0.65203 0.5837 0.65504 0.0
C1397 C 0.64144 0.56852 0.68747 0.0
C1398 C 0.63503 0.57651 0.72112 0.0
H1399 H 0.68371 0.65123 0.80003 0.0
H1400 H 0.67979 0.62904 0.76426 0.0
H1401 H 0.6771 0.65435 0.75011 0.0
H1402 H 0.65336 0.63337 0.69231 0.0
H1403 H 0.66427 0.61946 0.63343 0.0
H1404 H 0.05779 0.66334 0.04152 0.0
H1405 H 0.03678 0.66132 0.10215 0.0
H1406 H 0.06709 0.62258 0.15723 0.0
H1407 H 0.08905 0.62571 0.0973 0.0
H1408 H 0.00302 0.62334 0.13186 0.0
H1409 H 0.07187 0.66338 0.24658 0.0
H1410 H 0.07934 0.66681 0.19524 0.0
H1411 H 0.07418 0.64041 0.22123 0.0
C1412 C 0.0607 0.65525 0.0671 0.0
C1413 C 0.07532 0.64496 0.06477 0.0
C1414 C 0.04851 0.6539 0.10171 0.0
C1415 C 0.05032 0.6419 0.13467 0.0
C1416 C 0.06579 0.63253 0.13286 0.0
H1417 H 0.93936 0.56157 0.30155 0.0
H1418 H 0.96416 0.57773 0.24368 0.0
C1419 C 0.07841 0.63433 0.09845 0.0
C1420 C 0.03405 0.63685 0.1689 0.0
H1421 H 0.03184 0.63649 0.26891 0.0
C1422 C 0.00946 0.62661 0.16178 0.0
C1423 C 0.04221 0.64126 0.20815 0.0
C1424 C 0.06837 0.65381 0.21821 0.0
C1425 C 0.99289 0.62005 0.19249 0.0
C1426 C 0.00092 0.62301 0.23172 0.0
C1427 C 0.02555 0.63396 0.23893 0.0
C1428 C 0.9841 0.61388 0.2656 0.0
C1429 C 0.96695 0.61013 0.18238 0.0
C1430 C 0.98687 0.6287 0.29764 0.0
C1431 C 0.97278 0.61937 0.3313 0.0
C1432 C 0.95561 0.59499 0.33366 0.0
C1433 C 0.95208 0.5805 0.30073 0.0
C1434 C 0.96632 0.58976 0.26738 0.0
H1435 H 0.96491 0.61691 0.15362 0.0
H1436 H 0.95813 0.59043 0.18022 0.0
H1437 H 0.95759 0.61476 0.20494 0.0
H1438 H 0.00048 0.64736 0.29712 0.0
H1439 H 0.97623 0.63101 0.3562 0.0
H1440 H 0.55996 0.14588 0.29991 0.0
H1441 H 0.57989 0.15106 0.36316 0.0
H1442 H 0.5116 0.10941 0.41927 0.0
H1443 H 0.4916 0.10465 0.35676 0.0
H1444 H 0.54468 0.15409 0.45738 0.0
H1445 H 0.58311 0.09606 0.4228 0.0
H1446 H 0.58818 0.11901 0.38805 0.0
H1447 H 0.55854 0.09461 0.39557 0.0
C1448 C 0.54923 0.13798 0.32579 0.0
C1449 C 0.52423 0.12471 0.3233 0.0
C1450 C 0.56062 0.14082 0.36174 0.0
C1451 C 0.54714 0.13046 0.3956 0.0
C1452 C 0.52224 0.11746 0.39331 0.0
H1453 H 0.57326 0.08949 0.61673 0.0
H1454 H 0.56114 0.09376 0.55107 0.0
C1455 C 0.51087 0.11457 0.3575 0.0
C1456 C 0.55877 0.13286 0.43368 0.0
H1457 H 0.59026 0.11297 0.48567 0.0
C1458 C 0.55489 0.14536 0.46361 0.0
C1459 C 0.5718 0.12119 0.44144 0.0
C1460 C 0.57562 0.1068 0.41047 0.0
C1461 C 0.56327 0.14603 0.50166 0.0
C1462 C 0.57612 0.13415 0.50955 0.0
C1463 C 0.58051 0.12216 0.47931 0.0
C1464 C 0.58343 0.13216 0.5496 0.0
C1465 C 0.5574 0.15847 0.53342 0.0
C1466 C 0.5999 0.15239 0.5705 0.0
C1467 C 0.60682 0.14999 0.60819 0.0
C1468 C 0.59756 0.1273 0.62518 0.0
C1469 C 0.58095 0.10715 0.60415 0.0
C1470 C 0.57397 0.10956 0.56672 0.0
H1471 H 0.54342 0.1626 0.5241 0.0
H1472 H 0.55122 0.14737 0.56029 0.0
H1473 H 0.57366 0.1755 0.54094 0.0
H1474 H 0.60766 0.16994 0.55745 0.0
H1475 H 0.61987 0.16576 0.62358 0.0
H1476 H 0.36734 0.5204 0.79294 0.0
H1477 H 0.38581 0.54609 0.84962 0.0
H1478 H 0.39887 0.60746 0.78142 0.0
H1479 H 0.38051 0.5818 0.72431 0.0
H1480 H 0.43437 0.58305 0.84323 0.0
H1481 H 0.37485 0.61746 0.89029 0.0
H1482 H 0.36419 0.59023 0.86252 0.0
H1483 H 0.38116 0.61853 0.83875 0.0
C1484 C 0.37387 0.53932 0.79011 0.0
C1485 C 0.37277 0.54913 0.75403 0.0
C1486 C 0.38423 0.55393 0.82258 0.0
C1487 C 0.39356 0.57862 0.8197 0.0
C1488 C 0.39138 0.58839 0.78437 0.0
H1489 H 0.51129 0.67352 0.9666 0.0
H1490 H 0.48292 0.66042 0.91243 0.0
C1491 C 0.38095 0.57371 0.75177 0.0
C1492 C 0.40847 0.59419 0.85185 0.0
H1493 H 0.41214 0.63321 0.92258 0.0
C1494 C 0.42954 0.59406 0.86053 0.0
C1495 C 0.40203 0.60847 0.87423 0.0
C1496 C 0.37926 0.60869 0.86633 0.0
C1497 C 0.44432 0.60765 0.89127 0.0
C1498 C 0.43807 0.62213 0.91358 0.0
C1499 C 0.41698 0.62234 0.905 0.0
C1500 C 0.45278 0.63575 0.94741 0.0
C1501 C 0.46632 0.60599 0.90004 0.0
C1502 C 0.44471 0.62758 0.98545 0.0
C1503 C 0.46084 0.63523 0.01661 0.0
C1504 C 0.48524 0.65089 0.00984 0.0
C1505 C 0.49264 0.66121 0.97259 0.0
C1506 C 0.47647 0.65376 0.9416 0.0
H1507 H 0.46543 0.58994 0.88659 0.0
H1508 H 0.48219 0.62196 0.88804 0.0
H1509 H 0.4689 0.60549 0.93203 0.0
H1510 H 0.42645 0.61369 0.99044 0.0
H1511 H 0.45457 0.62699 0.04499 0.0
H1512 H 0.90231 0.38735 0.03599 0.0
H1513 H 0.90249 0.40362 0.10027 0.0
H1514 H 0.86279 0.43541 0.05447 0.0
H1515 H 0.8632 0.41977 0.98928 0.0
H1516 H 0.90272 0.46628 0.10124 0.0
H1517 H 0.84491 0.37963 0.17443 0.0
H1518 H 0.86975 0.38092 0.1488 0.0
H1519 H 0.84695 0.38288 0.12185 0.0
C1520 C 0.89379 0.39796 0.03933 0.0
C1521 C 0.88278 0.40232 0.00741 0.0
C1522 C 0.89366 0.407 0.07625 0.0
C1523 C 0.88233 0.42035 0.08211 0.0
C1524 C 0.87145 0.42493 0.05043 0.0
H1525 H 0.85585 0.45924 0.31271 0.0
H1526 H 0.85152 0.44296 0.24667 0.0
C1527 C 0.87157 0.41588 0.01335 0.0
C1528 C 0.88247 0.42998 0.12128 0.0
H1529 H 0.86621 0.41338 0.21607 0.0
C1530 C 0.89456 0.45477 0.12634 0.0
C1531 C 0.87157 0.41484 0.15373 0.0
C1532 C 0.85736 0.38808 0.14949 0.0
C1533 C 0.89666 0.46489 0.16343 0.0
C1534 C 0.88674 0.44972 0.19621 0.0
C1535 C 0.87401 0.42493 0.1909 0.0
C1536 C 0.88944 0.4592 0.23634 0.0
C1537 C 0.90936 0.49169 0.16712 0.0
C1538 C 0.91218 0.47319 0.25262 0.0
C1539 C 0.91467 0.48248 0.29027 0.0
C1540 C 0.89448 0.47769 0.31241 0.0
C1541 C 0.87171 0.46304 0.29647 0.0
C1542 C 0.86922 0.45387 0.25871 0.0
H1543 H 0.90978 0.50031 0.13879 0.0
H1544 H 0.90069 0.49734 0.18939 0.0
H1545 H 0.92805 0.49827 0.17632 0.0
H1546 H 0.92799 0.47694 0.23622 0.0
H1547 H 0.93239 0.49334 0.30214 0.0
H1548 H 0.42651 0.83433 0.37964 0.0
H1549 H 0.40322 0.82954 0.43885 0.0
H1550 H 0.46715 0.85689 0.50848 0.0
H1551 H 0.49055 0.86256 0.44903 0.0
H1552 H 0.3943 0.80453 0.50387 0.0
H1553 H 0.44404 0.90058 0.54265 0.0
H1554 H 0.44835 0.88963 0.49664 0.0
H1555 H 0.46287 0.88769 0.54031 0.0
C1556 C 0.4355 0.83911 0.40765 0.0
C1557 C 0.46032 0.84899 0.40982 0.0
C1558 C 0.42223 0.83644 0.44145 0.0
C1559 C 0.4335 0.84339 0.47809 0.0
C1560 C 0.45815 0.85215 0.48047 0.0
H1561 H 0.37955 0.84452 0.7102 0.0
H1562 H 0.39877 0.83567 0.65637 0.0
C1563 C 0.47148 0.85523 0.44659 0.0
C1564 C 0.41944 0.84177 0.51352 0.0
H1565 H 0.41584 0.87452 0.58889 0.0
C1566 C 0.39902 0.81986 0.52241 0.0
C1567 C 0.42552 0.86182 0.53769 0.0
C1568 C 0.44624 0.88629 0.52865 0.0
C1569 C 0.38457 0.8175 0.55472 0.0
C1570 C 0.39084 0.83744 0.5788 0.0
C1571 C 0.41133 0.85922 0.57038 0.0
C1572 C 0.37573 0.83675 0.61169 0.0
C1573 C 0.36264 0.79384 0.56302 0.0
C1574 C 0.35585 0.83932 0.60436 0.0
C1575 C 0.34488 0.84453 0.63499 0.0
C1576 C 0.35368 0.84725 0.6734 0.0
C1577 C 0.3722 0.8424 0.68104 0.0
C1578 C 0.38332 0.83746 0.65031 0.0
H1579 H 0.36154 0.77939 0.54404 0.0
H1580 H 0.36251 0.78885 0.59415 0.0
H1581 H 0.34653 0.79539 0.5581 0.0
H1582 H 0.3499 0.839 0.57461 0.0
H1583 H 0.33071 0.84821 0.62812 0.0
H1584 H 0.62174 0.44764 0.67254 0.0
H1585 H 0.6059 0.42966 0.73659 0.0
H1586 H 0.56106 0.46136 0.73736 0.0
H1587 H 0.5766 0.47915 0.67343 0.0
H1588 H 0.59078 0.47111 0.80435 0.0
H1589 H 0.53876 0.37439 0.76833 0.0
H1590 H 0.56887 0.39053 0.75031 0.0
H1591 H 0.54705 0.39735 0.73177 0.0
C1592 C 0.60815 0.45033 0.68602 0.0
C1593 C 0.60052 0.46492 0.66818 0.0
C1594 C 0.59916 0.4401 0.72254 0.0
C1595 C 0.58231 0.44418 0.74142 0.0
C1596 C 0.57412 0.4581 0.72314 0.0
H1597 H 0.49236 0.38707 0.94032 0.0
H1598 H 0.51064 0.39904 0.87573 0.0
C1599 C 0.58309 0.46833 0.68678 0.0
C1600 C 0.57428 0.4354 0.7814 0.0
H1601 H 0.54091 0.38503 0.83497 0.0
C1602 C 0.58 0.4523 0.8112 0.0
C1603 C 0.5602 0.41086 0.78985 0.0
C1604 C 0.55315 0.39215 0.75843 0.0
C1605 C 0.57159 0.4453 0.84937 0.0
C1606 C 0.55741 0.42076 0.85784 0.0
C1607 C 0.55198 0.40382 0.82819 0.0
C1608 C 0.54663 0.41251 0.89672 0.0
C1609 C 0.5772 0.46419 0.88001 0.0
C1610 C 0.56089 0.41595 0.92963 0.0
C1611 C 0.55053 0.40933 0.96666 0.0
C1612 C 0.52576 0.39919 0.97119 0.0
C1613 C 0.51153 0.39529 0.9379 0.0
C1614 C 0.52189 0.40187 0.90096 0.0
H1615 H 0.58468 0.48224 0.86695 0.0
H1616 H 0.56095 0.46015 0.89687 0.0
H1617 H 0.5905 0.46451 0.90082 0.0
H1618 H 0.58004 0.42398 0.92669 0.0
H1619 H 0.56192 0.41262 0.99178 0.0
H1620 H 0.12165 0.5188 0.36959 0.0
H1621 H 0.13637 0.54741 0.31554 0.0
H1622 H 0.15181 0.50016 0.24889 0.0
H1623 H 0.13665 0.47124 0.30237 0.0
H1624 H 0.17892 0.57132 0.2697 0.0
H1625 H 0.10075 0.50502 0.18433 0.0
H1626 H 0.10359 0.5022 0.23627 0.0
H1627 H 0.11945 0.49397 0.2023 0.0
C1628 C 0.1288 0.51479 0.34387 0.0
C1629 C 0.1278 0.49268 0.34001 0.0
C1630 C 0.13714 0.53113 0.313 0.0
C1631 C 0.14471 0.52564 0.27803 0.0
C1632 C 0.14561 0.50449 0.27543 0.0
H1633 H 0.17168 0.58825 0.04555 0.0
H1634 H 0.17428 0.56835 0.10492 0.0
C1635 C 0.13706 0.48805 0.30605 0.0
C1636 C 0.14931 0.54074 0.24301 0.0
H1637 H 0.12841 0.53997 0.15105 0.0
C1638 C 0.16797 0.5645 0.24368 0.0
C1639 C 0.1347 0.53181 0.20938 0.0
C1640 C 0.11335 0.50695 0.20799 0.0
C1641 C 0.17258 0.5795 0.2112 0.0
C1642 C 0.1582 0.57041 0.17751 0.0
C1643 C 0.13962 0.54668 0.17683 0.0
C1644 C 0.16085 0.5855 0.14337 0.0
C1645 C 0.19272 0.60494 0.21293 0.0
C1646 C 0.15282 0.60193 0.14569 0.0
C1647 C 0.15115 0.6131 0.1119 0.0
C1648 C 0.15756 0.60808 0.07531 0.0
C1649 C 0.16688 0.59263 0.07342 0.0
C1650 C 0.1683 0.58122 0.10721 0.0
H1651 H 0.20463 0.60812 0.23836 0.0
H1652 H 0.20342 0.60964 0.18561 0.0
H1653 H 0.18524 0.61702 0.21545 0.0
H1654 H 0.14671 0.60519 0.1733 0.0
H1655 H 0.14403 0.62505 0.1141 0.0
loop_
_geom_bond_atom_site_label_1
_geom_bond_atom_site_label_2
_geom_bond_distance
_geom_bond_site_symmetry_2
_ccdc_geom_bond_type
Co0 N5 2.057 . S
Co0 O17 2.021 . S
Co0 O20 2.062 . S
Co0 O24 2.117 . S
Co0 O25 2.020 . S
C1 O21 1.259 . S
C1 O24 1.258 . S
Co2 N11 2.057 . S
Co2 O18 2.117 . S
Co2 O19 2.020 . S
Co2 O21 2.021 . S
Co2 O26 2.062 . S
C3 N5 1.316 . S
C3 N6 1.347 . S
C3 H8 0.931 . S
C4 N5 1.375 . S
C4 C7 1.350 . S
C4 H9 0.930 . S
N5 Co0 2.057 . S
N5 C3 1.316 . S
N5 C4 1.375 . S
N6 C3 1.347 . S
N6 C7 1.373 . S
C7 C4 1.350 . S
C7 N6 1.373 . S
C7 H28 0.931 . S
H8 C3 0.931 . S
H9 C4 0.930 . S
C10 O17 1.259 . S
C10 O18 1.258 . S
N11 Co2 2.057 . S
N11 C12 1.316 . S
N11 C13 1.375 . S
C12 N11 1.316 . S
C12 N14 1.347 . S
C12 H23 0.931 . S
C13 N11 1.375 . S
C13 C15 1.350 . S
C13 H22 0.930 . S
N14 C12 1.347 . S
N14 C15 1.373 . S
C15 C13 1.350 . S
C15 N14 1.373 . S
C15 H29 0.931 . S
C16 O19 1.256 . S
C16 O20 1.255 . S
O17 Co0 2.021 . S
O17 C10 1.259 . S
O18 Co2 2.117 . S
O18 C10 1.258 . S
O19 Co2 2.020 . S
O19 C16 1.256 . S
O20 Co0 2.062 . S
O20 C16 1.255 . S
O21 C1 1.259 . S
O21 Co2 2.021 . S
H22 C13 0.930 . S
H23 C12 0.931 . S
O24 Co0 2.117 . S
O24 C1 1.258 . S
O25 Co0 2.020 . S
O25 C27 1.256 . S
O26 Co2 2.062 . S
O26 C27 1.255 . S
C27 O25 1.256 . S
C27 O26 1.255 . S
H28 C7 0.931 . S
H29 C15 0.931 . S
Co30 N35 2.057 . S
Co30 O47 2.021 . S
Co30 O50 2.062 . S
Co30 O54 2.117 . S
Co30 O55 2.020 . S
C31 O51 1.259 . S
C31 O54 1.258 . S
Co32 N41 2.057 . S
Co32 O48 2.117 . S
Co32 O49 2.020 . S
Co32 O51 2.021 . S
Co32 O56 2.062 . S
C33 N35 1.316 . S
C33 N36 1.347 . S
C33 H38 0.931 . S
C34 N35 1.375 . S
C34 C37 1.350 . S
C34 H39 0.930 . S
N35 Co30 2.057 . S
N35 C33 1.316 . S
N35 C34 1.375 . S
N36 C33 1.347 . S
N36 C37 1.373 . S
C37 C34 1.350 . S
C37 N36 1.373 . S
C37 H58 0.931 . S
H38 C33 0.931 . S
H39 C34 0.930 . S
C40 O47 1.259 . S
C40 O48 1.258 . S
N41 Co32 2.057 . S
N41 C42 1.316 . S
N41 C43 1.375 . S
C42 N41 1.316 . S
C42 N44 1.347 . S
C42 H53 0.931 . S
C43 N41 1.375 . S
C43 C45 1.350 . S
C43 H52 0.930 . S
N44 C42 1.347 . S
N44 C45 1.373 . S
C45 C43 1.350 . S
C45 N44 1.373 . S
C45 H59 0.931 . S
C46 O49 1.256 . S
C46 O50 1.255 . S
O47 Co30 2.021 . S
O47 C40 1.259 . S
O48 Co32 2.117 . S
O48 C40 1.258 . S
O49 Co32 2.020 . S
O49 C46 1.256 . S
O50 Co30 2.062 . S
O50 C46 1.255 . S
O51 C31 1.259 . S
O51 Co32 2.021 . S
H52 C43 0.930 . S
H53 C42 0.931 . S
O54 Co30 2.117 . S
O54 C31 1.258 . S
O55 Co30 2.020 . S
O55 C57 1.256 . S
O56 Co32 2.062 . S
O56 C57 1.255 . S
C57 O55 1.256 . S
C57 O56 1.255 . S
H58 C37 0.931 . S
H59 C45 0.931 . S
Co60 N65 2.057 . S
Co60 O77 2.021 . S
Co60 O80 2.062 . S
Co60 O84 2.117 . S
Co60 O85 2.020 . S
C61 O81 1.259 . S
C61 O84 1.258 . S
Co62 N71 2.057 . S
Co62 O78 2.117 . S
Co62 O79 2.020 . S
Co62 O81 2.021 . S
Co62 O86 2.062 . S
C63 N65 1.316 . S
C63 N66 1.347 . S
C63 H68 0.931 . S
C64 N65 1.375 . S
C64 C67 1.350 . S
C64 H69 0.930 . S
N65 Co60 2.057 . S
N65 C63 1.316 . S
N65 C64 1.375 . S
N66 C63 1.347 . S
N66 C67 1.373 . S
C67 C64 1.350 . S
C67 N66 1.373 . S
C67 H88 0.931 . S
H68 C63 0.931 . S
H69 C64 0.930 . S
C70 O77 1.259 . S
C70 O78 1.258 . S
N71 Co62 2.057 . S
N71 C72 1.316 . S
N71 C73 1.375 . S
C72 N71 1.316 . S
C72 N74 1.347 . S
C72 H83 0.931 . S
C73 N71 1.375 . S
C73 C75 1.350 . S
C73 H82 0.930 . S
N74 C72 1.347 . S
N74 C75 1.373 . S
C75 C73 1.350 . S
C75 N74 1.373 . S
C75 H89 0.931 . S
C76 O79 1.256 . S
C76 O80 1.255 . S
O77 Co60 2.021 . S
O77 C70 1.259 . S
O78 Co62 2.117 . S
O78 C70 1.258 . S
O79 Co62 2.020 . S
O79 C76 1.256 . S
O80 Co60 2.062 . S
O80 C76 1.255 . S
O81 C61 1.259 . S
O81 Co62 2.021 . S
H82 C73 0.930 . S
H83 C72 0.931 . S
O84 Co60 2.117 . S
O84 C61 1.258 . S
O85 Co60 2.020 . S
O85 C87 1.256 . S
O86 Co62 2.062 . S
O86 C87 1.255 . S
C87 O85 1.256 . S
C87 O86 1.255 . S
H88 C67 0.931 . S
H89 C75 0.931 . S
Co90 N95 2.057 . S
Co90 O107 2.021 . S
Co90 O110 2.062 . S
Co90 O114 2.117 . S
Co90 O115 2.020 . S
C91 O111 1.259 . S
C91 O114 1.258 . S
Co92 N101 2.057 . S
Co92 O108 2.117 . S
Co92 O109 2.020 . S
Co92 O111 2.021 . S
Co92 O116 2.062 . S
C93 N95 1.316 . S
C93 N96 1.347 . S
C93 H98 0.931 . S
C94 N95 1.375 . S
C94 C97 1.350 . S
C94 H99 0.930 . S
N95 Co90 2.057 . S
N95 C93 1.316 . S
N95 C94 1.375 . S
N96 C93 1.347 . S
N96 C97 1.373 . S
C97 C94 1.350 . S
C97 N96 1.373 . S
C97 H118 0.931 . S
H98 C93 0.931 . S
H99 C94 0.930 . S
C100 O107 1.259 . S
C100 O108 1.258 . S
N101 Co92 2.057 . S
N101 C102 1.316 . S
N101 C103 1.375 . S
C102 N101 1.316 . S
C102 N104 1.347 . S
C102 H113 0.931 . S
C103 N101 1.375 . S
C103 C105 1.350 . S
C103 H112 0.930 . S
N104 C102 1.347 . S
N104 C105 1.373 . S
C105 C103 1.350 . S
C105 N104 1.373 . S
C105 H119 0.931 . S
C106 O109 1.256 . S
C106 O110 1.255 . S
O107 Co90 2.021 . S
O107 C100 1.259 . S
O108 Co92 2.117 . S
O108 C100 1.258 . S
O109 Co92 2.020 . S
O109 C106 1.256 . S
O110 Co90 2.062 . S
O110 C106 1.255 . S
O111 C91 1.259 . S
O111 Co92 2.021 . S
H112 C103 0.930 . S
H113 C102 0.931 . S
O114 Co90 2.117 . S
O114 C91 1.258 . S
O115 Co90 2.020 . S
O115 C117 1.256 . S
O116 Co92 2.062 . S
O116 C117 1.255 . S
C117 O115 1.256 . S
C117 O116 1.255 . S
H118 C97 0.931 . S
H119 C105 0.931 . S
Co120 N125 2.057 . S
Co120 O137 2.021 . S
Co120 O140 2.062 . S
Co120 O144 2.117 . S
Co120 O145 2.020 . S
C121 O141 1.259 . S
C121 O144 1.258 . S
Co122 N131 2.057 . S
Co122 O138 2.117 . S
Co122 O139 2.020 . S
Co122 O141 2.021 . S
Co122 O146 2.062 . S
C123 N125 1.316 . S
C123 N126 1.347 . S
C123 H128 0.931 . S
C124 N125 1.375 . S
C124 C127 1.350 . S
C124 H129 0.930 . S
N125 Co120 2.057 . S
N125 C123 1.316 . S
N125 C124 1.375 . S
N126 C123 1.347 . S
N126 C127 1.373 . S
C127 C124 1.350 . S
C127 N126 1.373 . S
C127 H148 0.931 . S
H128 C123 0.931 . S
H129 C124 0.930 . S
C130 O137 1.259 . S
C130 O138 1.258 . S
N131 Co122 2.057 . S
N131 C132 1.316 . S
N131 C133 1.375 . S
C132 N131 1.316 . S
C132 N134 1.347 . S
C132 H143 0.931 . S
C133 N131 1.375 . S
C133 C135 1.350 . S
C133 H142 0.930 . S
N134 C132 1.347 . S
N134 C135 1.373 . S
C135 C133 1.350 . S
C135 N134 1.373 . S
C135 H149 0.931 . S
C136 O139 1.256 . S
C136 O140 1.255 . S
O137 Co120 2.021 . S
O137 C130 1.259 . S
O138 Co122 2.117 . S
O138 C130 1.258 . S
O139 Co122 2.020 . S
O139 C136 1.256 . S
O140 Co120 2.062 . S
O140 C136 1.255 . S
O141 C121 1.259 . S
O141 Co122 2.021 . S
H142 C133 0.930 . S
H143 C132 0.931 . S
O144 Co120 2.117 . S
O144 C121 1.258 . S
O145 Co120 2.020 . S
O145 C147 1.256 . S
O146 Co122 2.062 . S
O146 C147 1.255 . S
C147 O145 1.256 . S
C147 O146 1.255 . S
H148 C127 0.931 . S
H149 C135 0.931 . S
Co150 N155 2.057 . S
Co150 O167 2.021 . S
Co150 O170 2.062 . S
Co150 O174 2.117 . S
Co150 O175 2.020 . S
C151 O171 1.259 . S
C151 O174 1.258 . S
Co152 N161 2.057 1_556 S
Co152 O168 2.117 . S
Co152 O169 2.020 . S
Co152 O171 2.021 . S
Co152 O176 2.062 1_556 S
C153 N155 1.316 . S
C153 N156 1.347 . S
C153 H158 0.931 . S
C154 N155 1.375 . S
C154 C157 1.350 . S
C154 H159 0.930 . S
N155 Co150 2.057 . S
N155 C153 1.316 . S
N155 C154 1.375 . S
N156 C153 1.347 . S
N156 C157 1.373 . S
C157 C154 1.350 . S
C157 N156 1.373 . S
C157 H178 0.931 . S
H158 C153 0.931 . S
H159 C154 0.930 . S
C160 O167 1.259 . S
C160 O168 1.258 . S
N161 Co152 2.057 1_554 S
N161 C162 1.316 . S
N161 C163 1.375 . S
C162 N161 1.316 . S
C162 N164 1.347 . S
C162 H173 0.931 . S
C163 N161 1.375 . S
C163 C165 1.350 . S
C163 H172 0.930 . S
N164 C162 1.347 . S
N164 C165 1.373 . S
C165 C163 1.350 . S
C165 N164 1.373 . S
C165 H179 0.931 . S
C166 O169 1.256 . S
C166 O170 1.255 . S
O167 Co150 2.021 . S
O167 C160 1.259 . S
O168 Co152 2.117 . S
O168 C160 1.258 . S
O169 Co152 2.020 . S
O169 C166 1.256 . S
O170 Co150 2.062 . S
O170 C166 1.255 . S
O171 C151 1.259 . S
O171 Co152 2.021 . S
H172 C163 0.930 . S
H173 C162 0.931 . S
O174 Co150 2.117 . S
O174 C151 1.258 . S
O175 Co150 2.020 . S
O175 C177 1.256 1_556 S
O176 Co152 2.062 1_554 S
O176 C177 1.255 . S
C177 O175 1.256 1_554 S
C177 O176 1.255 . S
H178 C157 0.931 . S
H179 C165 0.931 . S
Co180 N185 2.057 . S
Co180 O197 2.021 . S
Co180 O200 2.062 . S
Co180 O204 2.117 . S
Co180 O205 2.020 . S
C181 O201 1.259 . S
C181 O204 1.258 . S
Co182 N191 2.057 . S
Co182 O198 2.117 . S
Co182 O199 2.020 . S
Co182 O201 2.021 . S
Co182 O206 2.062 . S
C183 N185 1.316 . S
C183 N186 1.347 . S
C183 H188 0.931 . S
C184 N185 1.375 . S
C184 C187 1.350 . S
C184 H189 0.930 . S
N185 Co180 2.057 . S
N185 C183 1.316 . S
N185 C184 1.375 . S
N186 C183 1.347 . S
N186 C187 1.373 . S
C187 C184 1.350 . S
C187 N186 1.373 . S
C187 H208 0.931 . S
H188 C183 0.931 . S
H189 C184 0.930 . S
C190 O197 1.259 . S
C190 O198 1.258 . S
N191 Co182 2.057 . S
N191 C192 1.316 . S
N191 C193 1.375 . S
C192 N191 1.316 . S
C192 N194 1.347 . S
C192 H203 0.931 . S
C193 N191 1.375 . S
C193 C195 1.350 . S
C193 H202 0.930 . S
N194 C192 1.347 . S
N194 C195 1.373 . S
C195 C193 1.350 . S
C195 N194 1.373 . S
C195 H209 0.931 . S
C196 O199 1.256 . S
C196 O200 1.255 . S
O197 Co180 2.021 . S
O197 C190 1.259 . S
O198 Co182 2.117 . S
O198 C190 1.258 . S
O199 Co182 2.020 . S
O199 C196 1.256 . S
O200 Co180 2.062 . S
O200 C196 1.255 . S
O201 C181 1.259 . S
O201 Co182 2.021 . S
H202 C193 0.930 . S
H203 C192 0.931 . S
O204 Co180 2.117 . S
O204 C181 1.258 . S
O205 Co180 2.020 . S
O205 C207 1.256 . S
O206 Co182 2.062 . S
O206 C207 1.255 . S
C207 O205 1.256 . S
C207 O206 1.255 . S
H208 C187 0.931 . S
H209 C195 0.931 . S
Co210 N215 2.057 . S
Co210 O227 2.021 . S
Co210 O230 2.062 . S
Co210 O234 2.117 . S
Co210 O235 2.020 . S
C211 O231 1.259 . S
C211 O234 1.258 . S
Co212 N221 2.057 . S
Co212 O228 2.117 . S
Co212 O229 2.020 . S
Co212 O231 2.021 . S
Co212 O236 2.062 . S
C213 N215 1.316 . S
C213 N216 1.347 . S
C213 H218 0.931 . S
C214 N215 1.375 . S
C214 C217 1.350 . S
C214 H219 0.930 . S
N215 Co210 2.057 . S
N215 C213 1.316 . S
N215 C214 1.375 . S
N216 C213 1.347 . S
N216 C217 1.373 . S
C217 C214 1.350 . S
C217 N216 1.373 . S
C217 H238 0.931 . S
H218 C213 0.931 . S
H219 C214 0.930 . S
C220 O227 1.259 . S
C220 O228 1.258 . S
N221 Co212 2.057 . S
N221 C222 1.316 . S
N221 C223 1.375 . S
C222 N221 1.316 . S
C222 N224 1.347 . S
C222 H233 0.931 . S
C223 N221 1.375 . S
C223 C225 1.350 . S
C223 H232 0.930 . S
N224 C222 1.347 . S
N224 C225 1.373 . S
C225 C223 1.350 . S
C225 N224 1.373 . S
C225 H239 0.931 . S
C226 O229 1.256 . S
C226 O230 1.255 . S
O227 Co210 2.021 . S
O227 C220 1.259 . S
O228 Co212 2.117 . S
O228 C220 1.258 . S
O229 Co212 2.020 . S
O229 C226 1.256 . S
O230 Co210 2.062 . S
O230 C226 1.255 . S
O231 C211 1.259 . S
O231 Co212 2.021 . S
H232 C223 0.930 . S
H233 C222 0.931 . S
O234 Co210 2.117 . S
O234 C211 1.258 . S
O235 Co210 2.020 . S
O235 C237 1.256 . S
O236 Co212 2.062 . S
O236 C237 1.255 . S
C237 O235 1.256 . S
C237 O236 1.255 . S
H238 C217 0.931 . S
H239 C225 0.931 . S
Co240 N245 2.057 . S
Co240 O257 2.021 . S
Co240 O260 2.062 . S
Co240 O264 2.117 . S
Co240 O265 2.020 . S
C241 O261 1.259 . S
C241 O264 1.258 . S
Co242 N251 2.057 . S
Co242 O258 2.117 . S
Co242 O259 2.020 . S
Co242 O261 2.021 . S
Co242 O266 2.062 . S
C243 N245 1.316 . S
C243 N246 1.347 . S
C243 H248 0.931 . S
C244 N245 1.375 . S
C244 C247 1.350 . S
C244 H249 0.930 . S
N245 Co240 2.057 . S
N245 C243 1.316 . S
N245 C244 1.375 . S
N246 C243 1.347 . S
N246 C247 1.373 . S
C247 C244 1.350 . S
C247 N246 1.373 . S
C247 H268 0.931 . S
H248 C243 0.931 . S
H249 C244 0.930 . S
C250 O257 1.259 . S
C250 O258 1.258 . S
N251 Co242 2.057 . S
N251 C252 1.316 1_554 S
N251 C253 1.375 . S
C252 N251 1.316 1_556 S
C252 N254 1.347 . S
C252 H263 0.931 . S
C253 N251 1.375 . S
C253 C255 1.350 1_554 S
C253 H262 0.930 . S
N254 C252 1.347 . S
N254 C255 1.373 . S
C255 C253 1.350 1_556 S
C255 N254 1.373 . S
C255 H269 0.931 . S
C256 O259 1.256 . S
C256 O260 1.255 . S
O257 Co240 2.021 . S
O257 C250 1.259 . S
O258 Co242 2.117 . S
O258 C250 1.258 . S
O259 Co242 2.020 . S
O259 C256 1.256 . S
O260 Co240 2.062 . S
O260 C256 1.255 . S
O261 C241 1.259 . S
O261 Co242 2.021 . S
H262 C253 0.930 . S
H263 C252 0.931 . S
O264 Co240 2.117 . S
O264 C241 1.258 . S
O265 Co240 2.020 . S
O265 C267 1.256 . S
O266 Co242 2.062 . S
O266 C267 1.255 . S
C267 O265 1.256 . S
C267 O266 1.255 . S
H268 C247 0.931 . S
H269 C255 0.931 . S
Co270 N275 2.057 . S
Co270 O287 2.021 . S
Co270 O290 2.062 . S
Co270 O294 2.117 . S
Co270 O295 2.020 . S
C271 O291 1.259 . S
C271 O294 1.258 . S
Co272 N281 2.057 . S
Co272 O288 2.117 . S
Co272 O289 2.020 . S
Co272 O291 2.021 . S
Co272 O296 2.062 . S
C273 N275 1.316 . S
C273 N276 1.347 . S
C273 H278 0.931 . S
C274 N275 1.375 . S
C274 C277 1.350 . S
C274 H279 0.930 . S
N275 Co270 2.057 . S
N275 C273 1.316 . S
N275 C274 1.375 . S
N276 C273 1.347 . S
N276 C277 1.373 . S
C277 C274 1.350 . S
C277 N276 1.373 . S
C277 H298 0.931 . S
H278 C273 0.931 . S
H279 C274 0.930 . S
C280 O287 1.259 . S
C280 O288 1.258 . S
N281 Co272 2.057 . S
N281 C282 1.316 . S
N281 C283 1.375 . S
C282 N281 1.316 . S
C282 N284 1.347 . S
C282 H293 0.931 . S
C283 N281 1.375 . S
C283 C285 1.350 . S
C283 H292 0.930 . S
N284 C282 1.347 . S
N284 C285 1.373 . S
C285 C283 1.350 . S
C285 N284 1.373 . S
C285 H299 0.931 . S
C286 O289 1.256 . S
C286 O290 1.255 . S
O287 Co270 2.021 . S
O287 C280 1.259 . S
O288 Co272 2.117 . S
O288 C280 1.258 . S
O289 Co272 2.020 . S
O289 C286 1.256 . S
O290 Co270 2.062 . S
O290 C286 1.255 . S
O291 C271 1.259 . S
O291 Co272 2.021 . S
H292 C283 0.930 . S
H293 C282 0.931 . S
O294 Co270 2.117 . S
O294 C271 1.258 . S
O295 Co270 2.020 . S
O295 C297 1.256 . S
O296 Co272 2.062 . S
O296 C297 1.255 . S
C297 O295 1.256 . S
C297 O296 1.255 . S
H298 C277 0.931 . S
H299 C285 0.931 . S
Co300 N305 2.057 . S
Co300 O317 2.021 . S
Co300 O320 2.062 . S
Co300 O324 2.117 . S
Co300 O325 2.020 . S
C301 O321 1.259 . S
C301 O324 1.258 . S
Co302 N311 2.057 . S
Co302 O318 2.117 . S
Co302 O319 2.020 . S
Co302 O321 2.021 . S
Co302 O326 2.062 . S
C303 N305 1.316 . S
C303 N306 1.347 . S
C303 H308 0.931 . S
C304 N305 1.375 . S
C304 C307 1.350 . S
C304 H309 0.930 . S
N305 Co300 2.057 . S
N305 C303 1.316 . S
N305 C304 1.375 . S
N306 C303 1.347 . S
N306 C307 1.373 . S
C307 C304 1.350 . S
C307 N306 1.373 . S
C307 H328 0.931 . S
H308 C303 0.931 . S
H309 C304 0.930 . S
C310 O317 1.259 . S
C310 O318 1.258 . S
N311 Co302 2.057 . S
N311 C312 1.316 . S
N311 C313 1.375 . S
C312 N311 1.316 . S
C312 N314 1.347 . S
C312 H323 0.931 . S
C313 N311 1.375 . S
C313 C315 1.350 . S
C313 H322 0.930 . S
N314 C312 1.347 . S
N314 C315 1.373 . S
C315 C313 1.350 . S
C315 N314 1.373 . S
C315 H329 0.931 . S
C316 O319 1.256 . S
C316 O320 1.255 . S
O317 Co300 2.021 . S
O317 C310 1.259 . S
O318 Co302 2.117 . S
O318 C310 1.258 . S
O319 Co302 2.020 . S
O319 C316 1.256 . S
O320 Co300 2.062 . S
O320 C316 1.255 . S
O321 C301 1.259 . S
O321 Co302 2.021 . S
H322 C313 0.930 . S
H323 C312 0.931 . S
O324 Co300 2.117 . S
O324 C301 1.258 . S
O325 Co300 2.020 . S
O325 C327 1.256 . S
O326 Co302 2.062 . S
O326 C327 1.255 . S
C327 O325 1.256 . S
C327 O326 1.255 . S
H328 C307 0.931 . S
H329 C315 0.931 . S
Co330 N335 2.057 . S
Co330 O347 2.021 . S
Co330 O350 2.062 . S
Co330 O354 2.117 . S
Co330 O355 2.020 . S
C331 O351 1.259 . S
C331 O354 1.258 . S
Co332 N341 2.057 . S
Co332 O348 2.117 . S
Co332 O349 2.020 . S
Co332 O351 2.021 . S
Co332 O356 2.062 . S
C333 N335 1.316 1_556 S
C333 N336 1.347 . S
C333 H338 0.931 . S
C334 N335 1.375 . S
C334 C337 1.350 1_554 S
C334 H339 0.930 . S
N335 Co330 2.057 . S
N335 C333 1.316 1_554 S
N335 C334 1.375 . S
N336 C333 1.347 . S
N336 C337 1.373 . S
C337 C334 1.350 1_556 S
C337 N336 1.373 . S
C337 H358 0.931 . S
H338 C333 0.931 . S
H339 C334 0.930 . S
C340 O347 1.259 . S
C340 O348 1.258 . S
N341 Co332 2.057 . S
N341 C342 1.316 . S
N341 C343 1.375 . S
C342 N341 1.316 . S
C342 N344 1.347 . S
C342 H353 0.931 . S
C343 N341 1.375 . S
C343 C345 1.350 . S
C343 H352 0.930 . S
N344 C342 1.347 . S
N344 C345 1.373 . S
C345 C343 1.350 . S
C345 N344 1.373 . S
C345 H359 0.931 . S
C346 O349 1.256 . S
C346 O350 1.255 . S
O347 Co330 2.021 . S
O347 C340 1.259 . S
O348 Co332 2.117 . S
O348 C340 1.258 . S
O349 Co332 2.020 . S
O349 C346 1.256 . S
O350 Co330 2.062 . S
O350 C346 1.255 . S
O351 C331 1.259 . S
O351 Co332 2.021 . S
H352 C343 0.930 . S
H353 C342 0.931 . S
O354 Co330 2.117 . S
O354 C331 1.258 . S
O355 Co330 2.020 . S
O355 C357 1.256 . S
O356 Co332 2.062 . S
O356 C357 1.255 . S
C357 O355 1.256 . S
C357 O356 1.255 . S
H358 C337 0.931 . S
H359 C345 0.931 . S
H360 C368 0.929 . S
H361 C370 0.930 . S
H362 C372 0.930 . S
H363 C375 0.929 . S
H364 C378 0.930 . S
H365 C380 0.960 . S
H366 C380 0.960 . S
H367 C380 0.960 . S
C368 H360 0.929 . S
C368 C369 1.377 . S
C368 C370 1.384 . S
C369 C368 1.377 . S
C369 C375 1.390 . S
C370 H361 0.930 . S
C370 C368 1.384 . S
C370 C371 1.372 . S
C371 C370 1.372 . S
C371 C372 1.400 . S
C371 C376 1.490 . S
C372 H362 0.930 . S
C372 C371 1.400 . S
C372 C375 1.386 . S
H373 C389 0.930 . S
H374 C390 0.931 . S
C375 H363 0.929 . S
C375 C369 1.390 . S
C375 C372 1.386 . S
C376 C371 1.490 . S
C376 C378 1.395 . S
C376 C379 1.403 . S
H377 C383 0.930 . S
C378 H364 0.930 . S
C378 C376 1.395 . S
C378 C381 1.403 . S
C379 C376 1.403 . S
C379 C380 1.524 . S
C379 C383 1.400 . S
C380 H365 0.960 . S
C380 H366 0.960 . S
C380 H367 0.960 . S
C380 C379 1.524 . S
C381 C378 1.403 . S
C381 C382 1.392 . S
C381 C385 1.495 . S
C382 C381 1.392 . S
C382 C383 1.385 . S
C382 C384 1.478 . S
C383 H377 0.930 . S
C383 C379 1.400 . S
C383 C382 1.385 . S
C384 C382 1.478 . S
C384 C386 1.381 . S
C384 C390 1.383 . S
C385 C381 1.495 . S
C385 H391 0.959 . S
C385 H392 0.961 . S
C385 H393 0.960 . S
C386 C384 1.381 . S
C386 C387 1.394 . S
C386 H394 0.930 . S
C387 C386 1.394 . S
C387 C388 1.383 . S
C387 H395 0.929 . S
C388 C387 1.383 . S
C388 C389 1.377 . S
C389 H373 0.930 . S
C389 C388 1.377 . S
C389 C390 1.379 . S
C390 H374 0.931 . S
C390 C384 1.383 . S
C390 C389 1.379 . S
H391 C385 0.959 . S
H392 C385 0.961 . S
H393 C385 0.960 . S
H394 C386 0.930 . S
H395 C387 0.929 . S
H396 C404 0.929 . S
H397 C406 0.930 . S
H398 C408 0.930 . S
H399 C411 0.929 . S
H400 C414 0.930 . S
H401 C416 0.960 . S
H402 C416 0.960 . S
H403 C416 0.960 . S
C404 H396 0.929 . S
C404 C405 1.377 . S
C404 C406 1.384 . S
C405 C404 1.377 . S
C405 C411 1.390 . S
C406 H397 0.930 . S
C406 C404 1.384 . S
C406 C407 1.372 . S
C407 C406 1.372 . S
C407 C408 1.400 . S
C407 C412 1.490 . S
C408 H398 0.930 . S
C408 C407 1.400 . S
C408 C411 1.386 . S
H409 C425 0.930 . S
H410 C426 0.931 . S
C411 H399 0.929 . S
C411 C405 1.390 . S
C411 C408 1.386 . S
C412 C407 1.490 . S
C412 C414 1.395 . S
C412 C415 1.403 . S
H413 C419 0.930 . S
C414 H400 0.930 . S
C414 C412 1.395 . S
C414 C417 1.403 . S
C415 C412 1.403 . S
C415 C416 1.524 . S
C415 C419 1.400 . S
C416 H401 0.960 . S
C416 H402 0.960 . S
C416 H403 0.960 . S
C416 C415 1.524 . S
C417 C414 1.403 . S
C417 C418 1.392 . S
C417 C421 1.495 . S
C418 C417 1.392 . S
C418 C419 1.385 . S
C418 C420 1.478 . S
C419 H413 0.930 . S
C419 C415 1.400 . S
C419 C418 1.385 . S
C420 C418 1.478 . S
C420 C422 1.381 . S
C420 C426 1.383 . S
C421 C417 1.495 . S
C421 H427 0.959 . S
C421 H428 0.961 . S
C421 H429 0.960 . S
C422 C420 1.381 . S
C422 C423 1.394 . S
C422 H430 0.930 . S
C423 C422 1.394 . S
C423 C424 1.383 . S
C423 H431 0.929 . S
C424 C423 1.383 . S
C424 C425 1.377 . S
C425 H409 0.930 . S
C425 C424 1.377 . S
C425 C426 1.379 . S
C426 H410 0.931 . S
C426 C420 1.383 . S
C426 C425 1.379 . S
H427 C421 0.959 . S
H428 C421 0.961 . S
H429 C421 0.960 . S
H430 C422 0.930 . S
H431 C423 0.929 . S
H432 C440 0.929 . S
H433 C442 0.930 . S
H434 C444 0.930 . S
H435 C447 0.929 . S
H436 C450 0.930 . S
H437 C452 0.960 . S
H438 C452 0.960 . S
H439 C452 0.960 . S
C440 H432 0.929 . S
C440 C441 1.377 . S
C440 C442 1.384 . S
C441 C440 1.377 . S
C441 C447 1.390 . S
C442 H433 0.930 . S
C442 C440 1.384 . S
C442 C443 1.372 . S
C443 C442 1.372 . S
C443 C444 1.400 . S
C443 C448 1.490 . S
C444 H434 0.930 . S
C444 C443 1.400 . S
C444 C447 1.386 . S
H445 C461 0.930 . S
H446 C462 0.931 . S
C447 H435 0.929 . S
C447 C441 1.390 . S
C447 C444 1.386 . S
C448 C443 1.490 . S
C448 C450 1.395 . S
C448 C451 1.403 . S
H449 C455 0.930 . S
C450 H436 0.930 . S
C450 C448 1.395 . S
C450 C453 1.403 . S
C451 C448 1.403 . S
C451 C452 1.524 . S
C451 C455 1.400 . S
C452 H437 0.960 . S
C452 H438 0.960 . S
C452 H439 0.960 . S
C452 C451 1.524 . S
C453 C450 1.403 . S
C453 C454 1.392 . S
C453 C457 1.495 . S
C454 C453 1.392 . S
C454 C455 1.385 . S
C454 C456 1.478 . S
C455 H449 0.930 . S
C455 C451 1.400 . S
C455 C454 1.385 . S
C456 C454 1.478 . S
C456 C458 1.381 . S
C456 C462 1.383 . S
C457 C453 1.495 . S
C457 H463 0.959 . S
C457 H464 0.961 . S
C457 H465 0.960 . S
C458 C456 1.381 . S
C458 C459 1.394 . S
C458 H466 0.930 . S
C459 C458 1.394 . S
C459 C460 1.383 . S
C459 H467 0.929 . S
C460 C459 1.383 . S
C460 C461 1.377 . S
C461 H445 0.930 . S
C461 C460 1.377 . S
C461 C462 1.379 . S
C462 H446 0.931 . S
C462 C456 1.383 . S
C462 C461 1.379 . S
H463 C457 0.959 . S
H464 C457 0.961 . S
H465 C457 0.960 . S
H466 C458 0.930 . S
H467 C459 0.929 . S
H468 C476 0.929 . S
H469 C478 0.930 . S
H470 C480 0.930 . S
H471 C483 0.929 . S
H472 C486 0.930 . S
H473 C488 0.960 . S
H474 C488 0.960 . S
H475 C488 0.960 . S
C476 H468 0.929 . S
C476 C477 1.377 . S
C476 C478 1.384 . S
C477 C476 1.377 . S
C477 C483 1.390 . S
C478 H469 0.930 . S
C478 C476 1.384 . S
C478 C479 1.372 . S
C479 C478 1.372 . S
C479 C480 1.400 . S
C479 C484 1.490 . S
C480 H470 0.930 . S
C480 C479 1.400 . S
C480 C483 1.386 . S
H481 C497 0.930 . S
H482 C498 0.931 . S
C483 H471 0.929 . S
C483 C477 1.390 . S
C483 C480 1.386 . S
C484 C479 1.490 . S
C484 C486 1.395 . S
C484 C487 1.403 . S
H485 C491 0.930 . S
C486 H472 0.930 . S
C486 C484 1.395 . S
C486 C489 1.403 . S
C487 C484 1.403 . S
C487 C488 1.524 . S
C487 C491 1.400 . S
C488 H473 0.960 . S
C488 H474 0.960 . S
C488 H475 0.960 . S
C488 C487 1.524 . S
C489 C486 1.403 . S
C489 C490 1.392 . S
C489 C493 1.495 . S
C490 C489 1.392 . S
C490 C491 1.385 . S
C490 C492 1.478 . S
C491 H485 0.930 . S
C491 C487 1.400 . S
C491 C490 1.385 . S
C492 C490 1.478 . S
C492 C494 1.381 . S
C492 C498 1.383 . S
C493 C489 1.495 . S
C493 H499 0.959 . S
C493 H500 0.961 . S
C493 H501 0.960 . S
C494 C492 1.381 . S
C494 C495 1.394 . S
C494 H502 0.930 . S
C495 C494 1.394 . S
C495 C496 1.383 . S
C495 H503 0.929 . S
C496 C495 1.383 . S
C496 C497 1.377 . S
C497 H481 0.930 . S
C497 C496 1.377 . S
C497 C498 1.379 . S
C498 H482 0.931 . S
C498 C492 1.383 . S
C498 C497 1.379 . S
H499 C493 0.959 . S
H500 C493 0.961 . S
H501 C493 0.960 . S
H502 C494 0.930 . S
H503 C495 0.929 . S
H504 C512 0.929 . S
H505 C514 0.930 . S
H506 C516 0.930 . S
H507 C519 0.929 . S
H508 C522 0.930 . S
H509 C524 0.960 . S
H510 C524 0.960 . S
H511 C524 0.960 . S
C512 H504 0.929 . S
C512 C513 1.377 . S
C512 C514 1.384 . S
C513 C512 1.377 . S
C513 C519 1.390 . S
C514 H505 0.930 . S
C514 C512 1.384 . S
C514 C515 1.372 . S
C515 C514 1.372 . S
C515 C516 1.400 . S
C515 C520 1.490 . S
C516 H506 0.930 . S
C516 C515 1.400 . S
C516 C519 1.386 . S
H517 C533 0.930 . S
H518 C534 0.931 . S
C519 H507 0.929 . S
C519 C513 1.390 . S
C519 C516 1.386 . S
C520 C515 1.490 . S
C520 C522 1.395 . S
C520 C523 1.403 . S
H521 C527 0.930 . S
C522 H508 0.930 . S
C522 C520 1.395 . S
C522 C525 1.403 . S
C523 C520 1.403 . S
C523 C524 1.524 . S
C523 C527 1.400 . S
C524 H509 0.960 . S
C524 H510 0.960 . S
C524 H511 0.960 . S
C524 C523 1.524 . S
C525 C522 1.403 . S
C525 C526 1.392 . S
C525 C529 1.495 . S
C526 C525 1.392 . S
C526 C527 1.385 . S
C526 C528 1.478 . S
C527 H521 0.930 . S
C527 C523 1.400 . S
C527 C526 1.385 . S
C528 C526 1.478 . S
C528 C530 1.381 . S
C528 C534 1.383 . S
C529 C525 1.495 . S
C529 H535 0.959 . S
C529 H536 0.961 . S
C529 H537 0.960 . S
C530 C528 1.381 . S
C530 C531 1.394 . S
C530 H538 0.930 . S
C531 C530 1.394 . S
C531 C532 1.383 . S
C531 H539 0.929 . S
C532 C531 1.383 . S
C532 C533 1.377 . S
C533 H517 0.930 . S
C533 C532 1.377 . S
C533 C534 1.379 . S
C534 H518 0.931 . S
C534 C528 1.383 . S
C534 C533 1.379 . S
H535 C529 0.959 . S
H536 C529 0.961 . S
H537 C529 0.960 . S
H538 C530 0.930 . S
H539 C531 0.929 . S
H540 C548 0.929 . S
H541 C550 0.930 . S
H542 C552 0.930 . S
H543 C555 0.929 . S
H544 C558 0.930 . S
H545 C560 0.960 . S
H546 C560 0.960 . S
H547 C560 0.960 . S
C548 H540 0.929 . S
C548 C549 1.377 . S
C548 C550 1.384 . S
C549 C548 1.377 . S
C549 C555 1.390 . S
C550 H541 0.930 . S
C550 C548 1.384 . S
C550 C551 1.372 . S
C551 C550 1.372 . S
C551 C552 1.400 . S
C551 C556 1.490 . S
C552 H542 0.930 . S
C552 C551 1.400 . S
C552 C555 1.386 . S
H553 C569 0.930 . S
H554 C570 0.931 . S
C555 H543 0.929 . S
C555 C549 1.390 . S
C555 C552 1.386 . S
C556 C551 1.490 . S
C556 C558 1.395 . S
C556 C559 1.403 . S
H557 C563 0.930 . S
C558 H544 0.930 . S
C558 C556 1.395 . S
C558 C561 1.403 . S
C559 C556 1.403 . S
C559 C560 1.524 . S
C559 C563 1.400 . S
C560 H545 0.960 . S
C560 H546 0.960 . S
C560 H547 0.960 . S
C560 C559 1.524 . S
C561 C558 1.403 . S
C561 C562 1.392 . S
C561 C565 1.495 . S
C562 C561 1.392 . S
C562 C563 1.385 . S
C562 C564 1.478 . S
C563 H557 0.930 . S
C563 C559 1.400 . S
C563 C562 1.385 . S
C564 C562 1.478 . S
C564 C566 1.381 . S
C564 C570 1.383 . S
C565 C561 1.495 . S
C565 H571 0.959 . S
C565 H572 0.961 . S
C565 H573 0.960 . S
C566 C564 1.381 . S
C566 C567 1.394 . S
C566 H574 0.930 . S
C567 C566 1.394 . S
C567 C568 1.383 . S
C567 H575 0.929 . S
C568 C567 1.383 . S
C568 C569 1.377 . S
C569 H553 0.930 . S
C569 C568 1.377 . S
C569 C570 1.379 . S
C570 H554 0.931 . S
C570 C564 1.383 . S
C570 C569 1.379 . S
H571 C565 0.959 . S
H572 C565 0.961 . S
H573 C565 0.960 . S
H574 C566 0.930 . S
H575 C567 0.929 . S
H576 C584 0.929 . S
H577 C586 0.930 . S
H578 C588 0.930 . S
H579 C591 0.929 . S
H580 C594 0.930 . S
H581 C596 0.960 . S
H582 C596 0.960 . S
H583 C596 0.960 . S
C584 H576 0.929 . S
C584 C585 1.377 . S
C584 C586 1.384 . S
C585 C584 1.377 . S
C585 C591 1.390 . S
C586 H577 0.930 . S
C586 C584 1.384 . S
C586 C587 1.372 . S
C587 C586 1.372 . S
C587 C588 1.400 . S
C587 C592 1.490 . S
C588 H578 0.930 . S
C588 C587 1.400 . S
C588 C591 1.386 . S
H589 C605 0.930 . S
H590 C606 0.931 . S
C591 H579 0.929 . S
C591 C585 1.390 . S
C591 C588 1.386 . S
C592 C587 1.490 . S
C592 C594 1.395 . S
C592 C595 1.403 . S
H593 C599 0.930 . S
C594 H580 0.930 . S
C594 C592 1.395 . S
C594 C597 1.403 1_556 S
C595 C592 1.403 . S
C595 C596 1.524 . S
C595 C599 1.400 . S
C596 H581 0.960 . S
C596 H582 0.960 . S
C596 H583 0.960 . S
C596 C595 1.524 . S
C597 C594 1.403 1_554 S
C597 C598 1.392 . S
C597 C601 1.495 . S
C598 C597 1.392 . S
C598 C599 1.385 1_554 S
C598 C600 1.478 . S
C599 H593 0.930 . S
C599 C595 1.400 . S
C599 C598 1.385 1_556 S
C600 C598 1.478 . S
C600 C602 1.381 . S
C600 C606 1.383 . S
C601 C597 1.495 . S
C601 H607 0.959 . S
C601 H608 0.961 . S
C601 H609 0.960 . S
C602 C600 1.381 . S
C602 C603 1.394 . S
C602 H610 0.930 . S
C603 C602 1.394 . S
C603 C604 1.383 . S
C603 H611 0.929 . S
C604 C603 1.383 . S
C604 C605 1.377 . S
C605 H589 0.930 . S
C605 C604 1.377 . S
C605 C606 1.379 . S
C606 H590 0.931 . S
C606 C600 1.383 . S
C606 C605 1.379 . S
H607 C601 0.959 . S
H608 C601 0.961 . S
H609 C601 0.960 . S
H610 C602 0.930 . S
H611 C603 0.929 . S
H612 C620 0.929 . S
H613 C622 0.930 . S
H614 C624 0.930 . S
H615 C627 0.929 . S
H616 C630 0.930 . S
H617 C632 0.960 . S
H618 C632 0.960 . S
H619 C632 0.960 . S
C620 H612 0.929 . S
C620 C621 1.377 . S
C620 C622 1.384 . S
C621 C620 1.377 . S
C621 C627 1.390 . S
C622 H613 0.930 . S
C622 C620 1.384 . S
C622 C623 1.372 . S
C623 C622 1.372 . S
C623 C624 1.400 . S
C623 C628 1.490 . S
C624 H614 0.930 . S
C624 C623 1.400 . S
C624 C627 1.386 . S
H625 C641 0.930 . S
H626 C642 0.931 . S
C627 H615 0.929 . S
C627 C621 1.390 . S
C627 C624 1.386 . S
C628 C623 1.490 . S
C628 C630 1.395 . S
C628 C631 1.403 . S
H629 C635 0.930 . S
C630 H616 0.930 . S
C630 C628 1.395 . S
C630 C633 1.403 . S
C631 C628 1.403 . S
C631 C632 1.524 . S
C631 C635 1.400 . S
C632 H617 0.960 . S
C632 H618 0.960 . S
C632 H619 0.960 . S
C632 C631 1.524 . S
C633 C630 1.403 . S
C633 C634 1.392 . S
C633 C637 1.495 . S
C634 C633 1.392 . S
C634 C635 1.385 . S
C634 C636 1.478 . S
C635 H629 0.930 . S
C635 C631 1.400 . S
C635 C634 1.385 . S
C636 C634 1.478 . S
C636 C638 1.381 . S
C636 C642 1.383 . S
C637 C633 1.495 . S
C637 H643 0.959 . S
C637 H644 0.961 . S
C637 H645 0.960 . S
C638 C636 1.381 . S
C638 C639 1.394 . S
C638 H646 0.930 . S
C639 C638 1.394 . S
C639 C640 1.383 . S
C639 H647 0.929 . S
C640 C639 1.383 . S
C640 C641 1.377 . S
C641 H625 0.930 . S
C641 C640 1.377 . S
C641 C642 1.379 . S
C642 H626 0.931 . S
C642 C636 1.383 . S
C642 C641 1.379 . S
H643 C637 0.959 . S
H644 C637 0.961 . S
H645 C637 0.960 . S
H646 C638 0.930 . S
H647 C639 0.929 . S
H648 C656 0.929 . S
H649 C658 0.930 . S
H650 C660 0.930 . S
H651 C663 0.929 . S
H652 C666 0.930 . S
H653 C668 0.960 . S
H654 C668 0.960 . S
H655 C668 0.960 . S
C656 H648 0.929 . S
C656 C657 1.377 . S
C656 C658 1.384 . S
C657 C656 1.377 . S
C657 C663 1.390 . S
C658 H649 0.930 . S
C658 C656 1.384 . S
C658 C659 1.372 . S
C659 C658 1.372 . S
C659 C660 1.400 . S
C659 C664 1.490 . S
C660 H650 0.930 . S
C660 C659 1.400 . S
C660 C663 1.386 . S
H661 C677 0.930 . S
H662 C678 0.931 . S
C663 H651 0.929 . S
C663 C657 1.390 . S
C663 C660 1.386 . S
C664 C659 1.490 . S
C664 C666 1.395 . S
C664 C667 1.403 . S
H665 C671 0.930 . S
C666 H652 0.930 . S
C666 C664 1.395 . S
C666 C669 1.403 . S
C667 C664 1.403 . S
C667 C668 1.524 . S
C667 C671 1.400 . S
C668 H653 0.960 . S
C668 H654 0.960 . S
C668 H655 0.960 . S
C668 C667 1.524 . S
C669 C666 1.403 . S
C669 C670 1.392 . S
C669 C673 1.495 . S
C670 C669 1.392 . S
C670 C671 1.385 . S
C670 C672 1.478 . S
C671 H665 0.930 . S
C671 C667 1.400 . S
C671 C670 1.385 . S
C672 C670 1.478 . S
C672 C674 1.381 . S
C672 C678 1.383 . S
C673 C669 1.495 . S
C673 H679 0.959 . S
C673 H680 0.961 . S
C673 H681 0.960 . S
C674 C672 1.381 . S
C674 C675 1.394 . S
C674 H682 0.930 . S
C675 C674 1.394 . S
C675 C676 1.383 . S
C675 H683 0.929 . S
C676 C675 1.383 . S
C676 C677 1.377 . S
C677 H661 0.930 . S
C677 C676 1.377 . S
C677 C678 1.379 . S
C678 H662 0.931 . S
C678 C672 1.383 . S
C678 C677 1.379 . S
H679 C673 0.959 . S
H680 C673 0.961 . S
H681 C673 0.960 . S
H682 C674 0.930 . S
H683 C675 0.929 . S
H684 C692 0.929 . S
H685 C694 0.930 . S
H686 C696 0.930 . S
H687 C699 0.929 . S
H688 C702 0.930 1_556 S
H689 C704 0.960 . S
H690 C704 0.960 . S
H691 C704 0.960 . S
C692 H684 0.929 . S
C692 C693 1.377 . S
C692 C694 1.384 . S
C693 C692 1.377 . S
C693 C699 1.390 . S
C694 H685 0.930 . S
C694 C692 1.384 . S
C694 C695 1.372 . S
C695 C694 1.372 . S
C695 C696 1.400 . S
C695 C700 1.490 1_556 S
C696 H686 0.930 . S
C696 C695 1.400 . S
C696 C699 1.386 . S
H697 C713 0.930 . S
H698 C714 0.931 . S
C699 H687 0.929 . S
C699 C693 1.390 . S
C699 C696 1.386 . S
C700 C695 1.490 1_554 S
C700 C702 1.395 . S
C700 C703 1.403 . S
H701 C707 0.930 . S
C702 H688 0.930 1_554 S
C702 C700 1.395 . S
C702 C705 1.403 . S
C703 C700 1.403 . S
C703 C704 1.524 . S
C703 C707 1.400 . S
C704 H689 0.960 . S
C704 H690 0.960 . S
C704 H691 0.960 . S
C704 C703 1.524 . S
C705 C702 1.403 . S
C705 C706 1.392 . S
C705 C709 1.495 . S
C706 C705 1.392 . S
C706 C707 1.385 . S
C706 C708 1.478 . S
C707 H701 0.930 . S
C707 C703 1.400 . S
C707 C706 1.385 . S
C708 C706 1.478 . S
C708 C710 1.381 . S
C708 C714 1.383 . S
C709 C705 1.495 . S
C709 H715 0.959 . S
C709 H716 0.961 . S
C709 H717 0.960 . S
C710 C708 1.381 . S
C710 C711 1.394 . S
C710 H718 0.930 . S
C711 C710 1.394 . S
C711 C712 1.383 . S
C711 H719 0.929 . S
C712 C711 1.383 . S
C712 C713 1.377 . S
C713 H697 0.930 . S
C713 C712 1.377 . S
C713 C714 1.379 . S
C714 H698 0.931 . S
C714 C708 1.383 . S
C714 C713 1.379 . S
H715 C709 0.959 . S
H716 C709 0.961 . S
H717 C709 0.960 . S
H718 C710 0.930 . S
H719 C711 0.929 . S
H720 C728 0.929 . S
H721 C730 0.930 . S
H722 C732 0.930 . S
H723 C735 0.929 . S
H724 C738 0.930 . S
H725 C740 0.960 . S
H726 C740 0.960 . S
H727 C740 0.960 . S
C728 H720 0.929 . S
C728 C729 1.377 . S
C728 C730 1.384 . S
C729 C728 1.377 . S
C729 C735 1.390 . S
C730 H721 0.930 . S
C730 C728 1.384 . S
C730 C731 1.372 . S
C731 C730 1.372 . S
C731 C732 1.400 . S
C731 C736 1.490 . S
C732 H722 0.930 . S
C732 C731 1.400 . S
C732 C735 1.386 . S
H733 C749 0.930 . S
H734 C750 0.931 . S
C735 H723 0.929 . S
C735 C729 1.390 . S
C735 C732 1.386 . S
C736 C731 1.490 . S
C736 C738 1.395 . S
C736 C739 1.403 . S
H737 C743 0.930 . S
C738 H724 0.930 . S
C738 C736 1.395 . S
C738 C741 1.403 . S
C739 C736 1.403 . S
C739 C740 1.524 . S
C739 C743 1.400 . S
C740 H725 0.960 . S
C740 H726 0.960 . S
C740 H727 0.960 . S
C740 C739 1.524 . S
C741 C738 1.403 . S
C741 C742 1.392 . S
C741 C745 1.495 . S
C742 C741 1.392 . S
C742 C743 1.385 . S
C742 C744 1.478 . S
C743 H737 0.930 . S
C743 C739 1.400 . S
C743 C742 1.385 . S
C744 C742 1.478 . S
C744 C746 1.381 . S
C744 C750 1.383 . S
C745 C741 1.495 . S
C745 H751 0.959 . S
C745 H752 0.961 . S
C745 H753 0.960 . S
C746 C744 1.381 . S
C746 C747 1.394 . S
C746 H754 0.930 . S
C747 C746 1.394 . S
C747 C748 1.383 . S
C747 H755 0.929 . S
C748 C747 1.383 . S
C748 C749 1.377 . S
C749 H733 0.930 . S
C749 C748 1.377 . S
C749 C750 1.379 . S
C750 H734 0.931 . S
C750 C744 1.383 . S
C750 C749 1.379 . S
H751 C745 0.959 . S
H752 C745 0.961 . S
H753 C745 0.960 . S
H754 C746 0.930 . S
H755 C747 0.929 . S
H756 C764 0.929 . S
H757 C766 0.930 . S
H758 C768 0.930 . S
H759 C771 0.929 . S
H760 C774 0.930 . S
H761 C776 0.960 . S
H762 C776 0.960 . S
H763 C776 0.960 . S
C764 H756 0.929 . S
C764 C765 1.377 . S
C764 C766 1.384 . S
C765 C764 1.377 . S
C765 C771 1.390 . S
C766 H757 0.930 . S
C766 C764 1.384 . S
C766 C767 1.372 . S
C767 C766 1.372 . S
C767 C768 1.400 . S
C767 C772 1.490 . S
C768 H758 0.930 . S
C768 C767 1.400 . S
C768 C771 1.386 . S
H769 C785 0.930 . S
H770 C786 0.931 . S
C771 H759 0.929 . S
C771 C765 1.390 . S
C771 C768 1.386 . S
C772 C767 1.490 . S
C772 C774 1.395 . S
C772 C775 1.403 . S
H773 C779 0.930 . S
C774 H760 0.930 . S
C774 C772 1.395 . S
C774 C777 1.403 . S
C775 C772 1.403 . S
C775 C776 1.524 . S
C775 C779 1.400 . S
C776 H761 0.960 . S
C776 H762 0.960 . S
C776 H763 0.960 . S
C776 C775 1.524 . S
C777 C774 1.403 . S
C777 C778 1.392 . S
C777 C781 1.495 . S
C778 C777 1.392 . S
C778 C779 1.385 . S
C778 C780 1.478 . S
C779 H773 0.930 . S
C779 C775 1.400 . S
C779 C778 1.385 . S
C780 C778 1.478 . S
C780 C782 1.381 . S
C780 C786 1.383 . S
C781 C777 1.495 . S
C781 H787 0.959 . S
C781 H788 0.961 . S
C781 H789 0.960 . S
C782 C780 1.381 . S
C782 C783 1.394 . S
C782 H790 0.930 . S
C783 C782 1.394 . S
C783 C784 1.383 . S
C783 H791 0.929 . S
C784 C783 1.383 . S
C784 C785 1.377 . S
C785 H769 0.930 . S
C785 C784 1.377 . S
C785 C786 1.379 . S
C786 H770 0.931 . S
C786 C780 1.383 . S
C786 C785 1.379 . S
H787 C781 0.959 . S
H788 C781 0.961 . S
H789 C781 0.960 . S
H790 C782 0.930 . S
H791 C783 0.929 . S
H792 C800 0.929 . S
H793 C802 0.930 . S
H794 C804 0.930 . S
H795 C807 0.929 . S
H796 C810 0.930 . S
H797 C812 0.960 . S
H798 C812 0.960 . S
H799 C812 0.960 . S
C800 H792 0.929 . S
C800 C801 1.377 . S
C800 C802 1.384 . S
C801 C800 1.377 . S
C801 C807 1.390 . S
C802 H793 0.930 . S
C802 C800 1.384 . S
C802 C803 1.372 . S
C803 C802 1.372 . S
C803 C804 1.400 . S
C803 C808 1.490 . S
C804 H794 0.930 . S
C804 C803 1.400 . S
C804 C807 1.386 . S
H805 C821 0.930 . S
H806 C822 0.931 1_565 S
C807 H795 0.929 . S
C807 C801 1.390 . S
C807 C804 1.386 . S
C808 C803 1.490 . S
C808 C810 1.395 . S
C808 C811 1.403 . S
H809 C815 0.930 . S
C810 H796 0.930 . S
C810 C808 1.395 . S
C810 C813 1.399 1_565 S
C811 C808 1.403 . S
C811 C812 1.524 . S
C811 C815 1.400 . S
C812 H797 0.960 . S
C812 H798 0.960 . S
C812 H799 0.960 . S
C812 C811 1.524 . S
C813 C810 1.399 1_545 S
C813 C814 1.391 . S
C813 C817 1.501 . S
C814 C813 1.391 . S
C814 C815 1.385 1_545 S
C814 C816 1.478 1_556 S
C815 H809 0.930 . S
C815 C811 1.400 . S
C815 C814 1.385 1_565 S
C816 C814 1.478 1_554 S
C816 C818 1.381 . S
C816 C822 1.383 . S
C817 C813 1.501 . S
C817 H823 0.959 . S
C817 H824 0.961 . S
C817 H825 0.960 . S
C818 C816 1.381 . S
C818 C819 1.394 . S
C818 H826 0.930 1_554 S
C819 C818 1.394 . S
C819 C820 1.383 . S
C819 H827 0.929 . S
C820 C819 1.383 . S
C820 C821 1.377 . S
C821 H805 0.930 . S
C821 C820 1.377 . S
C821 C822 1.379 . S
C822 H806 0.931 1_545 S
C822 C816 1.383 . S
C822 C821 1.379 . S
H823 C817 0.959 . S
H824 C817 0.961 . S
H825 C817 0.960 . S
H826 C818 0.930 1_556 S
H827 C819 0.929 . S
H828 C836 0.929 . S
H829 C838 0.930 . S
H830 C840 0.930 . S
H831 C843 0.929 . S
H832 C846 0.930 . S
H833 C848 0.960 . S
H834 C848 0.960 . S
H835 C848 0.960 . S
C836 H828 0.929 . S
C836 C837 1.377 . S
C836 C838 1.384 . S
C837 C836 1.377 . S
C837 C843 1.390 . S
C838 H829 0.930 . S
C838 C836 1.384 . S
C838 C839 1.372 . S
C839 C838 1.372 . S
C839 C840 1.400 . S
C839 C844 1.490 . S
C840 H830 0.930 . S
C840 C839 1.400 . S
C840 C843 1.386 . S
H841 C857 0.930 . S
H842 C858 0.931 . S
C843 H831 0.929 . S
C843 C837 1.390 . S
C843 C840 1.386 . S
C844 C839 1.490 . S
C844 C846 1.395 . S
C844 C847 1.403 . S
H845 C851 0.930 . S
C846 H832 0.930 . S
C846 C844 1.395 . S
C846 C849 1.403 . S
C847 C844 1.403 . S
C847 C848 1.524 . S
C847 C851 1.400 . S
C848 H833 0.960 . S
C848 H834 0.960 . S
C848 H835 0.960 . S
C848 C847 1.524 . S
C849 C846 1.403 . S
C849 C850 1.392 . S
C849 C853 1.495 . S
C850 C849 1.392 . S
C850 C851 1.385 . S
C850 C852 1.478 . S
C851 H845 0.930 . S
C851 C847 1.400 . S
C851 C850 1.385 . S
C852 C850 1.478 . S
C852 C854 1.381 . S
C852 C858 1.383 . S
C853 C849 1.495 . S
C853 H859 0.959 . S
C853 H860 0.961 . S
C853 H861 0.960 . S
C854 C852 1.381 . S
C854 C855 1.394 . S
C854 H862 0.930 . S
C855 C854 1.394 . S
C855 C856 1.383 . S
C855 H863 0.929 . S
C856 C855 1.383 . S
C856 C857 1.377 . S
C857 H841 0.930 . S
C857 C856 1.377 . S
C857 C858 1.379 . S
C858 H842 0.931 . S
C858 C852 1.383 . S
C858 C857 1.379 . S
H859 C853 0.959 . S
H860 C853 0.961 . S
H861 C853 0.960 . S
H862 C854 0.930 . S
H863 C855 0.929 . S
H864 C872 0.929 . S
H865 C874 0.930 . S
H866 C876 0.930 . S
H867 C879 0.929 . S
H868 C882 0.930 . S
H869 C884 0.960 . S
H870 C884 0.960 1_455 S
H871 C884 0.960 . S
C872 H864 0.929 . S
C872 C873 1.377 . S
C872 C874 1.384 . S
C873 C872 1.377 . S
C873 C879 1.390 . S
C874 H865 0.930 . S
C874 C872 1.384 . S
C874 C875 1.372 . S
C875 C874 1.372 . S
C875 C876 1.400 . S
C875 C880 1.490 . S
C876 H866 0.930 . S
C876 C875 1.400 . S
C876 C879 1.386 . S
H877 C893 0.930 . S
H878 C894 0.931 . S
C879 H867 0.929 . S
C879 C873 1.390 . S
C879 C876 1.386 . S
C880 C875 1.490 . S
C880 C882 1.395 . S
C880 C883 1.403 . S
H881 C887 0.930 . S
C882 H868 0.930 . S
C882 C880 1.395 . S
C882 C885 1.403 . S
C883 C880 1.403 . S
C883 C884 1.524 1_455 S
C883 C887 1.400 1_455 S
C884 H869 0.960 . S
C884 H870 0.960 1_655 S
C884 H871 0.960 . S
C884 C883 1.524 1_655 S
C885 C882 1.403 . S
C885 C886 1.392 . S
C885 C889 1.495 . S
C886 C885 1.392 . S
C886 C887 1.385 1_455 S
C886 C888 1.478 1_455 S
C887 H881 0.930 . S
C887 C883 1.400 1_655 S
C887 C886 1.385 1_655 S
C888 C886 1.478 1_655 S
C888 C890 1.381 . S
C888 C894 1.383 . S
C889 C885 1.495 . S
C889 H895 0.959 . S
C889 H896 0.961 . S
C889 H897 0.960 . S
C890 C888 1.381 . S
C890 C891 1.394 . S
C890 H898 0.930 1_655 S
C891 C890 1.394 . S
C891 C892 1.383 . S
C891 H899 0.929 . S
C892 C891 1.383 . S
C892 C893 1.377 . S
C893 H877 0.930 . S
C893 C892 1.377 . S
C893 C894 1.379 . S
C894 H878 0.931 . S
C894 C888 1.383 . S
C894 C893 1.379 . S
H895 C889 0.959 . S
H896 C889 0.961 . S
H897 C889 0.960 . S
H898 C890 0.930 1_455 S
H899 C891 0.929 . S
H900 C908 0.929 . S
H901 C910 0.930 . S
H902 C912 0.930 . S
H903 C915 0.929 . S
H904 C918 0.930 . S
H905 C920 0.960 . S
H906 C920 0.960 . S
H907 C920 0.960 . S
C908 H900 0.929 . S
C908 C909 1.377 . S
C908 C910 1.384 . S
C909 C908 1.377 . S
C909 C915 1.390 . S
C910 H901 0.930 . S
C910 C908 1.384 . S
C910 C911 1.372 . S
C911 C910 1.372 . S
C911 C912 1.400 . S
C911 C916 1.490 . S
C912 H902 0.930 . S
C912 C911 1.400 . S
C912 C915 1.386 . S
H913 C929 0.930 . S
H914 C930 0.931 . S
C915 H903 0.929 . S
C915 C909 1.390 . S
C915 C912 1.386 . S
C916 C911 1.490 . S
C916 C918 1.395 . S
C916 C919 1.403 1_565 S
H917 C923 0.930 . S
C918 H904 0.930 . S
C918 C916 1.395 . S
C918 C921 1.403 1_554 S
C919 C916 1.403 1_545 S
C919 C920 1.524 . S
C919 C923 1.400 . S
C920 H905 0.960 . S
C920 H906 0.960 . S
C920 H907 0.960 . S
C920 C919 1.524 . S
C921 C918 1.403 1_556 S
C921 C922 1.392 1_565 S
C921 C925 1.495 . S
C922 C921 1.392 1_545 S
C922 C923 1.385 1_556 S
C922 C924 1.478 . S
C923 H917 0.930 . S
C923 C919 1.400 . S
C923 C922 1.385 1_554 S
C924 C922 1.478 . S
C924 C926 1.381 . S
C924 C930 1.383 . S
C925 C921 1.495 . S
C925 H931 0.959 . S
C925 H932 0.961 . S
C925 H933 0.960 . S
C926 C924 1.381 . S
C926 C927 1.394 . S
C926 H934 0.930 . S
C927 C926 1.394 . S
C927 C928 1.383 . S
C927 H935 0.929 . S
C928 C927 1.383 . S
C928 C929 1.377 . S
C929 H913 0.930 . S
C929 C928 1.377 . S
C929 C930 1.379 . S
C930 H914 0.931 . S
C930 C924 1.383 . S
C930 C929 1.379 . S
H931 C925 0.959 . S
H932 C925 0.961 . S
H933 C925 0.960 . S
H934 C926 0.930 . S
H935 C927 0.929 . S
H936 C944 0.929 . S
H937 C946 0.930 . S
H938 C948 0.930 . S
H939 C951 0.929 . S
H940 C954 0.930 . S
H941 C956 0.960 . S
H942 C956 0.960 . S
H943 C956 0.960 . S
C944 H936 0.929 . S
C944 C945 1.377 . S
C944 C946 1.384 . S
C945 C944 1.377 . S
C945 C951 1.390 . S
C946 H937 0.930 . S
C946 C944 1.384 . S
C946 C947 1.372 . S
C947 C946 1.372 . S
C947 C948 1.400 . S
C947 C952 1.490 . S
C948 H938 0.930 . S
C948 C947 1.400 . S
C948 C951 1.386 . S
H949 C965 0.930 . S
H950 C966 0.931 . S
C951 H939 0.929 . S
C951 C945 1.390 . S
C951 C948 1.386 . S
C952 C947 1.490 . S
C952 C954 1.395 . S
C952 C955 1.403 . S
H953 C959 0.930 . S
C954 H940 0.930 . S
C954 C952 1.395 . S
C954 C957 1.403 . S
C955 C952 1.403 . S
C955 C956 1.524 . S
C955 C959 1.400 . S
C956 H941 0.960 . S
C956 H942 0.960 . S
C956 H943 0.960 . S
C956 C955 1.524 . S
C957 C954 1.403 . S
C957 C958 1.392 . S
C957 C961 1.495 . S
C958 C957 1.392 . S
C958 C959 1.385 . S
C958 C960 1.478 . S
C959 H953 0.930 . S
C959 C955 1.400 . S
C959 C958 1.385 . S
C960 C958 1.478 . S
C960 C962 1.381 . S
C960 C966 1.383 . S
C961 C957 1.495 . S
C961 H967 0.959 . S
C961 H968 0.961 . S
C961 H969 0.960 . S
C962 C960 1.381 . S
C962 C963 1.394 . S
C962 H970 0.930 . S
C963 C962 1.394 . S
C963 C964 1.383 . S
C963 H971 0.929 . S
C964 C963 1.383 . S
C964 C965 1.377 . S
C965 H949 0.930 . S
C965 C964 1.377 . S
C965 C966 1.379 . S
C966 H950 0.931 . S
C966 C960 1.383 . S
C966 C965 1.379 . S
H967 C961 0.959 . S
H968 C961 0.961 . S
H969 C961 0.960 . S
H970 C962 0.930 . S
H971 C963 0.929 . S
H972 C980 0.929 . S
H973 C982 0.930 . S
H974 C984 0.930 . S
H975 C987 0.929 . S
H976 C990 0.930 . S
H977 C992 0.960 . S
H978 C992 0.960 . S
H979 C992 0.960 . S
C980 H972 0.929 . S
C980 C981 1.377 . S
C980 C982 1.384 . S
C981 C980 1.377 . S
C981 C987 1.390 . S
C982 H973 0.930 . S
C982 C980 1.384 . S
C982 C983 1.372 . S
C983 C982 1.372 . S
C983 C984 1.400 . S
C983 C988 1.490 . S
C984 H974 0.930 . S
C984 C983 1.400 . S
C984 C987 1.386 . S
H985 C1001 0.930 . S
H986 C1002 0.931 . S
C987 H975 0.929 . S
C987 C981 1.390 . S
C987 C984 1.386 . S
C988 C983 1.490 . S
C988 C990 1.395 1_455 S
C988 C991 1.403 . S
H989 C995 0.930 . S
C990 H976 0.930 . S
C990 C988 1.395 1_655 S
C990 C993 1.403 . S
C991 C988 1.403 . S
C991 C992 1.524 . S
C991 C995 1.400 1_455 S
C992 H977 0.960 . S
C992 H978 0.960 . S
C992 H979 0.960 . S
C992 C991 1.524 . S
C993 C990 1.403 . S
C993 C994 1.392 . S
C993 C997 1.495 . S
C994 C993 1.392 . S
C994 C995 1.385 . S
C994 C996 1.478 . S
C995 H989 0.930 . S
C995 C991 1.400 1_655 S
C995 C994 1.385 . S
C996 C994 1.478 . S
C996 C998 1.381 . S
C996 C1002 1.383 . S
C997 C993 1.495 . S
C997 H1003 0.959 . S
C997 H1004 0.961 . S
C997 H1005 0.960 . S
C998 C996 1.381 . S
C998 C999 1.394 . S
C998 H1006 0.930 . S
C999 C998 1.394 . S
C999 C1000 1.383 . S
C999 H1007 0.929 . S
C1000 C999 1.383 . S
C1000 C1001 1.377 . S
C1001 H985 0.930 . S
C1001 C1000 1.377 . S
C1001 C1002 1.379 . S
C1002 H986 0.931 . S
C1002 C996 1.383 . S
C1002 C1001 1.379 . S
H1003 C997 0.959 . S
H1004 C997 0.961 . S
H1005 C997 0.960 . S
H1006 C998 0.930 . S
H1007 C999 0.929 . S
H1008 C1016 0.929 . S
H1009 C1018 0.930 . S
H1010 C1020 0.930 . S
H1011 C1023 0.929 . S
H1012 C1026 0.930 . S
H1013 C1028 0.960 . S
H1014 C1028 0.960 . S
H1015 C1028 0.960 1_545 S
C1016 H1008 0.929 . S
C1016 C1017 1.377 . S
C1016 C1018 1.384 . S
C1017 C1016 1.377 . S
C1017 C1023 1.390 . S
C1018 H1009 0.930 . S
C1018 C1016 1.384 . S
C1018 C1019 1.372 . S
C1019 C1018 1.372 . S
C1019 C1020 1.400 . S
C1019 C1024 1.490 . S
C1020 H1010 0.930 . S
C1020 C1019 1.400 . S
C1020 C1023 1.386 . S
H1021 C1037 0.930 . S
H1022 C1038 0.931 . S
C1023 H1011 0.929 . S
C1023 C1017 1.390 . S
C1023 C1020 1.386 . S
C1024 C1019 1.490 . S
C1024 C1026 1.395 . S
C1024 C1027 1.403 1_545 S
H1025 C1031 0.930 . S
C1026 H1012 0.930 . S
C1026 C1024 1.395 . S
C1026 C1029 1.403 1_545 S
C1027 C1024 1.403 1_565 S
C1027 C1028 1.524 . S
C1027 C1031 1.400 . S
C1028 H1013 0.960 . S
C1028 H1014 0.960 . S
C1028 H1015 0.960 1_565 S
C1028 C1027 1.524 . S
C1029 C1026 1.403 1_565 S
C1029 C1030 1.392 . S
C1029 C1033 1.484 . S
C1030 C1029 1.392 . S
C1030 C1031 1.385 . S
C1030 C1032 1.478 . S
C1031 H1025 0.930 . S
C1031 C1027 1.400 . S
C1031 C1030 1.385 . S
C1032 C1030 1.478 . S
C1032 C1034 1.381 . S
C1032 C1038 1.383 . S
C1033 C1029 1.484 . S
C1033 H1039 0.937 1_565 S
C1033 H1040 0.966 1_565 S
C1033 H1041 0.989 . S
C1034 C1032 1.381 . S
C1034 C1035 1.394 . S
C1034 H1042 0.930 . S
C1035 C1034 1.394 . S
C1035 C1036 1.383 . S
C1035 H1043 0.929 . S
C1036 C1035 1.383 . S
C1036 C1037 1.377 . S
C1037 H1021 0.930 . S
C1037 C1036 1.377 . S
C1037 C1038 1.379 . S
C1038 H1022 0.931 . S
C1038 C1032 1.383 . S
C1038 C1037 1.379 . S
H1039 C1033 0.937 1_545 S
H1040 C1033 0.966 1_545 S
H1041 C1033 0.989 . S
H1042 C1034 0.930 . S
H1043 C1035 0.929 . S
H1044 C1052 0.929 . S
H1045 C1054 0.930 . S
H1046 C1056 0.930 . S
H1047 C1059 0.929 . S
H1048 C1062 0.930 . S
H1049 C1064 0.960 . S
H1050 C1064 0.960 . S
H1051 C1064 0.960 . S
C1052 H1044 0.929 . S
C1052 C1053 1.377 . S
C1052 C1054 1.384 . S
C1053 C1052 1.377 . S
C1053 C1059 1.390 . S
C1054 H1045 0.930 . S
C1054 C1052 1.384 . S
C1054 C1055 1.372 . S
C1055 C1054 1.372 . S
C1055 C1056 1.400 . S
C1055 C1060 1.490 . S
C1056 H1046 0.930 . S
C1056 C1055 1.400 . S
C1056 C1059 1.386 . S
H1057 C1073 0.930 . S
H1058 C1074 0.931 . S
C1059 H1047 0.929 . S
C1059 C1053 1.390 . S
C1059 C1056 1.386 . S
C1060 C1055 1.490 . S
C1060 C1062 1.395 . S
C1060 C1063 1.403 . S
H1061 C1067 0.930 . S
C1062 H1048 0.930 . S
C1062 C1060 1.395 . S
C1062 C1065 1.403 . S
C1063 C1060 1.403 . S
C1063 C1064 1.524 . S
C1063 C1067 1.400 . S
C1064 H1049 0.960 . S
C1064 H1050 0.960 . S
C1064 H1051 0.960 . S
C1064 C1063 1.524 . S
C1065 C1062 1.403 . S
C1065 C1066 1.392 . S
C1065 C1069 1.495 . S
C1066 C1065 1.392 . S
C1066 C1067 1.385 . S
C1066 C1068 1.478 . S
C1067 H1061 0.930 . S
C1067 C1063 1.400 . S
C1067 C1066 1.385 . S
C1068 C1066 1.478 . S
C1068 C1070 1.381 . S
C1068 C1074 1.383 . S
C1069 C1065 1.495 . S
C1069 H1075 0.959 . S
C1069 H1076 0.961 . S
C1069 H1077 0.960 . S
C1070 C1068 1.381 . S
C1070 C1071 1.394 . S
C1070 H1078 0.930 . S
C1071 C1070 1.394 . S
C1071 C1072 1.383 . S
C1071 H1079 0.929 . S
C1072 C1071 1.383 . S
C1072 C1073 1.377 . S
C1073 H1057 0.930 . S
C1073 C1072 1.377 . S
C1073 C1074 1.379 . S
C1074 H1058 0.931 . S
C1074 C1068 1.383 . S
C1074 C1073 1.379 . S
H1075 C1069 0.959 . S
H1076 C1069 0.961 . S
H1077 C1069 0.960 . S
H1078 C1070 0.930 . S
H1079 C1071 0.929 . S
H1080 C1088 0.929 . S
H1081 C1090 0.930 . S
H1082 C1092 0.930 . S
H1083 C1095 0.929 . S
H1084 C1098 0.930 . S
H1085 C1100 0.960 . S
H1086 C1100 0.960 . S
H1087 C1100 0.960 . S
C1088 H1080 0.929 . S
C1088 C1089 1.377 . S
C1088 C1090 1.384 . S
C1089 C1088 1.377 . S
C1089 C1095 1.390 . S
C1090 H1081 0.930 . S
C1090 C1088 1.384 . S
C1090 C1091 1.372 . S
C1091 C1090 1.372 . S
C1091 C1092 1.400 . S
C1091 C1096 1.490 . S
C1092 H1082 0.930 . S
C1092 C1091 1.400 . S
C1092 C1095 1.386 . S
H1093 C1109 0.930 . S
H1094 C1110 0.931 . S
C1095 H1083 0.929 . S
C1095 C1089 1.390 . S
C1095 C1092 1.386 . S
C1096 C1091 1.490 . S
C1096 C1098 1.395 . S
C1096 C1099 1.403 1_655 S
H1097 C1103 0.930 . S
C1098 H1084 0.930 . S
C1098 C1096 1.395 . S
C1098 C1101 1.403 . S
C1099 C1096 1.403 1_455 S
C1099 C1100 1.524 . S
C1099 C1103 1.400 . S
C1100 H1085 0.960 . S
C1100 H1086 0.960 . S
C1100 H1087 0.960 . S
C1100 C1099 1.524 . S
C1101 C1098 1.403 . S
C1101 C1102 1.392 1_655 S
C1101 C1105 1.495 . S
C1102 C1101 1.392 1_455 S
C1102 C1103 1.385 . S
C1102 C1104 1.478 . S
C1103 H1097 0.930 . S
C1103 C1099 1.400 . S
C1103 C1102 1.385 . S
C1104 C1102 1.478 . S
C1104 C1106 1.381 . S
C1104 C1110 1.383 . S
C1105 C1101 1.495 . S
C1105 H1111 0.959 . S
C1105 H1112 0.961 . S
C1105 H1113 0.960 . S
C1106 C1104 1.381 . S
C1106 C1107 1.394 . S
C1106 H1114 0.930 . S
C1107 C1106 1.394 . S
C1107 C1108 1.383 . S
C1107 H1115 0.929 . S
C1108 C1107 1.383 . S
C1108 C1109 1.377 . S
C1109 H1093 0.930 . S
C1109 C1108 1.377 . S
C1109 C1110 1.379 . S
C1110 H1094 0.931 . S
C1110 C1104 1.383 . S
C1110 C1109 1.379 . S
H1111 C1105 0.959 . S
H1112 C1105 0.961 . S
H1113 C1105 0.960 . S
H1114 C1106 0.930 . S
H1115 C1107 0.929 . S
H1116 C1124 0.929 . S
H1117 C1126 0.930 . S
H1118 C1128 0.930 . S
H1119 C1131 0.929 . S
H1120 C1134 0.930 . S
H1121 C1136 0.960 . S
H1122 C1136 0.960 . S
H1123 C1136 0.960 . S
C1124 H1116 0.929 . S
C1124 C1125 1.377 . S
C1124 C1126 1.384 . S
C1125 C1124 1.377 . S
C1125 C1131 1.390 . S
C1126 H1117 0.930 . S
C1126 C1124 1.384 . S
C1126 C1127 1.372 . S
C1127 C1126 1.372 . S
C1127 C1128 1.400 . S
C1127 C1132 1.490 . S
C1128 H1118 0.930 . S
C1128 C1127 1.400 . S
C1128 C1131 1.386 . S
H1129 C1145 0.930 . S
H1130 C1146 0.931 . S
C1131 H1119 0.929 . S
C1131 C1125 1.390 . S
C1131 C1128 1.386 . S
C1132 C1127 1.490 . S
C1132 C1134 1.395 1_455 S
C1132 C1135 1.403 . S
H1133 C1139 0.930 . S
C1134 H1120 0.930 . S
C1134 C1132 1.395 1_655 S
C1134 C1137 1.403 . S
C1135 C1132 1.403 . S
C1135 C1136 1.524 . S
C1135 C1139 1.400 . S
C1136 H1121 0.960 . S
C1136 H1122 0.960 . S
C1136 H1123 0.960 . S
C1136 C1135 1.524 . S
C1137 C1134 1.403 . S
C1137 C1138 1.392 . S
C1137 C1141 1.495 . S
C1138 C1137 1.392 . S
C1138 C1139 1.385 1_655 S
C1138 C1140 1.478 . S
C1139 H1133 0.930 . S
C1139 C1135 1.400 . S
C1139 C1138 1.385 1_455 S
C1140 C1138 1.478 . S
C1140 C1142 1.381 . S
C1140 C1146 1.383 . S
C1141 C1137 1.495 . S
C1141 H1147 0.959 . S
C1141 H1148 0.961 . S
C1141 H1149 0.960 . S
C1142 C1140 1.381 . S
C1142 C1143 1.394 . S
C1142 H1150 0.930 . S
C1143 C1142 1.394 . S
C1143 C1144 1.383 . S
C1143 H1151 0.929 . S
C1144 C1143 1.383 . S
C1144 C1145 1.377 . S
C1145 H1129 0.930 . S
C1145 C1144 1.377 . S
C1145 C1146 1.379 . S
C1146 H1130 0.931 . S
C1146 C1140 1.383 . S
C1146 C1145 1.379 . S
H1147 C1141 0.959 . S
H1148 C1141 0.961 . S
H1149 C1141 0.960 . S
H1150 C1142 0.930 . S
H1151 C1143 0.929 . S
H1152 C1160 0.929 . S
H1153 C1162 0.930 . S
H1154 C1164 0.930 . S
H1155 C1167 0.929 . S
H1156 C1170 0.930 . S
H1157 C1172 0.960 . S
H1158 C1172 0.960 . S
H1159 C1172 0.960 . S
C1160 H1152 0.929 . S
C1160 C1161 1.377 . S
C1160 C1162 1.384 . S
C1161 C1160 1.377 . S
C1161 C1167 1.390 . S
C1162 H1153 0.930 . S
C1162 C1160 1.384 . S
C1162 C1163 1.372 . S
C1163 C1162 1.372 . S
C1163 C1164 1.400 . S
C1163 C1168 1.490 . S
C1164 H1154 0.930 . S
C1164 C1163 1.400 . S
C1164 C1167 1.386 . S
H1165 C1181 0.930 . S
H1166 C1182 0.931 . S
C1167 H1155 0.929 . S
C1167 C1161 1.390 . S
C1167 C1164 1.386 . S
C1168 C1163 1.490 . S
C1168 C1170 1.395 . S
C1168 C1171 1.403 1_565 S
H1169 C1175 0.930 . S
C1170 H1156 0.930 . S
C1170 C1168 1.395 . S
C1170 C1173 1.403 . S
C1171 C1168 1.403 1_545 S
C1171 C1172 1.524 . S
C1171 C1175 1.400 . S
C1172 H1157 0.960 . S
C1172 H1158 0.960 . S
C1172 H1159 0.960 . S
C1172 C1171 1.524 . S
C1173 C1170 1.403 . S
C1173 C1174 1.392 1_565 S
C1173 C1177 1.495 . S
C1174 C1173 1.392 1_545 S
C1174 C1175 1.385 . S
C1174 C1176 1.478 . S
C1175 H1169 0.930 . S
C1175 C1171 1.400 . S
C1175 C1174 1.385 . S
C1176 C1174 1.478 . S
C1176 C1178 1.381 . S
C1176 C1182 1.383 . S
C1177 C1173 1.495 . S
C1177 H1183 0.959 . S
C1177 H1184 0.961 . S
C1177 H1185 0.960 . S
C1178 C1176 1.381 . S
C1178 C1179 1.394 . S
C1178 H1186 0.930 . S
C1179 C1178 1.394 . S
C1179 C1180 1.383 . S
C1179 H1187 0.929 . S
C1180 C1179 1.383 . S
C1180 C1181 1.377 . S
C1181 H1165 0.930 . S
C1181 C1180 1.377 . S
C1181 C1182 1.379 . S
C1182 H1166 0.931 . S
C1182 C1176 1.383 . S
C1182 C1181 1.379 . S
H1183 C1177 0.959 . S
H1184 C1177 0.961 . S
H1185 C1177 0.960 . S
H1186 C1178 0.930 . S
H1187 C1179 0.929 . S
H1188 C1196 0.929 . S
H1189 C1198 0.930 . S
H1190 C1200 0.930 . S
H1191 C1203 0.929 . S
H1192 C1206 0.930 . S
H1193 C1208 0.960 . S
H1194 C1208 0.960 . S
H1195 C1208 0.960 . S
C1196 H1188 0.929 . S
C1196 C1197 1.377 . S
C1196 C1198 1.384 . S
C1197 C1196 1.377 . S
C1197 C1203 1.390 . S
C1198 H1189 0.930 . S
C1198 C1196 1.384 . S
C1198 C1199 1.372 . S
C1199 C1198 1.372 . S
C1199 C1200 1.400 . S
C1199 C1204 1.490 . S
C1200 H1190 0.930 . S
C1200 C1199 1.400 . S
C1200 C1203 1.386 . S
H1201 C1217 0.930 . S
H1202 C1218 0.931 . S
C1203 H1191 0.929 . S
C1203 C1197 1.390 . S
C1203 C1200 1.386 . S
C1204 C1199 1.490 . S
C1204 C1206 1.395 . S
C1204 C1207 1.403 . S
H1205 C1211 0.930 . S
C1206 H1192 0.930 . S
C1206 C1204 1.395 . S
C1206 C1209 1.403 . S
C1207 C1204 1.403 . S
C1207 C1208 1.524 . S
C1207 C1211 1.400 . S
C1208 H1193 0.960 . S
C1208 H1194 0.960 . S
C1208 H1195 0.960 . S
C1208 C1207 1.524 . S
C1209 C1206 1.403 . S
C1209 C1210 1.392 . S
C1209 C1213 1.495 1_554 S
C1210 C1209 1.392 . S
C1210 C1211 1.385 . S
C1210 C1212 1.478 . S
C1211 H1205 0.930 . S
C1211 C1207 1.400 . S
C1211 C1210 1.385 . S
C1212 C1210 1.478 . S
C1212 C1214 1.381 . S
C1212 C1218 1.383 . S
C1213 C1209 1.495 1_556 S
C1213 H1219 0.959 . S
C1213 H1220 0.961 . S
C1213 H1221 0.960 . S
C1214 C1212 1.381 . S
C1214 C1215 1.394 . S
C1214 H1222 0.930 . S
C1215 C1214 1.394 . S
C1215 C1216 1.383 . S
C1215 H1223 0.929 . S
C1216 C1215 1.383 . S
C1216 C1217 1.377 . S
C1217 H1201 0.930 . S
C1217 C1216 1.377 . S
C1217 C1218 1.379 . S
C1218 H1202 0.931 . S
C1218 C1212 1.383 . S
C1218 C1217 1.379 . S
H1219 C1213 0.959 . S
H1220 C1213 0.961 . S
H1221 C1213 0.960 . S
H1222 C1214 0.930 . S
H1223 C1215 0.929 . S
H1224 C1232 0.929 . S
H1225 C1234 0.935 1_545 S
H1226 C1236 0.930 . S
H1227 C1239 0.929 . S
H1228 C1242 0.930 . S
H1229 C1244 0.960 . S
H1230 C1244 0.960 . S
H1231 C1244 0.960 . S
C1232 H1224 0.929 . S
C1232 C1233 1.377 . S
C1232 C1234 1.384 . S
C1233 C1232 1.377 . S
C1233 C1239 1.390 . S
C1234 H1225 0.935 1_565 S
C1234 C1232 1.384 . S
C1234 C1235 1.372 . S
C1235 C1234 1.372 . S
C1235 C1236 1.400 . S
C1235 C1240 1.490 . S
C1236 H1226 0.930 . S
C1236 C1235 1.400 . S
C1236 C1239 1.386 . S
H1237 C1253 0.930 . S
H1238 C1254 0.931 . S
C1239 H1227 0.929 . S
C1239 C1233 1.390 . S
C1239 C1236 1.386 . S
C1240 C1235 1.490 . S
C1240 C1242 1.395 1_565 S
C1240 C1243 1.403 . S
H1241 C1247 0.930 1_565 S
C1242 H1228 0.930 . S
C1242 C1240 1.395 1_545 S
C1242 C1245 1.403 . S
C1243 C1240 1.403 . S
C1243 C1244 1.524 . S
C1243 C1247 1.400 1_565 S
C1244 H1229 0.960 . S
C1244 H1230 0.960 . S
C1244 H1231 0.960 . S
C1244 C1243 1.524 . S
C1245 C1242 1.403 . S
C1245 C1246 1.392 . S
C1245 C1249 1.495 . S
C1246 C1245 1.392 . S
C1246 C1247 1.385 . S
C1246 C1248 1.478 . S
C1247 H1241 0.930 1_545 S
C1247 C1243 1.400 1_545 S
C1247 C1246 1.385 . S
C1248 C1246 1.478 . S
C1248 C1250 1.381 . S
C1248 C1254 1.383 . S
C1249 C1245 1.495 . S
C1249 H1255 0.959 . S
C1249 H1256 0.961 . S
C1249 H1257 0.960 . S
C1250 C1248 1.381 . S
C1250 C1251 1.394 . S
C1250 H1258 0.930 . S
C1251 C1250 1.394 . S
C1251 C1252 1.383 . S
C1251 H1259 0.929 . S
C1252 C1251 1.383 . S
C1252 C1253 1.377 . S
C1253 H1237 0.930 . S
C1253 C1252 1.377 . S
C1253 C1254 1.379 . S
C1254 H1238 0.931 . S
C1254 C1248 1.383 . S
C1254 C1253 1.379 . S
H1255 C1249 0.959 . S
H1256 C1249 0.961 . S
H1257 C1249 0.960 . S
H1258 C1250 0.930 . S
H1259 C1251 0.929 . S
H1260 C1268 0.929 . S
H1261 C1270 0.930 . S
H1262 C1272 0.930 . S
H1263 C1275 0.929 1_554 S
H1264 C1278 0.930 . S
H1265 C1280 0.960 . S
H1266 C1280 0.960 . S
H1267 C1280 0.960 . S
C1268 H1260 0.929 . S
C1268 C1269 1.377 . S
C1268 C1270 1.384 . S
C1269 C1268 1.377 . S
C1269 C1275 1.390 . S
C1270 H1261 0.930 . S
C1270 C1268 1.384 . S
C1270 C1271 1.372 . S
C1271 C1270 1.372 . S
C1271 C1272 1.400 . S
C1271 C1276 1.490 . S
C1272 H1262 0.930 . S
C1272 C1271 1.400 . S
C1272 C1275 1.386 . S
H1273 C1289 0.930 . S
H1274 C1290 0.931 . S
C1275 H1263 0.929 1_556 S
C1275 C1269 1.390 . S
C1275 C1272 1.386 . S
C1276 C1271 1.490 . S
C1276 C1278 1.395 . S
C1276 C1279 1.403 . S
H1277 C1283 0.930 . S
C1278 H1264 0.930 . S
C1278 C1276 1.395 . S
C1278 C1281 1.403 . S
C1279 C1276 1.403 . S
C1279 C1280 1.524 . S
C1279 C1283 1.400 . S
C1280 H1265 0.960 . S
C1280 H1266 0.960 . S
C1280 H1267 0.960 . S
C1280 C1279 1.524 . S
C1281 C1278 1.403 . S
C1281 C1282 1.392 . S
C1281 C1285 1.495 . S
C1282 C1281 1.392 . S
C1282 C1283 1.385 . S
C1282 C1284 1.478 . S
C1283 H1277 0.930 . S
C1283 C1279 1.400 . S
C1283 C1282 1.385 . S
C1284 C1282 1.478 . S
C1284 C1286 1.381 . S
C1284 C1290 1.383 . S
C1285 C1281 1.495 . S
C1285 H1291 0.959 . S
C1285 H1292 0.961 . S
C1285 H1293 0.960 . S
C1286 C1284 1.381 . S
C1286 C1287 1.394 . S
C1286 H1294 0.930 . S
C1287 C1286 1.394 . S
C1287 C1288 1.383 . S
C1287 H1295 0.929 . S
C1288 C1287 1.383 . S
C1288 C1289 1.377 . S
C1289 H1273 0.930 . S
C1289 C1288 1.377 . S
C1289 C1290 1.379 . S
C1290 H1274 0.931 . S
C1290 C1284 1.383 . S
C1290 C1289 1.379 . S
H1291 C1285 0.959 . S
H1292 C1285 0.961 . S
H1293 C1285 0.960 . S
H1294 C1286 0.930 . S
H1295 C1287 0.929 . S
H1296 C1304 0.929 . S
H1297 C1306 0.930 . S
H1298 C1308 0.930 . S
H1299 C1311 0.929 . S
H1300 C1314 0.930 . S
H1301 C1316 0.960 . S
H1302 C1316 0.960 . S
H1303 C1316 0.960 . S
C1304 H1296 0.929 . S
C1304 C1305 1.377 1_554 S
C1304 C1306 1.384 . S
C1305 C1304 1.377 1_556 S
C1305 C1311 1.390 . S
C1306 H1297 0.930 . S
C1306 C1304 1.384 . S
C1306 C1307 1.372 . S
C1307 C1306 1.372 . S
C1307 C1308 1.400 . S
C1307 C1312 1.490 . S
C1308 H1298 0.930 . S
C1308 C1307 1.400 . S
C1308 C1311 1.386 1_554 S
H1309 C1325 0.930 . S
H1310 C1326 0.931 . S
C1311 H1299 0.929 . S
C1311 C1305 1.390 . S
C1311 C1308 1.386 1_556 S
C1312 C1307 1.490 . S
C1312 C1314 1.395 . S
C1312 C1315 1.403 1_655 S
H1313 C1319 0.930 . S
C1314 H1300 0.930 . S
C1314 C1312 1.395 . S
C1314 C1317 1.403 . S
C1315 C1312 1.403 1_455 S
C1315 C1316 1.524 . S
C1315 C1319 1.400 . S
C1316 H1301 0.960 . S
C1316 H1302 0.960 . S
C1316 H1303 0.960 . S
C1316 C1315 1.524 . S
C1317 C1314 1.403 . S
C1317 C1318 1.392 1_655 S
C1317 C1321 1.495 . S
C1318 C1317 1.392 1_455 S
C1318 C1319 1.385 . S
C1318 C1320 1.478 . S
C1319 H1313 0.930 . S
C1319 C1315 1.400 . S
C1319 C1318 1.385 . S
C1320 C1318 1.478 . S
C1320 C1322 1.381 . S
C1320 C1326 1.383 . S
C1321 C1317 1.495 . S
C1321 H1327 0.959 . S
C1321 H1328 0.961 . S
C1321 H1329 0.960 . S
C1322 C1320 1.381 . S
C1322 C1323 1.394 . S
C1322 H1330 0.901 1_455 S
C1323 C1322 1.394 . S
C1323 C1324 1.383 . S
C1323 H1331 0.929 . S
C1324 C1323 1.383 . S
C1324 C1325 1.377 . S
C1325 H1309 0.930 . S
C1325 C1324 1.377 . S
C1325 C1326 1.379 . S
C1326 H1310 0.931 . S
C1326 C1320 1.383 . S
C1326 C1325 1.379 . S
H1327 C1321 0.959 . S
H1328 C1321 0.961 . S
H1329 C1321 0.960 . S
H1330 C1322 0.901 1_655 S
H1331 C1323 0.929 . S
H1332 C1340 0.929 . S
H1333 C1342 0.930 . S
H1334 C1344 0.930 . S
H1335 C1347 0.929 . S
H1336 C1350 0.930 . S
H1337 C1352 0.960 . S
H1338 C1352 0.960 . S
H1339 C1352 0.960 . S
C1340 H1332 0.929 . S
C1340 C1341 1.377 . S
C1340 C1342 1.384 . S
C1341 C1340 1.377 . S
C1341 C1347 1.390 . S
C1342 H1333 0.930 . S
C1342 C1340 1.384 . S
C1342 C1343 1.372 . S
C1343 C1342 1.372 . S
C1343 C1344 1.400 . S
C1343 C1348 1.490 . S
C1344 H1334 0.930 . S
C1344 C1343 1.400 . S
C1344 C1347 1.386 . S
H1345 C1361 0.930 . S
H1346 C1362 0.931 . S
C1347 H1335 0.929 . S
C1347 C1341 1.390 . S
C1347 C1344 1.386 . S
C1348 C1343 1.490 . S
C1348 C1350 1.395 . S
C1348 C1351 1.403 . S
H1349 C1355 0.930 . S
C1350 H1336 0.930 . S
C1350 C1348 1.395 . S
C1350 C1353 1.403 1_545 S
C1351 C1348 1.403 . S
C1351 C1352 1.524 . S
C1351 C1355 1.400 1_545 S
C1352 H1337 0.960 . S
C1352 H1338 0.960 . S
C1352 H1339 0.960 . S
C1352 C1351 1.524 . S
C1353 C1350 1.403 1_565 S
C1353 C1354 1.392 . S
C1353 C1357 1.495 . S
C1354 C1353 1.392 . S
C1354 C1355 1.385 . S
C1354 C1356 1.478 . S
C1355 H1349 0.930 . S
C1355 C1351 1.400 1_565 S
C1355 C1354 1.385 . S
C1356 C1354 1.478 . S
C1356 C1358 1.381 . S
C1356 C1362 1.383 . S
C1357 C1353 1.495 . S
C1357 H1363 0.959 . S
C1357 H1364 0.961 . S
C1357 H1365 0.960 . S
C1358 C1356 1.381 . S
C1358 C1359 1.394 . S
C1358 H1366 0.930 . S
C1359 C1358 1.394 . S
C1359 C1360 1.383 . S
C1359 H1367 0.929 . S
C1360 C1359 1.383 . S
C1360 C1361 1.377 . S
C1361 H1345 0.930 . S
C1361 C1360 1.377 . S
C1361 C1362 1.379 . S
C1362 H1346 0.931 . S
C1362 C1356 1.383 . S
C1362 C1361 1.379 . S
H1363 C1357 0.959 . S
H1364 C1357 0.961 . S
H1365 C1357 0.960 . S
H1366 C1358 0.930 . S
H1367 C1359 0.929 . S
H1368 C1376 0.929 . S
H1369 C1378 0.930 . S
H1370 C1380 0.930 . S
H1371 C1383 0.929 . S
H1372 C1386 0.930 . S
H1373 C1388 0.960 . S
H1374 C1388 0.960 . S
H1375 C1388 0.960 . S
C1376 H1368 0.929 . S
C1376 C1377 1.377 . S
C1376 C1378 1.384 . S
C1377 C1376 1.377 . S
C1377 C1383 1.390 . S
C1378 H1369 0.930 . S
C1378 C1376 1.384 . S
C1378 C1379 1.372 . S
C1379 C1378 1.372 . S
C1379 C1380 1.400 . S
C1379 C1384 1.490 . S
C1380 H1370 0.930 . S
C1380 C1379 1.400 . S
C1380 C1383 1.386 . S
H1381 C1397 0.930 . S
H1382 C1398 0.931 . S
C1383 H1371 0.929 . S
C1383 C1377 1.390 . S
C1383 C1380 1.386 . S
C1384 C1379 1.490 . S
C1384 C1386 1.395 . S
C1384 C1387 1.403 . S
H1385 C1391 0.930 . S
C1386 H1372 0.930 . S
C1386 C1384 1.395 . S
C1386 C1389 1.403 . S
C1387 C1384 1.403 . S
C1387 C1388 1.524 . S
C1387 C1391 1.400 . S
C1388 H1373 0.960 . S
C1388 H1374 0.960 . S
C1388 H1375 0.960 . S
C1388 C1387 1.524 . S
C1389 C1386 1.403 . S
C1389 C1390 1.392 . S
C1389 C1393 1.495 . S
C1390 C1389 1.392 . S
C1390 C1391 1.385 . S
C1390 C1392 1.478 . S
C1391 H1385 0.930 . S
C1391 C1387 1.400 . S
C1391 C1390 1.385 . S
C1392 C1390 1.478 . S
C1392 C1394 1.381 . S
C1392 C1398 1.383 . S
C1393 C1389 1.495 . S
C1393 H1399 0.959 . S
C1393 H1400 0.961 . S
C1393 H1401 0.960 . S
C1394 C1392 1.381 . S
C1394 C1395 1.394 . S
C1394 H1402 0.930 . S
C1395 C1394 1.394 . S
C1395 C1396 1.383 . S
C1395 H1403 0.929 . S
C1396 C1395 1.383 . S
C1396 C1397 1.377 . S
C1397 H1381 0.930 . S
C1397 C1396 1.377 . S
C1397 C1398 1.379 . S
C1398 H1382 0.931 . S
C1398 C1392 1.383 . S
C1398 C1397 1.379 . S
H1399 C1393 0.959 . S
H1400 C1393 0.961 . S
H1401 C1393 0.960 . S
H1402 C1394 0.930 . S
H1403 C1395 0.929 . S
H1404 C1412 0.929 . S
H1405 C1414 0.930 . S
H1406 C1416 0.930 . S
H1407 C1419 0.929 . S
H1408 C1422 0.930 . S
H1409 C1424 0.960 . S
H1410 C1424 0.960 . S
H1411 C1424 0.960 . S
C1412 H1404 0.929 . S
C1412 C1413 1.377 . S
C1412 C1414 1.384 . S
C1413 C1412 1.377 . S
C1413 C1419 1.390 . S
C1414 H1405 0.930 . S
C1414 C1412 1.384 . S
C1414 C1415 1.372 . S
C1415 C1414 1.372 . S
C1415 C1416 1.400 . S
C1415 C1420 1.490 . S
C1416 H1406 0.930 . S
C1416 C1415 1.400 . S
C1416 C1419 1.386 . S
H1417 C1433 0.930 . S
H1418 C1434 0.931 . S
C1419 H1407 0.929 . S
C1419 C1413 1.390 . S
C1419 C1416 1.386 . S
C1420 C1415 1.490 . S
C1420 C1422 1.395 1_455 S
C1420 C1423 1.403 . S
H1421 C1427 0.930 . S
C1422 H1408 0.930 . S
C1422 C1420 1.395 1_655 S
C1422 C1425 1.403 . S
C1423 C1420 1.403 . S
C1423 C1424 1.524 . S
C1423 C1427 1.400 . S
C1424 H1409 0.960 . S
C1424 H1410 0.960 . S
C1424 H1411 0.960 . S
C1424 C1423 1.524 . S
C1425 C1422 1.403 . S
C1425 C1426 1.392 . S
C1425 C1429 1.495 . S
C1426 C1425 1.392 . S
C1426 C1427 1.385 1_655 S
C1426 C1428 1.478 . S
C1427 H1421 0.930 . S
C1427 C1423 1.400 . S
C1427 C1426 1.385 1_455 S
C1428 C1426 1.478 . S
C1428 C1430 1.381 . S
C1428 C1434 1.383 . S
C1429 C1425 1.495 . S
C1429 H1435 0.959 . S
C1429 H1436 0.961 . S
C1429 H1437 0.960 . S
C1430 C1428 1.381 . S
C1430 C1431 1.394 . S
C1430 H1438 0.930 . S
C1431 C1430 1.394 . S
C1431 C1432 1.383 . S
C1431 H1439 0.929 . S
C1432 C1431 1.383 . S
C1432 C1433 1.377 . S
C1433 H1417 0.930 . S
C1433 C1432 1.377 . S
C1433 C1434 1.379 . S
C1434 H1418 0.931 . S
C1434 C1428 1.383 . S
C1434 C1433 1.379 . S
H1435 C1429 0.959 . S
H1436 C1429 0.961 . S
H1437 C1429 0.960 . S
H1438 C1430 0.930 . S
H1439 C1431 0.929 . S
H1440 C1448 0.929 . S
H1441 C1450 0.930 . S
H1442 C1452 0.930 . S
H1443 C1455 0.929 . S
H1444 C1458 0.930 . S
H1445 C1460 0.960 . S
H1446 C1460 0.960 . S
H1447 C1460 0.960 . S
C1448 H1440 0.929 . S
C1448 C1449 1.377 . S
C1448 C1450 1.384 . S
C1449 C1448 1.377 . S
C1449 C1455 1.390 . S
C1450 H1441 0.930 . S
C1450 C1448 1.384 . S
C1450 C1451 1.372 . S
C1451 C1450 1.372 . S
C1451 C1452 1.400 . S
C1451 C1456 1.490 . S
C1452 H1442 0.930 . S
C1452 C1451 1.400 . S
C1452 C1455 1.386 . S
H1453 C1469 0.930 . S
H1454 C1470 0.931 . S
C1455 H1443 0.929 . S
C1455 C1449 1.390 . S
C1455 C1452 1.386 . S
C1456 C1451 1.490 . S
C1456 C1458 1.395 . S
C1456 C1459 1.403 . S
H1457 C1463 0.930 . S
C1458 H1444 0.930 . S
C1458 C1456 1.395 . S
C1458 C1461 1.403 . S
C1459 C1456 1.403 . S
C1459 C1460 1.524 . S
C1459 C1463 1.400 . S
C1460 H1445 0.960 . S
C1460 H1446 0.960 . S
C1460 H1447 0.960 . S
C1460 C1459 1.524 . S
C1461 C1458 1.403 . S
C1461 C1462 1.392 . S
C1461 C1465 1.495 . S
C1462 C1461 1.392 . S
C1462 C1463 1.385 . S
C1462 C1464 1.478 . S
C1463 H1457 0.930 . S
C1463 C1459 1.400 . S
C1463 C1462 1.385 . S
C1464 C1462 1.478 . S
C1464 C1466 1.381 . S
C1464 C1470 1.383 . S
C1465 C1461 1.495 . S
C1465 H1471 0.959 . S
C1465 H1472 0.961 . S
C1465 H1473 0.960 . S
C1466 C1464 1.381 . S
C1466 C1467 1.394 . S
C1466 H1474 0.930 . S
C1467 C1466 1.394 . S
C1467 C1468 1.383 . S
C1467 H1475 0.929 . S
C1468 C1467 1.383 . S
C1468 C1469 1.377 . S
C1469 H1453 0.930 . S
C1469 C1468 1.377 . S
C1469 C1470 1.379 . S
C1470 H1454 0.931 . S
C1470 C1464 1.383 . S
C1470 C1469 1.379 . S
H1471 C1465 0.959 . S
H1472 C1465 0.961 . S
H1473 C1465 0.960 . S
H1474 C1466 0.930 . S
H1475 C1467 0.929 . S
H1476 C1484 0.929 . S
H1477 C1486 0.930 . S
H1478 C1488 0.930 . S
H1479 C1491 0.929 . S
H1480 C1494 0.930 . S
H1481 C1496 0.960 . S
H1482 C1496 0.960 . S
H1483 C1496 0.960 . S
C1484 H1476 0.929 . S
C1484 C1485 1.377 . S
C1484 C1486 1.384 . S
C1485 C1484 1.377 . S
C1485 C1491 1.390 . S
C1486 H1477 0.930 . S
C1486 C1484 1.384 . S
C1486 C1487 1.372 . S
C1487 C1486 1.372 . S
C1487 C1488 1.400 . S
C1487 C1492 1.490 . S
C1488 H1478 0.930 . S
C1488 C1487 1.400 . S
C1488 C1491 1.386 . S
H1489 C1505 0.930 . S
H1490 C1506 0.931 . S
C1491 H1479 0.929 . S
C1491 C1485 1.390 . S
C1491 C1488 1.386 . S
C1492 C1487 1.490 . S
C1492 C1494 1.395 . S
C1492 C1495 1.403 . S
H1493 C1499 0.930 . S
C1494 H1480 0.930 . S
C1494 C1492 1.395 . S
C1494 C1497 1.403 . S
C1495 C1492 1.403 . S
C1495 C1496 1.524 . S
C1495 C1499 1.400 . S
C1496 H1481 0.960 . S
C1496 H1482 0.960 . S
C1496 H1483 0.960 . S
C1496 C1495 1.524 . S
C1497 C1494 1.403 . S
C1497 C1498 1.392 . S
C1497 C1501 1.495 . S
C1498 C1497 1.392 . S
C1498 C1499 1.385 . S
C1498 C1500 1.478 . S
C1499 H1493 0.930 . S
C1499 C1495 1.400 . S
C1499 C1498 1.385 . S
C1500 C1498 1.478 . S
C1500 C1502 1.381 . S
C1500 C1506 1.383 . S
C1501 C1497 1.495 . S
C1501 H1507 0.959 . S
C1501 H1508 0.961 . S
C1501 H1509 0.960 . S
C1502 C1500 1.381 . S
C1502 C1503 1.394 1_556 S
C1502 H1510 0.930 . S
C1503 C1502 1.394 1_554 S
C1503 C1504 1.383 . S
C1503 H1511 0.929 . S
C1504 C1503 1.383 . S
C1504 C1505 1.377 1_554 S
C1505 H1489 0.930 . S
C1505 C1504 1.377 1_556 S
C1505 C1506 1.379 . S
C1506 H1490 0.931 . S
C1506 C1500 1.383 . S
C1506 C1505 1.379 . S
H1507 C1501 0.959 . S
H1508 C1501 0.961 . S
H1509 C1501 0.960 . S
H1510 C1502 0.930 . S
H1511 C1503 0.929 . S
H1512 C1520 0.929 . S
H1513 C1522 0.930 . S
H1514 C1524 0.930 . S
H1515 C1527 0.929 . S
H1516 C1530 0.930 . S
H1517 C1532 0.960 . S
H1518 C1532 0.960 . S
H1519 C1532 0.960 . S
C1520 H1512 0.929 . S
C1520 C1521 1.377 . S
C1520 C1522 1.384 . S
C1521 C1520 1.377 . S
C1521 C1527 1.390 . S
C1522 H1513 0.930 . S
C1522 C1520 1.384 . S
C1522 C1523 1.372 . S
C1523 C1522 1.372 . S
C1523 C1524 1.400 . S
C1523 C1528 1.490 . S
C1524 H1514 0.930 . S
C1524 C1523 1.400 . S
C1524 C1527 1.386 . S
H1525 C1541 0.930 . S
H1526 C1542 0.931 . S
C1527 H1515 0.929 . S
C1527 C1521 1.390 . S
C1527 C1524 1.386 . S
C1528 C1523 1.490 . S
C1528 C1530 1.395 . S
C1528 C1531 1.403 . S
H1529 C1535 0.930 . S
C1530 H1516 0.930 . S
C1530 C1528 1.395 . S
C1530 C1533 1.403 . S
C1531 C1528 1.403 . S
C1531 C1532 1.524 . S
C1531 C1535 1.400 . S
C1532 H1517 0.960 . S
C1532 H1518 0.960 . S
C1532 H1519 0.960 . S
C1532 C1531 1.524 . S
C1533 C1530 1.403 . S
C1533 C1534 1.392 . S
C1533 C1537 1.495 . S
C1534 C1533 1.392 . S
C1534 C1535 1.385 . S
C1534 C1536 1.478 . S
C1535 H1529 0.930 . S
C1535 C1531 1.400 . S
C1535 C1534 1.385 . S
C1536 C1534 1.478 . S
C1536 C1538 1.381 . S
C1536 C1542 1.383 . S
C1537 C1533 1.495 . S
C1537 H1543 0.959 . S
C1537 H1544 0.961 . S
C1537 H1545 0.960 . S
C1538 C1536 1.381 . S
C1538 C1539 1.394 . S
C1538 H1546 0.930 . S
C1539 C1538 1.394 . S
C1539 C1540 1.383 . S
C1539 H1547 0.929 . S
C1540 C1539 1.383 . S
C1540 C1541 1.377 . S
C1541 H1525 0.930 . S
C1541 C1540 1.377 . S
C1541 C1542 1.379 . S
C1542 H1526 0.931 . S
C1542 C1536 1.383 . S
C1542 C1541 1.379 . S
H1543 C1537 0.959 . S
H1544 C1537 0.961 . S
H1545 C1537 0.960 . S
H1546 C1538 0.930 . S
H1547 C1539 0.929 . S
H1548 C1556 0.929 . S
H1549 C1558 0.930 . S
H1550 C1560 0.930 . S
H1551 C1563 0.929 . S
H1552 C1566 0.930 . S
H1553 C1568 0.960 . S
H1554 C1568 0.960 . S
H1555 C1568 0.960 . S
C1556 H1548 0.929 . S
C1556 C1557 1.377 . S
C1556 C1558 1.384 . S
C1557 C1556 1.377 . S
C1557 C1563 1.390 . S
C1558 H1549 0.930 . S
C1558 C1556 1.384 . S
C1558 C1559 1.372 . S
C1559 C1558 1.372 . S
C1559 C1560 1.400 . S
C1559 C1564 1.490 . S
C1560 H1550 0.930 . S
C1560 C1559 1.400 . S
C1560 C1563 1.386 . S
H1561 C1577 0.930 . S
H1562 C1578 0.931 . S
C1563 H1551 0.929 . S
C1563 C1557 1.390 . S
C1563 C1560 1.386 . S
C1564 C1559 1.490 . S
C1564 C1566 1.395 . S
C1564 C1567 1.403 . S
H1565 C1571 0.930 . S
C1566 H1552 0.930 . S
C1566 C1564 1.395 . S
C1566 C1569 1.403 . S
C1567 C1564 1.403 . S
C1567 C1568 1.524 . S
C1567 C1571 1.400 . S
C1568 H1553 0.960 . S
C1568 H1554 0.960 . S
C1568 H1555 0.960 . S
C1568 C1567 1.524 . S
C1569 C1566 1.403 . S
C1569 C1570 1.392 . S
C1569 C1573 1.495 . S
C1570 C1569 1.392 . S
C1570 C1571 1.385 . S
C1570 C1572 1.478 . S
C1571 H1565 0.930 . S
C1571 C1567 1.400 . S
C1571 C1570 1.385 . S
C1572 C1570 1.478 . S
C1572 C1574 1.381 . S
C1572 C1578 1.383 . S
C1573 C1569 1.495 . S
C1573 H1579 0.959 . S
C1573 H1580 0.961 . S
C1573 H1581 0.960 . S
C1574 C1572 1.381 . S
C1574 C1575 1.394 . S
C1574 H1582 0.930 . S
C1575 C1574 1.394 . S
C1575 C1576 1.383 . S
C1575 H1583 0.929 . S
C1576 C1575 1.383 . S
C1576 C1577 1.377 . S
C1577 H1561 0.930 . S
C1577 C1576 1.377 . S
C1577 C1578 1.379 . S
C1578 H1562 0.931 . S
C1578 C1572 1.383 . S
C1578 C1577 1.379 . S
H1579 C1573 0.959 . S
H1580 C1573 0.961 . S
H1581 C1573 0.960 . S
H1582 C1574 0.930 . S
H1583 C1575 0.929 . S
H1584 C1592 0.929 . S
H1585 C1594 0.930 . S
H1586 C1596 0.930 . S
H1587 C1599 0.929 . S
H1588 C1602 0.930 . S
H1589 C1604 0.960 . S
H1590 C1604 0.960 . S
H1591 C1604 0.960 . S
C1592 H1584 0.929 . S
C1592 C1593 1.377 . S
C1592 C1594 1.384 . S
C1593 C1592 1.377 . S
C1593 C1599 1.390 . S
C1594 H1585 0.930 . S
C1594 C1592 1.384 . S
C1594 C1595 1.372 . S
C1595 C1594 1.372 . S
C1595 C1596 1.400 . S
C1595 C1600 1.490 . S
C1596 H1586 0.930 . S
C1596 C1595 1.400 . S
C1596 C1599 1.386 . S
H1597 C1613 0.930 . S
H1598 C1614 0.931 . S
C1599 H1587 0.929 . S
C1599 C1593 1.390 . S
C1599 C1596 1.386 . S
C1600 C1595 1.490 . S
C1600 C1602 1.395 . S
C1600 C1603 1.403 . S
H1601 C1607 0.930 . S
C1602 H1588 0.930 . S
C1602 C1600 1.395 . S
C1602 C1605 1.403 . S
C1603 C1600 1.403 . S
C1603 C1604 1.524 . S
C1603 C1607 1.400 . S
C1604 H1589 0.960 . S
C1604 H1590 0.960 . S
C1604 H1591 0.960 . S
C1604 C1603 1.524 . S
C1605 C1602 1.403 . S
C1605 C1606 1.392 . S
C1605 C1609 1.495 . S
C1606 C1605 1.392 . S
C1606 C1607 1.385 . S
C1606 C1608 1.478 . S
C1607 H1601 0.930 . S
C1607 C1603 1.400 . S
C1607 C1606 1.385 . S
C1608 C1606 1.478 . S
C1608 C1610 1.381 . S
C1608 C1614 1.383 . S
C1609 C1605 1.495 . S
C1609 H1615 0.959 . S
C1609 H1616 0.961 . S
C1609 H1617 0.960 . S
C1610 C1608 1.381 . S
C1610 C1611 1.394 . S
C1610 H1618 0.930 . S
C1611 C1610 1.394 . S
C1611 C1612 1.383 . S
C1611 H1619 0.929 . S
C1612 C1611 1.383 . S
C1612 C1613 1.377 . S
C1613 H1597 0.930 . S
C1613 C1612 1.377 . S
C1613 C1614 1.379 . S
C1614 H1598 0.931 . S
C1614 C1608 1.383 . S
C1614 C1613 1.379 . S
H1615 C1609 0.959 . S
H1616 C1609 0.961 . S
H1617 C1609 0.960 . S
H1618 C1610 0.930 . S
H1619 C1611 0.929 . S
H1620 C1628 0.929 . S
H1621 C1630 0.930 . S
H1622 C1632 0.930 . S
H1623 C1635 0.929 . S
H1624 C1638 0.930 . S
H1625 C1640 0.960 . S
H1626 C1640 0.960 . S
H1627 C1640 0.960 . S
C1628 H1620 0.929 . S
C1628 C1629 1.377 . S
C1628 C1630 1.384 . S
C1629 C1628 1.377 . S
C1629 C1635 1.390 . S
C1630 H1621 0.930 . S
C1630 C1628 1.384 . S
C1630 C1631 1.372 . S
C1631 C1630 1.372 . S
C1631 C1632 1.400 . S
C1631 C1636 1.490 . S
C1632 H1622 0.930 . S
C1632 C1631 1.400 . S
C1632 C1635 1.386 . S
H1633 C1649 0.930 . S
H1634 C1650 0.931 . S
C1635 H1623 0.929 . S
C1635 C1629 1.390 . S
C1635 C1632 1.386 . S
C1636 C1631 1.490 . S
C1636 C1638 1.395 . S
C1636 C1639 1.403 . S
H1637 C1643 0.930 . S
C1638 H1624 0.930 . S
C1638 C1636 1.395 . S
C1638 C1641 1.403 . S
C1639 C1636 1.403 . S
C1639 C1640 1.524 . S
C1639 C1643 1.400 . S
C1640 H1625 0.960 . S
C1640 H1626 0.960 . S
C1640 H1627 0.960 . S
C1640 C1639 1.524 . S
C1641 C1638 1.403 . S
C1641 C1642 1.392 . S
C1641 C1645 1.495 . S
C1642 C1641 1.392 . S
C1642 C1643 1.385 . S
C1642 C1644 1.478 . S
C1643 H1637 0.930 . S
C1643 C1639 1.400 . S
C1643 C1642 1.385 . S
C1644 C1642 1.478 . S
C1644 C1646 1.381 . S
C1644 C1650 1.383 . S
C1645 C1641 1.495 . S
C1645 H1651 0.959 . S
C1645 H1652 0.961 . S
C1645 H1653 0.960 . S
C1646 C1644 1.381 . S
C1646 C1647 1.394 . S
C1646 H1654 0.930 . S
C1647 C1646 1.394 . S
C1647 C1648 1.383 . S
C1647 H1655 0.929 . S
C1648 C1647 1.383 . S
C1648 C1649 1.377 . S
C1649 H1633 0.930 . S
C1649 C1648 1.377 . S
C1649 C1650 1.379 . S
C1650 H1634 0.931 . S
C1650 C1644 1.383 . S
C1650 C1649 1.379 . S
H1651 C1645 0.959 . S
H1652 C1645 0.961 . S
H1653 C1645 0.960 . S
H1654 C1646 0.930 . S
H1655 C1647 0.929 . S
C369 C10 0.591 . S
C388 C250 0.625 . S
C405 C40 0.849 . S
C424 C271 0.860 . S
C441 C70 0.586 . S
C460 C310 0.549 . S
C477 C331 0.847 . S
C496 C100 0.842 . S
C513 C130 0.580 . S
C532 C190 0.557 . S
C549 C211 0.852 . S
C568 C160 0.899 . S
C585 C316 2.033 . S
C604 C16 2.033 . S
C621 N344 1.446 . S
C640 C46 1.513 . S
C657 C76 2.049 . S
C676 C196 2.017 . S
C693 N224 1.447 . S
C712 C106 1.529 . S
C729 C256 2.032 . S
C748 C136 2.038 . S
C765 C166 1.524 . S
C784 N284 1.461 . S
C801 C237 0.525 . S
C820 N6 0.711 . S
C837 N246 0.530 . S
C856 N36 0.515 . S
C873 C297 0.545 . S
C892 N66 0.537 . S
C909 N96 0.532 . S
C928 N306 0.539 . S
C945 N126 0.624 . S
C964 C357 0.551 . S
C981 N156 0.517 . S
C1000 N186 0.623 . S
C1017 C1 0.289 . S
C1036 C91 0.327 . S
C1053 C31 0.288 . S
C1072 C121 0.312 . S
C1089 C61 0.277 . S
C1108 C151 0.406 . S
C1125 C280 0.064 . S
C1144 C181 0.166 . S
C1161 C220 0.048 . S
C1180 C301 0.357 . S
C1197 C340 0.037 . S
C1216 C241 0.289 . S
C1233 N216 1.866 . S
C1252 C27 1.821 . S
C1269 C267 1.981 1_556 S
C1288 C57 1.995 . S
C1305 C87 1.823 . S
C1324 N276 1.863 . S
C1341 C327 1.985 . S
C1360 C117 2.008 . S
C1377 N336 1.866 . S
C1396 C147 1.840 . S
C1413 C177 1.995 . S
C1432 C207 1.998 . S
C1449 N14 0.491 . S
C1468 N314 0.492 . S
C1485 N44 1.021 . S
C1504 C346 0.985 . S
C1521 N74 0.495 1_554 S
C1540 N194 0.504 . S
C1557 N104 1.018 . S
C1576 C226 1.020 . S
C1593 N134 0.495 . S
C1612 N254 0.489 . S
C1629 C286 0.998 . S
C1648 N164 1.028 . S
