# Generated by pormake.
# Topology qtz-e, (6)-cn, num edge types: 1
# Building blocks:
#     Node 0, Type 0, BuildingBlock: BETDIP_clean_sbu_0, # of connection points: 6
#     Node 1, Type 0, BuildingBlock: BETDIP_clean_sbu_0, # of connection points: 6
#     Node 2, Type 0, BuildingBlock: BETDIP_clean_sbu_0, # of connection points: 6
#     Node 3, Type 0, BuildingBlock: BETDIP_clean_sbu_0, # of connection points: 6
#     Node 4, Type 0, BuildingBlock: BETDIP_clean_sbu_0, # of connection points: 6
#     Node 5, Type 0, BuildingBlock: BETDIP_clean_sbu_0, # of connection points: 6
#     Edge 6, Type (0, 0), BuildingBlock: UVAHIK_clean_linker_0, # of connection points: 2
#     Edge 7, Type (0, 0), BuildingBlock: UVAHIK_clean_linker_0, # of connection points: 2
#     Edge 8, Type (0, 0), BuildingBlock: UVAHIK_clean_linker_0, # of connection points: 2
#     Edge 9, Type (0, 0), BuildingBlock: UVAHIK_clean_linker_0, # of connection points: 2
#     Edge 10, Type (0, 0), BuildingBlock: UVAHIK_clean_linker_0, # of connection points: 2
#     Edge 11, Type (0, 0), BuildingBlock: UVAHIK_clean_linker_0, # of connection points: 2
#     Edge 12, Type (0, 0), BuildingBlock: UVAHIK_clean_linker_0, # of connection points: 2
#     Edge 13, Type (0, 0), BuildingBlock: UVAHIK_clean_linker_0, # of connection points: 2
#     Edge 14, Type (0, 0), BuildingBlock: UVAHIK_clean_linker_0, # of connection points: 2
#     Edge 15, Type (0, 0), BuildingBlock: UVAHIK_clean_linker_0, # of connection points: 2
#     Edge 16, Type (0, 0), BuildingBlock: UVAHIK_clean_linker_0, # of connection points: 2
#     Edge 17, Type (0, 0), BuildingBlock: UVAHIK_clean_linker_0, # of connection points: 2
#     Edge 18, Type (0, 0), BuildingBlock: UVAHIK_clean_linker_0, # of connection points: 2
#     Edge 19, Type (0, 0), BuildingBlock: UVAHIK_clean_linker_0, # of connection points: 2
#     Edge 20, Type (0, 0), BuildingBlock: UVAHIK_clean_linker_0, # of connection points: 2
#     Edge 21, Type (0, 0), BuildingBlock: UVAHIK_clean_linker_0, # of connection points: 2
#     Edge 22, Type (0, 0), BuildingBlock: UVAHIK_clean_linker_0, # of connection points: 2
#     Edge 23, Type (0, 0), BuildingBlock: UVAHIK_clean_linker_0, # of connection points: 2
# Relax obj value: 0.132
# Max RMSD: 0.191
# Mean RMSD: 0.191
data_MOF--net-qtz-e--node1-BETDIP_clean_sbu_0--edge1-UVAHIK_clean_linker_0
_symmetry_space_group_name_H-M    P1
_symmetry_Int_Tables_number       1
_symmetry_cell_setting            triclinic
loop_
_symmetry_equiv_pos_as_xyz
'x, y, z'
_cell_length_a     32.309318
_cell_length_b     32.415967
_cell_length_c     62.32603
_cell_angle_alpha  90.305942
_cell_angle_beta   89.976223
_cell_angle_gamma 120.10705
loop_
_atom_site_label
_atom_site_type_symbol
_atom_site_fract_x
_atom_site_fract_y
_atom_site_fract_z
_atom_type_partial_charge
Tb0 Tb 0.14933 0.4371 0.05805 0.0
Tb1 Tb 0.16228 0.35118 0.05192 0.0
C2 C 0.11963 0.49125 0.07087 0.0
C3 C 0.11843 0.51015 0.0924 0.0
C4 C 0.09979 0.47997 0.11027 0.0
C5 C 0.10265 0.49894 0.1308 0.0
C6 C 0.12503 0.54852 0.13395 0.0
C7 C 0.14304 0.57861 0.11604 0.0
C8 C 0.13951 0.55957 0.09547 0.0
C9 C 0.23782 0.45619 0.0583 0.0
C10 C 0.1442 0.37175 0.09848 0.0
C11 C 0.1898 0.29513 0.03896 0.0
C12 C 0.20557 0.28649 1.01798 0.0
C13 C 0.23508 0.26629 1.01703 0.0
C14 C 0.2497 0.25751 0.99717 0.0
C15 C 0.23546 0.26927 0.97788 0.0
C16 C 0.20599 0.28966 0.97894 0.0
C17 C 0.19093 0.29783 0.99876 0.0
C18 C 0.07389 0.33452 0.05169 0.0
C19 C 0.17252 0.41978 1.01236 0.0
O20 O 0.09158 0.44541 0.0676 0.0
O21 O 0.1624 0.50674 0.06296 0.0
O22 O 0.20291 0.41985 0.06635 0.0
O23 O 0.22448 0.48525 0.05134 0.0
O24 O 0.13653 0.40499 0.09017 0.0
O25 O 0.15978 0.34809 0.08676 0.0
O26 O 0.21825 0.33624 0.04821 0.0
O27 O 0.14488 0.2838 0.04007 0.0
O28 O 0.1098 0.36904 0.0433 0.0
O29 O 0.08662 0.30659 0.06063 0.0
O30 O 0.18469 0.39034 0.02137 0.0
O31 O 0.14926 0.43697 0.02325 0.0
H32 H 0.08342 0.44169 0.10846 0.0
H33 H 0.08876 0.4749 0.14431 0.0
H34 H 0.16011 0.61694 0.11798 0.0
H35 H 0.1543 0.58359 0.08199 0.0
H36 H 0.24672 0.25719 0.03165 0.0
H37 H 0.27269 0.24211 0.9969 0.0
H38 H 0.19391 0.29863 0.96442 0.0
H39 H 0.16758 0.3128 0.99904 0.0
Tb40 Tb 0.70505 0.17584 0.39215 0.0
Tb41 Tb 0.80253 0.18719 0.38636 0.0
C42 C 0.62028 0.14754 0.40347 0.0
C43 C 0.59895 0.14818 0.42452 0.0
C44 C 0.59565 0.1178 0.44131 0.0
C45 C 0.57943 0.12186 0.46162 0.0
C46 C 0.56611 0.15638 0.46565 0.0
C47 C 0.56799 0.18568 0.44868 0.0
C48 C 0.58402 0.18149 0.42836 0.0
C49 C 0.77596 0.26254 0.39943 0.0
C50 C 0.75769 0.15463 0.43126 0.0
C51 C 0.88745 0.21528 0.3752 0.0
C52 C 0.91381 0.23152 0.35469 0.0
C53 C 0.91084 0.26546 0.34185 0.0
C54 C 0.93322 0.27777 0.32179 0.0
C55 C 0.95933 0.25665 0.31414 0.0
C56 C 0.96303 0.22343 0.32727 0.0
C57 C 0.94048 0.21101 0.3473 0.0
C58 C 0.72924 0.10075 0.38039 0.0
C59 C 0.75002 0.20784 0.34737 0.0
O60 O 0.63805 0.11922 0.40146 0.0
O61 O 0.64816 0.18928 0.39494 0.0
O62 O 0.77523 0.2246 0.40436 0.0
O63 O 0.73492 0.25244 0.39164 0.0
O64 O 0.71774 0.14901 0.42244 0.0
O65 O 0.79889 0.17569 0.42081 0.0
O66 O 0.87369 0.24301 0.38424 0.0
O67 O 0.85406 0.17036 0.37578 0.0
O68 O 0.73298 0.13938 0.3745 0.0
O69 O 0.76831 0.10948 0.39006 0.0
O70 O 0.79064 0.21693 0.35674 0.0
O71 O 0.70862 0.18381 0.35747 0.0
H72 H 0.60634 0.09138 0.43889 0.0
H73 H 0.57864 0.09883 0.47433 0.0
H74 H 0.55718 0.21204 0.45111 0.0
H75 H 0.58566 0.20508 0.41572 0.0
H76 H 0.8904 0.28182 0.34707 0.0
H77 H 0.92896 0.30296 0.31205 0.0
H78 H -0.01656 0.20699 0.32211 0.0
H79 H 0.94338 0.18484 0.35693 0.0
Tb80 Tb 0.50348 0.72116 0.72653 0.0
Tb81 Tb 0.60507 0.795 0.71526 0.0
C82 C 0.43012 0.64728 0.73959 0.0
C83 C 0.40912 0.62743 0.76079 0.0
C84 C 0.43558 0.62066 0.77688 0.0
C85 C 0.4154 0.6035 0.79707 0.0
C86 C 0.36826 0.59256 0.80159 0.0
C87 C 0.34172 0.59877 0.78532 0.0
C88 C 0.36194 0.61597 0.76516 0.0
C89 C 0.52427 0.80952 0.73266 0.0
C90 C 0.58904 0.75484 0.76149 0.0
C91 C 0.6781 0.86578 0.70001 0.0
C92 C 0.68757 0.89358 0.68001 0.0
C93 C 0.65724 0.91038 0.6732 0.0
C94 C 0.66517 0.93407 0.65359 0.0
C95 C 0.70352 0.94141 0.6403 0.0
C96 C 0.73414 0.92502 0.64734 0.0
C97 C 0.72624 0.90144 0.66697 0.0
C98 C 0.58079 0.70509 0.71009 0.0
C99 C 0.51992 0.76403 0.68122 0.0
O100 O 0.47021 0.64877 0.73461 0.0
O101 O 0.43034 0.6863 0.73414 0.0
O102 O 0.55184 0.79338 0.73608 0.0
O103 O 0.48239 0.77495 0.72729 0.0
O104 O 0.54454 0.7238 0.75535 0.0
O105 O 0.61906 0.79015 0.74894 0.0
O106 O 0.64997 0.86927 0.71416 0.0
O107 O 0.66856 0.82177 0.69748 0.0
O108 O 0.55648 0.72418 0.70572 0.0
O109 O 0.62179 0.73718 0.7178 0.0
O110 O 0.56144 0.79832 0.68883 0.0
O111 O 0.49352 0.72464 0.69228 0.0
H112 H 0.47202 0.62901 0.77398 0.0
H113 H 0.43708 0.59965 0.80926 0.0
H114 H 0.30511 0.58998 0.78809 0.0
H115 H 0.34072 0.6206 0.75298 0.0
H116 H 0.62696 0.90472 0.68285 0.0
H117 H 0.64121 0.94671 0.6489 0.0
H118 H 0.76362 0.92938 0.63745 0.0
H119 H 0.74994 0.88856 0.67181 0.0
Tb120 Tb 0.78437 0.51613 0.05588 0.0
Tb121 Tb 0.79711 0.61448 0.04844 0.0
C122 C 0.79288 0.44777 0.06959 0.0
C123 C 0.7918 0.4301 0.09148 0.0
C124 C 0.80759 0.39767 0.09537 0.0
C125 C 0.80536 0.38 0.11608 0.0
C126 C 0.78678 0.39413 0.13325 0.0
C127 C 0.77145 0.42705 0.12927 0.0
C128 C 0.77394 0.44482 0.10862 0.0
C129 C 0.70581 0.51994 0.05545 0.0
C130 C 0.81201 0.59248 0.09498 0.0
C131 C 0.78617 0.6813 0.03492 0.0
C132 C 0.7668 0.6888 1.01476 0.0
C133 C 0.72587 0.65147 1.00494 0.0
C134 C 0.71055 0.65792 0.98488 0.0
C135 C 0.73564 0.70193 0.97422 0.0
C136 C 0.77583 0.7396 0.98444 0.0
C137 C 0.79127 0.73302 1.00445 0.0
C138 C 0.87523 0.60837 0.04794 0.0
C139 C 0.76825 0.5379 1.00976 0.0
O140 O 0.82923 0.48976 0.06513 0.0
O141 O 0.75252 0.44326 0.0628 0.0
O142 O 0.74492 0.55086 0.06355 0.0
O143 O 0.70864 0.48356 0.04885 0.0
O144 O 0.80917 0.553 0.08708 0.0
O145 O 0.80314 0.62088 0.08309 0.0
O146 O 0.75564 0.64765 0.04765 0.0
O147 O 0.82619 0.68065 0.03301 0.0
O148 O 0.8351 0.57933 0.04019 0.0
O149 O 0.87327 0.64398 0.05646 0.0
O150 O 0.76588 0.57422 1.01842 0.0
O151 O 0.78344 0.51345 0.02101 0.0
H152 H 0.82089 0.38536 0.08235 0.0
H153 H 0.81702 0.35435 0.11854 0.0
H154 H 0.75756 0.43918 0.14214 0.0
H155 H 0.76128 0.46962 0.10601 0.0
H156 H 0.7064 0.61682 1.01248 0.0
H157 H 0.67988 0.62787 0.97745 0.0
H158 H 0.79555 0.77425 0.97696 0.0
H159 H 0.82288 0.76233 1.01173 0.0
Tb160 Tb 0.24358 0.78559 0.39087 0.0
Tb161 Tb 0.15698 0.79563 0.3834 0.0
C162 C 0.32464 0.80009 0.40204 0.0
C163 C 0.34624 0.80173 0.42327 0.0
C164 C 0.36267 0.84173 0.4369 0.0
C165 C 0.37907 0.84104 0.45762 0.0
C166 C 0.37945 0.8004 0.46515 0.0
C167 C 0.36471 0.7612 0.45122 0.0
C168 C 0.34851 0.76194 0.43052 0.0
C169 C 0.16206 0.71041 0.40125 0.0
C170 C 0.20616 0.83008 0.42764 0.0
C171 C 0.07767 0.78296 0.3703 0.0
C172 C 0.05427 0.76841 0.34906 0.0
C173 C 0.00504 0.7511 0.34685 0.0
C174 C -0.01715 0.73631 0.3267 0.0
C175 C 0.00947 0.73791 0.30851 0.0
C176 C 0.05881 0.75546 0.31082 0.0
C177 C 0.08102 0.77097 0.33082 0.0
C178 C 0.24067 0.87011 0.37393 0.0
C179 C 0.19313 0.74912 0.3475 0.0
O180 O 0.31552 0.83424 0.39787 0.0
O181 O 0.28961 0.7584 0.39592 0.0
O182 O 0.17283 0.75305 0.40394 0.0
O183 O 0.19882 0.70877 0.39419 0.0
O184 O 0.24155 0.82563 0.41923 0.0
O185 O 0.16479 0.81408 0.41743 0.0
O186 O 0.0825 0.75053 0.3806 0.0
O187 O 0.11676 0.82464 0.37105 0.0
O188 O 0.22673 0.82704 0.37044 0.0
O189 O 0.20643 0.87326 0.38314 0.0
O190 O 0.15672 0.75007 0.35682 0.0
O191 O 0.23576 0.76966 0.35674 0.0
H192 H 0.36189 0.87321 0.43179 0.0
H193 H 0.39006 0.87178 0.46796 0.0
H194 H 0.36546 0.72972 0.45637 0.0
H195 H 0.33678 0.73085 0.42031 0.0
H196 H -0.01625 0.74885 0.3607 0.0
H197 H 0.94474 0.72278 0.32541 0.0
H198 H 0.0804 0.75776 0.29708 0.0
H199 H 0.1192 0.78505 0.33199 0.0
Tb200 Tb 0.44302 0.25675 0.72511 0.0
Tb201 Tb 0.36329 0.15534 0.72171 0.0
C202 C 0.494 0.34293 0.73566 0.0
C203 C 0.51722 0.36532 0.75644 0.0
C204 C 0.4901 0.36342 0.77446 0.0
C205 C 0.51196 0.3799 0.79452 0.0
C206 C 0.56152 0.3986 0.79711 0.0
C207 C 0.58879 0.40186 0.77889 0.0
C208 C 0.56694 0.38565 0.75883 0.0
C209 C 0.46896 0.19331 0.73251 0.0
C210 C 0.37552 0.20253 0.76596 0.0
C211 C 0.31386 0.06964 0.71023 0.0
C212 C 0.30252 0.047 0.68854 0.0
C213 C 0.33033 0.02909 0.67953 0.0
C214 C 0.32169 0.01078 0.65856 0.0
C215 C 0.28484 0.00966 0.64605 0.0
C216 C 0.25643 0.02669 0.65525 0.0
C217 C 0.26504 0.04495 0.6762 0.0
C218 C 0.33946 0.22105 0.71522 0.0
C219 C 0.42993 0.20896 0.68095 0.0
O220 O 0.44719 0.32096 0.73482 0.0
O221 O 0.51079 0.31841 0.72608 0.0
O222 O 0.43023 0.19029 0.73823 0.0
O223 O 0.49599 0.2343 0.72385 0.0
O224 O 0.40478 0.24294 0.75595 0.0
O225 O 0.35945 0.16056 0.75642 0.0
O226 O 0.35838 0.08882 0.71668 0.0
O227 O 0.29563 0.09666 0.7149 0.0
O228 O 0.37644 0.22137 0.70887 0.0
O229 O 0.31293 0.18169 0.7254 0.0
O230 O 0.40268 0.16866 0.69133 0.0
O231 O 0.44434 0.25077 0.69032 0.0
H232 H 0.45182 0.34846 0.77321 0.0
H233 H 0.48984 0.3777 0.80801 0.0
H234 H 0.6269 0.41552 0.7802 0.0
H235 H 0.58885 0.38765 0.74526 0.0
H236 H 0.35926 0.02977 0.6886 0.0
H237 H 0.34381 -0.00273 0.65219 0.0
H238 H 0.22809 0.02697 0.6461 0.0
H239 H 0.24272 0.05824 0.68257 0.0
C240 C 0.13963 0.69799 0.31765 0.0
C241 C 0.18607 0.72707 0.32591 0.0
C242 C 0.1327 0.67803 0.29709 0.0
C243 C 0.19025 0.69571 0.24478 0.0
H244 H 0.10064 0.56125 0.23549 0.0
C245 C 0.17601 0.6061 0.16268 0.0
C246 C 0.13118 0.56892 0.15591 0.0
C247 C 0.18235 0.62489 0.18345 0.0
C248 C 0.12522 0.59904 0.23765 0.0
H249 H 0.26163 0.75803 0.31893 0.0
H250 H 0.24945 0.72357 0.28287 0.0
H251 H 0.11197 0.595 0.27152 0.0
H252 H 0.05764 0.52263 0.1655 0.0
H253 H 0.06802 0.55645 0.20151 0.0
H254 H 0.20265 0.70049 0.21098 0.0
C255 C 0.21847 0.71621 0.29241 0.0
C256 C 0.13187 0.61828 0.25837 0.0
C257 C 0.22542 0.73569 0.3131 0.0
C258 C 0.0927 0.55106 0.17035 0.0
C259 C 0.09882 0.57035 0.19105 0.0
C260 C 0.18309 0.67669 0.22401 0.0
C261 C 0.17204 0.68715 0.2842 0.0
C262 C 0.16466 0.66675 0.26218 0.0
C263 C 0.14382 0.6075 0.19795 0.0
C264 C 0.15069 0.62797 0.22012 0.0
H265 H 0.10849 0.69056 0.32708 0.0
H266 H 0.09652 0.65612 0.29112 0.0
H267 H 0.21527 0.73335 0.24719 0.0
H268 H 0.20651 0.62007 0.15201 0.0
H269 H 0.2178 0.65261 0.18821 0.0
C270 C 0.42489 0.16093 0.64843 0.0
C271 C 0.4431 0.20585 0.65838 0.0
C272 C 0.43816 0.15692 0.62753 0.0
C273 C 0.48882 0.22384 0.57737 0.0
H274 H 0.51638 0.12252 0.56541 0.0
C275 C 0.56782 0.20854 0.49612 0.0
C276 C 0.55142 0.16263 0.48758 0.0
C277 C 0.55481 0.21459 0.51683 0.0
C278 C 0.50822 0.15063 0.56835 0.0
H279 H 0.48908 0.28192 0.65386 0.0
H280 H 0.51254 0.27489 0.61725 0.0
H281 H 0.49352 0.13216 0.60149 0.0
H282 H 0.50768 0.08707 0.49406 0.0
H283 H 0.48454 0.09753 0.53005 0.0
H284 H 0.5032 0.24209 0.54415 0.0
C285 C 0.48766 0.24276 0.62569 0.0
C286 C 0.49518 0.15623 0.5891 0.0
C287 C 0.47437 0.2468 0.6467 0.0
C288 C 0.52147 0.12292 0.50024 0.0
C289 C 0.50829 0.12897 0.52092 0.0
C290 C 0.50172 0.21813 0.55656 0.0
C291 C 0.47007 0.19769 0.61593 0.0
C292 C 0.48509 0.19275 0.59387 0.0
C293 C 0.52491 0.1749 0.52954 0.0
C294 C 0.51144 0.18132 0.55174 0.0
H295 H 0.40038 0.12851 0.65679 0.0
H296 H 0.42315 0.12171 0.62042 0.0
H297 H 0.48077 0.25199 0.58041 0.0
H298 H 0.59158 0.23992 0.48696 0.0
H299 H 0.569 0.25048 0.52301 0.0
C300 C 0.17686 0.46692 0.9795 0.0
C301 C 0.18815 0.43549 0.98998 0.0
C302 C 0.19472 0.4839 0.95893 0.0
C303 C 0.29285 0.50164 0.92235 0.0
H304 H 0.21606 0.51586 0.87845 0.0
C305 C 0.35538 0.54227 0.83432 0.0
C306 C 0.34689 0.57493 0.82318 0.0
C307 C 0.33538 0.5258 0.85458 0.0
C308 C 0.23816 0.5126 0.89061 0.0
H309 H 0.22687 0.39706 0.98679 0.0
H310 H 0.25658 0.42538 0.95102 0.0
H311 H 0.18162 0.48589 0.91378 0.0
H312 H 0.31108 0.61634 0.8249 0.0
H313 H 0.27616 0.58753 0.8602 0.0
H314 H 0.34933 0.52821 0.89926 0.0
C315 C 0.23464 0.43765 0.95875 0.0
C316 C 0.2184 0.49542 0.91088 0.0
C317 C 0.21698 0.42086 0.97924 0.0
C318 C 0.31778 0.59062 0.83285 0.0
C319 C 0.29774 0.57411 0.85311 0.0
C320 C 0.31255 0.51874 0.90213 0.0
C321 C 0.22433 0.4699 0.94841 0.0
C322 C 0.2454 0.48937 0.92696 0.0
C323 C 0.30635 0.54154 0.86426 0.0
C324 C 0.28541 0.52417 0.88594 0.0
H325 H 0.15495 0.47911 0.98732 0.0
H326 H 0.18634 0.50898 0.95151 0.0
H327 H 0.31508 0.49847 0.93448 0.0
H328 H 0.37693 0.52881 0.82725 0.0
H329 H 0.34214 0.50013 0.86254 0.0
C330 C 0.79325 0.24022 0.31263 0.0
C331 C 0.75153 0.22408 0.32498 0.0
C332 C 0.79572 0.25696 0.29178 0.0
C333 C 0.7415 0.30725 0.25593 0.0
H334 H 0.80328 0.27445 0.21104 0.0
C335 C 0.74082 0.35991 0.16739 0.0
C336 C 0.7823 0.37387 0.15513 0.0
C337 C 0.73633 0.34081 0.18791 0.0
C338 C 0.78645 0.28452 0.22342 0.0
H339 H 0.67934 0.21242 0.32485 0.0
H340 H 0.68355 0.24157 0.28833 0.0
H341 H 0.79619 0.24217 0.24695 0.0
H342 H 0.85186 0.37914 0.15503 0.0
H343 H 0.8444 0.34643 0.19093 0.0
H344 H 0.73229 0.3501 0.23254 0.0
C345 C 0.71458 0.24164 0.29493 0.0
C346 C 0.78227 0.26586 0.24403 0.0
C347 C 0.71204 0.22461 0.31581 0.0
C348 C 0.81919 0.36821 0.16393 0.0
C349 C 0.81483 0.34933 0.18453 0.0
C350 C 0.74589 0.32611 0.23534 0.0
C351 C 0.75653 0.25814 0.28267 0.0
C352 C 0.75983 0.27705 0.26057 0.0
C353 C 0.77329 0.33532 0.19682 0.0
C354 C 0.7685 0.31508 0.21879 0.0
H355 H 0.82416 0.23991 0.31905 0.0
H356 H 0.82875 0.26978 0.28292 0.0
H357 H 0.72466 0.3172 0.26836 0.0
H358 H 0.71136 0.36302 0.16097 0.0
H359 H 0.70346 0.32965 0.19666 0.0
C360 C 0.53201 0.8108 0.6475 0.0
C361 C 0.50434 0.76913 0.65947 0.0
C362 C 0.51819 0.81517 0.62675 0.0
C363 C 0.44495 0.7429 0.58092 0.0
H364 H 0.45592 0.86165 0.56183 0.0
C365 C 0.36728 0.75655 0.49976 0.0
C366 C 0.39381 0.79814 0.48761 0.0
C367 C 0.38062 0.75391 0.52081 0.0
C368 C 0.45317 0.8284 0.5668 0.0
H369 H 0.43995 0.69957 0.65903 0.0
H370 H 0.41571 0.7073 0.62291 0.0
H371 H 0.47921 0.8554 0.59839 0.0
H372 H 0.45522 0.86965 0.48812 0.0
H373 H 0.47895 0.86491 0.52483 0.0
H374 H 0.41939 0.71594 0.54937 0.0
C375 C 0.44846 0.73642 0.62949 0.0
C376 C 0.46645 0.82481 0.58779 0.0
C377 C 0.46222 0.73211 0.65027 0.0
C378 C 0.4338 0.83724 0.49712 0.0
C379 C 0.44732 0.83453 0.51818 0.0
C380 C 0.43185 0.74654 0.55994 0.0
C381 C 0.47639 0.7779 0.61744 0.0
C382 C 0.46234 0.78194 0.59512 0.0
C383 C 0.421 0.79272 0.53028 0.0
C384 C 0.4356 0.78927 0.5526 0.0
H385 H 0.56466 0.84003 0.65404 0.0
H386 H 0.54082 0.8474 0.61785 0.0
H387 H 0.44214 0.70964 0.58591 0.0
H388 H 0.33571 0.72612 0.49308 0.0
H389 H 0.35886 0.72152 0.52975 0.0
C390 C 0.73519 0.55004 0.97556 0.0
C391 C 0.75168 0.52407 0.98722 0.0
C392 C 0.71714 0.5364 0.95478 0.0
C393 C 0.66639 0.43325 0.91719 0.0
H394 H 0.68723 0.53039 0.87565 0.0
C395 C 0.56064 0.38747 0.83721 0.0
C396 C 0.5845 0.41338 0.81876 0.0
C397 C 0.58252 0.40065 0.85743 0.0
C398 C 0.6814 0.50267 0.8869 0.0
H399 H 0.76274 0.46345 0.98581 0.0
H400 H 0.73212 0.44006 0.94921 0.0
H401 H 0.72481 0.55384 0.91075 0.0
H402 H 0.6503 0.47408 0.8074 0.0
H403 H 0.68891 0.49601 0.84239 0.0
H404 H 0.62392 0.38205 0.89308 0.0
C405 C 0.73239 0.47067 0.95639 0.0
C406 C 0.70251 0.51618 0.90723 0.0
C407 C 0.75032 0.4843 0.97734 0.0
C408 C 0.6309 0.45286 0.82114 0.0
C409 C 0.65289 0.46587 0.84133 0.0
C410 C 0.64545 0.4197 0.89678 0.0
C411 C 0.71533 0.49646 0.94486 0.0
C412 C 0.69494 0.48171 0.92276 0.0
C413 C 0.62903 0.43998 0.85979 0.0
C414 C 0.65234 0.45424 0.88139 0.0
H415 H 0.73562 0.58082 0.98255 0.0
H416 H 0.70365 0.55676 0.94668 0.0
H417 H 0.6593 0.40564 0.92874 0.0
H418 H 0.52517 0.35645 0.83606 0.0
H419 H 0.56266 0.38017 0.87124 0.0
C420 C 0.30052 0.43752 0.06936 0.0
C421 C 0.28724 0.46623 0.05799 0.0
C422 C 0.34778 0.44752 0.0689 0.0
C423 C 0.47085 0.54253 0.05695 0.0
H424 H 0.4923 0.43589 0.04965 0.0
C425 C 0.62886 0.49544 0.03764 0.0
C426 C 0.66316 0.52409 0.05296 0.0
C427 C 0.5853 0.49414 0.03668 0.0
C428 C 0.48691 0.46613 0.05144 0.0
H429 H 0.31208 0.52776 0.03732 0.0
H430 H 0.3946 0.54481 0.0362 0.0
H431 H 0.41103 0.42126 0.05166 0.0
H432 H 0.68107 0.5763 0.07831 0.0
H433 H 0.60362 0.57301 0.07714 0.0
H434 H 0.54709 0.58743 0.05627 0.0
C435 C 0.36888 0.51515 0.04575 0.0
C436 C 0.44038 0.45764 0.05293 0.0
C437 C 0.32169 0.50522 0.04628 0.0
C438 C 0.65473 0.55376 0.06647 0.0
C439 C 0.61066 0.55201 0.06571 0.0
C440 C 0.51759 0.55106 0.05541 0.0
C441 C 0.38231 0.48629 0.05699 0.0
C442 C 0.43188 0.4957 0.05573 0.0
C443 C 0.57503 0.52091 0.05127 0.0
C444 C 0.52595 0.51288 0.05256 0.0
H445 H 0.2745 0.40758 0.07869 0.0
H446 H 0.35737 0.42507 0.07794 0.0
H447 H 0.46521 0.57249 0.05928 0.0
H448 H 0.63523 0.47305 0.02674 0.0
H449 H 0.55898 0.47091 0.02498 0.0
C450 C 0.11736 0.62504 0.41108 0.0
C451 C 0.11953 0.66928 0.41017 0.0
C452 C 0.07652 0.5852 0.41874 0.0
C453 C 0.95155 0.53491 0.4166 0.0
H454 H 0.95013 0.43622 0.45205 0.0
C455 C 0.79645 0.34468 0.40958 0.0
C456 C 0.80971 0.30963 0.40832 0.0
C457 C 0.82854 0.39007 0.41735 0.0
C458 C 0.9499 0.46337 0.44209 0.0
H459 H 0.08221 0.70758 0.4175 0.0
H460 H 0.00919 0.63673 0.42993 0.0
H461 H 0.0199 0.51651 0.45264 0.0
H462 H 0.86546 0.29323 0.41526 0.0
H463 H 0.92323 0.37361 0.42718 0.0
H464 H 0.8842 0.48169 0.40435 0.0
C465 C 0.03953 0.63335 0.42502 0.0
C466 C -0.01045 0.50933 0.44264 0.0
C467 C 0.08091 0.67356 0.41773 0.0
C468 C 0.85488 0.32004 0.41567 0.0
C469 C 0.88758 0.36592 0.4229 0.0
C470 C 0.91236 0.4889 0.41574 0.0
C471 C 0.03693 0.58882 0.42531 0.0
C472 C -0.00868 0.54484 0.42926 0.0
C473 C 0.87508 0.40178 0.42341 0.0
C474 C 0.91191 0.45209 0.42781 0.0
H475 H 0.14689 0.62097 0.40551 0.0
H476 H 0.07499 0.55103 0.41847 0.0
H477 H 0.95242 0.56165 0.40595 0.0
H478 H 0.76129 0.33717 0.40446 0.0
H479 H 0.81718 0.4163 0.41807 0.0
C480 C 0.53609 0.17839 0.73907 0.0
C481 C 0.48711 0.16299 0.74057 0.0
C482 C 0.55363 0.14942 0.74623 0.0
C483 C 0.57124 0.06687 0.74453 0.0
H484 H 0.50442 0.96803 0.78685 0.0
C485 C 0.49339 0.86313 0.74231 0.0
C486 C 0.5324 0.85567 0.74056 0.0
C487 C 0.50005 0.90651 0.74974 0.0
C488 C 0.52432 -0.00383 0.77538 0.0
H489 H 0.41825 0.10652 0.7514 0.0
H490 H 0.44808 0.05445 0.76273 0.0
H491 H 0.49434 0.03782 0.78675 0.0
H492 H 0.60863 0.88674 0.74585 0.0
H493 H 0.62085 0.96467 0.75756 0.0
H494 H 0.59946 0.02393 0.73265 0.0
C495 C 0.47345 0.08947 0.75671 0.0
C496 C 0.51814 0.03574 0.77512 0.0
C497 C 0.45609 0.11886 0.74989 0.0
C498 C 0.57821 0.89208 0.7467 0.0
C499 C 0.58511 0.93621 0.75363 0.0
C500 C 0.57801 0.02769 0.74504 0.0
C501 C 0.52235 0.10412 0.75465 0.0
C502 C 0.53914 0.06994 0.75883 0.0
C503 C 0.54594 0.94352 0.75517 0.0
C504 C 0.55237 -0.00914 0.75966 0.0
H505 H 0.56089 0.21274 0.73222 0.0
H506 H 0.59154 0.16212 0.74472 0.0
H507 H 0.58788 0.09233 0.73169 0.0
H508 H 0.45764 0.83553 0.73782 0.0
H509 H 0.46951 0.91182 0.75042 0.0
C510 C 0.52437 0.62342 0.69854 0.0
C511 C 0.55805 0.65383 0.71364 0.0
C512 C 0.49264 0.57614 0.70363 0.0
C513 C 0.40929 0.49004 0.72196 0.0
H514 H 0.44793 0.40782 0.74939 0.0
C515 C 0.33209 0.27823 0.73939 0.0
C516 C 0.33851 0.26516 0.71867 0.0
C517 C 0.34637 0.32583 0.74396 0.0
C518 C 0.43632 0.43072 0.74233 0.0
H519 H 0.58681 0.65921 0.74556 0.0
H520 H 0.53052 0.57586 0.75473 0.0
H521 H 0.50473 0.4931 0.74707 0.0
H522 H 0.35968 0.28909 0.68609 0.0
H523 H 0.38153 0.37154 0.69371 0.0
H524 H 0.34259 0.42652 0.71529 0.0
C525 C 0.52905 0.58842 0.73884 0.0
C526 C 0.46884 0.4795 0.74089 0.0
C527 C 0.56155 0.63585 0.73356 0.0
C528 C 0.35413 0.29858 0.70211 0.0
C529 C 0.36661 0.34554 0.70648 0.0
C530 C 0.37719 0.44118 0.72304 0.0
C531 C 0.49324 0.5586 0.72414 0.0
C532 C 0.45638 0.50923 0.72973 0.0
C533 C 0.36501 0.35987 0.72758 0.0
C534 C 0.39126 0.41108 0.73249 0.0
H535 H 0.52108 0.63689 0.68314 0.0
H536 H 0.46674 0.55368 0.69164 0.0
H537 H 0.3981 0.51238 0.7139 0.0
H538 H 0.32041 0.25282 0.7524 0.0
H539 H 0.34549 0.33654 0.76037 0.0
C540 C 0.00967 0.34958 0.04118 0.0
C541 C 0.0313 0.33699 0.05727 0.0
C542 C -0.02033 0.36716 0.04659 0.0
C543 C -0.01919 0.44681 0.08595 0.0
H544 H 0.88079 0.43948 0.04919 0.0
C545 C 0.92006 0.58971 0.07492 0.0
C546 C 0.90969 0.59341 0.05336 0.0
C547 C 0.93424 0.55685 0.08066 0.0
C548 C 0.90873 0.44193 0.05965 0.0
H549 H 0.03623 0.32885 0.09149 0.0
H550 H -0.01527 0.36173 0.10113 0.0
H551 H 0.89289 0.37136 0.05154 0.0
H552 H 0.91254 0.57218 1.02071 0.0
H553 H 0.93974 0.51714 0.03048 0.0
H554 H -0.00162 0.51876 0.09303 0.0
C555 C -0.00983 0.35698 0.08435 0.0
C556 C 0.91518 0.40275 0.06119 0.0
C557 C 0.01932 0.33802 0.07885 0.0
C558 C 0.92026 0.56962 0.03742 0.0
C559 C 0.93509 0.53767 0.04305 0.0
C560 C 0.97434 0.48626 0.08443 0.0
C561 C 0.97184 0.3736 0.06824 0.0
C562 C 0.95331 0.40597 0.07323 0.0
C563 C 0.93856 0.52835 0.06475 0.0
C564 C 0.94006 0.48489 0.07023 0.0
H565 H 0.01895 0.34935 0.02448 0.0
H566 H 0.96662 0.38018 0.0338 0.0
H567 H 0.01008 0.44995 0.09552 0.0
H568 H 0.91196 0.60785 0.08744 0.0
H569 H 0.93727 0.55058 0.09748 0.0
C570 C 0.3223 0.90462 0.3603 0.0
C571 C 0.29158 0.90484 0.37606 0.0
C572 C 0.37054 0.92316 0.36482 0.0
C573 C 0.45321 0.92053 0.38417 0.0
H574 H 0.54197 0.04064 0.4113 0.0
C575 C 0.667 0.03987 0.40416 0.0
C576 C 0.68257 0.05818 0.38348 0.0
C577 C 0.61807 0.01067 0.40817 0.0
C578 C 0.51713 0.00634 0.40433 0.0
H579 H 0.28702 0.92825 0.40815 0.0
H580 H 0.37212 0.96062 0.41626 0.0
H581 H 0.45776 0.01796 0.40783 0.0
H582 H 0.66123 0.05726 0.35053 0.0
H583 H 0.57623 0.00364 0.35722 0.0
H584 H 0.51353 0.91109 0.37902 0.0
C585 C 0.35892 0.94632 0.40038 0.0
C586 C 0.46911 -0.00646 0.40219 0.0
C587 C 0.31043 0.92825 0.3957 0.0
C588 C 0.64978 0.043 0.3665 0.0
C589 C 0.60136 0.01259 0.37035 0.0
C590 C 0.50122 0.93366 0.38606 0.0
C591 C 0.38865 0.94135 0.38535 0.0
C592 C 0.43729 0.9516 0.39114 0.0
C593 C 0.58505 -0.00181 0.39133 0.0
C594 C 0.53372 0.97744 0.39544 0.0
H595 H 0.30828 0.8867 0.34506 0.0
H596 H 0.39308 0.92056 0.35264 0.0
H597 H 0.429 0.88712 0.37624 0.0
H598 H 0.6919 0.05173 0.41749 0.0
H599 H 0.60587 0.00016 0.42448 0.0
C600 C 0.3409 0.16627 0.80206 0.0
C601 C 0.36106 0.20577 0.78827 0.0
C602 C 0.3283 0.17079 0.82317 0.0
C603 C 0.3506 0.26343 0.86473 0.0
H604 H 0.23517 0.16306 0.89086 0.0
C605 C 0.26733 0.29511 0.94056 0.0
C606 C 0.25117 0.26036 0.95672 0.0
C607 C 0.28179 0.28679 0.92061 0.0
C608 C 0.26778 0.19123 0.88386 0.0
H609 H 0.38173 0.28035 0.78566 0.0
H610 H 0.35946 0.28805 0.82188 0.0
H611 H 0.25815 0.15104 0.855 0.0
H612 H 0.23702 0.18933 0.96443 0.0
H613 H 0.26211 0.1747 0.92949 0.0
H614 H 0.35957 0.30399 0.89335 0.0
C615 C 0.3547 0.25391 0.81685 0.0
C616 C 0.28107 0.18431 0.8633 0.0
C617 C 0.36746 0.24945 0.79594 0.0
C618 C 0.24967 0.21698 0.95239 0.0
C619 C 0.26363 0.20843 0.93232 0.0
C620 C 0.33709 0.27046 0.88513 0.0
C621 C 0.33533 0.21485 0.83089 0.0
C622 C 0.32239 0.22058 0.85333 0.0
C623 C 0.28003 0.24332 0.91622 0.0
C624 C 0.29528 0.23468 0.89487 0.0
H625 H 0.33545 0.13208 0.79665 0.0
H626 H 0.31376 0.13995 0.83353 0.0
H627 H 0.3833 0.29178 0.85789 0.0
H628 H 0.26923 0.32902 0.94341 0.0
H629 H 0.29382 0.31426 0.9085 0.0
C630 C -0.01846 0.23315 0.27919 0.0
C631 C -0.01814 0.26864 0.29244 0.0
C632 C 0.00172 0.2442 0.25865 0.0
C633 C 0.03468 0.33308 0.21559 0.0
H634 H 0.1108 0.28001 0.19397 0.0
C635 C 0.13417 0.39554 0.13541 0.0
C636 C 0.13359 0.36091 0.12157 0.0
C637 C 0.11857 0.38437 0.15659 0.0
C638 C 0.08921 0.29474 0.19966 0.0
H639 H 0.00497 0.34399 0.29446 0.0
H640 H 0.03971 0.3631 0.25866 0.0
H641 H 0.0774 0.26015 0.23012 0.0
H642 H 0.1178 0.28774 0.11932 0.0
H643 H 0.08996 0.26782 0.15639 0.0
H644 H 0.04574 0.36715 0.18519 0.0
C645 C 0.02326 0.32654 0.26407 0.0
C646 C 0.07009 0.28337 0.22041 0.0
C647 C 0.00325 0.31554 0.28462 0.0
C648 C 0.11891 0.31525 0.12965 0.0
C649 C 0.10296 0.30389 0.1509 0.0
C650 C 0.05357 0.34426 0.19487 0.0
C651 C 0.02256 0.29098 0.25078 0.0
C652 C 0.04277 0.30261 0.22867 0.0
C653 C 0.10166 0.33809 0.16452 0.0
C654 C 0.08136 0.32551 0.18663 0.0
H655 H 0.96473 0.19649 0.28449 0.0
H656 H -2e-05 0.21582 0.24874 0.0
H657 H 0.01304 0.34778 0.22126 0.0
H658 H 0.14628 0.43135 0.1298 0.0
H659 H 0.11943 0.41205 0.16671 0.0
C660 C 0.67187 0.95679 0.60611 0.0
C661 C 0.7111 0.96539 0.61908 0.0
C662 C 0.67886 0.97923 0.58624 0.0
C663 C 0.76814 0.03863 0.54333 0.0
H664 H 0.68626 0.08895 0.52717 0.0
C665 C 0.79658 0.1452 0.46458 0.0
C666 C 0.75515 0.13621 0.45331 0.0
C667 C 0.79322 0.12655 0.48519 0.0
C668 C 0.70915 0.07466 0.53128 0.0
H669 H 0.78862 0.00488 0.62114 0.0
H670 H 0.80073 0.04352 0.58637 0.0
H671 H 0.67615 0.05159 0.56204 0.0
H672 H 0.67767 0.09975 0.45487 0.0
H673 H 0.67178 0.06709 0.49033 0.0
H674 H 0.80066 0.06102 0.51241 0.0
C675 C 0.76453 0.01907 0.59157 0.0
C676 C 0.70335 0.05325 0.55133 0.0
C677 C 0.75754 -0.00317 0.61151 0.0
C678 C 0.71041 0.10809 0.46312 0.0
C679 C 0.70703 0.0894 0.4836 0.0
C680 C 0.7738 0.05985 0.52319 0.0
C681 C 0.72527 0.01069 0.57872 0.0
C682 C 0.73251 0.03464 0.55756 0.0
C683 C 0.74833 0.09838 0.49498 0.0
C684 C 0.74409 0.07781 0.51682 0.0
H685 H 0.63561 0.93208 0.61114 0.0
H686 H 0.64783 0.97132 0.5766 0.0
H687 H 0.79092 0.02424 0.54754 0.0
H688 H 0.83163 0.16668 0.45751 0.0
H689 H 0.82584 0.13462 0.49354 0.0
C690 C 0.65321 0.77614 0.78929 0.0
C691 C 0.60468 0.75038 0.78333 0.0
C692 C 0.66775 0.77129 0.80985 0.0
C693 C 0.623 0.73496 0.86504 0.0
H694 H 0.73481 0.7214 0.87201 0.0
C695 C 0.67195 0.68655 0.94676 0.0
C696 C 0.72066 0.70818 0.95236 0.0
C697 C 0.65805 0.6919 0.92617 0.0
C698 C 0.70387 0.72581 0.87043 0.0
H699 H 0.53334 0.69971 0.79452 0.0
H700 H 0.55866 0.69129 0.83023 0.0
H701 H 0.71064 0.73112 0.8362 0.0
H702 H 0.79288 0.75204 0.94032 0.0
H703 H 0.76869 0.76268 0.90478 0.0
H704 H 0.61641 0.73024 0.89922 0.0
C705 C 0.5855 0.71536 0.81904 0.0
C706 C 0.68998 0.7313 0.84985 0.0
C707 C 0.57104 0.71992 0.79847 0.0
C708 C 0.75503 0.7354 0.93677 0.0
C709 C 0.74113 0.74093 0.91621 0.0
C710 C 0.63705 0.72979 0.88563 0.0
C711 C 0.63403 0.74091 0.82499 0.0
C712 C 0.64929 0.73579 0.8469 0.0
C713 C 0.69244 0.7192 0.9106 0.0
C714 C 0.67762 0.725 0.88862 0.0
H715 H 0.6801 0.79987 0.77804 0.0
H716 H 0.70536 0.79181 0.81398 0.0
H717 H 0.59186 0.73901 0.86336 0.0
H718 H 0.6444 0.66571 0.95836 0.0
H719 H 0.62023 0.67411 0.92241 0.0
C720 C 0.95521 0.73639 0.27916 0.0
C721 C -0.01381 0.72144 0.28713 0.0
C722 C 0.93499 0.72238 0.25864 0.0
C723 C 0.94988 0.67164 0.20703 0.0
H724 H 0.82297 0.65068 0.19498 0.0
C725 C 0.84813 0.5824 0.12873 0.0
C726 C 0.82789 0.60574 0.11761 0.0
C727 C 0.86605 0.59647 0.14953 0.0
C728 C 0.85858 0.65673 0.19809 0.0
H729 H 0.01899 0.67876 0.28016 0.0
H730 H -0.0174 0.65288 0.24484 0.0
H731 H 0.85634 0.67419 0.23107 0.0
H732 H 0.80959 0.66146 0.12 0.0
H733 H 0.84019 0.68542 0.15663 0.0
H734 H 0.95134 0.65281 0.17414 0.0
C735 C 0.97502 0.67681 0.25398 0.0
C736 C 0.87791 0.67043 0.21878 0.0
C737 C -0.00426 0.69139 0.27433 0.0
C738 C 0.82497 0.64276 0.12807 0.0
C739 C 0.84233 0.65639 0.14907 0.0
C740 C 0.93027 0.65729 0.18648 0.0
C741 C 0.94471 0.69248 0.24568 0.0
C742 C 0.92388 0.67804 0.22359 0.0
C743 C 0.86366 0.6338 0.1599 0.0
C744 C 0.8844 0.64961 0.18177 0.0
H745 H 0.94758 0.75997 0.28857 0.0
H746 H 0.91256 0.73593 0.2528 0.0
H747 H -0.01423 0.67824 0.2098 0.0
H748 H 0.85114 0.55381 0.12122 0.0
H749 H 0.88182 0.57806 0.15754 0.0
C750 C 0.31479 0.00083 0.60985 0.0
C751 C 0.27625 -0.00872 0.62348 0.0
C752 C 0.30672 -0.01608 0.58866 0.0
C753 C 0.21677 0.94129 0.54497 0.0
H754 H 0.28992 0.88631 0.52194 0.0
C755 C 0.17439 0.84593 0.46182 0.0
C756 C 0.21316 0.851 0.44954 0.0
C757 C 0.18148 0.86361 0.48292 0.0
C758 C 0.26958 0.90216 0.52794 0.0
H759 H 0.19881 0.9557 0.6253 0.0
H760 H 0.18488 0.9268 0.58833 0.0
H761 H 0.30388 0.91626 0.55867 0.0
H762 H 0.29009 0.8803 0.4496 0.0
H763 H 0.30249 0.91181 0.48591 0.0
H764 H 0.18282 0.92773 0.51417 0.0
C765 C 0.2214 0.9478 0.59402 0.0
C766 C 0.27758 0.91927 0.54909 0.0
C767 C 0.22944 0.96446 0.61525 0.0
C768 C 0.25924 0.87515 0.45866 0.0
C769 C 0.26635 0.89304 0.47961 0.0
C770 C 0.20897 0.92446 0.52374 0.0
C771 C 0.25991 0.95723 0.58045 0.0
C772 C 0.25132 0.93909 0.55788 0.0
C773 C 0.22756 0.88706 0.49219 0.0
C774 C 0.23534 0.90472 0.5149 0.0
H775 H 0.35136 0.0221 0.61544 0.0
H776 H 0.33726 -0.00755 0.57857 0.0
H777 H 0.19629 0.95685 0.55115 0.0
H778 H 0.13842 0.82737 0.45533 0.0
H779 H 0.15062 0.85786 0.49212 0.0
loop_
_geom_bond_atom_site_label_1
_geom_bond_atom_site_label_2
_geom_bond_distance
_geom_bond_site_symmetry_2
_ccdc_geom_bond_type
Tb0 C2 2.809 . S
Tb0 O20 2.484 . S
Tb0 O21 2.440 . S
Tb0 O22 2.658 . S
Tb0 O23 2.409 . S
Tb0 O24 2.378 . S
Tb0 O28 2.325 . S
Tb0 O31 2.341 . S
Tb1 C11 2.809 1_554 S
Tb1 O22 2.325 . S
Tb1 O25 2.341 . S
Tb1 O26 2.484 1_554 S
Tb1 O27 2.440 1_554 S
Tb1 O28 2.658 . S
Tb1 O29 2.409 . S
Tb1 O30 2.376 1_554 S
C2 Tb0 2.809 . S
C2 C3 1.514 . S
C2 O20 1.248 . S
C2 O21 1.266 . S
C3 C2 1.514 . S
C3 C4 1.359 . S
C3 C8 1.348 . S
C4 C3 1.359 . S
C4 C5 1.380 . S
C4 H32 0.929 . S
C5 C4 1.380 . S
C5 C6 1.347 . S
C5 H33 0.931 . S
C6 C5 1.347 . S
C6 C7 1.369 . S
C7 C6 1.369 . S
C7 C8 1.408 . S
C7 H34 0.930 . S
C8 C3 1.348 . S
C8 C7 1.408 . S
C8 H35 0.930 . S
C9 O22 1.281 . S
C9 O23 1.254 . S
C10 O24 1.236 . S
C10 O25 1.266 . S
C11 Tb1 2.809 1_556 S
C11 C12 1.514 . S
C11 O26 1.248 . S
C11 O27 1.266 . S
C12 C11 1.514 . S
C12 C13 1.359 . S
C12 C17 1.348 . S
C13 C12 1.359 . S
C13 C14 1.380 . S
C13 H36 0.929 . S
C14 C13 1.380 . S
C14 C15 1.347 . S
C14 H37 0.931 . S
C15 C14 1.347 . S
C15 C16 1.369 . S
C16 C15 1.369 . S
C16 C17 1.408 . S
C16 H38 0.930 . S
C17 C12 1.348 . S
C17 C16 1.408 . S
C17 H39 0.930 . S
C18 O28 1.281 . S
C18 O29 1.254 . S
C19 O30 1.236 1_554 S
C19 O31 1.283 . S
O20 Tb0 2.484 . S
O20 C2 1.248 . S
O21 Tb0 2.440 . S
O21 C2 1.266 . S
O22 Tb0 2.658 . S
O22 Tb1 2.325 . S
O22 C9 1.281 . S
O23 Tb0 2.409 . S
O23 C9 1.254 . S
O24 Tb0 2.378 . S
O24 C10 1.236 . S
O25 Tb1 2.341 . S
O25 C10 1.266 . S
O26 Tb1 2.484 1_556 S
O26 C11 1.248 . S
O27 Tb1 2.440 1_556 S
O27 C11 1.266 . S
O28 Tb0 2.325 . S
O28 Tb1 2.658 . S
O28 C18 1.281 . S
O29 Tb1 2.409 . S
O29 C18 1.254 . S
O30 Tb1 2.376 1_556 S
O30 C19 1.236 1_556 S
O31 Tb0 2.341 . S
O31 C19 1.283 . S
H32 C4 0.929 . S
H33 C5 0.931 . S
H34 C7 0.930 . S
H35 C8 0.930 . S
H36 C13 0.929 . S
H37 C14 0.931 . S
H38 C16 0.930 . S
H39 C17 0.930 . S
Tb40 C42 2.809 . S
Tb40 O60 2.484 . S
Tb40 O61 2.440 . S
Tb40 O62 2.658 . S
Tb40 O63 2.409 . S
Tb40 O64 2.378 . S
Tb40 O68 2.325 . S
Tb40 O71 2.341 . S
Tb41 C51 2.809 . S
Tb41 O62 2.325 . S
Tb41 O65 2.341 . S
Tb41 O66 2.484 . S
Tb41 O67 2.440 . S
Tb41 O68 2.658 . S
Tb41 O69 2.409 . S
Tb41 O70 2.378 . S
C42 Tb40 2.809 . S
C42 C43 1.514 . S
C42 O60 1.248 . S
C42 O61 1.266 . S
C43 C42 1.514 . S
C43 C44 1.359 . S
C43 C48 1.348 . S
C44 C43 1.359 . S
C44 C45 1.380 . S
C44 H72 0.929 . S
C45 C44 1.380 . S
C45 C46 1.347 . S
C45 H73 0.931 . S
C46 C45 1.347 . S
C46 C47 1.369 . S
C47 C46 1.369 . S
C47 C48 1.408 . S
C47 H74 0.930 . S
C48 C43 1.348 . S
C48 C47 1.408 . S
C48 H75 0.930 . S
C49 O62 1.281 . S
C49 O63 1.254 . S
C50 O64 1.236 . S
C50 O65 1.266 . S
C51 Tb41 2.809 . S
C51 C52 1.514 . S
C51 O66 1.248 . S
C51 O67 1.266 . S
C52 C51 1.514 . S
C52 C53 1.359 . S
C52 C57 1.348 . S
C53 C52 1.359 . S
C53 C54 1.380 . S
C53 H76 0.929 . S
C54 C53 1.380 . S
C54 C55 1.347 . S
C54 H77 0.931 . S
C55 C54 1.347 . S
C55 C56 1.369 . S
C56 C55 1.369 . S
C56 C57 1.408 . S
C56 H78 0.930 . S
C57 C52 1.348 . S
C57 C56 1.408 . S
C57 H79 0.930 . S
C58 O68 1.281 . S
C58 O69 1.254 . S
C59 O70 1.236 . S
C59 O71 1.266 . S
O60 Tb40 2.484 . S
O60 C42 1.248 . S
O61 Tb40 2.440 . S
O61 C42 1.266 . S
O62 Tb40 2.658 . S
O62 Tb41 2.325 . S
O62 C49 1.281 . S
O63 Tb40 2.409 . S
O63 C49 1.254 . S
O64 Tb40 2.378 . S
O64 C50 1.236 . S
O65 Tb41 2.341 . S
O65 C50 1.266 . S
O66 Tb41 2.484 . S
O66 C51 1.248 . S
O67 Tb41 2.440 . S
O67 C51 1.266 . S
O68 Tb40 2.325 . S
O68 Tb41 2.658 . S
O68 C58 1.281 . S
O69 Tb41 2.409 . S
O69 C58 1.254 . S
O70 Tb41 2.378 . S
O70 C59 1.236 . S
O71 Tb40 2.341 . S
O71 C59 1.266 . S
H72 C44 0.929 . S
H73 C45 0.931 . S
H74 C47 0.930 . S
H75 C48 0.930 . S
H76 C53 0.929 . S
H77 C54 0.931 . S
H78 C56 0.930 . S
H79 C57 0.930 . S
Tb80 C82 2.809 . S
Tb80 O100 2.484 . S
Tb80 O101 2.440 . S
Tb80 O102 2.658 . S
Tb80 O103 2.409 . S
Tb80 O104 2.378 . S
Tb80 O108 2.325 . S
Tb80 O111 2.341 . S
Tb81 C91 2.809 . S
Tb81 O102 2.325 . S
Tb81 O105 2.341 . S
Tb81 O106 2.484 . S
Tb81 O107 2.440 . S
Tb81 O108 2.658 . S
Tb81 O109 2.409 . S
Tb81 O110 2.378 . S
C82 Tb80 2.809 . S
C82 C83 1.514 . S
C82 O100 1.248 . S
C82 O101 1.266 . S
C83 C82 1.514 . S
C83 C84 1.359 . S
C83 C88 1.348 . S
C84 C83 1.359 . S
C84 C85 1.380 . S
C84 H112 0.929 . S
C85 C84 1.380 . S
C85 C86 1.347 . S
C85 H113 0.931 . S
C86 C85 1.347 . S
C86 C87 1.369 . S
C87 C86 1.369 . S
C87 C88 1.408 . S
C87 H114 0.930 . S
C88 C83 1.348 . S
C88 C87 1.408 . S
C88 H115 0.930 . S
C89 O102 1.281 . S
C89 O103 1.254 . S
C90 O104 1.236 . S
C90 O105 1.266 . S
C91 Tb81 2.809 . S
C91 C92 1.514 . S
C91 O106 1.248 . S
C91 O107 1.266 . S
C92 C91 1.514 . S
C92 C93 1.359 . S
C92 C97 1.348 . S
C93 C92 1.359 . S
C93 C94 1.380 . S
C93 H116 0.929 . S
C94 C93 1.380 . S
C94 C95 1.347 . S
C94 H117 0.931 . S
C95 C94 1.347 . S
C95 C96 1.369 . S
C96 C95 1.369 . S
C96 C97 1.408 . S
C96 H118 0.930 . S
C97 C92 1.348 . S
C97 C96 1.408 . S
C97 H119 0.930 . S
C98 O108 1.281 . S
C98 O109 1.254 . S
C99 O110 1.236 . S
C99 O111 1.266 . S
O100 Tb80 2.484 . S
O100 C82 1.248 . S
O101 Tb80 2.440 . S
O101 C82 1.266 . S
O102 Tb80 2.658 . S
O102 Tb81 2.325 . S
O102 C89 1.281 . S
O103 Tb80 2.409 . S
O103 C89 1.254 . S
O104 Tb80 2.378 . S
O104 C90 1.236 . S
O105 Tb81 2.341 . S
O105 C90 1.266 . S
O106 Tb81 2.484 . S
O106 C91 1.248 . S
O107 Tb81 2.440 . S
O107 C91 1.266 . S
O108 Tb80 2.325 . S
O108 Tb81 2.658 . S
O108 C98 1.281 . S
O109 Tb81 2.409 . S
O109 C98 1.254 . S
O110 Tb81 2.378 . S
O110 C99 1.236 . S
O111 Tb80 2.341 . S
O111 C99 1.266 . S
H112 C84 0.929 . S
H113 C85 0.931 . S
H114 C87 0.930 . S
H115 C88 0.930 . S
H116 C93 0.929 . S
H117 C94 0.931 . S
H118 C96 0.930 . S
H119 C97 0.930 . S
Tb120 C122 2.809 . S
Tb120 O140 2.484 . S
Tb120 O141 2.440 . S
Tb120 O142 2.658 . S
Tb120 O143 2.409 . S
Tb120 O144 2.378 . S
Tb120 O148 2.325 . S
Tb120 O151 2.341 . S
Tb121 C131 2.809 1_554 S
Tb121 O142 2.325 . S
Tb121 O145 2.341 . S
Tb121 O146 2.484 1_554 S
Tb121 O147 2.440 1_554 S
Tb121 O148 2.658 . S
Tb121 O149 2.409 . S
Tb121 O150 2.376 1_554 S
C122 Tb120 2.809 . S
C122 C123 1.514 . S
C122 O140 1.248 . S
C122 O141 1.266 . S
C123 C122 1.514 . S
C123 C124 1.359 . S
C123 C128 1.348 . S
C124 C123 1.359 . S
C124 C125 1.380 . S
C124 H152 0.929 . S
C125 C124 1.380 . S
C125 C126 1.347 . S
C125 H153 0.931 . S
C126 C125 1.347 . S
C126 C127 1.369 . S
C127 C126 1.369 . S
C127 C128 1.408 . S
C127 H154 0.930 . S
C128 C123 1.348 . S
C128 C127 1.408 . S
C128 H155 0.930 . S
C129 O142 1.281 . S
C129 O143 1.254 . S
C130 O144 1.236 . S
C130 O145 1.266 . S
C131 Tb121 2.809 1_556 S
C131 C132 1.514 . S
C131 O146 1.248 . S
C131 O147 1.266 . S
C132 C131 1.514 . S
C132 C133 1.359 . S
C132 C137 1.348 . S
C133 C132 1.359 . S
C133 C134 1.380 . S
C133 H156 0.929 . S
C134 C133 1.380 . S
C134 C135 1.347 . S
C134 H157 0.931 . S
C135 C134 1.347 . S
C135 C136 1.369 . S
C136 C135 1.369 . S
C136 C137 1.408 . S
C136 H158 0.930 . S
C137 C132 1.348 . S
C137 C136 1.408 . S
C137 H159 0.930 . S
C138 O148 1.281 . S
C138 O149 1.254 . S
C139 O150 1.236 1_554 S
C139 O151 1.283 . S
O140 Tb120 2.484 . S
O140 C122 1.248 . S
O141 Tb120 2.440 . S
O141 C122 1.266 . S
O142 Tb120 2.658 . S
O142 Tb121 2.325 . S
O142 C129 1.281 . S
O143 Tb120 2.409 . S
O143 C129 1.254 . S
O144 Tb120 2.378 . S
O144 C130 1.236 . S
O145 Tb121 2.341 . S
O145 C130 1.266 . S
O146 Tb121 2.484 1_556 S
O146 C131 1.248 . S
O147 Tb121 2.440 1_556 S
O147 C131 1.266 . S
O148 Tb120 2.325 . S
O148 Tb121 2.658 . S
O148 C138 1.281 . S
O149 Tb121 2.409 . S
O149 C138 1.254 . S
O150 Tb121 2.376 1_556 S
O150 C139 1.236 1_556 S
O151 Tb120 2.341 . S
O151 C139 1.283 . S
H152 C124 0.929 . S
H153 C125 0.931 . S
H154 C127 0.930 . S
H155 C128 0.930 . S
H156 C133 0.929 . S
H157 C134 0.931 . S
H158 C136 0.930 . S
H159 C137 0.930 . S
Tb160 C162 2.809 . S
Tb160 O180 2.484 . S
Tb160 O181 2.440 . S
Tb160 O182 2.658 . S
Tb160 O183 2.409 . S
Tb160 O184 2.378 . S
Tb160 O188 2.325 . S
Tb160 O191 2.341 . S
Tb161 C171 2.809 . S
Tb161 O182 2.325 . S
Tb161 O185 2.341 . S
Tb161 O186 2.484 . S
Tb161 O187 2.440 . S
Tb161 O188 2.658 . S
Tb161 O189 2.409 . S
Tb161 O190 2.378 . S
C162 Tb160 2.809 . S
C162 C163 1.514 . S
C162 O180 1.248 . S
C162 O181 1.266 . S
C163 C162 1.514 . S
C163 C164 1.359 . S
C163 C168 1.348 . S
C164 C163 1.359 . S
C164 C165 1.380 . S
C164 H192 0.929 . S
C165 C164 1.380 . S
C165 C166 1.347 . S
C165 H193 0.931 . S
C166 C165 1.347 . S
C166 C167 1.369 . S
C167 C166 1.369 . S
C167 C168 1.408 . S
C167 H194 0.930 . S
C168 C163 1.348 . S
C168 C167 1.408 . S
C168 H195 0.930 . S
C169 O182 1.281 . S
C169 O183 1.254 . S
C170 O184 1.236 . S
C170 O185 1.266 . S
C171 Tb161 2.809 . S
C171 C172 1.514 . S
C171 O186 1.248 . S
C171 O187 1.266 . S
C172 C171 1.514 . S
C172 C173 1.359 . S
C172 C177 1.348 . S
C173 C172 1.359 . S
C173 C174 1.380 . S
C173 H196 0.929 . S
C174 C173 1.380 . S
C174 C175 1.347 . S
C174 H197 0.931 . S
C175 C174 1.347 . S
C175 C176 1.369 . S
C176 C175 1.369 . S
C176 C177 1.408 . S
C176 H198 0.930 . S
C177 C172 1.348 . S
C177 C176 1.408 . S
C177 H199 0.930 . S
C178 O188 1.281 . S
C178 O189 1.254 . S
C179 O190 1.236 . S
C179 O191 1.266 . S
O180 Tb160 2.484 . S
O180 C162 1.248 . S
O181 Tb160 2.440 . S
O181 C162 1.266 . S
O182 Tb160 2.658 . S
O182 Tb161 2.325 . S
O182 C169 1.281 . S
O183 Tb160 2.409 . S
O183 C169 1.254 . S
O184 Tb160 2.378 . S
O184 C170 1.236 . S
O185 Tb161 2.341 . S
O185 C170 1.266 . S
O186 Tb161 2.484 . S
O186 C171 1.248 . S
O187 Tb161 2.440 . S
O187 C171 1.266 . S
O188 Tb160 2.325 . S
O188 Tb161 2.658 . S
O188 C178 1.281 . S
O189 Tb161 2.409 . S
O189 C178 1.254 . S
O190 Tb161 2.378 . S
O190 C179 1.236 . S
O191 Tb160 2.341 . S
O191 C179 1.266 . S
H192 C164 0.929 . S
H193 C165 0.931 . S
H194 C167 0.930 . S
H195 C168 0.930 . S
H196 C173 0.929 . S
H197 C174 0.931 . S
H198 C176 0.930 . S
H199 C177 0.930 . S
Tb200 C202 2.809 . S
Tb200 O220 2.484 . S
Tb200 O221 2.440 . S
Tb200 O222 2.658 . S
Tb200 O223 2.409 . S
Tb200 O224 2.378 . S
Tb200 O228 2.325 . S
Tb200 O231 2.341 . S
Tb201 C211 2.809 . S
Tb201 O222 2.325 . S
Tb201 O225 2.341 . S
Tb201 O226 2.484 . S
Tb201 O227 2.440 . S
Tb201 O228 2.658 . S
Tb201 O229 2.409 . S
Tb201 O230 2.378 . S
C202 Tb200 2.809 . S
C202 C203 1.514 . S
C202 O220 1.248 . S
C202 O221 1.266 . S
C203 C202 1.514 . S
C203 C204 1.359 . S
C203 C208 1.348 . S
C204 C203 1.359 . S
C204 C205 1.380 . S
C204 H232 0.929 . S
C205 C204 1.380 . S
C205 C206 1.347 . S
C205 H233 0.931 . S
C206 C205 1.347 . S
C206 C207 1.369 . S
C207 C206 1.369 . S
C207 C208 1.408 . S
C207 H234 0.930 . S
C208 C203 1.348 . S
C208 C207 1.408 . S
C208 H235 0.930 . S
C209 O222 1.281 . S
C209 O223 1.254 . S
C210 O224 1.236 . S
C210 O225 1.266 . S
C211 Tb201 2.809 . S
C211 C212 1.514 . S
C211 O226 1.248 . S
C211 O227 1.266 . S
C212 C211 1.514 . S
C212 C213 1.359 . S
C212 C217 1.348 . S
C213 C212 1.359 . S
C213 C214 1.380 . S
C213 H236 0.929 . S
C214 C213 1.380 . S
C214 C215 1.347 . S
C214 H237 0.931 . S
C215 C214 1.347 . S
C215 C216 1.369 . S
C216 C215 1.369 . S
C216 C217 1.408 . S
C216 H238 0.930 . S
C217 C212 1.348 . S
C217 C216 1.408 . S
C217 H239 0.930 . S
C218 O228 1.281 . S
C218 O229 1.254 . S
C219 O230 1.236 . S
C219 O231 1.266 . S
O220 Tb200 2.484 . S
O220 C202 1.248 . S
O221 Tb200 2.440 . S
O221 C202 1.266 . S
O222 Tb200 2.658 . S
O222 Tb201 2.325 . S
O222 C209 1.281 . S
O223 Tb200 2.409 . S
O223 C209 1.254 . S
O224 Tb200 2.378 . S
O224 C210 1.236 . S
O225 Tb201 2.341 . S
O225 C210 1.266 . S
O226 Tb201 2.484 . S
O226 C211 1.248 . S
O227 Tb201 2.440 . S
O227 C211 1.266 . S
O228 Tb200 2.325 . S
O228 Tb201 2.658 . S
O228 C218 1.281 . S
O229 Tb201 2.409 . S
O229 C218 1.254 . S
O230 Tb201 2.378 . S
O230 C219 1.236 . S
O231 Tb200 2.341 . S
O231 C219 1.266 . S
H232 C204 0.929 . S
H233 C205 0.931 . S
H234 C207 0.930 . S
H235 C208 0.930 . S
H236 C213 0.929 . S
H237 C214 0.931 . S
H238 C216 0.930 . S
H239 C217 0.930 . S
C240 C241 1.349 . S
C240 C242 1.327 . S
C240 H265 0.950 . S
C241 C240 1.349 . S
C241 C257 1.349 . S
C242 C240 1.327 . S
C242 C261 1.429 . S
C242 H266 0.950 . S
C243 C260 1.574 . S
C243 C262 1.368 . S
C243 H267 0.949 . S
H244 C248 0.949 . S
C245 C246 1.349 . S
C245 C247 1.327 . S
C245 H268 0.950 . S
C246 C245 1.349 . S
C246 C258 1.349 . S
C247 C245 1.327 . S
C247 C263 1.429 . S
C247 H269 0.950 . S
C248 H244 0.949 . S
C248 C256 1.574 . S
C248 C264 1.368 . S
H249 C257 0.950 . S
H250 C255 0.950 . S
H251 C256 0.949 . S
H252 C258 0.950 . S
H253 C259 0.950 . S
H254 C260 0.949 . S
C255 H250 0.950 . S
C255 C257 1.327 . S
C255 C261 1.429 . S
C256 C248 1.574 . S
C256 H251 0.949 . S
C256 C262 1.368 . S
C257 C241 1.349 . S
C257 H249 0.950 . S
C257 C255 1.327 . S
C258 C246 1.349 . S
C258 H252 0.950 . S
C258 C259 1.327 . S
C259 H253 0.950 . S
C259 C258 1.327 . S
C259 C263 1.429 . S
C260 C243 1.574 . S
C260 H254 0.949 . S
C260 C264 1.368 . S
C261 C242 1.429 . S
C261 C255 1.429 . S
C261 C262 1.523 . S
C262 C243 1.368 . S
C262 C256 1.368 . S
C262 C261 1.523 . S
C263 C247 1.429 . S
C263 C259 1.429 . S
C263 C264 1.523 . S
C264 C248 1.368 . S
C264 C260 1.368 . S
C264 C263 1.523 . S
H265 C240 0.950 . S
H266 C242 0.950 . S
H267 C243 0.949 . S
H268 C245 0.950 . S
H269 C247 0.950 . S
C270 C271 1.349 . S
C270 C272 1.327 . S
C270 H295 0.950 . S
C271 C270 1.349 . S
C271 C287 1.349 . S
C272 C270 1.327 . S
C272 C291 1.429 . S
C272 H296 0.950 . S
C273 C290 1.574 . S
C273 C292 1.368 . S
C273 H297 0.949 . S
H274 C278 0.949 . S
C275 C276 1.349 . S
C275 C277 1.327 . S
C275 H298 0.950 . S
C276 C275 1.349 . S
C276 C288 1.349 . S
C277 C275 1.327 . S
C277 C293 1.429 . S
C277 H299 0.950 . S
C278 H274 0.949 . S
C278 C286 1.574 . S
C278 C294 1.368 . S
H279 C287 0.950 . S
H280 C285 0.950 . S
H281 C286 0.949 . S
H282 C288 0.950 . S
H283 C289 0.950 . S
H284 C290 0.949 . S
C285 H280 0.950 . S
C285 C287 1.327 . S
C285 C291 1.429 . S
C286 C278 1.574 . S
C286 H281 0.949 . S
C286 C292 1.368 . S
C287 C271 1.349 . S
C287 H279 0.950 . S
C287 C285 1.327 . S
C288 C276 1.349 . S
C288 H282 0.950 . S
C288 C289 1.327 . S
C289 H283 0.950 . S
C289 C288 1.327 . S
C289 C293 1.429 . S
C290 C273 1.574 . S
C290 H284 0.949 . S
C290 C294 1.368 . S
C291 C272 1.429 . S
C291 C285 1.429 . S
C291 C292 1.523 . S
C292 C273 1.368 . S
C292 C286 1.368 . S
C292 C291 1.523 . S
C293 C277 1.429 . S
C293 C289 1.429 . S
C293 C294 1.523 . S
C294 C278 1.368 . S
C294 C290 1.368 . S
C294 C293 1.523 . S
H295 C270 0.950 . S
H296 C272 0.950 . S
H297 C273 0.949 . S
H298 C275 0.950 . S
H299 C277 0.950 . S
C300 C301 1.349 . S
C300 C302 1.327 . S
C300 H325 0.950 . S
C301 C300 1.349 . S
C301 C317 1.349 . S
C302 C300 1.327 . S
C302 C321 1.429 . S
C302 H326 0.950 . S
C303 C320 1.574 . S
C303 C322 1.368 . S
C303 H327 0.949 . S
H304 C308 0.949 . S
C305 C306 1.349 . S
C305 C307 1.327 . S
C305 H328 0.950 . S
C306 C305 1.349 . S
C306 C318 1.349 . S
C307 C305 1.327 . S
C307 C323 1.429 . S
C307 H329 0.950 . S
C308 H304 0.949 . S
C308 C316 1.574 . S
C308 C324 1.368 . S
H309 C317 0.950 . S
H310 C315 0.950 . S
H311 C316 0.949 . S
H312 C318 0.950 . S
H313 C319 0.950 . S
H314 C320 0.949 . S
C315 H310 0.950 . S
C315 C317 1.327 . S
C315 C321 1.429 . S
C316 C308 1.574 . S
C316 H311 0.949 . S
C316 C322 1.368 . S
C317 C301 1.349 . S
C317 H309 0.950 . S
C317 C315 1.327 . S
C318 C306 1.349 . S
C318 H312 0.950 . S
C318 C319 1.327 . S
C319 H313 0.950 . S
C319 C318 1.327 . S
C319 C323 1.429 . S
C320 C303 1.574 . S
C320 H314 0.949 . S
C320 C324 1.368 . S
C321 C302 1.429 . S
C321 C315 1.429 . S
C321 C322 1.523 . S
C322 C303 1.368 . S
C322 C316 1.368 . S
C322 C321 1.523 . S
C323 C307 1.429 . S
C323 C319 1.429 . S
C323 C324 1.523 . S
C324 C308 1.368 . S
C324 C320 1.368 . S
C324 C323 1.523 . S
H325 C300 0.950 . S
H326 C302 0.950 . S
H327 C303 0.949 . S
H328 C305 0.950 . S
H329 C307 0.950 . S
C330 C331 1.349 . S
C330 C332 1.327 . S
C330 H355 0.950 . S
C331 C330 1.349 . S
C331 C347 1.349 . S
C332 C330 1.327 . S
C332 C351 1.429 . S
C332 H356 0.950 . S
C333 C350 1.574 . S
C333 C352 1.368 . S
C333 H357 0.949 . S
H334 C338 0.949 . S
C335 C336 1.349 . S
C335 C337 1.327 . S
C335 H358 0.950 . S
C336 C335 1.349 . S
C336 C348 1.349 . S
C337 C335 1.327 . S
C337 C353 1.429 . S
C337 H359 0.950 . S
C338 H334 0.949 . S
C338 C346 1.574 . S
C338 C354 1.368 . S
H339 C347 0.950 . S
H340 C345 0.950 . S
H341 C346 0.949 . S
H342 C348 0.950 . S
H343 C349 0.950 . S
H344 C350 0.949 . S
C345 H340 0.950 . S
C345 C347 1.327 . S
C345 C351 1.429 . S
C346 C338 1.574 . S
C346 H341 0.949 . S
C346 C352 1.368 . S
C347 C331 1.349 . S
C347 H339 0.950 . S
C347 C345 1.327 . S
C348 C336 1.349 . S
C348 H342 0.950 . S
C348 C349 1.327 . S
C349 H343 0.950 . S
C349 C348 1.327 . S
C349 C353 1.429 . S
C350 C333 1.574 . S
C350 H344 0.949 . S
C350 C354 1.368 . S
C351 C332 1.429 . S
C351 C345 1.429 . S
C351 C352 1.523 . S
C352 C333 1.368 . S
C352 C346 1.368 . S
C352 C351 1.523 . S
C353 C337 1.429 . S
C353 C349 1.429 . S
C353 C354 1.523 . S
C354 C338 1.368 . S
C354 C350 1.368 . S
C354 C353 1.523 . S
H355 C330 0.950 . S
H356 C332 0.950 . S
H357 C333 0.949 . S
H358 C335 0.950 . S
H359 C337 0.950 . S
C360 C361 1.349 . S
C360 C362 1.327 . S
C360 H385 0.950 . S
C361 C360 1.349 . S
C361 C377 1.349 . S
C362 C360 1.327 . S
C362 C381 1.429 . S
C362 H386 0.950 . S
C363 C380 1.574 . S
C363 C382 1.368 . S
C363 H387 0.949 . S
H364 C368 0.949 . S
C365 C366 1.349 . S
C365 C367 1.327 . S
C365 H388 0.950 . S
C366 C365 1.349 . S
C366 C378 1.349 . S
C367 C365 1.327 . S
C367 C383 1.429 . S
C367 H389 0.950 . S
C368 H364 0.949 . S
C368 C376 1.574 . S
C368 C384 1.368 . S
H369 C377 0.950 . S
H370 C375 0.950 . S
H371 C376 0.949 . S
H372 C378 0.950 . S
H373 C379 0.950 . S
H374 C380 0.949 . S
C375 H370 0.950 . S
C375 C377 1.327 . S
C375 C381 1.429 . S
C376 C368 1.574 . S
C376 H371 0.949 . S
C376 C382 1.368 . S
C377 C361 1.349 . S
C377 H369 0.950 . S
C377 C375 1.327 . S
C378 C366 1.349 . S
C378 H372 0.950 . S
C378 C379 1.327 . S
C379 H373 0.950 . S
C379 C378 1.327 . S
C379 C383 1.429 . S
C380 C363 1.574 . S
C380 H374 0.949 . S
C380 C384 1.368 . S
C381 C362 1.429 . S
C381 C375 1.429 . S
C381 C382 1.523 . S
C382 C363 1.368 . S
C382 C376 1.368 . S
C382 C381 1.523 . S
C383 C367 1.429 . S
C383 C379 1.429 . S
C383 C384 1.523 . S
C384 C368 1.368 . S
C384 C380 1.368 . S
C384 C383 1.523 . S
H385 C360 0.950 . S
H386 C362 0.950 . S
H387 C363 0.949 . S
H388 C365 0.950 . S
H389 C367 0.950 . S
C390 C391 1.349 . S
C390 C392 1.327 . S
C390 H415 0.950 . S
C391 C390 1.349 . S
C391 C407 1.349 . S
C392 C390 1.327 . S
C392 C411 1.429 . S
C392 H416 0.950 . S
C393 C410 1.574 . S
C393 C412 1.368 . S
C393 H417 0.949 . S
H394 C398 0.949 . S
C395 C396 1.349 . S
C395 C397 1.327 . S
C395 H418 0.950 . S
C396 C395 1.349 . S
C396 C408 1.349 . S
C397 C395 1.327 . S
C397 C413 1.429 . S
C397 H419 0.950 . S
C398 H394 0.949 . S
C398 C406 1.574 . S
C398 C414 1.368 . S
H399 C407 0.950 . S
H400 C405 0.950 . S
H401 C406 0.949 . S
H402 C408 0.950 . S
H403 C409 0.950 . S
H404 C410 0.949 . S
C405 H400 0.950 . S
C405 C407 1.327 . S
C405 C411 1.429 . S
C406 C398 1.574 . S
C406 H401 0.949 . S
C406 C412 1.368 . S
C407 C391 1.349 . S
C407 H399 0.950 . S
C407 C405 1.327 . S
C408 C396 1.349 . S
C408 H402 0.950 . S
C408 C409 1.327 . S
C409 H403 0.950 . S
C409 C408 1.327 . S
C409 C413 1.429 . S
C410 C393 1.574 . S
C410 H404 0.949 . S
C410 C414 1.368 . S
C411 C392 1.429 . S
C411 C405 1.429 . S
C411 C412 1.523 . S
C412 C393 1.368 . S
C412 C406 1.368 . S
C412 C411 1.523 . S
C413 C397 1.429 . S
C413 C409 1.429 . S
C413 C414 1.523 . S
C414 C398 1.368 . S
C414 C410 1.368 . S
C414 C413 1.523 . S
H415 C390 0.950 . S
H416 C392 0.950 . S
H417 C393 0.949 . S
H418 C395 0.950 . S
H419 C397 0.950 . S
C420 C421 1.349 . S
C420 C422 1.327 . S
C420 H445 0.950 . S
C421 C420 1.349 . S
C421 C437 1.349 . S
C422 C420 1.327 . S
C422 C441 1.429 . S
C422 H446 0.950 . S
C423 C440 1.574 . S
C423 C442 1.368 . S
C423 H447 0.949 . S
H424 C428 0.949 . S
C425 C426 1.349 . S
C425 C427 1.327 . S
C425 H448 0.950 . S
C426 C425 1.349 . S
C426 C438 1.349 . S
C427 C425 1.327 . S
C427 C443 1.429 . S
C427 H449 0.950 . S
C428 H424 0.949 . S
C428 C436 1.574 . S
C428 C444 1.368 . S
H429 C437 0.950 . S
H430 C435 0.950 . S
H431 C436 0.949 . S
H432 C438 0.950 . S
H433 C439 0.950 . S
H434 C440 0.949 . S
C435 H430 0.950 . S
C435 C437 1.327 . S
C435 C441 1.429 . S
C436 C428 1.574 . S
C436 H431 0.949 . S
C436 C442 1.368 . S
C437 C421 1.349 . S
C437 H429 0.950 . S
C437 C435 1.327 . S
C438 C426 1.349 . S
C438 H432 0.950 . S
C438 C439 1.327 . S
C439 H433 0.950 . S
C439 C438 1.327 . S
C439 C443 1.429 . S
C440 C423 1.574 . S
C440 H434 0.949 . S
C440 C444 1.368 . S
C441 C422 1.429 . S
C441 C435 1.429 . S
C441 C442 1.523 . S
C442 C423 1.368 . S
C442 C436 1.368 . S
C442 C441 1.523 . S
C443 C427 1.429 . S
C443 C439 1.429 . S
C443 C444 1.523 . S
C444 C428 1.368 . S
C444 C440 1.368 . S
C444 C443 1.523 . S
H445 C420 0.950 . S
H446 C422 0.950 . S
H447 C423 0.949 . S
H448 C425 0.950 . S
H449 C427 0.950 . S
C450 C451 1.349 . S
C450 C452 1.327 . S
C450 H475 0.950 . S
C451 C450 1.349 . S
C451 C467 1.349 . S
C452 C450 1.327 . S
C452 C471 1.429 . S
C452 H476 0.950 . S
C453 C470 1.574 . S
C453 C472 1.368 1_655 S
C453 H477 0.949 . S
H454 C458 0.949 . S
C455 C456 1.349 . S
C455 C457 1.327 . S
C455 H478 0.950 . S
C456 C455 1.349 . S
C456 C468 1.349 . S
C457 C455 1.327 . S
C457 C473 1.429 . S
C457 H479 0.950 . S
C458 H454 0.949 . S
C458 C466 1.574 . S
C458 C474 1.368 1_455 S
H459 C467 0.950 . S
H460 C465 0.950 . S
H461 C466 0.949 . S
H462 C468 0.950 . S
H463 C469 0.950 . S
H464 C470 0.949 . S
C465 H460 0.950 . S
C465 C467 1.327 . S
C465 C471 1.429 . S
C466 C458 1.574 . S
C466 H461 0.949 . S
C466 C472 1.368 . S
C467 C451 1.349 . S
C467 H459 0.950 . S
C467 C465 1.327 . S
C468 C456 1.349 . S
C468 H462 0.950 . S
C468 C469 1.327 . S
C469 H463 0.950 . S
C469 C468 1.327 . S
C469 C473 1.429 . S
C470 C453 1.574 . S
C470 H464 0.949 . S
C470 C474 1.368 . S
C471 C452 1.429 . S
C471 C465 1.429 . S
C471 C472 1.523 . S
C472 C453 1.368 1_455 S
C472 C466 1.368 . S
C472 C471 1.523 . S
C473 C457 1.429 . S
C473 C469 1.429 . S
C473 C474 1.523 . S
C474 C458 1.368 1_655 S
C474 C470 1.368 . S
C474 C473 1.523 . S
H475 C450 0.950 . S
H476 C452 0.950 . S
H477 C453 0.949 . S
H478 C455 0.950 . S
H479 C457 0.950 . S
C480 C481 1.349 . S
C480 C482 1.327 . S
C480 H505 0.950 . S
C481 C480 1.349 . S
C481 C497 1.349 . S
C482 C480 1.327 . S
C482 C501 1.429 . S
C482 H506 0.950 . S
C483 C500 1.574 . S
C483 C502 1.368 . S
C483 H507 0.949 . S
H484 C488 0.949 . S
C485 C486 1.349 . S
C485 C487 1.327 . S
C485 H508 0.950 . S
C486 C485 1.349 . S
C486 C498 1.349 . S
C487 C485 1.327 . S
C487 C503 1.429 . S
C487 H509 0.950 . S
C488 H484 0.949 . S
C488 C496 1.574 . S
C488 C504 1.368 . S
H489 C497 0.950 . S
H490 C495 0.950 . S
H491 C496 0.949 . S
H492 C498 0.950 . S
H493 C499 0.950 . S
H494 C500 0.949 . S
C495 H490 0.950 . S
C495 C497 1.327 . S
C495 C501 1.429 . S
C496 C488 1.574 . S
C496 H491 0.949 . S
C496 C502 1.368 1_565 S
C497 C481 1.349 . S
C497 H489 0.950 . S
C497 C495 1.327 . S
C498 C486 1.349 . S
C498 H492 0.950 . S
C498 C499 1.327 . S
C499 H493 0.950 . S
C499 C498 1.327 . S
C499 C503 1.429 . S
C500 C483 1.574 . S
C500 H494 0.949 . S
C500 C504 1.368 1_545 S
C501 C482 1.429 . S
C501 C495 1.429 . S
C501 C502 1.523 . S
C502 C483 1.368 . S
C502 C496 1.368 1_545 S
C502 C501 1.523 . S
C503 C487 1.429 . S
C503 C499 1.429 . S
C503 C504 1.523 . S
C504 C488 1.368 . S
C504 C500 1.368 1_565 S
C504 C503 1.523 . S
H505 C480 0.950 . S
H506 C482 0.950 . S
H507 C483 0.949 . S
H508 C485 0.950 . S
H509 C487 0.950 . S
C510 C511 1.349 . S
C510 C512 1.327 . S
C510 H535 0.950 . S
C511 C510 1.349 . S
C511 C527 1.349 . S
C512 C510 1.327 . S
C512 C531 1.429 . S
C512 H536 0.950 . S
C513 C530 1.574 . S
C513 C532 1.368 . S
C513 H537 0.949 . S
H514 C518 0.949 . S
C515 C516 1.349 . S
C515 C517 1.327 . S
C515 H538 0.950 . S
C516 C515 1.349 . S
C516 C528 1.349 . S
C517 C515 1.327 . S
C517 C533 1.429 . S
C517 H539 0.950 . S
C518 H514 0.949 . S
C518 C526 1.574 . S
C518 C534 1.368 . S
H519 C527 0.950 . S
H520 C525 0.950 . S
H521 C526 0.949 . S
H522 C528 0.950 . S
H523 C529 0.950 . S
H524 C530 0.949 . S
C525 H520 0.950 . S
C525 C527 1.327 . S
C525 C531 1.429 . S
C526 C518 1.574 . S
C526 H521 0.949 . S
C526 C532 1.368 . S
C527 C511 1.349 . S
C527 H519 0.950 . S
C527 C525 1.327 . S
C528 C516 1.349 . S
C528 H522 0.950 . S
C528 C529 1.327 . S
C529 H523 0.950 . S
C529 C528 1.327 . S
C529 C533 1.429 . S
C530 C513 1.574 . S
C530 H524 0.949 . S
C530 C534 1.368 . S
C531 C512 1.429 . S
C531 C525 1.429 . S
C531 C532 1.523 . S
C532 C513 1.368 . S
C532 C526 1.368 . S
C532 C531 1.523 . S
C533 C517 1.429 . S
C533 C529 1.429 . S
C533 C534 1.523 . S
C534 C518 1.368 . S
C534 C530 1.368 . S
C534 C533 1.523 . S
H535 C510 0.950 . S
H536 C512 0.950 . S
H537 C513 0.949 . S
H538 C515 0.950 . S
H539 C517 0.950 . S
C540 C541 1.349 . S
C540 C542 1.327 . S
C540 H565 0.950 . S
C541 C540 1.349 . S
C541 C557 1.349 . S
C542 C540 1.327 . S
C542 C561 1.429 . S
C542 H566 0.950 . S
C543 C560 1.574 . S
C543 C562 1.368 . S
C543 H567 0.949 . S
H544 C548 0.949 . S
C545 C546 1.349 . S
C545 C547 1.327 . S
C545 H568 0.950 . S
C546 C545 1.349 . S
C546 C558 1.349 . S
C547 C545 1.327 . S
C547 C563 1.429 . S
C547 H569 0.950 . S
C548 H544 0.949 . S
C548 C556 1.574 . S
C548 C564 1.368 . S
H549 C557 0.950 . S
H550 C555 0.950 . S
H551 C556 0.949 . S
H552 C558 0.950 . S
H553 C559 0.950 . S
H554 C560 0.949 . S
C555 H550 0.950 . S
C555 C557 1.327 . S
C555 C561 1.429 . S
C556 C548 1.574 . S
C556 H551 0.949 . S
C556 C562 1.368 1_655 S
C557 C541 1.349 . S
C557 H549 0.950 . S
C557 C555 1.327 . S
C558 C546 1.349 . S
C558 H552 0.950 . S
C558 C559 1.327 . S
C559 H553 0.950 . S
C559 C558 1.327 . S
C559 C563 1.429 . S
C560 C543 1.574 . S
C560 H554 0.949 . S
C560 C564 1.368 1_455 S
C561 C542 1.429 . S
C561 C555 1.429 . S
C561 C562 1.523 . S
C562 C543 1.368 . S
C562 C556 1.368 1_455 S
C562 C561 1.523 . S
C563 C547 1.429 . S
C563 C559 1.429 . S
C563 C564 1.523 . S
C564 C548 1.368 . S
C564 C560 1.368 1_655 S
C564 C563 1.523 . S
H565 C540 0.950 . S
H566 C542 0.950 . S
H567 C543 0.949 . S
H568 C545 0.950 . S
H569 C547 0.950 . S
C570 C571 1.349 . S
C570 C572 1.327 . S
C570 H595 0.950 . S
C571 C570 1.349 . S
C571 C587 1.349 . S
C572 C570 1.327 . S
C572 C591 1.429 . S
C572 H596 0.950 . S
C573 C590 1.574 . S
C573 C592 1.368 . S
C573 H597 0.949 . S
H574 C578 0.949 . S
C575 C576 1.349 . S
C575 C577 1.327 . S
C575 H598 0.950 . S
C576 C575 1.349 . S
C576 C588 1.349 . S
C577 C575 1.327 . S
C577 C593 1.429 . S
C577 H599 0.950 . S
C578 H574 0.949 . S
C578 C586 1.574 . S
C578 C594 1.368 . S
H579 C587 0.950 . S
H580 C585 0.950 . S
H581 C586 0.949 . S
H582 C588 0.950 . S
H583 C589 0.950 . S
H584 C590 0.949 . S
C585 H580 0.950 . S
C585 C587 1.327 . S
C585 C591 1.429 . S
C586 C578 1.574 . S
C586 H581 0.949 . S
C586 C592 1.368 1_545 S
C587 C571 1.349 . S
C587 H579 0.950 . S
C587 C585 1.327 . S
C588 C576 1.349 . S
C588 H582 0.950 . S
C588 C589 1.327 . S
C589 H583 0.950 . S
C589 C588 1.327 . S
C589 C593 1.429 . S
C590 C573 1.574 . S
C590 H584 0.949 . S
C590 C594 1.368 1_565 S
C591 C572 1.429 . S
C591 C585 1.429 . S
C591 C592 1.523 . S
C592 C573 1.368 . S
C592 C586 1.368 1_565 S
C592 C591 1.523 . S
C593 C577 1.429 . S
C593 C589 1.429 . S
C593 C594 1.523 . S
C594 C578 1.368 . S
C594 C590 1.368 1_545 S
C594 C593 1.523 . S
H595 C570 0.950 . S
H596 C572 0.950 . S
H597 C573 0.949 . S
H598 C575 0.950 . S
H599 C577 0.950 . S
C600 C601 1.349 . S
C600 C602 1.327 . S
C600 H625 0.950 . S
C601 C600 1.349 . S
C601 C617 1.349 . S
C602 C600 1.327 . S
C602 C621 1.429 . S
C602 H626 0.950 . S
C603 C620 1.574 . S
C603 C622 1.368 . S
C603 H627 0.949 . S
H604 C608 0.949 . S
C605 C606 1.349 . S
C605 C607 1.327 . S
C605 H628 0.950 . S
C606 C605 1.349 . S
C606 C618 1.349 . S
C607 C605 1.327 . S
C607 C623 1.429 . S
C607 H629 0.950 . S
C608 H604 0.949 . S
C608 C616 1.574 . S
C608 C624 1.368 . S
H609 C617 0.950 . S
H610 C615 0.950 . S
H611 C616 0.949 . S
H612 C618 0.950 . S
H613 C619 0.950 . S
H614 C620 0.949 . S
C615 H610 0.950 . S
C615 C617 1.327 . S
C615 C621 1.429 . S
C616 C608 1.574 . S
C616 H611 0.949 . S
C616 C622 1.368 . S
C617 C601 1.349 . S
C617 H609 0.950 . S
C617 C615 1.327 . S
C618 C606 1.349 . S
C618 H612 0.950 . S
C618 C619 1.327 . S
C619 H613 0.950 . S
C619 C618 1.327 . S
C619 C623 1.429 . S
C620 C603 1.574 . S
C620 H614 0.949 . S
C620 C624 1.368 . S
C621 C602 1.429 . S
C621 C615 1.429 . S
C621 C622 1.523 . S
C622 C603 1.368 . S
C622 C616 1.368 . S
C622 C621 1.523 . S
C623 C607 1.429 . S
C623 C619 1.429 . S
C623 C624 1.523 . S
C624 C608 1.368 . S
C624 C620 1.368 . S
C624 C623 1.523 . S
H625 C600 0.950 . S
H626 C602 0.950 . S
H627 C603 0.949 . S
H628 C605 0.950 . S
H629 C607 0.950 . S
C630 C631 1.349 . S
C630 C632 1.327 . S
C630 H655 0.950 . S
C631 C630 1.349 . S
C631 C647 1.349 1_655 S
C632 C630 1.327 . S
C632 C651 1.429 1_655 S
C632 H656 0.950 . S
C633 C650 1.574 . S
C633 C652 1.368 . S
C633 H657 0.949 . S
H634 C638 0.949 . S
C635 C636 1.349 . S
C635 C637 1.327 . S
C635 H658 0.950 . S
C636 C635 1.349 . S
C636 C648 1.349 . S
C637 C635 1.327 . S
C637 C653 1.429 . S
C637 H659 0.950 . S
C638 H634 0.949 . S
C638 C646 1.574 . S
C638 C654 1.368 . S
H639 C647 0.950 . S
H640 C645 0.950 . S
H641 C646 0.949 1_655 S
H642 C648 0.950 . S
H643 C649 0.950 . S
H644 C650 0.949 . S
C645 H640 0.950 . S
C645 C647 1.327 . S
C645 C651 1.429 . S
C646 C638 1.574 . S
C646 H641 0.949 1_455 S
C646 C652 1.368 . S
C647 C631 1.349 1_455 S
C647 H639 0.950 . S
C647 C645 1.327 . S
C648 C636 1.349 . S
C648 H642 0.950 . S
C648 C649 1.327 . S
C649 H643 0.950 . S
C649 C648 1.327 . S
C649 C653 1.429 . S
C650 C633 1.574 . S
C650 H644 0.949 . S
C650 C654 1.368 . S
C651 C632 1.429 1_455 S
C651 C645 1.429 . S
C651 C652 1.523 . S
C652 C633 1.368 . S
C652 C646 1.368 . S
C652 C651 1.523 . S
C653 C637 1.429 . S
C653 C649 1.429 . S
C653 C654 1.523 . S
C654 C638 1.368 . S
C654 C650 1.368 . S
C654 C653 1.523 . S
H655 C630 0.950 . S
H656 C632 0.950 . S
H657 C633 0.949 . S
H658 C635 0.950 . S
H659 C637 0.950 . S
C660 C661 1.349 . S
C660 C662 1.327 . S
C660 H685 0.950 . S
C661 C660 1.349 . S
C661 C677 1.349 . S
C662 C660 1.327 . S
C662 C681 1.429 1_565 S
C662 H686 0.950 . S
C663 C680 1.574 . S
C663 C682 1.368 . S
C663 H687 0.949 . S
H664 C668 0.949 . S
C665 C666 1.349 . S
C665 C667 1.327 . S
C665 H688 0.950 . S
C666 C665 1.349 . S
C666 C678 1.349 . S
C667 C665 1.327 . S
C667 C683 1.429 . S
C667 H689 0.950 . S
C668 H664 0.949 . S
C668 C676 1.574 . S
C668 C684 1.368 . S
H669 C677 0.950 1_545 S
H670 C675 0.950 . S
H671 C676 0.949 1_565 S
H672 C678 0.950 . S
H673 C679 0.950 . S
H674 C680 0.949 . S
C675 H670 0.950 . S
C675 C677 1.327 1_545 S
C675 C681 1.429 . S
C676 C668 1.574 . S
C676 H671 0.949 1_545 S
C676 C682 1.368 . S
C677 C661 1.349 . S
C677 H669 0.950 1_565 S
C677 C675 1.327 1_565 S
C678 C666 1.349 . S
C678 H672 0.950 . S
C678 C679 1.327 . S
C679 H673 0.950 . S
C679 C678 1.327 . S
C679 C683 1.429 . S
C680 C663 1.574 . S
C680 H674 0.949 . S
C680 C684 1.368 . S
C681 C662 1.429 1_545 S
C681 C675 1.429 . S
C681 C682 1.523 . S
C682 C663 1.368 . S
C682 C676 1.368 . S
C682 C681 1.523 . S
C683 C667 1.429 . S
C683 C679 1.429 . S
C683 C684 1.523 . S
C684 C668 1.368 . S
C684 C680 1.368 . S
C684 C683 1.523 . S
H685 C660 0.950 . S
H686 C662 0.950 . S
H687 C663 0.949 . S
H688 C665 0.950 . S
H689 C667 0.950 . S
C690 C691 1.349 . S
C690 C692 1.327 . S
C690 H715 0.950 . S
C691 C690 1.349 . S
C691 C707 1.349 . S
C692 C690 1.327 . S
C692 C711 1.429 . S
C692 H716 0.950 . S
C693 C710 1.574 . S
C693 C712 1.368 . S
C693 H717 0.949 . S
H694 C698 0.949 . S
C695 C696 1.349 . S
C695 C697 1.327 . S
C695 H718 0.950 . S
C696 C695 1.349 . S
C696 C708 1.349 . S
C697 C695 1.327 . S
C697 C713 1.429 . S
C697 H719 0.950 . S
C698 H694 0.949 . S
C698 C706 1.574 . S
C698 C714 1.368 . S
H699 C707 0.950 . S
H700 C705 0.950 . S
H701 C706 0.949 . S
H702 C708 0.950 . S
H703 C709 0.950 . S
H704 C710 0.949 . S
C705 H700 0.950 . S
C705 C707 1.327 . S
C705 C711 1.429 . S
C706 C698 1.574 . S
C706 H701 0.949 . S
C706 C712 1.368 . S
C707 C691 1.349 . S
C707 H699 0.950 . S
C707 C705 1.327 . S
C708 C696 1.349 . S
C708 H702 0.950 . S
C708 C709 1.327 . S
C709 H703 0.950 . S
C709 C708 1.327 . S
C709 C713 1.429 . S
C710 C693 1.574 . S
C710 H704 0.949 . S
C710 C714 1.368 . S
C711 C692 1.429 . S
C711 C705 1.429 . S
C711 C712 1.523 . S
C712 C693 1.368 . S
C712 C706 1.368 . S
C712 C711 1.523 . S
C713 C697 1.429 . S
C713 C709 1.429 . S
C713 C714 1.523 . S
C714 C698 1.368 . S
C714 C710 1.368 . S
C714 C713 1.523 . S
H715 C690 0.950 . S
H716 C692 0.950 . S
H717 C693 0.949 . S
H718 C695 0.950 . S
H719 C697 0.950 . S
C720 C721 1.349 1_655 S
C720 C722 1.327 . S
C720 H745 0.950 . S
C721 C720 1.349 1_455 S
C721 C737 1.349 . S
C722 C720 1.327 . S
C722 C741 1.429 . S
C722 H746 0.950 . S
C723 C740 1.584 . S
C723 C742 1.384 . S
C723 H747 0.926 1_655 S
H724 C728 0.949 . S
C725 C726 1.349 . S
C725 C727 1.327 . S
C725 H748 0.950 . S
C726 C725 1.349 . S
C726 C738 1.349 . S
C727 C725 1.327 . S
C727 C743 1.429 . S
C727 H749 0.950 . S
C728 H724 0.949 . S
C728 C736 1.574 . S
C728 C744 1.368 . S
H729 C737 0.950 . S
H730 C735 0.950 . S
H731 C736 0.949 . S
H732 C738 0.950 . S
H733 C739 0.950 . S
H734 C740 0.949 . S
C735 H730 0.950 . S
C735 C737 1.327 . S
C735 C741 1.429 1_455 S
C736 C728 1.574 . S
C736 H731 0.949 . S
C736 C742 1.368 . S
C737 C721 1.349 . S
C737 H729 0.950 . S
C737 C735 1.327 . S
C738 C726 1.349 . S
C738 H732 0.950 . S
C738 C739 1.327 . S
C739 H733 0.950 . S
C739 C738 1.327 . S
C739 C743 1.429 . S
C740 C723 1.584 . S
C740 H734 0.949 . S
C740 C744 1.368 . S
C741 C722 1.429 . S
C741 C735 1.429 1_655 S
C741 C742 1.523 . S
C742 C723 1.384 . S
C742 C736 1.368 . S
C742 C741 1.523 . S
C743 C727 1.429 . S
C743 C739 1.429 . S
C743 C744 1.523 . S
C744 C728 1.368 . S
C744 C740 1.368 . S
C744 C743 1.523 . S
H745 C720 0.950 . S
H746 C722 0.950 . S
H747 C723 0.926 1_455 S
H748 C725 0.950 . S
H749 C727 0.950 . S
C750 C751 1.349 . S
C750 C752 1.327 . S
C750 H775 0.950 . S
C751 C750 1.349 . S
C751 C767 1.349 . S
C752 C750 1.327 . S
C752 C771 1.429 1_545 S
C752 H776 0.950 . S
C753 C770 1.574 . S
C753 C772 1.368 . S
C753 H777 0.949 . S
H754 C758 0.949 . S
C755 C756 1.349 . S
C755 C757 1.327 . S
C755 H778 0.950 . S
C756 C755 1.349 . S
C756 C768 1.349 . S
C757 C755 1.327 . S
C757 C773 1.429 . S
C757 H779 0.950 . S
C758 H754 0.949 . S
C758 C766 1.574 . S
C758 C774 1.368 . S
H759 C767 0.950 . S
H760 C765 0.950 . S
H761 C766 0.949 . S
H762 C768 0.950 . S
H763 C769 0.950 . S
H764 C770 0.949 . S
C765 H760 0.950 . S
C765 C767 1.327 1_565 S
C765 C771 1.429 . S
C766 C758 1.574 . S
C766 H761 0.949 . S
C766 C772 1.368 . S
C767 C751 1.349 . S
C767 H759 0.950 . S
C767 C765 1.327 1_545 S
C768 C756 1.349 . S
C768 H762 0.950 . S
C768 C769 1.327 . S
C769 H763 0.950 . S
C769 C768 1.327 . S
C769 C773 1.429 . S
C770 C753 1.574 . S
C770 H764 0.949 . S
C770 C774 1.368 . S
C771 C752 1.429 1_565 S
C771 C765 1.429 . S
C771 C772 1.523 . S
C772 C753 1.368 . S
C772 C766 1.368 . S
C772 C771 1.523 . S
C773 C757 1.429 . S
C773 C769 1.429 . S
C773 C774 1.523 . S
C774 C758 1.368 . S
C774 C770 1.368 . S
C774 C773 1.523 . S
H775 C750 0.950 . S
H776 C752 0.950 . S
H777 C753 0.949 . S
H778 C755 0.950 . S
H779 C757 0.950 . S
C241 C179 1.161 . S
C246 C6 1.164 . S
C271 C219 1.161 . S
C276 C46 1.164 . S
C301 C19 1.142 1_556 S
C306 C86 1.163 . S
C331 C59 1.161 . S
C336 C126 1.164 . S
C361 C99 1.161 . S
C366 C166 1.164 . S
C391 C139 1.142 1_556 S
C396 C206 1.163 . S
C421 C9 0.635 . S
C426 C129 0.635 . S
C451 C169 0.635 . S
C456 C49 0.635 . S
C481 C209 0.635 . S
C486 C89 0.635 . S
C511 C98 0.498 . S
C516 C218 0.498 . S
C541 C18 0.498 . S
C546 C138 0.498 . S
C571 C178 0.497 . S
C576 C58 0.497 . S
C601 C210 1.195 . S
C606 C15 1.182 . S
C631 C55 1.182 . S
C636 C10 1.194 . S
C661 C95 1.182 . S
C666 C50 1.194 . S
C691 C90 1.195 . S
C696 C135 1.182 . S
C721 C175 1.182 . S
C726 C130 1.194 . S
C751 C215 1.182 . S
C756 C170 1.194 . S
