# Generated by pormake.
# Topology uoe, (4)-cn, num edge types: 1
# Building blocks:
#     Node 0, Type 0, BuildingBlock: CEKHIL_clean_sbu_0, # of connection points: 4
#     Node 1, Type 0, BuildingBlock: CEKHIL_clean_sbu_0, # of connection points: 4
#     Node 2, Type 0, BuildingBlock: CEKHIL_clean_sbu_0, # of connection points: 4
#     Node 3, Type 0, BuildingBlock: CEKHIL_clean_sbu_0, # of connection points: 4
#     Node 4, Type 0, BuildingBlock: CEKHIL_clean_sbu_0, # of connection points: 4
#     Node 5, Type 0, BuildingBlock: CEKHIL_clean_sbu_0, # of connection points: 4
#     Node 6, Type 0, BuildingBlock: CEKHIL_clean_sbu_0, # of connection points: 4
#     Node 7, Type 0, BuildingBlock: CEKHIL_clean_sbu_0, # of connection points: 4
#     Node 8, Type 0, BuildingBlock: CEKHIL_clean_sbu_0, # of connection points: 4
#     Node 9, Type 0, BuildingBlock: CEKHIL_clean_sbu_0, # of connection points: 4
#     Node 10, Type 0, BuildingBlock: CEKHIL_clean_sbu_0, # of connection points: 4
#     Node 11, Type 0, BuildingBlock: CEKHIL_clean_sbu_0, # of connection points: 4
#     Node 12, Type 0, BuildingBlock: CEKHIL_clean_sbu_0, # of connection points: 4
#     Node 13, Type 0, BuildingBlock: CEKHIL_clean_sbu_0, # of connection points: 4
#     Node 14, Type 0, BuildingBlock: CEKHIL_clean_sbu_0, # of connection points: 4
#     Node 15, Type 0, BuildingBlock: CEKHIL_clean_sbu_0, # of connection points: 4
#     Node 16, Type 0, BuildingBlock: CEKHIL_clean_sbu_0, # of connection points: 4
#     Node 17, Type 0, BuildingBlock: CEKHIL_clean_sbu_0, # of connection points: 4
#     Node 18, Type 0, BuildingBlock: CEKHIL_clean_sbu_0, # of connection points: 4
#     Node 19, Type 0, BuildingBlock: CEKHIL_clean_sbu_0, # of connection points: 4
#     Node 20, Type 0, BuildingBlock: CEKHIL_clean_sbu_0, # of connection points: 4
#     Node 21, Type 0, BuildingBlock: CEKHIL_clean_sbu_0, # of connection points: 4
#     Node 22, Type 0, BuildingBlock: CEKHIL_clean_sbu_0, # of connection points: 4
#     Node 23, Type 0, BuildingBlock: CEKHIL_clean_sbu_0, # of connection points: 4
#     Node 24, Type 0, BuildingBlock: CEKHIL_clean_sbu_0, # of connection points: 4
#     Node 25, Type 0, BuildingBlock: CEKHIL_clean_sbu_0, # of connection points: 4
#     Node 26, Type 0, BuildingBlock: CEKHIL_clean_sbu_0, # of connection points: 4
#     Node 27, Type 0, BuildingBlock: CEKHIL_clean_sbu_0, # of connection points: 4
#     Node 28, Type 0, BuildingBlock: CEKHIL_clean_sbu_0, # of connection points: 4
#     Node 29, Type 0, BuildingBlock: CEKHIL_clean_sbu_0, # of connection points: 4
#     Node 30, Type 0, BuildingBlock: CEKHIL_clean_sbu_0, # of connection points: 4
#     Node 31, Type 0, BuildingBlock: CEKHIL_clean_sbu_0, # of connection points: 4
#     Edge 32, Type (0, 0), BuildingBlock: AJUNOK_clean_linker_0, # of connection points: 2
#     Edge 33, Type (0, 0), BuildingBlock: AJUNOK_clean_linker_0, # of connection points: 2
#     Edge 34, Type (0, 0), BuildingBlock: AJUNOK_clean_linker_0, # of connection points: 2
#     Edge 35, Type (0, 0), BuildingBlock: AJUNOK_clean_linker_0, # of connection points: 2
#     Edge 36, Type (0, 0), BuildingBlock: AJUNOK_clean_linker_0, # of connection points: 2
#     Edge 37, Type (0, 0), BuildingBlock: AJUNOK_clean_linker_0, # of connection points: 2
#     Edge 38, Type (0, 0), BuildingBlock: AJUNOK_clean_linker_0, # of connection points: 2
#     Edge 39, Type (0, 0), BuildingBlock: AJUNOK_clean_linker_0, # of connection points: 2
#     Edge 40, Type (0, 0), BuildingBlock: AJUNOK_clean_linker_0, # of connection points: 2
#     Edge 41, Type (0, 0), BuildingBlock: AJUNOK_clean_linker_0, # of connection points: 2
#     Edge 42, Type (0, 0), BuildingBlock: AJUNOK_clean_linker_0, # of connection points: 2
#     Edge 43, Type (0, 0), BuildingBlock: AJUNOK_clean_linker_0, # of connection points: 2
#     Edge 44, Type (0, 0), BuildingBlock: AJUNOK_clean_linker_0, # of connection points: 2
#     Edge 45, Type (0, 0), BuildingBlock: AJUNOK_clean_linker_0, # of connection points: 2
#     Edge 46, Type (0, 0), BuildingBlock: AJUNOK_clean_linker_0, # of connection points: 2
#     Edge 47, Type (0, 0), BuildingBlock: AJUNOK_clean_linker_0, # of connection points: 2
#     Edge 48, Type (0, 0), BuildingBlock: AJUNOK_clean_linker_0, # of connection points: 2
#     Edge 49, Type (0, 0), BuildingBlock: AJUNOK_clean_linker_0, # of connection points: 2
#     Edge 50, Type (0, 0), BuildingBlock: AJUNOK_clean_linker_0, # of connection points: 2
#     Edge 51, Type (0, 0), BuildingBlock: AJUNOK_clean_linker_0, # of connection points: 2
#     Edge 52, Type (0, 0), BuildingBlock: AJUNOK_clean_linker_0, # of connection points: 2
#     Edge 53, Type (0, 0), BuildingBlock: AJUNOK_clean_linker_0, # of connection points: 2
#     Edge 54, Type (0, 0), BuildingBlock: AJUNOK_clean_linker_0, # of connection points: 2
#     Edge 55, Type (0, 0), BuildingBlock: AJUNOK_clean_linker_0, # of connection points: 2
#     Edge 56, Type (0, 0), BuildingBlock: AJUNOK_clean_linker_0, # of connection points: 2
#     Edge 57, Type (0, 0), BuildingBlock: AJUNOK_clean_linker_0, # of connection points: 2
#     Edge 58, Type (0, 0), BuildingBlock: AJUNOK_clean_linker_0, # of connection points: 2
#     Edge 59, Type (0, 0), BuildingBlock: AJUNOK_clean_linker_0, # of connection points: 2
#     Edge 60, Type (0, 0), BuildingBlock: AJUNOK_clean_linker_0, # of connection points: 2
#     Edge 61, Type (0, 0), BuildingBlock: AJUNOK_clean_linker_0, # of connection points: 2
#     Edge 62, Type (0, 0), BuildingBlock: AJUNOK_clean_linker_0, # of connection points: 2
#     Edge 63, Type (0, 0), BuildingBlock: AJUNOK_clean_linker_0, # of connection points: 2
#     Edge 64, Type (0, 0), BuildingBlock: AJUNOK_clean_linker_0, # of connection points: 2
#     Edge 65, Type (0, 0), BuildingBlock: AJUNOK_clean_linker_0, # of connection points: 2
#     Edge 66, Type (0, 0), BuildingBlock: AJUNOK_clean_linker_0, # of connection points: 2
#     Edge 67, Type (0, 0), BuildingBlock: AJUNOK_clean_linker_0, # of connection points: 2
#     Edge 68, Type (0, 0), BuildingBlock: AJUNOK_clean_linker_0, # of connection points: 2
#     Edge 69, Type (0, 0), BuildingBlock: AJUNOK_clean_linker_0, # of connection points: 2
#     Edge 70, Type (0, 0), BuildingBlock: AJUNOK_clean_linker_0, # of connection points: 2
#     Edge 71, Type (0, 0), BuildingBlock: AJUNOK_clean_linker_0, # of connection points: 2
#     Edge 72, Type (0, 0), BuildingBlock: AJUNOK_clean_linker_0, # of connection points: 2
#     Edge 73, Type (0, 0), BuildingBlock: AJUNOK_clean_linker_0, # of connection points: 2
#     Edge 74, Type (0, 0), BuildingBlock: AJUNOK_clean_linker_0, # of connection points: 2
#     Edge 75, Type (0, 0), BuildingBlock: AJUNOK_clean_linker_0, # of connection points: 2
#     Edge 76, Type (0, 0), BuildingBlock: AJUNOK_clean_linker_0, # of connection points: 2
#     Edge 77, Type (0, 0), BuildingBlock: AJUNOK_clean_linker_0, # of connection points: 2
#     Edge 78, Type (0, 0), BuildingBlock: AJUNOK_clean_linker_0, # of connection points: 2
#     Edge 79, Type (0, 0), BuildingBlock: AJUNOK_clean_linker_0, # of connection points: 2
#     Edge 80, Type (0, 0), BuildingBlock: AJUNOK_clean_linker_0, # of connection points: 2
#     Edge 81, Type (0, 0), BuildingBlock: AJUNOK_clean_linker_0, # of connection points: 2
#     Edge 82, Type (0, 0), BuildingBlock: AJUNOK_clean_linker_0, # of connection points: 2
#     Edge 83, Type (0, 0), BuildingBlock: AJUNOK_clean_linker_0, # of connection points: 2
#     Edge 84, Type (0, 0), BuildingBlock: AJUNOK_clean_linker_0, # of connection points: 2
#     Edge 85, Type (0, 0), BuildingBlock: AJUNOK_clean_linker_0, # of connection points: 2
#     Edge 86, Type (0, 0), BuildingBlock: AJUNOK_clean_linker_0, # of connection points: 2
#     Edge 87, Type (0, 0), BuildingBlock: AJUNOK_clean_linker_0, # of connection points: 2
#     Edge 88, Type (0, 0), BuildingBlock: AJUNOK_clean_linker_0, # of connection points: 2
#     Edge 89, Type (0, 0), BuildingBlock: AJUNOK_clean_linker_0, # of connection points: 2
#     Edge 90, Type (0, 0), BuildingBlock: AJUNOK_clean_linker_0, # of connection points: 2
#     Edge 91, Type (0, 0), BuildingBlock: AJUNOK_clean_linker_0, # of connection points: 2
#     Edge 92, Type (0, 0), BuildingBlock: AJUNOK_clean_linker_0, # of connection points: 2
#     Edge 93, Type (0, 0), BuildingBlock: AJUNOK_clean_linker_0, # of connection points: 2
#     Edge 94, Type (0, 0), BuildingBlock: AJUNOK_clean_linker_0, # of connection points: 2
#     Edge 95, Type (0, 0), BuildingBlock: AJUNOK_clean_linker_0, # of connection points: 2
# Relax obj value: 0.174
# Max RMSD: 0.204
# Mean RMSD: 0.204
data_MOF--net-uoe--node1-CEKHIL_clean_sbu_0--edge1-AJUNOK_clean_linker_0
_symmetry_space_group_name_H-M    P1
_symmetry_Int_Tables_number       1
_symmetry_cell_setting            triclinic
loop_
_symmetry_equiv_pos_as_xyz
'x, y, z'
_cell_length_a     54.795558
_cell_length_b     54.8094
_cell_length_c     19.452634
_cell_angle_alpha  89.980953
_cell_angle_beta   89.916943
_cell_angle_gamma 90.069492
loop_
_atom_site_label
_atom_site_type_symbol
_atom_site_fract_x
_atom_site_fract_y
_atom_site_fract_z
_atom_type_partial_charge
Co0 Co 0.11677 0.47986 0.02055 0.0
O1 O 0.14668 0.46133 0.02348 0.0
O2 O 0.11181 0.44875 0.06777 0.0
C3 C 0.11869 0.49291 0.91056 0.0
O4 O 0.08226 0.49432 0.02707 0.0
Co5 Co 0.12039 0.53621 0.00056 0.0
O6 O 0.08416 0.53425 0.00017 0.0
C7 C 0.1367 0.51408 0.12879 0.0
C8 C 0.13517 0.44518 0.06019 0.0
C9 C 0.07198 0.51523 0.01621 0.0
O10 O 0.1257 0.49451 0.11067 0.0
O11 O 0.13867 0.53275 0.08963 0.0
O12 O 0.11075 0.47101 0.92435 0.0
O13 O 0.12787 0.5045 0.962 0.0
Co14 Co 0.80375 0.8624 0.2726 0.0
O15 O 0.81962 0.89363 0.27911 0.0
O16 O 0.83587 0.85915 0.31548 0.0
C17 C 0.78853 0.86593 0.16511 0.0
O18 O 0.79195 0.82678 0.27423 0.0
Co19 Co 0.74717 0.8621 0.26174 0.0
O20 O 0.75141 0.82622 0.25492 0.0
C21 C 0.77066 0.87846 0.38724 0.0
C22 C 0.83692 0.88291 0.3131 0.0
C23 C 0.77158 0.81521 0.2653 0.0
O24 O 0.79008 0.86793 0.36608 0.0
O25 O 0.75164 0.88062 0.34979 0.0
O26 O 0.81121 0.85942 0.17404 0.0
O27 O 0.77744 0.87286 0.22004 0.0
Co28 Co 0.41225 0.54904 0.53233 0.0
O29 O 0.38209 0.56707 0.53673 0.0
O30 O 0.41676 0.57988 0.58145 0.0
C31 C 0.41021 0.53696 0.42179 0.0
O32 O 0.44696 0.5347 0.53722 0.0
Co33 Co 0.40888 0.49276 0.50777 0.0
O34 O 0.44505 0.49511 0.50638 0.0
C35 C 0.39329 0.51336 0.63867 0.0
C36 C 0.39334 0.58313 0.57416 0.0
C37 C 0.45724 0.51392 0.5241 0.0
O38 O 0.40354 0.53345 0.62143 0.0
O39 O 0.39155 0.49496 0.59851 0.0
O40 O 0.41804 0.55882 0.43656 0.0
O41 O 0.40127 0.5249 0.47271 0.0
Co42 Co 0.7253 0.16744 0.772 0.0
O43 O 0.7096 0.13607 0.77624 0.0
O44 O 0.6931 0.1701 0.81505 0.0
C45 C 0.74062 0.16506 0.66419 0.0
O46 O 0.73685 0.20311 0.7761 0.0
Co47 Co 0.78186 0.16795 0.76192 0.0
O48 O 0.77746 0.20387 0.7573 0.0
C49 C 0.75826 0.15038 0.88583 0.0
C50 C 0.69218 0.14636 0.81091 0.0
C51 C 0.75724 0.21474 0.76801 0.0
O52 O 0.73889 0.16112 0.86524 0.0
O53 O 0.77733 0.14853 0.84835 0.0
O54 O 0.71788 0.17123 0.67365 0.0
O55 O 0.75177 0.15766 0.71853 0.0
Co56 Co 0.11457 0.55268 0.52991 0.0
O57 O 0.14289 0.57409 0.52708 0.0
O58 O 0.10675 0.58322 0.48414 0.0
C59 C 0.11757 0.53876 0.63956 0.0
O60 O 0.08094 0.5363 0.52364 0.0
Co61 Co 0.12015 0.49686 0.54546 0.0
O62 O 0.08389 0.49624 0.54614 0.0
C63 C 0.13623 0.52003 0.41956 0.0
C64 C 0.12953 0.58924 0.49202 0.0
C65 C 0.07117 0.51507 0.53269 0.0
O66 O 0.12446 0.53915 0.43832 0.0
O67 O 0.13911 0.50156 0.45869 0.0
O68 O 0.10824 0.56022 0.62737 0.0
O69 O 0.12736 0.52828 0.58702 0.0
Co70 Co 0.72895 0.86393 0.78684 0.0
O71 O 0.71285 0.89506 0.78342 0.0
O72 O 0.69752 0.86134 0.73941 0.0
C73 C 0.74187 0.8656 0.89658 0.0
O74 O 0.74105 0.82848 0.78142 0.0
Co75 Co 0.78551 0.8637 0.80811 0.0
O76 O 0.7809 0.82775 0.81024 0.0
C77 C 0.76489 0.88073 0.67852 0.0
C78 C 0.69592 0.88494 0.74657 0.0
C79 C 0.76118 0.81688 0.79345 0.0
O80 O 0.74442 0.87149 0.69673 0.0
O81 O 0.78357 0.88147 0.71789 0.0
O82 O 0.7195 0.85901 0.88328 0.0
O83 O 0.75416 0.87349 0.84475 0.0
Co84 Co 0.41488 0.47617 0.04395 0.0
O85 O 0.38402 0.45948 0.0391 0.0
O86 O 0.41861 0.44423 0.00012 0.0
C87 C 0.41191 0.49114 0.15194 0.0
O88 O 0.4501 0.48916 0.04045 0.0
Co89 Co 0.41249 0.5327 0.05425 0.0
O90 O 0.44856 0.52978 0.05794 0.0
C91 C 0.39699 0.50858 0.92956 0.0
C92 C 0.3949 0.44256 0.00392 0.0
C93 C 0.4606 0.51019 0.04799 0.0
O94 O 0.4084 0.48971 0.95081 0.0
O95 O 0.39391 0.52749 0.96689 0.0
O96 O 0.41881 0.46864 0.14221 0.0
O97 O 0.40404 0.50207 0.09777 0.0
Co98 Co 0.79973 0.16381 0.2847 0.0
O99 O 0.81679 0.13309 0.28101 0.0
O100 O 0.83102 0.16744 0.23735 0.0
C101 C 0.78691 0.1621 0.39469 0.0
O102 O 0.78681 0.19894 0.27897 0.0
Co103 Co 0.74329 0.16319 0.30693 0.0
O104 O 0.74709 0.19925 0.3093 0.0
C105 C 0.76394 0.14655 0.17671 0.0
C106 C 0.8335 0.14394 0.24476 0.0
C107 C 0.7666 0.21032 0.29147 0.0
O108 O 0.78441 0.15577 0.19487 0.0
O109 O 0.74526 0.14575 0.21621 0.0
O110 O 0.80909 0.16919 0.38072 0.0
O111 O 0.77477 0.15368 0.34326 0.0
Co112 Co 0.91825 0.55418 0.04053 0.0
O113 O 0.88699 0.56991 0.0317 0.0
O114 O 0.92156 0.58544 -0.00704 0.0
C115 C 0.91475 0.54142 0.15015 0.0
O116 O 0.9539 0.54258 0.04008 0.0
Co117 Co 0.91903 0.49772 0.06372 0.0
O118 O 0.95495 0.5026 0.06704 0.0
C119 C 0.90312 0.51788 0.93257 0.0
C120 C 0.89785 0.58686 -0.00359 0.0
C121 C 0.9657 0.52258 0.05196 0.0
O122 O 0.91255 0.53832 0.95014 0.0
O123 O 0.90146 0.49965 0.9734 0.0
O124 O 0.92127 0.56387 0.13746 0.0
O125 O 0.90797 0.52899 0.0975 0.0
Co126 Co 0.2251 0.16715 0.79157 0.0
O127 O 0.20943 0.13581 0.78447 0.0
O128 O 0.19286 0.17029 0.74919 0.0
C129 C 0.24035 0.16323 0.89904 0.0
O130 O 0.23672 0.20287 0.79037 0.0
Co131 Co 0.28173 0.1679 0.80347 0.0
O132 O 0.27721 0.20371 0.81065 0.0
C133 C 0.25844 0.15156 0.6774 0.0
C134 C 0.19184 0.14653 0.75162 0.0
C135 C 0.25701 0.21458 0.79965 0.0
O136 O 0.23884 0.16187 0.69811 0.0
O137 O 0.27735 0.14947 0.71531 0.0
O138 O 0.21768 0.16978 0.89033 0.0
O139 O 0.25147 0.15666 0.84385 0.0
Co140 Co 0.61072 0.47288 0.54784 0.0
O141 O 0.64197 0.45717 0.5403 0.0
O142 O 0.60786 0.4418 0.49867 0.0
C143 C 0.61371 0.48524 0.65795 0.0
O144 O 0.57512 0.4848 0.5463 0.0
Co145 Co 0.61049 0.52931 0.57206 0.0
O146 O 0.57451 0.52474 0.57425 0.0
C147 C 0.62703 0.50931 0.44132 0.0
C148 C 0.63158 0.44055 0.50295 0.0
C149 C 0.56354 0.50496 0.55845 0.0
O150 O 0.6171 0.48901 0.45807 0.0
O151 O 0.62869 0.52741 0.48253 0.0
O152 O 0.60711 0.46287 0.64455 0.0
O153 O 0.62078 0.49778 0.60577 0.0
Co154 Co 0.30106 0.86725 0.30068 0.0
O155 O 0.31787 0.89801 0.29263 0.0
O156 O 0.33325 0.86278 0.25893 0.0
C157 C 0.28541 0.87142 0.4077 0.0
O158 O 0.28839 0.83196 0.30082 0.0
Co159 Co 0.24444 0.86904 0.30897 0.0
O160 O 0.24787 0.83319 0.32048 0.0
C161 C 0.26878 0.88241 0.18201 0.0
C162 C 0.33503 0.8865 0.25995 0.0
C163 C 0.26762 0.82131 0.31143 0.0
O164 O 0.288 0.87241 0.20635 0.0
O165 O 0.24938 0.88537 0.21757 0.0
O166 O 0.30803 0.86457 0.39942 0.0
O167 O 0.27476 0.87867 0.35239 0.0
Co168 Co 0.9164 0.47763 0.52365 0.0
O169 O 0.88469 0.46274 0.53103 0.0
O170 O 0.91885 0.44505 0.56432 0.0
C171 C 0.91265 0.49354 0.41705 0.0
O172 O 0.95242 0.48825 0.52361 0.0
Co173 Co 0.91816 0.53432 0.51442 0.0
O174 O 0.95373 0.52874 0.50363 0.0
C175 C 0.90237 0.51068 0.64063 0.0
C176 C 0.89506 0.44461 0.56235 0.0
C177 C 0.96437 0.50833 0.51337 0.0
O178 O 0.91189 0.49095 0.618 0.0
O179 O 0.90062 0.53002 0.60418 0.0
O180 O 0.91854 0.47064 0.42474 0.0
O181 O 0.90639 0.50452 0.47274 0.0
Co182 Co 0.30054 0.16529 0.27642 0.0
O183 O 0.31682 0.13421 0.28224 0.0
O184 O 0.33201 0.16858 0.32289 0.0
C185 C 0.28744 0.1627 0.16706 0.0
O186 O 0.28837 0.20075 0.27956 0.0
Co187 Co 0.24395 0.16536 0.25575 0.0
O188 O 0.24839 0.20133 0.2521 0.0
C189 C 0.26483 0.14929 0.38597 0.0
C190 C 0.33385 0.14495 0.3174 0.0
C191 C 0.26819 0.21228 0.26772 0.0
O192 O 0.28522 0.15855 0.36714 0.0
O193 O 0.24614 0.14813 0.34674 0.0
O194 O 0.30983 0.16939 0.17965 0.0
O195 O 0.27523 0.15517 0.21949 0.0
Co196 Co 0.61464 0.54852 0.03159 0.0
O197 O 0.6459 0.56445 0.03711 0.0
O198 O 0.6113 0.58106 0.07171 0.0
C199 C 0.61798 0.53264 0.925 0.0
O200 O 0.57902 0.53683 0.03383 0.0
Co201 Co 0.61414 0.49185 0.02328 0.0
O202 O 0.57831 0.49626 0.01513 0.0
C203 C 0.62943 0.5159 0.14937 0.0
C204 C 0.63504 0.58232 0.06839 0.0
C205 C 0.56737 0.5165 0.02513 0.0
O206 O 0.62005 0.53556 0.12593 0.0
O207 O 0.63125 0.49642 0.11354 0.0
O208 O 0.61159 0.55538 0.93306 0.0
O209 O 0.62506 0.5218 0.98021 0.0
Co210 Co 0.22639 0.86323 0.78657 0.0
O211 O 0.2058 0.8919 0.7942 0.0
O212 O 0.19676 0.85569 0.83727 0.0
C213 C 0.23772 0.86712 0.67538 0.0
O214 O 0.24221 0.82929 0.78893 0.0
Co215 Co 0.28226 0.86759 0.75734 0.0
O216 O 0.28154 0.83134 0.7566 0.0
C217 C 0.26264 0.88258 0.89042 0.0
C218 C 0.19117 0.87865 0.83148 0.0
C219 C 0.26289 0.81907 0.77512 0.0
O220 O 0.24226 0.87243 0.87521 0.0
O221 O 0.28062 0.8843 0.84875 0.0
O222 O 0.21645 0.85779 0.69046 0.0
O223 O 0.24969 0.87596 0.72642 0.0
Co224 Co 0.61333 0.97836 0.52959 0.0
O225 O 0.64485 0.96302 0.53267 0.0
O226 O 0.611 0.94575 0.57037 0.0
C227 C 0.61566 0.99441 0.42287 0.0
O228 O 0.57757 0.98957 0.53409 0.0
Co229 Co 0.61259 0.03499 0.52313 0.0
O230 O 0.57676 0.03018 0.51549 0.0
C231 C 0.6294 1.01061 0.64679 0.0
C232 C 0.63475 0.94513 0.56586 0.0
C233 C 0.5659 1.00989 0.52567 0.0
O234 O 0.61933 0.99123 0.62376 0.0
O235 O 0.63102 0.03019 0.61129 0.0
O236 O 0.60964 0.97157 0.43113 0.0
O237 O 0.623 1.00529 0.47777 0.0
Co238 Co 0.29998 0.36608 0.77372 0.0
O239 O 0.31787 0.39627 0.77693 0.0
O240 O 0.33095 0.36197 0.82275 0.0
C241 C 0.28772 0.36796 0.66329 0.0
O242 O 0.28581 0.33133 0.7796 0.0
Co243 Co 0.24362 0.36912 0.75012 0.0
O244 O 0.24611 0.33297 0.74979 0.0
C245 C 0.26441 0.38509 0.88034 0.0
C246 C 0.33397 0.38542 0.81494 0.0
C247 C 0.26502 0.32093 0.7672 0.0
O248 O 0.28449 0.37486 0.86295 0.0
O249 O 0.24596 0.3867 0.84042 0.0
O250 O 0.30962 0.36024 0.67776 0.0
O251 O 0.27569 0.37679 0.71435 0.0
Co252 Co 0.91657 0.0495 0.0337 0.0
O253 O 0.8852 0.06522 0.03792 0.0
O254 O 0.91948 0.08211 0.07383 0.0
C255 C 0.91376 0.03345 0.92689 0.0
O256 O 0.95226 0.03793 0.03727 0.0
Co257 Co 0.91636 0.99281 0.02664 0.0
O258 O 0.95218 0.99733 0.01802 0.0
C259 C 0.90024 0.01733 0.15086 0.0
C260 C 0.89575 0.08316 0.0697 0.0
C261 C 0.96347 0.01741 0.0277 0.0
O262 O 0.9106 0.03663 0.12802 0.0
O263 O 0.89817 0.99788 0.11505 0.0
O264 O 0.92011 0.05621 0.93496 0.0
O265 O 0.90641 0.02274 0.98207 0.0
Co266 Co 0.22448 0.66984 0.28206 0.0
O267 O 0.20473 0.64037 0.28603 0.0
O268 O 0.19396 0.67593 0.32995 0.0
C269 C 0.2378 0.66755 0.17151 0.0
O270 O 0.23899 0.70427 0.28851 0.0
Co271 Co 0.28063 0.66731 0.26212 0.0
O272 O 0.27962 0.70341 0.27291 0.0
C273 C 0.25911 0.64965 0.38877 0.0
C274 C 0.18926 0.65283 0.32272 0.0
C275 C 0.25992 0.71503 0.28455 0.0
O276 O 0.23931 0.66068 0.37242 0.0
O277 O 0.27714 0.64744 0.34763 0.0
O278 O 0.21593 0.67569 0.18471 0.0
O279 O 0.24917 0.65854 0.22349 0.0
Co280 Co 0.61427 0.05245 0.04287 0.0
O281 O 0.64456 0.07009 0.0383 0.0
O282 O 0.61029 0.08304 -0.00812 0.0
C283 C 0.61615 0.04079 0.15389 0.0
O284 O 0.57952 0.03821 0.03796 0.0
Co285 Co 0.61762 0.99625 0.06935 0.0
O286 O 0.58143 0.99856 0.06841 0.0
C287 C 0.63337 0.01637 0.93811 0.0
C288 C 0.6338 0.08583 -0.0011 0.0
C289 C 0.56926 0.01734 0.05044 0.0
O290 O 0.62288 0.0364 0.95444 0.0
O291 O 0.6356 0.99841 0.97962 0.0
O292 O 0.60849 0.06265 0.13857 0.0
O293 O 0.62497 0.02857 0.10328 0.0
Co294 Co 0.22692 0.36454 0.28565 0.0
O295 O 0.21032 0.39539 0.27808 0.0
O296 O 0.19493 0.36033 0.24272 0.0
C297 C 0.24182 0.36841 0.3935 0.0
O298 O 0.23969 0.32923 0.28487 0.0
Co299 Co 0.28345 0.36642 0.29658 0.0
O300 O 0.2802 0.33048 0.30506 0.0
C301 C 0.25947 0.38183 0.17124 0.0
C302 C 0.19318 0.38404 0.24496 0.0
C303 C 0.26048 0.3186 0.29515 0.0
O304 O 0.24058 0.37029 0.19222 0.0
O305 O 0.27834 0.3849 0.2088 0.0
O306 O 0.2193 0.36145 0.38409 0.0
O307 O 0.25285 0.37578 0.33881 0.0
Co308 Co 0.91644 0.97423 0.54798 0.0
O309 O 0.88531 0.9581 0.54217 0.0
O310 O 0.9193 0.94333 0.4982 0.0
C311 C 0.91434 0.98641 0.65861 0.0
O312 O 0.9519 0.98637 0.54411 0.0
Co313 Co 0.91663 0.03059 0.57304 0.0
O314 O 0.95262 0.02609 0.57435 0.0
C315 C 0.89976 1.01092 0.44233 0.0
C316 C 0.89564 0.94167 0.50397 0.0
C317 C 0.96348 1.00646 0.55678 0.0
O318 O 0.90929 0.99044 0.45889 0.0
O319 O 0.89848 0.02905 0.48354 0.0
O320 O 0.92094 0.96412 0.6443 0.0
O321 O 0.90668 0.99895 0.60715 0.0
Co322 Co 0.3006 0.66496 0.79574 0.0
O323 O 0.31618 0.63349 0.78902 0.0
O324 O 0.33273 0.66791 0.75272 0.0
C325 C 0.28576 0.66235 0.90384 0.0
O326 O 0.28943 0.70068 0.79375 0.0
Co327 Co 0.24394 0.66586 0.80873 0.0
O328 O 0.24905 0.70173 0.81549 0.0
C329 C 0.26671 0.65034 0.68052 0.0
C330 C 0.33383 0.64419 0.75608 0.0
C331 C 0.26931 0.7125 0.80371 0.0
O332 O 0.28663 0.6595 0.70287 0.0
O333 O 0.24741 0.64885 0.71744 0.0
O334 O 0.30851 0.66828 0.89329 0.0
O335 O 0.27421 0.65501 0.85 0.0
Co336 Co 0.41333 0.04982 0.53608 0.0
O337 O 0.38248 0.06646 0.53039 0.0
O338 O 0.41739 0.08216 0.49482 0.0
C339 C 0.4098 0.03431 0.64313 0.0
O340 O 0.44862 0.03705 0.53424 0.0
Co341 Co 0.41136 0.99319 0.54453 0.0
O342 O 0.44726 0.99656 0.55453 0.0
C343 C 0.39702 0.01769 0.41869 0.0
C344 C 0.39368 0.08392 0.49817 0.0
C345 C 0.45921 0.01625 0.54472 0.0
O346 O 0.4075 0.03681 0.44201 0.0
O347 O 0.39425 0.99831 0.45453 0.0
O348 O 0.4167 0.05688 0.63443 0.0
O349 O 0.40219 0.02357 0.5883 0.0
Co350 Co 0.73002 0.66313 0.28507 0.0
O351 O 0.7126 0.63265 0.28138 0.0
O352 O 0.69878 0.66709 0.23763 0.0
C353 C 0.74264 0.66101 0.39484 0.0
O354 O 0.74372 0.69806 0.28004 0.0
Co355 Co 0.7865 0.6605 0.30657 0.0
O356 O 0.78362 0.69662 0.30782 0.0
C357 C 0.76522 0.6448 0.17673 0.0
C358 C 0.69607 0.6436 0.24504 0.0
C359 C 0.76452 0.70857 0.29155 0.0
O360 O 0.74524 0.65499 0.19505 0.0
O361 O 0.78381 0.64305 0.21611 0.0
O362 O 0.72059 0.66846 0.38121 0.0
O363 O 0.75465 0.65248 0.34332 0.0
Co364 Co 0.11407 0.97288 0.05259 0.0
O365 O 0.14273 0.95212 0.04646 0.0
O366 O 0.10696 0.94364 -0.00014 0.0
C367 C 0.11683 0.98309 0.16495 0.0
O368 O 0.08025 0.98871 0.04775 0.0
Co369 Co 0.11723 0.02819 0.0858 0.0
O370 O 0.08095 0.02743 0.08522 0.0
C371 C 0.13137 1.01077 0.94877 0.0
C372 C 0.12975 0.93776 0.00782 0.0
C373 C 0.06939 1.00891 0.06263 0.0
O374 O 0.12409 0.98928 0.96499 0.0
O375 O 0.13131 0.02883 -0.00958 0.0
O376 O 0.10713 0.9623 0.14731 0.0
O377 O 0.12642 0.99563 0.11581 0.0
Co378 Co 0.79835 0.36687 0.78181 0.0
O379 O 0.81566 0.39739 0.77675 0.0
O380 O 0.83048 0.36236 0.7397 0.0
C381 C 0.78318 0.37026 0.88941 0.0
O382 O 0.78503 0.33178 0.77921 0.0
Co383 Co 0.74178 0.36923 0.79247 0.0
O384 O 0.7447 0.33328 0.80176 0.0
C385 C 0.7658 0.38375 0.66574 0.0
C386 C 0.83283 0.38599 0.74387 0.0
C387 C 0.76422 0.32127 0.79046 0.0
O388 O 0.78513 0.37341 0.68821 0.0
O389 O 0.74655 0.3863 0.70226 0.0
O390 O 0.80559 0.36296 0.87998 0.0
O391 O 0.77243 0.3782 0.835 0.0
Co392 Co 0.41604 0.97552 0.02193 0.0
O393 O 0.38482 0.95963 0.02841 0.0
O394 O 0.41867 0.94459 0.07198 0.0
C395 C 0.41363 0.98761 0.91139 0.0
O396 O 0.45159 0.98766 0.02476 0.0
Co397 Co 0.41616 0.0319 -0.00324 0.0
O398 O 0.45216 0.02755 -0.00378 0.0
C399 C 0.39907 1.01201 0.12713 0.0
C400 C 0.39499 0.9431 0.06647 0.0
C401 C 0.46314 1.00787 0.01276 0.0
O402 O 0.40914 0.99176 0.11102 0.0
O403 O 0.39755 0.03007 0.0857 0.0
O404 O 0.42023 0.96532 0.92556 0.0
O405 O 0.40623 1.00022 0.96302 0.0
Co406 Co 0.80324 0.66495 0.77219 0.0
O407 O 0.82027 0.63435 0.77837 0.0
O408 O 0.83517 0.66939 0.81535 0.0
C409 C 0.78855 0.66112 0.66423 0.0
O410 O 0.79005 0.7001 0.77409 0.0
Co411 Co 0.74675 0.66273 0.75991 0.0
O412 O 0.74969 0.69869 0.75191 0.0
C413 C 0.77048 0.64711 0.88561 0.0
C414 C 0.83728 0.64572 0.81191 0.0
C415 C 0.76926 0.71065 0.76316 0.0
O416 O 0.78954 0.65854 0.86529 0.0
O417 O 0.75172 0.64417 0.84754 0.0
O418 O 0.81091 0.66853 0.67392 0.0
O419 O 0.77755 0.65353 0.71869 0.0
Co420 Co 0.11483 0.04928 0.53386 0.0
O421 O 0.14513 0.067 0.53731 0.0
O422 O 0.10997 0.08173 0.57366 0.0
C423 C 0.11847 0.03317 0.42745 0.0
O424 O 0.07997 0.03566 0.53794 0.0
Co425 Co 0.11762 0.99271 0.52704 0.0
O426 O 0.08167 0.9954 0.51496 0.0
C427 C 0.12979 0.01757 0.65524 0.0
C428 C 0.1336 0.08424 0.56948 0.0
C429 C 0.06957 0.01487 0.52635 0.0
O430 O 0.12135 0.03721 0.62888 0.0
O431 O 0.1321 0.99775 0.62112 0.0
O432 O 0.11049 0.05539 0.43506 0.0
O433 O 0.12676 0.023 0.48238 0.0
Co434 Co 0.72417 0.36222 0.26795 0.0
O435 O 0.70759 0.393 0.27553 0.0
O436 O 0.69321 0.35849 0.31753 0.0
C437 C 0.73635 0.36551 0.15764 0.0
O438 O 0.73713 0.32698 0.26924 0.0
Co439 Co 0.78061 0.36413 0.24355 0.0
O440 O 0.777 0.32807 0.24009 0.0
C441 C 0.76001 0.37989 0.37421 0.0
C442 C 0.6913 0.38217 0.31317 0.0
C443 C 0.75766 0.31628 0.2556 0.0
O444 O 0.74017 0.36906 0.35759 0.0
O445 O 0.77806 0.38228 0.33297 0.0
O446 O 0.71418 0.35831 0.17137 0.0
O447 O 0.7487 0.37301 0.20962 0.0
C448 C 1.00557 0.49986 0.0578 0.0
C449 C 0.99291 0.52182 0.04465 0.0
C450 C 0.03089 0.49788 0.04806 0.0
C451 C 0.04491 0.51774 0.02474 0.0
H452 H 0.99587 0.48381 0.07548 0.0
H453 H 0.03948 0.48053 0.05912 0.0
S454 S 0.02091 0.57957 0.983 0.0
N455 N 0.9966 0.56399 0.00728 0.0
N456 N 0.04401 0.56041 0.98895 0.0
C457 C 0.03254 0.53993 0.0117 0.0
C458 C 1.00668 0.54193 0.0217 0.0
C459 C 0.7481 0.77563 0.26459 0.0
C460 C 0.77072 0.78794 0.27003 0.0
C461 C 0.74626 0.75019 0.27155 0.0
C462 C 0.76692 0.7357 0.28438 0.0
H463 H 0.73144 0.78572 0.25537 0.0
H464 H 0.72838 0.74188 0.26716 0.0
S465 S 0.83074 0.75859 0.30084 0.0
N466 N 0.81437 0.78337 0.2875 0.0
N467 N 0.81111 0.73575 0.30047 0.0
C468 C 0.78976 0.74772 0.28919 0.0
C469 C 0.79161 0.77369 0.28203 0.0
C470 C 0.49865 0.53067 0.55567 0.0
C471 C 0.48433 0.5111 0.53197 0.0
C472 C 0.52396 0.52827 0.56499 0.0
C473 C 0.53633 0.50618 0.55106 0.0
H474 H 0.4903 0.54808 0.56739 0.0
H475 H 0.53389 0.54411 0.58307 0.0
S476 S 0.50751 0.44909 0.48804 0.0
N477 N 0.48468 0.46855 0.49485 0.0
N478 N 0.53203 0.46424 0.51245 0.0
C479 C 0.52226 0.48639 0.52762 0.0
C480 C 0.49643 0.4888 0.51802 0.0
C481 C 0.77899 0.25473 0.75086 0.0
C482 C 0.75804 0.24194 0.77333 0.0
C483 C 0.78103 0.28015 0.75764 0.0
C484 C 0.76221 0.29408 0.78718 0.0
H485 H 0.79408 0.24504 0.72743 0.0
H486 H 0.79742 0.28895 0.73868 0.0
S487 S 0.70391 0.26952 0.85769 0.0
N488 N 0.71836 0.24525 0.82844 0.0
N489 N 0.72207 0.29287 0.84152 0.0
C490 C 0.7412 0.28152 0.81056 0.0
C491 C 0.73913 0.25558 0.80346 0.0
C492 C 0.02964 0.53268 0.50969 0.0
C493 C 0.04405 0.51234 0.52668 0.0
C494 C 1.00419 0.53091 0.5043 0.0
C495 C 0.99169 0.50871 0.51575 0.0
H496 H 0.03802 0.5503 0.50066 0.0
H497 H 0.99427 0.54738 0.49158 0.0
S498 S 0.02073 0.44959 0.56005 0.0
N499 N 0.04378 0.46887 0.55366 0.0
N500 N 0.99598 0.46569 0.54368 0.0
C501 C 1.00584 0.48807 0.5319 0.0
C502 C 0.03191 0.48985 0.53736 0.0
C503 C 0.78535 0.75156 0.80088 0.0
C504 C 0.76723 0.73782 0.76747 0.0
C505 C 0.78297 0.77688 0.8097 0.0
C506 C 0.76237 0.78975 0.78542 0.0
H507 H 0.80138 0.74266 0.82158 0.0
H508 H 0.79749 0.7864 0.83625 0.0
S509 S 0.71026 0.76265 0.69042 0.0
N510 N 0.72827 0.73928 0.7072 0.0
N511 N 0.72389 0.7867 0.724 0.0
C512 C 0.74422 0.7763 0.75112 0.0
C513 C 0.74664 0.75046 0.74201 0.0
C514 C 0.52759 0.49344 0.02124 0.0
C515 C 0.5401 0.51581 0.02965 0.0
C516 C 0.50212 0.49173 0.02775 0.0
C517 C 0.48781 0.51232 0.04296 0.0
H518 H 0.53753 0.47686 0.00976 0.0
H519 H 0.49363 0.47406 0.02058 0.0
S520 S 0.51135 0.57546 0.06966 0.0
N521 N 0.53597 0.55912 0.05374 0.0
N522 N 0.48831 0.55611 0.06611 0.0
C523 C 0.50006 0.53491 0.05133 0.0
C524 C 0.52605 0.5366 0.0446 0.0
C525 C 0.74234 0.27565 0.29869 0.0
C526 C 0.75976 0.28914 0.26148 0.0
C527 C 0.74495 0.25039 0.3088 0.0
C528 C 0.76511 0.23737 0.2822 0.0
H529 H 0.72671 0.2847 0.32131 0.0
H530 H 0.731 0.24102 0.33821 0.0
S531 S 0.81519 0.26372 0.17691 0.0
N532 N 0.79748 0.28719 0.195 0.0
N533 N 0.80231 0.23996 0.2144 0.0
C534 C 0.78253 0.25057 0.24414 0.0
C535 C 0.77985 0.2763 0.23361 0.0
C536 C 0.28189 0.27977 0.80021 0.0
C537 C 0.26236 0.29385 0.77532 0.0
C538 C 0.27969 0.25443 0.80925 0.0
C539 C 0.25785 0.24181 0.79386 0.0
H540 H 0.29912 0.28833 0.81296 0.0
H541 H 0.29548 0.24467 0.82818 0.0
S542 S 0.20097 0.26994 0.72749 0.0
N543 N 0.2201 0.29301 0.73569 0.0
N544 N 0.21618 0.24559 0.75278 0.0
C545 C 0.23806 0.25565 0.76954 0.0
C546 C 0.24027 0.28151 0.76018 0.0
C547 C 0.28491 0.78013 0.28063 0.0
C548 C 0.26591 0.79409 0.3093 0.0
C549 C 0.28279 0.75471 0.27311 0.0
C550 C 0.26157 0.74204 0.29382 0.0
H551 H 0.3014 0.78893 0.26237 0.0
H552 H 0.29788 0.74499 0.24979 0.0
S553 S 0.20727 0.7696 0.37754 0.0
N554 N 0.22562 0.7929 0.36264 0.0
N555 N 0.22171 0.74537 0.34803 0.0
C556 C 0.24265 0.75567 0.3241 0.0
C557 C 0.24482 0.78155 0.33202 0.0
C558 C 0.24654 0.25229 0.25006 0.0
C559 C 0.26706 0.23943 0.27491 0.0
C560 C 0.24423 0.27765 0.25829 0.0
C561 C 0.26234 0.29142 0.29167 0.0
H562 H 0.23204 0.24273 0.2235 0.0
H563 H 0.22828 0.28656 0.23711 0.0
S564 S 0.31902 0.26662 0.37039 0.0
N565 N 0.3054 0.24252 0.33702 0.0
N566 N 0.30114 0.28999 0.35274 0.0
C567 C 0.28282 0.27877 0.31776 0.0
C568 C 0.28518 0.25292 0.30925 0.0
C569 C 0.24691 0.75247 0.81139 0.0
C570 C 0.26886 0.73976 0.79847 0.0
C571 C 0.2452 0.77786 0.80363 0.0
C572 C 0.26535 0.79196 0.78253 0.0
H573 H 0.23064 0.74273 0.82732 0.0
H574 H 0.22781 0.78645 0.81419 0.0
S575 S 0.32737 0.76794 0.74322 0.0
N576 N 0.3114 0.74351 0.7643 0.0
N577 N 0.30833 0.79113 0.74977 0.0
C578 C 0.28756 0.77957 0.77003 0.0
C579 C 0.28928 0.75361 0.77804 0.0
C580 C 0.50044 0.03334 0.5134 0.0
C581 C 0.48643 0.01444 0.54237 0.0
C582 C 0.52591 0.03143 0.50738 0.0
C583 C 0.53867 1.01054 0.53008 0.0
H584 H 0.49167 0.04969 0.49428 0.0
H585 H 0.53566 0.04658 0.48437 0.0
S586 S 0.51084 0.95623 0.61315 0.0
N587 N 0.48751 0.97428 0.59642 0.0
N588 N 0.53521 0.97082 0.58474 0.0
C589 C 0.52494 0.99154 0.55962 0.0
C590 C 0.49896 0.99348 0.56595 0.0
C591 C 1.00398 0.03331 0.07031 0.0
C592 C 0.99067 0.01619 0.03162 0.0
C593 C 0.02931 0.03081 0.08012 0.0
C594 C 0.04246 1.01109 0.05158 0.0
H595 H 0.99468 0.04842 0.09486 0.0
H596 H 0.03858 0.04432 0.11127 0.0
S597 S 0.01653 0.96246 0.94035 0.0
N598 N 0.99292 0.97967 0.96064 0.0
N599 N 0.04018 0.97498 0.97918 0.0
C600 C 0.02942 0.99421 0.01122 0.0
C601 C 1.00369 0.99678 0.00117 0.0
C602 C 0.52776 0.03423 0.0209 0.0
C603 C 0.54222 0.01437 0.04161 0.0
C604 C 0.50249 0.03175 0.01093 0.0
C605 C 0.4903 1.00927 0.02114 0.0
H606 H 0.53597 0.05195 0.01218 0.0
H607 H 0.49245 0.04783 -0.00464 0.0
S608 S 0.51959 0.95125 0.07453 0.0
N609 N 0.54223 0.97108 0.07136 0.0
N610 N 0.49494 0.96663 0.05259 0.0
C611 C 0.50451 0.98918 0.04147 0.0
C612 C 0.53031 0.99168 0.05173 0.0
C613 C 0.02893 0.02997 0.56845 0.0
C614 C 0.04245 1.01282 0.53054 0.0
C615 C 1.00362 0.02746 0.57733 0.0
C616 C 0.99058 1.00771 0.5486 0.0
H617 H 0.03801 0.04527 0.59272 0.0
H618 H 0.99425 0.04116 0.60751 0.0
S619 S 0.01705 0.95876 0.43981 0.0
N620 N 0.04062 0.976 0.46067 0.0
N621 N 0.99316 0.97134 0.47744 0.0
C622 C 1.00381 0.99062 0.50955 0.0
C623 C 0.02964 0.99318 0.50043 0.0
C624 C 0.11648 0.52973 0.83388 0.0
C625 C 0.11709 0.50415 0.84133 0.0
C626 C 0.11587 0.54077 0.76857 0.0
C627 C 0.11657 0.52667 0.7082 0.0
H628 H 0.11644 0.54137 0.87882 0.0
H629 H 0.11554 0.5605 0.76541 0.0
S630 S 0.11769 0.45883 0.70022 0.0
N631 N 0.11747 0.46505 0.78315 0.0
N632 N 0.11735 0.48552 0.66106 0.0
C633 C 0.117 0.50104 0.71532 0.0
C634 C 0.11698 0.48985 0.78168 0.0
C635 C 0.77825 0.86064 0.97251 0.0
C636 C 0.75293 0.86419 0.96568 0.0
C637 C 0.78953 0.86072 0.03721 0.0
C638 C 0.77599 0.86492 0.09747 0.0
H639 H 0.78953 0.8578 0.9275 0.0
H640 H 0.80907 0.85793 0.03977 0.0
S641 S 0.70901 0.87574 0.1067 0.0
N642 N 0.71458 0.8718 0.02407 0.0
N643 N 0.73564 0.87296 0.14543 0.0
C644 C 0.75056 0.8685 0.09111 0.0
C645 C 0.73906 0.86784 0.0253 0.0
C646 C 0.41328 0.48933 0.28034 0.0
C647 C 0.41284 0.5034 0.21998 0.0
C648 C 0.41263 0.50038 0.34534 0.0
C649 C 0.41212 0.52595 0.35257 0.0
H650 H 0.41348 0.46959 0.27745 0.0
H651 H 0.41248 0.48872 0.3902 0.0
S652 S 0.41212 0.57121 0.21117 0.0
N653 N 0.41246 0.54448 0.17212 0.0
N654 N 0.41208 0.56506 0.29422 0.0
C655 C 0.41249 0.54027 0.29291 0.0
C656 C 0.4126 0.52904 0.22665 0.0
C657 C 0.73888 0.16465 0.53568 0.0
C658 C 0.75286 0.16587 0.59606 0.0
C659 C 0.75007 0.1636 0.47082 0.0
C660 C 0.77567 0.16428 0.46371 0.0
H661 H 0.71915 0.16381 0.53853 0.0
H662 H 0.7385 0.16215 0.42599 0.0
S663 S 0.82059 0.16905 0.60524 0.0
N664 N 0.7938 0.16856 0.64405 0.0
N665 N 0.81463 0.16729 0.52228 0.0
C666 C 0.78984 0.16633 0.52338 0.0
C667 C 0.77848 0.16692 0.5895 0.0
C668 C 0.91907 0.50479 0.22532 0.0
C669 C 0.91562 0.53016 0.21911 0.0
C670 C 0.91849 0.49321 0.28953 0.0
C671 C 0.91395 0.50645 0.35 0.0
H672 H 0.92223 0.4937 0.18022 0.0
H673 H 0.92125 0.47365 0.29152 0.0
S674 S 0.9033 0.5734 0.36106 0.0
N675 N 0.90775 0.56824 0.27841 0.0
N676 N 0.90572 0.54658 0.39902 0.0
C677 C 0.91049 0.53192 0.34439 0.0
C678 C 0.9116 0.54375 0.27899 0.0
C679 C 0.23951 0.168 0.02714 0.0
C680 C 0.25294 0.16385 0.96665 0.0
C681 C 0.25088 0.16781 0.09173 0.0
C682 C 0.27619 0.16403 0.09819 0.0
H683 H 0.22 0.17102 0.02482 0.0
H684 H 0.2397 0.17069 0.1369 0.0
S685 S 0.31979 0.15224 0.95655 0.0
N686 N 0.29314 0.15538 0.91818 0.0
N687 N 0.31437 0.1561 0.03929 0.0
C688 C 0.28993 0.16032 0.03838 0.0
C689 C 0.27833 0.15993 0.97271 0.0
C690 C 0.61042 0.53296 0.79837 0.0
C691 C 0.61608 0.51973 0.85811 0.0
C692 C 0.60921 0.52148 0.73415 0.0
C693 C 0.6131 0.49622 0.72724 0.0
H694 H 0.60731 0.55246 0.80086 0.0
H695 H 0.60526 0.53257 0.68954 0.0
S696 S 0.62823 0.45302 0.86711 0.0
N697 N 0.62575 0.47972 0.90572 0.0
N698 N 0.62255 0.45821 0.78508 0.0
C699 C 0.61817 0.4826 0.78644 0.0
C700 C 0.61994 0.49435 0.85184 0.0
C701 C 0.27409 0.86295 0.59896 0.0
C702 C 0.24876 0.86647 0.60591 0.0
C703 C 0.28563 0.86418 0.53468 0.0
C704 C 0.27241 0.8696 0.47477 0.0
H705 H 0.28523 0.85925 0.64355 0.0
H706 H 0.30516 0.86128 0.53229 0.0
S707 S 0.20554 0.88097 0.46577 0.0
N708 N 0.21071 0.8754 0.54788 0.0
N709 N 0.2323 0.87879 0.42716 0.0
C710 C 0.24696 0.87318 0.48109 0.0
C711 C 0.23516 0.87131 0.54657 0.0
C712 C 0.61273 1.00433 0.23012 0.0
C713 C 0.61427 0.02987 0.22321 0.0
C714 C 0.61252 0.99314 0.29487 0.0
C715 C 0.61441 1.00699 0.35537 0.0
H716 H 0.61177 0.99278 0.18514 0.0
H717 H 0.61148 0.97342 0.29732 0.0
S718 S 0.6185 0.07465 0.36517 0.0
N719 N 0.61699 0.06877 0.28206 0.0
N720 N 0.61742 0.04787 0.40392 0.0
C721 C 0.61569 0.03263 0.34917 0.0
C722 C 0.61537 0.04403 0.28307 0.0
C723 C 0.24025 0.36455 0.52168 0.0
C724 C 0.25418 0.36733 0.46144 0.0
C725 C 0.25132 0.36449 0.58668 0.0
C726 C 0.2768 0.36657 0.59394 0.0
H727 H 0.22057 0.36294 0.51883 0.0
H728 H 0.23975 0.3628 0.63156 0.0
S729 S 0.32176 0.37359 0.45308 0.0
N730 N 0.2951 0.37215 0.41393 0.0
N731 N 0.31573 0.371 0.53589 0.0
C732 C 0.29103 0.36868 0.53438 0.0
C733 C 0.27976 0.36936 0.46821 0.0
C734 C 0.91845 0.03423 0.79906 0.0
C735 C 0.91514 0.02065 0.85964 0.0
C736 C 0.91859 0.02287 0.73452 0.0
C737 C 0.91596 0.99742 0.72791 0.0
H738 H 0.92039 0.05389 0.80123 0.0
H739 H 0.92067 0.03425 0.68944 0.0
S740 S 0.90773 0.95326 0.87018 0.0
N741 N 0.90953 0.98006 0.90852 0.0
N742 N 0.91065 0.95884 0.78719 0.0
C743 C 0.91342 0.98349 0.78791 0.0
C744 C 0.91275 0.99508 0.85374 0.0
C745 C 0.24832 0.65997 0.97902 0.0
C746 C 0.27345 0.66512 0.97161 0.0
C747 C 0.23652 0.66187 0.04323 0.0
C748 C 0.2495 0.66861 0.10251 0.0
H749 H 0.23768 0.65414 0.9351 0.0
H750 H 0.21736 0.65715 0.0469 0.0
S751 S 0.31491 0.68648 0.10959 0.0
N752 N 0.31031 0.67917 0.02842 0.0
N753 N 0.28843 0.68225 0.14815 0.0
C754 C 0.27439 0.67452 0.09513 0.0
C755 C 0.28629 0.67291 0.02996 0.0
C756 C 0.41805 0.0237 0.83445 0.0
C757 C 0.41447 0.9984 0.84183 0.0
C758 C 0.41694 0.03501 0.76993 0.0
C759 C 0.41168 0.02154 0.71029 0.0
H760 H 0.42164 0.03498 0.87895 0.0
H761 H 0.41977 0.05455 0.76712 0.0
S762 S 0.40078 0.95459 0.7023 0.0
N763 N 0.40596 0.96008 0.78443 0.0
N764 N 0.40295 0.98124 0.66322 0.0
C765 C 0.40822 0.99611 0.717 0.0
C766 C 0.40989 0.98456 0.78272 0.0
C767 C 0.77896 0.66559 0.47122 0.0
C768 C 0.75361 0.66231 0.46398 0.0
C769 C 0.79002 0.66571 0.53622 0.0
C770 C 0.77623 0.66191 0.59628 0.0
H771 H 0.79039 0.66813 0.42637 0.0
H772 H 0.80959 0.66832 0.5392 0.0
S773 S 0.70908 0.65187 0.60421 0.0
N774 N 0.71497 0.65539 0.5216 0.0
N775 N 0.73563 0.65448 0.64347 0.0
C776 C 0.75079 0.65853 0.5894 0.0
C777 C 0.73951 0.65905 0.52333 0.0
C778 C 0.13802 1.00768 0.33654 0.0
C779 C 0.11719 0.0197 0.36166 0.0
C780 C 0.1375 0.99504 0.27371 0.0
C781 C 0.11587 0.99313 0.23535 0.0
H782 H 0.15505 1.00867 0.36466 0.0
H783 H 0.15422 0.987 0.25446 0.0
S784 S 0.05579 0.01939 0.28196 0.0
N785 N 0.07407 0.02802 0.34497 0.0
N786 N 0.07281 1.00321 0.22862 0.0
C787 C 0.09466 1.00419 0.26131 0.0
C788 C 0.09538 0.01773 0.32416 0.0
C789 C 0.7725 0.36119 0.08063 0.0
C790 C 0.74726 0.36511 0.08819 0.0
C791 C 0.78383 0.36248 0.01608 0.0
C792 C 0.77047 0.36833 0.95673 0.0
H793 H 0.78369 0.35714 0.12497 0.0
H794 H 0.80331 0.3593 0.01302 0.0
S795 S 0.70375 0.38074 0.9497 0.0
N796 N 0.70913 0.37481 0.03147 0.0
N797 N 0.73036 0.37831 0.91041 0.0
C798 C 0.74512 0.3723 0.96377 0.0
C799 C 0.73352 0.37037 0.02941 0.0
C800 C 0.14374 0.53968 0.30629 0.0
C801 C 0.14372 0.51841 0.3468 0.0
C802 C 0.14386 0.53844 0.23462 0.0
C803 C 0.14418 0.51578 0.20126 0.0
H804 H 0.14207 0.55734 0.33006 0.0
H805 H 0.14171 0.5552 0.20568 0.0
S806 S 0.15197 0.45512 0.2834 0.0
N807 N 0.14951 0.47436 0.34826 0.0
N808 N 0.15026 0.47198 0.21328 0.0
C809 C 0.1477 0.49459 0.24101 0.0
C810 C 0.14742 0.49589 0.31403 0.0
C811 C 0.78986 0.88385 0.5724 0.0
C812 C 0.76746 0.88742 0.60573 0.0
C813 C 0.79103 0.88294 0.5008 0.0
C814 C 0.76984 0.88556 0.46034 0.0
H815 H 0.80618 0.87972 0.60149 0.0
H816 H 0.80845 0.87855 0.4775 0.0
S817 S 0.70823 0.90237 0.52363 0.0
N818 N 0.72479 0.89885 0.59372 0.0
N819 N 0.72692 0.89707 0.45878 0.0
C820 C 0.748 0.89231 0.49301 0.0
C821 C 0.74684 0.89323 0.56596 0.0
C822 C 0.39177 0.48862 0.74488 0.0
C823 C 0.38681 0.51067 0.71138 0.0
C824 C 0.39335 0.48778 0.81635 0.0
C825 C 0.38977 0.50891 0.85658 0.0
H826 H 0.39657 0.47246 0.71582 0.0
H827 H 0.39889 0.47072 0.83965 0.0
S828 S 0.3701 0.56952 0.79283 0.0
N829 N 0.37383 0.55287 0.7229 0.0
N830 N 0.37648 0.55128 0.85782 0.0
C831 C 0.38185 0.5303 0.82382 0.0
C832 C 0.38044 0.53117 0.75093 0.0
C833 C 0.73896 0.1437 0.07073 0.0
C834 C 0.76137 0.14004 0.10381 0.0
C835 C 0.73781 0.14501 -0.00083 0.0
C836 C 0.75904 0.14273 0.95852 0.0
H837 H 0.72262 0.14763 0.10008 0.0
H838 H 0.72039 0.14946 0.97611 0.0
S839 S 0.82071 0.12582 0.02083 0.0
N840 N 0.80409 0.12883 0.09113 0.0
N841 N 0.80201 0.13141 0.9563 0.0
C842 C 0.78088 0.13586 -0.00919 0.0
C843 C 0.78202 0.13451 0.0637 0.0
C844 C 0.89457 0.53453 0.74703 0.0
C845 C 0.89632 0.51178 0.71434 0.0
C846 C 0.89466 0.53614 0.81851 0.0
C847 C 0.89653 0.51508 0.8597 0.0
H848 H 0.89484 0.55131 0.71761 0.0
H849 H 0.89477 0.55417 0.8414 0.0
S850 S 0.89487 0.45096 0.79891 0.0
N851 N 0.89494 0.46758 0.72818 0.0
N852 N 0.89532 0.47069 0.86298 0.0
C853 C 0.89526 0.49215 0.82785 0.0
C854 C 0.89516 0.49049 0.7549 0.0
C855 C 0.23845 0.14642 0.56357 0.0
C856 C 0.25965 0.14458 0.60433 0.0
C857 C 0.23982 0.14562 0.49199 0.0
C858 C 0.26241 0.1429 0.459 0.0
H859 H 0.22083 0.15006 0.5867 0.0
H860 H 0.2234 0.14907 0.46263 0.0
S861 S 0.32209 0.1305 0.5421 0.0
N862 N 0.30303 0.13495 0.60658 0.0
N863 N 0.30553 0.13329 0.47178 0.0
C864 C 0.28318 0.13795 0.49912 0.0
C865 C 0.28182 0.13879 0.57201 0.0
C866 C 0.63739 0.49249 0.25659 0.0
C867 C 0.6352 0.51511 0.22335 0.0
C868 C 0.63687 0.49102 0.32812 0.0
C869 C 0.63418 0.5121 0.36882 0.0
H870 H 0.63777 0.47565 0.22748 0.0
H871 H 0.63706 0.47305 0.3514 0.0
S872 S 0.63418 0.5761 0.30705 0.0
N873 N 0.63506 0.55937 0.23662 0.0
N874 N 0.63402 0.55648 0.3714 0.0
C875 C 0.63501 0.53498 0.33663 0.0
C876 C 0.63548 0.53651 0.26366 0.0
C877 C 0.28739 0.88038 -0.00435 0.0
C878 C 0.26646 0.88896 0.96247 0.0
C879 C 0.28855 0.87987 0.06715 0.0
C880 C 0.26879 0.88795 0.10775 0.0
H881 H 0.30215 0.87223 0.96649 0.0
H882 H 0.30454 0.8717 0.09031 0.0
S883 S 0.21353 0.91957 0.04341 0.0
N884 N 0.22803 0.91065 0.97329 0.0
N885 N 0.23028 0.91016 0.10876 0.0
C886 C 0.24906 0.89937 0.07473 0.0
C887 C 0.24785 0.89971 0.00166 0.0
C888 C 0.64144 0.0331 0.75285 0.0
C889 C 0.63664 1.01082 0.71988 0.0
C890 C 0.64291 0.03435 0.82436 0.0
C891 C 0.63974 1.01337 0.86521 0.0
H892 H 0.64237 0.04996 0.7239 0.0
H893 H 0.64486 0.05217 0.84796 0.0
S894 S 0.63288 0.9498 0.80333 0.0
N895 N 0.63312 0.96665 0.73308 0.0
N896 N 0.63622 0.96916 0.86754 0.0
C897 C 0.63803 0.99062 0.83274 0.0
C898 C 0.6363 0.98932 0.75992 0.0
C899 C 0.23871 0.38612 0.05823 0.0
C900 C 0.25995 0.38915 0.0983 0.0
C901 C 0.23964 0.38744 0.98666 0.0
C902 C 0.26184 0.39177 0.953 0.0
H903 H 0.2215 0.3811 0.08175 0.0
H904 H 0.22336 0.38294 0.95774 0.0
S905 S 0.32099 0.40763 0.03412 0.0
N906 N 0.30262 0.40164 0.09924 0.0
N907 N 0.3043 0.40408 0.96427 0.0
C908 C 0.28245 0.39786 -0.00757 0.0
C909 C 0.28153 0.39658 0.06536 0.0
C910 C 0.88979 0.9929 0.329 0.0
C911 C 0.89288 1.01391 0.36976 0.0
C912 C 0.89013 0.99432 0.25745 0.0
C913 C 0.89358 0.01681 0.22431 0.0
H914 H 0.88872 0.97497 0.35239 0.0
H915 H 0.88946 0.97747 0.22842 0.0
S916 S 0.89576 0.07782 0.30769 0.0
N917 N 0.89454 0.05827 0.37214 0.0
N918 N 0.89506 0.06106 0.2373 0.0
C919 C 0.89356 0.03825 0.26443 0.0
C920 C 0.89317 0.03678 0.33741 0.0
C921 C 0.24324 0.6399 0.5745 0.0
C922 C 0.26579 0.64395 0.60677 0.0
C923 C 0.24156 0.63929 0.50284 0.0
C924 C 0.26227 0.6428 0.46131 0.0
H925 H 0.22659 0.6387 0.60437 0.0
H926 H 0.22376 0.63734 0.47964 0.0
S927 S 0.3264 0.64759 0.52056 0.0
N928 N 0.30996 0.64661 0.59158 0.0
N929 N 0.30656 0.64564 0.45714 0.0
C930 C 0.28526 0.64376 0.49279 0.0
C931 C 0.28705 0.64438 0.56563 0.0
C932 C 0.3882 0.99369 0.23951 0.0
C933 C 0.39169 0.01481 0.19935 0.0
C934 C 0.38786 0.99492 0.3111 0.0
C935 C 0.39103 0.01733 0.34483 0.0
H936 H 0.38732 0.97583 0.21569 0.0
H937 H 0.38689 0.97801 0.33982 0.0
S938 S 0.39444 0.07852 0.26258 0.0
N939 N 0.39366 0.05913 0.19776 0.0
N940 N 0.39297 0.0616 0.3326 0.0
C941 C 0.39153 0.03886 0.30504 0.0
C942 C 0.3918 0.03758 0.23206 0.0
C943 C 0.78987 0.64074 0.07023 0.0
C944 C 0.76739 0.63807 0.1039 0.0
C945 C 0.79095 0.64159 -0.00142 0.0
C946 C 0.76958 0.63984 0.95851 0.0
H947 H 0.80641 0.6442 0.09911 0.0
H948 H 0.80848 0.64525 0.97485 0.0
S949 S 0.70732 0.62597 0.02273 0.0
N950 N 0.72419 0.62861 0.09253 0.0
N951 N 0.72614 0.63038 0.95762 0.0
C952 C 0.74752 0.63406 -0.00849 0.0
C953 C 0.74645 0.63317 0.06444 0.0
C954 C 0.12387 0.03435 0.84283 0.0
C955 C 0.13628 0.01532 0.87579 0.0
C956 C 0.12296 0.03554 0.77119 0.0
C957 C 0.13444 0.01772 0.73005 0.0
H958 H 0.11337 0.0474 0.87242 0.0
H959 H 0.112 0.04981 0.74822 0.0
S960 S 0.17478 0.96829 0.79275 0.0
N961 N 0.16395 0.98104 0.86345 0.0
N962 N 0.16245 0.98333 0.72795 0.0
C963 C 0.14884 0.99997 0.76266 0.0
C964 C 0.14969 0.99875 0.83582 0.0
C965 C 0.74229 0.39048 0.55828 0.0
C966 C 0.76491 0.38955 0.59186 0.0
C967 C 0.74103 0.38943 0.48678 0.0
C968 C 0.76233 0.38746 0.44648 0.0
H969 H 0.72538 0.39013 0.5872 0.0
H970 H 0.72313 0.3886 0.46331 0.0
S971 S 0.8261 0.39104 0.50927 0.0
N972 N 0.80914 0.39161 0.57942 0.0
N973 N 0.8067 0.38943 0.44458 0.0
C974 C 0.78508 0.38961 0.47895 0.0
C975 C 0.78637 0.39066 0.55191 0.0
C976 C 0.17445 0.43066 0.11098 0.0
C977 C 0.14918 0.42705 0.10221 0.0
C978 C 0.18803 0.41677 0.15777 0.0
C979 C 0.17728 0.39802 0.19689 0.0
H980 H 0.18383 0.44509 0.08348 0.0
H981 H 0.20731 0.42076 0.1631 0.0
S982 S 0.11222 0.37964 0.19089 0.0
N983 N 0.11403 0.40262 0.136 0.0
N984 N 0.14007 0.37559 0.22142 0.0
C985 C 0.15231 0.39331 0.18684 0.0
C986 C 0.13816 0.40804 0.14029 0.0
C987 C 0.89067 0.90517 0.42394 0.0
C988 C 0.88054 0.92536 0.45897 0.0
C989 C 0.8767 0.89117 0.377 0.0
C990 C 0.85239 0.89743 0.3614 0.0
H991 H 0.90953 0.90019 0.43272 0.0
H992 H 0.88511 0.87568 0.35184 0.0
S993 S 0.81688 0.94797 0.44018 0.0
N994 N 0.84409 0.95004 0.47579 0.0
N995 N 0.81858 0.92462 0.38703 0.0
C996 C 0.8421 0.91744 0.39638 0.0
C997 C 0.85595 0.93114 0.44516 0.0
C998 C 0.35415 0.59561 0.62954 0.0
C999 C 0.37897 0.60072 0.61696 0.0
C1000 C 0.34036 0.60932 0.67631 0.0
C1001 C 0.35027 0.6296 0.71076 0.0
H1002 H 0.34537 0.58017 0.6051 0.0
H1003 H 0.32146 0.60421 0.68441 0.0
S1004 S 0.41383 0.65206 0.69354 0.0
N1005 N 0.41285 0.6279 0.64271 0.0
N1006 N 0.38621 0.65487 0.72696 0.0
C1007 C 0.37476 0.63566 0.69701 0.0
C1008 C 0.38924 0.62097 0.65109 0.0
C1009 C 0.65237 0.13739 0.87446 0.0
C1010 C 0.67669 0.13129 0.85798 0.0
C1011 C 0.63843 0.12292 0.92053 0.0
C1012 C 0.64863 0.10242 0.95384 0.0
H1013 H 0.64396 0.15315 0.85077 0.0
H1014 H 0.61961 0.12784 0.93023 0.0
S1015 S 0.71218 0.07981 0.93157 0.0
N1016 N 0.71046 0.10375 0.88056 0.0
N1017 N 0.68502 0.07743 0.96755 0.0
C1018 C 0.67317 0.0967 0.93889 0.0
C1019 C 0.68697 0.11089 0.89101 0.0
C1020 C 0.15508 0.62242 0.3363 0.0
C1021 C 0.17035 0.64029 0.36523 0.0
C1022 C 0.13997 0.60771 0.37796 0.0
C1023 C 0.14099 0.60896 0.45025 0.0
H1024 H 0.15507 0.61954 0.28121 0.0
H1025 H 0.12826 0.59445 0.35347 0.0
S1026 S 0.17523 0.65487 0.55112 0.0
N1027 N 0.18242 0.66103 0.47039 0.0
N1028 N 0.1566 0.63115 0.54855 0.0
C1029 C 0.15533 0.62741 0.47965 0.0
C1030 C 0.16941 0.64355 0.43711 0.0
C1031 C 0.64355 0.90495 0.6273 0.0
C1032 C 0.65007 0.92915 0.61081 0.0
C1033 C 0.6581 0.89063 0.67199 0.0
C1034 C 0.67904 0.90036 0.70426 0.0
H1035 H 0.6274 0.89691 0.60461 0.0
H1036 H 0.6529 0.87185 0.68134 0.0
S1037 S 0.70279 0.96352 0.68216 0.0
N1038 N 0.67863 0.96228 0.63194 0.0
N1039 N 0.7047 0.93633 0.71795 0.0
C1040 C 0.68507 0.92486 0.68984 0.0
C1041 C 0.67099 0.93894 0.64256 0.0
C1042 C 0.3707 0.38912 0.89485 0.0
C1043 C 0.35145 0.40008 0.85772 0.0
C1044 C 0.38525 0.40274 0.94137 0.0
C1045 C 0.38035 0.42754 0.9546 0.0
H1046 H 0.37441 0.36985 0.88847 0.0
H1047 H 0.39989 0.39366 0.96853 0.0
S1048 S 0.33256 0.46514 0.87047 0.0
N1049 N 0.3294 0.43787 0.8359 0.0
N1050 N 0.35527 0.46253 0.92542 0.0
C1051 C 0.36135 0.43864 0.91741 0.0
C1052 C 0.34732 0.4252 0.86849 0.0
C1053 C 0.84495 0.10496 0.18714 0.0
C1054 C 0.85113 0.12923 0.20323 0.0
C1055 C 0.85911 0.09093 0.14211 0.0
C1056 C 0.88079 0.10003 0.11279 0.0
H1057 H 0.82845 0.09682 0.20767 0.0
H1058 H 0.85321 0.07243 0.13153 0.0
S1059 S 0.90612 0.16201 0.1404 0.0
N1060 N 0.88068 0.16181 0.18618 0.0
N1061 N 0.90831 0.13469 0.10492 0.0
C1062 C 0.88775 0.124 0.12981 0.0
C1063 C 0.87271 0.13875 0.17407 0.0
C1064 C 0.8603 0.59519 0.92831 0.0
C1065 C 0.88325 0.60336 0.95123 0.0
C1066 C 0.84632 0.60878 0.88187 0.0
C1067 C 0.85424 0.63157 0.85686 0.0
H1068 H 0.85315 0.57775 0.94526 0.0
H1069 H 0.82877 0.60145 0.86663 0.0
S1070 S 0.91278 0.6617 0.90123 0.0
N1071 N 0.91349 0.63577 0.94464 0.0
N1072 N 0.88652 0.66198 0.85946 0.0
C1073 C 0.877 0.64027 0.87987 0.0
C1074 C 0.89168 0.626 0.92623 0.0
C1075 C 0.17168 0.09593 0.63132 0.0
C1076 C 0.14766 0.10208 0.6123 0.0
C1077 C 0.18515 0.11022 0.67729 0.0
C1078 C 0.17564 0.13181 0.70583 0.0
H1079 H 0.18011 0.07942 0.61203 0.0
H1080 H 0.2035 0.10436 0.68974 0.0
S1081 S 0.11408 0.15703 0.67124 0.0
N1082 N 0.11491 0.13161 0.62551 0.0
N1083 N 0.14087 0.15924 0.70979 0.0
C1084 C 0.1519 0.13873 0.68611 0.0
C1085 C 0.13777 0.12368 0.64019 0.0
C1086 C 0.65274 0.38814 0.38504 0.0
C1087 C 0.67533 0.39685 0.36002 0.0
C1088 C 0.63844 0.40213 0.43131 0.0
C1089 C 0.64668 0.42487 0.45633 0.0
H1090 H 0.64596 0.37058 0.36817 0.0
H1091 H 0.62099 0.395 0.44812 0.0
S1092 S 0.70484 0.45553 0.40828 0.0
N1093 N 0.70512 0.42975 0.36468 0.0
N1094 N 0.67902 0.45528 0.45182 0.0
C1095 C 0.66938 0.43347 0.43224 0.0
C1096 C 0.68348 0.41969 0.38419 0.0
C1097 C 0.39003 0.90843 0.15297 0.0
C1098 C 0.37964 0.92681 0.11126 0.0
C1099 C 0.37575 0.89498 0.20065 0.0
C1100 C 0.35077 0.90007 0.2101 0.0
H1101 H 0.40936 0.90456 0.14931 0.0
H1102 H 0.38443 0.88101 0.23143 0.0
S1103 S 0.3142 0.94506 0.11152 0.0
N1104 N 0.34209 0.94796 0.08062 0.0
N1105 N 0.31605 0.92377 0.17113 0.0
C1106 C 0.34018 0.91805 0.16805 0.0
C1107 C 0.35437 0.93112 0.11853 0.0
C1108 C 0.84363 0.42369 0.67908 0.0
C1109 C 0.85044 0.40013 0.70057 0.0
C1110 C 0.85779 0.4371 0.63255 0.0
C1111 C 0.88004 0.4281 0.60663 0.0
H1112 H 0.82669 0.43172 0.69668 0.0
H1113 H 0.85141 0.45509 0.61818 0.0
S1114 S 0.90687 0.36775 0.64783 0.0
N1115 N 0.88102 0.3682 0.69178 0.0
N1116 N 0.90858 0.39422 0.60727 0.0
C1117 C 0.8875 0.40479 0.6286 0.0
C1118 C 0.87251 0.39063 0.67467 0.0
C1119 C 0.35756 0.09218 0.42443 0.0
C1120 C 0.37939 0.10089 0.45364 0.0
C1121 C 0.34403 0.10618 0.37791 0.0
C1122 C 0.35097 0.13012 0.36024 0.0
H1123 H 0.35107 0.07396 0.43617 0.0
H1124 H 0.32739 0.09832 0.35756 0.0
S1125 S 0.4066 0.16187 0.42228 0.0
N1126 N 0.40786 0.13481 0.45973 0.0
N1127 N 0.38135 0.16199 0.37583 0.0
C1128 C 0.37268 0.13928 0.38933 0.0
C1129 C 0.38711 0.1245 0.43506 0.0
C1130 C 0.67069 0.59014 0.14398 0.0
C1131 C 0.64958 0.5993 0.11209 0.0
C1132 C 0.68449 0.60433 0.18942 0.0
C1133 C 0.67855 0.62884 0.20328 0.0
H1134 H 0.67642 0.57149 0.13506 0.0
H1135 H 0.70057 0.5961 0.21191 0.0
S1136 S 0.62497 0.66185 0.13316 0.0
N1137 N 0.62276 0.63425 0.09937 0.0
N1138 N 0.64982 0.66169 0.18133 0.0
C1139 C 0.65751 0.63842 0.17158 0.0
C1140 C 0.64279 0.6235 0.12693 0.0
C1141 C 0.158 0.90967 0.84844 0.0
C1142 C 0.17185 0.89019 0.87454 0.0
C1143 C 0.14285 0.92371 0.89153 0.0
C1144 C 0.14168 0.91939 0.96279 0.0
H1145 H 0.15939 0.91449 0.79457 0.0
H1146 H 0.13303 0.93896 0.86951 0.0
S1147 S 0.17206 0.86891 0.05583 0.0
N1148 N 0.18124 0.86568 0.97537 0.0
N1149 N 0.15386 0.89294 0.05656 0.0
C1150 C 0.15444 0.89927 0.98907 0.0
C1151 C 0.16922 0.88443 0.94483 0.0
loop_
_geom_bond_atom_site_label_1
_geom_bond_atom_site_label_2
_geom_bond_distance
_geom_bond_site_symmetry_2
_ccdc_geom_bond_type
Co0 O1 2.216 . S
Co0 O2 2.091 . S
Co0 O4 2.004 . S
Co0 O10 2.021 . S
Co0 O12 2.137 1_554 S
Co0 O13 2.244 1_554 S
O1 Co0 2.216 . S
O1 C8 1.247 . S
O2 Co0 2.091 . S
O2 C8 1.261 . S
C3 O12 1.247 . S
C3 O13 1.272 . S
O4 Co0 2.004 . S
O4 C9 1.259 . S
Co5 O6 2.061 . S
Co5 O11 2.052 . S
Co5 O13 2.135 1_554 S
O6 Co5 2.061 . S
O6 C9 1.235 . S
C7 O10 1.238 . S
C7 O11 1.241 . S
C8 O1 1.247 . S
C8 O2 1.261 . S
C9 O4 1.259 . S
C9 O6 1.235 . S
O10 Co0 2.021 . S
O10 C7 1.238 . S
O11 Co5 2.052 . S
O11 C7 1.241 . S
O12 Co0 2.137 1_556 S
O12 C3 1.247 . S
O13 Co0 2.244 1_556 S
O13 C3 1.272 . S
O13 Co5 2.135 1_556 S
Co14 O15 2.216 . S
Co14 O16 2.091 . S
Co14 O18 2.004 . S
Co14 O24 2.021 . S
Co14 O26 2.137 . S
Co14 O27 2.244 . S
O15 Co14 2.216 . S
O15 C22 1.247 . S
O16 Co14 2.091 . S
O16 C22 1.261 . S
C17 O26 1.247 . S
C17 O27 1.272 . S
O18 Co14 2.004 . S
O18 C23 1.259 . S
Co19 O20 2.061 . S
Co19 O25 2.052 . S
Co19 O27 2.135 . S
O20 Co19 2.061 . S
O20 C23 1.235 . S
C21 O24 1.238 . S
C21 O25 1.241 . S
C22 O15 1.247 . S
C22 O16 1.261 . S
C23 O18 1.259 . S
C23 O20 1.235 . S
O24 Co14 2.021 . S
O24 C21 1.238 . S
O25 Co19 2.052 . S
O25 C21 1.241 . S
O26 Co14 2.137 . S
O26 C17 1.247 . S
O27 Co14 2.244 . S
O27 C17 1.272 . S
O27 Co19 2.135 . S
Co28 O29 2.216 . S
Co28 O30 2.091 . S
Co28 O32 2.004 . S
Co28 O38 2.021 . S
Co28 O40 2.137 . S
Co28 O41 2.244 . S
O29 Co28 2.216 . S
O29 C36 1.247 . S
O30 Co28 2.091 . S
O30 C36 1.261 . S
C31 O40 1.247 . S
C31 O41 1.272 . S
O32 Co28 2.004 . S
O32 C37 1.259 . S
Co33 O34 2.061 . S
Co33 O39 2.052 . S
Co33 O41 2.135 . S
O34 Co33 2.061 . S
O34 C37 1.235 . S
C35 O38 1.238 . S
C35 O39 1.241 . S
C36 O29 1.247 . S
C36 O30 1.261 . S
C37 O32 1.259 . S
C37 O34 1.235 . S
O38 Co28 2.021 . S
O38 C35 1.238 . S
O39 Co33 2.052 . S
O39 C35 1.241 . S
O40 Co28 2.137 . S
O40 C31 1.247 . S
O41 Co28 2.244 . S
O41 C31 1.272 . S
O41 Co33 2.135 . S
Co42 O43 2.216 . S
Co42 O44 2.091 . S
Co42 O46 2.004 . S
Co42 O52 2.021 . S
Co42 O54 2.137 . S
Co42 O55 2.244 . S
O43 Co42 2.216 . S
O43 C50 1.247 . S
O44 Co42 2.091 . S
O44 C50 1.261 . S
C45 O54 1.247 . S
C45 O55 1.272 . S
O46 Co42 2.004 . S
O46 C51 1.259 . S
Co47 O48 2.061 . S
Co47 O53 2.052 . S
Co47 O55 2.135 . S
O48 Co47 2.061 . S
O48 C51 1.235 . S
C49 O52 1.238 . S
C49 O53 1.241 . S
C50 O43 1.247 . S
C50 O44 1.261 . S
C51 O46 1.259 . S
C51 O48 1.235 . S
O52 Co42 2.021 . S
O52 C49 1.238 . S
O53 Co47 2.052 . S
O53 C49 1.241 . S
O54 Co42 2.137 . S
O54 C45 1.247 . S
O55 Co42 2.244 . S
O55 C45 1.272 . S
O55 Co47 2.135 . S
Co56 O57 2.216 . S
Co56 O58 2.091 . S
Co56 O60 2.004 . S
Co56 O66 2.021 . S
Co56 O68 2.137 . S
Co56 O69 2.244 . S
O57 Co56 2.216 . S
O57 C64 1.247 . S
O58 Co56 2.091 . S
O58 C64 1.261 . S
C59 O68 1.247 . S
C59 O69 1.272 . S
O60 Co56 2.004 . S
O60 C65 1.259 . S
Co61 O62 2.061 . S
Co61 O67 2.052 . S
Co61 O69 2.135 . S
O62 Co61 2.061 . S
O62 C65 1.235 . S
C63 O66 1.238 . S
C63 O67 1.241 . S
C64 O57 1.247 . S
C64 O58 1.261 . S
C65 O60 1.259 . S
C65 O62 1.235 . S
O66 Co56 2.021 . S
O66 C63 1.238 . S
O67 Co61 2.052 . S
O67 C63 1.241 . S
O68 Co56 2.137 . S
O68 C59 1.247 . S
O69 Co56 2.244 . S
O69 C59 1.272 . S
O69 Co61 2.135 . S
Co70 O71 2.216 . S
Co70 O72 2.091 . S
Co70 O74 2.004 . S
Co70 O80 2.021 . S
Co70 O82 2.137 . S
Co70 O83 2.244 . S
O71 Co70 2.216 . S
O71 C78 1.247 . S
O72 Co70 2.091 . S
O72 C78 1.261 . S
C73 O82 1.247 . S
C73 O83 1.272 . S
O74 Co70 2.004 . S
O74 C79 1.259 . S
Co75 O76 2.061 . S
Co75 O81 2.052 . S
Co75 O83 2.135 . S
O76 Co75 2.061 . S
O76 C79 1.235 . S
C77 O80 1.238 . S
C77 O81 1.241 . S
C78 O71 1.247 . S
C78 O72 1.261 . S
C79 O74 1.259 . S
C79 O76 1.235 . S
O80 Co70 2.021 . S
O80 C77 1.238 . S
O81 Co75 2.052 . S
O81 C77 1.241 . S
O82 Co70 2.137 . S
O82 C73 1.247 . S
O83 Co70 2.244 . S
O83 C73 1.272 . S
O83 Co75 2.135 . S
Co84 O85 2.216 . S
Co84 O86 2.091 . S
Co84 O88 2.004 . S
Co84 O94 2.021 1_554 S
Co84 O96 2.137 . S
Co84 O97 2.244 . S
O85 Co84 2.216 . S
O85 C92 1.247 . S
O86 Co84 2.091 . S
O86 C92 1.261 . S
C87 O96 1.247 . S
C87 O97 1.272 . S
O88 Co84 2.004 . S
O88 C93 1.259 . S
Co89 O90 2.061 . S
Co89 O95 2.052 1_554 S
Co89 O97 2.135 . S
O90 Co89 2.061 . S
O90 C93 1.235 . S
C91 O94 1.238 . S
C91 O95 1.241 . S
C92 O85 1.247 . S
C92 O86 1.261 . S
C93 O88 1.259 . S
C93 O90 1.235 . S
O94 Co84 2.021 1_556 S
O94 C91 1.238 . S
O95 Co89 2.052 1_556 S
O95 C91 1.241 . S
O96 Co84 2.137 . S
O96 C87 1.247 . S
O97 Co84 2.244 . S
O97 C87 1.272 . S
O97 Co89 2.135 . S
Co98 O99 2.216 . S
Co98 O100 2.091 . S
Co98 O102 2.004 . S
Co98 O108 2.021 . S
Co98 O110 2.137 . S
Co98 O111 2.244 . S
O99 Co98 2.216 . S
O99 C106 1.247 . S
O100 Co98 2.091 . S
O100 C106 1.261 . S
C101 O110 1.247 . S
C101 O111 1.272 . S
O102 Co98 2.004 . S
O102 C107 1.259 . S
Co103 O104 2.061 . S
Co103 O109 2.052 . S
Co103 O111 2.135 . S
O104 Co103 2.061 . S
O104 C107 1.235 . S
C105 O108 1.238 . S
C105 O109 1.241 . S
C106 O99 1.247 . S
C106 O100 1.261 . S
C107 O102 1.259 . S
C107 O104 1.235 . S
O108 Co98 2.021 . S
O108 C105 1.238 . S
O109 Co103 2.052 . S
O109 C105 1.241 . S
O110 Co98 2.137 . S
O110 C101 1.247 . S
O111 Co98 2.244 . S
O111 C101 1.272 . S
O111 Co103 2.135 . S
Co112 O113 2.216 . S
Co112 O114 2.091 . S
Co112 O116 2.004 . S
Co112 O122 2.021 1_554 S
Co112 O124 2.137 . S
Co112 O125 2.244 . S
O113 Co112 2.216 . S
O113 C120 1.247 . S
O114 Co112 2.091 . S
O114 C120 1.261 . S
C115 O124 1.247 . S
C115 O125 1.272 . S
O116 Co112 2.004 . S
O116 C121 1.259 . S
Co117 O118 2.061 . S
Co117 O123 2.052 1_554 S
Co117 O125 2.135 . S
O118 Co117 2.061 . S
O118 C121 1.235 . S
C119 O122 1.238 . S
C119 O123 1.241 . S
C120 O113 1.247 . S
C120 O114 1.261 . S
C121 O116 1.259 . S
C121 O118 1.235 . S
O122 Co112 2.021 1_556 S
O122 C119 1.238 . S
O123 Co117 2.052 1_556 S
O123 C119 1.241 . S
O124 Co112 2.137 . S
O124 C115 1.247 . S
O125 Co112 2.244 . S
O125 C115 1.272 . S
O125 Co117 2.135 . S
Co126 O127 2.216 . S
Co126 O128 2.091 . S
Co126 O130 2.004 . S
Co126 O136 2.021 . S
Co126 O138 2.137 . S
Co126 O139 2.244 . S
O127 Co126 2.216 . S
O127 C134 1.247 . S
O128 Co126 2.091 . S
O128 C134 1.261 . S
C129 O138 1.247 . S
C129 O139 1.272 . S
O130 Co126 2.004 . S
O130 C135 1.259 . S
Co131 O132 2.061 . S
Co131 O137 2.052 . S
Co131 O139 2.135 . S
O132 Co131 2.061 . S
O132 C135 1.235 . S
C133 O136 1.238 . S
C133 O137 1.241 . S
C134 O127 1.247 . S
C134 O128 1.261 . S
C135 O130 1.259 . S
C135 O132 1.235 . S
O136 Co126 2.021 . S
O136 C133 1.238 . S
O137 Co131 2.052 . S
O137 C133 1.241 . S
O138 Co126 2.137 . S
O138 C129 1.247 . S
O139 Co126 2.244 . S
O139 C129 1.272 . S
O139 Co131 2.135 . S
Co140 O141 2.216 . S
Co140 O142 2.091 . S
Co140 O144 2.004 . S
Co140 O150 2.021 . S
Co140 O152 2.137 . S
Co140 O153 2.244 . S
O141 Co140 2.216 . S
O141 C148 1.247 . S
O142 Co140 2.091 . S
O142 C148 1.261 . S
C143 O152 1.247 . S
C143 O153 1.272 . S
O144 Co140 2.004 . S
O144 C149 1.259 . S
Co145 O146 2.061 . S
Co145 O151 2.052 . S
Co145 O153 2.135 . S
O146 Co145 2.061 . S
O146 C149 1.235 . S
C147 O150 1.238 . S
C147 O151 1.241 . S
C148 O141 1.247 . S
C148 O142 1.261 . S
C149 O144 1.259 . S
C149 O146 1.235 . S
O150 Co140 2.021 . S
O150 C147 1.238 . S
O151 Co145 2.052 . S
O151 C147 1.241 . S
O152 Co140 2.137 . S
O152 C143 1.247 . S
O153 Co140 2.244 . S
O153 C143 1.272 . S
O153 Co145 2.135 . S
Co154 O155 2.216 . S
Co154 O156 2.091 . S
Co154 O158 2.004 . S
Co154 O164 2.021 . S
Co154 O166 2.137 . S
Co154 O167 2.244 . S
O155 Co154 2.216 . S
O155 C162 1.247 . S
O156 Co154 2.091 . S
O156 C162 1.261 . S
C157 O166 1.247 . S
C157 O167 1.272 . S
O158 Co154 2.004 . S
O158 C163 1.259 . S
Co159 O160 2.061 . S
Co159 O165 2.052 . S
Co159 O167 2.135 . S
O160 Co159 2.061 . S
O160 C163 1.235 . S
C161 O164 1.238 . S
C161 O165 1.241 . S
C162 O155 1.247 . S
C162 O156 1.261 . S
C163 O158 1.259 . S
C163 O160 1.235 . S
O164 Co154 2.021 . S
O164 C161 1.238 . S
O165 Co159 2.052 . S
O165 C161 1.241 . S
O166 Co154 2.137 . S
O166 C157 1.247 . S
O167 Co154 2.244 . S
O167 C157 1.272 . S
O167 Co159 2.135 . S
Co168 O169 2.216 . S
Co168 O170 2.091 . S
Co168 O172 2.004 . S
Co168 O178 2.021 . S
Co168 O180 2.137 . S
Co168 O181 2.244 . S
O169 Co168 2.216 . S
O169 C176 1.247 . S
O170 Co168 2.091 . S
O170 C176 1.261 . S
C171 O180 1.247 . S
C171 O181 1.272 . S
O172 Co168 2.004 . S
O172 C177 1.259 . S
Co173 O174 2.061 . S
Co173 O179 2.052 . S
Co173 O181 2.135 . S
O174 Co173 2.061 . S
O174 C177 1.235 . S
C175 O178 1.238 . S
C175 O179 1.241 . S
C176 O169 1.247 . S
C176 O170 1.261 . S
C177 O172 1.259 . S
C177 O174 1.235 . S
O178 Co168 2.021 . S
O178 C175 1.238 . S
O179 Co173 2.052 . S
O179 C175 1.241 . S
O180 Co168 2.137 . S
O180 C171 1.247 . S
O181 Co168 2.244 . S
O181 C171 1.272 . S
O181 Co173 2.135 . S
Co182 O183 2.216 . S
Co182 O184 2.091 . S
Co182 O186 2.004 . S
Co182 O192 2.021 . S
Co182 O194 2.137 . S
Co182 O195 2.244 . S
O183 Co182 2.216 . S
O183 C190 1.247 . S
O184 Co182 2.091 . S
O184 C190 1.261 . S
C185 O194 1.247 . S
C185 O195 1.272 . S
O186 Co182 2.004 . S
O186 C191 1.259 . S
Co187 O188 2.061 . S
Co187 O193 2.052 . S
Co187 O195 2.135 . S
O188 Co187 2.061 . S
O188 C191 1.235 . S
C189 O192 1.238 . S
C189 O193 1.241 . S
C190 O183 1.247 . S
C190 O184 1.261 . S
C191 O186 1.259 . S
C191 O188 1.235 . S
O192 Co182 2.021 . S
O192 C189 1.238 . S
O193 Co187 2.052 . S
O193 C189 1.241 . S
O194 Co182 2.137 . S
O194 C185 1.247 . S
O195 Co182 2.244 . S
O195 C185 1.272 . S
O195 Co187 2.135 . S
Co196 O197 2.216 . S
Co196 O198 2.091 . S
Co196 O200 2.004 . S
Co196 O206 2.021 . S
Co196 O208 2.137 1_554 S
Co196 O209 2.244 1_554 S
O197 Co196 2.216 . S
O197 C204 1.247 . S
O198 Co196 2.091 . S
O198 C204 1.261 . S
C199 O208 1.247 . S
C199 O209 1.272 . S
O200 Co196 2.004 . S
O200 C205 1.259 . S
Co201 O202 2.061 . S
Co201 O207 2.052 . S
Co201 O209 2.135 1_554 S
O202 Co201 2.061 . S
O202 C205 1.235 . S
C203 O206 1.238 . S
C203 O207 1.241 . S
C204 O197 1.247 . S
C204 O198 1.261 . S
C205 O200 1.259 . S
C205 O202 1.235 . S
O206 Co196 2.021 . S
O206 C203 1.238 . S
O207 Co201 2.052 . S
O207 C203 1.241 . S
O208 Co196 2.137 1_556 S
O208 C199 1.247 . S
O209 Co196 2.244 1_556 S
O209 C199 1.272 . S
O209 Co201 2.135 1_556 S
Co210 O211 2.216 . S
Co210 O212 2.091 . S
Co210 O214 2.004 . S
Co210 O220 2.021 . S
Co210 O222 2.137 . S
Co210 O223 2.244 . S
O211 Co210 2.216 . S
O211 C218 1.247 . S
O212 Co210 2.091 . S
O212 C218 1.261 . S
C213 O222 1.247 . S
C213 O223 1.272 . S
O214 Co210 2.004 . S
O214 C219 1.259 . S
Co215 O216 2.061 . S
Co215 O221 2.052 . S
Co215 O223 2.135 . S
O216 Co215 2.061 . S
O216 C219 1.235 . S
C217 O220 1.238 . S
C217 O221 1.241 . S
C218 O211 1.247 . S
C218 O212 1.261 . S
C219 O214 1.259 . S
C219 O216 1.235 . S
O220 Co210 2.021 . S
O220 C217 1.238 . S
O221 Co215 2.052 . S
O221 C217 1.241 . S
O222 Co210 2.137 . S
O222 C213 1.247 . S
O223 Co210 2.244 . S
O223 C213 1.272 . S
O223 Co215 2.135 . S
Co224 O225 2.216 . S
Co224 O226 2.091 . S
Co224 O228 2.004 . S
Co224 O234 2.021 . S
Co224 O236 2.137 . S
Co224 O237 2.244 1_565 S
O225 Co224 2.216 . S
O225 C232 1.247 . S
O226 Co224 2.091 . S
O226 C232 1.261 . S
C227 O236 1.247 . S
C227 O237 1.272 1_565 S
O228 Co224 2.004 . S
O228 C233 1.259 . S
Co229 O230 2.061 . S
Co229 O235 2.052 . S
Co229 O237 2.135 . S
O230 Co229 2.061 . S
O230 C233 1.235 1_545 S
C231 O234 1.238 1_545 S
C231 O235 1.241 . S
C232 O225 1.247 . S
C232 O226 1.261 . S
C233 O228 1.259 . S
C233 O230 1.235 1_565 S
O234 Co224 2.021 . S
O234 C231 1.238 1_565 S
O235 Co229 2.052 . S
O235 C231 1.241 . S
O236 Co224 2.137 . S
O236 C227 1.247 . S
O237 Co224 2.244 1_545 S
O237 C227 1.272 1_545 S
O237 Co229 2.135 . S
Co238 O239 2.216 . S
Co238 O240 2.091 . S
Co238 O242 2.004 . S
Co238 O248 2.021 . S
Co238 O250 2.137 . S
Co238 O251 2.244 . S
O239 Co238 2.216 . S
O239 C246 1.247 . S
O240 Co238 2.091 . S
O240 C246 1.261 . S
C241 O250 1.247 . S
C241 O251 1.272 . S
O242 Co238 2.004 . S
O242 C247 1.259 . S
Co243 O244 2.061 . S
Co243 O249 2.052 . S
Co243 O251 2.135 . S
O244 Co243 2.061 . S
O244 C247 1.235 . S
C245 O248 1.238 . S
C245 O249 1.241 . S
C246 O239 1.247 . S
C246 O240 1.261 . S
C247 O242 1.259 . S
C247 O244 1.235 . S
O248 Co238 2.021 . S
O248 C245 1.238 . S
O249 Co243 2.052 . S
O249 C245 1.241 . S
O250 Co238 2.137 . S
O250 C241 1.247 . S
O251 Co238 2.244 . S
O251 C241 1.272 . S
O251 Co243 2.135 . S
Co252 O253 2.216 . S
Co252 O254 2.091 . S
Co252 O256 2.004 . S
Co252 O262 2.021 . S
Co252 O264 2.137 1_554 S
Co252 O265 2.244 1_544 S
O253 Co252 2.216 . S
O253 C260 1.247 . S
O254 Co252 2.091 . S
O254 C260 1.261 . S
C255 O264 1.247 . S
C255 O265 1.272 1_545 S
O256 Co252 2.004 . S
O256 C261 1.259 . S
Co257 O258 2.061 . S
Co257 O263 2.052 . S
Co257 O265 2.135 1_554 S
O258 Co257 2.061 . S
O258 C261 1.235 1_565 S
C259 O262 1.238 1_565 S
C259 O263 1.241 . S
C260 O253 1.247 . S
C260 O254 1.261 . S
C261 O256 1.259 . S
C261 O258 1.235 1_545 S
O262 Co252 2.021 . S
O262 C259 1.238 1_545 S
O263 Co257 2.052 . S
O263 C259 1.241 . S
O264 Co252 2.137 1_556 S
O264 C255 1.247 . S
O265 Co252 2.244 1_566 S
O265 C255 1.272 1_565 S
O265 Co257 2.135 1_556 S
Co266 O267 2.216 . S
Co266 O268 2.091 . S
Co266 O270 2.004 . S
Co266 O276 2.021 . S
Co266 O278 2.137 . S
Co266 O279 2.244 . S
O267 Co266 2.216 . S
O267 C274 1.247 . S
O268 Co266 2.091 . S
O268 C274 1.261 . S
C269 O278 1.247 . S
C269 O279 1.272 . S
O270 Co266 2.004 . S
O270 C275 1.259 . S
Co271 O272 2.061 . S
Co271 O277 2.052 . S
Co271 O279 2.135 . S
O272 Co271 2.061 . S
O272 C275 1.235 . S
C273 O276 1.238 . S
C273 O277 1.241 . S
C274 O267 1.247 . S
C274 O268 1.261 . S
C275 O270 1.259 . S
C275 O272 1.235 . S
O276 Co266 2.021 . S
O276 C273 1.238 . S
O277 Co271 2.052 . S
O277 C273 1.241 . S
O278 Co266 2.137 . S
O278 C269 1.247 . S
O279 Co266 2.244 . S
O279 C269 1.272 . S
O279 Co271 2.135 . S
Co280 O281 2.216 . S
Co280 O282 2.091 . S
Co280 O284 2.004 . S
Co280 O290 2.021 1_554 S
Co280 O292 2.137 . S
Co280 O293 2.244 1_545 S
O281 Co280 2.216 . S
O281 C288 1.247 . S
O282 Co280 2.091 . S
O282 C288 1.261 . S
C283 O292 1.247 . S
C283 O293 1.272 1_545 S
O284 Co280 2.004 . S
O284 C289 1.259 . S
Co285 O286 2.061 . S
Co285 O291 2.052 1_554 S
Co285 O293 2.135 . S
O286 Co285 2.061 . S
O286 C289 1.235 1_565 S
C287 O290 1.238 1_565 S
C287 O291 1.241 . S
C288 O281 1.247 . S
C288 O282 1.261 . S
C289 O284 1.259 . S
C289 O286 1.235 1_545 S
O290 Co280 2.021 1_556 S
O290 C287 1.238 1_545 S
O291 Co285 2.052 1_556 S
O291 C287 1.241 . S
O292 Co280 2.137 . S
O292 C283 1.247 . S
O293 Co280 2.244 1_565 S
O293 C283 1.272 1_565 S
O293 Co285 2.135 . S
Co294 O295 2.216 . S
Co294 O296 2.091 . S
Co294 O298 2.004 . S
Co294 O304 2.021 . S
Co294 O306 2.137 . S
Co294 O307 2.244 . S
O295 Co294 2.216 . S
O295 C302 1.247 . S
O296 Co294 2.091 . S
O296 C302 1.261 . S
C297 O306 1.247 . S
C297 O307 1.272 . S
O298 Co294 2.004 . S
O298 C303 1.259 . S
Co299 O300 2.061 . S
Co299 O305 2.052 . S
Co299 O307 2.135 . S
O300 Co299 2.061 . S
O300 C303 1.235 . S
C301 O304 1.238 . S
C301 O305 1.241 . S
C302 O295 1.247 . S
C302 O296 1.261 . S
C303 O298 1.259 . S
C303 O300 1.235 . S
O304 Co294 2.021 . S
O304 C301 1.238 . S
O305 Co299 2.052 . S
O305 C301 1.241 . S
O306 Co294 2.137 . S
O306 C297 1.247 . S
O307 Co294 2.244 . S
O307 C297 1.272 . S
O307 Co299 2.135 . S
Co308 O309 2.216 . S
Co308 O310 2.091 . S
Co308 O312 2.004 . S
Co308 O318 2.021 . S
Co308 O320 2.137 . S
Co308 O321 2.244 1_565 S
O309 Co308 2.216 . S
O309 C316 1.247 . S
O310 Co308 2.091 . S
O310 C316 1.261 . S
C311 O320 1.247 . S
C311 O321 1.272 1_565 S
O312 Co308 2.004 . S
O312 C317 1.259 . S
Co313 O314 2.061 . S
Co313 O319 2.052 . S
Co313 O321 2.135 . S
O314 Co313 2.061 . S
O314 C317 1.235 1_545 S
C315 O318 1.238 1_545 S
C315 O319 1.241 . S
C316 O309 1.247 . S
C316 O310 1.261 . S
C317 O312 1.259 . S
C317 O314 1.235 1_565 S
O318 Co308 2.021 . S
O318 C315 1.238 1_565 S
O319 Co313 2.052 . S
O319 C315 1.241 . S
O320 Co308 2.137 . S
O320 C311 1.247 . S
O321 Co308 2.244 1_545 S
O321 C311 1.272 1_545 S
O321 Co313 2.135 . S
Co322 O323 2.216 . S
Co322 O324 2.091 . S
Co322 O326 2.004 . S
Co322 O332 2.021 . S
Co322 O334 2.137 . S
Co322 O335 2.244 . S
O323 Co322 2.216 . S
O323 C330 1.247 . S
O324 Co322 2.091 . S
O324 C330 1.261 . S
C325 O334 1.247 . S
C325 O335 1.272 . S
O326 Co322 2.004 . S
O326 C331 1.259 . S
Co327 O328 2.061 . S
Co327 O333 2.052 . S
Co327 O335 2.135 . S
O328 Co327 2.061 . S
O328 C331 1.235 . S
C329 O332 1.238 . S
C329 O333 1.241 . S
C330 O323 1.247 . S
C330 O324 1.261 . S
C331 O326 1.259 . S
C331 O328 1.235 . S
O332 Co322 2.021 . S
O332 C329 1.238 . S
O333 Co327 2.052 . S
O333 C329 1.241 . S
O334 Co322 2.137 . S
O334 C325 1.247 . S
O335 Co322 2.244 . S
O335 C325 1.272 . S
O335 Co327 2.135 . S
Co336 O337 2.216 . S
Co336 O338 2.091 . S
Co336 O340 2.004 . S
Co336 O346 2.021 . S
Co336 O348 2.137 . S
Co336 O349 2.244 1_545 S
O337 Co336 2.216 . S
O337 C344 1.247 . S
O338 Co336 2.091 . S
O338 C344 1.261 . S
C339 O348 1.247 . S
C339 O349 1.272 1_545 S
O340 Co336 2.004 . S
O340 C345 1.259 . S
Co341 O342 2.061 . S
Co341 O347 2.052 . S
Co341 O349 2.135 . S
O342 Co341 2.061 . S
O342 C345 1.235 1_565 S
C343 O346 1.238 1_565 S
C343 O347 1.241 . S
C344 O337 1.247 . S
C344 O338 1.261 . S
C345 O340 1.259 . S
C345 O342 1.235 1_545 S
O346 Co336 2.021 . S
O346 C343 1.238 1_545 S
O347 Co341 2.052 . S
O347 C343 1.241 . S
O348 Co336 2.137 . S
O348 C339 1.247 . S
O349 Co336 2.244 1_565 S
O349 C339 1.272 1_565 S
O349 Co341 2.135 . S
Co350 O351 2.216 . S
Co350 O352 2.091 . S
Co350 O354 2.004 . S
Co350 O360 2.021 . S
Co350 O362 2.137 . S
Co350 O363 2.244 . S
O351 Co350 2.216 . S
O351 C358 1.247 . S
O352 Co350 2.091 . S
O352 C358 1.261 . S
C353 O362 1.247 . S
C353 O363 1.272 . S
O354 Co350 2.004 . S
O354 C359 1.259 . S
Co355 O356 2.061 . S
Co355 O361 2.052 . S
Co355 O363 2.135 . S
O356 Co355 2.061 . S
O356 C359 1.235 . S
C357 O360 1.238 . S
C357 O361 1.241 . S
C358 O351 1.247 . S
C358 O352 1.261 . S
C359 O354 1.259 . S
C359 O356 1.235 . S
O360 Co350 2.021 . S
O360 C357 1.238 . S
O361 Co355 2.052 . S
O361 C357 1.241 . S
O362 Co350 2.137 . S
O362 C353 1.247 . S
O363 Co350 2.244 . S
O363 C353 1.272 . S
O363 Co355 2.135 . S
Co364 O365 2.216 . S
Co364 O366 2.091 . S
Co364 O368 2.004 . S
Co364 O374 2.021 1_554 S
Co364 O376 2.137 . S
Co364 O377 2.244 1_565 S
O365 Co364 2.216 . S
O365 C372 1.247 . S
O366 Co364 2.091 . S
O366 C372 1.261 . S
C367 O376 1.247 . S
C367 O377 1.272 1_565 S
O368 Co364 2.004 . S
O368 C373 1.259 . S
Co369 O370 2.061 . S
Co369 O375 2.052 1_554 S
Co369 O377 2.135 . S
O370 Co369 2.061 . S
O370 C373 1.235 1_545 S
C371 O374 1.238 1_545 S
C371 O375 1.241 . S
C372 O365 1.247 . S
C372 O366 1.261 . S
C373 O368 1.259 . S
C373 O370 1.235 1_565 S
O374 Co364 2.021 1_556 S
O374 C371 1.238 1_565 S
O375 Co369 2.052 1_556 S
O375 C371 1.241 . S
O376 Co364 2.137 . S
O376 C367 1.247 . S
O377 Co364 2.244 1_545 S
O377 C367 1.272 1_545 S
O377 Co369 2.135 . S
Co378 O379 2.216 . S
Co378 O380 2.091 . S
Co378 O382 2.004 . S
Co378 O388 2.021 . S
Co378 O390 2.137 . S
Co378 O391 2.244 . S
O379 Co378 2.216 . S
O379 C386 1.247 . S
O380 Co378 2.091 . S
O380 C386 1.261 . S
C381 O390 1.247 . S
C381 O391 1.272 . S
O382 Co378 2.004 . S
O382 C387 1.259 . S
Co383 O384 2.061 . S
Co383 O389 2.052 . S
Co383 O391 2.135 . S
O384 Co383 2.061 . S
O384 C387 1.235 . S
C385 O388 1.238 . S
C385 O389 1.241 . S
C386 O379 1.247 . S
C386 O380 1.261 . S
C387 O382 1.259 . S
C387 O384 1.235 . S
O388 Co378 2.021 . S
O388 C385 1.238 . S
O389 Co383 2.052 . S
O389 C385 1.241 . S
O390 Co378 2.137 . S
O390 C381 1.247 . S
O391 Co378 2.244 . S
O391 C381 1.272 . S
O391 Co383 2.135 . S
Co392 O393 2.216 . S
Co392 O394 2.091 . S
Co392 O396 2.004 . S
Co392 O402 2.021 . S
Co392 O404 2.137 1_554 S
Co392 O405 2.244 1_564 S
O393 Co392 2.216 . S
O393 C400 1.247 . S
O394 Co392 2.091 . S
O394 C400 1.261 . S
C395 O404 1.247 . S
C395 O405 1.272 1_565 S
O396 Co392 2.004 . S
O396 C401 1.259 . S
Co397 O398 2.061 . S
Co397 O403 2.052 . S
Co397 O405 2.135 1_554 S
O398 Co397 2.061 . S
O398 C401 1.235 1_545 S
C399 O402 1.238 1_545 S
C399 O403 1.241 . S
C400 O393 1.247 . S
C400 O394 1.261 . S
C401 O396 1.259 . S
C401 O398 1.235 1_565 S
O402 Co392 2.021 . S
O402 C399 1.238 1_565 S
O403 Co397 2.052 . S
O403 C399 1.241 . S
O404 Co392 2.137 1_556 S
O404 C395 1.247 . S
O405 Co392 2.244 1_546 S
O405 C395 1.272 1_545 S
O405 Co397 2.135 1_556 S
Co406 O407 2.216 . S
Co406 O408 2.091 . S
Co406 O410 2.004 . S
Co406 O416 2.021 . S
Co406 O418 2.137 . S
Co406 O419 2.244 . S
O407 Co406 2.216 . S
O407 C414 1.247 . S
O408 Co406 2.091 . S
O408 C414 1.261 . S
C409 O418 1.247 . S
C409 O419 1.272 . S
O410 Co406 2.004 . S
O410 C415 1.259 . S
Co411 O412 2.061 . S
Co411 O417 2.052 . S
Co411 O419 2.135 . S
O412 Co411 2.061 . S
O412 C415 1.235 . S
C413 O416 1.238 . S
C413 O417 1.241 . S
C414 O407 1.247 . S
C414 O408 1.261 . S
C415 O410 1.259 . S
C415 O412 1.235 . S
O416 Co406 2.021 . S
O416 C413 1.238 . S
O417 Co411 2.052 . S
O417 C413 1.241 . S
O418 Co406 2.137 . S
O418 C409 1.247 . S
O419 Co406 2.244 . S
O419 C409 1.272 . S
O419 Co411 2.135 . S
Co420 O421 2.216 . S
Co420 O422 2.091 . S
Co420 O424 2.004 . S
Co420 O430 2.021 . S
Co420 O432 2.137 . S
Co420 O433 2.244 1_545 S
O421 Co420 2.216 . S
O421 C428 1.247 . S
O422 Co420 2.091 . S
O422 C428 1.261 . S
C423 O432 1.247 . S
C423 O433 1.272 1_545 S
O424 Co420 2.004 . S
O424 C429 1.259 . S
Co425 O426 2.061 . S
Co425 O431 2.052 . S
Co425 O433 2.135 . S
O426 Co425 2.061 . S
O426 C429 1.235 1_565 S
C427 O430 1.238 1_565 S
C427 O431 1.241 . S
C428 O421 1.247 . S
C428 O422 1.261 . S
C429 O424 1.259 . S
C429 O426 1.235 1_545 S
O430 Co420 2.021 . S
O430 C427 1.238 1_545 S
O431 Co425 2.052 . S
O431 C427 1.241 . S
O432 Co420 2.137 . S
O432 C423 1.247 . S
O433 Co420 2.244 1_565 S
O433 C423 1.272 1_565 S
O433 Co425 2.135 . S
Co434 O435 2.216 . S
Co434 O436 2.091 . S
Co434 O438 2.004 . S
Co434 O444 2.021 . S
Co434 O446 2.137 . S
Co434 O447 2.244 . S
O435 Co434 2.216 . S
O435 C442 1.247 . S
O436 Co434 2.091 . S
O436 C442 1.261 . S
C437 O446 1.247 . S
C437 O447 1.272 . S
O438 Co434 2.004 . S
O438 C443 1.259 . S
Co439 O440 2.061 . S
Co439 O445 2.052 . S
Co439 O447 2.135 . S
O440 Co439 2.061 . S
O440 C443 1.235 . S
C441 O444 1.238 . S
C441 O445 1.241 . S
C442 O435 1.247 . S
C442 O436 1.261 . S
C443 O438 1.259 . S
C443 O440 1.235 . S
O444 Co434 2.021 . S
O444 C441 1.238 . S
O445 Co439 2.052 . S
O445 C441 1.241 . S
O446 Co434 2.137 . S
O446 C437 1.247 . S
O447 Co434 2.244 . S
O447 C437 1.272 . S
O447 Co439 2.135 . S
C448 C449 1.369 . S
C448 C450 1.419 1_655 S
C448 H452 0.930 1_554 S
C449 C448 1.369 . S
C449 C458 1.429 . S
C450 C448 1.419 1_455 S
C450 C451 1.363 . S
C450 H453 0.929 1_554 S
C451 C450 1.363 . S
C451 C457 1.428 . S
H452 C448 0.930 1_556 S
H453 C450 0.929 1_556 S
S454 N455 1.613 1_455 S
S454 N456 1.610 . S
N455 S454 1.613 1_655 S
N455 C458 1.350 . S
N456 S454 1.610 . S
N456 C457 1.351 . S
C457 C451 1.428 . S
C457 N456 1.351 . S
C457 C458 1.434 1_455 S
C458 C449 1.429 . S
C458 N455 1.350 . S
C458 C457 1.434 1_655 S
C459 C460 1.369 . S
C459 C461 1.419 . S
C459 H463 0.930 . S
C460 C459 1.369 . S
C460 C469 1.429 . S
C461 C459 1.419 . S
C461 C462 1.363 . S
C461 H464 0.929 . S
C462 C461 1.363 . S
C462 C468 1.428 . S
H463 C459 0.930 . S
H464 C461 0.929 . S
S465 N466 1.613 . S
S465 N467 1.610 . S
N466 S465 1.613 . S
N466 C469 1.350 . S
N467 S465 1.610 . S
N467 C468 1.351 . S
C468 C462 1.428 . S
C468 N467 1.351 . S
C468 C469 1.434 . S
C469 C460 1.429 . S
C469 N466 1.350 . S
C469 C468 1.434 . S
C470 C471 1.369 . S
C470 C472 1.419 . S
C470 H474 0.930 . S
C471 C470 1.369 . S
C471 C480 1.429 . S
C472 C470 1.419 . S
C472 C473 1.363 . S
C472 H475 0.929 . S
C473 C472 1.363 . S
C473 C479 1.428 . S
H474 C470 0.930 . S
H475 C472 0.929 . S
S476 N477 1.613 . S
S476 N478 1.610 . S
N477 S476 1.613 . S
N477 C480 1.350 . S
N478 S476 1.610 . S
N478 C479 1.351 . S
C479 C473 1.428 . S
C479 N478 1.351 . S
C479 C480 1.434 . S
C480 C471 1.429 . S
C480 N477 1.350 . S
C480 C479 1.434 . S
C481 C482 1.369 . S
C481 C483 1.419 . S
C481 H485 0.930 . S
C482 C481 1.369 . S
C482 C491 1.429 . S
C483 C481 1.419 . S
C483 C484 1.363 . S
C483 H486 0.929 . S
C484 C483 1.363 . S
C484 C490 1.428 . S
H485 C481 0.930 . S
H486 C483 0.929 . S
S487 N488 1.613 . S
S487 N489 1.610 . S
N488 S487 1.613 . S
N488 C491 1.350 . S
N489 S487 1.610 . S
N489 C490 1.351 . S
C490 C484 1.428 . S
C490 N489 1.351 . S
C490 C491 1.434 . S
C491 C482 1.429 . S
C491 N488 1.350 . S
C491 C490 1.434 . S
C492 C493 1.369 . S
C492 C494 1.419 1_455 S
C492 H496 0.930 . S
C493 C492 1.369 . S
C493 C502 1.429 . S
C494 C492 1.419 1_655 S
C494 C495 1.363 . S
C494 H497 0.929 . S
C495 C494 1.363 . S
C495 C501 1.428 . S
H496 C492 0.930 . S
H497 C494 0.929 . S
S498 N499 1.613 . S
S498 N500 1.610 1_455 S
N499 S498 1.613 . S
N499 C502 1.350 . S
N500 S498 1.610 1_655 S
N500 C501 1.351 . S
C501 C495 1.428 . S
C501 N500 1.351 . S
C501 C502 1.434 1_655 S
C502 C493 1.429 . S
C502 N499 1.350 . S
C502 C501 1.434 1_455 S
C503 C504 1.369 . S
C503 C505 1.419 . S
C503 H507 0.930 . S
C504 C503 1.369 . S
C504 C513 1.429 . S
C505 C503 1.419 . S
C505 C506 1.363 . S
C505 H508 0.929 . S
C506 C505 1.363 . S
C506 C512 1.428 . S
H507 C503 0.930 . S
H508 C505 0.929 . S
S509 N510 1.613 . S
S509 N511 1.610 . S
N510 S509 1.613 . S
N510 C513 1.350 . S
N511 S509 1.610 . S
N511 C512 1.351 . S
C512 C506 1.428 . S
C512 N511 1.351 . S
C512 C513 1.434 . S
C513 C504 1.429 . S
C513 N510 1.350 . S
C513 C512 1.434 . S
C514 C515 1.369 . S
C514 C516 1.419 . S
C514 H518 0.930 . S
C515 C514 1.369 . S
C515 C524 1.429 . S
C516 C514 1.419 . S
C516 C517 1.363 . S
C516 H519 0.929 . S
C517 C516 1.363 . S
C517 C523 1.428 . S
H518 C514 0.930 . S
H519 C516 0.929 . S
S520 N521 1.613 1_556 S
S520 N522 1.610 1_556 S
N521 S520 1.613 1_554 S
N521 C524 1.350 . S
N522 S520 1.610 1_554 S
N522 C523 1.351 . S
C523 C517 1.428 . S
C523 N522 1.351 . S
C523 C524 1.434 . S
C524 C515 1.429 . S
C524 N521 1.350 . S
C524 C523 1.434 . S
C525 C526 1.369 . S
C525 C527 1.419 . S
C525 H529 0.930 . S
C526 C525 1.369 . S
C526 C535 1.429 . S
C527 C525 1.419 . S
C527 C528 1.363 . S
C527 H530 0.929 . S
C528 C527 1.363 . S
C528 C534 1.428 . S
H529 C525 0.930 . S
H530 C527 0.929 . S
S531 N532 1.613 . S
S531 N533 1.610 . S
N532 S531 1.613 . S
N532 C535 1.350 . S
N533 S531 1.610 . S
N533 C534 1.351 . S
C534 C528 1.428 . S
C534 N533 1.351 . S
C534 C535 1.434 . S
C535 C526 1.429 . S
C535 N532 1.350 . S
C535 C534 1.434 . S
C536 C537 1.369 . S
C536 C538 1.419 . S
C536 H540 0.930 . S
C537 C536 1.369 . S
C537 C546 1.429 . S
C538 C536 1.419 . S
C538 C539 1.363 . S
C538 H541 0.929 . S
C539 C538 1.363 . S
C539 C545 1.428 . S
H540 C536 0.930 . S
H541 C538 0.929 . S
S542 N543 1.613 . S
S542 N544 1.610 . S
N543 S542 1.613 . S
N543 C546 1.350 . S
N544 S542 1.610 . S
N544 C545 1.351 . S
C545 C539 1.428 . S
C545 N544 1.351 . S
C545 C546 1.434 . S
C546 C537 1.429 . S
C546 N543 1.350 . S
C546 C545 1.434 . S
C547 C548 1.369 . S
C547 C549 1.419 . S
C547 H551 0.930 . S
C548 C547 1.369 . S
C548 C557 1.429 . S
C549 C547 1.419 . S
C549 C550 1.363 . S
C549 H552 0.929 . S
C550 C549 1.363 . S
C550 C556 1.428 . S
H551 C547 0.930 . S
H552 C549 0.929 . S
S553 N554 1.613 . S
S553 N555 1.610 . S
N554 S553 1.613 . S
N554 C557 1.350 . S
N555 S553 1.610 . S
N555 C556 1.351 . S
C556 C550 1.428 . S
C556 N555 1.351 . S
C556 C557 1.434 . S
C557 C548 1.429 . S
C557 N554 1.350 . S
C557 C556 1.434 . S
C558 C559 1.369 . S
C558 C560 1.419 . S
C558 H562 0.930 . S
C559 C558 1.369 . S
C559 C568 1.429 . S
C560 C558 1.419 . S
C560 C561 1.363 . S
C560 H563 0.929 . S
C561 C560 1.363 . S
C561 C567 1.428 . S
H562 C558 0.930 . S
H563 C560 0.929 . S
S564 N565 1.613 . S
S564 N566 1.610 . S
N565 S564 1.613 . S
N565 C568 1.350 . S
N566 S564 1.610 . S
N566 C567 1.351 . S
C567 C561 1.428 . S
C567 N566 1.351 . S
C567 C568 1.434 . S
C568 C559 1.429 . S
C568 N565 1.350 . S
C568 C567 1.434 . S
C569 C570 1.369 . S
C569 C571 1.419 . S
C569 H573 0.930 . S
C570 C569 1.369 . S
C570 C579 1.429 . S
C571 C569 1.419 . S
C571 C572 1.363 . S
C571 H574 0.929 . S
C572 C571 1.363 . S
C572 C578 1.428 . S
H573 C569 0.930 . S
H574 C571 0.929 . S
S575 N576 1.613 . S
S575 N577 1.610 . S
N576 S575 1.613 . S
N576 C579 1.350 . S
N577 S575 1.610 . S
N577 C578 1.351 . S
C578 C572 1.428 . S
C578 N577 1.351 . S
C578 C579 1.434 . S
C579 C570 1.429 . S
C579 N576 1.350 . S
C579 C578 1.434 . S
C580 C581 1.369 . S
C580 C582 1.419 . S
C580 H584 0.930 . S
C581 C580 1.369 . S
C581 C590 1.429 1_545 S
C582 C580 1.419 . S
C582 C583 1.363 1_545 S
C582 H585 0.929 . S
C583 C582 1.363 1_565 S
C583 C589 1.428 . S
H584 C580 0.930 . S
H585 C582 0.929 . S
S586 N587 1.613 . S
S586 N588 1.610 . S
N587 S586 1.613 . S
N587 C590 1.350 . S
N588 S586 1.610 . S
N588 C589 1.351 . S
C589 C583 1.428 . S
C589 N588 1.351 . S
C589 C590 1.434 . S
C590 C581 1.429 1_565 S
C590 N587 1.350 . S
C590 C589 1.434 . S
C591 C592 1.369 . S
C591 C593 1.419 1_655 S
C591 H595 0.930 . S
C592 C591 1.369 . S
C592 C601 1.429 1_545 S
C593 C591 1.419 1_455 S
C593 C594 1.363 1_545 S
C593 H596 0.929 . S
C594 C593 1.363 1_565 S
C594 C600 1.428 . S
H595 C591 0.930 . S
H596 C593 0.929 . S
S597 N598 1.613 . S
S597 N599 1.610 1_655 S
N598 S597 1.613 . S
N598 C601 1.350 . S
N599 S597 1.610 1_455 S
N599 C600 1.351 . S
C600 C594 1.428 . S
C600 N599 1.351 . S
C600 C601 1.434 1_455 S
C601 C592 1.429 1_565 S
C601 N598 1.350 . S
C601 C600 1.434 1_655 S
C602 C603 1.369 . S
C602 C604 1.419 . S
C602 H606 0.930 . S
C603 C602 1.369 . S
C603 C612 1.429 1_545 S
C604 C602 1.419 . S
C604 C605 1.363 1_545 S
C604 H607 0.929 . S
C605 C604 1.363 1_565 S
C605 C611 1.428 . S
H606 C602 0.930 . S
H607 C604 0.929 . S
S608 N609 1.613 . S
S608 N610 1.610 . S
N609 S608 1.613 . S
N609 C612 1.350 1_556 S
N610 S608 1.610 . S
N610 C611 1.351 1_556 S
C611 C605 1.428 . S
C611 N610 1.351 1_554 S
C611 C612 1.434 . S
C612 C603 1.429 1_565 S
C612 N609 1.350 1_554 S
C612 C611 1.434 . S
C613 C614 1.369 . S
C613 C615 1.419 1_455 S
C613 H617 0.930 . S
C614 C613 1.369 . S
C614 C623 1.429 1_545 S
C615 C613 1.419 1_655 S
C615 C616 1.363 1_545 S
C615 H618 0.929 . S
C616 C615 1.363 1_565 S
C616 C622 1.428 . S
H617 C613 0.930 . S
H618 C615 0.929 . S
S619 N620 1.613 . S
S619 N621 1.610 1_455 S
N620 S619 1.613 . S
N620 C623 1.350 . S
N621 S619 1.610 1_655 S
N621 C622 1.351 . S
C622 C616 1.428 . S
C622 N621 1.351 . S
C622 C623 1.434 1_655 S
C623 C614 1.429 1_565 S
C623 N620 1.350 . S
C623 C622 1.434 1_455 S
C624 C625 1.369 . S
C624 C626 1.419 . S
C624 H628 0.930 . S
C625 C624 1.369 . S
C625 C634 1.429 . S
C626 C624 1.419 . S
C626 C627 1.363 . S
C626 H629 0.929 . S
C627 C626 1.363 . S
C627 C633 1.428 . S
H628 C624 0.930 . S
H629 C626 0.929 . S
S630 N631 1.613 . S
S630 N632 1.610 . S
N631 S630 1.613 . S
N631 C634 1.350 . S
N632 S630 1.610 . S
N632 C633 1.351 . S
C633 C627 1.428 . S
C633 N632 1.351 . S
C633 C634 1.434 . S
C634 C625 1.429 . S
C634 N631 1.350 . S
C634 C633 1.434 . S
C635 C636 1.369 1_554 S
C635 C637 1.419 . S
C635 H639 0.930 1_554 S
C636 C635 1.369 1_556 S
C636 C645 1.429 1_556 S
C637 C635 1.419 . S
C637 C638 1.363 . S
C637 H640 0.929 . S
C638 C637 1.363 . S
C638 C644 1.428 . S
H639 C635 0.930 1_556 S
H640 C637 0.929 . S
S641 N642 1.613 1_554 S
S641 N643 1.610 . S
N642 S641 1.613 1_556 S
N642 C645 1.350 1_556 S
N643 S641 1.610 . S
N643 C644 1.351 . S
C644 C638 1.428 . S
C644 N643 1.351 . S
C644 C645 1.434 . S
C645 C636 1.429 1_554 S
C645 N642 1.350 1_554 S
C645 C644 1.434 . S
C646 C647 1.369 . S
C646 C648 1.419 . S
C646 H650 0.930 . S
C647 C646 1.369 . S
C647 C656 1.429 . S
C648 C646 1.419 . S
C648 C649 1.363 . S
C648 H651 0.929 . S
C649 C648 1.363 . S
C649 C655 1.428 . S
H650 C646 0.930 . S
H651 C648 0.929 . S
S652 N653 1.613 . S
S652 N654 1.610 . S
N653 S652 1.613 . S
N653 C656 1.350 . S
N654 S652 1.610 . S
N654 C655 1.351 . S
C655 C649 1.428 . S
C655 N654 1.351 . S
C655 C656 1.434 . S
C656 C647 1.429 . S
C656 N653 1.350 . S
C656 C655 1.434 . S
C657 C658 1.369 . S
C657 C659 1.419 . S
C657 H661 0.930 . S
C658 C657 1.369 . S
C658 C667 1.429 . S
C659 C657 1.419 . S
C659 C660 1.363 . S
C659 H662 0.929 . S
C660 C659 1.363 . S
C660 C666 1.428 . S
H661 C657 0.930 . S
H662 C659 0.929 . S
S663 N664 1.613 . S
S663 N665 1.610 . S
N664 S663 1.613 . S
N664 C667 1.350 . S
N665 S663 1.610 . S
N665 C666 1.351 . S
C666 C660 1.428 . S
C666 N665 1.351 . S
C666 C667 1.434 . S
C667 C658 1.429 . S
C667 N664 1.350 . S
C667 C666 1.434 . S
C668 C669 1.369 . S
C668 C670 1.419 . S
C668 H672 0.930 . S
C669 C668 1.369 . S
C669 C678 1.429 . S
C670 C668 1.419 . S
C670 C671 1.363 . S
C670 H673 0.929 . S
C671 C670 1.363 . S
C671 C677 1.428 . S
H672 C668 0.930 . S
H673 C670 0.929 . S
S674 N675 1.613 . S
S674 N676 1.610 . S
N675 S674 1.613 . S
N675 C678 1.350 . S
N676 S674 1.610 . S
N676 C677 1.351 . S
C677 C671 1.428 . S
C677 N676 1.351 . S
C677 C678 1.434 . S
C678 C669 1.429 . S
C678 N675 1.350 . S
C678 C677 1.434 . S
C679 C680 1.369 1_554 S
C679 C681 1.419 . S
C679 H683 0.930 1_554 S
C680 C679 1.369 1_556 S
C680 C689 1.429 1_556 S
C681 C679 1.419 . S
C681 C682 1.363 . S
C681 H684 0.929 . S
C682 C681 1.363 . S
C682 C688 1.428 . S
H683 C679 0.930 1_556 S
H684 C681 0.929 . S
S685 N686 1.613 1_554 S
S685 N687 1.610 . S
N686 S685 1.613 1_556 S
N686 C689 1.350 1_556 S
N687 S685 1.610 . S
N687 C688 1.351 . S
C688 C682 1.428 . S
C688 N687 1.351 . S
C688 C689 1.434 . S
C689 C680 1.429 1_554 S
C689 N686 1.350 1_554 S
C689 C688 1.434 . S
C690 C691 1.369 . S
C690 C692 1.419 . S
C690 H694 0.930 . S
C691 C690 1.369 . S
C691 C700 1.429 . S
C692 C690 1.419 . S
C692 C693 1.363 . S
C692 H695 0.929 . S
C693 C692 1.363 . S
C693 C699 1.428 . S
H694 C690 0.930 . S
H695 C692 0.929 . S
S696 N697 1.613 . S
S696 N698 1.610 . S
N697 S696 1.613 . S
N697 C700 1.350 . S
N698 S696 1.610 . S
N698 C699 1.351 . S
C699 C693 1.428 . S
C699 N698 1.351 . S
C699 C700 1.434 . S
C700 C691 1.429 . S
C700 N697 1.350 . S
C700 C699 1.434 . S
C701 C702 1.369 . S
C701 C703 1.419 . S
C701 H705 0.930 . S
C702 C701 1.369 . S
C702 C711 1.429 . S
C703 C701 1.419 . S
C703 C704 1.363 . S
C703 H706 0.929 . S
C704 C703 1.363 . S
C704 C710 1.428 . S
H705 C701 0.930 . S
H706 C703 0.929 . S
S707 N708 1.613 . S
S707 N709 1.610 . S
N708 S707 1.613 . S
N708 C711 1.350 . S
N709 S707 1.610 . S
N709 C710 1.351 . S
C710 C704 1.428 . S
C710 N709 1.351 . S
C710 C711 1.434 . S
C711 C702 1.429 . S
C711 N708 1.350 . S
C711 C710 1.434 . S
C712 C713 1.369 1_565 S
C712 C714 1.419 . S
C712 H716 0.930 . S
C713 C712 1.369 1_545 S
C713 C722 1.429 . S
C714 C712 1.419 . S
C714 C715 1.363 . S
C714 H717 0.929 . S
C715 C714 1.363 . S
C715 C721 1.428 1_565 S
H716 C712 0.930 . S
H717 C714 0.929 . S
S718 N719 1.613 . S
S718 N720 1.610 . S
N719 S718 1.613 . S
N719 C722 1.350 . S
N720 S718 1.610 . S
N720 C721 1.351 . S
C721 C715 1.428 1_545 S
C721 N720 1.351 . S
C721 C722 1.434 . S
C722 C713 1.429 . S
C722 N719 1.350 . S
C722 C721 1.434 . S
C723 C724 1.369 . S
C723 C725 1.419 . S
C723 H727 0.930 . S
C724 C723 1.369 . S
C724 C733 1.429 . S
C725 C723 1.419 . S
C725 C726 1.363 . S
C725 H728 0.929 . S
C726 C725 1.363 . S
C726 C732 1.428 . S
H727 C723 0.930 . S
H728 C725 0.929 . S
S729 N730 1.613 . S
S729 N731 1.610 . S
N730 S729 1.613 . S
N730 C733 1.350 . S
N731 S729 1.610 . S
N731 C732 1.351 . S
C732 C726 1.428 . S
C732 N731 1.351 . S
C732 C733 1.434 . S
C733 C724 1.429 . S
C733 N730 1.350 . S
C733 C732 1.434 . S
C734 C735 1.369 . S
C734 C736 1.419 . S
C734 H738 0.930 . S
C735 C734 1.369 . S
C735 C744 1.429 1_545 S
C736 C734 1.419 . S
C736 C737 1.363 1_545 S
C736 H739 0.929 . S
C737 C736 1.363 1_565 S
C737 C743 1.428 . S
H738 C734 0.930 . S
H739 C736 0.929 . S
S740 N741 1.613 . S
S740 N742 1.610 . S
N741 S740 1.613 . S
N741 C744 1.350 . S
N742 S740 1.610 . S
N742 C743 1.351 . S
C743 C737 1.428 . S
C743 N742 1.351 . S
C743 C744 1.434 . S
C744 C735 1.429 1_565 S
C744 N741 1.350 . S
C744 C743 1.434 . S
C745 C746 1.369 1_554 S
C745 C747 1.419 . S
C745 H749 0.930 1_554 S
C746 C745 1.369 1_556 S
C746 C755 1.429 1_556 S
C747 C745 1.419 . S
C747 C748 1.363 . S
C747 H750 0.929 . S
C748 C747 1.363 . S
C748 C754 1.428 . S
H749 C745 0.930 1_556 S
H750 C747 0.929 . S
S751 N752 1.613 1_554 S
S751 N753 1.610 . S
N752 S751 1.613 1_556 S
N752 C755 1.350 1_556 S
N753 S751 1.610 . S
N753 C754 1.351 . S
C754 C748 1.428 . S
C754 N753 1.351 . S
C754 C755 1.434 . S
C755 C746 1.429 1_554 S
C755 N752 1.350 1_554 S
C755 C754 1.434 . S
C756 C757 1.369 1_545 S
C756 C758 1.419 . S
C756 H760 0.930 . S
C757 C756 1.369 1_565 S
C757 C766 1.429 . S
C758 C756 1.419 . S
C758 C759 1.363 . S
C758 H761 0.929 . S
C759 C758 1.363 . S
C759 C765 1.428 1_545 S
H760 C756 0.930 . S
H761 C758 0.929 . S
S762 N763 1.613 . S
S762 N764 1.610 . S
N763 S762 1.613 . S
N763 C766 1.350 . S
N764 S762 1.610 . S
N764 C765 1.351 . S
C765 C759 1.428 1_565 S
C765 N764 1.351 . S
C765 C766 1.434 . S
C766 C757 1.429 . S
C766 N763 1.350 . S
C766 C765 1.434 . S
C767 C768 1.369 . S
C767 C769 1.419 . S
C767 H771 0.930 . S
C768 C767 1.369 . S
C768 C777 1.429 . S
C769 C767 1.419 . S
C769 C770 1.363 . S
C769 H772 0.929 . S
C770 C769 1.363 . S
C770 C776 1.428 . S
H771 C767 0.930 . S
H772 C769 0.929 . S
S773 N774 1.613 . S
S773 N775 1.610 . S
N774 S773 1.613 . S
N774 C777 1.350 . S
N775 S773 1.610 . S
N775 C776 1.351 . S
C776 C770 1.428 . S
C776 N775 1.351 . S
C776 C777 1.434 . S
C777 C768 1.429 . S
C777 N774 1.350 . S
C777 C776 1.434 . S
C778 C779 1.369 1_565 S
C778 C780 1.419 . S
C778 H782 0.930 . S
C779 C778 1.369 1_545 S
C779 C788 1.429 . S
C780 C778 1.419 . S
C780 C781 1.363 . S
C780 H783 0.929 . S
C781 C780 1.363 . S
C781 C787 1.428 1_565 S
H782 C778 0.930 . S
H783 C780 0.929 . S
S784 N785 1.613 . S
S784 N786 1.610 . S
N785 S784 1.613 . S
N785 C788 1.350 . S
N786 S784 1.610 . S
N786 C787 1.351 . S
C787 C781 1.428 1_545 S
C787 N786 1.351 . S
C787 C788 1.434 . S
C788 C779 1.429 . S
C788 N785 1.350 . S
C788 C787 1.434 . S
C789 C790 1.369 . S
C789 C791 1.419 . S
C789 H793 0.930 . S
C790 C789 1.369 . S
C790 C799 1.429 . S
C791 C789 1.419 . S
C791 C792 1.363 1_554 S
C791 H794 0.929 1_554 S
C792 C791 1.363 1_556 S
C792 C798 1.428 1_556 S
H793 C789 0.930 . S
H794 C791 0.929 1_556 S
S795 N796 1.613 . S
S795 N797 1.610 1_554 S
N796 S795 1.613 . S
N796 C799 1.350 . S
N797 S795 1.610 1_556 S
N797 C798 1.351 1_556 S
C798 C792 1.428 1_554 S
C798 N797 1.351 1_554 S
C798 C799 1.434 . S
C799 C790 1.429 . S
C799 N796 1.350 . S
C799 C798 1.434 . S
C800 C801 1.369 . S
C800 C802 1.419 . S
C800 H804 0.930 . S
C801 C800 1.369 . S
C801 C810 1.429 . S
C802 C800 1.419 . S
C802 C803 1.363 . S
C802 H805 0.929 . S
C803 C802 1.363 . S
C803 C809 1.428 . S
H804 C800 0.930 . S
H805 C802 0.929 . S
S806 N807 1.613 . S
S806 N808 1.610 . S
N807 S806 1.613 . S
N807 C810 1.350 . S
N808 S806 1.610 . S
N808 C809 1.351 . S
C809 C803 1.428 . S
C809 N808 1.351 . S
C809 C810 1.434 . S
C810 C801 1.429 . S
C810 N807 1.350 . S
C810 C809 1.434 . S
C811 C812 1.369 . S
C811 C813 1.419 . S
C811 H815 0.930 . S
C812 C811 1.369 . S
C812 C821 1.429 . S
C813 C811 1.419 . S
C813 C814 1.363 . S
C813 H816 0.929 . S
C814 C813 1.363 . S
C814 C820 1.428 . S
H815 C811 0.930 . S
H816 C813 0.929 . S
S817 N818 1.613 . S
S817 N819 1.610 . S
N818 S817 1.613 . S
N818 C821 1.350 . S
N819 S817 1.610 . S
N819 C820 1.351 . S
C820 C814 1.428 . S
C820 N819 1.351 . S
C820 C821 1.434 . S
C821 C812 1.429 . S
C821 N818 1.350 . S
C821 C820 1.434 . S
C822 C823 1.369 . S
C822 C824 1.419 . S
C822 H826 0.930 . S
C823 C822 1.369 . S
C823 C832 1.429 . S
C824 C822 1.419 . S
C824 C825 1.363 . S
C824 H827 0.929 . S
C825 C824 1.363 . S
C825 C831 1.428 . S
H826 C822 0.930 . S
H827 C824 0.929 . S
S828 N829 1.613 . S
S828 N830 1.610 . S
N829 S828 1.613 . S
N829 C832 1.350 . S
N830 S828 1.610 . S
N830 C831 1.351 . S
C831 C825 1.428 . S
C831 N830 1.351 . S
C831 C832 1.434 . S
C832 C823 1.429 . S
C832 N829 1.350 . S
C832 C831 1.434 . S
C833 C834 1.369 . S
C833 C835 1.419 . S
C833 H837 0.930 . S
C834 C833 1.369 . S
C834 C843 1.429 . S
C835 C833 1.419 . S
C835 C836 1.363 1_554 S
C835 H838 0.929 1_554 S
C836 C835 1.363 1_556 S
C836 C842 1.428 1_556 S
H837 C833 0.930 . S
H838 C835 0.929 1_556 S
S839 N840 1.613 . S
S839 N841 1.610 1_554 S
N840 S839 1.613 . S
N840 C843 1.350 . S
N841 S839 1.610 1_556 S
N841 C842 1.351 1_556 S
C842 C836 1.428 1_554 S
C842 N841 1.351 1_554 S
C842 C843 1.434 . S
C843 C834 1.429 . S
C843 N840 1.350 . S
C843 C842 1.434 . S
C844 C845 1.369 . S
C844 C846 1.419 . S
C844 H848 0.930 . S
C845 C844 1.369 . S
C845 C854 1.429 . S
C846 C844 1.419 . S
C846 C847 1.363 . S
C846 H849 0.929 . S
C847 C846 1.363 . S
C847 C853 1.428 . S
H848 C844 0.930 . S
H849 C846 0.929 . S
S850 N851 1.613 . S
S850 N852 1.610 . S
N851 S850 1.613 . S
N851 C854 1.350 . S
N852 S850 1.610 . S
N852 C853 1.351 . S
C853 C847 1.428 . S
C853 N852 1.351 . S
C853 C854 1.434 . S
C854 C845 1.429 . S
C854 N851 1.350 . S
C854 C853 1.434 . S
C855 C856 1.369 . S
C855 C857 1.419 . S
C855 H859 0.930 . S
C856 C855 1.369 . S
C856 C865 1.429 . S
C857 C855 1.419 . S
C857 C858 1.363 . S
C857 H860 0.929 . S
C858 C857 1.363 . S
C858 C864 1.428 . S
H859 C855 0.930 . S
H860 C857 0.929 . S
S861 N862 1.613 . S
S861 N863 1.610 . S
N862 S861 1.613 . S
N862 C865 1.350 . S
N863 S861 1.610 . S
N863 C864 1.351 . S
C864 C858 1.428 . S
C864 N863 1.351 . S
C864 C865 1.434 . S
C865 C856 1.429 . S
C865 N862 1.350 . S
C865 C864 1.434 . S
C866 C867 1.369 . S
C866 C868 1.419 . S
C866 H870 0.930 . S
C867 C866 1.369 . S
C867 C876 1.429 . S
C868 C866 1.419 . S
C868 C869 1.363 . S
C868 H871 0.929 . S
C869 C868 1.363 . S
C869 C875 1.428 . S
H870 C866 0.930 . S
H871 C868 0.929 . S
S872 N873 1.613 . S
S872 N874 1.610 . S
N873 S872 1.613 . S
N873 C876 1.350 . S
N874 S872 1.610 . S
N874 C875 1.351 . S
C875 C869 1.428 . S
C875 N874 1.351 . S
C875 C876 1.434 . S
C876 C867 1.429 . S
C876 N873 1.350 . S
C876 C875 1.434 . S
C877 C878 1.369 1_554 S
C877 C879 1.419 . S
C877 H881 0.930 . S
C878 C877 1.369 1_556 S
C878 C887 1.429 . S
C879 C877 1.419 . S
C879 C880 1.363 . S
C879 H882 0.929 . S
C880 C879 1.363 . S
C880 C886 1.428 . S
H881 C877 0.930 . S
H882 C879 0.929 . S
S883 N884 1.613 1_554 S
S883 N885 1.610 . S
N884 S883 1.613 1_556 S
N884 C887 1.350 . S
N885 S883 1.610 . S
N885 C886 1.351 . S
C886 C880 1.428 . S
C886 N885 1.351 . S
C886 C887 1.434 1_554 S
C887 C878 1.429 . S
C887 N884 1.350 . S
C887 C886 1.434 1_556 S
C888 C889 1.369 . S
C888 C890 1.419 . S
C888 H892 0.930 . S
C889 C888 1.369 . S
C889 C898 1.429 1_545 S
C890 C888 1.419 . S
C890 C891 1.363 1_545 S
C890 H893 0.929 . S
C891 C890 1.363 1_565 S
C891 C897 1.428 . S
H892 C888 0.930 . S
H893 C890 0.929 . S
S894 N895 1.613 . S
S894 N896 1.610 . S
N895 S894 1.613 . S
N895 C898 1.350 . S
N896 S894 1.610 . S
N896 C897 1.351 . S
C897 C891 1.428 . S
C897 N896 1.351 . S
C897 C898 1.434 . S
C898 C889 1.429 1_565 S
C898 N895 1.350 . S
C898 C897 1.434 . S
C899 C900 1.369 . S
C899 C901 1.419 . S
C899 H903 0.930 . S
C900 C899 1.369 . S
C900 C909 1.429 . S
C901 C899 1.419 . S
C901 C902 1.363 1_554 S
C901 H904 0.929 1_554 S
C902 C901 1.363 1_556 S
C902 C908 1.428 1_556 S
H903 C899 0.930 . S
H904 C901 0.929 1_556 S
S905 N906 1.613 . S
S905 N907 1.610 1_554 S
N906 S905 1.613 . S
N906 C909 1.350 . S
N907 S905 1.610 1_556 S
N907 C908 1.351 1_556 S
C908 C902 1.428 1_554 S
C908 N907 1.351 1_554 S
C908 C909 1.434 . S
C909 C900 1.429 . S
C909 N906 1.350 . S
C909 C908 1.434 . S
C910 C911 1.369 1_565 S
C910 C912 1.419 . S
C910 H914 0.930 . S
C911 C910 1.369 1_545 S
C911 C920 1.429 . S
C912 C910 1.419 . S
C912 C913 1.363 . S
C912 H915 0.929 . S
C913 C912 1.363 . S
C913 C919 1.428 1_565 S
H914 C910 0.930 . S
H915 C912 0.929 . S
S916 N917 1.613 . S
S916 N918 1.610 . S
N917 S916 1.613 . S
N917 C920 1.350 . S
N918 S916 1.610 . S
N918 C919 1.351 . S
C919 C913 1.428 1_545 S
C919 N918 1.351 . S
C919 C920 1.434 . S
C920 C911 1.429 . S
C920 N917 1.350 . S
C920 C919 1.434 . S
C921 C922 1.369 . S
C921 C923 1.419 . S
C921 H925 0.930 . S
C922 C921 1.369 . S
C922 C931 1.429 . S
C923 C921 1.419 . S
C923 C924 1.363 . S
C923 H926 0.929 . S
C924 C923 1.363 . S
C924 C930 1.428 . S
H925 C921 0.930 . S
H926 C923 0.929 . S
S927 N928 1.613 . S
S927 N929 1.610 . S
N928 S927 1.613 . S
N928 C931 1.350 . S
N929 S927 1.610 . S
N929 C930 1.351 . S
C930 C924 1.428 . S
C930 N929 1.351 . S
C930 C931 1.434 . S
C931 C922 1.429 . S
C931 N928 1.350 . S
C931 C930 1.434 . S
C932 C933 1.369 1_565 S
C932 C934 1.419 . S
C932 H936 0.930 . S
C933 C932 1.369 1_545 S
C933 C942 1.429 . S
C934 C932 1.419 . S
C934 C935 1.363 . S
C934 H937 0.929 . S
C935 C934 1.363 . S
C935 C941 1.428 1_565 S
H936 C932 0.930 . S
H937 C934 0.929 . S
S938 N939 1.613 . S
S938 N940 1.610 . S
N939 S938 1.613 . S
N939 C942 1.350 . S
N940 S938 1.610 . S
N940 C941 1.351 . S
C941 C935 1.428 1_545 S
C941 N940 1.351 . S
C941 C942 1.434 . S
C942 C933 1.429 . S
C942 N939 1.350 . S
C942 C941 1.434 . S
C943 C944 1.369 . S
C943 C945 1.419 1_554 S
C943 H947 0.930 . S
C944 C943 1.369 . S
C944 C953 1.429 . S
C945 C943 1.419 1_556 S
C945 C946 1.363 . S
C945 H948 0.929 . S
C946 C945 1.363 . S
C946 C952 1.428 1_556 S
H947 C943 0.930 . S
H948 C945 0.929 . S
S949 N950 1.613 . S
S949 N951 1.610 . S
N950 S949 1.613 . S
N950 C953 1.350 . S
N951 S949 1.610 . S
N951 C952 1.351 . S
C952 C946 1.428 1_554 S
C952 N951 1.351 . S
C952 C953 1.434 . S
C953 C944 1.429 . S
C953 N950 1.350 . S
C953 C952 1.434 . S
C954 C955 1.369 . S
C954 C956 1.419 . S
C954 H958 0.930 . S
C955 C954 1.369 . S
C955 C964 1.429 1_545 S
C956 C954 1.419 . S
C956 C957 1.363 1_545 S
C956 H959 0.929 . S
C957 C956 1.363 1_565 S
C957 C963 1.428 . S
H958 C954 0.930 . S
H959 C956 0.929 . S
S960 N961 1.613 . S
S960 N962 1.610 . S
N961 S960 1.613 . S
N961 C964 1.350 . S
N962 S960 1.610 . S
N962 C963 1.351 . S
C963 C957 1.428 . S
C963 N962 1.351 . S
C963 C964 1.434 . S
C964 C955 1.429 1_565 S
C964 N961 1.350 . S
C964 C963 1.434 . S
C965 C966 1.369 . S
C965 C967 1.419 . S
C965 H969 0.930 . S
C966 C965 1.369 . S
C966 C975 1.429 . S
C967 C965 1.419 . S
C967 C968 1.363 . S
C967 H970 0.929 . S
C968 C967 1.363 . S
C968 C974 1.428 . S
H969 C965 0.930 . S
H970 C967 0.929 . S
S971 N972 1.613 . S
S971 N973 1.610 . S
N972 S971 1.613 . S
N972 C975 1.350 . S
N973 S971 1.610 . S
N973 C974 1.351 . S
C974 C968 1.428 . S
C974 N973 1.351 . S
C974 C975 1.434 . S
C975 C966 1.429 . S
C975 N972 1.350 . S
C975 C974 1.434 . S
C976 C977 1.369 . S
C976 C978 1.419 . S
C976 H980 0.930 . S
C977 C976 1.369 . S
C977 C986 1.429 . S
C978 C976 1.419 . S
C978 C979 1.363 . S
C978 H981 0.929 . S
C979 C978 1.363 . S
C979 C985 1.428 . S
H980 C976 0.930 . S
H981 C978 0.929 . S
S982 N983 1.613 . S
S982 N984 1.610 . S
N983 S982 1.613 . S
N983 C986 1.350 . S
N984 S982 1.610 . S
N984 C985 1.351 . S
C985 C979 1.428 . S
C985 N984 1.351 . S
C985 C986 1.434 . S
C986 C977 1.429 . S
C986 N983 1.350 . S
C986 C985 1.434 . S
C987 C988 1.369 . S
C987 C989 1.419 . S
C987 H991 0.930 . S
C988 C987 1.369 . S
C988 C997 1.429 . S
C989 C987 1.419 . S
C989 C990 1.363 . S
C989 H992 0.929 . S
C990 C989 1.363 . S
C990 C996 1.428 . S
H991 C987 0.930 . S
H992 C989 0.929 . S
S993 N994 1.613 . S
S993 N995 1.610 . S
N994 S993 1.613 . S
N994 C997 1.350 . S
N995 S993 1.610 . S
N995 C996 1.351 . S
C996 C990 1.428 . S
C996 N995 1.351 . S
C996 C997 1.434 . S
C997 C988 1.429 . S
C997 N994 1.350 . S
C997 C996 1.434 . S
C998 C999 1.369 . S
C998 C1000 1.419 . S
C998 H1002 0.930 . S
C999 C998 1.369 . S
C999 C1008 1.429 . S
C1000 C998 1.419 . S
C1000 C1001 1.363 . S
C1000 H1003 0.929 . S
C1001 C1000 1.363 . S
C1001 C1007 1.428 . S
H1002 C998 0.930 . S
H1003 C1000 0.929 . S
S1004 N1005 1.613 . S
S1004 N1006 1.610 . S
N1005 S1004 1.613 . S
N1005 C1008 1.350 . S
N1006 S1004 1.610 . S
N1006 C1007 1.351 . S
C1007 C1001 1.428 . S
C1007 N1006 1.351 . S
C1007 C1008 1.434 . S
C1008 C999 1.429 . S
C1008 N1005 1.350 . S
C1008 C1007 1.434 . S
C1009 C1010 1.369 . S
C1009 C1011 1.419 . S
C1009 H1013 0.930 . S
C1010 C1009 1.369 . S
C1010 C1019 1.429 . S
C1011 C1009 1.419 . S
C1011 C1012 1.363 . S
C1011 H1014 0.929 . S
C1012 C1011 1.363 . S
C1012 C1018 1.428 . S
H1013 C1009 0.930 . S
H1014 C1011 0.929 . S
S1015 N1016 1.613 1_554 S
S1015 N1017 1.610 . S
N1016 S1015 1.613 1_556 S
N1016 C1019 1.350 . S
N1017 S1015 1.610 . S
N1017 C1018 1.351 1_554 S
C1018 C1012 1.428 . S
C1018 N1017 1.351 1_556 S
C1018 C1019 1.434 . S
C1019 C1010 1.429 . S
C1019 N1016 1.350 . S
C1019 C1018 1.434 . S
C1020 C1021 1.369 . S
C1020 C1022 1.419 . S
C1020 H1024 0.930 . S
C1021 C1020 1.369 . S
C1021 C1030 1.429 . S
C1022 C1020 1.419 . S
C1022 C1023 1.363 . S
C1022 H1025 0.929 . S
C1023 C1022 1.363 . S
C1023 C1029 1.428 . S
H1024 C1020 0.930 . S
H1025 C1022 0.929 . S
S1026 N1027 1.613 . S
S1026 N1028 1.610 . S
N1027 S1026 1.613 . S
N1027 C1030 1.350 . S
N1028 S1026 1.610 . S
N1028 C1029 1.351 . S
C1029 C1023 1.428 . S
C1029 N1028 1.351 . S
C1029 C1030 1.434 . S
C1030 C1021 1.429 . S
C1030 N1027 1.350 . S
C1030 C1029 1.434 . S
C1031 C1032 1.369 . S
C1031 C1033 1.419 . S
C1031 H1035 0.930 . S
C1032 C1031 1.369 . S
C1032 C1041 1.429 . S
C1033 C1031 1.419 . S
C1033 C1034 1.363 . S
C1033 H1036 0.929 . S
C1034 C1033 1.363 . S
C1034 C1040 1.428 . S
H1035 C1031 0.930 . S
H1036 C1033 0.929 . S
S1037 N1038 1.613 . S
S1037 N1039 1.610 . S
N1038 S1037 1.613 . S
N1038 C1041 1.350 . S
N1039 S1037 1.610 . S
N1039 C1040 1.351 . S
C1040 C1034 1.428 . S
C1040 N1039 1.351 . S
C1040 C1041 1.434 . S
C1041 C1032 1.429 . S
C1041 N1038 1.350 . S
C1041 C1040 1.434 . S
C1042 C1043 1.369 . S
C1042 C1044 1.419 . S
C1042 H1046 0.930 . S
C1043 C1042 1.369 . S
C1043 C1052 1.429 . S
C1044 C1042 1.419 . S
C1044 C1045 1.363 . S
C1044 H1047 0.929 . S
C1045 C1044 1.363 . S
C1045 C1051 1.428 . S
H1046 C1042 0.930 . S
H1047 C1044 0.929 . S
S1048 N1049 1.613 . S
S1048 N1050 1.610 . S
N1049 S1048 1.613 . S
N1049 C1052 1.350 . S
N1050 S1048 1.610 . S
N1050 C1051 1.351 . S
C1051 C1045 1.428 . S
C1051 N1050 1.351 . S
C1051 C1052 1.434 . S
C1052 C1043 1.429 . S
C1052 N1049 1.350 . S
C1052 C1051 1.434 . S
C1053 C1054 1.369 . S
C1053 C1055 1.419 . S
C1053 H1057 0.930 . S
C1054 C1053 1.369 . S
C1054 C1063 1.429 . S
C1055 C1053 1.419 . S
C1055 C1056 1.363 . S
C1055 H1058 0.929 . S
C1056 C1055 1.363 . S
C1056 C1062 1.428 . S
H1057 C1053 0.930 . S
H1058 C1055 0.929 . S
S1059 N1060 1.613 . S
S1059 N1061 1.610 . S
N1060 S1059 1.613 . S
N1060 C1063 1.350 . S
N1061 S1059 1.610 . S
N1061 C1062 1.351 . S
C1062 C1056 1.428 . S
C1062 N1061 1.351 . S
C1062 C1063 1.434 . S
C1063 C1054 1.429 . S
C1063 N1060 1.350 . S
C1063 C1062 1.434 . S
C1064 C1065 1.369 . S
C1064 C1066 1.419 . S
C1064 H1068 0.930 . S
C1065 C1064 1.369 . S
C1065 C1074 1.429 . S
C1066 C1064 1.419 . S
C1066 C1067 1.363 . S
C1066 H1069 0.929 . S
C1067 C1066 1.363 . S
C1067 C1073 1.428 . S
H1068 C1064 0.930 . S
H1069 C1066 0.929 . S
S1070 N1071 1.613 . S
S1070 N1072 1.610 . S
N1071 S1070 1.613 . S
N1071 C1074 1.350 . S
N1072 S1070 1.610 . S
N1072 C1073 1.351 . S
C1073 C1067 1.428 . S
C1073 N1072 1.351 . S
C1073 C1074 1.434 . S
C1074 C1065 1.429 . S
C1074 N1071 1.350 . S
C1074 C1073 1.434 . S
C1075 C1076 1.369 . S
C1075 C1077 1.419 . S
C1075 H1079 0.930 . S
C1076 C1075 1.369 . S
C1076 C1085 1.429 . S
C1077 C1075 1.419 . S
C1077 C1078 1.363 . S
C1077 H1080 0.929 . S
C1078 C1077 1.363 . S
C1078 C1084 1.428 . S
H1079 C1075 0.930 . S
H1080 C1077 0.929 . S
S1081 N1082 1.613 . S
S1081 N1083 1.610 . S
N1082 S1081 1.613 . S
N1082 C1085 1.350 . S
N1083 S1081 1.610 . S
N1083 C1084 1.351 . S
C1084 C1078 1.428 . S
C1084 N1083 1.351 . S
C1084 C1085 1.434 . S
C1085 C1076 1.429 . S
C1085 N1082 1.350 . S
C1085 C1084 1.434 . S
C1086 C1087 1.369 . S
C1086 C1088 1.419 . S
C1086 H1090 0.930 . S
C1087 C1086 1.369 . S
C1087 C1096 1.429 . S
C1088 C1086 1.419 . S
C1088 C1089 1.363 . S
C1088 H1091 0.929 . S
C1089 C1088 1.363 . S
C1089 C1095 1.428 . S
H1090 C1086 0.930 . S
H1091 C1088 0.929 . S
S1092 N1093 1.613 . S
S1092 N1094 1.610 . S
N1093 S1092 1.613 . S
N1093 C1096 1.350 . S
N1094 S1092 1.610 . S
N1094 C1095 1.351 . S
C1095 C1089 1.428 . S
C1095 N1094 1.351 . S
C1095 C1096 1.434 . S
C1096 C1087 1.429 . S
C1096 N1093 1.350 . S
C1096 C1095 1.434 . S
C1097 C1098 1.369 . S
C1097 C1099 1.419 . S
C1097 H1101 0.930 . S
C1098 C1097 1.369 . S
C1098 C1107 1.429 . S
C1099 C1097 1.419 . S
C1099 C1100 1.363 . S
C1099 H1102 0.929 . S
C1100 C1099 1.363 . S
C1100 C1106 1.428 . S
H1101 C1097 0.930 . S
H1102 C1099 0.929 . S
S1103 N1104 1.613 . S
S1103 N1105 1.610 . S
N1104 S1103 1.613 . S
N1104 C1107 1.350 . S
N1105 S1103 1.610 . S
N1105 C1106 1.351 . S
C1106 C1100 1.428 . S
C1106 N1105 1.351 . S
C1106 C1107 1.434 . S
C1107 C1098 1.429 . S
C1107 N1104 1.350 . S
C1107 C1106 1.434 . S
C1108 C1109 1.369 . S
C1108 C1110 1.419 . S
C1108 H1112 0.930 . S
C1109 C1108 1.369 . S
C1109 C1118 1.429 . S
C1110 C1108 1.419 . S
C1110 C1111 1.363 . S
C1110 H1113 0.929 . S
C1111 C1110 1.363 . S
C1111 C1117 1.428 . S
H1112 C1108 0.930 . S
H1113 C1110 0.929 . S
S1114 N1115 1.613 . S
S1114 N1116 1.610 . S
N1115 S1114 1.613 . S
N1115 C1118 1.350 . S
N1116 S1114 1.610 . S
N1116 C1117 1.351 . S
C1117 C1111 1.428 . S
C1117 N1116 1.351 . S
C1117 C1118 1.434 . S
C1118 C1109 1.429 . S
C1118 N1115 1.350 . S
C1118 C1117 1.434 . S
C1119 C1120 1.369 . S
C1119 C1121 1.419 . S
C1119 H1123 0.930 . S
C1120 C1119 1.369 . S
C1120 C1129 1.429 . S
C1121 C1119 1.419 . S
C1121 C1122 1.363 . S
C1121 H1124 0.929 . S
C1122 C1121 1.363 . S
C1122 C1128 1.428 . S
H1123 C1119 0.930 . S
H1124 C1121 0.929 . S
S1125 N1126 1.613 . S
S1125 N1127 1.610 . S
N1126 S1125 1.613 . S
N1126 C1129 1.350 . S
N1127 S1125 1.610 . S
N1127 C1128 1.351 . S
C1128 C1122 1.428 . S
C1128 N1127 1.351 . S
C1128 C1129 1.434 . S
C1129 C1120 1.429 . S
C1129 N1126 1.350 . S
C1129 C1128 1.434 . S
C1130 C1131 1.369 . S
C1130 C1132 1.419 . S
C1130 H1134 0.930 . S
C1131 C1130 1.369 . S
C1131 C1140 1.429 . S
C1132 C1130 1.419 . S
C1132 C1133 1.363 . S
C1132 H1135 0.929 . S
C1133 C1132 1.363 . S
C1133 C1139 1.428 . S
H1134 C1130 0.930 . S
H1135 C1132 0.929 . S
S1136 N1137 1.613 . S
S1136 N1138 1.610 . S
N1137 S1136 1.613 . S
N1137 C1140 1.350 . S
N1138 S1136 1.610 . S
N1138 C1139 1.351 . S
C1139 C1133 1.428 . S
C1139 N1138 1.351 . S
C1139 C1140 1.434 . S
C1140 C1131 1.429 . S
C1140 N1137 1.350 . S
C1140 C1139 1.434 . S
C1141 C1142 1.369 . S
C1141 C1143 1.419 . S
C1141 H1145 0.930 . S
C1142 C1141 1.369 . S
C1142 C1151 1.429 . S
C1143 C1141 1.419 . S
C1143 C1144 1.363 . S
C1143 H1146 0.929 . S
C1144 C1143 1.363 . S
C1144 C1150 1.428 . S
H1145 C1141 0.930 . S
H1146 C1143 0.929 . S
S1147 N1148 1.613 1_554 S
S1147 N1149 1.610 . S
N1148 S1147 1.613 1_556 S
N1148 C1151 1.350 . S
N1149 S1147 1.610 . S
N1149 C1150 1.351 1_554 S
C1150 C1144 1.428 . S
C1150 N1149 1.351 1_556 S
C1150 C1151 1.434 . S
C1151 C1142 1.429 . S
C1151 N1148 1.350 . S
C1151 C1150 1.434 . S
C449 C121 1.428 . S
C451 C9 1.419 . S
C460 C23 1.424 . S
C462 C359 1.422 . S
C471 C37 1.420 . S
C473 C149 1.426 . S
C482 C51 1.428 . S
C484 C387 1.419 . S
C493 C65 1.422 . S
C495 C177 1.424 . S
C504 C415 1.419 . S
C506 C79 1.426 . S
C515 C205 1.429 . S
C517 C93 1.419 . S
C526 C443 1.420 . S
C528 C107 1.425 . S
C537 C247 1.418 . S
C539 C135 1.427 . S
C548 C163 1.418 . S
C550 C275 1.427 . S
C559 C191 1.421 . S
C561 C303 1.424 . S
C570 C331 1.427 . S
C572 C219 1.420 . S
C581 C345 1.420 . S
C583 C233 1.425 . S
C592 C261 1.419 . S
C594 C373 1.426 . S
C603 C289 1.420 . S
C605 C401 1.426 . S
C614 C429 1.421 . S
C616 C317 1.425 . S
C625 C3 1.400 . S
C627 C59 1.406 . S
C636 C73 1.405 . S
C638 C17 1.406 . S
C647 C87 1.406 . S
C649 C31 1.401 . S
C658 C45 1.403 . S
C660 C101 1.401 . S
C669 C115 1.400 . S
C671 C171 1.404 . S
C680 C129 1.408 . S
C682 C185 1.402 . S
C691 C199 1.408 . S
C693 C143 1.403 . S
C702 C213 1.405 . S
C704 C157 1.406 . S
C713 C283 1.407 . S
C715 C227 1.405 . S
C724 C297 1.408 . S
C726 C241 1.404 . S
C735 C255 1.408 . S
C737 C311 1.403 . S
C746 C325 1.400 . S
C748 C269 1.406 . S
C757 C395 1.403 . S
C759 C339 1.407 . S
C768 C353 1.404 . S
C770 C409 1.406 . S
C779 C423 1.402 . S
C781 C367 1.402 . S
C790 C437 1.400 . S
C792 C381 1.405 . S
C801 C63 0.920 . S
C803 C7 0.911 . S
C812 C77 0.907 . S
C814 C21 0.917 . S
C823 C35 0.909 . S
C825 C91 0.918 . S
C834 C105 0.913 . S
C836 C49 0.918 . S
C845 C175 0.909 . S
C847 C119 0.918 . S
C856 C133 0.918 . S
C858 C189 0.909 . S
C867 C203 0.907 . S
C869 C147 0.917 . S
C878 C217 0.913 . S
C880 C161 0.918 . S
C889 C231 0.907 . S
C891 C287 0.912 . S
C900 C301 0.916 . S
C902 C245 0.917 . S
C911 C315 0.914 . S
C913 C259 0.908 . S
C922 C329 0.907 . S
C924 C273 0.913 . S
C933 C399 0.911 . S
C935 C343 0.908 . S
C944 C357 0.913 . S
C946 C413 0.918 . S
C955 C371 0.918 . S
C957 C427 0.916 . S
C966 C385 0.907 . S
C968 C441 0.916 . S
C977 C8 1.575 . S
C979 C302 1.575 . S
C988 C316 1.578 . S
C990 C22 1.572 . S
C999 C36 1.576 . S
C1001 C330 1.575 . S
C1010 C50 1.573 . S
C1012 C288 1.576 1_556 S
C1021 C274 1.572 . S
C1023 C64 1.578 . S
C1032 C232 1.579 . S
C1034 C78 1.572 . S
C1043 C246 1.578 . S
C1045 C92 1.573 1_556 S
C1054 C106 1.575 . S
C1056 C260 1.576 . S
C1065 C120 1.577 1_556 S
C1067 C414 1.575 . S
C1076 C428 1.573 . S
C1078 C134 1.577 . S
C1087 C442 1.572 . S
C1089 C148 1.577 . S
C1098 C400 1.574 . S
C1100 C162 1.576 . S
C1109 C386 1.573 . S
C1111 C176 1.578 . S
C1120 C344 1.574 . S
C1122 C190 1.576 . S
C1131 C204 1.579 . S
C1133 C358 1.573 . S
C1142 C218 1.573 . S
C1144 C372 1.577 1_556 S
