# Generated by pormake.
# Topology ukj, (4)-cn, num edge types: 1
# Building blocks:
#     Node 0, Type 0, BuildingBlock: ESEHIV_clean_sbu_0, # of connection points: 4
#     Node 1, Type 0, BuildingBlock: ESEHIV_clean_sbu_0, # of connection points: 4
#     Node 2, Type 0, BuildingBlock: ESEHIV_clean_sbu_0, # of connection points: 4
#     Node 3, Type 0, BuildingBlock: ESEHIV_clean_sbu_0, # of connection points: 4
#     Node 4, Type 0, BuildingBlock: ESEHIV_clean_sbu_0, # of connection points: 4
#     Node 5, Type 0, BuildingBlock: ESEHIV_clean_sbu_0, # of connection points: 4
#     Node 6, Type 0, BuildingBlock: ESEHIV_clean_sbu_0, # of connection points: 4
#     Node 7, Type 0, BuildingBlock: ESEHIV_clean_sbu_0, # of connection points: 4
#     Node 8, Type 0, BuildingBlock: ESEHIV_clean_sbu_0, # of connection points: 4
#     Node 9, Type 0, BuildingBlock: ESEHIV_clean_sbu_0, # of connection points: 4
#     Node 10, Type 0, BuildingBlock: ESEHIV_clean_sbu_0, # of connection points: 4
#     Node 11, Type 0, BuildingBlock: ESEHIV_clean_sbu_0, # of connection points: 4
#     Node 12, Type 0, BuildingBlock: ESEHIV_clean_sbu_0, # of connection points: 4
#     Node 13, Type 0, BuildingBlock: ESEHIV_clean_sbu_0, # of connection points: 4
#     Node 14, Type 0, BuildingBlock: ESEHIV_clean_sbu_0, # of connection points: 4
#     Node 15, Type 0, BuildingBlock: ESEHIV_clean_sbu_0, # of connection points: 4
#     Node 16, Type 0, BuildingBlock: ESEHIV_clean_sbu_0, # of connection points: 4
#     Node 17, Type 0, BuildingBlock: ESEHIV_clean_sbu_0, # of connection points: 4
#     Node 18, Type 0, BuildingBlock: ESEHIV_clean_sbu_0, # of connection points: 4
#     Node 19, Type 0, BuildingBlock: ESEHIV_clean_sbu_0, # of connection points: 4
#     Node 20, Type 0, BuildingBlock: ESEHIV_clean_sbu_0, # of connection points: 4
#     Node 21, Type 0, BuildingBlock: ESEHIV_clean_sbu_0, # of connection points: 4
#     Node 22, Type 0, BuildingBlock: ESEHIV_clean_sbu_0, # of connection points: 4
#     Node 23, Type 0, BuildingBlock: ESEHIV_clean_sbu_0, # of connection points: 4
#     Node 24, Type 0, BuildingBlock: ESEHIV_clean_sbu_0, # of connection points: 4
#     Node 25, Type 0, BuildingBlock: ESEHIV_clean_sbu_0, # of connection points: 4
#     Node 26, Type 0, BuildingBlock: ESEHIV_clean_sbu_0, # of connection points: 4
#     Node 27, Type 0, BuildingBlock: ESEHIV_clean_sbu_0, # of connection points: 4
#     Node 28, Type 0, BuildingBlock: ESEHIV_clean_sbu_0, # of connection points: 4
#     Node 29, Type 0, BuildingBlock: ESEHIV_clean_sbu_0, # of connection points: 4
#     Node 30, Type 0, BuildingBlock: ESEHIV_clean_sbu_0, # of connection points: 4
#     Node 31, Type 0, BuildingBlock: ESEHIV_clean_sbu_0, # of connection points: 4
#     Edge 32, Type (0, 0), BuildingBlock: EZIPEK_clean_linker_0, # of connection points: 2
#     Edge 33, Type (0, 0), BuildingBlock: EZIPEK_clean_linker_0, # of connection points: 2
#     Edge 34, Type (0, 0), BuildingBlock: EZIPEK_clean_linker_0, # of connection points: 2
#     Edge 35, Type (0, 0), BuildingBlock: EZIPEK_clean_linker_0, # of connection points: 2
#     Edge 36, Type (0, 0), BuildingBlock: EZIPEK_clean_linker_0, # of connection points: 2
#     Edge 37, Type (0, 0), BuildingBlock: EZIPEK_clean_linker_0, # of connection points: 2
#     Edge 38, Type (0, 0), BuildingBlock: EZIPEK_clean_linker_0, # of connection points: 2
#     Edge 39, Type (0, 0), BuildingBlock: EZIPEK_clean_linker_0, # of connection points: 2
#     Edge 40, Type (0, 0), BuildingBlock: EZIPEK_clean_linker_0, # of connection points: 2
#     Edge 41, Type (0, 0), BuildingBlock: EZIPEK_clean_linker_0, # of connection points: 2
#     Edge 42, Type (0, 0), BuildingBlock: EZIPEK_clean_linker_0, # of connection points: 2
#     Edge 43, Type (0, 0), BuildingBlock: EZIPEK_clean_linker_0, # of connection points: 2
#     Edge 44, Type (0, 0), BuildingBlock: EZIPEK_clean_linker_0, # of connection points: 2
#     Edge 45, Type (0, 0), BuildingBlock: EZIPEK_clean_linker_0, # of connection points: 2
#     Edge 46, Type (0, 0), BuildingBlock: EZIPEK_clean_linker_0, # of connection points: 2
#     Edge 47, Type (0, 0), BuildingBlock: EZIPEK_clean_linker_0, # of connection points: 2
#     Edge 48, Type (0, 0), BuildingBlock: EZIPEK_clean_linker_0, # of connection points: 2
#     Edge 49, Type (0, 0), BuildingBlock: EZIPEK_clean_linker_0, # of connection points: 2
#     Edge 50, Type (0, 0), BuildingBlock: EZIPEK_clean_linker_0, # of connection points: 2
#     Edge 51, Type (0, 0), BuildingBlock: EZIPEK_clean_linker_0, # of connection points: 2
#     Edge 52, Type (0, 0), BuildingBlock: EZIPEK_clean_linker_0, # of connection points: 2
#     Edge 53, Type (0, 0), BuildingBlock: EZIPEK_clean_linker_0, # of connection points: 2
#     Edge 54, Type (0, 0), BuildingBlock: EZIPEK_clean_linker_0, # of connection points: 2
#     Edge 55, Type (0, 0), BuildingBlock: EZIPEK_clean_linker_0, # of connection points: 2
#     Edge 56, Type (0, 0), BuildingBlock: EZIPEK_clean_linker_0, # of connection points: 2
#     Edge 57, Type (0, 0), BuildingBlock: EZIPEK_clean_linker_0, # of connection points: 2
#     Edge 58, Type (0, 0), BuildingBlock: EZIPEK_clean_linker_0, # of connection points: 2
#     Edge 59, Type (0, 0), BuildingBlock: EZIPEK_clean_linker_0, # of connection points: 2
#     Edge 60, Type (0, 0), BuildingBlock: EZIPEK_clean_linker_0, # of connection points: 2
#     Edge 61, Type (0, 0), BuildingBlock: EZIPEK_clean_linker_0, # of connection points: 2
#     Edge 62, Type (0, 0), BuildingBlock: EZIPEK_clean_linker_0, # of connection points: 2
#     Edge 63, Type (0, 0), BuildingBlock: EZIPEK_clean_linker_0, # of connection points: 2
#     Edge 64, Type (0, 0), BuildingBlock: EZIPEK_clean_linker_0, # of connection points: 2
#     Edge 65, Type (0, 0), BuildingBlock: EZIPEK_clean_linker_0, # of connection points: 2
#     Edge 66, Type (0, 0), BuildingBlock: EZIPEK_clean_linker_0, # of connection points: 2
#     Edge 67, Type (0, 0), BuildingBlock: EZIPEK_clean_linker_0, # of connection points: 2
#     Edge 68, Type (0, 0), BuildingBlock: EZIPEK_clean_linker_0, # of connection points: 2
#     Edge 69, Type (0, 0), BuildingBlock: EZIPEK_clean_linker_0, # of connection points: 2
#     Edge 70, Type (0, 0), BuildingBlock: EZIPEK_clean_linker_0, # of connection points: 2
#     Edge 71, Type (0, 0), BuildingBlock: EZIPEK_clean_linker_0, # of connection points: 2
#     Edge 72, Type (0, 0), BuildingBlock: EZIPEK_clean_linker_0, # of connection points: 2
#     Edge 73, Type (0, 0), BuildingBlock: EZIPEK_clean_linker_0, # of connection points: 2
#     Edge 74, Type (0, 0), BuildingBlock: EZIPEK_clean_linker_0, # of connection points: 2
#     Edge 75, Type (0, 0), BuildingBlock: EZIPEK_clean_linker_0, # of connection points: 2
#     Edge 76, Type (0, 0), BuildingBlock: EZIPEK_clean_linker_0, # of connection points: 2
#     Edge 77, Type (0, 0), BuildingBlock: EZIPEK_clean_linker_0, # of connection points: 2
#     Edge 78, Type (0, 0), BuildingBlock: EZIPEK_clean_linker_0, # of connection points: 2
#     Edge 79, Type (0, 0), BuildingBlock: EZIPEK_clean_linker_0, # of connection points: 2
#     Edge 80, Type (0, 0), BuildingBlock: EZIPEK_clean_linker_0, # of connection points: 2
#     Edge 81, Type (0, 0), BuildingBlock: EZIPEK_clean_linker_0, # of connection points: 2
#     Edge 82, Type (0, 0), BuildingBlock: EZIPEK_clean_linker_0, # of connection points: 2
#     Edge 83, Type (0, 0), BuildingBlock: EZIPEK_clean_linker_0, # of connection points: 2
#     Edge 84, Type (0, 0), BuildingBlock: EZIPEK_clean_linker_0, # of connection points: 2
#     Edge 85, Type (0, 0), BuildingBlock: EZIPEK_clean_linker_0, # of connection points: 2
#     Edge 86, Type (0, 0), BuildingBlock: EZIPEK_clean_linker_0, # of connection points: 2
#     Edge 87, Type (0, 0), BuildingBlock: EZIPEK_clean_linker_0, # of connection points: 2
#     Edge 88, Type (0, 0), BuildingBlock: EZIPEK_clean_linker_0, # of connection points: 2
#     Edge 89, Type (0, 0), BuildingBlock: EZIPEK_clean_linker_0, # of connection points: 2
#     Edge 90, Type (0, 0), BuildingBlock: EZIPEK_clean_linker_0, # of connection points: 2
#     Edge 91, Type (0, 0), BuildingBlock: EZIPEK_clean_linker_0, # of connection points: 2
#     Edge 92, Type (0, 0), BuildingBlock: EZIPEK_clean_linker_0, # of connection points: 2
#     Edge 93, Type (0, 0), BuildingBlock: EZIPEK_clean_linker_0, # of connection points: 2
#     Edge 94, Type (0, 0), BuildingBlock: EZIPEK_clean_linker_0, # of connection points: 2
#     Edge 95, Type (0, 0), BuildingBlock: EZIPEK_clean_linker_0, # of connection points: 2
# Relax obj value: 0.004
# Max RMSD: 0.105
# Mean RMSD: 0.104
data_MOF--net-ukj--node1-ESEHIV_clean_sbu_0--edge1-EZIPEK_clean_linker_0
_symmetry_space_group_name_H-M    P1
_symmetry_Int_Tables_number       1
_symmetry_cell_setting            triclinic
loop_
_symmetry_equiv_pos_as_xyz
'x, y, z'
_cell_length_a     30.179489
_cell_length_b     54.543908
_cell_length_c     41.317601
_cell_angle_alpha  89.971895
_cell_angle_beta   90.117132
_cell_angle_gamma 90.098699
loop_
_atom_site_label
_atom_site_type_symbol
_atom_site_fract_x
_atom_site_fract_y
_atom_site_fract_z
_atom_type_partial_charge
Cu0 Cu 0.1905 0.33712 0.25989 0.0
N1 N 0.253 0.33657 0.26203 0.0
N2 N 0.32291 0.35049 0.26278 0.0
C3 C 0.28069 0.35505 0.25371 0.0
C4 C 0.32205 0.3283 0.27711 0.0
C5 C 0.27891 0.31977 0.27663 0.0
O6 O 0.16893 0.35096 0.30072 0.0
C7 C 0.18887 0.34528 0.19438 0.0
O8 O 0.21624 0.32665 0.1963 0.0
H9 H 0.26976 0.37206 0.24285 0.0
H10 H 0.2669 0.30312 0.28782 0.0
N11 N 0.16527 0.30563 0.25659 0.0
N12 N 0.11313 0.27645 0.25351 0.0
C13 C 0.12152 0.3005 0.25837 0.0
C14 C 0.18503 0.28404 0.25016 0.0
C15 C 0.1529 0.26597 0.2484 0.0
C16 C 0.18886 0.36829 0.31545 0.0
O17 O 0.22159 0.37975 0.30103 0.0
H18 H 0.09625 0.31415 0.26276 0.0
H19 H 0.22019 0.28164 0.24641 0.0
O20 O 0.17297 0.35428 0.22038 0.0
H21 H 0.35023 0.31945 0.28837 0.0
H22 H 0.15816 0.24672 0.24335 0.0
Cu23 Cu 0.10722 0.92411 0.2646 0.0
N24 N 0.04524 0.92717 0.26693 0.0
N25 N 0.97412 0.91531 0.26742 0.0
C26 C 1.01682 0.90803 0.26847 0.0
C27 C 0.97548 0.93996 0.26507 0.0
C28 C 1.01947 0.94724 0.26474 0.0
O29 O 0.12145 0.90083 0.29877 0.0
C30 C 0.15542 0.90814 0.20735 0.0
O31 O 0.19033 0.90455 0.22575 0.0
H32 H 1.02724 0.88906 0.2694 0.0
H33 H 0.03173 0.96578 0.26217 0.0
N34 N 0.13782 0.95381 0.27252 0.0
N35 N 0.19223 0.9819 0.27356 0.0
C36 C 0.17846 0.96017 0.26149 0.0
C37 C 0.1258 0.97224 0.29234 0.0
C38 C 0.15925 0.98962 0.29297 0.0
C39 C 0.15713 0.89997 0.31525 0.0
O40 O 0.19176 0.91273 0.3059 0.0
H41 H 0.19812 0.94895 0.2455 0.0
H42 H 0.09528 0.97274 0.30599 0.0
O43 O 0.11861 0.91403 0.2201 0.0
H44 H 0.94678 0.95173 0.26294 0.0
H45 H 0.15977 0.00636 0.30702 0.0
Cu46 Cu 0.19331 0.9221 1.00405 0.0
N47 N 0.2558 0.92366 1.00474 0.0
N48 N 0.3263 0.91074 1.00553 0.0
C49 C 0.2833 0.90418 1.00245 0.0
C50 C 0.32605 0.93521 0.01003 0.0
C51 C 0.28254 0.94314 0.00954 0.0
O52 O 0.17834 0.90162 0.96659 0.0
C53 C 0.18736 0.92113 0.07032 0.0
O54 O 0.21021 0.94134 0.06565 0.0
H55 H 0.27199 0.88549 0.9993 0.0
H56 H 0.27122 0.96171 0.01331 0.0
N57 N 0.16554 0.95303 1.00001 0.0
N58 N 0.11242 0.98175 1.00145 0.0
C59 C 0.12376 0.95854 0.00937 0.0
C60 C 0.18084 0.97351 0.98557 0.0
C61 C 0.1482 0.99128 0.98654 0.0
C62 C 0.15031 0.9076 0.94483 0.0
O63 O 0.12514 0.92694 0.94898 0.0
H64 H 0.10171 0.94561 0.021 0.0
H65 H 0.21303 0.97523 0.97436 0.0
O66 O 0.17507 0.90864 0.04578 0.0
H67 H 0.35519 0.94641 0.01404 0.0
H68 H 0.15014 0.00957 0.97646 0.0
Cu69 Cu 0.11546 0.33911 0.99945 0.0
N70 N 0.05342 0.33765 0.99385 0.0
N71 N 0.98289 0.35044 0.99066 0.0
C72 C 1.02502 0.3565 0.99849 0.0
C73 C 0.98466 0.32695 0.98061 0.0
C74 C 1.02821 0.31916 0.98241 0.0
O75 O 0.13713 0.35778 0.96203 0.0
C76 C 0.16041 0.35231 0.05801 0.0
O77 O 0.19603 0.34377 0.04383 0.0
H78 H 0.03513 0.37444 0.00696 0.0
H79 H 0.0407 0.30143 0.97516 0.0
N80 N 0.14237 0.30774 1.00153 0.0
N81 N 0.19485 0.2787 1.00526 0.0
C82 C 0.18587 0.30232 0.99777 0.0
C83 C 0.12357 0.28673 0.01186 0.0
C84 C 0.15575 0.26882 0.01408 0.0
C85 C 0.14783 0.34676 0.93591 0.0
O86 O 0.14995 0.32272 0.93582 0.0
H87 H 0.2108 0.31566 0.99102 0.0
H88 H 0.08924 0.28486 0.01889 0.0
O89 O 0.12464 0.35448 0.04181 0.0
H90 H 0.95661 0.3164 0.972 0.0
H91 H 0.15123 0.25027 0.02285 0.0
Cu92 Cu 0.86089 0.67545 0.75642 0.0
N93 N 0.79851 0.67667 0.75324 0.0
N94 N 0.72825 0.6633 0.75074 0.0
C95 C 0.77013 0.65818 0.76017 0.0
C96 C 0.73006 0.68596 0.73775 0.0
C97 C 0.77339 0.69414 0.73928 0.0
O98 O 0.88337 0.66088 0.71627 0.0
C99 C 0.91372 0.65341 0.80653 0.0
O100 O 0.94705 0.65536 0.78629 0.0
H101 H 0.78038 0.64074 0.77019 0.0
H102 H 0.78607 0.71102 0.72915 0.0
N103 N 0.88684 0.70684 0.75944 0.0
N104 N 0.93929 0.73594 0.76239 0.0
C105 C 0.93052 0.71201 0.75675 0.0
C106 C 0.8675 0.72831 0.76708 0.0
C107 C 0.89974 0.7463 0.76876 0.0
C108 C 0.86307 0.64387 0.70115 0.0
O109 O 0.8294 0.63285 0.71497 0.0
H110 H 0.9556 0.69841 0.7516 0.0
H111 H 0.8326 0.73062 0.77204 0.0
O112 O 0.87482 0.65881 0.79703 0.0
H113 H 0.70247 0.69532 0.72645 0.0
H114 H 0.89481 0.76535 0.77513 0.0
Cu115 Cu 0.94602 0.08432 0.75133 0.0
N116 N 1.00853 0.08381 0.74788 0.0
N117 N 0.07854 0.09764 0.74552 0.0
C118 C 0.03664 0.10238 0.75518 0.0
C119 C 0.07697 0.0752 0.7319 0.0
C120 C 0.03383 0.06677 0.73328 0.0
O121 O 0.92265 0.09882 0.71141 0.0
C122 C 0.94724 0.09166 0.81698 0.0
O123 O 0.97411 0.07289 0.814 0.0
H124 H 1.02619 0.11957 0.76578 0.0
H125 H 1.02139 0.05004 0.72258 0.0
N126 N 0.92042 0.05278 0.75416 0.0
N127 N 0.86796 0.02373 0.75812 0.0
C128 C 0.87645 0.0479 0.75428 0.0
C129 C 0.94023 0.03087 0.75826 0.0
C130 C 0.90798 0.01292 0.76051 0.0
C131 C 0.94136 0.11664 0.69693 0.0
O132 O 0.97431 0.12816 0.71108 0.0
H133 H 0.85113 0.06185 0.75228 0.0
H134 H 0.97557 0.02814 0.76033 0.0
O135 O 0.93021 0.10099 0.79153 0.0
H136 H 0.10461 0.06616 0.7203 0.0
H137 H 0.91335 0.99353 0.76445 0.0
Cu138 Cu 0.86098 0.08769 0.00968 0.0
N139 N 0.79895 0.08437 0.01091 0.0
N140 N 0.72768 0.09587 0.01117 0.0
C141 C 0.77031 0.10336 0.01236 0.0
C142 C 0.72932 0.07123 0.00885 0.0
C143 C 0.77339 0.06416 0.00864 0.0
O144 O 0.87365 0.11063 0.04459 0.0
C145 C 0.91109 0.104 0.95328 0.0
O146 O 0.94575 0.10702 0.97214 0.0
H147 H 0.78053 0.12237 0.01363 0.0
H148 H 0.78586 0.04567 0.00635 0.0
N149 N 0.89136 0.05798 0.01786 0.0
N150 N 0.94553 0.02985 0.01976 0.0
C151 C 0.93208 0.05148 0.00719 0.0
C152 C 0.87898 0.03975 0.03794 0.0
C153 C 0.91225 0.02236 0.03909 0.0
C154 C 0.909 0.11188 0.06139 0.0
O155 O 0.94443 0.0999 0.052 0.0
H156 H 0.95206 0.06254 0.99115 0.0
H157 H 0.84834 0.03943 0.05146 0.0
O158 O 0.8738 0.09833 0.96554 0.0
H159 H 0.70075 0.05929 0.00686 0.0
H160 H 0.91248 0.00578 0.0535 0.0
Cu161 Cu 0.9405 0.66961 1.00589 0.0
N162 N 1.00308 0.67156 1.00525 0.0
N163 N 0.07419 0.65957 1.0059 0.0
C164 C 0.03153 0.65279 0.01035 0.0
C165 C 0.07273 0.68344 0.99753 0.0
C166 C 1.02887 0.69078 0.99709 0.0
O167 O 0.92451 0.64795 0.04185 0.0
C168 C 0.94006 0.64306 0.94532 0.0
O169 O 0.97224 0.62978 0.95752 0.0
H170 H 1.02114 0.63433 0.01626 0.0
H171 H 1.01663 0.70866 0.99025 0.0
N172 N 0.91262 0.70016 0.01282 0.0
N173 N 0.85935 0.72879 0.01429 0.0
C174 C 0.86953 0.70533 0.00682 0.0
C175 C 0.93 0.72111 0.02463 0.0
C176 C 0.89725 0.73881 0.02547 0.0
C177 C 0.93476 0.65564 0.07008 0.0
O178 O 0.95421 0.67708 0.073 0.0
H179 H 0.84609 0.69219 0.99714 0.0
H180 H 0.96401 0.72336 0.03234 0.0
O181 O 0.92114 0.65916 0.9628 0.0
H182 H 0.10125 0.69455 0.99136 0.0
H183 H 0.90082 0.75752 0.0338 0.0
Cu184 Cu 0.19217 0.84098 0.76252 0.0
N185 N 0.25428 0.83841 0.76038 0.0
N186 N 0.32548 0.85003 0.75956 0.0
C187 C 0.28318 0.8571 0.76452 0.0
C188 C 0.32333 0.82604 0.75191 0.0
C189 C 0.27934 0.81891 0.75241 0.0
O190 O 0.1801 0.86162 0.80021 0.0
C191 C 0.17948 0.84111 0.69654 0.0
O192 O 0.19708 0.81933 0.70072 0.0
H193 H 0.27335 0.87566 0.77037 0.0
H194 H 0.26649 0.80092 0.7466 0.0
N195 N 0.16372 0.81041 0.76785 0.0
N196 N 0.10979 0.78214 0.76895 0.0
C197 C 0.12118 0.80515 0.76016 0.0
C198 C 0.17958 0.78996 0.78198 0.0
C199 C 0.14639 0.77247 0.78265 0.0
C200 C 0.14839 0.85821 0.82007 0.0
O201 O 0.11769 0.84184 0.81363 0.0
H202 H 0.09852 0.81822 0.74948 0.0
H203 H 0.21256 0.78814 0.79196 0.0
O204 O 0.17275 0.85468 0.72118 0.0
H205 H 0.35148 0.81467 0.74584 0.0
H206 H 0.14846 0.75434 0.79321 0.0
Cu207 Cu 0.1138 0.42077 0.75966 0.0
N208 N 0.05172 0.42323 0.76116 0.0
N209 N 0.98111 0.41062 0.76295 0.0
C210 C 1.02404 0.404 0.7654 0.0
C211 C 0.9815 0.4349 0.75681 0.0
C212 C 1.02518 0.44263 0.75557 0.0
O213 O 0.12786 0.39861 0.79528 0.0
C214 C 0.16339 0.40461 0.70298 0.0
O215 O 0.19883 0.40272 0.72128 0.0
H216 H 0.03518 0.38538 0.76937 0.0
H217 H 0.03669 0.46093 0.74998 0.0
N218 N 0.1426 0.45125 0.76602 0.0
N219 N 0.19514 0.48044 0.76634 0.0
C220 C 0.1846 0.45726 0.7577 0.0
C221 C 0.12635 0.47141 0.7806 0.0
C222 C 0.15858 0.48945 0.78071 0.0
C223 C 0.16281 0.39841 0.81263 0.0
O224 O 0.19739 0.4114 0.80375 0.0
H225 H 0.2074 0.44488 0.74601 0.0
H226 H 0.09357 0.4728 0.79093 0.0
O227 O 0.12608 0.40945 0.71575 0.0
H228 H 0.95237 0.44602 0.75263 0.0
H229 H 0.15577 0.5076 0.79108 0.0
Cu230 Cu 0.1952 0.42568 0.50107 0.0
N231 N 0.25763 0.42649 0.4988 0.0
N232 N 0.32755 0.41268 0.49738 0.0
C233 C 0.28488 0.40725 0.50424 0.0
C234 C 0.32734 0.43616 0.48722 0.0
C235 C 0.28417 0.44458 0.48789 0.0
O236 O 0.17588 0.41089 0.4605 0.0
C237 C 0.19603 0.41742 0.56648 0.0
O238 O 0.22297 0.43625 0.56393 0.0
H239 H 0.27347 0.38937 0.512 0.0
H240 H 0.27284 0.46229 0.47962 0.0
N241 N 0.16831 0.45686 0.50353 0.0
N242 N 0.11451 0.48511 0.50657 0.0
C243 C 0.12426 0.46122 0.50163 0.0
C244 C 0.18682 0.4788 0.51016 0.0
C245 C 0.15375 0.49627 0.51184 0.0
C246 C 0.18099 0.38843 0.45323 0.0
O247 O 0.19366 0.37285 0.47567 0.0
H248 H 0.0997 0.44706 0.49757 0.0
H249 H 0.22168 0.48183 0.51461 0.0
O250 O 0.17882 0.40849 0.54082 0.0
H251 H 0.35611 0.44615 0.47877 0.0
H252 H 0.15797 0.51551 0.5175 0.0
Cu253 Cu 0.11131 0.83918 0.50077 0.0
N254 N 0.04953 0.83769 0.49441 0.0
N255 N 0.97917 0.85059 0.4907 0.0
C256 C 1.02066 0.85599 0.50084 0.0
C257 C 0.98188 0.82811 0.4773 0.0
C258 C 1.02535 0.82024 0.47949 0.0
O259 O 0.13358 0.85829 0.46404 0.0
C260 C 0.15606 0.85264 0.55929 0.0
O261 O 0.19248 0.84624 0.54425 0.0
H262 H 0.03011 0.87323 0.51184 0.0
H263 H 0.03864 0.80335 0.46989 0.0
N264 N 0.13827 0.80788 0.50218 0.0
N265 N 0.19093 0.77901 0.50572 0.0
C266 C 0.18202 0.80282 0.49951 0.0
C267 C 0.11917 0.78642 0.51041 0.0
C268 C 0.15153 0.76859 0.51256 0.0
C269 C 0.14402 0.84742 0.43777 0.0
O270 O 0.14567 0.82337 0.43732 0.0
H271 H 0.20706 0.81646 0.49417 0.0
H272 H 0.08439 0.78411 0.51588 0.0
O273 O 0.11969 0.85367 0.54364 0.0
H274 H 0.95462 0.81842 0.46599 0.0
H275 H 0.14682 0.74967 0.51971 0.0
Cu276 Cu 0.86419 0.16847 0.25017 0.0
N277 N 0.80209 0.17038 0.24631 0.0
N278 N 0.73107 0.15831 0.24501 0.0
C279 C 0.77331 0.15177 0.25156 0.0
C280 C 0.73314 0.18184 0.23517 0.0
C281 C 0.77702 0.18922 0.23585 0.0
O282 O 0.88391 0.15062 0.21162 0.0
C283 C 0.90621 0.1579 0.31078 0.0
O284 O 0.93713 0.17297 0.30073 0.0
H285 H 0.78319 0.13367 0.2595 0.0
H286 H 0.78979 0.2069 0.22852 0.0
N287 N 0.89124 0.19981 0.25203 0.0
N288 N 0.94391 0.22886 0.25339 0.0
C289 C 0.93403 0.20543 0.24553 0.0
C290 C 0.87378 0.2205 0.26439 0.0
C291 C 0.90613 0.23845 0.26517 0.0
C292 C 0.89165 0.16216 0.18531 0.0
O293 O 0.89087 0.18623 0.18546 0.0
H294 H 0.95801 0.19228 0.23678 0.0
H295 H 0.84041 0.22211 0.27362 0.0
O296 O 0.87523 0.15157 0.29147 0.0
H297 H 0.70505 0.1927 0.22746 0.0
H298 H 0.90278 0.25678 0.27489 0.0
Cu299 Cu 0.9418 0.59023 0.25465 0.0
N300 N 1.00385 0.58757 0.25099 0.0
N301 N 0.07514 0.59916 0.24905 0.0
C302 C 0.03288 0.60632 0.25416 0.0
C303 C 0.07279 0.57497 0.24253 0.0
C304 C 1.02878 0.5679 0.24353 0.0
O305 O 0.92269 0.60952 0.21724 0.0
C306 C 0.89614 0.6024 0.31309 0.0
O307 O 0.86096 0.59323 0.29882 0.0
H308 H 1.02317 0.62498 0.25952 0.0
H309 H 1.01592 0.54981 0.23845 0.0
N310 N 0.91303 0.55942 0.25488 0.0
N311 N 0.85816 0.53165 0.25636 0.0
C312 C 0.86994 0.55475 0.24805 0.0
C313 C 0.9287 0.53849 0.26785 0.0
C314 C 0.89506 0.52134 0.26867 0.0
C315 C 0.92758 0.59971 0.18944 0.0
O316 O 0.94221 0.57709 0.1877 0.0
H317 H 0.84698 0.56845 0.23923 0.0
H318 H 0.96148 0.53633 0.27804 0.0
O319 O 0.93171 0.6053 0.29697 0.0
H320 H 0.10082 0.56342 0.23674 0.0
H321 H 0.89676 0.5032 0.27925 0.0
Cu322 Cu 0.85927 0.58704 0.51435 0.0
N323 N 0.7968 0.58613 0.51143 0.0
N324 N 0.72677 0.59978 0.50938 0.0
C325 C 0.76989 0.6059 0.51301 0.0
C326 C 0.72632 0.57531 0.50496 0.0
C327 C 0.76953 0.56694 0.50613 0.0
O328 O 0.87366 0.60206 0.55589 0.0
C329 C 0.87088 0.59242 0.44927 0.0
O330 O 0.84919 0.57157 0.45088 0.0
H331 H 0.78167 0.62448 0.51606 0.0
H332 H 0.78017 0.54825 0.50257 0.0
N333 N 0.88697 0.55606 0.51504 0.0
N334 N 0.94194 0.52848 0.51377 0.0
C335 C 0.93034 0.55209 0.50884 0.0
C336 C 0.87094 0.53417 0.52472 0.0
C337 C 0.90476 0.51711 0.52381 0.0
C338 C 0.8709 0.62463 0.56323 0.0
O339 O 0.86192 0.64085 0.54065 0.0
H340 H 0.95338 0.56642 0.50211 0.0
H341 H 0.83757 0.53098 0.53316 0.0
O342 O 0.88035 0.60372 0.47544 0.0
H343 H 0.69692 0.56439 0.50065 0.0
H344 H 0.90267 0.49805 0.53098 0.0
Cu345 Cu 0.94167 0.17238 0.50975 0.0
N346 N 1.00426 0.1724 0.51057 0.0
N347 N 0.07367 0.1578 0.51191 0.0
C348 C 0.03043 0.15249 0.50692 0.0
C349 C 0.07495 0.1819 0.51898 0.0
C350 C 0.03211 0.19081 0.51842 0.0
O351 O 0.92372 0.15904 0.55144 0.0
C352 C 0.93863 0.16155 0.44496 0.0
O353 O 0.96853 0.17906 0.44539 0.0
H354 H 1.01795 0.13431 0.50162 0.0
H355 H 1.022 0.2092 0.52465 0.0
N356 N 0.9159 0.20372 0.50566 0.0
N357 N 0.86272 0.23215 0.50042 0.0
C358 C 0.87207 0.20858 0.50787 0.0
C359 C 0.93466 0.22497 0.49615 0.0
C360 C 0.90199 0.24255 0.49312 0.0
C361 C 0.92818 0.13664 0.55927 0.0
O362 O 0.93908 0.12055 0.53703 0.0
H363 H 0.8473 0.19488 0.51363 0.0
H364 H 0.96928 0.22732 0.49033 0.0
O365 O 0.92213 0.15417 0.47166 0.0
H366 H 0.10458 0.19207 0.52525 0.0
H367 H 0.9064 0.26126 0.48495 0.0
Cu368 Cu 0.69807 0.33518 0.75726 0.0
N369 N 0.75976 0.33386 0.76381 0.0
N370 N 0.82978 0.34726 0.76777 0.0
C371 C 0.78842 0.35222 0.7571 0.0
C372 C 0.8273 0.32493 0.78163 0.0
C373 C 0.784 0.31675 0.77931 0.0
O374 O 0.6759 0.35743 0.79019 0.0
C375 C 0.65106 0.34743 0.69961 0.0
O376 O 0.61521 0.34467 0.71717 0.0
H377 H 0.77882 0.36929 0.74573 0.0
H378 H 0.77085 0.29995 0.78938 0.0
N379 N 0.66992 0.3044 0.76092 0.0
N380 N 0.61572 0.27626 0.76115 0.0
C381 C 0.62601 0.30024 0.76455 0.0
C382 C 0.68771 0.2822 0.75503 0.0
C383 C 0.65439 0.26481 0.75528 0.0
C384 C 0.68017 0.35045 0.81947 0.0
O385 O 0.69507 0.32831 0.82546 0.0
H386 H 0.6018 0.31459 0.76814 0.0
H387 H 0.72213 0.27904 0.74919 0.0
O388 O 0.68899 0.34629 0.71302 0.0
H389 H 0.85452 0.31562 0.79347 0.0
H390 H 0.65788 0.24546 0.75009 0.0
Cu391 Cu 0.61508 0.9188 0.76567 0.0
N392 N 0.55287 0.92137 0.76428 0.0
N393 N 0.48173 0.90965 0.76265 0.0
C394 C 0.52422 0.90234 0.76602 0.0
C395 C 0.48348 0.93415 0.75855 0.0
C396 C 0.52742 0.94134 0.75954 0.0
O397 O 0.62802 0.89823 0.8036 0.0
C398 C 0.622 0.91822 0.69931 0.0
O399 O 0.60075 0.93889 0.70412 0.0
H400 H 0.53434 0.88345 0.76908 0.0
H401 H 0.53993 0.95976 0.75626 0.0
N402 N 0.64377 0.94939 0.77031 0.0
N403 N 0.69789 0.97761 0.77012 0.0
C404 C 0.68554 0.95483 0.76086 0.0
C405 C 0.62946 0.96946 0.78613 0.0
C406 C 0.66275 0.98691 0.78598 0.0
C407 C 0.65677 0.90349 0.82524 0.0
O408 O 0.68432 0.92178 0.8205 0.0
H409 H 0.70708 0.94202 0.7486 0.0
H410 H 0.59766 0.97099 0.79796 0.0
O411 O 0.63318 0.90532 0.7238 0.0
H412 H 0.45507 0.94586 0.75457 0.0
H413 H 0.66185 1.00471 0.79753 0.0
Cu414 Cu 0.69205 0.92141 0.5026 0.0
N415 N 0.75409 0.92384 0.49854 0.0
N416 N 0.82491 0.91169 0.49546 0.0
C417 C 0.78201 0.90458 0.4958 0.0
C418 C 0.82419 0.93631 0.49816 0.0
C419 C 0.78046 0.94376 0.50018 0.0
O420 O 0.67429 0.89901 0.46768 0.0
C421 C 0.64672 0.90542 0.56141 0.0
O422 O 0.61027 0.90284 0.54433 0.0
H423 H 0.77115 0.88567 0.49476 0.0
H424 H 0.76884 0.96234 0.50342 0.0
N425 N 0.66297 0.95196 0.49733 0.0
N426 N 0.60969 0.98066 0.49827 0.0
C427 C 0.62272 0.9584 0.50902 0.0
C428 C 0.67549 0.97093 0.47851 0.0
C429 C 0.64278 0.98866 0.47911 0.0
C430 C 0.64457 0.90403 0.44668 0.0
O431 O 0.618 0.9227 0.45142 0.0
H432 H 0.60257 0.94677 0.5242 0.0
H433 H 0.7056 0.97147 0.46438 0.0
O434 O 0.68301 0.91057 0.54727 0.0
H435 H 0.85323 0.94796 0.49929 0.0
H436 H 0.64263 0.00575 0.46578 0.0
Cu437 Cu 0.61055 0.33707 0.49681 0.0
N438 N 0.54813 0.33551 0.49826 0.0
N439 N 0.47786 0.34868 0.4996 0.0
C440 C 0.52102 0.35521 0.4989 0.0
C441 C 0.47752 0.32399 0.49976 0.0
C442 C 0.52093 0.31589 0.49913 0.0
O443 O 0.62579 0.35867 0.46089 0.0
C444 C 0.62037 0.33591 0.56276 0.0
O445 O 0.59989 0.31498 0.55771 0.0
H446 H 0.53268 0.37398 0.49862 0.0
H447 H 0.53171 0.29702 0.49948 0.0
N448 N 0.63895 0.30663 0.49026 0.0
N449 N 0.69296 0.27844 0.48898 0.0
C450 C 0.68153 0.30142 0.49785 0.0
C451 C 0.62324 0.28621 0.47584 0.0
C452 C 0.65642 0.26878 0.47514 0.0
C453 C 0.6147 0.35173 0.43255 0.0
O454 O 0.59428 0.33065 0.42884 0.0
H455 H 0.70398 0.31438 0.5091 0.0
H456 H 0.59039 0.28429 0.46572 0.0
O457 O 0.62988 0.34948 0.53866 0.0
H458 H 0.44801 0.31268 0.50026 0.0
H459 H 0.65427 0.25063 0.46469 0.0
Cu460 Cu 0.36111 0.67226 0.25764 0.0
N461 N 0.29911 0.67414 0.25257 0.0
N462 N 0.22872 0.66116 0.24908 0.0
C463 C 0.2702 0.65586 0.25924 0.0
C464 C 0.23142 0.68358 0.23549 0.0
C465 C 0.27489 0.69146 0.23748 0.0
O466 O 0.38146 0.65093 0.22294 0.0
C467 C 0.41007 0.65147 0.30995 0.0
O468 O 0.44212 0.64901 0.28874 0.0
H469 H 0.27978 0.63851 0.2699 0.0
H470 H 0.28818 0.70808 0.22703 0.0
N471 N 0.39017 0.7029 0.25516 0.0
N472 N 0.4449 0.73078 0.25674 0.0
C473 C 0.43448 0.70673 0.25408 0.0
C474 C 0.3723 0.72534 0.25885 0.0
C475 C 0.4059 0.74255 0.25965 0.0
C476 C 0.37629 0.65864 0.19405 0.0
O477 O 0.36147 0.68096 0.18926 0.0
H478 H 0.45868 0.69215 0.2528 0.0
H479 H 0.33746 0.72892 0.26243 0.0
O480 O 0.3726 0.65958 0.30084 0.0
H481 H 0.20432 0.69301 0.22367 0.0
H482 H 0.4022 0.76206 0.26355 0.0
Cu483 Cu 0.44193 0.08833 0.25291 0.0
N484 N 0.50432 0.08616 0.25273 0.0
N485 N 0.57528 0.09836 0.25166 0.0
C486 C 0.53249 0.10517 0.24826 0.0
C487 C 0.57421 0.07421 0.25855 0.0
C488 C 0.5304 0.06673 0.2592 0.0
O489 O 0.42659 0.10889 0.21563 0.0
C490 C 0.4374 0.08959 0.31924 0.0
O491 O 0.45923 0.0691 0.31452 0.0
H492 H 0.52184 0.12374 0.24335 0.0
H493 H 0.51845 0.04853 0.26486 0.0
N494 N 0.41314 0.0576 0.24959 0.0
N495 N 0.35943 0.02919 0.25225 0.0
C496 C 0.37128 0.05251 0.25922 0.0
C497 C 0.428 0.03673 0.23599 0.0
C498 C 0.39497 0.01916 0.2377 0.0
C499 C 0.39898 0.1027 0.19366 0.0
O500 O 0.37466 0.08294 0.19738 0.0
H501 H 0.34961 0.06576 0.2705 0.0
H502 H 0.46023 0.03458 0.225 0.0
O503 O 0.42519 0.10213 0.29474 0.0
H504 H 0.603 0.06295 0.26329 0.0
H505 H 0.39655 1.00061 0.22846 0.0
Cu506 Cu 0.35817 0.08637 0.51295 0.0
N507 N 0.29615 0.08284 0.51381 0.0
N508 N 0.22493 0.09444 0.51305 0.0
C509 C 0.26737 0.1016 0.51739 0.0
C510 C 0.22683 0.07026 0.50641 0.0
C511 C 0.27086 0.06316 0.50677 0.0
O512 O 0.37093 0.10907 0.54818 0.0
C513 C 0.40726 0.10323 0.45632 0.0
O514 O 0.44231 0.10636 0.47473 0.0
H515 H 0.27745 0.12036 0.52183 0.0
H516 H 0.28357 0.04517 0.50099 0.0
N517 N 0.38896 0.05658 0.51983 0.0
N518 N 0.44314 0.02842 0.51976 0.0
C519 C 0.43126 0.05143 0.51136 0.0
C520 C 0.37395 0.03603 0.53427 0.0
C521 C 0.40722 0.01861 0.53415 0.0
C522 C 0.40688 0.11109 0.56416 0.0
O523 O 0.44265 0.09975 0.55412 0.0
H524 H 0.45305 0.06416 0.49923 0.0
H525 H 0.34111 0.03385 0.5443 0.0
O526 O 0.37028 0.09749 0.46899 0.0
H527 H 0.19856 0.05882 0.50065 0.0
H528 H 0.40532 1.00022 0.54391 0.0
Cu529 Cu 0.44106 0.67259 0.50779 0.0
N530 N 0.50347 0.67461 0.50675 0.0
N531 N 0.57433 0.66228 0.50668 0.0
C532 C 0.53193 0.65612 0.51333 0.0
C533 C 0.5727 0.68549 0.49554 0.0
C534 C 0.52897 0.69304 0.49557 0.0
O535 O 0.42584 0.65091 0.5437 0.0
C536 C 0.44061 0.64526 0.44836 0.0
O537 O 0.47339 0.63258 0.46085 0.0
H538 H 0.52159 0.63813 0.52148 0.0
H539 H 0.51647 0.71035 0.48667 0.0
N540 N 0.41323 0.70316 0.51414 0.0
N541 N 0.3599 0.73172 0.51532 0.0
C542 C 0.36989 0.70808 0.50889 0.0
C543 C 0.43105 0.72449 0.52428 0.0
C544 C 0.39822 0.74214 0.52503 0.0
C545 C 0.43265 0.65925 0.57212 0.0
O546 O 0.447 0.68185 0.57551 0.0
H547 H 0.34612 0.6946 0.50051 0.0
H548 H 0.46546 0.72702 0.53085 0.0
O549 O 0.42126 0.66148 0.46531 0.0
H550 H 0.6009 0.69584 0.48683 0.0
H551 H 0.40205 0.7611 0.53223 0.0
Cu552 Cu 0.68911 0.84014 0.26267 0.0
N553 N 0.75151 0.83923 0.26187 0.0
N554 N 0.8218 0.85255 0.26277 0.0
C555 C 0.77897 0.85821 0.26847 0.0
C556 C 0.8215 0.82915 0.2523 0.0
C557 C 0.7781 0.82096 0.25181 0.0
O558 O 0.67379 0.86098 0.29975 0.0
C559 C 0.6889 0.86654 0.20204 0.0
O560 O 0.72215 0.87922 0.21393 0.0
H561 H 0.76765 0.87613 0.27608 0.0
H562 H 0.76658 0.80324 0.24358 0.0
N563 N 0.66401 0.80877 0.26851 0.0
N564 N 0.61322 0.77872 0.26894 0.0
C565 C 0.62284 0.8018 0.2593 0.0
C566 C 0.68094 0.78933 0.28437 0.0
C567 C 0.64966 0.77075 0.28466 0.0
C568 C 0.64443 0.85562 0.32082 0.0
O569 O 0.61723 0.83724 0.31555 0.0
H570 H 0.59979 0.8137 0.24681 0.0
H571 H 0.71326 0.78894 0.2957 0.0
O572 O 0.66888 0.85102 0.21989 0.0
H573 H 0.85044 0.81903 0.24461 0.0
H574 H 0.65285 0.75306 0.29629 0.0
Cu575 Cu 0.60472 0.42727 0.25504 0.0
N576 N 0.54242 0.4288 0.25647 0.0
N577 N 0.47235 0.41515 0.25754 0.0
C578 C 0.51544 0.40944 0.26206 0.0
C579 C 0.47195 0.4389 0.24859 0.0
C580 C 0.51524 0.44723 0.24771 0.0
O581 O 0.62213 0.40511 0.28979 0.0
C582 C 0.65598 0.41125 0.19998 0.0
O583 O 0.69021 0.40929 0.21945 0.0
H584 H 0.52725 0.39128 0.26813 0.0
H585 H 0.52609 0.4651 0.23963 0.0
N586 N 0.63316 0.45796 0.26075 0.0
N587 N 0.68673 0.48654 0.26211 0.0
C588 C 0.67693 0.46265 0.25715 0.0
C589 C 0.61501 0.47971 0.26865 0.0
C590 C 0.64792 0.49736 0.2694 0.0
C591 C 0.6184 0.41343 0.31848 0.0
O592 O 0.60691 0.43644 0.3226 0.0
H593 H 0.70129 0.44892 0.25112 0.0
H594 H 0.58036 0.4826 0.27385 0.0
O595 O 0.61796 0.41619 0.21144 0.0
H596 H 0.44262 0.44914 0.24191 0.0
H597 H 0.64383 0.5166 0.27507 0.0
Cu598 Cu 0.69677 0.42426 0.99752 0.0
N599 N 0.75929 0.42564 0.99646 0.0
N600 N 0.82955 0.41232 0.99498 0.0
C601 C 0.78632 0.40615 0.99213 0.0
C602 C 0.82994 0.43654 1.00137 0.0
C603 C 0.78659 0.44472 1.0023 0.0
O604 O 0.67929 0.40333 0.96153 0.0
C605 C 0.69256 0.42379 0.06375 0.0
O606 O 0.71489 0.44412 0.05869 0.0
H607 H 0.77453 0.38769 0.98781 0.0
H608 H 0.7758 0.46312 0.00789 0.0
N609 N 0.66797 0.45492 0.99352 0.0
N610 N 0.61399 0.48313 0.99527 0.0
C611 C 0.62535 0.45963 1.00149 0.0
C612 C 0.68383 0.47626 0.98178 0.0
C613 C 0.6506 0.49367 0.98283 0.0
C614 C 0.68187 0.41234 0.93314 0.0
O615 O 0.69282 0.4355 0.92964 0.0
H616 H 0.60299 0.44607 0.01146 0.0
H617 H 0.717 0.47891 0.97259 0.0
O618 O 0.68013 0.41106 0.03953 0.0
H619 H 0.85942 0.44738 1.00579 0.0
H620 H 0.65295 0.51255 0.97491 0.0
Cu621 Cu 0.61266 0.83821 0.00886 0.0
N622 N 0.55028 0.83624 0.00848 0.0
N623 N 0.47955 0.84882 0.008 0.0
C624 C 0.52237 0.85528 1.00355 0.0
C625 C 0.48037 0.8249 0.01616 0.0
C626 C 0.52402 0.8172 0.01653 0.0
O627 O 0.62753 0.85968 0.97222 0.0
C628 C 0.66496 0.85765 0.06262 0.0
O629 O 0.69836 0.85979 0.04247 0.0
H630 H 0.5333 0.8737 0.99793 0.0
H631 H 0.53583 0.79922 0.02339 0.0
N632 N 0.64011 0.80726 1.00343 0.0
N633 N 0.6924 0.77805 1.00241 0.0
C634 C 0.68254 0.80137 0.01067 0.0
C635 C 0.62289 0.78687 0.98989 0.0
C636 C 0.65501 0.76882 0.98932 0.0
C637 C 0.65682 0.8548 0.95093 0.0
O638 O 0.68431 0.83653 0.95568 0.0
H639 H 0.70632 0.81414 0.02057 0.0
H640 H 0.58957 0.78537 0.98042 0.0
O641 O 0.62748 0.85031 0.05224 0.0
H642 H 0.45157 0.81403 0.02239 0.0
H643 H 0.65152 0.7505 0.97955 0.0
Cu644 Cu 0.36368 0.17118 0.75073 0.0
N645 N 0.30174 0.17303 0.74591 0.0
N646 N 0.23097 0.16056 0.74376 0.0
C647 C 0.27325 0.1542 0.75047 0.0
C648 C 0.23278 0.18426 0.73454 0.0
C649 C 0.2765 0.19189 0.73576 0.0
O650 O 0.38445 0.15243 0.71328 0.0
C651 C 0.40856 0.15825 0.80922 0.0
O652 O 0.44429 0.16672 0.79502 0.0
H653 H 0.28339 0.13603 0.75797 0.0
H654 H 0.28903 0.20974 0.729 0.0
N655 N 0.39124 0.20236 0.75258 0.0
N656 N 0.44468 0.23088 0.7558 0.0
C657 C 0.43459 0.20754 0.74765 0.0
C658 C 0.37367 0.22325 0.76427 0.0
C659 C 0.40651 0.24087 0.76621 0.0
C660 C 0.39283 0.16349 0.68673 0.0
O661 O 0.3927 0.18756 0.68621 0.0
H662 H 0.4587 0.19416 0.73974 0.0
H663 H 0.33986 0.22518 0.77246 0.0
O664 O 0.37294 0.15581 0.79294 0.0
H665 H 0.20462 0.19507 0.72681 0.0
H666 H 0.40313 0.25923 0.7758 0.0
Cu667 Cu 0.44524 0.58731 0.75244 0.0
N668 N 0.50734 0.58587 0.74839 0.0
N669 N 0.57775 0.59904 0.74711 0.0
C670 C 0.53534 0.60473 0.75427 0.0
C671 C 0.57658 0.57569 0.73641 0.0
C672 C 0.5331 0.56767 0.73703 0.0
O673 O 0.42489 0.60792 0.71682 0.0
C674 C 0.39733 0.59954 0.80989 0.0
O675 O 0.36158 0.59373 0.79347 0.0
H676 H 0.52465 0.62256 0.76265 0.0
H677 H 0.52105 0.55009 0.72872 0.0
N678 N 0.41762 0.5562 0.75066 0.0
N679 N 0.36382 0.52778 0.75261 0.0
C680 C 0.37389 0.55152 0.74659 0.0
C681 C 0.43553 0.53457 0.75942 0.0
C682 C 0.40253 0.51704 0.76053 0.0
C683 C 0.43031 0.59959 0.68827 0.0
O684 O 0.44616 0.57737 0.68451 0.0
H685 H 0.3495 0.56549 0.74128 0.0
H686 H 0.46961 0.53204 0.76674 0.0
O687 O 0.43462 0.60043 0.7956 0.0
H688 H 0.60495 0.5655 0.72778 0.0
H689 H 0.40612 0.49823 0.76848 0.0
Cu690 Cu 0.36172 0.58786 0.01281 0.0
N691 N 0.29925 0.5858 0.01199 0.0
N692 N 0.22857 0.59849 0.0105 0.0
C693 C 0.2713 0.60499 0.01546 0.0
C694 C 0.2295 0.57436 1.00354 0.0
C695 C 0.27309 0.56659 1.00439 0.0
O696 O 0.37695 0.60853 0.04973 0.0
C697 C 0.37118 0.58818 0.94685 0.0
O698 O 0.35304 0.56655 0.95133 0.0
H699 H 0.28219 0.62354 0.02037 0.0
H700 H 0.28489 0.54844 0.99851 0.0
N701 N 0.3913 0.5574 0.01685 0.0
N702 N 0.44582 0.52952 0.01486 0.0
C703 C 0.43452 0.55323 0.01016 0.0
C704 C 0.37504 0.53552 0.02633 0.0
C705 C 0.40857 0.51829 0.02503 0.0
C706 C 0.37408 0.59912 0.0779 0.0
O707 O 0.36395 0.57579 0.08073 0.0
H708 H 0.45721 0.56727 1.00186 0.0
H709 H 0.34127 0.53228 0.03386 0.0
O710 O 0.37935 0.60168 0.97132 0.0
H711 H 0.20085 0.56339 0.9972 0.0
H712 H 0.4059 0.49904 0.03111 0.0
Cu713 Cu 0.44215 0.16996 0.01211 0.0
N714 N 0.50447 0.17127 0.00992 0.0
N715 N 0.57464 0.15789 0.00891 0.0
C716 C 0.5319 0.15202 0.01473 0.0
C717 C 0.57431 0.18166 0.99998 0.0
C718 C 0.53097 0.18987 1.0006 0.0
O719 O 0.42894 0.14991 0.05013 0.0
C720 C 0.42964 0.16897 0.94626 0.0
O721 O 0.44794 0.19065 0.94986 0.0
H722 H 0.52063 0.13387 0.02146 0.0
H723 H 0.51951 0.20792 0.99375 0.0
N724 N 0.41512 0.20105 0.0163 0.0
N725 N 0.36292 0.23031 0.0156 0.0
C726 C 0.3726 0.20665 0.00896 0.0
C727 C 0.43276 0.22196 0.02798 0.0
C728 C 0.40069 0.24003 0.02751 0.0
C729 C 0.39722 0.15358 0.06986 0.0
O730 O 0.36706 0.17017 0.06327 0.0
H731 H 0.34888 0.1935 0.99969 0.0
H732 H 0.46636 0.22383 0.03679 0.0
O733 O 0.42229 0.15582 0.9712 0.0
H734 H 0.60321 0.1921 0.99282 0.0
H735 H 0.40443 0.25872 0.0359 0.0
C736 C 0.2008 0.36845 0.1426 0.0
C737 C 0.17356 0.35305 0.16179 0.0
C738 C 0.13319 0.3396 0.11338 0.0
C739 C 0.16044 0.35504 0.09393 0.0
N740 N 0.21279 0.38828 0.09064 0.0
N741 N 0.10696 0.32919 0.16721 0.0
C742 C 0.19188 0.37084 0.10883 0.0
C743 C 0.13718 0.34057 0.1477 0.0
N744 N 0.23622 0.38002 0.15653 0.0
N745 N 0.10619 0.3225 0.09923 0.0
H746 H 0.1095 0.32932 0.1924 0.0
H747 H 0.07735 0.32174 0.15869 0.0
H748 H 0.10289 0.32038 0.0743 0.0
H749 H 0.08982 0.30885 0.11217 0.0
H750 H 0.26067 0.3891 0.1434 0.0
H751 H 0.24214 0.37956 0.18142 0.0
H752 H 0.23321 0.40181 0.10038 0.0
H753 H 0.20649 0.39057 0.06597 0.0
C754 C 0.14908 0.9331 0.12121 0.0
C755 C 0.17296 0.91511 0.1038 0.0
C756 C 0.1785 0.89029 0.15337 0.0
C757 C 0.16048 0.91002 0.17152 0.0
N758 N 0.13732 0.95254 0.17286 0.0
N759 N 0.21445 0.87739 0.10365 0.0
C760 C 0.14777 0.93201 0.15548 0.0
C761 C 0.18848 0.89376 0.11988 0.0
N762 N 0.12712 0.95119 0.10488 0.0
N763 N 0.1851 0.86809 0.1679 0.0
H764 H 0.2219 0.87916 0.07912 0.0
H765 H 0.23105 0.86301 0.11497 0.0
H766 H 0.17782 0.86489 0.19221 0.0
H767 H 0.19401 0.85234 0.15526 0.0
H768 H 0.10557 0.96343 0.1161 0.0
H769 H 0.12668 0.95224 0.07969 0.0
H770 H 0.1326 0.96967 0.16224 0.0
H771 H 0.13817 0.95329 0.19803 0.0
C772 C 0.89985 0.63055 0.85887 0.0
C773 C 0.92209 0.64958 0.84181 0.0
C774 C 0.96023 0.66167 0.89197 0.0
C775 C 0.93462 0.64441 0.90958 0.0
N776 N 0.87698 0.61391 0.9109 0.0
N777 N 0.96635 0.68658 0.8438 0.0
C778 C 0.90353 0.62923 0.89332 0.0
C779 C 0.95062 0.66595 0.85875 0.0
N780 N 0.87643 0.61328 0.84201 0.0
N781 N 0.99415 0.67391 0.90693 0.0
H782 H 0.95881 0.6912 0.81997 0.0
H783 H 0.98316 0.70048 0.856 0.0
H784 H 1.00168 0.67181 0.93142 0.0
H785 H 1.01728 0.6845 0.89449 0.0
H786 H 0.86305 0.5976 0.85253 0.0
H787 H 0.87351 0.61356 0.81685 0.0
H788 H 0.85031 0.60432 0.90108 0.0
H789 H 0.87985 0.61205 0.93596 0.0
C790 C 0.90304 0.081 0.90074 0.0
C791 C 0.91686 0.10252 0.91745 0.0
C792 C 0.94733 0.11887 0.86652 0.0
C793 C 0.93111 0.09795 0.84989 0.0
N794 N 0.88293 0.06279 0.84938 0.0
N795 N 0.9445 0.14399 0.91506 0.0
C796 C 0.90538 0.08029 0.86649 0.0
C797 C 0.93676 0.12212 0.89996 0.0
N798 N 0.8908 0.06045 0.9175 0.0
N799 N 0.97404 0.13514 0.85067 0.0
H800 H 0.93667 0.14704 0.9393 0.0
H801 H 0.95503 0.15969 0.90294 0.0
H802 H 0.98101 0.13365 0.82602 0.0
H803 H 0.99118 0.14922 0.86225 0.0
H804 H 0.88504 0.04358 0.90641 0.0
H805 H 0.89121 0.05927 0.94265 0.0
H806 H 0.85995 0.05099 0.85996 0.0
H807 H 0.88367 0.06194 0.82416 0.0
C808 C 0.19113 0.86643 0.6461 0.0
C809 C 0.16633 0.84854 0.66327 0.0
C810 C 0.13194 0.83469 0.61267 0.0
C811 C 0.15586 0.85298 0.59535 0.0
N812 N 0.20094 0.88943 0.59618 0.0
N813 N 0.10499 0.82036 0.66458 0.0
C814 C 0.18312 0.86991 0.61233 0.0
C815 C 0.13395 0.8343 0.64702 0.0
N816 N 0.22395 0.87914 0.66161 0.0
N817 N 0.10995 0.81651 0.59641 0.0
H818 H 0.10556 0.81985 0.68981 0.0
H819 H 0.07781 0.81139 0.65444 0.0
H820 H 0.10836 0.8154 0.57128 0.0
H821 H 0.09662 0.80114 0.60778 0.0
H822 H 0.24681 0.89023 0.6497 0.0
H823 H 0.23005 0.87745 0.68637 0.0
H824 H 0.21768 0.90371 0.60761 0.0
H825 H 0.19553 0.89242 0.57153 0.0
C826 C 0.19866 0.39021 0.61592 0.0
C827 C 0.18031 0.41055 0.59929 0.0
C828 C 0.1519 0.42696 0.65027 0.0
C829 C 0.16797 0.40597 0.66705 0.0
N830 N 0.19906 0.36531 0.66474 0.0
N831 N 0.12912 0.44425 0.59893 0.0
C832 C 0.1891 0.38684 0.64952 0.0
C833 C 0.15336 0.42751 0.61598 0.0
N834 N 0.22639 0.37463 0.59991 0.0
N835 N 0.13846 0.44729 0.66694 0.0
H836 H 0.12932 0.44495 0.57369 0.0
H837 H 0.10538 0.45546 0.60964 0.0
H838 H 0.13969 0.4487 0.69207 0.0
H839 H 0.1309 0.46388 0.65571 0.0
H840 H 0.245 0.36112 0.61142 0.0
H841 H 0.23257 0.37616 0.57514 0.0
H842 H 0.21069 0.34986 0.65266 0.0
H843 H 0.19201 0.36218 0.68911 0.0
C844 C 0.87286 0.16021 0.3666 0.0
C845 C 0.90614 0.15081 0.34567 0.0
C846 C 0.9512 0.1394 0.39301 0.0
C847 C 0.92212 0.15291 0.41305 0.0
N848 N 0.8548 0.17591 0.42 0.0
N849 N 0.97465 0.12908 0.33838 0.0
C850 C 0.88218 0.16268 0.40031 0.0
C851 C 0.94434 0.13932 0.35884 0.0
N852 N 0.83281 0.16731 0.35427 0.0
N853 N 0.98548 0.12684 0.40691 0.0
H854 H 0.96884 0.1273 0.31358 0.0
H855 H 1.0057 0.12285 0.34558 0.0
H856 H 0.99063 0.12662 0.43191 0.0
H857 H 1.0066 0.1152 0.39436 0.0
H858 H 0.80575 0.17197 0.36856 0.0
H859 H 0.82496 0.16658 0.32977 0.0
H860 H 0.82845 0.18646 0.41165 0.0
H861 H 0.85976 0.17738 0.44491 0.0
C862 C 0.92455 0.58884 0.36773 0.0
C863 C 0.89654 0.60441 0.34906 0.0
C864 C 0.85724 0.61671 0.39856 0.0
C865 C 0.88529 0.60118 0.41694 0.0
N866 N 0.95264 0.57801 0.42092 0.0
N867 N 0.84331 0.6372 0.34726 0.0
C868 C 0.92148 0.58925 0.40206 0.0
C869 C 0.86518 0.61971 0.36474 0.0
N870 N 0.95153 0.5722 0.35281 0.0
N871 N 0.82184 0.62764 0.41318 0.0
H872 H 0.84877 0.63986 0.32257 0.0
H873 H 0.82289 0.65039 0.35761 0.0
H874 H 0.81639 0.62658 0.43808 0.0
H875 H 0.79688 0.63673 0.40058 0.0
H876 H 0.96846 0.55847 0.36521 0.0
H877 H 0.95425 0.5705 0.3278 0.0
H878 H 0.98209 0.57084 0.41188 0.0
H879 H 0.951 0.57819 0.44612 0.0
C880 C 0.61379 0.3616 0.61331 0.0
C881 C 0.63437 0.34215 0.5962 0.0
C882 C 0.66624 0.3265 0.64665 0.0
C883 C 0.64756 0.34658 0.66375 0.0
N884 N 0.61076 0.38574 0.66268 0.0
N885 N 0.68939 0.3103 0.59486 0.0
C886 C 0.62356 0.36495 0.64683 0.0
C887 C 0.66364 0.326 0.61238 0.0
N888 N 0.58335 0.37608 0.598 0.0
N889 N 0.68381 0.30702 0.66308 0.0
H890 H 0.68878 0.30986 0.56962 0.0
H891 H 0.7145 0.29971 0.60506 0.0
H892 H 0.6849 0.30592 0.68824 0.0
H893 H 0.69324 0.29076 0.65182 0.0
H894 H 0.56337 0.38866 0.61003 0.0
H895 H 0.57597 0.37442 0.57343 0.0
H896 H 0.597 0.40087 0.65107 0.0
H897 H 0.61746 0.38869 0.68716 0.0
C898 C 0.65976 0.92941 0.64779 0.0
C899 C 0.63518 0.91187 0.6656 0.0
C900 C 0.62566 0.88753 0.6159 0.0
C901 C 0.64429 0.907 0.59747 0.0
N902 N 0.67088 0.94893 0.59605 0.0
N903 N 0.59084 0.87507 0.66629 0.0
C904 C 0.65954 0.92854 0.61346 0.0
C905 C 0.6174 0.89097 0.64966 0.0
N906 N 0.68373 0.94691 0.6638 0.0
N907 N 0.61672 0.86559 0.60132 0.0
H908 H 0.58457 0.87681 0.691 0.0
H909 H 0.57267 0.86116 0.6552 0.0
H910 H 0.62271 0.86242 0.57682 0.0
H911 H 0.6072 0.84996 0.61402 0.0
H912 H 0.70573 0.95875 0.65224 0.0
H913 H 0.68523 0.94778 0.689 0.0
H914 H 0.67748 0.96586 0.60673 0.0
H915 H 0.66899 0.94991 0.57092 0.0
C916 C 0.39398 0.63199 0.36406 0.0
C917 C 0.4193 0.64867 0.34515 0.0
C918 C 0.46199 0.66042 0.3934 0.0
C919 C 0.43404 0.64547 0.41275 0.0
N920 N 0.37052 0.61901 0.41768 0.0
N921 N 0.4715 0.68227 0.34292 0.0
C922 C 0.39914 0.6318 0.3984 0.0
C923 C 0.45199 0.66371 0.36005 0.0
N924 N 0.3661 0.6158 0.34904 0.0
N925 N 0.49823 0.67154 0.40691 0.0
H926 H 0.46432 0.68597 0.31873 0.0
H927 H 0.49168 0.69559 0.35341 0.0
H928 H 0.50563 0.67066 0.43153 0.0
H929 H 0.52287 0.6801 0.39335 0.0
H930 H 0.35 0.60155 0.36099 0.0
H931 H 0.36182 0.61531 0.32399 0.0
H932 H 0.34148 0.61089 0.40923 0.0
H933 H 0.37436 0.61785 0.44274 0.0
C934 C 0.39878 0.07925 0.40471 0.0
C935 C 0.41228 0.10119 0.42053 0.0
C936 C 0.44023 0.11708 0.36863 0.0
C937 C 0.42371 0.09584 0.35279 0.0
N938 N 0.37657 0.06019 0.35442 0.0
N939 N 0.43842 0.14288 0.41655 0.0
C940 C 0.39947 0.07809 0.37046 0.0
C941 C 0.4308 0.12072 0.40217 0.0
N942 N 0.38815 0.05881 0.42228 0.0
N943 N 0.46658 0.13317 0.35213 0.0
H944 H 0.43165 0.14617 0.44092 0.0
H945 H 0.44776 0.15851 0.40378 0.0
H946 H 0.47366 0.13125 0.32756 0.0
H947 H 0.48382 0.14743 0.36325 0.0
H948 H 0.38273 0.0417 0.41177 0.0
H949 H 0.38967 0.05806 0.44744 0.0
H950 H 0.35481 0.04816 0.3659 0.0
H951 H 0.37559 0.05913 0.32923 0.0
C952 C 0.71157 0.8496 0.14816 0.0
C953 C 0.68314 0.86509 0.16628 0.0
C954 C 0.64607 0.8779 0.11595 0.0
C955 C 0.67195 0.86078 0.09821 0.0
N956 N 0.72279 0.82661 0.09885 0.0
N957 N 0.62 0.89189 0.16849 0.0
C958 C 0.70316 0.84573 0.11466 0.0
C959 C 0.64933 0.87862 0.15046 0.0
N960 N 0.74693 0.83858 0.16293 0.0
N961 N 0.61961 0.89409 0.09969 0.0
H962 H 0.62241 0.89336 0.19361 0.0
H963 H 0.59166 0.90001 0.15893 0.0
H964 H 0.61684 0.89428 0.07452 0.0
H965 H 0.60332 0.90864 0.11077 0.0
H966 H 0.77196 0.82965 0.15025 0.0
H967 H 0.75326 0.8399 0.18766 0.0
H968 H 0.74165 0.81325 0.11046 0.0
H969 H 0.71674 0.82254 0.07466 0.0
C970 C 0.69408 0.39707 0.11374 0.0
C971 C 0.67795 0.41805 0.09716 0.0
C972 C 0.64964 0.43478 0.14796 0.0
C973 C 0.66287 0.41308 0.16443 0.0
N974 N 0.69053 0.37169 0.16202 0.0
N975 N 0.63018 0.45338 0.09678 0.0
C976 C 0.68299 0.39362 0.14701 0.0
C977 C 0.65242 0.43575 0.11378 0.0
N978 N 0.72152 0.38106 0.09819 0.0
N979 N 0.63713 0.45514 0.16495 0.0
H980 H 0.63076 0.45431 0.07157 0.0
H981 H 0.6075 0.46531 0.10737 0.0
H982 H 0.63678 0.45596 0.19013 0.0
H983 H 0.63185 0.47215 0.15413 0.0
H984 H 0.73845 0.36701 0.10994 0.0
H985 H 0.72979 0.38284 0.0738 0.0
H986 H 0.70102 0.35604 0.14984 0.0
H987 H 0.68266 0.36856 0.18625 0.0
C988 C 0.38053 0.17374 0.86288 0.0
C989 C 0.40749 0.15705 0.84521 0.0
C990 C 0.4443 0.14454 0.89574 0.0
C991 C 0.41697 0.16102 0.91317 0.0
N992 N 0.3517 0.18613 0.91513 0.0
N993 N 0.45794 0.12292 0.84529 0.0
C994 C 0.3825 0.1738 0.89724 0.0
C995 C 0.43709 0.14123 0.86187 0.0
N996 N 0.35555 0.19086 0.84698 0.0
N997 N 0.47851 0.13303 0.91122 0.0
H998 H 0.45309 0.12006 0.82056 0.0
H999 H 0.47683 0.10935 0.85639 0.0
H1000 H 0.48375 0.13447 0.93612 0.0
H1001 H 0.50302 0.12317 0.89926 0.0
H1002 H 0.33971 0.20531 0.85864 0.0
H1003 H 0.35357 0.19214 0.82189 0.0
H1004 H 0.32324 0.19392 0.90525 0.0
H1005 H 0.35241 0.18637 0.94037 0.0
C1006 C 0.41896 0.58113 0.86345 0.0
C1007 C 0.39565 0.59948 0.84586 0.0
C1008 C 0.35974 0.61306 0.8961 0.0
C1009 C 0.38435 0.59529 0.91359 0.0
N1010 N 0.44556 0.56715 0.91563 0.0
N1011 N 0.35075 0.63594 0.84602 0.0
C1012 C 0.41675 0.58095 0.89775 0.0
C1013 C 0.3682 0.61645 0.86243 0.0
N1014 N 0.44059 0.56274 0.8475 0.0
N1015 N 0.32685 0.62582 0.91128 0.0
H1016 H 0.35646 0.63889 0.82142 0.0
H1017 H 0.33393 0.65025 0.85724 0.0
H1018 H 0.32054 0.6242 0.93601 0.0
H1019 H 0.30416 0.63686 0.89911 0.0
H1020 H 0.45363 0.54742 0.85914 0.0
H1021 H 0.4419 0.56136 0.82238 0.0
H1022 H 0.47272 0.55812 0.90571 0.0
H1023 H 0.44495 0.56686 0.94087 0.0
C1024 C 1.01188 0.24202 0.28233 0.0
C1025 C 0.98709 0.24042 0.25321 0.0
C1026 C 0.04677 0.26168 0.22393 0.0
C1027 C 0.07043 0.2644 0.25339 0.0
N1028 N 0.07517 0.25941 0.31094 0.0
N1029 N 0.97793 0.25007 0.19699 0.0
C1030 C 0.05281 0.25516 0.28272 0.0
C1031 C 1.00386 0.25057 0.22412 0.0
N1032 N 0.99657 0.23032 0.30934 0.0
N1033 N 0.0659 0.26952 0.19582 0.0
H1034 H 0.94673 0.24179 0.19666 0.0
H1035 H 0.98591 0.25885 0.17542 0.0
H1036 H 0.09671 0.27822 0.19538 0.0
H1037 H 0.05269 0.26643 0.17292 0.0
H1038 H 1.01446 0.22867 0.33078 0.0
H1039 H 0.96661 0.22078 0.30965 0.0
H1040 H 0.06268 0.25537 0.33378 0.0
H1041 H 0.10571 0.2684 0.31158 0.0
C1042 C 0.26834 0.99216 0.29188 0.0
C1043 C 0.23447 0.99384 0.26814 0.0
C1044 C 0.28391 0.01821 0.23336 0.0
C1045 C 0.31694 0.01758 0.25781 0.0
N1046 N 0.34047 0.00609 0.31114 0.0
N1047 N 0.20737 0.00993 0.21786 0.0
C1048 C 0.30901 0.00515 0.28736 0.0
C1049 C 0.24163 0.00725 0.23922 0.0
N1050 N 0.26188 0.97739 0.31817 0.0
N1051 N 0.29355 0.02901 0.20438 0.0
H1052 H 0.1764 1.00189 0.22163 0.0
H1053 H 0.20847 0.02114 0.1975 0.0
H1054 H 0.32377 0.0377 0.19998 0.0
H1055 H 0.27295 0.02833 0.18419 0.0
H1056 H 0.28624 0.97343 0.33522 0.0
H1057 H 0.23249 0.96769 0.32184 0.0
H1058 H 0.33571 0.99958 0.33455 0.0
H1059 H 0.37097 0.01477 0.30784 0.0
C1060 C 0.06159 0.00634 0.03544 0.0
C1061 C 0.07003 0.9936 1.00622 0.0
C1062 C 0.99541 1.00412 0.98642 0.0
C1063 C 0.98779 0.01784 0.015 0.0
N1064 N 1.01432 0.03464 0.06508 0.0
N1065 N 0.04771 0.98177 0.95269 0.0
C1066 C 1.02111 0.01959 0.03915 0.0
C1067 C 0.0376 0.99291 0.98133 0.0
N1068 N 0.09239 0.00546 0.05968 0.0
N1069 N 0.96161 1.00135 0.96467 0.0
H1070 H 0.07778 0.97284 0.94888 0.0
H1071 H 1.02765 0.98238 0.9322 0.0
H1072 H 0.93073 0.00957 0.96787 0.0
H1073 H 0.96298 0.98992 0.94456 0.0
H1074 H 0.08714 0.01221 0.0829 0.0
H1075 H 0.12277 0.99661 0.05696 0.0
H1076 H 0.03833 0.03864 0.08239 0.0
H1077 H 0.98508 0.04455 0.06814 0.0
C1078 C 0.30289 0.24824 0.98182 0.0
C1079 C 0.32033 0.24236 0.01279 0.0
C1080 C 0.2571 0.26298 0.03849 0.0
C1081 C 0.23793 0.26715 0.00763 0.0
N1082 N 0.2393 0.26161 0.95005 0.0
N1083 N 0.31101 0.24041 0.07045 0.0
C1084 C 0.26003 0.2592 0.97928 0.0
C1085 C 0.29657 0.24877 0.04112 0.0
N1086 N 0.32809 0.24398 0.955 0.0
N1087 N 0.23807 0.27327 0.06517 0.0
H1088 H 0.33924 0.22956 0.07295 0.0
H1089 H 0.29311 0.24235 0.09181 0.0
H1090 H 0.20949 0.28396 0.06381 0.0
H1091 H 0.2525 0.27302 0.08808 0.0
H1092 H 0.31942 0.24974 0.93183 0.0
H1093 H 0.35953 0.23612 0.95633 0.0
H1094 H 0.25129 0.25413 0.92862 0.0
H1095 H 0.20823 0.26979 0.94769 0.0
C1096 C 0.99998 0.75496 0.79428 0.0
C1097 C 0.98234 0.74765 0.76393 0.0
C1098 C 0.05002 0.76233 0.73695 0.0
C1099 C 0.06635 0.77095 0.76706 0.0
N1100 N 0.05452 0.7793 0.82342 0.0
N1101 N 0.98703 0.74717 0.70595 0.0
C1102 C 0.04061 0.7683 0.79549 0.0
C1103 C 1.0065 0.75209 0.7351 0.0
N1104 N 0.97846 0.74837 0.822 0.0
N1105 N 0.07681 0.76339 0.71039 0.0
H1106 H 0.95521 0.73979 0.70407 0.0
H1107 H 1.00079 0.75201 0.68377 0.0
H1108 H 0.10861 0.7709 0.71123 0.0
H1109 H 0.06894 0.75543 0.68822 0.0
H1110 H 0.99158 0.75087 0.84509 0.0
H1111 H 0.94884 0.7385 0.82182 0.0
H1112 H 0.03544 0.78023 0.84434 0.0
H1113 H 0.08389 0.78937 0.82482 0.0
C1114 C 0.75403 0.99924 0.73685 0.0
C1115 C 0.74116 0.9888 0.76682 0.0
C1116 C 0.81102 1.00275 0.79146 0.0
C1117 C 0.82505 0.01198 0.76104 0.0
N1118 N 0.81335 0.01618 0.70383 0.0
N1119 N 0.75909 0.97726 0.82135 0.0
C1120 C 0.79738 0.00947 0.73344 0.0
C1121 C 0.7702 0.98965 0.79379 0.0
N1122 N 0.72414 0.99987 0.71201 0.0
N1123 N 0.83622 0.00727 0.81829 0.0
H1124 H 0.72942 0.96759 0.82363 0.0
H1125 H 0.78043 0.97495 0.84093 0.0
H1126 H 0.86629 0.01665 0.81722 0.0
H1127 H 0.82601 1.0034 0.84179 0.0
H1128 H 0.72945 0.00916 0.69035 0.0
H1129 H 0.69243 0.99237 0.71402 0.0
H1130 H 0.79683 0.01284 0.68213 0.0
H1131 H 0.84499 0.02355 0.70078 0.0
C1132 C 0.74643 0.75448 0.03521 0.0
C1133 C 0.73472 0.76578 1.0055 0.0
C1134 C 0.80437 0.7514 0.98111 0.0
C1135 C 0.81682 0.74085 0.01115 0.0
N1136 N 0.8024 0.73329 0.06733 0.0
N1137 N 0.75289 0.77733 0.95112 0.0
C1138 C 0.7885 0.74269 0.03839 0.0
C1139 C 0.76383 0.7648 0.97864 0.0
N1140 N 0.71656 0.75464 0.06001 0.0
N1141 N 0.83144 0.74831 0.95497 0.0
H1142 H 0.72331 0.78705 0.94884 0.0
H1143 H 0.77371 0.77932 0.93127 0.0
H1144 H 0.86181 0.73928 0.95657 0.0
H1145 H 0.82328 0.75354 0.9315 0.0
H1146 H 0.72074 0.74523 0.08169 0.0
H1147 H 0.68599 0.76345 0.05821 0.0
H1148 H 0.78573 0.73562 0.0891 0.0
H1149 H 0.8322 0.72379 0.06979 0.0
C1150 C 0.29559 0.51034 0.72798 0.0
C1151 C 0.32019 0.51698 0.75589 0.0
C1152 C 0.2636 0.49788 0.79043 0.0
C1153 C 0.23751 0.49265 0.7627 0.0
N1154 N 0.22505 0.4968 0.70552 0.0
N1155 N 0.3243 0.52136 0.81366 0.0
C1156 C 0.25258 0.49968 0.73152 0.0
C1157 C 0.30315 0.51198 0.78715 0.0
N1158 N 0.31408 0.51364 0.69817 0.0
N1159 N 0.2514 0.48845 0.81971 0.0
H1160 H 0.35286 0.53207 0.81186 0.0
H1161 H 0.31148 0.52044 0.83701 0.0
H1162 H 0.22322 0.47758 0.82264 0.0
H1163 H 0.27109 0.48952 0.84038 0.0
H1164 H 0.30012 0.50706 0.67681 0.0
H1165 H 0.34522 0.52165 0.6951 0.0
H1166 H 0.23206 0.50351 0.6825 0.0
H1167 H 0.19339 0.48926 0.7076 0.0
C1168 C 1.00261 0.51019 0.48149 0.0
C1169 C 0.98587 0.51802 0.51178 0.0
C1170 C 0.05331 0.5031 0.53877 0.0
C1171 C 0.07097 0.49619 0.50831 0.0
N1172 N 0.06584 0.49574 0.45036 0.0
N1173 N 0.99651 0.52521 0.56853 0.0
C1174 C 0.04642 0.50041 0.47953 0.0
C1175 C 1.01164 0.51536 0.54025 0.0
N1176 N 0.97598 0.51173 0.4548 0.0
N1177 N 0.076 0.4972 0.56631 0.0
H1178 H 0.96602 0.5341 0.57018 0.0
H1179 H 1.01516 0.52618 0.5897 0.0
H1180 H 0.10676 0.48858 0.56583 0.0
H1181 H 0.06334 0.49932 0.58954 0.0
H1182 H 0.98402 0.5044 0.43233 0.0
H1183 H 0.94423 0.51925 0.4557 0.0
H1184 H 0.05178 0.50031 0.42816 0.0
H1185 H 0.09782 0.48866 0.44846 0.0
C1186 C 0.29327 0.74949 0.54125 0.0
C1187 C 0.31708 0.74352 0.51278 0.0
C1188 C 0.25647 0.76024 0.47954 0.0
C1189 C 0.23402 0.76754 0.50803 0.0
N1190 N 0.23323 0.77265 0.56572 0.0
N1191 N 0.32496 0.74588 0.45506 0.0
C1192 C 0.2531 0.76313 0.53886 0.0
C1193 C 0.29958 0.74961 0.48193 0.0
N1194 N 0.30857 0.74136 0.57046 0.0
N1195 N 0.23586 0.76297 0.45032 0.0
H1196 H 0.35655 0.73819 0.45628 0.0
H1197 H 0.31629 0.75194 0.43202 0.0
H1198 H 0.2046 0.77096 0.44808 0.0
H1199 H 0.24814 0.75596 0.42872 0.0
H1200 H 0.29093 0.74295 0.59197 0.0
H1201 H 0.33767 0.7312 0.57274 0.0
H1202 H 0.24732 0.77223 0.58872 0.0
H1203 H 0.20396 0.78277 0.56451 0.0
C1204 C 0.79405 0.51218 0.22877 0.0
C1205 C 0.81396 0.52134 0.25741 0.0
C1206 C 0.75103 0.50603 0.2893 0.0
C1207 C 0.72984 0.49816 0.26047 0.0
N1208 N 0.72748 0.49671 0.20241 0.0
N1209 N 0.80882 0.53088 0.31402 0.0
C1210 C 0.75042 0.50205 0.23004 0.0
C1211 C 0.79161 0.51937 0.28745 0.0
N1212 N 0.81758 0.51263 0.20059 0.0
N1213 N 0.73299 0.49989 0.31849 0.0
H1214 H 0.83823 0.54094 0.31319 0.0
H1215 H 0.7923 0.53224 0.33603 0.0
H1216 H 0.70365 0.48986 0.32045 0.0
H1217 H 0.74873 0.5029 0.34057 0.0
H1218 H 0.80715 0.50412 0.17935 0.0
H1219 H 0.84926 0.52025 0.19912 0.0
H1220 H 0.7386 0.50106 0.17928 0.0
H1221 H 0.69544 0.48952 0.20281 0.0
C1222 C 0.76227 0.26312 0.46411 0.0
C1223 C 0.73593 0.26689 0.49202 0.0
C1224 C 0.79457 0.24878 0.5258 0.0
C1225 C 0.81941 0.24336 0.49761 0.0
N1226 N 0.8238 0.24133 0.43962 0.0
N1227 N 0.72324 0.26006 0.54864 0.0
C1228 C 0.80235 0.24944 0.46662 0.0
C1229 C 0.75111 0.25883 0.52272 0.0
N1230 N 0.74952 0.27334 0.4354 0.0
N1231 N 0.81324 0.24497 0.5555 0.0
H1232 H 0.69114 0.26699 0.54677 0.0
H1233 H 0.73045 0.2525 0.57118 0.0
H1234 H 0.84496 0.23769 0.55831 0.0
H1235 H 0.79887 0.2507 0.57709 0.0
H1236 H 0.76923 0.27337 0.41475 0.0
H1237 H 0.72064 0.28368 0.43305 0.0
H1238 H 0.811 0.24301 0.4163 0.0
H1239 H 0.8527 0.23089 0.44082 0.0
C1240 C 0.50523 0.25394 0.72916 0.0
C1241 C 0.48813 0.24208 0.75699 0.0
C1242 C 0.55399 0.25451 0.78814 0.0
C1243 C 0.57206 0.26533 0.75992 0.0
N1244 N 0.56795 0.27392 0.70302 0.0
N1245 N 0.49667 0.22876 0.812 0.0
C1246 C 0.54841 0.26467 0.73023 0.0
C1247 C 0.51269 0.24177 0.78628 0.0
N1248 N 0.47946 0.25527 0.70201 0.0
N1249 N 0.57626 0.25695 0.81677 0.0
H1250 H 0.46634 0.21957 0.81124 0.0
H1251 H 0.5142 0.22579 0.83334 0.0
H1252 H 0.60675 0.26594 0.81841 0.0
H1253 H 0.56372 0.25149 0.83907 0.0
H1254 H 0.48764 0.26542 0.68155 0.0
H1255 H 0.44822 0.24709 0.70064 0.0
H1256 H 0.55477 0.27223 0.67985 0.0
H1257 H 0.59901 0.28234 0.70344 0.0
C1258 C 0.51763 0.01605 0.53928 0.0
C1259 C 0.48539 0.01658 0.51427 0.0
C1260 C 0.53439 0.99212 0.47942 0.0
C1261 C 0.5675 0.99257 0.50385 0.0
N1262 N 0.59326 0.00632 0.55569 0.0
N1263 N 0.46342 0.00735 0.4598 0.0
C1264 C 0.5597 0.00486 0.53352 0.0
C1265 C 0.49399 0.00525 0.48406 0.0
N1266 N 0.50754 0.02617 0.56858 0.0
N1267 N 0.54126 0.97834 0.4523 0.0
H1268 H 0.43299 0.01603 0.46309 0.0
H1269 H 0.46888 1.00177 0.43606 0.0
H1270 H 0.57043 0.96854 0.44849 0.0
H1271 H 0.51734 0.97521 0.43461 0.0
H1272 H 0.52742 0.02471 0.58908 0.0
H1273 H 0.47773 0.03528 0.5728 0.0
H1274 H 0.59178 0.01659 0.57686 0.0
H1275 H 0.62406 0.99815 0.55194 0.0
C1276 C 0.55836 0.75589 0.23575 0.0
C1277 C 0.57118 0.76609 0.26591 0.0
C1278 C 0.50306 0.75004 0.29071 0.0
C1279 C 0.4885 0.74163 0.26 0.0
N1280 N 0.49942 0.73837 0.20267 0.0
N1281 N 0.55385 0.77593 0.32109 0.0
C1282 C 0.51553 0.74497 0.23232 0.0
C1283 C 0.54302 0.76391 0.29318 0.0
N1284 N 0.58778 0.7562 0.21069 0.0
N1285 N 0.47904 0.74413 0.31758 0.0
H1286 H 0.5827 0.78634 0.32344 0.0
H1287 H 0.53284 0.77722 0.34097 0.0
H1288 H 0.44986 0.73388 0.31639 0.0
H1289 H 0.48973 0.74753 0.34113 0.0
H1290 H 0.58258 0.74717 0.18883 0.0
H1291 H 0.6191 0.76419 0.21272 0.0
H1292 H 0.51528 0.74235 0.18095 0.0
H1293 H 0.46839 0.7302 0.19971 0.0
C1294 C 0.53985 0.49521 0.97485 0.0
C1295 C 0.57138 0.49469 1.00032 0.0
C1296 C 0.51941 0.51679 0.03566 0.0
C1297 C 0.48863 0.51822 0.00976 0.0
N1298 N 0.46971 0.51096 0.95419 0.0
N1299 N 0.59412 0.50663 0.05368 0.0
C1300 C 0.49898 0.50801 0.97915 0.0
C1301 C 0.56188 0.50594 0.03044 0.0
N1302 N 0.54898 0.48297 0.94681 0.0
N1303 N 0.50739 0.52551 0.06534 0.0
H1304 H 0.62509 0.49854 0.0504 0.0
H1305 H 0.59141 0.51619 0.07535 0.0
H1306 H 0.47702 0.53411 0.06935 0.0
H1307 H 0.52611 0.52324 0.08629 0.0
H1308 H 0.52644 0.48063 0.92799 0.0
H1309 H 0.57891 0.47386 0.94309 0.0
H1310 H 0.47622 0.50605 0.93035 0.0
H1311 H 0.43924 0.51968 0.95714 0.0
C1312 C 0.1429 0.38574 0.39875 0.0
C1313 C 0.18073 0.38112 0.41842 0.0
C1314 C 0.21879 0.36338 0.37152 0.0
C1315 C 0.18368 0.37109 0.35107 0.0
N1316 N 0.11317 0.39099 0.34439 0.0
N1317 N 0.25814 0.36979 0.42172 0.0
C1318 C 0.14575 0.38252 0.36448 0.0
C1319 C 0.21952 0.3709 0.40441 0.0
N1320 N 0.10396 0.39255 0.41294 0.0
N1321 N 0.25114 0.34837 0.35967 0.0
H1322 H 0.26132 0.37612 0.44538 0.0
H1323 H 0.28838 0.36492 0.41147 0.0
H1324 H 0.25135 0.34212 0.33583 0.0
H1325 H 0.27503 0.34007 0.37422 0.0
H1326 H 0.07408 0.39394 0.40043 0.0
H1327 H 0.10065 0.39475 0.4379 0.0
H1328 H 0.08703 0.40192 0.35217 0.0
H1329 H 0.11386 0.38835 0.31939 0.0
C1330 C 0.1739 0.8969 0.37552 0.0
C1331 C 0.1575 0.88607 0.34645 0.0
C1332 C 0.1267 0.85231 0.37843 0.0
C1333 C 0.14848 0.8612 0.40667 0.0
N1334 N 0.20115 0.8896 0.42987 0.0
N1335 N 0.1284 0.84994 0.32009 0.0
C1336 C 0.17464 0.8828 0.40459 0.0
C1337 C 0.13708 0.86266 0.34786 0.0
N1338 N 0.18616 0.92102 0.3762 0.0
N1339 N 0.09402 0.83502 0.38078 0.0
H1340 H 0.13747 0.85632 0.29723 0.0
H1341 H 0.11698 0.83188 0.32016 0.0
H1342 H 0.08228 0.82842 0.40285 0.0
H1343 H 0.07472 0.82963 0.36107 0.0
H1344 H 0.19421 0.93017 0.39756 0.0
H1345 H 0.18347 0.93268 0.35634 0.0
H1346 H 0.224 0.9039 0.42827 0.0
H1347 H 0.20366 0.87945 0.45118 0.0
C1348 C 0.15122 0.8968 0.85357 0.0
C1349 C 0.14864 0.87086 0.85202 0.0
C1350 C 0.14308 0.86908 0.91138 0.0
C1351 C 0.15003 0.89477 0.91301 0.0
N1352 N 0.17136 0.93218 0.88571 0.0
N1353 N 0.15242 0.83197 0.88004 0.0
C1354 C 0.15702 0.90842 0.88411 0.0
C1355 C 0.14733 0.85687 0.88109 0.0
N1356 N 0.14661 0.91046 0.82603 0.0
N1357 N 0.13099 0.8564 0.9385 0.0
H1358 H 0.1575 0.8223 0.85861 0.0
H1359 H 0.15628 0.8212 0.90068 0.0
H1360 H 0.12706 0.86472 0.96104 0.0
H1361 H 0.12084 0.83814 0.93802 0.0
H1362 H 0.14351 0.92948 0.82622 0.0
H1363 H 0.14149 0.90269 0.80327 0.0
H1364 H 0.18131 0.94213 0.86545 0.0
H1365 H 0.17794 0.94116 0.90747 0.0
C1366 C 0.14281 0.36121 0.84563 0.0
C1367 C 0.16243 0.38483 0.84412 0.0
C1368 C 0.17803 0.38224 0.90257 0.0
C1369 C 0.1526 0.36036 0.90464 0.0
N1370 N 0.09975 0.33343 0.87834 0.0
N1371 N 0.18886 0.42035 0.87377 0.0
C1372 C 0.13191 0.35102 0.87621 0.0
C1373 C 0.17754 0.39609 0.87328 0.0
N1374 N 0.13545 0.34812 0.81795 0.0
N1375 N 0.2037 0.38955 0.92807 0.0
H1376 H 0.1863 0.4318 0.85367 0.0
H1377 H 0.19592 0.42978 0.89511 0.0
H1378 H 0.2062 0.37956 0.94952 0.0
H1379 H 0.22603 0.4041 0.92655 0.0
H1380 H 0.12469 0.32994 0.81818 0.0
H1381 H 0.14501 0.35436 0.79514 0.0
H1382 H 0.08121 0.32768 0.85841 0.0
H1383 H 0.08756 0.32692 0.90032 0.0
C1384 C 0.83464 0.65031 0.64494 0.0
C1385 C 0.86863 0.64136 0.66552 0.0
C1386 C 0.90848 0.62585 0.61794 0.0
C1387 C 0.87143 0.63179 0.59808 0.0
N1388 N 0.79538 0.64552 0.59439 0.0
N1389 N 0.93694 0.6193 0.67242 0.0
C1390 C 0.83357 0.64308 0.61196 0.0
C1391 C 0.90552 0.62888 0.65223 0.0
N1392 N 0.80378 0.66625 0.65676 0.0
N1393 N 0.94685 0.61792 0.60392 0.0
H1394 H 0.93622 0.62182 0.69745 0.0
H1395 H 0.96204 0.60763 0.66469 0.0
H1396 H 0.95026 0.61581 0.57895 0.0
H1397 H 0.97635 0.61548 0.61659 0.0
H1398 H 0.78089 0.67532 0.64214 0.0
H1399 H 0.804 0.67237 0.68065 0.0
H1400 H 0.76538 0.65094 0.60457 0.0
H1401 H 0.7922 0.6398 0.57048 0.0
C1402 C 0.96904 0.11182 0.64036 0.0
C1403 C 0.93501 0.11978 0.66146 0.0
C1404 C 0.89269 0.13491 0.61465 0.0
C1405 C 0.92944 0.12983 0.59422 0.0
N1406 N 1.00641 0.11797 0.58943 0.0
N1407 N 0.86554 0.14043 0.66959 0.0
C1408 C 0.96857 0.11935 0.60749 0.0
C1409 C 0.89694 0.13166 0.64885 0.0
N1410 N 1.00146 0.09652 0.65156 0.0
N1411 N 0.8534 0.14217 0.60126 0.0
H1412 H 0.86724 0.13775 0.69457 0.0
H1413 H 0.83945 0.15164 0.66236 0.0
H1414 H 0.84908 0.14445 0.57638 0.0
H1415 H 0.82415 0.14391 0.61436 0.0
H1416 H 1.02449 0.08805 0.63652 0.0
H1417 H 1.00258 0.09027 0.67539 0.0
H1418 H 0.03699 0.11296 0.5991 0.0
H1419 H 1.00867 0.12426 0.5657 0.0
C1420 C 0.92509 0.12816 0.15117 0.0
C1421 C 0.89708 0.14896 0.15385 0.0
C1422 C 0.88583 0.1481 0.095 0.0
C1423 C 0.90811 0.12527 0.09298 0.0
N1424 N 0.93927 0.09064 0.12196 0.0
N1425 N 0.84043 0.17396 0.1286 0.0
C1426 C 0.9253 0.11445 0.1218 0.0
C1427 C 0.87455 0.15765 0.12584 0.0
N1428 N 0.95255 0.12181 0.1761 0.0
N1429 N 0.87625 0.16106 0.06758 0.0
H1430 H 0.82811 0.17985 0.15082 0.0
H1431 H 0.82072 0.17911 0.109 0.0
H1432 H 0.88601 0.15536 0.04458 0.0
H1433 H 0.86336 0.17878 0.06815 0.0
H1434 H 0.97652 0.10816 0.17402 0.0
H1435 H 0.95473 0.13183 0.19752 0.0
H1436 H 0.94805 0.08144 0.14314 0.0
H1437 H 0.93721 0.07915 0.1019 0.0
C1438 C 0.97116 0.63215 0.1147 0.0
C1439 C 0.93145 0.63968 0.09922 0.0
C1440 C 0.88801 0.6205 0.14288 0.0
C1441 C 0.92794 0.61492 0.15954 0.0
N1442 N 1.00716 0.61933 0.16421 0.0
N1443 N 0.852 0.64371 0.09995 0.0
C1444 C 0.96939 0.62184 0.14623 0.0
C1445 C 0.88974 0.6345 0.11361 0.0
N1446 N 1.01065 0.63409 0.09875 0.0
N1447 N 0.84864 0.61199 0.15471 0.0
H1448 H 0.8521 0.65355 0.07829 0.0
H1449 H 0.82106 0.64298 0.111 0.0
H1450 H 0.84629 0.60239 0.1765 0.0
H1451 H 0.81881 0.61309 0.1421 0.0
H1452 H 0.04006 0.62639 0.10715 0.0
H1453 H 1.01325 0.64135 0.07552 0.0
H1454 H 0.03749 0.62687 0.15747 0.0
H1455 H 1.0074 0.61177 0.18738 0.0
C1456 C 0.71769 0.39553 0.88337 0.0
C1457 C 0.68025 0.39633 0.9041 0.0
C1458 C 0.6415 0.3671 0.86868 0.0
C1459 C 0.67746 0.36815 0.84662 0.0
N1460 N 0.74617 0.38696 0.82994 0.0
N1461 N 0.60395 0.38582 0.91437 0.0
C1462 C 0.71428 0.38361 0.85296 0.0
C1463 C 0.64138 0.38286 0.89623 0.0
N1464 N 0.75747 0.40485 0.89358 0.0
N1465 N 0.60777 0.35081 0.86347 0.0
H1466 H 0.60273 0.3972 0.93463 0.0
H1467 H 0.57325 0.37853 0.90797 0.0
H1468 H 0.60578 0.33993 0.84274 0.0
H1469 H 0.5832 0.34708 0.88043 0.0
H1470 H 0.78701 0.40238 0.88099 0.0
H1471 H 0.76211 0.41271 0.91633 0.0
H1472 H 0.771 0.40018 0.83184 0.0
H1473 H 0.74561 0.37813 0.80761 0.0
C1474 C 0.65781 0.89336 0.91687 0.0
C1475 C 0.65605 0.86741 0.91883 0.0
C1476 C 0.65844 0.86499 0.85935 0.0
C1477 C 0.656 0.89091 0.85736 0.0
N1478 N 0.64217 0.92938 0.88459 0.0
N1479 N 0.64313 0.82886 0.89145 0.0
C1480 C 0.65259 0.90502 0.88624 0.0
C1481 C 0.65317 0.85329 0.88992 0.0
N1482 N 0.66599 0.90692 0.94404 0.0
N1483 N 0.66735 0.8515 0.83228 0.0
H1484 H 0.6367 0.81971 0.9131 0.0
H1485 H 0.6363 0.81829 0.87103 0.0
H1486 H 0.6722 0.85936 0.80955 0.0
H1487 H 0.67419 0.83279 0.83299 0.0
H1488 H 0.6723 0.9257 0.94343 0.0
H1489 H 0.67071 0.89909 0.96682 0.0
H1490 H 0.63491 0.93991 0.90492 0.0
H1491 H 0.63596 0.93847 0.86285 0.0
C1492 C 0.64196 0.86556 0.41254 0.0
C1493 C 0.64464 0.89147 0.41455 0.0
C1494 C 0.64272 0.894 0.35506 0.0
C1495 C 0.64445 0.86807 0.35303 0.0
N1496 N 0.65685 0.82944 0.38038 0.0
N1497 N 0.65918 0.92991 0.38727 0.0
C1498 C 0.64708 0.85388 0.38193 0.0
C1499 C 0.6482 0.90561 0.38567 0.0
N1500 N 0.63318 0.85206 0.43965 0.0
N1501 N 0.63441 0.90762 0.32795 0.0
H1502 H 0.66588 0.93896 0.40895 0.0
H1503 H 0.66653 0.94041 0.36689 0.0
H1504 H 0.62937 0.89983 0.30519 0.0
H1505 H 0.62818 0.9264 0.32865 0.0
H1506 H 0.62619 0.83335 0.439 0.0
H1507 H 0.62869 0.85994 0.46241 0.0
H1508 H 0.66353 0.81883 0.40078 0.0
H1509 H 0.66317 0.8203 0.35873 0.0
C1510 C 0.65592 0.36868 0.38449 0.0
C1511 C 0.61771 0.3686 0.40447 0.0
C1512 C 0.5788 0.39474 0.3655 0.0
C1513 C 0.61819 0.39677 0.34693 0.0
N1514 N 0.69593 0.38816 0.34036 0.0
N1515 N 0.54546 0.38468 0.41703 0.0
C1516 C 0.65727 0.38433 0.35678 0.0
C1517 C 0.57999 0.38261 0.39587 0.0
N1518 N 0.69047 0.35344 0.39165 0.0
N1519 N 0.53961 0.40341 0.35339 0.0
H1520 H 0.54501 0.37585 0.43938 0.0
H1521 H 0.51924 0.39682 0.41378 0.0
H1522 H 0.53694 0.41185 0.33084 0.0
H1523 H 0.509 0.40006 0.36413 0.0
H1524 H 0.71717 0.35053 0.37622 0.0
H1525 H 0.69111 0.34244 0.41233 0.0
H1526 H 0.72658 0.38176 0.34825 0.0
H1527 H 0.6979 0.39926 0.31984 0.0
C1528 C 0.34252 0.62582 0.15962 0.0
C1529 C 0.37878 0.64169 0.166 0.0
C1530 C 0.4141 0.62853 0.11531 0.0
C1531 C 0.37566 0.61465 0.10748 0.0
N1532 N 0.29919 0.60483 0.11885 0.0
N1533 N 0.44704 0.66044 0.14866 0.0
C1534 C 0.33881 0.61449 0.12881 0.0
C1535 C 0.41398 0.64375 0.14341 0.0
N1536 N 0.31145 0.62155 0.18297 0.0
N1537 N 0.45124 0.62643 0.09666 0.0
H1538 H 0.44915 0.67093 0.16973 0.0
H1539 H 0.47085 0.66491 0.13142 0.0
H1540 H 0.45259 0.61539 0.07608 0.0
H1541 H 0.48174 0.63402 0.10294 0.0
H1542 H 0.28724 0.60799 0.18095 0.0
H1543 H 0.31206 0.63 0.20556 0.0
H1544 H 0.26993 0.60657 0.13197 0.0
H1545 H 0.29425 0.59743 0.09584 0.0
C1546 C 0.39048 0.14153 0.16095 0.0
C1547 C 0.39826 0.11591 0.16209 0.0
C1548 C 0.39959 0.11464 0.10264 0.0
C1549 C 0.39661 0.14058 0.10159 0.0
N1550 N 0.3993 0.17912 0.1305 0.0
N1551 N 0.42081 0.0791 0.13403 0.0
C1552 C 0.3947 0.15418 0.13095 0.0
C1553 C 0.4057 0.10271 0.13293 0.0
N1554 N 0.37771 0.15371 0.18826 0.0
N1555 N 0.39511 0.10126 0.07487 0.0
H1556 H 0.42772 0.06993 0.1556 0.0
H1557 H 0.43108 0.06954 0.11355 0.0
H1558 H 0.38949 0.10924 0.05229 0.0
H1559 H 0.39246 0.08221 0.07472 0.0
H1560 H 0.367 0.17186 0.18808 0.0
H1561 H 0.37374 0.14506 0.21059 0.0
H1562 H 0.40271 0.18962 0.15141 0.0
H1563 H 0.40444 0.18914 0.10934 0.0
C1564 C 0.37393 0.1579 0.62775 0.0
C1565 C 0.3974 0.14974 0.65562 0.0
C1566 C 0.42506 0.11478 0.62416 0.0
C1567 C 0.40669 0.12501 0.59535 0.0
N1568 N 0.37335 0.16013 0.56937 0.0
N1569 N 0.45334 0.12299 0.67799 0.0
C1570 C 0.38414 0.14776 0.59704 0.0
C1571 C 0.4254 0.12893 0.65317 0.0
N1572 N 0.33994 0.17428 0.63061 0.0
N1573 N 0.43975 0.09109 0.62463 0.0
H1574 H 0.45565 0.13326 0.69921 0.0
H1575 H 0.47741 0.10939 0.67605 0.0
H1576 H 0.43771 0.07939 0.60478 0.0
H1577 H 0.44933 0.08221 0.64586 0.0
H1578 H 0.31948 0.17904 0.61125 0.0
H1579 H 0.32852 0.18069 0.65285 0.0
H1580 H 0.36031 0.17782 0.56956 0.0
H1581 H 0.38219 0.15397 0.54637 0.0
C1582 C 0.39065 0.617 0.63964 0.0
C1583 C 0.42885 0.61611 0.65971 0.0
C1584 C 0.47041 0.6401 0.61975 0.0
C1585 C 0.43123 0.64303 0.60108 0.0
N1586 N 0.35248 0.63706 0.59506 0.0
N1587 N 0.50289 0.63013 0.67169 0.0
C1588 C 0.39086 0.63215 0.61142 0.0
C1589 C 0.46801 0.62873 0.65062 0.0
N1590 N 0.35448 0.60307 0.64732 0.0
N1591 N 0.51046 0.64707 0.60727 0.0
H1592 H 0.50275 0.62169 0.6943 0.0
H1593 H 0.53025 0.64144 0.66799 0.0
H1594 H 0.51393 0.65473 0.58429 0.0
H1595 H 0.54069 0.64298 0.61819 0.0
H1596 H 0.32746 0.6007 0.63192 0.0
H1597 H 0.35269 0.5926 0.66843 0.0
H1598 H 0.32126 0.63188 0.6033 0.0
H1599 H 0.35148 0.64793 0.5743 0.0
C1600 C 0.38487 0.36918 0.23226 0.0
C1601 C 0.36023 0.36712 0.26128 0.0
C1602 C 0.41133 0.39578 0.28829 0.0
C1603 C 0.43476 0.39871 0.25887 0.0
N1604 N 0.44284 0.39032 0.20219 0.0
N1605 N 0.34592 0.38004 0.31578 0.0
C1606 C 0.42118 0.38597 0.23062 0.0
C1607 C 0.37246 0.38084 0.28906 0.0
N1608 N 0.37397 0.35452 0.20666 0.0
N1609 N 0.42691 0.40712 0.3155 0.0
H1610 H 0.31734 0.36931 0.31676 0.0
H1611 H 0.35031 0.39104 0.3361 0.0
H1612 H 0.45444 0.41871 0.31511 0.0
H1613 H 0.41441 0.4041 0.33861 0.0
H1614 H 0.3925 0.35325 0.18553 0.0
H1615 H 0.34719 0.3424 0.20734 0.0
H1616 H 0.43261 0.38354 0.17986 0.0
H1617 H 0.47025 0.40194 0.2007 0.0
C1618 C 0.87541 0.87998 0.23535 0.0
C1619 C 0.85959 0.86889 0.26414 0.0
C1620 C 0.91769 0.88998 0.29545 0.0
C1621 C 0.93522 0.89976 0.26637 0.0
N1622 N 0.93479 0.90218 0.20837 0.0
N1623 N 0.86684 0.86117 0.32104 0.0
C1624 C 0.91505 0.89427 0.23621 0.0
C1625 C 0.88105 0.87337 0.29411 0.0
N1626 N 0.85167 0.87726 0.2074 0.0
N1627 N 0.93574 0.89708 0.3243 0.0
H1628 H 0.83981 0.84922 0.32054 0.0
H1629 H 0.88304 0.86169 0.34328 0.0
H1630 H 0.96279 0.90898 0.32566 0.0
H1631 H 0.92257 0.89252 0.34677 0.0
H1632 H 0.85863 0.88663 0.18606 0.0
H1633 H 0.82273 0.8668 0.20622 0.0
H1634 H 0.9246 0.89697 0.18531 0.0
H1635 H 0.96361 0.91277 0.20845 0.0
C1636 C 0.38315 0.88754 0.03611 0.0
C1637 C 0.3646 0.8948 1.00607 0.0
C1638 C 0.42102 0.87071 0.97727 0.0
C1639 C 0.44112 0.86467 0.00727 0.0
N1640 N 0.44546 0.86946 0.06492 0.0
N1641 N 0.36738 0.89573 0.94808 0.0
C1642 C 0.42321 0.87367 0.03665 0.0
C1643 C 0.38398 0.887 0.9766 0.0
N1644 N 0.36157 0.89347 0.06405 0.0
N1645 N 0.43693 0.86029 0.9496 0.0
H1646 H 0.33999 0.90736 0.94714 0.0
H1647 H 0.38203 0.89276 0.92565 0.0
H1648 H 0.46424 0.84859 0.94962 0.0
H1649 H 0.42175 0.86194 0.92707 0.0
H1650 H 0.37059 0.88691 0.08678 0.0
H1651 H 0.33238 0.90369 0.06418 0.0
H1652 H 0.43689 0.87732 0.08697 0.0
H1653 H 0.47475 0.85935 0.06586 0.0
C1654 C 0.92843 0.37731 0.96287 0.0
C1655 C 0.94407 0.36604 0.99169 0.0
C1656 C 0.8826 0.38447 0.02233 0.0
C1657 C 0.86759 0.39619 0.99369 0.0
N1658 N 0.87475 0.40453 0.93701 0.0
N1659 N 0.93823 0.3589 0.04878 0.0
C1660 C 0.89014 0.39273 0.96397 0.0
C1661 C 0.92164 0.36965 0.02145 0.0
N1662 N 0.95068 0.37318 0.93462 0.0
N1663 N 0.85879 0.38741 0.05016 0.0
H1664 H 0.96582 0.34741 0.04836 0.0
H1665 H 0.92592 0.36167 0.07196 0.0
H1666 H 0.83061 0.39842 0.0513 0.0
H1667 H 0.86554 0.37851 0.07185 0.0
H1668 H 0.94092 0.3797 0.91208 0.0
H1669 H 0.97951 0.36268 0.93363 0.0
H1670 H 0.88959 0.40388 0.91436 0.0
H1671 H 0.84656 0.41557 0.93745 0.0
C1672 C 0.66841 0.64063 0.77906 0.0
C1673 C 0.69085 0.64665 0.75003 0.0
C1674 C 0.6364 0.62273 0.71891 0.0
C1675 C 0.61587 0.6152 0.74813 0.0
N1676 N 0.61579 0.61384 0.80623 0.0
N1677 N 0.70157 0.63997 0.6931 0.0
C1678 C 0.63283 0.62334 0.77832 0.0
C1679 C 0.67628 0.63671 0.72013 0.0
N1680 N 0.68048 0.65203 0.80713 0.0
N1681 N 0.61678 0.61725 0.68999 0.0
H1682 H 0.73134 0.64967 0.69352 0.0
H1683 H 0.69528 0.63126 0.67114 0.0
H1684 H 0.58731 0.60733 0.68835 0.0
H1685 H 0.62746 0.62431 0.66792 0.0
H1686 H 0.66291 0.65041 0.82868 0.0
H1687 H 0.70648 0.66464 0.80819 0.0
H1688 H 0.6292 0.61714 0.82905 0.0
H1689 H 0.59017 0.60098 0.80627 0.0
C1690 C 0.13823 0.12001 0.77469 0.0
C1691 C 0.11595 0.11432 0.74539 0.0
C1692 C 0.17166 0.13777 0.71493 0.0
C1693 C 0.1922 0.14487 0.74437 0.0
N1694 N 0.19179 0.14596 0.80246 0.0
N1695 N 0.1061 0.12143 0.68843 0.0
C1696 C 0.17454 0.13684 0.77436 0.0
C1697 C 0.13122 0.12426 0.7157 0.0
N1698 N 0.1254 0.10866 0.8026 0.0
N1699 N 0.19184 0.1432 0.68625 0.0
H1700 H 0.07588 0.11216 0.68857 0.0
H1701 H 0.11302 0.13011 0.66656 0.0
H1702 H 0.22186 0.15266 0.68503 0.0
H1703 H 0.18101 0.13652 0.66399 0.0
H1704 H 0.14274 0.11002 0.82433 0.0
H1705 H 0.0989 0.09636 0.80339 0.0
H1706 H 0.17801 0.14278 0.82515 0.0
H1707 H 0.21812 0.15838 0.80277 0.0
C1708 C 0.62691 0.13018 0.98083 0.0
C1709 C 0.61258 0.14171 0.00969 0.0
C1710 C 0.67254 0.12146 0.03995 0.0
C1711 C 0.68856 0.1112 0.01072 0.0
N1712 N 0.68495 0.1077 0.95287 0.0
N1713 N 0.62286 0.1505 0.06606 0.0
C1714 C 0.66666 0.11603 0.981 0.0
C1715 C 0.63574 0.13789 0.03913 0.0
N1716 N 0.6018 0.1325 0.95346 0.0
N1717 N 0.69208 0.1149 0.06851 0.0
H1718 H 0.59555 0.16221 0.06602 0.0
H1719 H 0.64037 0.15054 0.08777 0.0
H1720 H 0.71911 0.10302 0.06953 0.0
H1721 H 0.68007 0.11983 0.09117 0.0
H1722 H 0.60759 0.12279 0.93221 0.0
H1723 H 0.57302 0.14306 0.95272 0.0
H1724 H 0.67337 0.11237 0.92995 0.0
H1725 H 0.71396 0.09734 0.95245 0.0
C1726 C 0.1727 0.62192 0.97918 0.0
C1727 C 0.19022 0.61441 0.00947 0.0
C1728 C 0.13247 0.63809 0.03745 0.0
C1729 C 0.11312 0.6441 0.00718 0.0
N1730 N 0.11076 0.63949 0.94944 0.0
N1731 N 0.18518 0.61295 0.06737 0.0
C1732 C 0.13223 0.6354 0.97806 0.0
C1733 C 0.16963 0.6219 0.03865 0.0
N1734 N 0.19569 0.6167 0.9516 0.0
N1735 N 0.11585 0.6485 0.0649 0.0
H1736 H 0.21254 0.60132 0.0687 0.0
H1737 H 0.1696 0.6157 0.08952 0.0
H1738 H 0.08884 0.66042 0.06444 0.0
H1739 H 0.13034 0.64675 0.08766 0.0
H1740 H 0.18735 0.62355 0.92888 0.0
H1741 H 0.22542 0.60697 0.95188 0.0
H1742 H 0.1203 0.63175 0.92752 0.0
H1743 H 0.08113 0.64927 0.94805 0.0
C1744 C 0.42318 0.88634 0.7913 0.0
C1745 C 0.44255 0.89436 0.76191 0.0
C1746 C 0.38265 0.87448 0.73116 0.0
C1747 C 0.36475 0.86524 0.76042 0.0
N1748 N 0.36941 0.85984 0.81793 0.0
N1749 N 0.44487 0.89393 0.70388 0.0
C1750 C 0.38546 0.87052 0.79044 0.0
C1751 C 0.42333 0.88784 0.73179 0.0
N1752 N 0.44044 0.89446 0.81994 0.0
N1753 N 0.35988 0.87094 0.70294 0.0
H1754 H 0.47457 0.90375 0.70384 0.0
H1755 H 0.43523 0.88789 0.68104 0.0
H1756 H 0.33019 0.86113 0.70195 0.0
H1757 H 0.36851 0.87904 0.68103 0.0
H1758 H 0.42589 0.89131 0.84237 0.0
H1759 H 0.46827 0.90581 0.82103 0.0
H1760 H 0.38495 0.86092 0.84039 0.0
H1761 H 0.34156 0.84847 0.81779 0.0
C1762 C 0.89079 0.36669 0.73697 0.0
C1763 C 0.86801 0.36329 0.7666 0.0
C1764 C 0.92163 0.3902 0.79416 0.0
C1765 C 0.94285 0.39467 0.76418 0.0
N1766 N 0.94635 0.38944 0.70659 0.0
N1767 N 0.85786 0.3735 0.82264 0.0
C1768 C 0.92697 0.38353 0.73541 0.0
C1769 C 0.8825 0.37548 0.79507 0.0
N1770 N 0.87853 0.35308 0.71069 0.0
N1771 N 0.9396 0.39981 0.82175 0.0
H1772 H 0.82931 0.36275 0.8239 0.0
H1773 H 0.86376 0.38361 0.84356 0.0
H1774 H 0.96753 0.41111 0.82142 0.0
H1775 H 0.92872 0.39554 0.84496 0.0
H1776 H 0.89589 0.35279 0.68897 0.0
H1777 H 0.85227 0.34063 0.71138 0.0
H1778 H 0.93411 0.384 0.68416 0.0
H1779 H 0.97364 0.40115 0.70505 0.0
C1780 C 0.38461 0.38959 0.52799 0.0
C1781 C 0.36514 0.39622 0.49798 0.0
C1782 C 0.42161 0.37226 0.46903 0.0
C1783 C 0.43982 0.36477 0.49908 0.0
N1784 N 0.43762 0.36406 0.55706 0.0
N1785 N 0.3613 0.39227 0.44016 0.0
C1786 C 0.42092 0.37282 0.52858 0.0
C1787 C 0.38277 0.38716 0.46851 0.0
N1788 N 0.3691 0.4001 0.55574 0.0
N1789 N 0.44206 0.36524 0.44107 0.0
H1790 H 0.33276 0.403 0.43922 0.0
H1791 H 0.3697 0.38473 0.41789 0.0
H1792 H 0.46941 0.35357 0.44094 0.0
H1793 H 0.43374 0.37185 0.41824 0.0
H1794 H 0.38378 0.39793 0.57836 0.0
H1795 H 0.34267 0.4124 0.55579 0.0
H1796 H 0.42334 0.36719 0.57957 0.0
H1797 H 0.46494 0.35237 0.55795 0.0
C1798 C 0.91712 0.86899 0.52149 0.0
C1799 C 0.94046 0.86621 0.49198 0.0
C1800 C 0.88554 0.89222 0.46436 0.0
C1801 C 0.86371 0.89614 0.49424 0.0
N1802 N 0.86058 0.89089 0.55185 0.0
N1803 N 0.95096 0.87727 0.43627 0.0
C1804 C 0.88007 0.88521 0.52301 0.0
C1805 C 0.92567 0.87839 0.46361 0.0
N1806 N 0.92981 0.85547 0.54773 0.0
N1807 N 0.86711 0.90138 0.43668 0.0
H1808 H 0.9805 0.86739 0.43527 0.0
H1809 H 0.9446 0.88739 0.41543 0.0
H1810 H 0.83813 0.91179 0.43684 0.0
H1811 H 0.87858 0.8974 0.41354 0.0
H1812 H 0.91208 0.85467 0.56928 0.0
H1813 H 0.95689 0.84361 0.54713 0.0
H1814 H 0.87308 0.88558 0.57426 0.0
H1815 H 0.8331 0.90241 0.55341 0.0
C1816 C 0.6291 0.12646 0.27782 0.0
C1817 C 0.61422 0.11381 0.24985 0.0
C1818 C 0.67615 0.13105 0.21847 0.0
C1819 C 0.69187 0.14303 0.24672 0.0
N1820 N 0.68627 0.15148 0.30349 0.0
N1821 N 0.62352 0.10241 0.19426 0.0
C1822 C 0.66906 0.14053 0.2765 0.0
C1823 C 0.63779 0.1157 0.2203 0.0
N1824 N 0.60437 0.12513 0.30543 0.0
N1825 N 0.69794 0.13469 0.18991 0.0
H1826 H 0.59488 0.09168 0.19496 0.0
H1827 H 0.64046 0.10112 0.17245 0.0
H1828 H 0.72689 0.14511 0.18835 0.0
H1829 H 0.68691 0.12833 0.16758 0.0
H1830 H 0.61073 0.13522 0.32628 0.0
H1831 H 0.57571 0.11447 0.30704 0.0
H1832 H 0.67387 0.14915 0.32674 0.0
H1833 H 0.71475 0.16234 0.30275 0.0
C1834 C 0.13664 0.61963 0.21965 0.0
C1835 C 0.11445 0.61443 0.24912 0.0
C1836 C 0.16697 0.641 0.27835 0.0
C1837 C 0.19052 0.64509 0.2492 0.0
N1838 N 0.20211 0.63594 0.19301 0.0
N1839 N 0.11176 0.61688 0.3071 0.0
C1840 C 0.17649 0.63372 0.22006 0.0
C1841 C 0.13054 0.62427 0.27867 0.0
N1842 N 0.11862 0.61174 0.19115 0.0
N1843 N 0.17883 0.65376 0.30544 0.0
H1844 H 0.08546 0.60445 0.30792 0.0
H1845 H 0.12424 0.62144 0.32981 0.0
H1846 H 0.20547 0.66598 0.30573 0.0
H1847 H 0.16064 0.65363 0.32681 0.0
H1848 H 0.13019 0.617 0.16846 0.0
H1849 H 0.08981 0.60122 0.19014 0.0
H1850 H 0.19665 0.62613 0.17176 0.0
H1851 H 0.2311 0.64635 0.1926 0.0
C1852 C 0.66871 0.62201 0.47881 0.0
C1853 C 0.68895 0.61606 0.50876 0.0
C1854 C 0.63478 0.6419 0.53724 0.0
C1855 C 0.61277 0.64644 0.5075 0.0
N1856 N 0.60451 0.63851 0.45066 0.0
N1857 N 0.68973 0.61802 0.56679 0.0
C1858 C 0.62866 0.63586 0.47843 0.0
C1859 C 0.67158 0.62545 0.53812 0.0
N1860 N 0.68877 0.61498 0.45071 0.0
N1861 N 0.62089 0.65386 0.56441 0.0
H1862 H 0.71679 0.60616 0.5679 0.0
H1863 H 0.67661 0.62227 0.58936 0.0
H1864 H 0.59391 0.6658 0.56421 0.0
H1865 H 0.63744 0.65325 0.58651 0.0
H1866 H 0.6784 0.6206 0.42785 0.0
H1867 H 0.71821 0.60497 0.45045 0.0
H1868 H 0.6116 0.62939 0.42917 0.0
H1869 H 0.57509 0.64849 0.44983 0.0
C1870 C 0.13016 0.13359 0.48252 0.0
C1871 C 0.11072 0.14096 0.51216 0.0
C1872 C 0.16509 0.11613 0.54223 0.0
C1873 C 0.18602 0.10991 0.5127 0.0
N1874 N 0.19205 0.11399 0.45507 0.0
N1875 N 0.10994 0.14074 0.57027 0.0
C1876 C 0.16932 0.11891 0.48287 0.0
C1877 C 0.12833 0.13261 0.54208 0.0
N1878 N 0.11084 0.14069 0.4541 0.0
N1879 N 0.18004 0.1057 0.57026 0.0
H1880 H 0.08177 0.15178 0.57074 0.0
H1881 H 0.12317 0.13746 0.59312 0.0
H1882 H 0.20713 0.09384 0.57079 0.0
H1883 H 0.16456 0.10756 0.59259 0.0
H1884 H 0.12031 0.13427 0.43145 0.0
H1885 H 0.08334 0.15224 0.4533 0.0
H1886 H 0.1845 0.12159 0.43264 0.0
H1887 H 0.22057 0.10321 0.4548 0.0
loop_
_geom_bond_atom_site_label_1
_geom_bond_atom_site_label_2
_geom_bond_distance
_geom_bond_site_symmetry_2
_ccdc_geom_bond_type
Cu0 N1 1.999 . S
Cu0 O6 1.974 . S
Cu0 N11 1.985 . S
Cu0 O20 1.959 . S
N1 Cu0 1.999 . S
N1 C3 1.263 . S
N1 C5 1.389 . S
N2 C3 1.358 . S
N2 C4 1.400 . S
C3 N1 1.263 . S
C3 N2 1.358 . S
C3 H9 0.930 . S
C4 N2 1.400 . S
C4 C5 1.351 . S
C4 H21 0.930 . S
C5 N1 1.389 . S
C5 C4 1.351 . S
C5 H10 0.930 . S
O6 Cu0 1.974 . S
O6 C16 1.282 . S
C7 O8 1.261 . S
C7 O20 1.251 . S
O8 C7 1.261 . S
H9 C3 0.930 . S
H10 C5 0.930 . S
N11 Cu0 1.985 . S
N11 C13 1.335 . S
N11 C14 1.390 . S
N12 C13 1.345 . S
N12 C15 1.336 . S
C13 N11 1.335 . S
C13 N12 1.345 . S
C13 H18 0.930 . S
C14 N11 1.390 . S
C14 C15 1.346 . S
C14 H19 0.930 . S
C15 N12 1.336 . S
C15 C14 1.346 . S
C15 H22 0.929 . S
C16 O6 1.282 . S
C16 O17 1.216 . S
O17 C16 1.216 . S
H18 C13 0.930 . S
H19 C14 0.930 . S
O20 Cu0 1.959 . S
O20 C7 1.251 . S
H21 C4 0.930 . S
H22 C15 0.929 . S
Cu23 N24 1.999 . S
Cu23 O29 1.974 . S
Cu23 N34 1.985 . S
Cu23 O43 1.959 . S
N24 Cu23 1.999 . S
N24 C26 1.263 1_455 S
N24 C28 1.389 1_455 S
N25 C26 1.358 . S
N25 C27 1.400 . S
C26 N24 1.263 1_655 S
C26 N25 1.358 . S
C26 H32 0.930 1_655 S
C27 N25 1.400 . S
C27 C28 1.351 . S
C27 H44 0.930 . S
C28 N24 1.389 1_655 S
C28 C27 1.351 . S
C28 H33 0.930 . S
O29 Cu23 1.974 . S
O29 C39 1.282 . S
C30 O31 1.261 . S
C30 O43 1.251 . S
O31 C30 1.261 . S
H32 C26 0.930 1_455 S
H33 C28 0.930 . S
N34 Cu23 1.985 . S
N34 C36 1.335 . S
N34 C37 1.390 . S
N35 C36 1.345 . S
N35 C38 1.336 . S
C36 N34 1.335 . S
C36 N35 1.345 . S
C36 H41 0.930 . S
C37 N34 1.390 . S
C37 C38 1.346 . S
C37 H42 0.930 . S
C38 N35 1.336 . S
C38 C37 1.346 . S
C38 H45 0.929 . S
C39 O29 1.282 . S
C39 O40 1.216 . S
O40 C39 1.216 . S
H41 C36 0.930 . S
H42 C37 0.930 . S
O43 Cu23 1.959 . S
O43 C30 1.251 . S
H44 C27 0.930 . S
H45 C38 0.929 . S
Cu46 N47 1.999 1_556 S
Cu46 O52 1.974 . S
Cu46 N57 1.985 . S
Cu46 O66 1.959 1_556 S
N47 Cu46 1.999 1_554 S
N47 C49 1.263 1_554 S
N47 C51 1.389 . S
N48 C49 1.353 1_554 S
N48 C50 1.412 . S
C49 N47 1.263 1_556 S
C49 N48 1.353 1_556 S
C49 H55 0.930 . S
C50 N48 1.412 . S
C50 C51 1.351 . S
C50 H67 0.930 . S
C51 N47 1.389 . S
C51 C50 1.351 . S
C51 H56 0.930 . S
O52 Cu46 1.974 . S
O52 C62 1.282 . S
C53 O54 1.261 . S
C53 O66 1.251 . S
O54 C53 1.261 . S
H55 C49 0.930 . S
H56 C51 0.930 . S
N57 Cu46 1.985 . S
N57 C59 1.335 1_556 S
N57 C60 1.390 . S
N58 C59 1.345 1_556 S
N58 C61 1.336 . S
C59 N57 1.335 1_554 S
C59 N58 1.345 1_554 S
C59 H64 0.930 . S
C60 N57 1.390 . S
C60 C61 1.346 . S
C60 H65 0.930 . S
C61 N58 1.336 . S
C61 C60 1.346 . S
C61 H68 0.929 . S
C62 O52 1.282 . S
C62 O63 1.216 . S
O63 C62 1.216 . S
H64 C59 0.930 . S
H65 C60 0.930 . S
O66 Cu46 1.959 1_554 S
O66 C53 1.251 . S
H67 C50 0.930 . S
H68 C61 0.929 . S
Cu69 N70 1.999 1_556 S
Cu69 O75 1.974 . S
Cu69 N80 1.985 . S
Cu69 O89 1.959 1_556 S
N70 Cu69 1.999 1_554 S
N70 C72 1.263 1_454 S
N70 C74 1.389 1_455 S
N71 C72 1.353 1_554 S
N71 C73 1.412 . S
C72 N70 1.263 1_656 S
C72 N71 1.353 1_556 S
C72 H78 0.930 1_655 S
C73 N71 1.412 . S
C73 C74 1.351 . S
C73 H90 0.930 . S
C74 N70 1.389 1_655 S
C74 C73 1.351 . S
C74 H79 0.930 . S
O75 Cu69 1.974 . S
O75 C85 1.282 . S
C76 O77 1.261 . S
C76 O89 1.251 . S
O77 C76 1.261 . S
H78 C72 0.930 1_455 S
H79 C74 0.930 . S
N80 Cu69 1.985 . S
N80 C82 1.335 1_556 S
N80 C83 1.390 . S
N81 C82 1.345 1_556 S
N81 C84 1.336 . S
C82 N80 1.335 1_554 S
C82 N81 1.345 1_554 S
C82 H87 0.930 . S
C83 N80 1.390 . S
C83 C84 1.346 . S
C83 H88 0.930 . S
C84 N81 1.336 . S
C84 C83 1.346 . S
C84 H91 0.929 . S
C85 O75 1.282 . S
C85 O86 1.216 . S
O86 C85 1.216 . S
H87 C82 0.930 . S
H88 C83 0.930 . S
O89 Cu69 1.959 1_554 S
O89 C76 1.251 . S
H90 C73 0.930 . S
H91 C84 0.929 . S
Cu92 N93 1.999 . S
Cu92 O98 1.974 . S
Cu92 N103 1.985 . S
Cu92 O112 1.959 . S
N93 Cu92 1.999 . S
N93 C95 1.263 . S
N93 C97 1.389 . S
N94 C95 1.358 . S
N94 C96 1.400 . S
C95 N93 1.263 . S
C95 N94 1.358 . S
C95 H101 0.930 . S
C96 N94 1.400 . S
C96 C97 1.351 . S
C96 H113 0.930 . S
C97 N93 1.389 . S
C97 C96 1.351 . S
C97 H102 0.930 . S
O98 Cu92 1.974 . S
O98 C108 1.282 . S
C99 O100 1.261 . S
C99 O112 1.251 . S
O100 C99 1.261 . S
H101 C95 0.930 . S
H102 C97 0.930 . S
N103 Cu92 1.985 . S
N103 C105 1.335 . S
N103 C106 1.390 . S
N104 C105 1.345 . S
N104 C107 1.336 . S
C105 N103 1.335 . S
C105 N104 1.345 . S
C105 H110 0.930 . S
C106 N103 1.390 . S
C106 C107 1.346 . S
C106 H111 0.930 . S
C107 N104 1.336 . S
C107 C106 1.346 . S
C107 H114 0.929 . S
C108 O98 1.282 . S
C108 O109 1.216 . S
O109 C108 1.216 . S
H110 C105 0.930 . S
H111 C106 0.930 . S
O112 Cu92 1.959 . S
O112 C99 1.251 . S
H113 C96 0.930 . S
H114 C107 0.929 . S
Cu115 N116 1.999 . S
Cu115 O121 1.974 . S
Cu115 N126 1.985 . S
Cu115 O135 1.959 . S
N116 Cu115 1.999 . S
N116 C118 1.263 1_655 S
N116 C120 1.389 1_655 S
N117 C118 1.358 . S
N117 C119 1.400 . S
C118 N116 1.263 1_455 S
C118 N117 1.358 . S
C118 H124 0.930 1_455 S
C119 N117 1.400 . S
C119 C120 1.351 . S
C119 H136 0.930 . S
C120 N116 1.389 1_455 S
C120 C119 1.351 . S
C120 H125 0.930 . S
O121 Cu115 1.974 . S
O121 C131 1.282 . S
C122 O123 1.261 . S
C122 O135 1.251 . S
O123 C122 1.261 . S
H124 C118 0.930 1_655 S
H125 C120 0.930 . S
N126 Cu115 1.985 . S
N126 C128 1.335 . S
N126 C129 1.390 . S
N127 C128 1.345 . S
N127 C130 1.336 . S
C128 N126 1.335 . S
C128 N127 1.345 . S
C128 H133 0.930 . S
C129 N126 1.390 . S
C129 C130 1.346 . S
C129 H134 0.930 . S
C130 N127 1.336 . S
C130 C129 1.346 . S
C130 H137 0.929 . S
C131 O121 1.282 . S
C131 O132 1.216 . S
O132 C131 1.216 . S
H133 C128 0.930 . S
H134 C129 0.930 . S
O135 Cu115 1.959 . S
O135 C122 1.251 . S
H136 C119 0.930 . S
H137 C130 0.929 . S
Cu138 N139 1.999 1_554 S
Cu138 O144 1.974 . S
Cu138 N149 1.985 . S
Cu138 O158 1.959 1_554 S
N139 Cu138 1.999 1_556 S
N139 C141 1.263 1_556 S
N139 C143 1.389 . S
N140 C141 1.353 1_556 S
N140 C142 1.412 . S
C141 N139 1.263 1_554 S
C141 N140 1.353 1_554 S
C141 H147 0.930 . S
C142 N140 1.412 . S
C142 C143 1.351 . S
C142 H159 0.930 . S
C143 N139 1.389 . S
C143 C142 1.351 . S
C143 H148 0.930 . S
O144 Cu138 1.974 . S
O144 C154 1.282 . S
C145 O146 1.261 . S
C145 O158 1.251 . S
O146 C145 1.261 . S
H147 C141 0.930 . S
H148 C143 0.930 . S
N149 Cu138 1.985 . S
N149 C151 1.335 1_554 S
N149 C152 1.390 . S
N150 C151 1.345 1_554 S
N150 C153 1.336 . S
C151 N149 1.335 1_556 S
C151 N150 1.345 1_556 S
C151 H156 0.930 . S
C152 N149 1.390 . S
C152 C153 1.346 . S
C152 H157 0.930 . S
C153 N150 1.336 . S
C153 C152 1.346 . S
C153 H160 0.929 . S
C154 O144 1.282 . S
C154 O155 1.216 . S
O155 C154 1.216 . S
H156 C151 0.930 . S
H157 C152 0.930 . S
O158 Cu138 1.959 1_556 S
O158 C145 1.251 . S
H159 C142 0.930 . S
H160 C153 0.929 . S
Cu161 N162 1.999 1_554 S
Cu161 O167 1.974 . S
Cu161 N172 1.985 . S
Cu161 O181 1.959 1_554 S
N162 Cu161 1.999 1_556 S
N162 C164 1.263 1_656 S
N162 C166 1.389 1_655 S
N163 C164 1.353 1_556 S
N163 C165 1.412 . S
C164 N162 1.263 1_454 S
C164 N163 1.353 1_554 S
C164 H170 0.930 1_455 S
C165 N163 1.412 . S
C165 C166 1.351 . S
C165 H182 0.930 . S
C166 N162 1.389 1_455 S
C166 C165 1.351 . S
C166 H171 0.930 . S
O167 Cu161 1.974 . S
O167 C177 1.282 . S
C168 O169 1.261 . S
C168 O181 1.251 . S
O169 C168 1.261 . S
H170 C164 0.930 1_655 S
H171 C166 0.930 . S
N172 Cu161 1.985 . S
N172 C174 1.335 1_554 S
N172 C175 1.390 . S
N173 C174 1.345 1_554 S
N173 C176 1.336 . S
C174 N172 1.335 1_556 S
C174 N173 1.345 1_556 S
C174 H179 0.930 . S
C175 N172 1.390 . S
C175 C176 1.346 . S
C175 H180 0.930 . S
C176 N173 1.336 . S
C176 C175 1.346 . S
C176 H183 0.929 . S
C177 O167 1.282 . S
C177 O178 1.216 . S
O178 C177 1.216 . S
H179 C174 0.930 . S
H180 C175 0.930 . S
O181 Cu161 1.959 1_556 S
O181 C168 1.251 . S
H182 C165 0.930 . S
H183 C176 0.929 . S
Cu184 N185 1.999 . S
Cu184 O190 1.974 . S
Cu184 N195 1.985 . S
Cu184 O204 1.959 . S
N185 Cu184 1.999 . S
N185 C187 1.263 . S
N185 C189 1.389 . S
N186 C187 1.358 . S
N186 C188 1.400 . S
C187 N185 1.263 . S
C187 N186 1.358 . S
C187 H193 0.930 . S
C188 N186 1.400 . S
C188 C189 1.351 . S
C188 H205 0.930 . S
C189 N185 1.389 . S
C189 C188 1.351 . S
C189 H194 0.930 . S
O190 Cu184 1.974 . S
O190 C200 1.282 . S
C191 O192 1.261 . S
C191 O204 1.251 . S
O192 C191 1.261 . S
H193 C187 0.930 . S
H194 C189 0.930 . S
N195 Cu184 1.985 . S
N195 C197 1.335 . S
N195 C198 1.390 . S
N196 C197 1.345 . S
N196 C199 1.336 . S
C197 N195 1.335 . S
C197 N196 1.345 . S
C197 H202 0.930 . S
C198 N195 1.390 . S
C198 C199 1.346 . S
C198 H203 0.930 . S
C199 N196 1.336 . S
C199 C198 1.346 . S
C199 H206 0.929 . S
C200 O190 1.282 . S
C200 O201 1.216 . S
O201 C200 1.216 . S
H202 C197 0.930 . S
H203 C198 0.930 . S
O204 Cu184 1.959 . S
O204 C191 1.251 . S
H205 C188 0.930 . S
H206 C199 0.929 . S
Cu207 N208 1.999 . S
Cu207 O213 1.974 . S
Cu207 N218 1.985 . S
Cu207 O227 1.959 . S
N208 Cu207 1.999 . S
N208 C210 1.263 1_455 S
N208 C212 1.389 1_455 S
N209 C210 1.358 . S
N209 C211 1.400 . S
C210 N208 1.263 1_655 S
C210 N209 1.358 . S
C210 H216 0.930 1_655 S
C211 N209 1.400 . S
C211 C212 1.351 . S
C211 H228 0.930 . S
C212 N208 1.389 1_655 S
C212 C211 1.351 . S
C212 H217 0.930 . S
O213 Cu207 1.974 . S
O213 C223 1.282 . S
C214 O215 1.261 . S
C214 O227 1.251 . S
O215 C214 1.261 . S
H216 C210 0.930 1_455 S
H217 C212 0.930 . S
N218 Cu207 1.985 . S
N218 C220 1.335 . S
N218 C221 1.390 . S
N219 C220 1.345 . S
N219 C222 1.336 . S
C220 N218 1.335 . S
C220 N219 1.345 . S
C220 H225 0.930 . S
C221 N218 1.390 . S
C221 C222 1.346 . S
C221 H226 0.930 . S
C222 N219 1.336 . S
C222 C221 1.346 . S
C222 H229 0.929 . S
C223 O213 1.282 . S
C223 O224 1.216 . S
O224 C223 1.216 . S
H225 C220 0.930 . S
H226 C221 0.930 . S
O227 Cu207 1.959 . S
O227 C214 1.251 . S
H228 C211 0.930 . S
H229 C222 0.929 . S
Cu230 N231 1.999 . S
Cu230 O236 1.974 . S
Cu230 N241 1.985 . S
Cu230 O250 1.959 . S
N231 Cu230 1.999 . S
N231 C233 1.263 . S
N231 C235 1.389 . S
N232 C233 1.358 . S
N232 C234 1.400 . S
C233 N231 1.263 . S
C233 N232 1.358 . S
C233 H239 0.930 . S
C234 N232 1.400 . S
C234 C235 1.351 . S
C234 H251 0.930 . S
C235 N231 1.389 . S
C235 C234 1.351 . S
C235 H240 0.930 . S
O236 Cu230 1.974 . S
O236 C246 1.282 . S
C237 O238 1.261 . S
C237 O250 1.251 . S
O238 C237 1.261 . S
H239 C233 0.930 . S
H240 C235 0.930 . S
N241 Cu230 1.985 . S
N241 C243 1.335 . S
N241 C244 1.390 . S
N242 C243 1.345 . S
N242 C245 1.336 . S
C243 N241 1.335 . S
C243 N242 1.345 . S
C243 H248 0.930 . S
C244 N241 1.390 . S
C244 C245 1.346 . S
C244 H249 0.930 . S
C245 N242 1.336 . S
C245 C244 1.346 . S
C245 H252 0.929 . S
C246 O236 1.282 . S
C246 O247 1.216 . S
O247 C246 1.216 . S
H248 C243 0.930 . S
H249 C244 0.930 . S
O250 Cu230 1.959 . S
O250 C237 1.251 . S
H251 C234 0.930 . S
H252 C245 0.929 . S
Cu253 N254 1.999 . S
Cu253 O259 1.974 . S
Cu253 N264 1.985 . S
Cu253 O273 1.959 . S
N254 Cu253 1.999 . S
N254 C256 1.263 1_455 S
N254 C258 1.389 1_455 S
N255 C256 1.358 . S
N255 C257 1.400 . S
C256 N254 1.263 1_655 S
C256 N255 1.358 . S
C256 H262 0.930 1_655 S
C257 N255 1.400 . S
C257 C258 1.351 . S
C257 H274 0.930 . S
C258 N254 1.389 1_655 S
C258 C257 1.351 . S
C258 H263 0.930 . S
O259 Cu253 1.974 . S
O259 C269 1.282 . S
C260 O261 1.261 . S
C260 O273 1.251 . S
O261 C260 1.261 . S
H262 C256 0.930 1_455 S
H263 C258 0.930 . S
N264 Cu253 1.985 . S
N264 C266 1.335 . S
N264 C267 1.390 . S
N265 C266 1.345 . S
N265 C268 1.336 . S
C266 N264 1.335 . S
C266 N265 1.345 . S
C266 H271 0.930 . S
C267 N264 1.390 . S
C267 C268 1.346 . S
C267 H272 0.930 . S
C268 N265 1.336 . S
C268 C267 1.346 . S
C268 H275 0.929 . S
C269 O259 1.282 . S
C269 O270 1.216 . S
O270 C269 1.216 . S
H271 C266 0.930 . S
H272 C267 0.930 . S
O273 Cu253 1.959 . S
O273 C260 1.251 . S
H274 C257 0.930 . S
H275 C268 0.929 . S
Cu276 N277 1.999 . S
Cu276 O282 1.974 . S
Cu276 N287 1.985 . S
Cu276 O296 1.959 . S
N277 Cu276 1.999 . S
N277 C279 1.263 . S
N277 C281 1.389 . S
N278 C279 1.358 . S
N278 C280 1.400 . S
C279 N277 1.263 . S
C279 N278 1.358 . S
C279 H285 0.930 . S
C280 N278 1.400 . S
C280 C281 1.351 . S
C280 H297 0.930 . S
C281 N277 1.389 . S
C281 C280 1.351 . S
C281 H286 0.930 . S
O282 Cu276 1.974 . S
O282 C292 1.282 . S
C283 O284 1.261 . S
C283 O296 1.251 . S
O284 C283 1.261 . S
H285 C279 0.930 . S
H286 C281 0.930 . S
N287 Cu276 1.985 . S
N287 C289 1.335 . S
N287 C290 1.390 . S
N288 C289 1.345 . S
N288 C291 1.336 . S
C289 N287 1.335 . S
C289 N288 1.345 . S
C289 H294 0.930 . S
C290 N287 1.390 . S
C290 C291 1.346 . S
C290 H295 0.930 . S
C291 N288 1.336 . S
C291 C290 1.346 . S
C291 H298 0.929 . S
C292 O282 1.282 . S
C292 O293 1.216 . S
O293 C292 1.216 . S
H294 C289 0.930 . S
H295 C290 0.930 . S
O296 Cu276 1.959 . S
O296 C283 1.251 . S
H297 C280 0.930 . S
H298 C291 0.929 . S
Cu299 N300 1.999 . S
Cu299 O305 1.974 . S
Cu299 N310 1.985 . S
Cu299 O319 1.959 . S
N300 Cu299 1.999 . S
N300 C302 1.263 1_655 S
N300 C304 1.389 1_655 S
N301 C302 1.358 . S
N301 C303 1.400 . S
C302 N300 1.263 1_455 S
C302 N301 1.358 . S
C302 H308 0.930 1_455 S
C303 N301 1.400 . S
C303 C304 1.351 . S
C303 H320 0.930 . S
C304 N300 1.389 1_455 S
C304 C303 1.351 . S
C304 H309 0.930 . S
O305 Cu299 1.974 . S
O305 C315 1.282 . S
C306 O307 1.261 . S
C306 O319 1.251 . S
O307 C306 1.261 . S
H308 C302 0.930 1_655 S
H309 C304 0.930 . S
N310 Cu299 1.985 . S
N310 C312 1.335 . S
N310 C313 1.390 . S
N311 C312 1.345 . S
N311 C314 1.336 . S
C312 N310 1.335 . S
C312 N311 1.345 . S
C312 H317 0.930 . S
C313 N310 1.390 . S
C313 C314 1.346 . S
C313 H318 0.930 . S
C314 N311 1.336 . S
C314 C313 1.346 . S
C314 H321 0.929 . S
C315 O305 1.282 . S
C315 O316 1.216 . S
O316 C315 1.216 . S
H317 C312 0.930 . S
H318 C313 0.930 . S
O319 Cu299 1.959 . S
O319 C306 1.251 . S
H320 C303 0.930 . S
H321 C314 0.929 . S
Cu322 N323 1.999 . S
Cu322 O328 1.974 . S
Cu322 N333 1.985 . S
Cu322 O342 1.959 . S
N323 Cu322 1.999 . S
N323 C325 1.263 . S
N323 C327 1.389 . S
N324 C325 1.358 . S
N324 C326 1.400 . S
C325 N323 1.263 . S
C325 N324 1.358 . S
C325 H331 0.930 . S
C326 N324 1.400 . S
C326 C327 1.351 . S
C326 H343 0.930 . S
C327 N323 1.389 . S
C327 C326 1.351 . S
C327 H332 0.930 . S
O328 Cu322 1.974 . S
O328 C338 1.282 . S
C329 O330 1.261 . S
C329 O342 1.251 . S
O330 C329 1.261 . S
H331 C325 0.930 . S
H332 C327 0.930 . S
N333 Cu322 1.985 . S
N333 C335 1.335 . S
N333 C336 1.390 . S
N334 C335 1.345 . S
N334 C337 1.336 . S
C335 N333 1.335 . S
C335 N334 1.345 . S
C335 H340 0.930 . S
C336 N333 1.390 . S
C336 C337 1.346 . S
C336 H341 0.930 . S
C337 N334 1.336 . S
C337 C336 1.346 . S
C337 H344 0.929 . S
C338 O328 1.282 . S
C338 O339 1.216 . S
O339 C338 1.216 . S
H340 C335 0.930 . S
H341 C336 0.930 . S
O342 Cu322 1.959 . S
O342 C329 1.251 . S
H343 C326 0.930 . S
H344 C337 0.929 . S
Cu345 N346 1.999 . S
Cu345 O351 1.974 . S
Cu345 N356 1.985 . S
Cu345 O365 1.959 . S
N346 Cu345 1.999 . S
N346 C348 1.263 1_655 S
N346 C350 1.389 1_655 S
N347 C348 1.358 . S
N347 C349 1.400 . S
C348 N346 1.263 1_455 S
C348 N347 1.358 . S
C348 H354 0.930 1_455 S
C349 N347 1.400 . S
C349 C350 1.351 . S
C349 H366 0.930 . S
C350 N346 1.389 1_455 S
C350 C349 1.351 . S
C350 H355 0.930 . S
O351 Cu345 1.974 . S
O351 C361 1.282 . S
C352 O353 1.261 . S
C352 O365 1.251 . S
O353 C352 1.261 . S
H354 C348 0.930 1_655 S
H355 C350 0.930 . S
N356 Cu345 1.985 . S
N356 C358 1.335 . S
N356 C359 1.390 . S
N357 C358 1.345 . S
N357 C360 1.336 . S
C358 N356 1.335 . S
C358 N357 1.345 . S
C358 H363 0.930 . S
C359 N356 1.390 . S
C359 C360 1.346 . S
C359 H364 0.930 . S
C360 N357 1.336 . S
C360 C359 1.346 . S
C360 H367 0.929 . S
C361 O351 1.282 . S
C361 O362 1.216 . S
O362 C361 1.216 . S
H363 C358 0.930 . S
H364 C359 0.930 . S
O365 Cu345 1.959 . S
O365 C352 1.251 . S
H366 C349 0.930 . S
H367 C360 0.929 . S
Cu368 N369 1.999 . S
Cu368 O374 1.974 . S
Cu368 N379 1.985 . S
Cu368 O388 1.959 . S
N369 Cu368 1.999 . S
N369 C371 1.263 . S
N369 C373 1.389 . S
N370 C371 1.358 . S
N370 C372 1.400 . S
C371 N369 1.263 . S
C371 N370 1.358 . S
C371 H377 0.930 . S
C372 N370 1.400 . S
C372 C373 1.351 . S
C372 H389 0.930 . S
C373 N369 1.389 . S
C373 C372 1.351 . S
C373 H378 0.930 . S
O374 Cu368 1.974 . S
O374 C384 1.282 . S
C375 O376 1.261 . S
C375 O388 1.251 . S
O376 C375 1.261 . S
H377 C371 0.930 . S
H378 C373 0.930 . S
N379 Cu368 1.985 . S
N379 C381 1.335 . S
N379 C382 1.390 . S
N380 C381 1.345 . S
N380 C383 1.336 . S
C381 N379 1.335 . S
C381 N380 1.345 . S
C381 H386 0.930 . S
C382 N379 1.390 . S
C382 C383 1.346 . S
C382 H387 0.930 . S
C383 N380 1.336 . S
C383 C382 1.346 . S
C383 H390 0.929 . S
C384 O374 1.282 . S
C384 O385 1.216 . S
O385 C384 1.216 . S
H386 C381 0.930 . S
H387 C382 0.930 . S
O388 Cu368 1.959 . S
O388 C375 1.251 . S
H389 C372 0.930 . S
H390 C383 0.929 . S
Cu391 N392 1.999 . S
Cu391 O397 1.974 . S
Cu391 N402 1.985 . S
Cu391 O411 1.959 . S
N392 Cu391 1.999 . S
N392 C394 1.263 . S
N392 C396 1.389 . S
N393 C394 1.358 . S
N393 C395 1.400 . S
C394 N392 1.263 . S
C394 N393 1.358 . S
C394 H400 0.930 . S
C395 N393 1.400 . S
C395 C396 1.351 . S
C395 H412 0.930 . S
C396 N392 1.389 . S
C396 C395 1.351 . S
C396 H401 0.930 . S
O397 Cu391 1.974 . S
O397 C407 1.282 . S
C398 O399 1.261 . S
C398 O411 1.251 . S
O399 C398 1.261 . S
H400 C394 0.930 . S
H401 C396 0.930 . S
N402 Cu391 1.985 . S
N402 C404 1.335 . S
N402 C405 1.390 . S
N403 C404 1.345 . S
N403 C406 1.336 . S
C404 N402 1.335 . S
C404 N403 1.345 . S
C404 H409 0.930 . S
C405 N402 1.390 . S
C405 C406 1.346 . S
C405 H410 0.930 . S
C406 N403 1.336 . S
C406 C405 1.346 . S
C406 H413 0.929 . S
C407 O397 1.282 . S
C407 O408 1.216 . S
O408 C407 1.216 . S
H409 C404 0.930 . S
H410 C405 0.930 . S
O411 Cu391 1.959 . S
O411 C398 1.251 . S
H412 C395 0.930 . S
H413 C406 0.929 . S
Cu414 N415 1.999 . S
Cu414 O420 1.974 . S
Cu414 N425 1.985 . S
Cu414 O434 1.959 . S
N415 Cu414 1.999 . S
N415 C417 1.263 . S
N415 C419 1.389 . S
N416 C417 1.358 . S
N416 C418 1.400 . S
C417 N415 1.263 . S
C417 N416 1.358 . S
C417 H423 0.930 . S
C418 N416 1.400 . S
C418 C419 1.351 . S
C418 H435 0.930 . S
C419 N415 1.389 . S
C419 C418 1.351 . S
C419 H424 0.930 . S
O420 Cu414 1.974 . S
O420 C430 1.282 . S
C421 O422 1.261 . S
C421 O434 1.251 . S
O422 C421 1.261 . S
H423 C417 0.930 . S
H424 C419 0.930 . S
N425 Cu414 1.985 . S
N425 C427 1.335 . S
N425 C428 1.390 . S
N426 C427 1.345 . S
N426 C429 1.336 . S
C427 N425 1.335 . S
C427 N426 1.345 . S
C427 H432 0.930 . S
C428 N425 1.390 . S
C428 C429 1.346 . S
C428 H433 0.930 . S
C429 N426 1.336 . S
C429 C428 1.346 . S
C429 H436 0.929 . S
C430 O420 1.282 . S
C430 O431 1.216 . S
O431 C430 1.216 . S
H432 C427 0.930 . S
H433 C428 0.930 . S
O434 Cu414 1.959 . S
O434 C421 1.251 . S
H435 C418 0.930 . S
H436 C429 0.929 . S
Cu437 N438 1.999 . S
Cu437 O443 1.974 . S
Cu437 N448 1.985 . S
Cu437 O457 1.959 . S
N438 Cu437 1.999 . S
N438 C440 1.263 . S
N438 C442 1.389 . S
N439 C440 1.358 . S
N439 C441 1.400 . S
C440 N438 1.263 . S
C440 N439 1.358 . S
C440 H446 0.930 . S
C441 N439 1.400 . S
C441 C442 1.351 . S
C441 H458 0.930 . S
C442 N438 1.389 . S
C442 C441 1.351 . S
C442 H447 0.930 . S
O443 Cu437 1.974 . S
O443 C453 1.282 . S
C444 O445 1.261 . S
C444 O457 1.251 . S
O445 C444 1.261 . S
H446 C440 0.930 . S
H447 C442 0.930 . S
N448 Cu437 1.985 . S
N448 C450 1.335 . S
N448 C451 1.390 . S
N449 C450 1.345 . S
N449 C452 1.336 . S
C450 N448 1.335 . S
C450 N449 1.345 . S
C450 H455 0.930 . S
C451 N448 1.390 . S
C451 C452 1.346 . S
C451 H456 0.930 . S
C452 N449 1.336 . S
C452 C451 1.346 . S
C452 H459 0.929 . S
C453 O443 1.282 . S
C453 O454 1.216 . S
O454 C453 1.216 . S
H455 C450 0.930 . S
H456 C451 0.930 . S
O457 Cu437 1.959 . S
O457 C444 1.251 . S
H458 C441 0.930 . S
H459 C452 0.929 . S
Cu460 N461 1.999 . S
Cu460 O466 1.974 . S
Cu460 N471 1.985 . S
Cu460 O480 1.959 . S
N461 Cu460 1.999 . S
N461 C463 1.263 . S
N461 C465 1.389 . S
N462 C463 1.358 . S
N462 C464 1.400 . S
C463 N461 1.263 . S
C463 N462 1.358 . S
C463 H469 0.930 . S
C464 N462 1.400 . S
C464 C465 1.351 . S
C464 H481 0.930 . S
C465 N461 1.389 . S
C465 C464 1.351 . S
C465 H470 0.930 . S
O466 Cu460 1.974 . S
O466 C476 1.282 . S
C467 O468 1.261 . S
C467 O480 1.251 . S
O468 C467 1.261 . S
H469 C463 0.930 . S
H470 C465 0.930 . S
N471 Cu460 1.985 . S
N471 C473 1.335 . S
N471 C474 1.390 . S
N472 C473 1.345 . S
N472 C475 1.336 . S
C473 N471 1.335 . S
C473 N472 1.345 . S
C473 H478 0.930 . S
C474 N471 1.390 . S
C474 C475 1.346 . S
C474 H479 0.930 . S
C475 N472 1.336 . S
C475 C474 1.346 . S
C475 H482 0.929 . S
C476 O466 1.282 . S
C476 O477 1.216 . S
O477 C476 1.216 . S
H478 C473 0.930 . S
H479 C474 0.930 . S
O480 Cu460 1.959 . S
O480 C467 1.251 . S
H481 C464 0.930 . S
H482 C475 0.929 . S
Cu483 N484 1.999 . S
Cu483 O489 1.974 . S
Cu483 N494 1.985 . S
Cu483 O503 1.959 . S
N484 Cu483 1.999 . S
N484 C486 1.263 . S
N484 C488 1.389 . S
N485 C486 1.358 . S
N485 C487 1.400 . S
C486 N484 1.263 . S
C486 N485 1.358 . S
C486 H492 0.930 . S
C487 N485 1.400 . S
C487 C488 1.351 . S
C487 H504 0.930 . S
C488 N484 1.389 . S
C488 C487 1.351 . S
C488 H493 0.930 . S
O489 Cu483 1.974 . S
O489 C499 1.282 . S
C490 O491 1.261 . S
C490 O503 1.251 . S
O491 C490 1.261 . S
H492 C486 0.930 . S
H493 C488 0.930 . S
N494 Cu483 1.985 . S
N494 C496 1.335 . S
N494 C497 1.390 . S
N495 C496 1.345 . S
N495 C498 1.336 . S
C496 N494 1.335 . S
C496 N495 1.345 . S
C496 H501 0.930 . S
C497 N494 1.390 . S
C497 C498 1.346 . S
C497 H502 0.930 . S
C498 N495 1.336 . S
C498 C497 1.346 . S
C498 H505 0.929 . S
C499 O489 1.282 . S
C499 O500 1.216 . S
O500 C499 1.216 . S
H501 C496 0.930 . S
H502 C497 0.930 . S
O503 Cu483 1.959 . S
O503 C490 1.251 . S
H504 C487 0.930 . S
H505 C498 0.929 . S
Cu506 N507 1.999 . S
Cu506 O512 1.974 . S
Cu506 N517 1.985 . S
Cu506 O526 1.959 . S
N507 Cu506 1.999 . S
N507 C509 1.263 . S
N507 C511 1.389 . S
N508 C509 1.358 . S
N508 C510 1.400 . S
C509 N507 1.263 . S
C509 N508 1.358 . S
C509 H515 0.930 . S
C510 N508 1.400 . S
C510 C511 1.351 . S
C510 H527 0.930 . S
C511 N507 1.389 . S
C511 C510 1.351 . S
C511 H516 0.930 . S
O512 Cu506 1.974 . S
O512 C522 1.282 . S
C513 O514 1.261 . S
C513 O526 1.251 . S
O514 C513 1.261 . S
H515 C509 0.930 . S
H516 C511 0.930 . S
N517 Cu506 1.985 . S
N517 C519 1.335 . S
N517 C520 1.390 . S
N518 C519 1.345 . S
N518 C521 1.336 . S
C519 N517 1.335 . S
C519 N518 1.345 . S
C519 H524 0.930 . S
C520 N517 1.390 . S
C520 C521 1.346 . S
C520 H525 0.930 . S
C521 N518 1.336 . S
C521 C520 1.346 . S
C521 H528 0.929 . S
C522 O512 1.282 . S
C522 O523 1.216 . S
O523 C522 1.216 . S
H524 C519 0.930 . S
H525 C520 0.930 . S
O526 Cu506 1.959 . S
O526 C513 1.251 . S
H527 C510 0.930 . S
H528 C521 0.929 . S
Cu529 N530 1.999 . S
Cu529 O535 1.974 . S
Cu529 N540 1.985 . S
Cu529 O549 1.959 . S
N530 Cu529 1.999 . S
N530 C532 1.263 . S
N530 C534 1.389 . S
N531 C532 1.358 . S
N531 C533 1.400 . S
C532 N530 1.263 . S
C532 N531 1.358 . S
C532 H538 0.930 . S
C533 N531 1.400 . S
C533 C534 1.351 . S
C533 H550 0.930 . S
C534 N530 1.389 . S
C534 C533 1.351 . S
C534 H539 0.930 . S
O535 Cu529 1.974 . S
O535 C545 1.282 . S
C536 O537 1.261 . S
C536 O549 1.251 . S
O537 C536 1.261 . S
H538 C532 0.930 . S
H539 C534 0.930 . S
N540 Cu529 1.985 . S
N540 C542 1.335 . S
N540 C543 1.390 . S
N541 C542 1.345 . S
N541 C544 1.336 . S
C542 N540 1.335 . S
C542 N541 1.345 . S
C542 H547 0.930 . S
C543 N540 1.390 . S
C543 C544 1.346 . S
C543 H548 0.930 . S
C544 N541 1.336 . S
C544 C543 1.346 . S
C544 H551 0.929 . S
C545 O535 1.282 . S
C545 O546 1.216 . S
O546 C545 1.216 . S
H547 C542 0.930 . S
H548 C543 0.930 . S
O549 Cu529 1.959 . S
O549 C536 1.251 . S
H550 C533 0.930 . S
H551 C544 0.929 . S
Cu552 N553 1.999 . S
Cu552 O558 1.974 . S
Cu552 N563 1.985 . S
Cu552 O572 1.959 . S
N553 Cu552 1.999 . S
N553 C555 1.263 . S
N553 C557 1.389 . S
N554 C555 1.358 . S
N554 C556 1.400 . S
C555 N553 1.263 . S
C555 N554 1.358 . S
C555 H561 0.930 . S
C556 N554 1.400 . S
C556 C557 1.351 . S
C556 H573 0.930 . S
C557 N553 1.389 . S
C557 C556 1.351 . S
C557 H562 0.930 . S
O558 Cu552 1.974 . S
O558 C568 1.282 . S
C559 O560 1.261 . S
C559 O572 1.251 . S
O560 C559 1.261 . S
H561 C555 0.930 . S
H562 C557 0.930 . S
N563 Cu552 1.985 . S
N563 C565 1.335 . S
N563 C566 1.390 . S
N564 C565 1.345 . S
N564 C567 1.336 . S
C565 N563 1.335 . S
C565 N564 1.345 . S
C565 H570 0.930 . S
C566 N563 1.390 . S
C566 C567 1.346 . S
C566 H571 0.930 . S
C567 N564 1.336 . S
C567 C566 1.346 . S
C567 H574 0.929 . S
C568 O558 1.282 . S
C568 O569 1.216 . S
O569 C568 1.216 . S
H570 C565 0.930 . S
H571 C566 0.930 . S
O572 Cu552 1.959 . S
O572 C559 1.251 . S
H573 C556 0.930 . S
H574 C567 0.929 . S
Cu575 N576 1.999 . S
Cu575 O581 1.974 . S
Cu575 N586 1.985 . S
Cu575 O595 1.959 . S
N576 Cu575 1.999 . S
N576 C578 1.263 . S
N576 C580 1.389 . S
N577 C578 1.358 . S
N577 C579 1.400 . S
C578 N576 1.263 . S
C578 N577 1.358 . S
C578 H584 0.930 . S
C579 N577 1.400 . S
C579 C580 1.351 . S
C579 H596 0.930 . S
C580 N576 1.389 . S
C580 C579 1.351 . S
C580 H585 0.930 . S
O581 Cu575 1.974 . S
O581 C591 1.282 . S
C582 O583 1.261 . S
C582 O595 1.251 . S
O583 C582 1.261 . S
H584 C578 0.930 . S
H585 C580 0.930 . S
N586 Cu575 1.985 . S
N586 C588 1.335 . S
N586 C589 1.390 . S
N587 C588 1.345 . S
N587 C590 1.336 . S
C588 N586 1.335 . S
C588 N587 1.345 . S
C588 H593 0.930 . S
C589 N586 1.390 . S
C589 C590 1.346 . S
C589 H594 0.930 . S
C590 N587 1.336 . S
C590 C589 1.346 . S
C590 H597 0.929 . S
C591 O581 1.282 . S
C591 O592 1.216 . S
O592 C591 1.216 . S
H593 C588 0.930 . S
H594 C589 0.930 . S
O595 Cu575 1.959 . S
O595 C582 1.251 . S
H596 C579 0.930 . S
H597 C590 0.929 . S
Cu598 N599 1.999 1_556 S
Cu598 O604 1.974 . S
Cu598 N609 1.985 . S
Cu598 O618 1.959 1_556 S
N599 Cu598 1.999 1_554 S
N599 C601 1.263 1_554 S
N599 C603 1.389 . S
N600 C601 1.353 1_554 S
N600 C602 1.412 . S
C601 N599 1.263 1_556 S
C601 N600 1.353 1_556 S
C601 H607 0.930 . S
C602 N600 1.412 . S
C602 C603 1.351 . S
C602 H619 0.930 . S
C603 N599 1.389 . S
C603 C602 1.351 . S
C603 H608 0.930 . S
O604 Cu598 1.974 . S
O604 C614 1.282 . S
C605 O606 1.261 . S
C605 O618 1.251 . S
O606 C605 1.261 . S
H607 C601 0.930 . S
H608 C603 0.930 . S
N609 Cu598 1.985 . S
N609 C611 1.335 1_556 S
N609 C612 1.390 . S
N610 C611 1.345 1_556 S
N610 C613 1.336 . S
C611 N609 1.335 1_554 S
C611 N610 1.345 1_554 S
C611 H616 0.930 . S
C612 N609 1.390 . S
C612 C613 1.346 . S
C612 H617 0.930 . S
C613 N610 1.336 . S
C613 C612 1.346 . S
C613 H620 0.929 . S
C614 O604 1.282 . S
C614 O615 1.216 . S
O615 C614 1.216 . S
H616 C611 0.930 . S
H617 C612 0.930 . S
O618 Cu598 1.959 1_554 S
O618 C605 1.251 . S
H619 C602 0.930 . S
H620 C613 0.929 . S
Cu621 N622 1.999 1_556 S
Cu621 O627 1.974 . S
Cu621 N632 1.985 . S
Cu621 O641 1.959 1_556 S
N622 Cu621 1.999 1_554 S
N622 C624 1.263 1_554 S
N622 C626 1.389 . S
N623 C624 1.353 1_554 S
N623 C625 1.412 . S
C624 N622 1.263 1_556 S
C624 N623 1.353 1_556 S
C624 H630 0.930 . S
C625 N623 1.412 . S
C625 C626 1.351 . S
C625 H642 0.930 . S
C626 N622 1.389 . S
C626 C625 1.351 . S
C626 H631 0.930 . S
O627 Cu621 1.974 . S
O627 C637 1.282 . S
C628 O629 1.261 . S
C628 O641 1.251 . S
O629 C628 1.261 . S
H630 C624 0.930 . S
H631 C626 0.930 . S
N632 Cu621 1.985 . S
N632 C634 1.335 1_556 S
N632 C635 1.390 . S
N633 C634 1.345 1_556 S
N633 C636 1.336 . S
C634 N632 1.335 1_554 S
C634 N633 1.345 1_554 S
C634 H639 0.930 . S
C635 N632 1.390 . S
C635 C636 1.346 . S
C635 H640 0.930 . S
C636 N633 1.336 . S
C636 C635 1.346 . S
C636 H643 0.929 . S
C637 O627 1.282 . S
C637 O638 1.216 . S
O638 C637 1.216 . S
H639 C634 0.930 . S
H640 C635 0.930 . S
O641 Cu621 1.959 1_554 S
O641 C628 1.251 . S
H642 C625 0.930 . S
H643 C636 0.929 . S
Cu644 N645 1.999 . S
Cu644 O650 1.974 . S
Cu644 N655 1.985 . S
Cu644 O664 1.959 . S
N645 Cu644 1.999 . S
N645 C647 1.263 . S
N645 C649 1.389 . S
N646 C647 1.358 . S
N646 C648 1.400 . S
C647 N645 1.263 . S
C647 N646 1.358 . S
C647 H653 0.930 . S
C648 N646 1.400 . S
C648 C649 1.351 . S
C648 H665 0.930 . S
C649 N645 1.389 . S
C649 C648 1.351 . S
C649 H654 0.930 . S
O650 Cu644 1.974 . S
O650 C660 1.282 . S
C651 O652 1.261 . S
C651 O664 1.251 . S
O652 C651 1.261 . S
H653 C647 0.930 . S
H654 C649 0.930 . S
N655 Cu644 1.985 . S
N655 C657 1.335 . S
N655 C658 1.390 . S
N656 C657 1.345 . S
N656 C659 1.336 . S
C657 N655 1.335 . S
C657 N656 1.345 . S
C657 H662 0.930 . S
C658 N655 1.390 . S
C658 C659 1.346 . S
C658 H663 0.930 . S
C659 N656 1.336 . S
C659 C658 1.346 . S
C659 H666 0.929 . S
C660 O650 1.282 . S
C660 O661 1.216 . S
O661 C660 1.216 . S
H662 C657 0.930 . S
H663 C658 0.930 . S
O664 Cu644 1.959 . S
O664 C651 1.251 . S
H665 C648 0.930 . S
H666 C659 0.929 . S
Cu667 N668 1.999 . S
Cu667 O673 1.974 . S
Cu667 N678 1.985 . S
Cu667 O687 1.959 . S
N668 Cu667 1.999 . S
N668 C670 1.263 . S
N668 C672 1.389 . S
N669 C670 1.358 . S
N669 C671 1.400 . S
C670 N668 1.263 . S
C670 N669 1.358 . S
C670 H676 0.930 . S
C671 N669 1.400 . S
C671 C672 1.351 . S
C671 H688 0.930 . S
C672 N668 1.389 . S
C672 C671 1.351 . S
C672 H677 0.930 . S
O673 Cu667 1.974 . S
O673 C683 1.282 . S
C674 O675 1.261 . S
C674 O687 1.251 . S
O675 C674 1.261 . S
H676 C670 0.930 . S
H677 C672 0.930 . S
N678 Cu667 1.985 . S
N678 C680 1.335 . S
N678 C681 1.390 . S
N679 C680 1.345 . S
N679 C682 1.336 . S
C680 N678 1.335 . S
C680 N679 1.345 . S
C680 H685 0.930 . S
C681 N678 1.390 . S
C681 C682 1.346 . S
C681 H686 0.930 . S
C682 N679 1.336 . S
C682 C681 1.346 . S
C682 H689 0.929 . S
C683 O673 1.282 . S
C683 O684 1.216 . S
O684 C683 1.216 . S
H685 C680 0.930 . S
H686 C681 0.930 . S
O687 Cu667 1.959 . S
O687 C674 1.251 . S
H688 C671 0.930 . S
H689 C682 0.929 . S
Cu690 N691 1.999 1_554 S
Cu690 O696 1.974 . S
Cu690 N701 1.985 . S
Cu690 O710 1.959 1_554 S
N691 Cu690 1.999 1_556 S
N691 C693 1.263 1_556 S
N691 C695 1.389 . S
N692 C693 1.353 1_556 S
N692 C694 1.412 . S
C693 N691 1.263 1_554 S
C693 N692 1.353 1_554 S
C693 H699 0.930 . S
C694 N692 1.412 . S
C694 C695 1.351 . S
C694 H711 0.930 . S
C695 N691 1.389 . S
C695 C694 1.351 . S
C695 H700 0.930 . S
O696 Cu690 1.974 . S
O696 C706 1.282 . S
C697 O698 1.261 . S
C697 O710 1.251 . S
O698 C697 1.261 . S
H699 C693 0.930 . S
H700 C695 0.930 . S
N701 Cu690 1.985 . S
N701 C703 1.335 1_554 S
N701 C704 1.390 . S
N702 C703 1.345 1_554 S
N702 C705 1.336 . S
C703 N701 1.335 1_556 S
C703 N702 1.345 1_556 S
C703 H708 0.930 . S
C704 N701 1.390 . S
C704 C705 1.346 . S
C704 H709 0.930 . S
C705 N702 1.336 . S
C705 C704 1.346 . S
C705 H712 0.929 . S
C706 O696 1.282 . S
C706 O707 1.216 . S
O707 C706 1.216 . S
H708 C703 0.930 . S
H709 C704 0.930 . S
O710 Cu690 1.959 1_556 S
O710 C697 1.251 . S
H711 C694 0.930 . S
H712 C705 0.929 . S
Cu713 N714 1.999 1_554 S
Cu713 O719 1.974 . S
Cu713 N724 1.985 . S
Cu713 O733 1.959 1_554 S
N714 Cu713 1.999 1_556 S
N714 C716 1.263 1_556 S
N714 C718 1.389 . S
N715 C716 1.353 1_556 S
N715 C717 1.412 . S
C716 N714 1.263 1_554 S
C716 N715 1.353 1_554 S
C716 H722 0.930 . S
C717 N715 1.412 . S
C717 C718 1.351 . S
C717 H734 0.930 . S
C718 N714 1.389 . S
C718 C717 1.351 . S
C718 H723 0.930 . S
O719 Cu713 1.974 . S
O719 C729 1.282 . S
C720 O721 1.261 . S
C720 O733 1.251 . S
O721 C720 1.261 . S
H722 C716 0.930 . S
H723 C718 0.930 . S
N724 Cu713 1.985 . S
N724 C726 1.335 1_554 S
N724 C727 1.390 . S
N725 C726 1.345 1_554 S
N725 C728 1.336 . S
C726 N724 1.335 1_556 S
C726 N725 1.345 1_556 S
C726 H731 0.930 . S
C727 N724 1.390 . S
C727 C728 1.346 . S
C727 H732 0.930 . S
C728 N725 1.336 . S
C728 C727 1.346 . S
C728 H735 0.929 . S
C729 O719 1.282 . S
C729 O730 1.216 . S
O730 C729 1.216 . S
H731 C726 0.930 . S
H732 C727 0.930 . S
O733 Cu713 1.959 1_556 S
O733 C720 1.251 . S
H734 C717 0.930 . S
H735 C728 0.929 . S
C736 C737 1.363 . S
C736 C742 1.379 . S
C736 N744 1.356 . S
C737 C736 1.363 . S
C737 C743 1.363 . S
C738 C739 1.363 . S
C738 C743 1.379 . S
C738 N745 1.356 . S
C739 C738 1.363 . S
C739 C742 1.363 . S
N740 C742 1.356 . S
N740 H752 0.984 . S
N740 H753 0.985 . S
N741 C743 1.356 . S
N741 H746 0.984 . S
N741 H747 0.985 . S
C742 C736 1.379 . S
C742 C739 1.363 . S
C742 N740 1.356 . S
C743 C737 1.363 . S
C743 C738 1.379 . S
C743 N741 1.356 . S
N744 C736 1.356 . S
N744 H750 0.984 . S
N744 H751 0.984 . S
N745 C738 1.356 . S
N745 H748 0.984 . S
N745 H749 0.985 . S
H746 N741 0.984 . S
H747 N741 0.985 . S
H748 N745 0.984 . S
H749 N745 0.985 . S
H750 N744 0.984 . S
H751 N744 0.984 . S
H752 N740 0.984 . S
H753 N740 0.985 . S
C754 C755 1.363 . S
C754 C760 1.379 . S
C754 N762 1.356 . S
C755 C754 1.363 . S
C755 C761 1.363 . S
C756 C757 1.363 . S
C756 C761 1.379 . S
C756 N763 1.356 . S
C757 C756 1.363 . S
C757 C760 1.363 . S
N758 C760 1.356 . S
N758 H770 0.984 . S
N758 H771 0.985 . S
N759 C761 1.356 . S
N759 H764 0.984 . S
N759 H765 0.985 . S
C760 C754 1.379 . S
C760 C757 1.363 . S
C760 N758 1.356 . S
C761 C755 1.363 . S
C761 C756 1.379 . S
C761 N759 1.356 . S
N762 C754 1.356 . S
N762 H768 0.984 . S
N762 H769 0.984 . S
N763 C756 1.356 . S
N763 H766 0.984 . S
N763 H767 0.985 . S
H764 N759 0.984 . S
H765 N759 0.985 . S
H766 N763 0.984 . S
H767 N763 0.985 . S
H768 N762 0.984 . S
H769 N762 0.984 . S
H770 N758 0.984 . S
H771 N758 0.985 . S
C772 C773 1.363 . S
C772 C778 1.379 . S
C772 N780 1.356 . S
C773 C772 1.363 . S
C773 C779 1.363 . S
C774 C775 1.363 . S
C774 C779 1.379 . S
C774 N781 1.356 . S
C775 C774 1.363 . S
C775 C778 1.363 . S
N776 C778 1.356 . S
N776 H788 0.984 . S
N776 H789 0.985 . S
N777 C779 1.356 . S
N777 H782 0.984 . S
N777 H783 0.985 . S
C778 C772 1.379 . S
C778 C775 1.363 . S
C778 N776 1.356 . S
C779 C773 1.363 . S
C779 C774 1.379 . S
C779 N777 1.356 . S
N780 C772 1.356 . S
N780 H786 0.984 . S
N780 H787 0.984 . S
N781 C774 1.356 . S
N781 H784 0.984 . S
N781 H785 0.985 . S
H782 N777 0.984 . S
H783 N777 0.985 . S
H784 N781 0.984 . S
H785 N781 0.985 . S
H786 N780 0.984 . S
H787 N780 0.984 . S
H788 N776 0.984 . S
H789 N776 0.985 . S
C790 C791 1.363 . S
C790 C796 1.379 . S
C790 N798 1.356 . S
C791 C790 1.363 . S
C791 C797 1.363 . S
C792 C793 1.363 . S
C792 C797 1.379 . S
C792 N799 1.356 . S
C793 C792 1.363 . S
C793 C796 1.363 . S
N794 C796 1.356 . S
N794 H806 0.984 . S
N794 H807 0.985 . S
N795 C797 1.356 . S
N795 H800 0.984 . S
N795 H801 0.985 . S
C796 C790 1.379 . S
C796 C793 1.363 . S
C796 N794 1.356 . S
C797 C791 1.363 . S
C797 C792 1.379 . S
C797 N795 1.356 . S
N798 C790 1.356 . S
N798 H804 0.984 . S
N798 H805 0.984 . S
N799 C792 1.356 . S
N799 H802 0.984 . S
N799 H803 0.985 . S
H800 N795 0.984 . S
H801 N795 0.985 . S
H802 N799 0.984 . S
H803 N799 0.985 . S
H804 N798 0.984 . S
H805 N798 0.984 . S
H806 N794 0.984 . S
H807 N794 0.985 . S
C808 C809 1.363 . S
C808 C814 1.379 . S
C808 N816 1.356 . S
C809 C808 1.363 . S
C809 C815 1.363 . S
C810 C811 1.363 . S
C810 C815 1.379 . S
C810 N817 1.356 . S
C811 C810 1.363 . S
C811 C814 1.363 . S
N812 C814 1.356 . S
N812 H824 0.984 . S
N812 H825 0.985 . S
N813 C815 1.356 . S
N813 H818 0.984 . S
N813 H819 0.985 . S
C814 C808 1.379 . S
C814 C811 1.363 . S
C814 N812 1.356 . S
C815 C809 1.363 . S
C815 C810 1.379 . S
C815 N813 1.356 . S
N816 C808 1.356 . S
N816 H822 0.984 . S
N816 H823 0.984 . S
N817 C810 1.356 . S
N817 H820 0.984 . S
N817 H821 0.985 . S
H818 N813 0.984 . S
H819 N813 0.985 . S
H820 N817 0.984 . S
H821 N817 0.985 . S
H822 N816 0.984 . S
H823 N816 0.984 . S
H824 N812 0.984 . S
H825 N812 0.985 . S
C826 C827 1.363 . S
C826 C832 1.379 . S
C826 N834 1.356 . S
C827 C826 1.363 . S
C827 C833 1.363 . S
C828 C829 1.363 . S
C828 C833 1.379 . S
C828 N835 1.356 . S
C829 C828 1.363 . S
C829 C832 1.363 . S
N830 C832 1.356 . S
N830 H842 0.984 . S
N830 H843 0.985 . S
N831 C833 1.356 . S
N831 H836 0.984 . S
N831 H837 0.985 . S
C832 C826 1.379 . S
C832 C829 1.363 . S
C832 N830 1.356 . S
C833 C827 1.363 . S
C833 C828 1.379 . S
C833 N831 1.356 . S
N834 C826 1.356 . S
N834 H840 0.984 . S
N834 H841 0.984 . S
N835 C828 1.356 . S
N835 H838 0.984 . S
N835 H839 0.985 . S
H836 N831 0.984 . S
H837 N831 0.985 . S
H838 N835 0.984 . S
H839 N835 0.985 . S
H840 N834 0.984 . S
H841 N834 0.984 . S
H842 N830 0.984 . S
H843 N830 0.985 . S
C844 C845 1.363 . S
C844 C850 1.379 . S
C844 N852 1.356 . S
C845 C844 1.363 . S
C845 C851 1.363 . S
C846 C847 1.363 . S
C846 C851 1.379 . S
C846 N853 1.356 . S
C847 C846 1.363 . S
C847 C850 1.363 . S
N848 C850 1.356 . S
N848 H860 0.984 . S
N848 H861 0.985 . S
N849 C851 1.356 . S
N849 H854 0.984 . S
N849 H855 0.985 . S
C850 C844 1.379 . S
C850 C847 1.363 . S
C850 N848 1.356 . S
C851 C845 1.363 . S
C851 C846 1.379 . S
C851 N849 1.356 . S
N852 C844 1.356 . S
N852 H858 0.984 . S
N852 H859 0.984 . S
N853 C846 1.356 . S
N853 H856 0.984 . S
N853 H857 0.985 . S
H854 N849 0.984 . S
H855 N849 0.985 . S
H856 N853 0.984 . S
H857 N853 0.985 . S
H858 N852 0.984 . S
H859 N852 0.984 . S
H860 N848 0.984 . S
H861 N848 0.985 . S
C862 C863 1.363 . S
C862 C868 1.379 . S
C862 N870 1.356 . S
C863 C862 1.363 . S
C863 C869 1.363 . S
C864 C865 1.363 . S
C864 C869 1.379 . S
C864 N871 1.356 . S
C865 C864 1.363 . S
C865 C868 1.363 . S
N866 C868 1.356 . S
N866 H878 0.984 . S
N866 H879 0.985 . S
N867 C869 1.356 . S
N867 H872 0.984 . S
N867 H873 0.985 . S
C868 C862 1.379 . S
C868 C865 1.363 . S
C868 N866 1.356 . S
C869 C863 1.363 . S
C869 C864 1.379 . S
C869 N867 1.356 . S
N870 C862 1.356 . S
N870 H876 0.984 . S
N870 H877 0.984 . S
N871 C864 1.356 . S
N871 H874 0.984 . S
N871 H875 0.985 . S
H872 N867 0.984 . S
H873 N867 0.985 . S
H874 N871 0.984 . S
H875 N871 0.985 . S
H876 N870 0.984 . S
H877 N870 0.984 . S
H878 N866 0.984 . S
H879 N866 0.985 . S
C880 C881 1.363 . S
C880 C886 1.379 . S
C880 N888 1.356 . S
C881 C880 1.363 . S
C881 C887 1.363 . S
C882 C883 1.363 . S
C882 C887 1.379 . S
C882 N889 1.356 . S
C883 C882 1.363 . S
C883 C886 1.363 . S
N884 C886 1.356 . S
N884 H896 0.984 . S
N884 H897 0.985 . S
N885 C887 1.356 . S
N885 H890 0.984 . S
N885 H891 0.985 . S
C886 C880 1.379 . S
C886 C883 1.363 . S
C886 N884 1.356 . S
C887 C881 1.363 . S
C887 C882 1.379 . S
C887 N885 1.356 . S
N888 C880 1.356 . S
N888 H894 0.984 . S
N888 H895 0.984 . S
N889 C882 1.356 . S
N889 H892 0.984 . S
N889 H893 0.985 . S
H890 N885 0.984 . S
H891 N885 0.985 . S
H892 N889 0.984 . S
H893 N889 0.985 . S
H894 N888 0.984 . S
H895 N888 0.984 . S
H896 N884 0.984 . S
H897 N884 0.985 . S
C898 C899 1.363 . S
C898 C904 1.379 . S
C898 N906 1.356 . S
C899 C898 1.363 . S
C899 C905 1.363 . S
C900 C901 1.363 . S
C900 C905 1.379 . S
C900 N907 1.356 . S
C901 C900 1.363 . S
C901 C904 1.363 . S
N902 C904 1.356 . S
N902 H914 0.984 . S
N902 H915 0.985 . S
N903 C905 1.356 . S
N903 H908 0.984 . S
N903 H909 0.985 . S
C904 C898 1.379 . S
C904 C901 1.363 . S
C904 N902 1.356 . S
C905 C899 1.363 . S
C905 C900 1.379 . S
C905 N903 1.356 . S
N906 C898 1.356 . S
N906 H912 0.984 . S
N906 H913 0.984 . S
N907 C900 1.356 . S
N907 H910 0.984 . S
N907 H911 0.985 . S
H908 N903 0.984 . S
H909 N903 0.985 . S
H910 N907 0.984 . S
H911 N907 0.985 . S
H912 N906 0.984 . S
H913 N906 0.984 . S
H914 N902 0.984 . S
H915 N902 0.985 . S
C916 C917 1.363 . S
C916 C922 1.379 . S
C916 N924 1.356 . S
C917 C916 1.363 . S
C917 C923 1.363 . S
C918 C919 1.363 . S
C918 C923 1.379 . S
C918 N925 1.356 . S
C919 C918 1.363 . S
C919 C922 1.363 . S
N920 C922 1.356 . S
N920 H932 0.984 . S
N920 H933 0.985 . S
N921 C923 1.356 . S
N921 H926 0.984 . S
N921 H927 0.985 . S
C922 C916 1.379 . S
C922 C919 1.363 . S
C922 N920 1.356 . S
C923 C917 1.363 . S
C923 C918 1.379 . S
C923 N921 1.356 . S
N924 C916 1.356 . S
N924 H930 0.984 . S
N924 H931 0.984 . S
N925 C918 1.356 . S
N925 H928 0.984 . S
N925 H929 0.985 . S
H926 N921 0.984 . S
H927 N921 0.985 . S
H928 N925 0.984 . S
H929 N925 0.985 . S
H930 N924 0.984 . S
H931 N924 0.984 . S
H932 N920 0.984 . S
H933 N920 0.985 . S
C934 C935 1.363 . S
C934 C940 1.379 . S
C934 N942 1.356 . S
C935 C934 1.363 . S
C935 C941 1.363 . S
C936 C937 1.363 . S
C936 C941 1.379 . S
C936 N943 1.356 . S
C937 C936 1.363 . S
C937 C940 1.363 . S
N938 C940 1.356 . S
N938 H950 0.984 . S
N938 H951 0.985 . S
N939 C941 1.356 . S
N939 H944 0.984 . S
N939 H945 0.985 . S
C940 C934 1.379 . S
C940 C937 1.363 . S
C940 N938 1.356 . S
C941 C935 1.363 . S
C941 C936 1.379 . S
C941 N939 1.356 . S
N942 C934 1.356 . S
N942 H948 0.984 . S
N942 H949 0.984 . S
N943 C936 1.356 . S
N943 H946 0.984 . S
N943 H947 0.985 . S
H944 N939 0.984 . S
H945 N939 0.985 . S
H946 N943 0.984 . S
H947 N943 0.985 . S
H948 N942 0.984 . S
H949 N942 0.984 . S
H950 N938 0.984 . S
H951 N938 0.985 . S
C952 C953 1.363 . S
C952 C958 1.379 . S
C952 N960 1.356 . S
C953 C952 1.363 . S
C953 C959 1.363 . S
C954 C955 1.363 . S
C954 C959 1.379 . S
C954 N961 1.356 . S
C955 C954 1.363 . S
C955 C958 1.363 . S
N956 C958 1.356 . S
N956 H968 0.984 . S
N956 H969 0.985 . S
N957 C959 1.356 . S
N957 H962 0.984 . S
N957 H963 0.985 . S
C958 C952 1.379 . S
C958 C955 1.363 . S
C958 N956 1.356 . S
C959 C953 1.363 . S
C959 C954 1.379 . S
C959 N957 1.356 . S
N960 C952 1.356 . S
N960 H966 0.984 . S
N960 H967 0.984 . S
N961 C954 1.356 . S
N961 H964 0.984 . S
N961 H965 0.985 . S
H962 N957 0.984 . S
H963 N957 0.985 . S
H964 N961 0.984 . S
H965 N961 0.985 . S
H966 N960 0.984 . S
H967 N960 0.984 . S
H968 N956 0.984 . S
H969 N956 0.985 . S
C970 C971 1.363 . S
C970 C976 1.379 . S
C970 N978 1.356 . S
C971 C970 1.363 . S
C971 C977 1.363 . S
C972 C973 1.363 . S
C972 C977 1.379 . S
C972 N979 1.356 . S
C973 C972 1.363 . S
C973 C976 1.363 . S
N974 C976 1.356 . S
N974 H986 0.984 . S
N974 H987 0.985 . S
N975 C977 1.356 . S
N975 H980 0.984 . S
N975 H981 0.985 . S
C976 C970 1.379 . S
C976 C973 1.363 . S
C976 N974 1.356 . S
C977 C971 1.363 . S
C977 C972 1.379 . S
C977 N975 1.356 . S
N978 C970 1.356 . S
N978 H984 0.984 . S
N978 H985 0.984 . S
N979 C972 1.356 . S
N979 H982 0.984 . S
N979 H983 0.985 . S
H980 N975 0.984 . S
H981 N975 0.985 . S
H982 N979 0.984 . S
H983 N979 0.985 . S
H984 N978 0.984 . S
H985 N978 0.984 . S
H986 N974 0.984 . S
H987 N974 0.985 . S
C988 C989 1.363 . S
C988 C994 1.379 . S
C988 N996 1.356 . S
C989 C988 1.363 . S
C989 C995 1.363 . S
C990 C991 1.363 . S
C990 C995 1.379 . S
C990 N997 1.356 . S
C991 C990 1.363 . S
C991 C994 1.363 . S
N992 C994 1.356 . S
N992 H1004 0.984 . S
N992 H1005 0.985 . S
N993 C995 1.356 . S
N993 H998 0.984 . S
N993 H999 0.985 . S
C994 C988 1.379 . S
C994 C991 1.363 . S
C994 N992 1.356 . S
C995 C989 1.363 . S
C995 C990 1.379 . S
C995 N993 1.356 . S
N996 C988 1.356 . S
N996 H1002 0.984 . S
N996 H1003 0.984 . S
N997 C990 1.356 . S
N997 H1000 0.984 . S
N997 H1001 0.985 . S
H998 N993 0.984 . S
H999 N993 0.985 . S
H1000 N997 0.984 . S
H1001 N997 0.985 . S
H1002 N996 0.984 . S
H1003 N996 0.984 . S
H1004 N992 0.984 . S
H1005 N992 0.985 . S
C1006 C1007 1.363 . S
C1006 C1012 1.379 . S
C1006 N1014 1.356 . S
C1007 C1006 1.363 . S
C1007 C1013 1.363 . S
C1008 C1009 1.363 . S
C1008 C1013 1.379 . S
C1008 N1015 1.356 . S
C1009 C1008 1.363 . S
C1009 C1012 1.363 . S
N1010 C1012 1.356 . S
N1010 H1022 0.984 . S
N1010 H1023 0.985 . S
N1011 C1013 1.356 . S
N1011 H1016 0.984 . S
N1011 H1017 0.985 . S
C1012 C1006 1.379 . S
C1012 C1009 1.363 . S
C1012 N1010 1.356 . S
C1013 C1007 1.363 . S
C1013 C1008 1.379 . S
C1013 N1011 1.356 . S
N1014 C1006 1.356 . S
N1014 H1020 0.984 . S
N1014 H1021 0.984 . S
N1015 C1008 1.356 . S
N1015 H1018 0.984 . S
N1015 H1019 0.985 . S
H1016 N1011 0.984 . S
H1017 N1011 0.985 . S
H1018 N1015 0.984 . S
H1019 N1015 0.985 . S
H1020 N1014 0.984 . S
H1021 N1014 0.984 . S
H1022 N1010 0.984 . S
H1023 N1010 0.985 . S
C1024 C1025 1.363 . S
C1024 C1030 1.368 1_655 S
C1024 N1032 1.356 . S
C1025 C1024 1.363 . S
C1025 C1031 1.375 . S
C1026 C1027 1.363 . S
C1026 C1031 1.367 1_455 S
C1026 N1033 1.356 . S
C1027 C1026 1.363 . S
C1027 C1030 1.374 . S
N1028 C1030 1.360 . S
N1028 H1040 0.984 1_455 S
N1028 H1041 0.985 . S
N1029 C1031 1.360 . S
N1029 H1034 0.984 . S
N1029 H1035 0.985 1_655 S
C1030 C1024 1.368 1_455 S
C1030 C1027 1.374 . S
C1030 N1028 1.360 . S
C1031 C1025 1.375 . S
C1031 C1026 1.367 1_655 S
C1031 N1029 1.360 . S
N1032 C1024 1.356 . S
N1032 H1038 0.984 . S
N1032 H1039 0.984 . S
N1033 C1026 1.356 . S
N1033 H1036 0.984 . S
N1033 H1037 0.985 . S
H1034 N1029 0.984 . S
H1035 N1029 0.985 1_455 S
H1036 N1033 0.984 . S
H1037 N1033 0.985 . S
H1038 N1032 0.984 . S
H1039 N1032 0.984 . S
H1040 N1028 0.984 1_655 S
H1041 N1028 0.985 . S
C1042 C1043 1.363 . S
C1042 C1048 1.379 1_565 S
C1042 N1050 1.356 . S
C1043 C1042 1.363 . S
C1043 C1049 1.363 . S
C1044 C1045 1.363 . S
C1044 C1049 1.379 1_545 S
C1044 N1051 1.356 . S
C1045 C1044 1.363 . S
C1045 C1048 1.363 . S
N1046 C1048 1.356 . S
N1046 H1058 0.984 . S
N1046 H1059 0.985 . S
N1047 C1049 1.356 . S
N1047 H1052 0.984 . S
N1047 H1053 0.985 . S
C1048 C1042 1.379 1_545 S
C1048 C1045 1.363 . S
C1048 N1046 1.356 . S
C1049 C1043 1.363 . S
C1049 C1044 1.379 1_565 S
C1049 N1047 1.356 . S
N1050 C1042 1.356 . S
N1050 H1056 0.984 . S
N1050 H1057 0.984 . S
N1051 C1044 1.356 . S
N1051 H1054 0.984 . S
N1051 H1055 0.985 . S
H1052 N1047 0.984 . S
H1053 N1047 0.985 . S
H1054 N1051 0.984 . S
H1055 N1051 0.985 . S
H1056 N1050 0.984 . S
H1057 N1050 0.984 . S
H1058 N1046 0.984 . S
H1059 N1046 0.985 . S
C1060 C1061 1.363 . S
C1060 C1066 1.379 1_465 S
C1060 N1068 1.356 . S
C1061 C1060 1.363 . S
C1061 C1067 1.363 1_556 S
C1062 C1063 1.363 . S
C1062 C1067 1.379 1_645 S
C1062 N1069 1.356 . S
C1063 C1062 1.363 . S
C1063 C1066 1.363 1_554 S
N1064 C1066 1.356 . S
N1064 H1076 0.984 . S
N1064 H1077 0.985 . S
N1065 C1067 1.356 . S
N1065 H1070 0.984 . S
N1065 H1071 0.985 . S
C1066 C1060 1.379 1_645 S
C1066 C1063 1.363 1_556 S
C1066 N1064 1.356 . S
C1067 C1061 1.363 1_554 S
C1067 C1062 1.379 1_465 S
C1067 N1065 1.356 . S
N1068 C1060 1.356 . S
N1068 H1074 0.984 . S
N1068 H1075 0.984 . S
N1069 C1062 1.356 . S
N1069 H1072 0.984 . S
N1069 H1073 0.985 . S
H1070 N1065 0.984 . S
H1071 N1065 0.985 . S
H1072 N1069 0.984 . S
H1073 N1069 0.985 . S
H1074 N1068 0.984 . S
H1075 N1068 0.984 . S
H1076 N1064 0.984 . S
H1077 N1064 0.985 . S
C1078 C1079 1.363 1_556 S
C1078 C1084 1.379 . S
C1078 N1086 1.356 . S
C1079 C1078 1.363 1_554 S
C1079 C1085 1.363 . S
C1080 C1081 1.363 1_554 S
C1080 C1085 1.379 . S
C1080 N1087 1.356 . S
C1081 C1080 1.363 1_556 S
C1081 C1084 1.363 . S
N1082 C1084 1.356 . S
N1082 H1094 0.984 . S
N1082 H1095 0.985 . S
N1083 C1085 1.356 . S
N1083 H1088 0.984 . S
N1083 H1089 0.985 . S
C1084 C1078 1.379 . S
C1084 C1081 1.363 . S
C1084 N1082 1.356 . S
C1085 C1079 1.363 . S
C1085 C1080 1.379 . S
C1085 N1083 1.356 . S
N1086 C1078 1.356 . S
N1086 H1092 0.984 . S
N1086 H1093 0.984 . S
N1087 C1080 1.356 . S
N1087 H1090 0.984 . S
N1087 H1091 0.985 . S
H1088 N1083 0.984 . S
H1089 N1083 0.985 . S
H1090 N1087 0.984 . S
H1091 N1087 0.985 . S
H1092 N1086 0.984 . S
H1093 N1086 0.984 . S
H1094 N1082 0.984 . S
H1095 N1082 0.985 . S
C1096 C1097 1.363 . S
C1096 C1102 1.379 . S
C1096 N1104 1.356 . S
C1097 C1096 1.363 . S
C1097 C1103 1.363 1_655 S
C1098 C1099 1.363 . S
C1098 C1103 1.379 . S
C1098 N1105 1.356 . S
C1099 C1098 1.363 . S
C1099 C1102 1.363 1_455 S
N1100 C1102 1.358 . S
N1100 H1112 0.995 . S
N1100 H1113 0.972 1_655 S
N1101 C1103 1.358 . S
N1101 H1106 0.972 1_455 S
N1101 H1107 0.995 . S
C1102 C1096 1.379 . S
C1102 C1099 1.363 1_655 S
C1102 N1100 1.358 . S
C1103 C1097 1.363 1_455 S
C1103 C1098 1.379 . S
C1103 N1101 1.358 . S
N1104 C1096 1.356 . S
N1104 H1110 0.984 . S
N1104 H1111 0.984 . S
N1105 C1098 1.356 . S
N1105 H1108 0.984 . S
N1105 H1109 0.985 . S
H1106 N1101 0.972 1_655 S
H1107 N1101 0.995 . S
H1108 N1105 0.984 . S
H1109 N1105 0.985 . S
H1110 N1104 0.984 . S
H1111 N1104 0.984 . S
H1112 N1100 0.995 . S
H1113 N1100 0.972 1_455 S
C1114 C1115 1.359 . S
C1114 C1120 1.383 1_565 S
C1114 N1122 1.355 . S
C1115 C1114 1.359 . S
C1115 C1121 1.363 . S
C1116 C1117 1.360 . S
C1116 C1121 1.382 1_545 S
C1116 N1123 1.355 . S
C1117 C1116 1.360 . S
C1117 C1120 1.363 . S
N1118 C1120 1.356 . S
N1118 H1130 0.984 . S
N1118 H1131 0.985 . S
N1119 C1121 1.356 . S
N1119 H1124 0.984 . S
N1119 H1125 0.985 . S
C1120 C1114 1.383 1_545 S
C1120 C1117 1.363 . S
C1120 N1118 1.356 . S
C1121 C1115 1.363 . S
C1121 C1116 1.382 1_565 S
C1121 N1119 1.356 . S
N1122 C1114 1.355 . S
N1122 H1128 0.984 1_565 S
N1122 H1129 0.984 . S
N1123 C1116 1.355 . S
N1123 H1126 0.984 . S
N1123 H1127 0.985 1_545 S
H1124 N1119 0.984 . S
H1125 N1119 0.985 . S
H1126 N1123 0.984 . S
H1127 N1123 0.985 1_565 S
H1128 N1122 0.984 1_545 S
H1129 N1122 0.984 . S
H1130 N1118 0.984 . S
H1131 N1118 0.985 . S
C1132 C1133 1.363 . S
C1132 C1138 1.379 . S
C1132 N1140 1.356 . S
C1133 C1132 1.363 . S
C1133 C1139 1.363 1_556 S
C1134 C1135 1.363 . S
C1134 C1139 1.379 . S
C1134 N1141 1.356 . S
C1135 C1134 1.363 . S
C1135 C1138 1.363 1_554 S
N1136 C1138 1.356 . S
N1136 H1148 0.984 . S
N1136 H1149 0.985 . S
N1137 C1139 1.356 . S
N1137 H1142 0.984 . S
N1137 H1143 0.985 . S
C1138 C1132 1.379 . S
C1138 C1135 1.363 1_556 S
C1138 N1136 1.356 . S
C1139 C1133 1.363 1_554 S
C1139 C1134 1.379 . S
C1139 N1137 1.356 . S
N1140 C1132 1.356 . S
N1140 H1146 0.984 . S
N1140 H1147 0.984 . S
N1141 C1134 1.356 . S
N1141 H1144 0.984 . S
N1141 H1145 0.985 . S
H1142 N1137 0.984 . S
H1143 N1137 0.985 . S
H1144 N1141 0.984 . S
H1145 N1141 0.985 . S
H1146 N1140 0.984 . S
H1147 N1140 0.984 . S
H1148 N1136 0.984 . S
H1149 N1136 0.985 . S
C1150 C1151 1.363 . S
C1150 C1156 1.379 . S
C1150 N1158 1.356 . S
C1151 C1150 1.363 . S
C1151 C1157 1.363 . S
C1152 C1153 1.363 . S
C1152 C1157 1.379 . S
C1152 N1159 1.356 . S
C1153 C1152 1.363 . S
C1153 C1156 1.363 . S
N1154 C1156 1.356 . S
N1154 H1166 0.984 . S
N1154 H1167 0.985 . S
N1155 C1157 1.356 . S
N1155 H1160 0.984 . S
N1155 H1161 0.985 . S
C1156 C1150 1.379 . S
C1156 C1153 1.363 . S
C1156 N1154 1.356 . S
C1157 C1151 1.363 . S
C1157 C1152 1.379 . S
C1157 N1155 1.356 . S
N1158 C1150 1.356 . S
N1158 H1164 0.984 . S
N1158 H1165 0.984 . S
N1159 C1152 1.356 . S
N1159 H1162 0.984 . S
N1159 H1163 0.985 . S
H1160 N1155 0.984 . S
H1161 N1155 0.985 . S
H1162 N1159 0.984 . S
H1163 N1159 0.985 . S
H1164 N1158 0.984 . S
H1165 N1158 0.984 . S
H1166 N1154 0.984 . S
H1167 N1154 0.985 . S
C1168 C1169 1.363 . S
C1168 C1174 1.379 . S
C1168 N1176 1.356 . S
C1169 C1168 1.363 . S
C1169 C1175 1.363 1_655 S
C1170 C1171 1.363 . S
C1170 C1175 1.379 . S
C1170 N1177 1.356 . S
C1171 C1170 1.363 . S
C1171 C1174 1.363 1_455 S
N1172 C1174 1.356 1_455 S
N1172 H1184 0.984 1_455 S
N1172 H1185 0.985 . S
N1173 C1175 1.356 1_655 S
N1173 H1178 0.984 . S
N1173 H1179 0.985 1_655 S
C1174 C1168 1.379 . S
C1174 C1171 1.363 1_655 S
C1174 N1172 1.356 1_655 S
C1175 C1169 1.363 1_455 S
C1175 C1170 1.379 . S
C1175 N1173 1.356 1_455 S
N1176 C1168 1.356 . S
N1176 H1182 0.984 . S
N1176 H1183 0.984 . S
N1177 C1170 1.356 . S
N1177 H1180 0.984 . S
N1177 H1181 0.985 . S
H1178 N1173 0.984 . S
H1179 N1173 0.985 1_455 S
H1180 N1177 0.984 . S
H1181 N1177 0.985 . S
H1182 N1176 0.984 . S
H1183 N1176 0.984 . S
H1184 N1172 0.984 1_655 S
H1185 N1172 0.985 . S
C1186 C1187 1.363 . S
C1186 C1192 1.379 . S
C1186 N1194 1.356 . S
C1187 C1186 1.363 . S
C1187 C1193 1.363 . S
C1188 C1189 1.363 . S
C1188 C1193 1.379 . S
C1188 N1195 1.356 . S
C1189 C1188 1.363 . S
C1189 C1192 1.363 . S
N1190 C1192 1.356 . S
N1190 H1202 0.984 . S
N1190 H1203 0.985 . S
N1191 C1193 1.356 . S
N1191 H1196 0.984 . S
N1191 H1197 0.985 . S
C1192 C1186 1.379 . S
C1192 C1189 1.363 . S
C1192 N1190 1.356 . S
C1193 C1187 1.363 . S
C1193 C1188 1.379 . S
C1193 N1191 1.356 . S
N1194 C1186 1.356 . S
N1194 H1200 0.984 . S
N1194 H1201 0.984 . S
N1195 C1188 1.356 . S
N1195 H1198 0.984 . S
N1195 H1199 0.985 . S
H1196 N1191 0.984 . S
H1197 N1191 0.985 . S
H1198 N1195 0.984 . S
H1199 N1195 0.985 . S
H1200 N1194 0.984 . S
H1201 N1194 0.984 . S
H1202 N1190 0.984 . S
H1203 N1190 0.985 . S
C1204 C1205 1.363 . S
C1204 C1210 1.379 . S
C1204 N1212 1.356 . S
C1205 C1204 1.363 . S
C1205 C1211 1.363 . S
C1206 C1207 1.363 . S
C1206 C1211 1.379 . S
C1206 N1213 1.356 . S
C1207 C1206 1.363 . S
C1207 C1210 1.363 . S
N1208 C1210 1.356 . S
N1208 H1220 0.984 . S
N1208 H1221 0.985 . S
N1209 C1211 1.356 . S
N1209 H1214 0.984 . S
N1209 H1215 0.985 . S
C1210 C1204 1.379 . S
C1210 C1207 1.363 . S
C1210 N1208 1.356 . S
C1211 C1205 1.363 . S
C1211 C1206 1.379 . S
C1211 N1209 1.356 . S
N1212 C1204 1.356 . S
N1212 H1218 0.984 . S
N1212 H1219 0.984 . S
N1213 C1206 1.356 . S
N1213 H1216 0.984 . S
N1213 H1217 0.985 . S
H1214 N1209 0.984 . S
H1215 N1209 0.985 . S
H1216 N1213 0.984 . S
H1217 N1213 0.985 . S
H1218 N1212 0.984 . S
H1219 N1212 0.984 . S
H1220 N1208 0.984 . S
H1221 N1208 0.985 . S
C1222 C1223 1.363 . S
C1222 C1228 1.379 . S
C1222 N1230 1.356 . S
C1223 C1222 1.363 . S
C1223 C1229 1.363 . S
C1224 C1225 1.363 . S
C1224 C1229 1.379 . S
C1224 N1231 1.356 . S
C1225 C1224 1.363 . S
C1225 C1228 1.363 . S
N1226 C1228 1.356 . S
N1226 H1238 0.984 . S
N1226 H1239 0.985 . S
N1227 C1229 1.356 . S
N1227 H1232 0.984 . S
N1227 H1233 0.985 . S
C1228 C1222 1.379 . S
C1228 C1225 1.363 . S
C1228 N1226 1.356 . S
C1229 C1223 1.363 . S
C1229 C1224 1.379 . S
C1229 N1227 1.356 . S
N1230 C1222 1.356 . S
N1230 H1236 0.984 . S
N1230 H1237 0.984 . S
N1231 C1224 1.356 . S
N1231 H1234 0.984 . S
N1231 H1235 0.985 . S
H1232 N1227 0.984 . S
H1233 N1227 0.985 . S
H1234 N1231 0.984 . S
H1235 N1231 0.985 . S
H1236 N1230 0.984 . S
H1237 N1230 0.984 . S
H1238 N1226 0.984 . S
H1239 N1226 0.985 . S
C1240 C1241 1.363 . S
C1240 C1246 1.379 . S
C1240 N1248 1.356 . S
C1241 C1240 1.363 . S
C1241 C1247 1.363 . S
C1242 C1243 1.363 . S
C1242 C1247 1.379 . S
C1242 N1249 1.356 . S
C1243 C1242 1.363 . S
C1243 C1246 1.363 . S
N1244 C1246 1.356 . S
N1244 H1256 0.984 . S
N1244 H1257 0.985 . S
N1245 C1247 1.356 . S
N1245 H1250 0.984 . S
N1245 H1251 0.985 . S
C1246 C1240 1.379 . S
C1246 C1243 1.363 . S
C1246 N1244 1.356 . S
C1247 C1241 1.363 . S
C1247 C1242 1.379 . S
C1247 N1245 1.356 . S
N1248 C1240 1.356 . S
N1248 H1254 0.984 . S
N1248 H1255 0.984 . S
N1249 C1242 1.356 . S
N1249 H1252 0.984 . S
N1249 H1253 0.985 . S
H1250 N1245 0.984 . S
H1251 N1245 0.985 . S
H1252 N1249 0.984 . S
H1253 N1249 0.985 . S
H1254 N1248 0.984 . S
H1255 N1248 0.984 . S
H1256 N1244 0.984 . S
H1257 N1244 0.985 . S
C1258 C1259 1.363 . S
C1258 C1264 1.379 1_545 S
C1258 N1266 1.356 . S
C1259 C1258 1.363 . S
C1259 C1265 1.363 . S
C1260 C1261 1.363 . S
C1260 C1265 1.379 1_565 S
C1260 N1267 1.356 . S
C1261 C1260 1.363 . S
C1261 C1264 1.363 . S
N1262 C1264 1.356 . S
N1262 H1274 0.984 . S
N1262 H1275 0.985 . S
N1263 C1265 1.356 . S
N1263 H1268 0.984 . S
N1263 H1269 0.985 . S
C1264 C1258 1.379 1_565 S
C1264 C1261 1.363 . S
C1264 N1262 1.356 . S
C1265 C1259 1.363 . S
C1265 C1260 1.379 1_545 S
C1265 N1263 1.356 . S
N1266 C1258 1.356 . S
N1266 H1272 0.984 . S
N1266 H1273 0.984 . S
N1267 C1260 1.356 . S
N1267 H1270 0.984 . S
N1267 H1271 0.985 . S
H1268 N1263 0.984 . S
H1269 N1263 0.985 . S
H1270 N1267 0.984 . S
H1271 N1267 0.985 . S
H1272 N1266 0.984 . S
H1273 N1266 0.984 . S
H1274 N1262 0.984 . S
H1275 N1262 0.985 . S
C1276 C1277 1.363 . S
C1276 C1282 1.379 . S
C1276 N1284 1.356 . S
C1277 C1276 1.363 . S
C1277 C1283 1.363 . S
C1278 C1279 1.363 . S
C1278 C1283 1.379 . S
C1278 N1285 1.356 . S
C1279 C1278 1.363 . S
C1279 C1282 1.363 . S
N1280 C1282 1.356 . S
N1280 H1292 0.984 . S
N1280 H1293 0.985 . S
N1281 C1283 1.356 . S
N1281 H1286 0.984 . S
N1281 H1287 0.985 . S
C1282 C1276 1.379 . S
C1282 C1279 1.363 . S
C1282 N1280 1.356 . S
C1283 C1277 1.363 . S
C1283 C1278 1.379 . S
C1283 N1281 1.356 . S
N1284 C1276 1.356 . S
N1284 H1290 0.984 . S
N1284 H1291 0.984 . S
N1285 C1278 1.356 . S
N1285 H1288 0.984 . S
N1285 H1289 0.985 . S
H1286 N1281 0.984 . S
H1287 N1281 0.985 . S
H1288 N1285 0.984 . S
H1289 N1285 0.985 . S
H1290 N1284 0.984 . S
H1291 N1284 0.984 . S
H1292 N1280 0.984 . S
H1293 N1280 0.985 . S
C1294 C1295 1.363 1_554 S
C1294 C1300 1.379 . S
C1294 N1302 1.356 . S
C1295 C1294 1.363 1_556 S
C1295 C1301 1.363 . S
C1296 C1297 1.363 1_556 S
C1296 C1301 1.379 . S
C1296 N1303 1.356 . S
C1297 C1296 1.363 1_554 S
C1297 C1300 1.363 . S
N1298 C1300 1.356 . S
N1298 H1310 0.984 . S
N1298 H1311 0.985 . S
N1299 C1301 1.356 . S
N1299 H1304 0.984 . S
N1299 H1305 0.985 . S
C1300 C1294 1.379 . S
C1300 C1297 1.363 . S
C1300 N1298 1.356 . S
C1301 C1295 1.363 . S
C1301 C1296 1.379 . S
C1301 N1299 1.356 . S
N1302 C1294 1.356 . S
N1302 H1308 0.984 . S
N1302 H1309 0.984 . S
N1303 C1296 1.356 . S
N1303 H1306 0.984 . S
N1303 H1307 0.985 . S
H1304 N1299 0.984 . S
H1305 N1299 0.985 . S
H1306 N1303 0.984 . S
H1307 N1303 0.985 . S
H1308 N1302 0.984 . S
H1309 N1302 0.984 . S
H1310 N1298 0.984 . S
H1311 N1298 0.985 . S
C1312 C1313 1.363 . S
C1312 C1318 1.379 . S
C1312 N1320 1.356 . S
C1313 C1312 1.363 . S
C1313 C1319 1.363 . S
C1314 C1315 1.363 . S
C1314 C1319 1.379 . S
C1314 N1321 1.356 . S
C1315 C1314 1.363 . S
C1315 C1318 1.363 . S
N1316 C1318 1.356 . S
N1316 H1328 0.984 . S
N1316 H1329 0.985 . S
N1317 C1319 1.356 . S
N1317 H1322 0.984 . S
N1317 H1323 0.985 . S
C1318 C1312 1.379 . S
C1318 C1315 1.363 . S
C1318 N1316 1.356 . S
C1319 C1313 1.363 . S
C1319 C1314 1.379 . S
C1319 N1317 1.356 . S
N1320 C1312 1.356 . S
N1320 H1326 0.984 . S
N1320 H1327 0.984 . S
N1321 C1314 1.356 . S
N1321 H1324 0.984 . S
N1321 H1325 0.985 . S
H1322 N1317 0.984 . S
H1323 N1317 0.985 . S
H1324 N1321 0.984 . S
H1325 N1321 0.985 . S
H1326 N1320 0.984 . S
H1327 N1320 0.984 . S
H1328 N1316 0.984 . S
H1329 N1316 0.985 . S
C1330 C1331 1.363 . S
C1330 C1336 1.379 . S
C1330 N1338 1.356 . S
C1331 C1330 1.363 . S
C1331 C1337 1.363 . S
C1332 C1333 1.363 . S
C1332 C1337 1.379 . S
C1332 N1339 1.356 . S
C1333 C1332 1.363 . S
C1333 C1336 1.363 . S
N1334 C1336 1.356 . S
N1334 H1346 0.984 . S
N1334 H1347 0.985 . S
N1335 C1337 1.356 . S
N1335 H1340 0.984 . S
N1335 H1341 0.985 . S
C1336 C1330 1.379 . S
C1336 C1333 1.363 . S
C1336 N1334 1.356 . S
C1337 C1331 1.363 . S
C1337 C1332 1.379 . S
C1337 N1335 1.356 . S
N1338 C1330 1.356 . S
N1338 H1344 0.984 . S
N1338 H1345 0.984 . S
N1339 C1332 1.356 . S
N1339 H1342 0.984 . S
N1339 H1343 0.985 . S
H1340 N1335 0.984 . S
H1341 N1335 0.985 . S
H1342 N1339 0.984 . S
H1343 N1339 0.985 . S
H1344 N1338 0.984 . S
H1345 N1338 0.984 . S
H1346 N1334 0.984 . S
H1347 N1334 0.985 . S
C1348 C1349 1.363 . S
C1348 C1354 1.379 . S
C1348 N1356 1.356 . S
C1349 C1348 1.363 . S
C1349 C1355 1.363 . S
C1350 C1351 1.363 . S
C1350 C1355 1.379 . S
C1350 N1357 1.356 . S
C1351 C1350 1.363 . S
C1351 C1354 1.363 . S
N1352 C1354 1.356 . S
N1352 H1364 0.984 . S
N1352 H1365 0.985 . S
N1353 C1355 1.356 . S
N1353 H1358 0.984 . S
N1353 H1359 0.985 . S
C1354 C1348 1.379 . S
C1354 C1351 1.363 . S
C1354 N1352 1.356 . S
C1355 C1349 1.363 . S
C1355 C1350 1.379 . S
C1355 N1353 1.356 . S
N1356 C1348 1.356 . S
N1356 H1362 0.984 . S
N1356 H1363 0.984 . S
N1357 C1350 1.356 . S
N1357 H1360 0.984 . S
N1357 H1361 0.985 . S
H1358 N1353 0.984 . S
H1359 N1353 0.985 . S
H1360 N1357 0.984 . S
H1361 N1357 0.985 . S
H1362 N1356 0.984 . S
H1363 N1356 0.984 . S
H1364 N1352 0.984 . S
H1365 N1352 0.985 . S
C1366 C1367 1.363 . S
C1366 C1372 1.379 . S
C1366 N1374 1.356 . S
C1367 C1366 1.363 . S
C1367 C1373 1.363 . S
C1368 C1369 1.363 . S
C1368 C1373 1.379 . S
C1368 N1375 1.356 . S
C1369 C1368 1.363 . S
C1369 C1372 1.363 . S
N1370 C1372 1.356 . S
N1370 H1382 0.984 . S
N1370 H1383 0.985 . S
N1371 C1373 1.356 . S
N1371 H1376 0.984 . S
N1371 H1377 0.985 . S
C1372 C1366 1.379 . S
C1372 C1369 1.363 . S
C1372 N1370 1.356 . S
C1373 C1367 1.363 . S
C1373 C1368 1.379 . S
C1373 N1371 1.356 . S
N1374 C1366 1.356 . S
N1374 H1380 0.984 . S
N1374 H1381 0.984 . S
N1375 C1368 1.356 . S
N1375 H1378 0.984 . S
N1375 H1379 0.985 . S
H1376 N1371 0.984 . S
H1377 N1371 0.985 . S
H1378 N1375 0.984 . S
H1379 N1375 0.985 . S
H1380 N1374 0.984 . S
H1381 N1374 0.984 . S
H1382 N1370 0.984 . S
H1383 N1370 0.985 . S
C1384 C1385 1.363 . S
C1384 C1390 1.379 . S
C1384 N1392 1.356 . S
C1385 C1384 1.363 . S
C1385 C1391 1.363 . S
C1386 C1387 1.363 . S
C1386 C1391 1.379 . S
C1386 N1393 1.356 . S
C1387 C1386 1.363 . S
C1387 C1390 1.363 . S
N1388 C1390 1.356 . S
N1388 H1400 0.984 . S
N1388 H1401 0.985 . S
N1389 C1391 1.356 . S
N1389 H1394 0.984 . S
N1389 H1395 0.985 . S
C1390 C1384 1.379 . S
C1390 C1387 1.363 . S
C1390 N1388 1.356 . S
C1391 C1385 1.363 . S
C1391 C1386 1.379 . S
C1391 N1389 1.356 . S
N1392 C1384 1.356 . S
N1392 H1398 0.984 . S
N1392 H1399 0.984 . S
N1393 C1386 1.356 . S
N1393 H1396 0.984 . S
N1393 H1397 0.985 . S
H1394 N1389 0.984 . S
H1395 N1389 0.985 . S
H1396 N1393 0.984 . S
H1397 N1393 0.985 . S
H1398 N1392 0.984 . S
H1399 N1392 0.984 . S
H1400 N1388 0.984 . S
H1401 N1388 0.985 . S
C1402 C1403 1.363 . S
C1402 C1408 1.379 . S
C1402 N1410 1.356 . S
C1403 C1402 1.363 . S
C1403 C1409 1.363 . S
C1404 C1405 1.363 . S
C1404 C1409 1.379 . S
C1404 N1411 1.356 . S
C1405 C1404 1.363 . S
C1405 C1408 1.363 . S
N1406 C1408 1.356 . S
N1406 H1418 0.984 1_655 S
N1406 H1419 0.985 . S
N1407 C1409 1.356 . S
N1407 H1412 0.984 . S
N1407 H1413 0.985 . S
C1408 C1402 1.379 . S
C1408 C1405 1.363 . S
C1408 N1406 1.356 . S
C1409 C1403 1.363 . S
C1409 C1404 1.379 . S
C1409 N1407 1.356 . S
N1410 C1402 1.356 . S
N1410 H1416 0.984 1_655 S
N1410 H1417 0.984 . S
N1411 C1404 1.356 . S
N1411 H1414 0.984 . S
N1411 H1415 0.985 . S
H1412 N1407 0.984 . S
H1413 N1407 0.985 . S
H1414 N1411 0.984 . S
H1415 N1411 0.985 . S
H1416 N1410 0.984 1_455 S
H1417 N1410 0.984 . S
H1418 N1406 0.984 1_455 S
H1419 N1406 0.985 . S
C1420 C1421 1.363 . S
C1420 C1426 1.379 . S
C1420 N1428 1.356 . S
C1421 C1420 1.363 . S
C1421 C1427 1.363 . S
C1422 C1423 1.363 . S
C1422 C1427 1.379 . S
C1422 N1429 1.356 . S
C1423 C1422 1.363 . S
C1423 C1426 1.363 . S
N1424 C1426 1.356 . S
N1424 H1436 0.984 . S
N1424 H1437 0.985 . S
N1425 C1427 1.356 . S
N1425 H1430 0.984 . S
N1425 H1431 0.985 . S
C1426 C1420 1.379 . S
C1426 C1423 1.363 . S
C1426 N1424 1.356 . S
C1427 C1421 1.363 . S
C1427 C1422 1.379 . S
C1427 N1425 1.356 . S
N1428 C1420 1.356 . S
N1428 H1434 0.984 . S
N1428 H1435 0.984 . S
N1429 C1422 1.356 . S
N1429 H1432 0.984 . S
N1429 H1433 0.985 . S
H1430 N1425 0.984 . S
H1431 N1425 0.985 . S
H1432 N1429 0.984 . S
H1433 N1429 0.985 . S
H1434 N1428 0.984 . S
H1435 N1428 0.984 . S
H1436 N1424 0.984 . S
H1437 N1424 0.985 . S
C1438 C1439 1.363 . S
C1438 C1444 1.379 . S
C1438 N1446 1.356 . S
C1439 C1438 1.363 . S
C1439 C1445 1.363 . S
C1440 C1441 1.363 . S
C1440 C1445 1.379 . S
C1440 N1447 1.356 . S
C1441 C1440 1.363 . S
C1441 C1444 1.363 . S
N1442 C1444 1.356 . S
N1442 H1454 0.984 . S
N1442 H1455 0.985 . S
N1443 C1445 1.356 . S
N1443 H1448 0.984 . S
N1443 H1449 0.985 . S
C1444 C1438 1.379 . S
C1444 C1441 1.363 . S
C1444 N1442 1.356 . S
C1445 C1439 1.363 . S
C1445 C1440 1.379 . S
C1445 N1443 1.356 . S
N1446 C1438 1.356 . S
N1446 H1452 0.984 . S
N1446 H1453 0.984 . S
N1447 C1440 1.356 . S
N1447 H1450 0.984 . S
N1447 H1451 0.985 . S
H1448 N1443 0.984 . S
H1449 N1443 0.985 . S
H1450 N1447 0.984 . S
H1451 N1447 0.985 . S
H1452 N1446 0.984 . S
H1453 N1446 0.984 . S
H1454 N1442 0.984 . S
H1455 N1442 0.985 . S
C1456 C1457 1.363 . S
C1456 C1462 1.379 . S
C1456 N1464 1.356 . S
C1457 C1456 1.363 . S
C1457 C1463 1.363 . S
C1458 C1459 1.363 . S
C1458 C1463 1.379 . S
C1458 N1465 1.356 . S
C1459 C1458 1.363 . S
C1459 C1462 1.363 . S
N1460 C1462 1.356 . S
N1460 H1472 0.984 . S
N1460 H1473 0.985 . S
N1461 C1463 1.356 . S
N1461 H1466 0.984 . S
N1461 H1467 0.985 . S
C1462 C1456 1.379 . S
C1462 C1459 1.363 . S
C1462 N1460 1.356 . S
C1463 C1457 1.363 . S
C1463 C1458 1.379 . S
C1463 N1461 1.356 . S
N1464 C1456 1.356 . S
N1464 H1470 0.984 . S
N1464 H1471 0.984 . S
N1465 C1458 1.356 . S
N1465 H1468 0.984 . S
N1465 H1469 0.985 . S
H1466 N1461 0.984 . S
H1467 N1461 0.985 . S
H1468 N1465 0.984 . S
H1469 N1465 0.985 . S
H1470 N1464 0.984 . S
H1471 N1464 0.984 . S
H1472 N1460 0.984 . S
H1473 N1460 0.985 . S
C1474 C1475 1.363 . S
C1474 C1480 1.379 . S
C1474 N1482 1.356 . S
C1475 C1474 1.363 . S
C1475 C1481 1.363 . S
C1476 C1477 1.363 . S
C1476 C1481 1.379 . S
C1476 N1483 1.356 . S
C1477 C1476 1.363 . S
C1477 C1480 1.363 . S
N1478 C1480 1.356 . S
N1478 H1490 0.984 . S
N1478 H1491 0.985 . S
N1479 C1481 1.356 . S
N1479 H1484 0.984 . S
N1479 H1485 0.985 . S
C1480 C1474 1.379 . S
C1480 C1477 1.363 . S
C1480 N1478 1.356 . S
C1481 C1475 1.363 . S
C1481 C1476 1.379 . S
C1481 N1479 1.356 . S
N1482 C1474 1.356 . S
N1482 H1488 0.984 . S
N1482 H1489 0.984 . S
N1483 C1476 1.356 . S
N1483 H1486 0.984 . S
N1483 H1487 0.985 . S
H1484 N1479 0.984 . S
H1485 N1479 0.985 . S
H1486 N1483 0.984 . S
H1487 N1483 0.985 . S
H1488 N1482 0.984 . S
H1489 N1482 0.984 . S
H1490 N1478 0.984 . S
H1491 N1478 0.985 . S
C1492 C1493 1.363 . S
C1492 C1498 1.379 . S
C1492 N1500 1.356 . S
C1493 C1492 1.363 . S
C1493 C1499 1.363 . S
C1494 C1495 1.363 . S
C1494 C1499 1.379 . S
C1494 N1501 1.356 . S
C1495 C1494 1.363 . S
C1495 C1498 1.363 . S
N1496 C1498 1.356 . S
N1496 H1508 0.984 . S
N1496 H1509 0.985 . S
N1497 C1499 1.356 . S
N1497 H1502 0.984 . S
N1497 H1503 0.985 . S
C1498 C1492 1.379 . S
C1498 C1495 1.363 . S
C1498 N1496 1.356 . S
C1499 C1493 1.363 . S
C1499 C1494 1.379 . S
C1499 N1497 1.356 . S
N1500 C1492 1.356 . S
N1500 H1506 0.984 . S
N1500 H1507 0.984 . S
N1501 C1494 1.356 . S
N1501 H1504 0.984 . S
N1501 H1505 0.985 . S
H1502 N1497 0.984 . S
H1503 N1497 0.985 . S
H1504 N1501 0.984 . S
H1505 N1501 0.985 . S
H1506 N1500 0.984 . S
H1507 N1500 0.984 . S
H1508 N1496 0.984 . S
H1509 N1496 0.985 . S
C1510 C1511 1.363 . S
C1510 C1516 1.379 . S
C1510 N1518 1.356 . S
C1511 C1510 1.363 . S
C1511 C1517 1.363 . S
C1512 C1513 1.363 . S
C1512 C1517 1.379 . S
C1512 N1519 1.356 . S
C1513 C1512 1.363 . S
C1513 C1516 1.363 . S
N1514 C1516 1.356 . S
N1514 H1526 0.984 . S
N1514 H1527 0.985 . S
N1515 C1517 1.356 . S
N1515 H1520 0.984 . S
N1515 H1521 0.985 . S
C1516 C1510 1.379 . S
C1516 C1513 1.363 . S
C1516 N1514 1.356 . S
C1517 C1511 1.363 . S
C1517 C1512 1.379 . S
C1517 N1515 1.356 . S
N1518 C1510 1.356 . S
N1518 H1524 0.984 . S
N1518 H1525 0.984 . S
N1519 C1512 1.356 . S
N1519 H1522 0.984 . S
N1519 H1523 0.985 . S
H1520 N1515 0.984 . S
H1521 N1515 0.985 . S
H1522 N1519 0.984 . S
H1523 N1519 0.985 . S
H1524 N1518 0.984 . S
H1525 N1518 0.984 . S
H1526 N1514 0.984 . S
H1527 N1514 0.985 . S
C1528 C1529 1.363 . S
C1528 C1534 1.379 . S
C1528 N1536 1.356 . S
C1529 C1528 1.363 . S
C1529 C1535 1.363 . S
C1530 C1531 1.363 . S
C1530 C1535 1.379 . S
C1530 N1537 1.356 . S
C1531 C1530 1.363 . S
C1531 C1534 1.363 . S
N1532 C1534 1.356 . S
N1532 H1544 0.984 . S
N1532 H1545 0.985 . S
N1533 C1535 1.356 . S
N1533 H1538 0.984 . S
N1533 H1539 0.985 . S
C1534 C1528 1.379 . S
C1534 C1531 1.363 . S
C1534 N1532 1.356 . S
C1535 C1529 1.363 . S
C1535 C1530 1.379 . S
C1535 N1533 1.356 . S
N1536 C1528 1.356 . S
N1536 H1542 0.984 . S
N1536 H1543 0.984 . S
N1537 C1530 1.356 . S
N1537 H1540 0.984 . S
N1537 H1541 0.985 . S
H1538 N1533 0.984 . S
H1539 N1533 0.985 . S
H1540 N1537 0.984 . S
H1541 N1537 0.985 . S
H1542 N1536 0.984 . S
H1543 N1536 0.984 . S
H1544 N1532 0.984 . S
H1545 N1532 0.985 . S
C1546 C1547 1.363 . S
C1546 C1552 1.379 . S
C1546 N1554 1.356 . S
C1547 C1546 1.363 . S
C1547 C1553 1.363 . S
C1548 C1549 1.363 . S
C1548 C1553 1.379 . S
C1548 N1555 1.356 . S
C1549 C1548 1.363 . S
C1549 C1552 1.363 . S
N1550 C1552 1.356 . S
N1550 H1562 0.984 . S
N1550 H1563 0.985 . S
N1551 C1553 1.356 . S
N1551 H1556 0.984 . S
N1551 H1557 0.985 . S
C1552 C1546 1.379 . S
C1552 C1549 1.363 . S
C1552 N1550 1.356 . S
C1553 C1547 1.363 . S
C1553 C1548 1.379 . S
C1553 N1551 1.356 . S
N1554 C1546 1.356 . S
N1554 H1560 0.984 . S
N1554 H1561 0.984 . S
N1555 C1548 1.356 . S
N1555 H1558 0.984 . S
N1555 H1559 0.985 . S
H1556 N1551 0.984 . S
H1557 N1551 0.985 . S
H1558 N1555 0.984 . S
H1559 N1555 0.985 . S
H1560 N1554 0.984 . S
H1561 N1554 0.984 . S
H1562 N1550 0.984 . S
H1563 N1550 0.985 . S
C1564 C1565 1.363 . S
C1564 C1570 1.379 . S
C1564 N1572 1.356 . S
C1565 C1564 1.363 . S
C1565 C1571 1.363 . S
C1566 C1567 1.363 . S
C1566 C1571 1.379 . S
C1566 N1573 1.356 . S
C1567 C1566 1.363 . S
C1567 C1570 1.363 . S
N1568 C1570 1.356 . S
N1568 H1580 0.984 . S
N1568 H1581 0.985 . S
N1569 C1571 1.356 . S
N1569 H1574 0.984 . S
N1569 H1575 0.985 . S
C1570 C1564 1.379 . S
C1570 C1567 1.363 . S
C1570 N1568 1.356 . S
C1571 C1565 1.363 . S
C1571 C1566 1.379 . S
C1571 N1569 1.356 . S
N1572 C1564 1.356 . S
N1572 H1578 0.984 . S
N1572 H1579 0.984 . S
N1573 C1566 1.356 . S
N1573 H1576 0.984 . S
N1573 H1577 0.985 . S
H1574 N1569 0.984 . S
H1575 N1569 0.985 . S
H1576 N1573 0.984 . S
H1577 N1573 0.985 . S
H1578 N1572 0.984 . S
H1579 N1572 0.984 . S
H1580 N1568 0.984 . S
H1581 N1568 0.985 . S
C1582 C1583 1.363 . S
C1582 C1588 1.379 . S
C1582 N1590 1.356 . S
C1583 C1582 1.363 . S
C1583 C1589 1.363 . S
C1584 C1585 1.363 . S
C1584 C1589 1.379 . S
C1584 N1591 1.356 . S
C1585 C1584 1.363 . S
C1585 C1588 1.363 . S
N1586 C1588 1.356 . S
N1586 H1598 0.984 . S
N1586 H1599 0.985 . S
N1587 C1589 1.356 . S
N1587 H1592 0.984 . S
N1587 H1593 0.985 . S
C1588 C1582 1.379 . S
C1588 C1585 1.363 . S
C1588 N1586 1.356 . S
C1589 C1583 1.363 . S
C1589 C1584 1.379 . S
C1589 N1587 1.356 . S
N1590 C1582 1.356 . S
N1590 H1596 0.984 . S
N1590 H1597 0.984 . S
N1591 C1584 1.356 . S
N1591 H1594 0.984 . S
N1591 H1595 0.985 . S
H1592 N1587 0.984 . S
H1593 N1587 0.985 . S
H1594 N1591 0.984 . S
H1595 N1591 0.985 . S
H1596 N1590 0.984 . S
H1597 N1590 0.984 . S
H1598 N1586 0.984 . S
H1599 N1586 0.985 . S
C1600 C1601 1.363 . S
C1600 C1606 1.379 . S
C1600 N1608 1.356 . S
C1601 C1600 1.363 . S
C1601 C1607 1.363 . S
C1602 C1603 1.363 . S
C1602 C1607 1.379 . S
C1602 N1609 1.356 . S
C1603 C1602 1.363 . S
C1603 C1606 1.363 . S
N1604 C1606 1.356 . S
N1604 H1616 0.984 . S
N1604 H1617 0.985 . S
N1605 C1607 1.356 . S
N1605 H1610 0.984 . S
N1605 H1611 0.985 . S
C1606 C1600 1.379 . S
C1606 C1603 1.363 . S
C1606 N1604 1.356 . S
C1607 C1601 1.363 . S
C1607 C1602 1.379 . S
C1607 N1605 1.356 . S
N1608 C1600 1.356 . S
N1608 H1614 0.984 . S
N1608 H1615 0.984 . S
N1609 C1602 1.356 . S
N1609 H1612 0.984 . S
N1609 H1613 0.985 . S
H1610 N1605 0.984 . S
H1611 N1605 0.985 . S
H1612 N1609 0.984 . S
H1613 N1609 0.985 . S
H1614 N1608 0.984 . S
H1615 N1608 0.984 . S
H1616 N1604 0.984 . S
H1617 N1604 0.985 . S
C1618 C1619 1.363 . S
C1618 C1624 1.379 . S
C1618 N1626 1.356 . S
C1619 C1618 1.363 . S
C1619 C1625 1.363 . S
C1620 C1621 1.363 . S
C1620 C1625 1.379 . S
C1620 N1627 1.356 . S
C1621 C1620 1.363 . S
C1621 C1624 1.363 . S
N1622 C1624 1.356 . S
N1622 H1634 0.984 . S
N1622 H1635 0.985 . S
N1623 C1625 1.356 . S
N1623 H1628 0.984 . S
N1623 H1629 0.985 . S
C1624 C1618 1.379 . S
C1624 C1621 1.363 . S
C1624 N1622 1.356 . S
C1625 C1619 1.363 . S
C1625 C1620 1.379 . S
C1625 N1623 1.356 . S
N1626 C1618 1.356 . S
N1626 H1632 0.984 . S
N1626 H1633 0.984 . S
N1627 C1620 1.356 . S
N1627 H1630 0.984 . S
N1627 H1631 0.985 . S
H1628 N1623 0.984 . S
H1629 N1623 0.985 . S
H1630 N1627 0.984 . S
H1631 N1627 0.985 . S
H1632 N1626 0.984 . S
H1633 N1626 0.984 . S
H1634 N1622 0.984 . S
H1635 N1622 0.985 . S
C1636 C1637 1.363 1_554 S
C1636 C1642 1.379 . S
C1636 N1644 1.356 . S
C1637 C1636 1.363 1_556 S
C1637 C1643 1.363 . S
C1638 C1639 1.363 . S
C1638 C1643 1.379 . S
C1638 N1645 1.356 . S
C1639 C1638 1.363 . S
C1639 C1642 1.363 1_556 S
N1640 C1642 1.356 . S
N1640 H1652 0.984 . S
N1640 H1653 0.985 . S
N1641 C1643 1.356 . S
N1641 H1646 0.984 . S
N1641 H1647 0.985 . S
C1642 C1636 1.379 . S
C1642 C1639 1.363 1_554 S
C1642 N1640 1.356 . S
C1643 C1637 1.363 . S
C1643 C1638 1.379 . S
C1643 N1641 1.356 . S
N1644 C1636 1.356 . S
N1644 H1650 0.984 . S
N1644 H1651 0.984 . S
N1645 C1638 1.356 . S
N1645 H1648 0.984 . S
N1645 H1649 0.985 . S
H1646 N1641 0.984 . S
H1647 N1641 0.985 . S
H1648 N1645 0.984 . S
H1649 N1645 0.985 . S
H1650 N1644 0.984 . S
H1651 N1644 0.984 . S
H1652 N1640 0.984 . S
H1653 N1640 0.985 . S
C1654 C1655 1.363 . S
C1654 C1660 1.379 . S
C1654 N1662 1.356 . S
C1655 C1654 1.363 . S
C1655 C1661 1.363 1_556 S
C1656 C1657 1.363 1_554 S
C1656 C1661 1.379 . S
C1656 N1663 1.356 . S
C1657 C1656 1.363 1_556 S
C1657 C1660 1.363 . S
N1658 C1660 1.356 . S
N1658 H1670 0.984 . S
N1658 H1671 0.985 . S
N1659 C1661 1.356 . S
N1659 H1664 0.984 . S
N1659 H1665 0.985 . S
C1660 C1654 1.379 . S
C1660 C1657 1.363 . S
C1660 N1658 1.356 . S
C1661 C1655 1.363 1_554 S
C1661 C1656 1.379 . S
C1661 N1659 1.356 . S
N1662 C1654 1.356 . S
N1662 H1668 0.984 . S
N1662 H1669 0.984 . S
N1663 C1656 1.356 . S
N1663 H1666 0.984 . S
N1663 H1667 0.985 . S
H1664 N1659 0.984 . S
H1665 N1659 0.985 . S
H1666 N1663 0.984 . S
H1667 N1663 0.985 . S
H1668 N1662 0.984 . S
H1669 N1662 0.984 . S
H1670 N1658 0.984 . S
H1671 N1658 0.985 . S
C1672 C1673 1.363 . S
C1672 C1678 1.379 . S
C1672 N1680 1.356 . S
C1673 C1672 1.363 . S
C1673 C1679 1.363 . S
C1674 C1675 1.363 . S
C1674 C1679 1.379 . S
C1674 N1681 1.356 . S
C1675 C1674 1.363 . S
C1675 C1678 1.363 . S
N1676 C1678 1.356 . S
N1676 H1688 0.984 . S
N1676 H1689 0.985 . S
N1677 C1679 1.356 . S
N1677 H1682 0.984 . S
N1677 H1683 0.985 . S
C1678 C1672 1.379 . S
C1678 C1675 1.363 . S
C1678 N1676 1.356 . S
C1679 C1673 1.363 . S
C1679 C1674 1.379 . S
C1679 N1677 1.356 . S
N1680 C1672 1.356 . S
N1680 H1686 0.984 . S
N1680 H1687 0.984 . S
N1681 C1674 1.356 . S
N1681 H1684 0.984 . S
N1681 H1685 0.985 . S
H1682 N1677 0.984 . S
H1683 N1677 0.985 . S
H1684 N1681 0.984 . S
H1685 N1681 0.985 . S
H1686 N1680 0.984 . S
H1687 N1680 0.984 . S
H1688 N1676 0.984 . S
H1689 N1676 0.985 . S
C1690 C1691 1.363 . S
C1690 C1696 1.379 . S
C1690 N1698 1.356 . S
C1691 C1690 1.363 . S
C1691 C1697 1.363 . S
C1692 C1693 1.363 . S
C1692 C1697 1.379 . S
C1692 N1699 1.356 . S
C1693 C1692 1.363 . S
C1693 C1696 1.363 . S
N1694 C1696 1.356 . S
N1694 H1706 0.984 . S
N1694 H1707 0.985 . S
N1695 C1697 1.356 . S
N1695 H1700 0.984 . S
N1695 H1701 0.985 . S
C1696 C1690 1.379 . S
C1696 C1693 1.363 . S
C1696 N1694 1.356 . S
C1697 C1691 1.363 . S
C1697 C1692 1.379 . S
C1697 N1695 1.356 . S
N1698 C1690 1.356 . S
N1698 H1704 0.984 . S
N1698 H1705 0.984 . S
N1699 C1692 1.356 . S
N1699 H1702 0.984 . S
N1699 H1703 0.985 . S
H1700 N1695 0.984 . S
H1701 N1695 0.985 . S
H1702 N1699 0.984 . S
H1703 N1699 0.985 . S
H1704 N1698 0.984 . S
H1705 N1698 0.984 . S
H1706 N1694 0.984 . S
H1707 N1694 0.985 . S
C1708 C1709 1.363 1_556 S
C1708 C1714 1.379 . S
C1708 N1716 1.356 . S
C1709 C1708 1.363 1_554 S
C1709 C1715 1.363 . S
C1710 C1711 1.363 . S
C1710 C1715 1.379 . S
C1710 N1717 1.356 . S
C1711 C1710 1.363 . S
C1711 C1714 1.363 1_554 S
N1712 C1714 1.356 . S
N1712 H1724 0.984 . S
N1712 H1725 0.985 . S
N1713 C1715 1.356 . S
N1713 H1718 0.984 . S
N1713 H1719 0.985 . S
C1714 C1708 1.379 . S
C1714 C1711 1.363 1_556 S
C1714 N1712 1.356 . S
C1715 C1709 1.363 . S
C1715 C1710 1.379 . S
C1715 N1713 1.356 . S
N1716 C1708 1.356 . S
N1716 H1722 0.984 . S
N1716 H1723 0.984 . S
N1717 C1710 1.356 . S
N1717 H1720 0.984 . S
N1717 H1721 0.985 . S
H1718 N1713 0.984 . S
H1719 N1713 0.985 . S
H1720 N1717 0.984 . S
H1721 N1717 0.985 . S
H1722 N1716 0.984 . S
H1723 N1716 0.984 . S
H1724 N1712 0.984 . S
H1725 N1712 0.985 . S
C1726 C1727 1.363 1_556 S
C1726 C1732 1.379 . S
C1726 N1734 1.356 . S
C1727 C1726 1.363 1_554 S
C1727 C1733 1.363 . S
C1728 C1729 1.363 . S
C1728 C1733 1.379 . S
C1728 N1735 1.356 . S
C1729 C1728 1.363 . S
C1729 C1732 1.363 1_554 S
N1730 C1732 1.356 . S
N1730 H1742 0.984 . S
N1730 H1743 0.985 . S
N1731 C1733 1.356 . S
N1731 H1736 0.984 . S
N1731 H1737 0.985 . S
C1732 C1726 1.379 . S
C1732 C1729 1.363 1_556 S
C1732 N1730 1.356 . S
C1733 C1727 1.363 . S
C1733 C1728 1.379 . S
C1733 N1731 1.356 . S
N1734 C1726 1.356 . S
N1734 H1740 0.984 . S
N1734 H1741 0.984 . S
N1735 C1728 1.356 . S
N1735 H1738 0.984 . S
N1735 H1739 0.985 . S
H1736 N1731 0.984 . S
H1737 N1731 0.985 . S
H1738 N1735 0.984 . S
H1739 N1735 0.985 . S
H1740 N1734 0.984 . S
H1741 N1734 0.984 . S
H1742 N1730 0.984 . S
H1743 N1730 0.985 . S
C1744 C1745 1.363 . S
C1744 C1750 1.379 . S
C1744 N1752 1.356 . S
C1745 C1744 1.363 . S
C1745 C1751 1.363 . S
C1746 C1747 1.363 . S
C1746 C1751 1.379 . S
C1746 N1753 1.356 . S
C1747 C1746 1.363 . S
C1747 C1750 1.363 . S
N1748 C1750 1.356 . S
N1748 H1760 0.984 . S
N1748 H1761 0.985 . S
N1749 C1751 1.356 . S
N1749 H1754 0.984 . S
N1749 H1755 0.985 . S
C1750 C1744 1.379 . S
C1750 C1747 1.363 . S
C1750 N1748 1.356 . S
C1751 C1745 1.363 . S
C1751 C1746 1.379 . S
C1751 N1749 1.356 . S
N1752 C1744 1.356 . S
N1752 H1758 0.984 . S
N1752 H1759 0.984 . S
N1753 C1746 1.356 . S
N1753 H1756 0.984 . S
N1753 H1757 0.985 . S
H1754 N1749 0.984 . S
H1755 N1749 0.985 . S
H1756 N1753 0.984 . S
H1757 N1753 0.985 . S
H1758 N1752 0.984 . S
H1759 N1752 0.984 . S
H1760 N1748 0.984 . S
H1761 N1748 0.985 . S
C1762 C1763 1.363 . S
C1762 C1768 1.379 . S
C1762 N1770 1.356 . S
C1763 C1762 1.363 . S
C1763 C1769 1.363 . S
C1764 C1765 1.363 . S
C1764 C1769 1.379 . S
C1764 N1771 1.356 . S
C1765 C1764 1.363 . S
C1765 C1768 1.363 . S
N1766 C1768 1.356 . S
N1766 H1778 0.984 . S
N1766 H1779 0.985 . S
N1767 C1769 1.356 . S
N1767 H1772 0.984 . S
N1767 H1773 0.985 . S
C1768 C1762 1.379 . S
C1768 C1765 1.363 . S
C1768 N1766 1.356 . S
C1769 C1763 1.363 . S
C1769 C1764 1.379 . S
C1769 N1767 1.356 . S
N1770 C1762 1.356 . S
N1770 H1776 0.984 . S
N1770 H1777 0.984 . S
N1771 C1764 1.356 . S
N1771 H1774 0.984 . S
N1771 H1775 0.985 . S
H1772 N1767 0.984 . S
H1773 N1767 0.985 . S
H1774 N1771 0.984 . S
H1775 N1771 0.985 . S
H1776 N1770 0.984 . S
H1777 N1770 0.984 . S
H1778 N1766 0.984 . S
H1779 N1766 0.985 . S
C1780 C1781 1.363 . S
C1780 C1786 1.379 . S
C1780 N1788 1.356 . S
C1781 C1780 1.363 . S
C1781 C1787 1.363 . S
C1782 C1783 1.363 . S
C1782 C1787 1.379 . S
C1782 N1789 1.356 . S
C1783 C1782 1.363 . S
C1783 C1786 1.363 . S
N1784 C1786 1.356 . S
N1784 H1796 0.984 . S
N1784 H1797 0.985 . S
N1785 C1787 1.356 . S
N1785 H1790 0.984 . S
N1785 H1791 0.985 . S
C1786 C1780 1.379 . S
C1786 C1783 1.363 . S
C1786 N1784 1.356 . S
C1787 C1781 1.363 . S
C1787 C1782 1.379 . S
C1787 N1785 1.356 . S
N1788 C1780 1.356 . S
N1788 H1794 0.984 . S
N1788 H1795 0.984 . S
N1789 C1782 1.356 . S
N1789 H1792 0.984 . S
N1789 H1793 0.985 . S
H1790 N1785 0.984 . S
H1791 N1785 0.985 . S
H1792 N1789 0.984 . S
H1793 N1789 0.985 . S
H1794 N1788 0.984 . S
H1795 N1788 0.984 . S
H1796 N1784 0.984 . S
H1797 N1784 0.985 . S
C1798 C1799 1.363 . S
C1798 C1804 1.379 . S
C1798 N1806 1.356 . S
C1799 C1798 1.363 . S
C1799 C1805 1.363 . S
C1800 C1801 1.363 . S
C1800 C1805 1.379 . S
C1800 N1807 1.356 . S
C1801 C1800 1.363 . S
C1801 C1804 1.363 . S
N1802 C1804 1.356 . S
N1802 H1814 0.984 . S
N1802 H1815 0.985 . S
N1803 C1805 1.356 . S
N1803 H1808 0.984 . S
N1803 H1809 0.985 . S
C1804 C1798 1.379 . S
C1804 C1801 1.363 . S
C1804 N1802 1.356 . S
C1805 C1799 1.363 . S
C1805 C1800 1.379 . S
C1805 N1803 1.356 . S
N1806 C1798 1.356 . S
N1806 H1812 0.984 . S
N1806 H1813 0.984 . S
N1807 C1800 1.356 . S
N1807 H1810 0.984 . S
N1807 H1811 0.985 . S
H1808 N1803 0.984 . S
H1809 N1803 0.985 . S
H1810 N1807 0.984 . S
H1811 N1807 0.985 . S
H1812 N1806 0.984 . S
H1813 N1806 0.984 . S
H1814 N1802 0.984 . S
H1815 N1802 0.985 . S
C1816 C1817 1.363 . S
C1816 C1822 1.379 . S
C1816 N1824 1.356 . S
C1817 C1816 1.363 . S
C1817 C1823 1.363 . S
C1818 C1819 1.363 . S
C1818 C1823 1.379 . S
C1818 N1825 1.356 . S
C1819 C1818 1.363 . S
C1819 C1822 1.363 . S
N1820 C1822 1.356 . S
N1820 H1832 0.984 . S
N1820 H1833 0.985 . S
N1821 C1823 1.356 . S
N1821 H1826 0.984 . S
N1821 H1827 0.985 . S
C1822 C1816 1.379 . S
C1822 C1819 1.363 . S
C1822 N1820 1.356 . S
C1823 C1817 1.363 . S
C1823 C1818 1.379 . S
C1823 N1821 1.356 . S
N1824 C1816 1.356 . S
N1824 H1830 0.984 . S
N1824 H1831 0.984 . S
N1825 C1818 1.356 . S
N1825 H1828 0.984 . S
N1825 H1829 0.985 . S
H1826 N1821 0.984 . S
H1827 N1821 0.985 . S
H1828 N1825 0.984 . S
H1829 N1825 0.985 . S
H1830 N1824 0.984 . S
H1831 N1824 0.984 . S
H1832 N1820 0.984 . S
H1833 N1820 0.985 . S
C1834 C1835 1.363 . S
C1834 C1840 1.379 . S
C1834 N1842 1.356 . S
C1835 C1834 1.363 . S
C1835 C1841 1.363 . S
C1836 C1837 1.363 . S
C1836 C1841 1.379 . S
C1836 N1843 1.356 . S
C1837 C1836 1.363 . S
C1837 C1840 1.363 . S
N1838 C1840 1.356 . S
N1838 H1850 0.984 . S
N1838 H1851 0.985 . S
N1839 C1841 1.356 . S
N1839 H1844 0.984 . S
N1839 H1845 0.985 . S
C1840 C1834 1.379 . S
C1840 C1837 1.363 . S
C1840 N1838 1.356 . S
C1841 C1835 1.363 . S
C1841 C1836 1.379 . S
C1841 N1839 1.356 . S
N1842 C1834 1.356 . S
N1842 H1848 0.984 . S
N1842 H1849 0.984 . S
N1843 C1836 1.356 . S
N1843 H1846 0.984 . S
N1843 H1847 0.985 . S
H1844 N1839 0.984 . S
H1845 N1839 0.985 . S
H1846 N1843 0.984 . S
H1847 N1843 0.985 . S
H1848 N1842 0.984 . S
H1849 N1842 0.984 . S
H1850 N1838 0.984 . S
H1851 N1838 0.985 . S
C1852 C1853 1.363 . S
C1852 C1858 1.379 . S
C1852 N1860 1.356 . S
C1853 C1852 1.363 . S
C1853 C1859 1.363 . S
C1854 C1855 1.363 . S
C1854 C1859 1.379 . S
C1854 N1861 1.356 . S
C1855 C1854 1.363 . S
C1855 C1858 1.363 . S
N1856 C1858 1.356 . S
N1856 H1868 0.984 . S
N1856 H1869 0.985 . S
N1857 C1859 1.356 . S
N1857 H1862 0.984 . S
N1857 H1863 0.985 . S
C1858 C1852 1.379 . S
C1858 C1855 1.363 . S
C1858 N1856 1.356 . S
C1859 C1853 1.363 . S
C1859 C1854 1.379 . S
C1859 N1857 1.356 . S
N1860 C1852 1.356 . S
N1860 H1866 0.984 . S
N1860 H1867 0.984 . S
N1861 C1854 1.356 . S
N1861 H1864 0.984 . S
N1861 H1865 0.985 . S
H1862 N1857 0.984 . S
H1863 N1857 0.985 . S
H1864 N1861 0.984 . S
H1865 N1861 0.985 . S
H1866 N1860 0.984 . S
H1867 N1860 0.984 . S
H1868 N1856 0.984 . S
H1869 N1856 0.985 . S
C1870 C1871 1.363 . S
C1870 C1876 1.379 . S
C1870 N1878 1.356 . S
C1871 C1870 1.363 . S
C1871 C1877 1.363 . S
C1872 C1873 1.363 . S
C1872 C1877 1.379 . S
C1872 N1879 1.356 . S
C1873 C1872 1.363 . S
C1873 C1876 1.363 . S
N1874 C1876 1.356 . S
N1874 H1886 0.984 . S
N1874 H1887 0.985 . S
N1875 C1877 1.356 . S
N1875 H1880 0.984 . S
N1875 H1881 0.985 . S
C1876 C1870 1.379 . S
C1876 C1873 1.363 . S
C1876 N1874 1.356 . S
C1877 C1871 1.363 . S
C1877 C1872 1.379 . S
C1877 N1875 1.356 . S
N1878 C1870 1.356 . S
N1878 H1884 0.984 . S
N1878 H1885 0.984 . S
N1879 C1872 1.356 . S
N1879 H1882 0.984 . S
N1879 H1883 0.985 . S
H1880 N1875 0.984 . S
H1881 N1875 0.985 . S
H1882 N1879 0.984 . S
H1883 N1879 0.985 . S
H1884 N1878 0.984 . S
H1885 N1878 0.984 . S
H1886 N1874 0.984 . S
H1887 N1874 0.985 . S
C737 C7 1.635 . S
C739 C76 1.635 . S
C755 C53 1.635 . S
C757 C30 1.635 . S
C773 C99 1.635 . S
C775 C168 1.635 . S
C791 C145 1.635 . S
C793 C122 1.635 . S
C809 C191 1.635 . S
C811 C260 1.635 . S
C827 C237 1.635 . S
C829 C214 1.635 . S
C845 C283 1.635 . S
C847 C352 1.635 . S
C863 C306 1.635 . S
C865 C329 1.635 . S
C881 C444 1.635 . S
C883 C375 1.635 . S
C899 C398 1.635 . S
C901 C421 1.635 . S
C917 C467 1.635 . S
C919 C536 1.635 . S
C935 C513 1.635 . S
C937 C490 1.635 . S
C953 C559 1.635 . S
C955 C628 1.635 . S
C971 C605 1.635 . S
C973 C582 1.635 . S
C989 C651 1.635 . S
C991 C720 1.635 . S
C1007 C674 1.635 . S
C1009 C697 1.635 . S
C1025 N288 1.492 . S
C1027 N12 1.492 . S
C1043 N35 1.492 . S
C1045 N495 1.492 . S
C1061 N58 1.492 . S
C1063 N150 1.492 . S
C1079 N725 1.492 . S
C1081 N81 1.492 . S
C1097 N104 1.492 . S
C1099 N196 1.492 . S
C1115 N403 1.492 . S
C1117 N127 1.492 . S
C1133 N633 1.492 . S
C1135 N173 1.492 . S
C1151 N679 1.492 . S
C1153 N219 1.492 . S
C1169 N334 1.492 . S
C1171 N242 1.492 . S
C1187 N541 1.492 . S
C1189 N265 1.492 . S
C1205 N311 1.492 . S
C1207 N587 1.492 . S
C1223 N449 1.492 . S
C1225 N357 1.492 . S
C1241 N656 1.492 . S
C1243 N380 1.492 . S
C1259 N518 1.492 . S
C1261 N426 1.492 . S
C1277 N564 1.492 . S
C1279 N472 1.492 . S
C1295 N610 1.492 . S
C1297 N702 1.492 . S
C1313 C246 1.662 . S
C1315 C16 1.662 . S
C1331 C39 1.662 . S
C1333 C269 1.662 . S
C1349 C200 1.662 . S
C1351 C62 1.662 . S
C1367 C223 1.662 . S
C1369 C85 1.662 . S
C1385 C108 1.662 . S
C1387 C338 1.662 . S
C1403 C131 1.662 . S
C1405 C361 1.662 . S
C1421 C292 1.662 . S
C1423 C154 1.662 . S
C1439 C177 1.662 . S
C1441 C315 1.662 . S
C1457 C614 1.662 . S
C1459 C384 1.662 . S
C1475 C637 1.662 . S
C1477 C407 1.662 . S
C1493 C430 1.662 . S
C1495 C568 1.662 . S
C1511 C453 1.662 . S
C1513 C591 1.662 . S
C1529 C476 1.662 . S
C1531 C706 1.662 . S
C1547 C499 1.662 . S
C1549 C729 1.662 . S
C1565 C660 1.662 . S
C1567 C522 1.662 . S
C1583 C683 1.662 . S
C1585 C545 1.662 . S
C1601 N2 1.472 . S
C1603 N577 1.472 . S
C1619 N554 1.472 . S
C1621 N25 1.472 . S
C1637 N48 1.470 1_556 S
C1639 N623 1.470 1_556 S
C1655 N71 1.470 1_556 S
C1657 N600 1.470 1_556 S
C1673 N94 1.472 . S
C1675 N669 1.472 . S
C1691 N117 1.472 . S
C1693 N646 1.472 . S
C1709 N715 1.470 1_554 S
C1711 N140 1.470 1_554 S
C1727 N692 1.470 1_554 S
C1729 N163 1.470 1_554 S
C1745 N393 1.472 . S
C1747 N186 1.472 . S
C1763 N370 1.472 . S
C1765 N209 1.472 . S
C1781 N232 1.472 . S
C1783 N439 1.472 . S
C1799 N255 1.472 . S
C1801 N416 1.472 . S
C1817 N485 1.472 . S
C1819 N278 1.472 . S
C1835 N301 1.472 . S
C1837 N462 1.472 . S
C1853 N324 1.472 . S
C1855 N531 1.472 . S
C1871 N347 1.472 . S
C1873 N508 1.472 . S
