# Generated by pormake.
# Topology ume, (4)-cn, num edge types: 1
# Building blocks:
#     Node 0, Type 0, BuildingBlock: GALJAG_clean_sbu_0, # of connection points: 4
#     Node 1, Type 0, BuildingBlock: GALJAG_clean_sbu_0, # of connection points: 4
#     Node 2, Type 0, BuildingBlock: GALJAG_clean_sbu_0, # of connection points: 4
#     Node 3, Type 0, BuildingBlock: GALJAG_clean_sbu_0, # of connection points: 4
#     Node 4, Type 0, BuildingBlock: GALJAG_clean_sbu_0, # of connection points: 4
#     Node 5, Type 0, BuildingBlock: GALJAG_clean_sbu_0, # of connection points: 4
#     Node 6, Type 0, BuildingBlock: GALJAG_clean_sbu_0, # of connection points: 4
#     Node 7, Type 0, BuildingBlock: GALJAG_clean_sbu_0, # of connection points: 4
#     Node 8, Type 0, BuildingBlock: GALJAG_clean_sbu_0, # of connection points: 4
#     Node 9, Type 0, BuildingBlock: GALJAG_clean_sbu_0, # of connection points: 4
#     Node 10, Type 0, BuildingBlock: GALJAG_clean_sbu_0, # of connection points: 4
#     Node 11, Type 0, BuildingBlock: GALJAG_clean_sbu_0, # of connection points: 4
#     Node 12, Type 0, BuildingBlock: GALJAG_clean_sbu_0, # of connection points: 4
#     Node 13, Type 0, BuildingBlock: GALJAG_clean_sbu_0, # of connection points: 4
#     Node 14, Type 0, BuildingBlock: GALJAG_clean_sbu_0, # of connection points: 4
#     Node 15, Type 0, BuildingBlock: GALJAG_clean_sbu_0, # of connection points: 4
#     Edge 16, Type (0, 0), BuildingBlock: XUDNAN_clean_linker_2, # of connection points: 2
#     Edge 17, Type (0, 0), BuildingBlock: XUDNAN_clean_linker_2, # of connection points: 2
#     Edge 18, Type (0, 0), BuildingBlock: XUDNAN_clean_linker_2, # of connection points: 2
#     Edge 19, Type (0, 0), BuildingBlock: XUDNAN_clean_linker_2, # of connection points: 2
#     Edge 20, Type (0, 0), BuildingBlock: XUDNAN_clean_linker_2, # of connection points: 2
#     Edge 21, Type (0, 0), BuildingBlock: XUDNAN_clean_linker_2, # of connection points: 2
#     Edge 22, Type (0, 0), BuildingBlock: XUDNAN_clean_linker_2, # of connection points: 2
#     Edge 23, Type (0, 0), BuildingBlock: XUDNAN_clean_linker_2, # of connection points: 2
#     Edge 24, Type (0, 0), BuildingBlock: XUDNAN_clean_linker_2, # of connection points: 2
#     Edge 25, Type (0, 0), BuildingBlock: XUDNAN_clean_linker_2, # of connection points: 2
#     Edge 26, Type (0, 0), BuildingBlock: XUDNAN_clean_linker_2, # of connection points: 2
#     Edge 27, Type (0, 0), BuildingBlock: XUDNAN_clean_linker_2, # of connection points: 2
#     Edge 28, Type (0, 0), BuildingBlock: XUDNAN_clean_linker_2, # of connection points: 2
#     Edge 29, Type (0, 0), BuildingBlock: XUDNAN_clean_linker_2, # of connection points: 2
#     Edge 30, Type (0, 0), BuildingBlock: XUDNAN_clean_linker_2, # of connection points: 2
#     Edge 31, Type (0, 0), BuildingBlock: XUDNAN_clean_linker_2, # of connection points: 2
#     Edge 32, Type (0, 0), BuildingBlock: XUDNAN_clean_linker_2, # of connection points: 2
#     Edge 33, Type (0, 0), BuildingBlock: XUDNAN_clean_linker_2, # of connection points: 2
#     Edge 34, Type (0, 0), BuildingBlock: XUDNAN_clean_linker_2, # of connection points: 2
#     Edge 35, Type (0, 0), BuildingBlock: XUDNAN_clean_linker_2, # of connection points: 2
#     Edge 36, Type (0, 0), BuildingBlock: XUDNAN_clean_linker_2, # of connection points: 2
#     Edge 37, Type (0, 0), BuildingBlock: XUDNAN_clean_linker_2, # of connection points: 2
#     Edge 38, Type (0, 0), BuildingBlock: XUDNAN_clean_linker_2, # of connection points: 2
#     Edge 39, Type (0, 0), BuildingBlock: XUDNAN_clean_linker_2, # of connection points: 2
#     Edge 40, Type (0, 0), BuildingBlock: XUDNAN_clean_linker_2, # of connection points: 2
#     Edge 41, Type (0, 0), BuildingBlock: XUDNAN_clean_linker_2, # of connection points: 2
#     Edge 42, Type (0, 0), BuildingBlock: XUDNAN_clean_linker_2, # of connection points: 2
#     Edge 43, Type (0, 0), BuildingBlock: XUDNAN_clean_linker_2, # of connection points: 2
#     Edge 44, Type (0, 0), BuildingBlock: XUDNAN_clean_linker_2, # of connection points: 2
#     Edge 45, Type (0, 0), BuildingBlock: XUDNAN_clean_linker_2, # of connection points: 2
#     Edge 46, Type (0, 0), BuildingBlock: XUDNAN_clean_linker_2, # of connection points: 2
#     Edge 47, Type (0, 0), BuildingBlock: XUDNAN_clean_linker_2, # of connection points: 2
# Relax obj value: 0.060
# Max RMSD: 0.125
# Mean RMSD: 0.125
data_MOF--net-ume--node1-GALJAG_clean_sbu_0--edge1-XUDNAN_clean_linker_2
_symmetry_space_group_name_H-M    P1
_symmetry_Int_Tables_number       1
_symmetry_cell_setting            triclinic
loop_
_symmetry_equiv_pos_as_xyz
'x, y, z'
_cell_length_a     27.99948
_cell_length_b     27.991202
_cell_length_c     113.00316
_cell_angle_alpha  90.03007
_cell_angle_beta   89.984842
_cell_angle_gamma 89.989276
loop_
_atom_site_label
_atom_site_type_symbol
_atom_site_fract_x
_atom_site_fract_y
_atom_site_fract_z
_atom_type_partial_charge
In0 In 0.26651 0.1005 0.30827 0.0
O1 O 0.25476 0.15765 0.32263 0.0
O2 O 0.26968 0.08608 0.32784 0.0
C3 C 0.2531 0.14514 0.2875 0.0
C4 C 0.1867 0.04737 0.30786 0.0
C5 C 0.36013 0.07788 0.30651 0.0
O6 O 0.26304 0.16808 0.29683 0.0
O7 O 0.25014 0.10048 0.28871 0.0
O8 O 0.32801 0.04616 0.30695 0.0
O9 O 0.34481 0.12019 0.30684 0.0
C10 C 0.2606 0.12828 0.33102 0.0
O11 O 0.22778 0.02912 0.30653 0.0
O12 O 0.18627 0.09208 0.30945 0.0
In13 In 0.89093 0.73037 0.5589 0.0
O14 O 0.83822 0.73516 0.57437 0.0
O15 O 0.91241 0.72948 0.5782 0.0
C16 C 0.83389 0.7433 0.54004 0.0
C17 C 0.91275 0.63661 0.55718 0.0
C18 C 0.94382 0.81063 0.55641 0.0
O19 O 0.81953 0.75001 0.55052 0.0
O20 O 0.87665 0.72944 0.53914 0.0
O21 O 0.96087 0.76951 0.55443 0.0
O22 O 0.90074 0.81084 0.55964 0.0
C23 C 0.87047 0.73295 0.58218 0.0
O24 O 0.94457 0.66871 0.557 0.0
O25 O 0.87057 0.65201 0.55809 0.0
In26 In 0.24677 0.39509 0.80889 0.0
O27 O 0.28843 0.46393 0.8059 0.0
O28 O 0.32779 0.40124 0.81037 0.0
C29 C 0.16246 0.44022 0.80482 0.0
C30 C 0.24895 0.37126 0.83205 0.0
C31 C 0.25167 0.33385 0.79031 0.0
O32 O 0.20223 0.45751 0.80175 0.0
O33 O 0.16521 0.40029 0.80992 0.0
O34 O 0.21981 0.33058 0.79815 0.0
O35 O 0.28139 0.36671 0.79204 0.0
C36 C 0.32886 0.44523 0.80784 0.0
O37 O 0.25293 0.34011 0.82401 0.0
O38 O 0.2436 0.41333 0.82834 0.0
In39 In 0.58937 0.7292 0.05772 0.0
O40 O 0.64697 0.74013 0.07196 0.0
O41 O 0.57867 0.71465 0.07721 0.0
C42 C 0.63739 0.74644 0.03758 0.0
C43 C 0.53537 0.80893 0.05829 0.0
C44 C 0.56434 0.63703 0.05387 0.0
O45 O 0.6582 0.73182 0.04682 0.0
O46 O 0.59294 0.75245 0.03856 0.0
O47 O 0.60679 0.65185 0.05347 0.0
O48 O 0.53365 0.66897 0.05609 0.0
C49 C 0.62019 0.72664 0.08032 0.0
O50 O 0.51784 0.76818 0.05609 0.0
O51 O 0.57971 0.80907 0.06034 0.0
In52 In 0.26733 0.40707 0.94144 0.0
O53 O 0.25665 0.35019 0.92698 0.0
O54 O 0.27428 0.42116 0.92186 0.0
C55 C 0.25144 0.36009 0.96179 0.0
C56 C 0.18755 0.46066 0.94152 0.0
C57 C 0.36049 0.43014 0.94439 0.0
O58 O 0.26328 0.33839 0.95242 0.0
O59 O 0.24777 0.40481 0.96084 0.0
O60 O 0.32836 0.46169 0.94347 0.0
O61 O 0.34544 0.38778 0.94389 0.0
C62 C 0.26468 0.37915 0.91862 0.0
O63 O 0.22863 0.47871 0.94298 0.0
O64 O 0.1871 0.41597 0.93995 0.0
In65 In 0.60828 0.75296 0.1892 0.0
O66 O 0.66403 0.74696 0.17441 0.0
O67 O 0.59065 0.73544 0.17024 0.0
C68 C 0.65643 0.76458 0.20944 0.0
C69 C 0.57003 0.66774 0.19476 0.0
C70 C 0.57972 0.84447 0.18729 0.0
O71 O 0.67632 0.74722 0.20033 0.0
O72 O 0.61306 0.77598 0.20824 0.0
O73 O 0.55062 0.81174 0.19021 0.0
O74 O 0.62169 0.83035 0.18517 0.0
C75 C 0.63317 0.73755 0.16656 0.0
O76 O 0.54372 0.70254 0.19172 0.0
O77 O 0.61418 0.67649 0.19492 0.0
In78 In 0.24005 0.10934 0.44065 0.0
O79 O 0.24776 0.16398 0.42557 0.0
O80 O 0.23327 0.09155 0.42121 0.0
C81 C 0.24122 0.16866 0.45948 0.0
C82 C 0.32387 0.06159 0.44105 0.0
C83 C 0.15488 0.06606 0.44467 0.0
O84 O 0.22713 0.18205 0.4494 0.0
O85 O 0.2557 0.1261 0.45992 0.0
O86 O 0.19445 0.04751 0.44735 0.0
O87 O 0.15802 0.10662 0.43988 0.0
C88 C 0.24087 0.13335 0.41753 0.0
O89 O 0.2837 0.04114 0.44131 0.0
O90 O 0.32204 0.10666 0.44065 0.0
In91 In 0.90796 0.76317 0.69136 0.0
O92 O 0.8507 0.75523 0.67696 0.0
O93 O 0.9239 0.75621 0.67188 0.0
C94 C 0.85842 0.76176 0.71171 0.0
C95 C 0.92993 0.85679 0.6908 0.0
C96 C 0.962 0.68403 0.69423 0.0
O97 O 0.84226 0.74305 0.70235 0.0
O98 O 0.89911 0.78065 0.71077 0.0
O99 O 0.98017 0.72538 0.69376 0.0
O100 O 0.9171 0.6831 0.69346 0.0
C101 C 0.8809 0.75324 0.66865 0.0
O102 O 0.96142 0.82502 0.6925 0.0
O103 O 0.88811 0.84105 0.68928 0.0
In104 In 0.7471 0.60466 0.80807 0.0
O105 O 0.74858 0.65873 0.8232 0.0
O106 O 0.75107 0.58467 0.82747 0.0
C107 C 0.74835 0.65838 0.78848 0.0
C108 C 0.65535 0.57594 0.80656 0.0
C109 C 0.83627 0.57029 0.80482 0.0
O110 O 0.75172 0.67629 0.79874 0.0
O111 O 0.74338 0.61347 0.78817 0.0
O112 O 0.80071 0.54226 0.80541 0.0
O113 O 0.82634 0.6139 0.80605 0.0
C114 C 0.75065 0.62722 0.83119 0.0
O115 O 0.68936 0.54603 0.806 0.0
O116 O 0.66816 0.61878 0.80788 0.0
In117 In 0.38462 0.22957 0.05829 0.0
O118 O 0.33204 0.23773 0.07371 0.0
O119 O 0.40604 0.22973 0.07756 0.0
C120 C 0.32909 0.24033 0.03907 0.0
C121 C 0.4061 0.13564 0.05718 0.0
C122 C 0.43699 0.3099 0.05544 0.0
O123 O 0.31363 0.24771 0.04943 0.0
O124 O 0.37202 0.22679 0.0385 0.0
O125 O 0.45426 0.26879 0.05355 0.0
O126 O 0.39403 0.31001 0.05876 0.0
C127 C 0.36428 0.23535 0.08152 0.0
O128 O 0.43805 0.1676 0.05689 0.0
O129 O 0.36393 0.15124 0.05796 0.0
In130 In 0.76709 0.89677 0.31021 0.0
O131 O 0.75525 0.84132 0.32495 0.0
O132 O 0.77426 0.91253 0.32965 0.0
C133 C 0.75403 0.85143 0.28956 0.0
C134 C 0.86046 0.91851 0.30799 0.0
C135 C 0.68683 0.94966 0.30957 0.0
O136 O 0.76113 0.82847 0.29905 0.0
O137 O 0.75382 0.89628 0.29059 0.0
O138 O 0.7279 0.96796 0.30832 0.0
O139 O 0.68659 0.90506 0.3113 0.0
C140 C 0.76409 0.87096 0.33313 0.0
O141 O 0.82858 0.9505 0.30849 0.0
O142 O 0.84501 0.87626 0.30852 0.0
In143 In 0.09633 0.23047 0.55844 0.0
O144 O 0.02466 0.26916 0.5569 0.0
O145 O 0.087 0.31058 0.56043 0.0
C146 C 0.0726 0.13747 0.55533 0.0
C147 C 0.12589 0.23202 0.58115 0.0
C148 C 0.142 0.24754 0.53795 0.0
O149 O 0.04138 0.16953 0.55686 0.0
O150 O 0.11502 0.15251 0.55527 0.0
O151 O 0.16427 0.23442 0.54713 0.0
O152 O 0.09745 0.25175 0.53916 0.0
C153 C 0.04245 0.31018 0.55866 0.0
O154 O 0.15399 0.24154 0.5727 0.0
O155 O 0.08396 0.2215 0.57804 0.0
In156 In 0.7413 0.90071 0.44237 0.0
O157 O 0.6834 0.95932 0.44295 0.0
O158 O 0.66324 0.88675 0.43987 0.0
C159 C 0.82928 0.93588 0.44642 0.0
C160 C 0.75098 0.87392 0.41968 0.0
C161 C 0.73317 0.8559 0.46318 0.0
O162 O 0.7943 0.96362 0.44445 0.0
O163 O 0.81928 0.89198 0.44628 0.0
O164 O 0.74676 0.83417 0.45393 0.0
O165 O 0.72347 0.89966 0.46184 0.0
C166 C 0.64993 0.92954 0.44115 0.0
O167 O 0.74438 0.84363 0.42784 0.0
O168 O 0.75309 0.91686 0.42307 0.0
In169 In 0.11172 0.26344 0.69054 0.0
O170 O 0.16694 0.25456 0.67561 0.0
O171 O 0.09347 0.26241 0.67113 0.0
C172 C 0.15982 0.25349 0.71097 0.0
C173 C 0.05883 0.18333 0.69175 0.0
C174 C 0.09059 0.3575 0.69214 0.0
O175 O 0.18082 0.25276 0.70104 0.0
O176 O 0.11511 0.25885 0.71046 0.0
O177 O 0.05878 0.32555 0.6929 0.0
O178 O 0.13232 0.34185 0.69052 0.0
C179 C 0.13569 0.25652 0.66753 0.0
O180 O 0.04024 0.22456 0.69211 0.0
O181 O 0.1038 0.18285 0.69089 0.0
In182 In 0.76733 0.6113 0.94106 0.0
O183 O 0.761 0.66438 0.92573 0.0
O184 O 0.76678 0.59028 0.92174 0.0
C185 C 0.75633 0.6665 0.96034 0.0
C186 C 0.86118 0.59003 0.94238 0.0
C187 C 0.68721 0.5585 0.94366 0.0
O188 O 0.74865 0.68198 0.95 0.0
O189 O 0.77015 0.62362 0.96086 0.0
O190 O 0.72845 0.54074 0.94497 0.0
O191 O 0.68681 0.60228 0.94105 0.0
C192 C 0.76274 0.63232 0.91786 0.0
O193 O 0.82926 0.55812 0.94298 0.0
O194 O 0.84557 0.63205 0.94121 0.0
In195 In 0.40285 0.25535 0.19092 0.0
O196 O 0.34665 0.26322 0.17624 0.0
O197 O 0.41922 0.25292 0.17134 0.0
C198 C 0.34405 0.24756 0.20972 0.0
C199 C 0.44275 0.34192 0.19472 0.0
C200 C 0.45236 0.17208 0.19122 0.0
O201 O 0.33042 0.23814 0.19933 0.0
O202 O 0.3868 0.26118 0.21055 0.0
O203 O 0.47215 0.21241 0.19034 0.0
O204 O 0.40753 0.17363 0.19219 0.0
C205 C 0.37669 0.25844 0.16797 0.0
O206 O 0.4621 0.30323 0.19786 0.0
O207 O 0.40307 0.33715 0.18954 0.0
H208 H 0.90457 0.00613 0.30914 0.0
H209 H 0.93292 0.85454 0.30511 0.0
H210 H 0.01944 0.87093 0.30437 0.0
H211 H 0.99901 0.04777 0.28974 0.0
H212 H 0.01315 0.09868 0.29886 0.0
H213 H 0.95329 0.07513 0.2987 0.0
H214 H 0.95612 0.06531 0.3215 0.0
H215 H 0.01603 0.08868 0.32172 0.0
H216 H 0.00365 0.03101 0.32811 0.0
H217 H 0.10304 0.90354 0.30441 0.0
H218 H 0.17783 0.95049 0.30523 0.0
H219 H 0.09504 0.08049 0.30947 0.0
C220 C 0.92899 0.97647 0.30802 0.0
C221 C 0.91206 0.92908 0.30715 0.0
C222 C 0.94513 0.89115 0.30578 0.0
C223 C 0.99434 0.90008 0.30535 0.0
C224 C 0.00995 0.94713 0.30632 0.0
C225 C 0.97831 0.98472 0.30762 0.0
C226 C 0.00452 0.03184 0.30869 0.0
C227 C 0.99173 0.06532 0.29838 0.0
C228 C 0.99448 0.05559 0.32072 0.0
C229 C 0.05575 0.01481 0.30784 0.0
C230 C 0.05813 0.96586 0.30644 0.0
C231 C 0.10166 0.94193 0.30549 0.0
C232 C 0.14391 0.96884 0.30597 0.0
C233 C 0.14222 0.01904 0.30742 0.0
C234 C 0.09748 0.04213 0.30837 0.0
H235 H 1.00047 0.59266 0.55868 0.0
H236 H 0.84903 0.56368 0.55476 0.0
H237 H 0.86558 0.47708 0.55462 0.0
H238 H 0.04277 0.49626 0.54001 0.0
H239 H 0.09345 0.48311 0.54929 0.0
H240 H 0.06979 0.54291 0.54874 0.0
H241 H 0.0594 0.54229 0.57153 0.0
H242 H 0.08283 0.48242 0.57214 0.0
H243 H 0.025 0.49537 0.57837 0.0
H244 H 0.89841 0.39346 0.55506 0.0
H245 H 0.94553 0.3188 0.55612 0.0
H246 H 0.07522 0.40211 0.56017 0.0
C247 C 0.97087 0.56807 0.5577 0.0
C248 C 0.92347 0.58489 0.55669 0.0
C249 C 0.88564 0.55159 0.55554 0.0
C250 C 0.89466 0.50232 0.55545 0.0
C251 C 0.94171 0.48685 0.55656 0.0
C252 C 0.97921 0.51868 0.55768 0.0
C253 C 0.02634 0.4926 0.55897 0.0
C254 C 0.06007 0.50443 0.54863 0.0
C255 C 0.04975 0.50384 0.57097 0.0
C256 C 0.00945 0.44122 0.55841 0.0
C257 C 0.96052 0.43866 0.55699 0.0
C258 C 0.93676 0.39499 0.55618 0.0
C259 C 0.96377 0.3528 0.5568 0.0
C260 C 0.01394 0.35464 0.55826 0.0
C261 C 0.03687 0.39953 0.5591 0.0
H262 H 0.61263 0.48688 0.80863 0.0
H263 H 0.58205 0.63705 0.8027 0.0
H264 H 0.49609 0.61942 0.80203 0.0
H265 H 0.51771 0.4397 0.78977 0.0
H266 H 0.50371 0.39095 0.79959 0.0
H267 H 0.56351 0.41463 0.7991 0.0
H268 H 0.56059 0.42968 0.82171 0.0
H269 H 0.50074 0.40621 0.82225 0.0
H270 H 0.51295 0.46531 0.82783 0.0
H271 H 0.41367 0.58695 0.80236 0.0
H272 H 0.33885 0.54077 0.80382 0.0
H273 H 0.42084 0.41146 0.80997 0.0
C274 C 0.58778 0.51585 0.80708 0.0
C275 C 0.6041 0.56333 0.80569 0.0
C276 C 0.57046 0.60041 0.8038 0.0
C277 C 0.52147 0.59079 0.80339 0.0
C278 C 0.50642 0.54388 0.80492 0.0
C279 C 0.53837 0.50692 0.80673 0.0
C280 C 0.51213 0.45997 0.80847 0.0
C281 C 0.52503 0.4242 0.79864 0.0
C282 C 0.52221 0.43908 0.8208 0.0
C283 C 0.46065 0.47656 0.80738 0.0
C284 C 0.45834 0.52508 0.80528 0.0
C285 C 0.41494 0.54888 0.80398 0.0
C286 C 0.37263 0.52236 0.80484 0.0
C287 C 0.37397 0.47259 0.80702 0.0
C288 C 0.41867 0.4495 0.80831 0.0
H289 H 0.49354 0.09145 0.05913 0.0
H290 H 0.34233 0.06284 0.05457 0.0
H291 H 0.35874 0.9762 0.05437 0.0
H292 H 0.53696 0.99599 0.04051 0.0
H293 H 0.58699 0.9823 0.04995 0.0
H294 H 0.56343 0.04215 0.0495 0.0
H295 H 0.55143 0.04035 0.07224 0.0
H296 H 0.57481 0.98044 0.07275 0.0
H297 H 0.51656 0.99309 0.07878 0.0
H298 H 0.39154 0.89252 0.0546 0.0
H299 H 0.4386 0.81779 0.05548 0.0
H300 H 0.56803 0.90074 0.0604 0.0
C301 C 0.46396 0.06693 0.05803 0.0
C302 C 0.41667 0.08386 0.05683 0.0
C303 C 0.37885 0.05066 0.0555 0.0
C304 C 0.3878 0.00137 0.05538 0.0
C305 C 0.43475 0.98579 0.05665 0.0
C306 C 0.47221 0.01753 0.05798 0.0
C307 C 0.51924 0.99134 0.05938 0.0
C308 C 0.55368 0.00368 0.04923 0.0
C309 C 0.54182 0.00194 0.07151 0.0
C310 C 0.50235 0.94 0.05859 0.0
C311 C 0.45351 0.93756 0.05699 0.0
C312 C 0.42981 0.89396 0.05589 0.0
C313 C 0.45679 0.85173 0.0564 0.0
C314 C 0.50687 0.85344 0.05805 0.0
C315 C 0.52974 0.89825 0.05919 0.0
H316 H 0.09569 0.42749 0.94089 0.0
H317 H 0.17895 0.55798 0.94301 0.0
H318 H 0.10429 0.60521 0.94369 0.0
H319 H 0.00227 0.47315 0.92235 0.0
H320 H 0.95563 0.44023 0.92972 0.0
H321 H 0.01557 0.41692 0.92939 0.0
H322 H 0.01566 0.41167 0.95229 0.0
H323 H 0.95574 0.43504 0.95269 0.0
H324 H 0.00254 0.46431 0.9609 0.0
H325 H 0.02064 0.63804 0.94383 0.0
H326 H 0.93404 0.6544 0.94366 0.0
H327 H 0.90525 0.50221 0.94189 0.0
C328 C 0.09825 0.46602 0.94148 0.0
C329 C 0.14311 0.48916 0.94186 0.0
C330 C 0.14495 0.53958 0.94269 0.0
C331 C 0.10276 0.56666 0.94309 0.0
C332 C 0.05912 0.5427 0.94271 0.0
C333 C 0.05657 0.49351 0.94195 0.0
C334 C 0.00519 0.47647 0.94173 0.0
C335 C 0.99402 0.45015 0.9301 0.0
C336 C 0.99415 0.44502 0.95254 0.0
C337 C 0.97915 0.52381 0.94242 0.0
C338 C 0.01095 0.56155 0.94296 0.0
C339 C 0.99544 0.60877 0.94345 0.0
C340 C 0.94617 0.61768 0.94334 0.0
C341 C 0.91293 0.57957 0.94279 0.0
C342 C 0.92979 0.53204 0.94238 0.0
H343 H 0.41494 0.43023 0.1864 0.0
H344 H 0.52114 0.35952 0.20823 0.0
H345 H 0.56027 0.43691 0.21194 0.0
H346 H 0.49501 0.51119 0.17266 0.0
H347 H 0.45381 0.56067 0.17232 0.0
H348 H 0.43158 0.50034 0.17209 0.0
H349 H 0.37972 0.51826 0.19055 0.0
H350 H 0.40197 0.57868 0.19087 0.0
H351 H 0.40764 0.54121 0.20376 0.0
H352 H 0.591 0.51946 0.2123 0.0
H353 H 0.61345 0.60333 0.20889 0.0
H354 H 0.48777 0.62301 0.18697 0.0
C355 C 0.44611 0.43122 0.19207 0.0
C356 C 0.46496 0.38889 0.19707 0.0
C357 C 0.5061 0.39147 0.20431 0.0
C358 C 0.52846 0.43529 0.20651 0.0
C359 C 0.50924 0.47628 0.20142 0.0
C360 C 0.46908 0.47482 0.19433 0.0
C361 C 0.45758 0.52403 0.18942 0.0
C362 C 0.45964 0.52404 0.17582 0.0
C363 C 0.40883 0.54157 0.19392 0.0
C364 C 0.49808 0.55309 0.19471 0.0
C365 C 0.52712 0.52467 0.20167 0.0
C366 C 0.56831 0.54223 0.20699 0.0
C367 C 0.58078 0.58989 0.20498 0.0
C368 C 0.55215 0.61964 0.19775 0.0
C369 C 0.50974 0.60125 0.19272 0.0
H370 H 0.41613 0.09644 0.44171 0.0
H371 H 0.33378 0.96506 0.44041 0.0
H372 H 0.40826 0.91833 0.4402 0.0
H373 H 0.51145 0.0574 0.42243 0.0
H374 H 0.55795 0.08697 0.43068 0.0
H375 H 0.49819 0.11085 0.43071 0.0
H376 H 0.49676 0.1075 0.45362 0.0
H377 H 0.55654 0.08367 0.45365 0.0
H378 H 0.50914 0.05177 0.461 0.0
H379 H 0.48993 0.88563 0.43985 0.0
H380 H 0.57574 0.86771 0.43995 0.0
H381 H 0.60783 0.01937 0.44187 0.0
C382 C 0.41388 0.05784 0.44138 0.0
C383 C 0.36913 0.03435 0.44106 0.0
C384 C 0.3676 0.98382 0.44067 0.0
C385 C 0.40971 0.95694 0.44053 0.0
C386 C 0.45316 0.98105 0.44083 0.0
C387 C 0.45578 0.03028 0.44129 0.0
C388 C 0.50745 0.04687 0.44164 0.0
C389 C 0.51945 0.07732 0.43071 0.0
C390 C 0.51809 0.07406 0.45316 0.0
C391 C 0.53329 0.99918 0.44129 0.0
C392 C 0.50102 0.96187 0.44078 0.0
C393 C 0.51561 0.91447 0.44027 0.0
C394 C 0.56454 0.90472 0.44031 0.0
C395 C 0.59858 0.94212 0.44092 0.0
C396 C 0.58266 0.99006 0.44142 0.0
H397 H 0.09219 0.09154 0.69278 0.0
H398 H 0.96146 0.17461 0.69114 0.0
H399 H 0.91433 0.09988 0.69078 0.0
H400 H 0.05553 0.99792 0.67334 0.0
H401 H 0.08475 0.95125 0.6816 0.0
H402 H 0.10811 0.01118 0.68194 0.0
H403 H 0.10266 0.01162 0.70483 0.0
H404 H 0.07945 0.95161 0.70457 0.0
H405 H 0.04644 0.99838 0.71189 0.0
H406 H 0.88183 0.01631 0.68999 0.0
H407 H 0.86563 0.9297 0.6896 0.0
H408 H 0.01762 0.9009 0.69215 0.0
C409 C 0.05362 0.09403 0.69239 0.0
C410 C 0.0304 0.13885 0.69198 0.0
C411 C 0.97992 0.14064 0.69149 0.0
C412 C 0.9529 0.09841 0.69126 0.0
C413 C 0.97695 0.0548 0.6916 0.0
C414 C 0.02615 0.0523 0.69223 0.0
C415 C 0.04324 1.00093 0.6925 0.0
C416 C 0.07476 0.98967 0.6817 0.0
C417 C 0.06949 0.99 0.70414 0.0
C418 C 0.99594 0.97484 0.69184 0.0
C419 C 0.95819 0.00662 0.6913 0.0
C420 C 0.91108 0.99111 0.69046 0.0
C421 C 0.90227 0.94183 0.69022 0.0
C422 C 0.94036 0.90858 0.69087 0.0
C423 C 0.98778 0.92545 0.69168 0.0
H424 H 0.59499 0.91631 0.3107 0.0
H425 H 0.67781 0.04627 0.3065 0.0
H426 H 0.60303 0.09282 0.30483 0.0
H427 H 0.50199 0.94692 0.28999 0.0
H428 H 0.4551 0.92003 0.29865 0.0
H429 H 0.51506 0.89695 0.29952 0.0
H430 H 0.51461 0.90889 0.32226 0.0
H431 H 0.45461 0.93185 0.32147 0.0
H432 H 0.50103 0.96699 0.32828 0.0
H433 H 0.51948 0.12513 0.30384 0.0
H434 H 0.43292 0.14146 0.30377 0.0
H435 H 0.4042 0.99022 0.30838 0.0
C436 C 0.59742 0.95459 0.30944 0.0
C437 C 0.64221 0.97776 0.30875 0.0
C438 C 0.64388 0.02784 0.30707 0.0
C439 C 0.60162 0.05453 0.3061 0.0
C440 C 0.55806 0.03054 0.30678 0.0
C441 C 0.55564 0.98171 0.30842 0.0
C442 C 0.50428 0.96465 0.30889 0.0
C443 C 0.49349 0.9301 0.29865 0.0
C444 C 0.49298 0.94175 0.32094 0.0
C445 C 0.47812 0.0116 0.30735 0.0
C446 C 0.50986 0.04912 0.30612 0.0
C447 C 0.49431 0.09603 0.30476 0.0
C448 C 0.44505 0.10492 0.30473 0.0
C449 C 0.41182 0.0671 0.30605 0.0
C450 C 0.42872 0.0198 0.30729 0.0
H451 H 0.91221 0.90208 0.55979 0.0
H452 H 0.038 0.82032 0.55011 0.0
H453 H 0.08402 0.89544 0.54819 0.0
H454 H 0.93287 0.00138 0.53998 0.0
H455 H 0.91108 0.04533 0.55032 0.0
H456 H 0.88803 0.98527 0.55071 0.0
H457 H 0.9114 0.97842 0.57284 0.0
H458 H 0.93444 0.03846 0.57252 0.0
H459 H 0.97222 0.98991 0.57723 0.0
H460 H 0.11666 0.97942 0.5479 0.0
H461 H 0.13373 0.06578 0.54919 0.0
H462 H 0.9861 0.09285 0.55879 0.0
C463 C 0.94942 0.89992 0.55723 0.0
C464 C 0.97159 0.85533 0.5551 0.0
C465 C 0.02033 0.85407 0.55178 0.0
C466 C 0.04669 0.89654 0.55066 0.0
C467 C 0.02372 0.9399 0.55285 0.0
C468 C 0.97615 0.94188 0.55605 0.0
C469 C 0.96003 0.99296 0.55806 0.0
C470 C 0.92067 0.00705 0.54924 0.0
C471 C 0.94357 1.00035 0.57093 0.0
C472 C 0.00606 0.01952 0.55558 0.0
C473 C 0.04236 0.98824 0.55258 0.0
C474 C 0.08845 0.00422 0.55018 0.0
C475 C 0.09779 0.05335 0.55095 0.0
C476 C 0.06121 0.08606 0.55405 0.0
C477 C 0.01468 0.06878 0.5563 0.0
H478 H 0.07199 0.40911 0.8105 0.0
H479 H 0.14897 0.52779 0.79477 0.0
H480 H 0.07297 0.57104 0.79204 0.0
H481 H 0.96619 0.41722 0.79145 0.0
H482 H 0.9253 0.40228 0.8032 0.0
H483 H 0.98544 0.3793 0.80342 0.0
H484 H 0.99826 0.41574 0.82425 0.0
H485 H 0.93822 0.43878 0.8241 0.0
H486 H 0.98782 0.47864 0.82652 0.0
H487 H 0.99056 0.60353 0.79216 0.0
H488 H 0.90567 0.62361 0.79483 0.0
H489 H 0.87966 0.48355 0.80997 0.0
C490 C 0.07276 0.44403 0.80638 0.0
C491 C 0.11646 0.46512 0.80283 0.0
C492 C 0.116 0.51093 0.79754 0.0
C493 C 0.07299 0.53573 0.79593 0.0
C494 C 0.03064 0.51414 0.7996 0.0
C495 C 0.03001 0.46927 0.80467 0.0
C496 C 0.97952 0.45499 0.80813 0.0
C497 C 0.96315 0.41082 0.80113 0.0
C498 C 0.97576 0.44655 0.82155 0.0
C499 C 0.95201 0.49924 0.8044 0.0
C500 C 0.98242 0.53275 0.79948 0.0
C501 C 0.96633 0.57744 0.79589 0.0
C502 C 0.91803 0.58852 0.79747 0.0
C503 C 0.88605 0.55505 0.80254 0.0
C504 C 0.90317 0.5095 0.8059 0.0
H505 H 0.47898 0.59197 0.05845 0.0
H506 H 0.62348 0.56634 0.04609 0.0
H507 H 0.60627 0.48006 0.04461 0.0
H508 H 0.47117 0.48815 0.07651 0.0
H509 H 0.40921 0.47664 0.07326 0.0
H510 H 0.43188 0.53679 0.07269 0.0
H511 H 0.40202 0.54512 0.05108 0.0
H512 H 0.37903 0.48505 0.0516 0.0
H513 H 0.42055 0.50196 0.04015 0.0
H514 H 0.5743 0.39587 0.0452 0.0
H515 H 0.52929 0.32037 0.04766 0.0
H516 H 0.40618 0.4009 0.05979 0.0
C517 C 0.50676 0.56825 0.05529 0.0
C518 C 0.5525 0.58587 0.05234 0.0
C519 C 0.58814 0.55362 0.04839 0.0
C520 C 0.57873 0.50454 0.04751 0.0
C521 C 0.5335 0.48817 0.05064 0.0
C522 C 0.49805 0.51903 0.05443 0.0
C523 C 0.45301 0.49201 0.05765 0.0
C524 C 0.44061 0.49881 0.0708 0.0
C525 C 0.41119 0.50692 0.04964 0.0
C526 C 0.46873 0.44122 0.05511 0.0
C527 C 0.51524 0.43972 0.05106 0.0
C528 C 0.53777 0.39662 0.04832 0.0
C529 C 0.512 0.35393 0.04976 0.0
C530 C 0.4643 0.35474 0.0539 0.0
C531 C 0.44257 0.39908 0.05657 0.0
H532 H 0.40481 0.51764 0.94253 0.0
H533 H 0.43259 0.36724 0.94881 0.0
H534 H 0.51899 0.38389 0.95 0.0
H535 H 0.50526 0.53794 0.92393 0.0
H536 H 0.51732 0.59705 0.92951 0.0
H537 H 0.45737 0.57386 0.92983 0.0
H538 H 0.45303 0.58919 0.95242 0.0
H539 H 0.51297 0.61256 0.95217 0.0
H540 H 0.49806 0.56399 0.96196 0.0
H541 H 0.60286 0.41639 0.94986 0.0
H542 H 0.67789 0.46272 0.94825 0.0
H543 H 0.59557 0.59151 0.94183 0.0
C544 C 0.42906 0.48834 0.94428 0.0
C545 C 0.41197 0.44117 0.94562 0.0
C546 C 0.44487 0.40368 0.94777 0.0
C547 C 0.49404 0.41277 0.94847 0.0
C548 C 0.50983 0.45955 0.947 0.0
C549 C 0.47836 0.49674 0.94496 0.0
C550 C 0.50481 0.54348 0.94329 0.0
C551 C 0.49564 0.56428 0.9309 0.0
C552 C 0.49142 0.57942 0.95304 0.0
C553 C 0.55598 0.52664 0.94461 0.0
C554 C 0.55814 0.47816 0.94681 0.0
C555 C 0.60162 0.45443 0.94818 0.0
C556 C 0.64403 0.48098 0.94725 0.0
C557 C 0.64258 0.53063 0.94492 0.0
C558 C 0.59787 0.55358 0.94363 0.0
H559 H 0.49255 0.88805 0.19173 0.0
H560 H 0.63992 0.91753 0.1822 0.0
H561 H 0.62321 0.0037 0.18248 0.0
H562 H 0.44052 0.98352 0.17407 0.0
H563 H 0.39502 0.99766 0.18481 0.0
H564 H 0.41814 0.93772 0.18382 0.0
H565 H 0.44008 0.94029 0.20608 0.0
H566 H 0.41731 1.00035 0.20712 0.0
H567 H 0.47783 0.9876 0.21154 0.0
H568 H 0.59232 0.08634 0.18429 0.0
H569 H 0.54708 0.16144 0.18643 0.0
H570 H 0.41878 0.08039 0.19434 0.0
C571 C 0.52113 0.91269 0.18964 0.0
C572 C 0.56756 0.89595 0.18695 0.0
C573 C 0.60405 0.92936 0.18428 0.0
C574 C 0.59499 0.97849 0.18443 0.0
C575 C 0.54915 0.99389 0.18722 0.0
C576 C 0.51263 0.96219 0.18969 0.0
C577 C 0.46653 0.98872 0.19233 0.0
C578 C 0.42777 0.97616 0.18321 0.0
C579 C 0.44945 0.97863 0.20502 0.0
C580 C 0.48307 0.0401 0.19098 0.0
C581 C 0.53096 0.0421 0.1881 0.0
C582 C 0.55473 0.08533 0.1865 0.0
C583 C 0.52876 0.1278 0.18777 0.0
C584 C 0.47946 0.12679 0.19053 0.0
C585 C 0.45644 0.08227 0.1922 0.0
H586 H 0.87213 0.02167 0.44027 0.0
H587 H 0.89866 0.88526 0.4573 0.0
H588 H 0.98344 0.9061 0.45962 0.0
H589 H 0.97901 0.02377 0.42366 0.0
H590 H 0.98953 0.08703 0.42512 0.0
H591 H 0.92951 0.06411 0.42577 0.0
H592 H 0.91728 0.10426 0.44621 0.0
H593 H 0.97724 0.12758 0.44559 0.0
H594 H 0.95869 0.09184 0.45803 0.0
H595 H 0.0656 0.93803 0.45897 0.0
H596 H 0.14148 0.98041 0.45555 0.0
H597 H 0.06426 0.09652 0.43873 0.0
C598 C 0.89571 0.99676 0.4447 0.0
C599 C 0.87879 0.95193 0.44866 0.0
C600 C 0.91084 0.91979 0.4542 0.0
C601 C 0.95909 0.93131 0.45559 0.0
C602 C 0.97498 0.97517 0.45138 0.0
C603 C 0.94445 0.00759 0.44608 0.0
C604 C 0.97182 0.05109 0.44177 0.0
C605 C 0.96719 0.05681 0.42828 0.0
C606 C 0.95527 0.09638 0.44829 0.0
C607 C 0.02238 0.03746 0.44529 0.0
C608 C 0.02313 0.99366 0.4509 0.0
C609 C 0.06553 0.97258 0.45468 0.0
C610 C 0.10847 0.99689 0.45267 0.0
C611 C 0.10881 0.04177 0.4469 0.0
C612 C 0.06508 0.06236 0.44322 0.0
H613 H 0.00307 0.40175 0.69388 0.0
H614 H 0.15531 0.43027 0.69243 0.0
H615 H 0.13937 0.51683 0.6937 0.0
H616 H 0.96748 0.50023 0.67589 0.0
H617 H 0.91398 0.51268 0.68421 0.0
H618 H 0.93748 0.45284 0.68373 0.0
H619 H 0.94059 0.45093 0.70665 0.0
H620 H 0.91718 0.51085 0.7072 0.0
H621 H 0.97275 0.49694 0.71447 0.0
H622 H 0.10682 0.60068 0.69462 0.0
H623 H 0.0596 0.67546 0.69461 0.0
H624 H 0.92885 0.59227 0.69531 0.0
C625 C 0.03303 0.42622 0.6939 0.0
C626 C 0.08043 0.40926 0.69308 0.0
C627 C 0.11867 0.44244 0.69306 0.0
C628 C 0.11001 0.49169 0.6938 0.0
C629 C 0.06289 0.5073 0.69456 0.0
C630 C 0.02501 0.47558 0.6946 0.0
C631 C 0.97771 0.50178 0.69513 0.0
C632 C 0.94739 0.49126 0.68408 0.0
C633 C 0.95046 0.48938 0.70654 0.0
C634 C 0.99492 0.5531 0.69527 0.0
C635 C 0.04417 0.55556 0.69502 0.0
C636 C 0.06822 0.59921 0.69487 0.0
C637 C 0.04115 0.64148 0.69488 0.0
C638 C 0.99063 0.6397 0.69498 0.0
C639 C 0.96744 0.59483 0.69528 0.0
H640 H 0.25407 0.06687 0.34946 0.0
H641 H 0.25725 0.21802 0.34109 0.0
H642 H 0.25188 0.23715 0.36252 0.0
H643 H 0.16896 0.0751 0.37317 0.0
H644 H 0.19737 0.02879 0.38172 0.0
H645 H 0.20147 0.02804 0.36582 0.0
H646 H 0.2939 0.02593 0.36724 0.0
H647 H 0.29011 0.02674 0.38314 0.0
H648 H 0.32454 0.07164 0.37554 0.0
H649 H 0.24901 0.23836 0.38528 0.0
H650 H 0.24528 0.22169 0.40684 0.0
H651 H 0.24126 0.06969 0.39942 0.0
C652 C 0.25367 0.10407 0.3521 0.0
C653 C 0.25635 0.14103 0.34365 0.0
C654 C 0.25525 0.18921 0.34746 0.0
C655 C 0.25227 0.20033 0.35959 0.0
C656 C 0.24994 0.1628 0.36771 0.0
C657 C 0.25023 0.11566 0.36406 0.0
C658 C 0.24692 0.08162 0.37439 0.0
C659 C 0.20094 0.05164 0.37373 0.0
C660 C 0.29153 0.04962 0.37512 0.0
C661 C 0.24515 0.11682 0.38449 0.0
C662 C 0.24709 0.16352 0.38054 0.0
C663 C 0.24715 0.20192 0.38843 0.0
C664 C 0.24509 0.19216 0.40064 0.0
C665 C 0.2427 0.14445 0.40477 0.0
C666 C 0.24264 0.10657 0.39654 0.0
H667 H 0.93564 0.73148 0.6 0.0
H668 H 0.78326 0.7387 0.59329 0.0
H669 H 0.76818 0.74269 0.61489 0.0
H670 H 0.92953 0.65833 0.62616 0.0
H671 H 0.97807 0.68907 0.63335 0.0
H672 H 0.97609 0.68557 0.61745 0.0
H673 H 0.98097 0.77794 0.61613 0.0
H674 H 0.98297 0.78173 0.63202 0.0
H675 H 0.9377 0.81379 0.62393 0.0
H676 H 0.77079 0.74713 0.63748 0.0
H677 H 0.79098 0.75283 0.65881 0.0
H678 H 0.94156 0.74317 0.65006 0.0
C679 C 0.89903 0.73369 0.60305 0.0
C680 C 0.86057 0.73471 0.595 0.0
C681 C 0.81322 0.73783 0.59934 0.0
C682 C 0.80435 0.74006 0.61158 0.0
C683 C 0.84325 0.73911 0.61929 0.0
C684 C 0.88963 0.73602 0.61516 0.0
C685 C 0.92539 0.73652 0.62516 0.0
C686 C 0.95394 0.68958 0.62555 0.0
C687 C 0.9587 0.78009 0.62425 0.0
C688 C 0.89201 0.7407 0.6356 0.0
C689 C 0.84474 0.74195 0.6321 0.0
C690 C 0.8077 0.7461 0.64031 0.0
C691 C 0.81945 0.74928 0.65238 0.0
C692 C 0.86777 0.74848 0.65606 0.0
C693 C 0.90426 0.74392 0.64753 0.0
H694 H 0.25585 0.43538 0.84994 0.0
H695 H 0.24738 0.28323 0.84298 0.0
H696 H 0.2503 0.26736 0.8646 0.0
H697 H 0.33877 0.42788 0.87397 0.0
H698 H 0.31168 0.47646 0.88201 0.0
H699 H 0.30829 0.4749 0.86611 0.0
H700 H 0.21594 0.48047 0.86724 0.0
H701 H 0.21903 0.48202 0.88315 0.0
H702 H 0.18332 0.43722 0.87587 0.0
H703 H 0.25233 0.26957 0.88736 0.0
H704 H 0.25661 0.28941 0.90876 0.0
H705 H 0.2663 0.43989 0.89994 0.0
C706 C 0.25451 0.39865 0.85293 0.0
C707 C 0.25115 0.36049 0.84482 0.0
C708 C 0.24991 0.31296 0.84909 0.0
C709 C 0.25149 0.30367 0.86133 0.0
C710 C 0.25468 0.34234 0.8691 0.0
C711 C 0.25647 0.38884 0.86501 0.0
C712 C 0.26058 0.42432 0.87503 0.0
C713 C 0.30763 0.45253 0.87423 0.0
C714 C 0.21712 0.45797 0.87534 0.0
C715 C 0.26063 0.39068 0.88546 0.0
C716 C 0.25698 0.34351 0.88194 0.0
C717 C 0.25544 0.30638 0.89018 0.0
C718 C 0.25783 0.31793 0.90229 0.0
C719 C 0.26205 0.36611 0.90598 0.0
C720 C 0.26347 0.40267 0.8974 0.0
H721 H 0.56607 0.70068 0.0992 0.0
H722 H 0.70721 0.75201 0.08977 0.0
H723 H 0.72912 0.75439 0.11103 0.0
H724 H 0.55018 0.77385 0.12393 0.0
H725 H 0.51848 0.72963 0.13246 0.0
H726 H 0.51616 0.72795 0.11656 0.0
H727 H 0.54714 0.64063 0.11677 0.0
H728 H 0.54958 0.64205 0.1327 0.0
H729 H 0.60218 0.62682 0.12431 0.0
H730 H 0.73313 0.75539 0.13365 0.0
H731 H 0.71794 0.75744 0.15527 0.0
H732 H 0.57376 0.70632 0.14923 0.0
C733 C 0.60185 0.71186 0.10157 0.0
C734 C 0.63504 0.72603 0.09286 0.0
C735 C 0.68131 0.74085 0.09633 0.0
C736 C 0.69406 0.74219 0.10837 0.0
C737 C 0.66014 0.72842 0.11675 0.0
C738 C 0.615 0.71348 0.11346 0.0
C739 C 0.58397 0.70307 0.12408 0.0
C740 C 0.5396 0.73558 0.12426 0.0
C741 C 0.56991 0.64999 0.12449 0.0
C742 C 0.61824 0.7155 0.13393 0.0
C743 C 0.66223 0.72949 0.12959 0.0
C744 C 0.69892 0.74412 0.13713 0.0
C745 C 0.69004 0.74512 0.14938 0.0
C746 C 0.64472 0.73203 0.15389 0.0
C747 C 0.60882 0.71643 0.14604 0.0
H748 H 0.75647 0.56459 0.84958 0.0
H749 H 0.74816 0.71591 0.84152 0.0
H750 H 0.75016 0.73448 0.86295 0.0
H751 H 0.68182 0.56714 0.87532 0.0
H752 H 0.71655 0.52314 0.88316 0.0
H753 H 0.71458 0.52228 0.86724 0.0
H754 H 0.80703 0.52674 0.86645 0.0
H755 H 0.80929 0.52758 0.88238 0.0
H756 H 0.83744 0.57462 0.87401 0.0
H757 H 0.75278 0.73586 0.88544 0.0
H758 H 0.75652 0.71987 0.90699 0.0
H759 H 0.76338 0.56768 0.89985 0.0
C760 C 0.75509 0.60167 0.85231 0.0
C761 C 0.75216 0.63885 0.84392 0.0
C762 C 0.75044 0.68689 0.84783 0.0
C763 C 0.75153 0.69775 0.85997 0.0
C764 C 0.75438 0.66014 0.86802 0.0
C765 C 0.75619 0.61307 0.86433 0.0
C766 C 0.75924 0.57912 0.8747 0.0
C767 C 0.71543 0.54598 0.87512 0.0
C768 C 0.80604 0.55034 0.87436 0.0
C769 C 0.75891 0.61436 0.88482 0.0
C770 C 0.75603 0.66094 0.88084 0.0
C771 C 0.75508 0.69952 0.88865 0.0
C772 C 0.7572 0.69013 0.90086 0.0
C773 C 0.76028 0.64259 0.90506 0.0
C774 C 0.7611 0.60443 0.89691 0.0
H775 H 0.43659 0.24515 0.14934 0.0
H776 H 0.28768 0.26982 0.15803 0.0
H777 H 0.26719 0.26645 0.13669 0.0
H778 H 0.43968 0.31523 0.12282 0.0
H779 H 0.47934 0.27465 0.11527 0.0
H780 H 0.4815 0.27961 0.13115 0.0
H781 H 0.46776 0.18831 0.13303 0.0
H782 H 0.46539 0.18308 0.11716 0.0
H783 H 0.41642 0.16158 0.12604 0.0
H784 H 0.26384 0.2595 0.11414 0.0
H785 H 0.27808 0.25062 0.09258 0.0
H786 H 0.42924 0.23021 0.09935 0.0
C787 C 0.39964 0.25006 0.14679 0.0
C788 C 0.36368 0.25785 0.15532 0.0
C789 C 0.31576 0.26389 0.15161 0.0
C790 C 0.30383 0.26198 0.13953 0.0
C791 C 0.34029 0.25395 0.13134 0.0
C792 C 0.38721 0.24815 0.13485 0.0
C793 C 0.41989 0.23964 0.12442 0.0
C794 C 0.45729 0.27968 0.12336 0.0
C795 C 0.44375 0.19022 0.12521 0.0
C796 C 0.38414 0.24163 0.11444 0.0
C797 C 0.33836 0.24985 0.11855 0.0
C798 C 0.29956 0.25307 0.11084 0.0
C799 C 0.30794 0.24793 0.09863 0.0
C800 C 0.35472 0.23972 0.09432 0.0
C801 C 0.39306 0.23645 0.10237 0.0
H802 H 0.77843 0.9319 0.35144 0.0
H803 H 0.74512 0.78391 0.34357 0.0
H804 H 0.74101 0.76662 0.3651 0.0
H805 H 0.85201 0.9105 0.37702 0.0
H806 H 0.8302 0.96251 0.38473 0.0
H807 H 0.83206 0.96194 0.3688 0.0
H808 H 0.74166 0.98199 0.36806 0.0
H809 H 0.73954 0.98269 0.38397 0.0
H810 H 0.69986 0.94423 0.37579 0.0
H811 H 0.73906 0.76716 0.38784 0.0
H812 H 0.73746 0.78583 0.40931 0.0
H813 H 0.77147 0.93364 0.40145 0.0
C814 C 0.77054 0.8957 0.3542 0.0
C815 C 0.76222 0.85916 0.34586 0.0
C816 C 0.7517 0.81239 0.34985 0.0
C817 C 0.74937 0.80229 0.36204 0.0
C818 C 0.75767 0.83939 0.37004 0.0
C819 C 0.76798 0.88516 0.36623 0.0
C820 C 0.77415 0.9193 0.37646 0.0
C821 C 0.82514 0.93974 0.37677 0.0
C822 C 0.73656 0.9594 0.37604 0.0
C823 C 0.76541 0.88582 0.3867 0.0
C824 C 0.75619 0.83978 0.38289 0.0
C825 C 0.74639 0.80307 0.39089 0.0
C826 C 0.74562 0.81394 0.40305 0.0
C827 C 0.75435 0.86114 0.40702 0.0
C828 C 0.76469 0.89719 0.3987 0.0
H829 H 0.07234 0.23905 0.64995 0.0
H830 H 0.22313 0.26289 0.6564 0.0
H831 H 0.23872 0.25738 0.6348 0.0
H832 H 0.08748 0.153 0.62638 0.0
H833 H 0.03612 0.17436 0.61835 0.0
H834 H 0.03801 0.17937 0.63424 0.0
H835 H 0.02309 0.27059 0.63262 0.0
H836 H 0.02124 0.26589 0.61675 0.0
H837 H 0.06252 0.30656 0.6237 0.0
H838 H 0.23581 0.25309 0.61204 0.0
H839 H 0.21528 0.24704 0.59071 0.0
H840 H 0.0669 0.22339 0.60006 0.0
C841 C 0.10874 0.24303 0.64685 0.0
C842 C 0.14654 0.25167 0.6548 0.0
C843 C 0.19368 0.25623 0.65041 0.0
C844 C 0.2028 0.25321 0.63818 0.0
C845 C 0.16442 0.24502 0.63055 0.0
C846 C 0.11841 0.23957 0.63478 0.0
C847 C 0.08314 0.23106 0.6249 0.0
C848 C 0.05983 0.1815 0.62604 0.0
C849 C 0.04529 0.27091 0.62447 0.0
C850 C 0.11619 0.23333 0.61437 0.0
C851 C 0.16297 0.24142 0.61772 0.0
C852 C 0.19934 0.24634 0.60935 0.0
C853 C 0.18739 0.24292 0.59727 0.0
C854 C 0.13959 0.2345 0.59376 0.0
C855 C 0.10386 0.22945 0.60246 0.0
H856 H 0.30681 0.21766 0.27855 0.0
H857 H 0.19225 0.11973 0.26994 0.0
H858 H 0.19394 0.1471 0.24916 0.0
H859 H 0.27679 0.31423 0.25621 0.0
H860 H 0.33909 0.32387 0.25298 0.0
H861 H 0.32097 0.30571 0.26762 0.0
H862 H 0.37859 0.23338 0.26643 0.0
H863 H 0.39657 0.25105 0.25182 0.0
H864 H 0.37316 0.1919 0.25429 0.0
H865 H 0.21564 0.17584 0.22902 0.0
H866 H 0.25892 0.19985 0.2109 0.0
H867 H 0.36286 0.27526 0.23238 0.0
C868 C 0.28079 0.20367 0.27236 0.0
C869 C 0.24869 0.16751 0.2758 0.0
C870 C 0.21659 0.14806 0.26743 0.0
C871 C 0.21718 0.16352 0.25564 0.0
C872 C 0.25045 0.1981 0.25237 0.0
C873 C 0.28176 0.21794 0.26049 0.0
C874 C 0.31893 0.24857 0.25439 0.0
C875 C 0.31361 0.30123 0.25801 0.0
C876 C 0.36978 0.23009 0.25688 0.0
C877 C 0.30493 0.24112 0.24158 0.0
C878 C 0.26454 0.21303 0.24062 0.0
C879 C 0.24682 0.19854 0.22965 0.0
C880 C 0.27163 0.21227 0.21942 0.0
C881 C 0.31411 0.23939 0.22027 0.0
C882 C 0.33022 0.25481 0.23148 0.0
H883 H 0.79289 0.78687 0.47153 0.0
H884 H 0.67385 0.87733 0.48146 0.0
H885 H 0.67962 0.84837 0.50207 0.0
H886 H 0.76991 0.68672 0.49288 0.0
H887 H 0.83276 0.67943 0.49582 0.0
H888 H 0.81306 0.6995 0.48147 0.0
H889 H 0.86716 0.77424 0.48335 0.0
H890 H 0.88676 0.75462 0.49769 0.0
H891 H 0.86046 0.813 0.496 0.0
H892 H 0.70392 0.81701 0.52185 0.0
H893 H 0.74794 0.78957 0.53954 0.0
H894 H 0.85427 0.72334 0.51692 0.0
C895 C 0.767 0.7991 0.47798 0.0
C896 C 0.73233 0.8335 0.47494 0.0
C897 C 0.70025 0.85047 0.48365 0.0
C898 C 0.70316 0.83409 0.49535 0.0
C899 C 0.73866 0.80112 0.49817 0.0
C900 C 0.77013 0.78389 0.48974 0.0
C901 C 0.80899 0.75389 0.49536 0.0
C902 C 0.80598 0.70179 0.49113 0.0
C903 C 0.85876 0.77524 0.49296 0.0
C904 C 0.79536 0.75825 0.50828 0.0
C905 C 0.75406 0.78468 0.5097 0.0
C906 C 0.73594 0.79571 0.52086 0.0
C907 C 0.76116 0.78003 0.53085 0.0
C908 C 0.8044 0.75434 0.52958 0.0
C909 C 0.82112 0.74266 0.51815 0.0
H910 H 0.12023 0.24747 0.73291 0.0
H911 H 0.25645 0.2573 0.7148 0.0
H912 H 0.29736 0.26552 0.7341 0.0
H913 H 0.14065 0.33476 0.75314 0.0
H914 H 0.11043 0.30649 0.76536 0.0
H915 H 0.09326 0.29251 0.75044 0.0
H916 H 0.10815 0.20256 0.75445 0.0
H917 H 0.12535 0.2163 0.76944 0.0
H918 H 0.16538 0.18331 0.75999 0.0
H919 H 0.32101 0.28703 0.75478 0.0
H920 H 0.32583 0.31842 0.77518 0.0
H921 H 0.17464 0.2915 0.77996 0.0
C922 C 0.15882 0.25001 0.73302 0.0
C923 C 0.18528 0.25166 0.72239 0.0
C924 C 0.2356 0.25564 0.72286 0.0
C925 C 0.2591 0.26019 0.73378 0.0
C926 C 0.23176 0.25987 0.74411 0.0
C927 C 0.18273 0.25426 0.74382 0.0
C928 C 0.16096 0.25988 0.75601 0.0
C929 C 0.1242 0.30084 0.75624 0.0
C930 C 0.13865 0.21269 0.76022 0.0
C931 C 0.20505 0.27207 0.76312 0.0
C932 C 0.24566 0.27118 0.75614 0.0
C933 C 0.28975 0.28657 0.76041 0.0
C934 C 0.29214 0.30441 0.77199 0.0
C935 C 0.25075 0.30658 0.77916 0.0
C936 C 0.20707 0.28884 0.77478 0.0
H937 H 0.77798 0.64316 0.98314 0.0
H938 H 0.70959 0.7521 0.96175 0.0
H939 H 0.68156 0.79246 0.97992 0.0
H940 H 0.68917 0.6303 0.00334 0.0
H941 H 0.72677 0.6218 0.01611 0.0
H942 H 0.74861 0.60644 0.00165 0.0
H943 H 0.82145 0.66227 0.00463 0.0
H944 H 0.79991 0.6777 0.01918 0.0
H945 H 0.81197 0.72402 0.00851 0.0
H946 H 0.64827 0.81132 -0.00015 0.0
H947 H 0.6164 0.8103 0.02025 0.0
H948 H 0.71024 0.69238 0.02894 0.0
C949 C 0.75829 0.67629 0.9823 0.0
C950 C 0.74595 0.69462 0.97107 0.0
C951 C 0.71967 0.73767 0.97029 0.0
C952 C 0.70368 0.76086 0.98055 0.0
C953 C 0.71513 0.74098 0.99151 0.0
C954 C 0.74254 0.70008 0.99245 0.0
C955 C 0.74626 0.68356 0.00518 0.0
C956 C 0.7265 0.63253 0.00665 0.0
C957 C 0.79798 0.68712 0.00963 0.0
C958 C 0.71459 0.72008 0.01117 0.0
C959 C 0.69732 0.75318 0.00315 0.0
C960 C 0.66268 0.78662 0.00629 0.0
C961 C 0.64467 0.7857 0.01786 0.0
C962 C 0.66173 0.75192 0.02614 0.0
C963 C 0.69794 0.71959 0.02285 0.0
H964 H 0.35126 0.21724 0.01627 0.0
H965 H 0.24482 0.28937 0.03771 0.0
H966 H 0.20515 0.31838 0.01955 0.0
H967 H 0.36674 0.30496 0.99596 0.0
H968 H 0.37367 0.26687 0.9832 0.0
H969 H 0.38852 0.24472 0.99766 0.0
H970 H 0.33011 0.17383 0.99483 0.0
H971 H 0.31521 0.19564 0.98028 0.0
H972 H 0.26868 0.18542 0.99101 0.0
H973 H 0.18732 0.35217 -0.00036 0.0
H974 H 0.18901 0.38362 0.97921 0.0
H975 H 0.30343 0.28565 0.97042 0.0
C976 C 0.31877 0.23795 0.01713 0.0
C977 C 0.30098 0.25106 0.02836 0.0
C978 C 0.25877 0.27865 0.02917 0.0
C979 C 0.236 0.29523 0.01891 0.0
C980 C 0.25539 0.28301 0.00795 0.0
C981 C 0.29534 0.25425 0.00698 0.0
C982 C 0.31149 0.24974 0.99424 0.0
C983 C 0.36314 0.26767 0.99268 0.0
C984 C 0.30603 0.19808 0.98983 0.0
C985 C 0.27601 0.28257 0.98825 0.0
C986 C 0.24366 0.30107 0.9963 0.0
C987 C 0.21138 0.33681 0.99318 0.0
C988 C 0.2127 0.35457 0.9816 0.0
C989 C 0.24565 0.3362 0.97327 0.0
C990 C 0.27683 0.29898 0.97655 0.0
H991 H 0.69856 0.8854 0.27195 0.0
H992 H 0.79006 0.76638 0.28129 0.0
H993 H 0.77864 0.73211 0.26119 0.0
H994 H 0.61385 0.8157 0.25546 0.0
H995 H 0.60292 0.86246 0.24484 0.0
H996 H 0.62028 0.87744 0.25972 0.0
H997 H 0.69145 0.92665 0.25154 0.0
H998 H 0.67461 0.91138 0.23663 0.0
H999 H 0.73404 0.89835 0.24183 0.0
H1000 H 0.75954 0.71395 0.23942 0.0
H1001 H 0.72535 0.70721 0.2192 0.0
H1002 H 0.64176 0.83514 0.22535 0.0
C1003 C 0.71623 0.85211 0.26975 0.0
C1004 C 0.74551 0.82858 0.27804 0.0
C1005 C 0.76745 0.78475 0.27499 0.0
C1006 C 0.76139 0.76531 0.26361 0.0
C1007 C 0.73263 0.78987 0.25555 0.0
C1008 C 0.7097 0.83185 0.25861 0.0
C1009 C 0.67867 0.85025 0.24868 0.0
C1010 C 0.62581 0.8515 0.2524 0.0
C1011 C 0.69574 0.89957 0.24442 0.0
C1012 C 0.6878 0.81226 0.23947 0.0
C1013 C 0.71963 0.7781 0.24346 0.0
C1014 C 0.73429 0.74028 0.23626 0.0
C1015 C 0.71502 0.73688 0.2248 0.0
C1016 C 0.68092 0.77055 0.22084 0.0
C1017 C 0.66757 0.80876 0.22824 0.0
H1018 H 0.27154 0.14696 0.48177 0.0
H1019 H 0.1966 0.25521 0.46155 0.0
H1020 H 0.17458 0.29627 0.48012 0.0
H1021 H 0.18927 0.13379 0.50317 0.0
H1022 H 0.22978 0.12549 0.5154 0.0
H1023 H 0.24848 0.11053 0.50066 0.0
H1024 H 0.32129 0.16709 0.50263 0.0
H1025 H 0.30299 0.18204 0.51748 0.0
H1026 H 0.31212 0.22867 0.50672 0.0
H1027 H 0.1463 0.31474 0.50044 0.0
H1028 H 0.11802 0.31231 0.52114 0.0
H1029 H 0.21442 0.19498 0.52847 0.0
C1030 C 0.25193 0.18025 0.48124 0.0
C1031 C 0.23585 0.19806 0.47025 0.0
C1032 C 0.20958 0.2412 0.46989 0.0
C1033 C 0.19699 0.26479 0.48039 0.0
C1034 C 0.21173 0.24519 0.49113 0.0
C1035 C 0.23939 0.20432 0.49163 0.0
C1036 C 0.24615 0.18761 0.50427 0.0
C1037 C 0.22727 0.13636 0.50596 0.0
C1038 C 0.29877 0.19161 0.50799 0.0
C1039 C 0.21558 0.22374 0.51075 0.0
C1040 C 0.19656 0.25704 0.50302 0.0
C1041 C 0.16218 0.28995 0.50664 0.0
C1042 C 0.14619 0.2882 0.51838 0.0
C1043 C 0.16491 0.25413 0.52637 0.0
C1044 C 0.20094 0.22243 0.5226 0.0
H1045 H 0.8017 0.69019 0.72013 0.0
H1046 H 0.86129 0.82836 0.72913 0.0
H1047 H 0.82751 0.82182 0.74927 0.0
H1048 H 0.69227 0.69649 0.73934 0.0
H1049 H 0.69745 0.63446 0.74342 0.0
H1050 H 0.71752 0.65415 0.72907 0.0
H1051 H 0.80116 0.61815 0.7332 0.0
H1052 H 0.78145 0.59854 0.74753 0.0
H1053 H 0.83331 0.63634 0.74627 0.0
H1054 H 0.79588 0.79667 0.76886 0.0
H1055 H 0.77384 0.75234 0.78693 0.0
H1056 H 0.73876 0.62834 0.76558 0.0
C1057 C 0.80607 0.71968 0.72625 0.0
C1058 C 0.83322 0.76014 0.72311 0.0
C1059 C 0.84009 0.79732 0.73141 0.0
C1060 C 0.82085 0.79402 0.74282 0.0
C1061 C 0.79524 0.75308 0.74579 0.0
C1062 C 0.78796 0.71643 0.73777 0.0
C1063 C 0.76511 0.67356 0.74366 0.0
C1064 C 0.71511 0.66413 0.73857 0.0
C1065 C 0.79719 0.62905 0.74261 0.0
C1066 C 0.76226 0.69123 0.75631 0.0
C1067 C 0.7787 0.73761 0.75729 0.0
C1068 C 0.78228 0.76059 0.7682 0.0
C1069 C 0.76972 0.73513 0.77841 0.0
C1070 C 0.75455 0.68701 0.77763 0.0
C1071 C 0.74984 0.66525 0.76642 0.0
loop_
_geom_bond_atom_site_label_1
_geom_bond_atom_site_label_2
_geom_bond_distance
_geom_bond_site_symmetry_2
_ccdc_geom_bond_type
In0 O1 2.294 . S
In0 O2 2.326 . S
In0 O6 2.266 . S
In0 O7 2.326 . S
In0 O8 2.266 . S
In0 O9 2.326 . S
In0 O11 2.294 . S
In0 O12 2.326 . S
O1 In0 2.294 . S
O1 C10 1.240 . S
O2 In0 2.326 . S
O2 C10 1.252 . S
C3 O6 1.252 . S
C3 O7 1.260 . S
C4 O11 1.240 . S
C4 O12 1.252 . S
C5 O8 1.252 . S
C5 O9 1.260 . S
O6 In0 2.266 . S
O6 C3 1.252 . S
O7 In0 2.326 . S
O7 C3 1.260 . S
O8 In0 2.266 . S
O8 C5 1.252 . S
O9 In0 2.326 . S
O9 C5 1.260 . S
C10 O1 1.240 . S
C10 O2 1.252 . S
O11 In0 2.294 . S
O11 C4 1.240 . S
O12 In0 2.326 . S
O12 C4 1.252 . S
In13 O14 2.294 . S
In13 O15 2.326 . S
In13 O19 2.266 . S
In13 O20 2.326 . S
In13 O21 2.266 . S
In13 O22 2.326 . S
In13 O24 2.294 . S
In13 O25 2.326 . S
O14 In13 2.294 . S
O14 C23 1.240 . S
O15 In13 2.326 . S
O15 C23 1.252 . S
C16 O19 1.252 . S
C16 O20 1.260 . S
C17 O24 1.240 . S
C17 O25 1.252 . S
C18 O21 1.252 . S
C18 O22 1.260 . S
O19 In13 2.266 . S
O19 C16 1.252 . S
O20 In13 2.326 . S
O20 C16 1.260 . S
O21 In13 2.266 . S
O21 C18 1.252 . S
O22 In13 2.326 . S
O22 C18 1.260 . S
C23 O14 1.240 . S
C23 O15 1.252 . S
O24 In13 2.294 . S
O24 C17 1.240 . S
O25 In13 2.326 . S
O25 C17 1.252 . S
In26 O27 2.294 . S
In26 O28 2.326 . S
In26 O32 2.266 . S
In26 O33 2.326 . S
In26 O34 2.266 . S
In26 O35 2.326 . S
In26 O37 2.294 . S
In26 O38 2.326 . S
O27 In26 2.294 . S
O27 C36 1.240 . S
O28 In26 2.326 . S
O28 C36 1.252 . S
C29 O32 1.252 . S
C29 O33 1.260 . S
C30 O37 1.240 . S
C30 O38 1.252 . S
C31 O34 1.252 . S
C31 O35 1.260 . S
O32 In26 2.266 . S
O32 C29 1.252 . S
O33 In26 2.326 . S
O33 C29 1.260 . S
O34 In26 2.266 . S
O34 C31 1.252 . S
O35 In26 2.326 . S
O35 C31 1.260 . S
C36 O27 1.240 . S
C36 O28 1.252 . S
O37 In26 2.294 . S
O37 C30 1.240 . S
O38 In26 2.326 . S
O38 C30 1.252 . S
In39 O40 2.294 . S
In39 O41 2.326 . S
In39 O45 2.266 . S
In39 O46 2.326 . S
In39 O47 2.266 . S
In39 O48 2.326 . S
In39 O50 2.294 . S
In39 O51 2.326 . S
O40 In39 2.294 . S
O40 C49 1.240 . S
O41 In39 2.326 . S
O41 C49 1.252 . S
C42 O45 1.252 . S
C42 O46 1.260 . S
C43 O50 1.240 . S
C43 O51 1.252 . S
C44 O47 1.252 . S
C44 O48 1.260 . S
O45 In39 2.266 . S
O45 C42 1.252 . S
O46 In39 2.326 . S
O46 C42 1.260 . S
O47 In39 2.266 . S
O47 C44 1.252 . S
O48 In39 2.326 . S
O48 C44 1.260 . S
C49 O40 1.240 . S
C49 O41 1.252 . S
O50 In39 2.294 . S
O50 C43 1.240 . S
O51 In39 2.326 . S
O51 C43 1.252 . S
In52 O53 2.294 . S
In52 O54 2.326 . S
In52 O58 2.266 . S
In52 O59 2.326 . S
In52 O60 2.266 . S
In52 O61 2.326 . S
In52 O63 2.294 . S
In52 O64 2.326 . S
O53 In52 2.294 . S
O53 C62 1.240 . S
O54 In52 2.326 . S
O54 C62 1.252 . S
C55 O58 1.252 . S
C55 O59 1.260 . S
C56 O63 1.240 . S
C56 O64 1.252 . S
C57 O60 1.252 . S
C57 O61 1.260 . S
O58 In52 2.266 . S
O58 C55 1.252 . S
O59 In52 2.326 . S
O59 C55 1.260 . S
O60 In52 2.266 . S
O60 C57 1.252 . S
O61 In52 2.326 . S
O61 C57 1.260 . S
C62 O53 1.240 . S
C62 O54 1.252 . S
O63 In52 2.294 . S
O63 C56 1.240 . S
O64 In52 2.326 . S
O64 C56 1.252 . S
In65 O66 2.294 . S
In65 O67 2.326 . S
In65 O71 2.266 . S
In65 O72 2.326 . S
In65 O73 2.266 . S
In65 O74 2.326 . S
In65 O76 2.294 . S
In65 O77 2.326 . S
O66 In65 2.294 . S
O66 C75 1.240 . S
O67 In65 2.326 . S
O67 C75 1.252 . S
C68 O71 1.252 . S
C68 O72 1.260 . S
C69 O76 1.240 . S
C69 O77 1.252 . S
C70 O73 1.252 . S
C70 O74 1.260 . S
O71 In65 2.266 . S
O71 C68 1.252 . S
O72 In65 2.326 . S
O72 C68 1.260 . S
O73 In65 2.266 . S
O73 C70 1.252 . S
O74 In65 2.326 . S
O74 C70 1.260 . S
C75 O66 1.240 . S
C75 O67 1.252 . S
O76 In65 2.294 . S
O76 C69 1.240 . S
O77 In65 2.326 . S
O77 C69 1.252 . S
In78 O79 2.294 . S
In78 O80 2.326 . S
In78 O84 2.266 . S
In78 O85 2.326 . S
In78 O86 2.266 . S
In78 O87 2.326 . S
In78 O89 2.294 . S
In78 O90 2.326 . S
O79 In78 2.294 . S
O79 C88 1.240 . S
O80 In78 2.326 . S
O80 C88 1.252 . S
C81 O84 1.252 . S
C81 O85 1.260 . S
C82 O89 1.240 . S
C82 O90 1.252 . S
C83 O86 1.252 . S
C83 O87 1.260 . S
O84 In78 2.266 . S
O84 C81 1.252 . S
O85 In78 2.326 . S
O85 C81 1.260 . S
O86 In78 2.266 . S
O86 C83 1.252 . S
O87 In78 2.326 . S
O87 C83 1.260 . S
C88 O79 1.240 . S
C88 O80 1.252 . S
O89 In78 2.294 . S
O89 C82 1.240 . S
O90 In78 2.326 . S
O90 C82 1.252 . S
In91 O92 2.294 . S
In91 O93 2.326 . S
In91 O97 2.266 . S
In91 O98 2.326 . S
In91 O99 2.266 . S
In91 O100 2.326 . S
In91 O102 2.294 . S
In91 O103 2.326 . S
O92 In91 2.294 . S
O92 C101 1.240 . S
O93 In91 2.326 . S
O93 C101 1.252 . S
C94 O97 1.252 . S
C94 O98 1.260 . S
C95 O102 1.240 . S
C95 O103 1.252 . S
C96 O99 1.252 . S
C96 O100 1.260 . S
O97 In91 2.266 . S
O97 C94 1.252 . S
O98 In91 2.326 . S
O98 C94 1.260 . S
O99 In91 2.266 . S
O99 C96 1.252 . S
O100 In91 2.326 . S
O100 C96 1.260 . S
C101 O92 1.240 . S
C101 O93 1.252 . S
O102 In91 2.294 . S
O102 C95 1.240 . S
O103 In91 2.326 . S
O103 C95 1.252 . S
In104 O105 2.294 . S
In104 O106 2.326 . S
In104 O110 2.266 . S
In104 O111 2.326 . S
In104 O112 2.266 . S
In104 O113 2.326 . S
In104 O115 2.294 . S
In104 O116 2.326 . S
O105 In104 2.294 . S
O105 C114 1.240 . S
O106 In104 2.326 . S
O106 C114 1.252 . S
C107 O110 1.252 . S
C107 O111 1.260 . S
C108 O115 1.240 . S
C108 O116 1.252 . S
C109 O112 1.252 . S
C109 O113 1.260 . S
O110 In104 2.266 . S
O110 C107 1.252 . S
O111 In104 2.326 . S
O111 C107 1.260 . S
O112 In104 2.266 . S
O112 C109 1.252 . S
O113 In104 2.326 . S
O113 C109 1.260 . S
C114 O105 1.240 . S
C114 O106 1.252 . S
O115 In104 2.294 . S
O115 C108 1.240 . S
O116 In104 2.326 . S
O116 C108 1.252 . S
In117 O118 2.294 . S
In117 O119 2.326 . S
In117 O123 2.266 . S
In117 O124 2.326 . S
In117 O125 2.266 . S
In117 O126 2.326 . S
In117 O128 2.294 . S
In117 O129 2.326 . S
O118 In117 2.294 . S
O118 C127 1.240 . S
O119 In117 2.326 . S
O119 C127 1.252 . S
C120 O123 1.252 . S
C120 O124 1.260 . S
C121 O128 1.240 . S
C121 O129 1.252 . S
C122 O125 1.252 . S
C122 O126 1.260 . S
O123 In117 2.266 . S
O123 C120 1.252 . S
O124 In117 2.326 . S
O124 C120 1.260 . S
O125 In117 2.266 . S
O125 C122 1.252 . S
O126 In117 2.326 . S
O126 C122 1.260 . S
C127 O118 1.240 . S
C127 O119 1.252 . S
O128 In117 2.294 . S
O128 C121 1.240 . S
O129 In117 2.326 . S
O129 C121 1.252 . S
In130 O131 2.294 . S
In130 O132 2.326 . S
In130 O136 2.266 . S
In130 O137 2.326 . S
In130 O138 2.266 . S
In130 O139 2.326 . S
In130 O141 2.294 . S
In130 O142 2.326 . S
O131 In130 2.294 . S
O131 C140 1.240 . S
O132 In130 2.326 . S
O132 C140 1.252 . S
C133 O136 1.252 . S
C133 O137 1.260 . S
C134 O141 1.240 . S
C134 O142 1.252 . S
C135 O138 1.252 . S
C135 O139 1.260 . S
O136 In130 2.266 . S
O136 C133 1.252 . S
O137 In130 2.326 . S
O137 C133 1.260 . S
O138 In130 2.266 . S
O138 C135 1.252 . S
O139 In130 2.326 . S
O139 C135 1.260 . S
C140 O131 1.240 . S
C140 O132 1.252 . S
O141 In130 2.294 . S
O141 C134 1.240 . S
O142 In130 2.326 . S
O142 C134 1.252 . S
In143 O144 2.294 . S
In143 O145 2.326 . S
In143 O149 2.266 . S
In143 O150 2.326 . S
In143 O151 2.266 . S
In143 O152 2.326 . S
In143 O154 2.294 . S
In143 O155 2.326 . S
O144 In143 2.294 . S
O144 C153 1.240 . S
O145 In143 2.326 . S
O145 C153 1.252 . S
C146 O149 1.252 . S
C146 O150 1.260 . S
C147 O154 1.240 . S
C147 O155 1.252 . S
C148 O151 1.252 . S
C148 O152 1.260 . S
O149 In143 2.266 . S
O149 C146 1.252 . S
O150 In143 2.326 . S
O150 C146 1.260 . S
O151 In143 2.266 . S
O151 C148 1.252 . S
O152 In143 2.326 . S
O152 C148 1.260 . S
C153 O144 1.240 . S
C153 O145 1.252 . S
O154 In143 2.294 . S
O154 C147 1.240 . S
O155 In143 2.326 . S
O155 C147 1.252 . S
In156 O157 2.294 . S
In156 O158 2.326 . S
In156 O162 2.266 . S
In156 O163 2.326 . S
In156 O164 2.266 . S
In156 O165 2.326 . S
In156 O167 2.294 . S
In156 O168 2.326 . S
O157 In156 2.294 . S
O157 C166 1.240 . S
O158 In156 2.326 . S
O158 C166 1.252 . S
C159 O162 1.252 . S
C159 O163 1.260 . S
C160 O167 1.240 . S
C160 O168 1.252 . S
C161 O164 1.252 . S
C161 O165 1.260 . S
O162 In156 2.266 . S
O162 C159 1.252 . S
O163 In156 2.326 . S
O163 C159 1.260 . S
O164 In156 2.266 . S
O164 C161 1.252 . S
O165 In156 2.326 . S
O165 C161 1.260 . S
C166 O157 1.240 . S
C166 O158 1.252 . S
O167 In156 2.294 . S
O167 C160 1.240 . S
O168 In156 2.326 . S
O168 C160 1.252 . S
In169 O170 2.294 . S
In169 O171 2.326 . S
In169 O175 2.266 . S
In169 O176 2.326 . S
In169 O177 2.266 . S
In169 O178 2.326 . S
In169 O180 2.294 . S
In169 O181 2.326 . S
O170 In169 2.294 . S
O170 C179 1.240 . S
O171 In169 2.326 . S
O171 C179 1.252 . S
C172 O175 1.252 . S
C172 O176 1.260 . S
C173 O180 1.240 . S
C173 O181 1.252 . S
C174 O177 1.252 . S
C174 O178 1.260 . S
O175 In169 2.266 . S
O175 C172 1.252 . S
O176 In169 2.326 . S
O176 C172 1.260 . S
O177 In169 2.266 . S
O177 C174 1.252 . S
O178 In169 2.326 . S
O178 C174 1.260 . S
C179 O170 1.240 . S
C179 O171 1.252 . S
O180 In169 2.294 . S
O180 C173 1.240 . S
O181 In169 2.326 . S
O181 C173 1.252 . S
In182 O183 2.294 . S
In182 O184 2.326 . S
In182 O188 2.266 . S
In182 O189 2.326 . S
In182 O190 2.266 . S
In182 O191 2.326 . S
In182 O193 2.294 . S
In182 O194 2.326 . S
O183 In182 2.294 . S
O183 C192 1.240 . S
O184 In182 2.326 . S
O184 C192 1.252 . S
C185 O188 1.252 . S
C185 O189 1.260 . S
C186 O193 1.240 . S
C186 O194 1.252 . S
C187 O190 1.252 . S
C187 O191 1.260 . S
O188 In182 2.266 . S
O188 C185 1.252 . S
O189 In182 2.326 . S
O189 C185 1.260 . S
O190 In182 2.266 . S
O190 C187 1.252 . S
O191 In182 2.326 . S
O191 C187 1.260 . S
C192 O183 1.240 . S
C192 O184 1.252 . S
O193 In182 2.294 . S
O193 C186 1.240 . S
O194 In182 2.326 . S
O194 C186 1.252 . S
In195 O196 2.294 . S
In195 O197 2.326 . S
In195 O201 2.266 . S
In195 O202 2.326 . S
In195 O203 2.266 . S
In195 O204 2.326 . S
In195 O206 2.294 . S
In195 O207 2.326 . S
O196 In195 2.294 . S
O196 C205 1.240 . S
O197 In195 2.326 . S
O197 C205 1.252 . S
C198 O201 1.252 . S
C198 O202 1.260 . S
C199 O206 1.240 . S
C199 O207 1.252 . S
C200 O203 1.252 . S
C200 O204 1.260 . S
O201 In195 2.266 . S
O201 C198 1.252 . S
O202 In195 2.326 . S
O202 C198 1.260 . S
O203 In195 2.266 . S
O203 C200 1.252 . S
O204 In195 2.326 . S
O204 C200 1.260 . S
C205 O196 1.240 . S
C205 O197 1.252 . S
O206 In195 2.294 . S
O206 C199 1.240 . S
O207 In195 2.326 . S
O207 C199 1.252 . S
H208 C220 0.930 . S
H209 C222 0.930 . S
H210 C223 0.930 . S
H211 C227 0.959 . S
H212 C227 0.959 . S
H213 C227 0.961 . S
H214 C228 0.960 1_655 S
H215 C228 0.961 1_545 S
H216 C228 0.959 . S
H217 C231 0.929 . S
H218 C232 0.931 . S
H219 C234 0.930 . S
C220 H208 0.930 . S
C220 C221 1.399 . S
C220 C225 1.399 . S
C221 C220 1.399 . S
C221 C222 1.376 . S
C222 H209 0.930 . S
C222 C221 1.376 . S
C222 C223 1.388 . S
C223 H210 0.930 . S
C223 C222 1.388 . S
C223 C224 1.390 . S
C224 C223 1.390 . S
C224 C225 1.394 . S
C224 C230 1.465 1_655 S
C225 C220 1.399 . S
C225 C224 1.394 . S
C225 C226 1.516 1_565 S
C226 C225 1.516 1_545 S
C226 C227 1.502 . S
C226 C228 1.561 1_645 S
C226 C229 1.526 1_655 S
C227 H211 0.959 . S
C227 H212 0.959 . S
C227 H213 0.961 . S
C227 C226 1.502 . S
C228 H214 0.960 1_455 S
C228 H215 0.961 1_565 S
C228 H216 0.959 . S
C228 C226 1.561 1_465 S
C229 C226 1.526 1_455 S
C229 C230 1.396 1_545 S
C229 C234 1.390 . S
C230 C224 1.465 1_455 S
C230 C229 1.396 1_565 S
C230 C231 1.399 . S
C231 H217 0.929 . S
C231 C230 1.399 . S
C231 C232 1.385 1_565 S
C232 H218 0.931 . S
C232 C231 1.385 1_545 S
C232 C233 1.389 . S
C233 C232 1.389 . S
C233 C234 1.387 . S
C234 H219 0.930 . S
C234 C229 1.390 . S
C234 C233 1.387 . S
H235 C247 0.930 . S
H236 C249 0.930 . S
H237 C250 0.930 . S
H238 C254 0.959 . S
H239 C254 0.959 . S
H240 C254 0.961 . S
H241 C255 0.960 . S
H242 C255 0.961 . S
H243 C255 0.959 . S
H244 C258 0.929 1_655 S
H245 C259 0.931 . S
H246 C261 0.930 . S
C247 H235 0.930 . S
C247 C248 1.399 . S
C247 C252 1.399 . S
C248 C247 1.399 . S
C248 C249 1.376 . S
C249 H236 0.930 . S
C249 C248 1.376 . S
C249 C250 1.388 . S
C250 H237 0.930 . S
C250 C249 1.388 . S
C250 C251 1.390 . S
C251 C250 1.390 . S
C251 C252 1.394 . S
C251 C257 1.470 . S
C252 C247 1.399 . S
C252 C251 1.394 . S
C252 C253 1.516 1_655 S
C253 C252 1.516 1_455 S
C253 C254 1.502 . S
C253 C255 1.561 1_455 S
C253 C256 1.526 . S
C254 H238 0.959 . S
C254 H239 0.959 . S
C254 H240 0.961 . S
C254 C253 1.502 . S
C255 H241 0.960 . S
C255 H242 0.961 . S
C255 H243 0.959 . S
C255 C253 1.561 1_655 S
C256 C253 1.526 . S
C256 C257 1.391 1_455 S
C256 C261 1.390 . S
C257 C251 1.470 . S
C257 C256 1.391 1_655 S
C257 C258 1.398 1_655 S
C258 H244 0.929 1_455 S
C258 C257 1.398 1_455 S
C258 C259 1.385 . S
C259 H245 0.931 . S
C259 C258 1.385 . S
C259 C260 1.389 . S
C260 C259 1.389 . S
C260 C261 1.387 . S
C261 H246 0.930 . S
C261 C256 1.390 . S
C261 C260 1.387 . S
H262 C274 0.930 . S
H263 C276 0.930 . S
H264 C277 0.930 . S
H265 C281 0.959 . S
H266 C281 0.959 . S
H267 C281 0.961 . S
H268 C282 0.960 . S
H269 C282 0.961 . S
H270 C282 0.959 . S
H271 C285 0.929 . S
H272 C286 0.931 . S
H273 C288 0.930 . S
C274 H262 0.930 . S
C274 C275 1.399 . S
C274 C279 1.399 . S
C275 C274 1.399 . S
C275 C276 1.376 . S
C276 H263 0.930 . S
C276 C275 1.376 . S
C276 C277 1.388 . S
C277 H264 0.930 . S
C277 C276 1.388 . S
C277 C278 1.390 . S
C278 C277 1.390 . S
C278 C279 1.394 . S
C278 C284 1.465 . S
C279 C274 1.399 . S
C279 C278 1.394 . S
C279 C280 1.516 . S
C280 C279 1.516 . S
C280 C281 1.502 . S
C280 C282 1.561 . S
C280 C283 1.526 . S
C281 H265 0.959 . S
C281 H266 0.959 . S
C281 H267 0.961 . S
C281 C280 1.502 . S
C282 H268 0.960 . S
C282 H269 0.961 . S
C282 H270 0.959 . S
C282 C280 1.561 . S
C283 C280 1.526 . S
C283 C284 1.396 . S
C283 C288 1.390 . S
C284 C278 1.465 . S
C284 C283 1.396 . S
C284 C285 1.399 . S
C285 H271 0.929 . S
C285 C284 1.399 . S
C285 C286 1.385 . S
C286 H272 0.931 . S
C286 C285 1.385 . S
C286 C287 1.389 . S
C287 C286 1.389 . S
C287 C288 1.387 . S
C288 H273 0.930 . S
C288 C283 1.390 . S
C288 C287 1.387 . S
H289 C301 0.930 . S
H290 C303 0.930 . S
H291 C304 0.930 . S
H292 C308 0.959 . S
H293 C308 0.959 1_565 S
H294 C308 0.961 . S
H295 C309 0.960 1_545 S
H296 C309 0.961 . S
H297 C309 0.959 . S
H298 C312 0.929 . S
H299 C313 0.931 . S
H300 C315 0.930 . S
C301 H289 0.930 . S
C301 C302 1.399 . S
C301 C306 1.399 . S
C302 C301 1.399 . S
C302 C303 1.376 . S
C303 H290 0.930 . S
C303 C302 1.376 . S
C303 C304 1.388 . S
C304 H291 0.930 . S
C304 C303 1.388 . S
C304 C305 1.390 . S
C305 C304 1.390 . S
C305 C306 1.394 . S
C305 C311 1.465 1_545 S
C306 C301 1.399 . S
C306 C305 1.394 . S
C306 C307 1.516 1_545 S
C307 C306 1.516 1_565 S
C307 C308 1.502 1_565 S
C307 C309 1.561 . S
C307 C310 1.526 . S
C308 H292 0.959 . S
C308 H293 0.959 1_545 S
C308 H294 0.961 . S
C308 C307 1.502 1_545 S
C309 H295 0.960 1_565 S
C309 H296 0.961 . S
C309 H297 0.959 . S
C309 C307 1.561 . S
C310 C307 1.526 . S
C310 C311 1.396 . S
C310 C315 1.390 . S
C311 C305 1.465 1_565 S
C311 C310 1.396 . S
C311 C312 1.399 . S
C312 H298 0.929 . S
C312 C311 1.399 . S
C312 C313 1.385 . S
C313 H299 0.931 . S
C313 C312 1.385 . S
C313 C314 1.389 . S
C314 C313 1.389 . S
C314 C315 1.387 . S
C315 H300 0.930 . S
C315 C310 1.390 . S
C315 C314 1.387 . S
H316 C328 0.930 . S
H317 C330 0.930 . S
H318 C331 0.930 . S
H319 C335 0.959 . S
H320 C335 0.959 . S
H321 C335 0.961 . S
H322 C336 0.956 1_455 S
H323 C336 0.966 . S
H324 C336 0.957 1_455 S
H325 C339 0.929 . S
H326 C340 0.931 . S
H327 C342 0.930 . S
C328 H316 0.930 . S
C328 C329 1.399 . S
C328 C333 1.399 . S
C329 C328 1.399 . S
C329 C330 1.376 . S
C330 H317 0.930 . S
C330 C329 1.376 . S
C330 C331 1.388 . S
C331 H318 0.930 . S
C331 C330 1.388 . S
C331 C332 1.390 . S
C332 C331 1.390 . S
C332 C333 1.394 . S
C332 C338 1.465 1_455 S
C333 C328 1.399 . S
C333 C332 1.394 . S
C333 C334 1.516 1_455 S
C334 C333 1.516 1_655 S
C334 C335 1.502 . S
C334 C336 1.562 . S
C334 C337 1.526 . S
C335 H319 0.959 . S
C335 H320 0.959 . S
C335 H321 0.961 . S
C335 C334 1.502 . S
C336 H322 0.956 1_655 S
C336 H323 0.966 . S
C336 H324 0.957 1_655 S
C336 C334 1.562 . S
C337 C334 1.526 . S
C337 C338 1.396 . S
C337 C342 1.390 . S
C338 C332 1.465 1_655 S
C338 C337 1.396 . S
C338 C339 1.399 . S
C339 H325 0.929 . S
C339 C338 1.399 . S
C339 C340 1.385 . S
C340 H326 0.931 . S
C340 C339 1.385 . S
C340 C341 1.389 . S
C341 C340 1.389 . S
C341 C342 1.387 . S
C342 H327 0.930 . S
C342 C337 1.390 . S
C342 C341 1.387 . S
H343 C355 0.930 . S
H344 C357 0.930 . S
H345 C358 0.930 . S
H346 C362 0.959 . S
H347 C362 0.959 . S
H348 C362 0.961 . S
H349 C363 0.960 . S
H350 C363 0.961 . S
H351 C363 0.959 . S
H352 C366 0.929 . S
H353 C367 0.931 . S
H354 C369 0.930 . S
C355 H343 0.930 . S
C355 C356 1.399 . S
C355 C360 1.399 . S
C356 C355 1.399 . S
C356 C357 1.376 . S
C357 H344 0.930 . S
C357 C356 1.376 . S
C357 C358 1.388 . S
C358 H345 0.930 . S
C358 C357 1.388 . S
C358 C359 1.390 . S
C359 C358 1.390 . S
C359 C360 1.394 . S
C359 C365 1.465 . S
C360 C355 1.399 . S
C360 C359 1.394 . S
C360 C361 1.516 . S
C361 C360 1.516 . S
C361 C362 1.502 . S
C361 C363 1.561 . S
C361 C364 1.526 . S
C362 H346 0.959 . S
C362 H347 0.959 . S
C362 H348 0.961 . S
C362 C361 1.502 . S
C363 H349 0.960 . S
C363 H350 0.961 . S
C363 H351 0.959 . S
C363 C361 1.561 . S
C364 C361 1.526 . S
C364 C365 1.396 . S
C364 C369 1.390 . S
C365 C359 1.465 . S
C365 C364 1.396 . S
C365 C366 1.399 . S
C366 H352 0.929 . S
C366 C365 1.399 . S
C366 C367 1.385 . S
C367 H353 0.931 . S
C367 C366 1.385 . S
C367 C368 1.389 . S
C368 C367 1.389 . S
C368 C369 1.387 . S
C369 H354 0.930 . S
C369 C364 1.390 . S
C369 C368 1.387 . S
H370 C382 0.930 . S
H371 C384 0.930 . S
H372 C385 0.930 . S
H373 C389 0.959 . S
H374 C389 0.959 . S
H375 C389 0.961 . S
H376 C390 0.960 . S
H377 C390 0.961 . S
H378 C390 0.959 1_565 S
H379 C393 0.929 . S
H380 C394 0.931 . S
H381 C396 0.930 . S
C382 H370 0.930 . S
C382 C383 1.399 . S
C382 C387 1.399 . S
C383 C382 1.399 . S
C383 C384 1.376 . S
C384 H371 0.930 . S
C384 C383 1.376 . S
C384 C385 1.388 1_545 S
C385 H372 0.930 . S
C385 C384 1.388 1_565 S
C385 C386 1.390 . S
C386 C385 1.390 . S
C386 C387 1.394 1_565 S
C386 C392 1.465 . S
C387 C382 1.399 . S
C387 C386 1.394 1_545 S
C387 C388 1.516 . S
C388 C387 1.516 . S
C388 C389 1.502 . S
C388 C390 1.561 . S
C388 C391 1.526 1_545 S
C389 H373 0.959 . S
C389 H374 0.959 . S
C389 H375 0.961 . S
C389 C388 1.502 . S
C390 H376 0.960 . S
C390 H377 0.961 . S
C390 H378 0.959 1_545 S
C390 C388 1.561 . S
C391 C388 1.526 1_565 S
C391 C392 1.396 . S
C391 C396 1.390 . S
C392 C386 1.465 . S
C392 C391 1.396 . S
C392 C393 1.399 . S
C393 H379 0.929 . S
C393 C392 1.399 . S
C393 C394 1.385 . S
C394 H380 0.931 . S
C394 C393 1.385 . S
C394 C395 1.389 . S
C395 C394 1.389 . S
C395 C396 1.387 . S
C396 H381 0.930 . S
C396 C391 1.390 . S
C396 C395 1.387 . S
H397 C409 0.930 . S
H398 C411 0.930 . S
H399 C412 0.930 . S
H400 C416 0.959 . S
H401 C416 0.959 . S
H402 C416 0.961 . S
H403 C417 0.960 1_455 S
H404 C417 0.961 1_565 S
H405 C417 0.959 . S
H406 C420 0.929 . S
H407 C421 0.931 . S
H408 C423 0.930 . S
C409 H397 0.930 . S
C409 C410 1.399 . S
C409 C414 1.399 . S
C410 C409 1.399 . S
C410 C411 1.376 . S
C411 H398 0.930 . S
C411 C410 1.376 . S
C411 C412 1.388 1_455 S
C412 H399 0.930 . S
C412 C411 1.388 1_655 S
C412 C413 1.390 . S
C413 C412 1.390 . S
C413 C414 1.394 1_655 S
C413 C419 1.465 1_545 S
C414 C409 1.399 . S
C414 C413 1.394 1_455 S
C414 C415 1.516 1_545 S
C415 C414 1.516 1_565 S
C415 C416 1.502 . S
C415 C417 1.561 1_465 S
C415 C418 1.526 1_455 S
C416 H400 0.959 . S
C416 H401 0.959 . S
C416 H402 0.961 . S
C416 C415 1.502 . S
C417 H403 0.960 1_655 S
C417 H404 0.961 1_545 S
C417 H405 0.959 . S
C417 C415 1.561 1_645 S
C418 C415 1.526 1_655 S
C418 C419 1.396 . S
C418 C423 1.390 . S
C419 C413 1.465 1_565 S
C419 C418 1.396 . S
C419 C420 1.399 . S
C420 H406 0.929 . S
C420 C419 1.399 . S
C420 C421 1.385 . S
C421 H407 0.931 . S
C421 C420 1.385 . S
C421 C422 1.389 . S
C422 C421 1.389 . S
C422 C423 1.387 . S
C423 H408 0.930 . S
C423 C418 1.390 . S
C423 C422 1.387 . S
H424 C436 0.930 . S
H425 C438 0.930 . S
H426 C439 0.930 . S
H427 C443 0.959 . S
H428 C443 0.959 . S
H429 C443 0.961 . S
H430 C444 0.960 . S
H431 C444 0.961 . S
H432 C444 0.959 . S
H433 C447 0.929 . S
H434 C448 0.931 . S
H435 C450 0.930 . S
C436 H424 0.930 . S
C436 C437 1.399 . S
C436 C441 1.399 . S
C437 C436 1.399 . S
C437 C438 1.376 . S
C438 H425 0.930 . S
C438 C437 1.376 . S
C438 C439 1.388 . S
C439 H426 0.930 . S
C439 C438 1.388 . S
C439 C440 1.390 . S
C440 C439 1.390 . S
C440 C441 1.394 . S
C440 C446 1.465 1_565 S
C441 C436 1.399 . S
C441 C440 1.394 . S
C441 C442 1.516 . S
C442 C441 1.516 . S
C442 C443 1.502 1_565 S
C442 C444 1.561 . S
C442 C445 1.526 1_565 S
C443 H427 0.959 . S
C443 H428 0.959 . S
C443 H429 0.961 . S
C443 C442 1.502 1_545 S
C444 H430 0.960 . S
C444 H431 0.961 . S
C444 H432 0.959 . S
C444 C442 1.561 . S
C445 C442 1.526 1_545 S
C445 C446 1.396 . S
C445 C450 1.390 . S
C446 C440 1.465 1_545 S
C446 C445 1.396 . S
C446 C447 1.399 . S
C447 H433 0.929 . S
C447 C446 1.399 . S
C447 C448 1.385 . S
C448 H434 0.931 . S
C448 C447 1.385 . S
C448 C449 1.389 . S
C449 C448 1.389 . S
C449 C450 1.387 . S
C450 H435 0.930 . S
C450 C445 1.390 . S
C450 C449 1.387 . S
H451 C463 0.930 . S
H452 C465 0.930 . S
H453 C466 0.930 . S
H454 C470 0.959 . S
H455 C470 0.959 . S
H456 C470 0.977 . S
H457 C471 0.960 . S
H458 C471 0.961 1_545 S
H459 C471 0.959 . S
H460 C474 0.929 . S
H461 C475 0.931 . S
H462 C477 0.930 . S
C463 H451 0.930 . S
C463 C464 1.399 . S
C463 C468 1.399 . S
C464 C463 1.399 . S
C464 C465 1.376 . S
C465 H452 0.930 . S
C465 C464 1.376 . S
C465 C466 1.388 1_655 S
C466 H453 0.930 . S
C466 C465 1.388 1_455 S
C466 C467 1.390 . S
C467 C466 1.390 . S
C467 C468 1.394 1_455 S
C467 C473 1.465 1_565 S
C468 C463 1.399 . S
C468 C467 1.394 1_655 S
C468 C469 1.516 1_565 S
C469 C468 1.516 1_545 S
C469 C470 1.502 . S
C469 C471 1.561 1_645 S
C469 C472 1.526 1_655 S
C470 H454 0.959 . S
C470 H455 0.959 . S
C470 H456 0.977 . S
C470 C469 1.502 . S
C471 H457 0.960 . S
C471 H458 0.961 1_565 S
C471 H459 0.959 . S
C471 C469 1.561 1_465 S
C472 C469 1.526 1_455 S
C472 C473 1.396 . S
C472 C477 1.390 . S
C473 C467 1.465 1_545 S
C473 C472 1.396 . S
C473 C474 1.399 . S
C474 H460 0.929 . S
C474 C473 1.399 . S
C474 C475 1.385 . S
C475 H461 0.931 . S
C475 C474 1.385 . S
C475 C476 1.389 . S
C476 C475 1.389 . S
C476 C477 1.387 . S
C477 H462 0.930 . S
C477 C472 1.390 . S
C477 C476 1.387 . S
H478 C490 0.930 . S
H479 C492 0.930 . S
H480 C493 0.930 . S
H481 C497 0.959 . S
H482 C497 0.959 . S
H483 C497 0.961 . S
H484 C498 0.960 1_455 S
H485 C498 0.961 . S
H486 C498 0.959 1_455 S
H487 C501 0.929 . S
H488 C502 0.931 . S
H489 C504 0.930 . S
C490 H478 0.930 . S
C490 C491 1.399 . S
C490 C495 1.399 . S
C491 C490 1.399 . S
C491 C492 1.376 . S
C492 H479 0.930 . S
C492 C491 1.376 . S
C492 C493 1.388 . S
C493 H480 0.930 . S
C493 C492 1.388 . S
C493 C494 1.390 . S
C494 C493 1.390 . S
C494 C495 1.394 . S
C494 C500 1.465 1_455 S
C495 C490 1.399 . S
C495 C494 1.394 . S
C495 C496 1.516 1_455 S
C496 C495 1.516 1_655 S
C496 C497 1.502 . S
C496 C498 1.561 . S
C496 C499 1.526 . S
C497 H481 0.959 . S
C497 H482 0.959 . S
C497 H483 0.961 . S
C497 C496 1.502 . S
C498 H484 0.960 1_655 S
C498 H485 0.961 . S
C498 H486 0.959 1_655 S
C498 C496 1.561 . S
C499 C496 1.526 . S
C499 C500 1.396 . S
C499 C504 1.390 . S
C500 C494 1.465 1_655 S
C500 C499 1.396 . S
C500 C501 1.399 . S
C501 H487 0.929 . S
C501 C500 1.399 . S
C501 C502 1.385 . S
C502 H488 0.931 . S
C502 C501 1.385 . S
C502 C503 1.389 . S
C503 C502 1.389 . S
C503 C504 1.387 . S
C504 H489 0.930 . S
C504 C499 1.390 . S
C504 C503 1.387 . S
H505 C517 0.930 . S
H506 C519 0.930 . S
H507 C520 0.930 . S
H508 C524 0.959 . S
H509 C524 0.959 . S
H510 C524 0.961 . S
H511 C525 0.960 . S
H512 C525 0.961 . S
H513 C525 0.959 . S
H514 C528 0.929 . S
H515 C529 0.931 . S
H516 C531 0.930 . S
C517 H505 0.930 . S
C517 C518 1.399 . S
C517 C522 1.399 . S
C518 C517 1.399 . S
C518 C519 1.376 . S
C519 H506 0.930 . S
C519 C518 1.376 . S
C519 C520 1.388 . S
C520 H507 0.930 . S
C520 C519 1.388 . S
C520 C521 1.390 . S
C521 C520 1.390 . S
C521 C522 1.394 . S
C521 C527 1.465 . S
C522 C517 1.399 . S
C522 C521 1.394 . S
C522 C523 1.516 . S
C523 C522 1.516 . S
C523 C524 1.502 . S
C523 C525 1.561 . S
C523 C526 1.526 . S
C524 H508 0.959 . S
C524 H509 0.959 . S
C524 H510 0.961 . S
C524 C523 1.502 . S
C525 H511 0.960 . S
C525 H512 0.961 . S
C525 H513 0.959 . S
C525 C523 1.561 . S
C526 C523 1.526 . S
C526 C527 1.396 . S
C526 C531 1.390 . S
C527 C521 1.465 . S
C527 C526 1.396 . S
C527 C528 1.399 . S
C528 H514 0.929 . S
C528 C527 1.399 . S
C528 C529 1.385 . S
C529 H515 0.931 . S
C529 C528 1.385 . S
C529 C530 1.389 . S
C530 C529 1.389 . S
C530 C531 1.387 . S
C531 H516 0.930 . S
C531 C526 1.390 . S
C531 C530 1.387 . S
H532 C544 0.930 . S
H533 C546 0.930 . S
H534 C547 0.930 . S
H535 C551 0.959 . S
H536 C551 0.959 . S
H537 C551 0.961 . S
H538 C552 0.960 . S
H539 C552 0.961 . S
H540 C552 0.959 . S
H541 C555 0.929 . S
H542 C556 0.931 . S
H543 C558 0.930 . S
C544 H532 0.930 . S
C544 C545 1.399 . S
C544 C549 1.399 . S
C545 C544 1.399 . S
C545 C546 1.376 . S
C546 H533 0.930 . S
C546 C545 1.376 . S
C546 C547 1.388 . S
C547 H534 0.930 . S
C547 C546 1.388 . S
C547 C548 1.390 . S
C548 C547 1.390 . S
C548 C549 1.394 . S
C548 C554 1.465 . S
C549 C544 1.399 . S
C549 C548 1.394 . S
C549 C550 1.516 . S
C550 C549 1.516 . S
C550 C551 1.502 . S
C550 C552 1.561 . S
C550 C553 1.526 . S
C551 H535 0.959 . S
C551 H536 0.959 . S
C551 H537 0.961 . S
C551 C550 1.502 . S
C552 H538 0.960 . S
C552 H539 0.961 . S
C552 H540 0.959 . S
C552 C550 1.561 . S
C553 C550 1.526 . S
C553 C554 1.396 . S
C553 C558 1.390 . S
C554 C548 1.465 . S
C554 C553 1.396 . S
C554 C555 1.399 . S
C555 H541 0.929 . S
C555 C554 1.399 . S
C555 C556 1.385 . S
C556 H542 0.931 . S
C556 C555 1.385 . S
C556 C557 1.389 . S
C557 C556 1.389 . S
C557 C558 1.387 . S
C558 H543 0.930 . S
C558 C553 1.390 . S
C558 C557 1.387 . S
H559 C571 0.930 . S
H560 C573 0.930 . S
H561 C574 0.930 . S
H562 C578 0.959 . S
H563 C578 0.959 1_545 S
H564 C578 0.961 . S
H565 C579 0.960 1_565 S
H566 C579 0.961 . S
H567 C579 0.959 . S
H568 C582 0.929 . S
H569 C583 0.931 . S
H570 C585 0.930 . S
C571 H559 0.930 . S
C571 C572 1.399 . S
C571 C576 1.399 . S
C572 C571 1.399 . S
C572 C573 1.376 . S
C573 H560 0.930 . S
C573 C572 1.376 . S
C573 C574 1.388 . S
C574 H561 0.930 . S
C574 C573 1.388 . S
C574 C575 1.390 . S
C575 C574 1.390 . S
C575 C576 1.394 . S
C575 C581 1.465 1_565 S
C576 C571 1.399 . S
C576 C575 1.394 . S
C576 C577 1.516 . S
C577 C576 1.516 . S
C577 C578 1.502 . S
C577 C579 1.561 1_565 S
C577 C580 1.526 1_565 S
C578 H562 0.959 . S
C578 H563 0.959 1_565 S
C578 H564 0.961 . S
C578 C577 1.502 . S
C579 H565 0.960 1_545 S
C579 H566 0.961 . S
C579 H567 0.959 . S
C579 C577 1.561 1_545 S
C580 C577 1.526 1_545 S
C580 C581 1.396 . S
C580 C585 1.390 . S
C581 C575 1.465 1_545 S
C581 C580 1.396 . S
C581 C582 1.399 . S
C582 H568 0.929 . S
C582 C581 1.399 . S
C582 C583 1.385 . S
C583 H569 0.931 . S
C583 C582 1.385 . S
C583 C584 1.389 . S
C584 C583 1.389 . S
C584 C585 1.387 . S
C585 H570 0.930 . S
C585 C580 1.390 . S
C585 C584 1.387 . S
H586 C598 0.930 . S
H587 C600 0.930 . S
H588 C601 0.930 . S
H589 C605 0.959 . S
H590 C605 0.959 1_455 S
H591 C605 0.961 . S
H592 C606 0.960 1_655 S
H593 C606 0.961 . S
H594 C606 0.959 . S
H595 C609 0.929 1_565 S
H596 C610 0.931 . S
H597 C612 0.930 . S
C598 H586 0.930 . S
C598 C599 1.399 . S
C598 C603 1.399 . S
C599 C598 1.399 . S
C599 C600 1.376 . S
C600 H587 0.930 . S
C600 C599 1.376 . S
C600 C601 1.388 . S
C601 H588 0.930 . S
C601 C600 1.388 . S
C601 C602 1.390 . S
C602 C601 1.390 . S
C602 C603 1.394 . S
C602 C608 1.464 1_655 S
C603 C598 1.399 . S
C603 C602 1.394 . S
C603 C604 1.516 1_565 S
C604 C603 1.516 1_545 S
C604 C605 1.502 . S
C604 C606 1.561 1_645 S
C604 C607 1.526 1_655 S
C605 H589 0.959 . S
C605 H590 0.959 1_655 S
C605 H591 0.961 . S
C605 C604 1.502 . S
C606 H592 0.960 1_455 S
C606 H593 0.961 . S
C606 H594 0.959 . S
C606 C604 1.561 1_465 S
C607 C604 1.526 1_455 S
C607 C608 1.397 1_545 S
C607 C612 1.390 . S
C608 C602 1.464 1_455 S
C608 C607 1.397 1_565 S
C608 C609 1.399 1_565 S
C609 H595 0.929 1_545 S
C609 C608 1.399 1_545 S
C609 C610 1.385 . S
C610 H596 0.931 . S
C610 C609 1.385 . S
C610 C611 1.389 . S
C611 C610 1.389 . S
C611 C612 1.387 . S
C612 H597 0.930 . S
C612 C607 1.390 . S
C612 C611 1.387 . S
H613 C625 0.930 . S
H614 C627 0.930 . S
H615 C628 0.930 . S
H616 C632 0.959 . S
H617 C632 0.959 . S
H618 C632 0.961 . S
H619 C633 0.960 . S
H620 C633 0.961 . S
H621 C633 0.959 . S
H622 C636 0.929 1_455 S
H623 C637 0.931 . S
H624 C639 0.930 . S
C625 H613 0.930 . S
C625 C626 1.399 . S
C625 C630 1.399 . S
C626 C625 1.399 . S
C626 C627 1.376 . S
C627 H614 0.930 . S
C627 C626 1.376 . S
C627 C628 1.388 . S
C628 H615 0.930 . S
C628 C627 1.388 . S
C628 C629 1.390 . S
C629 C628 1.390 . S
C629 C630 1.394 . S
C629 C635 1.469 . S
C630 C625 1.399 . S
C630 C629 1.394 . S
C630 C631 1.516 1_455 S
C631 C630 1.516 1_655 S
C631 C632 1.502 . S
C631 C633 1.561 1_655 S
C631 C634 1.526 . S
C632 H616 0.959 . S
C632 H617 0.959 . S
C632 H618 0.961 . S
C632 C631 1.502 . S
C633 H619 0.960 . S
C633 H620 0.961 . S
C633 H621 0.959 . S
C633 C631 1.561 1_455 S
C634 C631 1.526 . S
C634 C635 1.393 1_655 S
C634 C639 1.390 . S
C635 C629 1.469 . S
C635 C634 1.393 1_455 S
C635 C636 1.398 1_455 S
C636 H622 0.929 1_655 S
C636 C635 1.398 1_655 S
C636 C637 1.385 . S
C637 H623 0.931 . S
C637 C636 1.385 . S
C637 C638 1.389 . S
C638 C637 1.389 . S
C638 C639 1.387 . S
C639 H624 0.930 . S
C639 C634 1.390 . S
C639 C638 1.387 . S
H640 C652 0.930 . S
H641 C654 0.930 . S
H642 C655 0.930 . S
H643 C659 0.959 . S
H644 C659 0.959 . S
H645 C659 0.961 . S
H646 C660 0.960 . S
H647 C660 0.961 . S
H648 C660 0.959 . S
H649 C663 0.929 . S
H650 C664 0.931 . S
H651 C666 0.930 . S
C652 H640 0.930 . S
C652 C653 1.399 . S
C652 C657 1.399 . S
C653 C652 1.399 . S
C653 C654 1.376 . S
C654 H641 0.930 . S
C654 C653 1.376 . S
C654 C655 1.388 . S
C655 H642 0.930 . S
C655 C654 1.388 . S
C655 C656 1.390 . S
C656 C655 1.390 . S
C656 C657 1.394 . S
C656 C662 1.465 . S
C657 C652 1.399 . S
C657 C656 1.394 . S
C657 C658 1.516 . S
C658 C657 1.516 . S
C658 C659 1.502 . S
C658 C660 1.561 . S
C658 C661 1.526 . S
C659 H643 0.959 . S
C659 H644 0.959 . S
C659 H645 0.961 . S
C659 C658 1.502 . S
C660 H646 0.960 . S
C660 H647 0.961 . S
C660 H648 0.959 . S
C660 C658 1.561 . S
C661 C658 1.526 . S
C661 C662 1.396 . S
C661 C666 1.390 . S
C662 C656 1.465 . S
C662 C661 1.396 . S
C662 C663 1.399 . S
C663 H649 0.929 . S
C663 C662 1.399 . S
C663 C664 1.385 . S
C664 H650 0.931 . S
C664 C663 1.385 . S
C664 C665 1.389 . S
C665 C664 1.389 . S
C665 C666 1.387 . S
C666 H651 0.930 . S
C666 C661 1.390 . S
C666 C665 1.387 . S
H667 C679 0.930 . S
H668 C681 0.930 . S
H669 C682 0.930 . S
H670 C686 0.959 . S
H671 C686 0.959 . S
H672 C686 0.961 . S
H673 C687 0.960 . S
H674 C687 0.961 . S
H675 C687 0.959 . S
H676 C690 0.929 . S
H677 C691 0.931 . S
H678 C693 0.930 . S
C679 H667 0.930 . S
C679 C680 1.399 . S
C679 C684 1.399 . S
C680 C679 1.399 . S
C680 C681 1.376 . S
C681 H668 0.930 . S
C681 C680 1.376 . S
C681 C682 1.388 . S
C682 H669 0.930 . S
C682 C681 1.388 . S
C682 C683 1.390 . S
C683 C682 1.390 . S
C683 C684 1.394 . S
C683 C689 1.465 . S
C684 C679 1.399 . S
C684 C683 1.394 . S
C684 C685 1.516 . S
C685 C684 1.516 . S
C685 C686 1.502 . S
C685 C687 1.561 . S
C685 C688 1.526 . S
C686 H670 0.959 . S
C686 H671 0.959 . S
C686 H672 0.961 . S
C686 C685 1.502 . S
C687 H673 0.960 . S
C687 H674 0.961 . S
C687 H675 0.959 . S
C687 C685 1.561 . S
C688 C685 1.526 . S
C688 C689 1.396 . S
C688 C693 1.390 . S
C689 C683 1.465 . S
C689 C688 1.396 . S
C689 C690 1.399 . S
C690 H676 0.929 . S
C690 C689 1.399 . S
C690 C691 1.385 . S
C691 H677 0.931 . S
C691 C690 1.385 . S
C691 C692 1.389 . S
C692 C691 1.389 . S
C692 C693 1.387 . S
C693 H678 0.930 . S
C693 C688 1.390 . S
C693 C692 1.387 . S
H694 C706 0.930 . S
H695 C708 0.930 . S
H696 C709 0.930 . S
H697 C713 0.959 . S
H698 C713 0.959 . S
H699 C713 0.961 . S
H700 C714 0.960 . S
H701 C714 0.961 . S
H702 C714 0.959 . S
H703 C717 0.929 . S
H704 C718 0.931 . S
H705 C720 0.930 . S
C706 H694 0.930 . S
C706 C707 1.399 . S
C706 C711 1.399 . S
C707 C706 1.399 . S
C707 C708 1.376 . S
C708 H695 0.930 . S
C708 C707 1.376 . S
C708 C709 1.388 . S
C709 H696 0.930 . S
C709 C708 1.388 . S
C709 C710 1.390 . S
C710 C709 1.390 . S
C710 C711 1.394 . S
C710 C716 1.465 . S
C711 C706 1.399 . S
C711 C710 1.394 . S
C711 C712 1.516 . S
C712 C711 1.516 . S
C712 C713 1.502 . S
C712 C714 1.561 . S
C712 C715 1.526 . S
C713 H697 0.959 . S
C713 H698 0.959 . S
C713 H699 0.961 . S
C713 C712 1.502 . S
C714 H700 0.960 . S
C714 H701 0.961 . S
C714 H702 0.959 . S
C714 C712 1.561 . S
C715 C712 1.526 . S
C715 C716 1.396 . S
C715 C720 1.390 . S
C716 C710 1.465 . S
C716 C715 1.396 . S
C716 C717 1.399 . S
C717 H703 0.929 . S
C717 C716 1.399 . S
C717 C718 1.385 . S
C718 H704 0.931 . S
C718 C717 1.385 . S
C718 C719 1.389 . S
C719 C718 1.389 . S
C719 C720 1.387 . S
C720 H705 0.930 . S
C720 C715 1.390 . S
C720 C719 1.387 . S
H721 C733 0.930 . S
H722 C735 0.930 . S
H723 C736 0.930 . S
H724 C740 0.959 . S
H725 C740 0.959 . S
H726 C740 0.961 . S
H727 C741 0.960 . S
H728 C741 0.961 . S
H729 C741 0.959 . S
H730 C744 0.929 . S
H731 C745 0.931 . S
H732 C747 0.930 . S
C733 H721 0.930 . S
C733 C734 1.399 . S
C733 C738 1.399 . S
C734 C733 1.399 . S
C734 C735 1.376 . S
C735 H722 0.930 . S
C735 C734 1.376 . S
C735 C736 1.388 . S
C736 H723 0.930 . S
C736 C735 1.388 . S
C736 C737 1.390 . S
C737 C736 1.390 . S
C737 C738 1.394 . S
C737 C743 1.465 . S
C738 C733 1.399 . S
C738 C737 1.394 . S
C738 C739 1.516 . S
C739 C738 1.516 . S
C739 C740 1.502 . S
C739 C741 1.561 . S
C739 C742 1.526 . S
C740 H724 0.959 . S
C740 H725 0.959 . S
C740 H726 0.961 . S
C740 C739 1.502 . S
C741 H727 0.960 . S
C741 H728 0.961 . S
C741 H729 0.959 . S
C741 C739 1.561 . S
C742 C739 1.526 . S
C742 C743 1.396 . S
C742 C747 1.390 . S
C743 C737 1.465 . S
C743 C742 1.396 . S
C743 C744 1.399 . S
C744 H730 0.929 . S
C744 C743 1.399 . S
C744 C745 1.385 . S
C745 H731 0.931 . S
C745 C744 1.385 . S
C745 C746 1.389 . S
C746 C745 1.389 . S
C746 C747 1.387 . S
C747 H732 0.930 . S
C747 C742 1.390 . S
C747 C746 1.387 . S
H748 C760 0.930 . S
H749 C762 0.930 . S
H750 C763 0.930 . S
H751 C767 0.959 . S
H752 C767 0.959 . S
H753 C767 0.961 . S
H754 C768 0.960 . S
H755 C768 0.961 . S
H756 C768 0.959 . S
H757 C771 0.929 . S
H758 C772 0.931 . S
H759 C774 0.930 . S
C760 H748 0.930 . S
C760 C761 1.399 . S
C760 C765 1.399 . S
C761 C760 1.399 . S
C761 C762 1.376 . S
C762 H749 0.930 . S
C762 C761 1.376 . S
C762 C763 1.388 . S
C763 H750 0.930 . S
C763 C762 1.388 . S
C763 C764 1.390 . S
C764 C763 1.390 . S
C764 C765 1.394 . S
C764 C770 1.465 . S
C765 C760 1.399 . S
C765 C764 1.394 . S
C765 C766 1.516 . S
C766 C765 1.516 . S
C766 C767 1.502 . S
C766 C768 1.561 . S
C766 C769 1.526 . S
C767 H751 0.959 . S
C767 H752 0.959 . S
C767 H753 0.961 . S
C767 C766 1.502 . S
C768 H754 0.960 . S
C768 H755 0.961 . S
C768 H756 0.959 . S
C768 C766 1.561 . S
C769 C766 1.526 . S
C769 C770 1.396 . S
C769 C774 1.390 . S
C770 C764 1.465 . S
C770 C769 1.396 . S
C770 C771 1.399 . S
C771 H757 0.929 . S
C771 C770 1.399 . S
C771 C772 1.385 . S
C772 H758 0.931 . S
C772 C771 1.385 . S
C772 C773 1.389 . S
C773 C772 1.389 . S
C773 C774 1.387 . S
C774 H759 0.930 . S
C774 C769 1.390 . S
C774 C773 1.387 . S
H775 C787 0.930 . S
H776 C789 0.930 . S
H777 C790 0.930 . S
H778 C794 0.959 . S
H779 C794 0.959 . S
H780 C794 0.961 . S
H781 C795 0.960 . S
H782 C795 0.961 . S
H783 C795 0.959 . S
H784 C798 0.929 . S
H785 C799 0.931 . S
H786 C801 0.930 . S
C787 H775 0.930 . S
C787 C788 1.399 . S
C787 C792 1.399 . S
C788 C787 1.399 . S
C788 C789 1.376 . S
C789 H776 0.930 . S
C789 C788 1.376 . S
C789 C790 1.388 . S
C790 H777 0.930 . S
C790 C789 1.388 . S
C790 C791 1.390 . S
C791 C790 1.390 . S
C791 C792 1.394 . S
C791 C797 1.465 . S
C792 C787 1.399 . S
C792 C791 1.394 . S
C792 C793 1.516 . S
C793 C792 1.516 . S
C793 C794 1.502 . S
C793 C795 1.561 . S
C793 C796 1.526 . S
C794 H778 0.959 . S
C794 H779 0.959 . S
C794 H780 0.961 . S
C794 C793 1.502 . S
C795 H781 0.960 . S
C795 H782 0.961 . S
C795 H783 0.959 . S
C795 C793 1.561 . S
C796 C793 1.526 . S
C796 C797 1.396 . S
C796 C801 1.390 . S
C797 C791 1.465 . S
C797 C796 1.396 . S
C797 C798 1.399 . S
C798 H784 0.929 . S
C798 C797 1.399 . S
C798 C799 1.385 . S
C799 H785 0.931 . S
C799 C798 1.385 . S
C799 C800 1.389 . S
C800 C799 1.389 . S
C800 C801 1.387 . S
C801 H786 0.930 . S
C801 C796 1.390 . S
C801 C800 1.387 . S
H802 C814 0.930 . S
H803 C816 0.930 . S
H804 C817 0.930 . S
H805 C821 0.959 . S
H806 C821 0.959 . S
H807 C821 0.961 . S
H808 C822 0.960 . S
H809 C822 0.961 . S
H810 C822 0.959 . S
H811 C825 0.929 . S
H812 C826 0.931 . S
H813 C828 0.930 . S
C814 H802 0.930 . S
C814 C815 1.399 . S
C814 C819 1.399 . S
C815 C814 1.399 . S
C815 C816 1.376 . S
C816 H803 0.930 . S
C816 C815 1.376 . S
C816 C817 1.388 . S
C817 H804 0.930 . S
C817 C816 1.388 . S
C817 C818 1.390 . S
C818 C817 1.390 . S
C818 C819 1.394 . S
C818 C824 1.465 . S
C819 C814 1.399 . S
C819 C818 1.394 . S
C819 C820 1.516 . S
C820 C819 1.516 . S
C820 C821 1.502 . S
C820 C822 1.561 . S
C820 C823 1.526 . S
C821 H805 0.959 . S
C821 H806 0.959 . S
C821 H807 0.961 . S
C821 C820 1.502 . S
C822 H808 0.960 . S
C822 H809 0.961 . S
C822 H810 0.959 . S
C822 C820 1.561 . S
C823 C820 1.526 . S
C823 C824 1.396 . S
C823 C828 1.390 . S
C824 C818 1.465 . S
C824 C823 1.396 . S
C824 C825 1.399 . S
C825 H811 0.929 . S
C825 C824 1.399 . S
C825 C826 1.385 . S
C826 H812 0.931 . S
C826 C825 1.385 . S
C826 C827 1.389 . S
C827 C826 1.389 . S
C827 C828 1.387 . S
C828 H813 0.930 . S
C828 C823 1.390 . S
C828 C827 1.387 . S
H829 C841 0.930 . S
H830 C843 0.930 . S
H831 C844 0.930 . S
H832 C848 0.959 . S
H833 C848 0.959 . S
H834 C848 0.961 . S
H835 C849 0.960 . S
H836 C849 0.961 . S
H837 C849 0.959 . S
H838 C852 0.929 . S
H839 C853 0.931 . S
H840 C855 0.930 . S
C841 H829 0.930 . S
C841 C842 1.399 . S
C841 C846 1.399 . S
C842 C841 1.399 . S
C842 C843 1.376 . S
C843 H830 0.930 . S
C843 C842 1.376 . S
C843 C844 1.388 . S
C844 H831 0.930 . S
C844 C843 1.388 . S
C844 C845 1.390 . S
C845 C844 1.390 . S
C845 C846 1.394 . S
C845 C851 1.465 . S
C846 C841 1.399 . S
C846 C845 1.394 . S
C846 C847 1.516 . S
C847 C846 1.516 . S
C847 C848 1.502 . S
C847 C849 1.561 . S
C847 C850 1.526 . S
C848 H832 0.959 . S
C848 H833 0.959 . S
C848 H834 0.961 . S
C848 C847 1.502 . S
C849 H835 0.960 . S
C849 H836 0.961 . S
C849 H837 0.959 . S
C849 C847 1.561 . S
C850 C847 1.526 . S
C850 C851 1.396 . S
C850 C855 1.390 . S
C851 C845 1.465 . S
C851 C850 1.396 . S
C851 C852 1.399 . S
C852 H838 0.929 . S
C852 C851 1.399 . S
C852 C853 1.385 . S
C853 H839 0.931 . S
C853 C852 1.385 . S
C853 C854 1.389 . S
C854 C853 1.389 . S
C854 C855 1.387 . S
C855 H840 0.930 . S
C855 C850 1.390 . S
C855 C854 1.387 . S
H856 C868 0.930 . S
H857 C870 0.930 . S
H858 C871 0.930 . S
H859 C875 0.959 . S
H860 C875 0.959 . S
H861 C875 0.961 . S
H862 C876 0.960 . S
H863 C876 0.961 . S
H864 C876 0.959 . S
H865 C879 0.929 . S
H866 C880 0.931 . S
H867 C882 0.930 . S
C868 H856 0.930 . S
C868 C869 1.399 . S
C868 C873 1.399 . S
C869 C868 1.399 . S
C869 C870 1.376 . S
C870 H857 0.930 . S
C870 C869 1.376 . S
C870 C871 1.388 . S
C871 H858 0.930 . S
C871 C870 1.388 . S
C871 C872 1.390 . S
C872 C871 1.390 . S
C872 C873 1.394 . S
C872 C878 1.465 . S
C873 C868 1.399 . S
C873 C872 1.394 . S
C873 C874 1.516 . S
C874 C873 1.516 . S
C874 C875 1.502 . S
C874 C876 1.561 . S
C874 C877 1.526 . S
C875 H859 0.959 . S
C875 H860 0.959 . S
C875 H861 0.961 . S
C875 C874 1.502 . S
C876 H862 0.960 . S
C876 H863 0.961 . S
C876 H864 0.959 . S
C876 C874 1.561 . S
C877 C874 1.526 . S
C877 C878 1.396 . S
C877 C882 1.390 . S
C878 C872 1.465 . S
C878 C877 1.396 . S
C878 C879 1.399 . S
C879 H865 0.929 . S
C879 C878 1.399 . S
C879 C880 1.385 . S
C880 H866 0.931 . S
C880 C879 1.385 . S
C880 C881 1.389 . S
C881 C880 1.389 . S
C881 C882 1.387 . S
C882 H867 0.930 . S
C882 C877 1.390 . S
C882 C881 1.387 . S
H883 C895 0.930 . S
H884 C897 0.930 . S
H885 C898 0.930 . S
H886 C902 0.959 . S
H887 C902 0.959 . S
H888 C902 0.961 . S
H889 C903 0.960 . S
H890 C903 0.961 . S
H891 C903 0.959 . S
H892 C906 0.929 . S
H893 C907 0.931 . S
H894 C909 0.930 . S
C895 H883 0.930 . S
C895 C896 1.399 . S
C895 C900 1.399 . S
C896 C895 1.399 . S
C896 C897 1.376 . S
C897 H884 0.930 . S
C897 C896 1.376 . S
C897 C898 1.388 . S
C898 H885 0.930 . S
C898 C897 1.388 . S
C898 C899 1.390 . S
C899 C898 1.390 . S
C899 C900 1.394 . S
C899 C905 1.465 . S
C900 C895 1.399 . S
C900 C899 1.394 . S
C900 C901 1.516 . S
C901 C900 1.516 . S
C901 C902 1.502 . S
C901 C903 1.561 . S
C901 C904 1.526 . S
C902 H886 0.959 . S
C902 H887 0.959 . S
C902 H888 0.961 . S
C902 C901 1.502 . S
C903 H889 0.960 . S
C903 H890 0.961 . S
C903 H891 0.959 . S
C903 C901 1.561 . S
C904 C901 1.526 . S
C904 C905 1.396 . S
C904 C909 1.390 . S
C905 C899 1.465 . S
C905 C904 1.396 . S
C905 C906 1.399 . S
C906 H892 0.929 . S
C906 C905 1.399 . S
C906 C907 1.385 . S
C907 H893 0.931 . S
C907 C906 1.385 . S
C907 C908 1.389 . S
C908 C907 1.389 . S
C908 C909 1.387 . S
C909 H894 0.930 . S
C909 C904 1.390 . S
C909 C908 1.387 . S
H910 C922 0.930 . S
H911 C924 0.930 . S
H912 C925 0.930 . S
H913 C929 0.959 . S
H914 C929 0.959 . S
H915 C929 0.961 . S
H916 C930 0.960 . S
H917 C930 0.961 . S
H918 C930 0.959 . S
H919 C933 0.929 . S
H920 C934 0.931 . S
H921 C936 0.930 . S
C922 H910 0.930 . S
C922 C923 1.399 . S
C922 C927 1.399 . S
C923 C922 1.399 . S
C923 C924 1.376 . S
C924 H911 0.930 . S
C924 C923 1.376 . S
C924 C925 1.388 . S
C925 H912 0.930 . S
C925 C924 1.388 . S
C925 C926 1.390 . S
C926 C925 1.390 . S
C926 C927 1.394 . S
C926 C932 1.465 . S
C927 C922 1.399 . S
C927 C926 1.394 . S
C927 C928 1.516 . S
C928 C927 1.516 . S
C928 C929 1.502 . S
C928 C930 1.561 . S
C928 C931 1.526 . S
C929 H913 0.959 . S
C929 H914 0.959 . S
C929 H915 0.961 . S
C929 C928 1.502 . S
C930 H916 0.960 . S
C930 H917 0.961 . S
C930 H918 0.959 . S
C930 C928 1.561 . S
C931 C928 1.526 . S
C931 C932 1.396 . S
C931 C936 1.390 . S
C932 C926 1.465 . S
C932 C931 1.396 . S
C932 C933 1.399 . S
C933 H919 0.929 . S
C933 C932 1.399 . S
C933 C934 1.385 . S
C934 H920 0.931 . S
C934 C933 1.385 . S
C934 C935 1.389 . S
C935 C934 1.389 . S
C935 C936 1.387 . S
C936 H921 0.930 . S
C936 C931 1.390 . S
C936 C935 1.387 . S
H937 C949 0.930 . S
H938 C951 0.930 . S
H939 C952 0.930 . S
H940 C956 0.959 . S
H941 C956 0.959 . S
H942 C956 0.961 1_556 S
H943 C957 0.960 . S
H944 C957 0.961 . S
H945 C957 0.959 . S
H946 C960 0.929 . S
H947 C961 0.931 . S
H948 C963 0.930 . S
C949 H937 0.930 . S
C949 C950 1.399 . S
C949 C954 1.399 . S
C950 C949 1.399 . S
C950 C951 1.376 . S
C951 H938 0.930 . S
C951 C950 1.376 . S
C951 C952 1.388 . S
C952 H939 0.930 . S
C952 C951 1.388 . S
C952 C953 1.390 . S
C953 C952 1.390 . S
C953 C954 1.394 . S
C953 C959 1.465 1_556 S
C954 C949 1.399 . S
C954 C953 1.394 . S
C954 C955 1.516 1_556 S
C955 C954 1.516 1_554 S
C955 C956 1.502 . S
C955 C957 1.561 . S
C955 C958 1.526 . S
C956 H940 0.959 . S
C956 H941 0.959 . S
C956 H942 0.961 1_554 S
C956 C955 1.502 . S
C957 H943 0.960 . S
C957 H944 0.961 . S
C957 H945 0.959 . S
C957 C955 1.561 . S
C958 C955 1.526 . S
C958 C959 1.396 . S
C958 C963 1.390 . S
C959 C953 1.465 1_554 S
C959 C958 1.396 . S
C959 C960 1.399 . S
C960 H946 0.929 . S
C960 C959 1.399 . S
C960 C961 1.385 . S
C961 H947 0.931 . S
C961 C960 1.385 . S
C961 C962 1.389 . S
C962 C961 1.389 . S
C962 C963 1.387 . S
C963 H948 0.930 . S
C963 C958 1.390 . S
C963 C962 1.387 . S
H964 C976 0.930 . S
H965 C978 0.930 . S
H966 C979 0.930 . S
H967 C983 0.959 . S
H968 C983 0.959 . S
H969 C983 0.962 . S
H970 C984 0.889 1_554 S
H971 C984 1.046 . S
H972 C984 0.941 1_554 S
H973 C987 0.929 . S
H974 C988 0.931 . S
H975 C990 0.930 . S
C976 H964 0.930 . S
C976 C977 1.399 . S
C976 C981 1.399 . S
C977 C976 1.399 . S
C977 C978 1.376 . S
C978 H965 0.930 . S
C978 C977 1.376 . S
C978 C979 1.388 . S
C979 H966 0.930 . S
C979 C978 1.388 . S
C979 C980 1.390 . S
C980 C979 1.390 . S
C980 C981 1.394 . S
C980 C986 1.465 1_554 S
C981 C976 1.399 . S
C981 C980 1.394 . S
C981 C982 1.516 1_554 S
C982 C981 1.516 1_556 S
C982 C983 1.502 . S
C982 C984 1.574 . S
C982 C985 1.526 . S
C983 H967 0.959 . S
C983 H968 0.959 . S
C983 H969 0.962 . S
C983 C982 1.502 . S
C984 H970 0.889 1_556 S
C984 H971 1.046 . S
C984 H972 0.941 1_556 S
C984 C982 1.574 . S
C985 C982 1.526 . S
C985 C986 1.396 . S
C985 C990 1.390 . S
C986 C980 1.465 1_556 S
C986 C985 1.396 . S
C986 C987 1.399 . S
C987 H973 0.929 . S
C987 C986 1.399 . S
C987 C988 1.385 . S
C988 H974 0.931 . S
C988 C987 1.385 . S
C988 C989 1.389 . S
C989 C988 1.389 . S
C989 C990 1.387 . S
C990 H975 0.930 . S
C990 C985 1.390 . S
C990 C989 1.387 . S
H991 C1003 0.930 . S
H992 C1005 0.930 . S
H993 C1006 0.930 . S
H994 C1010 0.959 . S
H995 C1010 0.959 . S
H996 C1010 0.961 . S
H997 C1011 0.960 . S
H998 C1011 0.961 . S
H999 C1011 0.959 . S
H1000 C1014 0.929 . S
H1001 C1015 0.931 . S
H1002 C1017 0.930 . S
C1003 H991 0.930 . S
C1003 C1004 1.399 . S
C1003 C1008 1.399 . S
C1004 C1003 1.399 . S
C1004 C1005 1.376 . S
C1005 H992 0.930 . S
C1005 C1004 1.376 . S
C1005 C1006 1.388 . S
C1006 H993 0.930 . S
C1006 C1005 1.388 . S
C1006 C1007 1.390 . S
C1007 C1006 1.390 . S
C1007 C1008 1.394 . S
C1007 C1013 1.465 . S
C1008 C1003 1.399 . S
C1008 C1007 1.394 . S
C1008 C1009 1.516 . S
C1009 C1008 1.516 . S
C1009 C1010 1.502 . S
C1009 C1011 1.561 . S
C1009 C1012 1.526 . S
C1010 H994 0.959 . S
C1010 H995 0.959 . S
C1010 H996 0.961 . S
C1010 C1009 1.502 . S
C1011 H997 0.960 . S
C1011 H998 0.961 . S
C1011 H999 0.959 . S
C1011 C1009 1.561 . S
C1012 C1009 1.526 . S
C1012 C1013 1.396 . S
C1012 C1017 1.390 . S
C1013 C1007 1.465 . S
C1013 C1012 1.396 . S
C1013 C1014 1.399 . S
C1014 H1000 0.929 . S
C1014 C1013 1.399 . S
C1014 C1015 1.385 . S
C1015 H1001 0.931 . S
C1015 C1014 1.385 . S
C1015 C1016 1.389 . S
C1016 C1015 1.389 . S
C1016 C1017 1.387 . S
C1017 H1002 0.930 . S
C1017 C1012 1.390 . S
C1017 C1016 1.387 . S
H1018 C1030 0.930 . S
H1019 C1032 0.930 . S
H1020 C1033 0.930 . S
H1021 C1037 0.959 . S
H1022 C1037 0.959 . S
H1023 C1037 0.961 . S
H1024 C1038 0.960 . S
H1025 C1038 0.961 . S
H1026 C1038 0.959 . S
H1027 C1041 0.929 . S
H1028 C1042 0.931 . S
H1029 C1044 0.930 . S
C1030 H1018 0.930 . S
C1030 C1031 1.399 . S
C1030 C1035 1.399 . S
C1031 C1030 1.399 . S
C1031 C1032 1.376 . S
C1032 H1019 0.930 . S
C1032 C1031 1.376 . S
C1032 C1033 1.388 . S
C1033 H1020 0.930 . S
C1033 C1032 1.388 . S
C1033 C1034 1.390 . S
C1034 C1033 1.390 . S
C1034 C1035 1.394 . S
C1034 C1040 1.465 . S
C1035 C1030 1.399 . S
C1035 C1034 1.394 . S
C1035 C1036 1.516 . S
C1036 C1035 1.516 . S
C1036 C1037 1.502 . S
C1036 C1038 1.561 . S
C1036 C1039 1.526 . S
C1037 H1021 0.959 . S
C1037 H1022 0.959 . S
C1037 H1023 0.961 . S
C1037 C1036 1.502 . S
C1038 H1024 0.960 . S
C1038 H1025 0.961 . S
C1038 H1026 0.959 . S
C1038 C1036 1.561 . S
C1039 C1036 1.526 . S
C1039 C1040 1.396 . S
C1039 C1044 1.390 . S
C1040 C1034 1.465 . S
C1040 C1039 1.396 . S
C1040 C1041 1.399 . S
C1041 H1027 0.929 . S
C1041 C1040 1.399 . S
C1041 C1042 1.385 . S
C1042 H1028 0.931 . S
C1042 C1041 1.385 . S
C1042 C1043 1.389 . S
C1043 C1042 1.389 . S
C1043 C1044 1.387 . S
C1044 H1029 0.930 . S
C1044 C1039 1.390 . S
C1044 C1043 1.387 . S
H1045 C1057 0.930 . S
H1046 C1059 0.930 . S
H1047 C1060 0.930 . S
H1048 C1064 0.959 . S
H1049 C1064 0.959 . S
H1050 C1064 0.961 . S
H1051 C1065 0.960 . S
H1052 C1065 0.961 . S
H1053 C1065 0.959 . S
H1054 C1068 0.929 . S
H1055 C1069 0.931 . S
H1056 C1071 0.930 . S
C1057 H1045 0.930 . S
C1057 C1058 1.399 . S
C1057 C1062 1.399 . S
C1058 C1057 1.399 . S
C1058 C1059 1.376 . S
C1059 H1046 0.930 . S
C1059 C1058 1.376 . S
C1059 C1060 1.388 . S
C1060 H1047 0.930 . S
C1060 C1059 1.388 . S
C1060 C1061 1.390 . S
C1061 C1060 1.390 . S
C1061 C1062 1.394 . S
C1061 C1067 1.465 . S
C1062 C1057 1.399 . S
C1062 C1061 1.394 . S
C1062 C1063 1.516 . S
C1063 C1062 1.516 . S
C1063 C1064 1.502 . S
C1063 C1065 1.561 . S
C1063 C1066 1.526 . S
C1064 H1048 0.959 . S
C1064 H1049 0.959 . S
C1064 H1050 0.961 . S
C1064 C1063 1.502 . S
C1065 H1051 0.960 . S
C1065 H1052 0.961 . S
C1065 H1053 0.959 . S
C1065 C1063 1.561 . S
C1066 C1063 1.526 . S
C1066 C1067 1.396 . S
C1066 C1071 1.390 . S
C1067 C1061 1.465 . S
C1067 C1066 1.396 . S
C1067 C1068 1.399 . S
C1068 H1054 0.929 . S
C1068 C1067 1.399 . S
C1068 C1069 1.385 . S
C1069 H1055 0.931 . S
C1069 C1068 1.385 . S
C1069 C1070 1.389 . S
C1070 C1069 1.389 . S
C1070 C1071 1.387 . S
C1071 H1056 0.930 . S
C1071 C1066 1.390 . S
C1071 C1070 1.387 . S
C221 C134 1.732 . S
C233 C4 1.728 . S
C248 C17 1.732 . S
C260 C153 1.730 . S
C275 C108 1.728 . S
C287 C36 1.723 . S
C302 C121 1.732 . S
C314 C43 1.731 . S
C329 C56 1.720 . S
C341 C186 1.725 . S
C356 C199 1.732 . S
C368 C69 1.732 . S
C383 C82 1.721 . S
C395 C166 1.726 . S
C410 C173 1.720 . S
C422 C95 1.724 . S
C437 C135 1.270 . S
C449 C5 1.272 . S
C464 C18 1.285 . S
C476 C146 1.281 . S
C491 C29 1.285 . S
C503 C109 1.278 . S
C518 C44 1.285 . S
C530 C122 1.280 . S
C545 C57 1.269 . S
C557 C187 1.275 . S
C572 C70 1.269 . S
C584 C200 1.274 . S
C599 C159 1.269 . S
C611 C83 1.274 . S
C626 C174 1.269 . S
C638 C96 1.274 . S
C653 C10 1.380 . S
C665 C88 1.395 . S
C680 C23 1.383 . S
C692 C101 1.395 . S
C707 C30 1.379 . S
C719 C62 1.395 . S
C734 C49 1.392 . S
C746 C75 1.366 . S
C761 C114 1.377 . S
C773 C192 1.395 . S
C788 C205 1.395 . S
C800 C127 1.375 . S
C815 C140 1.378 . S
C827 C160 1.396 . S
C842 C179 1.348 . S
C854 C147 1.373 . S
C869 C3 1.272 . S
C881 C198 1.266 . S
C896 C161 1.265 . S
C908 C16 1.272 . S
C923 C172 1.306 . S
C935 C31 1.261 . S
C950 C185 1.314 . S
C962 C42 1.288 . S
C977 C120 1.296 . S
C989 C55 1.258 . S
C1004 C133 1.308 . S
C1016 C68 1.300 . S
C1031 C81 1.309 . S
C1043 C148 1.299 . S
C1058 C94 1.270 . S
C1070 C107 1.313 . S
