# Generated by pormake.
# Topology npo, (4)-cn, num edge types: 1
# Building blocks:
#     Node 0, Type 0, BuildingBlock: NAHDIM_clean_sbu_0, # of connection points: 4
#     Node 1, Type 0, BuildingBlock: NAHDIM_clean_sbu_0, # of connection points: 4
#     Node 2, Type 0, BuildingBlock: NAHDIM_clean_sbu_0, # of connection points: 4
#     Node 3, Type 0, BuildingBlock: NAHDIM_clean_sbu_0, # of connection points: 4
#     Node 4, Type 0, BuildingBlock: NAHDIM_clean_sbu_0, # of connection points: 4
#     Node 5, Type 0, BuildingBlock: NAHDIM_clean_sbu_0, # of connection points: 4
#     Edge 6, Type (0, 0), BuildingBlock: CIFDUS_clean_linker_0, # of connection points: 2
#     Edge 7, Type (0, 0), BuildingBlock: CIFDUS_clean_linker_0, # of connection points: 2
#     Edge 8, Type (0, 0), BuildingBlock: CIFDUS_clean_linker_0, # of connection points: 2
#     Edge 9, Type (0, 0), BuildingBlock: CIFDUS_clean_linker_0, # of connection points: 2
#     Edge 10, Type (0, 0), BuildingBlock: CIFDUS_clean_linker_0, # of connection points: 2
#     Edge 11, Type (0, 0), BuildingBlock: CIFDUS_clean_linker_0, # of connection points: 2
#     Edge 12, Type (0, 0), BuildingBlock: CIFDUS_clean_linker_0, # of connection points: 2
#     Edge 13, Type (0, 0), BuildingBlock: CIFDUS_clean_linker_0, # of connection points: 2
#     Edge 14, Type (0, 0), BuildingBlock: CIFDUS_clean_linker_0, # of connection points: 2
#     Edge 15, Type (0, 0), BuildingBlock: CIFDUS_clean_linker_0, # of connection points: 2
#     Edge 16, Type (0, 0), BuildingBlock: CIFDUS_clean_linker_0, # of connection points: 2
#     Edge 17, Type (0, 0), BuildingBlock: CIFDUS_clean_linker_0, # of connection points: 2
# Relax obj value: 0.248
# Max RMSD: 0.225
# Mean RMSD: 0.223
data_MOF--net-npo--node1-NAHDIM_clean_sbu_0--edge1-CIFDUS_clean_linker_0
_symmetry_space_group_name_H-M    P1
_symmetry_Int_Tables_number       1
_symmetry_cell_setting            triclinic
loop_
_symmetry_equiv_pos_as_xyz
'x, y, z'
_cell_length_a     36.08715
_cell_length_b     38.098422
_cell_length_c     22.072149
_cell_angle_alpha  92.618625
_cell_angle_beta   89.119121
_cell_angle_gamma 118.04185
loop_
_atom_site_label
_atom_site_type_symbol
_atom_site_fract_x
_atom_site_fract_y
_atom_site_fract_z
_atom_type_partial_charge
C0 C 0.46447 0.03919 0.29572 0.0
O1 O 0.4711 0.02231 0.24647 0.0
O2 O 0.56025 0.13505 0.22696 0.0
Zn3 Zn 0.49708 0.10633 0.22024 0.0
O4 O 0.48095 0.06828 0.14756 0.0
C5 C 0.49216 0.17011 0.16587 0.0
O6 O 0.51298 0.1612 0.12396 0.0
O7 O 0.47305 0.07561 0.29558 0.0
C8 C 0.45293 0.06097 0.10779 0.0
O9 O 0.43012 0.07954 0.11174 0.0
C10 C 0.5834 0.13775 0.1815 0.0
O11 O 0.56581 0.11969 0.12967 0.0
O12 O 0.47926 0.1488 0.21196 0.0
C13 C 0.51241 0.56216 0.64426 0.0
O14 O 0.5118 0.54274 0.69226 0.0
O15 O 0.43095 0.57679 0.75154 0.0
Zn16 Zn 0.49261 0.60952 0.73223 0.0
O17 O 0.52469 0.60104 0.79868 0.0
C18 C 0.49555 0.68319 0.77536 0.0
O19 O 0.48486 0.66449 0.82635 0.0
O20 O 0.50517 0.59171 0.6506 0.0
C21 C 0.55669 0.62586 0.82892 0.0
O22 O 0.57581 0.66339 0.81471 0.0
C23 C 0.41969 0.56878 0.80632 0.0
O24 O 0.44853 0.58015 0.84891 0.0
O25 O 0.5033 0.66643 0.72937 0.0
C26 C 0.9485 0.42429 0.37915 0.0
O27 O 0.9659 0.44727 0.33336 0.0
O28 O 0.85368 0.42535 0.30191 0.0
Zn29 Zn 0.8781 0.38762 0.29761 0.0
O30 O 0.91411 0.39753 0.22345 0.0
C31 C 0.81413 0.31277 0.24508 0.0
O32 O 0.83261 0.32763 0.19381 0.0
O33 O 0.91129 0.39605 0.37353 0.0
C34 C 0.93652 0.38051 0.21164 0.0
O35 O 0.93684 0.35502 0.24949 0.0
C36 C 0.83932 0.4323 0.25434 0.0
O37 O 0.84277 0.41612 0.20211 0.0
O38 O 0.82923 0.33253 0.29455 0.0
C39 C 0.38229 0.8877 0.56407 0.0
O40 O 0.36405 0.8486 0.56165 0.0
O41 O 0.41512 0.85221 0.70639 0.0
Zn42 Zn 0.37792 0.87779 0.69347 0.0
O43 O 0.38438 0.91663 0.76276 0.0
C44 C 0.30683 0.81413 0.74079 0.0
O45 O 0.33266 0.82603 0.7875 0.0
O46 O 0.3911 0.90628 0.61542 0.0
C47 C 0.40602 0.91975 0.80949 0.0
O48 O 0.42478 0.89752 0.81221 0.0
C49 C 0.44253 0.85126 0.67044 0.0
O50 O 0.4501 0.86964 0.61925 0.0
O51 O 0.31871 0.8332 0.69242 0.0
C52 C 0.58075 0.52378 0.12346 0.0
O53 O 0.61804 0.54366 0.14891 0.0
O54 O 0.62936 0.47696 0.20197 0.0
Zn55 Zn 0.56934 0.4658 0.21195 0.0
O56 O 0.5592 0.48483 0.29454 0.0
C57 C 0.5048 0.38179 0.23085 0.0
O58 O 0.4889 0.39537 0.2741 0.0
O59 O 0.55454 0.49064 0.14432 0.0
C60 C 0.56292 0.46899 0.34201 0.0
O61 O 0.57376 0.44055 0.33637 0.0
C62 C 0.65947 0.49449 0.23965 0.0
O63 O 0.65349 0.51003 0.29083 0.0
O64 O 0.53607 0.40606 0.20092 0.0
C65 C 0.06349 0.45857 0.90476 0.0
O66 O 0.0885 0.44303 0.89184 0.0
O67 O 0.14973 0.49453 0.79687 0.0
Zn68 Zn 0.10332 0.50936 0.80219 0.0
O69 O 0.07227 0.49223 0.72289 0.0
C70 C 0.12724 0.59319 0.78063 0.0
O71 O 0.09924 0.57925 0.73662 0.0
O72 O 0.06455 0.48578 0.87242 0.0
C73 C 0.09382 0.5029 0.67474 0.0
O74 O 0.13476 0.52489 0.67915 0.0
C75 C 0.17821 0.50747 0.83738 0.0
O76 O 0.17388 0.52626 0.8862 0.0
O77 O 0.1322 0.56912 0.81343 0.0
H78 H 0.45744 0.20115 0.24922 0.0
H79 H 0.52152 0.22391 0.07721 0.0
H80 H 0.52731 0.29025 0.07959 0.0
H81 H 0.52095 0.34415 0.13512 0.0
H82 H 0.45766 0.3225 0.30748 0.0
H83 H 0.4443 0.25327 0.29986 0.0
C84 C 0.47213 0.2204 0.21183 0.0
C85 C 0.48956 0.2077 0.16356 0.0
C86 C 0.47577 0.25885 0.21369 0.0
C87 C 0.50816 0.23295 0.11525 0.0
C88 C 0.5116 0.27101 0.11658 0.0
C89 C 0.50378 0.32418 0.17074 0.0
C90 C 0.49084 0.33861 0.22217 0.0
C91 C 0.4966 0.28464 0.16634 0.0
C92 C 0.4681 0.3122 0.26747 0.0
C93 C 0.46063 0.27264 0.26328 0.0
H94 H 0.35126 0.53292 0.73173 0.0
H95 H 0.38776 0.56664 0.91943 0.0
H96 H 0.31512 0.54671 0.94679 0.0
H97 H 0.24255 0.52615 0.91599 0.0
H98 H 0.20561 0.49162 0.72863 0.0
H99 H 0.27683 0.50477 0.70293 0.0
C100 C 0.34322 0.53548 0.7787 0.0
C101 C 0.37497 0.5518 0.82324 0.0
C102 C 0.30129 0.52393 0.79426 0.0
C103 C 0.36399 0.5544 0.88408 0.0
C104 C 0.32243 0.54311 0.89985 0.0
C105 C 0.24993 0.52093 0.86971 0.0
C106 C 0.21897 0.50847 0.82425 0.0
C107 C 0.29102 0.52879 0.85509 0.0
C108 C 0.22888 0.50135 0.76458 0.0
C109 C 0.2697 0.50909 0.7497 0.0
H110 H 0.63009 0.17621 0.28191 0.0
H111 H 0.63944 0.16032 0.08836 0.0
H112 H 0.71298 0.21097 0.09173 0.0
H113 H 0.77275 0.26376 0.14817 0.0
H114 H 0.76314 0.27981 0.34166 0.0
H115 H 0.69179 0.22485 0.33969 0.0
C116 C 0.64831 0.18353 0.24053 0.0
C117 C 0.62911 0.16484 0.1849 0.0
C118 C 0.69053 0.21287 0.24266 0.0
C119 C 0.65332 0.17438 0.13181 0.0
C120 C 0.6954 0.20344 0.13362 0.0
C121 C 0.75524 0.25497 0.19003 0.0
C122 C 0.77313 0.27624 0.2448 0.0
C123 C 0.71404 0.22351 0.18858 0.0
C124 C 0.7501 0.26416 0.29873 0.0
C125 C 0.7092 0.23277 0.29767 0.0
H126 H 0.44234 0.81843 0.77714 0.0
H127 H 0.48634 0.82664 0.59277 0.0
H128 H 0.51048 0.77786 0.61072 0.0
H129 H 0.51286 0.72822 0.67588 0.0
H130 H 0.4685 0.72021 0.86014 0.0
H131 H 0.45126 0.77386 0.84519 0.0
C132 C 0.45759 0.80986 0.74101 0.0
C133 C 0.46199 0.82576 0.68346 0.0
C134 C 0.47119 0.78167 0.75152 0.0
C135 C 0.48236 0.81474 0.63743 0.0
C136 C 0.49606 0.78672 0.64759 0.0
C137 C 0.49996 0.73857 0.71305 0.0
C138 C 0.4915 0.71979 0.7688 0.0
C139 C 0.48971 0.76928 0.70403 0.0
C140 C 0.47513 0.73387 0.81661 0.0
C141 C 0.46509 0.76451 0.80807 0.0
H142 H 0.71826 0.50404 0.32367 0.0
H143 H 0.68706 0.47601 0.1335 0.0
H144 H 0.74365 0.45852 0.11991 0.0
H145 H 0.79618 0.44368 0.16425 0.0
H146 H 0.82528 0.46853 0.35542 0.0
H147 H 0.77569 0.49515 0.36616 0.0
C148 C 0.72438 0.49488 0.27902 0.0
C149 C 0.6982 0.49093 0.22984 0.0
C150 C 0.75631 0.48385 0.2718 0.0
C151 C 0.7065 0.47893 0.17227 0.0
C152 C 0.7388 0.46882 0.16445 0.0
C153 C 0.79216 0.45543 0.20813 0.0
C154 C 0.814 0.4536 0.25906 0.0
C155 C 0.76299 0.46994 0.21427 0.0
C156 C 0.80857 0.46921 0.3155 0.0
C157 C 0.78015 0.4844 0.32175 0.0
H158 H 0.27771 0.76375 0.83312 0.0
H159 H 0.24656 0.77978 0.65194 0.0
H160 H 0.18501 0.71401 0.65098 0.0
H161 H 0.1441 0.64958 0.69798 0.0
H162 H 0.17808 0.63296 0.87709 0.0
H163 H 0.23424 0.70153 0.88262 0.0
C164 C 0.25724 0.75313 0.79361 0.0
C165 C 0.26697 0.77652 0.74247 0.0
C166 C 0.2225 0.71505 0.79289 0.0
C167 C 0.23995 0.76228 0.6918 0.0
C168 C 0.20478 0.72463 0.69117 0.0
C169 C 0.16334 0.66118 0.73862 0.0
C170 C 0.15709 0.63614 0.78688 0.0
C171 C 0.19631 0.7004 0.74093 0.0
C172 C 0.18243 0.65155 0.83912 0.0
C173 C 0.21461 0.69073 0.84231 0.0
H174 H 0.45171 0.93465 0.91256 0.0
H175 H 0.36851 0.96769 0.82123 0.0
H176 H 0.37484 0.01376 0.90605 0.0
H177 H 0.40466 0.04513 0.00599 0.0
H178 H 0.48854 0.01203 0.09555 0.0
H179 H 0.48109 0.96548 0.0116 0.0
C180 C 0.4349 0.95187 0.9111 0.0
C181 C 0.40973 0.94773 0.8606 0.0
C182 C 0.43875 0.97832 0.95979 0.0
C183 C 0.3882 0.97034 0.85954 0.0
C184 C 0.39175 -0.00332 0.90805 0.0
C185 C 0.42116 0.02762 0.0072 0.0
C186 C 0.44711 0.03213 0.057 0.0
C187 C 0.41701 0.00096 0.95841 0.0
C188 C 0.46843 0.0093 0.05774 0.0
C189 C 0.46421 0.98261 0.00974 0.0
H190 H 0.54367 0.52893 0.37004 0.0
H191 H 0.56411 0.43831 0.45085 0.0
H192 H 0.55037 0.4591 0.55114 0.0
H193 H 0.53226 0.50274 0.61605 0.0
H194 H 0.51225 0.59369 0.53549 0.0
H195 H 0.52614 0.573 0.43515 0.0
C196 C 0.54513 0.51371 0.40957 0.0
C197 C 0.55488 0.48207 0.40279 0.0
C198 C 0.53726 0.52586 0.46726 0.0
C199 C 0.55671 0.46277 0.45461 0.0
C200 C 0.54883 0.47462 0.51208 0.0
C201 C 0.53092 0.51807 0.57659 0.0
C202 C 0.52115 0.54969 0.58343 0.0
C203 C 0.53902 0.50609 0.51894 0.0
C204 C 0.51968 0.56924 0.53168 0.0
C205 C 0.52761 0.55743 0.47419 0.0
H206 H 0.05807 0.40642 0.98953 0.0
H207 H 0.00624 0.48293 0.94018 0.0
H208 H 0.96219 0.46498 0.02999 0.0
H209 H 0.93945 0.42901 0.12348 0.0
H210 H 0.99102 0.35265 0.17429 0.0
H211 H 0.03404 0.36912 0.08288 0.0
C212 C 0.037 0.41902 -0.00174 0.0
C213 C 0.0356 0.44606 0.95814 0.0
C214 C 0.01179 0.40874 0.05034 0.0
C215 C 0.00811 0.46213 0.97026 0.0
C216 C 0.98287 0.45191 0.02169 0.0
C217 C 0.96005 0.41589 0.11466 0.0
C218 C 0.96209 0.38974 0.15584 0.0
C219 C 0.98468 0.4255 0.06221 0.0
C220 C 0.98886 0.37292 0.14342 0.0
C221 C 0.01349 0.38233 0.09115 0.0
H222 H 0.43391 0.95962 0.30581 0.0
H223 H 0.45903 0.06731 0.40991 0.0
H224 H 0.4352 0.02974 0.50191 0.0
H225 H 0.40894 0.96669 0.55311 0.0
H226 H 0.38263 0.85883 0.44865 0.0
H227 H 0.40518 0.89619 0.35633 0.0
C228 C 0.43413 0.97491 0.34858 0.0
C229 C 0.44847 0.01626 0.35101 0.0
C230 C 0.42023 0.95312 0.40122 0.0
C231 C 0.44819 0.03551 0.40675 0.0
C232 C 0.43464 0.01407 0.45941 0.0
C233 C 0.40807 0.95132 0.51014 0.0
C234 C 0.39432 0.91006 0.50784 0.0
C235 C 0.42087 0.97293 0.45723 0.0
C236 C 0.39305 0.89056 0.45171 0.0
C237 C 0.40601 0.91191 0.3989 0.0
H238 H 0.512 0.55619 0.88352 0.0
H239 H 0.62805 0.66621 0.89864 0.0
H240 H 0.64576 0.64452 0.99175 0.0
H241 H 0.6277 0.59418 0.06905 0.0
H242 H 0.5101 0.48547 0.0537 0.0
H243 H 0.49348 0.50711 0.96057 0.0
C244 C 0.54134 0.57547 0.90684 0.0
C245 C 0.56879 0.61271 0.8839 0.0
C246 C 0.55088 0.56315 0.96057 0.0
C247 C 0.60642 0.63736 0.91524 0.0
C248 C 0.6165 0.625 0.96851 0.0
C249 C 0.59839 0.57528 0.04541 0.0
C250 C 0.57024 0.5382 0.06842 0.0
C251 C 0.58885 0.58797 0.99172 0.0
C252 C 0.53235 0.51415 0.03724 0.0
C253 C 0.52282 0.52643 0.9838 0.0
H254 H 0.01397 0.44678 0.64846 0.0
H255 H 0.12743 0.53392 0.56612 0.0
H256 H 0.09279 0.51665 0.46698 0.0
H257 H 0.02978 0.47786 0.40415 0.0
H258 H 0.91684 0.38976 0.48652 0.0
H259 H 0.95194 0.40622 0.58507 0.0
C260 C 0.03111 0.462 0.60882 0.0
C261 C 0.07309 0.49173 0.61467 0.0
C262 C 0.01115 0.45172 0.55194 0.0
C263 C 0.09505 0.5109 0.56282 0.0
C264 C 0.07527 0.50108 0.50612 0.0
C265 C 0.01289 0.46216 0.44361 0.0
C266 C 0.97071 0.4328 0.43798 0.0
C267 C 0.03327 0.47168 0.50021 0.0
C268 C 0.94935 0.41253 0.48952 0.0
C269 C 0.96934 0.42197 0.54599 0.0
loop_
_geom_bond_atom_site_label_1
_geom_bond_atom_site_label_2
_geom_bond_distance
_geom_bond_site_symmetry_2
_ccdc_geom_bond_type
C0 O1 1.160 . S
C0 O7 1.185 . S
O1 C0 1.160 . S
O2 Zn3 1.899 . S
O2 C10 1.284 . S
Zn3 O2 1.899 . S
Zn3 O4 2.032 . S
Zn3 O7 2.086 . S
Zn3 O12 1.977 . S
O4 Zn3 2.032 . S
O4 C8 1.278 . S
C5 O6 1.203 . S
C5 O12 1.267 . S
O6 C5 1.203 . S
O7 C0 1.185 . S
O7 Zn3 2.086 . S
C8 O4 1.278 . S
C8 O9 1.211 . S
O9 C8 1.211 . S
C10 O2 1.284 . S
C10 O11 1.273 . S
O11 C10 1.273 . S
O12 Zn3 1.977 . S
O12 C5 1.267 . S
C13 O14 1.160 . S
C13 O20 1.185 . S
O14 C13 1.160 . S
O15 Zn16 1.899 . S
O15 C23 1.284 . S
Zn16 O15 1.899 . S
Zn16 O17 2.032 . S
Zn16 O20 2.086 . S
Zn16 O25 1.977 . S
O17 Zn16 2.032 . S
O17 C21 1.278 . S
C18 O19 1.203 . S
C18 O25 1.267 . S
O19 C18 1.203 . S
O20 C13 1.185 . S
O20 Zn16 2.086 . S
C21 O17 1.278 . S
C21 O22 1.211 . S
O22 C21 1.211 . S
C23 O15 1.284 . S
C23 O24 1.273 . S
O24 C23 1.273 . S
O25 Zn16 1.977 . S
O25 C18 1.267 . S
C26 O27 1.160 . S
C26 O33 1.185 . S
O27 C26 1.160 . S
O28 Zn29 1.899 . S
O28 C36 1.284 . S
Zn29 O28 1.899 . S
Zn29 O30 2.032 . S
Zn29 O33 2.086 . S
Zn29 O38 1.977 . S
O30 Zn29 2.032 . S
O30 C34 1.278 . S
C31 O32 1.203 . S
C31 O38 1.267 . S
O32 C31 1.203 . S
O33 C26 1.185 . S
O33 Zn29 2.086 . S
C34 O30 1.278 . S
C34 O35 1.211 . S
O35 C34 1.211 . S
C36 O28 1.284 . S
C36 O37 1.273 . S
O37 C36 1.273 . S
O38 Zn29 1.977 . S
O38 C31 1.267 . S
C39 O40 1.160 . S
C39 O46 1.185 . S
O40 C39 1.160 . S
O41 Zn42 1.899 . S
O41 C49 1.284 . S
Zn42 O41 1.899 . S
Zn42 O43 2.032 . S
Zn42 O46 2.086 . S
Zn42 O51 1.977 . S
O43 Zn42 2.032 . S
O43 C47 1.278 . S
C44 O45 1.203 . S
C44 O51 1.267 . S
O45 C44 1.203 . S
O46 C39 1.185 . S
O46 Zn42 2.086 . S
C47 O43 1.278 . S
C47 O48 1.211 . S
O48 C47 1.211 . S
C49 O41 1.284 . S
C49 O50 1.273 . S
O50 C49 1.273 . S
O51 Zn42 1.977 . S
O51 C44 1.267 . S
C52 O53 1.160 . S
C52 O59 1.185 . S
O53 C52 1.160 . S
O54 Zn55 1.899 . S
O54 C62 1.284 . S
Zn55 O54 1.899 . S
Zn55 O56 2.032 . S
Zn55 O59 2.086 . S
Zn55 O64 1.977 . S
O56 Zn55 2.032 . S
O56 C60 1.278 . S
C57 O58 1.203 . S
C57 O64 1.267 . S
O58 C57 1.203 . S
O59 C52 1.185 . S
O59 Zn55 2.086 . S
C60 O56 1.278 . S
C60 O61 1.211 . S
O61 C60 1.211 . S
C62 O54 1.284 . S
C62 O63 1.273 . S
O63 C62 1.273 . S
O64 Zn55 1.977 . S
O64 C57 1.267 . S
C65 O66 1.160 . S
C65 O72 1.185 . S
O66 C65 1.160 . S
O67 Zn68 1.899 . S
O67 C75 1.284 . S
Zn68 O67 1.899 . S
Zn68 O69 2.032 . S
Zn68 O72 2.086 . S
Zn68 O77 1.977 . S
O69 Zn68 2.032 . S
O69 C73 1.278 . S
C70 O71 1.203 . S
C70 O77 1.267 . S
O71 C70 1.203 . S
O72 C65 1.185 . S
O72 Zn68 2.086 . S
C73 O69 1.278 . S
C73 O74 1.211 . S
O74 C73 1.211 . S
C75 O67 1.284 . S
C75 O76 1.273 . S
O76 C75 1.273 . S
O77 Zn68 1.977 . S
O77 C70 1.267 . S
H78 C84 0.930 . S
H79 C87 0.930 . S
H80 C88 0.930 . S
H81 C89 0.930 . S
H82 C92 0.930 . S
H83 C93 0.930 . S
C84 H78 0.930 . S
C84 C85 1.355 . S
C84 C86 1.415 . S
C85 C84 1.355 . S
C85 C87 1.419 . S
C86 C84 1.415 . S
C86 C91 1.425 . S
C86 C93 1.409 . S
C87 H79 0.930 . S
C87 C85 1.419 . S
C87 C88 1.362 . S
C88 H80 0.930 . S
C88 C87 1.362 . S
C88 C91 1.409 . S
C89 H81 0.930 . S
C89 C90 1.355 . S
C89 C91 1.415 . S
C90 C89 1.355 . S
C90 C92 1.419 . S
C91 C86 1.425 . S
C91 C88 1.409 . S
C91 C89 1.415 . S
C92 H82 0.930 . S
C92 C90 1.419 . S
C92 C93 1.362 . S
C93 H83 0.930 . S
C93 C86 1.409 . S
C93 C92 1.362 . S
H94 C100 0.930 . S
H95 C103 0.930 . S
H96 C104 0.930 . S
H97 C105 0.930 . S
H98 C108 0.930 . S
H99 C109 0.930 . S
C100 H94 0.930 . S
C100 C101 1.355 . S
C100 C102 1.415 . S
C101 C100 1.355 . S
C101 C103 1.419 . S
C102 C100 1.415 . S
C102 C107 1.425 . S
C102 C109 1.409 . S
C103 H95 0.930 . S
C103 C101 1.419 . S
C103 C104 1.362 . S
C104 H96 0.930 . S
C104 C103 1.362 . S
C104 C107 1.409 . S
C105 H97 0.930 . S
C105 C106 1.355 . S
C105 C107 1.415 . S
C106 C105 1.355 . S
C106 C108 1.419 . S
C107 C102 1.425 . S
C107 C104 1.409 . S
C107 C105 1.415 . S
C108 H98 0.930 . S
C108 C106 1.419 . S
C108 C109 1.362 . S
C109 H99 0.930 . S
C109 C102 1.409 . S
C109 C108 1.362 . S
H110 C116 0.930 . S
H111 C119 0.930 . S
H112 C120 0.930 . S
H113 C121 0.930 . S
H114 C124 0.930 . S
H115 C125 0.930 . S
C116 H110 0.930 . S
C116 C117 1.355 . S
C116 C118 1.415 . S
C117 C116 1.355 . S
C117 C119 1.419 . S
C118 C116 1.415 . S
C118 C123 1.425 . S
C118 C125 1.409 . S
C119 H111 0.930 . S
C119 C117 1.419 . S
C119 C120 1.362 . S
C120 H112 0.930 . S
C120 C119 1.362 . S
C120 C123 1.409 . S
C121 H113 0.930 . S
C121 C122 1.355 . S
C121 C123 1.415 . S
C122 C121 1.355 . S
C122 C124 1.419 . S
C123 C118 1.425 . S
C123 C120 1.409 . S
C123 C121 1.415 . S
C124 H114 0.930 . S
C124 C122 1.419 . S
C124 C125 1.362 . S
C125 H115 0.930 . S
C125 C118 1.409 . S
C125 C124 1.362 . S
H126 C132 0.930 . S
H127 C135 0.930 . S
H128 C136 0.930 . S
H129 C137 0.930 . S
H130 C140 0.930 . S
H131 C141 0.930 . S
C132 H126 0.930 . S
C132 C133 1.355 . S
C132 C134 1.415 . S
C133 C132 1.355 . S
C133 C135 1.419 . S
C134 C132 1.415 . S
C134 C139 1.425 . S
C134 C141 1.409 . S
C135 H127 0.930 . S
C135 C133 1.419 . S
C135 C136 1.362 . S
C136 H128 0.930 . S
C136 C135 1.362 . S
C136 C139 1.409 . S
C137 H129 0.930 . S
C137 C138 1.355 . S
C137 C139 1.415 . S
C138 C137 1.355 . S
C138 C140 1.419 . S
C139 C134 1.425 . S
C139 C136 1.409 . S
C139 C137 1.415 . S
C140 H130 0.930 . S
C140 C138 1.419 . S
C140 C141 1.362 . S
C141 H131 0.930 . S
C141 C134 1.409 . S
C141 C140 1.362 . S
H142 C148 0.930 . S
H143 C151 0.930 . S
H144 C152 0.930 . S
H145 C153 0.930 . S
H146 C156 0.930 . S
H147 C157 0.930 . S
C148 H142 0.930 . S
C148 C149 1.355 . S
C148 C150 1.415 . S
C149 C148 1.355 . S
C149 C151 1.419 . S
C150 C148 1.415 . S
C150 C155 1.425 . S
C150 C157 1.409 . S
C151 H143 0.930 . S
C151 C149 1.419 . S
C151 C152 1.362 . S
C152 H144 0.930 . S
C152 C151 1.362 . S
C152 C155 1.409 . S
C153 H145 0.930 . S
C153 C154 1.355 . S
C153 C155 1.415 . S
C154 C153 1.355 . S
C154 C156 1.419 . S
C155 C150 1.425 . S
C155 C152 1.409 . S
C155 C153 1.415 . S
C156 H146 0.930 . S
C156 C154 1.419 . S
C156 C157 1.362 . S
C157 H147 0.930 . S
C157 C150 1.409 . S
C157 C156 1.362 . S
H158 C164 0.930 . S
H159 C167 0.930 . S
H160 C168 0.930 . S
H161 C169 0.930 . S
H162 C172 0.930 . S
H163 C173 0.930 . S
C164 H158 0.930 . S
C164 C165 1.355 . S
C164 C166 1.415 . S
C165 C164 1.355 . S
C165 C167 1.419 . S
C166 C164 1.415 . S
C166 C171 1.425 . S
C166 C173 1.409 . S
C167 H159 0.930 . S
C167 C165 1.419 . S
C167 C168 1.362 . S
C168 H160 0.930 . S
C168 C167 1.362 . S
C168 C171 1.409 . S
C169 H161 0.930 . S
C169 C170 1.355 . S
C169 C171 1.415 . S
C170 C169 1.355 . S
C170 C172 1.419 . S
C171 C166 1.425 . S
C171 C168 1.409 . S
C171 C169 1.415 . S
C172 H162 0.930 . S
C172 C170 1.419 . S
C172 C173 1.362 . S
C173 H163 0.930 . S
C173 C166 1.409 . S
C173 C172 1.362 . S
H174 C180 0.930 . S
H175 C183 0.930 . S
H176 C184 0.930 . S
H177 C185 0.930 . S
H178 C188 0.930 . S
H179 C189 0.930 . S
C180 H174 0.930 . S
C180 C181 1.355 . S
C180 C182 1.418 . S
C181 C180 1.355 . S
C181 C183 1.419 . S
C182 C180 1.418 . S
C182 C187 1.425 1_566 S
C182 C189 1.406 1_556 S
C183 H175 0.930 . S
C183 C181 1.419 . S
C183 C184 1.362 1_565 S
C184 H176 0.930 . S
C184 C183 1.362 1_545 S
C184 C187 1.406 1_556 S
C185 H177 0.930 . S
C185 C186 1.355 . S
C185 C187 1.418 . S
C186 C185 1.355 . S
C186 C188 1.419 . S
C187 C182 1.425 1_544 S
C187 C184 1.406 1_554 S
C187 C185 1.418 . S
C188 H178 0.930 . S
C188 C186 1.419 . S
C188 C189 1.362 1_545 S
C189 H179 0.930 . S
C189 C182 1.406 1_554 S
C189 C188 1.362 1_565 S
H190 C196 0.930 . S
H191 C199 0.930 . S
H192 C200 0.930 . S
H193 C201 0.930 . S
H194 C204 0.930 . S
H195 C205 0.930 . S
C196 H190 0.930 . S
C196 C197 1.355 . S
C196 C198 1.415 . S
C197 C196 1.355 . S
C197 C199 1.419 . S
C198 C196 1.415 . S
C198 C203 1.425 . S
C198 C205 1.409 . S
C199 H191 0.930 . S
C199 C197 1.419 . S
C199 C200 1.362 . S
C200 H192 0.930 . S
C200 C199 1.362 . S
C200 C203 1.409 . S
C201 H193 0.930 . S
C201 C202 1.355 . S
C201 C203 1.415 . S
C202 C201 1.355 . S
C202 C204 1.419 . S
C203 C198 1.425 . S
C203 C200 1.409 . S
C203 C201 1.415 . S
C204 H194 0.930 . S
C204 C202 1.419 . S
C204 C205 1.362 . S
C205 H195 0.930 . S
C205 C198 1.409 . S
C205 C204 1.362 . S
H206 C212 0.930 1_655 S
H207 C215 0.930 . S
H208 C216 0.930 . S
H209 C217 0.930 . S
H210 C220 0.930 . S
H211 C221 0.930 1_556 S
C212 H206 0.930 1_455 S
C212 C213 1.355 . S
C212 C214 1.420 1_455 S
C213 C212 1.355 . S
C213 C215 1.419 . S
C214 C212 1.420 1_655 S
C214 C219 1.421 1_656 S
C214 C221 1.408 1_556 S
C215 H207 0.930 . S
C215 C213 1.419 . S
C215 C216 1.362 1_556 S
C216 H208 0.930 . S
C216 C215 1.362 1_554 S
C216 C219 1.409 . S
C217 H209 0.930 . S
C217 C218 1.355 . S
C217 C219 1.415 1_655 S
C218 C217 1.355 . S
C218 C220 1.419 . S
C219 C214 1.421 1_454 S
C219 C216 1.409 . S
C219 C217 1.415 1_455 S
C220 H210 0.930 . S
C220 C218 1.419 . S
C220 C221 1.362 . S
C221 H211 0.930 1_554 S
C221 C214 1.408 1_554 S
C221 C220 1.362 . S
H222 C228 0.930 1_565 S
H223 C231 0.930 . S
H224 C232 0.930 . S
H225 C233 0.930 1_545 S
H226 C236 0.930 . S
H227 C237 0.930 . S
C228 H222 0.930 1_545 S
C228 C229 1.355 . S
C228 C230 1.415 1_545 S
C229 C228 1.355 . S
C229 C231 1.419 . S
C230 C228 1.415 1_565 S
C230 C235 1.425 1_565 S
C230 C237 1.409 . S
C231 H223 0.930 . S
C231 C229 1.419 . S
C231 C232 1.362 . S
C232 H224 0.930 . S
C232 C231 1.362 . S
C232 C235 1.409 . S
C233 H225 0.930 1_565 S
C233 C234 1.355 . S
C233 C235 1.415 1_565 S
C234 C233 1.355 . S
C234 C236 1.419 . S
C235 C230 1.425 1_545 S
C235 C232 1.409 . S
C235 C233 1.415 1_545 S
C236 H226 0.930 . S
C236 C234 1.419 . S
C236 C237 1.362 . S
C237 H227 0.930 . S
C237 C230 1.409 . S
C237 C236 1.362 . S
H238 C244 0.930 . S
H239 C247 0.930 . S
H240 C248 0.930 . S
H241 C249 0.930 . S
H242 C252 0.930 . S
H243 C253 0.930 . S
C244 H238 0.930 . S
C244 C245 1.355 . S
C244 C246 1.415 . S
C245 C244 1.355 . S
C245 C247 1.419 . S
C246 C244 1.415 . S
C246 C251 1.425 . S
C246 C253 1.409 . S
C247 H239 0.930 . S
C247 C245 1.419 . S
C247 C248 1.362 . S
C248 H240 0.930 . S
C248 C247 1.362 . S
C248 C251 1.409 . S
C249 H241 0.930 . S
C249 C250 1.355 . S
C249 C251 1.415 1_554 S
C250 C249 1.355 . S
C250 C252 1.419 . S
C251 C246 1.425 . S
C251 C248 1.409 . S
C251 C249 1.415 1_556 S
C252 H242 0.930 . S
C252 C250 1.419 . S
C252 C253 1.362 1_554 S
C253 H243 0.930 . S
C253 C246 1.409 . S
C253 C252 1.362 1_556 S
H254 C260 0.930 . S
H255 C263 0.930 . S
H256 C264 0.930 . S
H257 C265 0.930 . S
H258 C268 0.930 . S
H259 C269 0.930 . S
C260 H254 0.930 . S
C260 C261 1.355 . S
C260 C262 1.415 1_455 S
C261 C260 1.355 . S
C261 C263 1.419 . S
C262 C260 1.415 1_655 S
C262 C267 1.425 1_655 S
C262 C269 1.409 . S
C263 H255 0.930 . S
C263 C261 1.419 . S
C263 C264 1.362 . S
C264 H256 0.930 . S
C264 C263 1.362 . S
C264 C267 1.409 . S
C265 H257 0.930 . S
C265 C266 1.355 . S
C265 C267 1.415 1_655 S
C266 C265 1.355 . S
C266 C268 1.419 . S
C267 C262 1.425 1_455 S
C267 C264 1.409 . S
C267 C265 1.415 1_455 S
C268 H258 0.930 . S
C268 C266 1.419 . S
C268 C269 1.362 . S
C269 H259 0.930 . S
C269 C262 1.409 . S
C269 C268 1.362 . S
C85 C5 1.021 . S
C90 C57 0.968 . S
C101 C23 1.073 . S
C106 C75 1.034 . S
C117 C10 1.044 . S
C122 C31 1.060 . S
C133 C49 1.109 . S
C138 C18 0.975 . S
C149 C62 1.090 . S
C154 C36 1.109 . S
C165 C44 1.064 . S
C170 C70 0.958 . S
C181 C47 1.302 . S
C186 C8 1.341 . S
C197 C60 1.325 . S
C202 C13 1.329 . S
C213 C65 1.346 . S
C218 C34 1.328 . S
C229 C0 1.366 . S
C234 C39 1.320 . S
C245 C21 1.332 . S
C250 C52 1.353 . S
C261 C73 1.321 . S
C266 C26 1.342 . S
