# Generated by pormake.
# Topology ukp, (4)-cn, num edge types: 1
# Building blocks:
#     Node 0, Type 0, BuildingBlock: NAWXER_clean_sbu_0, # of connection points: 4
#     Node 1, Type 0, BuildingBlock: NAWXER_clean_sbu_0, # of connection points: 4
#     Node 2, Type 0, BuildingBlock: NAWXER_clean_sbu_0, # of connection points: 4
#     Node 3, Type 0, BuildingBlock: NAWXER_clean_sbu_0, # of connection points: 4
#     Node 4, Type 0, BuildingBlock: NAWXER_clean_sbu_0, # of connection points: 4
#     Node 5, Type 0, BuildingBlock: NAWXER_clean_sbu_0, # of connection points: 4
#     Node 6, Type 0, BuildingBlock: NAWXER_clean_sbu_0, # of connection points: 4
#     Node 7, Type 0, BuildingBlock: NAWXER_clean_sbu_0, # of connection points: 4
#     Node 8, Type 0, BuildingBlock: NAWXER_clean_sbu_0, # of connection points: 4
#     Node 9, Type 0, BuildingBlock: NAWXER_clean_sbu_0, # of connection points: 4
#     Node 10, Type 0, BuildingBlock: NAWXER_clean_sbu_0, # of connection points: 4
#     Node 11, Type 0, BuildingBlock: NAWXER_clean_sbu_0, # of connection points: 4
#     Node 12, Type 0, BuildingBlock: NAWXER_clean_sbu_0, # of connection points: 4
#     Node 13, Type 0, BuildingBlock: NAWXER_clean_sbu_0, # of connection points: 4
#     Node 14, Type 0, BuildingBlock: NAWXER_clean_sbu_0, # of connection points: 4
#     Node 15, Type 0, BuildingBlock: NAWXER_clean_sbu_0, # of connection points: 4
#     Node 16, Type 0, BuildingBlock: NAWXER_clean_sbu_0, # of connection points: 4
#     Node 17, Type 0, BuildingBlock: NAWXER_clean_sbu_0, # of connection points: 4
#     Node 18, Type 0, BuildingBlock: NAWXER_clean_sbu_0, # of connection points: 4
#     Node 19, Type 0, BuildingBlock: NAWXER_clean_sbu_0, # of connection points: 4
#     Node 20, Type 0, BuildingBlock: NAWXER_clean_sbu_0, # of connection points: 4
#     Node 21, Type 0, BuildingBlock: NAWXER_clean_sbu_0, # of connection points: 4
#     Node 22, Type 0, BuildingBlock: NAWXER_clean_sbu_0, # of connection points: 4
#     Node 23, Type 0, BuildingBlock: NAWXER_clean_sbu_0, # of connection points: 4
#     Node 24, Type 0, BuildingBlock: NAWXER_clean_sbu_0, # of connection points: 4
#     Node 25, Type 0, BuildingBlock: NAWXER_clean_sbu_0, # of connection points: 4
#     Node 26, Type 0, BuildingBlock: NAWXER_clean_sbu_0, # of connection points: 4
#     Node 27, Type 0, BuildingBlock: NAWXER_clean_sbu_0, # of connection points: 4
#     Node 28, Type 0, BuildingBlock: NAWXER_clean_sbu_0, # of connection points: 4
#     Node 29, Type 0, BuildingBlock: NAWXER_clean_sbu_0, # of connection points: 4
#     Node 30, Type 0, BuildingBlock: NAWXER_clean_sbu_0, # of connection points: 4
#     Node 31, Type 0, BuildingBlock: NAWXER_clean_sbu_0, # of connection points: 4
#     Node 32, Type 0, BuildingBlock: NAWXER_clean_sbu_0, # of connection points: 4
#     Node 33, Type 0, BuildingBlock: NAWXER_clean_sbu_0, # of connection points: 4
#     Node 34, Type 0, BuildingBlock: NAWXER_clean_sbu_0, # of connection points: 4
#     Node 35, Type 0, BuildingBlock: NAWXER_clean_sbu_0, # of connection points: 4
#     Node 36, Type 0, BuildingBlock: NAWXER_clean_sbu_0, # of connection points: 4
#     Node 37, Type 0, BuildingBlock: NAWXER_clean_sbu_0, # of connection points: 4
#     Node 38, Type 0, BuildingBlock: NAWXER_clean_sbu_0, # of connection points: 4
#     Node 39, Type 0, BuildingBlock: NAWXER_clean_sbu_0, # of connection points: 4
#     Node 40, Type 0, BuildingBlock: NAWXER_clean_sbu_0, # of connection points: 4
#     Node 41, Type 0, BuildingBlock: NAWXER_clean_sbu_0, # of connection points: 4
#     Node 42, Type 0, BuildingBlock: NAWXER_clean_sbu_0, # of connection points: 4
#     Node 43, Type 0, BuildingBlock: NAWXER_clean_sbu_0, # of connection points: 4
#     Node 44, Type 0, BuildingBlock: NAWXER_clean_sbu_0, # of connection points: 4
#     Node 45, Type 0, BuildingBlock: NAWXER_clean_sbu_0, # of connection points: 4
#     Node 46, Type 0, BuildingBlock: NAWXER_clean_sbu_0, # of connection points: 4
#     Node 47, Type 0, BuildingBlock: NAWXER_clean_sbu_0, # of connection points: 4
#     Edge 48, Type (0, 0), BuildingBlock: UVAHIK_clean_linker_0, # of connection points: 2
#     Edge 49, Type (0, 0), BuildingBlock: UVAHIK_clean_linker_0, # of connection points: 2
#     Edge 50, Type (0, 0), BuildingBlock: UVAHIK_clean_linker_0, # of connection points: 2
#     Edge 51, Type (0, 0), BuildingBlock: UVAHIK_clean_linker_0, # of connection points: 2
#     Edge 52, Type (0, 0), BuildingBlock: UVAHIK_clean_linker_0, # of connection points: 2
#     Edge 53, Type (0, 0), BuildingBlock: UVAHIK_clean_linker_0, # of connection points: 2
#     Edge 54, Type (0, 0), BuildingBlock: UVAHIK_clean_linker_0, # of connection points: 2
#     Edge 55, Type (0, 0), BuildingBlock: UVAHIK_clean_linker_0, # of connection points: 2
#     Edge 56, Type (0, 0), BuildingBlock: UVAHIK_clean_linker_0, # of connection points: 2
#     Edge 57, Type (0, 0), BuildingBlock: UVAHIK_clean_linker_0, # of connection points: 2
#     Edge 58, Type (0, 0), BuildingBlock: UVAHIK_clean_linker_0, # of connection points: 2
#     Edge 59, Type (0, 0), BuildingBlock: UVAHIK_clean_linker_0, # of connection points: 2
#     Edge 60, Type (0, 0), BuildingBlock: UVAHIK_clean_linker_0, # of connection points: 2
#     Edge 61, Type (0, 0), BuildingBlock: UVAHIK_clean_linker_0, # of connection points: 2
#     Edge 62, Type (0, 0), BuildingBlock: UVAHIK_clean_linker_0, # of connection points: 2
#     Edge 63, Type (0, 0), BuildingBlock: UVAHIK_clean_linker_0, # of connection points: 2
#     Edge 64, Type (0, 0), BuildingBlock: UVAHIK_clean_linker_0, # of connection points: 2
#     Edge 65, Type (0, 0), BuildingBlock: UVAHIK_clean_linker_0, # of connection points: 2
#     Edge 66, Type (0, 0), BuildingBlock: UVAHIK_clean_linker_0, # of connection points: 2
#     Edge 67, Type (0, 0), BuildingBlock: UVAHIK_clean_linker_0, # of connection points: 2
#     Edge 68, Type (0, 0), BuildingBlock: UVAHIK_clean_linker_0, # of connection points: 2
#     Edge 69, Type (0, 0), BuildingBlock: UVAHIK_clean_linker_0, # of connection points: 2
#     Edge 70, Type (0, 0), BuildingBlock: UVAHIK_clean_linker_0, # of connection points: 2
#     Edge 71, Type (0, 0), BuildingBlock: UVAHIK_clean_linker_0, # of connection points: 2
#     Edge 72, Type (0, 0), BuildingBlock: UVAHIK_clean_linker_0, # of connection points: 2
#     Edge 73, Type (0, 0), BuildingBlock: UVAHIK_clean_linker_0, # of connection points: 2
#     Edge 74, Type (0, 0), BuildingBlock: UVAHIK_clean_linker_0, # of connection points: 2
#     Edge 75, Type (0, 0), BuildingBlock: UVAHIK_clean_linker_0, # of connection points: 2
#     Edge 76, Type (0, 0), BuildingBlock: UVAHIK_clean_linker_0, # of connection points: 2
#     Edge 77, Type (0, 0), BuildingBlock: UVAHIK_clean_linker_0, # of connection points: 2
#     Edge 78, Type (0, 0), BuildingBlock: UVAHIK_clean_linker_0, # of connection points: 2
#     Edge 79, Type (0, 0), BuildingBlock: UVAHIK_clean_linker_0, # of connection points: 2
#     Edge 80, Type (0, 0), BuildingBlock: UVAHIK_clean_linker_0, # of connection points: 2
#     Edge 81, Type (0, 0), BuildingBlock: UVAHIK_clean_linker_0, # of connection points: 2
#     Edge 82, Type (0, 0), BuildingBlock: UVAHIK_clean_linker_0, # of connection points: 2
#     Edge 83, Type (0, 0), BuildingBlock: UVAHIK_clean_linker_0, # of connection points: 2
#     Edge 84, Type (0, 0), BuildingBlock: UVAHIK_clean_linker_0, # of connection points: 2
#     Edge 85, Type (0, 0), BuildingBlock: UVAHIK_clean_linker_0, # of connection points: 2
#     Edge 86, Type (0, 0), BuildingBlock: UVAHIK_clean_linker_0, # of connection points: 2
#     Edge 87, Type (0, 0), BuildingBlock: UVAHIK_clean_linker_0, # of connection points: 2
#     Edge 88, Type (0, 0), BuildingBlock: UVAHIK_clean_linker_0, # of connection points: 2
#     Edge 89, Type (0, 0), BuildingBlock: UVAHIK_clean_linker_0, # of connection points: 2
#     Edge 90, Type (0, 0), BuildingBlock: UVAHIK_clean_linker_0, # of connection points: 2
#     Edge 91, Type (0, 0), BuildingBlock: UVAHIK_clean_linker_0, # of connection points: 2
#     Edge 92, Type (0, 0), BuildingBlock: UVAHIK_clean_linker_0, # of connection points: 2
#     Edge 93, Type (0, 0), BuildingBlock: UVAHIK_clean_linker_0, # of connection points: 2
#     Edge 94, Type (0, 0), BuildingBlock: UVAHIK_clean_linker_0, # of connection points: 2
#     Edge 95, Type (0, 0), BuildingBlock: UVAHIK_clean_linker_0, # of connection points: 2
#     Edge 96, Type (0, 0), BuildingBlock: UVAHIK_clean_linker_0, # of connection points: 2
#     Edge 97, Type (0, 0), BuildingBlock: UVAHIK_clean_linker_0, # of connection points: 2
#     Edge 98, Type (0, 0), BuildingBlock: UVAHIK_clean_linker_0, # of connection points: 2
#     Edge 99, Type (0, 0), BuildingBlock: UVAHIK_clean_linker_0, # of connection points: 2
#     Edge 100, Type (0, 0), BuildingBlock: UVAHIK_clean_linker_0, # of connection points: 2
#     Edge 101, Type (0, 0), BuildingBlock: UVAHIK_clean_linker_0, # of connection points: 2
#     Edge 102, Type (0, 0), BuildingBlock: UVAHIK_clean_linker_0, # of connection points: 2
#     Edge 103, Type (0, 0), BuildingBlock: UVAHIK_clean_linker_0, # of connection points: 2
#     Edge 104, Type (0, 0), BuildingBlock: UVAHIK_clean_linker_0, # of connection points: 2
#     Edge 105, Type (0, 0), BuildingBlock: UVAHIK_clean_linker_0, # of connection points: 2
#     Edge 106, Type (0, 0), BuildingBlock: UVAHIK_clean_linker_0, # of connection points: 2
#     Edge 107, Type (0, 0), BuildingBlock: UVAHIK_clean_linker_0, # of connection points: 2
#     Edge 108, Type (0, 0), BuildingBlock: UVAHIK_clean_linker_0, # of connection points: 2
#     Edge 109, Type (0, 0), BuildingBlock: UVAHIK_clean_linker_0, # of connection points: 2
#     Edge 110, Type (0, 0), BuildingBlock: UVAHIK_clean_linker_0, # of connection points: 2
#     Edge 111, Type (0, 0), BuildingBlock: UVAHIK_clean_linker_0, # of connection points: 2
#     Edge 112, Type (0, 0), BuildingBlock: UVAHIK_clean_linker_0, # of connection points: 2
#     Edge 113, Type (0, 0), BuildingBlock: UVAHIK_clean_linker_0, # of connection points: 2
#     Edge 114, Type (0, 0), BuildingBlock: UVAHIK_clean_linker_0, # of connection points: 2
#     Edge 115, Type (0, 0), BuildingBlock: UVAHIK_clean_linker_0, # of connection points: 2
#     Edge 116, Type (0, 0), BuildingBlock: UVAHIK_clean_linker_0, # of connection points: 2
#     Edge 117, Type (0, 0), BuildingBlock: UVAHIK_clean_linker_0, # of connection points: 2
#     Edge 118, Type (0, 0), BuildingBlock: UVAHIK_clean_linker_0, # of connection points: 2
#     Edge 119, Type (0, 0), BuildingBlock: UVAHIK_clean_linker_0, # of connection points: 2
#     Edge 120, Type (0, 0), BuildingBlock: UVAHIK_clean_linker_0, # of connection points: 2
#     Edge 121, Type (0, 0), BuildingBlock: UVAHIK_clean_linker_0, # of connection points: 2
#     Edge 122, Type (0, 0), BuildingBlock: UVAHIK_clean_linker_0, # of connection points: 2
#     Edge 123, Type (0, 0), BuildingBlock: UVAHIK_clean_linker_0, # of connection points: 2
#     Edge 124, Type (0, 0), BuildingBlock: UVAHIK_clean_linker_0, # of connection points: 2
#     Edge 125, Type (0, 0), BuildingBlock: UVAHIK_clean_linker_0, # of connection points: 2
#     Edge 126, Type (0, 0), BuildingBlock: UVAHIK_clean_linker_0, # of connection points: 2
#     Edge 127, Type (0, 0), BuildingBlock: UVAHIK_clean_linker_0, # of connection points: 2
#     Edge 128, Type (0, 0), BuildingBlock: UVAHIK_clean_linker_0, # of connection points: 2
#     Edge 129, Type (0, 0), BuildingBlock: UVAHIK_clean_linker_0, # of connection points: 2
#     Edge 130, Type (0, 0), BuildingBlock: UVAHIK_clean_linker_0, # of connection points: 2
#     Edge 131, Type (0, 0), BuildingBlock: UVAHIK_clean_linker_0, # of connection points: 2
#     Edge 132, Type (0, 0), BuildingBlock: UVAHIK_clean_linker_0, # of connection points: 2
#     Edge 133, Type (0, 0), BuildingBlock: UVAHIK_clean_linker_0, # of connection points: 2
#     Edge 134, Type (0, 0), BuildingBlock: UVAHIK_clean_linker_0, # of connection points: 2
#     Edge 135, Type (0, 0), BuildingBlock: UVAHIK_clean_linker_0, # of connection points: 2
#     Edge 136, Type (0, 0), BuildingBlock: UVAHIK_clean_linker_0, # of connection points: 2
#     Edge 137, Type (0, 0), BuildingBlock: UVAHIK_clean_linker_0, # of connection points: 2
#     Edge 138, Type (0, 0), BuildingBlock: UVAHIK_clean_linker_0, # of connection points: 2
#     Edge 139, Type (0, 0), BuildingBlock: UVAHIK_clean_linker_0, # of connection points: 2
#     Edge 140, Type (0, 0), BuildingBlock: UVAHIK_clean_linker_0, # of connection points: 2
#     Edge 141, Type (0, 0), BuildingBlock: UVAHIK_clean_linker_0, # of connection points: 2
#     Edge 142, Type (0, 0), BuildingBlock: UVAHIK_clean_linker_0, # of connection points: 2
#     Edge 143, Type (0, 0), BuildingBlock: UVAHIK_clean_linker_0, # of connection points: 2
# Relax obj value: 0.179
# Max RMSD: 0.216
# Mean RMSD: 0.216
data_MOF--net-ukp--node1-NAWXER_clean_sbu_0--edge1-UVAHIK_clean_linker_0
_symmetry_space_group_name_H-M    P1
_symmetry_Int_Tables_number       1
_symmetry_cell_setting            triclinic
loop_
_symmetry_equiv_pos_as_xyz
'x, y, z'
_cell_length_a     79.275278
_cell_length_b     79.273679
_cell_length_c     79.328378
_cell_angle_alpha  89.97827
_cell_angle_beta   90.001167
_cell_angle_gamma 90.001442
loop_
_atom_site_label
_atom_site_type_symbol
_atom_site_fract_x
_atom_site_fract_y
_atom_site_fract_z
_atom_type_partial_charge
C0 C 0.21502 0.3184 0.37461 0.0
C1 C 0.18385 0.28064 0.4137 0.0
O2 O 0.21663 0.31892 0.39061 0.0
Zn3 Zn 0.20014 0.30062 0.39544 0.0
O4 O 0.20478 0.30799 0.36789 0.0
Zn5 Zn 0.18745 0.28882 0.37399 0.0
O6 O 0.16678 0.29977 0.36554 0.0
O7 O 0.17747 0.31257 0.38784 0.0
O8 O 0.18046 0.27865 0.398 0.0
O9 O 0.19457 0.29182 0.41799 0.0
O10 O 0.21343 0.28035 0.38424 0.0
O11 O 0.19934 0.27013 0.36254 0.0
C12 C 0.16611 0.31157 0.37643 0.0
C13 C 0.21247 0.27006 0.37185 0.0
C14 C 1.01014 0.93465 0.66236 0.0
C15 C 0.97208 0.96638 0.6241 0.0
O16 O 0.99966 0.94603 0.6667 0.0
Zn17 Zn 0.99004 0.95114 0.64443 0.0
O18 O 1.01119 0.93051 0.64674 0.0
Zn19 Zn 0.99991 0.93705 0.62306 0.0
O20 O 0.01822 0.94737 0.60989 0.0
O21 O 1.01039 0.96297 0.63157 0.0
O22 O 0.98146 0.95526 0.61724 0.0
O23 O 0.97251 0.96854 0.64004 0.0
O24 O 0.97634 0.9289 0.63833 0.0
O25 O 0.98758 0.91673 0.61596 0.0
C26 C 0.01967 0.96085 0.61855 0.0
C27 C 0.97621 0.9171 0.62732 0.0
C28 C 0.32821 0.76837 0.86723 0.0
C29 C 0.36978 0.72313 0.87747 0.0
O30 O 0.34205 0.76656 0.85926 0.0
Zn31 Zn 0.35098 0.74752 0.87256 0.0
O32 O 0.32502 0.75894 0.8799 0.0
Zn33 Zn 0.33527 0.73804 0.89294 0.0
O34 O 0.33927 0.74723 0.91556 0.0
O35 O 0.35708 0.75769 0.8969 0.0
O36 O 0.3574 0.72354 0.88786 0.0
O37 O 0.37113 0.73459 0.86628 0.0
O38 O 0.33251 0.72975 0.86545 0.0
O39 O 0.31737 0.72144 0.88732 0.0
C40 C 0.35179 0.75673 0.91217 0.0
C41 C 0.32057 0.72088 0.87156 0.0
C42 C 0.51606 0.07328 0.1195 0.0
C43 C 0.55993 0.11682 0.12726 0.0
O44 O 0.51726 0.08684 0.11093 0.0
Zn45 Zn 0.53616 0.0969 0.12346 0.0
O46 O 0.52582 0.07095 0.13213 0.0
Zn47 Zn 0.54665 0.08255 0.14438 0.0
O48 O 0.53772 0.0874 0.16698 0.0
O49 O 0.52588 0.10344 0.14759 0.0
O50 O 0.5601 0.10491 0.13816 0.0
O51 O 0.54835 0.11724 0.11613 0.0
O52 O 0.55426 0.07861 0.11684 0.0
O53 O 0.56408 0.06524 0.13922 0.0
C54 C 0.52736 0.09907 0.1631 0.0
C55 C 0.56387 0.06744 0.12328 0.0
C56 C 0.21637 0.72124 0.16188 0.0
C57 C 0.18468 0.75832 0.12269 0.0
O58 O 0.21884 0.72163 0.14599 0.0
Zn59 Zn 0.20123 0.73881 0.14114 0.0
O60 O 0.205 0.73049 0.16848 0.0
Zn61 Zn 0.18666 0.74867 0.16217 0.0
O62 O 0.16642 0.73618 0.16913 0.0
O63 O 0.17904 0.72488 0.14704 0.0
O64 O 0.18018 0.75945 0.1382 0.0
O65 O 0.19644 0.74812 0.11871 0.0
O66 O 0.21253 0.75944 0.15387 0.0
O67 O 0.19652 0.76732 0.17523 0.0
C68 C 0.16708 0.72472 0.15789 0.0
C69 C 0.21008 0.76886 0.16672 0.0
C70 C 0.51471 0.9595 0.41361 0.0
C71 C 0.55935 0.9162 0.40849 0.0
O72 O 0.51547 0.94615 0.42259 0.0
Zn73 Zn 0.53511 0.9359 0.41116 0.0
O74 O 0.52511 0.96148 0.40144 0.0
Zn75 Zn 0.5466 0.95007 0.39036 0.0
O76 O 0.53849 0.94473 0.36745 0.0
O77 O 0.5258 0.92928 0.38678 0.0
O78 O 0.55987 0.928 0.39749 0.0
O79 O 0.54732 0.91577 0.41914 0.0
O80 O 0.55241 0.95459 0.41825 0.0
O81 O 0.56336 0.96791 0.3964 0.0
C82 C 0.52782 0.9333 0.37124 0.0
C83 C 0.56212 0.96595 0.41233 0.0
C84 C 0.36869 0.31174 0.65963 0.0
C85 C 0.32722 0.26652 0.67015 0.0
O86 O 0.36993 0.30048 0.67104 0.0
Zn87 Zn 0.34999 0.2873 0.66466 0.0
O88 O 0.35652 0.31106 0.64902 0.0
Zn89 Zn 0.33457 0.2963 0.64388 0.0
O90 O 0.31652 0.31295 0.64886 0.0
O91 O 0.3313 0.3051 0.67114 0.0
O92 O 0.32419 0.27567 0.65724 0.0
O93 O 0.34095 0.26854 0.67827 0.0
O94 O 0.35649 0.27657 0.64066 0.0
O95 O 0.33891 0.28658 0.62155 0.0
C96 C 0.31943 0.31381 0.66466 0.0
C97 C 0.35137 0.27716 0.62531 0.0
C98 C 1.00864 0.10243 0.87483 0.0
C99 C 0.97048 0.07101 0.91317 0.0
O100 O 0.99828 0.09091 0.87058 0.0
Zn101 Zn 0.98853 0.08609 0.89283 0.0
O102 O 1.00952 0.10683 0.89039 0.0
Zn103 Zn 0.99805 0.10059 0.91407 0.0
O104 O 1.01629 0.09061 0.92761 0.0
O105 O 1.00887 0.07466 0.90603 0.0
O106 O 0.97962 0.08235 0.91998 0.0
O107 O 0.97122 0.06853 0.89729 0.0
O108 O 0.97458 0.10833 0.89846 0.0
O109 O 0.98556 0.12096 0.9207 0.0
C110 C 1.01798 0.07706 0.91912 0.0
C111 C 0.97429 0.12032 0.90927 0.0
C112 C 0.36802 0.20983 0.26812 0.0
C113 C 0.37791 0.16468 0.30988 0.0
O114 O 0.35966 0.19613 0.26911 0.0
Zn115 Zn 0.37304 0.18529 0.28707 0.0
O116 O 0.38093 0.21196 0.27753 0.0
Zn117 Zn 0.39401 0.19985 0.29732 0.0
O118 O 0.41644 0.19564 0.28769 0.0
O119 O 0.39706 0.17943 0.27606 0.0
O120 O 0.38856 0.17684 0.31009 0.0
O121 O 0.36646 0.1643 0.29859 0.0
O122 O 0.36688 0.20195 0.30681 0.0
O123 O 0.38908 0.21631 0.3156 0.0
C124 C 0.41254 0.18406 0.27726 0.0
C125 C 0.37337 0.21294 0.31659 0.0
C126 C 0.06951 0.12391 0.56486 0.0
C127 C 0.10089 0.16344 0.52781 0.0
O128 O 0.0672 0.13984 0.56481 0.0
Zn129 Zn 0.08453 0.14485 0.54737 0.0
O130 O 0.0807 0.11738 0.55534 0.0
Zn131 Zn 0.09887 0.12385 0.53707 0.0
O132 O 0.11927 0.11668 0.54921 0.0
O133 O 0.10687 0.13871 0.56089 0.0
O134 O 0.10522 0.1479 0.52643 0.0
O135 O 0.08937 0.16742 0.53829 0.0
O136 O 0.07286 0.1323 0.52674 0.0
O137 O 0.08877 0.11101 0.51843 0.0
C138 C 0.1188 0.12783 0.56077 0.0
C139 C 0.07518 0.11952 0.51718 0.0
C140 C 0.17151 0.827 0.76753 0.0
C141 C 0.16103 0.86972 0.81152 0.0
O142 O 0.17981 0.84066 0.76933 0.0
Zn143 Zn 0.16612 0.85027 0.78764 0.0
O144 O 0.15842 0.82436 0.77659 0.0
Zn145 Zn 0.14505 0.8354 0.79698 0.0
O146 O 0.12272 0.84001 0.78728 0.0
O147 O 0.14232 0.85634 0.77624 0.0
O148 O 0.15037 0.85759 0.81113 0.0
O149 O 0.17249 0.87059 0.80029 0.0
O150 O 0.17228 0.83195 0.80589 0.0
O151 O 0.14978 0.8177 0.81408 0.0
C152 C 0.12682 0.85173 0.77707 0.0
C153 C 0.16563 0.8204 0.81488 0.0
C154 C 0.46615 0.91045 0.06488 0.0
C155 C 0.43551 0.86943 0.02886 0.0
O156 O 0.46806 0.89449 0.06594 0.0
Zn157 Zn 0.45162 0.88873 0.04789 0.0
O158 O 0.45563 0.91661 0.05438 0.0
Zn159 Zn 0.43813 0.90946 0.03572 0.0
O160 O 0.41742 0.9177 0.04671 0.0
O161 O 0.42878 0.89589 0.05983 0.0
O162 O 0.43139 0.88492 0.02657 0.0
O163 O 0.44687 0.86584 0.03965 0.0
O164 O 0.46432 0.89974 0.02718 0.0
O165 O 0.44941 0.92064 1.01647 0.0
C166 C 0.4171 0.90699 0.0587 0.0
C167 C 0.46282 0.91174 1.01651 0.0
C168 C 0.41252 0.85046 0.25544 0.0
C169 C 0.37339 0.81883 0.21826 0.0
O170 O 0.41662 0.83892 0.24503 0.0
Zn171 Zn 0.39413 0.83396 0.23583 0.0
O172 O 0.39695 0.85473 0.25669 0.0
Zn173 Zn 0.37301 0.84831 0.2459 0.0
O174 O 0.36004 0.83823 0.26448 0.0
O175 O 0.38148 0.82237 0.25643 0.0
O176 O 0.36676 0.83007 0.22764 0.0
O177 O 0.38932 0.81651 0.21849 0.0
O178 O 0.38805 0.85623 0.22214 0.0
O179 O 0.36593 0.86867 0.2336 0.0
C180 C 0.36861 0.82468 0.26589 0.0
C181 C 0.37716 0.86816 0.22212 0.0
C182 C 0.45759 0.11524 0.51976 0.0
C183 C 0.41335 0.12782 0.47774 0.0
O184 O 0.44348 0.10761 0.51864 0.0
Zn185 Zn 0.43342 0.12167 0.50068 0.0
O186 O 0.46047 0.12805 0.51045 0.0
Zn187 Zn 0.44927 0.14191 0.49078 0.0
O188 O 0.44632 0.16439 0.50079 0.0
O189 O 0.4285 0.14594 0.51162 0.0
O190 O 0.42604 0.13784 0.47776 0.0
O191 O 0.41227 0.11627 0.48889 0.0
O192 O 0.44984 0.11481 0.48099 0.0
O193 O 0.4656 0.13619 0.47256 0.0
C194 C 0.43414 0.1611 0.51075 0.0
C195 C 0.46128 0.12072 0.47136 0.0
C196 C 0.12532 0.18435 0.75946 0.0
C197 C 0.16415 0.21567 0.72169 0.0
O198 O 0.12121 0.19598 0.74916 0.0
Zn199 Zn 0.14356 0.20065 0.73954 0.0
O200 O 0.14085 0.17981 0.76039 0.0
Zn201 Zn 0.16466 0.18592 0.74906 0.0
O202 O 0.17822 0.19568 0.76739 0.0
O203 O 0.15677 0.21183 0.75997 0.0
O204 O 0.17081 0.2042 0.73076 0.0
O205 O 0.14828 0.21831 0.7224 0.0
O206 O 0.14907 0.17845 0.7255 0.0
O207 O 0.17119 0.16559 0.73651 0.0
C208 C 0.16981 0.20929 0.7691 0.0
C209 C 0.1598 0.16638 0.7252 0.0
C210 C 0.11846 0.90944 0.97568 0.0
C211 C 0.07561 0.91869 0.01984 0.0
O212 O 0.11924 0.92066 0.98716 0.0
Zn213 Zn 0.09891 0.91389 0.99959 0.0
O214 O 0.10635 0.89874 0.97578 0.0
Zn215 Zn 0.08407 0.89308 0.98969 0.0
O216 O 0.06651 0.89819 0.97258 0.0
O217 O 0.08061 0.92052 0.98146 0.0
O218 O 0.07295 0.90589 1.01039 0.0
O219 O 0.08929 0.92701 0.0183 0.0
O220 O 0.10514 0.88976 1.01023 0.0
O221 O 0.08859 0.87054 0.99885 0.0
C222 C 0.06914 0.91407 0.97223 0.0
C223 C 0.10044 0.87431 1.00902 0.0
C224 C 0.26674 0.3691 0.21161 0.0
C225 C 0.31199 0.37776 0.1697 0.0
O226 O 0.26843 0.36073 0.19798 0.0
Zn227 Zn 0.28759 0.37356 0.18867 0.0
O228 O 0.27633 0.38174 0.21443 0.0
Zn229 Zn 0.29733 0.39433 0.20374 0.0
O230 O 0.28821 0.41689 0.19913 0.0
O231 O 0.27758 0.39779 0.18191 0.0
O232 O 0.31166 0.38854 0.18172 0.0
O233 O 0.3005 0.36656 0.16874 0.0
O234 O 0.3052 0.36681 0.20738 0.0
O235 O 0.31414 0.38905 0.22158 0.0
C236 C 0.27864 0.41319 0.18677 0.0
C237 C 0.3143 0.37316 0.21901 0.0
C238 C 0.81809 0.16038 0.81938 0.0
C239 C 0.78087 0.12056 0.85021 0.0
O240 O 0.81892 0.14438 0.8178 0.0
Zn241 Zn 0.80045 0.13929 0.83399 0.0
O242 O 0.80745 0.16693 0.82951 0.0
Zn243 Zn 0.78825 0.16044 0.8467 0.0
O244 O 0.79891 0.16907 0.86742 0.0
O245 O 0.8121 0.14694 0.85681 0.0
O246 O 0.77859 0.13619 0.85377 0.0
O247 O 0.79198 0.11658 0.8393 0.0
O248 O 0.78015 0.1503 0.82053 0.0
O249 O 0.76944 0.17164 0.83479 0.0
C250 C 0.81085 0.15831 0.86818 0.0
C251 C 0.76966 0.16252 0.82154 0.0
C252 C 0.11982 0.51416 0.07711 0.0
C253 C 0.12848 0.55951 0.11885 0.0
O254 O 0.11166 0.51571 0.09087 0.0
Zn255 Zn 0.12428 0.53512 0.09987 0.0
O256 O 0.1322 0.52401 0.07402 0.0
Zn257 Zn 0.14459 0.54526 0.08446 0.0
O258 O 0.16739 0.53654 0.08859 0.0
O259 O 0.1488 0.52547 0.10611 0.0
O260 O 0.13903 0.55938 0.10662 0.0
O261 O 0.11745 0.54787 0.11997 0.0
O262 O 0.11684 0.55257 0.08124 0.0
O263 O 0.13868 0.56205 0.06678 0.0
C264 C 0.16409 0.52682 0.10096 0.0
C265 C 0.12282 0.56183 0.06954 0.0
C266 C 0.76926 0.86585 0.32939 0.0
C267 C 0.72434 0.87613 0.37123 0.0
O268 O 0.76735 0.85765 0.34309 0.0
Zn269 Zn 0.74862 0.87116 0.35224 0.0
O270 O 0.76001 0.87873 0.32644 0.0
Zn271 Zn 0.73924 0.89188 0.33694 0.0
O272 O 0.74859 0.91437 0.34131 0.0
O273 O 0.7595 0.89523 0.35828 0.0
O274 O 0.72479 0.88665 0.35898 0.0
O275 O 0.73572 0.86484 0.37242 0.0
O276 O 0.73073 0.86449 0.33372 0.0
O277 O 0.72252 0.88671 0.31904 0.0
C278 C 0.75856 0.91063 0.35335 0.0
C279 C 0.72186 0.87089 0.32194 0.0
C280 C 0.91772 0.02103 0.07613 0.0
C281 C 0.90913 0.97746 0.11971 0.0
O282 O 0.92619 0.01974 0.08973 0.0
Zn283 Zn 0.91322 1.00114 0.0998 0.0
O284 O 0.90492 1.0115 0.07376 0.0
Zn285 Zn 0.89228 0.99093 0.08537 0.0
O286 O 0.86977 1.00009 0.09003 0.0
O287 O 0.88915 1.01181 0.10615 0.0
O288 O 0.89827 0.97736 0.10776 0.0
O289 O 0.92031 0.989 0.12019 0.0
O290 O 0.91968 0.98274 0.08173 0.0
O291 O 0.89722 0.9735 0.06808 0.0
C292 C 0.87365 1.01047 0.10166 0.0
C293 C 0.91313 0.97326 0.07052 0.0
C294 C 0.2715 0.67068 0.70778 0.0
C295 C 0.2255 0.65768 0.66794 0.0
O296 O 0.26882 0.67845 0.69396 0.0
Zn297 Zn 0.25019 0.66409 0.68579 0.0
O298 O 0.26285 0.65757 0.71137 0.0
Zn299 Zn 0.24234 0.64341 0.70205 0.0
O300 O 0.25249 0.62125 0.698 0.0
O301 O 0.26135 0.64016 0.67958 0.0
O302 O 0.22693 0.6475 0.68041 0.0
O303 O 0.23622 0.66951 0.66604 0.0
O304 O 0.23279 0.67049 0.70487 0.0
O305 O 0.22616 0.64836 0.72047 0.0
C306 C 0.26134 0.62493 0.6851 0.0
C307 C 0.22469 0.66405 0.71718 0.0
C308 C 0.16107 0.50933 0.43416 0.0
C309 C 0.12187 0.47183 0.46535 0.0
O310 O 0.16497 0.49921 0.44601 0.0
Zn311 Zn 0.14256 0.48967 0.45051 0.0
O312 O 0.14561 0.51031 0.42944 0.0
Zn313 Zn 0.12165 0.49926 0.43562 0.0
O314 O 0.10815 0.51771 0.44531 0.0
O315 O 0.12936 0.51012 0.46166 0.0
O316 O 0.11529 0.48094 0.45385 0.0
O317 O 0.13772 0.4725 0.46808 0.0
O318 O 0.13712 0.4756 0.42827 0.0
O319 O 0.11512 0.4867 0.41528 0.0
C320 C 0.11639 0.51933 0.45902 0.0
C321 C 0.12646 0.47533 0.41614 0.0
C322 C 0.41161 0.51836 0.9642 0.0
C323 C 0.40805 0.55922 0.91723 0.0
O324 O 0.42091 0.51804 0.95108 0.0
Zn325 Zn 0.40988 0.53675 0.93888 0.0
O326 O 0.39938 0.52887 0.96497 0.0
Zn327 Zn 0.38854 0.54906 0.95121 0.0
O328 O 0.36592 0.54055 0.94565 0.0
O329 O 0.38575 0.52702 0.93162 0.0
O330 O 0.39652 0.56054 0.92843 0.0
O331 O 0.41879 0.5473 0.91821 0.0
O332 O 0.41612 0.55607 0.95602 0.0
O333 O 0.39342 0.56768 0.96729 0.0
C334 C 0.37007 0.52932 0.93493 0.0
C335 C 0.40944 0.56679 0.96596 0.0
C336 C 0.66594 0.81337 0.87465 0.0
C337 C 0.70929 0.76959 0.86591 0.0
O338 O 0.66548 0.80199 0.86332 0.0
Zn339 Zn 0.68566 0.78952 0.87047 0.0
O340 O 0.67772 0.81314 0.8857 0.0
Zn341 Zn 0.6998 0.79914 0.89189 0.0
O342 O 0.71747 0.81639 0.88766 0.0
O343 O 0.70401 0.80792 0.86479 0.0
O344 O 0.71147 0.77876 0.879 0.0
O345 O 0.69586 0.77121 0.85722 0.0
O346 O 0.6789 0.77826 0.89413 0.0
O347 O 0.69455 0.78958 0.91412 0.0
C348 C 0.71525 0.81707 0.87173 0.0
C349 C 0.68303 0.77926 0.90975 0.0
C350 C 0.5088 0.43686 0.16414 0.0
C351 C 0.46832 0.4649 0.12551 0.0
O352 O 0.49803 0.44808 0.16819 0.0
Zn353 Zn 0.48813 0.4522 0.14587 0.0
O354 O 0.51005 0.43241 0.14863 0.0
Zn355 Zn 0.49869 0.43818 0.12478 0.0
O356 O 0.51625 0.44956 0.11137 0.0
O357 O 0.5075 0.46508 0.13272 0.0
O358 O 0.47841 0.4543 0.11885 0.0
O359 O 0.4693 0.46814 0.14124 0.0
O360 O 0.47588 0.42887 0.14027 0.0
O361 O 0.48781 0.41697 0.11807 0.0
C362 C 0.51689 0.46326 0.11975 0.0
C363 C 0.47646 0.41687 0.12947 0.0
C364 C 0.82812 0.27023 0.36687 0.0
C365 C 0.86921 0.22466 0.37741 0.0
O366 O 0.84196 0.26827 0.35893 0.0
Zn367 Zn 0.85061 0.24917 0.37231 0.0
O368 O 0.82479 0.26083 0.37953 0.0
Zn369 Zn 0.83478 0.23985 0.39266 0.0
O370 O 0.83868 0.24914 0.41522 0.0
O371 O 0.85661 0.2595 0.39662 0.0
O372 O 0.85683 0.22521 0.38778 0.0
O373 O 0.87065 0.23603 0.36615 0.0
O374 O 0.83189 0.23167 0.36517 0.0
O375 O 0.81682 0.22332 0.38707 0.0
C376 C 0.85119 0.25864 0.41184 0.0
C377 C 0.81991 0.22286 0.37129 0.0
C378 C 0.02319 0.60063 0.66083 0.0
C379 C 0.0606 0.56969 0.62136 0.0
O380 O 0.03305 0.5885 0.6646 0.0
Zn381 Zn 0.04274 0.58434 0.64224 0.0
O382 O 0.02245 0.60568 0.64546 0.0
Zn383 Zn 0.03364 0.59984 0.62147 0.0
O384 O 1.01517 0.59066 0.60764 0.0
O385 O 0.02229 0.57386 0.62867 0.0
O386 O 0.05171 0.58145 0.61494 0.0
O387 O 0.05977 0.56668 0.63714 0.0
O388 O 0.05695 0.60657 0.63754 0.0
O389 O 0.0466 0.62018 0.61553 0.0
C390 C 1.01323 0.57686 0.61568 0.0
C391 C 0.05759 0.61895 0.62719 0.0
C392 C 0.66705 0.22926 0.6564 0.0
C393 C 0.71374 0.26932 0.66574 0.0
O394 O 0.6672 0.24059 0.66781 0.0
Zn395 Zn 0.68862 0.25113 0.66107 0.0
O396 O 0.67913 0.22844 0.64572 0.0
Zn397 Zn 0.70263 0.24019 0.64008 0.0
O398 O 0.71833 0.22126 0.64509 0.0
O399 O 0.7045 0.23078 0.66731 0.0
O400 O 0.71552 0.25972 0.65291 0.0
O401 O 0.70008 0.26881 0.67419 0.0
O402 O 0.68311 0.26219 0.63702 0.0
O403 O 0.69855 0.24973 0.61756 0.0
C404 C 0.71503 0.22051 0.66082 0.0
C405 C 0.68747 0.26068 0.62151 0.0
C406 C 1.01735 0.46327 0.91496 0.0
C407 C 0.05747 0.41568 0.91158 0.0
O408 O 1.01658 0.45 0.92404 0.0
Zn409 Zn 0.03548 0.43772 0.91341 0.0
O410 O 0.02826 0.46412 0.90311 0.0
Zn411 Zn 0.04857 0.45034 0.89266 0.0
O412 O 0.04069 0.44531 0.8697 0.0
O413 O 0.02647 0.43101 0.88886 0.0
O414 O 0.05933 0.42717 0.90042 0.0
O415 O 0.04536 0.41658 0.92211 0.0
O416 O 0.05491 0.45439 0.92055 0.0
O417 O 0.06729 0.46599 0.89843 0.0
C418 C 0.02928 0.43457 0.87332 0.0
C419 C 0.06598 0.4643 0.91438 0.0
C420 C 0.8211 0.81481 0.1663 0.0
C421 C 0.85235 0.77851 0.12617 0.0
O422 O 0.81801 0.81411 0.15053 0.0
Zn423 Zn 0.83595 0.7975 0.14517 0.0
O424 O 0.83303 0.80602 0.17255 0.0
Zn425 Zn 0.85161 0.78824 0.16564 0.0
O426 O 0.87171 0.80126 0.17184 0.0
O427 O 0.85804 0.81208 0.15011 0.0
O428 O 0.8577 0.77771 0.14143 0.0
O429 O 0.83989 0.78805 0.1227 0.0
O430 O 0.82572 0.77674 0.15845 0.0
O431 O 0.84273 0.76936 0.17919 0.0
C432 C 0.87038 0.8126 0.16053 0.0
C433 C 0.8289 0.76745 0.17122 0.0
C434 C 0.47425 0.56918 0.41229 0.0
C435 C 0.50977 0.60125 0.37201 0.0
O436 O 0.47441 0.56648 0.39643 0.0
Zn437 Zn 0.49108 0.58442 0.39097 0.0
O438 O 0.48324 0.58095 0.41853 0.0
Zn439 Zn 0.50069 0.59976 0.41161 0.0
O440 O 0.48762 0.61971 0.41833 0.0
O441 O 0.47663 0.60642 0.39645 0.0
O442 O 0.51075 0.60629 0.38735 0.0
O443 O 0.50024 0.58882 0.3684 0.0
O444 O 0.51215 0.57405 0.40366 0.0
O445 O 0.51992 0.59073 0.42454 0.0
C446 C 0.47619 0.61857 0.40709 0.0
C447 C 0.52173 0.57706 0.41627 0.0
C448 C 0.91084 0.68598 0.77739 0.0
C449 C 0.87252 0.71858 0.81457 0.0
O450 O 0.91506 0.6979 0.78731 0.0
Zn451 Zn 0.89284 0.70295 0.79698 0.0
O452 O 0.89529 0.68151 0.77666 0.0
Zn453 Zn 0.87157 0.68825 0.78785 0.0
O454 O 0.85808 0.6978 0.76933 0.0
O455 O 0.87968 0.71389 0.7764 0.0
O456 O 0.86569 0.707 0.80576 0.0
O457 O 0.88842 0.72101 0.81376 0.0
O458 O 0.88711 0.68112 0.81156 0.0
O459 O 0.86479 0.66831 0.8009 0.0
C460 C 0.86659 0.71131 0.76734 0.0
C461 C 0.87621 0.6692 0.81216 0.0
C462 C 0.57235 0.62063 1.01481 0.0
C463 C 0.61602 0.62886 0.05838 0.0
O464 O 0.5858 0.6119 1.01621 0.0
Zn465 Zn 0.59603 0.62481 0.03472 0.0
O466 O 0.57019 0.63353 0.02425 0.0
Zn467 Zn 0.58195 0.64611 0.04479 0.0
O468 O 0.58707 0.66851 0.03543 0.0
O469 O 0.6026 0.64863 0.02375 0.0
O470 O 0.60421 0.63989 0.05837 0.0
O471 O 0.61635 0.61758 0.04695 0.0
O472 O 0.57779 0.61876 0.05304 0.0
O473 O 0.56454 0.64146 0.06226 0.0
C474 C 0.59847 0.66425 0.02494 0.0
C475 C 0.56668 0.62551 0.06249 0.0
C476 C 0.6257 0.35401 0.27794 0.0
C477 C 0.66563 0.32293 0.31472 0.0
O478 O 0.62197 0.34224 0.28823 0.0
Zn479 Zn 0.64456 0.33774 0.29728 0.0
O480 O 0.64115 0.35865 0.27658 0.0
Zn481 Zn 0.66534 0.35245 0.28708 0.0
O482 O 0.67829 0.34256 0.26834 0.0
O483 O 0.65717 0.32641 0.2766 0.0
O484 O 0.67205 0.33431 0.30535 0.0
O485 O 0.64975 0.3203 0.31449 0.0
O486 O 0.65038 0.36012 0.31094 0.0
O487 O 0.67222 0.37291 0.2993 0.0
C488 C 0.66989 0.32891 0.26701 0.0
C489 C 0.66108 0.37222 0.31087 0.0
C490 C 0.96663 0.41302 0.56326 0.0
C491 C 0.93519 0.37346 0.52653 0.0
O492 O 0.96967 0.39723 0.56242 0.0
Zn493 Zn 0.9518 0.39216 0.54564 0.0
O494 O 0.9548 0.41943 0.55445 0.0
Zn495 Zn 0.93629 0.41287 0.53653 0.0
O496 O 0.91623 0.41914 0.54954 0.0
O497 O 0.92969 0.39718 0.5602 0.0
O498 O 0.92999 0.38878 0.52587 0.0
O499 O 0.94766 0.36978 0.53596 0.0
O500 O 0.96222 0.40558 0.52506 0.0
O501 O 0.94535 0.42649 0.51781 0.0
C502 C 0.91745 0.40772 0.56079 0.0
C503 C 0.95915 0.41846 0.51588 0.0
C504 C 0.91645 0.34918 0.75796 0.0
C505 C 0.87675 0.31761 0.72138 0.0
O506 O 0.92032 0.33753 0.7476 0.0
Zn507 Zn 0.89772 0.33262 0.73877 0.0
O508 O 0.90092 0.35349 0.75952 0.0
Zn509 Zn 0.87676 0.34681 0.74934 0.0
O510 O 0.86429 0.33658 0.76817 0.0
O511 O 0.88554 0.3208 0.75952 0.0
O512 O 0.87024 0.32868 0.73105 0.0
O513 O 0.8927 0.3154 0.72128 0.0
O514 O 0.89128 0.35501 0.72541 0.0
O515 O 0.86923 0.36715 0.73735 0.0
C516 C 0.8729 0.32304 0.76929 0.0
C517 C 0.88028 0.36683 0.72569 0.0
C518 C 0.91569 0.62992 0.97727 0.0
C519 C 0.96068 0.61936 0.01904 0.0
O520 O 0.91527 0.61847 0.98857 0.0
Zn521 Zn 0.93622 0.62483 1.00007 0.0
O522 O 0.92788 0.64055 0.97707 0.0
Zn523 Zn 0.95102 0.64565 0.99001 0.0
O524 O 0.96744 0.64072 0.9717 0.0
O525 O 0.95281 0.6186 0.98029 0.0
O526 O 0.96301 0.63224 1.00964 0.0
O527 O 0.94682 0.61127 0.01807 0.0
O528 O 0.93033 0.64886 1.01101 0.0
O529 O 0.94728 0.66801 1.00001 0.0
C530 C 0.96388 0.62506 0.97057 0.0
C531 C 0.93535 0.66422 1.01008 0.0
C532 C 0.62474 0.68592 0.25783 0.0
C533 C 0.66517 0.71726 0.2219 0.0
O534 O 0.62138 0.69863 0.24858 0.0
Zn535 Zn 0.64387 0.70241 0.23902 0.0
O536 O 0.63992 0.68032 0.25839 0.0
Zn537 Zn 0.66417 0.68622 0.2478 0.0
O538 O 0.67798 0.69451 0.26676 0.0
O539 O 0.65742 0.71196 0.25989 0.0
O540 O 0.67127 0.70503 0.23037 0.0
O541 O 0.64945 0.72062 0.22278 0.0
O542 O 0.64831 0.68052 0.22398 0.0
O543 O 0.66991 0.66628 0.23434 0.0
C544 C 0.67021 0.7084 0.26902 0.0
C545 C 0.65852 0.66802 0.22313 0.0
C546 C 0.62224 0.41261 0.47398 0.0
C547 C 0.57574 0.41645 0.51537 0.0
O548 O 0.62143 0.42344 0.48583 0.0
Zn549 Zn 0.60079 0.41473 0.49665 0.0
O550 O 0.61096 0.40112 0.47285 0.0
Zn551 Zn 0.5883 0.39325 0.48461 0.0
O552 O 0.57188 0.39815 0.46628 0.0
O553 O 0.58343 0.42087 0.47755 0.0
O554 O 0.57488 0.40417 0.50495 0.0
O555 O 0.58879 0.42587 0.51542 0.0
O556 O 0.60796 0.39066 0.50655 0.0
O557 O 0.59401 0.37065 0.49321 0.0
C558 C 0.57329 0.41418 0.46703 0.0
C559 C 0.6047 0.37495 0.50441 0.0
C560 C 0.81426 0.87363 0.71524 0.0
C561 C 0.77622 0.91123 0.68276 0.0
O562 O 0.81346 0.88956 0.71742 0.0
Zn563 Zn 0.79633 0.89367 0.69957 0.0
O564 O 0.8053 0.8666 0.7039 0.0
Zn565 Zn 0.78713 0.8721 0.68532 0.0
O566 O 0.79997 0.86524 0.66525 0.0
O567 O 0.81062 0.88778 0.67765 0.0
O568 O 0.77551 0.89559 0.67862 0.0
O569 O 0.78646 0.91577 0.69427 0.0
O570 O 0.77594 0.88049 0.71094 0.0
O571 O 0.76888 0.85857 0.69527 0.0
C572 C 0.81116 0.87677 0.66586 0.0
C573 C 0.76696 0.86728 0.70865 0.0
C574 C 0.26656 0.66782 0.32473 0.0
C575 C 0.3109 0.6583 0.36737 0.0
O576 O 0.26825 0.67621 0.33834 0.0
Zn577 Zn 0.28682 0.66289 0.348 0.0
O578 O 0.27582 0.65487 0.32215 0.0
Zn579 Zn 0.29641 0.64184 0.33328 0.0
O580 O 0.28691 0.61946 0.33804 0.0
O581 O 0.27584 0.63898 0.35443 0.0
O582 O 0.31056 0.6475 0.35537 0.0
O583 O 0.29955 0.66966 0.36815 0.0
O584 O 0.30487 0.66916 0.3295 0.0
O585 O 0.31354 0.64662 0.3156 0.0
C586 C 0.2768 0.62347 0.34986 0.0
C587 C 0.31399 0.66253 0.31804 0.0
C588 C 0.61249 1.01753 0.57656 0.0
C589 C 0.6282 0.06218 0.61678 0.0
O590 O 0.60536 0.02022 0.5907 0.0
Zn591 Zn 0.6208 0.03781 0.59883 0.0
O592 O 0.62594 0.02555 0.57276 0.0
Zn593 Zn 0.64143 0.04511 0.58239 0.0
O594 O 0.66331 0.0342 0.58625 0.0
O595 O 0.6441 0.02516 0.60418 0.0
O596 O 0.63807 0.06061 0.60408 0.0
O597 O 0.6163 0.05159 0.61892 0.0
O598 O 0.61483 0.05593 0.58015 0.0
O599 O 0.63694 0.06167 0.56417 0.0
C600 C 0.65933 0.02483 0.59868 0.0
C601 C 0.62141 0.06387 0.56781 0.0
C602 C 0.22126 0.37311 0.81829 0.0
C603 C 0.2576 0.41306 0.84978 0.0
O604 O 0.22227 0.38884 0.81502 0.0
Zn605 Zn 0.23859 0.39415 0.8332 0.0
O606 O 0.22971 0.36685 0.83046 0.0
Zn607 Zn 0.24725 0.37366 0.8493 0.0
O608 O 0.2337 0.36807 0.86939 0.0
O609 O 0.22353 0.38956 0.85489 0.0
O610 O 0.25823 0.39776 0.85509 0.0
O611 O 0.24807 0.41661 0.83735 0.0
O612 O 0.25936 0.38047 0.82353 0.0
O613 O 0.26599 0.35968 0.84082 0.0
C614 C 0.22251 0.37947 0.86747 0.0
C615 C 0.26832 0.36752 0.82697 0.0
C616 C 0.37443 0.50924 0.60003 0.0
C617 C 0.41408 0.47012 0.57161 0.0
O618 O 0.37077 0.49911 0.58811 0.0
Zn619 Zn 0.39323 0.48933 0.58443 0.0
O620 O 0.38978 0.51033 0.60507 0.0
Zn621 Zn 0.41392 0.49959 0.59929 0.0
O622 O 0.42734 0.51773 0.58872 0.0
O623 O 0.40643 0.50915 0.57253 0.0
O624 O 0.42038 0.47988 0.58272 0.0
O625 O 0.39842 0.47111 0.56799 0.0
O626 O 0.39836 0.47645 0.60758 0.0
O627 O 0.4203 0.48813 0.62026 0.0
C628 C 0.41922 0.51867 0.57488 0.0
C629 C 0.40892 0.47676 0.61981 0.0
C630 C 0.72173 0.16558 0.21604 0.0
C631 C 0.75822 0.12554 0.1847 0.0
O632 O 0.72215 0.14973 0.21888 0.0
Zn633 Zn 0.73891 0.14437 0.20103 0.0
O634 O 0.73067 0.17187 0.20425 0.0
Zn635 Zn 0.74837 0.16504 0.18564 0.0
O636 O 0.73541 0.17128 0.16546 0.0
O637 O 0.72453 0.14948 0.17896 0.0
O638 O 0.75916 0.14093 0.17972 0.0
O639 O 0.74825 0.12184 0.19675 0.0
O640 O 0.75977 0.1575 0.21143 0.0
O641 O 0.76721 0.17847 0.19467 0.0
C642 C 0.72407 0.15995 0.16667 0.0
C643 C 0.76909 0.17031 0.20841 0.0
C644 C 0.62053 1.01724 0.96106 0.0
C645 C 0.62827 0.97736 0.91388 0.0
O646 O 0.6121 1.01726 0.94738 0.0
Zn647 Zn 0.62458 0.99926 0.93564 0.0
O648 O 0.63304 1.0072 0.96266 0.0
Zn649 Zn 0.64524 0.98751 0.9494 0.0
O650 O 0.66801 0.99645 0.94535 0.0
O651 O 0.64894 1.00951 0.92989 0.0
O652 O 0.63906 0.97606 0.92583 0.0
O653 O 0.61732 0.98914 0.91424 0.0
O654 O 0.61778 0.9789 0.95131 0.0
O655 O 0.63978 0.96853 0.9649 0.0
C656 C 0.66441 1.0075 0.93424 0.0
C657 C 0.62401 0.9683 0.96166 0.0
C658 C 0.87333 0.02647 0.43632 0.0
C659 C 0.91281 0.06365 0.46755 0.0
O660 O 0.86942 0.03682 0.44797 0.0
Zn661 Zn 0.89192 0.04607 0.45262 0.0
O662 O 0.88883 0.02521 0.43181 0.0
Zn663 Zn 0.91288 0.03593 0.43812 0.0
O664 O 0.92588 1.0173 0.4481 0.0
O665 O 0.90463 0.02548 0.46413 0.0
O666 O 0.91934 0.05419 0.45631 0.0
O667 O 0.89689 0.0635 0.46994 0.0
O668 O 0.89781 0.05972 0.43028 0.0
O669 O 0.91988 0.04822 0.41777 0.0
C670 C 0.91743 1.01597 0.46172 0.0
C671 C 0.90866 0.05971 0.41832 0.0
C672 C 0.10463 0.19349 0.51735 0.0
C673 C 0.10948 0.1764 0.51713 0.0
C674 C 0.11273 0.20537 0.50692 0.0
C675 C 0.13896 0.20792 0.46793 0.0
H676 H 0.14822 0.25361 0.48264 0.0
C677 C 0.16272 0.25823 0.42113 0.0
C678 C 0.17518 0.26972 0.42641 0.0
C679 C 0.15466 0.24756 0.43266 0.0
C680 C 0.14585 0.24086 0.47836 0.0
H681 H 0.12702 0.15863 0.50591 0.0
H682 H 0.14111 0.17915 0.48812 0.0
H683 H 0.1345 0.23377 0.50191 0.0
H684 H 0.1887 0.27905 0.44824 0.0
H685 H 0.17475 0.26023 0.46843 0.0
H686 H 0.15055 0.21476 0.44458 0.0
C687 C 0.13084 0.18342 0.49604 0.0
C688 C 0.13778 0.22952 0.48937 0.0
C689 C 0.12277 0.17161 0.50638 0.0
C690 C 0.17919 0.27038 0.44369 0.0
C691 C 0.1711 0.25963 0.45529 0.0
C692 C 0.14698 0.21921 0.45698 0.0
C693 C 0.12588 0.20047 0.49599 0.0
C694 C 0.13425 0.21284 0.48432 0.0
C695 C 0.15882 0.24793 0.4499 0.0
C696 C 0.15052 0.23589 0.46196 0.0
H697 H 0.09446 0.19767 0.52545 0.0
H698 H 0.10843 0.21834 0.50718 0.0
H699 H 0.1363 0.1953 0.46342 0.0
H700 H 0.15912 0.2574 0.40798 0.0
H701 H 0.14505 0.23905 0.428 0.0
C702 C 0.09691 0.85548 0.76626 0.0
C703 C 0.11404 0.8602 0.76608 0.0
C704 C 0.08516 0.86354 0.75566 0.0
C705 C 0.08288 0.88928 0.71635 0.0
H706 H 0.03745 0.89957 0.73122 0.0
C707 C 0.03242 0.91331 0.66968 0.0
C708 C 0.02125 0.92606 0.67495 0.0
C709 C 0.04314 0.90525 0.68116 0.0
C710 C 0.05013 0.89691 0.72688 0.0
H711 H 0.13204 0.87739 0.75468 0.0
H712 H 0.11173 0.89139 0.73654 0.0
H713 H 0.05715 0.88576 0.75055 0.0
H714 H 1.01258 0.94013 0.69671 0.0
H715 H 0.03146 0.92615 0.7168 0.0
H716 H 0.07608 0.90064 0.69285 0.0
C717 C 0.10733 0.88129 0.7446 0.0
C718 C 0.06139 0.88878 0.73793 0.0
C719 C 0.11902 0.87327 0.75515 0.0
C720 C 0.021 0.93039 0.69216 0.0
C721 C 0.03178 0.92228 0.70371 0.0
C722 C 0.07165 0.89734 0.70534 0.0
C723 C 0.09024 0.8765 0.74458 0.0
C724 C 0.07797 0.88489 0.73283 0.0
C725 C 0.04311 0.90967 0.69834 0.0
C726 C 0.05508 0.90127 0.71039 0.0
H727 H 0.09259 0.84548 0.77449 0.0
H728 H 0.07215 0.85938 0.75593 0.0
H729 H 0.09542 0.88634 0.71182 0.0
H730 H 0.03295 0.90949 0.65658 0.0
H731 H 0.0514 0.89541 0.67653 0.0
C732 C 0.43497 0.84075 1.01487 0.0
C733 C 0.42693 0.8561 0.01876 0.0
C734 C 0.42711 0.82889 1.00428 0.0
C735 C 0.38942 0.80958 0.99111 0.0
H736 H 0.4036 0.80931 0.94439 0.0
C737 C 0.35191 0.77244 0.9399 0.0
C738 C 0.36051 0.76663 0.92554 0.0
C739 C 0.36015 0.78262 0.95187 0.0
C740 C 0.39961 0.80883 0.95742 0.0
H741 H 0.40407 0.87066 1.01505 0.0
H742 H 0.39023 0.8497 0.99708 0.0
H743 H 0.41801 0.82742 0.96458 0.0
H744 H 0.38472 0.76636 0.9129 0.0
H745 H 0.39927 0.78306 0.934 0.0
H746 H 0.37134 0.79071 0.98431 0.0
C747 C 0.40269 0.84703 1.00201 0.0
C748 C 0.40787 0.81937 0.96896 0.0
C749 C 0.41066 0.85902 1.01225 0.0
C750 C 0.37764 0.7708 0.92371 0.0
C751 C 0.38598 0.78059 0.93583 0.0
C752 C 0.38133 0.79875 0.97964 0.0
C753 C 0.41091 0.83196 0.99775 0.0
C754 C 0.4028 0.81992 0.98588 0.0
C755 C 0.37735 0.78696 0.95001 0.0
C756 C 0.3862 0.79825 0.96252 0.0
H757 H 0.44753 0.83815 0.01959 0.0
H758 H 0.43371 0.81736 1.0011 0.0
H759 H 0.38525 0.80984 1.00412 0.0
H760 H 0.33867 0.76955 0.94163 0.0
H761 H 0.35285 0.78738 0.96236 0.0
C762 C 0.44226 0.18158 0.26571 0.0
C763 C 0.42559 0.17554 0.26666 0.0
C764 C 0.4543 0.17339 0.25556 0.0
C765 C 0.46349 0.13235 0.23464 0.0
H766 H 0.49289 0.15872 0.20585 0.0
C767 C 0.51585 0.10178 0.19281 0.0
C768 C 0.51697 0.10783 0.17616 0.0
C769 C 0.50566 0.11003 0.20477 0.0
C770 C 0.48477 0.15115 0.2138 0.0
H771 H 0.40868 0.15596 0.2577 0.0
H772 H 0.42955 0.14179 0.24023 0.0
H773 H 0.47335 0.17303 0.2249 0.0
H774 H 0.50834 0.12753 0.15923 0.0
H775 H 0.49082 0.14183 0.17995 0.0
H776 H 0.47472 0.11047 0.22335 0.0
C777 C 0.43339 0.1528 0.24735 0.0
C778 C 0.47366 0.15937 0.22486 0.0
C779 C 0.42136 0.16104 0.25731 0.0
C780 C 0.50782 0.12245 0.17189 0.0
C781 C 0.49782 0.13076 0.18384 0.0
C782 C 0.47471 0.12413 0.22371 0.0
C783 C 0.45004 0.15885 0.24628 0.0
C784 C 0.46269 0.1501 0.23527 0.0
C785 C 0.49652 0.12466 0.20044 0.0
C786 C 0.48536 0.1334 0.21295 0.0
H787 H 0.446 0.19268 0.27272 0.0
H788 H 0.46702 0.17836 0.25514 0.0
H789 H 0.45537 0.12478 0.2426 0.0
H790 H 0.5227 0.09058 0.19657 0.0
H791 H 0.50506 0.10503 0.21746 0.0
C792 C 0.16146 0.77817 0.11409 0.0
C793 C 0.17601 0.76893 0.10975 0.0
C794 C 0.15325 0.78835 0.10221 0.0
C795 C 0.1601 0.81164 0.06243 0.0
H796 H 0.11121 0.81348 0.06126 0.0
C797 C 0.12365 0.86527 0.02867 0.0
C798 C 0.10903 0.86116 0.01946 0.0
C799 C 0.13183 0.85318 0.03863 0.0
C800 C 0.12487 0.81304 0.0613 0.0
H801 H 0.19323 0.76327 0.08931 0.0
H802 H 0.17895 0.7812 0.06857 0.0
H803 H 0.12534 0.79378 0.0803 0.0
H804 H 0.09163 0.84092 1.01359 0.0
H805 H 0.10586 0.8198 0.03112 0.0
H806 H 0.15962 0.83098 0.04353 0.0
C807 C 0.17393 0.78053 0.08124 0.0
C808 C 0.13299 0.80184 0.07235 0.0
C809 C 0.18208 0.77017 0.09312 0.0
C810 C 0.10284 0.84456 0.02049 0.0
C811 C 0.11096 0.83246 0.03062 0.0
C812 C 0.15198 0.82294 0.05149 0.0
C813 C 0.15937 0.78976 0.08563 0.0
C814 C 0.15073 0.80107 0.07318 0.0
C815 C 0.1256 0.83661 0.03982 0.0
C816 C 0.13424 0.82391 0.05086 0.0
H817 H 0.15637 0.77756 0.12674 0.0
H818 H 0.14224 0.79541 0.10615 0.0
H819 H 0.17375 0.8115 0.06278 0.0
H820 H 0.12884 0.8779 0.02823 0.0
H821 H 0.14291 0.85694 0.04568 0.0
C822 C 0.50645 0.91146 0.36297 0.0
C823 C 0.51738 0.92461 0.35816 0.0
C824 C 0.49604 0.90348 0.35119 0.0
C825 C 0.4892 0.89612 0.30535 0.0
H826 H 0.44396 0.88506 0.32028 0.0
C827 C 0.44254 0.85455 0.26585 0.0
C828 C 0.42537 0.85911 0.26619 0.0
C829 C 0.45431 0.86272 0.27634 0.0
C830 C 0.45649 0.88814 0.31578 0.0
H831 H 0.52606 0.93937 0.33686 0.0
H832 H 0.50767 0.92546 0.31619 0.0
H833 H 0.4632 0.89923 0.33941 0.0
H834 H 0.40733 0.87619 0.2777 0.0
H835 H 0.42766 0.89036 0.29563 0.0
H836 H 0.48224 0.88521 0.28155 0.0
C837 C 0.50731 0.92128 0.32918 0.0
C838 C 0.46765 0.89613 0.32688 0.0
C839 C 0.51781 0.92932 0.34105 0.0
C840 C 0.42038 0.87217 0.27712 0.0
C841 C 0.43208 0.88029 0.28754 0.0
C842 C 0.47799 0.88806 0.2942 0.0
C843 C 0.49611 0.90837 0.33415 0.0
C844 C 0.48421 0.9002 0.3219 0.0
C845 C 0.44921 0.87562 0.28746 0.0
C846 C 0.46143 0.88399 0.29926 0.0
H847 H 0.50582 0.90731 0.37597 0.0
H848 H 0.48792 0.89338 0.3555 0.0
H849 H 0.50186 0.89893 0.30108 0.0
H850 H 0.44687 0.84457 0.25761 0.0
H851 H 0.46735 0.85866 0.27599 0.0
C852 C 0.37737 0.26308 0.61406 0.0
C853 C 0.36014 0.26684 0.61229 0.0
C854 C 0.38572 0.25288 0.60228 0.0
C855 C 0.38035 0.23211 0.55957 0.0
H856 H 0.41885 0.20604 0.57476 0.0
C857 C 0.40894 0.17318 0.52557 0.0
C858 C 0.4261 0.1745 0.52118 0.0
C859 C 0.40121 0.1854 0.53574 0.0
C860 C 0.4082 0.21335 0.57032 0.0
H861 H 0.33812 0.26272 0.59673 0.0
H862 H 0.35227 0.24413 0.57673 0.0
H863 H 0.4045 0.22474 0.59439 0.0
H864 H 0.4486 0.1897 0.52416 0.0
H865 H 0.43519 0.21074 0.54265 0.0
H866 H 0.38365 0.21962 0.53573 0.0
C867 C 0.35969 0.24955 0.58681 0.0
C868 C 0.39995 0.22426 0.58155 0.0
C869 C 0.35145 0.26017 0.59838 0.0
C870 C 0.43535 0.18837 0.52725 0.0
C871 C 0.42771 0.20036 0.53786 0.0
C872 C 0.38836 0.22085 0.54849 0.0
C873 C 0.37701 0.24564 0.58856 0.0
C874 C 0.38588 0.23393 0.5764 0.0
C875 C 0.41054 0.199 0.54217 0.0
C876 C 0.4024 0.2114 0.55373 0.0
H877 H 0.3845 0.26818 0.62454 0.0
H878 H 0.39909 0.25081 0.60401 0.0
H879 H 0.36989 0.23945 0.55479 0.0
H880 H 0.40142 0.1627 0.52105 0.0
H881 H 0.38799 0.184 0.53892 0.0
C882 C 0.09541 0.18062 0.77025 0.0
C883 C 0.11255 0.17594 0.77049 0.0
C884 C 0.08368 0.17264 0.78092 0.0
C885 C 0.08142 0.14734 0.8205 0.0
H886 H 0.03604 0.13675 0.80569 0.0
C887 C 0.03091 0.12373 0.86734 0.0
C888 C 0.0198 0.11088 0.86219 0.0
C889 C 0.04165 0.13168 0.8558 0.0
C890 C 0.0487 0.1395 0.81 0.0
H891 H 0.13058 0.15888 0.78207 0.0
H892 H 0.11028 0.14503 0.80033 0.0
H893 H 0.05573 0.1504 0.78622 0.0
H894 H 1.01125 0.09651 0.84058 0.0
H895 H 0.03015 0.1103 0.82038 0.0
H896 H 0.07461 0.13623 0.84412 0.0
C897 C 0.10587 0.15504 0.79216 0.0
C898 C 0.05995 0.14753 0.79888 0.0
C899 C 0.11755 0.16297 0.78155 0.0
C900 C 0.01963 0.10633 0.84503 0.0
C901 C 0.03041 0.11433 0.83342 0.0
C902 C 0.0702 0.13938 0.83158 0.0
C903 C 0.08877 0.15981 0.79213 0.0
C904 C 0.07651 0.15152 0.80396 0.0
C905 C 0.04168 0.12705 0.83867 0.0
C906 C 0.05365 0.13535 0.82656 0.0
H907 H 0.09108 0.19053 0.76192 0.0
H908 H 0.07066 0.17677 0.7806 0.0
H909 H 0.09395 0.15036 0.825 0.0
H910 H 0.03138 0.12772 0.8804 0.0
H911 H 0.04986 0.14161 0.86033 0.0
C912 C 0.26514 0.42448 0.16053 0.0
C913 C 0.26867 0.42634 0.17779 0.0
C914 C 0.25516 0.43629 0.15197 0.0
C915 C 0.23453 0.47915 0.1567 0.0
H916 H 0.20883 0.46364 0.1181 0.0
C917 C 0.17595 0.51281 0.12673 0.0
C918 C 0.17756 0.51693 0.10954 0.0
C919 C 0.18809 0.50285 0.13485 0.0
C920 C 0.21603 0.46817 0.12879 0.0
H921 H 0.26439 0.44208 0.19963 0.0
H922 H 0.24615 0.46216 0.18509 0.0
H923 H 0.22724 0.44407 0.1329 0.0
H924 H 0.19322 0.51373 0.0874 0.0
H925 H 0.21415 0.49562 0.1015 0.0
H926 H 0.22219 0.50304 0.15297 0.0
C927 C 0.2516 0.45198 0.17783 0.0
C928 C 0.22678 0.45698 0.13729 0.0
C929 C 0.26202 0.44038 0.18629 0.0
C930 C 0.19168 0.51087 0.10067 0.0
C931 C 0.2036 0.50047 0.1087 0.0
C932 C 0.22341 0.49021 0.14844 0.0
C933 C 0.24789 0.45012 0.16049 0.0
C934 C 0.23633 0.46224 0.15138 0.0
C935 C 0.20191 0.49637 0.12588 0.0
C936 C 0.21412 0.48485 0.13435 0.0
H937 H 0.27025 0.4139 0.15356 0.0
H938 H 0.25326 0.43448 0.13859 0.0
H939 H 0.24177 0.48401 0.16718 0.0
H940 H 0.16525 0.51731 0.13394 0.0
H941 H 0.18645 0.49982 0.14806 0.0
C942 C 0.76094 0.11193 0.8733 0.0
C943 C 0.77051 0.1075 0.85901 0.0
C944 C 0.75091 0.09999 0.8816 0.0
C945 C 0.72819 0.05998 0.87508 0.0
H946 H 0.72594 0.05916 0.92393 0.0
C947 C 0.67384 0.02736 0.91141 0.0
C948 C 0.67777 1.01785 0.92589 0.0
C949 C 0.68614 0.03712 0.90331 0.0
C950 C 0.7265 0.05911 0.91029 0.0
H951 H 0.77696 0.08683 0.84234 0.0
H952 H 0.75919 0.06597 0.85674 0.0
H953 H 0.74577 0.07811 0.90981 0.0
H954 H 0.6979 1.01128 0.94316 0.0
H955 H 0.71939 0.02859 0.92911 0.0
H956 H 0.70873 0.04117 0.87555 0.0
C957 C 0.75953 0.07877 0.86151 0.0
C958 C 0.73778 0.07009 0.90217 0.0
C959 C 0.76979 0.09071 0.85329 0.0
C960 C 0.69441 0.01843 0.93206 0.0
C961 C 0.70671 0.02841 0.92404 0.0
C962 C 0.71677 0.04914 0.88319 0.0
C963 C 0.74996 0.08326 0.8758 0.0
C964 C 0.73868 0.07079 0.88445 0.0
C965 C 0.70274 0.03784 0.9095 0.0
C966 C 0.71565 0.04866 0.90091 0.0
H967 H 0.76117 0.1247 0.87813 0.0
H968 H 0.74359 0.10399 0.89241 0.0
H969 H 0.72844 0.06023 0.86143 0.0
H970 H 0.6612 0.02725 0.90623 0.0
H971 H 0.68254 0.04436 0.8923 0.0
C972 C 0.77817 0.91973 0.37656 0.0
C973 C 0.7691 0.92376 0.36183 0.0
C974 C 0.78826 0.9318 0.38462 0.0
C975 C 0.81153 0.97153 0.37717 0.0
H976 H 0.81285 0.97373 0.426 0.0
C977 C 0.8646 1.00637 0.4134 0.0
C978 C 0.86031 1.01584 0.42779 0.0
C979 C 0.85264 0.99618 0.40531 0.0
C980 C 0.81256 0.97341 0.41236 0.0
H981 H 0.76363 0.94383 0.3441 0.0
H982 H 0.78139 0.96489 0.35812 0.0
H983 H 0.7934 0.9543 0.41209 0.0
H984 H 0.83987 0.02193 0.44488 0.0
H985 H 0.81898 1.004 0.43081 0.0
H986 H 0.83077 0.99055 0.37744 0.0
C987 C 0.78067 0.95232 0.3634 0.0
C988 C 0.8015 0.96212 0.40436 0.0
C989 C 0.77042 0.94026 0.3554 0.0
C990 C 0.84365 1.01483 0.43385 0.0
C991 C 0.83169 1.00447 0.42582 0.0
C992 C 0.8227 0.9827 0.38517 0.0
C993 C 0.78973 0.94825 0.37815 0.0
C994 C 0.80092 0.96092 0.38665 0.0
C995 C 0.83602 0.99501 0.41141 0.0
C996 C 0.82347 0.98371 0.40288 0.0
H997 H 0.7775 0.90719 0.38193 0.0
H998 H 0.79518 0.9281 0.39579 0.0
H999 H 0.81154 0.9709 0.36353 0.0
H1000 H 0.87727 1.00678 0.40832 0.0
H1001 H 0.85655 0.98894 0.39441 0.0
C1002 C 0.84386 0.02181 0.10425 0.0
C1003 C 0.86057 0.02101 0.11022 0.0
C1004 C 0.83183 0.03205 0.11232 0.0
C1005 C 0.82281 0.05387 0.15294 0.0
H1006 H 0.79303 0.08178 0.12605 0.0
C1007 C 0.77024 0.09597 0.18276 0.0
C1008 C 0.76877 0.11242 0.17624 0.0
C1009 C 0.78056 0.08394 0.17478 0.0
C1010 C 0.80126 0.07409 0.13377 0.0
H1011 H 0.87754 0.03032 0.12956 0.0
H1012 H 0.85669 0.04797 0.14353 0.0
H1013 H 0.81263 0.06252 0.11212 0.0
H1014 H 0.77696 0.12893 0.15599 0.0
H1015 H 0.79473 0.10808 0.14218 0.0
H1016 H 0.81164 0.06565 0.17458 0.0
C1017 C 0.85281 0.04065 0.13268 0.0
C1018 C 0.81241 0.06291 0.12577 0.0
C1019 C 0.86483 0.03058 0.12455 0.0
C1020 C 0.77774 0.11642 0.16144 0.0
C1021 C 0.78788 0.10439 0.1534 0.0
C1022 C 0.81156 0.06494 0.16095 0.0
C1023 C 0.83614 0.0416 0.12668 0.0
C1024 C 0.8235 0.05278 0.13522 0.0
C1025 C 0.78951 0.08799 0.15996 0.0
C1026 C 0.80076 0.07538 0.15148 0.0
H1027 H 0.8401 1.01463 0.09327 0.0
H1028 H 0.81909 0.03236 0.1074 0.0
H1029 H 0.83102 0.04615 0.16066 0.0
H1030 H 0.76355 0.09242 0.19412 0.0
H1031 H 0.7814 0.0714 0.18014 0.0
C1032 C 0.27859 0.59816 0.68489 0.0
C1033 C 0.27152 0.61189 0.67622 0.0
C1034 C 0.28893 0.58647 0.67646 0.0
C1035 C 0.31264 0.58054 0.63542 0.0
H1036 H 0.31769 0.53488 0.65217 0.0
C1037 C 0.3471 0.52566 0.59956 0.0
C1038 C 0.36128 0.5197 0.60841 0.0
C1039 C 0.33538 0.53638 0.60747 0.0
C1040 C 0.31633 0.54759 0.64734 0.0
H1041 H 0.26918 0.62371 0.65173 0.0
H1042 H 0.28608 0.60299 0.63686 0.0
H1043 H 0.29843 0.55424 0.66636 0.0
H1044 H 0.37392 0.51985 0.63265 0.0
H1045 H 0.3531 0.53791 0.64657 0.0
H1046 H 0.33014 0.57341 0.61598 0.0
C1047 C 0.28453 0.60149 0.65033 0.0
C1048 C 0.30541 0.55884 0.65558 0.0
C1049 C 0.27462 0.61339 0.65884 0.0
C1050 C 0.36318 0.52428 0.62545 0.0
C1051 C 0.35125 0.53457 0.63346 0.0
C1052 C 0.3232 0.56914 0.62695 0.0
C1053 C 0.29213 0.58793 0.65899 0.0
C1054 C 0.30346 0.57561 0.64989 0.0
C1055 C 0.33734 0.54091 0.62451 0.0
C1056 C 0.32528 0.55261 0.63291 0.0
H1057 H 0.27655 0.59672 0.69832 0.0
H1058 H 0.29467 0.57653 0.68383 0.0
H1059 H 0.31203 0.59333 0.63072 0.0
H1060 H 0.34532 0.52243 0.58642 0.0
H1061 H 0.32476 0.54111 0.6003 0.0
C1062 C 0.26477 0.59395 0.35242 0.0
C1063 C 0.26612 0.61056 0.35852 0.0
C1064 C 0.25437 0.5821 0.36057 0.0
C1065 C 0.23316 0.5732 0.40156 0.0
H1066 H 0.20396 0.54438 0.375 0.0
C1067 C 0.19072 0.5211 0.43175 0.0
C1068 C 0.1741 0.51994 0.42559 0.0
C1069 C 0.20272 0.53134 0.42363 0.0
C1070 C 0.21201 0.55235 0.38263 0.0
H1071 H 0.25763 0.62756 0.37821 0.0
H1072 H 0.23973 0.60702 0.39235 0.0
H1073 H 0.22338 0.56368 0.36084 0.0
H1074 H 0.15726 0.52865 0.40585 0.0
H1075 H 0.17806 0.5463 0.39178 0.0
H1076 H 0.2216 0.56206 0.42334 0.0
C1077 C 0.24673 0.60307 0.38131 0.0
C1078 C 0.22328 0.56331 0.37449 0.0
C1079 C 0.25695 0.61492 0.37309 0.0
C1080 C 0.1699 0.52918 0.41102 0.0
C1081 C 0.1819 0.53926 0.40283 0.0
C1082 C 0.22199 0.56212 0.4097 0.0
C1083 C 0.24522 0.58649 0.37516 0.0
C1084 C 0.23388 0.57406 0.38383 0.0
C1085 C 0.19848 0.54055 0.40902 0.0
C1086 C 0.2111 0.55167 0.40036 0.0
H1087 H 0.27163 0.59012 0.34125 0.0
H1088 H 0.25363 0.56942 0.35554 0.0
H1089 H 0.24124 0.58113 0.40919 0.0
H1090 H 0.19444 0.51418 0.44293 0.0
H1091 H 0.21539 0.53192 0.4287 0.0
C1092 C 0.36192 0.50871 0.91229 0.0
C1093 C 0.35715 0.51884 0.92607 0.0
C1094 C 0.35011 0.4986 0.90391 0.0
C1095 C 0.30925 0.47705 0.90955 0.0
H1096 H 0.31067 0.47301 0.86083 0.0
C1097 C 0.27622 0.42261 0.87362 0.0
C1098 C 0.26788 0.4263 0.85838 0.0
C1099 C 0.286 0.43482 0.88183 0.0
C1100 C 0.30998 0.47408 0.87443 0.0
H1101 H 0.33602 0.52618 0.94178 0.0
H1102 H 0.31537 0.50832 0.92721 0.0
H1103 H 0.32948 0.49281 0.8751 0.0
H1104 H 0.26339 0.44594 0.8399 0.0
H1105 H 0.28062 0.46725 0.85418 0.0
H1106 H 0.28986 0.45818 0.90888 0.0
C1107 C 0.32834 0.50826 0.92292 0.0
C1108 C 0.32089 0.48533 0.88264 0.0
C1109 C 0.34016 0.51857 0.93122 0.0
C1110 C 0.26961 0.44262 0.85159 0.0
C1111 C 0.27956 0.45483 0.85975 0.0
C1112 C 0.29845 0.46566 0.90135 0.0
C1113 C 0.33316 0.49815 0.90912 0.0
C1114 C 0.32079 0.48688 0.90033 0.0
C1115 C 0.28788 0.4511 0.87501 0.0
C1116 C 0.29875 0.4639 0.88368 0.0
H1117 H 0.37486 0.50856 0.90791 0.0
H1118 H 0.35437 0.49085 0.89351 0.0
H1119 H 0.30887 0.4778 0.92317 0.0
H1120 H 0.27521 0.41021 0.87927 0.0
H1121 H 0.29236 0.43139 0.89342 0.0
C1122 C 0.60275 0.69415 1.01425 0.0
C1123 C 0.60712 0.67693 1.01398 0.0
C1124 C 0.61092 0.70577 1.0036 0.0
C1125 C 0.63628 0.70757 0.96401 0.0
H1126 H 0.64766 0.75277 0.97876 0.0
C1127 C 0.66126 0.75741 0.91714 0.0
C1128 C 0.67425 0.76832 0.92236 0.0
C1129 C 0.65299 0.74688 0.92866 0.0
C1130 C 0.6447 0.74015 0.97446 0.0
H1131 H 0.62386 0.65864 1.00237 0.0
H1132 H 0.63806 0.67871 0.98415 0.0
H1133 H 0.6336 0.73337 0.99822 0.0
H1134 H 0.68855 0.77672 0.94408 0.0
H1135 H 0.67422 0.75819 0.96423 0.0
H1136 H 0.64761 0.71411 0.94043 0.0
C1137 C 0.62812 0.68328 0.99232 0.0
C1138 C 0.63642 0.72907 0.98558 0.0
C1139 C 0.61999 0.67174 1.00291 0.0
C1140 C 0.67862 0.7685 0.93957 0.0
C1141 C 0.67031 0.75792 0.95115 0.0
C1142 C 0.6445 0.71862 0.95293 0.0
C1143 C 0.62366 0.70047 0.99237 0.0
C1144 C 0.63215 0.71258 0.98053 0.0
C1145 C 0.65744 0.74686 0.94584 0.0
C1146 C 0.64883 0.73509 0.95794 0.0
H1147 H 0.59292 0.69863 0.02259 0.0
H1148 H 0.60702 0.71885 1.00393 0.0
H1149 H 0.63304 0.69509 0.95951 0.0
H1150 H 0.6574 0.75694 0.90404 0.0
H1151 H 0.64296 0.73883 0.92407 0.0
C1152 C 0.6165 0.37723 0.25836 0.0
C1153 C 0.6125 0.36254 0.26753 0.0
C1154 C 0.60437 0.38534 0.2484 0.0
C1155 C 0.56448 0.37802 0.22548 0.0
H1156 H 0.56223 0.42689 0.22425 0.0
C1157 C 0.52946 0.41434 0.17264 0.0
C1158 C 0.51977 0.42856 0.17704 0.0
C1159 C 0.53979 0.40631 0.18451 0.0
C1160 C 0.56257 0.41323 0.22453 0.0
H1161 H 0.59239 0.34494 0.27329 0.0
H1162 H 0.5712 0.35904 0.25572 0.0
H1163 H 0.58179 0.41292 0.24357 0.0
H1164 H 0.51348 0.44545 0.19757 0.0
H1165 H 0.5317 0.4315 0.21832 0.0
H1166 H 0.54538 0.37832 0.20633 0.0
C1167 C 0.58382 0.36425 0.25629 0.0
C1168 C 0.57392 0.40521 0.2355 0.0
C1169 C 0.59595 0.35621 0.26643 0.0
C1170 C 0.52075 0.43455 0.19371 0.0
C1171 C 0.53126 0.42659 0.20559 0.0
C1172 C 0.55326 0.38604 0.21438 0.0
C1173 C 0.58786 0.37896 0.24714 0.0
C1174 C 0.57513 0.38748 0.23605 0.0
C1175 C 0.54088 0.41231 0.20116 0.0
C1176 C 0.55223 0.40377 0.21364 0.0
H1177 H 0.62909 0.38252 0.25886 0.0
H1178 H 0.60804 0.39648 0.2414 0.0
H1179 H 0.56512 0.36437 0.22545 0.0
H1180 H 0.52907 0.40931 0.15995 0.0
H1181 H 0.54715 0.39551 0.18055 0.0
C1182 C 0.93519 0.34647 0.50963 0.0
C1183 C 0.92646 0.36036 0.51631 0.0
C1184 C 0.92695 0.33482 0.4991 0.0
C1185 C 0.8866 0.32937 0.47407 0.0
H1186 H 0.9028 0.28345 0.46971 0.0
C1187 C 0.85058 0.27514 0.43906 0.0
C1188 C 0.85963 0.26883 0.42517 0.0
C1189 C 0.85848 0.28573 0.45088 0.0
C1190 C 0.89814 0.29625 0.47086 0.0
H1191 H 0.90204 0.37248 0.51779 0.0
H1192 H 0.88745 0.35182 0.50059 0.0
H1193 H 0.91672 0.30268 0.48928 0.0
H1194 H 0.88418 0.26821 0.41317 0.0
H1195 H 0.89808 0.28605 0.43421 0.0
H1196 H 0.86757 0.32247 0.45606 0.0
C1197 C 0.90085 0.35017 0.50257 0.0
C1198 C 0.90622 0.30741 0.48197 0.0
C1199 C 0.90919 0.36203 0.51267 0.0
C1200 C 0.87685 0.27291 0.42369 0.0
C1201 C 0.88483 0.28307 0.43575 0.0
C1202 C 0.87828 0.31807 0.46332 0.0
C1203 C 0.9096 0.33648 0.49531 0.0
C1204 C 0.90071 0.32427 0.48371 0.0
C1205 C 0.87569 0.28978 0.44934 0.0
C1206 C 0.88403 0.30144 0.46149 0.0
H1207 H 0.94854 0.34491 0.51209 0.0
H1208 H 0.93438 0.32476 0.49366 0.0
H1209 H 0.88207 0.34223 0.47449 0.0
H1210 H 0.83729 0.27231 0.4405 0.0
H1211 H 0.85115 0.29075 0.46126 0.0
C1212 C 0.94023 0.68307 0.76514 0.0
C1213 C 0.92355 0.67715 0.76664 0.0
C1214 C 0.95189 0.67477 0.75467 0.0
C1215 C 0.96008 0.63367 0.73334 0.0
H1216 H 0.98907 0.65997 0.70406 0.0
C1217 C 1.01145 0.60292 0.69047 0.0
C1218 C 1.01266 0.60919 0.67391 0.0
C1219 C 1.00137 0.61111 0.70255 0.0
C1220 C 0.98105 0.65241 0.71213 0.0
H1221 H 0.90625 0.65764 0.75832 0.0
H1222 H 0.92647 0.64326 0.74026 0.0
H1223 H 0.9701 0.67432 0.72363 0.0
H1224 H 1.0042 0.62919 0.65724 0.0
H1225 H 0.98681 0.64337 0.67817 0.0
H1226 H 0.97083 0.61177 0.72164 0.0
C1227 C 0.93061 0.65426 0.74722 0.0
C1228 C 0.97027 0.66066 0.72349 0.0
C1229 C 0.91895 0.66262 0.75753 0.0
C1230 C 1.00362 0.62394 0.66983 0.0
C1231 C 0.9937 0.63218 0.68191 0.0
C1232 C 0.97096 0.62542 0.72208 0.0
C1233 C 0.94724 0.66022 0.74556 0.0
C1234 C 0.95948 0.65142 0.73413 0.0
C1235 C 0.99238 0.6259 0.69844 0.0
C1236 C 0.98146 0.63466 0.71116 0.0
H1237 H 0.94425 0.69421 0.77195 0.0
H1238 H 0.96462 0.67966 0.75382 0.0
H1239 H 0.9521 0.62611 0.74145 0.0
H1240 H 0.01822 0.59162 0.6941 0.0
H1241 H 1.00077 0.60596 0.71518 0.0
C1242 C 0.62623 0.36748 0.5264 0.0
C1243 C 0.61351 0.36222 0.51519 0.0
C1244 C 0.63438 0.35597 0.53699 0.0
C1245 C 0.64228 0.3319 0.56543 0.0
H1246 H 0.65396 0.28658 0.5513 0.0
C1247 C 0.66623 0.28272 0.61332 0.0
C1248 C 0.67922 0.2716 0.60854 0.0
C1249 C 0.65828 0.2931 0.60147 0.0
C1250 C 0.65091 0.29924 0.55542 0.0
H1251 H 0.59966 0.34041 0.50625 0.0
H1252 H 0.61379 0.32024 0.52498 0.0
H1253 H 0.6402 0.30579 0.53141 0.0
H1254 H 0.69384 0.26267 0.58725 0.0
H1255 H 0.68009 0.28103 0.56651 0.0
H1256 H 0.65325 0.32563 0.58923 0.0
C1257 C 0.61755 0.33336 0.52541 0.0
C1258 C 0.64282 0.31021 0.54406 0.0
C1259 C 0.60937 0.34495 0.51471 0.0
C1260 C 0.68392 0.27108 0.59143 0.0
C1261 C 0.67594 0.28155 0.5795 0.0
C1262 C 0.65034 0.32099 0.57673 0.0
C1263 C 0.63007 0.33875 0.53684 0.0
C1264 C 0.63842 0.32674 0.54889 0.0
C1265 C 0.66306 0.29281 0.58439 0.0
C1266 C 0.65475 0.30446 0.57197 0.0
H1267 H 0.62994 0.38062 0.52707 0.0
H1268 H 0.64418 0.36062 0.54528 0.0
H1269 H 0.63893 0.3444 0.56978 0.0
H1270 H 0.6621 0.28343 0.62632 0.0
H1271 H 0.64822 0.30129 0.60574 0.0
C1272 C 0.94615 0.35177 0.76951 0.0
C1273 C 0.92956 0.35799 0.76823 0.0
C1274 C 0.95816 0.36004 0.77962 0.0
C1275 C 0.96772 0.4013 0.79985 0.0
H1276 H 0.99539 0.37494 0.83032 0.0
C1277 C 0.01927 0.43141 0.84312 0.0
C1278 C 0.01927 0.42584 0.85997 0.0
C1279 C 1.00942 0.42316 0.83088 0.0
C1280 C 0.98777 0.38251 0.82188 0.0
H1281 H 0.91281 0.37802 0.77643 0.0
H1282 H 0.93365 0.39238 0.79379 0.0
H1283 H 0.97622 0.36064 0.81089 0.0
H1284 H 1.00904 0.40699 0.87698 0.0
H1285 H 0.99214 0.39267 0.85577 0.0
H1286 H 0.97908 0.42318 0.81104 0.0
C1287 C 0.93744 0.38114 0.787 0.0
C1288 C 0.97687 0.37429 0.81062 0.0
C1289 C 0.92542 0.3728 0.7771 0.0
C1290 C 1.00937 0.4117 0.86417 0.0
C1291 C 0.99973 0.40337 0.85195 0.0
C1292 C 0.97876 0.40952 0.81098 0.0
C1293 C 0.95395 0.37486 0.78849 0.0
C1294 C 0.9665 0.38357 0.79961 0.0
C1295 C 0.99954 0.409 0.83514 0.0
C1296 C 0.98875 0.40025 0.82234 0.0
H1297 H 0.9498 0.34041 0.76288 0.0
H1298 H 0.97079 0.35489 0.78039 0.0
H1299 H 0.96005 0.40886 0.79145 0.0
H1300 H 0.02673 0.44224 0.83942 0.0
H1301 H 1.00964 0.42778 0.81803 0.0
C1302 C 0.85183 0.76215 0.09887 0.0
C1303 C 0.8608 0.76827 0.11289 0.0
C1304 C 0.85973 0.7516 0.08701 0.0
C1305 C 0.89909 0.74109 0.06685 0.0
H1306 H 0.88342 0.69494 0.06355 0.0
C1307 C 0.93566 0.6912 0.02705 0.0
C1308 C 0.92685 0.67726 0.02058 0.0
C1309 C 0.92761 0.70277 0.03782 0.0
C1310 C 0.88783 0.70785 0.06387 0.0
H1311 H 0.88526 0.76854 0.12511 0.0
H1312 H 0.89917 0.75075 0.10402 0.0
H1313 H 0.86907 0.71458 0.08223 0.0
H1314 H 0.90249 0.66497 0.01973 0.0
H1315 H 0.88822 0.68548 0.03734 0.0
H1316 H 0.91739 0.73482 0.04807 0.0
C1317 C 0.88597 0.75387 0.10241 0.0
C1318 C 0.8796 0.71908 0.07477 0.0
C1319 C 0.87797 0.764 0.11449 0.0
C1320 C 0.90971 0.67546 0.02468 0.0
C1321 C 0.90155 0.68723 0.03502 0.0
C1322 C 0.90708 0.72999 0.05558 0.0
C1323 C 0.87689 0.74738 0.08867 0.0
C1324 C 0.88521 0.73577 0.07647 0.0
C1325 C 0.91038 0.70097 0.04209 0.0
C1326 C 0.90168 0.71309 0.05394 0.0
H1327 H 0.83858 0.76513 0.09732 0.0
H1328 H 0.85245 0.74675 0.07653 0.0
H1329 H 0.90365 0.75393 0.0679 0.0
H1330 H 0.94892 0.69287 0.02421 0.0
H1331 H 0.9351 0.71289 0.04308 0.0
C1332 C 0.52339 0.62736 0.36054 0.0
C1333 C 0.51983 0.61009 0.35884 0.0
C1334 C 0.5335 0.63578 0.34875 0.0
C1335 C 0.55445 0.63058 0.30613 0.0
H1336 H 0.58018 0.66924 0.32149 0.0
C1337 C 0.61278 0.66017 0.27185 0.0
C1338 C 0.61142 0.67745 0.26802 0.0
C1339 C 0.60069 0.65212 0.28194 0.0
C1340 C 0.57297 0.65853 0.317 0.0
H1341 H 0.52416 0.58806 0.34336 0.0
H1342 H 0.54261 0.60235 0.32329 0.0
H1343 H 0.5616 0.65464 0.34105 0.0
H1344 H 0.59626 0.69985 0.2719 0.0
H1345 H 0.57545 0.68588 0.2902 0.0
H1346 H 0.56691 0.6341 0.28229 0.0
C1347 C 0.53711 0.60974 0.33335 0.0
C1348 C 0.56213 0.65015 0.32819 0.0
C1349 C 0.52656 0.60142 0.34494 0.0
C1350 C 0.59762 0.68651 0.27453 0.0
C1351 C 0.58576 0.67855 0.28504 0.0
C1352 C 0.56565 0.63873 0.29508 0.0
C1353 C 0.54086 0.62709 0.33507 0.0
C1354 C 0.55255 0.63604 0.32297 0.0
C1355 C 0.58717 0.66126 0.28883 0.0
C1356 C 0.57496 0.65284 0.30038 0.0
H1357 H 0.51824 0.63446 0.37101 0.0
H1358 H 0.53545 0.64917 0.35044 0.0
H1359 H 0.54719 0.62008 0.30132 0.0
H1360 H 0.62323 0.65281 0.26699 0.0
H1361 H 0.60213 0.63882 0.28471 0.0
C1362 C 0.76522 0.94092 0.67804 0.0
C1363 C 0.76498 0.92362 0.67405 0.0
C1364 C 0.75437 0.95229 0.66978 0.0
C1365 C 0.71428 0.95345 0.64527 0.0
H1366 H 0.72894 0.99821 0.63212 0.0
C1367 C 0.66709 1.00321 0.62056 0.0
C1368 C 0.67199 1.01364 0.60705 0.0
C1369 C 0.67874 0.99268 0.62864 0.0
C1370 C 0.72466 0.98571 0.63559 0.0
H1371 H 0.75316 0.90487 0.65798 0.0
H1372 H 0.73453 0.92452 0.64368 0.0
H1373 H 0.74869 0.97916 0.64627 0.0
H1374 H 0.69326 0.02114 0.5916 0.0
H1375 H 0.71364 1.00263 0.60564 0.0
H1376 H 0.69039 0.9598 0.63442 0.0
C1377 C 0.74288 0.92936 0.65334 0.0
C1378 C 0.73595 0.97484 0.6439 0.0
C1379 C 0.7537 0.91806 0.66152 0.0
C1380 C 0.68899 1.01329 0.60192 0.0
C1381 C 0.70071 1.00273 0.61007 0.0
C1382 C 0.70302 0.96431 0.63704 0.0
C1383 C 0.74294 0.94664 0.65739 0.0
C1384 C 0.73093 0.95851 0.64882 0.0
C1385 C 0.69573 0.99221 0.6235 0.0
C1386 C 0.708 0.98062 0.63208 0.0
H1387 H 0.77372 0.94568 0.6876 0.0
H1388 H 0.75471 0.96547 0.67336 0.0
H1389 H 0.70983 0.94109 0.649 0.0
H1390 H 0.65416 1.00316 0.62498 0.0
H1391 H 0.67443 0.98502 0.63908 0.0
C1392 C 0.25919 0.34648 0.2321 0.0
C1393 C 0.2566 0.36288 0.22596 0.0
C1394 C 0.2544 0.34221 0.24859 0.0
C1395 C 0.24495 0.36326 0.28987 0.0
H1396 H 0.23448 0.31765 0.30394 0.0
C1397 C 0.21918 0.34331 0.35611 0.0
C1398 C 0.22552 0.3282 0.36284 0.0
C1399 C 0.22447 0.34895 0.34018 0.0
C1400 C 0.23756 0.33044 0.30022 0.0
H1401 H 0.24603 0.38733 0.2318 0.0
H1402 H 0.23649 0.37963 0.25997 0.0
H1403 H 0.23826 0.3238 0.27411 0.0
H1404 H 0.24274 0.30749 0.35855 0.0
H1405 H 0.25216 0.3174 0.33093 0.0
H1406 H 0.24362 0.36986 0.31611 0.0
C1407 C 0.24287 0.37017 0.25247 0.0
C1408 C 0.23976 0.33399 0.28306 0.0
C1409 C 0.24799 0.37452 0.23615 0.0
C1410 C 0.23807 0.31947 0.3539 0.0
C1411 C 0.2432 0.32496 0.33794 0.0
C1412 C 0.24246 0.35973 0.30702 0.0
C1413 C 0.24667 0.35419 0.25926 0.0
C1414 C 0.24357 0.35045 0.27757 0.0
C1415 C 0.23591 0.33936 0.33058 0.0
C1416 C 0.23888 0.34325 0.31242 0.0
H1417 H 0.26625 0.33741 0.22471 0.0
H1418 H 0.25775 0.32982 0.25325 0.0
H1419 H 0.24826 0.37602 0.28635 0.0
H1420 H 0.20903 0.34992 0.36244 0.0
H1421 H 0.21857 0.36005 0.33482 0.0
C1422 C 0.91202 0.99899 0.48757 0.0
C1423 C 0.9237 1.00632 0.47642 0.0
C1424 C 0.91686 0.99428 0.50388 0.0
C1425 C 0.9463 1.00725 0.53671 0.0
H1426 H 0.93298 0.96602 0.55933 0.0
C1427 C 0.97186 0.9884 0.60231 0.0
C1428 C 0.96257 0.97725 0.61246 0.0
C1429 C 0.96574 0.9935 0.58657 0.0
C1430 C 0.93651 0.9778 0.55339 0.0
H1431 H 0.94972 1.01401 0.47344 0.0
H1432 H 0.95821 1.00586 0.50204 0.0
H1433 H 0.92624 0.96994 0.52962 0.0
H1434 H 0.93922 0.96335 0.61451 0.0
H1435 H 0.9279 0.97307 0.5875 0.0
H1436 H 0.95617 1.0154 0.56045 0.0
C1437 C 0.94533 1.00363 0.49808 0.0
C1438 C 0.93278 0.97993 0.53625 0.0
C1439 C 0.94055 1.00803 0.48161 0.0
C1440 C 0.94642 0.97235 0.60717 0.0
C1441 C 0.94016 0.9776 0.59145 0.0
C1442 C 0.94981 1.00524 0.55391 0.0
C1443 C 0.93341 0.99716 0.50954 0.0
C1444 C 0.93777 0.99461 0.52766 0.0
C1445 C 0.95011 0.98757 0.58055 0.0
C1446 C 0.9451 0.99042 0.56252 0.0
H1447 H 0.89889 0.9978 0.48399 0.0
H1448 H 0.90736 0.9894 0.51239 0.0
H1449 H 0.94999 0.01888 0.53054 0.0
H1450 H 0.98462 0.99186 0.60583 0.0
H1451 H 0.97395 1.00098 0.57864 0.0
C1452 C 0.31614 0.69684 0.85214 0.0
C1453 C 0.31003 0.71185 0.85926 0.0
C1454 C 0.31088 0.69175 0.83605 0.0
C1455 C 0.29731 0.71128 0.79638 0.0
H1456 H 0.28938 0.66538 0.7817 0.0
C1457 C 0.27721 0.69412 0.72786 0.0
C1458 C 0.28145 0.67807 0.72168 0.0
C1459 C 0.28155 0.69879 0.74438 0.0
C1460 C 0.29188 0.67826 0.78547 0.0
H1461 H 0.29334 0.73308 0.85539 0.0
H1462 H 0.28386 0.72408 0.82746 0.0
H1463 H 0.29318 0.6713 0.81158 0.0
H1464 H 0.29451 0.65482 0.72742 0.0
H1465 H 0.30311 0.66332 0.75567 0.0
H1466 H 0.29641 0.71825 0.77031 0.0
C1467 C 0.29265 0.71617 0.83429 0.0
C1468 C 0.29391 0.68165 0.80269 0.0
C1469 C 0.29778 0.72113 0.85045 0.0
C1470 C 0.29129 0.66737 0.73179 0.0
C1471 C 0.29588 0.67212 0.74814 0.0
C1472 C 0.29545 0.70788 0.77914 0.0
C1473 C 0.29967 0.70179 0.82661 0.0
C1474 C 0.29663 0.6982 0.80838 0.0
C1475 C 0.29037 0.68756 0.755 0.0
C1476 C 0.29276 0.6913 0.77339 0.0
H1477 H 0.32607 0.68983 0.85839 0.0
H1478 H 0.31664 0.68068 0.83048 0.0
H1479 H 0.29971 0.72415 0.80029 0.0
H1480 H 0.26918 0.70241 0.72055 0.0
H1481 H 0.27695 0.71073 0.74914 0.0
C1482 C 0.62684 0.03182 0.98819 0.0
C1483 C 0.61483 0.0264 0.97632 0.0
C1484 C 0.62195 0.03654 1.00447 0.0
C1485 C 0.58989 0.0265 0.03575 0.0
H1486 H 0.60655 0.06562 0.05984 0.0
C1487 C 0.56307 0.04673 0.10026 0.0
C1488 C 0.57288 0.05653 0.11125 0.0
C1489 C 0.56948 0.04144 0.08473 0.0
C1490 C 0.60205 0.0544 0.05349 0.0
H1491 H 0.58819 0.0222 0.97205 0.0
H1492 H 0.5796 0.03031 1.00065 0.0
H1493 H 0.61427 0.06144 0.03038 0.0
H1494 H 0.59736 0.06791 0.11498 0.0
H1495 H 0.60908 0.05785 0.08822 0.0
H1496 H 0.57808 0.01909 0.05882 0.0
C1497 C 0.59282 0.031 0.99726 0.0
C1498 C 0.60635 0.05214 0.03649 0.0
C1499 C 0.59769 0.0266 0.98082 0.0
C1500 C 0.5897 0.05995 0.10695 0.0
C1501 C 0.59623 0.05452 0.09139 0.0
C1502 C 0.58582 0.02859 0.05281 0.0
C1503 C 0.60495 0.0356 1.00939 0.0
C1504 C 0.60016 0.03827 0.02737 0.0
C1505 C 0.58596 0.04582 0.07972 0.0
C1506 C 0.59165 0.04269 0.06194 0.0
H1507 H 0.64016 0.03161 0.98512 0.0
H1508 H 0.6316 0.03997 1.0135 0.0
H1509 H 0.58523 1.01547 0.02917 0.0
H1510 H 0.54988 0.0444 0.10305 0.0
H1511 H 0.561 0.03502 0.07618 0.0
C1512 C 0.2218 0.69626 0.17994 0.0
C1513 C 0.2272 0.71195 0.17375 0.0
C1514 C 0.22718 0.69055 0.19581 0.0
C1515 C 0.23864 0.70869 0.23656 0.0
H1516 H 0.25095 0.66314 0.24918 0.0
C1517 C 0.25926 0.69096 0.30466 0.0
C1518 C 0.25687 0.6743 0.31016 0.0
C1519 C 0.25484 0.69569 0.28819 0.0
C1520 C 0.2472 0.67588 0.24599 0.0
H1521 H 0.24279 0.73373 0.17898 0.0
H1522 H 0.25239 0.7237 0.2065 0.0
H1523 H 0.2467 0.6701 0.21955 0.0
H1524 H 0.24698 0.64984 0.30321 0.0
H1525 H 0.23816 0.65828 0.27502 0.0
H1526 H 0.23857 0.71446 0.26291 0.0
C1527 C 0.2441 0.71573 0.19912 0.0
C1528 C 0.24493 0.67987 0.22892 0.0
C1529 C 0.23889 0.72131 0.18321 0.0
C1530 C 0.24882 0.66283 0.29934 0.0
C1531 C 0.2441 0.66761 0.28303 0.0
C1532 C 0.24066 0.70466 0.25365 0.0
C1533 C 0.23775 0.70063 0.20591 0.0
C1534 C 0.24071 0.69634 0.22399 0.0
C1535 C 0.24771 0.6839 0.27691 0.0
C1536 C 0.245 0.68819 0.25867 0.0
H1537 H 0.21229 0.68913 0.1732 0.0
H1538 H 0.22197 0.67891 0.20072 0.0
H1539 H 0.23506 0.72145 0.23321 0.0
H1540 H 0.26586 0.69994 0.31256 0.0
H1541 H 0.258 0.7083 0.28403 0.0
C1542 C 0.5918 0.02025 0.55369 0.0
C1543 C 0.60327 1.00996 0.56233 0.0
C1544 C 0.58733 1.01674 0.537 0.0
C1545 C 0.60099 0.98961 0.49992 0.0
H1546 H 0.56282 1.01188 0.47935 0.0
C1547 C 0.58602 0.97807 0.42929 0.0
C1548 C 0.56891 0.97794 0.42483 0.0
C1549 C 0.5911 0.98456 0.44502 0.0
C1550 C 0.57339 1.00518 0.48475 0.0
H1551 H 0.61847 0.98743 0.56068 0.0
H1552 H 0.60909 0.97989 0.53242 0.0
H1553 H 0.56737 1.0148 0.50896 0.0
H1554 H 0.54384 0.98514 0.43279 0.0
H1555 H 0.55219 0.99554 0.45991 0.0
H1556 H 0.60587 0.97852 0.47591 0.0
C1557 C 0.60422 0.99137 0.53791 0.0
C1558 C 0.57632 1.00725 0.50201 0.0
C1559 C 0.60927 0.99536 0.55441 0.0
C1560 C 0.5572 0.98539 0.43578 0.0
C1561 C 0.56211 0.99142 0.45153 0.0
C1562 C 0.59762 0.98694 0.48276 0.0
C1563 C 0.59375 1.00242 0.52856 0.0
C1564 C 0.59023 0.99957 0.51003 0.0
C1565 C 0.57908 0.9906 0.45679 0.0
C1566 C 0.58368 0.99461 0.47482 0.0
H1567 H 0.58747 0.03194 0.55931 0.0
H1568 H 0.57962 0.02598 0.53062 0.0
H1569 H 0.61217 0.98377 0.5051 0.0
H1570 H 0.59527 0.97208 0.42121 0.0
H1571 H 0.60436 0.98411 0.44816 0.0
C1572 C 0.31422 0.33845 0.68316 0.0
C1573 C 0.30862 0.32299 0.67662 0.0
C1574 C 0.30876 0.34398 0.69905 0.0
C1575 C 0.29592 0.32551 0.73941 0.0
H1576 H 0.28571 0.37148 0.75237 0.0
C1577 C 0.27498 0.34391 0.80732 0.0
C1578 C 0.27831 0.36036 0.81296 0.0
C1579 C 0.27949 0.33897 0.79093 0.0
C1580 C 0.28886 0.3586 0.74908 0.0
H1581 H 0.29263 0.30138 0.6813 0.0
H1582 H 0.28282 0.31111 0.70886 0.0
H1583 H 0.28999 0.36465 0.72273 0.0
H1584 H 0.28996 0.38414 0.80638 0.0
H1585 H 0.29889 0.37526 0.77837 0.0
H1586 H 0.29526 0.31946 0.76571 0.0
C1587 C 0.29135 0.31905 0.70173 0.0
C1588 C 0.29115 0.35469 0.73201 0.0
C1589 C 0.29667 0.31365 0.68578 0.0
C1590 C 0.28741 0.37131 0.80242 0.0
C1591 C 0.29219 0.3663 0.7862 0.0
C1592 C 0.29383 0.32945 0.75651 0.0
C1593 C 0.29787 0.33394 0.70885 0.0
C1594 C 0.29468 0.33809 0.72694 0.0
C1595 C 0.28761 0.35034 0.77989 0.0
C1596 C 0.29029 0.34607 0.76165 0.0
H1597 H 0.32393 0.34554 0.67666 0.0
H1598 H 0.31412 0.35544 0.7042 0.0
H1599 H 0.29895 0.31263 0.73598 0.0
H1600 H 0.26753 0.33538 0.81497 0.0
H1601 H 0.27559 0.32663 0.7866 0.0
C1602 C 0.91231 0.0384 0.05056 0.0
C1603 C 0.92396 0.03061 0.06139 0.0
C1604 C 0.91696 0.04309 0.0342 0.0
C1605 C 0.95389 0.0468 1.00466 0.0
H1606 H 0.91922 0.04048 0.97071 0.0
C1607 C 0.97024 0.04823 0.93419 0.0
C1608 C 0.96102 0.06014 0.92485 0.0
C1609 C 0.96464 0.043 0.95009 0.0
C1610 C 0.92901 0.04231 0.98005 0.0
H1611 H 0.94974 0.02201 0.06375 0.0
H1612 H 0.95784 0.02976 0.03513 0.0
H1613 H 0.91241 0.03624 1.00038 0.0
H1614 H 0.9384 0.07536 0.92447 0.0
H1615 H 0.92813 0.0656 0.95194 0.0
H1616 H 0.97056 0.0524 0.98414 0.0
C1617 C 0.94521 0.03278 0.03931 0.0
C1618 C 0.92511 0.04006 0.99714 0.0
C1619 C 0.94062 0.02842 0.05583 0.0
C1620 C 0.94541 0.06569 0.93111 0.0
C1621 C 0.93968 0.06028 0.94696 0.0
C1622 C 0.95784 0.04877 0.98756 0.0
C1623 C 0.93327 0.03968 0.02804 0.0
C1624 C 0.93746 0.04237 1.00976 0.0
C1625 C 0.94966 0.04953 0.95696 0.0
C1626 C 0.94545 0.04659 0.97505 0.0
H1627 H 0.89933 0.04009 0.05448 0.0
H1628 H 0.90751 0.04886 0.0262 0.0
H1629 H 0.96372 0.04899 1.01388 0.0
H1630 H 0.98259 0.04421 0.92991 0.0
H1631 H 0.97253 0.03459 0.95741 0.0
C1632 C 0.35201 0.21078 0.33899 0.0
C1633 C 0.36172 0.2212 0.32847 0.0
C1634 C 0.33668 0.21642 0.34559 0.0
C1635 C 0.30271 0.24683 0.33534 0.0
H1636 H 0.28365 0.23015 0.37712 0.0
C1637 C 0.23163 0.25561 0.3509 0.0
C1638 C 0.2279 0.26031 0.36757 0.0
C1639 C 0.24789 0.24993 0.34661 0.0
C1640 C 0.28874 0.23506 0.36544 0.0
H1641 H 0.36341 0.24594 0.31716 0.0
H1642 H 0.33684 0.2562 0.32927 0.0
H1643 H 0.31305 0.22458 0.37062 0.0
H1644 H 0.23805 0.26178 0.39293 0.0
H1645 H 0.26603 0.25216 0.38553 0.0
H1646 H 0.2785 0.25778 0.33044 0.0
C1647 C 0.34097 0.24353 0.33226 0.0
C1648 C 0.30566 0.23171 0.36163 0.0
C1649 C 0.35639 0.23783 0.32563 0.0
C1650 C 0.24045 0.25826 0.37995 0.0
C1651 C 0.25658 0.25265 0.37569 0.0
C1652 C 0.2858 0.2503 0.33922 0.0
C1653 C 0.33057 0.23264 0.34177 0.0
C1654 C 0.3129 0.23745 0.34648 0.0
C1655 C 0.26072 0.24879 0.3589 0.0
C1656 C 0.27854 0.24444 0.35432 0.0
H1657 H 0.35561 0.19773 0.34097 0.0
H1658 H 0.32907 0.20754 0.35264 0.0
H1659 H 0.30768 0.25123 0.32341 0.0
H1660 H 0.22232 0.25718 0.34104 0.0
H1661 H 0.25049 0.24679 0.33358 0.0
C1662 C 0.0276 0.98092 0.59555 0.0
C1663 C 0.02919 0.97569 0.6124 0.0
C1664 C 0.03203 0.99742 0.59084 0.0
C1665 C 0.05566 0.03557 0.6037 0.0
H1666 H 0.02062 0.05984 0.57974 0.0
C1667 C 0.06336 0.10663 0.59029 0.0
C1668 C 0.05871 0.11195 0.57408 0.0
C1669 C 0.05809 0.09085 0.59639 0.0
C1670 C 0.03066 0.05328 0.58627 0.0
H1671 H 0.03755 0.98322 0.63726 0.0
H1672 H 0.04595 1.01167 0.62892 0.0
H1673 H 1.01699 0.02993 0.58588 0.0
H1674 H 0.04457 0.10528 0.55175 0.0
H1675 H 0.03541 0.07799 0.56218 0.0
H1676 H 0.06959 0.05866 0.60373 0.0
C1677 C 0.04115 1.00316 0.61937 0.0
C1678 C 0.02856 0.03607 0.58976 0.0
C1679 C 0.03642 0.98683 0.62414 0.0
C1680 C 0.04784 0.10174 0.56454 0.0
C1681 C 0.04271 0.08595 0.57053 0.0
C1682 C 0.05787 0.05273 0.60001 0.0
C1683 C 0.03841 1.00887 0.60282 0.0
C1684 C 0.04105 0.027 0.59849 0.0
C1685 C 0.04835 0.07993 0.58626 0.0
C1686 C 0.04541 0.06188 0.59122 0.0
H1687 H 0.02172 0.97275 0.58632 0.0
H1688 H 0.02991 1.0014 0.57795 0.0
H1689 H 0.06553 0.02893 0.61041 0.0
H1690 H 0.07216 0.11403 0.59767 0.0
H1691 H 0.0624 0.08689 0.60872 0.0
C1692 C 0.18411 0.81528 0.83957 0.0
C1693 C 0.17747 0.80956 0.8242 0.0
C1694 C 0.2 0.80976 0.8451 0.0
C1695 C 0.23294 0.79176 0.8557 0.0
H1696 H 0.26646 0.79624 0.82036 0.0
C1697 C 0.30354 0.78716 0.8718 0.0
C1698 C 0.31401 0.77843 0.86052 0.0
C1699 C 0.28726 0.7921 0.86705 0.0
C1700 C 0.25733 0.79468 0.83038 0.0
H1701 H 0.18194 0.79328 0.80279 0.0
H1702 H 0.2095 0.78342 0.8125 0.0
H1703 H 0.23669 0.80005 0.81375 0.0
H1704 H 0.31585 0.76841 0.83524 0.0
H1705 H 0.28739 0.77666 0.82694 0.0
H1706 H 0.25338 0.78599 0.87229 0.0
C1707 C 0.20245 0.79207 0.82037 0.0
C1708 C 0.2402 0.79687 0.82656 0.0
C1709 C 0.1865 0.79743 0.81499 0.0
C1710 C 0.30824 0.77557 0.84404 0.0
C1711 C 0.29179 0.7802 0.83936 0.0
C1712 C 0.25005 0.78934 0.85949 0.0
C1713 C 0.20969 0.79871 0.83513 0.0
C1714 C 0.22779 0.79549 0.83918 0.0
C1715 C 0.28083 0.78801 0.85101 0.0
C1716 C 0.26256 0.79087 0.84691 0.0
H1717 H 0.17771 0.82513 0.84656 0.0
H1718 H 0.20525 0.8152 0.85647 0.0
H1719 H 0.2237 0.79051 0.86569 0.0
H1720 H 0.3076 0.78934 0.88466 0.0
H1721 H 0.27951 0.79855 0.87625 0.0
C1722 C 0.50727 0.05344 0.09664 0.0
C1723 C 0.50624 0.05855 0.11356 0.0
C1724 C 0.50268 0.03699 0.09197 0.0
C1725 C 0.47957 0.99865 0.10512 0.0
H1726 H 0.51433 0.97479 0.08038 0.0
C1727 C 0.472 0.92765 0.09053 0.0
C1728 C 0.47654 0.92272 0.07417 0.0
C1729 C 0.47714 0.94339 0.09687 0.0
C1730 C 0.50436 0.98123 0.08712 0.0
H1731 H 0.49865 0.05086 0.13863 0.0
H1732 H 0.48994 0.02247 0.13036 0.0
H1733 H 0.51793 1.00463 0.08676 0.0
H1734 H 0.49036 0.92999 0.05183 0.0
H1735 H 0.4993 0.95716 0.06265 0.0
H1736 H 0.46571 0.9755 0.10509 0.0
C1737 C 0.49445 0.03104 0.12073 0.0
C1738 C 0.50644 0.9984 0.09075 0.0
C1739 C 0.49935 0.04734 0.12545 0.0
C1740 C 0.48714 0.93327 0.0647 0.0
C1741 C 0.49217 0.94897 0.07093 0.0
C1742 C 0.47735 0.98153 0.10127 0.0
C1743 C 0.49669 0.02545 0.10408 0.0
C1744 C 0.49405 1.00734 0.09973 0.0
C1745 C 0.4867 0.9546 0.08686 0.0
C1746 C 0.48968 0.97253 0.09215 0.0
H1747 H 0.51288 0.06167 0.08728 0.0
H1748 H 0.50441 0.03309 0.079 0.0
H1749 H 0.46978 1.00519 0.11205 0.0
H1750 H 0.46342 0.91997 0.09788 0.0
H1751 H 0.47294 0.94706 0.10932 0.0
C1752 C 0.35579 0.81299 0.19305 0.0
C1753 C 0.36153 0.80797 0.20901 0.0
C1754 C 0.33992 0.80774 0.18719 0.0
C1755 C 0.30274 0.77988 0.19751 0.0
H1756 H 0.2777 0.81537 0.17499 0.0
C1757 C 0.23025 0.77662 0.18962 0.0
C1758 C 0.22472 0.77863 0.17292 0.0
C1759 C 0.24677 0.78109 0.19417 0.0
C1760 C 0.28454 0.80533 0.18125 0.0
H1761 H 0.35554 0.79318 0.2311 0.0
H1762 H 0.32808 0.78404 0.22109 0.0
H1763 H 0.30757 0.81934 0.18108 0.0
H1764 H 0.23172 0.78775 0.14817 0.0
H1765 H 0.26021 0.79626 0.15626 0.0
H1766 H 0.27944 0.76612 0.19804 0.0
C1767 C 0.33578 0.79162 0.21274 0.0
C1768 C 0.30176 0.80749 0.18459 0.0
C1769 C 0.35167 0.79673 0.21848 0.0
C1770 C 0.23556 0.78634 0.1612 0.0
C1771 C 0.25192 0.7911 0.16582 0.0
C1772 C 0.28546 0.77783 0.19437 0.0
C1773 C 0.32932 0.79766 0.19733 0.0
C1774 C 0.31117 0.79481 0.19278 0.0
C1775 C 0.25795 0.78792 0.18217 0.0
C1776 C 0.27614 0.79053 0.18621 0.0
H1777 H 0.36291 0.82207 0.18574 0.0
H1778 H 0.33563 0.81235 0.17508 0.0
H1779 H 0.30948 0.76968 0.20359 0.0
H1780 H 0.22232 0.77034 0.19881 0.0
H1781 H 0.25101 0.77862 0.20692 0.0
C1782 C 0.50094 0.97817 0.43535 0.0
C1783 C 0.50438 0.97438 0.41839 0.0
C1784 C 0.49546 0.9944 0.43997 0.0
C1785 C 0.47952 0.03537 0.42205 0.0
H1786 H 0.49864 0.05416 0.46288 0.0
C1787 C 0.45785 0.09913 0.44934 0.0
C1788 C 0.46886 0.1087 0.45937 0.0
C1789 C 0.46291 0.08368 0.44258 0.0
C1790 C 0.49341 0.04925 0.45127 0.0
H1791 H 0.50373 0.98431 0.39293 0.0
H1792 H 0.49443 1.01226 0.40085 0.0
H1793 H 0.50437 0.02491 0.4555 0.0
H1794 H 0.4941 0.11 0.46958 0.0
H1795 H 0.50337 0.08322 0.45712 0.0
H1796 H 0.46913 0.05981 0.41743 0.0
C1797 C 0.49573 1.00289 0.4107 0.0
C1798 C 0.49641 0.03228 0.44721 0.0
C1799 C 0.50112 0.98677 0.40612 0.0
C1800 C 0.48551 0.10309 0.46152 0.0
C1801 C 0.49065 0.08754 0.4547 0.0
C1802 C 0.47669 0.05235 0.426 0.0
C1803 C 0.49329 1.00716 0.42773 0.0
C1804 C 0.48946 0.02505 0.43255 0.0
C1805 C 0.47918 0.0773 0.44569 0.0
C1806 C 0.48348 0.05955 0.44073 0.0
H1807 H 0.50353 0.96899 0.44513 0.0
H1808 H 0.49339 0.99707 0.45319 0.0
H1809 H 0.47376 0.03034 0.41075 0.0
H1810 H 0.4448 0.10298 0.44786 0.0
H1811 H 0.45358 0.07623 0.43596 0.0
C1812 C 0.18492 0.23872 0.72152 0.0
C1813 C 0.17597 0.22649 0.71234 0.0
C1814 C 0.20091 0.24403 0.71622 0.0
C1815 C 0.2387 0.23914 0.71045 0.0
H1816 H 0.2524 0.2493 0.66471 0.0
C1817 C 0.30701 0.25985 0.69329 0.0
C1818 C 0.31293 0.25664 0.67693 0.0
C1819 C 0.2905 0.25538 0.6979 0.0
C1820 C 0.24891 0.24616 0.67752 0.0
H1821 H 0.17641 0.21074 0.69012 0.0
H1822 H 0.20402 0.22058 0.68036 0.0
H1823 H 0.22263 0.24502 0.67108 0.0
H1824 H 0.30671 0.24529 0.65294 0.0
H1825 H 0.27848 0.2364 0.66124 0.0
H1826 H 0.26491 0.23974 0.71691 0.0
C1827 C 0.19867 0.22612 0.69163 0.0
C1828 C 0.23176 0.24387 0.68117 0.0
C1829 C 0.18274 0.22065 0.69707 0.0
C1830 C 0.30253 0.24773 0.66571 0.0
C1831 C 0.28618 0.24297 0.67039 0.0
C1832 C 0.25588 0.24119 0.70678 0.0
C1833 C 0.20828 0.23726 0.70159 0.0
C1834 C 0.22643 0.24039 0.69769 0.0
C1835 C 0.27962 0.24741 0.68629 0.0
C1836 C 0.26129 0.24473 0.69025 0.0
H1837 H 0.18026 0.24297 0.73365 0.0
H1838 H 0.2079 0.25275 0.72408 0.0
H1839 H 0.23506 0.23614 0.72327 0.0
H1840 H 0.31457 0.26714 0.70203 0.0
H1841 H 0.28599 0.25919 0.7102 0.0
C1842 C 0.06364 0.93231 0.94738 0.0
C1843 C 0.05834 0.92608 0.96308 0.0
C1844 C 0.05817 0.94818 0.94172 0.0
C1845 C 0.04654 0.98891 0.95988 0.0
H1846 H 0.03378 1.00136 0.91443 0.0
C1847 C 0.0253 0.05689 0.9422 0.0
C1848 C 0.02759 0.0624 0.92554 0.0
C1849 C 0.02982 0.04042 0.94691 0.0
C1850 C 0.03766 0.99822 0.92714 0.0
H1851 H 0.04289 0.93124 0.98495 0.0
H1852 H 0.03313 0.95876 0.97502 0.0
H1853 H 0.03835 0.97176 0.92139 0.0
H1854 H 0.0374 0.05547 0.90106 0.0
H1855 H 0.04636 0.0273 0.90946 0.0
H1856 H 0.04641 1.01528 0.96561 0.0
C1857 C 0.0414 0.95141 0.967 0.0
C1858 C 0.04011 0.98117 0.93113 0.0
C1859 C 0.0467 0.9355 0.97253 0.0
C1860 C 0.03561 0.05159 0.91403 0.0
C1861 C 0.04043 0.03529 0.9188 0.0
C1862 C 0.04433 1.00598 0.95584 0.0
C1863 C 0.04762 0.95824 0.95187 0.0
C1864 C 0.04449 0.9763 0.94757 0.0
C1865 C 0.03695 0.02917 0.93511 0.0
C1866 C 0.03983 1.01094 0.9394 0.0
H1867 H 0.07311 0.92559 0.94018 0.0
H1868 H 0.06327 0.95312 0.93006 0.0
H1869 H 0.05024 0.98561 0.9726 0.0
H1870 H 0.01874 0.06478 0.95121 0.0
H1871 H 0.02676 0.03626 0.95954 0.0
C1872 C 0.31327 0.35057 0.24021 0.0
C1873 C 0.32317 0.36103 0.22991 0.0
C1874 C 0.31915 0.33472 0.24527 0.0
C1875 C 0.34934 0.30194 0.23062 0.0
H1876 H 0.33404 0.27837 0.27062 0.0
C1877 C 0.37358 0.23611 0.25186 0.0
C1878 C 0.36183 0.22471 0.25868 0.0
C1879 C 0.36869 0.25241 0.24718 0.0
C1880 C 0.33824 0.28473 0.25928 0.0
H1881 H 0.34726 0.36349 0.21743 0.0
H1882 H 0.35808 0.33622 0.22707 0.0
H1883 H 0.32776 0.30829 0.26725 0.0
H1884 H 0.33559 0.22126 0.26538 0.0
H1885 H 0.32699 0.24988 0.25726 0.0
H1886 H 0.36017 0.27835 0.22293 0.0
C1887 C 0.34557 0.34004 0.23098 0.0
C1888 C 0.33468 0.30194 0.25734 0.0
C1889 C 0.33958 0.35589 0.22579 0.0
C1890 C 0.34485 0.22966 0.25986 0.0
C1891 C 0.34 0.24612 0.25546 0.0
C1892 C 0.35308 0.28478 0.23268 0.0
C1893 C 0.33512 0.32889 0.24013 0.0
C1894 C 0.34007 0.31082 0.24292 0.0
C1895 C 0.35198 0.25783 0.24953 0.0
C1896 C 0.34748 0.27593 0.24697 0.0
H1897 H 0.30034 0.35399 0.24304 0.0
H1898 H 0.31057 0.32658 0.25209 0.0
H1899 H 0.3534 0.3081 0.21913 0.0
H1900 H 0.38679 0.23272 0.25102 0.0
H1901 H 0.37824 0.26111 0.24271 0.0
C1902 C 0.84369 0.17794 0.81467 0.0
C1903 C 0.82787 0.1723 0.80903 0.0
C1904 C 0.84988 0.19376 0.80962 0.0
C1905 C 0.83283 0.23511 0.79925 0.0
H1906 H 0.87798 0.24698 0.78491 0.0
C1907 C 0.85018 0.30294 0.77778 0.0
C1908 C 0.86701 0.30828 0.77907 0.0
C1909 C 0.84561 0.28649 0.78249 0.0
C1910 C 0.86538 0.24401 0.78926 0.0
H1911 H 0.80645 0.17838 0.79326 0.0
H1912 H 0.8173 0.20578 0.78428 0.0
H1913 H 0.87071 0.21742 0.78943 0.0
H1914 H 0.892 0.30107 0.78731 0.0
H1915 H 0.8839 0.27294 0.79667 0.0
H1916 H 0.82751 0.26154 0.7997 0.0
C1917 C 0.82497 0.19804 0.79251 0.0
C1918 C 0.86121 0.22698 0.79168 0.0
C1919 C 0.81891 0.18221 0.7974 0.0
C1920 C 0.8789 0.29731 0.7863 0.0
C1921 C 0.87428 0.28103 0.79134 0.0
C1922 C 0.83706 0.25213 0.79713 0.0
C1923 C 0.84016 0.20431 0.79914 0.0
C1924 C 0.84484 0.22233 0.79652 0.0
C1925 C 0.85772 0.27509 0.78887 0.0
C1926 C 0.85338 0.2569 0.79197 0.0
H1927 H 0.85053 0.17082 0.82412 0.0
H1928 H 0.8616 0.19829 0.81498 0.0
H1929 H 0.82018 0.23195 0.80332 0.0
H1930 H 0.84084 0.31095 0.77185 0.0
H1931 H 0.83277 0.28249 0.78017 0.0
C1932 C 0.97978 0.59575 0.0279 0.0
C1933 C 0.97544 0.61293 0.02853 0.0
C1934 C 0.99605 0.59046 0.0325 0.0
C1935 C 0.03517 0.60305 0.05491 0.0
H1936 H 0.05768 0.57522 0.02164 0.0
C1937 C 0.10591 0.58728 0.0621 0.0
C1938 C 0.11039 0.57049 0.05879 0.0
C1939 C 0.09019 0.59356 0.05683 0.0
C1940 C 0.0516 0.58285 0.03119 0.0
H1941 H 0.98432 0.63782 0.03543 0.0
H1942 H 1.01237 0.62853 0.04403 0.0
H1943 H 0.02804 0.5825 0.0179 0.0
H1944 H 0.1023 0.54725 0.04706 0.0
H1945 H 0.07513 0.55799 0.03786 0.0
H1946 H 0.05851 0.60313 0.06844 0.0
C1947 C 1.00336 0.61916 0.03986 0.0
C1948 C 0.03454 0.58698 0.02904 0.0
C1949 C 0.98725 0.62447 0.03499 0.0
C1950 C 0.09936 0.56042 0.04928 0.0
C1951 C 0.08368 0.56661 0.04411 0.0
C1952 C 0.05217 0.59876 0.05717 0.0
C1953 C 1.00818 0.60219 0.03808 0.0
C1954 C 0.0261 0.59712 0.04088 0.0
C1955 C 0.07854 0.58306 0.04838 0.0
C1956 C 0.06068 0.58857 0.04535 0.0
H1957 H 0.97106 0.58662 0.02269 0.0
H1958 H 0.99933 0.57726 0.03116 0.0
H1959 H 0.02902 0.61083 0.06431 0.0
H1960 H 0.11396 0.59514 0.06985 0.0
H1961 H 0.08688 0.6064 0.06008 0.0
C1962 C 0.69359 0.72824 0.27588 0.0
C1963 C 0.67725 0.72229 0.27925 0.0
C1964 C 0.69833 0.74463 0.28065 0.0
C1965 C 0.67814 0.78601 0.29086 0.0
H1966 H 0.724 0.79972 0.30063 0.0
C1967 C 0.69752 0.85193 0.31689 0.0
C1968 C 0.71278 0.85883 0.31115 0.0
C1969 C 0.6922 0.836 0.31131 0.0
C1970 C 0.71115 0.79612 0.29771 0.0
H1971 H 0.65347 0.7283 0.29117 0.0
H1972 H 0.66203 0.75629 0.30055 0.0
H1973 H 0.71761 0.76992 0.29661 0.0
H1974 H 0.73424 0.85476 0.29482 0.0
H1975 H 0.72487 0.82712 0.28481 0.0
H1976 H 0.67169 0.81226 0.29243 0.0
C1977 C 0.67104 0.74871 0.29365 0.0
C1978 C 0.70746 0.77898 0.29541 0.0
C1979 C 0.66623 0.7325 0.28861 0.0
C1980 C 0.72211 0.84999 0.29898 0.0
C1981 C 0.71693 0.834 0.29354 0.0
C1982 C 0.68181 0.80312 0.29335 0.0
C1983 C 0.68687 0.75535 0.28905 0.0
C1984 C 0.69088 0.77362 0.29197 0.0
C1985 C 0.70226 0.82652 0.30016 0.0
C1986 C 0.69836 0.80841 0.29677 0.0
H1987 H 0.70216 0.72084 0.26823 0.0
H1988 H 0.71057 0.74921 0.27672 0.0
H1989 H 0.66529 0.78257 0.2878 0.0
H1990 H 0.69044 0.85819 0.32676 0.0
H1991 H 0.68091 0.83057 0.31675 0.0
C1992 C 0.05574 0.94185 0.02759 0.0
C1993 C 0.06109 0.92509 0.02964 0.0
C1994 C 0.03932 0.94664 0.03217 0.0
C1995 C 0.99693 0.92711 0.03968 0.0
H1996 H 0.98469 0.97263 0.0525 0.0
C1997 C 0.93101 0.9481 0.06521 0.0
C1998 C 0.92504 0.96388 0.05984 0.0
C1999 C 0.94685 0.94222 0.0599 0.0
C2000 C 0.98789 0.95989 0.04874 0.0
H2001 H 0.05393 0.90052 0.03908 0.0
H2002 H 0.02585 0.90905 0.04818 0.0
H2003 H 1.01431 0.96537 0.04885 0.0
H2004 H 0.93063 0.98565 0.04436 0.0
H2005 H 0.95808 0.97533 0.03488 0.0
H2006 H 0.97039 0.92162 0.04015 0.0
C2007 C 0.03392 0.91841 0.04239 0.0
C2008 C 1.00493 0.9557 0.04663 0.0
C2009 C 0.05018 0.91357 0.0375 0.0
C2010 C 0.93469 0.97318 0.04824 0.0
C2011 C 0.95056 0.96743 0.0431 0.0
C2012 C 0.9799 0.93125 0.04205 0.0
C2013 C 0.02795 0.93483 0.03913 0.0
C2014 C 1.00976 0.93925 0.04201 0.0
C2015 C 0.95713 0.95222 0.04942 0.0
C2016 C 0.97517 0.94772 0.0465 0.0
H2017 H 0.06371 0.95089 0.02115 0.0
H2018 H 0.03528 0.95936 0.02927 0.0
H2019 H 0.99996 0.9144 0.03573 0.0
H2020 H 0.92411 0.94101 0.07464 0.0
H2021 H 0.95159 0.93049 0.06507 0.0
C2022 C 0.22535 0.68534 0.73974 0.0
C2023 C 0.21574 0.67601 0.72816 0.0
C2024 C 0.21997 0.70129 0.7451 0.0
C2025 C 0.18412 0.73121 0.74643 0.0
H2026 H 0.2187 0.76526 0.74013 0.0
C2027 C 0.16688 0.80157 0.74978 0.0
C2028 C 0.1782 0.81246 0.75796 0.0
C2029 C 0.17179 0.78526 0.74518 0.0
C2030 C 0.20891 0.75597 0.7422 0.0
H2031 H 0.19271 0.67572 0.71357 0.0
H2032 H 0.18284 0.70325 0.72353 0.0
H2033 H 0.2257 0.73554 0.73659 0.0
H2034 H 0.20371 0.81499 0.76729 0.0
H2035 H 0.21229 0.78645 0.7596 0.0
H2036 H 0.16737 0.75146 0.7524 0.0
C2037 C 0.19452 0.69824 0.72854 0.0
C2038 C 0.21295 0.73888 0.74017 0.0
C2039 C 0.20004 0.68237 0.723 0.0
C2040 C 0.19485 0.80703 0.76059 0.0
C2041 C 0.1997 0.79056 0.75627 0.0
C2042 C 0.18011 0.74828 0.74868 0.0
C2043 C 0.20481 0.70821 0.73903 0.0
C2044 C 0.20059 0.72628 0.74219 0.0
C2045 C 0.18805 0.77921 0.74903 0.0
C2046 C 0.19241 0.76097 0.74647 0.0
H2047 H 0.23779 0.681 0.74342 0.0
H2048 H 0.22811 0.70857 0.75331 0.0
H2049 H 0.17434 0.72182 0.74818 0.0
H2050 H 0.15391 0.80538 0.74775 0.0
H2051 H 0.16258 0.77719 0.73915 0.0
C2052 C 0.98402 0.41412 0.4973 0.0
C2053 C 0.97343 0.42531 0.50603 0.0
C2054 C 1.0003 0.41898 0.49253 0.0
C2055 C 0.03007 0.45582 0.49034 0.0
H2056 H 0.06384 0.42065 0.4947 0.0
C2057 C 0.10079 0.47162 0.48811 0.0
C2058 C 0.10997 0.46245 0.47606 0.0
C2059 C 0.08484 0.46613 0.49335 0.0
C2060 C 0.05456 0.43059 0.4934 0.0
H2061 H 0.97139 0.45054 0.51619 0.0
H2062 H 0.99988 0.45902 0.50822 0.0
H2063 H 0.03416 0.41388 0.49897 0.0
H2064 H 0.11 0.44005 0.46053 0.0
H2065 H 0.08244 0.42998 0.47024 0.0
H2066 H 0.05065 0.47257 0.48516 0.0
C2067 C 0.99555 0.4466 0.50457 0.0
C2068 C 0.03746 0.42671 0.49568 0.0
C2069 C 0.9791 0.44181 0.50904 0.0
C2070 C 0.10348 0.44701 0.47031 0.0
C2071 C 0.08758 0.44139 0.47571 0.0
C2072 C 0.04719 0.45972 0.48829 0.0
C2073 C 1.00663 0.43504 0.49678 0.0
C2074 C 0.0249 0.43924 0.49408 0.0
C2075 C 0.07775 0.45131 0.48667 0.0
C2076 C 0.05964 0.44716 0.48974 0.0
H2077 H 0.98002 0.40126 0.495 0.0
H2078 H 1.00815 0.40986 0.48609 0.0
H2079 H 0.02088 0.46579 0.48874 0.0
H2080 H 0.10524 0.48386 0.49228 0.0
H2081 H 0.07767 0.47397 0.50194 0.0
C2082 C 0.43129 0.56784 0.98788 0.0
C2083 C 0.42123 0.57669 0.97632 0.0
C2084 C 0.447 0.57412 0.99284 0.0
C2085 C 0.48047 0.60264 0.9764 0.0
H2086 H 0.50283 0.5902 0.01805 0.0
C2087 C 0.54668 0.62647 0.99767 0.0
C2088 C 0.55755 0.61462 1.00516 0.0
C2089 C 0.53029 0.62194 0.99292 0.0
C2090 C 0.4968 0.59361 1.00628 0.0
H2091 H 0.41931 0.59947 0.96149 0.0
H2092 H 0.44633 0.6111 0.9709 0.0
H2093 H 0.47286 0.58438 1.01458 0.0
H2094 H 0.55996 0.5886 1.01307 0.0
H2095 H 0.5312 0.58066 1.00488 0.0
H2096 H 0.50448 0.61232 0.96841 0.0
C2097 C 0.44231 0.59905 0.97589 0.0
C2098 C 0.47956 0.59029 1.00426 0.0
C2099 C 0.42659 0.59263 0.9708 0.0
C2100 C 0.552 0.59789 1.00697 0.0
C2101 C 0.53545 0.59343 1.00255 0.0
C2102 C 0.49766 0.6062 0.97854 0.0
C2103 C 0.4531 0.5895 0.98636 0.0
C2104 C 0.47113 0.59456 0.98921 0.0
C2105 C 0.52427 0.60554 0.99593 0.0
C2106 C 0.50607 0.60153 0.99342 0.0
H2107 H 0.42769 0.55525 0.99187 0.0
H2108 H 0.45485 0.5662 1.00071 0.0
H2109 H 0.47466 0.60583 0.96447 0.0
H2110 H 0.55055 0.63952 0.99639 0.0
H2111 H 0.52198 0.63156 0.98791 0.0
C2112 C 0.73863 0.8173 0.8514 0.0
C2113 C 0.7263 0.82648 0.86019 0.0
C2114 C 0.74413 0.8226 0.83549 0.0
C2115 C 0.73919 0.82828 0.79771 0.0
H2116 H 0.75035 0.87378 0.7839 0.0
C2117 C 0.76012 0.84457 0.72935 0.0
C2118 C 0.75733 0.86099 0.72333 0.0
C2119 C 0.75566 0.84021 0.74592 0.0
C2120 C 0.74693 0.86104 0.78741 0.0
H2121 H 0.71059 0.84876 0.85959 0.0
H2122 H 0.72078 0.85854 0.83211 0.0
H2123 H 0.74583 0.8676 0.81366 0.0
H2124 H 0.74671 0.88536 0.72945 0.0
H2125 H 0.73781 0.87751 0.75778 0.0
H2126 H 0.73968 0.82172 0.77156 0.0
C2127 C 0.72625 0.84725 0.83753 0.0
C2128 C 0.74451 0.8575 0.80456 0.0
C2129 C 0.72058 0.8418 0.85338 0.0
C2130 C 0.74886 0.87255 0.73372 0.0
C2131 C 0.74409 0.86812 0.75012 0.0
C2132 C 0.74135 0.83186 0.78054 0.0
C2133 C 0.73745 0.83725 0.82805 0.0
C2134 C 0.74069 0.84106 0.80992 0.0
C2135 C 0.74808 0.85213 0.75676 0.0
C2136 C 0.74527 0.8483 0.77509 0.0
H2137 H 0.7428 0.80515 0.85609 0.0
H2138 H 0.75289 0.81471 0.82858 0.0
H2139 H 0.73592 0.81553 0.80139 0.0
H2140 H 0.76705 0.83554 0.72179 0.0
H2141 H 0.75912 0.82782 0.75047 0.0
C2142 C 0.45881 0.48937 0.10826 0.0
C2143 C 0.45608 0.47286 0.11403 0.0
C2144 C 0.45193 0.49469 0.09282 0.0
C2145 C 0.42215 0.48207 0.05817 0.0
H2146 H 0.45328 0.5072 0.03005 0.0
C2147 C 0.43245 0.50398 0.98352 0.0
C2148 C 0.41583 0.50888 0.97981 0.0
C2149 C 0.4368 0.49861 0.99986 0.0
C2150 C 0.44451 0.49998 0.03763 0.0
H2151 H 0.44353 0.44925 0.1087 0.0
H2152 H 0.43138 0.45842 0.08213 0.0
H2153 H 0.46055 0.50136 0.0593 0.0
H2154 H 0.39057 0.51102 0.99011 0.0
H2155 H 0.39805 0.50189 0.01825 0.0
H2156 H 0.40641 0.4801 0.03636 0.0
C2157 C 0.43855 0.46748 0.08941 0.0
C2158 C 0.44853 0.49691 0.05458 0.0
C2159 C 0.4454 0.46222 0.10476 0.0
C2160 C 0.40351 0.50732 0.99249 0.0
C2161 C 0.40781 0.502 1.00871 0.0
C2162 C 0.41819 0.48503 0.04122 0.0
C2163 C 0.44229 0.48354 0.08284 0.0
C2164 C 0.43742 0.48789 0.06511 0.0
C2165 C 0.42459 0.49799 1.0128 0.0
C2166 C 0.42928 0.49405 0.03068 0.0
H2167 H 0.46741 0.49765 0.11491 0.0
H2168 H 0.45486 0.50725 0.08833 0.0
H2169 H 0.41319 0.47518 0.06583 0.0
H2170 H 0.44227 0.50516 0.9741 0.0
H2171 H 0.4498 0.49532 1.00243 0.0
C2172 C 0.7984 0.22395 0.34897 0.0
C2173 C 0.80914 0.21408 0.359 0.0
C2174 C 0.79333 0.21838 0.33301 0.0
C2175 C 0.80859 0.18971 0.29923 0.0
H2176 H 0.76741 0.20358 0.27681 0.0
C2177 C 0.78709 0.16547 0.23361 0.0
C2178 C 0.77915 0.17692 0.22265 0.0
C2179 C 0.79205 0.17044 0.24979 0.0
C2180 C 0.77908 0.19981 0.28284 0.0
H2181 H 0.82246 0.19035 0.36057 0.0
H2182 H 0.81283 0.18004 0.33313 0.0
H2183 H 0.77115 0.20949 0.30675 0.0
H2184 H 0.77068 0.20272 0.21985 0.0
H2185 H 0.77934 0.21147 0.24821 0.0
H2186 H 0.81629 0.1797 0.27531 0.0
C2187 C 0.80855 0.1923 0.33737 0.0
C2188 C 0.78122 0.20315 0.30006 0.0
C2189 C 0.81375 0.19798 0.3533 0.0
C2190 C 0.77714 0.19373 0.22786 0.0
C2191 C 0.78182 0.19865 0.24421 0.0
C2192 C 0.80635 0.18621 0.28206 0.0
C2193 C 0.79892 0.20276 0.32666 0.0
C2194 C 0.79604 0.19821 0.30853 0.0
C2195 C 0.78885 0.1869 0.25554 0.0
C2196 C 0.79161 0.19129 0.27362 0.0
H2197 H 0.7952 0.23668 0.35281 0.0
H2198 H 0.78611 0.22695 0.32521 0.0
H2199 H 0.82037 0.18605 0.30508 0.0
H2200 H 0.78852 0.15236 0.23003 0.0
H2201 H 0.79734 0.16105 0.25819 0.0
C2202 C 0.08568 0.56421 0.60341 0.0
C2203 C 0.06984 0.55897 0.60934 0.0
C2204 C 0.09156 0.55885 0.5876 0.0
C2205 C 0.07405 0.54759 0.54646 0.0
H2206 H 0.11969 0.53468 0.53483 0.0
C2207 C 0.09294 0.52671 0.47874 0.0
C2208 C 0.10973 0.52893 0.47357 0.0
C2209 C 0.08793 0.53115 0.49512 0.0
C2210 C 0.10694 0.5386 0.53774 0.0
H2211 H 0.04791 0.54376 0.60367 0.0
H2212 H 0.05821 0.53419 0.57624 0.0
H2213 H 0.11219 0.5391 0.5643 0.0
H2214 H 0.13415 0.53854 0.48105 0.0
H2215 H 0.12524 0.54737 0.50908 0.0
H2216 H 0.06881 0.54764 0.52 0.0
C2217 C 0.06618 0.54232 0.58379 0.0
C2218 C 0.10263 0.54097 0.55472 0.0
C2219 C 0.06043 0.54752 0.59965 0.0
C2220 C 0.12107 0.53681 0.48466 0.0
C2221 C 0.11601 0.54155 0.50088 0.0
C2222 C 0.0784 0.54546 0.52947 0.0
C2223 C 0.08149 0.54847 0.57729 0.0
C2224 C 0.08611 0.54542 0.5593 0.0
C2225 C 0.09956 0.53813 0.50665 0.0
C2226 C 0.09492 0.54091 0.5248 0.0
H2227 H 0.09286 0.57355 0.61034 0.0
H2228 H 0.10336 0.56389 0.58292 0.0
H2229 H 0.06127 0.55134 0.54954 0.0
H2230 H 0.08404 0.52025 0.47063 0.0
H2231 H 0.07519 0.52813 0.49901 0.0
C2232 C 0.73947 0.21062 0.67797 0.0
C2233 C 0.72281 0.20829 0.67246 0.0
C2234 C 0.74484 0.20368 0.69337 0.0
C2235 C 0.74757 0.20021 0.73161 0.0
H2236 H 0.73027 0.15833 0.74994 0.0
C2237 C 0.7553 0.18365 0.80252 0.0
C2238 C 0.76004 0.16694 0.80607 0.0
C2239 C 0.7498 0.18817 0.78627 0.0
C2240 C 0.73533 0.17003 0.74505 0.0
H2241 H 0.69896 0.1964 0.67825 0.0
H2242 H 0.70823 0.18412 0.70474 0.0
H2243 H 0.72496 0.16536 0.72059 0.0
H2244 H 0.76176 0.14173 0.7956 0.0
H2245 H 0.75235 0.1495 0.76762 0.0
H2246 H 0.75834 0.20464 0.75599 0.0
C2247 C 0.71735 0.19103 0.69728 0.0
C2248 C 0.73215 0.17414 0.72817 0.0
C2249 C 0.71202 0.19797 0.68198 0.0
C2250 C 0.75819 0.15473 0.79334 0.0
C2251 C 0.75272 0.1592 0.77721 0.0
C2252 C 0.75083 0.19605 0.74849 0.0
C2253 C 0.73362 0.19435 0.70356 0.0
C2254 C 0.73816 0.18932 0.7212 0.0
C2255 C 0.74886 0.17605 0.77327 0.0
C2256 C 0.74473 0.1809 0.75548 0.0
H2257 H 0.74787 0.21894 0.67112 0.0
H2258 H 0.75755 0.20628 0.69764 0.0
H2259 H 0.75217 0.21215 0.72685 0.0
H2260 H 0.75673 0.1934 0.81198 0.0
H2261 H 0.74665 0.20123 0.78381 0.0
C2262 C 0.06694 0.48607 0.9364 0.0
C2263 C 0.07576 0.47424 0.92663 0.0
C2264 C 0.07281 0.49072 0.95235 0.0
C2265 C 0.1086 0.49025 0.98193 0.0
H2266 H 0.07393 0.48399 1.01588 0.0
C2267 C 0.12525 0.49568 0.05237 0.0
C2268 C 0.11358 0.50382 0.06291 0.0
C2269 C 0.12064 0.49043 0.03617 0.0
C2270 C 0.08376 0.48604 1.00663 0.0
H2271 H 0.098 0.45849 0.92555 0.0
H2272 H 0.10875 0.46716 0.95326 0.0
H2273 H 0.067 0.48047 0.98619 0.0
H2274 H 0.08778 0.51243 0.06495 0.0
H2275 H 0.07972 0.5037 0.03662 0.0
H2276 H 0.12528 0.49637 1.00218 0.0
C2277 C 0.09729 0.47289 0.94852 0.0
C2278 C 0.07976 0.48399 0.98956 0.0
C2279 C 0.09128 0.46809 0.93256 0.0
C2280 C 0.09691 0.50576 0.05728 0.0
C2281 C 0.09236 0.50083 0.04091 0.0
C2282 C 0.11256 0.49257 0.999 0.0
C2283 C 0.08767 0.48363 0.9589 0.0
C2284 C 0.09211 0.48612 0.977 0.0
C2285 C 0.10433 0.49362 0.02988 0.0
C2286 C 0.1002 0.4905 1.01166 0.0
H2287 H 0.05469 0.4906 0.93232 0.0
H2288 H 0.06523 0.49917 0.95996 0.0
H2289 H 0.11837 0.49203 0.97254 0.0
H2290 H 0.13825 0.49421 0.05634 0.0
H2291 H 0.13011 0.48446 0.02837 0.0
C2292 C 0.77648 0.84274 0.30932 0.0
C2293 C 0.77924 0.85925 0.3151 0.0
C2294 C 0.78111 0.83812 0.29288 0.0
C2295 C 0.78988 0.8584 0.25118 0.0
H2296 H 0.80124 0.81283 0.23775 0.0
C2297 C 0.81579 0.83919 0.18514 0.0
C2298 C 0.81032 0.82373 0.17846 0.0
C2299 C 0.81029 0.84451 0.20109 0.0
C2300 C 0.79787 0.82559 0.24128 0.0
H2301 H 0.78999 0.88349 0.30871 0.0
H2302 H 0.79916 0.87519 0.2806 0.0
H2303 H 0.79739 0.81933 0.26752 0.0
H2304 H 0.79455 0.80193 0.18296 0.0
H2305 H 0.78471 0.81129 0.21063 0.0
H2306 H 0.79088 0.86467 0.22487 0.0
C2307 C 0.7928 0.86593 0.28836 0.0
C2308 C 0.79567 0.82934 0.2584 0.0
C2309 C 0.78788 0.87062 0.30463 0.0
C2310 C 0.79849 0.81419 0.18756 0.0
C2311 C 0.79315 0.81938 0.20356 0.0
C2312 C 0.79231 0.85469 0.23408 0.0
C2313 C 0.7888 0.84986 0.28192 0.0
C2314 C 0.79164 0.84582 0.26365 0.0
C2315 C 0.79951 0.83427 0.2108 0.0
C2316 C 0.79627 0.83822 0.2289 0.0
H2317 H 0.76941 0.83386 0.31694 0.0
H2318 H 0.77765 0.82567 0.28846 0.0
H2319 H 0.78636 0.87116 0.25455 0.0
H2320 H 0.82541 0.84644 0.17868 0.0
H2321 H 0.81552 0.85599 0.20634 0.0
C2322 C 0.44261 0.52729 0.55546 0.0
C2323 C 0.42554 0.52824 0.56015 0.0
C2324 C 0.44766 0.53186 0.53911 0.0
C2325 C 0.43481 0.55475 0.50041 0.0
H2326 H 0.46109 0.52076 0.4771 0.0
C2327 C 0.44898 0.56207 0.42949 0.0
C2328 C 0.46551 0.55824 0.4245 0.0
C2329 C 0.44295 0.55678 0.44528 0.0
C2330 C 0.45391 0.5305 0.4834 0.0
H2331 H 0.40062 0.53567 0.55181 0.0
H2332 H 0.4095 0.54426 0.52363 0.0
H2333 H 0.45445 0.5171 0.50688 0.0
H2334 H 0.48854 0.54557 0.43178 0.0
H2335 H 0.47822 0.53635 0.45909 0.0
H2336 H 0.43456 0.56841 0.47717 0.0
C2337 C 0.41898 0.53985 0.53244 0.0
C2338 C 0.45014 0.5284 0.50053 0.0
C2339 C 0.41389 0.535 0.54861 0.0
C2340 C 0.47552 0.54817 0.43508 0.0
C2341 C 0.4696 0.54301 0.45087 0.0
C2342 C 0.43875 0.55697 0.48333 0.0
C2343 C 0.4358 0.53774 0.52726 0.0
C2344 C 0.44055 0.54049 0.50926 0.0
C2345 C 0.45346 0.54783 0.45653 0.0
C2346 C 0.44836 0.54488 0.47452 0.0
H2347 H 0.4518 0.52182 0.56396 0.0
H2348 H 0.46075 0.53025 0.53555 0.0
H2349 H 0.42745 0.56433 0.50678 0.0
H2350 H 0.4412 0.57025 0.42179 0.0
H2351 H 0.43032 0.56044 0.44898 0.0
C2352 C 0.72979 0.7625 0.84308 0.0
C2353 C 0.72411 0.76012 0.85967 0.0
C2354 C 0.74635 0.75818 0.83855 0.0
C2355 C 0.78841 0.7507 0.85881 0.0
H2356 H 0.80165 0.7383 0.81348 0.0
C2357 C 0.8544 0.72451 0.83934 0.0
C2358 C 0.86085 0.72974 0.8237 0.0
C2359 C 0.83855 0.73016 0.84484 0.0
C2360 C 0.79817 0.74196 0.82617 0.0
H2361 H 0.73087 0.75037 0.88423 0.0
H2362 H 0.75923 0.74173 0.87615 0.0
H2363 H 0.77187 0.74194 0.82011 0.0
H2364 H 0.85612 0.74534 0.80183 0.0
H2365 H 0.82863 0.75542 0.81149 0.0
H2366 H 0.81481 0.75013 0.86489 0.0
C2367 C 0.75129 0.74758 0.86671 0.0
C2368 C 0.78104 0.74406 0.83 0.0
C2369 C 0.73488 0.75221 0.87129 0.0
C2370 C 0.8517 0.74158 0.81421 0.0
C2371 C 0.8358 0.74706 0.81958 0.0
C2372 C 0.80553 0.74836 0.85503 0.0
C2373 C 0.75755 0.75115 0.85048 0.0
C2374 C 0.77585 0.74847 0.84639 0.0
C2375 C 0.82873 0.74085 0.8346 0.0
C2376 C 0.81062 0.74403 0.83864 0.0
H2377 H 0.72193 0.76899 0.83397 0.0
H2378 H 0.75062 0.76131 0.82598 0.0
H2379 H 0.7851 0.75452 0.87148 0.0
H2380 H 0.86089 0.7149 0.84657 0.0
H2381 H 0.83342 0.72507 0.85643 0.0
C2382 C 0.53257 0.48995 0.1252 0.0
C2383 C 0.52597 0.47837 0.11354 0.0
C2384 C 0.53723 0.50622 0.12016 0.0
C2385 C 0.54347 0.534 0.08224 0.0
H2386 H 0.53427 0.56956 0.11457 0.0
C2387 C 0.54476 0.60359 0.06239 0.0
C2388 C 0.55576 0.61375 0.07184 0.0
C2389 C 0.53957 0.58785 0.06847 0.0
C2390 C 0.53693 0.55976 0.10543 0.0
H2391 H 0.51953 0.4746 0.08732 0.0
H2392 H 0.5272 0.50307 0.07849 0.0
H2393 H 0.52978 0.54018 0.12251 0.0
H2394 H 0.56943 0.61576 0.09534 0.0
H2395 H 0.55974 0.5885 0.10639 0.0
H2396 H 0.55012 0.55377 0.06503 0.0
C2397 C 0.52927 0.49956 0.09151 0.0
C2398 C 0.53453 0.54284 0.11 0.0
C2399 C 0.52492 0.48313 0.09652 0.0
C2400 C 0.56045 0.60846 0.08807 0.0
C2401 C 0.55508 0.59274 0.09428 0.0
C2402 C 0.5456 0.55092 0.0776 0.0
C2403 C 0.53501 0.51154 0.10336 0.0
C2404 C 0.53784 0.52964 0.0985 0.0
C2405 C 0.54525 0.58194 0.08417 0.0
C2406 C 0.54238 0.56401 0.08914 0.0
H2407 H 0.53345 0.48665 0.13843 0.0
H2408 H 0.5421 0.51476 0.12962 0.0
H2409 H 0.54648 0.52435 0.07307 0.0
H2410 H 0.5414 0.60713 0.04962 0.0
H2411 H 0.53185 0.57991 0.06047 0.0
C2412 C 0.68428 0.31788 0.33933 0.0
C2413 C 0.67768 0.31222 0.32392 0.0
C2414 C 0.7002 0.3124 0.34482 0.0
C2415 C 0.73316 0.29441 0.35536 0.0
H2416 H 0.76671 0.29891 0.32004 0.0
C2417 C 0.8037 0.28934 0.37143 0.0
C2418 C 0.81407 0.28048 0.36014 0.0
C2419 C 0.78749 0.29445 0.36668 0.0
C2420 C 0.75756 0.29736 0.33005 0.0
H2421 H 0.68223 0.2961 0.3024 0.0
H2422 H 0.70983 0.2863 0.31206 0.0
H2423 H 0.73696 0.30288 0.31344 0.0
H2424 H 0.81581 0.27047 0.33486 0.0
H2425 H 0.78745 0.27904 0.32656 0.0
H2426 H 0.75357 0.28849 0.37192 0.0
C2427 C 0.70274 0.29488 0.31998 0.0
C2428 C 0.74045 0.29963 0.32624 0.0
C2429 C 0.68678 0.30021 0.31462 0.0
C2430 C 0.80828 0.27771 0.34366 0.0
C2431 C 0.79189 0.28253 0.33898 0.0
C2432 C 0.75025 0.29191 0.35914 0.0
C2433 C 0.70994 0.30145 0.33479 0.0
C2434 C 0.72804 0.29822 0.33885 0.0
C2435 C 0.78102 0.29043 0.35064 0.0
C2436 C 0.76277 0.29344 0.34656 0.0
H2437 H 0.67781 0.32762 0.34639 0.0
H2438 H 0.70542 0.31778 0.35624 0.0
H2439 H 0.72391 0.29314 0.36533 0.0
H2440 H 0.80779 0.29145 0.38429 0.0
H2441 H 0.77979 0.30096 0.37589 0.0
C2442 C 0.99488 0.5518 0.61977 0.0
C2443 C 1.00365 0.56248 0.6087 0.0
C2444 C 0.99056 0.53538 0.61495 0.0
C2445 C 0.98982 0.50526 0.57844 0.0
H2446 H 0.99466 0.47195 0.61398 0.0
C2447 C 0.97138 0.43155 0.58792 0.0
C2448 C 0.97725 0.42505 0.57255 0.0
C2449 C 0.97647 0.44758 0.59341 0.0
C2450 C 0.99323 0.4811 0.60393 0.0
H2451 H 1.01431 0.56455 0.5837 0.0
H2452 H 1.00709 0.53585 0.57527 0.0
H2453 H 0.99802 0.5018 0.62049 0.0
H2454 H 0.9934 0.42991 0.55112 0.0
H2455 H 1.00255 0.45773 0.56078 0.0
H2456 H 0.98538 0.48439 0.56185 0.0
C2457 C 1.00308 0.54019 0.58757 0.0
C2458 C 0.99499 0.49828 0.60766 0.0
C2459 C 1.00711 0.55676 0.59232 0.0
C2460 C 0.98915 0.43437 0.56331 0.0
C2461 C 0.9941 0.45046 0.56867 0.0
C2462 C 0.98827 0.48805 0.57468 0.0
C2463 C 0.99531 0.52904 0.59906 0.0
C2464 C 0.99318 0.51067 0.595 0.0
C2465 C 0.98725 0.45755 0.58341 0.0
C2466 C 0.9899 0.47576 0.58739 0.0
H2467 H 0.99224 0.55583 0.63256 0.0
H2468 H 0.98412 0.52745 0.624 0.0
H2469 H 0.9881 0.51431 0.56836 0.0
H2470 H 0.9617 0.42491 0.59493 0.0
H2471 H 0.97088 0.45271 0.60476 0.0
C2472 C 0.85455 0.29601 0.72155 0.0
C2473 C 0.8648 0.30691 0.71207 0.0
C2474 C 0.83872 0.29106 0.71556 0.0
C2475 C 0.81033 0.28887 0.67887 0.0
H2476 H 0.77535 0.29906 0.71152 0.0
C2477 C 0.74032 0.28501 0.65989 0.0
C2478 C 0.72887 0.27849 0.67172 0.0
C2479 C 0.75665 0.28966 0.66472 0.0
C2480 C 0.78488 0.29588 0.70228 0.0
H2481 H 0.86688 0.32062 0.6886 0.0
H2482 H 0.83941 0.31135 0.67769 0.0
H2483 H 0.80489 0.30234 0.71926 0.0
H2484 H 0.72535 0.27219 0.69802 0.0
H2485 H 0.75392 0.27983 0.70648 0.0
H2486 H 0.7905 0.2819 0.66202 0.0
C2487 C 0.84367 0.3066 0.68976 0.0
C2488 C 0.80187 0.2978 0.70673 0.0
C2489 C 0.85949 0.31171 0.69588 0.0
C2490 C 0.73379 0.27753 0.68869 0.0
C2491 C 0.75027 0.28186 0.6935 0.0
C2492 C 0.79334 0.28667 0.67448 0.0
C2493 C 0.83279 0.29689 0.69991 0.0
C2494 C 0.8148 0.29432 0.6951 0.0
C2495 C 0.76214 0.2875 0.68147 0.0
C2496 C 0.78031 0.2902 0.6861 0.0
H2497 H 0.85812 0.29256 0.73429 0.0
H2498 H 0.83071 0.28343 0.72359 0.0
H2499 H 0.82001 0.28602 0.66966 0.0
H2500 H 0.73687 0.28582 0.6467 0.0
H2501 H 0.76511 0.29445 0.65514 0.0
C2502 C 0.96151 0.60421 0.94773 0.0
C2503 C 0.97201 0.61343 0.95859 0.0
C2504 C 0.96679 0.58879 0.94102 0.0
C2505 C 0.99576 0.55373 0.9516 0.0
H2506 H 0.97964 0.53566 0.90918 0.0
C2507 C 1.00661 0.49163 0.90673 0.0
C2508 C 1.00785 0.47891 0.91903 0.0
C2509 C 1.00132 0.50788 0.91096 0.0
C2510 C 0.98437 0.54048 0.92104 0.0
H2511 H 0.99655 0.61415 0.97043 0.0
H2512 H 1.00621 0.58744 0.95815 0.0
H2513 H 0.97483 0.56518 0.91586 0.0
H2514 H 1.00359 0.47314 0.94537 0.0
H2515 H 0.99379 0.50153 0.95277 0.0
H2516 H 1.00576 0.52911 0.95653 0.0
C2517 C 0.99374 0.59202 0.95496 0.0
C2518 C 0.98147 0.55745 0.92495 0.0
C2519 C 0.9884 0.60753 0.96169 0.0
C2520 C 1.00265 0.4826 0.93556 0.0
C2521 C 0.9973 0.49897 0.93983 0.0
C2522 C 0.99877 0.53676 0.94763 0.0
C2523 C 0.98272 0.58211 0.9451 0.0
C2524 C 0.98704 0.56434 0.94032 0.0
C2525 C 0.997 0.51196 0.92766 0.0
C2526 C 0.99309 0.52985 0.9323 0.0
H2527 H 0.94862 0.60825 0.94556 0.0
H2528 H 0.95783 0.58157 0.93369 0.0
H2529 H 1.0 0.55842 0.9637 0.0
H2530 H 1.01055 0.48926 0.89386 0.0
H2531 H 1.00145 0.51745 0.90122 0.0
C2532 C 0.68422 0.72255 0.1977 0.0
C2533 C 0.67747 0.72802 0.21311 0.0
C2534 C 0.70026 0.72793 0.1925 0.0
C2535 C 0.74047 0.74011 0.2117 0.0
H2536 H 0.75415 0.75096 0.16611 0.0
C2537 C 0.80887 0.76064 0.19447 0.0
C2538 C 0.81468 0.75752 0.17805 0.0
C2539 C 0.79236 0.75622 0.19915 0.0
C2540 C 0.75066 0.74763 0.17888 0.0
H2541 H 0.68195 0.74366 0.235 0.0
H2542 H 0.7098 0.75331 0.22586 0.0
H2543 H 0.72436 0.74687 0.17248 0.0
H2544 H 0.80827 0.74633 0.15403 0.0
H2545 H 0.78004 0.73754 0.16244 0.0
H2546 H 0.76671 0.7404 0.21809 0.0
C2547 C 0.7027 0.74496 0.2177 0.0
C2548 C 0.7335 0.74545 0.18253 0.0
C2549 C 0.68661 0.73973 0.22276 0.0
C2550 C 0.80418 0.7487 0.16685 0.0
C2551 C 0.78784 0.744 0.17159 0.0
C2552 C 0.75766 0.74209 0.20802 0.0
C2553 C 0.71001 0.73859 0.20284 0.0
C2554 C 0.72818 0.74169 0.19899 0.0
C2555 C 0.78138 0.74839 0.18753 0.0
C2556 C 0.76305 0.74585 0.19153 0.0
H2557 H 0.67773 0.71302 0.19037 0.0
H2558 H 0.70555 0.72269 0.18106 0.0
H2559 H 0.73684 0.73691 0.22447 0.0
H2560 H 0.8165 0.76786 0.2032 0.0
H2561 H 0.78793 0.75996 0.21149 0.0
C2562 C 0.52958 0.55686 0.43906 0.0
C2563 C 0.53199 0.56281 0.42255 0.0
C2564 C 0.53435 0.54038 0.44342 0.0
C2565 C 0.5599 0.50344 0.43073 0.0
H2566 H 0.52371 0.47728 0.45066 0.0
C2567 C 0.56855 0.4321 0.44178 0.0
C2568 C 0.56274 0.42597 0.45732 0.0
C2569 C 0.56332 0.44796 0.43588 0.0
C2570 C 0.53407 0.48436 0.44528 0.0
H2571 H 0.54213 0.55661 0.398 0.0
H2572 H 0.55123 0.52821 0.40582 0.0
H2573 H 0.5198 0.50735 0.44563 0.0
H2574 H 0.54653 0.43125 0.47858 0.0
H2575 H 0.5374 0.45867 0.4685 0.0
H2576 H 0.5744 0.48071 0.4308 0.0
C2577 C 0.54552 0.53614 0.41535 0.0
C2578 C 0.53181 0.50166 0.44242 0.0
C2579 C 0.54043 0.55246 0.41091 0.0
C2580 C 0.55074 0.43542 0.46626 0.0
C2581 C 0.54563 0.4513 0.46049 0.0
C2582 C 0.56227 0.48619 0.43382 0.0
C2583 C 0.5419 0.52966 0.43144 0.0
C2584 C 0.5447 0.51142 0.43515 0.0
C2585 C 0.55241 0.45817 0.44558 0.0
C2586 C 0.5494 0.47634 0.44117 0.0
H2587 H 0.5227 0.56439 0.44816 0.0
H2588 H 0.53152 0.53578 0.45597 0.0
H2589 H 0.57008 0.51063 0.42514 0.0
H2590 H 0.57821 0.4253 0.43491 0.0
H2591 H 0.56854 0.45258 0.42414 0.0
C2592 C 0.83955 0.85629 0.7214 0.0
C2593 C 0.82362 0.86214 0.7264 0.0
C2594 C 0.84546 0.84054 0.7269 0.0
C2595 C 0.83536 0.80381 0.75543 0.0
H2596 H 0.85747 0.77824 0.7201 0.0
C2597 C 0.8435 0.73137 0.75979 0.0
C2598 C 0.86017 0.72581 0.75751 0.0
C2599 C 0.83884 0.74783 0.75518 0.0
C2600 C 0.85134 0.78522 0.73011 0.0
H2601 H 0.80163 0.85645 0.74147 0.0
H2602 H 0.81173 0.82916 0.75107 0.0
H2603 H 0.85133 0.80803 0.71573 0.0
H2604 H 0.88473 0.73269 0.74778 0.0
H2605 H 0.87644 0.76105 0.73904 0.0
H2606 H 0.83503 0.78073 0.76956 0.0
C2607 C 0.82002 0.83672 0.74329 0.0
C2608 C 0.84797 0.80241 0.72771 0.0
C2609 C 0.81424 0.85252 0.73792 0.0
C2610 C 0.87172 0.73655 0.74941 0.0
C2611 C 0.86699 0.75284 0.74451 0.0
C2612 C 0.83855 0.78657 0.75772 0.0
C2613 C 0.83538 0.83013 0.73725 0.0
C2614 C 0.83993 0.81201 0.74033 0.0
C2615 C 0.85069 0.75891 0.74793 0.0
C2616 C 0.84657 0.77705 0.74509 0.0
H2617 H 0.84679 0.86322 0.7121 0.0
H2618 H 0.85753 0.83614 0.72228 0.0
H2619 H 0.82939 0.81072 0.76557 0.0
H2620 H 0.83444 0.72353 0.76637 0.0
H2621 H 0.82614 0.75209 0.75784 0.0
C2622 C 0.33946 0.67958 0.31137 0.0
C2623 C 0.32311 0.67439 0.30705 0.0
C2624 C 0.34563 0.69526 0.30588 0.0
C2625 C 0.33538 0.73272 0.27833 0.0
H2626 H 0.36057 0.75706 0.31244 0.0
C2627 C 0.37423 0.79871 0.28267 0.0
C2628 C 0.36247 0.80996 0.27561 0.0
C2629 C 0.36936 0.78248 0.28763 0.0
C2630 C 0.35357 0.75042 0.30278 0.0
H2631 H 0.30057 0.6812 0.29331 0.0
H2632 H 0.31109 0.70833 0.28379 0.0
H2633 H 0.35359 0.72745 0.31692 0.0
H2634 H 0.33626 0.81318 0.26869 0.0
H2635 H 0.3277 0.78471 0.27729 0.0
H2636 H 0.33501 0.75595 0.26447 0.0
C2637 C 0.31951 0.70033 0.29097 0.0
C2638 C 0.34971 0.73333 0.30523 0.0
C2639 C 0.31346 0.68464 0.29631 0.0
C2640 C 0.34552 0.80493 0.27443 0.0
C2641 C 0.34069 0.78854 0.27909 0.0
C2642 C 0.33905 0.74986 0.276 0.0
C2643 C 0.33542 0.70622 0.29625 0.0
C2644 C 0.34053 0.72418 0.29305 0.0
C2645 C 0.35267 0.77697 0.2853 0.0
C2646 C 0.34816 0.75893 0.28821 0.0
H2647 H 0.34694 0.67216 0.32006 0.0
H2648 H 0.35809 0.69912 0.30992 0.0
H2649 H 0.32856 0.72616 0.2685 0.0
H2650 H 0.38743 0.80216 0.28349 0.0
H2651 H 0.37891 0.77389 0.29231 0.0
C2652 C 0.47809 0.09201 0.52517 0.0
C2653 C 0.47212 0.10821 0.52908 0.0
C2654 C 0.49473 0.08737 0.52913 0.0
C2655 C 0.53631 0.10785 0.53853 0.0
H2656 H 0.55096 0.06185 0.54612 0.0
C2657 C 0.60223 0.08815 0.56393 0.0
C2658 C 0.60964 0.07354 0.55721 0.0
C2659 C 0.58631 0.09352 0.55843 0.0
C2660 C 0.54707 0.07475 0.54379 0.0
H2661 H 0.47839 0.13184 0.54115 0.0
H2662 H 0.50681 0.12342 0.54924 0.0
H2663 H 0.52095 0.06793 0.54309 0.0
H2664 H 0.60653 0.05344 0.53907 0.0
H2665 H 0.5787 0.06275 0.52941 0.0
H2666 H 0.56248 0.11465 0.53989 0.0
C2667 C 0.49907 0.11445 0.54246 0.0
C2668 C 0.52982 0.07826 0.54207 0.0
C2669 C 0.48262 0.11918 0.53817 0.0
C2670 C 0.60134 0.06505 0.54408 0.0
C2671 C 0.58527 0.07019 0.5388 0.0
C2672 C 0.55352 0.10436 0.54053 0.0
C2673 C 0.50569 0.09878 0.5373 0.0
C2674 C 0.52412 0.0949 0.53946 0.0
C2675 C 0.57729 0.08411 0.5464 0.0
C2676 C 0.55912 0.08777 0.54318 0.0
H2677 H 0.47044 0.08348 0.51773 0.0
H2678 H 0.49924 0.07524 0.5248 0.0
H2679 H 0.53263 0.12076 0.53606 0.0
H2680 H 0.60809 0.09456 0.57449 0.0
H2681 H 0.58049 0.10422 0.56461 0.0
C2682 C 0.19676 0.35447 0.81281 0.0
C2683 C 0.21236 0.36095 0.80749 0.0
C2684 C 0.19138 0.33849 0.80745 0.0
C2685 C 0.21021 0.29798 0.79605 0.0
H2686 H 0.16473 0.28474 0.78413 0.0
C2687 C 0.19292 0.22953 0.77598 0.0
C2688 C 0.17635 0.2239 0.77867 0.0
C2689 C 0.19757 0.24607 0.78024 0.0
C2690 C 0.17745 0.28811 0.78776 0.0
H2691 H 0.23435 0.35608 0.7921 0.0
H2692 H 0.2249 0.32832 0.78252 0.0
H2693 H 0.17135 0.31449 0.78812 0.0
H2694 H 0.15201 0.23068 0.78895 0.0
H2695 H 0.16034 0.259 0.79747 0.0
H2696 H 0.2163 0.27167 0.79622 0.0
C2697 C 0.21674 0.33559 0.79072 0.0
C2698 C 0.18125 0.30524 0.78989 0.0
C2699 C 0.22199 0.35163 0.79592 0.0
C2700 C 0.16492 0.23465 0.78688 0.0
C2701 C 0.16963 0.25103 0.79143 0.0
C2702 C 0.20637 0.28083 0.79415 0.0
C2703 C 0.20171 0.32854 0.79698 0.0
C2704 C 0.19769 0.3104 0.794 0.0
C2705 C 0.1858 0.25728 0.7875 0.0
C2706 C 0.18992 0.27559 0.78998 0.0
H2707 H 0.18944 0.36112 0.82223 0.0
H2708 H 0.1798 0.33339 0.81259 0.0
H2709 H 0.22294 0.3015 0.79954 0.0
H2710 H 0.20185 0.22168 0.76925 0.0
H2711 H 0.21009 0.25034 0.77686 0.0
C2712 C 0.43125 0.46115 0.54684 0.0
C2713 C 0.42588 0.45832 0.56346 0.0
C2714 C 0.44676 0.45465 0.54124 0.0
C2715 C 0.4823 0.42564 0.55329 0.0
H2716 H 0.5093 0.45711 0.52739 0.0
C2717 C 0.55633 0.43716 0.52984 0.0
C2718 C 0.56025 0.42053 0.52512 0.0
C2719 C 0.54001 0.44127 0.53546 0.0
C2720 C 0.50203 0.44826 0.53483 0.0
H2721 H 0.432 0.44593 0.58696 0.0
H2722 H 0.45869 0.43447 0.57732 0.0
H2723 H 0.48 0.46385 0.53374 0.0
H2724 H 0.55039 0.39505 0.52355 0.0
H2725 H 0.52229 0.40214 0.53308 0.0
H2726 H 0.50446 0.41037 0.555 0.0
C2727 C 0.45105 0.44143 0.56839 0.0
C2728 C 0.48506 0.45197 0.53819 0.0
C2729 C 0.43564 0.44791 0.57394 0.0
C2730 C 0.54784 0.408 0.5271 0.0
C2731 C 0.53164 0.41208 0.53265 0.0
C2732 C 0.49927 0.422 0.55006 0.0
C2733 C 0.4572 0.44526 0.5522 0.0
C2734 C 0.47493 0.44072 0.5475 0.0
C2735 C 0.5273 0.42883 0.53651 0.0
C2736 C 0.50942 0.43323 0.54075 0.0
H2737 H 0.42419 0.46954 0.53868 0.0
H2738 H 0.45092 0.45763 0.52858 0.0
H2739 H 0.47495 0.41657 0.56039 0.0
H2740 H 0.56555 0.44713 0.52833 0.0
H2741 H 0.53725 0.45427 0.53861 0.0
C2742 C 0.69292 0.30902 0.25874 0.0
C2743 C 0.67607 0.31428 0.25721 0.0
C2744 C 0.69762 0.29257 0.25416 0.0
C2745 C 0.68449 0.25457 0.23032 0.0
H2746 H 0.70866 0.23 0.265 0.0
C2747 C 0.69675 0.18336 0.22252 0.0
C2748 C 0.71293 0.17775 0.22694 0.0
C2749 C 0.69101 0.19925 0.22783 0.0
C2750 C 0.70207 0.23665 0.25506 0.0
H2751 H 0.65117 0.30684 0.24881 0.0
H2752 H 0.65949 0.27848 0.24013 0.0
H2753 H 0.70277 0.25995 0.26879 0.0
H2754 H 0.73562 0.18405 0.24068 0.0
H2755 H 0.72581 0.21156 0.24993 0.0
H2756 H 0.68411 0.23152 0.21635 0.0
C2757 C 0.66906 0.28693 0.245 0.0
C2758 C 0.69873 0.25388 0.25724 0.0
C2759 C 0.66431 0.30321 0.24987 0.0
C2760 C 0.72283 0.18782 0.23762 0.0
C2761 C 0.71721 0.20373 0.24279 0.0
C2762 C 0.68801 0.2374 0.22803 0.0
C2763 C 0.68562 0.28118 0.24768 0.0
C2764 C 0.6899 0.26306 0.2449 0.0
C2765 C 0.70149 0.21001 0.23739 0.0
C2766 C 0.69685 0.22813 0.24037 0.0
H2767 H 0.70216 0.31712 0.26472 0.0
H2768 H 0.71052 0.28856 0.25623 0.0
H2769 H 0.67773 0.26129 0.22054 0.0
H2770 H 0.68909 0.17608 0.21386 0.0
H2771 H 0.67867 0.20341 0.22371 0.0
C2772 C 0.48168 0.93297 1.00212 0.0
C2773 C 0.47799 0.91618 1.00645 0.0
C2774 C 0.49789 0.93741 0.99643 0.0
C2775 C 0.53581 0.9447 0.99718 0.0
H2776 H 0.56305 0.91429 0.97028 0.0
C2777 C 0.60661 0.95829 0.98588 0.0
C2778 C 0.61206 0.95621 0.96919 0.0
C2779 C 0.59106 0.95155 0.99112 0.0
C2780 C 0.55565 0.923 0.97776 0.0
H2781 H 0.4881 0.89078 1.0072 0.0
H2782 H 0.51602 0.8984 0.99744 0.0
H2783 H 0.53359 0.90764 0.97554 0.0
H2784 H 0.60602 0.94498 0.9451 0.0
H2785 H 0.57927 0.93308 0.95411 0.0
H2786 H 0.55775 0.96037 0.99885 0.0
C2787 C 0.50657 0.90823 0.99827 0.0
C2788 C 0.53871 0.9191 0.9809 0.0
C2789 C 0.49049 0.90384 1.00394 0.0
C2790 C 0.60232 0.94634 0.95819 0.0
C2791 C 0.58687 0.93962 0.96337 0.0
C2792 C 0.55275 0.94866 0.99393 0.0
C2793 C 0.5107 0.92514 0.99488 0.0
C2794 C 0.52852 0.92986 0.99069 0.0
C2795 C 0.58067 0.94268 0.97971 0.0
C2796 C 0.56294 0.93787 0.98416 0.0
H2797 H 0.4724 0.94281 1.00409 0.0
H2798 H 0.50049 0.95053 0.99365 0.0
H2799 H 0.52851 0.95318 1.00499 0.0
H2800 H 0.61364 0.96627 0.99446 0.0
H2801 H 0.58686 0.95394 1.00388 0.0
C2802 C 0.05551 0.09635 0.50876 0.0
C2803 C 0.06041 0.11334 0.50757 0.0
C2804 C 0.03908 0.09145 0.50433 0.0
C2805 C 1.00052 0.10412 0.48131 0.0
H2806 H 0.97699 0.07902 0.51605 0.0
C2807 C 0.92968 0.08934 0.47389 0.0
C2808 C 0.92476 0.07293 0.47831 0.0
C2809 C 0.94537 0.09569 0.47912 0.0
C2810 C 0.98334 0.08587 0.50609 0.0
H2811 H 0.05237 0.13828 0.49987 0.0
H2812 H 0.02403 0.12961 0.49143 0.0
H2813 H 1.0068 0.08567 0.51956 0.0
H2814 H 0.93203 0.05048 0.49198 0.0
H2815 H 0.95917 0.06133 0.50106 0.0
H2816 H 0.97732 0.10396 0.46755 0.0
C2817 C 0.03274 0.12011 0.49595 0.0
C2818 C 1.00049 0.08965 0.50812 0.0
C2819 C 0.04901 0.12506 0.50069 0.0
C2820 C 0.93528 0.06341 0.4889 0.0
C2821 C 0.95097 0.06965 0.49399 0.0
C2822 C 0.98342 0.10014 0.47915 0.0
C2823 C 0.02737 0.10338 0.49832 0.0
C2824 C 1.0093 0.09879 0.49574 0.0
C2825 C 0.95659 0.08562 0.48859 0.0
C2826 C 0.97454 0.09091 0.4915 0.0
H2827 H 0.06388 0.08712 0.51436 0.0
H2828 H 0.03535 0.07843 0.50615 0.0
H2829 H 1.00696 0.11115 0.47152 0.0
H2830 H 0.92203 0.09672 0.46531 0.0
H2831 H 0.94903 0.10819 0.475 0.0
C2832 C 0.14222 0.45263 0.40121 0.0
C2833 C 0.12678 0.46068 0.40453 0.0
C2834 C 0.14267 0.43692 0.39323 0.0
C2835 C 0.11772 0.39858 0.38998 0.0
H2836 H 0.15367 0.38464 0.35989 0.0
C2837 C 0.14753 0.33259 0.39036 0.0
C2838 C 0.1538 0.32556 0.37537 0.0
C2839 C 0.13982 0.34844 0.39036 0.0
C2840 C 0.14333 0.3883 0.36803 0.0
H2841 H 0.0997 0.45886 0.4015 0.0
H2842 H 0.10045 0.43112 0.38767 0.0
H2843 H 0.1491 0.4146 0.36537 0.0
H2844 H 0.15621 0.32926 0.34845 0.0
H2845 H 0.14278 0.3572 0.3484 0.0
H2846 H 0.11246 0.37223 0.39324 0.0
C2847 C 0.11222 0.4371 0.39117 0.0
C2848 C 0.14082 0.40549 0.37129 0.0
C2849 C 0.11179 0.45304 0.39893 0.0
C2850 C 0.15124 0.33426 0.36015 0.0
C2851 C 0.14375 0.35033 0.36017 0.0
C2852 C 0.12034 0.38137 0.38683 0.0
C2853 C 0.12767 0.42869 0.38858 0.0
C2854 C 0.12831 0.41082 0.3827 0.0
C2855 C 0.13844 0.35783 0.37538 0.0
C2856 C 0.1335 0.37599 0.37621 0.0
H2857 H 0.15397 0.45817 0.40544 0.0
H2858 H 0.15477 0.43078 0.39161 0.0
H2859 H 0.10805 0.40221 0.3989 0.0
H2860 H 0.14951 0.32624 0.4023 0.0
H2861 H 0.13606 0.35385 0.40232 0.0
C2862 C 0.95341 0.90119 0.61209 0.0
C2863 C 0.96161 0.90544 0.62721 0.0
C2864 C 0.93732 0.89374 0.61241 0.0
C2865 C 0.899 0.89343 0.61918 0.0
H2866 H 0.88508 0.86035 0.65242 0.0
C2867 C 0.83355 0.89238 0.65033 0.0
C2868 C 0.82596 0.87691 0.65446 0.0
C2869 C 0.84948 0.8929 0.64279 0.0
C2870 C 0.88874 0.86938 0.64285 0.0
H2871 H 0.95996 0.90423 0.65443 0.0
H2872 H 0.93232 0.89083 0.65501 0.0
H2873 H 0.9151 0.86541 0.64751 0.0
H2874 H 0.82884 0.84977 0.65334 0.0
H2875 H 0.85697 0.85064 0.64033 0.0
H2876 H 0.87264 0.898 0.61513 0.0
C2877 C 0.93813 0.8933 0.6429 0.0
C2878 C 0.90595 0.87237 0.64013 0.0
C2879 C 0.95398 0.901 0.64258 0.0
C2880 C 0.83429 0.86188 0.65009 0.0
C2881 C 0.85045 0.86239 0.64281 0.0
C2882 C 0.88179 0.89058 0.62204 0.0
C2883 C 0.92933 0.8901 0.62785 0.0
C2884 C 0.91129 0.88475 0.62859 0.0
C2885 C 0.85839 0.87793 0.63946 0.0
C2886 C 0.87645 0.87884 0.63423 0.0
H2887 H 0.95888 0.90468 0.60007 0.0
H2888 H 0.93089 0.89136 0.6006 0.0
H2889 H 0.90266 0.90314 0.6103 0.0
H2890 H 0.82747 0.90417 0.65363 0.0
H2891 H 0.85525 0.90508 0.64054 0.0
C2892 C 0.38394 0.70003 0.89339 0.0
C2893 C 0.38117 0.7083 0.87797 0.0
C2894 C 0.39185 0.68429 0.89391 0.0
C2895 C 0.39589 0.64624 0.8687 0.0
H2896 H 0.42501 0.63197 0.90531 0.0
C2897 C 0.4248 0.58171 0.90264 0.0
C2898 C 0.40948 0.57306 0.9048 0.0
C2899 C 0.425 0.59778 0.89515 0.0
C2900 C 0.41715 0.63573 0.89479 0.0
H2901 H 0.38509 0.70683 0.851 0.0
H2902 H 0.39878 0.67902 0.85185 0.0
H2903 H 0.41962 0.66197 0.90087 0.0
H2904 H 0.38266 0.57378 0.8998 0.0
H2905 H 0.38304 0.60138 0.88633 0.0
H2906 H 0.39279 0.61994 0.86312 0.0
C2907 C 0.3949 0.68485 0.86356 0.0
C2908 C 0.41394 0.65294 0.89235 0.0
C2909 C 0.38722 0.70083 0.86309 0.0
C2910 C 0.39467 0.5801 0.89811 0.0
C2911 C 0.3949 0.59595 0.8904 0.0
C2912 C 0.39898 0.62902 0.87124 0.0
C2913 C 0.39698 0.67625 0.87897 0.0
C2914 C 0.40287 0.65838 0.87959 0.0
C2915 C 0.40993 0.60532 0.88946 0.0
C2916 C 0.40925 0.62352 0.88463 0.0
H2917 H 0.37937 0.70545 0.90507 0.0
H2918 H 0.39307 0.67799 0.90597 0.0
H2919 H 0.38722 0.64998 0.85882 0.0
H2920 H 0.43635 0.57671 0.90795 0.0
H2921 H 0.4368 0.60464 0.89452 0.0
C2922 C 0.70095 0.17416 0.15027 0.0
C2923 C 0.70931 0.15934 0.15524 0.0
C2924 C 0.68487 0.17331 0.14286 0.0
C2925 C 0.64659 0.16594 0.14276 0.0
H2926 H 0.63343 0.13129 0.11085 0.0
C2927 C 0.58182 0.13338 0.14246 0.0
C2928 C 0.57438 0.12866 0.1271 0.0
C2929 C 0.59756 0.14131 0.1428 0.0
C2930 C 0.63688 0.14124 0.11954 0.0
H2931 H 0.70795 0.13206 0.15539 0.0
H2932 H 0.68032 0.13054 0.14204 0.0
H2933 H 0.66334 0.13684 0.11595 0.0
H2934 H 0.5773 0.1291 0.09997 0.0
H2935 H 0.60512 0.14278 0.10054 0.0
H2936 H 0.62013 0.16972 0.14701 0.0
C2937 C 0.686 0.14282 0.14392 0.0
C2938 C 0.65402 0.14434 0.12255 0.0
C2939 C 0.70184 0.14369 0.15161 0.0
C2940 C 0.58263 0.13282 0.11198 0.0
C2941 C 0.59862 0.14048 0.11232 0.0
C2942 C 0.62945 0.1627 0.1399 0.0
C2943 C 0.67706 0.15761 0.13996 0.0
C2944 C 0.65908 0.15641 0.13452 0.0
C2945 C 0.60643 0.14443 0.12778 0.0
C2946 C 0.62439 0.15 0.12859 0.0
H2947 H 0.70631 0.1864 0.15313 0.0
H2948 H 0.67831 0.18492 0.13988 0.0
H2949 H 0.65005 0.17523 0.15215 0.0
H2950 H 0.57579 0.13022 0.15431 0.0
H2951 H 0.60325 0.14401 0.15492 0.0
C2952 C 0.15134 0.70178 0.17305 0.0
C2953 C 0.15556 0.71002 0.15794 0.0
C2954 C 0.14405 0.68562 0.1727 0.0
C2955 C 0.12302 0.65408 0.14503 0.0
H2956 H 0.14932 0.621 0.16966 0.0
C2957 C 0.14398 0.58215 0.13409 0.0
C2958 C 0.12857 0.57428 0.13027 0.0
C2959 C 0.14434 0.59803 0.14171 0.0
C2960 C 0.1417 0.63008 0.16286 0.0
H2961 H 0.15447 0.70839 0.13072 0.0
H2962 H 0.14132 0.68061 0.1301 0.0
H2963 H 0.15406 0.65107 0.1746 0.0
H2964 H 0.10141 0.5766 0.132 0.0
H2965 H 0.10201 0.60468 0.14513 0.0
H2966 H 0.11119 0.63309 0.13275 0.0
C2967 C 0.14369 0.68645 0.14221 0.0
C2968 C 0.14433 0.64732 0.16578 0.0
C2969 C 0.15125 0.70237 0.14256 0.0
C2970 C 0.11347 0.58228 0.135 0.0
C2971 C 0.11382 0.5984 0.14236 0.0
C2972 C 0.12024 0.63684 0.14226 0.0
C2973 C 0.14054 0.67761 0.15725 0.0
C2974 C 0.13541 0.65952 0.1565 0.0
C2975 C 0.12928 0.60662 0.14543 0.0
C2976 C 0.12994 0.62465 0.15074 0.0
H2977 H 0.15474 0.70728 0.18508 0.0
H2978 H 0.14171 0.67915 0.1845 0.0
H2979 H 0.11589 0.66317 0.13773 0.0
H2980 H 0.1558 0.57632 0.13048 0.0
H2981 H 0.15645 0.60404 0.14373 0.0
C2982 C 0.70152 0.8616 0.38781 0.0
C2983 C 0.70949 0.87655 0.38258 0.0
C2984 C 0.68541 0.86216 0.39519 0.0
C2985 C 0.64696 0.86837 0.3952 0.0
H2986 H 0.63272 0.90357 0.42602 0.0
C2987 C 0.58142 0.89921 0.39412 0.0
C2988 C 0.57383 0.90443 0.40924 0.0
C2989 C 0.5973 0.89156 0.39417 0.0
C2990 C 0.63647 0.89345 0.41765 0.0
H2991 H 0.7074 0.90378 0.38194 0.0
H2992 H 0.6797 0.9048 0.39518 0.0
H2993 H 0.66278 0.8987 0.42119 0.0
H2994 H 0.5766 0.90516 0.43636 0.0
H2995 H 0.60466 0.89195 0.43649 0.0
H2996 H 0.62063 0.8637 0.391 0.0
C2997 C 0.68572 0.89264 0.39355 0.0
C2998 C 0.6537 0.89076 0.41478 0.0
C2999 C 0.70159 0.89206 0.38591 0.0
C3000 C 0.58206 0.90102 0.42455 0.0
C3001 C 0.59818 0.89364 0.42459 0.0
C3002 C 0.62972 0.8712 0.39792 0.0
C3003 C 0.67717 0.87769 0.39778 0.0
C3004 C 0.65915 0.8785 0.40316 0.0
C3005 C 0.60616 0.88924 0.40934 0.0
C3006 C 0.62426 0.88408 0.40882 0.0
H3007 H 0.70722 0.84946 0.38521 0.0
H3008 H 0.67916 0.85043 0.39838 0.0
H3009 H 0.6507 0.85892 0.38608 0.0
H3010 H 0.57542 0.90183 0.38212 0.0
H3011 H 0.60311 0.88851 0.38219 0.0
C3012 C 0.39326 0.45508 0.63624 0.0
C3013 C 0.40876 0.46238 0.63172 0.0
C3014 C 0.39266 0.4392 0.64387 0.0
C3015 C 0.39509 0.40663 0.66439 0.0
H3016 H 0.41891 0.37327 0.63771 0.0
C3017 C 0.38489 0.33479 0.6742 0.0
C3018 C 0.37985 0.32673 0.65924 0.0
C3019 C 0.39216 0.35095 0.67367 0.0
C3020 C 0.41234 0.38243 0.64542 0.0
H3021 H 0.43585 0.45907 0.63223 0.0
H3022 H 0.43484 0.43104 0.6454 0.0
H3023 H 0.42423 0.40328 0.63298 0.0
H3024 H 0.37942 0.32876 0.63202 0.0
H3025 H 0.39255 0.35655 0.63105 0.0
H3026 H 0.38268 0.38577 0.67635 0.0
C3027 C 0.42315 0.43775 0.64319 0.0
C3028 C 0.41548 0.39963 0.6428 0.0
C3029 C 0.42375 0.45386 0.63584 0.0
C3030 C 0.38324 0.33463 0.64375 0.0
C3031 C 0.3908 0.35055 0.64319 0.0
C3032 C 0.39212 0.38942 0.66716 0.0
C3033 C 0.40756 0.43005 0.64685 0.0
C3034 C 0.40651 0.41195 0.65189 0.0
C3035 C 0.39487 0.35915 0.65814 0.0
C3036 C 0.40031 0.37713 0.65734 0.0
H3037 H 0.38151 0.46131 0.63306 0.0
H3038 H 0.38045 0.4336 0.64637 0.0
H3039 H 0.38803 0.41581 0.67163 0.0
H3040 H 0.38223 0.3291 0.68633 0.0
H3041 H 0.39522 0.35724 0.68539 0.0
C3042 C 0.95181 0.13563 0.89354 0.0
C3043 C 0.95967 0.13199 0.909 0.0
C3044 C 0.93606 0.14352 0.89306 0.0
C3045 C 0.90429 0.16495 0.89491 0.0
H3046 H 0.87104 0.14196 0.92242 0.0
C3047 C 0.83302 0.17487 0.88352 0.0
C3048 C 0.82468 0.1595 0.88065 0.0
C3049 C 0.84897 0.17507 0.89125 0.0
C3050 C 0.88017 0.14866 0.91479 0.0
H3051 H 0.95747 0.13439 0.9361 0.0
H3052 H 0.92967 0.14808 0.93529 0.0
H3053 H 0.90105 0.13673 0.92716 0.0
H3054 H 0.82583 0.13252 0.88463 0.0
H3055 H 0.85322 0.13287 0.89849 0.0
H3056 H 0.88342 0.1762 0.88194 0.0
C3057 C 0.93583 0.14489 0.92353 0.0
C3058 C 0.89739 0.14576 0.91759 0.0
C3059 C 0.95181 0.13722 0.92399 0.0
C3060 C 0.83191 0.14456 0.88684 0.0
C3061 C 0.84764 0.14478 0.89479 0.0
C3062 C 0.88709 0.16796 0.8922 0.0
C3063 C 0.92759 0.14775 0.90804 0.0
C3064 C 0.90965 0.15342 0.90729 0.0
C3065 C 0.8567 0.15993 0.89649 0.0
C3066 C 0.87479 0.1594 0.90171 0.0
H3067 H 0.95753 0.13167 0.88178 0.0
H3068 H 0.93007 0.14535 0.88093 0.0
H3069 H 0.91341 0.17116 0.88685 0.0
H3070 H 0.82786 0.18653 0.87862 0.0
H3071 H 0.85558 0.18696 0.89247 0.0
C3072 C 0.39721 0.11432 0.45407 0.0
C3073 C 0.40171 0.12885 0.46319 0.0
C3074 C 0.39093 0.11574 0.43753 0.0
C3075 C 0.39654 0.14478 0.40231 0.0
H3076 H 0.36251 0.11881 0.37865 0.0
C3077 C 0.39387 0.14822 0.33112 0.0
C3078 C 0.3782 0.15287 0.32432 0.0
C3079 C 0.39501 0.1418 0.34747 0.0
C3080 C 0.37205 0.12613 0.38513 0.0
H3081 H 0.40163 0.15615 0.46292 0.0
H3082 H 0.39029 0.15864 0.4345 0.0
H3083 H 0.3661 0.11528 0.40933 0.0
H3084 H 0.35128 0.15332 0.32884 0.0
H3085 H 0.35326 0.1421 0.35765 0.0
H3086 H 0.4026 0.15568 0.37848 0.0
C3087 C 0.39196 0.14616 0.43981 0.0
C3088 C 0.37414 0.12407 0.40264 0.0
C3089 C 0.39831 0.14474 0.45616 0.0
C3090 C 0.3635 0.14958 0.33368 0.0
C3091 C 0.36465 0.14326 0.35021 0.0
C3092 C 0.3946 0.14669 0.38495 0.0
C3093 C 0.38904 0.13171 0.42996 0.0
C3094 C 0.38634 0.13352 0.41143 0.0
C3095 C 0.38052 0.14011 0.35755 0.0
C3096 C 0.38239 0.13739 0.37608 0.0
H3097 H 0.39993 0.10191 0.45909 0.0
H3098 H 0.38881 0.10437 0.43027 0.0
H3099 H 0.40625 0.15207 0.40858 0.0
H3100 H 0.4054 0.15062 0.32419 0.0
H3101 H 0.4074 0.13914 0.3526 0.0
C3102 C 0.13506 0.14297 0.58292 0.0
C3103 C 0.13057 0.12763 0.57527 0.0
C3104 C 0.14287 0.1432 0.59871 0.0
C3105 C 0.14279 0.11939 0.63771 0.0
H3106 H 0.17614 0.1524 0.65156 0.0
C3107 C 0.17455 0.15021 0.70229 0.0
C3108 C 0.15955 0.15484 0.71052 0.0
C3109 C 0.17399 0.14282 0.68619 0.0
C3110 C 0.16703 0.14289 0.64791 0.0
H3111 H 0.13131 0.10046 0.57786 0.0
H3112 H 0.14479 0.10084 0.60576 0.0
H3113 H 0.171 0.14753 0.62156 0.0
H3114 H 0.13228 0.1544 0.70894 0.0
H3115 H 0.13129 0.14111 0.68127 0.0
H3116 H 0.1382 0.1154 0.66406 0.0
C3117 C 0.1424 0.11268 0.59939 0.0
C3118 C 0.164 0.14019 0.63072 0.0
C3119 C 0.13485 0.11245 0.58336 0.0
C3120 C 0.14404 0.15087 0.70292 0.0
C3121 C 0.14348 0.14322 0.68706 0.0
C3122 C 0.14568 0.12224 0.6549 0.0
C3123 C 0.1461 0.1281 0.60742 0.0
C3124 C 0.15152 0.12874 0.62541 0.0
C3125 C 0.15843 0.13963 0.67823 0.0
C3126 C 0.15751 0.13436 0.66021 0.0
H3127 H 0.1318 0.15486 0.57702 0.0
H3128 H 0.14539 0.15528 0.60457 0.0
H3129 H 0.133 0.11059 0.63407 0.0
H3130 H 0.18667 0.15333 0.70775 0.0
H3131 H 0.18572 0.14014 0.67973 0.0
C3132 C 0.13482 0.92435 0.953 0.0
C3133 C 0.13012 0.9093 0.9611 0.0
C3134 C 0.14244 0.9239 0.93701 0.0
C3135 C 0.14302 0.91699 0.89868 0.0
H3136 H 0.17614 0.88351 0.88542 0.0
C3137 C 0.14499 0.88526 0.83357 0.0
C3138 C 0.1606 0.88124 0.8262 0.0
C3139 C 0.14422 0.89292 0.84941 0.0
C3140 C 0.1671 0.89314 0.88891 0.0
H3141 H 0.13068 0.88205 0.95941 0.0
H3142 H 0.1444 0.88123 0.93193 0.0
H3143 H 0.1706 0.88852 0.91533 0.0
H3144 H 0.18768 0.88267 0.82937 0.0
H3145 H 0.18636 0.89587 0.85737 0.0
H3146 H 0.13888 0.92095 0.87225 0.0
C3147 C 0.14214 0.89338 0.93775 0.0
C3148 C 0.16384 0.89593 0.90604 0.0
C3149 C 0.13424 0.89384 0.95349 0.0
C3150 C 0.17549 0.88583 0.83465 0.0
C3151 C 0.17472 0.89322 0.85073 0.0
C3152 C 0.14613 0.91405 0.88154 0.0
C3153 C 0.14582 0.90838 0.92905 0.0
C3154 C 0.15145 0.90756 0.91113 0.0
C3155 C 0.15905 0.89647 0.85845 0.0
C3156 C 0.15789 0.90178 0.87645 0.0
H3157 H 0.13158 0.93644 0.95847 0.0
H3158 H 0.14518 0.93566 0.93063 0.0
H3159 H 0.13331 0.92594 0.90216 0.0
H3160 H 0.13331 0.88176 0.82738 0.0
H3161 H 0.13196 0.89509 0.85503 0.0
C3162 C 0.40143 0.92318 0.08091 0.0
C3163 C 0.40473 0.90787 0.07264 0.0
C3164 C 0.39373 0.92323 0.09688 0.0
C3165 C 0.37093 0.89633 0.12816 0.0
H3166 H 0.39824 0.91967 0.16131 0.0
C3167 C 0.39249 0.88395 0.19973 0.0
C3168 C 0.37712 0.87992 0.20759 0.0
C3169 C 0.39277 0.89187 0.184 0.0
C3170 C 0.39035 0.91322 0.15222 0.0
H3171 H 0.40156 0.88078 0.07394 0.0
H3172 H 0.38776 0.88086 0.10135 0.0
H3173 H 0.40304 0.92474 0.13133 0.0
H3174 H 0.34996 0.88165 0.20542 0.0
H3175 H 0.3504 0.89539 0.17764 0.0
H3176 H 0.35884 0.88414 0.14905 0.0
C3177 C 0.3911 0.89284 0.09571 0.0
C3178 C 0.39299 0.91624 0.13501 0.0
C3179 C 0.39902 0.89278 0.07997 0.0
C3180 C 0.36198 0.8848 0.19975 0.0
C3181 C 0.36225 0.89249 0.18379 0.0
C3182 C 0.36818 0.89342 0.14538 0.0
C3183 C 0.38895 0.90798 0.10468 0.0
C3184 C 0.38372 0.90738 0.12276 0.0
C3185 C 0.37767 0.89574 0.17555 0.0
C3186 C 0.37826 0.90138 0.1576 0.0
H3187 H 0.40595 0.93497 0.07567 0.0
H3188 H 0.39217 0.93511 0.10342 0.0
H3189 H 0.36347 0.88939 0.11905 0.0
H3190 H 0.40435 0.88026 0.20544 0.0
H3191 H 0.40485 0.894 0.178 0.0
C3192 C 0.45508 0.39975 0.14477 0.0
C3193 C 0.46232 0.40468 0.12937 0.0
C3194 C 0.43924 0.39202 0.14522 0.0
C3195 C 0.40657 0.3718 0.14267 0.0
H3196 H 0.37334 0.39865 0.11886 0.0
C3197 C 0.33475 0.36269 0.15353 0.0
C3198 C 0.32683 0.37781 0.15834 0.0
C3199 C 0.35085 0.36299 0.1461 0.0
C3200 C 0.38246 0.39088 0.12544 0.0
H3201 H 0.45897 0.40474 0.1023 0.0
H3202 H 0.43104 0.39135 0.10306 0.0
H3203 H 0.40334 0.40325 0.11354 0.0
H3204 H 0.32902 0.40504 0.15821 0.0
H3205 H 0.35669 0.40559 0.14486 0.0
H3206 H 0.38567 0.35997 0.15513 0.0
C3207 C 0.43775 0.39334 0.11479 0.0
C3208 C 0.39966 0.39342 0.12229 0.0
C3209 C 0.45381 0.40081 0.11432 0.0
C3210 C 0.33478 0.39319 0.15456 0.0
C3211 C 0.35064 0.3935 0.14687 0.0
C3212 C 0.38935 0.36912 0.14567 0.0
C3213 C 0.43007 0.38933 0.1303 0.0
C3214 C 0.41195 0.3843 0.13127 0.0
C3215 C 0.35913 0.37842 0.14304 0.0
C3216 C 0.3771 0.37902 0.1375 0.0
H3217 H 0.46129 0.40273 0.15657 0.0
H3218 H 0.43367 0.38926 0.15739 0.0
H3219 H 0.41571 0.36449 0.14972 0.0
H3220 H 0.32902 0.35065 0.15649 0.0
H3221 H 0.35705 0.35116 0.14323 0.0
C3222 C 0.92446 0.95469 0.1355 0.0
C3223 C 0.90931 0.96293 0.13142 0.0
C3224 C 0.92418 0.9386 0.14294 0.0
C3225 C 0.89678 0.9073 0.16466 0.0
H3226 H 0.92066 0.87396 0.13804 0.0
C3227 C 0.88684 0.83556 0.17492 0.0
C3228 C 0.88167 0.82748 0.16002 0.0
C3229 C 0.89419 0.85168 0.17427 0.0
C3230 C 0.91409 0.88312 0.14574 0.0
H3231 H 0.88208 0.96138 0.13291 0.0
H3232 H 0.88157 0.93373 0.14635 0.0
H3233 H 0.92567 0.90398 0.13302 0.0
H3234 H 0.88109 0.82939 0.13279 0.0
H3235 H 0.89434 0.85711 0.13163 0.0
H3236 H 0.88465 0.88644 0.17688 0.0
C3237 C 0.89368 0.93952 0.14374 0.0
C3238 C 0.91704 0.90032 0.14296 0.0
C3239 C 0.89395 0.95536 0.13603 0.0
C3240 C 0.88502 0.83528 0.14447 0.0
C3241 C 0.89265 0.85116 0.14381 0.0
C3242 C 0.89399 0.89009 0.1676 0.0
C3243 C 0.90874 0.93067 0.14674 0.0
C3244 C 0.90801 0.91262 0.152 0.0
C3245 C 0.89682 0.85981 0.1587 0.0
C3246 C 0.9022 0.87781 0.15779 0.0
H3247 H 0.93646 0.96012 0.13186 0.0
H3248 H 0.93599 0.93211 0.14515 0.0
H3249 H 0.88968 0.91647 0.17188 0.0
H3250 H 0.88421 0.82993 0.18708 0.0
H3251 H 0.89732 0.85801 0.18596 0.0
C3252 C 0.20309 0.6401 0.65491 0.0
C3253 C 0.21031 0.65611 0.65716 0.0
C3254 C 0.1868 0.6384 0.64849 0.0
C3255 C 0.15048 0.6597 0.62802 0.0
H3256 H 0.12519 0.6289 0.65637 0.0
C3257 C 0.08232 0.63393 0.61426 0.0
C3258 C 0.07225 0.63041 0.62841 0.0
C3259 C 0.09875 0.64032 0.61633 0.0
C3260 C 0.13195 0.63771 0.64841 0.0
H3261 H 0.20656 0.6829 0.65334 0.0
H3262 H 0.17777 0.67996 0.64219 0.0
H3263 H 0.15499 0.63303 0.66145 0.0
H3264 H 0.0707 0.63228 0.65558 0.0
H3265 H 0.09886 0.644 0.65916 0.0
H3266 H 0.12707 0.66433 0.61504 0.0
C3267 C 0.18486 0.66869 0.64528 0.0
C3268 C 0.14917 0.63988 0.65117 0.0
C3269 C 0.20135 0.67038 0.65162 0.0
C3270 C 0.07823 0.63483 0.64446 0.0
C3271 C 0.09444 0.64138 0.64651 0.0
C3272 C 0.1331 0.65742 0.62516 0.0
C3273 C 0.17716 0.6527 0.64435 0.0
C3274 C 0.15873 0.6508 0.64099 0.0
C3275 C 0.10525 0.64336 0.63258 0.0
C3276 C 0.12362 0.64643 0.63541 0.0
H3277 H 0.20975 0.62885 0.65893 0.0
H3278 H 0.18144 0.62587 0.64752 0.0
H3279 H 0.1575 0.66821 0.61996 0.0
H3280 H 0.07809 0.63041 0.60176 0.0
H3281 H 0.10673 0.6417 0.60534 0.0
C3282 C 0.6428 0.95604 0.8961 0.0
C3283 C 0.62764 0.96353 0.90138 0.0
C3284 C 0.64279 0.9403 0.88818 0.0
C3285 C 0.61892 0.90124 0.88959 0.0
H3286 H 0.65155 0.8867 0.8562 0.0
C3287 C 0.65031 0.83602 0.88976 0.0
C3288 C 0.65441 0.82808 0.87447 0.0
C3289 C 0.64264 0.85189 0.88991 0.0
C3290 C 0.64213 0.89053 0.86532 0.0
H3291 H 0.60048 0.96077 0.90183 0.0
H3292 H 0.60042 0.93303 0.88806 0.0
H3293 H 0.64663 0.9168 0.86067 0.0
H3294 H 0.65306 0.83025 0.84729 0.0
H3295 H 0.63978 0.85826 0.84752 0.0
H3296 H 0.61501 0.87499 0.89481 0.0
C3297 C 0.61233 0.93945 0.88995 0.0
C3298 C 0.63941 0.90779 0.86797 0.0
C3299 C 0.61233 0.95542 0.89763 0.0
C3300 C 0.64986 0.83598 0.85927 0.0
C3301 C 0.64242 0.85207 0.8594 0.0
C3302 C 0.62175 0.88399 0.88705 0.0
C3303 C 0.62761 0.93148 0.88562 0.0
C3304 C 0.62814 0.91337 0.88049 0.0
C3305 C 0.63912 0.86038 0.87475 0.0
C3306 C 0.63376 0.87842 0.87523 0.0
H3307 H 0.65479 0.96194 0.89899 0.0
H3308 H 0.6548 0.93451 0.88519 0.0
H3309 H 0.61025 0.90507 0.89942 0.0
H3310 H 0.65375 0.83028 0.90167 0.0
H3311 H 0.64045 0.85795 0.90194 0.0
C3312 C 0.88375 0.20196 0.39355 0.0
C3313 C 0.88046 0.20975 0.37798 0.0
C3314 C 0.89138 0.18608 0.39427 0.0
C3315 C 0.89291 0.1471 0.37057 0.0
H3316 H 0.92463 0.1334 0.4052 0.0
C3317 C 0.92382 0.08266 0.40261 0.0
C3318 C 0.90872 0.07429 0.40665 0.0
C3319 C 0.92341 0.09877 0.39522 0.0
C3320 C 0.91599 0.13701 0.39525 0.0
H3321 H 0.8831 0.20725 0.35093 0.0
H3322 H 0.89621 0.17917 0.35216 0.0
H3323 H 0.91946 0.1634 0.40016 0.0
H3324 H 0.88149 0.07563 0.40515 0.0
H3325 H 0.88077 0.10332 0.39179 0.0
H3326 H 0.88876 0.12069 0.36629 0.0
C3327 C 0.89303 0.18552 0.36382 0.0
C3328 C 0.91294 0.15419 0.39245 0.0
C3329 C 0.88568 0.20164 0.36312 0.0
C3330 C 0.89332 0.08175 0.40206 0.0
C3331 C 0.89292 0.09762 0.39439 0.0
C3332 C 0.89579 0.1299 0.37352 0.0
C3333 C 0.89561 0.17742 0.37941 0.0
C3334 C 0.90105 0.15943 0.38038 0.0
C3335 C 0.90791 0.1066 0.39143 0.0
C3336 C 0.90705 0.12465 0.3862 0.0
H3337 H 0.87978 0.20788 0.40521 0.0
H3338 H 0.89303 0.18016 0.40647 0.0
H3339 H 0.88358 0.1507 0.36127 0.0
H3340 H 0.93586 0.07732 0.40624 0.0
H3341 H 0.93518 0.10536 0.39303 0.0
C3342 C 0.65274 0.20482 0.67025 0.0
C3343 C 0.6546 0.21542 0.65617 0.0
C3344 C 0.646 0.18853 0.66836 0.0
C3345 C 0.64514 0.15668 0.635 0.0
H3346 H 0.61944 0.12931 0.66635 0.0
C3347 C 0.64574 0.08552 0.62821 0.0
C3348 C 0.62996 0.0775 0.62736 0.0
C3349 C 0.64718 0.10189 0.63449 0.0
C3350 C 0.62658 0.13684 0.65747 0.0
H3351 H 0.64947 0.21805 0.62953 0.0
H3352 H 0.63704 0.19012 0.62635 0.0
H3353 H 0.62277 0.15975 0.67155 0.0
H3354 H 0.60347 0.07992 0.6336 0.0
H3355 H 0.60599 0.10881 0.64461 0.0
H3356 H 0.64911 0.13408 0.62097 0.0
C3357 C 0.64119 0.19405 0.63875 0.0
C3358 C 0.62854 0.15424 0.66047 0.0
C3359 C 0.6481 0.21015 0.64059 0.0
C3360 C 0.61582 0.08575 0.63419 0.0
C3361 C 0.61725 0.1023 0.64045 0.0
C3362 C 0.64331 0.13944 0.63211 0.0
C3363 C 0.64096 0.18268 0.65237 0.0
C3364 C 0.63786 0.16436 0.64923 0.0
C3365 C 0.63286 0.11077 0.63997 0.0
C3366 C 0.63417 0.12924 0.64335 0.0
H3367 H 0.65798 0.20847 0.68233 0.0
H3368 H 0.64604 0.1801 0.67911 0.0
H3369 H 0.65267 0.16394 0.62622 0.0
H3370 H 0.65691 0.07944 0.6232 0.0
H3371 H 0.65946 0.10789 0.63434 0.0
C3372 C 0.07477 0.39361 0.898 0.0
C3373 C 0.07081 0.40276 0.9126 0.0
C3374 C 0.09072 0.38638 0.89601 0.0
C3375 C 0.13265 0.37815 0.916 0.0
H3376 H 0.14901 0.39298 0.87237 0.0
C3377 C 0.20038 0.36629 0.88633 0.0
C3378 C 0.20727 0.38056 0.87831 0.0
C3379 C 0.18403 0.36691 0.89324 0.0
C3380 C 0.14466 0.38871 0.8846 0.0
H3381 H 0.07996 0.41064 0.93704 0.0
H3382 H 0.10801 0.39809 0.93357 0.0
H3383 H 0.11934 0.39593 0.87916 0.0
H3384 H 0.20305 0.407 0.87265 0.0
H3385 H 0.17488 0.40804 0.88464 0.0
H3386 H 0.15842 0.3713 0.92136 0.0
C3387 C 0.09869 0.39618 0.92377 0.0
C3388 C 0.12757 0.39021 0.88844 0.0
C3389 C 0.08258 0.40328 0.92583 0.0
C3390 C 0.19806 0.39571 0.87852 0.0
C3391 C 0.18187 0.39631 0.88535 0.0
C3392 C 0.14989 0.37647 0.91204 0.0
C3393 C 0.10323 0.38846 0.90844 0.0
C3394 C 0.1213 0.38514 0.90424 0.0
C3395 C 0.17438 0.38179 0.89217 0.0
C3396 C 0.15608 0.38207 0.89639 0.0
H3397 H 0.066 0.39324 0.88753 0.0
H3398 H 0.09366 0.3802 0.88419 0.0
H3399 H 0.12824 0.37413 0.92828 0.0
H3400 H 0.20714 0.35442 0.8863 0.0
H3401 H 0.17856 0.35553 0.89846 0.0
C3402 C 0.33323 0.64267 0.38296 0.0
C3403 C 0.32566 0.65815 0.37882 0.0
C3404 C 0.34914 0.64215 0.39054 0.0
C3405 C 0.38139 0.64463 0.41148 0.0
H3406 H 0.4148 0.66929 0.38564 0.0
C3407 C 0.45311 0.63456 0.42183 0.0
C3408 C 0.46131 0.62988 0.40684 0.0
C3409 C 0.43696 0.64187 0.42129 0.0
C3410 C 0.40562 0.66248 0.39313 0.0
H3411 H 0.32855 0.68528 0.37992 0.0
H3412 H 0.35666 0.6844 0.39297 0.0
H3413 H 0.38479 0.67439 0.38065 0.0
H3414 H 0.45959 0.63012 0.37959 0.0
H3415 H 0.43184 0.6433 0.37864 0.0
H3416 H 0.40222 0.63221 0.42345 0.0
C3417 C 0.35013 0.67266 0.39049 0.0
C3418 C 0.38842 0.66549 0.39035 0.0
C3419 C 0.33399 0.67318 0.38319 0.0
C3420 C 0.4536 0.63368 0.39135 0.0
C3421 C 0.4377 0.64127 0.3908 0.0
C3422 C 0.39859 0.64178 0.41441 0.0
C3423 C 0.35805 0.65711 0.39387 0.0
C3424 C 0.3761 0.65621 0.39911 0.0
C3425 C 0.42893 0.64495 0.40575 0.0
C3426 C 0.41091 0.65028 0.40488 0.0
H3427 H 0.32715 0.63089 0.37963 0.0
H3428 H 0.35491 0.62997 0.39281 0.0
H3429 H 0.3722 0.63733 0.41848 0.0
H3430 H 0.45866 0.63157 0.43394 0.0
H3431 H 0.43054 0.64462 0.43302 0.0
C3432 C 0.89943 0.61509 0.95454 0.0
C3433 C 0.9038 0.63011 0.96287 0.0
C3434 C 0.89204 0.61562 0.93845 0.0
C3435 C 0.8712 0.64372 0.9071 0.0
H3436 H 0.89709 0.6188 0.87394 0.0
C3437 C 0.89177 0.6541 0.83489 0.0
C3438 C 0.87633 0.65799 0.82711 0.0
C3439 C 0.89219 0.64664 0.85086 0.0
C3440 C 0.8896 0.62569 0.88305 0.0
H3441 H 0.90287 0.65736 0.96147 0.0
H3442 H 0.88954 0.65831 0.9338 0.0
H3443 H 0.90191 0.61379 0.90397 0.0
H3444 H 0.84918 0.65658 0.82971 0.0
H3445 H 0.84989 0.64374 0.85791 0.0
H3446 H 0.85941 0.65613 0.88617 0.0
C3447 C 0.89186 0.64612 0.93953 0.0
C3448 C 0.89226 0.62272 0.90026 0.0
C3449 C 0.89951 0.64559 0.9554 0.0
C3450 C 0.86126 0.65351 0.83531 0.0
C3451 C 0.86167 0.64633 0.85151 0.0
C3452 C 0.86839 0.64652 0.88988 0.0
C3453 C 0.8886 0.63117 0.93058 0.0
C3454 C 0.88348 0.63208 0.9125 0.0
C3455 C 0.87717 0.64317 0.85961 0.0
C3456 C 0.87793 0.63793 0.87766 0.0
H3457 H 0.90284 0.60298 0.95989 0.0
H3458 H 0.88961 0.60388 0.9319 0.0
H3459 H 0.86417 0.65107 0.91621 0.0
H3460 H 0.90358 0.6575 0.82891 0.0
H3461 H 0.90433 0.64454 0.85676 0.0
C3462 C 0.63263 0.64406 0.08023 0.0
C3463 C 0.62774 0.62869 0.0729 0.0
C3464 C 0.64036 0.64444 0.09606 0.0
C3465 C 0.63919 0.62168 0.13559 0.0
H3466 H 0.67391 0.65346 0.14892 0.0
C3467 C 0.67232 0.6514 0.19992 0.0
C3468 C 0.65761 0.65694 0.20812 0.0
C3469 C 0.67136 0.64411 0.1838 0.0
C3470 C 0.66439 0.64431 0.14542 0.0
H3471 H 0.62767 0.60158 0.07613 0.0
H3472 H 0.64098 0.60222 0.10411 0.0
H3473 H 0.66864 0.64822 0.11899 0.0
H3474 H 0.63038 0.65829 0.20639 0.0
H3475 H 0.62867 0.64515 0.17867 0.0
H3476 H 0.63432 0.61847 0.162 0.0
C3477 C 0.63898 0.61398 0.09744 0.0
C3478 C 0.6613 0.64139 0.12827 0.0
C3479 C 0.63154 0.61359 0.08137 0.0
C3480 C 0.64192 0.65407 0.2004 0.0
C3481 C 0.64094 0.6465 0.18452 0.0
C3482 C 0.64212 0.62478 0.15273 0.0
C3483 C 0.64308 0.62946 0.10513 0.0
C3484 C 0.64838 0.63036 0.12315 0.0
C3485 C 0.65566 0.64191 0.17579 0.0
C3486 C 0.65447 0.63644 0.15784 0.0
H3487 H 0.62973 0.6559 0.07403 0.0
H3488 H 0.64319 0.65658 0.10165 0.0
H3489 H 0.62905 0.61322 0.13208 0.0
H3490 H 0.6846 0.65365 0.20547 0.0
H3491 H 0.68292 0.64065 0.17739 0.0
C3492 C 0.67608 0.38962 0.33279 0.0
C3493 C 0.66098 0.38406 0.32533 0.0
C3494 C 0.67583 0.39758 0.34862 0.0
C3495 C 0.67066 0.39922 0.38713 0.0
H3496 H 0.63479 0.4294 0.40112 0.0
C3497 C 0.64107 0.39885 0.4531 0.0
C3498 C 0.63463 0.4138 0.46008 0.0
C3499 C 0.64882 0.39891 0.43728 0.0
C3500 C 0.64511 0.42124 0.39744 0.0
H3501 H 0.6338 0.38344 0.32804 0.0
H3502 H 0.63333 0.39759 0.35524 0.0
H3503 H 0.63922 0.42381 0.37118 0.0
H3504 H 0.63198 0.44071 0.45636 0.0
H3505 H 0.64549 0.44086 0.42849 0.0
H3506 H 0.67605 0.39606 0.41344 0.0
C3507 C 0.64537 0.39581 0.34904 0.0
C3508 C 0.64755 0.41791 0.38027 0.0
C3509 C 0.64564 0.38763 0.33344 0.0
C3510 C 0.63708 0.42905 0.4514 0.0
C3511 C 0.64462 0.42908 0.43536 0.0
C3512 C 0.66813 0.40244 0.40432 0.0
C3513 C 0.66047 0.40041 0.3571 0.0
C3514 C 0.66 0.40645 0.37492 0.0
C3515 C 0.65007 0.4139 0.42788 0.0
C3516 C 0.65499 0.41309 0.40972 0.0
H3517 H 0.6881 0.38686 0.32692 0.0
H3518 H 0.68768 0.40105 0.35447 0.0
H3519 H 0.6803 0.39025 0.38349 0.0
H3520 H 0.63918 0.38689 0.45945 0.0
H3521 H 0.65268 0.38696 0.4319 0.0
C3522 C 0.86454 0.3825 0.7031 0.0
C3523 C 0.87982 0.37861 0.71121 0.0
C3524 C 0.8646 0.38997 0.68704 0.0
C3525 C 0.89156 0.41199 0.65552 0.0
H3526 H 0.86756 0.38517 0.62243 0.0
C3527 C 0.9011 0.42215 0.58379 0.0
C3528 C 0.90619 0.40723 0.57568 0.0
C3529 C 0.89383 0.42151 0.59993 0.0
C3530 C 0.87417 0.39293 0.63152 0.0
H3531 H 0.90701 0.38049 0.70946 0.0
H3532 H 0.90712 0.39396 0.68185 0.0
H3533 H 0.86284 0.38014 0.65247 0.0
H3534 H 0.90669 0.37998 0.57758 0.0
H3535 H 0.8936 0.37884 0.60534 0.0
H3536 H 0.90345 0.42426 0.63457 0.0
C3537 C 0.8951 0.39119 0.68772 0.0
C3538 C 0.87137 0.39014 0.64874 0.0
C3539 C 0.89505 0.38345 0.70355 0.0
C3540 C 0.90282 0.39168 0.58349 0.0
C3541 C 0.89528 0.39103 0.5994 0.0
C3542 C 0.8942 0.41492 0.6383 0.0
C3543 C 0.87993 0.39399 0.67899 0.0
C3544 C 0.88045 0.39926 0.66095 0.0
C3545 C 0.8912 0.40594 0.60807 0.0
C3546 C 0.88596 0.40504 0.6261 0.0
H3547 H 0.85264 0.37868 0.70861 0.0
H3548 H 0.85271 0.39203 0.68064 0.0
H3549 H 0.89868 0.41928 0.66462 0.0
H3550 H 0.90374 0.43431 0.57816 0.0
H3551 H 0.89076 0.43321 0.60628 0.0
loop_
_geom_bond_atom_site_label_1
_geom_bond_atom_site_label_2
_geom_bond_distance
_geom_bond_site_symmetry_2
_ccdc_geom_bond_type
C0 O2 1.247 . S
C0 O4 1.258 . S
C1 O8 1.247 . S
C1 O9 1.258 . S
O2 C0 1.247 . S
O2 Zn3 2.028 . S
Zn3 O2 2.028 . S
Zn3 O7 2.035 . S
Zn3 O9 2.035 . S
Zn3 O10 2.028 . S
O4 C0 1.258 . S
O4 Zn5 2.035 . S
Zn5 O4 2.035 . S
Zn5 O6 2.028 . S
Zn5 O8 2.028 . S
Zn5 O11 2.035 . S
O6 Zn5 2.028 . S
O6 C12 1.247 . S
O7 Zn3 2.035 . S
O7 C12 1.258 . S
O8 C1 1.247 . S
O8 Zn5 2.028 . S
O9 C1 1.258 . S
O9 Zn3 2.035 . S
O10 Zn3 2.028 . S
O10 C13 1.247 . S
O11 Zn5 2.035 . S
O11 C13 1.258 . S
C12 O6 1.247 . S
C12 O7 1.258 . S
C13 O10 1.247 . S
C13 O11 1.258 . S
C14 O16 1.247 . S
C14 O18 1.258 . S
C15 O22 1.247 . S
C15 O23 1.258 . S
O16 C14 1.247 . S
O16 Zn17 2.028 . S
Zn17 O16 2.028 . S
Zn17 O21 2.035 . S
Zn17 O23 2.035 . S
Zn17 O24 2.028 . S
O18 C14 1.258 . S
O18 Zn19 2.035 . S
Zn19 O18 2.035 . S
Zn19 O20 2.028 1_655 S
Zn19 O22 2.028 . S
Zn19 O25 2.035 . S
O20 Zn19 2.028 1_455 S
O20 C26 1.247 . S
O21 Zn17 2.035 . S
O21 C26 1.258 1_655 S
O22 C15 1.247 . S
O22 Zn19 2.028 . S
O23 C15 1.258 . S
O23 Zn17 2.035 . S
O24 Zn17 2.028 . S
O24 C27 1.247 . S
O25 Zn19 2.035 . S
O25 C27 1.258 . S
C26 O20 1.247 . S
C26 O21 1.258 1_455 S
C27 O24 1.247 . S
C27 O25 1.258 . S
C28 O30 1.247 . S
C28 O32 1.258 . S
C29 O36 1.247 . S
C29 O37 1.258 . S
O30 C28 1.247 . S
O30 Zn31 2.028 . S
Zn31 O30 2.028 . S
Zn31 O35 2.035 . S
Zn31 O37 2.035 . S
Zn31 O38 2.028 . S
O32 C28 1.258 . S
O32 Zn33 2.035 . S
Zn33 O32 2.035 . S
Zn33 O34 2.028 . S
Zn33 O36 2.028 . S
Zn33 O39 2.035 . S
O34 Zn33 2.028 . S
O34 C40 1.247 . S
O35 Zn31 2.035 . S
O35 C40 1.258 . S
O36 C29 1.247 . S
O36 Zn33 2.028 . S
O37 C29 1.258 . S
O37 Zn31 2.035 . S
O38 Zn31 2.028 . S
O38 C41 1.247 . S
O39 Zn33 2.035 . S
O39 C41 1.258 . S
C40 O34 1.247 . S
C40 O35 1.258 . S
C41 O38 1.247 . S
C41 O39 1.258 . S
C42 O44 1.247 . S
C42 O46 1.258 . S
C43 O50 1.247 . S
C43 O51 1.258 . S
O44 C42 1.247 . S
O44 Zn45 2.028 . S
Zn45 O44 2.028 . S
Zn45 O49 2.035 . S
Zn45 O51 2.035 . S
Zn45 O52 2.028 . S
O46 C42 1.258 . S
O46 Zn47 2.035 . S
Zn47 O46 2.035 . S
Zn47 O48 2.028 . S
Zn47 O50 2.028 . S
Zn47 O53 2.035 . S
O48 Zn47 2.028 . S
O48 C54 1.247 . S
O49 Zn45 2.035 . S
O49 C54 1.258 . S
O50 C43 1.247 . S
O50 Zn47 2.028 . S
O51 C43 1.258 . S
O51 Zn45 2.035 . S
O52 Zn45 2.028 . S
O52 C55 1.247 . S
O53 Zn47 2.035 . S
O53 C55 1.258 . S
C54 O48 1.247 . S
C54 O49 1.258 . S
C55 O52 1.247 . S
C55 O53 1.258 . S
C56 O58 1.247 . S
C56 O60 1.258 . S
C57 O64 1.247 . S
C57 O65 1.258 . S
O58 C56 1.247 . S
O58 Zn59 2.028 . S
Zn59 O58 2.028 . S
Zn59 O63 2.035 . S
Zn59 O65 2.035 . S
Zn59 O66 2.028 . S
O60 C56 1.258 . S
O60 Zn61 2.035 . S
Zn61 O60 2.035 . S
Zn61 O62 2.028 . S
Zn61 O64 2.028 . S
Zn61 O67 2.035 . S
O62 Zn61 2.028 . S
O62 C68 1.247 . S
O63 Zn59 2.035 . S
O63 C68 1.258 . S
O64 C57 1.247 . S
O64 Zn61 2.028 . S
O65 C57 1.258 . S
O65 Zn59 2.035 . S
O66 Zn59 2.028 . S
O66 C69 1.247 . S
O67 Zn61 2.035 . S
O67 C69 1.258 . S
C68 O62 1.247 . S
C68 O63 1.258 . S
C69 O66 1.247 . S
C69 O67 1.258 . S
C70 O72 1.247 . S
C70 O74 1.258 . S
C71 O78 1.247 . S
C71 O79 1.258 . S
O72 C70 1.247 . S
O72 Zn73 2.028 . S
Zn73 O72 2.028 . S
Zn73 O77 2.035 . S
Zn73 O79 2.035 . S
Zn73 O80 2.028 . S
O74 C70 1.258 . S
O74 Zn75 2.035 . S
Zn75 O74 2.035 . S
Zn75 O76 2.028 . S
Zn75 O78 2.028 . S
Zn75 O81 2.035 . S
O76 Zn75 2.028 . S
O76 C82 1.247 . S
O77 Zn73 2.035 . S
O77 C82 1.258 . S
O78 C71 1.247 . S
O78 Zn75 2.028 . S
O79 C71 1.258 . S
O79 Zn73 2.035 . S
O80 Zn73 2.028 . S
O80 C83 1.247 . S
O81 Zn75 2.035 . S
O81 C83 1.258 . S
C82 O76 1.247 . S
C82 O77 1.258 . S
C83 O80 1.247 . S
C83 O81 1.258 . S
C84 O86 1.247 . S
C84 O88 1.258 . S
C85 O92 1.247 . S
C85 O93 1.258 . S
O86 C84 1.247 . S
O86 Zn87 2.028 . S
Zn87 O86 2.028 . S
Zn87 O91 2.035 . S
Zn87 O93 2.035 . S
Zn87 O94 2.028 . S
O88 C84 1.258 . S
O88 Zn89 2.035 . S
Zn89 O88 2.035 . S
Zn89 O90 2.028 . S
Zn89 O92 2.028 . S
Zn89 O95 2.035 . S
O90 Zn89 2.028 . S
O90 C96 1.247 . S
O91 Zn87 2.035 . S
O91 C96 1.258 . S
O92 C85 1.247 . S
O92 Zn89 2.028 . S
O93 C85 1.258 . S
O93 Zn87 2.035 . S
O94 Zn87 2.028 . S
O94 C97 1.247 . S
O95 Zn89 2.035 . S
O95 C97 1.258 . S
C96 O90 1.247 . S
C96 O91 1.258 . S
C97 O94 1.247 . S
C97 O95 1.258 . S
C98 O100 1.247 . S
C98 O102 1.258 . S
C99 O106 1.247 . S
C99 O107 1.258 . S
O100 C98 1.247 . S
O100 Zn101 2.028 . S
Zn101 O100 2.028 . S
Zn101 O105 2.035 . S
Zn101 O107 2.035 . S
Zn101 O108 2.028 . S
O102 C98 1.258 . S
O102 Zn103 2.035 . S
Zn103 O102 2.035 . S
Zn103 O104 2.028 1_655 S
Zn103 O106 2.028 . S
Zn103 O109 2.035 . S
O104 Zn103 2.028 1_455 S
O104 C110 1.247 . S
O105 Zn101 2.035 . S
O105 C110 1.258 1_655 S
O106 C99 1.247 . S
O106 Zn103 2.028 . S
O107 C99 1.258 . S
O107 Zn101 2.035 . S
O108 Zn101 2.028 . S
O108 C111 1.247 . S
O109 Zn103 2.035 . S
O109 C111 1.258 . S
C110 O104 1.247 . S
C110 O105 1.258 1_455 S
C111 O108 1.247 . S
C111 O109 1.258 . S
C112 O114 1.247 . S
C112 O116 1.258 . S
C113 O120 1.247 . S
C113 O121 1.258 . S
O114 C112 1.247 . S
O114 Zn115 2.028 . S
Zn115 O114 2.028 . S
Zn115 O119 2.035 . S
Zn115 O121 2.035 . S
Zn115 O122 2.028 . S
O116 C112 1.258 . S
O116 Zn117 2.035 . S
Zn117 O116 2.035 . S
Zn117 O118 2.028 . S
Zn117 O120 2.028 . S
Zn117 O123 2.035 . S
O118 Zn117 2.028 . S
O118 C124 1.247 . S
O119 Zn115 2.035 . S
O119 C124 1.258 . S
O120 C113 1.247 . S
O120 Zn117 2.028 . S
O121 C113 1.258 . S
O121 Zn115 2.035 . S
O122 Zn115 2.028 . S
O122 C125 1.247 . S
O123 Zn117 2.035 . S
O123 C125 1.258 . S
C124 O118 1.247 . S
C124 O119 1.258 . S
C125 O122 1.247 . S
C125 O123 1.258 . S
C126 O128 1.247 . S
C126 O130 1.258 . S
C127 O134 1.247 . S
C127 O135 1.258 . S
O128 C126 1.247 . S
O128 Zn129 2.028 . S
Zn129 O128 2.028 . S
Zn129 O133 2.035 . S
Zn129 O135 2.035 . S
Zn129 O136 2.028 . S
O130 C126 1.258 . S
O130 Zn131 2.035 . S
Zn131 O130 2.035 . S
Zn131 O132 2.028 . S
Zn131 O134 2.028 . S
Zn131 O137 2.035 . S
O132 Zn131 2.028 . S
O132 C138 1.247 . S
O133 Zn129 2.035 . S
O133 C138 1.258 . S
O134 C127 1.247 . S
O134 Zn131 2.028 . S
O135 C127 1.258 . S
O135 Zn129 2.035 . S
O136 Zn129 2.028 . S
O136 C139 1.247 . S
O137 Zn131 2.035 . S
O137 C139 1.258 . S
C138 O132 1.247 . S
C138 O133 1.258 . S
C139 O136 1.247 . S
C139 O137 1.258 . S
C140 O142 1.247 . S
C140 O144 1.258 . S
C141 O148 1.247 . S
C141 O149 1.258 . S
O142 C140 1.247 . S
O142 Zn143 2.028 . S
Zn143 O142 2.028 . S
Zn143 O147 2.035 . S
Zn143 O149 2.035 . S
Zn143 O150 2.028 . S
O144 C140 1.258 . S
O144 Zn145 2.035 . S
Zn145 O144 2.035 . S
Zn145 O146 2.028 . S
Zn145 O148 2.028 . S
Zn145 O151 2.035 . S
O146 Zn145 2.028 . S
O146 C152 1.247 . S
O147 Zn143 2.035 . S
O147 C152 1.258 . S
O148 C141 1.247 . S
O148 Zn145 2.028 . S
O149 C141 1.258 . S
O149 Zn143 2.035 . S
O150 Zn143 2.028 . S
O150 C153 1.247 . S
O151 Zn145 2.035 . S
O151 C153 1.258 . S
C152 O146 1.247 . S
C152 O147 1.258 . S
C153 O150 1.247 . S
C153 O151 1.258 . S
C154 O156 1.247 . S
C154 O158 1.258 . S
C155 O162 1.247 . S
C155 O163 1.258 . S
O156 C154 1.247 . S
O156 Zn157 2.028 . S
Zn157 O156 2.028 . S
Zn157 O161 2.035 . S
Zn157 O163 2.035 . S
Zn157 O164 2.028 . S
O158 C154 1.258 . S
O158 Zn159 2.035 . S
Zn159 O158 2.035 . S
Zn159 O160 2.028 . S
Zn159 O162 2.028 . S
Zn159 O165 2.035 1_554 S
O160 Zn159 2.028 . S
O160 C166 1.247 . S
O161 Zn157 2.035 . S
O161 C166 1.258 . S
O162 C155 1.247 . S
O162 Zn159 2.028 . S
O163 C155 1.258 . S
O163 Zn157 2.035 . S
O164 Zn157 2.028 . S
O164 C167 1.247 1_554 S
O165 Zn159 2.035 1_556 S
O165 C167 1.258 . S
C166 O160 1.247 . S
C166 O161 1.258 . S
C167 O164 1.247 1_556 S
C167 O165 1.258 . S
C168 O170 1.247 . S
C168 O172 1.258 . S
C169 O176 1.247 . S
C169 O177 1.258 . S
O170 C168 1.247 . S
O170 Zn171 2.028 . S
Zn171 O170 2.028 . S
Zn171 O175 2.035 . S
Zn171 O177 2.035 . S
Zn171 O178 2.028 . S
O172 C168 1.258 . S
O172 Zn173 2.035 . S
Zn173 O172 2.035 . S
Zn173 O174 2.028 . S
Zn173 O176 2.028 . S
Zn173 O179 2.035 . S
O174 Zn173 2.028 . S
O174 C180 1.247 . S
O175 Zn171 2.035 . S
O175 C180 1.258 . S
O176 C169 1.247 . S
O176 Zn173 2.028 . S
O177 C169 1.258 . S
O177 Zn171 2.035 . S
O178 Zn171 2.028 . S
O178 C181 1.247 . S
O179 Zn173 2.035 . S
O179 C181 1.258 . S
C180 O174 1.247 . S
C180 O175 1.258 . S
C181 O178 1.247 . S
C181 O179 1.258 . S
C182 O184 1.247 . S
C182 O186 1.258 . S
C183 O190 1.247 . S
C183 O191 1.258 . S
O184 C182 1.247 . S
O184 Zn185 2.028 . S
Zn185 O184 2.028 . S
Zn185 O189 2.035 . S
Zn185 O191 2.035 . S
Zn185 O192 2.028 . S
O186 C182 1.258 . S
O186 Zn187 2.035 . S
Zn187 O186 2.035 . S
Zn187 O188 2.028 . S
Zn187 O190 2.028 . S
Zn187 O193 2.035 . S
O188 Zn187 2.028 . S
O188 C194 1.247 . S
O189 Zn185 2.035 . S
O189 C194 1.258 . S
O190 C183 1.247 . S
O190 Zn187 2.028 . S
O191 C183 1.258 . S
O191 Zn185 2.035 . S
O192 Zn185 2.028 . S
O192 C195 1.247 . S
O193 Zn187 2.035 . S
O193 C195 1.258 . S
C194 O188 1.247 . S
C194 O189 1.258 . S
C195 O192 1.247 . S
C195 O193 1.258 . S
C196 O198 1.247 . S
C196 O200 1.258 . S
C197 O204 1.247 . S
C197 O205 1.258 . S
O198 C196 1.247 . S
O198 Zn199 2.028 . S
Zn199 O198 2.028 . S
Zn199 O203 2.035 . S
Zn199 O205 2.035 . S
Zn199 O206 2.028 . S
O200 C196 1.258 . S
O200 Zn201 2.035 . S
Zn201 O200 2.035 . S
Zn201 O202 2.028 . S
Zn201 O204 2.028 . S
Zn201 O207 2.035 . S
O202 Zn201 2.028 . S
O202 C208 1.247 . S
O203 Zn199 2.035 . S
O203 C208 1.258 . S
O204 C197 1.247 . S
O204 Zn201 2.028 . S
O205 C197 1.258 . S
O205 Zn199 2.035 . S
O206 Zn199 2.028 . S
O206 C209 1.247 . S
O207 Zn201 2.035 . S
O207 C209 1.258 . S
C208 O202 1.247 . S
C208 O203 1.258 . S
C209 O206 1.247 . S
C209 O207 1.258 . S
C210 O212 1.247 . S
C210 O214 1.258 . S
C211 O218 1.247 1_554 S
C211 O219 1.258 . S
O212 C210 1.247 . S
O212 Zn213 2.028 . S
Zn213 O212 2.028 . S
Zn213 O217 2.035 . S
Zn213 O219 2.035 1_556 S
Zn213 O220 2.028 . S
O214 C210 1.258 . S
O214 Zn215 2.035 . S
Zn215 O214 2.035 . S
Zn215 O216 2.028 . S
Zn215 O218 2.028 . S
Zn215 O221 2.035 . S
O216 Zn215 2.028 . S
O216 C222 1.247 . S
O217 Zn213 2.035 . S
O217 C222 1.258 . S
O218 C211 1.247 1_556 S
O218 Zn215 2.028 . S
O219 C211 1.258 . S
O219 Zn213 2.035 1_554 S
O220 Zn213 2.028 . S
O220 C223 1.247 . S
O221 Zn215 2.035 . S
O221 C223 1.258 . S
C222 O216 1.247 . S
C222 O217 1.258 . S
C223 O220 1.247 . S
C223 O221 1.258 . S
C224 O226 1.247 . S
C224 O228 1.258 . S
C225 O232 1.247 . S
C225 O233 1.258 . S
O226 C224 1.247 . S
O226 Zn227 2.028 . S
Zn227 O226 2.028 . S
Zn227 O231 2.035 . S
Zn227 O233 2.035 . S
Zn227 O234 2.028 . S
O228 C224 1.258 . S
O228 Zn229 2.035 . S
Zn229 O228 2.035 . S
Zn229 O230 2.028 . S
Zn229 O232 2.028 . S
Zn229 O235 2.035 . S
O230 Zn229 2.028 . S
O230 C236 1.247 . S
O231 Zn227 2.035 . S
O231 C236 1.258 . S
O232 C225 1.247 . S
O232 Zn229 2.028 . S
O233 C225 1.258 . S
O233 Zn227 2.035 . S
O234 Zn227 2.028 . S
O234 C237 1.247 . S
O235 Zn229 2.035 . S
O235 C237 1.258 . S
C236 O230 1.247 . S
C236 O231 1.258 . S
C237 O234 1.247 . S
C237 O235 1.258 . S
C238 O240 1.247 . S
C238 O242 1.258 . S
C239 O246 1.247 . S
C239 O247 1.258 . S
O240 C238 1.247 . S
O240 Zn241 2.028 . S
Zn241 O240 2.028 . S
Zn241 O245 2.035 . S
Zn241 O247 2.035 . S
Zn241 O248 2.028 . S
O242 C238 1.258 . S
O242 Zn243 2.035 . S
Zn243 O242 2.035 . S
Zn243 O244 2.028 . S
Zn243 O246 2.028 . S
Zn243 O249 2.035 . S
O244 Zn243 2.028 . S
O244 C250 1.247 . S
O245 Zn241 2.035 . S
O245 C250 1.258 . S
O246 C239 1.247 . S
O246 Zn243 2.028 . S
O247 C239 1.258 . S
O247 Zn241 2.035 . S
O248 Zn241 2.028 . S
O248 C251 1.247 . S
O249 Zn243 2.035 . S
O249 C251 1.258 . S
C250 O244 1.247 . S
C250 O245 1.258 . S
C251 O248 1.247 . S
C251 O249 1.258 . S
C252 O254 1.247 . S
C252 O256 1.258 . S
C253 O260 1.247 . S
C253 O261 1.258 . S
O254 C252 1.247 . S
O254 Zn255 2.028 . S
Zn255 O254 2.028 . S
Zn255 O259 2.035 . S
Zn255 O261 2.035 . S
Zn255 O262 2.028 . S
O256 C252 1.258 . S
O256 Zn257 2.035 . S
Zn257 O256 2.035 . S
Zn257 O258 2.028 . S
Zn257 O260 2.028 . S
Zn257 O263 2.035 . S
O258 Zn257 2.028 . S
O258 C264 1.247 . S
O259 Zn255 2.035 . S
O259 C264 1.258 . S
O260 C253 1.247 . S
O260 Zn257 2.028 . S
O261 C253 1.258 . S
O261 Zn255 2.035 . S
O262 Zn255 2.028 . S
O262 C265 1.247 . S
O263 Zn257 2.035 . S
O263 C265 1.258 . S
C264 O258 1.247 . S
C264 O259 1.258 . S
C265 O262 1.247 . S
C265 O263 1.258 . S
C266 O268 1.247 . S
C266 O270 1.258 . S
C267 O274 1.247 . S
C267 O275 1.258 . S
O268 C266 1.247 . S
O268 Zn269 2.028 . S
Zn269 O268 2.028 . S
Zn269 O273 2.035 . S
Zn269 O275 2.035 . S
Zn269 O276 2.028 . S
O270 C266 1.258 . S
O270 Zn271 2.035 . S
Zn271 O270 2.035 . S
Zn271 O272 2.028 . S
Zn271 O274 2.028 . S
Zn271 O277 2.035 . S
O272 Zn271 2.028 . S
O272 C278 1.247 . S
O273 Zn269 2.035 . S
O273 C278 1.258 . S
O274 C267 1.247 . S
O274 Zn271 2.028 . S
O275 C267 1.258 . S
O275 Zn269 2.035 . S
O276 Zn269 2.028 . S
O276 C279 1.247 . S
O277 Zn271 2.035 . S
O277 C279 1.258 . S
C278 O272 1.247 . S
C278 O273 1.258 . S
C279 O276 1.247 . S
C279 O277 1.258 . S
C280 O282 1.247 . S
C280 O284 1.258 1_545 S
C281 O288 1.247 . S
C281 O289 1.258 . S
O282 C280 1.247 . S
O282 Zn283 2.028 1_545 S
Zn283 O282 2.028 1_565 S
Zn283 O287 2.035 . S
Zn283 O289 2.035 . S
Zn283 O290 2.028 . S
O284 C280 1.258 1_565 S
O284 Zn285 2.035 . S
Zn285 O284 2.035 . S
Zn285 O286 2.028 . S
Zn285 O288 2.028 . S
Zn285 O291 2.035 . S
O286 Zn285 2.028 . S
O286 C292 1.247 . S
O287 Zn283 2.035 . S
O287 C292 1.258 . S
O288 C281 1.247 . S
O288 Zn285 2.028 . S
O289 C281 1.258 . S
O289 Zn283 2.035 . S
O290 Zn283 2.028 . S
O290 C293 1.247 . S
O291 Zn285 2.035 . S
O291 C293 1.258 . S
C292 O286 1.247 . S
C292 O287 1.258 . S
C293 O290 1.247 . S
C293 O291 1.258 . S
C294 O296 1.247 . S
C294 O298 1.258 . S
C295 O302 1.247 . S
C295 O303 1.258 . S
O296 C294 1.247 . S
O296 Zn297 2.028 . S
Zn297 O296 2.028 . S
Zn297 O301 2.035 . S
Zn297 O303 2.035 . S
Zn297 O304 2.028 . S
O298 C294 1.258 . S
O298 Zn299 2.035 . S
Zn299 O298 2.035 . S
Zn299 O300 2.028 . S
Zn299 O302 2.028 . S
Zn299 O305 2.035 . S
O300 Zn299 2.028 . S
O300 C306 1.247 . S
O301 Zn297 2.035 . S
O301 C306 1.258 . S
O302 C295 1.247 . S
O302 Zn299 2.028 . S
O303 C295 1.258 . S
O303 Zn297 2.035 . S
O304 Zn297 2.028 . S
O304 C307 1.247 . S
O305 Zn299 2.035 . S
O305 C307 1.258 . S
C306 O300 1.247 . S
C306 O301 1.258 . S
C307 O304 1.247 . S
C307 O305 1.258 . S
C308 O310 1.247 . S
C308 O312 1.258 . S
C309 O316 1.247 . S
C309 O317 1.258 . S
O310 C308 1.247 . S
O310 Zn311 2.028 . S
Zn311 O310 2.028 . S
Zn311 O315 2.035 . S
Zn311 O317 2.035 . S
Zn311 O318 2.028 . S
O312 C308 1.258 . S
O312 Zn313 2.035 . S
Zn313 O312 2.035 . S
Zn313 O314 2.028 . S
Zn313 O316 2.028 . S
Zn313 O319 2.035 . S
O314 Zn313 2.028 . S
O314 C320 1.247 . S
O315 Zn311 2.035 . S
O315 C320 1.258 . S
O316 C309 1.247 . S
O316 Zn313 2.028 . S
O317 C309 1.258 . S
O317 Zn311 2.035 . S
O318 Zn311 2.028 . S
O318 C321 1.247 . S
O319 Zn313 2.035 . S
O319 C321 1.258 . S
C320 O314 1.247 . S
C320 O315 1.258 . S
C321 O318 1.247 . S
C321 O319 1.258 . S
C322 O324 1.247 . S
C322 O326 1.258 . S
C323 O330 1.247 . S
C323 O331 1.258 . S
O324 C322 1.247 . S
O324 Zn325 2.028 . S
Zn325 O324 2.028 . S
Zn325 O329 2.035 . S
Zn325 O331 2.035 . S
Zn325 O332 2.028 . S
O326 C322 1.258 . S
O326 Zn327 2.035 . S
Zn327 O326 2.035 . S
Zn327 O328 2.028 . S
Zn327 O330 2.028 . S
Zn327 O333 2.035 . S
O328 Zn327 2.028 . S
O328 C334 1.247 . S
O329 Zn325 2.035 . S
O329 C334 1.258 . S
O330 C323 1.247 . S
O330 Zn327 2.028 . S
O331 C323 1.258 . S
O331 Zn325 2.035 . S
O332 Zn325 2.028 . S
O332 C335 1.247 . S
O333 Zn327 2.035 . S
O333 C335 1.258 . S
C334 O328 1.247 . S
C334 O329 1.258 . S
C335 O332 1.247 . S
C335 O333 1.258 . S
C336 O338 1.247 . S
C336 O340 1.258 . S
C337 O344 1.247 . S
C337 O345 1.258 . S
O338 C336 1.247 . S
O338 Zn339 2.028 . S
Zn339 O338 2.028 . S
Zn339 O343 2.035 . S
Zn339 O345 2.035 . S
Zn339 O346 2.028 . S
O340 C336 1.258 . S
O340 Zn341 2.035 . S
Zn341 O340 2.035 . S
Zn341 O342 2.028 . S
Zn341 O344 2.028 . S
Zn341 O347 2.035 . S
O342 Zn341 2.028 . S
O342 C348 1.247 . S
O343 Zn339 2.035 . S
O343 C348 1.258 . S
O344 C337 1.247 . S
O344 Zn341 2.028 . S
O345 C337 1.258 . S
O345 Zn339 2.035 . S
O346 Zn339 2.028 . S
O346 C349 1.247 . S
O347 Zn341 2.035 . S
O347 C349 1.258 . S
C348 O342 1.247 . S
C348 O343 1.258 . S
C349 O346 1.247 . S
C349 O347 1.258 . S
C350 O352 1.247 . S
C350 O354 1.258 . S
C351 O358 1.247 . S
C351 O359 1.258 . S
O352 C350 1.247 . S
O352 Zn353 2.028 . S
Zn353 O352 2.028 . S
Zn353 O357 2.035 . S
Zn353 O359 2.035 . S
Zn353 O360 2.028 . S
O354 C350 1.258 . S
O354 Zn355 2.035 . S
Zn355 O354 2.035 . S
Zn355 O356 2.028 . S
Zn355 O358 2.028 . S
Zn355 O361 2.035 . S
O356 Zn355 2.028 . S
O356 C362 1.247 . S
O357 Zn353 2.035 . S
O357 C362 1.258 . S
O358 C351 1.247 . S
O358 Zn355 2.028 . S
O359 C351 1.258 . S
O359 Zn353 2.035 . S
O360 Zn353 2.028 . S
O360 C363 1.247 . S
O361 Zn355 2.035 . S
O361 C363 1.258 . S
C362 O356 1.247 . S
C362 O357 1.258 . S
C363 O360 1.247 . S
C363 O361 1.258 . S
C364 O366 1.247 . S
C364 O368 1.258 . S
C365 O372 1.247 . S
C365 O373 1.258 . S
O366 C364 1.247 . S
O366 Zn367 2.028 . S
Zn367 O366 2.028 . S
Zn367 O371 2.035 . S
Zn367 O373 2.035 . S
Zn367 O374 2.028 . S
O368 C364 1.258 . S
O368 Zn369 2.035 . S
Zn369 O368 2.035 . S
Zn369 O370 2.028 . S
Zn369 O372 2.028 . S
Zn369 O375 2.035 . S
O370 Zn369 2.028 . S
O370 C376 1.247 . S
O371 Zn367 2.035 . S
O371 C376 1.258 . S
O372 C365 1.247 . S
O372 Zn369 2.028 . S
O373 C365 1.258 . S
O373 Zn367 2.035 . S
O374 Zn367 2.028 . S
O374 C377 1.247 . S
O375 Zn369 2.035 . S
O375 C377 1.258 . S
C376 O370 1.247 . S
C376 O371 1.258 . S
C377 O374 1.247 . S
C377 O375 1.258 . S
C378 O380 1.247 . S
C378 O382 1.258 . S
C379 O386 1.247 . S
C379 O387 1.258 . S
O380 C378 1.247 . S
O380 Zn381 2.028 . S
Zn381 O380 2.028 . S
Zn381 O385 2.035 . S
Zn381 O387 2.035 . S
Zn381 O388 2.028 . S
O382 C378 1.258 . S
O382 Zn383 2.035 . S
Zn383 O382 2.035 . S
Zn383 O384 2.028 1_455 S
Zn383 O386 2.028 . S
Zn383 O389 2.035 . S
O384 Zn383 2.028 1_655 S
O384 C390 1.247 . S
O385 Zn381 2.035 . S
O385 C390 1.258 1_455 S
O386 C379 1.247 . S
O386 Zn383 2.028 . S
O387 C379 1.258 . S
O387 Zn381 2.035 . S
O388 Zn381 2.028 . S
O388 C391 1.247 . S
O389 Zn383 2.035 . S
O389 C391 1.258 . S
C390 O384 1.247 . S
C390 O385 1.258 1_655 S
C391 O388 1.247 . S
C391 O389 1.258 . S
C392 O394 1.247 . S
C392 O396 1.258 . S
C393 O400 1.247 . S
C393 O401 1.258 . S
O394 C392 1.247 . S
O394 Zn395 2.028 . S
Zn395 O394 2.028 . S
Zn395 O399 2.035 . S
Zn395 O401 2.035 . S
Zn395 O402 2.028 . S
O396 C392 1.258 . S
O396 Zn397 2.035 . S
Zn397 O396 2.035 . S
Zn397 O398 2.028 . S
Zn397 O400 2.028 . S
Zn397 O403 2.035 . S
O398 Zn397 2.028 . S
O398 C404 1.247 . S
O399 Zn395 2.035 . S
O399 C404 1.258 . S
O400 C393 1.247 . S
O400 Zn397 2.028 . S
O401 C393 1.258 . S
O401 Zn395 2.035 . S
O402 Zn395 2.028 . S
O402 C405 1.247 . S
O403 Zn397 2.035 . S
O403 C405 1.258 . S
C404 O398 1.247 . S
C404 O399 1.258 . S
C405 O402 1.247 . S
C405 O403 1.258 . S
C406 O408 1.247 . S
C406 O410 1.258 1_655 S
C407 O414 1.247 . S
C407 O415 1.258 . S
O408 C406 1.247 . S
O408 Zn409 2.028 1_655 S
Zn409 O408 2.028 1_455 S
Zn409 O413 2.035 . S
Zn409 O415 2.035 . S
Zn409 O416 2.028 . S
O410 C406 1.258 1_455 S
O410 Zn411 2.035 . S
Zn411 O410 2.035 . S
Zn411 O412 2.028 . S
Zn411 O414 2.028 . S
Zn411 O417 2.035 . S
O412 Zn411 2.028 . S
O412 C418 1.247 . S
O413 Zn409 2.035 . S
O413 C418 1.258 . S
O414 C407 1.247 . S
O414 Zn411 2.028 . S
O415 C407 1.258 . S
O415 Zn409 2.035 . S
O416 Zn409 2.028 . S
O416 C419 1.247 . S
O417 Zn411 2.035 . S
O417 C419 1.258 . S
C418 O412 1.247 . S
C418 O413 1.258 . S
C419 O416 1.247 . S
C419 O417 1.258 . S
C420 O422 1.247 . S
C420 O424 1.258 . S
C421 O428 1.247 . S
C421 O429 1.258 . S
O422 C420 1.247 . S
O422 Zn423 2.028 . S
Zn423 O422 2.028 . S
Zn423 O427 2.035 . S
Zn423 O429 2.035 . S
Zn423 O430 2.028 . S
O424 C420 1.258 . S
O424 Zn425 2.035 . S
Zn425 O424 2.035 . S
Zn425 O426 2.028 . S
Zn425 O428 2.028 . S
Zn425 O431 2.035 . S
O426 Zn425 2.028 . S
O426 C432 1.247 . S
O427 Zn423 2.035 . S
O427 C432 1.258 . S
O428 C421 1.247 . S
O428 Zn425 2.028 . S
O429 C421 1.258 . S
O429 Zn423 2.035 . S
O430 Zn423 2.028 . S
O430 C433 1.247 . S
O431 Zn425 2.035 . S
O431 C433 1.258 . S
C432 O426 1.247 . S
C432 O427 1.258 . S
C433 O430 1.247 . S
C433 O431 1.258 . S
C434 O436 1.247 . S
C434 O438 1.258 . S
C435 O442 1.247 . S
C435 O443 1.258 . S
O436 C434 1.247 . S
O436 Zn437 2.028 . S
Zn437 O436 2.028 . S
Zn437 O441 2.035 . S
Zn437 O443 2.035 . S
Zn437 O444 2.028 . S
O438 C434 1.258 . S
O438 Zn439 2.035 . S
Zn439 O438 2.035 . S
Zn439 O440 2.028 . S
Zn439 O442 2.028 . S
Zn439 O445 2.035 . S
O440 Zn439 2.028 . S
O440 C446 1.247 . S
O441 Zn437 2.035 . S
O441 C446 1.258 . S
O442 C435 1.247 . S
O442 Zn439 2.028 . S
O443 C435 1.258 . S
O443 Zn437 2.035 . S
O444 Zn437 2.028 . S
O444 C447 1.247 . S
O445 Zn439 2.035 . S
O445 C447 1.258 . S
C446 O440 1.247 . S
C446 O441 1.258 . S
C447 O444 1.247 . S
C447 O445 1.258 . S
C448 O450 1.247 . S
C448 O452 1.258 . S
C449 O456 1.247 . S
C449 O457 1.258 . S
O450 C448 1.247 . S
O450 Zn451 2.028 . S
Zn451 O450 2.028 . S
Zn451 O455 2.035 . S
Zn451 O457 2.035 . S
Zn451 O458 2.028 . S
O452 C448 1.258 . S
O452 Zn453 2.035 . S
Zn453 O452 2.035 . S
Zn453 O454 2.028 . S
Zn453 O456 2.028 . S
Zn453 O459 2.035 . S
O454 Zn453 2.028 . S
O454 C460 1.247 . S
O455 Zn451 2.035 . S
O455 C460 1.258 . S
O456 C449 1.247 . S
O456 Zn453 2.028 . S
O457 C449 1.258 . S
O457 Zn451 2.035 . S
O458 Zn451 2.028 . S
O458 C461 1.247 . S
O459 Zn453 2.035 . S
O459 C461 1.258 . S
C460 O454 1.247 . S
C460 O455 1.258 . S
C461 O458 1.247 . S
C461 O459 1.258 . S
C462 O464 1.247 . S
C462 O466 1.258 1_556 S
C463 O470 1.247 . S
C463 O471 1.258 . S
O464 C462 1.247 . S
O464 Zn465 2.028 1_556 S
Zn465 O464 2.028 1_554 S
Zn465 O469 2.035 . S
Zn465 O471 2.035 . S
Zn465 O472 2.028 . S
O466 C462 1.258 1_554 S
O466 Zn467 2.035 . S
Zn467 O466 2.035 . S
Zn467 O468 2.028 . S
Zn467 O470 2.028 . S
Zn467 O473 2.035 . S
O468 Zn467 2.028 . S
O468 C474 1.247 . S
O469 Zn465 2.035 . S
O469 C474 1.258 . S
O470 C463 1.247 . S
O470 Zn467 2.028 . S
O471 C463 1.258 . S
O471 Zn465 2.035 . S
O472 Zn465 2.028 . S
O472 C475 1.247 . S
O473 Zn467 2.035 . S
O473 C475 1.258 . S
C474 O468 1.247 . S
C474 O469 1.258 . S
C475 O472 1.247 . S
C475 O473 1.258 . S
C476 O478 1.247 . S
C476 O480 1.258 . S
C477 O484 1.247 . S
C477 O485 1.258 . S
O478 C476 1.247 . S
O478 Zn479 2.028 . S
Zn479 O478 2.028 . S
Zn479 O483 2.035 . S
Zn479 O485 2.035 . S
Zn479 O486 2.028 . S
O480 C476 1.258 . S
O480 Zn481 2.035 . S
Zn481 O480 2.035 . S
Zn481 O482 2.028 . S
Zn481 O484 2.028 . S
Zn481 O487 2.035 . S
O482 Zn481 2.028 . S
O482 C488 1.247 . S
O483 Zn479 2.035 . S
O483 C488 1.258 . S
O484 C477 1.247 . S
O484 Zn481 2.028 . S
O485 C477 1.258 . S
O485 Zn479 2.035 . S
O486 Zn479 2.028 . S
O486 C489 1.247 . S
O487 Zn481 2.035 . S
O487 C489 1.258 . S
C488 O482 1.247 . S
C488 O483 1.258 . S
C489 O486 1.247 . S
C489 O487 1.258 . S
C490 O492 1.247 . S
C490 O494 1.258 . S
C491 O498 1.247 . S
C491 O499 1.258 . S
O492 C490 1.247 . S
O492 Zn493 2.028 . S
Zn493 O492 2.028 . S
Zn493 O497 2.035 . S
Zn493 O499 2.035 . S
Zn493 O500 2.028 . S
O494 C490 1.258 . S
O494 Zn495 2.035 . S
Zn495 O494 2.035 . S
Zn495 O496 2.028 . S
Zn495 O498 2.028 . S
Zn495 O501 2.035 . S
O496 Zn495 2.028 . S
O496 C502 1.247 . S
O497 Zn493 2.035 . S
O497 C502 1.258 . S
O498 C491 1.247 . S
O498 Zn495 2.028 . S
O499 C491 1.258 . S
O499 Zn493 2.035 . S
O500 Zn493 2.028 . S
O500 C503 1.247 . S
O501 Zn495 2.035 . S
O501 C503 1.258 . S
C502 O496 1.247 . S
C502 O497 1.258 . S
C503 O500 1.247 . S
C503 O501 1.258 . S
C504 O506 1.247 . S
C504 O508 1.258 . S
C505 O512 1.247 . S
C505 O513 1.258 . S
O506 C504 1.247 . S
O506 Zn507 2.028 . S
Zn507 O506 2.028 . S
Zn507 O511 2.035 . S
Zn507 O513 2.035 . S
Zn507 O514 2.028 . S
O508 C504 1.258 . S
O508 Zn509 2.035 . S
Zn509 O508 2.035 . S
Zn509 O510 2.028 . S
Zn509 O512 2.028 . S
Zn509 O515 2.035 . S
O510 Zn509 2.028 . S
O510 C516 1.247 . S
O511 Zn507 2.035 . S
O511 C516 1.258 . S
O512 C505 1.247 . S
O512 Zn509 2.028 . S
O513 C505 1.258 . S
O513 Zn507 2.035 . S
O514 Zn507 2.028 . S
O514 C517 1.247 . S
O515 Zn509 2.035 . S
O515 C517 1.258 . S
C516 O510 1.247 . S
C516 O511 1.258 . S
C517 O514 1.247 . S
C517 O515 1.258 . S
C518 O520 1.247 . S
C518 O522 1.258 . S
C519 O526 1.247 1_554 S
C519 O527 1.258 . S
O520 C518 1.247 . S
O520 Zn521 2.028 . S
Zn521 O520 2.028 . S
Zn521 O525 2.035 . S
Zn521 O527 2.035 1_556 S
Zn521 O528 2.028 . S
O522 C518 1.258 . S
O522 Zn523 2.035 . S
Zn523 O522 2.035 . S
Zn523 O524 2.028 . S
Zn523 O526 2.028 . S
Zn523 O529 2.035 . S
O524 Zn523 2.028 . S
O524 C530 1.247 . S
O525 Zn521 2.035 . S
O525 C530 1.258 . S
O526 C519 1.247 1_556 S
O526 Zn523 2.028 . S
O527 C519 1.258 . S
O527 Zn521 2.035 1_554 S
O528 Zn521 2.028 . S
O528 C531 1.247 . S
O529 Zn523 2.035 . S
O529 C531 1.258 . S
C530 O524 1.247 . S
C530 O525 1.258 . S
C531 O528 1.247 . S
C531 O529 1.258 . S
C532 O534 1.247 . S
C532 O536 1.258 . S
C533 O540 1.247 . S
C533 O541 1.258 . S
O534 C532 1.247 . S
O534 Zn535 2.028 . S
Zn535 O534 2.028 . S
Zn535 O539 2.035 . S
Zn535 O541 2.035 . S
Zn535 O542 2.028 . S
O536 C532 1.258 . S
O536 Zn537 2.035 . S
Zn537 O536 2.035 . S
Zn537 O538 2.028 . S
Zn537 O540 2.028 . S
Zn537 O543 2.035 . S
O538 Zn537 2.028 . S
O538 C544 1.247 . S
O539 Zn535 2.035 . S
O539 C544 1.258 . S
O540 C533 1.247 . S
O540 Zn537 2.028 . S
O541 C533 1.258 . S
O541 Zn535 2.035 . S
O542 Zn535 2.028 . S
O542 C545 1.247 . S
O543 Zn537 2.035 . S
O543 C545 1.258 . S
C544 O538 1.247 . S
C544 O539 1.258 . S
C545 O542 1.247 . S
C545 O543 1.258 . S
C546 O548 1.247 . S
C546 O550 1.258 . S
C547 O554 1.247 . S
C547 O555 1.258 . S
O548 C546 1.247 . S
O548 Zn549 2.028 . S
Zn549 O548 2.028 . S
Zn549 O553 2.035 . S
Zn549 O555 2.035 . S
Zn549 O556 2.028 . S
O550 C546 1.258 . S
O550 Zn551 2.035 . S
Zn551 O550 2.035 . S
Zn551 O552 2.028 . S
Zn551 O554 2.028 . S
Zn551 O557 2.035 . S
O552 Zn551 2.028 . S
O552 C558 1.247 . S
O553 Zn549 2.035 . S
O553 C558 1.258 . S
O554 C547 1.247 . S
O554 Zn551 2.028 . S
O555 C547 1.258 . S
O555 Zn549 2.035 . S
O556 Zn549 2.028 . S
O556 C559 1.247 . S
O557 Zn551 2.035 . S
O557 C559 1.258 . S
C558 O552 1.247 . S
C558 O553 1.258 . S
C559 O556 1.247 . S
C559 O557 1.258 . S
C560 O562 1.247 . S
C560 O564 1.258 . S
C561 O568 1.247 . S
C561 O569 1.258 . S
O562 C560 1.247 . S
O562 Zn563 2.028 . S
Zn563 O562 2.028 . S
Zn563 O567 2.035 . S
Zn563 O569 2.035 . S
Zn563 O570 2.028 . S
O564 C560 1.258 . S
O564 Zn565 2.035 . S
Zn565 O564 2.035 . S
Zn565 O566 2.028 . S
Zn565 O568 2.028 . S
Zn565 O571 2.035 . S
O566 Zn565 2.028 . S
O566 C572 1.247 . S
O567 Zn563 2.035 . S
O567 C572 1.258 . S
O568 C561 1.247 . S
O568 Zn565 2.028 . S
O569 C561 1.258 . S
O569 Zn563 2.035 . S
O570 Zn563 2.028 . S
O570 C573 1.247 . S
O571 Zn565 2.035 . S
O571 C573 1.258 . S
C572 O566 1.247 . S
C572 O567 1.258 . S
C573 O570 1.247 . S
C573 O571 1.258 . S
C574 O576 1.247 . S
C574 O578 1.258 . S
C575 O582 1.247 . S
C575 O583 1.258 . S
O576 C574 1.247 . S
O576 Zn577 2.028 . S
Zn577 O576 2.028 . S
Zn577 O581 2.035 . S
Zn577 O583 2.035 . S
Zn577 O584 2.028 . S
O578 C574 1.258 . S
O578 Zn579 2.035 . S
Zn579 O578 2.035 . S
Zn579 O580 2.028 . S
Zn579 O582 2.028 . S
Zn579 O585 2.035 . S
O580 Zn579 2.028 . S
O580 C586 1.247 . S
O581 Zn577 2.035 . S
O581 C586 1.258 . S
O582 C575 1.247 . S
O582 Zn579 2.028 . S
O583 C575 1.258 . S
O583 Zn577 2.035 . S
O584 Zn577 2.028 . S
O584 C587 1.247 . S
O585 Zn579 2.035 . S
O585 C587 1.258 . S
C586 O580 1.247 . S
C586 O581 1.258 . S
C587 O584 1.247 . S
C587 O585 1.258 . S
C588 O590 1.247 . S
C588 O592 1.258 1_565 S
C589 O596 1.247 . S
C589 O597 1.258 . S
O590 C588 1.247 . S
O590 Zn591 2.028 1_565 S
Zn591 O590 2.028 1_545 S
Zn591 O595 2.035 . S
Zn591 O597 2.035 . S
Zn591 O598 2.028 . S
O592 C588 1.258 1_545 S
O592 Zn593 2.035 . S
Zn593 O592 2.035 . S
Zn593 O594 2.028 . S
Zn593 O596 2.028 . S
Zn593 O599 2.035 . S
O594 Zn593 2.028 . S
O594 C600 1.247 . S
O595 Zn591 2.035 . S
O595 C600 1.258 . S
O596 C589 1.247 . S
O596 Zn593 2.028 . S
O597 C589 1.258 . S
O597 Zn591 2.035 . S
O598 Zn591 2.028 . S
O598 C601 1.247 . S
O599 Zn593 2.035 . S
O599 C601 1.258 . S
C600 O594 1.247 . S
C600 O595 1.258 . S
C601 O598 1.247 . S
C601 O599 1.258 . S
C602 O604 1.247 . S
C602 O606 1.258 . S
C603 O610 1.247 . S
C603 O611 1.258 . S
O604 C602 1.247 . S
O604 Zn605 2.028 . S
Zn605 O604 2.028 . S
Zn605 O609 2.035 . S
Zn605 O611 2.035 . S
Zn605 O612 2.028 . S
O606 C602 1.258 . S
O606 Zn607 2.035 . S
Zn607 O606 2.035 . S
Zn607 O608 2.028 . S
Zn607 O610 2.028 . S
Zn607 O613 2.035 . S
O608 Zn607 2.028 . S
O608 C614 1.247 . S
O609 Zn605 2.035 . S
O609 C614 1.258 . S
O610 C603 1.247 . S
O610 Zn607 2.028 . S
O611 C603 1.258 . S
O611 Zn605 2.035 . S
O612 Zn605 2.028 . S
O612 C615 1.247 . S
O613 Zn607 2.035 . S
O613 C615 1.258 . S
C614 O608 1.247 . S
C614 O609 1.258 . S
C615 O612 1.247 . S
C615 O613 1.258 . S
C616 O618 1.247 . S
C616 O620 1.258 . S
C617 O624 1.247 . S
C617 O625 1.258 . S
O618 C616 1.247 . S
O618 Zn619 2.028 . S
Zn619 O618 2.028 . S
Zn619 O623 2.035 . S
Zn619 O625 2.035 . S
Zn619 O626 2.028 . S
O620 C616 1.258 . S
O620 Zn621 2.035 . S
Zn621 O620 2.035 . S
Zn621 O622 2.028 . S
Zn621 O624 2.028 . S
Zn621 O627 2.035 . S
O622 Zn621 2.028 . S
O622 C628 1.247 . S
O623 Zn619 2.035 . S
O623 C628 1.258 . S
O624 C617 1.247 . S
O624 Zn621 2.028 . S
O625 C617 1.258 . S
O625 Zn619 2.035 . S
O626 Zn619 2.028 . S
O626 C629 1.247 . S
O627 Zn621 2.035 . S
O627 C629 1.258 . S
C628 O622 1.247 . S
C628 O623 1.258 . S
C629 O626 1.247 . S
C629 O627 1.258 . S
C630 O632 1.247 . S
C630 O634 1.258 . S
C631 O638 1.247 . S
C631 O639 1.258 . S
O632 C630 1.247 . S
O632 Zn633 2.028 . S
Zn633 O632 2.028 . S
Zn633 O637 2.035 . S
Zn633 O639 2.035 . S
Zn633 O640 2.028 . S
O634 C630 1.258 . S
O634 Zn635 2.035 . S
Zn635 O634 2.035 . S
Zn635 O636 2.028 . S
Zn635 O638 2.028 . S
Zn635 O641 2.035 . S
O636 Zn635 2.028 . S
O636 C642 1.247 . S
O637 Zn633 2.035 . S
O637 C642 1.258 . S
O638 C631 1.247 . S
O638 Zn635 2.028 . S
O639 C631 1.258 . S
O639 Zn633 2.035 . S
O640 Zn633 2.028 . S
O640 C643 1.247 . S
O641 Zn635 2.035 . S
O641 C643 1.258 . S
C642 O636 1.247 . S
C642 O637 1.258 . S
C643 O640 1.247 . S
C643 O641 1.258 . S
C644 O646 1.247 . S
C644 O648 1.258 1_545 S
C645 O652 1.247 . S
C645 O653 1.258 . S
O646 C644 1.247 . S
O646 Zn647 2.028 1_545 S
Zn647 O646 2.028 1_565 S
Zn647 O651 2.035 . S
Zn647 O653 2.035 . S
Zn647 O654 2.028 . S
O648 C644 1.258 1_565 S
O648 Zn649 2.035 . S
Zn649 O648 2.035 . S
Zn649 O650 2.028 . S
Zn649 O652 2.028 . S
Zn649 O655 2.035 . S
O650 Zn649 2.028 . S
O650 C656 1.247 . S
O651 Zn647 2.035 . S
O651 C656 1.258 . S
O652 C645 1.247 . S
O652 Zn649 2.028 . S
O653 C645 1.258 . S
O653 Zn647 2.035 . S
O654 Zn647 2.028 . S
O654 C657 1.247 . S
O655 Zn649 2.035 . S
O655 C657 1.258 . S
C656 O650 1.247 . S
C656 O651 1.258 . S
C657 O654 1.247 . S
C657 O655 1.258 . S
C658 O660 1.247 . S
C658 O662 1.258 . S
C659 O666 1.247 . S
C659 O667 1.258 . S
O660 C658 1.247 . S
O660 Zn661 2.028 . S
Zn661 O660 2.028 . S
Zn661 O665 2.035 . S
Zn661 O667 2.035 . S
Zn661 O668 2.028 . S
O662 C658 1.258 . S
O662 Zn663 2.035 . S
Zn663 O662 2.035 . S
Zn663 O664 2.028 1_545 S
Zn663 O666 2.028 . S
Zn663 O669 2.035 . S
O664 Zn663 2.028 1_565 S
O664 C670 1.247 . S
O665 Zn661 2.035 . S
O665 C670 1.258 1_545 S
O666 C659 1.247 . S
O666 Zn663 2.028 . S
O667 C659 1.258 . S
O667 Zn661 2.035 . S
O668 Zn661 2.028 . S
O668 C671 1.247 . S
O669 Zn663 2.035 . S
O669 C671 1.258 . S
C670 O664 1.247 . S
C670 O665 1.258 1_565 S
C671 O668 1.247 . S
C671 O669 1.258 . S
C672 C673 1.349 . S
C672 C674 1.327 . S
C672 H697 0.950 . S
C673 C672 1.349 . S
C673 C689 1.349 . S
C674 C672 1.327 . S
C674 C693 1.429 . S
C674 H698 0.950 . S
C675 C692 1.574 . S
C675 C694 1.368 . S
C675 H699 0.949 . S
H676 C680 0.949 . S
C677 C678 1.349 . S
C677 C679 1.327 . S
C677 H700 0.950 . S
C678 C677 1.349 . S
C678 C690 1.349 . S
C679 C677 1.327 . S
C679 C695 1.429 . S
C679 H701 0.950 . S
C680 H676 0.949 . S
C680 C688 1.574 . S
C680 C696 1.368 . S
H681 C689 0.950 . S
H682 C687 0.950 . S
H683 C688 0.949 . S
H684 C690 0.950 . S
H685 C691 0.950 . S
H686 C692 0.949 . S
C687 H682 0.950 . S
C687 C689 1.327 . S
C687 C693 1.429 . S
C688 C680 1.574 . S
C688 H683 0.949 . S
C688 C694 1.368 . S
C689 C673 1.349 . S
C689 H681 0.950 . S
C689 C687 1.327 . S
C690 C678 1.349 . S
C690 H684 0.950 . S
C690 C691 1.327 . S
C691 H685 0.950 . S
C691 C690 1.327 . S
C691 C695 1.429 . S
C692 C675 1.574 . S
C692 H686 0.949 . S
C692 C696 1.368 . S
C693 C674 1.429 . S
C693 C687 1.429 . S
C693 C694 1.523 . S
C694 C675 1.368 . S
C694 C688 1.368 . S
C694 C693 1.523 . S
C695 C679 1.429 . S
C695 C691 1.429 . S
C695 C696 1.523 . S
C696 C680 1.368 . S
C696 C692 1.368 . S
C696 C695 1.523 . S
H697 C672 0.950 . S
H698 C674 0.950 . S
H699 C675 0.949 . S
H700 C677 0.950 . S
H701 C679 0.950 . S
C702 C703 1.349 . S
C702 C704 1.327 . S
C702 H727 0.950 . S
C703 C702 1.349 . S
C703 C719 1.349 . S
C704 C702 1.327 . S
C704 C723 1.429 . S
C704 H728 0.950 . S
C705 C722 1.574 . S
C705 C724 1.368 . S
C705 H729 0.949 . S
H706 C710 0.949 . S
C707 C708 1.349 . S
C707 C709 1.327 . S
C707 H730 0.950 . S
C708 C707 1.349 . S
C708 C720 1.349 . S
C709 C707 1.327 . S
C709 C725 1.429 . S
C709 H731 0.950 . S
C710 H706 0.949 . S
C710 C718 1.574 . S
C710 C726 1.368 . S
H711 C719 0.950 . S
H712 C717 0.950 . S
H713 C718 0.949 . S
H714 C720 0.950 1_655 S
H715 C721 0.950 . S
H716 C722 0.949 . S
C717 H712 0.950 . S
C717 C719 1.327 . S
C717 C723 1.429 . S
C718 C710 1.574 . S
C718 H713 0.949 . S
C718 C724 1.368 . S
C719 C703 1.349 . S
C719 H711 0.950 . S
C719 C717 1.327 . S
C720 C708 1.349 . S
C720 H714 0.950 1_455 S
C720 C721 1.327 . S
C721 H715 0.950 . S
C721 C720 1.327 . S
C721 C725 1.429 . S
C722 C705 1.574 . S
C722 H716 0.949 . S
C722 C726 1.368 . S
C723 C704 1.429 . S
C723 C717 1.429 . S
C723 C724 1.523 . S
C724 C705 1.368 . S
C724 C718 1.368 . S
C724 C723 1.523 . S
C725 C709 1.429 . S
C725 C721 1.429 . S
C725 C726 1.523 . S
C726 C710 1.368 . S
C726 C722 1.368 . S
C726 C725 1.523 . S
H727 C702 0.950 . S
H728 C704 0.950 . S
H729 C705 0.949 . S
H730 C707 0.950 . S
H731 C709 0.950 . S
C732 C733 1.349 . S
C732 C734 1.327 . S
C732 H757 0.950 . S
C733 C732 1.349 . S
C733 C749 1.349 . S
C734 C732 1.327 . S
C734 C753 1.429 . S
C734 H758 0.950 . S
C735 C752 1.574 . S
C735 C754 1.368 . S
C735 H759 0.949 . S
H736 C740 0.949 . S
C737 C738 1.349 . S
C737 C739 1.327 . S
C737 H760 0.950 . S
C738 C737 1.349 . S
C738 C750 1.349 . S
C739 C737 1.327 . S
C739 C755 1.429 . S
C739 H761 0.950 . S
C740 H736 0.949 . S
C740 C748 1.574 . S
C740 C756 1.368 . S
H741 C749 0.950 1_554 S
H742 C747 0.950 . S
H743 C748 0.949 . S
H744 C750 0.950 . S
H745 C751 0.950 . S
H746 C752 0.949 . S
C747 H742 0.950 . S
C747 C749 1.327 . S
C747 C753 1.429 . S
C748 C740 1.574 . S
C748 H743 0.949 . S
C748 C754 1.368 . S
C749 C733 1.349 . S
C749 H741 0.950 1_556 S
C749 C747 1.327 . S
C750 C738 1.349 . S
C750 H744 0.950 . S
C750 C751 1.327 . S
C751 H745 0.950 . S
C751 C750 1.327 . S
C751 C755 1.429 . S
C752 C735 1.574 . S
C752 H746 0.949 . S
C752 C756 1.368 . S
C753 C734 1.429 . S
C753 C747 1.429 . S
C753 C754 1.523 . S
C754 C735 1.368 . S
C754 C748 1.368 . S
C754 C753 1.523 . S
C755 C739 1.429 . S
C755 C751 1.429 . S
C755 C756 1.523 . S
C756 C740 1.368 . S
C756 C752 1.368 . S
C756 C755 1.523 . S
H757 C732 0.950 . S
H758 C734 0.950 . S
H759 C735 0.949 . S
H760 C737 0.950 . S
H761 C739 0.950 . S
C762 C763 1.349 . S
C762 C764 1.327 . S
C762 H787 0.950 . S
C763 C762 1.349 . S
C763 C779 1.349 . S
C764 C762 1.327 . S
C764 C783 1.429 . S
C764 H788 0.950 . S
C765 C782 1.574 . S
C765 C784 1.368 . S
C765 H789 0.949 . S
H766 C770 0.949 . S
C767 C768 1.349 . S
C767 C769 1.327 . S
C767 H790 0.950 . S
C768 C767 1.349 . S
C768 C780 1.349 . S
C769 C767 1.327 . S
C769 C785 1.429 . S
C769 H791 0.950 . S
C770 H766 0.949 . S
C770 C778 1.574 . S
C770 C786 1.368 . S
H771 C779 0.950 . S
H772 C777 0.950 . S
H773 C778 0.949 . S
H774 C780 0.950 . S
H775 C781 0.950 . S
H776 C782 0.949 . S
C777 H772 0.950 . S
C777 C779 1.327 . S
C777 C783 1.429 . S
C778 C770 1.574 . S
C778 H773 0.949 . S
C778 C784 1.368 . S
C779 C763 1.349 . S
C779 H771 0.950 . S
C779 C777 1.327 . S
C780 C768 1.349 . S
C780 H774 0.950 . S
C780 C781 1.327 . S
C781 H775 0.950 . S
C781 C780 1.327 . S
C781 C785 1.429 . S
C782 C765 1.574 . S
C782 H776 0.949 . S
C782 C786 1.368 . S
C783 C764 1.429 . S
C783 C777 1.429 . S
C783 C784 1.523 . S
C784 C765 1.368 . S
C784 C778 1.368 . S
C784 C783 1.523 . S
C785 C769 1.429 . S
C785 C781 1.429 . S
C785 C786 1.523 . S
C786 C770 1.368 . S
C786 C782 1.368 . S
C786 C785 1.523 . S
H787 C762 0.950 . S
H788 C764 0.950 . S
H789 C765 0.949 . S
H790 C767 0.950 . S
H791 C769 0.950 . S
C792 C793 1.349 . S
C792 C794 1.327 . S
C792 H817 0.950 . S
C793 C792 1.349 . S
C793 C809 1.349 . S
C794 C792 1.327 . S
C794 C813 1.429 . S
C794 H818 0.950 . S
C795 C812 1.574 . S
C795 C814 1.368 . S
C795 H819 0.949 . S
H796 C800 0.949 . S
C797 C798 1.349 . S
C797 C799 1.327 . S
C797 H820 0.950 . S
C798 C797 1.349 . S
C798 C810 1.349 . S
C799 C797 1.327 . S
C799 C815 1.429 . S
C799 H821 0.950 . S
C800 H796 0.949 . S
C800 C808 1.574 . S
C800 C816 1.368 . S
H801 C809 0.950 . S
H802 C807 0.950 . S
H803 C808 0.949 . S
H804 C810 0.950 . S
H805 C811 0.950 . S
H806 C812 0.949 . S
C807 H802 0.950 . S
C807 C809 1.327 . S
C807 C813 1.429 . S
C808 C800 1.574 . S
C808 H803 0.949 . S
C808 C814 1.368 . S
C809 C793 1.349 . S
C809 H801 0.950 . S
C809 C807 1.327 . S
C810 C798 1.349 . S
C810 H804 0.950 . S
C810 C811 1.327 . S
C811 H805 0.950 . S
C811 C810 1.327 . S
C811 C815 1.429 . S
C812 C795 1.574 . S
C812 H806 0.949 . S
C812 C816 1.368 . S
C813 C794 1.429 . S
C813 C807 1.429 . S
C813 C814 1.523 . S
C814 C795 1.368 . S
C814 C808 1.368 . S
C814 C813 1.523 . S
C815 C799 1.429 . S
C815 C811 1.429 . S
C815 C816 1.523 . S
C816 C800 1.368 . S
C816 C812 1.368 . S
C816 C815 1.523 . S
H817 C792 0.950 . S
H818 C794 0.950 . S
H819 C795 0.949 . S
H820 C797 0.950 . S
H821 C799 0.950 . S
C822 C823 1.349 . S
C822 C824 1.327 . S
C822 H847 0.950 . S
C823 C822 1.349 . S
C823 C839 1.349 . S
C824 C822 1.327 . S
C824 C843 1.429 . S
C824 H848 0.950 . S
C825 C842 1.574 . S
C825 C844 1.368 . S
C825 H849 0.949 . S
H826 C830 0.949 . S
C827 C828 1.349 . S
C827 C829 1.327 . S
C827 H850 0.950 . S
C828 C827 1.349 . S
C828 C840 1.349 . S
C829 C827 1.327 . S
C829 C845 1.429 . S
C829 H851 0.950 . S
C830 H826 0.949 . S
C830 C838 1.574 . S
C830 C846 1.368 . S
H831 C839 0.950 . S
H832 C837 0.950 . S
H833 C838 0.949 . S
H834 C840 0.950 . S
H835 C841 0.950 . S
H836 C842 0.949 . S
C837 H832 0.950 . S
C837 C839 1.327 . S
C837 C843 1.429 . S
C838 C830 1.574 . S
C838 H833 0.949 . S
C838 C844 1.368 . S
C839 C823 1.349 . S
C839 H831 0.950 . S
C839 C837 1.327 . S
C840 C828 1.349 . S
C840 H834 0.950 . S
C840 C841 1.327 . S
C841 H835 0.950 . S
C841 C840 1.327 . S
C841 C845 1.429 . S
C842 C825 1.574 . S
C842 H836 0.949 . S
C842 C846 1.368 . S
C843 C824 1.429 . S
C843 C837 1.429 . S
C843 C844 1.523 . S
C844 C825 1.368 . S
C844 C838 1.368 . S
C844 C843 1.523 . S
C845 C829 1.429 . S
C845 C841 1.429 . S
C845 C846 1.523 . S
C846 C830 1.368 . S
C846 C842 1.368 . S
C846 C845 1.523 . S
H847 C822 0.950 . S
H848 C824 0.950 . S
H849 C825 0.949 . S
H850 C827 0.950 . S
H851 C829 0.950 . S
C852 C853 1.349 . S
C852 C854 1.327 . S
C852 H877 0.950 . S
C853 C852 1.349 . S
C853 C869 1.349 . S
C854 C852 1.327 . S
C854 C873 1.429 . S
C854 H878 0.950 . S
C855 C872 1.574 . S
C855 C874 1.368 . S
C855 H879 0.949 . S
H856 C860 0.949 . S
C857 C858 1.349 . S
C857 C859 1.327 . S
C857 H880 0.950 . S
C858 C857 1.349 . S
C858 C870 1.349 . S
C859 C857 1.327 . S
C859 C875 1.429 . S
C859 H881 0.950 . S
C860 H856 0.949 . S
C860 C868 1.574 . S
C860 C876 1.368 . S
H861 C869 0.950 . S
H862 C867 0.950 . S
H863 C868 0.949 . S
H864 C870 0.950 . S
H865 C871 0.950 . S
H866 C872 0.949 . S
C867 H862 0.950 . S
C867 C869 1.327 . S
C867 C873 1.429 . S
C868 C860 1.574 . S
C868 H863 0.949 . S
C868 C874 1.368 . S
C869 C853 1.349 . S
C869 H861 0.950 . S
C869 C867 1.327 . S
C870 C858 1.349 . S
C870 H864 0.950 . S
C870 C871 1.327 . S
C871 H865 0.950 . S
C871 C870 1.327 . S
C871 C875 1.429 . S
C872 C855 1.574 . S
C872 H866 0.949 . S
C872 C876 1.368 . S
C873 C854 1.429 . S
C873 C867 1.429 . S
C873 C874 1.523 . S
C874 C855 1.368 . S
C874 C868 1.368 . S
C874 C873 1.523 . S
C875 C859 1.429 . S
C875 C871 1.429 . S
C875 C876 1.523 . S
C876 C860 1.368 . S
C876 C872 1.368 . S
C876 C875 1.523 . S
H877 C852 0.950 . S
H878 C854 0.950 . S
H879 C855 0.949 . S
H880 C857 0.950 . S
H881 C859 0.950 . S
C882 C883 1.349 . S
C882 C884 1.327 . S
C882 H907 0.950 . S
C883 C882 1.349 . S
C883 C899 1.349 . S
C884 C882 1.327 . S
C884 C903 1.429 . S
C884 H908 0.950 . S
C885 C902 1.574 . S
C885 C904 1.368 . S
C885 H909 0.949 . S
H886 C890 0.949 . S
C887 C888 1.349 . S
C887 C889 1.327 . S
C887 H910 0.950 . S
C888 C887 1.349 . S
C888 C900 1.349 . S
C889 C887 1.327 . S
C889 C905 1.429 . S
C889 H911 0.950 . S
C890 H886 0.949 . S
C890 C898 1.574 . S
C890 C906 1.368 . S
H891 C899 0.950 . S
H892 C897 0.950 . S
H893 C898 0.949 . S
H894 C900 0.950 1_655 S
H895 C901 0.950 . S
H896 C902 0.949 . S
C897 H892 0.950 . S
C897 C899 1.327 . S
C897 C903 1.429 . S
C898 C890 1.574 . S
C898 H893 0.949 . S
C898 C904 1.368 . S
C899 C883 1.349 . S
C899 H891 0.950 . S
C899 C897 1.327 . S
C900 C888 1.349 . S
C900 H894 0.950 1_455 S
C900 C901 1.327 . S
C901 H895 0.950 . S
C901 C900 1.327 . S
C901 C905 1.429 . S
C902 C885 1.574 . S
C902 H896 0.949 . S
C902 C906 1.368 . S
C903 C884 1.429 . S
C903 C897 1.429 . S
C903 C904 1.523 . S
C904 C885 1.368 . S
C904 C898 1.368 . S
C904 C903 1.523 . S
C905 C889 1.429 . S
C905 C901 1.429 . S
C905 C906 1.523 . S
C906 C890 1.368 . S
C906 C902 1.368 . S
C906 C905 1.523 . S
H907 C882 0.950 . S
H908 C884 0.950 . S
H909 C885 0.949 . S
H910 C887 0.950 . S
H911 C889 0.950 . S
C912 C913 1.349 . S
C912 C914 1.327 . S
C912 H937 0.950 . S
C913 C912 1.349 . S
C913 C929 1.349 . S
C914 C912 1.327 . S
C914 C933 1.429 . S
C914 H938 0.950 . S
C915 C932 1.574 . S
C915 C934 1.368 . S
C915 H939 0.949 . S
H916 C920 0.949 . S
C917 C918 1.349 . S
C917 C919 1.327 . S
C917 H940 0.950 . S
C918 C917 1.349 . S
C918 C930 1.349 . S
C919 C917 1.327 . S
C919 C935 1.429 . S
C919 H941 0.950 . S
C920 H916 0.949 . S
C920 C928 1.574 . S
C920 C936 1.368 . S
H921 C929 0.950 . S
H922 C927 0.950 . S
H923 C928 0.949 . S
H924 C930 0.950 . S
H925 C931 0.950 . S
H926 C932 0.949 . S
C927 H922 0.950 . S
C927 C929 1.327 . S
C927 C933 1.429 . S
C928 C920 1.574 . S
C928 H923 0.949 . S
C928 C934 1.368 . S
C929 C913 1.349 . S
C929 H921 0.950 . S
C929 C927 1.327 . S
C930 C918 1.349 . S
C930 H924 0.950 . S
C930 C931 1.327 . S
C931 H925 0.950 . S
C931 C930 1.327 . S
C931 C935 1.429 . S
C932 C915 1.574 . S
C932 H926 0.949 . S
C932 C936 1.368 . S
C933 C914 1.429 . S
C933 C927 1.429 . S
C933 C934 1.523 . S
C934 C915 1.368 . S
C934 C928 1.368 . S
C934 C933 1.523 . S
C935 C919 1.429 . S
C935 C931 1.429 . S
C935 C936 1.523 . S
C936 C920 1.368 . S
C936 C932 1.368 . S
C936 C935 1.523 . S
H937 C912 0.950 . S
H938 C914 0.950 . S
H939 C915 0.949 . S
H940 C917 0.950 . S
H941 C919 0.950 . S
C942 C943 1.349 . S
C942 C944 1.327 . S
C942 H967 0.950 . S
C943 C942 1.349 . S
C943 C959 1.349 . S
C944 C942 1.327 . S
C944 C963 1.429 . S
C944 H968 0.950 . S
C945 C962 1.574 . S
C945 C964 1.368 . S
C945 H969 0.949 . S
H946 C950 0.949 . S
C947 C948 1.349 . S
C947 C949 1.327 . S
C947 H970 0.950 1_545 S
C948 C947 1.349 . S
C948 C960 1.349 . S
C949 C947 1.327 . S
C949 C965 1.429 . S
C949 H971 0.950 . S
C950 H946 0.949 . S
C950 C958 1.574 . S
C950 C966 1.368 . S
H951 C959 0.950 . S
H952 C957 0.950 . S
H953 C958 0.949 . S
H954 C960 0.950 . S
H955 C961 0.950 . S
H956 C962 0.949 . S
C957 H952 0.950 . S
C957 C959 1.327 . S
C957 C963 1.429 . S
C958 C950 1.574 . S
C958 H953 0.949 . S
C958 C964 1.368 . S
C959 C943 1.349 . S
C959 H951 0.950 . S
C959 C957 1.327 . S
C960 C948 1.349 . S
C960 H954 0.950 . S
C960 C961 1.327 . S
C961 H955 0.950 . S
C961 C960 1.327 . S
C961 C965 1.429 . S
C962 C945 1.574 . S
C962 H956 0.949 . S
C962 C966 1.368 . S
C963 C944 1.429 . S
C963 C957 1.429 . S
C963 C964 1.523 . S
C964 C945 1.368 . S
C964 C958 1.368 . S
C964 C963 1.523 . S
C965 C949 1.429 . S
C965 C961 1.429 . S
C965 C966 1.523 . S
C966 C950 1.368 . S
C966 C962 1.368 . S
C966 C965 1.523 . S
H967 C942 0.950 . S
H968 C944 0.950 . S
H969 C945 0.949 . S
H970 C947 0.950 1_565 S
H971 C949 0.950 . S
C972 C973 1.349 . S
C972 C974 1.327 . S
C972 H997 0.950 . S
C973 C972 1.349 . S
C973 C989 1.349 . S
C974 C972 1.327 . S
C974 C993 1.429 . S
C974 H998 0.950 . S
C975 C992 1.574 . S
C975 C994 1.368 . S
C975 H999 0.949 . S
H976 C980 0.949 . S
C977 C978 1.349 . S
C977 C979 1.327 . S
C977 H1000 0.950 . S
C978 C977 1.349 . S
C978 C990 1.349 . S
C979 C977 1.327 . S
C979 C995 1.429 . S
C979 H1001 0.950 . S
C980 H976 0.949 . S
C980 C988 1.574 . S
C980 C996 1.368 . S
H981 C989 0.950 . S
H982 C987 0.950 . S
H983 C988 0.949 . S
H984 C990 0.950 . S
H985 C991 0.950 . S
H986 C992 0.949 . S
C987 H982 0.950 . S
C987 C989 1.327 . S
C987 C993 1.429 . S
C988 C980 1.574 . S
C988 H983 0.949 . S
C988 C994 1.368 . S
C989 C973 1.349 . S
C989 H981 0.950 . S
C989 C987 1.327 . S
C990 C978 1.349 . S
C990 H984 0.950 . S
C990 C991 1.327 . S
C991 H985 0.950 . S
C991 C990 1.327 . S
C991 C995 1.429 . S
C992 C975 1.574 . S
C992 H986 0.949 . S
C992 C996 1.368 . S
C993 C974 1.429 . S
C993 C987 1.429 . S
C993 C994 1.523 . S
C994 C975 1.368 . S
C994 C988 1.368 . S
C994 C993 1.523 . S
C995 C979 1.429 . S
C995 C991 1.429 . S
C995 C996 1.523 . S
C996 C980 1.368 . S
C996 C992 1.368 . S
C996 C995 1.523 . S
H997 C972 0.950 . S
H998 C974 0.950 . S
H999 C975 0.949 . S
H1000 C977 0.950 . S
H1001 C979 0.950 . S
C1002 C1003 1.349 . S
C1002 C1004 1.327 . S
C1002 H1027 0.950 . S
C1003 C1002 1.349 . S
C1003 C1019 1.349 . S
C1004 C1002 1.327 . S
C1004 C1023 1.429 . S
C1004 H1028 0.950 . S
C1005 C1022 1.574 . S
C1005 C1024 1.368 . S
C1005 H1029 0.949 . S
H1006 C1010 0.949 . S
C1007 C1008 1.349 . S
C1007 C1009 1.327 . S
C1007 H1030 0.950 . S
C1008 C1007 1.349 . S
C1008 C1020 1.349 . S
C1009 C1007 1.327 . S
C1009 C1025 1.429 . S
C1009 H1031 0.950 . S
C1010 H1006 0.949 . S
C1010 C1018 1.574 . S
C1010 C1026 1.368 . S
H1011 C1019 0.950 . S
H1012 C1017 0.950 . S
H1013 C1018 0.949 . S
H1014 C1020 0.950 . S
H1015 C1021 0.950 . S
H1016 C1022 0.949 . S
C1017 H1012 0.950 . S
C1017 C1019 1.327 . S
C1017 C1023 1.429 . S
C1018 C1010 1.574 . S
C1018 H1013 0.949 . S
C1018 C1024 1.368 . S
C1019 C1003 1.349 . S
C1019 H1011 0.950 . S
C1019 C1017 1.327 . S
C1020 C1008 1.349 . S
C1020 H1014 0.950 . S
C1020 C1021 1.327 . S
C1021 H1015 0.950 . S
C1021 C1020 1.327 . S
C1021 C1025 1.429 . S
C1022 C1005 1.574 . S
C1022 H1016 0.949 . S
C1022 C1026 1.368 . S
C1023 C1004 1.429 . S
C1023 C1017 1.429 . S
C1023 C1024 1.523 . S
C1024 C1005 1.368 . S
C1024 C1018 1.368 . S
C1024 C1023 1.523 . S
C1025 C1009 1.429 . S
C1025 C1021 1.429 . S
C1025 C1026 1.523 . S
C1026 C1010 1.368 . S
C1026 C1022 1.368 . S
C1026 C1025 1.523 . S
H1027 C1002 0.950 . S
H1028 C1004 0.950 . S
H1029 C1005 0.949 . S
H1030 C1007 0.950 . S
H1031 C1009 0.950 . S
C1032 C1033 1.349 . S
C1032 C1034 1.327 . S
C1032 H1057 0.950 . S
C1033 C1032 1.349 . S
C1033 C1049 1.349 . S
C1034 C1032 1.327 . S
C1034 C1053 1.429 . S
C1034 H1058 0.950 . S
C1035 C1052 1.574 . S
C1035 C1054 1.368 . S
C1035 H1059 0.949 . S
H1036 C1040 0.949 . S
C1037 C1038 1.349 . S
C1037 C1039 1.327 . S
C1037 H1060 0.950 . S
C1038 C1037 1.349 . S
C1038 C1050 1.349 . S
C1039 C1037 1.327 . S
C1039 C1055 1.429 . S
C1039 H1061 0.950 . S
C1040 H1036 0.949 . S
C1040 C1048 1.574 . S
C1040 C1056 1.368 . S
H1041 C1049 0.950 . S
H1042 C1047 0.950 . S
H1043 C1048 0.949 . S
H1044 C1050 0.950 . S
H1045 C1051 0.950 . S
H1046 C1052 0.949 . S
C1047 H1042 0.950 . S
C1047 C1049 1.327 . S
C1047 C1053 1.429 . S
C1048 C1040 1.574 . S
C1048 H1043 0.949 . S
C1048 C1054 1.368 . S
C1049 C1033 1.349 . S
C1049 H1041 0.950 . S
C1049 C1047 1.327 . S
C1050 C1038 1.349 . S
C1050 H1044 0.950 . S
C1050 C1051 1.327 . S
C1051 H1045 0.950 . S
C1051 C1050 1.327 . S
C1051 C1055 1.429 . S
C1052 C1035 1.574 . S
C1052 H1046 0.949 . S
C1052 C1056 1.368 . S
C1053 C1034 1.429 . S
C1053 C1047 1.429 . S
C1053 C1054 1.523 . S
C1054 C1035 1.368 . S
C1054 C1048 1.368 . S
C1054 C1053 1.523 . S
C1055 C1039 1.429 . S
C1055 C1051 1.429 . S
C1055 C1056 1.523 . S
C1056 C1040 1.368 . S
C1056 C1052 1.368 . S
C1056 C1055 1.523 . S
H1057 C1032 0.950 . S
H1058 C1034 0.950 . S
H1059 C1035 0.949 . S
H1060 C1037 0.950 . S
H1061 C1039 0.950 . S
C1062 C1063 1.349 . S
C1062 C1064 1.327 . S
C1062 H1087 0.950 . S
C1063 C1062 1.349 . S
C1063 C1079 1.349 . S
C1064 C1062 1.327 . S
C1064 C1083 1.429 . S
C1064 H1088 0.950 . S
C1065 C1082 1.574 . S
C1065 C1084 1.368 . S
C1065 H1089 0.949 . S
H1066 C1070 0.949 . S
C1067 C1068 1.349 . S
C1067 C1069 1.327 . S
C1067 H1090 0.950 . S
C1068 C1067 1.349 . S
C1068 C1080 1.349 . S
C1069 C1067 1.327 . S
C1069 C1085 1.429 . S
C1069 H1091 0.950 . S
C1070 H1066 0.949 . S
C1070 C1078 1.574 . S
C1070 C1086 1.368 . S
H1071 C1079 0.950 . S
H1072 C1077 0.950 . S
H1073 C1078 0.949 . S
H1074 C1080 0.950 . S
H1075 C1081 0.950 . S
H1076 C1082 0.949 . S
C1077 H1072 0.950 . S
C1077 C1079 1.327 . S
C1077 C1083 1.429 . S
C1078 C1070 1.574 . S
C1078 H1073 0.949 . S
C1078 C1084 1.368 . S
C1079 C1063 1.349 . S
C1079 H1071 0.950 . S
C1079 C1077 1.327 . S
C1080 C1068 1.349 . S
C1080 H1074 0.950 . S
C1080 C1081 1.327 . S
C1081 H1075 0.950 . S
C1081 C1080 1.327 . S
C1081 C1085 1.429 . S
C1082 C1065 1.574 . S
C1082 H1076 0.949 . S
C1082 C1086 1.368 . S
C1083 C1064 1.429 . S
C1083 C1077 1.429 . S
C1083 C1084 1.523 . S
C1084 C1065 1.368 . S
C1084 C1078 1.368 . S
C1084 C1083 1.523 . S
C1085 C1069 1.429 . S
C1085 C1081 1.429 . S
C1085 C1086 1.523 . S
C1086 C1070 1.368 . S
C1086 C1082 1.368 . S
C1086 C1085 1.523 . S
H1087 C1062 0.950 . S
H1088 C1064 0.950 . S
H1089 C1065 0.949 . S
H1090 C1067 0.950 . S
H1091 C1069 0.950 . S
C1092 C1093 1.349 . S
C1092 C1094 1.327 . S
C1092 H1117 0.950 . S
C1093 C1092 1.349 . S
C1093 C1109 1.349 . S
C1094 C1092 1.327 . S
C1094 C1113 1.429 . S
C1094 H1118 0.950 . S
C1095 C1112 1.574 . S
C1095 C1114 1.368 . S
C1095 H1119 0.949 . S
H1096 C1100 0.949 . S
C1097 C1098 1.349 . S
C1097 C1099 1.327 . S
C1097 H1120 0.950 . S
C1098 C1097 1.349 . S
C1098 C1110 1.349 . S
C1099 C1097 1.327 . S
C1099 C1115 1.429 . S
C1099 H1121 0.950 . S
C1100 H1096 0.949 . S
C1100 C1108 1.574 . S
C1100 C1116 1.368 . S
H1101 C1109 0.950 . S
H1102 C1107 0.950 . S
H1103 C1108 0.949 . S
H1104 C1110 0.950 . S
H1105 C1111 0.950 . S
H1106 C1112 0.949 . S
C1107 H1102 0.950 . S
C1107 C1109 1.327 . S
C1107 C1113 1.429 . S
C1108 C1100 1.574 . S
C1108 H1103 0.949 . S
C1108 C1114 1.368 . S
C1109 C1093 1.349 . S
C1109 H1101 0.950 . S
C1109 C1107 1.327 . S
C1110 C1098 1.349 . S
C1110 H1104 0.950 . S
C1110 C1111 1.327 . S
C1111 H1105 0.950 . S
C1111 C1110 1.327 . S
C1111 C1115 1.429 . S
C1112 C1095 1.574 . S
C1112 H1106 0.949 . S
C1112 C1116 1.368 . S
C1113 C1094 1.429 . S
C1113 C1107 1.429 . S
C1113 C1114 1.523 . S
C1114 C1095 1.368 . S
C1114 C1108 1.368 . S
C1114 C1113 1.523 . S
C1115 C1099 1.429 . S
C1115 C1111 1.429 . S
C1115 C1116 1.523 . S
C1116 C1100 1.368 . S
C1116 C1112 1.368 . S
C1116 C1115 1.523 . S
H1117 C1092 0.950 . S
H1118 C1094 0.950 . S
H1119 C1095 0.949 . S
H1120 C1097 0.950 . S
H1121 C1099 0.950 . S
C1122 C1123 1.349 . S
C1122 C1124 1.327 . S
C1122 H1147 0.950 1_556 S
C1123 C1122 1.349 . S
C1123 C1139 1.349 . S
C1124 C1122 1.327 . S
C1124 C1143 1.429 . S
C1124 H1148 0.950 . S
C1125 C1142 1.574 . S
C1125 C1144 1.368 . S
C1125 H1149 0.949 . S
H1126 C1130 0.949 . S
C1127 C1128 1.349 . S
C1127 C1129 1.327 . S
C1127 H1150 0.950 . S
C1128 C1127 1.349 . S
C1128 C1140 1.349 . S
C1129 C1127 1.327 . S
C1129 C1145 1.429 . S
C1129 H1151 0.950 . S
C1130 H1126 0.949 . S
C1130 C1138 1.574 . S
C1130 C1146 1.368 . S
H1131 C1139 0.950 . S
H1132 C1137 0.950 . S
H1133 C1138 0.949 . S
H1134 C1140 0.950 . S
H1135 C1141 0.950 . S
H1136 C1142 0.949 . S
C1137 H1132 0.950 . S
C1137 C1139 1.327 . S
C1137 C1143 1.429 . S
C1138 C1130 1.574 . S
C1138 H1133 0.949 . S
C1138 C1144 1.368 . S
C1139 C1123 1.349 . S
C1139 H1131 0.950 . S
C1139 C1137 1.327 . S
C1140 C1128 1.349 . S
C1140 H1134 0.950 . S
C1140 C1141 1.327 . S
C1141 H1135 0.950 . S
C1141 C1140 1.327 . S
C1141 C1145 1.429 . S
C1142 C1125 1.574 . S
C1142 H1136 0.949 . S
C1142 C1146 1.368 . S
C1143 C1124 1.429 . S
C1143 C1137 1.429 . S
C1143 C1144 1.523 . S
C1144 C1125 1.368 . S
C1144 C1138 1.368 . S
C1144 C1143 1.523 . S
C1145 C1129 1.429 . S
C1145 C1141 1.429 . S
C1145 C1146 1.523 . S
C1146 C1130 1.368 . S
C1146 C1142 1.368 . S
C1146 C1145 1.523 . S
H1147 C1122 0.950 1_554 S
H1148 C1124 0.950 . S
H1149 C1125 0.949 . S
H1150 C1127 0.950 . S
H1151 C1129 0.950 . S
C1152 C1153 1.349 . S
C1152 C1154 1.327 . S
C1152 H1177 0.950 . S
C1153 C1152 1.349 . S
C1153 C1169 1.349 . S
C1154 C1152 1.327 . S
C1154 C1173 1.429 . S
C1154 H1178 0.950 . S
C1155 C1172 1.574 . S
C1155 C1174 1.368 . S
C1155 H1179 0.949 . S
H1156 C1160 0.949 . S
C1157 C1158 1.349 . S
C1157 C1159 1.327 . S
C1157 H1180 0.950 . S
C1158 C1157 1.349 . S
C1158 C1170 1.349 . S
C1159 C1157 1.327 . S
C1159 C1175 1.429 . S
C1159 H1181 0.950 . S
C1160 H1156 0.949 . S
C1160 C1168 1.574 . S
C1160 C1176 1.368 . S
H1161 C1169 0.950 . S
H1162 C1167 0.950 . S
H1163 C1168 0.949 . S
H1164 C1170 0.950 . S
H1165 C1171 0.950 . S
H1166 C1172 0.949 . S
C1167 H1162 0.950 . S
C1167 C1169 1.327 . S
C1167 C1173 1.429 . S
C1168 C1160 1.574 . S
C1168 H1163 0.949 . S
C1168 C1174 1.368 . S
C1169 C1153 1.349 . S
C1169 H1161 0.950 . S
C1169 C1167 1.327 . S
C1170 C1158 1.349 . S
C1170 H1164 0.950 . S
C1170 C1171 1.327 . S
C1171 H1165 0.950 . S
C1171 C1170 1.327 . S
C1171 C1175 1.429 . S
C1172 C1155 1.574 . S
C1172 H1166 0.949 . S
C1172 C1176 1.368 . S
C1173 C1154 1.429 . S
C1173 C1167 1.429 . S
C1173 C1174 1.523 . S
C1174 C1155 1.368 . S
C1174 C1168 1.368 . S
C1174 C1173 1.523 . S
C1175 C1159 1.429 . S
C1175 C1171 1.429 . S
C1175 C1176 1.523 . S
C1176 C1160 1.368 . S
C1176 C1172 1.368 . S
C1176 C1175 1.523 . S
H1177 C1152 0.950 . S
H1178 C1154 0.950 . S
H1179 C1155 0.949 . S
H1180 C1157 0.950 . S
H1181 C1159 0.950 . S
C1182 C1183 1.349 . S
C1182 C1184 1.327 . S
C1182 H1207 0.950 . S
C1183 C1182 1.349 . S
C1183 C1199 1.349 . S
C1184 C1182 1.327 . S
C1184 C1203 1.429 . S
C1184 H1208 0.950 . S
C1185 C1202 1.574 . S
C1185 C1204 1.368 . S
C1185 H1209 0.949 . S
H1186 C1190 0.949 . S
C1187 C1188 1.349 . S
C1187 C1189 1.327 . S
C1187 H1210 0.950 . S
C1188 C1187 1.349 . S
C1188 C1200 1.349 . S
C1189 C1187 1.327 . S
C1189 C1205 1.429 . S
C1189 H1211 0.950 . S
C1190 H1186 0.949 . S
C1190 C1198 1.574 . S
C1190 C1206 1.368 . S
H1191 C1199 0.950 . S
H1192 C1197 0.950 . S
H1193 C1198 0.949 . S
H1194 C1200 0.950 . S
H1195 C1201 0.950 . S
H1196 C1202 0.949 . S
C1197 H1192 0.950 . S
C1197 C1199 1.327 . S
C1197 C1203 1.429 . S
C1198 C1190 1.574 . S
C1198 H1193 0.949 . S
C1198 C1204 1.368 . S
C1199 C1183 1.349 . S
C1199 H1191 0.950 . S
C1199 C1197 1.327 . S
C1200 C1188 1.349 . S
C1200 H1194 0.950 . S
C1200 C1201 1.327 . S
C1201 H1195 0.950 . S
C1201 C1200 1.327 . S
C1201 C1205 1.429 . S
C1202 C1185 1.574 . S
C1202 H1196 0.949 . S
C1202 C1206 1.368 . S
C1203 C1184 1.429 . S
C1203 C1197 1.429 . S
C1203 C1204 1.523 . S
C1204 C1185 1.368 . S
C1204 C1198 1.368 . S
C1204 C1203 1.523 . S
C1205 C1189 1.429 . S
C1205 C1201 1.429 . S
C1205 C1206 1.523 . S
C1206 C1190 1.368 . S
C1206 C1202 1.368 . S
C1206 C1205 1.523 . S
H1207 C1182 0.950 . S
H1208 C1184 0.950 . S
H1209 C1185 0.949 . S
H1210 C1187 0.950 . S
H1211 C1189 0.950 . S
C1212 C1213 1.349 . S
C1212 C1214 1.327 . S
C1212 H1237 0.950 . S
C1213 C1212 1.349 . S
C1213 C1229 1.349 . S
C1214 C1212 1.327 . S
C1214 C1233 1.429 . S
C1214 H1238 0.950 . S
C1215 C1232 1.574 . S
C1215 C1234 1.368 . S
C1215 H1239 0.949 . S
H1216 C1220 0.949 . S
C1217 C1218 1.349 . S
C1217 C1219 1.327 . S
C1217 H1240 0.950 . S
C1218 C1217 1.349 . S
C1218 C1230 1.349 . S
C1219 C1217 1.327 . S
C1219 C1235 1.429 . S
C1219 H1241 0.950 . S
C1220 H1216 0.949 . S
C1220 C1228 1.574 . S
C1220 C1236 1.368 . S
H1221 C1229 0.950 . S
H1222 C1227 0.950 . S
H1223 C1228 0.949 . S
H1224 C1230 0.950 . S
H1225 C1231 0.950 . S
H1226 C1232 0.949 . S
C1227 H1222 0.950 . S
C1227 C1229 1.327 . S
C1227 C1233 1.429 . S
C1228 C1220 1.574 . S
C1228 H1223 0.949 . S
C1228 C1234 1.368 . S
C1229 C1213 1.349 . S
C1229 H1221 0.950 . S
C1229 C1227 1.327 . S
C1230 C1218 1.349 . S
C1230 H1224 0.950 . S
C1230 C1231 1.327 . S
C1231 H1225 0.950 . S
C1231 C1230 1.327 . S
C1231 C1235 1.429 . S
C1232 C1215 1.574 . S
C1232 H1226 0.949 . S
C1232 C1236 1.368 . S
C1233 C1214 1.429 . S
C1233 C1227 1.429 . S
C1233 C1234 1.523 . S
C1234 C1215 1.368 . S
C1234 C1228 1.368 . S
C1234 C1233 1.523 . S
C1235 C1219 1.429 . S
C1235 C1231 1.429 . S
C1235 C1236 1.523 . S
C1236 C1220 1.368 . S
C1236 C1232 1.368 . S
C1236 C1235 1.523 . S
H1237 C1212 0.950 . S
H1238 C1214 0.950 . S
H1239 C1215 0.949 . S
H1240 C1217 0.950 . S
H1241 C1219 0.950 . S
C1242 C1243 1.349 . S
C1242 C1244 1.327 . S
C1242 H1267 0.950 . S
C1243 C1242 1.349 . S
C1243 C1259 1.349 . S
C1244 C1242 1.327 . S
C1244 C1263 1.429 . S
C1244 H1268 0.950 . S
C1245 C1262 1.574 . S
C1245 C1264 1.368 . S
C1245 H1269 0.949 . S
H1246 C1250 0.949 . S
C1247 C1248 1.349 . S
C1247 C1249 1.327 . S
C1247 H1270 0.950 . S
C1248 C1247 1.349 . S
C1248 C1260 1.349 . S
C1249 C1247 1.327 . S
C1249 C1265 1.429 . S
C1249 H1271 0.950 . S
C1250 H1246 0.949 . S
C1250 C1258 1.574 . S
C1250 C1266 1.368 . S
H1251 C1259 0.950 . S
H1252 C1257 0.950 . S
H1253 C1258 0.949 . S
H1254 C1260 0.950 . S
H1255 C1261 0.950 . S
H1256 C1262 0.949 . S
C1257 H1252 0.950 . S
C1257 C1259 1.327 . S
C1257 C1263 1.429 . S
C1258 C1250 1.574 . S
C1258 H1253 0.949 . S
C1258 C1264 1.368 . S
C1259 C1243 1.349 . S
C1259 H1251 0.950 . S
C1259 C1257 1.327 . S
C1260 C1248 1.349 . S
C1260 H1254 0.950 . S
C1260 C1261 1.327 . S
C1261 H1255 0.950 . S
C1261 C1260 1.327 . S
C1261 C1265 1.429 . S
C1262 C1245 1.574 . S
C1262 H1256 0.949 . S
C1262 C1266 1.368 . S
C1263 C1244 1.429 . S
C1263 C1257 1.429 . S
C1263 C1264 1.523 . S
C1264 C1245 1.368 . S
C1264 C1258 1.368 . S
C1264 C1263 1.523 . S
C1265 C1249 1.429 . S
C1265 C1261 1.429 . S
C1265 C1266 1.523 . S
C1266 C1250 1.368 . S
C1266 C1262 1.368 . S
C1266 C1265 1.523 . S
H1267 C1242 0.950 . S
H1268 C1244 0.950 . S
H1269 C1245 0.949 . S
H1270 C1247 0.950 . S
H1271 C1249 0.950 . S
C1272 C1273 1.349 . S
C1272 C1274 1.327 . S
C1272 H1297 0.950 . S
C1273 C1272 1.349 . S
C1273 C1289 1.349 . S
C1274 C1272 1.327 . S
C1274 C1293 1.429 . S
C1274 H1298 0.950 . S
C1275 C1292 1.574 . S
C1275 C1294 1.368 . S
C1275 H1299 0.949 . S
H1276 C1280 0.949 . S
C1277 C1278 1.349 . S
C1277 C1279 1.327 . S
C1277 H1300 0.950 . S
C1278 C1277 1.349 . S
C1278 C1290 1.349 . S
C1279 C1277 1.327 . S
C1279 C1295 1.429 . S
C1279 H1301 0.950 . S
C1280 H1276 0.949 . S
C1280 C1288 1.574 . S
C1280 C1296 1.368 . S
H1281 C1289 0.950 . S
H1282 C1287 0.950 . S
H1283 C1288 0.949 . S
H1284 C1290 0.950 . S
H1285 C1291 0.950 . S
H1286 C1292 0.949 . S
C1287 H1282 0.950 . S
C1287 C1289 1.327 . S
C1287 C1293 1.429 . S
C1288 C1280 1.574 . S
C1288 H1283 0.949 . S
C1288 C1294 1.368 . S
C1289 C1273 1.349 . S
C1289 H1281 0.950 . S
C1289 C1287 1.327 . S
C1290 C1278 1.349 . S
C1290 H1284 0.950 . S
C1290 C1291 1.327 . S
C1291 H1285 0.950 . S
C1291 C1290 1.327 . S
C1291 C1295 1.429 . S
C1292 C1275 1.574 . S
C1292 H1286 0.949 . S
C1292 C1296 1.368 . S
C1293 C1274 1.429 . S
C1293 C1287 1.429 . S
C1293 C1294 1.523 . S
C1294 C1275 1.368 . S
C1294 C1288 1.368 . S
C1294 C1293 1.523 . S
C1295 C1279 1.429 . S
C1295 C1291 1.429 . S
C1295 C1296 1.523 . S
C1296 C1280 1.368 . S
C1296 C1292 1.368 . S
C1296 C1295 1.523 . S
H1297 C1272 0.950 . S
H1298 C1274 0.950 . S
H1299 C1275 0.949 . S
H1300 C1277 0.950 . S
H1301 C1279 0.950 . S
C1302 C1303 1.349 . S
C1302 C1304 1.327 . S
C1302 H1327 0.950 . S
C1303 C1302 1.349 . S
C1303 C1319 1.349 . S
C1304 C1302 1.327 . S
C1304 C1323 1.429 . S
C1304 H1328 0.950 . S
C1305 C1322 1.574 . S
C1305 C1324 1.368 . S
C1305 H1329 0.949 . S
H1306 C1310 0.949 . S
C1307 C1308 1.349 . S
C1307 C1309 1.327 . S
C1307 H1330 0.950 . S
C1308 C1307 1.349 . S
C1308 C1320 1.349 . S
C1309 C1307 1.327 . S
C1309 C1325 1.429 . S
C1309 H1331 0.950 . S
C1310 H1306 0.949 . S
C1310 C1318 1.574 . S
C1310 C1326 1.368 . S
H1311 C1319 0.950 . S
H1312 C1317 0.950 . S
H1313 C1318 0.949 . S
H1314 C1320 0.950 . S
H1315 C1321 0.950 . S
H1316 C1322 0.949 . S
C1317 H1312 0.950 . S
C1317 C1319 1.327 . S
C1317 C1323 1.429 . S
C1318 C1310 1.574 . S
C1318 H1313 0.949 . S
C1318 C1324 1.368 . S
C1319 C1303 1.349 . S
C1319 H1311 0.950 . S
C1319 C1317 1.327 . S
C1320 C1308 1.349 . S
C1320 H1314 0.950 . S
C1320 C1321 1.327 . S
C1321 H1315 0.950 . S
C1321 C1320 1.327 . S
C1321 C1325 1.429 . S
C1322 C1305 1.574 . S
C1322 H1316 0.949 . S
C1322 C1326 1.368 . S
C1323 C1304 1.429 . S
C1323 C1317 1.429 . S
C1323 C1324 1.523 . S
C1324 C1305 1.368 . S
C1324 C1318 1.368 . S
C1324 C1323 1.523 . S
C1325 C1309 1.429 . S
C1325 C1321 1.429 . S
C1325 C1326 1.523 . S
C1326 C1310 1.368 . S
C1326 C1322 1.368 . S
C1326 C1325 1.523 . S
H1327 C1302 0.950 . S
H1328 C1304 0.950 . S
H1329 C1305 0.949 . S
H1330 C1307 0.950 . S
H1331 C1309 0.950 . S
C1332 C1333 1.349 . S
C1332 C1334 1.327 . S
C1332 H1357 0.950 . S
C1333 C1332 1.349 . S
C1333 C1349 1.349 . S
C1334 C1332 1.327 . S
C1334 C1353 1.429 . S
C1334 H1358 0.950 . S
C1335 C1352 1.574 . S
C1335 C1354 1.368 . S
C1335 H1359 0.949 . S
H1336 C1340 0.949 . S
C1337 C1338 1.349 . S
C1337 C1339 1.327 . S
C1337 H1360 0.950 . S
C1338 C1337 1.349 . S
C1338 C1350 1.349 . S
C1339 C1337 1.327 . S
C1339 C1355 1.429 . S
C1339 H1361 0.950 . S
C1340 H1336 0.949 . S
C1340 C1348 1.574 . S
C1340 C1356 1.368 . S
H1341 C1349 0.950 . S
H1342 C1347 0.950 . S
H1343 C1348 0.949 . S
H1344 C1350 0.950 . S
H1345 C1351 0.950 . S
H1346 C1352 0.949 . S
C1347 H1342 0.950 . S
C1347 C1349 1.327 . S
C1347 C1353 1.429 . S
C1348 C1340 1.574 . S
C1348 H1343 0.949 . S
C1348 C1354 1.368 . S
C1349 C1333 1.349 . S
C1349 H1341 0.950 . S
C1349 C1347 1.327 . S
C1350 C1338 1.349 . S
C1350 H1344 0.950 . S
C1350 C1351 1.327 . S
C1351 H1345 0.950 . S
C1351 C1350 1.327 . S
C1351 C1355 1.429 . S
C1352 C1335 1.574 . S
C1352 H1346 0.949 . S
C1352 C1356 1.368 . S
C1353 C1334 1.429 . S
C1353 C1347 1.429 . S
C1353 C1354 1.523 . S
C1354 C1335 1.368 . S
C1354 C1348 1.368 . S
C1354 C1353 1.523 . S
C1355 C1339 1.429 . S
C1355 C1351 1.429 . S
C1355 C1356 1.523 . S
C1356 C1340 1.368 . S
C1356 C1352 1.368 . S
C1356 C1355 1.523 . S
H1357 C1332 0.950 . S
H1358 C1334 0.950 . S
H1359 C1335 0.949 . S
H1360 C1337 0.950 . S
H1361 C1339 0.950 . S
C1362 C1363 1.349 . S
C1362 C1364 1.327 . S
C1362 H1387 0.950 . S
C1363 C1362 1.349 . S
C1363 C1379 1.349 . S
C1364 C1362 1.327 . S
C1364 C1383 1.429 . S
C1364 H1388 0.950 . S
C1365 C1382 1.574 . S
C1365 C1384 1.368 . S
C1365 H1389 0.949 . S
H1366 C1370 0.949 . S
C1367 C1368 1.349 . S
C1367 C1369 1.327 . S
C1367 H1390 0.950 . S
C1368 C1367 1.349 . S
C1368 C1380 1.349 . S
C1369 C1367 1.327 . S
C1369 C1385 1.429 . S
C1369 H1391 0.950 . S
C1370 H1366 0.949 . S
C1370 C1378 1.574 . S
C1370 C1386 1.368 . S
H1371 C1379 0.950 . S
H1372 C1377 0.950 . S
H1373 C1378 0.949 . S
H1374 C1380 0.950 1_545 S
H1375 C1381 0.950 . S
H1376 C1382 0.949 . S
C1377 H1372 0.950 . S
C1377 C1379 1.327 . S
C1377 C1383 1.429 . S
C1378 C1370 1.574 . S
C1378 H1373 0.949 . S
C1378 C1384 1.368 . S
C1379 C1363 1.349 . S
C1379 H1371 0.950 . S
C1379 C1377 1.327 . S
C1380 C1368 1.349 . S
C1380 H1374 0.950 1_565 S
C1380 C1381 1.327 . S
C1381 H1375 0.950 . S
C1381 C1380 1.327 . S
C1381 C1385 1.429 . S
C1382 C1365 1.574 . S
C1382 H1376 0.949 . S
C1382 C1386 1.368 . S
C1383 C1364 1.429 . S
C1383 C1377 1.429 . S
C1383 C1384 1.523 . S
C1384 C1365 1.368 . S
C1384 C1378 1.368 . S
C1384 C1383 1.523 . S
C1385 C1369 1.429 . S
C1385 C1381 1.429 . S
C1385 C1386 1.523 . S
C1386 C1370 1.368 . S
C1386 C1382 1.368 . S
C1386 C1385 1.523 . S
H1387 C1362 0.950 . S
H1388 C1364 0.950 . S
H1389 C1365 0.949 . S
H1390 C1367 0.950 . S
H1391 C1369 0.950 . S
C1392 C1393 1.349 . S
C1392 C1394 1.327 . S
C1392 H1417 0.950 . S
C1393 C1392 1.349 . S
C1393 C1409 1.349 . S
C1394 C1392 1.327 . S
C1394 C1413 1.429 . S
C1394 H1418 0.950 . S
C1395 C1412 1.574 . S
C1395 C1414 1.368 . S
C1395 H1419 0.949 . S
H1396 C1400 0.949 . S
C1397 C1398 1.349 . S
C1397 C1399 1.327 . S
C1397 H1420 0.950 . S
C1398 C1397 1.349 . S
C1398 C1410 1.349 . S
C1399 C1397 1.327 . S
C1399 C1415 1.429 . S
C1399 H1421 0.950 . S
C1400 H1396 0.949 . S
C1400 C1408 1.574 . S
C1400 C1416 1.368 . S
H1401 C1409 0.950 . S
H1402 C1407 0.950 . S
H1403 C1408 0.949 . S
H1404 C1410 0.950 . S
H1405 C1411 0.950 . S
H1406 C1412 0.949 . S
C1407 H1402 0.950 . S
C1407 C1409 1.327 . S
C1407 C1413 1.429 . S
C1408 C1400 1.574 . S
C1408 H1403 0.949 . S
C1408 C1414 1.368 . S
C1409 C1393 1.349 . S
C1409 H1401 0.950 . S
C1409 C1407 1.327 . S
C1410 C1398 1.349 . S
C1410 H1404 0.950 . S
C1410 C1411 1.327 . S
C1411 H1405 0.950 . S
C1411 C1410 1.327 . S
C1411 C1415 1.429 . S
C1412 C1395 1.574 . S
C1412 H1406 0.949 . S
C1412 C1416 1.368 . S
C1413 C1394 1.429 . S
C1413 C1407 1.429 . S
C1413 C1414 1.523 . S
C1414 C1395 1.368 . S
C1414 C1408 1.368 . S
C1414 C1413 1.523 . S
C1415 C1399 1.429 . S
C1415 C1411 1.429 . S
C1415 C1416 1.523 . S
C1416 C1400 1.368 . S
C1416 C1412 1.368 . S
C1416 C1415 1.523 . S
H1417 C1392 0.950 . S
H1418 C1394 0.950 . S
H1419 C1395 0.949 . S
H1420 C1397 0.950 . S
H1421 C1399 0.950 . S
C1422 C1423 1.349 . S
C1422 C1424 1.327 . S
C1422 H1447 0.950 . S
C1423 C1422 1.349 . S
C1423 C1439 1.372 . S
C1424 C1422 1.327 . S
C1424 C1443 1.429 . S
C1424 H1448 0.950 . S
C1425 C1442 1.574 . S
C1425 C1444 1.368 . S
C1425 H1449 0.949 . S
H1426 C1430 0.949 . S
C1427 C1428 1.349 . S
C1427 C1429 1.327 . S
C1427 H1450 0.950 . S
C1428 C1427 1.349 . S
C1428 C1440 1.349 . S
C1429 C1427 1.327 . S
C1429 C1445 1.429 . S
C1429 H1451 0.950 . S
C1430 H1426 0.949 . S
C1430 C1438 1.574 . S
C1430 C1446 1.368 . S
H1431 C1439 0.911 1_545 S
H1432 C1437 0.960 . S
H1433 C1438 0.949 . S
H1434 C1440 0.950 . S
H1435 C1441 0.950 . S
H1436 C1442 0.949 . S
C1437 H1432 0.960 . S
C1437 C1439 1.344 . S
C1437 C1443 1.429 . S
C1438 C1430 1.574 . S
C1438 H1433 0.949 . S
C1438 C1444 1.368 . S
C1439 C1423 1.372 . S
C1439 H1431 0.911 1_565 S
C1439 C1437 1.344 . S
C1440 C1428 1.349 . S
C1440 H1434 0.950 . S
C1440 C1441 1.327 . S
C1441 H1435 0.950 . S
C1441 C1440 1.327 . S
C1441 C1445 1.429 . S
C1442 C1425 1.574 . S
C1442 H1436 0.949 . S
C1442 C1446 1.368 . S
C1443 C1424 1.429 . S
C1443 C1437 1.429 . S
C1443 C1444 1.523 . S
C1444 C1425 1.368 . S
C1444 C1438 1.368 . S
C1444 C1443 1.523 . S
C1445 C1429 1.429 . S
C1445 C1441 1.429 . S
C1445 C1446 1.523 . S
C1446 C1430 1.368 . S
C1446 C1442 1.368 . S
C1446 C1445 1.523 . S
H1447 C1422 0.950 . S
H1448 C1424 0.950 . S
H1449 C1425 0.949 . S
H1450 C1427 0.950 . S
H1451 C1429 0.950 . S
C1452 C1453 1.349 . S
C1452 C1454 1.327 . S
C1452 H1477 0.950 . S
C1453 C1452 1.349 . S
C1453 C1469 1.349 . S
C1454 C1452 1.327 . S
C1454 C1473 1.429 . S
C1454 H1478 0.950 . S
C1455 C1472 1.574 . S
C1455 C1474 1.368 . S
C1455 H1479 0.949 . S
H1456 C1460 0.949 . S
C1457 C1458 1.349 . S
C1457 C1459 1.327 . S
C1457 H1480 0.950 . S
C1458 C1457 1.349 . S
C1458 C1470 1.349 . S
C1459 C1457 1.327 . S
C1459 C1475 1.429 . S
C1459 H1481 0.950 . S
C1460 H1456 0.949 . S
C1460 C1468 1.574 . S
C1460 C1476 1.368 . S
H1461 C1469 0.950 . S
H1462 C1467 0.950 . S
H1463 C1468 0.949 . S
H1464 C1470 0.950 . S
H1465 C1471 0.950 . S
H1466 C1472 0.949 . S
C1467 H1462 0.950 . S
C1467 C1469 1.327 . S
C1467 C1473 1.429 . S
C1468 C1460 1.574 . S
C1468 H1463 0.949 . S
C1468 C1474 1.368 . S
C1469 C1453 1.349 . S
C1469 H1461 0.950 . S
C1469 C1467 1.327 . S
C1470 C1458 1.349 . S
C1470 H1464 0.950 . S
C1470 C1471 1.327 . S
C1471 H1465 0.950 . S
C1471 C1470 1.327 . S
C1471 C1475 1.429 . S
C1472 C1455 1.574 . S
C1472 H1466 0.949 . S
C1472 C1476 1.368 . S
C1473 C1454 1.429 . S
C1473 C1467 1.429 . S
C1473 C1474 1.523 . S
C1474 C1455 1.368 . S
C1474 C1468 1.368 . S
C1474 C1473 1.523 . S
C1475 C1459 1.429 . S
C1475 C1471 1.429 . S
C1475 C1476 1.523 . S
C1476 C1460 1.368 . S
C1476 C1472 1.368 . S
C1476 C1475 1.523 . S
H1477 C1452 0.950 . S
H1478 C1454 0.950 . S
H1479 C1455 0.949 . S
H1480 C1457 0.950 . S
H1481 C1459 0.950 . S
C1482 C1483 1.349 . S
C1482 C1484 1.327 . S
C1482 H1507 0.950 . S
C1483 C1482 1.349 . S
C1483 C1499 1.353 . S
C1484 C1482 1.327 . S
C1484 C1503 1.429 . S
C1484 H1508 0.950 . S
C1485 C1502 1.574 . S
C1485 C1504 1.368 1_554 S
C1485 H1509 0.949 . S
H1486 C1490 0.949 . S
C1487 C1488 1.349 . S
C1487 C1489 1.327 . S
C1487 H1510 0.950 . S
C1488 C1487 1.349 . S
C1488 C1500 1.349 . S
C1489 C1487 1.327 . S
C1489 C1505 1.429 . S
C1489 H1511 0.950 . S
C1490 H1486 0.949 . S
C1490 C1498 1.574 1_554 S
C1490 C1506 1.368 . S
H1491 C1499 0.943 1_565 S
H1492 C1497 0.933 1_565 S
H1493 C1498 0.949 . S
H1494 C1500 0.950 . S
H1495 C1501 0.950 . S
H1496 C1502 0.949 . S
C1497 H1492 0.933 1_545 S
C1497 C1499 1.330 . S
C1497 C1503 1.429 . S
C1498 C1490 1.574 1_556 S
C1498 H1493 0.949 . S
C1498 C1504 1.368 . S
C1499 C1483 1.353 . S
C1499 H1491 0.943 1_545 S
C1499 C1497 1.330 . S
C1500 C1488 1.349 . S
C1500 H1494 0.950 . S
C1500 C1501 1.327 . S
C1501 H1495 0.950 . S
C1501 C1500 1.327 . S
C1501 C1505 1.429 . S
C1502 C1485 1.574 . S
C1502 H1496 0.949 . S
C1502 C1506 1.368 . S
C1503 C1484 1.429 . S
C1503 C1497 1.429 . S
C1503 C1504 1.523 . S
C1504 C1485 1.368 1_556 S
C1504 C1498 1.368 . S
C1504 C1503 1.523 . S
C1505 C1489 1.429 . S
C1505 C1501 1.429 . S
C1505 C1506 1.523 . S
C1506 C1490 1.368 . S
C1506 C1502 1.368 . S
C1506 C1505 1.523 . S
H1507 C1482 0.950 . S
H1508 C1484 0.950 . S
H1509 C1485 0.949 . S
H1510 C1487 0.950 . S
H1511 C1489 0.950 . S
C1512 C1513 1.349 . S
C1512 C1514 1.327 . S
C1512 H1537 0.950 . S
C1513 C1512 1.349 . S
C1513 C1529 1.349 . S
C1514 C1512 1.327 . S
C1514 C1533 1.429 . S
C1514 H1538 0.950 . S
C1515 C1532 1.574 . S
C1515 C1534 1.368 . S
C1515 H1539 0.949 . S
H1516 C1520 0.949 . S
C1517 C1518 1.349 . S
C1517 C1519 1.327 . S
C1517 H1540 0.950 . S
C1518 C1517 1.349 . S
C1518 C1530 1.349 . S
C1519 C1517 1.327 . S
C1519 C1535 1.429 . S
C1519 H1541 0.950 . S
C1520 H1516 0.949 . S
C1520 C1528 1.574 . S
C1520 C1536 1.368 . S
H1521 C1529 0.950 . S
H1522 C1527 0.950 . S
H1523 C1528 0.949 . S
H1524 C1530 0.950 . S
H1525 C1531 0.950 . S
H1526 C1532 0.949 . S
C1527 H1522 0.950 . S
C1527 C1529 1.327 . S
C1527 C1533 1.429 . S
C1528 C1520 1.574 . S
C1528 H1523 0.949 . S
C1528 C1534 1.368 . S
C1529 C1513 1.349 . S
C1529 H1521 0.950 . S
C1529 C1527 1.327 . S
C1530 C1518 1.349 . S
C1530 H1524 0.950 . S
C1530 C1531 1.327 . S
C1531 H1525 0.950 . S
C1531 C1530 1.327 . S
C1531 C1535 1.429 . S
C1532 C1515 1.574 . S
C1532 H1526 0.949 . S
C1532 C1536 1.368 . S
C1533 C1514 1.429 . S
C1533 C1527 1.429 . S
C1533 C1534 1.523 . S
C1534 C1515 1.368 . S
C1534 C1528 1.368 . S
C1534 C1533 1.523 . S
C1535 C1519 1.429 . S
C1535 C1531 1.429 . S
C1535 C1536 1.523 . S
C1536 C1520 1.368 . S
C1536 C1532 1.368 . S
C1536 C1535 1.523 . S
H1537 C1512 0.950 . S
H1538 C1514 0.950 . S
H1539 C1515 0.949 . S
H1540 C1517 0.950 . S
H1541 C1519 0.950 . S
C1542 C1543 1.349 . S
C1542 C1544 1.327 . S
C1542 H1567 0.950 . S
C1543 C1542 1.349 . S
C1543 C1559 1.349 . S
C1544 C1542 1.327 . S
C1544 C1563 1.429 . S
C1544 H1568 0.950 . S
C1545 C1562 1.574 . S
C1545 C1564 1.368 . S
C1545 H1569 0.949 . S
H1546 C1550 0.949 . S
C1547 C1548 1.349 . S
C1547 C1549 1.327 . S
C1547 H1570 0.950 . S
C1548 C1547 1.349 . S
C1548 C1560 1.349 . S
C1549 C1547 1.327 . S
C1549 C1565 1.429 . S
C1549 H1571 0.950 . S
C1550 H1546 0.949 . S
C1550 C1558 1.574 . S
C1550 C1566 1.368 . S
H1551 C1559 0.950 . S
H1552 C1557 0.950 . S
H1553 C1558 0.949 . S
H1554 C1560 0.950 . S
H1555 C1561 0.950 . S
H1556 C1562 0.949 . S
C1557 H1552 0.950 . S
C1557 C1559 1.327 . S
C1557 C1563 1.429 . S
C1558 C1550 1.574 . S
C1558 H1553 0.949 . S
C1558 C1564 1.368 . S
C1559 C1543 1.349 . S
C1559 H1551 0.950 . S
C1559 C1557 1.327 . S
C1560 C1548 1.349 . S
C1560 H1554 0.950 . S
C1560 C1561 1.327 . S
C1561 H1555 0.950 . S
C1561 C1560 1.327 . S
C1561 C1565 1.429 . S
C1562 C1545 1.574 . S
C1562 H1556 0.949 . S
C1562 C1566 1.368 . S
C1563 C1544 1.429 . S
C1563 C1557 1.429 . S
C1563 C1564 1.523 . S
C1564 C1545 1.368 . S
C1564 C1558 1.368 . S
C1564 C1563 1.523 . S
C1565 C1549 1.429 . S
C1565 C1561 1.429 . S
C1565 C1566 1.523 . S
C1566 C1550 1.368 . S
C1566 C1562 1.368 . S
C1566 C1565 1.523 . S
H1567 C1542 0.950 . S
H1568 C1544 0.950 . S
H1569 C1545 0.949 . S
H1570 C1547 0.950 . S
H1571 C1549 0.950 . S
C1572 C1573 1.349 . S
C1572 C1574 1.327 . S
C1572 H1597 0.950 . S
C1573 C1572 1.349 . S
C1573 C1589 1.349 . S
C1574 C1572 1.327 . S
C1574 C1593 1.429 . S
C1574 H1598 0.950 . S
C1575 C1592 1.574 . S
C1575 C1594 1.368 . S
C1575 H1599 0.949 . S
H1576 C1580 0.949 . S
C1577 C1578 1.349 . S
C1577 C1579 1.327 . S
C1577 H1600 0.950 . S
C1578 C1577 1.349 . S
C1578 C1590 1.349 . S
C1579 C1577 1.327 . S
C1579 C1595 1.429 . S
C1579 H1601 0.950 . S
C1580 H1576 0.949 . S
C1580 C1588 1.574 . S
C1580 C1596 1.368 . S
H1581 C1589 0.950 . S
H1582 C1587 0.950 . S
H1583 C1588 0.949 . S
H1584 C1590 0.950 . S
H1585 C1591 0.950 . S
H1586 C1592 0.949 . S
C1587 H1582 0.950 . S
C1587 C1589 1.327 . S
C1587 C1593 1.429 . S
C1588 C1580 1.574 . S
C1588 H1583 0.949 . S
C1588 C1594 1.368 . S
C1589 C1573 1.349 . S
C1589 H1581 0.950 . S
C1589 C1587 1.327 . S
C1590 C1578 1.349 . S
C1590 H1584 0.950 . S
C1590 C1591 1.327 . S
C1591 H1585 0.950 . S
C1591 C1590 1.327 . S
C1591 C1595 1.429 . S
C1592 C1575 1.574 . S
C1592 H1586 0.949 . S
C1592 C1596 1.368 . S
C1593 C1574 1.429 . S
C1593 C1587 1.429 . S
C1593 C1594 1.523 . S
C1594 C1575 1.368 . S
C1594 C1588 1.368 . S
C1594 C1593 1.523 . S
C1595 C1579 1.429 . S
C1595 C1591 1.429 . S
C1595 C1596 1.523 . S
C1596 C1580 1.368 . S
C1596 C1592 1.368 . S
C1596 C1595 1.523 . S
H1597 C1572 0.950 . S
H1598 C1574 0.950 . S
H1599 C1575 0.949 . S
H1600 C1577 0.950 . S
H1601 C1579 0.950 . S
C1602 C1603 1.349 . S
C1602 C1604 1.327 . S
C1602 H1627 0.950 1_545 S
C1603 C1602 1.349 . S
C1603 C1619 1.349 . S
C1604 C1602 1.327 . S
C1604 C1623 1.429 . S
C1604 H1628 0.950 . S
C1605 C1622 1.574 1_554 S
C1605 C1624 1.368 . S
C1605 H1629 0.949 . S
H1606 C1610 0.949 . S
C1607 C1608 1.349 . S
C1607 C1609 1.327 . S
C1607 H1630 0.950 . S
C1608 C1607 1.349 . S
C1608 C1620 1.349 . S
C1609 C1607 1.327 . S
C1609 C1625 1.429 . S
C1609 H1631 0.950 . S
C1610 H1606 0.949 . S
C1610 C1618 1.574 . S
C1610 C1626 1.368 . S
H1611 C1619 0.950 . S
H1612 C1617 0.950 . S
H1613 C1618 0.949 . S
H1614 C1620 0.950 . S
H1615 C1621 0.950 . S
H1616 C1622 0.949 . S
C1617 H1612 0.950 . S
C1617 C1619 1.327 . S
C1617 C1623 1.429 . S
C1618 C1610 1.574 . S
C1618 H1613 0.949 . S
C1618 C1624 1.368 1_556 S
C1619 C1603 1.349 . S
C1619 H1611 0.950 . S
C1619 C1617 1.327 . S
C1620 C1608 1.349 . S
C1620 H1614 0.950 . S
C1620 C1621 1.327 . S
C1621 H1615 0.950 . S
C1621 C1620 1.327 . S
C1621 C1625 1.429 . S
C1622 C1605 1.574 1_556 S
C1622 H1616 0.949 . S
C1622 C1626 1.368 . S
C1623 C1604 1.429 . S
C1623 C1617 1.429 . S
C1623 C1624 1.523 . S
C1624 C1605 1.368 . S
C1624 C1618 1.368 1_554 S
C1624 C1623 1.523 . S
C1625 C1609 1.429 . S
C1625 C1621 1.429 . S
C1625 C1626 1.523 . S
C1626 C1610 1.368 . S
C1626 C1622 1.368 . S
C1626 C1625 1.523 . S
H1627 C1602 0.950 1_565 S
H1628 C1604 0.950 . S
H1629 C1605 0.949 . S
H1630 C1607 0.950 . S
H1631 C1609 0.950 . S
C1632 C1633 1.349 . S
C1632 C1634 1.327 . S
C1632 H1657 0.950 . S
C1633 C1632 1.349 . S
C1633 C1649 1.349 . S
C1634 C1632 1.327 . S
C1634 C1653 1.429 . S
C1634 H1658 0.950 . S
C1635 C1652 1.574 . S
C1635 C1654 1.368 . S
C1635 H1659 0.949 . S
H1636 C1640 0.949 . S
C1637 C1638 1.349 . S
C1637 C1639 1.327 . S
C1637 H1660 0.950 . S
C1638 C1637 1.349 . S
C1638 C1650 1.349 . S
C1639 C1637 1.327 . S
C1639 C1655 1.429 . S
C1639 H1661 0.950 . S
C1640 H1636 0.949 . S
C1640 C1648 1.574 . S
C1640 C1656 1.368 . S
H1641 C1649 0.950 . S
H1642 C1647 0.950 . S
H1643 C1648 0.949 . S
H1644 C1650 0.950 . S
H1645 C1651 0.950 . S
H1646 C1652 0.949 . S
C1647 H1642 0.950 . S
C1647 C1649 1.327 . S
C1647 C1653 1.429 . S
C1648 C1640 1.574 . S
C1648 H1643 0.949 . S
C1648 C1654 1.368 . S
C1649 C1633 1.349 . S
C1649 H1641 0.950 . S
C1649 C1647 1.327 . S
C1650 C1638 1.349 . S
C1650 H1644 0.950 . S
C1650 C1651 1.327 . S
C1651 H1645 0.950 . S
C1651 C1650 1.327 . S
C1651 C1655 1.429 . S
C1652 C1635 1.574 . S
C1652 H1646 0.949 . S
C1652 C1656 1.368 . S
C1653 C1634 1.429 . S
C1653 C1647 1.429 . S
C1653 C1654 1.523 . S
C1654 C1635 1.368 . S
C1654 C1648 1.368 . S
C1654 C1653 1.523 . S
C1655 C1639 1.429 . S
C1655 C1651 1.429 . S
C1655 C1656 1.523 . S
C1656 C1640 1.368 . S
C1656 C1652 1.368 . S
C1656 C1655 1.523 . S
H1657 C1632 0.950 . S
H1658 C1634 0.950 . S
H1659 C1635 0.949 . S
H1660 C1637 0.950 . S
H1661 C1639 0.950 . S
C1662 C1663 1.348 . S
C1662 C1664 1.327 . S
C1662 H1687 0.950 1_455 S
C1663 C1662 1.348 . S
C1663 C1679 1.349 . S
C1664 C1662 1.327 . S
C1664 C1683 1.429 . S
C1664 H1688 0.926 1_455 S
C1665 C1682 1.574 1_565 S
C1665 C1684 1.368 . S
C1665 H1689 0.949 . S
H1666 C1670 0.949 . S
C1667 C1668 1.349 . S
C1667 C1669 1.327 . S
C1667 H1690 0.950 . S
C1668 C1667 1.349 . S
C1668 C1680 1.349 . S
C1669 C1667 1.327 . S
C1669 C1685 1.429 . S
C1669 H1691 0.950 . S
C1670 H1666 0.949 . S
C1670 C1678 1.574 . S
C1670 C1686 1.368 . S
H1671 C1679 0.950 . S
H1672 C1677 0.950 . S
H1673 C1678 0.949 . S
H1674 C1680 0.950 . S
H1675 C1681 0.950 . S
H1676 C1682 0.949 . S
C1677 H1672 0.950 . S
C1677 C1679 1.327 . S
C1677 C1683 1.429 . S
C1678 C1670 1.574 . S
C1678 H1673 0.949 . S
C1678 C1684 1.368 1_545 S
C1679 C1663 1.349 . S
C1679 H1671 0.950 . S
C1679 C1677 1.327 . S
C1680 C1668 1.349 . S
C1680 H1674 0.950 . S
C1680 C1681 1.327 . S
C1681 H1675 0.950 . S
C1681 C1680 1.327 . S
C1681 C1685 1.429 . S
C1682 C1665 1.574 1_545 S
C1682 H1676 0.949 . S
C1682 C1686 1.368 . S
C1683 C1664 1.429 . S
C1683 C1677 1.429 . S
C1683 C1684 1.523 . S
C1684 C1665 1.368 . S
C1684 C1678 1.368 1_565 S
C1684 C1683 1.523 . S
C1685 C1669 1.429 . S
C1685 C1681 1.429 . S
C1685 C1686 1.523 . S
C1686 C1670 1.368 . S
C1686 C1682 1.368 . S
C1686 C1685 1.523 . S
H1687 C1662 0.950 1_655 S
H1688 C1664 0.926 1_655 S
H1689 C1665 0.949 . S
H1690 C1667 0.950 . S
H1691 C1669 0.950 . S
C1692 C1693 1.349 . S
C1692 C1694 1.327 . S
C1692 H1717 0.950 . S
C1693 C1692 1.349 . S
C1693 C1709 1.349 . S
C1694 C1692 1.327 . S
C1694 C1713 1.429 . S
C1694 H1718 0.950 . S
C1695 C1712 1.574 . S
C1695 C1714 1.368 . S
C1695 H1719 0.949 . S
H1696 C1700 0.949 . S
C1697 C1698 1.349 . S
C1697 C1699 1.327 . S
C1697 H1720 0.950 . S
C1698 C1697 1.349 . S
C1698 C1710 1.349 . S
C1699 C1697 1.327 . S
C1699 C1715 1.429 . S
C1699 H1721 0.950 . S
C1700 H1696 0.949 . S
C1700 C1708 1.574 . S
C1700 C1716 1.368 . S
H1701 C1709 0.950 . S
H1702 C1707 0.950 . S
H1703 C1708 0.949 . S
H1704 C1710 0.950 . S
H1705 C1711 0.950 . S
H1706 C1712 0.949 . S
C1707 H1702 0.950 . S
C1707 C1709 1.327 . S
C1707 C1713 1.429 . S
C1708 C1700 1.574 . S
C1708 H1703 0.949 . S
C1708 C1714 1.368 . S
C1709 C1693 1.349 . S
C1709 H1701 0.950 . S
C1709 C1707 1.327 . S
C1710 C1698 1.349 . S
C1710 H1704 0.950 . S
C1710 C1711 1.327 . S
C1711 H1705 0.950 . S
C1711 C1710 1.327 . S
C1711 C1715 1.429 . S
C1712 C1695 1.574 . S
C1712 H1706 0.949 . S
C1712 C1716 1.368 . S
C1713 C1694 1.429 . S
C1713 C1707 1.429 . S
C1713 C1714 1.523 . S
C1714 C1695 1.368 . S
C1714 C1708 1.368 . S
C1714 C1713 1.523 . S
C1715 C1699 1.429 . S
C1715 C1711 1.429 . S
C1715 C1716 1.523 . S
C1716 C1700 1.368 . S
C1716 C1712 1.368 . S
C1716 C1715 1.523 . S
H1717 C1692 0.950 . S
H1718 C1694 0.950 . S
H1719 C1695 0.949 . S
H1720 C1697 0.950 . S
H1721 C1699 0.950 . S
C1722 C1723 1.349 . S
C1722 C1724 1.327 . S
C1722 H1747 0.950 . S
C1723 C1722 1.349 . S
C1723 C1739 1.349 . S
C1724 C1722 1.327 . S
C1724 C1743 1.429 . S
C1724 H1748 0.950 . S
C1725 C1742 1.574 . S
C1725 C1744 1.368 1_565 S
C1725 H1749 0.940 1_565 S
H1726 C1730 0.949 . S
C1727 C1728 1.349 . S
C1727 C1729 1.327 . S
C1727 H1750 0.950 . S
C1728 C1727 1.349 . S
C1728 C1740 1.349 . S
C1729 C1727 1.327 . S
C1729 C1745 1.429 . S
C1729 H1751 0.950 . S
C1730 H1726 0.949 . S
C1730 C1738 1.574 . S
C1730 C1746 1.368 . S
H1731 C1739 0.950 . S
H1732 C1737 0.950 . S
H1733 C1738 0.949 1_545 S
H1734 C1740 0.950 . S
H1735 C1741 0.950 . S
H1736 C1742 0.949 . S
C1737 H1732 0.950 . S
C1737 C1739 1.327 . S
C1737 C1743 1.429 . S
C1738 C1730 1.574 . S
C1738 H1733 0.949 1_565 S
C1738 C1744 1.368 1_565 S
C1739 C1723 1.349 . S
C1739 H1731 0.950 . S
C1739 C1737 1.327 . S
C1740 C1728 1.349 . S
C1740 H1734 0.950 . S
C1740 C1741 1.327 . S
C1741 H1735 0.950 . S
C1741 C1740 1.327 . S
C1741 C1745 1.429 . S
C1742 C1725 1.574 . S
C1742 H1736 0.949 . S
C1742 C1746 1.368 . S
C1743 C1724 1.429 . S
C1743 C1737 1.429 . S
C1743 C1744 1.523 . S
C1744 C1725 1.368 1_545 S
C1744 C1738 1.368 1_545 S
C1744 C1743 1.523 . S
C1745 C1729 1.429 . S
C1745 C1741 1.429 . S
C1745 C1746 1.523 . S
C1746 C1730 1.368 . S
C1746 C1742 1.368 . S
C1746 C1745 1.523 . S
H1747 C1722 0.950 . S
H1748 C1724 0.950 . S
H1749 C1725 0.940 1_545 S
H1750 C1727 0.950 . S
H1751 C1729 0.950 . S
C1752 C1753 1.349 . S
C1752 C1754 1.327 . S
C1752 H1777 0.950 . S
C1753 C1752 1.349 . S
C1753 C1769 1.349 . S
C1754 C1752 1.327 . S
C1754 C1773 1.429 . S
C1754 H1778 0.950 . S
C1755 C1772 1.574 . S
C1755 C1774 1.368 . S
C1755 H1779 0.949 . S
H1756 C1760 0.949 . S
C1757 C1758 1.349 . S
C1757 C1759 1.327 . S
C1757 H1780 0.950 . S
C1758 C1757 1.349 . S
C1758 C1770 1.349 . S
C1759 C1757 1.327 . S
C1759 C1775 1.429 . S
C1759 H1781 0.950 . S
C1760 H1756 0.949 . S
C1760 C1768 1.574 . S
C1760 C1776 1.368 . S
H1761 C1769 0.950 . S
H1762 C1767 0.950 . S
H1763 C1768 0.949 . S
H1764 C1770 0.950 . S
H1765 C1771 0.950 . S
H1766 C1772 0.949 . S
C1767 H1762 0.950 . S
C1767 C1769 1.327 . S
C1767 C1773 1.429 . S
C1768 C1760 1.574 . S
C1768 H1763 0.949 . S
C1768 C1774 1.368 . S
C1769 C1753 1.349 . S
C1769 H1761 0.950 . S
C1769 C1767 1.327 . S
C1770 C1758 1.349 . S
C1770 H1764 0.950 . S
C1770 C1771 1.327 . S
C1771 H1765 0.950 . S
C1771 C1770 1.327 . S
C1771 C1775 1.429 . S
C1772 C1755 1.574 . S
C1772 H1766 0.949 . S
C1772 C1776 1.368 . S
C1773 C1754 1.429 . S
C1773 C1767 1.429 . S
C1773 C1774 1.523 . S
C1774 C1755 1.368 . S
C1774 C1768 1.368 . S
C1774 C1773 1.523 . S
C1775 C1759 1.429 . S
C1775 C1771 1.429 . S
C1775 C1776 1.523 . S
C1776 C1760 1.368 . S
C1776 C1772 1.368 . S
C1776 C1775 1.523 . S
H1777 C1752 0.950 . S
H1778 C1754 0.950 . S
H1779 C1755 0.949 . S
H1780 C1757 0.950 . S
H1781 C1759 0.950 . S
C1782 C1783 1.349 . S
C1782 C1784 1.327 . S
C1782 H1807 0.950 . S
C1783 C1782 1.349 . S
C1783 C1799 1.349 . S
C1784 C1782 1.327 . S
C1784 C1803 1.429 . S
C1784 H1808 0.950 . S
C1785 C1802 1.574 . S
C1785 C1804 1.368 1_545 S
C1785 H1809 0.949 1_545 S
H1786 C1790 0.949 . S
C1787 C1788 1.349 . S
C1787 C1789 1.327 . S
C1787 H1810 0.950 . S
C1788 C1787 1.349 . S
C1788 C1800 1.349 . S
C1789 C1787 1.327 . S
C1789 C1805 1.429 . S
C1789 H1811 0.950 . S
C1790 H1786 0.949 . S
C1790 C1798 1.574 . S
C1790 C1806 1.368 . S
H1791 C1799 0.950 . S
H1792 C1797 0.950 . S
H1793 C1798 0.949 1_565 S
H1794 C1800 0.950 . S
H1795 C1801 0.950 . S
H1796 C1802 0.949 . S
C1797 H1792 0.950 . S
C1797 C1799 1.327 . S
C1797 C1803 1.429 . S
C1798 C1790 1.574 . S
C1798 H1793 0.949 1_545 S
C1798 C1804 1.368 1_545 S
C1799 C1783 1.349 . S
C1799 H1791 0.950 . S
C1799 C1797 1.327 . S
C1800 C1788 1.349 . S
C1800 H1794 0.950 . S
C1800 C1801 1.327 . S
C1801 H1795 0.950 . S
C1801 C1800 1.327 . S
C1801 C1805 1.429 . S
C1802 C1785 1.574 . S
C1802 H1796 0.949 . S
C1802 C1806 1.368 . S
C1803 C1784 1.429 . S
C1803 C1797 1.429 . S
C1803 C1804 1.523 . S
C1804 C1785 1.368 1_565 S
C1804 C1798 1.368 1_565 S
C1804 C1803 1.523 . S
C1805 C1789 1.429 . S
C1805 C1801 1.429 . S
C1805 C1806 1.523 . S
C1806 C1790 1.368 . S
C1806 C1802 1.368 . S
C1806 C1805 1.523 . S
H1807 C1782 0.950 . S
H1808 C1784 0.950 . S
H1809 C1785 0.949 1_565 S
H1810 C1787 0.950 . S
H1811 C1789 0.950 . S
C1812 C1813 1.349 . S
C1812 C1814 1.327 . S
C1812 H1837 0.950 . S
C1813 C1812 1.349 . S
C1813 C1829 1.349 . S
C1814 C1812 1.327 . S
C1814 C1833 1.429 . S
C1814 H1838 0.950 . S
C1815 C1832 1.574 . S
C1815 C1834 1.368 . S
C1815 H1839 0.949 . S
H1816 C1820 0.949 . S
C1817 C1818 1.349 . S
C1817 C1819 1.327 . S
C1817 H1840 0.950 . S
C1818 C1817 1.349 . S
C1818 C1830 1.349 . S
C1819 C1817 1.327 . S
C1819 C1835 1.429 . S
C1819 H1841 0.950 . S
C1820 H1816 0.949 . S
C1820 C1828 1.574 . S
C1820 C1836 1.368 . S
H1821 C1829 0.950 . S
H1822 C1827 0.950 . S
H1823 C1828 0.949 . S
H1824 C1830 0.950 . S
H1825 C1831 0.950 . S
H1826 C1832 0.949 . S
C1827 H1822 0.950 . S
C1827 C1829 1.327 . S
C1827 C1833 1.429 . S
C1828 C1820 1.574 . S
C1828 H1823 0.949 . S
C1828 C1834 1.368 . S
C1829 C1813 1.349 . S
C1829 H1821 0.950 . S
C1829 C1827 1.327 . S
C1830 C1818 1.349 . S
C1830 H1824 0.950 . S
C1830 C1831 1.327 . S
C1831 H1825 0.950 . S
C1831 C1830 1.327 . S
C1831 C1835 1.429 . S
C1832 C1815 1.574 . S
C1832 H1826 0.949 . S
C1832 C1836 1.368 . S
C1833 C1814 1.429 . S
C1833 C1827 1.429 . S
C1833 C1834 1.523 . S
C1834 C1815 1.368 . S
C1834 C1828 1.368 . S
C1834 C1833 1.523 . S
C1835 C1819 1.429 . S
C1835 C1831 1.429 . S
C1835 C1836 1.523 . S
C1836 C1820 1.368 . S
C1836 C1832 1.368 . S
C1836 C1835 1.523 . S
H1837 C1812 0.950 . S
H1838 C1814 0.950 . S
H1839 C1815 0.949 . S
H1840 C1817 0.950 . S
H1841 C1819 0.950 . S
C1842 C1843 1.349 . S
C1842 C1844 1.327 . S
C1842 H1867 0.950 . S
C1843 C1842 1.349 . S
C1843 C1859 1.349 . S
C1844 C1842 1.327 . S
C1844 C1863 1.429 . S
C1844 H1868 0.950 . S
C1845 C1862 1.574 1_565 S
C1845 C1864 1.368 . S
C1845 H1869 0.949 . S
H1846 C1850 0.949 . S
C1847 C1848 1.349 . S
C1847 C1849 1.327 . S
C1847 H1870 0.950 . S
C1848 C1847 1.349 . S
C1848 C1860 1.349 . S
C1849 C1847 1.327 . S
C1849 C1865 1.429 . S
C1849 H1871 0.950 . S
C1850 H1846 0.949 . S
C1850 C1858 1.574 . S
C1850 C1866 1.368 1_565 S
H1851 C1859 0.950 . S
H1852 C1857 0.950 . S
H1853 C1858 0.949 . S
H1854 C1860 0.950 . S
H1855 C1861 0.950 . S
H1856 C1862 0.949 . S
C1857 H1852 0.950 . S
C1857 C1859 1.327 . S
C1857 C1863 1.429 . S
C1858 C1850 1.574 . S
C1858 H1853 0.949 . S
C1858 C1864 1.368 . S
C1859 C1843 1.349 . S
C1859 H1851 0.950 . S
C1859 C1857 1.327 . S
C1860 C1848 1.349 . S
C1860 H1854 0.950 . S
C1860 C1861 1.327 . S
C1861 H1855 0.950 . S
C1861 C1860 1.327 . S
C1861 C1865 1.429 . S
C1862 C1845 1.574 1_545 S
C1862 H1856 0.949 . S
C1862 C1866 1.368 . S
C1863 C1844 1.429 . S
C1863 C1857 1.429 . S
C1863 C1864 1.523 . S
C1864 C1845 1.368 . S
C1864 C1858 1.368 . S
C1864 C1863 1.523 . S
C1865 C1849 1.429 . S
C1865 C1861 1.429 . S
C1865 C1866 1.523 . S
C1866 C1850 1.368 1_545 S
C1866 C1862 1.368 . S
C1866 C1865 1.523 . S
H1867 C1842 0.950 . S
H1868 C1844 0.950 . S
H1869 C1845 0.949 . S
H1870 C1847 0.950 . S
H1871 C1849 0.950 . S
C1872 C1873 1.349 . S
C1872 C1874 1.327 . S
C1872 H1897 0.950 . S
C1873 C1872 1.349 . S
C1873 C1889 1.349 . S
C1874 C1872 1.327 . S
C1874 C1893 1.429 . S
C1874 H1898 0.950 . S
C1875 C1892 1.574 . S
C1875 C1894 1.368 . S
C1875 H1899 0.949 . S
H1876 C1880 0.949 . S
C1877 C1878 1.349 . S
C1877 C1879 1.327 . S
C1877 H1900 0.950 . S
C1878 C1877 1.349 . S
C1878 C1890 1.349 . S
C1879 C1877 1.327 . S
C1879 C1895 1.429 . S
C1879 H1901 0.950 . S
C1880 H1876 0.949 . S
C1880 C1888 1.574 . S
C1880 C1896 1.368 . S
H1881 C1889 0.950 . S
H1882 C1887 0.950 . S
H1883 C1888 0.949 . S
H1884 C1890 0.950 . S
H1885 C1891 0.950 . S
H1886 C1892 0.949 . S
C1887 H1882 0.950 . S
C1887 C1889 1.327 . S
C1887 C1893 1.429 . S
C1888 C1880 1.574 . S
C1888 H1883 0.949 . S
C1888 C1894 1.368 . S
C1889 C1873 1.349 . S
C1889 H1881 0.950 . S
C1889 C1887 1.327 . S
C1890 C1878 1.349 . S
C1890 H1884 0.950 . S
C1890 C1891 1.327 . S
C1891 H1885 0.950 . S
C1891 C1890 1.327 . S
C1891 C1895 1.429 . S
C1892 C1875 1.574 . S
C1892 H1886 0.949 . S
C1892 C1896 1.368 . S
C1893 C1874 1.429 . S
C1893 C1887 1.429 . S
C1893 C1894 1.523 . S
C1894 C1875 1.368 . S
C1894 C1888 1.368 . S
C1894 C1893 1.523 . S
C1895 C1879 1.429 . S
C1895 C1891 1.429 . S
C1895 C1896 1.523 . S
C1896 C1880 1.368 . S
C1896 C1892 1.368 . S
C1896 C1895 1.523 . S
H1897 C1872 0.950 . S
H1898 C1874 0.950 . S
H1899 C1875 0.949 . S
H1900 C1877 0.950 . S
H1901 C1879 0.950 . S
C1902 C1903 1.349 . S
C1902 C1904 1.327 . S
C1902 H1927 0.950 . S
C1903 C1902 1.349 . S
C1903 C1919 1.349 . S
C1904 C1902 1.327 . S
C1904 C1923 1.429 . S
C1904 H1928 0.950 . S
C1905 C1922 1.574 . S
C1905 C1924 1.368 . S
C1905 H1929 0.949 . S
H1906 C1910 0.949 . S
C1907 C1908 1.349 . S
C1907 C1909 1.327 . S
C1907 H1930 0.950 . S
C1908 C1907 1.349 . S
C1908 C1920 1.349 . S
C1909 C1907 1.327 . S
C1909 C1925 1.429 . S
C1909 H1931 0.950 . S
C1910 H1906 0.949 . S
C1910 C1918 1.574 . S
C1910 C1926 1.368 . S
H1911 C1919 0.950 . S
H1912 C1917 0.950 . S
H1913 C1918 0.949 . S
H1914 C1920 0.950 . S
H1915 C1921 0.950 . S
H1916 C1922 0.949 . S
C1917 H1912 0.950 . S
C1917 C1919 1.327 . S
C1917 C1923 1.429 . S
C1918 C1910 1.574 . S
C1918 H1913 0.949 . S
C1918 C1924 1.368 . S
C1919 C1903 1.349 . S
C1919 H1911 0.950 . S
C1919 C1917 1.327 . S
C1920 C1908 1.349 . S
C1920 H1914 0.950 . S
C1920 C1921 1.327 . S
C1921 H1915 0.950 . S
C1921 C1920 1.327 . S
C1921 C1925 1.429 . S
C1922 C1905 1.574 . S
C1922 H1916 0.949 . S
C1922 C1926 1.368 . S
C1923 C1904 1.429 . S
C1923 C1917 1.429 . S
C1923 C1924 1.523 . S
C1924 C1905 1.368 . S
C1924 C1918 1.368 . S
C1924 C1923 1.523 . S
C1925 C1909 1.429 . S
C1925 C1921 1.429 . S
C1925 C1926 1.523 . S
C1926 C1910 1.368 . S
C1926 C1922 1.368 . S
C1926 C1925 1.523 . S
H1927 C1902 0.950 . S
H1928 C1904 0.950 . S
H1929 C1905 0.949 . S
H1930 C1907 0.950 . S
H1931 C1909 0.950 . S
C1932 C1933 1.349 1_556 S
C1932 C1934 1.327 1_556 S
C1932 H1957 0.950 . S
C1933 C1932 1.349 1_554 S
C1933 C1949 1.349 . S
C1934 C1932 1.327 1_554 S
C1934 C1953 1.429 . S
C1934 H1958 0.950 1_554 S
C1935 C1952 1.574 1_655 S
C1935 C1954 1.368 . S
C1935 H1959 0.949 . S
H1936 C1940 0.949 . S
C1937 C1938 1.349 . S
C1937 C1939 1.327 . S
C1937 H1960 0.950 . S
C1938 C1937 1.349 . S
C1938 C1950 1.349 . S
C1939 C1937 1.327 . S
C1939 C1955 1.429 . S
C1939 H1961 0.950 . S
C1940 H1936 0.949 . S
C1940 C1948 1.574 . S
C1940 C1956 1.368 . S
H1941 C1949 0.950 . S
H1942 C1947 0.950 . S
H1943 C1948 0.949 . S
H1944 C1950 0.950 . S
H1945 C1951 0.950 . S
H1946 C1952 0.949 . S
C1947 H1942 0.950 . S
C1947 C1949 1.327 . S
C1947 C1953 1.429 . S
C1948 C1940 1.574 . S
C1948 H1943 0.949 . S
C1948 C1954 1.368 1_455 S
C1949 C1933 1.349 . S
C1949 H1941 0.950 . S
C1949 C1947 1.327 . S
C1950 C1938 1.349 . S
C1950 H1944 0.950 . S
C1950 C1951 1.327 . S
C1951 H1945 0.950 . S
C1951 C1950 1.327 . S
C1951 C1955 1.429 . S
C1952 C1935 1.574 1_455 S
C1952 H1946 0.949 . S
C1952 C1956 1.368 . S
C1953 C1934 1.429 . S
C1953 C1947 1.429 . S
C1953 C1954 1.523 . S
C1954 C1935 1.368 . S
C1954 C1948 1.368 1_655 S
C1954 C1953 1.523 . S
C1955 C1939 1.429 . S
C1955 C1951 1.429 . S
C1955 C1956 1.523 . S
C1956 C1940 1.368 . S
C1956 C1952 1.368 . S
C1956 C1955 1.523 . S
H1957 C1932 0.950 . S
H1958 C1934 0.950 1_556 S
H1959 C1935 0.949 . S
H1960 C1937 0.950 . S
H1961 C1939 0.950 . S
C1962 C1963 1.349 . S
C1962 C1964 1.327 . S
C1962 H1987 0.950 . S
C1963 C1962 1.349 . S
C1963 C1979 1.349 . S
C1964 C1962 1.327 . S
C1964 C1983 1.429 . S
C1964 H1988 0.950 . S
C1965 C1982 1.574 . S
C1965 C1984 1.368 . S
C1965 H1989 0.949 . S
H1966 C1970 0.949 . S
C1967 C1968 1.349 . S
C1967 C1969 1.327 . S
C1967 H1990 0.950 . S
C1968 C1967 1.349 . S
C1968 C1980 1.349 . S
C1969 C1967 1.327 . S
C1969 C1985 1.429 . S
C1969 H1991 0.950 . S
C1970 H1966 0.949 . S
C1970 C1978 1.574 . S
C1970 C1986 1.368 . S
H1971 C1979 0.950 . S
H1972 C1977 0.950 . S
H1973 C1978 0.949 . S
H1974 C1980 0.950 . S
H1975 C1981 0.950 . S
H1976 C1982 0.949 . S
C1977 H1972 0.950 . S
C1977 C1979 1.327 . S
C1977 C1983 1.429 . S
C1978 C1970 1.574 . S
C1978 H1973 0.949 . S
C1978 C1984 1.368 . S
C1979 C1963 1.349 . S
C1979 H1971 0.950 . S
C1979 C1977 1.327 . S
C1980 C1968 1.349 . S
C1980 H1974 0.950 . S
C1980 C1981 1.327 . S
C1981 H1975 0.950 . S
C1981 C1980 1.327 . S
C1981 C1985 1.429 . S
C1982 C1965 1.574 . S
C1982 H1976 0.949 . S
C1982 C1986 1.368 . S
C1983 C1964 1.429 . S
C1983 C1977 1.429 . S
C1983 C1984 1.523 . S
C1984 C1965 1.368 . S
C1984 C1978 1.368 . S
C1984 C1983 1.523 . S
C1985 C1969 1.429 . S
C1985 C1981 1.429 . S
C1985 C1986 1.523 . S
C1986 C1970 1.368 . S
C1986 C1982 1.368 . S
C1986 C1985 1.523 . S
H1987 C1962 0.950 . S
H1988 C1964 0.950 . S
H1989 C1965 0.949 . S
H1990 C1967 0.950 . S
H1991 C1969 0.950 . S
C1992 C1993 1.349 . S
C1992 C1994 1.327 . S
C1992 H2017 0.940 1_554 S
C1993 C1992 1.349 . S
C1993 C2009 1.349 . S
C1994 C1992 1.327 . S
C1994 C2013 1.429 . S
C1994 H2018 0.950 . S
C1995 C2012 1.574 . S
C1995 C2014 1.368 1_655 S
C1995 H2019 0.949 . S
H1996 C2000 0.949 . S
C1997 C1998 1.349 . S
C1997 C1999 1.327 . S
C1997 H2020 0.950 . S
C1998 C1997 1.349 . S
C1998 C2010 1.349 . S
C1999 C1997 1.327 . S
C1999 C2015 1.429 . S
C1999 H2021 0.950 . S
C2000 H1996 0.949 . S
C2000 C2008 1.568 . S
C2000 C2016 1.368 . S
H2001 C2009 0.950 . S
H2002 C2007 0.950 . S
H2003 C2008 0.953 1_455 S
H2004 C2010 0.950 . S
H2005 C2011 0.950 . S
H2006 C2012 0.949 . S
C2007 H2002 0.950 . S
C2007 C2009 1.327 . S
C2007 C2013 1.429 . S
C2008 C2000 1.568 . S
C2008 H2003 0.953 1_655 S
C2008 C2014 1.369 1_655 S
C2009 C1993 1.349 . S
C2009 H2001 0.950 . S
C2009 C2007 1.327 . S
C2010 C1998 1.349 . S
C2010 H2004 0.950 . S
C2010 C2011 1.327 . S
C2011 H2005 0.950 . S
C2011 C2010 1.327 . S
C2011 C2015 1.429 . S
C2012 C1995 1.574 . S
C2012 H2006 0.949 . S
C2012 C2016 1.368 . S
C2013 C1994 1.429 . S
C2013 C2007 1.429 . S
C2013 C2014 1.523 . S
C2014 C1995 1.368 1_455 S
C2014 C2008 1.369 1_455 S
C2014 C2013 1.523 . S
C2015 C1999 1.429 . S
C2015 C2011 1.429 . S
C2015 C2016 1.523 . S
C2016 C2000 1.368 . S
C2016 C2012 1.368 . S
C2016 C2015 1.523 . S
H2017 C1992 0.940 1_556 S
H2018 C1994 0.950 . S
H2019 C1995 0.949 . S
H2020 C1997 0.950 . S
H2021 C1999 0.950 . S
C2022 C2023 1.349 . S
C2022 C2024 1.327 . S
C2022 H2047 0.950 . S
C2023 C2022 1.349 . S
C2023 C2039 1.349 . S
C2024 C2022 1.327 . S
C2024 C2043 1.429 . S
C2024 H2048 0.950 . S
C2025 C2042 1.574 . S
C2025 C2044 1.368 . S
C2025 H2049 0.949 . S
H2026 C2030 0.949 . S
C2027 C2028 1.349 . S
C2027 C2029 1.327 . S
C2027 H2050 0.950 . S
C2028 C2027 1.349 . S
C2028 C2040 1.349 . S
C2029 C2027 1.327 . S
C2029 C2045 1.429 . S
C2029 H2051 0.950 . S
C2030 H2026 0.949 . S
C2030 C2038 1.574 . S
C2030 C2046 1.368 . S
H2031 C2039 0.950 . S
H2032 C2037 0.950 . S
H2033 C2038 0.949 . S
H2034 C2040 0.950 . S
H2035 C2041 0.950 . S
H2036 C2042 0.949 . S
C2037 H2032 0.950 . S
C2037 C2039 1.327 . S
C2037 C2043 1.429 . S
C2038 C2030 1.574 . S
C2038 H2033 0.949 . S
C2038 C2044 1.368 . S
C2039 C2023 1.349 . S
C2039 H2031 0.950 . S
C2039 C2037 1.327 . S
C2040 C2028 1.349 . S
C2040 H2034 0.950 . S
C2040 C2041 1.327 . S
C2041 H2035 0.950 . S
C2041 C2040 1.327 . S
C2041 C2045 1.429 . S
C2042 C2025 1.574 . S
C2042 H2036 0.949 . S
C2042 C2046 1.368 . S
C2043 C2024 1.429 . S
C2043 C2037 1.429 . S
C2043 C2044 1.523 . S
C2044 C2025 1.368 . S
C2044 C2038 1.368 . S
C2044 C2043 1.523 . S
C2045 C2029 1.429 . S
C2045 C2041 1.429 . S
C2045 C2046 1.523 . S
C2046 C2030 1.368 . S
C2046 C2042 1.368 . S
C2046 C2045 1.523 . S
H2047 C2022 0.950 . S
H2048 C2024 0.950 . S
H2049 C2025 0.949 . S
H2050 C2027 0.950 . S
H2051 C2029 0.950 . S
C2052 C2053 1.349 . S
C2052 C2054 1.327 . S
C2052 H2077 0.950 . S
C2053 C2052 1.349 . S
C2053 C2069 1.349 . S
C2054 C2052 1.327 . S
C2054 C2073 1.429 . S
C2054 H2078 0.950 . S
C2055 C2072 1.574 . S
C2055 C2074 1.368 1_455 S
C2055 H2079 0.939 1_455 S
H2056 C2060 0.949 . S
C2057 C2058 1.349 . S
C2057 C2059 1.327 . S
C2057 H2080 0.950 . S
C2058 C2057 1.349 . S
C2058 C2070 1.349 . S
C2059 C2057 1.327 . S
C2059 C2075 1.429 . S
C2059 H2081 0.950 . S
C2060 H2056 0.949 . S
C2060 C2068 1.574 . S
C2060 C2076 1.368 . S
H2061 C2069 0.950 . S
H2062 C2067 0.950 . S
H2063 C2068 0.949 1_655 S
H2064 C2070 0.950 . S
H2065 C2071 0.950 . S
H2066 C2072 0.949 . S
C2067 H2062 0.950 . S
C2067 C2069 1.327 . S
C2067 C2073 1.429 . S
C2068 C2060 1.574 . S
C2068 H2063 0.949 1_455 S
C2068 C2074 1.368 1_455 S
C2069 C2053 1.349 . S
C2069 H2061 0.950 . S
C2069 C2067 1.327 . S
C2070 C2058 1.349 . S
C2070 H2064 0.950 . S
C2070 C2071 1.327 . S
C2071 H2065 0.950 . S
C2071 C2070 1.327 . S
C2071 C2075 1.429 . S
C2072 C2055 1.574 . S
C2072 H2066 0.949 . S
C2072 C2076 1.368 . S
C2073 C2054 1.429 . S
C2073 C2067 1.429 . S
C2073 C2074 1.523 . S
C2074 C2055 1.368 1_655 S
C2074 C2068 1.368 1_655 S
C2074 C2073 1.523 . S
C2075 C2059 1.429 . S
C2075 C2071 1.429 . S
C2075 C2076 1.523 . S
C2076 C2060 1.368 . S
C2076 C2072 1.368 . S
C2076 C2075 1.523 . S
H2077 C2052 0.950 . S
H2078 C2054 0.950 . S
H2079 C2055 0.939 1_655 S
H2080 C2057 0.950 . S
H2081 C2059 0.950 . S
C2082 C2083 1.349 . S
C2082 C2084 1.327 . S
C2082 H2107 0.950 . S
C2083 C2082 1.349 . S
C2083 C2099 1.349 . S
C2084 C2082 1.327 . S
C2084 C2103 1.429 . S
C2084 H2108 0.950 . S
C2085 C2102 1.574 . S
C2085 C2104 1.368 . S
C2085 H2109 0.949 . S
H2086 C2090 0.949 . S
C2087 C2088 1.349 . S
C2087 C2089 1.327 . S
C2087 H2110 0.950 . S
C2088 C2087 1.349 . S
C2088 C2100 1.349 . S
C2089 C2087 1.327 . S
C2089 C2105 1.429 . S
C2089 H2111 0.950 . S
C2090 H2086 0.949 . S
C2090 C2098 1.574 . S
C2090 C2106 1.368 . S
H2091 C2099 0.950 . S
H2092 C2097 0.950 . S
H2093 C2098 0.949 . S
H2094 C2100 0.944 1_554 S
H2095 C2101 0.950 . S
H2096 C2102 0.949 . S
C2097 H2092 0.950 . S
C2097 C2099 1.327 . S
C2097 C2103 1.429 . S
C2098 C2090 1.574 . S
C2098 H2093 0.949 . S
C2098 C2104 1.368 . S
C2099 C2083 1.349 . S
C2099 H2091 0.950 . S
C2099 C2097 1.327 . S
C2100 C2088 1.349 . S
C2100 H2094 0.944 1_556 S
C2100 C2101 1.327 . S
C2101 H2095 0.950 . S
C2101 C2100 1.327 . S
C2101 C2105 1.429 . S
C2102 C2085 1.574 . S
C2102 H2096 0.949 . S
C2102 C2106 1.368 . S
C2103 C2084 1.429 . S
C2103 C2097 1.429 . S
C2103 C2104 1.523 . S
C2104 C2085 1.368 . S
C2104 C2098 1.368 . S
C2104 C2103 1.523 . S
C2105 C2089 1.429 . S
C2105 C2101 1.429 . S
C2105 C2106 1.523 . S
C2106 C2090 1.368 . S
C2106 C2102 1.368 . S
C2106 C2105 1.523 . S
H2107 C2082 0.950 . S
H2108 C2084 0.950 . S
H2109 C2085 0.949 . S
H2110 C2087 0.950 . S
H2111 C2089 0.950 . S
C2112 C2113 1.349 . S
C2112 C2114 1.327 . S
C2112 H2137 0.950 . S
C2113 C2112 1.349 . S
C2113 C2129 1.349 . S
C2114 C2112 1.327 . S
C2114 C2133 1.429 . S
C2114 H2138 0.950 . S
C2115 C2132 1.574 . S
C2115 C2134 1.368 . S
C2115 H2139 0.949 . S
H2116 C2120 0.949 . S
C2117 C2118 1.349 . S
C2117 C2119 1.327 . S
C2117 H2140 0.950 . S
C2118 C2117 1.349 . S
C2118 C2130 1.349 . S
C2119 C2117 1.327 . S
C2119 C2135 1.429 . S
C2119 H2141 0.950 . S
C2120 H2116 0.949 . S
C2120 C2128 1.574 . S
C2120 C2136 1.368 . S
H2121 C2129 0.950 . S
H2122 C2127 0.950 . S
H2123 C2128 0.949 . S
H2124 C2130 0.950 . S
H2125 C2131 0.950 . S
H2126 C2132 0.949 . S
C2127 H2122 0.950 . S
C2127 C2129 1.327 . S
C2127 C2133 1.429 . S
C2128 C2120 1.574 . S
C2128 H2123 0.949 . S
C2128 C2134 1.368 . S
C2129 C2113 1.349 . S
C2129 H2121 0.950 . S
C2129 C2127 1.327 . S
C2130 C2118 1.349 . S
C2130 H2124 0.950 . S
C2130 C2131 1.327 . S
C2131 H2125 0.950 . S
C2131 C2130 1.327 . S
C2131 C2135 1.429 . S
C2132 C2115 1.574 . S
C2132 H2126 0.949 . S
C2132 C2136 1.368 . S
C2133 C2114 1.429 . S
C2133 C2127 1.429 . S
C2133 C2134 1.523 . S
C2134 C2115 1.368 . S
C2134 C2128 1.368 . S
C2134 C2133 1.523 . S
C2135 C2119 1.429 . S
C2135 C2131 1.429 . S
C2135 C2136 1.523 . S
C2136 C2120 1.368 . S
C2136 C2132 1.368 . S
C2136 C2135 1.523 . S
H2137 C2112 0.950 . S
H2138 C2114 0.950 . S
H2139 C2115 0.949 . S
H2140 C2117 0.950 . S
H2141 C2119 0.950 . S
C2142 C2143 1.349 . S
C2142 C2144 1.327 . S
C2142 H2167 0.950 . S
C2143 C2142 1.349 . S
C2143 C2159 1.349 . S
C2144 C2142 1.327 . S
C2144 C2163 1.429 . S
C2144 H2168 0.950 . S
C2145 C2162 1.574 1_554 S
C2145 C2164 1.368 . S
C2145 H2169 0.949 . S
H2146 C2150 0.949 . S
C2147 C2148 1.349 . S
C2147 C2149 1.327 . S
C2147 H2170 0.950 . S
C2148 C2147 1.349 . S
C2148 C2160 1.349 . S
C2149 C2147 1.327 . S
C2149 C2165 1.429 . S
C2149 H2171 0.950 . S
C2150 H2146 0.949 . S
C2150 C2158 1.574 . S
C2150 C2166 1.368 1_554 S
H2151 C2159 0.950 . S
H2152 C2157 0.950 . S
H2153 C2158 0.949 . S
H2154 C2160 0.950 . S
H2155 C2161 0.950 . S
H2156 C2162 0.949 . S
C2157 H2152 0.950 . S
C2157 C2159 1.327 . S
C2157 C2163 1.429 . S
C2158 C2150 1.574 . S
C2158 H2153 0.949 . S
C2158 C2164 1.368 . S
C2159 C2143 1.349 . S
C2159 H2151 0.950 . S
C2159 C2157 1.327 . S
C2160 C2148 1.349 . S
C2160 H2154 0.950 . S
C2160 C2161 1.327 . S
C2161 H2155 0.950 . S
C2161 C2160 1.327 . S
C2161 C2165 1.429 . S
C2162 C2145 1.574 1_556 S
C2162 H2156 0.949 . S
C2162 C2166 1.368 . S
C2163 C2144 1.429 . S
C2163 C2157 1.429 . S
C2163 C2164 1.523 . S
C2164 C2145 1.368 . S
C2164 C2158 1.368 . S
C2164 C2163 1.523 . S
C2165 C2149 1.429 . S
C2165 C2161 1.429 . S
C2165 C2166 1.523 . S
C2166 C2150 1.368 1_556 S
C2166 C2162 1.368 . S
C2166 C2165 1.523 . S
H2167 C2142 0.950 . S
H2168 C2144 0.950 . S
H2169 C2145 0.949 . S
H2170 C2147 0.950 . S
H2171 C2149 0.950 . S
C2172 C2173 1.349 . S
C2172 C2174 1.327 . S
C2172 H2197 0.950 . S
C2173 C2172 1.349 . S
C2173 C2189 1.349 . S
C2174 C2172 1.327 . S
C2174 C2193 1.429 . S
C2174 H2198 0.950 . S
C2175 C2192 1.574 . S
C2175 C2194 1.368 . S
C2175 H2199 0.949 . S
H2176 C2180 0.949 . S
C2177 C2178 1.349 . S
C2177 C2179 1.327 . S
C2177 H2200 0.950 . S
C2178 C2177 1.349 . S
C2178 C2190 1.349 . S
C2179 C2177 1.327 . S
C2179 C2195 1.429 . S
C2179 H2201 0.950 . S
C2180 H2176 0.949 . S
C2180 C2188 1.574 . S
C2180 C2196 1.368 . S
H2181 C2189 0.950 . S
H2182 C2187 0.950 . S
H2183 C2188 0.949 . S
H2184 C2190 0.950 . S
H2185 C2191 0.950 . S
H2186 C2192 0.949 . S
C2187 H2182 0.950 . S
C2187 C2189 1.327 . S
C2187 C2193 1.429 . S
C2188 C2180 1.574 . S
C2188 H2183 0.949 . S
C2188 C2194 1.368 . S
C2189 C2173 1.349 . S
C2189 H2181 0.950 . S
C2189 C2187 1.327 . S
C2190 C2178 1.349 . S
C2190 H2184 0.950 . S
C2190 C2191 1.327 . S
C2191 H2185 0.950 . S
C2191 C2190 1.327 . S
C2191 C2195 1.429 . S
C2192 C2175 1.574 . S
C2192 H2186 0.949 . S
C2192 C2196 1.368 . S
C2193 C2174 1.429 . S
C2193 C2187 1.429 . S
C2193 C2194 1.523 . S
C2194 C2175 1.368 . S
C2194 C2188 1.368 . S
C2194 C2193 1.523 . S
C2195 C2179 1.429 . S
C2195 C2191 1.429 . S
C2195 C2196 1.523 . S
C2196 C2180 1.368 . S
C2196 C2192 1.368 . S
C2196 C2195 1.523 . S
H2197 C2172 0.950 . S
H2198 C2174 0.950 . S
H2199 C2175 0.949 . S
H2200 C2177 0.950 . S
H2201 C2179 0.950 . S
C2202 C2203 1.349 . S
C2202 C2204 1.327 . S
C2202 H2227 0.950 . S
C2203 C2202 1.349 . S
C2203 C2219 1.349 . S
C2204 C2202 1.327 . S
C2204 C2223 1.429 . S
C2204 H2228 0.950 . S
C2205 C2222 1.574 . S
C2205 C2224 1.368 . S
C2205 H2229 0.949 . S
H2206 C2210 0.949 . S
C2207 C2208 1.349 . S
C2207 C2209 1.327 . S
C2207 H2230 0.950 . S
C2208 C2207 1.349 . S
C2208 C2220 1.349 . S
C2209 C2207 1.327 . S
C2209 C2225 1.429 . S
C2209 H2231 0.950 . S
C2210 H2206 0.949 . S
C2210 C2218 1.574 . S
C2210 C2226 1.368 . S
H2211 C2219 0.950 . S
H2212 C2217 0.950 . S
H2213 C2218 0.949 . S
H2214 C2220 0.950 . S
H2215 C2221 0.950 . S
H2216 C2222 0.949 . S
C2217 H2212 0.950 . S
C2217 C2219 1.327 . S
C2217 C2223 1.429 . S
C2218 C2210 1.574 . S
C2218 H2213 0.949 . S
C2218 C2224 1.368 . S
C2219 C2203 1.349 . S
C2219 H2211 0.950 . S
C2219 C2217 1.327 . S
C2220 C2208 1.349 . S
C2220 H2214 0.950 . S
C2220 C2221 1.327 . S
C2221 H2215 0.950 . S
C2221 C2220 1.327 . S
C2221 C2225 1.429 . S
C2222 C2205 1.574 . S
C2222 H2216 0.949 . S
C2222 C2226 1.368 . S
C2223 C2204 1.429 . S
C2223 C2217 1.429 . S
C2223 C2224 1.523 . S
C2224 C2205 1.368 . S
C2224 C2218 1.368 . S
C2224 C2223 1.523 . S
C2225 C2209 1.429 . S
C2225 C2221 1.429 . S
C2225 C2226 1.523 . S
C2226 C2210 1.368 . S
C2226 C2222 1.368 . S
C2226 C2225 1.523 . S
H2227 C2202 0.950 . S
H2228 C2204 0.950 . S
H2229 C2205 0.949 . S
H2230 C2207 0.950 . S
H2231 C2209 0.950 . S
C2232 C2233 1.349 . S
C2232 C2234 1.327 . S
C2232 H2257 0.950 . S
C2233 C2232 1.349 . S
C2233 C2249 1.349 . S
C2234 C2232 1.327 . S
C2234 C2253 1.429 . S
C2234 H2258 0.950 . S
C2235 C2252 1.574 . S
C2235 C2254 1.368 . S
C2235 H2259 0.949 . S
H2236 C2240 0.949 . S
C2237 C2238 1.349 . S
C2237 C2239 1.327 . S
C2237 H2260 0.950 . S
C2238 C2237 1.349 . S
C2238 C2250 1.349 . S
C2239 C2237 1.327 . S
C2239 C2255 1.429 . S
C2239 H2261 0.950 . S
C2240 H2236 0.949 . S
C2240 C2248 1.574 . S
C2240 C2256 1.368 . S
H2241 C2249 0.950 . S
H2242 C2247 0.950 . S
H2243 C2248 0.949 . S
H2244 C2250 0.950 . S
H2245 C2251 0.950 . S
H2246 C2252 0.949 . S
C2247 H2242 0.950 . S
C2247 C2249 1.327 . S
C2247 C2253 1.429 . S
C2248 C2240 1.574 . S
C2248 H2243 0.949 . S
C2248 C2254 1.368 . S
C2249 C2233 1.349 . S
C2249 H2241 0.950 . S
C2249 C2247 1.327 . S
C2250 C2238 1.349 . S
C2250 H2244 0.950 . S
C2250 C2251 1.327 . S
C2251 H2245 0.950 . S
C2251 C2250 1.327 . S
C2251 C2255 1.429 . S
C2252 C2235 1.574 . S
C2252 H2246 0.949 . S
C2252 C2256 1.368 . S
C2253 C2234 1.429 . S
C2253 C2247 1.429 . S
C2253 C2254 1.523 . S
C2254 C2235 1.368 . S
C2254 C2248 1.368 . S
C2254 C2253 1.523 . S
C2255 C2239 1.429 . S
C2255 C2251 1.429 . S
C2255 C2256 1.523 . S
C2256 C2240 1.368 . S
C2256 C2252 1.368 . S
C2256 C2255 1.523 . S
H2257 C2232 0.950 . S
H2258 C2234 0.950 . S
H2259 C2235 0.949 . S
H2260 C2237 0.950 . S
H2261 C2239 0.950 . S
C2262 C2263 1.349 . S
C2262 C2264 1.327 . S
C2262 H2287 0.950 . S
C2263 C2262 1.349 . S
C2263 C2279 1.349 . S
C2264 C2262 1.327 . S
C2264 C2283 1.429 . S
C2264 H2288 0.950 . S
C2265 C2282 1.574 . S
C2265 C2284 1.368 . S
C2265 H2289 0.949 . S
H2266 C2270 0.949 1_554 S
C2267 C2268 1.349 . S
C2267 C2269 1.327 . S
C2267 H2290 0.950 . S
C2268 C2267 1.349 . S
C2268 C2280 1.349 . S
C2269 C2267 1.327 . S
C2269 C2285 1.429 . S
C2269 H2291 0.950 . S
C2270 H2266 0.949 1_556 S
C2270 C2278 1.574 . S
C2270 C2286 1.368 1_556 S
H2271 C2279 0.950 . S
H2272 C2277 0.950 . S
H2273 C2278 0.949 . S
H2274 C2280 0.950 . S
H2275 C2281 0.950 . S
H2276 C2282 0.949 1_554 S
C2277 H2272 0.950 . S
C2277 C2279 1.327 . S
C2277 C2283 1.429 . S
C2278 C2270 1.574 . S
C2278 H2273 0.949 . S
C2278 C2284 1.368 . S
C2279 C2263 1.349 . S
C2279 H2271 0.950 . S
C2279 C2277 1.327 . S
C2280 C2268 1.349 . S
C2280 H2274 0.950 . S
C2280 C2281 1.327 . S
C2281 H2275 0.950 . S
C2281 C2280 1.327 . S
C2281 C2285 1.429 . S
C2282 C2265 1.574 . S
C2282 H2276 0.949 1_556 S
C2282 C2286 1.368 1_556 S
C2283 C2264 1.429 . S
C2283 C2277 1.429 . S
C2283 C2284 1.523 . S
C2284 C2265 1.368 . S
C2284 C2278 1.368 . S
C2284 C2283 1.523 . S
C2285 C2269 1.429 . S
C2285 C2281 1.429 . S
C2285 C2286 1.523 . S
C2286 C2270 1.368 1_554 S
C2286 C2282 1.368 1_554 S
C2286 C2285 1.523 . S
H2287 C2262 0.950 . S
H2288 C2264 0.950 . S
H2289 C2265 0.949 . S
H2290 C2267 0.950 . S
H2291 C2269 0.950 . S
C2292 C2293 1.349 . S
C2292 C2294 1.327 . S
C2292 H2317 0.950 . S
C2293 C2292 1.349 . S
C2293 C2309 1.349 . S
C2294 C2292 1.327 . S
C2294 C2313 1.429 . S
C2294 H2318 0.950 . S
C2295 C2312 1.574 . S
C2295 C2314 1.368 . S
C2295 H2319 0.949 . S
H2296 C2300 0.949 . S
C2297 C2298 1.349 . S
C2297 C2299 1.327 . S
C2297 H2320 0.950 . S
C2298 C2297 1.349 . S
C2298 C2310 1.349 . S
C2299 C2297 1.327 . S
C2299 C2315 1.429 . S
C2299 H2321 0.950 . S
C2300 H2296 0.949 . S
C2300 C2308 1.574 . S
C2300 C2316 1.368 . S
H2301 C2309 0.950 . S
H2302 C2307 0.950 . S
H2303 C2308 0.949 . S
H2304 C2310 0.950 . S
H2305 C2311 0.950 . S
H2306 C2312 0.949 . S
C2307 H2302 0.950 . S
C2307 C2309 1.327 . S
C2307 C2313 1.429 . S
C2308 C2300 1.574 . S
C2308 H2303 0.949 . S
C2308 C2314 1.368 . S
C2309 C2293 1.349 . S
C2309 H2301 0.950 . S
C2309 C2307 1.327 . S
C2310 C2298 1.349 . S
C2310 H2304 0.950 . S
C2310 C2311 1.327 . S
C2311 H2305 0.950 . S
C2311 C2310 1.327 . S
C2311 C2315 1.429 . S
C2312 C2295 1.574 . S
C2312 H2306 0.949 . S
C2312 C2316 1.368 . S
C2313 C2294 1.429 . S
C2313 C2307 1.429 . S
C2313 C2314 1.523 . S
C2314 C2295 1.368 . S
C2314 C2308 1.368 . S
C2314 C2313 1.523 . S
C2315 C2299 1.429 . S
C2315 C2311 1.429 . S
C2315 C2316 1.523 . S
C2316 C2300 1.368 . S
C2316 C2312 1.368 . S
C2316 C2315 1.523 . S
H2317 C2292 0.950 . S
H2318 C2294 0.950 . S
H2319 C2295 0.949 . S
H2320 C2297 0.950 . S
H2321 C2299 0.950 . S
C2322 C2323 1.349 . S
C2322 C2324 1.327 . S
C2322 H2347 0.950 . S
C2323 C2322 1.349 . S
C2323 C2339 1.349 . S
C2324 C2322 1.327 . S
C2324 C2343 1.429 . S
C2324 H2348 0.950 . S
C2325 C2342 1.574 . S
C2325 C2344 1.368 . S
C2325 H2349 0.949 . S
H2326 C2330 0.949 . S
C2327 C2328 1.349 . S
C2327 C2329 1.327 . S
C2327 H2350 0.950 . S
C2328 C2327 1.349 . S
C2328 C2340 1.349 . S
C2329 C2327 1.327 . S
C2329 C2345 1.429 . S
C2329 H2351 0.950 . S
C2330 H2326 0.949 . S
C2330 C2338 1.574 . S
C2330 C2346 1.368 . S
H2331 C2339 0.950 . S
H2332 C2337 0.950 . S
H2333 C2338 0.949 . S
H2334 C2340 0.950 . S
H2335 C2341 0.950 . S
H2336 C2342 0.949 . S
C2337 H2332 0.950 . S
C2337 C2339 1.327 . S
C2337 C2343 1.429 . S
C2338 C2330 1.574 . S
C2338 H2333 0.949 . S
C2338 C2344 1.368 . S
C2339 C2323 1.349 . S
C2339 H2331 0.950 . S
C2339 C2337 1.327 . S
C2340 C2328 1.349 . S
C2340 H2334 0.950 . S
C2340 C2341 1.327 . S
C2341 H2335 0.950 . S
C2341 C2340 1.327 . S
C2341 C2345 1.429 . S
C2342 C2325 1.574 . S
C2342 H2336 0.949 . S
C2342 C2346 1.368 . S
C2343 C2324 1.429 . S
C2343 C2337 1.429 . S
C2343 C2344 1.523 . S
C2344 C2325 1.368 . S
C2344 C2338 1.368 . S
C2344 C2343 1.523 . S
C2345 C2329 1.429 . S
C2345 C2341 1.429 . S
C2345 C2346 1.523 . S
C2346 C2330 1.368 . S
C2346 C2342 1.368 . S
C2346 C2345 1.523 . S
H2347 C2322 0.950 . S
H2348 C2324 0.950 . S
H2349 C2325 0.949 . S
H2350 C2327 0.950 . S
H2351 C2329 0.950 . S
C2352 C2353 1.349 . S
C2352 C2354 1.327 . S
C2352 H2377 0.950 . S
C2353 C2352 1.349 . S
C2353 C2369 1.349 . S
C2354 C2352 1.327 . S
C2354 C2373 1.429 . S
C2354 H2378 0.950 . S
C2355 C2372 1.574 . S
C2355 C2374 1.368 . S
C2355 H2379 0.949 . S
H2356 C2360 0.949 . S
C2357 C2358 1.349 . S
C2357 C2359 1.327 . S
C2357 H2380 0.950 . S
C2358 C2357 1.349 . S
C2358 C2370 1.349 . S
C2359 C2357 1.327 . S
C2359 C2375 1.429 . S
C2359 H2381 0.950 . S
C2360 H2356 0.949 . S
C2360 C2368 1.574 . S
C2360 C2376 1.368 . S
H2361 C2369 0.950 . S
H2362 C2367 0.950 . S
H2363 C2368 0.949 . S
H2364 C2370 0.950 . S
H2365 C2371 0.950 . S
H2366 C2372 0.949 . S
C2367 H2362 0.950 . S
C2367 C2369 1.327 . S
C2367 C2373 1.429 . S
C2368 C2360 1.574 . S
C2368 H2363 0.949 . S
C2368 C2374 1.368 . S
C2369 C2353 1.349 . S
C2369 H2361 0.950 . S
C2369 C2367 1.327 . S
C2370 C2358 1.349 . S
C2370 H2364 0.950 . S
C2370 C2371 1.327 . S
C2371 H2365 0.950 . S
C2371 C2370 1.327 . S
C2371 C2375 1.429 . S
C2372 C2355 1.574 . S
C2372 H2366 0.949 . S
C2372 C2376 1.368 . S
C2373 C2354 1.429 . S
C2373 C2367 1.429 . S
C2373 C2374 1.523 . S
C2374 C2355 1.368 . S
C2374 C2368 1.368 . S
C2374 C2373 1.523 . S
C2375 C2359 1.429 . S
C2375 C2371 1.429 . S
C2375 C2376 1.523 . S
C2376 C2360 1.368 . S
C2376 C2372 1.368 . S
C2376 C2375 1.523 . S
H2377 C2352 0.950 . S
H2378 C2354 0.950 . S
H2379 C2355 0.949 . S
H2380 C2357 0.950 . S
H2381 C2359 0.950 . S
C2382 C2383 1.349 . S
C2382 C2384 1.327 . S
C2382 H2407 0.950 . S
C2383 C2382 1.349 . S
C2383 C2399 1.349 . S
C2384 C2382 1.327 . S
C2384 C2403 1.429 . S
C2384 H2408 0.950 . S
C2385 C2402 1.574 . S
C2385 C2404 1.368 . S
C2385 H2409 0.949 . S
H2386 C2390 0.949 . S
C2387 C2388 1.349 . S
C2387 C2389 1.327 . S
C2387 H2410 0.950 . S
C2388 C2387 1.349 . S
C2388 C2400 1.349 . S
C2389 C2387 1.327 . S
C2389 C2405 1.429 . S
C2389 H2411 0.950 . S
C2390 H2386 0.949 . S
C2390 C2398 1.574 . S
C2390 C2406 1.368 . S
H2391 C2399 0.950 . S
H2392 C2397 0.950 . S
H2393 C2398 0.949 . S
H2394 C2400 0.950 . S
H2395 C2401 0.950 . S
H2396 C2402 0.949 . S
C2397 H2392 0.950 . S
C2397 C2399 1.327 . S
C2397 C2403 1.429 . S
C2398 C2390 1.574 . S
C2398 H2393 0.949 . S
C2398 C2404 1.368 . S
C2399 C2383 1.349 . S
C2399 H2391 0.950 . S
C2399 C2397 1.327 . S
C2400 C2388 1.349 . S
C2400 H2394 0.950 . S
C2400 C2401 1.327 . S
C2401 H2395 0.950 . S
C2401 C2400 1.327 . S
C2401 C2405 1.429 . S
C2402 C2385 1.574 . S
C2402 H2396 0.949 . S
C2402 C2406 1.368 . S
C2403 C2384 1.429 . S
C2403 C2397 1.429 . S
C2403 C2404 1.523 . S
C2404 C2385 1.368 . S
C2404 C2398 1.368 . S
C2404 C2403 1.523 . S
C2405 C2389 1.429 . S
C2405 C2401 1.429 . S
C2405 C2406 1.523 . S
C2406 C2390 1.368 . S
C2406 C2402 1.368 . S
C2406 C2405 1.523 . S
H2407 C2382 0.950 . S
H2408 C2384 0.950 . S
H2409 C2385 0.949 . S
H2410 C2387 0.950 . S
H2411 C2389 0.950 . S
C2412 C2413 1.349 . S
C2412 C2414 1.327 . S
C2412 H2437 0.950 . S
C2413 C2412 1.349 . S
C2413 C2429 1.349 . S
C2414 C2412 1.327 . S
C2414 C2433 1.429 . S
C2414 H2438 0.950 . S
C2415 C2432 1.574 . S
C2415 C2434 1.368 . S
C2415 H2439 0.949 . S
H2416 C2420 0.949 . S
C2417 C2418 1.349 . S
C2417 C2419 1.327 . S
C2417 H2440 0.950 . S
C2418 C2417 1.349 . S
C2418 C2430 1.349 . S
C2419 C2417 1.327 . S
C2419 C2435 1.429 . S
C2419 H2441 0.950 . S
C2420 H2416 0.949 . S
C2420 C2428 1.574 . S
C2420 C2436 1.368 . S
H2421 C2429 0.950 . S
H2422 C2427 0.950 . S
H2423 C2428 0.949 . S
H2424 C2430 0.950 . S
H2425 C2431 0.950 . S
H2426 C2432 0.949 . S
C2427 H2422 0.950 . S
C2427 C2429 1.327 . S
C2427 C2433 1.429 . S
C2428 C2420 1.574 . S
C2428 H2423 0.949 . S
C2428 C2434 1.368 . S
C2429 C2413 1.349 . S
C2429 H2421 0.950 . S
C2429 C2427 1.327 . S
C2430 C2418 1.349 . S
C2430 H2424 0.950 . S
C2430 C2431 1.327 . S
C2431 H2425 0.950 . S
C2431 C2430 1.327 . S
C2431 C2435 1.429 . S
C2432 C2415 1.574 . S
C2432 H2426 0.949 . S
C2432 C2436 1.368 . S
C2433 C2414 1.429 . S
C2433 C2427 1.429 . S
C2433 C2434 1.523 . S
C2434 C2415 1.368 . S
C2434 C2428 1.368 . S
C2434 C2433 1.523 . S
C2435 C2419 1.429 . S
C2435 C2431 1.429 . S
C2435 C2436 1.523 . S
C2436 C2420 1.368 . S
C2436 C2432 1.368 . S
C2436 C2435 1.523 . S
H2437 C2412 0.950 . S
H2438 C2414 0.950 . S
H2439 C2415 0.949 . S
H2440 C2417 0.950 . S
H2441 C2419 0.950 . S
C2442 C2443 1.349 . S
C2442 C2444 1.327 . S
C2442 H2467 0.950 . S
C2443 C2442 1.349 . S
C2443 C2459 1.349 . S
C2444 C2442 1.327 . S
C2444 C2463 1.429 . S
C2444 H2468 0.950 . S
C2445 C2462 1.574 . S
C2445 C2464 1.368 . S
C2445 H2469 0.949 . S
H2446 C2450 0.949 . S
C2447 C2448 1.349 . S
C2447 C2449 1.327 . S
C2447 H2470 0.950 . S
C2448 C2447 1.349 . S
C2448 C2460 1.349 . S
C2449 C2447 1.327 . S
C2449 C2465 1.429 . S
C2449 H2471 0.950 . S
C2450 H2446 0.949 . S
C2450 C2458 1.574 . S
C2450 C2466 1.368 . S
H2451 C2459 0.950 . S
H2452 C2457 0.950 . S
H2453 C2458 0.949 . S
H2454 C2460 0.950 . S
H2455 C2461 0.950 . S
H2456 C2462 0.949 . S
C2457 H2452 0.950 . S
C2457 C2459 1.327 . S
C2457 C2463 1.429 . S
C2458 C2450 1.574 . S
C2458 H2453 0.949 . S
C2458 C2464 1.368 . S
C2459 C2443 1.349 . S
C2459 H2451 0.950 . S
C2459 C2457 1.327 . S
C2460 C2448 1.349 . S
C2460 H2454 0.950 . S
C2460 C2461 1.327 . S
C2461 H2455 0.950 . S
C2461 C2460 1.327 . S
C2461 C2465 1.429 . S
C2462 C2445 1.574 . S
C2462 H2456 0.949 . S
C2462 C2466 1.368 . S
C2463 C2444 1.429 . S
C2463 C2457 1.429 . S
C2463 C2464 1.523 . S
C2464 C2445 1.368 . S
C2464 C2458 1.368 . S
C2464 C2463 1.523 . S
C2465 C2449 1.429 . S
C2465 C2461 1.429 . S
C2465 C2466 1.523 . S
C2466 C2450 1.368 . S
C2466 C2462 1.368 . S
C2466 C2465 1.523 . S
H2467 C2442 0.950 . S
H2468 C2444 0.950 . S
H2469 C2445 0.949 . S
H2470 C2447 0.950 . S
H2471 C2449 0.950 . S
C2472 C2473 1.349 . S
C2472 C2474 1.327 . S
C2472 H2497 0.950 . S
C2473 C2472 1.349 . S
C2473 C2489 1.349 . S
C2474 C2472 1.327 . S
C2474 C2493 1.429 . S
C2474 H2498 0.950 . S
C2475 C2492 1.574 . S
C2475 C2494 1.368 . S
C2475 H2499 0.949 . S
H2476 C2480 0.949 . S
C2477 C2478 1.349 . S
C2477 C2479 1.327 . S
C2477 H2500 0.950 . S
C2478 C2477 1.349 . S
C2478 C2490 1.349 . S
C2479 C2477 1.327 . S
C2479 C2495 1.429 . S
C2479 H2501 0.950 . S
C2480 H2476 0.949 . S
C2480 C2488 1.574 . S
C2480 C2496 1.368 . S
H2481 C2489 0.950 . S
H2482 C2487 0.950 . S
H2483 C2488 0.949 . S
H2484 C2490 0.950 . S
H2485 C2491 0.950 . S
H2486 C2492 0.949 . S
C2487 H2482 0.950 . S
C2487 C2489 1.327 . S
C2487 C2493 1.429 . S
C2488 C2480 1.574 . S
C2488 H2483 0.949 . S
C2488 C2494 1.368 . S
C2489 C2473 1.349 . S
C2489 H2481 0.950 . S
C2489 C2487 1.327 . S
C2490 C2478 1.349 . S
C2490 H2484 0.950 . S
C2490 C2491 1.327 . S
C2491 H2485 0.950 . S
C2491 C2490 1.327 . S
C2491 C2495 1.429 . S
C2492 C2475 1.574 . S
C2492 H2486 0.949 . S
C2492 C2496 1.368 . S
C2493 C2474 1.429 . S
C2493 C2487 1.429 . S
C2493 C2494 1.523 . S
C2494 C2475 1.368 . S
C2494 C2488 1.368 . S
C2494 C2493 1.523 . S
C2495 C2479 1.429 . S
C2495 C2491 1.429 . S
C2495 C2496 1.523 . S
C2496 C2480 1.368 . S
C2496 C2492 1.368 . S
C2496 C2495 1.523 . S
H2497 C2472 0.950 . S
H2498 C2474 0.950 . S
H2499 C2475 0.949 . S
H2500 C2477 0.950 . S
H2501 C2479 0.950 . S
C2502 C2503 1.349 . S
C2502 C2504 1.327 . S
C2502 H2527 0.950 . S
C2503 C2502 1.349 . S
C2503 C2519 1.349 . S
C2504 C2502 1.327 . S
C2504 C2523 1.429 . S
C2504 H2528 0.950 . S
C2505 C2522 1.574 . S
C2505 C2524 1.368 . S
C2505 H2529 0.949 . S
H2506 C2510 0.949 . S
C2507 C2508 1.349 . S
C2507 C2509 1.327 . S
C2507 H2530 0.950 1_655 S
C2508 C2507 1.349 . S
C2508 C2520 1.349 . S
C2509 C2507 1.327 . S
C2509 C2525 1.429 . S
C2509 H2531 0.950 . S
C2510 H2506 0.949 . S
C2510 C2518 1.574 . S
C2510 C2526 1.368 . S
H2511 C2519 0.950 . S
H2512 C2517 0.950 . S
H2513 C2518 0.949 . S
H2514 C2520 0.950 . S
H2515 C2521 0.950 . S
H2516 C2522 0.949 . S
C2517 H2512 0.950 . S
C2517 C2519 1.327 . S
C2517 C2523 1.429 . S
C2518 C2510 1.574 . S
C2518 H2513 0.949 . S
C2518 C2524 1.368 . S
C2519 C2503 1.349 . S
C2519 H2511 0.950 . S
C2519 C2517 1.327 . S
C2520 C2508 1.349 . S
C2520 H2514 0.950 . S
C2520 C2521 1.327 . S
C2521 H2515 0.950 . S
C2521 C2520 1.327 . S
C2521 C2525 1.429 . S
C2522 C2505 1.574 . S
C2522 H2516 0.949 . S
C2522 C2526 1.368 . S
C2523 C2504 1.429 . S
C2523 C2517 1.429 . S
C2523 C2524 1.523 . S
C2524 C2505 1.368 . S
C2524 C2518 1.368 . S
C2524 C2523 1.523 . S
C2525 C2509 1.429 . S
C2525 C2521 1.429 . S
C2525 C2526 1.523 . S
C2526 C2510 1.368 . S
C2526 C2522 1.368 . S
C2526 C2525 1.523 . S
H2527 C2502 0.950 . S
H2528 C2504 0.950 . S
H2529 C2505 0.949 . S
H2530 C2507 0.950 1_455 S
H2531 C2509 0.950 . S
C2532 C2533 1.349 . S
C2532 C2534 1.327 . S
C2532 H2557 0.950 . S
C2533 C2532 1.349 . S
C2533 C2549 1.349 . S
C2534 C2532 1.327 . S
C2534 C2553 1.429 . S
C2534 H2558 0.950 . S
C2535 C2552 1.574 . S
C2535 C2554 1.368 . S
C2535 H2559 0.949 . S
H2536 C2540 0.949 . S
C2537 C2538 1.349 . S
C2537 C2539 1.327 . S
C2537 H2560 0.950 . S
C2538 C2537 1.349 . S
C2538 C2550 1.349 . S
C2539 C2537 1.327 . S
C2539 C2555 1.429 . S
C2539 H2561 0.950 . S
C2540 H2536 0.949 . S
C2540 C2548 1.574 . S
C2540 C2556 1.368 . S
H2541 C2549 0.950 . S
H2542 C2547 0.950 . S
H2543 C2548 0.949 . S
H2544 C2550 0.950 . S
H2545 C2551 0.950 . S
H2546 C2552 0.949 . S
C2547 H2542 0.950 . S
C2547 C2549 1.327 . S
C2547 C2553 1.429 . S
C2548 C2540 1.574 . S
C2548 H2543 0.949 . S
C2548 C2554 1.368 . S
C2549 C2533 1.349 . S
C2549 H2541 0.950 . S
C2549 C2547 1.327 . S
C2550 C2538 1.349 . S
C2550 H2544 0.950 . S
C2550 C2551 1.327 . S
C2551 H2545 0.950 . S
C2551 C2550 1.327 . S
C2551 C2555 1.429 . S
C2552 C2535 1.574 . S
C2552 H2546 0.949 . S
C2552 C2556 1.368 . S
C2553 C2534 1.429 . S
C2553 C2547 1.429 . S
C2553 C2554 1.523 . S
C2554 C2535 1.368 . S
C2554 C2548 1.368 . S
C2554 C2553 1.523 . S
C2555 C2539 1.429 . S
C2555 C2551 1.429 . S
C2555 C2556 1.523 . S
C2556 C2540 1.368 . S
C2556 C2552 1.368 . S
C2556 C2555 1.523 . S
H2557 C2532 0.950 . S
H2558 C2534 0.950 . S
H2559 C2535 0.949 . S
H2560 C2537 0.950 . S
H2561 C2539 0.950 . S
C2562 C2563 1.349 . S
C2562 C2564 1.327 . S
C2562 H2587 0.950 . S
C2563 C2562 1.349 . S
C2563 C2579 1.349 . S
C2564 C2562 1.327 . S
C2564 C2583 1.429 . S
C2564 H2588 0.950 . S
C2565 C2582 1.574 . S
C2565 C2584 1.368 . S
C2565 H2589 0.949 . S
H2566 C2570 0.949 . S
C2567 C2568 1.349 . S
C2567 C2569 1.327 . S
C2567 H2590 0.950 . S
C2568 C2567 1.349 . S
C2568 C2580 1.349 . S
C2569 C2567 1.327 . S
C2569 C2585 1.429 . S
C2569 H2591 0.950 . S
C2570 H2566 0.949 . S
C2570 C2578 1.574 . S
C2570 C2586 1.368 . S
H2571 C2579 0.950 . S
H2572 C2577 0.950 . S
H2573 C2578 0.949 . S
H2574 C2580 0.950 . S
H2575 C2581 0.950 . S
H2576 C2582 0.949 . S
C2577 H2572 0.950 . S
C2577 C2579 1.327 . S
C2577 C2583 1.429 . S
C2578 C2570 1.574 . S
C2578 H2573 0.949 . S
C2578 C2584 1.368 . S
C2579 C2563 1.349 . S
C2579 H2571 0.950 . S
C2579 C2577 1.327 . S
C2580 C2568 1.349 . S
C2580 H2574 0.950 . S
C2580 C2581 1.327 . S
C2581 H2575 0.950 . S
C2581 C2580 1.327 . S
C2581 C2585 1.429 . S
C2582 C2565 1.574 . S
C2582 H2576 0.949 . S
C2582 C2586 1.368 . S
C2583 C2564 1.429 . S
C2583 C2577 1.429 . S
C2583 C2584 1.523 . S
C2584 C2565 1.368 . S
C2584 C2578 1.368 . S
C2584 C2583 1.523 . S
C2585 C2569 1.429 . S
C2585 C2581 1.429 . S
C2585 C2586 1.523 . S
C2586 C2570 1.368 . S
C2586 C2582 1.368 . S
C2586 C2585 1.523 . S
H2587 C2562 0.950 . S
H2588 C2564 0.950 . S
H2589 C2565 0.949 . S
H2590 C2567 0.950 . S
H2591 C2569 0.950 . S
C2592 C2593 1.349 . S
C2592 C2594 1.327 . S
C2592 H2617 0.950 . S
C2593 C2592 1.349 . S
C2593 C2609 1.349 . S
C2594 C2592 1.327 . S
C2594 C2613 1.429 . S
C2594 H2618 0.950 . S
C2595 C2612 1.574 . S
C2595 C2614 1.368 . S
C2595 H2619 0.949 . S
H2596 C2600 0.949 . S
C2597 C2598 1.349 . S
C2597 C2599 1.327 . S
C2597 H2620 0.950 . S
C2598 C2597 1.349 . S
C2598 C2610 1.349 . S
C2599 C2597 1.327 . S
C2599 C2615 1.429 . S
C2599 H2621 0.950 . S
C2600 H2596 0.949 . S
C2600 C2608 1.574 . S
C2600 C2616 1.368 . S
H2601 C2609 0.950 . S
H2602 C2607 0.950 . S
H2603 C2608 0.949 . S
H2604 C2610 0.950 . S
H2605 C2611 0.950 . S
H2606 C2612 0.949 . S
C2607 H2602 0.950 . S
C2607 C2609 1.327 . S
C2607 C2613 1.429 . S
C2608 C2600 1.574 . S
C2608 H2603 0.949 . S
C2608 C2614 1.368 . S
C2609 C2593 1.349 . S
C2609 H2601 0.950 . S
C2609 C2607 1.327 . S
C2610 C2598 1.349 . S
C2610 H2604 0.950 . S
C2610 C2611 1.327 . S
C2611 H2605 0.950 . S
C2611 C2610 1.327 . S
C2611 C2615 1.429 . S
C2612 C2595 1.574 . S
C2612 H2606 0.949 . S
C2612 C2616 1.368 . S
C2613 C2594 1.429 . S
C2613 C2607 1.429 . S
C2613 C2614 1.523 . S
C2614 C2595 1.368 . S
C2614 C2608 1.368 . S
C2614 C2613 1.523 . S
C2615 C2599 1.429 . S
C2615 C2611 1.429 . S
C2615 C2616 1.523 . S
C2616 C2600 1.368 . S
C2616 C2612 1.368 . S
C2616 C2615 1.523 . S
H2617 C2592 0.950 . S
H2618 C2594 0.950 . S
H2619 C2595 0.949 . S
H2620 C2597 0.950 . S
H2621 C2599 0.950 . S
C2622 C2623 1.349 . S
C2622 C2624 1.327 . S
C2622 H2647 0.950 . S
C2623 C2622 1.349 . S
C2623 C2639 1.349 . S
C2624 C2622 1.327 . S
C2624 C2643 1.429 . S
C2624 H2648 0.950 . S
C2625 C2642 1.574 . S
C2625 C2644 1.368 . S
C2625 H2649 0.949 . S
H2626 C2630 0.949 . S
C2627 C2628 1.349 . S
C2627 C2629 1.327 . S
C2627 H2650 0.950 . S
C2628 C2627 1.349 . S
C2628 C2640 1.349 . S
C2629 C2627 1.327 . S
C2629 C2645 1.429 . S
C2629 H2651 0.950 . S
C2630 H2626 0.949 . S
C2630 C2638 1.574 . S
C2630 C2646 1.368 . S
H2631 C2639 0.950 . S
H2632 C2637 0.950 . S
H2633 C2638 0.949 . S
H2634 C2640 0.950 . S
H2635 C2641 0.950 . S
H2636 C2642 0.949 . S
C2637 H2632 0.950 . S
C2637 C2639 1.327 . S
C2637 C2643 1.429 . S
C2638 C2630 1.574 . S
C2638 H2633 0.949 . S
C2638 C2644 1.368 . S
C2639 C2623 1.349 . S
C2639 H2631 0.950 . S
C2639 C2637 1.327 . S
C2640 C2628 1.349 . S
C2640 H2634 0.950 . S
C2640 C2641 1.327 . S
C2641 H2635 0.950 . S
C2641 C2640 1.327 . S
C2641 C2645 1.429 . S
C2642 C2625 1.574 . S
C2642 H2636 0.949 . S
C2642 C2646 1.368 . S
C2643 C2624 1.429 . S
C2643 C2637 1.429 . S
C2643 C2644 1.523 . S
C2644 C2625 1.368 . S
C2644 C2638 1.368 . S
C2644 C2643 1.523 . S
C2645 C2629 1.429 . S
C2645 C2641 1.429 . S
C2645 C2646 1.523 . S
C2646 C2630 1.368 . S
C2646 C2642 1.368 . S
C2646 C2645 1.523 . S
H2647 C2622 0.950 . S
H2648 C2624 0.950 . S
H2649 C2625 0.949 . S
H2650 C2627 0.950 . S
H2651 C2629 0.950 . S
C2652 C2653 1.349 . S
C2652 C2654 1.327 . S
C2652 H2677 0.950 . S
C2653 C2652 1.349 . S
C2653 C2669 1.349 . S
C2654 C2652 1.327 . S
C2654 C2673 1.429 . S
C2654 H2678 0.950 . S
C2655 C2672 1.574 . S
C2655 C2674 1.368 . S
C2655 H2679 0.949 . S
H2656 C2660 0.949 . S
C2657 C2658 1.349 . S
C2657 C2659 1.327 . S
C2657 H2680 0.950 . S
C2658 C2657 1.349 . S
C2658 C2670 1.349 . S
C2659 C2657 1.327 . S
C2659 C2675 1.429 . S
C2659 H2681 0.950 . S
C2660 H2656 0.949 . S
C2660 C2668 1.574 . S
C2660 C2676 1.368 . S
H2661 C2669 0.950 . S
H2662 C2667 0.950 . S
H2663 C2668 0.949 . S
H2664 C2670 0.950 . S
H2665 C2671 0.950 . S
H2666 C2672 0.949 . S
C2667 H2662 0.950 . S
C2667 C2669 1.327 . S
C2667 C2673 1.429 . S
C2668 C2660 1.574 . S
C2668 H2663 0.949 . S
C2668 C2674 1.368 . S
C2669 C2653 1.349 . S
C2669 H2661 0.950 . S
C2669 C2667 1.327 . S
C2670 C2658 1.349 . S
C2670 H2664 0.950 . S
C2670 C2671 1.327 . S
C2671 H2665 0.950 . S
C2671 C2670 1.327 . S
C2671 C2675 1.429 . S
C2672 C2655 1.574 . S
C2672 H2666 0.949 . S
C2672 C2676 1.368 . S
C2673 C2654 1.429 . S
C2673 C2667 1.429 . S
C2673 C2674 1.523 . S
C2674 C2655 1.368 . S
C2674 C2668 1.368 . S
C2674 C2673 1.523 . S
C2675 C2659 1.429 . S
C2675 C2671 1.429 . S
C2675 C2676 1.523 . S
C2676 C2660 1.368 . S
C2676 C2672 1.368 . S
C2676 C2675 1.523 . S
H2677 C2652 0.950 . S
H2678 C2654 0.950 . S
H2679 C2655 0.949 . S
H2680 C2657 0.950 . S
H2681 C2659 0.950 . S
C2682 C2683 1.349 . S
C2682 C2684 1.327 . S
C2682 H2707 0.950 . S
C2683 C2682 1.349 . S
C2683 C2699 1.349 . S
C2684 C2682 1.327 . S
C2684 C2703 1.429 . S
C2684 H2708 0.950 . S
C2685 C2702 1.574 . S
C2685 C2704 1.368 . S
C2685 H2709 0.949 . S
H2686 C2690 0.949 . S
C2687 C2688 1.349 . S
C2687 C2689 1.327 . S
C2687 H2710 0.950 . S
C2688 C2687 1.349 . S
C2688 C2700 1.349 . S
C2689 C2687 1.327 . S
C2689 C2705 1.429 . S
C2689 H2711 0.950 . S
C2690 H2686 0.949 . S
C2690 C2698 1.574 . S
C2690 C2706 1.368 . S
H2691 C2699 0.950 . S
H2692 C2697 0.950 . S
H2693 C2698 0.949 . S
H2694 C2700 0.950 . S
H2695 C2701 0.950 . S
H2696 C2702 0.949 . S
C2697 H2692 0.950 . S
C2697 C2699 1.327 . S
C2697 C2703 1.429 . S
C2698 C2690 1.574 . S
C2698 H2693 0.949 . S
C2698 C2704 1.368 . S
C2699 C2683 1.349 . S
C2699 H2691 0.950 . S
C2699 C2697 1.327 . S
C2700 C2688 1.349 . S
C2700 H2694 0.950 . S
C2700 C2701 1.327 . S
C2701 H2695 0.950 . S
C2701 C2700 1.327 . S
C2701 C2705 1.429 . S
C2702 C2685 1.574 . S
C2702 H2696 0.949 . S
C2702 C2706 1.368 . S
C2703 C2684 1.429 . S
C2703 C2697 1.429 . S
C2703 C2704 1.523 . S
C2704 C2685 1.368 . S
C2704 C2698 1.368 . S
C2704 C2703 1.523 . S
C2705 C2689 1.429 . S
C2705 C2701 1.429 . S
C2705 C2706 1.523 . S
C2706 C2690 1.368 . S
C2706 C2702 1.368 . S
C2706 C2705 1.523 . S
H2707 C2682 0.950 . S
H2708 C2684 0.950 . S
H2709 C2685 0.949 . S
H2710 C2687 0.950 . S
H2711 C2689 0.950 . S
C2712 C2713 1.349 . S
C2712 C2714 1.327 . S
C2712 H2737 0.950 . S
C2713 C2712 1.349 . S
C2713 C2729 1.349 . S
C2714 C2712 1.327 . S
C2714 C2733 1.429 . S
C2714 H2738 0.950 . S
C2715 C2732 1.574 . S
C2715 C2734 1.368 . S
C2715 H2739 0.949 . S
H2716 C2720 0.949 . S
C2717 C2718 1.349 . S
C2717 C2719 1.327 . S
C2717 H2740 0.950 . S
C2718 C2717 1.349 . S
C2718 C2730 1.349 . S
C2719 C2717 1.327 . S
C2719 C2735 1.429 . S
C2719 H2741 0.950 . S
C2720 H2716 0.949 . S
C2720 C2728 1.574 . S
C2720 C2736 1.368 . S
H2721 C2729 0.950 . S
H2722 C2727 0.950 . S
H2723 C2728 0.949 . S
H2724 C2730 0.950 . S
H2725 C2731 0.950 . S
H2726 C2732 0.949 . S
C2727 H2722 0.950 . S
C2727 C2729 1.327 . S
C2727 C2733 1.429 . S
C2728 C2720 1.574 . S
C2728 H2723 0.949 . S
C2728 C2734 1.368 . S
C2729 C2713 1.349 . S
C2729 H2721 0.950 . S
C2729 C2727 1.327 . S
C2730 C2718 1.349 . S
C2730 H2724 0.950 . S
C2730 C2731 1.327 . S
C2731 H2725 0.950 . S
C2731 C2730 1.327 . S
C2731 C2735 1.429 . S
C2732 C2715 1.574 . S
C2732 H2726 0.949 . S
C2732 C2736 1.368 . S
C2733 C2714 1.429 . S
C2733 C2727 1.429 . S
C2733 C2734 1.523 . S
C2734 C2715 1.368 . S
C2734 C2728 1.368 . S
C2734 C2733 1.523 . S
C2735 C2719 1.429 . S
C2735 C2731 1.429 . S
C2735 C2736 1.523 . S
C2736 C2720 1.368 . S
C2736 C2732 1.368 . S
C2736 C2735 1.523 . S
H2737 C2712 0.950 . S
H2738 C2714 0.950 . S
H2739 C2715 0.949 . S
H2740 C2717 0.950 . S
H2741 C2719 0.950 . S
C2742 C2743 1.349 . S
C2742 C2744 1.327 . S
C2742 H2767 0.950 . S
C2743 C2742 1.349 . S
C2743 C2759 1.349 . S
C2744 C2742 1.327 . S
C2744 C2763 1.429 . S
C2744 H2768 0.950 . S
C2745 C2762 1.574 . S
C2745 C2764 1.368 . S
C2745 H2769 0.949 . S
H2746 C2750 0.949 . S
C2747 C2748 1.349 . S
C2747 C2749 1.327 . S
C2747 H2770 0.950 . S
C2748 C2747 1.349 . S
C2748 C2760 1.349 . S
C2749 C2747 1.327 . S
C2749 C2765 1.429 . S
C2749 H2771 0.950 . S
C2750 H2746 0.949 . S
C2750 C2758 1.574 . S
C2750 C2766 1.368 . S
H2751 C2759 0.950 . S
H2752 C2757 0.950 . S
H2753 C2758 0.949 . S
H2754 C2760 0.950 . S
H2755 C2761 0.950 . S
H2756 C2762 0.949 . S
C2757 H2752 0.950 . S
C2757 C2759 1.327 . S
C2757 C2763 1.429 . S
C2758 C2750 1.574 . S
C2758 H2753 0.949 . S
C2758 C2764 1.368 . S
C2759 C2743 1.349 . S
C2759 H2751 0.950 . S
C2759 C2757 1.327 . S
C2760 C2748 1.349 . S
C2760 H2754 0.950 . S
C2760 C2761 1.327 . S
C2761 H2755 0.950 . S
C2761 C2760 1.327 . S
C2761 C2765 1.429 . S
C2762 C2745 1.574 . S
C2762 H2756 0.949 . S
C2762 C2766 1.368 . S
C2763 C2744 1.429 . S
C2763 C2757 1.429 . S
C2763 C2764 1.523 . S
C2764 C2745 1.368 . S
C2764 C2758 1.368 . S
C2764 C2763 1.523 . S
C2765 C2749 1.429 . S
C2765 C2761 1.429 . S
C2765 C2766 1.523 . S
C2766 C2750 1.368 . S
C2766 C2762 1.368 . S
C2766 C2765 1.523 . S
H2767 C2742 0.950 . S
H2768 C2744 0.950 . S
H2769 C2745 0.949 . S
H2770 C2747 0.950 . S
H2771 C2749 0.950 . S
C2772 C2773 1.349 . S
C2772 C2774 1.327 . S
C2772 H2797 0.950 . S
C2773 C2772 1.349 . S
C2773 C2789 1.349 1_556 S
C2774 C2772 1.327 . S
C2774 C2793 1.429 . S
C2774 H2798 0.950 . S
C2775 C2792 1.574 . S
C2775 C2794 1.368 . S
C2775 H2799 0.949 . S
H2776 C2780 0.949 . S
C2777 C2778 1.349 . S
C2777 C2779 1.327 . S
C2777 H2800 0.950 . S
C2778 C2777 1.349 . S
C2778 C2790 1.349 . S
C2779 C2777 1.327 . S
C2779 C2795 1.429 . S
C2779 H2801 0.950 . S
C2780 H2776 0.949 . S
C2780 C2788 1.574 . S
C2780 C2796 1.368 . S
H2781 C2789 0.950 . S
H2782 C2787 0.950 1_554 S
H2783 C2788 0.949 . S
H2784 C2790 0.950 . S
H2785 C2791 0.950 . S
H2786 C2792 0.949 . S
C2787 H2782 0.950 1_556 S
C2787 C2789 1.327 1_556 S
C2787 C2793 1.429 . S
C2788 C2780 1.574 . S
C2788 H2783 0.949 . S
C2788 C2794 1.368 . S
C2789 C2773 1.349 1_554 S
C2789 H2781 0.950 . S
C2789 C2787 1.327 1_554 S
C2790 C2778 1.349 . S
C2790 H2784 0.950 . S
C2790 C2791 1.327 . S
C2791 H2785 0.950 . S
C2791 C2790 1.327 . S
C2791 C2795 1.429 . S
C2792 C2775 1.574 . S
C2792 H2786 0.949 . S
C2792 C2796 1.368 . S
C2793 C2774 1.429 . S
C2793 C2787 1.429 . S
C2793 C2794 1.523 . S
C2794 C2775 1.368 . S
C2794 C2788 1.368 . S
C2794 C2793 1.523 . S
C2795 C2779 1.429 . S
C2795 C2791 1.429 . S
C2795 C2796 1.523 . S
C2796 C2780 1.368 . S
C2796 C2792 1.368 . S
C2796 C2795 1.523 . S
H2797 C2772 0.950 . S
H2798 C2774 0.950 . S
H2799 C2775 0.949 . S
H2800 C2777 0.950 . S
H2801 C2779 0.950 . S
C2802 C2803 1.349 . S
C2802 C2804 1.327 . S
C2802 H2827 0.950 . S
C2803 C2802 1.349 . S
C2803 C2819 1.349 . S
C2804 C2802 1.327 . S
C2804 C2823 1.429 . S
C2804 H2828 0.950 . S
C2805 C2822 1.574 1_455 S
C2805 C2824 1.368 . S
C2805 H2829 0.949 . S
H2806 C2810 0.949 . S
C2807 C2808 1.349 . S
C2807 C2809 1.327 . S
C2807 H2830 0.950 . S
C2808 C2807 1.349 . S
C2808 C2820 1.349 . S
C2809 C2807 1.327 . S
C2809 C2825 1.429 . S
C2809 H2831 0.950 . S
C2810 H2806 0.949 . S
C2810 C2818 1.574 . S
C2810 C2826 1.368 . S
H2811 C2819 0.950 . S
H2812 C2817 0.950 . S
H2813 C2818 0.949 . S
H2814 C2820 0.950 . S
H2815 C2821 0.950 . S
H2816 C2822 0.949 . S
C2817 H2812 0.950 . S
C2817 C2819 1.327 . S
C2817 C2823 1.429 . S
C2818 C2810 1.574 . S
C2818 H2813 0.949 . S
C2818 C2824 1.368 1_655 S
C2819 C2803 1.349 . S
C2819 H2811 0.950 . S
C2819 C2817 1.327 . S
C2820 C2808 1.349 . S
C2820 H2814 0.950 . S
C2820 C2821 1.327 . S
C2821 H2815 0.950 . S
C2821 C2820 1.327 . S
C2821 C2825 1.429 . S
C2822 C2805 1.574 1_655 S
C2822 H2816 0.949 . S
C2822 C2826 1.368 . S
C2823 C2804 1.429 . S
C2823 C2817 1.429 . S
C2823 C2824 1.523 . S
C2824 C2805 1.368 . S
C2824 C2818 1.368 1_455 S
C2824 C2823 1.523 . S
C2825 C2809 1.429 . S
C2825 C2821 1.429 . S
C2825 C2826 1.523 . S
C2826 C2810 1.368 . S
C2826 C2822 1.368 . S
C2826 C2825 1.523 . S
H2827 C2802 0.950 . S
H2828 C2804 0.950 . S
H2829 C2805 0.949 . S
H2830 C2807 0.950 . S
H2831 C2809 0.950 . S
C2832 C2833 1.349 . S
C2832 C2834 1.327 . S
C2832 H2857 0.950 . S
C2833 C2832 1.349 . S
C2833 C2849 1.349 . S
C2834 C2832 1.327 . S
C2834 C2853 1.429 . S
C2834 H2858 0.950 . S
C2835 C2852 1.574 . S
C2835 C2854 1.368 . S
C2835 H2859 0.949 . S
H2836 C2840 0.949 . S
C2837 C2838 1.349 . S
C2837 C2839 1.327 . S
C2837 H2860 0.950 . S
C2838 C2837 1.349 . S
C2838 C2850 1.349 . S
C2839 C2837 1.327 . S
C2839 C2855 1.429 . S
C2839 H2861 0.950 . S
C2840 H2836 0.949 . S
C2840 C2848 1.574 . S
C2840 C2856 1.368 . S
H2841 C2849 0.950 . S
H2842 C2847 0.950 . S
H2843 C2848 0.949 . S
H2844 C2850 0.950 . S
H2845 C2851 0.950 . S
H2846 C2852 0.949 . S
C2847 H2842 0.950 . S
C2847 C2849 1.327 . S
C2847 C2853 1.429 . S
C2848 C2840 1.574 . S
C2848 H2843 0.949 . S
C2848 C2854 1.368 . S
C2849 C2833 1.349 . S
C2849 H2841 0.950 . S
C2849 C2847 1.327 . S
C2850 C2838 1.349 . S
C2850 H2844 0.950 . S
C2850 C2851 1.327 . S
C2851 H2845 0.950 . S
C2851 C2850 1.327 . S
C2851 C2855 1.429 . S
C2852 C2835 1.574 . S
C2852 H2846 0.949 . S
C2852 C2856 1.368 . S
C2853 C2834 1.429 . S
C2853 C2847 1.429 . S
C2853 C2854 1.523 . S
C2854 C2835 1.368 . S
C2854 C2848 1.368 . S
C2854 C2853 1.523 . S
C2855 C2839 1.429 . S
C2855 C2851 1.429 . S
C2855 C2856 1.523 . S
C2856 C2840 1.368 . S
C2856 C2852 1.368 . S
C2856 C2855 1.523 . S
H2857 C2832 0.950 . S
H2858 C2834 0.950 . S
H2859 C2835 0.949 . S
H2860 C2837 0.950 . S
H2861 C2839 0.950 . S
C2862 C2863 1.349 . S
C2862 C2864 1.327 . S
C2862 H2887 0.950 . S
C2863 C2862 1.349 . S
C2863 C2879 1.349 . S
C2864 C2862 1.327 . S
C2864 C2883 1.429 . S
C2864 H2888 0.950 . S
C2865 C2882 1.574 . S
C2865 C2884 1.368 . S
C2865 H2889 0.949 . S
H2866 C2870 0.949 . S
C2867 C2868 1.349 . S
C2867 C2869 1.327 . S
C2867 H2890 0.950 . S
C2868 C2867 1.349 . S
C2868 C2880 1.349 . S
C2869 C2867 1.327 . S
C2869 C2885 1.429 . S
C2869 H2891 0.950 . S
C2870 H2866 0.949 . S
C2870 C2878 1.574 . S
C2870 C2886 1.368 . S
H2871 C2879 0.950 . S
H2872 C2877 0.950 . S
H2873 C2878 0.949 . S
H2874 C2880 0.950 . S
H2875 C2881 0.950 . S
H2876 C2882 0.949 . S
C2877 H2872 0.950 . S
C2877 C2879 1.327 . S
C2877 C2883 1.429 . S
C2878 C2870 1.574 . S
C2878 H2873 0.949 . S
C2878 C2884 1.368 . S
C2879 C2863 1.349 . S
C2879 H2871 0.950 . S
C2879 C2877 1.327 . S
C2880 C2868 1.349 . S
C2880 H2874 0.950 . S
C2880 C2881 1.327 . S
C2881 H2875 0.950 . S
C2881 C2880 1.327 . S
C2881 C2885 1.429 . S
C2882 C2865 1.574 . S
C2882 H2876 0.949 . S
C2882 C2886 1.368 . S
C2883 C2864 1.429 . S
C2883 C2877 1.429 . S
C2883 C2884 1.523 . S
C2884 C2865 1.368 . S
C2884 C2878 1.368 . S
C2884 C2883 1.523 . S
C2885 C2869 1.429 . S
C2885 C2881 1.429 . S
C2885 C2886 1.523 . S
C2886 C2870 1.368 . S
C2886 C2882 1.368 . S
C2886 C2885 1.523 . S
H2887 C2862 0.950 . S
H2888 C2864 0.950 . S
H2889 C2865 0.949 . S
H2890 C2867 0.950 . S
H2891 C2869 0.950 . S
C2892 C2893 1.349 . S
C2892 C2894 1.327 . S
C2892 H2917 0.950 . S
C2893 C2892 1.349 . S
C2893 C2909 1.349 . S
C2894 C2892 1.327 . S
C2894 C2913 1.429 . S
C2894 H2918 0.950 . S
C2895 C2912 1.574 . S
C2895 C2914 1.368 . S
C2895 H2919 0.949 . S
H2896 C2900 0.949 . S
C2897 C2898 1.349 . S
C2897 C2899 1.327 . S
C2897 H2920 0.950 . S
C2898 C2897 1.349 . S
C2898 C2910 1.349 . S
C2899 C2897 1.327 . S
C2899 C2915 1.429 . S
C2899 H2921 0.950 . S
C2900 H2896 0.949 . S
C2900 C2908 1.574 . S
C2900 C2916 1.368 . S
H2901 C2909 0.950 . S
H2902 C2907 0.950 . S
H2903 C2908 0.949 . S
H2904 C2910 0.950 . S
H2905 C2911 0.950 . S
H2906 C2912 0.949 . S
C2907 H2902 0.950 . S
C2907 C2909 1.327 . S
C2907 C2913 1.429 . S
C2908 C2900 1.574 . S
C2908 H2903 0.949 . S
C2908 C2914 1.368 . S
C2909 C2893 1.349 . S
C2909 H2901 0.950 . S
C2909 C2907 1.327 . S
C2910 C2898 1.349 . S
C2910 H2904 0.950 . S
C2910 C2911 1.327 . S
C2911 H2905 0.950 . S
C2911 C2910 1.327 . S
C2911 C2915 1.429 . S
C2912 C2895 1.574 . S
C2912 H2906 0.949 . S
C2912 C2916 1.368 . S
C2913 C2894 1.429 . S
C2913 C2907 1.429 . S
C2913 C2914 1.523 . S
C2914 C2895 1.368 . S
C2914 C2908 1.368 . S
C2914 C2913 1.523 . S
C2915 C2899 1.429 . S
C2915 C2911 1.429 . S
C2915 C2916 1.523 . S
C2916 C2900 1.368 . S
C2916 C2912 1.368 . S
C2916 C2915 1.523 . S
H2917 C2892 0.950 . S
H2918 C2894 0.950 . S
H2919 C2895 0.949 . S
H2920 C2897 0.950 . S
H2921 C2899 0.950 . S
C2922 C2923 1.349 . S
C2922 C2924 1.327 . S
C2922 H2947 0.950 . S
C2923 C2922 1.349 . S
C2923 C2939 1.349 . S
C2924 C2922 1.327 . S
C2924 C2943 1.429 . S
C2924 H2948 0.950 . S
C2925 C2942 1.574 . S
C2925 C2944 1.368 . S
C2925 H2949 0.949 . S
H2926 C2930 0.949 . S
C2927 C2928 1.349 . S
C2927 C2929 1.327 . S
C2927 H2950 0.950 . S
C2928 C2927 1.349 . S
C2928 C2940 1.349 . S
C2929 C2927 1.327 . S
C2929 C2945 1.429 . S
C2929 H2951 0.950 . S
C2930 H2926 0.949 . S
C2930 C2938 1.574 . S
C2930 C2946 1.368 . S
H2931 C2939 0.950 . S
H2932 C2937 0.950 . S
H2933 C2938 0.949 . S
H2934 C2940 0.950 . S
H2935 C2941 0.950 . S
H2936 C2942 0.949 . S
C2937 H2932 0.950 . S
C2937 C2939 1.327 . S
C2937 C2943 1.429 . S
C2938 C2930 1.574 . S
C2938 H2933 0.949 . S
C2938 C2944 1.368 . S
C2939 C2923 1.349 . S
C2939 H2931 0.950 . S
C2939 C2937 1.327 . S
C2940 C2928 1.349 . S
C2940 H2934 0.950 . S
C2940 C2941 1.327 . S
C2941 H2935 0.950 . S
C2941 C2940 1.327 . S
C2941 C2945 1.429 . S
C2942 C2925 1.574 . S
C2942 H2936 0.949 . S
C2942 C2946 1.368 . S
C2943 C2924 1.429 . S
C2943 C2937 1.429 . S
C2943 C2944 1.523 . S
C2944 C2925 1.368 . S
C2944 C2938 1.368 . S
C2944 C2943 1.523 . S
C2945 C2929 1.429 . S
C2945 C2941 1.429 . S
C2945 C2946 1.523 . S
C2946 C2930 1.368 . S
C2946 C2942 1.368 . S
C2946 C2945 1.523 . S
H2947 C2922 0.950 . S
H2948 C2924 0.950 . S
H2949 C2925 0.949 . S
H2950 C2927 0.950 . S
H2951 C2929 0.950 . S
C2952 C2953 1.349 . S
C2952 C2954 1.327 . S
C2952 H2977 0.950 . S
C2953 C2952 1.349 . S
C2953 C2969 1.349 . S
C2954 C2952 1.327 . S
C2954 C2973 1.429 . S
C2954 H2978 0.950 . S
C2955 C2972 1.574 . S
C2955 C2974 1.368 . S
C2955 H2979 0.949 . S
H2956 C2960 0.949 . S
C2957 C2958 1.349 . S
C2957 C2959 1.327 . S
C2957 H2980 0.950 . S
C2958 C2957 1.349 . S
C2958 C2970 1.349 . S
C2959 C2957 1.327 . S
C2959 C2975 1.429 . S
C2959 H2981 0.950 . S
C2960 H2956 0.949 . S
C2960 C2968 1.574 . S
C2960 C2976 1.368 . S
H2961 C2969 0.950 . S
H2962 C2967 0.950 . S
H2963 C2968 0.949 . S
H2964 C2970 0.950 . S
H2965 C2971 0.950 . S
H2966 C2972 0.949 . S
C2967 H2962 0.950 . S
C2967 C2969 1.327 . S
C2967 C2973 1.429 . S
C2968 C2960 1.574 . S
C2968 H2963 0.949 . S
C2968 C2974 1.368 . S
C2969 C2953 1.349 . S
C2969 H2961 0.950 . S
C2969 C2967 1.327 . S
C2970 C2958 1.349 . S
C2970 H2964 0.950 . S
C2970 C2971 1.327 . S
C2971 H2965 0.950 . S
C2971 C2970 1.327 . S
C2971 C2975 1.429 . S
C2972 C2955 1.574 . S
C2972 H2966 0.949 . S
C2972 C2976 1.368 . S
C2973 C2954 1.429 . S
C2973 C2967 1.429 . S
C2973 C2974 1.523 . S
C2974 C2955 1.368 . S
C2974 C2968 1.368 . S
C2974 C2973 1.523 . S
C2975 C2959 1.429 . S
C2975 C2971 1.429 . S
C2975 C2976 1.523 . S
C2976 C2960 1.368 . S
C2976 C2972 1.368 . S
C2976 C2975 1.523 . S
H2977 C2952 0.950 . S
H2978 C2954 0.950 . S
H2979 C2955 0.949 . S
H2980 C2957 0.950 . S
H2981 C2959 0.950 . S
C2982 C2983 1.349 . S
C2982 C2984 1.327 . S
C2982 H3007 0.950 . S
C2983 C2982 1.349 . S
C2983 C2999 1.349 . S
C2984 C2982 1.327 . S
C2984 C3003 1.429 . S
C2984 H3008 0.950 . S
C2985 C3002 1.574 . S
C2985 C3004 1.368 . S
C2985 H3009 0.949 . S
H2986 C2990 0.949 . S
C2987 C2988 1.349 . S
C2987 C2989 1.327 . S
C2987 H3010 0.950 . S
C2988 C2987 1.349 . S
C2988 C3000 1.349 . S
C2989 C2987 1.327 . S
C2989 C3005 1.429 . S
C2989 H3011 0.950 . S
C2990 H2986 0.949 . S
C2990 C2998 1.574 . S
C2990 C3006 1.368 . S
H2991 C2999 0.950 . S
H2992 C2997 0.950 . S
H2993 C2998 0.949 . S
H2994 C3000 0.950 . S
H2995 C3001 0.950 . S
H2996 C3002 0.949 . S
C2997 H2992 0.950 . S
C2997 C2999 1.327 . S
C2997 C3003 1.429 . S
C2998 C2990 1.574 . S
C2998 H2993 0.949 . S
C2998 C3004 1.368 . S
C2999 C2983 1.349 . S
C2999 H2991 0.950 . S
C2999 C2997 1.327 . S
C3000 C2988 1.349 . S
C3000 H2994 0.950 . S
C3000 C3001 1.327 . S
C3001 H2995 0.950 . S
C3001 C3000 1.327 . S
C3001 C3005 1.429 . S
C3002 C2985 1.574 . S
C3002 H2996 0.949 . S
C3002 C3006 1.368 . S
C3003 C2984 1.429 . S
C3003 C2997 1.429 . S
C3003 C3004 1.523 . S
C3004 C2985 1.368 . S
C3004 C2998 1.368 . S
C3004 C3003 1.523 . S
C3005 C2989 1.429 . S
C3005 C3001 1.429 . S
C3005 C3006 1.523 . S
C3006 C2990 1.368 . S
C3006 C3002 1.368 . S
C3006 C3005 1.523 . S
H3007 C2982 0.950 . S
H3008 C2984 0.950 . S
H3009 C2985 0.949 . S
H3010 C2987 0.950 . S
H3011 C2989 0.950 . S
C3012 C3013 1.349 . S
C3012 C3014 1.327 . S
C3012 H3037 0.950 . S
C3013 C3012 1.349 . S
C3013 C3029 1.349 . S
C3014 C3012 1.327 . S
C3014 C3033 1.429 . S
C3014 H3038 0.950 . S
C3015 C3032 1.574 . S
C3015 C3034 1.368 . S
C3015 H3039 0.949 . S
H3016 C3020 0.949 . S
C3017 C3018 1.349 . S
C3017 C3019 1.327 . S
C3017 H3040 0.950 . S
C3018 C3017 1.349 . S
C3018 C3030 1.349 . S
C3019 C3017 1.327 . S
C3019 C3035 1.429 . S
C3019 H3041 0.950 . S
C3020 H3016 0.949 . S
C3020 C3028 1.574 . S
C3020 C3036 1.368 . S
H3021 C3029 0.950 . S
H3022 C3027 0.950 . S
H3023 C3028 0.949 . S
H3024 C3030 0.950 . S
H3025 C3031 0.950 . S
H3026 C3032 0.949 . S
C3027 H3022 0.950 . S
C3027 C3029 1.327 . S
C3027 C3033 1.429 . S
C3028 C3020 1.574 . S
C3028 H3023 0.949 . S
C3028 C3034 1.368 . S
C3029 C3013 1.349 . S
C3029 H3021 0.950 . S
C3029 C3027 1.327 . S
C3030 C3018 1.349 . S
C3030 H3024 0.950 . S
C3030 C3031 1.327 . S
C3031 H3025 0.950 . S
C3031 C3030 1.327 . S
C3031 C3035 1.429 . S
C3032 C3015 1.574 . S
C3032 H3026 0.949 . S
C3032 C3036 1.368 . S
C3033 C3014 1.429 . S
C3033 C3027 1.429 . S
C3033 C3034 1.523 . S
C3034 C3015 1.368 . S
C3034 C3028 1.368 . S
C3034 C3033 1.523 . S
C3035 C3019 1.429 . S
C3035 C3031 1.429 . S
C3035 C3036 1.523 . S
C3036 C3020 1.368 . S
C3036 C3032 1.368 . S
C3036 C3035 1.523 . S
H3037 C3012 0.950 . S
H3038 C3014 0.950 . S
H3039 C3015 0.949 . S
H3040 C3017 0.950 . S
H3041 C3019 0.950 . S
C3042 C3043 1.349 . S
C3042 C3044 1.327 . S
C3042 H3067 0.950 . S
C3043 C3042 1.349 . S
C3043 C3059 1.349 . S
C3044 C3042 1.327 . S
C3044 C3063 1.429 . S
C3044 H3068 0.950 . S
C3045 C3062 1.574 . S
C3045 C3064 1.368 . S
C3045 H3069 0.949 . S
H3046 C3050 0.949 . S
C3047 C3048 1.349 . S
C3047 C3049 1.327 . S
C3047 H3070 0.950 . S
C3048 C3047 1.349 . S
C3048 C3060 1.349 . S
C3049 C3047 1.327 . S
C3049 C3065 1.429 . S
C3049 H3071 0.950 . S
C3050 H3046 0.949 . S
C3050 C3058 1.574 . S
C3050 C3066 1.368 . S
H3051 C3059 0.950 . S
H3052 C3057 0.950 . S
H3053 C3058 0.949 . S
H3054 C3060 0.950 . S
H3055 C3061 0.950 . S
H3056 C3062 0.949 . S
C3057 H3052 0.950 . S
C3057 C3059 1.327 . S
C3057 C3063 1.429 . S
C3058 C3050 1.574 . S
C3058 H3053 0.949 . S
C3058 C3064 1.368 . S
C3059 C3043 1.349 . S
C3059 H3051 0.950 . S
C3059 C3057 1.327 . S
C3060 C3048 1.349 . S
C3060 H3054 0.950 . S
C3060 C3061 1.327 . S
C3061 H3055 0.950 . S
C3061 C3060 1.327 . S
C3061 C3065 1.429 . S
C3062 C3045 1.574 . S
C3062 H3056 0.949 . S
C3062 C3066 1.368 . S
C3063 C3044 1.429 . S
C3063 C3057 1.429 . S
C3063 C3064 1.523 . S
C3064 C3045 1.368 . S
C3064 C3058 1.368 . S
C3064 C3063 1.523 . S
C3065 C3049 1.429 . S
C3065 C3061 1.429 . S
C3065 C3066 1.523 . S
C3066 C3050 1.368 . S
C3066 C3062 1.368 . S
C3066 C3065 1.523 . S
H3067 C3042 0.950 . S
H3068 C3044 0.950 . S
H3069 C3045 0.949 . S
H3070 C3047 0.950 . S
H3071 C3049 0.950 . S
C3072 C3073 1.349 . S
C3072 C3074 1.327 . S
C3072 H3097 0.950 . S
C3073 C3072 1.349 . S
C3073 C3089 1.349 . S
C3074 C3072 1.327 . S
C3074 C3093 1.429 . S
C3074 H3098 0.950 . S
C3075 C3092 1.574 . S
C3075 C3094 1.368 . S
C3075 H3099 0.949 . S
H3076 C3080 0.949 . S
C3077 C3078 1.349 . S
C3077 C3079 1.327 . S
C3077 H3100 0.950 . S
C3078 C3077 1.349 . S
C3078 C3090 1.349 . S
C3079 C3077 1.327 . S
C3079 C3095 1.429 . S
C3079 H3101 0.950 . S
C3080 H3076 0.949 . S
C3080 C3088 1.574 . S
C3080 C3096 1.368 . S
H3081 C3089 0.950 . S
H3082 C3087 0.950 . S
H3083 C3088 0.949 . S
H3084 C3090 0.950 . S
H3085 C3091 0.950 . S
H3086 C3092 0.949 . S
C3087 H3082 0.950 . S
C3087 C3089 1.327 . S
C3087 C3093 1.429 . S
C3088 C3080 1.574 . S
C3088 H3083 0.949 . S
C3088 C3094 1.368 . S
C3089 C3073 1.349 . S
C3089 H3081 0.950 . S
C3089 C3087 1.327 . S
C3090 C3078 1.349 . S
C3090 H3084 0.950 . S
C3090 C3091 1.327 . S
C3091 H3085 0.950 . S
C3091 C3090 1.327 . S
C3091 C3095 1.429 . S
C3092 C3075 1.574 . S
C3092 H3086 0.949 . S
C3092 C3096 1.368 . S
C3093 C3074 1.429 . S
C3093 C3087 1.429 . S
C3093 C3094 1.523 . S
C3094 C3075 1.368 . S
C3094 C3088 1.368 . S
C3094 C3093 1.523 . S
C3095 C3079 1.429 . S
C3095 C3091 1.429 . S
C3095 C3096 1.523 . S
C3096 C3080 1.368 . S
C3096 C3092 1.368 . S
C3096 C3095 1.523 . S
H3097 C3072 0.950 . S
H3098 C3074 0.950 . S
H3099 C3075 0.949 . S
H3100 C3077 0.950 . S
H3101 C3079 0.950 . S
C3102 C3103 1.349 . S
C3102 C3104 1.327 . S
C3102 H3127 0.950 . S
C3103 C3102 1.349 . S
C3103 C3119 1.349 . S
C3104 C3102 1.327 . S
C3104 C3123 1.429 . S
C3104 H3128 0.950 . S
C3105 C3122 1.574 . S
C3105 C3124 1.368 . S
C3105 H3129 0.949 . S
H3106 C3110 0.949 . S
C3107 C3108 1.349 . S
C3107 C3109 1.327 . S
C3107 H3130 0.950 . S
C3108 C3107 1.349 . S
C3108 C3120 1.349 . S
C3109 C3107 1.327 . S
C3109 C3125 1.429 . S
C3109 H3131 0.950 . S
C3110 H3106 0.949 . S
C3110 C3118 1.574 . S
C3110 C3126 1.368 . S
H3111 C3119 0.950 . S
H3112 C3117 0.950 . S
H3113 C3118 0.949 . S
H3114 C3120 0.950 . S
H3115 C3121 0.950 . S
H3116 C3122 0.949 . S
C3117 H3112 0.950 . S
C3117 C3119 1.327 . S
C3117 C3123 1.429 . S
C3118 C3110 1.574 . S
C3118 H3113 0.949 . S
C3118 C3124 1.368 . S
C3119 C3103 1.349 . S
C3119 H3111 0.950 . S
C3119 C3117 1.327 . S
C3120 C3108 1.349 . S
C3120 H3114 0.950 . S
C3120 C3121 1.327 . S
C3121 H3115 0.950 . S
C3121 C3120 1.327 . S
C3121 C3125 1.429 . S
C3122 C3105 1.574 . S
C3122 H3116 0.949 . S
C3122 C3126 1.368 . S
C3123 C3104 1.429 . S
C3123 C3117 1.429 . S
C3123 C3124 1.523 . S
C3124 C3105 1.368 . S
C3124 C3118 1.368 . S
C3124 C3123 1.523 . S
C3125 C3109 1.429 . S
C3125 C3121 1.429 . S
C3125 C3126 1.523 . S
C3126 C3110 1.368 . S
C3126 C3122 1.368 . S
C3126 C3125 1.523 . S
H3127 C3102 0.950 . S
H3128 C3104 0.950 . S
H3129 C3105 0.949 . S
H3130 C3107 0.950 . S
H3131 C3109 0.950 . S
C3132 C3133 1.349 . S
C3132 C3134 1.327 . S
C3132 H3157 0.950 . S
C3133 C3132 1.349 . S
C3133 C3149 1.349 . S
C3134 C3132 1.327 . S
C3134 C3153 1.429 . S
C3134 H3158 0.950 . S
C3135 C3152 1.574 . S
C3135 C3154 1.368 . S
C3135 H3159 0.949 . S
H3136 C3140 0.949 . S
C3137 C3138 1.349 . S
C3137 C3139 1.327 . S
C3137 H3160 0.950 . S
C3138 C3137 1.349 . S
C3138 C3150 1.349 . S
C3139 C3137 1.327 . S
C3139 C3155 1.429 . S
C3139 H3161 0.950 . S
C3140 H3136 0.949 . S
C3140 C3148 1.574 . S
C3140 C3156 1.368 . S
H3141 C3149 0.950 . S
H3142 C3147 0.950 . S
H3143 C3148 0.949 . S
H3144 C3150 0.950 . S
H3145 C3151 0.950 . S
H3146 C3152 0.949 . S
C3147 H3142 0.950 . S
C3147 C3149 1.327 . S
C3147 C3153 1.429 . S
C3148 C3140 1.574 . S
C3148 H3143 0.949 . S
C3148 C3154 1.368 . S
C3149 C3133 1.349 . S
C3149 H3141 0.950 . S
C3149 C3147 1.327 . S
C3150 C3138 1.349 . S
C3150 H3144 0.950 . S
C3150 C3151 1.327 . S
C3151 H3145 0.950 . S
C3151 C3150 1.327 . S
C3151 C3155 1.429 . S
C3152 C3135 1.574 . S
C3152 H3146 0.949 . S
C3152 C3156 1.368 . S
C3153 C3134 1.429 . S
C3153 C3147 1.429 . S
C3153 C3154 1.523 . S
C3154 C3135 1.368 . S
C3154 C3148 1.368 . S
C3154 C3153 1.523 . S
C3155 C3139 1.429 . S
C3155 C3151 1.429 . S
C3155 C3156 1.523 . S
C3156 C3140 1.368 . S
C3156 C3152 1.368 . S
C3156 C3155 1.523 . S
H3157 C3132 0.950 . S
H3158 C3134 0.950 . S
H3159 C3135 0.949 . S
H3160 C3137 0.950 . S
H3161 C3139 0.950 . S
C3162 C3163 1.349 . S
C3162 C3164 1.327 . S
C3162 H3187 0.950 . S
C3163 C3162 1.349 . S
C3163 C3179 1.349 . S
C3164 C3162 1.327 . S
C3164 C3183 1.429 . S
C3164 H3188 0.950 . S
C3165 C3182 1.574 . S
C3165 C3184 1.368 . S
C3165 H3189 0.949 . S
H3166 C3170 0.949 . S
C3167 C3168 1.349 . S
C3167 C3169 1.327 . S
C3167 H3190 0.950 . S
C3168 C3167 1.349 . S
C3168 C3180 1.349 . S
C3169 C3167 1.327 . S
C3169 C3185 1.429 . S
C3169 H3191 0.950 . S
C3170 H3166 0.949 . S
C3170 C3178 1.574 . S
C3170 C3186 1.368 . S
H3171 C3179 0.950 . S
H3172 C3177 0.950 . S
H3173 C3178 0.949 . S
H3174 C3180 0.950 . S
H3175 C3181 0.950 . S
H3176 C3182 0.949 . S
C3177 H3172 0.950 . S
C3177 C3179 1.327 . S
C3177 C3183 1.429 . S
C3178 C3170 1.574 . S
C3178 H3173 0.949 . S
C3178 C3184 1.368 . S
C3179 C3163 1.349 . S
C3179 H3171 0.950 . S
C3179 C3177 1.327 . S
C3180 C3168 1.349 . S
C3180 H3174 0.950 . S
C3180 C3181 1.327 . S
C3181 H3175 0.950 . S
C3181 C3180 1.327 . S
C3181 C3185 1.429 . S
C3182 C3165 1.574 . S
C3182 H3176 0.949 . S
C3182 C3186 1.368 . S
C3183 C3164 1.429 . S
C3183 C3177 1.429 . S
C3183 C3184 1.523 . S
C3184 C3165 1.368 . S
C3184 C3178 1.368 . S
C3184 C3183 1.523 . S
C3185 C3169 1.429 . S
C3185 C3181 1.429 . S
C3185 C3186 1.523 . S
C3186 C3170 1.368 . S
C3186 C3182 1.368 . S
C3186 C3185 1.523 . S
H3187 C3162 0.950 . S
H3188 C3164 0.950 . S
H3189 C3165 0.949 . S
H3190 C3167 0.950 . S
H3191 C3169 0.950 . S
C3192 C3193 1.349 . S
C3192 C3194 1.327 . S
C3192 H3217 0.950 . S
C3193 C3192 1.349 . S
C3193 C3209 1.349 . S
C3194 C3192 1.327 . S
C3194 C3213 1.429 . S
C3194 H3218 0.950 . S
C3195 C3212 1.574 . S
C3195 C3214 1.368 . S
C3195 H3219 0.949 . S
H3196 C3200 0.949 . S
C3197 C3198 1.349 . S
C3197 C3199 1.327 . S
C3197 H3220 0.950 . S
C3198 C3197 1.349 . S
C3198 C3210 1.349 . S
C3199 C3197 1.327 . S
C3199 C3215 1.429 . S
C3199 H3221 0.950 . S
C3200 H3196 0.949 . S
C3200 C3208 1.574 . S
C3200 C3216 1.368 . S
H3201 C3209 0.950 . S
H3202 C3207 0.950 . S
H3203 C3208 0.949 . S
H3204 C3210 0.950 . S
H3205 C3211 0.950 . S
H3206 C3212 0.949 . S
C3207 H3202 0.950 . S
C3207 C3209 1.327 . S
C3207 C3213 1.429 . S
C3208 C3200 1.574 . S
C3208 H3203 0.949 . S
C3208 C3214 1.368 . S
C3209 C3193 1.349 . S
C3209 H3201 0.950 . S
C3209 C3207 1.327 . S
C3210 C3198 1.349 . S
C3210 H3204 0.950 . S
C3210 C3211 1.327 . S
C3211 H3205 0.950 . S
C3211 C3210 1.327 . S
C3211 C3215 1.429 . S
C3212 C3195 1.574 . S
C3212 H3206 0.949 . S
C3212 C3216 1.368 . S
C3213 C3194 1.429 . S
C3213 C3207 1.429 . S
C3213 C3214 1.523 . S
C3214 C3195 1.368 . S
C3214 C3208 1.368 . S
C3214 C3213 1.523 . S
C3215 C3199 1.429 . S
C3215 C3211 1.429 . S
C3215 C3216 1.523 . S
C3216 C3200 1.368 . S
C3216 C3212 1.368 . S
C3216 C3215 1.523 . S
H3217 C3192 0.950 . S
H3218 C3194 0.950 . S
H3219 C3195 0.949 . S
H3220 C3197 0.950 . S
H3221 C3199 0.950 . S
C3222 C3223 1.349 . S
C3222 C3224 1.327 . S
C3222 H3247 0.950 . S
C3223 C3222 1.349 . S
C3223 C3239 1.349 . S
C3224 C3222 1.327 . S
C3224 C3243 1.429 . S
C3224 H3248 0.950 . S
C3225 C3242 1.574 . S
C3225 C3244 1.368 . S
C3225 H3249 0.949 . S
H3226 C3230 0.949 . S
C3227 C3228 1.349 . S
C3227 C3229 1.327 . S
C3227 H3250 0.950 . S
C3228 C3227 1.349 . S
C3228 C3240 1.349 . S
C3229 C3227 1.327 . S
C3229 C3245 1.429 . S
C3229 H3251 0.950 . S
C3230 H3226 0.949 . S
C3230 C3238 1.574 . S
C3230 C3246 1.368 . S
H3231 C3239 0.950 . S
H3232 C3237 0.950 . S
H3233 C3238 0.949 . S
H3234 C3240 0.950 . S
H3235 C3241 0.950 . S
H3236 C3242 0.949 . S
C3237 H3232 0.950 . S
C3237 C3239 1.327 . S
C3237 C3243 1.429 . S
C3238 C3230 1.574 . S
C3238 H3233 0.949 . S
C3238 C3244 1.368 . S
C3239 C3223 1.349 . S
C3239 H3231 0.950 . S
C3239 C3237 1.327 . S
C3240 C3228 1.349 . S
C3240 H3234 0.950 . S
C3240 C3241 1.327 . S
C3241 H3235 0.950 . S
C3241 C3240 1.327 . S
C3241 C3245 1.429 . S
C3242 C3225 1.574 . S
C3242 H3236 0.949 . S
C3242 C3246 1.368 . S
C3243 C3224 1.429 . S
C3243 C3237 1.429 . S
C3243 C3244 1.523 . S
C3244 C3225 1.368 . S
C3244 C3238 1.368 . S
C3244 C3243 1.523 . S
C3245 C3229 1.429 . S
C3245 C3241 1.429 . S
C3245 C3246 1.523 . S
C3246 C3230 1.368 . S
C3246 C3242 1.368 . S
C3246 C3245 1.523 . S
H3247 C3222 0.950 . S
H3248 C3224 0.950 . S
H3249 C3225 0.949 . S
H3250 C3227 0.950 . S
H3251 C3229 0.950 . S
C3252 C3253 1.349 . S
C3252 C3254 1.327 . S
C3252 H3277 0.950 . S
C3253 C3252 1.349 . S
C3253 C3269 1.349 . S
C3254 C3252 1.327 . S
C3254 C3273 1.429 . S
C3254 H3278 0.950 . S
C3255 C3272 1.574 . S
C3255 C3274 1.368 . S
C3255 H3279 0.949 . S
H3256 C3260 0.949 . S
C3257 C3258 1.349 . S
C3257 C3259 1.327 . S
C3257 H3280 0.950 . S
C3258 C3257 1.349 . S
C3258 C3270 1.349 . S
C3259 C3257 1.327 . S
C3259 C3275 1.429 . S
C3259 H3281 0.950 . S
C3260 H3256 0.949 . S
C3260 C3268 1.574 . S
C3260 C3276 1.368 . S
H3261 C3269 0.950 . S
H3262 C3267 0.950 . S
H3263 C3268 0.949 . S
H3264 C3270 0.950 . S
H3265 C3271 0.950 . S
H3266 C3272 0.949 . S
C3267 H3262 0.950 . S
C3267 C3269 1.327 . S
C3267 C3273 1.429 . S
C3268 C3260 1.574 . S
C3268 H3263 0.949 . S
C3268 C3274 1.368 . S
C3269 C3253 1.349 . S
C3269 H3261 0.950 . S
C3269 C3267 1.327 . S
C3270 C3258 1.349 . S
C3270 H3264 0.950 . S
C3270 C3271 1.327 . S
C3271 H3265 0.950 . S
C3271 C3270 1.327 . S
C3271 C3275 1.429 . S
C3272 C3255 1.574 . S
C3272 H3266 0.949 . S
C3272 C3276 1.368 . S
C3273 C3254 1.429 . S
C3273 C3267 1.429 . S
C3273 C3274 1.523 . S
C3274 C3255 1.368 . S
C3274 C3268 1.368 . S
C3274 C3273 1.523 . S
C3275 C3259 1.429 . S
C3275 C3271 1.429 . S
C3275 C3276 1.523 . S
C3276 C3260 1.368 . S
C3276 C3272 1.368 . S
C3276 C3275 1.523 . S
H3277 C3252 0.950 . S
H3278 C3254 0.950 . S
H3279 C3255 0.949 . S
H3280 C3257 0.950 . S
H3281 C3259 0.950 . S
C3282 C3283 1.349 . S
C3282 C3284 1.327 . S
C3282 H3307 0.950 . S
C3283 C3282 1.349 . S
C3283 C3299 1.349 . S
C3284 C3282 1.327 . S
C3284 C3303 1.429 . S
C3284 H3308 0.950 . S
C3285 C3302 1.574 . S
C3285 C3304 1.368 . S
C3285 H3309 0.949 . S
H3286 C3290 0.949 . S
C3287 C3288 1.349 . S
C3287 C3289 1.327 . S
C3287 H3310 0.950 . S
C3288 C3287 1.349 . S
C3288 C3300 1.349 . S
C3289 C3287 1.327 . S
C3289 C3305 1.429 . S
C3289 H3311 0.950 . S
C3290 H3286 0.949 . S
C3290 C3298 1.574 . S
C3290 C3306 1.368 . S
H3291 C3299 0.950 . S
H3292 C3297 0.950 . S
H3293 C3298 0.949 . S
H3294 C3300 0.950 . S
H3295 C3301 0.950 . S
H3296 C3302 0.949 . S
C3297 H3292 0.950 . S
C3297 C3299 1.327 . S
C3297 C3303 1.429 . S
C3298 C3290 1.574 . S
C3298 H3293 0.949 . S
C3298 C3304 1.368 . S
C3299 C3283 1.349 . S
C3299 H3291 0.950 . S
C3299 C3297 1.327 . S
C3300 C3288 1.349 . S
C3300 H3294 0.950 . S
C3300 C3301 1.327 . S
C3301 H3295 0.950 . S
C3301 C3300 1.327 . S
C3301 C3305 1.429 . S
C3302 C3285 1.574 . S
C3302 H3296 0.949 . S
C3302 C3306 1.368 . S
C3303 C3284 1.429 . S
C3303 C3297 1.429 . S
C3303 C3304 1.523 . S
C3304 C3285 1.368 . S
C3304 C3298 1.368 . S
C3304 C3303 1.523 . S
C3305 C3289 1.429 . S
C3305 C3301 1.429 . S
C3305 C3306 1.523 . S
C3306 C3290 1.368 . S
C3306 C3302 1.368 . S
C3306 C3305 1.523 . S
H3307 C3282 0.950 . S
H3308 C3284 0.950 . S
H3309 C3285 0.949 . S
H3310 C3287 0.950 . S
H3311 C3289 0.950 . S
C3312 C3313 1.349 . S
C3312 C3314 1.327 . S
C3312 H3337 0.950 . S
C3313 C3312 1.349 . S
C3313 C3329 1.349 . S
C3314 C3312 1.327 . S
C3314 C3333 1.429 . S
C3314 H3338 0.950 . S
C3315 C3332 1.574 . S
C3315 C3334 1.368 . S
C3315 H3339 0.949 . S
H3316 C3320 0.949 . S
C3317 C3318 1.349 . S
C3317 C3319 1.327 . S
C3317 H3340 0.950 . S
C3318 C3317 1.349 . S
C3318 C3330 1.349 . S
C3319 C3317 1.327 . S
C3319 C3335 1.429 . S
C3319 H3341 0.950 . S
C3320 H3316 0.949 . S
C3320 C3328 1.574 . S
C3320 C3336 1.368 . S
H3321 C3329 0.950 . S
H3322 C3327 0.950 . S
H3323 C3328 0.949 . S
H3324 C3330 0.950 . S
H3325 C3331 0.950 . S
H3326 C3332 0.949 . S
C3327 H3322 0.950 . S
C3327 C3329 1.327 . S
C3327 C3333 1.429 . S
C3328 C3320 1.574 . S
C3328 H3323 0.949 . S
C3328 C3334 1.368 . S
C3329 C3313 1.349 . S
C3329 H3321 0.950 . S
C3329 C3327 1.327 . S
C3330 C3318 1.349 . S
C3330 H3324 0.950 . S
C3330 C3331 1.327 . S
C3331 H3325 0.950 . S
C3331 C3330 1.327 . S
C3331 C3335 1.429 . S
C3332 C3315 1.574 . S
C3332 H3326 0.949 . S
C3332 C3336 1.368 . S
C3333 C3314 1.429 . S
C3333 C3327 1.429 . S
C3333 C3334 1.523 . S
C3334 C3315 1.368 . S
C3334 C3328 1.368 . S
C3334 C3333 1.523 . S
C3335 C3319 1.429 . S
C3335 C3331 1.429 . S
C3335 C3336 1.523 . S
C3336 C3320 1.368 . S
C3336 C3332 1.368 . S
C3336 C3335 1.523 . S
H3337 C3312 0.950 . S
H3338 C3314 0.950 . S
H3339 C3315 0.949 . S
H3340 C3317 0.950 . S
H3341 C3319 0.950 . S
C3342 C3343 1.349 . S
C3342 C3344 1.327 . S
C3342 H3367 0.950 . S
C3343 C3342 1.349 . S
C3343 C3359 1.349 . S
C3344 C3342 1.327 . S
C3344 C3363 1.429 . S
C3344 H3368 0.950 . S
C3345 C3362 1.574 . S
C3345 C3364 1.368 . S
C3345 H3369 0.949 . S
H3346 C3350 0.949 . S
C3347 C3348 1.349 . S
C3347 C3349 1.327 . S
C3347 H3370 0.950 . S
C3348 C3347 1.349 . S
C3348 C3360 1.349 . S
C3349 C3347 1.327 . S
C3349 C3365 1.429 . S
C3349 H3371 0.950 . S
C3350 H3346 0.949 . S
C3350 C3358 1.574 . S
C3350 C3366 1.368 . S
H3351 C3359 0.950 . S
H3352 C3357 0.950 . S
H3353 C3358 0.949 . S
H3354 C3360 0.950 . S
H3355 C3361 0.950 . S
H3356 C3362 0.949 . S
C3357 H3352 0.950 . S
C3357 C3359 1.327 . S
C3357 C3363 1.429 . S
C3358 C3350 1.574 . S
C3358 H3353 0.949 . S
C3358 C3364 1.368 . S
C3359 C3343 1.349 . S
C3359 H3351 0.950 . S
C3359 C3357 1.327 . S
C3360 C3348 1.349 . S
C3360 H3354 0.950 . S
C3360 C3361 1.327 . S
C3361 H3355 0.950 . S
C3361 C3360 1.327 . S
C3361 C3365 1.429 . S
C3362 C3345 1.574 . S
C3362 H3356 0.949 . S
C3362 C3366 1.368 . S
C3363 C3344 1.429 . S
C3363 C3357 1.429 . S
C3363 C3364 1.523 . S
C3364 C3345 1.368 . S
C3364 C3358 1.368 . S
C3364 C3363 1.523 . S
C3365 C3349 1.429 . S
C3365 C3361 1.429 . S
C3365 C3366 1.523 . S
C3366 C3350 1.368 . S
C3366 C3362 1.368 . S
C3366 C3365 1.523 . S
H3367 C3342 0.950 . S
H3368 C3344 0.950 . S
H3369 C3345 0.949 . S
H3370 C3347 0.950 . S
H3371 C3349 0.950 . S
C3372 C3373 1.349 . S
C3372 C3374 1.327 . S
C3372 H3397 0.950 . S
C3373 C3372 1.349 . S
C3373 C3389 1.349 . S
C3374 C3372 1.327 . S
C3374 C3393 1.429 . S
C3374 H3398 0.950 . S
C3375 C3392 1.574 . S
C3375 C3394 1.368 . S
C3375 H3399 0.949 . S
H3376 C3380 0.949 . S
C3377 C3378 1.349 . S
C3377 C3379 1.327 . S
C3377 H3400 0.950 . S
C3378 C3377 1.349 . S
C3378 C3390 1.349 . S
C3379 C3377 1.327 . S
C3379 C3395 1.429 . S
C3379 H3401 0.950 . S
C3380 H3376 0.949 . S
C3380 C3388 1.574 . S
C3380 C3396 1.368 . S
H3381 C3389 0.950 . S
H3382 C3387 0.950 . S
H3383 C3388 0.949 . S
H3384 C3390 0.950 . S
H3385 C3391 0.950 . S
H3386 C3392 0.949 . S
C3387 H3382 0.950 . S
C3387 C3389 1.327 . S
C3387 C3393 1.429 . S
C3388 C3380 1.574 . S
C3388 H3383 0.949 . S
C3388 C3394 1.368 . S
C3389 C3373 1.349 . S
C3389 H3381 0.950 . S
C3389 C3387 1.327 . S
C3390 C3378 1.349 . S
C3390 H3384 0.950 . S
C3390 C3391 1.327 . S
C3391 H3385 0.950 . S
C3391 C3390 1.327 . S
C3391 C3395 1.429 . S
C3392 C3375 1.574 . S
C3392 H3386 0.949 . S
C3392 C3396 1.368 . S
C3393 C3374 1.429 . S
C3393 C3387 1.429 . S
C3393 C3394 1.523 . S
C3394 C3375 1.368 . S
C3394 C3388 1.368 . S
C3394 C3393 1.523 . S
C3395 C3379 1.429 . S
C3395 C3391 1.429 . S
C3395 C3396 1.523 . S
C3396 C3380 1.368 . S
C3396 C3392 1.368 . S
C3396 C3395 1.523 . S
H3397 C3372 0.950 . S
H3398 C3374 0.950 . S
H3399 C3375 0.949 . S
H3400 C3377 0.950 . S
H3401 C3379 0.950 . S
C3402 C3403 1.349 . S
C3402 C3404 1.327 . S
C3402 H3427 0.950 . S
C3403 C3402 1.349 . S
C3403 C3419 1.349 . S
C3404 C3402 1.327 . S
C3404 C3423 1.429 . S
C3404 H3428 0.950 . S
C3405 C3422 1.574 . S
C3405 C3424 1.368 . S
C3405 H3429 0.949 . S
H3406 C3410 0.949 . S
C3407 C3408 1.349 . S
C3407 C3409 1.327 . S
C3407 H3430 0.950 . S
C3408 C3407 1.349 . S
C3408 C3420 1.349 . S
C3409 C3407 1.327 . S
C3409 C3425 1.429 . S
C3409 H3431 0.950 . S
C3410 H3406 0.949 . S
C3410 C3418 1.574 . S
C3410 C3426 1.368 . S
H3411 C3419 0.950 . S
H3412 C3417 0.950 . S
H3413 C3418 0.949 . S
H3414 C3420 0.950 . S
H3415 C3421 0.950 . S
H3416 C3422 0.949 . S
C3417 H3412 0.950 . S
C3417 C3419 1.327 . S
C3417 C3423 1.429 . S
C3418 C3410 1.574 . S
C3418 H3413 0.949 . S
C3418 C3424 1.368 . S
C3419 C3403 1.349 . S
C3419 H3411 0.950 . S
C3419 C3417 1.327 . S
C3420 C3408 1.349 . S
C3420 H3414 0.950 . S
C3420 C3421 1.327 . S
C3421 H3415 0.950 . S
C3421 C3420 1.327 . S
C3421 C3425 1.429 . S
C3422 C3405 1.574 . S
C3422 H3416 0.949 . S
C3422 C3426 1.368 . S
C3423 C3404 1.429 . S
C3423 C3417 1.429 . S
C3423 C3424 1.523 . S
C3424 C3405 1.368 . S
C3424 C3418 1.368 . S
C3424 C3423 1.523 . S
C3425 C3409 1.429 . S
C3425 C3421 1.429 . S
C3425 C3426 1.523 . S
C3426 C3410 1.368 . S
C3426 C3422 1.368 . S
C3426 C3425 1.523 . S
H3427 C3402 0.950 . S
H3428 C3404 0.950 . S
H3429 C3405 0.949 . S
H3430 C3407 0.950 . S
H3431 C3409 0.950 . S
C3432 C3433 1.349 . S
C3432 C3434 1.327 . S
C3432 H3457 0.950 . S
C3433 C3432 1.349 . S
C3433 C3449 1.349 . S
C3434 C3432 1.327 . S
C3434 C3453 1.429 . S
C3434 H3458 0.950 . S
C3435 C3452 1.574 . S
C3435 C3454 1.368 . S
C3435 H3459 0.949 . S
H3436 C3440 0.949 . S
C3437 C3438 1.349 . S
C3437 C3439 1.327 . S
C3437 H3460 0.950 . S
C3438 C3437 1.349 . S
C3438 C3450 1.349 . S
C3439 C3437 1.327 . S
C3439 C3455 1.429 . S
C3439 H3461 0.950 . S
C3440 H3436 0.949 . S
C3440 C3448 1.574 . S
C3440 C3456 1.368 . S
H3441 C3449 0.950 . S
H3442 C3447 0.950 . S
H3443 C3448 0.949 . S
H3444 C3450 0.950 . S
H3445 C3451 0.950 . S
H3446 C3452 0.949 . S
C3447 H3442 0.950 . S
C3447 C3449 1.327 . S
C3447 C3453 1.429 . S
C3448 C3440 1.574 . S
C3448 H3443 0.949 . S
C3448 C3454 1.368 . S
C3449 C3433 1.349 . S
C3449 H3441 0.950 . S
C3449 C3447 1.327 . S
C3450 C3438 1.349 . S
C3450 H3444 0.950 . S
C3450 C3451 1.327 . S
C3451 H3445 0.950 . S
C3451 C3450 1.327 . S
C3451 C3455 1.429 . S
C3452 C3435 1.574 . S
C3452 H3446 0.949 . S
C3452 C3456 1.368 . S
C3453 C3434 1.429 . S
C3453 C3447 1.429 . S
C3453 C3454 1.523 . S
C3454 C3435 1.368 . S
C3454 C3448 1.368 . S
C3454 C3453 1.523 . S
C3455 C3439 1.429 . S
C3455 C3451 1.429 . S
C3455 C3456 1.523 . S
C3456 C3440 1.368 . S
C3456 C3452 1.368 . S
C3456 C3455 1.523 . S
H3457 C3432 0.950 . S
H3458 C3434 0.950 . S
H3459 C3435 0.949 . S
H3460 C3437 0.950 . S
H3461 C3439 0.950 . S
C3462 C3463 1.349 . S
C3462 C3464 1.327 . S
C3462 H3487 0.950 . S
C3463 C3462 1.349 . S
C3463 C3479 1.349 . S
C3464 C3462 1.327 . S
C3464 C3483 1.429 . S
C3464 H3488 0.950 . S
C3465 C3482 1.574 . S
C3465 C3484 1.368 . S
C3465 H3489 0.949 . S
H3466 C3470 0.949 . S
C3467 C3468 1.349 . S
C3467 C3469 1.327 . S
C3467 H3490 0.950 . S
C3468 C3467 1.349 . S
C3468 C3480 1.349 . S
C3469 C3467 1.327 . S
C3469 C3485 1.429 . S
C3469 H3491 0.950 . S
C3470 H3466 0.949 . S
C3470 C3478 1.574 . S
C3470 C3486 1.368 . S
H3471 C3479 0.950 . S
H3472 C3477 0.950 . S
H3473 C3478 0.949 . S
H3474 C3480 0.950 . S
H3475 C3481 0.950 . S
H3476 C3482 0.949 . S
C3477 H3472 0.950 . S
C3477 C3479 1.327 . S
C3477 C3483 1.429 . S
C3478 C3470 1.574 . S
C3478 H3473 0.949 . S
C3478 C3484 1.368 . S
C3479 C3463 1.349 . S
C3479 H3471 0.950 . S
C3479 C3477 1.327 . S
C3480 C3468 1.349 . S
C3480 H3474 0.950 . S
C3480 C3481 1.327 . S
C3481 H3475 0.950 . S
C3481 C3480 1.327 . S
C3481 C3485 1.429 . S
C3482 C3465 1.574 . S
C3482 H3476 0.949 . S
C3482 C3486 1.368 . S
C3483 C3464 1.429 . S
C3483 C3477 1.429 . S
C3483 C3484 1.523 . S
C3484 C3465 1.368 . S
C3484 C3478 1.368 . S
C3484 C3483 1.523 . S
C3485 C3469 1.429 . S
C3485 C3481 1.429 . S
C3485 C3486 1.523 . S
C3486 C3470 1.368 . S
C3486 C3482 1.368 . S
C3486 C3485 1.523 . S
H3487 C3462 0.950 . S
H3488 C3464 0.950 . S
H3489 C3465 0.949 . S
H3490 C3467 0.950 . S
H3491 C3469 0.950 . S
C3492 C3493 1.349 . S
C3492 C3494 1.327 . S
C3492 H3517 0.950 . S
C3493 C3492 1.349 . S
C3493 C3509 1.349 . S
C3494 C3492 1.327 . S
C3494 C3513 1.429 . S
C3494 H3518 0.950 . S
C3495 C3512 1.574 . S
C3495 C3514 1.368 . S
C3495 H3519 0.949 . S
H3496 C3500 0.949 . S
C3497 C3498 1.349 . S
C3497 C3499 1.327 . S
C3497 H3520 0.950 . S
C3498 C3497 1.349 . S
C3498 C3510 1.349 . S
C3499 C3497 1.327 . S
C3499 C3515 1.429 . S
C3499 H3521 0.950 . S
C3500 H3496 0.949 . S
C3500 C3508 1.574 . S
C3500 C3516 1.368 . S
H3501 C3509 0.950 . S
H3502 C3507 0.950 . S
H3503 C3508 0.949 . S
H3504 C3510 0.950 . S
H3505 C3511 0.950 . S
H3506 C3512 0.949 . S
C3507 H3502 0.950 . S
C3507 C3509 1.327 . S
C3507 C3513 1.429 . S
C3508 C3500 1.574 . S
C3508 H3503 0.949 . S
C3508 C3514 1.368 . S
C3509 C3493 1.349 . S
C3509 H3501 0.950 . S
C3509 C3507 1.327 . S
C3510 C3498 1.349 . S
C3510 H3504 0.950 . S
C3510 C3511 1.327 . S
C3511 H3505 0.950 . S
C3511 C3510 1.327 . S
C3511 C3515 1.429 . S
C3512 C3495 1.574 . S
C3512 H3506 0.949 . S
C3512 C3516 1.368 . S
C3513 C3494 1.429 . S
C3513 C3507 1.429 . S
C3513 C3514 1.523 . S
C3514 C3495 1.368 . S
C3514 C3508 1.368 . S
C3514 C3513 1.523 . S
C3515 C3499 1.429 . S
C3515 C3511 1.429 . S
C3515 C3516 1.523 . S
C3516 C3500 1.368 . S
C3516 C3512 1.368 . S
C3516 C3515 1.523 . S
H3517 C3492 0.950 . S
H3518 C3494 0.950 . S
H3519 C3495 0.949 . S
H3520 C3497 0.950 . S
H3521 C3499 0.950 . S
C3522 C3523 1.349 . S
C3522 C3524 1.327 . S
C3522 H3547 0.950 . S
C3523 C3522 1.349 . S
C3523 C3539 1.349 . S
C3524 C3522 1.327 . S
C3524 C3543 1.429 . S
C3524 H3548 0.950 . S
C3525 C3542 1.574 . S
C3525 C3544 1.368 . S
C3525 H3549 0.949 . S
H3526 C3530 0.949 . S
C3527 C3528 1.349 . S
C3527 C3529 1.327 . S
C3527 H3550 0.950 . S
C3528 C3527 1.349 . S
C3528 C3540 1.349 . S
C3529 C3527 1.327 . S
C3529 C3545 1.429 . S
C3529 H3551 0.950 . S
C3530 H3526 0.949 . S
C3530 C3538 1.574 . S
C3530 C3546 1.368 . S
H3531 C3539 0.950 . S
H3532 C3537 0.950 . S
H3533 C3538 0.949 . S
H3534 C3540 0.950 . S
H3535 C3541 0.950 . S
H3536 C3542 0.949 . S
C3537 H3532 0.950 . S
C3537 C3539 1.327 . S
C3537 C3543 1.429 . S
C3538 C3530 1.574 . S
C3538 H3533 0.949 . S
C3538 C3544 1.368 . S
C3539 C3523 1.349 . S
C3539 H3531 0.950 . S
C3539 C3537 1.327 . S
C3540 C3528 1.349 . S
C3540 H3534 0.950 . S
C3540 C3541 1.327 . S
C3541 H3535 0.950 . S
C3541 C3540 1.327 . S
C3541 C3545 1.429 . S
C3542 C3525 1.574 . S
C3542 H3536 0.949 . S
C3542 C3546 1.368 . S
C3543 C3524 1.429 . S
C3543 C3537 1.429 . S
C3543 C3544 1.523 . S
C3544 C3525 1.368 . S
C3544 C3538 1.368 . S
C3544 C3543 1.523 . S
C3545 C3529 1.429 . S
C3545 C3541 1.429 . S
C3545 C3546 1.523 . S
C3546 C3530 1.368 . S
C3546 C3542 1.368 . S
C3546 C3545 1.523 . S
H3547 C3522 0.950 . S
H3548 C3524 0.950 . S
H3549 C3525 0.949 . S
H3550 C3527 0.950 . S
H3551 C3529 0.950 . S
C673 C127 2.398 . S
C678 C1 2.398 . S
C703 C152 2.398 . S
C708 C14 2.398 1_455 S
C733 C155 2.398 1_556 S
C738 C40 2.398 . S
C763 C124 2.398 . S
C768 C54 2.398 . S
C793 C57 2.398 . S
C798 C223 2.398 1_554 S
C823 C82 2.398 . S
C828 C168 2.398 . S
C853 C97 2.398 . S
C858 C194 2.398 . S
C883 C196 2.398 . S
C888 C98 2.398 1_455 S
C913 C236 2.398 . S
C918 C264 2.398 . S
C943 C239 2.398 . S
C948 C656 2.398 1_545 S
C973 C278 2.398 . S
C978 C658 2.398 1_565 S
C1003 C292 2.398 1_545 S
C1008 C631 2.398 . S
C1033 C306 2.398 . S
C1038 C616 2.398 . S
C1063 C586 2.398 . S
C1068 C308 2.398 . S
C1093 C334 2.398 . S
C1098 C603 2.398 . S
C1123 C474 2.398 1_556 S
C1128 C349 2.398 . S
C1153 C476 2.398 . S
C1158 C350 2.398 . S
C1183 C491 2.398 . S
C1188 C376 2.398 . S
C1213 C448 2.398 . S
C1218 C378 2.398 1_655 S
C1243 C559 2.398 . S
C1248 C405 2.398 . S
C1273 C504 2.398 . S
C1278 C418 2.398 1_655 S
C1303 C421 2.398 . S
C1308 C531 2.398 1_554 S
C1333 C435 2.398 . S
C1338 C532 2.398 . S
C1363 C561 2.398 . S
C1368 C600 2.398 1_565 S
C1393 C224 1.011 . S
C1398 C0 1.023 . S
C1423 C670 1.010 . S
C1428 C15 1.022 . S
C1453 C41 1.022 . S
C1458 C294 1.010 . S
C1483 C644 1.011 . S
C1488 C55 1.022 . S
C1513 C56 1.023 . S
C1518 C574 1.011 . S
C1543 C588 1.010 . S
C1548 C83 1.022 . S
C1573 C96 1.023 . S
C1578 C615 1.010 . S
C1603 C280 1.011 . S
C1608 C99 1.022 . S
C1633 C125 1.022 . S
C1638 C13 1.010 . S
C1663 C26 1.011 . S
C1668 C126 1.023 . S
C1693 C153 1.022 . S
C1698 C28 1.011 . S
C1723 C42 1.011 . S
C1728 C154 1.023 . S
C1753 C169 1.022 . S
C1758 C69 1.010 . S
C1783 C70 1.011 . S
C1788 C195 1.022 . S
C1813 C197 1.022 . S
C1818 C85 1.010 . S
C1843 C222 1.023 . S
C1848 C110 1.011 . S
C1873 C237 1.022 . S
C1878 C112 1.011 . S
C1903 C238 1.023 . S
C1908 C516 1.011 . S
C1933 C519 1.010 . S
C1938 C265 1.022 . S
C1963 C544 1.010 . S
C1968 C279 1.022 . S
C1993 C211 1.010 . S
C1998 C293 1.022 . S
C2023 C307 1.022 . S
C2028 C140 1.011 . S
C2053 C503 1.010 . S
C2058 C309 1.022 . S
C2083 C335 1.022 . S
C2088 C462 1.010 . S
C2113 C348 1.022 . S
C2118 C573 1.010 . S
C2143 C351 1.022 . S
C2148 C322 1.011 . S
C2173 C377 1.022 . S
C2178 C643 1.010 . S
C2203 C379 1.022 . S
C2208 C320 1.011 . S
C2233 C404 1.023 . S
C2238 C251 1.010 . S
C2263 C419 1.022 . S
C2268 C252 1.011 . S
C2293 C266 1.011 . S
C2298 C420 1.023 . S
C2323 C628 1.011 . S
C2328 C434 1.023 . S
C2353 C337 1.010 . S
C2358 C449 1.022 . S
C2383 C362 1.011 . S
C2388 C475 1.022 . S
C2413 C477 1.022 . S
C2418 C364 1.011 . S
C2443 C390 1.010 . S
C2448 C490 1.022 . S
C2473 C505 1.022 . S
C2478 C393 1.010 . S
C2503 C530 1.022 . S
C2508 C406 1.010 . S
C2533 C533 1.022 . S
C2538 C433 1.010 . S
C2563 C447 1.010 . S
C2568 C558 1.023 . S
C2593 C560 1.022 . S
C2598 C460 1.010 . S
C2623 C587 1.022 . S
C2628 C180 1.011 . S
C2653 C182 1.011 . S
C2658 C601 1.022 . S
C2683 C602 1.023 . S
C2688 C208 1.011 . S
C2713 C617 1.022 . S
C2718 C547 1.010 . S
C2743 C488 1.011 . S
C2748 C630 1.023 . S
C2773 C167 1.010 . S
C2778 C657 1.022 . S
C2803 C139 1.010 . S
C2808 C659 1.022 . S
C2833 C321 1.490 . S
C2838 C12 1.491 . S
C2863 C27 1.490 . S
C2868 C572 1.491 . S
C2893 C29 1.490 . S
C2898 C323 1.490 . S
C2923 C642 1.491 . S
C2928 C43 1.490 . S
C2953 C68 1.491 . S
C2958 C253 1.490 . S
C2983 C267 1.490 . S
C2988 C71 1.490 . S
C3013 C629 1.490 . S
C3018 C84 1.491 . S
C3043 C111 1.490 . S
C3048 C250 1.491 . S
C3073 C183 1.490 . S
C3078 C113 1.490 . S
C3103 C138 1.491 . S
C3108 C209 1.490 . S
C3133 C210 1.491 . S
C3138 C141 1.490 . S
C3163 C166 1.491 . S
C3168 C181 1.490 . S
C3193 C363 1.490 . S
C3198 C225 1.490 . S
C3223 C281 1.490 . S
C3228 C432 1.491 . S
C3253 C295 1.490 . S
C3258 C391 1.490 . S
C3283 C645 1.490 . S
C3288 C336 1.491 . S
C3313 C365 1.490 . S
C3318 C671 1.490 . S
C3343 C392 1.491 . S
C3348 C589 1.490 . S
C3373 C407 1.490 . S
C3378 C614 1.491 . S
C3403 C575 1.490 . S
C3408 C446 1.491 . S
C3433 C518 1.491 . S
C3438 C461 1.490 . S
C3463 C463 1.490 . S
C3468 C545 1.490 . S
C3493 C489 1.490 . S
C3498 C546 1.491 . S
C3523 C517 1.490 . S
C3528 C502 1.491 . S
