# Generated by pormake.
# Topology cag, (4)-cn, num edge types: 1
# Building blocks:
#     Node 0, Type 0, BuildingBlock: KUFVIS_clean_sbu_0, # of connection points: 4
#     Node 1, Type 0, BuildingBlock: KUFVIS_clean_sbu_0, # of connection points: 4
#     Node 2, Type 0, BuildingBlock: KUFVIS_clean_sbu_0, # of connection points: 4
#     Node 3, Type 0, BuildingBlock: KUFVIS_clean_sbu_0, # of connection points: 4
#     Node 4, Type 0, BuildingBlock: KUFVIS_clean_sbu_0, # of connection points: 4
#     Node 5, Type 0, BuildingBlock: KUFVIS_clean_sbu_0, # of connection points: 4
#     Node 6, Type 0, BuildingBlock: KUFVIS_clean_sbu_0, # of connection points: 4
#     Node 7, Type 0, BuildingBlock: KUFVIS_clean_sbu_0, # of connection points: 4
#     Node 8, Type 0, BuildingBlock: KUFVIS_clean_sbu_0, # of connection points: 4
#     Node 9, Type 0, BuildingBlock: KUFVIS_clean_sbu_0, # of connection points: 4
#     Node 10, Type 0, BuildingBlock: KUFVIS_clean_sbu_0, # of connection points: 4
#     Node 11, Type 0, BuildingBlock: KUFVIS_clean_sbu_0, # of connection points: 4
#     Node 12, Type 0, BuildingBlock: KUFVIS_clean_sbu_0, # of connection points: 4
#     Node 13, Type 0, BuildingBlock: KUFVIS_clean_sbu_0, # of connection points: 4
#     Node 14, Type 0, BuildingBlock: KUFVIS_clean_sbu_0, # of connection points: 4
#     Node 15, Type 0, BuildingBlock: KUFVIS_clean_sbu_0, # of connection points: 4
#     Edge 16, Type (0, 0), BuildingBlock: UVAHIK_clean_linker_0, # of connection points: 2
#     Edge 17, Type (0, 0), BuildingBlock: UVAHIK_clean_linker_0, # of connection points: 2
#     Edge 18, Type (0, 0), BuildingBlock: UVAHIK_clean_linker_0, # of connection points: 2
#     Edge 19, Type (0, 0), BuildingBlock: UVAHIK_clean_linker_0, # of connection points: 2
#     Edge 20, Type (0, 0), BuildingBlock: UVAHIK_clean_linker_0, # of connection points: 2
#     Edge 21, Type (0, 0), BuildingBlock: UVAHIK_clean_linker_0, # of connection points: 2
#     Edge 22, Type (0, 0), BuildingBlock: UVAHIK_clean_linker_0, # of connection points: 2
#     Edge 23, Type (0, 0), BuildingBlock: UVAHIK_clean_linker_0, # of connection points: 2
#     Edge 24, Type (0, 0), BuildingBlock: UVAHIK_clean_linker_0, # of connection points: 2
#     Edge 25, Type (0, 0), BuildingBlock: UVAHIK_clean_linker_0, # of connection points: 2
#     Edge 26, Type (0, 0), BuildingBlock: UVAHIK_clean_linker_0, # of connection points: 2
#     Edge 27, Type (0, 0), BuildingBlock: UVAHIK_clean_linker_0, # of connection points: 2
#     Edge 28, Type (0, 0), BuildingBlock: UVAHIK_clean_linker_0, # of connection points: 2
#     Edge 29, Type (0, 0), BuildingBlock: UVAHIK_clean_linker_0, # of connection points: 2
#     Edge 30, Type (0, 0), BuildingBlock: UVAHIK_clean_linker_0, # of connection points: 2
#     Edge 31, Type (0, 0), BuildingBlock: UVAHIK_clean_linker_0, # of connection points: 2
#     Edge 32, Type (0, 0), BuildingBlock: UVAHIK_clean_linker_0, # of connection points: 2
#     Edge 33, Type (0, 0), BuildingBlock: UVAHIK_clean_linker_0, # of connection points: 2
#     Edge 34, Type (0, 0), BuildingBlock: UVAHIK_clean_linker_0, # of connection points: 2
#     Edge 35, Type (0, 0), BuildingBlock: UVAHIK_clean_linker_0, # of connection points: 2
#     Edge 36, Type (0, 0), BuildingBlock: UVAHIK_clean_linker_0, # of connection points: 2
#     Edge 37, Type (0, 0), BuildingBlock: UVAHIK_clean_linker_0, # of connection points: 2
#     Edge 38, Type (0, 0), BuildingBlock: UVAHIK_clean_linker_0, # of connection points: 2
#     Edge 39, Type (0, 0), BuildingBlock: UVAHIK_clean_linker_0, # of connection points: 2
#     Edge 40, Type (0, 0), BuildingBlock: UVAHIK_clean_linker_0, # of connection points: 2
#     Edge 41, Type (0, 0), BuildingBlock: UVAHIK_clean_linker_0, # of connection points: 2
#     Edge 42, Type (0, 0), BuildingBlock: UVAHIK_clean_linker_0, # of connection points: 2
#     Edge 43, Type (0, 0), BuildingBlock: UVAHIK_clean_linker_0, # of connection points: 2
#     Edge 44, Type (0, 0), BuildingBlock: UVAHIK_clean_linker_0, # of connection points: 2
#     Edge 45, Type (0, 0), BuildingBlock: UVAHIK_clean_linker_0, # of connection points: 2
#     Edge 46, Type (0, 0), BuildingBlock: UVAHIK_clean_linker_0, # of connection points: 2
#     Edge 47, Type (0, 0), BuildingBlock: UVAHIK_clean_linker_0, # of connection points: 2
# Relax obj value: 0.082
# Max RMSD: 0.119
# Mean RMSD: 0.116
data_MOF--net-cag--node1-KUFVIS_clean_sbu_0--edge1-UVAHIK_clean_linker_0
_symmetry_space_group_name_H-M    P1
_symmetry_Int_Tables_number       1
_symmetry_cell_setting            triclinic
loop_
_symmetry_equiv_pos_as_xyz
'x, y, z'
_cell_length_a     53.875646
_cell_length_b     64.651535
_cell_length_c     53.644917
_cell_angle_alpha  90.015136
_cell_angle_beta   89.961072
_cell_angle_gamma 89.995644
loop_
_atom_site_label
_atom_site_type_symbol
_atom_site_fract_x
_atom_site_fract_y
_atom_site_fract_z
_atom_type_partial_charge
Mn0 Mn 0.34309 0.13321 0.09193 0.0
Mn1 Mn 0.36991 0.16753 0.13115 0.0
C2 C 0.38489 0.14132 0.08826 0.0
C3 C 0.33167 0.10019 0.07799 0.0
C4 C 0.33683 0.18055 0.08855 0.0
O5 O 0.31888 0.13331 0.12149 0.0
O6 O 0.33818 0.15719 0.14543 0.0
C7 C 0.3815 0.13885 0.1726 0.0
N8 N 0.38915 0.15294 0.15536 0.0
C9 C 0.43124 0.15115 0.17021 0.0
C10 C 0.42379 0.1367 0.18821 0.0
C11 C 0.39883 0.13048 0.18935 0.0
C12 C 0.41315 0.15896 0.15402 0.0
H13 H 0.36234 0.13405 0.17358 0.0
C14 C 0.32046 0.14441 0.14123 0.0
O15 O 0.3203 0.11675 0.0706 0.0
O16 O 0.34873 0.10262 0.09487 0.0
N17 N 0.40089 0.17851 0.11977 0.0
C18 C 0.40532 0.19161 0.10038 0.0
C19 C 0.42956 0.19877 0.0961 0.0
C20 C 0.44892 0.19257 0.11196 0.0
C21 C 0.44385 0.17923 0.13193 0.0
C22 C 0.41934 0.17258 0.13525 0.0
H23 H 0.39049 0.19648 0.08818 0.0
O24 O 0.37249 0.13478 0.06908 0.0
O25 O 0.37237 0.14349 0.1088 0.0
O26 O 0.33188 0.16221 0.08145 0.0
O27 O 0.35113 0.18443 0.10689 0.0
C28 C 0.46222 0.17206 0.14848 0.0
C29 C 0.45596 0.15794 0.16752 0.0
H30 H 0.4371 0.13018 0.20113 0.0
H31 H 0.39295 0.11927 0.20312 0.0
H32 H 0.43332 0.20903 0.08063 0.0
H33 H 0.46761 0.19804 0.10854 0.0
H34 H 0.48131 0.17706 0.14648 0.0
H35 H 0.47034 0.15224 0.17983 0.0
Mn36 Mn 0.15922 0.88029 0.59124 0.0
Mn37 Mn 0.13025 0.84602 0.62897 0.0
C38 C 0.11732 0.87284 0.58605 0.0
C39 C 0.17157 0.91343 0.57856 0.0
C40 C 0.16512 0.83305 0.58755 0.0
O41 O 0.18243 0.87935 0.62169 0.0
O42 O 0.16081 0.85662 0.64515 0.0
C43 C 0.11589 0.87428 0.66999 0.0
N44 N 0.10943 0.86032 0.65212 0.0
C45 C 0.06656 0.86152 0.66465 0.0
C46 C 0.07276 0.87585 0.68325 0.0
C47 C 0.09752 0.88231 0.68587 0.0
C48 C 0.08564 0.85409 0.64935 0.0
H49 H 0.1349 0.87924 0.67214 0.0
C50 C 0.17919 0.86892 0.64178 0.0
O51 O 0.18295 0.8969 0.57107 0.0
O52 O 0.15399 0.91086 0.59488 0.0
N53 N 0.10012 0.83498 0.61558 0.0
C54 C 0.09698 0.8221 0.59572 0.0
C55 C 0.07311 0.81482 0.58993 0.0
C56 C 0.0528 0.82066 0.60478 0.0
C57 C 0.05653 0.83379 0.62523 0.0
C58 C 0.08072 0.84061 0.63004 0.0
H59 H 0.11254 0.81749 0.5843 0.0
O60 O 0.13044 0.87955 0.56743 0.0
O61 O 0.12917 0.87018 0.60683 0.0
O62 O 0.17011 0.85133 0.58032 0.0
O63 O 0.1506 0.82927 0.60577 0.0
C64 C 0.03716 0.84058 0.64086 0.0
C65 C 0.04215 0.8545 0.6605 0.0
H66 H 0.05865 0.88208 0.69553 0.0
H67 H 0.10245 0.89341 0.70013 0.0
H68 H 0.07038 0.80471 0.57409 0.0
H69 H 0.0344 0.81507 0.60021 0.0
H70 H 0.01828 0.83548 0.63767 0.0
H71 H 0.02701 0.8599 0.6721 0.0
Mn72 Mn 0.34439 0.88184 0.91636 0.0
Mn73 Mn 0.37404 0.84747 0.87931 0.0
C74 C 0.38603 0.87397 0.92273 0.0
C75 C 0.33228 0.91504 0.92901 0.0
C76 C 0.33745 0.8347 0.91933 0.0
O77 O 0.32211 0.88127 0.88518 0.0
O78 O 0.34434 0.85865 0.86211 0.0
C79 C 0.39051 0.87574 0.83912 0.0
N80 N 0.39601 0.8616 0.85711 0.0
C81 C 0.43934 0.86226 0.84623 0.0
C82 C 0.43412 0.87674 0.82751 0.0
C83 C 0.40962 0.88357 0.82401 0.0
C84 C 0.41955 0.85503 0.86074 0.0
H85 H 0.3717 0.88101 0.83632 0.0
C86 C 0.32603 0.87111 0.86499 0.0
O87 O 0.32036 0.89861 0.93597 0.0
O88 O 0.35024 0.91236 0.91315 0.0
N89 N 0.40342 0.83599 0.89379 0.0
C90 C 0.40558 0.82306 0.91374 0.0
C91 C 0.42908 0.81551 0.92045 0.0
C92 C 0.45005 0.82114 0.90645 0.0
C93 C 0.44734 0.83434 0.8859 0.0
C94 C 0.42347 0.84144 0.88015 0.0
H95 H 0.38951 0.81863 0.92453 0.0
O96 O 0.37247 0.88067 0.94102 0.0
O97 O 0.37471 0.8715 0.90163 0.0
O98 O 0.33265 0.853 0.92664 0.0
O99 O 0.3525 0.83085 0.90157 0.0
C100 C 0.46743 0.84094 0.87109 0.0
C101 C 0.46344 0.85492 0.85129 0.0
H102 H 0.44881 0.88284 0.81583 0.0
H103 H 0.40546 0.89482 0.80967 0.0
H104 H 0.43102 0.80535 0.93636 0.0
H105 H 0.46816 0.81533 0.91172 0.0
H106 H 0.4861 0.83565 0.87503 0.0
H107 H 0.4791 0.86016 0.84031 0.0
Mn108 Mn 0.16136 0.13338 0.41938 0.0
Mn109 Mn 0.13361 0.16754 0.38062 0.0
C110 C 0.11943 0.14102 0.42347 0.0
C111 C 0.17321 0.10032 0.43283 0.0
C112 C 0.16686 0.18076 0.42306 0.0
O113 O 0.18536 0.1339 0.3896 0.0
O114 O 0.16527 0.15752 0.36597 0.0
C115 C 0.12193 0.1389 0.33915 0.0
N116 N 0.11429 0.15287 0.35654 0.0
C117 C 0.07209 0.15087 0.34204 0.0
C118 C 0.07953 0.13653 0.3239 0.0
C119 C 0.10454 0.13047 0.32251 0.0
C120 C 0.09025 0.15872 0.35813 0.0
H121 H 0.14113 0.13423 0.33796 0.0
C122 C 0.18331 0.145 0.36991 0.0
O123 O 0.18446 0.11688 0.44039 0.0
O124 O 0.15606 0.10279 0.41606 0.0
N125 N 0.10262 0.17822 0.39239 0.0
C126 C 0.09825 0.19124 0.41189 0.0
C127 C 0.07398 0.19823 0.41642 0.0
C128 C 0.05454 0.19196 0.40069 0.0
C129 C 0.05956 0.17873 0.3806 0.0
C130 C 0.08409 0.17223 0.37704 0.0
H131 H 0.11313 0.19616 0.42398 0.0
O132 O 0.13208 0.13448 0.44248 0.0
O133 O 0.13176 0.14343 0.40287 0.0
O134 O 0.17216 0.16247 0.43013 0.0
O135 O 0.15243 0.18448 0.40477 0.0
C136 C 0.04112 0.17152 0.36415 0.0
C137 C 0.04735 0.1575 0.34498 0.0
H138 H 0.06617 0.12997 0.31104 0.0
H139 H 0.1104 0.11935 0.30861 0.0
H140 H 0.07026 0.20842 0.43198 0.0
H141 H 0.03582 0.19731 0.4043 0.0
H142 H 0.02201 0.1764 0.36633 0.0
H143 H 0.03291 0.15177 0.33275 0.0
Mn144 Mn 0.69468 0.87867 0.92892 0.0
Mn145 Mn 0.66341 0.8346 0.91594 0.0
C146 C 0.65269 0.87962 0.9196 0.0
C147 C 0.70874 0.90506 0.95516 0.0
C148 C 0.69858 0.85497 0.87942 0.0
O149 O 0.71737 0.85633 0.94387 0.0
O150 O 0.69418 0.82821 0.93472 0.0
C151 C 0.64949 0.82247 0.96731 0.0
N152 N 0.64275 0.82727 0.94355 0.0
C153 C 0.59958 0.82156 0.95292 0.0
C154 C 0.60609 0.81646 0.97746 0.0
C155 C 0.63114 0.81695 0.98469 0.0
C156 C 0.61869 0.82684 0.93639 0.0
H157 H 0.66872 0.82286 0.97296 0.0
C158 C 0.71338 0.83678 0.94439 0.0
O159 O 0.71952 0.90098 0.93411 0.0
O160 O 0.69082 0.89282 0.96188 0.0
N161 N 0.63305 0.8388 0.8981 0.0
C162 C 0.62976 0.84541 0.87421 0.0
C163 C 0.60566 0.84647 0.86431 0.0
C164 C 0.58525 0.84061 0.879 0.0
C165 C 0.58911 0.83372 0.90347 0.0
C166 C 0.61356 0.83286 0.91228 0.0
H167 H 0.64538 0.84995 0.86285 0.0
O168 O 0.66647 0.89579 0.9159 0.0
O169 O 0.66394 0.8633 0.92799 0.0
O170 O 0.70428 0.87009 0.8935 0.0
O171 O 0.68362 0.84067 0.88599 0.0
C172 C 0.56963 0.82809 0.91964 0.0
C173 C 0.57486 0.82204 0.94435 0.0
H174 H 0.59199 0.81231 0.99096 0.0
H175 H 0.63629 0.81312 1.00363 0.0
H176 H 0.60282 0.85186 0.84543 0.0
H177 H 0.56667 0.84163 0.87137 0.0
H178 H 0.55053 0.82871 0.91339 0.0
H179 H 0.5597 0.81806 0.95672 0.0
Mn180 Mn 0.81048 0.13651 0.42875 0.0
Mn181 Mn 0.84069 0.18129 0.41673 0.0
C182 C 0.85245 0.13634 0.41922 0.0
C183 C 0.79679 0.10961 0.45441 0.0
C184 C 0.80597 0.16091 0.37982 0.0
O185 O 0.78733 0.15826 0.44422 0.0
O186 O 0.80978 0.18693 0.43575 0.0
C187 C 0.85443 0.19277 0.46835 0.0
N188 N 0.86124 0.18847 0.44445 0.0
C189 C 0.90429 0.19459 0.45386 0.0
C190 C 0.89772 0.19919 0.47855 0.0
C191 C 0.87269 0.19823 0.48582 0.0
C192 C 0.88527 0.18935 0.43724 0.0
H193 H 0.83522 0.19201 0.47403 0.0
C194 C 0.79082 0.17786 0.44523 0.0
O195 O 0.78603 0.11386 0.43343 0.0
O196 O 0.81457 0.1219 0.46139 0.0
N197 N 0.8711 0.17786 0.39869 0.0
C198 C 0.87449 0.17171 0.37463 0.0
C199 C 0.89859 0.17114 0.36465 0.0
C200 C 0.91891 0.17701 0.37944 0.0
C201 C 0.91494 0.18343 0.40409 0.0
C202 C 0.89049 0.18381 0.41297 0.0
H203 H 0.85894 0.16716 0.36318 0.0
O204 O 0.83901 0.12002 0.41527 0.0
O205 O 0.84089 0.15237 0.42807 0.0
O206 O 0.80069 0.14549 0.39358 0.0
O207 O 0.82055 0.17538 0.38666 0.0
C208 C 0.93433 0.18902 0.42036 0.0
C209 C 0.92901 0.19458 0.44523 0.0
H210 H 0.91176 0.20329 0.49212 0.0
H211 H 0.86749 0.20166 0.50487 0.0
H212 H 0.90151 0.16612 0.34563 0.0
H213 H 0.93749 0.17635 0.37176 0.0
H214 H 0.95344 0.18876 0.41405 0.0
H215 H 0.94411 0.19854 0.45767 0.0
Mn216 Mn 0.69395 0.13642 0.08435 0.0
Mn217 Mn 0.66395 0.18139 0.09592 0.0
C218 C 0.6519 0.13648 0.09358 0.0
C219 C 0.70762 0.10937 0.05885 0.0
C220 C 0.69824 0.16098 0.1332 0.0
O221 O 0.71738 0.15801 0.06899 0.0
O222 O 0.69502 0.18681 0.0771 0.0
C223 C 0.65065 0.19269 0.04413 0.0
N224 N 0.64364 0.18855 0.06801 0.0
C225 C 0.6007 0.19486 0.05826 0.0
C226 C 0.60748 0.19931 0.0336 0.0
C227 C 0.63255 0.19817 0.0265 0.0
C228 C 0.61957 0.18959 0.07504 0.0
H229 H 0.66989 0.1918 0.03859 0.0
C230 C 0.71402 0.17762 0.06785 0.0
O231 O 0.71826 0.1136 0.07991 0.0
O232 O 0.68999 0.12175 0.05172 0.0
N233 N 0.63339 0.17819 0.11376 0.0
C234 C 0.62979 0.17219 0.13784 0.0
C235 C 0.60562 0.17182 0.14766 0.0
C236 C 0.58545 0.17773 0.1327 0.0
C237 C 0.58963 0.184 0.10803 0.0
C238 C 0.61415 0.1842 0.09931 0.0
H239 H 0.64522 0.1676 0.14942 0.0
O240 O 0.6652 0.1201 0.09767 0.0
O241 O 0.66364 0.15242 0.08474 0.0
O242 O 0.70352 0.14546 0.11959 0.0
O243 O 0.68382 0.17549 0.12614 0.0
C244 C 0.5704 0.18963 0.0916 0.0
C245 C 0.57592 0.19504 0.06672 0.0
H246 H 0.59356 0.20342 0.0199 0.0
H247 H 0.6379 0.20149 0.00747 0.0
H248 H 0.60254 0.16691 0.1667 0.0
H249 H 0.56681 0.17723 0.14026 0.0
H250 H 0.55125 0.18952 0.09778 0.0
H251 H 0.56094 0.19903 0.05416 0.0
Mn252 Mn 0.80846 0.87818 0.58264 0.0
Mn253 Mn 0.83889 0.83352 0.59472 0.0
C254 C 0.85053 0.87845 0.59157 0.0
C255 C 0.79461 0.90493 0.55686 0.0
C256 C 0.80462 0.85416 0.6319 0.0
O257 O 0.78514 0.8563 0.56772 0.0
O258 O 0.80774 0.82771 0.57624 0.0
C259 C 0.85196 0.82164 0.54304 0.0
N260 N 0.85907 0.82613 0.56678 0.0
C261 C 0.90201 0.81994 0.55681 0.0
C262 C 0.89511 0.81515 0.53228 0.0
C263 C 0.86999 0.81605 0.52536 0.0
C264 C 0.8832 0.82531 0.57364 0.0
H265 H 0.83267 0.82235 0.53762 0.0
C266 C 0.78864 0.8367 0.56692 0.0
O267 O 0.78401 0.90085 0.578 0.0
O268 O 0.81223 0.89251 0.5498 0.0
N269 N 0.86953 0.83711 0.61226 0.0
C270 C 0.87324 0.84346 0.6362 0.0
C271 C 0.89747 0.84412 0.64581 0.0
C272 C 0.91759 0.83813 0.63079 0.0
C273 C 0.9133 0.83151 0.60629 0.0
C274 C 0.88873 0.83104 0.59777 0.0
H275 H 0.85784 0.84811 0.64781 0.0
O276 O 0.83712 0.89478 0.59556 0.0
O277 O 0.83889 0.86235 0.58306 0.0
O278 O 0.7991 0.86947 0.61806 0.0
O279 O 0.81916 0.83967 0.62499 0.0
C280 C 0.93248 0.82579 0.5898 0.0
C281 C 0.92684 0.82002 0.56507 0.0
H282 H 0.90897 0.81094 0.51854 0.0
H283 H 0.86454 0.81246 0.50643 0.0
H284 H 0.90063 0.8493 0.66473 0.0
H285 H 0.93627 0.83886 0.6382 0.0
H286 H 0.95167 0.8261 0.59582 0.0
H287 H 0.94178 0.81597 0.55246 0.0
Mn288 Mn 0.84285 0.63205 0.09227 0.0
Mn289 Mn 0.87061 0.66662 0.13051 0.0
C290 C 0.88465 0.63993 0.08778 0.0
C291 C 0.83115 0.59891 0.07899 0.0
C292 C 0.83682 0.67938 0.08836 0.0
O293 O 0.81914 0.63253 0.12228 0.0
O294 O 0.83909 0.65655 0.14548 0.0
C295 C 0.88277 0.63829 0.17215 0.0
N296 N 0.8902 0.65217 0.15456 0.0
C297 C 0.93254 0.65033 0.16867 0.0
C298 C 0.92532 0.6361 0.187 0.0
C299 C 0.90034 0.63 0.18869 0.0
C300 C 0.91421 0.65806 0.15269 0.0
H301 H 0.86359 0.63359 0.17355 0.0
C302 C 0.82118 0.64384 0.1418 0.0
O303 O 0.81967 0.61541 0.07155 0.0
O304 O 0.84845 0.6015 0.09558 0.0
N305 N 0.90145 0.67734 0.1184 0.0
C306 C 0.9056 0.69024 0.09875 0.0
C307 C 0.92981 0.69724 0.09393 0.0
C308 C 0.94941 0.6911 0.10951 0.0
C309 C 0.94463 0.67798 0.12976 0.0
C310 C 0.92014 0.67147 0.13362 0.0
H311 H 0.89058 0.69506 0.08676 0.0
O312 O 0.87189 0.63328 0.0689 0.0
O313 O 0.87248 0.64236 0.10847 0.0
O314 O 0.8316 0.661 0.08158 0.0
O315 O 0.8515 0.68335 0.10636 0.0
C316 C 0.96325 0.67089 0.14607 0.0
C317 C 0.95724 0.65698 0.16542 0.0
H318 H 0.93882 0.62964 0.19978 0.0
H319 H 0.89465 0.61896 0.20273 0.0
H320 H 0.93335 0.70735 0.07825 0.0
H321 H 0.96808 0.69645 0.10567 0.0
H322 H 0.98233 0.67577 0.14364 0.0
H323 H 0.97181 0.65134 0.17755 0.0
Mn324 Mn 0.66074 0.38033 0.59399 0.0
Mn325 Mn 0.63063 0.34619 0.63096 0.0
C326 C 0.61892 0.37305 0.58774 0.0
C327 C 0.67358 0.4134 0.58166 0.0
C328 C 0.66663 0.33312 0.59053 0.0
O329 O 0.68318 0.37925 0.62502 0.0
O330 O 0.66059 0.35692 0.64811 0.0
C331 C 0.61485 0.37452 0.67141 0.0
N332 N 0.60902 0.3605 0.65338 0.0
C333 C 0.56577 0.3616 0.66453 0.0
C334 C 0.57133 0.37596 0.6833 0.0
C335 C 0.59597 0.38251 0.68668 0.0
C336 C 0.58535 0.35421 0.64985 0.0
H337 H 0.63376 0.37956 0.67413 0.0
C338 C 0.67914 0.36912 0.64519 0.0
O339 O 0.68506 0.39683 0.57445 0.0
O340 O 0.6556 0.4109 0.59754 0.0
N341 N 0.60097 0.33511 0.61658 0.0
C342 C 0.59849 0.32226 0.5966 0.0
C343 C 0.57484 0.31497 0.59002 0.0
C344 C 0.55404 0.32076 0.6042 0.0
C345 C 0.55709 0.33388 0.62479 0.0
C346 C 0.5811 0.34073 0.6304 0.0
H347 H 0.61442 0.31769 0.58568 0.0
O348 O 0.63253 0.37973 0.56946 0.0
O349 O 0.63026 0.37032 0.60879 0.0
O350 O 0.67173 0.35137 0.58331 0.0
O351 O 0.65174 0.3294 0.60848 0.0
C352 C 0.53721 0.34063 0.63978 0.0
C353 C 0.54153 0.35452 0.6596 0.0
H354 H 0.55681 0.38218 0.69511 0.0
H355 H 0.60039 0.39366 0.70106 0.0
H356 H 0.57264 0.30487 0.57408 0.0
H357 H 0.53581 0.31516 0.59903 0.0
H358 H 0.51844 0.33552 0.63596 0.0
H359 H 0.52602 0.35989 0.67071 0.0
Mn360 Mn 0.84527 0.37964 0.91934 0.0
Mn361 Mn 0.87454 0.34534 0.88187 0.0
C362 C 0.88722 0.37242 0.92461 0.0
C363 C 0.83272 0.41274 0.93194 0.0
C364 C 0.83963 0.33239 0.92325 0.0
O365 O 0.82215 0.37851 0.88883 0.0
O366 O 0.84394 0.35571 0.86559 0.0
C367 C 0.88875 0.37347 0.84068 0.0
N368 N 0.8953 0.35965 0.85868 0.0
C369 C 0.9382 0.36109 0.84628 0.0
C370 C 0.9319 0.37527 0.82755 0.0
C371 C 0.90708 0.38154 0.8248 0.0
C372 C 0.91914 0.3536 0.86157 0.0
H373 H 0.86969 0.37828 0.83843 0.0
C374 C 0.82549 0.36797 0.86882 0.0
O375 O 0.82141 0.39618 0.93942 0.0
O376 O 0.85033 0.41022 0.91564 0.0
N377 N 0.90474 0.33455 0.89541 0.0
C378 C 0.90796 0.32181 0.91538 0.0
C379 C 0.93188 0.31474 0.9213 0.0
C380 C 0.95219 0.32067 0.9065 0.0
C381 C 0.94838 0.33366 0.88594 0.0
C382 C 0.92414 0.34026 0.88098 0.0
H383 H 0.8924 0.31715 0.92677 0.0
O384 O 0.87402 0.37909 0.9432 0.0
O385 O 0.87539 0.36962 0.90384 0.0
O386 O 0.83449 0.35069 0.93033 0.0
O387 O 0.85428 0.32859 0.90514 0.0
C388 C 0.96774 0.34053 0.87035 0.0
C389 C 0.96267 0.35428 0.85058 0.0
H390 H 0.94599 0.38155 0.81528 0.0
H391 H 0.90209 0.39253 0.81044 0.0
H392 H 0.93467 0.30474 0.93723 0.0
H393 H 0.97063 0.31524 0.91118 0.0
H394 H 0.98668 0.3356 0.87366 0.0
H395 H 0.97779 0.35974 0.83899 0.0
Mn396 Mn 0.66256 0.63158 0.42053 0.0
Mn397 Mn 0.63354 0.66513 0.38189 0.0
C398 C 0.62064 0.63857 0.42525 0.0
C399 C 0.67531 0.59877 0.43393 0.0
C400 C 0.66706 0.67905 0.42382 0.0
O401 O 0.68612 0.63241 0.39047 0.0
O402 O 0.66523 0.65552 0.3668 0.0
C403 C 0.62183 0.63598 0.34095 0.0
N404 N 0.61414 0.64996 0.35831 0.0
C405 C 0.57163 0.64655 0.34515 0.0
C406 C 0.57912 0.6322 0.32704 0.0
C407 C 0.60432 0.62686 0.32498 0.0
C408 C 0.58993 0.65519 0.36047 0.0
H409 H 0.64116 0.63179 0.33933 0.0
C410 C 0.68359 0.6433 0.37068 0.0
O411 O 0.68633 0.61552 0.44127 0.0
O412 O 0.6579 0.60094 0.41737 0.0
N413 N 0.60248 0.67541 0.39406 0.0
C414 C 0.59813 0.68861 0.41339 0.0
C415 C 0.57374 0.69503 0.41845 0.0
C416 C 0.55411 0.68795 0.40349 0.0
C417 C 0.55906 0.67454 0.38356 0.0
C418 C 0.58377 0.66878 0.37931 0.0
H419 H 0.61314 0.69409 0.42497 0.0
O420 O 0.6337 0.63228 0.44409 0.0
O421 O 0.63255 0.64112 0.40441 0.0
O422 O 0.6728 0.66087 0.43095 0.0
O423 O 0.65237 0.68251 0.40565 0.0
C424 C 0.5404 0.66631 0.36808 0.0
C425 C 0.54667 0.6523 0.34891 0.0
H426 H 0.56567 0.62504 0.31477 0.0
H427 H 0.61023 0.61573 0.31112 0.0
H428 H 0.57006 0.70536 0.4339 0.0
H429 H 0.53529 0.69277 0.40761 0.0
H430 H 0.52111 0.67039 0.37102 0.0
H431 H 0.53212 0.64585 0.33737 0.0
Mn432 Mn 0.19581 0.37909 0.92687 0.0
Mn433 Mn 0.16488 0.33478 0.91427 0.0
C434 C 0.15377 0.37974 0.9177 0.0
C435 C 0.20976 0.4057 0.95285 0.0
C436 C 0.1997 0.35523 0.87748 0.0
O437 O 0.21872 0.35695 0.94193 0.0
O438 O 0.19578 0.32865 0.93297 0.0
C439 C 0.15126 0.32277 0.96576 0.0
N440 N 0.14438 0.32744 0.942 0.0
C441 C 0.1013 0.32157 0.95159 0.0
C442 C 0.10795 0.31659 0.97613 0.0
C443 C 0.13303 0.31723 0.98325 0.0
C444 C 0.1203 0.32687 0.93495 0.0
H445 H 0.17051 0.32327 0.97133 0.0
C446 C 0.2149 0.33738 0.94257 0.0
O447 O 0.22048 0.40156 0.9318 0.0
O448 O 0.19195 0.39339 0.95974 0.0
N449 N 0.13442 0.33873 0.89652 0.0
C450 C 0.13097 0.34522 0.87261 0.0
C451 C 0.10683 0.34613 0.86281 0.0
C452 C 0.08652 0.34023 0.87762 0.0
C453 C 0.09054 0.33347 0.90212 0.0
C454 C 0.11503 0.33277 0.91082 0.0
H455 H 0.14651 0.34979 0.86115 0.0
O456 O 0.16739 0.39597 0.91384 0.0
O457 O 0.1652 0.36353 0.92615 0.0
O458 O 0.20535 0.37042 0.89147 0.0
O459 O 0.18491 0.34086 0.88419 0.0
C460 C 0.07116 0.32782 0.91841 0.0
C461 C 0.07654 0.32189 0.94313 0.0
H462 H 0.09393 0.31243 0.98972 0.0
H463 H 0.13829 0.3135 1.00219 0.0
H464 H 0.10387 0.35142 0.84391 0.0
H465 H 0.0679 0.34113 0.87007 0.0
H466 H 0.05203 0.32832 0.91223 0.0
H467 H 0.06146 0.3179 0.95559 0.0
Mn468 Mn 0.31165 0.63856 0.42495 0.0
Mn469 Mn 0.33945 0.68443 0.41318 0.0
C470 C 0.35368 0.64002 0.41556 0.0
C471 C 0.29911 0.61108 0.45038 0.0
C472 C 0.30601 0.66289 0.37608 0.0
O473 O 0.2873 0.65939 0.44047 0.0
O474 O 0.3082 0.68887 0.43202 0.0
C475 C 0.35228 0.69642 0.46487 0.0
N476 N 0.35942 0.6924 0.441 0.0
C477 C 0.40191 0.70081 0.45039 0.0
C478 C 0.39499 0.70514 0.47505 0.0
C479 C 0.37008 0.70287 0.48233 0.0
C480 C 0.38335 0.69445 0.43382 0.0
H481 H 0.33314 0.69474 0.47052 0.0
C482 C 0.28972 0.6791 0.44145 0.0
O483 O 0.28833 0.61506 0.42934 0.0
O484 O 0.31629 0.62389 0.45753 0.0
N485 N 0.37008 0.68218 0.39529 0.0
C486 C 0.37394 0.67608 0.37129 0.0
C487 C 0.39805 0.67666 0.36135 0.0
C488 C 0.41786 0.6837 0.37609 0.0
C489 C 0.41339 0.69006 0.40067 0.0
C490 C 0.38898 0.68911 0.40958 0.0
H491 H 0.35876 0.6707 0.35986 0.0
O492 O 0.34112 0.62323 0.41148 0.0
O493 O 0.34122 0.65554 0.42448 0.0
O494 O 0.30148 0.64728 0.38977 0.0
O495 O 0.31984 0.67783 0.38301 0.0
C496 C 0.43224 0.69701 0.41681 0.0
C497 C 0.42653 0.70229 0.44168 0.0
H498 H 0.40867 0.71007 0.48859 0.0
H499 H 0.36462 0.7061 0.50135 0.0
H500 H 0.40136 0.67169 0.34237 0.0
H501 H 0.43646 0.68403 0.3684 0.0
H502 H 0.45127 0.69801 0.4104 0.0
H503 H 0.44127 0.70724 0.45404 0.0
Mn504 Mn 0.19344 0.63718 0.08074 0.0
Mn505 Mn 0.16213 0.68137 0.09313 0.0
C506 C 0.15153 0.63626 0.09062 0.0
C507 C 0.20748 0.61049 0.05491 0.0
C508 C 0.1977 0.66159 0.1297 0.0
O509 O 0.2159 0.65937 0.06507 0.0
O510 O 0.19266 0.68755 0.07381 0.0
C511 C 0.14759 0.69264 0.04167 0.0
N512 N 0.14113 0.6882 0.06563 0.0
C513 C 0.09784 0.69363 0.05666 0.0
C514 C 0.10405 0.69836 0.03193 0.0
C515 C 0.12903 0.69782 0.0244 0.0
C516 C 0.11715 0.68867 0.07307 0.0
H517 H 0.16676 0.69222 0.03579 0.0
C518 C 0.2118 0.67889 0.0641 0.0
O519 O 0.21837 0.61492 0.07578 0.0
O520 O 0.18939 0.62253 0.04812 0.0
N521 N 0.13199 0.67738 0.11145 0.0
C522 C 0.12899 0.67118 0.13554 0.0
C523 C 0.10501 0.67023 0.14577 0.0
C524 C 0.08441 0.67578 0.1312 0.0
C525 C 0.08797 0.68226 0.10652 0.0
C526 C 0.11232 0.68303 0.09738 0.0
H527 H 0.14475 0.66687 0.14682 0.0
O528 O 0.16543 0.62017 0.09444 0.0
O529 O 0.16263 0.65248 0.08172 0.0
O530 O 0.20331 0.64629 0.11587 0.0
O531 O 0.18268 0.67579 0.12298 0.0
C532 C 0.06829 0.68756 0.09046 0.0
C533 C 0.07322 0.69322 0.06555 0.0
H534 H 0.08979 0.70225 0.01851 0.0
H535 H 0.13396 0.70137 0.00531 0.0
H536 H 0.1024 0.66516 0.16482 0.0
H537 H 0.06592 0.67485 0.13909 0.0
H538 H 0.04926 0.68701 0.09697 0.0
H539 H 0.0579 0.69696 0.05328 0.0
Mn540 Mn 0.3102 0.37985 0.58063 0.0
Mn541 Mn 0.34041 0.33518 0.59318 0.0
C542 C 0.3522 0.38006 0.58988 0.0
C543 C 0.29674 0.4066 0.55459 0.0
C544 C 0.3059 0.35599 0.62998 0.0
O545 O 0.28691 0.35797 0.56565 0.0
O546 O 0.30936 0.32937 0.57454 0.0
C547 C 0.35377 0.32307 0.54165 0.0
N548 N 0.36075 0.32763 0.56541 0.0
C549 C 0.40372 0.32128 0.55576 0.0
C550 C 0.39696 0.31641 0.53121 0.0
C551 C 0.37189 0.31735 0.52412 0.0
C552 C 0.38483 0.32677 0.57244 0.0
H553 H 0.33452 0.32381 0.53611 0.0
C554 C 0.29034 0.33834 0.56504 0.0
O555 O 0.28591 0.40262 0.57563 0.0
O556 O 0.31432 0.39405 0.54774 0.0
N557 N 0.37095 0.33876 0.6109 0.0
C558 C 0.37453 0.34519 0.63482 0.0
C559 C 0.3987 0.34582 0.64459 0.0
C560 C 0.4189 0.33971 0.62974 0.0
C561 C 0.41474 0.333 0.60524 0.0
C562 C 0.39023 0.33258 0.59657 0.0
H563 H 0.35908 0.34993 0.6463 0.0
O564 O 0.3388 0.39644 0.59369 0.0
O565 O 0.34057 0.36396 0.58137 0.0
O566 O 0.30049 0.37127 0.61603 0.0
O567 O 0.3205 0.34149 0.62327 0.0
C568 C 0.434 0.32716 0.58892 0.0
C569 C 0.4285 0.32131 0.56419 0.0
H570 H 0.4109 0.3121 0.51759 0.0
H571 H 0.36655 0.3137 0.50518 0.0
H572 H 0.40176 0.35107 0.6635 0.0
H573 H 0.43753 0.3404 0.63727 0.0
H574 H 0.45315 0.32744 0.59506 0.0
H575 H 0.4435 0.31716 0.5517 0.0
C576 C 0.33094 0.2188 0.08092 0.0
C577 C 0.32567 0.19812 0.07452 0.0
C578 C 0.3204 0.23522 0.0675 0.0
C579 C 0.2677 0.24695 0.02538 0.0
H580 H 0.30593 0.29541 0.00679 0.0
C581 C 0.23189 0.3022 0.95106 0.0
C582 C 0.23233 0.32355 0.95612 0.0
C583 C 0.24502 0.28831 0.96589 0.0
C584 C 0.29497 0.28207 0.01208 0.0
H585 H 0.30533 0.17869 0.04859 0.0
H586 H 0.28732 0.20711 0.02525 0.0
H587 H 0.32509 0.26834 0.03241 0.0
H588 H 0.2482 0.34711 0.98005 0.0
H589 H 0.27143 0.32258 0.00618 0.0
H590 H 0.23774 0.26039 1.00494 0.0
C591 C 0.29925 0.2107 0.0409 0.0
C592 C 0.30591 0.26657 0.02677 0.0
C593 C 0.30974 0.19434 0.05426 0.0
C594 C 0.2475 0.33077 0.97563 0.0
C595 C 0.26074 0.31673 0.99061 0.0
C596 C 0.25687 0.26232 0.01072 0.0
C597 C 0.30429 0.23136 0.0474 0.0
C598 C 0.2925 0.24863 0.03322 0.0
C599 C 0.25899 0.29528 0.98631 0.0
C600 C 0.27046 0.27989 1.00347 0.0
H601 H 0.34318 0.22234 0.09635 0.0
H602 H 0.32457 0.25092 0.07313 0.0
H603 H 0.25658 0.23366 0.03052 0.0
H604 H 0.22077 0.29606 0.93596 0.0
H605 H 0.2438 0.27196 0.96164 0.0
C606 C 0.25659 0.68393 0.47441 0.0
C607 C 0.27104 0.6919 0.4548 0.0
C608 C 0.24149 0.69712 0.48873 0.0
C609 C 0.21302 0.74973 0.48851 0.0
H610 H 0.21763 0.74611 0.5605 0.0
C611 C 0.18971 0.81887 0.55155 0.0
C612 C 0.17589 0.81535 0.5734 0.0
C613 C 0.19886 0.80233 0.53748 0.0
C614 C 0.21587 0.74717 0.54043 0.0
H615 H 0.28003 0.71981 0.43419 0.0
H616 H 0.25402 0.74249 0.45882 0.0
H617 H 0.23666 0.71927 0.53459 0.0
H618 H 0.16126 0.79141 0.59769 0.0
H619 H 0.17746 0.76253 0.57314 0.0
H620 H 0.19288 0.77786 0.49423 0.0
C621 C 0.25413 0.72615 0.46327 0.0
C622 C 0.22671 0.73175 0.52557 0.0
C623 C 0.26925 0.7131 0.44921 0.0
C624 C 0.17184 0.79476 0.581 0.0
C625 C 0.18117 0.77818 0.56697 0.0
C626 C 0.20232 0.76513 0.5033 0.0
C627 C 0.24032 0.71846 0.48346 0.0
C628 C 0.22592 0.73311 0.4994 0.0
C629 C 0.19457 0.78178 0.54489 0.0
C630 C 0.20409 0.76432 0.52942 0.0
H631 H 0.25765 0.66769 0.47928 0.0
H632 H 0.23094 0.69068 0.50406 0.0
H633 H 0.21159 0.75106 0.46843 0.0
H634 H 0.19329 0.83445 0.54506 0.0
H635 H 0.20946 0.80568 0.5208 0.0
C636 C 0.33129 0.79645 0.92677 0.0
C637 C 0.32537 0.81712 0.93258 0.0
C638 C 0.32017 0.78004 0.93974 0.0
C639 C 0.26532 0.76802 0.97901 0.0
H640 H 0.30371 0.72077 1.00137 0.0
C641 C 0.22751 0.71422 0.05397 0.0
C642 C 0.22893 0.69272 0.05012 0.0
C643 C 0.24073 0.72791 0.03892 0.0
C644 C 0.2927 0.73375 0.99499 0.0
H645 H 0.30309 0.83656 0.95686 0.0
H646 H 0.284 0.80817 0.97939 0.0
H647 H 0.32356 0.74758 0.97589 0.0
H648 H 0.24656 0.66877 0.02804 0.0
H649 H 0.26995 0.69294 1.00154 0.0
H650 H 0.23462 0.7545 0.99827 0.0
C651 C 0.29696 0.80456 0.96457 0.0
C652 C 0.30404 0.74911 0.98038 0.0
C653 C 0.30806 0.82091 0.95169 0.0
C654 C 0.24505 0.68523 0.03153 0.0
C655 C 0.25841 0.69906 0.01634 0.0
C656 C 0.25408 0.75279 0.99358 0.0
C657 C 0.30277 0.7839 0.95876 0.0
C658 C 0.29058 0.76665 0.97262 0.0
C659 C 0.2558 0.72059 0.01948 0.0
C660 C 0.26771 0.73568 1.0022 0.0
H661 H 0.3446 0.7929 0.91224 0.0
H662 H 0.32495 0.76432 0.93465 0.0
H663 H 0.25419 0.78099 0.97284 0.0
H664 H 0.21564 0.72063 0.06834 0.0
H665 H 0.2388 0.74435 0.0423 0.0
C666 C 0.27191 0.30345 0.55775 0.0
C667 C 0.27219 0.32471 0.55217 0.0
C668 C 0.25703 0.2898 0.5443 0.0
C669 C 0.22724 0.28311 0.48331 0.0
H670 H 0.19679 0.23606 0.51613 0.0
C671 C 0.17259 0.21908 0.42992 0.0
C672 C 0.17735 0.19854 0.43725 0.0
C673 C 0.18191 0.23576 0.44376 0.0
C674 C 0.20531 0.24903 0.50664 0.0
H675 H 0.2564 0.34834 0.52833 0.0
H676 H 0.23013 0.32429 0.50462 0.0
H677 H 0.21559 0.26336 0.54106 0.0
H678 H 0.19595 0.17961 0.46495 0.0
H679 H 0.21219 0.20856 0.48887 0.0
H680 H 0.21721 0.26852 0.44883 0.0
C681 C 0.24168 0.31828 0.51946 0.0
C682 C 0.21605 0.26472 0.52094 0.0
C683 C 0.25654 0.33207 0.53317 0.0
C684 C 0.19181 0.19515 0.4587 0.0
C685 C 0.201 0.2118 0.47256 0.0
C686 C 0.21641 0.26738 0.46896 0.0
C687 C 0.24195 0.29692 0.52475 0.0
C688 C 0.22767 0.28174 0.50948 0.0
C689 C 0.19607 0.23231 0.46537 0.0
C690 C 0.2058 0.24992 0.48046 0.0
H691 H 0.28363 0.29718 0.57231 0.0
H692 H 0.25804 0.27347 0.54871 0.0
H693 H 0.23622 0.29588 0.47386 0.0
H694 H 0.1615 0.22234 0.41355 0.0
H695 H 0.17764 0.25135 0.43777 0.0
C696 C 0.83096 0.7176 0.08061 0.0
C697 C 0.82552 0.69692 0.07439 0.0
C698 C 0.82027 0.734 0.0673 0.0
C699 C 0.76692 0.74579 0.02606 0.0
H700 H 0.80498 0.79421 0.00696 0.0
C701 C 0.72998 0.80144 0.95269 0.0
C702 C 0.73075 0.82278 0.95776 0.0
C703 C 0.74324 0.78744 0.96725 0.0
C704 C 0.79407 0.78088 0.0124 0.0
H705 H 0.80471 0.67745 0.04888 0.0
H706 H 0.78641 0.70586 0.02571 0.0
H707 H 0.82449 0.76705 0.03212 0.0
H708 H 0.74729 0.84619 0.98143 0.0
H709 H 0.77072 0.82147 0.0071 0.0
H710 H 0.73664 0.75936 0.00625 0.0
C711 C 0.7986 0.70946 0.04115 0.0
C712 C 0.80521 0.76533 0.02683 0.0
C713 C 0.80925 0.69311 0.0544 0.0
C714 C 0.74631 0.82987 0.97701 0.0
C715 C 0.75968 0.81571 0.99172 0.0
C716 C 0.75587 0.76123 0.01167 0.0
C717 C 0.80383 0.73013 0.04748 0.0
C718 C 0.79186 0.74741 0.03348 0.0
C719 C 0.75767 0.79428 0.9874 0.0
C720 C 0.76939 0.77879 1.00425 0.0
H721 H 0.84345 0.72116 0.09583 0.0
H722 H 0.82457 0.74971 0.07281 0.0
H723 H 0.75585 0.73252 0.03137 0.0
H724 H 0.71855 0.79539 0.93776 0.0
H725 H 0.74179 0.7711 0.96297 0.0
C726 C 0.77274 0.21268 0.45394 0.0
C727 C 0.77282 0.19128 0.45867 0.0
C728 C 0.75791 0.22604 0.46789 0.0
C729 C 0.72771 0.23136 0.52893 0.0
H730 H 0.69758 0.27915 0.49743 0.0
C731 C 0.67265 0.2948 0.58351 0.0
C732 C 0.67768 0.31541 0.57663 0.0
C733 C 0.68215 0.27825 0.56952 0.0
C734 C 0.706 0.26596 0.50656 0.0
H735 H 0.75678 0.16712 0.48159 0.0
H736 H 0.73061 0.19066 0.50616 0.0
H737 H 0.71645 0.25236 0.47175 0.0
H738 H 0.6971 0.33458 0.5497 0.0
H739 H 0.71359 0.30589 0.52558 0.0
H740 H 0.71747 0.24525 0.56381 0.0
C741 C 0.74226 0.197 0.49159 0.0
C742 C 0.71679 0.25057 0.49183 0.0
C743 C 0.75707 0.1835 0.47738 0.0
C744 C 0.69271 0.31898 0.5556 0.0
C745 C 0.70205 0.30249 0.5416 0.0
C746 C 0.71681 0.2468 0.54372 0.0
C747 C 0.74269 0.21847 0.48711 0.0
C748 C 0.72833 0.23331 0.5028 0.0
C749 C 0.69673 0.28192 0.54822 0.0
C750 C 0.70636 0.26453 0.5327 0.0
H751 H 0.78455 0.21927 0.43965 0.0
H752 H 0.75903 0.24247 0.4641 0.0
H753 H 0.73659 0.21837 0.53801 0.0
H754 H 0.66112 0.29141 0.59954 0.0
H755 H 0.67762 0.26259 0.57507 0.0
C756 C 0.81395 0.31837 0.95855 0.0
C757 C 0.82875 0.31473 0.93737 0.0
C758 C 0.80455 0.30191 0.97256 0.0
C759 C 0.78914 0.24632 0.97008 0.0
H760 H 0.7894 0.25162 0.04208 0.0
C761 C 0.74801 0.18309 0.03591 0.0
C762 C 0.73225 0.19093 0.05459 0.0
C763 C 0.76304 0.19652 0.02186 0.0
C764 C 0.7891 0.24989 0.022 0.0
H765 H 0.84492 0.29066 0.91427 0.0
H766 H 0.82836 0.26192 0.93877 0.0
H767 H 0.80862 0.27836 0.01661 0.0
H768 H 0.72075 0.21895 0.07372 0.0
H769 H 0.74665 0.24202 0.04952 0.0
H770 H 0.76905 0.21802 0.97558 0.0
C771 C 0.82402 0.27759 0.94441 0.0
C772 C 0.80008 0.26527 0.00738 0.0
C773 C 0.83357 0.2941 0.93041 0.0
C774 C 0.73256 0.21231 0.05944 0.0
C775 C 0.74761 0.2256 0.04565 0.0
C776 C 0.77806 0.23091 0.98476 0.0
C777 C 0.8096 0.28131 0.96581 0.0
C778 C 0.79976 0.26394 0.98122 0.0
C779 C 0.76283 0.21798 0.02646 0.0
C780 C 0.7774 0.23276 0.01089 0.0
H781 H 0.80973 0.33398 0.96452 0.0
H782 H 0.79314 0.30535 0.98867 0.0
H783 H 0.78849 0.24485 0.94998 0.0
H784 H 0.74813 0.16672 0.03162 0.0
H785 H 0.77468 0.19014 0.0073 0.0
C786 C 0.77025 0.80183 0.55931 0.0
C787 C 0.77051 0.82313 0.55394 0.0
C788 C 0.75543 0.78826 0.54568 0.0
C789 C 0.7259 0.78189 0.48453 0.0
H790 H 0.69552 0.73458 0.51686 0.0
C791 C 0.67217 0.71747 0.4306 0.0
C792 C 0.67729 0.69698 0.43792 0.0
C793 C 0.68118 0.73425 0.44448 0.0
C794 C 0.70401 0.74763 0.50751 0.0
H795 H 0.75474 0.84689 0.53027 0.0
H796 H 0.72859 0.82297 0.50625 0.0
H797 H 0.71399 0.76185 0.54209 0.0
H798 H 0.69623 0.67827 0.46561 0.0
H799 H 0.7119 0.70738 0.48958 0.0
H800 H 0.71617 0.76739 0.4499 0.0
C801 C 0.74009 0.81688 0.52108 0.0
C802 C 0.71456 0.76331 0.52198 0.0
C803 C 0.75489 0.8306 0.53496 0.0
C804 C 0.69181 0.69377 0.45936 0.0
C805 C 0.70067 0.7105 0.47327 0.0
C806 C 0.71524 0.76618 0.47001 0.0
C807 C 0.7404 0.7955 0.52616 0.0
C808 C 0.7262 0.78039 0.5107 0.0
C809 C 0.69536 0.73095 0.46612 0.0
C810 C 0.7047 0.74862 0.48134 0.0
H811 H 0.78195 0.79549 0.57384 0.0
H812 H 0.75645 0.77191 0.54994 0.0
H813 H 0.73487 0.79473 0.47522 0.0
H814 H 0.66102 0.72059 0.41423 0.0
H815 H 0.67665 0.74981 0.43853 0.0
C816 C 0.34153 0.06249 0.07135 0.0
C817 C 0.32747 0.08009 0.06523 0.0
C818 C 0.33984 0.04444 0.05691 0.0
C819 C 0.3242 0.02759 0.99315 0.0
H820 H 0.32325 0.97252 0.02167 0.0
C821 C 0.34242 0.95265 0.93578 0.0
C822 C 0.32781 0.93525 0.94145 0.0
C823 C 0.3406 0.97072 0.95015 0.0
C824 C 0.32334 0.9878 0.01339 0.0
H825 H 0.29986 0.09219 0.03965 0.0
H826 H 0.29692 0.06084 0.01463 0.0
H827 H 0.32306 1.00269 0.04913 0.0
H828 H 0.2991 0.92355 0.96609 0.0
H829 H 0.29594 0.95498 0.99099 0.0
H830 H 0.3246 0.01271 0.95741 0.0
C831 C 0.30947 0.06103 0.0304 0.0
C832 C 0.32346 1.00508 0.02916 0.0
C833 C 0.31102 0.07896 0.04491 0.0
C834 C 0.31068 0.93663 0.96118 0.0
C835 C 0.309 0.9546 0.97564 0.0
C836 C 0.32432 0.01031 0.97739 0.0
C837 C 0.32419 0.04367 0.03591 0.0
C838 C 0.32384 0.0252 0.01923 0.0
C839 C 0.32428 0.97172 0.97063 0.0
C840 C 0.32384 0.99019 0.98731 0.0
H841 H 0.35446 0.06286 0.0868 0.0
H842 H 0.3515 0.03138 0.06161 0.0
H843 H 0.32478 0.04286 0.98488 0.0
H844 H 0.35588 0.95208 0.92079 0.0
H845 H 0.35271 0.9836 0.94584 0.0
C846 C 0.16205 0.95124 0.57253 0.0
C847 C 0.17625 0.93371 0.56639 0.0
C848 C 0.16411 0.96948 0.5585 0.0
C849 C 0.18073 0.00923 0.5319 0.0
H850 H 0.18185 1.00254 0.46002 0.0
C851 C 0.19391 0.07882 0.46567 0.0
C852 C 0.17754 0.0801 0.4453 0.0
C853 C 0.19551 0.06072 0.47988 0.0
C854 C 0.18149 1.00468 0.48004 0.0
H855 H 0.20449 0.92194 0.54125 0.0
H856 H 0.20811 0.95365 0.51698 0.0
H857 H 0.18136 0.97203 0.48688 0.0
H858 H 0.15075 0.063 0.42333 0.0
H859 H 0.15376 0.03127 0.44799 0.0
H860 H 0.18055 0.04188 0.52506 0.0
C861 C 0.19515 0.95325 0.53242 0.0
C862 C 0.18145 0.98719 0.49546 0.0
C863 C 0.19322 0.93512 0.54652 0.0
C864 C 0.16361 0.06251 0.43882 0.0
C865 C 0.16535 0.04432 0.45297 0.0
C866 C 0.181 0.02672 0.51648 0.0
C867 C 0.18029 0.97054 0.5379 0.0
C868 C 0.18098 0.98924 0.5216 0.0
C869 C 0.18092 0.04336 0.47402 0.0
C870 C 0.18128 0.02467 0.49035 0.0
H871 H 0.14872 0.95067 0.58764 0.0
H872 H 0.1523 0.98247 0.56318 0.0
H873 H 0.1805 0.01137 0.55193 0.0
H874 H 0.20495 0.09204 0.4712 0.0
H875 H 0.208 0.0604 0.49569 0.0
C876 C 0.73136 0.93875 0.95887 0.0
C877 C 0.7142 0.92454 0.96874 0.0
C878 C 0.73366 0.95858 0.96903 0.0
C879 C 0.71986 1.00304 0.98171 0.0
H880 H 0.71895 0.01399 0.05275 0.0
C881 C 0.69946 0.08392 0.02436 0.0
C882 C 0.71309 0.08975 0.04557 0.0
C883 C 0.70208 0.06406 0.0142 0.0
C884 C 0.71944 0.0112 0.03284 0.0
H885 H 0.68686 0.91973 0.99783 0.0
H886 H 0.69106 0.95431 0.01576 0.0
H887 H 0.71951 0.9783 0.03782 0.0
H888 H 0.74099 0.07957 0.07203 0.0
H889 H 0.74558 0.04509 0.05426 0.0
H890 H 0.71961 0.03595 0.97673 0.0
C891 C 0.70273 0.9501 1.00011 0.0
C892 C 0.71952 0.99074 0.02431 0.0
C893 C 0.70032 0.93026 0.98984 0.0
C894 C 0.73015 0.0756 0.05572 0.0
C895 C 0.73264 0.05575 0.04567 0.0
C896 C 0.71957 0.0235 0.99025 0.0
C897 C 0.71897 0.96466 0.98941 0.0
C898 C 0.71969 0.9864 0.99864 0.0
C899 C 0.71826 0.04957 0.02513 0.0
C900 C 0.71931 0.02784 0.01592 0.0
H901 H 0.74239 0.93486 0.94265 0.0
H902 H 0.74664 0.9693 0.96063 0.0
H903 H 0.71969 1.00025 0.96181 0.0
H904 H 0.6861 0.09441 0.01616 0.0
H905 H 0.69064 0.05977 0.99844 0.0
C906 C 0.80513 0.08404 0.48872 0.0
C907 C 0.79126 0.09003 0.46774 0.0
C908 C 0.80245 0.06418 0.49883 0.0
C909 C 0.78489 0.02365 0.5228 0.0
H910 H 0.78384 0.97864 0.47493 0.0
C911 C 0.77244 0.93886 0.5537 0.0
C912 C 0.7893 0.92454 0.54352 0.0
C913 C 0.7703 0.95876 0.54373 0.0
C914 C 0.78414 0.99103 0.48852 0.0
H915 H 0.76286 0.08014 0.44167 0.0
H916 H 0.75815 0.04565 0.45935 0.0
H917 H 0.78457 0.01439 0.46024 0.0
H918 H 0.81625 0.91962 0.51409 0.0
H919 H 0.81231 0.95434 0.49649 0.0
H920 H 0.7849 1.00027 0.55109 0.0
C921 C 0.77133 0.05618 0.46779 0.0
C922 C 0.78433 0.01152 0.48013 0.0
C923 C 0.7739 0.07604 0.4578 0.0
C924 C 0.80303 0.93024 0.52232 0.0
C925 C 0.80076 0.95015 0.51223 0.0
C926 C 0.7845 1.00315 0.5312 0.0
C927 C 0.78596 0.04984 0.48808 0.0
C928 C 0.78484 0.02809 0.49716 0.0
C929 C 0.78483 0.96481 0.52323 0.0
C930 C 0.78426 0.98659 0.51417 0.0
H931 H 0.81874 0.09441 0.49677 0.0
H932 H 0.81408 0.05975 0.5144 0.0
H933 H 0.78516 0.03603 0.5364 0.0
H934 H 0.76154 0.93499 0.57002 0.0
H935 H 0.75754 0.96955 0.55236 0.0
C936 C 0.84218 0.45055 0.93813 0.0
C937 C 0.82802 0.43299 0.9442 0.0
C938 C 0.84017 0.46871 0.95231 0.0
C939 C 0.82356 0.5083 0.97935 0.0
H940 H 0.82311 0.50118 0.05117 0.0
C941 C 0.81027 0.57737 0.04633 0.0
C942 C 0.82688 0.5787 0.06649 0.0
C943 C 0.80872 0.55933 0.032 0.0
C944 C 0.82328 0.50344 0.03117 0.0
H945 H 0.79987 0.4211 0.96936 0.0
H946 H 0.79636 0.45268 0.9939 0.0
H947 H 0.8235 0.47083 0.02402 0.0
H948 H 0.85416 0.56173 0.088 0.0
H949 H 0.85121 0.53008 0.06313 0.0
H950 H 0.82361 0.54091 0.9865 0.0
C951 C 0.80924 0.45236 0.97839 0.0
C952 C 0.82327 0.48605 0.01559 0.0
C953 C 0.81111 0.4343 0.96414 0.0
C954 C 0.8411 0.5612 0.07267 0.0
C955 C 0.83941 0.54306 0.0584 0.0
C956 C 0.82333 0.5257 0.99493 0.0
C957 C 0.82409 0.46966 0.97299 0.0
C958 C 0.8235 0.48825 0.98947 0.0
C959 C 0.8236 0.54208 0.03754 0.0
C960 C 0.82327 0.52349 0.02105 0.0
H961 H 0.85546 0.45005 0.92298 0.0
H962 H 0.85196 0.48173 0.94769 0.0
H963 H 0.82361 0.51056 0.95934 0.0
H964 H 0.799 0.59052 0.04103 0.0
H965 H 0.79604 0.55898 0.01634 0.0
C966 C 0.66421 0.45117 0.57517 0.0
C967 C 0.67859 0.43363 0.56952 0.0
C968 C 0.66652 0.4693 0.56099 0.0
C969 C 0.68348 0.50884 0.53415 0.0
H970 H 0.68555 0.50133 0.4624 0.0
C971 C 0.69646 0.57776 0.46691 0.0
C972 C 0.68007 0.5787 0.44653 0.0
C973 C 0.69829 0.55981 0.48136 0.0
C974 C 0.68495 0.50369 0.48238 0.0
H975 H 0.70747 0.42175 0.5452 0.0
H976 H 0.71151 0.45329 0.52066 0.0
H977 H 0.685 0.47113 0.48976 0.0
H978 H 0.65356 0.56114 0.42474 0.0
H979 H 0.657 0.52967 0.44981 0.0
H980 H 0.68309 0.54141 0.52675 0.0
C981 C 0.69823 0.45297 0.53582 0.0
C982 C 0.68486 0.48639 0.49809 0.0
C983 C 0.69604 0.43494 0.55006 0.0
C984 C 0.66643 0.56091 0.44025 0.0
C985 C 0.66841 0.54287 0.45462 0.0
C986 C 0.6838 0.52615 0.51844 0.0
C987 C 0.68314 0.47023 0.54076 0.0
C988 C 0.68401 0.48874 0.52417 0.0
C989 C 0.68394 0.54228 0.47571 0.0
C990 C 0.68441 0.52379 0.49235 0.0
H991 H 0.65051 0.45066 0.58995 0.0
H992 H 0.65455 0.48229 0.56524 0.0
H993 H 0.68295 0.5112 0.55413 0.0
H994 H 0.70728 0.59115 0.4723 0.0
H995 H 0.71074 0.55976 0.49721 0.0
C996 C 0.19928 0.58485 0.02064 0.0
C997 C 0.21313 0.59092 0.0416 0.0
C998 C 0.20202 0.56497 0.01059 0.0
C999 C 0.21971 0.5244 0.98676 0.0
H1000 H 0.22056 0.47952 0.03478 0.0
C1001 C 0.23212 0.43952 0.95616 0.0
C1002 C 0.21513 0.42528 0.96624 0.0
C1003 C 0.2343 0.45943 0.96611 0.0
C1004 C 0.22032 0.49187 0.02114 0.0
H1005 H 0.24158 0.58116 0.06769 0.0
H1006 H 0.24637 0.54662 0.05012 0.0
H1007 H 0.21986 0.51532 0.04935 0.0
H1008 H 0.18798 0.4205 0.99552 0.0
H1009 H 0.192 0.45523 0.01311 0.0
H1010 H 0.21975 0.50095 0.95855 0.0
C1011 C 0.23317 0.55711 0.04165 0.0
C1012 C 0.22015 0.51239 0.02947 0.0
C1013 C 0.23056 0.577 0.05157 0.0
C1014 C 0.20131 0.43106 0.98737 0.0
C1015 C 0.20361 0.45097 0.99744 0.0
C1016 C 0.2201 0.50388 0.97843 0.0
C1017 C 0.21855 0.55069 0.02139 0.0
C1018 C 0.2197 0.52891 0.01239 0.0
C1019 C 0.21967 0.46556 0.98651 0.0
C1020 C 0.22026 0.48736 0.99552 0.0
H1021 H 0.18563 0.59516 0.01257 0.0
H1022 H 0.1904 0.56048 0.99504 0.0
H1023 H 0.21949 0.53675 0.97312 0.0
H1024 H 0.2431 0.43559 0.93991 0.0
H1025 H 0.24715 0.47017 0.95753 0.0
C1026 C 0.30807 0.58564 0.48473 0.0
C1027 C 0.29412 0.59139 0.46371 0.0
C1028 C 0.30568 0.56579 0.49498 0.0
C1029 C 0.2884 0.5253 0.51938 0.0
H1030 H 0.28728 0.4799 0.47206 0.0
C1031 C 0.27512 0.44077 0.55117 0.0
C1032 C 0.29176 0.42622 0.54113 0.0
C1033 C 0.27329 0.46064 0.54105 0.0
C1034 C 0.28762 0.4924 0.48551 0.0
H1035 H 0.26592 0.58104 0.43767 0.0
H1036 H 0.26171 0.54662 0.45558 0.0
H1037 H 0.2882 0.51552 0.45694 0.0
H1038 H 0.31871 0.42089 0.51179 0.0
H1039 H 0.31532 0.45555 0.49393 0.0
H1040 H 0.28822 0.50216 0.54795 0.0
C1041 C 0.27474 0.55731 0.46395 0.0
C1042 C 0.28791 0.51282 0.47686 0.0
C1043 C 0.27702 0.57714 0.45382 0.0
C1044 C 0.30563 0.43169 0.51992 0.0
C1045 C 0.30369 0.45157 0.50968 0.0
C1046 C 0.2879 0.50487 0.52803 0.0
C1047 C 0.2894 0.55123 0.48433 0.0
C1048 C 0.28841 0.52953 0.49369 0.0
C1049 C 0.28794 0.46644 0.52052 0.0
C1050 C 0.28761 0.48816 0.5112 0.0
H1051 H 0.32148 0.5962 0.49274 0.0
H1052 H 0.31733 0.56157 0.51062 0.0
H1053 H 0.28865 0.5378 0.53283 0.0
H1054 H 0.26412 0.43709 0.56749 0.0
H1055 H 0.26067 0.47161 0.54957 0.0
C1056 C 0.61207 0.14121 0.07106 0.0
C1057 C 0.62466 0.13493 0.09263 0.0
C1058 C 0.58619 0.14049 0.06999 0.0
C1059 C 0.53109 0.13822 0.11162 0.0
H1060 H 0.49604 0.12916 0.04945 0.0
C1061 C 0.42459 0.12969 0.10719 0.0
C1062 C 0.41223 0.14046 0.0882 0.0
C1063 C 0.45046 0.1284 0.10736 0.0
C1064 C 0.50557 0.1319 0.06691 0.0
H1065 H 0.62062 0.12096 0.12899 0.0
H1066 H 0.57524 0.1193 0.12719 0.0
H1067 H 0.54115 0.12666 0.05041 0.0
H1068 H 0.41684 0.1571 0.05355 0.0
H1069 H 0.46235 0.15501 0.05379 0.0
H1070 H 0.49544 0.14269 0.12822 0.0
C1071 C 0.58519 0.12565 0.11142 0.0
C1072 C 0.53148 0.13051 0.06749 0.0
C1073 C 0.61115 0.12645 0.11246 0.0
C1074 C 0.42607 0.14906 0.06864 0.0
C1075 C 0.45204 0.14776 0.06875 0.0
C1076 C 0.50519 0.13927 0.11109 0.0
C1077 C 0.57232 0.13308 0.09035 0.0
C1078 C 0.54463 0.13376 0.08984 0.0
C1079 C 0.46453 0.13753 0.08825 0.0
C1080 C 0.49211 0.13629 0.08871 0.0
H1081 H 0.62225 0.14712 0.05516 0.0
H1082 H 0.57712 0.14646 0.0535 0.0
H1083 H 0.54048 0.14125 0.12908 0.0
H1084 H 0.41421 0.12223 0.12197 0.0
H1085 H 0.45942 0.12004 0.12236 0.0
C1086 C 0.89132 0.88908 0.60977 0.0
C1087 C 0.87774 0.88018 0.59028 0.0
C1088 C 0.91725 0.89004 0.60845 0.0
C1089 C 0.97078 0.88447 0.56427 0.0
H1090 H 0.00693 0.87358 0.62521 0.0
C1091 C 0.07626 0.86577 0.56576 0.0
C1092 C 0.09004 0.87427 0.58541 0.0
C1093 C 0.05031 0.86736 0.56566 0.0
C1094 C 0.99718 0.87662 0.608 0.0
H1095 H 0.87994 0.86744 0.55305 0.0
H1096 H 0.92504 0.86834 0.55094 0.0
H1097 H 0.96198 0.87496 0.62619 0.0
H1098 H 0.08804 0.89265 0.61908 0.0
H1099 H 0.04292 0.89548 0.619 0.0
H1100 H 0.00618 0.88545 0.54604 0.0
C1101 C 0.91605 0.87453 0.56737 0.0
C1102 C 0.9713 0.87766 0.6086 0.0
C1103 C 0.8902 0.87367 0.56872 0.0
C1104 C 0.07768 0.8853 0.60421 0.0
C1105 C 0.05186 0.88694 0.60412 0.0
C1106 C 0.9967 0.88307 0.56362 0.0
C1107 C 0.93002 0.88232 0.58744 0.0
C1108 C 0.9577 0.88168 0.58677 0.0
C1109 C 0.0378 0.87781 0.58501 0.0
C1110 C 0.01022 0.87912 0.58549 0.0
H1111 H 0.88194 0.89476 0.62628 0.0
H1112 H 0.92727 0.89672 0.62397 0.0
H1113 H 0.96106 0.88796 0.54713 0.0
H1114 H 0.08551 0.8575 0.55084 0.0
H1115 H 0.04002 0.86009 0.5507 0.0
C1116 C 0.42684 0.86696 0.94365 0.0
C1117 C 0.41329 0.87557 0.92391 0.0
C1118 C 0.45279 0.86867 0.94413 0.0
C1119 C 0.50631 0.87844 0.90245 0.0
H1120 H 0.54187 0.8894 0.96375 0.0
C1121 C 0.6121 0.89089 0.90147 0.0
C1122 C 0.62552 0.88173 0.92089 0.0
C1123 C 0.58617 0.892 0.90273 0.0
C1124 C 0.53231 0.88603 0.94648 0.0
H1125 H 0.41565 0.89422 0.89049 0.0
H1126 H 0.46071 0.89727 0.89125 0.0
H1127 H 0.49675 0.88669 0.96444 0.0
H1128 H 0.62307 0.86873 0.95797 0.0
H1129 H 0.57799 0.86992 0.95996 0.0
H1130 H 0.54164 0.87708 0.88451 0.0
C1131 C 0.45163 0.88856 0.9059 0.0
C1132 C 0.50639 0.8845 0.94691 0.0
C1133 C 0.42584 0.88681 0.90543 0.0
C1134 C 0.61293 0.87517 0.94236 0.0
C1135 C 0.58709 0.87619 0.94363 0.0
C1136 C 0.53218 0.8796 0.90206 0.0
C1137 C 0.46549 0.87932 0.92507 0.0
C1138 C 0.49307 0.8807 0.92488 0.0
C1139 C 0.57326 0.88418 0.92359 0.0
C1140 C 0.54558 0.88349 0.92405 0.0
H1141 H 0.41744 0.85852 0.95832 0.0
H1142 H 0.46293 0.86131 0.95912 0.0
H1143 H 0.49672 0.87549 0.88512 0.0
H1144 H 0.62159 0.89661 0.88505 0.0
H1145 H 0.57627 0.89884 0.88724 0.0
C1146 C 0.07831 0.14845 0.4434 0.0
C1147 C 0.09211 0.13993 0.42375 0.0
C1148 C 0.05235 0.14702 0.44343 0.0
C1149 C 0.9991 0.1383 0.40123 0.0
H1150 H 0.96329 0.1262 0.46213 0.0
C1151 C 0.89306 0.12598 0.40029 0.0
C1152 C 0.87969 0.13464 0.4201 0.0
C1153 C 0.91902 0.12504 0.40126 0.0
C1154 C 0.97291 0.1299 0.44499 0.0
H1155 H 0.09009 0.12171 0.38997 0.0
H1156 H 0.0449 0.11926 0.38984 0.0
H1157 H 0.0084 0.12859 0.46294 0.0
H1158 H 0.88231 0.14702 0.45747 0.0
H1159 H 0.92743 0.14612 0.459 0.0
H1160 H 0.96378 0.14027 0.38334 0.0
C1161 C 0.05387 0.12766 0.4048 0.0
C1162 C 0.99883 0.13123 0.44548 0.0
C1163 C 0.07973 0.1291 0.40482 0.0
C1164 C 0.89239 0.14096 0.44159 0.0
C1165 C 0.91826 0.1401 0.44258 0.0
C1166 C 0.9732 0.13732 0.4008 0.0
C1167 C 0.03983 0.13674 0.42398 0.0
C1168 C 0.01224 0.13546 0.4236 0.0
C1169 C 0.93201 0.13251 0.42224 0.0
C1170 C 0.95971 0.13305 0.42266 0.0
H1171 H 0.08757 0.15655 0.45844 0.0
H1172 H 0.04207 0.15424 0.45844 0.0
H1173 H 0.0088 0.14157 0.38403 0.0
H1174 H 0.88351 0.12046 0.38382 0.0
H1175 H 0.92888 0.11854 0.38551 0.0
C1176 C 0.11144 0.64021 0.06838 0.0
C1177 C 0.12435 0.63409 0.08983 0.0
C1178 C 0.08559 0.63907 0.06751 0.0
C1179 C 0.031 0.63616 0.10965 0.0
H1180 H 0.99544 0.62719 0.04776 0.0
C1181 C 0.92444 0.62807 0.10627 0.0
C1182 C 0.91197 0.63883 0.08733 0.0
C1183 C 0.95029 0.6266 0.10616 0.0
C1184 C 0.0051 0.6299 0.06515 0.0
H1185 H 0.12094 0.61996 0.12617 0.0
H1186 H 0.07557 0.61757 0.12471 0.0
H1187 H 0.04056 0.6248 0.04831 0.0
H1188 H 0.91634 0.65526 0.05252 0.0
H1189 H 0.96183 0.6529 0.05228 0.0
H1190 H 0.99549 0.64053 0.12659 0.0
C1191 C 0.08526 0.6241 0.10888 0.0
C1192 C 0.03102 0.62857 0.06549 0.0
C1193 C 0.11121 0.62531 0.10972 0.0
C1194 C 0.92567 0.64723 0.06755 0.0
C1195 C 0.95163 0.64577 0.0674 0.0
C1196 C 0.00509 0.63716 0.10936 0.0
C1197 C 0.07206 0.63141 0.08796 0.0
C1198 C 0.04436 0.63182 0.08773 0.0
C1199 C 0.96424 0.63557 0.08684 0.0
C1200 C 0.99182 0.63425 0.08708 0.0
H1201 H 0.12135 0.64636 0.05244 0.0
H1202 H 0.07626 0.64496 0.05113 0.0
H1203 H 0.04052 0.63919 0.12704 0.0
H1204 H 0.91415 0.62077 0.12123 0.0
H1205 H 0.95934 0.61827 0.12112 0.0
C1206 C 0.57815 0.36625 0.5667 0.0
C1207 C 0.59168 0.37474 0.58654 0.0
C1208 C 0.55221 0.36803 0.56616 0.0
C1209 C 0.49859 0.37777 0.60772 0.0
H1210 H 0.46327 0.38889 0.54632 0.0
C1211 C 0.39203 0.3751 0.56735 0.0
C1212 C 0.37941 0.38174 0.58877 0.0
C1213 C 0.41789 0.37587 0.56622 0.0
C1214 C 0.47276 0.38547 0.56361 0.0
H1215 H 0.5893 0.39325 0.62008 0.0
H1216 H 0.54424 0.39642 0.61921 0.0
H1217 H 0.50838 0.38613 0.54579 0.0
H1218 H 0.38338 0.3965 0.62469 0.0
H1219 H 0.42872 0.39832 0.62275 0.0
H1220 H 0.46318 0.3764 0.62551 0.0
C1221 C 0.55333 0.38776 0.60453 0.0
C1222 C 0.49868 0.38392 0.56328 0.0
C1223 C 0.57912 0.38593 0.60506 0.0
C1224 C 0.39287 0.39071 0.60831 0.0
C1225 C 0.41881 0.39159 0.60719 0.0
C1226 C 0.47272 0.37895 0.60801 0.0
C1227 C 0.53949 0.37862 0.58525 0.0
C1228 C 0.51191 0.38006 0.58535 0.0
C1229 C 0.43172 0.38371 0.58635 0.0
C1230 C 0.4594 0.3829 0.58599 0.0
H1231 H 0.58757 0.35785 0.552 0.0
H1232 H 0.5421 0.36076 0.55108 0.0
H1233 H 0.5081 0.3748 0.62508 0.0
H1234 H 0.38187 0.36883 0.55165 0.0
H1235 H 0.42699 0.36957 0.54991 0.0
C1236 C 0.11423 0.37519 0.94079 0.0
C1237 C 0.12659 0.38169 0.91917 0.0
C1238 C 0.0884 0.37608 0.94228 0.0
C1239 C 0.03301 0.37897 0.90131 0.0
H1240 H 0.99835 0.38648 0.96405 0.0
C1241 C 0.92654 0.38534 0.90625 0.0
C1242 C 0.91447 0.37422 0.92515 0.0
C1243 C 0.95233 0.3873 0.9062 0.0
C1244 C 0.00777 0.38417 0.94642 0.0
H1245 H 0.12224 0.3963 0.88321 0.0
H1246 H 0.0769 0.39829 0.88577 0.0
H1247 H 0.04342 0.38943 0.96272 0.0
H1248 H 0.91947 0.3576 0.95975 0.0
H1249 H 0.96491 0.36075 0.95965 0.0
H1250 H 0.99736 0.37448 0.8849 0.0
C1251 C 0.087 0.39162 0.90123 0.0
C1252 C 0.03366 0.38584 0.94563 0.0
C1253 C 0.11293 0.39064 0.89977 0.0
C1254 C 0.92849 0.36594 0.94476 0.0
C1255 C 0.95442 0.36785 0.94473 0.0
C1256 C 0.00715 0.37766 0.90205 0.0
C1257 C 0.07434 0.38389 0.9223 0.0
C1258 C 0.04667 0.38313 0.92307 0.0
C1259 C 0.96665 0.3784 0.92527 0.0
C1260 C 0.9942 0.38004 0.92463 0.0
H1261 H 0.12456 0.3689 0.95637 0.0
H1262 H 0.07949 0.36987 0.95874 0.0
H1263 H 0.04228 0.37633 0.88368 0.0
H1264 H 0.91599 0.3925 0.8914 0.0
H1265 H 0.96104 0.39591 0.89125 0.0
C1266 C 0.57985 0.64617 0.44564 0.0
C1267 C 0.59337 0.63728 0.42607 0.0
C1268 C 0.55387 0.64524 0.44568 0.0
C1269 C 0.49999 0.61844 0.4156 0.0
H1270 H 0.46446 0.66715 0.43783 0.0
C1271 C 0.3949 0.63068 0.39708 0.0
C1272 C 0.381 0.63929 0.4166 0.0
C1273 C 0.42085 0.62979 0.39865 0.0
C1274 C 0.47406 0.65342 0.43154 0.0
H1275 H 0.59092 0.61857 0.39273 0.0
H1276 H 0.54578 0.61748 0.39215 0.0
H1277 H 0.50947 0.66652 0.44 0.0
H1278 H 0.38282 0.65205 0.45385 0.0
H1279 H 0.42802 0.65068 0.45662 0.0
H1280 H 0.46444 0.60567 0.40647 0.0
C1281 C 0.55486 0.6253 0.40748 0.0
C1282 C 0.49995 0.65296 0.43303 0.0
C1283 C 0.58074 0.62619 0.40754 0.0
C1284 C 0.39327 0.64608 0.43816 0.0
C1285 C 0.41912 0.64524 0.43975 0.0
C1286 C 0.4741 0.61907 0.41373 0.0
C1287 C 0.54099 0.63516 0.42628 0.0
C1288 C 0.51331 0.63544 0.42516 0.0
C1289 C 0.43326 0.63722 0.41996 0.0
C1290 C 0.46082 0.63657 0.42168 0.0
H1291 H 0.58933 0.65429 0.46052 0.0
H1292 H 0.54392 0.65252 0.46087 0.0
H1293 H 0.50951 0.60451 0.40978 0.0
H1294 H 0.38573 0.62499 0.38047 0.0
H1295 H 0.43121 0.62358 0.38305 0.0
C1296 C 0.29487 0.15975 0.17514 0.0
C1297 C 0.30185 0.14219 0.16138 0.0
C1298 C 0.28053 0.15784 0.19669 0.0
C1299 C 0.26753 0.1228 0.24817 0.0
H1300 H 0.21384 0.16109 0.2617 0.0
C1301 C 0.20965 0.12349 0.341 0.0
C1302 C 0.20146 0.14295 0.3493 0.0
C1303 C 0.22221 0.12159 0.31811 0.0
C1304 C 0.229 0.15043 0.25843 0.0
H1305 H 0.29901 0.10883 0.15924 0.0
H1306 H 0.274 0.10541 0.19746 0.0
H1307 H 0.23317 0.16072 0.22073 0.0
H1308 H 0.2016 0.17576 0.34122 0.0
H1309 H 0.22426 0.17265 0.30225 0.0
H1310 H 0.26383 0.11296 0.28624 0.0
C1311 C 0.27955 0.12068 0.19129 0.0
C1312 C 0.23993 0.15012 0.23482 0.0
C1313 C 0.29359 0.12264 0.16931 0.0
C1314 C 0.20752 0.16054 0.3352 0.0
C1315 C 0.22024 0.1587 0.31266 0.0
C1316 C 0.25668 0.12321 0.272 0.0
C1317 C 0.27312 0.13828 0.20535 0.0
C1318 C 0.25963 0.1366 0.22951 0.0
C1319 C 0.22692 0.13916 0.30326 0.0
C1320 C 0.23763 0.13739 0.2776 0.0
H1321 H 0.3011 0.175 0.16957 0.0
H1322 H 0.27608 0.17168 0.20717 0.0
H1323 H 0.2828 0.11229 0.24468 0.0
H1324 H 0.20497 0.10965 0.35137 0.0
H1325 H 0.22709 0.10629 0.31152 0.0
C1326 C 0.28823 0.88655 0.84358 0.0
C1327 C 0.30987 0.87436 0.84275 0.0
C1328 C 0.27394 0.88964 0.82195 0.0
C1329 C 0.27778 0.88638 0.75264 0.0
H1330 H 0.20669 0.87779 0.75543 0.0
C1331 C 0.21385 0.88776 0.66441 0.0
C1332 C 0.19618 0.87174 0.66345 0.0
C1333 C 0.2278 0.89117 0.6862 0.0
C1334 C 0.22655 0.88029 0.75433 0.0
H1335 H 0.33333 0.85604 0.81814 0.0
H1336 H 0.30867 0.86135 0.78117 0.0
H1337 H 0.23067 0.87849 0.79402 0.0
H1338 H 0.18015 0.84633 0.68462 0.0
H1339 H 0.2043 0.85219 0.72189 0.0
H1340 H 0.27378 0.88736 0.71288 0.0
C1341 C 0.30278 0.86872 0.79832 0.0
C1342 C 0.24024 0.88091 0.77649 0.0
C1343 C 0.31681 0.86549 0.81977 0.0
C1344 C 0.19335 0.85897 0.68455 0.0
C1345 C 0.20708 0.86243 0.70615 0.0
C1346 C 0.26407 0.88585 0.73047 0.0
C1347 C 0.28121 0.88085 0.79901 0.0
C1348 C 0.26613 0.88336 0.77589 0.0
C1349 C 0.22421 0.87873 0.70748 0.0
C1350 C 0.23838 0.88218 0.731 0.0
H1351 H 0.28235 0.89368 0.86087 0.0
H1352 H 0.25738 0.89908 0.82309 0.0
H1353 H 0.29768 0.88862 0.75154 0.0
H1354 H 0.21648 0.89795 0.64861 0.0
H1355 H 0.24093 0.90385 0.6866 0.0
C1356 C 0.71109 0.83542 0.84086 0.0
C1357 C 0.70966 0.85415 0.85409 0.0
C1358 C 0.72186 0.83472 0.81709 0.0
C1359 C 0.76211 0.86568 0.774 0.0
H1360 H 0.73703 0.82749 0.72428 0.0
C1361 C 0.78558 0.87165 0.66902 0.0
C1362 C 0.79396 0.85342 0.65741 0.0
C1363 C 0.77587 0.87113 0.69319 0.0
C1364 C 0.74431 0.83813 0.73806 0.0
H1365 H 0.71783 0.88695 0.85239 0.0
H1366 H 0.73553 0.88597 0.81076 0.0
H1367 H 0.71854 0.82799 0.76582 0.0
H1368 H 0.7984 0.8203 0.66208 0.0
H1369 H 0.78076 0.81938 0.70419 0.0
H1370 H 0.78721 0.8763 0.74573 0.0
C1371 C 0.72927 0.87159 0.81896 0.0
C1372 C 0.73383 0.83838 0.76196 0.0
C1373 C 0.71892 0.87221 0.84286 0.0
C1374 C 0.79217 0.83462 0.6705 0.0
C1375 C 0.78198 0.83406 0.69453 0.0
C1376 C 0.77225 0.86567 0.75 0.0
C1377 C 0.73109 0.85281 0.80575 0.0
C1378 C 0.74252 0.85221 0.78031 0.0
C1379 C 0.77389 0.85234 0.70616 0.0
C1380 C 0.76344 0.85193 0.73178 0.0
H1381 H 0.70426 0.82119 0.84904 0.0
H1382 H 0.72323 0.81989 0.80782 0.0
H1383 H 0.76982 0.87621 0.78764 0.0
H1384 H 0.7868 0.8864 0.65954 0.0
H1385 H 0.76963 0.88543 0.70166 0.0
C1386 C 0.78574 0.14376 0.34317 0.0
C1387 C 0.79481 0.16183 0.35454 0.0
C1388 C 0.77519 0.14444 0.31939 0.0
C1389 C 0.76967 0.17781 0.26271 0.0
H1390 H 0.71653 0.13953 0.24697 0.0
C1391 C 0.71089 0.18084 0.17151 0.0
C1392 C 0.70906 0.16194 0.15863 0.0
C1393 C 0.72121 0.1816 0.19547 0.0
C1394 C 0.73142 0.15026 0.25109 0.0
H1395 H 0.79974 0.19486 0.34977 0.0
H1396 H 0.78046 0.19624 0.30869 0.0
H1397 H 0.73424 0.13975 0.28871 0.0
H1398 H 0.71635 0.12899 0.16103 0.0
H1399 H 0.73378 0.13031 0.20299 0.0
H1400 H 0.7661 0.18863 0.22504 0.0
C1401 C 0.7821 0.18138 0.31783 0.0
C1402 C 0.74174 0.15032 0.275 0.0
C1403 C 0.79305 0.18063 0.3415 0.0
C1404 C 0.71757 0.14382 0.17035 0.0
C1405 C 0.72744 0.14454 0.19444 0.0
C1406 C 0.75901 0.17797 0.2389 0.0
C1407 C 0.77299 0.16328 0.3064 0.0
C1408 C 0.76128 0.1639 0.28111 0.0
C1409 C 0.72943 0.16343 0.20722 0.0
C1410 C 0.73999 0.16402 0.23278 0.0
H1411 H 0.78708 0.12895 0.35253 0.0
H1412 H 0.76905 0.13005 0.31111 0.0
H1413 H 0.78488 0.1883 0.26645 0.0
H1414 H 0.70455 0.19509 0.163 0.0
H1415 H 0.72243 0.19635 0.20497 0.0
C1416 C 0.70748 0.65903 0.33575 0.0
C1417 C 0.70188 0.64149 0.35016 0.0
C1418 C 0.7218 0.65733 0.31415 0.0
C1419 C 0.73708 0.62199 0.26368 0.0
H1420 H 0.78894 0.66183 0.24947 0.0
C1421 C 0.79535 0.62244 0.17124 0.0
C1422 C 0.8031 0.64188 0.16248 0.0
C1423 C 0.78271 0.62075 0.1941 0.0
C1424 C 0.77427 0.65074 0.2529 0.0
H1425 H 0.70713 0.60839 0.35336 0.0
H1426 H 0.73204 0.60532 0.31502 0.0
H1427 H 0.76926 0.66163 0.29026 0.0
H1428 H 0.80216 0.67482 0.1697 0.0
H1429 H 0.77926 0.67206 0.20857 0.0
H1430 H 0.74154 0.61154 0.22595 0.0
C1431 C 0.72543 0.62042 0.32074 0.0
C1432 C 0.76315 0.65054 0.27643 0.0
C1433 C 0.71144 0.6222 0.34277 0.0
C1434 C 0.79658 0.65962 0.17609 0.0
C1435 C 0.78372 0.65798 0.19859 0.0
C1436 C 0.74807 0.62232 0.23993 0.0
C1437 C 0.73055 0.63798 0.30609 0.0
C1438 C 0.74416 0.63641 0.282 0.0
C1439 C 0.77743 0.6385 0.20846 0.0
C1440 C 0.76649 0.63701 0.23406 0.0
H1441 H 0.70027 0.67409 0.34091 0.0
H1442 H 0.72524 0.67112 0.3032 0.0
H1443 H 0.72235 0.61102 0.26739 0.0
H1444 H 0.80042 0.6085 0.16126 0.0
H1445 H 0.77819 0.60549 0.20105 0.0
C1446 C 0.71678 0.38467 0.66673 0.0
C1447 C 0.69539 0.37218 0.6674 0.0
C1448 C 0.731 0.38779 0.68841 0.0
C1449 C 0.727 0.38416 0.75763 0.0
H1450 H 0.7983 0.37678 0.7551 0.0
C1451 C 0.7906 0.38644 0.84609 0.0
C1452 C 0.80855 0.37063 0.84708 0.0
C1453 C 0.77667 0.38969 0.82425 0.0
C1454 C 0.77839 0.37894 0.75612 0.0
H1455 H 0.67238 0.35324 0.69175 0.0
H1456 H 0.69691 0.35862 0.7288 0.0
H1457 H 0.77446 0.37716 0.71641 0.0
H1458 H 0.8251 0.34544 0.82592 0.0
H1459 H 0.80101 0.35104 0.78857 0.0
H1460 H 0.73083 0.38513 0.79741 0.0
C1461 C 0.70264 0.36622 0.71174 0.0
C1462 C 0.76477 0.37938 0.73391 0.0
C1463 C 0.68868 0.36296 0.69024 0.0
C1464 C 0.81169 0.35791 0.82597 0.0
C1465 C 0.79798 0.36123 0.80432 0.0
C1466 C 0.74064 0.38382 0.77985 0.0
C1467 C 0.72391 0.37872 0.71122 0.0
C1468 C 0.73882 0.38138 0.73442 0.0
C1469 C 0.78056 0.37731 0.80297 0.0
C1470 C 0.76641 0.38059 0.7794 0.0
H1471 H 0.72249 0.39208 0.64955 0.0
H1472 H 0.74733 0.39752 0.6874 0.0
H1473 H 0.70705 0.38605 0.75866 0.0
H1474 H 0.78772 0.39658 0.8619 0.0
H1475 H 0.7633 0.4022 0.82383 0.0
C1476 C 0.29304 0.33645 0.66842 0.0
C1477 C 0.29485 0.35522 0.65534 0.0
C1478 C 0.2823 0.33579 0.6922 0.0
C1479 C 0.24278 0.36711 0.73561 0.0
H1480 H 0.26704 0.32824 0.78495 0.0
C1481 C 0.21926 0.3727 0.84063 0.0
C1482 C 0.21049 0.35451 0.85202 0.0
C1483 C 0.22902 0.37221 0.81648 0.0
C1484 C 0.25998 0.33907 0.77127 0.0
H1485 H 0.28739 0.38813 0.65732 0.0
H1486 H 0.26974 0.3872 0.69897 0.0
H1487 H 0.28552 0.32872 0.7434 0.0
H1488 H 0.20545 0.32149 0.847 0.0
H1489 H 0.22318 0.32061 0.80493 0.0
H1490 H 0.2179 0.37792 0.76399 0.0
C1491 C 0.27569 0.37277 0.69065 0.0
C1492 C 0.27047 0.33931 0.74737 0.0
C1493 C 0.28601 0.37336 0.66674 0.0
C1494 C 0.21198 0.33577 0.83875 0.0
C1495 C 0.22222 0.33524 0.81474 0.0
C1496 C 0.23264 0.3671 0.75962 0.0
C1497 C 0.27348 0.35396 0.70371 0.0
C1498 C 0.26207 0.35339 0.72916 0.0
C1499 C 0.23068 0.35348 0.80331 0.0
C1500 C 0.24115 0.35311 0.7777 0.0
H1501 H 0.29954 0.32216 0.66011 0.0
H1502 H 0.28062 0.32094 0.70135 0.0
H1503 H 0.23529 0.37784 0.72208 0.0
H1504 H 0.21828 0.38741 0.85025 0.0
H1505 H 0.23555 0.38649 0.80817 0.0
C1506 C 0.28666 0.64524 0.33928 0.0
C1507 C 0.29485 0.66354 0.35079 0.0
C1508 C 0.27613 0.6457 0.31547 0.0
C1509 C 0.26912 0.67923 0.25908 0.0
H1510 H 0.21773 0.63945 0.24291 0.0
C1511 C 0.20991 0.68142 0.16817 0.0
C1512 C 0.20876 0.66262 0.15501 0.0
C1513 C 0.22035 0.68223 0.19207 0.0
C1514 C 0.23213 0.6506 0.24715 0.0
H1515 H 0.2982 0.69674 0.34628 0.0
H1516 H 0.27894 0.6977 0.3052 0.0
H1517 H 0.2355 0.63985 0.28462 0.0
H1518 H 0.21743 0.62987 0.15686 0.0
H1519 H 0.23509 0.63125 0.19872 0.0
H1520 H 0.265 0.69028 0.22157 0.0
C1521 C 0.28128 0.68285 0.31421 0.0
C1522 C 0.24249 0.65077 0.27104 0.0
C1523 C 0.29221 0.68234 0.33789 0.0
C1524 C 0.21812 0.64463 0.16639 0.0
C1525 C 0.22811 0.64538 0.19042 0.0
C1526 C 0.25843 0.67927 0.23529 0.0
C1527 C 0.27306 0.66452 0.30262 0.0
C1528 C 0.26138 0.66492 0.27732 0.0
C1529 C 0.22938 0.66417 0.20349 0.0
C1530 C 0.24003 0.6648 0.22901 0.0
H1531 H 0.28869 0.63045 0.34853 0.0
H1532 H 0.27068 0.63117 0.30707 0.0
H1533 H 0.28385 0.69016 0.26294 0.0
H1534 H 0.20291 0.69556 0.15993 0.0
H1535 H 0.22101 0.6969 0.2018 0.0
loop_
_geom_bond_atom_site_label_1
_geom_bond_atom_site_label_2
_geom_bond_distance
_geom_bond_site_symmetry_2
_ccdc_geom_bond_type
Mn0 O5 2.095 . S
Mn0 O15 2.162 . S
Mn0 O16 2.297 . S
Mn0 O24 2.385 . S
Mn0 O25 2.209 . S
Mn0 O26 2.094 . S
Mn1 O6 2.121 . S
Mn1 N8 2.257 . S
Mn1 N17 2.282 . S
Mn1 O25 2.215 . S
Mn1 O27 2.117 . S
C2 O24 1.234 . S
C2 O25 1.283 . S
C3 O15 1.281 . S
C3 O16 1.236 . S
C4 O26 1.240 . S
C4 O27 1.264 . S
O5 Mn0 2.095 . S
O5 C14 1.250 . S
O6 Mn1 2.121 . S
O6 C14 1.258 . S
C7 N8 1.326 . S
C7 C11 1.460 . S
C7 H13 0.929 . S
N8 Mn1 2.257 . S
N8 C7 1.326 . S
N8 C12 1.362 . S
C9 C10 1.258 . S
C9 C12 1.431 . S
C9 C29 1.449 . S
C10 C9 1.258 . S
C10 C11 1.477 . S
C10 H30 0.931 . S
C11 C7 1.460 . S
C11 C10 1.477 . S
C11 H31 0.930 . S
C12 N8 1.362 . S
C12 C9 1.431 . S
C12 C22 1.476 . S
H13 C7 0.929 . S
C14 O5 1.250 . S
C14 O6 1.258 . S
O15 Mn0 2.162 . S
O15 C3 1.281 . S
O16 Mn0 2.297 . S
O16 C3 1.236 . S
N17 Mn1 2.282 . S
N17 C18 1.328 . S
N17 C22 1.318 . S
C18 N17 1.328 . S
C18 C19 1.457 . S
C18 H23 0.929 . S
C19 C18 1.457 . S
C19 C20 1.291 . S
C19 H32 0.931 . S
C20 C19 1.291 . S
C20 C21 1.373 . S
C20 H33 0.929 . S
C21 C20 1.373 . S
C21 C22 1.396 . S
C21 C28 1.403 . S
C22 C12 1.476 . S
C22 N17 1.318 . S
C22 C21 1.396 . S
H23 C18 0.929 . S
O24 Mn0 2.385 . S
O24 C2 1.234 . S
O25 Mn0 2.209 . S
O25 Mn1 2.215 . S
O25 C2 1.283 . S
O26 Mn0 2.094 . S
O26 C4 1.240 . S
O27 Mn1 2.117 . S
O27 C4 1.264 . S
C28 C21 1.403 . S
C28 C29 1.399 . S
C28 H34 0.929 . S
C29 C9 1.449 . S
C29 C28 1.399 . S
C29 H35 0.930 . S
H30 C10 0.931 . S
H31 C11 0.930 . S
H32 C19 0.931 . S
H33 C20 0.929 . S
H34 C28 0.929 . S
H35 C29 0.930 . S
Mn36 O41 2.095 . S
Mn36 O51 2.162 . S
Mn36 O52 2.297 . S
Mn36 O60 2.385 . S
Mn36 O61 2.209 . S
Mn36 O62 2.094 . S
Mn37 O42 2.121 . S
Mn37 N44 2.257 . S
Mn37 N53 2.282 . S
Mn37 O61 2.215 . S
Mn37 O63 2.117 . S
C38 O60 1.234 . S
C38 O61 1.283 . S
C39 O51 1.281 . S
C39 O52 1.236 . S
C40 O62 1.240 . S
C40 O63 1.264 . S
O41 Mn36 2.095 . S
O41 C50 1.250 . S
O42 Mn37 2.121 . S
O42 C50 1.258 . S
C43 N44 1.326 . S
C43 C47 1.460 . S
C43 H49 0.929 . S
N44 Mn37 2.257 . S
N44 C43 1.326 . S
N44 C48 1.362 . S
C45 C46 1.258 . S
C45 C48 1.431 . S
C45 C65 1.449 . S
C46 C45 1.258 . S
C46 C47 1.477 . S
C46 H66 0.931 . S
C47 C43 1.460 . S
C47 C46 1.477 . S
C47 H67 0.930 . S
C48 N44 1.362 . S
C48 C45 1.431 . S
C48 C58 1.476 . S
H49 C43 0.929 . S
C50 O41 1.250 . S
C50 O42 1.258 . S
O51 Mn36 2.162 . S
O51 C39 1.281 . S
O52 Mn36 2.297 . S
O52 C39 1.236 . S
N53 Mn37 2.282 . S
N53 C54 1.328 . S
N53 C58 1.318 . S
C54 N53 1.328 . S
C54 C55 1.457 . S
C54 H59 0.929 . S
C55 C54 1.457 . S
C55 C56 1.291 . S
C55 H68 0.931 . S
C56 C55 1.291 . S
C56 C57 1.373 . S
C56 H69 0.929 . S
C57 C56 1.373 . S
C57 C58 1.396 . S
C57 C64 1.403 . S
C58 C48 1.476 . S
C58 N53 1.318 . S
C58 C57 1.396 . S
H59 C54 0.929 . S
O60 Mn36 2.385 . S
O60 C38 1.234 . S
O61 Mn36 2.209 . S
O61 Mn37 2.215 . S
O61 C38 1.283 . S
O62 Mn36 2.094 . S
O62 C40 1.240 . S
O63 Mn37 2.117 . S
O63 C40 1.264 . S
C64 C57 1.403 . S
C64 C65 1.399 . S
C64 H70 0.929 . S
C65 C45 1.449 . S
C65 C64 1.399 . S
C65 H71 0.930 . S
H66 C46 0.931 . S
H67 C47 0.930 . S
H68 C55 0.931 . S
H69 C56 0.929 . S
H70 C64 0.929 . S
H71 C65 0.930 . S
Mn72 O77 2.095 . S
Mn72 O87 2.162 . S
Mn72 O88 2.297 . S
Mn72 O96 2.385 . S
Mn72 O97 2.209 . S
Mn72 O98 2.094 . S
Mn73 O78 2.121 . S
Mn73 N80 2.257 . S
Mn73 N89 2.282 . S
Mn73 O97 2.215 . S
Mn73 O99 2.117 . S
C74 O96 1.234 . S
C74 O97 1.283 . S
C75 O87 1.281 . S
C75 O88 1.236 . S
C76 O98 1.240 . S
C76 O99 1.264 . S
O77 Mn72 2.095 . S
O77 C86 1.250 . S
O78 Mn73 2.121 . S
O78 C86 1.258 . S
C79 N80 1.326 . S
C79 C83 1.460 . S
C79 H85 0.929 . S
N80 Mn73 2.257 . S
N80 C79 1.326 . S
N80 C84 1.362 . S
C81 C82 1.258 . S
C81 C84 1.431 . S
C81 C101 1.449 . S
C82 C81 1.258 . S
C82 C83 1.477 . S
C82 H102 0.931 . S
C83 C79 1.460 . S
C83 C82 1.477 . S
C83 H103 0.930 . S
C84 N80 1.362 . S
C84 C81 1.431 . S
C84 C94 1.476 . S
H85 C79 0.929 . S
C86 O77 1.250 . S
C86 O78 1.258 . S
O87 Mn72 2.162 . S
O87 C75 1.281 . S
O88 Mn72 2.297 . S
O88 C75 1.236 . S
N89 Mn73 2.282 . S
N89 C90 1.328 . S
N89 C94 1.318 . S
C90 N89 1.328 . S
C90 C91 1.457 . S
C90 H95 0.929 . S
C91 C90 1.457 . S
C91 C92 1.291 . S
C91 H104 0.931 . S
C92 C91 1.291 . S
C92 C93 1.373 . S
C92 H105 0.929 . S
C93 C92 1.373 . S
C93 C94 1.396 . S
C93 C100 1.403 . S
C94 C84 1.476 . S
C94 N89 1.318 . S
C94 C93 1.396 . S
H95 C90 0.929 . S
O96 Mn72 2.385 . S
O96 C74 1.234 . S
O97 Mn72 2.209 . S
O97 Mn73 2.215 . S
O97 C74 1.283 . S
O98 Mn72 2.094 . S
O98 C76 1.240 . S
O99 Mn73 2.117 . S
O99 C76 1.264 . S
C100 C93 1.403 . S
C100 C101 1.399 . S
C100 H106 0.929 . S
C101 C81 1.449 . S
C101 C100 1.399 . S
C101 H107 0.930 . S
H102 C82 0.931 . S
H103 C83 0.930 . S
H104 C91 0.931 . S
H105 C92 0.929 . S
H106 C100 0.929 . S
H107 C101 0.930 . S
Mn108 O113 2.095 . S
Mn108 O123 2.162 . S
Mn108 O124 2.297 . S
Mn108 O132 2.385 . S
Mn108 O133 2.209 . S
Mn108 O134 2.094 . S
Mn109 O114 2.121 . S
Mn109 N116 2.257 . S
Mn109 N125 2.282 . S
Mn109 O133 2.215 . S
Mn109 O135 2.117 . S
C110 O132 1.234 . S
C110 O133 1.283 . S
C111 O123 1.281 . S
C111 O124 1.236 . S
C112 O134 1.240 . S
C112 O135 1.264 . S
O113 Mn108 2.095 . S
O113 C122 1.250 . S
O114 Mn109 2.121 . S
O114 C122 1.258 . S
C115 N116 1.326 . S
C115 C119 1.460 . S
C115 H121 0.929 . S
N116 Mn109 2.257 . S
N116 C115 1.326 . S
N116 C120 1.362 . S
C117 C118 1.258 . S
C117 C120 1.431 . S
C117 C137 1.449 . S
C118 C117 1.258 . S
C118 C119 1.477 . S
C118 H138 0.931 . S
C119 C115 1.460 . S
C119 C118 1.477 . S
C119 H139 0.930 . S
C120 N116 1.362 . S
C120 C117 1.431 . S
C120 C130 1.476 . S
H121 C115 0.929 . S
C122 O113 1.250 . S
C122 O114 1.258 . S
O123 Mn108 2.162 . S
O123 C111 1.281 . S
O124 Mn108 2.297 . S
O124 C111 1.236 . S
N125 Mn109 2.282 . S
N125 C126 1.328 . S
N125 C130 1.318 . S
C126 N125 1.328 . S
C126 C127 1.457 . S
C126 H131 0.929 . S
C127 C126 1.457 . S
C127 C128 1.291 . S
C127 H140 0.931 . S
C128 C127 1.291 . S
C128 C129 1.373 . S
C128 H141 0.929 . S
C129 C128 1.373 . S
C129 C130 1.396 . S
C129 C136 1.403 . S
C130 C120 1.476 . S
C130 N125 1.318 . S
C130 C129 1.396 . S
H131 C126 0.929 . S
O132 Mn108 2.385 . S
O132 C110 1.234 . S
O133 Mn108 2.209 . S
O133 Mn109 2.215 . S
O133 C110 1.283 . S
O134 Mn108 2.094 . S
O134 C112 1.240 . S
O135 Mn109 2.117 . S
O135 C112 1.264 . S
C136 C129 1.403 . S
C136 C137 1.399 . S
C136 H142 0.929 . S
C137 C117 1.449 . S
C137 C136 1.399 . S
C137 H143 0.930 . S
H138 C118 0.931 . S
H139 C119 0.930 . S
H140 C127 0.931 . S
H141 C128 0.929 . S
H142 C136 0.929 . S
H143 C137 0.930 . S
Mn144 O149 2.095 . S
Mn144 O159 2.162 . S
Mn144 O160 2.297 . S
Mn144 O168 2.385 . S
Mn144 O169 2.209 . S
Mn144 O170 2.094 . S
Mn145 O150 2.121 . S
Mn145 N152 2.257 . S
Mn145 N161 2.282 . S
Mn145 O169 2.215 . S
Mn145 O171 2.117 . S
C146 O168 1.234 . S
C146 O169 1.283 . S
C147 O159 1.281 . S
C147 O160 1.236 . S
C148 O170 1.240 . S
C148 O171 1.264 . S
O149 Mn144 2.095 . S
O149 C158 1.250 . S
O150 Mn145 2.121 . S
O150 C158 1.258 . S
C151 N152 1.326 . S
C151 C155 1.460 . S
C151 H157 0.929 . S
N152 Mn145 2.257 . S
N152 C151 1.326 . S
N152 C156 1.362 . S
C153 C154 1.258 . S
C153 C156 1.431 . S
C153 C173 1.449 . S
C154 C153 1.258 . S
C154 C155 1.477 . S
C154 H174 0.931 . S
C155 C151 1.460 . S
C155 C154 1.477 . S
C155 H175 0.930 . S
C156 N152 1.362 . S
C156 C153 1.431 . S
C156 C166 1.476 . S
H157 C151 0.929 . S
C158 O149 1.250 . S
C158 O150 1.258 . S
O159 Mn144 2.162 . S
O159 C147 1.281 . S
O160 Mn144 2.297 . S
O160 C147 1.236 . S
N161 Mn145 2.282 . S
N161 C162 1.328 . S
N161 C166 1.318 . S
C162 N161 1.328 . S
C162 C163 1.457 . S
C162 H167 0.929 . S
C163 C162 1.457 . S
C163 C164 1.291 . S
C163 H176 0.931 . S
C164 C163 1.291 . S
C164 C165 1.373 . S
C164 H177 0.929 . S
C165 C164 1.373 . S
C165 C166 1.396 . S
C165 C172 1.403 . S
C166 C156 1.476 . S
C166 N161 1.318 . S
C166 C165 1.396 . S
H167 C162 0.929 . S
O168 Mn144 2.385 . S
O168 C146 1.234 . S
O169 Mn144 2.209 . S
O169 Mn145 2.215 . S
O169 C146 1.283 . S
O170 Mn144 2.094 . S
O170 C148 1.240 . S
O171 Mn145 2.117 . S
O171 C148 1.264 . S
C172 C165 1.403 . S
C172 C173 1.399 . S
C172 H178 0.929 . S
C173 C153 1.449 . S
C173 C172 1.399 . S
C173 H179 0.930 . S
H174 C154 0.931 . S
H175 C155 0.930 . S
H176 C163 0.931 . S
H177 C164 0.929 . S
H178 C172 0.929 . S
H179 C173 0.930 . S
Mn180 O185 2.095 . S
Mn180 O195 2.162 . S
Mn180 O196 2.297 . S
Mn180 O204 2.385 . S
Mn180 O205 2.209 . S
Mn180 O206 2.094 . S
Mn181 O186 2.121 . S
Mn181 N188 2.257 . S
Mn181 N197 2.282 . S
Mn181 O205 2.215 . S
Mn181 O207 2.117 . S
C182 O204 1.234 . S
C182 O205 1.283 . S
C183 O195 1.281 . S
C183 O196 1.236 . S
C184 O206 1.240 . S
C184 O207 1.264 . S
O185 Mn180 2.095 . S
O185 C194 1.250 . S
O186 Mn181 2.121 . S
O186 C194 1.258 . S
C187 N188 1.326 . S
C187 C191 1.460 . S
C187 H193 0.929 . S
N188 Mn181 2.257 . S
N188 C187 1.326 . S
N188 C192 1.362 . S
C189 C190 1.258 . S
C189 C192 1.431 . S
C189 C209 1.449 . S
C190 C189 1.258 . S
C190 C191 1.477 . S
C190 H210 0.931 . S
C191 C187 1.460 . S
C191 C190 1.477 . S
C191 H211 0.930 . S
C192 N188 1.362 . S
C192 C189 1.431 . S
C192 C202 1.476 . S
H193 C187 0.929 . S
C194 O185 1.250 . S
C194 O186 1.258 . S
O195 Mn180 2.162 . S
O195 C183 1.281 . S
O196 Mn180 2.297 . S
O196 C183 1.236 . S
N197 Mn181 2.282 . S
N197 C198 1.328 . S
N197 C202 1.318 . S
C198 N197 1.328 . S
C198 C199 1.457 . S
C198 H203 0.929 . S
C199 C198 1.457 . S
C199 C200 1.291 . S
C199 H212 0.931 . S
C200 C199 1.291 . S
C200 C201 1.373 . S
C200 H213 0.929 . S
C201 C200 1.373 . S
C201 C202 1.396 . S
C201 C208 1.403 . S
C202 C192 1.476 . S
C202 N197 1.318 . S
C202 C201 1.396 . S
H203 C198 0.929 . S
O204 Mn180 2.385 . S
O204 C182 1.234 . S
O205 Mn180 2.209 . S
O205 Mn181 2.215 . S
O205 C182 1.283 . S
O206 Mn180 2.094 . S
O206 C184 1.240 . S
O207 Mn181 2.117 . S
O207 C184 1.264 . S
C208 C201 1.403 . S
C208 C209 1.399 . S
C208 H214 0.929 . S
C209 C189 1.449 . S
C209 C208 1.399 . S
C209 H215 0.930 . S
H210 C190 0.931 . S
H211 C191 0.930 . S
H212 C199 0.931 . S
H213 C200 0.929 . S
H214 C208 0.929 . S
H215 C209 0.930 . S
Mn216 O221 2.095 . S
Mn216 O231 2.162 . S
Mn216 O232 2.297 . S
Mn216 O240 2.385 . S
Mn216 O241 2.209 . S
Mn216 O242 2.094 . S
Mn217 O222 2.121 . S
Mn217 N224 2.257 . S
Mn217 N233 2.282 . S
Mn217 O241 2.215 . S
Mn217 O243 2.117 . S
C218 O240 1.234 . S
C218 O241 1.283 . S
C219 O231 1.281 . S
C219 O232 1.236 . S
C220 O242 1.240 . S
C220 O243 1.264 . S
O221 Mn216 2.095 . S
O221 C230 1.250 . S
O222 Mn217 2.121 . S
O222 C230 1.258 . S
C223 N224 1.326 . S
C223 C227 1.460 . S
C223 H229 0.929 . S
N224 Mn217 2.257 . S
N224 C223 1.326 . S
N224 C228 1.362 . S
C225 C226 1.258 . S
C225 C228 1.431 . S
C225 C245 1.449 . S
C226 C225 1.258 . S
C226 C227 1.477 . S
C226 H246 0.931 . S
C227 C223 1.460 . S
C227 C226 1.477 . S
C227 H247 0.930 . S
C228 N224 1.362 . S
C228 C225 1.431 . S
C228 C238 1.476 . S
H229 C223 0.929 . S
C230 O221 1.250 . S
C230 O222 1.258 . S
O231 Mn216 2.162 . S
O231 C219 1.281 . S
O232 Mn216 2.297 . S
O232 C219 1.236 . S
N233 Mn217 2.282 . S
N233 C234 1.328 . S
N233 C238 1.318 . S
C234 N233 1.328 . S
C234 C235 1.457 . S
C234 H239 0.929 . S
C235 C234 1.457 . S
C235 C236 1.291 . S
C235 H248 0.931 . S
C236 C235 1.291 . S
C236 C237 1.373 . S
C236 H249 0.929 . S
C237 C236 1.373 . S
C237 C238 1.396 . S
C237 C244 1.403 . S
C238 C228 1.476 . S
C238 N233 1.318 . S
C238 C237 1.396 . S
H239 C234 0.929 . S
O240 Mn216 2.385 . S
O240 C218 1.234 . S
O241 Mn216 2.209 . S
O241 Mn217 2.215 . S
O241 C218 1.283 . S
O242 Mn216 2.094 . S
O242 C220 1.240 . S
O243 Mn217 2.117 . S
O243 C220 1.264 . S
C244 C237 1.403 . S
C244 C245 1.399 . S
C244 H250 0.929 . S
C245 C225 1.449 . S
C245 C244 1.399 . S
C245 H251 0.930 . S
H246 C226 0.931 . S
H247 C227 0.930 . S
H248 C235 0.931 . S
H249 C236 0.929 . S
H250 C244 0.929 . S
H251 C245 0.930 . S
Mn252 O257 2.095 . S
Mn252 O267 2.162 . S
Mn252 O268 2.297 . S
Mn252 O276 2.385 . S
Mn252 O277 2.209 . S
Mn252 O278 2.094 . S
Mn253 O258 2.121 . S
Mn253 N260 2.257 . S
Mn253 N269 2.282 . S
Mn253 O277 2.215 . S
Mn253 O279 2.117 . S
C254 O276 1.234 . S
C254 O277 1.283 . S
C255 O267 1.281 . S
C255 O268 1.236 . S
C256 O278 1.240 . S
C256 O279 1.264 . S
O257 Mn252 2.095 . S
O257 C266 1.250 . S
O258 Mn253 2.121 . S
O258 C266 1.258 . S
C259 N260 1.326 . S
C259 C263 1.460 . S
C259 H265 0.929 . S
N260 Mn253 2.257 . S
N260 C259 1.326 . S
N260 C264 1.362 . S
C261 C262 1.258 . S
C261 C264 1.431 . S
C261 C281 1.449 . S
C262 C261 1.258 . S
C262 C263 1.477 . S
C262 H282 0.931 . S
C263 C259 1.460 . S
C263 C262 1.477 . S
C263 H283 0.930 . S
C264 N260 1.362 . S
C264 C261 1.431 . S
C264 C274 1.476 . S
H265 C259 0.929 . S
C266 O257 1.250 . S
C266 O258 1.258 . S
O267 Mn252 2.162 . S
O267 C255 1.281 . S
O268 Mn252 2.297 . S
O268 C255 1.236 . S
N269 Mn253 2.282 . S
N269 C270 1.328 . S
N269 C274 1.318 . S
C270 N269 1.328 . S
C270 C271 1.457 . S
C270 H275 0.929 . S
C271 C270 1.457 . S
C271 C272 1.291 . S
C271 H284 0.931 . S
C272 C271 1.291 . S
C272 C273 1.373 . S
C272 H285 0.929 . S
C273 C272 1.373 . S
C273 C274 1.396 . S
C273 C280 1.403 . S
C274 C264 1.476 . S
C274 N269 1.318 . S
C274 C273 1.396 . S
H275 C270 0.929 . S
O276 Mn252 2.385 . S
O276 C254 1.234 . S
O277 Mn252 2.209 . S
O277 Mn253 2.215 . S
O277 C254 1.283 . S
O278 Mn252 2.094 . S
O278 C256 1.240 . S
O279 Mn253 2.117 . S
O279 C256 1.264 . S
C280 C273 1.403 . S
C280 C281 1.399 . S
C280 H286 0.929 . S
C281 C261 1.449 . S
C281 C280 1.399 . S
C281 H287 0.930 . S
H282 C262 0.931 . S
H283 C263 0.930 . S
H284 C271 0.931 . S
H285 C272 0.929 . S
H286 C280 0.929 . S
H287 C281 0.930 . S
Mn288 O293 2.095 . S
Mn288 O303 2.162 . S
Mn288 O304 2.297 . S
Mn288 O312 2.385 . S
Mn288 O313 2.209 . S
Mn288 O314 2.094 . S
Mn289 O294 2.121 . S
Mn289 N296 2.257 . S
Mn289 N305 2.282 . S
Mn289 O313 2.215 . S
Mn289 O315 2.117 . S
C290 O312 1.234 . S
C290 O313 1.283 . S
C291 O303 1.281 . S
C291 O304 1.236 . S
C292 O314 1.240 . S
C292 O315 1.264 . S
O293 Mn288 2.095 . S
O293 C302 1.250 . S
O294 Mn289 2.121 . S
O294 C302 1.258 . S
C295 N296 1.326 . S
C295 C299 1.460 . S
C295 H301 0.929 . S
N296 Mn289 2.257 . S
N296 C295 1.326 . S
N296 C300 1.362 . S
C297 C298 1.258 . S
C297 C300 1.431 . S
C297 C317 1.449 . S
C298 C297 1.258 . S
C298 C299 1.477 . S
C298 H318 0.931 . S
C299 C295 1.460 . S
C299 C298 1.477 . S
C299 H319 0.930 . S
C300 N296 1.362 . S
C300 C297 1.431 . S
C300 C310 1.476 . S
H301 C295 0.929 . S
C302 O293 1.250 . S
C302 O294 1.258 . S
O303 Mn288 2.162 . S
O303 C291 1.281 . S
O304 Mn288 2.297 . S
O304 C291 1.236 . S
N305 Mn289 2.282 . S
N305 C306 1.328 . S
N305 C310 1.318 . S
C306 N305 1.328 . S
C306 C307 1.457 . S
C306 H311 0.929 . S
C307 C306 1.457 . S
C307 C308 1.291 . S
C307 H320 0.931 . S
C308 C307 1.291 . S
C308 C309 1.373 . S
C308 H321 0.929 . S
C309 C308 1.373 . S
C309 C310 1.396 . S
C309 C316 1.403 . S
C310 C300 1.476 . S
C310 N305 1.318 . S
C310 C309 1.396 . S
H311 C306 0.929 . S
O312 Mn288 2.385 . S
O312 C290 1.234 . S
O313 Mn288 2.209 . S
O313 Mn289 2.215 . S
O313 C290 1.283 . S
O314 Mn288 2.094 . S
O314 C292 1.240 . S
O315 Mn289 2.117 . S
O315 C292 1.264 . S
C316 C309 1.403 . S
C316 C317 1.399 . S
C316 H322 0.929 . S
C317 C297 1.449 . S
C317 C316 1.399 . S
C317 H323 0.930 . S
H318 C298 0.931 . S
H319 C299 0.930 . S
H320 C307 0.931 . S
H321 C308 0.929 . S
H322 C316 0.929 . S
H323 C317 0.930 . S
Mn324 O329 2.095 . S
Mn324 O339 2.162 . S
Mn324 O340 2.297 . S
Mn324 O348 2.385 . S
Mn324 O349 2.209 . S
Mn324 O350 2.094 . S
Mn325 O330 2.121 . S
Mn325 N332 2.257 . S
Mn325 N341 2.282 . S
Mn325 O349 2.215 . S
Mn325 O351 2.117 . S
C326 O348 1.234 . S
C326 O349 1.283 . S
C327 O339 1.281 . S
C327 O340 1.236 . S
C328 O350 1.240 . S
C328 O351 1.264 . S
O329 Mn324 2.095 . S
O329 C338 1.250 . S
O330 Mn325 2.121 . S
O330 C338 1.258 . S
C331 N332 1.326 . S
C331 C335 1.460 . S
C331 H337 0.929 . S
N332 Mn325 2.257 . S
N332 C331 1.326 . S
N332 C336 1.362 . S
C333 C334 1.258 . S
C333 C336 1.431 . S
C333 C353 1.449 . S
C334 C333 1.258 . S
C334 C335 1.477 . S
C334 H354 0.931 . S
C335 C331 1.460 . S
C335 C334 1.477 . S
C335 H355 0.930 . S
C336 N332 1.362 . S
C336 C333 1.431 . S
C336 C346 1.476 . S
H337 C331 0.929 . S
C338 O329 1.250 . S
C338 O330 1.258 . S
O339 Mn324 2.162 . S
O339 C327 1.281 . S
O340 Mn324 2.297 . S
O340 C327 1.236 . S
N341 Mn325 2.282 . S
N341 C342 1.328 . S
N341 C346 1.318 . S
C342 N341 1.328 . S
C342 C343 1.457 . S
C342 H347 0.929 . S
C343 C342 1.457 . S
C343 C344 1.291 . S
C343 H356 0.931 . S
C344 C343 1.291 . S
C344 C345 1.373 . S
C344 H357 0.929 . S
C345 C344 1.373 . S
C345 C346 1.396 . S
C345 C352 1.403 . S
C346 C336 1.476 . S
C346 N341 1.318 . S
C346 C345 1.396 . S
H347 C342 0.929 . S
O348 Mn324 2.385 . S
O348 C326 1.234 . S
O349 Mn324 2.209 . S
O349 Mn325 2.215 . S
O349 C326 1.283 . S
O350 Mn324 2.094 . S
O350 C328 1.240 . S
O351 Mn325 2.117 . S
O351 C328 1.264 . S
C352 C345 1.403 . S
C352 C353 1.399 . S
C352 H358 0.929 . S
C353 C333 1.449 . S
C353 C352 1.399 . S
C353 H359 0.930 . S
H354 C334 0.931 . S
H355 C335 0.930 . S
H356 C343 0.931 . S
H357 C344 0.929 . S
H358 C352 0.929 . S
H359 C353 0.930 . S
Mn360 O365 2.095 . S
Mn360 O375 2.162 . S
Mn360 O376 2.297 . S
Mn360 O384 2.385 . S
Mn360 O385 2.209 . S
Mn360 O386 2.094 . S
Mn361 O366 2.121 . S
Mn361 N368 2.257 . S
Mn361 N377 2.282 . S
Mn361 O385 2.215 . S
Mn361 O387 2.117 . S
C362 O384 1.234 . S
C362 O385 1.283 . S
C363 O375 1.281 . S
C363 O376 1.236 . S
C364 O386 1.240 . S
C364 O387 1.264 . S
O365 Mn360 2.095 . S
O365 C374 1.250 . S
O366 Mn361 2.121 . S
O366 C374 1.258 . S
C367 N368 1.326 . S
C367 C371 1.460 . S
C367 H373 0.929 . S
N368 Mn361 2.257 . S
N368 C367 1.326 . S
N368 C372 1.362 . S
C369 C370 1.258 . S
C369 C372 1.431 . S
C369 C389 1.449 . S
C370 C369 1.258 . S
C370 C371 1.477 . S
C370 H390 0.931 . S
C371 C367 1.460 . S
C371 C370 1.477 . S
C371 H391 0.930 . S
C372 N368 1.362 . S
C372 C369 1.431 . S
C372 C382 1.476 . S
H373 C367 0.929 . S
C374 O365 1.250 . S
C374 O366 1.258 . S
O375 Mn360 2.162 . S
O375 C363 1.281 . S
O376 Mn360 2.297 . S
O376 C363 1.236 . S
N377 Mn361 2.282 . S
N377 C378 1.328 . S
N377 C382 1.318 . S
C378 N377 1.328 . S
C378 C379 1.457 . S
C378 H383 0.929 . S
C379 C378 1.457 . S
C379 C380 1.291 . S
C379 H392 0.931 . S
C380 C379 1.291 . S
C380 C381 1.373 . S
C380 H393 0.929 . S
C381 C380 1.373 . S
C381 C382 1.396 . S
C381 C388 1.403 . S
C382 C372 1.476 . S
C382 N377 1.318 . S
C382 C381 1.396 . S
H383 C378 0.929 . S
O384 Mn360 2.385 . S
O384 C362 1.234 . S
O385 Mn360 2.209 . S
O385 Mn361 2.215 . S
O385 C362 1.283 . S
O386 Mn360 2.094 . S
O386 C364 1.240 . S
O387 Mn361 2.117 . S
O387 C364 1.264 . S
C388 C381 1.403 . S
C388 C389 1.399 . S
C388 H394 0.929 . S
C389 C369 1.449 . S
C389 C388 1.399 . S
C389 H395 0.930 . S
H390 C370 0.931 . S
H391 C371 0.930 . S
H392 C379 0.931 . S
H393 C380 0.929 . S
H394 C388 0.929 . S
H395 C389 0.930 . S
Mn396 O401 2.095 . S
Mn396 O411 2.162 . S
Mn396 O412 2.297 . S
Mn396 O420 2.385 . S
Mn396 O421 2.209 . S
Mn396 O422 2.094 . S
Mn397 O402 2.121 . S
Mn397 N404 2.257 . S
Mn397 N413 2.282 . S
Mn397 O421 2.215 . S
Mn397 O423 2.117 . S
C398 O420 1.234 . S
C398 O421 1.283 . S
C399 O411 1.281 . S
C399 O412 1.236 . S
C400 O422 1.240 . S
C400 O423 1.264 . S
O401 Mn396 2.095 . S
O401 C410 1.250 . S
O402 Mn397 2.121 . S
O402 C410 1.258 . S
C403 N404 1.326 . S
C403 C407 1.460 . S
C403 H409 0.929 . S
N404 Mn397 2.257 . S
N404 C403 1.326 . S
N404 C408 1.362 . S
C405 C406 1.258 . S
C405 C408 1.431 . S
C405 C425 1.449 . S
C406 C405 1.258 . S
C406 C407 1.477 . S
C406 H426 0.931 . S
C407 C403 1.460 . S
C407 C406 1.477 . S
C407 H427 0.930 . S
C408 N404 1.362 . S
C408 C405 1.431 . S
C408 C418 1.476 . S
H409 C403 0.929 . S
C410 O401 1.250 . S
C410 O402 1.258 . S
O411 Mn396 2.162 . S
O411 C399 1.281 . S
O412 Mn396 2.297 . S
O412 C399 1.236 . S
N413 Mn397 2.282 . S
N413 C414 1.328 . S
N413 C418 1.318 . S
C414 N413 1.328 . S
C414 C415 1.457 . S
C414 H419 0.929 . S
C415 C414 1.457 . S
C415 C416 1.291 . S
C415 H428 0.931 . S
C416 C415 1.291 . S
C416 C417 1.373 . S
C416 H429 0.929 . S
C417 C416 1.373 . S
C417 C418 1.396 . S
C417 C424 1.403 . S
C418 C408 1.476 . S
C418 N413 1.318 . S
C418 C417 1.396 . S
H419 C414 0.929 . S
O420 Mn396 2.385 . S
O420 C398 1.234 . S
O421 Mn396 2.209 . S
O421 Mn397 2.215 . S
O421 C398 1.283 . S
O422 Mn396 2.094 . S
O422 C400 1.240 . S
O423 Mn397 2.117 . S
O423 C400 1.264 . S
C424 C417 1.403 . S
C424 C425 1.399 . S
C424 H430 0.929 . S
C425 C405 1.449 . S
C425 C424 1.399 . S
C425 H431 0.930 . S
H426 C406 0.931 . S
H427 C407 0.930 . S
H428 C415 0.931 . S
H429 C416 0.929 . S
H430 C424 0.929 . S
H431 C425 0.930 . S
Mn432 O437 2.095 . S
Mn432 O447 2.162 . S
Mn432 O448 2.297 . S
Mn432 O456 2.385 . S
Mn432 O457 2.209 . S
Mn432 O458 2.094 . S
Mn433 O438 2.121 . S
Mn433 N440 2.257 . S
Mn433 N449 2.282 . S
Mn433 O457 2.215 . S
Mn433 O459 2.117 . S
C434 O456 1.234 . S
C434 O457 1.283 . S
C435 O447 1.281 . S
C435 O448 1.236 . S
C436 O458 1.240 . S
C436 O459 1.264 . S
O437 Mn432 2.095 . S
O437 C446 1.250 . S
O438 Mn433 2.121 . S
O438 C446 1.258 . S
C439 N440 1.326 . S
C439 C443 1.460 . S
C439 H445 0.929 . S
N440 Mn433 2.257 . S
N440 C439 1.326 . S
N440 C444 1.362 . S
C441 C442 1.258 . S
C441 C444 1.431 . S
C441 C461 1.449 . S
C442 C441 1.258 . S
C442 C443 1.477 . S
C442 H462 0.931 . S
C443 C439 1.460 . S
C443 C442 1.477 . S
C443 H463 0.930 . S
C444 N440 1.362 . S
C444 C441 1.431 . S
C444 C454 1.476 . S
H445 C439 0.929 . S
C446 O437 1.250 . S
C446 O438 1.258 . S
O447 Mn432 2.162 . S
O447 C435 1.281 . S
O448 Mn432 2.297 . S
O448 C435 1.236 . S
N449 Mn433 2.282 . S
N449 C450 1.328 . S
N449 C454 1.318 . S
C450 N449 1.328 . S
C450 C451 1.457 . S
C450 H455 0.929 . S
C451 C450 1.457 . S
C451 C452 1.291 . S
C451 H464 0.931 . S
C452 C451 1.291 . S
C452 C453 1.373 . S
C452 H465 0.929 . S
C453 C452 1.373 . S
C453 C454 1.396 . S
C453 C460 1.403 . S
C454 C444 1.476 . S
C454 N449 1.318 . S
C454 C453 1.396 . S
H455 C450 0.929 . S
O456 Mn432 2.385 . S
O456 C434 1.234 . S
O457 Mn432 2.209 . S
O457 Mn433 2.215 . S
O457 C434 1.283 . S
O458 Mn432 2.094 . S
O458 C436 1.240 . S
O459 Mn433 2.117 . S
O459 C436 1.264 . S
C460 C453 1.403 . S
C460 C461 1.399 . S
C460 H466 0.929 . S
C461 C441 1.449 . S
C461 C460 1.399 . S
C461 H467 0.930 . S
H462 C442 0.931 . S
H463 C443 0.930 . S
H464 C451 0.931 . S
H465 C452 0.929 . S
H466 C460 0.929 . S
H467 C461 0.930 . S
Mn468 O473 2.095 . S
Mn468 O483 2.162 . S
Mn468 O484 2.297 . S
Mn468 O492 2.385 . S
Mn468 O493 2.209 . S
Mn468 O494 2.094 . S
Mn469 O474 2.121 . S
Mn469 N476 2.257 . S
Mn469 N485 2.282 . S
Mn469 O493 2.215 . S
Mn469 O495 2.117 . S
C470 O492 1.234 . S
C470 O493 1.283 . S
C471 O483 1.281 . S
C471 O484 1.236 . S
C472 O494 1.240 . S
C472 O495 1.264 . S
O473 Mn468 2.095 . S
O473 C482 1.250 . S
O474 Mn469 2.121 . S
O474 C482 1.258 . S
C475 N476 1.326 . S
C475 C479 1.460 . S
C475 H481 0.929 . S
N476 Mn469 2.257 . S
N476 C475 1.326 . S
N476 C480 1.362 . S
C477 C478 1.258 . S
C477 C480 1.431 . S
C477 C497 1.449 . S
C478 C477 1.258 . S
C478 C479 1.477 . S
C478 H498 0.931 . S
C479 C475 1.460 . S
C479 C478 1.477 . S
C479 H499 0.930 . S
C480 N476 1.362 . S
C480 C477 1.431 . S
C480 C490 1.476 . S
H481 C475 0.929 . S
C482 O473 1.250 . S
C482 O474 1.258 . S
O483 Mn468 2.162 . S
O483 C471 1.281 . S
O484 Mn468 2.297 . S
O484 C471 1.236 . S
N485 Mn469 2.282 . S
N485 C486 1.328 . S
N485 C490 1.318 . S
C486 N485 1.328 . S
C486 C487 1.457 . S
C486 H491 0.929 . S
C487 C486 1.457 . S
C487 C488 1.291 . S
C487 H500 0.931 . S
C488 C487 1.291 . S
C488 C489 1.373 . S
C488 H501 0.929 . S
C489 C488 1.373 . S
C489 C490 1.396 . S
C489 C496 1.403 . S
C490 C480 1.476 . S
C490 N485 1.318 . S
C490 C489 1.396 . S
H491 C486 0.929 . S
O492 Mn468 2.385 . S
O492 C470 1.234 . S
O493 Mn468 2.209 . S
O493 Mn469 2.215 . S
O493 C470 1.283 . S
O494 Mn468 2.094 . S
O494 C472 1.240 . S
O495 Mn469 2.117 . S
O495 C472 1.264 . S
C496 C489 1.403 . S
C496 C497 1.399 . S
C496 H502 0.929 . S
C497 C477 1.449 . S
C497 C496 1.399 . S
C497 H503 0.930 . S
H498 C478 0.931 . S
H499 C479 0.930 . S
H500 C487 0.931 . S
H501 C488 0.929 . S
H502 C496 0.929 . S
H503 C497 0.930 . S
Mn504 O509 2.095 . S
Mn504 O519 2.162 . S
Mn504 O520 2.297 . S
Mn504 O528 2.385 . S
Mn504 O529 2.209 . S
Mn504 O530 2.094 . S
Mn505 O510 2.121 . S
Mn505 N512 2.257 . S
Mn505 N521 2.282 . S
Mn505 O529 2.215 . S
Mn505 O531 2.117 . S
C506 O528 1.234 . S
C506 O529 1.283 . S
C507 O519 1.281 . S
C507 O520 1.236 . S
C508 O530 1.240 . S
C508 O531 1.264 . S
O509 Mn504 2.095 . S
O509 C518 1.250 . S
O510 Mn505 2.121 . S
O510 C518 1.258 . S
C511 N512 1.326 . S
C511 C515 1.460 . S
C511 H517 0.929 . S
N512 Mn505 2.257 . S
N512 C511 1.326 . S
N512 C516 1.362 . S
C513 C514 1.258 . S
C513 C516 1.431 . S
C513 C533 1.449 . S
C514 C513 1.258 . S
C514 C515 1.477 . S
C514 H534 0.931 . S
C515 C511 1.460 . S
C515 C514 1.477 . S
C515 H535 0.930 . S
C516 N512 1.362 . S
C516 C513 1.431 . S
C516 C526 1.476 . S
H517 C511 0.929 . S
C518 O509 1.250 . S
C518 O510 1.258 . S
O519 Mn504 2.162 . S
O519 C507 1.281 . S
O520 Mn504 2.297 . S
O520 C507 1.236 . S
N521 Mn505 2.282 . S
N521 C522 1.328 . S
N521 C526 1.318 . S
C522 N521 1.328 . S
C522 C523 1.457 . S
C522 H527 0.929 . S
C523 C522 1.457 . S
C523 C524 1.291 . S
C523 H536 0.931 . S
C524 C523 1.291 . S
C524 C525 1.373 . S
C524 H537 0.929 . S
C525 C524 1.373 . S
C525 C526 1.396 . S
C525 C532 1.403 . S
C526 C516 1.476 . S
C526 N521 1.318 . S
C526 C525 1.396 . S
H527 C522 0.929 . S
O528 Mn504 2.385 . S
O528 C506 1.234 . S
O529 Mn504 2.209 . S
O529 Mn505 2.215 . S
O529 C506 1.283 . S
O530 Mn504 2.094 . S
O530 C508 1.240 . S
O531 Mn505 2.117 . S
O531 C508 1.264 . S
C532 C525 1.403 . S
C532 C533 1.399 . S
C532 H538 0.929 . S
C533 C513 1.449 . S
C533 C532 1.399 . S
C533 H539 0.930 . S
H534 C514 0.931 . S
H535 C515 0.930 . S
H536 C523 0.931 . S
H537 C524 0.929 . S
H538 C532 0.929 . S
H539 C533 0.930 . S
Mn540 O545 2.095 . S
Mn540 O555 2.162 . S
Mn540 O556 2.297 . S
Mn540 O564 2.385 . S
Mn540 O565 2.209 . S
Mn540 O566 2.094 . S
Mn541 O546 2.121 . S
Mn541 N548 2.257 . S
Mn541 N557 2.282 . S
Mn541 O565 2.215 . S
Mn541 O567 2.117 . S
C542 O564 1.234 . S
C542 O565 1.283 . S
C543 O555 1.281 . S
C543 O556 1.236 . S
C544 O566 1.240 . S
C544 O567 1.264 . S
O545 Mn540 2.095 . S
O545 C554 1.250 . S
O546 Mn541 2.121 . S
O546 C554 1.258 . S
C547 N548 1.326 . S
C547 C551 1.460 . S
C547 H553 0.929 . S
N548 Mn541 2.257 . S
N548 C547 1.326 . S
N548 C552 1.362 . S
C549 C550 1.258 . S
C549 C552 1.431 . S
C549 C569 1.449 . S
C550 C549 1.258 . S
C550 C551 1.477 . S
C550 H570 0.931 . S
C551 C547 1.460 . S
C551 C550 1.477 . S
C551 H571 0.930 . S
C552 N548 1.362 . S
C552 C549 1.431 . S
C552 C562 1.476 . S
H553 C547 0.929 . S
C554 O545 1.250 . S
C554 O546 1.258 . S
O555 Mn540 2.162 . S
O555 C543 1.281 . S
O556 Mn540 2.297 . S
O556 C543 1.236 . S
N557 Mn541 2.282 . S
N557 C558 1.328 . S
N557 C562 1.318 . S
C558 N557 1.328 . S
C558 C559 1.457 . S
C558 H563 0.929 . S
C559 C558 1.457 . S
C559 C560 1.291 . S
C559 H572 0.931 . S
C560 C559 1.291 . S
C560 C561 1.373 . S
C560 H573 0.929 . S
C561 C560 1.373 . S
C561 C562 1.396 . S
C561 C568 1.403 . S
C562 C552 1.476 . S
C562 N557 1.318 . S
C562 C561 1.396 . S
H563 C558 0.929 . S
O564 Mn540 2.385 . S
O564 C542 1.234 . S
O565 Mn540 2.209 . S
O565 Mn541 2.215 . S
O565 C542 1.283 . S
O566 Mn540 2.094 . S
O566 C544 1.240 . S
O567 Mn541 2.117 . S
O567 C544 1.264 . S
C568 C561 1.403 . S
C568 C569 1.399 . S
C568 H574 0.929 . S
C569 C549 1.449 . S
C569 C568 1.399 . S
C569 H575 0.930 . S
H570 C550 0.931 . S
H571 C551 0.930 . S
H572 C559 0.931 . S
H573 C560 0.929 . S
H574 C568 0.929 . S
H575 C569 0.930 . S
C576 C577 1.349 . S
C576 C578 1.327 . S
C576 H601 0.950 . S
C577 C576 1.349 . S
C577 C593 1.349 . S
C578 C576 1.327 . S
C578 C597 1.429 . S
C578 H602 0.950 . S
C579 C596 1.574 . S
C579 C598 1.368 1_556 S
C579 H603 0.949 . S
H580 C584 0.949 . S
C581 C582 1.349 . S
C581 C583 1.327 . S
C581 H604 0.950 . S
C582 C581 1.349 . S
C582 C594 1.349 . S
C583 C581 1.327 . S
C583 C599 1.429 . S
C583 H605 0.950 . S
C584 H580 0.949 . S
C584 C592 1.574 . S
C584 C600 1.368 1_554 S
H585 C593 0.950 . S
H586 C591 0.950 . S
H587 C592 0.949 . S
H588 C594 0.950 . S
H589 C595 0.950 1_554 S
H590 C596 0.949 . S
C591 H586 0.950 . S
C591 C593 1.327 . S
C591 C597 1.429 . S
C592 C584 1.574 . S
C592 H587 0.949 . S
C592 C598 1.368 . S
C593 C577 1.349 . S
C593 H585 0.950 . S
C593 C591 1.327 . S
C594 C582 1.349 . S
C594 H588 0.950 . S
C594 C595 1.327 . S
C595 H589 0.950 1_556 S
C595 C594 1.327 . S
C595 C599 1.429 . S
C596 C579 1.574 . S
C596 H590 0.949 . S
C596 C600 1.368 . S
C597 C578 1.429 . S
C597 C591 1.429 . S
C597 C598 1.523 . S
C598 C579 1.368 1_554 S
C598 C592 1.368 . S
C598 C597 1.523 . S
C599 C583 1.429 . S
C599 C595 1.429 . S
C599 C600 1.523 . S
C600 C584 1.368 1_556 S
C600 C596 1.368 . S
C600 C599 1.523 . S
H601 C576 0.950 . S
H602 C578 0.950 . S
H603 C579 0.949 . S
H604 C581 0.950 . S
H605 C583 0.950 . S
C606 C607 1.349 . S
C606 C608 1.327 . S
C606 H631 0.950 . S
C607 C606 1.349 . S
C607 C623 1.349 . S
C608 C606 1.327 . S
C608 C627 1.429 . S
C608 H632 0.950 . S
C609 C626 1.574 . S
C609 C628 1.368 . S
C609 H633 0.949 . S
H610 C614 0.949 . S
C611 C612 1.349 . S
C611 C613 1.327 . S
C611 H634 0.950 . S
C612 C611 1.349 . S
C612 C624 1.349 . S
C613 C611 1.327 . S
C613 C629 1.429 . S
C613 H635 0.950 . S
C614 H610 0.949 . S
C614 C622 1.574 . S
C614 C630 1.368 . S
H615 C623 0.950 . S
H616 C621 0.950 . S
H617 C622 0.949 . S
H618 C624 0.950 . S
H619 C625 0.950 . S
H620 C626 0.949 . S
C621 H616 0.950 . S
C621 C623 1.327 . S
C621 C627 1.429 . S
C622 C614 1.574 . S
C622 H617 0.949 . S
C622 C628 1.368 . S
C623 C607 1.349 . S
C623 H615 0.950 . S
C623 C621 1.327 . S
C624 C612 1.349 . S
C624 H618 0.950 . S
C624 C625 1.327 . S
C625 H619 0.950 . S
C625 C624 1.327 . S
C625 C629 1.429 . S
C626 C609 1.574 . S
C626 H620 0.949 . S
C626 C630 1.368 . S
C627 C608 1.429 . S
C627 C621 1.429 . S
C627 C628 1.523 . S
C628 C609 1.368 . S
C628 C622 1.368 . S
C628 C627 1.523 . S
C629 C613 1.429 . S
C629 C625 1.429 . S
C629 C630 1.523 . S
C630 C614 1.368 . S
C630 C626 1.368 . S
C630 C629 1.523 . S
H631 C606 0.950 . S
H632 C608 0.950 . S
H633 C609 0.949 . S
H634 C611 0.950 . S
H635 C613 0.950 . S
C636 C637 1.349 . S
C636 C638 1.327 . S
C636 H661 0.950 . S
C637 C636 1.349 . S
C637 C653 1.349 . S
C638 C636 1.327 . S
C638 C657 1.429 . S
C638 H662 0.950 . S
C639 C656 1.563 1_556 S
C639 C658 1.383 . S
C639 H663 0.946 1_556 S
H640 C644 0.949 . S
C641 C642 1.349 . S
C641 C643 1.327 . S
C641 H664 0.950 . S
C642 C641 1.349 . S
C642 C654 1.349 . S
C643 C641 1.327 . S
C643 C659 1.429 . S
C643 H665 0.950 . S
C644 H640 0.949 . S
C644 C652 1.574 . S
C644 C660 1.368 1_556 S
H645 C653 0.950 . S
H646 C651 0.950 . S
H647 C652 0.949 . S
H648 C654 0.950 . S
H649 C655 0.950 . S
H650 C656 0.949 . S
C651 H646 0.950 . S
C651 C653 1.327 . S
C651 C657 1.429 . S
C652 C644 1.574 . S
C652 H647 0.949 . S
C652 C658 1.368 . S
C653 C637 1.349 . S
C653 H645 0.950 . S
C653 C651 1.327 . S
C654 C642 1.349 . S
C654 H648 0.950 . S
C654 C655 1.327 . S
C655 H649 0.950 . S
C655 C654 1.327 . S
C655 C659 1.429 . S
C656 C639 1.563 1_554 S
C656 H650 0.949 . S
C656 C660 1.368 . S
C657 C638 1.429 . S
C657 C651 1.429 . S
C657 C658 1.523 . S
C658 C639 1.383 . S
C658 C652 1.368 . S
C658 C657 1.523 . S
C659 C643 1.429 . S
C659 C655 1.429 . S
C659 C660 1.523 . S
C660 C644 1.368 1_554 S
C660 C656 1.368 . S
C660 C659 1.523 . S
H661 C636 0.950 . S
H662 C638 0.950 . S
H663 C639 0.946 1_554 S
H664 C641 0.950 . S
H665 C643 0.950 . S
C666 C667 1.349 . S
C666 C668 1.327 . S
C666 H691 0.950 . S
C667 C666 1.349 . S
C667 C683 1.349 . S
C668 C666 1.327 . S
C668 C687 1.429 . S
C668 H692 0.950 . S
C669 C686 1.574 . S
C669 C688 1.368 . S
C669 H693 0.949 . S
H670 C674 0.949 . S
C671 C672 1.349 . S
C671 C673 1.327 . S
C671 H694 0.950 . S
C672 C671 1.349 . S
C672 C684 1.349 . S
C673 C671 1.327 . S
C673 C689 1.429 . S
C673 H695 0.950 . S
C674 H670 0.949 . S
C674 C682 1.574 . S
C674 C690 1.368 . S
H675 C683 0.950 . S
H676 C681 0.950 . S
H677 C682 0.949 . S
H678 C684 0.950 . S
H679 C685 0.950 . S
H680 C686 0.949 . S
C681 H676 0.950 . S
C681 C683 1.327 . S
C681 C687 1.429 . S
C682 C674 1.574 . S
C682 H677 0.949 . S
C682 C688 1.368 . S
C683 C667 1.349 . S
C683 H675 0.950 . S
C683 C681 1.327 . S
C684 C672 1.349 . S
C684 H678 0.950 . S
C684 C685 1.327 . S
C685 H679 0.950 . S
C685 C684 1.327 . S
C685 C689 1.429 . S
C686 C669 1.574 . S
C686 H680 0.949 . S
C686 C690 1.368 . S
C687 C668 1.429 . S
C687 C681 1.429 . S
C687 C688 1.523 . S
C688 C669 1.368 . S
C688 C682 1.368 . S
C688 C687 1.523 . S
C689 C673 1.429 . S
C689 C685 1.429 . S
C689 C690 1.523 . S
C690 C674 1.368 . S
C690 C686 1.368 . S
C690 C689 1.523 . S
H691 C666 0.950 . S
H692 C668 0.950 . S
H693 C669 0.949 . S
H694 C671 0.950 . S
H695 C673 0.950 . S
C696 C697 1.349 . S
C696 C698 1.327 . S
C696 H721 0.950 . S
C697 C696 1.349 . S
C697 C713 1.349 . S
C698 C696 1.327 . S
C698 C717 1.429 . S
C698 H722 0.950 . S
C699 C716 1.574 . S
C699 C718 1.368 1_556 S
C699 H723 0.949 . S
H700 C704 0.949 . S
C701 C702 1.349 . S
C701 C703 1.327 . S
C701 H724 0.950 . S
C702 C701 1.349 . S
C702 C714 1.349 . S
C703 C701 1.327 . S
C703 C719 1.429 . S
C703 H725 0.950 . S
C704 H700 0.949 . S
C704 C712 1.574 . S
C704 C720 1.368 1_554 S
H705 C713 0.950 . S
H706 C711 0.950 . S
H707 C712 0.949 . S
H708 C714 0.950 . S
H709 C715 0.950 1_554 S
H710 C716 0.949 . S
C711 H706 0.950 . S
C711 C713 1.327 . S
C711 C717 1.429 . S
C712 C704 1.574 . S
C712 H707 0.949 . S
C712 C718 1.368 . S
C713 C697 1.349 . S
C713 H705 0.950 . S
C713 C711 1.327 . S
C714 C702 1.349 . S
C714 H708 0.950 . S
C714 C715 1.327 . S
C715 H709 0.950 1_556 S
C715 C714 1.327 . S
C715 C719 1.429 . S
C716 C699 1.574 . S
C716 H710 0.949 . S
C716 C720 1.368 . S
C717 C698 1.429 . S
C717 C711 1.429 . S
C717 C718 1.523 . S
C718 C699 1.368 1_554 S
C718 C712 1.368 . S
C718 C717 1.523 . S
C719 C703 1.429 . S
C719 C715 1.429 . S
C719 C720 1.523 . S
C720 C704 1.368 1_556 S
C720 C716 1.368 . S
C720 C719 1.523 . S
H721 C696 0.950 . S
H722 C698 0.950 . S
H723 C699 0.949 . S
H724 C701 0.950 . S
H725 C703 0.950 . S
C726 C727 1.349 . S
C726 C728 1.327 . S
C726 H751 0.950 . S
C727 C726 1.349 . S
C727 C743 1.349 . S
C728 C726 1.327 . S
C728 C747 1.429 . S
C728 H752 0.950 . S
C729 C746 1.574 . S
C729 C748 1.368 . S
C729 H753 0.949 . S
H730 C734 0.949 . S
C731 C732 1.349 . S
C731 C733 1.327 . S
C731 H754 0.950 . S
C732 C731 1.349 . S
C732 C744 1.349 . S
C733 C731 1.327 . S
C733 C749 1.429 . S
C733 H755 0.950 . S
C734 H730 0.949 . S
C734 C742 1.574 . S
C734 C750 1.368 . S
H735 C743 0.950 . S
H736 C741 0.950 . S
H737 C742 0.949 . S
H738 C744 0.950 . S
H739 C745 0.950 . S
H740 C746 0.949 . S
C741 H736 0.950 . S
C741 C743 1.327 . S
C741 C747 1.429 . S
C742 C734 1.574 . S
C742 H737 0.949 . S
C742 C748 1.368 . S
C743 C727 1.349 . S
C743 H735 0.950 . S
C743 C741 1.327 . S
C744 C732 1.349 . S
C744 H738 0.950 . S
C744 C745 1.327 . S
C745 H739 0.950 . S
C745 C744 1.327 . S
C745 C749 1.429 . S
C746 C729 1.574 . S
C746 H740 0.949 . S
C746 C750 1.368 . S
C747 C728 1.429 . S
C747 C741 1.429 . S
C747 C748 1.523 . S
C748 C729 1.368 . S
C748 C742 1.368 . S
C748 C747 1.523 . S
C749 C733 1.429 . S
C749 C745 1.429 . S
C749 C750 1.523 . S
C750 C734 1.368 . S
C750 C746 1.368 . S
C750 C749 1.523 . S
H751 C726 0.950 . S
H752 C728 0.950 . S
H753 C729 0.949 . S
H754 C731 0.950 . S
H755 C733 0.950 . S
C756 C757 1.349 . S
C756 C758 1.327 . S
C756 H781 0.950 . S
C757 C756 1.349 . S
C757 C773 1.349 . S
C758 C756 1.327 . S
C758 C777 1.429 . S
C758 H782 0.950 . S
C759 C776 1.574 . S
C759 C778 1.368 . S
C759 H783 0.949 . S
H760 C764 0.949 . S
C761 C762 1.349 . S
C761 C763 1.327 . S
C761 H784 0.950 . S
C762 C761 1.349 . S
C762 C774 1.349 . S
C763 C761 1.327 . S
C763 C779 1.429 . S
C763 H785 0.950 . S
C764 H760 0.949 . S
C764 C772 1.561 1_554 S
C764 C780 1.368 . S
H765 C773 0.950 . S
H766 C771 0.950 . S
H767 C772 0.945 1_554 S
H768 C774 0.950 . S
H769 C775 0.950 . S
H770 C776 0.949 . S
C771 H766 0.950 . S
C771 C773 1.327 . S
C771 C777 1.429 . S
C772 C764 1.561 1_556 S
C772 H767 0.945 1_556 S
C772 C778 1.386 . S
C773 C757 1.349 . S
C773 H765 0.950 . S
C773 C771 1.327 . S
C774 C762 1.349 . S
C774 H768 0.950 . S
C774 C775 1.327 . S
C775 H769 0.950 . S
C775 C774 1.327 . S
C775 C779 1.429 . S
C776 C759 1.574 . S
C776 H770 0.949 . S
C776 C780 1.368 1_556 S
C777 C758 1.429 . S
C777 C771 1.429 . S
C777 C778 1.523 . S
C778 C759 1.368 . S
C778 C772 1.386 . S
C778 C777 1.523 . S
C779 C763 1.429 . S
C779 C775 1.429 . S
C779 C780 1.523 . S
C780 C764 1.368 . S
C780 C776 1.368 1_554 S
C780 C779 1.523 . S
H781 C756 0.950 . S
H782 C758 0.950 . S
H783 C759 0.949 . S
H784 C761 0.950 . S
H785 C763 0.950 . S
C786 C787 1.349 . S
C786 C788 1.327 . S
C786 H811 0.950 . S
C787 C786 1.349 . S
C787 C803 1.349 . S
C788 C786 1.327 . S
C788 C807 1.429 . S
C788 H812 0.950 . S
C789 C806 1.574 . S
C789 C808 1.368 . S
C789 H813 0.949 . S
H790 C794 0.949 . S
C791 C792 1.349 . S
C791 C793 1.327 . S
C791 H814 0.950 . S
C792 C791 1.349 . S
C792 C804 1.349 . S
C793 C791 1.327 . S
C793 C809 1.429 . S
C793 H815 0.950 . S
C794 H790 0.949 . S
C794 C802 1.574 . S
C794 C810 1.368 . S
H795 C803 0.950 . S
H796 C801 0.950 . S
H797 C802 0.949 . S
H798 C804 0.950 . S
H799 C805 0.950 . S
H800 C806 0.949 . S
C801 H796 0.950 . S
C801 C803 1.327 . S
C801 C807 1.429 . S
C802 C794 1.574 . S
C802 H797 0.949 . S
C802 C808 1.368 . S
C803 C787 1.349 . S
C803 H795 0.950 . S
C803 C801 1.327 . S
C804 C792 1.349 . S
C804 H798 0.950 . S
C804 C805 1.327 . S
C805 H799 0.950 . S
C805 C804 1.327 . S
C805 C809 1.429 . S
C806 C789 1.574 . S
C806 H800 0.949 . S
C806 C810 1.368 . S
C807 C788 1.429 . S
C807 C801 1.429 . S
C807 C808 1.523 . S
C808 C789 1.368 . S
C808 C802 1.368 . S
C808 C807 1.523 . S
C809 C793 1.429 . S
C809 C805 1.429 . S
C809 C810 1.523 . S
C810 C794 1.368 . S
C810 C806 1.368 . S
C810 C809 1.523 . S
H811 C786 0.950 . S
H812 C788 0.950 . S
H813 C789 0.949 . S
H814 C791 0.950 . S
H815 C793 0.950 . S
C816 C817 1.349 . S
C816 C818 1.327 . S
C816 H841 0.950 . S
C817 C816 1.349 . S
C817 C833 1.349 . S
C818 C816 1.327 . S
C818 C837 1.429 . S
C818 H842 0.950 . S
C819 C836 1.586 . S
C819 C838 1.368 1_556 S
C819 H843 0.949 . S
H820 C824 0.949 . S
C821 C822 1.349 . S
C821 C823 1.327 . S
C821 H844 0.950 . S
C822 C821 1.349 . S
C822 C834 1.349 . S
C823 C821 1.327 . S
C823 C839 1.429 . S
C823 H845 0.950 . S
C824 H820 0.949 . S
C824 C832 1.586 . S
C824 C840 1.368 1_554 S
H825 C833 0.950 . S
H826 C831 0.950 . S
H827 C832 0.949 . S
H828 C834 0.950 . S
H829 C835 0.950 . S
H830 C836 0.949 . S
C831 H826 0.950 . S
C831 C833 1.327 . S
C831 C837 1.429 . S
C832 C824 1.586 . S
C832 H827 0.949 . S
C832 C838 1.357 1_565 S
C833 C817 1.349 . S
C833 H825 0.950 . S
C833 C831 1.327 . S
C834 C822 1.349 . S
C834 H828 0.950 . S
C834 C835 1.327 . S
C835 H829 0.950 . S
C835 C834 1.327 . S
C835 C839 1.429 . S
C836 C819 1.586 . S
C836 H830 0.949 . S
C836 C840 1.357 1_545 S
C837 C818 1.429 . S
C837 C831 1.429 . S
C837 C838 1.523 . S
C838 C819 1.368 1_554 S
C838 C832 1.357 1_545 S
C838 C837 1.523 . S
C839 C823 1.429 . S
C839 C835 1.429 . S
C839 C840 1.523 . S
C840 C824 1.368 1_556 S
C840 C836 1.357 1_565 S
C840 C839 1.523 . S
H841 C816 0.950 . S
H842 C818 0.950 . S
H843 C819 0.949 . S
H844 C821 0.950 . S
H845 C823 0.950 . S
C846 C847 1.349 . S
C846 C848 1.327 . S
C846 H871 0.950 . S
C847 C846 1.349 . S
C847 C863 1.349 . S
C848 C846 1.327 . S
C848 C867 1.429 . S
C848 H872 0.950 . S
C849 C866 1.574 1_565 S
C849 C868 1.368 . S
C849 H873 0.949 . S
H850 C854 0.949 . S
C851 C852 1.349 . S
C851 C853 1.327 . S
C851 H874 0.950 . S
C852 C851 1.349 . S
C852 C864 1.349 . S
C853 C851 1.327 . S
C853 C869 1.429 . S
C853 H875 0.950 . S
C854 H850 0.949 . S
C854 C862 1.574 1_545 S
C854 C870 1.368 . S
H855 C863 0.950 . S
H856 C861 0.950 . S
H857 C862 0.949 . S
H858 C864 0.950 . S
H859 C865 0.950 . S
H860 C866 0.949 . S
C861 H856 0.950 . S
C861 C863 1.327 . S
C861 C867 1.429 . S
C862 C854 1.574 1_565 S
C862 H857 0.949 . S
C862 C868 1.368 . S
C863 C847 1.349 . S
C863 H855 0.950 . S
C863 C861 1.327 . S
C864 C852 1.349 . S
C864 H858 0.950 . S
C864 C865 1.327 . S
C865 H859 0.950 . S
C865 C864 1.327 . S
C865 C869 1.429 . S
C866 C849 1.574 1_545 S
C866 H860 0.949 . S
C866 C870 1.368 . S
C867 C848 1.429 . S
C867 C861 1.429 . S
C867 C868 1.523 . S
C868 C849 1.368 . S
C868 C862 1.368 . S
C868 C867 1.523 . S
C869 C853 1.429 . S
C869 C865 1.429 . S
C869 C870 1.523 . S
C870 C854 1.368 . S
C870 C866 1.368 . S
C870 C869 1.523 . S
H871 C846 0.950 . S
H872 C848 0.950 . S
H873 C849 0.949 . S
H874 C851 0.950 . S
H875 C853 0.950 . S
C876 C877 1.349 . S
C876 C878 1.327 . S
C876 H901 0.950 . S
C877 C876 1.349 . S
C877 C893 1.349 . S
C878 C876 1.327 . S
C878 C897 1.429 . S
C878 H902 0.950 1_556 S
C879 C896 1.574 1_565 S
C879 C898 1.368 . S
C879 H903 0.949 . S
H880 C884 0.949 . S
C881 C882 1.349 . S
C881 C883 1.327 . S
C881 H904 0.950 . S
C882 C881 1.349 . S
C882 C894 1.349 . S
C883 C881 1.327 . S
C883 C899 1.429 . S
C883 H905 0.950 1_554 S
C884 H880 0.949 . S
C884 C892 1.574 1_545 S
C884 C900 1.368 . S
H885 C893 0.950 . S
H886 C891 0.950 . S
H887 C892 0.949 . S
H888 C894 0.950 . S
H889 C895 0.950 . S
H890 C896 0.949 . S
C891 H886 0.950 . S
C891 C893 1.327 . S
C891 C897 1.429 . S
C892 C884 1.574 1_565 S
C892 H887 0.949 . S
C892 C898 1.368 1_554 S
C893 C877 1.349 . S
C893 H885 0.950 . S
C893 C891 1.327 . S
C894 C882 1.349 . S
C894 H888 0.950 . S
C894 C895 1.327 . S
C895 H889 0.950 . S
C895 C894 1.327 . S
C895 C899 1.429 . S
C896 C879 1.574 1_545 S
C896 H890 0.949 . S
C896 C900 1.368 1_556 S
C897 C878 1.429 . S
C897 C891 1.429 . S
C897 C898 1.523 . S
C898 C879 1.368 . S
C898 C892 1.368 1_556 S
C898 C897 1.523 . S
C899 C883 1.429 . S
C899 C895 1.429 . S
C899 C900 1.523 . S
C900 C884 1.368 . S
C900 C896 1.368 1_554 S
C900 C899 1.523 . S
H901 C876 0.950 . S
H902 C878 0.950 1_554 S
H903 C879 0.949 . S
H904 C881 0.950 . S
H905 C883 0.950 1_556 S
C906 C907 1.349 . S
C906 C908 1.327 . S
C906 H931 0.950 . S
C907 C906 1.349 . S
C907 C923 1.349 . S
C908 C906 1.327 . S
C908 C927 1.429 . S
C908 H932 0.950 . S
C909 C926 1.574 1_545 S
C909 C928 1.368 . S
C909 H933 0.949 . S
H910 C914 0.949 . S
C911 C912 1.349 . S
C911 C913 1.327 . S
C911 H934 0.950 . S
C912 C911 1.349 . S
C912 C924 1.349 . S
C913 C911 1.327 . S
C913 C929 1.429 . S
C913 H935 0.950 . S
C914 H910 0.949 . S
C914 C922 1.574 1_565 S
C914 C930 1.368 . S
H915 C923 0.950 . S
H916 C921 0.950 . S
H917 C922 0.949 . S
H918 C924 0.950 . S
H919 C925 0.950 . S
H920 C926 0.949 . S
C921 H916 0.950 . S
C921 C923 1.327 . S
C921 C927 1.429 . S
C922 C914 1.574 1_545 S
C922 H917 0.949 . S
C922 C928 1.368 . S
C923 C907 1.349 . S
C923 H915 0.950 . S
C923 C921 1.327 . S
C924 C912 1.349 . S
C924 H918 0.950 . S
C924 C925 1.327 . S
C925 H919 0.950 . S
C925 C924 1.327 . S
C925 C929 1.429 . S
C926 C909 1.574 1_565 S
C926 H920 0.949 . S
C926 C930 1.368 . S
C927 C908 1.429 . S
C927 C921 1.429 . S
C927 C928 1.523 . S
C928 C909 1.368 . S
C928 C922 1.368 . S
C928 C927 1.523 . S
C929 C913 1.429 . S
C929 C925 1.429 . S
C929 C930 1.523 . S
C930 C914 1.368 . S
C930 C926 1.368 . S
C930 C929 1.523 . S
H931 C906 0.950 . S
H932 C908 0.950 . S
H933 C909 0.949 . S
H934 C911 0.950 . S
H935 C913 0.950 . S
C936 C937 1.349 . S
C936 C938 1.327 . S
C936 H961 0.950 . S
C937 C936 1.349 . S
C937 C953 1.349 . S
C938 C936 1.327 . S
C938 C957 1.429 . S
C938 H962 0.950 . S
C939 C956 1.574 . S
C939 C958 1.368 . S
C939 H963 0.949 . S
H940 C944 0.949 . S
C941 C942 1.349 . S
C941 C943 1.327 . S
C941 H964 0.950 . S
C942 C941 1.349 . S
C942 C954 1.349 . S
C943 C941 1.327 . S
C943 C959 1.429 . S
C943 H965 0.950 . S
C944 H940 0.949 . S
C944 C952 1.574 . S
C944 C960 1.368 . S
H945 C953 0.950 . S
H946 C951 0.950 . S
H947 C952 0.949 . S
H948 C954 0.950 . S
H949 C955 0.950 . S
H950 C956 0.949 . S
C951 H946 0.950 . S
C951 C953 1.327 . S
C951 C957 1.429 . S
C952 C944 1.574 . S
C952 H947 0.949 . S
C952 C958 1.368 1_554 S
C953 C937 1.349 . S
C953 H945 0.950 . S
C953 C951 1.327 . S
C954 C942 1.349 . S
C954 H948 0.950 . S
C954 C955 1.327 . S
C955 H949 0.950 . S
C955 C954 1.327 . S
C955 C959 1.429 . S
C956 C939 1.574 . S
C956 H950 0.949 . S
C956 C960 1.368 1_556 S
C957 C938 1.429 . S
C957 C951 1.429 . S
C957 C958 1.523 . S
C958 C939 1.368 . S
C958 C952 1.368 1_556 S
C958 C957 1.523 . S
C959 C943 1.429 . S
C959 C955 1.429 . S
C959 C960 1.523 . S
C960 C944 1.368 . S
C960 C956 1.368 1_554 S
C960 C959 1.523 . S
H961 C936 0.950 . S
H962 C938 0.950 . S
H963 C939 0.949 . S
H964 C941 0.950 . S
H965 C943 0.950 . S
C966 C967 1.349 . S
C966 C968 1.327 . S
C966 H991 0.950 . S
C967 C966 1.349 . S
C967 C983 1.349 . S
C968 C966 1.327 . S
C968 C987 1.429 . S
C968 H992 0.950 . S
C969 C986 1.574 . S
C969 C988 1.368 . S
C969 H993 0.949 . S
H970 C974 0.949 . S
C971 C972 1.349 . S
C971 C973 1.327 . S
C971 H994 0.950 . S
C972 C971 1.349 . S
C972 C984 1.349 . S
C973 C971 1.327 . S
C973 C989 1.429 . S
C973 H995 0.950 . S
C974 H970 0.949 . S
C974 C982 1.574 . S
C974 C990 1.368 . S
H975 C983 0.950 . S
H976 C981 0.950 . S
H977 C982 0.949 . S
H978 C984 0.950 . S
H979 C985 0.950 . S
H980 C986 0.949 . S
C981 H976 0.950 . S
C981 C983 1.327 . S
C981 C987 1.429 . S
C982 C974 1.574 . S
C982 H977 0.949 . S
C982 C988 1.368 . S
C983 C967 1.349 . S
C983 H975 0.950 . S
C983 C981 1.327 . S
C984 C972 1.349 . S
C984 H978 0.950 . S
C984 C985 1.327 . S
C985 H979 0.950 . S
C985 C984 1.327 . S
C985 C989 1.429 . S
C986 C969 1.574 . S
C986 H980 0.949 . S
C986 C990 1.368 . S
C987 C968 1.429 . S
C987 C981 1.429 . S
C987 C988 1.523 . S
C988 C969 1.368 . S
C988 C982 1.368 . S
C988 C987 1.523 . S
C989 C973 1.429 . S
C989 C985 1.429 . S
C989 C990 1.523 . S
C990 C974 1.368 . S
C990 C986 1.368 . S
C990 C989 1.523 . S
H991 C966 0.950 . S
H992 C968 0.950 . S
H993 C969 0.949 . S
H994 C971 0.950 . S
H995 C973 0.950 . S
C996 C997 1.349 . S
C996 C998 1.327 . S
C996 H1021 0.950 . S
C997 C996 1.349 . S
C997 C1013 1.349 . S
C998 C996 1.327 . S
C998 C1017 1.429 . S
C998 H1022 0.950 . S
C999 C1016 1.574 . S
C999 C1018 1.368 1_556 S
C999 H1023 0.949 . S
H1000 C1004 0.949 . S
C1001 C1002 1.349 . S
C1001 C1003 1.327 . S
C1001 H1024 0.950 . S
C1002 C1001 1.349 . S
C1002 C1014 1.349 . S
C1003 C1001 1.327 . S
C1003 C1019 1.429 . S
C1003 H1025 0.950 . S
C1004 H1000 0.949 . S
C1004 C1012 1.574 . S
C1004 C1020 1.368 1_554 S
H1005 C1013 0.950 . S
H1006 C1011 0.950 1_556 S
H1007 C1012 0.949 . S
H1008 C1014 0.950 . S
H1009 C1015 0.950 1_554 S
H1010 C1016 0.949 . S
C1011 H1006 0.950 1_554 S
C1011 C1013 1.327 . S
C1011 C1017 1.429 . S
C1012 C1004 1.574 . S
C1012 H1007 0.949 . S
C1012 C1018 1.368 . S
C1013 C997 1.349 . S
C1013 H1005 0.950 . S
C1013 C1011 1.327 . S
C1014 C1002 1.349 . S
C1014 H1008 0.950 . S
C1014 C1015 1.327 . S
C1015 H1009 0.950 1_556 S
C1015 C1014 1.327 . S
C1015 C1019 1.429 . S
C1016 C999 1.574 . S
C1016 H1010 0.949 . S
C1016 C1020 1.368 . S
C1017 C998 1.429 . S
C1017 C1011 1.429 . S
C1017 C1018 1.523 . S
C1018 C999 1.368 1_554 S
C1018 C1012 1.368 . S
C1018 C1017 1.523 . S
C1019 C1003 1.429 . S
C1019 C1015 1.429 . S
C1019 C1020 1.523 . S
C1020 C1004 1.368 1_556 S
C1020 C1016 1.368 . S
C1020 C1019 1.523 . S
H1021 C996 0.950 . S
H1022 C998 0.950 . S
H1023 C999 0.949 . S
H1024 C1001 0.950 . S
H1025 C1003 0.950 . S
C1026 C1027 1.349 . S
C1026 C1028 1.327 . S
C1026 H1051 0.950 . S
C1027 C1026 1.349 . S
C1027 C1043 1.349 . S
C1028 C1026 1.327 . S
C1028 C1047 1.429 . S
C1028 H1052 0.950 . S
C1029 C1046 1.574 . S
C1029 C1048 1.368 . S
C1029 H1053 0.949 . S
H1030 C1034 0.949 . S
C1031 C1032 1.349 . S
C1031 C1033 1.327 . S
C1031 H1054 0.950 . S
C1032 C1031 1.349 . S
C1032 C1044 1.349 . S
C1033 C1031 1.327 . S
C1033 C1049 1.429 . S
C1033 H1055 0.950 . S
C1034 H1030 0.949 . S
C1034 C1042 1.574 . S
C1034 C1050 1.368 . S
H1035 C1043 0.950 . S
H1036 C1041 0.950 . S
H1037 C1042 0.949 . S
H1038 C1044 0.950 . S
H1039 C1045 0.950 . S
H1040 C1046 0.949 . S
C1041 H1036 0.950 . S
C1041 C1043 1.327 . S
C1041 C1047 1.429 . S
C1042 C1034 1.574 . S
C1042 H1037 0.949 . S
C1042 C1048 1.368 . S
C1043 C1027 1.349 . S
C1043 H1035 0.950 . S
C1043 C1041 1.327 . S
C1044 C1032 1.349 . S
C1044 H1038 0.950 . S
C1044 C1045 1.327 . S
C1045 H1039 0.950 . S
C1045 C1044 1.327 . S
C1045 C1049 1.429 . S
C1046 C1029 1.574 . S
C1046 H1040 0.949 . S
C1046 C1050 1.368 . S
C1047 C1028 1.429 . S
C1047 C1041 1.429 . S
C1047 C1048 1.523 . S
C1048 C1029 1.368 . S
C1048 C1042 1.368 . S
C1048 C1047 1.523 . S
C1049 C1033 1.429 . S
C1049 C1045 1.429 . S
C1049 C1050 1.523 . S
C1050 C1034 1.368 . S
C1050 C1046 1.368 . S
C1050 C1049 1.523 . S
H1051 C1026 0.950 . S
H1052 C1028 0.950 . S
H1053 C1029 0.949 . S
H1054 C1031 0.950 . S
H1055 C1033 0.950 . S
C1056 C1057 1.349 . S
C1056 C1058 1.327 . S
C1056 H1081 0.950 . S
C1057 C1056 1.349 . S
C1057 C1073 1.349 . S
C1058 C1056 1.327 . S
C1058 C1077 1.429 . S
C1058 H1082 0.950 . S
C1059 C1076 1.574 . S
C1059 C1078 1.368 . S
C1059 H1083 0.949 . S
H1060 C1064 0.949 . S
C1061 C1062 1.349 . S
C1061 C1063 1.327 . S
C1061 H1084 0.950 . S
C1062 C1061 1.349 . S
C1062 C1074 1.349 . S
C1063 C1061 1.327 . S
C1063 C1079 1.429 . S
C1063 H1085 0.950 . S
C1064 H1060 0.949 . S
C1064 C1072 1.574 . S
C1064 C1080 1.368 . S
H1065 C1073 0.950 . S
H1066 C1071 0.950 . S
H1067 C1072 0.949 . S
H1068 C1074 0.950 . S
H1069 C1075 0.950 . S
H1070 C1076 0.949 . S
C1071 H1066 0.950 . S
C1071 C1073 1.327 . S
C1071 C1077 1.429 . S
C1072 C1064 1.574 . S
C1072 H1067 0.949 . S
C1072 C1078 1.368 . S
C1073 C1057 1.349 . S
C1073 H1065 0.950 . S
C1073 C1071 1.327 . S
C1074 C1062 1.349 . S
C1074 H1068 0.950 . S
C1074 C1075 1.327 . S
C1075 H1069 0.950 . S
C1075 C1074 1.327 . S
C1075 C1079 1.429 . S
C1076 C1059 1.574 . S
C1076 H1070 0.949 . S
C1076 C1080 1.368 . S
C1077 C1058 1.429 . S
C1077 C1071 1.429 . S
C1077 C1078 1.523 . S
C1078 C1059 1.368 . S
C1078 C1072 1.368 . S
C1078 C1077 1.523 . S
C1079 C1063 1.429 . S
C1079 C1075 1.429 . S
C1079 C1080 1.523 . S
C1080 C1064 1.368 . S
C1080 C1076 1.368 . S
C1080 C1079 1.523 . S
H1081 C1056 0.950 . S
H1082 C1058 0.950 . S
H1083 C1059 0.949 . S
H1084 C1061 0.950 . S
H1085 C1063 0.950 . S
C1086 C1087 1.349 . S
C1086 C1088 1.327 . S
C1086 H1111 0.950 . S
C1087 C1086 1.349 . S
C1087 C1103 1.349 . S
C1088 C1086 1.327 . S
C1088 C1107 1.429 . S
C1088 H1112 0.950 . S
C1089 C1106 1.527 1_655 S
C1089 C1108 1.368 . S
C1089 H1113 0.949 . S
H1090 C1094 0.948 . S
C1091 C1092 1.349 . S
C1091 C1093 1.327 . S
C1091 H1114 0.950 . S
C1092 C1091 1.349 . S
C1092 C1104 1.349 . S
C1093 C1091 1.327 . S
C1093 C1109 1.429 . S
C1093 H1115 0.950 . S
C1094 H1090 0.948 . S
C1094 C1102 1.576 1_455 S
C1094 C1110 1.367 . S
H1095 C1103 0.950 . S
H1096 C1101 0.950 . S
H1097 C1102 0.949 . S
H1098 C1104 0.950 . S
H1099 C1105 0.950 . S
H1100 C1106 0.976 . S
C1101 H1096 0.950 . S
C1101 C1103 1.327 . S
C1101 C1107 1.429 . S
C1102 C1094 1.576 1_655 S
C1102 H1097 0.949 . S
C1102 C1108 1.368 . S
C1103 C1087 1.349 . S
C1103 H1095 0.950 . S
C1103 C1101 1.327 . S
C1104 C1092 1.349 . S
C1104 H1098 0.950 . S
C1104 C1105 1.327 . S
C1105 H1099 0.950 . S
C1105 C1104 1.327 . S
C1105 C1109 1.429 . S
C1106 C1089 1.527 1_455 S
C1106 H1100 0.976 . S
C1106 C1110 1.386 . S
C1107 C1088 1.429 . S
C1107 C1101 1.429 . S
C1107 C1108 1.523 . S
C1108 C1089 1.368 . S
C1108 C1102 1.368 . S
C1108 C1107 1.523 . S
C1109 C1093 1.429 . S
C1109 C1105 1.429 . S
C1109 C1110 1.523 . S
C1110 C1094 1.367 . S
C1110 C1106 1.386 . S
C1110 C1109 1.523 . S
H1111 C1086 0.950 . S
H1112 C1088 0.950 . S
H1113 C1089 0.949 . S
H1114 C1091 0.950 . S
H1115 C1093 0.950 . S
C1116 C1117 1.349 . S
C1116 C1118 1.327 . S
C1116 H1141 0.950 . S
C1117 C1116 1.349 . S
C1117 C1133 1.349 . S
C1118 C1116 1.327 . S
C1118 C1137 1.429 . S
C1118 H1142 0.950 . S
C1119 C1136 1.574 . S
C1119 C1138 1.368 . S
C1119 H1143 0.949 . S
H1120 C1124 0.949 . S
C1121 C1122 1.349 . S
C1121 C1123 1.327 . S
C1121 H1144 0.950 . S
C1122 C1121 1.349 . S
C1122 C1134 1.349 . S
C1123 C1121 1.327 . S
C1123 C1139 1.429 . S
C1123 H1145 0.950 . S
C1124 H1120 0.949 . S
C1124 C1132 1.574 . S
C1124 C1140 1.368 . S
H1125 C1133 0.950 . S
H1126 C1131 0.950 . S
H1127 C1132 0.949 . S
H1128 C1134 0.950 . S
H1129 C1135 0.950 . S
H1130 C1136 0.949 . S
C1131 H1126 0.950 . S
C1131 C1133 1.327 . S
C1131 C1137 1.429 . S
C1132 C1124 1.574 . S
C1132 H1127 0.949 . S
C1132 C1138 1.368 . S
C1133 C1117 1.349 . S
C1133 H1125 0.950 . S
C1133 C1131 1.327 . S
C1134 C1122 1.349 . S
C1134 H1128 0.950 . S
C1134 C1135 1.327 . S
C1135 H1129 0.950 . S
C1135 C1134 1.327 . S
C1135 C1139 1.429 . S
C1136 C1119 1.574 . S
C1136 H1130 0.949 . S
C1136 C1140 1.368 . S
C1137 C1118 1.429 . S
C1137 C1131 1.429 . S
C1137 C1138 1.523 . S
C1138 C1119 1.368 . S
C1138 C1132 1.368 . S
C1138 C1137 1.523 . S
C1139 C1123 1.429 . S
C1139 C1135 1.429 . S
C1139 C1140 1.523 . S
C1140 C1124 1.368 . S
C1140 C1136 1.368 . S
C1140 C1139 1.523 . S
H1141 C1116 0.950 . S
H1142 C1118 0.950 . S
H1143 C1119 0.949 . S
H1144 C1121 0.950 . S
H1145 C1123 0.950 . S
C1146 C1147 1.349 . S
C1146 C1148 1.327 . S
C1146 H1171 0.950 . S
C1147 C1146 1.349 . S
C1147 C1163 1.349 . S
C1148 C1146 1.327 . S
C1148 C1167 1.429 . S
C1148 H1172 0.950 . S
C1149 C1166 1.531 1_455 S
C1149 C1168 1.385 . S
C1149 H1173 0.974 . S
H1150 C1154 0.949 . S
C1151 C1152 1.349 . S
C1151 C1153 1.327 . S
C1151 H1174 0.950 . S
C1152 C1151 1.349 . S
C1152 C1164 1.349 . S
C1153 C1151 1.327 . S
C1153 C1169 1.429 . S
C1153 H1175 0.950 . S
C1154 H1150 0.949 . S
C1154 C1162 1.572 1_655 S
C1154 C1170 1.368 . S
H1155 C1163 0.950 . S
H1156 C1161 0.950 . S
H1157 C1162 0.950 . S
H1158 C1164 0.950 . S
H1159 C1165 0.950 . S
H1160 C1166 0.949 . S
C1161 H1156 0.950 . S
C1161 C1163 1.327 . S
C1161 C1167 1.429 . S
C1162 C1154 1.572 1_455 S
C1162 H1157 0.950 . S
C1162 C1168 1.369 . S
C1163 C1147 1.349 . S
C1163 H1155 0.950 . S
C1163 C1161 1.327 . S
C1164 C1152 1.349 . S
C1164 H1158 0.950 . S
C1164 C1165 1.327 . S
C1165 H1159 0.950 . S
C1165 C1164 1.327 . S
C1165 C1169 1.429 . S
C1166 C1149 1.531 1_655 S
C1166 H1160 0.949 . S
C1166 C1170 1.368 . S
C1167 C1148 1.429 . S
C1167 C1161 1.429 . S
C1167 C1168 1.523 . S
C1168 C1149 1.385 . S
C1168 C1162 1.369 . S
C1168 C1167 1.523 . S
C1169 C1153 1.429 . S
C1169 C1165 1.429 . S
C1169 C1170 1.523 . S
C1170 C1154 1.368 . S
C1170 C1166 1.368 . S
C1170 C1169 1.523 . S
H1171 C1146 0.950 . S
H1172 C1148 0.950 . S
H1173 C1149 0.974 . S
H1174 C1151 0.950 . S
H1175 C1153 0.950 . S
C1176 C1177 1.349 . S
C1176 C1178 1.327 . S
C1176 H1201 0.950 . S
C1177 C1176 1.349 . S
C1177 C1193 1.349 . S
C1178 C1176 1.327 . S
C1178 C1197 1.429 . S
C1178 H1202 0.950 . S
C1179 C1196 1.571 1_455 S
C1179 C1198 1.368 . S
C1179 H1203 0.949 . S
H1180 C1184 0.973 . S
C1181 C1182 1.349 . S
C1181 C1183 1.327 . S
C1181 H1204 0.950 . S
C1182 C1181 1.349 . S
C1182 C1194 1.349 . S
C1183 C1181 1.327 . S
C1183 C1199 1.429 . S
C1183 H1205 0.950 . S
C1184 H1180 0.973 . S
C1184 C1192 1.532 1_655 S
C1184 C1200 1.384 . S
H1185 C1193 0.950 . S
H1186 C1191 0.950 . S
H1187 C1192 0.949 . S
H1188 C1194 0.950 . S
H1189 C1195 0.950 . S
H1190 C1196 0.950 . S
C1191 H1186 0.950 . S
C1191 C1193 1.327 . S
C1191 C1197 1.429 . S
C1192 C1184 1.532 1_455 S
C1192 H1187 0.949 . S
C1192 C1198 1.368 . S
C1193 C1177 1.349 . S
C1193 H1185 0.950 . S
C1193 C1191 1.327 . S
C1194 C1182 1.349 . S
C1194 H1188 0.950 . S
C1194 C1195 1.327 . S
C1195 H1189 0.950 . S
C1195 C1194 1.327 . S
C1195 C1199 1.429 . S
C1196 C1179 1.571 1_655 S
C1196 H1190 0.950 . S
C1196 C1200 1.369 . S
C1197 C1178 1.429 . S
C1197 C1191 1.429 . S
C1197 C1198 1.523 . S
C1198 C1179 1.368 . S
C1198 C1192 1.368 . S
C1198 C1197 1.523 . S
C1199 C1183 1.429 . S
C1199 C1195 1.429 . S
C1199 C1200 1.523 . S
C1200 C1184 1.384 . S
C1200 C1196 1.369 . S
C1200 C1199 1.523 . S
H1201 C1176 0.950 . S
H1202 C1178 0.950 . S
H1203 C1179 0.949 . S
H1204 C1181 0.950 . S
H1205 C1183 0.950 . S
C1206 C1207 1.349 . S
C1206 C1208 1.327 . S
C1206 H1231 0.950 . S
C1207 C1206 1.349 . S
C1207 C1223 1.349 . S
C1208 C1206 1.327 . S
C1208 C1227 1.429 . S
C1208 H1232 0.950 . S
C1209 C1226 1.574 . S
C1209 C1228 1.368 . S
C1209 H1233 0.949 . S
H1210 C1214 0.949 . S
C1211 C1212 1.349 . S
C1211 C1213 1.327 . S
C1211 H1234 0.950 . S
C1212 C1211 1.349 . S
C1212 C1224 1.349 . S
C1213 C1211 1.327 . S
C1213 C1229 1.429 . S
C1213 H1235 0.950 . S
C1214 H1210 0.949 . S
C1214 C1222 1.574 . S
C1214 C1230 1.368 . S
H1215 C1223 0.950 . S
H1216 C1221 0.950 . S
H1217 C1222 0.949 . S
H1218 C1224 0.950 . S
H1219 C1225 0.950 . S
H1220 C1226 0.949 . S
C1221 H1216 0.950 . S
C1221 C1223 1.327 . S
C1221 C1227 1.429 . S
C1222 C1214 1.574 . S
C1222 H1217 0.949 . S
C1222 C1228 1.368 . S
C1223 C1207 1.349 . S
C1223 H1215 0.950 . S
C1223 C1221 1.327 . S
C1224 C1212 1.349 . S
C1224 H1218 0.950 . S
C1224 C1225 1.327 . S
C1225 H1219 0.950 . S
C1225 C1224 1.327 . S
C1225 C1229 1.429 . S
C1226 C1209 1.574 . S
C1226 H1220 0.949 . S
C1226 C1230 1.368 . S
C1227 C1208 1.429 . S
C1227 C1221 1.429 . S
C1227 C1228 1.523 . S
C1228 C1209 1.368 . S
C1228 C1222 1.368 . S
C1228 C1227 1.523 . S
C1229 C1213 1.429 . S
C1229 C1225 1.429 . S
C1229 C1230 1.523 . S
C1230 C1214 1.368 . S
C1230 C1226 1.368 . S
C1230 C1229 1.523 . S
H1231 C1206 0.950 . S
H1232 C1208 0.950 . S
H1233 C1209 0.949 . S
H1234 C1211 0.950 . S
H1235 C1213 0.950 . S
C1236 C1237 1.349 . S
C1236 C1238 1.327 . S
C1236 H1261 0.950 . S
C1237 C1236 1.349 . S
C1237 C1253 1.349 . S
C1238 C1236 1.327 . S
C1238 C1257 1.429 . S
C1238 H1262 0.950 . S
C1239 C1256 1.569 1_455 S
C1239 C1258 1.368 . S
C1239 H1263 0.949 . S
H1240 C1244 0.972 . S
C1241 C1242 1.349 . S
C1241 C1243 1.327 . S
C1241 H1264 0.950 . S
C1242 C1241 1.349 . S
C1242 C1254 1.349 . S
C1243 C1241 1.327 . S
C1243 C1259 1.429 . S
C1243 H1265 0.950 . S
C1244 H1240 0.972 . S
C1244 C1252 1.534 1_655 S
C1244 C1260 1.384 . S
H1245 C1253 0.950 . S
H1246 C1251 0.950 . S
H1247 C1252 0.949 . S
H1248 C1254 0.950 . S
H1249 C1255 0.950 . S
H1250 C1256 0.952 . S
C1251 H1246 0.950 . S
C1251 C1253 1.327 . S
C1251 C1257 1.429 . S
C1252 C1244 1.534 1_455 S
C1252 H1247 0.949 . S
C1252 C1258 1.368 . S
C1253 C1237 1.349 . S
C1253 H1245 0.950 . S
C1253 C1251 1.327 . S
C1254 C1242 1.349 . S
C1254 H1248 0.950 . S
C1254 C1255 1.327 . S
C1255 H1249 0.950 . S
C1255 C1254 1.327 . S
C1255 C1259 1.429 . S
C1256 C1239 1.569 1_655 S
C1256 H1250 0.952 . S
C1256 C1260 1.370 . S
C1257 C1238 1.429 . S
C1257 C1251 1.429 . S
C1257 C1258 1.523 . S
C1258 C1239 1.368 . S
C1258 C1252 1.368 . S
C1258 C1257 1.523 . S
C1259 C1243 1.429 . S
C1259 C1255 1.429 . S
C1259 C1260 1.523 . S
C1260 C1244 1.384 . S
C1260 C1256 1.370 . S
C1260 C1259 1.523 . S
H1261 C1236 0.950 . S
H1262 C1238 0.950 . S
H1263 C1239 0.949 . S
H1264 C1241 0.950 . S
H1265 C1243 0.950 . S
C1266 C1267 1.349 . S
C1266 C1268 1.327 . S
C1266 H1291 0.950 . S
C1267 C1266 1.349 . S
C1267 C1283 1.349 . S
C1268 C1266 1.327 . S
C1268 C1287 1.429 . S
C1268 H1292 0.950 . S
C1269 C1286 1.574 . S
C1269 C1288 1.368 . S
C1269 H1293 0.949 . S
H1270 C1274 0.949 . S
C1271 C1272 1.349 . S
C1271 C1273 1.327 . S
C1271 H1294 0.950 . S
C1272 C1271 1.349 . S
C1272 C1284 1.349 . S
C1273 C1271 1.327 . S
C1273 C1289 1.429 . S
C1273 H1295 0.950 . S
C1274 H1270 0.949 . S
C1274 C1282 1.574 . S
C1274 C1290 1.368 . S
H1275 C1283 0.950 . S
H1276 C1281 0.950 . S
H1277 C1282 0.949 . S
H1278 C1284 0.950 . S
H1279 C1285 0.950 . S
H1280 C1286 0.949 . S
C1281 H1276 0.950 . S
C1281 C1283 1.327 . S
C1281 C1287 1.429 . S
C1282 C1274 1.574 . S
C1282 H1277 0.949 . S
C1282 C1288 1.368 . S
C1283 C1267 1.349 . S
C1283 H1275 0.950 . S
C1283 C1281 1.327 . S
C1284 C1272 1.349 . S
C1284 H1278 0.950 . S
C1284 C1285 1.327 . S
C1285 H1279 0.950 . S
C1285 C1284 1.327 . S
C1285 C1289 1.429 . S
C1286 C1269 1.574 . S
C1286 H1280 0.949 . S
C1286 C1290 1.368 . S
C1287 C1268 1.429 . S
C1287 C1281 1.429 . S
C1287 C1288 1.523 . S
C1288 C1269 1.368 . S
C1288 C1282 1.368 . S
C1288 C1287 1.523 . S
C1289 C1273 1.429 . S
C1289 C1285 1.429 . S
C1289 C1290 1.523 . S
C1290 C1274 1.368 . S
C1290 C1286 1.368 . S
C1290 C1289 1.523 . S
H1291 C1266 0.950 . S
H1292 C1268 0.950 . S
H1293 C1269 0.949 . S
H1294 C1271 0.950 . S
H1295 C1273 0.950 . S
C1296 C1297 1.349 . S
C1296 C1298 1.327 . S
C1296 H1321 0.950 . S
C1297 C1296 1.349 . S
C1297 C1313 1.349 . S
C1298 C1296 1.327 . S
C1298 C1317 1.429 . S
C1298 H1322 0.950 . S
C1299 C1316 1.574 . S
C1299 C1318 1.368 . S
C1299 H1323 0.949 . S
H1300 C1304 0.949 . S
C1301 C1302 1.349 . S
C1301 C1303 1.327 . S
C1301 H1324 0.950 . S
C1302 C1301 1.349 . S
C1302 C1314 1.349 . S
C1303 C1301 1.327 . S
C1303 C1319 1.429 . S
C1303 H1325 0.950 . S
C1304 H1300 0.949 . S
C1304 C1312 1.574 . S
C1304 C1320 1.368 . S
H1305 C1313 0.950 . S
H1306 C1311 0.950 . S
H1307 C1312 0.949 . S
H1308 C1314 0.950 . S
H1309 C1315 0.950 . S
H1310 C1316 0.949 . S
C1311 H1306 0.950 . S
C1311 C1313 1.327 . S
C1311 C1317 1.429 . S
C1312 C1304 1.574 . S
C1312 H1307 0.949 . S
C1312 C1318 1.368 . S
C1313 C1297 1.349 . S
C1313 H1305 0.950 . S
C1313 C1311 1.327 . S
C1314 C1302 1.349 . S
C1314 H1308 0.950 . S
C1314 C1315 1.327 . S
C1315 H1309 0.950 . S
C1315 C1314 1.327 . S
C1315 C1319 1.429 . S
C1316 C1299 1.574 . S
C1316 H1310 0.949 . S
C1316 C1320 1.368 . S
C1317 C1298 1.429 . S
C1317 C1311 1.429 . S
C1317 C1318 1.523 . S
C1318 C1299 1.368 . S
C1318 C1312 1.368 . S
C1318 C1317 1.523 . S
C1319 C1303 1.429 . S
C1319 C1315 1.429 . S
C1319 C1320 1.523 . S
C1320 C1304 1.368 . S
C1320 C1316 1.368 . S
C1320 C1319 1.523 . S
H1321 C1296 0.950 . S
H1322 C1298 0.950 . S
H1323 C1299 0.949 . S
H1324 C1301 0.950 . S
H1325 C1303 0.950 . S
C1326 C1327 1.349 . S
C1326 C1328 1.327 . S
C1326 H1351 0.950 . S
C1327 C1326 1.349 . S
C1327 C1343 1.349 . S
C1328 C1326 1.327 . S
C1328 C1347 1.429 . S
C1328 H1352 0.950 . S
C1329 C1346 1.574 . S
C1329 C1348 1.368 . S
C1329 H1353 0.949 . S
H1330 C1334 0.949 . S
C1331 C1332 1.349 . S
C1331 C1333 1.327 . S
C1331 H1354 0.950 . S
C1332 C1331 1.349 . S
C1332 C1344 1.349 . S
C1333 C1331 1.327 . S
C1333 C1349 1.429 . S
C1333 H1355 0.950 . S
C1334 H1330 0.949 . S
C1334 C1342 1.574 . S
C1334 C1350 1.368 . S
H1335 C1343 0.950 . S
H1336 C1341 0.950 . S
H1337 C1342 0.949 . S
H1338 C1344 0.950 . S
H1339 C1345 0.950 . S
H1340 C1346 0.949 . S
C1341 H1336 0.950 . S
C1341 C1343 1.327 . S
C1341 C1347 1.429 . S
C1342 C1334 1.574 . S
C1342 H1337 0.949 . S
C1342 C1348 1.368 . S
C1343 C1327 1.349 . S
C1343 H1335 0.950 . S
C1343 C1341 1.327 . S
C1344 C1332 1.349 . S
C1344 H1338 0.950 . S
C1344 C1345 1.327 . S
C1345 H1339 0.950 . S
C1345 C1344 1.327 . S
C1345 C1349 1.429 . S
C1346 C1329 1.574 . S
C1346 H1340 0.949 . S
C1346 C1350 1.368 . S
C1347 C1328 1.429 . S
C1347 C1341 1.429 . S
C1347 C1348 1.523 . S
C1348 C1329 1.368 . S
C1348 C1342 1.368 . S
C1348 C1347 1.523 . S
C1349 C1333 1.429 . S
C1349 C1345 1.429 . S
C1349 C1350 1.523 . S
C1350 C1334 1.368 . S
C1350 C1346 1.368 . S
C1350 C1349 1.523 . S
H1351 C1326 0.950 . S
H1352 C1328 0.950 . S
H1353 C1329 0.949 . S
H1354 C1331 0.950 . S
H1355 C1333 0.950 . S
C1356 C1357 1.349 . S
C1356 C1358 1.327 . S
C1356 H1381 0.950 . S
C1357 C1356 1.349 . S
C1357 C1373 1.349 . S
C1358 C1356 1.327 . S
C1358 C1377 1.429 . S
C1358 H1382 0.950 . S
C1359 C1376 1.574 . S
C1359 C1378 1.368 . S
C1359 H1383 0.949 . S
H1360 C1364 0.949 . S
C1361 C1362 1.349 . S
C1361 C1363 1.327 . S
C1361 H1384 0.950 . S
C1362 C1361 1.349 . S
C1362 C1374 1.349 . S
C1363 C1361 1.327 . S
C1363 C1379 1.429 . S
C1363 H1385 0.950 . S
C1364 H1360 0.949 . S
C1364 C1372 1.574 . S
C1364 C1380 1.368 . S
H1365 C1373 0.950 . S
H1366 C1371 0.950 . S
H1367 C1372 0.949 . S
H1368 C1374 0.950 . S
H1369 C1375 0.950 . S
H1370 C1376 0.949 . S
C1371 H1366 0.950 . S
C1371 C1373 1.327 . S
C1371 C1377 1.429 . S
C1372 C1364 1.574 . S
C1372 H1367 0.949 . S
C1372 C1378 1.368 . S
C1373 C1357 1.349 . S
C1373 H1365 0.950 . S
C1373 C1371 1.327 . S
C1374 C1362 1.349 . S
C1374 H1368 0.950 . S
C1374 C1375 1.327 . S
C1375 H1369 0.950 . S
C1375 C1374 1.327 . S
C1375 C1379 1.429 . S
C1376 C1359 1.574 . S
C1376 H1370 0.949 . S
C1376 C1380 1.368 . S
C1377 C1358 1.429 . S
C1377 C1371 1.429 . S
C1377 C1378 1.523 . S
C1378 C1359 1.368 . S
C1378 C1372 1.368 . S
C1378 C1377 1.523 . S
C1379 C1363 1.429 . S
C1379 C1375 1.429 . S
C1379 C1380 1.523 . S
C1380 C1364 1.368 . S
C1380 C1376 1.368 . S
C1380 C1379 1.523 . S
H1381 C1356 0.950 . S
H1382 C1358 0.950 . S
H1383 C1359 0.949 . S
H1384 C1361 0.950 . S
H1385 C1363 0.950 . S
C1386 C1387 1.349 . S
C1386 C1388 1.327 . S
C1386 H1411 0.950 . S
C1387 C1386 1.349 . S
C1387 C1403 1.349 . S
C1388 C1386 1.327 . S
C1388 C1407 1.429 . S
C1388 H1412 0.950 . S
C1389 C1406 1.574 . S
C1389 C1408 1.368 . S
C1389 H1413 0.949 . S
H1390 C1394 0.949 . S
C1391 C1392 1.349 . S
C1391 C1393 1.327 . S
C1391 H1414 0.950 . S
C1392 C1391 1.349 . S
C1392 C1404 1.349 . S
C1393 C1391 1.327 . S
C1393 C1409 1.429 . S
C1393 H1415 0.950 . S
C1394 H1390 0.949 . S
C1394 C1402 1.574 . S
C1394 C1410 1.368 . S
H1395 C1403 0.950 . S
H1396 C1401 0.950 . S
H1397 C1402 0.949 . S
H1398 C1404 0.950 . S
H1399 C1405 0.950 . S
H1400 C1406 0.949 . S
C1401 H1396 0.950 . S
C1401 C1403 1.327 . S
C1401 C1407 1.429 . S
C1402 C1394 1.574 . S
C1402 H1397 0.949 . S
C1402 C1408 1.368 . S
C1403 C1387 1.349 . S
C1403 H1395 0.950 . S
C1403 C1401 1.327 . S
C1404 C1392 1.349 . S
C1404 H1398 0.950 . S
C1404 C1405 1.327 . S
C1405 H1399 0.950 . S
C1405 C1404 1.327 . S
C1405 C1409 1.429 . S
C1406 C1389 1.574 . S
C1406 H1400 0.949 . S
C1406 C1410 1.368 . S
C1407 C1388 1.429 . S
C1407 C1401 1.429 . S
C1407 C1408 1.523 . S
C1408 C1389 1.368 . S
C1408 C1402 1.368 . S
C1408 C1407 1.523 . S
C1409 C1393 1.429 . S
C1409 C1405 1.429 . S
C1409 C1410 1.523 . S
C1410 C1394 1.368 . S
C1410 C1406 1.368 . S
C1410 C1409 1.523 . S
H1411 C1386 0.950 . S
H1412 C1388 0.950 . S
H1413 C1389 0.949 . S
H1414 C1391 0.950 . S
H1415 C1393 0.950 . S
C1416 C1417 1.349 . S
C1416 C1418 1.327 . S
C1416 H1441 0.950 . S
C1417 C1416 1.349 . S
C1417 C1433 1.349 . S
C1418 C1416 1.327 . S
C1418 C1437 1.429 . S
C1418 H1442 0.950 . S
C1419 C1436 1.574 . S
C1419 C1438 1.368 . S
C1419 H1443 0.949 . S
H1420 C1424 0.949 . S
C1421 C1422 1.349 . S
C1421 C1423 1.327 . S
C1421 H1444 0.950 . S
C1422 C1421 1.349 . S
C1422 C1434 1.349 . S
C1423 C1421 1.327 . S
C1423 C1439 1.429 . S
C1423 H1445 0.950 . S
C1424 H1420 0.949 . S
C1424 C1432 1.574 . S
C1424 C1440 1.368 . S
H1425 C1433 0.950 . S
H1426 C1431 0.950 . S
H1427 C1432 0.949 . S
H1428 C1434 0.950 . S
H1429 C1435 0.950 . S
H1430 C1436 0.949 . S
C1431 H1426 0.950 . S
C1431 C1433 1.327 . S
C1431 C1437 1.429 . S
C1432 C1424 1.574 . S
C1432 H1427 0.949 . S
C1432 C1438 1.368 . S
C1433 C1417 1.349 . S
C1433 H1425 0.950 . S
C1433 C1431 1.327 . S
C1434 C1422 1.349 . S
C1434 H1428 0.950 . S
C1434 C1435 1.327 . S
C1435 H1429 0.950 . S
C1435 C1434 1.327 . S
C1435 C1439 1.429 . S
C1436 C1419 1.574 . S
C1436 H1430 0.949 . S
C1436 C1440 1.368 . S
C1437 C1418 1.429 . S
C1437 C1431 1.429 . S
C1437 C1438 1.523 . S
C1438 C1419 1.368 . S
C1438 C1432 1.368 . S
C1438 C1437 1.523 . S
C1439 C1423 1.429 . S
C1439 C1435 1.429 . S
C1439 C1440 1.523 . S
C1440 C1424 1.368 . S
C1440 C1436 1.368 . S
C1440 C1439 1.523 . S
H1441 C1416 0.950 . S
H1442 C1418 0.950 . S
H1443 C1419 0.949 . S
H1444 C1421 0.950 . S
H1445 C1423 0.950 . S
C1446 C1447 1.349 . S
C1446 C1448 1.327 . S
C1446 H1471 0.950 . S
C1447 C1446 1.349 . S
C1447 C1463 1.349 . S
C1448 C1446 1.327 . S
C1448 C1467 1.429 . S
C1448 H1472 0.950 . S
C1449 C1466 1.574 . S
C1449 C1468 1.368 . S
C1449 H1473 0.949 . S
H1450 C1454 0.949 . S
C1451 C1452 1.349 . S
C1451 C1453 1.327 . S
C1451 H1474 0.950 . S
C1452 C1451 1.349 . S
C1452 C1464 1.349 . S
C1453 C1451 1.327 . S
C1453 C1469 1.429 . S
C1453 H1475 0.950 . S
C1454 H1450 0.949 . S
C1454 C1462 1.574 . S
C1454 C1470 1.368 . S
H1455 C1463 0.950 . S
H1456 C1461 0.950 . S
H1457 C1462 0.949 . S
H1458 C1464 0.950 . S
H1459 C1465 0.950 . S
H1460 C1466 0.949 . S
C1461 H1456 0.950 . S
C1461 C1463 1.327 . S
C1461 C1467 1.429 . S
C1462 C1454 1.574 . S
C1462 H1457 0.949 . S
C1462 C1468 1.368 . S
C1463 C1447 1.349 . S
C1463 H1455 0.950 . S
C1463 C1461 1.327 . S
C1464 C1452 1.349 . S
C1464 H1458 0.950 . S
C1464 C1465 1.327 . S
C1465 H1459 0.950 . S
C1465 C1464 1.327 . S
C1465 C1469 1.429 . S
C1466 C1449 1.574 . S
C1466 H1460 0.949 . S
C1466 C1470 1.368 . S
C1467 C1448 1.429 . S
C1467 C1461 1.429 . S
C1467 C1468 1.523 . S
C1468 C1449 1.368 . S
C1468 C1462 1.368 . S
C1468 C1467 1.523 . S
C1469 C1453 1.429 . S
C1469 C1465 1.429 . S
C1469 C1470 1.523 . S
C1470 C1454 1.368 . S
C1470 C1466 1.368 . S
C1470 C1469 1.523 . S
H1471 C1446 0.950 . S
H1472 C1448 0.950 . S
H1473 C1449 0.949 . S
H1474 C1451 0.950 . S
H1475 C1453 0.950 . S
C1476 C1477 1.349 . S
C1476 C1478 1.327 . S
C1476 H1501 0.950 . S
C1477 C1476 1.349 . S
C1477 C1493 1.349 . S
C1478 C1476 1.327 . S
C1478 C1497 1.429 . S
C1478 H1502 0.950 . S
C1479 C1496 1.574 . S
C1479 C1498 1.368 . S
C1479 H1503 0.949 . S
H1480 C1484 0.949 . S
C1481 C1482 1.349 . S
C1481 C1483 1.327 . S
C1481 H1504 0.950 . S
C1482 C1481 1.349 . S
C1482 C1494 1.349 . S
C1483 C1481 1.327 . S
C1483 C1499 1.429 . S
C1483 H1505 0.950 . S
C1484 H1480 0.949 . S
C1484 C1492 1.574 . S
C1484 C1500 1.368 . S
H1485 C1493 0.950 . S
H1486 C1491 0.950 . S
H1487 C1492 0.949 . S
H1488 C1494 0.950 . S
H1489 C1495 0.950 . S
H1490 C1496 0.949 . S
C1491 H1486 0.950 . S
C1491 C1493 1.327 . S
C1491 C1497 1.429 . S
C1492 C1484 1.574 . S
C1492 H1487 0.949 . S
C1492 C1498 1.368 . S
C1493 C1477 1.349 . S
C1493 H1485 0.950 . S
C1493 C1491 1.327 . S
C1494 C1482 1.349 . S
C1494 H1488 0.950 . S
C1494 C1495 1.327 . S
C1495 H1489 0.950 . S
C1495 C1494 1.327 . S
C1495 C1499 1.429 . S
C1496 C1479 1.574 . S
C1496 H1490 0.949 . S
C1496 C1500 1.368 . S
C1497 C1478 1.429 . S
C1497 C1491 1.429 . S
C1497 C1498 1.523 . S
C1498 C1479 1.368 . S
C1498 C1492 1.368 . S
C1498 C1497 1.523 . S
C1499 C1483 1.429 . S
C1499 C1495 1.429 . S
C1499 C1500 1.523 . S
C1500 C1484 1.368 . S
C1500 C1496 1.368 . S
C1500 C1499 1.523 . S
H1501 C1476 0.950 . S
H1502 C1478 0.950 . S
H1503 C1479 0.949 . S
H1504 C1481 0.950 . S
H1505 C1483 0.950 . S
C1506 C1507 1.349 . S
C1506 C1508 1.327 . S
C1506 H1531 0.950 . S
C1507 C1506 1.349 . S
C1507 C1523 1.349 . S
C1508 C1506 1.327 . S
C1508 C1527 1.429 . S
C1508 H1532 0.950 . S
C1509 C1526 1.574 . S
C1509 C1528 1.368 . S
C1509 H1533 0.949 . S
H1510 C1514 0.949 . S
C1511 C1512 1.349 . S
C1511 C1513 1.327 . S
C1511 H1534 0.950 . S
C1512 C1511 1.349 . S
C1512 C1524 1.349 . S
C1513 C1511 1.327 . S
C1513 C1529 1.429 . S
C1513 H1535 0.950 . S
C1514 H1510 0.949 . S
C1514 C1522 1.574 . S
C1514 C1530 1.368 . S
H1515 C1523 0.950 . S
H1516 C1521 0.950 . S
H1517 C1522 0.949 . S
H1518 C1524 0.950 . S
H1519 C1525 0.950 . S
H1520 C1526 0.949 . S
C1521 H1516 0.950 . S
C1521 C1523 1.327 . S
C1521 C1527 1.429 . S
C1522 C1514 1.574 . S
C1522 H1517 0.949 . S
C1522 C1528 1.368 . S
C1523 C1507 1.349 . S
C1523 H1515 0.950 . S
C1523 C1521 1.327 . S
C1524 C1512 1.349 . S
C1524 H1518 0.950 . S
C1524 C1525 1.327 . S
C1525 H1519 0.950 . S
C1525 C1524 1.327 . S
C1525 C1529 1.429 . S
C1526 C1509 1.574 . S
C1526 H1520 0.949 . S
C1526 C1530 1.368 . S
C1527 C1508 1.429 . S
C1527 C1521 1.429 . S
C1527 C1528 1.523 . S
C1528 C1509 1.368 . S
C1528 C1522 1.368 . S
C1528 C1527 1.523 . S
C1529 C1513 1.429 . S
C1529 C1525 1.429 . S
C1529 C1530 1.523 . S
C1530 C1514 1.368 . S
C1530 C1526 1.368 . S
C1530 C1529 1.523 . S
H1531 C1506 0.950 . S
H1532 C1508 0.950 . S
H1533 C1509 0.949 . S
H1534 C1511 0.950 . S
H1535 C1513 0.950 . S
C577 C4 1.479 . S
C582 C446 1.417 . S
C607 C482 1.417 . S
C612 C40 1.479 . S
C637 C76 1.479 . S
C642 C518 1.417 . S
C667 C554 1.417 . S
C672 C112 1.479 . S
C697 C292 1.479 . S
C702 C158 1.417 . S
C727 C194 1.417 . S
C732 C328 1.479 . S
C757 C364 1.479 . S
C762 C230 1.417 . S
C787 C266 1.417 . S
C792 C400 1.479 . S
C817 C3 1.606 . S
C822 C75 1.606 . S
C847 C39 1.606 . S
C852 C111 1.606 . S
C877 C147 1.440 . S
C882 C219 1.440 . S
C907 C183 1.440 . S
C912 C255 1.440 . S
C937 C363 1.606 . S
C942 C291 1.606 . S
C967 C327 1.606 . S
C972 C399 1.606 . S
C997 C507 1.440 . S
C1002 C435 1.440 . S
C1027 C471 1.440 . S
C1032 C543 1.440 . S
C1057 C218 1.466 . S
C1062 C2 1.461 . S
C1087 C254 1.466 . S
C1092 C38 1.461 . S
C1117 C74 1.461 . S
C1122 C146 1.466 . S
C1147 C110 1.461 . S
C1152 C182 1.466 . S
C1177 C506 1.466 . S
C1182 C290 1.461 . S
C1207 C326 1.461 . S
C1212 C542 1.466 . S
C1237 C434 1.466 . S
C1242 C362 1.461 . S
C1267 C398 1.461 . S
C1272 C470 1.466 . S
C1297 C14 1.680 . S
C1302 C122 1.680 . S
C1327 C86 1.680 . S
C1332 C50 1.680 . S
C1357 C148 1.183 . S
C1362 C256 1.183 . S
C1387 C184 1.183 . S
C1392 C220 1.183 . S
C1417 C410 1.680 . S
C1422 C302 1.680 . S
C1447 C338 1.680 . S
C1452 C374 1.680 . S
C1477 C544 1.183 . S
C1482 C436 1.183 . S
C1507 C472 1.183 . S
C1512 C508 1.183 . S
