# Generated by pormake.
# Topology wjd, (6)-cn, num edge types: 1
# Building blocks:
#     Node 0, Type 0, BuildingBlock: UKALOJ_clean_sbu_0, # of connection points: 6
#     Node 1, Type 0, BuildingBlock: UKALOJ_clean_sbu_0, # of connection points: 6
#     Node 2, Type 0, BuildingBlock: UKALOJ_clean_sbu_0, # of connection points: 6
#     Node 3, Type 0, BuildingBlock: UKALOJ_clean_sbu_0, # of connection points: 6
#     Node 4, Type 0, BuildingBlock: UKALOJ_clean_sbu_0, # of connection points: 6
#     Node 5, Type 0, BuildingBlock: UKALOJ_clean_sbu_0, # of connection points: 6
#     Node 6, Type 0, BuildingBlock: UKALOJ_clean_sbu_0, # of connection points: 6
#     Node 7, Type 0, BuildingBlock: UKALOJ_clean_sbu_0, # of connection points: 6
#     Node 8, Type 0, BuildingBlock: UKALOJ_clean_sbu_0, # of connection points: 6
#     Node 9, Type 0, BuildingBlock: UKALOJ_clean_sbu_0, # of connection points: 6
#     Node 10, Type 0, BuildingBlock: UKALOJ_clean_sbu_0, # of connection points: 6
#     Node 11, Type 0, BuildingBlock: UKALOJ_clean_sbu_0, # of connection points: 6
#     Edge 12, Type (0, 0), BuildingBlock: CIFDUS_clean_linker_0, # of connection points: 2
#     Edge 13, Type (0, 0), BuildingBlock: CIFDUS_clean_linker_0, # of connection points: 2
#     Edge 14, Type (0, 0), BuildingBlock: CIFDUS_clean_linker_0, # of connection points: 2
#     Edge 15, Type (0, 0), BuildingBlock: CIFDUS_clean_linker_0, # of connection points: 2
#     Edge 16, Type (0, 0), BuildingBlock: CIFDUS_clean_linker_0, # of connection points: 2
#     Edge 17, Type (0, 0), BuildingBlock: CIFDUS_clean_linker_0, # of connection points: 2
#     Edge 18, Type (0, 0), BuildingBlock: CIFDUS_clean_linker_0, # of connection points: 2
#     Edge 19, Type (0, 0), BuildingBlock: CIFDUS_clean_linker_0, # of connection points: 2
#     Edge 20, Type (0, 0), BuildingBlock: CIFDUS_clean_linker_0, # of connection points: 2
#     Edge 21, Type (0, 0), BuildingBlock: CIFDUS_clean_linker_0, # of connection points: 2
#     Edge 22, Type (0, 0), BuildingBlock: CIFDUS_clean_linker_0, # of connection points: 2
#     Edge 23, Type (0, 0), BuildingBlock: CIFDUS_clean_linker_0, # of connection points: 2
#     Edge 24, Type (0, 0), BuildingBlock: CIFDUS_clean_linker_0, # of connection points: 2
#     Edge 25, Type (0, 0), BuildingBlock: CIFDUS_clean_linker_0, # of connection points: 2
#     Edge 26, Type (0, 0), BuildingBlock: CIFDUS_clean_linker_0, # of connection points: 2
#     Edge 27, Type (0, 0), BuildingBlock: CIFDUS_clean_linker_0, # of connection points: 2
#     Edge 28, Type (0, 0), BuildingBlock: CIFDUS_clean_linker_0, # of connection points: 2
#     Edge 29, Type (0, 0), BuildingBlock: CIFDUS_clean_linker_0, # of connection points: 2
#     Edge 30, Type (0, 0), BuildingBlock: CIFDUS_clean_linker_0, # of connection points: 2
#     Edge 31, Type (0, 0), BuildingBlock: CIFDUS_clean_linker_0, # of connection points: 2
#     Edge 32, Type (0, 0), BuildingBlock: CIFDUS_clean_linker_0, # of connection points: 2
#     Edge 33, Type (0, 0), BuildingBlock: CIFDUS_clean_linker_0, # of connection points: 2
#     Edge 34, Type (0, 0), BuildingBlock: CIFDUS_clean_linker_0, # of connection points: 2
#     Edge 35, Type (0, 0), BuildingBlock: CIFDUS_clean_linker_0, # of connection points: 2
#     Edge 36, Type (0, 0), BuildingBlock: CIFDUS_clean_linker_0, # of connection points: 2
#     Edge 37, Type (0, 0), BuildingBlock: CIFDUS_clean_linker_0, # of connection points: 2
#     Edge 38, Type (0, 0), BuildingBlock: CIFDUS_clean_linker_0, # of connection points: 2
#     Edge 39, Type (0, 0), BuildingBlock: CIFDUS_clean_linker_0, # of connection points: 2
#     Edge 40, Type (0, 0), BuildingBlock: CIFDUS_clean_linker_0, # of connection points: 2
#     Edge 41, Type (0, 0), BuildingBlock: CIFDUS_clean_linker_0, # of connection points: 2
#     Edge 42, Type (0, 0), BuildingBlock: CIFDUS_clean_linker_0, # of connection points: 2
#     Edge 43, Type (0, 0), BuildingBlock: CIFDUS_clean_linker_0, # of connection points: 2
#     Edge 44, Type (0, 0), BuildingBlock: CIFDUS_clean_linker_0, # of connection points: 2
#     Edge 45, Type (0, 0), BuildingBlock: CIFDUS_clean_linker_0, # of connection points: 2
#     Edge 46, Type (0, 0), BuildingBlock: CIFDUS_clean_linker_0, # of connection points: 2
#     Edge 47, Type (0, 0), BuildingBlock: CIFDUS_clean_linker_0, # of connection points: 2
# Relax obj value: 0.108
# Max RMSD: 0.179
# Mean RMSD: 0.179
data_MOF--net-wjd--node1-UKALOJ_clean_sbu_0--edge1-CIFDUS_clean_linker_0
_symmetry_space_group_name_H-M    P1
_symmetry_Int_Tables_number       1
_symmetry_cell_setting            triclinic
loop_
_symmetry_equiv_pos_as_xyz
'x, y, z'
_cell_length_a     25.150501
_cell_length_b     25.100237
_cell_length_c     72.647299
_cell_angle_alpha  90.914996
_cell_angle_beta   89.80945
_cell_angle_gamma 119.93319
loop_
_atom_site_label
_atom_site_type_symbol
_atom_site_fract_x
_atom_site_fract_y
_atom_site_fract_z
_atom_type_partial_charge
Zn0 Zn 0.3202 0.09557 0.15258 0.0
O1 O 0.38635 0.18387 0.14584 0.0
C2 C 0.40755 0.05741 0.13991 0.0
Zn3 Zn 0.31572 0.08016 0.12194 0.0
C4 C 0.40472 0.2061 0.12999 0.0
O5 O 0.38434 0.17128 0.11573 0.0
C6 C 0.22642 0.97233 0.14512 0.0
O7 O 0.25021 0.10699 0.11947 0.0
O8 O 0.25369 0.12239 0.14947 0.0
N9 N 0.30114 0.0486 0.09499 0.0
C10 C 0.30875 0.07236 0.07798 0.0
C11 C 0.26438 0.97486 0.07468 0.0
N12 N 0.27382 0.98812 0.09276 0.0
N13 N 0.28556 0.02677 0.06504 0.0
C14 C 0.32553 0.09146 0.1957 0.0
C15 C 0.34565 0.18178 0.20354 0.0
N16 N 0.33081 0.12203 0.18005 0.0
N17 N 0.34355 0.1782 0.185 0.0
N18 N 0.33427 0.12788 0.21068 0.0
H19 H 0.33461 0.01719 0.18377 0.0
H20 H 0.33626 0.02053 0.20863 0.0
H21 H 0.26513 -0.00579 0.19629 0.0
C22 C 0.31516 0.02727 0.19614 0.0
C23 C 0.33578 0.13938 0.07428 0.0
H24 H 0.3196 0.16072 0.08473 0.0
H25 H 0.38647 0.16209 0.07544 0.0
H26 H 0.32343 0.1468 0.06028 0.0
O27 O 0.24654 -0.00811 0.12916 0.0
O28 O 0.25159 0.00711 0.15899 0.0
C29 C 0.2331 0.12443 0.13367 0.0
O30 O 0.38862 0.07138 0.15447 0.0
O31 O 0.3826 0.05504 0.12454 0.0
Zn32 Zn 0.75908 0.66656 0.41064 0.0
O33 O 0.85245 0.73544 0.40781 0.0
C34 C 0.72208 0.75578 0.39773 0.0
Zn35 Zn 0.74448 0.66316 0.38003 0.0
C36 C 0.87253 0.75252 0.39157 0.0
O37 O 0.8365 0.7303 0.37782 0.0
C38 C 0.63222 0.57366 0.39804 0.0
O39 O 0.76846 0.59471 0.37786 0.0
O40 O 0.78699 0.59985 0.40757 0.0
N41 N 0.73199 0.66051 0.35219 0.0
C42 C 0.76719 0.66455 0.33763 0.0
C43 C 0.68195 0.65032 0.32712 0.0
N44 N 0.67915 0.65171 0.3456 0.0
N45 N 0.73672 0.65834 0.3217 0.0
C46 C 0.76942 0.70207 0.45347 0.0
C47 C 0.7557 0.6192 0.4653 0.0
N48 N 0.76524 0.66414 0.43936 0.0
N49 N 0.75696 0.61286 0.44688 0.0
N50 N 0.76289 0.67465 0.46994 0.0
H51 H 0.81342 0.78694 0.43889 0.0
H52 H 0.80722 0.79541 0.46346 0.0
H53 H 0.74021 0.76723 0.44894 0.0
C54 C 0.78368 0.7669 0.45108 0.0
C55 C 0.8299 0.67169 0.33914 0.0
H56 H 0.86474 0.72132 0.33889 0.0
H57 H 0.83851 0.648 0.32747 0.0
H58 H 0.83564 0.65317 0.35222 0.0
O59 O 0.65364 0.59648 0.38251 0.0
O60 O 0.66596 0.595 0.41233 0.0
C61 C 0.78698 0.57794 0.39164 0.0
O62 O 0.73355 0.73559 0.41228 0.0
O63 O 0.72163 0.73146 0.38227 0.0
Zn64 Zn 0.88457 0.21798 0.15775 0.0
O65 O 0.7946 0.19642 0.15831 0.0
C66 C 0.91458 0.34099 0.14807 0.0
Zn67 Zn 0.88344 0.22459 0.12702 0.0
C68 C 0.76339 0.18905 0.14392 0.0
O69 O 0.78859 0.19797 0.12819 0.0
C70 C 0.00367 0.2493 0.14203 0.0
O71 O 0.85738 0.13314 0.12224 0.0
O72 O 0.85519 0.12391 0.15232 0.0
N73 N 0.8844 0.23983 0.09901 0.0
C74 C 0.91725 0.23635 0.08474 0.0
C75 C 0.858 0.26623 0.07399 0.0
N76 N 0.84764 0.25836 0.09222 0.0
N77 N 0.90177 0.25305 0.0689 0.0
C78 C 0.90839 0.23456 0.20043 0.0
C79 C 0.83621 0.14837 0.20973 0.0
N80 N 0.87825 0.20085 0.18538 0.0
N81 N 0.83363 0.14736 0.19123 0.0
N82 N 0.8826 0.20256 0.21589 0.0
H83 H 0.93707 0.32981 0.19868 0.0
H84 H -0.01288 0.31508 0.2124 0.0
H85 H -0.01241 0.30818 0.18757 0.0
C86 C 0.95834 0.30048 0.19982 0.0
C87 C 0.96153 0.21319 0.08616 0.0
H88 H 0.94742 0.17879 0.0972 0.0
H89 H 0.96439 0.19212 0.07292 0.0
H90 H 0.00767 0.2524 0.08956 0.0
O91 O 0.97679 0.24824 0.12709 0.0
O92 O 0.97533 0.2392 0.1572 0.0
C93 C 0.8461 0.09976 0.13627 0.0
O94 O 0.91039 0.31041 0.1623 0.0
O95 O 0.90747 0.31603 0.13222 0.0
Zn96 Zn 0.32216 0.08842 0.40794 0.0
O97 O 0.25592 0.114 0.41214 0.0
C98 C 0.22987 0.97527 0.39037 0.0
Zn99 Zn 0.32061 0.10306 0.37786 0.0
C100 C 0.23563 0.13085 0.39884 0.0
O101 O 0.25379 0.12952 0.38258 0.0
C102 C 0.41252 0.06701 0.3884 0.0
O103 O 0.38835 0.19663 0.38026 0.0
O104 O 0.38949 0.1808 0.40995 0.0
N105 N 0.30995 0.1079 0.34989 0.0
C106 C 0.34705 0.13064 0.33512 0.0
C107 C 0.25495 0.08329 0.32514 0.0
N108 N 0.2529 0.07893 0.34356 0.0
N109 N 0.31344 0.11541 0.31934 0.0
C110 C 0.28579 0.04434 0.44763 0.0
C111 C 0.37158 0.09185 0.46182 0.0
N112 N 0.32834 0.08039 0.43537 0.0
N113 N 0.38157 0.11019 0.4442 0.0
N114 N 0.31191 0.05036 0.46423 0.0
H115 H 0.2037 0.0239 0.43238 0.0
H116 H 0.19126 0.00137 0.45617 0.0
H117 H 0.20829 0.95822 0.43962 0.0
C118 C 0.2184 0.0051 0.44368 0.0
C119 C 0.41565 0.1652 0.33622 0.0
H120 H 0.43191 0.15875 0.34967 0.0
H121 H 0.43235 0.215 0.33478 0.0
H122 H 0.43529 0.15032 0.32489 0.0
O123 O 0.39115 0.07947 0.37424 0.0
O124 O 0.38916 0.06492 0.40402 0.0
C125 C 0.40866 0.21689 0.39641 0.0
O126 O 0.25516 -0.00312 0.40581 0.0
O127 O 0.2495 0.00894 0.37626 0.0
Zn128 Zn 0.7488 0.65478 0.12529 0.0
O129 O 0.83932 0.7231 0.12207 0.0
C130 C 0.71847 0.74391 0.1419 0.0
Zn131 Zn 0.75588 0.65662 0.15581 0.0
C132 C 0.87175 0.74443 0.13653 0.0
O133 O 0.84735 0.72624 0.15219 0.0
C134 C 0.63477 0.56109 0.1438 0.0
O135 O 0.78657 0.59297 0.15503 0.0
O136 O 0.77872 0.5904 0.12488 0.0
N137 N 0.76936 0.66903 0.18354 0.0
C138 C 0.7479 0.63189 0.19818 0.0
C139 C 0.80548 0.72321 0.20841 0.0
N140 N 0.80521 0.72561 0.18995 0.0
N141 N 0.7698 0.665 0.21403 0.0
C142 C 0.7379 0.68235 0.08439 0.0
C143 C 0.70313 0.59401 0.07168 0.0
N144 N 0.73546 0.64385 0.09748 0.0
N145 N 0.7143 0.58905 0.08952 0.0
N146 N 0.71724 0.6521 0.06818 0.0
H147 H 0.79523 0.76807 0.09888 0.0
H148 H 0.7851 0.77504 0.07455 0.0
H149 H 0.7233 0.75735 0.09016 0.0
C150 C 0.76227 0.74977 0.08723 0.0
C151 C 0.70835 0.56341 0.19671 0.0
H152 H 0.71728 0.5459 0.18365 0.0
H153 H 0.71677 0.54091 0.20849 0.0
H154 H 0.65943 0.55115 0.19673 0.0
O155 O 0.66459 0.58459 0.15865 0.0
O156 O 0.659 0.58434 0.12851 0.0
C157 C 0.79343 0.57348 0.13946 0.0
O158 O 0.7213 0.7214 0.12639 0.0
O159 O 0.72783 0.72256 0.15646 0.0
Zn160 Zn 0.88886 0.23752 0.41315 0.0
O161 O 0.86138 0.1463 0.41594 0.0
C162 C 0.01065 0.2627 0.39976 0.0
Zn163 Zn 0.89246 0.23182 0.38236 0.0
C164 C 0.85299 0.11288 0.40181 0.0
O165 O 0.86342 0.13643 0.38587 0.0
C166 C 0.92227 0.3555 0.3947 0.0
O167 O 0.80235 0.20883 0.38002 0.0
O168 O 0.79327 0.21224 0.41019 0.0
N169 N 0.89935 0.22138 0.35457 0.0
C170 C 0.87698 0.23363 0.33935 0.0
C171 C 0.93393 0.19772 0.33046 0.0
N172 N 0.93452 0.19898 0.34896 0.0
N173 N 0.8982 0.21921 0.32399 0.0
C174 C 0.92083 0.23952 0.45468 0.0
C175 C 0.8735 0.27984 0.4679 0.0
N176 N 0.88789 0.24785 0.44153 0.0
N177 N 0.85812 0.27252 0.44985 0.0
N178 N 0.91312 0.25971 0.47125 0.0
H179 H 0.94247 0.1775 0.4398 0.0
H180 H 0.96006 0.18559 0.46408 0.0
H181 H 0.00736 0.24663 0.44884 0.0
C182 C 0.95955 0.21024 0.45159 0.0
C183 C 0.83693 0.2621 0.33965 0.0
H184 H 0.84413 0.28929 0.35248 0.0
H185 H 0.78817 0.22508 0.33917 0.0
H186 H 0.84621 0.29197 0.32758 0.0
O187 O 0.91789 0.32546 0.37994 0.0
O188 O 0.91506 0.32997 0.41017 0.0
C189 C 0.76989 0.20301 0.39404 0.0
O190 O 0.98233 0.25967 0.41455 0.0
O191 O 0.98364 0.25487 0.38448 0.0
Zn192 Zn 0.07115 0.31088 0.65958 0.0
O193 O 0.16413 0.37871 0.66114 0.0
C194 C 0.04681 0.40246 0.64274 0.0
Zn195 Zn 0.07739 0.30949 0.62887 0.0
C196 C 0.19647 0.39591 0.64663 0.0
O197 O 0.17126 0.37521 0.63101 0.0
C198 C 0.95395 0.21973 0.64217 0.0
O199 O 0.10179 0.24068 0.63029 0.0
O200 O 0.0968 0.24333 0.66061 0.0
N201 N 0.08224 0.31288 0.60048 0.0
C202 C 0.04534 0.2735 0.58724 0.0
C203 C 0.10304 0.35903 0.57441 0.0
N204 N 0.11841 0.36582 0.59239 0.0
N205 N 0.05675 0.30163 0.57078 0.0
C206 C 0.09147 0.30844 0.70241 0.0
C207 C 0.01777 0.31978 0.71229 0.0
N208 N 0.06123 0.31196 0.68757 0.0
N209 N 0.01551 0.31887 0.69382 0.0
N210 N 0.06497 0.31333 0.71816 0.0
H211 H 0.17217 0.32094 0.68811 0.0
H212 H 0.13474 0.25376 0.70195 0.0
H213 H 0.1796 0.32816 0.71294 0.0
C214 C 0.14807 0.303 0.70129 0.0
C215 C 0.001 0.20676 0.5902 0.0
H216 H 0.01635 0.1894 0.6018 0.0
H217 H -0.00349 0.17952 0.57752 0.0
H218 H 0.95533 0.20063 0.59349 0.0
O219 O 0.98386 0.24243 0.62752 0.0
O220 O 0.97932 0.2417 0.65764 0.0
C221 C 0.10847 0.22261 0.64597 0.0
O222 O 0.04744 0.37965 0.65812 0.0
O223 O 0.05604 0.38001 0.62813 0.0
Zn224 Zn 0.21316 0.89384 0.90381 0.0
O225 O 0.12029 0.86909 0.90597 0.0
C226 C 0.24758 0.01802 0.88985 0.0
Zn227 Zn 0.21579 0.89891 0.87318 0.0
C228 C 0.09458 0.8656 0.89062 0.0
O229 O 0.12525 0.87772 0.87588 0.0
C230 C 0.33306 0.92181 0.88571 0.0
O231 O 0.18541 0.80441 0.87236 0.0
O232 O 0.18479 0.79932 0.90257 0.0
N233 N 0.20522 0.89922 0.84543 0.0
C234 C 0.22405 0.87875 0.83095 0.0
C235 C 0.16885 0.91399 0.82044 0.0
N236 N 0.171 0.92107 0.83885 0.0
N237 N 0.20168 0.88748 0.81507 0.0
C238 C 0.20695 0.92019 0.94598 0.0
C239 C 0.27256 0.89879 0.95688 0.0
N240 N 0.22521 0.89723 0.93193 0.0
N241 N 0.26577 0.88381 0.93881 0.0
N242 N 0.23631 0.92191 0.96171 0.0
H243 H 0.11703 0.90805 0.94838 0.0
H244 H 0.17765 0.98496 0.95334 0.0
H245 H 0.16066 0.95665 0.92978 0.0
C246 C 0.16344 0.94428 0.94414 0.0
C247 C 0.26176 0.84789 0.83256 0.0
H248 H 0.25559 0.82619 0.84611 0.0
H249 H 0.24947 0.81259 0.8215 0.0
H250 H 0.31099 0.88291 0.83125 0.0
O251 O 0.30624 0.91891 0.87066 0.0
O252 O 0.30513 0.91562 0.90083 0.0
C253 C 0.17498 0.773 0.88683 0.0
O254 O 0.23917 0.98751 0.90441 0.0
O255 O 0.2437 -0.0075 0.87431 0.0
Zn256 Zn 0.6488 0.74527 0.62514 0.0
O257 O 0.71751 0.8383 0.62796 0.0
C258 C 0.73689 0.70915 0.63935 0.0
Zn259 Zn 0.64534 0.73574 0.65607 0.0
C260 C 0.73544 0.86128 0.64405 0.0
O261 O 0.71416 0.82758 0.65811 0.0
C262 C 0.553 0.6216 0.63763 0.0
O263 O 0.57962 0.76321 0.65722 0.0
O264 O 0.58298 0.77407 0.62717 0.0
N265 N 0.64274 0.72604 0.68434 0.0
C266 C 0.64923 0.76336 0.69884 0.0
C267 C 0.63303 0.6782 0.70966 0.0
N268 N 0.63265 0.67324 0.69118 0.0
N269 N 0.64349 0.73435 0.71496 0.0
C270 C 0.68782 0.75808 0.58279 0.0
C271 C 0.60377 0.73722 0.56982 0.0
N272 N 0.64737 0.74952 0.59638 0.0
N273 N 0.59534 0.73679 0.58816 0.0
N274 N 0.66137 0.75 0.56594 0.0
H275 H 0.76984 0.8037 0.59929 0.0
H276 H 0.78262 0.80642 0.57467 0.0
H277 H 0.75827 0.73597 0.58676 0.0
C278 C 0.75369 0.77758 0.58609 0.0
C279 C 0.65809 0.82669 0.69703 0.0
H280 H 0.63914 0.83142 0.68383 0.0
H281 H 0.70791 0.86063 0.69727 0.0
H282 H 0.63579 0.83741 0.70858 0.0
O283 O 0.57525 0.64487 0.65332 0.0
O284 O 0.57726 0.65259 0.62325 0.0
C285 C 0.56256 0.7787 0.64282 0.0
O286 O 0.71675 0.71909 0.62449 0.0
O287 O 0.71239 0.71003 0.65457 0.0
Zn288 Zn 0.08072 0.32557 0.88491 0.0
O289 O 0.17014 0.39278 0.8821 0.0
C290 C 0.05181 0.41889 0.89704 0.0
Zn291 Zn 0.08804 0.33534 0.91573 0.0
C292 C 0.20409 0.41921 0.89594 0.0
O293 O 0.18257 0.40493 0.91218 0.0
C294 C 0.96505 0.23873 0.90311 0.0
O295 O 0.11633 0.27116 0.91861 0.0
O296 O 0.11095 0.26109 0.88846 0.0
N297 N 0.09392 0.35115 0.94398 0.0
C298 C 0.06376 0.31433 0.95825 0.0
C299 C 0.12232 0.40396 0.96942 0.0
N300 N 0.1304 0.40676 0.95102 0.0
N301 N 0.0804 0.3465 0.97435 0.0
C302 C 0.08579 0.34149 0.84192 0.0
C303 C 0.05483 0.24935 0.83291 0.0
N304 N 0.07367 0.30705 0.85711 0.0
N305 N 0.05451 0.24991 0.85142 0.0
N306 N 0.07419 0.30618 0.8265 0.0
H307 H 0.1375 0.43057 0.85525 0.0
H308 H 0.14235 0.43129 0.83043 0.0
H309 H 0.07346 0.41971 0.8417 0.0
C310 C 0.11171 0.40977 0.84235 0.0
C311 C 0.02095 0.24642 0.95652 0.0
H312 H 0.03456 0.22676 0.94489 0.0
H313 H 0.02067 0.22303 0.96939 0.0
H314 H 0.9738 0.23766 0.95393 0.0
O315 O -0.00503 0.26438 0.91779 0.0
O316 O -0.00966 0.25719 0.88762 0.0
C317 C 0.12395 0.2476 0.90399 0.0
O318 O 0.05404 0.39209 0.88229 0.0
O319 O 0.06147 0.40187 0.91246 0.0
Zn320 Zn 0.21308 0.8769 0.64951 0.0
O321 O 0.188 0.78405 0.64885 0.0
C322 C 0.3365 0.90878 0.63405 0.0
Zn323 Zn 0.21921 0.88321 0.61922 0.0
C324 C 0.18115 0.75821 0.63317 0.0
O325 O 0.19308 0.78974 0.61869 0.0
C326 C 0.2442 0.00053 0.63553 0.0
O327 O 0.12656 0.85735 0.61944 0.0
O328 O 0.11903 0.84999 0.64959 0.0
N329 N 0.22007 0.88237 0.59144 0.0
C330 C 0.21124 0.91657 0.57908 0.0
C331 C 0.24353 0.86407 0.56446 0.0
N332 N 0.2395 0.84926 0.58233 0.0
N333 N 0.22632 0.90643 0.5621 0.0
C334 C 0.18502 0.85022 0.69172 0.0
C335 C 0.26988 0.92184 0.7026 0.0
N336 N 0.22016 0.88183 0.67737 0.0
N337 N 0.27265 0.92623 0.68421 0.0
N338 N 0.21551 0.87449 0.70776 0.0
H339 H 0.08756 0.80914 0.69056 0.0
H340 H 0.11411 0.76197 0.70106 0.0
H341 H 0.11743 0.77134 0.67631 0.0
C342 C 0.12257 0.79461 0.68981 0.0
C343 C 0.18548 0.95778 0.58346 0.0
H344 H 0.1544 0.9408 0.59545 0.0
H345 H 0.16013 0.96079 0.57141 0.0
H346 H 0.22351 0.00459 0.58679 0.0
O347 O 0.24371 0.97635 0.62003 0.0
O348 O 0.23538 0.96958 0.64999 0.0
C349 C 0.09419 0.84435 0.6339 0.0
O350 O 0.30653 0.90069 0.64883 0.0
O351 O 0.31118 0.90679 0.61884 0.0
Zn352 Zn 0.65205 0.7694 0.88188 0.0
O353 O 0.58739 0.79753 0.88239 0.0
C354 C 0.55884 0.64423 0.89201 0.0
Zn355 Zn 0.64778 0.75698 0.91235 0.0
C356 C 0.56576 0.80155 0.89784 0.0
O357 O 0.58174 0.78563 0.91241 0.0
C358 C 0.73849 0.73081 0.89637 0.0
O359 O 0.71492 0.84744 0.91707 0.0
O360 O 0.72058 0.86245 0.88722 0.0
N361 N 0.63637 0.74174 0.9399 0.0
C362 C 0.67551 0.74462 0.95302 0.0
C363 C 0.58718 0.70705 0.96529 0.0
N364 N 0.58158 0.71877 0.94758 0.0
N365 N 0.64562 0.72249 0.96898 0.0
C366 C 0.62861 0.76011 0.83897 0.0
C367 C 0.71916 0.81902 0.82924 0.0
N368 N 0.66548 0.78381 0.8539 0.0
N369 N 0.7216 0.82055 0.84776 0.0
N370 N 0.66139 0.78119 0.82322 0.0
H371 H 0.54253 0.72915 0.85283 0.0
H372 H 0.53742 0.72565 0.82797 0.0
H373 H 0.54933 0.6706 0.84035 0.0
C374 C 0.56044 0.71927 0.84005 0.0
C375 C 0.74329 0.77149 0.9505 0.0
H376 H 0.7609 0.80656 0.93964 0.0
H377 H 0.76809 0.79265 0.96359 0.0
H378 H 0.75286 0.73438 0.94646 0.0
O379 O 0.71405 0.73027 0.91169 0.0
O380 O 0.71912 0.74328 0.88187 0.0
C381 C 0.73745 0.88311 0.90356 0.0
O382 O 0.58124 0.67675 0.87775 0.0
O383 O 0.58013 0.66706 0.90777 0.0
H384 H 0.04779 0.21295 0.11365 0.0
H385 H 0.08643 0.27935 0.16989 0.0
H386 H 0.16407 0.24827 0.17201 0.0
H387 H 0.21056 0.19043 0.15912 0.0
H388 H 0.16744 0.11946 0.10331 0.0
H389 H 0.10091 0.16357 0.09984 0.0
C390 C 0.07452 0.22247 0.12617 0.0
C391 C 0.0614 0.24813 0.1416 0.0
C392 C 0.11676 0.20195 0.12754 0.0
C393 C 0.09587 0.2595 0.15784 0.0
C394 C 0.13967 0.24115 0.15912 0.0
C395 C 0.18652 0.18453 0.14621 0.0
C396 C 0.19285 0.15078 0.13162 0.0
C397 C 0.14851 0.21 0.1443 0.0
C398 C 0.16258 0.14462 0.11483 0.0
C399 C 0.12485 0.17008 0.11279 0.0
H400 H 0.1383 0.94381 0.36578 0.0
H401 H 0.18566 0.88163 0.41482 0.0
H402 H 0.07758 0.80683 0.41984 0.0
H403 H 0.96891 0.76724 0.41204 0.0
H404 H 0.92226 0.82971 0.36292 0.0
H405 H 0.03087 0.8971 0.35631 0.0
C406 C 0.12521 0.9126 0.37724 0.0
C407 C 0.16966 0.91862 0.39003 0.0
C408 C 0.063 0.87116 0.38033 0.0
C409 C 0.152 0.87814 0.40489 0.0
C410 C 0.09023 0.83582 0.40786 0.0
C411 C 0.98271 0.79599 0.39998 0.0
C412 C 0.938 0.79474 0.3882 0.0
C413 C 0.04519 0.8337 0.39607 0.0
C414 C 0.95613 0.8307 0.37231 0.0
C415 C 0.01811 0.86887 0.36846 0.0
H416 H 0.79144 0.01371 0.16254 0.0
H417 H 0.83585 0.03548 0.10466 0.0
H418 H 0.78797 0.92426 0.10069 0.0
H419 H 0.74257 0.82308 0.11418 0.0
H420 H 0.70283 0.80054 0.17222 0.0
H421 H 0.73762 0.91018 0.17551 0.0
C422 C 0.79078 -0.00588 0.14907 0.0
C423 C 0.8181 0.03272 0.13398 0.0
C424 C 0.76313 0.93022 0.14687 0.0
C425 C 0.81577 0.0067 0.11653 0.0
C426 C 0.7881 0.94317 0.11423 0.0
C427 C 0.73976 0.84147 0.12744 0.0
C428 C 0.72061 0.80368 0.14291 0.0
C429 C 0.7625 0.90468 0.12935 0.0
C430 C 0.71757 0.82872 0.16007 0.0
C431 C 0.73815 0.8915 0.162 0.0
H432 H 0.21898 0.20941 0.37785 0.0
H433 H 0.1625 0.10959 0.42866 0.0
H434 H 0.09529 0.15173 0.4352 0.0
H435 H 0.04591 0.20884 0.42499 0.0
H436 H 0.10019 0.30678 0.37392 0.0
H437 H 0.17674 0.27506 0.3692 0.0
C438 C 0.19178 0.19681 0.39032 0.0
C439 C 0.19461 0.15564 0.40258 0.0
C440 C 0.15387 0.22169 0.39409 0.0
C441 C 0.16042 0.14074 0.41891 0.0
C442 C 0.1223 0.16503 0.42271 0.0
C443 C 0.07614 0.22537 0.41324 0.0
C444 C 0.06788 0.26046 0.39991 0.0
C445 C 0.11812 0.20492 0.41028 0.0
C446 C 0.10619 0.28002 0.38442 0.0
C447 C 0.14932 0.26126 0.38161 0.0
H448 H 0.14971 0.90765 0.11734 0.0
H449 H 0.16615 0.91481 0.17662 0.0
H450 H 0.05605 0.84263 0.17912 0.0
H451 H 0.95441 0.78787 0.16452 0.0
H452 H 0.93873 0.78874 0.1053 0.0
H453 H 0.04993 0.84972 0.10279 0.0
C454 C 0.12967 0.89259 0.13084 0.0
C455 C 0.16584 0.91698 0.14679 0.0
C456 C 0.06638 0.85432 0.13219 0.0
C457 C 0.13912 0.89671 0.16414 0.0
C458 C 0.07615 0.85615 0.16558 0.0
C459 C 0.97529 0.80163 0.15106 0.0
C460 C 0.93844 0.78454 0.13513 0.0
C461 C 0.03914 0.83673 0.14971 0.0
C462 C 0.96611 0.80199 0.11779 0.0
C463 C 0.02964 0.83635 0.11632 0.0
H464 H 0.76673 0.8425 0.4248 0.0
H465 H 0.6859 0.80458 0.37049 0.0
H466 H 0.71963 0.91342 0.36684 0.0
H467 H 0.78291 0.02068 0.3777 0.0
H468 H 0.86533 0.05734 0.4318 0.0
H469 H 0.82126 0.94747 0.43676 0.0
C470 C 0.75487 0.85754 0.41238 0.0
C471 C 0.72448 0.81562 0.3979 0.0
C472 C 0.77649 0.92025 0.41009 0.0
C473 C 0.70959 0.83613 0.38185 0.0
C474 C 0.72951 0.89842 0.37964 0.0
C475 C 0.79138 0.00442 0.3905 0.0
C476 C 0.82809 0.04671 0.40422 0.0
C477 C 0.76523 0.94116 0.39337 0.0
C478 C 0.83763 0.0254 0.42096 0.0
C479 C 0.81219 0.96268 0.42386 0.0
H480 H 0.20156 0.03901 0.66389 0.0
H481 H 0.27312 0.0864 0.60881 0.0
H482 H 0.23647 0.15994 0.60714 0.0
H483 H 0.17485 0.2024 0.62021 0.0
H484 H 0.1027 0.15355 0.67519 0.0
H485 H 0.14826 0.08795 0.67792 0.0
C486 C 0.2106 0.06647 0.65166 0.0
C487 C 0.23905 0.0565 0.63635 0.0
C488 C 0.18786 0.10709 0.65062 0.0
C489 C 0.2504 0.09256 0.62066 0.0
C490 C 0.22912 0.13427 0.61966 0.0
C491 C 0.16884 0.1771 0.63274 0.0
C492 C 0.13449 0.18173 0.64734 0.0
C493 C 0.19576 0.14011 0.63429 0.0
C494 C 0.12834 0.15003 0.66368 0.0
C495 C 0.15466 0.11286 0.66529 0.0
H496 H 0.00604 0.79498 0.91509 0.0
H497 H 0.0354 0.88242 0.86237 0.0
H498 H 0.92539 0.83694 0.85796 0.0
H499 H 0.82237 0.77817 0.86964 0.0
H500 H 0.79026 0.69407 0.9229 0.0
H501 H 0.9 0.73023 0.92621 0.0
C502 C -0.01184 0.80445 0.90276 0.0
C503 C 0.02851 0.84247 0.88919 0.0
C504 C 0.92464 0.77776 0.90022 0.0
C505 C 0.00507 0.85356 0.87308 0.0
C506 C 0.94224 0.82725 0.87046 0.0
C507 C 0.83892 0.76629 0.8818 0.0
C508 C 0.79857 0.73438 0.89614 0.0
C509 C 0.90177 0.78955 0.88395 0.0
C510 C 0.82081 0.71938 0.91179 0.0
C511 C 0.8835 0.74053 0.91375 0.0
H512 H 0.75752 0.95139 0.61995 0.0
H513 H 0.80242 0.92001 0.67456 0.0
H514 H 0.86551 0.03047 0.67995 0.0
H515 H 0.91323 0.1346 0.66848 0.0
H516 H 0.87174 0.16759 0.6137 0.0
H517 H 0.79999 0.05751 0.60923 0.0
C518 C 0.78153 0.96882 0.63296 0.0
C519 C 0.77624 0.92777 0.64673 0.0
C520 C 0.81729 0.0324 0.63604 0.0
C521 C 0.80633 0.95081 0.66369 0.0
C522 C 0.84206 0.01389 0.66684 0.0
C523 C 0.88727 0.11808 0.65573 0.0
C524 C 0.89831 0.15886 0.64131 0.0
C525 C 0.84817 0.05497 0.65307 0.0
C526 C 0.86459 0.13671 0.62486 0.0
C527 C 0.82398 0.07386 0.62228 0.0
H528 H 0.17916 0.2205 0.87635 0.0
H529 H 0.13322 0.18879 0.93396 0.0
H530 H 0.17952 0.12348 0.93546 0.0
H531 H 0.22398 0.06841 0.91974 0.0
H532 H 0.26577 0.09643 0.86179 0.0
H533 H 0.23269 0.17275 0.86131 0.0
C534 C 0.17918 0.19917 0.88922 0.0
C535 C 0.15178 0.20828 0.90492 0.0
C536 C 0.20606 0.16207 0.89 0.0
C537 C 0.15342 0.18173 0.92163 0.0
C538 C 0.18013 0.14471 0.92252 0.0
C539 C 0.22725 0.09216 0.90708 0.0
C540 C 0.24632 0.07604 0.89076 0.0
C541 C 0.20563 0.13379 0.90672 0.0
C542 C 0.25082 0.10773 0.87452 0.0
C543 C 0.23125 0.15082 0.87419 0.0
H544 H 0.00598 0.78021 0.65927 0.0
H545 H 0.03295 0.84813 0.60378 0.0
H546 H 0.9226 0.80072 0.59945 0.0
H547 H 0.81997 0.74684 0.61198 0.0
H548 H 0.79103 0.68342 0.66788 0.0
H549 H 0.90064 0.71975 0.67123 0.0
C550 C -0.0124 0.7849 0.64629 0.0
C551 C 0.02752 0.81831 0.63197 0.0
C552 C 0.9239 0.75728 0.64383 0.0
C553 C 0.00317 0.82306 0.61509 0.0
C554 C 0.94008 0.79564 0.61253 0.0
C555 C 0.83707 0.73949 0.62474 0.0
C556 C 0.79737 0.71298 0.63965 0.0
C557 C 0.90015 0.76316 0.62685 0.0
C558 C 0.8207 0.70387 0.65615 0.0
C559 C 0.88347 0.72535 0.65816 0.0
H560 H 0.92961 0.15182 0.92902 0.0
H561 H 0.87416 0.19265 0.87748 0.0
H562 H 0.79686 0.08445 0.87314 0.0
H563 H 0.75457 0.97715 0.88213 0.0
H564 H 0.81156 0.93592 0.93336 0.0
H565 H 0.87972 0.04556 0.93959 0.0
C566 C 0.89911 0.13738 0.91719 0.0
C567 C 0.90738 0.17983 0.90359 0.0
C568 C 0.85666 0.07487 0.91443 0.0
C569 C 0.86833 0.16048 0.88814 0.0
C570 C 0.82475 0.09862 0.88554 0.0
C571 C 0.78215 -0.00771 0.89461 0.0
C572 C 0.77929 0.94889 0.90708 0.0
C573 C 0.82043 0.05518 0.89821 0.0
C574 C 0.81381 0.9688 0.92345 0.0
C575 C 0.85242 0.03135 0.92708 0.0
H576 H 0.25885 0.03573 0.29148 0.0
H577 H 0.406 0.21889 0.30392 0.0
H578 H 0.42875 0.23713 0.2711 0.0
H579 H 0.4019 0.20294 0.23855 0.0
H580 H 0.24868 0.02263 0.2266 0.0
H581 H 0.23326 0.0012 0.25935 0.0
C582 C 0.29629 0.07948 0.287 0.0
C583 C 0.33137 0.12539 0.30022 0.0
C584 C 0.30787 0.09012 0.26811 0.0
C585 C 0.37952 0.18198 0.29419 0.0
C586 C 0.39197 0.19271 0.27536 0.0
C587 C 0.36562 0.15876 0.24317 0.0
C588 C 0.32777 0.11375 0.23005 0.0
C589 C 0.35589 0.14737 0.26217 0.0
C590 C 0.28023 0.05707 0.23624 0.0
C591 C 0.27078 0.04512 0.25504 0.0
H592 H 0.66562 0.58977 0.29368 0.0
H593 H 0.84872 0.73446 0.3071 0.0
H594 H 0.87723 0.74256 0.27473 0.0
H595 H 0.84751 0.71486 0.24235 0.0
H596 H 0.66084 0.57953 0.22864 0.0
H597 H 0.63641 0.5606 0.26122 0.0
C598 C 0.71192 0.62256 0.28948 0.0
C599 C 0.7554 0.66026 0.30285 0.0
C600 C 0.72726 0.62855 0.27075 0.0
C601 C 0.81506 0.70315 0.29726 0.0
C602 C 0.83114 0.70842 0.27868 0.0
C603 C 0.80172 0.68059 0.24653 0.0
C604 C 0.75661 0.64758 0.23302 0.0
C605 C 0.78732 0.67205 0.2653 0.0
C606 C 0.6972 0.60383 0.23861 0.0
C607 C 0.68289 0.59376 0.2573 0.0
H608 H 0.80487 0.19204 0.24257 0.0
H609 H -0.00671 0.24523 0.23203 0.0
H610 H 0.01633 0.26188 0.26504 0.0
H611 H 0.98048 0.25265 0.29699 0.0
H612 H 0.79003 0.19108 0.30766 0.0
H613 H 0.76988 0.18699 0.27463 0.0
C614 C 0.8511 0.20828 0.24759 0.0
C615 C 0.8978 0.21915 0.23496 0.0
C616 C 0.86336 0.21596 0.26659 0.0
C617 C 0.95733 0.23897 0.24148 0.0
C618 C 0.9702 0.24761 0.26035 0.0
C619 C 0.93478 0.23914 0.29203 0.0
C620 C 0.8871 0.22334 0.30477 0.0
C621 C 0.92332 0.23522 0.27303 0.0
C622 C 0.82792 0.20539 0.29823 0.0
C623 C 0.81624 0.20223 0.27931 0.0
H624 H 0.05359 0.37859 0.74572 0.0
H625 H 0.10519 0.24175 0.73384 0.0
H626 H 0.11901 0.23262 0.76666 0.0
H627 H 0.10802 0.25744 0.79894 0.0
H628 H 0.0452 0.38582 0.81059 0.0
H629 H 0.04444 0.40471 0.77782 0.0
C630 C 0.06856 0.34728 0.75033 0.0
C631 C 0.07968 0.31198 0.73727 0.0
C632 C 0.07413 0.34065 0.76926 0.0
C633 C 0.0985 0.27116 0.74344 0.0
C634 C 0.10547 0.26524 0.76228 0.0
C635 C 0.09484 0.29005 0.79427 0.0
C636 C 0.07838 0.32144 0.80729 0.0
C637 C 0.09238 0.29899 0.77531 0.0
C638 C 0.06059 0.36297 0.80104 0.0
C639 C 0.05923 0.37307 0.78223 0.0
H640 H 0.11785 0.8484 0.78811 0.0
H641 H 0.30645 0.90259 0.79947 0.0
H642 H 0.32358 0.89215 0.76693 0.0
H643 H 0.28846 0.87969 0.73498 0.0
H644 H 0.10398 0.83863 0.72309 0.0
H645 H 0.08106 0.83071 0.75597 0.0
C646 C 0.16239 0.85702 0.78343 0.0
C647 C 0.21038 0.87486 0.79626 0.0
C648 C 0.17254 0.85342 0.76457 0.0
C649 C 0.26811 0.88653 0.79006 0.0
C650 C 0.27817 0.88145 0.77138 0.0
C651 C 0.24293 0.86795 0.73963 0.0
C652 C 0.19779 0.85893 0.72662 0.0
C653 C 0.23115 0.8664 0.75851 0.0
C654 C 0.13901 0.84401 0.73274 0.0
C655 C 0.12623 0.84048 0.75158 0.0
H656 H 0.57985 0.66635 0.74368 0.0
H657 H 0.72164 0.84848 0.72923 0.0
H658 H 0.73435 0.8806 0.76153 0.0
H659 H 0.71038 0.85496 0.79425 0.0
H660 H 0.57708 0.66948 0.80878 0.0
H661 H 0.55548 0.6409 0.77634 0.0
C662 C 0.61309 0.71326 0.7476 0.0
C663 C 0.64837 0.75531 0.73388 0.0
C664 C 0.62169 0.73083 0.76634 0.0
C665 C 0.69191 0.81573 0.73925 0.0
C666 C 0.69989 0.83391 0.75783 0.0
C667 C 0.67603 0.80847 0.7903 0.0
C668 C 0.64405 0.76513 0.80408 0.0
C669 C 0.66558 0.79165 0.77151 0.0
C670 C 0.60044 0.70475 0.79868 0.0
C671 C 0.5888 0.68801 0.78003 0.0
H672 H 0.33082 0.00788 0.98144 0.0
H673 H 0.13543 0.88614 0.98234 0.0
H674 H 0.13212 0.91456 1.01462 0.0
H675 H 0.18724 0.96518 0.04344 0.0
H676 H 0.38228 0.08831 0.0426 0.0
H677 H 0.38393 0.06977 1.00935 0.0
C678 C 0.28758 0.98857 0.98872 0.0
C679 C 0.2334 0.94489 0.97972 0.0
C680 C 0.28626 0.00552 1.0072 0.0
C681 C 0.1774 0.9201 0.98907 0.0
C682 C 0.17568 0.93613 1.0075 0.0
C683 C 0.22967 0.98914 0.03578 0.0
C684 C 0.28454 0.02822 0.04529 0.0
C685 C 0.23004 0.97763 1.01681 0.0
C686 C 0.33953 0.05887 0.03543 0.0
C687 C 0.34045 0.0476 1.01651 0.0
H688 H 0.70556 0.73719 0.48112 0.0
H689 H 0.80575 0.65162 0.5009 0.0
H690 H 0.7869 0.67074 0.53273 0.0
H691 H 0.73469 0.70432 0.55494 0.0
H692 H 0.63576 0.79124 0.53517 0.0
H693 H 0.66167 0.77962 0.50344 0.0
C694 C 0.72511 0.72463 0.49234 0.0
C695 C 0.75812 0.69393 0.48852 0.0
C696 C 0.71372 0.73551 0.51069 0.0
C697 C 0.78061 0.67563 0.50341 0.0
C698 C 0.76971 0.68647 0.52164 0.0
C699 C 0.72058 0.72268 0.5438 0.0
C700 C 0.68412 0.74972 0.54758 0.0
C701 C 0.73547 0.71552 0.52548 0.0
C702 C 0.66409 0.77061 0.5327 0.0
C703 C 0.67884 0.76387 0.51453 0.0
H704 H 0.96193 0.2786 0.98447 0.0
H705 H 0.1467 0.37536 1.00563 0.0
H706 H 0.10807 0.35129 0.0372 0.0
H707 H 0.02089 0.30748 0.05888 0.0
H708 H 0.83623 0.21391 0.03757 0.0
H709 H 0.87515 0.23111 1.006 0.0
C710 C -0.00633 0.29297 0.99597 0.0
C711 C 0.05716 0.32766 0.99273 0.0
C712 C 0.97096 0.27971 1.01407 0.0
C713 C 0.09771 0.3482 1.00783 0.0
C714 C 0.0756 0.33447 0.02585 0.0
C715 C -0.01062 0.28964 0.0473 0.0
C716 C 0.92574 0.25853 0.05051 0.0
C717 C 0.01224 0.30079 0.02917 0.0
C718 C 0.88533 0.23758 0.03538 0.0
C719 C 0.90759 0.2475 1.01736 0.0
H720 H 0.32367 0.09516 0.49834 0.0
H721 H 0.24333 0.92723 0.4662 0.0
H722 H 0.20312 0.86682 0.49406 0.0
H723 H 0.19773 0.86207 0.52784 0.0
H724 H 0.28359 0.03006 0.56001 0.0
H725 H 0.3139 0.09049 0.53206 0.0
C726 C 0.2968 0.04538 0.49758 0.0
C727 C 0.28537 0.01544 0.48043 0.0
C728 C 0.27468 0.0112 0.51364 0.0
C729 C 0.25104 0.951 0.47932 0.0
C730 C 0.22861 0.91655 0.49522 0.0
C731 C 0.22209 0.91191 0.52859 0.0
C732 C 0.23698 0.94167 0.54582 0.0
C733 C 0.24086 0.94618 0.51247 0.0
C734 C 0.26946 0.00623 0.54686 0.0
C735 C 0.28772 0.04078 0.53089 0.0
H736 H 0.7455 0.63511 0.03395 0.0
H737 H 0.65375 0.71196 0.06537 0.0
H738 H 0.62569 0.74373 0.03713 0.0
H739 H 0.62418 0.74625 1.00327 0.0
H740 H 0.71234 0.66577 0.97176 0.0
H741 H 0.74523 0.63893 1.00004 0.0
C742 C 0.71982 0.65926 0.03448 0.0
C743 C 0.70306 0.67275 0.05159 0.0
C744 C 0.70328 0.67665 0.01817 0.0
C745 C 0.66904 0.70324 0.05232 0.0
C746 C 0.65237 0.7207 0.03619 0.0
C747 C 0.65102 0.7233 1.00273 0.0
C748 C 0.66724 0.70935 0.9856 0.0
C749 C 0.66901 0.70741 0.01903 0.0
C750 C 0.7013 0.67888 0.98485 0.0
C751 C 0.71943 0.66289 1.001 0.0
H752 H 0.10046 0.32608 0.53643 0.0
H753 H 0.93263 0.2386 0.56739 0.0
H754 H 0.87267 0.21573 0.5391 0.0
H755 H 0.86785 0.22544 0.50531 0.0
H756 H 0.03598 0.31705 0.47467 0.0
H757 H 0.09578 0.334 0.50279 0.0
C758 C 0.05074 0.30121 0.53688 0.0
C759 C 0.02121 0.28236 0.55396 0.0
C760 C 0.01653 0.28957 0.52055 0.0
C761 C 0.95668 0.2512 0.55443 0.0
C762 C 0.92227 0.23906 0.53823 0.0
C763 C 0.91754 0.2488 0.50491 0.0
C764 C 0.94754 0.26891 0.48796 0.0
C765 C 0.95167 0.2586 0.52121 0.0
C766 C 0.01196 0.29966 0.4875 0.0
C767 C 0.04614 0.30975 0.5036 0.0
H768 H 0.67265 0.11845 0.11963 0.0
H769 H 0.70722 0.20581 0.17333 0.0
H770 H 0.5975 0.16154 0.17835 0.0
H771 H 0.49304 0.10429 0.16677 0.0
H772 H 0.45692 0.01966 0.11263 0.0
H773 H 0.56588 0.05409 0.10885 0.0
C774 C 0.65593 0.12813 0.13231 0.0
C775 C 0.69756 0.16601 0.14595 0.0
C776 C 0.5927 0.10186 0.13523 0.0
C777 C 0.67573 0.17716 0.16256 0.0
C778 C 0.61312 0.15154 0.16551 0.0
C779 C 0.50862 0.09185 0.15433 0.0
C780 C 0.46724 0.06006 0.13994 0.0
C781 C 0.57129 0.11419 0.1519 0.0
C782 C 0.48816 0.04437 0.1239 0.0
C783 C 0.55048 0.06473 0.12162 0.0
H784 H 0.60089 0.48417 0.42282 0.0
H785 H 0.53813 0.52883 0.37331 0.0
H786 H 0.46184 0.42055 0.36838 0.0
H787 H 0.42206 0.31232 0.37616 0.0
H788 H 0.48734 0.26802 0.42522 0.0
H789 H 0.55469 0.37713 0.43211 0.0
C790 C 0.56918 0.47047 0.41129 0.0
C791 C 0.57514 0.51411 0.39841 0.0
C792 C 0.52745 0.40806 0.40811 0.0
C793 C 0.53424 0.49576 0.38341 0.0
C794 C 0.49123 0.43387 0.38045 0.0
C795 C 0.45134 0.32672 0.38828 0.0
C796 C 0.45082 0.28256 0.39997 0.0
C797 C 0.48929 0.38944 0.39229 0.0
C798 C 0.48765 0.30147 0.41591 0.0
C799 C 0.52581 0.36373 0.41992 0.0
H800 H 0.90557 0.40595 0.12031 0.0
H801 H 0.91638 0.4037 0.17958 0.0
H802 H 0.88206 0.47907 0.18212 0.0
H803 H 0.83571 0.53411 0.16754 0.0
H804 H 0.81793 0.52846 0.10828 0.0
H805 H 0.86683 0.46602 0.10577 0.0
C806 C 0.90172 0.42276 0.13381 0.0
C807 C 0.91256 0.39851 0.14974 0.0
C808 C 0.87886 0.46316 0.13519 0.0
C809 C 0.908 0.42141 0.1671 0.0
C810 C 0.88762 0.46389 0.16856 0.0
C811 C 0.84256 0.51921 0.15408 0.0
C812 C 0.82232 0.53505 0.13815 0.0
C813 C 0.87038 0.48291 0.15271 0.0
C814 C 0.83227 0.51616 0.12079 0.0
C815 C 0.86063 0.48083 0.11931 0.0
H816 H 0.50774 0.1374 0.36633 0.0
H817 H 0.45373 0.01019 0.41109 0.0
H818 H 0.56123 0.04329 0.41757 0.0
H819 H 0.67124 0.1159 0.41235 0.0
H820 H 0.72421 0.24363 0.36778 0.0
H821 H 0.61663 0.20428 0.35971 0.0
C822 C 0.51939 0.1154 0.37707 0.0
C823 C 0.47301 0.07122 0.38813 0.0
C824 C 0.58124 0.13657 0.38123 0.0
C825 C 0.48883 0.04399 0.40228 0.0
C826 C 0.55027 0.06358 0.40619 0.0
C827 C 0.65886 0.13546 0.40107 0.0
C828 C 0.70501 0.18332 0.39092 0.0
C829 C 0.59692 0.11149 0.3962 0.0
C830 C 0.689 0.20726 0.37593 0.0
C831 C 0.62768 0.18443 0.3712 0.0
H832 H 0.4389 0.28838 0.15797 0.0
H833 H 0.45969 0.27466 0.0993 0.0
H834 H 0.52576 0.38664 0.09815 0.0
H835 H 0.58245 0.48601 0.11424 0.0
H836 H 0.56489 0.49752 0.17317 0.0
H837 H 0.48994 0.38773 0.17364 0.0
C838 C 0.45784 0.30954 0.14486 0.0
C839 C 0.4453 0.27313 0.12875 0.0
C840 C 0.49526 0.37327 0.14434 0.0
C841 C 0.46941 0.30164 0.1119 0.0
C842 C 0.50677 0.36554 0.11124 0.0
C843 C 0.56132 0.46493 0.12717 0.0
C844 C 0.57944 0.49979 0.14371 0.0
C845 C 0.52047 0.40156 0.12743 0.0
C846 C 0.55173 0.47166 0.1603 0.0
C847 C 0.50942 0.40888 0.16058 0.0
H848 H 0.86306 0.56227 0.41445 0.0
H849 H 0.77047 0.50398 0.36187 0.0
H850 H 0.81486 0.43805 0.35652 0.0
H851 H 0.87264 0.39062 0.36795 0.0
H852 H 0.96208 0.44577 0.42099 0.0
H853 H 0.92843 0.52135 0.42465 0.0
C854 C 0.85244 0.53493 0.40186 0.0
C855 C 0.81264 0.537 0.38875 0.0
C856 C 0.87857 0.49761 0.39879 0.0
C857 C 0.80041 0.50252 0.37229 0.0
C858 C 0.82606 0.46513 0.36916 0.0
C859 C 0.88652 0.4206 0.38002 0.0
C860 C 0.91975 0.41276 0.39418 0.0
C861 C 0.86462 0.46179 0.38241 0.0
C862 C 0.93664 0.45126 0.40988 0.0
C863 C 0.91672 0.49383 0.41209 0.0
H864 H 0.11836 0.67429 0.65929 0.0
H865 H 0.18164 0.69223 0.60318 0.0
H866 H 0.13428 0.58078 0.60015 0.0
H867 H 0.08265 0.47994 0.61416 0.0
H868 H 0.02313 0.46172 0.67069 0.0
H869 H 0.05904 0.5718 0.67256 0.0
C870 C 0.12202 0.65378 0.64644 0.0
C871 C 0.15436 0.69127 0.6316 0.0
C872 C 0.0944 0.58979 0.64475 0.0
C873 C 0.15757 0.66419 0.61487 0.0
C874 C 0.1302 0.60055 0.61308 0.0
C875 C 0.07604 0.49964 0.62676 0.0
C876 C 0.05091 0.46295 0.64232 0.0
C877 C 0.0992 0.56306 0.628 0.0
C878 C 0.04263 0.48919 0.65854 0.0
C879 C 0.06379 0.55217 0.65969 0.0
H880 H 0.3858 0.90063 0.91482 0.0
H881 H 0.40592 0.93265 0.8563 0.0
H882 H 0.48262 0.90005 0.85513 0.0
H883 H 0.53411 0.85118 0.87007 0.0
H884 H 0.50857 0.81359 0.92825 0.0
H885 H 0.4424 0.85872 0.9301 0.0
C886 C 0.40783 0.90181 0.90185 0.0
C887 C 0.38978 0.91841 0.88563 0.0
C888 C 0.44952 0.88045 0.90113 0.0
C889 C 0.41893 0.91984 0.86897 0.0
C890 C 0.46226 0.90061 0.86826 0.0
C891 C 0.51407 0.85282 0.88316 0.0
C892 C 0.52542 0.82826 0.89894 0.0
C893 C 0.47603 0.87862 0.88412 0.0
C894 C 0.4999 0.83154 0.91586 0.0
C895 C 0.46239 0.85763 0.91696 0.0
H896 H 0.47546 0.56667 0.66583 0.0
H897 H 0.49134 0.55501 0.60688 0.0
H898 H 0.38124 0.48215 0.60454 0.0
H899 H 0.27951 0.4309 0.61892 0.0
H900 H 0.26426 0.44833 0.67771 0.0
H901 H 0.37544 0.51127 0.68033 0.0
C902 C 0.45529 0.54723 0.65248 0.0
C903 C 0.49151 0.56647 0.63653 0.0
C904 C 0.39187 0.50787 0.65115 0.0
C905 C 0.46443 0.54089 0.61937 0.0
C906 C 0.40141 0.49982 0.618 0.0
C907 C 0.30047 0.44859 0.63231 0.0
C908 C 0.26359 0.43568 0.64805 0.0
C909 C 0.36445 0.48477 0.63373 0.0
C910 C 0.29152 0.45822 0.66533 0.0
C911 C 0.35512 0.49385 0.66687 0.0
H912 H 0.11345 0.68832 0.91295 0.0
H913 H 0.17547 0.70736 0.8567 0.0
H914 H 0.13183 0.59622 0.85383 0.0
H915 H 0.08466 0.49542 0.86817 0.0
H916 H 0.02553 0.47654 0.9247 0.0
H917 H 0.05732 0.58568 0.92637 0.0
C918 C 0.11746 0.66809 0.90008 0.0
C919 C 0.14857 0.70593 0.88519 0.0
C920 C 0.09191 0.60421 0.89848 0.0
C921 C 0.15227 0.67913 0.86845 0.0
C922 C 0.12709 0.61561 0.86676 0.0
C923 C 0.07697 0.51471 0.88068 0.0
C924 C 0.05311 0.47812 0.89631 0.0
C925 C 0.09762 0.57784 0.88177 0.0
C926 C 0.04393 0.50393 0.91248 0.0
C927 C 0.06273 0.56642 0.91351 0.0
H928 H 0.3821 0.87554 0.66245 0.0
H929 H 0.4161 0.93072 0.60567 0.0
H930 H 0.49136 0.89642 0.60352 0.0
H931 H 0.53782 0.83962 0.61671 0.0
H932 H 0.4996 0.78062 0.67313 0.0
H933 H 0.43457 0.82663 0.67633 0.0
C934 C 0.40704 0.88157 0.64972 0.0
C935 C 0.39316 0.90512 0.63419 0.0
C936 C 0.44808 0.85938 0.64835 0.0
C937 C 0.42587 0.91252 0.61781 0.0
C938 C 0.46837 0.89229 0.61651 0.0
C939 C 0.51512 0.8367 0.62969 0.0
C940 C 0.52258 0.80579 0.64454 0.0
C941 C 0.47793 0.86342 0.63148 0.0
C942 C 0.49394 0.80348 0.66139 0.0
C943 C 0.45704 0.83008 0.66329 0.0
H944 H 0.4653 0.61527 0.86864 0.0
H945 H 0.51951 0.54779 0.91499 0.0
H946 H 0.41238 0.47166 0.92082 0.0
H947 H 0.30262 0.43268 0.91481 0.0
H948 H 0.24907 0.50189 0.86874 0.0
H949 H 0.35655 0.5703 0.86098 0.0
C950 C 0.45377 0.58237 0.87957 0.0
C951 C 0.49983 0.58678 0.89135 0.0
C952 C 0.39211 0.54084 0.88334 0.0
C953 C 0.48444 0.54474 0.9057 0.0
C954 C 0.42325 0.50196 0.90922 0.0
C955 C 0.31484 0.46333 0.90323 0.0
C956 C 0.26868 0.46365 0.89259 0.0
C957 C 0.37661 0.50142 0.8986 0.0
C958 C 0.28437 0.50187 0.87725 0.0
C959 C 0.34561 0.54047 0.87271 0.0
loop_
_geom_bond_atom_site_label_1
_geom_bond_atom_site_label_2
_geom_bond_distance
_geom_bond_site_symmetry_2
_ccdc_geom_bond_type
Zn0 O1 2.055 . S
Zn0 O8 2.046 . S
Zn0 N16 2.036 . S
Zn0 O28 2.053 . S
Zn0 O30 2.066 . S
O1 Zn0 2.055 . S
O1 C4 1.259 . S
C2 O30 1.256 . S
C2 O31 1.244 . S
Zn3 O5 2.046 . S
Zn3 O7 2.055 . S
Zn3 N9 2.036 . S
Zn3 O27 2.066 . S
Zn3 O31 2.053 . S
C4 O1 1.259 . S
C4 O5 1.254 . S
O5 Zn3 2.046 . S
O5 C4 1.254 . S
C6 O27 1.256 . S
C6 O28 1.244 . S
O7 Zn3 2.055 . S
O7 C29 1.259 . S
O8 Zn0 2.046 . S
O8 C29 1.254 . S
N9 Zn3 2.036 . S
N9 C10 1.298 . S
N9 N12 1.398 . S
C10 N9 1.298 . S
C10 N13 1.367 . S
C10 C23 1.481 . S
C11 N12 1.299 . S
C11 N13 1.379 . S
N12 N9 1.398 . S
N12 C11 1.299 . S
N13 C10 1.367 . S
N13 C11 1.379 . S
C14 N16 1.298 . S
C14 N18 1.367 . S
C14 C22 1.481 . S
C15 N17 1.299 . S
C15 N18 1.379 . S
N16 Zn0 2.036 . S
N16 C14 1.298 . S
N16 N17 1.398 . S
N17 C15 1.299 . S
N17 N16 1.398 . S
N18 C14 1.367 . S
N18 C15 1.379 . S
H19 C22 0.980 . S
H20 C22 0.981 . S
H21 C22 0.981 . S
C22 C14 1.481 . S
C22 H19 0.980 . S
C22 H20 0.981 . S
C22 H21 0.981 . S
C23 C10 1.481 . S
C23 H24 0.980 . S
C23 H25 0.981 . S
C23 H26 0.981 . S
H24 C23 0.980 . S
H25 C23 0.981 . S
H26 C23 0.981 . S
O27 Zn3 2.066 . S
O27 C6 1.256 . S
O28 Zn0 2.053 . S
O28 C6 1.244 . S
C29 O7 1.259 . S
C29 O8 1.254 . S
O30 Zn0 2.066 . S
O30 C2 1.256 . S
O31 C2 1.244 . S
O31 Zn3 2.053 . S
Zn32 O33 2.055 . S
Zn32 O40 2.046 . S
Zn32 N48 2.036 . S
Zn32 O60 2.053 . S
Zn32 O62 2.066 . S
O33 Zn32 2.055 . S
O33 C36 1.259 . S
C34 O62 1.256 . S
C34 O63 1.244 . S
Zn35 O37 2.046 . S
Zn35 O39 2.055 . S
Zn35 N41 2.036 . S
Zn35 O59 2.066 . S
Zn35 O63 2.053 . S
C36 O33 1.259 . S
C36 O37 1.254 . S
O37 Zn35 2.046 . S
O37 C36 1.254 . S
C38 O59 1.256 . S
C38 O60 1.244 . S
O39 Zn35 2.055 . S
O39 C61 1.259 . S
O40 Zn32 2.046 . S
O40 C61 1.254 . S
N41 Zn35 2.036 . S
N41 C42 1.298 . S
N41 N44 1.398 . S
C42 N41 1.298 . S
C42 N45 1.367 . S
C42 C55 1.481 . S
C43 N44 1.299 . S
C43 N45 1.379 . S
N44 N41 1.398 . S
N44 C43 1.299 . S
N45 C42 1.367 . S
N45 C43 1.379 . S
C46 N48 1.298 . S
C46 N50 1.367 . S
C46 C54 1.481 . S
C47 N49 1.299 . S
C47 N50 1.379 . S
N48 Zn32 2.036 . S
N48 C46 1.298 . S
N48 N49 1.398 . S
N49 C47 1.299 . S
N49 N48 1.398 . S
N50 C46 1.367 . S
N50 C47 1.379 . S
H51 C54 0.980 . S
H52 C54 0.981 . S
H53 C54 0.981 . S
C54 C46 1.481 . S
C54 H51 0.980 . S
C54 H52 0.981 . S
C54 H53 0.981 . S
C55 C42 1.481 . S
C55 H56 0.980 . S
C55 H57 0.981 . S
C55 H58 0.981 . S
H56 C55 0.980 . S
H57 C55 0.981 . S
H58 C55 0.981 . S
O59 Zn35 2.066 . S
O59 C38 1.256 . S
O60 Zn32 2.053 . S
O60 C38 1.244 . S
C61 O39 1.259 . S
C61 O40 1.254 . S
O62 Zn32 2.066 . S
O62 C34 1.256 . S
O63 C34 1.244 . S
O63 Zn35 2.053 . S
Zn64 O65 2.055 . S
Zn64 O72 2.046 . S
Zn64 N80 2.036 . S
Zn64 O92 2.053 . S
Zn64 O94 2.066 . S
O65 Zn64 2.055 . S
O65 C68 1.259 . S
C66 O94 1.256 . S
C66 O95 1.244 . S
Zn67 O69 2.046 . S
Zn67 O71 2.055 . S
Zn67 N73 2.036 . S
Zn67 O91 2.066 . S
Zn67 O95 2.053 . S
C68 O65 1.259 . S
C68 O69 1.254 . S
O69 Zn67 2.046 . S
O69 C68 1.254 . S
C70 O91 1.256 . S
C70 O92 1.244 . S
O71 Zn67 2.055 . S
O71 C93 1.259 . S
O72 Zn64 2.046 . S
O72 C93 1.254 . S
N73 Zn67 2.036 . S
N73 C74 1.298 . S
N73 N76 1.398 . S
C74 N73 1.298 . S
C74 N77 1.367 . S
C74 C87 1.481 . S
C75 N76 1.299 . S
C75 N77 1.379 . S
N76 N73 1.398 . S
N76 C75 1.299 . S
N77 C74 1.367 . S
N77 C75 1.379 . S
C78 N80 1.298 . S
C78 N82 1.367 . S
C78 C86 1.481 . S
C79 N81 1.299 . S
C79 N82 1.379 . S
N80 Zn64 2.036 . S
N80 C78 1.298 . S
N80 N81 1.398 . S
N81 C79 1.299 . S
N81 N80 1.398 . S
N82 C78 1.367 . S
N82 C79 1.379 . S
H83 C86 0.980 . S
H84 C86 0.981 . S
H85 C86 0.981 . S
C86 C78 1.481 . S
C86 H83 0.980 . S
C86 H84 0.981 . S
C86 H85 0.981 . S
C87 C74 1.481 . S
C87 H88 0.980 . S
C87 H89 0.981 . S
C87 H90 0.981 . S
H88 C87 0.980 . S
H89 C87 0.981 . S
H90 C87 0.981 . S
O91 Zn67 2.066 . S
O91 C70 1.256 . S
O92 Zn64 2.053 . S
O92 C70 1.244 . S
C93 O71 1.259 . S
C93 O72 1.254 . S
O94 Zn64 2.066 . S
O94 C66 1.256 . S
O95 C66 1.244 . S
O95 Zn67 2.053 . S
Zn96 O97 2.055 . S
Zn96 O104 2.046 . S
Zn96 N112 2.036 . S
Zn96 O124 2.053 . S
Zn96 O126 2.066 . S
O97 Zn96 2.055 . S
O97 C100 1.259 . S
C98 O126 1.256 . S
C98 O127 1.244 . S
Zn99 O101 2.046 . S
Zn99 O103 2.055 . S
Zn99 N105 2.036 . S
Zn99 O123 2.066 . S
Zn99 O127 2.053 . S
C100 O97 1.259 . S
C100 O101 1.254 . S
O101 Zn99 2.046 . S
O101 C100 1.254 . S
C102 O123 1.256 . S
C102 O124 1.244 . S
O103 Zn99 2.055 . S
O103 C125 1.259 . S
O104 Zn96 2.046 . S
O104 C125 1.254 . S
N105 Zn99 2.036 . S
N105 C106 1.298 . S
N105 N108 1.398 . S
C106 N105 1.298 . S
C106 N109 1.367 . S
C106 C119 1.481 . S
C107 N108 1.299 . S
C107 N109 1.379 . S
N108 N105 1.398 . S
N108 C107 1.299 . S
N109 C106 1.367 . S
N109 C107 1.379 . S
C110 N112 1.298 . S
C110 N114 1.367 . S
C110 C118 1.481 . S
C111 N113 1.299 . S
C111 N114 1.379 . S
N112 Zn96 2.036 . S
N112 C110 1.298 . S
N112 N113 1.398 . S
N113 C111 1.299 . S
N113 N112 1.398 . S
N114 C110 1.367 . S
N114 C111 1.379 . S
H115 C118 0.980 . S
H116 C118 0.981 . S
H117 C118 0.981 . S
C118 C110 1.481 . S
C118 H115 0.980 . S
C118 H116 0.981 . S
C118 H117 0.981 . S
C119 C106 1.481 . S
C119 H120 0.980 . S
C119 H121 0.981 . S
C119 H122 0.981 . S
H120 C119 0.980 . S
H121 C119 0.981 . S
H122 C119 0.981 . S
O123 Zn99 2.066 . S
O123 C102 1.256 . S
O124 Zn96 2.053 . S
O124 C102 1.244 . S
C125 O103 1.259 . S
C125 O104 1.254 . S
O126 Zn96 2.066 . S
O126 C98 1.256 . S
O127 C98 1.244 . S
O127 Zn99 2.053 . S
Zn128 O129 2.055 . S
Zn128 O136 2.046 . S
Zn128 N144 2.036 . S
Zn128 O156 2.053 . S
Zn128 O158 2.066 . S
O129 Zn128 2.055 . S
O129 C132 1.259 . S
C130 O158 1.256 . S
C130 O159 1.244 . S
Zn131 O133 2.046 . S
Zn131 O135 2.055 . S
Zn131 N137 2.036 . S
Zn131 O155 2.066 . S
Zn131 O159 2.053 . S
C132 O129 1.259 . S
C132 O133 1.254 . S
O133 Zn131 2.046 . S
O133 C132 1.254 . S
C134 O155 1.256 . S
C134 O156 1.244 . S
O135 Zn131 2.055 . S
O135 C157 1.259 . S
O136 Zn128 2.046 . S
O136 C157 1.254 . S
N137 Zn131 2.036 . S
N137 C138 1.298 . S
N137 N140 1.398 . S
C138 N137 1.298 . S
C138 N141 1.367 . S
C138 C151 1.481 . S
C139 N140 1.299 . S
C139 N141 1.379 . S
N140 N137 1.398 . S
N140 C139 1.299 . S
N141 C138 1.367 . S
N141 C139 1.379 . S
C142 N144 1.298 . S
C142 N146 1.367 . S
C142 C150 1.481 . S
C143 N145 1.299 . S
C143 N146 1.379 . S
N144 Zn128 2.036 . S
N144 C142 1.298 . S
N144 N145 1.398 . S
N145 C143 1.299 . S
N145 N144 1.398 . S
N146 C142 1.367 . S
N146 C143 1.379 . S
H147 C150 0.980 . S
H148 C150 0.981 . S
H149 C150 0.981 . S
C150 C142 1.481 . S
C150 H147 0.980 . S
C150 H148 0.981 . S
C150 H149 0.981 . S
C151 C138 1.481 . S
C151 H152 0.980 . S
C151 H153 0.981 . S
C151 H154 0.981 . S
H152 C151 0.980 . S
H153 C151 0.981 . S
H154 C151 0.981 . S
O155 Zn131 2.066 . S
O155 C134 1.256 . S
O156 Zn128 2.053 . S
O156 C134 1.244 . S
C157 O135 1.259 . S
C157 O136 1.254 . S
O158 Zn128 2.066 . S
O158 C130 1.256 . S
O159 C130 1.244 . S
O159 Zn131 2.053 . S
Zn160 O161 2.055 . S
Zn160 O168 2.046 . S
Zn160 N176 2.036 . S
Zn160 O188 2.053 . S
Zn160 O190 2.066 . S
O161 Zn160 2.055 . S
O161 C164 1.259 . S
C162 O190 1.256 . S
C162 O191 1.244 . S
Zn163 O165 2.046 . S
Zn163 O167 2.055 . S
Zn163 N169 2.036 . S
Zn163 O187 2.066 . S
Zn163 O191 2.053 . S
C164 O161 1.259 . S
C164 O165 1.254 . S
O165 Zn163 2.046 . S
O165 C164 1.254 . S
C166 O187 1.256 . S
C166 O188 1.244 . S
O167 Zn163 2.055 . S
O167 C189 1.259 . S
O168 Zn160 2.046 . S
O168 C189 1.254 . S
N169 Zn163 2.036 . S
N169 C170 1.298 . S
N169 N172 1.398 . S
C170 N169 1.298 . S
C170 N173 1.367 . S
C170 C183 1.481 . S
C171 N172 1.299 . S
C171 N173 1.379 . S
N172 N169 1.398 . S
N172 C171 1.299 . S
N173 C170 1.367 . S
N173 C171 1.379 . S
C174 N176 1.298 . S
C174 N178 1.367 . S
C174 C182 1.481 . S
C175 N177 1.299 . S
C175 N178 1.379 . S
N176 Zn160 2.036 . S
N176 C174 1.298 . S
N176 N177 1.398 . S
N177 C175 1.299 . S
N177 N176 1.398 . S
N178 C174 1.367 . S
N178 C175 1.379 . S
H179 C182 0.980 . S
H180 C182 0.981 . S
H181 C182 0.981 . S
C182 C174 1.481 . S
C182 H179 0.980 . S
C182 H180 0.981 . S
C182 H181 0.981 . S
C183 C170 1.481 . S
C183 H184 0.980 . S
C183 H185 0.981 . S
C183 H186 0.981 . S
H184 C183 0.980 . S
H185 C183 0.981 . S
H186 C183 0.981 . S
O187 Zn163 2.066 . S
O187 C166 1.256 . S
O188 Zn160 2.053 . S
O188 C166 1.244 . S
C189 O167 1.259 . S
C189 O168 1.254 . S
O190 Zn160 2.066 . S
O190 C162 1.256 . S
O191 C162 1.244 . S
O191 Zn163 2.053 . S
Zn192 O193 2.055 . S
Zn192 O200 2.046 . S
Zn192 N208 2.036 . S
Zn192 O220 2.053 . S
Zn192 O222 2.066 . S
O193 Zn192 2.055 . S
O193 C196 1.259 . S
C194 O222 1.256 . S
C194 O223 1.244 . S
Zn195 O197 2.046 . S
Zn195 O199 2.055 . S
Zn195 N201 2.036 . S
Zn195 O219 2.066 . S
Zn195 O223 2.053 . S
C196 O193 1.259 . S
C196 O197 1.254 . S
O197 Zn195 2.046 . S
O197 C196 1.254 . S
C198 O219 1.256 . S
C198 O220 1.244 . S
O199 Zn195 2.055 . S
O199 C221 1.259 . S
O200 Zn192 2.046 . S
O200 C221 1.254 . S
N201 Zn195 2.036 . S
N201 C202 1.298 . S
N201 N204 1.398 . S
C202 N201 1.298 . S
C202 N205 1.367 . S
C202 C215 1.481 . S
C203 N204 1.299 . S
C203 N205 1.379 . S
N204 N201 1.398 . S
N204 C203 1.299 . S
N205 C202 1.367 . S
N205 C203 1.379 . S
C206 N208 1.298 . S
C206 N210 1.367 . S
C206 C214 1.481 . S
C207 N209 1.299 . S
C207 N210 1.379 . S
N208 Zn192 2.036 . S
N208 C206 1.298 . S
N208 N209 1.398 . S
N209 C207 1.299 . S
N209 N208 1.398 . S
N210 C206 1.367 . S
N210 C207 1.379 . S
H211 C214 0.980 . S
H212 C214 0.981 . S
H213 C214 0.981 . S
C214 C206 1.481 . S
C214 H211 0.980 . S
C214 H212 0.981 . S
C214 H213 0.981 . S
C215 C202 1.481 . S
C215 H216 0.980 . S
C215 H217 0.981 . S
C215 H218 0.981 . S
H216 C215 0.980 . S
H217 C215 0.981 . S
H218 C215 0.981 . S
O219 Zn195 2.066 . S
O219 C198 1.256 . S
O220 Zn192 2.053 . S
O220 C198 1.244 . S
C221 O199 1.259 . S
C221 O200 1.254 . S
O222 Zn192 2.066 . S
O222 C194 1.256 . S
O223 C194 1.244 . S
O223 Zn195 2.053 . S
Zn224 O225 2.055 . S
Zn224 O232 2.046 . S
Zn224 N240 2.036 . S
Zn224 O252 2.053 . S
Zn224 O254 2.066 . S
O225 Zn224 2.055 . S
O225 C228 1.259 . S
C226 O254 1.256 . S
C226 O255 1.244 . S
Zn227 O229 2.046 . S
Zn227 O231 2.055 . S
Zn227 N233 2.036 . S
Zn227 O251 2.066 . S
Zn227 O255 2.053 . S
C228 O225 1.259 . S
C228 O229 1.254 . S
O229 Zn227 2.046 . S
O229 C228 1.254 . S
C230 O251 1.256 . S
C230 O252 1.244 . S
O231 Zn227 2.055 . S
O231 C253 1.259 . S
O232 Zn224 2.046 . S
O232 C253 1.254 . S
N233 Zn227 2.036 . S
N233 C234 1.298 . S
N233 N236 1.398 . S
C234 N233 1.298 . S
C234 N237 1.367 . S
C234 C247 1.481 . S
C235 N236 1.299 . S
C235 N237 1.379 . S
N236 N233 1.398 . S
N236 C235 1.299 . S
N237 C234 1.367 . S
N237 C235 1.379 . S
C238 N240 1.298 . S
C238 N242 1.367 . S
C238 C246 1.481 . S
C239 N241 1.299 . S
C239 N242 1.379 . S
N240 Zn224 2.036 . S
N240 C238 1.298 . S
N240 N241 1.398 . S
N241 C239 1.299 . S
N241 N240 1.398 . S
N242 C238 1.367 . S
N242 C239 1.379 . S
H243 C246 0.980 . S
H244 C246 0.981 . S
H245 C246 0.981 . S
C246 C238 1.481 . S
C246 H243 0.980 . S
C246 H244 0.981 . S
C246 H245 0.981 . S
C247 C234 1.481 . S
C247 H248 0.980 . S
C247 H249 0.981 . S
C247 H250 0.981 . S
H248 C247 0.980 . S
H249 C247 0.981 . S
H250 C247 0.981 . S
O251 Zn227 2.066 . S
O251 C230 1.256 . S
O252 Zn224 2.053 . S
O252 C230 1.244 . S
C253 O231 1.259 . S
C253 O232 1.254 . S
O254 Zn224 2.066 . S
O254 C226 1.256 . S
O255 C226 1.244 . S
O255 Zn227 2.053 . S
Zn256 O257 2.055 . S
Zn256 O264 2.046 . S
Zn256 N272 2.036 . S
Zn256 O284 2.053 . S
Zn256 O286 2.066 . S
O257 Zn256 2.055 . S
O257 C260 1.259 . S
C258 O286 1.256 . S
C258 O287 1.244 . S
Zn259 O261 2.046 . S
Zn259 O263 2.055 . S
Zn259 N265 2.036 . S
Zn259 O283 2.066 . S
Zn259 O287 2.053 . S
C260 O257 1.259 . S
C260 O261 1.254 . S
O261 Zn259 2.046 . S
O261 C260 1.254 . S
C262 O283 1.256 . S
C262 O284 1.244 . S
O263 Zn259 2.055 . S
O263 C285 1.259 . S
O264 Zn256 2.046 . S
O264 C285 1.254 . S
N265 Zn259 2.036 . S
N265 C266 1.298 . S
N265 N268 1.398 . S
C266 N265 1.298 . S
C266 N269 1.367 . S
C266 C279 1.481 . S
C267 N268 1.299 . S
C267 N269 1.379 . S
N268 N265 1.398 . S
N268 C267 1.299 . S
N269 C266 1.367 . S
N269 C267 1.379 . S
C270 N272 1.298 . S
C270 N274 1.367 . S
C270 C278 1.481 . S
C271 N273 1.299 . S
C271 N274 1.379 . S
N272 Zn256 2.036 . S
N272 C270 1.298 . S
N272 N273 1.398 . S
N273 C271 1.299 . S
N273 N272 1.398 . S
N274 C270 1.367 . S
N274 C271 1.379 . S
H275 C278 0.980 . S
H276 C278 0.981 . S
H277 C278 0.981 . S
C278 C270 1.481 . S
C278 H275 0.980 . S
C278 H276 0.981 . S
C278 H277 0.981 . S
C279 C266 1.481 . S
C279 H280 0.980 . S
C279 H281 0.981 . S
C279 H282 0.981 . S
H280 C279 0.980 . S
H281 C279 0.981 . S
H282 C279 0.981 . S
O283 Zn259 2.066 . S
O283 C262 1.256 . S
O284 Zn256 2.053 . S
O284 C262 1.244 . S
C285 O263 1.259 . S
C285 O264 1.254 . S
O286 Zn256 2.066 . S
O286 C258 1.256 . S
O287 C258 1.244 . S
O287 Zn259 2.053 . S
Zn288 O289 2.055 . S
Zn288 O296 2.046 . S
Zn288 N304 2.036 . S
Zn288 O316 2.053 . S
Zn288 O318 2.066 . S
O289 Zn288 2.055 . S
O289 C292 1.259 . S
C290 O318 1.256 . S
C290 O319 1.244 . S
Zn291 O293 2.046 . S
Zn291 O295 2.055 . S
Zn291 N297 2.036 . S
Zn291 O315 2.066 . S
Zn291 O319 2.053 . S
C292 O289 1.259 . S
C292 O293 1.254 . S
O293 Zn291 2.046 . S
O293 C292 1.254 . S
C294 O315 1.256 . S
C294 O316 1.244 . S
O295 Zn291 2.055 . S
O295 C317 1.259 . S
O296 Zn288 2.046 . S
O296 C317 1.254 . S
N297 Zn291 2.036 . S
N297 C298 1.298 . S
N297 N300 1.398 . S
C298 N297 1.298 . S
C298 N301 1.367 . S
C298 C311 1.481 . S
C299 N300 1.299 . S
C299 N301 1.379 . S
N300 N297 1.398 . S
N300 C299 1.299 . S
N301 C298 1.367 . S
N301 C299 1.379 . S
C302 N304 1.298 . S
C302 N306 1.367 . S
C302 C310 1.481 . S
C303 N305 1.299 . S
C303 N306 1.379 . S
N304 Zn288 2.036 . S
N304 C302 1.298 . S
N304 N305 1.398 . S
N305 C303 1.299 . S
N305 N304 1.398 . S
N306 C302 1.367 . S
N306 C303 1.379 . S
H307 C310 0.980 . S
H308 C310 0.981 . S
H309 C310 0.981 . S
C310 C302 1.481 . S
C310 H307 0.980 . S
C310 H308 0.981 . S
C310 H309 0.981 . S
C311 C298 1.481 . S
C311 H312 0.980 . S
C311 H313 0.981 . S
C311 H314 0.981 . S
H312 C311 0.980 . S
H313 C311 0.981 . S
H314 C311 0.981 . S
O315 Zn291 2.066 . S
O315 C294 1.256 . S
O316 Zn288 2.053 . S
O316 C294 1.244 . S
C317 O295 1.259 . S
C317 O296 1.254 . S
O318 Zn288 2.066 . S
O318 C290 1.256 . S
O319 C290 1.244 . S
O319 Zn291 2.053 . S
Zn320 O321 2.055 . S
Zn320 O328 2.046 . S
Zn320 N336 2.036 . S
Zn320 O348 2.053 . S
Zn320 O350 2.066 . S
O321 Zn320 2.055 . S
O321 C324 1.259 . S
C322 O350 1.256 . S
C322 O351 1.244 . S
Zn323 O325 2.046 . S
Zn323 O327 2.055 . S
Zn323 N329 2.036 . S
Zn323 O347 2.066 . S
Zn323 O351 2.053 . S
C324 O321 1.259 . S
C324 O325 1.254 . S
O325 Zn323 2.046 . S
O325 C324 1.254 . S
C326 O347 1.256 . S
C326 O348 1.244 . S
O327 Zn323 2.055 . S
O327 C349 1.259 . S
O328 Zn320 2.046 . S
O328 C349 1.254 . S
N329 Zn323 2.036 . S
N329 C330 1.298 . S
N329 N332 1.398 . S
C330 N329 1.298 . S
C330 N333 1.367 . S
C330 C343 1.481 . S
C331 N332 1.299 . S
C331 N333 1.379 . S
N332 N329 1.398 . S
N332 C331 1.299 . S
N333 C330 1.367 . S
N333 C331 1.379 . S
C334 N336 1.298 . S
C334 N338 1.367 . S
C334 C342 1.481 . S
C335 N337 1.299 . S
C335 N338 1.379 . S
N336 Zn320 2.036 . S
N336 C334 1.298 . S
N336 N337 1.398 . S
N337 C335 1.299 . S
N337 N336 1.398 . S
N338 C334 1.367 . S
N338 C335 1.379 . S
H339 C342 0.980 . S
H340 C342 0.981 . S
H341 C342 0.981 . S
C342 C334 1.481 . S
C342 H339 0.980 . S
C342 H340 0.981 . S
C342 H341 0.981 . S
C343 C330 1.481 . S
C343 H344 0.980 . S
C343 H345 0.981 . S
C343 H346 0.981 . S
H344 C343 0.980 . S
H345 C343 0.981 . S
H346 C343 0.981 . S
O347 Zn323 2.066 . S
O347 C326 1.256 . S
O348 Zn320 2.053 . S
O348 C326 1.244 . S
C349 O327 1.259 . S
C349 O328 1.254 . S
O350 Zn320 2.066 . S
O350 C322 1.256 . S
O351 C322 1.244 . S
O351 Zn323 2.053 . S
Zn352 O353 2.055 . S
Zn352 O360 2.046 . S
Zn352 N368 2.036 . S
Zn352 O380 2.053 . S
Zn352 O382 2.066 . S
O353 Zn352 2.055 . S
O353 C356 1.259 . S
C354 O382 1.256 . S
C354 O383 1.244 . S
Zn355 O357 2.046 . S
Zn355 O359 2.055 . S
Zn355 N361 2.036 . S
Zn355 O379 2.066 . S
Zn355 O383 2.053 . S
C356 O353 1.259 . S
C356 O357 1.254 . S
O357 Zn355 2.046 . S
O357 C356 1.254 . S
C358 O379 1.256 . S
C358 O380 1.244 . S
O359 Zn355 2.055 . S
O359 C381 1.259 . S
O360 Zn352 2.046 . S
O360 C381 1.254 . S
N361 Zn355 2.036 . S
N361 C362 1.298 . S
N361 N364 1.398 . S
C362 N361 1.298 . S
C362 N365 1.367 . S
C362 C375 1.481 . S
C363 N364 1.299 . S
C363 N365 1.379 . S
N364 N361 1.398 . S
N364 C363 1.299 . S
N365 C362 1.367 . S
N365 C363 1.379 . S
C366 N368 1.298 . S
C366 N370 1.367 . S
C366 C374 1.481 . S
C367 N369 1.299 . S
C367 N370 1.379 . S
N368 Zn352 2.036 . S
N368 C366 1.298 . S
N368 N369 1.398 . S
N369 C367 1.299 . S
N369 N368 1.398 . S
N370 C366 1.367 . S
N370 C367 1.379 . S
H371 C374 0.980 . S
H372 C374 0.981 . S
H373 C374 0.981 . S
C374 C366 1.481 . S
C374 H371 0.980 . S
C374 H372 0.981 . S
C374 H373 0.981 . S
C375 C362 1.481 . S
C375 H376 0.980 . S
C375 H377 0.981 . S
C375 H378 0.981 . S
H376 C375 0.980 . S
H377 C375 0.981 . S
H378 C375 0.981 . S
O379 Zn355 2.066 . S
O379 C358 1.256 . S
O380 Zn352 2.053 . S
O380 C358 1.244 . S
C381 O359 1.259 . S
C381 O360 1.254 . S
O382 Zn352 2.066 . S
O382 C354 1.256 . S
O383 C354 1.244 . S
O383 Zn355 2.053 . S
H384 C390 0.930 1_655 S
H385 C393 0.930 . S
H386 C394 0.930 . S
H387 C395 0.930 . S
H388 C398 0.930 . S
H389 C399 0.930 . S
C390 H384 0.930 1_455 S
C390 C391 1.355 . S
C390 C392 1.415 . S
C391 C390 1.355 . S
C391 C393 1.419 . S
C392 C390 1.415 . S
C392 C397 1.425 . S
C392 C399 1.409 . S
C393 H385 0.930 . S
C393 C391 1.419 . S
C393 C394 1.362 . S
C394 H386 0.930 . S
C394 C393 1.362 . S
C394 C397 1.409 . S
C395 H387 0.930 . S
C395 C396 1.355 . S
C395 C397 1.415 . S
C396 C395 1.355 . S
C396 C398 1.419 . S
C397 C392 1.425 . S
C397 C394 1.409 . S
C397 C395 1.415 . S
C398 H388 0.930 . S
C398 C396 1.419 . S
C398 C399 1.362 . S
C399 H389 0.930 . S
C399 C392 1.409 . S
C399 C398 1.362 . S
H400 C406 0.930 . S
H401 C409 0.930 1_545 S
H402 C410 0.930 . S
H403 C411 0.930 . S
H404 C414 0.930 1_655 S
H405 C415 0.930 . S
C406 H400 0.930 . S
C406 C407 1.355 . S
C406 C408 1.415 . S
C407 C406 1.355 . S
C407 C409 1.419 . S
C408 C406 1.415 . S
C408 C413 1.425 . S
C408 C415 1.409 . S
C409 H401 0.930 1_565 S
C409 C407 1.419 . S
C409 C410 1.362 . S
C410 H402 0.930 . S
C410 C409 1.362 . S
C410 C413 1.409 . S
C411 H403 0.930 . S
C411 C412 1.355 1_455 S
C411 C413 1.415 . S
C412 C411 1.355 1_655 S
C412 C414 1.419 1_655 S
C413 C408 1.425 . S
C413 C410 1.409 . S
C413 C411 1.415 . S
C414 H404 0.930 1_455 S
C414 C412 1.419 1_455 S
C414 C415 1.362 . S
C415 H405 0.930 . S
C415 C408 1.409 . S
C415 C414 1.362 . S
H416 C422 0.930 . S
H417 C425 0.930 . S
H418 C426 0.930 . S
H419 C427 0.930 . S
H420 C430 0.930 . S
H421 C431 0.930 . S
C422 H416 0.930 . S
C422 C423 1.355 1_565 S
C422 C424 1.415 . S
C423 C422 1.355 1_545 S
C423 C425 1.419 . S
C424 C422 1.415 . S
C424 C429 1.425 . S
C424 C431 1.409 . S
C425 H417 0.930 . S
C425 C423 1.419 . S
C425 C426 1.362 1_545 S
C426 H418 0.930 . S
C426 C425 1.362 1_565 S
C426 C429 1.409 . S
C427 H419 0.930 . S
C427 C428 1.355 . S
C427 C429 1.415 . S
C428 C427 1.355 . S
C428 C430 1.419 . S
C429 C424 1.425 . S
C429 C426 1.409 . S
C429 C427 1.415 . S
C430 H420 0.930 . S
C430 C428 1.419 . S
C430 C431 1.362 . S
C431 H421 0.930 . S
C431 C424 1.409 . S
C431 C430 1.362 . S
H432 C438 0.930 . S
H433 C441 0.930 . S
H434 C442 0.930 . S
H435 C443 0.930 . S
H436 C446 0.934 . S
H437 C447 0.930 . S
C438 H432 0.930 . S
C438 C439 1.355 . S
C438 C440 1.415 . S
C439 C438 1.355 . S
C439 C441 1.419 . S
C440 C438 1.415 . S
C440 C445 1.425 . S
C440 C447 1.409 . S
C441 H433 0.930 . S
C441 C439 1.419 . S
C441 C442 1.362 . S
C442 H434 0.930 . S
C442 C441 1.362 . S
C442 C445 1.409 . S
C443 H435 0.930 . S
C443 C444 1.355 . S
C443 C445 1.415 . S
C444 C443 1.355 . S
C444 C446 1.421 1_455 S
C445 C440 1.425 . S
C445 C442 1.409 . S
C445 C443 1.415 . S
C446 H436 0.934 . S
C446 C444 1.421 1_655 S
C446 C447 1.357 1_655 S
C447 H437 0.930 . S
C447 C440 1.409 . S
C447 C446 1.357 1_455 S
H448 C454 0.930 . S
H449 C457 0.930 . S
H450 C458 0.930 . S
H451 C459 0.930 1_655 S
H452 C462 0.930 . S
H453 C463 0.930 . S
C454 H448 0.930 . S
C454 C455 1.355 . S
C454 C456 1.415 . S
C455 C454 1.355 . S
C455 C457 1.419 1_565 S
C456 C454 1.415 . S
C456 C461 1.425 . S
C456 C463 1.409 . S
C457 H449 0.930 . S
C457 C455 1.419 1_545 S
C457 C458 1.362 1_545 S
C458 H450 0.930 . S
C458 C457 1.362 1_565 S
C458 C461 1.409 . S
C459 H451 0.930 1_455 S
C459 C460 1.355 1_455 S
C459 C461 1.415 . S
C460 C459 1.355 1_655 S
C460 C462 1.419 1_655 S
C461 C456 1.425 . S
C461 C458 1.409 . S
C461 C459 1.415 . S
C462 H452 0.930 . S
C462 C460 1.419 1_455 S
C462 C463 1.362 . S
C463 H453 0.930 . S
C463 C456 1.409 . S
C463 C462 1.362 . S
H464 C470 0.930 . S
H465 C473 0.930 . S
H466 C474 0.930 . S
H467 C475 0.930 1_545 S
H468 C478 0.930 1_545 S
H469 C479 0.930 . S
C470 H464 0.930 . S
C470 C471 1.355 . S
C470 C472 1.415 . S
C471 C470 1.355 . S
C471 C473 1.419 . S
C472 C470 1.415 . S
C472 C477 1.425 . S
C472 C479 1.409 . S
C473 H465 0.930 . S
C473 C471 1.419 . S
C473 C474 1.362 . S
C474 H466 0.930 . S
C474 C473 1.362 . S
C474 C477 1.409 . S
C475 H467 0.930 1_565 S
C475 C476 1.355 1_565 S
C475 C477 1.415 . S
C476 C475 1.355 1_545 S
C476 C478 1.419 1_545 S
C477 C472 1.425 . S
C477 C474 1.409 . S
C477 C475 1.415 . S
C478 H468 0.930 1_565 S
C478 C476 1.419 1_565 S
C478 C479 1.362 . S
C479 H469 0.930 . S
C479 C472 1.409 . S
C479 C478 1.362 . S
H480 C486 0.930 . S
H481 C489 0.930 . S
H482 C490 0.930 . S
H483 C491 0.930 . S
H484 C494 0.930 . S
H485 C495 0.930 . S
C486 H480 0.930 . S
C486 C487 1.355 . S
C486 C488 1.415 . S
C487 C486 1.355 . S
C487 C489 1.419 1_545 S
C488 C486 1.415 . S
C488 C493 1.425 . S
C488 C495 1.409 . S
C489 H481 0.930 . S
C489 C487 1.419 1_565 S
C489 C490 1.362 1_565 S
C490 H482 0.930 . S
C490 C489 1.362 1_545 S
C490 C493 1.409 . S
C491 H483 0.930 . S
C491 C492 1.355 . S
C491 C493 1.415 . S
C492 C491 1.355 . S
C492 C494 1.419 . S
C493 C488 1.425 . S
C493 C490 1.409 . S
C493 C491 1.415 . S
C494 H484 0.930 . S
C494 C492 1.419 . S
C494 C495 1.362 . S
C495 H485 0.930 . S
C495 C488 1.409 . S
C495 C494 1.362 . S
H496 C502 0.930 . S
H497 C505 0.930 . S
H498 C506 0.930 . S
H499 C507 0.930 . S
H500 C510 0.930 . S
H501 C511 0.930 . S
C502 H496 0.930 . S
C502 C503 1.355 1_655 S
C502 C504 1.415 . S
C503 C502 1.355 1_455 S
C503 C505 1.419 . S
C504 C502 1.415 . S
C504 C509 1.425 . S
C504 C511 1.409 . S
C505 H497 0.930 . S
C505 C503 1.419 . S
C505 C506 1.362 1_455 S
C506 H498 0.930 . S
C506 C505 1.362 1_655 S
C506 C509 1.409 . S
C507 H499 0.930 . S
C507 C508 1.355 . S
C507 C509 1.415 . S
C508 C507 1.355 . S
C508 C510 1.419 . S
C509 C504 1.425 . S
C509 C506 1.409 . S
C509 C507 1.415 . S
C510 H500 0.930 . S
C510 C508 1.419 . S
C510 C511 1.362 . S
C511 H501 0.930 . S
C511 C504 1.409 . S
C511 C510 1.362 . S
H512 C518 0.930 . S
H513 C521 0.930 . S
H514 C522 0.930 . S
H515 C523 0.930 1_455 S
H516 C526 0.930 . S
H517 C527 0.930 . S
C518 H512 0.930 . S
C518 C519 1.355 1_545 S
C518 C520 1.415 . S
C519 C518 1.355 1_565 S
C519 C521 1.419 . S
C520 C518 1.415 . S
C520 C525 1.425 . S
C520 C527 1.409 . S
C521 H513 0.930 . S
C521 C519 1.419 . S
C521 C522 1.362 1_565 S
C522 H514 0.930 . S
C522 C521 1.362 1_545 S
C522 C525 1.409 . S
C523 H515 0.930 1_655 S
C523 C524 1.355 . S
C523 C525 1.415 . S
C524 C523 1.355 . S
C524 C526 1.419 . S
C525 C520 1.425 . S
C525 C522 1.409 . S
C525 C523 1.415 . S
C526 H516 0.930 . S
C526 C524 1.419 . S
C526 C527 1.362 . S
C527 H517 0.930 . S
C527 C520 1.409 . S
C527 C526 1.362 . S
H528 C534 0.930 . S
H529 C537 0.930 . S
H530 C538 0.930 . S
H531 C539 0.930 . S
H532 C542 0.930 1_565 S
H533 C543 0.930 . S
C534 H528 0.930 . S
C534 C535 1.355 . S
C534 C536 1.415 . S
C535 C534 1.355 . S
C535 C537 1.419 . S
C536 C534 1.415 . S
C536 C541 1.425 . S
C536 C543 1.409 . S
C537 H529 0.930 . S
C537 C535 1.419 . S
C537 C538 1.362 . S
C538 H530 0.930 . S
C538 C537 1.362 . S
C538 C541 1.409 . S
C539 H531 0.930 . S
C539 C540 1.355 . S
C539 C541 1.415 . S
C540 C539 1.355 . S
C540 C542 1.419 . S
C541 C536 1.425 . S
C541 C538 1.409 . S
C541 C539 1.415 . S
C542 H532 0.930 1_545 S
C542 C540 1.419 . S
C542 C543 1.362 . S
C543 H533 0.930 . S
C543 C536 1.409 . S
C543 C542 1.362 . S
H544 C550 0.930 1_455 S
H545 C553 0.930 1_455 S
H546 C554 0.930 . S
H547 C555 0.930 . S
H548 C558 0.930 . S
H549 C559 0.930 . S
C550 H544 0.930 1_655 S
C550 C551 1.355 1_655 S
C550 C552 1.415 . S
C551 C550 1.355 1_455 S
C551 C553 1.419 1_455 S
C552 C550 1.415 . S
C552 C557 1.425 . S
C552 C559 1.409 . S
C553 H545 0.930 1_655 S
C553 C551 1.419 1_655 S
C553 C554 1.362 . S
C554 H546 0.930 . S
C554 C553 1.362 . S
C554 C557 1.409 . S
C555 H547 0.930 . S
C555 C556 1.355 . S
C555 C557 1.415 . S
C556 C555 1.355 . S
C556 C558 1.419 . S
C557 C552 1.425 . S
C557 C554 1.409 . S
C557 C555 1.415 . S
C558 H548 0.930 . S
C558 C556 1.419 . S
C558 C559 1.362 . S
C559 H549 0.930 . S
C559 C552 1.409 . S
C559 C558 1.362 . S
H560 C566 0.930 . S
H561 C569 0.930 . S
H562 C570 0.930 . S
H563 C571 0.930 1_565 S
H564 C574 0.930 1_565 S
H565 C575 0.930 . S
C566 H560 0.930 . S
C566 C567 1.355 . S
C566 C568 1.415 . S
C567 C566 1.355 . S
C567 C569 1.419 . S
C568 C566 1.415 . S
C568 C573 1.425 . S
C568 C575 1.409 . S
C569 H561 0.930 . S
C569 C567 1.419 . S
C569 C570 1.362 . S
C570 H562 0.930 . S
C570 C569 1.362 . S
C570 C573 1.409 . S
C571 H563 0.930 1_545 S
C571 C572 1.355 1_545 S
C571 C573 1.415 . S
C572 C571 1.355 1_565 S
C572 C574 1.419 1_565 S
C573 C568 1.425 . S
C573 C570 1.409 . S
C573 C571 1.415 . S
C574 H564 0.930 1_545 S
C574 C572 1.419 1_545 S
C574 C575 1.362 . S
C575 H565 0.930 . S
C575 C568 1.409 . S
C575 C574 1.362 . S
H576 C582 0.930 . S
H577 C585 0.930 . S
H578 C586 0.930 . S
H579 C587 0.930 . S
H580 C590 0.930 . S
H581 C591 0.930 . S
C582 H576 0.930 . S
C582 C583 1.355 . S
C582 C584 1.415 . S
C583 C582 1.355 . S
C583 C585 1.419 . S
C584 C582 1.415 . S
C584 C589 1.425 . S
C584 C591 1.409 . S
C585 H577 0.930 . S
C585 C583 1.419 . S
C585 C586 1.362 . S
C586 H578 0.930 . S
C586 C585 1.362 . S
C586 C589 1.409 . S
C587 H579 0.930 . S
C587 C588 1.355 . S
C587 C589 1.415 . S
C588 C587 1.355 . S
C588 C590 1.419 . S
C589 C584 1.425 . S
C589 C586 1.409 . S
C589 C587 1.415 . S
C590 H580 0.930 . S
C590 C588 1.419 . S
C590 C591 1.362 . S
C591 H581 0.930 . S
C591 C584 1.409 . S
C591 C590 1.362 . S
H592 C598 0.930 . S
H593 C601 0.930 . S
H594 C602 0.930 . S
H595 C603 0.930 . S
H596 C606 0.930 . S
H597 C607 0.930 . S
C598 H592 0.930 . S
C598 C599 1.355 . S
C598 C600 1.415 . S
C599 C598 1.355 . S
C599 C601 1.419 . S
C600 C598 1.415 . S
C600 C605 1.425 . S
C600 C607 1.409 . S
C601 H593 0.930 . S
C601 C599 1.419 . S
C601 C602 1.362 . S
C602 H594 0.930 . S
C602 C601 1.362 . S
C602 C605 1.409 . S
C603 H595 0.930 . S
C603 C604 1.355 . S
C603 C605 1.415 . S
C604 C603 1.355 . S
C604 C606 1.419 . S
C605 C600 1.425 . S
C605 C602 1.409 . S
C605 C603 1.415 . S
C606 H596 0.930 . S
C606 C604 1.419 . S
C606 C607 1.362 . S
C607 H597 0.930 . S
C607 C600 1.409 . S
C607 C606 1.362 . S
H608 C614 0.930 . S
H609 C617 0.930 . S
H610 C618 0.930 . S
H611 C619 0.930 . S
H612 C622 0.930 . S
H613 C623 0.930 . S
C614 H608 0.930 . S
C614 C615 1.355 . S
C614 C616 1.415 . S
C615 C614 1.355 . S
C615 C617 1.419 . S
C616 C614 1.415 . S
C616 C621 1.425 . S
C616 C623 1.409 . S
C617 H609 0.930 . S
C617 C615 1.419 . S
C617 C618 1.362 . S
C618 H610 0.930 . S
C618 C617 1.362 . S
C618 C621 1.409 . S
C619 H611 0.930 . S
C619 C620 1.355 . S
C619 C621 1.415 . S
C620 C619 1.355 . S
C620 C622 1.419 . S
C621 C616 1.425 . S
C621 C618 1.409 . S
C621 C619 1.415 . S
C622 H612 0.930 . S
C622 C620 1.419 . S
C622 C623 1.362 . S
C623 H613 0.930 . S
C623 C616 1.409 . S
C623 C622 1.362 . S
H624 C630 0.930 . S
H625 C633 0.930 . S
H626 C634 0.930 . S
H627 C635 0.930 . S
H628 C638 0.930 . S
H629 C639 0.930 . S
C630 H624 0.930 . S
C630 C631 1.355 . S
C630 C632 1.415 . S
C631 C630 1.355 . S
C631 C633 1.419 . S
C632 C630 1.415 . S
C632 C637 1.425 . S
C632 C639 1.409 . S
C633 H625 0.930 . S
C633 C631 1.419 . S
C633 C634 1.362 . S
C634 H626 0.930 . S
C634 C633 1.362 . S
C634 C637 1.409 . S
C635 H627 0.930 . S
C635 C636 1.355 . S
C635 C637 1.415 . S
C636 C635 1.355 . S
C636 C638 1.419 . S
C637 C632 1.425 . S
C637 C634 1.409 . S
C637 C635 1.415 . S
C638 H628 0.930 . S
C638 C636 1.419 . S
C638 C639 1.362 . S
C639 H629 0.930 . S
C639 C632 1.409 . S
C639 C638 1.362 . S
H640 C646 0.930 . S
H641 C649 0.930 . S
H642 C650 0.930 . S
H643 C651 0.930 . S
H644 C654 0.930 . S
H645 C655 0.930 . S
C646 H640 0.930 . S
C646 C647 1.355 . S
C646 C648 1.415 . S
C647 C646 1.355 . S
C647 C649 1.419 . S
C648 C646 1.415 . S
C648 C653 1.425 . S
C648 C655 1.409 . S
C649 H641 0.930 . S
C649 C647 1.419 . S
C649 C650 1.362 . S
C650 H642 0.930 . S
C650 C649 1.362 . S
C650 C653 1.409 . S
C651 H643 0.930 . S
C651 C652 1.355 . S
C651 C653 1.415 . S
C652 C651 1.355 . S
C652 C654 1.419 . S
C653 C648 1.425 . S
C653 C650 1.409 . S
C653 C651 1.415 . S
C654 H644 0.930 . S
C654 C652 1.419 . S
C654 C655 1.362 . S
C655 H645 0.930 . S
C655 C648 1.409 . S
C655 C654 1.362 . S
H656 C662 0.930 . S
H657 C665 0.930 . S
H658 C666 0.930 . S
H659 C667 0.930 . S
H660 C670 0.930 . S
H661 C671 0.930 . S
C662 H656 0.930 . S
C662 C663 1.355 . S
C662 C664 1.415 . S
C663 C662 1.355 . S
C663 C665 1.419 . S
C664 C662 1.415 . S
C664 C669 1.425 . S
C664 C671 1.409 . S
C665 H657 0.930 . S
C665 C663 1.419 . S
C665 C666 1.362 . S
C666 H658 0.930 . S
C666 C665 1.362 . S
C666 C669 1.409 . S
C667 H659 0.930 . S
C667 C668 1.355 . S
C667 C669 1.415 . S
C668 C667 1.355 . S
C668 C670 1.419 . S
C669 C664 1.425 . S
C669 C666 1.409 . S
C669 C667 1.415 . S
C670 H660 0.930 . S
C670 C668 1.419 . S
C670 C671 1.362 . S
C671 H661 0.930 . S
C671 C664 1.409 . S
C671 C670 1.362 . S
H672 C678 0.930 . S
H673 C681 0.930 . S
H674 C682 0.930 1_554 S
H675 C683 0.930 . S
H676 C686 0.930 . S
H677 C687 0.930 1_556 S
C678 H672 0.930 . S
C678 C679 1.355 . S
C678 C680 1.415 1_565 S
C679 C678 1.355 . S
C679 C681 1.419 . S
C680 C678 1.415 1_545 S
C680 C685 1.425 1_546 S
C680 C687 1.409 1_556 S
C681 H673 0.930 . S
C681 C679 1.419 . S
C681 C682 1.362 . S
C682 H674 0.930 1_556 S
C682 C681 1.362 . S
C682 C685 1.409 1_556 S
C683 H675 0.930 . S
C683 C684 1.355 . S
C683 C685 1.415 1_545 S
C684 C683 1.355 . S
C684 C686 1.419 . S
C685 C680 1.425 1_564 S
C685 C682 1.409 1_554 S
C685 C683 1.415 1_565 S
C686 H676 0.930 . S
C686 C684 1.419 . S
C686 C687 1.362 . S
C687 H677 0.930 1_554 S
C687 C680 1.409 1_554 S
C687 C686 1.362 . S
H688 C694 0.930 . S
H689 C697 0.930 . S
H690 C698 0.930 . S
H691 C699 0.930 . S
H692 C702 0.930 . S
H693 C703 0.930 . S
C694 H688 0.930 . S
C694 C695 1.355 . S
C694 C696 1.415 . S
C695 C694 1.355 . S
C695 C697 1.419 . S
C696 C694 1.415 . S
C696 C701 1.425 . S
C696 C703 1.409 . S
C697 H689 0.930 . S
C697 C695 1.419 . S
C697 C698 1.362 . S
C698 H690 0.930 . S
C698 C697 1.362 . S
C698 C701 1.409 . S
C699 H691 0.930 . S
C699 C700 1.355 . S
C699 C701 1.415 . S
C700 C699 1.355 . S
C700 C702 1.419 . S
C701 C696 1.425 . S
C701 C698 1.409 . S
C701 C699 1.415 . S
C702 H692 0.930 . S
C702 C700 1.419 . S
C702 C703 1.362 . S
C703 H693 0.930 . S
C703 C696 1.409 . S
C703 C702 1.362 . S
H704 C710 0.930 1_655 S
H705 C713 0.930 . S
H706 C714 0.897 1_554 S
H707 C715 0.930 1_455 S
H708 C718 0.930 . S
H709 C719 0.897 1_556 S
C710 H704 0.930 1_455 S
C710 C711 1.355 . S
C710 C712 1.415 1_455 S
C711 C710 1.355 . S
C711 C713 1.419 . S
C712 C710 1.415 1_655 S
C712 C717 1.425 1_656 S
C712 C719 1.389 1_556 S
C713 H705 0.930 . S
C713 C711 1.419 . S
C713 C714 1.417 . S
C714 H706 0.897 1_556 S
C714 C713 1.417 . S
C714 C717 1.389 1_556 S
C715 H707 0.930 1_655 S
C715 C716 1.355 . S
C715 C717 1.415 1_655 S
C716 C715 1.355 . S
C716 C718 1.419 . S
C717 C712 1.425 1_454 S
C717 C714 1.389 1_554 S
C717 C715 1.415 1_455 S
C718 H708 0.930 . S
C718 C716 1.419 . S
C718 C719 1.417 . S
C719 H709 0.897 1_554 S
C719 C712 1.389 1_554 S
C719 C718 1.417 . S
H720 C726 0.930 . S
H721 C729 0.930 . S
H722 C730 0.930 . S
H723 C731 0.930 . S
H724 C734 0.930 . S
H725 C735 0.930 . S
C726 H720 0.930 . S
C726 C727 1.355 . S
C726 C728 1.415 . S
C727 C726 1.355 . S
C727 C729 1.419 . S
C728 C726 1.415 . S
C728 C733 1.425 1_545 S
C728 C735 1.409 . S
C729 H721 0.930 . S
C729 C727 1.419 . S
C729 C730 1.362 1_545 S
C730 H722 0.930 . S
C730 C729 1.362 1_565 S
C730 C733 1.409 . S
C731 H723 0.930 . S
C731 C732 1.355 . S
C731 C733 1.415 . S
C732 C731 1.355 . S
C732 C734 1.419 . S
C733 C728 1.425 1_565 S
C733 C730 1.409 . S
C733 C731 1.415 . S
C734 H724 0.930 . S
C734 C732 1.419 . S
C734 C735 1.362 1_565 S
C735 H725 0.930 . S
C735 C728 1.409 . S
C735 C734 1.362 1_545 S
H736 C742 0.930 . S
H737 C745 0.930 . S
H738 C746 0.930 . S
H739 C747 0.930 . S
H740 C750 0.930 . S
H741 C751 0.930 . S
C742 H736 0.930 . S
C742 C743 1.355 . S
C742 C744 1.415 1_554 S
C743 C742 1.355 . S
C743 C745 1.419 . S
C744 C742 1.415 1_556 S
C744 C749 1.425 1_556 S
C744 C751 1.409 . S
C745 H737 0.930 . S
C745 C743 1.419 . S
C745 C746 1.362 . S
C746 H738 0.930 . S
C746 C745 1.362 . S
C746 C749 1.409 . S
C747 H739 0.930 . S
C747 C748 1.355 . S
C747 C749 1.415 1_556 S
C748 C747 1.355 . S
C748 C750 1.419 . S
C749 C744 1.425 1_554 S
C749 C746 1.409 . S
C749 C747 1.415 1_554 S
C750 H740 0.930 . S
C750 C748 1.419 . S
C750 C751 1.362 . S
C751 H741 0.930 . S
C751 C744 1.409 . S
C751 C750 1.362 . S
H752 C758 0.930 . S
H753 C761 0.930 1_655 S
H754 C762 0.930 . S
H755 C763 0.930 . S
H756 C766 0.930 1_455 S
H757 C767 0.930 . S
C758 H752 0.930 . S
C758 C759 1.355 . S
C758 C760 1.415 . S
C759 C758 1.355 . S
C759 C761 1.419 . S
C760 C758 1.415 . S
C760 C765 1.425 1_455 S
C760 C767 1.409 . S
C761 H753 0.930 1_455 S
C761 C759 1.419 . S
C761 C762 1.362 1_455 S
C762 H754 0.930 . S
C762 C761 1.362 1_655 S
C762 C765 1.409 . S
C763 H755 0.930 . S
C763 C764 1.355 . S
C763 C765 1.415 . S
C764 C763 1.355 . S
C764 C766 1.419 . S
C765 C760 1.425 1_655 S
C765 C762 1.409 . S
C765 C763 1.415 . S
C766 H756 0.930 1_655 S
C766 C764 1.419 . S
C766 C767 1.362 1_655 S
C767 H757 0.930 . S
C767 C760 1.409 . S
C767 C766 1.362 1_455 S
H768 C774 0.930 . S
H769 C777 0.930 . S
H770 C778 0.930 . S
H771 C779 0.930 . S
H772 C782 0.930 . S
H773 C783 0.930 . S
C774 H768 0.930 . S
C774 C775 1.355 . S
C774 C776 1.415 . S
C775 C774 1.355 . S
C775 C777 1.419 . S
C776 C774 1.415 . S
C776 C781 1.425 . S
C776 C783 1.409 . S
C777 H769 0.930 . S
C777 C775 1.419 . S
C777 C778 1.362 . S
C778 H770 0.930 . S
C778 C777 1.362 . S
C778 C781 1.409 . S
C779 H771 0.930 . S
C779 C780 1.355 . S
C779 C781 1.415 . S
C780 C779 1.355 . S
C780 C782 1.419 . S
C781 C776 1.425 . S
C781 C778 1.409 . S
C781 C779 1.415 . S
C782 H772 0.930 . S
C782 C780 1.419 . S
C782 C783 1.362 . S
C783 H773 0.930 . S
C783 C776 1.409 . S
C783 C782 1.362 . S
H784 C790 0.930 . S
H785 C793 0.930 . S
H786 C794 0.930 . S
H787 C795 0.930 . S
H788 C798 0.930 . S
H789 C799 0.930 . S
C790 H784 0.930 . S
C790 C791 1.355 . S
C790 C792 1.415 . S
C791 C790 1.355 . S
C791 C793 1.419 . S
C792 C790 1.415 . S
C792 C797 1.425 . S
C792 C799 1.409 . S
C793 H785 0.930 . S
C793 C791 1.419 . S
C793 C794 1.362 . S
C794 H786 0.930 . S
C794 C793 1.362 . S
C794 C797 1.409 . S
C795 H787 0.930 . S
C795 C796 1.355 . S
C795 C797 1.415 . S
C796 C795 1.355 . S
C796 C798 1.419 . S
C797 C792 1.425 . S
C797 C794 1.409 . S
C797 C795 1.415 . S
C798 H788 0.930 . S
C798 C796 1.419 . S
C798 C799 1.362 . S
C799 H789 0.930 . S
C799 C792 1.409 . S
C799 C798 1.362 . S
H800 C806 0.930 . S
H801 C809 0.930 . S
H802 C810 0.930 . S
H803 C811 0.930 . S
H804 C814 0.930 . S
H805 C815 0.930 . S
C806 H800 0.930 . S
C806 C807 1.355 . S
C806 C808 1.415 . S
C807 C806 1.355 . S
C807 C809 1.419 . S
C808 C806 1.415 . S
C808 C813 1.425 . S
C808 C815 1.409 . S
C809 H801 0.930 . S
C809 C807 1.419 . S
C809 C810 1.362 . S
C810 H802 0.930 . S
C810 C809 1.362 . S
C810 C813 1.409 . S
C811 H803 0.930 . S
C811 C812 1.355 . S
C811 C813 1.415 . S
C812 C811 1.355 . S
C812 C814 1.419 . S
C813 C808 1.425 . S
C813 C810 1.409 . S
C813 C811 1.415 . S
C814 H804 0.930 . S
C814 C812 1.419 . S
C814 C815 1.362 . S
C815 H805 0.930 . S
C815 C808 1.409 . S
C815 C814 1.362 . S
H816 C822 0.930 . S
H817 C825 0.930 . S
H818 C826 0.930 . S
H819 C827 0.930 . S
H820 C830 0.930 . S
H821 C831 0.930 . S
C822 H816 0.930 . S
C822 C823 1.355 . S
C822 C824 1.415 . S
C823 C822 1.355 . S
C823 C825 1.419 . S
C824 C822 1.415 . S
C824 C829 1.425 . S
C824 C831 1.409 . S
C825 H817 0.930 . S
C825 C823 1.419 . S
C825 C826 1.362 . S
C826 H818 0.930 . S
C826 C825 1.362 . S
C826 C829 1.409 . S
C827 H819 0.930 . S
C827 C828 1.355 . S
C827 C829 1.415 . S
C828 C827 1.355 . S
C828 C830 1.419 . S
C829 C824 1.425 . S
C829 C826 1.409 . S
C829 C827 1.415 . S
C830 H820 0.930 . S
C830 C828 1.419 . S
C830 C831 1.362 . S
C831 H821 0.930 . S
C831 C824 1.409 . S
C831 C830 1.362 . S
H832 C838 0.930 . S
H833 C841 0.930 . S
H834 C842 0.930 . S
H835 C843 0.930 . S
H836 C846 0.930 . S
H837 C847 0.930 . S
C838 H832 0.930 . S
C838 C839 1.355 . S
C838 C840 1.415 . S
C839 C838 1.355 . S
C839 C841 1.419 . S
C840 C838 1.415 . S
C840 C845 1.425 . S
C840 C847 1.409 . S
C841 H833 0.930 . S
C841 C839 1.419 . S
C841 C842 1.362 . S
C842 H834 0.930 . S
C842 C841 1.362 . S
C842 C845 1.409 . S
C843 H835 0.930 . S
C843 C844 1.355 . S
C843 C845 1.415 . S
C844 C843 1.355 . S
C844 C846 1.419 . S
C845 C840 1.425 . S
C845 C842 1.409 . S
C845 C843 1.415 . S
C846 H836 0.930 . S
C846 C844 1.419 . S
C846 C847 1.362 . S
C847 H837 0.930 . S
C847 C840 1.409 . S
C847 C846 1.362 . S
H848 C854 0.930 . S
H849 C857 0.930 . S
H850 C858 0.930 . S
H851 C859 0.930 . S
H852 C862 0.930 . S
H853 C863 0.930 . S
C854 H848 0.930 . S
C854 C855 1.355 . S
C854 C856 1.415 . S
C855 C854 1.355 . S
C855 C857 1.419 . S
C856 C854 1.415 . S
C856 C861 1.425 . S
C856 C863 1.409 . S
C857 H849 0.930 . S
C857 C855 1.419 . S
C857 C858 1.362 . S
C858 H850 0.930 . S
C858 C857 1.362 . S
C858 C861 1.409 . S
C859 H851 0.930 . S
C859 C860 1.355 . S
C859 C861 1.415 . S
C860 C859 1.355 . S
C860 C862 1.419 . S
C861 C856 1.425 . S
C861 C858 1.409 . S
C861 C859 1.415 . S
C862 H852 0.930 . S
C862 C860 1.419 . S
C862 C863 1.362 . S
C863 H853 0.930 . S
C863 C856 1.409 . S
C863 C862 1.362 . S
H864 C870 0.930 . S
H865 C873 0.930 . S
H866 C874 0.930 . S
H867 C875 0.930 . S
H868 C878 0.930 . S
H869 C879 0.930 . S
C870 H864 0.930 . S
C870 C871 1.355 . S
C870 C872 1.415 . S
C871 C870 1.355 . S
C871 C873 1.419 . S
C872 C870 1.415 . S
C872 C877 1.425 . S
C872 C879 1.409 . S
C873 H865 0.930 . S
C873 C871 1.419 . S
C873 C874 1.362 . S
C874 H866 0.930 . S
C874 C873 1.362 . S
C874 C877 1.409 . S
C875 H867 0.930 . S
C875 C876 1.355 . S
C875 C877 1.415 . S
C876 C875 1.355 . S
C876 C878 1.419 . S
C877 C872 1.425 . S
C877 C874 1.409 . S
C877 C875 1.415 . S
C878 H868 0.930 . S
C878 C876 1.419 . S
C878 C879 1.362 . S
C879 H869 0.930 . S
C879 C872 1.409 . S
C879 C878 1.362 . S
H880 C886 0.930 . S
H881 C889 0.930 . S
H882 C890 0.930 . S
H883 C891 0.930 . S
H884 C894 0.930 . S
H885 C895 0.930 . S
C886 H880 0.930 . S
C886 C887 1.355 . S
C886 C888 1.415 . S
C887 C886 1.355 . S
C887 C889 1.419 . S
C888 C886 1.415 . S
C888 C893 1.425 . S
C888 C895 1.409 . S
C889 H881 0.930 . S
C889 C887 1.419 . S
C889 C890 1.362 . S
C890 H882 0.930 . S
C890 C889 1.362 . S
C890 C893 1.409 . S
C891 H883 0.930 . S
C891 C892 1.355 . S
C891 C893 1.415 . S
C892 C891 1.355 . S
C892 C894 1.419 . S
C893 C888 1.425 . S
C893 C890 1.409 . S
C893 C891 1.415 . S
C894 H884 0.930 . S
C894 C892 1.419 . S
C894 C895 1.362 . S
C895 H885 0.930 . S
C895 C888 1.409 . S
C895 C894 1.362 . S
H896 C902 0.930 . S
H897 C905 0.930 . S
H898 C906 0.930 . S
H899 C907 0.930 . S
H900 C910 0.930 . S
H901 C911 0.930 . S
C902 H896 0.930 . S
C902 C903 1.355 . S
C902 C904 1.415 . S
C903 C902 1.355 . S
C903 C905 1.419 . S
C904 C902 1.415 . S
C904 C909 1.425 . S
C904 C911 1.409 . S
C905 H897 0.930 . S
C905 C903 1.419 . S
C905 C906 1.362 . S
C906 H898 0.930 . S
C906 C905 1.362 . S
C906 C909 1.409 . S
C907 H899 0.930 . S
C907 C908 1.355 . S
C907 C909 1.415 . S
C908 C907 1.355 . S
C908 C910 1.419 . S
C909 C904 1.425 . S
C909 C906 1.409 . S
C909 C907 1.415 . S
C910 H900 0.930 . S
C910 C908 1.419 . S
C910 C911 1.362 . S
C911 H901 0.930 . S
C911 C904 1.409 . S
C911 C910 1.362 . S
H912 C918 0.930 . S
H913 C921 0.930 . S
H914 C922 0.930 . S
H915 C923 0.930 . S
H916 C926 0.930 . S
H917 C927 0.930 . S
C918 H912 0.930 . S
C918 C919 1.355 . S
C918 C920 1.415 . S
C919 C918 1.355 . S
C919 C921 1.419 . S
C920 C918 1.415 . S
C920 C925 1.425 . S
C920 C927 1.409 . S
C921 H913 0.930 . S
C921 C919 1.419 . S
C921 C922 1.362 . S
C922 H914 0.930 . S
C922 C921 1.362 . S
C922 C925 1.409 . S
C923 H915 0.930 . S
C923 C924 1.355 . S
C923 C925 1.415 . S
C924 C923 1.355 . S
C924 C926 1.419 . S
C925 C920 1.425 . S
C925 C922 1.409 . S
C925 C923 1.415 . S
C926 H916 0.930 . S
C926 C924 1.419 . S
C926 C927 1.362 . S
C927 H917 0.930 . S
C927 C920 1.409 . S
C927 C926 1.362 . S
H928 C934 0.930 . S
H929 C937 0.930 . S
H930 C938 0.930 . S
H931 C939 0.930 . S
H932 C942 0.930 . S
H933 C943 0.930 . S
C934 H928 0.930 . S
C934 C935 1.355 . S
C934 C936 1.415 . S
C935 C934 1.355 . S
C935 C937 1.419 . S
C936 C934 1.415 . S
C936 C941 1.425 . S
C936 C943 1.409 . S
C937 H929 0.930 . S
C937 C935 1.419 . S
C937 C938 1.362 . S
C938 H930 0.930 . S
C938 C937 1.362 . S
C938 C941 1.409 . S
C939 H931 0.930 . S
C939 C940 1.355 . S
C939 C941 1.415 . S
C940 C939 1.355 . S
C940 C942 1.419 . S
C941 C936 1.425 . S
C941 C938 1.409 . S
C941 C939 1.415 . S
C942 H932 0.930 . S
C942 C940 1.419 . S
C942 C943 1.362 . S
C943 H933 0.930 . S
C943 C936 1.409 . S
C943 C942 1.362 . S
H944 C950 0.930 . S
H945 C953 0.930 . S
H946 C954 0.930 . S
H947 C955 0.930 . S
H948 C958 0.930 . S
H949 C959 0.930 . S
C950 H944 0.930 . S
C950 C951 1.355 . S
C950 C952 1.415 . S
C951 C950 1.355 . S
C951 C953 1.419 . S
C952 C950 1.415 . S
C952 C957 1.425 . S
C952 C959 1.409 . S
C953 H945 0.930 . S
C953 C951 1.419 . S
C953 C954 1.362 . S
C954 H946 0.930 . S
C954 C953 1.362 . S
C954 C957 1.409 . S
C955 H947 0.930 . S
C955 C956 1.355 . S
C955 C957 1.415 . S
C956 C955 1.355 . S
C956 C958 1.419 . S
C957 C952 1.425 . S
C957 C954 1.409 . S
C957 C955 1.415 . S
C958 H948 0.930 . S
C958 C956 1.419 . S
C958 C959 1.362 . S
C959 H949 0.930 . S
C959 C952 1.409 . S
C959 C958 1.362 . S
C391 C70 1.166 1_455 S
C396 C29 1.161 . S
C407 C98 1.121 1_565 S
C412 C36 1.136 . S
C423 C93 1.161 . S
C428 C130 1.159 . S
C439 C100 1.142 . S
C444 C162 1.121 1_455 S
C455 C6 1.114 1_565 S
C460 C132 1.136 . S
C471 C34 1.149 . S
C476 C164 1.157 . S
C487 C326 1.117 1_545 S
C492 C221 1.139 . S
C503 C228 1.154 . S
C508 C358 1.159 . S
C519 C260 1.161 . S
C524 C198 1.166 1_655 S
C535 C317 1.151 . S
C540 C226 1.136 1_545 S
C551 C349 1.146 . S
C556 C258 1.127 . S
C567 C294 1.136 1_655 S
C572 C381 1.151 . S
C583 N109 1.572 . S
C588 N18 1.509 . S
C599 N45 1.507 . S
C604 N141 1.574 . S
C615 N82 1.512 . S
C620 N173 1.570 . S
C631 N210 1.505 . S
C636 N306 1.576 . S
C647 N237 1.571 . S
C652 N338 1.510 . S
C663 N269 1.508 . S
C668 N370 1.573 . S
C679 N242 1.677 . S
C684 N13 1.648 . S
C695 N50 1.646 . S
C700 N274 1.679 . S
C711 N301 1.638 . S
C716 N77 1.683 . S
C727 N114 1.636 . S
C732 N333 1.681 . S
C743 N146 1.667 . S
C748 N365 1.646 . S
C759 N205 1.637 . S
C764 N178 1.678 . S
C775 C68 1.245 . S
C780 C2 1.248 . S
C791 C38 1.207 . S
C796 C125 1.229 . S
C807 C66 1.248 . S
C812 C157 1.247 . S
C823 C102 1.207 . S
C828 C189 1.222 . S
C839 C4 1.246 . S
C844 C134 1.245 . S
C855 C61 1.237 . S
C860 C166 1.237 . S
C871 C324 1.246 . S
C876 C194 1.248 . S
C887 C230 1.238 . S
C892 C356 1.244 . S
C903 C262 1.225 . S
C908 C196 1.230 . S
C919 C253 1.224 . S
C924 C290 1.213 . S
C935 C322 1.215 . S
C940 C285 1.225 . S
C951 C354 1.237 . S
C956 C292 1.237 . S
