# Generated by pormake.
# Topology gme, (4)-cn, num edge types: 1
# Building blocks:
#     Node 0, Type 0, BuildingBlock: CEKHIL_clean_sbu_0, # of connection points: 4
#     Node 1, Type 0, BuildingBlock: CEKHIL_clean_sbu_0, # of connection points: 4
#     Node 2, Type 0, BuildingBlock: CEKHIL_clean_sbu_0, # of connection points: 4
#     Node 3, Type 0, BuildingBlock: CEKHIL_clean_sbu_0, # of connection points: 4
#     Node 4, Type 0, BuildingBlock: CEKHIL_clean_sbu_0, # of connection points: 4
#     Node 5, Type 0, BuildingBlock: CEKHIL_clean_sbu_0, # of connection points: 4
#     Node 6, Type 0, BuildingBlock: CEKHIL_clean_sbu_0, # of connection points: 4
#     Node 7, Type 0, BuildingBlock: CEKHIL_clean_sbu_0, # of connection points: 4
#     Node 8, Type 0, BuildingBlock: CEKHIL_clean_sbu_0, # of connection points: 4
#     Node 9, Type 0, BuildingBlock: CEKHIL_clean_sbu_0, # of connection points: 4
#     Node 10, Type 0, BuildingBlock: CEKHIL_clean_sbu_0, # of connection points: 4
#     Node 11, Type 0, BuildingBlock: CEKHIL_clean_sbu_0, # of connection points: 4
#     Node 12, Type 0, BuildingBlock: CEKHIL_clean_sbu_0, # of connection points: 4
#     Node 13, Type 0, BuildingBlock: CEKHIL_clean_sbu_0, # of connection points: 4
#     Node 14, Type 0, BuildingBlock: CEKHIL_clean_sbu_0, # of connection points: 4
#     Node 15, Type 0, BuildingBlock: CEKHIL_clean_sbu_0, # of connection points: 4
#     Node 16, Type 0, BuildingBlock: CEKHIL_clean_sbu_0, # of connection points: 4
#     Node 17, Type 0, BuildingBlock: CEKHIL_clean_sbu_0, # of connection points: 4
#     Node 18, Type 0, BuildingBlock: CEKHIL_clean_sbu_0, # of connection points: 4
#     Node 19, Type 0, BuildingBlock: CEKHIL_clean_sbu_0, # of connection points: 4
#     Node 20, Type 0, BuildingBlock: CEKHIL_clean_sbu_0, # of connection points: 4
#     Node 21, Type 0, BuildingBlock: CEKHIL_clean_sbu_0, # of connection points: 4
#     Node 22, Type 0, BuildingBlock: CEKHIL_clean_sbu_0, # of connection points: 4
#     Node 23, Type 0, BuildingBlock: CEKHIL_clean_sbu_0, # of connection points: 4
#     Edge 24, Type (0, 0), BuildingBlock: XIVTED_clean_linker_0, # of connection points: 2
#     Edge 25, Type (0, 0), BuildingBlock: XIVTED_clean_linker_0, # of connection points: 2
#     Edge 26, Type (0, 0), BuildingBlock: XIVTED_clean_linker_0, # of connection points: 2
#     Edge 27, Type (0, 0), BuildingBlock: XIVTED_clean_linker_0, # of connection points: 2
#     Edge 28, Type (0, 0), BuildingBlock: XIVTED_clean_linker_0, # of connection points: 2
#     Edge 29, Type (0, 0), BuildingBlock: XIVTED_clean_linker_0, # of connection points: 2
#     Edge 30, Type (0, 0), BuildingBlock: XIVTED_clean_linker_0, # of connection points: 2
#     Edge 31, Type (0, 0), BuildingBlock: XIVTED_clean_linker_0, # of connection points: 2
#     Edge 32, Type (0, 0), BuildingBlock: XIVTED_clean_linker_0, # of connection points: 2
#     Edge 33, Type (0, 0), BuildingBlock: XIVTED_clean_linker_0, # of connection points: 2
#     Edge 34, Type (0, 0), BuildingBlock: XIVTED_clean_linker_0, # of connection points: 2
#     Edge 35, Type (0, 0), BuildingBlock: XIVTED_clean_linker_0, # of connection points: 2
#     Edge 36, Type (0, 0), BuildingBlock: XIVTED_clean_linker_0, # of connection points: 2
#     Edge 37, Type (0, 0), BuildingBlock: XIVTED_clean_linker_0, # of connection points: 2
#     Edge 38, Type (0, 0), BuildingBlock: XIVTED_clean_linker_0, # of connection points: 2
#     Edge 39, Type (0, 0), BuildingBlock: XIVTED_clean_linker_0, # of connection points: 2
#     Edge 40, Type (0, 0), BuildingBlock: XIVTED_clean_linker_0, # of connection points: 2
#     Edge 41, Type (0, 0), BuildingBlock: XIVTED_clean_linker_0, # of connection points: 2
#     Edge 42, Type (0, 0), BuildingBlock: XIVTED_clean_linker_0, # of connection points: 2
#     Edge 43, Type (0, 0), BuildingBlock: XIVTED_clean_linker_0, # of connection points: 2
#     Edge 44, Type (0, 0), BuildingBlock: XIVTED_clean_linker_0, # of connection points: 2
#     Edge 45, Type (0, 0), BuildingBlock: XIVTED_clean_linker_0, # of connection points: 2
#     Edge 46, Type (0, 0), BuildingBlock: XIVTED_clean_linker_0, # of connection points: 2
#     Edge 47, Type (0, 0), BuildingBlock: XIVTED_clean_linker_0, # of connection points: 2
#     Edge 48, Type (0, 0), BuildingBlock: XIVTED_clean_linker_0, # of connection points: 2
#     Edge 49, Type (0, 0), BuildingBlock: XIVTED_clean_linker_0, # of connection points: 2
#     Edge 50, Type (0, 0), BuildingBlock: XIVTED_clean_linker_0, # of connection points: 2
#     Edge 51, Type (0, 0), BuildingBlock: XIVTED_clean_linker_0, # of connection points: 2
#     Edge 52, Type (0, 0), BuildingBlock: XIVTED_clean_linker_0, # of connection points: 2
#     Edge 53, Type (0, 0), BuildingBlock: XIVTED_clean_linker_0, # of connection points: 2
#     Edge 54, Type (0, 0), BuildingBlock: XIVTED_clean_linker_0, # of connection points: 2
#     Edge 55, Type (0, 0), BuildingBlock: XIVTED_clean_linker_0, # of connection points: 2
#     Edge 56, Type (0, 0), BuildingBlock: XIVTED_clean_linker_0, # of connection points: 2
#     Edge 57, Type (0, 0), BuildingBlock: XIVTED_clean_linker_0, # of connection points: 2
#     Edge 58, Type (0, 0), BuildingBlock: XIVTED_clean_linker_0, # of connection points: 2
#     Edge 59, Type (0, 0), BuildingBlock: XIVTED_clean_linker_0, # of connection points: 2
#     Edge 60, Type (0, 0), BuildingBlock: XIVTED_clean_linker_0, # of connection points: 2
#     Edge 61, Type (0, 0), BuildingBlock: XIVTED_clean_linker_0, # of connection points: 2
#     Edge 62, Type (0, 0), BuildingBlock: XIVTED_clean_linker_0, # of connection points: 2
#     Edge 63, Type (0, 0), BuildingBlock: XIVTED_clean_linker_0, # of connection points: 2
#     Edge 64, Type (0, 0), BuildingBlock: XIVTED_clean_linker_0, # of connection points: 2
#     Edge 65, Type (0, 0), BuildingBlock: XIVTED_clean_linker_0, # of connection points: 2
#     Edge 66, Type (0, 0), BuildingBlock: XIVTED_clean_linker_0, # of connection points: 2
#     Edge 67, Type (0, 0), BuildingBlock: XIVTED_clean_linker_0, # of connection points: 2
#     Edge 68, Type (0, 0), BuildingBlock: XIVTED_clean_linker_0, # of connection points: 2
#     Edge 69, Type (0, 0), BuildingBlock: XIVTED_clean_linker_0, # of connection points: 2
#     Edge 70, Type (0, 0), BuildingBlock: XIVTED_clean_linker_0, # of connection points: 2
#     Edge 71, Type (0, 0), BuildingBlock: XIVTED_clean_linker_0, # of connection points: 2
# Relax obj value: 0.071
# Max RMSD: 0.095
# Mean RMSD: 0.095
data_MOF--net-gme--node1-CEKHIL_clean_sbu_0--edge1-XIVTED_clean_linker_0
_symmetry_space_group_name_H-M    P1
_symmetry_Int_Tables_number       1
_symmetry_cell_setting            triclinic
loop_
_symmetry_equiv_pos_as_xyz
'x, y, z'
_cell_length_a     53.925242
_cell_length_b     53.92195
_cell_length_c     56.929238
_cell_angle_alpha  90.005906
_cell_angle_beta   89.998785
_cell_angle_gamma 120.00606
loop_
_atom_site_label
_atom_site_type_symbol
_atom_site_fract_x
_atom_site_fract_y
_atom_site_fract_z
_atom_type_partial_charge
Co0 Co 0.38461 0.05982 0.11868 0.0
O1 O 0.3945 0.06616 0.08602 0.0
O2 O 0.36673 0.02359 0.10203 0.0
C3 C 0.37414 0.0953 0.12175 0.0
O4 O 0.36925 0.04557 0.15182 0.0
Co5 Co 0.41915 0.10787 0.15533 0.0
O6 O 0.38445 0.0847 0.17453 0.0
C7 C 0.44269 0.07228 0.13716 0.0
C8 C 0.37876 0.03872 0.08327 0.0
C9 C 0.36849 0.05795 0.17097 0.0
O10 O 0.41971 0.05657 0.1253 0.0
O11 O 0.44691 0.09424 0.14903 0.0
O12 O 0.35504 0.07042 0.11373 0.0
O13 O 0.39901 0.09834 0.12584 0.0
Co14 Co 0.32525 0.38664 0.61773 0.0
O15 O 0.32838 0.39641 0.58505 0.0
O16 O 0.34381 0.36908 0.60083 0.0
C17 C 0.27906 0.37549 0.62109 0.0
O18 O 0.32456 0.37147 0.65095 0.0
Co19 Co 0.31132 0.42092 0.65439 0.0
O20 O 0.3004 0.38643 0.67365 0.0
C21 C 0.37054 0.44489 0.63633 0.0
C22 C 0.34029 0.38089 0.58211 0.0
C23 C 0.31148 0.37071 0.67015 0.0
O24 O 0.36347 0.42211 0.62422 0.0
O25 O 0.35269 0.44879 0.64833 0.0
O26 O 0.28514 0.35664 0.61298 0.0
O27 O 0.30071 0.40053 0.62504 0.0
Co28 Co 0.93595 0.32252 0.11971 0.0
O29 O 0.92891 0.32582 0.08716 0.0
O30 O 0.97183 0.34089 0.10252 0.0
C31 C 0.90071 0.27647 0.12305 0.0
O32 O 0.95087 0.32162 0.15266 0.0
Co33 Co 0.88841 0.30887 0.15694 0.0
O34 O 0.91224 0.29807 0.17599 0.0
C35 C 0.92337 0.36795 0.13846 0.0
C36 C 0.95628 0.33754 0.08398 0.0
C37 C 0.9389 0.3088 0.17202 0.0
O38 O 0.93908 0.36081 0.12645 0.0
O39 O 0.9016 0.35012 0.15048 0.0
O40 O 0.9255 0.28239 0.11472 0.0
O41 O 0.89759 0.29822 0.12731 0.0
Co42 Co 0.60893 0.93587 0.61832 0.0
O43 O 0.60162 0.92928 0.58527 0.0
O44 O 0.62626 0.97208 0.60175 0.0
C45 C 0.62175 0.9023 0.6235 0.0
O46 O 0.62178 0.95059 0.65181 0.0
Co47 Co 0.57289 0.88688 0.65393 0.0
O48 O 0.6043 0.91197 0.67555 0.0
C49 C 0.54692 0.91642 0.62906 0.0
C50 C 0.61627 0.95684 0.58272 0.0
C51 C 0.62069 0.9386 0.67167 0.0
O52 O 0.5718 0.93634 0.62229 0.0
O53 O 0.5429 0.89389 0.6399 0.0
O54 O 0.6404 0.92749 0.61568 0.0
O55 O 0.59608 0.8978 0.62595 0.0
Co56 Co 0.67251 0.61182 0.12025 0.0
O57 O 0.66847 0.60098 0.08778 0.0
O58 O 0.65465 0.62985 0.10309 0.0
C59 C 0.71826 0.62163 0.12319 0.0
O60 O 0.67445 0.62841 0.15309 0.0
Co61 Co 0.68566 0.57783 0.15767 0.0
O62 O 0.69836 0.61338 0.17598 0.0
C63 C 0.6264 0.55463 0.1399 0.0
C64 C 0.65741 0.61721 0.08459 0.0
C65 C 0.68802 0.62966 0.17212 0.0
O66 O 0.63388 0.57726 0.12747 0.0
O67 O 0.64402 0.55049 0.15201 0.0
O68 O 0.71276 0.64076 0.11479 0.0
O69 O 0.69624 0.59704 0.12777 0.0
Co70 Co 0.06046 0.67755 0.62019 0.0
O71 O 0.06697 0.67677 0.58714 0.0
O72 O 0.02417 0.6573 0.60379 0.0
C73 C 0.09279 0.72442 0.62505 0.0
O74 O 0.04586 0.67543 0.65379 0.0
Co75 Co 0.11029 0.69266 0.65549 0.0
O76 O 0.08474 0.69833 0.67707 0.0
C77 C 0.08195 0.63663 0.63133 0.0
C78 C 0.03937 0.66281 0.58471 0.0
C79 C 0.05792 0.68701 0.67347 0.0
O80 O 0.06157 0.64079 0.62436 0.0
O81 O 0.10425 0.65572 0.64206 0.0
O82 O 0.06731 0.71689 0.61733 0.0
O83 O 0.09828 0.70391 0.62755 0.0
Co84 Co 0.93472 0.60937 0.38683 0.0
O85 O 0.9282 0.60224 0.41992 0.0
O86 O 0.97096 0.62676 0.40337 0.0
C87 C 0.90113 0.62215 0.38157 0.0
O88 O 0.94936 0.62203 0.35329 0.0
Co89 Co 0.88563 0.57315 0.35132 0.0
O90 O 0.91069 0.60444 0.3296 0.0
C91 C 0.91517 0.5473 0.37635 0.0
C92 C 0.95578 0.61687 0.42243 0.0
C93 C 0.93733 0.62083 0.33342 0.0
O94 O 0.93514 0.57221 0.38301 0.0
O95 O 0.89261 0.54323 0.36553 0.0
O96 O 0.92633 0.64086 0.38935 0.0
O97 O 0.89665 0.59648 0.37923 0.0
Co98 Co 0.32449 0.93626 0.88499 0.0
O99 O 0.32817 0.92985 0.91761 0.0
O100 O 0.34321 0.97247 0.90162 0.0
C101 C 0.27835 0.90112 0.88215 0.0
O102 O 0.32326 0.95068 0.85194 0.0
Co103 Co 0.31007 0.88822 0.84813 0.0
O104 O 0.29869 0.91169 0.8292 0.0
C105 C 0.36941 0.923 0.86617 0.0
C106 C 0.34001 0.95731 0.92037 0.0
C107 C 0.30979 0.93846 0.83286 0.0
O108 O 0.3626 0.93901 0.8781 0.0
O109 O 0.35133 0.90117 0.85435 0.0
O110 O 0.28448 0.92609 0.8902 0.0
O111 O 0.29997 0.8978 0.87783 0.0
Co112 Co 0.38695 0.32393 0.38383 0.0
O113 O 0.39739 0.32731 0.4164 0.0
O114 O 0.36933 0.34213 0.40109 0.0
C115 C 0.3763 0.27794 0.38025 0.0
O116 O 0.37082 0.32278 0.35093 0.0
Co117 Co 0.42104 0.31079 0.34644 0.0
O118 O 0.38599 0.29921 0.32772 0.0
C119 C 0.44496 0.36973 0.36509 0.0
C120 C 0.38161 0.33889 0.41962 0.0
C121 C 0.36979 0.30963 0.3317 0.0
O122 O 0.42202 0.36241 0.37706 0.0
O123 O 0.44902 0.35202 0.35302 0.0
O124 O 0.35744 0.28373 0.38882 0.0
O125 O 0.40116 0.29978 0.37605 0.0
Co126 Co 0.05857 0.38477 0.88532 0.0
O127 O 0.06569 0.39438 0.91799 0.0
O128 O 0.02271 0.36707 0.90254 0.0
C129 C 0.09357 0.37372 0.88123 0.0
O130 O 0.04364 0.36974 0.8522 0.0
Co131 Co 0.10629 0.41962 0.84842 0.0
O132 O 0.08238 0.3855 0.82886 0.0
C133 C 0.07123 0.44325 0.86755 0.0
C134 C 0.0383 0.37883 0.92115 0.0
C135 C 0.05571 0.36942 0.83273 0.0
O136 O 0.0556 0.42019 0.87933 0.0
O137 O 0.09299 0.44748 0.85538 0.0
O138 O 0.06878 0.35481 0.88954 0.0
O139 O 0.0969 0.3988 0.87758 0.0
Co140 Co 0.67618 0.06038 0.38458 0.0
O141 O 0.67594 0.06716 0.41764 0.0
O142 O 0.65644 0.02423 0.4012 0.0
C143 C 0.72283 0.0929 0.37905 0.0
O144 O 0.67358 0.04554 0.35104 0.0
Co145 Co 0.69001 0.10992 0.34926 0.0
O146 O 0.6949 0.08418 0.32731 0.0
C147 C 0.63484 0.08155 0.37455 0.0
C148 C 0.66215 0.03959 0.42021 0.0
C149 C 0.68423 0.05747 0.3311 0.0
O150 O 0.63916 0.06109 0.38089 0.0
O151 O 0.65367 0.10404 0.36387 0.0
O152 O 0.71567 0.06758 0.38695 0.0
O153 O 0.70215 0.09819 0.37687 0.0
Co154 Co 0.61276 0.67442 0.88569 0.0
O155 O 0.60541 0.67443 0.91862 0.0
O156 O 0.62954 0.65531 0.90288 0.0
C157 C 0.62618 0.72087 0.87999 0.0
O158 O 0.62525 0.67183 0.85218 0.0
Co159 Co 0.5766 0.68737 0.85013 0.0
O160 O 0.60781 0.6931 0.82852 0.0
C161 C 0.55049 0.6323 0.87558 0.0
C162 C 0.61953 0.66108 0.92166 0.0
C163 C 0.62402 0.68262 0.83228 0.0
O164 O 0.57538 0.63707 0.88206 0.0
O165 O 0.54649 0.6508 0.86471 0.0
O166 O 0.64463 0.71414 0.88797 0.0
O167 O 0.60039 0.69987 0.87774 0.0
Co168 Co 0.61156 0.93617 0.88412 0.0
O169 O 0.60151 0.92936 0.91675 0.0
O170 O 0.62867 0.97221 0.901 0.0
C171 C 0.62316 0.90149 0.88071 0.0
O172 O 0.62705 0.95097 0.85109 0.0
Co173 Co 0.57804 0.88828 0.84706 0.0
O174 O 0.61283 0.91215 0.82818 0.0
C175 C 0.55337 0.92289 0.86513 0.0
C176 C 0.6168 0.95682 0.91968 0.0
C177 C 0.62833 0.93892 0.83192 0.0
O178 O 0.57599 0.93862 0.8774 0.0
O179 O 0.54977 0.90131 0.85304 0.0
O180 O 0.64174 0.92639 0.88906 0.0
O181 O 0.59805 0.89785 0.87662 0.0
Co182 Co 0.67297 0.6127 0.38416 0.0
O183 O 0.66893 0.60215 0.41673 0.0
O184 O 0.65441 0.63025 0.40098 0.0
C185 C 0.71905 0.62339 0.38139 0.0
O186 O 0.67475 0.62901 0.35124 0.0
Co187 Co 0.68717 0.57921 0.34701 0.0
O188 O 0.69912 0.61442 0.32842 0.0
C189 C 0.62772 0.55499 0.36462 0.0
C190 C 0.65733 0.61797 0.41964 0.0
C191 C 0.6884 0.63039 0.33224 0.0
O192 O 0.6347 0.57761 0.37692 0.0
O193 O 0.6457 0.55123 0.35267 0.0
O194 O 0.71305 0.64222 0.38968 0.0
O195 O 0.69733 0.59857 0.37687 0.0
Co196 Co 0.05888 0.67234 0.88633 0.0
O197 O 0.06543 0.66865 0.91893 0.0
O198 O 0.02284 0.65454 0.90325 0.0
C199 C 0.09483 0.71807 0.88307 0.0
O200 O 0.04439 0.6738 0.85333 0.0
Co201 Co 0.10623 0.6851 0.84916 0.0
O202 O 0.08335 0.69733 0.83038 0.0
C203 C 0.0699 0.62601 0.86716 0.0
C204 C 0.03807 0.65743 0.92189 0.0
C205 C 0.0567 0.68696 0.83417 0.0
O206 O 0.05485 0.63365 0.87953 0.0
O207 O 0.09168 0.64347 0.85498 0.0
O208 O 0.0702 0.71269 0.89138 0.0
O209 O 0.09741 0.69598 0.87884 0.0
Co210 Co 0.38794 0.06123 0.38476 0.0
O211 O 0.39528 0.06793 0.41779 0.0
O212 O 0.37069 0.02506 0.40141 0.0
C213 C 0.37505 0.09474 0.37958 0.0
O214 O 0.37508 0.04644 0.35128 0.0
Co215 Co 0.42385 0.11021 0.3491 0.0
O216 O 0.39243 0.08504 0.32753 0.0
C217 C 0.44997 0.08087 0.37406 0.0
C218 C 0.38068 0.04038 0.42041 0.0
C219 C 0.37612 0.0584 0.33142 0.0
O220 O 0.42512 0.06087 0.38081 0.0
O221 O 0.45391 0.10336 0.36321 0.0
O222 O 0.35642 0.06953 0.38738 0.0
O223 O 0.40072 0.09926 0.37711 0.0
Co224 Co 0.32255 0.38731 0.88558 0.0
O225 O 0.32233 0.39391 0.91863 0.0
O226 O 0.34119 0.36979 0.90244 0.0
C227 C 0.27628 0.37451 0.8797 0.0
O228 O 0.32526 0.37551 0.85182 0.0
Co229 Co 0.31051 0.42482 0.85075 0.0
O230 O 0.30434 0.39382 0.8287 0.0
C231 C 0.36514 0.4497 0.8767 0.0
C232 C 0.33541 0.37949 0.92141 0.0
C233 C 0.31453 0.37727 0.83205 0.0
O234 O 0.36016 0.42453 0.88249 0.0
O235 O 0.34686 0.45426 0.86608 0.0
O236 O 0.28265 0.35568 0.88738 0.0
O237 O 0.29749 0.40024 0.87789 0.0
Co238 Co 0.93619 0.32139 0.38652 0.0
O239 O 0.92964 0.32175 0.41958 0.0
O240 O 0.97248 0.34136 0.40303 0.0
C241 C 0.90375 0.27464 0.38125 0.0
O242 O 0.9506 0.32383 0.35279 0.0
Co243 Co 0.88609 0.3071 0.35168 0.0
O244 O 0.91142 0.30153 0.32975 0.0
C245 C 0.91472 0.36254 0.37658 0.0
C246 C 0.95721 0.33568 0.42209 0.0
C247 C 0.93825 0.31254 0.33311 0.0
O248 O 0.93527 0.3583 0.38282 0.0
O249 O 0.89214 0.34362 0.36605 0.0
O250 O 0.92921 0.28197 0.38892 0.0
O251 O 0.89834 0.29524 0.37913 0.0
Co252 Co 0.06476 0.39118 0.61891 0.0
O253 O 0.07149 0.39866 0.58589 0.0
O254 O 0.02859 0.37448 0.60224 0.0
C255 C 0.09775 0.37755 0.62387 0.0
O256 O 0.04997 0.37834 0.65243 0.0
Co257 Co 0.11401 0.42632 0.65458 0.0
O258 O 0.08874 0.39454 0.67584 0.0
C259 C 0.08517 0.4533 0.63009 0.0
C260 C 0.04394 0.38439 0.58325 0.0
C261 C 0.06198 0.37875 0.67213 0.0
O262 O 0.06502 0.42864 0.6231 0.0
O263 O 0.10753 0.45684 0.64091 0.0
O264 O 0.07244 0.35925 0.61605 0.0
O265 O 0.10268 0.40335 0.62648 0.0
Co266 Co 0.67078 0.05829 0.11845 0.0
O267 O 0.66692 0.06472 0.08585 0.0
O268 O 0.6527 0.02217 0.10165 0.0
C269 C 0.71662 0.09407 0.1215 0.0
O270 O 0.67233 0.04388 0.15145 0.0
Co271 Co 0.68417 0.10588 0.15557 0.0
O272 O 0.69636 0.08289 0.17426 0.0
C273 C 0.62488 0.06978 0.13787 0.0
C274 C 0.65557 0.03733 0.08297 0.0
C275 C 0.68572 0.05619 0.17053 0.0
O276 O 0.63226 0.05456 0.12543 0.0
O277 O 0.64255 0.09155 0.14996 0.0
O278 O 0.71103 0.06934 0.11323 0.0
O279 O 0.69466 0.09682 0.12582 0.0
Co280 Co 0.61263 0.67454 0.61863 0.0
O281 O 0.60301 0.6716 0.58591 0.0
O282 O 0.63022 0.65605 0.60175 0.0
C283 C 0.62373 0.72069 0.62224 0.0
O284 O 0.62775 0.67499 0.65179 0.0
Co285 Co 0.57823 0.68808 0.65544 0.0
O286 O 0.61238 0.6984 0.675 0.0
C287 C 0.55404 0.6292 0.63652 0.0
C288 C 0.61848 0.65962 0.58302 0.0
C289 C 0.6283 0.68762 0.67119 0.0
O290 O 0.57713 0.63629 0.62487 0.0
O291 O 0.55002 0.647 0.64849 0.0
O292 O 0.64262 0.71469 0.61409 0.0
O293 O 0.59869 0.69899 0.62609 0.0
Co294 Co 0.93655 0.60989 0.12069 0.0
O295 O 0.93017 0.59982 0.08805 0.0
O296 O 0.97271 0.62798 0.10394 0.0
C297 C 0.90083 0.62002 0.12375 0.0
O298 O 0.95088 0.62559 0.15378 0.0
Co299 Co 0.88882 0.57553 0.15765 0.0
O300 O 0.91179 0.61059 0.17648 0.0
C301 C 0.92481 0.55229 0.13979 0.0
C302 C 0.95757 0.61585 0.08521 0.0
C303 C 0.93852 0.62659 0.17285 0.0
O304 O 0.94014 0.57498 0.12748 0.0
O305 O 0.90301 0.54816 0.15185 0.0
O306 O 0.92561 0.63919 0.11561 0.0
O307 O 0.89801 0.59526 0.12798 0.0
Co308 Co 0.32111 0.93774 0.61884 0.0
O309 O 0.32124 0.93087 0.58581 0.0
O310 O 0.34092 0.97385 0.60216 0.0
C311 C 0.27443 0.90539 0.62449 0.0
O312 O 0.32382 0.95263 0.65239 0.0
Co313 Co 0.30722 0.88812 0.65411 0.0
O314 O 0.30264 0.91399 0.67613 0.0
C315 C 0.36236 0.9164 0.6288 0.0
C316 C 0.33511 0.95844 0.58318 0.0
C317 C 0.31329 0.9407 0.67234 0.0
O318 O 0.35808 0.93691 0.62249 0.0
O319 O 0.34351 0.89391 0.63947 0.0
O320 O 0.28167 0.93072 0.61654 0.0
O321 O 0.29504 0.89999 0.62661 0.0
Co322 Co 0.38516 0.32494 0.11944 0.0
O323 O 0.39567 0.32876 0.08687 0.0
O324 O 0.36708 0.34281 0.10238 0.0
C325 C 0.37519 0.27914 0.12258 0.0
O326 O 0.36888 0.32327 0.15236 0.0
Co327 Co 0.41945 0.31188 0.15669 0.0
O328 O 0.38439 0.29991 0.17547 0.0
C329 C 0.44278 0.37097 0.1385 0.0
C330 C 0.37949 0.3399 0.08379 0.0
C331 C 0.368 0.31012 0.17154 0.0
O332 O 0.4199 0.36356 0.12643 0.0
O333 O 0.44702 0.3533 0.15045 0.0
O334 O 0.35607 0.28467 0.11419 0.0
O335 O 0.39987 0.30115 0.12695 0.0
H336 H 0.33198 0.06001 0.31064 0.0
H337 H 0.37148 0.01376 0.19135 0.0
H338 H 0.38373 0.02003 0.30576 0.0
H339 H 0.33158 0.06545 0.19819 0.0
H340 H 0.36049 -0.00022 0.23276 0.0
H341 H 0.31581 0.04539 0.27029 0.0
C342 C 0.33904 0.04714 0.30127 0.0
C343 C 0.35914 0.04116 0.31135 0.0
C344 C 0.35321 0.01334 0.22498 0.0
C345 C 0.34198 0.0256 0.26487 0.0
C346 C 0.35918 0.02105 0.20128 0.0
C347 C 0.35256 0.04092 0.19154 0.0
C348 C 0.34055 0.02566 0.23879 0.0
C349 C 0.33714 0.05019 0.20519 0.0
C350 C 0.33004 0.039 0.27818 0.0
C351 C 0.36805 0.02485 0.2985 0.0
N352 N 0.33208 0.04287 0.22822 0.0
N353 N 0.35995 0.0182 0.27565 0.0
H354 H 0.35883 0.37434 0.69088 0.0
H355 H 0.36054 0.37739 0.81135 0.0
H356 H 0.26719 0.33367 0.69733 0.0
H357 H 0.2694 0.34187 0.80516 0.0
H358 H 0.36201 0.36325 0.77077 0.0
H359 H 0.36195 0.3643 0.73222 0.0
C360 C 0.33925 0.36207 0.70081 0.0
C361 C 0.31274 0.355 0.69085 0.0
C362 C 0.34152 0.35791 0.77823 0.0
C363 C 0.31593 0.34414 0.7385 0.0
C364 C 0.34071 0.36566 0.80163 0.0
C365 C 0.31486 0.36101 0.81139 0.0
C366 C 0.31624 0.34563 0.76465 0.0
C367 C 0.2898 0.34604 0.79812 0.0
C368 C 0.34099 0.35662 0.72466 0.0
C369 C 0.28806 0.3396 0.70448 0.0
N370 N 0.29118 0.33929 0.7754 0.0
N371 N 0.2903 0.33516 0.72764 0.0
H372 H 0.93526 0.26395 0.19628 0.0
H373 H 0.97968 0.35942 0.30993 0.0
H374 H 0.97956 0.3561 0.19485 0.0
H375 H 0.93304 0.26723 0.30882 0.0
H376 H 0.99392 0.3595 0.26891 0.0
H377 H 0.94919 0.26557 0.23728 0.0
C378 C 0.94897 0.28457 0.20442 0.0
C379 C 0.95629 0.30991 0.19231 0.0
C380 C 0.98141 0.33923 0.27787 0.0
C381 C 0.97094 0.31207 0.23961 0.0
C382 C 0.97353 0.33922 0.30134 0.0
C383 C 0.95513 0.31326 0.31257 0.0
C384 C 0.97058 0.31308 0.26573 0.0
C385 C 0.94722 0.28766 0.30064 0.0
C386 C 0.95668 0.28555 0.22792 0.0
C387 C 0.97368 0.3361 0.20365 0.0
N388 N 0.9546 0.28821 0.27778 0.0
N389 N 0.97977 0.33653 0.22692 0.0
H390 H 0.66465 0.93678 0.69257 0.0
H391 H 0.62465 0.98274 0.81157 0.0
H392 H 0.61325 0.97716 0.69721 0.0
H393 H 0.66608 0.93245 0.80499 0.0
H394 H 0.63567 0.99684 0.7702 0.0
H395 H 0.68089 0.95155 0.73287 0.0
C396 C 0.65768 0.94976 0.70188 0.0
C397 C 0.63766 0.95581 0.69174 0.0
C398 C 0.64328 0.98357 0.77803 0.0
C399 C 0.65488 0.97155 0.73819 0.0
C400 C 0.63729 0.97581 0.80171 0.0
C401 C 0.64432 0.95627 0.8115 0.0
C402 C 0.65634 0.97161 0.76427 0.0
C403 C 0.66019 0.94745 0.79795 0.0
C404 C 0.66673 0.95799 0.72495 0.0
C405 C 0.62886 0.97227 0.70451 0.0
N406 N 0.66523 0.95477 0.77492 0.0
N407 N 0.63699 0.979 0.72735 0.0
H408 H 0.73481 0.67125 0.30926 0.0
H409 H 0.64254 0.62893 0.19387 0.0
H410 H 0.64264 0.62664 0.30868 0.0
H411 H 0.73431 0.66774 0.19693 0.0
H412 H 0.64248 0.6429 0.23492 0.0
H413 H 0.73517 0.68574 0.26859 0.0
C414 C 0.71464 0.66549 0.30076 0.0
C415 C 0.68867 0.64772 0.31218 0.0
C416 C 0.66273 0.64929 0.22637 0.0
C417 C 0.68876 0.66279 0.26524 0.0
C418 C 0.66278 0.6416 0.20286 0.0
C419 C 0.68847 0.64708 0.19219 0.0
C420 C 0.68858 0.66244 0.2391 0.0
C421 C 0.71406 0.66304 0.20466 0.0
C422 C 0.71479 0.6735 0.27746 0.0
C423 C 0.6631 0.6405 0.30041 0.0
N424 N 0.71343 0.66972 0.22755 0.0
N425 N 0.66373 0.64739 0.27731 0.0
H426 H 0.06005 0.73194 0.69622 0.0
H427 H 0.013 0.64055 0.81256 0.0
H428 H 0.01887 0.63994 0.69777 0.0
H429 H 0.06389 0.73247 0.80873 0.0
H430 H -0.00069 0.63944 0.77127 0.0
H431 H 0.04529 0.73163 0.73683 0.0
C432 C 0.04692 0.71159 0.70493 0.0
C433 C 0.04065 0.68595 0.69381 0.0
C434 C 0.01261 0.65993 0.7797 0.0
C435 C 0.02493 0.68539 0.74061 0.0
C436 C 0.02014 0.66057 0.80333 0.0
C437 C 0.03968 0.68665 0.81388 0.0
C438 C 0.02481 0.68557 0.76673 0.0
C439 C 0.04883 0.71195 0.80111 0.0
C440 C 0.03869 0.71138 0.72817 0.0
C441 C 0.02394 0.66013 0.70583 0.0
N442 N 0.04171 0.71076 0.77811 0.0
N443 N 0.01724 0.66051 0.72885 0.0
H444 H 0.98253 0.62377 0.19376 0.0
H445 H 0.93502 0.66419 0.31188 0.0
H446 H 0.93106 0.66404 0.19935 0.0
H447 H 0.97629 0.61355 0.30831 0.0
H448 H 0.94978 0.67992 0.27148 0.0
H449 H 0.99621 0.63525 0.23518 0.0
C450 C 0.97525 0.63626 0.20342 0.0
C451 C 0.95552 0.64285 0.19332 0.0
C452 C 0.95641 0.66604 0.27966 0.0
C453 C 0.9704 0.65539 0.2406 0.0
C454 C 0.94818 0.65728 0.30278 0.0
C455 C 0.9545 0.63762 0.31326 0.0
C456 C 0.97023 0.65426 0.2667 0.0
C457 C 0.9712 0.6289 0.30075 0.0
C458 C 0.98277 0.64252 0.22712 0.0
C459 C 0.94623 0.65851 0.20662 0.0
N460 N 0.97793 0.63673 0.27786 0.0
N461 N 0.95335 0.66382 0.22967 0.0
H462 H 0.35669 0.98281 0.81227 0.0
H463 H 0.26844 0.93984 0.6941 0.0
H464 H 0.26497 0.93131 0.8064 0.0
H465 H 0.36012 0.9783 0.69757 0.0
H466 H 0.268 0.95379 0.73486 0.0
H467 H 0.35893 0.99769 0.77118 0.0
C468 C 0.33694 0.97573 0.80264 0.0
C469 C 0.31061 0.95568 0.81253 0.0
C470 C 0.28837 0.96003 0.72658 0.0
C471 C 0.31299 0.97201 0.76565 0.0
C472 C 0.28861 0.95229 0.70325 0.0
C473 C 0.31434 0.95799 0.69264 0.0
C474 C 0.31398 0.97274 0.73957 0.0
C475 C 0.33989 0.97373 0.70523 0.0
C476 C 0.33823 0.98396 0.77913 0.0
C477 C 0.28568 0.9467 0.79928 0.0
N478 N 0.33903 0.97997 0.72829 0.0
N479 N 0.28751 0.95455 0.77642 0.0
H480 H 0.37084 0.35541 0.31021 0.0
H481 H 0.32699 0.26371 0.19441 0.0
H482 H 0.33154 0.26361 0.30674 0.0
H483 H 0.37214 0.35588 0.19533 0.0
H484 H 0.31295 0.26324 0.23524 0.0
H485 H 0.35665 0.3558 0.26927 0.0
C486 C 0.35804 0.33525 0.30115 0.0
C487 C 0.35244 0.30945 0.31167 0.0
C488 C 0.3252 0.28365 0.22641 0.0
C489 C 0.33682 0.30969 0.26489 0.0
C490 C 0.33293 0.28386 0.20301 0.0
C491 C 0.35073 0.30985 0.19163 0.0
C492 C 0.33621 0.30964 0.23875 0.0
C493 C 0.35824 0.33541 0.20356 0.0
C494 C 0.35021 0.33547 0.27771 0.0
C495 C 0.33632 0.28394 0.29913 0.0
N496 N 0.35161 0.3347 0.22673 0.0
N497 N 0.32951 0.28474 0.2763 0.0
H498 H 0.01883 0.38226 0.69425 0.0
H499 H 0.0586 0.3277 0.80867 0.0
H500 H 0.06778 0.33912 0.69665 0.0
H501 H 0.01634 0.3775 0.80931 0.0
H502 H 0.04608 0.31657 0.7673 0.0
H503 H 0.00287 0.36665 0.73478 0.0
C504 C 0.02519 0.36847 0.703 0.0
C505 C 0.0447 0.36202 0.69232 0.0
C506 C 0.03869 0.32921 0.77656 0.0
C507 C 0.02717 0.34465 0.73854 0.0
C508 C 0.04556 0.33524 0.80027 0.0
C509 C 0.03847 0.3535 0.81228 0.0
C510 C 0.02551 0.34238 0.7646 0.0
C511 C 0.022 0.36317 0.80059 0.0
C512 C 0.01631 0.35977 0.72617 0.0
C513 C 0.05279 0.34458 0.70442 0.0
N514 N 0.01674 0.35816 0.77717 0.0
N515 N 0.04434 0.33686 0.72698 0.0
H516 H 0.72918 0.05904 0.30889 0.0
H517 H 0.63909 0.0124 0.19182 0.0
H518 H 0.63729 0.0189 0.30645 0.0
H519 H 0.73095 0.06335 0.19638 0.0
H520 H 0.6375 0.99864 0.23314 0.0
H521 H 0.72921 0.04418 0.26836 0.0
C522 C 0.70891 0.04609 0.30001 0.0
C523 C 0.68321 0.04013 0.31085 0.0
C524 C 0.65808 0.01198 0.22487 0.0
C525 C 0.68306 0.0243 0.26415 0.0
C526 C 0.659 0.01954 0.20122 0.0
C527 C 0.68519 0.03914 0.19087 0.0
C528 C 0.68357 0.02417 0.23805 0.0
C529 C 0.71035 0.04827 0.20385 0.0
C530 C 0.7089 0.03781 0.27681 0.0
C531 C 0.65751 0.0237 0.29861 0.0
N532 N 0.70889 0.04111 0.22686 0.0
N533 N 0.6581 0.01692 0.27565 0.0
H534 H 0.66898 0.7323 0.69595 0.0
H535 H 0.61794 0.63574 0.80876 0.0
H536 H 0.62174 0.64016 0.69374 0.0
H537 H 0.66506 0.72793 0.80862 0.0
H538 H 0.63192 0.63596 0.76765 0.0
H539 H 0.68135 0.7303 0.73687 0.0
C540 C 0.66219 0.71162 0.7039 0.0
C541 C 0.64436 0.68638 0.69159 0.0
C542 C 0.64007 0.65614 0.77684 0.0
C543 C 0.65694 0.68376 0.73881 0.0
C544 C 0.63232 0.65597 0.80036 0.0
C545 C 0.64039 0.68187 0.81191 0.0
C546 C 0.65573 0.68241 0.76494 0.0
C547 C 0.65846 0.70753 0.80021 0.0
C548 C 0.66898 0.71041 0.72736 0.0
C549 C 0.63572 0.66009 0.7027 0.0
N550 N 0.66513 0.70718 0.77727 0.0
N551 N 0.64142 0.65943 0.72593 0.0
H552 H 0.32942 0.10161 0.1056 0.0
H553 H 0.4063 0.26374 0.15002 0.0
H554 H 0.40632 0.14311 0.14751 0.0
H555 H 0.33187 0.2281 0.10514 0.0
H556 H 0.40116 0.21666 0.15396 0.0
H557 H 0.32478 0.14461 0.10949 0.0
C558 C 0.34504 0.11956 0.11588 0.0
C559 C 0.36849 0.119 0.126 0.0
C560 C 0.38574 0.21891 0.14335 0.0
C561 C 0.36335 0.16785 0.13055 0.0
C562 C 0.38868 0.24589 0.1411 0.0
C563 C 0.3697 0.24989 0.12698 0.0
C564 C 0.3639 0.19562 0.13108 0.0
C565 C 0.34706 0.22587 0.11608 0.0
C566 C 0.34243 0.14405 0.11805 0.0
C567 C 0.38811 0.14271 0.13916 0.0
N568 N 0.345 0.19971 0.11807 0.0
N569 N 0.38517 0.16614 0.14091 0.0
H570 H 0.14215 0.4047 0.65402 0.0
H571 H 0.2281 0.33079 0.60473 0.0
H572 H 0.10464 0.33437 0.60497 0.0
H573 H 0.26312 0.40635 0.64827 0.0
H574 H 0.1802 0.3253 0.60965 0.0
H575 H 0.18345 0.39844 0.65785 0.0
C576 C 0.1425 0.38768 0.64421 0.0
C577 C 0.12018 0.37031 0.62889 0.0
C578 C 0.19839 0.34281 0.61835 0.0
C579 C 0.16795 0.36335 0.63273 0.0
C580 C 0.22565 0.34592 0.61559 0.0
C581 C 0.24962 0.36927 0.62587 0.0
C582 C 0.19531 0.36309 0.63164 0.0
C583 C 0.24535 0.38824 0.63977 0.0
C584 C 0.16617 0.38411 0.64636 0.0
C585 C 0.12157 0.34831 0.61688 0.0
N586 N 0.21883 0.38481 0.64211 0.0
N587 N 0.14541 0.34574 0.61871 0.0
H588 H 0.89433 0.22576 0.10604 0.0
H589 H 0.73184 0.14035 0.14916 0.0
H590 H 0.85308 0.26038 0.14917 0.0
H591 H 0.76783 0.10177 0.10444 0.0
H592 H 0.77894 0.18203 0.15375 0.0
H593 H 0.85123 0.17812 0.10932 0.0
C594 C 0.87642 0.22325 0.11647 0.0
C595 C 0.87706 0.24705 0.12709 0.0
C596 C 0.77677 0.16446 0.14304 0.0
C597 C 0.82807 0.19305 0.13091 0.0
C598 C 0.74977 0.14057 0.14041 0.0
C599 C 0.74587 0.11772 0.12617 0.0
C600 C 0.80019 0.16592 0.131 0.0
C601 C 0.76998 0.11909 0.11548 0.0
C602 C 0.85187 0.19614 0.11828 0.0
C603 C 0.8534 0.24272 0.14042 0.0
N604 N 0.79618 0.14307 0.11783 0.0
N605 N 0.82988 0.21636 0.1418 0.0
H606 H 0.66852 0.7717 0.60608 0.0
H607 H 0.593 0.85724 0.65279 0.0
H608 H 0.59242 0.73652 0.64896 0.0
H609 H 0.66545 0.89537 0.60584 0.0
H610 H 0.59894 0.81577 0.657 0.0
H611 H 0.67368 0.8195 0.61061 0.0
C612 C 0.6532 0.7741 0.61672 0.0
C613 C 0.62979 0.75011 0.62691 0.0
C614 C 0.61379 0.83322 0.64589 0.0
C615 C 0.63557 0.80432 0.6322 0.0
C616 C 0.6104 0.85698 0.64351 0.0
C617 C 0.6285 0.87955 0.62868 0.0
C618 C 0.63514 0.83161 0.63299 0.0
C619 C 0.65095 0.87825 0.61735 0.0
C620 C 0.65612 0.80131 0.61925 0.0
C621 C 0.61058 0.75432 0.64053 0.0
N622 N 0.65337 0.85436 0.61941 0.0
N623 N 0.6138 0.78078 0.64263 0.0
H624 H 0.76934 0.66612 0.10693 0.0
H625 H 0.85423 0.58883 0.15106 0.0
H626 H 0.73368 0.58911 0.14873 0.0
H627 H 0.89325 0.6635 0.10646 0.0
H628 H 0.81231 0.59397 0.155 0.0
H629 H 0.81687 0.67056 0.11074 0.0
C630 C 0.77159 0.65041 0.11715 0.0
C631 C 0.74754 0.62701 0.12729 0.0
C632 C 0.83003 0.60945 0.14445 0.0
C633 C 0.80145 0.63194 0.13173 0.0
C634 C 0.85406 0.6065 0.1422 0.0
C635 C 0.8771 0.62555 0.12817 0.0
C636 C 0.82865 0.63136 0.13226 0.0
C637 C 0.87579 0.64826 0.11734 0.0
C638 C 0.79864 0.65292 0.11928 0.0
C639 C 0.75154 0.60729 0.14037 0.0
N640 N 0.8517 0.65033 0.11932 0.0
N641 N 0.77788 0.61013 0.14208 0.0
H642 H 0.25745 0.86271 0.65632 0.0
H643 H 0.09806 0.7743 0.60713 0.0
H644 H 0.22417 0.89815 0.60577 0.0
H645 H 0.13776 0.74225 0.65468 0.0
H646 H 0.13985 0.82273 0.61159 0.0
H647 H 0.20975 0.82205 0.66164 0.0
C648 C 0.23995 0.86205 0.6465 0.0
C649 C 0.24479 0.88356 0.63033 0.0
C650 C 0.13908 0.80511 0.62133 0.0
C651 C 0.18988 0.83647 0.63584 0.0
C652 C 0.11526 0.77756 0.61885 0.0
C653 C 0.11475 0.75425 0.63027 0.0
C654 C 0.1622 0.80911 0.63547 0.0
C655 C 0.13746 0.7595 0.64524 0.0
C656 C 0.21262 0.83876 0.64951 0.0
C657 C 0.22124 0.88182 0.61832 0.0
N658 N 0.16027 0.78625 0.64724 0.0
N659 N 0.19476 0.85829 0.62096 0.0
H660 H 0.85648 0.59354 0.35189 0.0
H661 H 0.76979 0.66809 0.39805 0.0
H662 H 0.89376 0.66557 0.39929 0.0
H663 H 0.7353 0.59206 0.3551 0.0
H664 H 0.8177 0.67345 0.39394 0.0
H665 H 0.81489 0.59921 0.34746 0.0
C666 C 0.85602 0.61079 0.36122 0.0
C667 C 0.87838 0.62885 0.37624 0.0
C668 C 0.79964 0.65584 0.3852 0.0
C669 C 0.83029 0.63518 0.37168 0.0
C670 C 0.77237 0.65281 0.3875 0.0
C671 C 0.74853 0.62939 0.37715 0.0
C672 C 0.80289 0.6354 0.37231 0.0
C673 C 0.75297 0.61023 0.36365 0.0
C674 C 0.83218 0.61403 0.35871 0.0
C675 C 0.87681 0.65111 0.38762 0.0
N676 N 0.7795 0.61358 0.36176 0.0
N677 N 0.85284 0.65338 0.38544 0.0
H678 H 0.14096 0.73298 0.8553 0.0
H679 H 0.22774 0.89534 0.89885 0.0
H680 H 0.10306 0.76941 0.90031 0.0
H681 H 0.26195 0.85318 0.85637 0.0
H682 H 0.17987 0.85257 0.89539 0.0
H683 H 0.18299 0.77988 0.85091 0.0
C684 C 0.1414 0.75097 0.86416 0.0
C685 C 0.11865 0.74724 0.87843 0.0
C686 C 0.19787 0.85294 0.88662 0.0
C687 C 0.16725 0.80132 0.87383 0.0
C688 C 0.2251 0.8773 0.88854 0.0
C689 C 0.24885 0.8776 0.87813 0.0
C690 C 0.19458 0.82899 0.87409 0.0
C691 C 0.24435 0.85378 0.86494 0.0
C692 C 0.1655 0.77786 0.86165 0.0
C693 C 0.1203 0.77142 0.88925 0.0
N694 N 0.21787 0.83047 0.86344 0.0
N695 N 0.14447 0.7975 0.88702 0.0
H696 H 0.33022 0.10053 0.39621 0.0
H697 H 0.40625 0.26231 0.35159 0.0
H698 H 0.40504 0.14116 0.35188 0.0
H699 H 0.33285 0.22691 0.39758 0.0
H700 H 0.40025 0.21499 0.34663 0.0
H701 H 0.32508 0.14323 0.39229 0.0
C702 C 0.34519 0.11817 0.38532 0.0
C703 C 0.36835 0.11758 0.37464 0.0
C704 C 0.38522 0.21733 0.3577 0.0
C705 C 0.36268 0.16613 0.37012 0.0
C706 C 0.38868 0.24446 0.36054 0.0
C707 C 0.37026 0.24859 0.37527 0.0
C708 C 0.36347 0.19403 0.37002 0.0
C709 C 0.34762 0.22458 0.38618 0.0
C710 C 0.34233 0.14252 0.38316 0.0
C711 C 0.38715 0.14089 0.36073 0.0
N712 N 0.3451 0.19827 0.38364 0.0
N713 N 0.38402 0.16422 0.35904 0.0
H714 H 0.26065 0.40409 0.85073 0.0
H715 H 0.09924 0.32828 0.89634 0.0
H716 H 0.22529 0.33035 0.89632 0.0
H717 H 0.14097 0.40553 0.85488 0.0
H718 H 0.14161 0.32279 0.8914 0.0
H719 H 0.21341 0.3985 0.8463 0.0
C720 C 0.2428 0.38647 0.85964 0.0
C721 C 0.24692 0.36791 0.87419 0.0
C722 C 0.14122 0.34069 0.88315 0.0
C723 C 0.19254 0.36166 0.86964 0.0
C724 C 0.11709 0.3438 0.88593 0.0
C725 C 0.11682 0.36761 0.87628 0.0
C726 C 0.16495 0.36146 0.8705 0.0
C727 C 0.14039 0.38706 0.8629 0.0
C728 C 0.21574 0.38328 0.85713 0.0
C729 C 0.22294 0.34521 0.88504 0.0
N730 N 0.16349 0.38364 0.86057 0.0
N731 N 0.19672 0.34298 0.88289 0.0
H732 H 0.73988 0.13598 0.34759 0.0
H733 H 0.89891 0.22438 0.39779 0.0
H734 H 0.77302 0.10025 0.398 0.0
H735 H 0.8584 0.25744 0.35213 0.0
H736 H 0.8574 0.17593 0.39254 0.0
H737 H 0.78747 0.17706 0.34292 0.0
C738 C 0.75733 0.13666 0.35751 0.0
C739 C 0.75247 0.11495 0.37347 0.0
C740 C 0.85792 0.1938 0.3834 0.0
C741 C 0.80721 0.1625 0.3687 0.0
C742 C 0.88158 0.22135 0.38632 0.0
C743 C 0.8818 0.24493 0.37565 0.0
C744 C 0.83469 0.19004 0.36955 0.0
C745 C 0.85893 0.23996 0.36099 0.0
C746 C 0.78459 0.1602 0.35487 0.0
C747 C 0.77596 0.11673 0.38561 0.0
N748 N 0.8363 0.21318 0.35853 0.0
N749 N 0.80235 0.14048 0.38334 0.0
H750 H 0.67053 0.77138 0.89723 0.0
H751 H 0.59437 0.85631 0.85147 0.0
H752 H 0.59721 0.73742 0.85124 0.0
H753 H 0.66687 0.89455 0.89839 0.0
H754 H 0.60124 0.81559 0.8463 0.0
H755 H 0.67559 0.81918 0.89323 0.0
C756 C 0.65591 0.77411 0.88594 0.0
C757 C 0.63314 0.75042 0.87484 0.0
C758 C 0.6159 0.83289 0.85761 0.0
C759 C 0.6387 0.80456 0.87023 0.0
C760 C 0.61194 0.85623 0.86058 0.0
C761 C 0.62984 0.87866 0.87563 0.0
C762 C 0.63759 0.83151 0.87017 0.0
C763 C 0.65249 0.87753 0.88673 0.0
C764 C 0.65872 0.80129 0.88373 0.0
C765 C 0.61477 0.75499 0.86042 0.0
N766 N 0.65547 0.85402 0.8841 0.0
N767 N 0.61782 0.7814 0.8587 0.0
H768 H 0.36666 0.01418 0.93272 0.0
H769 H 0.34912 0.98179 0.07093 0.0
H770 H 0.33115 0.9293 0.96205 0.0
H771 H 0.39806 0.06673 0.04165 0.0
H772 H 0.34101 0.96196 0.03109 0.0
H773 H 0.37728 0.03397 0.97259 0.0
C774 C 0.36124 -0.00026 0.94752 0.0
C775 C 0.34801 0.97008 0.94407 0.0
C776 C 0.35363 0.98494 0.03343 0.0
C777 C 0.35983 0.99245 0.98965 0.0
C778 C 0.35823 0.99623 0.05616 0.0
C779 C 0.37427 0.02592 0.05961 0.0
C780 C 0.36498 0.00352 0.01407 0.0
C781 C 0.38557 0.04369 0.03982 0.0
C782 C 0.36729 0.01102 0.97026 0.0
C783 C 0.3414 0.95233 0.96388 0.0
N784 N 0.38061 0.03223 0.01793 0.0
N785 N 0.34724 0.96377 0.9858 0.0
H786 H 0.40129 0.32967 0.46092 0.0
H787 H 0.33123 0.4004 0.54072 0.0
H788 H 0.35177 0.36566 0.43288 0.0
H789 H 0.36701 0.35083 0.56907 0.0
H790 H 0.34228 0.39143 0.50122 0.0
H791 H 0.39257 0.3408 0.50053 0.0
C792 C 0.38867 0.34006 0.46307 0.0
C793 C 0.37721 0.34674 0.44352 0.0
C794 C 0.34777 0.38254 0.51604 0.0
C795 C 0.36714 0.35953 0.48897 0.0
C796 C 0.34155 0.3877 0.53866 0.0
C797 C 0.34818 0.3763 0.55828 0.0
C798 C 0.36089 0.36594 0.5129 0.0
C799 C 0.36151 0.36 0.55446 0.0
C800 C 0.38364 0.34632 0.48574 0.0
C801 C 0.36099 0.36012 0.44744 0.0
N802 N 0.36743 0.3553 0.53219 0.0
N803 N 0.35645 0.36609 0.46973 0.0
H804 H 0.06743 0.39773 0.96237 0.0
H805 H 0.92729 0.32885 0.04284 0.0
H806 H 0.98167 0.34939 0.93454 0.0
H807 H 0.01285 0.36375 0.07055 0.0
H808 H 0.94691 0.33978 0.00319 0.0
H809 H 0.04783 0.38898 1.00202 0.0
C810 C 0.04441 0.38535 0.96458 0.0
C811 C 0.02613 0.37424 0.94508 0.0
C812 C 0.96143 0.3451 0.01791 0.0
C813 C 0.00355 0.36414 0.99059 0.0
C814 C 0.95027 0.33896 0.04061 0.0
C815 C 0.96849 0.34538 0.06008 0.0
C816 C 0.99108 0.35792 0.01457 0.0
C817 C 0.99804 0.35842 0.05606 0.0
C818 C 0.03326 0.3803 0.98728 0.0
C819 C 0.99653 0.35833 0.94907 0.0
N820 N 0.00843 0.36427 0.03373 0.0
N821 N 0.98614 0.35375 0.9714 0.0
H822 H 0.63217 0.9826 0.43218 0.0
H823 H 0.64647 0.01381 0.57077 0.0
H824 H 0.67362 0.0675 0.46218 0.0
H825 H 0.59903 0.92914 0.54071 0.0
H826 H 0.65679 0.034 0.53105 0.0
H827 H 0.61995 0.96247 0.47187 0.0
C828 C 0.63864 0.99698 0.44709 0.0
C829 C 0.65394 0.02674 0.44387 0.0
C830 C 0.64403 0.01101 0.53317 0.0
C831 C 0.64015 0.00396 0.48928 0.0
C832 C 0.63814 -0.0005 0.55583 0.0
C833 C 0.6219 0.96978 0.55905 0.0
C834 C 0.63369 0.99263 0.51361 0.0
C835 C 0.61165 0.9522 0.53907 0.0
C836 C 0.63166 0.98551 0.46974 0.0
C837 C 0.66179 0.04441 0.46382 0.0
N838 N 0.61779 0.96388 0.51723 0.0
N839 N 0.65488 0.03276 0.48564 0.0
H840 H 0.66435 0.59547 0.0435 0.0
H841 H 0.60353 0.67436 0.96296 0.0
H842 H 0.63374 0.64986 0.07108 0.0
H843 H 0.64581 0.63071 0.93503 0.0
H844 H 0.61139 0.66273 0.00258 0.0
H845 H 0.65446 0.60514 0.00381 0.0
C846 C 0.65538 0.60935 0.04123 0.0
C847 C 0.64988 0.62192 0.06067 0.0
C848 C 0.61895 0.65566 0.98783 0.0
C849 C 0.63858 0.63313 0.01512 0.0
C850 C 0.61444 0.66224 0.96514 0.0
C851 C 0.62406 0.6535 0.94561 0.0
C852 C 0.63311 0.64008 0.99113 0.0
C853 C 0.63808 0.63789 0.94958 0.0
C854 C 0.64984 0.61492 0.01851 0.0
C855 C 0.6383 0.63973 0.05661 0.0
N856 N 0.64217 0.63165 0.97192 0.0
N857 N 0.63305 0.64483 0.03426 0.0
H858 H 0.98229 0.63297 0.57296 0.0
H859 H 0.0128 0.64666 0.43426 0.0
H860 H 0.06699 0.67365 0.54265 0.0
H861 H 0.9282 0.60001 0.46453 0.0
H862 H 0.03315 0.65685 0.47391 0.0
H863 H 0.96191 0.62069 0.53333 0.0
C864 C 0.99657 0.63923 0.558 0.0
C865 C 0.02635 0.65436 0.56111 0.0
C866 C 0.01013 0.64429 0.47186 0.0
C867 C 0.00329 0.64052 0.51578 0.0
C868 C -0.00147 0.63848 0.44923 0.0
C869 C 0.96879 0.6225 0.44609 0.0
C870 C 0.99183 0.63413 0.49147 0.0
C871 C 0.95128 0.61243 0.46612 0.0
C872 C 0.98497 0.63223 0.53538 0.0
C873 C 0.04389 0.66197 0.54109 0.0
N874 N 0.96305 0.61849 0.48793 0.0
N875 N 0.03211 0.65505 0.51931 0.0
H876 H 0.64573 0.01366 0.93228 0.0
H877 H 0.62957 0.98054 0.0704 0.0
H878 H 0.5979 0.92844 0.96124 0.0
H879 H 0.66389 0.06543 0.0414 0.0
H880 H 0.61887 0.96091 0.03047 0.0
H881 H 0.65386 0.0332 0.97221 0.0
C882 C 0.63686 -0.00091 0.94701 0.0
C883 C 0.62114 0.9694 0.94343 0.0
C884 C 0.62862 0.98383 0.03289 0.0
C885 C 0.63047 0.99151 0.9891 0.0
C886 C 0.63472 0.99501 0.05567 0.0
C887 C 0.64763 0.02464 0.05923 0.0
C888 C 0.6357 0.00245 0.01357 0.0
C889 C 0.6539 0.04243 0.03949 0.0
C890 C 0.64147 0.01022 0.96979 0.0
C891 C 0.61014 0.95148 0.96316 0.0
N892 N 0.648 0.03109 0.01753 0.0
N893 N 0.61512 0.9628 0.98512 0.0
H894 H 0.63106 0.64848 0.43226 0.0
H895 H 0.64764 0.63192 0.57041 0.0
H896 H 0.66579 0.59826 0.46122 0.0
H897 H 0.59972 0.66917 0.54142 0.0
H898 H 0.65579 0.62049 0.53048 0.0
H899 H 0.62045 0.65745 0.4722 0.0
C900 C 0.63631 0.63923 0.44699 0.0
C901 C 0.64932 0.62262 0.4434 0.0
C902 C 0.64338 0.63106 0.53289 0.0
C903 C 0.6375 0.63293 0.48909 0.0
C904 C 0.63876 0.63759 0.55568 0.0
C905 C 0.62299 0.65151 0.55925 0.0
C906 C 0.63233 0.63871 0.51358 0.0
C907 C 0.61199 0.6584 0.53951 0.0
C908 C 0.63027 0.64435 0.46978 0.0
C909 C 0.65572 0.61119 0.46314 0.0
N910 N 0.61697 0.65205 0.51755 0.0
N911 N 0.64988 0.61667 0.48511 0.0
H912 H 0.01438 0.64649 0.07267 0.0
H913 H 0.98128 0.63074 0.93454 0.0
H914 H 0.92943 0.59662 0.0436 0.0
H915 H 0.06637 0.66639 0.96344 0.0
H916 H 0.96174 0.61958 0.97448 0.0
H917 H 0.034 0.65563 0.03272 0.0
C918 C -0.0001 0.63737 0.05792 0.0
C919 C 0.97026 0.62078 0.06146 0.0
C920 C 0.98468 0.62974 0.97204 0.0
C921 C 0.99243 0.63127 0.0158 0.0
C922 C 0.99582 0.63612 0.94926 0.0
C923 C 0.02546 0.64948 0.94566 0.0
C924 C 0.00337 0.637 0.99133 0.0
C925 C 0.04335 0.65602 0.96538 0.0
C926 C 0.01107 0.64257 0.03513 0.0
C927 C 0.95244 0.60952 0.0417 0.0
N928 N 0.03204 0.64983 0.98734 0.0
N929 N 0.96378 0.61508 0.01975 0.0
H930 H 0.36495 0.01538 0.57103 0.0
H931 H 0.35072 0.98345 0.43255 0.0
H932 H 0.32374 0.93034 0.54132 0.0
H933 H 0.3978 0.0683 0.46232 0.0
H934 H 0.3405 0.96347 0.47234 0.0
H935 H 0.3771 0.03532 0.53127 0.0
C936 C 0.35853 0.00093 0.55617 0.0
C937 C 0.34331 0.97119 0.55949 0.0
C938 C 0.35316 0.98646 0.47014 0.0
C939 C 0.35702 0.99375 0.51401 0.0
C940 C 0.35899 0.99784 0.44744 0.0
C941 C 0.3751 0.02756 0.44412 0.0
C942 C 0.36342 0.00495 0.48964 0.0
C943 C 0.38528 0.04525 0.46404 0.0
C944 C 0.36546 0.01229 0.53348 0.0
C945 C 0.3355 0.95343 0.5396 0.0
N946 N 0.3792 0.03369 0.48592 0.0
N947 N 0.34238 0.96497 0.51774 0.0
H948 H 0.40076 0.33281 0.04247 0.0
H949 H 0.32177 0.39453 0.96299 0.0
H950 H 0.34687 0.36371 0.07062 0.0
H951 H 0.36568 0.35289 0.93429 0.0
H952 H 0.33328 0.38603 1.00245 0.0
H953 H 0.39084 0.34286 0.00288 0.0
C954 C 0.38693 0.34187 0.04035 0.0
C955 C 0.37459 0.34742 0.05992 0.0
C956 C 0.34043 0.37874 0.98757 0.0
C957 C 0.3631 0.35891 0.01451 0.0
C958 C 0.33391 0.38361 0.96497 0.0
C959 C 0.34278 0.37439 0.94526 0.0
C960 C 0.35609 0.36462 0.99061 0.0
C961 C 0.3584 0.36034 0.94898 0.0
C962 C 0.38122 0.34751 0.01769 0.0
C963 C 0.35683 0.3591 0.05605 0.0
N964 N 0.3646 0.3559 0.97124 0.0
N965 N 0.3516 0.36445 0.03378 0.0
H966 H 0.07191 0.40198 0.54136 0.0
H967 H 0.92922 0.32455 0.46396 0.0
H968 H 0.98702 0.35434 0.57096 0.0
H969 H 0.01425 0.36583 0.43424 0.0
H970 H 0.95 0.33747 0.50312 0.0
H971 H 0.05115 0.39128 0.50207 0.0
C972 C 0.04885 0.38935 0.53961 0.0
C973 C 0.03115 0.37898 0.55951 0.0
C974 C 0.96416 0.34376 0.48807 0.0
C975 C 0.00724 0.36659 0.51443 0.0
C976 C 0.95232 0.33641 0.46565 0.0
C977 C 0.97005 0.3441 0.44576 0.0
C978 C 0.99402 0.35899 0.49073 0.0
C979 C -0.0002 0.35945 0.44908 0.0
C980 C 0.03703 0.38321 0.51713 0.0
C981 C 0.00146 0.36275 0.55613 0.0
N982 N 0.01086 0.36639 0.47117 0.0
N983 N 0.99043 0.35701 0.534 0.0
H984 H 0.45644 0.04379 0.10385 0.0
H985 H 0.59726 0.07581 0.17504 0.0
H986 H 0.48102 0.08379 0.17206 0.0
H987 H 0.58361 0.04647 0.1032 0.0
H988 H 0.54956 0.06971 0.17592 0.0
H989 H 0.49806 0.03647 0.10471 0.0
C990 C 0.47036 0.0507 0.11907 0.0
C991 C 0.4656 0.06485 0.13775 0.0
C992 C 0.55676 0.06442 0.15992 0.0
C993 C 0.5127 0.05636 0.13893 0.0
C994 C 0.58406 0.06791 0.15943 0.0
C995 C 0.59454 0.06214 0.13888 0.0
C996 C 0.53977 0.05551 0.13958 0.0
C997 C 0.5763 0.05135 0.11933 0.0
C998 C 0.49407 0.04658 0.11953 0.0
C999 C 0.48416 0.0733 0.15707 0.0
N1000 N 0.54983 0.04881 0.12001 0.0
N1001 N 0.50685 0.06903 0.15708 0.0
H1002 H 0.53984 0.58712 0.60289 0.0
H1003 H 0.39766 0.4794 0.67318 0.0
H1004 H 0.51525 0.60248 0.67111 0.0
H1005 H 0.41217 0.46267 0.60188 0.0
H1006 H 0.44532 0.52097 0.67415 0.0
H1007 H 0.49762 0.5385 0.60337 0.0
C1008 C 0.5258 0.58017 0.61803 0.0
C1009 C 0.53076 0.59898 0.63683 0.0
C1010 C 0.43832 0.50829 0.65823 0.0
C1011 C 0.48295 0.54377 0.63756 0.0
C1012 C 0.41102 0.4845 0.65769 0.0
C1013 C 0.40079 0.46791 0.63728 0.0
C1014 C 0.45563 0.51604 0.63809 0.0
C1015 C 0.41927 0.47512 0.6179 0.0
C1016 C 0.50174 0.55253 0.61826 0.0
C1017 C 0.512 0.58894 0.65603 0.0
N1018 N 0.44577 0.49902 0.61862 0.0
N1019 N 0.48899 0.56219 0.65583 0.0
H1020 H 0.95136 0.41028 0.1051 0.0
H1021 H 0.91817 0.51804 0.17667 0.0
H1022 H 0.91178 0.39454 0.1735 0.0
H1023 H 0.94852 0.53473 0.10512 0.0
H1024 H 0.92436 0.4765 0.17736 0.0
H1025 H 0.95823 0.45906 0.10608 0.0
C1026 C 0.94445 0.41718 0.12039 0.0
C1027 C 0.93056 0.39822 0.13909 0.0
C1028 C 0.92985 0.48919 0.16147 0.0
C1029 C 0.93851 0.45362 0.14039 0.0
C1030 C 0.9263 0.51296 0.16108 0.0
C1031 C 0.93235 0.5295 0.14068 0.0
C1032 C 0.93911 0.48142 0.14115 0.0
C1033 C 0.94342 0.52232 0.12115 0.0
C1034 C 0.94831 0.44492 0.12091 0.0
C1035 C 0.92209 0.4082 0.15849 0.0
N1036 N 0.94603 0.49844 0.12171 0.0
N1037 N 0.92609 0.43505 0.15856 0.0
H1038 H 0.37158 0.87215 0.62147 0.0
H1039 H 0.54276 0.96518 0.62262 0.0
H1040 H 0.41615 0.96446 0.62449 0.0
H1041 H 0.49243 0.87291 0.62446 0.0
H1042 H 0.49815 0.967 0.61837 0.0
H1043 H 0.41696 0.87364 0.6171 0.0
C1044 C 0.39103 0.89283 0.62118 0.0
C1045 C 0.39011 0.91819 0.62374 0.0
C1046 C 0.49705 0.94643 0.61951 0.0
C1047 C 0.44268 0.92014 0.61898 0.0
C1048 C 0.52244 0.94537 0.62188 0.0
C1049 C 0.52125 0.91886 0.62427 0.0
C1050 C 0.47054 0.92076 0.61929 0.0
C1051 C 0.49441 0.89386 0.62314 0.0
C1052 C 0.41705 0.8937 0.61863 0.0
C1053 C 0.416 0.94439 0.6227 0.0
N1054 N 0.47029 0.89547 0.62083 0.0
N1055 N 0.44139 0.94472 0.62072 0.0
H1056 H 0.59871 0.5201 0.17667 0.0
H1057 H 0.45783 0.41302 0.10473 0.0
H1058 H 0.58504 0.53749 0.10533 0.0
H1059 H 0.47985 0.398 0.17409 0.0
H1060 H 0.49997 0.46167 0.10571 0.0
H1061 H 0.55079 0.47885 0.17735 0.0
C1062 C 0.58547 0.51525 0.16112 0.0
C1063 C 0.59601 0.53193 0.14079 0.0
C1064 C 0.49529 0.44774 0.12076 0.0
C1065 C 0.54089 0.48416 0.14125 0.0
C1066 C 0.47126 0.42008 0.12024 0.0
C1067 C 0.46566 0.40134 0.13921 0.0
C1068 C 0.51342 0.45657 0.1405 0.0
C1069 C 0.48364 0.4115 0.15888 0.0
C1070 C 0.55802 0.49164 0.1615 0.0
C1071 C 0.5777 0.525 0.12131 0.0
N1072 N 0.50668 0.43825 0.15893 0.0
N1073 N 0.55108 0.50127 0.12187 0.0
H1074 H 0.12923 0.50749 0.62553 0.0
H1075 H 0.03417 0.58346 0.62304 0.0
H1076 H 0.03689 0.45845 0.6243 0.0
H1077 H 0.12622 0.62639 0.62945 0.0
H1078 H 0.03338 0.53751 0.61893 0.0
H1079 H 0.12723 0.55114 0.6219 0.0
C1080 C 0.10843 0.50591 0.62447 0.0
C1081 C 0.08318 0.47928 0.62562 0.0
C1082 C 0.05368 0.5571 0.62108 0.0
C1083 C 0.08064 0.52968 0.62164 0.0
C1084 C 0.05416 0.58327 0.62337 0.0
C1085 C 0.08027 0.60876 0.62694 0.0
C1086 C 0.07952 0.55666 0.62212 0.0
C1087 C 0.10552 0.60732 0.62716 0.0
C1088 C 0.10727 0.53094 0.62236 0.0
C1089 C 0.05686 0.47861 0.62363 0.0
N1090 N 0.10446 0.58183 0.62489 0.0
N1091 N 0.05623 0.50355 0.62204 0.0
H1092 H 0.9639 0.54304 0.3826 0.0
H1093 H 0.87053 0.3719 0.38381 0.0
H1094 H 0.8716 0.49291 0.38134 0.0
H1095 H 0.96284 0.41629 0.38089 0.0
H1096 H 0.87214 0.41732 0.38826 0.0
H1097 H 0.96561 0.49837 0.38685 0.0
C1098 C 0.94407 0.52275 0.38348 0.0
C1099 C 0.91757 0.52162 0.38123 0.0
C1100 C 0.89217 0.41736 0.38672 0.0
C1101 C 0.91935 0.47085 0.3862 0.0
C1102 C 0.89124 0.39132 0.38414 0.0
C1103 C 0.91656 0.39033 0.38158 0.0
C1104 C 0.91864 0.44295 0.38644 0.0
C1105 C 0.9428 0.41618 0.38266 0.0
C1106 C 0.94505 0.49732 0.38583 0.0
C1107 C 0.89253 0.49483 0.38254 0.0
N1108 N 0.94319 0.4416 0.38468 0.0
N1109 N 0.89408 0.47067 0.38482 0.0
H1110 H 0.51756 0.91373 0.82879 0.0
H1111 H 0.41213 0.9512 0.89922 0.0
H1112 H 0.53641 0.94794 0.89917 0.0
H1113 H 0.39534 0.91022 0.83135 0.0
H1114 H 0.46055 0.95715 0.89831 0.0
H1115 H 0.47605 0.9199 0.82798 0.0
C1116 C 0.51294 0.92263 0.84412 0.0
C1117 C 0.53014 0.92984 0.86423 0.0
C1118 C 0.44626 0.94712 0.88358 0.0
C1119 C 0.4821 0.93671 0.8636 0.0
C1120 C 0.41873 0.94379 0.88406 0.0
C1121 C 0.39957 0.92977 0.8655 0.0
C1122 C 0.45454 0.93663 0.86428 0.0
C1123 C 0.40916 0.92065 0.84626 0.0
C1124 C 0.48919 0.92621 0.84366 0.0
C1125 C 0.5235 0.94192 0.88338 0.0
N1126 N 0.43581 0.92412 0.84623 0.0
N1127 N 0.49965 0.9446 0.88275 0.0
H1128 H 0.45908 0.41197 0.39857 0.0
H1129 H 0.60086 0.51997 0.3279 0.0
H1130 H 0.48344 0.39655 0.33027 0.0
H1131 H 0.5859 0.53726 0.3989 0.0
H1132 H 0.55339 0.47808 0.32707 0.0
H1133 H 0.50107 0.46073 0.39787 0.0
C1134 C 0.47302 0.41893 0.38336 0.0
C1135 C 0.46805 0.40005 0.36461 0.0
C1136 C 0.56024 0.49097 0.34287 0.0
C1137 C 0.51564 0.45545 0.36362 0.0
C1138 C 0.58744 0.51495 0.34334 0.0
C1139 C 0.5975 0.53182 0.36363 0.0
C1140 C 0.54286 0.4833 0.36298 0.0
C1141 C 0.57893 0.52464 0.38295 0.0
C1142 C 0.49695 0.44666 0.383 0.0
C1143 C 0.48668 0.41013 0.34532 0.0
N1144 N 0.55255 0.50057 0.38231 0.0
N1145 N 0.50959 0.43696 0.34541 0.0
H1146 H 0.04448 0.45793 0.90179 0.0
H1147 H 0.07453 0.59769 0.82989 0.0
H1148 H 0.0811 0.4807 0.83233 0.0
H1149 H 0.04744 0.5853 0.9023 0.0
H1150 H 0.06804 0.54982 0.82911 0.0
H1151 H 0.03738 0.49972 0.9012 0.0
C1152 C 0.05068 0.47148 0.88636 0.0
C1153 C 0.06384 0.46619 0.86723 0.0
C1154 C 0.06332 0.55733 0.84522 0.0
C1155 C 0.05561 0.51346 0.86635 0.0
C1156 C 0.06704 0.58472 0.84564 0.0
C1157 C 0.062 0.5956 0.8663 0.0
C1158 C 0.05495 0.54064 0.86574 0.0
C1159 C 0.05173 0.57767 0.88607 0.0
C1160 C 0.04669 0.49529 0.88605 0.0
C1161 C 0.0714 0.48428 0.84765 0.0
N1162 N 0.04898 0.55111 0.88545 0.0
N1163 N 0.06729 0.50706 0.84779 0.0
H1164 H 0.62548 0.12576 0.38168 0.0
H1165 H 0.45434 0.03227 0.38081 0.0
H1166 H 0.58114 0.03344 0.37906 0.0
H1167 H 0.50441 0.12455 0.37851 0.0
H1168 H 0.49905 0.03066 0.38517 0.0
H1169 H 0.58004 0.12415 0.38605 0.0
C1170 C 0.60607 0.10505 0.38206 0.0
C1171 C 0.60707 0.07972 0.37959 0.0
C1172 C 0.50007 0.05119 0.38389 0.0
C1173 C 0.55444 0.07763 0.38436 0.0
C1174 C 0.47463 0.05212 0.38147 0.0
C1175 C 0.47571 0.07857 0.37891 0.0
C1176 C 0.52653 0.0769 0.38402 0.0
C1177 C 0.50251 0.10364 0.37996 0.0
C1178 C 0.58002 0.10411 0.3846 0.0
C1179 C 0.58123 0.05348 0.38075 0.0
N1180 N 0.52669 0.10214 0.38232 0.0
N1181 N 0.55581 0.05309 0.38272 0.0
H1182 H 0.54595 0.57922 0.88153 0.0
H1183 H 0.37506 0.5027 0.88726 0.0
H1184 H 0.49642 0.62202 0.88169 0.0
H1185 H 0.4186 0.45447 0.87899 0.0
H1186 H 0.42089 0.54613 0.89198 0.0
H1187 H 0.50123 0.53306 0.88655 0.0
C1188 C 0.52577 0.57893 0.88288 0.0
C1189 C 0.5248 0.6044 0.88081 0.0
C1190 C 0.42064 0.52613 0.88923 0.0
C1191 C 0.47401 0.55213 0.88671 0.0
C1192 C 0.39439 0.50128 0.88651 0.0
C1193 C 0.39308 0.47506 0.88231 0.0
C1194 C 0.44605 0.52506 0.88736 0.0
C1195 C 0.41878 0.47437 0.88204 0.0
C1196 C 0.50033 0.55266 0.88568 0.0
C1197 C 0.49818 0.60291 0.88274 0.0
N1198 N 0.44438 0.49918 0.88416 0.0
N1199 N 0.47398 0.57731 0.88548 0.0
loop_
_geom_bond_atom_site_label_1
_geom_bond_atom_site_label_2
_geom_bond_distance
_geom_bond_site_symmetry_2
_ccdc_geom_bond_type
Co0 O1 2.216 . S
Co0 O2 2.091 . S
Co0 O4 2.004 . S
Co0 O10 2.021 . S
Co0 O12 2.137 . S
Co0 O13 2.244 . S
O1 Co0 2.216 . S
O1 C8 1.247 . S
O2 Co0 2.091 . S
O2 C8 1.261 . S
C3 O12 1.247 . S
C3 O13 1.272 . S
O4 Co0 2.004 . S
O4 C9 1.259 . S
Co5 O6 2.061 . S
Co5 O11 2.052 . S
Co5 O13 2.135 . S
O6 Co5 2.061 . S
O6 C9 1.235 . S
C7 O10 1.238 . S
C7 O11 1.241 . S
C8 O1 1.247 . S
C8 O2 1.261 . S
C9 O4 1.259 . S
C9 O6 1.235 . S
O10 Co0 2.021 . S
O10 C7 1.238 . S
O11 Co5 2.052 . S
O11 C7 1.241 . S
O12 Co0 2.137 . S
O12 C3 1.247 . S
O13 Co0 2.244 . S
O13 C3 1.272 . S
O13 Co5 2.135 . S
Co14 O15 2.216 . S
Co14 O16 2.091 . S
Co14 O18 2.004 . S
Co14 O24 2.021 . S
Co14 O26 2.137 . S
Co14 O27 2.244 . S
O15 Co14 2.216 . S
O15 C22 1.247 . S
O16 Co14 2.091 . S
O16 C22 1.261 . S
C17 O26 1.247 . S
C17 O27 1.272 . S
O18 Co14 2.004 . S
O18 C23 1.259 . S
Co19 O20 2.061 . S
Co19 O25 2.052 . S
Co19 O27 2.135 . S
O20 Co19 2.061 . S
O20 C23 1.235 . S
C21 O24 1.238 . S
C21 O25 1.241 . S
C22 O15 1.247 . S
C22 O16 1.261 . S
C23 O18 1.259 . S
C23 O20 1.235 . S
O24 Co14 2.021 . S
O24 C21 1.238 . S
O25 Co19 2.052 . S
O25 C21 1.241 . S
O26 Co14 2.137 . S
O26 C17 1.247 . S
O27 Co14 2.244 . S
O27 C17 1.272 . S
O27 Co19 2.135 . S
Co28 O29 2.216 . S
Co28 O30 2.091 . S
Co28 O32 2.004 . S
Co28 O38 2.021 . S
Co28 O40 2.137 . S
Co28 O41 2.244 . S
O29 Co28 2.216 . S
O29 C36 1.247 . S
O30 Co28 2.091 . S
O30 C36 1.261 . S
C31 O40 1.247 . S
C31 O41 1.272 . S
O32 Co28 2.004 . S
O32 C37 1.259 . S
Co33 O34 2.061 . S
Co33 O39 2.052 . S
Co33 O41 2.135 . S
O34 Co33 2.061 . S
O34 C37 1.235 . S
C35 O38 1.238 . S
C35 O39 1.241 . S
C36 O29 1.247 . S
C36 O30 1.261 . S
C37 O32 1.259 . S
C37 O34 1.235 . S
O38 Co28 2.021 . S
O38 C35 1.238 . S
O39 Co33 2.052 . S
O39 C35 1.241 . S
O40 Co28 2.137 . S
O40 C31 1.247 . S
O41 Co28 2.244 . S
O41 C31 1.272 . S
O41 Co33 2.135 . S
Co42 O43 2.216 . S
Co42 O44 2.091 . S
Co42 O46 2.004 . S
Co42 O52 2.021 . S
Co42 O54 2.137 . S
Co42 O55 2.244 . S
O43 Co42 2.216 . S
O43 C50 1.247 . S
O44 Co42 2.091 . S
O44 C50 1.261 . S
C45 O54 1.247 . S
C45 O55 1.272 . S
O46 Co42 2.004 . S
O46 C51 1.259 . S
Co47 O48 2.061 . S
Co47 O53 2.052 . S
Co47 O55 2.135 . S
O48 Co47 2.061 . S
O48 C51 1.235 . S
C49 O52 1.238 . S
C49 O53 1.241 . S
C50 O43 1.247 . S
C50 O44 1.261 . S
C51 O46 1.259 . S
C51 O48 1.235 . S
O52 Co42 2.021 . S
O52 C49 1.238 . S
O53 Co47 2.052 . S
O53 C49 1.241 . S
O54 Co42 2.137 . S
O54 C45 1.247 . S
O55 Co42 2.244 . S
O55 C45 1.272 . S
O55 Co47 2.135 . S
Co56 O57 2.216 . S
Co56 O58 2.091 . S
Co56 O60 2.004 . S
Co56 O66 2.021 . S
Co56 O68 2.137 . S
Co56 O69 2.244 . S
O57 Co56 2.216 . S
O57 C64 1.247 . S
O58 Co56 2.091 . S
O58 C64 1.261 . S
C59 O68 1.247 . S
C59 O69 1.272 . S
O60 Co56 2.004 . S
O60 C65 1.259 . S
Co61 O62 2.061 . S
Co61 O67 2.052 . S
Co61 O69 2.135 . S
O62 Co61 2.061 . S
O62 C65 1.235 . S
C63 O66 1.238 . S
C63 O67 1.241 . S
C64 O57 1.247 . S
C64 O58 1.261 . S
C65 O60 1.259 . S
C65 O62 1.235 . S
O66 Co56 2.021 . S
O66 C63 1.238 . S
O67 Co61 2.052 . S
O67 C63 1.241 . S
O68 Co56 2.137 . S
O68 C59 1.247 . S
O69 Co56 2.244 . S
O69 C59 1.272 . S
O69 Co61 2.135 . S
Co70 O71 2.216 . S
Co70 O72 2.091 . S
Co70 O74 2.004 . S
Co70 O80 2.021 . S
Co70 O82 2.137 . S
Co70 O83 2.244 . S
O71 Co70 2.216 . S
O71 C78 1.247 . S
O72 Co70 2.091 . S
O72 C78 1.261 . S
C73 O82 1.247 . S
C73 O83 1.272 . S
O74 Co70 2.004 . S
O74 C79 1.259 . S
Co75 O76 2.061 . S
Co75 O81 2.052 . S
Co75 O83 2.135 . S
O76 Co75 2.061 . S
O76 C79 1.235 . S
C77 O80 1.238 . S
C77 O81 1.241 . S
C78 O71 1.247 . S
C78 O72 1.261 . S
C79 O74 1.259 . S
C79 O76 1.235 . S
O80 Co70 2.021 . S
O80 C77 1.238 . S
O81 Co75 2.052 . S
O81 C77 1.241 . S
O82 Co70 2.137 . S
O82 C73 1.247 . S
O83 Co70 2.244 . S
O83 C73 1.272 . S
O83 Co75 2.135 . S
Co84 O85 2.216 . S
Co84 O86 2.091 . S
Co84 O88 2.004 . S
Co84 O94 2.021 . S
Co84 O96 2.137 . S
Co84 O97 2.244 . S
O85 Co84 2.216 . S
O85 C92 1.247 . S
O86 Co84 2.091 . S
O86 C92 1.261 . S
C87 O96 1.247 . S
C87 O97 1.272 . S
O88 Co84 2.004 . S
O88 C93 1.259 . S
Co89 O90 2.061 . S
Co89 O95 2.052 . S
Co89 O97 2.135 . S
O90 Co89 2.061 . S
O90 C93 1.235 . S
C91 O94 1.238 . S
C91 O95 1.241 . S
C92 O85 1.247 . S
C92 O86 1.261 . S
C93 O88 1.259 . S
C93 O90 1.235 . S
O94 Co84 2.021 . S
O94 C91 1.238 . S
O95 Co89 2.052 . S
O95 C91 1.241 . S
O96 Co84 2.137 . S
O96 C87 1.247 . S
O97 Co84 2.244 . S
O97 C87 1.272 . S
O97 Co89 2.135 . S
Co98 O99 2.216 . S
Co98 O100 2.091 . S
Co98 O102 2.004 . S
Co98 O108 2.021 . S
Co98 O110 2.137 . S
Co98 O111 2.244 . S
O99 Co98 2.216 . S
O99 C106 1.247 . S
O100 Co98 2.091 . S
O100 C106 1.261 . S
C101 O110 1.247 . S
C101 O111 1.272 . S
O102 Co98 2.004 . S
O102 C107 1.259 . S
Co103 O104 2.061 . S
Co103 O109 2.052 . S
Co103 O111 2.135 . S
O104 Co103 2.061 . S
O104 C107 1.235 . S
C105 O108 1.238 . S
C105 O109 1.241 . S
C106 O99 1.247 . S
C106 O100 1.261 . S
C107 O102 1.259 . S
C107 O104 1.235 . S
O108 Co98 2.021 . S
O108 C105 1.238 . S
O109 Co103 2.052 . S
O109 C105 1.241 . S
O110 Co98 2.137 . S
O110 C101 1.247 . S
O111 Co98 2.244 . S
O111 C101 1.272 . S
O111 Co103 2.135 . S
Co112 O113 2.216 . S
Co112 O114 2.091 . S
Co112 O116 2.004 . S
Co112 O122 2.021 . S
Co112 O124 2.137 . S
Co112 O125 2.244 . S
O113 Co112 2.216 . S
O113 C120 1.247 . S
O114 Co112 2.091 . S
O114 C120 1.261 . S
C115 O124 1.247 . S
C115 O125 1.272 . S
O116 Co112 2.004 . S
O116 C121 1.259 . S
Co117 O118 2.061 . S
Co117 O123 2.052 . S
Co117 O125 2.135 . S
O118 Co117 2.061 . S
O118 C121 1.235 . S
C119 O122 1.238 . S
C119 O123 1.241 . S
C120 O113 1.247 . S
C120 O114 1.261 . S
C121 O116 1.259 . S
C121 O118 1.235 . S
O122 Co112 2.021 . S
O122 C119 1.238 . S
O123 Co117 2.052 . S
O123 C119 1.241 . S
O124 Co112 2.137 . S
O124 C115 1.247 . S
O125 Co112 2.244 . S
O125 C115 1.272 . S
O125 Co117 2.135 . S
Co126 O127 2.216 . S
Co126 O128 2.091 . S
Co126 O130 2.004 . S
Co126 O136 2.021 . S
Co126 O138 2.137 . S
Co126 O139 2.244 . S
O127 Co126 2.216 . S
O127 C134 1.247 . S
O128 Co126 2.091 . S
O128 C134 1.261 . S
C129 O138 1.247 . S
C129 O139 1.272 . S
O130 Co126 2.004 . S
O130 C135 1.259 . S
Co131 O132 2.061 . S
Co131 O137 2.052 . S
Co131 O139 2.135 . S
O132 Co131 2.061 . S
O132 C135 1.235 . S
C133 O136 1.238 . S
C133 O137 1.241 . S
C134 O127 1.247 . S
C134 O128 1.261 . S
C135 O130 1.259 . S
C135 O132 1.235 . S
O136 Co126 2.021 . S
O136 C133 1.238 . S
O137 Co131 2.052 . S
O137 C133 1.241 . S
O138 Co126 2.137 . S
O138 C129 1.247 . S
O139 Co126 2.244 . S
O139 C129 1.272 . S
O139 Co131 2.135 . S
Co140 O141 2.216 . S
Co140 O142 2.091 . S
Co140 O144 2.004 . S
Co140 O150 2.021 . S
Co140 O152 2.137 . S
Co140 O153 2.244 . S
O141 Co140 2.216 . S
O141 C148 1.247 . S
O142 Co140 2.091 . S
O142 C148 1.261 . S
C143 O152 1.247 . S
C143 O153 1.272 . S
O144 Co140 2.004 . S
O144 C149 1.259 . S
Co145 O146 2.061 . S
Co145 O151 2.052 . S
Co145 O153 2.135 . S
O146 Co145 2.061 . S
O146 C149 1.235 . S
C147 O150 1.238 . S
C147 O151 1.241 . S
C148 O141 1.247 . S
C148 O142 1.261 . S
C149 O144 1.259 . S
C149 O146 1.235 . S
O150 Co140 2.021 . S
O150 C147 1.238 . S
O151 Co145 2.052 . S
O151 C147 1.241 . S
O152 Co140 2.137 . S
O152 C143 1.247 . S
O153 Co140 2.244 . S
O153 C143 1.272 . S
O153 Co145 2.135 . S
Co154 O155 2.216 . S
Co154 O156 2.091 . S
Co154 O158 2.004 . S
Co154 O164 2.021 . S
Co154 O166 2.137 . S
Co154 O167 2.244 . S
O155 Co154 2.216 . S
O155 C162 1.247 . S
O156 Co154 2.091 . S
O156 C162 1.261 . S
C157 O166 1.247 . S
C157 O167 1.272 . S
O158 Co154 2.004 . S
O158 C163 1.259 . S
Co159 O160 2.061 . S
Co159 O165 2.052 . S
Co159 O167 2.135 . S
O160 Co159 2.061 . S
O160 C163 1.235 . S
C161 O164 1.238 . S
C161 O165 1.241 . S
C162 O155 1.247 . S
C162 O156 1.261 . S
C163 O158 1.259 . S
C163 O160 1.235 . S
O164 Co154 2.021 . S
O164 C161 1.238 . S
O165 Co159 2.052 . S
O165 C161 1.241 . S
O166 Co154 2.137 . S
O166 C157 1.247 . S
O167 Co154 2.244 . S
O167 C157 1.272 . S
O167 Co159 2.135 . S
Co168 O169 2.216 . S
Co168 O170 2.091 . S
Co168 O172 2.004 . S
Co168 O178 2.021 . S
Co168 O180 2.137 . S
Co168 O181 2.244 . S
O169 Co168 2.216 . S
O169 C176 1.247 . S
O170 Co168 2.091 . S
O170 C176 1.261 . S
C171 O180 1.247 . S
C171 O181 1.272 . S
O172 Co168 2.004 . S
O172 C177 1.259 . S
Co173 O174 2.061 . S
Co173 O179 2.052 . S
Co173 O181 2.135 . S
O174 Co173 2.061 . S
O174 C177 1.235 . S
C175 O178 1.238 . S
C175 O179 1.241 . S
C176 O169 1.247 . S
C176 O170 1.261 . S
C177 O172 1.259 . S
C177 O174 1.235 . S
O178 Co168 2.021 . S
O178 C175 1.238 . S
O179 Co173 2.052 . S
O179 C175 1.241 . S
O180 Co168 2.137 . S
O180 C171 1.247 . S
O181 Co168 2.244 . S
O181 C171 1.272 . S
O181 Co173 2.135 . S
Co182 O183 2.216 . S
Co182 O184 2.091 . S
Co182 O186 2.004 . S
Co182 O192 2.021 . S
Co182 O194 2.137 . S
Co182 O195 2.244 . S
O183 Co182 2.216 . S
O183 C190 1.247 . S
O184 Co182 2.091 . S
O184 C190 1.261 . S
C185 O194 1.247 . S
C185 O195 1.272 . S
O186 Co182 2.004 . S
O186 C191 1.259 . S
Co187 O188 2.061 . S
Co187 O193 2.052 . S
Co187 O195 2.135 . S
O188 Co187 2.061 . S
O188 C191 1.235 . S
C189 O192 1.238 . S
C189 O193 1.241 . S
C190 O183 1.247 . S
C190 O184 1.261 . S
C191 O186 1.259 . S
C191 O188 1.235 . S
O192 Co182 2.021 . S
O192 C189 1.238 . S
O193 Co187 2.052 . S
O193 C189 1.241 . S
O194 Co182 2.137 . S
O194 C185 1.247 . S
O195 Co182 2.244 . S
O195 C185 1.272 . S
O195 Co187 2.135 . S
Co196 O197 2.216 . S
Co196 O198 2.091 . S
Co196 O200 2.004 . S
Co196 O206 2.021 . S
Co196 O208 2.137 . S
Co196 O209 2.244 . S
O197 Co196 2.216 . S
O197 C204 1.247 . S
O198 Co196 2.091 . S
O198 C204 1.261 . S
C199 O208 1.247 . S
C199 O209 1.272 . S
O200 Co196 2.004 . S
O200 C205 1.259 . S
Co201 O202 2.061 . S
Co201 O207 2.052 . S
Co201 O209 2.135 . S
O202 Co201 2.061 . S
O202 C205 1.235 . S
C203 O206 1.238 . S
C203 O207 1.241 . S
C204 O197 1.247 . S
C204 O198 1.261 . S
C205 O200 1.259 . S
C205 O202 1.235 . S
O206 Co196 2.021 . S
O206 C203 1.238 . S
O207 Co201 2.052 . S
O207 C203 1.241 . S
O208 Co196 2.137 . S
O208 C199 1.247 . S
O209 Co196 2.244 . S
O209 C199 1.272 . S
O209 Co201 2.135 . S
Co210 O211 2.216 . S
Co210 O212 2.091 . S
Co210 O214 2.004 . S
Co210 O220 2.021 . S
Co210 O222 2.137 . S
Co210 O223 2.244 . S
O211 Co210 2.216 . S
O211 C218 1.247 . S
O212 Co210 2.091 . S
O212 C218 1.261 . S
C213 O222 1.247 . S
C213 O223 1.272 . S
O214 Co210 2.004 . S
O214 C219 1.259 . S
Co215 O216 2.061 . S
Co215 O221 2.052 . S
Co215 O223 2.135 . S
O216 Co215 2.061 . S
O216 C219 1.235 . S
C217 O220 1.238 . S
C217 O221 1.241 . S
C218 O211 1.247 . S
C218 O212 1.261 . S
C219 O214 1.259 . S
C219 O216 1.235 . S
O220 Co210 2.021 . S
O220 C217 1.238 . S
O221 Co215 2.052 . S
O221 C217 1.241 . S
O222 Co210 2.137 . S
O222 C213 1.247 . S
O223 Co210 2.244 . S
O223 C213 1.272 . S
O223 Co215 2.135 . S
Co224 O225 2.216 . S
Co224 O226 2.091 . S
Co224 O228 2.004 . S
Co224 O234 2.021 . S
Co224 O236 2.137 . S
Co224 O237 2.244 . S
O225 Co224 2.216 . S
O225 C232 1.247 . S
O226 Co224 2.091 . S
O226 C232 1.261 . S
C227 O236 1.247 . S
C227 O237 1.272 . S
O228 Co224 2.004 . S
O228 C233 1.259 . S
Co229 O230 2.061 . S
Co229 O235 2.052 . S
Co229 O237 2.135 . S
O230 Co229 2.061 . S
O230 C233 1.235 . S
C231 O234 1.238 . S
C231 O235 1.241 . S
C232 O225 1.247 . S
C232 O226 1.261 . S
C233 O228 1.259 . S
C233 O230 1.235 . S
O234 Co224 2.021 . S
O234 C231 1.238 . S
O235 Co229 2.052 . S
O235 C231 1.241 . S
O236 Co224 2.137 . S
O236 C227 1.247 . S
O237 Co224 2.244 . S
O237 C227 1.272 . S
O237 Co229 2.135 . S
Co238 O239 2.216 . S
Co238 O240 2.091 . S
Co238 O242 2.004 . S
Co238 O248 2.021 . S
Co238 O250 2.137 . S
Co238 O251 2.244 . S
O239 Co238 2.216 . S
O239 C246 1.247 . S
O240 Co238 2.091 . S
O240 C246 1.261 . S
C241 O250 1.247 . S
C241 O251 1.272 . S
O242 Co238 2.004 . S
O242 C247 1.259 . S
Co243 O244 2.061 . S
Co243 O249 2.052 . S
Co243 O251 2.135 . S
O244 Co243 2.061 . S
O244 C247 1.235 . S
C245 O248 1.238 . S
C245 O249 1.241 . S
C246 O239 1.247 . S
C246 O240 1.261 . S
C247 O242 1.259 . S
C247 O244 1.235 . S
O248 Co238 2.021 . S
O248 C245 1.238 . S
O249 Co243 2.052 . S
O249 C245 1.241 . S
O250 Co238 2.137 . S
O250 C241 1.247 . S
O251 Co238 2.244 . S
O251 C241 1.272 . S
O251 Co243 2.135 . S
Co252 O253 2.216 . S
Co252 O254 2.091 . S
Co252 O256 2.004 . S
Co252 O262 2.021 . S
Co252 O264 2.137 . S
Co252 O265 2.244 . S
O253 Co252 2.216 . S
O253 C260 1.247 . S
O254 Co252 2.091 . S
O254 C260 1.261 . S
C255 O264 1.247 . S
C255 O265 1.272 . S
O256 Co252 2.004 . S
O256 C261 1.259 . S
Co257 O258 2.061 . S
Co257 O263 2.052 . S
Co257 O265 2.135 . S
O258 Co257 2.061 . S
O258 C261 1.235 . S
C259 O262 1.238 . S
C259 O263 1.241 . S
C260 O253 1.247 . S
C260 O254 1.261 . S
C261 O256 1.259 . S
C261 O258 1.235 . S
O262 Co252 2.021 . S
O262 C259 1.238 . S
O263 Co257 2.052 . S
O263 C259 1.241 . S
O264 Co252 2.137 . S
O264 C255 1.247 . S
O265 Co252 2.244 . S
O265 C255 1.272 . S
O265 Co257 2.135 . S
Co266 O267 2.216 . S
Co266 O268 2.091 . S
Co266 O270 2.004 . S
Co266 O276 2.021 . S
Co266 O278 2.137 . S
Co266 O279 2.244 . S
O267 Co266 2.216 . S
O267 C274 1.247 . S
O268 Co266 2.091 . S
O268 C274 1.261 . S
C269 O278 1.247 . S
C269 O279 1.272 . S
O270 Co266 2.004 . S
O270 C275 1.259 . S
Co271 O272 2.061 . S
Co271 O277 2.052 . S
Co271 O279 2.135 . S
O272 Co271 2.061 . S
O272 C275 1.235 . S
C273 O276 1.238 . S
C273 O277 1.241 . S
C274 O267 1.247 . S
C274 O268 1.261 . S
C275 O270 1.259 . S
C275 O272 1.235 . S
O276 Co266 2.021 . S
O276 C273 1.238 . S
O277 Co271 2.052 . S
O277 C273 1.241 . S
O278 Co266 2.137 . S
O278 C269 1.247 . S
O279 Co266 2.244 . S
O279 C269 1.272 . S
O279 Co271 2.135 . S
Co280 O281 2.216 . S
Co280 O282 2.091 . S
Co280 O284 2.004 . S
Co280 O290 2.021 . S
Co280 O292 2.137 . S
Co280 O293 2.244 . S
O281 Co280 2.216 . S
O281 C288 1.247 . S
O282 Co280 2.091 . S
O282 C288 1.261 . S
C283 O292 1.247 . S
C283 O293 1.272 . S
O284 Co280 2.004 . S
O284 C289 1.259 . S
Co285 O286 2.061 . S
Co285 O291 2.052 . S
Co285 O293 2.135 . S
O286 Co285 2.061 . S
O286 C289 1.235 . S
C287 O290 1.238 . S
C287 O291 1.241 . S
C288 O281 1.247 . S
C288 O282 1.261 . S
C289 O284 1.259 . S
C289 O286 1.235 . S
O290 Co280 2.021 . S
O290 C287 1.238 . S
O291 Co285 2.052 . S
O291 C287 1.241 . S
O292 Co280 2.137 . S
O292 C283 1.247 . S
O293 Co280 2.244 . S
O293 C283 1.272 . S
O293 Co285 2.135 . S
Co294 O295 2.216 . S
Co294 O296 2.091 . S
Co294 O298 2.004 . S
Co294 O304 2.021 . S
Co294 O306 2.137 . S
Co294 O307 2.244 . S
O295 Co294 2.216 . S
O295 C302 1.247 . S
O296 Co294 2.091 . S
O296 C302 1.261 . S
C297 O306 1.247 . S
C297 O307 1.272 . S
O298 Co294 2.004 . S
O298 C303 1.259 . S
Co299 O300 2.061 . S
Co299 O305 2.052 . S
Co299 O307 2.135 . S
O300 Co299 2.061 . S
O300 C303 1.235 . S
C301 O304 1.238 . S
C301 O305 1.241 . S
C302 O295 1.247 . S
C302 O296 1.261 . S
C303 O298 1.259 . S
C303 O300 1.235 . S
O304 Co294 2.021 . S
O304 C301 1.238 . S
O305 Co299 2.052 . S
O305 C301 1.241 . S
O306 Co294 2.137 . S
O306 C297 1.247 . S
O307 Co294 2.244 . S
O307 C297 1.272 . S
O307 Co299 2.135 . S
Co308 O309 2.216 . S
Co308 O310 2.091 . S
Co308 O312 2.004 . S
Co308 O318 2.021 . S
Co308 O320 2.137 . S
Co308 O321 2.244 . S
O309 Co308 2.216 . S
O309 C316 1.247 . S
O310 Co308 2.091 . S
O310 C316 1.261 . S
C311 O320 1.247 . S
C311 O321 1.272 . S
O312 Co308 2.004 . S
O312 C317 1.259 . S
Co313 O314 2.061 . S
Co313 O319 2.052 . S
Co313 O321 2.135 . S
O314 Co313 2.061 . S
O314 C317 1.235 . S
C315 O318 1.238 . S
C315 O319 1.241 . S
C316 O309 1.247 . S
C316 O310 1.261 . S
C317 O312 1.259 . S
C317 O314 1.235 . S
O318 Co308 2.021 . S
O318 C315 1.238 . S
O319 Co313 2.052 . S
O319 C315 1.241 . S
O320 Co308 2.137 . S
O320 C311 1.247 . S
O321 Co308 2.244 . S
O321 C311 1.272 . S
O321 Co313 2.135 . S
Co322 O323 2.216 . S
Co322 O324 2.091 . S
Co322 O326 2.004 . S
Co322 O332 2.021 . S
Co322 O334 2.137 . S
Co322 O335 2.244 . S
O323 Co322 2.216 . S
O323 C330 1.247 . S
O324 Co322 2.091 . S
O324 C330 1.261 . S
C325 O334 1.247 . S
C325 O335 1.272 . S
O326 Co322 2.004 . S
O326 C331 1.259 . S
Co327 O328 2.061 . S
Co327 O333 2.052 . S
Co327 O335 2.135 . S
O328 Co327 2.061 . S
O328 C331 1.235 . S
C329 O332 1.238 . S
C329 O333 1.241 . S
C330 O323 1.247 . S
C330 O324 1.261 . S
C331 O326 1.259 . S
C331 O328 1.235 . S
O332 Co322 2.021 . S
O332 C329 1.238 . S
O333 Co327 2.052 . S
O333 C329 1.241 . S
O334 Co322 2.137 . S
O334 C325 1.247 . S
O335 Co322 2.244 . S
O335 C325 1.272 . S
O335 Co327 2.135 . S
H336 C342 0.930 . S
H337 C346 0.930 . S
H338 C351 0.929 . S
H339 C349 0.929 . S
H340 C344 0.929 . S
H341 C350 0.929 . S
C342 H336 0.930 . S
C342 C343 1.367 . S
C342 C350 1.378 . S
C343 C342 1.367 . S
C343 C351 1.433 . S
C344 H340 0.929 . S
C344 C346 1.378 . S
C344 C348 1.350 . S
C345 C348 1.463 . S
C345 C350 1.350 . S
C345 N353 1.427 . S
C346 H337 0.930 . S
C346 C344 1.378 . S
C346 C347 1.367 . S
C347 C346 1.367 . S
C347 C349 1.433 . S
C348 C344 1.350 . S
C348 C345 1.463 . S
C348 N352 1.427 . S
C349 H339 0.929 . S
C349 C347 1.433 . S
C349 N352 1.384 . S
C350 H341 0.929 . S
C350 C342 1.378 . S
C350 C345 1.350 . S
C351 H338 0.929 . S
C351 C343 1.433 . S
C351 N353 1.384 . S
N352 C348 1.427 . S
N352 C349 1.384 . S
N353 C345 1.427 . S
N353 C351 1.384 . S
H354 C360 0.930 . S
H355 C364 0.930 . S
H356 C369 0.929 . S
H357 C367 0.929 . S
H358 C362 0.929 . S
H359 C368 0.929 . S
C360 H354 0.930 . S
C360 C361 1.367 . S
C360 C368 1.378 . S
C361 C360 1.367 . S
C361 C369 1.433 . S
C362 H358 0.929 . S
C362 C364 1.378 . S
C362 C366 1.350 . S
C363 C366 1.463 . S
C363 C368 1.350 . S
C363 N371 1.427 . S
C364 H355 0.930 . S
C364 C362 1.378 . S
C364 C365 1.367 . S
C365 C364 1.367 . S
C365 C367 1.433 . S
C366 C362 1.350 . S
C366 C363 1.463 . S
C366 N370 1.427 . S
C367 H357 0.929 . S
C367 C365 1.433 . S
C367 N370 1.384 . S
C368 H359 0.929 . S
C368 C360 1.378 . S
C368 C363 1.350 . S
C369 H356 0.929 . S
C369 C361 1.433 . S
C369 N371 1.384 . S
N370 C366 1.427 . S
N370 C367 1.384 . S
N371 C363 1.427 . S
N371 C369 1.384 . S
H372 C378 0.930 . S
H373 C382 0.930 . S
H374 C387 0.929 . S
H375 C385 0.929 . S
H376 C380 0.929 . S
H377 C386 0.929 . S
C378 H372 0.930 . S
C378 C379 1.367 . S
C378 C386 1.378 . S
C379 C378 1.367 . S
C379 C387 1.433 . S
C380 H376 0.929 . S
C380 C382 1.378 . S
C380 C384 1.350 . S
C381 C384 1.463 . S
C381 C386 1.350 . S
C381 N389 1.427 . S
C382 H373 0.930 . S
C382 C380 1.378 . S
C382 C383 1.367 . S
C383 C382 1.367 . S
C383 C385 1.433 . S
C384 C380 1.350 . S
C384 C381 1.463 . S
C384 N388 1.427 . S
C385 H375 0.929 . S
C385 C383 1.433 . S
C385 N388 1.384 . S
C386 H377 0.929 . S
C386 C378 1.378 . S
C386 C381 1.350 . S
C387 H374 0.929 . S
C387 C379 1.433 . S
C387 N389 1.384 . S
N388 C384 1.427 . S
N388 C385 1.384 . S
N389 C381 1.427 . S
N389 C387 1.384 . S
H390 C396 0.930 . S
H391 C400 0.930 . S
H392 C405 0.929 . S
H393 C403 0.929 . S
H394 C398 0.929 . S
H395 C404 0.929 . S
C396 H390 0.930 . S
C396 C397 1.367 . S
C396 C404 1.378 . S
C397 C396 1.367 . S
C397 C405 1.433 . S
C398 H394 0.929 . S
C398 C400 1.378 . S
C398 C402 1.350 . S
C399 C402 1.463 . S
C399 C404 1.350 . S
C399 N407 1.427 . S
C400 H391 0.930 . S
C400 C398 1.378 . S
C400 C401 1.367 . S
C401 C400 1.367 . S
C401 C403 1.433 . S
C402 C398 1.350 . S
C402 C399 1.463 . S
C402 N406 1.427 . S
C403 H393 0.929 . S
C403 C401 1.433 . S
C403 N406 1.384 . S
C404 H395 0.929 . S
C404 C396 1.378 . S
C404 C399 1.350 . S
C405 H392 0.929 . S
C405 C397 1.433 . S
C405 N407 1.384 . S
N406 C402 1.427 . S
N406 C403 1.384 . S
N407 C399 1.427 . S
N407 C405 1.384 . S
H408 C414 0.930 . S
H409 C418 0.930 . S
H410 C423 0.929 . S
H411 C421 0.929 . S
H412 C416 0.929 . S
H413 C422 0.929 . S
C414 H408 0.930 . S
C414 C415 1.367 . S
C414 C422 1.378 . S
C415 C414 1.367 . S
C415 C423 1.433 . S
C416 H412 0.929 . S
C416 C418 1.378 . S
C416 C420 1.350 . S
C417 C420 1.463 . S
C417 C422 1.350 . S
C417 N425 1.427 . S
C418 H409 0.930 . S
C418 C416 1.378 . S
C418 C419 1.367 . S
C419 C418 1.367 . S
C419 C421 1.433 . S
C420 C416 1.350 . S
C420 C417 1.463 . S
C420 N424 1.427 . S
C421 H411 0.929 . S
C421 C419 1.433 . S
C421 N424 1.384 . S
C422 H413 0.929 . S
C422 C414 1.378 . S
C422 C417 1.350 . S
C423 H410 0.929 . S
C423 C415 1.433 . S
C423 N425 1.384 . S
N424 C420 1.427 . S
N424 C421 1.384 . S
N425 C417 1.427 . S
N425 C423 1.384 . S
H426 C432 0.930 . S
H427 C436 0.930 . S
H428 C441 0.929 . S
H429 C439 0.929 . S
H430 C434 0.929 . S
H431 C440 0.929 . S
C432 H426 0.930 . S
C432 C433 1.367 . S
C432 C440 1.378 . S
C433 C432 1.367 . S
C433 C441 1.433 . S
C434 H430 0.929 . S
C434 C436 1.378 . S
C434 C438 1.350 . S
C435 C438 1.463 . S
C435 C440 1.350 . S
C435 N443 1.427 . S
C436 H427 0.930 . S
C436 C434 1.378 . S
C436 C437 1.367 . S
C437 C436 1.367 . S
C437 C439 1.433 . S
C438 C434 1.350 . S
C438 C435 1.463 . S
C438 N442 1.427 . S
C439 H429 0.929 . S
C439 C437 1.433 . S
C439 N442 1.384 . S
C440 H431 0.929 . S
C440 C432 1.378 . S
C440 C435 1.350 . S
C441 H428 0.929 . S
C441 C433 1.433 . S
C441 N443 1.384 . S
N442 C438 1.427 . S
N442 C439 1.384 . S
N443 C435 1.427 . S
N443 C441 1.384 . S
H444 C450 0.930 . S
H445 C454 0.930 . S
H446 C459 0.929 . S
H447 C457 0.929 . S
H448 C452 0.929 . S
H449 C458 0.929 . S
C450 H444 0.930 . S
C450 C451 1.367 . S
C450 C458 1.378 . S
C451 C450 1.367 . S
C451 C459 1.433 . S
C452 H448 0.929 . S
C452 C454 1.378 . S
C452 C456 1.350 . S
C453 C456 1.463 . S
C453 C458 1.350 . S
C453 N461 1.427 . S
C454 H445 0.930 . S
C454 C452 1.378 . S
C454 C455 1.367 . S
C455 C454 1.367 . S
C455 C457 1.433 . S
C456 C452 1.350 . S
C456 C453 1.463 . S
C456 N460 1.427 . S
C457 H447 0.929 . S
C457 C455 1.433 . S
C457 N460 1.384 . S
C458 H449 0.929 . S
C458 C450 1.378 . S
C458 C453 1.350 . S
C459 H446 0.929 . S
C459 C451 1.433 . S
C459 N461 1.384 . S
N460 C456 1.427 . S
N460 C457 1.384 . S
N461 C453 1.427 . S
N461 C459 1.384 . S
H462 C468 0.937 . S
H463 C472 0.930 . S
H464 C477 0.929 . S
H465 C475 0.928 . S
H466 C470 0.929 . S
H467 C476 0.936 . S
C468 H462 0.937 . S
C468 C469 1.367 . S
C468 C476 1.378 . S
C469 C468 1.367 . S
C469 C477 1.433 . S
C470 H466 0.929 . S
C470 C472 1.378 . S
C470 C474 1.350 . S
C471 C474 1.463 . S
C471 C476 1.350 . S
C471 N479 1.427 . S
C472 H463 0.930 . S
C472 C470 1.378 . S
C472 C473 1.367 . S
C473 C472 1.367 . S
C473 C475 1.433 . S
C474 C470 1.350 . S
C474 C471 1.463 . S
C474 N478 1.427 . S
C475 H465 0.928 . S
C475 C473 1.433 . S
C475 N478 1.384 . S
C476 H467 0.936 . S
C476 C468 1.378 . S
C476 C471 1.350 . S
C477 H464 0.929 . S
C477 C469 1.433 . S
C477 N479 1.384 . S
N478 C474 1.427 . S
N478 C475 1.384 . S
N479 C471 1.427 . S
N479 C477 1.384 . S
H480 C486 0.930 . S
H481 C490 0.930 . S
H482 C495 0.929 . S
H483 C493 0.929 . S
H484 C488 0.929 . S
H485 C494 0.929 . S
C486 H480 0.930 . S
C486 C487 1.367 . S
C486 C494 1.378 . S
C487 C486 1.367 . S
C487 C495 1.433 . S
C488 H484 0.929 . S
C488 C490 1.378 . S
C488 C492 1.350 . S
C489 C492 1.463 . S
C489 C494 1.350 . S
C489 N497 1.427 . S
C490 H481 0.930 . S
C490 C488 1.378 . S
C490 C491 1.367 . S
C491 C490 1.367 . S
C491 C493 1.433 . S
C492 C488 1.350 . S
C492 C489 1.463 . S
C492 N496 1.427 . S
C493 H483 0.929 . S
C493 C491 1.433 . S
C493 N496 1.384 . S
C494 H485 0.929 . S
C494 C486 1.378 . S
C494 C489 1.350 . S
C495 H482 0.929 . S
C495 C487 1.433 . S
C495 N497 1.384 . S
N496 C492 1.427 . S
N496 C493 1.384 . S
N497 C489 1.427 . S
N497 C495 1.384 . S
H498 C504 0.930 . S
H499 C508 0.943 . S
H500 C513 0.934 . S
H501 C511 0.929 . S
H502 C506 0.942 . S
H503 C512 0.929 . S
C504 H498 0.930 . S
C504 C505 1.367 . S
C504 C512 1.378 . S
C505 C504 1.367 . S
C505 C513 1.433 . S
C506 H502 0.942 . S
C506 C508 1.378 . S
C506 C510 1.350 . S
C507 C510 1.463 . S
C507 C512 1.350 . S
C507 N515 1.427 . S
C508 H499 0.943 . S
C508 C506 1.378 . S
C508 C509 1.367 . S
C509 C508 1.367 . S
C509 C511 1.433 . S
C510 C506 1.350 . S
C510 C507 1.463 . S
C510 N514 1.427 . S
C511 H501 0.929 . S
C511 C509 1.433 . S
C511 N514 1.384 . S
C512 H503 0.929 . S
C512 C504 1.378 . S
C512 C507 1.350 . S
C513 H500 0.934 . S
C513 C505 1.433 . S
C513 N515 1.384 . S
N514 C510 1.427 . S
N514 C511 1.384 . S
N515 C507 1.427 . S
N515 C513 1.384 . S
H516 C522 0.930 . S
H517 C526 0.930 . S
H518 C531 0.929 . S
H519 C529 0.929 . S
H520 C524 0.929 . S
H521 C530 0.929 . S
C522 H516 0.930 . S
C522 C523 1.367 . S
C522 C530 1.378 . S
C523 C522 1.367 . S
C523 C531 1.433 . S
C524 H520 0.929 . S
C524 C526 1.378 . S
C524 C528 1.350 . S
C525 C528 1.463 . S
C525 C530 1.350 . S
C525 N533 1.427 . S
C526 H517 0.930 . S
C526 C524 1.378 . S
C526 C527 1.367 . S
C527 C526 1.367 . S
C527 C529 1.433 . S
C528 C524 1.350 . S
C528 C525 1.463 . S
C528 N532 1.427 . S
C529 H519 0.929 . S
C529 C527 1.433 . S
C529 N532 1.384 . S
C530 H521 0.929 . S
C530 C522 1.378 . S
C530 C525 1.350 . S
C531 H518 0.929 . S
C531 C523 1.433 . S
C531 N533 1.384 . S
N532 C528 1.427 . S
N532 C529 1.384 . S
N533 C525 1.427 . S
N533 C531 1.384 . S
H534 C540 0.930 . S
H535 C544 0.930 . S
H536 C549 0.929 . S
H537 C547 0.929 . S
H538 C542 0.929 . S
H539 C548 0.929 . S
C540 H534 0.930 . S
C540 C541 1.367 . S
C540 C548 1.378 . S
C541 C540 1.367 . S
C541 C549 1.433 . S
C542 H538 0.929 . S
C542 C544 1.378 . S
C542 C546 1.350 . S
C543 C546 1.463 . S
C543 C548 1.350 . S
C543 N551 1.427 . S
C544 H535 0.930 . S
C544 C542 1.378 . S
C544 C545 1.367 . S
C545 C544 1.367 . S
C545 C547 1.433 . S
C546 C542 1.350 . S
C546 C543 1.463 . S
C546 N550 1.427 . S
C547 H537 0.929 . S
C547 C545 1.433 . S
C547 N550 1.384 . S
C548 H539 0.929 . S
C548 C540 1.378 . S
C548 C543 1.350 . S
C549 H536 0.929 . S
C549 C541 1.433 . S
C549 N551 1.384 . S
N550 C546 1.427 . S
N550 C547 1.384 . S
N551 C543 1.427 . S
N551 C549 1.384 . S
H552 C558 0.930 . S
H553 C562 0.930 . S
H554 C567 0.929 . S
H555 C565 0.929 . S
H556 C560 0.929 . S
H557 C566 0.929 . S
C558 H552 0.930 . S
C558 C559 1.367 . S
C558 C566 1.378 . S
C559 C558 1.367 . S
C559 C567 1.433 . S
C560 H556 0.929 . S
C560 C562 1.378 . S
C560 C564 1.350 . S
C561 C564 1.463 . S
C561 C566 1.350 . S
C561 N569 1.427 . S
C562 H553 0.930 . S
C562 C560 1.378 . S
C562 C563 1.367 . S
C563 C562 1.367 . S
C563 C565 1.433 . S
C564 C560 1.350 . S
C564 C561 1.463 . S
C564 N568 1.427 . S
C565 H555 0.929 . S
C565 C563 1.433 . S
C565 N568 1.384 . S
C566 H557 0.929 . S
C566 C558 1.378 . S
C566 C561 1.350 . S
C567 H554 0.929 . S
C567 C559 1.433 . S
C567 N569 1.384 . S
N568 C564 1.427 . S
N568 C565 1.384 . S
N569 C561 1.427 . S
N569 C567 1.384 . S
H570 C576 0.930 . S
H571 C580 0.930 . S
H572 C585 0.929 . S
H573 C583 0.929 . S
H574 C578 0.929 . S
H575 C584 0.929 . S
C576 H570 0.930 . S
C576 C577 1.367 . S
C576 C584 1.378 . S
C577 C576 1.367 . S
C577 C585 1.433 . S
C578 H574 0.929 . S
C578 C580 1.378 . S
C578 C582 1.350 . S
C579 C582 1.463 . S
C579 C584 1.350 . S
C579 N587 1.427 . S
C580 H571 0.930 . S
C580 C578 1.378 . S
C580 C581 1.367 . S
C581 C580 1.367 . S
C581 C583 1.433 . S
C582 C578 1.350 . S
C582 C579 1.463 . S
C582 N586 1.427 . S
C583 H573 0.929 . S
C583 C581 1.433 . S
C583 N586 1.384 . S
C584 H575 0.929 . S
C584 C576 1.378 . S
C584 C579 1.350 . S
C585 H572 0.929 . S
C585 C577 1.433 . S
C585 N587 1.384 . S
N586 C582 1.427 . S
N586 C583 1.384 . S
N587 C579 1.427 . S
N587 C585 1.384 . S
H588 C594 0.930 . S
H589 C598 0.930 . S
H590 C603 0.929 . S
H591 C601 0.929 . S
H592 C596 0.929 . S
H593 C602 0.929 . S
C594 H588 0.930 . S
C594 C595 1.367 . S
C594 C602 1.378 . S
C595 C594 1.367 . S
C595 C603 1.433 . S
C596 H592 0.929 . S
C596 C598 1.378 . S
C596 C600 1.350 . S
C597 C600 1.463 . S
C597 C602 1.350 . S
C597 N605 1.427 . S
C598 H589 0.930 . S
C598 C596 1.378 . S
C598 C599 1.367 . S
C599 C598 1.367 . S
C599 C601 1.433 . S
C600 C596 1.350 . S
C600 C597 1.463 . S
C600 N604 1.427 . S
C601 H591 0.929 . S
C601 C599 1.433 . S
C601 N604 1.384 . S
C602 H593 0.929 . S
C602 C594 1.378 . S
C602 C597 1.350 . S
C603 H590 0.929 . S
C603 C595 1.433 . S
C603 N605 1.384 . S
N604 C600 1.427 . S
N604 C601 1.384 . S
N605 C597 1.427 . S
N605 C603 1.384 . S
H606 C612 0.930 . S
H607 C616 0.930 . S
H608 C621 0.929 . S
H609 C619 0.929 . S
H610 C614 0.929 . S
H611 C620 0.929 . S
C612 H606 0.930 . S
C612 C613 1.367 . S
C612 C620 1.378 . S
C613 C612 1.367 . S
C613 C621 1.433 . S
C614 H610 0.929 . S
C614 C616 1.378 . S
C614 C618 1.350 . S
C615 C618 1.463 . S
C615 C620 1.350 . S
C615 N623 1.427 . S
C616 H607 0.930 . S
C616 C614 1.378 . S
C616 C617 1.367 . S
C617 C616 1.367 . S
C617 C619 1.433 . S
C618 C614 1.350 . S
C618 C615 1.463 . S
C618 N622 1.427 . S
C619 H609 0.929 . S
C619 C617 1.433 . S
C619 N622 1.384 . S
C620 H611 0.929 . S
C620 C612 1.378 . S
C620 C615 1.350 . S
C621 H608 0.929 . S
C621 C613 1.433 . S
C621 N623 1.384 . S
N622 C618 1.427 . S
N622 C619 1.384 . S
N623 C615 1.427 . S
N623 C621 1.384 . S
H624 C630 0.930 . S
H625 C634 0.930 . S
H626 C639 0.929 . S
H627 C637 0.929 . S
H628 C632 0.929 . S
H629 C638 0.929 . S
C630 H624 0.930 . S
C630 C631 1.367 . S
C630 C638 1.378 . S
C631 C630 1.367 . S
C631 C639 1.433 . S
C632 H628 0.929 . S
C632 C634 1.378 . S
C632 C636 1.350 . S
C633 C636 1.463 . S
C633 C638 1.350 . S
C633 N641 1.427 . S
C634 H625 0.930 . S
C634 C632 1.378 . S
C634 C635 1.367 . S
C635 C634 1.367 . S
C635 C637 1.433 . S
C636 C632 1.350 . S
C636 C633 1.463 . S
C636 N640 1.427 . S
C637 H627 0.929 . S
C637 C635 1.433 . S
C637 N640 1.384 . S
C638 H629 0.929 . S
C638 C630 1.378 . S
C638 C633 1.350 . S
C639 H626 0.929 . S
C639 C631 1.433 . S
C639 N641 1.384 . S
N640 C636 1.427 . S
N640 C637 1.384 . S
N641 C633 1.427 . S
N641 C639 1.384 . S
H642 C648 0.930 . S
H643 C652 0.930 . S
H644 C657 0.929 . S
H645 C655 0.929 . S
H646 C650 0.929 . S
H647 C656 0.929 . S
C648 H642 0.930 . S
C648 C649 1.367 . S
C648 C656 1.378 . S
C649 C648 1.367 . S
C649 C657 1.433 . S
C650 H646 0.929 . S
C650 C652 1.378 . S
C650 C654 1.350 . S
C651 C654 1.463 . S
C651 C656 1.350 . S
C651 N659 1.427 . S
C652 H643 0.930 . S
C652 C650 1.378 . S
C652 C653 1.367 . S
C653 C652 1.367 . S
C653 C655 1.433 . S
C654 C650 1.350 . S
C654 C651 1.463 . S
C654 N658 1.427 . S
C655 H645 0.929 . S
C655 C653 1.433 . S
C655 N658 1.384 . S
C656 H647 0.929 . S
C656 C648 1.378 . S
C656 C651 1.350 . S
C657 H644 0.929 . S
C657 C649 1.433 . S
C657 N659 1.384 . S
N658 C654 1.427 . S
N658 C655 1.384 . S
N659 C651 1.427 . S
N659 C657 1.384 . S
H660 C666 0.930 . S
H661 C670 0.930 . S
H662 C675 0.929 . S
H663 C673 0.929 . S
H664 C668 0.929 . S
H665 C674 0.929 . S
C666 H660 0.930 . S
C666 C667 1.367 . S
C666 C674 1.378 . S
C667 C666 1.367 . S
C667 C675 1.433 . S
C668 H664 0.929 . S
C668 C670 1.378 . S
C668 C672 1.350 . S
C669 C672 1.463 . S
C669 C674 1.350 . S
C669 N677 1.427 . S
C670 H661 0.930 . S
C670 C668 1.378 . S
C670 C671 1.367 . S
C671 C670 1.367 . S
C671 C673 1.433 . S
C672 C668 1.350 . S
C672 C669 1.463 . S
C672 N676 1.427 . S
C673 H663 0.929 . S
C673 C671 1.433 . S
C673 N676 1.384 . S
C674 H665 0.929 . S
C674 C666 1.378 . S
C674 C669 1.350 . S
C675 H662 0.929 . S
C675 C667 1.433 . S
C675 N677 1.384 . S
N676 C672 1.427 . S
N676 C673 1.384 . S
N677 C669 1.427 . S
N677 C675 1.384 . S
H678 C684 0.930 . S
H679 C688 0.930 . S
H680 C693 0.929 . S
H681 C691 0.929 . S
H682 C686 0.929 . S
H683 C692 0.929 . S
C684 H678 0.930 . S
C684 C685 1.367 . S
C684 C692 1.378 . S
C685 C684 1.367 . S
C685 C693 1.433 . S
C686 H682 0.929 . S
C686 C688 1.378 . S
C686 C690 1.350 . S
C687 C690 1.463 . S
C687 C692 1.350 . S
C687 N695 1.427 . S
C688 H679 0.930 . S
C688 C686 1.378 . S
C688 C689 1.367 . S
C689 C688 1.367 . S
C689 C691 1.433 . S
C690 C686 1.350 . S
C690 C687 1.463 . S
C690 N694 1.427 . S
C691 H681 0.929 . S
C691 C689 1.433 . S
C691 N694 1.384 . S
C692 H683 0.929 . S
C692 C684 1.378 . S
C692 C687 1.350 . S
C693 H680 0.929 . S
C693 C685 1.433 . S
C693 N695 1.384 . S
N694 C690 1.427 . S
N694 C691 1.384 . S
N695 C687 1.427 . S
N695 C693 1.384 . S
H696 C702 0.930 . S
H697 C706 0.930 . S
H698 C711 0.929 . S
H699 C709 0.929 . S
H700 C704 0.929 . S
H701 C710 0.929 . S
C702 H696 0.930 . S
C702 C703 1.367 . S
C702 C710 1.378 . S
C703 C702 1.367 . S
C703 C711 1.433 . S
C704 H700 0.929 . S
C704 C706 1.378 . S
C704 C708 1.350 . S
C705 C708 1.463 . S
C705 C710 1.350 . S
C705 N713 1.427 . S
C706 H697 0.930 . S
C706 C704 1.378 . S
C706 C707 1.367 . S
C707 C706 1.367 . S
C707 C709 1.433 . S
C708 C704 1.350 . S
C708 C705 1.463 . S
C708 N712 1.427 . S
C709 H699 0.929 . S
C709 C707 1.433 . S
C709 N712 1.384 . S
C710 H701 0.929 . S
C710 C702 1.378 . S
C710 C705 1.350 . S
C711 H698 0.929 . S
C711 C703 1.433 . S
C711 N713 1.384 . S
N712 C708 1.427 . S
N712 C709 1.384 . S
N713 C705 1.427 . S
N713 C711 1.384 . S
H714 C720 0.930 . S
H715 C724 0.930 . S
H716 C729 0.929 . S
H717 C727 0.929 . S
H718 C722 0.929 . S
H719 C728 0.929 . S
C720 H714 0.930 . S
C720 C721 1.367 . S
C720 C728 1.378 . S
C721 C720 1.367 . S
C721 C729 1.433 . S
C722 H718 0.929 . S
C722 C724 1.378 . S
C722 C726 1.350 . S
C723 C726 1.463 . S
C723 C728 1.350 . S
C723 N731 1.427 . S
C724 H715 0.930 . S
C724 C722 1.378 . S
C724 C725 1.367 . S
C725 C724 1.367 . S
C725 C727 1.433 . S
C726 C722 1.350 . S
C726 C723 1.463 . S
C726 N730 1.427 . S
C727 H717 0.929 . S
C727 C725 1.433 . S
C727 N730 1.384 . S
C728 H719 0.929 . S
C728 C720 1.378 . S
C728 C723 1.350 . S
C729 H716 0.929 . S
C729 C721 1.433 . S
C729 N731 1.384 . S
N730 C726 1.427 . S
N730 C727 1.384 . S
N731 C723 1.427 . S
N731 C729 1.384 . S
H732 C738 0.930 . S
H733 C742 0.930 . S
H734 C747 0.929 . S
H735 C745 0.929 . S
H736 C740 0.929 . S
H737 C746 0.929 . S
C738 H732 0.930 . S
C738 C739 1.367 . S
C738 C746 1.378 . S
C739 C738 1.367 . S
C739 C747 1.433 . S
C740 H736 0.929 . S
C740 C742 1.378 . S
C740 C744 1.350 . S
C741 C744 1.463 . S
C741 C746 1.350 . S
C741 N749 1.427 . S
C742 H733 0.930 . S
C742 C740 1.378 . S
C742 C743 1.367 . S
C743 C742 1.367 . S
C743 C745 1.433 . S
C744 C740 1.350 . S
C744 C741 1.463 . S
C744 N748 1.427 . S
C745 H735 0.929 . S
C745 C743 1.433 . S
C745 N748 1.384 . S
C746 H737 0.929 . S
C746 C738 1.378 . S
C746 C741 1.350 . S
C747 H734 0.929 . S
C747 C739 1.433 . S
C747 N749 1.384 . S
N748 C744 1.427 . S
N748 C745 1.384 . S
N749 C741 1.427 . S
N749 C747 1.384 . S
H750 C756 0.930 . S
H751 C760 0.930 . S
H752 C765 0.929 . S
H753 C763 0.929 . S
H754 C758 0.929 . S
H755 C764 0.929 . S
C756 H750 0.930 . S
C756 C757 1.367 . S
C756 C764 1.378 . S
C757 C756 1.367 . S
C757 C765 1.433 . S
C758 H754 0.929 . S
C758 C760 1.378 . S
C758 C762 1.350 . S
C759 C762 1.463 . S
C759 C764 1.350 . S
C759 N767 1.427 . S
C760 H751 0.930 . S
C760 C758 1.378 . S
C760 C761 1.367 . S
C761 C760 1.367 . S
C761 C763 1.433 . S
C762 C758 1.350 . S
C762 C759 1.463 . S
C762 N766 1.427 . S
C763 H753 0.929 . S
C763 C761 1.433 . S
C763 N766 1.384 . S
C764 H755 0.929 . S
C764 C756 1.378 . S
C764 C759 1.350 . S
C765 H752 0.929 . S
C765 C757 1.433 . S
C765 N767 1.384 . S
N766 C762 1.427 . S
N766 C763 1.384 . S
N767 C759 1.427 . S
N767 C765 1.384 . S
H768 C774 0.930 . S
H769 C778 0.930 . S
H770 C783 0.929 . S
H771 C781 0.929 . S
H772 C776 0.929 . S
H773 C782 0.929 . S
C774 H768 0.930 . S
C774 C775 1.367 1_545 S
C774 C782 1.378 . S
C775 C774 1.367 1_565 S
C775 C783 1.433 . S
C776 H772 0.929 . S
C776 C778 1.378 . S
C776 C780 1.350 1_565 S
C777 C780 1.463 1_566 S
C777 C782 1.350 1_565 S
C777 N785 1.427 . S
C778 H769 0.930 . S
C778 C776 1.378 . S
C778 C779 1.367 1_565 S
C779 C778 1.367 1_545 S
C779 C781 1.433 . S
C780 C776 1.350 1_545 S
C780 C777 1.463 1_544 S
C780 N784 1.427 . S
C781 H771 0.929 . S
C781 C779 1.433 . S
C781 N784 1.384 . S
C782 H773 0.929 . S
C782 C774 1.378 . S
C782 C777 1.350 1_545 S
C783 H770 0.929 . S
C783 C775 1.433 . S
C783 N785 1.384 . S
N784 C780 1.427 . S
N784 C781 1.384 . S
N785 C777 1.427 . S
N785 C783 1.384 . S
H786 C792 0.930 . S
H787 C796 0.930 . S
H788 C801 0.929 . S
H789 C799 0.929 . S
H790 C794 0.929 . S
H791 C800 0.929 . S
C792 H786 0.930 . S
C792 C793 1.367 . S
C792 C800 1.378 . S
C793 C792 1.367 . S
C793 C801 1.433 . S
C794 H790 0.929 . S
C794 C796 1.378 . S
C794 C798 1.350 . S
C795 C798 1.463 . S
C795 C800 1.350 . S
C795 N803 1.427 . S
C796 H787 0.930 . S
C796 C794 1.378 . S
C796 C797 1.367 . S
C797 C796 1.367 . S
C797 C799 1.433 . S
C798 C794 1.350 . S
C798 C795 1.463 . S
C798 N802 1.427 . S
C799 H789 0.929 . S
C799 C797 1.433 . S
C799 N802 1.384 . S
C800 H791 0.929 . S
C800 C792 1.378 . S
C800 C795 1.350 . S
C801 H788 0.929 . S
C801 C793 1.433 . S
C801 N803 1.384 . S
N802 C798 1.427 . S
N802 C799 1.384 . S
N803 C795 1.427 . S
N803 C801 1.384 . S
H804 C810 0.930 . S
H805 C814 0.930 . S
H806 C819 0.929 . S
H807 C817 0.929 . S
H808 C812 0.929 . S
H809 C818 0.929 . S
C810 H804 0.930 . S
C810 C811 1.367 . S
C810 C818 1.378 . S
C811 C810 1.367 . S
C811 C819 1.433 1_455 S
C812 H808 0.929 . S
C812 C814 1.378 . S
C812 C816 1.350 . S
C813 C816 1.463 1_456 S
C813 C818 1.350 . S
C813 N821 1.427 1_455 S
C814 H805 0.930 . S
C814 C812 1.378 . S
C814 C815 1.367 . S
C815 C814 1.367 . S
C815 C817 1.433 1_655 S
C816 C812 1.350 . S
C816 C813 1.463 1_654 S
C816 N820 1.427 1_655 S
C817 H807 0.929 . S
C817 C815 1.433 1_455 S
C817 N820 1.384 . S
C818 H809 0.929 . S
C818 C810 1.378 . S
C818 C813 1.350 . S
C819 H806 0.929 . S
C819 C811 1.433 1_655 S
C819 N821 1.384 . S
N820 C816 1.427 1_455 S
N820 C817 1.384 . S
N821 C813 1.427 1_655 S
N821 C819 1.384 . S
H822 C828 0.930 . S
H823 C832 0.930 . S
H824 C837 0.929 . S
H825 C835 0.929 . S
H826 C830 0.929 . S
H827 C836 0.929 . S
C828 H822 0.930 . S
C828 C829 1.367 1_565 S
C828 C836 1.378 . S
C829 C828 1.367 1_545 S
C829 C837 1.433 . S
C830 H826 0.929 . S
C830 C832 1.378 . S
C830 C834 1.350 1_545 S
C831 C834 1.463 1_545 S
C831 C836 1.350 1_545 S
C831 N839 1.427 . S
C832 H823 0.930 . S
C832 C830 1.378 . S
C832 C833 1.367 1_545 S
C833 C832 1.367 1_565 S
C833 C835 1.433 . S
C834 C830 1.350 1_565 S
C834 C831 1.463 1_565 S
C834 N838 1.427 . S
C835 H825 0.929 . S
C835 C833 1.433 . S
C835 N838 1.384 . S
C836 H827 0.929 . S
C836 C828 1.378 . S
C836 C831 1.350 1_565 S
C837 H824 0.929 . S
C837 C829 1.433 . S
C837 N839 1.384 . S
N838 C834 1.427 . S
N838 C835 1.384 . S
N839 C831 1.427 . S
N839 C837 1.384 . S
H840 C846 0.930 . S
H841 C850 0.930 . S
H842 C855 0.929 . S
H843 C853 0.929 . S
H844 C848 0.929 . S
H845 C854 0.929 . S
C846 H840 0.930 . S
C846 C847 1.367 . S
C846 C854 1.378 . S
C847 C846 1.367 . S
C847 C855 1.433 . S
C848 H844 0.929 . S
C848 C850 1.378 . S
C848 C852 1.350 . S
C849 C852 1.463 1_554 S
C849 C854 1.350 . S
C849 N857 1.427 . S
C850 H841 0.930 . S
C850 C848 1.378 . S
C850 C851 1.367 . S
C851 C850 1.367 . S
C851 C853 1.433 . S
C852 C848 1.350 . S
C852 C849 1.463 1_556 S
C852 N856 1.427 . S
C853 H843 0.929 . S
C853 C851 1.433 . S
C853 N856 1.384 . S
C854 H845 0.929 . S
C854 C846 1.378 . S
C854 C849 1.350 . S
C855 H842 0.929 . S
C855 C847 1.433 . S
C855 N857 1.384 . S
N856 C852 1.427 . S
N856 C853 1.384 . S
N857 C849 1.427 . S
N857 C855 1.384 . S
H858 C864 0.930 . S
H859 C868 0.930 . S
H860 C873 0.929 . S
H861 C871 0.929 . S
H862 C866 0.929 . S
H863 C872 0.929 . S
C864 H858 0.930 . S
C864 C865 1.367 1_655 S
C864 C872 1.378 . S
C865 C864 1.367 1_455 S
C865 C873 1.433 . S
C866 H862 0.929 . S
C866 C868 1.378 . S
C866 C870 1.350 1_455 S
C867 C870 1.463 1_455 S
C867 C872 1.350 1_455 S
C867 N875 1.427 . S
C868 H859 0.930 . S
C868 C866 1.378 . S
C868 C869 1.367 1_455 S
C869 C868 1.367 1_655 S
C869 C871 1.433 . S
C870 C866 1.350 1_655 S
C870 C867 1.463 1_655 S
C870 N874 1.427 . S
C871 H861 0.929 . S
C871 C869 1.433 . S
C871 N874 1.384 . S
C872 H863 0.929 . S
C872 C864 1.378 . S
C872 C867 1.350 1_655 S
C873 H860 0.929 . S
C873 C865 1.433 . S
C873 N875 1.384 . S
N874 C870 1.427 . S
N874 C871 1.384 . S
N875 C867 1.427 . S
N875 C873 1.384 . S
H876 C882 0.925 1_545 S
H877 C886 0.925 1_565 S
H878 C891 0.929 . S
H879 C889 0.929 . S
H880 C884 0.929 . S
H881 C890 0.929 . S
C882 H876 0.925 1_565 S
C882 C883 1.367 . S
C882 C890 1.378 1_565 S
C883 C882 1.367 . S
C883 C891 1.433 . S
C884 H880 0.929 . S
C884 C886 1.378 1_565 S
C884 C888 1.350 1_565 S
C885 C888 1.463 1_566 S
C885 C890 1.350 1_565 S
C885 N893 1.427 . S
C886 H877 0.925 1_545 S
C886 C884 1.378 1_545 S
C886 C887 1.367 . S
C887 C886 1.367 . S
C887 C889 1.433 . S
C888 C884 1.350 1_545 S
C888 C885 1.463 1_544 S
C888 N892 1.427 . S
C889 H879 0.929 . S
C889 C887 1.433 . S
C889 N892 1.384 . S
C890 H881 0.929 . S
C890 C882 1.378 1_545 S
C890 C885 1.350 1_545 S
C891 H878 0.929 . S
C891 C883 1.433 . S
C891 N893 1.384 . S
N892 C888 1.427 . S
N892 C889 1.384 . S
N893 C885 1.427 . S
N893 C891 1.384 . S
H894 C900 0.930 . S
H895 C904 0.930 . S
H896 C909 0.929 . S
H897 C907 0.929 . S
H898 C902 0.929 . S
H899 C908 0.929 . S
C900 H894 0.930 . S
C900 C901 1.367 . S
C900 C908 1.378 . S
C901 C900 1.367 . S
C901 C909 1.433 . S
C902 H898 0.929 . S
C902 C904 1.378 . S
C902 C906 1.350 . S
C903 C906 1.463 . S
C903 C908 1.350 . S
C903 N911 1.427 . S
C904 H895 0.930 . S
C904 C902 1.378 . S
C904 C905 1.367 . S
C905 C904 1.367 . S
C905 C907 1.433 . S
C906 C902 1.350 . S
C906 C903 1.463 . S
C906 N910 1.427 . S
C907 H897 0.929 . S
C907 C905 1.433 . S
C907 N910 1.384 . S
C908 H899 0.929 . S
C908 C900 1.378 . S
C908 C903 1.350 . S
C909 H896 0.929 . S
C909 C901 1.433 . S
C909 N911 1.384 . S
N910 C906 1.427 . S
N910 C907 1.384 . S
N911 C903 1.427 . S
N911 C909 1.384 . S
H912 C918 0.930 . S
H913 C922 0.930 . S
H914 C927 0.929 . S
H915 C925 0.929 . S
H916 C920 0.929 . S
H917 C926 0.929 . S
C918 H912 0.930 . S
C918 C919 1.367 1_455 S
C918 C926 1.378 . S
C919 C918 1.367 1_655 S
C919 C927 1.433 . S
C920 H916 0.929 . S
C920 C922 1.378 . S
C920 C924 1.350 1_655 S
C921 C924 1.463 1_654 S
C921 C926 1.350 1_655 S
C921 N929 1.427 . S
C922 H913 0.930 . S
C922 C920 1.378 . S
C922 C923 1.367 1_655 S
C923 C922 1.367 1_455 S
C923 C925 1.433 . S
C924 C920 1.350 1_455 S
C924 C921 1.463 1_456 S
C924 N928 1.427 . S
C925 H915 0.929 . S
C925 C923 1.433 . S
C925 N928 1.384 . S
C926 H917 0.929 . S
C926 C918 1.378 . S
C926 C921 1.350 1_455 S
C927 H914 0.929 . S
C927 C919 1.433 . S
C927 N929 1.384 . S
N928 C924 1.427 . S
N928 C925 1.384 . S
N929 C921 1.427 . S
N929 C927 1.384 . S
H930 C936 0.930 . S
H931 C940 0.930 . S
H932 C945 0.929 . S
H933 C943 0.929 . S
H934 C938 0.929 . S
H935 C944 0.929 . S
C936 H930 0.930 . S
C936 C937 1.367 1_545 S
C936 C944 1.378 . S
C937 C936 1.367 1_565 S
C937 C945 1.433 . S
C938 H934 0.929 . S
C938 C940 1.378 . S
C938 C942 1.350 1_565 S
C939 C942 1.463 1_565 S
C939 C944 1.350 1_565 S
C939 N947 1.427 . S
C940 H931 0.930 . S
C940 C938 1.378 . S
C940 C941 1.367 1_565 S
C941 C940 1.367 1_545 S
C941 C943 1.433 . S
C942 C938 1.350 1_545 S
C942 C939 1.463 1_545 S
C942 N946 1.427 . S
C943 H933 0.929 . S
C943 C941 1.433 . S
C943 N946 1.384 . S
C944 H935 0.929 . S
C944 C936 1.378 . S
C944 C939 1.350 1_545 S
C945 H932 0.929 . S
C945 C937 1.433 . S
C945 N947 1.384 . S
N946 C942 1.427 . S
N946 C943 1.384 . S
N947 C939 1.427 . S
N947 C945 1.384 . S
H948 C954 0.930 . S
H949 C958 0.930 . S
H950 C963 0.929 . S
H951 C961 0.929 . S
H952 C956 0.929 . S
H953 C962 0.929 . S
C954 H948 0.930 . S
C954 C955 1.367 . S
C954 C962 1.378 . S
C955 C954 1.367 . S
C955 C963 1.433 . S
C956 H952 0.929 . S
C956 C958 1.378 . S
C956 C960 1.350 . S
C957 C960 1.463 1_554 S
C957 C962 1.350 . S
C957 N965 1.427 . S
C958 H949 0.930 . S
C958 C956 1.378 . S
C958 C959 1.367 . S
C959 C958 1.367 . S
C959 C961 1.433 . S
C960 C956 1.350 . S
C960 C957 1.463 1_556 S
C960 N964 1.427 . S
C961 H951 0.929 . S
C961 C959 1.433 . S
C961 N964 1.384 . S
C962 H953 0.929 . S
C962 C954 1.378 . S
C962 C957 1.350 . S
C963 H950 0.929 . S
C963 C955 1.433 . S
C963 N965 1.384 . S
N964 C960 1.427 . S
N964 C961 1.384 . S
N965 C957 1.427 . S
N965 C963 1.384 . S
H966 C972 0.930 . S
H967 C976 0.930 . S
H968 C981 0.929 . S
H969 C979 0.929 . S
H970 C974 0.929 . S
H971 C980 0.929 . S
C972 H966 0.930 . S
C972 C973 1.367 . S
C972 C980 1.378 . S
C973 C972 1.367 . S
C973 C981 1.433 1_455 S
C974 H970 0.929 . S
C974 C976 1.378 . S
C974 C978 1.350 . S
C975 C978 1.463 1_455 S
C975 C980 1.350 . S
C975 N983 1.427 1_455 S
C976 H967 0.930 . S
C976 C974 1.378 . S
C976 C977 1.367 . S
C977 C976 1.367 . S
C977 C979 1.433 1_655 S
C978 C974 1.350 . S
C978 C975 1.463 1_655 S
C978 N982 1.427 1_655 S
C979 H969 0.929 . S
C979 C977 1.433 1_455 S
C979 N982 1.384 . S
C980 H971 0.929 . S
C980 C972 1.378 . S
C980 C975 1.350 . S
C981 H968 0.929 . S
C981 C973 1.433 1_655 S
C981 N983 1.384 . S
N982 C978 1.427 1_455 S
N982 C979 1.384 . S
N983 C975 1.427 1_655 S
N983 C981 1.384 . S
H984 C990 0.930 . S
H985 C994 0.930 . S
H986 C999 0.929 . S
H987 C997 0.929 . S
H988 C992 0.929 . S
H989 C998 0.929 . S
C990 H984 0.930 . S
C990 C991 1.367 . S
C990 C998 1.378 . S
C991 C990 1.367 . S
C991 C999 1.433 . S
C992 H988 0.929 . S
C992 C994 1.378 . S
C992 C996 1.350 . S
C993 C996 1.463 . S
C993 C998 1.350 . S
C993 N1001 1.427 . S
C994 H985 0.930 . S
C994 C992 1.378 . S
C994 C995 1.367 . S
C995 C994 1.367 . S
C995 C997 1.433 . S
C996 C992 1.350 . S
C996 C993 1.463 . S
C996 N1000 1.427 . S
C997 H987 0.929 . S
C997 C995 1.433 . S
C997 N1000 1.384 . S
C998 H989 0.929 . S
C998 C990 1.378 . S
C998 C993 1.350 . S
C999 H986 0.929 . S
C999 C991 1.433 . S
C999 N1001 1.384 . S
N1000 C996 1.427 . S
N1000 C997 1.384 . S
N1001 C993 1.427 . S
N1001 C999 1.384 . S
H1002 C1008 0.930 . S
H1003 C1012 0.930 . S
H1004 C1017 0.929 . S
H1005 C1015 0.929 . S
H1006 C1010 0.929 . S
H1007 C1016 0.929 . S
C1008 H1002 0.930 . S
C1008 C1009 1.367 . S
C1008 C1016 1.378 . S
C1009 C1008 1.367 . S
C1009 C1017 1.433 . S
C1010 H1006 0.929 . S
C1010 C1012 1.378 . S
C1010 C1014 1.350 . S
C1011 C1014 1.463 . S
C1011 C1016 1.350 . S
C1011 N1019 1.427 . S
C1012 H1003 0.930 . S
C1012 C1010 1.378 . S
C1012 C1013 1.367 . S
C1013 C1012 1.367 . S
C1013 C1015 1.433 . S
C1014 C1010 1.350 . S
C1014 C1011 1.463 . S
C1014 N1018 1.427 . S
C1015 H1005 0.929 . S
C1015 C1013 1.433 . S
C1015 N1018 1.384 . S
C1016 H1007 0.929 . S
C1016 C1008 1.378 . S
C1016 C1011 1.350 . S
C1017 H1004 0.929 . S
C1017 C1009 1.433 . S
C1017 N1019 1.384 . S
N1018 C1014 1.427 . S
N1018 C1015 1.384 . S
N1019 C1011 1.427 . S
N1019 C1017 1.384 . S
H1020 C1026 0.930 . S
H1021 C1030 0.930 . S
H1022 C1035 0.929 . S
H1023 C1033 0.929 . S
H1024 C1028 0.929 . S
H1025 C1034 0.929 . S
C1026 H1020 0.930 . S
C1026 C1027 1.367 . S
C1026 C1034 1.378 . S
C1027 C1026 1.367 . S
C1027 C1035 1.433 . S
C1028 H1024 0.929 . S
C1028 C1030 1.378 . S
C1028 C1032 1.350 . S
C1029 C1032 1.463 . S
C1029 C1034 1.350 . S
C1029 N1037 1.427 . S
C1030 H1021 0.930 . S
C1030 C1028 1.378 . S
C1030 C1031 1.367 . S
C1031 C1030 1.367 . S
C1031 C1033 1.433 . S
C1032 C1028 1.350 . S
C1032 C1029 1.463 . S
C1032 N1036 1.427 . S
C1033 H1023 0.929 . S
C1033 C1031 1.433 . S
C1033 N1036 1.384 . S
C1034 H1025 0.929 . S
C1034 C1026 1.378 . S
C1034 C1029 1.350 . S
C1035 H1022 0.929 . S
C1035 C1027 1.433 . S
C1035 N1037 1.384 . S
N1036 C1032 1.427 . S
N1036 C1033 1.384 . S
N1037 C1029 1.427 . S
N1037 C1035 1.384 . S
H1038 C1044 0.930 . S
H1039 C1048 0.930 . S
H1040 C1053 0.929 . S
H1041 C1051 0.929 . S
H1042 C1046 0.929 . S
H1043 C1052 0.929 . S
C1044 H1038 0.930 . S
C1044 C1045 1.367 . S
C1044 C1052 1.378 . S
C1045 C1044 1.367 . S
C1045 C1053 1.433 . S
C1046 H1042 0.929 . S
C1046 C1048 1.378 . S
C1046 C1050 1.350 . S
C1047 C1050 1.463 . S
C1047 C1052 1.350 . S
C1047 N1055 1.427 . S
C1048 H1039 0.930 . S
C1048 C1046 1.378 . S
C1048 C1049 1.367 . S
C1049 C1048 1.367 . S
C1049 C1051 1.433 . S
C1050 C1046 1.350 . S
C1050 C1047 1.463 . S
C1050 N1054 1.427 . S
C1051 H1041 0.929 . S
C1051 C1049 1.433 . S
C1051 N1054 1.384 . S
C1052 H1043 0.929 . S
C1052 C1044 1.378 . S
C1052 C1047 1.350 . S
C1053 H1040 0.929 . S
C1053 C1045 1.433 . S
C1053 N1055 1.384 . S
N1054 C1050 1.427 . S
N1054 C1051 1.384 . S
N1055 C1047 1.427 . S
N1055 C1053 1.384 . S
H1056 C1062 0.930 . S
H1057 C1066 0.930 . S
H1058 C1071 0.929 . S
H1059 C1069 0.929 . S
H1060 C1064 0.929 . S
H1061 C1070 0.929 . S
C1062 H1056 0.930 . S
C1062 C1063 1.367 . S
C1062 C1070 1.378 . S
C1063 C1062 1.367 . S
C1063 C1071 1.433 . S
C1064 H1060 0.929 . S
C1064 C1066 1.378 . S
C1064 C1068 1.350 . S
C1065 C1068 1.463 . S
C1065 C1070 1.350 . S
C1065 N1073 1.427 . S
C1066 H1057 0.930 . S
C1066 C1064 1.378 . S
C1066 C1067 1.367 . S
C1067 C1066 1.367 . S
C1067 C1069 1.433 . S
C1068 C1064 1.350 . S
C1068 C1065 1.463 . S
C1068 N1072 1.427 . S
C1069 H1059 0.929 . S
C1069 C1067 1.433 . S
C1069 N1072 1.384 . S
C1070 H1061 0.929 . S
C1070 C1062 1.378 . S
C1070 C1065 1.350 . S
C1071 H1058 0.929 . S
C1071 C1063 1.433 . S
C1071 N1073 1.384 . S
N1072 C1068 1.427 . S
N1072 C1069 1.384 . S
N1073 C1065 1.427 . S
N1073 C1071 1.384 . S
H1074 C1080 0.930 . S
H1075 C1084 0.930 . S
H1076 C1089 0.929 . S
H1077 C1087 0.929 . S
H1078 C1082 0.929 . S
H1079 C1088 0.929 . S
C1080 H1074 0.930 . S
C1080 C1081 1.367 . S
C1080 C1088 1.378 . S
C1081 C1080 1.367 . S
C1081 C1089 1.433 . S
C1082 H1078 0.929 . S
C1082 C1084 1.378 . S
C1082 C1086 1.350 . S
C1083 C1086 1.463 . S
C1083 C1088 1.350 . S
C1083 N1091 1.427 . S
C1084 H1075 0.930 . S
C1084 C1082 1.378 . S
C1084 C1085 1.367 . S
C1085 C1084 1.367 . S
C1085 C1087 1.433 . S
C1086 C1082 1.350 . S
C1086 C1083 1.463 . S
C1086 N1090 1.427 . S
C1087 H1077 0.929 . S
C1087 C1085 1.433 . S
C1087 N1090 1.384 . S
C1088 H1079 0.929 . S
C1088 C1080 1.378 . S
C1088 C1083 1.350 . S
C1089 H1076 0.929 . S
C1089 C1081 1.433 . S
C1089 N1091 1.384 . S
N1090 C1086 1.427 . S
N1090 C1087 1.384 . S
N1091 C1083 1.427 . S
N1091 C1089 1.384 . S
H1092 C1098 0.930 . S
H1093 C1102 0.930 . S
H1094 C1107 0.929 . S
H1095 C1105 0.929 . S
H1096 C1100 0.929 . S
H1097 C1106 0.929 . S
C1098 H1092 0.930 . S
C1098 C1099 1.367 . S
C1098 C1106 1.378 . S
C1099 C1098 1.367 . S
C1099 C1107 1.433 . S
C1100 H1096 0.929 . S
C1100 C1102 1.378 . S
C1100 C1104 1.350 . S
C1101 C1104 1.463 . S
C1101 C1106 1.350 . S
C1101 N1109 1.427 . S
C1102 H1093 0.930 . S
C1102 C1100 1.378 . S
C1102 C1103 1.367 . S
C1103 C1102 1.367 . S
C1103 C1105 1.433 . S
C1104 C1100 1.350 . S
C1104 C1101 1.463 . S
C1104 N1108 1.427 . S
C1105 H1095 0.929 . S
C1105 C1103 1.433 . S
C1105 N1108 1.384 . S
C1106 H1097 0.929 . S
C1106 C1098 1.378 . S
C1106 C1101 1.350 . S
C1107 H1094 0.929 . S
C1107 C1099 1.433 . S
C1107 N1109 1.384 . S
N1108 C1104 1.427 . S
N1108 C1105 1.384 . S
N1109 C1101 1.427 . S
N1109 C1107 1.384 . S
H1110 C1116 0.930 . S
H1111 C1120 0.930 . S
H1112 C1125 0.929 . S
H1113 C1123 0.929 . S
H1114 C1118 0.929 . S
H1115 C1124 0.929 . S
C1116 H1110 0.930 . S
C1116 C1117 1.367 . S
C1116 C1124 1.378 . S
C1117 C1116 1.367 . S
C1117 C1125 1.433 . S
C1118 H1114 0.929 . S
C1118 C1120 1.378 . S
C1118 C1122 1.350 . S
C1119 C1122 1.463 . S
C1119 C1124 1.350 . S
C1119 N1127 1.427 . S
C1120 H1111 0.930 . S
C1120 C1118 1.378 . S
C1120 C1121 1.367 . S
C1121 C1120 1.367 . S
C1121 C1123 1.433 . S
C1122 C1118 1.350 . S
C1122 C1119 1.463 . S
C1122 N1126 1.427 . S
C1123 H1113 0.929 . S
C1123 C1121 1.433 . S
C1123 N1126 1.384 . S
C1124 H1115 0.929 . S
C1124 C1116 1.378 . S
C1124 C1119 1.350 . S
C1125 H1112 0.929 . S
C1125 C1117 1.433 . S
C1125 N1127 1.384 . S
N1126 C1122 1.427 . S
N1126 C1123 1.384 . S
N1127 C1119 1.427 . S
N1127 C1125 1.384 . S
H1128 C1134 0.930 . S
H1129 C1138 0.930 . S
H1130 C1143 0.929 . S
H1131 C1141 0.929 . S
H1132 C1136 0.929 . S
H1133 C1142 0.929 . S
C1134 H1128 0.930 . S
C1134 C1135 1.367 . S
C1134 C1142 1.378 . S
C1135 C1134 1.367 . S
C1135 C1143 1.433 . S
C1136 H1132 0.929 . S
C1136 C1138 1.378 . S
C1136 C1140 1.350 . S
C1137 C1140 1.463 . S
C1137 C1142 1.350 . S
C1137 N1145 1.427 . S
C1138 H1129 0.930 . S
C1138 C1136 1.378 . S
C1138 C1139 1.367 . S
C1139 C1138 1.367 . S
C1139 C1141 1.433 . S
C1140 C1136 1.350 . S
C1140 C1137 1.463 . S
C1140 N1144 1.427 . S
C1141 H1131 0.929 . S
C1141 C1139 1.433 . S
C1141 N1144 1.384 . S
C1142 H1133 0.929 . S
C1142 C1134 1.378 . S
C1142 C1137 1.350 . S
C1143 H1130 0.929 . S
C1143 C1135 1.433 . S
C1143 N1145 1.384 . S
N1144 C1140 1.427 . S
N1144 C1141 1.384 . S
N1145 C1137 1.427 . S
N1145 C1143 1.384 . S
H1146 C1152 0.930 . S
H1147 C1156 0.930 . S
H1148 C1161 0.929 . S
H1149 C1159 0.929 . S
H1150 C1154 0.929 . S
H1151 C1160 0.929 . S
C1152 H1146 0.930 . S
C1152 C1153 1.367 . S
C1152 C1160 1.378 . S
C1153 C1152 1.367 . S
C1153 C1161 1.433 . S
C1154 H1150 0.929 . S
C1154 C1156 1.378 . S
C1154 C1158 1.350 . S
C1155 C1158 1.463 . S
C1155 C1160 1.350 . S
C1155 N1163 1.427 . S
C1156 H1147 0.930 . S
C1156 C1154 1.378 . S
C1156 C1157 1.367 . S
C1157 C1156 1.367 . S
C1157 C1159 1.433 . S
C1158 C1154 1.350 . S
C1158 C1155 1.463 . S
C1158 N1162 1.427 . S
C1159 H1149 0.929 . S
C1159 C1157 1.433 . S
C1159 N1162 1.384 . S
C1160 H1151 0.929 . S
C1160 C1152 1.378 . S
C1160 C1155 1.350 . S
C1161 H1148 0.929 . S
C1161 C1153 1.433 . S
C1161 N1163 1.384 . S
N1162 C1158 1.427 . S
N1162 C1159 1.384 . S
N1163 C1155 1.427 . S
N1163 C1161 1.384 . S
H1164 C1170 0.930 . S
H1165 C1174 0.930 . S
H1166 C1179 0.929 . S
H1167 C1177 0.929 . S
H1168 C1172 0.929 . S
H1169 C1178 0.929 . S
C1170 H1164 0.930 . S
C1170 C1171 1.367 . S
C1170 C1178 1.378 . S
C1171 C1170 1.367 . S
C1171 C1179 1.433 . S
C1172 H1168 0.929 . S
C1172 C1174 1.378 . S
C1172 C1176 1.350 . S
C1173 C1176 1.463 . S
C1173 C1178 1.350 . S
C1173 N1181 1.427 . S
C1174 H1165 0.930 . S
C1174 C1172 1.378 . S
C1174 C1175 1.367 . S
C1175 C1174 1.367 . S
C1175 C1177 1.433 . S
C1176 C1172 1.350 . S
C1176 C1173 1.463 . S
C1176 N1180 1.427 . S
C1177 H1167 0.929 . S
C1177 C1175 1.433 . S
C1177 N1180 1.384 . S
C1178 H1169 0.929 . S
C1178 C1170 1.378 . S
C1178 C1173 1.350 . S
C1179 H1166 0.929 . S
C1179 C1171 1.433 . S
C1179 N1181 1.384 . S
N1180 C1176 1.427 . S
N1180 C1177 1.384 . S
N1181 C1173 1.427 . S
N1181 C1179 1.384 . S
H1182 C1188 0.930 . S
H1183 C1192 0.930 . S
H1184 C1197 0.929 . S
H1185 C1195 0.929 . S
H1186 C1190 0.929 . S
H1187 C1196 0.929 . S
C1188 H1182 0.930 . S
C1188 C1189 1.367 . S
C1188 C1196 1.378 . S
C1189 C1188 1.367 . S
C1189 C1197 1.433 . S
C1190 H1186 0.929 . S
C1190 C1192 1.378 . S
C1190 C1194 1.350 . S
C1191 C1194 1.463 . S
C1191 C1196 1.350 . S
C1191 N1199 1.427 . S
C1192 H1183 0.930 . S
C1192 C1190 1.378 . S
C1192 C1193 1.367 . S
C1193 C1192 1.367 . S
C1193 C1195 1.433 . S
C1194 C1190 1.350 . S
C1194 C1191 1.463 . S
C1194 N1198 1.427 . S
C1195 H1185 0.929 . S
C1195 C1193 1.433 . S
C1195 N1198 1.384 . S
C1196 H1187 0.929 . S
C1196 C1188 1.378 . S
C1196 C1191 1.350 . S
C1197 H1184 0.929 . S
C1197 C1189 1.433 . S
C1197 N1199 1.384 . S
N1198 C1194 1.427 . S
N1198 C1195 1.384 . S
N1199 C1191 1.427 . S
N1199 C1197 1.384 . S
C343 C219 1.261 . S
C347 C9 1.255 . S
C361 C23 1.249 . S
C365 C233 1.267 . S
C379 C37 1.260 . S
C383 C247 1.256 . S
C397 C51 1.257 . S
C401 C177 1.259 . S
C415 C191 1.263 . S
C419 C65 1.254 . S
C433 C79 1.255 . S
C437 C205 1.261 . S
C451 C303 1.258 . S
C455 C93 1.258 . S
C469 C107 1.263 . S
C473 C317 1.253 . S
C487 C121 1.254 . S
C491 C331 1.262 . S
C505 C261 1.249 . S
C509 C135 1.267 . S
C523 C149 1.261 . S
C527 C275 1.255 . S
C541 C289 1.260 . S
C545 C163 1.256 . S
C559 C3 1.592 . S
C563 C325 1.591 . S
C577 C255 1.592 . S
C581 C17 1.591 . S
C595 C31 1.592 . S
C599 C269 1.591 . S
C613 C283 1.591 . S
C617 C45 1.592 . S
C631 C59 1.592 . S
C635 C297 1.591 . S
C649 C311 1.592 . S
C653 C73 1.591 . S
C667 C87 1.592 . S
C671 C185 1.591 . S
C685 C199 1.591 . S
C689 C101 1.592 . S
C703 C213 1.591 . S
C707 C115 1.591 . S
C721 C227 1.592 . S
C725 C129 1.591 . S
C739 C143 1.591 . S
C743 C241 1.592 . S
C757 C157 1.592 . S
C761 C171 1.591 . S
C775 C106 1.289 . S
C779 C8 1.286 . S
C793 C120 1.279 . S
C797 C22 1.281 . S
C811 C134 1.283 . S
C815 C36 1.280 . S
C829 C148 1.288 . S
C833 C50 1.289 . S
C847 C64 1.283 . S
C851 C162 1.280 . S
C865 C78 1.288 . S
C869 C92 1.289 . S
C883 C176 1.284 . S
C887 C274 1.288 . S
C901 C190 1.289 . S
C905 C288 1.289 . S
C919 C302 1.289 . S
C923 C204 1.288 . S
C937 C316 1.288 . S
C941 C218 1.289 . S
C955 C330 1.282 . S
C959 C232 1.286 . S
C973 C260 1.279 . S
C977 C246 1.281 . S
C991 C7 1.575 . S
C995 C273 1.572 . S
C1009 C287 1.579 . S
C1013 C21 1.568 . S
C1027 C35 1.577 . S
C1031 C301 1.571 . S
C1045 C315 1.569 . S
C1049 C49 1.579 . S
C1063 C63 1.570 . S
C1067 C329 1.577 . S
C1081 C259 1.568 . S
C1085 C77 1.579 . S
C1099 C91 1.576 . S
C1103 C245 1.571 . S
C1117 C175 1.568 . S
C1121 C105 1.579 . S
C1135 C119 1.575 . S
C1139 C189 1.572 . S
C1153 C133 1.576 . S
C1157 C203 1.572 . S
C1171 C147 1.569 . S
C1175 C217 1.579 . S
C1189 C161 1.574 . S
C1193 C231 1.574 . S
