# Generated by pormake.
# Topology smc, (6)-cn, num edge types: 1
# Building blocks:
#     Node 0, Type 0, BuildingBlock: MIFKUJ_clean_sbu_0, # of connection points: 6
#     Node 1, Type 0, BuildingBlock: MIFKUJ_clean_sbu_0, # of connection points: 6
#     Node 2, Type 0, BuildingBlock: MIFKUJ_clean_sbu_0, # of connection points: 6
#     Node 3, Type 0, BuildingBlock: MIFKUJ_clean_sbu_0, # of connection points: 6
#     Node 4, Type 0, BuildingBlock: MIFKUJ_clean_sbu_0, # of connection points: 6
#     Node 5, Type 0, BuildingBlock: MIFKUJ_clean_sbu_0, # of connection points: 6
#     Node 6, Type 0, BuildingBlock: MIFKUJ_clean_sbu_0, # of connection points: 6
#     Node 7, Type 0, BuildingBlock: MIFKUJ_clean_sbu_0, # of connection points: 6
#     Node 8, Type 0, BuildingBlock: MIFKUJ_clean_sbu_0, # of connection points: 6
#     Edge 9, Type (0, 0), BuildingBlock: XUDNAN_clean_linker_2, # of connection points: 2
#     Edge 10, Type (0, 0), BuildingBlock: XUDNAN_clean_linker_2, # of connection points: 2
#     Edge 11, Type (0, 0), BuildingBlock: XUDNAN_clean_linker_2, # of connection points: 2
#     Edge 12, Type (0, 0), BuildingBlock: XUDNAN_clean_linker_2, # of connection points: 2
#     Edge 13, Type (0, 0), BuildingBlock: XUDNAN_clean_linker_2, # of connection points: 2
#     Edge 14, Type (0, 0), BuildingBlock: XUDNAN_clean_linker_2, # of connection points: 2
#     Edge 15, Type (0, 0), BuildingBlock: XUDNAN_clean_linker_2, # of connection points: 2
#     Edge 16, Type (0, 0), BuildingBlock: XUDNAN_clean_linker_2, # of connection points: 2
#     Edge 17, Type (0, 0), BuildingBlock: XUDNAN_clean_linker_2, # of connection points: 2
#     Edge 18, Type (0, 0), BuildingBlock: XUDNAN_clean_linker_2, # of connection points: 2
#     Edge 19, Type (0, 0), BuildingBlock: XUDNAN_clean_linker_2, # of connection points: 2
#     Edge 20, Type (0, 0), BuildingBlock: XUDNAN_clean_linker_2, # of connection points: 2
#     Edge 21, Type (0, 0), BuildingBlock: XUDNAN_clean_linker_2, # of connection points: 2
#     Edge 22, Type (0, 0), BuildingBlock: XUDNAN_clean_linker_2, # of connection points: 2
#     Edge 23, Type (0, 0), BuildingBlock: XUDNAN_clean_linker_2, # of connection points: 2
#     Edge 24, Type (0, 0), BuildingBlock: XUDNAN_clean_linker_2, # of connection points: 2
#     Edge 25, Type (0, 0), BuildingBlock: XUDNAN_clean_linker_2, # of connection points: 2
#     Edge 26, Type (0, 0), BuildingBlock: XUDNAN_clean_linker_2, # of connection points: 2
#     Edge 27, Type (0, 0), BuildingBlock: XUDNAN_clean_linker_2, # of connection points: 2
#     Edge 28, Type (0, 0), BuildingBlock: XUDNAN_clean_linker_2, # of connection points: 2
#     Edge 29, Type (0, 0), BuildingBlock: XUDNAN_clean_linker_2, # of connection points: 2
#     Edge 30, Type (0, 0), BuildingBlock: XUDNAN_clean_linker_2, # of connection points: 2
#     Edge 31, Type (0, 0), BuildingBlock: XUDNAN_clean_linker_2, # of connection points: 2
#     Edge 32, Type (0, 0), BuildingBlock: XUDNAN_clean_linker_2, # of connection points: 2
#     Edge 33, Type (0, 0), BuildingBlock: XUDNAN_clean_linker_2, # of connection points: 2
#     Edge 34, Type (0, 0), BuildingBlock: XUDNAN_clean_linker_2, # of connection points: 2
#     Edge 35, Type (0, 0), BuildingBlock: XUDNAN_clean_linker_2, # of connection points: 2
# Relax obj value: 0.181
# Max RMSD: 0.297
# Mean RMSD: 0.290
data_MOF--net-smc--node1-MIFKUJ_clean_sbu_0--edge1-XUDNAN_clean_linker_2
_symmetry_space_group_name_H-M    P1
_symmetry_Int_Tables_number       1
_symmetry_cell_setting            triclinic
loop_
_symmetry_equiv_pos_as_xyz
'x, y, z'
_cell_length_a     34.827396
_cell_length_b     33.475205
_cell_length_c     39.436096
_cell_angle_alpha  91.224186
_cell_angle_beta   91.182468
_cell_angle_gamma 120.02436
loop_
_atom_site_label
_atom_site_type_symbol
_atom_site_fract_x
_atom_site_fract_y
_atom_site_fract_z
_atom_type_partial_charge
Zn0 Zn 0.05077 0.42934 0.99115 0.0
Zn1 Zn 0.94953 0.41863 0.012 0.0
C2 C 0.08332 0.51927 0.96385 0.0
O3 O 0.07848 0.49586 0.93537 0.0
C4 C 0.8659 0.33808 0.02862 0.0
O5 O 0.86764 0.36509 0.054 0.0
O6 O 0.10548 0.42795 0.98045 0.0
O7 O 0.03736 0.40626 0.03727 0.0
O8 O 0.98873 0.42655 0.05383 0.0
C9 C 0.13624 0.44929 0.00289 0.0
O10 O 0.12881 0.46864 0.02939 0.0
O11 O 0.06984 0.49746 0.99107 0.0
C12 C 0.90143 0.45897 0.99199 0.0
O13 O 0.89583 0.43111 0.96608 0.0
O14 O 0.92349 0.45949 0.01816 0.0
O15 O 0.97492 0.43257 0.96511 0.0
O16 O 0.00399 0.38872 0.95779 0.0
O17 O 0.89786 0.35306 0.00845 0.0
C18 C 0.01777 0.41502 0.06045 0.0
C19 C 0.97572 0.39989 0.94895 0.0
Zn20 Zn 0.62996 0.57947 0.0133 0.0
Zn21 Zn 0.53946 0.57314 0.00087 0.0
C22 C 0.58419 0.48058 0.99266 0.0
O23 O 0.6162 0.4933 0.97111 0.0
C24 C 0.5457 0.65589 0.97533 0.0
O25 O 0.52794 0.62938 0.94784 0.0
O26 O 0.68872 0.58167 0.01575 0.0
O27 O 0.63121 0.6154 0.97292 0.0
O28 O 0.56438 0.56039 0.95865 0.0
C29 C 0.70978 0.58845 0.98856 0.0
O30 O 0.69286 0.59414 0.96031 0.0
O31 O 0.58242 0.51131 0.01105 0.0
C32 C 0.44987 0.54211 0.0134 0.0
O33 O 0.46836 0.56943 0.0404 0.0
O34 O 0.47427 0.53722 0.99228 0.0
O35 O 0.55 0.56269 0.05001 0.0
O36 O 0.62276 0.60695 0.05569 0.0
O37 O 0.55511 0.6396 0.00092 0.0
C38 C 0.60174 0.59278 0.95006 0.0
C39 C 0.58465 0.58901 0.06815 0.0
Zn40 Zn 0.40655 0.92653 0.98854 0.0
Zn41 Zn 0.46965 0.0698 0.00783 0.0
C42 C 0.46043 0.88933 0.97175 0.0
O43 O 0.44021 0.88568 0.94237 0.0
C44 C 0.46072 0.15005 0.027 0.0
O45 O 0.4455 0.12803 0.05516 0.0
O46 O 0.34638 0.86863 0.98082 0.0
O47 O 0.40572 0.96645 0.02538 0.0
O48 O 0.4304 0.03602 0.0474 0.0
C49 C 0.32657 0.83707 0.00198 0.0
O50 O 0.34486 0.84167 0.03234 0.0
O51 O 0.45235 0.90785 -0.00301 0.0
C52 C 0.55885 0.09171 0.99295 0.0
O53 O 0.54024 0.07647 0.96259 0.0
O54 O 0.5346 0.08945 0.01741 0.0
O55 O 0.4491 0.03616 0.96106 0.0
O56 O 0.41893 0.96126 0.94641 0.0
O57 O 0.4714 0.13126 0.00345 0.0
C58 C 0.40555 0.99254 0.04889 0.0
C59 C 0.43365 0.00304 0.93879 0.0
Zn60 Zn 0.73781 0.79386 0.3334 0.0
Zn61 Zn 0.61794 0.76788 0.3373 0.0
C62 C 0.75833 0.87723 0.29917 0.0
O63 O 0.75414 0.85298 0.27129 0.0
C64 C 0.54071 0.68267 0.34763 0.0
O65 O 0.54615 0.70203 0.37802 0.0
O66 O 0.79673 0.79513 0.33154 0.0
O67 O 0.71387 0.77435 0.37908 0.0
O68 O 0.6445 0.76146 0.38207 0.0
C69 C 0.83194 0.83079 0.34293 0.0
O70 O 0.82908 0.86547 0.35626 0.0
O71 O 0.75017 0.85787 0.3275 0.0
C72 C 0.56816 0.80984 0.31587 0.0
O73 O 0.57069 0.79027 0.2875 0.0
O74 O 0.58788 0.80703 0.3425 0.0
O75 O 0.65802 0.78584 0.29749 0.0
O76 O 0.69712 0.75104 0.29692 0.0
O77 O 0.56841 0.70461 0.32517 0.0
C78 C 0.67919 0.76367 0.3955 0.0
C79 C 0.66548 0.75528 0.28467 0.0
Zn80 Zn 0.23782 0.96369 0.31877 0.0
Zn81 Zn 0.23933 0.86536 0.32335 0.0
C82 C 0.14476 0.92895 0.31173 0.0
O83 O 0.16013 0.96748 0.29544 0.0
C84 C 0.32422 0.87188 0.34339 0.0
O85 O 0.30299 0.8499 0.37019 0.0
O86 O 0.2421 0.02639 0.31777 0.0
O87 O 0.27397 0.96451 0.35839 0.0
O88 O 0.227 0.89149 0.36661 0.0
C89 C 0.24495 0.04947 0.34471 0.0
O90 O 0.25007 0.03492 0.37421 0.0
O91 O 0.17182 0.91701 0.3233 0.0
C92 C 0.17261 0.76586 0.3154 0.0
O93 O 0.15015 0.77803 0.2951 0.0
O94 O 0.20917 0.79672 0.32916 0.0
O95 O 0.22361 0.87686 0.27546 0.0
O96 O 0.2611 0.95322 0.27662 0.0
O97 O 0.30465 0.88421 0.32194 0.0
C98 C 0.25267 0.93231 0.37839 0.0
C99 C 0.24709 0.91478 0.26085 0.0
Zn100 Zn 0.05891 0.28676 0.3286 0.0
Zn101 Zn 0.14934 0.38346 0.33924 0.0
C102 C 0.1094 0.24138 0.3119 0.0
O103 O 0.07925 0.22184 0.28714 0.0
C104 C 0.14991 0.46814 0.35639 0.0
O105 O 0.18096 0.47338 0.37852 0.0
O106 O 0.00316 0.22892 0.31582 0.0
O107 O 0.05315 0.30809 0.37378 0.0
O108 O 0.12564 0.35065 0.384 0.0
C109 C 0.98234 0.19841 0.33723 0.0
O110 O 0.99798 0.20511 0.36872 0.0
O111 O 0.10865 0.27182 0.3313 0.0
C112 C 0.23695 0.43275 0.31557 0.0
O113 O 0.21448 0.42437 0.28664 0.0
O114 O 0.21615 0.41838 0.34283 0.0
O115 O 0.13374 0.35174 0.29206 0.0
O116 O 0.06372 0.33011 0.29413 0.0
O117 O 0.13109 0.43189 0.33727 0.0
C118 C 0.08611 0.32873 0.39449 0.0
C119 C 0.099 0.34796 0.27805 0.0
Zn120 Zn 0.3959 0.1239 0.65096 0.0
Zn121 Zn 0.27512 0.06463 0.68166 0.0
C122 C 0.41392 0.21528 0.63764 0.0
O123 O 0.39982 0.19736 0.60684 0.0
C124 C 0.18725 0.99199 0.70431 0.0
O125 O 0.19063 0.02039 0.72921 0.0
O126 O 0.45296 0.12908 0.63639 0.0
O127 O 0.38287 0.0891 0.69373 0.0
O128 O 0.31628 0.06076 0.71595 0.0
C129 C 0.48305 0.14123 0.65947 0.0
O130 O 0.47508 0.14972 0.69043 0.0
O131 O 0.41134 0.18906 0.66131 0.0
C132 C 0.24003 0.12303 0.66985 0.0
O133 O 0.2309 0.10033 0.64047 0.0
O134 O 0.26165 0.11529 0.69256 0.0
O135 O 0.28734 0.06129 0.6327 0.0
O136 O 0.35404 0.09404 0.61138 0.0
O137 O 0.21834 0.00456 0.68364 0.0
C138 C 0.35594 0.06868 0.71695 0.0
C139 C 0.3122 0.0702 0.60764 0.0
Zn140 Zn 0.96987 0.26181 0.68931 0.0
Zn141 Zn 0.88662 0.2693 0.65733 0.0
C142 C 0.91223 0.16728 0.69868 0.0
O143 O 0.92675 0.18281 0.72991 0.0
C144 C 0.89497 0.35598 0.63896 0.0
O145 O 0.88088 0.33409 0.60928 0.0
O146 O 0.0236 0.25827 0.7041 0.0
O147 O 0.98945 0.30432 0.6512 0.0
O148 O 0.9265 0.26486 0.62183 0.0
C149 C 0.03796 0.2441 0.68001 0.0
O150 O 0.01738 0.23468 0.65011 0.0
O151 O 0.92433 0.19603 0.67507 0.0
C152 C 0.79727 0.23909 0.65856 0.0
O153 O 0.81337 0.26321 0.68723 0.0
O154 O 0.82374 0.23618 0.63831 0.0
O155 O 0.8804 0.24652 0.70555 0.0
O156 O 0.94897 0.28398 0.72712 0.0
O157 O 0.90237 0.33594 0.66312 0.0
C158 C 0.96856 0.29013 0.62291 0.0
C159 C 0.90771 0.26747 0.73028 0.0
Zn160 Zn 0.74237 0.61471 0.66787 0.0
Zn161 Zn 0.79684 0.74578 0.68076 0.0
C162 C 0.8013 0.58402 0.64851 0.0
O163 O 0.77904 0.57822 0.61977 0.0
C164 C 0.8079 0.83701 0.70105 0.0
O165 O 0.8025 0.82321 0.73242 0.0
O166 O 0.68762 0.55315 0.65994 0.0
O167 O 0.72832 0.64041 0.7089 0.0
O168 O 0.75696 0.71566 0.71999 0.0
C169 C 0.66838 0.52232 0.68157 0.0
O170 O 0.6862 0.52832 0.71228 0.0
O171 O 0.79355 0.60275 0.67386 0.0
C172 C 0.88096 0.75058 0.66675 0.0
O173 O 0.86269 0.73304 0.63663 0.0
O174 O 0.85786 0.75525 0.68931 0.0
O175 O 0.77035 0.71965 0.63423 0.0
O176 O 0.74138 0.64427 0.62501 0.0
O177 O 0.80654 0.81013 0.67725 0.0
C178 C 0.73215 0.67374 0.72748 0.0
C179 C 0.75137 0.68381 0.61479 0.0
H180 H 0.38796 0.54046 0.05553 0.0
H181 H 0.40314 0.49367 0.95577 0.0
H182 H 0.3229 0.46018 0.94328 0.0
H183 H 0.27864 0.44081 0.0705 0.0
H184 H 0.25986 0.47569 0.0919 0.0
H185 H 0.31787 0.49289 0.09386 0.0
H186 H 0.33764 0.57247 0.07028 0.0
H187 H 0.27979 0.55552 0.06823 0.0
H188 H 0.312 0.57468 0.03071 0.0
H189 H 0.2421 0.43631 0.94041 0.0
H190 H 0.16653 0.42378 0.94756 0.0
H191 H 0.20529 0.4862 0.04924 0.0
C192 C 0.37437 0.52271 0.0312 0.0
C193 C 0.40166 0.51956 0.00665 0.0
C194 C 0.38269 0.49624 0.97504 0.0
C195 C 0.3372 0.47709 0.96771 0.0
C196 C 0.31129 0.48128 0.99238 0.0
C197 C 0.32914 0.50328 0.02355 0.0
C198 C 0.29454 0.50476 0.04515 0.0
C199 C 0.2873 0.47687 0.07725 0.0
C200 C 0.30673 0.55483 0.05409 0.0
C201 C 0.25473 0.48131 0.02089 0.0
C202 C 0.26486 0.46756 0.99072 0.0
C203 C 0.23361 0.44649 0.96405 0.0
C204 C 0.19087 0.43956 0.96833 0.0
C205 C 0.18018 0.45403 -0.00106 0.0
C206 C 0.21247 0.47472 0.02556 0.0
H207 H 0.47172 0.83478 0.92537 0.0
H208 H 0.50915 0.89217 0.02837 0.0
H209 H 0.54609 0.84644 0.03756 0.0
H210 H 0.44086 0.7244 0.94436 0.0
H211 H 0.46078 0.71061 0.90657 0.0
H212 H 0.44526 0.75432 0.90587 0.0
H213 H 0.52314 0.81357 0.88536 0.0
H214 H 0.53891 0.76983 0.8858 0.0
H215 H 0.57194 0.82366 0.90944 0.0
H216 H 0.56917 0.78644 0.0381 0.0
H217 H 0.575 0.71634 0.03048 0.0
H218 H 0.52146 0.69764 0.92727 0.0
C219 C 0.48879 0.83882 0.94956 0.0
C220 C 0.4877 0.86717 0.97611 0.0
C221 C 0.5097 0.87077 0.00761 0.0
C222 C 0.53094 0.84509 0.01301 0.0
C223 C 0.53013 0.81627 0.98659 0.0
C224 C 0.50984 0.81327 0.9554 0.0
C225 C 0.50906 0.77602 0.93247 0.0
C226 C 0.46116 0.73917 0.92172 0.0
C227 C 0.53746 0.79704 0.90143 0.0
C228 C 0.53016 0.75697 0.95618 0.0
C229 C 0.54298 0.78125 0.98702 0.0
C230 C 0.56002 0.7677 0.01385 0.0
C231 C 0.56311 0.72774 0.00929 0.0
C232 C 0.54874 0.70152 0.97823 0.0
C233 C 0.53316 0.71717 0.95116 0.0
H234 H 0.27527 0.76166 0.0403 0.0
H235 H 0.28368 0.81482 0.93959 0.0
H236 H 0.21754 0.74162 0.92056 0.0
H237 H 0.24537 0.64874 0.01416 0.0
H238 H 0.20747 0.62089 0.04765 0.0
H239 H 0.25295 0.67896 0.05434 0.0
H240 H 0.19788 0.70644 0.07038 0.0
H241 H 0.15214 0.64834 0.06369 0.0
H242 H 0.15263 0.69494 0.04126 0.0
H243 H 0.15527 0.66033 0.91076 0.0
H244 H 0.10079 0.57689 0.9112 0.0
H245 H 0.13073 0.57656 0.0185 0.0
C246 C 0.26283 0.75821 0.01439 0.0
C247 C 0.28478 0.79419 0.99148 0.0
C248 C 0.2675 0.78797 0.9577 0.0
C249 C 0.22983 0.74648 0.94663 0.0
C250 C 0.20938 0.71152 0.96968 0.0
C251 C 0.22505 0.717 0.00293 0.0
C252 C 0.19819 0.67313 0.02206 0.0
C253 C 0.22776 0.65433 0.03532 0.0
C254 C 0.17376 0.68121 0.05107 0.0
C255 C 0.16586 0.64174 0.99411 0.0
C256 C 0.1727 0.66472 0.96416 0.0
C257 C 0.14908 0.64218 0.9342 0.0
C258 C 0.11822 0.59476 0.93468 0.0
C259 C 0.11103 0.57033 0.96494 0.0
C260 C 0.13465 0.59449 0.99515 0.0
H261 H 0.50726 0.21262 0.97843 0.0
H262 H 0.43305 0.19584 0.06926 0.0
H263 H 0.4506 0.27686 0.06694 0.0
H264 H 0.59473 0.3235 -6e-05 0.0
H265 H 0.60218 0.34437 0.95745 0.0
H266 H 0.57957 0.28374 0.96394 0.0
H267 H 0.51038 0.26521 0.92625 0.0
H268 H 0.53282 0.32592 0.91965 0.0
H269 H 0.47834 0.29236 0.9364 0.0
H270 H 0.48032 0.36115 0.05704 0.0
H271 H 0.52278 0.44293 0.04197 0.0
H272 H 0.5792 0.40559 0.95832 0.0
C273 C 0.49396 0.22569 -0.00253 0.0
C274 C 0.46846 0.19765 0.02391 0.0
C275 C 0.45246 0.21647 0.04867 0.0
C276 C 0.46214 0.26247 0.04751 0.0
C277 C 0.48786 0.28934 0.0214 0.0
C278 C 0.50356 0.27166 -0.00319 0.0
C279 C 0.53307 0.30871 0.97287 0.0
C280 C 0.58017 0.31547 0.97362 0.0
C281 C 0.51241 0.29737 0.93665 0.0
C282 C 0.53264 0.35028 0.98846 0.0
C283 C 0.50572 0.33819 0.01607 0.0
C284 C 0.50121 0.37094 0.03529 0.0
C285 C 0.52549 0.41738 0.02649 0.0
C286 C 0.5544 0.43085 -0.00107 0.0
C287 C 0.55727 0.39652 0.9794 0.0
H288 H 0.61062 0.15121 0.04551 0.0
H289 H 0.6181 0.09212 0.94855 0.0
H290 H 0.69931 0.14326 0.95048 0.0
H291 H 0.68646 0.26405 0.02934 0.0
H292 H 0.71164 0.28042 0.07147 0.0
H293 H 0.6552 0.23425 0.0655 0.0
H294 H 0.67462 0.17902 0.09682 0.0
H295 H 0.73122 0.22522 0.10311 0.0
H296 H 0.71952 0.17156 0.08245 0.0
H297 H 0.77813 0.20666 0.95938 0.0
H298 H 0.84862 0.27774 0.97466 0.0
H299 H 0.79037 0.29671 0.06556 0.0
C300 C 0.62949 0.14802 0.02521 0.0
C301 C 0.60796 0.11734 -0.003 0.0
C302 C 0.6338 0.11513 0.97052 0.0
C303 C 0.68003 0.14399 0.97141 0.0
C304 C 0.70011 0.17483 -0.00096 0.0
C305 C 0.67575 0.17683 0.02562 0.0
C306 C 0.70496 0.21582 0.05083 0.0
C307 C 0.68858 0.25068 0.05447 0.0
C308 C 0.70774 0.19676 0.08535 0.0
C309 C 0.74901 0.2366 0.03352 0.0
C310 C 0.74568 0.21191 0.00401 0.0
C311 C 0.78132 0.22586 0.98272 0.0
C312 C 0.82127 0.26638 0.99161 0.0
C313 C 0.82519 0.29282 0.02139 0.0
C314 C 0.78864 0.27713 0.04279 0.0
H315 H 0.85732 0.47927 0.0395 0.0
H316 H 0.90616 0.50839 0.9376 0.0
H317 H 0.87222 0.55714 0.92996 0.0
H318 H 0.75387 0.46179 0.01767 0.0
H319 H 0.74597 0.4863 0.05621 0.0
H320 H 0.78191 0.46219 0.05673 0.0
H321 H 0.84649 0.53973 0.08169 0.0
H322 H 0.81059 0.56413 0.08122 0.0
H323 H 0.86242 0.59229 0.05988 0.0
H324 H 0.82632 0.59354 0.93022 0.0
H325 H 0.76608 0.61097 0.93646 0.0
H326 H 0.74302 0.55558 0.03733 0.0
C327 C 0.86194 0.49729 0.0161 0.0
C328 C 0.88472 0.49107 0.98928 0.0
C329 C 0.88895 0.51334 0.95842 0.0
C330 C 0.87016 0.54129 0.95399 0.0
C331 C 0.84694 0.54609 0.98058 0.0
C332 C 0.84243 0.52452 0.01099 0.0
C333 C 0.81021 0.52965 0.03335 0.0
C334 C 0.77066 0.48217 0.04144 0.0
C335 C 0.83386 0.55816 0.06597 0.0
C336 C 0.79617 0.55593 0.01021 0.0
C337 C 0.81865 0.566 0.98028 0.0
C338 C 0.80897 0.58661 0.95374 0.0
C339 C 0.77457 0.59618 0.95748 0.0
C340 C 0.75 0.58465 0.9874 0.0
C341 C 0.76176 0.56543 0.01442 0.0
H342 H 0.91301 0.90917 0.34856 0.0
H343 H 0.85044 0.76113 0.3299 0.0
H344 H 0.92449 0.76877 0.32374 0.0
H345 H 0.99419 0.94036 0.28733 0.0
H346 H 0.03695 0.98861 0.31214 0.0
H347 H 0.97955 0.97058 0.31817 0.0
H348 H 0.98971 0.96134 0.38226 0.0
H349 H 0.04725 0.9794 0.37643 0.0
H350 H 0.01145 0.92499 0.39529 0.0
H351 H 0.00701 0.79384 0.31931 0.0
H352 H 0.0885 0.8348 0.31137 0.0
H353 H 0.09415 0.96589 0.32894 0.0
C354 C 0.91479 0.8782 0.3436 0.0
C355 C 0.87596 0.83448 0.33999 0.0
C356 C 0.8798 0.79497 0.33287 0.0
C357 C 0.92172 0.79897 0.32948 0.0
C358 C 0.9594 0.84274 0.33304 0.0
C359 C 0.95614 0.88166 0.33967 0.0
C360 C 0.00111 0.9251 0.34021 0.0
C361 C 0.00304 0.95808 0.31282 0.0
C362 C 0.01307 0.94911 0.37566 0.0
C363 C 0.0302 0.90479 0.33205 0.0
C364 C 0.00591 0.85717 0.32878 0.0
C365 C 0.02625 0.83113 0.32171 0.0
C366 C 0.07242 0.85452 0.31734 0.0
C367 C 0.09721 0.90332 0.31923 0.0
C368 C 0.07577 0.9285 0.32699 0.0
H369 H 0.1204 0.17731 0.27526 0.0
H370 H 0.16677 0.26464 0.36709 0.0
H371 H 0.21137 0.22905 0.38355 0.0
H372 H 0.10775 0.07711 0.31164 0.0
H373 H 0.12642 0.05826 0.27565 0.0
H374 H 0.10125 0.09332 0.26952 0.0
H375 H 0.17077 0.15344 0.23878 0.0
H376 H 0.19608 0.11837 0.24466 0.0
H377 H 0.22471 0.17784 0.25973 0.0
H378 H 0.24428 0.1778 0.39305 0.0
H379 H 0.26614 0.11792 0.39307 0.0
H380 H 0.20111 0.06681 0.2939 0.0
C381 C 0.14055 0.18961 0.29853 0.0
C382 C 0.14009 0.22389 0.31983 0.0
C383 C 0.1667 0.23864 0.35022 0.0
C384 C 0.19214 0.21858 0.35983 0.0
C385 C 0.19109 0.18419 0.3386 0.0
C386 C 0.16636 0.17019 0.30838 0.0
C387 C 0.16947 0.13126 0.2908 0.0
C388 C 0.1235 0.08741 0.28668 0.0
C389 C 0.19158 0.14613 0.25646 0.0
C390 C 0.19909 0.12494 0.31614 0.0
C391 C 0.21119 0.15573 0.34358 0.0
C392 C 0.23574 0.15413 0.37138 0.0
C393 C 0.24796 0.11999 0.3712 0.0
C394 C 0.23595 0.08819 0.34328 0.0
C395 C 0.21172 0.09129 0.31526 0.0
H396 H 0.93318 0.12314 0.37512 0.0
H397 H 0.94186 0.1752 0.27398 0.0
H398 H 0.87834 0.10026 0.2543 0.0
H399 H 0.91166 0.01378 0.34873 0.0
H400 H 0.87427 0.98382 0.38203 0.0
H401 H 0.91692 0.04314 0.3889 0.0
H402 H 0.85738 0.06476 0.40454 0.0
H403 H 0.81446 0.00537 0.3976 0.0
H404 H 0.81156 0.05016 0.37512 0.0
H405 H 0.82028 0.0169 0.24406 0.0
H406 H 0.77161 0.93199 0.24473 0.0
H407 H 0.79946 0.93664 0.35299 0.0
C408 C 0.9212 0.11913 0.349 0.0
C409 C 0.94233 0.15496 0.32613 0.0
C410 C 0.92606 0.14816 0.292 0.0
C411 C 0.88991 0.1058 0.28059 0.0
C412 C 0.87026 0.07086 0.30369 0.0
C413 C 0.88521 0.07719 0.33722 0.0
C414 C 0.86073 0.03322 0.3563 0.0
C415 C 0.8928 0.01759 0.36975 0.0
C416 C 0.83446 0.03872 0.38509 0.0
C417 C 0.83019 1.001 0.32813 0.0
C418 C 0.83603 0.02321 0.29795 0.0
C419 C 0.81463 0.99926 0.2677 0.0
C420 C 0.78715 0.95116 0.26828 0.0
C421 C 0.78135 0.92794 0.29895 0.0
C422 C 0.80232 0.9535 0.32928 0.0
H423 H 0.2111 0.73055 0.35716 0.0
H424 H 0.09962 0.68963 0.28619 0.0
H425 H 0.07724 0.60764 0.29325 0.0
H426 H 0.24043 0.65083 0.32888 0.0
H427 H 0.25524 0.63987 0.37031 0.0
H428 H 0.2594 0.6946 0.36248 0.0
H429 H 0.20819 0.68345 0.41251 0.0
H430 H 0.20388 0.62855 0.42051 0.0
H431 H 0.1544 0.63204 0.41321 0.0
H432 H 0.07011 0.53037 0.30538 0.0
H433 H 0.08026 0.46482 0.31994 0.0
H434 H 0.19778 0.55733 0.3815 0.0
C435 C 0.18157 0.70441 0.34343 0.0
C436 C 0.15705 0.71655 0.32114 0.0
C437 C 0.11882 0.68119 0.30351 0.0
C438 C 0.10579 0.63452 0.30743 0.0
C439 C 0.13114 0.62385 0.32927 0.0
C440 C 0.16813 0.65784 0.34706 0.0
C441 C 0.19125 0.63762 0.36741 0.0
C442 C 0.23941 0.65687 0.3566 0.0
C443 C 0.1893 0.64591 0.40568 0.0
C444 C 0.16254 0.58705 0.35724 0.0
C445 C 0.12756 0.57965 0.33573 0.0
C446 C 0.09738 0.53583 0.32221 0.0
C447 C 0.10369 0.49885 0.33035 0.0
C448 C 0.14033 0.50604 0.35127 0.0
C449 C 0.16942 0.55062 0.36546 0.0
H450 H 0.2923 0.48401 0.36915 0.0
H451 H 0.29103 0.44665 0.26293 0.0
H452 H 0.37174 0.5002 0.26186 0.0
H453 H 0.36356 0.60076 0.36142 0.0
H454 H 0.39259 0.61038 0.40182 0.0
H455 H 0.33639 0.56366 0.39604 0.0
H456 H 0.36079 0.50565 0.41473 0.0
H457 H 0.4172 0.55236 0.42066 0.0
H458 H 0.40484 0.50337 0.39316 0.0
H459 H 0.44994 0.56332 0.27024 0.0
H460 H 0.52021 0.63369 0.28712 0.0
H461 H 0.47059 0.63134 0.38765 0.0
C462 C 0.3093 0.48616 0.34598 0.0
C463 C 0.28567 0.461 0.31621 0.0
C464 C 0.30867 0.46561 0.28604 0.0
C465 C 0.35451 0.4957 0.28524 0.0
C466 C 0.37675 0.52089 0.3148 0.0
C467 C 0.355 0.51646 0.34464 0.0
C468 C 0.38572 0.55113 0.37174 0.0
C469 C 0.36853 0.58338 0.38342 0.0
C470 C 0.39254 0.52665 0.40185 0.0
C471 C 0.42765 0.57665 0.3521 0.0
C472 C 0.42199 0.55815 0.31949 0.0
C473 C 0.45506 0.57773 0.29586 0.0
C474 C 0.49479 0.61777 0.30567 0.0
C475 C 0.50084 0.63791 0.33872 0.0
C476 C 0.4671 0.61648 0.36233 0.0
H477 H 0.37844 0.85442 0.38493 0.0
H478 H 0.36715 0.89622 0.28345 0.0
H479 H 0.43324 0.89228 0.26749 0.0
H480 H 0.50299 0.91754 0.38965 0.0
H481 H 0.50435 0.87269 0.4132 0.0
H482 H 0.45914 0.88386 0.41795 0.0
H483 H 0.40302 0.79816 0.40196 0.0
H484 H 0.44791 0.78677 0.39696 0.0
H485 H 0.40811 0.77339 0.36244 0.0
H486 H 0.49375 0.8739 0.26013 0.0
H487 H 0.54752 0.84652 0.26265 0.0
H488 H 0.52308 0.81967 0.36946 0.0
C489 C 0.39045 0.86374 0.35958 0.0
C490 C 0.36749 0.8757 0.33548 0.0
C491 C 0.38418 0.88728 0.30248 0.0
C492 C 0.42177 0.88511 0.29313 0.0
C493 C 0.44293 0.87211 0.31721 0.0
C494 C 0.42837 0.86232 0.34992 0.0
C495 C 0.45609 0.84723 0.37038 0.0
C496 C 0.48219 0.88243 0.39953 0.0
C497 C 0.42704 0.79849 0.3837 0.0
C498 C 0.48701 0.84781 0.34356 0.0
C499 C 0.47906 0.86276 0.31318 0.0
C500 C 0.50093 0.86309 0.28394 0.0
C501 C 0.53137 0.84733 0.28563 0.0
C502 C 0.54 0.83156 0.31635 0.0
C503 C 0.518 0.83259 0.34585 0.0
H504 H 0.73301 0.21747 0.70378 0.0
H505 H 0.75315 0.20891 0.5963 0.0
H506 H 0.67241 0.17608 0.58449 0.0
H507 H 0.62409 0.11068 0.70502 0.0
H508 H 0.60412 0.13545 0.73616 0.0
H509 H 0.6623 0.1535 0.73581 0.0
H510 H 0.68154 0.23872 0.7313 0.0
H511 H 0.62357 0.22096 0.7315 0.0
H512 H 0.65676 0.25413 0.69714 0.0
H513 H 0.59015 0.15149 0.58477 0.0
H514 H 0.51456 0.13606 0.59703 0.0
H515 H 0.55075 0.16052 0.70455 0.0
C516 C 0.72045 0.20822 0.67775 0.0
C517 C 0.74915 0.21588 0.6509 0.0
C518 C 0.7315 0.20309 0.61722 0.0
C519 C 0.68579 0.18445 0.61033 0.0
C520 C 0.65846 0.17823 0.63749 0.0
C521 C 0.67524 0.18928 0.67056 0.0
C522 C 0.63979 0.18149 0.69524 0.0
C523 C 0.63213 0.14298 0.71948 0.0
C524 C 0.6511 0.22651 0.71492 0.0
C525 C 0.60065 0.16625 0.67084 0.0
C526 C 0.61168 0.16389 0.63767 0.0
C527 C 0.58107 0.15267 0.6107 0.0
C528 C 0.53829 0.14408 0.61789 0.0
C529 C 0.52686 0.14719 0.65174 0.0
C530 C 0.5584 0.1578 0.67842 0.0
H531 H 0.87514 0.40466 0.59387 0.0
H532 H 0.91384 0.4057 0.69934 0.0
H533 H 0.90388 0.47248 0.71186 0.0
H534 H 0.92439 0.53271 0.58822 0.0
H535 H 0.87882 0.52549 0.56118 0.0
H536 H 0.89624 0.48305 0.55951 0.0
H537 H 0.81616 0.41889 0.57148 0.0
H538 H 0.79855 0.46097 0.57335 0.0
H539 H 0.78976 0.42445 0.60872 0.0
H540 H 0.87982 0.53219 0.71437 0.0
H541 H 0.84343 0.57876 0.70662 0.0
H542 H 0.82062 0.53834 0.59954 0.0
C543 C 0.88274 0.41968 0.61942 0.0
C544 C 0.89549 0.40002 0.64556 0.0
C545 C 0.90437 0.42033 0.67879 0.0
C546 C 0.89886 0.45836 0.68615 0.0
C547 C 0.88493 0.47603 0.65996 0.0
C548 C 0.87741 0.45757 0.62717 0.0
C549 C 0.85874 0.47993 0.60424 0.0
C550 C 0.89151 0.5069 0.57666 0.0
C551 C 0.81311 0.44391 0.58856 0.0
C552 C 0.85489 0.51227 0.62956 0.0
C553 C 0.87094 0.51025 0.66143 0.0
C554 C 0.86789 0.53466 0.68938 0.0
C555 C 0.84713 0.56102 0.68474 0.0
C556 C 0.82924 0.56237 0.65245 0.0
C557 C 0.83429 0.53848 0.62448 0.0
H558 H 0.62411 0.44113 0.71529 0.0
H559 H 0.61488 0.51068 0.62641 0.0
H560 H 0.54323 0.44232 0.60959 0.0
H561 H 0.58277 0.33233 0.67423 0.0
H562 H 0.5527 0.29958 0.70984 0.0
H563 H 0.60095 0.35576 0.71691 0.0
H564 H 0.55437 0.38207 0.75133 0.0
H565 H 0.50581 0.32594 0.74409 0.0
H566 H 0.50461 0.377 0.73215 0.0
H567 H 0.4762 0.36507 0.59961 0.0
H568 H 0.42021 0.28204 0.59562 0.0
H569 H 0.47208 0.26231 0.69094 0.0
C570 C 0.60666 0.44217 0.69258 0.0
C571 C 0.62502 0.48128 0.67225 0.0
C572 C 0.60154 0.48107 0.64238 0.0
C573 C 0.56062 0.44253 0.63271 0.0
C574 C 0.54353 0.40443 0.65315 0.0
C575 C 0.56581 0.40377 0.68239 0.0
C576 C 0.54179 0.35702 0.69826 0.0
C577 C 0.57131 0.33488 0.69988 0.0
C578 C 0.52569 0.36075 0.73355 0.0
C579 C 0.50317 0.33133 0.67292 0.0
C580 C 0.50452 0.3595 0.64734 0.0
C581 C 0.47433 0.34275 0.61972 0.0
C582 C 0.44266 0.29558 0.61767 0.0
C583 C 0.44153 0.26582 0.64306 0.0
C584 C 0.47146 0.28433 0.67147 0.0
H585 H 0.81814 0.906 0.7458 0.0
H586 H 0.81903 0.8747 0.6385 0.0
H587 H 0.83807 0.95413 0.6255 0.0
H588 H 0.77278 0.98419 0.73519 0.0
H589 H 0.80697 0.02229 0.76982 0.0
H590 H 0.78891 0.96158 0.77036 0.0
H591 H 0.87068 0.98092 0.77759 0.0
H592 H 0.88892 0.04154 0.7772 0.0
H593 H 0.91043 0.01684 0.74731 0.0
H594 H 0.86254 0.03883 0.62453 0.0
H595 H 0.89365 0.12248 0.63618 0.0
H596 H 0.87697 0.09822 0.74396 0.0
C597 C 0.82168 0.9156 0.71952 0.0
C598 C 0.81696 0.884 0.69321 0.0
C599 C 0.82236 0.89819 0.65916 0.0
C600 C 0.83301 0.94324 0.65146 0.0
C601 C 0.83788 0.97367 0.67804 0.0
C602 C 0.83231 0.96042 0.71138 0.0
C603 C 0.84215 1.00052 0.73543 0.0
C604 C 0.8002 0.9916 0.75378 0.0
C605 C 0.88032 0.01054 0.76086 0.0
C606 C 0.85577 0.03877 0.71056 0.0
C607 C 0.8523 0.02248 0.6775 0.0
C608 C 0.86494 0.0519 0.65029 0.0
C609 C 0.88249 0.09936 0.65714 0.0
C610 C 0.88772 0.1169 0.69096 0.0
C611 C 0.87324 0.0859 0.71782 0.0
H612 H 0.93114 0.81138 0.71845 0.0
H613 H 0.94095 0.74399 0.62646 0.0
H614 H 0.02262 0.79273 0.63072 0.0
H615 H 0.00856 0.92061 0.69862 0.0
H616 H 0.03179 0.94067 0.74098 0.0
H617 H 0.97531 0.89473 0.73486 0.0
H618 H 0.99187 0.84186 0.77211 0.0
H619 H 0.04846 0.88795 0.77868 0.0
H620 H 0.03699 0.83243 0.76184 0.0
H621 H 0.10133 0.85526 0.64046 0.0
H622 H 0.17142 0.92695 0.65457 0.0
H623 H 0.11013 0.95538 0.73948 0.0
C624 C 0.95046 0.80568 0.69981 0.0
C625 C 0.92967 0.77354 0.67226 0.0
C626 C 0.95617 0.76812 0.64791 0.0
C627 C 0.00258 0.79559 0.65017 0.0
C628 C 0.02188 0.82814 0.67698 0.0
C629 C 0.99667 0.8331 0.70152 0.0
C630 C 0.02494 0.87401 0.72551 0.0
C631 C 0.00921 0.90959 0.72492 0.0
C632 C 0.0256 0.8581 0.76168 0.0
C633 C 0.06971 0.89248 0.70981 0.0
C634 C 0.06736 0.865 0.68225 0.0
C635 C 0.10374 0.8766 0.66232 0.0
C636 C 0.1434 0.91756 0.67052 0.0
C637 C 0.14633 0.94681 0.69823 0.0
C638 C 0.1091 0.93357 0.71839 0.0
H639 H 0.19382 0.14674 0.62606 0.0
H640 H 0.24025 0.1639 0.73121 0.0
H641 H 0.19848 0.20369 0.74488 0.0
H642 H 0.19355 0.257 0.62135 0.0
H643 H 0.14389 0.23088 0.5945 0.0
H644 H 0.18213 0.20949 0.59253 0.0
H645 H 0.11816 0.12726 0.6046 0.0
H646 H 0.07992 0.14844 0.60689 0.0
H647 H 0.08641 0.11852 0.64205 0.0
H648 H 0.14438 0.23375 0.74793 0.0
H649 H 0.08488 0.25303 0.73956 0.0
H650 H 0.07531 0.21564 0.63239 0.0
C651 C 0.19607 0.15972 0.65184 0.0
C652 C 0.22034 0.15227 0.67755 0.0
C653 C 0.22205 0.16946 0.71104 0.0
C654 C 0.19842 0.19208 0.71905 0.0
C655 C 0.1737 0.19761 0.69321 0.0
C656 C 0.17284 0.1823 0.6602 0.0
C657 C 0.14148 0.18941 0.63746 0.0
C658 C 0.16679 0.22375 0.60983 0.0
C659 C 0.10431 0.14316 0.62186 0.0
C660 C 0.12374 0.20982 0.66297 0.0
C661 C 0.14291 0.21479 0.69495 0.0
C662 C 0.12967 0.23064 0.72288 0.0
C663 C 0.09582 0.24141 0.71791 0.0
C664 C 0.07556 0.23595 0.68532 0.0
C665 C 0.09026 0.22048 0.6576 0.0
H666 H 0.10835 0.32921 0.21212 0.0
H667 H 0.09016 0.42295 0.27784 0.0
H668 H 0.07403 0.45633 0.22823 0.0
H669 H 0.15436 0.40951 0.1377 0.0
H670 H 0.12459 0.36184 0.10755 0.0
H671 H 0.1446 0.3529 0.14757 0.0
H672 H 0.06487 0.28798 0.1595 0.0
H673 H 0.04434 0.29748 0.12008 0.0
H674 H 0.02036 0.30079 0.15937 0.0
H675 H 0.04527 0.46802 0.17359 0.0
H676 H 0.01552 0.46506 0.11546 0.0
H677 H 0.0527 0.36412 0.08465 0.0
C678 C 0.10317 0.35833 0.2157 0.0
C679 C 0.10147 0.37463 0.24849 0.0
C680 C 0.09258 0.41117 0.25273 0.0
C681 C 0.08319 0.43006 0.22472 0.0
C682 C 0.08281 0.41181 0.19264 0.0
C683 C 0.09349 0.37743 0.18781 0.0
C684 C 0.08597 0.36061 0.15103 0.0
C685 C 0.13001 0.37191 0.13502 0.0
C686 C 0.05186 0.30865 0.14731 0.0
C687 C 0.06759 0.38936 0.1365 0.0
C688 C 0.06624 0.41883 0.16083 0.0
C689 C 0.04709 0.44592 0.15404 0.0
C690 C 0.02977 0.44359 0.12118 0.0
C691 C 0.03201 0.41453 0.09571 0.0
C692 C 0.05107 0.38709 0.1036 0.0
H693 H 0.67122 0.68429 0.25484 0.0
H694 H 0.60453 0.76361 0.24451 0.0
H695 H 0.56562 0.71836 0.19223 0.0
H696 H 0.69609 0.68666 0.17133 0.0
H697 H 0.68889 0.62946 0.16853 0.0
H698 H 0.70376 0.66086 0.20865 0.0
H699 H 0.63514 0.59332 0.2353 0.0
H700 H 0.61993 0.56163 0.19509 0.0
H701 H 0.58072 0.57287 0.21621 0.0
H702 H 0.53992 0.66993 0.13816 0.0
H703 H 0.53637 0.62933 0.084 0.0
H704 H 0.62548 0.58743 0.12724 0.0
C705 C 0.64766 0.69152 0.24206 0.0
C706 C 0.63997 0.72675 0.25436 0.0
C707 C 0.60971 0.73575 0.23635 0.0
C708 C 0.58756 0.71026 0.20652 0.0
C709 C 0.59631 0.67607 0.19493 0.0
C710 C 0.62593 0.66695 0.21205 0.0
C711 C 0.63413 0.63295 0.19217 0.0
C712 C 0.68364 0.65376 0.18472 0.0
C713 C 0.61642 0.58749 0.21081 0.0
C714 C 0.60648 0.62634 0.16027 0.0
C715 C 0.58354 0.65008 0.16288 0.0
C716 C 0.55718 0.65067 0.13604 0.0
C717 C 0.55515 0.62738 0.10549 0.0
C718 C 0.58021 0.60497 0.10195 0.0
C719 C 0.60562 0.60388 0.12974 0.0
H720 H 0.41984 0.02329 0.11519 0.0
H721 H 0.3236 0.91558 0.04598 0.0
H722 H 0.27234 0.88114 0.09301 0.0
H723 H 0.39666 0.94635 0.18652 0.0
H724 H 0.40609 0.99079 0.21766 0.0
H725 H 0.43537 0.00597 0.17862 0.0
H726 H 0.40573 0.06169 0.16606 0.0
H727 H 0.37657 0.0468 0.20505 0.0
H728 H 0.34675 0.04004 0.16545 0.0
H729 H 0.23074 0.85979 0.14818 0.0
H730 H 0.20296 0.85455 0.20646 0.0
H731 H 0.32742 0.97589 0.23825 0.0
C732 C 0.38795 0.99251 0.11002 0.0
C733 C 0.37546 0.9721 0.07711 0.0
C734 C 0.33376 0.93147 0.07121 0.0
C735 C 0.30447 0.91172 0.0977 0.0
C736 C 0.3178 0.9326 0.13001 0.0
C737 C 0.35876 0.97184 0.13627 0.0
C738 C 0.3655 0.98726 0.17323 0.0
C739 C 0.40314 0.9823 0.18999 0.0
C740 C 0.37411 0.03688 0.17768 0.0
C741 C 0.32101 0.95234 0.18635 0.0
C742 C 0.29415 0.92038 0.16137 0.0
C743 C 0.25156 0.8846 0.16798 0.0
C744 C 0.23605 0.8818 0.20101 0.0
C745 C 0.26289 0.91515 0.22649 0.0
C746 C 0.30592 0.95039 0.21901 0.0
H747 H 0.41937 0.06922 0.91175 0.0
H748 H 0.44225 0.95667 0.88486 0.0
H749 H 0.43015 0.96545 0.82427 0.0
H750 H 0.33061 0.03647 0.85533 0.0
H751 H 0.34399 0.09386 0.84418 0.0
H752 H 0.36181 0.08459 0.88492 0.0
H753 H 0.44344 0.14445 0.87296 0.0
H754 H 0.42581 0.15446 0.83229 0.0
H755 H 0.46773 0.13798 0.83479 0.0
H756 H 0.4111 0.98276 0.76739 0.0
H757 H 0.38303 0.00582 0.71762 0.0
H758 H 0.36623 0.10221 0.78184 0.0
C759 C 0.42308 0.04742 0.89296 0.0
C760 C 0.43214 0.01262 0.90275 0.0
C761 C 0.43549 0.98368 0.8777 0.0
C762 C 0.42884 0.9885 0.84328 0.0
C763 C 0.4186 0.0222 0.83445 0.0
C764 C 0.41572 0.05121 0.85849 0.0
C765 C 0.40006 0.08151 0.84247 0.0
C766 C 0.35653 0.07359 0.85763 0.0
C767 C 0.43643 0.13263 0.84583 0.0
C768 C 0.39297 0.06369 0.80598 0.0
C769 C 0.40501 0.03035 0.80176 0.0
C770 C 0.40163 0.00886 0.7703 0.0
C771 C 0.38557 0.0219 0.74233 0.0
C772 C 0.37211 0.05504 0.74643 0.0
C773 C 0.37585 0.07624 0.77849 0.0
H774 H 0.95406 0.31616 0.922 0.0
H775 H 0.93292 0.43178 0.90762 0.0
H776 H 0.89222 0.39555 0.85332 0.0
H777 H 0.98536 0.31125 0.84495 0.0
H778 H 0.95993 0.24936 0.84007 0.0
H779 H 0.97401 0.27629 0.88165 0.0
H780 H 0.89247 0.2248 0.89892 0.0
H781 H 0.87807 0.19767 0.857 0.0
H782 H 0.84816 0.22415 0.87403 0.0
H783 H 0.8691 0.35623 0.79616 0.0
H784 H 0.87261 0.32258 0.74067 0.0
H785 H 0.91289 0.23542 0.79123 0.0
C786 C 0.93963 0.33314 0.9079 0.0
C787 C 0.94622 0.37646 0.91902 0.0
C788 C 0.92741 0.39805 0.89984 0.0
C789 C 0.90412 0.3776 0.86902 0.0
C790 C 0.89966 0.33547 0.85807 0.0
C791 C 0.91679 0.31341 0.87715 0.0
C792 C 0.915 0.27318 0.85758 0.0
C793 C 0.96131 0.27789 0.85595 0.0
C794 C 0.88141 0.22723 0.87278 0.0
C795 C 0.89841 0.27881 0.82335 0.0
C796 C 0.88752 0.31336 0.82451 0.0
C797 C 0.87625 0.32828 0.79513 0.0
C798 C 0.87821 0.30897 0.76376 0.0
C799 C 0.8923 0.27611 0.76225 0.0
C800 C 0.90093 0.25969 0.79225 0.0
H801 H 0.75779 0.70519 0.79343 0.0
H802 H 0.64401 0.61457 0.72795 0.0
H803 H 0.59656 0.58855 0.7777 0.0
H804 H 0.73042 0.62445 0.85809 0.0
H805 H 0.75031 0.66659 0.89282 0.0
H806 H 0.77436 0.68265 0.85187 0.0
H807 H 0.75623 0.74889 0.85094 0.0
H808 H 0.73231 0.73312 0.892 0.0
H809 H 0.70003 0.73606 0.85683 0.0
H810 H 0.56278 0.56812 0.83432 0.0
H811 H 0.54504 0.55323 0.89468 0.0
H812 H 0.68108 0.6556 0.9238 0.0
C813 C 0.72265 0.68079 0.78969 0.0
C814 C 0.70411 0.66232 0.75706 0.0
C815 C 0.65845 0.62926 0.7529 0.0
C816 C 0.63132 0.61439 0.78092 0.0
C817 C 0.65059 0.63247 0.81294 0.0
C818 C 0.69523 0.66477 0.81756 0.0
C819 C 0.7083 0.67528 0.85495 0.0
C820 C 0.74289 0.66141 0.865 0.0
C821 C 0.7252 0.72638 0.86422 0.0
C822 C 0.66406 0.64406 0.87047 0.0
C823 C 0.63122 0.61976 0.8458 0.0
C824 C 0.58812 0.58716 0.85393 0.0
C825 C 0.57839 0.57884 0.88826 0.0
C826 C 0.61167 0.603 0.91397 0.0
C827 C 0.65485 0.63646 0.9048 0.0
H828 H 0.74359 0.80528 0.44521 0.0
H829 H 0.61352 0.68637 0.42269 0.0
H830 H 0.61849 0.65221 0.47654 0.0
H831 H 0.79414 0.74887 0.4811 0.0
H832 H 0.82479 0.79147 0.51453 0.0
H833 H 0.81007 0.80847 0.4756 0.0
H834 H 0.77019 0.84389 0.5089 0.0
H835 H 0.78577 0.82809 0.54806 0.0
H836 H 0.72827 0.80909 0.53822 0.0
H837 H 0.6424 0.62687 0.52828 0.0
H838 H 0.67624 0.61836 0.58124 0.0
H839 H 0.78792 0.75703 0.57277 0.0
C840 C 0.71576 0.77261 0.45217 0.0
C841 C 0.67812 0.7483 0.43017 0.0
C842 C 0.64231 0.70558 0.43964 0.0
C843 C 0.64505 0.68583 0.46993 0.0
C844 C 0.68335 0.70994 0.49058 0.0
C845 C 0.71744 0.75307 0.48269 0.0
C846 C 0.75472 0.77192 0.50944 0.0
C847 C 0.7985 0.78068 0.49424 0.0
C848 C 0.76003 0.81584 0.52721 0.0
C849 C 0.73687 0.73203 0.5331 0.0
C850 C 0.69595 0.6964 0.5215 0.0
C851 C 0.674 0.65485 0.538 0.0
C852 C 0.69371 0.65019 0.56782 0.0
C853 C 0.73453 0.68717 0.58106 0.0
C854 C 0.75651 0.72841 0.56328 0.0
H855 H 0.31981 0.00321 0.41483 0.0
H856 H 0.18481 0.89022 0.42241 0.0
H857 H 0.18307 0.91725 0.48109 0.0
H858 H 0.35528 0.99884 0.49996 0.0
H859 H 0.39084 0.06055 0.50457 0.0
H860 H 0.3801 0.03237 0.46328 0.0
H861 H 0.35261 0.08645 0.44104 0.0
H862 H 0.3624 0.11418 0.48249 0.0
H863 H 0.30818 0.08882 0.46188 0.0
H864 H 0.1963 0.95804 0.53849 0.0
H865 H 0.22626 0.00254 0.59269 0.0
H866 H 0.35341 0.08716 0.54701 0.0
C867 C 0.28993 0.98406 0.42891 0.0
C868 C 0.25241 0.94477 0.4143 0.0
C869 C 0.214 0.92025 0.43342 0.0
C870 C 0.21259 0.93561 0.46654 0.0
C871 C 0.25001 0.97513 0.47999 0.0
C872 C 0.28818 0.99852 0.46193 0.0
C873 C 0.32465 0.03865 0.48253 0.0
C874 C 0.36509 0.03219 0.48791 0.0
C875 C 0.3377 0.08475 0.466 0.0
C876 C 0.3012 0.03412 0.51521 0.0
C877 C 0.25798 0.99776 0.51313 0.0
C878 C 0.23012 0.9865 0.54045 0.0
C879 C 0.24743 0.01211 0.57108 0.0
C880 C 0.29231 0.04812 0.57414 0.0
C881 C 0.31904 0.05979 0.54553 0.0
H882 H 0.93658 0.26612 0.5568 0.0
H883 H 0.05876 0.3376 0.61846 0.0
H884 H 0.10221 0.35425 0.56698 0.0
H885 H 0.97572 0.21406 0.49602 0.0
H886 H 0.9466 0.22104 0.4604 0.0
H887 H 0.92478 0.2145 0.5022 0.0
H888 H 0.924 0.29121 0.49724 0.0
H889 H 0.94568 0.29789 0.45539 0.0
H890 H 0.97437 0.34313 0.48752 0.0
H891 H 0.13272 0.36393 0.50878 0.0
H892 H 0.14762 0.36597 0.44761 0.0
H893 H 0.00571 0.28777 0.42437 0.0
C894 C 0.97244 0.28531 0.55948 0.0
C895 C 0.99416 0.30063 0.59168 0.0
C896 C 0.04124 0.32562 0.59407 0.0
C897 C 0.06632 0.33521 0.56498 0.0
C898 C 0.04391 0.31961 0.53366 0.0
C899 C 0.99806 0.29522 0.53068 0.0
C900 C 0.98224 0.28263 0.49396 0.0
C901 C 0.95578 0.22993 0.4878 0.0
C902 C 0.95497 0.30507 0.48289 0.0
C903 C 0.02633 0.30388 0.47685 0.0
C904 C 0.06152 0.32501 0.50014 0.0
C905 C 0.10544 0.34742 0.49024 0.0
C906 C 0.11358 0.34841 0.45548 0.0
C907 C 0.07791 0.32704 0.43118 0.0
C908 C 0.03381 0.30439 0.44223 0.0
loop_
_geom_bond_atom_site_label_1
_geom_bond_atom_site_label_2
_geom_bond_distance
_geom_bond_site_symmetry_2
_ccdc_geom_bond_type
Zn0 O6 1.969 . S
Zn0 O7 1.965 1_556 S
Zn0 O11 2.024 1_556 S
Zn0 O16 1.969 . S
Zn1 O8 1.969 . S
Zn1 O14 1.969 . S
Zn1 O15 1.965 1_554 S
Zn1 O17 2.024 1_554 S
C2 O3 1.229 . S
C2 O11 1.058 1_556 S
O3 C2 1.229 . S
C4 O5 1.229 . S
C4 O17 1.058 1_554 S
O5 C4 1.229 . S
O6 Zn0 1.969 . S
O6 C9 1.267 1_556 S
O7 Zn0 1.965 1_554 S
O7 C18 1.260 . S
O8 Zn1 1.969 . S
O8 C18 1.258 1_655 S
C9 O6 1.267 1_554 S
C9 O10 1.228 . S
O10 C9 1.228 . S
O11 Zn0 2.024 1_554 S
O11 C2 1.058 1_554 S
C12 O13 1.228 1_554 S
C12 O14 1.267 . S
O13 C12 1.228 1_556 S
O14 Zn1 1.969 . S
O14 C12 1.267 . S
O15 Zn1 1.965 1_556 S
O15 C19 1.260 . S
O16 Zn0 1.969 . S
O16 C19 1.258 1_455 S
O17 Zn1 2.024 1_556 S
O17 C4 1.058 1_556 S
C18 O7 1.260 . S
C18 O8 1.258 1_455 S
C19 O15 1.260 . S
C19 O16 1.258 1_655 S
Zn20 O26 1.969 . S
Zn20 O27 1.965 1_554 S
Zn20 O31 2.024 1_554 S
Zn20 O36 1.969 . S
Zn21 O28 1.969 . S
Zn21 O34 1.969 . S
Zn21 O35 1.965 1_556 S
Zn21 O37 2.024 1_556 S
C22 O23 1.229 . S
C22 O31 1.058 1_554 S
O23 C22 1.229 . S
C24 O25 1.229 . S
C24 O37 1.058 1_556 S
O25 C24 1.229 . S
O26 Zn20 1.969 . S
O26 C29 1.264 1_554 S
O27 Zn20 1.965 1_556 S
O27 C38 1.260 . S
O28 Zn21 1.969 . S
O28 C38 1.258 . S
C29 O26 1.264 1_556 S
C29 O30 1.232 . S
O30 C29 1.232 . S
O31 Zn20 2.024 1_556 S
O31 C22 1.058 1_556 S
C32 O33 1.228 . S
C32 O34 1.267 1_554 S
O33 C32 1.228 . S
O34 Zn21 1.969 . S
O34 C32 1.267 1_556 S
O35 Zn21 1.965 1_554 S
O35 C39 1.260 . S
O36 Zn20 1.969 . S
O36 C39 1.258 . S
O37 Zn21 2.024 1_554 S
O37 C24 1.058 1_554 S
C38 O27 1.260 . S
C38 O28 1.258 . S
C39 O35 1.260 . S
C39 O36 1.258 . S
Zn40 O46 1.969 . S
Zn40 O47 1.965 1_556 S
Zn40 O51 2.024 1_556 S
Zn40 O56 1.969 . S
Zn41 O48 1.969 . S
Zn41 O54 1.969 . S
Zn41 O55 1.965 1_554 S
Zn41 O57 2.022 1_554 S
C42 O43 1.229 . S
C42 O51 1.058 1_556 S
O43 C42 1.229 . S
C44 O45 1.229 . S
C44 O57 1.054 1_554 S
O45 C44 1.229 . S
O46 Zn40 1.969 . S
O46 C49 1.267 1_556 S
O47 Zn40 1.965 1_554 S
O47 C58 1.260 . S
O48 Zn41 1.969 . S
O48 C58 1.258 1_545 S
C49 O46 1.267 1_554 S
C49 O50 1.228 . S
O50 C49 1.228 . S
O51 Zn40 2.024 1_554 S
O51 C42 1.058 1_554 S
C52 O53 1.228 1_554 S
C52 O54 1.267 . S
O53 C52 1.228 1_556 S
O54 Zn41 1.969 . S
O54 C52 1.267 . S
O55 Zn41 1.965 1_556 S
O55 C59 1.260 . S
O56 Zn40 1.969 . S
O56 C59 1.258 1_565 S
O57 Zn41 2.022 1_556 S
O57 C44 1.054 1_556 S
C58 O47 1.260 . S
C58 O48 1.258 1_565 S
C59 O55 1.260 . S
C59 O56 1.258 1_545 S
Zn60 O66 1.969 . S
Zn60 O67 1.965 . S
Zn60 O71 2.024 . S
Zn60 O76 1.969 . S
Zn61 O68 1.969 . S
Zn61 O74 1.969 . S
Zn61 O75 1.965 . S
Zn61 O77 2.024 . S
C62 O63 1.229 . S
C62 O71 1.058 . S
O63 C62 1.229 . S
C64 O65 1.229 . S
C64 O77 1.058 . S
O65 C64 1.229 . S
O66 Zn60 1.969 . S
O66 C69 1.267 . S
O67 Zn60 1.965 . S
O67 C78 1.260 . S
O68 Zn61 1.969 . S
O68 C78 1.258 . S
C69 O66 1.267 . S
C69 O70 1.228 . S
O70 C69 1.228 . S
O71 Zn60 2.024 . S
O71 C62 1.058 . S
C72 O73 1.228 . S
C72 O74 1.267 . S
O73 C72 1.228 . S
O74 Zn61 1.969 . S
O74 C72 1.267 . S
O75 Zn61 1.965 . S
O75 C79 1.260 . S
O76 Zn60 1.969 . S
O76 C79 1.258 . S
O77 Zn61 2.024 . S
O77 C64 1.058 . S
C78 O67 1.260 . S
C78 O68 1.258 . S
C79 O75 1.260 . S
C79 O76 1.258 . S
Zn80 O86 1.969 . S
Zn80 O87 1.965 . S
Zn80 O91 2.024 . S
Zn80 O96 1.969 . S
Zn81 O88 1.969 . S
Zn81 O94 1.969 . S
Zn81 O95 1.965 . S
Zn81 O97 2.024 . S
C82 O83 1.229 . S
C82 O91 1.058 . S
O83 C82 1.229 . S
C84 O85 1.229 . S
C84 O97 1.058 . S
O85 C84 1.229 . S
O86 Zn80 1.969 . S
O86 C89 1.267 1_565 S
O87 Zn80 1.965 . S
O87 C98 1.260 . S
O88 Zn81 1.969 . S
O88 C98 1.258 . S
C89 O86 1.267 1_545 S
C89 O90 1.228 . S
O90 C89 1.228 . S
O91 Zn80 2.024 . S
O91 C82 1.058 . S
C92 O93 1.228 . S
C92 O94 1.267 . S
O93 C92 1.228 . S
O94 Zn81 1.969 . S
O94 C92 1.267 . S
O95 Zn81 1.965 . S
O95 C99 1.260 . S
O96 Zn80 1.969 . S
O96 C99 1.258 . S
O97 Zn81 2.024 . S
O97 C84 1.058 . S
C98 O87 1.260 . S
C98 O88 1.258 . S
C99 O95 1.260 . S
C99 O96 1.258 . S
Zn100 O106 1.969 . S
Zn100 O107 1.965 . S
Zn100 O111 2.024 . S
Zn100 O116 1.969 . S
Zn101 O108 1.969 . S
Zn101 O114 1.969 . S
Zn101 O115 1.965 . S
Zn101 O117 2.024 . S
C102 O103 1.229 . S
C102 O111 1.058 . S
O103 C102 1.229 . S
C104 O105 1.229 . S
C104 O117 1.058 . S
O105 C104 1.229 . S
O106 Zn100 1.969 . S
O106 C109 1.267 1_455 S
O107 Zn100 1.965 . S
O107 C118 1.260 . S
O108 Zn101 1.969 . S
O108 C118 1.258 . S
C109 O106 1.267 1_655 S
C109 O110 1.228 1_655 S
O110 C109 1.228 1_455 S
O111 Zn100 2.024 . S
O111 C102 1.058 . S
C112 O113 1.228 . S
C112 O114 1.267 . S
O113 C112 1.228 . S
O114 Zn101 1.969 . S
O114 C112 1.267 . S
O115 Zn101 1.965 . S
O115 C119 1.260 . S
O116 Zn100 1.969 . S
O116 C119 1.258 . S
O117 Zn101 2.024 . S
O117 C104 1.058 . S
C118 O107 1.260 . S
C118 O108 1.258 . S
C119 O115 1.260 . S
C119 O116 1.258 . S
Zn120 O126 1.969 . S
Zn120 O127 1.965 . S
Zn120 O131 2.024 . S
Zn120 O136 1.969 . S
Zn121 O128 1.969 . S
Zn121 O134 1.969 . S
Zn121 O135 1.965 . S
Zn121 O137 2.024 . S
C122 O123 1.229 . S
C122 O131 1.058 . S
O123 C122 1.229 . S
C124 O125 1.229 . S
C124 O137 1.058 . S
O125 C124 1.229 . S
O126 Zn120 1.969 . S
O126 C129 1.267 . S
O127 Zn120 1.965 . S
O127 C138 1.260 . S
O128 Zn121 1.969 . S
O128 C138 1.258 . S
C129 O126 1.267 . S
C129 O130 1.228 . S
O130 C129 1.228 . S
O131 Zn120 2.024 . S
O131 C122 1.058 . S
C132 O133 1.228 . S
C132 O134 1.267 . S
O133 C132 1.228 . S
O134 Zn121 1.969 . S
O134 C132 1.267 . S
O135 Zn121 1.965 . S
O135 C139 1.260 . S
O136 Zn120 1.969 . S
O136 C139 1.258 . S
O137 Zn121 2.024 . S
O137 C124 1.058 . S
C138 O127 1.260 . S
C138 O128 1.258 . S
C139 O135 1.260 . S
C139 O136 1.258 . S
Zn140 O146 1.969 . S
Zn140 O147 1.965 . S
Zn140 O151 2.024 . S
Zn140 O156 1.969 . S
Zn141 O148 1.969 . S
Zn141 O154 1.969 . S
Zn141 O155 1.965 . S
Zn141 O157 2.024 . S
C142 O143 1.229 . S
C142 O151 1.058 . S
O143 C142 1.229 . S
C144 O145 1.229 . S
C144 O157 1.058 . S
O145 C144 1.229 . S
O146 Zn140 1.969 . S
O146 C149 1.267 1_655 S
O147 Zn140 1.965 . S
O147 C158 1.260 . S
O148 Zn141 1.969 . S
O148 C158 1.258 . S
C149 O146 1.267 1_455 S
C149 O150 1.228 1_455 S
O150 C149 1.228 1_655 S
O151 Zn140 2.024 . S
O151 C142 1.058 . S
C152 O153 1.228 . S
C152 O154 1.267 . S
O153 C152 1.228 . S
O154 Zn141 1.969 . S
O154 C152 1.267 . S
O155 Zn141 1.965 . S
O155 C159 1.260 . S
O156 Zn140 1.969 . S
O156 C159 1.258 . S
O157 Zn141 2.024 . S
O157 C144 1.058 . S
C158 O147 1.260 . S
C158 O148 1.258 . S
C159 O155 1.260 . S
C159 O156 1.258 . S
Zn160 O166 1.969 . S
Zn160 O167 1.965 . S
Zn160 O171 2.024 . S
Zn160 O176 1.969 . S
Zn161 O168 1.969 . S
Zn161 O174 1.969 . S
Zn161 O175 1.965 . S
Zn161 O177 2.024 . S
C162 O163 1.229 . S
C162 O171 1.058 . S
O163 C162 1.229 . S
C164 O165 1.229 . S
C164 O177 1.058 . S
O165 C164 1.229 . S
O166 Zn160 1.969 . S
O166 C169 1.267 . S
O167 Zn160 1.965 . S
O167 C178 1.260 . S
O168 Zn161 1.969 . S
O168 C178 1.258 . S
C169 O166 1.267 . S
C169 O170 1.228 . S
O170 C169 1.228 . S
O171 Zn160 2.024 . S
O171 C162 1.058 . S
C172 O173 1.228 . S
C172 O174 1.267 . S
O173 C172 1.228 . S
O174 Zn161 1.969 . S
O174 C172 1.267 . S
O175 Zn161 1.965 . S
O175 C179 1.260 . S
O176 Zn160 1.969 . S
O176 C179 1.258 . S
O177 Zn161 2.024 . S
O177 C164 1.058 . S
C178 O167 1.260 . S
C178 O168 1.258 . S
C179 O175 1.260 . S
C179 O176 1.258 . S
H180 C192 0.930 . S
H181 C194 0.930 . S
H182 C195 0.930 . S
H183 C199 0.959 . S
H184 C199 0.959 . S
H185 C199 0.961 . S
H186 C200 0.960 . S
H187 C200 0.961 . S
H188 C200 0.959 . S
H189 C203 0.929 . S
H190 C204 0.931 . S
H191 C206 0.930 . S
C192 H180 0.930 . S
C192 C193 1.399 1_554 S
C192 C197 1.399 . S
C193 C192 1.399 1_556 S
C193 C194 1.376 . S
C194 H181 0.930 . S
C194 C193 1.376 . S
C194 C195 1.388 . S
C195 H182 0.930 . S
C195 C194 1.388 . S
C195 C196 1.390 . S
C196 C195 1.390 . S
C196 C197 1.394 1_556 S
C196 C202 1.465 . S
C197 C192 1.399 . S
C197 C196 1.394 1_554 S
C197 C198 1.516 . S
C198 C197 1.516 . S
C198 C199 1.502 . S
C198 C200 1.561 . S
C198 C201 1.526 . S
C199 H183 0.959 . S
C199 H184 0.959 . S
C199 H185 0.961 . S
C199 C198 1.502 . S
C200 H186 0.960 . S
C200 H187 0.961 . S
C200 H188 0.959 . S
C200 C198 1.561 . S
C201 C198 1.526 . S
C201 C202 1.396 1_554 S
C201 C206 1.390 . S
C202 C196 1.465 . S
C202 C201 1.396 1_556 S
C202 C203 1.399 . S
C203 H189 0.929 . S
C203 C202 1.399 . S
C203 C204 1.385 . S
C204 H190 0.931 . S
C204 C203 1.385 . S
C204 C205 1.389 1_556 S
C205 C204 1.389 1_554 S
C205 C206 1.387 . S
C206 H191 0.930 . S
C206 C201 1.390 . S
C206 C205 1.387 . S
H207 C219 0.930 . S
H208 C221 0.930 . S
H209 C222 0.930 . S
H210 C226 0.959 . S
H211 C226 0.959 . S
H212 C226 0.961 . S
H213 C227 0.960 . S
H214 C227 0.961 . S
H215 C227 0.959 . S
H216 C230 0.929 . S
H217 C231 0.931 . S
H218 C233 0.930 . S
C219 H207 0.930 . S
C219 C220 1.399 . S
C219 C224 1.399 . S
C220 C219 1.399 . S
C220 C221 1.376 1_556 S
C221 H208 0.930 . S
C221 C220 1.376 1_554 S
C221 C222 1.388 . S
C222 H209 0.930 . S
C222 C221 1.388 . S
C222 C223 1.390 . S
C223 C222 1.390 . S
C223 C224 1.394 1_554 S
C223 C229 1.465 . S
C224 C219 1.399 . S
C224 C223 1.394 1_556 S
C224 C225 1.516 . S
C225 C224 1.516 . S
C225 C226 1.502 . S
C225 C227 1.561 . S
C225 C228 1.526 . S
C226 H210 0.959 . S
C226 H211 0.959 . S
C226 H212 0.961 . S
C226 C225 1.502 . S
C227 H213 0.960 . S
C227 H214 0.961 . S
C227 H215 0.959 . S
C227 C225 1.561 . S
C228 C225 1.526 . S
C228 C229 1.396 1_556 S
C228 C233 1.390 . S
C229 C223 1.465 . S
C229 C228 1.396 1_554 S
C229 C230 1.399 . S
C230 H216 0.929 . S
C230 C229 1.399 . S
C230 C231 1.385 . S
C231 H217 0.931 . S
C231 C230 1.385 . S
C231 C232 1.389 1_554 S
C232 C231 1.389 1_556 S
C232 C233 1.387 . S
C233 H218 0.930 . S
C233 C228 1.390 . S
C233 C232 1.387 . S
H234 C246 0.930 . S
H235 C248 0.930 . S
H236 C249 0.930 . S
H237 C253 0.959 . S
H238 C253 0.959 . S
H239 C253 0.961 . S
H240 C254 0.960 . S
H241 C254 0.961 . S
H242 C254 0.959 . S
H243 C257 0.929 . S
H244 C258 0.931 . S
H245 C260 0.930 . S
C246 H234 0.930 . S
C246 C247 1.399 1_554 S
C246 C251 1.399 . S
C247 C246 1.399 1_556 S
C247 C248 1.376 . S
C248 H235 0.930 . S
C248 C247 1.376 . S
C248 C249 1.388 . S
C249 H236 0.930 . S
C249 C248 1.388 . S
C249 C250 1.390 . S
C250 C249 1.390 . S
C250 C251 1.394 1_556 S
C250 C256 1.465 . S
C251 C246 1.399 . S
C251 C250 1.394 1_554 S
C251 C252 1.516 . S
C252 C251 1.516 . S
C252 C253 1.502 . S
C252 C254 1.561 . S
C252 C255 1.526 . S
C253 H237 0.959 . S
C253 H238 0.959 . S
C253 H239 0.961 . S
C253 C252 1.502 . S
C254 H240 0.960 . S
C254 H241 0.961 . S
C254 H242 0.959 . S
C254 C252 1.561 . S
C255 C252 1.526 . S
C255 C256 1.396 1_554 S
C255 C260 1.390 . S
C256 C250 1.465 . S
C256 C255 1.396 1_556 S
C256 C257 1.399 . S
C257 H243 0.929 . S
C257 C256 1.399 . S
C257 C258 1.385 . S
C258 H244 0.931 . S
C258 C257 1.385 . S
C258 C259 1.389 . S
C259 C258 1.389 . S
C259 C260 1.387 1_556 S
C260 H245 0.930 . S
C260 C255 1.390 . S
C260 C259 1.387 1_554 S
H261 C273 0.930 . S
H262 C275 0.930 . S
H263 C276 0.930 . S
H264 C280 0.959 . S
H265 C280 0.959 . S
H266 C280 0.961 . S
H267 C281 0.960 . S
H268 C281 0.961 . S
H269 C281 0.959 . S
H270 C284 0.929 . S
H271 C285 0.931 . S
H272 C287 0.930 . S
C273 H261 0.930 . S
C273 C274 1.399 1_556 S
C273 C278 1.399 . S
C274 C273 1.399 1_554 S
C274 C275 1.376 . S
C275 H262 0.930 . S
C275 C274 1.376 . S
C275 C276 1.388 . S
C276 H263 0.930 . S
C276 C275 1.388 . S
C276 C277 1.390 . S
C277 C276 1.390 . S
C277 C278 1.394 1_554 S
C277 C283 1.465 . S
C278 C273 1.399 . S
C278 C277 1.394 1_556 S
C278 C279 1.516 . S
C279 C278 1.516 . S
C279 C280 1.502 . S
C279 C281 1.561 . S
C279 C282 1.526 . S
C280 H264 0.959 . S
C280 H265 0.959 . S
C280 H266 0.961 . S
C280 C279 1.502 . S
C281 H267 0.960 . S
C281 H268 0.961 . S
C281 H269 0.959 . S
C281 C279 1.561 . S
C282 C279 1.526 . S
C282 C283 1.396 1_556 S
C282 C287 1.390 . S
C283 C277 1.465 . S
C283 C282 1.396 1_554 S
C283 C284 1.399 . S
C284 H270 0.929 . S
C284 C283 1.399 . S
C284 C285 1.385 . S
C285 H271 0.931 . S
C285 C284 1.385 . S
C285 C286 1.389 . S
C286 C285 1.389 . S
C286 C287 1.387 1_554 S
C287 H272 0.930 . S
C287 C282 1.390 . S
C287 C286 1.387 1_556 S
H288 C300 0.930 . S
H289 C302 0.930 . S
H290 C303 0.930 . S
H291 C307 0.959 . S
H292 C307 0.959 . S
H293 C307 0.961 . S
H294 C308 0.960 . S
H295 C308 0.961 . S
H296 C308 0.959 . S
H297 C311 0.929 . S
H298 C312 0.931 . S
H299 C314 0.930 . S
C300 H288 0.930 . S
C300 C301 1.399 . S
C300 C305 1.399 . S
C301 C300 1.399 . S
C301 C302 1.376 1_554 S
C302 H289 0.930 . S
C302 C301 1.376 1_556 S
C302 C303 1.388 . S
C303 H290 0.930 . S
C303 C302 1.388 . S
C303 C304 1.390 . S
C304 C303 1.390 . S
C304 C305 1.394 1_556 S
C304 C310 1.465 . S
C305 C300 1.399 . S
C305 C304 1.394 1_554 S
C305 C306 1.516 . S
C306 C305 1.516 . S
C306 C307 1.502 . S
C306 C308 1.561 . S
C306 C309 1.526 . S
C307 H291 0.959 . S
C307 H292 0.959 . S
C307 H293 0.961 . S
C307 C306 1.502 . S
C308 H294 0.960 . S
C308 H295 0.961 . S
C308 H296 0.959 . S
C308 C306 1.561 . S
C309 C306 1.526 . S
C309 C310 1.396 1_554 S
C309 C314 1.390 . S
C310 C304 1.465 . S
C310 C309 1.396 1_556 S
C310 C311 1.399 . S
C311 H297 0.929 . S
C311 C310 1.399 . S
C311 C312 1.385 . S
C312 H298 0.931 . S
C312 C311 1.385 . S
C312 C313 1.389 1_556 S
C313 C312 1.389 1_554 S
C313 C314 1.387 . S
C314 H299 0.930 . S
C314 C309 1.390 . S
C314 C313 1.387 . S
H315 C327 0.930 . S
H316 C329 0.930 . S
H317 C330 0.930 . S
H318 C334 0.959 . S
H319 C334 0.959 . S
H320 C334 0.961 . S
H321 C335 0.960 . S
H322 C335 0.961 . S
H323 C335 0.959 . S
H324 C338 0.929 . S
H325 C339 0.931 . S
H326 C341 0.930 . S
C327 H315 0.930 . S
C327 C328 1.399 . S
C327 C332 1.399 . S
C328 C327 1.399 . S
C328 C329 1.376 1_554 S
C329 H316 0.930 . S
C329 C328 1.376 1_556 S
C329 C330 1.388 . S
C330 H317 0.930 . S
C330 C329 1.388 . S
C330 C331 1.390 . S
C331 C330 1.390 . S
C331 C332 1.394 1_556 S
C331 C337 1.465 . S
C332 C327 1.399 . S
C332 C331 1.394 1_554 S
C332 C333 1.516 . S
C333 C332 1.516 . S
C333 C334 1.502 . S
C333 C335 1.561 . S
C333 C336 1.526 . S
C334 H318 0.959 . S
C334 H319 0.959 . S
C334 H320 0.961 . S
C334 C333 1.502 . S
C335 H321 0.960 . S
C335 H322 0.961 . S
C335 H323 0.959 . S
C335 C333 1.561 . S
C336 C333 1.526 . S
C336 C337 1.396 1_554 S
C336 C341 1.390 . S
C337 C331 1.465 . S
C337 C336 1.396 1_556 S
C337 C338 1.399 . S
C338 H324 0.929 . S
C338 C337 1.399 . S
C338 C339 1.385 . S
C339 H325 0.931 . S
C339 C338 1.385 . S
C339 C340 1.401 . S
C340 C339 1.401 . S
C340 C341 1.377 1_556 S
C341 H326 0.930 . S
C341 C336 1.390 . S
C341 C340 1.377 1_554 S
H342 C354 0.930 . S
H343 C356 0.930 . S
H344 C357 0.930 . S
H345 C361 0.959 . S
H346 C361 0.959 . S
H347 C361 0.961 . S
H348 C362 0.960 . S
H349 C362 0.961 . S
H350 C362 0.959 . S
H351 C365 0.929 . S
H352 C366 0.931 . S
H353 C368 0.930 . S
C354 H342 0.930 . S
C354 C355 1.399 . S
C354 C359 1.399 . S
C355 C354 1.399 . S
C355 C356 1.376 . S
C356 H343 0.930 . S
C356 C355 1.376 . S
C356 C357 1.388 . S
C357 H344 0.930 . S
C357 C356 1.388 . S
C357 C358 1.390 . S
C358 C357 1.390 . S
C358 C359 1.394 . S
C358 C364 1.465 . S
C359 C354 1.399 . S
C359 C358 1.394 . S
C359 C360 1.516 . S
C360 C359 1.516 . S
C360 C361 1.502 . S
C360 C362 1.561 . S
C360 C363 1.526 . S
C361 H345 0.959 . S
C361 H346 0.959 . S
C361 H347 0.961 . S
C361 C360 1.502 . S
C362 H348 0.960 . S
C362 H349 0.961 . S
C362 H350 0.959 . S
C362 C360 1.561 . S
C363 C360 1.526 . S
C363 C364 1.396 . S
C363 C368 1.390 1_655 S
C364 C358 1.465 . S
C364 C363 1.396 . S
C364 C365 1.399 . S
C365 H351 0.929 . S
C365 C364 1.399 . S
C365 C366 1.385 1_655 S
C366 H352 0.931 . S
C366 C365 1.385 1_455 S
C366 C367 1.389 . S
C367 C366 1.389 . S
C367 C368 1.387 . S
C368 H353 0.930 . S
C368 C363 1.390 1_455 S
C368 C367 1.387 . S
H369 C381 0.930 . S
H370 C383 0.930 . S
H371 C384 0.930 . S
H372 C388 0.959 . S
H373 C388 0.959 . S
H374 C388 0.961 . S
H375 C389 0.960 . S
H376 C389 0.961 . S
H377 C389 0.959 . S
H378 C392 0.929 . S
H379 C393 0.931 . S
H380 C395 0.930 . S
C381 H369 0.930 . S
C381 C382 1.399 . S
C381 C386 1.399 . S
C382 C381 1.399 . S
C382 C383 1.376 . S
C383 H370 0.930 . S
C383 C382 1.376 . S
C383 C384 1.388 . S
C384 H371 0.930 . S
C384 C383 1.388 . S
C384 C385 1.390 . S
C385 C384 1.390 . S
C385 C386 1.394 . S
C385 C391 1.465 . S
C386 C381 1.399 . S
C386 C385 1.394 . S
C386 C387 1.516 . S
C387 C386 1.516 . S
C387 C388 1.502 . S
C387 C389 1.561 . S
C387 C390 1.526 . S
C388 H372 0.959 . S
C388 H373 0.959 . S
C388 H374 0.961 . S
C388 C387 1.502 . S
C389 H375 0.960 . S
C389 H376 0.961 . S
C389 H377 0.959 . S
C389 C387 1.561 . S
C390 C387 1.526 . S
C390 C391 1.396 . S
C390 C395 1.390 . S
C391 C385 1.465 . S
C391 C390 1.396 . S
C391 C392 1.399 . S
C392 H378 0.929 . S
C392 C391 1.399 . S
C392 C393 1.385 . S
C393 H379 0.931 . S
C393 C392 1.385 . S
C393 C394 1.389 . S
C394 C393 1.389 . S
C394 C395 1.387 . S
C395 H380 0.930 . S
C395 C390 1.390 . S
C395 C394 1.387 . S
H396 C408 0.930 . S
H397 C410 0.930 . S
H398 C411 0.930 . S
H399 C415 0.959 . S
H400 C415 0.959 . S
H401 C415 0.961 . S
H402 C416 0.960 . S
H403 C416 0.961 . S
H404 C416 0.959 . S
H405 C419 0.929 . S
H406 C420 0.931 . S
H407 C422 0.930 . S
C408 H396 0.930 . S
C408 C409 1.399 . S
C408 C413 1.399 . S
C409 C408 1.399 . S
C409 C410 1.376 . S
C410 H397 0.930 . S
C410 C409 1.376 . S
C410 C411 1.388 . S
C411 H398 0.930 . S
C411 C410 1.388 . S
C411 C412 1.390 . S
C412 C411 1.390 . S
C412 C413 1.394 . S
C412 C418 1.465 . S
C413 C408 1.399 . S
C413 C412 1.394 . S
C413 C414 1.516 . S
C414 C413 1.516 . S
C414 C415 1.502 . S
C414 C416 1.561 . S
C414 C417 1.526 . S
C415 H399 0.959 . S
C415 H400 0.959 . S
C415 H401 0.961 . S
C415 C414 1.502 . S
C416 H402 0.960 . S
C416 H403 0.961 . S
C416 H404 0.959 . S
C416 C414 1.561 . S
C417 C414 1.526 . S
C417 C418 1.396 . S
C417 C422 1.390 1_545 S
C418 C412 1.465 . S
C418 C417 1.396 . S
C418 C419 1.399 . S
C419 H405 0.929 . S
C419 C418 1.399 . S
C419 C420 1.385 1_545 S
C420 H406 0.931 . S
C420 C419 1.385 1_565 S
C420 C421 1.389 . S
C421 C420 1.389 . S
C421 C422 1.387 . S
C422 H407 0.930 . S
C422 C417 1.390 1_565 S
C422 C421 1.387 . S
H423 C435 0.930 . S
H424 C437 0.930 . S
H425 C438 0.930 . S
H426 C442 0.959 . S
H427 C442 0.959 . S
H428 C442 0.961 . S
H429 C443 0.960 . S
H430 C443 0.961 . S
H431 C443 0.959 . S
H432 C446 0.929 . S
H433 C447 0.931 . S
H434 C449 0.930 . S
C435 H423 0.930 . S
C435 C436 1.399 . S
C435 C440 1.399 . S
C436 C435 1.399 . S
C436 C437 1.376 . S
C437 H424 0.930 . S
C437 C436 1.376 . S
C437 C438 1.388 . S
C438 H425 0.930 . S
C438 C437 1.388 . S
C438 C439 1.390 . S
C439 C438 1.390 . S
C439 C440 1.394 . S
C439 C445 1.465 . S
C440 C435 1.399 . S
C440 C439 1.394 . S
C440 C441 1.516 . S
C441 C440 1.516 . S
C441 C442 1.502 . S
C441 C443 1.561 . S
C441 C444 1.526 . S
C442 H426 0.959 . S
C442 H427 0.959 . S
C442 H428 0.961 . S
C442 C441 1.502 . S
C443 H429 0.960 . S
C443 H430 0.961 . S
C443 H431 0.959 . S
C443 C441 1.561 . S
C444 C441 1.526 . S
C444 C445 1.396 . S
C444 C449 1.390 . S
C445 C439 1.465 . S
C445 C444 1.396 . S
C445 C446 1.399 . S
C446 H432 0.929 . S
C446 C445 1.399 . S
C446 C447 1.385 . S
C447 H433 0.931 . S
C447 C446 1.385 . S
C447 C448 1.389 . S
C448 C447 1.389 . S
C448 C449 1.387 . S
C449 H434 0.930 . S
C449 C444 1.390 . S
C449 C448 1.387 . S
H450 C462 0.930 . S
H451 C464 0.930 . S
H452 C465 0.930 . S
H453 C469 0.959 . S
H454 C469 0.959 . S
H455 C469 0.961 . S
H456 C470 0.960 . S
H457 C470 0.961 . S
H458 C470 0.959 . S
H459 C473 0.929 . S
H460 C474 0.931 . S
H461 C476 0.930 . S
C462 H450 0.930 . S
C462 C463 1.399 . S
C462 C467 1.399 . S
C463 C462 1.399 . S
C463 C464 1.376 . S
C464 H451 0.930 . S
C464 C463 1.376 . S
C464 C465 1.388 . S
C465 H452 0.930 . S
C465 C464 1.388 . S
C465 C466 1.390 . S
C466 C465 1.390 . S
C466 C467 1.394 . S
C466 C472 1.465 . S
C467 C462 1.399 . S
C467 C466 1.394 . S
C467 C468 1.516 . S
C468 C467 1.516 . S
C468 C469 1.502 . S
C468 C470 1.561 . S
C468 C471 1.526 . S
C469 H453 0.959 . S
C469 H454 0.959 . S
C469 H455 0.961 . S
C469 C468 1.502 . S
C470 H456 0.960 . S
C470 H457 0.961 . S
C470 H458 0.959 . S
C470 C468 1.561 . S
C471 C468 1.526 . S
C471 C472 1.396 . S
C471 C476 1.390 . S
C472 C466 1.465 . S
C472 C471 1.396 . S
C472 C473 1.399 . S
C473 H459 0.929 . S
C473 C472 1.399 . S
C473 C474 1.385 . S
C474 H460 0.931 . S
C474 C473 1.385 . S
C474 C475 1.389 . S
C475 C474 1.389 . S
C475 C476 1.387 . S
C476 H461 0.930 . S
C476 C471 1.390 . S
C476 C475 1.387 . S
H477 C489 0.930 . S
H478 C491 0.930 . S
H479 C492 0.930 . S
H480 C496 0.959 . S
H481 C496 0.959 . S
H482 C496 0.961 . S
H483 C497 0.960 . S
H484 C497 0.961 . S
H485 C497 0.959 . S
H486 C500 0.929 . S
H487 C501 0.931 . S
H488 C503 0.930 . S
C489 H477 0.930 . S
C489 C490 1.399 . S
C489 C494 1.399 . S
C490 C489 1.399 . S
C490 C491 1.376 . S
C491 H478 0.930 . S
C491 C490 1.376 . S
C491 C492 1.388 . S
C492 H479 0.930 . S
C492 C491 1.388 . S
C492 C493 1.390 . S
C493 C492 1.390 . S
C493 C494 1.394 . S
C493 C499 1.465 . S
C494 C489 1.399 . S
C494 C493 1.394 . S
C494 C495 1.516 . S
C495 C494 1.516 . S
C495 C496 1.502 . S
C495 C497 1.561 . S
C495 C498 1.526 . S
C496 H480 0.959 . S
C496 H481 0.959 . S
C496 H482 0.961 . S
C496 C495 1.502 . S
C497 H483 0.960 . S
C497 H484 0.961 . S
C497 H485 0.959 . S
C497 C495 1.561 . S
C498 C495 1.526 . S
C498 C499 1.396 . S
C498 C503 1.390 . S
C499 C493 1.465 . S
C499 C498 1.396 . S
C499 C500 1.399 . S
C500 H486 0.929 . S
C500 C499 1.399 . S
C500 C501 1.385 . S
C501 H487 0.931 . S
C501 C500 1.385 . S
C501 C502 1.389 . S
C502 C501 1.389 . S
C502 C503 1.387 . S
C503 H488 0.930 . S
C503 C498 1.390 . S
C503 C502 1.387 . S
H504 C516 0.930 . S
H505 C518 0.930 . S
H506 C519 0.930 . S
H507 C523 0.959 . S
H508 C523 0.959 . S
H509 C523 0.961 . S
H510 C524 0.960 . S
H511 C524 0.961 . S
H512 C524 0.959 . S
H513 C527 0.929 . S
H514 C528 0.931 . S
H515 C530 0.930 . S
C516 H504 0.930 . S
C516 C517 1.399 . S
C516 C521 1.399 . S
C517 C516 1.399 . S
C517 C518 1.376 . S
C518 H505 0.930 . S
C518 C517 1.376 . S
C518 C519 1.388 . S
C519 H506 0.930 . S
C519 C518 1.388 . S
C519 C520 1.390 . S
C520 C519 1.390 . S
C520 C521 1.394 . S
C520 C526 1.465 . S
C521 C516 1.399 . S
C521 C520 1.394 . S
C521 C522 1.516 . S
C522 C521 1.516 . S
C522 C523 1.502 . S
C522 C524 1.561 . S
C522 C525 1.526 . S
C523 H507 0.959 . S
C523 H508 0.959 . S
C523 H509 0.961 . S
C523 C522 1.502 . S
C524 H510 0.960 . S
C524 H511 0.961 . S
C524 H512 0.959 . S
C524 C522 1.561 . S
C525 C522 1.526 . S
C525 C526 1.396 . S
C525 C530 1.390 . S
C526 C520 1.465 . S
C526 C525 1.396 . S
C526 C527 1.399 . S
C527 H513 0.929 . S
C527 C526 1.399 . S
C527 C528 1.385 . S
C528 H514 0.931 . S
C528 C527 1.385 . S
C528 C529 1.389 . S
C529 C528 1.389 . S
C529 C530 1.387 . S
C530 H515 0.930 . S
C530 C525 1.390 . S
C530 C529 1.387 . S
H531 C543 0.930 . S
H532 C545 0.930 . S
H533 C546 0.930 . S
H534 C550 0.959 . S
H535 C550 0.959 . S
H536 C550 0.961 . S
H537 C551 0.960 . S
H538 C551 0.961 . S
H539 C551 0.959 . S
H540 C554 0.929 . S
H541 C555 0.931 . S
H542 C557 0.930 . S
C543 H531 0.930 . S
C543 C544 1.399 . S
C543 C548 1.399 . S
C544 C543 1.399 . S
C544 C545 1.376 . S
C545 H532 0.930 . S
C545 C544 1.376 . S
C545 C546 1.388 . S
C546 H533 0.930 . S
C546 C545 1.388 . S
C546 C547 1.390 . S
C547 C546 1.390 . S
C547 C548 1.394 . S
C547 C553 1.465 . S
C548 C543 1.399 . S
C548 C547 1.394 . S
C548 C549 1.516 . S
C549 C548 1.516 . S
C549 C550 1.502 . S
C549 C551 1.561 . S
C549 C552 1.526 . S
C550 H534 0.959 . S
C550 H535 0.959 . S
C550 H536 0.961 . S
C550 C549 1.502 . S
C551 H537 0.960 . S
C551 H538 0.961 . S
C551 H539 0.959 . S
C551 C549 1.561 . S
C552 C549 1.526 . S
C552 C553 1.396 . S
C552 C557 1.390 . S
C553 C547 1.465 . S
C553 C552 1.396 . S
C553 C554 1.399 . S
C554 H540 0.929 . S
C554 C553 1.399 . S
C554 C555 1.385 . S
C555 H541 0.931 . S
C555 C554 1.385 . S
C555 C556 1.389 . S
C556 C555 1.389 . S
C556 C557 1.387 . S
C557 H542 0.930 . S
C557 C552 1.390 . S
C557 C556 1.387 . S
H558 C570 0.930 . S
H559 C572 0.930 . S
H560 C573 0.930 . S
H561 C577 0.959 . S
H562 C577 0.959 . S
H563 C577 0.961 . S
H564 C578 0.960 . S
H565 C578 0.961 . S
H566 C578 0.959 . S
H567 C581 0.929 . S
H568 C582 0.931 . S
H569 C584 0.930 . S
C570 H558 0.930 . S
C570 C571 1.399 . S
C570 C575 1.399 . S
C571 C570 1.399 . S
C571 C572 1.376 . S
C572 H559 0.930 . S
C572 C571 1.376 . S
C572 C573 1.388 . S
C573 H560 0.930 . S
C573 C572 1.388 . S
C573 C574 1.390 . S
C574 C573 1.390 . S
C574 C575 1.394 . S
C574 C580 1.465 . S
C575 C570 1.399 . S
C575 C574 1.394 . S
C575 C576 1.516 . S
C576 C575 1.516 . S
C576 C577 1.502 . S
C576 C578 1.561 . S
C576 C579 1.526 . S
C577 H561 0.959 . S
C577 H562 0.959 . S
C577 H563 0.961 . S
C577 C576 1.502 . S
C578 H564 0.960 . S
C578 H565 0.961 . S
C578 H566 0.959 . S
C578 C576 1.561 . S
C579 C576 1.526 . S
C579 C580 1.396 . S
C579 C584 1.390 . S
C580 C574 1.465 . S
C580 C579 1.396 . S
C580 C581 1.399 . S
C581 H567 0.929 . S
C581 C580 1.399 . S
C581 C582 1.385 . S
C582 H568 0.931 . S
C582 C581 1.385 . S
C582 C583 1.389 . S
C583 C582 1.389 . S
C583 C584 1.387 . S
C584 H569 0.930 . S
C584 C579 1.390 . S
C584 C583 1.387 . S
H585 C597 0.930 . S
H586 C599 0.930 . S
H587 C600 0.930 . S
H588 C604 0.959 . S
H589 C604 0.959 . S
H590 C604 0.961 . S
H591 C605 0.960 . S
H592 C605 0.961 . S
H593 C605 0.959 . S
H594 C608 0.929 1_565 S
H595 C609 0.931 . S
H596 C611 0.930 . S
C597 H585 0.930 . S
C597 C598 1.399 . S
C597 C602 1.399 . S
C598 C597 1.399 . S
C598 C599 1.376 . S
C599 H586 0.930 . S
C599 C598 1.376 . S
C599 C600 1.388 . S
C600 H587 0.930 . S
C600 C599 1.388 . S
C600 C601 1.390 . S
C601 C600 1.390 . S
C601 C602 1.394 . S
C601 C607 1.465 . S
C602 C597 1.399 . S
C602 C601 1.394 . S
C602 C603 1.516 . S
C603 C602 1.516 . S
C603 C604 1.502 . S
C603 C605 1.561 . S
C603 C606 1.526 . S
C604 H588 0.959 . S
C604 H589 0.959 . S
C604 H590 0.961 . S
C604 C603 1.502 . S
C605 H591 0.960 . S
C605 H592 0.961 . S
C605 H593 0.959 . S
C605 C603 1.561 . S
C606 C603 1.526 . S
C606 C607 1.396 . S
C606 C611 1.390 1_565 S
C607 C601 1.465 . S
C607 C606 1.396 . S
C607 C608 1.399 1_565 S
C608 H594 0.929 1_545 S
C608 C607 1.399 1_545 S
C608 C609 1.385 . S
C609 H595 0.931 . S
C609 C608 1.385 . S
C609 C610 1.389 . S
C610 C609 1.389 . S
C610 C611 1.387 . S
C611 H596 0.930 . S
C611 C606 1.390 1_545 S
C611 C610 1.387 . S
H612 C624 0.930 . S
H613 C626 0.930 . S
H614 C627 0.930 . S
H615 C631 0.959 . S
H616 C631 0.959 . S
H617 C631 0.961 . S
H618 C632 0.960 . S
H619 C632 0.961 . S
H620 C632 0.959 . S
H621 C635 0.929 . S
H622 C636 0.931 . S
H623 C638 0.930 . S
C624 H612 0.930 . S
C624 C625 1.399 . S
C624 C629 1.399 1_655 S
C625 C624 1.399 . S
C625 C626 1.376 . S
C626 H613 0.930 . S
C626 C625 1.376 . S
C626 C627 1.388 1_655 S
C627 H614 0.930 . S
C627 C626 1.388 1_455 S
C627 C628 1.390 . S
C628 C627 1.390 . S
C628 C629 1.394 . S
C628 C634 1.465 . S
C629 C624 1.399 1_455 S
C629 C628 1.394 . S
C629 C630 1.516 . S
C630 C629 1.516 . S
C630 C631 1.502 . S
C630 C632 1.561 . S
C630 C633 1.526 . S
C631 H615 0.959 . S
C631 H616 0.959 . S
C631 H617 0.961 . S
C631 C630 1.502 . S
C632 H618 0.960 . S
C632 H619 0.961 . S
C632 H620 0.959 . S
C632 C630 1.561 . S
C633 C630 1.526 . S
C633 C634 1.396 . S
C633 C638 1.390 . S
C634 C628 1.465 . S
C634 C633 1.396 . S
C634 C635 1.399 . S
C635 H621 0.929 . S
C635 C634 1.399 . S
C635 C636 1.385 . S
C636 H622 0.931 . S
C636 C635 1.385 . S
C636 C637 1.389 . S
C637 C636 1.389 . S
C637 C638 1.387 . S
C638 H623 0.930 . S
C638 C633 1.390 . S
C638 C637 1.387 . S
H639 C651 0.930 . S
H640 C653 0.930 . S
H641 C654 0.930 . S
H642 C658 0.959 . S
H643 C658 0.959 . S
H644 C658 0.961 . S
H645 C659 0.960 . S
H646 C659 0.961 . S
H647 C659 0.959 . S
H648 C662 0.929 . S
H649 C663 0.931 . S
H650 C665 0.930 . S
C651 H639 0.930 . S
C651 C652 1.399 . S
C651 C656 1.399 . S
C652 C651 1.399 . S
C652 C653 1.376 . S
C653 H640 0.930 . S
C653 C652 1.376 . S
C653 C654 1.388 . S
C654 H641 0.930 . S
C654 C653 1.388 . S
C654 C655 1.390 . S
C655 C654 1.390 . S
C655 C656 1.394 . S
C655 C661 1.465 . S
C656 C651 1.399 . S
C656 C655 1.394 . S
C656 C657 1.516 . S
C657 C656 1.516 . S
C657 C658 1.502 . S
C657 C659 1.561 . S
C657 C660 1.526 . S
C658 H642 0.959 . S
C658 H643 0.959 . S
C658 H644 0.961 . S
C658 C657 1.502 . S
C659 H645 0.960 . S
C659 H646 0.961 . S
C659 H647 0.959 . S
C659 C657 1.561 . S
C660 C657 1.526 . S
C660 C661 1.396 . S
C660 C665 1.390 . S
C661 C655 1.465 . S
C661 C660 1.396 . S
C661 C662 1.399 . S
C662 H648 0.929 . S
C662 C661 1.399 . S
C662 C663 1.385 . S
C663 H649 0.931 . S
C663 C662 1.385 . S
C663 C664 1.389 . S
C664 C663 1.389 . S
C664 C665 1.387 . S
C665 H650 0.930 . S
C665 C660 1.390 . S
C665 C664 1.387 . S
H666 C678 0.930 . S
H667 C680 0.930 . S
H668 C681 0.930 . S
H669 C685 0.959 . S
H670 C685 0.959 . S
H671 C685 0.961 . S
H672 C686 0.960 . S
H673 C686 0.961 . S
H674 C686 0.959 . S
H675 C689 0.929 . S
H676 C690 0.931 . S
H677 C692 0.930 . S
C678 H666 0.930 . S
C678 C679 1.399 . S
C678 C683 1.399 . S
C679 C678 1.399 . S
C679 C680 1.376 . S
C680 H667 0.930 . S
C680 C679 1.376 . S
C680 C681 1.388 . S
C681 H668 0.930 . S
C681 C680 1.388 . S
C681 C682 1.390 . S
C682 C681 1.390 . S
C682 C683 1.394 . S
C682 C688 1.465 . S
C683 C678 1.399 . S
C683 C682 1.394 . S
C683 C684 1.516 . S
C684 C683 1.516 . S
C684 C685 1.502 . S
C684 C686 1.561 . S
C684 C687 1.526 . S
C685 H669 0.959 . S
C685 H670 0.959 . S
C685 H671 0.961 . S
C685 C684 1.502 . S
C686 H672 0.960 . S
C686 H673 0.961 . S
C686 H674 0.959 . S
C686 C684 1.561 . S
C687 C684 1.526 . S
C687 C688 1.396 . S
C687 C692 1.390 . S
C688 C682 1.465 . S
C688 C687 1.396 . S
C688 C689 1.399 . S
C689 H675 0.929 . S
C689 C688 1.399 . S
C689 C690 1.385 . S
C690 H676 0.931 . S
C690 C689 1.385 . S
C690 C691 1.389 . S
C691 C690 1.389 . S
C691 C692 1.387 . S
C692 H677 0.930 . S
C692 C687 1.390 . S
C692 C691 1.387 . S
H693 C705 0.930 . S
H694 C707 0.930 . S
H695 C708 0.930 . S
H696 C712 0.959 . S
H697 C712 0.959 . S
H698 C712 0.961 . S
H699 C713 0.960 . S
H700 C713 0.961 . S
H701 C713 0.959 . S
H702 C716 0.929 . S
H703 C717 0.931 . S
H704 C719 0.930 . S
C705 H693 0.930 . S
C705 C706 1.399 . S
C705 C710 1.399 . S
C706 C705 1.399 . S
C706 C707 1.376 . S
C707 H694 0.930 . S
C707 C706 1.376 . S
C707 C708 1.388 . S
C708 H695 0.930 . S
C708 C707 1.388 . S
C708 C709 1.390 . S
C709 C708 1.390 . S
C709 C710 1.394 . S
C709 C715 1.465 . S
C710 C705 1.399 . S
C710 C709 1.394 . S
C710 C711 1.516 . S
C711 C710 1.516 . S
C711 C712 1.502 . S
C711 C713 1.561 . S
C711 C714 1.526 . S
C712 H696 0.959 . S
C712 H697 0.959 . S
C712 H698 0.961 . S
C712 C711 1.502 . S
C713 H699 0.960 . S
C713 H700 0.961 . S
C713 H701 0.959 . S
C713 C711 1.561 . S
C714 C711 1.526 . S
C714 C715 1.396 . S
C714 C719 1.390 . S
C715 C709 1.465 . S
C715 C714 1.396 . S
C715 C716 1.399 . S
C716 H702 0.929 . S
C716 C715 1.399 . S
C716 C717 1.385 . S
C717 H703 0.931 . S
C717 C716 1.385 . S
C717 C718 1.389 . S
C718 C717 1.389 . S
C718 C719 1.387 . S
C719 H704 0.930 . S
C719 C714 1.390 . S
C719 C718 1.387 . S
H720 C732 0.930 . S
H721 C734 0.930 . S
H722 C735 0.930 . S
H723 C739 0.959 . S
H724 C739 0.959 . S
H725 C739 0.961 . S
H726 C740 0.960 1_545 S
H727 C740 0.961 . S
H728 C740 0.959 1_545 S
H729 C743 0.929 . S
H730 C744 0.931 . S
H731 C746 0.930 . S
C732 H720 0.930 . S
C732 C733 1.399 . S
C732 C737 1.399 . S
C733 C732 1.399 . S
C733 C734 1.376 . S
C734 H721 0.930 . S
C734 C733 1.376 . S
C734 C735 1.388 . S
C735 H722 0.930 . S
C735 C734 1.388 . S
C735 C736 1.390 . S
C736 C735 1.390 . S
C736 C737 1.394 . S
C736 C742 1.465 . S
C737 C732 1.399 . S
C737 C736 1.394 . S
C737 C738 1.516 . S
C738 C737 1.516 . S
C738 C739 1.502 . S
C738 C740 1.561 . S
C738 C741 1.526 . S
C739 H723 0.959 . S
C739 H724 0.959 . S
C739 H725 0.961 . S
C739 C738 1.502 . S
C740 H726 0.960 1_565 S
C740 H727 0.961 . S
C740 H728 0.959 1_565 S
C740 C738 1.561 . S
C741 C738 1.526 . S
C741 C742 1.396 . S
C741 C746 1.390 . S
C742 C736 1.465 . S
C742 C741 1.396 . S
C742 C743 1.399 . S
C743 H729 0.929 . S
C743 C742 1.399 . S
C743 C744 1.385 . S
C744 H730 0.931 . S
C744 C743 1.385 . S
C744 C745 1.389 . S
C745 C744 1.389 . S
C745 C746 1.387 . S
C746 H731 0.930 . S
C746 C741 1.390 . S
C746 C745 1.387 . S
H747 C759 0.930 . S
H748 C761 0.930 . S
H749 C762 0.930 1_565 S
H750 C766 0.959 . S
H751 C766 0.959 . S
H752 C766 0.961 . S
H753 C767 0.960 . S
H754 C767 0.961 . S
H755 C767 0.959 . S
H756 C770 0.929 . S
H757 C771 0.931 . S
H758 C773 0.930 . S
C759 H747 0.930 . S
C759 C760 1.399 . S
C759 C764 1.399 . S
C760 C759 1.399 . S
C760 C761 1.376 1_545 S
C761 H748 0.930 . S
C761 C760 1.376 1_565 S
C761 C762 1.388 1_565 S
C762 H749 0.930 1_545 S
C762 C761 1.388 1_545 S
C762 C763 1.390 . S
C763 C762 1.390 . S
C763 C764 1.394 . S
C763 C769 1.465 . S
C764 C759 1.399 . S
C764 C763 1.394 . S
C764 C765 1.516 . S
C765 C764 1.516 . S
C765 C766 1.502 . S
C765 C767 1.561 . S
C765 C768 1.526 . S
C766 H750 0.959 . S
C766 H751 0.959 . S
C766 H752 0.961 . S
C766 C765 1.502 . S
C767 H753 0.960 . S
C767 H754 0.961 . S
C767 H755 0.959 . S
C767 C765 1.561 . S
C768 C765 1.526 . S
C768 C769 1.396 . S
C768 C773 1.390 . S
C769 C763 1.465 . S
C769 C768 1.396 . S
C769 C770 1.399 . S
C770 H756 0.929 . S
C770 C769 1.399 . S
C770 C771 1.385 . S
C771 H757 0.931 . S
C771 C770 1.385 . S
C771 C772 1.389 . S
C772 C771 1.389 . S
C772 C773 1.387 . S
C773 H758 0.930 . S
C773 C768 1.390 . S
C773 C772 1.387 . S
H774 C786 0.930 . S
H775 C788 0.930 . S
H776 C789 0.930 . S
H777 C793 0.959 . S
H778 C793 0.959 . S
H779 C793 0.961 . S
H780 C794 0.960 . S
H781 C794 0.961 . S
H782 C794 0.959 . S
H783 C797 0.929 . S
H784 C798 0.931 . S
H785 C800 0.930 . S
C786 H774 0.930 . S
C786 C787 1.399 . S
C786 C791 1.399 . S
C787 C786 1.399 . S
C787 C788 1.376 . S
C788 H775 0.930 . S
C788 C787 1.376 . S
C788 C789 1.388 . S
C789 H776 0.930 . S
C789 C788 1.388 . S
C789 C790 1.390 . S
C790 C789 1.390 . S
C790 C791 1.394 . S
C790 C796 1.465 . S
C791 C786 1.399 . S
C791 C790 1.394 . S
C791 C792 1.516 . S
C792 C791 1.516 . S
C792 C793 1.502 . S
C792 C794 1.561 . S
C792 C795 1.526 . S
C793 H777 0.959 . S
C793 H778 0.959 . S
C793 H779 0.961 . S
C793 C792 1.502 . S
C794 H780 0.960 . S
C794 H781 0.961 . S
C794 H782 0.959 . S
C794 C792 1.561 . S
C795 C792 1.526 . S
C795 C796 1.396 . S
C795 C800 1.390 . S
C796 C790 1.465 . S
C796 C795 1.396 . S
C796 C797 1.399 . S
C797 H783 0.929 . S
C797 C796 1.399 . S
C797 C798 1.385 . S
C798 H784 0.931 . S
C798 C797 1.385 . S
C798 C799 1.389 . S
C799 C798 1.389 . S
C799 C800 1.387 . S
C800 H785 0.930 . S
C800 C795 1.390 . S
C800 C799 1.387 . S
H801 C813 0.930 . S
H802 C815 0.930 . S
H803 C816 0.930 . S
H804 C820 0.959 . S
H805 C820 0.959 . S
H806 C820 0.961 . S
H807 C821 0.960 . S
H808 C821 0.961 . S
H809 C821 0.959 . S
H810 C824 0.929 . S
H811 C825 0.931 . S
H812 C827 0.930 . S
C813 H801 0.930 . S
C813 C814 1.399 . S
C813 C818 1.399 . S
C814 C813 1.399 . S
C814 C815 1.376 . S
C815 H802 0.930 . S
C815 C814 1.376 . S
C815 C816 1.388 . S
C816 H803 0.930 . S
C816 C815 1.388 . S
C816 C817 1.390 . S
C817 C816 1.390 . S
C817 C818 1.394 . S
C817 C823 1.465 . S
C818 C813 1.399 . S
C818 C817 1.394 . S
C818 C819 1.516 . S
C819 C818 1.516 . S
C819 C820 1.502 . S
C819 C821 1.561 . S
C819 C822 1.526 . S
C820 H804 0.959 . S
C820 H805 0.959 . S
C820 H806 0.961 . S
C820 C819 1.502 . S
C821 H807 0.960 . S
C821 H808 0.961 . S
C821 H809 0.959 . S
C821 C819 1.561 . S
C822 C819 1.526 . S
C822 C823 1.396 . S
C822 C827 1.390 . S
C823 C817 1.465 . S
C823 C822 1.396 . S
C823 C824 1.399 . S
C824 H810 0.929 . S
C824 C823 1.399 . S
C824 C825 1.385 . S
C825 H811 0.931 . S
C825 C824 1.385 . S
C825 C826 1.389 . S
C826 C825 1.389 . S
C826 C827 1.387 . S
C827 H812 0.930 . S
C827 C822 1.390 . S
C827 C826 1.387 . S
H828 C840 0.930 . S
H829 C842 0.930 . S
H830 C843 0.930 . S
H831 C847 0.959 . S
H832 C847 0.959 . S
H833 C847 0.961 . S
H834 C848 0.960 . S
H835 C848 0.961 . S
H836 C848 0.959 . S
H837 C851 0.929 . S
H838 C852 0.931 . S
H839 C854 0.930 . S
C840 H828 0.930 . S
C840 C841 1.399 . S
C840 C845 1.399 . S
C841 C840 1.399 . S
C841 C842 1.376 . S
C842 H829 0.930 . S
C842 C841 1.376 . S
C842 C843 1.388 . S
C843 H830 0.930 . S
C843 C842 1.388 . S
C843 C844 1.390 . S
C844 C843 1.390 . S
C844 C845 1.394 . S
C844 C850 1.465 . S
C845 C840 1.399 . S
C845 C844 1.394 . S
C845 C846 1.516 . S
C846 C845 1.516 . S
C846 C847 1.502 . S
C846 C848 1.561 . S
C846 C849 1.526 . S
C847 H831 0.959 . S
C847 H832 0.959 . S
C847 H833 0.961 . S
C847 C846 1.502 . S
C848 H834 0.960 . S
C848 H835 0.961 . S
C848 H836 0.959 . S
C848 C846 1.561 . S
C849 C846 1.526 . S
C849 C850 1.396 . S
C849 C854 1.390 . S
C850 C844 1.465 . S
C850 C849 1.396 . S
C850 C851 1.399 . S
C851 H837 0.929 . S
C851 C850 1.399 . S
C851 C852 1.385 . S
C852 H838 0.931 . S
C852 C851 1.385 . S
C852 C853 1.389 . S
C853 C852 1.389 . S
C853 C854 1.387 . S
C854 H839 0.930 . S
C854 C849 1.390 . S
C854 C853 1.387 . S
H855 C867 0.930 . S
H856 C869 0.930 . S
H857 C870 0.930 . S
H858 C874 0.959 1_565 S
H859 C874 0.959 . S
H860 C874 0.961 1_565 S
H861 C875 0.960 . S
H862 C875 0.961 . S
H863 C875 0.959 . S
H864 C878 0.929 . S
H865 C879 0.931 . S
H866 C881 0.930 . S
C867 H855 0.930 . S
C867 C868 1.399 . S
C867 C872 1.399 . S
C868 C867 1.399 . S
C868 C869 1.376 . S
C869 H856 0.930 . S
C869 C868 1.376 . S
C869 C870 1.388 . S
C870 H857 0.930 . S
C870 C869 1.388 . S
C870 C871 1.390 . S
C871 C870 1.390 . S
C871 C872 1.394 . S
C871 C877 1.465 1_565 S
C872 C867 1.399 . S
C872 C871 1.394 . S
C872 C873 1.516 1_565 S
C873 C872 1.516 1_545 S
C873 C874 1.502 . S
C873 C875 1.561 . S
C873 C876 1.526 . S
C874 H858 0.959 1_545 S
C874 H859 0.959 . S
C874 H860 0.961 1_545 S
C874 C873 1.502 . S
C875 H861 0.960 . S
C875 H862 0.961 . S
C875 H863 0.959 . S
C875 C873 1.561 . S
C876 C873 1.526 . S
C876 C877 1.396 . S
C876 C881 1.390 . S
C877 C871 1.465 1_545 S
C877 C876 1.396 . S
C877 C878 1.399 . S
C878 H864 0.929 . S
C878 C877 1.399 . S
C878 C879 1.385 . S
C879 H865 0.931 . S
C879 C878 1.385 . S
C879 C880 1.389 . S
C880 C879 1.389 . S
C880 C881 1.387 . S
C881 H866 0.930 . S
C881 C876 1.390 . S
C881 C880 1.387 . S
H882 C894 0.930 . S
H883 C896 0.930 . S
H884 C897 0.930 . S
H885 C901 0.959 . S
H886 C901 0.959 . S
H887 C901 0.961 . S
H888 C902 0.960 . S
H889 C902 0.961 . S
H890 C902 0.959 . S
H891 C905 0.929 . S
H892 C906 0.931 . S
H893 C908 0.930 . S
C894 H882 0.930 . S
C894 C895 1.399 . S
C894 C899 1.399 . S
C895 C894 1.399 . S
C895 C896 1.376 . S
C896 H883 0.930 . S
C896 C895 1.376 . S
C896 C897 1.388 1_655 S
C897 H884 0.930 . S
C897 C896 1.388 1_455 S
C897 C898 1.390 . S
C898 C897 1.390 . S
C898 C899 1.394 1_455 S
C898 C904 1.465 . S
C899 C894 1.399 . S
C899 C898 1.394 1_655 S
C899 C900 1.516 . S
C900 C899 1.516 . S
C900 C901 1.502 . S
C900 C902 1.561 . S
C900 C903 1.526 1_655 S
C901 H885 0.959 . S
C901 H886 0.959 . S
C901 H887 0.961 . S
C901 C900 1.502 . S
C902 H888 0.960 . S
C902 H889 0.961 . S
C902 H890 0.959 . S
C902 C900 1.561 . S
C903 C900 1.526 1_455 S
C903 C904 1.396 . S
C903 C908 1.390 . S
C904 C898 1.465 . S
C904 C903 1.396 . S
C904 C905 1.399 . S
C905 H891 0.929 . S
C905 C904 1.399 . S
C905 C906 1.385 . S
C906 H892 0.931 . S
C906 C905 1.385 . S
C906 C907 1.389 . S
C907 C906 1.389 . S
C907 C908 1.387 . S
C908 H893 0.930 . S
C908 C903 1.390 . S
C908 C907 1.387 . S
C193 C32 1.185 1_556 S
C205 C9 1.054 . S
C220 C42 1.403 . S
C232 C24 1.232 . S
C247 C49 1.181 1_556 S
C259 C2 1.223 . S
C274 C44 1.321 . S
C286 C22 1.454 . S
C301 C52 1.361 . S
C313 C4 1.187 . S
C328 C12 1.187 . S
C340 C29 1.110 . S
C355 C69 1.358 . S
C367 C82 1.437 . S
C382 C102 1.155 . S
C394 C89 1.069 . S
C409 C109 1.207 . S
C421 C62 1.249 . S
C436 C92 1.207 . S
C448 C104 1.090 . S
C463 C112 1.336 . S
C475 C64 1.180 . S
C490 C84 1.180 . S
C502 C72 1.442 . S
C517 C152 1.131 . S
C529 C129 0.995 . S
C544 C144 1.146 . S
C556 C162 1.373 . S
C571 C169 1.189 . S
C583 C122 1.225 . S
C598 C164 1.177 . S
C610 C142 1.395 . S
C625 C172 1.356 . S
C637 C124 1.203 1_565 S
C652 C132 1.190 . S
C664 C149 1.065 . S
C679 C119 2.185 . S
C691 C18 2.165 . S
C706 C79 2.201 . S
C718 C39 2.180 . S
C733 C58 2.210 . S
C745 C99 2.327 . S
C760 C59 2.229 . S
C772 C138 2.102 . S
C787 C19 2.141 . S
C799 C159 2.114 . S
C814 C178 2.185 . S
C826 C38 2.235 . S
C841 C78 2.130 . S
C853 C179 2.207 . S
C868 C98 2.051 . S
C880 C139 2.115 . S
C895 C158 2.131 . S
C907 C118 2.184 . S
