# Generated by pormake.
# Topology yfz, (5)-cn, num edge types: 1
# Building blocks:
#     Node 0, Type 0, BuildingBlock: XOMCOT_clean_sbu_1, # of connection points: 5
#     Node 1, Type 0, BuildingBlock: XOMCOT_clean_sbu_1, # of connection points: 5
#     Node 2, Type 0, BuildingBlock: XOMCOT_clean_sbu_1, # of connection points: 5
#     Node 3, Type 0, BuildingBlock: XOMCOT_clean_sbu_1, # of connection points: 5
#     Node 4, Type 0, BuildingBlock: XOMCOT_clean_sbu_1, # of connection points: 5
#     Node 5, Type 0, BuildingBlock: XOMCOT_clean_sbu_1, # of connection points: 5
#     Node 6, Type 0, BuildingBlock: XOMCOT_clean_sbu_1, # of connection points: 5
#     Node 7, Type 0, BuildingBlock: XOMCOT_clean_sbu_1, # of connection points: 5
#     Edge 8, Type (0, 0), BuildingBlock: MIFKUJ_clean_linker_0, # of connection points: 2
#     Edge 9, Type (0, 0), BuildingBlock: MIFKUJ_clean_linker_0, # of connection points: 2
#     Edge 10, Type (0, 0), BuildingBlock: MIFKUJ_clean_linker_0, # of connection points: 2
#     Edge 11, Type (0, 0), BuildingBlock: MIFKUJ_clean_linker_0, # of connection points: 2
#     Edge 12, Type (0, 0), BuildingBlock: MIFKUJ_clean_linker_0, # of connection points: 2
#     Edge 13, Type (0, 0), BuildingBlock: MIFKUJ_clean_linker_0, # of connection points: 2
#     Edge 14, Type (0, 0), BuildingBlock: MIFKUJ_clean_linker_0, # of connection points: 2
#     Edge 15, Type (0, 0), BuildingBlock: MIFKUJ_clean_linker_0, # of connection points: 2
#     Edge 16, Type (0, 0), BuildingBlock: MIFKUJ_clean_linker_0, # of connection points: 2
#     Edge 17, Type (0, 0), BuildingBlock: MIFKUJ_clean_linker_0, # of connection points: 2
#     Edge 18, Type (0, 0), BuildingBlock: MIFKUJ_clean_linker_0, # of connection points: 2
#     Edge 19, Type (0, 0), BuildingBlock: MIFKUJ_clean_linker_0, # of connection points: 2
#     Edge 20, Type (0, 0), BuildingBlock: MIFKUJ_clean_linker_0, # of connection points: 2
#     Edge 21, Type (0, 0), BuildingBlock: MIFKUJ_clean_linker_0, # of connection points: 2
#     Edge 22, Type (0, 0), BuildingBlock: MIFKUJ_clean_linker_0, # of connection points: 2
#     Edge 23, Type (0, 0), BuildingBlock: MIFKUJ_clean_linker_0, # of connection points: 2
#     Edge 24, Type (0, 0), BuildingBlock: MIFKUJ_clean_linker_0, # of connection points: 2
#     Edge 25, Type (0, 0), BuildingBlock: MIFKUJ_clean_linker_0, # of connection points: 2
#     Edge 26, Type (0, 0), BuildingBlock: MIFKUJ_clean_linker_0, # of connection points: 2
#     Edge 27, Type (0, 0), BuildingBlock: MIFKUJ_clean_linker_0, # of connection points: 2
# Relax obj value: 0.146
# Max RMSD: 0.137
# Mean RMSD: 0.137
data_MOF--net-yfz--node1-XOMCOT_clean_sbu_1--edge1-MIFKUJ_clean_linker_0
_symmetry_space_group_name_H-M    P1
_symmetry_Int_Tables_number       1
_symmetry_cell_setting            triclinic
loop_
_symmetry_equiv_pos_as_xyz
'x, y, z'
_cell_length_a     66.854944
_cell_length_b     66.832222
_cell_length_c     21.969037
_cell_angle_alpha  90.026012
_cell_angle_beta   89.988376
_cell_angle_gamma 89.964747
loop_
_atom_site_label
_atom_site_type_symbol
_atom_site_fract_x
_atom_site_fract_y
_atom_site_fract_z
_atom_type_partial_charge
C0 C 0.58508 0.07505 0.26132 0.0
C1 C 0.58734 0.0728 0.19962 0.0
N2 N 0.57796 0.08814 0.17168 0.0
N3 N 0.57432 0.09168 0.27236 0.0
C4 C 0.57014 0.09935 0.21709 0.0
H5 H 0.59077 0.06512 0.29612 0.0
Co6 Co 0.56735 0.10003 0.34935 0.0
C7 C 0.56307 0.14361 0.34503 0.0
O8 O 0.57315 0.14414 0.39641 0.0
N9 N 0.55952 0.1077 0.42836 0.0
C10 C 0.53898 0.11807 0.50174 0.0
C11 C 0.54147 0.116 0.4402 0.0
C12 C 0.56759 0.10465 0.48402 0.0
N13 N 0.55543 0.1109 0.52937 0.0
O14 O 0.54079 0.09069 0.33623 0.0
H15 H 0.53052 0.11997 0.40603 0.0
H16 H 0.58191 0.09776 0.49182 0.0
O17 O 0.55973 0.12675 0.31918 0.0
C18 C 0.53868 0.07221 0.34831 0.0
O19 O 0.55461 0.06183 0.36364 0.0
N20 N 0.59428 0.10775 0.36117 0.0
C21 C 0.63595 0.11119 0.36117 0.0
C22 C 0.6242 0.12373 0.32483 0.0
C23 C 0.60347 0.12153 0.32458 0.0
C24 C 0.6056 0.09506 0.39555 0.0
C25 C 0.62644 0.09688 0.39762 0.0
H26 H 0.59512 0.12998 0.29138 0.0
H27 H 0.59861 0.08253 0.41813 0.0
H28 H 0.56164 0.11293 0.21048 0.0
H29 H 0.59496 0.06054 0.17734 0.0
H30 H 0.52574 0.12374 0.52428 0.0
H31 H 0.63105 0.13455 0.29463 0.0
H32 H 0.63509 0.08632 0.42418 0.0
C33 C 0.40918 0.58279 0.86254 0.0
C34 C 0.41352 0.58186 0.80134 0.0
N35 N 0.39749 0.57433 0.772 0.0
N36 N 0.3905 0.57592 0.87189 0.0
C37 C 0.38386 0.57059 0.81604 0.0
H38 H 0.41875 0.58874 0.89787 0.0
Co39 Co 0.37778 0.57613 0.94748 0.0
C40 C 0.33517 0.57873 0.91399 0.0
O41 O 0.33346 0.59416 0.95074 0.0
N42 N 0.36571 0.57547 0.0258 0.0
C43 C 0.34697 0.56547 0.10413 0.0
C44 C 0.34891 0.5655 0.04202 0.0
C45 C 0.37429 0.58021 0.07988 0.0
N46 N 0.36299 0.57468 0.12809 0.0
O47 O 0.38368 0.5484 0.95622 0.0
H48 H 0.33937 0.55718 0.01157 0.0
H49 H 0.38914 0.58644 0.08415 0.0
O50 O 0.35195 0.56963 0.90888 0.0
C51 C 0.40005 0.54565 0.9845 0.0
O52 O 0.41001 0.56141 0.00348 0.0
N53 N 0.37338 0.60422 0.9382 0.0
C54 C 0.37222 0.64552 0.91715 0.0
C55 C 0.36485 0.6321 0.87382 0.0
C56 C 0.36573 0.6116 0.88487 0.0
C57 C 0.38106 0.61717 0.98024 0.0
C58 C 0.38023 0.6379 0.97128 0.0
H59 H 0.36053 0.60167 0.84956 0.0
H60 H 0.38879 0.61164 0.01964 0.0
H61 H 0.36909 0.56461 0.80754 0.0
H62 H 0.42708 0.5872 0.77992 0.0
H63 H 0.33542 0.55787 0.1298 0.0
H64 H 0.35868 0.63739 0.83115 0.0
H65 H 0.38664 0.64781 0.00504 0.0
C66 C 0.90631 0.4039 0.29194 0.0
C67 C 0.90837 0.40716 0.23049 0.0
N68 N 0.91782 0.39128 0.20589 0.0
N69 N 0.91454 0.38612 0.30632 0.0
C70 C 0.92143 0.37875 0.25291 0.0
H71 H 0.89864 0.41354 0.32388 0.0
Co72 Co 0.91339 0.37484 0.38379 0.0
C73 C 0.93767 0.33856 0.36922 0.0
O74 O 0.949 0.34402 0.41518 0.0
N75 N 0.91201 0.36368 0.4619 0.0
C76 C 0.90606 0.34278 0.53829 0.0
C77 C 0.90437 0.34565 0.47659 0.0
C78 C 0.91813 0.37155 0.51549 0.0
N79 N 0.91479 0.35906 0.56298 0.0
O80 O 0.94013 0.38355 0.399 0.0
H81 H 0.8979 0.33525 0.4444 0.0
H82 H 0.92505 0.38611 0.51941 0.0
O83 O 0.92314 0.34964 0.35253 0.0
C84 C 0.94218 0.40202 0.41146 0.0
O85 O 0.92614 0.41337 0.41406 0.0
N86 N 0.88683 0.36751 0.36882 0.0
C87 C 0.84637 0.36284 0.34115 0.0
C88 C 0.86106 0.35225 0.30878 0.0
C89 C 0.88123 0.35489 0.32302 0.0
C90 C 0.87282 0.37762 0.40169 0.0
C91 C 0.85246 0.37541 0.38888 0.0
H92 H 0.89228 0.34742 0.2954 0.0
H93 H 0.87753 0.38797 0.43673 0.0
H94 H 0.92858 0.36431 0.2482 0.0
H95 H 0.90252 0.41982 0.20545 0.0
H96 H 0.90083 0.32979 0.56298 0.0
H97 H 0.85705 0.34229 0.27185 0.0
H98 H 0.84169 0.38414 0.41444 0.0
C99 C 0.07361 0.92892 0.73453 0.0
C100 C 0.07464 0.93315 0.67349 0.0
N101 N 0.09275 0.92753 0.65275 0.0
N102 N 0.09106 0.92081 0.75294 0.0
C103 C 0.10245 0.92013 0.70195 0.0
H104 H 0.06057 0.93085 0.76289 0.0
Co105 Co 0.09556 0.9105 0.8309 0.0
C106 C 0.1396 0.91175 0.85154 0.0
O107 O 0.13848 0.89705 0.89099 0.0
N108 N 0.09936 0.89997 0.91108 0.0
C109 C 0.10232 0.87947 0.99079 0.0
C110 C 0.09906 0.8806 0.92921 0.0
C111 C 0.10262 0.91028 0.96353 0.0
N112 N 0.10453 0.89814 0.01241 0.0
O113 O 0.08983 0.93622 0.86469 0.0
H114 H 0.09686 0.86778 0.90024 0.0
H115 H 0.10396 0.92639 0.96597 0.0
O116 O 0.1238 0.91793 0.82464 0.0
C117 C 0.07183 0.93806 0.88272 0.0
O118 O 0.05989 0.92248 0.87919 0.0
N119 N 0.09951 0.88519 0.79575 0.0
C120 C 0.09922 0.84654 0.74823 0.0
C121 C 0.11678 0.85799 0.74739 0.0
C122 C 0.11662 0.87739 0.77123 0.0
C123 C 0.08203 0.87476 0.79288 0.0
C124 C 0.0816 0.85525 0.77039 0.0
H125 H 0.13022 0.88595 0.76904 0.0
H126 H 0.06846 0.88146 0.81041 0.0
H127 H 0.11736 0.91383 0.70057 0.0
H128 H 0.06252 0.93887 0.64586 0.0
H129 H 0.10268 0.86593 0.0178 0.0
H130 H 0.13062 0.85184 0.7298 0.0
H131 H 0.06766 0.847 0.77069 0.0
C132 C 0.57547 0.40589 0.18139 0.0
C133 C 0.57294 0.40899 0.24276 0.0
N134 N 0.567 0.39167 0.26832 0.0
N135 N 0.57098 0.38675 0.16794 0.0
C136 C 0.56587 0.37842 0.22188 0.0
H137 H 0.58108 0.41669 0.14902 0.0
Co138 Co 0.57447 0.37552 0.09109 0.0
C139 C 0.55038 0.33913 0.09568 0.0
O140 O 0.54112 0.34492 0.04595 0.0
N141 N 0.57834 0.36446 0.01343 0.0
C142 C 0.58731 0.34394 0.93868 0.0
C143 C 0.5871 0.34676 1.00063 0.0
C144 C 0.57348 0.37215 0.95848 0.0
N145 N 0.57867 0.35992 0.91191 0.0
O146 O 0.5481 0.38409 0.06933 0.0
H147 H 0.59297 0.33653 0.0343 0.0
H148 H 0.5661 0.38639 0.95284 0.0
O149 O 0.56395 0.35014 0.119 0.0
C150 C 0.54632 0.40203 0.05082 0.0
O151 O 0.56254 0.41296 0.04474 0.0
N152 N 0.60055 0.36842 0.11287 0.0
C153 C 0.64039 0.36367 0.14771 0.0
C154 C 0.62522 0.35228 0.17512 0.0
C155 C 0.60535 0.3549 0.15714 0.0
C156 C 0.61505 0.37947 0.0853 0.0
C157 C 0.6351 0.37724 0.10171 0.0
H158 H 0.59386 0.34648 0.18022 0.0
H159 H 0.61092 0.39044 0.05133 0.0
H160 H 0.56194 0.36284 0.22742 0.0
H161 H 0.57626 0.42268 0.2671 0.0
H162 H 0.59363 0.33113 0.91551 0.0
H163 H 0.62866 0.34157 0.21062 0.0
H164 H 0.64626 0.38658 0.08005 0.0
C165 C 0.07482 0.58251 0.73236 0.0
C166 C 0.07203 0.58392 0.79409 0.0
N167 N 0.08641 0.57311 0.82171 0.0
N168 N 0.09095 0.57098 0.72117 0.0
C169 C 0.09764 0.5653 0.77643 0.0
H170 H 0.06575 0.58952 0.69762 0.0
Co171 Co 0.10051 0.56554 0.64393 0.0
C172 C 0.14411 0.56791 0.65251 0.0
O173 O 0.14338 0.57915 0.60343 0.0
N174 N 0.10952 0.55918 0.56498 0.0
C175 C 0.12407 0.54112 0.49202 0.0
C176 C 0.12235 0.54396 0.5535 0.0
C177 C 0.10301 0.56471 0.50917 0.0
N178 N 0.11184 0.55416 0.46403 0.0
O179 O 0.09451 0.53781 0.65433 0.0
H180 H 0.12956 0.53492 0.58791 0.0
H181 H 0.09107 0.57521 0.50132 0.0
O182 O 0.12787 0.56112 0.67563 0.0
C183 C 0.07608 0.53308 0.6541 0.0
O184 O 0.0626 0.54737 0.65167 0.0
N185 N 0.10511 0.59347 0.63423 0.0
C186 C 0.10525 0.63534 0.63496 0.0
C187 C 0.11713 0.62454 0.67577 0.0
C188 C 0.11655 0.60372 0.67549 0.0
C189 C 0.09291 0.60384 0.59566 0.0
C190 C 0.09316 0.62478 0.59399 0.0
H191 H 0.12445 0.59597 0.71125 0.0
H192 H 0.0817 0.59607 0.56963 0.0
H193 H 0.11069 0.55599 0.78334 0.0
H194 H 0.06024 0.59213 0.81684 0.0
H195 H 0.13336 0.53002 0.46992 0.0
H196 H 0.12624 0.63216 0.70932 0.0
H197 H 0.08303 0.63264 0.56382 0.0
C198 C 0.92818 0.07778 0.24905 0.0
C199 C 0.93278 0.07893 0.30982 0.0
N200 N 0.92721 0.09705 0.33056 0.0
N201 N 0.9199 0.09517 0.23082 0.0
C202 C 0.91942 0.10664 0.28174 0.0
H203 H 0.9301 0.06473 0.22069 0.0
Co204 Co 0.90972 0.09968 0.1526 0.0
C205 C 0.91269 0.14349 0.13013 0.0
O206 O 0.89771 0.14292 0.09151 0.0
N207 N 0.89939 0.10351 0.07226 0.0
C208 C 0.87927 0.10604 0.99155 0.0
C209 C 0.88013 0.10298 0.05329 0.0
C210 C 0.90991 0.10679 0.02024 0.0
N211 N 0.89802 0.10841 0.97065 0.0
O212 O 0.9352 0.09289 0.11902 0.0
H213 H 0.86722 0.10057 0.08174 0.0
H214 H 0.92601 0.10828 0.01867 0.0
O215 O 0.91822 0.12755 0.15754 0.0
C216 C 0.93658 0.07489 0.10065 0.0
O217 O 0.92072 0.06333 0.10402 0.0
N218 N 0.88458 0.10476 0.18748 0.0
C219 C 0.84613 0.10605 0.2362 0.0
C220 C 0.85817 0.12321 0.23584 0.0
C221 C 0.87745 0.12226 0.21135 0.0
C222 C 0.87354 0.08767 0.19141 0.0
C223 C 0.85411 0.08804 0.21444 0.0
H224 H 0.88649 0.13556 0.21273 0.0
H225 H 0.87971 0.07377 0.17441 0.0
H226 H 0.91315 0.12156 0.28336 0.0
H227 H 0.93883 0.06693 0.33736 0.0
H228 H 0.86586 0.10604 0.96397 0.0
H229 H 0.85257 0.13732 0.25318 0.0
H230 H 0.84537 0.07439 0.21505 0.0
C231 C 0.39658 0.93325 0.72298 0.0
C232 C 0.39491 0.93734 0.78405 0.0
N233 N 0.37727 0.93015 0.80404 0.0
N234 N 0.38002 0.92365 0.70379 0.0
C235 C 0.36847 0.92201 0.75431 0.0
H236 H 0.40959 0.93623 0.69531 0.0
Co237 Co 0.37682 0.91233 0.62618 0.0
C238 C 0.33311 0.91349 0.59919 0.0
O239 O 0.33474 0.89868 0.56023 0.0
N240 N 0.37432 0.9008 0.5468 0.0
C241 C 0.37386 0.87934 0.46896 0.0
C242 C 0.37632 0.88135 0.53073 0.0
C243 C 0.37093 0.9103 0.49301 0.0
N244 N 0.37048 0.89756 0.44511 0.0
O245 O 0.38307 0.93758 0.58999 0.0
H246 H 0.37939 0.86911 0.56132 0.0
H247 H 0.36844 0.92624 0.48903 0.0
O248 O 0.34854 0.91969 0.62793 0.0
C249 C 0.40126 0.93855 0.57316 0.0
O250 O 0.41264 0.92268 0.58058 0.0
N251 N 0.37245 0.88743 0.66366 0.0
C252 C 0.3729 0.85036 0.72185 0.0
C253 C 0.35491 0.86084 0.71411 0.0
C254 C 0.35497 0.87942 0.68488 0.0
C255 C 0.39015 0.87784 0.67347 0.0
C256 C 0.39071 0.85915 0.70161 0.0
H257 H 0.34102 0.88731 0.68101 0.0
H258 H 0.40392 0.88468 0.65817 0.0
H259 H 0.3542 0.91442 0.7551 0.0
H260 H 0.4064 0.94397 0.81226 0.0
H261 H 0.37488 0.86553 0.4434 0.0
H262 H 0.34086 0.85459 0.72969 0.0
H263 H 0.40495 0.85167 0.70767 0.0
H264 H 0.382 0.97176 0.52734 0.0
H265 H 0.39774 0.0021 0.48534 0.0
H266 H 0.45602 0.97745 0.52393 0.0
H267 H 0.44063 0.94743 0.56502 0.0
H268 H 0.45285 0.01728 0.55782 0.0
H269 H 0.43696 0.97343 0.38569 0.0
H270 H 0.41368 0.95501 0.31902 0.0
H271 H 0.38292 0.0097 0.27697 0.0
H272 H 0.40587 0.02842 0.34423 0.0
H273 H 0.53024 0.0328 0.36133 0.0
H274 H 0.49849 0.018 0.39147 0.0
H275 H 0.46994 0.07572 0.38043 0.0
H276 H 0.502 0.09092 0.35071 0.0
H277 H 0.44978 0.02946 0.33513 0.0
H278 H 0.47089 0.0741 0.49968 0.0
H279 H 0.49776 0.09029 0.55885 0.0
H280 H 0.52011 0.03268 0.61238 0.0
H281 H 0.49361 0.01616 0.55238 0.0
C282 C 0.39816 0.97295 0.52707 0.0
C283 C 0.41009 0.95719 0.54914 0.0
C284 C 0.4071 0.99024 0.50316 0.0
C285 C 0.42804 0.99202 0.5018 0.0
C286 C 0.43984 0.97645 0.52498 0.0
C287 C 0.431 0.95921 0.54802 0.0
C288 C 0.43819 0.00942 0.47374 0.0
C289 C 0.4518 0.02029 0.50939 0.0
C290 C 0.43671 0.01351 0.41068 0.0
C291 C 0.42293 0.00226 0.37053 0.0
C292 C 0.42511 0.98149 0.36268 0.0
C293 C 0.41201 0.97101 0.32474 0.0
C294 C 0.39682 0.98119 0.29392 0.0
C295 C 0.39468 0.00185 0.301 0.0
C296 C 0.40772 0.0124 0.33903 0.0
C297 C 0.51717 0.04235 0.36403 0.0
C298 C 0.51868 0.06307 0.3545 0.0
C299 C 0.49902 0.03383 0.38091 0.0
C300 C 0.48201 0.04581 0.3884 0.0
C301 C 0.48298 0.06628 0.37462 0.0
C302 C 0.50127 0.0749 0.35777 0.0
C303 C 0.46449 0.03699 0.41918 0.0
C304 C 0.44985 0.02739 0.38411 0.0
C305 C 0.46495 0.03407 0.48285 0.0
C306 C 0.48034 0.04391 0.52129 0.0
C307 C 0.48159 0.06489 0.52385 0.0
C308 C 0.49676 0.07413 0.55749 0.0
C309 C 0.51065 0.06252 0.58929 0.0
C310 C 0.50934 0.04165 0.58772 0.0
C311 C 0.49424 0.03235 0.55394 0.0
H312 H 0.52242 0.0697 0.61517 0.0
H313 H 0.3868 0.97308 0.2643 0.0
H314 H 0.53815 0.44098 0.02591 0.0
H315 H 0.50556 0.45652 0.01115 0.0
H316 H 0.47683 0.39919 0.03143 0.0
H317 H 0.50963 0.38336 0.04776 0.0
H318 H 0.47117 0.44131 0.91823 0.0
H319 H 0.45541 0.40933 0.11869 0.0
H320 H 0.46647 0.39834 0.22055 0.0
H321 H 0.48814 0.45751 0.25881 0.0
H322 H 0.47745 0.46872 0.15674 0.0
H323 H 0.38826 0.50989 0.93326 0.0
H324 H 0.40507 0.47731 0.94335 0.0
H325 H 0.44789 0.50369 0.06647 0.0
H326 H 0.4312 0.53582 0.05739 0.0
H327 H 0.43809 0.46724 0.10444 0.0
H328 H 0.45702 0.49919 0.9122 0.0
H329 H 0.44981 0.51294 0.8103 0.0
H330 H 0.42518 0.45646 0.75487 0.0
H331 H 0.43204 0.44247 0.85679 0.0
C332 C 0.52497 0.43157 0.02695 0.0
C333 C 0.52648 0.41093 0.03838 0.0
C334 C 0.50636 0.44049 0.01836 0.0
C335 C 0.48886 0.42901 0.02057 0.0
C336 C 0.49021 0.4083 0.03013 0.0
C337 C 0.50892 0.39931 0.03937 0.0
C338 C 0.46942 0.43942 0.01586 0.0
C339 C 0.46334 0.44642 0.95863 0.0
C340 C 0.45962 0.44638 0.06867 0.0
C341 C 0.46585 0.43977 0.13007 0.0
C342 C 0.4627 0.41992 0.1487 0.0
C343 C 0.46886 0.41367 0.20646 0.0
C344 C 0.47806 0.4272 0.24607 0.0
C345 C 0.48105 0.44703 0.22805 0.0
C346 C 0.47494 0.45334 0.17029 0.0
C347 C 0.40108 0.5086 0.96314 0.0
C348 C 0.40854 0.52546 0.99403 0.0
C349 C 0.41068 0.49001 0.96876 0.0
C350 C 0.42783 0.4881 0.00536 0.0
C351 C 0.43465 0.50475 0.03817 0.0
C352 C 0.42516 0.52319 0.03252 0.0
C353 C 0.43992 0.46947 0.00666 0.0
C354 C 0.44493 0.46125 0.06349 0.0
C355 C 0.44881 0.4615 0.95336 0.0
C356 C 0.44477 0.46989 0.89222 0.0
C357 C 0.44993 0.48976 0.87838 0.0
C358 C 0.44593 0.49759 0.82064 0.0
C359 C 0.43697 0.4856 0.77621 0.0
C360 C 0.43206 0.46575 0.78938 0.0
C361 C 0.43599 0.45786 0.84711 0.0
H362 H 0.43389 0.49169 0.73153 0.0
H363 H 0.48282 0.42234 0.29077 0.0
H364 H 0.97687 0.38223 0.4411 0.0
H365 H 0.00818 0.39727 0.47753 0.0
H366 H 0.98303 0.45615 0.45233 0.0
H367 H 0.95198 0.44136 0.41596 0.0
H368 H 0.02316 0.45499 0.42195 0.0
H369 H 0.97865 0.43576 0.59019 0.0
H370 H 0.95808 0.40959 0.63859 0.0
H371 H 0.01008 0.37244 0.65921 0.0
H372 H 0.03093 0.39843 0.61062 0.0
H373 H 0.04086 0.51659 0.68847 0.0
H374 H 0.02649 0.4854 0.65074 0.0
H375 H 0.08189 0.47162 0.55916 0.0
H376 H 0.09647 0.50286 0.59751 0.0
H377 H 0.03401 0.44351 0.6429 0.0
H378 H 0.06849 0.46357 0.41516 0.0
H379 H 0.08426 0.49265 0.36468 0.0
H380 H 0.04635 0.53254 0.46559 0.0
H381 H 0.0303 0.50375 0.51614 0.0
C382 C 0.9782 0.39837 0.44229 0.0
C383 C 0.9619 0.41063 0.42649 0.0
C384 C 0.99607 0.40693 0.463 0.0
C385 C 0.99787 0.42782 0.46783 0.0
C386 C 0.98201 0.44001 0.44863 0.0
C387 C 0.96419 0.43151 0.42843 0.0
C388 C 0.01495 0.43722 0.49985 0.0
C389 C 0.02599 0.45206 0.46976 0.0
C390 C 0.01832 0.43372 0.56255 0.0
C391 C 0.00628 0.41893 0.59668 0.0
C392 C 0.98569 0.42206 0.60553 0.0
C393 C 0.97398 0.40725 0.63277 0.0
C394 C 0.98273 0.38931 0.65166 0.0
C395 C 0.0033 0.38632 0.64447 0.0
C396 C 0.01509 0.40111 0.61722 0.0
C397 C 0.05021 0.50656 0.66209 0.0
C398 C 0.06966 0.5122 0.64525 0.0
C399 C 0.04204 0.48867 0.64094 0.0
C400 C 0.05307 0.47631 0.60177 0.0
C401 C 0.07316 0.48098 0.58944 0.0
C402 C 0.08146 0.49881 0.61137 0.0
C403 C 0.04222 0.46127 0.56491 0.0
C404 C 0.0321 0.44562 0.59428 0.0
C405 C 0.03934 0.46431 0.50174 0.0
C406 C 0.04837 0.48157 0.46966 0.0
C407 C 0.06351 0.47856 0.42631 0.0
C408 C 0.07253 0.49497 0.39791 0.0
C409 C 0.06637 0.5144 0.41228 0.0
C410 C 0.05115 0.51748 0.45477 0.0
C411 C 0.0421 0.50114 0.48326 0.0
H412 H 0.0732 0.52709 0.38999 0.0
H413 H 0.97355 0.37771 0.67146 0.0
H414 H 0.94741 0.03589 0.1019 0.0
H415 H 0.97883 0.02118 0.06782 0.0
H416 H 0.00075 0.07963 0.01834 0.0
H417 H 0.96916 0.09468 0.0539 0.0
H418 H 0.00403 0.04815 0.9254 0.0
H419 H 0.02344 0.06131 0.12846 0.0
H420 H 0.01958 0.06284 0.23996 0.0
H421 H 0.01431 0.99887 0.24737 0.0
H422 H 0.01779 0.99695 0.13582 0.0
H423 H 0.09207 0.9698 0.93308 0.0
H424 H 0.0775 0.00157 0.96932 0.0
H425 H 0.01909 0.98171 0.91215 0.0
H426 H 0.03329 0.95012 0.87747 0.0
H427 H 0.0451 0.00469 0.05943 0.0
H428 H 0.9966 0.02201 0.84534 0.0
H429 H 0.9997 0.01979 0.73375 0.0
H430 H 0.06364 0.02333 0.74838 0.0
H431 H 0.06094 0.02593 0.86 0.0
C432 C 0.95891 0.04568 0.084 0.0
C433 C 0.95584 0.06642 0.08036 0.0
C434 C 0.9769 0.03725 0.06496 0.0
C435 C 0.99213 0.04935 0.0412 0.0
C436 C 0.98918 0.0701 0.03707 0.0
C437 C 0.9712 0.07864 0.05732 0.0
C438 C 0.01049 0.03967 0.01778 0.0
C439 C 0.01334 0.03896 0.95462 0.0
C440 C 0.02281 0.02802 0.05631 0.0
C441 C 0.02086 0.02901 0.12361 0.0
C442 C 0.02134 0.04757 0.15379 0.0
C443 C 0.01923 0.0485 0.21704 0.0
C444 C 0.0167 0.03096 0.25072 0.0
C445 C 0.01629 0.01244 0.22122 0.0
C446 C 0.01838 0.01142 0.15797 0.0
C447 C 0.07615 0.97235 0.92806 0.0
C448 C 0.06377 0.95751 0.90284 0.0
C449 C 0.06789 0.99043 0.9487 0.0
C450 C 0.04728 0.994 0.9427 0.0
C451 C 0.03506 0.97931 0.9165 0.0
C452 C 0.04318 0.96121 0.89713 0.0
C453 C 0.03781 0.01235 0.96694 0.0
C454 C 0.03644 0.01452 0.03026 0.0
C455 C 0.02685 0.02533 0.92855 0.0
C456 C 0.02855 0.0241 0.86122 0.0
C457 C 0.01132 0.02248 0.8248 0.0
C458 C 0.01301 0.02111 0.76149 0.0
C459 C 0.03186 0.02139 0.734 0.0
C460 C 0.04905 0.02307 0.76974 0.0
C461 C 0.04745 0.02446 0.83305 0.0
H462 H 0.03313 0.02031 0.68499 0.0
H463 H 0.01506 0.03172 0.29969 0.0
H464 H 0.5696 0.18109 0.38835 0.0
H465 H 0.56141 0.21279 0.3408 0.0
H466 H 0.53478 0.18167 0.18899 0.0
H467 H 0.54344 0.14947 0.23616 0.0
H468 H 0.5583 0.21146 0.15057 0.0
H469 H 0.50524 0.20628 0.29283 0.0
H470 H 0.48919 0.20001 0.39203 0.0
H471 H 0.52191 0.2488 0.47097 0.0
H472 H 0.5384 0.2552 0.3725 0.0
H473 H 0.5294 0.30847 0.04341 0.0
H474 H 0.52577 0.27424 0.08139 0.0
H475 H 0.5594 0.28984 0.24204 0.0
H476 H 0.56312 0.32405 0.20455 0.0
H477 H 0.52583 0.26626 0.26687 0.0
H478 H 0.58218 0.26745 0.12739 0.0
H479 H 0.59823 0.27354 0.02805 0.0
H480 H 0.5582 0.23174 0.94325 0.0
H481 H 0.54168 0.22567 0.04203 0.0
C482 C 0.56189 0.18086 0.34501 0.0
C483 C 0.55713 0.1627 0.31612 0.0
C484 C 0.55708 0.19908 0.31803 0.0
C485 C 0.54713 0.19965 0.26187 0.0
C486 C 0.54232 0.18157 0.23262 0.0
C487 C 0.54724 0.1632 0.25963 0.0
C488 C 0.54279 0.21929 0.23322 0.0
C489 C 0.55074 0.22329 0.17537 0.0
C490 C 0.53313 0.23483 0.26586 0.0
C491 C 0.52314 0.23116 0.32523 0.0
C492 C 0.50911 0.2156 0.33142 0.0
C493 C 0.49992 0.21203 0.38753 0.0
C494 C 0.50454 0.22398 0.43778 0.0
C495 C 0.51834 0.23956 0.432 0.0
C496 C 0.52759 0.24319 0.376 0.0
C497 C 0.53584 0.30469 0.08715 0.0
C498 C 0.54667 0.31895 0.12081 0.0
C499 C 0.53379 0.2851 0.10864 0.0
C500 C 0.54246 0.2795 0.16423 0.0
C501 C 0.5526 0.29389 0.19899 0.0
C502 C 0.55479 0.31341 0.17736 0.0
C503 C 0.54184 0.25846 0.18529 0.0
C504 C 0.53296 0.25425 0.24164 0.0
C505 C 0.55053 0.24273 0.15117 0.0
C506 C 0.56053 0.24631 0.09191 0.0
C507 C 0.57668 0.2597 0.08746 0.0
C508 C 0.58588 0.26313 0.03128 0.0
C509 C 0.57919 0.25309 0.97933 0.0
C510 C 0.56332 0.23955 0.9835 0.0
C511 C 0.55404 0.23611 0.03956 0.0
H512 H 0.58634 0.25575 0.93588 0.0
H513 H 0.49741 0.22119 0.48119 0.0
H514 H 0.17688 0.59131 0.64464 0.0
H515 H 0.21003 0.58508 0.68541 0.0
H516 H 0.1895 0.52957 0.76398 0.0
H517 H 0.15562 0.53629 0.72479 0.0
H518 H 0.21365 0.54718 0.84031 0.0
H519 H 0.2196 0.52992 0.63363 0.0
H520 H 0.21549 0.53275 0.52247 0.0
H521 H 0.25125 0.58608 0.5217 0.0
H522 H 0.25533 0.58379 0.63297 0.0
H523 H 0.32376 0.54045 0.88543 0.0
H524 H 0.2921 0.53022 0.83674 0.0
H525 H 0.2757 0.59223 0.81552 0.0
H526 H 0.30669 0.60244 0.86567 0.0
H527 H 0.27194 0.55957 0.70541 0.0
H528 H 0.2548 0.57888 0.92033 0.0
H529 H 0.25958 0.57377 0.03062 0.0
H530 H 0.24618 0.51129 0.01002 0.0
H531 H 0.24162 0.51603 0.89938 0.0
C532 C 0.17936 0.57775 0.67055 0.0
C533 C 0.16374 0.56415 0.68095 0.0
C534 C 0.19841 0.57411 0.69348 0.0
C535 C 0.2025 0.5565 0.72599 0.0
C536 C 0.18677 0.54313 0.73827 0.0
C537 C 0.16745 0.54697 0.71606 0.0
C538 C 0.2232 0.55277 0.74799 0.0
C539 C 0.22635 0.54936 0.81034 0.0
C540 C 0.23995 0.55527 0.70904 0.0
C541 C 0.23773 0.55669 0.64184 0.0
C542 C 0.22651 0.54232 0.60984 0.0
C543 C 0.22419 0.54383 0.54677 0.0
C544 C 0.2331 0.55959 0.51505 0.0
C545 C 0.24438 0.57386 0.54633 0.0
C546 C 0.24673 0.57244 0.60941 0.0
C547 C 0.31343 0.55182 0.86968 0.0
C548 C 0.3175 0.5722 0.87943 0.0
C549 C 0.29543 0.54598 0.84216 0.0
C550 C 0.28167 0.56053 0.8229 0.0
C551 C 0.28619 0.58084 0.83024 0.0
C552 C 0.30382 0.58663 0.85898 0.0
C553 C 0.26202 0.55502 0.79737 0.0
C554 C 0.25914 0.5567 0.73451 0.0
C555 C 0.24562 0.55048 0.83539 0.0
C556 C 0.24813 0.54775 0.90173 0.0
C557 C 0.25306 0.56403 0.93931 0.0
C558 C 0.25569 0.56121 1.00185 0.0
C559 C 0.25325 0.5422 0.0273 0.0
C560 C 0.24811 0.52599 0.99025 0.0
C561 C 0.24551 0.52874 0.92765 0.0
H562 H 0.25528 0.54004 0.07572 0.0
H563 H 0.23127 0.56073 0.46622 0.0
H564 H 0.94333 0.15103 0.21004 0.0
H565 H 0.95477 0.18374 0.24621 0.0
H566 H 0.91179 0.21279 0.1293 0.0
H567 H 0.90077 0.18038 0.09167 0.0
H568 H 0.9454 0.23341 0.13062 0.0
H569 H 0.90235 0.20258 0.28195 0.0
H570 H 0.89297 0.17547 0.35258 0.0
H571 H 0.94809 0.18335 0.44995 0.0
H572 H 0.95794 0.21031 0.37923 0.0
H573 H 0.91824 0.32372 0.26974 0.0
H574 H 0.92066 0.29026 0.22687 0.0
H575 H 0.96613 0.27506 0.35833 0.0
H576 H 0.96337 0.30855 0.40294 0.0
H577 H 0.93821 0.24648 0.35189 0.0
H578 H 0.97803 0.282 0.20716 0.0
H579 H 0.98587 0.30934 0.13573 0.0
H580 H 0.93539 0.29322 0.02542 0.0
H581 H 0.92706 0.26594 0.09661 0.0
C582 C 0.93651 0.16441 0.19149 0.0
C583 C 0.92099 0.16309 0.14846 0.0
C584 C 0.94302 0.18308 0.21233 0.0
C585 C 0.93391 0.20071 0.19118 0.0
C586 C 0.91904 0.19941 0.14631 0.0
C587 C 0.91268 0.18082 0.12507 0.0
C588 C 0.93874 0.22049 0.21809 0.0
C589 C 0.94381 0.2363 0.17898 0.0
C590 C 0.93714 0.22414 0.28143 0.0
C591 C 0.93098 0.2083 0.32491 0.0
C592 C 0.91251 0.19846 0.31826 0.0
C593 C 0.90711 0.18312 0.35828 0.0
C594 C 0.91996 0.17764 0.40561 0.0
C595 C 0.93818 0.18758 0.41318 0.0
C596 C 0.94368 0.20289 0.37315 0.0
C597 C 0.92883 0.31335 0.28955 0.0
C598 C 0.94051 0.3188 0.34009 0.0
C599 C 0.93033 0.29423 0.26455 0.0
C600 C 0.94376 0.28021 0.2889 0.0
C601 C 0.95572 0.28567 0.33871 0.0
C602 C 0.95417 0.30484 0.36398 0.0
C603 C 0.94434 0.25955 0.26416 0.0
C604 C 0.94026 0.24356 0.3037 0.0
C605 C 0.94667 0.25579 0.20112 0.0
C606 C 0.95187 0.27195 0.15747 0.0
C607 C 0.96854 0.28433 0.16783 0.0
C608 C 0.97308 0.29982 0.12736 0.0
C609 C 0.96112 0.30304 0.07612 0.0
C610 C 0.94464 0.29071 0.06512 0.0
C611 C 0.94003 0.2752 0.10546 0.0
H612 H 0.96463 0.31506 0.0449 0.0
H613 H 0.91577 0.16574 0.43648 0.0
H614 H 0.32311 0.94552 0.67143 0.0
H615 H 0.28988 0.95386 0.71123 0.0
H616 H 0.26474 0.904 0.61246 0.0
H617 H 0.29745 0.89627 0.57054 0.0
H618 H 0.23915 0.93236 0.61149 0.0
H619 H 0.28099 0.90196 0.76739 0.0
H620 H 0.3105 0.90025 0.83475 0.0
H621 H 0.29441 0.95663 0.91477 0.0
H622 H 0.265 0.95884 0.84714 0.0
H623 H 0.1756 0.89482 0.8775 0.0
H624 H 0.208 0.90312 0.83459 0.0
H625 H 0.18167 0.95271 0.73744 0.0
H626 H 0.14872 0.94381 0.77835 0.0
H627 H 0.23292 0.93204 0.83643 0.0
H628 H 0.20687 0.95834 0.60039 0.0
H629 H 0.17767 0.95571 0.53226 0.0
H630 H 0.16197 0.89935 0.61286 0.0
H631 H 0.19139 0.90141 0.68047 0.0
C632 C 0.31041 0.93658 0.65747 0.0
C633 C 0.31295 0.92011 0.61832 0.0
C634 C 0.29144 0.9413 0.68042 0.0
C635 C 0.27483 0.92933 0.66583 0.0
C636 C 0.27727 0.9135 0.62446 0.0
C637 C 0.29607 0.90902 0.60069 0.0
C638 C 0.2552 0.93202 0.69656 0.0
C639 C 0.2378 0.93251 0.66071 0.0
C640 C 0.25336 0.93213 0.76081 0.0
C641 C 0.27095 0.93069 0.80174 0.0
C642 C 0.28383 0.91405 0.79909 0.0
C643 C 0.30053 0.91299 0.8373 0.0
C644 C 0.30433 0.92835 0.87889 0.0
C645 C 0.29145 0.94478 0.88242 0.0
C646 C 0.27478 0.94595 0.84415 0.0
C647 C 0.17664 0.90762 0.84743 0.0
C648 C 0.15952 0.91851 0.83075 0.0
C649 C 0.19527 0.91243 0.82311 0.0
C650 C 0.19731 0.92838 0.78207 0.0
C651 C 0.18043 0.94008 0.76807 0.0
C652 C 0.16162 0.93503 0.79162 0.0
C653 C 0.21687 0.93156 0.75135 0.0
C654 C 0.23425 0.93233 0.78721 0.0
C655 C 0.2187 0.93186 0.6871 0.0
C656 C 0.20115 0.93021 0.64608 0.0
C657 C 0.19721 0.94537 0.60343 0.0
C658 C 0.18064 0.94397 0.5649 0.0
C659 C 0.16791 0.92744 0.5685 0.0
C660 C 0.17181 0.91219 0.61031 0.0
C661 C 0.18845 0.91345 0.64869 0.0
H662 H 0.15508 0.92644 0.53869 0.0
H663 H 0.31721 0.92751 0.90857 0.0
H664 H 0.35485 0.83777 0.82709 0.0
H665 H 0.35434 0.80365 0.86886 0.0
H666 H 0.39065 0.78325 0.71882 0.0
H667 H 0.39126 0.81719 0.67719 0.0
H668 H 0.35611 0.7602 0.73897 0.0
H669 H 0.41175 0.78779 0.85278 0.0
H670 H 0.42826 0.81161 0.92224 0.0
H671 H 0.386 0.79726 0.06273 0.0
H672 H 0.36912 0.77345 0.9939 0.0
H673 H 0.3862 0.66358 0.81499 0.0
H674 H 0.3856 0.69914 0.78991 0.0
H675 H 0.35812 0.71208 0.96333 0.0
H676 H 0.35931 0.67634 0.98942 0.0
H677 H 0.38475 0.7398 0.93784 0.0
H678 H 0.33037 0.7107 0.82967 0.0
H679 H 0.31336 0.68651 0.7626 0.0
H680 H 0.35089 0.70421 0.61344 0.0
H681 H 0.36834 0.72831 0.67984 0.0
C682 C 0.36273 0.82597 0.80325 0.0
C683 C 0.37308 0.83006 0.74891 0.0
C684 C 0.36253 0.80657 0.82727 0.0
C685 C 0.37249 0.79098 0.79691 0.0
C686 C 0.38289 0.7951 0.74291 0.0
C687 C 0.38332 0.81448 0.71937 0.0
C688 C 0.37146 0.77014 0.81957 0.0
C689 C 0.36252 0.75568 0.78221 0.0
C690 C 0.37913 0.76446 0.877 0.0
C691 C 0.38906 0.779 0.91801 0.0
C692 C 0.40587 0.78985 0.8983 0.0
C693 C 0.41535 0.80327 0.93765 0.0
C694 C 0.4082 0.80592 0.99688 0.0
C695 C 0.39154 0.79516 0.01688 0.0
C696 C 0.38203 0.78169 0.97775 0.0
C697 C 0.38001 0.67402 0.84773 0.0
C698 C 0.37256 0.66723 0.9038 0.0
C699 C 0.37962 0.69433 0.83333 0.0
C700 C 0.37134 0.70826 0.87407 0.0
C701 C 0.36444 0.7016 0.931 0.0
C702 C 0.36512 0.68122 0.94586 0.0
C703 C 0.36982 0.72968 0.85651 0.0
C704 C 0.37816 0.74429 0.89485 0.0
C705 C 0.36133 0.73559 0.8002 0.0
C706 C 0.35076 0.72122 0.7599 0.0
C707 C 0.33509 0.70935 0.78267 0.0
C708 C 0.32535 0.69566 0.74475 0.0
C709 C 0.33106 0.69379 0.68383 0.0
C710 C 0.34649 0.70566 0.66065 0.0
C711 C 0.35629 0.71935 0.69839 0.0
H712 H 0.32352 0.68318 0.65456 0.0
H713 H 0.41554 0.81635 0.02723 0.0
H714 H 0.81323 0.36122 0.41491 0.0
H715 H 0.77807 0.36066 0.38383 0.0
H716 H 0.79598 0.36102 0.19519 0.0
H717 H 0.83105 0.36224 0.22579 0.0
H718 H 0.76655 0.3874 0.21548 0.0
H719 H 0.77907 0.31825 0.26384 0.0
H720 H 0.78987 0.29023 0.32905 0.0
H721 H 0.74522 0.30586 0.46132 0.0
H722 H 0.73431 0.33414 0.39723 0.0
H723 H 0.67432 0.36268 0.07799 0.0
H724 H 0.70904 0.36174 0.11285 0.0
H725 H 0.68891 0.3603 0.29938 0.0
H726 H 0.65414 0.36116 0.2648 0.0
H727 H 0.71918 0.33476 0.28291 0.0
H728 H 0.70637 0.40353 0.23564 0.0
H729 H 0.69551 0.43192 0.17207 0.0
H730 H 0.74069 0.41767 0.04001 0.0
H731 H 0.75165 0.389 0.10241 0.0
C732 C 0.80967 0.36124 0.36682 0.0
C733 C 0.82497 0.36166 0.32286 0.0
C734 C 0.78958 0.36075 0.34912 0.0
C735 C 0.78439 0.36059 0.28715 0.0
C736 C 0.79963 0.36106 0.24325 0.0
C737 C 0.81969 0.36155 0.26086 0.0
C738 C 0.76311 0.36038 0.26779 0.0
C739 C 0.75626 0.37574 0.22957 0.0
C740 C 0.74954 0.34549 0.28759 0.0
C741 C 0.75601 0.32843 0.32602 0.0
C742 C 0.77165 0.3158 0.30705 0.0
C743 C 0.77778 0.29985 0.34377 0.0
C744 C 0.76827 0.2963 0.39937 0.0
C745 C 0.75258 0.30865 0.41828 0.0
C746 C 0.74641 0.32462 0.38176 0.0
C747 C 0.67729 0.36221 0.12644 0.0
C748 C 0.66147 0.36207 0.16862 0.0
C749 C 0.69714 0.36168 0.14631 0.0
C750 C 0.70159 0.36124 0.20879 0.0
C751 C 0.68583 0.36063 0.25097 0.0
C752 C 0.66597 0.36106 0.23111 0.0
C753 C 0.72268 0.36169 0.23009 0.0
C754 C 0.72948 0.34642 0.2688 0.0
C755 C 0.73621 0.37672 0.21097 0.0
C756 C 0.7297 0.394 0.17343 0.0
C757 C 0.71389 0.40635 0.19282 0.0
C758 C 0.70773 0.42251 0.15703 0.0
C759 C 0.71737 0.42657 0.10196 0.0
C760 C 0.73322 0.41449 0.08264 0.0
C761 C 0.73942 0.3983 0.11822 0.0
H762 H 0.71258 0.43909 0.07432 0.0
H763 H 0.77304 0.28395 0.42774 0.0
H764 H 0.08463 0.81456 0.8101 0.0
H765 H 0.08627 0.77923 0.78101 0.0
H766 H 0.11578 0.79525 0.61348 0.0
H767 H 0.11445 0.83077 0.64285 0.0
H768 H 0.08148 0.76494 0.60796 0.0
H769 H 0.14473 0.77886 0.70557 0.0
H770 H 0.16592 0.79228 0.78786 0.0
H771 H 0.13742 0.75315 0.91627 0.0
H772 H 0.11582 0.73972 0.83486 0.0
H773 H 0.10869 0.66308 0.54377 0.0
H774 H 0.10815 0.69968 0.55405 0.0
H775 H 0.09783 0.69358 0.74719 0.0
H776 H 0.09902 0.65725 0.73722 0.0
H777 H 0.12478 0.72019 0.73089 0.0
H778 H 0.06038 0.70753 0.64179 0.0
H779 H 0.03672 0.69452 0.56534 0.0
H780 H 0.06419 0.73092 0.42774 0.0
H781 H 0.0882 0.74397 0.50328 0.0
C782 C 0.09128 0.81056 0.76679 0.0
C783 C 0.09942 0.82534 0.72868 0.0
C784 C 0.09225 0.79042 0.75035 0.0
C785 C 0.10116 0.78472 0.69521 0.0
C786 C 0.10882 0.79944 0.65616 0.0
C787 C 0.10816 0.81963 0.6731 0.0
C788 C 0.10314 0.76325 0.68018 0.0
C789 C 0.0912 0.75513 0.63392 0.0
C790 C 0.11543 0.75052 0.71531 0.0
C791 C 0.12854 0.75842 0.76421 0.0
C792 C 0.14286 0.77324 0.75145 0.0
C793 C 0.15497 0.78082 0.79792 0.0
C794 C 0.15298 0.7736 0.85729 0.0
C795 C 0.13892 0.75874 0.87027 0.0
C796 C 0.12676 0.75113 0.82397 0.0
C797 C 0.10623 0.66965 0.58823 0.0
C798 C 0.10407 0.65741 0.63977 0.0
C799 C 0.10585 0.69052 0.5941 0.0
C800 C 0.10285 0.69944 0.65141 0.0
C801 C 0.10034 0.68712 0.70259 0.0
C802 C 0.10102 0.66635 0.69688 0.0
C803 C 0.10281 0.72155 0.65909 0.0
C804 C 0.11517 0.72988 0.70417 0.0
C805 C 0.09062 0.73438 0.6235 0.0
C806 C 0.07624 0.72654 0.57801 0.0
C807 C 0.06149 0.71263 0.59512 0.0
C808 C 0.04799 0.70528 0.55197 0.0
C809 C 0.04899 0.71184 0.49167 0.0
C810 C 0.06346 0.72582 0.47443 0.0
C811 C 0.07701 0.73321 0.5174 0.0
H812 H 0.03853 0.70614 0.45834 0.0
H813 H 0.16237 0.77949 0.89321 0.0
H814 H 0.81323 0.09328 0.17529 0.0
H815 H 0.7782 0.09584 0.20716 0.0
H816 H 0.79654 0.1233 0.37576 0.0
H817 H 0.83174 0.12116 0.34342 0.0
H818 H 0.7653 0.08823 0.37699 0.0
H819 H 0.77991 0.15387 0.29497 0.0
H820 H 0.79329 0.17682 0.21716 0.0
H821 H 0.75296 0.15233 0.08457 0.0
H822 H 0.73957 0.12899 0.16141 0.0
H823 H 0.66393 0.11297 0.45212 0.0
H824 H 0.70047 0.11373 0.44074 0.0
H825 H 0.69386 0.10986 0.24555 0.0
H826 H 0.65758 0.10988 0.25683 0.0
H827 H 0.72076 0.13571 0.26844 0.0
H828 H 0.70773 0.06894 0.3399 0.0
H829 H 0.69469 0.04328 0.41006 0.0
H830 H 0.73164 0.0664 0.55362 0.0
H831 H 0.74471 0.09238 0.48445 0.0
C832 C 0.80978 0.09973 0.21932 0.0
C833 C 0.82511 0.10703 0.25698 0.0
C834 C 0.78983 0.10121 0.23736 0.0
C835 C 0.78489 0.10974 0.29371 0.0
C836 C 0.80015 0.11664 0.33215 0.0
C837 C 0.82015 0.11551 0.31357 0.0
C838 C 0.76364 0.11192 0.31096 0.0
C839 C 0.75555 0.09886 0.35433 0.0
C840 C 0.75098 0.1254 0.27992 0.0
C841 C 0.75887 0.13956 0.23381 0.0
C842 C 0.77403 0.15325 0.24909 0.0
C843 C 0.78159 0.16636 0.20519 0.0
C844 C 0.77402 0.16601 0.14592 0.0
C845 C 0.75883 0.15258 0.13048 0.0
C846 C 0.75123 0.13942 0.1742 0.0
C847 C 0.67038 0.11231 0.40693 0.0
C848 C 0.65801 0.11152 0.35534 0.0
C849 C 0.69122 0.11266 0.40041 0.0
C850 C 0.69999 0.11169 0.34224 0.0
C851 C 0.68753 0.11078 0.29086 0.0
C852 C 0.66679 0.11079 0.29732 0.0
C853 C 0.72208 0.11173 0.33407 0.0
C854 C 0.73041 0.12523 0.29211 0.0
C855 C 0.73486 0.09834 0.3656 0.0
C856 C 0.72701 0.08275 0.40723 0.0
C857 C 0.71295 0.06866 0.38657 0.0
C858 C 0.70557 0.05403 0.42613 0.0
C859 C 0.71228 0.05325 0.48632 0.0
C860 C 0.72642 0.06706 0.50702 0.0
C861 C 0.73383 0.08173 0.46766 0.0
H862 H 0.70656 0.04192 0.51687 0.0
H863 H 0.77989 0.17617 0.11199 0.0
H864 H 0.53837 0.13346 0.61783 0.0
H865 H 0.54294 0.13008 0.72728 0.0
H866 H 0.58514 0.08218 0.69766 0.0
H867 H 0.57987 0.08475 0.58813 0.0
H868 H 0.56008 0.07262 0.785 0.0
H869 H 0.60037 0.12969 0.73863 0.0
H870 H 0.60802 0.16293 0.69591 0.0
H871 H 0.56339 0.18958 0.81087 0.0
H872 H 0.55526 0.15645 0.85365 0.0
H873 H 0.60128 0.07218 0.08256 0.0
H874 H 0.59759 0.07669 0.97323 0.0
H875 H 0.54804 0.11679 0.00319 0.0
H876 H 0.55104 0.11189 0.11278 0.0
H877 H 0.5772 0.13049 0.91669 0.0
H878 H 0.53705 0.07252 0.96138 0.0
H879 H 0.53051 0.0391 0.00445 0.0
H880 H 0.57675 0.01401 0.89215 0.0
H881 H 0.58377 0.04737 0.84906 0.0
C882 C 0.54851 0.12209 0.63445 0.0
C883 C 0.55876 0.1094 0.59397 0.0
C884 C 0.55129 0.12035 0.6971 0.0
C885 C 0.5646 0.10608 0.72056 0.0
C886 C 0.57487 0.09338 0.68043 0.0
C887 C 0.57199 0.09501 0.61772 0.0
C888 C 0.56736 0.10403 0.78709 0.0
C889 C 0.56413 0.08521 0.81362 0.0
C890 C 0.57222 0.12058 0.82455 0.0
C891 C 0.57707 0.14054 0.79891 0.0
C892 C 0.59207 0.14261 0.75444 0.0
C893 C 0.59651 0.16144 0.73027 0.0
C894 C 0.58616 0.17835 0.75054 0.0
C895 C 0.57138 0.17647 0.79514 0.0
C896 C 0.56685 0.15767 0.8194 0.0
C897 C 0.58943 0.0818 0.06631 0.0
C898 C 0.57635 0.0915 0.107 0.0
C899 C 0.58745 0.08444 0.00367 0.0
C900 C 0.57247 0.09695 0.98045 0.0
C901 C 0.55972 0.10709 0.02054 0.0
C902 C 0.56153 0.1043 0.08327 0.0
C903 C 0.56996 0.09913 0.91411 0.0
C904 C 0.57321 0.11794 0.88779 0.0
C905 C 0.5653 0.08256 0.87673 0.0
C906 C 0.56108 0.06248 0.90249 0.0
C907 C 0.54595 0.05991 0.94629 0.0
C908 C 0.54213 0.04097 0.97062 0.0
C909 C 0.55324 0.02445 0.95118 0.0
C910 C 0.56817 0.02683 0.90724 0.0
C911 C 0.57207 0.04575 0.88282 0.0
H912 H 0.55026 0.0098 0.97005 0.0
H913 H 0.58963 0.19291 0.73179 0.0
H914 H 0.36255 0.57648 0.70931 0.0
H915 H 0.35823 0.5757 0.59908 0.0
H916 H 0.42188 0.56848 0.57582 0.0
H917 H 0.42632 0.5692 0.68638 0.0
H918 H 0.40764 0.5962 0.49906 0.0
H919 H 0.3898 0.52914 0.55328 0.0
H920 H 0.37184 0.50293 0.61026 0.0
H921 H 0.31573 0.52533 0.54387 0.0
H922 H 0.33334 0.55185 0.48708 0.0
H923 H 0.39982 0.57327 0.18056 0.0
H924 H 0.40723 0.57287 0.2898 0.0
H925 H 0.34427 0.57841 0.32959 0.0
H926 H 0.33684 0.57863 0.22076 0.0
H927 H 0.3601 0.5501 0.39732 0.0
H928 H 0.37768 0.61799 0.34687 0.0
H929 H 0.39547 0.64441 0.29029 0.0
H930 H 0.45186 0.62061 0.34963 0.0
H931 H 0.4344 0.59387 0.40596 0.0
C932 C 0.37562 0.57438 0.68095 0.0
C933 C 0.39479 0.5728 0.7069 0.0
C934 C 0.37312 0.574 0.61777 0.0
C935 C 0.38971 0.57185 0.57903 0.0
C936 C 0.40886 0.57019 0.60473 0.0
C937 C 0.41138 0.57063 0.66797 0.0
C938 C 0.38705 0.57176 0.51175 0.0
C939 C 0.39748 0.58591 0.47667 0.0
C940 C 0.37352 0.5586 0.48256 0.0
C941 C 0.36289 0.54258 0.51632 0.0
C942 C 0.37363 0.52856 0.55116 0.0
C943 C 0.36351 0.51364 0.58336 0.0
C944 C 0.34266 0.51249 0.58079 0.0
C945 C 0.33188 0.52624 0.54585 0.0
C946 C 0.34193 0.54121 0.51358 0.0
C947 C 0.38761 0.57472 0.21261 0.0
C948 C 0.36773 0.57596 0.19204 0.0
C949 C 0.39185 0.57444 0.27509 0.0
C950 C 0.37631 0.57568 0.3181 0.0
C951 C 0.35651 0.5773 0.29744 0.0
C952 C 0.35228 0.57743 0.23521 0.0
C953 C 0.38044 0.57474 0.38465 0.0
C954 C 0.37033 0.56035 0.41961 0.0
C955 C 0.39422 0.58769 0.41367 0.0
C956 C 0.40473 0.60381 0.38009 0.0
C957 C 0.39387 0.6183 0.34748 0.0
C958 C 0.4039 0.63335 0.31552 0.0
C959 C 0.42478 0.63415 0.31622 0.0
C960 C 0.43568 0.61995 0.34905 0.0
C961 C 0.42573 0.60485 0.38104 0.0
H962 H 0.43251 0.64581 0.29145 0.0
H963 H 0.33485 0.50093 0.60578 0.0
H964 H 0.92478 0.41914 0.11923 0.0
H965 H 0.92761 0.41363 0.00964 0.0
H966 H 0.92136 0.35004 0.03734 0.0
H967 H 0.91867 0.35548 0.14724 0.0
H968 H 0.9486 0.35737 0.9514 0.0
H969 H 0.88154 0.37895 0.99183 0.0
H970 H 0.85534 0.40111 0.03317 0.0
H971 H 0.87699 0.44951 0.92289 0.0
H972 H 0.90351 0.4277 0.88151 0.0
H973 H 0.91822 0.33102 0.6522 0.0
H974 H 0.92221 0.33678 0.76074 0.0
H975 H 0.92608 0.40033 0.72878 0.0
H976 H 0.92097 0.39478 0.62009 0.0
H977 H 0.901 0.39337 0.81714 0.0
H978 H 0.96849 0.37135 0.77791 0.0
H979 H 0.99444 0.34871 0.73694 0.0
H980 H 0.97142 0.30061 0.84578 0.0
H981 H 0.94519 0.3229 0.88655 0.0
C982 C 0.92403 0.40398 0.102 0.0
C983 C 0.92127 0.38778 0.14193 0.0
C984 C 0.92565 0.40085 0.03932 0.0
C985 C 0.92427 0.38146 0.01503 0.0
C986 C 0.92237 0.36515 0.05496 0.0
C987 C 0.92089 0.36827 0.11783 0.0
C988 C 0.92414 0.37831 0.94798 0.0
C989 C 0.93806 0.36509 0.92208 0.0
C990 C 0.91063 0.38862 0.90947 0.0
C991 C 0.89463 0.40174 0.93403 0.0
C992 C 0.8808 0.39436 0.97673 0.0
C993 C 0.86588 0.40685 1.00012 0.0
C994 C 0.86453 0.42672 0.98079 0.0
C995 C 0.87807 0.43412 0.93789 0.0
C996 C 0.89304 0.4217 0.91442 0.0
C997 C 0.91983 0.34626 0.66792 0.0
C998 C 0.919 0.36243 0.62685 0.0
C999 C 0.92246 0.34951 0.73027 0.0
C1000 C 0.92467 0.36899 0.75324 0.0
C1001 C 0.92443 0.38514 0.71229 0.0
C1002 C 0.92163 0.38192 0.64987 0.0
C1003 C 0.92562 0.37257 0.82018 0.0
C1004 C 0.9117 0.38579 0.84623 0.0
C1005 C 0.93905 0.36216 0.85879 0.0
C1006 C 0.95474 0.3487 0.83439 0.0
C1007 C 0.96885 0.35587 0.79235 0.0
C1008 C 0.98363 0.34313 0.76938 0.0
C1009 C 0.98452 0.32321 0.7885 0.0
C1010 C 0.97068 0.31602 0.83085 0.0
C1011 C 0.95587 0.32871 0.85394 0.0
H1012 H 0.99597 0.31337 0.77068 0.0
H1013 H 0.85297 0.43636 0.99895 0.0
H1014 H 0.1262 0.878 0.09595 0.0
H1015 H 0.12858 0.88508 0.20483 0.0
H1016 H 0.09153 0.93739 0.18102 0.0
H1017 H 0.0896 0.93055 0.07134 0.0
H1018 H 0.11958 0.9449 0.26294 0.0
H1019 H 0.07222 0.89196 0.23201 0.0
H1020 H 0.0603 0.85935 0.19404 0.0
H1021 H 0.10554 0.82928 0.29836 0.0
H1022 H 0.11791 0.86175 0.33631 0.0
H1023 H 0.08084 0.95271 0.56342 0.0
H1024 H 0.0873 0.94946 0.45465 0.0
H1025 H 0.1253 0.89853 0.48926 0.0
H1026 H 0.11833 0.90134 0.59838 0.0
H1027 H 0.099 0.89031 0.40245 0.0
H1028 H 0.14422 0.94472 0.44021 0.0
H1029 H 0.15411 0.97794 0.47896 0.0
H1030 H 0.11072 0.00593 0.36291 0.0
H1031 H 0.10031 0.9729 0.32417 0.0
C1032 C 0.11866 0.89107 0.11392 0.0
C1033 C 0.10751 0.90359 0.0753 0.0
C1034 C 0.12 0.8951 0.1762 0.0
C1035 C 0.10983 0.91151 0.20161 0.0
C1036 C 0.09944 0.92458 0.16266 0.0
C1037 C 0.09834 0.92069 0.1 0.0
C1038 C 0.10933 0.91443 0.26892 0.0
C1039 C 0.11491 0.93302 0.29342 0.0
C1040 C 0.10359 0.89884 0.30903 0.0
C1041 C 0.09612 0.8793 0.28648 0.0
C1042 C 0.07972 0.8784 0.2465 0.0
C1043 C 0.07286 0.85994 0.22503 0.0
C1044 C 0.08219 0.84226 0.24364 0.0
C1045 C 0.09835 0.84299 0.2839 0.0
C1046 C 0.10528 0.86142 0.30543 0.0
C1047 C 0.09068 0.94089 0.548 0.0
C1048 C 0.09891 0.92719 0.5897 0.0
C1049 C 0.09455 0.93917 0.4857 0.0
C1050 C 0.10692 0.92384 0.46351 0.0
C1051 C 0.11572 0.91051 0.50521 0.0
C1052 C 0.11185 0.91223 0.56771 0.0
C1053 C 0.10929 0.92078 0.39667 0.0
C1054 C 0.10393 0.90214 0.37215 0.0
C1055 C 0.11501 0.93641 0.35669 0.0
C1056 C 0.12138 0.9563 0.37963 0.0
C1057 C 0.13668 0.95794 0.4233 0.0
C1058 C 0.1424 0.97673 0.4452 0.0
C1059 C 0.13303 0.99401 0.42349 0.0
C1060 C 0.11795 0.99254 0.37971 0.0
C1061 C 0.11215 0.97379 0.35771 0.0
H1062 H 0.13749 0.00853 0.44053 0.0
H1063 H 0.07686 0.82798 0.22698 0.0
H1064 H 0.55564 0.41805 0.35523 0.0
H1065 H 0.55502 0.41252 0.46518 0.0
H1066 H 0.57275 0.35112 0.43772 0.0
H1067 H 0.5734 0.35656 0.32761 0.0
H1068 H 0.54453 0.35437 0.5266 0.0
H1069 H 0.60706 0.38639 0.47668 0.0
H1070 H 0.62821 0.41276 0.43178 0.0
H1071 H 0.60009 0.45676 0.54581 0.0
H1072 H 0.57858 0.43067 0.59082 0.0
H1073 H 0.58089 0.33221 0.8209 0.0
H1074 H 0.57675 0.3378 0.71247 0.0
H1075 H 0.56426 0.40015 0.74596 0.0
H1076 H 0.56949 0.39501 0.85446 0.0
H1077 H 0.58849 0.39705 0.65408 0.0
H1078 H 0.52683 0.36526 0.70757 0.0
H1079 H 0.50532 0.3392 0.75249 0.0
H1080 H 0.53088 0.29529 0.63274 0.0
H1081 H 0.55275 0.32104 0.58764 0.0
C1082 C 0.55937 0.40336 0.37256 0.0
C1083 C 0.56476 0.38781 0.33261 0.0
C1084 C 0.55899 0.40021 0.43543 0.0
C1085 C 0.56418 0.3815 0.45978 0.0
C1086 C 0.56873 0.3657 0.41996 0.0
C1087 C 0.56904 0.36882 0.35696 0.0
C1088 C 0.56567 0.37865 0.52674 0.0
C1089 C 0.55429 0.36355 0.55447 0.0
C1090 C 0.57803 0.39095 0.56332 0.0
C1091 C 0.59108 0.40661 0.53668 0.0
C1092 C 0.6053 0.40171 0.49188 0.0
C1093 C 0.61736 0.4166 0.46645 0.0
C1094 C 0.61546 0.43643 0.48582 0.0
C1095 C 0.60153 0.4414 0.53079 0.0
C1096 C 0.58941 0.42657 0.55631 0.0
C1097 C 0.57744 0.34719 0.80568 0.0
C1098 C 0.5756 0.36313 0.84735 0.0
C1099 C 0.57479 0.3503 0.7433 0.0
C1100 C 0.56985 0.36933 0.72087 0.0
C1101 C 0.56796 0.38528 0.76209 0.0
C1102 C 0.57082 0.38225 0.82451 0.0
C1103 C 0.56734 0.37272 0.65431 0.0
C1104 C 0.5786 0.38791 0.6265 0.0
C1105 C 0.55478 0.36055 0.61779 0.0
C1106 C 0.54156 0.34505 0.64459 0.0
C1107 C 0.52797 0.35002 0.6911 0.0
C1108 C 0.51569 0.33531 0.71655 0.0
C1109 C 0.51676 0.31559 0.69558 0.0
C1110 C 0.53008 0.31056 0.64898 0.0
C1111 C 0.5424 0.32521 0.62341 0.0
H1112 H 0.50725 0.30422 0.71536 0.0
H1113 H 0.62481 0.44794 0.46607 0.0
H1114 H 0.07737 0.6001 0.90899 0.0
H1115 H 0.08161 0.59617 0.01871 0.0
H1116 H 0.10648 0.53731 0.99063 0.0
H1117 H 0.10196 0.54105 0.88042 0.0
H1118 H 0.07759 0.53878 0.08297 0.0
H1119 H 0.13707 0.57412 0.02383 0.0
H1120 H 0.15617 0.60107 0.97397 0.0
H1121 H 0.12674 0.64478 0.08592 0.0
H1122 H 0.10724 0.6181 0.13587 0.0
H1123 H 0.11762 0.5254 0.3784 0.0
H1124 H 0.11247 0.52845 0.26916 0.0
H1125 H 0.09213 0.5892 0.29322 0.0
H1126 H 0.09787 0.58651 0.40275 0.0
H1127 H 0.11879 0.58646 0.20242 0.0
H1128 H 0.05814 0.55273 0.25745 0.0
H1129 H 0.0371 0.52682 0.30524 0.0
H1130 H 0.06741 0.48128 0.20263 0.0
H1131 H 0.08856 0.50696 0.15391 0.0
C1132 C 0.08361 0.58627 0.92616 0.0
C1133 C 0.08931 0.57086 0.88618 0.0
C1134 C 0.08617 0.58411 0.98877 0.0
C1135 C 0.09448 0.56651 0.01255 0.0
C1136 C 0.10008 0.55102 0.97295 0.0
C1137 C 0.09764 0.55323 0.91014 0.0
C1138 C 0.09716 0.56433 0.07896 0.0
C1139 C 0.08684 0.54899 0.10908 0.0
C1140 C 0.10876 0.57806 0.11292 0.0
C1141 C 0.12056 0.59412 0.0832 0.0
C1142 C 0.13455 0.58949 0.03748 0.0
C1143 C 0.14548 0.60472 0.00926 0.0
C1144 C 0.14264 0.62463 0.02666 0.0
C1145 C 0.12891 0.62935 0.07244 0.0
C1146 C 0.11793 0.61418 0.10076 0.0
C1147 C 0.11224 0.53949 0.36066 0.0
C1148 C 0.10822 0.55575 0.39956 0.0
C1149 C 0.10902 0.5411 0.29816 0.0
C1150 C 0.10172 0.55897 0.27322 0.0
C1151 C 0.09768 0.57524 0.31171 0.0
C1152 C 0.10084 0.57363 0.37434 0.0
C1153 C 0.09916 0.56093 0.20662 0.0
C1154 C 0.10954 0.57622 0.1764 0.0
C1155 C 0.08749 0.54727 0.17264 0.0
C1156 C 0.07502 0.53174 0.20241 0.0
C1157 C 0.06038 0.53718 0.24531 0.0
C1158 C 0.04836 0.52255 0.27228 0.0
C1159 C 0.05092 0.50242 0.25699 0.0
C1160 C 0.06543 0.49688 0.21441 0.0
C1161 C 0.07738 0.51148 0.18689 0.0
H1162 H 0.04169 0.49111 0.27826 0.0
H1163 H 0.15111 0.6364 0.00476 0.0
H1164 H 0.95479 0.08747 0.41531 0.0
H1165 H 0.95269 0.09339 0.52483 0.0
H1166 H 0.89784 0.12633 0.49888 0.0
H1167 H 0.90009 0.12063 0.38868 0.0
H1168 H 0.92 0.14285 0.58898 0.0
H1169 H 0.897 0.0769 0.53843 0.0
H1170 H 0.89919 0.04334 0.49221 0.0
H1171 H 0.95065 0.02999 0.60192 0.0
H1172 H 0.94894 0.06361 0.64816 0.0
H1173 H 0.87693 0.12713 0.88224 0.0
H1174 H 0.8851 0.12892 0.77398 0.0
H1175 H 0.94045 0.09764 0.80758 0.0
H1176 H 0.93216 0.09555 0.91618 0.0
H1177 H 0.91954 0.0811 0.71439 0.0
H1178 H 0.94064 0.14688 0.77051 0.0
H1179 H 0.93748 0.18033 0.81683 0.0
H1180 H 0.88839 0.1939 0.6978 0.0
H1181 H 0.89105 0.1604 0.65134 0.0
C1182 C 0.94239 0.09615 0.43287 0.0
C1183 C 0.92744 0.10329 0.39347 0.0
C1184 C 0.94119 0.09952 0.49551 0.0
C1185 C 0.92482 0.10985 0.52042 0.0
C1186 C 0.91053 0.11817 0.48083 0.0
C1187 C 0.91184 0.11495 0.41783 0.0
C1188 C 0.92201 0.11071 0.58769 0.0
C1189 C 0.91969 0.12935 0.61636 0.0
C1190 C 0.92197 0.09311 0.62375 0.0
C1191 C 0.92296 0.07284 0.59629 0.0
C1192 C 0.90887 0.06686 0.55237 0.0
C1193 C 0.91002 0.04782 0.52621 0.0
C1194 C 0.92508 0.03456 0.544 0.0
C1195 C 0.93901 0.04029 0.58811 0.0
C1196 C 0.93795 0.05933 0.61433 0.0
C1197 C 0.89089 0.12071 0.86667 0.0
C1198 C 0.90384 0.11109 0.90784 0.0
C1199 C 0.89564 0.12191 0.80478 0.0
C1200 C 0.91346 0.11353 0.78254 0.0
C1201 C 0.92664 0.10428 0.82369 0.0
C1202 C 0.92196 0.1032 0.88581 0.0
C1203 C 0.91759 0.11325 0.71589 0.0
C1204 C 0.92003 0.09465 0.68722 0.0
C1205 C 0.91758 0.13087 0.67999 0.0
C1206 C 0.91593 0.15104 0.70783 0.0
C1207 C 0.92905 0.15692 0.75457 0.0
C1208 C 0.92738 0.17591 0.78078 0.0
C1209 C 0.91271 0.18922 0.76038 0.0
C1210 C 0.89972 0.18357 0.71361 0.0
C1211 C 0.90133 0.16459 0.68728 0.0
H1212 H 0.91144 0.20392 0.78072 0.0
H1213 H 0.92594 0.01983 0.5237 0.0
H1214 H 0.38164 0.93124 0.38467 0.0
H1215 H 0.37861 0.93758 0.27517 0.0
H1216 H 0.34938 0.88059 0.25174 0.0
H1217 H 0.35276 0.87405 0.36064 0.0
H1218 H 0.37579 0.88458 0.167 0.0
H1219 H 0.32435 0.92651 0.24574 0.0
H1220 H 0.30921 0.95265 0.31016 0.0
H1221 H 0.34729 0.99689 0.22873 0.0
H1222 H 0.36289 0.97097 0.16447 0.0
H1223 H 0.35374 0.90165 0.8563 0.0
H1224 H 0.34727 0.89725 0.96514 0.0
H1225 H 0.38094 0.95078 0.00404 0.0
H1226 H 0.38681 0.95563 0.89536 0.0
H1227 H 0.3492 0.94766 0.07969 0.0
H1228 H 0.40313 0.90401 0.01167 0.0
H1229 H 0.41624 0.87829 0.94159 0.0
H1230 H 0.37077 0.83729 1.00051 0.0
H1231 H 0.3573 0.86286 0.07068 0.0
C1232 C 0.37433 0.9202 0.35627 0.0
C1233 C 0.36748 0.90211 0.38141 0.0
C1234 C 0.37258 0.92384 0.29359 0.0
C1235 C 0.36359 0.90967 0.25487 0.0
C1236 C 0.35646 0.89176 0.28027 0.0
C1237 C 0.3584 0.88802 0.34265 0.0
C1238 C 0.36225 0.9131 0.1877 0.0
C1239 C 0.36967 0.89828 0.14817 0.0
C1240 C 0.35447 0.93103 0.16245 0.0
C1241 C 0.345 0.94671 0.20081 0.0
C1242 C 0.32964 0.94177 0.24194 0.0
C1243 C 0.32094 0.95656 0.27838 0.0
C1244 C 0.32734 0.9764 0.27372 0.0
C1245 C 0.34236 0.98151 0.23237 0.0
C1246 C 0.35112 0.96677 0.19586 0.0
C1247 C 0.35938 0.91273 0.88782 0.0
C1248 C 0.37106 0.92885 0.86701 0.0
C1249 C 0.35582 0.91011 0.95022 0.0
C1250 C 0.36399 0.92345 0.99309 0.0
C1251 C 0.37458 0.94019 0.97207 0.0
C1252 C 0.37809 0.94285 0.90984 0.0
C1253 C 0.36293 0.91929 0.05975 0.0
C1254 C 0.35514 0.93395 0.09897 0.0
C1255 C 0.37022 0.90118 0.08485 0.0
C1256 C 0.37913 0.88537 0.04601 0.0
C1257 C 0.39598 0.88948 0.00978 0.0
C1258 C 0.40344 0.87496 0.97 0.0
C1259 C 0.39428 0.85621 0.9664 0.0
C1260 C 0.37782 0.85184 0.00329 0.0
C1261 C 0.37029 0.86632 0.04318 0.0
H1262 H 0.39992 0.84511 0.93494 0.0
H1263 H 0.3206 0.98783 0.30201 0.0
loop_
_geom_bond_atom_site_label_1
_geom_bond_atom_site_label_2
_geom_bond_distance
_geom_bond_site_symmetry_2
_ccdc_geom_bond_type
C0 C1 1.351 . S
C0 N3 1.368 . S
C0 H5 0.931 . S
C1 C0 1.351 . S
C1 N2 1.373 . S
C1 H29 0.930 . S
N2 C1 1.373 . S
N2 C4 1.340 . S
N3 C0 1.368 . S
N3 C4 1.321 . S
N3 Co6 2.135 . S
C4 N2 1.340 . S
C4 N3 1.321 . S
C4 H28 0.930 . S
H5 C0 0.931 . S
Co6 N3 2.135 . S
Co6 N9 2.121 . S
Co6 O14 2.055 . S
Co6 O17 2.039 . S
Co6 N20 2.140 . S
C7 O8 1.227 . S
C7 O17 1.265 . S
O8 C7 1.227 . S
N9 Co6 2.121 . S
N9 C11 1.375 . S
N9 C12 1.313 . S
C10 C11 1.338 . S
C10 N13 1.377 . S
C10 H30 0.930 . S
C11 N9 1.375 . S
C11 C10 1.338 . S
C11 H15 0.931 . S
C12 N9 1.313 . S
C12 N13 1.344 . S
C12 H16 0.930 . S
N13 C10 1.377 . S
N13 C12 1.344 . S
O14 Co6 2.055 . S
O14 C18 1.253 . S
H15 C11 0.931 . S
H16 C12 0.930 . S
O17 Co6 2.039 . S
O17 C7 1.265 . S
C18 O14 1.253 . S
C18 O19 1.227 . S
O19 C18 1.227 . S
N20 Co6 2.140 . S
N20 C23 1.346 . S
N20 C24 1.345 . S
C21 C22 1.387 . S
C21 C25 1.391 . S
C22 C21 1.387 . S
C22 C23 1.369 . S
C22 H31 0.929 . S
C23 N20 1.346 . S
C23 C22 1.369 . S
C23 H26 0.928 . S
C24 N20 1.345 . S
C24 C25 1.371 . S
C24 H27 0.931 . S
C25 C21 1.391 . S
C25 C24 1.371 . S
C25 H32 0.930 . S
H26 C23 0.928 . S
H27 C24 0.931 . S
H28 C4 0.930 . S
H29 C1 0.930 . S
H30 C10 0.930 . S
H31 C22 0.929 . S
H32 C25 0.930 . S
C33 C34 1.351 . S
C33 N36 1.368 . S
C33 H38 0.931 . S
C34 C33 1.351 . S
C34 N35 1.373 . S
C34 H62 0.930 . S
N35 C34 1.373 . S
N35 C37 1.340 . S
N36 C33 1.368 . S
N36 C37 1.321 . S
N36 Co39 2.135 . S
C37 N35 1.340 . S
C37 N36 1.321 . S
C37 H61 0.930 . S
H38 C33 0.931 . S
Co39 N36 2.135 . S
Co39 N42 2.121 . S
Co39 O47 2.055 . S
Co39 O50 2.039 . S
Co39 N53 2.140 . S
C40 O41 1.227 . S
C40 O50 1.265 . S
O41 C40 1.227 . S
N42 Co39 2.121 . S
N42 C44 1.375 . S
N42 C45 1.313 . S
C43 C44 1.338 . S
C43 N46 1.377 1_556 S
C43 H63 0.930 1_556 S
C44 N42 1.375 . S
C44 C43 1.338 . S
C44 H48 0.931 . S
C45 N42 1.313 . S
C45 N46 1.344 1_556 S
C45 H49 0.930 . S
N46 C43 1.377 1_554 S
N46 C45 1.344 1_554 S
O47 Co39 2.055 . S
O47 C51 1.253 . S
H48 C44 0.931 . S
H49 C45 0.930 . S
O50 Co39 2.039 . S
O50 C40 1.265 . S
C51 O47 1.253 . S
C51 O52 1.227 . S
O52 C51 1.227 . S
N53 Co39 2.140 . S
N53 C56 1.346 . S
N53 C57 1.345 . S
C54 C55 1.387 . S
C54 C58 1.391 . S
C55 C54 1.387 . S
C55 C56 1.369 . S
C55 H64 0.929 . S
C56 N53 1.346 . S
C56 C55 1.369 . S
C56 H59 0.928 . S
C57 N53 1.345 . S
C57 C58 1.371 . S
C57 H60 0.931 . S
C58 C54 1.391 . S
C58 C57 1.371 . S
C58 H65 0.930 . S
H59 C56 0.928 . S
H60 C57 0.931 . S
H61 C37 0.930 . S
H62 C34 0.930 . S
H63 C43 0.930 1_554 S
H64 C55 0.929 . S
H65 C58 0.930 . S
C66 C67 1.351 . S
C66 N69 1.368 . S
C66 H71 0.931 . S
C67 C66 1.351 . S
C67 N68 1.373 . S
C67 H95 0.930 . S
N68 C67 1.373 . S
N68 C70 1.340 . S
N69 C66 1.368 . S
N69 C70 1.321 . S
N69 Co72 2.135 . S
C70 N68 1.340 . S
C70 N69 1.321 . S
C70 H94 0.930 . S
H71 C66 0.931 . S
Co72 N69 2.135 . S
Co72 N75 2.121 . S
Co72 O80 2.055 . S
Co72 O83 2.039 . S
Co72 N86 2.140 . S
C73 O74 1.227 . S
C73 O83 1.265 . S
O74 C73 1.227 . S
N75 Co72 2.121 . S
N75 C77 1.375 . S
N75 C78 1.313 . S
C76 C77 1.338 . S
C76 N79 1.377 . S
C76 H96 0.930 . S
C77 N75 1.375 . S
C77 C76 1.338 . S
C77 H81 0.931 . S
C78 N75 1.313 . S
C78 N79 1.344 . S
C78 H82 0.930 . S
N79 C76 1.377 . S
N79 C78 1.344 . S
O80 Co72 2.055 . S
O80 C84 1.253 . S
H81 C77 0.931 . S
H82 C78 0.930 . S
O83 Co72 2.039 . S
O83 C73 1.265 . S
C84 O80 1.253 . S
C84 O85 1.227 . S
O85 C84 1.227 . S
N86 Co72 2.140 . S
N86 C89 1.346 . S
N86 C90 1.345 . S
C87 C88 1.387 . S
C87 C91 1.391 . S
C88 C87 1.387 . S
C88 C89 1.369 . S
C88 H97 0.929 . S
C89 N86 1.346 . S
C89 C88 1.369 . S
C89 H92 0.928 . S
C90 N86 1.345 . S
C90 C91 1.371 . S
C90 H93 0.931 . S
C91 C87 1.391 . S
C91 C90 1.371 . S
C91 H98 0.930 . S
H92 C89 0.928 . S
H93 C90 0.931 . S
H94 C70 0.930 . S
H95 C67 0.930 . S
H96 C76 0.930 . S
H97 C88 0.929 . S
H98 C91 0.930 . S
C99 C100 1.351 . S
C99 N102 1.368 . S
C99 H104 0.931 . S
C100 C99 1.351 . S
C100 N101 1.373 . S
C100 H128 0.930 . S
N101 C100 1.373 . S
N101 C103 1.340 . S
N102 C99 1.368 . S
N102 C103 1.321 . S
N102 Co105 2.135 . S
C103 N101 1.340 . S
C103 N102 1.321 . S
C103 H127 0.930 . S
H104 C99 0.931 . S
Co105 N102 2.135 . S
Co105 N108 2.121 . S
Co105 O113 2.055 . S
Co105 O116 2.039 . S
Co105 N119 2.140 . S
C106 O107 1.227 . S
C106 O116 1.265 . S
O107 C106 1.227 . S
N108 Co105 2.121 . S
N108 C110 1.375 . S
N108 C111 1.313 . S
C109 C110 1.338 . S
C109 N112 1.377 1_556 S
C109 H129 0.930 1_556 S
C110 N108 1.375 . S
C110 C109 1.338 . S
C110 H114 0.931 . S
C111 N108 1.313 . S
C111 N112 1.344 1_556 S
C111 H115 0.930 . S
N112 C109 1.377 1_554 S
N112 C111 1.344 1_554 S
O113 Co105 2.055 . S
O113 C117 1.253 . S
H114 C110 0.931 . S
H115 C111 0.930 . S
O116 Co105 2.039 . S
O116 C106 1.265 . S
C117 O113 1.253 . S
C117 O118 1.227 . S
O118 C117 1.227 . S
N119 Co105 2.140 . S
N119 C122 1.346 . S
N119 C123 1.345 . S
C120 C121 1.387 . S
C120 C124 1.391 . S
C121 C120 1.387 . S
C121 C122 1.369 . S
C121 H130 0.929 . S
C122 N119 1.346 . S
C122 C121 1.369 . S
C122 H125 0.928 . S
C123 N119 1.345 . S
C123 C124 1.371 . S
C123 H126 0.931 . S
C124 C120 1.391 . S
C124 C123 1.371 . S
C124 H131 0.930 . S
H125 C122 0.928 . S
H126 C123 0.931 . S
H127 C103 0.930 . S
H128 C100 0.930 . S
H129 C109 0.930 1_554 S
H130 C121 0.929 . S
H131 C124 0.930 . S
C132 C133 1.351 . S
C132 N135 1.368 . S
C132 H137 0.931 . S
C133 C132 1.351 . S
C133 N134 1.373 . S
C133 H161 0.930 . S
N134 C133 1.373 . S
N134 C136 1.340 . S
N135 C132 1.368 . S
N135 C136 1.321 . S
N135 Co138 2.135 . S
C136 N134 1.340 . S
C136 N135 1.321 . S
C136 H160 0.930 . S
H137 C132 0.931 . S
Co138 N135 2.135 . S
Co138 N141 2.121 . S
Co138 O146 2.055 . S
Co138 O149 2.039 . S
Co138 N152 2.140 . S
C139 O140 1.227 . S
C139 O149 1.265 . S
O140 C139 1.227 . S
N141 Co138 2.121 . S
N141 C143 1.375 . S
N141 C144 1.313 . S
C142 C143 1.338 . S
C142 N145 1.377 1_554 S
C142 H162 0.930 1_554 S
C143 N141 1.375 . S
C143 C142 1.338 . S
C143 H147 0.931 . S
C144 N141 1.313 . S
C144 N145 1.344 1_554 S
C144 H148 0.930 . S
N145 C142 1.377 1_556 S
N145 C144 1.344 1_556 S
O146 Co138 2.055 . S
O146 C150 1.253 . S
H147 C143 0.931 . S
H148 C144 0.930 . S
O149 Co138 2.039 . S
O149 C139 1.265 . S
C150 O146 1.253 . S
C150 O151 1.227 . S
O151 C150 1.227 . S
N152 Co138 2.140 . S
N152 C155 1.346 . S
N152 C156 1.345 . S
C153 C154 1.387 . S
C153 C157 1.391 . S
C154 C153 1.387 . S
C154 C155 1.369 . S
C154 H163 0.929 . S
C155 N152 1.346 . S
C155 C154 1.369 . S
C155 H158 0.928 . S
C156 N152 1.345 . S
C156 C157 1.371 . S
C156 H159 0.931 . S
C157 C153 1.391 . S
C157 C156 1.371 . S
C157 H164 0.930 . S
H158 C155 0.928 . S
H159 C156 0.931 . S
H160 C136 0.930 . S
H161 C133 0.930 . S
H162 C142 0.930 1_556 S
H163 C154 0.929 . S
H164 C157 0.930 . S
C165 C166 1.351 . S
C165 N168 1.368 . S
C165 H170 0.931 . S
C166 C165 1.351 . S
C166 N167 1.373 . S
C166 H194 0.930 . S
N167 C166 1.373 . S
N167 C169 1.340 . S
N168 C165 1.368 . S
N168 C169 1.321 . S
N168 Co171 2.135 . S
C169 N167 1.340 . S
C169 N168 1.321 . S
C169 H193 0.930 . S
H170 C165 0.931 . S
Co171 N168 2.135 . S
Co171 N174 2.121 . S
Co171 O179 2.055 . S
Co171 O182 2.039 . S
Co171 N185 2.140 . S
C172 O173 1.227 . S
C172 O182 1.265 . S
O173 C172 1.227 . S
N174 Co171 2.121 . S
N174 C176 1.375 . S
N174 C177 1.313 . S
C175 C176 1.338 . S
C175 N178 1.377 . S
C175 H195 0.930 . S
C176 N174 1.375 . S
C176 C175 1.338 . S
C176 H180 0.931 . S
C177 N174 1.313 . S
C177 N178 1.344 . S
C177 H181 0.930 . S
N178 C175 1.377 . S
N178 C177 1.344 . S
O179 Co171 2.055 . S
O179 C183 1.253 . S
H180 C176 0.931 . S
H181 C177 0.930 . S
O182 Co171 2.039 . S
O182 C172 1.265 . S
C183 O179 1.253 . S
C183 O184 1.227 . S
O184 C183 1.227 . S
N185 Co171 2.140 . S
N185 C188 1.346 . S
N185 C189 1.345 . S
C186 C187 1.387 . S
C186 C190 1.391 . S
C187 C186 1.387 . S
C187 C188 1.369 . S
C187 H196 0.929 . S
C188 N185 1.346 . S
C188 C187 1.369 . S
C188 H191 0.928 . S
C189 N185 1.345 . S
C189 C190 1.371 . S
C189 H192 0.931 . S
C190 C186 1.391 . S
C190 C189 1.371 . S
C190 H197 0.930 . S
H191 C188 0.928 . S
H192 C189 0.931 . S
H193 C169 0.930 . S
H194 C166 0.930 . S
H195 C175 0.930 . S
H196 C187 0.929 . S
H197 C190 0.930 . S
C198 C199 1.351 . S
C198 N201 1.368 . S
C198 H203 0.931 . S
C199 C198 1.351 . S
C199 N200 1.373 . S
C199 H227 0.930 . S
N200 C199 1.373 . S
N200 C202 1.340 . S
N201 C198 1.368 . S
N201 C202 1.321 . S
N201 Co204 2.135 . S
C202 N200 1.340 . S
C202 N201 1.321 . S
C202 H226 0.930 . S
H203 C198 0.931 . S
Co204 N201 2.135 . S
Co204 N207 2.121 . S
Co204 O212 2.055 . S
Co204 O215 2.039 . S
Co204 N218 2.140 . S
C205 O206 1.227 . S
C205 O215 1.265 . S
O206 C205 1.227 . S
N207 Co204 2.121 . S
N207 C209 1.375 . S
N207 C210 1.313 . S
C208 C209 1.338 . S
C208 N211 1.377 1_554 S
C208 H228 0.930 1_554 S
C209 N207 1.375 . S
C209 C208 1.338 . S
C209 H213 0.931 . S
C210 N207 1.313 . S
C210 N211 1.344 1_554 S
C210 H214 0.930 . S
N211 C208 1.377 1_556 S
N211 C210 1.344 1_556 S
O212 Co204 2.055 . S
O212 C216 1.253 . S
H213 C209 0.931 . S
H214 C210 0.930 . S
O215 Co204 2.039 . S
O215 C205 1.265 . S
C216 O212 1.253 . S
C216 O217 1.227 . S
O217 C216 1.227 . S
N218 Co204 2.140 . S
N218 C221 1.346 . S
N218 C222 1.345 . S
C219 C220 1.387 . S
C219 C223 1.391 . S
C220 C219 1.387 . S
C220 C221 1.369 . S
C220 H229 0.929 . S
C221 N218 1.346 . S
C221 C220 1.369 . S
C221 H224 0.928 . S
C222 N218 1.345 . S
C222 C223 1.371 . S
C222 H225 0.931 . S
C223 C219 1.391 . S
C223 C222 1.371 . S
C223 H230 0.930 . S
H224 C221 0.928 . S
H225 C222 0.931 . S
H226 C202 0.930 . S
H227 C199 0.930 . S
H228 C208 0.930 1_556 S
H229 C220 0.929 . S
H230 C223 0.930 . S
C231 C232 1.351 . S
C231 N234 1.368 . S
C231 H236 0.931 . S
C232 C231 1.351 . S
C232 N233 1.373 . S
C232 H260 0.930 . S
N233 C232 1.373 . S
N233 C235 1.340 . S
N234 C231 1.368 . S
N234 C235 1.321 . S
N234 Co237 2.135 . S
C235 N233 1.340 . S
C235 N234 1.321 . S
C235 H259 0.930 . S
H236 C231 0.931 . S
Co237 N234 2.135 . S
Co237 N240 2.121 . S
Co237 O245 2.055 . S
Co237 O248 2.039 . S
Co237 N251 2.140 . S
C238 O239 1.227 . S
C238 O248 1.265 . S
O239 C238 1.227 . S
N240 Co237 2.121 . S
N240 C242 1.375 . S
N240 C243 1.313 . S
C241 C242 1.338 . S
C241 N244 1.377 . S
C241 H261 0.930 . S
C242 N240 1.375 . S
C242 C241 1.338 . S
C242 H246 0.931 . S
C243 N240 1.313 . S
C243 N244 1.344 . S
C243 H247 0.930 . S
N244 C241 1.377 . S
N244 C243 1.344 . S
O245 Co237 2.055 . S
O245 C249 1.253 . S
H246 C242 0.931 . S
H247 C243 0.930 . S
O248 Co237 2.039 . S
O248 C238 1.265 . S
C249 O245 1.253 . S
C249 O250 1.227 . S
O250 C249 1.227 . S
N251 Co237 2.140 . S
N251 C254 1.346 . S
N251 C255 1.345 . S
C252 C253 1.387 . S
C252 C256 1.391 . S
C253 C252 1.387 . S
C253 C254 1.369 . S
C253 H262 0.929 . S
C254 N251 1.346 . S
C254 C253 1.369 . S
C254 H257 0.928 . S
C255 N251 1.345 . S
C255 C256 1.371 . S
C255 H258 0.931 . S
C256 C252 1.391 . S
C256 C255 1.371 . S
C256 H263 0.930 . S
H257 C254 0.928 . S
H258 C255 0.931 . S
H259 C235 0.930 . S
H260 C232 0.930 . S
H261 C241 0.930 . S
H262 C253 0.929 . S
H263 C256 0.930 . S
H264 C282 0.951 . S
H265 C284 0.951 . S
H266 C286 0.950 . S
H267 C287 0.950 . S
H268 C289 0.950 . S
H269 C292 0.950 . S
H270 C293 0.950 . S
H271 C295 0.950 . S
H272 C296 0.950 . S
H273 C297 0.951 . S
H274 C299 0.951 . S
H275 C301 0.950 . S
H276 C302 0.950 . S
H277 C304 0.956 . S
H278 C307 0.950 . S
H279 C308 0.950 . S
H280 C310 0.950 . S
H281 C311 0.950 . S
C282 H264 0.951 . S
C282 C283 1.366 . S
C282 C284 1.388 . S
C283 C282 1.366 . S
C283 C287 1.385 . S
C284 H265 0.951 . S
C284 C282 1.388 . S
C284 C285 1.366 . S
C285 C284 1.366 . S
C285 C286 1.414 . S
C285 C288 1.499 . S
C286 H266 0.950 . S
C286 C285 1.414 . S
C286 C287 1.374 . S
C287 H267 0.950 . S
C287 C283 1.385 . S
C287 C286 1.374 . S
C288 C285 1.499 . S
C288 C289 1.373 . S
C288 C290 1.389 . S
C289 H268 0.950 . S
C289 C288 1.373 . S
C289 C305 1.377 1_565 S
C290 C288 1.389 . S
C290 C291 1.524 . S
C290 C304 1.339 1_565 S
C291 C290 1.524 . S
C291 C292 1.397 . S
C291 C296 1.363 . S
C292 H269 0.950 . S
C292 C291 1.397 . S
C292 C293 1.334 . S
C293 H270 0.950 . S
C293 C292 1.334 . S
C293 C294 1.287 . S
C294 C293 1.287 . S
C294 C295 1.524 . S
C294 H313 0.913 . S
C295 H271 0.950 . S
C295 C294 1.524 . S
C295 C296 1.415 . S
C296 H272 0.950 . S
C296 C291 1.363 . S
C296 C295 1.415 . S
C297 H273 0.951 . S
C297 C298 1.366 . S
C297 C299 1.388 . S
C298 C297 1.366 . S
C298 C302 1.385 . S
C299 H274 0.951 . S
C299 C297 1.388 . S
C299 C300 1.366 . S
C300 C299 1.366 . S
C300 C301 1.414 . S
C300 C303 1.499 . S
C301 H275 0.950 . S
C301 C300 1.414 . S
C301 C302 1.374 . S
C302 H276 0.950 . S
C302 C298 1.385 . S
C302 C301 1.374 . S
C303 C300 1.499 . S
C303 C304 1.408 . S
C303 C305 1.389 . S
C304 H277 0.956 . S
C304 C290 1.339 1_545 S
C304 C303 1.408 . S
C305 C289 1.377 1_545 S
C305 C303 1.389 . S
C305 C306 1.524 . S
C306 C305 1.524 . S
C306 C307 1.397 . S
C306 C311 1.363 . S
C307 H278 0.950 . S
C307 C306 1.397 . S
C307 C308 1.334 . S
C308 H279 0.950 . S
C308 C307 1.334 . S
C308 C309 1.287 . S
C309 C308 1.287 . S
C309 C310 1.524 . S
C309 H312 0.999 . S
C310 H280 0.950 . S
C310 C309 1.524 . S
C310 C311 1.415 . S
C311 H281 0.950 . S
C311 C306 1.363 . S
C311 C310 1.415 . S
H312 C309 0.999 . S
H313 C294 0.913 . S
H314 C332 0.951 . S
H315 C334 0.951 . S
H316 C336 0.950 . S
H317 C337 0.950 . S
H318 C339 0.950 . S
H319 C342 0.950 . S
H320 C343 0.950 . S
H321 C345 0.950 . S
H322 C346 0.950 . S
H323 C347 0.951 . S
H324 C349 0.951 . S
H325 C351 0.950 . S
H326 C352 0.950 . S
H327 C354 0.950 . S
H328 C357 0.950 . S
H329 C358 0.950 . S
H330 C360 0.950 . S
H331 C361 0.950 . S
C332 H314 0.951 . S
C332 C333 1.366 . S
C332 C334 1.388 . S
C333 C332 1.366 . S
C333 C337 1.385 . S
C334 H315 0.951 . S
C334 C332 1.388 . S
C334 C335 1.366 . S
C335 C334 1.366 . S
C335 C336 1.414 . S
C335 C338 1.499 . S
C336 H316 0.950 . S
C336 C335 1.414 . S
C336 C337 1.374 . S
C337 H317 0.950 . S
C337 C333 1.385 . S
C337 C336 1.374 . S
C338 C335 1.499 . S
C338 C339 1.373 1_554 S
C338 C340 1.389 . S
C339 H318 0.950 . S
C339 C338 1.373 1_556 S
C339 C355 1.377 . S
C340 C338 1.389 . S
C340 C341 1.524 . S
C340 C354 1.377 . S
C341 C340 1.524 . S
C341 C342 1.397 . S
C341 C346 1.363 . S
C342 H319 0.950 . S
C342 C341 1.397 . S
C342 C343 1.334 . S
C343 H320 0.950 . S
C343 C342 1.334 . S
C343 C344 1.287 . S
C344 C343 1.287 . S
C344 C345 1.524 . S
C344 H363 0.913 . S
C345 H321 0.950 . S
C345 C344 1.524 . S
C345 C346 1.415 . S
C346 H322 0.950 . S
C346 C341 1.363 . S
C346 C345 1.415 . S
C347 H323 0.951 . S
C347 C348 1.366 . S
C347 C349 1.388 . S
C348 C347 1.366 . S
C348 C352 1.385 . S
C349 H324 0.951 . S
C349 C347 1.388 . S
C349 C350 1.366 . S
C350 C349 1.366 . S
C350 C351 1.414 . S
C350 C353 1.499 . S
C351 H325 0.950 . S
C351 C350 1.414 . S
C351 C352 1.374 . S
C352 H326 0.950 . S
C352 C348 1.385 . S
C352 C351 1.374 . S
C353 C350 1.499 . S
C353 C354 1.373 1_556 S
C353 C355 1.389 . S
C354 H327 0.950 . S
C354 C340 1.377 . S
C354 C353 1.373 1_554 S
C355 C339 1.377 . S
C355 C353 1.389 . S
C355 C356 1.524 . S
C356 C355 1.524 . S
C356 C357 1.397 . S
C356 C361 1.363 . S
C357 H328 0.950 . S
C357 C356 1.397 . S
C357 C358 1.334 . S
C358 H329 0.950 . S
C358 C357 1.334 . S
C358 C359 1.287 . S
C359 C358 1.287 . S
C359 C360 1.524 . S
C359 H362 0.999 . S
C360 H330 0.950 . S
C360 C359 1.524 . S
C360 C361 1.415 . S
C361 H331 0.950 . S
C361 C356 1.363 . S
C361 C360 1.415 . S
H362 C359 0.999 . S
H363 C344 0.913 . S
H364 C382 0.951 . S
H365 C384 0.951 . S
H366 C386 0.950 . S
H367 C387 0.950 . S
H368 C389 0.950 . S
H369 C392 0.950 . S
H370 C393 0.950 . S
H371 C395 0.950 . S
H372 C396 0.950 . S
H373 C397 0.951 . S
H374 C399 0.951 . S
H375 C401 0.950 . S
H376 C402 0.950 . S
H377 C404 0.950 . S
H378 C407 0.950 . S
H379 C408 0.950 . S
H380 C410 0.950 . S
H381 C411 0.950 . S
C382 H364 0.951 . S
C382 C383 1.366 . S
C382 C384 1.388 . S
C383 C382 1.366 . S
C383 C387 1.385 . S
C384 H365 0.951 . S
C384 C382 1.388 . S
C384 C385 1.366 . S
C385 C384 1.366 . S
C385 C386 1.414 . S
C385 C388 1.499 . S
C386 H366 0.950 . S
C386 C385 1.414 . S
C386 C387 1.374 . S
C387 H367 0.950 . S
C387 C383 1.385 . S
C387 C386 1.374 . S
C388 C385 1.499 . S
C388 C389 1.373 . S
C388 C390 1.389 1_655 S
C389 H368 0.950 . S
C389 C388 1.373 . S
C389 C405 1.377 . S
C390 C388 1.389 1_455 S
C390 C391 1.524 . S
C390 C404 1.377 . S
C391 C390 1.524 . S
C391 C392 1.397 1_455 S
C391 C396 1.363 . S
C392 H369 0.950 . S
C392 C391 1.397 1_655 S
C392 C393 1.334 . S
C393 H370 0.950 . S
C393 C392 1.334 . S
C393 C394 1.287 1_655 S
C394 C393 1.287 1_455 S
C394 C395 1.524 . S
C394 H413 0.913 . S
C395 H371 0.950 . S
C395 C394 1.524 . S
C395 C396 1.415 . S
C396 H372 0.950 . S
C396 C391 1.363 . S
C396 C395 1.415 . S
C397 H373 0.951 . S
C397 C398 1.366 . S
C397 C399 1.388 . S
C398 C397 1.366 . S
C398 C402 1.385 . S
C399 H374 0.951 . S
C399 C397 1.388 . S
C399 C400 1.366 . S
C400 C399 1.366 . S
C400 C401 1.414 . S
C400 C403 1.499 . S
C401 H375 0.950 . S
C401 C400 1.414 . S
C401 C402 1.374 . S
C402 H376 0.950 . S
C402 C398 1.385 . S
C402 C401 1.374 . S
C403 C400 1.499 . S
C403 C404 1.373 . S
C403 C405 1.389 1_455 S
C404 H377 0.950 . S
C404 C390 1.377 . S
C404 C403 1.373 . S
C405 C389 1.377 . S
C405 C403 1.389 1_655 S
C405 C406 1.524 . S
C406 C405 1.524 . S
C406 C407 1.397 1_655 S
C406 C411 1.363 . S
C407 H378 0.950 . S
C407 C406 1.397 1_455 S
C407 C408 1.334 . S
C408 H379 0.950 . S
C408 C407 1.334 . S
C408 C409 1.287 1_455 S
C409 C408 1.287 1_655 S
C409 C410 1.524 . S
C409 H412 0.999 . S
C410 H380 0.950 . S
C410 C409 1.524 . S
C410 C411 1.415 . S
C411 H381 0.950 . S
C411 C406 1.363 . S
C411 C410 1.415 . S
H412 C409 0.999 . S
H413 C394 0.913 . S
H414 C432 0.951 . S
H415 C434 0.951 . S
H416 C436 0.950 . S
H417 C437 0.950 . S
H418 C439 0.953 . S
H419 C442 0.950 . S
H420 C443 0.950 . S
H421 C445 0.950 . S
H422 C446 0.950 . S
H423 C447 0.951 . S
H424 C449 0.951 . S
H425 C451 0.950 . S
H426 C452 0.950 . S
H427 C454 0.950 . S
H428 C457 0.950 . S
H429 C458 0.950 . S
H430 C460 0.950 . S
H431 C461 0.950 . S
C432 H414 0.951 . S
C432 C433 1.366 . S
C432 C434 1.388 . S
C433 C432 1.366 . S
C433 C437 1.385 . S
C434 H415 0.951 . S
C434 C432 1.388 . S
C434 C435 1.366 . S
C435 C434 1.366 . S
C435 C436 1.414 . S
C435 C438 1.499 . S
C436 H416 0.950 . S
C436 C435 1.414 . S
C436 C437 1.374 . S
C437 H417 0.950 . S
C437 C433 1.385 . S
C437 C436 1.374 . S
C438 C435 1.499 . S
C438 C439 1.356 1_654 S
C438 C440 1.389 1_545 S
C439 H418 0.953 . S
C439 C438 1.356 1_456 S
C439 C455 1.392 . S
C440 C438 1.389 1_565 S
C440 C441 1.524 . S
C440 C454 1.377 . S
C441 C440 1.524 . S
C441 C442 1.397 . S
C441 C446 1.363 . S
C442 H419 0.950 . S
C442 C441 1.397 . S
C442 C443 1.334 . S
C443 H420 0.950 . S
C443 C442 1.334 . S
C443 C444 1.287 . S
C444 C443 1.287 . S
C444 C445 1.524 . S
C444 H463 0.913 . S
C445 H421 0.950 . S
C445 C444 1.524 . S
C445 C446 1.415 . S
C446 H422 0.950 . S
C446 C441 1.363 . S
C446 C445 1.415 . S
C447 H423 0.951 . S
C447 C448 1.366 . S
C447 C449 1.388 . S
C448 C447 1.366 . S
C448 C452 1.385 . S
C449 H424 0.951 . S
C449 C447 1.388 . S
C449 C450 1.366 . S
C450 C449 1.366 . S
C450 C451 1.414 . S
C450 C453 1.499 . S
C451 H425 0.950 . S
C451 C450 1.414 . S
C451 C452 1.374 . S
C452 H426 0.950 . S
C452 C448 1.385 . S
C452 C451 1.374 . S
C453 C450 1.499 . S
C453 C454 1.373 1_456 S
C453 C455 1.389 1_565 S
C454 H427 0.950 . S
C454 C440 1.377 . S
C454 C453 1.373 1_654 S
C455 C439 1.392 . S
C455 C453 1.389 1_545 S
C455 C456 1.524 . S
C456 C455 1.524 . S
C456 C457 1.397 . S
C456 C461 1.363 . S
C457 H428 0.950 . S
C457 C456 1.397 . S
C457 C458 1.334 . S
C458 H429 0.950 . S
C458 C457 1.334 . S
C458 C459 1.287 . S
C459 C458 1.287 . S
C459 C460 1.524 . S
C459 H462 0.999 . S
C460 H430 0.950 . S
C460 C459 1.524 . S
C460 C461 1.415 . S
C461 H431 0.950 . S
C461 C456 1.363 . S
C461 C460 1.415 . S
H462 C459 0.999 . S
H463 C444 0.913 . S
H464 C482 0.951 . S
H465 C484 0.951 . S
H466 C486 0.950 . S
H467 C487 0.950 . S
H468 C489 0.950 . S
H469 C492 0.950 . S
H470 C493 0.950 . S
H471 C495 0.950 . S
H472 C496 0.950 . S
H473 C497 0.951 . S
H474 C499 0.951 . S
H475 C501 0.950 . S
H476 C502 0.950 . S
H477 C504 0.950 . S
H478 C507 0.950 . S
H479 C508 0.950 . S
H480 C510 0.950 1_556 S
H481 C511 0.950 . S
C482 H464 0.951 . S
C482 C483 1.366 . S
C482 C484 1.388 . S
C483 C482 1.366 . S
C483 C487 1.385 . S
C484 H465 0.951 . S
C484 C482 1.388 . S
C484 C485 1.366 . S
C485 C484 1.366 . S
C485 C486 1.414 . S
C485 C488 1.499 . S
C486 H466 0.950 . S
C486 C485 1.414 . S
C486 C487 1.374 . S
C487 H467 0.950 . S
C487 C483 1.385 . S
C487 C486 1.374 . S
C488 C485 1.499 . S
C488 C489 1.373 . S
C488 C490 1.389 . S
C489 H468 0.950 . S
C489 C488 1.373 . S
C489 C505 1.377 . S
C490 C488 1.389 . S
C490 C491 1.524 . S
C490 C504 1.377 . S
C491 C490 1.524 . S
C491 C492 1.397 . S
C491 C496 1.363 . S
C492 H469 0.950 . S
C492 C491 1.397 . S
C492 C493 1.334 . S
C493 H470 0.950 . S
C493 C492 1.334 . S
C493 C494 1.287 . S
C494 C493 1.287 . S
C494 C495 1.524 . S
C494 H513 0.913 . S
C495 H471 0.950 . S
C495 C494 1.524 . S
C495 C496 1.415 . S
C496 H472 0.950 . S
C496 C491 1.363 . S
C496 C495 1.415 . S
C497 H473 0.951 . S
C497 C498 1.366 . S
C497 C499 1.388 . S
C498 C497 1.366 . S
C498 C502 1.385 . S
C499 H474 0.951 . S
C499 C497 1.388 . S
C499 C500 1.366 . S
C500 C499 1.366 . S
C500 C501 1.414 . S
C500 C503 1.499 . S
C501 H475 0.950 . S
C501 C500 1.414 . S
C501 C502 1.374 . S
C502 H476 0.950 . S
C502 C498 1.385 . S
C502 C501 1.374 . S
C503 C500 1.499 . S
C503 C504 1.373 . S
C503 C505 1.389 . S
C504 H477 0.950 . S
C504 C490 1.377 . S
C504 C503 1.373 . S
C505 C489 1.377 . S
C505 C503 1.389 . S
C505 C506 1.524 . S
C506 C505 1.524 . S
C506 C507 1.397 . S
C506 C511 1.363 . S
C507 H478 0.950 . S
C507 C506 1.397 . S
C507 C508 1.334 . S
C508 H479 0.950 . S
C508 C507 1.334 . S
C508 C509 1.287 . S
C509 C508 1.287 . S
C509 C510 1.524 . S
C509 H512 0.999 . S
C510 H480 0.950 1_554 S
C510 C509 1.524 . S
C510 C511 1.415 . S
C511 H481 0.950 . S
C511 C506 1.363 . S
C511 C510 1.415 . S
H512 C509 0.999 . S
H513 C494 0.913 . S
H514 C532 0.951 . S
H515 C534 0.951 . S
H516 C536 0.950 . S
H517 C537 0.950 . S
H518 C539 0.950 . S
H519 C542 0.950 . S
H520 C543 0.950 . S
H521 C545 0.950 . S
H522 C546 0.950 . S
H523 C547 0.951 . S
H524 C549 0.951 . S
H525 C551 0.950 . S
H526 C552 0.950 . S
H527 C554 0.950 . S
H528 C557 0.950 . S
H529 C558 0.950 . S
H530 C560 0.950 . S
H531 C561 0.950 . S
C532 H514 0.951 . S
C532 C533 1.366 . S
C532 C534 1.388 . S
C533 C532 1.366 . S
C533 C537 1.385 . S
C534 H515 0.951 . S
C534 C532 1.388 . S
C534 C535 1.366 . S
C535 C534 1.366 . S
C535 C536 1.414 . S
C535 C538 1.499 . S
C536 H516 0.950 . S
C536 C535 1.414 . S
C536 C537 1.374 . S
C537 H517 0.950 . S
C537 C533 1.385 . S
C537 C536 1.374 . S
C538 C535 1.499 . S
C538 C539 1.373 . S
C538 C540 1.389 . S
C539 H518 0.950 . S
C539 C538 1.373 . S
C539 C555 1.377 . S
C540 C538 1.389 . S
C540 C541 1.524 . S
C540 C554 1.377 . S
C541 C540 1.524 . S
C541 C542 1.397 . S
C541 C546 1.363 . S
C542 H519 0.950 . S
C542 C541 1.397 . S
C542 C543 1.334 . S
C543 H520 0.950 . S
C543 C542 1.334 . S
C543 C544 1.287 . S
C544 C543 1.287 . S
C544 C545 1.524 . S
C544 H563 0.913 . S
C545 H521 0.950 . S
C545 C544 1.524 . S
C545 C546 1.415 . S
C546 H522 0.950 . S
C546 C541 1.363 . S
C546 C545 1.415 . S
C547 H523 0.951 . S
C547 C548 1.366 . S
C547 C549 1.388 . S
C548 C547 1.366 . S
C548 C552 1.385 . S
C549 H524 0.951 . S
C549 C547 1.388 . S
C549 C550 1.366 . S
C550 C549 1.366 . S
C550 C551 1.414 . S
C550 C553 1.499 . S
C551 H525 0.950 . S
C551 C550 1.414 . S
C551 C552 1.374 . S
C552 H526 0.950 . S
C552 C548 1.385 . S
C552 C551 1.374 . S
C553 C550 1.499 . S
C553 C554 1.373 . S
C553 C555 1.389 . S
C554 H527 0.950 . S
C554 C540 1.377 . S
C554 C553 1.373 . S
C555 C539 1.377 . S
C555 C553 1.389 . S
C555 C556 1.524 . S
C556 C555 1.524 . S
C556 C557 1.397 . S
C556 C561 1.363 . S
C557 H528 0.950 . S
C557 C556 1.397 . S
C557 C558 1.334 . S
C558 H529 0.950 . S
C558 C557 1.334 . S
C558 C559 1.287 . S
C559 C558 1.287 . S
C559 C560 1.524 . S
C559 H562 0.999 . S
C560 H530 0.950 . S
C560 C559 1.524 . S
C560 C561 1.415 . S
C561 H531 0.950 . S
C561 C556 1.363 . S
C561 C560 1.415 . S
H562 C559 0.999 . S
H563 C544 0.913 . S
H564 C582 0.951 . S
H565 C584 0.951 . S
H566 C586 0.950 . S
H567 C587 0.950 . S
H568 C589 0.950 . S
H569 C592 0.950 . S
H570 C593 0.950 . S
H571 C595 0.950 . S
H572 C596 0.950 . S
H573 C597 0.951 . S
H574 C599 0.951 . S
H575 C601 0.950 . S
H576 C602 0.950 . S
H577 C604 0.950 . S
H578 C607 0.950 . S
H579 C608 0.950 . S
H580 C610 0.950 . S
H581 C611 0.950 . S
C582 H564 0.951 . S
C582 C583 1.366 . S
C582 C584 1.388 . S
C583 C582 1.366 . S
C583 C587 1.385 . S
C584 H565 0.951 . S
C584 C582 1.388 . S
C584 C585 1.366 . S
C585 C584 1.366 . S
C585 C586 1.414 . S
C585 C588 1.499 . S
C586 H566 0.950 . S
C586 C585 1.414 . S
C586 C587 1.374 . S
C587 H567 0.950 . S
C587 C583 1.385 . S
C587 C586 1.374 . S
C588 C585 1.499 . S
C588 C589 1.373 . S
C588 C590 1.389 . S
C589 H568 0.950 . S
C589 C588 1.373 . S
C589 C605 1.377 . S
C590 C588 1.389 . S
C590 C591 1.524 . S
C590 C604 1.377 . S
C591 C590 1.524 . S
C591 C592 1.397 . S
C591 C596 1.363 . S
C592 H569 0.950 . S
C592 C591 1.397 . S
C592 C593 1.334 . S
C593 H570 0.950 . S
C593 C592 1.334 . S
C593 C594 1.287 . S
C594 C593 1.287 . S
C594 C595 1.524 . S
C594 H613 0.913 . S
C595 H571 0.950 . S
C595 C594 1.524 . S
C595 C596 1.415 . S
C596 H572 0.950 . S
C596 C591 1.363 . S
C596 C595 1.415 . S
C597 H573 0.951 . S
C597 C598 1.366 . S
C597 C599 1.388 . S
C598 C597 1.366 . S
C598 C602 1.385 . S
C599 H574 0.951 . S
C599 C597 1.388 . S
C599 C600 1.366 . S
C600 C599 1.366 . S
C600 C601 1.414 . S
C600 C603 1.499 . S
C601 H575 0.950 . S
C601 C600 1.414 . S
C601 C602 1.374 . S
C602 H576 0.950 . S
C602 C598 1.385 . S
C602 C601 1.374 . S
C603 C600 1.499 . S
C603 C604 1.373 . S
C603 C605 1.389 . S
C604 H577 0.950 . S
C604 C590 1.377 . S
C604 C603 1.373 . S
C605 C589 1.377 . S
C605 C603 1.389 . S
C605 C606 1.524 . S
C606 C605 1.524 . S
C606 C607 1.397 . S
C606 C611 1.363 . S
C607 H578 0.950 . S
C607 C606 1.397 . S
C607 C608 1.334 . S
C608 H579 0.950 . S
C608 C607 1.334 . S
C608 C609 1.287 . S
C609 C608 1.287 . S
C609 C610 1.524 . S
C609 H612 0.999 . S
C610 H580 0.950 . S
C610 C609 1.524 . S
C610 C611 1.415 . S
C611 H581 0.950 . S
C611 C606 1.363 . S
C611 C610 1.415 . S
H612 C609 0.999 . S
H613 C594 0.913 . S
H614 C632 0.951 . S
H615 C634 0.951 . S
H616 C636 0.950 . S
H617 C637 0.950 . S
H618 C639 0.950 . S
H619 C642 0.950 . S
H620 C643 0.950 . S
H621 C645 0.950 . S
H622 C646 0.950 . S
H623 C647 0.951 . S
H624 C649 0.951 . S
H625 C651 0.950 . S
H626 C652 0.950 . S
H627 C654 0.950 . S
H628 C657 0.950 . S
H629 C658 0.950 . S
H630 C660 0.950 . S
H631 C661 0.950 . S
C632 H614 0.951 . S
C632 C633 1.366 . S
C632 C634 1.388 . S
C633 C632 1.366 . S
C633 C637 1.385 . S
C634 H615 0.951 . S
C634 C632 1.388 . S
C634 C635 1.366 . S
C635 C634 1.366 . S
C635 C636 1.414 . S
C635 C638 1.499 . S
C636 H616 0.950 . S
C636 C635 1.414 . S
C636 C637 1.374 . S
C637 H617 0.950 . S
C637 C633 1.385 . S
C637 C636 1.374 . S
C638 C635 1.499 . S
C638 C639 1.373 . S
C638 C640 1.389 . S
C639 H618 0.950 . S
C639 C638 1.373 . S
C639 C655 1.377 . S
C640 C638 1.389 . S
C640 C641 1.524 . S
C640 C654 1.377 . S
C641 C640 1.524 . S
C641 C642 1.397 . S
C641 C646 1.363 . S
C642 H619 0.950 . S
C642 C641 1.397 . S
C642 C643 1.334 . S
C643 H620 0.950 . S
C643 C642 1.334 . S
C643 C644 1.287 . S
C644 C643 1.287 . S
C644 C645 1.524 . S
C644 H663 0.913 . S
C645 H621 0.950 . S
C645 C644 1.524 . S
C645 C646 1.415 . S
C646 H622 0.950 . S
C646 C641 1.363 . S
C646 C645 1.415 . S
C647 H623 0.951 . S
C647 C648 1.366 . S
C647 C649 1.388 . S
C648 C647 1.366 . S
C648 C652 1.385 . S
C649 H624 0.951 . S
C649 C647 1.388 . S
C649 C650 1.366 . S
C650 C649 1.366 . S
C650 C651 1.414 . S
C650 C653 1.499 . S
C651 H625 0.950 . S
C651 C650 1.414 . S
C651 C652 1.374 . S
C652 H626 0.950 . S
C652 C648 1.385 . S
C652 C651 1.374 . S
C653 C650 1.499 . S
C653 C654 1.373 . S
C653 C655 1.389 . S
C654 H627 0.950 . S
C654 C640 1.377 . S
C654 C653 1.373 . S
C655 C639 1.377 . S
C655 C653 1.389 . S
C655 C656 1.524 . S
C656 C655 1.524 . S
C656 C657 1.397 . S
C656 C661 1.363 . S
C657 H628 0.950 . S
C657 C656 1.397 . S
C657 C658 1.334 . S
C658 H629 0.950 . S
C658 C657 1.334 . S
C658 C659 1.287 . S
C659 C658 1.287 . S
C659 C660 1.524 . S
C659 H662 0.999 . S
C660 H630 0.950 . S
C660 C659 1.524 . S
C660 C661 1.415 . S
C661 H631 0.950 . S
C661 C656 1.363 . S
C661 C660 1.415 . S
H662 C659 0.999 . S
H663 C644 0.913 . S
H664 C682 0.951 . S
H665 C684 0.951 . S
H666 C686 0.950 . S
H667 C687 0.950 . S
H668 C689 0.950 . S
H669 C692 0.950 . S
H670 C693 0.950 . S
H671 C695 0.950 . S
H672 C696 0.950 . S
H673 C697 0.951 . S
H674 C699 0.951 . S
H675 C701 0.950 . S
H676 C702 0.950 . S
H677 C704 0.950 . S
H678 C707 0.950 . S
H679 C708 0.950 . S
H680 C710 0.950 . S
H681 C711 0.950 . S
C682 H664 0.951 . S
C682 C683 1.366 . S
C682 C684 1.388 . S
C683 C682 1.366 . S
C683 C687 1.385 . S
C684 H665 0.951 . S
C684 C682 1.388 . S
C684 C685 1.366 . S
C685 C684 1.366 . S
C685 C686 1.414 . S
C685 C688 1.499 . S
C686 H666 0.950 . S
C686 C685 1.414 . S
C686 C687 1.374 . S
C687 H667 0.950 . S
C687 C683 1.385 . S
C687 C686 1.374 . S
C688 C685 1.499 . S
C688 C689 1.373 . S
C688 C690 1.389 . S
C689 H668 0.950 . S
C689 C688 1.373 . S
C689 C705 1.377 . S
C690 C688 1.389 . S
C690 C691 1.524 . S
C690 C704 1.377 . S
C691 C690 1.524 . S
C691 C692 1.397 . S
C691 C696 1.363 . S
C692 H669 0.950 . S
C692 C691 1.397 . S
C692 C693 1.334 . S
C693 H670 0.950 . S
C693 C692 1.334 . S
C693 C694 1.287 . S
C694 C693 1.287 . S
C694 C695 1.524 . S
C694 H713 0.913 . S
C695 H671 0.950 . S
C695 C694 1.524 . S
C695 C696 1.415 . S
C696 H672 0.950 . S
C696 C691 1.363 . S
C696 C695 1.415 . S
C697 H673 0.951 . S
C697 C698 1.366 . S
C697 C699 1.388 . S
C698 C697 1.366 . S
C698 C702 1.385 . S
C699 H674 0.951 . S
C699 C697 1.388 . S
C699 C700 1.366 . S
C700 C699 1.366 . S
C700 C701 1.414 . S
C700 C703 1.499 . S
C701 H675 0.950 . S
C701 C700 1.414 . S
C701 C702 1.374 . S
C702 H676 0.950 . S
C702 C698 1.385 . S
C702 C701 1.374 . S
C703 C700 1.499 . S
C703 C704 1.373 . S
C703 C705 1.389 . S
C704 H677 0.950 . S
C704 C690 1.377 . S
C704 C703 1.373 . S
C705 C689 1.377 . S
C705 C703 1.389 . S
C705 C706 1.524 . S
C706 C705 1.524 . S
C706 C707 1.397 . S
C706 C711 1.363 . S
C707 H678 0.950 . S
C707 C706 1.397 . S
C707 C708 1.334 . S
C708 H679 0.950 . S
C708 C707 1.334 . S
C708 C709 1.287 . S
C709 C708 1.287 . S
C709 C710 1.524 . S
C709 H712 0.999 . S
C710 H680 0.950 . S
C710 C709 1.524 . S
C710 C711 1.415 . S
C711 H681 0.950 . S
C711 C706 1.363 . S
C711 C710 1.415 . S
H712 C709 0.999 . S
H713 C694 0.913 . S
H714 C732 0.951 . S
H715 C734 0.951 . S
H716 C736 0.950 . S
H717 C737 0.950 . S
H718 C739 0.950 . S
H719 C742 0.950 . S
H720 C743 0.950 . S
H721 C745 0.950 . S
H722 C746 0.950 . S
H723 C747 0.951 . S
H724 C749 0.951 . S
H725 C751 0.950 . S
H726 C752 0.950 . S
H727 C754 0.950 . S
H728 C757 0.950 . S
H729 C758 0.950 . S
H730 C760 0.950 . S
H731 C761 0.950 . S
C732 H714 0.951 . S
C732 C733 1.366 . S
C732 C734 1.388 . S
C733 C732 1.366 . S
C733 C737 1.385 . S
C734 H715 0.951 . S
C734 C732 1.388 . S
C734 C735 1.366 . S
C735 C734 1.366 . S
C735 C736 1.414 . S
C735 C738 1.499 . S
C736 H716 0.950 . S
C736 C735 1.414 . S
C736 C737 1.374 . S
C737 H717 0.950 . S
C737 C733 1.385 . S
C737 C736 1.374 . S
C738 C735 1.499 . S
C738 C739 1.373 . S
C738 C740 1.389 . S
C739 H718 0.950 . S
C739 C738 1.373 . S
C739 C755 1.377 . S
C740 C738 1.389 . S
C740 C741 1.524 . S
C740 C754 1.377 . S
C741 C740 1.524 . S
C741 C742 1.397 . S
C741 C746 1.363 . S
C742 H719 0.950 . S
C742 C741 1.397 . S
C742 C743 1.334 . S
C743 H720 0.950 . S
C743 C742 1.334 . S
C743 C744 1.287 . S
C744 C743 1.287 . S
C744 C745 1.524 . S
C744 H763 0.913 . S
C745 H721 0.950 . S
C745 C744 1.524 . S
C745 C746 1.415 . S
C746 H722 0.950 . S
C746 C741 1.363 . S
C746 C745 1.415 . S
C747 H723 0.951 . S
C747 C748 1.366 . S
C747 C749 1.388 . S
C748 C747 1.366 . S
C748 C752 1.385 . S
C749 H724 0.951 . S
C749 C747 1.388 . S
C749 C750 1.366 . S
C750 C749 1.366 . S
C750 C751 1.414 . S
C750 C753 1.499 . S
C751 H725 0.950 . S
C751 C750 1.414 . S
C751 C752 1.374 . S
C752 H726 0.950 . S
C752 C748 1.385 . S
C752 C751 1.374 . S
C753 C750 1.499 . S
C753 C754 1.373 . S
C753 C755 1.389 . S
C754 H727 0.950 . S
C754 C740 1.377 . S
C754 C753 1.373 . S
C755 C739 1.377 . S
C755 C753 1.389 . S
C755 C756 1.524 . S
C756 C755 1.524 . S
C756 C757 1.397 . S
C756 C761 1.363 . S
C757 H728 0.950 . S
C757 C756 1.397 . S
C757 C758 1.334 . S
C758 H729 0.950 . S
C758 C757 1.334 . S
C758 C759 1.287 . S
C759 C758 1.287 . S
C759 C760 1.524 . S
C759 H762 0.999 . S
C760 H730 0.950 . S
C760 C759 1.524 . S
C760 C761 1.415 . S
C761 H731 0.950 . S
C761 C756 1.363 . S
C761 C760 1.415 . S
H762 C759 0.999 . S
H763 C744 0.913 . S
H764 C782 0.951 . S
H765 C784 0.951 . S
H766 C786 0.950 . S
H767 C787 0.950 . S
H768 C789 0.950 . S
H769 C792 0.950 . S
H770 C793 0.950 . S
H771 C795 0.950 1_554 S
H772 C796 0.950 . S
H773 C797 0.951 . S
H774 C799 0.951 . S
H775 C801 0.950 . S
H776 C802 0.950 . S
H777 C804 0.950 . S
H778 C807 0.950 . S
H779 C808 0.950 . S
H780 C810 0.950 . S
H781 C811 0.950 . S
C782 H764 0.951 . S
C782 C783 1.366 . S
C782 C784 1.388 . S
C783 C782 1.366 . S
C783 C787 1.385 . S
C784 H765 0.951 . S
C784 C782 1.388 . S
C784 C785 1.366 . S
C785 C784 1.366 . S
C785 C786 1.414 . S
C785 C788 1.499 . S
C786 H766 0.950 . S
C786 C785 1.414 . S
C786 C787 1.374 . S
C787 H767 0.950 . S
C787 C783 1.385 . S
C787 C786 1.374 . S
C788 C785 1.499 . S
C788 C789 1.373 . S
C788 C790 1.389 . S
C789 H768 0.950 . S
C789 C788 1.373 . S
C789 C805 1.377 . S
C790 C788 1.389 . S
C790 C791 1.524 . S
C790 C804 1.377 . S
C791 C790 1.524 . S
C791 C792 1.397 . S
C791 C796 1.363 . S
C792 H769 0.950 . S
C792 C791 1.397 . S
C792 C793 1.334 . S
C793 H770 0.950 . S
C793 C792 1.334 . S
C793 C794 1.287 . S
C794 C793 1.287 . S
C794 C795 1.524 . S
C794 H813 0.913 . S
C795 H771 0.950 1_556 S
C795 C794 1.524 . S
C795 C796 1.415 . S
C796 H772 0.950 . S
C796 C791 1.363 . S
C796 C795 1.415 . S
C797 H773 0.951 . S
C797 C798 1.366 . S
C797 C799 1.388 . S
C798 C797 1.366 . S
C798 C802 1.385 . S
C799 H774 0.951 . S
C799 C797 1.388 . S
C799 C800 1.366 . S
C800 C799 1.366 . S
C800 C801 1.414 . S
C800 C803 1.499 . S
C801 H775 0.950 . S
C801 C800 1.414 . S
C801 C802 1.374 . S
C802 H776 0.950 . S
C802 C798 1.385 . S
C802 C801 1.374 . S
C803 C800 1.499 . S
C803 C804 1.373 . S
C803 C805 1.389 . S
C804 H777 0.950 . S
C804 C790 1.377 . S
C804 C803 1.373 . S
C805 C789 1.377 . S
C805 C803 1.389 . S
C805 C806 1.524 . S
C806 C805 1.524 . S
C806 C807 1.397 . S
C806 C811 1.363 . S
C807 H778 0.950 . S
C807 C806 1.397 . S
C807 C808 1.334 . S
C808 H779 0.950 . S
C808 C807 1.334 . S
C808 C809 1.287 . S
C809 C808 1.287 . S
C809 C810 1.524 . S
C809 H812 0.999 . S
C810 H780 0.950 . S
C810 C809 1.524 . S
C810 C811 1.415 . S
C811 H781 0.950 . S
C811 C806 1.363 . S
C811 C810 1.415 . S
H812 C809 0.999 . S
H813 C794 0.913 . S
H814 C832 0.951 . S
H815 C834 0.951 . S
H816 C836 0.950 . S
H817 C837 0.950 . S
H818 C839 0.950 . S
H819 C842 0.950 . S
H820 C843 0.950 . S
H821 C845 0.950 . S
H822 C846 0.950 . S
H823 C847 0.951 . S
H824 C849 0.951 . S
H825 C851 0.950 . S
H826 C852 0.950 . S
H827 C854 0.950 . S
H828 C857 0.950 . S
H829 C858 0.950 . S
H830 C860 0.950 . S
H831 C861 0.950 . S
C832 H814 0.951 . S
C832 C833 1.366 . S
C832 C834 1.388 . S
C833 C832 1.366 . S
C833 C837 1.385 . S
C834 H815 0.951 . S
C834 C832 1.388 . S
C834 C835 1.366 . S
C835 C834 1.366 . S
C835 C836 1.414 . S
C835 C838 1.499 . S
C836 H816 0.950 . S
C836 C835 1.414 . S
C836 C837 1.374 . S
C837 H817 0.950 . S
C837 C833 1.385 . S
C837 C836 1.374 . S
C838 C835 1.499 . S
C838 C839 1.373 . S
C838 C840 1.389 . S
C839 H818 0.950 . S
C839 C838 1.373 . S
C839 C855 1.377 . S
C840 C838 1.389 . S
C840 C841 1.524 . S
C840 C854 1.377 . S
C841 C840 1.524 . S
C841 C842 1.397 . S
C841 C846 1.363 . S
C842 H819 0.950 . S
C842 C841 1.397 . S
C842 C843 1.334 . S
C843 H820 0.950 . S
C843 C842 1.334 . S
C843 C844 1.287 . S
C844 C843 1.287 . S
C844 C845 1.524 . S
C844 H863 0.913 . S
C845 H821 0.950 . S
C845 C844 1.524 . S
C845 C846 1.415 . S
C846 H822 0.950 . S
C846 C841 1.363 . S
C846 C845 1.415 . S
C847 H823 0.951 . S
C847 C848 1.366 . S
C847 C849 1.388 . S
C848 C847 1.366 . S
C848 C852 1.385 . S
C849 H824 0.951 . S
C849 C847 1.388 . S
C849 C850 1.366 . S
C850 C849 1.366 . S
C850 C851 1.414 . S
C850 C853 1.499 . S
C851 H825 0.950 . S
C851 C850 1.414 . S
C851 C852 1.374 . S
C852 H826 0.950 . S
C852 C848 1.385 . S
C852 C851 1.374 . S
C853 C850 1.499 . S
C853 C854 1.373 . S
C853 C855 1.389 . S
C854 H827 0.950 . S
C854 C840 1.377 . S
C854 C853 1.373 . S
C855 C839 1.377 . S
C855 C853 1.389 . S
C855 C856 1.524 . S
C856 C855 1.524 . S
C856 C857 1.397 . S
C856 C861 1.363 . S
C857 H828 0.950 . S
C857 C856 1.397 . S
C857 C858 1.334 . S
C858 H829 0.950 . S
C858 C857 1.334 . S
C858 C859 1.287 . S
C859 C858 1.287 . S
C859 C860 1.524 . S
C859 H862 0.999 1_545 S
C860 H830 0.950 . S
C860 C859 1.524 . S
C860 C861 1.415 . S
C861 H831 0.950 . S
C861 C856 1.363 . S
C861 C860 1.415 . S
H862 C859 0.999 1_565 S
H863 C844 0.913 . S
H864 C882 0.951 . S
H865 C884 0.951 . S
H866 C886 0.950 . S
H867 C887 0.950 . S
H868 C889 0.950 . S
H869 C892 0.950 . S
H870 C893 0.950 . S
H871 C895 0.950 . S
H872 C896 0.950 . S
H873 C897 0.951 . S
H874 C899 0.951 . S
H875 C901 0.950 . S
H876 C902 0.950 . S
H877 C904 0.950 . S
H878 C907 0.950 . S
H879 C908 0.950 . S
H880 C910 0.950 . S
H881 C911 0.950 . S
C882 H864 0.951 . S
C882 C883 1.366 . S
C882 C884 1.388 . S
C883 C882 1.366 . S
C883 C887 1.385 . S
C884 H865 0.951 . S
C884 C882 1.388 . S
C884 C885 1.366 . S
C885 C884 1.366 . S
C885 C886 1.414 . S
C885 C888 1.499 . S
C886 H866 0.950 . S
C886 C885 1.414 . S
C886 C887 1.374 . S
C887 H867 0.950 . S
C887 C883 1.385 . S
C887 C886 1.374 . S
C888 C885 1.499 . S
C888 C889 1.373 . S
C888 C890 1.389 . S
C889 H868 0.950 . S
C889 C888 1.373 . S
C889 C905 1.377 . S
C890 C888 1.389 . S
C890 C891 1.524 . S
C890 C904 1.377 . S
C891 C890 1.524 . S
C891 C892 1.397 . S
C891 C896 1.363 . S
C892 H869 0.950 . S
C892 C891 1.397 . S
C892 C893 1.334 . S
C893 H870 0.950 . S
C893 C892 1.334 . S
C893 C894 1.287 . S
C894 C893 1.287 . S
C894 C895 1.524 . S
C894 H913 0.913 . S
C895 H871 0.950 . S
C895 C894 1.524 . S
C895 C896 1.415 . S
C896 H872 0.950 . S
C896 C891 1.363 . S
C896 C895 1.415 . S
C897 H873 0.951 . S
C897 C898 1.366 . S
C897 C899 1.388 1_554 S
C898 C897 1.366 . S
C898 C902 1.385 . S
C899 H874 0.951 . S
C899 C897 1.388 1_556 S
C899 C900 1.366 . S
C900 C899 1.366 . S
C900 C901 1.414 . S
C900 C903 1.499 . S
C901 H875 0.950 . S
C901 C900 1.414 . S
C901 C902 1.374 1_556 S
C902 H876 0.950 . S
C902 C898 1.385 . S
C902 C901 1.374 1_554 S
C903 C900 1.499 . S
C903 C904 1.373 . S
C903 C905 1.389 . S
C904 H877 0.950 . S
C904 C890 1.377 . S
C904 C903 1.373 . S
C905 C889 1.377 . S
C905 C903 1.389 . S
C905 C906 1.524 . S
C906 C905 1.524 . S
C906 C907 1.397 . S
C906 C911 1.363 . S
C907 H878 0.950 . S
C907 C906 1.397 . S
C907 C908 1.334 . S
C908 H879 0.950 . S
C908 C907 1.334 . S
C908 C909 1.287 . S
C909 C908 1.287 . S
C909 C910 1.524 . S
C909 H912 0.999 . S
C910 H880 0.950 . S
C910 C909 1.524 . S
C910 C911 1.415 . S
C911 H881 0.950 . S
C911 C906 1.363 . S
C911 C910 1.415 . S
H912 C909 0.999 . S
H913 C894 0.913 . S
H914 C932 0.951 . S
H915 C934 0.951 . S
H916 C936 0.950 . S
H917 C937 0.950 . S
H918 C939 0.950 . S
H919 C942 0.950 . S
H920 C943 0.950 . S
H921 C945 0.950 . S
H922 C946 0.950 . S
H923 C947 0.951 . S
H924 C949 0.951 . S
H925 C951 0.950 . S
H926 C952 0.950 . S
H927 C954 0.950 . S
H928 C957 0.950 . S
H929 C958 0.950 . S
H930 C960 0.950 . S
H931 C961 0.950 . S
C932 H914 0.951 . S
C932 C933 1.366 . S
C932 C934 1.388 . S
C933 C932 1.366 . S
C933 C937 1.385 . S
C934 H915 0.951 . S
C934 C932 1.388 . S
C934 C935 1.366 . S
C935 C934 1.366 . S
C935 C936 1.414 . S
C935 C938 1.499 . S
C936 H916 0.950 . S
C936 C935 1.414 . S
C936 C937 1.374 . S
C937 H917 0.950 . S
C937 C933 1.385 . S
C937 C936 1.374 . S
C938 C935 1.499 . S
C938 C939 1.373 . S
C938 C940 1.389 . S
C939 H918 0.950 . S
C939 C938 1.373 . S
C939 C955 1.377 . S
C940 C938 1.389 . S
C940 C941 1.524 . S
C940 C954 1.377 . S
C941 C940 1.524 . S
C941 C942 1.397 . S
C941 C946 1.363 . S
C942 H919 0.950 . S
C942 C941 1.397 . S
C942 C943 1.334 . S
C943 H920 0.950 . S
C943 C942 1.334 . S
C943 C944 1.287 . S
C944 C943 1.287 . S
C944 C945 1.524 . S
C944 H963 0.913 . S
C945 H921 0.950 . S
C945 C944 1.524 . S
C945 C946 1.415 . S
C946 H922 0.950 . S
C946 C941 1.363 . S
C946 C945 1.415 . S
C947 H923 0.951 . S
C947 C948 1.366 . S
C947 C949 1.388 . S
C948 C947 1.366 . S
C948 C952 1.385 . S
C949 H924 0.951 . S
C949 C947 1.388 . S
C949 C950 1.366 . S
C950 C949 1.366 . S
C950 C951 1.414 . S
C950 C953 1.499 . S
C951 H925 0.950 . S
C951 C950 1.414 . S
C951 C952 1.374 . S
C952 H926 0.950 . S
C952 C948 1.385 . S
C952 C951 1.374 . S
C953 C950 1.499 . S
C953 C954 1.373 . S
C953 C955 1.389 . S
C954 H927 0.950 . S
C954 C940 1.377 . S
C954 C953 1.373 . S
C955 C939 1.377 . S
C955 C953 1.389 . S
C955 C956 1.524 . S
C956 C955 1.524 . S
C956 C957 1.397 . S
C956 C961 1.363 . S
C957 H928 0.950 . S
C957 C956 1.397 . S
C957 C958 1.334 . S
C958 H929 0.950 . S
C958 C957 1.334 . S
C958 C959 1.287 . S
C959 C958 1.287 . S
C959 C960 1.524 . S
C959 H962 0.999 . S
C960 H930 0.950 . S
C960 C959 1.524 . S
C960 C961 1.415 . S
C961 H931 0.950 . S
C961 C956 1.363 . S
C961 C960 1.415 . S
H962 C959 0.999 . S
H963 C944 0.913 . S
H964 C982 0.951 . S
H965 C984 0.951 . S
H966 C986 0.950 . S
H967 C987 0.950 . S
H968 C989 0.950 . S
H969 C992 0.950 . S
H970 C993 0.950 . S
H971 C995 0.950 . S
H972 C996 0.950 . S
H973 C997 0.951 . S
H974 C999 0.951 . S
H975 C1001 0.950 . S
H976 C1002 0.950 . S
H977 C1004 0.950 . S
H978 C1007 0.950 . S
H979 C1008 0.950 . S
H980 C1010 0.950 . S
H981 C1011 0.950 . S
C982 H964 0.951 . S
C982 C983 1.366 . S
C982 C984 1.388 1_554 S
C983 C982 1.366 . S
C983 C987 1.385 . S
C984 H965 0.951 . S
C984 C982 1.388 1_556 S
C984 C985 1.366 . S
C985 C984 1.366 . S
C985 C986 1.414 . S
C985 C988 1.499 . S
C986 H966 0.950 . S
C986 C985 1.414 . S
C986 C987 1.374 1_556 S
C987 H967 0.950 . S
C987 C983 1.385 . S
C987 C986 1.374 1_554 S
C988 C985 1.499 . S
C988 C989 1.373 . S
C988 C990 1.389 . S
C989 H968 0.950 . S
C989 C988 1.373 . S
C989 C1005 1.377 . S
C990 C988 1.389 . S
C990 C991 1.524 . S
C990 C1004 1.377 . S
C991 C990 1.524 . S
C991 C992 1.397 . S
C991 C996 1.363 . S
C992 H969 0.950 . S
C992 C991 1.397 . S
C992 C993 1.334 . S
C993 H970 0.950 . S
C993 C992 1.334 . S
C993 C994 1.287 . S
C994 C993 1.287 . S
C994 C995 1.524 . S
C994 H1013 0.913 . S
C995 H971 0.950 . S
C995 C994 1.524 . S
C995 C996 1.415 . S
C996 H972 0.950 . S
C996 C991 1.363 . S
C996 C995 1.415 . S
C997 H973 0.951 . S
C997 C998 1.366 . S
C997 C999 1.388 . S
C998 C997 1.366 . S
C998 C1002 1.385 . S
C999 H974 0.951 . S
C999 C997 1.388 . S
C999 C1000 1.366 . S
C1000 C999 1.366 . S
C1000 C1001 1.414 . S
C1000 C1003 1.499 . S
C1001 H975 0.950 . S
C1001 C1000 1.414 . S
C1001 C1002 1.374 . S
C1002 H976 0.950 . S
C1002 C998 1.385 . S
C1002 C1001 1.374 . S
C1003 C1000 1.499 . S
C1003 C1004 1.373 . S
C1003 C1005 1.389 . S
C1004 H977 0.950 . S
C1004 C990 1.377 . S
C1004 C1003 1.373 . S
C1005 C989 1.377 . S
C1005 C1003 1.389 . S
C1005 C1006 1.524 . S
C1006 C1005 1.524 . S
C1006 C1007 1.397 . S
C1006 C1011 1.363 . S
C1007 H978 0.950 . S
C1007 C1006 1.397 . S
C1007 C1008 1.334 . S
C1008 H979 0.950 . S
C1008 C1007 1.334 . S
C1008 C1009 1.287 . S
C1009 C1008 1.287 . S
C1009 C1010 1.524 . S
C1009 H1012 0.999 . S
C1010 H980 0.950 . S
C1010 C1009 1.524 . S
C1010 C1011 1.415 . S
C1011 H981 0.950 . S
C1011 C1006 1.363 . S
C1011 C1010 1.415 . S
H1012 C1009 0.999 . S
H1013 C994 0.913 . S
H1014 C1032 0.951 . S
H1015 C1034 0.951 . S
H1016 C1036 0.950 . S
H1017 C1037 0.950 . S
H1018 C1039 0.950 . S
H1019 C1042 0.950 . S
H1020 C1043 0.950 . S
H1021 C1045 0.950 . S
H1022 C1046 0.950 . S
H1023 C1047 0.951 . S
H1024 C1049 0.951 . S
H1025 C1051 0.950 . S
H1026 C1052 0.950 . S
H1027 C1054 0.950 . S
H1028 C1057 0.950 . S
H1029 C1058 0.950 . S
H1030 C1060 0.950 . S
H1031 C1061 0.950 . S
C1032 H1014 0.951 . S
C1032 C1033 1.366 . S
C1032 C1034 1.388 . S
C1033 C1032 1.366 . S
C1033 C1037 1.385 . S
C1034 H1015 0.951 . S
C1034 C1032 1.388 . S
C1034 C1035 1.366 . S
C1035 C1034 1.366 . S
C1035 C1036 1.414 . S
C1035 C1038 1.499 . S
C1036 H1016 0.950 . S
C1036 C1035 1.414 . S
C1036 C1037 1.374 . S
C1037 H1017 0.950 . S
C1037 C1033 1.385 . S
C1037 C1036 1.374 . S
C1038 C1035 1.499 . S
C1038 C1039 1.373 . S
C1038 C1040 1.389 . S
C1039 H1018 0.950 . S
C1039 C1038 1.373 . S
C1039 C1055 1.377 . S
C1040 C1038 1.389 . S
C1040 C1041 1.524 . S
C1040 C1054 1.377 . S
C1041 C1040 1.524 . S
C1041 C1042 1.397 . S
C1041 C1046 1.363 . S
C1042 H1019 0.950 . S
C1042 C1041 1.397 . S
C1042 C1043 1.334 . S
C1043 H1020 0.950 . S
C1043 C1042 1.334 . S
C1043 C1044 1.287 . S
C1044 C1043 1.287 . S
C1044 C1045 1.524 . S
C1044 H1063 0.913 . S
C1045 H1021 0.950 . S
C1045 C1044 1.524 . S
C1045 C1046 1.415 . S
C1046 H1022 0.950 . S
C1046 C1041 1.363 . S
C1046 C1045 1.415 . S
C1047 H1023 0.951 . S
C1047 C1048 1.366 . S
C1047 C1049 1.388 . S
C1048 C1047 1.366 . S
C1048 C1052 1.385 . S
C1049 H1024 0.951 . S
C1049 C1047 1.388 . S
C1049 C1050 1.366 . S
C1050 C1049 1.366 . S
C1050 C1051 1.414 . S
C1050 C1053 1.499 . S
C1051 H1025 0.950 . S
C1051 C1050 1.414 . S
C1051 C1052 1.374 . S
C1052 H1026 0.950 . S
C1052 C1048 1.385 . S
C1052 C1051 1.374 . S
C1053 C1050 1.499 . S
C1053 C1054 1.373 . S
C1053 C1055 1.389 . S
C1054 H1027 0.950 . S
C1054 C1040 1.377 . S
C1054 C1053 1.373 . S
C1055 C1039 1.377 . S
C1055 C1053 1.389 . S
C1055 C1056 1.524 . S
C1056 C1055 1.524 . S
C1056 C1057 1.397 . S
C1056 C1061 1.363 . S
C1057 H1028 0.950 . S
C1057 C1056 1.397 . S
C1057 C1058 1.334 . S
C1058 H1029 0.950 . S
C1058 C1057 1.334 . S
C1058 C1059 1.287 . S
C1059 C1058 1.287 . S
C1059 C1060 1.524 . S
C1059 H1062 0.999 . S
C1060 H1030 0.950 . S
C1060 C1059 1.524 . S
C1060 C1061 1.415 . S
C1061 H1031 0.950 . S
C1061 C1056 1.363 . S
C1061 C1060 1.415 . S
H1062 C1059 0.999 . S
H1063 C1044 0.913 . S
H1064 C1082 0.951 . S
H1065 C1084 0.951 . S
H1066 C1086 0.950 . S
H1067 C1087 0.950 . S
H1068 C1089 0.950 . S
H1069 C1092 0.950 . S
H1070 C1093 0.950 . S
H1071 C1095 0.950 . S
H1072 C1096 0.950 . S
H1073 C1097 0.951 . S
H1074 C1099 0.951 . S
H1075 C1101 0.950 . S
H1076 C1102 0.950 . S
H1077 C1104 0.950 . S
H1078 C1107 0.950 . S
H1079 C1108 0.950 . S
H1080 C1110 0.950 . S
H1081 C1111 0.950 . S
C1082 H1064 0.951 . S
C1082 C1083 1.366 . S
C1082 C1084 1.388 . S
C1083 C1082 1.366 . S
C1083 C1087 1.385 . S
C1084 H1065 0.951 . S
C1084 C1082 1.388 . S
C1084 C1085 1.366 . S
C1085 C1084 1.366 . S
C1085 C1086 1.414 . S
C1085 C1088 1.499 . S
C1086 H1066 0.950 . S
C1086 C1085 1.414 . S
C1086 C1087 1.374 . S
C1087 H1067 0.950 . S
C1087 C1083 1.385 . S
C1087 C1086 1.374 . S
C1088 C1085 1.499 . S
C1088 C1089 1.373 . S
C1088 C1090 1.389 . S
C1089 H1068 0.950 . S
C1089 C1088 1.373 . S
C1089 C1105 1.377 . S
C1090 C1088 1.389 . S
C1090 C1091 1.524 . S
C1090 C1104 1.377 . S
C1091 C1090 1.524 . S
C1091 C1092 1.397 . S
C1091 C1096 1.363 . S
C1092 H1069 0.950 . S
C1092 C1091 1.397 . S
C1092 C1093 1.334 . S
C1093 H1070 0.950 . S
C1093 C1092 1.334 . S
C1093 C1094 1.287 . S
C1094 C1093 1.287 . S
C1094 C1095 1.524 . S
C1094 H1113 0.913 . S
C1095 H1071 0.950 . S
C1095 C1094 1.524 . S
C1095 C1096 1.415 . S
C1096 H1072 0.950 . S
C1096 C1091 1.363 . S
C1096 C1095 1.415 . S
C1097 H1073 0.951 . S
C1097 C1098 1.366 . S
C1097 C1099 1.388 . S
C1098 C1097 1.366 . S
C1098 C1102 1.385 . S
C1099 H1074 0.951 . S
C1099 C1097 1.388 . S
C1099 C1100 1.366 . S
C1100 C1099 1.366 . S
C1100 C1101 1.414 . S
C1100 C1103 1.499 . S
C1101 H1075 0.950 . S
C1101 C1100 1.414 . S
C1101 C1102 1.374 . S
C1102 H1076 0.950 . S
C1102 C1098 1.385 . S
C1102 C1101 1.374 . S
C1103 C1100 1.499 . S
C1103 C1104 1.373 . S
C1103 C1105 1.389 . S
C1104 H1077 0.950 . S
C1104 C1090 1.377 . S
C1104 C1103 1.373 . S
C1105 C1089 1.377 . S
C1105 C1103 1.389 . S
C1105 C1106 1.524 . S
C1106 C1105 1.524 . S
C1106 C1107 1.397 . S
C1106 C1111 1.363 . S
C1107 H1078 0.950 . S
C1107 C1106 1.397 . S
C1107 C1108 1.334 . S
C1108 H1079 0.950 . S
C1108 C1107 1.334 . S
C1108 C1109 1.287 . S
C1109 C1108 1.287 . S
C1109 C1110 1.524 . S
C1109 H1112 0.999 . S
C1110 H1080 0.950 . S
C1110 C1109 1.524 . S
C1110 C1111 1.415 . S
C1111 H1081 0.950 . S
C1111 C1106 1.363 . S
C1111 C1110 1.415 . S
H1112 C1109 0.999 . S
H1113 C1094 0.913 . S
H1114 C1132 0.951 . S
H1115 C1134 0.951 . S
H1116 C1136 0.950 . S
H1117 C1137 0.950 . S
H1118 C1139 0.950 . S
H1119 C1142 0.950 . S
H1120 C1143 0.950 . S
H1121 C1145 0.950 . S
H1122 C1146 0.950 . S
H1123 C1147 0.951 . S
H1124 C1149 0.951 . S
H1125 C1151 0.950 . S
H1126 C1152 0.950 . S
H1127 C1154 0.950 . S
H1128 C1157 0.950 . S
H1129 C1158 0.950 . S
H1130 C1160 0.950 . S
H1131 C1161 0.950 . S
C1132 H1114 0.951 . S
C1132 C1133 1.366 . S
C1132 C1134 1.388 1_556 S
C1133 C1132 1.366 . S
C1133 C1137 1.385 . S
C1134 H1115 0.951 . S
C1134 C1132 1.388 1_554 S
C1134 C1135 1.366 . S
C1135 C1134 1.366 . S
C1135 C1136 1.414 . S
C1135 C1138 1.499 . S
C1136 H1116 0.950 . S
C1136 C1135 1.414 . S
C1136 C1137 1.374 1_554 S
C1137 H1117 0.950 . S
C1137 C1133 1.385 . S
C1137 C1136 1.374 1_556 S
C1138 C1135 1.499 . S
C1138 C1139 1.373 . S
C1138 C1140 1.389 . S
C1139 H1118 0.950 . S
C1139 C1138 1.373 . S
C1139 C1155 1.377 . S
C1140 C1138 1.389 . S
C1140 C1141 1.524 . S
C1140 C1154 1.377 . S
C1141 C1140 1.524 . S
C1141 C1142 1.397 . S
C1141 C1146 1.363 . S
C1142 H1119 0.950 . S
C1142 C1141 1.397 . S
C1142 C1143 1.334 . S
C1143 H1120 0.950 . S
C1143 C1142 1.334 . S
C1143 C1144 1.287 . S
C1144 C1143 1.287 . S
C1144 C1145 1.524 . S
C1144 H1163 0.913 . S
C1145 H1121 0.950 . S
C1145 C1144 1.524 . S
C1145 C1146 1.415 . S
C1146 H1122 0.950 . S
C1146 C1141 1.363 . S
C1146 C1145 1.415 . S
C1147 H1123 0.951 . S
C1147 C1148 1.366 . S
C1147 C1149 1.388 . S
C1148 C1147 1.366 . S
C1148 C1152 1.385 . S
C1149 H1124 0.951 . S
C1149 C1147 1.388 . S
C1149 C1150 1.366 . S
C1150 C1149 1.366 . S
C1150 C1151 1.414 . S
C1150 C1153 1.499 . S
C1151 H1125 0.950 . S
C1151 C1150 1.414 . S
C1151 C1152 1.374 . S
C1152 H1126 0.950 . S
C1152 C1148 1.385 . S
C1152 C1151 1.374 . S
C1153 C1150 1.499 . S
C1153 C1154 1.373 . S
C1153 C1155 1.389 . S
C1154 H1127 0.950 . S
C1154 C1140 1.377 . S
C1154 C1153 1.373 . S
C1155 C1139 1.377 . S
C1155 C1153 1.389 . S
C1155 C1156 1.524 . S
C1156 C1155 1.524 . S
C1156 C1157 1.397 . S
C1156 C1161 1.363 . S
C1157 H1128 0.950 . S
C1157 C1156 1.397 . S
C1157 C1158 1.334 . S
C1158 H1129 0.950 . S
C1158 C1157 1.334 . S
C1158 C1159 1.287 . S
C1159 C1158 1.287 . S
C1159 C1160 1.524 . S
C1159 H1162 0.999 . S
C1160 H1130 0.950 . S
C1160 C1159 1.524 . S
C1160 C1161 1.415 . S
C1161 H1131 0.950 . S
C1161 C1156 1.363 . S
C1161 C1160 1.415 . S
H1162 C1159 0.999 . S
H1163 C1144 0.913 . S
H1164 C1182 0.951 . S
H1165 C1184 0.951 . S
H1166 C1186 0.950 . S
H1167 C1187 0.950 . S
H1168 C1189 0.950 . S
H1169 C1192 0.950 . S
H1170 C1193 0.950 . S
H1171 C1195 0.950 . S
H1172 C1196 0.950 . S
H1173 C1197 0.951 . S
H1174 C1199 0.951 . S
H1175 C1201 0.950 . S
H1176 C1202 0.950 . S
H1177 C1204 0.950 . S
H1178 C1207 0.950 . S
H1179 C1208 0.950 . S
H1180 C1210 0.950 . S
H1181 C1211 0.950 . S
C1182 H1164 0.951 . S
C1182 C1183 1.366 . S
C1182 C1184 1.388 . S
C1183 C1182 1.366 . S
C1183 C1187 1.385 . S
C1184 H1165 0.951 . S
C1184 C1182 1.388 . S
C1184 C1185 1.366 . S
C1185 C1184 1.366 . S
C1185 C1186 1.414 . S
C1185 C1188 1.499 . S
C1186 H1166 0.950 . S
C1186 C1185 1.414 . S
C1186 C1187 1.374 . S
C1187 H1167 0.950 . S
C1187 C1183 1.385 . S
C1187 C1186 1.374 . S
C1188 C1185 1.499 . S
C1188 C1189 1.373 . S
C1188 C1190 1.389 . S
C1189 H1168 0.950 . S
C1189 C1188 1.373 . S
C1189 C1205 1.377 . S
C1190 C1188 1.389 . S
C1190 C1191 1.524 . S
C1190 C1204 1.377 . S
C1191 C1190 1.524 . S
C1191 C1192 1.397 . S
C1191 C1196 1.363 . S
C1192 H1169 0.950 . S
C1192 C1191 1.397 . S
C1192 C1193 1.334 . S
C1193 H1170 0.950 . S
C1193 C1192 1.334 . S
C1193 C1194 1.287 . S
C1194 C1193 1.287 . S
C1194 C1195 1.524 . S
C1194 H1213 0.913 . S
C1195 H1171 0.950 . S
C1195 C1194 1.524 . S
C1195 C1196 1.415 . S
C1196 H1172 0.950 . S
C1196 C1191 1.363 . S
C1196 C1195 1.415 . S
C1197 H1173 0.951 . S
C1197 C1198 1.366 . S
C1197 C1199 1.388 . S
C1198 C1197 1.366 . S
C1198 C1202 1.385 . S
C1199 H1174 0.951 . S
C1199 C1197 1.388 . S
C1199 C1200 1.366 . S
C1200 C1199 1.366 . S
C1200 C1201 1.414 . S
C1200 C1203 1.499 . S
C1201 H1175 0.950 . S
C1201 C1200 1.414 . S
C1201 C1202 1.374 . S
C1202 H1176 0.950 . S
C1202 C1198 1.385 . S
C1202 C1201 1.374 . S
C1203 C1200 1.499 . S
C1203 C1204 1.373 . S
C1203 C1205 1.389 . S
C1204 H1177 0.950 . S
C1204 C1190 1.377 . S
C1204 C1203 1.373 . S
C1205 C1189 1.377 . S
C1205 C1203 1.389 . S
C1205 C1206 1.524 . S
C1206 C1205 1.524 . S
C1206 C1207 1.397 . S
C1206 C1211 1.363 . S
C1207 H1178 0.950 . S
C1207 C1206 1.397 . S
C1207 C1208 1.334 . S
C1208 H1179 0.950 . S
C1208 C1207 1.334 . S
C1208 C1209 1.287 . S
C1209 C1208 1.287 . S
C1209 C1210 1.524 . S
C1209 H1212 0.999 . S
C1210 H1180 0.950 . S
C1210 C1209 1.524 . S
C1210 C1211 1.415 . S
C1211 H1181 0.950 . S
C1211 C1206 1.363 . S
C1211 C1210 1.415 . S
H1212 C1209 0.999 . S
H1213 C1194 0.913 . S
H1214 C1232 0.951 . S
H1215 C1234 0.951 . S
H1216 C1236 0.950 . S
H1217 C1237 0.950 . S
H1218 C1239 0.950 . S
H1219 C1242 0.950 . S
H1220 C1243 0.950 . S
H1221 C1245 0.950 . S
H1222 C1246 0.950 . S
H1223 C1247 0.951 . S
H1224 C1249 0.951 . S
H1225 C1251 0.950 . S
H1226 C1252 0.950 . S
H1227 C1254 0.950 . S
H1228 C1257 0.950 . S
H1229 C1258 0.950 . S
H1230 C1260 0.950 . S
H1231 C1261 0.950 . S
C1232 H1214 0.951 . S
C1232 C1233 1.366 . S
C1232 C1234 1.388 . S
C1233 C1232 1.366 . S
C1233 C1237 1.385 . S
C1234 H1215 0.951 . S
C1234 C1232 1.388 . S
C1234 C1235 1.366 . S
C1235 C1234 1.366 . S
C1235 C1236 1.414 . S
C1235 C1238 1.499 . S
C1236 H1216 0.950 . S
C1236 C1235 1.414 . S
C1236 C1237 1.374 . S
C1237 H1217 0.950 . S
C1237 C1233 1.385 . S
C1237 C1236 1.374 . S
C1238 C1235 1.499 . S
C1238 C1239 1.373 . S
C1238 C1240 1.389 . S
C1239 H1218 0.950 . S
C1239 C1238 1.373 . S
C1239 C1255 1.377 . S
C1240 C1238 1.389 . S
C1240 C1241 1.524 . S
C1240 C1254 1.377 . S
C1241 C1240 1.524 . S
C1241 C1242 1.397 . S
C1241 C1246 1.363 . S
C1242 H1219 0.950 . S
C1242 C1241 1.397 . S
C1242 C1243 1.334 . S
C1243 H1220 0.950 . S
C1243 C1242 1.334 . S
C1243 C1244 1.287 . S
C1244 C1243 1.287 . S
C1244 C1245 1.524 . S
C1244 H1263 0.913 . S
C1245 H1221 0.950 . S
C1245 C1244 1.524 . S
C1245 C1246 1.415 . S
C1246 H1222 0.950 . S
C1246 C1241 1.363 . S
C1246 C1245 1.415 . S
C1247 H1223 0.951 . S
C1247 C1248 1.366 . S
C1247 C1249 1.388 1_556 S
C1248 C1247 1.366 . S
C1248 C1252 1.385 . S
C1249 H1224 0.951 . S
C1249 C1247 1.388 1_554 S
C1249 C1250 1.366 . S
C1250 C1249 1.366 . S
C1250 C1251 1.414 . S
C1250 C1253 1.499 . S
C1251 H1225 0.950 . S
C1251 C1250 1.414 . S
C1251 C1252 1.374 1_554 S
C1252 H1226 0.950 . S
C1252 C1248 1.385 . S
C1252 C1251 1.374 1_556 S
C1253 C1250 1.499 . S
C1253 C1254 1.373 . S
C1253 C1255 1.389 . S
C1254 H1227 0.950 . S
C1254 C1240 1.377 . S
C1254 C1253 1.373 . S
C1255 C1239 1.377 . S
C1255 C1253 1.389 . S
C1255 C1256 1.524 . S
C1256 C1255 1.524 . S
C1256 C1257 1.397 . S
C1256 C1261 1.363 . S
C1257 H1228 0.950 . S
C1257 C1256 1.397 . S
C1257 C1258 1.334 . S
C1258 H1229 0.950 . S
C1258 C1257 1.334 . S
C1258 C1259 1.287 . S
C1259 C1258 1.287 . S
C1259 C1260 1.524 . S
C1259 H1262 0.999 . S
C1260 H1230 0.950 . S
C1260 C1259 1.524 . S
C1260 C1261 1.415 . S
C1261 H1231 0.950 . S
C1261 C1256 1.363 . S
C1261 C1260 1.415 . S
H1262 C1259 0.999 . S
H1263 C1244 0.913 . S
C283 C249 1.062 . S
C298 C18 1.062 . S
C333 C150 1.061 . S
C348 C51 1.061 . S
C383 C84 1.062 . S
C398 C183 1.062 . S
C433 C216 1.061 . S
C448 C117 1.061 . S
C483 C7 1.412 . S
C498 C139 1.412 . S
C533 C172 1.412 . S
C548 C40 1.412 . S
C583 C205 1.412 . S
C598 C73 1.412 . S
C633 C238 1.412 . S
C648 C106 1.412 . S
C683 C252 1.446 . S
C698 C54 1.446 . S
C733 C87 1.446 . S
C748 C153 1.446 . S
C783 C120 1.446 . S
C798 C186 1.446 . S
C833 C219 1.446 . S
C848 C21 1.446 . S
C883 N13 1.158 . S
C898 N2 1.157 . S
C933 N35 1.157 . S
C948 N46 1.158 . S
C983 N68 1.157 . S
C998 N79 1.158 . S
C1033 N112 1.158 . S
C1048 N101 1.157 . S
C1083 N134 1.157 . S
C1098 N145 1.158 . S
C1133 N167 1.156 . S
C1148 N178 1.157 . S
C1183 N200 1.156 . S
C1198 N211 1.158 . S
C1233 N244 1.158 . S
C1248 N233 1.157 . S
