# Generated by pormake.
# Topology zft, (5)-cn, num edge types: 1
# Building blocks:
#     Node 0, Type 0, BuildingBlock: XOMCOT_clean_sbu_1, # of connection points: 5
#     Node 1, Type 0, BuildingBlock: XOMCOT_clean_sbu_1, # of connection points: 5
#     Node 2, Type 0, BuildingBlock: XOMCOT_clean_sbu_1, # of connection points: 5
#     Node 3, Type 0, BuildingBlock: XOMCOT_clean_sbu_1, # of connection points: 5
#     Node 4, Type 0, BuildingBlock: XOMCOT_clean_sbu_1, # of connection points: 5
#     Node 5, Type 0, BuildingBlock: XOMCOT_clean_sbu_1, # of connection points: 5
#     Node 6, Type 0, BuildingBlock: XOMCOT_clean_sbu_1, # of connection points: 5
#     Node 7, Type 0, BuildingBlock: XOMCOT_clean_sbu_1, # of connection points: 5
#     Edge 8, Type (0, 0), BuildingBlock: CIFDUS_clean_linker_0, # of connection points: 2
#     Edge 9, Type (0, 0), BuildingBlock: CIFDUS_clean_linker_0, # of connection points: 2
#     Edge 10, Type (0, 0), BuildingBlock: CIFDUS_clean_linker_0, # of connection points: 2
#     Edge 11, Type (0, 0), BuildingBlock: CIFDUS_clean_linker_0, # of connection points: 2
#     Edge 12, Type (0, 0), BuildingBlock: CIFDUS_clean_linker_0, # of connection points: 2
#     Edge 13, Type (0, 0), BuildingBlock: CIFDUS_clean_linker_0, # of connection points: 2
#     Edge 14, Type (0, 0), BuildingBlock: CIFDUS_clean_linker_0, # of connection points: 2
#     Edge 15, Type (0, 0), BuildingBlock: CIFDUS_clean_linker_0, # of connection points: 2
#     Edge 16, Type (0, 0), BuildingBlock: CIFDUS_clean_linker_0, # of connection points: 2
#     Edge 17, Type (0, 0), BuildingBlock: CIFDUS_clean_linker_0, # of connection points: 2
#     Edge 18, Type (0, 0), BuildingBlock: CIFDUS_clean_linker_0, # of connection points: 2
#     Edge 19, Type (0, 0), BuildingBlock: CIFDUS_clean_linker_0, # of connection points: 2
#     Edge 20, Type (0, 0), BuildingBlock: CIFDUS_clean_linker_0, # of connection points: 2
#     Edge 21, Type (0, 0), BuildingBlock: CIFDUS_clean_linker_0, # of connection points: 2
#     Edge 22, Type (0, 0), BuildingBlock: CIFDUS_clean_linker_0, # of connection points: 2
#     Edge 23, Type (0, 0), BuildingBlock: CIFDUS_clean_linker_0, # of connection points: 2
#     Edge 24, Type (0, 0), BuildingBlock: CIFDUS_clean_linker_0, # of connection points: 2
#     Edge 25, Type (0, 0), BuildingBlock: CIFDUS_clean_linker_0, # of connection points: 2
#     Edge 26, Type (0, 0), BuildingBlock: CIFDUS_clean_linker_0, # of connection points: 2
#     Edge 27, Type (0, 0), BuildingBlock: CIFDUS_clean_linker_0, # of connection points: 2
# Relax obj value: 0.079
# Max RMSD: 0.112
# Mean RMSD: 0.112
data_MOF--net-zft--node1-XOMCOT_clean_sbu_1--edge1-CIFDUS_clean_linker_0
_symmetry_space_group_name_H-M    P1
_symmetry_Int_Tables_number       1
_symmetry_cell_setting            triclinic
loop_
_symmetry_equiv_pos_as_xyz
'x, y, z'
_cell_length_a     26.387611
_cell_length_b     26.374128
_cell_length_c     41.10564
_cell_angle_alpha  90.517223
_cell_angle_beta   90.169275
_cell_angle_gamma 90.037155
loop_
_atom_site_label
_atom_site_type_symbol
_atom_site_fract_x
_atom_site_fract_y
_atom_site_fract_z
_atom_type_partial_charge
C0 C 1.00317 0.30127 0.23484 0.0
C1 C 0.96546 0.26607 0.23904 0.0
N2 N 0.98633 0.21942 0.23841 0.0
N3 N 0.04803 0.2774 0.23142 0.0
C4 C 0.03662 0.22754 0.23414 0.0
H5 H 0.99781 0.34179 0.23297 0.0
Co6 Co 0.10849 0.31015 0.21978 0.0
C7 C 0.07856 0.35336 0.15464 0.0
O8 O 0.12253 0.34369 0.14099 0.0
N9 N 0.16851 0.34483 0.20849 0.0
C10 C 0.2484 0.37193 0.20473 0.0
C11 C 0.2175 0.33263 0.21422 0.0
C12 C 0.17088 0.39254 0.19669 0.0
N13 N 0.21882 0.40936 0.19347 0.0
O14 O 0.09257 0.36611 0.24789 0.0
H15 H 0.23059 0.29831 0.22551 0.0
H16 H 0.13792 0.41545 0.19143 0.0
O17 O 0.07105 0.34173 0.18435 0.0
C18 C 0.10855 0.3616 0.277 0.0
O19 O 0.12907 0.31833 0.28559 0.0
N20 N 0.12683 0.25339 0.19412 0.0
C21 C 0.16305 0.16498 0.16433 0.0
C22 C 0.12308 0.19236 0.15031 0.0
C23 C 0.10497 0.23627 0.16586 0.0
C24 C 0.16267 0.22481 0.20921 0.0
C25 C 0.18207 0.18124 0.19452 0.0
H26 H 0.0726 0.25524 0.15556 0.0
H27 H 0.17557 0.23544 0.23329 0.0
H28 H 0.06453 0.19772 0.23213 0.0
H29 H 0.92545 0.27446 0.24088 0.0
H30 H 0.28938 0.37286 0.20593 0.0
H31 H 0.10603 0.18001 0.12758 0.0
H32 H 0.21098 0.15977 0.2071 0.0
C33 C 0.26047 0.57155 0.52721 0.0
C34 C 0.28931 0.53055 0.53568 0.0
N35 N 0.29277 0.49907 0.50974 0.0
N36 N 0.24535 0.56637 0.49607 0.0
C37 C 0.26568 0.52194 0.48592 0.0
H38 H 0.25286 0.60419 0.54247 0.0
Co39 Co 0.21004 0.6169 0.47462 0.0
C40 C 0.17487 0.5722 0.41117 0.0
O41 O 0.17966 0.61625 0.3968 0.0
N42 N 0.17407 0.66951 0.45466 0.0
C43 C 0.14721 0.7464 0.44089 0.0
C44 C 0.1879 0.71862 0.45176 0.0
C45 C 0.12464 0.66866 0.44582 0.0
N46 N 0.10771 0.71472 0.43708 0.0
O47 O 0.15142 0.6025 0.50019 0.0
H48 H 0.22434 0.73413 0.45845 0.0
H49 H 0.10094 0.63518 0.44688 0.0
O50 O 0.18718 0.56771 0.4412 0.0
C51 C 0.14748 0.63243 0.52458 0.0
O52 O 0.182 0.66787 0.52872 0.0
N53 N 0.26967 0.63349 0.45223 0.0
C54 C 0.36439 0.66666 0.43122 0.0
C55 C 0.33697 0.63085 0.4129 0.0
C56 C 0.28994 0.61372 0.42427 0.0
C57 C 0.29662 0.66734 0.47053 0.0
C58 C 0.34377 0.68467 0.46044 0.0
H59 H 0.27131 0.5837 0.41099 0.0
H60 H 0.28112 0.68097 0.49332 0.0
H61 H 0.26184 0.50758 0.46132 0.0
H62 H 0.30839 0.52596 0.55879 0.0
H63 H 0.14643 0.78683 0.43658 0.0
H64 H 0.35251 0.61506 0.39065 0.0
H65 H 0.36394 0.71208 0.47541 0.0
C66 C 0.9479 0.74374 0.77852 0.0
C67 C 0.98828 0.77399 0.78689 0.0
N68 N 0.01024 0.79061 0.75942 0.0
N69 N 0.94421 0.74068 0.74585 0.0
C70 C 0.98268 0.76972 0.73483 0.0
H71 H 0.92159 0.72705 0.79539 0.0
Co72 Co 0.891 0.70911 0.72339 0.0
C73 C 0.93531 0.67026 0.66003 0.0
O74 O 0.89077 0.66357 0.64636 0.0
N75 N 0.836 0.67725 0.70227 0.0
C76 C 0.76022 0.65987 0.68092 0.0
C77 C 0.79104 0.69748 0.69345 0.0
C78 C 0.83092 0.62716 0.69564 0.0
N79 N 0.78563 0.61569 0.68216 0.0
O80 O 0.90494 0.64745 0.74573 0.0
H81 H 0.78083 0.73696 0.69615 0.0
H82 H 0.86029 0.59954 0.70032 0.0
O83 O 0.93871 0.68888 0.68887 0.0
C84 C 0.87584 0.64114 0.76998 0.0
O85 O 0.84164 0.67599 0.77648 0.0
N86 N 0.87554 0.77107 0.70366 0.0
C87 C 0.84419 0.86668 0.68338 0.0
C88 C 0.86776 0.83308 0.66157 0.0
C89 C 0.88353 0.78543 0.67224 0.0
C90 C 0.85278 0.80336 0.72515 0.0
C91 C 0.83702 0.85142 0.7156 0.0
H92 H 0.90177 0.76073 0.65502 0.0
H93 H 0.84645 0.79132 0.7499 0.0
H94 H 0.98918 0.77658 0.70928 0.0
H95 H 0.99876 0.78502 0.81141 0.0
H96 H 0.72241 0.66484 0.67119 0.0
H97 H 0.87441 0.84375 0.63655 0.0
H98 H 0.81852 0.87604 0.73313 0.0
C99 C 0.7998 0.49759 0.98561 0.0
C100 C 0.76624 0.53517 0.99395 0.0
N101 N 0.71968 0.51461 0.99653 0.0
N102 N 0.77503 0.45301 0.98274 0.0
C103 C 0.7262 0.46457 0.98977 0.0
H104 H 0.83969 0.50293 0.98074 0.0
Co105 Co 0.80621 0.39269 0.96815 0.0
C106 C 0.84377 0.42433 0.90151 0.0
O107 O 0.84104 0.37927 0.88772 0.0
N108 N 0.83919 0.333 0.95378 0.0
C109 C 0.86247 0.25314 0.94378 0.0
C110 C 0.82428 0.28401 0.95517 0.0
C111 C 0.88726 0.33044 0.9424 0.0
N112 N 0.90204 0.2825 0.93558 0.0
O113 O 0.86617 0.40963 0.99194 0.0
H114 H 0.78856 0.27069 0.96443 0.0
H115 H 0.91134 0.36333 0.93957 0.0
O116 O 0.83093 0.43046 0.9312 0.0
C117 C 0.86425 0.4009 0.02228 0.0
O118 O 0.82117 0.38546 0.03475 0.0
N119 N 0.746 0.37358 0.94668 0.0
C120 C 0.65699 0.3314 0.92165 0.0
C121 C 0.68274 0.36934 0.90458 0.0
C122 C 0.72718 0.3904 0.9177 0.0
C123 C 0.71882 0.34022 0.96474 0.0
C124 C 0.67484 0.31789 0.95248 0.0
H125 H 0.74573 0.42018 0.90452 0.0
H126 H 0.73237 0.32988 0.98865 0.0
H127 H 0.69586 0.43703 0.98932 0.0
H128 H 0.77539 0.575 0.99642 0.0
H129 H 0.86097 0.21225 0.9415 0.0
H130 H 0.66928 0.38184 0.88107 0.0
H131 H 0.655 0.29016 0.96699 0.0
C132 C 0.57273 0.25313 0.51071 0.0
C133 C 0.53124 0.28108 0.50192 0.0
N134 N 0.5007 0.28624 0.528 0.0
N135 N 0.56879 0.2401 0.54219 0.0
C136 C 0.52455 0.2608 0.55216 0.0
H137 H 0.60501 0.24525 0.4954 0.0
Co138 Co 0.62071 0.20861 0.56511 0.0
C139 C 0.5755 0.16635 0.62619 0.0
O140 O 0.61982 0.16893 0.6407 0.0
N141 N 0.6751 0.1769 0.58701 0.0
C142 C 0.7472 0.16073 0.6132 0.0
C143 C 0.71667 0.19809 0.60086 0.0
C144 C 0.68205 0.1264 0.59075 0.0
N145 N 0.72533 0.11563 0.60686 0.0
O146 O 0.614 0.14991 0.53698 0.0
H147 H 0.72502 0.23807 0.60211 0.0
H148 H 0.65502 0.09806 0.58266 0.0
O149 O 0.5709 0.18097 0.59658 0.0
C150 C 0.64746 0.15342 0.51474 0.0
O151 O 0.68008 0.19105 0.51666 0.0
N152 N 0.62968 0.26876 0.58928 0.0
C153 C 0.65473 0.36304 0.61619 0.0
C154 C 0.61813 0.33221 0.63088 0.0
C155 C 0.60567 0.28526 0.61683 0.0
C156 C 0.66278 0.29974 0.57365 0.0
C157 C 0.6764 0.34663 0.58685 0.0
H158 H 0.57629 0.26326 0.62803 0.0
H159 H 0.67973 0.28714 0.55106 0.0
H160 H 0.51138 0.25894 0.57698 0.0
H161 H 0.52596 0.29881 0.47854 0.0
H162 H 0.78308 0.16636 0.62555 0.0
H163 H 0.59971 0.34395 0.65322 0.0
H164 H 0.70361 0.36989 0.57412 0.0
C165 C 0.279 0.05484 0.76241 0.0
C166 C 0.2498 0.01406 0.75349 0.0
N167 N 0.23 0.99365 0.78052 0.0
N168 N 0.27865 0.06022 0.79508 0.0
C169 C 0.24847 0.02211 0.8055 0.0
H170 H 0.29744 0.08001 0.74566 0.0
Co171 Co 0.30752 0.11528 0.81768 0.0
C172 C 0.35916 0.06967 0.87749 0.0
O173 O 0.37455 0.11366 0.88886 0.0
N174 N 0.33593 0.17272 0.83878 0.0
C175 C 0.34461 0.25062 0.85956 0.0
C176 C 0.31065 0.2142 0.8495 0.0
C177 C 0.38544 0.18576 0.84185 0.0
N178 N 0.39166 0.23259 0.85482 0.0
O179 O 0.36871 0.10774 0.79229 0.0
H180 H 0.27 0.21878 0.84936 0.0
H181 H 0.41649 0.16146 0.83454 0.0
O182 O 0.33365 0.06733 0.85085 0.0
C183 C 0.37178 0.13732 0.76793 0.0
O184 O 0.3349 0.16987 0.76298 0.0
N185 N 0.24617 0.12451 0.84043 0.0
C186 C 0.15358 0.15162 0.86848 0.0
C187 C 0.19188 0.12912 0.88718 0.0
C188 C 0.23809 0.11612 0.87276 0.0
C189 C 0.20881 0.14493 0.82168 0.0
C190 C 0.16233 0.15901 0.83522 0.0
H191 H 0.26737 0.10091 0.88804 0.0
H192 H 0.21584 0.1517 0.79617 0.0
H193 H 0.23804 0.01714 0.83072 0.0
H194 H 0.24283 1.00126 0.7288 0.0
H195 H 0.33536 0.28749 0.86969 0.0
H196 H 0.18685 0.12322 0.91301 0.0
H197 H 0.13362 0.17581 0.81983 0.0
C198 C 0.41341 0.7329 0.02357 0.0
C199 C 0.44873 0.69911 1.01185 0.0
N200 N 0.49269 0.70671 0.02798 0.0
N201 N 0.43479 0.76222 0.04683 0.0
C202 C 0.48322 0.74557 0.04887 0.0
H203 H 0.37391 0.73442 1.01659 0.0
Co204 Co 0.3981 0.80713 0.07321 0.0
C205 C 0.47534 0.86171 0.11232 0.0
O206 O 0.45466 0.9052 0.10439 0.0
N207 N 0.36047 0.85162 0.09993 0.0
C208 C 0.33081 0.88958 0.14455 0.0
C209 C 0.3574 0.84875 0.13271 0.0
C210 C 0.33498 0.89456 0.09245 0.0
N211 N 0.31654 0.91802 0.1192 0.0
O212 O 0.41489 0.86226 0.04428 0.0
H213 H 0.37562 0.82012 0.14733 0.0
H214 H 0.33212 0.90992 0.06822 0.0
O215 O 0.45763 0.8204 0.1004 0.0
C216 C 0.38675 0.86466 1.01896 0.0
O217 O 0.35003 0.83135 1.0156 0.0
N218 N 0.37924 0.75217 0.09928 0.0
C219 C 0.34427 0.66639 0.132 0.0
C220 C 0.3961 0.67895 0.13184 0.0
C221 C 0.41279 0.72208 0.11548 0.0
C222 C 0.32893 0.74068 0.09894 0.0
C223 C 0.31052 0.69858 0.11556 0.0
H224 H 0.45288 0.73024 0.11506 0.0
H225 H 0.3029 0.76438 0.08554 0.0
H226 H 0.51017 0.75963 0.06663 0.0
H227 H 0.44199 0.6705 0.99331 0.0
H228 H 0.32462 0.89916 0.1699 0.0
H229 H 0.42397 0.65496 0.14342 0.0
H230 H 0.27014 0.69142 0.11533 0.0
C231 C 0.80754 0.90354 0.28892 0.0
C232 C 0.83772 0.93649 0.27206 0.0
N233 N 0.81133 0.97935 0.26651 0.0
N234 N 0.76247 0.92562 0.29502 0.0
C235 C 0.76474 0.97022 0.2791 0.0
H236 H 0.81912 0.86697 0.298 0.0
Co237 Co 0.71251 0.89811 0.3225 0.0
C238 C 0.71891 1.0076 0.351 0.0
O239 O 0.75996 0.0216 0.3356 0.0
N240 N 0.66324 0.86942 0.34934 0.0
C241 C 0.62292 0.84762 0.39444 0.0
C242 C 0.6615 0.87607 0.38191 0.0
C243 C 0.62505 0.83663 0.34258 0.0
N244 N 0.60004 0.82262 0.36975 0.0
O245 O 0.66134 0.9154 0.29095 0.0
H246 H 0.68769 0.89914 0.39588 0.0
H247 H 0.61658 0.82224 0.31844 0.0
O248 O 0.70087 0.96289 0.34679 0.0
C249 C 0.65873 0.88312 0.26767 0.0
O250 O 0.68927 0.84377 0.26844 0.0
N251 N 0.76337 0.8775 0.35206 0.0
C252 C 0.84461 0.83769 0.38751 0.0
C253 C 0.83852 0.89024 0.38411 0.0
C254 C 0.79773 0.9093 0.36643 0.0
C255 C 0.76799 0.82632 0.35553 0.0
C256 C 0.80792 0.80562 0.37345 0.0
H257 H 0.79611 0.94937 0.36281 0.0
H258 H 0.74123 0.80128 0.3435 0.0
H259 H 0.73375 0.99703 0.27889 0.0
H260 H 0.87745 0.93059 0.26688 0.0
H261 H 0.61241 0.84559 0.41983 0.0
H262 H 0.86638 0.91668 0.3936 0.0
H263 H 0.81047 0.76483 0.37563 0.0
H264 H 0.13576 0.36184 0.34083 0.0
H265 H 0.08805 0.46107 0.26362 0.0
H266 H 0.10235 0.53479 0.29896 0.0
H267 H 0.13361 0.57124 0.35049 0.0
H268 H 0.18156 0.47199 0.42762 0.0
H269 H 0.1618 0.39809 0.39356 0.0
C270 C 0.12799 0.39956 0.33178 0.0
C271 C 0.1111 0.40585 0.2995 0.0
C272 C 0.13672 0.4418 0.35214 0.0
C273 C 0.10097 0.45503 0.28832 0.0
C274 C 0.1094 0.49726 0.30848 0.0
C275 C 0.1396 0.53345 0.35994 0.0
C276 C 0.15959 0.52724 0.39149 0.0
C277 C 0.12815 0.49112 0.34022 0.0
C278 C 0.16641 0.47795 0.40344 0.0
C279 C 0.15519 0.43564 0.38394 0.0
H280 H 0.94267 0.61879 0.60271 0.0
H281 H 0.03138 0.70445 0.67249 0.0
H282 H 0.10531 0.69811 0.6371 0.0
H283 H 0.14325 0.67254 0.58517 0.0
H284 H 0.05553 0.58602 0.51545 0.0
H285 H 0.98255 0.58813 0.55217 0.0
C286 C 0.97825 0.63588 0.61027 0.0
C287 C 0.98132 0.66254 0.64007 0.0
C288 C 0.02062 0.63206 0.5898 0.0
C289 C 0.02788 0.68384 0.64969 0.0
C290 C 0.07015 0.68037 0.6294 0.0
C291 C 0.10822 0.65393 0.57803 0.0
C292 C 0.10457 0.62955 0.54751 0.0
C293 C 0.06669 0.65527 0.59922 0.0
C294 C 0.05923 0.60501 0.53881 0.0
C295 C 0.0175 0.60639 0.55975 0.0
H296 H 0.88195 0.42889 0.83968 0.0
H297 H 0.82637 0.52248 0.91867 0.0
H298 H 0.83398 0.59742 0.88531 0.0
H299 H 0.8511 0.63619 0.83302 0.0
H300 H 0.90866 0.54561 0.75357 0.0
H301 H 0.906 0.46977 0.7878 0.0
C302 C 0.87188 0.46575 0.84961 0.0
C303 C 0.85324 0.46982 0.8816 0.0
C304 C 0.8765 0.50922 0.83019 0.0
C305 C 0.84085 0.51798 0.89421 0.0
C306 C 0.84499 0.56103 0.8751 0.0
C307 C 0.86331 0.59986 0.82323 0.0
C308 C 0.87949 0.59617 0.79084 0.0
C309 C 0.86192 0.55697 0.84297 0.0
C310 C 0.89606 0.54919 0.77854 0.0
C311 C 0.89431 0.5059 0.79804 0.0
H312 H 0.86914 0.39996 0.08794 0.0
H313 H 0.96323 0.40328 1.00234 0.0
H314 H 0.03895 0.39279 0.03616 0.0
H315 H 0.07736 0.37487 0.08967 0.0
H316 H 0.98182 0.37117 0.17478 0.0
H317 H 0.90795 0.38988 0.14151 0.0
C318 C 0.90625 0.39893 0.07668 0.0
C319 C 0.91051 0.40187 0.04268 0.0
C320 C 0.94941 0.39243 0.09618 0.0
C321 C 0.95891 0.40109 0.02849 0.0
C322 C 1.0022 0.39481 0.0478 0.0
C323 C 0.04049 0.37871 0.101 0.0
C324 C 0.03521 0.37086 0.13467 0.0
C325 C 0.99778 0.38924 0.08162 0.0
C326 C 0.98712 0.37646 0.14893 0.0
C327 C 0.94469 0.38715 0.1299 0.0
H328 H 0.68424 0.17725 0.45626 0.0
H329 H 0.61311 0.05473 0.5077 0.0
H330 H 0.6241 0.99899 0.45983 0.0
H331 H 0.66081 0.98416 0.4047 0.0
H332 H 0.73298 0.10879 0.35551 0.0
H333 H 0.71389 0.16487 0.40103 0.0
C334 C 0.67093 0.13835 0.45709 0.0
C335 C 0.64864 0.11985 0.48564 0.0
C336 C 0.67756 0.10697 0.4298 0.0
C337 C 0.63059 0.06975 0.48601 0.0
C338 C 0.63704 0.03793 0.45868 0.0
C339 C 0.67177 0.02366 0.40379 0.0
C340 C 0.69911 0.04191 0.37682 0.0
C341 C 0.66142 0.05591 0.43059 0.0
C342 C 0.71259 0.09345 0.37604 0.0
C343 C 0.70176 0.12564 0.40212 0.0
H344 H 0.37085 0.16778 0.70515 0.0
H345 H 0.46703 0.09869 0.77726 0.0
H346 H 0.53768 0.09818 0.73866 0.0
H347 H 0.57315 0.12213 0.68561 0.0
H348 H 0.47616 0.18959 0.61319 0.0
H349 H 0.40446 0.18522 0.65061 0.0
C350 C 0.40726 0.15248 0.71243 0.0
C351 C 0.4139 0.13387 0.7442 0.0
C352 C 0.44741 0.15189 0.69002 0.0
C353 C 0.461 0.11335 0.75302 0.0
C354 C 0.50138 0.11315 0.73096 0.0
C355 C 0.53619 0.13542 0.67784 0.0
C356 C 0.53025 0.15665 0.64666 0.0
C357 C 0.49517 0.13295 0.69955 0.0
C358 C 0.48194 0.17311 0.63695 0.0
C359 C 0.44095 0.1709 0.65845 0.0
H360 H 0.34294 0.86843 0.95923 0.0
H361 H 0.44191 0.95295 0.02352 0.0
H362 H 0.4443 0.02258 0.98444 0.0
H363 H 0.41444 0.06114 0.93342 0.0
H364 H 0.31524 0.97607 0.86942 0.0
H365 H 0.31718 0.90478 0.90695 0.0
C366 C 0.36528 0.90197 0.96472 0.0
C367 C 0.39194 0.90554 0.99447 0.0
C368 C 0.36637 0.94178 0.94218 0.0
C369 C 0.42107 0.94912 1.00089 0.0
C370 C 0.42229 0.98901 0.97856 0.0
C371 C 0.39349 0.02689 0.92749 0.0
C372 C 0.36444 0.02429 0.89858 0.0
C373 C 0.39453 0.98603 0.94933 0.0
C374 C 0.33792 0.97933 0.89135 0.0
C375 C 0.33885 0.93854 0.91291 0.0
H376 H 0.63921 0.81414 0.21999 0.0
H377 H 0.59674 0.96382 0.25318 0.0
H378 H 0.53818 0.97149 0.20705 0.0
H379 H 0.49809 0.93478 0.15767 0.0
H380 H 0.53941 0.78376 0.12629 0.0
H381 H 0.5997 0.77777 0.17123 0.0
C382 C 0.61728 0.8486 0.21721 0.0
C383 C 0.6225 0.8884 0.24011 0.0
C384 C 0.58358 0.85255 0.19083 0.0
C385 C 0.59345 0.93256 0.23604 0.0
C386 C 0.56004 0.93698 0.2096 0.0
C387 C 0.52068 0.90076 0.16045 0.0
C388 C 0.51437 0.85986 0.13842 0.0
C389 C 0.55475 0.89717 0.18683 0.0
C390 C 0.54345 0.81581 0.14277 0.0
C391 C 0.57792 0.81231 0.16853 0.0
H392 H 0.2198 0.94635 0.11148 0.0
H393 H 0.36936 1.00118 0.13412 0.0
H394 H 0.33516 0.08527 0.14741 0.0
H395 H 0.26194 0.14025 0.15729 0.0
H396 H 0.11121 0.08535 0.13663 0.0
H397 H 0.14619 1.00458 0.11719 0.0
C398 C 0.2446 0.97731 0.11865 0.0
C399 C 0.29682 0.96843 0.12171 0.0
C400 C 0.22437 0.02514 0.12678 0.0
C401 C 0.32909 1.00798 0.13144 0.0
C402 C 0.3095 0.05569 0.13917 0.0
C403 C 0.23678 0.11068 0.14835 0.0
C404 C 0.18407 0.11852 0.14874 0.0
C405 C 0.2571 0.0643 0.1377 0.0
C406 C 0.15194 0.08029 0.13649 0.0
C407 C 0.17191 0.03399 0.12559 0.0
H408 H 0.58191 0.76042 0.41946 0.0
H409 H 0.52296 0.80795 0.32681 0.0
H410 H 0.44562 0.7583 0.33587 0.0
H411 H 0.39116 0.7088 0.37331 0.0
H412 H 0.45071 0.66544 0.46681 0.0
H413 H 0.53142 0.70599 0.45439 0.0
C414 C 0.55218 0.75982 0.40121 0.0
C415 C 0.55769 0.78848 0.37278 0.0
C416 C 0.50782 0.73213 0.4069 0.0
C417 C 0.51952 0.78621 0.3489 0.0
C418 C 0.47522 0.75811 0.3542 0.0
C419 C 0.42226 0.70753 0.39059 0.0
C420 C 0.41504 0.68466 0.42104 0.0
C421 C 0.4684 0.73194 0.38351 0.0
C422 C 0.45537 0.68335 0.44339 0.0
C423 C 0.50144 0.70652 0.43631 0.0
H424 H 0.78092 0.09397 0.65979 0.0
H425 H 0.71111 0.02652 0.57488 0.0
H426 H 0.74279 0.94309 0.5907 0.0
H427 H 0.79008 0.88932 0.62902 0.0
H428 H 0.85897 0.95736 0.71413 0.0
H429 H 0.82831 0.04075 0.69776 0.0
C430 C 0.77309 0.06112 0.64458 0.0
C431 C 0.74388 0.06647 0.61615 0.0
C432 C 0.79128 0.01343 0.65387 0.0
C433 C 0.73312 0.02332 0.59703 0.0
C434 C 0.75146 0.97569 0.60597 0.0
C435 C 0.79872 0.92254 0.64377 0.0
C436 C 0.82676 0.91729 0.6727 0.0
C437 C 0.78057 0.9703 0.63436 0.0
C438 C 0.83709 0.96045 0.69189 0.0
C439 C 0.81971 1.00811 0.6825 0.0
H440 H 0.47746 0.18901 0.87611 0.0
H441 H 0.41086 0.33312 0.85218 0.0
H442 H 0.4884 0.3768 0.86926 0.0
H443 H 0.57406 0.37421 0.89335 0.0
H444 H 0.63925 0.22998 0.91881 0.0
H445 H 0.56372 0.18613 0.89864 0.0
C446 C 0.48027 0.22988 0.87421 0.0
C447 C 0.43853 0.25779 0.86294 0.0
C448 C 0.52468 0.25474 0.88452 0.0
C449 C 0.44233 0.31087 0.86111 0.0
C450 C 0.4867 0.33583 0.87077 0.0
C451 C 0.57183 0.33317 0.8941 0.0
C452 C 0.612 0.30537 0.90763 0.0
C453 C 0.52793 0.30822 0.88288 0.0
C454 C 0.60851 0.25221 0.90882 0.0
C455 C 0.56543 0.22711 0.89721 0.0
H456 H 0.7505 0.39871 0.62278 0.0
H457 H 0.59491 0.43695 0.64341 0.0
H458 H 0.6218 0.51869 0.66631 0.0
H459 H 0.68975 0.58009 0.67928 0.0
H460 H 0.8449 0.54126 0.65763 0.0
H461 H 0.81798 0.45902 0.63631 0.0
C462 C 0.72242 0.42507 0.6321 0.0
C463 C 0.67077 0.41194 0.63117 0.0
C464 C 0.7381 0.47189 0.64507 0.0
C465 C 0.63494 0.44603 0.64401 0.0
C466 C 0.65027 0.49287 0.65693 0.0
C467 C 0.71756 0.55369 0.66974 0.0
C468 C 0.76927 0.56684 0.67011 0.0
C469 C 0.70175 0.50635 0.65738 0.0
C470 C 0.80498 0.5319 0.65809 0.0
C471 C 0.78958 0.48494 0.64568 0.0
H472 H 0.10543 0.24184 0.86053 0.0
H473 H 0.09411 0.09985 0.91122 0.0
H474 H 0.01537 0.12808 0.93689 0.0
H475 H 0.94954 0.19311 0.94475 0.0
H476 H 0.96131 0.33527 0.8943 0.0
H477 H 0.04015 0.30721 0.86892 0.0
C478 C 0.08547 0.21694 0.87699 0.0
C479 C 0.10544 0.16869 0.8838 0.0
C480 C 0.04045 0.23359 0.89184 0.0
C481 C 0.07967 0.13724 0.90568 0.0
C482 C 0.03458 0.15331 0.92029 0.0
C483 C 0.96921 0.21782 0.92807 0.0
C484 C 0.94941 0.26623 0.92144 0.0
C485 C 0.01458 0.20139 0.91353 0.0
C486 C 0.97592 0.29811 0.90016 0.0
C487 C 0.02087 0.28194 0.88544 0.0
H488 H 0.26552 0.60471 0.1135 0.0
H489 H 0.38127 0.62138 0.18744 0.0
H490 H 0.35365 0.54265 0.21239 0.0
H491 H 0.29638 0.46851 0.21336 0.0
H492 H 0.17692 0.45605 0.14207 0.0
H493 H 0.20523 0.53452 0.11659 0.0
C494 C 0.28428 0.59197 0.13544 0.0
C495 C 0.32581 0.61934 0.14827 0.0
C496 C 0.26732 0.54731 0.15029 0.0
C497 C 0.34998 0.60093 0.1764 0.0
C498 C 0.33393 0.55597 0.19094 0.0
C499 C 0.27672 0.48313 0.19224 0.0
C500 C 0.2348 0.45658 0.1795 0.0
C501 C 0.2928 0.5287 0.17801 0.0
C502 C 0.20906 0.47611 0.15241 0.0
C503 C 0.22539 0.52079 0.13776 0.0
H504 H 0.89759 0.75211 0.37102 0.0
H505 H 0.89652 0.87668 0.44004 0.0
H506 H 0.97827 0.84961 0.46133 0.0
H507 H 0.05237 0.79299 0.45855 0.0
H508 H 0.05065 0.66499 0.39291 0.0
H509 H 0.96696 0.69021 0.37251 0.0
C510 C 0.91443 0.77279 0.39124 0.0
C511 C 0.89096 0.81701 0.40343 0.0
C512 C 0.96111 0.75648 0.40387 0.0
C513 C 0.91412 0.84336 0.42946 0.0
C514 C 0.96084 0.82776 0.44184 0.0
C515 C 0.03335 0.77074 0.43986 0.0
C516 C 0.05741 0.72773 0.42683 0.0
C517 C 0.98512 0.785 0.4288 0.0
C518 C 0.03247 0.69831 0.40311 0.0
C519 C 0.98487 0.71281 0.39146 0.0
H520 H 0.90038 0.99682 0.23551 0.0
H521 H 0.77196 0.07346 0.27857 0.0
H522 H 0.81493 0.15423 0.27328 0.0
H523 H 0.89142 0.20266 0.26099 0.0
H524 H 0.02013 0.12686 0.21782 0.0
H525 H 0.9752 0.04628 0.22002 0.0
C526 C 0.88157 0.031 0.24381 0.0
C527 C 0.83305 0.02807 0.2581 0.0
C528 C 0.90704 0.07772 0.24137 0.0
C529 C 0.80912 0.07358 0.26762 0.0
C530 C 0.83395 0.12016 0.26487 0.0
C531 C 0.9097 0.16886 0.25163 0.0
C532 C 0.95961 0.17141 0.23952 0.0
C533 C 0.88336 0.12253 0.25251 0.0
C534 C 0.98235 0.12648 0.22793 0.0
C535 C 0.95641 0.08021 0.22887 0.0
H536 H 0.44508 0.32354 0.47805 0.0
H537 H 0.45489 0.32221 0.58304 0.0
H538 H 0.38672 0.38393 0.58631 0.0
H539 H 0.3298 0.4437 0.55963 0.0
H540 H 0.3266 0.45166 0.45469 0.0
H541 H 0.38645 0.38166 0.45136 0.0
C542 C 0.43287 0.3368 0.50175 0.0
C543 C 0.45641 0.3185 0.5302 0.0
C544 C 0.39474 0.3738 0.50352 0.0
C545 C 0.43811 0.3352 0.5606 0.0
C546 C 0.39913 0.37096 0.56254 0.0
C547 C 0.34229 0.43065 0.53594 0.0
C548 C 0.32403 0.4541 0.5075 0.0
C549 C 0.37815 0.39147 0.53416 0.0
C550 C 0.33963 0.43484 0.47709 0.0
C551 C 0.37428 0.39485 0.47513 0.0
H552 H 0.08092 0.81224 0.80541 0.0
H553 H 0.03104 0.85316 0.70897 0.0
H554 H 0.09564 0.91899 0.707 0.0
H555 H 0.16321 0.96761 0.73342 0.0
H556 H 0.21271 0.92875 0.83016 0.0
H557 H 0.14982 0.86049 0.83169 0.0
C558 C 0.08382 0.83567 0.78399 0.0
C559 C 0.05067 0.82753 0.75742 0.0
C560 C 0.12056 0.87428 0.78324 0.0
C561 C 0.05608 0.85782 0.72966 0.0
C562 C 0.09284 0.89591 0.72861 0.0
C563 C 0.16095 0.94387 0.75472 0.0
C564 C 0.19303 0.95326 0.7816 0.0
C565 C 0.12492 0.90474 0.75534 0.0
C566 C 0.18833 0.9227 0.80926 0.0
C567 C 0.15256 0.88348 0.81004 0.0
H568 H 0.70896 0.60708 0.02492 0.0
H569 H 0.62376 0.4843 0.98106 0.0
H570 H 0.5457 0.53256 0.98785 0.0
H571 H 0.50185 0.61055 1.00462 0.0
H572 H 0.58797 0.73512 0.04549 0.0
H573 H 0.66538 0.68516 0.04121 0.0
C574 C 0.67354 0.5908 1.01653 0.0
C575 C 0.67283 0.5419 1.00226 0.0
C576 C 0.62877 0.61923 0.01986 0.0
C577 C 0.62592 0.52141 0.99238 0.0
C578 C 0.58111 0.54925 0.99603 0.0
C579 C 0.53748 0.62721 1.01229 0.0
C580 C 0.53866 0.67696 0.02527 0.0
C581 C 0.58215 0.59841 1.00941 0.0
C582 C 0.58545 0.69699 0.0357 0.0
C583 C 0.62993 0.66845 0.03312 0.0
loop_
_geom_bond_atom_site_label_1
_geom_bond_atom_site_label_2
_geom_bond_distance
_geom_bond_site_symmetry_2
_ccdc_geom_bond_type
C0 C1 1.343 1_455 S
C0 N3 1.368 . S
C0 H5 0.931 . S
C1 C0 1.343 1_655 S
C1 N2 1.381 . S
C1 H29 0.930 . S
N2 C1 1.381 . S
N2 C4 1.340 . S
N3 C0 1.368 . S
N3 C4 1.321 1_455 S
N3 Co6 2.135 . S
C4 N2 1.340 . S
C4 N3 1.321 1_655 S
C4 H28 0.930 . S
H5 C0 0.931 . S
Co6 N3 2.135 . S
Co6 N9 2.121 . S
Co6 O14 2.055 . S
Co6 O17 2.039 . S
Co6 N20 2.140 . S
C7 O8 1.227 . S
C7 O17 1.265 . S
O8 C7 1.227 . S
N9 Co6 2.121 . S
N9 C11 1.375 . S
N9 C12 1.313 . S
C10 C11 1.338 . S
C10 N13 1.377 . S
C10 H30 0.930 . S
C11 N9 1.375 . S
C11 C10 1.338 . S
C11 H15 0.931 . S
C12 N9 1.313 . S
C12 N13 1.344 . S
C12 H16 0.930 . S
N13 C10 1.377 . S
N13 C12 1.344 . S
O14 Co6 2.055 . S
O14 C18 1.253 . S
H15 C11 0.931 . S
H16 C12 0.930 . S
O17 Co6 2.039 . S
O17 C7 1.265 . S
C18 O14 1.253 . S
C18 O19 1.227 . S
O19 C18 1.227 . S
N20 Co6 2.140 . S
N20 C23 1.346 . S
N20 C24 1.345 . S
C21 C22 1.387 . S
C21 C25 1.391 . S
C22 C21 1.387 . S
C22 C23 1.369 . S
C22 H31 0.929 . S
C23 N20 1.346 . S
C23 C22 1.369 . S
C23 H26 0.928 . S
C24 N20 1.345 . S
C24 C25 1.371 . S
C24 H27 0.931 . S
C25 C21 1.391 . S
C25 C24 1.371 . S
C25 H32 0.930 . S
H26 C23 0.928 . S
H27 C24 0.931 . S
H28 C4 0.930 . S
H29 C1 0.930 . S
H30 C10 0.930 . S
H31 C22 0.929 . S
H32 C25 0.930 . S
C33 C34 1.351 . S
C33 N36 1.368 . S
C33 H38 0.931 . S
C34 C33 1.351 . S
C34 N35 1.373 . S
C34 H62 0.930 . S
N35 C34 1.373 . S
N35 C37 1.340 . S
N36 C33 1.368 . S
N36 C37 1.321 . S
N36 Co39 2.135 . S
C37 N35 1.340 . S
C37 N36 1.321 . S
C37 H61 0.930 . S
H38 C33 0.931 . S
Co39 N36 2.135 . S
Co39 N42 2.121 . S
Co39 O47 2.055 . S
Co39 O50 2.039 . S
Co39 N53 2.140 . S
C40 O41 1.227 . S
C40 O50 1.265 . S
O41 C40 1.227 . S
N42 Co39 2.121 . S
N42 C44 1.375 . S
N42 C45 1.313 . S
C43 C44 1.338 . S
C43 N46 1.377 . S
C43 H63 0.930 . S
C44 N42 1.375 . S
C44 C43 1.338 . S
C44 H48 0.931 . S
C45 N42 1.313 . S
C45 N46 1.344 . S
C45 H49 0.930 . S
N46 C43 1.377 . S
N46 C45 1.344 . S
O47 Co39 2.055 . S
O47 C51 1.253 . S
H48 C44 0.931 . S
H49 C45 0.930 . S
O50 Co39 2.039 . S
O50 C40 1.265 . S
C51 O47 1.253 . S
C51 O52 1.227 . S
O52 C51 1.227 . S
N53 Co39 2.140 . S
N53 C56 1.346 . S
N53 C57 1.345 . S
C54 C55 1.387 . S
C54 C58 1.391 . S
C55 C54 1.387 . S
C55 C56 1.369 . S
C55 H64 0.929 . S
C56 N53 1.346 . S
C56 C55 1.369 . S
C56 H59 0.928 . S
C57 N53 1.345 . S
C57 C58 1.371 . S
C57 H60 0.931 . S
C58 C54 1.391 . S
C58 C57 1.371 . S
C58 H65 0.930 . S
H59 C56 0.928 . S
H60 C57 0.931 . S
H61 C37 0.930 . S
H62 C34 0.930 . S
H63 C43 0.930 . S
H64 C55 0.929 . S
H65 C58 0.930 . S
C66 C67 1.343 1_655 S
C66 N69 1.368 . S
C66 H71 0.931 . S
C67 C66 1.343 1_455 S
C67 N68 1.381 . S
C67 H95 0.930 . S
N68 C67 1.381 . S
N68 C70 1.340 . S
N69 C66 1.368 . S
N69 C70 1.321 1_655 S
N69 Co72 2.135 . S
C70 N68 1.340 . S
C70 N69 1.321 1_455 S
C70 H94 0.930 . S
H71 C66 0.931 . S
Co72 N69 2.135 . S
Co72 N75 2.121 . S
Co72 O80 2.055 . S
Co72 O83 2.039 . S
Co72 N86 2.140 . S
C73 O74 1.227 . S
C73 O83 1.265 . S
O74 C73 1.227 . S
N75 Co72 2.121 . S
N75 C77 1.375 . S
N75 C78 1.313 . S
C76 C77 1.338 . S
C76 N79 1.377 . S
C76 H96 0.930 . S
C77 N75 1.375 . S
C77 C76 1.338 . S
C77 H81 0.931 . S
C78 N75 1.313 . S
C78 N79 1.344 . S
C78 H82 0.930 . S
N79 C76 1.377 . S
N79 C78 1.344 . S
O80 Co72 2.055 . S
O80 C84 1.253 . S
H81 C77 0.931 . S
H82 C78 0.930 . S
O83 Co72 2.039 . S
O83 C73 1.265 . S
C84 O80 1.253 . S
C84 O85 1.227 . S
O85 C84 1.227 . S
N86 Co72 2.140 . S
N86 C89 1.346 . S
N86 C90 1.345 . S
C87 C88 1.387 . S
C87 C91 1.391 . S
C88 C87 1.387 . S
C88 C89 1.369 . S
C88 H97 0.929 . S
C89 N86 1.346 . S
C89 C88 1.369 . S
C89 H92 0.928 . S
C90 N86 1.345 . S
C90 C91 1.371 . S
C90 H93 0.931 . S
C91 C87 1.391 . S
C91 C90 1.371 . S
C91 H98 0.930 . S
H92 C89 0.928 . S
H93 C90 0.931 . S
H94 C70 0.930 . S
H95 C67 0.930 . S
H96 C76 0.930 . S
H97 C88 0.929 . S
H98 C91 0.930 . S
C99 C100 1.351 . S
C99 N102 1.368 . S
C99 H104 0.931 . S
C100 C99 1.351 . S
C100 N101 1.373 . S
C100 H128 0.930 1_556 S
N101 C100 1.373 . S
N101 C103 1.340 . S
N102 C99 1.368 . S
N102 C103 1.321 . S
N102 Co105 2.135 . S
C103 N101 1.340 . S
C103 N102 1.321 . S
C103 H127 0.930 . S
H104 C99 0.931 . S
Co105 N102 2.135 . S
Co105 N108 2.121 . S
Co105 O113 2.055 . S
Co105 O116 2.039 . S
Co105 N119 2.140 . S
C106 O107 1.227 . S
C106 O116 1.265 . S
O107 C106 1.227 . S
N108 Co105 2.121 . S
N108 C110 1.375 . S
N108 C111 1.313 . S
C109 C110 1.338 . S
C109 N112 1.377 . S
C109 H129 0.930 . S
C110 N108 1.375 . S
C110 C109 1.338 . S
C110 H114 0.931 . S
C111 N108 1.313 . S
C111 N112 1.344 . S
C111 H115 0.930 . S
N112 C109 1.377 . S
N112 C111 1.344 . S
O113 Co105 2.055 . S
O113 C117 1.253 . S
H114 C110 0.931 . S
H115 C111 0.930 . S
O116 Co105 2.039 . S
O116 C106 1.265 . S
C117 O113 1.253 . S
C117 O118 1.227 . S
O118 C117 1.227 . S
N119 Co105 2.140 . S
N119 C122 1.346 . S
N119 C123 1.345 . S
C120 C121 1.387 . S
C120 C124 1.391 . S
C121 C120 1.387 . S
C121 C122 1.369 . S
C121 H130 0.929 . S
C122 N119 1.346 . S
C122 C121 1.369 . S
C122 H125 0.928 . S
C123 N119 1.345 . S
C123 C124 1.371 . S
C123 H126 0.931 . S
C124 C120 1.391 . S
C124 C123 1.371 . S
C124 H131 0.930 . S
H125 C122 0.928 . S
H126 C123 0.931 . S
H127 C103 0.930 . S
H128 C100 0.930 1_554 S
H129 C109 0.930 . S
H130 C121 0.929 . S
H131 C124 0.930 . S
C132 C133 1.351 . S
C132 N135 1.368 . S
C132 H137 0.931 . S
C133 C132 1.351 . S
C133 N134 1.373 . S
C133 H161 0.930 . S
N134 C133 1.373 . S
N134 C136 1.340 . S
N135 C132 1.368 . S
N135 C136 1.321 . S
N135 Co138 2.135 . S
C136 N134 1.340 . S
C136 N135 1.321 . S
C136 H160 0.930 . S
H137 C132 0.931 . S
Co138 N135 2.135 . S
Co138 N141 2.121 . S
Co138 O146 2.055 . S
Co138 O149 2.039 . S
Co138 N152 2.140 . S
C139 O140 1.227 . S
C139 O149 1.265 . S
O140 C139 1.227 . S
N141 Co138 2.121 . S
N141 C143 1.375 . S
N141 C144 1.313 . S
C142 C143 1.338 . S
C142 N145 1.377 . S
C142 H162 0.930 . S
C143 N141 1.375 . S
C143 C142 1.338 . S
C143 H147 0.931 . S
C144 N141 1.313 . S
C144 N145 1.344 . S
C144 H148 0.930 . S
N145 C142 1.377 . S
N145 C144 1.344 . S
O146 Co138 2.055 . S
O146 C150 1.253 . S
H147 C143 0.931 . S
H148 C144 0.930 . S
O149 Co138 2.039 . S
O149 C139 1.265 . S
C150 O146 1.253 . S
C150 O151 1.227 . S
O151 C150 1.227 . S
N152 Co138 2.140 . S
N152 C155 1.346 . S
N152 C156 1.345 . S
C153 C154 1.387 . S
C153 C157 1.391 . S
C154 C153 1.387 . S
C154 C155 1.369 . S
C154 H163 0.929 . S
C155 N152 1.346 . S
C155 C154 1.369 . S
C155 H158 0.928 . S
C156 N152 1.345 . S
C156 C157 1.371 . S
C156 H159 0.931 . S
C157 C153 1.391 . S
C157 C156 1.371 . S
C157 H164 0.930 . S
H158 C155 0.928 . S
H159 C156 0.931 . S
H160 C136 0.930 . S
H161 C133 0.930 . S
H162 C142 0.930 . S
H163 C154 0.929 . S
H164 C157 0.930 . S
C165 C166 1.343 1_545 S
C165 N168 1.368 . S
C165 H170 0.931 . S
C166 C165 1.343 1_565 S
C166 N167 1.381 . S
C166 H194 0.930 . S
N167 C166 1.381 . S
N167 C169 1.340 . S
N168 C165 1.368 . S
N168 C169 1.321 1_545 S
N168 Co171 2.135 . S
C169 N167 1.340 . S
C169 N168 1.321 1_565 S
C169 H193 0.930 . S
H170 C165 0.931 . S
Co171 N168 2.135 . S
Co171 N174 2.121 . S
Co171 O179 2.055 . S
Co171 O182 2.039 . S
Co171 N185 2.140 . S
C172 O173 1.227 . S
C172 O182 1.265 . S
O173 C172 1.227 . S
N174 Co171 2.121 . S
N174 C176 1.375 . S
N174 C177 1.313 . S
C175 C176 1.338 . S
C175 N178 1.377 . S
C175 H195 0.930 . S
C176 N174 1.375 . S
C176 C175 1.338 . S
C176 H180 0.931 . S
C177 N174 1.313 . S
C177 N178 1.344 . S
C177 H181 0.930 . S
N178 C175 1.377 . S
N178 C177 1.344 . S
O179 Co171 2.055 . S
O179 C183 1.253 . S
H180 C176 0.931 . S
H181 C177 0.930 . S
O182 Co171 2.039 . S
O182 C172 1.265 . S
C183 O179 1.253 . S
C183 O184 1.227 . S
O184 C183 1.227 . S
N185 Co171 2.140 . S
N185 C188 1.346 . S
N185 C189 1.345 . S
C186 C187 1.387 . S
C186 C190 1.391 . S
C187 C186 1.387 . S
C187 C188 1.369 . S
C187 H196 0.929 . S
C188 N185 1.346 . S
C188 C187 1.369 . S
C188 H191 0.928 . S
C189 N185 1.345 . S
C189 C190 1.371 . S
C189 H192 0.931 . S
C190 C186 1.391 . S
C190 C189 1.371 . S
C190 H197 0.930 . S
H191 C188 0.928 . S
H192 C189 0.931 . S
H193 C169 0.930 . S
H194 C166 0.930 . S
H195 C175 0.930 . S
H196 C187 0.929 . S
H197 C190 0.930 . S
C198 C199 1.351 . S
C198 N201 1.368 . S
C198 H203 0.931 . S
C199 C198 1.351 . S
C199 N200 1.373 . S
C199 H227 0.930 1_554 S
N200 C199 1.373 . S
N200 C202 1.340 . S
N201 C198 1.368 . S
N201 C202 1.321 . S
N201 Co204 2.135 . S
C202 N200 1.340 . S
C202 N201 1.321 . S
C202 H226 0.930 . S
H203 C198 0.931 . S
Co204 N201 2.135 . S
Co204 N207 2.121 . S
Co204 O212 2.055 . S
Co204 O215 2.039 . S
Co204 N218 2.140 . S
C205 O206 1.227 . S
C205 O215 1.265 . S
O206 C205 1.227 . S
N207 Co204 2.121 . S
N207 C209 1.375 . S
N207 C210 1.313 . S
C208 C209 1.338 . S
C208 N211 1.377 . S
C208 H228 0.930 . S
C209 N207 1.375 . S
C209 C208 1.338 . S
C209 H213 0.931 . S
C210 N207 1.313 . S
C210 N211 1.344 . S
C210 H214 0.930 . S
N211 C208 1.377 . S
N211 C210 1.344 . S
O212 Co204 2.055 . S
O212 C216 1.253 . S
H213 C209 0.931 . S
H214 C210 0.930 . S
O215 Co204 2.039 . S
O215 C205 1.265 . S
C216 O212 1.253 . S
C216 O217 1.227 . S
O217 C216 1.227 . S
N218 Co204 2.140 . S
N218 C221 1.346 . S
N218 C222 1.345 . S
C219 C220 1.387 . S
C219 C223 1.391 . S
C220 C219 1.387 . S
C220 C221 1.369 . S
C220 H229 0.929 . S
C221 N218 1.346 . S
C221 C220 1.369 . S
C221 H224 0.928 . S
C222 N218 1.345 . S
C222 C223 1.371 . S
C222 H225 0.931 . S
C223 C219 1.391 . S
C223 C222 1.371 . S
C223 H230 0.930 . S
H224 C221 0.928 . S
H225 C222 0.931 . S
H226 C202 0.930 . S
H227 C199 0.930 1_556 S
H228 C208 0.930 . S
H229 C220 0.929 . S
H230 C223 0.930 . S
C231 C232 1.343 1_565 S
C231 N234 1.368 . S
C231 H236 0.931 . S
C232 C231 1.343 1_545 S
C232 N233 1.381 . S
C232 H260 0.930 . S
N233 C232 1.381 . S
N233 C235 1.340 . S
N234 C231 1.368 . S
N234 C235 1.321 1_565 S
N234 Co237 2.135 . S
C235 N233 1.340 . S
C235 N234 1.321 1_545 S
C235 H259 0.930 . S
H236 C231 0.931 . S
Co237 N234 2.135 . S
Co237 N240 2.121 . S
Co237 O245 2.055 . S
Co237 O248 2.039 . S
Co237 N251 2.140 . S
C238 O239 1.227 . S
C238 O248 1.265 . S
O239 C238 1.227 . S
N240 Co237 2.121 . S
N240 C242 1.375 . S
N240 C243 1.313 . S
C241 C242 1.338 . S
C241 N244 1.377 . S
C241 H261 0.930 . S
C242 N240 1.375 . S
C242 C241 1.338 . S
C242 H246 0.931 . S
C243 N240 1.313 . S
C243 N244 1.344 . S
C243 H247 0.930 . S
N244 C241 1.377 . S
N244 C243 1.344 . S
O245 Co237 2.055 . S
O245 C249 1.253 . S
H246 C242 0.931 . S
H247 C243 0.930 . S
O248 Co237 2.039 . S
O248 C238 1.265 . S
C249 O245 1.253 . S
C249 O250 1.227 . S
O250 C249 1.227 . S
N251 Co237 2.140 . S
N251 C254 1.346 . S
N251 C255 1.345 . S
C252 C253 1.387 . S
C252 C256 1.391 . S
C253 C252 1.387 . S
C253 C254 1.369 . S
C253 H262 0.929 . S
C254 N251 1.346 . S
C254 C253 1.369 . S
C254 H257 0.928 . S
C255 N251 1.345 . S
C255 C256 1.371 . S
C255 H258 0.931 . S
C256 C252 1.391 . S
C256 C255 1.371 . S
C256 H263 0.930 . S
H257 C254 0.928 . S
H258 C255 0.931 . S
H259 C235 0.930 . S
H260 C232 0.930 . S
H261 C241 0.930 . S
H262 C253 0.929 . S
H263 C256 0.930 . S
H264 C270 0.930 . S
H265 C273 0.930 . S
H266 C274 0.930 . S
H267 C275 0.930 . S
H268 C278 0.930 . S
H269 C279 0.930 . S
C270 H264 0.930 . S
C270 C271 1.355 . S
C270 C272 1.415 . S
C271 C270 1.355 . S
C271 C273 1.419 . S
C272 C270 1.415 . S
C272 C277 1.425 . S
C272 C279 1.409 . S
C273 H265 0.930 . S
C273 C271 1.419 . S
C273 C274 1.362 . S
C274 H266 0.930 . S
C274 C273 1.362 . S
C274 C277 1.409 . S
C275 H267 0.930 . S
C275 C276 1.355 . S
C275 C277 1.415 . S
C276 C275 1.355 . S
C276 C278 1.419 . S
C277 C272 1.425 . S
C277 C274 1.409 . S
C277 C275 1.415 . S
C278 H268 0.930 . S
C278 C276 1.419 . S
C278 C279 1.362 . S
C279 H269 0.930 . S
C279 C272 1.409 . S
C279 C278 1.362 . S
H280 C286 0.930 1_655 S
H281 C289 0.930 . S
H282 C290 0.930 . S
H283 C291 0.930 . S
H284 C294 0.930 . S
H285 C295 0.930 1_655 S
C286 H280 0.930 1_455 S
C286 C287 1.355 . S
C286 C288 1.415 . S
C287 C286 1.355 . S
C287 C289 1.419 . S
C288 C286 1.415 . S
C288 C293 1.425 . S
C288 C295 1.409 . S
C289 H281 0.930 . S
C289 C287 1.419 . S
C289 C290 1.362 . S
C290 H282 0.930 . S
C290 C289 1.362 . S
C290 C293 1.409 . S
C291 H283 0.930 . S
C291 C292 1.355 . S
C291 C293 1.415 . S
C292 C291 1.355 . S
C292 C294 1.419 . S
C293 C288 1.425 . S
C293 C290 1.409 . S
C293 C291 1.415 . S
C294 H284 0.930 . S
C294 C292 1.419 . S
C294 C295 1.362 . S
C295 H285 0.930 1_455 S
C295 C288 1.409 . S
C295 C294 1.362 . S
H296 C302 0.930 . S
H297 C305 0.930 . S
H298 C306 0.930 . S
H299 C307 0.930 . S
H300 C310 0.930 . S
H301 C311 0.930 . S
C302 H296 0.930 . S
C302 C303 1.355 . S
C302 C304 1.415 . S
C303 C302 1.355 . S
C303 C305 1.419 . S
C304 C302 1.415 . S
C304 C309 1.425 . S
C304 C311 1.409 . S
C305 H297 0.930 . S
C305 C303 1.419 . S
C305 C306 1.362 . S
C306 H298 0.930 . S
C306 C305 1.362 . S
C306 C309 1.409 . S
C307 H299 0.930 . S
C307 C308 1.355 . S
C307 C309 1.415 . S
C308 C307 1.355 . S
C308 C310 1.419 . S
C309 C304 1.425 . S
C309 C306 1.409 . S
C309 C307 1.415 . S
C310 H300 0.930 . S
C310 C308 1.419 . S
C310 C311 1.362 . S
C311 H301 0.930 . S
C311 C304 1.409 . S
C311 C310 1.362 . S
H312 C318 0.930 . S
H313 C321 0.917 1_556 S
H314 C322 0.930 1_455 S
H315 C323 0.930 1_455 S
H316 C326 0.930 . S
H317 C327 0.930 . S
C318 H312 0.930 . S
C318 C319 1.355 . S
C318 C320 1.415 . S
C319 C318 1.355 . S
C319 C321 1.422 . S
C320 C318 1.415 . S
C320 C325 1.425 . S
C320 C327 1.409 . S
C321 H313 0.917 1_554 S
C321 C319 1.422 . S
C321 C322 1.372 . S
C322 H314 0.930 1_655 S
C322 C321 1.372 . S
C322 C325 1.409 . S
C323 H315 0.930 1_655 S
C323 C324 1.355 . S
C323 C325 1.415 . S
C324 C323 1.355 . S
C324 C326 1.419 . S
C325 C320 1.425 . S
C325 C322 1.409 . S
C325 C323 1.415 . S
C326 H316 0.930 . S
C326 C324 1.419 . S
C326 C327 1.362 . S
C327 H317 0.930 . S
C327 C320 1.409 . S
C327 C326 1.362 . S
H328 C334 0.930 . S
H329 C337 0.930 . S
H330 C338 0.930 . S
H331 C339 0.930 . S
H332 C342 0.930 1_565 S
H333 C343 0.930 . S
C334 H328 0.930 . S
C334 C335 1.355 . S
C334 C336 1.415 . S
C335 C334 1.355 . S
C335 C337 1.419 . S
C336 C334 1.415 . S
C336 C341 1.425 . S
C336 C343 1.409 . S
C337 H329 0.930 . S
C337 C335 1.419 . S
C337 C338 1.362 . S
C338 H330 0.930 . S
C338 C337 1.362 . S
C338 C341 1.409 . S
C339 H331 0.930 . S
C339 C340 1.355 . S
C339 C341 1.415 . S
C340 C339 1.355 . S
C340 C342 1.419 . S
C341 C336 1.425 . S
C341 C338 1.409 . S
C341 C339 1.415 . S
C342 H332 0.930 1_545 S
C342 C340 1.419 . S
C342 C343 1.362 . S
C343 H333 0.930 . S
C343 C336 1.409 . S
C343 C342 1.362 . S
H344 C350 0.930 . S
H345 C353 0.930 . S
H346 C354 0.930 . S
H347 C355 0.930 . S
H348 C358 0.930 . S
H349 C359 0.930 . S
C350 H344 0.930 . S
C350 C351 1.355 . S
C350 C352 1.415 . S
C351 C350 1.355 . S
C351 C353 1.419 . S
C352 C350 1.415 . S
C352 C357 1.425 . S
C352 C359 1.409 . S
C353 H345 0.930 . S
C353 C351 1.419 . S
C353 C354 1.362 . S
C354 H346 0.930 . S
C354 C353 1.362 . S
C354 C357 1.409 . S
C355 H347 0.930 . S
C355 C356 1.355 . S
C355 C357 1.415 . S
C356 C355 1.355 . S
C356 C358 1.419 . S
C357 C352 1.425 . S
C357 C354 1.409 . S
C357 C355 1.415 . S
C358 H348 0.930 . S
C358 C356 1.419 . S
C358 C359 1.362 . S
C359 H349 0.930 . S
C359 C352 1.409 . S
C359 C358 1.362 . S
H360 C366 0.930 . S
H361 C369 0.930 1_554 S
H362 C370 0.930 1_545 S
H363 C371 0.930 1_545 S
H364 C374 0.930 . S
H365 C375 0.930 . S
C366 H360 0.930 . S
C366 C367 1.355 . S
C366 C368 1.415 . S
C367 C366 1.355 . S
C367 C369 1.419 . S
C368 C366 1.415 . S
C368 C373 1.425 . S
C368 C375 1.409 . S
C369 H361 0.930 1_556 S
C369 C367 1.419 . S
C369 C370 1.362 . S
C370 H362 0.930 1_565 S
C370 C369 1.362 . S
C370 C373 1.409 . S
C371 H363 0.930 1_565 S
C371 C372 1.355 . S
C371 C373 1.415 . S
C372 C371 1.355 . S
C372 C374 1.419 . S
C373 C368 1.425 . S
C373 C370 1.409 . S
C373 C371 1.415 . S
C374 H364 0.930 . S
C374 C372 1.419 . S
C374 C375 1.362 . S
C375 H365 0.930 . S
C375 C368 1.409 . S
C375 C374 1.362 . S
H376 C382 0.930 . S
H377 C385 0.930 . S
H378 C386 0.930 . S
H379 C387 0.930 . S
H380 C390 0.930 . S
H381 C391 0.930 . S
C382 H376 0.930 . S
C382 C383 1.355 . S
C382 C384 1.415 . S
C383 C382 1.355 . S
C383 C385 1.419 . S
C384 C382 1.415 . S
C384 C389 1.425 . S
C384 C391 1.409 . S
C385 H377 0.930 . S
C385 C383 1.419 . S
C385 C386 1.362 . S
C386 H378 0.930 . S
C386 C385 1.362 . S
C386 C389 1.409 . S
C387 H379 0.930 . S
C387 C388 1.355 . S
C387 C389 1.415 . S
C388 C387 1.355 . S
C388 C390 1.419 . S
C389 C384 1.425 . S
C389 C386 1.409 . S
C389 C387 1.415 . S
C390 H380 0.930 . S
C390 C388 1.419 . S
C390 C391 1.362 . S
C391 H381 0.930 . S
C391 C384 1.409 . S
C391 C390 1.362 . S
H392 C398 0.930 . S
H393 C401 0.930 1_565 S
H394 C402 0.930 . S
H395 C403 0.930 . S
H396 C406 0.930 . S
H397 C407 0.930 . S
C398 H392 0.930 . S
C398 C399 1.355 . S
C398 C400 1.415 1_565 S
C399 C398 1.355 . S
C399 C401 1.419 1_565 S
C400 C398 1.415 1_545 S
C400 C405 1.425 . S
C400 C407 1.409 . S
C401 H393 0.930 1_545 S
C401 C399 1.419 1_545 S
C401 C402 1.362 . S
C402 H394 0.930 . S
C402 C401 1.362 . S
C402 C405 1.409 . S
C403 H395 0.930 . S
C403 C404 1.355 . S
C403 C405 1.415 . S
C404 C403 1.355 . S
C404 C406 1.419 . S
C405 C400 1.425 . S
C405 C402 1.409 . S
C405 C403 1.415 . S
C406 H396 0.930 . S
C406 C404 1.419 . S
C406 C407 1.362 . S
C407 H397 0.930 . S
C407 C400 1.409 . S
C407 C406 1.362 . S
H408 C414 0.930 . S
H409 C417 0.930 . S
H410 C418 0.930 . S
H411 C419 0.930 . S
H412 C422 0.930 . S
H413 C423 0.930 . S
C414 H408 0.930 . S
C414 C415 1.355 . S
C414 C416 1.415 . S
C415 C414 1.355 . S
C415 C417 1.419 . S
C416 C414 1.415 . S
C416 C421 1.425 . S
C416 C423 1.409 . S
C417 H409 0.930 . S
C417 C415 1.419 . S
C417 C418 1.362 . S
C418 H410 0.930 . S
C418 C417 1.362 . S
C418 C421 1.409 . S
C419 H411 0.930 . S
C419 C420 1.355 . S
C419 C421 1.415 . S
C420 C419 1.355 . S
C420 C422 1.419 . S
C421 C416 1.425 . S
C421 C418 1.409 . S
C421 C419 1.415 . S
C422 H412 0.930 . S
C422 C420 1.419 . S
C422 C423 1.362 . S
C423 H413 0.930 . S
C423 C416 1.409 . S
C423 C422 1.362 . S
H424 C430 0.930 1_545 S
H425 C433 0.930 . S
H426 C434 0.930 . S
H427 C435 0.930 . S
H428 C438 0.930 . S
H429 C439 0.930 . S
C430 H424 0.930 1_565 S
C430 C431 1.355 1_565 S
C430 C432 1.415 . S
C431 C430 1.355 1_545 S
C431 C433 1.419 . S
C432 C430 1.415 . S
C432 C437 1.425 . S
C432 C439 1.409 . S
C433 H425 0.930 . S
C433 C431 1.419 . S
C433 C434 1.362 1_545 S
C434 H426 0.930 . S
C434 C433 1.362 1_565 S
C434 C437 1.409 . S
C435 H427 0.930 . S
C435 C436 1.355 . S
C435 C437 1.415 . S
C436 C435 1.355 . S
C436 C438 1.419 . S
C437 C432 1.425 . S
C437 C434 1.409 . S
C437 C435 1.415 . S
C438 H428 0.930 . S
C438 C436 1.419 . S
C438 C439 1.362 . S
C439 H429 0.930 . S
C439 C432 1.409 . S
C439 C438 1.362 . S
H440 C446 0.930 . S
H441 C449 0.930 . S
H442 C450 0.930 . S
H443 C451 0.930 . S
H444 C454 0.930 . S
H445 C455 0.930 . S
C446 H440 0.930 . S
C446 C447 1.355 . S
C446 C448 1.415 . S
C447 C446 1.355 . S
C447 C449 1.419 . S
C448 C446 1.415 . S
C448 C453 1.425 . S
C448 C455 1.409 . S
C449 H441 0.930 . S
C449 C447 1.419 . S
C449 C450 1.362 . S
C450 H442 0.930 . S
C450 C449 1.362 . S
C450 C453 1.409 . S
C451 H443 0.930 . S
C451 C452 1.355 . S
C451 C453 1.415 . S
C452 C451 1.355 . S
C452 C454 1.419 . S
C453 C448 1.425 . S
C453 C450 1.409 . S
C453 C451 1.415 . S
C454 H444 0.930 . S
C454 C452 1.419 . S
C454 C455 1.362 . S
C455 H445 0.930 . S
C455 C448 1.409 . S
C455 C454 1.362 . S
H456 C462 0.930 . S
H457 C465 0.930 . S
H458 C466 0.930 . S
H459 C467 0.930 . S
H460 C470 0.930 . S
H461 C471 0.930 . S
C462 H456 0.930 . S
C462 C463 1.355 . S
C462 C464 1.415 . S
C463 C462 1.355 . S
C463 C465 1.419 . S
C464 C462 1.415 . S
C464 C469 1.425 . S
C464 C471 1.409 . S
C465 H457 0.930 . S
C465 C463 1.419 . S
C465 C466 1.362 . S
C466 H458 0.930 . S
C466 C465 1.362 . S
C466 C469 1.409 . S
C467 H459 0.930 . S
C467 C468 1.355 . S
C467 C469 1.415 . S
C468 C467 1.355 . S
C468 C470 1.419 . S
C469 C464 1.425 . S
C469 C466 1.409 . S
C469 C467 1.415 . S
C470 H460 0.930 . S
C470 C468 1.419 . S
C470 C471 1.362 . S
C471 H461 0.930 . S
C471 C464 1.409 . S
C471 C470 1.362 . S
H472 C478 0.930 . S
H473 C481 0.930 . S
H474 C482 0.930 . S
H475 C483 0.930 . S
H476 C486 0.930 . S
H477 C487 0.930 . S
C478 H472 0.930 . S
C478 C479 1.355 . S
C478 C480 1.415 . S
C479 C478 1.355 . S
C479 C481 1.419 . S
C480 C478 1.415 . S
C480 C485 1.425 . S
C480 C487 1.409 . S
C481 H473 0.930 . S
C481 C479 1.419 . S
C481 C482 1.362 . S
C482 H474 0.930 . S
C482 C481 1.362 . S
C482 C485 1.409 . S
C483 H475 0.930 . S
C483 C484 1.355 . S
C483 C485 1.415 1_655 S
C484 C483 1.355 . S
C484 C486 1.419 1_655 S
C485 C480 1.425 . S
C485 C482 1.409 . S
C485 C483 1.415 1_455 S
C486 H476 0.930 . S
C486 C484 1.419 1_455 S
C486 C487 1.362 . S
C487 H477 0.930 . S
C487 C480 1.409 . S
C487 C486 1.362 . S
H488 C494 0.930 . S
H489 C497 0.930 . S
H490 C498 0.930 . S
H491 C499 0.930 . S
H492 C502 0.930 . S
H493 C503 0.930 . S
C494 H488 0.930 . S
C494 C495 1.355 . S
C494 C496 1.415 . S
C495 C494 1.355 . S
C495 C497 1.419 . S
C496 C494 1.415 . S
C496 C501 1.425 . S
C496 C503 1.409 . S
C497 H489 0.930 . S
C497 C495 1.419 . S
C497 C498 1.362 . S
C498 H490 0.930 . S
C498 C497 1.362 . S
C498 C501 1.409 . S
C499 H491 0.930 . S
C499 C500 1.355 . S
C499 C501 1.415 . S
C500 C499 1.355 . S
C500 C502 1.419 . S
C501 C496 1.425 . S
C501 C498 1.409 . S
C501 C499 1.415 . S
C502 H492 0.930 . S
C502 C500 1.419 . S
C502 C503 1.362 . S
C503 H493 0.930 . S
C503 C496 1.409 . S
C503 C502 1.362 . S
H504 C510 0.930 . S
H505 C513 0.930 . S
H506 C514 0.930 . S
H507 C515 0.930 1_455 S
H508 C518 0.930 . S
H509 C519 0.930 . S
C510 H504 0.930 . S
C510 C511 1.355 . S
C510 C512 1.415 . S
C511 C510 1.355 . S
C511 C513 1.419 . S
C512 C510 1.415 . S
C512 C517 1.425 . S
C512 C519 1.409 . S
C513 H505 0.930 . S
C513 C511 1.419 . S
C513 C514 1.362 . S
C514 H506 0.930 . S
C514 C513 1.362 . S
C514 C517 1.409 . S
C515 H507 0.930 1_655 S
C515 C516 1.355 1_655 S
C515 C517 1.415 . S
C516 C515 1.355 1_455 S
C516 C518 1.419 . S
C517 C512 1.425 . S
C517 C514 1.409 . S
C517 C515 1.415 . S
C518 H508 0.930 . S
C518 C516 1.419 . S
C518 C519 1.362 1_455 S
C519 H509 0.930 . S
C519 C512 1.409 . S
C519 C518 1.362 1_655 S
H520 C526 0.930 . S
H521 C529 0.930 . S
H522 C530 0.930 . S
H523 C531 0.930 . S
H524 C534 0.930 . S
H525 C535 0.930 . S
C526 H520 0.930 . S
C526 C527 1.355 . S
C526 C528 1.415 . S
C527 C526 1.355 . S
C527 C529 1.419 . S
C528 C526 1.415 . S
C528 C533 1.425 . S
C528 C535 1.409 . S
C529 H521 0.930 . S
C529 C527 1.419 . S
C529 C530 1.362 . S
C530 H522 0.930 . S
C530 C529 1.362 . S
C530 C533 1.409 . S
C531 H523 0.930 . S
C531 C532 1.355 . S
C531 C533 1.415 . S
C532 C531 1.355 . S
C532 C534 1.419 . S
C533 C528 1.425 . S
C533 C530 1.409 . S
C533 C531 1.415 . S
C534 H524 0.930 . S
C534 C532 1.419 . S
C534 C535 1.362 . S
C535 H525 0.930 . S
C535 C528 1.409 . S
C535 C534 1.362 . S
H536 C542 0.930 . S
H537 C545 0.930 . S
H538 C546 0.930 . S
H539 C547 0.930 . S
H540 C550 0.930 . S
H541 C551 0.930 . S
C542 H536 0.930 . S
C542 C543 1.355 . S
C542 C544 1.415 . S
C543 C542 1.355 . S
C543 C545 1.419 . S
C544 C542 1.415 . S
C544 C549 1.425 . S
C544 C551 1.409 . S
C545 H537 0.930 . S
C545 C543 1.419 . S
C545 C546 1.362 . S
C546 H538 0.930 . S
C546 C545 1.362 . S
C546 C549 1.409 . S
C547 H539 0.930 . S
C547 C548 1.355 . S
C547 C549 1.415 . S
C548 C547 1.355 . S
C548 C550 1.419 . S
C549 C544 1.425 . S
C549 C546 1.409 . S
C549 C547 1.415 . S
C550 H540 0.930 . S
C550 C548 1.419 . S
C550 C551 1.362 . S
C551 H541 0.930 . S
C551 C544 1.409 . S
C551 C550 1.362 . S
H552 C558 0.930 . S
H553 C561 0.930 . S
H554 C562 0.930 . S
H555 C563 0.930 . S
H556 C566 0.930 . S
H557 C567 0.930 . S
C558 H552 0.930 . S
C558 C559 1.355 . S
C558 C560 1.415 . S
C559 C558 1.355 . S
C559 C561 1.419 . S
C560 C558 1.415 . S
C560 C565 1.425 . S
C560 C567 1.409 . S
C561 H553 0.930 . S
C561 C559 1.419 . S
C561 C562 1.362 . S
C562 H554 0.930 . S
C562 C561 1.362 . S
C562 C565 1.409 . S
C563 H555 0.930 . S
C563 C564 1.355 . S
C563 C565 1.415 . S
C564 C563 1.355 . S
C564 C566 1.419 . S
C565 C560 1.425 . S
C565 C562 1.409 . S
C565 C563 1.415 . S
C566 H556 0.930 . S
C566 C564 1.419 . S
C566 C567 1.362 . S
C567 H557 0.930 . S
C567 C560 1.409 . S
C567 C566 1.362 . S
H568 C574 0.930 . S
H569 C577 0.930 . S
H570 C578 0.930 . S
H571 C579 0.930 . S
H572 C582 0.930 . S
H573 C583 0.930 . S
C574 H568 0.930 . S
C574 C575 1.355 . S
C574 C576 1.415 . S
C575 C574 1.355 . S
C575 C577 1.419 . S
C576 C574 1.415 . S
C576 C581 1.425 1_556 S
C576 C583 1.409 . S
C577 H569 0.930 . S
C577 C575 1.419 . S
C577 C578 1.362 1_556 S
C578 H570 0.930 . S
C578 C577 1.362 1_554 S
C578 C581 1.409 . S
C579 H571 0.930 . S
C579 C580 1.355 . S
C579 C581 1.415 . S
C580 C579 1.355 . S
C580 C582 1.419 . S
C581 C576 1.425 1_554 S
C581 C578 1.409 . S
C581 C579 1.415 . S
C582 H572 0.930 . S
C582 C580 1.419 . S
C582 C583 1.362 1_554 S
C583 H573 0.930 . S
C583 C576 1.409 . S
C583 C582 1.362 1_556 S
C271 C18 1.251 . S
C276 C40 1.252 . S
C287 C73 1.255 1_455 S
C292 C51 1.247 . S
C303 C106 1.258 . S
C308 C84 1.235 . S
C319 C117 1.243 1_554 S
C324 C7 1.257 1_655 S
C335 C150 1.248 . S
C340 C238 1.219 1_545 S
C351 C183 1.250 . S
C356 C139 1.253 . S
C367 C216 1.247 1_556 S
C372 C172 1.255 1_565 S
C383 C249 1.238 . S
C388 C205 1.219 . S
C399 N211 1.557 . S
C404 C21 1.609 . S
C415 N244 1.604 . S
C420 C54 1.634 . S
C431 N145 1.610 . S
C436 C87 1.633 . S
C447 N178 1.596 . S
C452 C120 1.633 . S
C463 C153 1.614 . S
C468 N79 1.580 . S
C479 C186 1.610 . S
C484 N112 1.561 . S
C495 C219 1.612 . S
C500 N13 1.549 . S
C511 C252 1.616 . S
C516 N46 1.554 . S
C527 N233 1.307 . S
C532 N2 1.306 . S
C543 N134 1.272 . S
C548 N35 1.276 . S
C559 N68 1.270 . S
C564 N167 1.274 . S
C575 N101 1.228 . S
C580 N200 1.231 . S
