# Generated by pormake.
# Topology uol, (4)-cn, num edge types: 1
# Building blocks:
#     Node 0, Type 0, BuildingBlock: KOZSID_clean_sbu_0, # of connection points: 4
#     Node 1, Type 0, BuildingBlock: KOZSID_clean_sbu_0, # of connection points: 4
#     Node 2, Type 0, BuildingBlock: KOZSID_clean_sbu_0, # of connection points: 4
#     Node 3, Type 0, BuildingBlock: KOZSID_clean_sbu_0, # of connection points: 4
#     Node 4, Type 0, BuildingBlock: KOZSID_clean_sbu_0, # of connection points: 4
#     Node 5, Type 0, BuildingBlock: KOZSID_clean_sbu_0, # of connection points: 4
#     Node 6, Type 0, BuildingBlock: KOZSID_clean_sbu_0, # of connection points: 4
#     Node 7, Type 0, BuildingBlock: KOZSID_clean_sbu_0, # of connection points: 4
#     Node 8, Type 0, BuildingBlock: KOZSID_clean_sbu_0, # of connection points: 4
#     Node 9, Type 0, BuildingBlock: KOZSID_clean_sbu_0, # of connection points: 4
#     Node 10, Type 0, BuildingBlock: KOZSID_clean_sbu_0, # of connection points: 4
#     Node 11, Type 0, BuildingBlock: KOZSID_clean_sbu_0, # of connection points: 4
#     Edge 12, Type (0, 0), BuildingBlock: TEMPAE_clean_linker_10, # of connection points: 2
#     Edge 13, Type (0, 0), BuildingBlock: TEMPAE_clean_linker_10, # of connection points: 2
#     Edge 14, Type (0, 0), BuildingBlock: TEMPAE_clean_linker_10, # of connection points: 2
#     Edge 15, Type (0, 0), BuildingBlock: TEMPAE_clean_linker_10, # of connection points: 2
#     Edge 16, Type (0, 0), BuildingBlock: TEMPAE_clean_linker_10, # of connection points: 2
#     Edge 17, Type (0, 0), BuildingBlock: TEMPAE_clean_linker_10, # of connection points: 2
#     Edge 18, Type (0, 0), BuildingBlock: TEMPAE_clean_linker_10, # of connection points: 2
#     Edge 19, Type (0, 0), BuildingBlock: TEMPAE_clean_linker_10, # of connection points: 2
#     Edge 20, Type (0, 0), BuildingBlock: TEMPAE_clean_linker_10, # of connection points: 2
#     Edge 21, Type (0, 0), BuildingBlock: TEMPAE_clean_linker_10, # of connection points: 2
#     Edge 22, Type (0, 0), BuildingBlock: TEMPAE_clean_linker_10, # of connection points: 2
#     Edge 23, Type (0, 0), BuildingBlock: TEMPAE_clean_linker_10, # of connection points: 2
#     Edge 24, Type (0, 0), BuildingBlock: TEMPAE_clean_linker_10, # of connection points: 2
#     Edge 25, Type (0, 0), BuildingBlock: TEMPAE_clean_linker_10, # of connection points: 2
#     Edge 26, Type (0, 0), BuildingBlock: TEMPAE_clean_linker_10, # of connection points: 2
#     Edge 27, Type (0, 0), BuildingBlock: TEMPAE_clean_linker_10, # of connection points: 2
#     Edge 28, Type (0, 0), BuildingBlock: TEMPAE_clean_linker_10, # of connection points: 2
#     Edge 29, Type (0, 0), BuildingBlock: TEMPAE_clean_linker_10, # of connection points: 2
#     Edge 30, Type (0, 0), BuildingBlock: TEMPAE_clean_linker_10, # of connection points: 2
#     Edge 31, Type (0, 0), BuildingBlock: TEMPAE_clean_linker_10, # of connection points: 2
#     Edge 32, Type (0, 0), BuildingBlock: TEMPAE_clean_linker_10, # of connection points: 2
#     Edge 33, Type (0, 0), BuildingBlock: TEMPAE_clean_linker_10, # of connection points: 2
#     Edge 34, Type (0, 0), BuildingBlock: TEMPAE_clean_linker_10, # of connection points: 2
#     Edge 35, Type (0, 0), BuildingBlock: TEMPAE_clean_linker_10, # of connection points: 2
# Relax obj value: 0.144
# Max RMSD: 0.328
# Mean RMSD: 0.313
data_MOF--net-uol--node1-KOZSID_clean_sbu_0--edge1-TEMPAE_clean_linker_10
_symmetry_space_group_name_H-M    P1
_symmetry_Int_Tables_number       1
_symmetry_cell_setting            triclinic
loop_
_symmetry_equiv_pos_as_xyz
'x, y, z'
_cell_length_a     42.019276
_cell_length_b     44.7741
_cell_length_c     68.133545
_cell_angle_alpha  90.002867
_cell_angle_beta   90.007799
_cell_angle_gamma 117.98752
loop_
_atom_site_label
_atom_site_type_symbol
_atom_site_fract_x
_atom_site_fract_y
_atom_site_fract_z
_atom_type_partial_charge
C0 C 0.18077 0.34169 0.08769 0.0
C1 C 0.17346 0.33377 0.06792 0.0
C2 C 0.13791 0.32546 0.0651 0.0
C3 C 0.12568 0.32917 0.08316 0.0
N4 N 0.15136 0.33944 0.09705 0.0
Co5 Co 0.1459 0.35034 0.12453 0.0
N6 N 0.0927 0.32222 0.12351 0.0
C7 C 0.07291 0.31171 0.10697 0.0
C8 C 0.03669 0.29288 0.11055 0.0
C9 C 0.03338 0.29186 0.13058 0.0
C10 C 0.06789 0.31051 0.13817 0.0
N11 N 0.14006 0.36175 0.15201 0.0
C12 C 0.11125 0.34734 0.16431 0.0
C13 C 0.11875 0.36474 0.18199 0.0
C14 C 0.15322 0.39095 0.18056 0.0
C15 C 0.1649 0.38828 0.16212 0.0
N16 N 0.19916 0.37784 0.12525 0.0
C17 C 0.21796 0.40178 0.1386 0.0
C18 C 0.2544 0.4129 0.1371 0.0
C19 C 0.25859 0.39483 0.12189 0.0
C20 C 0.22438 0.37391 0.11456 0.0
N21 N 0.14142 0.39035 0.11538 0.0
C22 C 0.13915 0.45063 0.10453 0.0
C23 C 0.16444 0.44202 0.09628 0.0
C24 C 0.16515 0.41206 0.10186 0.0
C25 C 0.11451 0.42768 0.11806 0.0
C26 C 0.116 0.3979 0.12319 0.0
N27 N 0.15179 0.31145 0.13383 0.0
C28 C 0.18608 0.29274 0.15418 0.0
C29 C 0.1743 0.26302 0.14329 0.0
C30 C 0.14917 0.25694 0.12821 0.0
C31 C 0.13825 0.28156 0.12369 0.0
C32 C 0.1743 0.31625 0.14941 0.0
H33 H 0.12016 0.27712 0.11148 0.0
H34 H 0.18525 0.33929 0.15776 0.0
H35 H 0.18548 0.4068 0.09545 0.0
H36 H 0.09678 0.38124 0.13376 0.0
C37 C 0.08956 0.31693 0.08855 0.0
C38 C 0.21583 0.35149 0.0971 0.0
C39 C 0.07553 0.31945 0.15908 0.0
C40 C 0.20035 0.40637 0.15499 0.0
H41 H 0.19172 0.33353 0.0568 0.0
H42 H 0.12246 0.31616 0.05173 0.0
H43 H 1.01528 0.28082 0.09989 0.0
H44 H 1.00829 0.27943 0.13861 0.0
H45 H 0.10097 0.35933 0.19448 0.0
H46 H 0.16826 0.40918 0.19183 0.0
H47 H 0.27526 0.43007 0.14689 0.0
H48 H 0.28395 0.39637 0.11746 0.0
H49 H 0.18434 0.45875 0.08591 0.0
H50 H 0.09397 0.43255 0.12467 0.0
H51 H 0.20521 0.29827 0.16605 0.0
H52 H 0.13929 0.23412 0.11947 0.0
C53 C 0.71052 0.15416 0.29401 0.0
C54 C 0.69773 0.17585 0.30068 0.0
C55 C 0.72227 0.19703 0.31395 0.0
C56 C 0.74872 0.18735 0.3146 0.0
N57 N 0.74268 0.16131 0.30257 0.0
Co58 Co 0.77589 0.14108 0.2988 0.0
N59 N 0.80498 0.16447 0.3226 0.0
C60 C 0.80186 0.18831 0.33325 0.0
C61 C 0.82378 0.19865 0.34944 0.0
C62 C 0.84272 0.18086 0.34878 0.0
C63 C 0.83157 0.16092 0.332 0.0
N64 N 0.80968 0.12173 0.29468 0.0
C65 C 0.8388 0.12527 0.3053 0.0
C66 C 0.85695 0.11045 0.29567 0.0
C67 C 0.83907 0.09769 0.27839 0.0
C68 C 0.81113 0.10544 0.27834 0.0
N69 N 0.74525 0.11691 0.27552 0.0
C70 C 0.75413 0.10079 0.26159 0.0
C71 C 0.72819 0.0862 0.24738 0.0
C72 C 0.70123 0.09375 0.25251 0.0
C73 C 0.71228 0.11278 0.26958 0.0
N74 N 0.80862 0.17971 0.28163 0.0
C75 C 0.86181 0.22004 0.25366 0.0
C76 C 0.82487 0.20394 0.2489 0.0
C77 C 0.79876 0.1846 0.26316 0.0
C78 C 0.87087 0.21766 0.27312 0.0
C79 C 0.84434 0.19783 0.28663 0.0
N80 N 0.74522 0.10184 0.31568 0.0
C81 C 0.72346 0.04238 0.32265 0.0
C82 C 0.71619 0.04653 0.34228 0.0
C83 C 0.72126 0.0788 0.34779 0.0
C84 C 0.73542 0.10588 0.33428 0.0
C85 C 0.73784 0.07001 0.30977 0.0
H86 H 0.73985 0.13037 0.33925 0.0
H87 H 0.7444 0.06559 0.29519 0.0
H88 H 0.77084 0.17251 0.25881 0.0
H89 H 0.85399 0.19593 0.30077 0.0
C90 C 0.77646 0.19872 0.32834 0.0
C91 C 0.69177 0.12822 0.27895 0.0
C92 C 0.85228 0.14527 0.32344 0.0
C93 C 0.78524 0.09709 0.26353 0.0
H94 H 0.67318 0.17637 0.29642 0.0
H95 H 0.72041 0.21644 0.3226 0.0
H96 H 0.82593 0.2171 0.36033 0.0
H97 H 0.8639 0.18371 0.35885 0.0
H98 H 0.88122 0.10981 0.30033 0.0
H99 H 0.84595 0.08471 0.26709 0.0
H100 H 0.72846 0.07123 0.23497 0.0
H101 H 0.67642 0.08634 0.24449 0.0
H102 H 0.81618 0.20574 0.23419 0.0
H103 H 0.89878 0.22944 0.27778 0.0
H104 H 0.71884 0.01794 0.31722 0.0
H105 H 0.71585 0.08364 0.36266 0.0
C106 C 0.66922 0.82493 0.4236 0.0
C107 C 0.68516 0.83033 0.40522 0.0
C108 C 0.69929 0.80832 0.4036 0.0
C109 C 0.69116 0.79075 0.42101 0.0
N110 N 0.67266 0.80025 0.43336 0.0
Co111 Co 0.6568 0.78259 0.46025 0.0
N112 N 0.69258 0.76553 0.46227 0.0
C113 C 0.71121 0.76203 0.44713 0.0
C114 C 0.7376 0.75426 0.45305 0.0
C115 C 0.73509 0.75222 0.47309 0.0
C116 C 0.70627 0.75769 0.47841 0.0
N117 N 0.64055 0.76456 0.48706 0.0
C118 C 0.65608 0.7535 0.50085 0.0
C119 C 0.63316 0.74 0.51682 0.0
C120 C 0.60271 0.74301 0.5129 0.0
C121 C 0.6083 0.75781 0.49471 0.0
N122 N 0.62175 0.80039 0.45811 0.0
C123 C 0.59191 0.79058 0.46903 0.0
C124 C 0.57387 0.8087 0.46473 0.0
C125 C 0.5938 0.83123 0.45023 0.0
C126 C 0.62296 0.8256 0.44651 0.0
N127 N 0.6205 0.7386 0.44929 0.0
C128 C 0.56152 0.67623 0.43751 0.0
C129 C 0.5688 0.70697 0.42833 0.0
C130 C 0.59818 0.73759 0.43436 0.0
C131 C 0.58579 0.67766 0.45219 0.0
C132 C 0.61496 0.70876 0.45771 0.0
N133 N 0.6918 0.82634 0.47132 0.0
C134 C 0.70253 0.87336 0.4924 0.0
C135 C 0.73618 0.89329 0.4837 0.0
C136 C 0.74799 0.87816 0.46936 0.0
C137 C 0.72547 0.84463 0.46344 0.0
C138 C 0.68092 0.84025 0.48604 0.0
H139 H 0.73474 0.83395 0.45199 0.0
H140 H 0.65467 0.82638 0.49258 0.0
H141 H 0.60222 0.76066 0.42726 0.0
H142 H 0.63233 0.70869 0.46934 0.0
C143 C 0.70808 0.77255 0.42819 0.0
C144 C 0.65048 0.84304 0.4313 0.0
C145 C 0.69062 0.75241 0.49846 0.0
C146 C 0.58643 0.76978 0.48551 0.0
H147 H 0.68706 0.8487 0.39433 0.0
H148 H 0.71576 0.80708 0.39174 0.0
H149 H 0.7577 0.75227 0.444 0.0
H150 H 0.75295 0.74754 0.48251 0.0
H151 H 0.6375 0.72849 0.5298 0.0
H152 H 0.57956 0.73577 0.52236 0.0
H153 H 0.55015 0.80704 0.47195 0.0
H154 H 0.58775 0.84972 0.44329 0.0
H155 H 0.5518 0.70758 0.41657 0.0
H156 H 0.58173 0.65506 0.45995 0.0
H157 H 0.6925 0.88343 0.5039 0.0
H158 H 0.77381 0.89243 0.46221 0.0
C159 C 0.86024 0.69034 0.58877 0.0
C160 C 0.86965 0.69976 0.56933 0.0
C161 C 0.90543 0.70823 0.56752 0.0
C162 C 0.91575 0.7031 0.5858 0.0
N163 N 0.88868 0.69187 0.59889 0.0
Co164 Co 0.89134 0.67827 0.62617 0.0
N165 N 0.94447 0.70642 0.62686 0.0
C166 C 0.96599 0.71771 0.611 0.0
C167 C 1.00182 0.73583 0.61577 0.0
C168 C 1.00292 0.73561 0.63589 0.0
C169 C 0.96754 0.71726 0.64231 0.0
N170 N 0.8945 0.66428 0.65343 0.0
C171 C 0.92186 0.67803 0.66669 0.0
C172 C 0.91262 0.65932 0.68391 0.0
C173 C 0.87857 0.63289 0.68116 0.0
C174 C 0.86883 0.63682 0.66246 0.0
N175 N 0.8381 0.65076 0.62517 0.0
C176 C 0.81809 0.62559 0.63762 0.0
C177 C 0.78184 0.61455 0.63514 0.0
C178 C 0.77906 0.6339 0.62021 0.0
C179 C 0.8139 0.65548 0.61397 0.0
N180 N 0.89679 0.63917 0.6163 0.0
C181 C 0.89935 0.57918 0.60506 0.0
C182 C 0.87515 0.58868 0.59624 0.0
C183 C 0.87431 0.6185 0.602 0.0
C184 C 0.92293 0.60128 0.61929 0.0
C185 C 0.92132 0.63091 0.6246 0.0
N186 N 0.88465 0.71617 0.63632 0.0
C187 C 0.85006 0.73353 0.65729 0.0
C188 C 0.86429 0.76501 0.64811 0.0
C189 C 0.89046 0.77237 0.63344 0.0
C190 C 0.90023 0.74746 0.6277 0.0
C191 C 0.86074 0.7098 0.65138 0.0
H192 H 0.91937 0.75303 0.61591 0.0
H193 H 0.84818 0.68561 0.65854 0.0
H194 H 0.85488 0.6245 0.5951 0.0
H195 H 0.93945 0.64669 0.63586 0.0
C196 C 0.95126 0.71424 0.59214 0.0
C197 C 0.82397 0.6792 0.59701 0.0
C198 C 0.95745 0.70733 0.66288 0.0
C199 C 0.83412 0.61944 0.65423 0.0
H200 H 0.85255 0.70064 0.55771 0.0
H201 H 0.92219 0.71829 0.55464 0.0
H202 H 0.02441 0.74822 0.60586 0.0
H203 H 0.02709 0.74689 0.64478 0.0
H204 H 0.92879 0.6642 0.69705 0.0
H205 H 0.86238 0.61389 0.69182 0.0
H206 H 0.76007 0.5965 0.64413 0.0
H207 H 0.75412 0.6327 0.61525 0.0
H208 H 0.8568 0.57319 0.58488 0.0
H209 H 0.94197 0.59535 0.6268 0.0
H210 H 0.83004 0.72694 0.66878 0.0
H211 H 0.90217 0.79657 0.62601 0.0
C212 C 0.32479 0.87728 0.79191 0.0
C213 C 0.33793 0.85743 0.80089 0.0
C214 C 0.31643 0.8426 0.81678 0.0
C215 C 0.29117 0.85381 0.81656 0.0
N216 N 0.29491 0.87448 0.80137 0.0
Co217 Co 0.26358 0.89613 0.79612 0.0
N218 N 0.22638 0.86603 0.81519 0.0
C219 C 0.23095 0.84713 0.82915 0.0
C220 C 0.20039 0.82838 0.83993 0.0
C221 C 0.17492 0.83601 0.83233 0.0
C222 C 0.19152 0.85916 0.8173 0.0
N223 N 0.23233 0.91759 0.7909 0.0
C224 C 0.19698 0.90659 0.79519 0.0
C225 C 0.18588 0.9297 0.78894 0.0
C226 C 0.2154 0.95607 0.78052 0.0
C227 C 0.2428 0.94763 0.7821 0.0
N228 N 0.30148 0.92644 0.77727 0.0
C229 C 0.30427 0.9556 0.77005 0.0
C230 C 0.33377 0.97239 0.75815 0.0
C231 C 0.35104 0.95291 0.75806 0.0
C232 C 0.33108 0.92517 0.76994 0.0
N233 N 0.23766 0.86349 0.77486 0.0
C234 C 0.18063 0.82137 0.74966 0.0
C235 C 0.20397 0.85511 0.74474 0.0
C236 C 0.23211 0.87556 0.75742 0.0
C237 C 0.18881 0.80838 0.76661 0.0
C238 C 0.21786 0.82962 0.77874 0.0
N239 N 0.28751 0.9295 0.81741 0.0
C240 C 0.34017 0.97555 0.83222 0.0
C241 C 0.31836 0.98446 0.84397 0.0
C242 C 0.28104 0.96383 0.84292 0.0
C243 C 0.26635 0.93678 0.82976 0.0
C244 C 0.32423 0.94801 0.81904 0.0
H245 H 0.23745 0.92268 0.82912 0.0
H246 H 0.3416 0.94249 0.80975 0.0
H247 H 0.24732 0.90193 0.75377 0.0
H248 H 0.22255 0.8191 0.79199 0.0
C249 C 0.26177 0.84293 0.82924 0.0
C250 C 0.34339 0.9004 0.77553 0.0
C251 C 0.1741 0.87571 0.80634 0.0
C252 C 0.27675 0.96444 0.77316 0.0
H253 H 0.36105 0.85439 0.79663 0.0
H254 H 0.31862 0.82525 0.82709 0.0
H255 H 0.19657 0.81018 0.85134 0.0
H256 H 0.1473 0.82567 0.83731 0.0
H257 H 0.15934 0.92776 0.79043 0.0
H258 H 0.21639 0.9782 0.77353 0.0
H259 H 0.34162 0.99582 0.75029 0.0
H260 H 0.37599 0.95889 0.75052 0.0
H261 H 0.19912 0.86645 0.7318 0.0
H262 H 0.17225 0.78222 0.7708 0.0
H263 H 0.36922 0.99052 0.83259 0.0
H264 H 0.26296 0.96891 0.85199 0.0
C265 C 0.36998 0.20851 0.92359 0.0
C266 C 0.35332 0.20352 0.90542 0.0
C267 C 0.3387 0.2252 0.90454 0.0
C268 C 0.34716 0.24211 0.92216 0.0
N269 N 0.36628 0.2325 0.93399 0.0
Co270 Co 0.38271 0.24923 0.96097 0.0
N271 N 0.3469 0.26615 0.96381 0.0
C272 C 0.32805 0.27031 0.94901 0.0
C273 C 0.30183 0.27794 0.95544 0.0
C274 C 0.30472 0.27922 0.97546 0.0
C275 C 0.33355 0.27342 0.98026 0.0
N276 N 0.39928 0.26599 0.98795 0.0
C277 C 0.38391 0.27642 1.00216 0.0
C278 C 0.4069 0.28905 0.01818 0.0
C279 C 0.43729 0.28622 0.01383 0.0
C280 C 0.43155 0.27234 0.99538 0.0
N281 N 0.41815 0.23201 0.95791 0.0
C282 C 0.44831 0.24172 0.96855 0.0
C283 C 0.46681 0.22436 0.96347 0.0
C284 C 0.44688 0.20246 0.94874 0.0
C285 C 0.41725 0.20766 0.94569 0.0
N286 N 0.41862 0.29373 0.95045 0.0
C287 C 0.47699 0.35686 0.93936 0.0
C288 C 0.47017 0.32668 0.92966 0.0
C289 C 0.44098 0.29564 0.93533 0.0
C290 C 0.45257 0.35456 0.95414 0.0
C291 C 0.42378 0.32308 0.95938 0.0
N292 N 0.34789 0.20501 0.97168 0.0
C293 C 0.33725 0.15605 0.99095 0.0
C294 C 0.30079 0.13894 0.98527 0.0
C295 C 0.28862 0.15661 0.97275 0.0
C296 C 0.3126 0.18917 0.96591 0.0
C297 C 0.35973 0.18894 0.98451 0.0
H298 H 0.30264 0.20136 0.9558 0.0
H299 H 0.38723 0.20101 0.98954 0.0
H300 H 0.43726 0.27296 0.92786 0.0
H301 H 0.40628 0.32249 0.97111 0.0
C302 C 0.33054 0.26019 0.92988 0.0
C303 C 0.38973 0.19079 0.93045 0.0
C304 C 0.34957 0.27796 1.00016 0.0
C305 C 0.45367 0.26137 0.98552 0.0
H306 H 0.35131 0.18569 0.89415 0.0
H307 H 0.32183 0.22671 0.89299 0.0
H308 H 0.28159 0.28031 0.94672 0.0
H309 H 0.28715 0.28367 0.98524 0.0
H310 H 0.40269 0.29998 0.03145 0.0
H311 H 0.46057 0.29309 0.02314 0.0
H312 H 0.49084 0.22606 0.97033 0.0
H313 H 0.45324 0.18467 0.94119 0.0
H314 H 0.48797 0.32668 0.91818 0.0
H315 H 0.45571 0.37696 0.96181 0.0
H316 H 0.34926 0.14422 1.0 0.0
H317 H 0.26085 0.14566 0.96806 0.0
C318 C 0.57347 0.87694 0.71507 0.0
C319 C 0.54062 0.85629 0.70619 0.0
C320 C 0.54715 0.83835 0.69204 0.0
C321 C 0.58345 0.84904 0.69297 0.0
N322 N 0.60075 0.87278 0.70683 0.0
Co323 Co 0.65389 0.89463 0.71275 0.0
N324 N 0.66332 0.86992 0.69072 0.0
C325 C 0.63872 0.84848 0.67786 0.0
C326 C 0.65245 0.83469 0.66453 0.0
C327 C 0.688 0.84783 0.66924 0.0
C328 C 0.69395 0.86905 0.68527 0.0
N329 N 0.70653 0.91531 0.71924 0.0
C330 C 0.73275 0.9087 0.71191 0.0
C331 C 0.76497 0.9265 0.72193 0.0
C332 C 0.75878 0.94448 0.73629 0.0
C333 C 0.72324 0.9367 0.73425 0.0
N334 N 0.64412 0.92052 0.73411 0.0
C335 C 0.66892 0.94306 0.74649 0.0
C336 C 0.65504 0.95754 0.75933 0.0
C337 C 0.61922 0.94364 0.75481 0.0
C338 C 0.61315 0.92131 0.73942 0.0
N339 N 0.64661 0.85713 0.73145 0.0
C340 C 0.663 0.81365 0.75509 0.0
C341 C 0.66421 0.8432 0.76273 0.0
C342 C 0.65552 0.86402 0.75093 0.0
C343 C 0.64939 0.80448 0.73598 0.0
C344 C 0.64065 0.826 0.72469 0.0
N345 N 0.66369 0.93258 0.69405 0.0
C346 C 0.70088 0.99161 0.68541 0.0
C347 C 0.68944 0.98582 0.66584 0.0
C348 C 0.66264 0.95303 0.66106 0.0
C349 C 0.65003 0.92708 0.67531 0.0
C350 C 0.68792 0.9651 0.69903 0.0
H351 H 0.62996 0.90254 0.67076 0.0
H352 H 0.69881 0.97147 0.71343 0.0
H353 H 0.65795 0.88638 0.75778 0.0
H354 H 0.63043 0.81749 0.71024 0.0
C355 C 0.60235 0.83914 0.68004 0.0
C356 C 0.5772 0.90067 0.73087 0.0
C357 C 0.72827 0.88546 0.69574 0.0
C358 C 0.70464 0.94866 0.74624 0.0
H359 H 0.51465 0.85472 0.70934 0.0
H360 H 0.52784 0.82027 0.68193 0.0
H361 H 0.63801 0.81617 0.65327 0.0
H362 H 0.70694 0.84137 0.66211 0.0
H363 H 0.79018 0.92612 0.71927 0.0
H364 H 0.7778 0.96088 0.74713 0.0
H365 H 0.66919 0.97575 0.77078 0.0
H366 H 0.59965 0.94901 0.76218 0.0
H367 H 0.67365 0.8514 0.77753 0.0
H368 H 0.64605 0.78105 0.72958 0.0
H369 H 0.72034 0.01659 0.69031 0.0
H370 H 0.65226 0.94699 0.64624 0.0
C371 C 0.85283 0.69675 0.92086 0.0
C372 C 0.85661 0.71318 0.93868 0.0
C373 C 0.82985 0.7225 0.93944 0.0
C374 C 0.81142 0.71159 0.92207 0.0
N375 N 0.82496 0.69603 0.91045 0.0
Co376 Co 0.80758 0.6781 0.88378 0.0
N377 N 0.78362 0.70685 0.88067 0.0
C378 C 0.77426 0.72111 0.89546 0.0
C379 C 0.75665 0.73852 0.88915 0.0
C380 C 0.75454 0.73478 0.86916 0.0
C381 C 0.7712 0.7153 0.86433 0.0
N382 N 0.78989 0.66011 0.85711 0.0
C383 C 0.77704 0.67245 0.84259 0.0
C384 C 0.76763 0.65147 0.82628 0.0
C385 C 0.77417 0.62495 0.83098 0.0
C386 C 0.78739 0.63114 0.84983 0.0
N387 N 0.83192 0.64977 0.88717 0.0
C388 C 0.82492 0.62182 0.8768 0.0
C389 C 0.8471 0.60827 0.88204 0.0
C390 C 0.86927 0.62909 0.89656 0.0
C391 C 0.85948 0.65434 0.89936 0.0
N392 N 0.76268 0.64126 0.89497 0.0
C393 C 0.70003 0.58202 0.90686 0.0
C394 C 0.73333 0.59264 0.9164 0.0
C395 C 0.76405 0.62221 0.91036 0.0
C396 C 0.69881 0.60288 0.89176 0.0
C397 C 0.73011 0.63214 0.88612 0.0
N398 N 0.85236 0.71358 0.87227 0.0
C399 C 0.90395 0.72678 0.85171 0.0
C400 C 0.9209 0.76013 0.8584 0.0
C401 C 0.90216 0.77032 0.87161 0.0
C402 C 0.86786 0.74651 0.87847 0.0
C403 C 0.86983 0.7042 0.8586 0.0
H404 H 0.85432 0.75439 0.88915 0.0
H405 H 0.85819 0.67864 0.85327 0.0
H406 H 0.78924 0.62907 0.91778 0.0
H407 H 0.72808 0.64671 0.87404 0.0
C408 C 0.78701 0.7217 0.91451 0.0
C409 C 0.87501 0.68103 0.91448 0.0
C410 C 0.77135 0.70256 0.84443 0.0
C411 C 0.80316 0.61385 0.85988 0.0
H412 H 0.87676 0.7184 0.94988 0.0
H413 H 0.82575 0.73725 0.9508 0.0
H414 H 0.74724 0.75293 0.89796 0.0
H415 H 0.74155 0.74471 0.85933 0.0
H416 H 0.75704 0.65482 0.81246 0.0
H417 H 0.77091 0.60431 0.8215 0.0
H418 H 0.84835 0.58687 0.87542 0.0
H419 H 0.89026 0.62616 0.90415 0.0
H420 H 0.73583 0.57808 0.92843 0.0
H421 H 0.67409 0.59605 0.88376 0.0
H422 H 0.9173 0.718 0.84134 0.0
H423 H 0.9144 0.79602 0.87708 0.0
C424 C 0.17532 0.82032 0.08426 0.0
C425 C 0.1633 0.82249 0.10292 0.0
C426 C 0.12755 0.79887 0.10377 0.0
C427 C 0.11979 0.78345 0.08569 0.0
N428 N 0.14845 0.7959 0.07363 0.0
Co429 Co 0.14916 0.78027 0.04659 0.0
N430 N 0.09618 0.76092 0.04395 0.0
C431 C 0.07283 0.75238 0.05903 0.0
C432 C 0.03755 0.73795 0.05302 0.0
C433 C 0.0388 0.73711 0.03292 0.0
C434 C 0.07495 0.7513 0.02772 0.0
N435 N 0.14959 0.76448 0.01941 0.0
C436 C 0.12424 0.75515 0.005 0.0
C437 C 0.13658 0.74689 0.988 0.0
C438 C 0.17015 0.75031 0.99217 0.0
C439 C 0.17678 0.76078 0.01138 0.0
N440 N 0.20218 0.79986 0.0496 0.0
C441 C 0.22374 0.79236 0.03834 0.0
C442 C 0.25958 0.81249 0.04255 0.0
C443 C 0.26042 0.83379 0.05734 0.0
C444 C 0.22486 0.82523 0.06165 0.0
N445 N 0.14309 0.73635 0.05679 0.0
C446 C 0.13994 0.67418 0.06875 0.0
C447 C 0.16228 0.7048 0.07838 0.0
C448 C 0.16342 0.73534 0.07224 0.0
C449 C 0.11848 0.67564 0.0533 0.0
C450 C 0.12036 0.70665 0.04764 0.0
N451 N 0.15624 0.82396 0.0362 0.0
C452 C 0.19317 0.87335 0.01693 0.0
C453 C 0.17406 0.89012 0.02345 0.0
C454 C 0.14493 0.87216 0.03636 0.0
C455 C 0.13672 0.83932 0.04269 0.0
C456 C 0.18339 0.84049 0.02301 0.0
H457 H 0.11502 0.82655 0.05304 0.0
H458 H 0.19896 0.82897 0.01746 0.0
H459 H 0.18138 0.75832 0.07982 0.0
H460 H 0.10394 0.7066 0.03546 0.0
C461 C 0.08526 0.76247 0.07825 0.0
C462 C 0.21274 0.84046 0.07742 0.0
C463 C 0.08773 0.75196 0.00749 0.0
C464 C 0.21014 0.77323 0.02111 0.0
H465 H 0.17871 0.83938 0.11466 0.0
H466 H 0.1091 0.7946 0.11581 0.0
H467 H 1.01378 0.72967 0.06212 0.0
H468 H 1.01565 0.72656 0.02326 0.0
H469 H 0.12299 0.7393 0.974 0.0
H470 H 0.18819 0.74703 0.9821 0.0
H471 H 0.28251 0.81347 0.03478 0.0
H472 H 0.28461 0.85384 0.06361 0.0
H473 H 0.17892 0.70534 0.09064 0.0
H474 H 0.10098 0.6531 0.04514 0.0
H475 H 0.21656 0.88555 0.00756 0.0
H476 H 0.12858 0.88321 0.04172 0.0
C477 C 0.46461 0.15175 0.21627 0.0
C478 C 0.49862 0.17217 0.20855 0.0
C479 C 0.49475 0.19268 0.19502 0.0
C480 C 0.45874 0.18359 0.19508 0.0
N481 N 0.43925 0.15846 0.20775 0.0
Co482 Co 0.3859 0.13846 0.21207 0.0
N483 N 0.37926 0.16093 0.18809 0.0
C484 C 0.4059 0.18451 0.17715 0.0
C485 C 0.39388 0.19535 0.16139 0.0
C486 C 0.35719 0.17803 0.16253 0.0
C487 C 0.34878 0.15745 0.17904 0.0
N488 N 0.33305 0.11965 0.21691 0.0
C489 C 0.30699 0.12231 0.20631 0.0
C490 C 0.27424 0.10745 0.21614 0.0
C491 C 0.2801 0.0959 0.23367 0.0
C492 C 0.31594 0.10419 0.23357 0.0
N493 N 0.39308 0.11488 0.23542 0.0
C494 C 0.36859 0.09924 0.24965 0.0
C495 C 0.38059 0.08546 0.26402 0.0
C496 C 0.41499 0.09302 0.25866 0.0
C497 C 0.42218 0.11109 0.24126 0.0
N498 N 0.39266 0.17774 0.22882 0.0
C499 C 0.38114 0.21897 0.25667 0.0
C500 C 0.40238 0.20321 0.26125 0.0
C501 C 0.40845 0.18338 0.24704 0.0
C502 C 0.36857 0.21579 0.23741 0.0
C503 C 0.37459 0.19549 0.22393 0.0
N504 N 0.37646 0.09859 0.19558 0.0
C505 C 0.33571 0.04001 0.18809 0.0
C506 C 0.35021 0.04261 0.16913 0.0
C507 C 0.38005 0.07409 0.16442 0.0
C508 C 0.39237 0.10159 0.17764 0.0
C509 C 0.34961 0.06756 0.201 0.0
H510 H 0.41407 0.12551 0.17304 0.0
H511 H 0.33711 0.06385 0.21516 0.0
H512 H 0.42454 0.17148 0.25123 0.0
H513 H 0.36205 0.19287 0.20999 0.0
C514 C 0.44183 0.19464 0.18153 0.0
C515 C 0.45814 0.127 0.23197 0.0
C516 C 0.31249 0.1409 0.18773 0.0
C517 C 0.3339 0.09597 0.2482 0.0
H518 H 0.52367 0.17213 0.21218 0.0
H519 H 0.51551 0.21111 0.18568 0.0
H520 H 0.40987 0.21393 0.15048 0.0
H521 H 0.33892 0.18162 0.15282 0.0
H522 H 0.24895 0.10584 0.2113 0.0
H523 H 0.26053 0.08298 0.2451 0.0
H524 H 0.36597 0.07134 0.27681 0.0
H525 H 0.43307 0.08667 0.26685 0.0
H526 H 0.41368 0.20561 0.27581 0.0
H527 H 0.35202 0.22723 0.23293 0.0
H528 H 0.31263 0.01732 0.19309 0.0
H529 H 0.3938 0.07809 0.15052 0.0
C530 C 0.18636 0.34399 0.42227 0.0
C531 C 0.1861 0.33688 0.44214 0.0
C532 C 0.21364 0.32903 0.44513 0.0
C533 C 0.22937 0.33218 0.42706 0.0
N534 N 0.21354 0.34167 0.413 0.0
Co535 Co 0.2294 0.3515 0.38538 0.0
N536 N 0.25486 0.32377 0.38685 0.0
C537 C 0.26446 0.31397 0.40354 0.0
C538 C 0.28204 0.29522 0.40024 0.0
C539 C 0.2841 0.2935 0.38023 0.0
C540 C 0.2679 0.31166 0.37237 0.0
N541 N 0.24649 0.36217 0.35784 0.0
C542 C 0.26096 0.34753 0.34576 0.0
C543 C 0.27063 0.36437 0.32791 0.0
C544 C 0.26209 0.39044 0.32898 0.0
C545 C 0.24783 0.38826 0.34739 0.0
N546 N 0.20301 0.37836 0.38416 0.0
C547 C 0.20753 0.40157 0.37044 0.0
C548 C 0.18188 0.41232 0.37174 0.0
C549 C 0.16003 0.39474 0.3872 0.0
C550 C 0.17386 0.37446 0.39484 0.0
N551 N 0.27381 0.39207 0.39408 0.0
C552 C 0.33648 0.4527 0.40432 0.0
C553 C 0.30265 0.44442 0.41258 0.0
C554 C 0.27189 0.41428 0.40727 0.0
C555 C 0.33803 0.4293 0.3911 0.0
C556 C 0.30673 0.39935 0.38629 0.0
N557 N 0.18466 0.31194 0.37645 0.0
C558 C 0.13377 0.29046 0.35429 0.0
C559 C 0.11437 0.26237 0.36628 0.0
C560 C 0.13153 0.25882 0.38317 0.0
C561 C 0.16696 0.28352 0.38777 0.0
C562 C 0.16834 0.31489 0.35968 0.0
H563 H 0.17944 0.2803 0.40089 0.0
H564 H 0.18091 0.33705 0.35062 0.0
H565 H 0.24633 0.40924 0.41363 0.0
H566 H 0.30925 0.38231 0.37599 0.0
C567 C 0.25329 0.31987 0.42187 0.0
C568 C 0.16057 0.35279 0.41261 0.0
C569 C 0.26888 0.31987 0.35136 0.0
C570 C 0.22984 0.40601 0.35413 0.0
H571 H 0.16757 0.33677 0.4532 0.0
H572 H 0.22006 0.3203 0.45864 0.0
H573 H 0.29171 0.2837 0.41106 0.0
H574 H 0.29684 0.28096 0.37238 0.0
H575 H 0.28294 0.35863 0.31551 0.0
H576 H 0.2649 0.40815 0.31746 0.0
H577 H 0.17777 0.42896 0.36173 0.0
H578 H 0.13618 0.3962 0.39166 0.0
H579 H 0.29966 0.46153 0.42274 0.0
H580 H 0.36339 0.43395 0.38451 0.0
H581 H 0.12158 0.29452 0.34123 0.0
H582 H 0.11758 0.23733 0.39283 0.0
C583 C 0.85965 0.20758 0.58446 0.0
C584 C 0.87012 0.20263 0.60296 0.0
C585 C 0.90608 0.22526 0.60473 0.0
C586 C 0.91548 0.24271 0.58728 0.0
N587 N 0.88761 0.23254 0.57477 0.0
Co588 Co 0.88935 0.24967 0.54778 0.0
N589 N 0.94229 0.26747 0.546 0.0
C590 C 0.96442 0.27176 0.56128 0.0
C591 C 0.99883 0.28014 0.55553 0.0
C592 C 0.99848 0.28171 0.53546 0.0
C593 C 0.96395 0.27528 0.52994 0.0
N594 N 0.89104 0.26722 0.52087 0.0
C595 C 0.91766 0.27817 0.50715 0.0
C596 C 0.90812 0.29114 0.49097 0.0
C597 C 0.8745 0.28787 0.49472 0.0
C598 C 0.86533 0.27345 0.513 0.0
N599 N 0.83642 0.23111 0.54964 0.0
C600 C 0.81611 0.24035 0.53855 0.0
C601 C 0.77994 0.22166 0.5427 0.0
C602 C 0.77766 0.19936 0.55727 0.0
C603 C 0.81262 0.20569 0.56117 0.0
N604 N 0.89619 0.29353 0.55846 0.0
C605 C 0.89962 0.35584 0.57019 0.0
C606 C 0.87583 0.32513 0.57925 0.0
C607 C 0.87456 0.29449 0.57323 0.0
C608 C 0.92265 0.35447 0.55565 0.0
C609 C 0.92066 0.32338 0.55012 0.0
N610 N 0.88166 0.20607 0.53699 0.0
C611 C 0.8479 0.15912 0.51531 0.0
C612 C 0.86245 0.14004 0.52419 0.0
C613 C 0.88784 0.15523 0.53925 0.0
C614 C 0.89742 0.1884 0.54525 0.0
C615 C 0.85766 0.1918 0.52194 0.0
H616 H 0.91677 0.19937 0.55695 0.0
H617 H 0.84465 0.20503 0.51529 0.0
H618 H 0.85526 0.27137 0.58018 0.0
H619 H 0.93842 0.3235 0.53866 0.0
C620 C 0.95066 0.2614 0.58023 0.0
C621 C 0.82308 0.18874 0.57649 0.0
C622 C 0.95335 0.27955 0.50975 0.0
C623 C 0.83131 0.26112 0.52205 0.0
H624 H 0.85376 0.18413 0.61382 0.0
H625 H 0.92375 0.22696 0.61673 0.0
H626 H 0.02105 0.28285 0.56472 0.0
H627 H 0.02124 0.28669 0.52615 0.0
H628 H 0.92397 0.30239 0.47795 0.0
H629 H 0.85842 0.2946 0.48506 0.0
H630 H 0.75772 0.22279 0.53532 0.0
H631 H 0.75322 0.18054 0.56413 0.0
H632 H 0.85733 0.32448 0.59051 0.0
H633 H 0.94216 0.37732 0.54846 0.0
H634 H 0.82791 0.14839 0.50379 0.0
H635 H 0.90004 0.14152 0.54641 0.0
C636 C 0.10764 0.61019 0.07335 0.0
C637 C 0.1395 0.64126 0.07446 0.0
C638 C 0.10706 0.57921 0.07819 0.0
C639 C 0.13906 0.57877 0.08446 0.0
C640 C 0.17123 0.60997 0.08575 0.0
C641 C 0.17109 0.64058 0.08074 0.0
C642 C 0.07205 0.54681 0.07657 0.0
C643 C 0.20606 0.61104 0.09233 0.0
C644 C 0.13149 0.50203 0.1136 0.0
C645 C 0.1388 0.48336 0.09931 0.0
C646 C 0.1315 0.53286 0.10901 0.0
C647 C 0.13889 0.54576 0.08958 0.0
C648 C 0.14618 0.52703 0.07507 0.0
C649 C 0.14612 0.49633 0.08007 0.0
C650 C 0.12383 0.5518 0.12507 0.0
C651 C 0.15397 0.53941 0.05414 0.0
H652 H 0.08282 0.61001 0.06886 0.0
H653 H 0.19611 0.66402 0.08142 0.0
H654 H 0.07523 0.52925 0.06623 0.0
H655 H 0.06471 0.53404 0.09106 0.0
H656 H 0.04952 0.5512 0.07139 0.0
H657 H 0.22865 0.63724 0.09297 0.0
H658 H 0.20257 0.59939 0.10707 0.0
H659 H 0.21351 0.59605 0.0821 0.0
H660 H 0.12633 0.49286 0.12858 0.0
H661 H 0.15135 0.4822 0.06876 0.0
H662 H 0.10021 0.55531 0.12105 0.0
H663 H 0.14714 0.57736 0.12683 0.0
H664 H 0.11835 0.53847 0.13941 0.0
H665 H 0.13087 0.54199 0.04808 0.0
H666 H 0.15912 0.52209 0.04453 0.0
H667 H 0.17785 0.56482 0.05365 0.0
C668 C 0.65197 0.13483 0.25278 0.0
C669 C 0.65538 0.12286 0.27134 0.0
C670 C 0.61915 0.13366 0.24655 0.0
C671 C 0.58852 0.12038 0.25912 0.0
C672 C 0.59175 0.10776 0.27776 0.0
C673 C 0.62489 0.10926 0.28361 0.0
C674 C 0.61757 0.14756 0.22662 0.0
C675 C 0.56036 0.09339 0.29181 0.0
C676 C 0.51679 0.15031 0.25127 0.0
C677 C 0.48975 0.12362 0.24055 0.0
C678 C 0.54851 0.14939 0.25753 0.0
C679 C 0.55381 0.12099 0.25312 0.0
C680 C 0.52605 0.09356 0.24271 0.0
C681 C 0.49459 0.09522 0.23657 0.0
C682 C 0.57682 0.17931 0.26852 0.0
C683 C 0.52992 0.06263 0.23768 0.0
H684 H 0.67541 0.14606 0.24332 0.0
H685 H 0.62726 0.10041 0.29807 0.0
H686 H 0.59481 0.12825 0.218 0.0
H687 H 0.61262 0.16968 0.22833 0.0
H688 H 0.64288 0.15554 0.21816 0.0
H689 H 0.56632 0.08292 0.30527 0.0
H690 H 0.55332 0.11345 0.29617 0.0
H691 H 0.53631 0.07308 0.28454 0.0
H692 H 0.51346 0.17243 0.25436 0.0
H693 H 0.47407 0.07457 0.22821 0.0
H694 H 0.60226 0.19081 0.25996 0.0
H695 H 0.58275 0.17097 0.28277 0.0
H696 H 0.56841 0.19903 0.27136 0.0
H697 H 0.5535 0.06982 0.22789 0.0
H698 H 0.50559 0.04288 0.23026 0.0
H699 H 0.535 0.05169 0.25119 0.0
C700 C 0.52928 0.61213 0.43306 0.0
C701 C 0.52862 0.64328 0.43221 0.0
C702 C 0.49847 0.58116 0.42867 0.0
C703 C 0.46577 0.58082 0.42305 0.0
C704 C 0.46492 0.61209 0.42199 0.0
C705 C 0.49602 0.64266 0.42662 0.0
C706 C 0.50093 0.54867 0.43009 0.0
C707 C 0.43094 0.61329 0.41603 0.0
C708 C 0.39511 0.50394 0.39462 0.0
C709 C 0.36967 0.48552 0.40919 0.0
C710 C 0.42617 0.53477 0.39888 0.0
C711 C 0.43257 0.54786 0.41828 0.0
C712 C 0.40709 0.52938 0.43308 0.0
C713 C 0.37609 0.49873 0.42838 0.0
C714 C 0.45209 0.55351 0.3825 0.0
C715 C 0.41267 0.54191 0.454 0.0
H716 H 0.5541 0.61183 0.437 0.0
H717 H 0.49447 0.66612 0.42618 0.0
H718 H 0.48054 0.53122 0.44061 0.0
H719 H 0.49489 0.53583 0.41561 0.0
H720 H 0.528 0.55296 0.43492 0.0
H721 H 0.43469 0.63954 0.41544 0.0
H722 H 0.42192 0.60145 0.40139 0.0
H723 H 0.40902 0.59853 0.42658 0.0
H724 H 0.39046 0.49454 0.37968 0.0
H725 H 0.3571 0.48479 0.43989 0.0
H726 H 0.47929 0.55676 0.38607 0.0
H727 H 0.45454 0.57916 0.38092 0.0
H728 H 0.44344 0.54015 0.36821 0.0
H729 H 0.43859 0.54444 0.45965 0.0
H730 H 0.39061 0.5247 0.46386 0.0
H731 H 0.41433 0.56736 0.4546 0.0
C732 C 0.93183 0.54398 0.59967 0.0
C733 C 0.89959 0.5464 0.59977 0.0
C734 C 0.93229 0.51336 0.5951 0.0
C735 C 0.89978 0.484 0.59032 0.0
C736 C 0.86718 0.48622 0.5903 0.0
C737 C 0.86746 0.51711 0.59503 0.0
C738 C 0.96775 0.51248 0.59533 0.0
C739 C 0.83181 0.45582 0.58532 0.0
C740 C 0.90473 0.41291 0.56094 0.0
C741 C 0.89993 0.3888 0.57548 0.0
C742 C 0.90472 0.44371 0.56553 0.0
C743 C 0.8999 0.45112 0.58522 0.0
C744 C 0.89512 0.42699 0.59999 0.0
C745 C 0.89509 0.3963 0.59497 0.0
C746 C 0.90962 0.46828 0.54921 0.0
C747 C 0.89013 0.43364 0.62118 0.0
H748 H 0.95702 0.56623 0.60296 0.0
H749 H 0.84218 0.51806 0.59533 0.0
H750 H 0.96633 0.49284 0.60575 0.0
H751 H 0.97335 0.50552 0.58059 0.0
H752 H 0.99062 0.53717 0.59963 0.0
H753 H 0.80884 0.4616 0.58568 0.0
H754 H 0.8333 0.44638 0.57047 0.0
H755 H 0.82634 0.43505 0.59584 0.0
H756 H 0.90788 0.40748 0.54578 0.0
H757 H 0.89177 0.37831 0.60644 0.0
H758 H 0.93346 0.49301 0.55223 0.0
H759 H 0.88582 0.47277 0.54846 0.0
H760 H 0.91325 0.45903 0.53468 0.0
H761 H 0.91374 0.45714 0.62625 0.0
H762 H 0.88679 0.41252 0.63097 0.0
H763 H 0.86608 0.43759 0.62268 0.0
C764 C 0.51672 0.87566 0.74831 0.0
C765 C 0.54435 0.90293 0.7383 0.0
C766 C 0.48474 0.87633 0.7542 0.0
C767 C 0.47982 0.905 0.75004 0.0
C768 C 0.50796 0.93282 0.74014 0.0
C769 C 0.5397 0.93145 0.73443 0.0
C770 C 0.45595 0.84606 0.76473 0.0
C771 C 0.50433 0.96397 0.73534 0.0
C772 C 0.38233 0.89242 0.74961 0.0
C773 C 0.37913 0.90397 0.76828 0.0
C774 C 0.4149 0.89315 0.74337 0.0
C775 C 0.44535 0.90576 0.75606 0.0
C776 C 0.44235 0.9182 0.77478 0.0
C777 C 0.40954 0.91727 0.78059 0.0
C778 C 0.4165 0.87977 0.72328 0.0
C779 C 0.47365 0.93189 0.78892 0.0
H780 H 0.52001 0.85349 0.75133 0.0
H781 H 0.56076 0.95255 0.72661 0.0
H782 H 0.45005 0.85389 0.77915 0.0
H783 H 0.43063 0.83529 0.75608 0.0
H784 H 0.46392 0.82595 0.76717 0.0
H785 H 0.52865 0.98368 0.7279 0.0
H786 H 0.48065 0.95709 0.72568 0.0
H787 H 0.4996 0.97487 0.74897 0.0
H788 H 0.35904 0.88211 0.74001 0.0
H789 H 0.40735 0.92633 0.79502 0.0
H790 H 0.42136 0.85755 0.72472 0.0
H791 H 0.43934 0.89928 0.71481 0.0
H792 H 0.39124 0.8721 0.71483 0.0
H793 H 0.48065 0.91163 0.79285 0.0
H794 H 0.46761 0.94174 0.80261 0.0
H795 H 0.49775 0.95253 0.78189 0.0
C796 C 0.52821 0.414 0.94934 0.0
C797 C 0.50959 0.3902 0.93452 0.0
C798 C 0.55891 0.44512 0.94517 0.0
C799 C 0.57189 0.45312 0.92564 0.0
C800 C 0.55334 0.42929 0.9106 0.0
C801 C 0.52263 0.39836 0.91517 0.0
C802 C 0.57762 0.46943 0.96176 0.0
C803 C 0.56592 0.43651 0.88956 0.0
C804 C 0.63236 0.54629 0.9117 0.0
C805 C 0.6672 0.54917 0.91214 0.0
C806 C 0.60138 0.51546 0.91604 0.0
C807 C 0.60483 0.48632 0.921 0.0
C808 C 0.63986 0.48904 0.92157 0.0
C809 C 0.67039 0.52019 0.91718 0.0
C810 C 0.56482 0.51409 0.91533 0.0
C811 C 0.64512 0.45885 0.92667 0.0
H812 H 0.51917 0.4081 0.96441 0.0
H813 H 0.50854 0.38069 0.90346 0.0
H814 H 0.60592 0.4741 0.96294 0.0
H815 H 0.57843 0.49412 0.95873 0.0
H816 H 0.56405 0.45982 0.9761 0.0
H817 H 0.54887 0.41545 0.87954 0.0
H818 H 0.56555 0.45988 0.88448 0.0
H819 H 0.59415 0.44096 0.88846 0.0
H820 H 0.62922 0.56834 0.90813 0.0
H821 H 0.69684 0.5216 0.91732 0.0
H822 H 0.55152 0.50646 0.92987 0.0
H823 H 0.54735 0.49474 0.90457 0.0
H824 H 0.56649 0.53879 0.91121 0.0
H825 H 0.63362 0.44907 0.94137 0.0
H826 H 0.674 0.465 0.92669 0.0
H827 H 0.63052 0.43819 0.91597 0.0
C828 C 0.28055 0.17572 0.19321 0.0
C829 C 0.28593 0.15273 0.18148 0.0
C830 C 0.25947 0.19063 0.18662 0.0
C831 C 0.24351 0.18271 0.1677 0.0
C832 C 0.24792 0.15861 0.15606 0.0
C833 C 0.26889 0.14381 0.16312 0.0
C834 C 0.25543 0.21588 0.19968 0.0
C835 C 0.23179 0.14953 0.13577 0.0
C836 C 0.17027 0.20851 0.15618 0.0
C837 C 0.19038 0.24016 0.14729 0.0
C838 C 0.18692 0.18911 0.16251 0.0
C839 C 0.22451 0.20146 0.15967 0.0
C840 C 0.2445 0.23286 0.14994 0.0
C841 C 0.22731 0.25188 0.14407 0.0
C842 C 0.16456 0.15604 0.17293 0.0
C843 C 0.2844 0.24694 0.14625 0.0
H844 H 0.29386 0.18287 0.20735 0.0
H845 H 0.27316 0.12619 0.15398 0.0
H846 H 0.26922 0.24136 0.19288 0.0
H847 H 0.22654 0.2091 0.20125 0.0
H848 H 0.26703 0.2173 0.21452 0.0
H849 H 0.23527 0.12856 0.12917 0.0
H850 H 0.20262 0.14207 0.13625 0.0
H851 H 0.24484 0.17197 0.12605 0.0
H852 H 0.14182 0.19959 0.15891 0.0
H853 H 0.24295 0.27641 0.13726 0.0
H854 H 0.17374 0.15803 0.18837 0.0
H855 H 0.16822 0.1355 0.16592 0.0
H856 H 0.1354 0.14884 0.17291 0.0
H857 H 0.29903 0.25287 0.16045 0.0
H858 H 0.2955 0.27031 0.1372 0.0
H859 H 0.28986 0.22787 0.13869 0.0
C860 C 0.90406 0.13801 0.33783 0.0
C861 C 0.89119 0.15887 0.3294 0.0
C862 C 0.94013 0.15144 0.34438 0.0
C863 C 0.96383 0.18668 0.34275 0.0
C864 C 0.95085 0.2077 0.33413 0.0
C865 C 0.91502 0.19355 0.32744 0.0
C866 C 0.95287 0.12795 0.3531 0.0
C867 C 0.97473 0.24536 0.33215 0.0
C868 C 0.04823 0.23217 0.37483 0.0
C869 C 0.07594 0.2385 0.36135 0.0
C870 C 1.01162 0.21431 0.36923 0.0
C871 C 1.00231 0.20187 0.34975 0.0
C872 C 0.03026 0.2067 0.33643 0.0
C873 C 0.06657 0.22519 0.34231 0.0
C874 C 0.98297 0.21038 0.38388 0.0
C875 C 0.02189 0.19356 0.31566 0.0
H876 H 0.88577 0.11124 0.33946 0.0
H877 H 0.90537 0.20988 0.32094 0.0
H878 H 0.97672 0.13017 0.34492 0.0
H879 H 0.96141 0.13525 0.36853 0.0
H880 H 0.93162 0.10112 0.3528 0.0
H881 H 0.96038 0.25833 0.32551 0.0
H882 H 0.985 0.25663 0.3468 0.0
H883 H 0.99845 0.25043 0.3229 0.0
H884 H 0.05523 0.24275 0.38948 0.0
H885 H 0.08782 0.22994 0.33181 0.0
H886 H 0.96217 0.1835 0.38488 0.0
H887 H 0.96928 0.22502 0.37887 0.0
H888 H 0.99429 0.21939 0.39875 0.0
H889 H 0.04619 0.19601 0.30782 0.0
H890 H 1.01073 0.20787 0.30738 0.0
H891 H 1.00116 0.16657 0.3156 0.0
C892 C 0.83904 0.07847 0.53239 0.0
C893 C 0.84965 0.10411 0.51822 0.0
C894 C 0.82306 0.04412 0.52692 0.0
C895 C 0.81787 0.03511 0.50677 0.0
C896 C 0.82995 0.06101 0.4924 0.0
C897 C 0.84547 0.09509 0.49829 0.0
C898 C 0.81025 0.01743 0.54275 0.0
C899 C 0.82533 0.0527 0.47077 0.0
C900 C 0.79534 0.94506 0.49139 0.0
C901 C 0.75772 0.92982 0.4892 0.0
C902 C 0.81533 0.97924 0.49709 0.0
C903 C 0.79736 0.99873 0.50072 0.0
C904 C 0.75949 0.98357 0.49833 0.0
C905 C 0.74027 0.94953 0.49254 0.0
C906 C 0.85566 0.99446 0.49935 0.0
C907 C 0.73914 1.00331 0.50192 0.0
H908 H 0.84181 0.08519 0.54781 0.0
H909 H 0.85393 0.11477 0.48725 0.0
H910 H 0.78037 1.00324 0.54258 0.0
H911 H 0.82038 0.99898 0.53996 0.0
H912 H 0.81911 0.02848 0.55761 0.0
H913 H 0.83866 0.07567 0.46145 0.0
H914 H 0.83662 0.03542 0.46707 0.0
H915 H 0.79622 0.03937 0.46705 0.0
H916 H 0.80912 0.93011 0.48898 0.0
H917 H 0.71137 0.93838 0.49046 0.0
H918 H 0.86351 1.00333 0.51465 0.0
H919 H 0.86928 0.01685 0.48965 0.0
H920 H 0.86571 0.97616 0.49573 0.0
H921 H 0.74406 1.01343 0.51711 0.0
H922 H 0.70963 0.98768 0.49977 0.0
H923 H 0.74896 0.02526 0.4918 0.0
C924 C 0.87072 0.8188 0.66347 0.0
C925 C 0.84967 0.78848 0.65343 0.0
C926 C 0.8552 0.83839 0.67105 0.0
C927 C 0.81787 0.82759 0.6683 0.0
C928 C 0.79694 0.79756 0.65752 0.0
C929 C 0.813 0.77831 0.65041 0.0
C930 C 0.87843 0.86997 0.68259 0.0
C931 C 0.75727 0.78524 0.65389 0.0
C932 C 0.76131 0.85207 0.70211 0.0
C933 C 0.75696 0.87589 0.69068 0.0
C934 C 0.78285 0.83761 0.69556 0.0
C935 C 0.80013 0.84691 0.67698 0.0
C936 C 0.79722 0.87235 0.6659 0.0
C937 C 0.77583 0.88662 0.67293 0.0
C938 C 0.78536 0.81094 0.70803 0.0
C939 C 0.81473 0.8829 0.646 0.0
H940 H 0.89895 0.82645 0.66608 0.0
H941 H 0.79666 0.75478 0.64272 0.0
H942 H 0.87624 0.89187 0.67643 0.0
H943 H 0.86878 0.86675 0.69799 0.0
H944 H 0.90724 0.8759 0.68262 0.0
H945 H 0.74526 0.7625 0.64431 0.0
H946 H 0.74257 0.77891 0.66806 0.0
H947 H 0.75303 0.80549 0.64691 0.0
H948 H 0.74645 0.84356 0.71576 0.0
H949 H 0.77214 0.90483 0.66402 0.0
H950 H 0.81374 0.81583 0.70915 0.0
H951 H 0.7697 0.7858 0.70105 0.0
H952 H 0.77461 0.80986 0.72306 0.0
H953 H 0.84342 0.88867 0.64671 0.0
H954 H 0.81322 0.90539 0.6402 0.0
H955 H 0.80104 0.86173 0.63547 0.0
C956 C 0.9855 0.77361 0.85556 0.0
C957 C 0.9585 0.78295 0.85196 0.0
C958 C 0.02028 0.79213 0.84766 0.0
C959 C 0.02832 0.8205 0.83551 0.0
C960 C 1.00133 0.83053 0.83219 0.0
C961 C 0.96678 0.81175 0.84057 0.0
C962 C 0.04821 0.78078 0.85196 0.0
C963 C 1.00858 0.86034 0.81921 0.0
C964 C 0.12873 0.87961 0.82853 0.0
C965 C 0.13609 0.86665 0.81139 0.0
C966 C 0.09347 0.866 0.83605 0.0
C967 C 0.06477 0.83893 0.82609 0.0
C968 C 0.07192 0.82725 0.80807 0.0
C969 C 0.10758 0.84101 0.80106 0.0
C970 C 0.0874 0.87905 0.85536 0.0
C971 C 0.0423 0.79882 0.79676 0.0
H972 H 0.97912 0.75132 0.86436 0.0
H973 H 0.94582 0.81876 0.83758 0.0
H974 H 0.05583 0.77257 0.83817 0.0
H975 H 0.07299 0.80213 0.85797 0.0
H976 H 0.03836 0.7595 0.8626 0.0
H977 H 0.98545 0.8659 0.81879 0.0
H978 H 0.0328 0.88319 0.8244 0.0
H979 H 1.01426 0.85514 0.80404 0.0
H980 H 0.15098 0.89909 0.83666 0.0
H981 H 0.11341 0.83073 0.78795 0.0
H982 H 0.08084 0.85944 0.86683 0.0
H983 H 0.06418 0.88434 0.85429 0.0
H984 H 0.11151 0.90245 0.86016 0.0
H985 H 0.03435 0.77457 0.80454 0.0
H986 H 0.05096 0.79661 0.78166 0.0
H987 H 1.01809 0.80263 0.7958 0.0
C988 C 0.17926 0.94865 0.02894 0.0
C989 C 0.18579 0.92622 0.0172 0.0
C990 C 0.19286 0.98305 0.02383 0.0
C991 C 0.21546 0.99618 0.00713 0.0
C992 C 0.22157 0.97366 0.99503 0.0
C993 C 0.20556 0.93908 0.99974 0.0
C994 C 0.18322 1.00497 0.03677 0.0
C995 C 0.24582 0.98595 0.97723 0.0
C996 C 0.24521 0.08124 0.98144 0.0
C997 C 0.27655 0.10295 0.99193 0.0
C998 C 0.22365 0.04724 0.98704 0.0
C999 C 0.23459 0.03347 1.00282 0.0
C1000 C 0.26575 0.05513 0.01365 0.0
C1001 C 0.28528 0.08954 0.00859 0.0
C1002 C 0.18955 0.02637 0.97558 0.0
C1003 C 0.27929 0.04202 0.0304 0.0
H1004 H 0.16415 0.93981 0.04245 0.0
H1005 H 0.20941 0.92233 0.98971 0.0
H1006 H 0.19927 1.01091 0.05049 0.0
H1007 H 0.18804 0.02896 0.02958 0.0
H1008 H 0.15439 0.99101 0.04108 0.0
H1009 H 0.25463 0.96731 0.97233 0.0
H1010 H 0.231 0.98998 0.96493 0.0
H1011 H 0.2702 1.0103 0.98025 0.0
H1012 H 0.23742 0.09024 0.96851 0.0
H1013 H 0.30785 0.10563 0.01776 0.0
H1014 H 0.17057 1.00298 0.98336 0.0
H1015 H 0.19658 0.01941 0.9612 0.0
H1016 H 0.17549 0.04156 0.97245 0.0
H1017 H 0.26245 0.03866 0.04356 0.0
H1018 H 0.30766 0.0598 0.03427 0.0
H1019 H 0.27757 0.01714 0.02673 0.0
C1020 C 0.27662 0.36406 0.08199 0.0
C1021 C 0.24126 0.34086 0.08734 0.0
C1022 C 0.29829 0.3541 0.07074 0.0
C1023 C 0.28316 0.32097 0.06257 0.0
C1024 C 0.24722 0.29752 0.06783 0.0
C1025 C 0.22768 0.30731 0.08081 0.0
C1026 C 0.33707 0.37995 0.06739 0.0
C1027 C 0.22814 0.26226 0.05933 0.0
C1028 C 0.3285 0.31826 0.01417 0.0
C1029 C 0.33557 0.29084 0.0169 0.0
C1030 C 0.31043 0.32736 0.02845 0.0
C1031 C 0.30333 0.31185 0.04729 0.0
C1032 C 0.31437 0.28673 0.05092 0.0
C1033 C 0.32887 0.27565 0.03552 0.0
C1034 C 0.29828 0.35302 0.0227 0.0
C1035 C 0.31099 0.27092 0.07088 0.0
H1036 H 0.28726 0.39047 0.08576 0.0
H1037 H 0.20041 0.28902 0.08481 0.0
H1038 H 0.35367 0.36887 0.06128 0.0
H1039 H 0.33813 0.39988 0.05733 0.0
H1040 H 0.34935 0.39266 0.08146 0.0
H1041 H 0.19869 0.25339 0.0581 0.0
H1042 H 0.23841 0.26064 0.04458 0.0
H1043 H 0.23179 0.24459 0.06935 0.0
H1044 H 0.33562 0.33183 1.00035 0.0
H1045 H 0.33512 0.25509 0.03812 0.0
H1046 H 0.32092 0.37883 0.02481 0.0
H1047 H 0.27475 0.35048 0.03133 0.0
H1048 H 0.2909 0.35053 0.0069 0.0
H1049 H 0.33619 0.26979 0.07449 0.0
H1050 H 0.28903 0.24443 0.07052 0.0
H1051 H 0.30555 0.28483 0.08277 0.0
C1052 C 0.92294 0.26718 0.24369 0.0
C1053 C 0.89128 0.23764 0.2387 0.0
C1054 C 0.95282 0.28164 0.23091 0.0
C1055 C 0.95145 0.26646 0.21245 0.0
C1056 C 0.9192 0.2373 0.207 0.0
C1057 C 0.88962 0.22333 0.22011 0.0
C1058 C 0.98629 0.31283 0.23739 0.0
C1059 C 0.91628 0.22022 0.18751 0.0
C1060 C 0.01918 0.31885 0.17248 0.0
C1061 C 0.04484 0.30715 0.1735 0.0
C1062 C 0.98883 0.30591 0.18497 0.0
C1063 C 0.98393 0.28075 0.19906 0.0
C1064 C 1.01032 0.26945 0.2004 0.0
C1065 C 0.04036 0.28275 0.18763 0.0
C1066 C 0.96172 0.3189 0.18292 0.0
C1067 C 1.00663 0.24299 0.21523 0.0
H1068 H 0.92458 0.27889 0.25784 0.0
H1069 H 0.86567 0.20036 0.21608 0.0
H1070 H 1.00924 0.30712 0.23839 0.0
H1071 H 0.99364 0.33329 0.2264 0.0
H1072 H 0.98279 0.32229 0.25188 0.0
H1073 H 0.889 0.19871 0.18501 0.0
H1074 H 0.9226 0.2387 0.17538 0.0
H1075 H 0.93629 0.21065 0.18682 0.0
H1076 H 0.02264 0.33782 0.1616 0.0
H1077 H 0.06015 0.27369 0.18848 0.0
H1078 H 0.95882 0.32961 0.19708 0.0
H1079 H 0.93492 0.29772 0.17916 0.0
H1080 H 0.96951 0.33868 0.17141 0.0
H1081 H 1.00501 0.25174 0.23025 0.0
H1082 H 0.02955 0.23714 0.21464 0.0
H1083 H 0.98125 0.21934 0.21257 0.0
C1084 C 0.71849 0.99445 0.35524 0.0
C1085 C 0.70482 0.01769 0.35678 0.0
C1086 C 0.70807 0.96701 0.36832 0.0
C1087 C 0.68351 0.9624 0.38373 0.0
C1088 C 0.66997 0.98595 0.38564 0.0
C1089 C 0.68065 1.01312 0.37221 0.0
C1090 C 0.72339 0.94278 0.36558 0.0
C1091 C 0.64397 0.98232 0.40187 0.0
C1092 C 0.63378 0.87249 0.40481 0.0
C1093 C 0.65503 0.87451 0.42114 0.0
C1094 C 0.64188 0.90109 0.39299 0.0
C1095 C 0.67197 0.9327 0.39756 0.0
C1096 C 0.69259 0.93503 0.41457 0.0
C1097 C 0.68407 0.90591 0.42601 0.0
C1098 C 0.61923 0.89706 0.37501 0.0
C1099 C 0.72465 0.96798 0.42026 0.0
H1100 H 0.73787 0.99784 0.34384 0.0
H1101 H 0.66954 0.03049 0.37365 0.0
H1102 H 0.73838 0.94254 0.37893 0.0
H1103 H 0.70121 0.91671 0.36346 0.0
H1104 H 0.74187 0.94952 0.35278 0.0
H1105 H 0.63658 1.00311 0.40179 0.0
H1106 H 0.61902 0.95787 0.40034 0.0
H1107 H 0.65599 0.98204 0.41632 0.0
H1108 H 0.61172 0.84811 0.40081 0.0
H1109 H 0.70086 0.90744 0.43845 0.0
H1110 H 0.63572 0.90069 0.36163 0.0
H1111 H 0.6101 0.91662 0.37482 0.0
H1112 H 0.59522 0.8717 0.37428 0.0
H1113 H 0.74642 0.97464 0.40927 0.0
H1114 H 0.7354 0.96662 0.43495 0.0
H1115 H 0.71726 0.98874 0.42036 0.0
C1116 C 0.81216 0.72317 0.58019 0.0
C1117 C 0.79888 0.68945 0.58638 0.0
C1118 C 0.79312 0.73292 0.56679 0.0
C1119 C 0.75778 0.70918 0.56071 0.0
C1120 C 0.74289 0.67571 0.56839 0.0
C1121 C 0.76425 0.66591 0.58006 0.0
C1122 C 0.81215 0.76853 0.55881 0.0
C1123 C 0.70465 0.64937 0.56415 0.0
C1124 C 0.71138 0.7542 0.53381 0.0
C1125 C 0.70537 0.7397 0.515 0.0
C1126 C 0.72596 0.74303 0.54915 0.0
C1127 C 0.7379 0.71859 0.54532 0.0
C1128 C 0.73172 0.70391 0.52626 0.0
C1129 C 0.71351 0.71299 0.512 0.0
C1130 C 0.72832 0.75795 0.56929 0.0
C1131 C 0.74486 0.67909 0.52026 0.0
H1132 H 0.83887 0.74176 0.58487 0.0
H1133 H 0.75396 0.63941 0.58347 0.0
H1134 H 0.80231 0.77071 0.54404 0.0
H1135 H 0.80801 0.78566 0.56904 0.0
H1136 H 0.84167 0.77764 0.55783 0.0
H1137 H 0.69165 0.63567 0.57787 0.0
H1138 H 0.68789 0.66017 0.55791 0.0
H1139 H 0.70491 0.63029 0.55385 0.0
H1140 H 0.70438 0.77423 0.53665 0.0
H1141 H 0.70688 0.69978 0.49807 0.0
H1142 H 0.7501 0.78452 0.56938 0.0
H1143 H 0.73345 0.74365 0.58107 0.0
H1144 H 0.70284 0.75867 0.57271 0.0
H1145 H 0.75329 0.68279 0.50461 0.0
H1146 H 0.7224 0.653 0.52162 0.0
H1147 H 0.76795 0.6814 0.52921 0.0
C1148 C 0.11357 0.78188 0.74705 0.0
C1149 C 0.14704 0.80098 0.73779 0.0
C1150 C 0.08132 0.76506 0.73612 0.0
C1151 C 0.08226 0.767 0.71531 0.0
C1152 C 0.11609 0.78558 0.70589 0.0
C1153 C 0.14783 0.8024 0.71718 0.0
C1154 C 0.04607 0.74604 0.74691 0.0
C1155 C 0.11874 0.78811 0.6838 0.0
C1156 C 1.00409 0.70239 0.68407 0.0
C1157 C 0.98644 0.7209 0.6783 0.0
C1158 C 0.03462 0.71668 0.69647 0.0
C1159 C 0.04802 0.7504 0.70333 0.0
C1160 C 0.02958 0.76882 0.69789 0.0
C1161 C 0.99932 0.75399 0.68534 0.0
C1162 C 0.05328 0.69603 0.70168 0.0
C1163 C 0.04245 0.80463 0.70488 0.0
H1164 H 0.11239 0.781 0.76294 0.0
H1165 H 0.17343 0.81682 0.70981 0.0
H1166 H 0.02952 0.75916 0.74486 0.0
H1167 H 0.0305 0.72014 0.74084 0.0
H1168 H 0.05004 0.74414 0.76289 0.0
H1169 H 0.14706 0.80236 0.67864 0.0
H1170 H 0.10643 0.76243 0.67722 0.0
H1171 H 0.10346 0.80093 0.67824 0.0
H1172 H 0.99467 0.67705 0.67833 0.0
H1173 H 0.9861 0.76855 0.68066 0.0
H1174 H 0.05602 0.69523 0.71784 0.0
H1175 H 0.08089 0.70812 0.69542 0.0
H1176 H 0.03856 0.6697 0.69607 0.0
H1177 H 0.04504 0.80583 0.72111 0.0
H1178 H 0.02392 0.81477 0.70047 0.0
H1179 H 0.06954 0.82126 0.69873 0.0
C1180 C 0.36218 0.1278 0.92622 0.0
C1181 C 0.38622 0.1603 0.91959 0.0
C1182 C 0.35425 0.09892 0.91469 0.0
C1183 C 0.37046 0.1026 0.89594 0.0
C1184 C 0.3959 0.13543 0.88959 0.0
C1185 C 0.40352 0.1638 0.9015 0.0
C1186 C 0.32721 0.06461 0.92223 0.0
C1187 C 0.41369 0.14085 0.86974 0.0
C1188 C 0.36347 0.02422 0.8689 0.0
C1189 C 0.33341 0.01556 0.85671 0.0
C1190 C 0.37593 0.05237 0.88171 0.0
C1191 C 0.35826 0.07273 0.88225 0.0
C1192 C 0.32847 0.0645 0.86963 0.0
C1193 C 0.31648 0.0362 0.85715 0.0
C1194 C 0.40763 0.06001 0.89493 0.0
C1195 C 0.30897 0.08553 0.86938 0.0
H1196 H 0.34858 0.12509 0.94014 0.0
H1197 H 0.42188 0.18897 0.89629 0.0
H1198 H 0.30239 0.05471 0.91316 0.0
H1199 H 0.33814 0.04644 0.92095 0.0
H1200 H 0.31976 0.06553 0.93778 0.0
H1201 H 0.43516 0.16731 0.86769 0.0
H1202 H 0.4256 0.12357 0.86776 0.0
H1203 H 0.39316 0.13486 0.85806 0.0
H1204 H 0.37668 1.00845 0.8688 0.0
H1205 H 0.29366 0.03024 0.84758 0.0
H1206 H 0.39924 0.05834 0.91051 0.0
H1207 H 0.42919 0.08623 0.8924 0.0
H1208 H 0.41895 0.04231 0.89254 0.0
H1209 H 0.29749 0.08515 0.8841 0.0
H1210 H 0.28678 0.07627 0.85844 0.0
H1211 H 0.32816 0.11225 0.86595 0.0
C1212 C 0.67242 0.7902 0.78725 0.0
C1213 C 0.67695 0.79355 0.76676 0.0
C1214 C 0.68781 0.77385 0.79857 0.0
C1215 C 0.70826 0.76006 0.78934 0.0
C1216 C 0.71226 0.76259 0.76863 0.0
C1217 C 0.69673 0.77928 0.75766 0.0
C1218 C 0.68267 0.77189 0.82056 0.0
C1219 C 0.7337 0.74834 0.75806 0.0
C1220 C 0.77647 0.74949 0.82218 0.0
C1221 C 0.75749 0.71541 0.8278 0.0
C1222 C 0.76135 0.76398 0.8092 0.0
C1223 C 0.72619 0.74399 0.80153 0.0
C1224 C 0.70742 0.7092 0.80664 0.0
C1225 C 0.72309 0.69545 0.81981 0.0
C1226 C 0.78243 0.80115 0.80442 0.0
C1227 C 0.6701 0.68673 0.79879 0.0
H1228 H 0.65682 0.80051 0.79454 0.0
H1229 H 0.70106 0.78201 0.74193 0.0
H1230 H 0.66991 0.74512 0.82541 0.0
H1231 H 0.70925 0.78512 0.82795 0.0
H1232 H 0.66568 0.78338 0.82552 0.0
H1233 H 0.73168 0.74959 0.74185 0.0
H1234 H 0.7625 0.76274 0.7623 0.0
H1235 H 0.72426 0.72162 0.7624 0.0
H1236 H 0.80275 0.76519 0.8286 0.0
H1237 H 0.70779 0.66936 0.8245 0.0
H1238 H 0.76836 0.81473 0.81055 0.0
H1239 H 0.78404 0.80499 0.78829 0.0
H1240 H 0.81022 0.81272 0.81047 0.0
H1241 H 0.65092 0.69481 0.80497 0.0
H1242 H 0.66047 0.65972 0.80257 0.0
H1243 H 0.66967 0.68914 0.7826 0.0
C1244 C 0.90519 0.67576 0.94536 0.0
C1245 C 0.90814 0.68721 0.92594 0.0
C1246 C 0.93585 0.68581 0.95741 0.0
C1247 C 0.97071 0.70722 0.94979 0.0
C1248 C 0.97391 0.71727 0.92978 0.0
C1249 C 0.94262 0.70737 0.91817 0.0
C1250 C 0.93073 0.67468 0.9786 0.0
C1251 C 1.01033 0.73932 0.92078 0.0
C1252 C 0.04331 0.76171 0.98712 0.0
C1253 C 0.06094 0.74232 0.99086 0.0
C1254 C 1.01465 0.75103 0.97353 0.0
C1255 C 1.00332 0.72026 0.96307 0.0
C1256 C 0.0218 0.70108 0.96636 0.0
C1257 C 0.04982 0.71198 0.9804 0.0
C1258 C 0.99552 0.77209 0.97095 0.0
C1259 C 1.01126 0.66844 0.95546 0.0
H1260 H 0.87859 0.66006 0.95139 0.0
H1261 H 0.94504 0.71625 0.90317 0.0
H1262 H 0.94689 0.66162 0.98199 0.0
H1263 H 0.94048 0.69716 0.98831 0.0
H1264 H 0.90206 0.65741 0.98217 0.0
H1265 H 1.00861 0.74248 0.9047 0.0
H1266 H 0.02255 0.76468 0.92775 0.0
H1267 H 0.02871 0.72832 0.92354 0.0
H1268 H 0.05127 0.78485 0.99537 0.0
H1269 H 0.06233 0.69617 0.98362 0.0
H1270 H 0.96696 0.75725 0.97556 0.0
H1271 H 0.99552 0.77868 0.95526 0.0
H1272 H 1.00816 0.79583 0.97967 0.0
H1273 H 0.98423 0.64906 0.96038 0.0
H1274 H 0.03072 0.65853 0.95792 0.0
H1275 H 1.00949 0.67219 0.93948 0.0
C1276 C 0.26909 0.8767 0.09758 0.0
C1277 C 0.23733 0.87247 0.08835 0.0
C1278 C 0.29027 0.90556 0.10911 0.0
C1279 C 0.27832 0.92992 0.11277 0.0
C1280 C 0.24597 0.9255 0.10371 0.0
C1281 C 0.22642 0.89738 0.09138 0.0
C1282 C 0.32506 0.90945 0.11777 0.0
C1283 C 0.23094 0.94959 0.10779 0.0
C1284 C 0.30988 0.98003 0.16084 0.0
C1285 C 0.33351 1.0133 0.15455 0.0
C1286 C 0.29144 0.95325 0.1475 0.0
C1287 C 0.29811 0.95857 0.12709 0.0
C1288 C 0.32323 0.99132 0.12053 0.0
C1289 C 0.33976 0.01822 0.13413 0.0
C1290 C 0.26416 0.91921 0.15534 0.0
C1291 C 0.33267 0.99804 0.09905 0.0
H1292 H 0.27695 0.85695 0.09638 0.0
H1293 H 0.20161 0.8941 0.08464 0.0
H1294 H 0.34666 0.936 0.11647 0.0
H1295 H 0.32125 0.90295 0.13359 0.0
H1296 H 0.33421 0.89263 0.11045 0.0
H1297 H 0.20558 0.94277 0.09961 0.0
H1298 H 0.22548 0.94955 0.12373 0.0
H1299 H 0.25089 0.97575 0.10377 0.0
H1300 H 0.30526 0.97435 0.17629 0.0
H1301 H 0.35723 0.04319 0.12848 0.0
H1302 H 0.27381 0.90033 0.15291 0.0
H1303 H 0.23819 0.91019 0.14741 0.0
H1304 H 0.2591 0.92 0.17129 0.0
H1305 H 0.33951 0.97874 0.093 0.0
H1306 H 0.35575 0.02352 0.0965 0.0
H1307 H 0.30913 0.99616 0.09072 0.0
C1308 C 0.36743 0.26625 0.2666 0.0
C1309 C 0.36986 0.23691 0.27169 0.0
C1310 C 0.35234 0.2809 0.27946 0.0
C1311 C 0.3392 0.26609 0.29808 0.0
C1312 C 0.34268 0.23718 0.30362 0.0
C1313 C 0.35795 0.22303 0.29043 0.0
C1314 C 0.34962 0.31182 0.27289 0.0
C1315 C 0.32923 0.22052 0.32329 0.0
C1316 C 0.32442 0.31903 0.33788 0.0
C1317 C 0.28702 0.30712 0.33708 0.0
C1318 C 0.34168 0.30597 0.32538 0.0
C1319 C 0.32119 0.28045 0.31152 0.0
C1320 C 0.28342 0.26887 0.31042 0.0
C1321 C 0.26685 0.28233 0.32319 0.0
C1322 C 0.38187 0.31927 0.32713 0.0
C1323 C 0.26042 0.242 0.29585 0.0
H1324 H 0.37691 0.2776 0.25231 0.0
H1325 H 0.3592 0.20021 0.29453 0.0
H1326 H 0.32088 0.30587 0.27203 0.0
H1327 H 0.36281 0.3325 0.28375 0.0
H1328 H 0.36226 0.3211 0.25831 0.0
H1329 H 0.33535 0.19924 0.32584 0.0
H1330 H 0.34158 0.23931 0.33525 0.0
H1331 H 0.29963 0.21072 0.32421 0.0
H1332 H 0.34011 0.33834 0.34856 0.0
H1333 H 0.23798 0.27315 0.3225 0.0
H1334 H 0.39507 0.32982 0.31286 0.0
H1335 H 0.38783 0.29829 0.33088 0.0
H1336 H 0.39403 0.33925 0.33852 0.0
H1337 H 0.27029 0.25052 0.28072 0.0
H1338 H 0.23159 0.23588 0.29667 0.0
H1339 H 0.26254 0.21856 0.29856 0.0
C1340 C 0.11176 0.36466 0.42755 0.0
C1341 C 0.12444 0.34177 0.42235 0.0
C1342 C 0.08027 0.35448 0.43895 0.0
C1343 C 0.06286 0.32148 0.44732 0.0
C1344 C 0.07574 0.2983 0.44211 0.0
C1345 C 0.10503 0.3083 0.42909 0.0
C1346 C 0.06684 0.37998 0.44225 0.0
C1347 C 0.06 0.26312 0.45068 0.0
C1348 C 1.01512 0.3191 0.49581 0.0
C1349 C 0.98058 0.29172 0.49316 0.0
C1350 C 0.04223 0.32803 0.48148 0.0
C1351 C 0.03372 0.31226 0.46271 0.0
C1352 C 0.9976 0.28695 0.45921 0.0
C1353 C 0.97208 0.27617 0.47464 0.0
C1354 C 0.08003 0.35391 0.48707 0.0
C1355 C 0.98513 0.27067 0.43935 0.0
H1356 H 0.12707 0.39101 0.42353 0.0
H1357 H 0.11441 0.29025 0.42519 0.0
H1358 H 0.03918 0.36863 0.44839 0.0
H1359 H 0.08556 0.40011 0.45226 0.0
H1360 H 0.06701 0.39252 0.42815 0.0
H1361 H 0.08092 0.25469 0.45204 0.0
H1362 H 0.04787 0.26136 0.46537 0.0
H1363 H 0.03897 0.2452 0.44061 0.0
H1364 H 0.02159 0.33301 0.50951 0.0
H1365 H 0.94523 0.2556 0.47209 0.0
H1366 H 0.08304 0.37963 0.48481 0.0
H1367 H 0.10099 0.35132 0.47845 0.0
H1368 H 0.08509 0.35174 0.50289 0.0
H1369 H 0.95856 0.26901 0.43576 0.0
H1370 H 0.98112 0.24436 0.43987 0.0
H1371 H 1.00425 0.28456 0.42737 0.0
C1372 C 0.68612 0.01739 0.63537 0.0
C1373 C 0.7063 1.01372 0.65079 0.0
C1374 C 0.70194 0.04426 0.62171 0.0
C1375 C 0.7389 0.06834 0.62342 0.0
C1376 C 0.75949 0.06444 0.63873 0.0
C1377 C 0.74313 0.0373 0.65203 0.0
C1378 C 0.679 0.04711 0.60554 0.0
C1379 C 0.79895 0.08921 0.64121 0.0
C1380 C 0.79492 0.12586 0.58131 0.0
C1381 C 0.79658 0.15688 0.58643 0.0
C1382 C 0.7747 0.09642 0.59255 0.0
C1383 C 0.75618 0.09811 0.60962 0.0
C1384 C 0.75692 0.12931 0.61441 0.0
C1385 C 0.77701 0.15822 0.60276 0.0
C1386 C 0.77464 0.06393 0.58664 0.0
C1387 C 0.73803 0.13264 0.63246 0.0
H1388 H 0.6577 0.99966 0.63417 0.0
H1389 H 0.7595 0.03451 0.66344 0.0
H1390 H 0.67755 0.0711 0.60713 0.0
H1391 H 0.69143 0.04786 0.59105 0.0
H1392 H 0.65116 0.02572 0.60563 0.0
H1393 H 0.81399 0.08977 0.62772 0.0
H1394 H 0.80231 0.11509 0.64342 0.0
H1395 H 0.81128 0.0828 0.65386 0.0
H1396 H 0.81048 0.12489 0.56885 0.0
H1397 H 0.77878 0.18233 0.60691 0.0
H1398 H 0.74706 0.04232 0.58757 0.0
H1399 H 0.792 0.0587 0.59685 0.0
H1400 H 0.78496 0.06523 0.57148 0.0
H1401 H 0.70953 0.11262 0.63263 0.0
H1402 H 0.7387 0.1577 0.63333 0.0
H1403 H 0.75117 0.12921 0.64578 0.0
loop_
_geom_bond_atom_site_label_1
_geom_bond_atom_site_label_2
_geom_bond_distance
_geom_bond_site_symmetry_2
_ccdc_geom_bond_type
C0 C1 1.443 . S
C0 N4 1.376 . S
C0 C38 1.389 . S
C1 C0 1.443 . S
C1 C2 1.340 . S
C1 H41 0.951 . S
C2 C1 1.340 . S
C2 C3 1.439 . S
C2 H42 0.950 . S
C3 C2 1.439 . S
C3 N4 1.374 . S
C3 C37 1.395 . S
N4 C0 1.376 . S
N4 C3 1.374 . S
N4 Co5 2.008 . S
Co5 N4 2.008 . S
Co5 N6 1.995 . S
Co5 N11 2.008 . S
Co5 N16 1.995 . S
Co5 N21 2.282 . S
Co5 N27 2.282 . S
N6 Co5 1.995 . S
N6 C7 1.376 . S
N6 C10 1.383 . S
C7 N6 1.376 . S
C7 C8 1.446 . S
C7 C37 1.391 . S
C8 C7 1.446 . S
C8 C9 1.339 . S
C8 H43 0.949 . S
C9 C8 1.339 . S
C9 C10 1.439 . S
C9 H44 0.950 . S
C10 N6 1.383 . S
C10 C9 1.439 . S
C10 C39 1.392 . S
N11 Co5 2.008 . S
N11 C12 1.376 . S
N11 C15 1.374 . S
C12 N11 1.376 . S
C12 C13 1.443 . S
C12 C39 1.389 . S
C13 C12 1.443 . S
C13 C14 1.340 . S
C13 H45 0.951 . S
C14 C13 1.340 . S
C14 C15 1.439 . S
C14 H46 0.950 . S
C15 N11 1.374 . S
C15 C14 1.439 . S
C15 C40 1.395 . S
N16 Co5 1.995 . S
N16 C17 1.376 . S
N16 C20 1.383 . S
C17 N16 1.376 . S
C17 C18 1.446 . S
C17 C40 1.391 . S
C18 C17 1.446 . S
C18 C19 1.339 . S
C18 H47 0.949 . S
C19 C18 1.339 . S
C19 C20 1.439 . S
C19 H48 0.950 . S
C20 N16 1.383 . S
C20 C19 1.439 . S
C20 C38 1.392 . S
N21 Co5 2.282 . S
N21 C24 1.332 . S
N21 C26 1.332 . S
C22 C23 1.386 . S
C22 C25 1.388 . S
C23 C22 1.386 . S
C23 C24 1.382 . S
C23 H49 0.950 . S
C24 N21 1.332 . S
C24 C23 1.382 . S
C24 H35 0.952 . S
C25 C22 1.388 . S
C25 C26 1.382 . S
C25 H50 0.950 . S
C26 N21 1.332 . S
C26 C25 1.382 . S
C26 H36 0.948 . S
N27 Co5 2.282 . S
N27 C31 1.332 . S
N27 C32 1.332 . S
C28 C29 1.388 . S
C28 C32 1.382 . S
C28 H51 0.950 . S
C29 C28 1.388 . S
C29 C30 1.386 . S
C30 C29 1.386 . S
C30 C31 1.382 . S
C30 H52 0.950 . S
C31 N27 1.332 . S
C31 C30 1.382 . S
C31 H33 0.952 . S
C32 N27 1.332 . S
C32 C28 1.382 . S
C32 H34 0.948 . S
H33 C31 0.952 . S
H34 C32 0.948 . S
H35 C24 0.952 . S
H36 C26 0.948 . S
C37 C3 1.395 . S
C37 C7 1.391 . S
C38 C0 1.389 . S
C38 C20 1.392 . S
C39 C10 1.392 . S
C39 C12 1.389 . S
C40 C15 1.395 . S
C40 C17 1.391 . S
H41 C1 0.951 . S
H42 C2 0.950 . S
H43 C8 0.949 . S
H44 C9 0.950 . S
H45 C13 0.951 . S
H46 C14 0.950 . S
H47 C18 0.949 . S
H48 C19 0.950 . S
H49 C23 0.950 . S
H50 C25 0.950 . S
H51 C28 0.950 . S
H52 C30 0.950 . S
C53 C54 1.443 . S
C53 N57 1.376 . S
C53 C91 1.389 . S
C54 C53 1.443 . S
C54 C55 1.340 . S
C54 H94 0.951 . S
C55 C54 1.340 . S
C55 C56 1.439 . S
C55 H95 0.950 . S
C56 C55 1.439 . S
C56 N57 1.374 . S
C56 C90 1.395 . S
N57 C53 1.376 . S
N57 C56 1.374 . S
N57 Co58 2.008 . S
Co58 N57 2.008 . S
Co58 N59 1.995 . S
Co58 N64 2.008 . S
Co58 N69 1.995 . S
Co58 N74 2.282 . S
Co58 N80 2.282 . S
N59 Co58 1.995 . S
N59 C60 1.376 . S
N59 C63 1.383 . S
C60 N59 1.376 . S
C60 C61 1.446 . S
C60 C90 1.391 . S
C61 C60 1.446 . S
C61 C62 1.339 . S
C61 H96 0.949 . S
C62 C61 1.339 . S
C62 C63 1.439 . S
C62 H97 0.950 . S
C63 N59 1.383 . S
C63 C62 1.439 . S
C63 C92 1.392 . S
N64 Co58 2.008 . S
N64 C65 1.376 . S
N64 C68 1.374 . S
C65 N64 1.376 . S
C65 C66 1.443 . S
C65 C92 1.389 . S
C66 C65 1.443 . S
C66 C67 1.340 . S
C66 H98 0.951 . S
C67 C66 1.340 . S
C67 C68 1.439 . S
C67 H99 0.950 . S
C68 N64 1.374 . S
C68 C67 1.439 . S
C68 C93 1.395 . S
N69 Co58 1.995 . S
N69 C70 1.376 . S
N69 C73 1.383 . S
C70 N69 1.376 . S
C70 C71 1.446 . S
C70 C93 1.391 . S
C71 C70 1.446 . S
C71 C72 1.339 . S
C71 H100 0.949 . S
C72 C71 1.339 . S
C72 C73 1.439 . S
C72 H101 0.950 . S
C73 N69 1.383 . S
C73 C72 1.439 . S
C73 C91 1.392 . S
N74 Co58 2.282 . S
N74 C77 1.332 . S
N74 C79 1.332 . S
C75 C76 1.386 . S
C75 C78 1.388 . S
C76 C75 1.386 . S
C76 C77 1.382 . S
C76 H102 0.950 . S
C77 N74 1.332 . S
C77 C76 1.382 . S
C77 H88 0.952 . S
C78 C75 1.388 . S
C78 C79 1.382 . S
C78 H103 0.950 . S
C79 N74 1.332 . S
C79 C78 1.382 . S
C79 H89 0.948 . S
N80 Co58 2.282 . S
N80 C84 1.332 . S
N80 C85 1.332 . S
C81 C82 1.388 . S
C81 C85 1.382 . S
C81 H104 0.950 . S
C82 C81 1.388 . S
C82 C83 1.386 . S
C83 C82 1.386 . S
C83 C84 1.382 . S
C83 H105 0.950 . S
C84 N80 1.332 . S
C84 C83 1.382 . S
C84 H86 0.952 . S
C85 N80 1.332 . S
C85 C81 1.382 . S
C85 H87 0.948 . S
H86 C84 0.952 . S
H87 C85 0.948 . S
H88 C77 0.952 . S
H89 C79 0.948 . S
C90 C56 1.395 . S
C90 C60 1.391 . S
C91 C53 1.389 . S
C91 C73 1.392 . S
C92 C63 1.392 . S
C92 C65 1.389 . S
C93 C68 1.395 . S
C93 C70 1.391 . S
H94 C54 0.951 . S
H95 C55 0.950 . S
H96 C61 0.949 . S
H97 C62 0.950 . S
H98 C66 0.951 . S
H99 C67 0.950 . S
H100 C71 0.949 . S
H101 C72 0.950 . S
H102 C76 0.950 . S
H103 C78 0.950 . S
H104 C81 0.950 . S
H105 C83 0.950 . S
C106 C107 1.443 . S
C106 N110 1.376 . S
C106 C144 1.389 . S
C107 C106 1.443 . S
C107 C108 1.340 . S
C107 H147 0.951 . S
C108 C107 1.340 . S
C108 C109 1.439 . S
C108 H148 0.950 . S
C109 C108 1.439 . S
C109 N110 1.374 . S
C109 C143 1.395 . S
N110 C106 1.376 . S
N110 C109 1.374 . S
N110 Co111 2.008 . S
Co111 N110 2.008 . S
Co111 N112 1.995 . S
Co111 N117 2.008 . S
Co111 N122 1.995 . S
Co111 N127 2.282 . S
Co111 N133 2.282 . S
N112 Co111 1.995 . S
N112 C113 1.376 . S
N112 C116 1.383 . S
C113 N112 1.376 . S
C113 C114 1.446 . S
C113 C143 1.391 . S
C114 C113 1.446 . S
C114 C115 1.339 . S
C114 H149 0.949 . S
C115 C114 1.339 . S
C115 C116 1.439 . S
C115 H150 0.950 . S
C116 N112 1.383 . S
C116 C115 1.439 . S
C116 C145 1.392 . S
N117 Co111 2.008 . S
N117 C118 1.376 . S
N117 C121 1.374 . S
C118 N117 1.376 . S
C118 C119 1.443 . S
C118 C145 1.389 . S
C119 C118 1.443 . S
C119 C120 1.340 . S
C119 H151 0.951 . S
C120 C119 1.340 . S
C120 C121 1.439 . S
C120 H152 0.950 . S
C121 N117 1.374 . S
C121 C120 1.439 . S
C121 C146 1.395 . S
N122 Co111 1.995 . S
N122 C123 1.376 . S
N122 C126 1.383 . S
C123 N122 1.376 . S
C123 C124 1.446 . S
C123 C146 1.391 . S
C124 C123 1.446 . S
C124 C125 1.339 . S
C124 H153 0.949 . S
C125 C124 1.339 . S
C125 C126 1.439 . S
C125 H154 0.950 . S
C126 N122 1.383 . S
C126 C125 1.439 . S
C126 C144 1.392 . S
N127 Co111 2.282 . S
N127 C130 1.332 . S
N127 C132 1.332 . S
C128 C129 1.386 . S
C128 C131 1.388 . S
C129 C128 1.386 . S
C129 C130 1.382 . S
C129 H155 0.950 . S
C130 N127 1.332 . S
C130 C129 1.382 . S
C130 H141 0.952 . S
C131 C128 1.388 . S
C131 C132 1.382 . S
C131 H156 0.950 . S
C132 N127 1.332 . S
C132 C131 1.382 . S
C132 H142 0.948 . S
N133 Co111 2.282 . S
N133 C137 1.332 . S
N133 C138 1.332 . S
C134 C135 1.388 . S
C134 C138 1.382 . S
C134 H157 0.950 . S
C135 C134 1.388 . S
C135 C136 1.386 . S
C136 C135 1.386 . S
C136 C137 1.382 . S
C136 H158 0.950 . S
C137 N133 1.332 . S
C137 C136 1.382 . S
C137 H139 0.952 . S
C138 N133 1.332 . S
C138 C134 1.382 . S
C138 H140 0.948 . S
H139 C137 0.952 . S
H140 C138 0.948 . S
H141 C130 0.952 . S
H142 C132 0.948 . S
C143 C109 1.395 . S
C143 C113 1.391 . S
C144 C106 1.389 . S
C144 C126 1.392 . S
C145 C116 1.392 . S
C145 C118 1.389 . S
C146 C121 1.395 . S
C146 C123 1.391 . S
H147 C107 0.951 . S
H148 C108 0.950 . S
H149 C114 0.949 . S
H150 C115 0.950 . S
H151 C119 0.951 . S
H152 C120 0.950 . S
H153 C124 0.949 . S
H154 C125 0.950 . S
H155 C129 0.950 . S
H156 C131 0.950 . S
H157 C134 0.950 . S
H158 C136 0.950 . S
C159 C160 1.443 . S
C159 N163 1.376 . S
C159 C197 1.389 . S
C160 C159 1.443 . S
C160 C161 1.340 . S
C160 H200 0.951 . S
C161 C160 1.340 . S
C161 C162 1.439 . S
C161 H201 0.950 . S
C162 C161 1.439 . S
C162 N163 1.374 . S
C162 C196 1.395 . S
N163 C159 1.376 . S
N163 C162 1.374 . S
N163 Co164 2.008 . S
Co164 N163 2.008 . S
Co164 N165 1.995 . S
Co164 N170 2.008 . S
Co164 N175 1.995 . S
Co164 N180 2.282 . S
Co164 N186 2.282 . S
N165 Co164 1.995 . S
N165 C166 1.376 . S
N165 C169 1.383 . S
C166 N165 1.376 . S
C166 C167 1.446 . S
C166 C196 1.391 . S
C167 C166 1.446 . S
C167 C168 1.339 . S
C167 H202 0.949 . S
C168 C167 1.339 . S
C168 C169 1.439 . S
C168 H203 0.950 . S
C169 N165 1.383 . S
C169 C168 1.439 . S
C169 C198 1.392 . S
N170 Co164 2.008 . S
N170 C171 1.376 . S
N170 C174 1.374 . S
C171 N170 1.376 . S
C171 C172 1.443 . S
C171 C198 1.389 . S
C172 C171 1.443 . S
C172 C173 1.340 . S
C172 H204 0.951 . S
C173 C172 1.340 . S
C173 C174 1.439 . S
C173 H205 0.950 . S
C174 N170 1.374 . S
C174 C173 1.439 . S
C174 C199 1.395 . S
N175 Co164 1.995 . S
N175 C176 1.376 . S
N175 C179 1.383 . S
C176 N175 1.376 . S
C176 C177 1.446 . S
C176 C199 1.391 . S
C177 C176 1.446 . S
C177 C178 1.339 . S
C177 H206 0.949 . S
C178 C177 1.339 . S
C178 C179 1.439 . S
C178 H207 0.950 . S
C179 N175 1.383 . S
C179 C178 1.439 . S
C179 C197 1.392 . S
N180 Co164 2.282 . S
N180 C183 1.332 . S
N180 C185 1.332 . S
C181 C182 1.386 . S
C181 C184 1.388 . S
C182 C181 1.386 . S
C182 C183 1.382 . S
C182 H208 0.950 . S
C183 N180 1.332 . S
C183 C182 1.382 . S
C183 H194 0.952 . S
C184 C181 1.388 . S
C184 C185 1.382 . S
C184 H209 0.950 . S
C185 N180 1.332 . S
C185 C184 1.382 . S
C185 H195 0.948 . S
N186 Co164 2.282 . S
N186 C190 1.332 . S
N186 C191 1.332 . S
C187 C188 1.388 . S
C187 C191 1.382 . S
C187 H210 0.950 . S
C188 C187 1.388 . S
C188 C189 1.386 . S
C189 C188 1.386 . S
C189 C190 1.382 . S
C189 H211 0.950 . S
C190 N186 1.332 . S
C190 C189 1.382 . S
C190 H192 0.952 . S
C191 N186 1.332 . S
C191 C187 1.382 . S
C191 H193 0.948 . S
H192 C190 0.952 . S
H193 C191 0.948 . S
H194 C183 0.952 . S
H195 C185 0.948 . S
C196 C162 1.395 . S
C196 C166 1.391 . S
C197 C159 1.389 . S
C197 C179 1.392 . S
C198 C169 1.392 . S
C198 C171 1.389 . S
C199 C174 1.395 . S
C199 C176 1.391 . S
H200 C160 0.951 . S
H201 C161 0.950 . S
H202 C167 0.949 . S
H203 C168 0.950 . S
H204 C172 0.951 . S
H205 C173 0.950 . S
H206 C177 0.949 . S
H207 C178 0.950 . S
H208 C182 0.950 . S
H209 C184 0.950 . S
H210 C187 0.950 . S
H211 C189 0.950 . S
C212 C213 1.443 . S
C212 N216 1.376 . S
C212 C250 1.389 . S
C213 C212 1.443 . S
C213 C214 1.340 . S
C213 H253 0.951 . S
C214 C213 1.340 . S
C214 C215 1.439 . S
C214 H254 0.950 . S
C215 C214 1.439 . S
C215 N216 1.374 . S
C215 C249 1.395 . S
N216 C212 1.376 . S
N216 C215 1.374 . S
N216 Co217 2.008 . S
Co217 N216 2.008 . S
Co217 N218 1.995 . S
Co217 N223 2.008 . S
Co217 N228 1.995 . S
Co217 N233 2.282 . S
Co217 N239 2.282 . S
N218 Co217 1.995 . S
N218 C219 1.376 . S
N218 C222 1.383 . S
C219 N218 1.376 . S
C219 C220 1.446 . S
C219 C249 1.391 . S
C220 C219 1.446 . S
C220 C221 1.339 . S
C220 H255 0.949 . S
C221 C220 1.339 . S
C221 C222 1.439 . S
C221 H256 0.950 . S
C222 N218 1.383 . S
C222 C221 1.439 . S
C222 C251 1.392 . S
N223 Co217 2.008 . S
N223 C224 1.376 . S
N223 C227 1.374 . S
C224 N223 1.376 . S
C224 C225 1.443 . S
C224 C251 1.389 . S
C225 C224 1.443 . S
C225 C226 1.340 . S
C225 H257 0.951 . S
C226 C225 1.340 . S
C226 C227 1.439 . S
C226 H258 0.950 . S
C227 N223 1.374 . S
C227 C226 1.439 . S
C227 C252 1.395 . S
N228 Co217 1.995 . S
N228 C229 1.376 . S
N228 C232 1.383 . S
C229 N228 1.376 . S
C229 C230 1.446 . S
C229 C252 1.391 . S
C230 C229 1.446 . S
C230 C231 1.339 . S
C230 H259 0.949 . S
C231 C230 1.339 . S
C231 C232 1.439 . S
C231 H260 0.950 . S
C232 N228 1.383 . S
C232 C231 1.439 . S
C232 C250 1.392 . S
N233 Co217 2.282 . S
N233 C236 1.332 . S
N233 C238 1.332 . S
C234 C235 1.386 . S
C234 C237 1.388 . S
C235 C234 1.386 . S
C235 C236 1.382 . S
C235 H261 0.950 . S
C236 N233 1.332 . S
C236 C235 1.382 . S
C236 H247 0.952 . S
C237 C234 1.388 . S
C237 C238 1.382 . S
C237 H262 0.950 . S
C238 N233 1.332 . S
C238 C237 1.382 . S
C238 H248 0.948 . S
N239 Co217 2.282 . S
N239 C243 1.332 . S
N239 C244 1.332 . S
C240 C241 1.388 . S
C240 C244 1.382 . S
C240 H263 0.950 . S
C241 C240 1.388 . S
C241 C242 1.386 . S
C242 C241 1.386 . S
C242 C243 1.382 . S
C242 H264 0.950 . S
C243 N239 1.332 . S
C243 C242 1.382 . S
C243 H245 0.952 . S
C244 N239 1.332 . S
C244 C240 1.382 . S
C244 H246 0.948 . S
H245 C243 0.952 . S
H246 C244 0.948 . S
H247 C236 0.952 . S
H248 C238 0.948 . S
C249 C215 1.395 . S
C249 C219 1.391 . S
C250 C212 1.389 . S
C250 C232 1.392 . S
C251 C222 1.392 . S
C251 C224 1.389 . S
C252 C227 1.395 . S
C252 C229 1.391 . S
H253 C213 0.951 . S
H254 C214 0.950 . S
H255 C220 0.949 . S
H256 C221 0.950 . S
H257 C225 0.951 . S
H258 C226 0.950 . S
H259 C230 0.949 . S
H260 C231 0.950 . S
H261 C235 0.950 . S
H262 C237 0.950 . S
H263 C240 0.950 . S
H264 C242 0.950 . S
C265 C266 1.443 . S
C265 N269 1.376 . S
C265 C303 1.389 . S
C266 C265 1.443 . S
C266 C267 1.340 . S
C266 H306 0.951 . S
C267 C266 1.340 . S
C267 C268 1.439 . S
C267 H307 0.950 . S
C268 C267 1.439 . S
C268 N269 1.374 . S
C268 C302 1.395 . S
N269 C265 1.376 . S
N269 C268 1.374 . S
N269 Co270 2.008 . S
Co270 N269 2.008 . S
Co270 N271 1.995 . S
Co270 N276 2.008 . S
Co270 N281 1.995 . S
Co270 N286 2.282 . S
Co270 N292 2.282 . S
N271 Co270 1.995 . S
N271 C272 1.376 . S
N271 C275 1.383 . S
C272 N271 1.376 . S
C272 C273 1.446 . S
C272 C302 1.391 . S
C273 C272 1.446 . S
C273 C274 1.339 . S
C273 H308 0.949 . S
C274 C273 1.339 . S
C274 C275 1.439 . S
C274 H309 0.950 . S
C275 N271 1.383 . S
C275 C274 1.439 . S
C275 C304 1.392 . S
N276 Co270 2.008 . S
N276 C277 1.376 . S
N276 C280 1.374 . S
C277 N276 1.376 . S
C277 C278 1.443 . S
C277 C304 1.389 . S
C278 C277 1.443 . S
C278 C279 1.340 . S
C278 H310 0.951 . S
C279 C278 1.340 . S
C279 C280 1.439 . S
C279 H311 0.950 . S
C280 N276 1.374 . S
C280 C279 1.439 . S
C280 C305 1.395 . S
N281 Co270 1.995 . S
N281 C282 1.376 . S
N281 C285 1.383 . S
C282 N281 1.376 . S
C282 C283 1.446 . S
C282 C305 1.391 . S
C283 C282 1.446 . S
C283 C284 1.339 . S
C283 H312 0.949 . S
C284 C283 1.339 . S
C284 C285 1.439 . S
C284 H313 0.950 . S
C285 N281 1.383 . S
C285 C284 1.439 . S
C285 C303 1.392 . S
N286 Co270 2.282 . S
N286 C289 1.332 . S
N286 C291 1.332 . S
C287 C288 1.386 . S
C287 C290 1.388 . S
C288 C287 1.386 . S
C288 C289 1.382 . S
C288 H314 0.950 . S
C289 N286 1.332 . S
C289 C288 1.382 . S
C289 H300 0.952 . S
C290 C287 1.388 . S
C290 C291 1.382 . S
C290 H315 0.950 . S
C291 N286 1.332 . S
C291 C290 1.382 . S
C291 H301 0.948 . S
N292 Co270 2.282 . S
N292 C296 1.332 . S
N292 C297 1.332 . S
C293 C294 1.388 . S
C293 C297 1.382 . S
C293 H316 0.950 . S
C294 C293 1.388 . S
C294 C295 1.386 . S
C295 C294 1.386 . S
C295 C296 1.382 . S
C295 H317 0.950 . S
C296 N292 1.332 . S
C296 C295 1.382 . S
C296 H298 0.952 . S
C297 N292 1.332 . S
C297 C293 1.382 . S
C297 H299 0.948 . S
H298 C296 0.952 . S
H299 C297 0.948 . S
H300 C289 0.952 . S
H301 C291 0.948 . S
C302 C268 1.395 . S
C302 C272 1.391 . S
C303 C265 1.389 . S
C303 C285 1.392 . S
C304 C275 1.392 . S
C304 C277 1.389 . S
C305 C280 1.395 . S
C305 C282 1.391 . S
H306 C266 0.951 . S
H307 C267 0.950 . S
H308 C273 0.949 . S
H309 C274 0.950 . S
H310 C278 0.951 . S
H311 C279 0.950 . S
H312 C283 0.949 . S
H313 C284 0.950 . S
H314 C288 0.950 . S
H315 C290 0.950 . S
H316 C293 0.950 . S
H317 C295 0.950 . S
C318 C319 1.443 . S
C318 N322 1.376 . S
C318 C356 1.389 . S
C319 C318 1.443 . S
C319 C320 1.340 . S
C319 H359 0.951 . S
C320 C319 1.340 . S
C320 C321 1.439 . S
C320 H360 0.950 . S
C321 C320 1.439 . S
C321 N322 1.374 . S
C321 C355 1.395 . S
N322 C318 1.376 . S
N322 C321 1.374 . S
N322 Co323 2.008 . S
Co323 N322 2.008 . S
Co323 N324 1.995 . S
Co323 N329 2.008 . S
Co323 N334 1.995 . S
Co323 N339 2.282 . S
Co323 N345 2.282 . S
N324 Co323 1.995 . S
N324 C325 1.376 . S
N324 C328 1.383 . S
C325 N324 1.376 . S
C325 C326 1.446 . S
C325 C355 1.391 . S
C326 C325 1.446 . S
C326 C327 1.339 . S
C326 H361 0.949 . S
C327 C326 1.339 . S
C327 C328 1.439 . S
C327 H362 0.950 . S
C328 N324 1.383 . S
C328 C327 1.439 . S
C328 C357 1.392 . S
N329 Co323 2.008 . S
N329 C330 1.376 . S
N329 C333 1.374 . S
C330 N329 1.376 . S
C330 C331 1.443 . S
C330 C357 1.389 . S
C331 C330 1.443 . S
C331 C332 1.340 . S
C331 H363 0.951 . S
C332 C331 1.340 . S
C332 C333 1.439 . S
C332 H364 0.950 . S
C333 N329 1.374 . S
C333 C332 1.439 . S
C333 C358 1.395 . S
N334 Co323 1.995 . S
N334 C335 1.376 . S
N334 C338 1.383 . S
C335 N334 1.376 . S
C335 C336 1.446 . S
C335 C358 1.391 . S
C336 C335 1.446 . S
C336 C337 1.339 . S
C336 H365 0.949 . S
C337 C336 1.339 . S
C337 C338 1.439 . S
C337 H366 0.950 . S
C338 N334 1.383 . S
C338 C337 1.439 . S
C338 C356 1.392 . S
N339 Co323 2.282 . S
N339 C342 1.332 . S
N339 C344 1.332 . S
C340 C341 1.386 . S
C340 C343 1.388 . S
C341 C340 1.386 . S
C341 C342 1.382 . S
C341 H367 0.950 . S
C342 N339 1.332 . S
C342 C341 1.382 . S
C342 H353 0.952 . S
C343 C340 1.388 . S
C343 C344 1.382 . S
C343 H368 0.950 . S
C344 N339 1.332 . S
C344 C343 1.382 . S
C344 H354 0.948 . S
N345 Co323 2.282 . S
N345 C349 1.332 . S
N345 C350 1.332 . S
C346 C347 1.388 . S
C346 C350 1.382 . S
C346 H369 0.950 . S
C347 C346 1.388 . S
C347 C348 1.386 . S
C348 C347 1.386 . S
C348 C349 1.382 . S
C348 H370 0.950 . S
C349 N345 1.332 . S
C349 C348 1.382 . S
C349 H351 0.952 . S
C350 N345 1.332 . S
C350 C346 1.382 . S
C350 H352 0.948 . S
H351 C349 0.952 . S
H352 C350 0.948 . S
H353 C342 0.952 . S
H354 C344 0.948 . S
C355 C321 1.395 . S
C355 C325 1.391 . S
C356 C318 1.389 . S
C356 C338 1.392 . S
C357 C328 1.392 . S
C357 C330 1.389 . S
C358 C333 1.395 . S
C358 C335 1.391 . S
H359 C319 0.951 . S
H360 C320 0.950 . S
H361 C326 0.949 . S
H362 C327 0.950 . S
H363 C331 0.951 . S
H364 C332 0.950 . S
H365 C336 0.949 . S
H366 C337 0.950 . S
H367 C341 0.950 . S
H368 C343 0.950 . S
H369 C346 0.950 . S
H370 C348 0.950 . S
C371 C372 1.443 . S
C371 N375 1.376 . S
C371 C409 1.389 . S
C372 C371 1.443 . S
C372 C373 1.340 . S
C372 H412 0.951 . S
C373 C372 1.340 . S
C373 C374 1.439 . S
C373 H413 0.950 . S
C374 C373 1.439 . S
C374 N375 1.374 . S
C374 C408 1.395 . S
N375 C371 1.376 . S
N375 C374 1.374 . S
N375 Co376 2.008 . S
Co376 N375 2.008 . S
Co376 N377 1.995 . S
Co376 N382 2.008 . S
Co376 N387 1.995 . S
Co376 N392 2.282 . S
Co376 N398 2.282 . S
N377 Co376 1.995 . S
N377 C378 1.376 . S
N377 C381 1.383 . S
C378 N377 1.376 . S
C378 C379 1.446 . S
C378 C408 1.391 . S
C379 C378 1.446 . S
C379 C380 1.339 . S
C379 H414 0.949 . S
C380 C379 1.339 . S
C380 C381 1.439 . S
C380 H415 0.950 . S
C381 N377 1.383 . S
C381 C380 1.439 . S
C381 C410 1.392 . S
N382 Co376 2.008 . S
N382 C383 1.376 . S
N382 C386 1.374 . S
C383 N382 1.376 . S
C383 C384 1.443 . S
C383 C410 1.389 . S
C384 C383 1.443 . S
C384 C385 1.340 . S
C384 H416 0.951 . S
C385 C384 1.340 . S
C385 C386 1.439 . S
C385 H417 0.950 . S
C386 N382 1.374 . S
C386 C385 1.439 . S
C386 C411 1.395 . S
N387 Co376 1.995 . S
N387 C388 1.376 . S
N387 C391 1.383 . S
C388 N387 1.376 . S
C388 C389 1.446 . S
C388 C411 1.391 . S
C389 C388 1.446 . S
C389 C390 1.339 . S
C389 H418 0.949 . S
C390 C389 1.339 . S
C390 C391 1.439 . S
C390 H419 0.950 . S
C391 N387 1.383 . S
C391 C390 1.439 . S
C391 C409 1.392 . S
N392 Co376 2.282 . S
N392 C395 1.332 . S
N392 C397 1.332 . S
C393 C394 1.386 . S
C393 C396 1.388 . S
C394 C393 1.386 . S
C394 C395 1.382 . S
C394 H420 0.950 . S
C395 N392 1.332 . S
C395 C394 1.382 . S
C395 H406 0.952 . S
C396 C393 1.388 . S
C396 C397 1.382 . S
C396 H421 0.950 . S
C397 N392 1.332 . S
C397 C396 1.382 . S
C397 H407 0.948 . S
N398 Co376 2.282 . S
N398 C402 1.332 . S
N398 C403 1.332 . S
C399 C400 1.388 . S
C399 C403 1.382 . S
C399 H422 0.950 . S
C400 C399 1.388 . S
C400 C401 1.386 . S
C401 C400 1.386 . S
C401 C402 1.382 . S
C401 H423 0.950 . S
C402 N398 1.332 . S
C402 C401 1.382 . S
C402 H404 0.952 . S
C403 N398 1.332 . S
C403 C399 1.382 . S
C403 H405 0.948 . S
H404 C402 0.952 . S
H405 C403 0.948 . S
H406 C395 0.952 . S
H407 C397 0.948 . S
C408 C374 1.395 . S
C408 C378 1.391 . S
C409 C371 1.389 . S
C409 C391 1.392 . S
C410 C381 1.392 . S
C410 C383 1.389 . S
C411 C386 1.395 . S
C411 C388 1.391 . S
H412 C372 0.951 . S
H413 C373 0.950 . S
H414 C379 0.949 . S
H415 C380 0.950 . S
H416 C384 0.951 . S
H417 C385 0.950 . S
H418 C389 0.949 . S
H419 C390 0.950 . S
H420 C394 0.950 . S
H421 C396 0.950 . S
H422 C399 0.950 . S
H423 C401 0.950 . S
C424 C425 1.443 . S
C424 N428 1.376 . S
C424 C462 1.389 . S
C425 C424 1.443 . S
C425 C426 1.340 . S
C425 H465 0.951 . S
C426 C425 1.340 . S
C426 C427 1.439 . S
C426 H466 0.950 . S
C427 C426 1.439 . S
C427 N428 1.374 . S
C427 C461 1.395 . S
N428 C424 1.376 . S
N428 C427 1.374 . S
N428 Co429 2.008 . S
Co429 N428 2.008 . S
Co429 N430 1.995 . S
Co429 N435 2.008 . S
Co429 N440 1.995 . S
Co429 N445 2.282 . S
Co429 N451 2.282 . S
N430 Co429 1.995 . S
N430 C431 1.376 . S
N430 C434 1.383 . S
C431 N430 1.376 . S
C431 C432 1.446 . S
C431 C461 1.391 . S
C432 C431 1.446 . S
C432 C433 1.339 . S
C432 H467 0.949 . S
C433 C432 1.339 . S
C433 C434 1.439 . S
C433 H468 0.950 . S
C434 N430 1.383 . S
C434 C433 1.439 . S
C434 C463 1.392 . S
N435 Co429 2.008 . S
N435 C436 1.376 . S
N435 C439 1.374 . S
C436 N435 1.376 . S
C436 C437 1.443 . S
C436 C463 1.389 . S
C437 C436 1.443 . S
C437 C438 1.340 . S
C437 H469 0.951 . S
C438 C437 1.340 . S
C438 C439 1.439 . S
C438 H470 0.950 . S
C439 N435 1.374 . S
C439 C438 1.439 . S
C439 C464 1.395 . S
N440 Co429 1.995 . S
N440 C441 1.376 . S
N440 C444 1.383 . S
C441 N440 1.376 . S
C441 C442 1.446 . S
C441 C464 1.391 . S
C442 C441 1.446 . S
C442 C443 1.339 . S
C442 H471 0.949 . S
C443 C442 1.339 . S
C443 C444 1.439 . S
C443 H472 0.950 . S
C444 N440 1.383 . S
C444 C443 1.439 . S
C444 C462 1.392 . S
N445 Co429 2.282 . S
N445 C448 1.332 . S
N445 C450 1.332 . S
C446 C447 1.386 . S
C446 C449 1.388 . S
C447 C446 1.386 . S
C447 C448 1.382 . S
C447 H473 0.950 . S
C448 N445 1.332 . S
C448 C447 1.382 . S
C448 H459 0.952 . S
C449 C446 1.388 . S
C449 C450 1.382 . S
C449 H474 0.950 . S
C450 N445 1.332 . S
C450 C449 1.382 . S
C450 H460 0.948 . S
N451 Co429 2.282 . S
N451 C455 1.332 . S
N451 C456 1.332 . S
C452 C453 1.388 . S
C452 C456 1.382 . S
C452 H475 0.950 . S
C453 C452 1.388 . S
C453 C454 1.386 . S
C454 C453 1.386 . S
C454 C455 1.382 . S
C454 H476 0.950 . S
C455 N451 1.332 . S
C455 C454 1.382 . S
C455 H457 0.952 . S
C456 N451 1.332 . S
C456 C452 1.382 . S
C456 H458 0.948 . S
H457 C455 0.952 . S
H458 C456 0.948 . S
H459 C448 0.952 . S
H460 C450 0.948 . S
C461 C427 1.395 . S
C461 C431 1.391 . S
C462 C424 1.389 . S
C462 C444 1.392 . S
C463 C434 1.392 . S
C463 C436 1.389 . S
C464 C439 1.395 . S
C464 C441 1.391 . S
H465 C425 0.951 . S
H466 C426 0.950 . S
H467 C432 0.949 . S
H468 C433 0.950 . S
H469 C437 0.951 . S
H470 C438 0.950 . S
H471 C442 0.949 . S
H472 C443 0.950 . S
H473 C447 0.950 . S
H474 C449 0.950 . S
H475 C452 0.950 . S
H476 C454 0.950 . S
C477 C478 1.443 . S
C477 N481 1.376 . S
C477 C515 1.389 . S
C478 C477 1.443 . S
C478 C479 1.340 . S
C478 H518 0.951 . S
C479 C478 1.340 . S
C479 C480 1.439 . S
C479 H519 0.950 . S
C480 C479 1.439 . S
C480 N481 1.374 . S
C480 C514 1.395 . S
N481 C477 1.376 . S
N481 C480 1.374 . S
N481 Co482 2.008 . S
Co482 N481 2.008 . S
Co482 N483 1.995 . S
Co482 N488 2.008 . S
Co482 N493 1.995 . S
Co482 N498 2.282 . S
Co482 N504 2.282 . S
N483 Co482 1.995 . S
N483 C484 1.376 . S
N483 C487 1.383 . S
C484 N483 1.376 . S
C484 C485 1.446 . S
C484 C514 1.391 . S
C485 C484 1.446 . S
C485 C486 1.339 . S
C485 H520 0.949 . S
C486 C485 1.339 . S
C486 C487 1.439 . S
C486 H521 0.950 . S
C487 N483 1.383 . S
C487 C486 1.439 . S
C487 C516 1.392 . S
N488 Co482 2.008 . S
N488 C489 1.376 . S
N488 C492 1.374 . S
C489 N488 1.376 . S
C489 C490 1.443 . S
C489 C516 1.389 . S
C490 C489 1.443 . S
C490 C491 1.340 . S
C490 H522 0.951 . S
C491 C490 1.340 . S
C491 C492 1.439 . S
C491 H523 0.950 . S
C492 N488 1.374 . S
C492 C491 1.439 . S
C492 C517 1.395 . S
N493 Co482 1.995 . S
N493 C494 1.376 . S
N493 C497 1.383 . S
C494 N493 1.376 . S
C494 C495 1.446 . S
C494 C517 1.391 . S
C495 C494 1.446 . S
C495 C496 1.339 . S
C495 H524 0.949 . S
C496 C495 1.339 . S
C496 C497 1.439 . S
C496 H525 0.950 . S
C497 N493 1.383 . S
C497 C496 1.439 . S
C497 C515 1.392 . S
N498 Co482 2.282 . S
N498 C501 1.332 . S
N498 C503 1.332 . S
C499 C500 1.386 . S
C499 C502 1.388 . S
C500 C499 1.386 . S
C500 C501 1.382 . S
C500 H526 0.950 . S
C501 N498 1.332 . S
C501 C500 1.382 . S
C501 H512 0.952 . S
C502 C499 1.388 . S
C502 C503 1.382 . S
C502 H527 0.950 . S
C503 N498 1.332 . S
C503 C502 1.382 . S
C503 H513 0.948 . S
N504 Co482 2.282 . S
N504 C508 1.332 . S
N504 C509 1.332 . S
C505 C506 1.388 . S
C505 C509 1.382 . S
C505 H528 0.950 . S
C506 C505 1.388 . S
C506 C507 1.386 . S
C507 C506 1.386 . S
C507 C508 1.382 . S
C507 H529 0.950 . S
C508 N504 1.332 . S
C508 C507 1.382 . S
C508 H510 0.952 . S
C509 N504 1.332 . S
C509 C505 1.382 . S
C509 H511 0.948 . S
H510 C508 0.952 . S
H511 C509 0.948 . S
H512 C501 0.952 . S
H513 C503 0.948 . S
C514 C480 1.395 . S
C514 C484 1.391 . S
C515 C477 1.389 . S
C515 C497 1.392 . S
C516 C487 1.392 . S
C516 C489 1.389 . S
C517 C492 1.395 . S
C517 C494 1.391 . S
H518 C478 0.951 . S
H519 C479 0.950 . S
H520 C485 0.949 . S
H521 C486 0.950 . S
H522 C490 0.951 . S
H523 C491 0.950 . S
H524 C495 0.949 . S
H525 C496 0.950 . S
H526 C500 0.950 . S
H527 C502 0.950 . S
H528 C505 0.950 . S
H529 C507 0.950 . S
C530 C531 1.443 . S
C530 N534 1.376 . S
C530 C568 1.389 . S
C531 C530 1.443 . S
C531 C532 1.340 . S
C531 H571 0.951 . S
C532 C531 1.340 . S
C532 C533 1.439 . S
C532 H572 0.950 . S
C533 C532 1.439 . S
C533 N534 1.374 . S
C533 C567 1.395 . S
N534 C530 1.376 . S
N534 C533 1.374 . S
N534 Co535 2.008 . S
Co535 N534 2.008 . S
Co535 N536 1.995 . S
Co535 N541 2.008 . S
Co535 N546 1.995 . S
Co535 N551 2.282 . S
Co535 N557 2.282 . S
N536 Co535 1.995 . S
N536 C537 1.376 . S
N536 C540 1.383 . S
C537 N536 1.376 . S
C537 C538 1.446 . S
C537 C567 1.391 . S
C538 C537 1.446 . S
C538 C539 1.339 . S
C538 H573 0.949 . S
C539 C538 1.339 . S
C539 C540 1.439 . S
C539 H574 0.950 . S
C540 N536 1.383 . S
C540 C539 1.439 . S
C540 C569 1.392 . S
N541 Co535 2.008 . S
N541 C542 1.376 . S
N541 C545 1.374 . S
C542 N541 1.376 . S
C542 C543 1.443 . S
C542 C569 1.389 . S
C543 C542 1.443 . S
C543 C544 1.340 . S
C543 H575 0.951 . S
C544 C543 1.340 . S
C544 C545 1.439 . S
C544 H576 0.950 . S
C545 N541 1.374 . S
C545 C544 1.439 . S
C545 C570 1.395 . S
N546 Co535 1.995 . S
N546 C547 1.376 . S
N546 C550 1.383 . S
C547 N546 1.376 . S
C547 C548 1.446 . S
C547 C570 1.391 . S
C548 C547 1.446 . S
C548 C549 1.339 . S
C548 H577 0.949 . S
C549 C548 1.339 . S
C549 C550 1.439 . S
C549 H578 0.950 . S
C550 N546 1.383 . S
C550 C549 1.439 . S
C550 C568 1.392 . S
N551 Co535 2.282 . S
N551 C554 1.332 . S
N551 C556 1.332 . S
C552 C553 1.386 . S
C552 C555 1.388 . S
C553 C552 1.386 . S
C553 C554 1.382 . S
C553 H579 0.950 . S
C554 N551 1.332 . S
C554 C553 1.382 . S
C554 H565 0.952 . S
C555 C552 1.388 . S
C555 C556 1.382 . S
C555 H580 0.950 . S
C556 N551 1.332 . S
C556 C555 1.382 . S
C556 H566 0.948 . S
N557 Co535 2.282 . S
N557 C561 1.332 . S
N557 C562 1.332 . S
C558 C559 1.388 . S
C558 C562 1.382 . S
C558 H581 0.950 . S
C559 C558 1.388 . S
C559 C560 1.386 . S
C560 C559 1.386 . S
C560 C561 1.382 . S
C560 H582 0.950 . S
C561 N557 1.332 . S
C561 C560 1.382 . S
C561 H563 0.952 . S
C562 N557 1.332 . S
C562 C558 1.382 . S
C562 H564 0.948 . S
H563 C561 0.952 . S
H564 C562 0.948 . S
H565 C554 0.952 . S
H566 C556 0.948 . S
C567 C533 1.395 . S
C567 C537 1.391 . S
C568 C530 1.389 . S
C568 C550 1.392 . S
C569 C540 1.392 . S
C569 C542 1.389 . S
C570 C545 1.395 . S
C570 C547 1.391 . S
H571 C531 0.951 . S
H572 C532 0.950 . S
H573 C538 0.949 . S
H574 C539 0.950 . S
H575 C543 0.951 . S
H576 C544 0.950 . S
H577 C548 0.949 . S
H578 C549 0.950 . S
H579 C553 0.950 . S
H580 C555 0.950 . S
H581 C558 0.950 . S
H582 C560 0.950 . S
C583 C584 1.443 . S
C583 N587 1.376 . S
C583 C621 1.389 . S
C584 C583 1.443 . S
C584 C585 1.340 . S
C584 H624 0.951 . S
C585 C584 1.340 . S
C585 C586 1.439 . S
C585 H625 0.950 . S
C586 C585 1.439 . S
C586 N587 1.374 . S
C586 C620 1.395 . S
N587 C583 1.376 . S
N587 C586 1.374 . S
N587 Co588 2.008 . S
Co588 N587 2.008 . S
Co588 N589 1.995 . S
Co588 N594 2.008 . S
Co588 N599 1.995 . S
Co588 N604 2.282 . S
Co588 N610 2.282 . S
N589 Co588 1.995 . S
N589 C590 1.376 . S
N589 C593 1.383 . S
C590 N589 1.376 . S
C590 C591 1.446 . S
C590 C620 1.391 . S
C591 C590 1.446 . S
C591 C592 1.339 . S
C591 H626 0.949 . S
C592 C591 1.339 . S
C592 C593 1.439 . S
C592 H627 0.950 . S
C593 N589 1.383 . S
C593 C592 1.439 . S
C593 C622 1.392 . S
N594 Co588 2.008 . S
N594 C595 1.376 . S
N594 C598 1.374 . S
C595 N594 1.376 . S
C595 C596 1.443 . S
C595 C622 1.389 . S
C596 C595 1.443 . S
C596 C597 1.340 . S
C596 H628 0.951 . S
C597 C596 1.340 . S
C597 C598 1.439 . S
C597 H629 0.950 . S
C598 N594 1.374 . S
C598 C597 1.439 . S
C598 C623 1.395 . S
N599 Co588 1.995 . S
N599 C600 1.376 . S
N599 C603 1.383 . S
C600 N599 1.376 . S
C600 C601 1.446 . S
C600 C623 1.391 . S
C601 C600 1.446 . S
C601 C602 1.339 . S
C601 H630 0.949 . S
C602 C601 1.339 . S
C602 C603 1.439 . S
C602 H631 0.950 . S
C603 N599 1.383 . S
C603 C602 1.439 . S
C603 C621 1.392 . S
N604 Co588 2.282 . S
N604 C607 1.332 . S
N604 C609 1.332 . S
C605 C606 1.386 . S
C605 C608 1.388 . S
C606 C605 1.386 . S
C606 C607 1.382 . S
C606 H632 0.950 . S
C607 N604 1.332 . S
C607 C606 1.382 . S
C607 H618 0.952 . S
C608 C605 1.388 . S
C608 C609 1.382 . S
C608 H633 0.950 . S
C609 N604 1.332 . S
C609 C608 1.382 . S
C609 H619 0.948 . S
N610 Co588 2.282 . S
N610 C614 1.332 . S
N610 C615 1.332 . S
C611 C612 1.388 . S
C611 C615 1.382 . S
C611 H634 0.950 . S
C612 C611 1.388 . S
C612 C613 1.386 . S
C613 C612 1.386 . S
C613 C614 1.382 . S
C613 H635 0.950 . S
C614 N610 1.332 . S
C614 C613 1.382 . S
C614 H616 0.952 . S
C615 N610 1.332 . S
C615 C611 1.382 . S
C615 H617 0.948 . S
H616 C614 0.952 . S
H617 C615 0.948 . S
H618 C607 0.952 . S
H619 C609 0.948 . S
C620 C586 1.395 . S
C620 C590 1.391 . S
C621 C583 1.389 . S
C621 C603 1.392 . S
C622 C593 1.392 . S
C622 C595 1.389 . S
C623 C598 1.395 . S
C623 C600 1.391 . S
H624 C584 0.951 . S
H625 C585 0.950 . S
H626 C591 0.949 . S
H627 C592 0.950 . S
H628 C596 0.951 . S
H629 C597 0.950 . S
H630 C601 0.949 . S
H631 C602 0.950 . S
H632 C606 0.950 . S
H633 C608 0.950 . S
H634 C611 0.950 . S
H635 C613 0.950 . S
C636 C637 1.391 . S
C636 C638 1.394 . S
C636 H652 0.931 . S
C637 C636 1.391 . S
C637 C641 1.376 . S
C638 C636 1.394 . S
C638 C639 1.369 . S
C638 C642 1.531 . S
C639 C638 1.369 . S
C639 C640 1.410 . S
C639 C647 1.503 . S
C640 C639 1.410 . S
C640 C641 1.392 . S
C640 C643 1.511 . S
C641 C637 1.376 . S
C641 C640 1.392 . S
C641 H653 0.929 . S
C642 C638 1.531 . S
C642 H654 0.960 . S
C642 H655 0.962 . S
C642 H656 0.960 . S
C643 C640 1.511 . S
C643 H657 0.961 . S
C643 H658 0.961 . S
C643 H659 0.961 . S
C644 C645 1.370 . S
C644 C646 1.363 . S
C644 H660 0.931 . S
C645 C644 1.370 . S
C645 C649 1.408 . S
C646 C644 1.363 . S
C646 C647 1.370 . S
C646 C650 1.524 . S
C647 C639 1.503 . S
C647 C646 1.370 . S
C647 C648 1.403 . S
C648 C647 1.403 . S
C648 C649 1.404 . S
C648 C651 1.539 . S
C649 C645 1.408 . S
C649 C648 1.404 . S
C649 H661 0.930 . S
C650 C646 1.524 . S
C650 H662 0.956 . S
C650 H663 0.961 . S
C650 H664 0.961 . S
C651 C648 1.539 . S
C651 H665 0.958 . S
C651 H666 0.961 . S
C651 H667 0.960 . S
H652 C636 0.931 . S
H653 C641 0.929 . S
H654 C642 0.960 . S
H655 C642 0.962 . S
H656 C642 0.960 . S
H657 C643 0.961 . S
H658 C643 0.961 . S
H659 C643 0.961 . S
H660 C644 0.931 . S
H661 C649 0.930 . S
H662 C650 0.956 . S
H663 C650 0.961 . S
H664 C650 0.961 . S
H665 C651 0.958 . S
H666 C651 0.961 . S
H667 C651 0.960 . S
C668 C669 1.391 . S
C668 C670 1.394 . S
C668 H684 0.931 . S
C669 C668 1.391 . S
C669 C673 1.376 . S
C670 C668 1.394 . S
C670 C671 1.369 . S
C670 C674 1.531 . S
C671 C670 1.369 . S
C671 C672 1.410 . S
C671 C679 1.503 . S
C672 C671 1.410 . S
C672 C673 1.392 . S
C672 C675 1.511 . S
C673 C669 1.376 . S
C673 C672 1.392 . S
C673 H685 0.929 . S
C674 C670 1.531 . S
C674 H686 0.960 . S
C674 H687 0.962 . S
C674 H688 0.960 . S
C675 C672 1.511 . S
C675 H689 0.961 . S
C675 H690 0.961 . S
C675 H691 0.961 . S
C676 C677 1.370 . S
C676 C678 1.363 . S
C676 H692 0.931 . S
C677 C676 1.370 . S
C677 C681 1.408 . S
C678 C676 1.363 . S
C678 C679 1.370 . S
C678 C682 1.524 . S
C679 C671 1.503 . S
C679 C678 1.370 . S
C679 C680 1.403 . S
C680 C679 1.403 . S
C680 C681 1.404 . S
C680 C683 1.539 . S
C681 C677 1.408 . S
C681 C680 1.404 . S
C681 H693 0.930 . S
C682 C678 1.524 . S
C682 H694 0.956 . S
C682 H695 0.961 . S
C682 H696 0.961 . S
C683 C680 1.539 . S
C683 H697 0.958 . S
C683 H698 0.961 . S
C683 H699 0.960 . S
H684 C668 0.931 . S
H685 C673 0.929 . S
H686 C674 0.960 . S
H687 C674 0.962 . S
H688 C674 0.960 . S
H689 C675 0.961 . S
H690 C675 0.961 . S
H691 C675 0.961 . S
H692 C676 0.931 . S
H693 C681 0.930 . S
H694 C682 0.956 . S
H695 C682 0.961 . S
H696 C682 0.961 . S
H697 C683 0.958 . S
H698 C683 0.961 . S
H699 C683 0.960 . S
C700 C701 1.391 . S
C700 C702 1.394 . S
C700 H716 0.931 . S
C701 C700 1.391 . S
C701 C705 1.376 . S
C702 C700 1.394 . S
C702 C703 1.369 . S
C702 C706 1.531 . S
C703 C702 1.369 . S
C703 C704 1.410 . S
C703 C711 1.503 . S
C704 C703 1.410 . S
C704 C705 1.392 . S
C704 C707 1.511 . S
C705 C701 1.376 . S
C705 C704 1.392 . S
C705 H717 0.929 . S
C706 C702 1.531 . S
C706 H718 0.960 . S
C706 H719 0.962 . S
C706 H720 0.960 . S
C707 C704 1.511 . S
C707 H721 0.961 . S
C707 H722 0.961 . S
C707 H723 0.961 . S
C708 C709 1.370 . S
C708 C710 1.363 . S
C708 H724 0.931 . S
C709 C708 1.370 . S
C709 C713 1.408 . S
C710 C708 1.363 . S
C710 C711 1.370 . S
C710 C714 1.524 . S
C711 C703 1.503 . S
C711 C710 1.370 . S
C711 C712 1.403 . S
C712 C711 1.403 . S
C712 C713 1.404 . S
C712 C715 1.539 . S
C713 C709 1.408 . S
C713 C712 1.404 . S
C713 H725 0.930 . S
C714 C710 1.524 . S
C714 H726 0.956 . S
C714 H727 0.961 . S
C714 H728 0.961 . S
C715 C712 1.539 . S
C715 H729 0.958 . S
C715 H730 0.961 . S
C715 H731 0.960 . S
H716 C700 0.931 . S
H717 C705 0.929 . S
H718 C706 0.960 . S
H719 C706 0.962 . S
H720 C706 0.960 . S
H721 C707 0.961 . S
H722 C707 0.961 . S
H723 C707 0.961 . S
H724 C708 0.931 . S
H725 C713 0.930 . S
H726 C714 0.956 . S
H727 C714 0.961 . S
H728 C714 0.961 . S
H729 C715 0.958 . S
H730 C715 0.961 . S
H731 C715 0.960 . S
C732 C733 1.391 . S
C732 C734 1.394 . S
C732 H748 0.931 . S
C733 C732 1.391 . S
C733 C737 1.376 . S
C734 C732 1.394 . S
C734 C735 1.369 . S
C734 C738 1.531 . S
C735 C734 1.369 . S
C735 C736 1.410 . S
C735 C743 1.503 . S
C736 C735 1.410 . S
C736 C737 1.392 . S
C736 C739 1.511 . S
C737 C733 1.376 . S
C737 C736 1.392 . S
C737 H749 0.929 . S
C738 C734 1.531 . S
C738 H750 0.960 . S
C738 H751 0.962 . S
C738 H752 0.960 . S
C739 C736 1.511 . S
C739 H753 0.961 . S
C739 H754 0.961 . S
C739 H755 0.961 . S
C740 C741 1.370 . S
C740 C742 1.363 . S
C740 H756 0.931 . S
C741 C740 1.370 . S
C741 C745 1.408 . S
C742 C740 1.363 . S
C742 C743 1.370 . S
C742 C746 1.524 . S
C743 C735 1.503 . S
C743 C742 1.370 . S
C743 C744 1.403 . S
C744 C743 1.403 . S
C744 C745 1.404 . S
C744 C747 1.539 . S
C745 C741 1.408 . S
C745 C744 1.404 . S
C745 H757 0.930 . S
C746 C742 1.524 . S
C746 H758 0.956 . S
C746 H759 0.961 . S
C746 H760 0.961 . S
C747 C744 1.539 . S
C747 H761 0.958 . S
C747 H762 0.961 . S
C747 H763 0.960 . S
H748 C732 0.931 . S
H749 C737 0.929 . S
H750 C738 0.960 . S
H751 C738 0.962 . S
H752 C738 0.960 . S
H753 C739 0.961 . S
H754 C739 0.961 . S
H755 C739 0.961 . S
H756 C740 0.931 . S
H757 C745 0.930 . S
H758 C746 0.956 . S
H759 C746 0.961 . S
H760 C746 0.961 . S
H761 C747 0.958 . S
H762 C747 0.961 . S
H763 C747 0.960 . S
C764 C765 1.391 . S
C764 C766 1.394 . S
C764 H780 0.931 . S
C765 C764 1.391 . S
C765 C769 1.376 . S
C766 C764 1.394 . S
C766 C767 1.369 . S
C766 C770 1.531 . S
C767 C766 1.369 . S
C767 C768 1.410 . S
C767 C775 1.503 . S
C768 C767 1.410 . S
C768 C769 1.392 . S
C768 C771 1.511 . S
C769 C765 1.376 . S
C769 C768 1.392 . S
C769 H781 0.929 . S
C770 C766 1.531 . S
C770 H782 0.960 . S
C770 H783 0.962 . S
C770 H784 0.960 . S
C771 C768 1.511 . S
C771 H785 0.961 . S
C771 H786 0.961 . S
C771 H787 0.961 . S
C772 C773 1.370 . S
C772 C774 1.363 . S
C772 H788 0.931 . S
C773 C772 1.370 . S
C773 C777 1.408 . S
C774 C772 1.363 . S
C774 C775 1.370 . S
C774 C778 1.524 . S
C775 C767 1.503 . S
C775 C774 1.370 . S
C775 C776 1.403 . S
C776 C775 1.403 . S
C776 C777 1.404 . S
C776 C779 1.539 . S
C777 C773 1.408 . S
C777 C776 1.404 . S
C777 H789 0.930 . S
C778 C774 1.524 . S
C778 H790 0.956 . S
C778 H791 0.961 . S
C778 H792 0.961 . S
C779 C776 1.539 . S
C779 H793 0.958 . S
C779 H794 0.961 . S
C779 H795 0.960 . S
H780 C764 0.931 . S
H781 C769 0.929 . S
H782 C770 0.960 . S
H783 C770 0.962 . S
H784 C770 0.960 . S
H785 C771 0.961 . S
H786 C771 0.961 . S
H787 C771 0.961 . S
H788 C772 0.931 . S
H789 C777 0.930 . S
H790 C778 0.956 . S
H791 C778 0.961 . S
H792 C778 0.961 . S
H793 C779 0.958 . S
H794 C779 0.961 . S
H795 C779 0.960 . S
C796 C797 1.391 . S
C796 C798 1.394 . S
C796 H812 0.931 . S
C797 C796 1.391 . S
C797 C801 1.376 . S
C798 C796 1.394 . S
C798 C799 1.369 . S
C798 C802 1.531 . S
C799 C798 1.369 . S
C799 C800 1.410 . S
C799 C807 1.503 . S
C800 C799 1.410 . S
C800 C801 1.392 . S
C800 C803 1.511 . S
C801 C797 1.376 . S
C801 C800 1.392 . S
C801 H813 0.929 . S
C802 C798 1.531 . S
C802 H814 0.960 . S
C802 H815 0.962 . S
C802 H816 0.960 . S
C803 C800 1.511 . S
C803 H817 0.961 . S
C803 H818 0.961 . S
C803 H819 0.961 . S
C804 C805 1.370 . S
C804 C806 1.363 . S
C804 H820 0.931 . S
C805 C804 1.370 . S
C805 C809 1.408 . S
C806 C804 1.363 . S
C806 C807 1.370 . S
C806 C810 1.524 . S
C807 C799 1.503 . S
C807 C806 1.370 . S
C807 C808 1.403 . S
C808 C807 1.403 . S
C808 C809 1.404 . S
C808 C811 1.539 . S
C809 C805 1.408 . S
C809 C808 1.404 . S
C809 H821 0.930 . S
C810 C806 1.524 . S
C810 H822 0.956 . S
C810 H823 0.961 . S
C810 H824 0.961 . S
C811 C808 1.539 . S
C811 H825 0.958 . S
C811 H826 0.961 . S
C811 H827 0.960 . S
H812 C796 0.931 . S
H813 C801 0.929 . S
H814 C802 0.960 . S
H815 C802 0.962 . S
H816 C802 0.960 . S
H817 C803 0.961 . S
H818 C803 0.961 . S
H819 C803 0.961 . S
H820 C804 0.931 . S
H821 C809 0.930 . S
H822 C810 0.956 . S
H823 C810 0.961 . S
H824 C810 0.961 . S
H825 C811 0.958 . S
H826 C811 0.961 . S
H827 C811 0.960 . S
C828 C829 1.391 . S
C828 C830 1.394 . S
C828 H844 0.931 . S
C829 C828 1.391 . S
C829 C833 1.376 . S
C830 C828 1.394 . S
C830 C831 1.369 . S
C830 C834 1.531 . S
C831 C830 1.369 . S
C831 C832 1.410 . S
C831 C839 1.503 . S
C832 C831 1.410 . S
C832 C833 1.392 . S
C832 C835 1.511 . S
C833 C829 1.376 . S
C833 C832 1.392 . S
C833 H845 0.929 . S
C834 C830 1.531 . S
C834 H846 0.960 . S
C834 H847 0.962 . S
C834 H848 0.960 . S
C835 C832 1.511 . S
C835 H849 0.961 . S
C835 H850 0.961 . S
C835 H851 0.961 . S
C836 C837 1.370 . S
C836 C838 1.363 . S
C836 H852 0.931 . S
C837 C836 1.370 . S
C837 C841 1.408 . S
C838 C836 1.363 . S
C838 C839 1.370 . S
C838 C842 1.524 . S
C839 C831 1.503 . S
C839 C838 1.370 . S
C839 C840 1.403 . S
C840 C839 1.403 . S
C840 C841 1.404 . S
C840 C843 1.539 . S
C841 C837 1.408 . S
C841 C840 1.404 . S
C841 H853 0.930 . S
C842 C838 1.524 . S
C842 H854 0.956 . S
C842 H855 0.961 . S
C842 H856 0.961 . S
C843 C840 1.539 . S
C843 H857 0.958 . S
C843 H858 0.961 . S
C843 H859 0.960 . S
H844 C828 0.931 . S
H845 C833 0.929 . S
H846 C834 0.960 . S
H847 C834 0.962 . S
H848 C834 0.960 . S
H849 C835 0.961 . S
H850 C835 0.961 . S
H851 C835 0.961 . S
H852 C836 0.931 . S
H853 C841 0.930 . S
H854 C842 0.956 . S
H855 C842 0.961 . S
H856 C842 0.961 . S
H857 C843 0.958 . S
H858 C843 0.961 . S
H859 C843 0.960 . S
C860 C861 1.391 . S
C860 C862 1.394 . S
C860 H876 0.931 . S
C861 C860 1.391 . S
C861 C865 1.376 . S
C862 C860 1.394 . S
C862 C863 1.369 . S
C862 C866 1.531 . S
C863 C862 1.369 . S
C863 C864 1.410 . S
C863 C871 1.503 . S
C864 C863 1.410 . S
C864 C865 1.392 . S
C864 C867 1.511 . S
C865 C861 1.376 . S
C865 C864 1.392 . S
C865 H877 0.929 . S
C866 C862 1.531 . S
C866 H878 0.960 . S
C866 H879 0.962 . S
C866 H880 0.960 . S
C867 C864 1.511 . S
C867 H881 0.961 . S
C867 H882 0.961 . S
C867 H883 0.961 . S
C868 C869 1.370 1_655 S
C868 C870 1.363 . S
C868 H884 0.931 . S
C869 C868 1.370 1_455 S
C869 C873 1.408 . S
C870 C868 1.363 . S
C870 C871 1.370 . S
C870 C874 1.524 . S
C871 C863 1.503 . S
C871 C870 1.370 . S
C871 C872 1.403 1_655 S
C872 C871 1.403 1_455 S
C872 C873 1.404 . S
C872 C875 1.539 . S
C873 C869 1.408 . S
C873 C872 1.404 . S
C873 H885 0.930 . S
C874 C870 1.524 . S
C874 H886 0.956 . S
C874 H887 0.961 . S
C874 H888 0.961 . S
C875 C872 1.539 . S
C875 H889 0.958 . S
C875 H890 0.961 . S
C875 H891 0.960 1_455 S
H876 C860 0.931 . S
H877 C865 0.929 . S
H878 C866 0.960 . S
H879 C866 0.962 . S
H880 C866 0.960 . S
H881 C867 0.961 . S
H882 C867 0.961 . S
H883 C867 0.961 . S
H884 C868 0.931 . S
H885 C873 0.930 . S
H886 C874 0.956 . S
H887 C874 0.961 . S
H888 C874 0.961 . S
H889 C875 0.958 . S
H890 C875 0.961 . S
H891 C875 0.960 1_655 S
C892 C893 1.391 . S
C892 C894 1.394 . S
C892 H908 0.931 . S
C893 C892 1.391 . S
C893 C897 1.376 . S
C894 C892 1.394 . S
C894 C895 1.369 . S
C894 C898 1.531 1_545 S
C895 C894 1.369 . S
C895 C896 1.410 . S
C895 C903 1.503 1_545 S
C896 C895 1.410 . S
C896 C897 1.392 . S
C896 C899 1.511 . S
C897 C893 1.376 . S
C897 C896 1.392 . S
C897 H909 0.929 . S
C898 C894 1.531 1_565 S
C898 H910 0.960 . S
C898 H911 0.962 . S
C898 H912 0.960 . S
C899 C896 1.511 . S
C899 H913 0.961 . S
C899 H914 0.961 . S
C899 H915 0.961 . S
C900 C901 1.370 . S
C900 C902 1.363 . S
C900 H916 0.931 . S
C901 C900 1.370 . S
C901 C905 1.408 . S
C902 C900 1.363 . S
C902 C903 1.370 . S
C902 C906 1.524 . S
C903 C895 1.503 1_565 S
C903 C902 1.370 . S
C903 C904 1.403 . S
C904 C903 1.403 . S
C904 C905 1.404 . S
C904 C907 1.539 . S
C905 C901 1.408 . S
C905 C904 1.404 . S
C905 H917 0.930 . S
C906 C902 1.524 . S
C906 H918 0.956 . S
C906 H919 0.961 1_565 S
C906 H920 0.961 . S
C907 C904 1.539 . S
C907 H921 0.958 . S
C907 H922 0.961 . S
C907 H923 0.960 1_565 S
H908 C892 0.931 . S
H909 C897 0.929 . S
H910 C898 0.960 . S
H911 C898 0.962 . S
H912 C898 0.960 . S
H913 C899 0.961 . S
H914 C899 0.961 . S
H915 C899 0.961 . S
H916 C900 0.931 . S
H917 C905 0.930 . S
H918 C906 0.956 . S
H919 C906 0.961 1_545 S
H920 C906 0.961 . S
H921 C907 0.958 . S
H922 C907 0.961 . S
H923 C907 0.960 1_545 S
C924 C925 1.391 . S
C924 C926 1.394 . S
C924 H940 0.931 . S
C925 C924 1.391 . S
C925 C929 1.376 . S
C926 C924 1.394 . S
C926 C927 1.369 . S
C926 C930 1.531 . S
C927 C926 1.369 . S
C927 C928 1.410 . S
C927 C935 1.503 . S
C928 C927 1.410 . S
C928 C929 1.392 . S
C928 C931 1.511 . S
C929 C925 1.376 . S
C929 C928 1.392 . S
C929 H941 0.929 . S
C930 C926 1.531 . S
C930 H942 0.960 . S
C930 H943 0.962 . S
C930 H944 0.960 . S
C931 C928 1.511 . S
C931 H945 0.961 . S
C931 H946 0.961 . S
C931 H947 0.961 . S
C932 C933 1.370 . S
C932 C934 1.363 . S
C932 H948 0.931 . S
C933 C932 1.370 . S
C933 C937 1.408 . S
C934 C932 1.363 . S
C934 C935 1.370 . S
C934 C938 1.524 . S
C935 C927 1.503 . S
C935 C934 1.370 . S
C935 C936 1.403 . S
C936 C935 1.403 . S
C936 C937 1.404 . S
C936 C939 1.539 . S
C937 C933 1.408 . S
C937 C936 1.404 . S
C937 H949 0.930 . S
C938 C934 1.524 . S
C938 H950 0.956 . S
C938 H951 0.961 . S
C938 H952 0.961 . S
C939 C936 1.539 . S
C939 H953 0.958 . S
C939 H954 0.961 . S
C939 H955 0.960 . S
H940 C924 0.931 . S
H941 C929 0.929 . S
H942 C930 0.960 . S
H943 C930 0.962 . S
H944 C930 0.960 . S
H945 C931 0.961 . S
H946 C931 0.961 . S
H947 C931 0.961 . S
H948 C932 0.931 . S
H949 C937 0.930 . S
H950 C938 0.956 . S
H951 C938 0.961 . S
H952 C938 0.961 . S
H953 C939 0.958 . S
H954 C939 0.961 . S
H955 C939 0.960 . S
C956 C957 1.391 . S
C956 C958 1.394 . S
C956 H972 0.931 . S
C957 C956 1.391 . S
C957 C961 1.376 . S
C958 C956 1.394 . S
C958 C959 1.369 1_655 S
C958 C962 1.537 . S
C959 C958 1.369 1_455 S
C959 C960 1.410 . S
C959 C967 1.503 . S
C960 C959 1.410 . S
C960 C961 1.392 1_455 S
C960 C963 1.511 . S
C961 C957 1.376 . S
C961 C960 1.392 1_655 S
C961 H973 0.929 . S
C962 C958 1.537 . S
C962 H974 0.957 1_655 S
C962 H975 0.945 1_655 S
C962 H976 0.975 . S
C963 C960 1.511 . S
C963 H977 0.961 . S
C963 H978 0.961 . S
C963 H979 0.961 . S
C964 C965 1.370 . S
C964 C966 1.363 . S
C964 H980 0.931 . S
C965 C964 1.370 . S
C965 C969 1.408 . S
C966 C964 1.363 . S
C966 C967 1.370 . S
C966 C970 1.524 . S
C967 C959 1.503 . S
C967 C966 1.370 . S
C967 C968 1.403 . S
C968 C967 1.403 . S
C968 C969 1.404 . S
C968 C971 1.539 . S
C969 C965 1.408 . S
C969 C968 1.404 . S
C969 H981 0.930 . S
C970 C966 1.524 . S
C970 H982 0.956 . S
C970 H983 0.961 . S
C970 H984 0.961 . S
C971 C968 1.539 . S
C971 H985 0.958 . S
C971 H986 0.961 . S
C971 H987 0.960 . S
H972 C956 0.931 . S
H973 C961 0.929 . S
H974 C962 0.957 1_455 S
H975 C962 0.945 1_455 S
H976 C962 0.975 . S
H977 C963 0.961 . S
H978 C963 0.961 . S
H979 C963 0.961 . S
H980 C964 0.931 . S
H981 C969 0.930 . S
H982 C970 0.956 . S
H983 C970 0.961 . S
H984 C970 0.961 . S
H985 C971 0.958 . S
H986 C971 0.961 . S
H987 C971 0.960 . S
C988 C989 1.391 . S
C988 C990 1.394 . S
C988 H1004 0.931 . S
C989 C988 1.391 . S
C989 C993 1.376 . S
C990 C988 1.394 . S
C990 C991 1.369 . S
C990 C994 1.531 1_565 S
C991 C990 1.369 . S
C991 C992 1.410 . S
C991 C999 1.503 1_564 S
C992 C991 1.410 . S
C992 C993 1.392 . S
C992 C995 1.511 1_554 S
C993 C989 1.376 . S
C993 C992 1.392 . S
C993 H1005 0.929 . S
C994 C990 1.531 1_545 S
C994 H1006 0.960 . S
C994 H1007 0.962 . S
C994 H1008 0.960 . S
C995 C992 1.511 1_556 S
C995 H1009 0.961 . S
C995 H1010 0.961 . S
C995 H1011 0.961 . S
C996 C997 1.370 . S
C996 C998 1.363 . S
C996 H1012 0.931 . S
C997 C996 1.370 . S
C997 C1001 1.408 . S
C998 C996 1.363 . S
C998 C999 1.370 . S
C998 C1002 1.524 1_545 S
C999 C991 1.503 1_546 S
C999 C998 1.370 . S
C999 C1000 1.404 1_556 S
C1000 C999 1.404 1_554 S
C1000 C1001 1.408 1_554 S
C1000 C1003 1.534 . S
C1001 C997 1.408 . S
C1001 C1000 1.408 1_556 S
C1001 H1013 0.930 . S
C1002 C998 1.524 1_565 S
C1002 H1014 0.956 . S
C1002 H1015 0.961 . S
C1002 H1016 0.961 . S
C1003 C1000 1.534 . S
C1003 H1017 0.958 . S
C1003 H1018 0.961 . S
C1003 H1019 0.960 . S
H1004 C988 0.931 . S
H1005 C993 0.929 . S
H1006 C994 0.960 . S
H1007 C994 0.962 . S
H1008 C994 0.960 . S
H1009 C995 0.961 . S
H1010 C995 0.961 . S
H1011 C995 0.961 . S
H1012 C996 0.931 . S
H1013 C1001 0.930 . S
H1014 C1002 0.956 . S
H1015 C1002 0.961 . S
H1016 C1002 0.961 . S
H1017 C1003 0.958 . S
H1018 C1003 0.961 . S
H1019 C1003 0.960 . S
C1020 C1021 1.391 . S
C1020 C1022 1.394 . S
C1020 H1036 0.931 . S
C1021 C1020 1.391 . S
C1021 C1025 1.376 . S
C1022 C1020 1.394 . S
C1022 C1023 1.369 . S
C1022 C1026 1.531 . S
C1023 C1022 1.369 . S
C1023 C1024 1.410 . S
C1023 C1031 1.503 . S
C1024 C1023 1.410 . S
C1024 C1025 1.392 . S
C1024 C1027 1.511 . S
C1025 C1021 1.376 . S
C1025 C1024 1.392 . S
C1025 H1037 0.929 . S
C1026 C1022 1.531 . S
C1026 H1038 0.960 . S
C1026 H1039 0.962 . S
C1026 H1040 0.960 . S
C1027 C1024 1.511 . S
C1027 H1041 0.961 . S
C1027 H1042 0.961 . S
C1027 H1043 0.961 . S
C1028 C1029 1.370 . S
C1028 C1030 1.396 . S
C1028 H1044 0.931 . S
C1029 C1028 1.370 . S
C1029 C1033 1.408 1_556 S
C1030 C1028 1.396 . S
C1030 C1031 1.321 1_556 S
C1030 C1034 1.542 . S
C1031 C1023 1.503 . S
C1031 C1030 1.321 1_554 S
C1031 C1032 1.403 . S
C1032 C1031 1.403 . S
C1032 C1033 1.404 . S
C1032 C1035 1.539 . S
C1033 C1029 1.408 1_554 S
C1033 C1032 1.404 . S
C1033 H1045 0.930 . S
C1034 C1030 1.542 . S
C1034 H1046 0.956 . S
C1034 H1047 0.961 . S
C1034 H1048 0.961 . S
C1035 C1032 1.539 . S
C1035 H1049 0.958 . S
C1035 H1050 0.961 . S
C1035 H1051 0.960 . S
H1036 C1020 0.931 . S
H1037 C1025 0.929 . S
H1038 C1026 0.960 . S
H1039 C1026 0.962 . S
H1040 C1026 0.960 . S
H1041 C1027 0.961 . S
H1042 C1027 0.961 . S
H1043 C1027 0.961 . S
H1044 C1028 0.931 . S
H1045 C1033 0.930 . S
H1046 C1034 0.956 . S
H1047 C1034 0.961 . S
H1048 C1034 0.961 . S
H1049 C1035 0.958 . S
H1050 C1035 0.961 . S
H1051 C1035 0.960 . S
C1052 C1053 1.391 . S
C1052 C1054 1.394 . S
C1052 H1068 0.931 . S
C1053 C1052 1.391 . S
C1053 C1057 1.376 . S
C1054 C1052 1.394 . S
C1054 C1055 1.369 . S
C1054 C1058 1.531 . S
C1055 C1054 1.369 . S
C1055 C1056 1.410 . S
C1055 C1063 1.503 1_655 S
C1056 C1055 1.410 . S
C1056 C1057 1.392 . S
C1056 C1059 1.511 . S
C1057 C1053 1.376 . S
C1057 C1056 1.392 . S
C1057 H1069 0.929 . S
C1058 C1054 1.531 . S
C1058 H1070 0.960 1_655 S
C1058 H1071 0.962 . S
C1058 H1072 0.960 . S
C1059 C1056 1.511 . S
C1059 H1073 0.961 . S
C1059 H1074 0.961 . S
C1059 H1075 0.961 . S
C1060 C1061 1.370 . S
C1060 C1062 1.363 . S
C1060 H1076 0.931 . S
C1061 C1060 1.370 . S
C1061 C1065 1.408 . S
C1062 C1060 1.363 . S
C1062 C1063 1.370 . S
C1062 C1066 1.524 1_455 S
C1063 C1055 1.503 1_455 S
C1063 C1062 1.370 . S
C1063 C1064 1.403 . S
C1064 C1063 1.403 . S
C1064 C1065 1.404 . S
C1064 C1067 1.539 . S
C1065 C1061 1.408 . S
C1065 C1064 1.404 . S
C1065 H1077 0.930 . S
C1066 C1062 1.524 1_655 S
C1066 H1078 0.956 . S
C1066 H1079 0.961 . S
C1066 H1080 0.961 . S
C1067 C1064 1.539 . S
C1067 H1081 0.958 . S
C1067 H1082 0.961 . S
C1067 H1083 0.960 . S
H1068 C1052 0.931 . S
H1069 C1057 0.929 . S
H1070 C1058 0.960 1_455 S
H1071 C1058 0.962 . S
H1072 C1058 0.960 . S
H1073 C1059 0.961 . S
H1074 C1059 0.961 . S
H1075 C1059 0.961 . S
H1076 C1060 0.931 . S
H1077 C1065 0.930 . S
H1078 C1066 0.956 . S
H1079 C1066 0.961 . S
H1080 C1066 0.961 . S
H1081 C1067 0.958 . S
H1082 C1067 0.961 . S
H1083 C1067 0.960 . S
C1084 C1085 1.391 . S
C1084 C1086 1.388 1_545 S
C1084 H1100 0.931 . S
C1085 C1084 1.391 . S
C1085 C1089 1.376 . S
C1086 C1084 1.388 1_565 S
C1086 C1087 1.372 . S
C1086 C1090 1.533 . S
C1087 C1086 1.372 . S
C1087 C1088 1.410 . S
C1087 C1095 1.503 . S
C1088 C1087 1.410 . S
C1088 C1089 1.392 1_565 S
C1088 C1091 1.511 . S
C1089 C1085 1.376 . S
C1089 C1088 1.392 1_545 S
C1089 H1101 0.929 . S
C1090 C1086 1.533 . S
C1090 H1102 0.960 . S
C1090 H1103 0.962 . S
C1090 H1104 0.960 1_565 S
C1091 C1088 1.511 . S
C1091 H1105 0.961 . S
C1091 H1106 0.961 . S
C1091 H1107 0.961 . S
C1092 C1093 1.370 . S
C1092 C1094 1.363 . S
C1092 H1108 0.931 . S
C1093 C1092 1.370 . S
C1093 C1097 1.408 . S
C1094 C1092 1.363 . S
C1094 C1095 1.370 . S
C1094 C1098 1.524 . S
C1095 C1087 1.503 . S
C1095 C1094 1.370 . S
C1095 C1096 1.403 . S
C1096 C1095 1.403 . S
C1096 C1097 1.404 . S
C1096 C1099 1.539 . S
C1097 C1093 1.408 . S
C1097 C1096 1.404 . S
C1097 H1109 0.930 . S
C1098 C1094 1.524 . S
C1098 H1110 0.956 . S
C1098 H1111 0.961 . S
C1098 H1112 0.961 . S
C1099 C1096 1.539 . S
C1099 H1113 0.958 . S
C1099 H1114 0.961 . S
C1099 H1115 0.960 . S
H1100 C1084 0.931 . S
H1101 C1089 0.929 . S
H1102 C1090 0.960 . S
H1103 C1090 0.962 . S
H1104 C1090 0.960 1_545 S
H1105 C1091 0.961 . S
H1106 C1091 0.961 . S
H1107 C1091 0.961 . S
H1108 C1092 0.931 . S
H1109 C1097 0.930 . S
H1110 C1098 0.956 . S
H1111 C1098 0.961 . S
H1112 C1098 0.961 . S
H1113 C1099 0.958 . S
H1114 C1099 0.961 . S
H1115 C1099 0.960 . S
C1116 C1117 1.391 . S
C1116 C1118 1.394 . S
C1116 H1132 0.931 . S
C1117 C1116 1.391 . S
C1117 C1121 1.376 . S
C1118 C1116 1.394 . S
C1118 C1119 1.369 . S
C1118 C1122 1.531 . S
C1119 C1118 1.369 . S
C1119 C1120 1.410 . S
C1119 C1127 1.503 . S
C1120 C1119 1.410 . S
C1120 C1121 1.392 . S
C1120 C1123 1.511 . S
C1121 C1117 1.376 . S
C1121 C1120 1.392 . S
C1121 H1133 0.929 . S
C1122 C1118 1.531 . S
C1122 H1134 0.960 . S
C1122 H1135 0.962 . S
C1122 H1136 0.960 . S
C1123 C1120 1.511 . S
C1123 H1137 0.961 . S
C1123 H1138 0.961 . S
C1123 H1139 0.961 . S
C1124 C1125 1.370 . S
C1124 C1126 1.363 . S
C1124 H1140 0.931 . S
C1125 C1124 1.370 . S
C1125 C1129 1.408 . S
C1126 C1124 1.363 . S
C1126 C1127 1.370 . S
C1126 C1130 1.524 . S
C1127 C1119 1.503 . S
C1127 C1126 1.370 . S
C1127 C1128 1.403 . S
C1128 C1127 1.403 . S
C1128 C1129 1.404 . S
C1128 C1131 1.539 . S
C1129 C1125 1.408 . S
C1129 C1128 1.404 . S
C1129 H1141 0.930 . S
C1130 C1126 1.524 . S
C1130 H1142 0.956 . S
C1130 H1143 0.961 . S
C1130 H1144 0.961 . S
C1131 C1128 1.539 . S
C1131 H1145 0.958 . S
C1131 H1146 0.961 . S
C1131 H1147 0.960 . S
H1132 C1116 0.931 . S
H1133 C1121 0.929 . S
H1134 C1122 0.960 . S
H1135 C1122 0.962 . S
H1136 C1122 0.960 . S
H1137 C1123 0.961 . S
H1138 C1123 0.961 . S
H1139 C1123 0.961 . S
H1140 C1124 0.931 . S
H1141 C1129 0.930 . S
H1142 C1130 0.956 . S
H1143 C1130 0.961 . S
H1144 C1130 0.961 . S
H1145 C1131 0.958 . S
H1146 C1131 0.961 . S
H1147 C1131 0.960 . S
C1148 C1149 1.391 . S
C1148 C1150 1.394 . S
C1148 H1164 0.931 . S
C1149 C1148 1.391 . S
C1149 C1153 1.376 . S
C1150 C1148 1.394 . S
C1150 C1151 1.369 . S
C1150 C1154 1.531 . S
C1151 C1150 1.369 . S
C1151 C1152 1.410 . S
C1151 C1159 1.503 1_455 S
C1152 C1151 1.410 . S
C1152 C1153 1.392 . S
C1152 C1155 1.511 . S
C1153 C1149 1.376 . S
C1153 C1152 1.392 . S
C1153 H1165 0.929 . S
C1154 C1150 1.531 . S
C1154 H1166 0.960 1_455 S
C1154 H1167 0.962 1_455 S
C1154 H1168 0.960 . S
C1155 C1152 1.511 . S
C1155 H1169 0.961 . S
C1155 H1170 0.961 . S
C1155 H1171 0.961 . S
C1156 C1157 1.370 . S
C1156 C1158 1.363 . S
C1156 H1172 0.931 . S
C1157 C1156 1.370 . S
C1157 C1161 1.408 . S
C1158 C1156 1.363 . S
C1158 C1159 1.370 . S
C1158 C1162 1.524 . S
C1159 C1151 1.503 1_655 S
C1159 C1158 1.370 . S
C1159 C1160 1.403 . S
C1160 C1159 1.403 . S
C1160 C1161 1.404 . S
C1160 C1163 1.539 1_655 S
C1161 C1157 1.408 . S
C1161 C1160 1.404 . S
C1161 H1173 0.930 . S
C1162 C1158 1.524 . S
C1162 H1174 0.956 . S
C1162 H1175 0.961 1_655 S
C1162 H1176 0.961 . S
C1163 C1160 1.539 1_455 S
C1163 H1177 0.958 . S
C1163 H1178 0.961 . S
C1163 H1179 0.960 . S
H1164 C1148 0.931 . S
H1165 C1153 0.929 . S
H1166 C1154 0.960 1_655 S
H1167 C1154 0.962 1_655 S
H1168 C1154 0.960 . S
H1169 C1155 0.961 . S
H1170 C1155 0.961 . S
H1171 C1155 0.961 . S
H1172 C1156 0.931 . S
H1173 C1161 0.930 . S
H1174 C1162 0.956 . S
H1175 C1162 0.961 1_455 S
H1176 C1162 0.961 . S
H1177 C1163 0.958 . S
H1178 C1163 0.961 . S
H1179 C1163 0.960 . S
C1180 C1181 1.391 . S
C1180 C1182 1.394 . S
C1180 H1196 0.931 . S
C1181 C1180 1.391 . S
C1181 C1185 1.376 . S
C1182 C1180 1.394 . S
C1182 C1183 1.369 . S
C1182 C1186 1.531 . S
C1183 C1182 1.369 . S
C1183 C1184 1.410 . S
C1183 C1191 1.503 . S
C1184 C1183 1.410 . S
C1184 C1185 1.392 . S
C1184 C1187 1.511 . S
C1185 C1181 1.376 . S
C1185 C1184 1.392 . S
C1185 H1197 0.929 . S
C1186 C1182 1.531 . S
C1186 H1198 0.960 . S
C1186 H1199 0.962 . S
C1186 H1200 0.960 . S
C1187 C1184 1.511 . S
C1187 H1201 0.961 . S
C1187 H1202 0.961 . S
C1187 H1203 0.961 . S
C1188 C1189 1.370 1_545 S
C1188 C1190 1.363 . S
C1188 H1204 0.931 . S
C1189 C1188 1.370 1_565 S
C1189 C1193 1.408 . S
C1190 C1188 1.363 . S
C1190 C1191 1.370 . S
C1190 C1194 1.524 . S
C1191 C1183 1.503 . S
C1191 C1190 1.370 . S
C1191 C1192 1.403 1_545 S
C1192 C1191 1.403 1_565 S
C1192 C1193 1.404 . S
C1192 C1195 1.539 . S
C1193 C1189 1.408 . S
C1193 C1192 1.404 . S
C1193 H1205 0.930 . S
C1194 C1190 1.524 . S
C1194 H1206 0.956 . S
C1194 H1207 0.961 . S
C1194 H1208 0.961 . S
C1195 C1192 1.539 . S
C1195 H1209 0.958 . S
C1195 H1210 0.961 . S
C1195 H1211 0.960 1_565 S
H1196 C1180 0.931 . S
H1197 C1185 0.929 . S
H1198 C1186 0.960 . S
H1199 C1186 0.962 . S
H1200 C1186 0.960 . S
H1201 C1187 0.961 . S
H1202 C1187 0.961 . S
H1203 C1187 0.961 . S
H1204 C1188 0.931 . S
H1205 C1193 0.930 . S
H1206 C1194 0.956 . S
H1207 C1194 0.961 . S
H1208 C1194 0.961 . S
H1209 C1195 0.958 . S
H1210 C1195 0.961 . S
H1211 C1195 0.960 1_545 S
C1212 C1213 1.391 . S
C1212 C1214 1.394 . S
C1212 H1228 0.931 . S
C1213 C1212 1.391 . S
C1213 C1217 1.376 . S
C1214 C1212 1.394 . S
C1214 C1215 1.369 . S
C1214 C1218 1.531 . S
C1215 C1214 1.369 . S
C1215 C1216 1.410 . S
C1215 C1223 1.503 . S
C1216 C1215 1.410 . S
C1216 C1217 1.392 . S
C1216 C1219 1.511 . S
C1217 C1213 1.376 . S
C1217 C1216 1.392 . S
C1217 H1229 0.929 . S
C1218 C1214 1.531 . S
C1218 H1230 0.960 . S
C1218 H1231 0.962 . S
C1218 H1232 0.960 . S
C1219 C1216 1.511 . S
C1219 H1233 0.961 . S
C1219 H1234 0.961 . S
C1219 H1235 0.961 . S
C1220 C1221 1.370 . S
C1220 C1222 1.363 . S
C1220 H1236 0.931 . S
C1221 C1220 1.370 . S
C1221 C1225 1.408 . S
C1222 C1220 1.363 . S
C1222 C1223 1.370 . S
C1222 C1226 1.524 . S
C1223 C1215 1.503 . S
C1223 C1222 1.370 . S
C1223 C1224 1.403 . S
C1224 C1223 1.403 . S
C1224 C1225 1.404 . S
C1224 C1227 1.539 . S
C1225 C1221 1.408 . S
C1225 C1224 1.404 . S
C1225 H1237 0.930 . S
C1226 C1222 1.524 . S
C1226 H1238 0.956 . S
C1226 H1239 0.961 . S
C1226 H1240 0.961 . S
C1227 C1224 1.539 . S
C1227 H1241 0.958 . S
C1227 H1242 0.961 . S
C1227 H1243 0.960 . S
H1228 C1212 0.931 . S
H1229 C1217 0.929 . S
H1230 C1218 0.960 . S
H1231 C1218 0.962 . S
H1232 C1218 0.960 . S
H1233 C1219 0.961 . S
H1234 C1219 0.961 . S
H1235 C1219 0.961 . S
H1236 C1220 0.931 . S
H1237 C1225 0.930 . S
H1238 C1226 0.956 . S
H1239 C1226 0.961 . S
H1240 C1226 0.961 . S
H1241 C1227 0.958 . S
H1242 C1227 0.961 . S
H1243 C1227 0.960 . S
C1244 C1245 1.391 . S
C1244 C1246 1.394 . S
C1244 H1260 0.931 . S
C1245 C1244 1.391 . S
C1245 C1249 1.376 . S
C1246 C1244 1.394 . S
C1246 C1247 1.369 . S
C1246 C1250 1.563 . S
C1247 C1246 1.369 . S
C1247 C1248 1.410 . S
C1247 C1255 1.503 1_655 S
C1248 C1247 1.410 . S
C1248 C1249 1.392 . S
C1248 C1251 1.511 1_655 S
C1249 C1245 1.376 . S
C1249 C1248 1.392 . S
C1249 H1261 0.929 . S
C1250 C1246 1.563 . S
C1250 H1262 0.940 1_556 S
C1250 H1263 0.961 . S
C1250 H1264 0.951 1_556 S
C1251 C1248 1.511 1_455 S
C1251 H1265 0.961 . S
C1251 H1266 0.961 . S
C1251 H1267 0.961 . S
C1252 C1253 1.370 1_556 S
C1252 C1254 1.363 . S
C1252 H1268 0.931 . S
C1253 C1252 1.370 1_554 S
C1253 C1257 1.408 . S
C1254 C1252 1.363 . S
C1254 C1255 1.370 . S
C1254 C1258 1.524 . S
C1255 C1247 1.503 1_455 S
C1255 C1254 1.370 . S
C1255 C1256 1.403 . S
C1256 C1255 1.403 . S
C1256 C1257 1.404 1_556 S
C1256 C1259 1.539 1_455 S
C1257 C1253 1.408 . S
C1257 C1256 1.404 1_554 S
C1257 H1269 0.930 . S
C1258 C1254 1.524 . S
C1258 H1270 0.956 1_455 S
C1258 H1271 0.961 . S
C1258 H1272 0.961 . S
C1259 C1256 1.539 1_655 S
C1259 H1273 0.958 1_556 S
C1259 H1274 0.953 1_656 S
C1259 H1275 0.960 . S
H1260 C1244 0.931 . S
H1261 C1249 0.929 . S
H1262 C1250 0.940 1_554 S
H1263 C1250 0.961 . S
H1264 C1250 0.951 1_554 S
H1265 C1251 0.961 . S
H1266 C1251 0.961 . S
H1267 C1251 0.961 . S
H1268 C1252 0.931 . S
H1269 C1257 0.930 . S
H1270 C1258 0.956 1_655 S
H1271 C1258 0.961 . S
H1272 C1258 0.961 . S
H1273 C1259 0.958 1_554 S
H1274 C1259 0.953 1_454 S
H1275 C1259 0.960 . S
C1276 C1277 1.391 . S
C1276 C1278 1.394 . S
C1276 H1292 0.931 . S
C1277 C1276 1.391 . S
C1277 C1281 1.376 . S
C1278 C1276 1.394 . S
C1278 C1279 1.369 . S
C1278 C1282 1.531 . S
C1279 C1278 1.369 . S
C1279 C1280 1.410 . S
C1279 C1287 1.503 . S
C1280 C1279 1.410 . S
C1280 C1281 1.392 . S
C1280 C1283 1.511 . S
C1281 C1277 1.376 . S
C1281 C1280 1.392 . S
C1281 H1293 0.929 . S
C1282 C1278 1.531 . S
C1282 H1294 0.960 . S
C1282 H1295 0.962 . S
C1282 H1296 0.960 . S
C1283 C1280 1.511 . S
C1283 H1297 0.961 . S
C1283 H1298 0.961 . S
C1283 H1299 0.961 . S
C1284 C1285 1.370 1_565 S
C1284 C1286 1.363 . S
C1284 H1300 0.931 . S
C1285 C1284 1.370 1_545 S
C1285 C1289 1.408 . S
C1286 C1284 1.363 . S
C1286 C1287 1.370 . S
C1286 C1290 1.524 . S
C1287 C1279 1.503 . S
C1287 C1286 1.370 . S
C1287 C1288 1.403 1_565 S
C1288 C1287 1.403 1_545 S
C1288 C1289 1.404 . S
C1288 C1291 1.539 . S
C1289 C1285 1.408 . S
C1289 C1288 1.404 . S
C1289 H1301 0.930 . S
C1290 C1286 1.524 . S
C1290 H1302 0.956 . S
C1290 H1303 0.961 . S
C1290 H1304 0.961 . S
C1291 C1288 1.539 . S
C1291 H1305 0.958 . S
C1291 H1306 0.961 . S
C1291 H1307 0.960 1_545 S
H1292 C1276 0.931 . S
H1293 C1281 0.929 . S
H1294 C1282 0.960 . S
H1295 C1282 0.962 . S
H1296 C1282 0.960 . S
H1297 C1283 0.961 . S
H1298 C1283 0.961 . S
H1299 C1283 0.961 . S
H1300 C1284 0.931 . S
H1301 C1289 0.930 . S
H1302 C1290 0.956 . S
H1303 C1290 0.961 . S
H1304 C1290 0.961 . S
H1305 C1291 0.958 . S
H1306 C1291 0.961 . S
H1307 C1291 0.960 1_565 S
C1308 C1309 1.391 . S
C1308 C1310 1.394 . S
C1308 H1324 0.931 . S
C1309 C1308 1.391 . S
C1309 C1313 1.376 . S
C1310 C1308 1.394 . S
C1310 C1311 1.369 . S
C1310 C1314 1.531 . S
C1311 C1310 1.369 . S
C1311 C1312 1.410 . S
C1311 C1319 1.503 . S
C1312 C1311 1.410 . S
C1312 C1313 1.392 . S
C1312 C1315 1.511 . S
C1313 C1309 1.376 . S
C1313 C1312 1.392 . S
C1313 H1325 0.929 . S
C1314 C1310 1.531 . S
C1314 H1326 0.960 . S
C1314 H1327 0.962 . S
C1314 H1328 0.960 . S
C1315 C1312 1.511 . S
C1315 H1329 0.961 . S
C1315 H1330 0.961 . S
C1315 H1331 0.961 . S
C1316 C1317 1.370 . S
C1316 C1318 1.363 . S
C1316 H1332 0.931 . S
C1317 C1316 1.370 . S
C1317 C1321 1.408 . S
C1318 C1316 1.363 . S
C1318 C1319 1.370 . S
C1318 C1322 1.524 . S
C1319 C1311 1.503 . S
C1319 C1318 1.370 . S
C1319 C1320 1.403 . S
C1320 C1319 1.403 . S
C1320 C1321 1.404 . S
C1320 C1323 1.539 . S
C1321 C1317 1.408 . S
C1321 C1320 1.404 . S
C1321 H1333 0.930 . S
C1322 C1318 1.524 . S
C1322 H1334 0.956 . S
C1322 H1335 0.961 . S
C1322 H1336 0.961 . S
C1323 C1320 1.539 . S
C1323 H1337 0.958 . S
C1323 H1338 0.961 . S
C1323 H1339 0.960 . S
H1324 C1308 0.931 . S
H1325 C1313 0.929 . S
H1326 C1314 0.960 . S
H1327 C1314 0.962 . S
H1328 C1314 0.960 . S
H1329 C1315 0.961 . S
H1330 C1315 0.961 . S
H1331 C1315 0.961 . S
H1332 C1316 0.931 . S
H1333 C1321 0.930 . S
H1334 C1322 0.956 . S
H1335 C1322 0.961 . S
H1336 C1322 0.961 . S
H1337 C1323 0.958 . S
H1338 C1323 0.961 . S
H1339 C1323 0.960 . S
C1340 C1341 1.391 . S
C1340 C1342 1.394 . S
C1340 H1356 0.931 . S
C1341 C1340 1.391 . S
C1341 C1345 1.376 . S
C1342 C1340 1.394 . S
C1342 C1343 1.369 . S
C1342 C1346 1.531 . S
C1343 C1342 1.369 . S
C1343 C1344 1.410 . S
C1343 C1351 1.503 1_455 S
C1344 C1343 1.410 . S
C1344 C1345 1.392 . S
C1344 C1347 1.511 . S
C1345 C1341 1.376 . S
C1345 C1344 1.392 . S
C1345 H1357 0.929 . S
C1346 C1342 1.531 . S
C1346 H1358 0.960 1_455 S
C1346 H1359 0.962 . S
C1346 H1360 0.960 . S
C1347 C1344 1.511 . S
C1347 H1361 0.961 . S
C1347 H1362 0.961 . S
C1347 H1363 0.961 . S
C1348 C1349 1.370 . S
C1348 C1350 1.363 . S
C1348 H1364 0.931 . S
C1349 C1348 1.370 . S
C1349 C1353 1.408 . S
C1350 C1348 1.363 . S
C1350 C1351 1.370 . S
C1350 C1354 1.524 1_655 S
C1351 C1343 1.503 1_655 S
C1351 C1350 1.370 . S
C1351 C1352 1.403 . S
C1352 C1351 1.403 . S
C1352 C1353 1.404 . S
C1352 C1355 1.539 . S
C1353 C1349 1.408 . S
C1353 C1352 1.404 . S
C1353 H1365 0.930 . S
C1354 C1350 1.524 1_455 S
C1354 H1366 0.956 . S
C1354 H1367 0.961 . S
C1354 H1368 0.961 . S
C1355 C1352 1.539 . S
C1355 H1369 0.958 . S
C1355 H1370 0.961 . S
C1355 H1371 0.960 . S
H1356 C1340 0.931 . S
H1357 C1345 0.929 . S
H1358 C1346 0.960 1_655 S
H1359 C1346 0.962 . S
H1360 C1346 0.960 . S
H1361 C1347 0.961 . S
H1362 C1347 0.961 . S
H1363 C1347 0.961 . S
H1364 C1348 0.931 . S
H1365 C1353 0.930 . S
H1366 C1354 0.956 . S
H1367 C1354 0.961 . S
H1368 C1354 0.961 . S
H1369 C1355 0.958 . S
H1370 C1355 0.961 . S
H1371 C1355 0.960 . S
C1372 C1373 1.391 1_545 S
C1372 C1374 1.394 . S
C1372 H1388 0.931 . S
C1373 C1372 1.391 1_565 S
C1373 C1377 1.376 . S
C1374 C1372 1.394 . S
C1374 C1375 1.369 . S
C1374 C1378 1.531 . S
C1375 C1374 1.369 . S
C1375 C1376 1.416 . S
C1375 C1383 1.503 . S
C1376 C1375 1.416 . S
C1376 C1377 1.388 1_545 S
C1376 C1379 1.509 1_545 S
C1377 C1373 1.376 . S
C1377 C1376 1.388 1_565 S
C1377 H1389 0.929 . S
C1378 C1374 1.531 . S
C1378 H1390 0.960 . S
C1378 H1391 0.962 . S
C1378 H1392 0.960 . S
C1379 C1376 1.509 1_565 S
C1379 H1393 0.961 . S
C1379 H1394 0.961 1_565 S
C1379 H1395 0.965 1_565 S
C1380 C1381 1.370 . S
C1380 C1382 1.363 . S
C1380 H1396 0.931 . S
C1381 C1380 1.370 . S
C1381 C1385 1.408 . S
C1382 C1380 1.363 . S
C1382 C1383 1.370 . S
C1382 C1386 1.524 . S
C1383 C1375 1.503 . S
C1383 C1382 1.370 . S
C1383 C1384 1.403 . S
C1384 C1383 1.403 . S
C1384 C1385 1.404 . S
C1384 C1387 1.539 . S
C1385 C1381 1.408 . S
C1385 C1384 1.404 . S
C1385 H1397 0.930 . S
C1386 C1382 1.524 . S
C1386 H1398 0.956 . S
C1386 H1399 0.961 . S
C1386 H1400 0.961 . S
C1387 C1384 1.539 . S
C1387 H1401 0.958 . S
C1387 H1402 0.961 . S
C1387 H1403 0.960 . S
H1388 C1372 0.931 . S
H1389 C1377 0.929 . S
H1390 C1378 0.960 . S
H1391 C1378 0.962 . S
H1392 C1378 0.960 . S
H1393 C1379 0.961 . S
H1394 C1379 0.961 1_545 S
H1395 C1379 0.965 1_545 S
H1396 C1380 0.931 . S
H1397 C1385 0.930 . S
H1398 C1386 0.956 . S
H1399 C1386 0.961 . S
H1400 C1386 0.961 . S
H1401 C1387 0.958 . S
H1402 C1387 0.961 . S
H1403 C1387 0.960 . S
C637 C446 1.735 . S
C645 C22 1.762 . S
C669 C91 1.755 . S
C677 C515 1.740 . S
C701 C128 1.734 . S
C709 C552 1.761 . S
C733 C181 1.734 . S
C741 C605 1.760 . S
C765 C356 1.730 . S
C773 C250 1.725 . S
C797 C287 1.743 . S
C805 C393 1.752 . S
C829 C516 1.458 . S
C837 C29 1.449 . S
C861 C92 1.475 . S
C869 C559 1.444 . S
C893 C612 1.324 . S
C901 C135 1.342 . S
C925 C188 1.477 . S
C933 C357 1.461 . S
C957 C400 1.442 . S
C965 C251 1.475 . S
C989 C453 1.350 . S
C997 C294 1.334 . S
C1021 C38 2.174 . S
C1029 C304 2.170 . S
C1053 C75 2.338 . S
C1061 C39 2.367 . S
C1085 C82 2.232 . S
C1093 C144 2.297 . S
C1117 C197 2.183 . S
C1125 C145 2.170 . S
C1149 C234 2.341 . S
C1157 C198 2.359 . S
C1181 C303 2.282 . S
C1189 C241 2.214 . S
C1213 C340 2.365 . S
C1221 C410 2.372 . S
C1245 C409 2.191 . S
C1253 C463 2.175 . S
C1277 C462 2.282 . S
C1285 C506 2.216 . S
C1309 C499 2.339 . S
C1317 C569 2.367 . S
C1341 C568 2.169 . S
C1349 C622 2.167 . S
C1373 C347 2.189 . S
C1381 C621 2.295 . S
