# Generated by pormake.
# Topology uoy, (4)-cn, num edge types: 1
# Building blocks:
#     Node 0, Type 0, BuildingBlock: CEKHIL_clean_sbu_0, # of connection points: 4
#     Node 1, Type 0, BuildingBlock: CEKHIL_clean_sbu_0, # of connection points: 4
#     Node 2, Type 0, BuildingBlock: CEKHIL_clean_sbu_0, # of connection points: 4
#     Node 3, Type 0, BuildingBlock: CEKHIL_clean_sbu_0, # of connection points: 4
#     Node 4, Type 0, BuildingBlock: CEKHIL_clean_sbu_0, # of connection points: 4
#     Node 5, Type 0, BuildingBlock: CEKHIL_clean_sbu_0, # of connection points: 4
#     Node 6, Type 0, BuildingBlock: CEKHIL_clean_sbu_0, # of connection points: 4
#     Node 7, Type 0, BuildingBlock: CEKHIL_clean_sbu_0, # of connection points: 4
#     Node 8, Type 0, BuildingBlock: CEKHIL_clean_sbu_0, # of connection points: 4
#     Node 9, Type 0, BuildingBlock: CEKHIL_clean_sbu_0, # of connection points: 4
#     Node 10, Type 0, BuildingBlock: CEKHIL_clean_sbu_0, # of connection points: 4
#     Node 11, Type 0, BuildingBlock: CEKHIL_clean_sbu_0, # of connection points: 4
#     Node 12, Type 0, BuildingBlock: CEKHIL_clean_sbu_0, # of connection points: 4
#     Node 13, Type 0, BuildingBlock: CEKHIL_clean_sbu_0, # of connection points: 4
#     Node 14, Type 0, BuildingBlock: CEKHIL_clean_sbu_0, # of connection points: 4
#     Node 15, Type 0, BuildingBlock: CEKHIL_clean_sbu_0, # of connection points: 4
#     Edge 16, Type (0, 0), BuildingBlock: XUDNAN_clean_linker_2, # of connection points: 2
#     Edge 17, Type (0, 0), BuildingBlock: XUDNAN_clean_linker_2, # of connection points: 2
#     Edge 18, Type (0, 0), BuildingBlock: XUDNAN_clean_linker_2, # of connection points: 2
#     Edge 19, Type (0, 0), BuildingBlock: XUDNAN_clean_linker_2, # of connection points: 2
#     Edge 20, Type (0, 0), BuildingBlock: XUDNAN_clean_linker_2, # of connection points: 2
#     Edge 21, Type (0, 0), BuildingBlock: XUDNAN_clean_linker_2, # of connection points: 2
#     Edge 22, Type (0, 0), BuildingBlock: XUDNAN_clean_linker_2, # of connection points: 2
#     Edge 23, Type (0, 0), BuildingBlock: XUDNAN_clean_linker_2, # of connection points: 2
#     Edge 24, Type (0, 0), BuildingBlock: XUDNAN_clean_linker_2, # of connection points: 2
#     Edge 25, Type (0, 0), BuildingBlock: XUDNAN_clean_linker_2, # of connection points: 2
#     Edge 26, Type (0, 0), BuildingBlock: XUDNAN_clean_linker_2, # of connection points: 2
#     Edge 27, Type (0, 0), BuildingBlock: XUDNAN_clean_linker_2, # of connection points: 2
#     Edge 28, Type (0, 0), BuildingBlock: XUDNAN_clean_linker_2, # of connection points: 2
#     Edge 29, Type (0, 0), BuildingBlock: XUDNAN_clean_linker_2, # of connection points: 2
#     Edge 30, Type (0, 0), BuildingBlock: XUDNAN_clean_linker_2, # of connection points: 2
#     Edge 31, Type (0, 0), BuildingBlock: XUDNAN_clean_linker_2, # of connection points: 2
#     Edge 32, Type (0, 0), BuildingBlock: XUDNAN_clean_linker_2, # of connection points: 2
#     Edge 33, Type (0, 0), BuildingBlock: XUDNAN_clean_linker_2, # of connection points: 2
#     Edge 34, Type (0, 0), BuildingBlock: XUDNAN_clean_linker_2, # of connection points: 2
#     Edge 35, Type (0, 0), BuildingBlock: XUDNAN_clean_linker_2, # of connection points: 2
#     Edge 36, Type (0, 0), BuildingBlock: XUDNAN_clean_linker_2, # of connection points: 2
#     Edge 37, Type (0, 0), BuildingBlock: XUDNAN_clean_linker_2, # of connection points: 2
#     Edge 38, Type (0, 0), BuildingBlock: XUDNAN_clean_linker_2, # of connection points: 2
#     Edge 39, Type (0, 0), BuildingBlock: XUDNAN_clean_linker_2, # of connection points: 2
#     Edge 40, Type (0, 0), BuildingBlock: XUDNAN_clean_linker_2, # of connection points: 2
#     Edge 41, Type (0, 0), BuildingBlock: XUDNAN_clean_linker_2, # of connection points: 2
#     Edge 42, Type (0, 0), BuildingBlock: XUDNAN_clean_linker_2, # of connection points: 2
#     Edge 43, Type (0, 0), BuildingBlock: XUDNAN_clean_linker_2, # of connection points: 2
#     Edge 44, Type (0, 0), BuildingBlock: XUDNAN_clean_linker_2, # of connection points: 2
#     Edge 45, Type (0, 0), BuildingBlock: XUDNAN_clean_linker_2, # of connection points: 2
#     Edge 46, Type (0, 0), BuildingBlock: XUDNAN_clean_linker_2, # of connection points: 2
#     Edge 47, Type (0, 0), BuildingBlock: XUDNAN_clean_linker_2, # of connection points: 2
# Relax obj value: 0.040
# Max RMSD: 0.061
# Mean RMSD: 0.061
data_MOF--net-uoy--node1-CEKHIL_clean_sbu_0--edge1-XUDNAN_clean_linker_2
_symmetry_space_group_name_H-M    P1
_symmetry_Int_Tables_number       1
_symmetry_cell_setting            triclinic
loop_
_symmetry_equiv_pos_as_xyz
'x, y, z'
_cell_length_a     27.287747
_cell_length_b     27.365235
_cell_length_c     105.6241
_cell_angle_alpha  89.99753
_cell_angle_beta   90.094085
_cell_angle_gamma 90.03199
loop_
_atom_site_label
_atom_site_type_symbol
_atom_site_fract_x
_atom_site_fract_y
_atom_site_fract_z
_atom_type_partial_charge
Co0 Co 0.24678 0.10546 0.1914 0.0
O1 O 0.17599 0.10448 0.19228 0.0
O2 O 0.22107 0.04707 0.18333 0.0
C3 C 0.26062 0.12526 0.21183 0.0
O4 O 0.32047 0.09288 0.18919 0.0
Co5 Co 0.30237 0.2027 0.19546 0.0
O6 O 0.36154 0.16092 0.19481 0.0
C7 C 0.25243 0.18613 0.17123 0.0
C8 C 0.17771 0.06288 0.18641 0.0
C9 C 0.36072 0.1164 0.19128 0.0
O10 O 0.24341 0.14206 0.17482 0.0
O11 O 0.2726 0.21781 0.17846 0.0
O12 O 0.25134 0.08047 0.20856 0.0
O13 O 0.2558 0.15752 0.20294 0.0
Co14 Co 0.89343 0.74922 0.44137 0.0
O15 O 0.89446 0.6783 0.44265 0.0
O16 O 0.95624 0.72305 0.43587 0.0
C17 C 0.8609 0.76453 0.46075 0.0
O18 O 0.9071 0.8233 0.43938 0.0
Co19 Co 0.79419 0.80564 0.44206 0.0
O20 O 0.83701 0.86371 0.44346 0.0
C21 C 0.82236 0.75364 0.41879 0.0
C22 C 0.93926 0.67983 0.43857 0.0
C23 C 0.88285 0.86341 0.44118 0.0
O24 O 0.86534 0.74466 0.42344 0.0
O25 O 0.78806 0.77365 0.42519 0.0
O26 O 0.90736 0.75516 0.45961 0.0
O27 O 0.83553 0.75887 0.45055 0.0
Co28 Co 0.27485 0.39727 0.69259 0.0
O29 O 0.34272 0.37776 0.69409 0.0
O30 O 0.31833 0.45128 0.68823 0.0
C31 C 0.24851 0.36558 0.71119 0.0
O32 O 0.20813 0.43128 0.69043 0.0
Co33 Co 0.19198 0.31913 0.69103 0.0
O34 O 0.14758 0.37608 0.69281 0.0
C35 C 0.25787 0.3336 0.66933 0.0
C36 C 0.35452 0.42167 0.69058 0.0
C37 C 0.16223 0.42001 0.69145 0.0
O38 O 0.27404 0.37348 0.67437 0.0
O39 O 0.22884 0.30436 0.67509 0.0
O40 O 0.27065 0.40765 0.71099 0.0
O41 O 0.24784 0.34246 0.70055 0.0
Co42 Co 0.61824 0.77724 0.94319 0.0
O43 O 0.63793 0.845 0.94417 0.0
O44 O 0.56365 0.82029 0.9389 0.0
C45 C 0.65188 0.75268 0.96176 0.0
O46 O 0.58416 0.71033 0.94166 0.0
Co47 Co 0.69694 0.6951 0.94157 0.0
O48 O 0.64025 0.65025 0.94336 0.0
C49 C 0.67991 0.75891 0.91963 0.0
C50 C 0.59362 0.85655 0.94085 0.0
C51 C 0.59595 0.66459 0.94244 0.0
O52 O 0.64026 0.77499 0.92482 0.0
O53 O 0.71013 0.73085 0.92538 0.0
O54 O 0.60961 0.77457 0.96168 0.0
O55 O 0.674 0.7512 0.95099 0.0
Co56 Co 0.25544 0.39591 0.06655 0.0
O57 O 0.18467 0.39637 0.06617 0.0
O58 O 0.23023 0.45246 0.07556 0.0
C59 C 0.266 0.38026 0.04577 0.0
O60 O 0.32945 0.40847 0.06831 0.0
Co61 Co 0.31121 0.29996 0.0601 0.0
O62 O 0.37019 0.34186 0.06145 0.0
C63 C 0.25807 0.30837 0.08418 0.0
C64 C 0.18669 0.43704 0.07245 0.0
C65 C 0.36953 0.38558 0.06562 0.0
O66 O 0.25426 0.35487 0.08254 0.0
O67 O 0.27462 0.27941 0.07569 0.0
O68 O 0.25728 0.42445 0.04961 0.0
O69 O 0.26307 0.34669 0.05432 0.0
Co70 Co 0.61004 0.75175 0.31385 0.0
O71 O 0.6068 0.68139 0.31208 0.0
O72 O 0.55239 0.72566 0.3224 0.0
C73 C 0.62594 0.76863 0.29336 0.0
O74 O 0.60026 0.82547 0.31697 0.0
Co75 Co 0.70832 0.80512 0.30837 0.0
O76 O 0.66743 0.86486 0.3099 0.0
C77 C 0.69828 0.74757 0.33164 0.0
C78 C 0.56628 0.68273 0.31846 0.0
C79 C 0.62394 0.86517 0.31432 0.0
O80 O 0.65161 0.74459 0.32977 0.0
O81 O 0.72802 0.76545 0.32351 0.0
O82 O 0.58124 0.7609 0.29704 0.0
O83 O 0.65945 0.76081 0.30175 0.0
Co84 Co 0.27157 0.11154 0.56683 0.0
O85 O 0.34239 0.11861 0.56562 0.0
O86 O 0.30429 0.06011 0.57611 0.0
C87 C 0.2547 0.12339 0.54611 0.0
O88 O 0.20095 0.08889 0.56971 0.0
Co89 Co 0.19797 0.19424 0.56054 0.0
O90 O 0.14691 0.14254 0.56172 0.0
C91 C 0.25808 0.20006 0.5837 0.0
C92 C 0.3455 0.07913 0.57242 0.0
C93 C 0.15683 0.10129 0.56669 0.0
O94 O 0.27027 0.15484 0.58239 0.0
O95 O 0.23372 0.22375 0.57534 0.0
O96 O 0.26999 0.08112 0.55011 0.0
O97 O 0.25425 0.15789 0.55445 0.0
Co98 Co 0.89576 0.76546 0.8165 0.0
O99 O 0.89258 0.83631 0.81564 0.0
O100 O 0.94902 0.79438 0.82599 0.0
C101 C 0.88404 0.75192 0.79563 0.0
O102 O 0.91387 0.69356 0.81913 0.0
Co103 Co 0.80904 0.69771 0.80932 0.0
O104 O 0.85844 0.64436 0.80989 0.0
C105 C 0.80593 0.75442 0.83312 0.0
C106 C 0.9325 0.83668 0.82237 0.0
C107 C 0.89937 0.65098 0.81545 0.0
O108 O 0.85168 0.76519 0.83191 0.0
O109 O 0.7813 0.73195 0.82458 0.0
O110 O 0.92706 0.76397 0.7999 0.0
O111 O 0.84896 0.7523 0.80383 0.0
Co112 Co 0.75295 0.61856 0.69208 0.0
O113 O 0.68205 0.61739 0.69353 0.0
O114 O 0.72696 0.55597 0.68659 0.0
C115 C 0.76952 0.65104 0.71134 0.0
O116 O 0.8268 0.60519 0.68983 0.0
Co117 Co 0.80878 0.71792 0.69225 0.0
O118 O 0.86776 0.67578 0.6928 0.0
C119 C 0.75353 0.68924 0.66955 0.0
C120 C 0.68368 0.57285 0.68933 0.0
C121 C 0.86712 0.62976 0.69091 0.0
O122 O 0.74739 0.64603 0.67422 0.0
O123 O 0.77288 0.72432 0.67582 0.0
O124 O 0.75988 0.60472 0.71025 0.0
O125 O 0.76317 0.67644 0.70118 0.0
Co126 Co 0.39767 0.25414 0.94196 0.0
O127 O 0.39835 0.1833 0.94277 0.0
O128 O 0.46078 0.22863 0.9366 0.0
C129 C 0.36364 0.26709 0.96122 0.0
O130 O 0.41155 0.32836 0.94055 0.0
Co131 Co 0.29866 0.31093 0.94249 0.0
O132 O 0.34164 0.36809 0.94517 0.0
C133 C 0.32985 0.2631 0.91888 0.0
C134 C 0.44338 0.18521 0.93888 0.0
C135 C 0.38747 0.36814 0.94289 0.0
O136 O 0.37127 0.25111 0.92392 0.0
O137 O 0.29544 0.28458 0.9249 0.0
O138 O 0.41022 0.25806 0.96026 0.0
O139 O 0.33894 0.26279 0.95086 0.0
Co140 Co 0.77065 0.89356 0.1908 0.0
O141 O 0.83913 0.87741 0.19243 0.0
O142 O 0.81103 0.94362 0.18286 0.0
C143 C 0.74965 0.87897 0.2111 0.0
O144 O 0.70255 0.92291 0.1878 0.0
Co145 Co 0.69152 0.81373 0.19514 0.0
O146 O 0.64526 0.8697 0.19451 0.0
C147 C 0.75205 0.81121 0.17215 0.0
C148 C 0.84854 0.91757 0.18639 0.0
C149 C 0.65767 0.91172 0.19039 0.0
O150 O 0.76729 0.85487 0.17446 0.0
O151 O 0.72588 0.78649 0.1799 0.0
O152 O 0.76914 0.9205 0.20792 0.0
O153 O 0.74818 0.84623 0.2023 0.0
Co154 Co 0.11601 0.27172 0.44427 0.0
O155 O 0.13521 0.33962 0.44609 0.0
O156 O 0.06263 0.31537 0.43937 0.0
C157 C 0.14494 0.24495 0.46321 0.0
O158 O 0.08169 0.20508 0.44165 0.0
Co159 Co 0.19325 0.18762 0.44375 0.0
O160 O 0.13567 0.14393 0.44468 0.0
C161 C 0.18171 0.25149 0.42146 0.0
C162 C 0.09178 0.3515 0.4421 0.0
C163 C 0.09218 0.15907 0.44274 0.0
O164 O 0.14337 0.27175 0.42633 0.0
O165 O 0.20804 0.22004 0.42729 0.0
O166 O 0.10281 0.267 0.46257 0.0
O167 O 0.16961 0.24423 0.45281 0.0
Co168 Co 0.74578 0.89753 0.56532 0.0
O169 O 0.67531 0.89185 0.56447 0.0
O170 O 0.71479 0.95082 0.57457 0.0
C171 C 0.75997 0.88464 0.54451 0.0
O172 O 0.81833 0.91588 0.5678 0.0
Co173 Co 0.80979 0.80682 0.55865 0.0
O174 O 0.86499 0.85294 0.56109 0.0
C175 C 0.75339 0.80818 0.58232 0.0
C176 C 0.67323 0.93146 0.57117 0.0
C177 C 0.86039 0.8961 0.56549 0.0
O178 O 0.7463 0.85451 0.581 0.0
O179 O 0.77303 0.78163 0.57374 0.0
O180 O 0.74709 0.92765 0.5485 0.0
O181 O 0.75886 0.85039 0.55288 0.0
Co182 Co 0.11075 0.23862 0.81446 0.0
O183 O 0.12398 0.16956 0.81293 0.0
O184 O 0.05991 0.20074 0.82286 0.0
C185 C 0.12425 0.25763 0.79392 0.0
O186 O 0.08399 0.30784 0.81764 0.0
Co187 Co 0.19275 0.315 0.80934 0.0
O188 O 0.13928 0.36331 0.81091 0.0
C189 C 0.19345 0.25959 0.83327 0.0
C190 C 0.08403 0.16216 0.81929 0.0
C191 C 0.09731 0.35222 0.8153 0.0
O192 O 0.15164 0.2405 0.83049 0.0
O193 O 0.21704 0.28814 0.82587 0.0
O194 O 0.08236 0.23985 0.7975 0.0
O195 O 0.15786 0.25915 0.80255 0.0
Co196 Co 0.78135 0.60796 0.06471 0.0
O197 O 0.84976 0.62576 0.06415 0.0
O198 O 0.82151 0.55647 0.07206 0.0
C199 C 0.7631 0.62792 0.04449 0.0
O200 O 0.71352 0.57646 0.06652 0.0
Co201 Co 0.70186 0.68718 0.06184 0.0
O202 O 0.6557 0.63118 0.06111 0.0
C203 C 0.75626 0.6807 0.08575 0.0
C204 C 0.85903 0.58412 0.0695 0.0
C205 C 0.66845 0.58806 0.06427 0.0
O206 O 0.77525 0.6406 0.08174 0.0
O207 O 0.72868 0.70759 0.07884 0.0
O208 O 0.7834 0.58635 0.04724 0.0
O209 O 0.75913 0.65838 0.05384 0.0
Co210 Co 0.39318 0.27446 0.31425 0.0
O211 O 0.37346 0.34222 0.31278 0.0
O212 O 0.44654 0.31791 0.31918 0.0
C213 C 0.36341 0.24919 0.29528 0.0
O214 O 0.42788 0.20781 0.31652 0.0
Co215 Co 0.31632 0.19018 0.31466 0.0
O216 O 0.37394 0.14685 0.31317 0.0
C217 C 0.32839 0.25296 0.33713 0.0
C218 C 0.41699 0.35398 0.31672 0.0
C219 C 0.41746 0.16188 0.31516 0.0
O220 O 0.36655 0.27343 0.33223 0.0
O221 O 0.30197 0.22154 0.33131 0.0
O222 O 0.40564 0.27108 0.2959 0.0
O223 O 0.33927 0.24752 0.30575 0.0
H224 H 0.27251 0.34628 0.10803 0.0
H225 H 0.21481 0.22032 0.08803 0.0
H226 H 0.19935 0.17898 0.1084 0.0
H227 H 0.33778 0.27889 0.13055 0.0
H228 H 0.32712 0.3199 0.14361 0.0
H229 H 0.32698 0.34292 0.12765 0.0
H230 H 0.2399 0.37828 0.13097 0.0
H231 H 0.23985 0.35552 0.14698 0.0
H232 H 0.19128 0.33863 0.13626 0.0
H233 H 0.19633 0.14849 0.13055 0.0
H234 H 0.20867 0.12922 0.15309 0.0
H235 H 0.2716 0.27339 0.15901 0.0
C236 C 0.25538 0.31057 0.10799 0.0
C237 C 0.24425 0.28665 0.09648 0.0
C238 C 0.22335 0.2393 0.09676 0.0
C239 C 0.21427 0.21562 0.10828 0.0
C240 C 0.22666 0.2396 0.11946 0.0
C241 C 0.24685 0.28597 0.11945 0.0
C242 C 0.26112 0.30143 0.13276 0.0
C243 C 0.31653 0.31135 0.13369 0.0
C244 C 0.23124 0.34612 0.13699 0.0
C245 C 0.24675 0.25613 0.14017 0.0
C246 C 0.22627 0.22127 0.13232 0.0
C247 C 0.21192 0.17564 0.13683 0.0
C248 C 0.21923 0.16503 0.14967 0.0
C249 C 0.24115 0.19969 0.1579 0.0
C250 C 0.25444 0.24612 0.15304 0.0
H251 H 0.74518 0.78779 0.40491 0.0
H252 H 0.87403 0.69552 0.40194 0.0
H253 H 0.85311 0.67877 0.37947 0.0
H254 H 0.66397 0.71773 0.38547 0.0
H255 H 0.63587 0.77077 0.37841 0.0
H256 H 0.66065 0.77427 0.3942 0.0
H257 H 0.71552 0.8472 0.38756 0.0
H258 H 0.69056 0.84426 0.37179 0.0
H259 H 0.75588 0.84074 0.37417 0.0
H260 H 0.81936 0.67633 0.35681 0.0
H261 H 0.77694 0.68887 0.33629 0.0
H262 H 0.66881 0.77975 0.35481 0.0
C263 C 0.76897 0.76356 0.39965 0.0
C264 C 0.81117 0.74261 0.40529 0.0
C265 C 0.84154 0.71196 0.39787 0.0
C266 C 0.8298 0.70214 0.38511 0.0
C267 C 0.7877 0.72338 0.37992 0.0
C268 C 0.75795 0.75361 0.387 0.0
C269 C 0.71597 0.77381 0.37919 0.0
C270 C 0.66618 0.75818 0.38465 0.0
C271 C 0.71973 0.82981 0.37811 0.0
C272 C 0.72588 0.74946 0.36661 0.0
C273 C 0.76773 0.72092 0.36714 0.0
C274 C 0.78619 0.69794 0.35638 0.0
C275 C 0.76184 0.7051 0.34478 0.0
C276 C 0.71899 0.73415 0.34409 0.0
C277 C 0.70048 0.75594 0.35519 0.0
H278 H 0.25598 0.16461 0.60797 0.0
H279 H 0.2862 0.29506 0.58605 0.0
H280 H 0.29916 0.34178 0.60581 0.0
H281 H 0.1847 0.22359 0.6306 0.0
H282 H 0.20456 0.18689 0.64381 0.0
H283 H 0.20568 0.16189 0.62807 0.0
H284 H 0.29807 0.14212 0.63055 0.0
H285 H 0.29718 0.16698 0.64635 0.0
H286 H 0.34018 0.19011 0.63488 0.0
H287 H 0.3028 0.37582 0.62799 0.0
H288 H 0.29072 0.39549 0.65064 0.0
H289 H 0.25328 0.24391 0.65794 0.0
C290 C 0.26672 0.20265 0.60736 0.0
C291 C 0.27086 0.22613 0.59551 0.0
C292 C 0.28323 0.27638 0.59506 0.0
C293 C 0.29085 0.30314 0.60622 0.0
C294 C 0.28546 0.27925 0.61779 0.0
C295 C 0.27342 0.23017 0.61843 0.0
C296 C 0.26444 0.21454 0.63199 0.0
C297 C 0.21172 0.19564 0.63371 0.0
C298 C 0.30223 0.17617 0.63619 0.0
C299 C 0.27225 0.26265 0.63881 0.0
C300 C 0.28533 0.29934 0.63051 0.0
C301 C 0.29291 0.34727 0.6346 0.0
C302 C 0.28605 0.35812 0.64749 0.0
C303 C 0.27088 0.32137 0.65607 0.0
C304 C 0.26478 0.27293 0.65163 0.0
H305 H 0.84336 0.75398 0.85724 0.0
H306 H 0.71011 0.78035 0.83591 0.0
H307 H 0.66482 0.79362 0.85586 0.0
H308 H 0.78748 0.68367 0.88071 0.0
H309 H 0.82526 0.70539 0.89355 0.0
H310 H 0.84872 0.70537 0.87765 0.0
H311 H 0.86729 0.79802 0.87937 0.0
H312 H 0.84391 0.7983 0.89532 0.0
H313 H 0.81891 0.83961 0.8837 0.0
H314 H 0.63271 0.79864 0.87825 0.0
H315 H 0.61548 0.78874 0.90111 0.0
H316 H 0.76872 0.75457 0.90769 0.0
C317 C 0.80496 0.76382 0.85679 0.0
C318 C 0.78034 0.76678 0.84505 0.0
C319 C 0.72969 0.77816 0.84482 0.0
C320 C 0.70371 0.78598 0.8561 0.0
C321 C 0.72878 0.78184 0.86755 0.0
C322 C 0.77824 0.77078 0.86798 0.0
C323 C 0.79538 0.76343 0.88149 0.0
C324 C 0.81536 0.71137 0.88346 0.0
C325 C 0.83364 0.80216 0.88519 0.0
C326 C 0.7477 0.77108 0.88856 0.0
C327 C 0.70988 0.78264 0.88039 0.0
C328 C 0.66214 0.78991 0.88474 0.0
C329 C 0.65268 0.78432 0.89775 0.0
C330 C 0.69063 0.77072 0.9062 0.0
C331 C 0.73882 0.76488 0.90149 0.0
H332 H 0.75436 0.84775 0.60626 0.0
H333 H 0.72609 0.7133 0.58577 0.0
H334 H 0.71397 0.66973 0.60599 0.0
H335 H 0.82565 0.79415 0.62983 0.0
H336 H 0.80442 0.83261 0.64254 0.0
H337 H 0.80356 0.85491 0.62652 0.0
H338 H 0.71068 0.87316 0.62841 0.0
H339 H 0.7113 0.85103 0.64448 0.0
H340 H 0.66934 0.8251 0.63312 0.0
H341 H 0.7123 0.63894 0.62846 0.0
H342 H 0.72416 0.62324 0.65132 0.0
H343 H 0.75573 0.77724 0.65709 0.0
C344 C 0.74426 0.80948 0.60604 0.0
C345 C 0.7407 0.78402 0.59445 0.0
C346 C 0.72887 0.73357 0.59455 0.0
C347 C 0.72172 0.70852 0.60599 0.0
C348 C 0.72671 0.73432 0.61728 0.0
C349 C 0.7377 0.78371 0.6174 0.0
C350 C 0.74568 0.80177 0.63081 0.0
C351 C 0.79793 0.82203 0.63252 0.0
C352 C 0.70693 0.84003 0.63442 0.0
C353 C 0.73853 0.75469 0.63815 0.0
C354 C 0.7269 0.71632 0.63021 0.0
C355 C 0.72089 0.66884 0.63479 0.0
C356 C 0.7277 0.66024 0.6478 0.0
C357 C 0.74091 0.69886 0.65607 0.0
C358 C 0.74548 0.74677 0.65111 0.0
H359 H 0.29715 0.32741 0.90139 0.0
H360 H 0.339 0.17592 0.90625 0.0
H361 H 0.30855 0.15747 0.88456 0.0
H362 H 0.1883 0.30842 0.88478 0.0
H363 H 0.19561 0.35958 0.8742 0.0
H364 H 0.22327 0.36107 0.88967 0.0
H365 H 0.30855 0.37682 0.87971 0.0
H366 H 0.28103 0.3763 0.86419 0.0
H367 H 0.33129 0.33578 0.86773 0.0
H368 H 0.26332 0.15492 0.86322 0.0
H369 H 0.22054 0.17082 0.84283 0.0
H370 H 0.21575 0.3253 0.85161 0.0
C371 C 0.30083 0.29056 0.89776 0.0
C372 C 0.32043 0.253 0.90538 0.0
C373 C 0.32457 0.20518 0.90043 0.0
C374 C 0.30702 0.19442 0.8882 0.0
C375 C 0.28649 0.23218 0.88103 0.0
C376 C 0.28459 0.27956 0.88554 0.0
C377 C 0.26107 0.31377 0.87606 0.0
C378 C 0.2143 0.33706 0.88151 0.0
C379 C 0.29768 0.35297 0.87166 0.0
C380 C 0.24911 0.27825 0.86555 0.0
C381 C 0.26331 0.23117 0.86862 0.0
C382 C 0.25294 0.19177 0.86065 0.0
C383 C 0.22838 0.20098 0.84916 0.0
C384 C 0.21542 0.24923 0.84572 0.0
C385 C 0.22588 0.28817 0.85402 0.0
H386 H 0.73414 0.76813 0.09762 0.0
H387 H 0.79874 0.62531 0.10431 0.0
H388 H 0.81022 0.64614 0.12677 0.0
H389 H 0.81452 0.83524 0.11969 0.0
H390 H 0.76622 0.87554 0.1248 0.0
H391 H 0.76539 0.85079 0.10899 0.0
H392 H 0.67854 0.81568 0.11288 0.0
H393 H 0.67908 0.84031 0.12868 0.0
H394 H 0.66829 0.776 0.12625 0.0
H395 H 0.80696 0.67826 0.14879 0.0
H396 H 0.79321 0.72223 0.16892 0.0
H397 H 0.73614 0.84649 0.14819 0.0
C398 C 0.75114 0.7414 0.10377 0.0
C399 C 0.76539 0.69497 0.09913 0.0
C400 C 0.78753 0.66114 0.10756 0.0
C401 C 0.79429 0.67262 0.12037 0.0
C402 C 0.77939 0.71836 0.12464 0.0
C403 C 0.75876 0.75249 0.1166 0.0
C404 C 0.74484 0.79854 0.12376 0.0
C405 C 0.77453 0.84264 0.11903 0.0
C406 C 0.6894 0.80817 0.12284 0.0
C407 C 0.75976 0.78439 0.13711 0.0
C408 C 0.77957 0.73789 0.13737 0.0
C409 C 0.79247 0.71506 0.14869 0.0
C410 C 0.7845 0.74019 0.16006 0.0
C411 C 0.7646 0.78788 0.16002 0.0
C412 C 0.75272 0.81055 0.1484 0.0
H413 H 0.21387 0.18792 0.40381 0.0
H414 H 0.18626 0.34196 0.40998 0.0
H415 H 0.22544 0.36098 0.38929 0.0
H416 H 0.32994 0.19876 0.3896 0.0
H417 H 0.32011 0.15021 0.37835 0.0
H418 H 0.28879 0.14927 0.39334 0.0
H419 H 0.2048 0.14377 0.3819 0.0
H420 H 0.23592 0.14351 0.36688 0.0
H421 H 0.18931 0.18853 0.37002 0.0
H422 H 0.27447 0.36195 0.36823 0.0
H423 H 0.3149 0.34389 0.34764 0.0
H424 H 0.30509 0.18896 0.3556 0.0
C425 C 0.21549 0.22567 0.40073 0.0
C426 C 0.1972 0.26355 0.40844 0.0
C427 C 0.19972 0.31244 0.40411 0.0
C428 C 0.22233 0.32351 0.39245 0.0
C429 C 0.24145 0.28514 0.38524 0.0
C430 C 0.23709 0.23711 0.38915 0.0
C431 C 0.25924 0.20209 0.37971 0.0
C432 C 0.30205 0.17341 0.38561 0.0
C433 C 0.21998 0.16746 0.37431 0.0
C434 C 0.27717 0.2377 0.36983 0.0
C435 C 0.26745 0.28556 0.3732 0.0
C436 C 0.28186 0.32456 0.3655 0.0
C437 C 0.30523 0.31409 0.35391 0.0
C438 C 0.31311 0.26511 0.35014 0.0
C439 C 0.29953 0.22675 0.35831 0.0
H440 H 0.31611 0.20225 0.22105 0.0
H441 H 0.23121 0.07572 0.23256 0.0
H442 H 0.24906 0.09391 0.25493 0.0
H443 H 0.41136 0.18597 0.24482 0.0
H444 H 0.42007 0.25046 0.24749 0.0
H445 H 0.39954 0.22896 0.23225 0.0
H446 H 0.32366 0.28551 0.23361 0.0
H447 H 0.34399 0.30723 0.24884 0.0
H448 H 0.28362 0.28126 0.24712 0.0
H449 H 0.27179 0.12696 0.27582 0.0
H450 H 0.30398 0.1697 0.29449 0.0
H451 H 0.38131 0.27161 0.27017 0.0
C452 C 0.30116 0.1787 0.22832 0.0
C453 C 0.27193 0.13779 0.22512 0.0
C454 C 0.25365 0.10721 0.23483 0.0
C455 C 0.2635 0.11728 0.24756 0.0
C456 C 0.29249 0.15762 0.25044 0.0
C457 C 0.31165 0.18761 0.24115 0.0
C458 C 0.34321 0.22753 0.247 0.0
C459 C 0.39672 0.22294 0.24263 0.0
C460 C 0.32236 0.2784 0.24396 0.0
C461 C 0.33808 0.21551 0.26099 0.0
C462 C 0.3082 0.17526 0.26267 0.0
C463 C 0.29574 0.15816 0.27464 0.0
C464 C 0.31422 0.18281 0.28521 0.0
C465 C 0.34564 0.22363 0.28381 0.0
C466 C 0.35801 0.23999 0.27151 0.0
H467 H 0.89177 0.75532 0.48553 0.0
H468 H 0.78121 0.82437 0.46201 0.0
H469 H 0.7474 0.86586 0.48065 0.0
H470 H 0.80851 0.73125 0.51143 0.0
H471 H 0.85381 0.7412 0.5236 0.0
H472 H 0.87232 0.71957 0.50823 0.0
H473 H 0.93249 0.79241 0.50622 0.0
H474 H 0.91392 0.81443 0.52155 0.0
H475 H 0.90977 0.8539 0.50793 0.0
H476 H 0.72775 0.90338 0.50153 0.0
H477 H 0.71459 0.92392 0.52407 0.0
H478 H 0.82985 0.823 0.53481 0.0
C479 C 0.86063 0.7794 0.48434 0.0
C480 C 0.83984 0.78738 0.47223 0.0
C481 C 0.79834 0.81815 0.47109 0.0
C482 C 0.77882 0.84205 0.48165 0.0
C483 C 0.8003 0.83385 0.4934 0.0
C484 C 0.83953 0.80241 0.4949 0.0
C485 C 0.85299 0.79725 0.50879 0.0
C486 C 0.8465 0.74417 0.51327 0.0
C487 C 0.90541 0.8156 0.51127 0.0
C488 C 0.8153 0.83081 0.51479 0.0
C489 C 0.78608 0.85238 0.50568 0.0
C490 C 0.74998 0.88633 0.50878 0.0
C491 C 0.74291 0.89794 0.52157 0.0
C492 C 0.7709 0.87471 0.5311 0.0
C493 C 0.80764 0.84082 0.52767 0.0
H494 H 0.26621 0.38582 0.73634 0.0
H495 H 0.17136 0.30252 0.71137 0.0
H496 H 0.1267 0.27032 0.72978 0.0
H497 H 0.27729 0.29176 0.75968 0.0
H498 H 0.27811 0.33286 0.77302 0.0
H499 H 0.30024 0.35315 0.75785 0.0
H500 H 0.2395 0.42584 0.75839 0.0
H501 H 0.21712 0.4057 0.77356 0.0
H502 H 0.17503 0.41419 0.76058 0.0
H503 H 0.09179 0.24724 0.75071 0.0
H504 H 0.07414 0.22782 0.77306 0.0
H505 H 0.19543 0.31986 0.78487 0.0
C506 C 0.23568 0.36123 0.73479 0.0
C507 C 0.22187 0.34715 0.7224 0.0
C508 C 0.18246 0.31407 0.72073 0.0
C509 C 0.1567 0.29567 0.73115 0.0
C510 C 0.17125 0.31002 0.74322 0.0
C511 C 0.21018 0.34152 0.74514 0.0
C512 C 0.22025 0.34818 0.75918 0.0
C513 C 0.27205 0.33041 0.76263 0.0
C514 C 0.21251 0.40166 0.76316 0.0
C515 C 0.18117 0.31519 0.76479 0.0
C516 C 0.15277 0.29435 0.7554 0.0
C517 C 0.11387 0.26316 0.75816 0.0
C518 C 0.10405 0.25245 0.77088 0.0
C519 C 0.13356 0.2721 0.78066 0.0
C520 C 0.17249 0.30406 0.77756 0.0
H521 H 0.7006 0.70041 0.0357 0.0
H522 H 0.79561 0.58246 0.02337 0.0
H523 H 0.77647 0.60146 1.00116 0.0
H524 H 0.60724 0.68026 0.01143 0.0
H525 H 0.59429 0.74433 0.00931 0.0
H526 H 0.61551 0.7222 0.02443 0.0
H527 H 0.68734 0.78406 0.02385 0.0
H528 H 0.66637 0.80633 0.00873 0.0
H529 H 0.72828 0.78435 0.01047 0.0
H530 H 0.75166 0.63499 0.98044 0.0
H531 H 0.71706 0.6777 0.96202 0.0
H532 H 0.63252 0.77106 0.987 0.0
C533 C 0.71729 0.67872 0.0283 0.0
C534 C 0.74982 0.64009 0.03127 0.0
C535 C 0.77057 0.61215 0.02134 0.0
C536 C 0.76002 0.62271 0.00867 0.0
C537 C 0.72803 0.66093 0.00603 0.0
C538 C 0.70642 0.68825 0.0155 0.0
C539 C 0.6725 0.72667 0.00989 0.0
C540 C 0.61922 0.71782 0.01401 0.0
C541 C 0.68966 0.77842 0.01345 0.0
C542 C 0.67912 0.71692 0.99582 0.0
C543 C 0.71168 0.67903 0.99389 0.0
C544 C 0.72567 0.66436 0.98181 0.0
C545 C 0.70585 0.68898 0.97139 0.0
C546 C 0.67175 0.7274 0.97305 0.0
C547 C 0.65802 0.74136 0.98545 0.0
H548 H 0.33403 0.31773 0.03564 0.0
H549 H 0.21712 0.418 0.02576 0.0
H550 H 0.22803 0.39782 1.00312 0.0
H551 H 0.41094 0.3506 0.00887 0.0
H552 H 0.43458 0.28966 0.00676 0.0
H553 H 0.41597 0.30998 0.02225 0.0
H554 H 0.35704 0.23606 0.02402 0.0
H555 H 0.37528 0.21563 0.00851 0.0
H556 H 0.31146 0.22632 0.0119 0.0
H557 H 0.24749 0.3627 0.98195 0.0
H558 H 0.28241 0.32467 0.96291 0.0
H559 H 0.39431 0.25484 0.98586 0.0
C560 C 0.31077 0.33519 0.02866 0.0
C561 C 0.27435 0.36894 0.03234 0.0
C562 C 0.24511 0.39199 0.02304 0.0
C563 C 0.25091 0.3806 0.0102 0.0
C564 C 0.28698 0.34704 0.00684 0.0
C565 C 0.3172 0.32544 0.01574 0.0
C566 C 0.35508 0.29298 0.00944 0.0
C567 C 0.40723 0.31195 0.01198 0.0
C568 C 0.34935 0.23958 0.01372 0.0
C569 C 0.34091 0.29921 0.99563 0.0
C570 C 0.30096 0.32988 0.99442 0.0
C571 C 0.27932 0.33932 0.98274 0.0
C572 C 0.29946 0.31744 0.97196 0.0
C573 C 0.34164 0.28753 0.97286 0.0
C574 C 0.36253 0.27823 0.98488 0.0
H575 H 0.68227 0.73291 0.2742 0.0
H576 H 0.59485 0.85762 0.28543 0.0
H577 H 0.61767 0.90039 0.26559 0.0
H578 H 0.77942 0.79678 0.25895 0.0
H579 H 0.78556 0.75378 0.24612 0.0
H580 H 0.76311 0.73355 0.26126 0.0
H581 H 0.68482 0.69927 0.25054 0.0
H582 H 0.70716 0.71916 0.23535 0.0
H583 H 0.64784 0.73892 0.24081 0.0
H584 H 0.65545 0.93147 0.24528 0.0
H585 H 0.69632 0.94471 0.22463 0.0
H586 H 0.75122 0.79616 0.2255 0.0
C587 C 0.66788 0.76913 0.27239 0.0
C588 C 0.63712 0.79238 0.28124 0.0
C589 C 0.61841 0.83947 0.27865 0.0
C590 C 0.63131 0.86398 0.26747 0.0
C591 C 0.66198 0.84023 0.25889 0.0
C592 C 0.67918 0.79345 0.26109 0.0
C593 C 0.70985 0.77534 0.2501 0.0
C594 C 0.76261 0.76422 0.25437 0.0
C595 C 0.68598 0.73052 0.24383 0.0
C596 C 0.708 0.81953 0.24148 0.0
C597 C 0.6808 0.85685 0.24681 0.0
C598 C 0.67622 0.90228 0.24094 0.0
C599 C 0.69969 0.90957 0.22927 0.0
C600 C 0.72641 0.87131 0.22351 0.0
C601 C 0.73037 0.82573 0.22967 0.0
H602 H 0.12912 0.26699 0.48835 0.0
H603 H 0.2003 0.16231 0.46364 0.0
H604 H 0.23088 0.11725 0.48215 0.0
H605 H 0.22807 0.27246 0.51046 0.0
H606 H 0.18973 0.2791 0.52424 0.0
H607 H 0.1686 0.30067 0.50908 0.0
H608 H 0.09061 0.24723 0.51114 0.0
H609 H 0.11156 0.22548 0.52632 0.0
H610 H 0.09673 0.18253 0.51395 0.0
H611 H 0.25455 0.0834 0.50319 0.0
H612 H 0.27673 0.0677 0.52551 0.0
H613 H 0.19717 0.19776 0.53685 0.0
C614 C 0.15051 0.23416 0.48688 0.0
C615 C 0.16164 0.21773 0.47453 0.0
C616 C 0.19088 0.17543 0.47297 0.0
C617 C 0.20837 0.14941 0.48345 0.0
C618 C 0.19718 0.16662 0.49549 0.0
C619 C 0.1695 0.20835 0.4973 0.0
C620 C 0.16645 0.22104 0.51127 0.0
C621 C 0.1896 0.2713 0.51391 0.0
C622 C 0.11316 0.21893 0.51594 0.0
C623 C 0.19687 0.18007 0.51695 0.0
C624 C 0.21346 0.14864 0.50768 0.0
C625 C 0.24191 0.10781 0.51055 0.0
C626 C 0.25425 0.09912 0.52325 0.0
C627 C 0.23892 0.1316 0.53288 0.0
C628 C 0.20966 0.17245 0.52967 0.0
H629 H 0.75614 0.62282 0.73607 0.0
H630 H 0.83352 0.72744 0.71259 0.0
H631 H 0.87442 0.76098 0.73147 0.0
H632 H 0.73265 0.70875 0.76126 0.0
H633 H 0.73884 0.66413 0.77372 0.0
H634 H 0.71836 0.64548 0.75823 0.0
H635 H 0.78872 0.58207 0.75718 0.0
H636 H 0.80958 0.60074 0.77264 0.0
H637 H 0.85113 0.60203 0.7594 0.0
H638 H 0.90995 0.78079 0.75273 0.0
H639 H 0.92804 0.79449 0.77542 0.0
H640 H 0.82035 0.68474 0.78555 0.0
C641 C 0.78193 0.65259 0.73493 0.0
C642 C 0.79233 0.67196 0.72283 0.0
C643 C 0.82534 0.71166 0.72172 0.0
C644 C 0.84892 0.7309 0.73241 0.0
C645 C 0.83815 0.7109 0.7442 0.0
C646 C 0.80465 0.67337 0.74558 0.0
C647 C 0.79697 0.66123 0.75946 0.0
C648 C 0.74353 0.67047 0.7634 0.0
C649 C 0.81254 0.60838 0.76233 0.0
C650 C 0.83151 0.69768 0.76561 0.0
C651 C 0.85569 0.72519 0.75659 0.0
C652 C 0.89088 0.75989 0.75989 0.0
C653 C 0.90106 0.76727 0.77277 0.0
C654 C 0.87526 0.74099 0.78216 0.0
C655 C 0.84015 0.70568 0.77853 0.0
H656 H 0.08211 0.09382 0.1881 0.0
H657 H 0.17094 0.96672 0.17944 0.0
H658 H 0.09576 0.91703 0.17713 0.0
H659 H 0.9928 0.03382 0.20641 0.0
H660 H 0.94171 0.06907 0.2006 0.0
H661 H 1.00218 0.09534 0.20081 0.0
H662 H 0.99572 0.11345 0.17679 0.0
H663 H 0.93508 0.08731 0.17652 0.0
H664 H 0.98162 0.06444 0.16598 0.0
H665 H 0.01172 0.87939 0.17808 0.0
H666 H 0.92436 0.85763 0.18061 0.0
H667 H 0.8888 0.00989 0.18714 0.0
C668 C 0.08573 0.05566 0.18556 0.0
C669 C 0.1325 0.03411 0.18396 0.0
C670 C 0.1356 0.98408 0.18066 0.0
C671 C 0.09306 0.95554 0.17934 0.0
C672 C 0.04759 0.97773 0.18116 0.0
C673 C 0.04358 0.02682 0.18403 0.0
C674 C 0.99031 0.04146 0.18574 0.0
C675 C 0.98124 0.06107 0.19919 0.0
C676 C 0.97477 0.07888 0.17565 0.0
C677 C 0.965 0.99269 0.1837 0.0
C678 C 0.99883 0.9564 0.18111 0.0
C679 C 0.98486 0.90766 0.17985 0.0
C680 C 0.93521 0.89562 0.18133 0.0
C681 C 0.89985 0.93216 0.18385 0.0
C682 C 0.91493 0.98143 0.18488 0.0
H683 H 0.99835 0.39146 0.44182 0.0
H684 H 0.15219 0.43006 0.43924 0.0
H685 H 0.12978 0.51709 0.43708 0.0
H686 H 0.9515 0.48305 0.41987 0.0
H687 H 0.89755 0.49582 0.42912 0.0
H688 H 0.92527 0.43611 0.42974 0.0
H689 H 0.93284 0.44304 0.45412 0.0
H690 H 0.90508 0.5027 0.45357 0.0
H691 H 0.96419 0.49478 0.46093 0.0
H692 H 0.0908 0.60049 0.43512 0.0
H693 H 0.0386 0.67427 0.43516 0.0
H694 H 0.90988 0.58325 0.44025 0.0
C695 C 0.02724 0.41823 0.44068 0.0
C696 C 0.07713 0.40374 0.4406 0.0
C697 C 0.1138 0.4401 0.43932 0.0
C698 C 0.1014 0.48971 0.43804 0.0
C699 C 0.05204 0.50285 0.43821 0.0
C700 C 0.01549 0.46826 0.43962 0.0
C701 C 0.96542 0.49261 0.44017 0.0
C702 C 0.93303 0.47589 0.42907 0.0
C703 C 0.94042 0.48269 0.45296 0.0
C704 C 0.97955 0.54617 0.43885 0.0
C705 C 0.02968 0.55116 0.43758 0.0
C706 C 0.0515 0.59697 0.43614 0.0
C707 C 0.02148 0.63876 0.43614 0.0
C708 C 0.97008 0.63484 0.43772 0.0
C709 C 0.94903 0.58767 0.43904 0.0
H710 H 0.39462 0.51469 0.69119 0.0
H711 H 0.43292 0.36162 0.68725 0.0
H712 H 0.5203 0.38396 0.68556 0.0
H713 H 0.48765 0.56394 0.66993 0.0
H714 H 0.50019 0.61645 0.67972 0.0
H715 H 0.44017 0.58894 0.67985 0.0
H716 H 0.44585 0.57825 0.70417 0.0
H717 H 0.50584 0.60573 0.70411 0.0
H718 H 0.49723 0.54589 0.71089 0.0
H719 H 0.6039 0.42258 0.68437 0.0
H720 H 0.67809 0.47429 0.68517 0.0
H721 H 0.58712 0.60231 0.69103 0.0
C722 C 0.4214 0.48599 0.68983 0.0
C723 C 0.40681 0.43635 0.68926 0.0
C724 C 0.44311 0.39984 0.68771 0.0
C725 C 0.4929 0.41219 0.6867 0.0
C726 C 0.50618 0.4613 0.68739 0.0
C727 C 0.47159 0.49767 0.68902 0.0
C728 C 0.49612 0.54738 0.69013 0.0
C729 C 0.48007 0.58117 0.67926 0.0
C730 C 0.48563 0.57067 0.70309 0.0
C731 C 0.54977 0.53322 0.68888 0.0
C732 C 0.55465 0.48343 0.68717 0.0
C733 C 0.60051 0.46162 0.68573 0.0
C734 C 0.64251 0.49134 0.68617 0.0
C735 C 0.63863 0.54237 0.68819 0.0
C736 C 0.59144 0.56342 0.6895 0.0
H737 H 0.41336 0.08905 0.94041 0.0
H738 H 0.54231 0.17931 0.93479 0.0
H739 H 0.5938 0.1051 0.93408 0.0
H740 H 0.46867 1.00019 0.96046 0.0
H741 H 0.43611 0.94888 0.95383 0.0
H742 H 0.40898 0.00883 0.95347 0.0
H743 H 0.39903 1.00265 0.92914 0.0
H744 H 0.42601 0.94257 0.92942 0.0
H745 H 0.45182 0.9895 0.91948 0.0
H746 H 0.63206 0.02158 0.93538 0.0
H747 H 0.65408 0.9345 0.93734 0.0
H748 H 0.50034 0.89683 0.94113 0.0
C749 C 0.45239 0.0932 0.93893 0.0
C750 C 0.47377 0.14021 0.93767 0.0
C751 C 0.525 0.14388 0.93574 0.0
C752 C 0.55458 0.10186 0.93535 0.0
C753 C 0.53245 0.0562 0.93675 0.0
C754 C 0.48245 0.05152 0.93837 0.0
C755 C 0.46802 0.99807 0.9397 0.0
C756 C 0.44403 0.98844 0.95264 0.0
C757 C 0.43422 0.98227 0.92879 0.0
C758 C 0.51779 0.97345 0.93877 0.0
C759 C 0.55442 0.00779 0.93711 0.0
C760 C 0.60362 0.99439 0.93654 0.0
C761 C 0.61578 0.94474 0.9377 0.0
C762 C 0.57901 0.90867 0.93931 0.0
C763 C 0.52927 0.92339 0.93975 0.0
H764 H 0.09117 0.40642 0.07052 0.0
H765 H 0.18019 0.53313 0.07957 0.0
H766 H 0.10519 0.58348 0.08116 0.0
H767 H 1.00541 0.4657 0.05127 0.0
H768 H 0.95305 0.43138 0.05667 0.0
H769 H 0.01317 0.40446 0.05724 0.0
H770 H 1.00305 0.38807 0.08125 0.0
H771 H 0.94269 0.41471 0.08074 0.0
H772 H 0.98781 0.43792 0.09168 0.0
H773 H 0.02155 0.62182 0.07918 0.0
H774 H 0.93481 0.64408 0.07567 0.0
H775 H 0.89893 0.49169 0.06931 0.0
C776 C 0.09485 0.44459 0.07305 0.0
C777 C 0.14162 0.46587 0.07493 0.0
C778 C 0.14482 0.51596 0.07818 0.0
C779 C 0.10239 0.54487 0.07907 0.0
C780 C 0.05693 0.52297 0.0769 0.0
C781 C 0.05282 0.47377 0.07417 0.0
C782 C 0.99972 0.45948 0.07193 0.0
C783 C 0.99244 0.43906 0.05848 0.0
C784 C 0.98229 0.42288 0.082 0.0
C785 C 0.97467 0.50858 0.07349 0.0
C786 C 0.00842 0.54473 0.07631 0.0
C787 C 0.99472 0.59366 0.07722 0.0
C788 C 0.94541 0.60598 0.07517 0.0
C789 C 0.91012 0.56954 0.0724 0.0
C790 C 0.92495 0.52013 0.07171 0.0
H791 H 0.59562 0.58713 0.31586 0.0
H792 H 0.46921 0.67633 0.32502 0.0
H793 H 0.41789 0.60181 0.32615 0.0
H794 H 0.53505 0.50104 0.29635 0.0
H795 H 0.56942 0.44897 0.30187 0.0
H796 H 0.59656 0.50893 0.30227 0.0
H797 H 0.61337 0.49956 0.32628 0.0
H798 H 0.58651 0.4394 0.32595 0.0
H799 H 0.56349 0.48477 0.33678 0.0
H800 H 0.37892 0.51794 0.32434 0.0
H801 H 0.35676 0.43088 0.3218 0.0
H802 H 0.5094 0.39501 0.31529 0.0
C803 C 0.55724 0.59097 0.31825 0.0
C804 C 0.53642 0.63772 0.32034 0.0
C805 C 0.48606 0.64103 0.32345 0.0
C806 C 0.45659 0.59886 0.32406 0.0
C807 C 0.47811 0.55343 0.32175 0.0
C808 C 0.52749 0.54916 0.31911 0.0
C809 C 0.54159 0.49604 0.31701 0.0
C810 C 0.56184 0.48831 0.30358 0.0
C811 C 0.57842 0.47894 0.32711 0.0
C812 C 0.49229 0.47109 0.31865 0.0
C813 C 0.4561 0.50495 0.32129 0.0
C814 C 0.40712 0.49111 0.32247 0.0
C815 C 0.39484 0.44156 0.32096 0.0
C816 C 0.43135 0.40603 0.31847 0.0
C817 C 0.48079 0.42116 0.3174 0.0
H818 H 0.63098 0.01709 0.56311 0.0
H819 H 0.60649 0.89002 0.58671 0.0
H820 H 0.52191 0.91808 0.59105 0.0
H821 H 0.55411 0.10472 0.58106 0.0
H822 H 0.53082 0.13345 0.56692 0.0
H823 H 0.59123 0.10682 0.56697 0.0
H824 H 0.56758 0.05335 0.54767 0.0
H825 H 0.50711 0.0796 0.54761 0.0
H826 H 0.5145 0.01427 0.54862 0.0
H827 H 0.43863 0.95636 0.59158 0.0
H828 H 0.36132 1.00075 0.58788 0.0
H829 H 0.43758 0.10233 0.56325 0.0
C830 C 0.60809 0.99612 0.56948 0.0
C831 C 0.62533 0.95207 0.57487 0.0
C832 C 0.59399 0.92432 0.58272 0.0
C833 C 0.54598 0.93997 0.58521 0.0
C834 C 0.5296 0.9832 0.57963 0.0
C835 C 0.5596 0.0109 0.57189 0.0
C836 C 0.53142 0.05352 0.5662 0.0
C837 C 0.5532 0.10253 0.57055 0.0
C838 C 0.53008 0.04994 0.55166 0.0
C839 C 0.48092 0.04521 0.57186 0.0
C840 C 0.48091 1.00465 0.57966 0.0
C841 C 0.43831 0.98841 0.58558 0.0
C842 C 0.39447 0.01389 0.5834 0.0
C843 C 0.39322 0.05521 0.57532 0.0
C844 C 0.43733 0.07124 0.56959 0.0
H845 H 0.9909 0.12376 0.8177 0.0
H846 H 0.14111 0.08689 0.82702 0.0
H847 H 0.11659 1.0011 0.83077 0.0
H848 H 0.92949 0.03807 0.83954 0.0
H849 H 0.88236 0.02239 0.82827 0.0
H850 H 0.91018 0.08213 0.82786 0.0
H851 H 0.93343 0.0691 0.80434 0.0
H852 H 0.90571 0.00942 0.80467 0.0
H853 H 0.96877 0.01614 0.79993 0.0
H854 H 0.07672 0.9191 0.83287 0.0
H855 H 0.02631 0.8446 0.83109 0.0
H856 H 0.90265 0.93217 0.81868 0.0
C857 C 0.01825 0.0977 0.82081 0.0
C858 C 0.06775 0.11192 0.82231 0.0
C859 C 0.10296 0.07667 0.82594 0.0
C860 C 0.08933 0.02795 0.82813 0.0
C861 C 0.0404 0.0148 0.82643 0.0
C862 C 1.00542 0.04844 0.82271 0.0
C863 C 0.95644 0.02357 0.82036 0.0
C864 C 0.9173 0.04269 0.82956 0.0
C865 C 0.94015 0.02993 0.8065 0.0
C866 C 0.9695 0.97073 0.82322 0.0
C867 C 0.0179 0.96676 0.82695 0.0
C868 C 0.03875 0.92177 0.82998 0.0
C869 C 0.00972 0.87961 0.82897 0.0
C870 C 0.96049 0.8824 0.82475 0.0
C871 C 0.9401 0.92879 0.82197 0.0
H872 H 0.55805 0.90007 0.19347 0.0
H873 H 0.6683 0.00828 0.18372 0.0
H874 H 0.60356 0.07088 0.18193 0.0
H875 H 0.46238 0.94576 0.17244 0.0
H876 H 0.41384 0.93291 0.18351 0.0
H877 H 0.46852 0.89602 0.18353 0.0
H878 H 0.48162 0.91488 0.20732 0.0
H879 H 0.42705 0.95183 0.20739 0.0
H880 H 0.48457 0.97757 0.21252 0.0
H881 H 0.528 0.12267 0.18247 0.0
H882 H 0.44647 0.16016 0.18472 0.0
H883 H 0.38403 0.01827 0.19353 0.0
C884 C 0.56872 0.93681 0.19085 0.0
C885 C 0.61855 0.94909 0.18872 0.0
C886 C 0.63058 0.99776 0.18536 0.0
C887 C 0.59401 0.03363 0.18432 0.0
C888 C 0.54546 0.02029 0.18658 0.0
C889 C 0.53268 0.97302 0.18971 0.0
C890 C 0.47787 0.96858 0.19195 0.0
C891 C 0.45427 0.93375 0.18228 0.0
C892 C 0.46717 0.95226 0.2056 0.0
C893 C 0.46185 0.02095 0.18973 0.0
C894 C 0.50154 0.05008 0.18666 0.0
C895 C 0.49663 0.10014 0.18475 0.0
C896 C 0.4501 0.1211 0.1861 0.0
C897 C 0.40874 0.09215 0.18925 0.0
C898 C 0.41475 0.04123 0.19094 0.0
H899 H 0.98286 0.88598 0.44061 0.0
H900 H 0.83825 0.9525 0.44029 0.0
H901 H 0.87555 0.03392 0.44007 0.0
H902 H 0.03866 0.97384 0.46122 0.0
H903 H 0.0967 0.97462 0.4531 0.0
H904 H 0.05904 0.92059 0.45267 0.0
H905 H 0.06025 0.92225 0.42815 0.0
H906 H 0.09799 0.97629 0.42851 0.0
H907 H 0.04084 0.97666 0.41993 0.0
H908 H 0.92768 0.10934 0.4404 0.0
H909 H 0.99215 0.1728 0.44146 0.0
H910 H 0.10313 0.05903 0.44174 0.0
C911 C 0.95908 0.91763 0.44038 0.0
C912 C 0.90743 0.91222 0.44048 0.0
C913 C 0.87785 0.95502 0.44027 0.0
C914 C 0.89867 1.00179 0.44012 0.0
C915 C 0.9494 0.00589 0.44015 0.0
C916 C 0.97936 0.96508 0.44027 0.0
C917 C 0.0329 0.98022 0.44057 0.0
C918 C 0.05831 0.96119 0.4526 0.0
C919 C 0.05956 0.96282 0.42858 0.0
C920 C 0.02806 0.0356 0.44078 0.0
C921 C 0.97957 0.04963 0.44044 0.0
C922 C 0.96589 0.09882 0.44063 0.0
C923 C 1.00278 0.13469 0.44122 0.0
C924 C 0.05287 0.1213 0.4417 0.0
C925 C 0.0653 0.07087 0.44142 0.0
H926 H 0.06212 0.41012 0.69399 0.0
H927 H 0.17565 0.51854 0.6874 0.0
H928 H 0.11218 0.58269 0.68606 0.0
H929 H 0.972 0.46105 0.67282 0.0
H930 H 0.92085 0.44698 0.68297 0.0
H931 H 0.975 0.40938 0.68338 0.0
H932 H 0.98304 0.42399 0.70752 0.0
H933 H 0.92882 0.46149 0.7072 0.0
H934 H 0.98529 0.48569 0.71348 0.0
H935 H 0.0369 0.635 0.68563 0.0
H936 H 0.95543 0.67288 0.68639 0.0
H937 H 0.88938 0.53077 0.69314 0.0
C938 C 0.07386 0.44731 0.69224 0.0
C939 C 0.12423 0.45909 0.69078 0.0
C940 C 0.13756 0.50839 0.68856 0.0
C941 C 0.10169 0.54512 0.68776 0.0
C942 C 0.05255 0.53209 0.68921 0.0
C943 C 0.03856 0.48442 0.69143 0.0
C944 C 0.98323 0.48031 0.69277 0.0
C945 C 0.9615 0.44748 0.68236 0.0
C946 C 0.96929 0.46178 0.70603 0.0
C947 C 0.96819 0.53324 0.69095 0.0
C948 C 0.00889 0.56235 0.68892 0.0
C949 C 1.00482 0.61254 0.6872 0.0
C950 C 0.95815 0.63372 0.68768 0.0
C951 C 0.9156 0.60495 0.68984 0.0
C952 C 0.92091 0.55381 0.69138 0.0
H953 H 0.48699 0.39108 0.94021 0.0
H954 H 0.34341 0.45709 0.94524 0.0
H955 H 0.38063 0.5384 0.94525 0.0
H956 H 0.5522 0.47526 0.96039 0.0
H957 H 0.60606 0.47788 0.95056 0.0
H958 H 0.56844 0.42378 0.95061 0.0
H959 H 0.55842 0.43009 0.92627 0.0
H960 H 0.596 0.48426 0.92616 0.0
H961 H 0.5353 0.48585 0.91942 0.0
H962 H 0.43216 0.6136 0.94479 0.0
H963 H 0.49628 0.67734 0.94447 0.0
H964 H 0.60718 0.56477 0.94007 0.0
C965 C 0.4634 0.4226 0.94127 0.0
C966 C 0.41206 0.41702 0.94271 0.0
C967 C 0.38276 0.45966 0.94413 0.0
C968 C 0.40352 0.50642 0.94413 0.0
C969 C 0.45391 0.51067 0.94271 0.0
C970 C 0.48364 0.47008 0.94133 0.0
C971 C 0.53696 0.48548 0.94018 0.0
C972 C 0.56772 0.46434 0.95109 0.0
C973 C 0.5579 0.47053 0.92724 0.0
C974 C 0.53225 0.54074 0.94124 0.0
C975 C 0.48394 0.55443 0.94261 0.0
C976 C 0.47023 0.60338 0.94373 0.0
C977 C 0.50693 0.63941 0.94351 0.0
C978 C 0.55692 0.62641 0.94227 0.0
C979 C 0.56941 0.5762 0.94109 0.0
H980 H 0.5689 0.59959 0.0609 0.0
H981 H 0.67885 0.49128 0.07081 0.0
H982 H 0.61366 0.42937 0.07319 0.0
H983 H 0.4752 0.55784 0.08253 0.0
H984 H 0.42556 0.5696 0.07167 0.0
H985 H 0.48064 0.60582 0.07092 0.0
H986 H 0.49103 0.58327 0.04726 0.0
H987 H 0.43588 0.5472 0.04792 0.0
H988 H 0.49238 0.51982 0.04268 0.0
H989 H 0.53727 0.37858 0.07373 0.0
H990 H 0.45495 0.34188 0.07235 0.0
H991 H 0.39347 0.48326 0.06268 0.0
C992 C 0.57946 0.56291 0.0636 0.0
C993 C 0.62932 0.55047 0.06566 0.0
C994 C 0.64115 0.5019 0.06917 0.0
C995 C 0.6043 0.46645 0.07057 0.0
C996 C 0.55569 0.48006 0.06849 0.0
C997 C 0.54315 0.52711 0.06509 0.0
C998 C 0.48816 0.53195 0.06318 0.0
C999 C 0.4661 0.56847 0.07264 0.0
C1000 C 0.47617 0.54641 0.04944 0.0
C1001 C 0.47167 0.48014 0.06601 0.0
C1002 C 0.51134 0.45088 0.06902 0.0
C1003 C 0.50595 0.40121 0.07147 0.0
C1004 C 0.459 0.38071 0.07064 0.0
C1005 C 0.4177 0.40974 0.06749 0.0
C1006 C 0.42416 0.46034 0.06532 0.0
H1007 H 0.40647 0.0619 0.31471 0.0
H1008 H 0.51747 0.17517 0.31766 0.0
H1009 H 0.5816 0.11132 0.3188 0.0
H1010 H 0.46356 0.97575 0.33624 0.0
H1011 H 0.44541 0.92311 0.3271 0.0
H1012 H 0.40833 0.97757 0.32686 0.0
H1013 H 0.41461 0.98069 0.30241 0.0
H1014 H 0.45157 0.92621 0.30257 0.0
H1015 H 0.47419 0.98087 0.29505 0.0
H1016 H 0.63376 0.03487 0.31873 0.0
H1017 H 0.67022 0.95271 0.31749 0.0
H1018 H 0.52497 0.88867 0.31498 0.0
C1019 C 0.44421 0.07359 0.31564 0.0
C1020 C 0.45673 0.12397 0.31609 0.0
C1021 C 0.50674 0.13709 0.31732 0.0
C1022 C 0.54344 0.10099 0.31798 0.0
C1023 C 0.52964 0.05183 0.31748 0.0
C1024 C 0.48118 0.03813 0.31637 0.0
C1025 C 0.476 0.98286 0.31581 0.0
C1026 C 0.44658 0.96371 0.32718 0.0
C1027 C 0.45272 0.96672 0.30321 0.0
C1028 C 0.52928 0.96738 0.31663 0.0
C1029 C 0.55956 0.00781 0.31761 0.0
C1030 C 0.61031 1.00306 0.31805 0.0
C1031 C 0.63068 0.95606 0.31732 0.0
C1032 C 0.60057 0.91393 0.3162 0.0
C1033 C 0.54904 0.9199 0.31602 0.0
H1034 H 0.88253 0.99427 0.56201 0.0
H1035 H 0.94309 0.85685 0.57523 0.0
H1036 H 0.02341 0.89609 0.57834 0.0
H1037 H 0.98612 0.02909 0.54418 0.0
H1038 H 0.98256 0.09341 0.54775 0.0
H1039 H 0.92787 0.05659 0.5479 0.0
H1040 H 0.91013 0.08369 0.57094 0.0
H1041 H 0.96471 0.12083 0.57083 0.0
H1042 H 0.95639 0.0752 0.58294 0.0
H1043 H 0.09826 0.94755 0.57876 0.0
H1044 H 0.164 0.00829 0.57613 0.0
H1045 H 0.05754 0.11312 0.56201 0.0
C1046 C 0.91248 0.97292 0.56584 0.0
C1047 C 0.90646 0.92257 0.56848 0.0
C1048 C 0.94684 0.89546 0.57316 0.0
C1049 C 0.99263 0.91744 0.575 0.0
C1050 C 0.99783 0.96671 0.57205 0.0
C1051 C 0.95902 0.99429 0.56758 0.0
C1052 C 0.97591 0.04573 0.56432 0.0
C1053 C 0.96762 0.05683 0.5502 0.0
C1054 C 0.95026 0.0836 0.57276 0.0
C1055 C 0.03023 0.04223 0.56744 0.0
C1056 C 0.0418 0.99644 0.57203 0.0
C1057 C 0.08964 0.98371 0.57527 0.0
C1058 C 0.12683 0.01857 0.57372 0.0
C1059 C 0.11628 0.06574 0.56888 0.0
C1060 C 0.06704 0.07759 0.56579 0.0
H1061 H 0.89828 0.56113 0.80359 0.0
H1062 H 0.97223 0.64325 0.83317 0.0
H1063 H 0.02492 0.57203 0.83762 0.0
H1064 H 0.90202 0.44148 0.81893 0.0
H1065 H 0.9144 0.40909 0.80443 0.0
H1066 H 0.87988 0.46522 0.80406 0.0
H1067 H 0.94146 0.50197 0.78804 0.0
H1068 H 0.97588 0.44588 0.78827 0.0
H1069 H 1.00583 0.50292 0.7919 0.0
H1070 H 0.07218 0.49412 0.83826 0.0
H1071 H 0.11477 0.41609 0.8341 0.0
H1072 H 0.01164 0.38336 0.80405 0.0
C1073 C 0.92518 0.56394 0.81111 0.0
C1074 C 0.93084 0.60782 0.8181 0.0
C1075 C 0.96715 0.61019 0.82768 0.0
C1076 C 0.99709 0.56978 0.83033 0.0
C1077 C 0.99057 0.52719 0.82328 0.0
C1078 C 0.95582 0.52403 0.8138 0.0
C1079 C 0.9587 0.475 0.80708 0.0
C1080 C 0.9109 0.44599 0.80873 0.0
C1081 C 0.97122 0.48187 0.79299 0.0
C1082 C 1.00072 0.45121 0.81422 0.0
C1083 C 0.01818 0.48194 0.82361 0.0
C1084 C 0.05845 0.46951 0.83106 0.0
C1085 C 0.08226 0.42511 0.82868 0.0
C1086 C 0.06568 0.39347 0.81899 0.0
C1087 C 0.02397 0.40632 0.81178 0.0
loop_
_geom_bond_atom_site_label_1
_geom_bond_atom_site_label_2
_geom_bond_distance
_geom_bond_site_symmetry_2
_ccdc_geom_bond_type
Co0 O1 2.216 . S
Co0 O2 2.091 . S
Co0 O4 2.004 . S
Co0 O10 2.021 . S
Co0 O12 2.137 . S
Co0 O13 2.244 . S
O1 Co0 2.216 . S
O1 C8 1.247 . S
O2 Co0 2.091 . S
O2 C8 1.261 . S
C3 O12 1.247 . S
C3 O13 1.272 . S
O4 Co0 2.004 . S
O4 C9 1.259 . S
Co5 O6 2.061 . S
Co5 O11 2.052 . S
Co5 O13 2.135 . S
O6 Co5 2.061 . S
O6 C9 1.235 . S
C7 O10 1.238 . S
C7 O11 1.241 . S
C8 O1 1.247 . S
C8 O2 1.261 . S
C9 O4 1.259 . S
C9 O6 1.235 . S
O10 Co0 2.021 . S
O10 C7 1.238 . S
O11 Co5 2.052 . S
O11 C7 1.241 . S
O12 Co0 2.137 . S
O12 C3 1.247 . S
O13 Co0 2.244 . S
O13 C3 1.272 . S
O13 Co5 2.135 . S
Co14 O15 2.216 . S
Co14 O16 2.091 . S
Co14 O18 2.004 . S
Co14 O24 2.021 . S
Co14 O26 2.137 . S
Co14 O27 2.244 . S
O15 Co14 2.216 . S
O15 C22 1.247 . S
O16 Co14 2.091 . S
O16 C22 1.261 . S
C17 O26 1.247 . S
C17 O27 1.272 . S
O18 Co14 2.004 . S
O18 C23 1.259 . S
Co19 O20 2.061 . S
Co19 O25 2.052 . S
Co19 O27 2.135 . S
O20 Co19 2.061 . S
O20 C23 1.235 . S
C21 O24 1.238 . S
C21 O25 1.241 . S
C22 O15 1.247 . S
C22 O16 1.261 . S
C23 O18 1.259 . S
C23 O20 1.235 . S
O24 Co14 2.021 . S
O24 C21 1.238 . S
O25 Co19 2.052 . S
O25 C21 1.241 . S
O26 Co14 2.137 . S
O26 C17 1.247 . S
O27 Co14 2.244 . S
O27 C17 1.272 . S
O27 Co19 2.135 . S
Co28 O29 2.216 . S
Co28 O30 2.091 . S
Co28 O32 2.004 . S
Co28 O38 2.021 . S
Co28 O40 2.137 . S
Co28 O41 2.244 . S
O29 Co28 2.216 . S
O29 C36 1.247 . S
O30 Co28 2.091 . S
O30 C36 1.261 . S
C31 O40 1.247 . S
C31 O41 1.272 . S
O32 Co28 2.004 . S
O32 C37 1.259 . S
Co33 O34 2.061 . S
Co33 O39 2.052 . S
Co33 O41 2.135 . S
O34 Co33 2.061 . S
O34 C37 1.235 . S
C35 O38 1.238 . S
C35 O39 1.241 . S
C36 O29 1.247 . S
C36 O30 1.261 . S
C37 O32 1.259 . S
C37 O34 1.235 . S
O38 Co28 2.021 . S
O38 C35 1.238 . S
O39 Co33 2.052 . S
O39 C35 1.241 . S
O40 Co28 2.137 . S
O40 C31 1.247 . S
O41 Co28 2.244 . S
O41 C31 1.272 . S
O41 Co33 2.135 . S
Co42 O43 2.216 . S
Co42 O44 2.091 . S
Co42 O46 2.004 . S
Co42 O52 2.021 . S
Co42 O54 2.137 . S
Co42 O55 2.244 . S
O43 Co42 2.216 . S
O43 C50 1.247 . S
O44 Co42 2.091 . S
O44 C50 1.261 . S
C45 O54 1.247 . S
C45 O55 1.272 . S
O46 Co42 2.004 . S
O46 C51 1.259 . S
Co47 O48 2.061 . S
Co47 O53 2.052 . S
Co47 O55 2.135 . S
O48 Co47 2.061 . S
O48 C51 1.235 . S
C49 O52 1.238 . S
C49 O53 1.241 . S
C50 O43 1.247 . S
C50 O44 1.261 . S
C51 O46 1.259 . S
C51 O48 1.235 . S
O52 Co42 2.021 . S
O52 C49 1.238 . S
O53 Co47 2.052 . S
O53 C49 1.241 . S
O54 Co42 2.137 . S
O54 C45 1.247 . S
O55 Co42 2.244 . S
O55 C45 1.272 . S
O55 Co47 2.135 . S
Co56 O57 2.216 . S
Co56 O58 2.091 . S
Co56 O60 2.004 . S
Co56 O66 2.021 . S
Co56 O68 2.137 . S
Co56 O69 2.244 . S
O57 Co56 2.216 . S
O57 C64 1.247 . S
O58 Co56 2.091 . S
O58 C64 1.261 . S
C59 O68 1.247 . S
C59 O69 1.272 . S
O60 Co56 2.004 . S
O60 C65 1.259 . S
Co61 O62 2.061 . S
Co61 O67 2.052 . S
Co61 O69 2.135 . S
O62 Co61 2.061 . S
O62 C65 1.235 . S
C63 O66 1.238 . S
C63 O67 1.241 . S
C64 O57 1.247 . S
C64 O58 1.261 . S
C65 O60 1.259 . S
C65 O62 1.235 . S
O66 Co56 2.021 . S
O66 C63 1.238 . S
O67 Co61 2.052 . S
O67 C63 1.241 . S
O68 Co56 2.137 . S
O68 C59 1.247 . S
O69 Co56 2.244 . S
O69 C59 1.272 . S
O69 Co61 2.135 . S
Co70 O71 2.216 . S
Co70 O72 2.091 . S
Co70 O74 2.004 . S
Co70 O80 2.021 . S
Co70 O82 2.137 . S
Co70 O83 2.244 . S
O71 Co70 2.216 . S
O71 C78 1.247 . S
O72 Co70 2.091 . S
O72 C78 1.261 . S
C73 O82 1.247 . S
C73 O83 1.272 . S
O74 Co70 2.004 . S
O74 C79 1.259 . S
Co75 O76 2.061 . S
Co75 O81 2.052 . S
Co75 O83 2.135 . S
O76 Co75 2.061 . S
O76 C79 1.235 . S
C77 O80 1.238 . S
C77 O81 1.241 . S
C78 O71 1.247 . S
C78 O72 1.261 . S
C79 O74 1.259 . S
C79 O76 1.235 . S
O80 Co70 2.021 . S
O80 C77 1.238 . S
O81 Co75 2.052 . S
O81 C77 1.241 . S
O82 Co70 2.137 . S
O82 C73 1.247 . S
O83 Co70 2.244 . S
O83 C73 1.272 . S
O83 Co75 2.135 . S
Co84 O85 2.216 . S
Co84 O86 2.091 . S
Co84 O88 2.004 . S
Co84 O94 2.021 . S
Co84 O96 2.137 . S
Co84 O97 2.244 . S
O85 Co84 2.216 . S
O85 C92 1.247 . S
O86 Co84 2.091 . S
O86 C92 1.261 . S
C87 O96 1.247 . S
C87 O97 1.272 . S
O88 Co84 2.004 . S
O88 C93 1.259 . S
Co89 O90 2.061 . S
Co89 O95 2.052 . S
Co89 O97 2.135 . S
O90 Co89 2.061 . S
O90 C93 1.235 . S
C91 O94 1.238 . S
C91 O95 1.241 . S
C92 O85 1.247 . S
C92 O86 1.261 . S
C93 O88 1.259 . S
C93 O90 1.235 . S
O94 Co84 2.021 . S
O94 C91 1.238 . S
O95 Co89 2.052 . S
O95 C91 1.241 . S
O96 Co84 2.137 . S
O96 C87 1.247 . S
O97 Co84 2.244 . S
O97 C87 1.272 . S
O97 Co89 2.135 . S
Co98 O99 2.216 . S
Co98 O100 2.091 . S
Co98 O102 2.004 . S
Co98 O108 2.021 . S
Co98 O110 2.137 . S
Co98 O111 2.244 . S
O99 Co98 2.216 . S
O99 C106 1.247 . S
O100 Co98 2.091 . S
O100 C106 1.261 . S
C101 O110 1.247 . S
C101 O111 1.272 . S
O102 Co98 2.004 . S
O102 C107 1.259 . S
Co103 O104 2.061 . S
Co103 O109 2.052 . S
Co103 O111 2.135 . S
O104 Co103 2.061 . S
O104 C107 1.235 . S
C105 O108 1.238 . S
C105 O109 1.241 . S
C106 O99 1.247 . S
C106 O100 1.261 . S
C107 O102 1.259 . S
C107 O104 1.235 . S
O108 Co98 2.021 . S
O108 C105 1.238 . S
O109 Co103 2.052 . S
O109 C105 1.241 . S
O110 Co98 2.137 . S
O110 C101 1.247 . S
O111 Co98 2.244 . S
O111 C101 1.272 . S
O111 Co103 2.135 . S
Co112 O113 2.216 . S
Co112 O114 2.091 . S
Co112 O116 2.004 . S
Co112 O122 2.021 . S
Co112 O124 2.137 . S
Co112 O125 2.244 . S
O113 Co112 2.216 . S
O113 C120 1.247 . S
O114 Co112 2.091 . S
O114 C120 1.261 . S
C115 O124 1.247 . S
C115 O125 1.272 . S
O116 Co112 2.004 . S
O116 C121 1.259 . S
Co117 O118 2.061 . S
Co117 O123 2.052 . S
Co117 O125 2.135 . S
O118 Co117 2.061 . S
O118 C121 1.235 . S
C119 O122 1.238 . S
C119 O123 1.241 . S
C120 O113 1.247 . S
C120 O114 1.261 . S
C121 O116 1.259 . S
C121 O118 1.235 . S
O122 Co112 2.021 . S
O122 C119 1.238 . S
O123 Co117 2.052 . S
O123 C119 1.241 . S
O124 Co112 2.137 . S
O124 C115 1.247 . S
O125 Co112 2.244 . S
O125 C115 1.272 . S
O125 Co117 2.135 . S
Co126 O127 2.216 . S
Co126 O128 2.091 . S
Co126 O130 2.004 . S
Co126 O136 2.021 . S
Co126 O138 2.137 . S
Co126 O139 2.244 . S
O127 Co126 2.216 . S
O127 C134 1.247 . S
O128 Co126 2.091 . S
O128 C134 1.261 . S
C129 O138 1.247 . S
C129 O139 1.272 . S
O130 Co126 2.004 . S
O130 C135 1.259 . S
Co131 O132 2.061 . S
Co131 O137 2.052 . S
Co131 O139 2.135 . S
O132 Co131 2.061 . S
O132 C135 1.235 . S
C133 O136 1.238 . S
C133 O137 1.241 . S
C134 O127 1.247 . S
C134 O128 1.261 . S
C135 O130 1.259 . S
C135 O132 1.235 . S
O136 Co126 2.021 . S
O136 C133 1.238 . S
O137 Co131 2.052 . S
O137 C133 1.241 . S
O138 Co126 2.137 . S
O138 C129 1.247 . S
O139 Co126 2.244 . S
O139 C129 1.272 . S
O139 Co131 2.135 . S
Co140 O141 2.216 . S
Co140 O142 2.091 . S
Co140 O144 2.004 . S
Co140 O150 2.021 . S
Co140 O152 2.137 . S
Co140 O153 2.244 . S
O141 Co140 2.216 . S
O141 C148 1.247 . S
O142 Co140 2.091 . S
O142 C148 1.261 . S
C143 O152 1.247 . S
C143 O153 1.272 . S
O144 Co140 2.004 . S
O144 C149 1.259 . S
Co145 O146 2.061 . S
Co145 O151 2.052 . S
Co145 O153 2.135 . S
O146 Co145 2.061 . S
O146 C149 1.235 . S
C147 O150 1.238 . S
C147 O151 1.241 . S
C148 O141 1.247 . S
C148 O142 1.261 . S
C149 O144 1.259 . S
C149 O146 1.235 . S
O150 Co140 2.021 . S
O150 C147 1.238 . S
O151 Co145 2.052 . S
O151 C147 1.241 . S
O152 Co140 2.137 . S
O152 C143 1.247 . S
O153 Co140 2.244 . S
O153 C143 1.272 . S
O153 Co145 2.135 . S
Co154 O155 2.216 . S
Co154 O156 2.091 . S
Co154 O158 2.004 . S
Co154 O164 2.021 . S
Co154 O166 2.137 . S
Co154 O167 2.244 . S
O155 Co154 2.216 . S
O155 C162 1.247 . S
O156 Co154 2.091 . S
O156 C162 1.261 . S
C157 O166 1.247 . S
C157 O167 1.272 . S
O158 Co154 2.004 . S
O158 C163 1.259 . S
Co159 O160 2.061 . S
Co159 O165 2.052 . S
Co159 O167 2.135 . S
O160 Co159 2.061 . S
O160 C163 1.235 . S
C161 O164 1.238 . S
C161 O165 1.241 . S
C162 O155 1.247 . S
C162 O156 1.261 . S
C163 O158 1.259 . S
C163 O160 1.235 . S
O164 Co154 2.021 . S
O164 C161 1.238 . S
O165 Co159 2.052 . S
O165 C161 1.241 . S
O166 Co154 2.137 . S
O166 C157 1.247 . S
O167 Co154 2.244 . S
O167 C157 1.272 . S
O167 Co159 2.135 . S
Co168 O169 2.216 . S
Co168 O170 2.091 . S
Co168 O172 2.004 . S
Co168 O178 2.021 . S
Co168 O180 2.137 . S
Co168 O181 2.244 . S
O169 Co168 2.216 . S
O169 C176 1.247 . S
O170 Co168 2.091 . S
O170 C176 1.261 . S
C171 O180 1.247 . S
C171 O181 1.272 . S
O172 Co168 2.004 . S
O172 C177 1.259 . S
Co173 O174 2.061 . S
Co173 O179 2.052 . S
Co173 O181 2.135 . S
O174 Co173 2.061 . S
O174 C177 1.235 . S
C175 O178 1.238 . S
C175 O179 1.241 . S
C176 O169 1.247 . S
C176 O170 1.261 . S
C177 O172 1.259 . S
C177 O174 1.235 . S
O178 Co168 2.021 . S
O178 C175 1.238 . S
O179 Co173 2.052 . S
O179 C175 1.241 . S
O180 Co168 2.137 . S
O180 C171 1.247 . S
O181 Co168 2.244 . S
O181 C171 1.272 . S
O181 Co173 2.135 . S
Co182 O183 2.216 . S
Co182 O184 2.091 . S
Co182 O186 2.004 . S
Co182 O192 2.021 . S
Co182 O194 2.137 . S
Co182 O195 2.244 . S
O183 Co182 2.216 . S
O183 C190 1.247 . S
O184 Co182 2.091 . S
O184 C190 1.261 . S
C185 O194 1.247 . S
C185 O195 1.272 . S
O186 Co182 2.004 . S
O186 C191 1.259 . S
Co187 O188 2.061 . S
Co187 O193 2.052 . S
Co187 O195 2.135 . S
O188 Co187 2.061 . S
O188 C191 1.235 . S
C189 O192 1.238 . S
C189 O193 1.241 . S
C190 O183 1.247 . S
C190 O184 1.261 . S
C191 O186 1.259 . S
C191 O188 1.235 . S
O192 Co182 2.021 . S
O192 C189 1.238 . S
O193 Co187 2.052 . S
O193 C189 1.241 . S
O194 Co182 2.137 . S
O194 C185 1.247 . S
O195 Co182 2.244 . S
O195 C185 1.272 . S
O195 Co187 2.135 . S
Co196 O197 2.216 . S
Co196 O198 2.091 . S
Co196 O200 2.004 . S
Co196 O206 2.021 . S
Co196 O208 2.137 . S
Co196 O209 2.244 . S
O197 Co196 2.216 . S
O197 C204 1.247 . S
O198 Co196 2.091 . S
O198 C204 1.261 . S
C199 O208 1.247 . S
C199 O209 1.272 . S
O200 Co196 2.004 . S
O200 C205 1.259 . S
Co201 O202 2.061 . S
Co201 O207 2.052 . S
Co201 O209 2.135 . S
O202 Co201 2.061 . S
O202 C205 1.235 . S
C203 O206 1.238 . S
C203 O207 1.241 . S
C204 O197 1.247 . S
C204 O198 1.261 . S
C205 O200 1.259 . S
C205 O202 1.235 . S
O206 Co196 2.021 . S
O206 C203 1.238 . S
O207 Co201 2.052 . S
O207 C203 1.241 . S
O208 Co196 2.137 . S
O208 C199 1.247 . S
O209 Co196 2.244 . S
O209 C199 1.272 . S
O209 Co201 2.135 . S
Co210 O211 2.216 . S
Co210 O212 2.091 . S
Co210 O214 2.004 . S
Co210 O220 2.021 . S
Co210 O222 2.137 . S
Co210 O223 2.244 . S
O211 Co210 2.216 . S
O211 C218 1.247 . S
O212 Co210 2.091 . S
O212 C218 1.261 . S
C213 O222 1.247 . S
C213 O223 1.272 . S
O214 Co210 2.004 . S
O214 C219 1.259 . S
Co215 O216 2.061 . S
Co215 O221 2.052 . S
Co215 O223 2.135 . S
O216 Co215 2.061 . S
O216 C219 1.235 . S
C217 O220 1.238 . S
C217 O221 1.241 . S
C218 O211 1.247 . S
C218 O212 1.261 . S
C219 O214 1.259 . S
C219 O216 1.235 . S
O220 Co210 2.021 . S
O220 C217 1.238 . S
O221 Co215 2.052 . S
O221 C217 1.241 . S
O222 Co210 2.137 . S
O222 C213 1.247 . S
O223 Co210 2.244 . S
O223 C213 1.272 . S
O223 Co215 2.135 . S
H224 C236 0.930 . S
H225 C238 0.930 . S
H226 C239 0.930 . S
H227 C243 0.959 . S
H228 C243 0.959 . S
H229 C243 0.961 . S
H230 C244 0.960 . S
H231 C244 0.961 . S
H232 C244 0.959 . S
H233 C247 0.929 . S
H234 C248 0.931 . S
H235 C250 0.930 . S
C236 H224 0.930 . S
C236 C237 1.399 . S
C236 C241 1.399 . S
C237 C236 1.399 . S
C237 C238 1.376 . S
C238 H225 0.930 . S
C238 C237 1.376 . S
C238 C239 1.388 . S
C239 H226 0.930 . S
C239 C238 1.388 . S
C239 C240 1.390 . S
C240 C239 1.390 . S
C240 C241 1.394 . S
C240 C246 1.465 . S
C241 C236 1.399 . S
C241 C240 1.394 . S
C241 C242 1.516 . S
C242 C241 1.516 . S
C242 C243 1.502 . S
C242 C244 1.561 . S
C242 C245 1.526 . S
C243 H227 0.959 . S
C243 H228 0.959 . S
C243 H229 0.961 . S
C243 C242 1.502 . S
C244 H230 0.960 . S
C244 H231 0.961 . S
C244 H232 0.959 . S
C244 C242 1.561 . S
C245 C242 1.526 . S
C245 C246 1.396 . S
C245 C250 1.390 . S
C246 C240 1.465 . S
C246 C245 1.396 . S
C246 C247 1.399 . S
C247 H233 0.929 . S
C247 C246 1.399 . S
C247 C248 1.385 . S
C248 H234 0.931 . S
C248 C247 1.385 . S
C248 C249 1.389 . S
C249 C248 1.389 . S
C249 C250 1.387 . S
C250 H235 0.930 . S
C250 C245 1.390 . S
C250 C249 1.387 . S
H251 C263 0.930 . S
H252 C265 0.930 . S
H253 C266 0.930 . S
H254 C270 0.959 . S
H255 C270 0.959 . S
H256 C270 0.961 . S
H257 C271 0.960 . S
H258 C271 0.961 . S
H259 C271 0.959 . S
H260 C274 0.929 . S
H261 C275 0.931 . S
H262 C277 0.930 . S
C263 H251 0.930 . S
C263 C264 1.399 . S
C263 C268 1.399 . S
C264 C263 1.399 . S
C264 C265 1.376 . S
C265 H252 0.930 . S
C265 C264 1.376 . S
C265 C266 1.388 . S
C266 H253 0.930 . S
C266 C265 1.388 . S
C266 C267 1.390 . S
C267 C266 1.390 . S
C267 C268 1.394 . S
C267 C273 1.465 . S
C268 C263 1.399 . S
C268 C267 1.394 . S
C268 C269 1.516 . S
C269 C268 1.516 . S
C269 C270 1.502 . S
C269 C271 1.561 . S
C269 C272 1.526 . S
C270 H254 0.959 . S
C270 H255 0.959 . S
C270 H256 0.961 . S
C270 C269 1.502 . S
C271 H257 0.960 . S
C271 H258 0.961 . S
C271 H259 0.959 . S
C271 C269 1.561 . S
C272 C269 1.526 . S
C272 C273 1.396 . S
C272 C277 1.390 . S
C273 C267 1.465 . S
C273 C272 1.396 . S
C273 C274 1.399 . S
C274 H260 0.929 . S
C274 C273 1.399 . S
C274 C275 1.385 . S
C275 H261 0.931 . S
C275 C274 1.385 . S
C275 C276 1.389 . S
C276 C275 1.389 . S
C276 C277 1.387 . S
C277 H262 0.930 . S
C277 C272 1.390 . S
C277 C276 1.387 . S
H278 C290 0.930 . S
H279 C292 0.930 . S
H280 C293 0.930 . S
H281 C297 0.959 . S
H282 C297 0.959 . S
H283 C297 0.961 . S
H284 C298 0.960 . S
H285 C298 0.961 . S
H286 C298 0.959 . S
H287 C301 0.929 . S
H288 C302 0.931 . S
H289 C304 0.930 . S
C290 H278 0.930 . S
C290 C291 1.399 . S
C290 C295 1.399 . S
C291 C290 1.399 . S
C291 C292 1.376 . S
C292 H279 0.930 . S
C292 C291 1.376 . S
C292 C293 1.388 . S
C293 H280 0.930 . S
C293 C292 1.388 . S
C293 C294 1.390 . S
C294 C293 1.390 . S
C294 C295 1.394 . S
C294 C300 1.465 . S
C295 C290 1.399 . S
C295 C294 1.394 . S
C295 C296 1.516 . S
C296 C295 1.516 . S
C296 C297 1.502 . S
C296 C298 1.561 . S
C296 C299 1.526 . S
C297 H281 0.959 . S
C297 H282 0.959 . S
C297 H283 0.961 . S
C297 C296 1.502 . S
C298 H284 0.960 . S
C298 H285 0.961 . S
C298 H286 0.959 . S
C298 C296 1.561 . S
C299 C296 1.526 . S
C299 C300 1.396 . S
C299 C304 1.390 . S
C300 C294 1.465 . S
C300 C299 1.396 . S
C300 C301 1.399 . S
C301 H287 0.929 . S
C301 C300 1.399 . S
C301 C302 1.385 . S
C302 H288 0.931 . S
C302 C301 1.385 . S
C302 C303 1.389 . S
C303 C302 1.389 . S
C303 C304 1.387 . S
C304 H289 0.930 . S
C304 C299 1.390 . S
C304 C303 1.387 . S
H305 C317 0.930 . S
H306 C319 0.930 . S
H307 C320 0.930 . S
H308 C324 0.959 . S
H309 C324 0.959 . S
H310 C324 0.961 . S
H311 C325 0.960 . S
H312 C325 0.961 . S
H313 C325 0.959 . S
H314 C328 0.929 . S
H315 C329 0.931 . S
H316 C331 0.930 . S
C317 H305 0.930 . S
C317 C318 1.399 . S
C317 C322 1.399 . S
C318 C317 1.399 . S
C318 C319 1.376 . S
C319 H306 0.930 . S
C319 C318 1.376 . S
C319 C320 1.388 . S
C320 H307 0.930 . S
C320 C319 1.388 . S
C320 C321 1.390 . S
C321 C320 1.390 . S
C321 C322 1.394 . S
C321 C327 1.465 . S
C322 C317 1.399 . S
C322 C321 1.394 . S
C322 C323 1.516 . S
C323 C322 1.516 . S
C323 C324 1.502 . S
C323 C325 1.561 . S
C323 C326 1.526 . S
C324 H308 0.959 . S
C324 H309 0.959 . S
C324 H310 0.961 . S
C324 C323 1.502 . S
C325 H311 0.960 . S
C325 H312 0.961 . S
C325 H313 0.959 . S
C325 C323 1.561 . S
C326 C323 1.526 . S
C326 C327 1.396 . S
C326 C331 1.390 . S
C327 C321 1.465 . S
C327 C326 1.396 . S
C327 C328 1.399 . S
C328 H314 0.929 . S
C328 C327 1.399 . S
C328 C329 1.385 . S
C329 H315 0.931 . S
C329 C328 1.385 . S
C329 C330 1.389 . S
C330 C329 1.389 . S
C330 C331 1.387 . S
C331 H316 0.930 . S
C331 C326 1.390 . S
C331 C330 1.387 . S
H332 C344 0.930 . S
H333 C346 0.930 . S
H334 C347 0.930 . S
H335 C351 0.959 . S
H336 C351 0.959 . S
H337 C351 0.961 . S
H338 C352 0.960 . S
H339 C352 0.961 . S
H340 C352 0.959 . S
H341 C355 0.929 . S
H342 C356 0.931 . S
H343 C358 0.930 . S
C344 H332 0.930 . S
C344 C345 1.399 . S
C344 C349 1.399 . S
C345 C344 1.399 . S
C345 C346 1.376 . S
C346 H333 0.930 . S
C346 C345 1.376 . S
C346 C347 1.388 . S
C347 H334 0.930 . S
C347 C346 1.388 . S
C347 C348 1.390 . S
C348 C347 1.390 . S
C348 C349 1.394 . S
C348 C354 1.465 . S
C349 C344 1.399 . S
C349 C348 1.394 . S
C349 C350 1.516 . S
C350 C349 1.516 . S
C350 C351 1.502 . S
C350 C352 1.561 . S
C350 C353 1.526 . S
C351 H335 0.959 . S
C351 H336 0.959 . S
C351 H337 0.961 . S
C351 C350 1.502 . S
C352 H338 0.960 . S
C352 H339 0.961 . S
C352 H340 0.959 . S
C352 C350 1.561 . S
C353 C350 1.526 . S
C353 C354 1.396 . S
C353 C358 1.390 . S
C354 C348 1.465 . S
C354 C353 1.396 . S
C354 C355 1.399 . S
C355 H341 0.929 . S
C355 C354 1.399 . S
C355 C356 1.385 . S
C356 H342 0.931 . S
C356 C355 1.385 . S
C356 C357 1.389 . S
C357 C356 1.389 . S
C357 C358 1.387 . S
C358 H343 0.930 . S
C358 C353 1.390 . S
C358 C357 1.387 . S
H359 C371 0.930 . S
H360 C373 0.930 . S
H361 C374 0.930 . S
H362 C378 0.959 . S
H363 C378 0.959 . S
H364 C378 0.961 . S
H365 C379 0.960 . S
H366 C379 0.961 . S
H367 C379 0.959 . S
H368 C382 0.929 . S
H369 C383 0.931 . S
H370 C385 0.930 . S
C371 H359 0.930 . S
C371 C372 1.399 . S
C371 C376 1.399 . S
C372 C371 1.399 . S
C372 C373 1.376 . S
C373 H360 0.930 . S
C373 C372 1.376 . S
C373 C374 1.388 . S
C374 H361 0.930 . S
C374 C373 1.388 . S
C374 C375 1.390 . S
C375 C374 1.390 . S
C375 C376 1.394 . S
C375 C381 1.465 . S
C376 C371 1.399 . S
C376 C375 1.394 . S
C376 C377 1.516 . S
C377 C376 1.516 . S
C377 C378 1.502 . S
C377 C379 1.561 . S
C377 C380 1.526 . S
C378 H362 0.959 . S
C378 H363 0.959 . S
C378 H364 0.961 . S
C378 C377 1.502 . S
C379 H365 0.960 . S
C379 H366 0.961 . S
C379 H367 0.959 . S
C379 C377 1.561 . S
C380 C377 1.526 . S
C380 C381 1.396 . S
C380 C385 1.390 . S
C381 C375 1.465 . S
C381 C380 1.396 . S
C381 C382 1.399 . S
C382 H368 0.929 . S
C382 C381 1.399 . S
C382 C383 1.385 . S
C383 H369 0.931 . S
C383 C382 1.385 . S
C383 C384 1.389 . S
C384 C383 1.389 . S
C384 C385 1.387 . S
C385 H370 0.930 . S
C385 C380 1.390 . S
C385 C384 1.387 . S
H386 C398 0.930 . S
H387 C400 0.930 . S
H388 C401 0.930 . S
H389 C405 0.959 . S
H390 C405 0.959 . S
H391 C405 0.961 . S
H392 C406 0.960 . S
H393 C406 0.961 . S
H394 C406 0.959 . S
H395 C409 0.929 . S
H396 C410 0.931 . S
H397 C412 0.930 . S
C398 H386 0.930 . S
C398 C399 1.399 . S
C398 C403 1.399 . S
C399 C398 1.399 . S
C399 C400 1.376 . S
C400 H387 0.930 . S
C400 C399 1.376 . S
C400 C401 1.388 . S
C401 H388 0.930 . S
C401 C400 1.388 . S
C401 C402 1.390 . S
C402 C401 1.390 . S
C402 C403 1.394 . S
C402 C408 1.465 . S
C403 C398 1.399 . S
C403 C402 1.394 . S
C403 C404 1.516 . S
C404 C403 1.516 . S
C404 C405 1.502 . S
C404 C406 1.561 . S
C404 C407 1.526 . S
C405 H389 0.959 . S
C405 H390 0.959 . S
C405 H391 0.961 . S
C405 C404 1.502 . S
C406 H392 0.960 . S
C406 H393 0.961 . S
C406 H394 0.959 . S
C406 C404 1.561 . S
C407 C404 1.526 . S
C407 C408 1.396 . S
C407 C412 1.390 . S
C408 C402 1.465 . S
C408 C407 1.396 . S
C408 C409 1.399 . S
C409 H395 0.929 . S
C409 C408 1.399 . S
C409 C410 1.385 . S
C410 H396 0.931 . S
C410 C409 1.385 . S
C410 C411 1.389 . S
C411 C410 1.389 . S
C411 C412 1.387 . S
C412 H397 0.930 . S
C412 C407 1.390 . S
C412 C411 1.387 . S
H413 C425 0.930 . S
H414 C427 0.930 . S
H415 C428 0.930 . S
H416 C432 0.959 . S
H417 C432 0.959 . S
H418 C432 0.961 . S
H419 C433 0.960 . S
H420 C433 0.961 . S
H421 C433 0.959 . S
H422 C436 0.929 . S
H423 C437 0.931 . S
H424 C439 0.930 . S
C425 H413 0.930 . S
C425 C426 1.399 . S
C425 C430 1.399 . S
C426 C425 1.399 . S
C426 C427 1.376 . S
C427 H414 0.930 . S
C427 C426 1.376 . S
C427 C428 1.388 . S
C428 H415 0.930 . S
C428 C427 1.388 . S
C428 C429 1.390 . S
C429 C428 1.390 . S
C429 C430 1.394 . S
C429 C435 1.465 . S
C430 C425 1.399 . S
C430 C429 1.394 . S
C430 C431 1.516 . S
C431 C430 1.516 . S
C431 C432 1.502 . S
C431 C433 1.561 . S
C431 C434 1.526 . S
C432 H416 0.959 . S
C432 H417 0.959 . S
C432 H418 0.961 . S
C432 C431 1.502 . S
C433 H419 0.960 . S
C433 H420 0.961 . S
C433 H421 0.959 . S
C433 C431 1.561 . S
C434 C431 1.526 . S
C434 C435 1.396 . S
C434 C439 1.390 . S
C435 C429 1.465 . S
C435 C434 1.396 . S
C435 C436 1.399 . S
C436 H422 0.929 . S
C436 C435 1.399 . S
C436 C437 1.385 . S
C437 H423 0.931 . S
C437 C436 1.385 . S
C437 C438 1.389 . S
C438 C437 1.389 . S
C438 C439 1.387 . S
C439 H424 0.930 . S
C439 C434 1.390 . S
C439 C438 1.387 . S
H440 C452 0.930 . S
H441 C454 0.930 . S
H442 C455 0.930 . S
H443 C459 0.959 . S
H444 C459 0.959 . S
H445 C459 0.961 . S
H446 C460 0.960 . S
H447 C460 0.961 . S
H448 C460 0.959 . S
H449 C463 0.929 . S
H450 C464 0.931 . S
H451 C466 0.930 . S
C452 H440 0.930 . S
C452 C453 1.399 . S
C452 C457 1.399 . S
C453 C452 1.399 . S
C453 C454 1.376 . S
C454 H441 0.930 . S
C454 C453 1.376 . S
C454 C455 1.388 . S
C455 H442 0.930 . S
C455 C454 1.388 . S
C455 C456 1.390 . S
C456 C455 1.390 . S
C456 C457 1.394 . S
C456 C462 1.465 . S
C457 C452 1.399 . S
C457 C456 1.394 . S
C457 C458 1.516 . S
C458 C457 1.516 . S
C458 C459 1.502 . S
C458 C460 1.561 . S
C458 C461 1.526 . S
C459 H443 0.959 . S
C459 H444 0.959 . S
C459 H445 0.961 . S
C459 C458 1.502 . S
C460 H446 0.960 . S
C460 H447 0.961 . S
C460 H448 0.959 . S
C460 C458 1.561 . S
C461 C458 1.526 . S
C461 C462 1.396 . S
C461 C466 1.390 . S
C462 C456 1.465 . S
C462 C461 1.396 . S
C462 C463 1.399 . S
C463 H449 0.929 . S
C463 C462 1.399 . S
C463 C464 1.385 . S
C464 H450 0.931 . S
C464 C463 1.385 . S
C464 C465 1.389 . S
C465 C464 1.389 . S
C465 C466 1.387 . S
C466 H451 0.930 . S
C466 C461 1.390 . S
C466 C465 1.387 . S
H467 C479 0.930 . S
H468 C481 0.930 . S
H469 C482 0.930 . S
H470 C486 0.959 . S
H471 C486 0.959 . S
H472 C486 0.961 . S
H473 C487 0.960 . S
H474 C487 0.961 . S
H475 C487 0.959 . S
H476 C490 0.929 . S
H477 C491 0.931 . S
H478 C493 0.930 . S
C479 H467 0.930 . S
C479 C480 1.399 . S
C479 C484 1.399 . S
C480 C479 1.399 . S
C480 C481 1.376 . S
C481 H468 0.930 . S
C481 C480 1.376 . S
C481 C482 1.388 . S
C482 H469 0.930 . S
C482 C481 1.388 . S
C482 C483 1.390 . S
C483 C482 1.390 . S
C483 C484 1.394 . S
C483 C489 1.465 . S
C484 C479 1.399 . S
C484 C483 1.394 . S
C484 C485 1.516 . S
C485 C484 1.516 . S
C485 C486 1.502 . S
C485 C487 1.561 . S
C485 C488 1.526 . S
C486 H470 0.959 . S
C486 H471 0.959 . S
C486 H472 0.961 . S
C486 C485 1.502 . S
C487 H473 0.960 . S
C487 H474 0.961 . S
C487 H475 0.959 . S
C487 C485 1.561 . S
C488 C485 1.526 . S
C488 C489 1.396 . S
C488 C493 1.390 . S
C489 C483 1.465 . S
C489 C488 1.396 . S
C489 C490 1.399 . S
C490 H476 0.929 . S
C490 C489 1.399 . S
C490 C491 1.385 . S
C491 H477 0.931 . S
C491 C490 1.385 . S
C491 C492 1.389 . S
C492 C491 1.389 . S
C492 C493 1.387 . S
C493 H478 0.930 . S
C493 C488 1.390 . S
C493 C492 1.387 . S
H494 C506 0.930 . S
H495 C508 0.930 . S
H496 C509 0.930 . S
H497 C513 0.959 . S
H498 C513 0.959 . S
H499 C513 0.961 . S
H500 C514 0.960 . S
H501 C514 0.961 . S
H502 C514 0.959 . S
H503 C517 0.929 . S
H504 C518 0.931 . S
H505 C520 0.930 . S
C506 H494 0.930 . S
C506 C507 1.399 . S
C506 C511 1.399 . S
C507 C506 1.399 . S
C507 C508 1.376 . S
C508 H495 0.930 . S
C508 C507 1.376 . S
C508 C509 1.388 . S
C509 H496 0.930 . S
C509 C508 1.388 . S
C509 C510 1.390 . S
C510 C509 1.390 . S
C510 C511 1.394 . S
C510 C516 1.465 . S
C511 C506 1.399 . S
C511 C510 1.394 . S
C511 C512 1.516 . S
C512 C511 1.516 . S
C512 C513 1.502 . S
C512 C514 1.561 . S
C512 C515 1.526 . S
C513 H497 0.959 . S
C513 H498 0.959 . S
C513 H499 0.961 . S
C513 C512 1.502 . S
C514 H500 0.960 . S
C514 H501 0.961 . S
C514 H502 0.959 . S
C514 C512 1.561 . S
C515 C512 1.526 . S
C515 C516 1.396 . S
C515 C520 1.390 . S
C516 C510 1.465 . S
C516 C515 1.396 . S
C516 C517 1.399 . S
C517 H503 0.929 . S
C517 C516 1.399 . S
C517 C518 1.385 . S
C518 H504 0.931 . S
C518 C517 1.385 . S
C518 C519 1.389 . S
C519 C518 1.389 . S
C519 C520 1.387 . S
C520 H505 0.930 . S
C520 C515 1.390 . S
C520 C519 1.387 . S
H521 C533 0.930 . S
H522 C535 0.930 . S
H523 C536 0.930 . S
H524 C540 0.959 . S
H525 C540 0.959 . S
H526 C540 0.961 . S
H527 C541 0.960 . S
H528 C541 0.961 1_556 S
H529 C541 0.959 1_556 S
H530 C544 0.929 . S
H531 C545 0.931 . S
H532 C547 0.930 . S
C533 H521 0.930 . S
C533 C534 1.399 . S
C533 C538 1.399 . S
C534 C533 1.399 . S
C534 C535 1.376 . S
C535 H522 0.930 . S
C535 C534 1.376 . S
C535 C536 1.388 . S
C536 H523 0.930 . S
C536 C535 1.388 . S
C536 C537 1.390 . S
C537 C536 1.390 . S
C537 C538 1.394 . S
C537 C543 1.465 1_554 S
C538 C533 1.399 . S
C538 C537 1.394 . S
C538 C539 1.516 . S
C539 C538 1.516 . S
C539 C540 1.502 . S
C539 C541 1.561 . S
C539 C542 1.526 1_554 S
C540 H524 0.959 . S
C540 H525 0.959 . S
C540 H526 0.961 . S
C540 C539 1.502 . S
C541 H527 0.960 . S
C541 H528 0.961 1_554 S
C541 H529 0.959 1_554 S
C541 C539 1.561 . S
C542 C539 1.526 1_556 S
C542 C543 1.396 . S
C542 C547 1.390 . S
C543 C537 1.465 1_556 S
C543 C542 1.396 . S
C543 C544 1.399 . S
C544 H530 0.929 . S
C544 C543 1.399 . S
C544 C545 1.385 . S
C545 H531 0.931 . S
C545 C544 1.385 . S
C545 C546 1.389 . S
C546 C545 1.389 . S
C546 C547 1.387 . S
C547 H532 0.930 . S
C547 C542 1.390 . S
C547 C546 1.387 . S
H548 C560 0.930 . S
H549 C562 0.930 . S
H550 C563 0.930 . S
H551 C567 0.959 . S
H552 C567 0.959 . S
H553 C567 0.961 . S
H554 C568 0.960 . S
H555 C568 0.954 1_556 S
H556 C568 0.959 . S
H557 C571 0.929 . S
H558 C572 0.931 . S
H559 C574 0.930 . S
C560 H548 0.930 . S
C560 C561 1.399 . S
C560 C565 1.399 . S
C561 C560 1.399 . S
C561 C562 1.376 . S
C562 H549 0.930 . S
C562 C561 1.376 . S
C562 C563 1.388 . S
C563 H550 0.930 . S
C563 C562 1.388 . S
C563 C564 1.390 . S
C564 C563 1.390 . S
C564 C565 1.394 . S
C564 C570 1.465 1_554 S
C565 C560 1.399 . S
C565 C564 1.394 . S
C565 C566 1.516 . S
C566 C565 1.516 . S
C566 C567 1.502 . S
C566 C568 1.561 . S
C566 C569 1.526 1_554 S
C567 H551 0.959 . S
C567 H552 0.959 . S
C567 H553 0.961 . S
C567 C566 1.502 . S
C568 H554 0.960 . S
C568 H555 0.954 1_554 S
C568 H556 0.959 . S
C568 C566 1.561 . S
C569 C566 1.526 1_556 S
C569 C570 1.396 . S
C569 C574 1.390 . S
C570 C564 1.465 1_556 S
C570 C569 1.396 . S
C570 C571 1.399 . S
C571 H557 0.929 . S
C571 C570 1.399 . S
C571 C572 1.385 . S
C572 H558 0.931 . S
C572 C571 1.385 . S
C572 C573 1.389 . S
C573 C572 1.389 . S
C573 C574 1.387 . S
C574 H559 0.930 . S
C574 C569 1.390 . S
C574 C573 1.387 . S
H575 C587 0.930 . S
H576 C589 0.930 . S
H577 C590 0.930 . S
H578 C594 0.959 . S
H579 C594 0.959 . S
H580 C594 0.961 . S
H581 C595 0.960 . S
H582 C595 0.961 . S
H583 C595 0.959 . S
H584 C598 0.929 . S
H585 C599 0.931 . S
H586 C601 0.930 . S
C587 H575 0.930 . S
C587 C588 1.399 . S
C587 C592 1.399 . S
C588 C587 1.399 . S
C588 C589 1.376 . S
C589 H576 0.930 . S
C589 C588 1.376 . S
C589 C590 1.388 . S
C590 H577 0.930 . S
C590 C589 1.388 . S
C590 C591 1.390 . S
C591 C590 1.390 . S
C591 C592 1.394 . S
C591 C597 1.465 . S
C592 C587 1.399 . S
C592 C591 1.394 . S
C592 C593 1.516 . S
C593 C592 1.516 . S
C593 C594 1.502 . S
C593 C595 1.561 . S
C593 C596 1.526 . S
C594 H578 0.959 . S
C594 H579 0.959 . S
C594 H580 0.961 . S
C594 C593 1.502 . S
C595 H581 0.960 . S
C595 H582 0.961 . S
C595 H583 0.959 . S
C595 C593 1.561 . S
C596 C593 1.526 . S
C596 C597 1.396 . S
C596 C601 1.390 . S
C597 C591 1.465 . S
C597 C596 1.396 . S
C597 C598 1.399 . S
C598 H584 0.929 . S
C598 C597 1.399 . S
C598 C599 1.385 . S
C599 H585 0.931 . S
C599 C598 1.385 . S
C599 C600 1.389 . S
C600 C599 1.389 . S
C600 C601 1.387 . S
C601 H586 0.930 . S
C601 C596 1.390 . S
C601 C600 1.387 . S
H602 C614 0.930 . S
H603 C616 0.930 . S
H604 C617 0.930 . S
H605 C621 0.959 . S
H606 C621 0.959 . S
H607 C621 0.961 . S
H608 C622 0.960 . S
H609 C622 0.961 . S
H610 C622 0.959 . S
H611 C625 0.929 . S
H612 C626 0.931 . S
H613 C628 0.930 . S
C614 H602 0.930 . S
C614 C615 1.399 . S
C614 C619 1.399 . S
C615 C614 1.399 . S
C615 C616 1.376 . S
C616 H603 0.930 . S
C616 C615 1.376 . S
C616 C617 1.388 . S
C617 H604 0.930 . S
C617 C616 1.388 . S
C617 C618 1.390 . S
C618 C617 1.390 . S
C618 C619 1.394 . S
C618 C624 1.465 . S
C619 C614 1.399 . S
C619 C618 1.394 . S
C619 C620 1.516 . S
C620 C619 1.516 . S
C620 C621 1.502 . S
C620 C622 1.561 . S
C620 C623 1.526 . S
C621 H605 0.959 . S
C621 H606 0.959 . S
C621 H607 0.961 . S
C621 C620 1.502 . S
C622 H608 0.960 . S
C622 H609 0.961 . S
C622 H610 0.959 . S
C622 C620 1.561 . S
C623 C620 1.526 . S
C623 C624 1.396 . S
C623 C628 1.390 . S
C624 C618 1.465 . S
C624 C623 1.396 . S
C624 C625 1.399 . S
C625 H611 0.929 . S
C625 C624 1.399 . S
C625 C626 1.385 . S
C626 H612 0.931 . S
C626 C625 1.385 . S
C626 C627 1.389 . S
C627 C626 1.389 . S
C627 C628 1.387 . S
C628 H613 0.930 . S
C628 C623 1.390 . S
C628 C627 1.387 . S
H629 C641 0.930 . S
H630 C643 0.930 . S
H631 C644 0.930 . S
H632 C648 0.959 . S
H633 C648 0.959 . S
H634 C648 0.961 . S
H635 C649 0.960 . S
H636 C649 0.961 . S
H637 C649 0.959 . S
H638 C652 0.929 . S
H639 C653 0.931 . S
H640 C655 0.930 . S
C641 H629 0.930 . S
C641 C642 1.399 . S
C641 C646 1.399 . S
C642 C641 1.399 . S
C642 C643 1.376 . S
C643 H630 0.930 . S
C643 C642 1.376 . S
C643 C644 1.388 . S
C644 H631 0.930 . S
C644 C643 1.388 . S
C644 C645 1.390 . S
C645 C644 1.390 . S
C645 C646 1.394 . S
C645 C651 1.465 . S
C646 C641 1.399 . S
C646 C645 1.394 . S
C646 C647 1.516 . S
C647 C646 1.516 . S
C647 C648 1.502 . S
C647 C649 1.561 . S
C647 C650 1.526 . S
C648 H632 0.959 . S
C648 H633 0.959 . S
C648 H634 0.961 . S
C648 C647 1.502 . S
C649 H635 0.960 . S
C649 H636 0.961 . S
C649 H637 0.959 . S
C649 C647 1.561 . S
C650 C647 1.526 . S
C650 C651 1.396 . S
C650 C655 1.390 . S
C651 C645 1.465 . S
C651 C650 1.396 . S
C651 C652 1.399 . S
C652 H638 0.929 . S
C652 C651 1.399 . S
C652 C653 1.385 . S
C653 H639 0.931 . S
C653 C652 1.385 . S
C653 C654 1.389 . S
C654 C653 1.389 . S
C654 C655 1.387 . S
C655 H640 0.930 . S
C655 C650 1.390 . S
C655 C654 1.387 . S
H656 C668 0.930 . S
H657 C670 0.930 1_565 S
H658 C671 0.930 . S
H659 C675 0.959 . S
H660 C675 0.959 . S
H661 C675 0.961 . S
H662 C676 0.960 . S
H663 C676 0.961 . S
H664 C676 0.959 . S
H665 C679 0.929 1_455 S
H666 C680 0.931 . S
H667 C682 0.930 1_545 S
C668 H656 0.930 . S
C668 C669 1.399 . S
C668 C673 1.399 . S
C669 C668 1.399 . S
C669 C670 1.376 . S
C670 H657 0.930 1_545 S
C670 C669 1.376 . S
C670 C671 1.388 1_545 S
C671 H658 0.930 . S
C671 C670 1.388 1_565 S
C671 C672 1.390 . S
C672 C671 1.390 . S
C672 C673 1.394 1_565 S
C672 C678 1.465 1_455 S
C673 C668 1.399 . S
C673 C672 1.394 1_545 S
C673 C674 1.516 1_455 S
C674 C673 1.516 1_655 S
C674 C675 1.502 . S
C674 C676 1.561 . S
C674 C677 1.526 1_545 S
C675 H659 0.959 . S
C675 H660 0.959 . S
C675 H661 0.961 . S
C675 C674 1.502 . S
C676 H662 0.960 . S
C676 H663 0.961 . S
C676 H664 0.959 . S
C676 C674 1.561 . S
C677 C674 1.526 1_565 S
C677 C678 1.396 . S
C677 C682 1.390 . S
C678 C672 1.465 1_655 S
C678 C677 1.396 . S
C678 C679 1.399 . S
C679 H665 0.929 1_655 S
C679 C678 1.399 . S
C679 C680 1.385 . S
C680 H666 0.931 . S
C680 C679 1.385 . S
C680 C681 1.389 . S
C681 C680 1.389 . S
C681 C682 1.387 . S
C682 H667 0.930 1_565 S
C682 C677 1.390 . S
C682 C681 1.387 . S
H683 C695 0.930 . S
H684 C697 0.930 . S
H685 C698 0.930 . S
H686 C702 0.959 . S
H687 C702 0.959 . S
H688 C702 0.961 . S
H689 C703 0.960 . S
H690 C703 0.961 1_655 S
H691 C703 0.959 . S
H692 C706 0.929 . S
H693 C707 0.931 . S
H694 C709 0.930 . S
C695 H683 0.930 . S
C695 C696 1.399 . S
C695 C700 1.399 . S
C696 C695 1.399 . S
C696 C697 1.376 . S
C697 H684 0.930 . S
C697 C696 1.376 . S
C697 C698 1.388 . S
C698 H685 0.930 . S
C698 C697 1.388 . S
C698 C699 1.390 . S
C699 C698 1.390 . S
C699 C700 1.394 . S
C699 C705 1.465 . S
C700 C695 1.399 . S
C700 C699 1.394 . S
C700 C701 1.516 1_455 S
C701 C700 1.516 1_655 S
C701 C702 1.502 . S
C701 C703 1.561 1_655 S
C701 C704 1.526 . S
C702 H686 0.959 . S
C702 H687 0.959 . S
C702 H688 0.961 . S
C702 C701 1.502 . S
C703 H689 0.960 . S
C703 H690 0.961 1_455 S
C703 H691 0.959 . S
C703 C701 1.561 1_455 S
C704 C701 1.526 . S
C704 C705 1.396 1_655 S
C704 C709 1.390 . S
C705 C699 1.465 . S
C705 C704 1.396 1_455 S
C705 C706 1.399 . S
C706 H692 0.929 . S
C706 C705 1.399 . S
C706 C707 1.385 1_455 S
C707 H693 0.931 . S
C707 C706 1.385 1_655 S
C707 C708 1.389 . S
C708 C707 1.389 . S
C708 C709 1.387 . S
C709 H694 0.930 . S
C709 C704 1.390 . S
C709 C708 1.387 . S
H710 C722 0.930 . S
H711 C724 0.930 . S
H712 C725 0.930 . S
H713 C729 0.959 . S
H714 C729 0.959 . S
H715 C729 0.961 . S
H716 C730 0.960 . S
H717 C730 0.961 . S
H718 C730 0.959 . S
H719 C733 0.929 . S
H720 C734 0.931 . S
H721 C736 0.930 . S
C722 H710 0.930 . S
C722 C723 1.399 . S
C722 C727 1.399 . S
C723 C722 1.399 . S
C723 C724 1.376 . S
C724 H711 0.930 . S
C724 C723 1.376 . S
C724 C725 1.388 . S
C725 H712 0.930 . S
C725 C724 1.388 . S
C725 C726 1.390 . S
C726 C725 1.390 . S
C726 C727 1.394 . S
C726 C732 1.465 . S
C727 C722 1.399 . S
C727 C726 1.394 . S
C727 C728 1.516 . S
C728 C727 1.516 . S
C728 C729 1.502 . S
C728 C730 1.561 . S
C728 C731 1.526 . S
C729 H713 0.959 . S
C729 H714 0.959 . S
C729 H715 0.961 . S
C729 C728 1.502 . S
C730 H716 0.960 . S
C730 H717 0.961 . S
C730 H718 0.959 . S
C730 C728 1.561 . S
C731 C728 1.526 . S
C731 C732 1.396 . S
C731 C736 1.390 . S
C732 C726 1.465 . S
C732 C731 1.396 . S
C732 C733 1.399 . S
C733 H719 0.929 . S
C733 C732 1.399 . S
C733 C734 1.385 . S
C734 H720 0.931 . S
C734 C733 1.385 . S
C734 C735 1.389 . S
C735 C734 1.389 . S
C735 C736 1.387 . S
C736 H721 0.930 . S
C736 C731 1.390 . S
C736 C735 1.387 . S
H737 C749 0.930 . S
H738 C751 0.930 . S
H739 C752 0.930 . S
H740 C756 0.959 . S
H741 C756 0.959 . S
H742 C756 0.961 . S
H743 C757 0.946 1_545 S
H744 C757 0.979 . S
H745 C757 0.950 1_545 S
H746 C760 0.929 . S
H747 C761 0.931 . S
H748 C763 0.930 . S
C749 H737 0.930 . S
C749 C750 1.399 . S
C749 C754 1.399 . S
C750 C749 1.399 . S
C750 C751 1.376 . S
C751 H738 0.930 . S
C751 C750 1.376 . S
C751 C752 1.388 . S
C752 H739 0.930 . S
C752 C751 1.388 . S
C752 C753 1.390 . S
C753 C752 1.390 . S
C753 C754 1.394 . S
C753 C759 1.465 1_545 S
C754 C749 1.399 . S
C754 C753 1.394 . S
C754 C755 1.516 1_545 S
C755 C754 1.516 1_565 S
C755 C756 1.502 . S
C755 C757 1.566 . S
C755 C758 1.526 . S
C756 H740 0.959 . S
C756 H741 0.959 . S
C756 H742 0.961 . S
C756 C755 1.502 . S
C757 H743 0.946 1_565 S
C757 H744 0.979 . S
C757 H745 0.950 1_565 S
C757 C755 1.566 . S
C758 C755 1.526 . S
C758 C759 1.396 . S
C758 C763 1.390 . S
C759 C753 1.465 1_565 S
C759 C758 1.396 . S
C759 C760 1.399 . S
C760 H746 0.929 . S
C760 C759 1.399 . S
C760 C761 1.385 . S
C761 H747 0.931 . S
C761 C760 1.385 . S
C761 C762 1.389 . S
C762 C761 1.389 . S
C762 C763 1.387 . S
C763 H748 0.930 . S
C763 C758 1.390 . S
C763 C762 1.387 . S
H764 C776 0.930 . S
H765 C778 0.930 . S
H766 C779 0.930 . S
H767 C783 0.959 . S
H768 C783 0.959 . S
H769 C783 0.961 . S
H770 C784 0.960 . S
H771 C784 0.961 1_655 S
H772 C784 0.959 . S
H773 C787 0.929 . S
H774 C788 0.931 . S
H775 C790 0.930 . S
C776 H764 0.930 . S
C776 C777 1.399 . S
C776 C781 1.399 . S
C777 C776 1.399 . S
C777 C778 1.376 . S
C778 H765 0.930 . S
C778 C777 1.376 . S
C778 C779 1.388 . S
C779 H766 0.930 . S
C779 C778 1.388 . S
C779 C780 1.390 . S
C780 C779 1.390 . S
C780 C781 1.394 . S
C780 C786 1.465 1_455 S
C781 C776 1.399 . S
C781 C780 1.394 . S
C781 C782 1.516 1_455 S
C782 C781 1.516 1_655 S
C782 C783 1.502 . S
C782 C784 1.561 1_655 S
C782 C785 1.526 . S
C783 H767 0.959 . S
C783 H768 0.959 . S
C783 H769 0.961 . S
C783 C782 1.502 . S
C784 H770 0.960 . S
C784 H771 0.961 1_455 S
C784 H772 0.959 . S
C784 C782 1.561 1_455 S
C785 C782 1.526 . S
C785 C786 1.396 . S
C785 C790 1.390 . S
C786 C780 1.465 1_655 S
C786 C785 1.396 . S
C786 C787 1.399 . S
C787 H773 0.929 . S
C787 C786 1.399 . S
C787 C788 1.385 . S
C788 H774 0.931 . S
C788 C787 1.385 . S
C788 C789 1.389 . S
C789 C788 1.389 . S
C789 C790 1.387 . S
C790 H775 0.930 . S
C790 C785 1.390 . S
C790 C789 1.387 . S
H791 C803 0.930 . S
H792 C805 0.930 . S
H793 C806 0.930 . S
H794 C810 0.959 . S
H795 C810 0.959 . S
H796 C810 0.961 . S
H797 C811 0.960 . S
H798 C811 0.961 . S
H799 C811 0.959 . S
H800 C814 0.929 . S
H801 C815 0.931 . S
H802 C817 0.930 . S
C803 H791 0.930 . S
C803 C804 1.399 . S
C803 C808 1.399 . S
C804 C803 1.399 . S
C804 C805 1.376 . S
C805 H792 0.930 . S
C805 C804 1.376 . S
C805 C806 1.388 . S
C806 H793 0.930 . S
C806 C805 1.388 . S
C806 C807 1.390 . S
C807 C806 1.390 . S
C807 C808 1.394 . S
C807 C813 1.465 . S
C808 C803 1.399 . S
C808 C807 1.394 . S
C808 C809 1.516 . S
C809 C808 1.516 . S
C809 C810 1.502 . S
C809 C811 1.561 . S
C809 C812 1.526 . S
C810 H794 0.959 . S
C810 H795 0.959 . S
C810 H796 0.961 . S
C810 C809 1.502 . S
C811 H797 0.960 . S
C811 H798 0.961 . S
C811 H799 0.959 . S
C811 C809 1.561 . S
C812 C809 1.526 . S
C812 C813 1.396 . S
C812 C817 1.390 . S
C813 C807 1.465 . S
C813 C812 1.396 . S
C813 C814 1.399 . S
C814 H800 0.929 . S
C814 C813 1.399 . S
C814 C815 1.385 . S
C815 H801 0.931 . S
C815 C814 1.385 . S
C815 C816 1.389 . S
C816 C815 1.389 . S
C816 C817 1.387 . S
C817 H802 0.930 . S
C817 C812 1.390 . S
C817 C816 1.387 . S
H818 C830 0.930 . S
H819 C832 0.930 . S
H820 C833 0.930 . S
H821 C837 0.959 . S
H822 C837 0.959 . S
H823 C837 0.961 . S
H824 C838 0.960 . S
H825 C838 0.961 1_545 S
H826 C838 0.959 . S
H827 C841 0.929 1_565 S
H828 C842 0.931 . S
H829 C844 0.930 . S
C830 H818 0.930 . S
C830 C831 1.399 . S
C830 C835 1.399 . S
C831 C830 1.399 . S
C831 C832 1.376 . S
C832 H819 0.930 . S
C832 C831 1.376 . S
C832 C833 1.388 . S
C833 H820 0.930 . S
C833 C832 1.388 . S
C833 C834 1.390 . S
C834 C833 1.390 . S
C834 C835 1.394 . S
C834 C840 1.464 . S
C835 C830 1.399 . S
C835 C834 1.394 . S
C835 C836 1.516 1_565 S
C836 C835 1.516 1_545 S
C836 C837 1.502 . S
C836 C838 1.561 1_545 S
C836 C839 1.526 . S
C837 H821 0.959 . S
C837 H822 0.959 . S
C837 H823 0.961 . S
C837 C836 1.502 . S
C838 H824 0.960 . S
C838 H825 0.961 1_565 S
C838 H826 0.959 . S
C838 C836 1.561 1_565 S
C839 C836 1.526 . S
C839 C840 1.397 1_545 S
C839 C844 1.390 . S
C840 C834 1.464 . S
C840 C839 1.397 1_565 S
C840 C841 1.399 1_565 S
C841 H827 0.929 1_545 S
C841 C840 1.399 1_545 S
C841 C842 1.385 . S
C842 H828 0.931 . S
C842 C841 1.385 . S
C842 C843 1.389 . S
C843 C842 1.389 . S
C843 C844 1.387 . S
C844 H829 0.930 . S
C844 C839 1.390 . S
C844 C843 1.387 . S
H845 C857 0.930 . S
H846 C859 0.930 . S
H847 C860 0.930 . S
H848 C864 0.959 1_565 S
H849 C864 0.959 . S
H850 C864 0.961 . S
H851 C865 0.960 . S
H852 C865 0.961 . S
H853 C865 0.959 . S
H854 C868 0.929 . S
H855 C869 0.931 . S
H856 C871 0.930 . S
C857 H845 0.930 . S
C857 C858 1.399 . S
C857 C862 1.399 . S
C858 C857 1.399 . S
C858 C859 1.376 . S
C859 H846 0.930 . S
C859 C858 1.376 . S
C859 C860 1.388 . S
C860 H847 0.930 . S
C860 C859 1.388 . S
C860 C861 1.390 . S
C861 C860 1.390 . S
C861 C862 1.394 . S
C861 C867 1.465 1_445 S
C862 C857 1.399 . S
C862 C861 1.394 . S
C862 C863 1.516 1_455 S
C863 C862 1.516 1_655 S
C863 C864 1.502 . S
C863 C865 1.561 . S
C863 C866 1.526 1_545 S
C864 H848 0.959 1_545 S
C864 H849 0.959 . S
C864 H850 0.961 . S
C864 C863 1.502 . S
C865 H851 0.960 . S
C865 H852 0.961 . S
C865 H853 0.959 . S
C865 C863 1.561 . S
C866 C863 1.526 1_565 S
C866 C867 1.396 . S
C866 C871 1.390 . S
C867 C861 1.465 1_665 S
C867 C866 1.396 . S
C867 C868 1.399 1_655 S
C868 H854 0.929 . S
C868 C867 1.399 1_455 S
C868 C869 1.385 1_455 S
C869 H855 0.931 . S
C869 C868 1.385 1_655 S
C869 C870 1.389 . S
C870 C869 1.389 . S
C870 C871 1.387 . S
C871 H856 0.930 . S
C871 C866 1.390 . S
C871 C870 1.387 . S
H872 C884 0.930 . S
H873 C886 0.930 . S
H874 C887 0.930 . S
H875 C891 0.959 . S
H876 C891 0.959 . S
H877 C891 0.961 . S
H878 C892 0.960 1_565 S
H879 C892 0.961 . S
H880 C892 0.959 . S
H881 C895 0.929 . S
H882 C896 0.931 . S
H883 C898 0.930 . S
C884 H872 0.930 . S
C884 C885 1.399 . S
C884 C889 1.399 . S
C885 C884 1.399 . S
C885 C886 1.376 . S
C886 H873 0.930 . S
C886 C885 1.376 . S
C886 C887 1.388 1_565 S
C887 H874 0.930 . S
C887 C886 1.388 1_545 S
C887 C888 1.390 . S
C888 C887 1.390 . S
C888 C889 1.394 1_545 S
C888 C894 1.465 . S
C889 C884 1.399 . S
C889 C888 1.394 1_565 S
C889 C890 1.516 . S
C890 C889 1.516 . S
C890 C891 1.502 . S
C890 C892 1.561 1_565 S
C890 C893 1.526 1_565 S
C891 H875 0.959 . S
C891 H876 0.959 . S
C891 H877 0.961 . S
C891 C890 1.502 . S
C892 H878 0.960 1_545 S
C892 H879 0.961 . S
C892 H880 0.959 . S
C892 C890 1.561 1_545 S
C893 C890 1.526 1_545 S
C893 C894 1.396 . S
C893 C898 1.390 . S
C894 C888 1.465 . S
C894 C893 1.396 . S
C894 C895 1.399 . S
C895 H881 0.929 . S
C895 C894 1.399 . S
C895 C896 1.385 . S
C896 H882 0.931 . S
C896 C895 1.385 . S
C896 C897 1.389 . S
C897 C896 1.389 . S
C897 C898 1.387 . S
C898 H883 0.930 . S
C898 C893 1.390 . S
C898 C897 1.387 . S
H899 C911 0.930 . S
H900 C913 0.930 . S
H901 C914 0.930 . S
H902 C918 0.959 . S
H903 C918 0.959 1_545 S
H904 C918 0.961 . S
H905 C919 0.960 1_565 S
H906 C919 0.961 . S
H907 C919 0.959 . S
H908 C922 0.929 1_655 S
H909 C923 0.931 . S
H910 C925 0.930 . S
C911 H899 0.930 . S
C911 C912 1.399 . S
C911 C916 1.399 . S
C912 C911 1.399 . S
C912 C913 1.376 . S
C913 H900 0.930 . S
C913 C912 1.376 . S
C913 C914 1.388 . S
C914 H901 0.930 . S
C914 C913 1.388 . S
C914 C915 1.390 . S
C915 C914 1.390 . S
C915 C916 1.394 . S
C915 C921 1.465 1_665 S
C916 C911 1.399 . S
C916 C915 1.394 . S
C916 C917 1.516 1_655 S
C917 C916 1.516 1_455 S
C917 C918 1.502 . S
C917 C919 1.561 1_465 S
C917 C920 1.526 1_565 S
C918 H902 0.959 . S
C918 H903 0.959 1_565 S
C918 H904 0.961 . S
C918 C917 1.502 . S
C919 H905 0.960 1_545 S
C919 H906 0.961 . S
C919 H907 0.959 . S
C919 C917 1.561 1_645 S
C920 C917 1.526 1_545 S
C920 C921 1.396 . S
C920 C925 1.390 . S
C921 C915 1.465 1_445 S
C921 C920 1.396 . S
C921 C922 1.399 . S
C922 H908 0.929 1_455 S
C922 C921 1.399 . S
C922 C923 1.385 . S
C923 H909 0.931 . S
C923 C922 1.385 . S
C923 C924 1.389 . S
C924 C923 1.389 . S
C924 C925 1.387 . S
C925 H910 0.930 . S
C925 C920 1.390 . S
C925 C924 1.387 . S
H926 C938 0.930 . S
H927 C940 0.930 . S
H928 C941 0.930 . S
H929 C945 0.959 . S
H930 C945 0.959 . S
H931 C945 0.961 . S
H932 C946 0.960 . S
H933 C946 0.961 1_655 S
H934 C946 0.959 . S
H935 C949 0.929 . S
H936 C950 0.931 . S
H937 C952 0.930 . S
C938 H926 0.930 . S
C938 C939 1.399 . S
C938 C943 1.399 . S
C939 C938 1.399 . S
C939 C940 1.376 . S
C940 H927 0.930 . S
C940 C939 1.376 . S
C940 C941 1.388 . S
C941 H928 0.930 . S
C941 C940 1.388 . S
C941 C942 1.390 . S
C942 C941 1.390 . S
C942 C943 1.394 . S
C942 C948 1.465 1_455 S
C943 C938 1.399 . S
C943 C942 1.394 . S
C943 C944 1.516 1_455 S
C944 C943 1.516 1_655 S
C944 C945 1.502 . S
C944 C946 1.561 1_655 S
C944 C947 1.526 . S
C945 H929 0.959 . S
C945 H930 0.959 . S
C945 H931 0.961 . S
C945 C944 1.502 . S
C946 H932 0.960 . S
C946 H933 0.961 1_455 S
C946 H934 0.959 . S
C946 C944 1.561 1_455 S
C947 C944 1.526 . S
C947 C948 1.396 . S
C947 C952 1.390 . S
C948 C942 1.465 1_655 S
C948 C947 1.396 . S
C948 C949 1.399 . S
C949 H935 0.929 . S
C949 C948 1.399 . S
C949 C950 1.385 . S
C950 H936 0.931 . S
C950 C949 1.385 . S
C950 C951 1.389 . S
C951 C950 1.389 . S
C951 C952 1.387 . S
C952 H937 0.930 . S
C952 C947 1.390 . S
C952 C951 1.387 . S
H953 C965 0.930 . S
H954 C967 0.930 . S
H955 C968 0.930 . S
H956 C972 0.959 . S
H957 C972 0.959 . S
H958 C972 0.961 . S
H959 C973 0.960 . S
H960 C973 0.961 . S
H961 C973 0.959 . S
H962 C976 0.929 . S
H963 C977 0.931 . S
H964 C979 0.930 . S
C965 H953 0.930 . S
C965 C966 1.399 . S
C965 C970 1.399 . S
C966 C965 1.399 . S
C966 C967 1.376 . S
C967 H954 0.930 . S
C967 C966 1.376 . S
C967 C968 1.388 . S
C968 H955 0.930 . S
C968 C967 1.388 . S
C968 C969 1.390 . S
C969 C968 1.390 . S
C969 C970 1.394 . S
C969 C975 1.465 . S
C970 C965 1.399 . S
C970 C969 1.394 . S
C970 C971 1.516 . S
C971 C970 1.516 . S
C971 C972 1.502 . S
C971 C973 1.561 . S
C971 C974 1.526 . S
C972 H956 0.959 . S
C972 H957 0.959 . S
C972 H958 0.961 . S
C972 C971 1.502 . S
C973 H959 0.960 . S
C973 H960 0.961 . S
C973 H961 0.959 . S
C973 C971 1.561 . S
C974 C971 1.526 . S
C974 C975 1.396 . S
C974 C979 1.390 . S
C975 C969 1.465 . S
C975 C974 1.396 . S
C975 C976 1.399 . S
C976 H962 0.929 . S
C976 C975 1.399 . S
C976 C977 1.385 . S
C977 H963 0.931 . S
C977 C976 1.385 . S
C977 C978 1.389 . S
C978 C977 1.389 . S
C978 C979 1.387 . S
C979 H964 0.930 . S
C979 C974 1.390 . S
C979 C978 1.387 . S
H980 C992 0.930 . S
H981 C994 0.930 . S
H982 C995 0.930 . S
H983 C999 0.959 . S
H984 C999 0.959 . S
H985 C999 0.961 . S
H986 C1000 0.960 . S
H987 C1000 0.961 . S
H988 C1000 0.959 . S
H989 C1003 0.929 . S
H990 C1004 0.931 . S
H991 C1006 0.930 . S
C992 H980 0.930 . S
C992 C993 1.399 . S
C992 C997 1.399 . S
C993 C992 1.399 . S
C993 C994 1.376 . S
C994 H981 0.930 . S
C994 C993 1.376 . S
C994 C995 1.388 . S
C995 H982 0.930 . S
C995 C994 1.388 . S
C995 C996 1.390 . S
C996 C995 1.390 . S
C996 C997 1.394 . S
C996 C1002 1.465 . S
C997 C992 1.399 . S
C997 C996 1.394 . S
C997 C998 1.516 . S
C998 C997 1.516 . S
C998 C999 1.502 . S
C998 C1000 1.561 . S
C998 C1001 1.526 . S
C999 H983 0.959 . S
C999 H984 0.959 . S
C999 H985 0.961 . S
C999 C998 1.502 . S
C1000 H986 0.960 . S
C1000 H987 0.961 . S
C1000 H988 0.959 . S
C1000 C998 1.561 . S
C1001 C998 1.526 . S
C1001 C1002 1.396 . S
C1001 C1006 1.390 . S
C1002 C996 1.465 . S
C1002 C1001 1.396 . S
C1002 C1003 1.399 . S
C1003 H989 0.929 . S
C1003 C1002 1.399 . S
C1003 C1004 1.385 . S
C1004 H990 0.931 . S
C1004 C1003 1.385 . S
C1004 C1005 1.389 . S
C1005 C1004 1.389 . S
C1005 C1006 1.387 . S
C1006 H991 0.930 . S
C1006 C1001 1.390 . S
C1006 C1005 1.387 . S
H1007 C1019 0.930 . S
H1008 C1021 0.930 . S
H1009 C1022 0.930 . S
H1010 C1026 0.959 1_545 S
H1011 C1026 0.959 . S
H1012 C1026 0.961 1_545 S
H1013 C1027 0.960 . S
H1014 C1027 0.961 . S
H1015 C1027 0.959 . S
H1016 C1030 0.929 . S
H1017 C1031 0.931 . S
H1018 C1033 0.930 . S
C1019 H1007 0.930 . S
C1019 C1020 1.399 . S
C1019 C1024 1.399 . S
C1020 C1019 1.399 . S
C1020 C1021 1.376 . S
C1021 H1008 0.930 . S
C1021 C1020 1.376 . S
C1021 C1022 1.388 . S
C1022 H1009 0.930 . S
C1022 C1021 1.388 . S
C1022 C1023 1.390 . S
C1023 C1022 1.390 . S
C1023 C1024 1.394 . S
C1023 C1029 1.465 1_545 S
C1024 C1019 1.399 . S
C1024 C1023 1.394 . S
C1024 C1025 1.516 1_545 S
C1025 C1024 1.516 1_565 S
C1025 C1026 1.502 . S
C1025 C1027 1.561 . S
C1025 C1028 1.526 . S
C1026 H1010 0.959 1_565 S
C1026 H1011 0.959 . S
C1026 H1012 0.961 1_565 S
C1026 C1025 1.502 . S
C1027 H1013 0.960 . S
C1027 H1014 0.961 . S
C1027 H1015 0.959 . S
C1027 C1025 1.561 . S
C1028 C1025 1.526 . S
C1028 C1029 1.396 . S
C1028 C1033 1.390 . S
C1029 C1023 1.465 1_565 S
C1029 C1028 1.396 . S
C1029 C1030 1.399 . S
C1030 H1016 0.929 . S
C1030 C1029 1.399 . S
C1030 C1031 1.385 . S
C1031 H1017 0.931 . S
C1031 C1030 1.385 . S
C1031 C1032 1.389 . S
C1032 C1031 1.389 . S
C1032 C1033 1.387 . S
C1033 H1018 0.930 . S
C1033 C1028 1.390 . S
C1033 C1032 1.387 . S
H1034 C1046 0.930 . S
H1035 C1048 0.930 . S
H1036 C1049 0.930 . S
H1037 C1053 0.959 . S
H1038 C1053 0.959 . S
H1039 C1053 0.961 . S
H1040 C1054 0.960 1_655 S
H1041 C1054 0.961 1_545 S
H1042 C1054 0.959 . S
H1043 C1057 0.929 . S
H1044 C1058 0.931 . S
H1045 C1060 0.930 . S
C1046 H1034 0.930 . S
C1046 C1047 1.399 . S
C1046 C1051 1.399 . S
C1047 C1046 1.399 . S
C1047 C1048 1.376 . S
C1048 H1035 0.930 . S
C1048 C1047 1.376 . S
C1048 C1049 1.388 . S
C1049 H1036 0.930 . S
C1049 C1048 1.388 . S
C1049 C1050 1.390 . S
C1050 C1049 1.390 . S
C1050 C1051 1.394 . S
C1050 C1056 1.465 1_655 S
C1051 C1046 1.399 . S
C1051 C1050 1.394 . S
C1051 C1052 1.516 1_565 S
C1052 C1051 1.516 1_545 S
C1052 C1053 1.502 . S
C1052 C1054 1.561 1_645 S
C1052 C1055 1.526 1_655 S
C1053 H1037 0.959 . S
C1053 H1038 0.959 . S
C1053 H1039 0.961 . S
C1053 C1052 1.502 . S
C1054 H1040 0.960 1_455 S
C1054 H1041 0.961 1_565 S
C1054 H1042 0.959 . S
C1054 C1052 1.561 1_465 S
C1055 C1052 1.526 1_455 S
C1055 C1056 1.396 1_545 S
C1055 C1060 1.390 . S
C1056 C1050 1.465 1_455 S
C1056 C1055 1.396 1_565 S
C1056 C1057 1.399 . S
C1057 H1043 0.929 . S
C1057 C1056 1.399 . S
C1057 C1058 1.385 1_565 S
C1058 H1044 0.931 . S
C1058 C1057 1.385 1_545 S
C1058 C1059 1.389 . S
C1059 C1058 1.389 . S
C1059 C1060 1.387 . S
C1060 H1045 0.930 . S
C1060 C1055 1.390 . S
C1060 C1059 1.387 . S
H1061 C1073 0.930 . S
H1062 C1075 0.930 . S
H1063 C1076 0.930 1_455 S
H1064 C1080 0.959 . S
H1065 C1080 0.959 . S
H1066 C1080 0.961 . S
H1067 C1081 0.960 . S
H1068 C1081 0.961 . S
H1069 C1081 0.959 . S
H1070 C1084 0.929 . S
H1071 C1085 0.931 . S
H1072 C1087 0.930 . S
C1073 H1061 0.930 . S
C1073 C1074 1.399 . S
C1073 C1078 1.399 . S
C1074 C1073 1.399 . S
C1074 C1075 1.376 . S
C1075 H1062 0.930 . S
C1075 C1074 1.376 . S
C1075 C1076 1.388 . S
C1076 H1063 0.930 1_655 S
C1076 C1075 1.388 . S
C1076 C1077 1.390 1_655 S
C1077 C1076 1.390 1_455 S
C1077 C1078 1.395 1_455 S
C1077 C1083 1.464 . S
C1078 C1073 1.399 . S
C1078 C1077 1.395 1_655 S
C1078 C1079 1.516 . S
C1079 C1078 1.516 . S
C1079 C1080 1.502 . S
C1079 C1081 1.561 1_655 S
C1079 C1082 1.526 1_655 S
C1080 H1064 0.959 . S
C1080 H1065 0.959 . S
C1080 H1066 0.961 . S
C1080 C1079 1.502 . S
C1081 H1067 0.960 . S
C1081 H1068 0.961 . S
C1081 H1069 0.959 . S
C1081 C1079 1.561 1_455 S
C1082 C1079 1.526 1_455 S
C1082 C1083 1.396 . S
C1082 C1087 1.390 . S
C1083 C1077 1.464 . S
C1083 C1082 1.396 . S
C1083 C1084 1.399 . S
C1084 H1070 0.929 . S
C1084 C1083 1.399 . S
C1084 C1085 1.385 . S
C1085 H1071 0.931 . S
C1085 C1084 1.385 . S
C1085 C1086 1.389 . S
C1086 C1085 1.389 . S
C1086 C1087 1.387 . S
C1087 H1072 0.930 . S
C1087 C1082 1.390 . S
C1087 C1086 1.387 . S
C237 C63 1.358 . S
C249 C7 1.365 . S
C264 C21 1.370 . S
C276 C77 1.365 . S
C291 C91 1.334 . S
C303 C35 1.344 . S
C318 C105 1.317 . S
C330 C49 1.325 . S
C345 C175 1.358 . S
C357 C119 1.365 . S
C372 C133 1.367 . S
C384 C189 1.360 . S
C399 C203 1.329 . S
C411 C147 1.322 . S
C426 C161 1.367 . S
C438 C217 1.360 . S
C453 C3 1.403 . S
C465 C213 1.410 . S
C480 C17 1.422 . S
C492 C171 1.416 . S
C507 C31 1.426 . S
C519 C185 1.421 . S
C534 C199 1.398 . S
C546 C45 1.405 . S
C561 C59 1.404 . S
C573 C129 1.412 . S
C588 C73 1.395 . S
C600 C143 1.393 . S
C615 C157 1.393 . S
C627 C87 1.393 . S
C642 C115 1.420 . S
C654 C101 1.413 . S
C669 C8 1.600 . S
C681 C148 1.626 . S
C696 C162 1.626 . S
C708 C22 1.608 . S
C723 C36 1.618 . S
C735 C120 1.600 . S
C750 C134 1.599 . S
C762 C50 1.620 . S
C777 C64 1.600 . S
C789 C204 1.617 . S
C804 C78 1.603 . S
C816 C218 1.627 . S
C831 C176 1.626 . S
C843 C92 1.609 . S
C858 C190 1.613 . S
C870 C106 1.603 . S
C885 C149 1.396 . S
C897 C9 1.372 . S
C912 C23 1.352 . S
C924 C163 1.369 . S
C939 C37 1.396 . S
C951 C121 1.375 . S
C966 C135 1.352 . S
C978 C51 1.369 . S
C993 C205 1.395 . S
C1005 C65 1.379 . S
C1020 C219 1.360 . S
C1032 C79 1.358 . S
C1047 C177 1.351 . S
C1059 C93 1.375 . S
C1074 C107 1.396 . S
C1086 C191 1.376 . S
