# Generated by pormake.
# Topology zfx, (5)-cn, num edge types: 1
# Building blocks:
#     Node 0, Type 0, BuildingBlock: BEQFEK_clean_sbu_0, # of connection points: 5
#     Node 1, Type 0, BuildingBlock: BEQFEK_clean_sbu_0, # of connection points: 5
#     Node 2, Type 0, BuildingBlock: BEQFEK_clean_sbu_0, # of connection points: 5
#     Node 3, Type 0, BuildingBlock: BEQFEK_clean_sbu_0, # of connection points: 5
#     Node 4, Type 0, BuildingBlock: BEQFEK_clean_sbu_0, # of connection points: 5
#     Node 5, Type 0, BuildingBlock: BEQFEK_clean_sbu_0, # of connection points: 5
#     Node 6, Type 0, BuildingBlock: BEQFEK_clean_sbu_0, # of connection points: 5
#     Node 7, Type 0, BuildingBlock: BEQFEK_clean_sbu_0, # of connection points: 5
#     Node 8, Type 0, BuildingBlock: BEQFEK_clean_sbu_0, # of connection points: 5
#     Node 9, Type 0, BuildingBlock: BEQFEK_clean_sbu_0, # of connection points: 5
#     Node 10, Type 0, BuildingBlock: BEQFEK_clean_sbu_0, # of connection points: 5
#     Node 11, Type 0, BuildingBlock: BEQFEK_clean_sbu_0, # of connection points: 5
#     Node 12, Type 0, BuildingBlock: BEQFEK_clean_sbu_0, # of connection points: 5
#     Node 13, Type 0, BuildingBlock: BEQFEK_clean_sbu_0, # of connection points: 5
#     Node 14, Type 0, BuildingBlock: BEQFEK_clean_sbu_0, # of connection points: 5
#     Node 15, Type 0, BuildingBlock: BEQFEK_clean_sbu_0, # of connection points: 5
#     Edge 16, Type (0, 0), BuildingBlock: EZIPEK_clean_linker_0, # of connection points: 2
#     Edge 17, Type (0, 0), BuildingBlock: EZIPEK_clean_linker_0, # of connection points: 2
#     Edge 18, Type (0, 0), BuildingBlock: EZIPEK_clean_linker_0, # of connection points: 2
#     Edge 19, Type (0, 0), BuildingBlock: EZIPEK_clean_linker_0, # of connection points: 2
#     Edge 20, Type (0, 0), BuildingBlock: EZIPEK_clean_linker_0, # of connection points: 2
#     Edge 21, Type (0, 0), BuildingBlock: EZIPEK_clean_linker_0, # of connection points: 2
#     Edge 22, Type (0, 0), BuildingBlock: EZIPEK_clean_linker_0, # of connection points: 2
#     Edge 23, Type (0, 0), BuildingBlock: EZIPEK_clean_linker_0, # of connection points: 2
#     Edge 24, Type (0, 0), BuildingBlock: EZIPEK_clean_linker_0, # of connection points: 2
#     Edge 25, Type (0, 0), BuildingBlock: EZIPEK_clean_linker_0, # of connection points: 2
#     Edge 26, Type (0, 0), BuildingBlock: EZIPEK_clean_linker_0, # of connection points: 2
#     Edge 27, Type (0, 0), BuildingBlock: EZIPEK_clean_linker_0, # of connection points: 2
#     Edge 28, Type (0, 0), BuildingBlock: EZIPEK_clean_linker_0, # of connection points: 2
#     Edge 29, Type (0, 0), BuildingBlock: EZIPEK_clean_linker_0, # of connection points: 2
#     Edge 30, Type (0, 0), BuildingBlock: EZIPEK_clean_linker_0, # of connection points: 2
#     Edge 31, Type (0, 0), BuildingBlock: EZIPEK_clean_linker_0, # of connection points: 2
#     Edge 32, Type (0, 0), BuildingBlock: EZIPEK_clean_linker_0, # of connection points: 2
#     Edge 33, Type (0, 0), BuildingBlock: EZIPEK_clean_linker_0, # of connection points: 2
#     Edge 34, Type (0, 0), BuildingBlock: EZIPEK_clean_linker_0, # of connection points: 2
#     Edge 35, Type (0, 0), BuildingBlock: EZIPEK_clean_linker_0, # of connection points: 2
#     Edge 36, Type (0, 0), BuildingBlock: EZIPEK_clean_linker_0, # of connection points: 2
#     Edge 37, Type (0, 0), BuildingBlock: EZIPEK_clean_linker_0, # of connection points: 2
#     Edge 38, Type (0, 0), BuildingBlock: EZIPEK_clean_linker_0, # of connection points: 2
#     Edge 39, Type (0, 0), BuildingBlock: EZIPEK_clean_linker_0, # of connection points: 2
#     Edge 40, Type (0, 0), BuildingBlock: EZIPEK_clean_linker_0, # of connection points: 2
#     Edge 41, Type (0, 0), BuildingBlock: EZIPEK_clean_linker_0, # of connection points: 2
#     Edge 42, Type (0, 0), BuildingBlock: EZIPEK_clean_linker_0, # of connection points: 2
#     Edge 43, Type (0, 0), BuildingBlock: EZIPEK_clean_linker_0, # of connection points: 2
#     Edge 44, Type (0, 0), BuildingBlock: EZIPEK_clean_linker_0, # of connection points: 2
#     Edge 45, Type (0, 0), BuildingBlock: EZIPEK_clean_linker_0, # of connection points: 2
#     Edge 46, Type (0, 0), BuildingBlock: EZIPEK_clean_linker_0, # of connection points: 2
#     Edge 47, Type (0, 0), BuildingBlock: EZIPEK_clean_linker_0, # of connection points: 2
#     Edge 48, Type (0, 0), BuildingBlock: EZIPEK_clean_linker_0, # of connection points: 2
#     Edge 49, Type (0, 0), BuildingBlock: EZIPEK_clean_linker_0, # of connection points: 2
#     Edge 50, Type (0, 0), BuildingBlock: EZIPEK_clean_linker_0, # of connection points: 2
#     Edge 51, Type (0, 0), BuildingBlock: EZIPEK_clean_linker_0, # of connection points: 2
#     Edge 52, Type (0, 0), BuildingBlock: EZIPEK_clean_linker_0, # of connection points: 2
#     Edge 53, Type (0, 0), BuildingBlock: EZIPEK_clean_linker_0, # of connection points: 2
#     Edge 54, Type (0, 0), BuildingBlock: EZIPEK_clean_linker_0, # of connection points: 2
#     Edge 55, Type (0, 0), BuildingBlock: EZIPEK_clean_linker_0, # of connection points: 2
# Relax obj value: 0.695
# Max RMSD: 0.171
# Mean RMSD: 0.171
data_MOF--net-zfx--node1-BEQFEK_clean_sbu_0--edge1-EZIPEK_clean_linker_0
_symmetry_space_group_name_H-M    P1
_symmetry_Int_Tables_number       1
_symmetry_cell_setting            triclinic
loop_
_symmetry_equiv_pos_as_xyz
'x, y, z'
_cell_length_a     43.670539
_cell_length_b     43.521424
_cell_length_c     18.817906
_cell_angle_alpha  89.953126
_cell_angle_beta   90.041876
_cell_angle_gamma 90.049077
loop_
_atom_site_label
_atom_site_type_symbol
_atom_site_fract_x
_atom_site_fract_y
_atom_site_fract_z
_atom_type_partial_charge
Co0 Co 0.48784 0.13724 0.45796 0.0
Co1 Co 0.54837 0.1231 0.38282 0.0
C2 C 0.54673 0.16443 0.51389 0.0
O3 O 0.51765 0.16152 0.51815 0.0
O4 O 0.56164 0.15146 0.46357 0.0
C5 C 0.4432 0.12464 0.55116 0.0
O6 O 0.46831 0.11574 0.58371 0.0
C7 C 0.60083 0.12923 0.28668 0.0
C8 C 0.61386 0.0804 0.27317 0.0
C9 C 0.6201 0.10979 0.24969 0.0
N10 N 0.58284 0.11197 0.32812 0.0
N11 N 0.59131 0.08291 0.32128 0.0
C12 C 0.59895 0.16347 0.28127 0.0
H13 H 0.57748 0.17206 0.30571 0.0
H14 H 0.60063 0.17086 0.22493 0.0
H15 H 0.61866 0.17368 0.31009 0.0
C16 C 0.46935 0.16045 0.31486 0.0
N17 N 0.48997 0.14747 0.35922 0.0
N18 N 0.5151 0.14069 0.32393 0.0
C19 C 0.51066 0.14895 0.25469 0.0
C20 C 0.48157 0.16212 0.24656 0.0
C21 C 0.43805 0.17024 0.33771 0.0
H22 H 0.42472 0.14958 0.35316 0.0
H23 H 0.4399 0.18519 0.38526 0.0
H24 H 0.42563 0.18251 0.2948 0.0
O25 O 0.49407 0.09282 0.47411 0.0
O26 O 0.53815 0.08226 0.42475 0.0
H27 H 0.54829 0.12438 0.20802 0.0
H28 H 0.52166 0.14059 0.14472 0.0
C29 C 0.53337 0.14431 0.19631 0.0
H30 H 0.54744 0.16536 0.19072 0.0
H31 H 0.58097 0.06445 0.34725 0.0
O32 O 0.44593 0.1407 0.495 0.0
C33 C 0.51517 0.07396 0.46075 0.0
Co34 Co 0.14253 0.22132 0.72614 0.0
Co35 Co 0.14598 0.27946 0.63531 0.0
C36 C 0.11764 0.28256 0.7811 0.0
O37 O 0.12314 0.25386 0.78853 0.0
O38 O 0.12436 0.29627 0.72287 0.0
C39 C 0.15875 0.1766 0.82517 0.0
O40 O 0.17722 0.19902 0.84365 0.0
C41 C 0.14477 0.33913 0.56092 0.0
C42 C 0.16276 0.32451 0.45634 0.0
C43 C 0.15142 0.34958 0.49293 0.0
N44 N 0.15073 0.30891 0.563 0.0
N45 N 0.16238 0.30058 0.5012 0.0
C46 C 0.13413 0.35741 0.6235 0.0
H47 H 0.14981 0.35335 0.66898 0.0
H48 H 0.11106 0.34934 0.63977 0.0
H49 H 0.13333 0.38234 0.61113 0.0
C50 C 0.10975 0.19677 0.59491 0.0
N51 N 0.12432 0.21905 0.63242 0.0
N52 N 0.12425 0.24456 0.59497 0.0
C53 C 0.10862 0.23951 0.53356 0.0
C54 C 0.09937 0.20882 0.53022 0.0
C55 C 0.10554 0.16462 0.62106 0.0
H56 H 0.12831 0.15354 0.6263 0.0
H57 H 0.09497 0.16507 0.67465 0.0
H58 H 0.09103 0.15096 0.58433 0.0
O59 O 0.18701 0.22963 0.72491 0.0
O60 O 0.19 0.2711 0.65901 0.0
H61 H 0.07953 0.2589 0.45224 0.0
H62 H 0.10048 0.28665 0.50426 0.0
C63 C 0.10162 0.26365 0.47919 0.0
H64 H 0.11972 0.26352 0.4379 0.0
H65 H 0.16967 0.27833 0.48942 0.0
O66 O 0.13961 0.18157 0.77538 0.0
C67 C 0.20288 0.25082 0.69719 0.0
Co68 Co 0.03252 0.87226 0.97032 0.0
Co69 Co 0.9755 0.89094 0.88842 0.0
C70 C 0.97109 0.84666 1.01463 0.0
O71 O 1.0 0.84867 0.02402 0.0
O72 O 0.95798 0.86149 0.96408 0.0
C73 C 0.09368 0.88234 1.00123 0.0
O74 O 0.09012 0.9057 0.95785 0.0
C75 C 0.92472 0.89534 0.78455 0.0
C76 C 0.9203 0.9458 0.77504 0.0
C77 C 0.90978 0.91846 0.74738 0.0
N78 N 0.94392 0.9084 0.83097 0.0
N79 N 0.94036 0.93859 0.82652 0.0
C80 C 0.92197 0.86142 0.77316 0.0
H81 H 0.94004 0.84892 0.80297 0.0
H82 H 0.92327 0.85585 0.71574 0.0
H83 H 0.89917 0.85372 0.79217 0.0
C84 C 0.05251 0.84769 0.82846 0.0
N85 N 0.03232 0.86279 0.87044 0.0
N86 N 0.00852 0.87142 0.83233 0.0
C87 C 0.01368 0.86264 0.76379 0.0
C88 C 0.04162 0.84693 0.75895 0.0
C89 C 0.08155 0.83345 0.85466 0.0
H90 H 0.07776 0.82267 0.90734 0.0
H91 H 0.09023 0.81598 0.81677 0.0
H92 H 0.09914 0.85167 0.86061 0.0
O93 O 0.03058 0.91725 0.99364 0.0
O94 O 0.98931 0.92969 0.93454 0.0
H95 H 0.97953 0.89065 0.71413 0.0
H96 H 0.00683 0.87355 0.65358 0.0
C97 C 0.99317 0.86986 0.70261 0.0
H98 H 0.97772 0.85008 0.69297 0.0
H99 H 0.95282 0.95468 0.85572 0.0
O100 O 0.07224 0.86293 1.00999 0.0
C101 C 0.01128 0.93727 0.97452 0.0
Co102 Co 0.38921 0.78564 0.22109 0.0
Co103 Co 0.37677 0.72497 0.14488 0.0
C104 C 0.41599 0.72799 0.28151 0.0
O105 O 0.41352 0.75722 0.28464 0.0
O106 O 0.40338 0.71306 0.23061 0.0
C107 C 0.37348 0.83622 0.30294 0.0
O108 O 0.35905 0.8145 0.33791 0.0
C109 C 0.38374 0.67124 0.05051 0.0
C110 C 0.33634 0.65308 0.05248 0.0
C111 C 0.3647 0.64913 0.02175 0.0
N112 N 0.36705 0.68859 0.09456 0.0
N113 N 0.33898 0.67702 0.09694 0.0
C114 C 0.41709 0.6758 0.03577 0.0
H115 H 0.42536 0.69771 0.05905 0.0
H116 H 0.42137 0.67521 0.97764 0.0
H117 H 0.43012 0.65652 0.05975 0.0
C118 C 0.41375 0.80391 0.07692 0.0
N119 N 0.40093 0.78318 0.12179 0.0
N120 N 0.39444 0.75788 0.08637 0.0
C121 C 0.40197 0.76255 0.01692 0.0
C122 C 0.41492 0.79174 1.00853 0.0
C123 C 0.42458 0.83508 0.09877 0.0
H124 H 0.40506 0.8513 0.09578 0.0
H125 H 0.4332 0.83455 0.15421 0.0
H126 H 0.44285 0.84345 0.0626 0.0
O127 O 0.3448 0.77784 0.23757 0.0
O128 O 0.33521 0.7364 0.17637 0.0
H129 H 0.37678 0.7244 0.9733 0.0
H130 H 0.38693 0.75407 0.9102 0.0
C131 C 0.39477 0.74098 0.95749 0.0
H132 H 0.41592 0.72861 0.94199 0.0
H133 H 0.32113 0.68589 0.12743 0.0
O134 O 0.39181 0.82844 0.25355 0.0
C135 C 0.32603 0.75783 0.21613 0.0
Co136 Co 0.48015 0.88884 0.55274 0.0
Co137 Co 0.53816 0.89563 0.63769 0.0
C138 C 0.5401 0.8625 0.49667 0.0
O139 O 0.51179 0.86906 0.48805 0.0
O140 O 0.55363 0.87022 0.55429 0.0
C141 C 0.43632 0.90618 0.45708 0.0
O142 O 0.4602 0.92141 0.43353 0.0
C143 C 0.59642 0.88838 0.71242 0.0
C144 C 0.58705 0.91681 0.8074 0.0
C145 C 0.608 0.89658 0.77832 0.0
N146 N 0.56903 0.90181 0.70509 0.0
N147 N 0.56415 0.91979 0.76042 0.0
C148 C 0.61055 0.86769 0.65803 0.0
H149 H 0.61189 0.88003 0.60652 0.0
H150 H 0.59572 0.84726 0.64996 0.0
H151 H 0.63386 0.86029 0.67411 0.0
C152 C 0.45741 0.85692 0.68649 0.0
N153 N 0.47885 0.87169 0.64701 0.0
N154 N 0.50361 0.87573 0.68555 0.0
C155 C 0.49853 0.86371 0.75124 0.0
C156 C 0.46897 0.8513 0.75474 0.0
C157 C 0.42643 0.84834 0.65906 0.0
H158 H 0.41198 0.86927 0.65639 0.0
H159 H 0.42848 0.83909 0.60433 0.0
H160 H 0.41519 0.83119 0.69408 0.0
O161 O 0.48606 0.93369 0.556 0.0
O162 O 0.53017 0.93902 0.60792 0.0
H163 H 0.51491 0.84897 0.85475 0.0
H164 H 0.54417 0.85894 0.79105 0.0
C165 C 0.52111 0.86482 0.81097 0.0
H166 H 0.52166 0.88843 0.83295 0.0
H167 H 0.54435 0.93282 0.76773 0.0
O168 O 0.44011 0.88702 0.50749 0.0
C169 C 0.507 0.95112 0.57862 0.0
Co170 Co 0.39421 0.22823 0.78254 0.0
Co171 Co 0.38217 0.28604 0.86575 0.0
C172 C 0.4211 0.28926 0.73378 0.0
O173 O 0.41863 0.26009 0.72742 0.0
O174 O 0.40826 0.30319 0.78568 0.0
C175 C 0.38114 0.16696 0.75128 0.0
O176 O 0.35963 0.17012 0.79925 0.0
C177 C 0.38274 0.34413 0.94501 0.0
C178 C 0.3586 0.32866 0.04211 0.0
C179 C 0.37468 0.35306 1.01328 0.0
N180 N 0.37314 0.31516 0.93581 0.0
N181 N 0.35778 0.30647 0.99282 0.0
C182 C 0.40029 0.36201 0.89055 0.0
H183 H 0.3875 0.36177 0.83956 0.0
H184 H 0.42267 0.35073 0.88078 0.0
H185 H 0.40402 0.3861 0.90784 0.0
C186 C 0.41824 0.20561 0.92507 0.0
N187 N 0.40457 0.22632 0.88164 0.0
N188 N 0.40141 0.25221 0.91571 0.0
C189 C 0.41425 0.24948 0.98091 0.0
C190 C 0.42236 0.2184 0.99381 0.0
C191 C 0.43318 0.17727 0.89587 0.0
H192 H 0.44235 0.18212 0.84204 0.0
H193 H 0.45232 0.16938 0.93005 0.0
H194 H 0.41593 0.15873 0.89011 0.0
O195 O 0.34978 0.2351 0.76387 0.0
O196 O 0.3404 0.27599 0.82876 0.0
H197 H 0.41143 0.28813 0.05245 0.0
H198 H 0.44934 0.27134 0.04523 0.0
C199 C 0.42806 0.2772 1.01604 0.0
H200 H 0.43395 0.29442 0.97477 0.0
H201 H 0.34834 0.28463 0.99963 0.0
O202 O 0.40021 0.18845 0.73976 0.0
C203 C 0.33119 0.2552 0.78654 0.0
Co204 Co 0.03416 0.1311 0.06405 0.0
Co205 Co 0.97488 0.11368 0.14046 0.0
C206 C 0.97405 0.15731 1.01226 0.0
O207 O 1.00308 0.15471 1.00739 0.0
O208 O 0.95944 0.14314 0.06163 0.0
C209 C 0.09633 0.12212 0.03371 0.0
O210 O 0.09302 0.09783 0.07442 0.0
C211 C 0.92397 0.11579 0.2431 0.0
C212 C 0.91628 0.06626 0.26241 0.0
C213 C 0.90776 0.09518 0.28502 0.0
N214 N 0.94184 0.09982 0.1987 0.0
N215 N 0.93643 0.07021 0.20909 0.0
C216 C 0.92384 0.15012 0.24805 0.0
H217 H 0.94433 0.15997 0.22156 0.0
H218 H 0.92271 0.15772 0.30424 0.0
H219 H 0.90307 0.15895 0.22086 0.0
C220 C 0.05189 0.15509 0.2084 0.0
N221 N 0.0322 0.141 0.16328 0.0
N222 N 0.00784 0.13188 0.19858 0.0
C223 C 0.01232 0.13862 0.26844 0.0
C224 C 0.04016 0.15416 0.27732 0.0
C225 C 0.08142 0.16948 0.18582 0.0
H226 H 0.07874 0.18039 0.1329 0.0
H227 H 0.08924 0.18683 0.22505 0.0
H228 H 0.09912 0.15132 0.18159 0.0
O229 O 0.03119 0.08572 0.04385 0.0
O230 O 0.98803 0.07398 0.09754 0.0
H231 H 0.00557 0.12388 0.37638 0.0
H232 H 0.97491 0.14598 0.33918 0.0
C233 C 0.99207 0.128 0.32726 0.0
H234 H 0.98035 0.10654 0.31137 0.0
H235 H 0.94786 0.0525 0.18295 0.0
O236 O 0.07436 0.14092 0.02581 0.0
C237 C 0.011 0.06604 0.06083 0.0
Co238 Co 0.13499 0.78017 0.30736 0.0
Co239 Co 0.15055 0.72139 0.39105 0.0
C240 C 0.11213 0.71857 0.25513 0.0
O241 O 0.11387 0.74775 0.24873 0.0
O242 O 0.12473 0.70489 0.30802 0.0
C243 C 0.1438 0.82325 0.20791 0.0
O244 O 0.15506 0.79812 0.17947 0.0
C245 C 0.1534 0.66915 0.49403 0.0
C246 C 0.20342 0.66139 0.49705 0.0
C247 C 0.17624 0.6522 0.52724 0.0
N248 N 0.16656 0.68826 0.4473 0.0
N249 N 0.19641 0.6826 0.44786 0.0
C250 C 0.1197 0.66733 0.50766 0.0
H251 H 0.10729 0.6853 0.47721 0.0
H252 H 0.11496 0.6696 0.56531 0.0
H253 H 0.11129 0.64435 0.49117 0.0
C254 C 0.10698 0.79933 0.44612 0.0
N255 N 0.12258 0.77891 0.40575 0.0
N256 N 0.1295 0.75454 0.44427 0.0
C257 C 0.11894 0.75954 0.51147 0.0
C258 C 0.10385 0.7879 0.51493 0.0
C259 C 0.09516 0.82933 0.41883 0.0
H260 H 0.08383 0.82582 0.36666 0.0
H261 H 0.07882 0.83995 0.45669 0.0
H262 H 0.11475 0.84518 0.41054 0.0
O263 O 0.18009 0.77729 0.29323 0.0
O264 O 0.19015 0.73569 0.35301 0.0
H265 H 0.12766 0.7523 0.62254 0.0
H266 H 0.10384 0.72403 0.58108 0.0
C267 C 0.12432 0.73871 0.57322 0.0
H268 H 0.14471 0.72424 0.56371 0.0
H269 H 0.21261 0.69402 0.417 0.0
O270 O 0.12826 0.82067 0.26477 0.0
C271 C 0.19913 0.75752 0.31421 0.0
Co272 Co 0.88438 0.71686 0.31087 0.0
Co273 Co 0.87847 0.77812 0.38648 0.0
C274 C 0.90493 0.77863 0.23938 0.0
O275 O 0.90237 0.74906 0.23756 0.0
O276 O 0.89803 0.79279 0.29666 0.0
C277 C 0.8953 0.66042 0.23178 0.0
O278 O 0.89461 0.63039 0.2255 0.0
C279 C 0.8777 0.83832 0.45973 0.0
C280 C 0.85897 0.82254 0.56276 0.0
C281 C 0.87082 0.84786 0.52801 0.0
N282 N 0.87143 0.80823 0.45548 0.0
N283 N 0.85933 0.79923 0.51636 0.0
C284 C 0.89019 0.85722 0.40014 0.0
H285 H 0.87234 0.85914 0.35849 0.0
H286 H 0.91042 0.84555 0.37696 0.0
H287 H 0.89648 0.88069 0.41794 0.0
C288 C 0.91521 0.69964 0.44892 0.0
N289 N 0.90172 0.71995 0.40417 0.0
N290 N 0.90283 0.74734 0.43253 0.0
C291 C 0.91924 0.74589 0.49364 0.0
C292 C 0.9272 0.7153 0.50764 0.0
C293 C 0.91477 0.66557 0.43792 0.0
H294 H 0.89148 0.65821 0.42162 0.0
H295 H 0.93092 0.65947 0.3947 0.0
H296 H 0.92126 0.65298 0.48691 0.0
O297 O 0.83958 0.72124 0.31135 0.0
O298 O 0.83535 0.76523 0.36572 0.0
H299 H 0.91202 0.77901 0.57627 0.0
H300 H 0.95142 0.76902 0.56216 0.0
C301 C 0.92926 0.77349 0.5351 0.0
H302 H 0.93156 0.79358 0.49922 0.0
H303 H 0.85249 0.77671 0.52711 0.0
O304 O 0.88772 0.6727 0.28967 0.0
C305 C 0.82273 0.74196 0.33753 0.0
Co306 Co 0.63681 0.29267 0.79326 0.0
Co307 Co 0.65418 0.23369 0.86834 0.0
C308 C 0.61299 0.23291 0.73646 0.0
O309 O 0.61401 0.26219 0.73272 0.0
O310 O 0.62711 0.21871 0.78633 0.0
C311 C 0.64887 0.35455 0.77041 0.0
O312 O 0.67196 0.3495 0.81355 0.0
C313 C 0.65085 0.18136 0.96553 0.0
C314 C 0.69997 0.16949 0.97614 0.0
C315 C 0.67113 0.16267 1.00172 0.0
N316 N 0.66707 0.19956 0.92239 0.0
N317 N 0.69631 0.19182 0.92756 0.0
C318 C 0.61678 0.18261 0.97347 0.0
H319 H 0.60744 0.20392 0.94935 0.0
H320 H 0.61027 0.18096 0.03035 0.0
H321 H 0.60658 0.16257 0.94577 0.0
C322 C 0.61156 0.30962 0.93604 0.0
N323 N 0.62612 0.28999 0.89176 0.0
N324 N 0.63474 0.26543 0.9273 0.0
C325 C 0.62688 0.26957 0.9967 0.0
C326 C 0.61138 0.2975 1.00443 0.0
C327 C 0.59799 0.3396 0.91336 0.0
H328 H 0.58732 0.33725 0.86013 0.0
H329 H 0.58064 0.34771 0.95214 0.0
H330 H 0.61647 0.35704 0.90986 0.0
O331 O 0.6817 0.28998 0.77377 0.0
O332 O 0.69408 0.24782 0.83092 0.0
H333 H 0.65602 0.23478 0.04184 0.0
H334 H 0.64129 0.26253 0.10458 0.0
C335 C 0.63585 0.24881 0.05646 0.0
H336 H 0.61628 0.23367 0.06997 0.0
H337 H 0.71408 0.20252 0.90001 0.0
O338 O 0.62898 0.33375 0.75919 0.0
C339 C 0.70164 0.27061 0.7931 0.0
Co340 Co 0.63226 0.72892 0.24338 0.0
Co341 Co 0.6509 0.7843 0.1524 0.0
C342 C 0.60928 0.79299 0.28048 0.0
O343 O 0.61064 0.76411 0.29289 0.0
O344 O 0.6232 0.80476 0.22687 0.0
C345 C 0.64176 0.69086 0.3497 0.0
O346 O 0.64961 0.71797 0.37457 0.0
C347 C 0.65405 0.83239 0.04112 0.0
C348 C 0.70356 0.83128 0.01625 0.0
C349 C 0.6762 0.84439 0.9961 0.0
N350 N 0.66764 0.81263 0.08556 0.0
N351 N 0.69737 0.81271 0.07147 0.0
C352 C 0.6203 0.83818 0.03887 0.0
H353 H 0.60797 0.8219 0.0742 0.0
H354 H 0.6116 0.8362 0.98367 0.0
H355 H 0.61582 0.86205 0.05675 0.0
C356 C 0.60596 0.70552 0.10662 0.0
N357 N 0.62152 0.72656 0.1454 0.0
N358 N 0.62998 0.74955 0.1043 0.0
C359 C 0.6201 0.74325 0.03722 0.0
C360 C 0.60432 0.71527 0.03623 0.0
C361 C 0.59272 0.67667 0.1369 0.0
H362 H 0.61164 0.66055 0.14954 0.0
H363 H 0.58062 0.68193 0.18728 0.0
H364 H 0.57677 0.66549 0.09891 0.0
O365 O 0.67727 0.73113 0.25676 0.0
O366 O 0.69 0.77308 0.20034 0.0
H367 H 0.62582 0.74942 0.9245 0.0
H368 H 0.60723 0.78045 0.97011 0.0
C369 C 0.62577 0.76317 0.97418 0.0
H370 H 0.64802 0.77493 0.98038 0.0
H371 H 0.71348 0.79882 0.09681 0.0
O372 O 0.62589 0.68995 0.29302 0.0
C373 C 0.69721 0.75066 0.23945 0.0
Co374 Co 0.89438 0.29687 0.73511 0.0
Co375 Co 0.88136 0.23787 0.65134 0.0
C376 C 0.91456 0.2329 0.79036 0.0
O377 O 0.91268 0.2622 0.79665 0.0
O378 O 0.90375 0.21949 0.73526 0.0
C379 C 0.91345 0.34582 0.828 0.0
O380 O 0.91733 0.3748 0.84507 0.0
C381 C 0.87839 0.17933 0.57307 0.0
C382 C 0.85515 0.19577 0.4756 0.0
C383 C 0.86947 0.17045 0.5052 0.0
N384 N 0.87092 0.209 0.58127 0.0
N385 N 0.85608 0.21832 0.52402 0.0
C386 C 0.89415 0.16052 0.62877 0.0
H387 H 0.88115 0.16213 0.67928 0.0
H388 H 0.91729 0.17012 0.63896 0.0
H389 H 0.89603 0.13609 0.61256 0.0
C390 C 0.92529 0.31526 0.59986 0.0
N391 N 0.90926 0.29514 0.64023 0.0
N392 N 0.90539 0.26947 0.60478 0.0
C393 C 0.91967 0.27229 0.54097 0.0
C394 C 0.9325 0.30156 0.5353 0.0
C395 C 0.93345 0.34724 0.62226 0.0
H396 H 0.91224 0.35996 0.6358 0.0
H397 H 0.94805 0.3464 0.67031 0.0
H398 H 0.94594 0.35979 0.57993 0.0
O399 O 0.84907 0.29507 0.74169 0.0
O400 O 0.84021 0.25193 0.68363 0.0
H401 H 0.9417 0.25046 0.45151 0.0
H402 H 0.92215 0.22474 0.51181 0.0
C403 C 0.9213 0.24757 0.48596 0.0
H404 H 0.9007 0.24888 0.45163 0.0
H405 H 0.84799 0.24066 0.51667 0.0
O406 O 0.90357 0.33892 0.76709 0.0
C407 C 0.83061 0.2748 0.71899 0.0
Co408 Co 0.98716 0.62787 0.96619 0.0
Co409 Co 0.04683 0.61435 0.8939 0.0
C410 C 0.0491 0.65105 0.02579 0.0
O411 O 0.01994 0.64881 0.02683 0.0
O412 O 0.06428 0.63862 0.97559 0.0
C413 C 0.94984 0.67678 0.9925 0.0
O414 O 0.9721 0.69068 0.95831 0.0
C415 C 0.10673 0.61019 0.82525 0.0
C416 C 0.09193 0.59052 0.72242 0.0
C417 C 0.11656 0.60398 0.75674 0.0
N418 N 0.07702 0.60261 0.82912 0.0
N419 N 0.06869 0.58963 0.76877 0.0
C420 C 0.1247 0.62395 0.88516 0.0
H421 H 0.12305 0.60868 0.93228 0.0
H422 H 0.11468 0.64639 0.90047 0.0
H423 H 0.14911 0.62708 0.87033 0.0
C424 C 0.96954 0.64864 0.81913 0.0
N425 N 0.98959 0.63721 0.86714 0.0
N426 N 0.01704 0.63712 0.83952 0.0
C427 C 0.01578 0.65085 0.77476 0.0
C428 C 0.98537 0.65844 0.75875 0.0
C429 C 0.93556 0.64865 0.82911 0.0
H430 H 0.92877 0.63157 0.86999 0.0
H431 H 0.92806 0.67171 0.84645 0.0
H432 H 0.92389 0.64346 0.77808 0.0
O433 O 0.98722 0.58261 0.98686 0.0
O434 O 0.03019 0.57389 0.92861 0.0
H435 H 0.04861 0.64015 0.69403 0.0
H436 H 0.03919 0.68022 0.70027 0.0
C437 C 0.04334 0.659 0.7316 0.0
H438 H 0.06324 0.66234 0.76715 0.0
H439 H 0.04643 0.58238 0.75743 0.0
O440 O 0.95034 0.6477 0.99933 0.0
C441 C 0.00771 0.56397 0.96531 0.0
Co442 Co 0.54797 0.38575 0.46275 0.0
Co443 Co 0.48843 0.40019 0.38166 0.0
C444 C 0.48692 0.36021 0.51427 0.0
O445 O 0.51592 0.36339 0.52083 0.0
O446 O 0.47267 0.37262 0.46193 0.0
C447 C 0.58944 0.39626 0.56203 0.0
O448 O 0.56328 0.40501 0.58977 0.0
C449 C 0.43687 0.39985 0.27857 0.0
C450 C 0.43132 0.44975 0.26037 0.0
C451 C 0.42115 0.42137 0.23811 0.0
N452 N 0.45612 0.41481 0.32185 0.0
N453 N 0.45193 0.44468 0.31208 0.0
C454 C 0.43474 0.36562 0.27327 0.0
H455 H 0.45339 0.35449 0.30407 0.0
H456 H 0.43555 0.35823 0.2169 0.0
H457 H 0.41234 0.3581 0.29499 0.0
C458 C 0.56723 0.35883 0.3238 0.0
N459 N 0.54682 0.37372 0.36536 0.0
N460 N 0.5222 0.38056 0.32803 0.0
C461 C 0.5269 0.37052 0.2604 0.0
C462 C 0.55541 0.35608 0.2554 0.0
C463 C 0.5975 0.3473 0.34964 0.0
H464 H 0.61308 0.36715 0.35769 0.0
H465 H 0.59455 0.33571 0.40175 0.0
H466 H 0.60802 0.3312 0.311 0.0
O467 O 0.54454 0.43103 0.47362 0.0
O468 O 0.50015 0.44016 0.42404 0.0
H469 H 0.51825 0.37823 0.14938 0.0
H470 H 0.4903 0.35522 0.19447 0.0
C471 C 0.50542 0.37554 0.19994 0.0
H472 H 0.49157 0.3963 0.20976 0.0
H473 H 0.4643 0.46191 0.33771 0.0
O474 O 0.58862 0.38048 0.5052 0.0
C475 C 0.52336 0.44945 0.45771 0.0
Co476 Co 0.99734 0.36861 0.06899 0.0
Co477 Co 0.05502 0.39391 0.14111 0.0
C478 C 0.06121 0.35022 0.01834 0.0
O479 O 0.03212 0.3501 1.0149 0.0
O480 O 0.07481 0.36542 0.06733 0.0
C481 C 0.96421 0.31436 0.04564 0.0
O482 O 0.98815 0.30173 0.0761 0.0
C483 C 0.10603 0.40306 0.24071 0.0
C484 C 0.1042 0.45328 0.25685 0.0
C485 C 0.11786 0.42674 0.28182 0.0
N486 N 0.08547 0.41485 0.19552 0.0
N487 N 0.08531 0.44505 0.2036 0.0
C488 C 0.11216 0.36938 0.24859 0.0
H489 H 0.09384 0.35569 0.22262 0.0
H490 H 0.11433 0.36289 0.30539 0.0
H491 H 0.13429 0.36399 0.22254 0.0
C492 C 0.98069 0.35177 0.21823 0.0
N493 N 1.00035 0.36374 0.16991 0.0
N494 N 0.02514 0.3736 0.20259 0.0
C495 C 0.02164 0.36813 0.27334 0.0
C496 C 0.99373 0.3534 0.2853 0.0
C497 C 0.94932 0.33983 0.20154 0.0
H498 H 0.93921 0.35261 0.15635 0.0
H499 H 0.95093 0.31509 0.18834 0.0
H500 H 0.93372 0.34182 0.24765 0.0
O501 O 0.99257 0.41302 0.03798 0.0
O502 O 0.03488 0.42862 0.09099 0.0
H503 H 0.03024 0.38202 0.38119 0.0
H504 H 0.06113 0.36222 0.33845 0.0
C505 C 0.04268 0.37929 0.33016 0.0
H506 H 0.05266 0.40164 0.31459 0.0
H507 H 0.07073 0.45993 0.17633 0.0
O508 O 0.96308 0.34344 0.03786 0.0
C509 C 0.01152 0.43443 0.05294 0.0
Co510 Co 0.54165 0.63964 0.56955 0.0
Co511 Co 0.48287 0.61994 0.64067 0.0
C512 C 0.48171 0.6629 0.51196 0.0
O513 O 0.51084 0.66114 0.50748 0.0
O514 O 0.46769 0.64947 0.56313 0.0
C515 C 0.60371 0.62967 0.55495 0.0
O516 O 0.59814 0.60668 0.59827 0.0
C517 C 0.43126 0.61955 0.73885 0.0
C518 C 0.41988 0.56995 0.74178 0.0
C519 C 0.413 0.59798 0.77199 0.0
N520 N 0.44919 0.60485 0.69257 0.0
N521 N 0.44179 0.57533 0.69322 0.0
C522 C 0.43236 0.65339 0.7527 0.0
H523 H 0.45342 0.6637 0.72981 0.0
H524 H 0.43098 0.65807 0.81059 0.0
H525 H 0.41215 0.66432 0.7274 0.0
C526 C 0.5571 0.66285 0.71534 0.0
N527 N 0.53807 0.64874 0.66886 0.0
N528 N 0.51423 0.63775 0.70306 0.0
C529 C 0.51853 0.64304 0.77373 0.0
C530 C 0.54564 0.6598 0.78404 0.0
C531 C 0.58578 0.67935 0.6944 0.0
H532 H 0.60488 0.66262 0.69178 0.0
H533 H 0.58296 0.69005 0.64129 0.0
H534 H 0.5918 0.69726 0.734 0.0
O535 O 0.54044 0.59514 0.54603 0.0
O536 O 0.49705 0.58156 0.59575 0.0
H537 H 0.51319 0.6236 0.87792 0.0
H538 H 0.48256 0.64796 0.84994 0.0
C539 C 0.49886 0.63018 0.8316 0.0
H540 H 0.48603 0.60982 0.8125 0.0
H541 H 0.45249 0.5585 0.66264 0.0
O542 O 0.58277 0.64889 0.53971 0.0
C543 C 0.52047 0.57493 0.55954 0.0
C544 C 0.53479 0.03336 0.54529 0.0
C545 C 0.51331 0.04269 0.49258 0.0
C546 C 0.48212 0.99719 0.51841 0.0
C547 C 0.50598 0.98511 0.56171 0.0
N548 N 0.54621 0.99889 0.64334 0.0
N549 N 0.46841 0.03153 0.42253 0.0
C550 C 0.53015 1.00512 0.58263 0.0
C551 C 0.48746 0.02409 0.47758 0.0
N552 N 0.55954 0.05155 0.56011 0.0
N553 N 0.45331 0.98501 0.52189 0.0
H554 H 0.47178 0.0508 0.39042 0.0
H555 H 0.45119 0.01692 0.40431 0.0
H556 H 0.44699 0.96903 0.56049 0.0
H557 H 0.43459 0.99431 0.49514 0.0
H558 H 0.57813 0.04435 0.59044 0.0
H559 H 0.56249 0.07349 0.539 0.0
H560 H 0.56281 0.0133 0.66482 0.0
H561 H 0.53978 0.98152 0.67843 0.0
C562 C 0.28238 0.22624 0.75792 0.0
C563 C 0.29844 0.25455 0.76235 0.0
C564 C 0.25099 0.28128 0.72922 0.0
C565 C 0.23643 0.25264 0.71432 0.0
N566 N 0.24305 0.19801 0.69577 0.0
N567 N 0.2992 0.30859 0.73174 0.0
C568 C 0.25362 0.22514 0.72274 0.0
C569 C 0.28315 0.28199 0.74176 0.0
N570 N 0.29346 0.20068 0.79109 0.0
N571 N 0.23429 0.30764 0.73616 0.0
H572 H 0.32296 0.3099 0.73611 0.0
H573 H 0.2892 0.32838 0.71082 0.0
H574 H 0.21048 0.3083 0.73408 0.0
H575 H 0.24397 0.32829 0.75306 0.0
H576 H 0.28132 0.18007 0.7935 0.0
H577 H 0.31252 0.20145 0.82434 0.0
H578 H 0.25606 0.17793 0.69637 0.0
H579 H 0.22319 0.19648 0.66517 0.0
C580 C 0.01413 0.0251 0.96533 0.0
C581 C 0.01415 0.03314 0.03852 0.0
C582 C 0.01303 0.97816 0.07051 0.0
C583 C 0.01441 0.97012 0.99738 0.0
N584 N 0.02326 0.98583 0.87625 0.0
N585 N 0.02042 0.01744 0.16052 0.0
C586 C 0.01703 0.99361 0.94512 0.0
C587 C 0.01562 0.00966 0.09102 0.0
N588 N 0.00986 0.04735 0.91498 0.0
N589 N 0.00776 0.95591 0.12035 0.0
H590 H 0.02282 0.04014 0.17743 0.0
H591 H 0.02496 1.00143 0.2003 0.0
H592 H 0.00576 0.93266 0.10785 0.0
H593 H 1.00291 0.96066 0.17338 0.0
H594 H 0.00603 0.04258 0.86149 0.0
H595 H 0.00758 0.07059 0.92726 0.0
H596 H 0.02863 1.00186 0.83707 0.0
H597 H 0.02603 0.96314 0.85963 0.0
C598 C 0.27859 0.73034 0.25927 0.0
C599 C 0.29353 0.7583 0.24127 0.0
C600 C 0.24793 0.78636 0.28188 0.0
C601 C 0.23157 0.75822 0.28861 0.0
N602 N 0.23016 0.70394 0.25935 0.0
N603 N 0.28858 0.81298 0.21994 0.0
C604 C 0.2465 0.73032 0.27018 0.0
C605 C 0.27714 0.78641 0.2481 0.0
N606 N 0.29491 0.70394 0.26955 0.0
N607 N 0.23645 0.81287 0.31005 0.0
H608 H 0.30882 0.81386 0.1907 0.0
H609 H 0.27611 0.83338 0.21844 0.0
H610 H 0.21615 0.81367 0.33904 0.0
H611 H 0.24894 0.83328 0.31175 0.0
H612 H 0.28482 0.68373 0.28811 0.0
H613 H 0.31876 0.70317 0.26881 0.0
H614 H 0.24026 0.68381 0.24061 0.0
H615 H 0.20631 0.70318 0.25965 0.0
C616 C 0.76928 0.76526 0.3503 0.0
C617 C 0.78835 0.74071 0.32724 0.0
C618 C 0.74623 0.72103 0.25329 0.0
C619 C 0.72879 0.74769 0.26868 0.0
N620 N 0.72341 0.79566 0.33183 0.0
N621 N 0.78711 0.68746 0.29132 0.0
C622 C 0.74024 0.76996 0.3172 0.0
C623 C 0.77465 0.71622 0.2885 0.0
N624 N 0.77727 0.78175 0.40927 0.0
N625 N 0.73631 0.70082 0.20266 0.0
H626 H 0.80478 0.68181 0.3262 0.0
H627 H 0.77687 0.66822 0.26853 0.0
H628 H 0.71581 0.70362 0.17491 0.0
H629 H 0.74978 0.68293 0.18337 0.0
H630 H 0.76352 0.79856 0.43214 0.0
H631 H 0.79538 0.77536 0.4422 0.0
H632 H 0.73215 0.81464 0.35868 0.0
H633 H 0.70113 0.79893 0.31355 0.0
C634 C 0.78837 0.27554 0.81019 0.0
C635 C 0.79751 0.27661 0.73773 0.0
C636 C 0.7435 0.27424 0.70075 0.0
C637 C 0.73439 0.2748 0.77323 0.0
N638 N 0.74772 0.28325 0.89601 0.0
N639 N 0.78389 0.28327 0.61456 0.0
C640 C 0.75673 0.27764 0.82766 0.0
C641 C 0.77507 0.27784 0.68312 0.0
N642 N 0.80971 0.2709 0.86233 0.0
N643 N 0.72223 0.26882 0.64888 0.0
H644 H 0.80674 0.28624 0.59988 0.0
H645 H 0.76853 0.28763 0.57344 0.0
H646 H 0.69897 0.26602 0.65941 0.0
H647 H 0.72789 0.26466 0.59601 0.0
H648 H 0.80405 0.26638 0.91507 0.0
H649 H 0.83308 0.26881 0.85223 0.0
H650 H 0.76293 0.28879 0.93669 0.0
H651 H 0.72479 0.28542 0.91072 0.0
C652 C 0.97948 0.51322 0.9914 0.0
C653 C 0.00721 0.5305 0.98666 0.0
C654 C 0.03573 0.48262 1.00486 0.0
C655 C 0.00854 0.46655 0.02344 0.0
N656 N 0.95407 0.46973 0.04639 0.0
N657 N 0.06155 0.53124 1.0138 0.0
C658 C 0.98016 0.48265 0.01992 0.0
C659 C 0.03531 0.51511 1.00048 0.0
N660 N 0.95269 0.52516 0.96626 0.0
N661 N 0.06199 0.46699 0.98926 0.0
H662 H 0.062 0.55504 0.01976 0.0
H663 H 0.0819 0.52054 0.02894 0.0
H664 H 0.06278 0.44308 0.98556 0.0
H665 H 0.08169 0.47798 0.97085 0.0
H666 H 0.93255 0.51235 0.96305 0.0
H667 H 0.95134 0.54642 0.94101 0.0
H668 H 0.93359 0.48186 0.05105 0.0
H669 H 0.95352 0.44817 0.07032 0.0
C670 C 0.52295 0.48776 0.55739 0.0
C671 C 0.52463 0.48168 0.48335 0.0
C672 C 0.52394 0.53708 0.4585 0.0
C673 C 0.52419 0.54307 0.53275 0.0
N674 N 0.53082 0.52446 0.65245 0.0
N675 N 0.5322 0.5001 0.36388 0.0
C676 C 0.52579 0.51848 0.58207 0.0
C677 C 0.52677 0.50624 0.43398 0.0
N678 N 0.517 0.46439 0.60397 0.0
N679 N 0.51952 0.56064 0.41149 0.0
H680 H 0.5342 0.47779 0.34411 0.0
H681 H 0.53728 0.51698 0.32647 0.0
H682 H 0.51727 0.58351 0.4271 0.0
H683 H 0.51564 0.55734 0.35743 0.0
H684 H 0.5123 0.46786 0.65761 0.0
H685 H 0.51385 0.44171 0.58788 0.0
H686 H 0.53546 0.50741 0.68979 0.0
H687 H 0.53335 0.54669 0.67238 0.0
C688 C 0.45435 0.15692 0.12632 0.0
C689 C 0.46653 0.17593 0.18111 0.0
C690 C 0.43923 0.2195 0.12692 0.0
C691 C 0.43387 0.20276 0.06325 0.0
N692 N 0.41528 0.1522 0.03565 0.0
N693 N 0.47199 0.22718 0.22866 0.0
C694 C 0.4358 0.17019 0.07107 0.0
C695 C 0.45967 0.20781 0.17937 0.0
N696 N 0.45976 0.12604 0.12756 0.0
N697 N 0.41967 0.24244 0.14555 0.0
H698 H 0.4872 0.21976 0.26787 0.0
H699 H 0.46895 0.25094 0.22595 0.0
H700 H 0.39927 0.24591 0.11778 0.0
H701 H 0.42098 0.25385 0.1942 0.0
H702 H 0.45461 0.11166 0.08493 0.0
H703 H 0.4712 0.11518 0.16923 0.0
H704 H 0.41331 0.12857 0.04314 0.0
H705 H 0.39705 0.16174 1.00741 0.0
C706 C 0.08369 0.15606 0.36838 0.0
C707 C 0.05448 0.16665 0.34525 0.0
C708 C 0.05238 0.1999 0.45193 0.0
C709 C 0.08329 0.19271 0.46897 0.0
N710 N 0.12978 0.16639 0.43674 0.0
N711 N 0.01318 0.20287 0.36072 0.0
C712 C 0.09929 0.17136 0.42541 0.0
C713 C 0.03932 0.18959 0.3862 0.0
N714 N 0.09616 0.13054 0.33766 0.0
N715 N 0.03513 0.21607 0.49941 0.0
H716 H 1.00339 0.19687 0.31213 0.0
H717 H 1.00286 0.22184 0.38445 0.0
H718 H 0.04388 0.22401 0.54765 0.0
H719 H 0.01157 0.21902 0.49395 0.0
H720 H 0.11584 0.11983 0.35671 0.0
H721 H 0.08513 0.11821 0.29762 0.0
H722 H 0.14351 0.15388 0.40198 0.0
H723 H 0.14199 0.17687 0.47775 0.0
C724 C 0.05921 0.79134 0.60288 0.0
C725 C 0.08781 0.80285 0.5779 0.0
C726 C 0.08405 0.84519 0.6656 0.0
C727 C 0.05681 0.83225 0.69453 0.0
N728 N 0.02086 0.79026 0.69675 0.0
N729 N 0.12967 0.83824 0.59313 0.0
C730 C 0.04502 0.80459 0.6646 0.0
C731 C 0.10077 0.82914 0.61141 0.0
N732 N 0.04498 0.7683 0.56615 0.0
N733 N 0.09351 0.87346 0.6884 0.0
H734 H 0.14254 0.82721 0.55408 0.0
H735 H 0.14195 0.85496 0.6206 0.0
H736 H 0.08196 0.88586 0.72748 0.0
H737 H 0.11112 0.88583 0.66449 0.0
H738 H 0.02265 0.76113 0.57624 0.0
H739 H 0.05462 0.75791 0.52155 0.0
H740 H 0.01326 0.76837 0.68301 0.0
H741 H 0.0098 0.79922 0.74122 0.0
C742 C 0.41262 0.83148 0.9081 0.0
C743 C 0.42786 0.80647 0.94168 0.0
C744 C 0.46695 0.80813 0.84677 0.0
C745 C 0.45378 0.83526 0.81759 0.0
N746 N 0.41639 0.87567 0.82932 0.0
N747 N 0.47365 0.776 0.95076 0.0
C748 C 0.42712 0.84766 0.85055 0.0
C749 C 0.45611 0.79615 0.91299 0.0
N750 N 0.38395 0.83948 0.93027 0.0
N751 N 0.48937 0.79306 0.81019 0.0
H752 H 0.46657 0.76617 0.99859 0.0
H753 H 0.49654 0.77196 0.93832 0.0
H754 H 0.49744 0.80051 0.76095 0.0
H755 H 0.49782 0.77169 0.82561 0.0
H756 H 0.37022 0.85525 0.90346 0.0
H757 H 0.37282 0.82836 0.97207 0.0
H758 H 0.39914 0.88748 0.85593 0.0
H759 H 0.4266 0.88845 0.78888 0.0
C760 C 0.63501 0.85034 0.82888 0.0
C761 C 0.63327 0.88272 0.8192 0.0
C762 C 0.6688 0.89022 0.91805 0.0
C763 C 0.67005 0.85805 0.9263 0.0
N764 N 0.66683 0.80866 0.86948 0.0
N765 N 0.65616 0.9325 0.83943 0.0
C766 C 0.65789 0.83861 0.8737 0.0
C767 C 0.65297 0.9024 0.85855 0.0
N768 N 0.613 0.8309 0.80355 0.0
N769 N 0.68153 0.90888 0.96825 0.0
H770 H 0.64534 0.94165 0.79469 0.0
H771 H 0.67177 0.94732 0.8635 0.0
H772 H 0.69423 0.90017 1.01077 0.0
H773 H 0.67839 0.93261 0.96911 0.0
H774 H 0.61259 0.80754 0.81592 0.0
H775 H 0.59314 0.83826 0.7785 0.0
H776 H 0.65951 0.79409 0.82886 0.0
H777 H 0.68405 0.79972 0.90187 0.0
C778 C 0.86559 0.90757 0.66793 0.0
C779 C 0.89687 0.91468 0.676 0.0
C780 C 0.91036 0.8853 0.57189 0.0
C781 C 0.87914 0.87644 0.56492 0.0
N782 N 0.82614 0.8874 0.59002 0.0
N783 N 0.94535 0.9232 0.61867 0.0
C784 C 0.85633 0.8908 0.60709 0.0
C785 C 0.91773 0.90858 0.62079 0.0
N786 N 0.84537 0.91529 0.72014 0.0
N787 N 0.93342 0.86926 0.53985 0.0
H788 H 0.95131 0.94018 0.65526 0.0
H789 H 0.96063 0.92069 0.57652 0.0
H790 H 0.92999 0.84987 0.50877 0.0
H791 H 0.95649 0.8733 0.5506 0.0
H792 H 0.82274 0.90771 0.7212 0.0
H793 H 0.85192 0.92857 0.76381 0.0
H794 H 0.80857 0.89882 0.61643 0.0
H795 H 0.81913 0.87532 0.54489 0.0
C796 C 0.91505 0.10857 0.41079 0.0
C797 C 0.8945 0.10252 0.35483 0.0
C798 C 0.85452 0.12904 0.42054 0.0
C799 C 0.8775 0.14274 0.46381 0.0
N800 N 0.93207 0.14916 0.48666 0.0
N801 N 0.84356 0.10486 0.30707 0.0
C802 C 0.90845 0.13304 0.45706 0.0
C803 C 0.86363 0.11166 0.36038 0.0
N804 N 0.94151 0.09222 0.41718 0.0
N805 N 0.82431 0.133 0.43659 0.0
H806 H 0.84973 0.09107 0.26403 0.0
H807 H 0.8215 0.11389 0.3044 0.0
H808 H 0.8172 0.14494 0.48175 0.0
H809 H 0.8067 0.12189 0.40944 0.0
H810 H 0.95638 0.09497 0.46011 0.0
H811 H 0.94661 0.07383 0.38372 0.0
H812 H 0.95496 0.14378 0.47704 0.0
H813 H 0.92929 0.17002 0.51256 0.0
C814 C 0.66269 0.1386 0.19393 0.0
C815 C 0.63792 0.11799 0.18638 0.0
C816 C 0.64381 0.11918 0.05755 0.0
C817 C 0.66395 0.14435 0.06502 0.0
N818 N 0.68997 0.181 0.14116 0.0
N819 N 0.60165 0.09162 0.1099 0.0
C820 C 0.6732 0.15466 0.13338 0.0
C821 C 0.6278 0.10857 0.11796 0.0
N822 N 0.67583 0.14305 0.25903 0.0
N823 N 0.63967 0.10583 0.99256 0.0
H824 H 0.58817 0.08421 0.15214 0.0
H825 H 0.59168 0.08735 0.06056 0.0
H826 H 0.65125 0.11331 0.94721 0.0
H827 H 0.62724 0.08562 0.98532 0.0
H828 H 0.69579 0.15581 0.26637 0.0
H829 H 0.66844 0.13146 0.30449 0.0
H830 H 0.69407 0.19119 0.19034 0.0
H831 H 0.69756 0.1943 0.09871 0.0
C832 C 0.97878 0.66373 0.62365 0.0
C833 C 0.97239 0.67438 0.69357 0.0
C834 C 0.93434 0.70972 0.64224 0.0
C835 C 0.9436 0.70205 0.57197 0.0
N836 N 0.98231 0.67785 0.49942 0.0
N837 N 0.95137 0.71578 0.76365 0.0
C838 C 0.96826 0.68097 0.56374 0.0
C839 C 0.95243 0.69995 0.70116 0.0
N840 N 0.9933 0.63633 0.61368 0.0
N841 N 0.90736 0.72467 0.65387 0.0
H842 H 0.96575 0.71065 0.80635 0.0
H843 H 0.93879 0.73597 0.76958 0.0
H844 H 0.89193 0.72966 0.61319 0.0
H845 H 0.89882 0.72862 0.70479 0.0
H846 H 0.9962 0.62658 0.56354 0.0
H847 H 0.99914 0.62181 0.65561 0.0
H848 H 1.00192 0.66453 0.49242 0.0
H849 H 0.97642 0.69121 0.45544 0.0
C850 C 0.55738 0.70609 0.95811 0.0
C851 C 0.5886 0.69969 0.97394 0.0
C852 C 0.58945 0.6628 0.87392 0.0
C853 C 0.55961 0.67219 0.85239 0.0
N854 N 0.5164 0.70564 0.87046 0.0
N855 N 0.63532 0.67368 0.94296 0.0
C856 C 0.5438 0.69442 0.89401 0.0
C857 C 0.60486 0.67849 0.93066 0.0
N858 N 0.54055 0.72314 1.00483 0.0
N859 N 0.6026 0.63788 0.84207 0.0
H860 H 0.64708 0.68388 0.98509 0.0
H861 H 0.64942 0.6614 0.90862 0.0
H862 H 0.59169 0.62532 0.80222 0.0
H863 H 0.62286 0.62783 0.85965 0.0
H864 H 0.51687 0.72538 1.00172 0.0
H865 H 0.54992 0.73292 0.05055 0.0
H866 H 0.50443 0.72312 0.89558 0.0
H867 H 0.50646 0.69912 0.82243 0.0
C868 C 0.61109 0.33841 0.1012 0.0
C869 C 0.59768 0.31168 0.07075 0.0
C870 C 0.55813 0.3125 0.16494 0.0
C871 C 0.56992 0.34078 0.19136 0.0
N872 N 0.60505 0.38304 0.17761 0.0
N873 N 0.55572 0.27573 0.0678 0.0
C874 C 0.59576 0.35433 0.15756 0.0
C875 C 0.57049 0.29936 0.10123 0.0
N876 N 0.63908 0.34812 0.07767 0.0
N877 N 0.53571 0.29757 0.2021 0.0
H878 H 0.56406 0.26536 0.02179 0.0
H879 H 0.53403 0.26799 0.08224 0.0
H880 H 0.52607 0.30638 0.24848 0.0
H881 H 0.52844 0.27534 0.1905 0.0
H882 H 0.65174 0.36534 0.10239 0.0
H883 H 0.65098 0.33708 0.03699 0.0
H884 H 0.62145 0.39573 0.15018 0.0
H885 H 0.5945 0.39538 0.21828 0.0
C886 C 0.93582 0.34048 0.435 0.0
C887 C 0.9492 0.3157 0.47322 0.0
C888 C 0.99272 0.31609 0.38966 0.0
C889 C 0.9801 0.34201 0.35408 0.0
N890 N 0.94389 0.38368 0.35553 0.0
N891 N 0.99403 0.28508 0.49692 0.0
C892 C 0.95298 0.35572 0.38092 0.0
C893 C 0.97877 0.30506 0.45352 0.0
N894 N 0.90621 0.34879 0.44834 0.0
N895 N 0.01729 0.30113 0.36109 0.0
H896 H 0.98458 0.27644 0.54376 0.0
H897 H 0.01698 0.2794 0.48983 0.0
H898 H 0.02822 0.30842 0.31481 0.0
H899 H 0.02533 0.28016 0.38021 0.0
H900 H 0.89421 0.36448 0.41712 0.0
H901 H 0.89268 0.33799 0.48657 0.0
H902 H 0.92604 0.39629 0.37775 0.0
H903 H 0.95611 0.39558 0.31659 0.0
C904 C 0.1614 0.41203 0.35963 0.0
C905 C 0.13091 0.42225 0.35341 0.0
C906 C 0.11542 0.39185 0.45519 0.0
C907 C 0.14556 0.37968 0.45921 0.0
N908 N 0.19921 0.38655 0.43348 0.0
N909 N 0.0842 0.43433 0.41511 0.0
C910 C 0.16936 0.39295 0.41791 0.0
C911 C 0.11 0.41691 0.40922 0.0
N912 N 0.18198 0.41906 0.30762 0.0
N913 N 0.09129 0.37765 0.48775 0.0
H914 H 0.07998 0.45298 0.38178 0.0
H915 H 0.0691 0.43233 0.45776 0.0
H916 H 0.09311 0.35707 0.51541 0.0
H917 H 0.06867 0.38463 0.48077 0.0
H918 H 0.20375 0.40939 0.30461 0.0
H919 H 0.17647 0.43399 0.26605 0.0
H920 H 0.2176 0.39702 0.40784 0.0
H921 H 0.20534 0.37297 0.47699 0.0
C922 C 0.36464 0.39488 0.1002 0.0
C923 C 0.38591 0.37906 0.05632 0.0
C924 C 0.42736 0.40724 0.11266 0.0
C925 C 0.4074 0.41522 0.16836 0.0
N926 N 0.35634 0.41901 0.21488 0.0
N927 N 0.43931 0.36602 0.03389 0.0
C928 C 0.37563 0.41026 0.16162 0.0
C929 C 0.41783 0.38459 0.06434 0.0
N930 N 0.33421 0.39472 0.08357 0.0
N931 N 0.45591 0.41983 0.1085 0.0
H932 H 0.43399 0.34622 1.00589 0.0
H933 H 0.46265 0.36808 0.0447 0.0
H934 H 0.4634 0.43671 0.14379 0.0
H935 H 0.47054 0.41579 0.06573 0.0
H936 H 0.31797 0.40754 0.11111 0.0
H937 H 0.32585 0.38411 0.03774 0.0
H938 H 0.33327 0.41295 0.21649 0.0
H939 H 0.36402 0.43135 0.25901 0.0
C940 C 0.39299 0.60627 0.96589 0.0
C941 C 0.37139 0.63022 0.95933 0.0
C942 C 0.36904 0.62232 0.83123 0.0
C943 C 0.39508 0.60332 0.83657 0.0
N944 N 0.43375 0.57831 0.90864 0.0
N945 N 0.34052 0.66358 0.88498 0.0
C946 C 0.4073 0.59499 0.90384 0.0
C947 C 0.3593 0.63863 0.89197 0.0
N948 N 0.40002 0.5947 0.03143 0.0
N949 N 0.35419 0.62522 0.76765 0.0
H950 H 0.33327 0.67695 0.92761 0.0
H951 H 0.33413 0.67266 0.83593 0.0
H952 H 0.36118 0.61341 0.72219 0.0
H953 H 0.33343 0.63673 0.76191 0.0
H954 H 0.4136 0.5753 0.0389 0.0
H955 H 0.38981 0.60281 0.07793 0.0
H956 H 0.4456 0.57512 0.95611 0.0
H957 H 0.44517 0.56938 0.86476 0.0
C958 C 0.15828 0.59506 0.67107 0.0
C959 C 0.14324 0.61588 0.71737 0.0
C960 C 0.16769 0.65838 0.65529 0.0
C961 C 0.17363 0.63844 0.59812 0.0
N962 N 0.17846 0.5872 0.55224 0.0
N963 N 0.13151 0.66928 0.74675 0.0
C964 C 0.1708 0.6064 0.60667 0.0
C965 C 0.14812 0.64812 0.70965 0.0
N966 N 0.15934 0.56456 0.6878 0.0
N967 N 0.17906 0.6876 0.6551 0.0
H968 H 0.11489 0.66384 0.78374 0.0
H969 H 0.13209 0.69271 0.73527 0.0
H970 H 0.19326 0.69574 0.61468 0.0
H971 H 0.17701 0.70234 0.69851 0.0
H972 H 0.17153 0.54846 0.65825 0.0
H973 H 0.15029 0.55612 0.73535 0.0
H974 H 0.17376 0.56374 0.55246 0.0
H975 H 0.18856 0.59527 0.50553 0.0
C976 C 0.39703 0.11597 0.71011 0.0
C977 C 0.37941 0.14255 0.69844 0.0
C978 C 0.3884 0.13957 0.57122 0.0
C979 C 0.4134 0.12032 0.58748 0.0
N980 N 0.42864 0.07638 0.65621 0.0
N981 N 0.34938 0.17359 0.61948 0.0
C982 C 0.41304 0.10344 0.65171 0.0
C983 C 0.37127 0.15159 0.62872 0.0
N984 N 0.40059 0.105 0.7775 0.0
N985 N 0.38161 0.14612 0.50215 0.0
H986 H 0.33665 0.18188 0.66237 0.0
H987 H 0.34394 0.18347 0.57073 0.0
H988 H 0.39287 0.13506 0.46049 0.0
H989 H 0.36332 0.15981 0.48629 0.0
H990 H 0.41583 0.08756 0.79104 0.0
H991 H 0.38824 0.11418 0.81998 0.0
H992 H 0.42837 0.06227 0.70091 0.0
H993 H 0.4395 0.06698 0.61179 0.0
C994 C 0.14867 0.13875 0.99858 0.0
C995 C 0.12117 0.1233 0.98156 0.0
C996 C 0.13259 0.12718 0.85512 0.0
C997 C 0.15476 0.14954 0.87256 0.0
N998 N 0.19592 0.16082 0.95347 0.0
N999 N 0.08997 0.09611 0.89667 0.0
C1000 C 0.16693 0.15018 0.94225 0.0
C1001 C 0.11456 0.11461 0.91055 0.0
N1002 N 0.15613 0.14397 0.06796 0.0
N1003 N 0.12933 0.11819 0.78607 0.0
H1004 H 0.07737 0.08564 0.93711 0.0
H1005 H 0.08181 0.09145 0.84586 0.0
H1006 H 0.14412 0.12619 0.74655 0.0
H1007 H 0.11441 0.10104 0.76919 0.0
H1008 H 0.17402 0.15824 0.08381 0.0
H1009 H 0.14359 0.13444 0.10973 0.0
H1010 H 0.20672 0.16044 1.0028 0.0
H1011 H 0.21036 0.16641 0.9112 0.0
C1012 C 0.10949 0.89129 0.12474 0.0
C1013 C 0.11787 0.88287 0.05469 0.0
C1014 C 0.15974 0.85221 0.10003 0.0
C1015 C 0.14453 0.85217 0.16634 0.0
N1016 N 0.11888 0.8842 0.25126 0.0
N1017 N 0.15479 0.86213 0.97353 0.0
C1018 C 0.124 0.87617 0.18226 0.0
C1019 C 0.14497 0.86629 0.04163 0.0
N1020 N 0.08624 0.91176 0.13498 0.0
N1021 N 0.18774 0.83862 0.09393 0.0
H1022 H 0.14435 0.87335 0.93083 0.0
H1023 H 0.17258 0.84741 0.9596 0.0
H1024 H 0.19906 0.8297 0.13833 0.0
H1025 H 0.20075 0.83903 0.0476 0.0
H1026 H 0.07669 0.91671 0.18428 0.0
H1027 H 0.07643 0.92375 0.09264 0.0
H1028 H 0.10467 0.90215 0.2668 0.0
H1029 H 0.13165 0.87464 0.29264 0.0
C1030 C 0.392 0.89067 0.29814 0.0
C1031 C 0.37371 0.86798 0.33115 0.0
C1032 C 0.38148 0.89137 0.44622 0.0
C1033 C 0.40734 0.90604 0.41648 0.0
N1034 N 0.4239 0.93593 0.31595 0.0
N1035 N 0.33578 0.86107 0.42241 0.0
C1036 C 0.40814 0.91142 0.34241 0.0
C1037 C 0.36299 0.87328 0.40088 0.0
N1038 N 0.3942 0.89152 0.22594 0.0
N1039 N 0.37601 0.89359 0.51735 0.0
H1040 H 0.32139 0.84968 0.38671 0.0
H1041 H 0.32624 0.86496 0.47226 0.0
H1042 H 0.38876 0.90845 0.54942 0.0
H1043 H 0.35935 0.88088 0.54388 0.0
H1044 H 0.40944 0.90551 0.19832 0.0
H1045 H 0.3799 0.87807 0.19411 0.0
H1046 H 0.42491 0.94143 0.26218 0.0
H1047 H 0.43326 0.95258 0.34948 0.0
C1048 C 0.58852 0.85386 0.42196 0.0
C1049 C 0.5576 0.84579 0.43835 0.0
C1050 C 0.5592 0.80877 0.33838 0.0
C1051 C 0.59126 0.81304 0.33094 0.0
N1052 N 0.63732 0.83751 0.37318 0.0
N1053 N 0.51536 0.81091 0.41685 0.0
C1054 C 0.60615 0.83502 0.37485 0.0
C1055 C 0.54335 0.82213 0.39738 0.0
N1056 N 0.60069 0.88057 0.44763 0.0
N1057 N 0.54363 0.79244 0.28804 0.0
H1058 H 0.50443 0.81689 0.464 0.0
H1059 H 0.5044 0.7931 0.39026 0.0
H1060 H 0.55447 0.7821 0.24482 0.0
H1061 H 0.51982 0.7923 0.28478 0.0
H1062 H 0.62206 0.88889 0.43224 0.0
H1063 H 0.58809 0.89639 0.47708 0.0
H1064 H 0.64969 0.85054 0.40976 0.0
H1065 H 0.65098 0.82458 0.33903 0.0
C1066 C 0.92451 0.82921 0.18298 0.0
C1067 C 0.9173 0.79732 0.17572 0.0
C1068 C 0.94002 0.79975 0.05464 0.0
C1069 C 0.95205 0.82954 0.06883 0.0
N1070 N 0.95773 0.87156 0.15125 0.0
N1071 N 0.90293 0.7605 0.08639 0.0
C1072 C 0.94508 0.84375 0.13463 0.0
C1073 C 0.92101 0.78454 0.10643 0.0
N1074 N 0.90787 0.84708 0.22819 0.0
N1075 N 0.94752 0.78546 0.99246 0.0
H1076 H 0.886 0.75134 0.11915 0.0
H1077 H 0.90136 0.75285 0.03412 0.0
H1078 H 0.96075 0.79604 0.95327 0.0
H1079 H 0.94248 0.76251 0.98199 0.0
H1080 H 0.91088 0.87074 0.23289 0.0
H1081 H 0.88709 0.83961 0.24904 0.0
H1082 H 0.95621 0.88114 0.20191 0.0
H1083 H 0.97162 0.88392 0.11637 0.0
C1084 C 0.95244 0.1918 0.83035 0.0
C1085 C 0.92968 0.21386 0.84817 0.0
C1086 C 0.93722 0.20047 0.97519 0.0
C1087 C 0.95737 0.1761 0.95635 0.0
N1088 N 0.9781 0.14445 0.86269 0.0
N1089 N 0.8961 0.23446 0.93827 0.0
C1090 C 0.96323 0.17064 0.88293 0.0
C1091 C 0.92089 0.21689 0.92087 0.0
N1092 N 0.96496 0.1918 0.7638 0.0
N1093 N 0.93458 0.20901 0.04475 0.0
H1094 H 0.88302 0.24615 0.90065 0.0
H1095 H 0.88677 0.23509 0.98918 0.0
H1096 H 0.94633 0.19803 0.08578 0.0
H1097 H 0.92307 0.22878 0.06083 0.0
H1098 H 0.98379 0.17839 0.75005 0.0
H1099 H 0.95882 0.20759 0.7246 0.0
H1100 H 0.98027 0.13773 0.8098 0.0
H1101 H 0.98522 0.12769 0.89872 0.0
C1102 C 0.58415 0.20624 0.5526 0.0
C1103 C 0.56373 0.18202 0.57089 0.0
C1104 C 0.57339 0.19303 0.69804 0.0
C1105 C 0.59611 0.21509 0.67961 0.0
N1106 N 0.62761 0.23751 0.58767 0.0
N1107 N 0.54436 0.1481 0.66206 0.0
C1108 C 0.60269 0.22029 0.60635 0.0
C1109 C 0.55983 0.17427 0.64397 0.0
N1110 N 0.58511 0.21677 0.48419 0.0
N1111 N 0.56377 0.19069 0.76692 0.0
H1112 H 0.53506 0.1331 0.62464 0.0
H1113 H 0.54353 0.13957 0.71377 0.0
H1114 H 0.57253 0.20429 0.80775 0.0
H1115 H 0.54502 0.17745 0.78228 0.0
H1116 H 0.59702 0.23648 0.46917 0.0
H1117 H 0.57159 0.20764 0.44366 0.0
H1118 H 0.63541 0.23943 0.53555 0.0
H1119 H 0.64246 0.24724 0.62476 0.0
C1120 C 0.94555 0.70338 0.10499 0.0
C1121 C 0.93067 0.69373 0.04244 0.0
C1122 C 0.88558 0.67937 0.11014 0.0
C1123 C 0.90431 0.67943 0.17145 0.0
N1124 N 0.9506 0.69535 0.23164 0.0
N1125 N 0.88424 0.68225 0.98103 0.0
C1126 C 0.93358 0.6935 0.17084 0.0
C1127 C 0.89942 0.68575 0.0438 0.0
N1128 N 0.97155 0.72064 0.10052 0.0
N1129 N 0.85518 0.67246 0.11595 0.0
H1130 H 0.89454 0.68841 0.93306 0.0
H1131 H 0.86209 0.67365 0.9764 0.0
H1132 H 0.84491 0.66816 0.16508 0.0
H1133 H 0.83985 0.67309 0.07364 0.0
H1134 H 0.98258 0.73001 0.14454 0.0
H1135 H 0.97995 0.72832 0.05176 0.0
H1136 H 0.97348 0.70211 0.23249 0.0
H1137 H 0.94211 0.689 0.28126 0.0
C1138 C 0.63307 0.63503 0.37849 0.0
C1139 C 0.64822 0.66304 0.39269 0.0
C1140 C 0.65317 0.64992 0.5173 0.0
C1141 C 0.62962 0.62841 0.50639 0.0
N1142 N 0.60462 0.59228 0.42967 0.0
N1143 N 0.68906 0.68516 0.46176 0.0
C1144 C 0.62303 0.61741 0.43736 0.0
C1145 C 0.66411 0.66638 0.45779 0.0
N1146 N 0.6287 0.62574 0.31005 0.0
N1147 N 0.66245 0.65644 0.58479 0.0
H1148 H 0.69808 0.69569 0.41644 0.0
H1149 H 0.70239 0.68755 0.50733 0.0
H1150 H 0.65438 0.64374 0.62807 0.0
H1151 H 0.67724 0.6744 0.5975 0.0
H1152 H 0.61817 0.60518 0.29592 0.0
H1153 H 0.63861 0.63749 0.26751 0.0
H1154 H 0.59622 0.58446 0.38119 0.0
H1155 H 0.59776 0.57929 0.47359 0.0
C1156 C 0.64401 0.38253 0.58996 0.0
C1157 C 0.61794 0.4007 0.6036 0.0
C1158 C 0.63137 0.40483 0.72826 0.0
C1159 C 0.65048 0.37921 0.71809 0.0
N1160 N 0.6832 0.34969 0.64179 0.0
N1161 N 0.59962 0.44362 0.67171 0.0
C1162 C 0.66037 0.37084 0.64914 0.0
C1163 C 0.61616 0.4171 0.66834 0.0
N1164 N 0.65267 0.37679 0.52164 0.0
N1165 N 0.6258 0.41513 0.79543 0.0
H1166 H 0.58967 0.45316 0.62625 0.0
H1167 H 0.59838 0.45738 0.71685 0.0
H1168 H 0.6376 0.40619 0.83912 0.0
H1169 H 0.60944 0.43169 0.80758 0.0
H1170 H 0.67193 0.36409 0.50778 0.0
H1171 H 0.64198 0.38764 0.47881 0.0
H1172 H 0.68973 0.34005 0.59356 0.0
H1173 H 0.69559 0.34178 0.68562 0.0
C1174 C 0.91297 0.30544 1.00269 0.0
C1175 C 0.9437 0.2959 1.00156 0.0
C1176 C 0.9476 0.30473 0.87589 0.0
C1177 C 0.91995 0.32176 0.8802 0.0
N1178 N 0.871 0.32884 0.93681 0.0
N1179 N 0.98028 0.26739 0.93493 0.0
C1180 C 0.90048 0.31854 0.93999 0.0
C1181 C 0.95705 0.28817 0.9365 0.0
N1182 N 0.89776 0.30507 0.06582 0.0
N1183 N 0.9653 0.30567 0.81624 0.0
H1184 H 0.9874 0.25627 0.98132 0.0
H1185 H 0.98978 0.25929 0.88777 0.0
H1186 H 0.9584 0.317 0.7702 0.0
H1187 H 0.98707 0.29596 0.81359 0.0
H1188 H 0.87586 0.31387 0.07335 0.0
H1189 H 0.90794 0.29552 0.11099 0.0
H1190 H 0.85532 0.32646 0.97803 0.0
H1191 H 0.8618 0.33814 0.89031 0.0
C1192 C 0.07935 0.28732 0.88273 0.0
C1193 C 0.10388 0.3002 0.84271 0.0
C1194 C 0.10096 0.34665 0.91844 0.0
C1195 C 0.07861 0.33235 0.96254 0.0
N1196 N 0.05319 0.28541 0.99623 0.0
N1197 N 0.14317 0.33935 0.83657 0.0
C1198 C 0.06986 0.30155 0.94747 0.0
C1199 C 0.11615 0.32911 0.86451 0.0
N1200 N 0.06396 0.26224 0.8575 0.0
N1201 N 0.1069 0.37731 0.9255 0.0
H1202 H 0.15602 0.32673 0.80026 0.0
H1203 H 0.15455 0.35874 0.85554 0.0
H1204 H 0.09621 0.39115 0.96318 0.0
H1205 H 0.12038 0.38954 0.88957 0.0
H1206 H 0.0445 0.25331 0.88188 0.0
H1207 H 0.06846 0.25241 0.80812 0.0
H1208 H 0.04853 0.26203 0.99131 0.0
H1209 H 0.04726 0.29454 0.04557 0.0
C1210 C 0.43072 0.30361 0.60416 0.0
C1211 C 0.43796 0.30748 0.67753 0.0
C1212 C 0.47389 0.34889 0.64385 0.0
C1213 C 0.46953 0.3423 0.57028 0.0
N1214 N 0.44783 0.30845 0.48202 0.0
N1215 N 0.47133 0.33018 0.76523 0.0
C1216 C 0.44903 0.31829 0.5509 0.0
C1217 C 0.46091 0.32915 0.69678 0.0
N1218 N 0.40541 0.2871 0.58491 0.0
N1219 N 0.48927 0.37486 0.66366 0.0
H1220 H 0.46321 0.31564 0.80504 0.0
H1221 H 0.4902 0.34322 0.78077 0.0
H1222 H 0.49798 0.39061 0.62718 0.0
H1223 H 0.49045 0.38249 0.71606 0.0
H1224 H 0.39728 0.28618 0.53289 0.0
H1225 H 0.39058 0.27709 0.62165 0.0
H1226 H 0.43577 0.28893 0.46631 0.0
H1227 H 0.46135 0.31779 0.44179 0.0
C1228 C 0.4363 0.66785 0.42553 0.0
C1229 C 0.46403 0.67994 0.4545 0.0
C1230 C 0.46257 0.72021 0.36168 0.0
C1231 C 0.43277 0.71095 0.34009 0.0
N1232 N 0.38863 0.67919 0.3649 0.0
N1233 N 0.49921 0.72282 0.45809 0.0
C1234 C 0.41886 0.6857 0.37594 0.0
C1235 C 0.47593 0.70759 0.42472 0.0
N1236 N 0.42728 0.63858 0.44148 0.0
N1237 N 0.479 0.74 0.32037 0.0
H1238 H 0.50795 0.71612 0.50727 0.0
H1239 H 0.50732 0.74408 0.44111 0.0
H1240 H 0.47052 0.74934 0.27324 0.0
H1241 H 0.50226 0.7439 0.32873 0.0
H1242 H 0.40885 0.62786 0.41644 0.0
H1243 H 0.44018 0.62367 0.47274 0.0
H1244 H 0.3767 0.66299 0.39494 0.0
H1245 H 0.37465 0.69214 0.33143 0.0
C1246 C 0.10546 0.70436 0.12491 0.0
C1247 C 0.09648 0.70032 0.19711 0.0
C1248 C 0.05917 0.66113 0.15757 0.0
C1249 C 0.06553 0.66799 0.08489 0.0
N1250 N 0.09085 0.7013 1.00075 0.0
N1251 N 0.0605 0.6785 0.28018 0.0
C1252 C 0.08766 0.69101 0.06898 0.0
C1253 C 0.07215 0.67967 0.21288 0.0
N1254 N 0.13183 0.71994 0.10947 0.0
N1255 N 0.04186 0.63599 0.17434 0.0
H1256 H 0.06898 0.69184 0.32179 0.0
H1257 H 0.0406 0.66652 0.29309 0.0
H1258 H 0.03299 0.62106 0.13621 0.0
H1259 H 0.03904 0.62807 0.22619 0.0
H1260 H 0.14118 0.7209 0.0586 0.0
H1261 H 0.14616 0.72908 0.14847 0.0
H1262 H 0.10427 0.72023 0.98724 0.0
H1263 H 0.07765 0.69311 0.95864 0.0
loop_
_geom_bond_atom_site_label_1
_geom_bond_atom_site_label_2
_geom_bond_distance
_geom_bond_site_symmetry_2
_ccdc_geom_bond_type
Co0 O3 1.970 . S
Co0 N17 1.989 . S
Co0 O25 1.967 . S
Co0 O32 1.920 . S
Co1 O4 1.966 . S
Co1 N10 2.022 . S
Co1 N18 1.993 . S
Co1 O26 1.941 . S
C2 O3 1.258 . S
C2 O4 1.263 . S
O3 Co0 1.970 . S
O3 C2 1.258 . S
O4 Co1 1.966 . S
O4 C2 1.263 . S
C5 O6 1.235 . S
C5 O32 1.289 . S
O6 C5 1.235 . S
C7 C9 1.400 . S
C7 N10 1.351 . S
C7 C12 1.501 . S
C8 C9 1.387 . S
C8 N11 1.341 . S
C9 C7 1.400 . S
C9 C8 1.387 . S
N10 Co1 2.022 . S
N10 C7 1.351 . S
N10 N11 1.365 . S
N11 C8 1.341 . S
N11 N10 1.365 . S
N11 H31 0.862 . S
C12 C7 1.501 . S
C12 H13 0.961 . S
C12 H14 0.961 . S
C12 H15 0.960 . S
H13 C12 0.961 . S
H14 C12 0.961 . S
H15 C12 0.960 . S
C16 N17 1.342 . S
C16 C20 1.401 . S
C16 C21 1.499 . S
N17 Co0 1.989 . S
N17 C16 1.342 . S
N17 N18 1.388 . S
N18 Co1 1.993 . S
N18 N17 1.388 . S
N18 C19 1.346 . S
C19 N18 1.346 . S
C19 C20 1.396 . S
C19 C29 1.510 . S
C20 C16 1.401 . S
C20 C19 1.396 . S
C21 C16 1.499 . S
C21 H22 0.959 . S
C21 H23 0.960 . S
C21 H24 0.961 . S
H22 C21 0.959 . S
H23 C21 0.960 . S
H24 C21 0.961 . S
O25 Co0 1.967 . S
O25 C33 1.258 . S
O26 Co1 1.941 . S
O26 C33 1.266 . S
H27 C29 0.959 . S
H28 C29 0.961 . S
C29 C19 1.510 . S
C29 H27 0.959 . S
C29 H28 0.961 . S
C29 H30 0.960 . S
H30 C29 0.960 . S
H31 N11 0.862 . S
O32 Co0 1.920 . S
O32 C5 1.289 . S
C33 O25 1.258 . S
C33 O26 1.266 . S
Co34 O37 1.970 . S
Co34 N51 1.989 . S
Co34 O59 1.967 . S
Co34 O66 1.920 . S
Co35 O38 1.966 . S
Co35 N44 2.022 . S
Co35 N52 1.993 . S
Co35 O60 1.941 . S
C36 O37 1.258 . S
C36 O38 1.263 . S
O37 Co34 1.970 . S
O37 C36 1.258 . S
O38 Co35 1.966 . S
O38 C36 1.263 . S
C39 O40 1.235 . S
C39 O66 1.289 . S
O40 C39 1.235 . S
C41 C43 1.400 . S
C41 N44 1.351 . S
C41 C46 1.501 . S
C42 C43 1.387 . S
C42 N45 1.341 . S
C43 C41 1.400 . S
C43 C42 1.387 . S
N44 Co35 2.022 . S
N44 C41 1.351 . S
N44 N45 1.365 . S
N45 C42 1.341 . S
N45 N44 1.365 . S
N45 H65 0.862 . S
C46 C41 1.501 . S
C46 H47 0.961 . S
C46 H48 0.961 . S
C46 H49 0.960 . S
H47 C46 0.961 . S
H48 C46 0.961 . S
H49 C46 0.960 . S
C50 N51 1.342 . S
C50 C54 1.401 . S
C50 C55 1.499 . S
N51 Co34 1.989 . S
N51 C50 1.342 . S
N51 N52 1.388 . S
N52 Co35 1.993 . S
N52 N51 1.388 . S
N52 C53 1.346 . S
C53 N52 1.346 . S
C53 C54 1.396 . S
C53 C63 1.510 . S
C54 C50 1.401 . S
C54 C53 1.396 . S
C55 C50 1.499 . S
C55 H56 0.959 . S
C55 H57 0.960 . S
C55 H58 0.961 . S
H56 C55 0.959 . S
H57 C55 0.960 . S
H58 C55 0.961 . S
O59 Co34 1.967 . S
O59 C67 1.258 . S
O60 Co35 1.941 . S
O60 C67 1.266 . S
H61 C63 0.959 . S
H62 C63 0.961 . S
C63 C53 1.510 . S
C63 H61 0.959 . S
C63 H62 0.961 . S
C63 H64 0.960 . S
H64 C63 0.960 . S
H65 N45 0.862 . S
O66 Co34 1.920 . S
O66 C39 1.289 . S
C67 O59 1.258 . S
C67 O60 1.266 . S
Co68 O71 1.950 1_456 S
Co68 N85 1.989 . S
Co68 O93 1.967 . S
Co68 O100 1.920 1_556 S
Co69 O72 1.966 . S
Co69 N78 2.022 . S
Co69 N86 1.993 1_655 S
Co69 O94 1.941 . S
C70 O71 1.282 1_556 S
C70 O72 1.263 . S
O71 Co68 1.950 1_654 S
O71 C70 1.282 1_554 S
O72 Co69 1.966 . S
O72 C70 1.263 . S
C73 O74 1.235 . S
C73 O100 1.289 . S
O74 C73 1.235 . S
C75 C77 1.400 . S
C75 N78 1.351 . S
C75 C80 1.501 . S
C76 C77 1.387 . S
C76 N79 1.341 . S
C77 C75 1.400 . S
C77 C76 1.387 . S
N78 Co69 2.022 . S
N78 C75 1.351 . S
N78 N79 1.365 . S
N79 C76 1.341 . S
N79 N78 1.365 . S
N79 H99 0.862 . S
C80 C75 1.501 . S
C80 H81 0.961 . S
C80 H82 0.961 . S
C80 H83 0.960 . S
H81 C80 0.961 . S
H82 C80 0.961 . S
H83 C80 0.960 . S
C84 N85 1.342 . S
C84 C88 1.401 . S
C84 C89 1.499 . S
N85 Co68 1.989 . S
N85 C84 1.342 . S
N85 N86 1.388 . S
N86 Co69 1.993 1_455 S
N86 N85 1.388 . S
N86 C87 1.346 . S
C87 N86 1.346 . S
C87 C88 1.396 . S
C87 C97 1.510 . S
C88 C84 1.401 . S
C88 C87 1.396 . S
C89 C84 1.499 . S
C89 H90 0.959 . S
C89 H91 0.960 . S
C89 H92 0.961 . S
H90 C89 0.959 . S
H91 C89 0.960 . S
H92 C89 0.961 . S
O93 Co68 1.967 . S
O93 C101 1.258 . S
O94 Co69 1.941 . S
O94 C101 1.266 1_655 S
H95 C97 0.959 . S
H96 C97 0.961 . S
C97 C87 1.510 . S
C97 H95 0.959 . S
C97 H96 0.961 . S
C97 H98 0.960 1_455 S
H98 C97 0.960 1_655 S
H99 N79 0.862 . S
O100 Co68 1.920 1_554 S
O100 C73 1.289 . S
C101 O93 1.258 . S
C101 O94 1.266 1_455 S
Co102 O105 1.970 . S
Co102 N119 1.989 . S
Co102 O127 1.967 . S
Co102 O134 1.920 . S
Co103 O106 1.966 . S
Co103 N112 2.022 . S
Co103 N120 1.993 . S
Co103 O128 1.941 . S
C104 O105 1.258 . S
C104 O106 1.263 . S
O105 Co102 1.970 . S
O105 C104 1.258 . S
O106 Co103 1.966 . S
O106 C104 1.263 . S
C107 O108 1.235 . S
C107 O134 1.289 . S
O108 C107 1.235 . S
C109 C111 1.400 1_554 S
C109 N112 1.351 . S
C109 C114 1.501 . S
C110 C111 1.387 . S
C110 N113 1.341 . S
C111 C109 1.400 1_556 S
C111 C110 1.387 . S
N112 Co103 2.022 . S
N112 C109 1.351 . S
N112 N113 1.365 1_554 S
N113 C110 1.341 . S
N113 N112 1.365 1_556 S
N113 H133 0.862 . S
C114 C109 1.501 . S
C114 H115 0.961 . S
C114 H116 0.961 . S
C114 H117 0.960 . S
H115 C114 0.961 . S
H116 C114 0.961 . S
H117 C114 0.960 . S
C118 N119 1.342 . S
C118 C122 1.401 . S
C118 C123 1.499 . S
N119 Co102 1.989 . S
N119 C118 1.342 . S
N119 N120 1.388 . S
N120 Co103 1.993 . S
N120 N119 1.388 . S
N120 C121 1.346 . S
C121 N120 1.346 . S
C121 C122 1.396 . S
C121 C131 1.510 1_554 S
C122 C118 1.401 . S
C122 C121 1.396 . S
C123 C118 1.499 . S
C123 H124 0.959 . S
C123 H125 0.960 . S
C123 H126 0.961 . S
H124 C123 0.959 . S
H125 C123 0.960 . S
H126 C123 0.961 . S
O127 Co102 1.967 . S
O127 C135 1.258 . S
O128 Co103 1.941 . S
O128 C135 1.266 . S
H129 C131 0.959 . S
H130 C131 0.961 . S
C131 C121 1.510 1_556 S
C131 H129 0.959 . S
C131 H130 0.961 . S
C131 H132 0.960 . S
H132 C131 0.960 . S
H133 N113 0.862 . S
O134 Co102 1.920 . S
O134 C107 1.289 . S
C135 O127 1.258 . S
C135 O128 1.266 . S
Co136 O139 1.970 . S
Co136 N153 1.989 . S
Co136 O161 1.967 . S
Co136 O168 1.920 . S
Co137 O140 1.966 . S
Co137 N146 2.022 . S
Co137 N154 1.993 . S
Co137 O162 1.941 . S
C138 O139 1.258 . S
C138 O140 1.263 . S
O139 Co136 1.970 . S
O139 C138 1.258 . S
O140 Co137 1.966 . S
O140 C138 1.263 . S
C141 O142 1.235 . S
C141 O168 1.289 . S
O142 C141 1.235 . S
C143 C145 1.400 . S
C143 N146 1.351 . S
C143 C148 1.501 . S
C144 C145 1.387 . S
C144 N147 1.341 . S
C145 C143 1.400 . S
C145 C144 1.387 . S
N146 Co137 2.022 . S
N146 C143 1.351 . S
N146 N147 1.365 . S
N147 C144 1.341 . S
N147 N146 1.365 . S
N147 H167 0.862 . S
C148 C143 1.501 . S
C148 H149 0.961 . S
C148 H150 0.961 . S
C148 H151 0.960 . S
H149 C148 0.961 . S
H150 C148 0.961 . S
H151 C148 0.960 . S
C152 N153 1.342 . S
C152 C156 1.401 . S
C152 C157 1.499 . S
N153 Co136 1.989 . S
N153 C152 1.342 . S
N153 N154 1.388 . S
N154 Co137 1.993 . S
N154 N153 1.388 . S
N154 C155 1.346 . S
C155 N154 1.346 . S
C155 C156 1.396 . S
C155 C165 1.510 . S
C156 C152 1.401 . S
C156 C155 1.396 . S
C157 C152 1.499 . S
C157 H158 0.959 . S
C157 H159 0.960 . S
C157 H160 0.961 . S
H158 C157 0.959 . S
H159 C157 0.960 . S
H160 C157 0.961 . S
O161 Co136 1.967 . S
O161 C169 1.258 . S
O162 Co137 1.941 . S
O162 C169 1.266 . S
H163 C165 0.959 . S
H164 C165 0.961 . S
C165 C155 1.510 . S
C165 H163 0.959 . S
C165 H164 0.961 . S
C165 H166 0.960 . S
H166 C165 0.960 . S
H167 N147 0.862 . S
O168 Co136 1.920 . S
O168 C141 1.289 . S
C169 O161 1.258 . S
C169 O162 1.266 . S
Co170 O173 1.970 . S
Co170 N187 1.989 . S
Co170 O195 1.967 . S
Co170 O202 1.920 . S
Co171 O174 1.966 . S
Co171 N180 2.022 . S
Co171 N188 1.993 . S
Co171 O196 1.941 . S
C172 O173 1.258 . S
C172 O174 1.263 . S
O173 Co170 1.970 . S
O173 C172 1.258 . S
O174 Co171 1.966 . S
O174 C172 1.263 . S
C175 O176 1.235 . S
C175 O202 1.289 . S
O176 C175 1.235 . S
C177 C179 1.400 1_556 S
C177 N180 1.351 . S
C177 C182 1.501 . S
C178 C179 1.387 . S
C178 N181 1.341 . S
C179 C177 1.400 1_554 S
C179 C178 1.387 . S
N180 Co171 2.022 . S
N180 C177 1.351 . S
N180 N181 1.365 1_556 S
N181 C178 1.341 . S
N181 N180 1.365 1_554 S
N181 H201 0.862 . S
C182 C177 1.501 . S
C182 H183 0.961 . S
C182 H184 0.961 . S
C182 H185 0.960 . S
H183 C182 0.961 . S
H184 C182 0.961 . S
H185 C182 0.960 . S
C186 N187 1.342 . S
C186 C190 1.401 . S
C186 C191 1.499 . S
N187 Co170 1.989 . S
N187 C186 1.342 . S
N187 N188 1.388 . S
N188 Co171 1.993 . S
N188 N187 1.388 . S
N188 C189 1.346 . S
C189 N188 1.346 . S
C189 C190 1.396 . S
C189 C199 1.510 1_556 S
C190 C186 1.401 . S
C190 C189 1.396 . S
C191 C186 1.499 . S
C191 H192 0.959 . S
C191 H193 0.960 . S
C191 H194 0.961 . S
H192 C191 0.959 . S
H193 C191 0.960 . S
H194 C191 0.961 . S
O195 Co170 1.967 . S
O195 C203 1.258 . S
O196 Co171 1.941 . S
O196 C203 1.266 . S
H197 C199 0.959 . S
H198 C199 0.961 . S
C199 C189 1.510 1_554 S
C199 H197 0.959 . S
C199 H198 0.961 . S
C199 H200 0.960 . S
H200 C199 0.960 . S
H201 N181 0.862 . S
O202 Co170 1.920 . S
O202 C175 1.289 . S
C203 O195 1.258 . S
C203 O196 1.266 . S
Co204 O207 1.950 1_454 S
Co204 N221 1.989 . S
Co204 O229 1.967 . S
Co204 O236 1.920 1_554 S
Co205 O208 1.966 . S
Co205 N214 2.022 . S
Co205 N222 1.993 1_655 S
Co205 O230 1.941 . S
C206 O207 1.282 1_554 S
C206 O208 1.263 . S
O207 Co204 1.950 1_656 S
O207 C206 1.282 1_556 S
O208 Co205 1.966 . S
O208 C206 1.263 . S
C209 O210 1.235 . S
C209 O236 1.289 . S
O210 C209 1.235 . S
C211 C213 1.400 . S
C211 N214 1.351 . S
C211 C216 1.501 . S
C212 C213 1.387 . S
C212 N215 1.341 . S
C213 C211 1.400 . S
C213 C212 1.387 . S
N214 Co205 2.022 . S
N214 C211 1.351 . S
N214 N215 1.365 . S
N215 C212 1.341 . S
N215 N214 1.365 . S
N215 H235 0.862 . S
C216 C211 1.501 . S
C216 H217 0.961 . S
C216 H218 0.961 . S
C216 H219 0.960 . S
H217 C216 0.961 . S
H218 C216 0.961 . S
H219 C216 0.960 . S
C220 N221 1.342 . S
C220 C224 1.401 . S
C220 C225 1.499 . S
N221 Co204 1.989 . S
N221 C220 1.342 . S
N221 N222 1.388 . S
N222 Co205 1.993 1_455 S
N222 N221 1.388 . S
N222 C223 1.346 . S
C223 N222 1.346 . S
C223 C224 1.396 . S
C223 C233 1.510 . S
C224 C220 1.401 . S
C224 C223 1.396 . S
C225 C220 1.499 . S
C225 H226 0.959 . S
C225 H227 0.960 . S
C225 H228 0.961 . S
H226 C225 0.959 . S
H227 C225 0.960 . S
H228 C225 0.961 . S
O229 Co204 1.967 . S
O229 C237 1.258 . S
O230 Co205 1.941 . S
O230 C237 1.266 1_655 S
H231 C233 0.959 . S
H232 C233 0.961 . S
C233 C223 1.510 . S
C233 H231 0.959 . S
C233 H232 0.961 . S
C233 H234 0.960 1_455 S
H234 C233 0.960 1_655 S
H235 N215 0.862 . S
O236 Co204 1.920 1_556 S
O236 C209 1.289 . S
C237 O229 1.258 . S
C237 O230 1.266 1_455 S
Co238 O241 1.970 . S
Co238 N255 1.989 . S
Co238 O263 1.967 . S
Co238 O270 1.920 . S
Co239 O242 1.966 . S
Co239 N248 2.022 . S
Co239 N256 1.993 . S
Co239 O264 1.941 . S
C240 O241 1.258 . S
C240 O242 1.263 . S
O241 Co238 1.970 . S
O241 C240 1.258 . S
O242 Co239 1.966 . S
O242 C240 1.263 . S
C243 O244 1.235 . S
C243 O270 1.289 . S
O244 C243 1.235 . S
C245 C247 1.400 . S
C245 N248 1.351 . S
C245 C250 1.501 . S
C246 C247 1.387 . S
C246 N249 1.341 . S
C247 C245 1.400 . S
C247 C246 1.387 . S
N248 Co239 2.022 . S
N248 C245 1.351 . S
N248 N249 1.365 . S
N249 C246 1.341 . S
N249 N248 1.365 . S
N249 H269 0.862 . S
C250 C245 1.501 . S
C250 H251 0.961 . S
C250 H252 0.961 . S
C250 H253 0.960 . S
H251 C250 0.961 . S
H252 C250 0.961 . S
H253 C250 0.960 . S
C254 N255 1.342 . S
C254 C258 1.401 . S
C254 C259 1.499 . S
N255 Co238 1.989 . S
N255 C254 1.342 . S
N255 N256 1.388 . S
N256 Co239 1.993 . S
N256 N255 1.388 . S
N256 C257 1.346 . S
C257 N256 1.346 . S
C257 C258 1.396 . S
C257 C267 1.510 . S
C258 C254 1.401 . S
C258 C257 1.396 . S
C259 C254 1.499 . S
C259 H260 0.959 . S
C259 H261 0.960 . S
C259 H262 0.961 . S
H260 C259 0.959 . S
H261 C259 0.960 . S
H262 C259 0.961 . S
O263 Co238 1.967 . S
O263 C271 1.258 . S
O264 Co239 1.941 . S
O264 C271 1.266 . S
H265 C267 0.959 . S
H266 C267 0.961 . S
C267 C257 1.510 . S
C267 H265 0.959 . S
C267 H266 0.961 . S
C267 H268 0.960 . S
H268 C267 0.960 . S
H269 N249 0.862 . S
O270 Co238 1.920 . S
O270 C243 1.289 . S
C271 O263 1.258 . S
C271 O264 1.266 . S
Co272 O275 1.970 . S
Co272 N289 1.989 . S
Co272 O297 1.967 . S
Co272 O304 1.920 . S
Co273 O276 1.966 . S
Co273 N282 2.022 . S
Co273 N290 1.993 . S
Co273 O298 1.941 . S
C274 O275 1.258 . S
C274 O276 1.263 . S
O275 Co272 1.970 . S
O275 C274 1.258 . S
O276 Co273 1.966 . S
O276 C274 1.263 . S
C277 O278 1.235 . S
C277 O304 1.289 . S
O278 C277 1.235 . S
C279 C281 1.400 . S
C279 N282 1.351 . S
C279 C284 1.501 . S
C280 C281 1.387 . S
C280 N283 1.341 . S
C281 C279 1.400 . S
C281 C280 1.387 . S
N282 Co273 2.022 . S
N282 C279 1.351 . S
N282 N283 1.365 . S
N283 C280 1.341 . S
N283 N282 1.365 . S
N283 H303 0.862 . S
C284 C279 1.501 . S
C284 H285 0.961 . S
C284 H286 0.961 . S
C284 H287 0.960 . S
H285 C284 0.961 . S
H286 C284 0.961 . S
H287 C284 0.960 . S
C288 N289 1.342 . S
C288 C292 1.401 . S
C288 C293 1.499 . S
N289 Co272 1.989 . S
N289 C288 1.342 . S
N289 N290 1.388 . S
N290 Co273 1.993 . S
N290 N289 1.388 . S
N290 C291 1.346 . S
C291 N290 1.346 . S
C291 C292 1.396 . S
C291 C301 1.510 . S
C292 C288 1.401 . S
C292 C291 1.396 . S
C293 C288 1.499 . S
C293 H294 0.959 . S
C293 H295 0.960 . S
C293 H296 0.961 . S
H294 C293 0.959 . S
H295 C293 0.960 . S
H296 C293 0.961 . S
O297 Co272 1.967 . S
O297 C305 1.258 . S
O298 Co273 1.941 . S
O298 C305 1.266 . S
H299 C301 0.959 . S
H300 C301 0.961 . S
C301 C291 1.510 . S
C301 H299 0.959 . S
C301 H300 0.961 . S
C301 H302 0.960 . S
H302 C301 0.960 . S
H303 N283 0.862 . S
O304 Co272 1.920 . S
O304 C277 1.289 . S
C305 O297 1.258 . S
C305 O298 1.266 . S
Co306 O309 1.970 . S
Co306 N323 1.989 . S
Co306 O331 1.967 . S
Co306 O338 1.920 . S
Co307 O310 1.966 . S
Co307 N316 2.022 . S
Co307 N324 1.993 . S
Co307 O332 1.941 . S
C308 O309 1.258 . S
C308 O310 1.263 . S
O309 Co306 1.970 . S
O309 C308 1.258 . S
O310 Co307 1.966 . S
O310 C308 1.263 . S
C311 O312 1.235 . S
C311 O338 1.289 . S
O312 C311 1.235 . S
C313 C315 1.400 1_556 S
C313 N316 1.351 . S
C313 C318 1.501 . S
C314 C315 1.387 . S
C314 N317 1.341 . S
C315 C313 1.400 1_554 S
C315 C314 1.387 . S
N316 Co307 2.022 . S
N316 C313 1.351 . S
N316 N317 1.365 1_556 S
N317 C314 1.341 . S
N317 N316 1.365 1_554 S
N317 H337 0.862 . S
C318 C313 1.501 . S
C318 H319 0.961 . S
C318 H320 0.961 . S
C318 H321 0.960 . S
H319 C318 0.961 . S
H320 C318 0.961 . S
H321 C318 0.960 . S
C322 N323 1.342 . S
C322 C326 1.401 . S
C322 C327 1.499 . S
N323 Co306 1.989 . S
N323 C322 1.342 . S
N323 N324 1.388 . S
N324 Co307 1.993 . S
N324 N323 1.388 . S
N324 C325 1.346 . S
C325 N324 1.346 . S
C325 C326 1.396 . S
C325 C335 1.510 1_556 S
C326 C322 1.401 . S
C326 C325 1.396 . S
C327 C322 1.499 . S
C327 H328 0.959 . S
C327 H329 0.960 . S
C327 H330 0.961 . S
H328 C327 0.959 . S
H329 C327 0.960 . S
H330 C327 0.961 . S
O331 Co306 1.967 . S
O331 C339 1.258 . S
O332 Co307 1.941 . S
O332 C339 1.266 . S
H333 C335 0.959 . S
H334 C335 0.961 . S
C335 C325 1.510 1_554 S
C335 H333 0.959 . S
C335 H334 0.961 . S
C335 H336 0.960 . S
H336 C335 0.960 . S
H337 N317 0.862 . S
O338 Co306 1.920 . S
O338 C311 1.289 . S
C339 O331 1.258 . S
C339 O332 1.266 . S
Co340 O343 1.970 . S
Co340 N357 1.989 . S
Co340 O365 1.967 . S
Co340 O372 1.920 . S
Co341 O344 1.966 . S
Co341 N350 2.022 . S
Co341 N358 1.993 . S
Co341 O366 1.941 . S
C342 O343 1.258 . S
C342 O344 1.263 . S
O343 Co340 1.970 . S
O343 C342 1.258 . S
O344 Co341 1.966 . S
O344 C342 1.263 . S
C345 O346 1.235 . S
C345 O372 1.289 . S
O346 C345 1.235 . S
C347 C349 1.400 1_554 S
C347 N350 1.351 . S
C347 C352 1.501 . S
C348 C349 1.387 . S
C348 N351 1.341 . S
C349 C347 1.400 1_556 S
C349 C348 1.387 . S
N350 Co341 2.022 . S
N350 C347 1.351 . S
N350 N351 1.365 1_554 S
N351 C348 1.341 . S
N351 N350 1.365 1_556 S
N351 H371 0.862 . S
C352 C347 1.501 . S
C352 H353 0.961 . S
C352 H354 0.961 . S
C352 H355 0.960 . S
H353 C352 0.961 . S
H354 C352 0.961 . S
H355 C352 0.960 . S
C356 N357 1.342 . S
C356 C360 1.401 . S
C356 C361 1.499 . S
N357 Co340 1.989 . S
N357 C356 1.342 . S
N357 N358 1.388 . S
N358 Co341 1.993 . S
N358 N357 1.388 . S
N358 C359 1.346 . S
C359 N358 1.346 . S
C359 C360 1.396 . S
C359 C369 1.510 1_554 S
C360 C356 1.401 . S
C360 C359 1.396 . S
C361 C356 1.499 . S
C361 H362 0.959 . S
C361 H363 0.960 . S
C361 H364 0.961 . S
H362 C361 0.959 . S
H363 C361 0.960 . S
H364 C361 0.961 . S
O365 Co340 1.967 . S
O365 C373 1.258 . S
O366 Co341 1.941 . S
O366 C373 1.266 . S
H367 C369 0.959 . S
H368 C369 0.961 . S
C369 C359 1.510 1_556 S
C369 H367 0.959 . S
C369 H368 0.961 . S
C369 H370 0.960 . S
H370 C369 0.960 . S
H371 N351 0.862 . S
O372 Co340 1.920 . S
O372 C345 1.289 . S
C373 O365 1.258 . S
C373 O366 1.266 . S
Co374 O377 1.970 . S
Co374 N391 1.989 . S
Co374 O399 1.967 . S
Co374 O406 1.920 . S
Co375 O378 1.966 . S
Co375 N384 2.022 . S
Co375 N392 1.993 . S
Co375 O400 1.941 . S
C376 O377 1.258 . S
C376 O378 1.263 . S
O377 Co374 1.970 . S
O377 C376 1.258 . S
O378 Co375 1.966 . S
O378 C376 1.263 . S
C379 O380 1.235 . S
C379 O406 1.289 . S
O380 C379 1.235 . S
C381 C383 1.400 . S
C381 N384 1.351 . S
C381 C386 1.501 . S
C382 C383 1.387 . S
C382 N385 1.341 . S
C383 C381 1.400 . S
C383 C382 1.387 . S
N384 Co375 2.022 . S
N384 C381 1.351 . S
N384 N385 1.365 . S
N385 C382 1.341 . S
N385 N384 1.365 . S
N385 H405 0.862 . S
C386 C381 1.501 . S
C386 H387 0.961 . S
C386 H388 0.961 . S
C386 H389 0.960 . S
H387 C386 0.961 . S
H388 C386 0.961 . S
H389 C386 0.960 . S
C390 N391 1.342 . S
C390 C394 1.401 . S
C390 C395 1.499 . S
N391 Co374 1.989 . S
N391 C390 1.342 . S
N391 N392 1.388 . S
N392 Co375 1.993 . S
N392 N391 1.388 . S
N392 C393 1.346 . S
C393 N392 1.346 . S
C393 C394 1.396 . S
C393 C403 1.510 . S
C394 C390 1.401 . S
C394 C393 1.396 . S
C395 C390 1.499 . S
C395 H396 0.959 . S
C395 H397 0.960 . S
C395 H398 0.961 . S
H396 C395 0.959 . S
H397 C395 0.960 . S
H398 C395 0.961 . S
O399 Co374 1.967 . S
O399 C407 1.258 . S
O400 Co375 1.941 . S
O400 C407 1.266 . S
H401 C403 0.959 . S
H402 C403 0.961 . S
C403 C393 1.510 . S
C403 H401 0.959 . S
C403 H402 0.961 . S
C403 H404 0.960 . S
H404 C403 0.960 . S
H405 N385 0.862 . S
O406 Co374 1.920 . S
O406 C379 1.289 . S
C407 O399 1.258 . S
C407 O400 1.266 . S
Co408 O411 1.970 1_656 S
Co408 N425 1.989 . S
Co408 O433 1.967 1_655 S
Co408 O440 1.920 1_556 S
Co409 O412 1.966 . S
Co409 N418 2.022 . S
Co409 N426 1.991 1_455 S
Co409 O434 1.941 . S
C410 O411 1.258 1_556 S
C410 O412 1.263 . S
O411 Co408 1.970 1_454 S
O411 C410 1.258 1_554 S
O412 Co409 1.966 . S
O412 C410 1.263 . S
C413 O414 1.235 . S
C413 O440 1.289 . S
O414 C413 1.235 . S
C415 C417 1.400 . S
C415 N418 1.351 . S
C415 C420 1.501 . S
C416 C417 1.387 . S
C416 N419 1.341 . S
C417 C415 1.400 . S
C417 C416 1.387 . S
N418 Co409 2.022 . S
N418 C415 1.351 . S
N418 N419 1.365 . S
N419 C416 1.341 . S
N419 N418 1.365 . S
N419 H439 0.862 . S
C420 C415 1.501 . S
C420 H421 0.961 . S
C420 H422 0.961 . S
C420 H423 0.960 . S
H421 C420 0.961 . S
H422 C420 0.961 . S
H423 C420 0.960 . S
C424 N425 1.342 . S
C424 C428 1.401 . S
C424 C429 1.499 . S
N425 Co408 1.989 . S
N425 C424 1.342 . S
N425 N426 1.390 . S
N426 Co409 1.991 1_655 S
N426 N425 1.390 . S
N426 C427 1.347 . S
C427 N426 1.347 . S
C427 C428 1.396 . S
C427 C437 1.510 1_655 S
C428 C424 1.401 . S
C428 C427 1.396 . S
C429 C424 1.499 . S
C429 H430 0.959 . S
C429 H431 0.960 . S
C429 H432 0.961 . S
H430 C429 0.959 . S
H431 C429 0.960 . S
H432 C429 0.961 . S
O433 Co408 1.967 1_455 S
O433 C441 1.258 . S
O434 Co409 1.941 . S
O434 C441 1.266 . S
H435 C437 0.959 1_655 S
H436 C437 0.961 . S
C437 C427 1.510 1_455 S
C437 H435 0.959 1_455 S
C437 H436 0.961 . S
C437 H438 0.960 . S
H438 C437 0.960 . S
H439 N419 0.862 . S
O440 Co408 1.920 1_554 S
O440 C413 1.289 . S
C441 O433 1.258 . S
C441 O434 1.266 . S
Co442 O445 1.970 . S
Co442 N459 1.989 . S
Co442 O467 1.967 . S
Co442 O474 1.920 . S
Co443 O446 1.966 . S
Co443 N452 2.022 . S
Co443 N460 1.993 . S
Co443 O468 1.941 . S
C444 O445 1.258 . S
C444 O446 1.263 . S
O445 Co442 1.970 . S
O445 C444 1.258 . S
O446 Co443 1.966 . S
O446 C444 1.263 . S
C447 O448 1.235 . S
C447 O474 1.289 . S
O448 C447 1.235 . S
C449 C451 1.400 . S
C449 N452 1.351 . S
C449 C454 1.501 . S
C450 C451 1.387 . S
C450 N453 1.341 . S
C451 C449 1.400 . S
C451 C450 1.387 . S
N452 Co443 2.022 . S
N452 C449 1.351 . S
N452 N453 1.365 . S
N453 C450 1.341 . S
N453 N452 1.365 . S
N453 H473 0.862 . S
C454 C449 1.501 . S
C454 H455 0.961 . S
C454 H456 0.961 . S
C454 H457 0.960 . S
H455 C454 0.961 . S
H456 C454 0.961 . S
H457 C454 0.960 . S
C458 N459 1.342 . S
C458 C462 1.401 . S
C458 C463 1.499 . S
N459 Co442 1.989 . S
N459 C458 1.342 . S
N459 N460 1.388 . S
N460 Co443 1.993 . S
N460 N459 1.388 . S
N460 C461 1.346 . S
C461 N460 1.346 . S
C461 C462 1.396 . S
C461 C471 1.510 . S
C462 C458 1.401 . S
C462 C461 1.396 . S
C463 C458 1.499 . S
C463 H464 0.959 . S
C463 H465 0.960 . S
C463 H466 0.961 . S
H464 C463 0.959 . S
H465 C463 0.960 . S
H466 C463 0.961 . S
O467 Co442 1.967 . S
O467 C475 1.258 . S
O468 Co443 1.941 . S
O468 C475 1.266 . S
H469 C471 0.959 . S
H470 C471 0.961 . S
C471 C461 1.510 . S
C471 H469 0.959 . S
C471 H470 0.961 . S
C471 H472 0.960 . S
H472 C471 0.960 . S
H473 N453 0.862 . S
O474 Co442 1.920 . S
O474 C447 1.289 . S
C475 O467 1.258 . S
C475 O468 1.266 . S
Co476 O479 1.970 1_654 S
Co476 N493 1.989 . S
Co476 O501 1.967 1_655 S
Co476 O508 1.920 1_554 S
Co477 O480 1.966 . S
Co477 N486 2.022 . S
Co477 N494 1.991 1_455 S
Co477 O502 1.941 . S
C478 O479 1.258 1_554 S
C478 O480 1.263 . S
O479 Co476 1.970 1_456 S
O479 C478 1.258 1_556 S
O480 Co477 1.966 . S
O480 C478 1.263 . S
C481 O482 1.235 . S
C481 O508 1.289 . S
O482 C481 1.235 . S
C483 C485 1.400 . S
C483 N486 1.351 . S
C483 C488 1.501 . S
C484 C485 1.387 . S
C484 N487 1.341 . S
C485 C483 1.400 . S
C485 C484 1.387 . S
N486 Co477 2.022 . S
N486 C483 1.351 . S
N486 N487 1.365 . S
N487 C484 1.341 . S
N487 N486 1.365 . S
N487 H507 0.862 . S
C488 C483 1.501 . S
C488 H489 0.961 . S
C488 H490 0.961 . S
C488 H491 0.960 . S
H489 C488 0.961 . S
H490 C488 0.961 . S
H491 C488 0.960 . S
C492 N493 1.342 . S
C492 C496 1.401 . S
C492 C497 1.499 . S
N493 Co476 1.989 . S
N493 C492 1.342 . S
N493 N494 1.390 . S
N494 Co477 1.991 1_655 S
N494 N493 1.390 . S
N494 C495 1.347 . S
C495 N494 1.347 . S
C495 C496 1.396 . S
C495 C505 1.510 1_655 S
C496 C492 1.401 . S
C496 C495 1.396 . S
C497 C492 1.499 . S
C497 H498 0.959 . S
C497 H499 0.960 . S
C497 H500 0.961 . S
H498 C497 0.959 . S
H499 C497 0.960 . S
H500 C497 0.961 . S
O501 Co476 1.967 1_455 S
O501 C509 1.258 . S
O502 Co477 1.941 . S
O502 C509 1.266 . S
H503 C505 0.959 1_655 S
H504 C505 0.961 . S
C505 C495 1.510 1_455 S
C505 H503 0.959 1_455 S
C505 H504 0.961 . S
C505 H506 0.960 . S
H506 C505 0.960 . S
H507 N487 0.862 . S
O508 Co476 1.920 1_556 S
O508 C481 1.289 . S
C509 O501 1.258 . S
C509 O502 1.266 . S
Co510 O513 1.970 . S
Co510 N527 1.989 . S
Co510 O535 1.967 . S
Co510 O542 1.920 . S
Co511 O514 1.966 . S
Co511 N520 2.022 . S
Co511 N528 1.993 . S
Co511 O536 1.941 . S
C512 O513 1.258 . S
C512 O514 1.263 . S
O513 Co510 1.970 . S
O513 C512 1.258 . S
O514 Co511 1.966 . S
O514 C512 1.263 . S
C515 O516 1.235 . S
C515 O542 1.289 . S
O516 C515 1.235 . S
C517 C519 1.400 . S
C517 N520 1.351 . S
C517 C522 1.501 . S
C518 C519 1.387 . S
C518 N521 1.341 . S
C519 C517 1.400 . S
C519 C518 1.387 . S
N520 Co511 2.022 . S
N520 C517 1.351 . S
N520 N521 1.365 . S
N521 C518 1.341 . S
N521 N520 1.365 . S
N521 H541 0.862 . S
C522 C517 1.501 . S
C522 H523 0.961 . S
C522 H524 0.961 . S
C522 H525 0.960 . S
H523 C522 0.961 . S
H524 C522 0.961 . S
H525 C522 0.960 . S
C526 N527 1.342 . S
C526 C530 1.401 . S
C526 C531 1.499 . S
N527 Co510 1.989 . S
N527 C526 1.342 . S
N527 N528 1.388 . S
N528 Co511 1.993 . S
N528 N527 1.388 . S
N528 C529 1.346 . S
C529 N528 1.346 . S
C529 C530 1.396 . S
C529 C539 1.510 . S
C530 C526 1.401 . S
C530 C529 1.396 . S
C531 C526 1.499 . S
C531 H532 0.959 . S
C531 H533 0.960 . S
C531 H534 0.961 . S
H532 C531 0.959 . S
H533 C531 0.960 . S
H534 C531 0.961 . S
O535 Co510 1.967 . S
O535 C543 1.258 . S
O536 Co511 1.941 . S
O536 C543 1.266 . S
H537 C539 0.959 . S
H538 C539 0.961 . S
C539 C529 1.510 . S
C539 H537 0.959 . S
C539 H538 0.961 . S
C539 H540 0.960 . S
H540 C539 0.960 . S
H541 N521 0.862 . S
O542 Co510 1.920 . S
O542 C515 1.289 . S
C543 O535 1.258 . S
C543 O536 1.266 . S
C544 C545 1.363 . S
C544 C550 1.379 . S
C544 N552 1.356 . S
C545 C544 1.363 . S
C545 C551 1.363 1_545 S
C546 C547 1.363 . S
C546 C551 1.379 . S
C546 N553 1.356 . S
C547 C546 1.363 . S
C547 C550 1.363 1_565 S
N548 C550 1.356 . S
N548 H560 0.984 . S
N548 H561 0.985 1_545 S
N549 C551 1.356 . S
N549 H554 0.984 1_565 S
N549 H555 0.985 . S
C550 C544 1.379 . S
C550 C547 1.363 1_545 S
C550 N548 1.356 . S
C551 C545 1.363 1_565 S
C551 C546 1.379 . S
C551 N549 1.356 . S
N552 C544 1.356 . S
N552 H558 0.984 . S
N552 H559 0.984 . S
N553 C546 1.356 . S
N553 H556 0.984 . S
N553 H557 0.985 . S
H554 N549 0.984 1_545 S
H555 N549 0.985 . S
H556 N553 0.984 . S
H557 N553 0.985 . S
H558 N552 0.984 . S
H559 N552 0.984 . S
H560 N548 0.984 . S
H561 N548 0.985 1_565 S
C562 C563 1.363 . S
C562 C568 1.379 . S
C562 N570 1.356 . S
C563 C562 1.363 . S
C563 C569 1.363 . S
C564 C565 1.363 . S
C564 C569 1.379 . S
C564 N571 1.356 . S
C565 C564 1.363 . S
C565 C568 1.363 . S
N566 C568 1.356 . S
N566 H578 0.984 . S
N566 H579 0.985 . S
N567 C569 1.356 . S
N567 H572 0.984 . S
N567 H573 0.985 . S
C568 C562 1.379 . S
C568 C565 1.363 . S
C568 N566 1.356 . S
C569 C563 1.363 . S
C569 C564 1.379 . S
C569 N567 1.356 . S
N570 C562 1.356 . S
N570 H576 0.984 . S
N570 H577 0.984 . S
N571 C564 1.356 . S
N571 H574 0.984 . S
N571 H575 0.985 . S
H572 N567 0.984 . S
H573 N567 0.985 . S
H574 N571 0.984 . S
H575 N571 0.985 . S
H576 N570 0.984 . S
H577 N570 0.984 . S
H578 N566 0.984 . S
H579 N566 0.985 . S
C580 C581 1.363 1_556 S
C580 C586 1.379 . S
C580 N588 1.356 1_556 S
C581 C580 1.363 1_554 S
C581 C587 1.363 1_545 S
C582 C583 1.363 1_554 S
C582 C587 1.379 . S
C582 N589 1.356 1_554 S
C583 C582 1.363 1_556 S
C583 C586 1.363 1_565 S
N584 C586 1.356 . S
N584 H596 0.984 . S
N584 H597 0.985 . S
N585 C587 1.356 . S
N585 H590 0.984 . S
N585 H591 0.985 . S
C586 C580 1.379 . S
C586 C583 1.363 1_545 S
C586 N584 1.356 . S
C587 C581 1.363 1_565 S
C587 C582 1.379 . S
C587 N585 1.356 . S
N588 C580 1.356 1_554 S
N588 H594 0.984 1_554 S
N588 H595 0.984 . S
N589 C582 1.356 1_556 S
N589 H592 0.984 . S
N589 H593 0.985 1_556 S
H590 N585 0.984 . S
H591 N585 0.985 . S
H592 N589 0.984 . S
H593 N589 0.985 1_554 S
H594 N588 0.984 1_556 S
H595 N588 0.984 . S
H596 N584 0.984 . S
H597 N584 0.985 . S
C598 C599 1.363 . S
C598 C604 1.379 . S
C598 N606 1.356 . S
C599 C598 1.363 . S
C599 C605 1.363 . S
C600 C601 1.363 . S
C600 C605 1.379 . S
C600 N607 1.356 . S
C601 C600 1.363 . S
C601 C604 1.363 . S
N602 C604 1.356 . S
N602 H614 0.984 . S
N602 H615 0.985 . S
N603 C605 1.356 . S
N603 H608 0.984 . S
N603 H609 0.985 . S
C604 C598 1.379 . S
C604 C601 1.363 . S
C604 N602 1.356 . S
C605 C599 1.363 . S
C605 C600 1.379 . S
C605 N603 1.356 . S
N606 C598 1.356 . S
N606 H612 0.984 . S
N606 H613 0.984 . S
N607 C600 1.356 . S
N607 H610 0.984 . S
N607 H611 0.985 . S
H608 N603 0.984 . S
H609 N603 0.985 . S
H610 N607 0.984 . S
H611 N607 0.985 . S
H612 N606 0.984 . S
H613 N606 0.984 . S
H614 N602 0.984 . S
H615 N602 0.985 . S
C616 C617 1.363 . S
C616 C622 1.379 . S
C616 N624 1.356 . S
C617 C616 1.363 . S
C617 C623 1.363 . S
C618 C619 1.363 . S
C618 C623 1.379 . S
C618 N625 1.356 . S
C619 C618 1.363 . S
C619 C622 1.363 . S
N620 C622 1.356 . S
N620 H632 0.984 . S
N620 H633 0.985 . S
N621 C623 1.356 . S
N621 H626 0.984 . S
N621 H627 0.985 . S
C622 C616 1.379 . S
C622 C619 1.363 . S
C622 N620 1.356 . S
C623 C617 1.363 . S
C623 C618 1.379 . S
C623 N621 1.356 . S
N624 C616 1.356 . S
N624 H630 0.984 . S
N624 H631 0.984 . S
N625 C618 1.356 . S
N625 H628 0.984 . S
N625 H629 0.985 . S
H626 N621 0.984 . S
H627 N621 0.985 . S
H628 N625 0.984 . S
H629 N625 0.985 . S
H630 N624 0.984 . S
H631 N624 0.984 . S
H632 N620 0.984 . S
H633 N620 0.985 . S
C634 C635 1.363 . S
C634 C640 1.379 . S
C634 N642 1.356 . S
C635 C634 1.363 . S
C635 C641 1.363 . S
C636 C637 1.363 . S
C636 C641 1.379 . S
C636 N643 1.356 . S
C637 C636 1.363 . S
C637 C640 1.363 . S
N638 C640 1.356 . S
N638 H650 0.984 . S
N638 H651 0.985 . S
N639 C641 1.356 . S
N639 H644 0.984 . S
N639 H645 0.985 . S
C640 C634 1.379 . S
C640 C637 1.363 . S
C640 N638 1.356 . S
C641 C635 1.363 . S
C641 C636 1.379 . S
C641 N639 1.356 . S
N642 C634 1.356 . S
N642 H648 0.984 . S
N642 H649 0.984 . S
N643 C636 1.356 . S
N643 H646 0.984 . S
N643 H647 0.985 . S
H644 N639 0.984 . S
H645 N639 0.985 . S
H646 N643 0.984 . S
H647 N643 0.985 . S
H648 N642 0.984 . S
H649 N642 0.984 . S
H650 N638 0.984 . S
H651 N638 0.985 . S
C652 C653 1.363 1_655 S
C652 C658 1.379 1_556 S
C652 N660 1.356 . S
C653 C652 1.363 1_455 S
C653 C659 1.363 . S
C654 C655 1.363 . S
C654 C659 1.379 1_554 S
C654 N661 1.356 . S
C655 C654 1.363 . S
C655 C658 1.363 1_455 S
N656 C658 1.356 . S
N656 H668 0.984 . S
N656 H669 0.985 . S
N657 C659 1.356 . S
N657 H662 0.984 . S
N657 H663 0.985 . S
C658 C652 1.379 1_554 S
C658 C655 1.363 1_655 S
C658 N656 1.356 . S
C659 C653 1.363 . S
C659 C654 1.379 1_556 S
C659 N657 1.356 . S
N660 C652 1.356 . S
N660 H666 0.984 . S
N660 H667 0.984 . S
N661 C654 1.356 . S
N661 H664 0.984 . S
N661 H665 0.985 . S
H662 N657 0.984 . S
H663 N657 0.985 . S
H664 N661 0.984 . S
H665 N661 0.985 . S
H666 N660 0.984 . S
H667 N660 0.984 . S
H668 N656 0.984 . S
H669 N656 0.985 . S
C670 C671 1.363 . S
C670 C676 1.379 . S
C670 N678 1.356 . S
C671 C670 1.363 . S
C671 C677 1.363 . S
C672 C673 1.363 . S
C672 C677 1.379 . S
C672 N679 1.356 . S
C673 C672 1.363 . S
C673 C676 1.363 . S
N674 C676 1.356 . S
N674 H686 0.984 . S
N674 H687 0.985 . S
N675 C677 1.356 . S
N675 H680 0.984 . S
N675 H681 0.985 . S
C676 C670 1.379 . S
C676 C673 1.363 . S
C676 N674 1.356 . S
C677 C671 1.363 . S
C677 C672 1.379 . S
C677 N675 1.356 . S
N678 C670 1.356 . S
N678 H684 0.984 . S
N678 H685 0.984 . S
N679 C672 1.356 . S
N679 H682 0.984 . S
N679 H683 0.985 . S
H680 N675 0.984 . S
H681 N675 0.985 . S
H682 N679 0.984 . S
H683 N679 0.985 . S
H684 N678 0.984 . S
H685 N678 0.984 . S
H686 N674 0.984 . S
H687 N674 0.985 . S
C688 C689 1.363 . S
C688 C694 1.379 . S
C688 N696 1.356 . S
C689 C688 1.363 . S
C689 C695 1.363 . S
C690 C691 1.363 . S
C690 C695 1.379 . S
C690 N697 1.356 . S
C691 C690 1.363 . S
C691 C694 1.363 . S
N692 C694 1.355 1_556 S
N692 H704 0.985 . S
N692 H705 0.985 . S
N693 C695 1.356 . S
N693 H698 0.984 . S
N693 H699 0.985 . S
C694 C688 1.379 . S
C694 C691 1.363 . S
C694 N692 1.355 1_554 S
C695 C689 1.363 . S
C695 C690 1.379 . S
C695 N693 1.356 . S
N696 C688 1.356 . S
N696 H702 0.984 . S
N696 H703 0.984 . S
N697 C690 1.356 . S
N697 H700 0.984 . S
N697 H701 0.985 . S
H698 N693 0.984 . S
H699 N693 0.985 . S
H700 N697 0.984 . S
H701 N697 0.985 . S
H702 N696 0.984 . S
H703 N696 0.984 . S
H704 N692 0.985 . S
H705 N692 0.985 . S
C706 C707 1.363 . S
C706 C712 1.379 . S
C706 N714 1.356 . S
C707 C706 1.363 . S
C707 C713 1.363 . S
C708 C709 1.363 . S
C708 C713 1.379 . S
C708 N715 1.356 . S
C709 C708 1.363 . S
C709 C712 1.363 . S
N710 C712 1.356 . S
N710 H722 0.984 . S
N710 H723 0.985 . S
N711 C713 1.356 . S
N711 H716 0.984 . S
N711 H717 0.985 . S
C712 C706 1.379 . S
C712 C709 1.363 . S
C712 N710 1.356 . S
C713 C707 1.363 . S
C713 C708 1.379 . S
C713 N711 1.356 . S
N714 C706 1.356 . S
N714 H720 0.984 . S
N714 H721 0.984 . S
N715 C708 1.356 . S
N715 H718 0.984 . S
N715 H719 0.985 . S
H716 N711 0.984 . S
H717 N711 0.985 . S
H718 N715 0.984 . S
H719 N715 0.985 . S
H720 N714 0.984 . S
H721 N714 0.984 . S
H722 N710 0.984 . S
H723 N710 0.985 . S
C724 C725 1.363 . S
C724 C730 1.379 . S
C724 N732 1.356 . S
C725 C724 1.363 . S
C725 C731 1.363 . S
C726 C727 1.363 . S
C726 C731 1.379 . S
C726 N733 1.356 . S
C727 C726 1.363 . S
C727 C730 1.363 . S
N728 C730 1.356 . S
N728 H740 0.984 . S
N728 H741 0.985 . S
N729 C731 1.356 . S
N729 H734 0.984 . S
N729 H735 0.985 . S
C730 C724 1.379 . S
C730 C727 1.363 . S
C730 N728 1.356 . S
C731 C725 1.363 . S
C731 C726 1.379 . S
C731 N729 1.356 . S
N732 C724 1.356 . S
N732 H738 0.984 . S
N732 H739 0.984 . S
N733 C726 1.356 . S
N733 H736 0.984 . S
N733 H737 0.985 . S
H734 N729 0.984 . S
H735 N729 0.985 . S
H736 N733 0.984 . S
H737 N733 0.985 . S
H738 N732 0.984 . S
H739 N732 0.984 . S
H740 N728 0.984 . S
H741 N728 0.985 . S
C742 C743 1.363 . S
C742 C748 1.379 . S
C742 N750 1.356 . S
C743 C742 1.363 . S
C743 C749 1.363 . S
C744 C745 1.363 . S
C744 C749 1.379 . S
C744 N751 1.356 . S
C745 C744 1.363 . S
C745 C748 1.363 . S
N746 C748 1.356 . S
N746 H758 0.984 . S
N746 H759 0.985 . S
N747 C749 1.356 . S
N747 H752 0.984 . S
N747 H753 0.985 . S
C748 C742 1.379 . S
C748 C745 1.363 . S
C748 N746 1.356 . S
C749 C743 1.363 . S
C749 C744 1.379 . S
C749 N747 1.356 . S
N750 C742 1.356 . S
N750 H756 0.984 . S
N750 H757 0.984 . S
N751 C744 1.356 . S
N751 H754 0.984 . S
N751 H755 0.985 . S
H752 N747 0.984 . S
H753 N747 0.985 . S
H754 N751 0.984 . S
H755 N751 0.985 . S
H756 N750 0.984 . S
H757 N750 0.984 . S
H758 N746 0.984 . S
H759 N746 0.985 . S
C760 C761 1.363 . S
C760 C766 1.379 . S
C760 N768 1.356 . S
C761 C760 1.363 . S
C761 C767 1.363 . S
C762 C763 1.363 . S
C762 C767 1.379 . S
C762 N769 1.356 . S
C763 C762 1.363 . S
C763 C766 1.363 . S
N764 C766 1.356 . S
N764 H776 0.984 . S
N764 H777 0.985 . S
N765 C767 1.356 . S
N765 H770 0.984 . S
N765 H771 0.985 . S
C766 C760 1.379 . S
C766 C763 1.363 . S
C766 N764 1.356 . S
C767 C761 1.363 . S
C767 C762 1.379 . S
C767 N765 1.356 . S
N768 C760 1.356 . S
N768 H774 0.984 . S
N768 H775 0.984 . S
N769 C762 1.356 . S
N769 H772 0.984 . S
N769 H773 0.985 . S
H770 N765 0.984 . S
H771 N765 0.985 . S
H772 N769 0.984 . S
H773 N769 0.985 . S
H774 N768 0.984 . S
H775 N768 0.984 . S
H776 N764 0.984 . S
H777 N764 0.985 . S
C778 C779 1.363 . S
C778 C784 1.379 . S
C778 N786 1.356 . S
C779 C778 1.363 . S
C779 C785 1.363 . S
C780 C781 1.363 . S
C780 C785 1.379 . S
C780 N787 1.356 . S
C781 C780 1.363 . S
C781 C784 1.363 . S
N782 C784 1.356 . S
N782 H794 0.984 . S
N782 H795 0.985 . S
N783 C785 1.356 . S
N783 H788 0.984 . S
N783 H789 0.985 . S
C784 C778 1.379 . S
C784 C781 1.363 . S
C784 N782 1.356 . S
C785 C779 1.363 . S
C785 C780 1.379 . S
C785 N783 1.356 . S
N786 C778 1.356 . S
N786 H792 0.984 . S
N786 H793 0.984 . S
N787 C780 1.356 . S
N787 H790 0.984 . S
N787 H791 0.985 . S
H788 N783 0.984 . S
H789 N783 0.985 . S
H790 N787 0.984 . S
H791 N787 0.985 . S
H792 N786 0.984 . S
H793 N786 0.984 . S
H794 N782 0.984 . S
H795 N782 0.985 . S
C796 C797 1.363 . S
C796 C802 1.379 . S
C796 N804 1.356 . S
C797 C796 1.363 . S
C797 C803 1.363 . S
C798 C799 1.363 . S
C798 C803 1.379 . S
C798 N805 1.356 . S
C799 C798 1.363 . S
C799 C802 1.363 . S
N800 C802 1.356 . S
N800 H812 0.984 . S
N800 H813 0.985 . S
N801 C803 1.356 . S
N801 H806 0.984 . S
N801 H807 0.985 . S
C802 C796 1.379 . S
C802 C799 1.363 . S
C802 N800 1.356 . S
C803 C797 1.363 . S
C803 C798 1.379 . S
C803 N801 1.356 . S
N804 C796 1.356 . S
N804 H810 0.984 . S
N804 H811 0.984 . S
N805 C798 1.356 . S
N805 H808 0.984 . S
N805 H809 0.985 . S
H806 N801 0.984 . S
H807 N801 0.985 . S
H808 N805 0.984 . S
H809 N805 0.985 . S
H810 N804 0.984 . S
H811 N804 0.984 . S
H812 N800 0.984 . S
H813 N800 0.985 . S
C814 C815 1.363 . S
C814 C820 1.379 . S
C814 N822 1.356 . S
C815 C814 1.363 . S
C815 C821 1.363 . S
C816 C817 1.363 . S
C816 C821 1.379 . S
C816 N823 1.356 1_554 S
C817 C816 1.363 . S
C817 C820 1.363 . S
N818 C820 1.356 . S
N818 H830 0.984 . S
N818 H831 0.985 . S
N819 C821 1.356 . S
N819 H824 0.984 . S
N819 H825 0.985 . S
C820 C814 1.379 . S
C820 C817 1.363 . S
C820 N818 1.356 . S
C821 C815 1.363 . S
C821 C816 1.379 . S
C821 N819 1.356 . S
N822 C814 1.356 . S
N822 H828 0.984 . S
N822 H829 0.984 . S
N823 C816 1.356 1_556 S
N823 H826 0.984 . S
N823 H827 0.985 . S
H824 N819 0.984 . S
H825 N819 0.985 . S
H826 N823 0.984 . S
H827 N823 0.985 . S
H828 N822 0.984 . S
H829 N822 0.984 . S
H830 N818 0.984 . S
H831 N818 0.985 . S
C832 C833 1.363 . S
C832 C838 1.379 . S
C832 N840 1.356 . S
C833 C832 1.363 . S
C833 C839 1.363 . S
C834 C835 1.363 . S
C834 C839 1.379 . S
C834 N841 1.356 . S
C835 C834 1.363 . S
C835 C838 1.363 . S
N836 C838 1.356 . S
N836 H848 0.984 . S
N836 H849 0.985 . S
N837 C839 1.356 . S
N837 H842 0.984 . S
N837 H843 0.985 . S
C838 C832 1.379 . S
C838 C835 1.363 . S
C838 N836 1.356 . S
C839 C833 1.363 . S
C839 C834 1.379 . S
C839 N837 1.356 . S
N840 C832 1.356 . S
N840 H846 0.984 . S
N840 H847 0.984 . S
N841 C834 1.356 . S
N841 H844 0.984 . S
N841 H845 0.985 . S
H842 N837 0.984 . S
H843 N837 0.985 . S
H844 N841 0.984 . S
H845 N841 0.985 . S
H846 N840 0.984 . S
H847 N840 0.984 . S
H848 N836 0.984 . S
H849 N836 0.985 . S
C850 C851 1.363 . S
C850 C856 1.379 . S
C850 N858 1.356 . S
C851 C850 1.363 . S
C851 C857 1.363 . S
C852 C853 1.363 . S
C852 C857 1.379 . S
C852 N859 1.356 . S
C853 C852 1.363 . S
C853 C856 1.363 . S
N854 C856 1.356 . S
N854 H866 0.984 . S
N854 H867 0.985 . S
N855 C857 1.356 . S
N855 H860 0.984 . S
N855 H861 0.985 . S
C856 C850 1.379 . S
C856 C853 1.363 . S
C856 N854 1.356 . S
C857 C851 1.363 . S
C857 C852 1.379 . S
C857 N855 1.356 . S
N858 C850 1.356 . S
N858 H864 0.984 . S
N858 H865 0.984 . S
N859 C852 1.356 . S
N859 H862 0.984 . S
N859 H863 0.985 . S
H860 N855 0.984 . S
H861 N855 0.985 . S
H862 N859 0.984 . S
H863 N859 0.985 . S
H864 N858 0.984 . S
H865 N858 0.984 . S
H866 N854 0.984 . S
H867 N854 0.985 . S
C868 C869 1.363 . S
C868 C874 1.379 . S
C868 N876 1.356 . S
C869 C868 1.363 . S
C869 C875 1.363 . S
C870 C871 1.363 . S
C870 C875 1.379 . S
C870 N877 1.356 . S
C871 C870 1.363 . S
C871 C874 1.363 . S
N872 C874 1.356 . S
N872 H884 0.984 . S
N872 H885 0.985 . S
N873 C875 1.356 . S
N873 H878 0.984 . S
N873 H879 0.985 . S
C874 C868 1.379 . S
C874 C871 1.363 . S
C874 N872 1.356 . S
C875 C869 1.363 . S
C875 C870 1.379 . S
C875 N873 1.356 . S
N876 C868 1.356 . S
N876 H882 0.984 . S
N876 H883 0.984 . S
N877 C870 1.356 . S
N877 H880 0.984 . S
N877 H881 0.985 . S
H878 N873 0.984 . S
H879 N873 0.985 . S
H880 N877 0.984 . S
H881 N877 0.985 . S
H882 N876 0.984 . S
H883 N876 0.984 . S
H884 N872 0.984 . S
H885 N872 0.985 . S
C886 C887 1.363 . S
C886 C892 1.379 . S
C886 N894 1.356 . S
C887 C886 1.363 . S
C887 C893 1.363 . S
C888 C889 1.363 . S
C888 C893 1.379 . S
C888 N895 1.356 . S
C889 C888 1.363 . S
C889 C892 1.363 . S
N890 C892 1.356 . S
N890 H902 0.984 . S
N890 H903 0.985 . S
N891 C893 1.356 . S
N891 H896 0.984 . S
N891 H897 0.985 . S
C892 C886 1.379 . S
C892 C889 1.363 . S
C892 N890 1.356 . S
C893 C887 1.363 . S
C893 C888 1.379 . S
C893 N891 1.356 . S
N894 C886 1.356 . S
N894 H900 0.984 . S
N894 H901 0.984 . S
N895 C888 1.356 . S
N895 H898 0.984 . S
N895 H899 0.985 . S
H896 N891 0.984 . S
H897 N891 0.985 . S
H898 N895 0.984 . S
H899 N895 0.985 . S
H900 N894 0.984 . S
H901 N894 0.984 . S
H902 N890 0.984 . S
H903 N890 0.985 . S
C904 C905 1.363 . S
C904 C910 1.379 . S
C904 N912 1.356 . S
C905 C904 1.363 . S
C905 C911 1.363 . S
C906 C907 1.363 . S
C906 C911 1.379 . S
C906 N913 1.356 . S
C907 C906 1.363 . S
C907 C910 1.363 . S
N908 C910 1.356 . S
N908 H920 0.984 . S
N908 H921 0.985 . S
N909 C911 1.356 . S
N909 H914 0.984 . S
N909 H915 0.985 . S
C910 C904 1.379 . S
C910 C907 1.363 . S
C910 N908 1.356 . S
C911 C905 1.363 . S
C911 C906 1.379 . S
C911 N909 1.356 . S
N912 C904 1.356 . S
N912 H918 0.984 . S
N912 H919 0.984 . S
N913 C906 1.356 . S
N913 H916 0.984 . S
N913 H917 0.985 . S
H914 N909 0.984 . S
H915 N909 0.985 . S
H916 N913 0.984 . S
H917 N913 0.985 . S
H918 N912 0.984 . S
H919 N912 0.984 . S
H920 N908 0.984 . S
H921 N908 0.985 . S
C922 C923 1.363 . S
C922 C928 1.379 . S
C922 N930 1.356 . S
C923 C922 1.363 . S
C923 C929 1.363 . S
C924 C925 1.363 . S
C924 C929 1.379 . S
C924 N931 1.356 . S
C925 C924 1.363 . S
C925 C928 1.363 . S
N926 C928 1.356 . S
N926 H938 0.984 . S
N926 H939 0.985 . S
N927 C929 1.356 . S
N927 H932 0.984 . S
N927 H933 0.985 . S
C928 C922 1.379 . S
C928 C925 1.363 . S
C928 N926 1.356 . S
C929 C923 1.363 . S
C929 C924 1.379 . S
C929 N927 1.356 . S
N930 C922 1.356 . S
N930 H936 0.984 . S
N930 H937 0.984 . S
N931 C924 1.356 . S
N931 H934 0.984 . S
N931 H935 0.985 . S
H932 N927 0.984 . S
H933 N927 0.985 . S
H934 N931 0.984 . S
H935 N931 0.985 . S
H936 N930 0.984 . S
H937 N930 0.984 . S
H938 N926 0.984 . S
H939 N926 0.985 . S
C940 C941 1.363 . S
C940 C946 1.379 . S
C940 N948 1.356 1_556 S
C941 C940 1.363 . S
C941 C947 1.363 . S
C942 C943 1.363 . S
C942 C947 1.379 . S
C942 N949 1.356 . S
C943 C942 1.363 . S
C943 C946 1.363 . S
N944 C946 1.356 . S
N944 H956 0.984 . S
N944 H957 0.985 . S
N945 C947 1.356 . S
N945 H950 0.984 . S
N945 H951 0.985 . S
C946 C940 1.379 . S
C946 C943 1.363 . S
C946 N944 1.356 . S
C947 C941 1.363 . S
C947 C942 1.379 . S
C947 N945 1.356 . S
N948 C940 1.356 1_554 S
N948 H954 0.984 . S
N948 H955 0.984 . S
N949 C942 1.356 . S
N949 H952 0.984 . S
N949 H953 0.985 . S
H950 N945 0.984 . S
H951 N945 0.985 . S
H952 N949 0.984 . S
H953 N949 0.985 . S
H954 N948 0.984 . S
H955 N948 0.984 . S
H956 N944 0.984 . S
H957 N944 0.985 . S
C958 C959 1.363 . S
C958 C964 1.379 . S
C958 N966 1.356 . S
C959 C958 1.363 . S
C959 C965 1.363 . S
C960 C961 1.363 . S
C960 C965 1.379 . S
C960 N967 1.356 . S
C961 C960 1.363 . S
C961 C964 1.363 . S
N962 C964 1.356 . S
N962 H974 0.984 . S
N962 H975 0.985 . S
N963 C965 1.356 . S
N963 H968 0.984 . S
N963 H969 0.985 . S
C964 C958 1.379 . S
C964 C961 1.363 . S
C964 N962 1.356 . S
C965 C959 1.363 . S
C965 C960 1.379 . S
C965 N963 1.356 . S
N966 C958 1.356 . S
N966 H972 0.984 . S
N966 H973 0.984 . S
N967 C960 1.356 . S
N967 H970 0.984 . S
N967 H971 0.985 . S
H968 N963 0.984 . S
H969 N963 0.985 . S
H970 N967 0.984 . S
H971 N967 0.985 . S
H972 N966 0.984 . S
H973 N966 0.984 . S
H974 N962 0.984 . S
H975 N962 0.985 . S
C976 C977 1.363 . S
C976 C982 1.379 . S
C976 N984 1.356 . S
C977 C976 1.363 . S
C977 C983 1.363 . S
C978 C979 1.363 . S
C978 C983 1.379 . S
C978 N985 1.356 . S
C979 C978 1.363 . S
C979 C982 1.363 . S
N980 C982 1.356 . S
N980 H992 0.984 . S
N980 H993 0.985 . S
N981 C983 1.356 . S
N981 H986 0.984 . S
N981 H987 0.985 . S
C982 C976 1.379 . S
C982 C979 1.363 . S
C982 N980 1.356 . S
C983 C977 1.363 . S
C983 C978 1.379 . S
C983 N981 1.356 . S
N984 C976 1.356 . S
N984 H990 0.984 . S
N984 H991 0.984 . S
N985 C978 1.356 . S
N985 H988 0.984 . S
N985 H989 0.985 . S
H986 N981 0.984 . S
H987 N981 0.985 . S
H988 N985 0.984 . S
H989 N985 0.985 . S
H990 N984 0.984 . S
H991 N984 0.984 . S
H992 N980 0.984 . S
H993 N980 0.985 . S
C994 C995 1.363 . S
C994 C1000 1.379 . S
C994 N1002 1.356 . S
C995 C994 1.363 . S
C995 C1001 1.363 . S
C996 C997 1.363 . S
C996 C1001 1.379 . S
C996 N1003 1.356 . S
C997 C996 1.363 . S
C997 C1000 1.363 . S
N998 C1000 1.356 . S
N998 H1010 0.984 . S
N998 H1011 0.985 . S
N999 C1001 1.356 . S
N999 H1004 0.984 . S
N999 H1005 0.985 . S
C1000 C994 1.379 . S
C1000 C997 1.363 . S
C1000 N998 1.356 . S
C1001 C995 1.363 . S
C1001 C996 1.379 . S
C1001 N999 1.356 . S
N1002 C994 1.356 . S
N1002 H1008 0.984 1_556 S
N1002 H1009 0.984 1_556 S
N1003 C996 1.356 . S
N1003 H1006 0.984 . S
N1003 H1007 0.985 . S
H1004 N999 0.984 . S
H1005 N999 0.985 . S
H1006 N1003 0.984 . S
H1007 N1003 0.985 . S
H1008 N1002 0.984 1_554 S
H1009 N1002 0.984 1_554 S
H1010 N998 0.984 . S
H1011 N998 0.985 . S
C1012 C1013 1.363 . S
C1012 C1018 1.379 . S
C1012 N1020 1.356 . S
C1013 C1012 1.363 . S
C1013 C1019 1.363 . S
C1014 C1015 1.363 . S
C1014 C1019 1.379 . S
C1014 N1021 1.356 . S
C1015 C1014 1.363 . S
C1015 C1018 1.363 . S
N1016 C1018 1.356 . S
N1016 H1028 0.984 . S
N1016 H1029 0.985 . S
N1017 C1019 1.356 1_556 S
N1017 H1022 0.984 . S
N1017 H1023 0.985 . S
C1018 C1012 1.379 . S
C1018 C1015 1.363 . S
C1018 N1016 1.356 . S
C1019 C1013 1.363 . S
C1019 C1014 1.379 . S
C1019 N1017 1.356 1_554 S
N1020 C1012 1.356 . S
N1020 H1026 0.984 . S
N1020 H1027 0.984 . S
N1021 C1014 1.356 . S
N1021 H1024 0.984 . S
N1021 H1025 0.985 . S
H1022 N1017 0.984 . S
H1023 N1017 0.985 . S
H1024 N1021 0.984 . S
H1025 N1021 0.985 . S
H1026 N1020 0.984 . S
H1027 N1020 0.984 . S
H1028 N1016 0.984 . S
H1029 N1016 0.985 . S
C1030 C1031 1.363 . S
C1030 C1036 1.379 . S
C1030 N1038 1.356 . S
C1031 C1030 1.363 . S
C1031 C1037 1.363 . S
C1032 C1033 1.363 . S
C1032 C1037 1.379 . S
C1032 N1039 1.356 . S
C1033 C1032 1.363 . S
C1033 C1036 1.363 . S
N1034 C1036 1.356 . S
N1034 H1046 0.984 . S
N1034 H1047 0.985 . S
N1035 C1037 1.356 . S
N1035 H1040 0.984 . S
N1035 H1041 0.985 . S
C1036 C1030 1.379 . S
C1036 C1033 1.363 . S
C1036 N1034 1.356 . S
C1037 C1031 1.363 . S
C1037 C1032 1.379 . S
C1037 N1035 1.356 . S
N1038 C1030 1.356 . S
N1038 H1044 0.984 . S
N1038 H1045 0.984 . S
N1039 C1032 1.356 . S
N1039 H1042 0.984 . S
N1039 H1043 0.985 . S
H1040 N1035 0.984 . S
H1041 N1035 0.985 . S
H1042 N1039 0.984 . S
H1043 N1039 0.985 . S
H1044 N1038 0.984 . S
H1045 N1038 0.984 . S
H1046 N1034 0.984 . S
H1047 N1034 0.985 . S
C1048 C1049 1.363 . S
C1048 C1054 1.379 . S
C1048 N1056 1.356 . S
C1049 C1048 1.363 . S
C1049 C1055 1.363 . S
C1050 C1051 1.363 . S
C1050 C1055 1.379 . S
C1050 N1057 1.356 . S
C1051 C1050 1.363 . S
C1051 C1054 1.363 . S
N1052 C1054 1.356 . S
N1052 H1064 0.984 . S
N1052 H1065 0.985 . S
N1053 C1055 1.356 . S
N1053 H1058 0.984 . S
N1053 H1059 0.985 . S
C1054 C1048 1.379 . S
C1054 C1051 1.363 . S
C1054 N1052 1.356 . S
C1055 C1049 1.363 . S
C1055 C1050 1.379 . S
C1055 N1053 1.356 . S
N1056 C1048 1.356 . S
N1056 H1062 0.984 . S
N1056 H1063 0.984 . S
N1057 C1050 1.356 . S
N1057 H1060 0.984 . S
N1057 H1061 0.985 . S
H1058 N1053 0.984 . S
H1059 N1053 0.985 . S
H1060 N1057 0.984 . S
H1061 N1057 0.985 . S
H1062 N1056 0.984 . S
H1063 N1056 0.984 . S
H1064 N1052 0.984 . S
H1065 N1052 0.985 . S
C1066 C1067 1.363 . S
C1066 C1072 1.379 . S
C1066 N1074 1.356 . S
C1067 C1066 1.363 . S
C1067 C1073 1.363 . S
C1068 C1069 1.363 . S
C1068 C1073 1.379 . S
C1068 N1075 1.356 . S
C1069 C1068 1.363 . S
C1069 C1072 1.363 . S
N1070 C1072 1.356 . S
N1070 H1082 0.984 . S
N1070 H1083 0.985 . S
N1071 C1073 1.356 . S
N1071 H1076 0.984 . S
N1071 H1077 0.985 . S
C1072 C1066 1.379 . S
C1072 C1069 1.363 . S
C1072 N1070 1.356 . S
C1073 C1067 1.363 . S
C1073 C1068 1.379 . S
C1073 N1071 1.356 . S
N1074 C1066 1.356 . S
N1074 H1080 0.984 . S
N1074 H1081 0.984 . S
N1075 C1068 1.356 . S
N1075 H1078 0.984 1_554 S
N1075 H1079 0.985 . S
H1076 N1071 0.984 . S
H1077 N1071 0.985 . S
H1078 N1075 0.984 1_556 S
H1079 N1075 0.985 . S
H1080 N1074 0.984 . S
H1081 N1074 0.984 . S
H1082 N1070 0.984 . S
H1083 N1070 0.985 . S
C1084 C1085 1.363 . S
C1084 C1090 1.379 . S
C1084 N1092 1.356 . S
C1085 C1084 1.363 . S
C1085 C1091 1.363 . S
C1086 C1087 1.363 . S
C1086 C1091 1.379 . S
C1086 N1093 1.356 . S
C1087 C1086 1.363 . S
C1087 C1090 1.363 . S
N1088 C1090 1.356 . S
N1088 H1100 0.984 . S
N1088 H1101 0.985 . S
N1089 C1091 1.356 . S
N1089 H1094 0.984 . S
N1089 H1095 0.985 . S
C1090 C1084 1.379 . S
C1090 C1087 1.363 . S
C1090 N1088 1.356 . S
C1091 C1085 1.363 . S
C1091 C1086 1.379 . S
C1091 N1089 1.356 . S
N1092 C1084 1.356 . S
N1092 H1098 0.984 . S
N1092 H1099 0.984 . S
N1093 C1086 1.356 . S
N1093 H1096 0.984 1_556 S
N1093 H1097 0.985 1_556 S
H1094 N1089 0.984 . S
H1095 N1089 0.985 . S
H1096 N1093 0.984 1_554 S
H1097 N1093 0.985 1_554 S
H1098 N1092 0.984 . S
H1099 N1092 0.984 . S
H1100 N1088 0.984 . S
H1101 N1088 0.985 . S
C1102 C1103 1.363 . S
C1102 C1108 1.379 . S
C1102 N1110 1.356 . S
C1103 C1102 1.363 . S
C1103 C1109 1.363 . S
C1104 C1105 1.363 . S
C1104 C1109 1.379 . S
C1104 N1111 1.356 . S
C1105 C1104 1.363 . S
C1105 C1108 1.363 . S
N1106 C1108 1.356 . S
N1106 H1118 0.984 . S
N1106 H1119 0.985 . S
N1107 C1109 1.356 . S
N1107 H1112 0.984 . S
N1107 H1113 0.985 . S
C1108 C1102 1.379 . S
C1108 C1105 1.363 . S
C1108 N1106 1.356 . S
C1109 C1103 1.363 . S
C1109 C1104 1.379 . S
C1109 N1107 1.356 . S
N1110 C1102 1.356 . S
N1110 H1116 0.984 . S
N1110 H1117 0.984 . S
N1111 C1104 1.356 . S
N1111 H1114 0.984 . S
N1111 H1115 0.985 . S
H1112 N1107 0.984 . S
H1113 N1107 0.985 . S
H1114 N1111 0.984 . S
H1115 N1111 0.985 . S
H1116 N1110 0.984 . S
H1117 N1110 0.984 . S
H1118 N1106 0.984 . S
H1119 N1106 0.985 . S
C1120 C1121 1.363 . S
C1120 C1126 1.379 . S
C1120 N1128 1.356 . S
C1121 C1120 1.363 . S
C1121 C1127 1.363 . S
C1122 C1123 1.363 . S
C1122 C1127 1.379 . S
C1122 N1129 1.356 . S
C1123 C1122 1.363 . S
C1123 C1126 1.363 . S
N1124 C1126 1.356 . S
N1124 H1136 0.984 . S
N1124 H1137 0.985 . S
N1125 C1127 1.356 . S
N1125 H1130 0.984 . S
N1125 H1131 0.985 . S
C1126 C1120 1.379 . S
C1126 C1123 1.363 . S
C1126 N1124 1.356 . S
C1127 C1121 1.363 . S
C1127 C1122 1.379 . S
C1127 N1125 1.356 . S
N1128 C1120 1.356 . S
N1128 H1134 0.984 . S
N1128 H1135 0.984 . S
N1129 C1122 1.356 . S
N1129 H1132 0.984 . S
N1129 H1133 0.985 . S
H1130 N1125 0.984 . S
H1131 N1125 0.985 . S
H1132 N1129 0.984 . S
H1133 N1129 0.985 . S
H1134 N1128 0.984 . S
H1135 N1128 0.984 . S
H1136 N1124 0.984 . S
H1137 N1124 0.985 . S
C1138 C1139 1.363 . S
C1138 C1144 1.379 . S
C1138 N1146 1.356 . S
C1139 C1138 1.363 . S
C1139 C1145 1.363 . S
C1140 C1141 1.363 . S
C1140 C1145 1.379 . S
C1140 N1147 1.356 . S
C1141 C1140 1.363 . S
C1141 C1144 1.363 . S
N1142 C1144 1.356 . S
N1142 H1154 0.984 . S
N1142 H1155 0.985 . S
N1143 C1145 1.356 . S
N1143 H1148 0.984 . S
N1143 H1149 0.985 . S
C1144 C1138 1.379 . S
C1144 C1141 1.363 . S
C1144 N1142 1.356 . S
C1145 C1139 1.363 . S
C1145 C1140 1.379 . S
C1145 N1143 1.356 . S
N1146 C1138 1.356 . S
N1146 H1152 0.984 . S
N1146 H1153 0.984 . S
N1147 C1140 1.356 . S
N1147 H1150 0.984 . S
N1147 H1151 0.985 . S
H1148 N1143 0.984 . S
H1149 N1143 0.985 . S
H1150 N1147 0.984 . S
H1151 N1147 0.985 . S
H1152 N1146 0.984 . S
H1153 N1146 0.984 . S
H1154 N1142 0.984 . S
H1155 N1142 0.985 . S
C1156 C1157 1.363 . S
C1156 C1162 1.379 . S
C1156 N1164 1.356 . S
C1157 C1156 1.363 . S
C1157 C1163 1.363 . S
C1158 C1159 1.363 . S
C1158 C1163 1.379 . S
C1158 N1165 1.356 . S
C1159 C1158 1.363 . S
C1159 C1162 1.363 . S
N1160 C1162 1.356 . S
N1160 H1172 0.984 . S
N1160 H1173 0.985 . S
N1161 C1163 1.356 . S
N1161 H1166 0.984 . S
N1161 H1167 0.985 . S
C1162 C1156 1.379 . S
C1162 C1159 1.363 . S
C1162 N1160 1.356 . S
C1163 C1157 1.363 . S
C1163 C1158 1.379 . S
C1163 N1161 1.356 . S
N1164 C1156 1.356 . S
N1164 H1170 0.984 . S
N1164 H1171 0.984 . S
N1165 C1158 1.356 . S
N1165 H1168 0.984 . S
N1165 H1169 0.985 . S
H1166 N1161 0.984 . S
H1167 N1161 0.985 . S
H1168 N1165 0.984 . S
H1169 N1165 0.985 . S
H1170 N1164 0.984 . S
H1171 N1164 0.984 . S
H1172 N1160 0.984 . S
H1173 N1160 0.985 . S
C1174 C1175 1.363 . S
C1174 C1180 1.379 . S
C1174 N1182 1.356 . S
C1175 C1174 1.363 . S
C1175 C1181 1.363 . S
C1176 C1177 1.363 . S
C1176 C1181 1.379 . S
C1176 N1183 1.356 . S
C1177 C1176 1.363 . S
C1177 C1180 1.363 . S
N1178 C1180 1.356 . S
N1178 H1190 0.984 . S
N1178 H1191 0.985 . S
N1179 C1181 1.356 . S
N1179 H1184 0.984 . S
N1179 H1185 0.985 . S
C1180 C1174 1.379 . S
C1180 C1177 1.363 . S
C1180 N1178 1.356 . S
C1181 C1175 1.363 . S
C1181 C1176 1.379 . S
C1181 N1179 1.356 . S
N1182 C1174 1.356 . S
N1182 H1188 0.984 . S
N1182 H1189 0.984 . S
N1183 C1176 1.356 . S
N1183 H1186 0.984 . S
N1183 H1187 0.985 . S
H1184 N1179 0.984 . S
H1185 N1179 0.985 . S
H1186 N1183 0.984 . S
H1187 N1183 0.985 . S
H1188 N1182 0.984 . S
H1189 N1182 0.984 . S
H1190 N1178 0.984 . S
H1191 N1178 0.985 . S
C1192 C1193 1.363 . S
C1192 C1198 1.379 . S
C1192 N1200 1.356 . S
C1193 C1192 1.363 . S
C1193 C1199 1.363 . S
C1194 C1195 1.363 . S
C1194 C1199 1.379 . S
C1194 N1201 1.356 . S
C1195 C1194 1.363 . S
C1195 C1198 1.363 . S
N1196 C1198 1.356 . S
N1196 H1208 0.984 . S
N1196 H1209 0.985 . S
N1197 C1199 1.356 . S
N1197 H1202 0.984 . S
N1197 H1203 0.985 . S
C1198 C1192 1.379 . S
C1198 C1195 1.363 . S
C1198 N1196 1.356 . S
C1199 C1193 1.363 . S
C1199 C1194 1.379 . S
C1199 N1197 1.356 . S
N1200 C1192 1.356 . S
N1200 H1206 0.984 . S
N1200 H1207 0.984 . S
N1201 C1194 1.356 . S
N1201 H1204 0.984 . S
N1201 H1205 0.985 . S
H1202 N1197 0.984 . S
H1203 N1197 0.985 . S
H1204 N1201 0.984 . S
H1205 N1201 0.985 . S
H1206 N1200 0.984 . S
H1207 N1200 0.984 . S
H1208 N1196 0.984 . S
H1209 N1196 0.985 . S
C1210 C1211 1.363 . S
C1210 C1216 1.379 . S
C1210 N1218 1.356 . S
C1211 C1210 1.363 . S
C1211 C1217 1.363 . S
C1212 C1213 1.363 . S
C1212 C1217 1.379 . S
C1212 N1219 1.356 . S
C1213 C1212 1.363 . S
C1213 C1216 1.363 . S
N1214 C1216 1.356 . S
N1214 H1226 0.984 . S
N1214 H1227 0.985 . S
N1215 C1217 1.356 . S
N1215 H1220 0.984 . S
N1215 H1221 0.985 . S
C1216 C1210 1.379 . S
C1216 C1213 1.363 . S
C1216 N1214 1.356 . S
C1217 C1211 1.363 . S
C1217 C1212 1.379 . S
C1217 N1215 1.356 . S
N1218 C1210 1.356 . S
N1218 H1224 0.984 . S
N1218 H1225 0.984 . S
N1219 C1212 1.356 . S
N1219 H1222 0.984 . S
N1219 H1223 0.985 . S
H1220 N1215 0.984 . S
H1221 N1215 0.985 . S
H1222 N1219 0.984 . S
H1223 N1219 0.985 . S
H1224 N1218 0.984 . S
H1225 N1218 0.984 . S
H1226 N1214 0.984 . S
H1227 N1214 0.985 . S
C1228 C1229 1.363 . S
C1228 C1234 1.379 . S
C1228 N1236 1.356 . S
C1229 C1228 1.363 . S
C1229 C1235 1.363 . S
C1230 C1231 1.363 . S
C1230 C1235 1.379 . S
C1230 N1237 1.356 . S
C1231 C1230 1.363 . S
C1231 C1234 1.363 . S
N1232 C1234 1.356 . S
N1232 H1244 0.984 . S
N1232 H1245 0.985 . S
N1233 C1235 1.356 . S
N1233 H1238 0.984 . S
N1233 H1239 0.985 . S
C1234 C1228 1.379 . S
C1234 C1231 1.363 . S
C1234 N1232 1.356 . S
C1235 C1229 1.363 . S
C1235 C1230 1.379 . S
C1235 N1233 1.356 . S
N1236 C1228 1.356 . S
N1236 H1242 0.984 . S
N1236 H1243 0.984 . S
N1237 C1230 1.356 . S
N1237 H1240 0.984 . S
N1237 H1241 0.985 . S
H1238 N1233 0.984 . S
H1239 N1233 0.985 . S
H1240 N1237 0.984 . S
H1241 N1237 0.985 . S
H1242 N1236 0.984 . S
H1243 N1236 0.984 . S
H1244 N1232 0.984 . S
H1245 N1232 0.985 . S
C1246 C1247 1.363 . S
C1246 C1252 1.379 . S
C1246 N1254 1.356 . S
C1247 C1246 1.363 . S
C1247 C1253 1.363 . S
C1248 C1249 1.363 . S
C1248 C1253 1.379 . S
C1248 N1255 1.356 . S
C1249 C1248 1.363 . S
C1249 C1252 1.363 . S
N1250 C1252 1.356 1_556 S
N1250 H1262 0.984 . S
N1250 H1263 0.985 . S
N1251 C1253 1.356 . S
N1251 H1256 0.984 . S
N1251 H1257 0.985 . S
C1252 C1246 1.379 . S
C1252 C1249 1.363 . S
C1252 N1250 1.356 1_554 S
C1253 C1247 1.363 . S
C1253 C1248 1.379 . S
C1253 N1251 1.356 . S
N1254 C1246 1.356 . S
N1254 H1260 0.984 . S
N1254 H1261 0.984 . S
N1255 C1248 1.356 . S
N1255 H1258 0.984 . S
N1255 H1259 0.985 . S
H1256 N1251 0.984 . S
H1257 N1251 0.985 . S
H1258 N1255 0.984 . S
H1259 N1255 0.985 . S
H1260 N1254 0.984 . S
H1261 N1254 0.984 . S
H1262 N1250 0.984 . S
H1263 N1250 0.985 . S
C545 C33 0.702 . S
C547 C169 0.702 . S
C563 C203 0.702 . S
C565 C67 0.702 . S
C581 C237 0.701 . S
C583 C101 0.701 . S
C599 C135 0.702 . S
C601 C271 0.702 . S
C617 C305 0.702 . S
C619 C373 0.702 . S
C635 C407 0.702 . S
C637 C339 0.702 . S
C653 C441 0.701 . S
C655 C509 0.701 . S
C671 C475 0.701 . S
C673 C543 0.701 . S
C689 C20 2.273 . S
C691 C190 2.273 1_554 S
C707 C224 2.273 . S
C709 C54 2.273 . S
C725 C258 2.273 . S
C727 C88 2.273 . S
C743 C122 2.273 1_556 S
C745 C156 2.273 . S
C761 C145 0.976 . S
C763 C349 0.976 . S
C779 C77 0.976 . S
C781 C281 0.976 . S
C797 C213 0.976 . S
C799 C383 0.976 . S
C815 C9 0.976 . S
C817 C315 0.976 . S
C833 C428 2.273 . S
C835 C292 2.273 . S
C851 C360 2.273 1_556 S
C853 C530 2.273 . S
C869 C326 2.273 1_554 S
C871 C462 2.273 . S
C887 C394 2.273 . S
C889 C496 2.273 . S
C905 C485 0.976 . S
C907 C43 0.976 . S
C923 C179 0.976 . S
C925 C451 0.976 . S
C941 C111 0.976 . S
C943 C519 0.976 . S
C959 C417 0.976 . S
C961 C247 0.976 . S
C977 C175 1.141 . S
C979 C5 1.141 . S
C995 C209 1.141 . S
C997 C39 1.141 . S
C1013 C73 1.141 . S
C1015 C243 1.141 . S
C1031 C107 1.141 . S
C1033 C141 1.141 . S
C1049 C138 2.752 . S
C1051 C342 2.752 . S
C1067 C274 2.752 . S
C1069 C70 2.752 1_554 S
C1085 C376 2.752 . S
C1087 C206 2.752 1_556 S
C1103 C2 2.752 . S
C1105 C308 2.752 . S
C1121 C413 1.141 . S
C1123 C277 1.141 . S
C1139 C345 1.141 . S
C1141 C515 1.141 . S
C1157 C447 1.141 . S
C1159 C311 1.141 . S
C1175 C481 1.141 . S
C1177 C379 1.141 . S
C1193 C36 2.752 . S
C1195 C478 2.752 1_556 S
C1211 C172 2.752 . S
C1213 C444 2.752 . S
C1229 C512 2.752 . S
C1231 C104 2.752 . S
C1247 C240 2.752 . S
C1249 C410 2.752 1_554 S
