# Generated by pormake.
# Topology wjm, (5)-cn, num edge types: 1
# Building blocks:
#     Node 0, Type 0, BuildingBlock: BEQFEK_clean_sbu_0, # of connection points: 5
#     Node 1, Type 0, BuildingBlock: BEQFEK_clean_sbu_0, # of connection points: 5
#     Node 2, Type 0, BuildingBlock: BEQFEK_clean_sbu_0, # of connection points: 5
#     Node 3, Type 0, BuildingBlock: BEQFEK_clean_sbu_0, # of connection points: 5
#     Node 4, Type 0, BuildingBlock: BEQFEK_clean_sbu_0, # of connection points: 5
#     Node 5, Type 0, BuildingBlock: BEQFEK_clean_sbu_0, # of connection points: 5
#     Node 6, Type 0, BuildingBlock: BEQFEK_clean_sbu_0, # of connection points: 5
#     Node 7, Type 0, BuildingBlock: BEQFEK_clean_sbu_0, # of connection points: 5
#     Node 8, Type 0, BuildingBlock: BEQFEK_clean_sbu_0, # of connection points: 5
#     Node 9, Type 0, BuildingBlock: BEQFEK_clean_sbu_0, # of connection points: 5
#     Node 10, Type 0, BuildingBlock: BEQFEK_clean_sbu_0, # of connection points: 5
#     Node 11, Type 0, BuildingBlock: BEQFEK_clean_sbu_0, # of connection points: 5
#     Edge 12, Type (0, 0), BuildingBlock: CIFDUS_clean_linker_0, # of connection points: 2
#     Edge 13, Type (0, 0), BuildingBlock: CIFDUS_clean_linker_0, # of connection points: 2
#     Edge 14, Type (0, 0), BuildingBlock: CIFDUS_clean_linker_0, # of connection points: 2
#     Edge 15, Type (0, 0), BuildingBlock: CIFDUS_clean_linker_0, # of connection points: 2
#     Edge 16, Type (0, 0), BuildingBlock: CIFDUS_clean_linker_0, # of connection points: 2
#     Edge 17, Type (0, 0), BuildingBlock: CIFDUS_clean_linker_0, # of connection points: 2
#     Edge 18, Type (0, 0), BuildingBlock: CIFDUS_clean_linker_0, # of connection points: 2
#     Edge 19, Type (0, 0), BuildingBlock: CIFDUS_clean_linker_0, # of connection points: 2
#     Edge 20, Type (0, 0), BuildingBlock: CIFDUS_clean_linker_0, # of connection points: 2
#     Edge 21, Type (0, 0), BuildingBlock: CIFDUS_clean_linker_0, # of connection points: 2
#     Edge 22, Type (0, 0), BuildingBlock: CIFDUS_clean_linker_0, # of connection points: 2
#     Edge 23, Type (0, 0), BuildingBlock: CIFDUS_clean_linker_0, # of connection points: 2
#     Edge 24, Type (0, 0), BuildingBlock: CIFDUS_clean_linker_0, # of connection points: 2
#     Edge 25, Type (0, 0), BuildingBlock: CIFDUS_clean_linker_0, # of connection points: 2
#     Edge 26, Type (0, 0), BuildingBlock: CIFDUS_clean_linker_0, # of connection points: 2
#     Edge 27, Type (0, 0), BuildingBlock: CIFDUS_clean_linker_0, # of connection points: 2
#     Edge 28, Type (0, 0), BuildingBlock: CIFDUS_clean_linker_0, # of connection points: 2
#     Edge 29, Type (0, 0), BuildingBlock: CIFDUS_clean_linker_0, # of connection points: 2
#     Edge 30, Type (0, 0), BuildingBlock: CIFDUS_clean_linker_0, # of connection points: 2
#     Edge 31, Type (0, 0), BuildingBlock: CIFDUS_clean_linker_0, # of connection points: 2
#     Edge 32, Type (0, 0), BuildingBlock: CIFDUS_clean_linker_0, # of connection points: 2
#     Edge 33, Type (0, 0), BuildingBlock: CIFDUS_clean_linker_0, # of connection points: 2
#     Edge 34, Type (0, 0), BuildingBlock: CIFDUS_clean_linker_0, # of connection points: 2
#     Edge 35, Type (0, 0), BuildingBlock: CIFDUS_clean_linker_0, # of connection points: 2
#     Edge 36, Type (0, 0), BuildingBlock: CIFDUS_clean_linker_0, # of connection points: 2
#     Edge 37, Type (0, 0), BuildingBlock: CIFDUS_clean_linker_0, # of connection points: 2
#     Edge 38, Type (0, 0), BuildingBlock: CIFDUS_clean_linker_0, # of connection points: 2
#     Edge 39, Type (0, 0), BuildingBlock: CIFDUS_clean_linker_0, # of connection points: 2
#     Edge 40, Type (0, 0), BuildingBlock: CIFDUS_clean_linker_0, # of connection points: 2
#     Edge 41, Type (0, 0), BuildingBlock: CIFDUS_clean_linker_0, # of connection points: 2
# Relax obj value: 0.693
# Max RMSD: 0.244
# Mean RMSD: 0.244
data_MOF--net-wjm--node1-BEQFEK_clean_sbu_0--edge1-CIFDUS_clean_linker_0
_symmetry_space_group_name_H-M    P1
_symmetry_Int_Tables_number       1
_symmetry_cell_setting            triclinic
loop_
_symmetry_equiv_pos_as_xyz
'x, y, z'
_cell_length_a     31.058644
_cell_length_b     31.150134
_cell_length_c     38.640819
_cell_angle_alpha  89.56516
_cell_angle_beta   89.752862
_cell_angle_gamma 119.97354
loop_
_atom_site_label
_atom_site_type_symbol
_atom_site_fract_x
_atom_site_fract_y
_atom_site_fract_z
_atom_type_partial_charge
Co0 Co 0.25929 0.42816 0.2815 0.0
Co1 Co 0.25419 0.37635 0.21032 0.0
C2 C 0.22544 0.31991 0.27887 0.0
O3 O 0.23384 0.35918 0.29404 0.0
O4 O 0.23046 0.31966 0.24598 0.0
C5 C 0.26827 0.49391 0.34106 0.0
O6 O 0.24604 0.50236 0.36693 0.0
C7 C 0.20126 0.32706 0.14606 0.0
C8 C 0.26373 0.349 0.1095 0.0
C9 C 0.21232 0.3264 0.11103 0.0
N10 N 0.24412 0.35051 0.16379 0.0
N11 N 0.2812 0.36234 0.14182 0.0
C12 C 0.151 0.30587 0.16274 0.0
H13 H 0.15149 0.29078 0.18876 0.0
H14 H 0.14139 0.33533 0.16641 0.0
H15 H 0.12213 0.27624 0.14658 0.0
C16 C 0.21375 0.4736 0.24031 0.0
N17 N 0.22554 0.43762 0.24412 0.0
N18 N 0.22652 0.41962 0.21363 0.0
C19 C 0.21799 0.44593 0.18919 0.0
C20 C 0.20897 0.4806 0.20537 0.0
C21 C 0.21786 0.50775 0.26875 0.0
H22 H 0.19546 0.48573 0.29137 0.0
H23 H 0.20488 0.53363 0.26099 0.0
H24 H 0.25732 0.52994 0.27628 0.0
O25 O 0.33173 0.45572 0.26871 0.0
O26 O 0.32685 0.4191 0.21817 0.0
H27 H 0.22926 0.47599 0.13672 0.0
H28 H 0.19459 0.41059 0.14024 0.0
C29 C 0.22646 0.44386 0.15115 0.0
H30 H 0.2607 0.44184 0.14676 0.0
H31 H 0.31867 0.38225 0.1485 0.0
O32 O 0.2445 0.45402 0.32429 0.0
C33 C 0.35241 0.44814 0.24251 0.0
Co34 Co 0.81479 0.24076 0.62479 0.0
Co35 Co 0.87535 0.2535 0.55602 0.0
C36 C 0.89915 0.22125 0.62523 0.0
O37 O 0.86125 0.21984 0.6388 0.0
O38 O 0.90992 0.2332 0.59323 0.0
C39 C 0.75143 0.24053 0.68422 0.0
O40 O 0.72058 0.21509 0.70956 0.0
C41 C 0.88523 0.21032 0.49078 0.0
C42 C 0.9204 0.27599 0.45638 0.0
C43 C 0.89724 0.22457 0.45588 0.0
N44 N 0.89863 0.25105 0.50988 0.0
N45 N 0.92087 0.29025 0.48924 0.0
C46 C 0.86018 0.15937 0.50647 0.0
H47 H 0.86884 0.16138 0.53446 0.0
H48 H 0.81929 0.14225 0.50413 0.0
H49 H 0.87257 0.13581 0.4933 0.0
C50 C 0.73048 0.19245 0.57873 0.0
N51 N 0.77898 0.2089 0.58481 0.0
N52 N 0.80336 0.21829 0.5553 0.0
C53 C 0.77113 0.21115 0.52943 0.0
C54 C 0.7238 0.19475 0.54343 0.0
C55 C 0.69282 0.18253 0.60662 0.0
H56 H 0.69686 0.16074 0.62785 0.0
H57 H 0.65428 0.16131 0.59708 0.0
H58 H 0.6985 0.21799 0.61697 0.0
O59 O 0.85597 0.31505 0.61651 0.0
O60 O 0.89551 0.32326 0.56638 0.0
H61 H 0.82036 0.2639 0.49159 0.0
H62 H 0.75667 0.22745 0.47733 0.0
C63 C 0.78648 0.22678 0.49255 0.0
H64 H 0.79469 0.19982 0.48005 0.0
H65 H 0.93326 0.3265 0.49714 0.0
O66 O 0.76666 0.21867 0.66426 0.0
C67 C 0.88533 0.34217 0.59215 0.0
Co68 Co 0.58496 0.84918 0.96617 0.0
Co69 Co 0.62564 0.88838 0.88989 0.0
C70 C 0.69346 0.91879 0.95154 0.0
O71 O 0.65606 0.89189 0.97061 0.0
O72 O 0.68878 0.92131 0.91882 0.0
C73 C 0.52931 0.80257 0.03385 0.0
O74 O 0.53236 0.78519 0.06428 0.0
C75 C 0.66426 0.88188 0.8198 0.0
C76 C 0.64038 0.92513 0.78797 0.0
C77 C 0.66291 0.89637 0.78543 0.0
N78 N 0.6429 0.90063 0.84078 0.0
N79 N 0.62942 0.92699 0.82146 0.0
C80 C 0.68261 0.84862 0.83289 0.0
H81 H 0.67059 0.83731 0.86014 0.0
H82 H 0.66862 0.8152 0.81657 0.0
H83 H 0.72383 0.86886 0.83192 0.0
C84 C 0.53869 0.7528 0.93152 0.0
N85 N 0.57002 0.80217 0.93101 0.0
N86 N 0.58264 0.81773 0.89875 0.0
C87 C 0.55695 0.77845 0.87771 0.0
C88 C 0.52903 0.73616 0.8979 0.0
C89 C 0.51645 0.72187 0.96349 0.0
H90 H 0.54343 0.73609 0.98494 0.0
H91 H 0.50555 0.68265 0.95867 0.0
H92 H 0.48256 0.72286 0.97116 0.0
O93 O 0.55665 0.89319 0.95523 0.0
O94 O 0.58821 0.92318 0.90269 0.0
H95 H 0.55794 0.81913 0.83212 0.0
H96 H 0.51455 0.75338 0.83074 0.0
C97 C 0.55196 0.78209 0.83944 0.0
H98 H 0.57963 0.77554 0.82592 0.0
H99 H 0.61119 0.94497 0.83099 0.0
O100 O 0.566 0.81747 1.01307 0.0
C101 C 0.56247 0.92115 0.92919 0.0
Co102 Co 0.73841 0.56321 0.29186 0.0
Co103 Co 0.74264 0.6206 0.22229 0.0
C104 C 0.77914 0.67353 0.29074 0.0
O105 O 0.76849 0.63217 0.30423 0.0
O106 O 0.77223 0.67691 0.25837 0.0
C107 C 0.72944 0.4933 0.35013 0.0
O108 O 0.75245 0.4845 0.37524 0.0
C109 C 0.79207 0.67374 0.15649 0.0
C110 C 0.72843 0.64417 0.12103 0.0
C111 C 0.78002 0.67185 0.12124 0.0
N112 N 0.74991 0.64669 0.17517 0.0
N113 N 0.71202 0.63034 0.15378 0.0
C114 C 0.84228 0.69976 0.17281 0.0
H115 H 0.83877 0.70674 0.20052 0.0
H116 H 0.8596 0.67612 0.17155 0.0
H117 H 0.86671 0.73546 0.15925 0.0
C118 C 0.77997 0.51802 0.24673 0.0
N119 N 0.76848 0.5538 0.25232 0.0
N120 N 0.76831 0.57489 0.22272 0.0
C121 C 0.77787 0.55115 0.19707 0.0
C122 C 0.78581 0.5145 0.21149 0.0
C123 C 0.77528 0.48146 0.2739 0.0
H124 H 0.73579 0.45949 0.28183 0.0
H125 H 0.79787 0.50147 0.29661 0.0
H126 H 0.7874 0.45557 0.26478 0.0
O127 O 0.66667 0.54026 0.28329 0.0
O128 O 0.66967 0.58061 0.23441 0.0
H129 H 0.73794 0.55796 0.15424 0.0
H130 H 0.77518 0.53021 0.14324 0.0
C131 C 0.77339 0.55868 0.15921 0.0
H132 H 0.80469 0.59498 0.1509 0.0
H133 H 0.67505 0.60697 0.16119 0.0
O134 O 0.75248 0.534 0.33344 0.0
C135 C 0.64509 0.55111 0.25944 0.0
Co136 Co 0.13882 0.71424 0.61459 0.0
Co137 Co 0.10657 0.73977 0.54468 0.0
C138 C 0.09628 0.77933 0.61572 0.0
O139 O 0.11825 0.75906 0.63011 0.0
O140 O 0.08725 0.77464 0.58307 0.0
C141 C 0.18651 0.71421 0.68155 0.0
O142 O 0.20185 0.76103 0.68782 0.0
C143 C 0.12443 0.7974 0.47777 0.0
C144 C 0.06392 0.7406 0.44628 0.0
C145 C 0.10527 0.78755 0.44423 0.0
N146 N 0.0962 0.75745 0.49819 0.0
N147 N 0.05969 0.72416 0.47911 0.0
C148 C 0.16656 0.84491 0.49085 0.0
H149 H 0.17733 0.83955 0.5172 0.0
H150 H 0.19908 0.85987 0.47315 0.0
H151 H 0.15444 0.87288 0.49206 0.0
C152 C 0.23334 0.74942 0.57799 0.0
N153 N 0.18693 0.74231 0.57931 0.0
N154 N 0.17393 0.75014 0.54856 0.0
C155 C 0.21162 0.7599 0.5261 0.0
C156 C 0.25068 0.7604 0.54419 0.0
C157 C 0.26057 0.74614 0.60885 0.0
H158 H 0.24463 0.70673 0.61678 0.0
H159 H 0.25596 0.76653 0.63056 0.0
H160 H 0.30089 0.76243 0.60352 0.0
O161 O 0.08093 0.65099 0.60023 0.0
O162 O 0.05931 0.66634 0.54911 0.0
H163 H 0.16845 0.73918 0.47945 0.0
H164 H 0.22845 0.74362 0.47545 0.0
C165 C 0.20778 0.76026 0.48754 0.0
H166 H 0.22494 0.79904 0.47807 0.0
H167 H 0.03286 0.68917 0.48814 0.0
O168 O 0.16365 0.69433 0.65386 0.0
C169 C 0.05334 0.63634 0.57376 0.0
Co170 Co 0.44332 0.1886 0.95573 0.0
Co171 Co 0.39737 0.13811 0.88357 0.0
C172 C 0.33517 0.1083 0.94794 0.0
O173 O 0.37383 0.139 0.96395 0.0
O174 O 0.33619 0.10436 0.91504 0.0
C175 C 0.49589 0.24688 1.01973 0.0
O176 O 0.49775 0.27703 0.04401 0.0
C177 C 0.35285 0.126 0.81249 0.0
C178 C 0.39535 0.0975 0.78462 0.0
C179 C 0.36156 0.11366 0.77933 0.0
N180 N 0.38147 0.11885 0.83548 0.0
N181 N 0.40588 0.10086 0.81852 0.0
C182 C 0.31761 0.1434 0.82267 0.0
H183 H 0.30728 0.13497 0.85044 0.0
H184 H 0.3356 0.18409 0.8189 0.0
H185 H 0.28373 0.1254 0.80652 0.0
C186 C 0.4903 0.27671 0.91299 0.0
N187 N 0.45361 0.22935 0.91686 0.0
N188 N 0.43681 0.20979 0.88635 0.0
C189 C 0.46317 0.24485 0.86191 0.0
C190 C 0.49807 0.28841 0.87799 0.0
C191 C 0.52505 0.30511 0.94164 0.0
H192 H 0.54025 0.28258 0.9527 0.0
H193 H 0.50418 0.31185 0.9622 0.0
H194 H 0.55661 0.34115 0.93309 0.0
O195 O 0.47925 0.15131 0.94736 0.0
O196 O 0.44055 0.11083 0.89948 0.0
H197 H 0.46904 0.20522 0.8188 0.0
H198 H 0.48638 0.26877 0.80882 0.0
C199 C 0.46042 0.23512 0.82388 0.0
H200 H 0.42244 0.2231 0.81482 0.0
H201 H 0.43155 0.09288 0.82986 0.0
O202 O 0.46008 0.22982 0.99853 0.0
C203 C 0.4714 0.11959 0.9239 0.0
Co204 Co 0.57194 0.72167 0.42655 0.0
Co205 Co 0.6292 0.74757 0.49622 0.0
C206 C 0.67967 0.77903 0.42351 0.0
O207 O 0.63784 0.76373 0.40949 0.0
O208 O 0.68291 0.77446 0.45637 0.0
C209 C 0.52413 0.72072 0.35968 0.0
O210 O 0.55137 0.76894 0.35537 0.0
C211 C 0.66921 0.81148 0.55922 0.0
C212 C 0.67158 0.75791 0.59571 0.0
C213 C 0.67663 0.80467 0.59412 0.0
N214 N 0.6586 0.76998 0.5417 0.0
N215 N 0.66135 0.73876 0.5637 0.0
C216 C 0.6743 0.85724 0.54232 0.0
H217 H 0.68773 0.86023 0.51525 0.0
H218 H 0.63783 0.8554 0.54134 0.0
H219 H 0.7004 0.89071 0.55696 0.0
C220 C 0.51098 0.75514 0.46186 0.0
N221 N 0.55266 0.75204 0.46008 0.0
N222 N 0.57281 0.75876 0.4909 0.0
C223 C 0.54209 0.76329 0.51384 0.0
C224 C 0.5027 0.76258 0.49596 0.0
C225 C 0.47492 0.74163 0.43275 0.0
H226 H 0.49417 0.76563 0.41002 0.0
H227 H 0.44259 0.74588 0.43966 0.0
H228 H 0.46109 0.70252 0.42551 0.0
O229 O 0.56488 0.65898 0.44516 0.0
O230 O 0.60022 0.67412 0.49674 0.0
H231 H 0.50813 0.73876 0.56457 0.0
H232 H 0.563 0.79762 0.56345 0.0
C233 C 0.54539 0.75998 0.55239 0.0
H234 H 0.56707 0.74186 0.55936 0.0
H235 H 0.65337 0.70305 0.55732 0.0
O236 O 0.52819 0.69971 0.38673 0.0
C237 C 0.57586 0.64406 0.47271 0.0
Co238 Co 0.8671 0.5891 0.7609 0.0
Co239 Co 0.90151 0.64689 0.83078 0.0
C240 C 0.91823 0.69759 0.75873 0.0
O241 O 0.89472 0.65557 0.74455 0.0
O242 O 0.92543 0.70152 0.79166 0.0
C243 C 0.86197 0.5291 0.7059 0.0
O244 O 0.91041 0.55815 0.70473 0.0
C245 C 0.88313 0.68926 0.89543 0.0
C246 C 0.92914 0.67551 0.93217 0.0
C247 C 0.89366 0.69014 0.93091 0.0
N248 N 0.90979 0.67314 0.87754 0.0
N249 N 0.93795 0.66619 0.89978 0.0
C250 C 0.84975 0.70459 0.87823 0.0
H251 H 0.8607 0.71417 0.85063 0.0
H252 H 0.8108 0.67376 0.87905 0.0
H253 H 0.85168 0.73691 0.89161 0.0
C254 C 0.77116 0.53915 0.79567 0.0
N255 N 0.81914 0.57498 0.79508 0.0
N256 N 0.8327 0.59434 0.82599 0.0
C257 C 0.7936 0.56849 0.84795 0.0
C258 C 0.75324 0.53325 0.8292 0.0
C259 C 0.74334 0.51035 0.76461 0.0
H260 H 0.75411 0.53534 0.74167 0.0
H261 H 0.70257 0.49266 0.76866 0.0
H262 H 0.75291 0.48109 0.75945 0.0
O263 O 0.92042 0.57703 0.7778 0.0
O264 O 0.94494 0.61581 0.82782 0.0
H265 H 0.7735 0.53224 0.89784 0.0
H266 H 0.78262 0.59353 0.89692 0.0
C267 C 0.79693 0.56994 0.88661 0.0
H268 H 0.83578 0.58439 0.89493 0.0
H269 H 0.96113 0.65217 0.89317 0.0
O270 O 0.83615 0.54281 0.72298 0.0
C271 C 0.94807 0.58894 0.80428 0.0
Co272 Co 0.25776 0.83377 0.08267 0.0
Co273 Co 0.26458 0.87747 0.15785 0.0
C274 C 0.23401 0.91392 0.09367 0.0
O275 O 0.2357 0.88116 0.07544 0.0
O276 O 0.24364 0.91713 0.1261 0.0
C277 C 0.265 0.78325 1.01805 0.0
O278 O 0.24444 0.76251 0.98859 0.0
C279 C 0.22803 0.87639 0.23113 0.0
C280 C 0.30009 0.92484 0.25581 0.0
C281 C 0.24999 0.89439 0.26336 0.0
N282 N 0.26398 0.89446 0.20633 0.0
N283 N 0.30662 0.92429 0.22146 0.0
C284 C 0.17455 0.84033 0.22417 0.0
H285 H 0.16987 0.82538 0.19764 0.0
H286 H 0.15959 0.8097 0.24357 0.0
H287 H 0.15286 0.85968 0.22643 0.0
C288 C 0.20294 0.73979 0.12071 0.0
N289 N 0.22326 0.78944 0.1197 0.0
N290 N 0.23009 0.80642 0.15152 0.0
C291 C 0.21765 0.76787 0.17363 0.0
C292 C 0.19909 0.72442 0.15477 0.0
C293 C 0.19111 0.7076 0.08957 0.0
H294 H 0.17569 0.72071 0.0689 0.0
H295 H 0.16373 0.66847 0.09624 0.0
H296 H 0.22531 0.7089 0.07974 0.0
O297 O 0.33127 0.87416 0.09197 0.0
O298 O 0.33517 0.90163 0.14553 0.0
H299 H 0.26401 0.81117 0.21573 0.0
H300 H 0.24598 0.74647 0.21727 0.0
C301 C 0.23337 0.77316 0.21066 0.0
H302 H 0.20115 0.7644 0.22767 0.0
H303 H 0.34081 0.94254 0.20852 0.0
O304 O 0.24198 0.79769 0.03781 0.0
C305 C 0.35642 0.89831 0.11819 0.0
Co306 Co 0.42448 0.25461 0.42038 0.0
Co307 Co 0.38269 0.25566 0.49453 0.0
C308 C 0.31931 0.22589 0.42813 0.0
O309 O 0.35507 0.22868 0.41042 0.0
O310 O 0.32413 0.23513 0.46067 0.0
C311 C 0.47447 0.24652 0.34879 0.0
O312 O 0.45556 0.2035 0.33338 0.0
C313 C 0.34104 0.21082 0.56511 0.0
C314 C 0.36079 0.27903 0.59385 0.0
C315 C 0.3412 0.22842 0.59845 0.0
N316 N 0.36093 0.24965 0.5426 0.0
N317 N 0.3717 0.29 0.56011 0.0
C318 C 0.32032 0.15815 0.55427 0.0
H319 H 0.31149 0.15447 0.52625 0.0
H320 H 0.34789 0.14613 0.55869 0.0
H321 H 0.28642 0.13349 0.56967 0.0
C322 C 0.46676 0.20237 0.45696 0.0
N323 N 0.43507 0.22 0.45636 0.0
N324 N 0.42196 0.22353 0.48821 0.0
C325 C 0.44758 0.21048 0.5102 0.0
C326 C 0.47565 0.19546 0.49098 0.0
C327 C 0.49332 0.19861 0.42577 0.0
H328 H 0.46609 0.17895 0.40502 0.0
H329 H 0.5134 0.17836 0.43174 0.0
H330 H 0.52046 0.23643 0.41628 0.0
O331 O 0.45427 0.32595 0.43201 0.0
O332 O 0.42797 0.32792 0.48529 0.0
H333 H 0.49446 0.23823 0.55483 0.0
H334 H 0.43309 0.18861 0.56357 0.0
C335 C 0.45482 0.22284 0.54788 0.0
H336 H 0.44352 0.25033 0.55442 0.0
H337 H 0.38841 0.32554 0.54923 0.0
O338 O 0.45508 0.24992 0.37685 0.0
C339 C 0.4533 0.35011 0.45824 0.0
Co340 Co 0.19915 0.44617 0.75728 0.0
Co341 Co 0.13668 0.38816 0.82358 0.0
C342 C 0.12094 0.3398 0.75258 0.0
O343 O 0.15709 0.37954 0.74068 0.0
O344 O 0.10839 0.33642 0.78454 0.0
C345 C 0.26484 0.517 0.70256 0.0
O346 O 0.30295 0.53249 0.6813 0.0
C347 C 0.13007 0.33182 0.88714 0.0
C348 C 0.07996 0.34549 0.91985 0.0
C349 C 0.11137 0.32567 0.92114 0.0
N350 N 0.11197 0.35558 0.86801 0.0
N351 N 0.08102 0.36242 0.88754 0.0
C352 C 0.167 0.31895 0.87274 0.0
H353 H 0.17559 0.33087 0.84523 0.0
H354 H 0.20192 0.33701 0.88773 0.0
H355 H 0.15123 0.27822 0.87421 0.0
C356 C 0.28016 0.48567 0.80607 0.0
N357 N 0.23355 0.45025 0.79822 0.0
N358 N 0.20813 0.43 0.82682 0.0
C359 C 0.2377 0.45398 0.85406 0.0
C360 C 0.28462 0.48965 0.84175 0.0
C361 C 0.31541 0.52279 0.78016 0.0
H362 H 0.32237 0.50316 0.75898 0.0
H363 H 0.35161 0.54973 0.79135 0.0
H364 H 0.29841 0.54384 0.76935 0.0
O365 O 0.15356 0.47417 0.76616 0.0
O366 O 0.11095 0.43437 0.81407 0.0
H367 H 0.18175 0.44473 0.89111 0.0
H368 H 0.2446 0.4807 0.90681 0.0
C369 C 0.21933 0.44887 0.89066 0.0
H370 H 0.21739 0.41572 0.90281 0.0
H371 H 0.0631 0.38148 0.87947 0.0
O372 O 0.24995 0.47688 0.71938 0.0
C373 C 0.12092 0.46602 0.78966 0.0
Co374 Co 0.73209 0.15112 0.09241 0.0
Co375 Co 0.75268 0.12109 0.16534 0.0
C376 C 0.78624 0.09719 0.09601 0.0
O377 O 0.77217 0.12282 0.07885 0.0
O378 O 0.78055 0.09248 0.12907 0.0
C379 C 0.6795 0.14371 0.03292 0.0
O380 O 0.66865 0.0973 0.03587 0.0
C381 C 0.8129 0.13785 0.22989 0.0
C382 C 0.75246 0.09238 0.26692 0.0
C383 C 0.80306 0.12592 0.26523 0.0
N384 N 0.76981 0.11351 0.21235 0.0
N385 N 0.73421 0.08577 0.23474 0.0
C386 C 0.86209 0.16996 0.21252 0.0
H387 H 0.86029 0.15981 0.18486 0.0
H388 H 0.87186 0.20931 0.21356 0.0
H389 H 0.89162 0.166 0.2257 0.0
C390 C 0.77441 0.24864 0.12395 0.0
N391 N 0.76377 0.20117 0.12518 0.0
N392 N 0.77011 0.18942 0.15678 0.0
C393 C 0.78315 0.22929 0.17714 0.0
C394 C 0.78693 0.26826 0.15684 0.0
C395 C 0.7706 0.27387 0.09195 0.0
H396 H 0.78466 0.26274 0.06928 0.0
H397 H 0.79215 0.3148 0.09437 0.0
H398 H 0.73098 0.26219 0.08746 0.0
O399 O 0.66703 0.0977 0.11 0.0
O400 O 0.67866 0.07893 0.16319 0.0
H401 H 0.76937 0.25216 0.22649 0.0
H402 H 0.82116 0.24203 0.22532 0.0
C403 C 0.78283 0.2279 0.21589 0.0
H404 H 0.75853 0.18967 0.22573 0.0
H405 H 0.69683 0.06389 0.22832 0.0
O406 O 0.71325 0.17592 0.05196 0.0
C407 C 0.65009 0.07283 0.13788 0.0
H408 H 0.5808 0.53792 0.20722 0.0
H409 H 0.58675 0.52069 0.31765 0.0
H410 H 0.49765 0.4902 0.32263 0.0
H411 H 0.41712 0.46691 0.2954 0.0
H412 H 0.41062 0.48027 0.18469 0.0
H413 H 0.50041 0.51399 0.18004 0.0
C414 C 0.56258 0.52746 0.23237 0.0
C415 C 0.5905 0.53118 0.26196 0.0
C416 C 0.51107 0.5095 0.23502 0.0
C417 C 0.56615 0.51734 0.29434 0.0
C418 C 0.51516 0.50026 0.29726 0.0
C419 C 0.43558 0.47798 0.27037 0.0
C420 C 0.40735 0.47174 0.24049 0.0
C421 C 0.48716 0.4961 0.26778 0.0
C422 C 0.43155 0.48492 0.20809 0.0
C423 C 0.48289 0.50411 0.2054 0.0
H424 H 0.91961 0.40933 0.53907 0.0
H425 H 0.90744 0.39829 0.65043 0.0
H426 H 0.95589 0.48861 0.65453 0.0
H427 H 0.00713 0.57038 0.62654 0.0
H428 H 0.01634 0.58177 0.5151 0.0
H429 H 0.96348 0.49177 0.51094 0.0
C430 C 0.9273 0.42673 0.56423 0.0
C431 C 0.91032 0.39702 0.59442 0.0
C432 C 0.9549 0.47876 0.56636 0.0
C433 C 0.92001 0.4202 0.62679 0.0
C434 C 0.94794 0.47188 0.62915 0.0
C435 C 0.99717 0.55321 0.60132 0.0
C436 C 0.01612 0.58276 0.57115 0.0
C437 C 0.96638 0.50147 0.59913 0.0
C438 C 1.00228 0.55998 0.5387 0.0
C439 C 0.97226 0.50846 0.53632 0.0
H440 H 0.42802 0.02035 0.9297 0.0
H441 H 0.571 0.15326 0.92267 0.0
H442 H 0.61234 0.10351 0.92289 0.0
H443 H 0.60714 0.02134 0.92371 0.0
H444 H 0.46429 0.8894 0.93619 0.0
H445 H 0.42325 0.93915 0.9354 0.0
C446 C 0.46824 0.03823 0.92827 0.0
C447 C 0.4966 0.09013 0.92575 0.0
C448 C 0.49155 0.00946 0.92935 0.0
C449 C 0.54862 0.11325 0.9244 0.0
C450 C 0.57213 0.08482 0.92448 0.0
C451 C 0.56705 0.00373 0.92624 0.0
C452 C 0.5385 0.95184 0.92965 0.0
C453 C 0.54395 0.03283 0.92668 0.0
C454 C 0.48677 0.92926 0.93355 0.0
C455 C 0.46339 0.95769 0.933 0.0
H456 H 0.55474 0.57791 0.42158 0.0
H457 H 0.55637 0.58955 0.53276 0.0
H458 H 0.51881 0.49935 0.53846 0.0
H459 H 0.48183 0.41659 0.51136 0.0
H460 H 0.48472 0.40733 0.39996 0.0
H461 H 0.52413 0.49704 0.39491 0.0
C462 C 0.54714 0.56078 0.44711 0.0
C463 C 0.55792 0.59033 0.4767 0.0
C464 C 0.52608 0.50921 0.45013 0.0
C465 C 0.54849 0.56763 0.50957 0.0
C466 C 0.52678 0.51604 0.51282 0.0
C467 C 0.4913 0.43428 0.48602 0.0
C468 C 0.47995 0.40507 0.45609 0.0
C469 C 0.5148 0.48634 0.48323 0.0
C470 C 0.49298 0.4287 0.42345 0.0
C471 C 0.51546 0.48011 0.42049 0.0
H472 H 0.09535 0.50929 0.84097 0.0
H473 H 0.07601 0.47466 0.73248 0.0
H474 H 0.0225 0.51113 0.72702 0.0
H475 H 0.97875 0.54999 0.75349 0.0
H476 H 0.99799 0.58595 0.86202 0.0
H477 H 0.05366 0.55177 0.86718 0.0
C478 C 0.07965 0.5102 0.81614 0.0
C479 C 0.09059 0.49051 0.78688 0.0
C480 C 0.04857 0.53108 0.81332 0.0
C481 C 0.06963 0.49134 0.75497 0.0
C482 C 0.0385 0.51157 0.75198 0.0
C483 C 0.99516 0.55056 0.77832 0.0
C484 C 0.98383 0.57038 0.80738 0.0
C485 C 0.02748 0.5313 0.78101 0.0
C486 C 0.00597 0.57104 0.83921 0.0
C487 C 0.03776 0.55137 0.8422 0.0
H488 H 0.42135 0.93588 0.17171 0.0
H489 H 0.41578 0.92191 0.0605 0.0
H490 H 0.50614 0.97385 0.05696 0.0
H491 H 0.58623 0.02694 0.08516 0.0
H492 H 0.59254 0.03777 0.19649 0.0
H493 H 0.50234 0.98317 0.20026 0.0
C494 C 0.43988 0.94393 0.14669 0.0
C495 C 0.41161 0.92554 0.11638 0.0
C496 C 0.49196 0.97345 0.14486 0.0
C497 C 0.43644 0.93573 0.08424 0.0
C498 C 0.48817 0.96558 0.08218 0.0
C499 C 0.56791 0.01721 0.11029 0.0
C500 C 0.59603 0.03688 0.14051 0.0
C501 C 0.51619 0.98528 0.11227 0.0
C502 C 0.5718 0.02324 0.17286 0.0
C503 C 0.5202 0.99212 0.17501 0.0
H504 H 0.2196 0.29073 0.04846 0.0
H505 H 0.13519 0.3449 0.10315 0.0
H506 H 0.094 0.34502 0.04985 0.0
H507 H 0.08828 0.33846 0.98689 0.0
H508 H 0.16917 0.28009 0.93208 0.0
H509 H 0.20511 0.27344 0.98583 0.0
C510 C 0.19145 0.30162 0.04882 0.0
C511 C 0.18044 0.31737 0.08009 0.0
C512 C 0.16795 0.30207 1.01775 0.0
C513 C 0.14394 0.33152 0.07996 0.0
C514 C 0.12066 0.33222 0.04922 0.0
C515 C 0.11342 0.32381 0.98635 0.0
C516 C 0.12762 0.31257 0.95435 0.0
C517 C 0.13331 0.3188 1.01781 0.0
C518 C 0.15927 0.29227 0.95519 0.0
C519 C 0.17957 0.28762 0.98638 0.0
H520 H 0.78625 0.08508 0.32951 0.0
H521 H 0.88888 0.21769 0.273 0.0
H522 H 0.93058 0.25617 0.32656 0.0
H523 H 0.93242 0.25597 0.39032 0.0
H524 H 0.82211 0.12641 0.44628 0.0
H525 H 0.7901 0.0837 0.39263 0.0
C526 C 0.81819 0.12223 0.32867 0.0
C527 C 0.83439 0.14777 0.29667 0.0
C528 C 0.84081 0.14519 0.35992 0.0
C529 C 0.87589 0.19599 0.29655 0.0
C530 C 0.89952 0.21855 0.32752 0.0
C531 C 0.90176 0.21811 0.39099 0.0
C532 C 0.8809 0.19483 0.42321 0.0
C533 C 0.8815 0.19396 0.35947 0.0
C534 C 0.84086 0.14573 0.42289 0.0
C535 C 0.82163 0.12107 0.39175 0.0
H536 H 0.63147 0.90325 0.72097 0.0
H537 H 0.72659 0.8588 0.77219 0.0
H538 H 0.74036 0.829 0.71775 0.0
H539 H 0.72227 0.81136 0.65552 0.0
H540 H 0.63015 0.8592 0.60417 0.0
H541 H 0.62019 0.89327 0.65815 0.0
C542 C 0.65554 0.88735 0.72047 0.0
C543 C 0.67592 0.88154 0.75167 0.0
C544 C 0.66461 0.8714 0.68859 0.0
C545 C 0.70777 0.86159 0.74967 0.0
C546 C 0.71649 0.84513 0.71811 0.0
C547 C 0.7007 0.83002 0.65599 0.0
C548 C 0.67763 0.83314 0.62539 0.0
C549 C 0.69445 0.84906 0.68749 0.0
C550 C 0.64958 0.85723 0.62672 0.0
C551 C 0.64321 0.87618 0.65789 0.0
H552 H 0.75317 0.6787 0.05507 0.0
H553 H 0.87834 0.69332 0.1131 0.0
H554 H 0.92501 0.70687 0.06008 0.0
H555 H 0.92873 0.70701 0.99671 0.0
H556 H 0.80038 0.68235 0.93813 0.0
H557 H 0.75771 0.68089 0.99128 0.0
C558 C 0.79092 0.68546 0.05635 0.0
C559 C 0.81188 0.68598 0.08896 0.0
C560 C 0.8174 0.69122 0.02518 0.0
C561 C 0.86086 0.69435 0.08938 0.0
C562 C 0.88776 0.70142 0.05861 0.0
C563 C 0.89159 0.70189 0.9953 0.0
C564 C 0.86872 0.69569 0.9627 0.0
C565 C 0.86612 0.69898 0.02634 0.0
C566 C 0.82032 0.68883 0.96205 0.0
C567 C 0.79528 0.68722 0.99281 0.0
H568 H 0.20087 0.82774 0.42062 0.0
H569 H 0.05648 0.80266 0.39151 0.0
H570 H 0.08754 0.83407 0.333 0.0
H571 H 0.15546 0.86581 0.28925 0.0
H572 H 0.29934 0.88945 0.31948 0.0
H573 H 0.26928 0.86331 0.37831 0.0
C574 C 0.1767 0.83109 0.40202 0.0
C575 C 0.1268 0.81441 0.41093 0.0
C576 C 0.19465 0.8485 0.36824 0.0
C577 C 0.09532 0.81616 0.38556 0.0
C578 C 0.113 0.83384 0.35199 0.0
C579 C 0.18011 0.86473 0.3085 0.0
C580 C 0.22954 0.87893 0.29935 0.0
C581 C 0.1625 0.8494 0.34278 0.0
C582 C 0.26112 0.87875 0.32538 0.0
C583 C 0.24396 0.86365 0.35923 0.0
H584 H 0.33279 0.18099 0.7579 0.0
H585 H 0.35949 0.06623 0.72009 0.0
H586 H 0.35134 0.08787 0.66075 0.0
H587 H 0.34629 0.14555 0.6194 0.0
H588 H 0.31558 0.25757 0.65733 0.0
H589 H 0.3148 0.23002 0.71658 0.0
C590 C 0.33502 0.15927 0.73705 0.0
C591 C 0.34671 0.12176 0.74405 0.0
C592 C 0.33014 0.17181 0.70263 0.0
C593 C 0.35084 0.09551 0.71585 0.0
C594 C 0.34623 0.10788 0.6817 0.0
C595 C 0.3376 0.16294 0.64028 0.0
C596 C 0.33099 0.20381 0.63339 0.0
C597 C 0.33718 0.14687 0.67466 0.0
C598 C 0.32118 0.22629 0.66154 0.0
C599 C 0.32079 0.2106 0.69562 0.0
H600 H 0.29182 0.19246 0.36244 0.0
H601 H 0.25491 0.25819 0.44709 0.0
H602 H 0.21094 0.28393 0.4072 0.0
H603 H 0.20043 0.30422 0.34731 0.0
H604 H 0.24454 0.24522 0.26225 0.0
H605 H 0.26709 0.19959 0.30318 0.0
C606 C 0.27282 0.21107 0.37245 0.0
C607 C 0.27766 0.22418 0.40782 0.0
C608 C 0.24962 0.22784 0.34902 0.0
C609 C 0.2521 0.24763 0.4202 0.0
C610 C 0.22744 0.26297 0.39721 0.0
C611 C 0.21358 0.2802 0.33757 0.0
C612 C 0.22166 0.27908 0.30157 0.0
C613 C 0.22857 0.25582 0.36136 0.0
C614 C 0.23802 0.2471 0.28961 0.0
C615 C 0.25152 0.2214 0.31313 0.0
H616 H 1.00008 0.25798 0.61699 0.0
H617 H 0.87988 0.18289 0.69074 0.0
H618 H 0.93888 0.20668 0.73783 0.0
H619 H 0.02359 0.26346 0.75932 0.0
H620 H 0.1442 0.3341 0.68532 0.0
H621 H 0.0866 0.29669 0.63786 0.0
C622 C 0.98678 0.2451 0.64312 0.0
C623 C 0.9353 0.2198 0.6501 0.0
C624 C 0.02116 0.2591 0.67055 0.0
C625 C 0.91918 0.20329 0.68438 0.0
C626 C 0.95299 0.21716 0.71159 0.0
C627 C 0.03761 0.26925 0.73294 0.0
C628 C 0.08824 0.30295 0.72623 0.0
C629 C 1.00402 0.2474 0.70525 0.0
C630 C 0.10536 0.30932 0.6916 0.0
C631 C 0.07231 0.28804 0.66416 0.0
H632 H 0.72394 0.90827 1.0151 0.0
H633 H 0.76315 0.0127 0.93051 0.0
H634 H 0.81117 0.08108 0.96989 0.0
H635 H 0.82035 0.11062 0.0297 0.0
H636 H 0.77181 0.00573 0.11469 0.0
H637 H 0.75082 0.9385 0.07409 0.0
C638 C 0.74466 0.9459 1.005 0.0
C639 C 0.73885 0.95542 0.97001 0.0
C640 C 0.76974 0.98516 0.02822 0.0
C641 C 0.76661 0.0042 0.95723 0.0
C642 C 0.79352 0.04346 0.97996 0.0
C643 C 0.80701 0.07329 0.03948 0.0
C644 C 0.79632 0.06309 0.0752 0.0
C645 C 0.79218 0.03444 1.01579 0.0
C646 C 0.78004 0.01475 0.08745 0.0
C647 C 0.76728 0.97608 0.06409 0.0
H648 H 0.75434 0.75625 0.42866 0.0
H649 H 0.69538 0.82431 0.36077 0.0
H650 H 0.73045 0.80532 0.31067 0.0
H651 H 0.75817 0.74982 0.2858 0.0
H652 H 0.82155 0.68612 0.35384 0.0
H653 H 0.80583 0.72387 0.40355 0.0
C654 C 0.7515 0.7694 0.40317 0.0
C655 C 0.72105 0.79055 0.39861 0.0
C656 C 0.77141 0.75774 0.37404 0.0
C657 C 0.718 0.80729 0.36514 0.0
C658 C 0.73756 0.79585 0.33624 0.0
C659 C 0.77076 0.74615 0.3112 0.0
C660 C 0.78958 0.71372 0.31597 0.0
C661 C 0.76141 0.76804 0.34017 0.0
C662 C 0.80591 0.70991 0.34931 0.0
C663 C 0.79661 0.73128 0.378 0.0
H664 H 0.01503 0.77387 0.75817 0.0
H665 H 0.87825 0.71329 0.70145 0.0
H666 H 0.92427 0.74579 0.64742 0.0
H667 H 1.00255 0.76779 0.61599 0.0
H668 H 0.13959 0.83328 0.6727 0.0
H669 H 0.09475 0.82428 0.72653 0.0
C670 C 0.99524 0.77048 0.73436 0.0
C671 C 0.94327 0.73981 0.73382 0.0
C672 C 0.02216 0.78896 0.70295 0.0
C673 C 0.91836 0.73609 0.70256 0.0
C674 C 0.94472 0.75408 0.67141 0.0
C675 C 0.02293 0.78292 0.63971 0.0
C676 C 0.0742 0.79966 0.64037 0.0
C677 C 0.99666 0.77716 0.67102 0.0
C678 C 0.09992 0.81936 0.6715 0.0
C679 C 0.07418 0.81359 0.70255 0.0
H680 H 0.20205 0.91158 0.02785 0.0
H681 H 0.26707 0.00968 0.11432 0.0
H682 H 0.29495 0.08125 0.07553 0.0
H683 H 0.31751 0.11465 1.01624 0.0
H684 H 0.26009 0.01586 0.92942 0.0
H685 H 0.21187 0.94619 0.96907 0.0
C686 C 0.221 0.94861 0.03849 0.0
C687 C 0.23334 0.95505 0.07403 0.0
C688 C 0.23922 0.98961 1.01571 0.0
C689 C 0.25716 0.00334 0.08725 0.0
C690 C 0.27373 0.0444 0.0649 0.0
C691 C 0.29335 0.07811 1.00581 0.0
C692 C 0.29338 0.07049 0.96974 0.0
C693 C 0.26758 0.03786 0.0289 0.0
C694 C 0.26114 0.023 0.95688 0.0
C695 C 0.23394 0.98297 0.97967 0.0
H696 H 0.3033 0.591 0.32926 0.0
H697 H 0.34671 0.47964 0.3343 0.0
H698 H 0.43431 0.54375 0.32968 0.0
H699 H 0.49691 0.63065 0.33636 0.0
H700 H 0.45391 0.74238 0.33754 0.0
H701 H 0.36772 0.67939 0.32566 0.0
C702 C 0.33212 0.58101 0.32833 0.0
C703 C 0.31924 0.53111 0.3317 0.0
C704 C 0.38219 0.61811 0.32656 0.0
C705 C 0.35623 0.51796 0.33087 0.0
C706 C 0.40613 0.55453 0.32847 0.0
C707 C 0.46888 0.6413 0.33248 0.0
C708 C 0.48102 0.6905 0.33809 0.0
C709 C 0.41943 0.60467 0.32779 0.0
C710 C 0.44508 0.70456 0.33306 0.0
C711 C 0.39575 0.66842 0.32696 0.0
H712 H 0.77912 0.30392 0.7365 0.0
H713 H 0.76478 0.29595 0.62561 0.0
H714 H 0.79929 0.38574 0.62181 0.0
H715 H 0.83505 0.46731 0.65069 0.0
H716 H 0.84598 0.47281 0.76194 0.0
H717 H 0.81174 0.38335 0.76513 0.0
C718 C 0.78348 0.32196 0.71155 0.0
C719 C 0.77061 0.29397 0.68135 0.0
C720 C 0.80307 0.37317 0.7097 0.0
C721 C 0.77551 0.3172 0.64916 0.0
C722 C 0.79508 0.36845 0.64699 0.0
C723 C 0.82989 0.44857 0.67543 0.0
C724 C 0.84283 0.47582 0.70602 0.0
C725 C 0.80948 0.39693 0.67711 0.0
C726 C 0.83611 0.4519 0.73814 0.0
C727 C 0.81652 0.40096 0.74 0.0
H728 H 0.33733 0.79486 0.97364 0.0
H729 H 0.30128 0.78338 0.08241 0.0
H730 H 0.3818 0.79253 0.09678 0.0
H731 H 0.46094 0.80036 0.07824 0.0
H732 H 0.49407 0.80484 0.96936 0.0
H733 H 0.41599 0.80124 0.9551 0.0
C734 C 0.34721 0.79449 1.0005 0.0
C735 C 0.31395 0.78971 0.02701 0.0
C736 C 0.39301 0.79843 1.00846 0.0
C737 C 0.32684 0.78856 0.0616 0.0
C738 C 0.37273 0.79336 0.06982 0.0
C739 C 0.4513 0.80098 0.05136 0.0
C740 C 0.48375 0.80371 0.02485 0.0
C741 C 0.40596 0.79804 0.04342 0.0
C742 C 0.47056 0.80421 0.99023 0.0
C743 C 0.42564 0.8017 0.98207 0.0
H744 H 0.7001 0.39943 0.33299 0.0
H745 H 0.64664 0.50142 0.34915 0.0
H746 H 0.56046 0.43327 0.34537 0.0
H747 H 0.5016 0.3433 0.3461 0.0
H748 H 0.55546 0.24184 0.328 0.0
H749 H 0.64065 0.31131 0.32295 0.0
C750 C 0.66943 0.40669 0.33471 0.0
C751 C 0.67904 0.45494 0.34108 0.0
C752 C 0.62045 0.36754 0.33234 0.0
C753 C 0.63958 0.46444 0.34358 0.0
C754 C 0.59054 0.42553 0.34171 0.0
C755 C 0.53201 0.33672 0.34025 0.0
C756 C 0.52292 0.28793 0.33797 0.0
C757 C 0.58064 0.37674 0.33732 0.0
C758 C 0.56199 0.27931 0.32989 0.0
C759 C 0.61061 0.31891 0.32727 0.0
H760 H 0.30778 0.6133 0.72009 0.0
H761 H 0.16823 0.48579 0.69281 0.0
H762 H 0.12854 0.53656 0.69172 0.0
H763 H 0.13539 0.61717 0.69301 0.0
H764 H 0.27652 0.74729 0.71302 0.0
H765 H 0.31293 0.69496 0.72613 0.0
C766 C 0.26836 0.59671 0.71491 0.0
C767 C 0.24045 0.54622 0.70687 0.0
C768 C 0.24587 0.62607 0.71444 0.0
C769 C 0.1898 0.52459 0.69958 0.0
C770 C 0.16713 0.55338 0.69924 0.0
C771 C 0.1738 0.63392 0.70123 0.0
C772 C 0.20357 0.68565 0.7017 0.0
C773 C 0.19496 0.60412 0.70608 0.0
C774 C 0.25299 0.70736 0.71271 0.0
C775 C 0.27393 0.67751 0.71953 0.0
H776 H 0.48781 0.1572 1.0129 0.0
H777 H 0.5943 0.31274 1.02109 0.0
H778 H 0.66265 0.29496 1.01962 0.0
H779 H 0.69091 0.23454 1.02138 0.0
H780 H 0.58414 0.07842 1.0138 0.0
H781 H 0.51713 0.09713 1.00748 0.0
C782 C 0.52612 0.18712 1.01311 0.0
C783 C 0.53649 0.2361 1.01633 0.0
C784 C 0.56497 0.17653 1.01208 0.0
C785 C 0.58588 0.27472 1.01841 0.0
C786 C 0.6248 0.26461 1.01738 0.0
C787 C 0.65314 0.20468 1.01745 0.0
C788 C 0.64245 0.15523 1.01862 0.0
C789 C 0.61468 0.21557 1.01483 0.0
C790 C 0.59343 0.11688 1.01318 0.0
C791 C 0.55493 0.12748 1.01001 0.0
H792 H 0.26038 0.68853 0.14177 0.0
H793 H 0.12386 0.65345 0.19412 0.0
H794 H 0.11218 0.57229 0.21179 0.0
H795 H 0.14206 0.51194 0.21288 0.0
H796 H 0.28343 0.55199 0.1658 0.0
H797 H 0.29161 0.62988 0.14465 0.0
C798 C 0.22811 0.66291 0.15703 0.0
C799 C 0.19279 0.67633 0.16658 0.0
C800 C 0.2223 0.61703 0.16751 0.0
C801 C 0.15136 0.64351 0.1866 0.0
C802 C 0.14469 0.59721 0.19653 0.0
C803 C 0.1743 0.53762 0.19764 0.0
C804 C 0.21134 0.52562 0.18996 0.0
C805 C 0.17994 0.58355 0.18712 0.0
C806 C 0.25357 0.55958 0.17093 0.0
C807 C 0.2586 0.60444 0.15928 0.0
H808 H 0.57423 0.26019 0.48702 0.0
H809 H 0.4674 0.11261 0.52122 0.0
H810 H 0.53494 0.09704 0.5372 0.0
H811 H 0.62491 0.1261 0.54152 0.0
H812 H 0.73096 0.27691 0.51285 0.0
H813 H 0.66376 0.29021 0.49342 0.0
C814 C 0.56601 0.22481 0.4982 0.0
C815 C 0.51628 0.18755 0.50315 0.0
C816 C 0.60495 0.21651 0.50759 0.0
C817 C 0.50561 0.14179 0.51752 0.0
C818 C 0.54416 0.13287 0.5264 0.0
C819 C 0.63314 0.16173 0.53084 0.0
C820 C 0.6829 0.20013 0.52799 0.0
C821 C 0.59403 0.16994 0.52147 0.0
C822 C 0.69311 0.24628 0.51436 0.0
C823 C 0.65464 0.25416 0.50373 0.0
H824 H 0.38326 0.52117 0.84232 0.0
H825 H 0.27494 0.55841 0.87906 0.0
H826 H 0.34112 0.63647 0.90189 0.0
H827 H 0.43033 0.69728 0.90745 0.0
H828 H 0.53896 0.66574 0.86344 0.0
H829 H 0.47267 0.58308 0.84647 0.0
C830 C 0.37433 0.54613 0.85591 0.0
C831 C 0.32424 0.5333 0.86003 0.0
C832 C 0.41278 0.59252 0.8668 0.0
C833 C 0.31303 0.56644 0.87681 0.0
C834 C 0.35093 0.61153 0.88928 0.0
C835 C 0.43923 0.67208 0.89418 0.0
C836 C 0.4891 0.68703 0.88668 0.0
C837 C 0.40093 0.62537 0.88384 0.0
C838 C 0.50063 0.65469 0.86928 0.0
C839 C 0.46282 0.60752 0.85977 0.0
H840 H 0.85079 0.48032 0.21683 0.0
H841 H 0.71301 0.44907 0.16932 0.0
H842 H 0.70225 0.37113 0.14696 0.0
H843 H 0.72894 0.309 0.14441 0.0
H844 H 0.86321 0.33653 0.19555 0.0
H845 H 0.87781 0.41791 0.21402 0.0
C846 C 0.81883 0.45661 0.20116 0.0
C847 C 0.78322 0.4708 0.19417 0.0
C848 C 0.81176 0.41071 0.18975 0.0
C849 C 0.74156 0.43956 0.17429 0.0
C850 C 0.73505 0.39467 0.16192 0.0
C851 C 0.76167 0.33312 0.15926 0.0
C852 C 0.79526 0.31717 0.16838 0.0
C853 C 0.76946 0.37949 0.16997 0.0
C854 C 0.83688 0.34815 0.18832 0.0
C855 C 0.84531 0.39469 0.1987 0.0
H856 H 0.46451 0.8228 0.48396 0.0
H857 H 0.43324 0.68748 0.53622 0.0
H858 H 0.3523 0.67446 0.55517 0.0
H859 H 0.28947 0.70048 0.55574 0.0
H860 H 0.31856 0.8341 0.50196 0.0
H861 H 0.40036 0.84807 0.48355 0.0
C862 C 0.44009 0.79092 0.49993 0.0
C863 C 0.45552 0.75714 0.50987 0.0
C864 C 0.39283 0.78285 0.50974 0.0
C865 C 0.4231 0.7151 0.52959 0.0
C866 C 0.37648 0.70723 0.53992 0.0
C867 C 0.31388 0.73279 0.54013 0.0
C868 C 0.29836 0.76659 0.53055 0.0
C869 C 0.3609 0.74075 0.53006 0.0
C870 C 0.32974 0.80759 0.5096 0.0
C871 C 0.37662 0.81575 0.49933 0.0
H872 H 0.7116 0.43502 0.81755 0.0
H873 H 0.68594 0.54188 0.86991 0.0
H874 H 0.60236 0.47599 0.88719 0.0
H875 H 0.53645 0.38748 0.88692 0.0
H876 H 0.56549 0.28107 0.83706 0.0
H877 H 0.6469 0.34741 0.81778 0.0
C878 C 0.68752 0.44386 0.83256 0.0
C879 C 0.70444 0.49316 0.84215 0.0
C880 C 0.63976 0.40598 0.84212 0.0
C881 C 0.67354 0.50409 0.86233 0.0
C882 C 0.62572 0.46653 0.87192 0.0
C883 C 0.5605 0.37914 0.87142 0.0
C884 C 0.54457 0.32962 0.86275 0.0
C885 C 0.60829 0.41735 0.86173 0.0
C886 C 0.57626 0.31898 0.8432 0.0
C887 C 0.62314 0.35682 0.83264 0.0
loop_
_geom_bond_atom_site_label_1
_geom_bond_atom_site_label_2
_geom_bond_distance
_geom_bond_site_symmetry_2
_ccdc_geom_bond_type
Co0 O3 1.970 . S
Co0 N17 1.989 . S
Co0 O25 1.967 . S
Co0 O32 1.920 . S
Co1 O4 1.966 . S
Co1 N10 2.022 . S
Co1 N18 1.993 . S
Co1 O26 1.941 . S
C2 O3 1.258 . S
C2 O4 1.263 . S
O3 Co0 1.970 . S
O3 C2 1.258 . S
O4 Co1 1.966 . S
O4 C2 1.263 . S
C5 O6 1.235 . S
C5 O32 1.289 . S
O6 C5 1.235 . S
C7 C9 1.400 . S
C7 N10 1.351 . S
C7 C12 1.501 . S
C8 C9 1.387 . S
C8 N11 1.341 . S
C9 C7 1.400 . S
C9 C8 1.387 . S
N10 Co1 2.022 . S
N10 C7 1.351 . S
N10 N11 1.365 . S
N11 C8 1.341 . S
N11 N10 1.365 . S
N11 H31 0.862 . S
C12 C7 1.501 . S
C12 H13 0.961 . S
C12 H14 0.961 . S
C12 H15 0.960 . S
H13 C12 0.961 . S
H14 C12 0.961 . S
H15 C12 0.960 . S
C16 N17 1.342 . S
C16 C20 1.401 . S
C16 C21 1.499 . S
N17 Co0 1.989 . S
N17 C16 1.342 . S
N17 N18 1.388 . S
N18 Co1 1.993 . S
N18 N17 1.388 . S
N18 C19 1.346 . S
C19 N18 1.346 . S
C19 C20 1.396 . S
C19 C29 1.510 . S
C20 C16 1.401 . S
C20 C19 1.396 . S
C21 C16 1.499 . S
C21 H22 0.959 . S
C21 H23 0.960 . S
C21 H24 0.961 . S
H22 C21 0.959 . S
H23 C21 0.960 . S
H24 C21 0.961 . S
O25 Co0 1.967 . S
O25 C33 1.258 . S
O26 Co1 1.941 . S
O26 C33 1.266 . S
H27 C29 0.959 . S
H28 C29 0.961 . S
C29 C19 1.510 . S
C29 H27 0.959 . S
C29 H28 0.961 . S
C29 H30 0.960 . S
H30 C29 0.960 . S
H31 N11 0.862 . S
O32 Co0 1.920 . S
O32 C5 1.289 . S
C33 O25 1.258 . S
C33 O26 1.266 . S
Co34 O37 1.970 . S
Co34 N51 1.989 . S
Co34 O59 1.967 . S
Co34 O66 1.920 . S
Co35 O38 1.966 . S
Co35 N44 2.022 . S
Co35 N52 1.993 . S
Co35 O60 1.941 . S
C36 O37 1.258 . S
C36 O38 1.263 . S
O37 Co34 1.970 . S
O37 C36 1.258 . S
O38 Co35 1.966 . S
O38 C36 1.263 . S
C39 O40 1.235 . S
C39 O66 1.289 . S
O40 C39 1.235 . S
C41 C43 1.400 . S
C41 N44 1.351 . S
C41 C46 1.501 . S
C42 C43 1.387 . S
C42 N45 1.341 . S
C43 C41 1.400 . S
C43 C42 1.387 . S
N44 Co35 2.022 . S
N44 C41 1.351 . S
N44 N45 1.365 . S
N45 C42 1.341 . S
N45 N44 1.365 . S
N45 H65 0.862 . S
C46 C41 1.501 . S
C46 H47 0.961 . S
C46 H48 0.961 . S
C46 H49 0.960 . S
H47 C46 0.961 . S
H48 C46 0.961 . S
H49 C46 0.960 . S
C50 N51 1.342 . S
C50 C54 1.401 . S
C50 C55 1.499 . S
N51 Co34 1.989 . S
N51 C50 1.342 . S
N51 N52 1.388 . S
N52 Co35 1.993 . S
N52 N51 1.388 . S
N52 C53 1.346 . S
C53 N52 1.346 . S
C53 C54 1.396 . S
C53 C63 1.510 . S
C54 C50 1.401 . S
C54 C53 1.396 . S
C55 C50 1.499 . S
C55 H56 0.959 . S
C55 H57 0.960 . S
C55 H58 0.961 . S
H56 C55 0.959 . S
H57 C55 0.960 . S
H58 C55 0.961 . S
O59 Co34 1.967 . S
O59 C67 1.258 . S
O60 Co35 1.941 . S
O60 C67 1.266 . S
H61 C63 0.959 . S
H62 C63 0.961 . S
C63 C53 1.510 . S
C63 H61 0.959 . S
C63 H62 0.961 . S
C63 H64 0.960 . S
H64 C63 0.960 . S
H65 N45 0.862 . S
O66 Co34 1.920 . S
O66 C39 1.289 . S
C67 O59 1.258 . S
C67 O60 1.266 . S
Co68 O71 1.970 . S
Co68 N85 1.989 . S
Co68 O93 1.967 . S
Co68 O100 1.920 . S
Co69 O72 1.966 . S
Co69 N78 2.022 . S
Co69 N86 1.993 . S
Co69 O94 1.941 . S
C70 O71 1.258 . S
C70 O72 1.263 . S
O71 Co68 1.970 . S
O71 C70 1.258 . S
O72 Co69 1.966 . S
O72 C70 1.263 . S
C73 O74 1.235 . S
C73 O100 1.289 . S
O74 C73 1.235 . S
C75 C77 1.400 . S
C75 N78 1.351 . S
C75 C80 1.501 . S
C76 C77 1.387 . S
C76 N79 1.341 . S
C77 C75 1.400 . S
C77 C76 1.387 . S
N78 Co69 2.022 . S
N78 C75 1.351 . S
N78 N79 1.365 . S
N79 C76 1.341 . S
N79 N78 1.365 . S
N79 H99 0.862 . S
C80 C75 1.501 . S
C80 H81 0.961 . S
C80 H82 0.961 . S
C80 H83 0.960 . S
H81 C80 0.961 . S
H82 C80 0.961 . S
H83 C80 0.960 . S
C84 N85 1.342 . S
C84 C88 1.401 . S
C84 C89 1.499 . S
N85 Co68 1.989 . S
N85 C84 1.342 . S
N85 N86 1.388 . S
N86 Co69 1.993 . S
N86 N85 1.388 . S
N86 C87 1.346 . S
C87 N86 1.346 . S
C87 C88 1.396 . S
C87 C97 1.510 . S
C88 C84 1.401 . S
C88 C87 1.396 . S
C89 C84 1.499 . S
C89 H90 0.959 . S
C89 H91 0.960 . S
C89 H92 0.961 . S
H90 C89 0.959 . S
H91 C89 0.960 . S
H92 C89 0.961 . S
O93 Co68 1.967 . S
O93 C101 1.258 . S
O94 Co69 1.941 . S
O94 C101 1.266 . S
H95 C97 0.959 . S
H96 C97 0.961 . S
C97 C87 1.510 . S
C97 H95 0.959 . S
C97 H96 0.961 . S
C97 H98 0.960 . S
H98 C97 0.960 . S
H99 N79 0.862 . S
O100 Co68 1.920 . S
O100 C73 1.289 . S
C101 O93 1.258 . S
C101 O94 1.266 . S
Co102 O105 1.970 . S
Co102 N119 1.989 . S
Co102 O127 1.967 . S
Co102 O134 1.920 . S
Co103 O106 1.966 . S
Co103 N112 2.022 . S
Co103 N120 1.993 . S
Co103 O128 1.941 . S
C104 O105 1.258 . S
C104 O106 1.263 . S
O105 Co102 1.970 . S
O105 C104 1.258 . S
O106 Co103 1.966 . S
O106 C104 1.263 . S
C107 O108 1.235 . S
C107 O134 1.289 . S
O108 C107 1.235 . S
C109 C111 1.400 . S
C109 N112 1.351 . S
C109 C114 1.501 . S
C110 C111 1.387 . S
C110 N113 1.341 . S
C111 C109 1.400 . S
C111 C110 1.387 . S
N112 Co103 2.022 . S
N112 C109 1.351 . S
N112 N113 1.365 . S
N113 C110 1.341 . S
N113 N112 1.365 . S
N113 H133 0.862 . S
C114 C109 1.501 . S
C114 H115 0.961 . S
C114 H116 0.961 . S
C114 H117 0.960 . S
H115 C114 0.961 . S
H116 C114 0.961 . S
H117 C114 0.960 . S
C118 N119 1.342 . S
C118 C122 1.401 . S
C118 C123 1.499 . S
N119 Co102 1.989 . S
N119 C118 1.342 . S
N119 N120 1.388 . S
N120 Co103 1.993 . S
N120 N119 1.388 . S
N120 C121 1.346 . S
C121 N120 1.346 . S
C121 C122 1.396 . S
C121 C131 1.510 . S
C122 C118 1.401 . S
C122 C121 1.396 . S
C123 C118 1.499 . S
C123 H124 0.959 . S
C123 H125 0.960 . S
C123 H126 0.961 . S
H124 C123 0.959 . S
H125 C123 0.960 . S
H126 C123 0.961 . S
O127 Co102 1.967 . S
O127 C135 1.258 . S
O128 Co103 1.941 . S
O128 C135 1.266 . S
H129 C131 0.959 . S
H130 C131 0.961 . S
C131 C121 1.510 . S
C131 H129 0.959 . S
C131 H130 0.961 . S
C131 H132 0.960 . S
H132 C131 0.960 . S
H133 N113 0.862 . S
O134 Co102 1.920 . S
O134 C107 1.289 . S
C135 O127 1.258 . S
C135 O128 1.266 . S
Co136 O139 1.970 . S
Co136 N153 1.989 . S
Co136 O161 1.967 . S
Co136 O168 1.920 . S
Co137 O140 1.966 . S
Co137 N146 2.022 . S
Co137 N154 1.993 . S
Co137 O162 1.941 . S
C138 O139 1.258 . S
C138 O140 1.263 . S
O139 Co136 1.970 . S
O139 C138 1.258 . S
O140 Co137 1.966 . S
O140 C138 1.263 . S
C141 O142 1.235 . S
C141 O168 1.289 . S
O142 C141 1.235 . S
C143 C145 1.400 . S
C143 N146 1.351 . S
C143 C148 1.501 . S
C144 C145 1.387 . S
C144 N147 1.341 . S
C145 C143 1.400 . S
C145 C144 1.387 . S
N146 Co137 2.022 . S
N146 C143 1.351 . S
N146 N147 1.365 . S
N147 C144 1.341 . S
N147 N146 1.365 . S
N147 H167 0.862 . S
C148 C143 1.501 . S
C148 H149 0.961 . S
C148 H150 0.961 . S
C148 H151 0.960 . S
H149 C148 0.961 . S
H150 C148 0.961 . S
H151 C148 0.960 . S
C152 N153 1.342 . S
C152 C156 1.401 . S
C152 C157 1.499 . S
N153 Co136 1.989 . S
N153 C152 1.342 . S
N153 N154 1.388 . S
N154 Co137 1.993 . S
N154 N153 1.388 . S
N154 C155 1.346 . S
C155 N154 1.346 . S
C155 C156 1.396 . S
C155 C165 1.510 . S
C156 C152 1.401 . S
C156 C155 1.396 . S
C157 C152 1.499 . S
C157 H158 0.959 . S
C157 H159 0.960 . S
C157 H160 0.961 . S
H158 C157 0.959 . S
H159 C157 0.960 . S
H160 C157 0.961 . S
O161 Co136 1.967 . S
O161 C169 1.258 . S
O162 Co137 1.941 . S
O162 C169 1.266 . S
H163 C165 0.959 . S
H164 C165 0.961 . S
C165 C155 1.510 . S
C165 H163 0.959 . S
C165 H164 0.961 . S
C165 H166 0.960 . S
H166 C165 0.960 . S
H167 N147 0.862 . S
O168 Co136 1.920 . S
O168 C141 1.289 . S
C169 O161 1.258 . S
C169 O162 1.266 . S
Co170 O173 1.970 . S
Co170 N187 1.989 . S
Co170 O195 1.967 . S
Co170 O202 1.920 . S
Co171 O174 1.966 . S
Co171 N180 2.022 . S
Co171 N188 1.993 . S
Co171 O196 1.941 . S
C172 O173 1.258 . S
C172 O174 1.263 . S
O173 Co170 1.970 . S
O173 C172 1.258 . S
O174 Co171 1.966 . S
O174 C172 1.263 . S
C175 O176 1.235 . S
C175 O202 1.289 . S
O176 C175 1.235 . S
C177 C179 1.400 . S
C177 N180 1.351 . S
C177 C182 1.501 . S
C178 C179 1.387 . S
C178 N181 1.341 . S
C179 C177 1.400 . S
C179 C178 1.387 . S
N180 Co171 2.022 . S
N180 C177 1.351 . S
N180 N181 1.365 . S
N181 C178 1.341 . S
N181 N180 1.365 . S
N181 H201 0.862 . S
C182 C177 1.501 . S
C182 H183 0.961 . S
C182 H184 0.961 . S
C182 H185 0.960 . S
H183 C182 0.961 . S
H184 C182 0.961 . S
H185 C182 0.960 . S
C186 N187 1.342 . S
C186 C190 1.401 . S
C186 C191 1.499 . S
N187 Co170 1.989 . S
N187 C186 1.342 . S
N187 N188 1.388 . S
N188 Co171 1.993 . S
N188 N187 1.388 . S
N188 C189 1.346 . S
C189 N188 1.346 . S
C189 C190 1.396 . S
C189 C199 1.510 . S
C190 C186 1.401 . S
C190 C189 1.396 . S
C191 C186 1.499 . S
C191 H192 0.959 . S
C191 H193 0.960 . S
C191 H194 0.961 . S
H192 C191 0.959 . S
H193 C191 0.960 . S
H194 C191 0.961 . S
O195 Co170 1.967 . S
O195 C203 1.258 . S
O196 Co171 1.941 . S
O196 C203 1.266 . S
H197 C199 0.959 . S
H198 C199 0.961 . S
C199 C189 1.510 . S
C199 H197 0.959 . S
C199 H198 0.961 . S
C199 H200 0.960 . S
H200 C199 0.960 . S
H201 N181 0.862 . S
O202 Co170 1.920 . S
O202 C175 1.289 . S
C203 O195 1.258 . S
C203 O196 1.266 . S
Co204 O207 1.970 . S
Co204 N221 1.989 . S
Co204 O229 1.967 . S
Co204 O236 1.920 . S
Co205 O208 1.966 . S
Co205 N214 2.022 . S
Co205 N222 1.993 . S
Co205 O230 1.941 . S
C206 O207 1.258 . S
C206 O208 1.263 . S
O207 Co204 1.970 . S
O207 C206 1.258 . S
O208 Co205 1.966 . S
O208 C206 1.263 . S
C209 O210 1.235 . S
C209 O236 1.289 . S
O210 C209 1.235 . S
C211 C213 1.400 . S
C211 N214 1.351 . S
C211 C216 1.501 . S
C212 C213 1.387 . S
C212 N215 1.341 . S
C213 C211 1.400 . S
C213 C212 1.387 . S
N214 Co205 2.022 . S
N214 C211 1.351 . S
N214 N215 1.365 . S
N215 C212 1.341 . S
N215 N214 1.365 . S
N215 H235 0.862 . S
C216 C211 1.501 . S
C216 H217 0.961 . S
C216 H218 0.961 . S
C216 H219 0.960 . S
H217 C216 0.961 . S
H218 C216 0.961 . S
H219 C216 0.960 . S
C220 N221 1.342 . S
C220 C224 1.401 . S
C220 C225 1.499 . S
N221 Co204 1.989 . S
N221 C220 1.342 . S
N221 N222 1.388 . S
N222 Co205 1.993 . S
N222 N221 1.388 . S
N222 C223 1.346 . S
C223 N222 1.346 . S
C223 C224 1.396 . S
C223 C233 1.510 . S
C224 C220 1.401 . S
C224 C223 1.396 . S
C225 C220 1.499 . S
C225 H226 0.959 . S
C225 H227 0.960 . S
C225 H228 0.961 . S
H226 C225 0.959 . S
H227 C225 0.960 . S
H228 C225 0.961 . S
O229 Co204 1.967 . S
O229 C237 1.258 . S
O230 Co205 1.941 . S
O230 C237 1.266 . S
H231 C233 0.959 . S
H232 C233 0.961 . S
C233 C223 1.510 . S
C233 H231 0.959 . S
C233 H232 0.961 . S
C233 H234 0.960 . S
H234 C233 0.960 . S
H235 N215 0.862 . S
O236 Co204 1.920 . S
O236 C209 1.289 . S
C237 O229 1.258 . S
C237 O230 1.266 . S
Co238 O241 1.970 . S
Co238 N255 1.989 . S
Co238 O263 1.967 . S
Co238 O270 1.920 . S
Co239 O242 1.966 . S
Co239 N248 2.022 . S
Co239 N256 1.993 . S
Co239 O264 1.941 . S
C240 O241 1.258 . S
C240 O242 1.263 . S
O241 Co238 1.970 . S
O241 C240 1.258 . S
O242 Co239 1.966 . S
O242 C240 1.263 . S
C243 O244 1.235 . S
C243 O270 1.289 . S
O244 C243 1.235 . S
C245 C247 1.400 . S
C245 N248 1.351 . S
C245 C250 1.501 . S
C246 C247 1.387 . S
C246 N249 1.341 . S
C247 C245 1.400 . S
C247 C246 1.387 . S
N248 Co239 2.022 . S
N248 C245 1.351 . S
N248 N249 1.365 . S
N249 C246 1.341 . S
N249 N248 1.365 . S
N249 H269 0.862 . S
C250 C245 1.501 . S
C250 H251 0.961 . S
C250 H252 0.961 . S
C250 H253 0.960 . S
H251 C250 0.961 . S
H252 C250 0.961 . S
H253 C250 0.960 . S
C254 N255 1.342 . S
C254 C258 1.401 . S
C254 C259 1.499 . S
N255 Co238 1.989 . S
N255 C254 1.342 . S
N255 N256 1.388 . S
N256 Co239 1.993 . S
N256 N255 1.388 . S
N256 C257 1.346 . S
C257 N256 1.346 . S
C257 C258 1.396 . S
C257 C267 1.510 . S
C258 C254 1.401 . S
C258 C257 1.396 . S
C259 C254 1.499 . S
C259 H260 0.959 . S
C259 H261 0.960 . S
C259 H262 0.961 . S
H260 C259 0.959 . S
H261 C259 0.960 . S
H262 C259 0.961 . S
O263 Co238 1.967 . S
O263 C271 1.258 . S
O264 Co239 1.941 . S
O264 C271 1.266 . S
H265 C267 0.959 . S
H266 C267 0.961 . S
C267 C257 1.510 . S
C267 H265 0.959 . S
C267 H266 0.961 . S
C267 H268 0.960 . S
H268 C267 0.960 . S
H269 N249 0.862 . S
O270 Co238 1.920 . S
O270 C243 1.289 . S
C271 O263 1.258 . S
C271 O264 1.266 . S
Co272 O275 1.970 . S
Co272 N289 1.989 . S
Co272 O297 1.967 . S
Co272 O304 1.920 . S
Co273 O276 1.966 . S
Co273 N282 2.022 . S
Co273 N290 1.993 . S
Co273 O298 1.941 . S
C274 O275 1.258 . S
C274 O276 1.263 . S
O275 Co272 1.970 . S
O275 C274 1.258 . S
O276 Co273 1.966 . S
O276 C274 1.263 . S
C277 O278 1.235 . S
C277 O304 1.289 . S
O278 C277 1.235 . S
C279 C281 1.400 . S
C279 N282 1.351 . S
C279 C284 1.501 . S
C280 C281 1.387 . S
C280 N283 1.341 . S
C281 C279 1.400 . S
C281 C280 1.387 . S
N282 Co273 2.022 . S
N282 C279 1.351 . S
N282 N283 1.365 . S
N283 C280 1.341 . S
N283 N282 1.365 . S
N283 H303 0.862 . S
C284 C279 1.501 . S
C284 H285 0.961 . S
C284 H286 0.961 . S
C284 H287 0.960 . S
H285 C284 0.961 . S
H286 C284 0.961 . S
H287 C284 0.960 . S
C288 N289 1.342 . S
C288 C292 1.401 . S
C288 C293 1.499 . S
N289 Co272 1.989 . S
N289 C288 1.342 . S
N289 N290 1.388 . S
N290 Co273 1.993 . S
N290 N289 1.388 . S
N290 C291 1.346 . S
C291 N290 1.346 . S
C291 C292 1.396 . S
C291 C301 1.510 . S
C292 C288 1.401 . S
C292 C291 1.396 . S
C293 C288 1.499 . S
C293 H294 0.959 . S
C293 H295 0.960 . S
C293 H296 0.961 . S
H294 C293 0.959 . S
H295 C293 0.960 . S
H296 C293 0.961 . S
O297 Co272 1.967 . S
O297 C305 1.258 . S
O298 Co273 1.941 . S
O298 C305 1.266 . S
H299 C301 0.959 . S
H300 C301 0.961 . S
C301 C291 1.510 . S
C301 H299 0.959 . S
C301 H300 0.961 . S
C301 H302 0.960 . S
H302 C301 0.960 . S
H303 N283 0.862 . S
O304 Co272 1.920 . S
O304 C277 1.289 . S
C305 O297 1.258 . S
C305 O298 1.266 . S
Co306 O309 1.970 . S
Co306 N323 1.989 . S
Co306 O331 1.967 . S
Co306 O338 1.920 . S
Co307 O310 1.966 . S
Co307 N316 2.022 . S
Co307 N324 1.993 . S
Co307 O332 1.941 . S
C308 O309 1.258 . S
C308 O310 1.263 . S
O309 Co306 1.970 . S
O309 C308 1.258 . S
O310 Co307 1.966 . S
O310 C308 1.263 . S
C311 O312 1.235 . S
C311 O338 1.289 . S
O312 C311 1.235 . S
C313 C315 1.400 . S
C313 N316 1.351 . S
C313 C318 1.501 . S
C314 C315 1.387 . S
C314 N317 1.341 . S
C315 C313 1.400 . S
C315 C314 1.387 . S
N316 Co307 2.022 . S
N316 C313 1.351 . S
N316 N317 1.365 . S
N317 C314 1.341 . S
N317 N316 1.365 . S
N317 H337 0.862 . S
C318 C313 1.501 . S
C318 H319 0.961 . S
C318 H320 0.961 . S
C318 H321 0.960 . S
H319 C318 0.961 . S
H320 C318 0.961 . S
H321 C318 0.960 . S
C322 N323 1.342 . S
C322 C326 1.401 . S
C322 C327 1.499 . S
N323 Co306 1.989 . S
N323 C322 1.342 . S
N323 N324 1.388 . S
N324 Co307 1.993 . S
N324 N323 1.388 . S
N324 C325 1.346 . S
C325 N324 1.346 . S
C325 C326 1.396 . S
C325 C335 1.510 . S
C326 C322 1.401 . S
C326 C325 1.396 . S
C327 C322 1.499 . S
C327 H328 0.959 . S
C327 H329 0.960 . S
C327 H330 0.961 . S
H328 C327 0.959 . S
H329 C327 0.960 . S
H330 C327 0.961 . S
O331 Co306 1.967 . S
O331 C339 1.258 . S
O332 Co307 1.941 . S
O332 C339 1.266 . S
H333 C335 0.959 . S
H334 C335 0.961 . S
C335 C325 1.510 . S
C335 H333 0.959 . S
C335 H334 0.961 . S
C335 H336 0.960 . S
H336 C335 0.960 . S
H337 N317 0.862 . S
O338 Co306 1.920 . S
O338 C311 1.289 . S
C339 O331 1.258 . S
C339 O332 1.266 . S
Co340 O343 1.970 . S
Co340 N357 1.989 . S
Co340 O365 1.967 . S
Co340 O372 1.920 . S
Co341 O344 1.966 . S
Co341 N350 2.022 . S
Co341 N358 1.993 . S
Co341 O366 1.941 . S
C342 O343 1.258 . S
C342 O344 1.263 . S
O343 Co340 1.970 . S
O343 C342 1.258 . S
O344 Co341 1.966 . S
O344 C342 1.263 . S
C345 O346 1.235 . S
C345 O372 1.289 . S
O346 C345 1.235 . S
C347 C349 1.400 . S
C347 N350 1.351 . S
C347 C352 1.501 . S
C348 C349 1.387 . S
C348 N351 1.341 . S
C349 C347 1.400 . S
C349 C348 1.387 . S
N350 Co341 2.022 . S
N350 C347 1.351 . S
N350 N351 1.365 . S
N351 C348 1.341 . S
N351 N350 1.365 . S
N351 H371 0.862 . S
C352 C347 1.501 . S
C352 H353 0.961 . S
C352 H354 0.961 . S
C352 H355 0.960 . S
H353 C352 0.961 . S
H354 C352 0.961 . S
H355 C352 0.960 . S
C356 N357 1.342 . S
C356 C360 1.401 . S
C356 C361 1.499 . S
N357 Co340 1.989 . S
N357 C356 1.342 . S
N357 N358 1.388 . S
N358 Co341 1.993 . S
N358 N357 1.388 . S
N358 C359 1.346 . S
C359 N358 1.346 . S
C359 C360 1.396 . S
C359 C369 1.510 . S
C360 C356 1.401 . S
C360 C359 1.396 . S
C361 C356 1.499 . S
C361 H362 0.959 . S
C361 H363 0.960 . S
C361 H364 0.961 . S
H362 C361 0.959 . S
H363 C361 0.960 . S
H364 C361 0.961 . S
O365 Co340 1.967 . S
O365 C373 1.258 . S
O366 Co341 1.941 . S
O366 C373 1.266 . S
H367 C369 0.959 . S
H368 C369 0.961 . S
C369 C359 1.510 . S
C369 H367 0.959 . S
C369 H368 0.961 . S
C369 H370 0.960 . S
H370 C369 0.960 . S
H371 N351 0.862 . S
O372 Co340 1.920 . S
O372 C345 1.289 . S
C373 O365 1.258 . S
C373 O366 1.266 . S
Co374 O377 1.970 . S
Co374 N391 1.989 . S
Co374 O399 1.967 . S
Co374 O406 1.920 . S
Co375 O378 1.966 . S
Co375 N384 2.022 . S
Co375 N392 1.993 . S
Co375 O400 1.941 . S
C376 O377 1.258 . S
C376 O378 1.263 . S
O377 Co374 1.970 . S
O377 C376 1.258 . S
O378 Co375 1.966 . S
O378 C376 1.263 . S
C379 O380 1.235 . S
C379 O406 1.289 . S
O380 C379 1.235 . S
C381 C383 1.400 . S
C381 N384 1.351 . S
C381 C386 1.501 . S
C382 C383 1.387 . S
C382 N385 1.341 . S
C383 C381 1.400 . S
C383 C382 1.387 . S
N384 Co375 2.022 . S
N384 C381 1.351 . S
N384 N385 1.365 . S
N385 C382 1.341 . S
N385 N384 1.365 . S
N385 H405 0.862 . S
C386 C381 1.501 . S
C386 H387 0.961 . S
C386 H388 0.961 . S
C386 H389 0.960 . S
H387 C386 0.961 . S
H388 C386 0.961 . S
H389 C386 0.960 . S
C390 N391 1.342 . S
C390 C394 1.401 . S
C390 C395 1.499 . S
N391 Co374 1.989 . S
N391 C390 1.342 . S
N391 N392 1.388 . S
N392 Co375 1.993 . S
N392 N391 1.388 . S
N392 C393 1.346 . S
C393 N392 1.346 . S
C393 C394 1.396 . S
C393 C403 1.510 . S
C394 C390 1.401 . S
C394 C393 1.396 . S
C395 C390 1.499 . S
C395 H396 0.959 . S
C395 H397 0.960 . S
C395 H398 0.961 . S
H396 C395 0.959 . S
H397 C395 0.960 . S
H398 C395 0.961 . S
O399 Co374 1.967 . S
O399 C407 1.258 . S
O400 Co375 1.941 . S
O400 C407 1.266 . S
H401 C403 0.959 . S
H402 C403 0.961 . S
C403 C393 1.510 . S
C403 H401 0.959 . S
C403 H402 0.961 . S
C403 H404 0.960 . S
H404 C403 0.960 . S
H405 N385 0.862 . S
O406 Co374 1.920 . S
O406 C379 1.289 . S
C407 O399 1.258 . S
C407 O400 1.266 . S
H408 C414 0.930 . S
H409 C417 0.930 . S
H410 C418 0.930 . S
H411 C419 0.930 . S
H412 C422 0.930 . S
H413 C423 0.930 . S
C414 H408 0.930 . S
C414 C415 1.355 . S
C414 C416 1.415 . S
C415 C414 1.355 . S
C415 C417 1.419 . S
C416 C414 1.415 . S
C416 C421 1.425 . S
C416 C423 1.409 . S
C417 H409 0.930 . S
C417 C415 1.419 . S
C417 C418 1.362 . S
C418 H410 0.930 . S
C418 C417 1.362 . S
C418 C421 1.409 . S
C419 H411 0.930 . S
C419 C420 1.355 . S
C419 C421 1.415 . S
C420 C419 1.355 . S
C420 C422 1.419 . S
C421 C416 1.425 . S
C421 C418 1.409 . S
C421 C419 1.415 . S
C422 H412 0.930 . S
C422 C420 1.419 . S
C422 C423 1.362 . S
C423 H413 0.930 . S
C423 C416 1.409 . S
C423 C422 1.362 . S
H424 C430 0.930 . S
H425 C433 0.930 . S
H426 C434 0.930 . S
H427 C435 0.930 . S
H428 C438 0.930 . S
H429 C439 0.930 . S
C430 H424 0.930 . S
C430 C431 1.355 . S
C430 C432 1.415 . S
C431 C430 1.355 . S
C431 C433 1.419 . S
C432 C430 1.415 . S
C432 C437 1.425 1_655 S
C432 C439 1.409 . S
C433 H425 0.930 . S
C433 C431 1.419 . S
C433 C434 1.362 1_655 S
C434 H426 0.930 . S
C434 C433 1.362 1_455 S
C434 C437 1.409 . S
C435 H427 0.930 . S
C435 C436 1.355 . S
C435 C437 1.415 . S
C436 C435 1.355 . S
C436 C438 1.419 . S
C437 C432 1.425 1_455 S
C437 C434 1.409 . S
C437 C435 1.415 . S
C438 H428 0.930 . S
C438 C436 1.419 . S
C438 C439 1.362 1_455 S
C439 H429 0.930 . S
C439 C432 1.409 . S
C439 C438 1.362 1_655 S
H440 C446 0.930 . S
H441 C449 0.930 . S
H442 C450 0.930 . S
H443 C451 0.930 . S
H444 C454 0.930 . S
H445 C455 0.930 . S
C446 H440 0.930 . S
C446 C447 1.355 1_565 S
C446 C448 1.415 . S
C447 C446 1.355 1_545 S
C447 C449 1.419 . S
C448 C446 1.415 . S
C448 C453 1.425 1_565 S
C448 C455 1.409 . S
C449 H441 0.930 . S
C449 C447 1.419 . S
C449 C450 1.362 . S
C450 H442 0.930 . S
C450 C449 1.362 . S
C450 C453 1.409 . S
C451 H443 0.930 . S
C451 C452 1.355 1_545 S
C451 C453 1.415 . S
C452 C451 1.355 1_565 S
C452 C454 1.419 . S
C453 C448 1.425 1_545 S
C453 C450 1.409 . S
C453 C451 1.415 . S
C454 H444 0.930 . S
C454 C452 1.419 . S
C454 C455 1.362 . S
C455 H445 0.930 . S
C455 C448 1.409 . S
C455 C454 1.362 . S
H456 C462 0.930 . S
H457 C465 0.930 . S
H458 C466 0.930 . S
H459 C467 0.930 . S
H460 C470 0.930 . S
H461 C471 0.930 . S
C462 H456 0.930 . S
C462 C463 1.355 . S
C462 C464 1.415 . S
C463 C462 1.355 . S
C463 C465 1.419 . S
C464 C462 1.415 . S
C464 C469 1.425 . S
C464 C471 1.409 . S
C465 H457 0.930 . S
C465 C463 1.419 . S
C465 C466 1.362 . S
C466 H458 0.930 . S
C466 C465 1.362 . S
C466 C469 1.409 . S
C467 H459 0.930 . S
C467 C468 1.355 . S
C467 C469 1.415 . S
C468 C467 1.355 . S
C468 C470 1.419 . S
C469 C464 1.425 . S
C469 C466 1.409 . S
C469 C467 1.415 . S
C470 H460 0.930 . S
C470 C468 1.419 . S
C470 C471 1.362 . S
C471 H461 0.930 . S
C471 C464 1.409 . S
C471 C470 1.362 . S
H472 C478 0.930 . S
H473 C481 0.930 . S
H474 C482 0.930 . S
H475 C483 0.930 . S
H476 C486 0.930 . S
H477 C487 0.930 . S
C478 H472 0.930 . S
C478 C479 1.355 . S
C478 C480 1.415 . S
C479 C478 1.355 . S
C479 C481 1.419 1_455 S
C480 C478 1.415 . S
C480 C485 1.425 1_455 S
C480 C487 1.409 . S
C481 H473 0.930 . S
C481 C479 1.419 1_655 S
C481 C482 1.362 . S
C482 H474 0.930 . S
C482 C481 1.362 . S
C482 C485 1.409 . S
C483 H475 0.930 . S
C483 C484 1.355 . S
C483 C485 1.415 . S
C484 C483 1.355 . S
C484 C486 1.419 1_655 S
C485 C480 1.425 1_655 S
C485 C482 1.409 . S
C485 C483 1.415 . S
C486 H476 0.930 . S
C486 C484 1.419 1_455 S
C486 C487 1.362 . S
C487 H477 0.930 . S
C487 C480 1.409 . S
C487 C486 1.362 . S
H488 C494 0.930 . S
H489 C497 0.930 . S
H490 C498 0.930 1_545 S
H491 C499 0.930 . S
H492 C502 0.930 . S
H493 C503 0.930 1_565 S
C494 H488 0.930 . S
C494 C495 1.355 . S
C494 C496 1.415 . S
C495 C494 1.355 . S
C495 C497 1.419 . S
C496 C494 1.415 . S
C496 C501 1.425 1_565 S
C496 C503 1.409 1_565 S
C497 H489 0.930 . S
C497 C495 1.419 . S
C497 C498 1.362 . S
C498 H490 0.930 1_565 S
C498 C497 1.362 . S
C498 C501 1.409 1_565 S
C499 H491 0.930 . S
C499 C500 1.355 . S
C499 C501 1.415 . S
C500 C499 1.355 . S
C500 C502 1.419 . S
C501 C496 1.425 1_545 S
C501 C498 1.409 1_545 S
C501 C499 1.415 . S
C502 H492 0.930 . S
C502 C500 1.419 . S
C502 C503 1.362 . S
C503 H493 0.930 1_545 S
C503 C496 1.409 1_545 S
C503 C502 1.362 . S
H504 C510 0.930 . S
H505 C513 0.930 . S
H506 C514 0.930 . S
H507 C515 0.930 . S
H508 C518 0.930 . S
H509 C519 0.930 . S
C510 H504 0.930 . S
C510 C511 1.355 . S
C510 C512 1.415 . S
C511 C510 1.355 . S
C511 C513 1.419 . S
C512 C510 1.415 . S
C512 C517 1.425 1_554 S
C512 C519 1.409 1_554 S
C513 H505 0.930 . S
C513 C511 1.419 . S
C513 C514 1.362 . S
C514 H506 0.930 . S
C514 C513 1.362 . S
C514 C517 1.409 1_554 S
C515 H507 0.930 . S
C515 C516 1.355 . S
C515 C517 1.415 . S
C516 C515 1.355 . S
C516 C518 1.419 . S
C517 C512 1.425 1_556 S
C517 C514 1.409 1_556 S
C517 C515 1.415 . S
C518 H508 0.930 . S
C518 C516 1.419 . S
C518 C519 1.362 . S
C519 H509 0.930 . S
C519 C512 1.409 1_556 S
C519 C518 1.362 . S
H520 C526 0.930 . S
H521 C529 0.930 . S
H522 C530 0.930 . S
H523 C531 0.930 . S
H524 C534 0.930 . S
H525 C535 0.930 . S
C526 H520 0.930 . S
C526 C527 1.355 . S
C526 C528 1.415 . S
C527 C526 1.355 . S
C527 C529 1.419 . S
C528 C526 1.415 . S
C528 C533 1.425 . S
C528 C535 1.409 . S
C529 H521 0.930 . S
C529 C527 1.419 . S
C529 C530 1.362 . S
C530 H522 0.930 . S
C530 C529 1.362 . S
C530 C533 1.409 . S
C531 H523 0.930 . S
C531 C532 1.355 . S
C531 C533 1.415 . S
C532 C531 1.355 . S
C532 C534 1.419 . S
C533 C528 1.425 . S
C533 C530 1.409 . S
C533 C531 1.415 . S
C534 H524 0.930 . S
C534 C532 1.419 . S
C534 C535 1.362 . S
C535 H525 0.930 . S
C535 C528 1.409 . S
C535 C534 1.362 . S
H536 C542 0.930 . S
H537 C545 0.930 . S
H538 C546 0.930 . S
H539 C547 0.930 . S
H540 C550 0.930 . S
H541 C551 0.930 . S
C542 H536 0.930 . S
C542 C543 1.355 . S
C542 C544 1.415 . S
C543 C542 1.355 . S
C543 C545 1.419 . S
C544 C542 1.415 . S
C544 C549 1.425 . S
C544 C551 1.409 . S
C545 H537 0.930 . S
C545 C543 1.419 . S
C545 C546 1.362 . S
C546 H538 0.930 . S
C546 C545 1.362 . S
C546 C549 1.409 . S
C547 H539 0.930 . S
C547 C548 1.355 . S
C547 C549 1.415 . S
C548 C547 1.355 . S
C548 C550 1.419 . S
C549 C544 1.425 . S
C549 C546 1.409 . S
C549 C547 1.415 . S
C550 H540 0.930 . S
C550 C548 1.419 . S
C550 C551 1.362 . S
C551 H541 0.930 . S
C551 C544 1.409 . S
C551 C550 1.362 . S
H552 C558 0.930 . S
H553 C561 0.930 . S
H554 C562 0.930 . S
H555 C563 0.930 . S
H556 C566 0.930 . S
H557 C567 0.930 . S
C558 H552 0.930 . S
C558 C559 1.355 . S
C558 C560 1.415 . S
C559 C558 1.355 . S
C559 C561 1.419 . S
C560 C558 1.415 . S
C560 C565 1.425 1_554 S
C560 C567 1.409 1_554 S
C561 H553 0.930 . S
C561 C559 1.419 . S
C561 C562 1.362 . S
C562 H554 0.930 . S
C562 C561 1.362 . S
C562 C565 1.409 1_554 S
C563 H555 0.930 . S
C563 C564 1.355 . S
C563 C565 1.415 . S
C564 C563 1.355 . S
C564 C566 1.419 . S
C565 C560 1.425 1_556 S
C565 C562 1.409 1_556 S
C565 C563 1.415 . S
C566 H556 0.930 . S
C566 C564 1.419 . S
C566 C567 1.362 . S
C567 H557 0.930 . S
C567 C560 1.409 1_556 S
C567 C566 1.362 . S
H568 C574 0.930 . S
H569 C577 0.930 . S
H570 C578 0.930 . S
H571 C579 0.930 . S
H572 C582 0.930 . S
H573 C583 0.930 . S
C574 H568 0.930 . S
C574 C575 1.355 . S
C574 C576 1.415 . S
C575 C574 1.355 . S
C575 C577 1.419 . S
C576 C574 1.415 . S
C576 C581 1.425 . S
C576 C583 1.409 . S
C577 H569 0.930 . S
C577 C575 1.419 . S
C577 C578 1.362 . S
C578 H570 0.930 . S
C578 C577 1.362 . S
C578 C581 1.409 . S
C579 H571 0.930 . S
C579 C580 1.355 . S
C579 C581 1.415 . S
C580 C579 1.355 . S
C580 C582 1.419 . S
C581 C576 1.425 . S
C581 C578 1.409 . S
C581 C579 1.415 . S
C582 H572 0.930 . S
C582 C580 1.419 . S
C582 C583 1.362 . S
C583 H573 0.930 . S
C583 C576 1.409 . S
C583 C582 1.362 . S
H584 C590 0.930 . S
H585 C593 0.930 . S
H586 C594 0.930 . S
H587 C595 0.930 . S
H588 C598 0.930 . S
H589 C599 0.930 . S
C590 H584 0.930 . S
C590 C591 1.355 . S
C590 C592 1.415 . S
C591 C590 1.355 . S
C591 C593 1.419 . S
C592 C590 1.415 . S
C592 C597 1.425 . S
C592 C599 1.409 . S
C593 H585 0.930 . S
C593 C591 1.419 . S
C593 C594 1.362 . S
C594 H586 0.930 . S
C594 C593 1.362 . S
C594 C597 1.409 . S
C595 H587 0.930 . S
C595 C596 1.355 . S
C595 C597 1.415 . S
C596 C595 1.355 . S
C596 C598 1.419 . S
C597 C592 1.425 . S
C597 C594 1.409 . S
C597 C595 1.415 . S
C598 H588 0.930 . S
C598 C596 1.419 . S
C598 C599 1.362 . S
C599 H589 0.930 . S
C599 C592 1.409 . S
C599 C598 1.362 . S
H600 C606 0.930 . S
H601 C609 0.930 . S
H602 C610 0.930 . S
H603 C611 0.930 . S
H604 C614 0.930 . S
H605 C615 0.930 . S
C606 H600 0.930 . S
C606 C607 1.355 . S
C606 C608 1.415 . S
C607 C606 1.355 . S
C607 C609 1.419 . S
C608 C606 1.415 . S
C608 C613 1.425 . S
C608 C615 1.409 . S
C609 H601 0.930 . S
C609 C607 1.419 . S
C609 C610 1.362 . S
C610 H602 0.930 . S
C610 C609 1.362 . S
C610 C613 1.409 . S
C611 H603 0.930 . S
C611 C612 1.355 . S
C611 C613 1.415 . S
C612 C611 1.355 . S
C612 C614 1.419 . S
C613 C608 1.425 . S
C613 C610 1.409 . S
C613 C611 1.415 . S
C614 H604 0.930 . S
C614 C612 1.419 . S
C614 C615 1.362 . S
C615 H605 0.930 . S
C615 C608 1.409 . S
C615 C614 1.362 . S
H616 C622 0.930 . S
H617 C625 0.930 . S
H618 C626 0.930 . S
H619 C627 0.930 . S
H620 C630 0.930 . S
H621 C631 0.930 . S
C622 H616 0.930 . S
C622 C623 1.355 . S
C622 C624 1.415 1_655 S
C623 C622 1.355 . S
C623 C625 1.419 . S
C624 C622 1.415 1_455 S
C624 C629 1.425 1_455 S
C624 C631 1.409 . S
C625 H617 0.930 . S
C625 C623 1.419 . S
C625 C626 1.362 . S
C626 H618 0.930 . S
C626 C625 1.362 . S
C626 C629 1.409 . S
C627 H619 0.930 . S
C627 C628 1.355 . S
C627 C629 1.415 1_455 S
C628 C627 1.355 . S
C628 C630 1.419 . S
C629 C624 1.425 1_655 S
C629 C626 1.409 . S
C629 C627 1.415 1_655 S
C630 H620 0.930 . S
C630 C628 1.419 . S
C630 C631 1.362 . S
C631 H621 0.930 . S
C631 C624 1.409 . S
C631 C630 1.362 . S
H632 C638 0.930 . S
H633 C641 0.930 . S
H634 C642 0.930 1_545 S
H635 C643 0.930 . S
H636 C646 0.930 . S
H637 C647 0.930 1_565 S
C638 H632 0.930 . S
C638 C639 1.355 . S
C638 C640 1.415 . S
C639 C638 1.355 . S
C639 C641 1.419 . S
C640 C638 1.415 . S
C640 C645 1.425 1_566 S
C640 C647 1.409 1_566 S
C641 H633 0.930 . S
C641 C639 1.419 . S
C641 C642 1.362 . S
C642 H634 0.930 1_565 S
C642 C641 1.362 . S
C642 C645 1.409 1_566 S
C643 H635 0.930 . S
C643 C644 1.355 . S
C643 C645 1.415 . S
C644 C643 1.355 . S
C644 C646 1.419 . S
C645 C640 1.425 1_544 S
C645 C642 1.409 1_544 S
C645 C643 1.415 . S
C646 H636 0.930 . S
C646 C644 1.419 . S
C646 C647 1.362 . S
C647 H637 0.930 1_545 S
C647 C640 1.409 1_544 S
C647 C646 1.362 . S
H648 C654 0.930 . S
H649 C657 0.930 . S
H650 C658 0.930 . S
H651 C659 0.930 . S
H652 C662 0.930 . S
H653 C663 0.930 . S
C654 H648 0.930 . S
C654 C655 1.355 . S
C654 C656 1.415 . S
C655 C654 1.355 . S
C655 C657 1.419 . S
C656 C654 1.415 . S
C656 C661 1.425 . S
C656 C663 1.409 . S
C657 H649 0.930 . S
C657 C655 1.419 . S
C657 C658 1.362 . S
C658 H650 0.930 . S
C658 C657 1.362 . S
C658 C661 1.409 . S
C659 H651 0.930 . S
C659 C660 1.355 . S
C659 C661 1.415 . S
C660 C659 1.355 . S
C660 C662 1.419 . S
C661 C656 1.425 . S
C661 C658 1.409 . S
C661 C659 1.415 . S
C662 H652 0.930 . S
C662 C660 1.419 . S
C662 C663 1.362 . S
C663 H653 0.930 . S
C663 C656 1.409 . S
C663 C662 1.362 . S
H664 C670 0.942 . S
H665 C673 0.930 . S
H666 C674 0.930 . S
H667 C675 0.942 . S
H668 C678 0.930 . S
H669 C679 0.930 . S
C670 H664 0.942 . S
C670 C671 1.355 . S
C670 C672 1.415 1_655 S
C671 C670 1.355 . S
C671 C673 1.419 . S
C672 C670 1.415 1_455 S
C672 C677 1.425 1_455 S
C672 C679 1.409 . S
C673 H665 0.930 . S
C673 C671 1.419 . S
C673 C674 1.362 . S
C674 H666 0.930 . S
C674 C673 1.362 . S
C674 C677 1.409 . S
C675 H667 0.942 . S
C675 C676 1.355 . S
C675 C677 1.415 1_455 S
C676 C675 1.355 . S
C676 C678 1.419 . S
C677 C672 1.425 1_655 S
C677 C674 1.409 . S
C677 C675 1.415 1_655 S
C678 H668 0.930 . S
C678 C676 1.419 . S
C678 C679 1.362 . S
C679 H669 0.930 . S
C679 C672 1.409 . S
C679 C678 1.362 . S
H680 C686 0.930 . S
H681 C689 0.930 . S
H682 C690 0.930 . S
H683 C691 0.930 . S
H684 C694 0.930 . S
H685 C695 0.930 . S
C686 H680 0.930 . S
C686 C687 1.355 . S
C686 C688 1.415 . S
C687 C686 1.355 . S
C687 C689 1.419 . S
C688 C686 1.415 . S
C688 C693 1.425 1_564 S
C688 C695 1.409 1_564 S
C689 H681 0.930 . S
C689 C687 1.419 . S
C689 C690 1.362 . S
C690 H682 0.930 . S
C690 C689 1.362 . S
C690 C693 1.409 1_564 S
C691 H683 0.930 . S
C691 C692 1.355 . S
C691 C693 1.415 . S
C692 C691 1.355 . S
C692 C694 1.419 . S
C693 C688 1.425 1_546 S
C693 C690 1.409 1_546 S
C693 C691 1.415 . S
C694 H684 0.930 . S
C694 C692 1.419 . S
C694 C695 1.362 . S
C695 H685 0.930 . S
C695 C688 1.409 1_546 S
C695 C694 1.362 . S
H696 C702 0.930 . S
H697 C705 0.930 . S
H698 C706 0.930 . S
H699 C707 0.930 . S
H700 C710 0.930 . S
H701 C711 0.930 . S
C702 H696 0.930 . S
C702 C703 1.355 . S
C702 C704 1.415 . S
C703 C702 1.355 . S
C703 C705 1.419 . S
C704 C702 1.415 . S
C704 C709 1.425 . S
C704 C711 1.409 . S
C705 H697 0.930 . S
C705 C703 1.419 . S
C705 C706 1.362 . S
C706 H698 0.930 . S
C706 C705 1.362 . S
C706 C709 1.409 . S
C707 H699 0.930 . S
C707 C708 1.355 . S
C707 C709 1.415 . S
C708 C707 1.355 . S
C708 C710 1.419 . S
C709 C704 1.425 . S
C709 C706 1.409 . S
C709 C707 1.415 . S
C710 H700 0.930 . S
C710 C708 1.419 . S
C710 C711 1.362 . S
C711 H701 0.930 . S
C711 C704 1.409 . S
C711 C710 1.362 . S
H712 C718 0.930 . S
H713 C721 0.930 . S
H714 C722 0.930 . S
H715 C723 0.930 . S
H716 C726 0.930 . S
H717 C727 0.930 . S
C718 H712 0.930 . S
C718 C719 1.355 . S
C718 C720 1.415 . S
C719 C718 1.355 . S
C719 C721 1.419 . S
C720 C718 1.415 . S
C720 C725 1.425 . S
C720 C727 1.409 . S
C721 H713 0.930 . S
C721 C719 1.419 . S
C721 C722 1.362 . S
C722 H714 0.930 . S
C722 C721 1.362 . S
C722 C725 1.409 . S
C723 H715 0.930 . S
C723 C724 1.355 . S
C723 C725 1.415 . S
C724 C723 1.355 . S
C724 C726 1.419 . S
C725 C720 1.425 . S
C725 C722 1.409 . S
C725 C723 1.415 . S
C726 H716 0.930 . S
C726 C724 1.419 . S
C726 C727 1.362 . S
C727 H717 0.930 . S
C727 C720 1.409 . S
C727 C726 1.362 . S
H728 C734 0.930 . S
H729 C737 0.930 . S
H730 C738 0.930 . S
H731 C739 0.930 . S
H732 C742 0.930 . S
H733 C743 0.930 . S
C734 H728 0.930 . S
C734 C735 1.355 1_556 S
C734 C736 1.415 . S
C735 C734 1.355 1_554 S
C735 C737 1.419 . S
C736 C734 1.415 . S
C736 C741 1.425 1_556 S
C736 C743 1.409 . S
C737 H729 0.930 . S
C737 C735 1.419 . S
C737 C738 1.362 . S
C738 H730 0.930 . S
C738 C737 1.362 . S
C738 C741 1.409 . S
C739 H731 0.930 . S
C739 C740 1.355 1_554 S
C739 C741 1.415 . S
C740 C739 1.355 1_556 S
C740 C742 1.419 . S
C741 C736 1.425 1_554 S
C741 C738 1.409 . S
C741 C739 1.415 . S
C742 H732 0.930 . S
C742 C740 1.419 . S
C742 C743 1.362 . S
C743 H733 0.930 . S
C743 C736 1.409 . S
C743 C742 1.362 . S
H744 C750 0.930 . S
H745 C753 0.930 . S
H746 C754 0.930 . S
H747 C755 0.930 . S
H748 C758 0.930 . S
H749 C759 0.930 . S
C750 H744 0.930 . S
C750 C751 1.355 . S
C750 C752 1.415 . S
C751 C750 1.355 . S
C751 C753 1.419 . S
C752 C750 1.415 . S
C752 C757 1.425 . S
C752 C759 1.409 . S
C753 H745 0.930 . S
C753 C751 1.419 . S
C753 C754 1.362 . S
C754 H746 0.930 . S
C754 C753 1.362 . S
C754 C757 1.409 . S
C755 H747 0.930 . S
C755 C756 1.355 . S
C755 C757 1.415 . S
C756 C755 1.355 . S
C756 C758 1.419 . S
C757 C752 1.425 . S
C757 C754 1.409 . S
C757 C755 1.415 . S
C758 H748 0.930 . S
C758 C756 1.419 . S
C758 C759 1.362 . S
C759 H749 0.930 . S
C759 C752 1.409 . S
C759 C758 1.362 . S
H760 C766 0.930 . S
H761 C769 0.930 . S
H762 C770 0.930 . S
H763 C771 0.930 . S
H764 C774 0.930 . S
H765 C775 0.930 . S
C766 H760 0.930 . S
C766 C767 1.355 . S
C766 C768 1.415 . S
C767 C766 1.355 . S
C767 C769 1.419 . S
C768 C766 1.415 . S
C768 C773 1.425 . S
C768 C775 1.409 . S
C769 H761 0.930 . S
C769 C767 1.419 . S
C769 C770 1.362 . S
C770 H762 0.930 . S
C770 C769 1.362 . S
C770 C773 1.409 . S
C771 H763 0.930 . S
C771 C772 1.355 . S
C771 C773 1.415 . S
C772 C771 1.355 . S
C772 C774 1.419 . S
C773 C768 1.425 . S
C773 C770 1.409 . S
C773 C771 1.415 . S
C774 H764 0.930 . S
C774 C772 1.419 . S
C774 C775 1.362 . S
C775 H765 0.930 . S
C775 C768 1.409 . S
C775 C774 1.362 . S
H776 C782 0.930 . S
H777 C785 0.930 . S
H778 C786 0.930 . S
H779 C787 0.930 . S
H780 C790 0.930 . S
H781 C791 0.930 . S
C782 H776 0.930 . S
C782 C783 1.357 . S
C782 C784 1.415 . S
C783 C782 1.357 . S
C783 C785 1.416 1_556 S
C784 C782 1.415 . S
C784 C789 1.425 1_556 S
C784 C791 1.409 . S
C785 H777 0.930 . S
C785 C783 1.416 1_554 S
C785 C786 1.362 . S
C786 H778 0.930 . S
C786 C785 1.362 . S
C786 C789 1.409 . S
C787 H779 0.930 . S
C787 C788 1.357 . S
C787 C789 1.415 . S
C788 C787 1.357 . S
C788 C790 1.416 1_554 S
C789 C784 1.425 1_554 S
C789 C786 1.409 . S
C789 C787 1.415 . S
C790 H780 0.930 . S
C790 C788 1.416 1_556 S
C790 C791 1.362 . S
C791 H781 0.930 . S
C791 C784 1.409 . S
C791 C790 1.362 . S
H792 C798 0.930 . S
H793 C801 0.930 . S
H794 C802 0.930 . S
H795 C803 0.930 . S
H796 C806 0.930 . S
H797 C807 0.930 . S
C798 H792 0.930 . S
C798 C799 1.355 . S
C798 C800 1.415 . S
C799 C798 1.355 . S
C799 C801 1.419 . S
C800 C798 1.415 . S
C800 C805 1.425 . S
C800 C807 1.409 . S
C801 H793 0.930 . S
C801 C799 1.419 . S
C801 C802 1.362 . S
C802 H794 0.930 . S
C802 C801 1.362 . S
C802 C805 1.409 . S
C803 H795 0.930 . S
C803 C804 1.355 . S
C803 C805 1.415 . S
C804 C803 1.355 . S
C804 C806 1.419 . S
C805 C800 1.425 . S
C805 C802 1.409 . S
C805 C803 1.415 . S
C806 H796 0.930 . S
C806 C804 1.419 . S
C806 C807 1.362 . S
C807 H797 0.930 . S
C807 C800 1.409 . S
C807 C806 1.362 . S
H808 C814 0.930 . S
H809 C817 0.930 . S
H810 C818 0.930 . S
H811 C819 0.930 . S
H812 C822 0.930 . S
H813 C823 0.930 . S
C814 H808 0.930 . S
C814 C815 1.355 . S
C814 C816 1.415 . S
C815 C814 1.355 . S
C815 C817 1.419 . S
C816 C814 1.415 . S
C816 C821 1.425 . S
C816 C823 1.409 . S
C817 H809 0.930 . S
C817 C815 1.419 . S
C817 C818 1.362 . S
C818 H810 0.930 . S
C818 C817 1.362 . S
C818 C821 1.409 . S
C819 H811 0.930 . S
C819 C820 1.355 . S
C819 C821 1.415 . S
C820 C819 1.355 . S
C820 C822 1.419 . S
C821 C816 1.425 . S
C821 C818 1.409 . S
C821 C819 1.415 . S
C822 H812 0.930 . S
C822 C820 1.419 . S
C822 C823 1.362 . S
C823 H813 0.930 . S
C823 C816 1.409 . S
C823 C822 1.362 . S
H824 C830 0.930 . S
H825 C833 0.930 . S
H826 C834 0.930 . S
H827 C835 0.930 . S
H828 C838 0.930 . S
H829 C839 0.930 . S
C830 H824 0.930 . S
C830 C831 1.355 . S
C830 C832 1.415 . S
C831 C830 1.355 . S
C831 C833 1.419 . S
C832 C830 1.415 . S
C832 C837 1.425 . S
C832 C839 1.409 . S
C833 H825 0.930 . S
C833 C831 1.419 . S
C833 C834 1.362 . S
C834 H826 0.930 . S
C834 C833 1.362 . S
C834 C837 1.409 . S
C835 H827 0.930 . S
C835 C836 1.355 . S
C835 C837 1.415 . S
C836 C835 1.355 . S
C836 C838 1.419 . S
C837 C832 1.425 . S
C837 C834 1.409 . S
C837 C835 1.415 . S
C838 H828 0.930 . S
C838 C836 1.419 . S
C838 C839 1.362 . S
C839 H829 0.930 . S
C839 C832 1.409 . S
C839 C838 1.362 . S
H840 C846 0.930 . S
H841 C849 0.930 . S
H842 C850 0.930 . S
H843 C851 0.930 . S
H844 C854 0.930 . S
H845 C855 0.930 . S
C846 H840 0.930 . S
C846 C847 1.355 . S
C846 C848 1.415 . S
C847 C846 1.355 . S
C847 C849 1.419 . S
C848 C846 1.415 . S
C848 C853 1.425 . S
C848 C855 1.409 . S
C849 H841 0.930 . S
C849 C847 1.419 . S
C849 C850 1.362 . S
C850 H842 0.930 . S
C850 C849 1.362 . S
C850 C853 1.409 . S
C851 H843 0.930 . S
C851 C852 1.355 . S
C851 C853 1.415 . S
C852 C851 1.355 . S
C852 C854 1.419 . S
C853 C848 1.425 . S
C853 C850 1.409 . S
C853 C851 1.415 . S
C854 H844 0.930 . S
C854 C852 1.419 . S
C854 C855 1.362 . S
C855 H845 0.930 . S
C855 C848 1.409 . S
C855 C854 1.362 . S
H856 C862 0.930 . S
H857 C865 0.930 . S
H858 C866 0.930 . S
H859 C867 0.930 . S
H860 C870 0.930 . S
H861 C871 0.930 . S
C862 H856 0.930 . S
C862 C863 1.355 . S
C862 C864 1.415 . S
C863 C862 1.355 . S
C863 C865 1.419 . S
C864 C862 1.415 . S
C864 C869 1.425 . S
C864 C871 1.409 . S
C865 H857 0.930 . S
C865 C863 1.419 . S
C865 C866 1.362 . S
C866 H858 0.930 . S
C866 C865 1.362 . S
C866 C869 1.409 . S
C867 H859 0.930 . S
C867 C868 1.355 . S
C867 C869 1.415 . S
C868 C867 1.355 . S
C868 C870 1.419 . S
C869 C864 1.425 . S
C869 C866 1.409 . S
C869 C867 1.415 . S
C870 H860 0.930 . S
C870 C868 1.419 . S
C870 C871 1.362 . S
C871 H861 0.930 . S
C871 C864 1.409 . S
C871 C870 1.362 . S
H872 C878 0.930 . S
H873 C881 0.930 . S
H874 C882 0.930 . S
H875 C883 0.930 . S
H876 C886 0.930 . S
H877 C887 0.930 . S
C878 H872 0.930 . S
C878 C879 1.355 . S
C878 C880 1.415 . S
C879 C878 1.355 . S
C879 C881 1.419 . S
C880 C878 1.415 . S
C880 C885 1.425 . S
C880 C887 1.409 . S
C881 H873 0.930 . S
C881 C879 1.419 . S
C881 C882 1.362 . S
C882 H874 0.930 . S
C882 C881 1.362 . S
C882 C885 1.409 . S
C883 H875 0.930 . S
C883 C884 1.355 . S
C883 C885 1.415 . S
C884 C883 1.355 . S
C884 C886 1.419 . S
C885 C880 1.425 . S
C885 C882 1.409 . S
C885 C883 1.415 . S
C886 H876 0.930 . S
C886 C884 1.419 . S
C886 C887 1.362 . S
C887 H877 0.930 . S
C887 C880 1.409 . S
C887 C886 1.362 . S
C415 C135 1.439 . S
C420 C33 1.450 . S
C431 C67 1.430 . S
C436 C169 1.446 . S
C447 C203 1.397 . S
C452 C101 1.407 . S
C463 C237 1.449 . S
C468 C339 1.436 . S
C479 C373 1.448 . S
C484 C271 1.449 . S
C495 C305 1.426 . S
C500 C407 1.444 . S
C511 C9 1.691 . S
C516 C349 1.772 . S
C527 C383 1.705 . S
C532 C43 1.780 . S
C543 C77 1.779 . S
C548 C213 1.702 . S
C559 C111 1.724 . S
C564 C247 1.784 . S
C575 C145 1.729 . S
C580 C281 1.675 . S
C591 C179 1.737 . S
C596 C315 1.674 . S
C607 C308 1.841 . S
C612 C2 1.919 . S
C623 C36 1.911 . S
C628 C342 1.839 . S
C639 C70 1.840 . S
C644 C376 1.917 . S
C655 C206 1.857 . S
C660 C104 1.881 . S
C671 C240 1.909 . S
C676 C138 1.840 . S
C687 C274 1.920 . S
C692 C172 1.844 . S
C703 C5 1.159 . S
C708 C209 1.163 . S
C719 C39 1.155 . S
C724 C243 1.156 . S
C735 C277 1.156 . S
C740 C73 1.155 . S
C751 C107 1.178 . S
C756 C311 1.185 . S
C767 C345 1.170 . S
C772 C141 1.176 . S
C783 C175 1.268 . S
C788 C379 1.262 . S
C799 C292 1.261 . S
C804 C20 1.239 . S
C815 C326 1.273 . S
C820 C54 1.243 . S
C831 C360 1.237 . S
C836 C88 1.268 . S
C847 C122 1.256 . S
C852 C394 1.267 . S
C863 C224 1.237 . S
C868 C156 1.269 . S
C879 C258 1.268 . S
C884 C190 1.255 . S
