# Generated by pormake.
# Topology smc, (6)-cn, num edge types: 1
# Building blocks:
#     Node 0, Type 0, BuildingBlock: KUMJIN_clean_sbu_0, # of connection points: 6
#     Node 1, Type 0, BuildingBlock: KUMJIN_clean_sbu_0, # of connection points: 6
#     Node 2, Type 0, BuildingBlock: KUMJIN_clean_sbu_0, # of connection points: 6
#     Node 3, Type 0, BuildingBlock: KUMJIN_clean_sbu_0, # of connection points: 6
#     Node 4, Type 0, BuildingBlock: KUMJIN_clean_sbu_0, # of connection points: 6
#     Node 5, Type 0, BuildingBlock: KUMJIN_clean_sbu_0, # of connection points: 6
#     Node 6, Type 0, BuildingBlock: KUMJIN_clean_sbu_0, # of connection points: 6
#     Node 7, Type 0, BuildingBlock: KUMJIN_clean_sbu_0, # of connection points: 6
#     Node 8, Type 0, BuildingBlock: KUMJIN_clean_sbu_0, # of connection points: 6
#     Edge 9, Type (0, 0), BuildingBlock: AJUNOK_clean_linker_0, # of connection points: 2
#     Edge 10, Type (0, 0), BuildingBlock: AJUNOK_clean_linker_0, # of connection points: 2
#     Edge 11, Type (0, 0), BuildingBlock: AJUNOK_clean_linker_0, # of connection points: 2
#     Edge 12, Type (0, 0), BuildingBlock: AJUNOK_clean_linker_0, # of connection points: 2
#     Edge 13, Type (0, 0), BuildingBlock: AJUNOK_clean_linker_0, # of connection points: 2
#     Edge 14, Type (0, 0), BuildingBlock: AJUNOK_clean_linker_0, # of connection points: 2
#     Edge 15, Type (0, 0), BuildingBlock: AJUNOK_clean_linker_0, # of connection points: 2
#     Edge 16, Type (0, 0), BuildingBlock: AJUNOK_clean_linker_0, # of connection points: 2
#     Edge 17, Type (0, 0), BuildingBlock: AJUNOK_clean_linker_0, # of connection points: 2
#     Edge 18, Type (0, 0), BuildingBlock: AJUNOK_clean_linker_0, # of connection points: 2
#     Edge 19, Type (0, 0), BuildingBlock: AJUNOK_clean_linker_0, # of connection points: 2
#     Edge 20, Type (0, 0), BuildingBlock: AJUNOK_clean_linker_0, # of connection points: 2
#     Edge 21, Type (0, 0), BuildingBlock: AJUNOK_clean_linker_0, # of connection points: 2
#     Edge 22, Type (0, 0), BuildingBlock: AJUNOK_clean_linker_0, # of connection points: 2
#     Edge 23, Type (0, 0), BuildingBlock: AJUNOK_clean_linker_0, # of connection points: 2
#     Edge 24, Type (0, 0), BuildingBlock: AJUNOK_clean_linker_0, # of connection points: 2
#     Edge 25, Type (0, 0), BuildingBlock: AJUNOK_clean_linker_0, # of connection points: 2
#     Edge 26, Type (0, 0), BuildingBlock: AJUNOK_clean_linker_0, # of connection points: 2
#     Edge 27, Type (0, 0), BuildingBlock: AJUNOK_clean_linker_0, # of connection points: 2
#     Edge 28, Type (0, 0), BuildingBlock: AJUNOK_clean_linker_0, # of connection points: 2
#     Edge 29, Type (0, 0), BuildingBlock: AJUNOK_clean_linker_0, # of connection points: 2
#     Edge 30, Type (0, 0), BuildingBlock: AJUNOK_clean_linker_0, # of connection points: 2
#     Edge 31, Type (0, 0), BuildingBlock: AJUNOK_clean_linker_0, # of connection points: 2
#     Edge 32, Type (0, 0), BuildingBlock: AJUNOK_clean_linker_0, # of connection points: 2
#     Edge 33, Type (0, 0), BuildingBlock: AJUNOK_clean_linker_0, # of connection points: 2
#     Edge 34, Type (0, 0), BuildingBlock: AJUNOK_clean_linker_0, # of connection points: 2
#     Edge 35, Type (0, 0), BuildingBlock: AJUNOK_clean_linker_0, # of connection points: 2
# Relax obj value: 0.112
# Max RMSD: 0.303
# Mean RMSD: 0.303
data_MOF--net-smc--node1-KUMJIN_clean_sbu_0--edge1-AJUNOK_clean_linker_0
_symmetry_space_group_name_H-M    P1
_symmetry_Int_Tables_number       1
_symmetry_cell_setting            triclinic
loop_
_symmetry_equiv_pos_as_xyz
'x, y, z'
_cell_length_a     30.199843
_cell_length_b     30.210949
_cell_length_c     29.839523
_cell_angle_alpha  90.006328
_cell_angle_beta   89.944871
_cell_angle_gamma 119.96862
loop_
_atom_site_label
_atom_site_type_symbol
_atom_site_fract_x
_atom_site_fract_y
_atom_site_fract_z
_atom_type_partial_charge
Eu0 Eu 0.06708 0.50674 0.98072 0.0
C1 C 0.99939 0.29634 0.07834 0.0
C2 C 0.04394 0.26077 0.03777 0.0
C3 C 1.01682 0.23447 0.11458 0.0
C4 C 1.0233 0.29362 0.03962 0.0
C5 C 0.99511 0.26608 0.11596 0.0
C6 C 0.04122 0.23187 0.0756 0.0
C7 C 0.94519 0.29777 0.15255 0.0
N8 N 0.97947 0.32791 0.07902 0.0
C9 C 0.95101 0.32766 0.11481 0.0
C10 C 0.96814 0.26759 0.15351 0.0
Eu11 Eu 0.98801 0.37447 0.01249 0.0
N12 N 1.02556 0.3222 0.00354 0.0
C13 C 0.04595 0.31778 0.96398 0.0
C14 C 0.06638 0.25756 0.99782 0.0
C15 C 0.06714 0.28599 0.96074 0.0
H16 H 0.93248 0.35027 0.11442 0.0
H17 H 0.08429 0.28354 0.92971 0.0
H18 H 0.05725 0.2068 0.07483 0.0
H19 H 0.92251 0.29759 0.1807 0.0
H20 H 0.04682 0.33903 0.9347 0.0
H21 H 0.05873 0.57691 0.14918 0.0
H22 H 0.08284 0.23297 0.99514 0.0
H23 H 1.01958 0.5264 0.88209 0.0
H24 H 0.06187 0.51738 0.09647 0.0
H25 H 0.98355 0.57732 0.85504 0.0
H26 H 1.01426 0.2113 0.14327 0.0
H27 H 0.04044 0.64345 0.12248 0.0
H28 H 1.01855 0.68279 0.05914 0.0
H29 H 0.96368 0.24462 0.18289 0.0
H30 H 0.99289 0.67923 0.98065 0.0
N31 N 0.04785 0.54959 0.03838 0.0
C32 C 0.05502 0.54615 0.08324 0.0
C33 C 0.04214 0.61723 0.09869 0.0
C34 C 0.03219 0.61915 0.05326 0.0
C35 C 0.05252 0.57983 0.11384 0.0
C36 C 0.03452 0.5839 0.02356 0.0
H37 H 0.97645 0.638 0.90562 0.0
N38 N 1.02374 0.54838 0.9509 0.0
C39 C 0.99301 0.57853 0.89017 0.0
C40 C 1.02103 0.5825 0.97894 0.0
C41 C 1.01147 0.54747 0.90649 0.0
C42 C 0.98954 0.61305 0.91868 0.0
C43 C 1.00456 0.61615 0.96332 0.0
O44 O 0.12352 0.55872 0.93171 0.0
O45 O 0.07158 0.43592 0.99222 0.0
O46 O 0.03831 0.40508 0.07209 0.0
O47 O 0.09982 0.48661 0.04672 0.0
O48 O 0.09766 0.47325 0.93146 0.0
O49 O 0.13593 0.57926 1.00092 0.0
O50 O 0.90492 0.34433 0.01507 0.0
O51 O 0.98837 0.44737 0.99606 0.0
O52 O 1.01307 0.45891 0.92092 0.0
O53 O 0.99431 0.37683 0.93821 0.0
O54 O 0.95323 0.41214 0.05533 0.0
O55 O 0.93351 0.30123 0.98134 0.0
C56 C 0.09948 0.4403 0.95795 0.0
C57 C 0.16356 0.64888 0.9478 0.0
C58 C 0.21678 0.74389 0.95029 0.0
C59 C 0.20776 0.69438 0.96352 0.0
C60 C 0.18071 0.74683 0.92285 0.0
C61 C 0.13142 0.65494 0.9175 0.0
C62 C 0.13883 0.70288 0.90635 0.0
C63 C 0.08209 0.44776 0.07702 0.0
C64 C 0.15103 0.59505 0.96014 0.0
C65 C 1.00448 0.65258 0.99235 0.0
C66 C 1.01913 0.65464 0.03701 0.0
C67 C 0.96289 0.44937 0.02865 0.0
C68 C 0.85168 0.25465 0.01691 0.0
C69 C 0.79942 0.24075 0.01302 0.0
C70 C 0.7608 0.19751 0.03617 0.0
C71 C 0.7761 0.16986 0.06394 0.0
C72 C 0.86463 0.22442 0.04331 0.0
C73 C 0.82722 0.18279 0.06697 0.0
C74 C 0.99201 0.4092 0.91059 0.0
C75 C 0.89275 0.30166 0.99516 0.0
H76 H 0.23514 0.69135 0.9848 0.0
H77 H 0.18639 0.78364 0.91224 0.0
H78 H 0.10089 0.62251 0.90117 0.0
H79 H 0.11264 0.70599 0.88355 0.0
H80 H 0.78922 0.2641 0.99283 0.0
H81 H 0.74831 0.13728 0.08298 0.0
H82 H 0.90382 0.23316 0.04607 0.0
H83 H 0.8379 0.16033 0.08785 0.0
Eu84 Eu 0.54522 0.56448 0.97872 0.0
C85 C 0.76492 0.71565 0.04909 0.0
C86 C 0.79517 0.78205 0.99251 0.0
C87 C 0.83531 0.80082 0.06581 0.0
C88 C 0.76159 0.7312 0.00615 0.0
C89 C 0.80298 0.74992 0.07883 0.0
C90 C 0.83124 0.81692 0.02283 0.0
C91 C 0.77863 0.67968 0.13007 0.0
N92 N 0.73329 0.66617 0.06085 0.0
C93 C 0.74034 0.64742 0.10021 0.0
C94 C 0.80919 0.73135 0.11986 0.0
Eu95 Eu 0.67653 0.61194 0.00531 0.0
N96 N 0.72686 0.69641 0.97724 0.0
C97 C 0.72508 0.70985 0.9338 0.0
C98 C 0.79211 0.79622 0.94853 0.0
C99 C 0.75715 0.75983 0.91903 0.0
H100 H 0.71687 0.60729 0.10807 0.0
H101 H 0.75518 0.77007 0.8847 0.0
H102 H 0.85704 0.85613 0.01298 0.0
H103 H 0.78534 0.66466 0.16059 0.0
H104 H 0.69878 0.68258 0.91012 0.0
H105 H 0.47279 0.49614 0.14912 0.0
H106 H 0.81712 0.83486 0.93683 0.0
H107 H 0.53811 0.48879 0.88675 0.0
H108 H 0.53184 0.55645 0.09485 0.0
H109 H 0.48698 0.40091 0.86395 0.0
H110 H 0.86447 0.82773 0.0883 0.0
H111 H 0.40905 0.40878 0.12569 0.0
H112 H 0.37293 0.34314 0.06541 0.0
H113 H 0.83882 0.75601 0.14307 0.0
H114 H 0.37843 0.31679 0.98881 0.0
N115 N 0.50292 0.5059 0.0389 0.0
C116 C 0.50482 0.51939 0.08295 0.0
C117 C 0.43522 0.43554 0.10116 0.0
C118 C 0.43467 0.42091 0.05668 0.0
C119 C 0.47112 0.48472 0.11448 0.0
C120 C 0.46976 0.45714 0.02595 0.0
H121 H 0.42218 0.33722 0.91481 0.0
N122 N 0.50801 0.47758 0.95386 0.0
C123 C 0.48273 0.41201 0.89748 0.0
C124 C 0.47268 0.44246 0.98247 0.0
C125 C 0.51288 0.46264 0.91148 0.0
C126 C 0.44598 0.37624 0.92612 0.0
C127 C 0.44045 0.39113 0.96906 0.0
O128 O 0.49005 0.56282 0.93019 0.0
O129 O 0.61742 0.63783 0.98882 0.0
O130 O 0.65192 0.63938 0.06496 0.0
O131 O 0.56991 0.62097 0.04285 0.0
O132 O 0.57879 0.62933 0.9298 0.0
O133 O 0.4739 0.56303 0.99974 0.0
O134 O 0.71052 0.56592 0.02642 0.0
O135 O 0.60182 0.53987 0.9918 0.0
O136 O 0.58624 0.56899 0.9112 0.0
O137 O 0.66998 0.59553 0.93223 0.0
O138 O 0.6375 0.54358 0.05228 0.0
O139 O 0.74222 0.61608 0.96966 0.0
C140 C 0.61258 0.66306 0.95632 0.0
C141 C 0.40219 0.51264 0.95095 0.0
C142 C 0.30766 0.46926 0.95575 0.0
C143 C 0.3568 0.51245 0.96469 0.0
C144 C 0.30486 0.42671 0.93417 0.0
C145 C 0.39658 0.47033 0.92653 0.0
C146 C 0.34886 0.42749 0.91938 0.0
C147 C 0.61037 0.64255 0.07156 0.0
C148 C 0.45537 0.55668 0.95935 0.0
C149 C 0.40386 0.356 0.99887 0.0
C150 C 0.40075 0.37097 0.04247 0.0
C151 C 0.60038 0.51433 0.02596 0.0
C152 C 0.79788 0.59669 0.01164 0.0
C153 C 0.81298 0.55919 0.01223 0.0
C154 C 0.86029 0.57011 0.03138 0.0
C155 C 0.89083 0.61832 0.0511 0.0
C156 C 0.83138 0.64553 0.02845 0.0
C157 C 0.87707 0.65595 0.04873 0.0
C158 C 0.63398 0.57976 0.90196 0.0
C159 C 0.7462 0.58378 0.99608 0.0
H160 H 0.35959 0.54557 0.9814 0.0
H161 H 0.2681 0.39349 0.92679 0.0
H162 H 0.42917 0.47043 0.91198 0.0
H163 H 0.34592 0.39514 0.90116 0.0
H164 H 0.78759 0.52152 0.99872 0.0
H165 H 0.92599 0.62737 0.06786 0.0
H166 H 0.82199 0.67548 0.02655 0.0
H167 H 0.9019 0.69337 0.06287 0.0
Eu168 Eu 0.49338 0.99035 0.97668 0.0
C169 C 0.34588 0.0532 0.07197 0.0
C170 C 0.26571 1.00261 0.03287 0.0
C171 C 0.26568 0.03216 0.1086 0.0
C172 C 0.31955 0.02659 0.03414 0.0
C173 C 0.31927 0.05709 0.10931 0.0
C174 C 0.23895 1.00488 0.07051 0.0
C175 C 0.40063 0.11259 0.14421 0.0
N176 N 0.39765 0.0759 0.07206 0.0
C177 C 0.42532 0.10692 0.10682 0.0
C178 C 0.34736 0.08675 0.14589 0.0
Eu179 Eu 0.43668 0.06689 0.00626 0.0
N180 N 0.3465 0.02503 0.99826 0.0
C181 C 0.32195 1.0025 0.95927 0.0
C182 C 0.24032 0.97738 0.99367 0.0
C183 C 0.2686 0.97757 0.95665 0.0
H184 H 0.46651 0.12764 0.10584 0.0
H185 H 0.24926 0.95837 0.92612 0.0
H186 H 0.1976 0.98633 0.07022 0.0
H187 H 0.4227 0.13718 0.17161 0.0
H188 H 0.34311 1.00304 0.93011 0.0
H189 H 0.58097 1.00929 0.14225 0.0
H190 H 0.19901 0.95817 0.99148 0.0
H191 H 0.55317 0.02786 0.87429 0.0
H192 H 0.51366 0.99822 0.09095 0.0
H193 H 0.63896 0.06505 0.84332 0.0
H194 H 0.24459 0.03433 0.13711 0.0
H195 H 0.6667 0.03339 0.11326 0.0
H196 H 0.72578 0.05596 0.04798 0.0
H197 H 0.32837 0.09098 0.17506 0.0
H198 H 0.74265 0.07596 0.96802 0.0
N199 N 0.5587 1.01423 0.03178 0.0
C200 C 0.54991 1.00788 0.07693 0.0
C201 C 0.63684 0.02827 0.09015 0.0
C202 C 0.64643 0.03647 0.04422 0.0
C203 C 0.58856 1.01467 0.10661 0.0
C204 C 0.6063 0.02959 0.01544 0.0
H205 H 0.71138 0.08175 0.89234 0.0
N206 N 0.57629 0.03261 0.94278 0.0
C207 C 0.63321 0.05924 0.87912 0.0
C208 C 0.61555 0.03996 0.96999 0.0
C209 C 0.58444 0.04023 0.89744 0.0
C210 C 0.67383 0.06809 0.9068 0.0
C211 C 0.66521 0.05758 0.95256 0.0
O212 O 0.48952 0.93155 0.93074 0.0
O213 O 0.41666 0.98321 0.98792 0.0
O214 O 0.41945 1.01923 0.06741 0.0
O215 O 0.4426 0.95938 0.04402 0.0
O216 O 0.42923 0.95696 0.92767 0.0
O217 O 0.49843 0.92354 1.00079 0.0
O218 O 0.48739 0.15046 0.00799 0.0
O219 O 0.51082 0.06891 0.991 0.0
O220 O 0.49922 0.0437 0.9162 0.0
O221 O 0.43378 0.06 0.9316 0.0
O222 O 0.50849 0.10385 0.04968 0.0
O223 O 0.41544 0.11929 0.97441 0.0
C224 C 0.39386 0.9543 0.95393 0.0
C225 C 0.54076 0.89362 0.95055 0.0
C226 C 0.5838 0.84185 0.95793 0.0
C227 C 0.54227 0.85037 0.96848 0.0
C228 C 0.62341 0.87745 0.93056 0.0
C229 C 0.57953 0.92497 0.92038 0.0
C230 C 0.62094 0.91813 0.91166 0.0
C231 C 0.42073 0.97683 0.07379 0.0
C232 C 0.49901 0.90612 0.96097 0.0
C233 C 0.70461 0.06314 0.98099 0.0
C234 C 0.69502 0.05185 0.02653 0.0
C235 C 0.53742 0.09544 0.0236 0.0
C236 C 0.44743 0.20077 0.01029 0.0
C237 C 0.48581 0.25337 0.0098 0.0
C238 C 0.47865 0.29031 0.03331 0.0
C239 C 0.43241 0.27327 0.05671 0.0
C240 C 0.40163 0.18609 0.03332 0.0
C241 C 0.3944 0.22199 0.05645 0.0
C242 C 0.46952 0.06321 0.90463 0.0
C243 C 0.45555 0.16098 0.98834 0.0
H244 H 0.51139 0.82343 0.98966 0.0
H245 H 0.65517 0.87206 0.9215 0.0
H246 H 0.57746 0.95438 0.90229 0.0
H247 H 0.65064 0.94375 0.88884 0.0
H248 H 0.52121 0.26526 0.99186 0.0
H249 H 0.42495 0.29981 0.07484 0.0
H250 H 0.37125 0.14668 0.03369 0.0
H251 H 0.35897 0.20997 0.07432 0.0
Eu252 Eu 0.7416 0.85046 0.3122 0.0
C253 C 0.67276 0.62084 0.36887 0.0
C254 C 0.68806 0.58352 0.30297 0.0
C255 C 0.67619 0.54212 0.37514 0.0
C256 C 0.68127 0.62219 0.32304 0.0
C257 C 0.66992 0.58055 0.39527 0.0
C258 C 0.68525 0.54361 0.32914 0.0
C259 C 0.65496 0.61872 0.46023 0.0
N260 N 0.66728 0.65865 0.38779 0.0
C261 C 0.65764 0.65749 0.43292 0.0
C262 C 0.66089 0.5799 0.44132 0.0
Eu263 Eu 0.66151 0.717 0.3376 0.0
N264 N 0.68371 0.66129 0.29822 0.0
C265 C 0.69697 0.66529 0.2538 0.0
C266 C 0.69731 0.58575 0.25702 0.0
C267 C 0.70179 0.62682 0.23247 0.0
H268 H 0.65209 0.68673 0.44834 0.0
H269 H 0.7085 0.62867 0.19689 0.0
H270 H 0.69019 0.51371 0.31408 0.0
H271 H 0.64793 0.61863 0.49582 0.0
H272 H 0.70396 0.69765 0.2337 0.0
H273 H 0.70518 0.90317 0.47761 0.0
H274 H 0.70169 0.55633 0.24026 0.0
H275 H 0.71552 0.88124 0.20855 0.0
H276 H 0.73409 0.86118 0.42416 0.0
H277 H 0.67216 0.92418 0.17694 0.0
H278 H 0.67419 0.51108 0.39491 0.0
H279 H 0.66302 0.95013 0.45029 0.0
H280 H 0.63108 0.97907 0.38576 0.0
H281 H 0.65863 0.54974 0.46256 0.0
H282 H 0.62087 0.98342 0.30453 0.0
N283 N 0.70882 0.88372 0.36649 0.0
C284 C 0.71589 0.88138 0.41145 0.0
C285 C 0.67604 0.93201 0.42647 0.0
C286 C 0.66941 0.93485 0.38038 0.0
C287 C 0.69968 0.90543 0.44202 0.0
C288 C 0.68716 0.91069 0.35065 0.0
H289 H 0.63536 0.96268 0.22684 0.0
N290 N 0.69835 0.88904 0.27669 0.0
C291 C 0.67357 0.9205 0.21292 0.0
C292 C 0.68133 0.91299 0.30465 0.0
C293 C 0.69699 0.8948 0.23124 0.0
C294 C 0.65326 0.94255 0.24118 0.0
C295 C 0.6577 0.93976 0.28757 0.0
O296 O 0.8098 0.90381 0.27413 0.0
O297 O 0.74463 0.77826 0.31883 0.0
O298 O 0.71799 0.74851 0.39436 0.0
O299 O 0.77831 0.832 0.37498 0.0
O300 O 0.76904 0.81816 0.25891 0.0
O301 O 0.79965 0.92652 0.33885 0.0
O302 O 0.6077 0.70645 0.39021 0.0
O303 O 0.66881 0.79488 0.34466 0.0
O304 O 0.69456 0.80644 0.24734 0.0
O305 O 0.6472 0.71889 0.26468 0.0
O306 O 0.60548 0.73923 0.31043 0.0
O307 O 0.58441 0.6471 0.33845 0.0
C308 C 0.77068 0.78345 0.28303 0.0
C309 C 0.83883 0.99308 0.28268 0.0
C310 C 0.88687 0.0886 0.28192 0.0
C311 C 0.8732 0.04087 0.30347 0.0
C312 C 0.86382 0.08661 0.24039 0.0
C313 C 0.81874 0.99435 0.24056 0.0
C314 C 0.8302 0.04027 0.22028 0.0
C315 C 0.76109 0.79094 0.40215 0.0
C316 C 0.82601 0.94173 0.30206 0.0
C317 C 0.63942 0.96314 0.31713 0.0
C318 C 0.64531 0.96074 0.36338 0.0
C319 C 0.62662 0.78477 0.32646 0.0
C320 C 0.52109 0.63502 0.39765 0.0
C321 C 0.47553 0.59728 0.37649 0.0
C322 C 0.42744 0.57663 0.39882 0.0
C323 C 0.42671 0.59456 0.44232 0.0
C324 C 0.51814 0.65019 0.44153 0.0
C325 C 0.47148 0.63016 0.4635 0.0
C326 C 0.66237 0.75724 0.23629 0.0
C327 C 0.57125 0.66334 0.37402 0.0
H328 H 0.88951 0.04064 0.33568 0.0
H329 H 0.87349 0.12113 0.22193 0.0
H330 H 0.79507 0.95965 0.22224 0.0
H331 H 0.81411 0.03995 0.18779 0.0
H332 H 0.47766 0.58481 0.34296 0.0
H333 H 0.39112 0.58167 0.46019 0.0
H334 H 0.552 0.67869 0.4588 0.0
H335 H 0.46986 0.64311 0.49698 0.0
Eu336 Eu 0.21772 0.902 0.31362 0.0
C337 C 0.42847 0.06252 0.38613 0.0
C338 C 0.47482 0.11502 0.32232 0.0
C339 C 0.49887 0.14953 0.39734 0.0
C340 C 0.43523 0.06842 0.3401 0.0
C341 C 0.4604 0.10325 0.41513 0.0
C342 C 0.50638 0.15524 0.3511 0.0
C343 C 0.41736 0.04873 0.47802 0.0
N344 N 0.39183 1.01692 0.40275 0.0
C345 C 0.38778 1.00919 0.44832 0.0
C346 C 0.45365 0.09611 0.46142 0.0
Eu347 Eu 0.34776 0.94948 0.34948 0.0
N348 N 0.40299 0.02946 0.31267 0.0
C349 C 0.40754 0.03668 0.2671 0.0
C350 C 0.48116 0.12048 0.27595 0.0
C351 C 0.44708 0.08127 0.2483 0.0
H352 H 0.36205 0.97225 0.46265 0.0
H353 H 0.45095 0.08542 0.21229 0.0
H354 H 0.53651 0.19115 0.33785 0.0
H355 H 0.41244 0.0423 0.51379 0.0
H356 H 0.3809 1.00935 0.24406 0.0
H357 H 0.11755 0.81808 0.4705 0.0
H358 H 0.51128 0.15536 0.26115 0.0
H359 H 0.20488 0.83899 0.21294 0.0
H360 H 0.17135 0.88697 0.41871 0.0
H361 H 0.17455 0.75242 0.18668 0.0
H362 H 0.52354 0.18098 0.41914 0.0
H363 H 0.08314 0.72808 0.44813 0.0
H364 H 0.07573 0.66508 0.39032 0.0
H365 H 0.47704 0.12654 0.48461 0.0
H366 H 0.09354 0.6475 0.31415 0.0
N367 N 0.17126 0.83755 0.36764 0.0
C368 C 0.15876 0.8483 0.4087 0.0
C369 C 0.10746 0.7584 0.42518 0.0
C370 C 0.11891 0.74737 0.38268 0.0
C371 C 0.12706 0.80911 0.43804 0.0
C372 C 0.15054 0.78827 0.35381 0.0
H373 H 0.13077 0.67957 0.23855 0.0
N374 N 0.18849 0.81848 0.28241 0.0
C375 C 0.17146 0.75919 0.22187 0.0
C376 C 0.16037 0.77843 0.31054 0.0
C377 C 0.19065 0.80898 0.23767 0.0
C378 C 0.1464 0.71818 0.25114 0.0
C379 C 0.139 0.72731 0.29562 0.0
O380 O 0.16065 0.89638 0.26464 0.0
O381 O 0.29075 0.97557 0.32764 0.0
O382 O 0.29686 0.9422 0.40848 0.0
O383 O 0.23662 0.95689 0.37553 0.0
O384 O 0.257 0.96952 0.26678 0.0
O385 O 0.14781 0.90418 0.33341 0.0
O386 O 0.37564 0.92172 0.40381 0.0
O387 O 0.26791 0.88052 0.35234 0.0
O388 O 0.26685 0.90579 0.25159 0.0
O389 O 0.34901 0.93035 0.27716 0.0
O390 O 0.32493 0.86972 0.3255 0.0
O391 O 0.4192 0.94662 0.3427 0.0
C392 C 0.29051 1.00224 0.29436 0.0
C393 C 0.0732 0.84984 0.28886 0.0
C394 C 0.97829 0.80969 0.29008 0.0
C395 C 1.02818 0.85377 0.29507 0.0
C396 C 0.97458 0.76267 0.27988 0.0
C397 C 0.06636 0.8022 0.27577 0.0
C398 C 1.01809 0.75914 0.27241 0.0
C399 C 0.26674 0.96201 0.41033 0.0
C400 C 0.12739 0.89413 0.29369 0.0
C401 C 0.1096 0.6868 0.325 0.0
C402 C 0.09935 0.6968 0.36831 0.0
C403 C 0.2782 0.8468 0.33867 0.0
C404 C 0.41923 0.87744 0.38258 0.0
C405 C 0.46495 0.87849 0.36919 0.0
C406 C 0.46946 0.83407 0.37332 0.0
C407 C 0.4276 0.78881 0.38945 0.0
C408 C 0.3788 0.83147 0.39957 0.0
C409 C 0.38271 0.78757 0.40234 0.0
C410 C 0.31455 0.91486 0.24507 0.0
C411 C 0.41371 0.924 0.38122 0.0
H412 H 0.03183 0.8904 0.3031 0.0
H413 H 0.9375 0.72867 0.27577 0.0
H414 H 0.09841 0.79813 0.2668 0.0
H415 H 1.0144 0.72287 0.26282 0.0
H416 H 0.497 0.91365 0.3568 0.0
H417 H 0.42989 0.75425 0.39246 0.0
H418 H 0.34406 0.82942 0.41142 0.0
H419 H 0.35095 0.75252 0.41518 0.0
Eu420 Eu 0.16394 0.3217 0.31411 0.0
C421 C 1.00726 0.3593 0.39654 0.0
C422 C 0.94541 0.33749 0.33698 0.0
C423 C 0.91643 0.31924 0.41409 0.0
C424 C 0.99663 0.35718 0.35117 0.0
C425 C 0.96733 0.3424 0.42846 0.0
C426 C 0.90548 0.31672 0.36842 0.0
C427 C 0.03087 0.37889 0.4866 0.0
N428 N 0.05675 0.38226 0.40975 0.0
C429 C 0.06898 0.3946 0.45399 0.0
C430 C 0.97975 0.35156 0.47391 0.0
Eu431 Eu 0.11986 0.40641 0.35266 0.0
N432 N 0.03624 0.3785 0.32142 0.0
C433 C 1.02636 0.38445 0.27755 0.0
C434 C 0.93572 0.34153 0.29191 0.0
C435 C 0.97649 0.36614 0.26238 0.0
H436 H 0.10836 0.41554 0.46471 0.0
H437 H 0.96969 0.37169 0.2278 0.0
H438 H 0.86608 0.3007 0.35786 0.0
H439 H 0.04102 0.38757 0.52155 0.0
H440 H 0.05575 0.4042 0.25313 0.0
H441 H 0.27405 0.34302 0.46558 0.0
H442 H 0.89711 0.32746 0.2799 0.0
H443 H 0.20831 0.35128 0.20478 0.0
H444 H 0.19672 0.3163 0.42077 0.0
H445 H 0.28975 0.39994 0.16577 0.0
H446 H 0.88538 0.30513 0.43813 0.0
H447 H 0.35913 0.39022 0.42991 0.0
H448 H 0.41135 0.42962 0.36111 0.0
H449 H 0.95022 0.33926 0.4993 0.0
H450 H 0.41549 0.44725 0.28046 0.0
N451 N 0.23685 0.35012 0.36031 0.0
C452 C 0.2333 0.3381 0.40481 0.0
C453 C 0.32513 0.37878 0.40998 0.0
C454 C 0.32863 0.38985 0.36417 0.0
C455 C 0.27722 0.35249 0.4303 0.0
C456 C 0.28314 0.37408 0.33958 0.0
H457 H 0.37076 0.43717 0.20787 0.0
N458 N 0.24098 0.36744 0.27071 0.0
C459 C 0.28914 0.39686 0.20194 0.0
C460 C 0.28535 0.38396 0.2939 0.0
C461 C 0.24262 0.37069 0.22475 0.0
C462 C 0.33473 0.41739 0.22575 0.0
C463 C 0.33334 0.40995 0.27204 0.0
O464 O 0.15196 0.25797 0.27086 0.0
O465 O 0.09205 0.32244 0.3323 0.0
O466 O 0.12861 0.36422 0.41185 0.0
O467 O 0.11472 0.28924 0.37976 0.0
O468 O 0.09321 0.2911 0.27138 0.0
O469 O 0.17531 0.25837 0.3382 0.0
O470 O 0.16431 0.46446 0.40148 0.0
O471 O 0.18837 0.39529 0.34956 0.0
O472 O 0.15716 0.36562 0.25253 0.0
O473 O 0.13253 0.42286 0.27917 0.0
O474 O 0.1959 0.46095 0.32041 0.0
O475 O 0.11857 0.48017 0.35436 0.0
C476 C 0.06316 0.29508 0.30007 0.0
C477 C 0.20844 0.22479 0.28209 0.0
C478 C 0.25372 0.17491 0.28165 0.0
C479 C 0.21631 0.18547 0.30049 0.0
C480 C 0.28161 0.20355 0.24415 0.0
C481 C 0.23771 0.25177 0.24462 0.0
C482 C 0.2739 0.24156 0.22619 0.0
C483 C 0.10999 0.31458 0.41439 0.0
C484 C 0.16862 0.2369 0.29918 0.0
C485 C 0.37849 0.42687 0.29672 0.0
C486 C 0.37614 0.41668 0.3426 0.0
C487 C 0.22026 0.4379 0.33206 0.0
C488 C 0.17183 0.54742 0.41082 0.0
C489 C 0.1804 0.59341 0.38967 0.0
C490 C 0.20795 0.64136 0.41235 0.0
C491 C 0.22782 0.64174 0.45517 0.0
C492 C 0.18938 0.55008 0.45488 0.0
C493 C 0.21737 0.59668 0.47653 0.0
C494 C 0.14591 0.40277 0.24636 0.0
C495 C 0.15196 0.49746 0.38696 0.0
H496 H 0.19358 0.16335 0.32881 0.0
H497 H 0.30886 0.19562 0.22762 0.0
H498 H 0.23175 0.28013 0.22837 0.0
H499 H 0.29551 0.26267 0.19704 0.0
H500 H 0.16706 0.59206 0.35575 0.0
H501 H 0.25255 0.67722 0.47235 0.0
H502 H 0.18336 0.516 0.47225 0.0
H503 H 0.23236 0.59804 0.50976 0.0
Eu504 Eu 0.41066 0.18737 0.64091 0.0
C505 C 0.34229 0.98888 0.75444 0.0
C506 C 0.37512 0.9417 0.71427 0.0
C507 C 0.35967 0.92896 0.79437 0.0
C508 C 0.35928 0.97848 0.71489 0.0
C509 C 0.34155 0.96362 0.79446 0.0
C510 C 0.37621 0.91783 0.75431 0.0
C511 C 0.30048 1.00493 0.83096 0.0
N512 N 0.32407 0.0219 0.75334 0.0
C513 C 0.30138 0.02858 0.79048 0.0
C514 C 0.32096 0.97256 0.83306 0.0
Eu515 Eu 0.3267 0.06023 0.68303 0.0
N516 N 0.35749 1.00196 0.67661 0.0
C517 C 0.36811 0.98796 0.63631 0.0
C518 C 0.38774 0.92866 0.67319 0.0
C519 C 0.38316 0.95109 0.634 0.0
H520 H 0.28466 0.05283 0.78922 0.0
H521 H 0.39131 0.94005 0.60188 0.0
H522 H 0.38877 0.88993 0.75447 0.0
H523 H 0.28353 1.01145 0.86032 0.0
H524 H 0.3649 1.00476 0.60553 0.0
H525 H 0.42778 0.28377 0.80252 0.0
H526 H 0.39965 0.9003 0.67124 0.0
H527 H 0.34492 0.18914 0.54576 0.0
H528 H 0.43294 0.22311 0.75346 0.0
H529 H 0.30343 0.23433 0.5186 0.0
H530 H 0.35975 0.90952 0.82486 0.0
H531 H 0.39373 0.33769 0.77488 0.0
H532 H 0.35676 0.363 0.71252 0.0
H533 H 0.31927 0.95334 0.86419 0.0
H534 H 0.32163 0.3485 0.63652 0.0
N535 N 0.39866 0.23763 0.69664 0.0
C536 C 0.416 0.24385 0.73993 0.0
C537 C 0.39497 0.30993 0.75268 0.0
C538 C 0.37745 0.30406 0.70863 0.0
C539 C 0.41393 0.27941 0.76844 0.0
C540 C 0.37944 0.267 0.68096 0.0
H541 H 0.30002 0.2998 0.56528 0.0
N542 N 0.36062 0.22213 0.61175 0.0
C543 C 0.31854 0.24121 0.55236 0.0
C544 C 0.35983 0.25895 0.63767 0.0
C545 C 0.34129 0.21414 0.56899 0.0
C546 C 0.31711 0.27843 0.57861 0.0
C547 C 0.33816 0.28806 0.62153 0.0
O548 O 0.46112 0.23908 0.58852 0.0
O549 O 0.40982 0.11532 0.65809 0.0
O550 O 0.38213 0.0932 0.73915 0.0
O551 O 0.44471 0.1701 0.70745 0.0
O552 O 0.44366 0.14937 0.59837 0.0
O553 O 0.48236 0.25918 0.65691 0.0
O554 O 0.24512 0.03266 0.69503 0.0
O555 O 0.32992 0.13371 0.66053 0.0
O556 O 0.36726 0.13665 0.57833 0.0
O557 O 0.32454 0.05493 0.60856 0.0
O558 O 0.29977 0.10571 0.72346 0.0
O559 O 0.26637 0.98701 0.65569 0.0
C560 C 0.43809 0.11409 0.62622 0.0
C561 C 0.5017 0.32876 0.60586 0.0
C562 C 0.55337 0.42379 0.60903 0.0
C563 C 0.54722 0.37456 0.61885 0.0
C564 C 0.51352 0.42612 0.5872 0.0
C565 C 0.46484 0.33412 0.58148 0.0
C566 C 0.47003 0.38184 0.5733 0.0
C567 C 0.42712 0.13457 0.74064 0.0
C568 C 0.49191 0.27533 0.61564 0.0
C569 C 0.33777 0.32576 0.64861 0.0
C570 C 0.35762 0.33391 0.69191 0.0
C571 C 0.30768 0.14001 0.69406 0.0
C572 C 0.18728 0.94359 0.69611 0.0
C573 C 0.13473 0.92653 0.6881 0.0
C574 C 0.09575 0.88423 0.71206 0.0
C575 C 0.11092 0.86047 0.74435 0.0
C576 C 0.20025 0.91744 0.72744 0.0
C577 C 0.16239 0.87649 0.7515 0.0
C578 C 0.33676 0.08593 0.5742 0.0
C579 C 0.2285 0.98992 0.6736 0.0
H580 H 0.57754 0.372 0.63583 0.0
H581 H 0.517 0.46273 0.57919 0.0
H582 H 0.43179 0.30126 0.56792 0.0
H583 H 0.44045 0.38453 0.55512 0.0
H584 H 0.12445 0.94681 0.66414 0.0
H585 H 0.0828 0.82878 0.76403 0.0
H586 H 0.23976 0.92898 0.73372 0.0
H587 H 0.17302 0.85709 0.77606 0.0
Eu588 Eu 0.88116 0.24212 0.63914 0.0
C589 C 0.0801 0.37553 0.75297 0.0
C590 C 0.11706 0.45902 0.71825 0.0
C591 C 0.13559 0.45166 0.79627 0.0
C592 C 0.08564 0.40541 0.71587 0.0
C593 C 0.1053 0.39829 0.79349 0.0
C594 C 0.14166 0.48194 0.75869 0.0
C595 C 0.07174 0.31372 0.82461 0.0
N596 N 0.05067 0.32399 0.74921 0.0
C597 C 0.04791 0.29288 0.7837 0.0
C598 C 0.10009 0.36667 0.82976 0.0
Eu599 Eu 1.01133 0.29147 0.67871 0.0
N600 N 0.06145 0.38211 0.6772 0.0
C601 C 0.06861 0.41034 0.63931 0.0
C602 C 0.12293 0.48808 0.67991 0.0
C603 C 0.09876 0.46358 0.64024 0.0
H604 H 1.02655 0.2519 0.78004 0.0
H605 H 0.10364 0.48564 0.61018 0.0
H606 H 0.1656 0.52306 0.76118 0.0
H607 H 0.06839 0.28883 0.852 0.0
H608 H 0.05138 0.39234 0.60799 0.0
H609 H 0.78976 0.11919 0.78467 0.0
H610 H 0.14648 0.52934 0.68045 0.0
H611 H 0.86085 0.21523 0.52962 0.0
H612 H 0.85166 0.19784 0.74655 0.0
H613 H 0.80993 0.14061 0.48102 0.0
H614 H 0.15504 0.46983 0.82713 0.0
H615 H 0.73342 0.04199 0.74076 0.0
H616 H 0.7057 0.99937 0.66589 0.0
H617 H 0.11866 0.38269 0.86149 0.0
H618 H 0.71375 1.00413 0.58399 0.0
N619 N 0.83173 0.16615 0.68082 0.0
C620 C 0.82785 0.16478 0.72653 0.0
C621 C 0.76101 0.07643 0.72356 0.0
C622 C 0.76524 0.07781 0.67683 0.0
C623 C 0.79264 0.11999 0.74849 0.0
C624 C 0.80132 0.12385 0.65599 0.0
H625 H 0.75284 0.05612 0.51493 0.0
N626 N 0.83878 0.17201 0.59 0.0
C627 C 0.80893 0.1359 0.51703 0.0
C628 C 0.80539 0.12673 0.60949 0.0
C629 C 0.83872 0.1778 0.54459 0.0
C630 C 0.77659 0.08839 0.53632 0.0
C631 C 0.77355 0.08359 0.58302 0.0
O632 O 0.83711 0.26854 0.60073 0.0
O633 O 0.95068 0.31424 0.65903 0.0
O634 O 0.97665 0.30584 0.73808 0.0
O635 O 0.89372 0.27908 0.71234 0.0
O636 O 0.91885 0.31337 0.59735 0.0
O637 O 0.80509 0.22786 0.66205 0.0
O638 O 0.04646 0.24274 0.68351 0.0
O639 O 0.93957 0.22111 0.65596 0.0
O640 O 0.93203 0.23626 0.58129 0.0
O641 O 1.0105 0.30148 0.60448 0.0
O642 O 0.97207 0.21418 0.7143 0.0
O643 O 0.08497 0.31311 0.64724 0.0
C644 C 0.95022 0.34323 0.62766 0.0
C645 C 0.74525 0.2156 0.60238 0.0
C646 C 0.64966 0.16794 0.59968 0.0
C647 C 0.69653 0.19438 0.62457 0.0
C648 C 0.65331 0.16509 0.55282 0.0
C649 C 0.74549 0.21019 0.55558 0.0
C650 C 0.70029 0.18525 0.53136 0.0
C651 C 0.93121 0.30042 0.74352 0.0
C652 C 0.79622 0.24633 0.62589 0.0
C653 C 0.73846 0.03756 0.6038 0.0
C654 C 0.73396 0.03484 0.65049 0.0
C655 C 0.93617 0.18981 0.68563 0.0
C656 C 0.13726 0.28447 0.68261 0.0
C657 C 0.15474 0.24856 0.68002 0.0
C658 C 0.20163 0.25909 0.7004 0.0
C659 C 0.23064 0.30651 0.72206 0.0
C660 C 0.16739 0.33081 0.70513 0.0
C661 C 0.21366 0.34169 0.72446 0.0
C662 C 0.98237 0.26731 0.57434 0.0
C663 C 0.08788 0.27409 0.66218 0.0
H664 H 0.69514 0.19859 0.66049 0.0
H665 H 0.61939 0.14806 0.53205 0.0
H666 H 0.78092 0.22643 0.53693 0.0
H667 H 0.7017 0.18238 0.49527 0.0
H668 H 0.13169 0.21253 0.66292 0.0
H669 H 0.26703 0.31682 0.73725 0.0
H670 H 0.15533 0.35897 0.70762 0.0
H671 H 0.23664 0.37777 0.74146 0.0
Eu672 Eu 0.83161 0.66803 0.64809 0.0
C673 C 0.67408 0.7302 0.71934 0.0
C674 C 0.59958 0.68119 0.67261 0.0
C675 C 0.58993 0.71022 0.74601 0.0
C676 C 0.65278 0.70431 0.67972 0.0
C677 C 0.64296 0.73418 0.75257 0.0
C678 C 0.56828 0.68367 0.70619 0.0
C679 C 0.71924 0.78745 0.7954 0.0
N680 N 0.72537 0.75207 0.72524 0.0
C681 C 0.74847 0.78184 0.76191 0.0
C682 C 0.66619 0.76284 0.7911 0.0
Eu683 Eu 0.7724 0.74424 0.6654 0.0
N684 N 0.68406 0.70279 0.6477 0.0
C685 C 0.66471 0.68086 0.60701 0.0
C686 C 0.57944 0.65683 0.63168 0.0
C687 C 0.61223 0.65705 0.59863 0.0
H688 H 0.78949 0.80147 0.7654 0.0
H689 H 0.59714 0.63908 0.56656 0.0
H690 H 0.52734 0.66586 0.70138 0.0
H691 H 0.73769 0.81118 0.8243 0.0
H692 H 0.68926 0.68115 0.58066 0.0
H693 H 0.90156 0.70006 0.82212 0.0
H694 H 0.5388 0.63852 0.625 0.0
H695 H 0.89876 0.69353 0.55148 0.0
H696 H 0.83926 0.683 0.76336 0.0
H697 H 0.9871 0.72449 0.52745 0.0
H698 H 0.56539 0.71253 0.77131 0.0
H699 H 0.99015 0.72377 0.80256 0.0
H700 H 0.05556 0.74156 0.74355 0.0
H701 H 0.64365 0.76711 0.81723 0.0
H702 H 0.07976 0.75258 0.66413 0.0
N703 N 0.8904 0.69544 0.70921 0.0
C704 C 0.87699 0.69248 0.75338 0.0
C705 C 0.96262 0.71602 0.77614 0.0
C706 C 0.97673 0.72026 0.73106 0.0
C707 C 0.91269 0.70264 0.7873 0.0
C708 C 0.93951 0.71004 0.69781 0.0
H709 H 0.05506 0.74782 0.58377 0.0
N710 N 0.9168 0.70575 0.62125 0.0
C711 C 0.97829 0.72306 0.56278 0.0
C712 C 0.95313 0.71584 0.65277 0.0
C713 C 0.92832 0.70686 0.57669 0.0
C714 C 1.01645 0.73587 0.59466 0.0
C715 C 1.00402 0.73146 0.6402 0.0
O716 O 0.8375 0.61196 0.60527 0.0
O717 O 0.7542 0.66084 0.64995 0.0
O718 O 0.74685 0.69483 0.72636 0.0
O719 O 0.77429 0.63623 0.71059 0.0
O720 O 0.77253 0.63135 0.59481 0.0
O721 O 0.83582 0.60325 0.67728 0.0
O722 O 0.82079 0.8277 0.66891 0.0
O723 O 0.84797 0.74701 0.65737 0.0
O724 O 0.84526 0.72043 0.58543 0.0
O725 O 0.77878 0.7374 0.59198 0.0
O726 O 0.84115 0.7841 0.71263 0.0
O727 O 0.75492 0.79549 0.62636 0.0
C728 C 0.73501 0.63144 0.61563 0.0
C729 C 0.82922 0.53329 0.63304 0.0
C730 C 0.85375 0.46665 0.63048 0.0
C731 C 0.86718 0.51856 0.63546 0.0
C732 C 0.80218 0.43033 0.62259 0.0
C733 C 0.77832 0.49601 0.6251 0.0
C734 C 0.76501 0.44492 0.61976 0.0
C735 C 0.74804 0.65282 0.73575 0.0
C736 C 0.8432 0.58754 0.63874 0.0
C737 C 0.04069 0.74091 0.67324 0.0
C738 C 1.02692 0.73472 0.71847 0.0
C739 C 0.87235 0.77556 0.6898 0.0
C740 C 0.78104 0.87711 0.65985 0.0
C741 C 0.81883 0.92972 0.65877 0.0
C742 C 0.80981 0.96672 0.6795 0.0
C743 C 0.76287 0.94997 0.70145 0.0
C744 C 0.7338 0.86245 0.68018 0.0
C745 C 0.72502 0.89859 0.70108 0.0
C746 C 0.81718 0.73999 0.56958 0.0
C747 C 0.79235 0.83749 0.64302 0.0
H748 H 0.90663 0.5471 0.64191 0.0
H749 H 0.79055 0.3903 0.61877 0.0
H750 H 0.74889 0.50643 0.62318 0.0
H751 H 0.72553 0.41634 0.61369 0.0
H752 H 0.85545 0.94155 0.64308 0.0
H753 H 0.75514 0.97686 0.71866 0.0
H754 H 0.70387 0.8229 0.68065 0.0
H755 H 0.68879 0.88662 0.7175 0.0
C756 C 0.24264 0.49335 0.93349 0.0
C757 C 0.25798 0.46799 0.96353 0.0
C758 C 0.19178 0.48305 0.93208 0.0
C759 C 0.15302 0.44735 0.96126 0.0
H760 H 0.26964 0.5196 0.90915 0.0
H761 H 0.18315 0.50364 0.90714 0.0
S762 S 0.17457 0.37015 0.04614 0.0
N763 N 0.231 0.40453 0.0223 0.0
N764 N 0.13633 0.3875 0.02197 0.0
C765 C 0.16868 0.42272 0.99235 0.0
C766 C 0.22058 0.43236 0.99286 0.0
C767 C 0.55072 0.74804 0.94768 0.0
C768 C 0.58528 0.79387 0.96887 0.0
C769 C 0.55974 0.70661 0.94513 0.0
C770 C 0.60382 0.70809 0.96393 0.0
H771 H 0.51799 0.74526 0.9302 0.0
H772 H 0.53182 0.67341 0.92683 0.0
S773 S 0.70352 0.81806 0.02792 0.0
N774 N 0.66374 0.83758 0.01195 0.0
N775 N 0.67954 0.75921 0.00864 0.0
C776 C 0.6369 0.75273 0.98787 0.0
C777 C 0.62804 0.7955 0.98988 0.0
C778 C 0.34438 0.86269 0.92612 0.0
C779 C 0.34782 0.90014 0.95709 0.0
C780 C 0.30474 0.81131 0.92727 0.0
C781 C 0.26518 0.79372 0.95897 0.0
H782 H 0.37259 0.87287 0.89986 0.0
H783 H 0.3037 0.78558 0.90146 0.0
S784 S 0.25144 0.8735 0.04603 0.0
N785 N 0.30577 0.91348 0.02079 0.0
N786 N 0.22976 0.81788 0.02077 0.0
C787 C 0.26713 0.82995 0.98991 0.0
C788 C 0.30855 0.8825 0.98957 0.0
C789 C 0.5392 0.3728 0.99249 0.0
C790 C 0.51722 0.34681 0.03292 0.0
C791 C 0.56763 0.42682 0.99059 0.0
C792 C 0.57445 0.45712 0.0288 0.0
H793 H 0.5323 0.35145 0.96164 0.0
H794 H 0.58312 0.44502 0.95866 0.0
S795 S 0.53582 0.40843 0.14456 0.0
N796 N 0.51287 0.3563 0.11356 0.0
N797 N 0.56502 0.45689 0.10947 0.0
C798 C 0.5571 0.43166 0.06997 0.0
C799 C 0.52848 0.37689 0.07208 0.0
C800 C 0.61918 0.13563 0.06732 0.0
C801 C 0.59447 0.12649 0.02566 0.0
C802 C 0.67279 0.16091 0.07046 0.0
C803 C 0.70445 0.17937 0.03214 0.0
H804 H 0.59682 0.12111 0.09771 0.0
H805 H 0.68953 0.16486 0.10333 0.0
S806 S 0.6584 0.17786 0.91642 0.0
N807 N 0.60545 0.14703 0.94632 0.0
N808 N 0.70612 0.19376 0.95175 0.0
C809 C 0.68009 0.17487 0.99068 0.0
C810 C 0.62524 0.14878 0.98756 0.0
C811 C 0.92615 0.49645 0.06918 0.0
C812 C 0.93248 0.47593 0.029 0.0
C813 C 0.90109 0.52513 0.06995 0.0
C814 C 0.8795 0.53287 0.03088 0.0
H815 H 0.94265 0.49219 0.09995 0.0
H816 H 0.89948 0.54227 0.10135 0.0
S817 S 0.87498 0.47636 0.91933 0.0
N818 N 0.90781 0.45789 0.95079 0.0
N819 N 0.86045 0.51139 0.95206 0.0
C820 C 0.88174 0.50866 0.99129 0.0
C821 C 0.90808 0.48015 0.99041 0.0
C822 C 0.84044 0.77223 0.32064 0.0
C823 C 0.82324 0.78812 0.28366 0.0
C824 C 0.89141 0.78223 0.3243 0.0
C825 C 0.92859 0.81013 0.29123 0.0
H826 H 0.81391 0.75183 0.34673 0.0
H827 H 0.90158 0.76707 0.35289 0.0
S828 S 0.90482 0.85949 0.18575 0.0
N829 N 0.84891 0.83198 0.21148 0.0
N830 N 0.94404 0.85187 0.21914 0.0
C831 C 0.91226 0.8263 0.2538 0.0
C832 C 0.86011 0.81509 0.24968 0.0
C833 C 0.22325 0.08186 0.30013 0.0
C834 C 0.26335 0.13274 0.29722 0.0
C835 C 0.23296 0.04068 0.30247 0.0
C836 C 0.28319 0.04794 0.30158 0.0
H837 H 0.18403 0.07346 0.29757 0.0
H838 H 0.20041 1.00239 0.30253 0.0
S839 S 0.40171 0.17445 0.30134 0.0
N840 N 0.35545 0.18842 0.30019 0.0
N841 N 0.37309 0.11147 0.30202 0.0
C842 C 0.32338 0.09883 0.30175 0.0
C843 C 0.31362 0.14086 0.30034 0.0
C844 C 0.96717 0.23541 0.29338 0.0
C845 C 1.01508 0.24419 0.30807 0.0
C846 C 0.92459 0.18538 0.28957 0.0
C847 C 0.92805 0.14094 0.2984 0.0
H848 H 0.96317 0.2671 0.28199 0.0
H849 H 0.88925 0.18158 0.27697 0.0
S850 S 0.04452 0.14214 0.33941 0.0
N851 N 0.06206 0.20301 0.33377 0.0
N852 N 0.98382 0.11036 0.32483 0.0
C853 C 0.97507 0.14929 0.31518 0.0
C854 C 1.01802 0.20022 0.31991 0.0
C855 C 0.25402 0.75419 0.33012 0.0
C856 C 0.25557 0.79356 0.35673 0.0
C857 C 0.23594 0.70439 0.34726 0.0
C858 C 0.21944 0.69197 0.3921 0.0
H859 H 0.2672 0.76209 0.29572 0.0
H860 H 0.23686 0.67606 0.32567 0.0
S861 S 0.21949 0.78279 0.47666 0.0
N862 N 0.24278 0.81768 0.43099 0.0
N863 N 0.20539 0.72441 0.46242 0.0
C864 C 0.22045 0.73131 0.4188 0.0
C865 C 0.23964 0.78194 0.40151 0.0
C866 C 0.28835 0.46834 0.39113 0.0
C867 C 0.27461 0.46968 0.34646 0.0
C868 C 0.33846 0.50039 0.40638 0.0
C869 C 0.37701 0.53756 0.37841 0.0
H870 H 0.25992 0.44262 0.4148 0.0
H871 H 0.34661 0.49652 0.44102 0.0
S872 S 0.35952 0.55767 0.25828 0.0
N873 N 0.30302 0.51057 0.27399 0.0
N874 N 0.39653 0.57321 0.30302 0.0
C875 C 0.36355 0.53923 0.33339 0.0
C876 C 0.31249 0.50542 0.3176 0.0
C877 C 0.53049 0.83131 0.31729 0.0
C878 C 0.51708 0.83284 0.36221 0.0
C879 C 0.56737 0.81743 0.3061 0.0
C880 C 0.5934 0.80619 0.3394 0.0
H881 H 0.51026 0.83795 0.29056 0.0
H882 H 0.57499 0.81458 0.27105 0.0
S883 S 0.57037 0.80233 0.46179 0.0
N884 N 0.53178 0.82057 0.44 0.0
N885 N 0.60106 0.79525 0.41905 0.0
C886 C 0.58074 0.80827 0.38438 0.0
C887 C 0.5429 0.82175 0.39573 0.0
C888 C 0.58229 0.17506 0.64625 0.0
C889 C 0.59605 0.14548 0.61937 0.0
C890 C 0.53035 0.16109 0.65313 0.0
C891 C 0.48903 0.11661 0.63376 0.0
H892 H 0.61181 0.21165 0.65879 0.0
H893 H 0.52328 0.18851 0.67005 0.0
S894 S 0.50419 0.02357 0.56357 0.0
N895 N 0.56323 0.06592 0.57791 0.0
N896 N 0.4675 0.04315 0.58703 0.0
C897 C 0.50259 0.08553 0.60896 0.0
C898 C 0.55522 0.0988 0.60309 0.0
C899 C 0.90838 0.38459 0.67095 0.0
C900 C 0.94195 0.38777 0.63649 0.0
C901 C 0.88403 0.41395 0.67073 0.0
C902 C 0.89119 0.44789 0.63565 0.0
H903 H 0.89688 0.3564 0.69679 0.0
H904 H 0.85633 0.40721 0.69679 0.0
S905 S 0.97655 0.47369 0.53782 0.0
N906 N 0.98268 0.43058 0.56703 0.0
N907 N 0.93656 0.48544 0.56633 0.0
C908 C 0.92677 0.45416 0.60215 0.0
C909 C 0.95196 0.42423 0.60259 0.0
C910 C 0.68219 0.5419 0.5846 0.0
C911 C 0.68644 0.57921 0.61605 0.0
C912 C 0.64158 0.49091 0.58521 0.0
C913 C 0.60173 0.47405 0.61656 0.0
H914 H 0.71098 0.55184 0.55888 0.0
H915 H 0.64033 0.46491 0.55957 0.0
S916 S 0.5887 0.55512 0.70288 0.0
N917 N 0.64403 0.59408 0.67863 0.0
N918 N 0.56617 0.49945 0.67748 0.0
C919 C 0.60396 0.51067 0.64725 0.0
C920 C 0.64637 0.56262 0.64759 0.0
C921 C 0.86146 0.04983 0.72066 0.0
C922 C 0.84833 0.02279 0.6798 0.0
C923 C 0.89131 0.10345 0.72198 0.0
C924 C 0.9079 0.13272 0.68246 0.0
H925 H 0.84744 0.02934 0.75199 0.0
H926 H 0.89946 0.12233 0.75426 0.0
S927 S 0.89099 0.08075 0.56711 0.0
N928 N 0.85934 0.02951 0.59895 0.0
N929 N 0.91522 0.13022 0.60151 0.0
C930 C 0.89795 0.10621 0.6415 0.0
C931 C 0.86807 0.05136 0.64016 0.0
C932 C 0.95209 0.82171 0.73642 0.0
C933 C 0.92938 0.80785 0.6938 0.0
C934 C 1.00559 0.84829 0.74173 0.0
C935 C 0.03923 0.86346 0.70464 0.0
H936 H 0.92826 0.81001 0.76613 0.0
H937 H 1.02075 0.85603 0.77549 0.0
S938 S 0.99889 0.8468 0.58538 0.0
N939 N 0.94452 0.81895 0.61357 0.0
N940 N 0.04481 0.86803 0.62331 0.0
C941 C 1.01685 0.85354 0.66166 0.0
C942 C 0.96215 0.82613 0.65631 0.0
C943 C 0.25147 0.17132 0.65778 0.0
C944 C 0.27753 0.16731 0.69546 0.0
C945 C 0.22471 0.19878 0.65973 0.0
C946 C 0.222 0.22238 0.69972 0.0
H947 H 0.25286 0.15425 0.6263 0.0
H948 H 0.20796 0.20336 0.62927 0.0
S949 S 0.27319 0.21226 0.8102 0.0
N950 N 0.29169 0.18222 0.77534 0.0
N951 N 0.24077 0.23182 0.77956 0.0
C952 C 0.24395 0.21428 0.73841 0.0
C953 C 0.27141 0.18698 0.73623 0.0
C954 C 0.1256 0.38606 0.1645 0.0
C955 C 0.14316 0.42082 0.20007 0.0
C956 C 0.11033 0.39781 0.12391 0.0
C957 C 0.1129 0.44521 0.11566 0.0
H958 H 0.11963 0.34788 0.16909 0.0
H959 H 0.09335 0.36773 0.09952 0.0
S960 S 0.16337 0.55293 0.19605 0.0
N961 N 0.16728 0.50737 0.2233 0.0
N962 N 0.13982 0.52929 0.14611 0.0
C963 C 0.13446 0.48208 0.14965 0.0
C964 C 0.14922 0.46987 0.19185 0.0
C965 C 0.67879 0.75277 0.15443 0.0
C966 C 0.64359 0.74039 0.18941 0.0
C967 C 0.66554 0.72304 0.11508 0.0
C968 C 0.61643 0.67973 0.10818 0.0
H969 H 0.71818 0.78252 0.15907 0.0
H970 H 0.69544 0.73254 0.09084 0.0
S971 S 0.50763 0.63626 0.18696 0.0
N972 N 0.55534 0.68529 0.21273 0.0
N973 N 0.53063 0.63076 0.13831 0.0
C974 C 0.57943 0.67009 0.14108 0.0
C975 C 0.59304 0.69999 0.18166 0.0
C976 C 0.34249 0.94672 0.12144 0.0
C977 C 0.38865 0.94656 0.1134 0.0
C978 C 0.31593 0.93161 0.16237 0.0
C979 C 0.33481 0.9165 0.19853 0.0
H980 H 0.3277 0.96148 0.09644 0.0
H981 H 0.28257 0.93578 0.16663 0.0
S982 S 0.45109 0.90333 0.19544 0.0
N983 N 0.4492 0.92468 0.1449 0.0
N984 N 0.40066 0.89742 0.22255 0.0
C985 C 0.3793 0.91285 0.19056 0.0
C986 C 0.40587 0.92753 0.14808 0.0
C987 C 0.46208 0.13053 0.86071 0.0
C988 C 0.47429 0.09088 0.8609 0.0
C989 C 0.45432 0.1508 0.82075 0.0
C990 C 0.45913 0.13326 0.77845 0.0
H991 H 0.45533 0.14422 0.892 0.0
H992 H 0.44 0.17722 0.82324 0.0
S993 S 0.49587 0.03432 0.75875 0.0
N994 N 0.49479 0.03804 0.81396 0.0
N995 N 0.48097 0.07636 0.73915 0.0
C996 C 0.47526 0.09654 0.77791 0.0
C997 C 0.48281 0.07548 0.81881 0.0
C998 C 0.9296 0.33303 0.86502 0.0
C999 C 0.96619 0.38603 0.86654 0.0
C1000 C 0.91212 0.30582 0.82436 0.0
C1001 C 0.92966 0.3303 0.78292 0.0
H1002 H 0.91635 0.3113 0.89575 0.0
H1003 H 0.8881 0.26464 0.82559 0.0
S1004 S 1.02016 0.46935 0.76709 0.0
N1005 N 1.01512 0.46236 0.82203 0.0
N1006 N 0.98297 0.4119 0.74596 0.0
C1007 C 0.96314 0.38396 0.78384 0.0
C1008 C 0.98102 0.41166 0.82535 0.0
C1009 C 0.66968 0.62697 0.78288 0.0
C1010 C 0.71344 0.62251 0.77401 0.0
C1011 C 0.64016 0.60781 0.82202 0.0
C1012 C 0.6533 0.58358 0.85503 0.0
H1013 H 0.65852 0.64689 0.75974 0.0
H1014 H 0.60934 0.61568 0.82789 0.0
S1015 S 0.76011 0.55569 0.84735 0.0
N1016 N 0.76481 0.58676 0.8004 0.0
N1017 N 0.71033 0.55125 0.87453 0.0
C1018 C 0.69476 0.57539 0.84551 0.0
C1019 C 0.72452 0.59459 0.80506 0.0
C1020 C 0.80795 0.82045 0.4765 0.0
C1021 C 0.79178 0.7865 0.44002 0.0
C1022 C 0.8224 0.80777 0.5176 0.0
C1023 C 0.82299 0.76149 0.52354 0.0
H1024 H 0.80494 0.85467 0.47478 0.0
H1025 H 0.82954 0.83269 0.54608 0.0
S1026 S 0.79083 0.66224 0.43771 0.0
N1027 N 0.78019 0.70492 0.41306 0.0
N1028 N 0.81176 0.68484 0.48829 0.0
C1029 C 0.81188 0.72985 0.48634 0.0
C1030 C 0.79502 0.7413 0.44526 0.0
C1031 C 0.26227 0.9744 0.49241 0.0
C1032 C 0.27419 0.99614 0.44958 0.0
C1033 C 0.28113 1.00438 0.53128 0.0
C1034 C 0.31455 0.05825 0.53007 0.0
H1035 H 0.23986 0.93323 0.49596 0.0
H1036 H 0.27037 0.98393 0.56278 0.0
S1037 S 0.35718 0.13454 0.42527 0.0
N1038 N 0.32034 0.07528 0.40756 0.0
N1039 N 0.35686 0.13173 0.48061 0.0
C1040 C 0.32546 0.0809 0.48717 0.0
C1041 C 0.30525 0.04996 0.44717 0.0
C1042 C 0.06607 0.29605 0.53461 0.0
C1043 C 1.01182 0.26811 0.5326 0.0
C1044 C 0.09735 0.30609 0.49683 0.0
C1045 C 0.07678 0.28838 0.45427 0.0
H1046 H 0.08559 0.31327 0.56544 0.0
H1047 H 0.13825 0.33086 0.50062 0.0
S1048 S 0.93817 0.20917 0.42874 0.0
N1049 N 0.93948 0.219 0.48336 0.0
N1050 N 0.99842 0.23853 0.41202 0.0
C1051 C 1.02294 0.25751 0.45143 0.0
C1052 C 0.99057 0.24709 0.49048 0.0
loop_
_geom_bond_atom_site_label_1
_geom_bond_atom_site_label_2
_geom_bond_distance
_geom_bond_site_symmetry_2
_ccdc_geom_bond_type
Eu0 N31 2.649 1_456 S
Eu0 N38 2.609 . S
Eu0 O44 2.558 . S
Eu0 O45 2.612 1_556 S
Eu0 O47 2.339 1_556 S
Eu0 O48 2.563 . S
Eu0 O49 2.419 1_556 S
Eu0 O51 2.378 1_456 S
Eu0 O52 2.432 . S
Eu0 C64 2.848 . S
C1 C4 1.429 . S
C1 C5 1.411 . S
C1 N8 1.377 1_455 S
C2 C4 1.420 1_556 S
C2 C6 1.423 1_556 S
C2 C14 1.392 . S
C3 C5 1.420 . S
C3 C6 1.351 . S
C3 H26 0.931 . S
C4 C1 1.429 . S
C4 C2 1.420 1_554 S
C4 N12 1.362 1_554 S
C5 C1 1.411 . S
C5 C3 1.420 . S
C5 C10 1.395 . S
C6 C2 1.423 1_554 S
C6 C3 1.351 . S
C6 H18 0.930 . S
C7 C9 1.400 . S
C7 C10 1.386 1_655 S
C7 H19 0.930 . S
N8 C1 1.377 1_655 S
N8 C9 1.321 . S
N8 Eu11 2.609 . S
C9 C7 1.400 . S
C9 N8 1.321 . S
C9 H16 0.930 . S
C10 C5 1.395 . S
C10 C7 1.386 1_455 S
C10 H29 0.930 . S
Eu11 N8 2.609 . S
Eu11 N12 2.657 1_654 S
Eu11 O45 2.380 1_655 S
Eu11 O46 2.432 . S
Eu11 O50 2.558 . S
Eu11 O51 2.615 . S
Eu11 O53 2.339 1_554 S
Eu11 O54 2.563 . S
Eu11 O55 2.419 1_554 S
Eu11 C75 2.848 . S
N12 C4 1.362 1_556 S
N12 Eu11 2.657 1_456 S
N12 C13 1.334 . S
C13 N12 1.334 . S
C13 C15 1.413 . S
C13 H20 0.929 . S
C14 C2 1.392 . S
C14 C15 1.367 . S
C14 H22 0.930 . S
C15 C13 1.413 . S
C15 C14 1.367 . S
C15 H17 0.930 . S
H16 C9 0.930 . S
H17 C15 0.930 . S
H18 C6 0.930 . S
H19 C7 0.930 . S
H20 C13 0.929 . S
H21 C35 0.930 . S
H22 C14 0.930 . S
H23 C41 0.930 . S
H24 C32 0.914 1_455 S
H25 C39 0.930 . S
H26 C3 0.931 . S
H27 C33 0.930 . S
H28 C66 0.930 . S
H29 C10 0.930 . S
H30 C65 0.931 . S
N31 Eu0 2.649 1_654 S
N31 C32 1.336 . S
N31 C36 1.368 1_554 S
C32 H24 0.914 1_655 S
C32 N31 1.336 . S
C32 C35 1.413 . S
C33 H27 0.930 . S
C33 C34 1.392 . S
C33 C35 1.367 . S
C34 C33 1.392 . S
C34 C36 1.420 1_554 S
C34 C66 1.423 1_554 S
C35 H21 0.930 . S
C35 C32 1.413 . S
C35 C33 1.367 . S
C36 N31 1.368 1_556 S
C36 C34 1.420 1_556 S
C36 C40 1.429 . S
H37 C42 0.930 . S
N38 Eu0 2.609 . S
N38 C40 1.377 1_455 S
N38 C41 1.321 . S
C39 H25 0.930 . S
C39 C41 1.400 . S
C39 C42 1.386 1_455 S
C40 C36 1.429 . S
C40 N38 1.377 1_655 S
C40 C43 1.411 . S
C41 H23 0.930 . S
C41 N38 1.321 . S
C41 C39 1.400 . S
C42 H37 0.930 . S
C42 C39 1.386 1_655 S
C42 C43 1.395 . S
C43 C40 1.411 . S
C43 C42 1.395 . S
C43 C65 1.420 . S
O44 Eu0 2.558 . S
O44 C64 1.257 . S
O45 Eu0 2.612 1_554 S
O45 Eu11 2.380 1_455 S
O45 C56 1.276 1_554 S
O46 Eu11 2.432 . S
O46 C63 1.264 1_655 S
O47 Eu0 2.339 1_554 S
O47 C63 1.254 . S
O48 Eu0 2.563 . S
O48 C56 1.235 . S
O49 Eu0 2.419 1_554 S
O49 C64 1.249 1_554 S
O50 Eu11 2.558 . S
O50 C75 1.257 . S
O51 Eu0 2.378 1_654 S
O51 Eu11 2.615 . S
O51 C67 1.278 . S
O52 Eu0 2.432 . S
O52 C74 1.264 1_455 S
O53 Eu11 2.339 1_556 S
O53 C74 1.254 . S
O54 Eu11 2.563 . S
O54 C67 1.235 . S
O55 Eu11 2.419 1_556 S
O55 C75 1.249 1_556 S
C56 O45 1.276 1_556 S
C56 O48 1.235 . S
C57 C59 1.393 1_556 S
C57 C61 1.395 . S
C57 C64 1.492 . S
C58 C59 1.392 . S
C58 C60 1.386 1_554 S
C59 C57 1.393 1_554 S
C59 C58 1.392 . S
C59 H76 0.930 . S
C60 C58 1.386 1_556 S
C60 C62 1.395 . S
C60 H77 0.930 . S
C61 C57 1.395 . S
C61 C62 1.379 . S
C61 H78 0.930 . S
C62 C60 1.395 . S
C62 C61 1.379 . S
C62 H79 0.930 . S
C63 O46 1.264 1_455 S
C63 O47 1.254 . S
C64 Eu0 2.848 . S
C64 O44 1.257 . S
C64 O49 1.249 1_556 S
C64 C57 1.492 . S
C65 H30 0.931 . S
C65 C43 1.420 . S
C65 C66 1.351 . S
C66 H28 0.930 . S
C66 C34 1.423 1_556 S
C66 C65 1.351 . S
C67 O51 1.278 . S
C67 O54 1.235 . S
C68 C69 1.393 1_554 S
C68 C72 1.395 . S
C68 C75 1.492 . S
C69 C68 1.393 1_556 S
C69 C70 1.392 . S
C69 H80 0.930 . S
C70 C69 1.392 . S
C70 C71 1.386 1_556 S
C71 C70 1.386 1_554 S
C71 C73 1.395 . S
C71 H81 0.930 . S
C72 C68 1.395 . S
C72 C73 1.379 . S
C72 H82 0.930 . S
C73 C71 1.395 . S
C73 C72 1.379 . S
C73 H83 0.930 . S
C74 O52 1.264 1_655 S
C74 O53 1.254 . S
C75 Eu11 2.848 . S
C75 O50 1.257 . S
C75 O55 1.249 1_554 S
C75 C68 1.492 . S
H76 C59 0.930 . S
H77 C60 0.930 . S
H78 C61 0.930 . S
H79 C62 0.930 . S
H80 C69 0.930 . S
H81 C71 0.930 . S
H82 C72 0.930 . S
H83 C73 0.930 . S
Eu84 N115 2.657 1_556 S
Eu84 N122 2.609 . S
Eu84 O128 2.558 . S
Eu84 O129 2.612 1_556 S
Eu84 O131 2.339 1_556 S
Eu84 O132 2.563 . S
Eu84 O133 2.419 1_556 S
Eu84 O135 2.378 1_556 S
Eu84 O136 2.432 . S
Eu84 C148 2.848 . S
C85 C88 1.429 . S
C85 C89 1.411 . S
C85 N92 1.377 . S
C86 C88 1.420 1_556 S
C86 C90 1.423 1_556 S
C86 C98 1.392 . S
C87 C89 1.420 . S
C87 C90 1.351 . S
C87 H110 0.931 . S
C88 C85 1.429 . S
C88 C86 1.420 1_554 S
C88 N96 1.362 1_554 S
C89 C85 1.411 . S
C89 C87 1.420 . S
C89 C94 1.395 . S
C90 C86 1.423 1_554 S
C90 C87 1.351 . S
C90 H102 0.930 . S
C91 C93 1.400 . S
C91 C94 1.386 . S
C91 H103 0.930 . S
N92 C85 1.377 . S
N92 C93 1.321 . S
N92 Eu95 2.609 . S
C93 C91 1.400 . S
C93 N92 1.321 . S
C93 H100 0.930 . S
C94 C89 1.395 . S
C94 C91 1.386 . S
C94 H113 0.930 . S
Eu95 N92 2.609 . S
Eu95 N96 2.657 1_554 S
Eu95 O129 2.380 . S
Eu95 O130 2.432 . S
Eu95 O134 2.558 . S
Eu95 O135 2.615 . S
Eu95 O137 2.339 1_554 S
Eu95 O138 2.563 . S
Eu95 O139 2.419 1_554 S
Eu95 C159 2.848 . S
N96 C88 1.362 1_556 S
N96 Eu95 2.657 1_556 S
N96 C97 1.334 . S
C97 N96 1.334 . S
C97 C99 1.413 . S
C97 H104 0.929 . S
C98 C86 1.392 . S
C98 C99 1.367 . S
C98 H106 0.930 . S
C99 C97 1.413 . S
C99 C98 1.367 . S
C99 H101 0.930 . S
H100 C93 0.930 . S
H101 C99 0.930 . S
H102 C90 0.930 . S
H103 C91 0.930 . S
H104 C97 0.929 . S
H105 C119 0.930 . S
H106 C98 0.930 . S
H107 C125 0.930 . S
H108 C116 0.929 . S
H109 C123 0.930 . S
H110 C87 0.931 . S
H111 C117 0.930 . S
H112 C150 0.930 . S
H113 C94 0.930 . S
H114 C149 0.931 . S
N115 Eu84 2.657 1_554 S
N115 C116 1.334 . S
N115 C120 1.362 1_554 S
C116 H108 0.929 . S
C116 N115 1.334 . S
C116 C119 1.413 . S
C117 H111 0.930 . S
C117 C118 1.392 . S
C117 C119 1.367 . S
C118 C117 1.392 . S
C118 C120 1.420 1_554 S
C118 C150 1.423 1_554 S
C119 H105 0.930 . S
C119 C116 1.413 . S
C119 C117 1.367 . S
C120 N115 1.362 1_556 S
C120 C118 1.420 1_556 S
C120 C124 1.429 . S
H121 C126 0.930 . S
N122 Eu84 2.609 . S
N122 C124 1.377 . S
N122 C125 1.321 . S
C123 H109 0.930 . S
C123 C125 1.400 . S
C123 C126 1.386 . S
C124 C120 1.429 . S
C124 N122 1.377 . S
C124 C127 1.411 . S
C125 H107 0.930 . S
C125 N122 1.321 . S
C125 C123 1.400 . S
C126 H121 0.930 . S
C126 C123 1.386 . S
C126 C127 1.395 . S
C127 C124 1.411 . S
C127 C126 1.395 . S
C127 C149 1.420 . S
O128 Eu84 2.558 . S
O128 C148 1.257 . S
O129 Eu84 2.612 1_554 S
O129 Eu95 2.380 . S
O129 C140 1.276 1_554 S
O130 Eu95 2.432 . S
O130 C147 1.264 . S
O131 Eu84 2.339 1_554 S
O131 C147 1.254 . S
O132 Eu84 2.563 . S
O132 C140 1.235 . S
O133 Eu84 2.419 1_554 S
O133 C148 1.249 1_554 S
O134 Eu95 2.558 . S
O134 C159 1.257 . S
O135 Eu84 2.378 1_554 S
O135 Eu95 2.615 . S
O135 C151 1.278 . S
O136 Eu84 2.432 . S
O136 C158 1.264 . S
O137 Eu95 2.339 1_556 S
O137 C158 1.254 . S
O138 Eu95 2.563 . S
O138 C151 1.235 . S
O139 Eu95 2.419 1_556 S
O139 C159 1.249 1_556 S
C140 O129 1.276 1_556 S
C140 O132 1.235 . S
C141 C143 1.393 1_556 S
C141 C145 1.395 . S
C141 C148 1.492 . S
C142 C143 1.392 . S
C142 C144 1.386 1_554 S
C143 C141 1.393 1_554 S
C143 C142 1.392 . S
C143 H160 0.930 . S
C144 C142 1.386 1_556 S
C144 C146 1.395 . S
C144 H161 0.930 . S
C145 C141 1.395 . S
C145 C146 1.379 . S
C145 H162 0.930 . S
C146 C144 1.395 . S
C146 C145 1.379 . S
C146 H163 0.930 . S
C147 O130 1.264 . S
C147 O131 1.254 . S
C148 Eu84 2.848 . S
C148 O128 1.257 . S
C148 O133 1.249 1_556 S
C148 C141 1.492 . S
C149 H114 0.931 . S
C149 C127 1.420 . S
C149 C150 1.351 . S
C150 H112 0.930 . S
C150 C118 1.423 1_556 S
C150 C149 1.351 . S
C151 O135 1.278 . S
C151 O138 1.235 . S
C152 C153 1.393 1_554 S
C152 C156 1.395 . S
C152 C159 1.492 . S
C153 C152 1.393 1_556 S
C153 C154 1.392 . S
C153 H164 0.930 . S
C154 C153 1.392 . S
C154 C155 1.386 1_556 S
C155 C154 1.386 1_554 S
C155 C157 1.395 . S
C155 H165 0.930 . S
C156 C152 1.395 . S
C156 C157 1.379 . S
C156 H166 0.930 . S
C157 C155 1.395 . S
C157 C156 1.379 . S
C157 H167 0.930 . S
C158 O136 1.264 . S
C158 O137 1.254 . S
C159 Eu95 2.848 . S
C159 O134 1.257 . S
C159 O139 1.249 1_554 S
C159 C152 1.492 . S
H160 C143 0.930 . S
H161 C144 0.930 . S
H162 C145 0.930 . S
H163 C146 0.930 . S
H164 C153 0.930 . S
H165 C155 0.930 . S
H166 C156 0.930 . S
H167 C157 0.930 . S
Eu168 N199 2.657 1_566 S
Eu168 N206 2.609 . S
Eu168 O212 2.558 . S
Eu168 O213 2.612 1_556 S
Eu168 O215 2.339 1_556 S
Eu168 O216 2.563 . S
Eu168 O217 2.419 1_556 S
Eu168 O219 2.378 1_566 S
Eu168 O220 2.434 . S
Eu168 C232 2.848 . S
C169 C172 1.429 . S
C169 C173 1.411 . S
C169 N176 1.377 1_565 S
C170 C172 1.420 1_556 S
C170 C174 1.423 1_556 S
C170 C182 1.392 . S
C171 C173 1.420 . S
C171 C174 1.351 . S
C171 H194 0.931 . S
C172 C169 1.429 . S
C172 C170 1.420 1_554 S
C172 N180 1.364 1_564 S
C173 C169 1.411 . S
C173 C171 1.420 . S
C173 C178 1.395 . S
C174 C170 1.423 1_554 S
C174 C171 1.351 . S
C174 H186 0.930 . S
C175 C177 1.400 . S
C175 C178 1.386 1_545 S
C175 H187 0.930 . S
N176 C169 1.377 1_545 S
N176 C177 1.321 . S
N176 Eu179 2.609 . S
C177 C175 1.400 . S
C177 N176 1.321 . S
C177 H184 0.930 . S
C178 C173 1.395 . S
C178 C175 1.386 1_565 S
C178 H197 0.930 . S
Eu179 N176 2.609 . S
Eu179 N180 2.657 1_554 S
Eu179 O213 2.380 1_545 S
Eu179 O214 2.432 . S
Eu179 O218 2.558 . S
Eu179 O219 2.615 . S
Eu179 O221 2.339 1_554 S
Eu179 O222 2.563 . S
Eu179 O223 2.419 1_554 S
Eu179 C243 2.848 . S
N180 C172 1.364 1_546 S
N180 Eu179 2.657 1_556 S
N180 C181 1.332 1_545 S
C181 N180 1.332 1_565 S
C181 C183 1.413 . S
C181 H188 0.929 1_565 S
C182 C170 1.392 . S
C182 C183 1.367 . S
C182 H190 0.930 . S
C183 C181 1.413 . S
C183 C182 1.367 . S
C183 H185 0.930 . S
H184 C177 0.930 . S
H185 C183 0.930 . S
H186 C174 0.930 . S
H187 C175 0.930 . S
H188 C181 0.929 1_545 S
H189 C203 0.930 . S
H190 C182 0.930 . S
H191 C209 0.930 . S
H192 C200 0.929 . S
H193 C207 0.930 . S
H194 C171 0.931 . S
H195 C201 0.930 . S
H196 C234 0.930 . S
H197 C178 0.930 . S
H198 C233 0.931 . S
N199 Eu168 2.657 1_544 S
N199 C200 1.334 . S
N199 C204 1.362 1_554 S
C200 H192 0.929 . S
C200 N199 1.334 . S
C200 C203 1.413 . S
C201 H195 0.930 . S
C201 C202 1.392 . S
C201 C203 1.367 . S
C202 C201 1.392 . S
C202 C204 1.420 1_554 S
C202 C234 1.423 1_554 S
C203 H189 0.930 . S
C203 C200 1.413 . S
C203 C201 1.367 . S
C204 N199 1.362 1_556 S
C204 C202 1.420 1_556 S
C204 C208 1.429 . S
H205 C210 0.930 . S
N206 Eu168 2.609 . S
N206 C208 1.377 1_565 S
N206 C209 1.321 . S
C207 H193 0.930 . S
C207 C209 1.400 . S
C207 C210 1.386 1_565 S
C208 C204 1.429 . S
C208 N206 1.377 1_545 S
C208 C211 1.411 . S
C209 H191 0.930 . S
C209 N206 1.321 . S
C209 C207 1.400 . S
C210 H205 0.930 . S
C210 C207 1.386 1_545 S
C210 C211 1.395 . S
C211 C208 1.411 . S
C211 C210 1.395 . S
C211 C233 1.420 . S
O212 Eu168 2.558 . S
O212 C232 1.257 . S
O213 Eu168 2.612 1_554 S
O213 Eu179 2.380 1_565 S
O213 C224 1.276 1_554 S
O214 Eu179 2.432 . S
O214 C231 1.264 1_545 S
O215 Eu168 2.339 1_554 S
O215 C231 1.254 . S
O216 Eu168 2.563 . S
O216 C224 1.235 . S
O217 Eu168 2.419 1_554 S
O217 C232 1.249 1_554 S
O218 Eu179 2.558 . S
O218 C243 1.257 . S
O219 Eu168 2.378 1_544 S
O219 Eu179 2.615 . S
O219 C235 1.278 . S
O220 Eu168 2.434 . S
O220 C242 1.261 1_565 S
O221 Eu179 2.339 1_556 S
O221 C242 1.254 . S
O222 Eu179 2.563 . S
O222 C235 1.235 . S
O223 Eu179 2.419 1_556 S
O223 C243 1.249 1_556 S
C224 O213 1.276 1_556 S
C224 O216 1.235 . S
C225 C227 1.393 1_556 S
C225 C229 1.395 . S
C225 C232 1.492 . S
C226 C227 1.392 . S
C226 C228 1.386 1_554 S
C227 C225 1.393 1_554 S
C227 C226 1.392 . S
C227 H244 0.930 . S
C228 C226 1.386 1_556 S
C228 C230 1.395 . S
C228 H245 0.930 . S
C229 C225 1.395 . S
C229 C230 1.379 . S
C229 H246 0.930 . S
C230 C228 1.395 . S
C230 C229 1.379 . S
C230 H247 0.930 . S
C231 O214 1.264 1_565 S
C231 O215 1.254 . S
C232 Eu168 2.848 . S
C232 O212 1.257 . S
C232 O217 1.249 1_556 S
C232 C225 1.492 . S
C233 H198 0.931 . S
C233 C211 1.420 . S
C233 C234 1.351 . S
C234 H196 0.930 . S
C234 C202 1.423 1_556 S
C234 C233 1.351 . S
C235 O219 1.278 . S
C235 O222 1.235 . S
C236 C237 1.393 1_554 S
C236 C240 1.395 . S
C236 C243 1.492 . S
C237 C236 1.393 1_556 S
C237 C238 1.392 . S
C237 H248 0.930 . S
C238 C237 1.392 . S
C238 C239 1.386 1_556 S
C239 C238 1.386 1_554 S
C239 C241 1.395 . S
C239 H249 0.930 . S
C240 C236 1.395 . S
C240 C241 1.379 . S
C240 H250 0.930 . S
C241 C239 1.395 . S
C241 C240 1.379 . S
C241 H251 0.930 . S
C242 O220 1.261 1_545 S
C242 O221 1.254 . S
C243 Eu179 2.848 . S
C243 O218 1.257 . S
C243 O223 1.249 1_554 S
C243 C236 1.492 . S
H244 C227 0.930 . S
H245 C228 0.930 . S
H246 C229 0.930 . S
H247 C230 0.930 . S
H248 C237 0.930 . S
H249 C239 0.930 . S
H250 C240 0.930 . S
H251 C241 0.930 . S
Eu252 N283 2.657 . S
Eu252 N290 2.609 . S
Eu252 O296 2.558 . S
Eu252 O297 2.612 . S
Eu252 O299 2.339 . S
Eu252 O300 2.563 . S
Eu252 O301 2.419 . S
Eu252 O303 2.380 . S
Eu252 O304 2.432 . S
Eu252 C316 2.848 . S
C253 C256 1.429 . S
C253 C257 1.411 . S
C253 N260 1.377 . S
C254 C256 1.420 . S
C254 C258 1.423 . S
C254 C266 1.392 . S
C255 C257 1.420 . S
C255 C258 1.351 . S
C255 H278 0.931 . S
C256 C253 1.429 . S
C256 C254 1.420 . S
C256 N264 1.362 . S
C257 C253 1.411 . S
C257 C255 1.420 . S
C257 C262 1.395 . S
C258 C254 1.423 . S
C258 C255 1.351 . S
C258 H270 0.930 . S
C259 C261 1.400 . S
C259 C262 1.386 . S
C259 H271 0.930 . S
N260 C253 1.377 . S
N260 C261 1.321 . S
N260 Eu263 2.609 . S
C261 C259 1.400 . S
C261 N260 1.321 . S
C261 H268 0.930 . S
C262 C257 1.395 . S
C262 C259 1.386 . S
C262 H281 0.930 . S
Eu263 N260 2.609 . S
Eu263 N264 2.657 . S
Eu263 O297 2.380 . S
Eu263 O298 2.432 . S
Eu263 O302 2.558 . S
Eu263 O303 2.612 . S
Eu263 O305 2.339 . S
Eu263 O306 2.563 . S
Eu263 O307 2.419 . S
Eu263 C327 2.848 . S
N264 C256 1.362 . S
N264 Eu263 2.657 . S
N264 C265 1.334 . S
C265 N264 1.334 . S
C265 C267 1.413 . S
C265 H272 0.929 . S
C266 C254 1.392 . S
C266 C267 1.367 . S
C266 H274 0.930 . S
C267 C265 1.413 . S
C267 C266 1.367 . S
C267 H269 0.930 . S
H268 C261 0.930 . S
H269 C267 0.930 . S
H270 C258 0.930 . S
H271 C259 0.930 . S
H272 C265 0.929 . S
H273 C287 0.930 . S
H274 C266 0.930 . S
H275 C293 0.930 . S
H276 C284 0.929 . S
H277 C291 0.930 . S
H278 C255 0.931 . S
H279 C285 0.930 . S
H280 C318 0.930 1_545 S
H281 C262 0.930 . S
H282 C317 0.931 . S
N283 Eu252 2.657 . S
N283 C284 1.334 . S
N283 C288 1.362 . S
C284 H276 0.929 . S
C284 N283 1.334 . S
C284 C287 1.413 . S
C285 H279 0.930 . S
C285 C286 1.392 . S
C285 C287 1.367 . S
C286 C285 1.392 . S
C286 C288 1.420 . S
C286 C318 1.423 . S
C287 H273 0.930 . S
C287 C284 1.413 . S
C287 C285 1.367 . S
C288 N283 1.362 . S
C288 C286 1.420 . S
C288 C292 1.429 . S
H289 C294 0.930 1_545 S
N290 Eu252 2.609 . S
N290 C292 1.377 . S
N290 C293 1.321 . S
C291 H277 0.930 . S
C291 C293 1.400 . S
C291 C294 1.386 . S
C292 C288 1.429 . S
C292 N290 1.377 . S
C292 C295 1.411 . S
C293 H275 0.930 . S
C293 N290 1.321 . S
C293 C291 1.400 . S
C294 H289 0.930 1_565 S
C294 C291 1.386 . S
C294 C295 1.395 . S
C295 C292 1.411 . S
C295 C294 1.395 . S
C295 C317 1.420 1_565 S
O296 Eu252 2.558 . S
O296 C316 1.257 . S
O297 Eu252 2.612 . S
O297 Eu263 2.380 . S
O297 C308 1.276 . S
O298 Eu263 2.432 . S
O298 C315 1.264 . S
O299 Eu252 2.339 . S
O299 C315 1.254 . S
O300 Eu252 2.563 . S
O300 C308 1.235 . S
O301 Eu252 2.419 . S
O301 C316 1.249 . S
O302 Eu263 2.558 . S
O302 C327 1.257 . S
O303 Eu252 2.380 . S
O303 Eu263 2.612 . S
O303 C319 1.276 . S
O304 Eu252 2.432 . S
O304 C326 1.264 . S
O305 Eu263 2.339 . S
O305 C326 1.254 . S
O306 Eu263 2.563 . S
O306 C319 1.235 . S
O307 Eu263 2.419 . S
O307 C327 1.249 . S
C308 O297 1.276 . S
C308 O300 1.235 . S
C309 C311 1.393 . S
C309 C313 1.395 . S
C309 C316 1.492 1_545 S
C310 C311 1.392 . S
C310 C312 1.386 . S
C311 C309 1.393 . S
C311 C310 1.392 . S
C311 H328 0.930 . S
C312 C310 1.386 . S
C312 C314 1.395 . S
C312 H329 0.930 . S
C313 C309 1.395 . S
C313 C314 1.379 . S
C313 H330 0.930 . S
C314 C312 1.395 . S
C314 C313 1.379 . S
C314 H331 0.930 . S
C315 O298 1.264 . S
C315 O299 1.254 . S
C316 Eu252 2.848 . S
C316 O296 1.257 . S
C316 O301 1.249 . S
C316 C309 1.492 1_565 S
C317 H282 0.931 . S
C317 C295 1.420 1_545 S
C317 C318 1.351 1_545 S
C318 H280 0.930 1_565 S
C318 C286 1.423 . S
C318 C317 1.351 1_565 S
C319 O303 1.276 . S
C319 O306 1.235 . S
C320 C321 1.393 . S
C320 C324 1.395 . S
C320 C327 1.492 . S
C321 C320 1.393 . S
C321 C322 1.392 . S
C321 H332 0.930 . S
C322 C321 1.392 . S
C322 C323 1.386 . S
C323 C322 1.386 . S
C323 C325 1.395 . S
C323 H333 0.930 . S
C324 C320 1.395 . S
C324 C325 1.379 . S
C324 H334 0.930 . S
C325 C323 1.395 . S
C325 C324 1.379 . S
C325 H335 0.930 . S
C326 O304 1.264 . S
C326 O305 1.254 . S
C327 Eu263 2.848 . S
C327 O302 1.257 . S
C327 O307 1.249 . S
C327 C320 1.492 . S
H328 C311 0.930 . S
H329 C312 0.930 . S
H330 C313 0.930 . S
H331 C314 0.930 . S
H332 C321 0.930 . S
H333 C323 0.930 . S
H334 C324 0.930 . S
H335 C325 0.930 . S
Eu336 N367 2.657 . S
Eu336 N374 2.609 . S
Eu336 O380 2.558 . S
Eu336 O381 2.612 . S
Eu336 O383 2.339 . S
Eu336 O384 2.563 . S
Eu336 O385 2.419 . S
Eu336 O387 2.380 . S
Eu336 O388 2.432 . S
Eu336 C400 2.848 . S
C337 C340 1.429 . S
C337 C341 1.411 . S
C337 N344 1.377 1_545 S
C338 C340 1.420 . S
C338 C342 1.423 . S
C338 C350 1.392 . S
C339 C341 1.420 . S
C339 C342 1.351 . S
C339 H362 0.931 . S
C340 C337 1.429 . S
C340 C338 1.420 . S
C340 N348 1.362 1_545 S
C341 C337 1.411 . S
C341 C339 1.420 . S
C341 C346 1.395 . S
C342 C338 1.423 . S
C342 C339 1.351 . S
C342 H354 0.930 . S
C343 C345 1.400 1_545 S
C343 C346 1.386 . S
C343 H355 0.930 . S
N344 C337 1.377 1_565 S
N344 C345 1.321 . S
N344 Eu347 2.609 . S
C345 C343 1.400 1_565 S
C345 N344 1.321 . S
C345 H352 0.930 . S
C346 C341 1.395 . S
C346 C343 1.386 . S
C346 H365 0.930 . S
Eu347 N344 2.609 . S
Eu347 N348 2.657 . S
Eu347 O381 2.380 . S
Eu347 O382 2.432 . S
Eu347 O386 2.558 . S
Eu347 O387 2.612 . S
Eu347 O389 2.339 . S
Eu347 O390 2.563 . S
Eu347 O391 2.419 . S
Eu347 C411 2.848 . S
N348 C340 1.362 1_565 S
N348 Eu347 2.657 . S
N348 C349 1.334 . S
C349 N348 1.334 . S
C349 C351 1.413 1_565 S
C349 H356 0.929 . S
C350 C338 1.392 . S
C350 C351 1.367 . S
C350 H358 0.930 . S
C351 C349 1.413 1_545 S
C351 C350 1.367 . S
C351 H353 0.930 . S
H352 C345 0.930 . S
H353 C351 0.930 . S
H354 C342 0.930 . S
H355 C343 0.930 . S
H356 C349 0.929 . S
H357 C371 0.930 . S
H358 C350 0.930 . S
H359 C377 0.930 . S
H360 C368 0.929 . S
H361 C375 0.930 . S
H362 C339 0.931 . S
H363 C369 0.930 . S
H364 C402 0.930 1_655 S
H365 C346 0.930 . S
H366 C401 0.931 1_655 S
N367 Eu336 2.657 . S
N367 C368 1.334 . S
N367 C372 1.362 . S
C368 H360 0.929 . S
C368 N367 1.334 . S
C368 C371 1.413 . S
C369 H363 0.930 . S
C369 C370 1.392 . S
C369 C371 1.367 . S
C370 C369 1.392 . S
C370 C372 1.420 . S
C370 C402 1.423 . S
C371 H357 0.930 . S
C371 C368 1.413 . S
C371 C369 1.367 . S
C372 N367 1.362 . S
C372 C370 1.420 . S
C372 C376 1.429 . S
H373 C378 0.930 . S
N374 Eu336 2.609 . S
N374 C376 1.377 . S
N374 C377 1.321 . S
C375 H361 0.930 . S
C375 C377 1.400 . S
C375 C378 1.386 . S
C376 C372 1.429 . S
C376 N374 1.377 . S
C376 C379 1.411 . S
C377 H359 0.930 . S
C377 N374 1.321 . S
C377 C375 1.400 . S
C378 H373 0.930 . S
C378 C375 1.386 . S
C378 C379 1.395 . S
C379 C376 1.411 . S
C379 C378 1.395 . S
C379 C401 1.420 . S
O380 Eu336 2.558 . S
O380 C400 1.257 . S
O381 Eu336 2.612 . S
O381 Eu347 2.380 . S
O381 C392 1.276 . S
O382 Eu347 2.432 . S
O382 C399 1.264 . S
O383 Eu336 2.339 . S
O383 C399 1.254 . S
O384 Eu336 2.563 . S
O384 C392 1.235 . S
O385 Eu336 2.419 . S
O385 C400 1.249 . S
O386 Eu347 2.558 . S
O386 C411 1.257 . S
O387 Eu336 2.380 . S
O387 Eu347 2.612 . S
O387 C403 1.276 . S
O388 Eu336 2.432 . S
O388 C410 1.264 . S
O389 Eu347 2.339 . S
O389 C410 1.254 . S
O390 Eu347 2.563 . S
O390 C403 1.235 . S
O391 Eu347 2.419 . S
O391 C411 1.249 . S
C392 O381 1.276 . S
C392 O384 1.235 . S
C393 C395 1.393 . S
C393 C397 1.395 . S
C393 C400 1.492 1_655 S
C394 C395 1.392 . S
C394 C396 1.386 . S
C395 C393 1.393 . S
C395 C394 1.392 . S
C395 H412 0.930 1_655 S
C396 C394 1.386 . S
C396 C398 1.395 . S
C396 H413 0.930 . S
C397 C393 1.395 . S
C397 C398 1.379 . S
C397 H414 0.930 . S
C398 C396 1.395 . S
C398 C397 1.379 . S
C398 H415 0.930 . S
C399 O382 1.264 . S
C399 O383 1.254 . S
C400 Eu336 2.848 . S
C400 O380 1.257 . S
C400 O385 1.249 . S
C400 C393 1.492 1_455 S
C401 H366 0.931 1_455 S
C401 C379 1.420 . S
C401 C402 1.351 . S
C402 H364 0.930 1_455 S
C402 C370 1.423 . S
C402 C401 1.351 . S
C403 O387 1.276 . S
C403 O390 1.235 . S
C404 C405 1.393 . S
C404 C408 1.395 . S
C404 C411 1.492 . S
C405 C404 1.393 . S
C405 C406 1.392 . S
C405 H416 0.930 . S
C406 C405 1.392 . S
C406 C407 1.386 . S
C407 C406 1.386 . S
C407 C409 1.395 . S
C407 H417 0.930 . S
C408 C404 1.395 . S
C408 C409 1.379 . S
C408 H418 0.930 . S
C409 C407 1.395 . S
C409 C408 1.379 . S
C409 H419 0.930 . S
C410 O388 1.264 . S
C410 O389 1.254 . S
C411 Eu347 2.848 . S
C411 O386 1.257 . S
C411 O391 1.249 . S
C411 C404 1.492 . S
H412 C395 0.930 1_455 S
H413 C396 0.930 . S
H414 C397 0.930 . S
H415 C398 0.930 . S
H416 C405 0.930 . S
H417 C407 0.930 . S
H418 C408 0.930 . S
H419 C409 0.930 . S
Eu420 N451 2.657 . S
Eu420 N458 2.609 . S
Eu420 O464 2.558 . S
Eu420 O465 2.612 . S
Eu420 O467 2.339 . S
Eu420 O468 2.563 . S
Eu420 O469 2.419 . S
Eu420 O471 2.380 . S
Eu420 O472 2.432 . S
Eu420 C484 2.848 . S
C421 C424 1.429 . S
C421 C425 1.411 . S
C421 N428 1.377 1_655 S
C422 C424 1.420 . S
C422 C426 1.423 . S
C422 C434 1.392 . S
C423 C425 1.420 . S
C423 C426 1.351 . S
C423 H446 0.931 . S
C424 C421 1.429 . S
C424 C422 1.420 . S
C424 N432 1.362 1_655 S
C425 C421 1.411 . S
C425 C423 1.420 . S
C425 C430 1.395 . S
C426 C422 1.423 . S
C426 C423 1.351 . S
C426 H438 0.930 . S
C427 C429 1.378 1_655 S
C427 C430 1.410 . S
C427 H439 0.928 1_655 S
N428 C421 1.377 1_455 S
N428 C429 1.321 . S
N428 Eu431 2.609 . S
C429 C427 1.378 1_455 S
C429 N428 1.321 . S
C429 H436 0.930 . S
C430 C425 1.395 . S
C430 C427 1.410 . S
C430 H449 0.930 . S
Eu431 N428 2.609 . S
Eu431 N432 2.657 . S
Eu431 O465 2.380 . S
Eu431 O466 2.432 . S
Eu431 O470 2.558 . S
Eu431 O471 2.612 . S
Eu431 O473 2.339 . S
Eu431 O474 2.563 . S
Eu431 O475 2.419 . S
Eu431 C495 2.848 . S
N432 C424 1.362 1_455 S
N432 Eu431 2.657 . S
N432 C433 1.334 . S
C433 N432 1.334 . S
C433 C435 1.413 1_455 S
C433 H440 0.929 . S
C434 C422 1.392 . S
C434 C435 1.367 . S
C434 H442 0.930 . S
C435 C433 1.413 1_655 S
C435 C434 1.367 . S
C435 H437 0.930 . S
H436 C429 0.930 . S
H437 C435 0.930 . S
H438 C426 0.930 . S
H439 C427 0.928 1_455 S
H440 C433 0.929 . S
H441 C455 0.930 . S
H442 C434 0.930 . S
H443 C461 0.930 . S
H444 C452 0.929 . S
H445 C459 0.930 . S
H446 C423 0.931 . S
H447 C453 0.930 . S
H448 C486 0.930 . S
H449 C430 0.930 . S
H450 C485 0.931 . S
N451 Eu420 2.657 . S
N451 C452 1.334 . S
N451 C456 1.362 . S
C452 H444 0.929 . S
C452 N451 1.334 . S
C452 C455 1.413 . S
C453 H447 0.930 . S
C453 C454 1.392 . S
C453 C455 1.367 . S
C454 C453 1.392 . S
C454 C456 1.420 . S
C454 C486 1.423 . S
C455 H441 0.930 . S
C455 C452 1.413 . S
C455 C453 1.367 . S
C456 N451 1.362 . S
C456 C454 1.420 . S
C456 C460 1.429 . S
H457 C462 0.930 . S
N458 Eu420 2.609 . S
N458 C460 1.377 . S
N458 C461 1.321 . S
C459 H445 0.930 . S
C459 C461 1.400 . S
C459 C462 1.386 . S
C460 C456 1.429 . S
C460 N458 1.377 . S
C460 C463 1.411 . S
C461 H443 0.930 . S
C461 N458 1.321 . S
C461 C459 1.400 . S
C462 H457 0.930 . S
C462 C459 1.386 . S
C462 C463 1.395 . S
C463 C460 1.411 . S
C463 C462 1.395 . S
C463 C485 1.420 . S
O464 Eu420 2.558 . S
O464 C484 1.257 . S
O465 Eu420 2.612 . S
O465 Eu431 2.380 . S
O465 C476 1.276 . S
O466 Eu431 2.432 . S
O466 C483 1.264 . S
O467 Eu420 2.339 . S
O467 C483 1.254 . S
O468 Eu420 2.563 . S
O468 C476 1.235 . S
O469 Eu420 2.419 . S
O469 C484 1.249 . S
O470 Eu431 2.558 . S
O470 C495 1.257 . S
O471 Eu420 2.380 . S
O471 Eu431 2.612 . S
O471 C487 1.276 . S
O472 Eu420 2.432 . S
O472 C494 1.264 . S
O473 Eu431 2.339 . S
O473 C494 1.254 . S
O474 Eu431 2.563 . S
O474 C487 1.235 . S
O475 Eu431 2.419 . S
O475 C495 1.249 . S
C476 O465 1.276 . S
C476 O468 1.235 . S
C477 C479 1.393 . S
C477 C481 1.395 . S
C477 C484 1.492 . S
C478 C479 1.392 . S
C478 C480 1.386 . S
C479 C477 1.393 . S
C479 C478 1.392 . S
C479 H496 0.930 . S
C480 C478 1.386 . S
C480 C482 1.395 . S
C480 H497 0.930 . S
C481 C477 1.395 . S
C481 C482 1.379 . S
C481 H498 0.930 . S
C482 C480 1.395 . S
C482 C481 1.379 . S
C482 H499 0.930 . S
C483 O466 1.264 . S
C483 O467 1.254 . S
C484 Eu420 2.848 . S
C484 O464 1.257 . S
C484 O469 1.249 . S
C484 C477 1.492 . S
C485 H450 0.931 . S
C485 C463 1.420 . S
C485 C486 1.351 . S
C486 H448 0.930 . S
C486 C454 1.423 . S
C486 C485 1.351 . S
C487 O471 1.276 . S
C487 O474 1.235 . S
C488 C489 1.393 . S
C488 C492 1.395 . S
C488 C495 1.492 . S
C489 C488 1.393 . S
C489 C490 1.392 . S
C489 H500 0.930 . S
C490 C489 1.392 . S
C490 C491 1.386 . S
C491 C490 1.386 . S
C491 C493 1.395 . S
C491 H501 0.930 . S
C492 C488 1.395 . S
C492 C493 1.379 . S
C492 H502 0.930 . S
C493 C491 1.395 . S
C493 C492 1.379 . S
C493 H503 0.930 . S
C494 O472 1.264 . S
C494 O473 1.254 . S
C495 Eu431 2.848 . S
C495 O470 1.257 . S
C495 O475 1.249 . S
C495 C488 1.492 . S
H496 C479 0.930 . S
H497 C480 0.930 . S
H498 C481 0.930 . S
H499 C482 0.930 . S
H500 C489 0.930 . S
H501 C491 0.930 . S
H502 C492 0.930 . S
H503 C493 0.930 . S
Eu504 N535 2.657 . S
Eu504 N542 2.609 . S
Eu504 O548 2.558 . S
Eu504 O549 2.612 . S
Eu504 O551 2.339 . S
Eu504 O552 2.563 . S
Eu504 O553 2.419 . S
Eu504 O555 2.380 . S
Eu504 O556 2.432 . S
Eu504 C568 2.848 . S
C505 C508 1.429 . S
C505 C509 1.411 . S
C505 N512 1.377 1_565 S
C506 C508 1.420 . S
C506 C510 1.423 . S
C506 C518 1.392 . S
C507 C509 1.420 . S
C507 C510 1.351 . S
C507 H530 0.931 . S
C508 C505 1.429 . S
C508 C506 1.420 . S
C508 N516 1.362 1_565 S
C509 C505 1.411 . S
C509 C507 1.420 . S
C509 C514 1.395 . S
C510 C506 1.423 . S
C510 C507 1.351 . S
C510 H522 0.930 . S
C511 C513 1.400 1_565 S
C511 C514 1.386 . S
C511 H523 0.930 . S
N512 C505 1.377 1_545 S
N512 C513 1.321 . S
N512 Eu515 2.609 . S
C513 C511 1.400 1_545 S
C513 N512 1.321 . S
C513 H520 0.930 . S
C514 C509 1.395 . S
C514 C511 1.386 . S
C514 H533 0.930 . S
Eu515 N512 2.609 . S
Eu515 N516 2.657 . S
Eu515 O549 2.380 . S
Eu515 O550 2.432 . S
Eu515 O554 2.558 1_545 S
Eu515 O555 2.612 . S
Eu515 O557 2.339 . S
Eu515 O558 2.563 . S
Eu515 O559 2.419 1_545 S
Eu515 C579 2.848 1_545 S
N516 C508 1.362 1_545 S
N516 Eu515 2.657 . S
N516 C517 1.334 . S
C517 N516 1.334 . S
C517 C519 1.413 . S
C517 H524 0.929 . S
C518 C506 1.392 . S
C518 C519 1.367 1_565 S
C518 H526 0.930 . S
C519 C517 1.413 . S
C519 C518 1.367 1_545 S
C519 H521 0.930 . S
H520 C513 0.930 . S
H521 C519 0.930 . S
H522 C510 0.930 . S
H523 C511 0.930 . S
H524 C517 0.929 . S
H525 C539 0.930 . S
H526 C518 0.930 . S
H527 C545 0.930 . S
H528 C536 0.929 . S
H529 C543 0.930 . S
H530 C507 0.931 . S
H531 C537 0.930 . S
H532 C570 0.930 . S
H533 C514 0.930 . S
H534 C569 0.931 . S
N535 Eu504 2.657 . S
N535 C536 1.334 . S
N535 C540 1.362 . S
C536 H528 0.929 . S
C536 N535 1.334 . S
C536 C539 1.413 . S
C537 H531 0.930 . S
C537 C538 1.392 . S
C537 C539 1.367 . S
C538 C537 1.392 . S
C538 C540 1.420 . S
C538 C570 1.423 . S
C539 H525 0.930 . S
C539 C536 1.413 . S
C539 C537 1.367 . S
C540 N535 1.362 . S
C540 C538 1.420 . S
C540 C544 1.429 . S
H541 C546 0.930 . S
N542 Eu504 2.609 . S
N542 C544 1.377 . S
N542 C545 1.321 . S
C543 H529 0.930 . S
C543 C545 1.400 . S
C543 C546 1.386 . S
C544 C540 1.429 . S
C544 N542 1.377 . S
C544 C547 1.411 . S
C545 H527 0.930 . S
C545 N542 1.321 . S
C545 C543 1.400 . S
C546 H541 0.930 . S
C546 C543 1.386 . S
C546 C547 1.395 . S
C547 C544 1.411 . S
C547 C546 1.395 . S
C547 C569 1.420 . S
O548 Eu504 2.558 . S
O548 C568 1.257 . S
O549 Eu504 2.612 . S
O549 Eu515 2.380 . S
O549 C560 1.276 . S
O550 Eu515 2.432 . S
O550 C567 1.264 . S
O551 Eu504 2.339 . S
O551 C567 1.254 . S
O552 Eu504 2.563 . S
O552 C560 1.235 . S
O553 Eu504 2.419 . S
O553 C568 1.249 . S
O554 Eu515 2.558 1_565 S
O554 C579 1.257 . S
O555 Eu504 2.380 . S
O555 Eu515 2.612 . S
O555 C571 1.276 . S
O556 Eu504 2.432 . S
O556 C578 1.264 . S
O557 Eu515 2.339 . S
O557 C578 1.254 . S
O558 Eu515 2.563 . S
O558 C571 1.235 . S
O559 Eu515 2.419 1_565 S
O559 C579 1.249 . S
C560 O549 1.276 . S
C560 O552 1.235 . S
C561 C563 1.393 . S
C561 C565 1.395 . S
C561 C568 1.492 . S
C562 C563 1.392 . S
C562 C564 1.386 . S
C563 C561 1.393 . S
C563 C562 1.392 . S
C563 H580 0.930 . S
C564 C562 1.386 . S
C564 C566 1.395 . S
C564 H581 0.930 . S
C565 C561 1.395 . S
C565 C566 1.379 . S
C565 H582 0.930 . S
C566 C564 1.395 . S
C566 C565 1.379 . S
C566 H583 0.930 . S
C567 O550 1.264 . S
C567 O551 1.254 . S
C568 Eu504 2.848 . S
C568 O548 1.257 . S
C568 O553 1.249 . S
C568 C561 1.492 . S
C569 H534 0.931 . S
C569 C547 1.420 . S
C569 C570 1.351 . S
C570 H532 0.930 . S
C570 C538 1.423 . S
C570 C569 1.351 . S
C571 O555 1.276 . S
C571 O558 1.235 . S
C572 C573 1.393 . S
C572 C576 1.395 . S
C572 C579 1.492 . S
C573 C572 1.393 . S
C573 C574 1.392 . S
C573 H584 0.930 . S
C574 C573 1.392 . S
C574 C575 1.386 . S
C575 C574 1.386 . S
C575 C577 1.395 . S
C575 H585 0.930 . S
C576 C572 1.395 . S
C576 C577 1.379 . S
C576 H586 0.930 . S
C577 C575 1.395 . S
C577 C576 1.379 . S
C577 H587 0.930 . S
C578 O556 1.264 . S
C578 O557 1.254 . S
C579 Eu515 2.848 1_565 S
C579 O554 1.257 . S
C579 O559 1.249 . S
C579 C572 1.492 . S
H580 C563 0.930 . S
H581 C564 0.930 . S
H582 C565 0.930 . S
H583 C566 0.930 . S
H584 C573 0.930 . S
H585 C575 0.930 . S
H586 C576 0.930 . S
H587 C577 0.930 . S
Eu588 N619 2.657 . S
Eu588 N626 2.609 . S
Eu588 O632 2.558 . S
Eu588 O633 2.612 . S
Eu588 O635 2.339 . S
Eu588 O636 2.563 . S
Eu588 O637 2.419 . S
Eu588 O639 2.380 . S
Eu588 O640 2.432 . S
Eu588 C652 2.848 . S
C589 C592 1.429 . S
C589 C593 1.411 . S
C589 N596 1.377 1_455 S
C590 C592 1.420 . S
C590 C594 1.423 . S
C590 C602 1.392 . S
C591 C593 1.420 . S
C591 C594 1.351 . S
C591 H614 0.931 . S
C592 C589 1.429 . S
C592 C590 1.420 . S
C592 N600 1.362 1_455 S
C593 C589 1.411 . S
C593 C591 1.420 . S
C593 C598 1.395 . S
C594 C590 1.423 . S
C594 C591 1.351 . S
C594 H606 0.930 . S
C595 C597 1.400 1_455 S
C595 C598 1.386 . S
C595 H607 0.930 . S
N596 C589 1.377 1_655 S
N596 C597 1.321 . S
N596 Eu599 2.609 . S
C597 C595 1.400 1_655 S
C597 N596 1.321 . S
C597 H604 0.930 . S
C598 C593 1.395 . S
C598 C595 1.386 . S
C598 H617 0.930 . S
Eu599 N596 2.609 . S
Eu599 N600 2.657 . S
Eu599 O633 2.380 . S
Eu599 O634 2.432 . S
Eu599 O638 2.558 1_655 S
Eu599 O639 2.612 . S
Eu599 O641 2.339 . S
Eu599 O642 2.563 . S
Eu599 O643 2.419 1_655 S
Eu599 C663 2.848 1_655 S
N600 C592 1.362 1_655 S
N600 Eu599 2.657 . S
N600 C601 1.334 . S
C601 N600 1.334 . S
C601 C603 1.413 1_655 S
C601 H608 0.929 . S
C602 C590 1.392 . S
C602 C603 1.367 . S
C602 H610 0.930 . S
C603 C601 1.413 1_455 S
C603 C602 1.367 . S
C603 H605 0.930 . S
H604 C597 0.930 . S
H605 C603 0.930 . S
H606 C594 0.930 . S
H607 C595 0.930 . S
H608 C601 0.929 . S
H609 C623 0.930 . S
H610 C602 0.930 . S
H611 C629 0.930 . S
H612 C620 0.929 . S
H613 C627 0.930 . S
H614 C591 0.931 . S
H615 C621 0.930 . S
H616 C654 0.930 . S
H617 C598 0.930 . S
H618 C653 0.931 . S
N619 Eu588 2.657 . S
N619 C620 1.334 . S
N619 C624 1.362 . S
C620 H612 0.929 . S
C620 N619 1.334 . S
C620 C623 1.413 . S
C621 H615 0.930 . S
C621 C622 1.392 . S
C621 C623 1.367 1_565 S
C622 C621 1.392 . S
C622 C624 1.420 1_565 S
C622 C654 1.423 . S
C623 H609 0.930 . S
C623 C620 1.413 . S
C623 C621 1.367 1_545 S
C624 N619 1.362 . S
C624 C622 1.420 1_545 S
C624 C628 1.429 . S
H625 C630 0.930 1_565 S
N626 Eu588 2.609 . S
N626 C628 1.377 . S
N626 C629 1.321 . S
C627 H613 0.930 . S
C627 C629 1.400 . S
C627 C630 1.386 . S
C628 C624 1.429 . S
C628 N626 1.377 . S
C628 C631 1.411 . S
C629 H611 0.930 . S
C629 N626 1.321 . S
C629 C627 1.400 . S
C630 H625 0.930 1_545 S
C630 C627 1.386 . S
C630 C631 1.395 . S
C631 C628 1.411 . S
C631 C630 1.395 . S
C631 C653 1.420 1_545 S
O632 Eu588 2.558 . S
O632 C652 1.257 . S
O633 Eu588 2.612 . S
O633 Eu599 2.380 . S
O633 C644 1.276 . S
O634 Eu599 2.432 . S
O634 C651 1.264 . S
O635 Eu588 2.339 . S
O635 C651 1.254 . S
O636 Eu588 2.563 . S
O636 C644 1.235 . S
O637 Eu588 2.419 . S
O637 C652 1.249 . S
O638 Eu599 2.558 1_455 S
O638 C663 1.257 . S
O639 Eu588 2.380 . S
O639 Eu599 2.612 . S
O639 C655 1.276 . S
O640 Eu588 2.432 . S
O640 C662 1.264 . S
O641 Eu599 2.339 . S
O641 C662 1.254 . S
O642 Eu599 2.563 . S
O642 C655 1.235 . S
O643 Eu599 2.419 1_455 S
O643 C663 1.249 . S
C644 O633 1.276 . S
C644 O636 1.235 . S
C645 C647 1.393 . S
C645 C649 1.395 . S
C645 C652 1.492 . S
C646 C647 1.392 . S
C646 C648 1.386 . S
C647 C645 1.393 . S
C647 C646 1.392 . S
C647 H664 0.930 . S
C648 C646 1.386 . S
C648 C650 1.395 . S
C648 H665 0.930 . S
C649 C645 1.395 . S
C649 C650 1.379 . S
C649 H666 0.930 . S
C650 C648 1.395 . S
C650 C649 1.379 . S
C650 H667 0.930 . S
C651 O634 1.264 . S
C651 O635 1.254 . S
C652 Eu588 2.848 . S
C652 O632 1.257 . S
C652 O637 1.249 . S
C652 C645 1.492 . S
C653 H618 0.931 . S
C653 C631 1.420 1_565 S
C653 C654 1.351 . S
C654 H616 0.930 . S
C654 C622 1.423 . S
C654 C653 1.351 . S
C655 O639 1.276 . S
C655 O642 1.235 . S
C656 C657 1.393 . S
C656 C660 1.395 . S
C656 C663 1.492 . S
C657 C656 1.393 . S
C657 C658 1.392 . S
C657 H668 0.930 . S
C658 C657 1.392 . S
C658 C659 1.386 . S
C659 C658 1.386 . S
C659 C661 1.395 . S
C659 H669 0.930 . S
C660 C656 1.395 . S
C660 C661 1.379 . S
C660 H670 0.930 . S
C661 C659 1.395 . S
C661 C660 1.379 . S
C661 H671 0.930 . S
C662 O640 1.264 . S
C662 O641 1.254 . S
C663 Eu599 2.848 1_455 S
C663 O638 1.257 . S
C663 O643 1.249 . S
C663 C656 1.492 . S
H664 C647 0.930 . S
H665 C648 0.930 . S
H666 C649 0.930 . S
H667 C650 0.930 . S
H668 C657 0.930 . S
H669 C659 0.930 . S
H670 C660 0.930 . S
H671 C661 0.930 . S
Eu672 N703 2.657 . S
Eu672 N710 2.609 . S
Eu672 O716 2.558 . S
Eu672 O717 2.612 . S
Eu672 O719 2.339 . S
Eu672 O720 2.563 . S
Eu672 O721 2.419 . S
Eu672 O723 2.380 . S
Eu672 O724 2.432 . S
Eu672 C736 2.848 . S
C673 C676 1.429 . S
C673 C677 1.411 . S
C673 N680 1.377 . S
C674 C676 1.420 . S
C674 C678 1.423 . S
C674 C686 1.392 . S
C675 C677 1.420 . S
C675 C678 1.351 . S
C675 H698 0.931 . S
C676 C673 1.429 . S
C676 C674 1.420 . S
C676 N684 1.362 . S
C677 C673 1.411 . S
C677 C675 1.420 . S
C677 C682 1.395 . S
C678 C674 1.423 . S
C678 C675 1.351 . S
C678 H690 0.930 . S
C679 C681 1.400 . S
C679 C682 1.386 . S
C679 H691 0.930 . S
N680 C673 1.377 . S
N680 C681 1.321 . S
N680 Eu683 2.609 . S
C681 C679 1.400 . S
C681 N680 1.321 . S
C681 H688 0.930 . S
C682 C677 1.395 . S
C682 C679 1.386 . S
C682 H701 0.930 . S
Eu683 N680 2.609 . S
Eu683 N684 2.657 . S
Eu683 O717 2.380 . S
Eu683 O718 2.432 . S
Eu683 O722 2.558 . S
Eu683 O723 2.612 . S
Eu683 O725 2.339 . S
Eu683 O726 2.563 . S
Eu683 O727 2.419 . S
Eu683 C747 2.848 . S
N684 C676 1.362 . S
N684 Eu683 2.657 . S
N684 C685 1.334 . S
C685 N684 1.334 . S
C685 C687 1.413 . S
C685 H692 0.929 . S
C686 C674 1.392 . S
C686 C687 1.367 . S
C686 H694 0.930 . S
C687 C685 1.413 . S
C687 C686 1.367 . S
C687 H689 0.930 . S
H688 C681 0.930 . S
H689 C687 0.930 . S
H690 C678 0.930 . S
H691 C679 0.930 . S
H692 C685 0.929 . S
H693 C707 0.930 . S
H694 C686 0.930 . S
H695 C713 0.930 . S
H696 C704 0.929 . S
H697 C711 0.930 . S
H698 C675 0.931 . S
H699 C705 0.930 . S
H700 C738 0.930 . S
H701 C682 0.930 . S
H702 C737 0.931 . S
N703 Eu672 2.657 . S
N703 C704 1.334 . S
N703 C708 1.362 . S
C704 H696 0.929 . S
C704 N703 1.334 . S
C704 C707 1.413 . S
C705 H699 0.930 . S
C705 C706 1.392 . S
C705 C707 1.367 1_455 S
C706 C705 1.392 . S
C706 C708 1.420 1_455 S
C706 C738 1.423 . S
C707 H693 0.930 . S
C707 C704 1.413 . S
C707 C705 1.367 1_655 S
C708 N703 1.362 . S
C708 C706 1.420 1_655 S
C708 C712 1.429 . S
H709 C714 0.930 1_455 S
N710 Eu672 2.609 . S
N710 C712 1.377 . S
N710 C713 1.321 . S
C711 H697 0.930 . S
C711 C713 1.400 . S
C711 C714 1.386 . S
C712 C708 1.429 . S
C712 N710 1.377 . S
C712 C715 1.411 1_655 S
C713 H695 0.930 . S
C713 N710 1.321 . S
C713 C711 1.400 . S
C714 H709 0.930 1_655 S
C714 C711 1.386 . S
C714 C715 1.395 1_655 S
C715 C712 1.411 1_455 S
C715 C714 1.395 1_455 S
C715 C737 1.420 . S
O716 Eu672 2.558 . S
O716 C736 1.257 . S
O717 Eu672 2.612 . S
O717 Eu683 2.380 . S
O717 C728 1.276 . S
O718 Eu683 2.432 . S
O718 C735 1.264 . S
O719 Eu672 2.339 . S
O719 C735 1.254 . S
O720 Eu672 2.563 . S
O720 C728 1.235 . S
O721 Eu672 2.419 . S
O721 C736 1.249 . S
O722 Eu683 2.558 . S
O722 C747 1.257 . S
O723 Eu672 2.380 . S
O723 Eu683 2.612 . S
O723 C739 1.276 . S
O724 Eu672 2.432 . S
O724 C746 1.264 . S
O725 Eu683 2.339 . S
O725 C746 1.254 . S
O726 Eu683 2.563 . S
O726 C739 1.235 . S
O727 Eu683 2.419 . S
O727 C747 1.249 . S
C728 O717 1.276 . S
C728 O720 1.235 . S
C729 C731 1.393 . S
C729 C733 1.395 . S
C729 C736 1.492 . S
C730 C731 1.392 . S
C730 C732 1.386 . S
C731 C729 1.393 . S
C731 C730 1.392 . S
C731 H748 0.930 . S
C732 C730 1.386 . S
C732 C734 1.395 . S
C732 H749 0.930 . S
C733 C729 1.395 . S
C733 C734 1.379 . S
C733 H750 0.930 . S
C734 C732 1.395 . S
C734 C733 1.379 . S
C734 H751 0.930 . S
C735 O718 1.264 . S
C735 O719 1.254 . S
C736 Eu672 2.848 . S
C736 O716 1.257 . S
C736 O721 1.249 . S
C736 C729 1.492 . S
C737 H702 0.931 . S
C737 C715 1.420 . S
C737 C738 1.351 . S
C738 H700 0.930 . S
C738 C706 1.423 . S
C738 C737 1.351 . S
C739 O723 1.276 . S
C739 O726 1.235 . S
C740 C741 1.393 . S
C740 C744 1.395 . S
C740 C747 1.492 . S
C741 C740 1.393 . S
C741 C742 1.392 . S
C741 H752 0.930 . S
C742 C741 1.392 . S
C742 C743 1.386 . S
C743 C742 1.386 . S
C743 C745 1.395 . S
C743 H753 0.930 . S
C744 C740 1.395 . S
C744 C745 1.379 . S
C744 H754 0.930 . S
C745 C743 1.395 . S
C745 C744 1.379 . S
C745 H755 0.930 . S
C746 O724 1.264 . S
C746 O725 1.254 . S
C747 Eu683 2.848 . S
C747 O722 1.257 . S
C747 O727 1.249 . S
C747 C740 1.492 . S
H748 C731 0.930 . S
H749 C732 0.930 . S
H750 C733 0.930 . S
H751 C734 0.930 . S
H752 C741 0.930 . S
H753 C743 0.930 . S
H754 C744 0.930 . S
H755 C745 0.930 . S
C756 C757 1.369 1_556 S
C756 C758 1.419 . S
C756 H760 0.930 . S
C757 C756 1.369 1_554 S
C757 C766 1.429 . S
C758 C756 1.419 . S
C758 C759 1.363 1_556 S
C758 H761 0.929 . S
C759 C758 1.363 1_554 S
C759 C765 1.428 . S
H760 C756 0.930 . S
H761 C758 0.929 . S
S762 N763 1.613 . S
S762 N764 1.610 . S
N763 S762 1.613 . S
N763 C766 1.350 . S
N764 S762 1.610 . S
N764 C765 1.351 . S
C765 C759 1.428 . S
C765 N764 1.351 . S
C765 C766 1.434 . S
C766 C757 1.429 . S
C766 N763 1.350 . S
C766 C765 1.434 . S
C767 C768 1.369 1_556 S
C767 C769 1.419 . S
C767 H771 0.930 . S
C768 C767 1.369 1_554 S
C768 C777 1.429 . S
C769 C767 1.419 . S
C769 C770 1.363 1_556 S
C769 H772 0.929 . S
C770 C769 1.363 1_554 S
C770 C776 1.428 . S
H771 C767 0.930 . S
H772 C769 0.929 . S
S773 N774 1.613 . S
S773 N775 1.610 . S
N774 S773 1.613 . S
N774 C777 1.350 . S
N775 S773 1.610 . S
N775 C776 1.351 . S
C776 C770 1.428 . S
C776 N775 1.351 . S
C776 C777 1.434 . S
C777 C768 1.429 . S
C777 N774 1.350 . S
C777 C776 1.434 . S
C778 C779 1.369 1_556 S
C778 C780 1.419 . S
C778 H782 0.930 . S
C779 C778 1.369 1_554 S
C779 C788 1.429 . S
C780 C778 1.419 . S
C780 C781 1.363 1_556 S
C780 H783 0.929 . S
C781 C780 1.363 1_554 S
C781 C787 1.428 . S
H782 C778 0.930 . S
H783 C780 0.929 . S
S784 N785 1.613 . S
S784 N786 1.610 . S
N785 S784 1.613 . S
N785 C788 1.350 . S
N786 S784 1.610 . S
N786 C787 1.351 . S
C787 C781 1.428 . S
C787 N786 1.351 . S
C787 C788 1.434 . S
C788 C779 1.429 . S
C788 N785 1.350 . S
C788 C787 1.434 . S
C789 C790 1.369 . S
C789 C791 1.419 . S
C789 H793 0.930 . S
C790 C789 1.369 . S
C790 C799 1.429 1_556 S
C791 C789 1.419 . S
C791 C792 1.346 1_556 S
C791 H794 0.929 . S
C792 C791 1.346 1_554 S
C792 C798 1.442 . S
H793 C789 0.930 . S
H794 C791 0.929 . S
S795 N796 1.613 . S
S795 N797 1.610 . S
N796 S795 1.613 . S
N796 C799 1.350 . S
N797 S795 1.610 . S
N797 C798 1.351 . S
C798 C792 1.442 . S
C798 N797 1.351 . S
C798 C799 1.434 . S
C799 C790 1.429 1_554 S
C799 N796 1.350 . S
C799 C798 1.434 . S
C800 C801 1.370 . S
C800 C802 1.419 . S
C800 H804 0.930 . S
C801 C800 1.370 . S
C801 C810 1.427 1_554 S
C802 C800 1.419 . S
C802 C803 1.363 1_554 S
C802 H805 0.929 . S
C803 C802 1.363 1_556 S
C803 C809 1.428 . S
H804 C800 0.930 . S
H805 C802 0.929 . S
S806 N807 1.613 . S
S806 N808 1.610 . S
N807 S806 1.613 . S
N807 C810 1.350 . S
N808 S806 1.610 . S
N808 C809 1.351 . S
C809 C803 1.428 . S
C809 N808 1.351 . S
C809 C810 1.434 . S
C810 C801 1.427 1_556 S
C810 N807 1.350 . S
C810 C809 1.434 . S
C811 C812 1.372 . S
C811 C813 1.419 . S
C811 H815 0.930 . S
C812 C811 1.372 . S
C812 C821 1.424 1_554 S
C813 C811 1.419 . S
C813 C814 1.363 1_554 S
C813 H816 0.929 . S
C814 C813 1.363 1_556 S
C814 C820 1.428 . S
H815 C811 0.930 . S
H816 C813 0.929 . S
S817 N818 1.613 . S
S817 N819 1.610 . S
N818 S817 1.613 . S
N818 C821 1.350 . S
N819 S817 1.610 . S
N819 C820 1.351 . S
C820 C814 1.428 . S
C820 N819 1.351 . S
C820 C821 1.434 . S
C821 C812 1.424 1_556 S
C821 N818 1.350 . S
C821 C820 1.434 . S
C822 C823 1.369 . S
C822 C824 1.419 . S
C822 H826 0.930 . S
C823 C822 1.369 . S
C823 C832 1.429 . S
C824 C822 1.419 . S
C824 C825 1.363 . S
C824 H827 0.929 . S
C825 C824 1.363 . S
C825 C831 1.428 . S
H826 C822 0.930 . S
H827 C824 0.929 . S
S828 N829 1.613 . S
S828 N830 1.610 . S
N829 S828 1.613 . S
N829 C832 1.350 . S
N830 S828 1.610 . S
N830 C831 1.351 . S
C831 C825 1.428 . S
C831 N830 1.351 . S
C831 C832 1.434 . S
C832 C823 1.429 . S
C832 N829 1.350 . S
C832 C831 1.434 . S
C833 C834 1.369 . S
C833 C835 1.419 1_545 S
C833 H837 0.927 . S
C834 C833 1.369 . S
C834 C843 1.429 . S
C835 C833 1.419 1_565 S
C835 C836 1.363 . S
C835 H838 0.929 . S
C836 C835 1.363 . S
C836 C842 1.428 1_565 S
H837 C833 0.927 . S
H838 C835 0.929 . S
S839 N840 1.613 . S
S839 N841 1.610 . S
N840 S839 1.613 . S
N840 C843 1.350 . S
N841 S839 1.610 . S
N841 C842 1.351 . S
C842 C836 1.428 1_545 S
C842 N841 1.351 . S
C842 C843 1.434 . S
C843 C834 1.429 . S
C843 N840 1.350 . S
C843 C842 1.434 . S
C844 C845 1.369 1_655 S
C844 C846 1.419 . S
C844 H848 0.930 . S
C845 C844 1.369 1_455 S
C845 C854 1.429 . S
C846 C844 1.419 . S
C846 C847 1.363 . S
C846 H849 0.929 . S
C847 C846 1.363 . S
C847 C853 1.428 1_655 S
H848 C844 0.930 . S
H849 C846 0.929 . S
S850 N851 1.613 . S
S850 N852 1.610 . S
N851 S850 1.613 . S
N851 C854 1.350 . S
N852 S850 1.610 . S
N852 C853 1.351 . S
C853 C847 1.428 1_455 S
C853 N852 1.351 . S
C853 C854 1.434 . S
C854 C845 1.429 . S
C854 N851 1.350 . S
C854 C853 1.434 . S
C855 C856 1.369 . S
C855 C857 1.419 . S
C855 H859 0.930 . S
C856 C855 1.369 . S
C856 C865 1.429 . S
C857 C855 1.419 . S
C857 C858 1.363 . S
C857 H860 0.929 . S
C858 C857 1.363 . S
C858 C864 1.428 . S
H859 C855 0.930 . S
H860 C857 0.929 . S
S861 N862 1.613 . S
S861 N863 1.610 . S
N862 S861 1.613 . S
N862 C865 1.350 . S
N863 S861 1.610 . S
N863 C864 1.351 . S
C864 C858 1.428 . S
C864 N863 1.351 . S
C864 C865 1.434 . S
C865 C856 1.429 . S
C865 N862 1.350 . S
C865 C864 1.434 . S
C866 C867 1.369 . S
C866 C868 1.419 . S
C866 H870 0.930 . S
C867 C866 1.369 . S
C867 C876 1.429 . S
C868 C866 1.419 . S
C868 C869 1.363 . S
C868 H871 0.929 . S
C869 C868 1.363 . S
C869 C875 1.428 . S
H870 C866 0.930 . S
H871 C868 0.929 . S
S872 N873 1.613 . S
S872 N874 1.610 . S
N873 S872 1.613 . S
N873 C876 1.350 . S
N874 S872 1.610 . S
N874 C875 1.351 . S
C875 C869 1.428 . S
C875 N874 1.351 . S
C875 C876 1.434 . S
C876 C867 1.429 . S
C876 N873 1.350 . S
C876 C875 1.434 . S
C877 C878 1.369 . S
C877 C879 1.419 . S
C877 H881 0.930 . S
C878 C877 1.369 . S
C878 C887 1.429 . S
C879 C877 1.419 . S
C879 C880 1.363 . S
C879 H882 0.929 . S
C880 C879 1.363 . S
C880 C886 1.428 . S
H881 C877 0.930 . S
H882 C879 0.929 . S
S883 N884 1.613 . S
S883 N885 1.610 . S
N884 S883 1.613 . S
N884 C887 1.350 . S
N885 S883 1.610 . S
N885 C886 1.351 . S
C886 C880 1.428 . S
C886 N885 1.351 . S
C886 C887 1.434 . S
C887 C878 1.429 . S
C887 N884 1.350 . S
C887 C886 1.434 . S
C888 C889 1.369 . S
C888 C890 1.419 . S
C888 H892 0.930 . S
C889 C888 1.369 . S
C889 C898 1.429 . S
C890 C888 1.419 . S
C890 C891 1.363 . S
C890 H893 0.929 . S
C891 C890 1.363 . S
C891 C897 1.428 . S
H892 C888 0.930 . S
H893 C890 0.929 . S
S894 N895 1.613 . S
S894 N896 1.610 . S
N895 S894 1.613 . S
N895 C898 1.350 . S
N896 S894 1.610 . S
N896 C897 1.351 . S
C897 C891 1.428 . S
C897 N896 1.351 . S
C897 C898 1.434 . S
C898 C889 1.429 . S
C898 N895 1.350 . S
C898 C897 1.434 . S
C899 C900 1.369 . S
C899 C901 1.419 . S
C899 H903 0.930 . S
C900 C899 1.369 . S
C900 C909 1.429 . S
C901 C899 1.419 . S
C901 C902 1.363 . S
C901 H904 0.929 . S
C902 C901 1.363 . S
C902 C908 1.428 . S
H903 C899 0.930 . S
H904 C901 0.929 . S
S905 N906 1.613 . S
S905 N907 1.610 . S
N906 S905 1.613 . S
N906 C909 1.350 . S
N907 S905 1.610 . S
N907 C908 1.351 . S
C908 C902 1.428 . S
C908 N907 1.351 . S
C908 C909 1.434 . S
C909 C900 1.429 . S
C909 N906 1.350 . S
C909 C908 1.434 . S
C910 C911 1.369 . S
C910 C912 1.419 . S
C910 H914 0.930 . S
C911 C910 1.369 . S
C911 C920 1.429 . S
C912 C910 1.419 . S
C912 C913 1.363 . S
C912 H915 0.929 . S
C913 C912 1.363 . S
C913 C919 1.428 . S
H914 C910 0.930 . S
H915 C912 0.929 . S
S916 N917 1.613 . S
S916 N918 1.610 . S
N917 S916 1.613 . S
N917 C920 1.350 . S
N918 S916 1.610 . S
N918 C919 1.351 . S
C919 C913 1.428 . S
C919 N918 1.351 . S
C919 C920 1.434 . S
C920 C911 1.429 . S
C920 N917 1.350 . S
C920 C919 1.434 . S
C921 C922 1.369 . S
C921 C923 1.419 1_565 S
C921 H925 0.930 . S
C922 C921 1.369 . S
C922 C931 1.429 1_565 S
C923 C921 1.419 1_545 S
C923 C924 1.363 . S
C923 H926 0.929 . S
C924 C923 1.363 . S
C924 C930 1.428 . S
H925 C921 0.930 . S
H926 C923 0.929 . S
S927 N928 1.613 1_545 S
S927 N929 1.610 . S
N928 S927 1.613 1_565 S
N928 C931 1.350 1_565 S
N929 S927 1.610 . S
N929 C930 1.351 . S
C930 C924 1.428 . S
C930 N929 1.351 . S
C930 C931 1.434 . S
C931 C922 1.429 1_545 S
C931 N928 1.350 1_545 S
C931 C930 1.434 . S
C932 C933 1.369 . S
C932 C934 1.419 1_655 S
C932 H936 0.930 . S
C933 C932 1.369 . S
C933 C942 1.429 . S
C934 C932 1.419 1_455 S
C934 C935 1.363 . S
C934 H937 0.929 . S
C935 C934 1.363 . S
C935 C941 1.428 . S
H936 C932 0.930 . S
H937 C934 0.929 . S
S938 N939 1.613 . S
S938 N940 1.610 1_655 S
N939 S938 1.613 . S
N939 C942 1.350 . S
N940 S938 1.610 1_455 S
N940 C941 1.351 . S
C941 C935 1.428 . S
C941 N940 1.351 . S
C941 C942 1.434 1_455 S
C942 C933 1.429 . S
C942 N939 1.350 . S
C942 C941 1.434 1_655 S
C943 C944 1.369 . S
C943 C945 1.419 . S
C943 H947 0.930 . S
C944 C943 1.369 . S
C944 C953 1.429 . S
C945 C943 1.419 . S
C945 C946 1.363 . S
C945 H948 0.929 . S
C946 C945 1.363 . S
C946 C952 1.428 . S
H947 C943 0.930 . S
H948 C945 0.929 . S
S949 N950 1.613 . S
S949 N951 1.610 . S
N950 S949 1.613 . S
N950 C953 1.350 . S
N951 S949 1.610 . S
N951 C952 1.351 . S
C952 C946 1.428 . S
C952 N951 1.351 . S
C952 C953 1.434 . S
C953 C944 1.429 . S
C953 N950 1.350 . S
C953 C952 1.434 . S
C954 C955 1.369 . S
C954 C956 1.419 . S
C954 H958 0.930 . S
C955 C954 1.369 . S
C955 C964 1.429 . S
C956 C954 1.419 . S
C956 C957 1.363 . S
C956 H959 0.929 . S
C957 C956 1.363 . S
C957 C963 1.428 . S
H958 C954 0.930 . S
H959 C956 0.929 . S
S960 N961 1.613 . S
S960 N962 1.610 . S
N961 S960 1.613 . S
N961 C964 1.350 . S
N962 S960 1.610 . S
N962 C963 1.351 . S
C963 C957 1.428 . S
C963 N962 1.351 . S
C963 C964 1.434 . S
C964 C955 1.429 . S
C964 N961 1.350 . S
C964 C963 1.434 . S
C965 C966 1.369 . S
C965 C967 1.419 . S
C965 H969 0.930 . S
C966 C965 1.369 . S
C966 C975 1.429 . S
C967 C965 1.419 . S
C967 C968 1.363 . S
C967 H970 0.929 . S
C968 C967 1.363 . S
C968 C974 1.428 . S
H969 C965 0.930 . S
H970 C967 0.929 . S
S971 N972 1.613 . S
S971 N973 1.610 . S
N972 S971 1.613 . S
N972 C975 1.350 . S
N973 S971 1.610 . S
N973 C974 1.351 . S
C974 C968 1.428 . S
C974 N973 1.351 . S
C974 C975 1.434 . S
C975 C966 1.429 . S
C975 N972 1.350 . S
C975 C974 1.434 . S
C976 C977 1.369 . S
C976 C978 1.419 . S
C976 H980 0.930 . S
C977 C976 1.369 . S
C977 C986 1.429 . S
C978 C976 1.419 . S
C978 C979 1.363 . S
C978 H981 0.929 . S
C979 C978 1.363 . S
C979 C985 1.428 . S
H980 C976 0.930 . S
H981 C978 0.929 . S
S982 N983 1.613 . S
S982 N984 1.610 . S
N983 S982 1.613 . S
N983 C986 1.350 . S
N984 S982 1.610 . S
N984 C985 1.351 . S
C985 C979 1.428 . S
C985 N984 1.351 . S
C985 C986 1.434 . S
C986 C977 1.429 . S
C986 N983 1.350 . S
C986 C985 1.434 . S
C987 C988 1.369 . S
C987 C989 1.419 . S
C987 H991 0.930 . S
C988 C987 1.369 . S
C988 C997 1.429 . S
C989 C987 1.419 . S
C989 C990 1.363 . S
C989 H992 0.929 . S
C990 C989 1.363 . S
C990 C996 1.428 . S
H991 C987 0.930 . S
H992 C989 0.929 . S
S993 N994 1.613 1_565 S
S993 N995 1.610 1_565 S
N994 S993 1.613 1_545 S
N994 C997 1.350 . S
N995 S993 1.610 1_545 S
N995 C996 1.351 . S
C996 C990 1.428 . S
C996 N995 1.351 . S
C996 C997 1.434 . S
C997 C988 1.429 . S
C997 N994 1.350 . S
C997 C996 1.434 . S
C998 C999 1.369 . S
C998 C1000 1.419 . S
C998 H1002 0.930 . S
C999 C998 1.369 . S
C999 C1008 1.429 . S
C1000 C998 1.419 . S
C1000 C1001 1.363 . S
C1000 H1003 0.929 . S
C1001 C1000 1.363 . S
C1001 C1007 1.428 . S
H1002 C998 0.930 . S
H1003 C1000 0.929 . S
S1004 N1005 1.613 . S
S1004 N1006 1.610 1_455 S
N1005 S1004 1.613 . S
N1005 C1008 1.350 1_455 S
N1006 S1004 1.610 1_655 S
N1006 C1007 1.351 . S
C1007 C1001 1.428 . S
C1007 N1006 1.351 . S
C1007 C1008 1.434 . S
C1008 C999 1.429 . S
C1008 N1005 1.350 1_655 S
C1008 C1007 1.434 . S
C1009 C1010 1.369 . S
C1009 C1011 1.419 . S
C1009 H1013 0.930 . S
C1010 C1009 1.369 . S
C1010 C1019 1.429 . S
C1011 C1009 1.419 . S
C1011 C1012 1.363 . S
C1011 H1014 0.929 . S
C1012 C1011 1.363 . S
C1012 C1018 1.428 . S
H1013 C1009 0.930 . S
H1014 C1011 0.929 . S
S1015 N1016 1.613 . S
S1015 N1017 1.610 . S
N1016 S1015 1.613 . S
N1016 C1019 1.350 . S
N1017 S1015 1.610 . S
N1017 C1018 1.351 . S
C1018 C1012 1.428 . S
C1018 N1017 1.351 . S
C1018 C1019 1.434 . S
C1019 C1010 1.429 . S
C1019 N1016 1.350 . S
C1019 C1018 1.434 . S
C1020 C1021 1.369 . S
C1020 C1022 1.419 . S
C1020 H1024 0.930 . S
C1021 C1020 1.369 . S
C1021 C1030 1.429 . S
C1022 C1020 1.419 . S
C1022 C1023 1.363 . S
C1022 H1025 0.929 . S
C1023 C1022 1.363 . S
C1023 C1029 1.428 . S
H1024 C1020 0.930 . S
H1025 C1022 0.929 . S
S1026 N1027 1.613 . S
S1026 N1028 1.610 . S
N1027 S1026 1.613 . S
N1027 C1030 1.350 . S
N1028 S1026 1.610 . S
N1028 C1029 1.351 . S
C1029 C1023 1.428 . S
C1029 N1028 1.351 . S
C1029 C1030 1.434 . S
C1030 C1021 1.429 . S
C1030 N1027 1.350 . S
C1030 C1029 1.434 . S
C1031 C1032 1.369 . S
C1031 C1033 1.419 1_565 S
C1031 H1035 0.930 . S
C1032 C1031 1.369 . S
C1032 C1041 1.429 . S
C1033 C1031 1.419 1_545 S
C1033 C1034 1.363 . S
C1033 H1036 0.929 . S
C1034 C1033 1.363 . S
C1034 C1040 1.428 . S
H1035 C1031 0.930 . S
H1036 C1033 0.929 . S
S1037 N1038 1.634 . S
S1037 N1039 1.610 . S
N1038 S1037 1.634 . S
N1038 C1041 1.343 1_545 S
N1039 S1037 1.610 . S
N1039 C1040 1.351 . S
C1040 C1034 1.428 . S
C1040 N1039 1.351 . S
C1040 C1041 1.434 1_545 S
C1041 C1032 1.429 . S
C1041 N1038 1.343 1_565 S
C1041 C1040 1.434 1_565 S
C1042 C1043 1.369 1_455 S
C1042 C1044 1.419 . S
C1042 H1046 0.930 . S
C1043 C1042 1.369 1_655 S
C1043 C1052 1.429 . S
C1044 C1042 1.419 . S
C1044 C1045 1.363 . S
C1044 H1047 0.929 . S
C1045 C1044 1.363 . S
C1045 C1051 1.428 . S
H1046 C1042 0.930 . S
H1047 C1044 0.929 . S
S1048 N1049 1.613 . S
S1048 N1050 1.610 1_655 S
N1049 S1048 1.613 . S
N1049 C1052 1.350 . S
N1050 S1048 1.610 1_455 S
N1050 C1051 1.351 . S
C1051 C1045 1.428 . S
C1051 N1050 1.351 . S
C1051 C1052 1.434 1_455 S
C1052 C1043 1.429 . S
C1052 N1049 1.350 . S
C1052 C1051 1.434 1_655 S
C757 C142 1.179 . S
C759 C56 1.386 1_554 S
C768 C226 1.175 . S
C770 C140 1.387 1_554 S
C779 C224 1.380 1_554 S
C781 C58 1.187 . S
C790 C238 1.257 . S
C792 C151 1.452 . S
C801 C235 1.450 . S
C803 C70 1.268 . S
C812 C67 1.452 . S
C814 C154 1.264 . S
C823 C308 1.381 . S
C825 C394 1.173 . S
C834 C478 1.175 . S
C836 C392 1.387 . S
C845 C476 1.373 . S
C847 C310 1.183 . S
C856 C403 1.449 . S
C858 C490 1.259 . S
C867 C487 1.448 . S
C869 C322 1.270 . S
C878 C406 1.260 . S
C880 C319 1.449 . S
C889 C646 1.171 . S
C891 C560 1.387 . S
C900 C644 1.385 . S
C902 C730 1.171 . S
C911 C728 1.388 . S
C913 C562 1.175 . S
C922 C742 1.274 . S
C924 C655 1.449 . S
C933 C739 1.450 . S
C935 C574 1.265 . S
C944 C571 1.448 . S
C946 C658 1.258 . S
C955 C494 2.578 . S
C957 C63 2.652 . S
C966 C326 2.581 . S
C968 C147 2.657 . S
C977 C231 2.657 . S
C979 C410 2.581 . S
C988 C242 2.579 . S
C990 C567 2.652 . S
C999 C74 2.579 . S
C1001 C651 2.652 . S
C1010 C735 2.657 . S
C1012 C158 2.581 . S
C1021 C315 2.652 . S
C1023 C746 2.580 . S
C1032 C399 2.653 . S
C1034 C578 2.582 . S
C1043 C662 2.582 . S
C1045 C483 2.653 . S
