# Generated by pormake.
# Topology tfs, (6)-cn, num edge types: 1
# Building blocks:
#     Node 0, Type 0, BuildingBlock: MIDCAF_clean_sbu_0, # of connection points: 6
#     Node 1, Type 0, BuildingBlock: MIDCAF_clean_sbu_0, # of connection points: 6
#     Node 2, Type 0, BuildingBlock: MIDCAF_clean_sbu_0, # of connection points: 6
#     Node 3, Type 0, BuildingBlock: MIDCAF_clean_sbu_0, # of connection points: 6
#     Node 4, Type 0, BuildingBlock: MIDCAF_clean_sbu_0, # of connection points: 6
#     Node 5, Type 0, BuildingBlock: MIDCAF_clean_sbu_0, # of connection points: 6
#     Edge 6, Type (0, 0), BuildingBlock: CIFDUS_clean_linker_0, # of connection points: 2
#     Edge 7, Type (0, 0), BuildingBlock: CIFDUS_clean_linker_0, # of connection points: 2
#     Edge 8, Type (0, 0), BuildingBlock: CIFDUS_clean_linker_0, # of connection points: 2
#     Edge 9, Type (0, 0), BuildingBlock: CIFDUS_clean_linker_0, # of connection points: 2
#     Edge 10, Type (0, 0), BuildingBlock: CIFDUS_clean_linker_0, # of connection points: 2
#     Edge 11, Type (0, 0), BuildingBlock: CIFDUS_clean_linker_0, # of connection points: 2
#     Edge 12, Type (0, 0), BuildingBlock: CIFDUS_clean_linker_0, # of connection points: 2
#     Edge 13, Type (0, 0), BuildingBlock: CIFDUS_clean_linker_0, # of connection points: 2
#     Edge 14, Type (0, 0), BuildingBlock: CIFDUS_clean_linker_0, # of connection points: 2
#     Edge 15, Type (0, 0), BuildingBlock: CIFDUS_clean_linker_0, # of connection points: 2
#     Edge 16, Type (0, 0), BuildingBlock: CIFDUS_clean_linker_0, # of connection points: 2
#     Edge 17, Type (0, 0), BuildingBlock: CIFDUS_clean_linker_0, # of connection points: 2
#     Edge 18, Type (0, 0), BuildingBlock: CIFDUS_clean_linker_0, # of connection points: 2
#     Edge 19, Type (0, 0), BuildingBlock: CIFDUS_clean_linker_0, # of connection points: 2
#     Edge 20, Type (0, 0), BuildingBlock: CIFDUS_clean_linker_0, # of connection points: 2
#     Edge 21, Type (0, 0), BuildingBlock: CIFDUS_clean_linker_0, # of connection points: 2
#     Edge 22, Type (0, 0), BuildingBlock: CIFDUS_clean_linker_0, # of connection points: 2
#     Edge 23, Type (0, 0), BuildingBlock: CIFDUS_clean_linker_0, # of connection points: 2
# Relax obj value: 0.134
# Max RMSD: 0.124
# Mean RMSD: 0.124
data_MOF--net-tfs--node1-MIDCAF_clean_sbu_0--edge1-CIFDUS_clean_linker_0
_symmetry_space_group_name_H-M    P1
_symmetry_Int_Tables_number       1
_symmetry_cell_setting            triclinic
loop_
_symmetry_equiv_pos_as_xyz
'x, y, z'
_cell_length_a     37.20106
_cell_length_b     37.293309
_cell_length_c     13.46093
_cell_angle_alpha  89.942766
_cell_angle_beta   90.261886
_cell_angle_gamma 120.04735
loop_
_atom_site_label
_atom_site_type_symbol
_atom_site_fract_x
_atom_site_fract_y
_atom_site_fract_z
_atom_type_partial_charge
Zn0 Zn 0.15324 0.44065 0.82995 0.0
Zn1 Zn 0.27639 0.43519 0.27474 0.0
Zn2 Zn 0.21055 0.41994 0.06483 0.0
C3 C 0.26475 0.37801 0.08315 0.0
C4 C 0.19117 0.38339 0.26541 0.0
O5 O 0.22484 0.48385 0.00761 0.0
O6 O 0.1966 0.49814 0.87294 0.0
C7 C 0.19956 0.39313 0.86348 0.0
O8 O 0.24091 0.38521 0.0271 0.0
O9 O 0.27592 0.39439 0.16918 0.0
O10 O 0.22344 0.38424 0.23539 0.0
O11 O 0.17233 0.39362 0.20142 0.0
O12 O 0.18062 0.41144 0.89109 0.0
O13 O 0.21883 0.38649 0.9336 0.0
O14 O 0.14489 0.38756 0.11011 0.0
O15 O 0.15262 0.41428 0.96445 0.0
C16 C 0.12818 0.39349 0.03373 0.0
O17 O 0.2558 0.48508 0.08703 0.0
O18 O 0.29273 0.49285 0.22535 0.0
C19 C 0.22165 0.50956 0.94729 0.0
C20 C 0.2839 0.50798 0.15087 0.0
Zn21 Zn 0.7385 0.16884 0.89337 0.0
Zn22 Zn 0.84124 0.27801 0.10255 0.0
Zn23 Zn 0.79643 0.21725 0.00518 0.0
C24 C 0.88904 0.28143 0.94588 0.0
C25 C 0.83009 0.21133 0.21747 0.0
O26 O 0.74472 0.2311 0.98558 0.0
O27 O 0.69585 0.18505 0.88639 0.0
C28 C 0.80864 0.19469 0.78128 0.0
O29 O 0.85823 0.24444 0.93318 0.0
O30 O 0.88542 0.30553 0.00515 0.0
O31 O 0.85327 0.2499 0.20827 0.0
O32 O 0.80272 0.19087 0.1495 0.0
O33 O 0.76962 0.17461 0.77515 0.0
O34 O 0.82638 0.21406 0.86244 0.0
O35 O 0.77187 0.15662 0.08377 0.0
O36 O 0.72647 0.11919 0.96674 0.0
C37 C 0.74484 0.12117 0.04713 0.0
O38 O 0.7789 0.26799 0.02281 0.0
O39 O 0.81635 0.31132 0.14239 0.0
C40 C 0.70908 0.21639 0.94167 0.0
C41 C 0.78869 0.30056 0.07656 0.0
Zn42 Zn 0.5557 0.81791 0.23044 0.0
Zn43 Zn 0.58021 0.7232 0.04078 0.0
Zn44 Zn 0.58125 0.78473 0.11768 0.0
C45 C 0.63421 0.739 0.1815 0.0
C46 C 0.62341 0.79709 0.91643 0.0
O47 O 0.51182 0.76194 0.11311 0.0
O48 O 0.49701 0.80046 0.21039 0.0
C49 C 0.60098 0.79692 0.34994 0.0
O50 O 0.62739 0.76968 0.18571 0.0
O51 O 0.60715 0.7058 0.14154 0.0
O52 O 0.61483 0.76003 0.92994 0.0
O53 O 0.61322 0.81533 0.98234 0.0
O54 O 0.57174 0.80467 0.35574 0.0
O55 O 0.6111 0.78889 0.26494 0.0
O56 O 0.61503 0.84824 0.05577 0.0
O57 O 0.59729 0.87312 0.18288 0.0
C58 C 0.61925 0.87942 0.10659 0.0
O59 O 0.51712 0.72959 0.08149 0.0
O60 O 0.52377 0.68156 1.00147 0.0
C61 C 0.48543 0.77197 0.14696 0.0
C62 C 0.50069 0.69397 0.03698 0.0
Zn63 Zn 0.70787 0.58172 0.91142 0.0
Zn64 Zn 0.80143 0.549 0.80053 0.0
Zn65 Zn 0.77197 0.58009 0.90047 0.0
C66 C 0.86697 0.62283 0.8385 0.0
C67 C 0.7456 0.55155 0.67742 0.0
O68 O 0.72189 0.51616 0.92168 0.0
O69 O 0.67832 0.52741 0.83382 0.0
C70 C 0.71932 0.55112 0.09344 0.0
O71 O 0.84011 0.61827 0.90403 0.0
O72 O 0.85579 0.59749 0.76734 0.0
O73 O 0.76008 0.52782 0.69271 0.0
O74 O 0.74985 0.57764 0.74524 0.0
O75 O 0.70346 0.5721 0.06167 0.0
O76 O 0.7407 0.5422 0.03324 0.0
O77 O 0.77606 0.63282 0.97791 0.0
O78 O 0.73712 0.64312 0.87352 0.0
C79 C 0.7613 0.65548 0.94841 0.0
O80 O 0.76013 0.52076 0.97936 0.0
O81 O 0.80353 0.50902 0.89295 0.0
C82 C 0.68776 0.50199 0.87215 0.0
C83 C 0.7797 0.50046 0.96635 0.0
Zn84 Zn 0.1414 0.72226 0.08943 0.0
Zn85 Zn 0.26296 0.81539 0.8852 0.0
Zn86 Zn 0.19936 0.77763 0.98774 0.0
C87 C 0.257 0.87202 0.0156 0.0
C88 C 0.20062 0.7998 0.75503 0.0
O89 O 0.21 0.72558 0.03031 0.0
O90 O 0.15733 0.68057 0.12129 0.0
C91 C 0.17044 0.79578 0.19557 0.0
O92 O 0.22482 0.83992 0.05023 0.0
O93 O 0.27856 0.8685 0.94851 0.0
O94 O 0.23896 0.81232 0.75665 0.0
O95 O 0.17864 0.78375 0.83397 0.0
O96 O 0.14353 0.75781 0.19715 0.0
O97 O 0.19547 0.81077 0.12129 0.0
O98 O 0.14233 0.75456 0.89273 0.0
O99 O 0.09656 0.70788 0.99583 0.0
C100 C 0.1046 0.72728 0.91486 0.0
O101 O 0.24893 0.75869 1.00094 0.0
O102 O 0.30148 0.79452 0.89924 0.0
C103 C 0.19161 0.69141 0.08012 0.0
C104 C 0.28507 0.76782 0.96669 0.0
Zn105 Zn 0.39592 0.2378 0.85123 0.0
Zn106 Zn 0.43827 0.16145 0.03147 0.0
Zn107 Zn 0.41227 0.19882 0.94676 0.0
C108 C 0.38679 0.10489 0.90644 0.0
C109 C 0.38519 0.16591 0.16556 0.0
O110 O 0.47037 0.25561 0.89644 0.0
O111 O 0.44329 0.29457 0.85846 0.0
C112 C 0.37348 0.17597 0.72939 0.0
O113 O 0.3782 0.13401 0.8933 0.0
O114 O 0.42129 0.11352 0.94422 0.0
O115 O 0.40374 0.1461 0.14929 0.0
O116 O 0.38675 0.19188 0.09997 0.0
O117 O 0.38725 0.21425 0.72189 0.0
O118 O 0.37646 0.16091 0.8133 0.0
O119 O 0.37709 0.22008 0.04037 0.0
O120 O 0.34361 0.22493 0.91151 0.0
C121 C 0.34817 0.22575 0.00416 0.0
O122 O 0.48225 0.22896 0.93902 0.0
O123 O 0.49746 0.19725 0.05597 0.0
C124 C 0.47497 0.29094 0.87009 0.0
C125 C 0.50943 0.22487 0.99037 0.0
H126 H 0.27656 0.22222 0.95593 0.0
H127 H 0.37583 0.2736 0.17226 0.0
H128 H 0.35732 0.32588 0.21701 0.0
H129 H 0.32095 0.3633 0.17432 0.0
H130 H 0.22779 0.31692 0.94209 0.0
H131 H 0.23811 0.25772 0.91834 0.0
C132 C 0.29345 0.24421 0.01493 0.0
C133 C 0.32763 0.2442 0.06052 0.0
C134 C 0.28533 0.27635 0.03295 0.0
C135 C 0.34904 0.27252 0.13717 0.0
C136 C 0.33917 0.30309 0.1607 0.0
C137 C 0.30286 0.34032 0.11822 0.0
C138 C 0.2739 0.34479 0.0592 0.0
C139 C 0.30889 0.3065 0.10526 0.0
C140 C 0.25078 0.31469 0.98714 0.0
C141 C 0.25621 0.28053 0.97467 0.0
H142 H 0.06708 0.31305 0.01645 0.0
H143 H 0.09161 0.43881 0.00675 0.0
H144 H 0.02074 0.41488 0.94952 0.0
H145 H 0.95124 0.35848 0.91194 0.0
H146 H 0.92374 0.23188 0.92999 0.0
H147 H -0.00304 0.25567 0.96665 0.0
C148 C 0.0563 0.33487 0.0042 0.0
C149 C 0.08358 0.37742 0.02002 0.0
C150 C 0.01568 0.32085 0.96863 0.0
C151 C 0.07036 0.40582 0.99885 0.0
C152 C 0.03022 0.39223 0.96434 0.0
C153 C 0.96155 0.33608 0.92066 0.0
C154 C 0.93209 0.29353 0.91915 0.0
C155 C 0.00267 0.34989 0.94919 0.0
C156 C 0.94583 0.26483 0.92984 0.0
C157 C 0.98751 0.27845 0.95358 0.0
H158 H 0.74984 0.05966 0.9589 0.0
H159 H 0.70982 0.09135 0.22808 0.0
H160 H 0.66941 0.01795 0.2722 0.0
H161 H 0.63771 0.94581 0.22172 0.0
H162 H 0.67393 0.91245 0.94818 0.0
H163 H 0.72307 0.98598 0.91627 0.0
C164 C 0.7335 0.05042 0.02917 0.0
C165 C 0.73379 0.08092 0.09196 0.0
C166 C 0.70838 0.00807 0.05057 0.0
C167 C 0.71162 0.06875 0.1811 0.0
C168 C 0.68766 0.02668 0.20476 0.0
C169 C 0.65622 0.95422 0.15468 0.0
C170 C 0.65083 0.92337 0.08527 0.0
C171 C 0.6845 -0.00379 0.13793 0.0
C172 C 0.67622 0.93535 1.0009 0.0
C173 C 0.70465 0.9774 0.98342 0.0
H174 H 0.75694 0.72597 0.91528 0.0
H175 H 0.75405 0.6454 0.14854 0.0
H176 H 0.71863 0.6698 0.25771 0.0
H177 H 0.67419 0.7021 0.26927 0.0
H178 H 0.68837 0.79216 0.04926 0.0
H179 H 0.73507 0.77743 0.95436 0.0
C180 C 0.75013 0.71503 0.99133 0.0
C181 C 0.75632 0.68243 0.02199 0.0
C182 C 0.73157 0.7308 0.05604 0.0
C183 C 0.74828 0.66941 0.12168 0.0
C184 C 0.72798 0.68339 0.18449 0.0
C185 C 0.68956 0.72037 0.204 0.0
C186 C 0.67713 0.74762 0.16561 0.0
C187 C 0.71733 0.71239 0.15033 0.0
C188 C 0.69733 0.771 0.08063 0.0
C189 C 0.72357 0.76204 0.02505 0.0
H190 H 0.04999 0.7492 0.97034 0.0
H191 H 0.07562 0.68542 0.73962 0.0
H192 H 0.00281 0.65132 0.68583 0.0
H193 H 0.93065 0.63017 0.72575 0.0
H194 H 0.90389 0.68675 0.97283 0.0
H195 H 0.97836 0.73308 0.99992 0.0
C196 C 0.03984 0.7292 0.90542 0.0
C197 C 0.06819 0.72064 0.85697 0.0
C198 C -0.00251 0.70738 0.88061 0.0
C199 C 0.05466 0.69353 0.77558 0.0
C200 C 0.01286 0.67342 0.74643 0.0
C201 C 0.94096 0.65305 0.78472 0.0
C202 C 0.9116 0.65457 0.84819 0.0
C203 C 0.98373 0.67856 0.80173 0.0
C204 C 0.9257 0.68456 0.92375 0.0
C205 C 0.96829 0.71109 0.93907 0.0
H206 H 0.24126 0.91979 0.89825 0.0
H207 H 0.30016 0.91927 0.174 0.0
H208 H 0.34464 0.99453 0.16511 0.0
H209 H 0.37522 0.05687 0.06317 0.0
H210 H 0.32056 0.05801 0.78085 0.0
H211 H 0.26604 0.98535 0.80613 0.0
C212 C 0.26246 0.93663 0.95874 0.0
C213 C 0.26706 0.91441 0.03781 0.0
C214 C 0.28989 0.97931 0.94889 0.0
C215 C 0.29526 0.93593 0.11445 0.0
C216 C 0.3214 0.97877 0.10775 0.0
C217 C 0.35146 0.04116 0.0067 0.0
C218 C 0.35275 0.06187 0.918 0.0
C219 C 0.32052 0.00012 0.02251 0.0
C220 C 0.32077 0.04207 0.84795 0.0
C221 C 0.28958 0.00081 0.86301 0.0
H222 H 0.23633 0.67956 0.93903 0.0
H223 H 0.18431 0.63972 0.23105 0.0
H224 H 0.20106 0.58419 0.22652 0.0
H225 H 0.21682 0.53926 0.12504 0.0
H226 H 0.26409 0.57675 0.82877 0.0
H227 H 0.26585 0.64265 0.85184 0.0
C228 C 0.23028 0.65985 0.00333 0.0
C229 C 0.20903 0.66356 0.08503 0.0
C230 C 0.23943 0.62769 0.99947 0.0
C231 C 0.20028 0.63707 0.16681 0.0
C232 C 0.20997 0.60544 0.16441 0.0
C233 C 0.22937 0.56276 0.06751 0.0
C234 C 0.23999 0.55334 0.97519 0.0
C235 C 0.22772 0.59928 0.07916 0.0
C236 C 0.25573 0.58359 0.9004 0.0
C237 C 0.25611 0.62091 0.91308 0.0
H238 H 0.57534 0.25193 0.11277 0.0
H239 H 0.54114 0.24102 0.80349 0.0
H240 H 0.60581 0.24329 0.75755 0.0
H241 H 0.66252 0.23095 0.81018 0.0
H242 H 0.69529 0.24025 0.12044 0.0
H243 H 0.64092 0.25621 0.1617 0.0
C244 C 0.583 0.25184 0.03509 0.0
C245 C 0.55337 0.24524 0.96167 0.0
C246 C 0.61932 0.25154 0.00991 0.0
C247 C 0.56352 0.24581 0.8612 0.0
C248 C 0.60016 0.24639 0.83512 0.0
C249 C 0.65814 0.23733 0.8864 0.0
C250 C 0.68199 0.23364 0.96261 0.0
C251 C 0.62672 0.24631 0.90946 0.0
C252 C 0.6769 0.24266 0.06093 0.0
C253 C 0.64585 0.25173 0.08448 0.0
H254 H 0.44313 0.67937 0.17903 0.0
H255 H 0.45677 0.64526 0.88174 0.0
H256 H 0.38464 0.5889 0.88177 0.0
H257 H 0.32294 0.54162 0.9783 0.0
H258 H 0.31168 0.57232 0.28051 0.0
H259 H 0.3764 0.63854 0.26545 0.0
C260 C 0.4298 0.66049 0.11314 0.0
C261 C 0.45517 0.66628 0.03069 0.0
C262 C 0.38858 0.62734 0.11483 0.0
C263 C 0.43782 0.6411 0.94639 0.0
C264 C 0.39659 0.60888 0.94636 0.0
C265 C 0.33386 0.56362 0.03931 0.0
C266 C 0.31283 0.55221 0.13042 0.0
C267 C 0.37229 0.60053 0.03182 0.0
C268 C 0.3275 0.58059 0.20966 0.0
C269 C 0.36473 0.61822 0.2014 0.0
H270 H 0.74423 0.42608 0.88295 0.0
H271 H 0.79282 0.48873 0.16157 0.0
H272 H 0.79248 0.42714 0.22797 0.0
H273 H 0.79024 0.36082 0.19452 0.0
H274 H 0.75313 0.30541 0.90348 0.0
H275 H 0.73596 0.3578 0.85481 0.0
C276 C 0.75347 0.4256 0.95936 0.0
C277 C 0.76808 0.4614 0.01798 0.0
C278 C 0.75559 0.39132 0.9941 0.0
C279 C 0.78063 0.46108 0.11613 0.0
C280 C 0.78102 0.42611 0.15327 0.0
C281 C 0.77758 0.35975 0.12116 0.0
C282 C 0.77198 0.3284 0.05364 0.0
C283 C 0.77041 0.39182 0.09118 0.0
C284 C 0.75619 0.32795 0.95838 0.0
C285 C 0.74701 0.35842 0.92981 0.0
H286 H 0.339 0.7491 0.87849 0.0
H287 H 0.28824 0.75256 0.16313 0.0
H288 H 0.34369 0.74707 0.24736 0.0
H289 H 0.4139 0.75567 0.23849 0.0
H290 H 0.46398 0.75114 0.95364 0.0
H291 H 0.40119 0.7417 0.87101 0.0
C292 C 0.33952 0.74747 0.95892 0.0
C293 C 0.31027 0.75213 0.01475 0.0
C294 C 0.37167 0.74466 0.00669 0.0
C295 C 0.31064 0.74926 0.11872 0.0
C296 C 0.34254 0.74648 0.16688 0.0
C297 C 0.41048 0.75149 0.15859 0.0
C298 C 0.44371 0.75488 0.10194 0.0
C299 C 0.3744 0.74639 0.11155 0.0
C300 C 0.43883 0.74879 0.99871 0.0
C301 C 0.40307 0.74372 0.95136 0.0
H302 H 0.624 0.46244 0.74406 0.0
H303 H 0.68078 0.44161 1.00083 0.0
H304 H 0.62162 0.37115 0.01634 0.0
H305 H 0.54879 0.31939 0.97047 0.0
H306 H 0.49223 0.34363 0.7183 0.0
H307 H 0.55583 0.40885 0.68813 0.0
C308 C 0.62374 0.44229 0.80265 0.0
C309 C 0.65653 0.45731 0.87153 0.0
C310 C 0.58919 0.40257 0.81291 0.0
C311 C 0.65602 0.43069 0.94632 0.0
C312 C 0.62194 0.39053 0.9559 0.0
C313 C 0.55097 0.33846 0.90748 0.0
C314 C 0.51595 0.32687 0.84681 0.0
C315 C 0.58764 0.37662 0.89158 0.0
C316 C 0.51874 0.35221 0.76652 0.0
C317 C 0.55508 0.38947 0.74911 0.0
H318 H 0.14789 0.39167 0.71783 0.0
H319 H 0.25316 0.37455 0.76351 0.0
H320 H 0.25812 0.36819 0.58291 0.0
H321 H 0.23511 0.37178 0.4124 0.0
H322 H 0.1319 0.39248 0.36779 0.0
H323 H 0.12402 0.39388 0.54842 0.0
C324 C 0.17231 0.38697 0.68886 0.0
C325 C 0.20071 0.38444 0.75509 0.0
C326 C 0.17543 0.3843 0.58501 0.0
C327 C 0.23102 0.37677 0.71511 0.0
C328 C 0.23394 0.37339 0.61162 0.0
C329 C 0.21072 0.37655 0.44173 0.0
C330 C 0.18422 0.38233 0.37545 0.0
C331 C 0.20675 0.3778 0.54584 0.0
C332 C 0.15278 0.38811 0.41601 0.0
C333 C 0.14833 0.38892 0.51953 0.0
H334 H 0.78285 0.13621 0.63998 0.0
H335 H 0.88384 0.25793 0.71416 0.0
H336 H 0.90575 0.26886 0.53983 0.0
H337 H 0.8859 0.25023 0.36581 0.0
H338 H 0.77805 0.13309 0.29105 0.0
H339 H 0.76925 0.11334 0.4666 0.0
C340 C 0.81034 0.16483 0.61844 0.0
C341 C 0.83117 0.19675 0.68925 0.0
C342 C 0.82077 0.17182 0.51774 0.0
C343 C 0.86722 0.2331 0.66115 0.0
C344 C 0.87932 0.23945 0.56122 0.0
C345 C 0.86078 0.21995 0.38719 0.0
C346 C 0.83152 0.19359 0.31535 0.0
C347 C 0.85472 0.21006 0.48848 0.0
C348 C 0.80021 0.15417 0.34462 0.0
C349 C 0.7952 0.14308 0.44514 0.0
H350 H 0.65003 0.76612 0.76959 0.0
H351 H 0.62557 0.86538 0.83405 0.0
H352 H 0.62767 0.88028 0.65727 0.0
H353 H 0.62013 0.85496 0.48749 0.0
H354 H 0.63251 0.74858 0.4215 0.0
H355 H 0.65177 0.74653 0.59574 0.0
C356 C 0.64614 0.79172 0.7453 0.0
C357 C 0.63732 0.81448 0.81555 0.0
C358 C 0.64425 0.79804 0.64301 0.0
C359 C 0.63294 0.84777 0.78253 0.0
C360 C 0.63343 0.85582 0.68103 0.0
C361 C 0.62792 0.83179 0.51085 0.0
C362 C 0.62405 0.80132 0.44287 0.0
C363 C 0.6366 0.82962 0.61107 0.0
C364 C 0.63507 0.77212 0.47281 0.0
C365 C 0.64565 0.77081 0.5725 0.0
H366 H 0.73442 0.49866 0.52757 0.0
H367 H 0.72062 0.60405 0.59826 0.0
H368 H 0.70572 0.60953 0.42279 0.0
H369 H 0.70461 0.58904 0.24786 0.0
H370 H 0.725 0.48778 0.1787 0.0
H371 H 0.72924 0.47579 0.35599 0.0
C372 C 0.72771 0.52268 0.50541 0.0
C373 C 0.72912 0.55126 0.57633 0.0
C374 C 0.72089 0.52659 0.4045 0.0
C375 C 0.71985 0.58173 0.54558 0.0
C376 C 0.71159 0.585 0.44512 0.0
C377 C 0.70972 0.56417 0.27153 0.0
C378 C 0.71565 0.53992 0.20006 0.0
C379 C 0.71331 0.55836 0.37362 0.0
C380 C 0.72154 0.50746 0.23212 0.0
C381 C 0.72373 0.50054 0.33343 0.0
H382 H 0.11486 0.77736 0.34289 0.0
H383 H 0.24179 0.86338 0.26308 0.0
H384 H 0.26011 0.87839 0.43862 0.0
H385 H 0.24386 0.85354 0.60935 0.0
H386 H 0.11946 0.76037 0.68844 0.0
H387 H 0.096 0.76108 0.51835 0.0
C388 C 0.14632 0.80041 0.36383 0.0
C389 C 0.17731 0.81842 0.2902 0.0
C390 C 0.15719 0.80618 0.46468 0.0
C391 C 0.21751 0.84897 0.31801 0.0
C392 C 0.22809 0.8569 0.41859 0.0
C393 C 0.21142 0.83355 0.58995 0.0
C394 C 0.18354 0.80536 0.6604 0.0
C395 C 0.19884 0.8334 0.49184 0.0
C396 C 0.1415 0.78123 0.63505 0.0
C397 C 0.12825 0.78182 0.53781 0.0
H398 H 0.33076 0.1886 0.58752 0.0
H399 H 0.38278 0.11147 0.66252 0.0
H400 H 0.38268 0.09491 0.48615 0.0
H401 H 0.38375 0.11617 0.31395 0.0
H402 H 0.3421 0.20223 0.24011 0.0
H403 H 0.3225 0.2021 0.41351 0.0
C404 C 0.34084 0.16706 0.56531 0.0
C405 C 0.35753 0.15181 0.63713 0.0
C406 C 0.34397 0.16074 0.46413 0.0
C407 C 0.36981 0.12348 0.60853 0.0
C408 C 0.37047 0.11475 0.50758 0.0
C409 C 0.36987 0.1346 0.33494 0.0
C410 C 0.36576 0.16052 0.26446 0.0
C411 C 0.36027 0.13548 0.43499 0.0
C412 C 0.34671 0.18311 0.29308 0.0
C413 C 0.33537 0.18283 0.39215 0.0
loop_
_geom_bond_atom_site_label_1
_geom_bond_atom_site_label_2
_geom_bond_distance
_geom_bond_site_symmetry_2
_ccdc_geom_bond_type
Zn0 O6 1.920 . S
Zn0 O12 1.898 . S
Zn0 O15 1.905 . S
Zn1 O9 1.905 . S
Zn1 O10 1.898 . S
Zn1 O18 1.920 . S
Zn2 O5 2.080 . S
Zn2 O8 2.114 . S
Zn2 O11 2.120 . S
Zn2 O13 2.120 1_554 S
Zn2 O14 2.114 1_554 S
Zn2 O17 2.080 1_554 S
C3 O8 1.166 . S
C3 O9 1.182 . S
C4 O10 1.167 . S
C4 O11 1.299 . S
O5 Zn2 2.080 . S
O5 C19 1.305 1_554 S
O6 Zn0 1.920 . S
O6 C19 1.234 . S
C7 O12 1.167 . S
C7 O13 1.299 . S
O8 Zn2 2.114 . S
O8 C3 1.166 . S
O9 Zn1 1.905 . S
O9 C3 1.182 . S
O10 Zn1 1.898 . S
O10 C4 1.167 . S
O11 Zn2 2.120 . S
O11 C4 1.299 . S
O12 Zn0 1.898 . S
O12 C7 1.167 . S
O13 Zn2 2.120 1_556 S
O13 C7 1.299 . S
O14 Zn2 2.114 1_556 S
O14 C16 1.166 . S
O15 Zn0 1.905 . S
O15 C16 1.182 . S
C16 O14 1.166 . S
C16 O15 1.182 . S
O17 Zn2 2.080 1_556 S
O17 C20 1.305 1_556 S
O18 Zn1 1.920 . S
O18 C20 1.234 . S
C19 O5 1.305 1_556 S
C19 O6 1.234 . S
C20 O17 1.305 1_554 S
C20 O18 1.234 . S
Zn21 O27 1.920 . S
Zn21 O33 1.898 . S
Zn21 O36 1.905 . S
Zn22 O30 1.905 . S
Zn22 O31 1.898 . S
Zn22 O39 1.920 . S
Zn23 O26 2.080 . S
Zn23 O29 2.114 . S
Zn23 O32 2.120 . S
Zn23 O34 2.120 1_554 S
Zn23 O35 2.114 1_554 S
Zn23 O38 2.080 1_554 S
C24 O29 1.166 . S
C24 O30 1.182 . S
C25 O31 1.167 . S
C25 O32 1.299 . S
O26 Zn23 2.080 . S
O26 C40 1.305 1_554 S
O27 Zn21 1.920 . S
O27 C40 1.234 . S
C28 O33 1.167 . S
C28 O34 1.299 . S
O29 Zn23 2.114 . S
O29 C24 1.166 . S
O30 Zn22 1.905 . S
O30 C24 1.182 . S
O31 Zn22 1.898 . S
O31 C25 1.167 . S
O32 Zn23 2.120 . S
O32 C25 1.299 . S
O33 Zn21 1.898 . S
O33 C28 1.167 . S
O34 Zn23 2.120 1_556 S
O34 C28 1.299 . S
O35 Zn23 2.114 1_556 S
O35 C37 1.166 . S
O36 Zn21 1.905 . S
O36 C37 1.182 . S
C37 O35 1.166 . S
C37 O36 1.182 . S
O38 Zn23 2.080 1_556 S
O38 C41 1.305 1_556 S
O39 Zn22 1.920 . S
O39 C41 1.234 . S
C40 O26 1.305 1_556 S
C40 O27 1.234 . S
C41 O38 1.305 1_554 S
C41 O39 1.234 . S
Zn42 O48 1.920 . S
Zn42 O54 1.898 . S
Zn42 O57 1.905 . S
Zn43 O51 1.905 . S
Zn43 O52 1.898 . S
Zn43 O60 1.920 . S
Zn44 O47 2.080 1_554 S
Zn44 O50 2.114 1_554 S
Zn44 O53 2.120 1_554 S
Zn44 O55 2.120 . S
Zn44 O56 2.114 . S
Zn44 O59 2.080 . S
C45 O50 1.166 . S
C45 O51 1.182 . S
C46 O52 1.167 . S
C46 O53 1.299 . S
O47 Zn44 2.080 1_556 S
O47 C61 1.305 1_556 S
O48 Zn42 1.920 . S
O48 C61 1.234 . S
C49 O54 1.167 . S
C49 O55 1.299 . S
O50 Zn44 2.114 1_556 S
O50 C45 1.166 . S
O51 Zn43 1.905 . S
O51 C45 1.182 . S
O52 Zn43 1.898 . S
O52 C46 1.167 . S
O53 Zn44 2.120 1_556 S
O53 C46 1.299 . S
O54 Zn42 1.898 . S
O54 C49 1.167 . S
O55 Zn44 2.120 . S
O55 C49 1.299 . S
O56 Zn44 2.114 . S
O56 C58 1.166 . S
O57 Zn42 1.905 . S
O57 C58 1.182 . S
C58 O56 1.166 . S
C58 O57 1.182 . S
O59 Zn44 2.080 . S
O59 C62 1.305 1_554 S
O60 Zn43 1.920 . S
O60 C62 1.234 . S
C61 O47 1.305 1_554 S
C61 O48 1.234 . S
C62 O59 1.305 1_556 S
C62 O60 1.234 . S
Zn63 O69 1.920 . S
Zn63 O75 1.898 . S
Zn63 O78 1.905 . S
Zn64 O72 1.905 . S
Zn64 O73 1.898 . S
Zn64 O81 1.920 . S
Zn65 O68 2.080 1_554 S
Zn65 O71 2.114 1_554 S
Zn65 O74 2.120 1_554 S
Zn65 O76 2.120 . S
Zn65 O77 2.114 . S
Zn65 O80 2.080 . S
C66 O71 1.166 . S
C66 O72 1.182 . S
C67 O73 1.167 . S
C67 O74 1.299 . S
O68 Zn65 2.080 1_556 S
O68 C82 1.305 1_556 S
O69 Zn63 1.920 . S
O69 C82 1.234 . S
C70 O75 1.167 . S
C70 O76 1.299 . S
O71 Zn65 2.114 1_556 S
O71 C66 1.166 . S
O72 Zn64 1.905 . S
O72 C66 1.182 . S
O73 Zn64 1.898 . S
O73 C67 1.167 . S
O74 Zn65 2.120 1_556 S
O74 C67 1.299 . S
O75 Zn63 1.898 . S
O75 C70 1.167 . S
O76 Zn65 2.120 . S
O76 C70 1.299 . S
O77 Zn65 2.114 . S
O77 C79 1.166 . S
O78 Zn63 1.905 . S
O78 C79 1.182 . S
C79 O77 1.166 . S
C79 O78 1.182 . S
O80 Zn65 2.080 . S
O80 C83 1.305 1_554 S
O81 Zn64 1.920 . S
O81 C83 1.234 . S
C82 O68 1.305 1_554 S
C82 O69 1.234 . S
C83 O80 1.305 1_556 S
C83 O81 1.234 . S
Zn84 O90 1.920 . S
Zn84 O96 1.898 . S
Zn84 O99 1.905 . S
Zn85 O93 1.905 . S
Zn85 O94 1.898 . S
Zn85 O102 1.920 . S
Zn86 O89 2.080 1_554 S
Zn86 O92 2.114 1_554 S
Zn86 O95 2.120 1_554 S
Zn86 O97 2.120 . S
Zn86 O98 2.114 . S
Zn86 O101 2.080 . S
C87 O92 1.166 . S
C87 O93 1.182 . S
C88 O94 1.167 . S
C88 O95 1.299 . S
O89 Zn86 2.080 1_556 S
O89 C103 1.305 1_556 S
O90 Zn84 1.920 . S
O90 C103 1.234 . S
C91 O96 1.167 . S
C91 O97 1.299 . S
O92 Zn86 2.114 1_556 S
O92 C87 1.166 . S
O93 Zn85 1.905 . S
O93 C87 1.182 . S
O94 Zn85 1.898 . S
O94 C88 1.167 . S
O95 Zn86 2.120 1_556 S
O95 C88 1.299 . S
O96 Zn84 1.898 . S
O96 C91 1.167 . S
O97 Zn86 2.120 . S
O97 C91 1.299 . S
O98 Zn86 2.114 . S
O98 C100 1.166 . S
O99 Zn84 1.905 . S
O99 C100 1.182 . S
C100 O98 1.166 . S
C100 O99 1.182 . S
O101 Zn86 2.080 . S
O101 C104 1.305 1_554 S
O102 Zn85 1.920 . S
O102 C104 1.234 . S
C103 O89 1.305 1_554 S
C103 O90 1.234 . S
C104 O101 1.305 1_556 S
C104 O102 1.234 . S
Zn105 O111 1.920 . S
Zn105 O117 1.898 . S
Zn105 O120 1.905 . S
Zn106 O114 1.905 . S
Zn106 O115 1.898 . S
Zn106 O123 1.920 . S
Zn107 O110 2.080 . S
Zn107 O113 2.114 . S
Zn107 O116 2.120 . S
Zn107 O118 2.120 1_554 S
Zn107 O119 2.114 1_554 S
Zn107 O122 2.080 1_554 S
C108 O113 1.166 . S
C108 O114 1.182 . S
C109 O115 1.167 . S
C109 O116 1.299 . S
O110 Zn107 2.080 . S
O110 C124 1.305 1_554 S
O111 Zn105 1.920 . S
O111 C124 1.234 . S
C112 O117 1.167 . S
C112 O118 1.299 . S
O113 Zn107 2.114 . S
O113 C108 1.166 . S
O114 Zn106 1.905 . S
O114 C108 1.182 . S
O115 Zn106 1.898 . S
O115 C109 1.167 . S
O116 Zn107 2.120 . S
O116 C109 1.299 . S
O117 Zn105 1.898 . S
O117 C112 1.167 . S
O118 Zn107 2.120 1_556 S
O118 C112 1.299 . S
O119 Zn107 2.114 1_556 S
O119 C121 1.166 . S
O120 Zn105 1.905 . S
O120 C121 1.182 . S
C121 O119 1.166 . S
C121 O120 1.182 . S
O122 Zn107 2.080 1_556 S
O122 C125 1.305 1_556 S
O123 Zn106 1.920 . S
O123 C125 1.234 . S
C124 O110 1.305 1_556 S
C124 O111 1.234 . S
C125 O122 1.305 1_554 S
C125 O123 1.234 . S
H126 C132 0.930 1_556 S
H127 C135 0.930 . S
H128 C136 0.930 . S
H129 C137 0.930 1_554 S
H130 C140 0.930 . S
H131 C141 0.930 . S
C132 H126 0.930 1_554 S
C132 C133 1.355 . S
C132 C134 1.415 1_554 S
C133 C132 1.355 . S
C133 C135 1.419 . S
C134 C132 1.415 1_556 S
C134 C139 1.425 1_556 S
C134 C141 1.409 . S
C135 H127 0.930 . S
C135 C133 1.419 . S
C135 C136 1.362 . S
C136 H128 0.930 . S
C136 C135 1.362 . S
C136 C139 1.409 . S
C137 H129 0.930 1_556 S
C137 C138 1.355 . S
C137 C139 1.415 1_556 S
C138 C137 1.355 . S
C138 C140 1.419 . S
C139 C134 1.425 1_554 S
C139 C136 1.409 . S
C139 C137 1.415 1_554 S
C140 H130 0.930 . S
C140 C138 1.419 . S
C140 C141 1.362 . S
C141 H131 0.930 . S
C141 C134 1.409 . S
C141 C140 1.362 . S
H142 C148 0.930 . S
H143 C151 0.930 . S
H144 C152 0.930 1_556 S
H145 C153 0.930 . S
H146 C156 0.930 . S
H147 C157 0.930 1_554 S
C148 H142 0.930 . S
C148 C149 1.355 . S
C148 C150 1.415 . S
C149 C148 1.355 . S
C149 C151 1.419 . S
C150 C148 1.415 . S
C150 C155 1.425 1_454 S
C150 C157 1.409 1_454 S
C151 H143 0.930 . S
C151 C149 1.419 . S
C151 C152 1.362 . S
C152 H144 0.930 1_554 S
C152 C151 1.362 . S
C152 C155 1.409 1_454 S
C153 H145 0.930 . S
C153 C154 1.355 . S
C153 C155 1.415 . S
C154 C153 1.355 . S
C154 C156 1.419 . S
C155 C150 1.425 1_656 S
C155 C152 1.409 1_656 S
C155 C153 1.415 . S
C156 H146 0.930 . S
C156 C154 1.419 . S
C156 C157 1.362 . S
C157 H147 0.930 1_556 S
C157 C150 1.409 1_656 S
C157 C156 1.362 . S
H158 C164 0.930 . S
H159 C167 0.930 . S
H160 C168 0.930 . S
H161 C169 0.930 . S
H162 C172 0.930 . S
H163 C173 0.930 . S
C164 H158 0.930 . S
C164 C165 1.355 . S
C164 C166 1.415 . S
C165 C164 1.355 . S
C165 C167 1.419 1_554 S
C166 C164 1.415 . S
C166 C171 1.425 1_544 S
C166 C173 1.409 1_545 S
C167 H159 0.930 . S
C167 C165 1.419 1_556 S
C167 C168 1.362 . S
C168 H160 0.930 . S
C168 C167 1.362 . S
C168 C171 1.409 1_545 S
C169 H161 0.930 . S
C169 C170 1.355 . S
C169 C171 1.415 . S
C170 C169 1.355 . S
C170 C172 1.419 1_556 S
C171 C166 1.425 1_566 S
C171 C168 1.409 1_565 S
C171 C169 1.415 . S
C172 H162 0.930 . S
C172 C170 1.419 1_554 S
C172 C173 1.362 . S
C173 H163 0.930 . S
C173 C166 1.409 1_565 S
C173 C172 1.362 . S
H174 C180 0.930 . S
H175 C183 0.930 . S
H176 C184 0.930 . S
H177 C185 0.930 . S
H178 C188 0.930 . S
H179 C189 0.930 . S
C180 H174 0.930 . S
C180 C181 1.355 . S
C180 C182 1.415 . S
C181 C180 1.355 . S
C181 C183 1.419 1_556 S
C182 C180 1.415 . S
C182 C187 1.425 1_556 S
C182 C189 1.409 . S
C183 H175 0.930 . S
C183 C181 1.419 1_554 S
C183 C184 1.362 . S
C184 H176 0.930 . S
C184 C183 1.362 . S
C184 C187 1.409 . S
C185 H177 0.930 . S
C185 C186 1.355 . S
C185 C187 1.415 . S
C186 C185 1.355 . S
C186 C188 1.419 1_554 S
C187 C182 1.425 1_554 S
C187 C184 1.409 . S
C187 C185 1.415 . S
C188 H178 0.930 . S
C188 C186 1.419 1_556 S
C188 C189 1.362 . S
C189 H179 0.930 . S
C189 C182 1.409 . S
C189 C188 1.362 . S
H190 C196 0.930 . S
H191 C199 0.930 . S
H192 C200 0.930 . S
H193 C201 0.930 . S
H194 C204 0.930 . S
H195 C205 0.930 . S
C196 H190 0.930 . S
C196 C197 1.355 . S
C196 C198 1.415 . S
C197 C196 1.355 . S
C197 C199 1.419 1_556 S
C198 C196 1.415 . S
C198 C203 1.425 1_456 S
C198 C205 1.409 1_455 S
C199 H191 0.930 . S
C199 C197 1.419 1_554 S
C199 C200 1.362 . S
C200 H192 0.930 . S
C200 C199 1.362 . S
C200 C203 1.409 1_455 S
C201 H193 0.930 . S
C201 C202 1.355 . S
C201 C203 1.415 . S
C202 C201 1.355 . S
C202 C204 1.419 1_554 S
C203 C198 1.425 1_654 S
C203 C200 1.409 1_655 S
C203 C201 1.415 . S
C204 H194 0.930 . S
C204 C202 1.419 1_556 S
C204 C205 1.362 . S
C205 H195 0.930 . S
C205 C198 1.409 1_655 S
C205 C204 1.362 . S
H206 C212 0.930 . S
H207 C215 0.930 . S
H208 C216 0.930 . S
H209 C217 0.930 . S
H210 C220 0.930 . S
H211 C221 0.930 . S
C212 H206 0.930 . S
C212 C213 1.355 . S
C212 C214 1.415 . S
C213 C212 1.355 . S
C213 C215 1.419 1_554 S
C214 C212 1.415 . S
C214 C219 1.425 1_564 S
C214 C221 1.409 1_565 S
C215 H207 0.930 . S
C215 C213 1.419 1_556 S
C215 C216 1.362 . S
C216 H208 0.930 . S
C216 C215 1.362 . S
C216 C219 1.409 1_565 S
C217 H209 0.930 . S
C217 C218 1.355 . S
C217 C219 1.415 . S
C218 C217 1.355 . S
C218 C220 1.419 1_556 S
C219 C214 1.425 1_546 S
C219 C216 1.409 1_545 S
C219 C217 1.415 . S
C220 H210 0.930 . S
C220 C218 1.419 1_554 S
C220 C221 1.362 . S
C221 H211 0.930 . S
C221 C214 1.409 1_545 S
C221 C220 1.362 . S
H222 C228 0.930 . S
H223 C231 0.930 . S
H224 C232 0.930 . S
H225 C233 0.930 . S
H226 C236 0.930 . S
H227 C237 0.930 . S
C228 H222 0.930 . S
C228 C229 1.355 1_556 S
C228 C230 1.415 . S
C229 C228 1.355 1_554 S
C229 C231 1.419 . S
C230 C228 1.415 . S
C230 C235 1.425 1_556 S
C230 C237 1.409 . S
C231 H223 0.930 . S
C231 C229 1.419 . S
C231 C232 1.362 . S
C232 H224 0.930 . S
C232 C231 1.362 . S
C232 C235 1.409 . S
C233 H225 0.930 . S
C233 C234 1.355 1_554 S
C233 C235 1.415 . S
C234 C233 1.355 1_556 S
C234 C236 1.419 . S
C235 C230 1.425 1_554 S
C235 C232 1.409 . S
C235 C233 1.415 . S
C236 H226 0.930 . S
C236 C234 1.419 . S
C236 C237 1.362 . S
C237 H227 0.930 . S
C237 C230 1.409 . S
C237 C236 1.362 . S
H238 C244 0.930 . S
H239 C247 0.930 . S
H240 C248 0.930 . S
H241 C249 0.930 . S
H242 C252 0.930 . S
H243 C253 0.930 . S
C244 H238 0.930 . S
C244 C245 1.355 . S
C244 C246 1.415 . S
C245 C244 1.355 . S
C245 C247 1.419 1_554 S
C246 C244 1.415 . S
C246 C251 1.425 1_554 S
C246 C253 1.409 . S
C247 H239 0.930 . S
C247 C245 1.419 1_556 S
C247 C248 1.362 . S
C248 H240 0.930 . S
C248 C247 1.362 . S
C248 C251 1.409 . S
C249 H241 0.930 . S
C249 C250 1.355 . S
C249 C251 1.415 . S
C250 C249 1.355 . S
C250 C252 1.419 1_556 S
C251 C246 1.425 1_556 S
C251 C248 1.409 . S
C251 C249 1.415 . S
C252 H242 0.930 . S
C252 C250 1.419 1_554 S
C252 C253 1.362 . S
C253 H243 0.930 . S
C253 C246 1.409 . S
C253 C252 1.362 . S
H254 C260 0.930 . S
H255 C263 0.930 . S
H256 C264 0.930 . S
H257 C265 0.930 . S
H258 C268 0.930 . S
H259 C269 0.930 . S
C260 H254 0.930 . S
C260 C261 1.355 1_554 S
C260 C262 1.415 . S
C261 C260 1.355 1_556 S
C261 C263 1.419 . S
C262 C260 1.415 . S
C262 C267 1.425 1_554 S
C262 C269 1.409 . S
C263 H255 0.930 . S
C263 C261 1.419 . S
C263 C264 1.362 . S
C264 H256 0.930 . S
C264 C263 1.362 . S
C264 C267 1.409 . S
C265 H257 0.930 . S
C265 C266 1.355 1_556 S
C265 C267 1.415 . S
C266 C265 1.355 1_554 S
C266 C268 1.419 . S
C267 C262 1.425 1_556 S
C267 C264 1.409 . S
C267 C265 1.415 . S
C268 H258 0.930 . S
C268 C266 1.419 . S
C268 C269 1.362 . S
C269 H259 0.930 . S
C269 C262 1.409 . S
C269 C268 1.362 . S
H270 C276 0.930 . S
H271 C279 0.930 . S
H272 C280 0.930 1_554 S
H273 C281 0.930 . S
H274 C284 0.930 . S
H275 C285 0.930 1_556 S
C276 H270 0.930 . S
C276 C277 1.355 . S
C276 C278 1.415 . S
C277 C276 1.355 . S
C277 C279 1.419 . S
C278 C276 1.415 . S
C278 C283 1.425 1_556 S
C278 C285 1.409 1_556 S
C279 H271 0.930 . S
C279 C277 1.419 . S
C279 C280 1.362 . S
C280 H272 0.930 1_556 S
C280 C279 1.362 . S
C280 C283 1.409 1_556 S
C281 H273 0.930 . S
C281 C282 1.355 . S
C281 C283 1.415 . S
C282 C281 1.355 . S
C282 C284 1.419 . S
C283 C278 1.425 1_554 S
C283 C280 1.409 1_554 S
C283 C281 1.415 . S
C284 H274 0.930 . S
C284 C282 1.419 . S
C284 C285 1.362 . S
C285 H275 0.930 1_554 S
C285 C278 1.409 1_554 S
C285 C284 1.362 . S
H286 C292 0.930 . S
H287 C295 0.930 . S
H288 C296 0.930 . S
H289 C297 0.930 . S
H290 C300 0.930 . S
H291 C301 0.930 . S
C292 H286 0.930 . S
C292 C293 1.355 . S
C292 C294 1.415 . S
C293 C292 1.355 . S
C293 C295 1.419 1_556 S
C294 C292 1.415 . S
C294 C299 1.425 1_556 S
C294 C301 1.409 . S
C295 H287 0.930 . S
C295 C293 1.419 1_554 S
C295 C296 1.362 . S
C296 H288 0.930 . S
C296 C295 1.362 . S
C296 C299 1.409 . S
C297 H289 0.930 . S
C297 C298 1.355 . S
C297 C299 1.415 . S
C298 C297 1.355 . S
C298 C300 1.419 1_554 S
C299 C294 1.425 1_554 S
C299 C296 1.409 . S
C299 C297 1.415 . S
C300 H290 0.930 . S
C300 C298 1.419 1_556 S
C300 C301 1.362 . S
C301 H291 0.930 . S
C301 C294 1.409 . S
C301 C300 1.362 . S
H302 C308 0.930 . S
H303 C311 0.930 . S
H304 C312 0.930 . S
H305 C313 0.930 . S
H306 C316 0.930 . S
H307 C317 0.930 . S
C308 H302 0.930 . S
C308 C309 1.355 1_556 S
C308 C310 1.415 . S
C309 C308 1.355 1_554 S
C309 C311 1.419 . S
C310 C308 1.415 . S
C310 C315 1.425 1_556 S
C310 C317 1.409 . S
C311 H303 0.930 . S
C311 C309 1.419 . S
C311 C312 1.362 . S
C312 H304 0.930 . S
C312 C311 1.362 . S
C312 C315 1.409 . S
C313 H305 0.930 . S
C313 C314 1.355 1_554 S
C313 C315 1.415 . S
C314 C313 1.355 1_556 S
C314 C316 1.419 . S
C315 C310 1.425 1_554 S
C315 C312 1.409 . S
C315 C313 1.415 . S
C316 H306 0.930 . S
C316 C314 1.419 . S
C316 C317 1.362 . S
C317 H307 0.930 . S
C317 C310 1.409 . S
C317 C316 1.362 . S
H318 C324 0.930 . S
H319 C327 0.930 . S
H320 C328 0.930 . S
H321 C329 0.930 . S
H322 C332 0.930 . S
H323 C333 0.930 . S
C324 H318 0.930 . S
C324 C325 1.355 . S
C324 C326 1.415 . S
C325 C324 1.355 . S
C325 C327 1.419 . S
C326 C324 1.415 . S
C326 C331 1.425 . S
C326 C333 1.409 . S
C327 H319 0.930 . S
C327 C325 1.419 . S
C327 C328 1.362 . S
C328 H320 0.930 . S
C328 C327 1.362 . S
C328 C331 1.409 . S
C329 H321 0.930 . S
C329 C330 1.355 . S
C329 C331 1.415 . S
C330 C329 1.355 . S
C330 C332 1.419 . S
C331 C326 1.425 . S
C331 C328 1.409 . S
C331 C329 1.415 . S
C332 H322 0.930 . S
C332 C330 1.419 . S
C332 C333 1.362 . S
C333 H323 0.930 . S
C333 C326 1.409 . S
C333 C332 1.362 . S
H334 C340 0.930 . S
H335 C343 0.930 . S
H336 C344 0.930 . S
H337 C345 0.930 . S
H338 C348 0.930 . S
H339 C349 0.930 . S
C340 H334 0.930 . S
C340 C341 1.355 . S
C340 C342 1.415 . S
C341 C340 1.355 . S
C341 C343 1.419 . S
C342 C340 1.415 . S
C342 C347 1.425 . S
C342 C349 1.409 . S
C343 H335 0.930 . S
C343 C341 1.419 . S
C343 C344 1.362 . S
C344 H336 0.930 . S
C344 C343 1.362 . S
C344 C347 1.409 . S
C345 H337 0.930 . S
C345 C346 1.355 . S
C345 C347 1.415 . S
C346 C345 1.355 . S
C346 C348 1.419 . S
C347 C342 1.425 . S
C347 C344 1.409 . S
C347 C345 1.415 . S
C348 H338 0.930 . S
C348 C346 1.419 . S
C348 C349 1.362 . S
C349 H339 0.930 . S
C349 C342 1.409 . S
C349 C348 1.362 . S
H350 C356 0.930 . S
H351 C359 0.930 . S
H352 C360 0.930 . S
H353 C361 0.930 . S
H354 C364 0.930 . S
H355 C365 0.930 . S
C356 H350 0.930 . S
C356 C357 1.355 . S
C356 C358 1.415 . S
C357 C356 1.355 . S
C357 C359 1.419 . S
C358 C356 1.415 . S
C358 C363 1.425 . S
C358 C365 1.409 . S
C359 H351 0.930 . S
C359 C357 1.419 . S
C359 C360 1.362 . S
C360 H352 0.930 . S
C360 C359 1.362 . S
C360 C363 1.409 . S
C361 H353 0.930 . S
C361 C362 1.355 . S
C361 C363 1.415 . S
C362 C361 1.355 . S
C362 C364 1.419 . S
C363 C358 1.425 . S
C363 C360 1.409 . S
C363 C361 1.415 . S
C364 H354 0.930 . S
C364 C362 1.419 . S
C364 C365 1.362 . S
C365 H355 0.930 . S
C365 C358 1.409 . S
C365 C364 1.362 . S
H366 C372 0.930 . S
H367 C375 0.930 . S
H368 C376 0.930 . S
H369 C377 0.930 . S
H370 C380 0.930 . S
H371 C381 0.930 . S
C372 H366 0.930 . S
C372 C373 1.355 . S
C372 C374 1.415 . S
C373 C372 1.355 . S
C373 C375 1.419 . S
C374 C372 1.415 . S
C374 C379 1.425 . S
C374 C381 1.409 . S
C375 H367 0.930 . S
C375 C373 1.419 . S
C375 C376 1.362 . S
C376 H368 0.930 . S
C376 C375 1.362 . S
C376 C379 1.409 . S
C377 H369 0.930 . S
C377 C378 1.355 . S
C377 C379 1.415 . S
C378 C377 1.355 . S
C378 C380 1.419 . S
C379 C374 1.425 . S
C379 C376 1.409 . S
C379 C377 1.415 . S
C380 H370 0.930 . S
C380 C378 1.419 . S
C380 C381 1.362 . S
C381 H371 0.930 . S
C381 C374 1.409 . S
C381 C380 1.362 . S
H382 C388 0.930 . S
H383 C391 0.930 . S
H384 C392 0.930 . S
H385 C393 0.930 . S
H386 C396 0.930 . S
H387 C397 0.930 . S
C388 H382 0.930 . S
C388 C389 1.355 . S
C388 C390 1.415 . S
C389 C388 1.355 . S
C389 C391 1.419 . S
C390 C388 1.415 . S
C390 C395 1.425 . S
C390 C397 1.409 . S
C391 H383 0.930 . S
C391 C389 1.419 . S
C391 C392 1.362 . S
C392 H384 0.930 . S
C392 C391 1.362 . S
C392 C395 1.409 . S
C393 H385 0.930 . S
C393 C394 1.355 . S
C393 C395 1.415 . S
C394 C393 1.355 . S
C394 C396 1.419 . S
C395 C390 1.425 . S
C395 C392 1.409 . S
C395 C393 1.415 . S
C396 H386 0.930 . S
C396 C394 1.419 . S
C396 C397 1.362 . S
C397 H387 0.930 . S
C397 C390 1.409 . S
C397 C396 1.362 . S
H398 C404 0.930 . S
H399 C407 0.930 . S
H400 C408 0.930 . S
H401 C409 0.930 . S
H402 C412 0.930 . S
H403 C413 0.930 . S
C404 H398 0.930 . S
C404 C405 1.355 . S
C404 C406 1.415 . S
C405 C404 1.355 . S
C405 C407 1.419 . S
C406 C404 1.415 . S
C406 C411 1.425 . S
C406 C413 1.409 . S
C407 H399 0.930 . S
C407 C405 1.419 . S
C407 C408 1.362 . S
C408 H400 0.930 . S
C408 C407 1.362 . S
C408 C411 1.409 . S
C409 H401 0.930 . S
C409 C410 1.355 . S
C409 C411 1.415 . S
C410 C409 1.355 . S
C410 C412 1.419 . S
C411 C406 1.425 . S
C411 C408 1.409 . S
C411 C409 1.415 . S
C412 H402 0.930 . S
C412 C410 1.419 . S
C412 C413 1.362 . S
C413 H403 0.930 . S
C413 C406 1.409 . S
C413 C412 1.362 . S
C133 C121 1.345 1_554 S
C138 C3 1.287 1_556 S
C149 C16 1.224 1_554 S
C154 C24 1.294 1_556 S
C165 C37 1.297 1_554 S
C170 C58 1.227 1_556 S
C181 C79 1.282 1_556 S
C186 C45 1.217 1_554 S
C197 C100 1.214 1_556 S
C202 C66 1.274 1_554 S
C213 C87 1.219 1_554 S
C218 C108 1.217 1_556 S
C229 C103 1.414 . S
C234 C19 1.462 . S
C245 C125 1.473 . S
C250 C40 1.457 . S
C261 C62 1.414 . S
C266 C20 1.487 . S
C277 C83 1.421 . S
C282 C41 1.489 . S
C293 C104 1.458 . S
C298 C61 1.472 . S
C309 C82 1.431 . S
C314 C124 1.439 . S
C325 C7 1.368 . S
C330 C4 1.346 . S
C341 C28 1.248 . S
C346 C25 1.284 . S
C357 C46 1.266 . S
C362 C49 1.310 . S
C373 C67 1.366 . S
C378 C70 1.362 . S
C389 C91 1.332 . S
C394 C88 1.363 . S
C405 C112 1.342 . S
C410 C109 1.299 . S
