# Generated by pormake.
# Topology smc, (6)-cn, num edge types: 1
# Building blocks:
#     Node 0, Type 0, BuildingBlock: UKALOJ_clean_sbu_0, # of connection points: 6
#     Node 1, Type 0, BuildingBlock: UKALOJ_clean_sbu_0, # of connection points: 6
#     Node 2, Type 0, BuildingBlock: UKALOJ_clean_sbu_0, # of connection points: 6
#     Node 3, Type 0, BuildingBlock: UKALOJ_clean_sbu_0, # of connection points: 6
#     Node 4, Type 0, BuildingBlock: UKALOJ_clean_sbu_0, # of connection points: 6
#     Node 5, Type 0, BuildingBlock: UKALOJ_clean_sbu_0, # of connection points: 6
#     Node 6, Type 0, BuildingBlock: UKALOJ_clean_sbu_0, # of connection points: 6
#     Node 7, Type 0, BuildingBlock: UKALOJ_clean_sbu_0, # of connection points: 6
#     Node 8, Type 0, BuildingBlock: UKALOJ_clean_sbu_0, # of connection points: 6
#     Edge 9, Type (0, 0), BuildingBlock: EZIPEK_clean_linker_0, # of connection points: 2
#     Edge 10, Type (0, 0), BuildingBlock: EZIPEK_clean_linker_0, # of connection points: 2
#     Edge 11, Type (0, 0), BuildingBlock: EZIPEK_clean_linker_0, # of connection points: 2
#     Edge 12, Type (0, 0), BuildingBlock: EZIPEK_clean_linker_0, # of connection points: 2
#     Edge 13, Type (0, 0), BuildingBlock: EZIPEK_clean_linker_0, # of connection points: 2
#     Edge 14, Type (0, 0), BuildingBlock: EZIPEK_clean_linker_0, # of connection points: 2
#     Edge 15, Type (0, 0), BuildingBlock: EZIPEK_clean_linker_0, # of connection points: 2
#     Edge 16, Type (0, 0), BuildingBlock: EZIPEK_clean_linker_0, # of connection points: 2
#     Edge 17, Type (0, 0), BuildingBlock: EZIPEK_clean_linker_0, # of connection points: 2
#     Edge 18, Type (0, 0), BuildingBlock: EZIPEK_clean_linker_0, # of connection points: 2
#     Edge 19, Type (0, 0), BuildingBlock: EZIPEK_clean_linker_0, # of connection points: 2
#     Edge 20, Type (0, 0), BuildingBlock: EZIPEK_clean_linker_0, # of connection points: 2
#     Edge 21, Type (0, 0), BuildingBlock: EZIPEK_clean_linker_0, # of connection points: 2
#     Edge 22, Type (0, 0), BuildingBlock: EZIPEK_clean_linker_0, # of connection points: 2
#     Edge 23, Type (0, 0), BuildingBlock: EZIPEK_clean_linker_0, # of connection points: 2
#     Edge 24, Type (0, 0), BuildingBlock: EZIPEK_clean_linker_0, # of connection points: 2
#     Edge 25, Type (0, 0), BuildingBlock: EZIPEK_clean_linker_0, # of connection points: 2
#     Edge 26, Type (0, 0), BuildingBlock: EZIPEK_clean_linker_0, # of connection points: 2
#     Edge 27, Type (0, 0), BuildingBlock: EZIPEK_clean_linker_0, # of connection points: 2
#     Edge 28, Type (0, 0), BuildingBlock: EZIPEK_clean_linker_0, # of connection points: 2
#     Edge 29, Type (0, 0), BuildingBlock: EZIPEK_clean_linker_0, # of connection points: 2
#     Edge 30, Type (0, 0), BuildingBlock: EZIPEK_clean_linker_0, # of connection points: 2
#     Edge 31, Type (0, 0), BuildingBlock: EZIPEK_clean_linker_0, # of connection points: 2
#     Edge 32, Type (0, 0), BuildingBlock: EZIPEK_clean_linker_0, # of connection points: 2
#     Edge 33, Type (0, 0), BuildingBlock: EZIPEK_clean_linker_0, # of connection points: 2
#     Edge 34, Type (0, 0), BuildingBlock: EZIPEK_clean_linker_0, # of connection points: 2
#     Edge 35, Type (0, 0), BuildingBlock: EZIPEK_clean_linker_0, # of connection points: 2
# Relax obj value: 0.087
# Max RMSD: 0.207
# Mean RMSD: 0.207
data_MOF--net-smc--node1-UKALOJ_clean_sbu_0--edge1-EZIPEK_clean_linker_0
_symmetry_space_group_name_H-M    P1
_symmetry_Int_Tables_number       1
_symmetry_cell_setting            triclinic
loop_
_symmetry_equiv_pos_as_xyz
'x, y, z'
_cell_length_a     20.779599
_cell_length_b     20.871547
_cell_length_c     47.041151
_cell_angle_alpha  90.253274
_cell_angle_beta   89.636188
_cell_angle_gamma 119.4945
loop_
_atom_site_label
_atom_site_type_symbol
_atom_site_fract_x
_atom_site_fract_y
_atom_site_fract_z
_atom_type_partial_charge
Zn0 Zn 0.01973 0.45275 0.08138 0.0
O1 O 0.10633 0.55932 0.08221 0.0
C2 C 0.11374 0.40929 0.04871 0.0
Zn3 Zn -0.00018 0.45184 0.03483 0.0
C4 C 0.12393 0.59353 0.05868 0.0
O5 O 0.08841 0.56009 0.0365 0.0
C6 C 0.88908 0.31484 0.05818 0.0
O7 O 0.92787 0.49452 0.04232 0.0
O8 O 0.94777 0.49646 0.08834 0.0
N9 N -0.00475 0.45906 0.9912 0.0
C10 C 0.94144 0.42285 0.97181 0.0
C11 C 0.0438 0.47635 0.94926 0.0
N12 N 0.0585 0.49296 0.97698 0.0
N13 N 0.9708 0.4317 0.94536 0.0
C14 C 0.04704 0.47175 0.14866 0.0
C15 C 0.01928 0.36085 0.15755 0.0
N16 N 0.02691 0.43435 0.12381 0.0
N17 N 0.00976 0.36567 0.12963 0.0
N18 N 0.04269 0.42655 0.17003 0.0
H19 H 0.05582 0.57278 0.13323 0.0
H20 H 0.04817 0.56122 0.17162 0.0
H21 H 0.13309 0.58246 0.15407 0.0
C22 C 0.07205 0.55183 0.15192 0.0
C23 C 0.86078 0.37776 0.97877 0.0
H24 H 0.8469 0.40123 0.9975 0.0
H25 H 0.82687 0.3757 0.96028 0.0
H26 H 0.84706 0.32063 0.98395 0.0
O27 O 0.90945 0.34663 0.03434 0.0
O28 O 0.92878 0.34424 0.07984 0.0
C29 C 0.91832 0.51127 0.06751 0.0
O30 O 0.09697 0.41769 0.07384 0.0
O31 O 0.07567 0.4119 1.02818 0.0
Zn32 Zn 0.55563 0.55175 0.08254 0.0
O33 O 0.43927 0.50039 0.07684 0.0
C34 C 0.57093 0.68694 0.06033 0.0
Zn35 Zn 0.58055 0.5598 0.03582 0.0
C36 C 0.41679 0.48512 0.05121 0.0
O37 O 0.46435 0.50596 0.03127 0.0
C38 C 0.71792 0.61614 0.06684 0.0
O39 O 0.5723 0.45682 0.03452 0.0
O40 O 0.54694 0.44878 0.08004 0.0
N41 N 0.59375 0.57446 0.99231 0.0
C42 C 0.63125 0.56076 0.97178 0.0
C43 C 0.58652 0.62279 0.95277 0.0
N44 N 0.56593 0.61269 0.98027 0.0
N45 N 0.62789 0.59107 0.94679 0.0
C46 C 0.53873 0.58526 0.14712 0.0
C47 C 0.58854 0.52936 0.16719 0.0
N48 N 0.54971 0.54552 0.12673 0.0
N49 N 0.57987 0.51033 0.1395 0.0
N50 N 0.56396 0.57707 0.17258 0.0
H51 H 0.4637 0.61028 0.1249 0.0
H52 H 0.47924 0.63924 0.16186 0.0
H53 H 0.54932 0.68925 0.13562 0.0
C54 C 0.50544 0.63358 0.14208 0.0
C55 C 0.66907 0.51633 0.97604 0.0
H56 H 0.62977 0.45833 0.97043 0.0
H57 H 0.71782 0.53506 0.96187 0.0
H58 H 0.68596 0.51886 0.9985 0.0
O59 O 0.69508 0.60846 0.0414 0.0
O60 O 0.67121 0.59941 0.0869 0.0
C61 C 0.55508 0.4199 0.05745 0.0
O62 O 0.56098 0.65286 0.08351 0.0
O63 O 0.58516 0.66281 0.03777 0.0
Zn64 Zn 0.43464 0.00267 0.03226 0.0
O65 O 0.54715 0.0807 0.03159 0.0
C66 C 0.40107 0.11472 0.05201 0.0
Zn67 Zn 0.43146 0.005 0.07984 0.0
C68 C 0.58017 0.10337 0.05521 0.0
O69 O 0.5445 0.08184 0.07853 0.0
C70 C 0.28719 0.89985 0.05708 0.0
O71 O 0.45921 0.92279 0.08325 0.0
O72 O 0.46355 0.92057 0.03629 0.0
N73 N 0.42737 0.01503 0.12331 0.0
C74 C 0.39581 0.96457 0.14422 0.0
C75 C 0.42384 0.06914 0.16205 0.0
N76 N 0.4452 0.07992 0.13458 0.0
N77 N 0.3922 -0.00284 0.16863 0.0
C78 C 0.45938 0.04114 0.96726 0.0
C79 C 0.37767 0.93991 0.94916 0.0
N80 N 0.42981 -0.00802 0.98867 0.0
N81 N 0.3797 0.92903 0.97724 0.0
N82 N 0.4267 0.00997 0.94228 0.0
H83 H 0.57205 0.11985 0.97547 0.0
H84 H 0.52722 0.15248 0.95158 0.0
H85 H 0.50717 0.14477 0.98939 0.0
C86 C 0.51947 0.11934 0.97095 0.0
C87 C 0.36929 0.8839 0.14085 0.0
H88 H 0.34769 0.86457 0.11924 0.0
H89 H 0.41683 0.87445 0.14402 0.0
H90 H 0.3263 0.8509 0.15685 0.0
O91 O 0.32012 0.92799 0.0802 0.0
O92 O 0.32278 0.92313 0.03394 0.0
C93 C 0.4719 0.89835 0.06039 0.0
O94 O 0.40779 0.08574 1.02926 0.0
O95 O 0.4064 0.08867 0.07562 0.0
Zn96 Zn 0.67621 0.78263 0.41445 0.0
O97 O 0.75675 0.89148 0.41248 0.0
C98 C 0.7736 0.73032 0.39268 0.0
Zn99 Zn 0.67651 0.78037 0.36686 0.0
C100 C 0.78595 0.92401 0.38923 0.0
O101 O 0.77022 0.88743 0.36611 0.0
C102 C 0.55568 0.6465 0.3932 0.0
O103 O 0.61065 0.82862 0.36478 0.0
O104 O 0.59901 0.82037 0.41159 0.0
N105 N 0.67914 0.76995 0.32296 0.0
C106 C 0.6262 0.73676 0.30293 0.0
C107 C 0.72904 0.76266 0.28349 0.0
N108 N 0.74288 0.78633 0.31063 0.0
N109 N 0.65609 0.73065 0.27807 0.0
C110 C 0.72306 0.79265 0.47872 0.0
C111 C 0.61735 0.74011 0.49887 0.0
N112 N 0.67259 0.78239 0.45859 0.0
N113 N 0.60724 0.75059 0.47141 0.0
N114 N 0.68952 0.7653 0.50402 0.0
H115 H 0.81939 0.84563 0.45148 0.0
H116 H 0.83199 0.87955 0.48749 0.0
H117 H 0.82652 0.79304 0.4806 0.0
C118 C 0.80484 0.82958 0.47394 0.0
C119 C 0.54547 0.70899 0.30787 0.0
H120 H 0.53777 0.74872 0.32112 0.0
H121 H 0.51599 0.70045 0.28742 0.0
H122 H 0.5209 0.65575 0.31934 0.0
O123 O 0.5808 0.67769 0.36943 0.0
O124 O 0.59207 0.67418 0.41565 0.0
C125 C 0.58431 0.83865 0.38773 0.0
O126 O 0.75375 0.74788 0.4156 0.0
O127 O 0.7442 0.73344 0.36958 0.0
Zn128 Zn 0.21572 0.89772 0.36414 0.0
O129 O 0.17181 0.78305 0.3668 0.0
C130 C 0.35653 0.91827 0.38461 0.0
Zn131 Zn 0.2225 0.91183 0.41137 0.0
C132 C 0.15821 0.75505 0.39163 0.0
O133 O 0.17499 0.79667 0.41337 0.0
C134 C 0.26955 0.05296 0.38361 0.0
O135 O 0.11602 0.89605 0.4137 0.0
O136 O 0.10852 0.87871 0.36775 0.0
N137 N 0.23493 0.92031 0.45498 0.0
C138 C 0.22756 0.96325 0.4749 0.0
C139 C 0.27632 0.90648 0.49516 0.0
N140 N 0.26485 0.88494 0.46776 0.0
N141 N 0.2538 0.95597 0.50026 0.0
C142 C 0.24531 0.88394 0.29928 0.0
C143 C 0.19671 0.94304 0.28088 0.0
N144 N 0.20912 0.89763 0.32034 0.0
N145 N 0.17822 0.93347 0.30865 0.0
N146 N 0.23953 0.91317 0.27447 0.0
H147 H 0.2585 0.79847 0.31852 0.0
H148 H 0.29308 0.82058 0.28241 0.0
H149 H 0.34375 0.88187 0.31099 0.0
C150 C 0.28751 0.84362 0.30299 0.0
C151 C 0.19668 0.01353 0.46943 0.0
H152 H 0.15773 -0.0064 0.45141 0.0
H153 H 0.16864 0.01863 0.48877 0.0
H154 H 0.24216 0.06904 0.46383 0.0
O155 O 0.26529 0.02653 0.40827 0.0
O156 O 0.25467 0.01055 0.36239 0.0
C157 C 0.07809 0.87973 0.39112 0.0
O158 O 0.32293 0.91419 0.36168 0.0
O159 O 0.32865 0.92168 0.40827 0.0
Zn160 Zn 0.10469 0.33931 0.41771 0.0
O161 O 0.13619 0.25819 0.41483 0.0
C162 C 0.95866 0.23285 0.39692 0.0
Zn163 Zn 0.09947 0.3487 0.37064 0.0
C164 C 0.15274 0.24547 0.39015 0.0
O165 O 0.14076 0.27436 0.36846 0.0
C166 C 0.06095 0.45026 0.39898 0.0
O167 O 0.20797 0.43199 0.36808 0.0
O168 O 0.21539 0.4178 0.41418 0.0
N169 N 0.09039 0.34804 0.32717 0.0
C170 C 0.10059 0.40113 0.30841 0.0
C171 C 0.06219 0.30133 0.285 0.0
N172 N 0.06684 0.2862 0.31251 0.0
N173 N 0.08304 0.37305 0.28194 0.0
C174 C 0.08263 0.2969 0.48276 0.0
C175 C 0.13519 0.40368 0.5015 0.0
N176 N 0.11415 0.34582 0.46141 0.0
N177 N 0.14776 0.41203 0.47327 0.0
N178 N 0.09425 0.33182 0.50801 0.0
H179 H 0.03584 0.19885 0.45664 0.0
H180 H 0.06965 0.1909 0.49087 0.0
H181 H -0.01468 0.19335 0.48934 0.0
C182 C 0.04053 0.21523 0.47927 0.0
C183 C 0.12549 0.47971 0.31587 0.0
H184 H 0.16055 0.49686 0.33509 0.0
H185 H 0.15656 0.5164 0.29787 0.0
H186 H 0.07615 0.48577 0.31999 0.0
O187 O 0.0625 0.42631 0.37428 0.0
O188 O 0.07621 0.42242 0.41996 0.0
C189 C 0.24557 0.44677 0.39065 0.0
O190 O -0.00604 0.25907 0.41988 0.0
O191 O -0.00938 0.26076 0.37345 0.0
Zn192 Zn 0.35012 0.12382 0.6974 0.0
O193 O 0.28028 0.16904 0.70188 0.0
C194 C 0.23451 -0.01545 0.71976 0.0
Zn195 Zn 0.36453 0.11673 0.74399 0.0
C196 C 0.2721 0.18508 0.72731 0.0
O197 O 0.29889 0.16597 0.74754 0.0
C198 C 0.45357 0.0682 0.71479 0.0
O199 O 0.45521 0.2225 0.74514 0.0
O200 O 0.43931 0.23053 0.69971 0.0
N201 N 0.36292 0.10609 0.78741 0.0
C202 C 0.41273 0.11127 0.80692 0.0
C203 C 0.30922 0.07137 0.8283 0.0
N204 N 0.29891 0.08161 0.80086 0.0
N205 N 0.38004 0.08907 0.8327 0.0
C206 C 0.29981 0.09586 0.63339 0.0
C207 C 0.40472 0.13891 0.6129 0.0
N208 N 0.35201 0.12896 0.65361 0.0
N209 N 0.41698 0.1563 0.64066 0.0
N210 N 0.33161 0.10028 0.60769 0.0
H211 H 0.20571 0.086 0.65647 0.0
H212 H 0.18812 0.05745 0.61945 0.0
H213 H 0.19839 0.00025 0.64546 0.0
C214 C 0.21821 0.058 0.63895 0.0
C215 C 0.49236 0.1361 0.80064 0.0
H216 H 0.51198 0.1734 0.78206 0.0
H217 H 0.52697 0.16401 0.81947 0.0
H218 H 0.49868 0.0876 0.79555 0.0
O219 O 0.43284 0.07242 0.73979 0.0
O220 O 0.42443 0.08277 0.69397 0.0
C221 C 0.47399 0.26034 0.72248 0.0
O222 O 0.25801 0.01858 0.69643 0.0
O223 O 0.27106 0.01136 0.74238 0.0
Zn224 Zn 0.90987 0.23279 0.70296 0.0
O225 O 0.87709 0.12446 0.70717 0.0
C226 C 0.04787 0.26375 0.72979 0.0
Zn227 Zn 0.9035 0.24367 0.75008 0.0
C228 C 0.85912 0.0928 0.73109 0.0
O229 O 0.86567 0.12928 0.75367 0.0
C230 C 0.94815 0.38277 0.72082 0.0
O231 O 0.79361 0.21992 0.74801 0.0
O232 O 0.79762 0.20236 0.70218 0.0
N233 N 0.90708 0.25479 0.79367 0.0
C234 C 0.88279 0.28735 0.81251 0.0
C235 C 0.95309 0.25779 0.83498 0.0
N236 N 0.95013 0.23604 0.80784 0.0
N237 N 0.9119 0.2908 0.83856 0.0
C238 C 0.96477 0.26 0.63992 0.0
C239 C 0.87346 0.17413 0.6179 0.0
N240 N 0.91164 0.22209 0.65947 0.0
N241 N 0.855 0.16876 0.64569 0.0
N242 N 0.94229 0.23076 0.61382 0.0
H243 H 0.03839 0.35251 0.6661 0.0
H244 H 0.07965 0.30477 0.64853 0.0
H245 H 0.05793 0.36433 0.62834 0.0
C246 C 0.03918 0.32451 0.64621 0.0
C247 C 0.83111 0.31553 0.80526 0.0
H248 H 0.85247 0.35256 0.7866 0.0
H249 H 0.77666 0.26843 0.79936 0.0
H250 H 0.82327 0.34508 0.82344 0.0
O251 O 0.93905 0.35424 0.74534 0.0
O252 O 0.94003 0.3433 0.6991 0.0
C253 C 0.76058 0.19849 0.7244 0.0
O254 O 0.01959 0.25576 0.70532 0.0
O255 O 0.01285 0.26611 0.75151 0.0
Zn256 Zn 0.78035 0.66407 0.74605 0.0
O257 O 0.79748 0.57478 0.74634 0.0
C258 C 0.63316 0.5676 0.72362 0.0
Zn259 Zn 0.78155 0.66589 0.69832 0.0
C260 C 0.80762 0.54992 0.7231 0.0
O261 O 0.80337 0.57862 0.69989 0.0
C262 C 0.76539 0.78657 0.7214 0.0
O263 O 0.89617 0.73778 0.69758 0.0
O264 O 0.89468 0.73231 0.74451 0.0
N265 N 0.77189 0.65766 0.6543 0.0
C266 C 0.79162 0.70732 0.63299 0.0
C267 C 0.71399 0.60305 0.61582 0.0
N268 N 0.72436 0.59288 0.64331 0.0
N269 N 0.755 0.6746 0.60881 0.0
C270 C 0.74669 0.62101 0.81096 0.0
C271 C 0.79494 0.72759 0.82988 0.0
N272 N 0.78066 0.67071 0.78993 0.0
N273 N 0.81085 0.7367 0.8019 0.0
N274 N 0.75439 0.65551 0.83618 0.0
H275 H 0.69864 0.5236 0.7843 0.0
H276 H 0.73998 0.51676 0.81702 0.0
H277 H 0.65273 0.51316 0.81803 0.0
C278 C 0.70696 0.53911 0.80704 0.0
C279 C 0.84469 0.78783 0.6359 0.0
H280 H 0.89348 0.79618 0.64822 0.0
H281 H 0.86329 0.8141 0.61475 0.0
H282 H 0.81718 0.81456 0.64719 0.0
O283 O 0.76246 0.75529 0.69788 0.0
O284 O 0.76827 0.75728 0.74454 0.0
C285 C 0.9299 0.75651 0.72127 0.0
O286 O 0.6665 0.59393 0.74688 0.0
O287 O 0.6688 0.59196 0.70056 0.0
C288 C 0.28403 0.39263 0.06368 0.0
C289 C 0.33578 0.44637 0.04467 0.0
C290 C 0.23834 0.4639 1.02414 0.0
C291 C 0.18605 0.41232 0.04371 0.0
N292 N 0.15468 0.31228 0.07618 0.0
N293 N 0.34876 0.49671 0.99713 0.0
C294 C 0.20758 0.37158 0.06162 0.0
C295 C 0.30886 0.4699 1.02164 0.0
N296 N 0.30792 0.36108 0.08331 0.0
N297 N 0.22439 0.51206 1.00947 0.0
H298 H 0.3964 0.49419 0.99245 0.0
H299 H 0.3278 0.51015 0.97944 0.0
H300 H 0.17614 0.51487 1.01139 0.0
H301 H 0.26494 0.55549 0.99763 0.0
H302 H 0.27556 0.329 0.10016 0.0
H303 H 0.36104 0.36761 0.08271 0.0
H304 H 0.16552 0.27672 0.08805 0.0
H305 H 0.09839 0.29464 0.07418 0.0
C306 C 0.56796 0.86469 0.07269 0.0
C307 C 0.49712 0.8444 0.06155 0.0
C308 C 0.48131 0.72663 0.04562 0.0
C309 C 0.54966 0.74413 0.05872 0.0
N310 N 0.65369 0.82453 0.08786 0.0
N311 N 0.37958 0.75183 0.04328 0.0
C312 C 0.59166 0.81159 0.0733 0.0
C313 C 0.45187 0.77421 0.04961 0.0
N314 N 0.61361 0.93534 0.08157 0.0
N315 N 0.44431 0.6648 1.02928 0.0
H316 H 0.35567 0.78511 0.04642 0.0
H317 H 0.34124 0.69804 0.03764 0.0
H318 H 0.46166 0.62637 1.02631 0.0
H319 H 0.39932 0.65455 1.01661 0.0
H320 H 0.66892 0.95554 0.08678 0.0
H321 H 0.598 0.97576 0.08176 0.0
H322 H 0.68154 0.86871 0.10172 0.0
H323 H 0.67507 0.78858 0.08735 0.0
C324 C 0.19852 0.78685 0.03188 0.0
C325 C 0.21959 0.82659 0.05757 0.0
C326 C 0.18942 0.71548 0.08381 0.0
C327 C 0.17197 0.67507 0.05793 0.0
N328 N 0.187 0.68102 1.00676 0.0
N329 N 0.19648 0.8215 0.10769 0.0
C330 C 0.18313 0.71288 0.03165 0.0
C331 C 0.20147 0.78809 0.08349 0.0
N332 N 0.19351 0.82048 1.00786 0.0
N333 N 0.20255 0.68809 0.10802 0.0
H334 H 0.20192 0.87398 0.10714 0.0
H335 H 0.17877 0.79403 0.12707 0.0
H336 H 0.20829 0.6412 0.10793 0.0
H337 H 0.21976 0.71812 0.12689 0.0
H338 H 0.17287 0.79281 0.98871 0.0
H339 H 0.20232 0.87427 1.00841 0.0
H340 H 0.20031 0.7083 0.9873 0.0
H341 H 0.18805 0.63167 1.00627 0.0
C342 C 0.42612 0.22683 0.07812 0.0
C343 C 0.4136 0.19091 0.05161 0.0
C344 C 0.50856 0.30322 1.02972 0.0
C345 C 0.52387 0.33885 0.05652 0.0
N346 N 0.51726 0.32341 0.10747 0.0
N347 N 0.41644 0.20494 1.00097 0.0
C348 C 0.48806 0.29762 0.08123 0.0
C349 C 0.44611 0.23266 1.02692 0.0
N350 N 0.37877 0.19243 0.10019 0.0
N351 N 0.55735 0.33368 1.00776 0.0
H352 H 0.36742 0.15482 0.99907 0.0
H353 H 0.43545 0.23524 0.98223 0.0
H354 H 0.60942 0.37953 1.01081 0.0
H355 H 0.5509 0.30733 0.98825 0.0
H356 H 0.38219 0.21803 0.11964 0.0
H357 H 0.33156 0.14105 0.09755 0.0
H358 H 0.49605 0.29292 0.12603 0.0
H359 H 0.56863 0.37063 0.11001 0.0
C360 C 0.71106 0.13805 0.04266 0.0
C361 C 0.66001 0.1555 0.05595 0.0
C362 C 0.76129 0.26349 0.07796 0.0
C363 C 0.81283 0.25295 0.0613 0.0
N364 N 0.8369 0.18233 1.02637 0.0
N365 N 0.63694 0.24417 0.08031 0.0
C366 C 0.78766 0.19081 0.04315 0.0
C367 C 0.68519 0.22076 0.07197 0.0
N368 N 0.68696 0.07029 0.03064 0.0
N369 N 0.7838 0.31344 0.09969 0.0
H370 H 0.58081 0.21593 0.0753 0.0
H371 H 0.65406 0.29579 0.08931 0.0
H372 H 0.83826 0.34524 0.1061 0.0
H373 H 0.74679 0.31687 0.11384 0.0
H374 H 0.72251 0.05195 1.02335 0.0
H375 H 0.63147 0.02967 0.03017 0.0
H376 H 0.82092 0.14356 1.01009 0.0
H377 H 0.89399 0.21648 1.02797 0.0
C378 C 0.89388 0.61228 0.05166 0.0
C379 C 0.88096 0.55609 0.07175 0.0
C380 C 0.79909 0.5892 0.09759 0.0
C381 C 0.79155 0.62275 0.07274 0.0
N382 N 0.84578 0.68379 1.02863 0.0
N383 N 0.81897 0.49259 0.11533 0.0
C384 C 0.84397 0.64042 0.05058 0.0
C385 C 0.83404 0.54577 0.09552 0.0
N386 N 0.95559 0.64128 0.03478 0.0
N387 N 0.77401 0.5997 0.1231 0.0
H388 H 0.84145 0.4579 0.11491 0.0
H389 H 0.77868 0.47894 0.13104 0.0
H390 H 0.7548 0.63718 0.12545 0.0
H391 H 0.78226 0.57968 0.1422 0.0
H392 H 0.97046 0.68584 1.02127 0.0
H393 H -0.00322 0.62686 0.03686 0.0
H394 H 0.87551 0.69052 1.00991 0.0
H395 H 0.81613 0.71217 1.0293 0.0
C396 C 0.88576 0.75851 0.3659 0.0
C397 C 0.84653 0.73405 0.39166 0.0
C398 C 0.95806 0.81206 0.41836 0.0
C399 C -0.004 0.84334 0.39235 0.0
N400 N -0.01512 0.86284 0.34238 0.0
N401 N 0.85236 0.70881 0.44071 0.0
C402 C 0.95685 0.82092 0.36626 0.0
C403 C 0.88583 0.7507 0.41734 0.0
N404 N 0.85407 0.7226 0.34123 0.0
N405 N -0.01304 0.84545 0.44375 0.0
H406 H 0.79883 0.66386 0.43961 0.0
H407 H 0.87983 0.71418 0.45979 0.0
H408 H 0.03211 0.89837 0.44503 0.0
H409 H 0.95949 0.82652 0.4631 0.0
H410 H 0.88224 0.73548 0.32185 0.0
H411 H 0.80244 0.67481 0.34124 0.0
H412 H 0.95578 0.85117 0.32335 0.0
H413 H 0.03241 0.91452 0.34287 0.0
C414 C 0.25425 0.21923 0.40495 0.0
C415 C 0.19388 0.20459 0.38666 0.0
C416 C 0.22687 0.12843 0.35752 0.0
C417 C 0.26845 0.12344 0.38024 0.0
N418 N 0.33502 0.17605 0.42349 0.0
N419 N 0.11785 0.13578 0.34662 0.0
C420 C 0.28656 0.17293 0.40336 0.0
C421 C 0.1791 0.15703 0.36303 0.0
N422 N 0.28352 0.27933 0.42247 0.0
N423 N 0.23378 0.10726 0.33072 0.0
H424 H 0.07751 0.15029 0.35117 0.0
H425 H 0.1031 0.09657 0.33052 0.0
H426 H 0.27482 0.09415 0.32549 0.0
H427 H 0.20655 0.11349 0.3133 0.0
H428 H 0.33108 0.29552 0.43443 0.0
H429 H 0.26583 0.31814 0.42262 0.0
H430 H 0.34312 0.20355 0.4428 0.0
H431 H 0.36598 0.14939 0.42079 0.0
C432 C 0.85346 0.12644 0.37141 0.0
C433 C 0.89146 0.1589 0.397 0.0
C434 C 0.86636 0.0406 0.4146 0.0
C435 C 0.82741 0.0056 0.3895 0.0
N436 N 0.76083 0.01532 0.34867 0.0
N437 N 0.88606 0.13705 0.44734 0.0
C438 C 0.81414 0.04822 0.36896 0.0
C439 C 0.88212 0.11286 0.42018 0.0
N440 N 0.8533 0.17005 0.34993 0.0
N441 N 0.89043 0.00624 0.43278 0.0
H442 H 0.89138 0.18851 0.45181 0.0
H443 H 0.87449 0.10215 0.46475 0.0
H444 H 0.88743 0.95614 0.42772 0.0
H445 H 0.92162 0.03245 0.45078 0.0
H446 H 0.83562 0.15066 0.3294 0.0
H447 H 0.87195 0.22608 0.35288 0.0
H448 H 0.74515 0.04468 0.33522 0.0
H449 H 0.72601 0.95885 0.34707 0.0
C450 C 0.0608 0.62557 0.37867 0.0
C451 C 0.1226 0.67428 0.39553 0.0
C452 C 0.10436 0.56981 0.42418 0.0
C453 C 0.06025 0.52103 0.40249 0.0
N454 N -0.01618 0.50064 0.36148 0.0
N455 N 0.21045 0.68851 0.43219 0.0
C456 C 0.03434 0.5484 0.3804 0.0
C457 C 0.14624 0.64542 0.41788 0.0
N458 N 0.02519 0.65233 0.36233 0.0
N459 N 0.10522 0.54478 0.45083 0.0
H460 H 0.24761 0.74266 0.42647 0.0
H461 H 0.23099 0.66724 0.44745 0.0
H462 H 0.0675 0.49133 0.4572 0.0
H463 H 0.13467 0.57998 0.46751 0.0
H464 H 0.9764 0.61876 0.35146 0.0
H465 H 0.0396 0.70775 0.36207 0.0
H466 H 0.97 0.5174 0.34276 0.0
H467 H 0.95675 0.44374 0.36454 0.0
C468 C 0.37341 0.4757 0.37774 0.0
C469 C 0.32466 0.49755 0.38998 0.0
C470 C 0.42729 0.60731 0.40981 0.0
C471 C 0.47735 0.59007 0.39518 0.0
N472 N 0.49881 0.51148 0.36335 0.0
N473 N 0.30354 0.59 0.41175 0.0
C474 C 0.45057 0.52526 0.37851 0.0
C475 C 0.35108 0.56482 0.40442 0.0
N476 N 0.34612 0.40686 0.36632 0.0
N477 N 0.45148 0.66448 0.42865 0.0
H478 H 0.24683 0.56042 0.40782 0.0
H479 H 0.32127 0.64346 0.41882 0.0
H480 H 0.50636 0.70171 0.4325 0.0
H481 H 0.41617 0.67197 0.44237 0.0
H482 H 0.37918 0.38457 0.36015 0.0
H483 H 0.28972 0.36981 0.36469 0.0
H484 H 0.48217 0.47027 0.34801 0.0
H485 H 0.55609 0.54362 0.36518 0.0
C486 C 0.40233 0.83034 0.37417 0.0
C487 C 0.41727 0.90083 0.38426 0.0
C488 C 0.54488 0.93289 0.39502 0.0
C489 C 0.52821 0.86139 0.3861 0.0
N490 N 0.44211 0.73985 0.36903 0.0
N491 N 0.49957 0.01779 0.40586 0.0
C492 C 0.45755 0.80991 0.37581 0.0
C493 C 0.48777 0.95182 0.39519 0.0
N494 N 0.33449 0.78188 0.36351 0.0
N495 N 0.61586 0.98301 0.40236 0.0
H496 H 0.46022 0.03494 0.40473 0.0
H497 H 0.54684 0.05448 0.41686 0.0
H498 H 0.65852 0.97027 0.40262 0.0
H499 H 0.63402 0.03826 0.40654 0.0
H500 H 0.32344 0.7362 0.35113 0.0
H501 H 0.28861 0.78815 0.36634 0.0
H502 H 0.38958 0.69637 0.3648 0.0
H503 H 0.48146 0.72284 0.36917 0.0
C504 C 0.63187 0.10628 0.74257 0.0
C505 C 0.67863 0.16103 0.72235 0.0
C506 C 0.57393 0.11867 0.6898 0.0
C507 C 0.52655 0.07256 0.71133 0.0
N508 N 0.51268 -0.00276 0.75134 0.0
N509 N 0.68779 0.23007 0.67986 0.0
C510 C 0.55676 0.0582 0.73551 0.0
C511 C 0.64796 0.16975 0.69667 0.0
N512 N 0.65641 0.10217 0.76905 0.0
N513 N 0.54854 0.11197 0.66268 0.0
H514 H 0.73996 0.27271 0.68551 0.0
H515 H 0.6654 0.24217 0.66228 0.0
H516 H 0.49616 0.06988 0.6569 0.0
H517 H 0.58236 0.14103 0.64558 0.0
H518 H 0.62127 0.06995 0.7853 0.0
H519 H 0.71009 0.1338 0.77625 0.0
H520 H 0.53193 0.97807 0.7678 0.0
H521 H 0.45779 0.96159 0.74565 0.0
C522 C 0.93878 0.48373 0.74348 0.0
C523 C 0.94333 0.45082 0.71797 0.0
C524 C 0.8512 0.47451 0.69635 0.0
C525 C 0.84095 0.50114 0.7229 0.0
N526 N 0.85565 0.50097 0.77402 0.0
N527 N 0.93335 0.45015 0.66722 0.0
C528 C 0.87994 0.49847 0.74723 0.0
C529 C 0.90923 0.45804 0.69334 0.0
N530 N -0.01097 0.49741 0.76442 0.0
N531 N 0.8015 0.4587 0.67493 0.0
H532 H 0.97942 0.44292 0.66497 0.0
H533 H 0.91384 0.45978 0.64826 0.0
H534 H 0.75284 0.46102 0.67782 0.0
H535 H 0.80333 0.43382 0.65592 0.0
H536 H -0.00831 0.52612 0.78297 0.0
H537 H 0.03252 0.48637 0.76143 0.0
H538 H 0.88042 0.49532 0.79232 0.0
H539 H 0.80362 0.49501 0.77781 0.0
C540 C 0.54637 0.45388 0.74925 0.0
C541 C 0.56659 0.49326 0.72346 0.0
C542 C 0.53719 0.38137 0.69738 0.0
C543 C 0.52171 0.34201 0.72339 0.0
N544 N 0.54022 0.35086 0.77442 0.0
N545 N 0.54515 0.48725 0.67327 0.0
C546 C 0.53342 0.38062 0.7496 0.0
C547 C 0.54939 0.45416 0.69757 0.0
N548 N 0.5397 0.48705 0.77326 0.0
N549 N 0.5469 0.35163 0.67291 0.0
H550 H 0.55109 0.53997 0.67364 0.0
H551 H 0.52776 0.45961 0.65391 0.0
H552 H 0.54846 0.30239 0.6728 0.0
H553 H 0.56365 0.38043 0.65379 0.0
H554 H 0.51959 0.45936 0.79246 0.0
H555 H 0.54647 0.54007 0.77271 0.0
H556 H 0.55316 0.37905 0.79372 0.0
H557 H 0.54558 0.30384 0.77493 0.0
C558 C 0.85559 0.91817 0.71191 0.0
C559 C 0.78467 0.86437 0.72208 0.0
C560 C 0.76234 0.96189 0.7399 0.0
C561 C 0.8355 0.01435 0.73182 0.0
N562 N 0.95697 0.04222 0.71584 0.0
N563 N 0.67332 0.83356 0.74849 0.0
C564 C 0.88353 -0.00767 0.71949 0.0
C565 C 0.73893 0.88581 0.73707 0.0
N566 N 0.8972 0.89913 0.69506 0.0
N567 N 0.7143 -0.01522 0.74881 0.0
H568 H 0.65211 0.77729 0.74506 0.0
H569 H 0.64177 0.84577 0.76246 0.0
H570 H 0.7302 0.04016 0.75116 0.0
H571 H 0.65794 0.94955 0.75192 0.0
H572 H 0.94333 0.93712 0.68362 0.0
H573 H 0.88404 0.84543 0.69112 0.0
H574 H -0.00327 0.02753 0.7105 0.0
H575 H 0.97982 0.09788 0.72074 0.0
C576 C 0.0615 0.79996 0.7076 0.0
C577 C 0.00867 0.8124 0.72216 0.0
C578 C 0.10573 0.93305 0.73816 0.0
C579 C 0.15794 0.9233 0.72162 0.0
N580 N 0.18612 0.85152 0.68871 0.0
N581 N 0.97768 0.89329 0.74865 0.0
C582 C 0.13595 0.85793 0.70571 0.0
C583 C 0.03008 0.87913 0.73706 0.0
N584 N 0.04106 0.73164 0.69679 0.0
N585 N 0.12782 -0.00534 0.75456 0.0
H586 H 0.92128 0.85596 0.74865 0.0
H587 H -0.01131 0.9446 0.75623 0.0
H588 H 0.17959 0.04125 0.75319 0.0
H589 H 0.09554 -0.00118 0.7707 0.0
H590 H 0.07824 0.71663 0.68843 0.0
H591 H -0.01271 0.68749 0.69836 0.0
H592 H 0.17174 0.80949 0.67389 0.0
H593 H 0.24222 0.89061 0.68831 0.0
C594 C 0.18028 0.20231 0.75651 0.0
C595 C 0.23031 0.22435 0.73331 0.0
C596 C 0.17658 0.29739 0.7151 0.0
C597 C 0.11498 0.25761 0.73335 0.0
N598 N 0.0543 0.16127 0.76908 0.0
N599 N 0.28786 0.3071 0.6939 0.0
C600 C 0.11585 0.20776 0.75372 0.0
C601 C 0.23222 0.27661 0.71358 0.0
N602 N 0.194 0.17797 0.78144 0.0
N603 N 0.18257 0.3559 0.7 0.0
H604 H 0.33482 0.30117 0.69495 0.0
H605 H 0.28744 0.33782 0.6766 0.0
H606 H 0.14401 0.374 0.70181 0.0
H607 H 0.22858 0.39058 0.6878 0.0
H608 H 0.15958 0.16552 0.79919 0.0
H609 H 0.24469 0.18235 0.78634 0.0
H610 H 0.05197 0.11898 0.78157 0.0
H611 H 0.00294 0.15776 0.767 0.0
C612 C 0.14116 0.43649 0.23716 0.0
C613 C 0.07989 0.40758 0.25594 0.0
C614 C 0.00433 0.42273 0.21963 0.0
C615 C 0.06166 0.44016 0.19964 0.0
N616 N 0.18614 0.4707 0.18858 0.0
N617 N 0.95611 0.3796 0.26728 0.0
C618 C 0.13136 0.45099 0.20842 0.0
C619 C 0.01263 0.40412 0.24796 0.0
N620 N 0.20782 0.44821 0.24695 0.0
N621 N 0.94129 0.42157 0.21082 0.0
H622 H 0.96205 0.36702 0.28821 0.0
H623 H 0.90337 0.37061 0.26282 0.0
H624 H 0.93514 0.43468 0.18999 0.0
H625 H 0.89715 0.41184 0.22406 0.0
H626 H 0.25659 0.47284 0.23516 0.0
H627 H 0.21501 0.43677 0.2679 0.0
H628 H 0.23673 0.47359 0.19241 0.0
H629 H 0.17989 0.48325 0.16768 0.0
C630 C 0.64328 0.73335 0.22598 0.0
C631 C 0.62165 0.69329 0.25178 0.0
C632 C 0.54597 0.58011 0.2245 0.0
C633 C 0.57709 0.61837 0.1988 0.0
N634 N 0.66837 0.72988 0.1759 0.0
N635 N 0.56253 0.57528 0.27521 0.0
C636 C 0.62871 0.69492 0.19965 0.0
C637 C 0.57486 0.6157 0.25103 0.0
N638 N 0.6783 0.80837 0.22678 0.0
N639 N 0.48907 0.50939 0.22339 0.0
H640 H 0.58659 0.59878 0.29462 0.0
H641 H 0.53454 0.51794 0.27539 0.0
H642 H 0.46701 0.48268 0.20414 0.0
H643 H 0.45959 0.48037 0.24132 0.0
H644 H 0.69001 0.84071 0.20861 0.0
H645 H 0.68856 0.83749 0.24586 0.0
H646 H 0.71165 0.78403 0.17605 0.0
H647 H 0.66349 0.70266 0.15675 0.0
C648 C 0.39518 0.9839 0.22057 0.0
C649 C 0.35425 0.9652 0.19505 0.0
C650 C 0.23959 0.89662 0.22255 0.0
C651 C 0.27961 0.92451 0.24806 0.0
N652 N 0.3949 0.00732 0.27095 0.0
N653 N 0.23594 0.91504 0.17196 0.0
C654 C 0.35754 0.97096 0.24708 0.0
C655 C 0.27587 0.92386 0.19601 0.0
N656 N 0.47023 0.01463 0.2193 0.0
N657 N 0.16671 0.84427 0.22383 0.0
H658 H 0.26063 0.9375 0.15247 0.0
H659 H 0.17859 0.89148 0.17191 0.0
H660 H 0.13938 0.82337 0.24314 0.0
H661 H 0.13586 0.81695 0.20596 0.0
H662 H 0.50293 0.02375 0.2372 0.0
H663 H 0.49863 0.02424 0.20001 0.0
H664 H 0.45063 0.04722 0.27083 0.0
H665 H 0.36873 0.00327 0.29035 0.0
C666 C 0.44792 0.01257 0.89059 0.0
C667 C 0.43094 0.04232 0.91474 0.0
C668 C 0.40496 0.12017 0.88335 0.0
C669 C 0.40868 0.08072 0.85947 0.0
N670 N 0.42254 0.98041 0.84084 0.0
N671 N 0.37988 0.11552 0.93374 0.0
C672 C 0.42835 0.02514 0.86307 0.0
C673 C 0.40684 0.0947 0.91112 0.0
N674 N 0.48173 0.97135 0.89418 0.0
N675 N 0.39824 0.18129 0.87931 0.0
H676 H 0.3755 0.09429 0.95408 0.0
H677 H 0.3551 0.14818 0.93175 0.0
H678 H 0.39727 0.2009 0.85903 0.0
H679 H 0.40125 0.21606 0.89585 0.0
H680 H 0.50102 0.95291 0.87728 0.0
H681 H 0.49681 0.96209 0.91423 0.0
H682 H 0.4294 0.93448 0.84295 0.0
H683 H 0.40387 -0.015 0.82086 0.0
C684 C 0.94744 0.43551 0.89425 0.0
C685 C 0.93857 0.39359 0.91903 0.0
C686 C 0.88552 0.28188 0.88979 0.0
C687 C 0.90828 0.3252 0.86483 0.0
N688 N 0.97144 0.44605 0.8436 0.0
N689 N 0.91231 0.27694 0.93931 0.0
C690 C 0.94101 0.40291 0.86701 0.0
C691 C 0.90982 0.31638 0.91669 0.0
N692 N 0.96359 0.50698 0.89693 0.0
N693 N 0.84249 0.20737 0.88752 0.0
H694 H 0.93623 0.30104 0.95865 0.0
H695 H 0.89816 0.22171 0.93786 0.0
H696 H 0.82401 0.18139 0.86787 0.0
H697 H 0.81933 0.17309 0.90508 0.0
H698 H 0.96497 0.53896 0.87974 0.0
H699 H 0.96819 0.53144 0.91678 0.0
H700 H 0.00243 0.50326 0.84456 0.0
H701 H 0.97145 0.42464 0.82357 0.0
C702 C 0.6442 0.59181 0.86772 0.0
C703 C 0.72189 0.62659 0.8637 0.0
C704 C 0.73861 0.63472 0.91543 0.0
C705 C 0.6608 0.594 0.91931 0.0
N706 N 0.54078 0.5183 0.89902 0.0
N707 N 0.84194 0.66591 0.88346 0.0
C708 C 0.61415 0.56699 0.8953 0.0
C709 C 0.76865 0.64258 0.88756 0.0
N710 N 0.59951 0.58785 0.84586 0.0
N711 N 0.78345 0.67062 0.93788 0.0
H712 H 0.86471 0.67112 0.86319 0.0
H713 H 0.87783 0.67278 0.90004 0.0
H714 H 0.76314 0.66925 0.95831 0.0
H715 H 0.83992 0.70696 0.93566 0.0
H716 H 0.54319 0.56924 0.84843 0.0
H717 H 0.61991 0.60979 0.82581 0.0
H718 H 0.50494 0.49218 0.88214 0.0
H719 H 0.51798 0.49863 0.91909 0.0
C720 C 0.74309 0.69956 0.53037 0.0
C721 C 0.71825 0.75193 0.52989 0.0
C722 C 0.71803 0.75398 0.58201 0.0
C723 C 0.74913 0.70673 0.58242 0.0
N724 N 0.80614 0.64767 0.55698 0.0
N725 N 0.6968 0.84028 0.55475 0.0
C726 C 0.76677 0.68411 0.5565 0.0
C727 C 0.71105 0.78313 0.55564 0.0
N728 N 0.73892 0.66055 0.50642 0.0
N729 N 0.68994 0.76652 0.60638 0.0
H730 H 0.69178 0.86243 0.53558 0.0
H731 H 0.69717 0.86979 0.57274 0.0
H732 H 0.68926 0.74207 0.62572 0.0
H733 H 0.66048 0.79496 0.6068 0.0
H734 H 0.74957 0.61671 0.50628 0.0
H735 H 0.71815 0.66735 0.48726 0.0
H736 H 0.82635 0.63527 0.53867 0.0
H737 H 0.82465 0.63651 0.57591 0.0
C738 C 0.30981 0.07148 0.52894 0.0
C739 C 0.26287 -0.00582 0.52696 0.0
C740 C 0.25973 -0.01384 0.57896 0.0
C741 C 0.3 0.06416 0.58094 0.0
N742 N 0.34798 0.18109 0.55757 0.0
N743 N 0.17851 0.8808 0.55013 0.0
C744 C 0.3194 0.10675 0.55575 0.0
C745 C 0.23259 0.95263 0.55207 0.0
N746 N 0.35026 0.11038 0.50594 0.0
N747 N 0.25307 0.94385 0.60202 0.0
H748 H 0.15689 0.85555 0.53062 0.0
H749 H 0.15033 0.84938 0.56784 0.0
H750 H 0.27862 0.96612 0.62135 0.0
H751 H 0.22961 0.8868 0.60093 0.0
H752 H 0.39008 0.16591 0.50697 0.0
H753 H 0.35005 0.08535 0.4867 0.0
H754 H 0.35789 0.21438 0.53979 0.0
H755 H 0.35435 0.20781 0.57702 0.0
C756 C 0.95934 0.29362 0.56788 0.0
C757 C 0.98056 0.25536 0.58701 0.0
C758 C 0.0787 0.26898 0.55409 0.0
C759 C 0.05437 0.30321 0.53429 0.0
N760 N 0.96405 0.3366 0.51971 0.0
N761 N 0.05305 0.19773 0.59762 0.0
C762 C -0.00762 0.31217 0.54045 0.0
C763 C 0.03836 0.24053 0.57991 0.0
N764 N 0.90941 0.31444 0.57647 0.0
N765 N 0.14131 0.2654 0.54831 0.0
H766 H 0.02407 0.17652 0.61661 0.0
H767 H 0.09001 0.17917 0.59276 0.0
H768 H 0.17066 0.28499 0.52928 0.0
H769 H 0.16654 0.24733 0.56279 0.0
H770 H 0.89693 0.349 0.56471 0.0
H771 H 0.88489 0.30202 0.5966 0.0
H772 H 0.91467 0.33759 0.52186 0.0
H773 H -0.0133 0.35 0.49929 0.0
loop_
_geom_bond_atom_site_label_1
_geom_bond_atom_site_label_2
_geom_bond_distance
_geom_bond_site_symmetry_2
_ccdc_geom_bond_type
Zn0 O1 2.055 . S
Zn0 O8 2.046 1_455 S
Zn0 N16 2.036 . S
Zn0 O28 2.053 1_455 S
Zn0 O30 2.066 . S
O1 Zn0 2.055 . S
O1 C4 1.259 . S
C2 O30 1.256 . S
C2 O31 1.244 . S
Zn3 O5 2.046 1_556 S
Zn3 O7 2.055 1_456 S
Zn3 N9 2.036 . S
Zn3 O27 2.066 1_456 S
Zn3 O31 2.053 1_556 S
C4 O1 1.259 . S
C4 O5 1.254 . S
O5 Zn3 2.046 1_554 S
O5 C4 1.254 . S
C6 O27 1.256 . S
C6 O28 1.244 . S
O7 Zn3 2.055 1_654 S
O7 C29 1.259 . S
O8 Zn0 2.046 1_655 S
O8 C29 1.254 . S
N9 Zn3 2.036 . S
N9 C10 1.298 1_455 S
N9 N12 1.398 . S
C10 N9 1.298 1_655 S
C10 N13 1.367 . S
C10 C23 1.481 . S
C11 N12 1.299 . S
C11 N13 1.379 1_455 S
N12 N9 1.398 . S
N12 C11 1.299 . S
N13 C10 1.367 . S
N13 C11 1.379 1_655 S
C14 N16 1.298 . S
C14 N18 1.367 . S
C14 C22 1.481 . S
C15 N17 1.299 . S
C15 N18 1.379 1_655 S
N16 Zn0 2.036 . S
N16 C14 1.298 . S
N16 N17 1.398 1_455 S
N17 C15 1.299 . S
N17 N16 1.398 1_655 S
N18 C14 1.367 . S
N18 C15 1.379 1_455 S
H19 C22 0.980 . S
H20 C22 0.981 . S
H21 C22 0.981 . S
C22 C14 1.481 . S
C22 H19 0.980 . S
C22 H20 0.981 . S
C22 H21 0.981 . S
C23 C10 1.481 . S
C23 H24 0.980 . S
C23 H25 0.981 . S
C23 H26 0.981 . S
H24 C23 0.980 . S
H25 C23 0.981 . S
H26 C23 0.981 . S
O27 Zn3 2.066 1_654 S
O27 C6 1.256 . S
O28 Zn0 2.053 1_655 S
O28 C6 1.244 . S
C29 O7 1.259 . S
C29 O8 1.254 . S
O30 Zn0 2.066 . S
O30 C2 1.256 . S
O31 C2 1.244 . S
O31 Zn3 2.053 1_554 S
Zn32 O33 2.055 . S
Zn32 O40 2.046 . S
Zn32 N48 2.036 . S
Zn32 O60 2.053 . S
Zn32 O62 2.066 . S
O33 Zn32 2.055 . S
O33 C36 1.259 . S
C34 O62 1.256 . S
C34 O63 1.244 . S
Zn35 O37 2.046 1_556 S
Zn35 O39 2.055 1_556 S
Zn35 N41 2.036 . S
Zn35 O59 2.066 1_556 S
Zn35 O63 2.053 1_556 S
C36 O33 1.259 . S
C36 O37 1.254 . S
O37 Zn35 2.046 1_554 S
O37 C36 1.254 . S
C38 O59 1.256 . S
C38 O60 1.244 . S
O39 Zn35 2.055 1_554 S
O39 C61 1.259 . S
O40 Zn32 2.046 . S
O40 C61 1.254 . S
N41 Zn35 2.036 . S
N41 C42 1.298 . S
N41 N44 1.398 . S
C42 N41 1.298 . S
C42 N45 1.367 . S
C42 C55 1.481 . S
C43 N44 1.299 . S
C43 N45 1.379 . S
N44 N41 1.398 . S
N44 C43 1.299 . S
N45 C42 1.367 . S
N45 C43 1.379 . S
C46 N48 1.298 . S
C46 N50 1.367 . S
C46 C54 1.481 . S
C47 N49 1.299 . S
C47 N50 1.379 . S
N48 Zn32 2.036 . S
N48 C46 1.298 . S
N48 N49 1.398 . S
N49 C47 1.299 . S
N49 N48 1.398 . S
N50 C46 1.367 . S
N50 C47 1.379 . S
H51 C54 0.980 . S
H52 C54 0.981 . S
H53 C54 0.981 . S
C54 C46 1.481 . S
C54 H51 0.980 . S
C54 H52 0.981 . S
C54 H53 0.981 . S
C55 C42 1.481 . S
C55 H56 0.980 . S
C55 H57 0.981 . S
C55 H58 0.981 . S
H56 C55 0.980 . S
H57 C55 0.981 . S
H58 C55 0.981 . S
O59 Zn35 2.066 1_554 S
O59 C38 1.256 . S
O60 Zn32 2.053 . S
O60 C38 1.244 . S
C61 O39 1.259 . S
C61 O40 1.254 . S
O62 Zn32 2.066 . S
O62 C34 1.256 . S
O63 C34 1.244 . S
O63 Zn35 2.053 1_554 S
Zn64 O65 2.055 1_556 S
Zn64 O72 2.046 1_546 S
Zn64 N80 2.036 . S
Zn64 O92 2.053 1_546 S
Zn64 O94 2.066 1_556 S
O65 Zn64 2.055 1_554 S
O65 C68 1.259 . S
C66 O94 1.256 . S
C66 O95 1.244 . S
Zn67 O69 2.046 . S
Zn67 O71 2.055 1_545 S
Zn67 N73 2.036 . S
Zn67 O91 2.066 1_545 S
Zn67 O95 2.053 . S
C68 O65 1.259 . S
C68 O69 1.254 . S
O69 Zn67 2.046 . S
O69 C68 1.254 . S
C70 O91 1.256 . S
C70 O92 1.244 . S
O71 Zn67 2.055 1_565 S
O71 C93 1.259 . S
O72 Zn64 2.046 1_564 S
O72 C93 1.254 . S
N73 Zn67 2.036 . S
N73 C74 1.298 1_545 S
N73 N76 1.398 . S
C74 N73 1.298 1_565 S
C74 N77 1.367 . S
C74 C87 1.481 . S
C75 N76 1.299 . S
C75 N77 1.379 1_545 S
N76 N73 1.398 . S
N76 C75 1.299 . S
N77 C74 1.367 . S
N77 C75 1.379 1_565 S
C78 N80 1.298 . S
C78 N82 1.367 . S
C78 C86 1.481 . S
C79 N81 1.299 . S
C79 N82 1.379 1_565 S
N80 Zn64 2.036 . S
N80 C78 1.298 . S
N80 N81 1.398 1_545 S
N81 C79 1.299 . S
N81 N80 1.398 1_565 S
N82 C78 1.367 . S
N82 C79 1.379 1_545 S
H83 C86 0.980 . S
H84 C86 0.981 . S
H85 C86 0.981 . S
C86 C78 1.481 . S
C86 H83 0.980 . S
C86 H84 0.981 . S
C86 H85 0.981 . S
C87 C74 1.481 . S
C87 H88 0.980 . S
C87 H89 0.981 . S
C87 H90 0.981 . S
H88 C87 0.980 . S
H89 C87 0.981 . S
H90 C87 0.981 . S
O91 Zn67 2.066 1_565 S
O91 C70 1.256 . S
O92 Zn64 2.053 1_564 S
O92 C70 1.244 . S
C93 O71 1.259 . S
C93 O72 1.254 . S
O94 Zn64 2.066 1_554 S
O94 C66 1.256 . S
O95 C66 1.244 . S
O95 Zn67 2.053 . S
Zn96 O97 2.055 . S
Zn96 O104 2.046 . S
Zn96 N112 2.036 . S
Zn96 O124 2.053 . S
Zn96 O126 2.066 . S
O97 Zn96 2.055 . S
O97 C100 1.259 . S
C98 O126 1.256 . S
C98 O127 1.244 . S
Zn99 O101 2.046 . S
Zn99 O103 2.055 . S
Zn99 N105 2.036 . S
Zn99 O123 2.066 . S
Zn99 O127 2.053 . S
C100 O97 1.259 . S
C100 O101 1.254 . S
O101 Zn99 2.046 . S
O101 C100 1.254 . S
C102 O123 1.256 . S
C102 O124 1.244 . S
O103 Zn99 2.055 . S
O103 C125 1.259 . S
O104 Zn96 2.046 . S
O104 C125 1.254 . S
N105 Zn99 2.036 . S
N105 C106 1.298 . S
N105 N108 1.398 . S
C106 N105 1.298 . S
C106 N109 1.367 . S
C106 C119 1.481 . S
C107 N108 1.299 . S
C107 N109 1.379 . S
N108 N105 1.398 . S
N108 C107 1.299 . S
N109 C106 1.367 . S
N109 C107 1.379 . S
C110 N112 1.298 . S
C110 N114 1.367 . S
C110 C118 1.481 . S
C111 N113 1.299 . S
C111 N114 1.379 . S
N112 Zn96 2.036 . S
N112 C110 1.298 . S
N112 N113 1.398 . S
N113 C111 1.299 . S
N113 N112 1.398 . S
N114 C110 1.367 . S
N114 C111 1.379 . S
H115 C118 0.980 . S
H116 C118 0.981 . S
H117 C118 0.981 . S
C118 C110 1.481 . S
C118 H115 0.980 . S
C118 H116 0.981 . S
C118 H117 0.981 . S
C119 C106 1.481 . S
C119 H120 0.980 . S
C119 H121 0.981 . S
C119 H122 0.981 . S
H120 C119 0.980 . S
H121 C119 0.981 . S
H122 C119 0.981 . S
O123 Zn99 2.066 . S
O123 C102 1.256 . S
O124 Zn96 2.053 . S
O124 C102 1.244 . S
C125 O103 1.259 . S
C125 O104 1.254 . S
O126 Zn96 2.066 . S
O126 C98 1.256 . S
O127 C98 1.244 . S
O127 Zn99 2.053 . S
Zn128 O129 2.055 . S
Zn128 O136 2.046 . S
Zn128 N144 2.036 . S
Zn128 O156 2.053 . S
Zn128 O158 2.066 . S
O129 Zn128 2.055 . S
O129 C132 1.259 . S
C130 O158 1.256 . S
C130 O159 1.244 . S
Zn131 O133 2.046 . S
Zn131 O135 2.055 . S
Zn131 N137 2.036 . S
Zn131 O155 2.066 . S
Zn131 O159 2.053 . S
C132 O129 1.259 . S
C132 O133 1.254 . S
O133 Zn131 2.046 . S
O133 C132 1.254 . S
C134 O155 1.256 1_545 S
C134 O156 1.244 1_545 S
O135 Zn131 2.055 . S
O135 C157 1.259 . S
O136 Zn128 2.046 . S
O136 C157 1.254 . S
N137 Zn131 2.036 . S
N137 C138 1.298 . S
N137 N140 1.398 . S
C138 N137 1.298 . S
C138 N141 1.367 . S
C138 C151 1.481 . S
C139 N140 1.299 . S
C139 N141 1.379 . S
N140 N137 1.398 . S
N140 C139 1.299 . S
N141 C138 1.367 . S
N141 C139 1.379 . S
C142 N144 1.298 . S
C142 N146 1.367 . S
C142 C150 1.481 . S
C143 N145 1.299 . S
C143 N146 1.379 . S
N144 Zn128 2.036 . S
N144 C142 1.298 . S
N144 N145 1.398 . S
N145 C143 1.299 . S
N145 N144 1.398 . S
N146 C142 1.367 . S
N146 C143 1.379 . S
H147 C150 0.980 . S
H148 C150 0.981 . S
H149 C150 0.981 . S
C150 C142 1.481 . S
C150 H147 0.980 . S
C150 H148 0.981 . S
C150 H149 0.981 . S
C151 C138 1.481 . S
C151 H152 0.980 . S
C151 H153 0.981 . S
C151 H154 0.981 . S
H152 C151 0.980 . S
H153 C151 0.981 . S
H154 C151 0.981 . S
O155 Zn131 2.066 . S
O155 C134 1.256 1_565 S
O156 Zn128 2.053 . S
O156 C134 1.244 1_565 S
C157 O135 1.259 . S
C157 O136 1.254 . S
O158 Zn128 2.066 . S
O158 C130 1.256 . S
O159 C130 1.244 . S
O159 Zn131 2.053 . S
Zn160 O161 2.055 . S
Zn160 O168 2.046 . S
Zn160 N176 2.036 . S
Zn160 O188 2.053 . S
Zn160 O190 2.066 . S
O161 Zn160 2.055 . S
O161 C164 1.259 . S
C162 O190 1.256 . S
C162 O191 1.244 . S
Zn163 O165 2.046 . S
Zn163 O167 2.055 . S
Zn163 N169 2.036 . S
Zn163 O187 2.066 . S
Zn163 O191 2.053 . S
C164 O161 1.259 . S
C164 O165 1.254 . S
O165 Zn163 2.046 . S
O165 C164 1.254 . S
C166 O187 1.256 . S
C166 O188 1.244 . S
O167 Zn163 2.055 . S
O167 C189 1.259 . S
O168 Zn160 2.046 . S
O168 C189 1.254 . S
N169 Zn163 2.036 . S
N169 C170 1.298 . S
N169 N172 1.398 . S
C170 N169 1.298 . S
C170 N173 1.367 . S
C170 C183 1.481 . S
C171 N172 1.299 . S
C171 N173 1.379 . S
N172 N169 1.398 . S
N172 C171 1.299 . S
N173 C170 1.367 . S
N173 C171 1.379 . S
C174 N176 1.298 . S
C174 N178 1.367 . S
C174 C182 1.481 . S
C175 N177 1.299 . S
C175 N178 1.379 . S
N176 Zn160 2.036 . S
N176 C174 1.298 . S
N176 N177 1.398 . S
N177 C175 1.299 . S
N177 N176 1.398 . S
N178 C174 1.367 . S
N178 C175 1.379 . S
H179 C182 0.980 . S
H180 C182 0.981 . S
H181 C182 0.981 . S
C182 C174 1.481 . S
C182 H179 0.980 . S
C182 H180 0.981 . S
C182 H181 0.981 . S
C183 C170 1.481 . S
C183 H184 0.980 . S
C183 H185 0.981 . S
C183 H186 0.981 . S
H184 C183 0.980 . S
H185 C183 0.981 . S
H186 C183 0.981 . S
O187 Zn163 2.066 . S
O187 C166 1.256 . S
O188 Zn160 2.053 . S
O188 C166 1.244 . S
C189 O167 1.259 . S
C189 O168 1.254 . S
O190 Zn160 2.066 . S
O190 C162 1.256 . S
O191 C162 1.244 . S
O191 Zn163 2.053 . S
Zn192 O193 2.055 . S
Zn192 O200 2.046 . S
Zn192 N208 2.036 . S
Zn192 O220 2.053 . S
Zn192 O222 2.066 . S
O193 Zn192 2.055 . S
O193 C196 1.259 . S
C194 O222 1.256 . S
C194 O223 1.244 . S
Zn195 O197 2.046 . S
Zn195 O199 2.055 . S
Zn195 N201 2.036 . S
Zn195 O219 2.066 . S
Zn195 O223 2.053 . S
C196 O193 1.259 . S
C196 O197 1.254 . S
O197 Zn195 2.046 . S
O197 C196 1.254 . S
C198 O219 1.256 . S
C198 O220 1.244 . S
O199 Zn195 2.055 . S
O199 C221 1.259 . S
O200 Zn192 2.046 . S
O200 C221 1.254 . S
N201 Zn195 2.036 . S
N201 C202 1.298 . S
N201 N204 1.398 . S
C202 N201 1.298 . S
C202 N205 1.367 . S
C202 C215 1.481 . S
C203 N204 1.299 . S
C203 N205 1.379 . S
N204 N201 1.398 . S
N204 C203 1.299 . S
N205 C202 1.367 . S
N205 C203 1.379 . S
C206 N208 1.298 . S
C206 N210 1.367 . S
C206 C214 1.481 . S
C207 N209 1.299 . S
C207 N210 1.379 . S
N208 Zn192 2.036 . S
N208 C206 1.298 . S
N208 N209 1.398 . S
N209 C207 1.299 . S
N209 N208 1.398 . S
N210 C206 1.367 . S
N210 C207 1.379 . S
H211 C214 0.980 . S
H212 C214 0.981 . S
H213 C214 0.981 . S
C214 C206 1.481 . S
C214 H211 0.980 . S
C214 H212 0.981 . S
C214 H213 0.981 . S
C215 C202 1.481 . S
C215 H216 0.980 . S
C215 H217 0.981 . S
C215 H218 0.981 . S
H216 C215 0.980 . S
H217 C215 0.981 . S
H218 C215 0.981 . S
O219 Zn195 2.066 . S
O219 C198 1.256 . S
O220 Zn192 2.053 . S
O220 C198 1.244 . S
C221 O199 1.259 . S
C221 O200 1.254 . S
O222 Zn192 2.066 . S
O222 C194 1.256 . S
O223 C194 1.244 . S
O223 Zn195 2.053 . S
Zn224 O225 2.055 . S
Zn224 O232 2.046 . S
Zn224 N240 2.036 . S
Zn224 O252 2.053 . S
Zn224 O254 2.066 . S
O225 Zn224 2.055 . S
O225 C228 1.259 . S
C226 O254 1.256 1_455 S
C226 O255 1.244 1_455 S
Zn227 O229 2.046 . S
Zn227 O231 2.055 . S
Zn227 N233 2.036 . S
Zn227 O251 2.066 . S
Zn227 O255 2.053 . S
C228 O225 1.259 . S
C228 O229 1.254 . S
O229 Zn227 2.046 . S
O229 C228 1.254 . S
C230 O251 1.256 . S
C230 O252 1.244 . S
O231 Zn227 2.055 . S
O231 C253 1.259 . S
O232 Zn224 2.046 . S
O232 C253 1.254 . S
N233 Zn227 2.036 . S
N233 C234 1.298 . S
N233 N236 1.398 . S
C234 N233 1.298 . S
C234 N237 1.367 . S
C234 C247 1.481 . S
C235 N236 1.299 . S
C235 N237 1.379 . S
N236 N233 1.398 . S
N236 C235 1.299 . S
N237 C234 1.367 . S
N237 C235 1.379 . S
C238 N240 1.298 . S
C238 N242 1.367 . S
C238 C246 1.481 . S
C239 N241 1.299 . S
C239 N242 1.379 . S
N240 Zn224 2.036 . S
N240 C238 1.298 . S
N240 N241 1.398 . S
N241 C239 1.299 . S
N241 N240 1.398 . S
N242 C238 1.367 . S
N242 C239 1.379 . S
H243 C246 0.980 . S
H244 C246 0.981 . S
H245 C246 0.981 . S
C246 C238 1.481 . S
C246 H243 0.980 . S
C246 H244 0.981 . S
C246 H245 0.981 . S
C247 C234 1.481 . S
C247 H248 0.980 . S
C247 H249 0.981 . S
C247 H250 0.981 . S
H248 C247 0.980 . S
H249 C247 0.981 . S
H250 C247 0.981 . S
O251 Zn227 2.066 . S
O251 C230 1.256 . S
O252 Zn224 2.053 . S
O252 C230 1.244 . S
C253 O231 1.259 . S
C253 O232 1.254 . S
O254 Zn224 2.066 . S
O254 C226 1.256 1_655 S
O255 C226 1.244 1_655 S
O255 Zn227 2.053 . S
Zn256 O257 2.055 . S
Zn256 O264 2.046 . S
Zn256 N272 2.036 . S
Zn256 O284 2.053 . S
Zn256 O286 2.066 . S
O257 Zn256 2.055 . S
O257 C260 1.259 . S
C258 O286 1.256 . S
C258 O287 1.244 . S
Zn259 O261 2.046 . S
Zn259 O263 2.055 . S
Zn259 N265 2.036 . S
Zn259 O283 2.066 . S
Zn259 O287 2.053 . S
C260 O257 1.259 . S
C260 O261 1.254 . S
O261 Zn259 2.046 . S
O261 C260 1.254 . S
C262 O283 1.256 . S
C262 O284 1.244 . S
O263 Zn259 2.055 . S
O263 C285 1.259 . S
O264 Zn256 2.046 . S
O264 C285 1.254 . S
N265 Zn259 2.036 . S
N265 C266 1.298 . S
N265 N268 1.398 . S
C266 N265 1.298 . S
C266 N269 1.367 . S
C266 C279 1.481 . S
C267 N268 1.299 . S
C267 N269 1.379 . S
N268 N265 1.398 . S
N268 C267 1.299 . S
N269 C266 1.367 . S
N269 C267 1.379 . S
C270 N272 1.298 . S
C270 N274 1.367 . S
C270 C278 1.481 . S
C271 N273 1.299 . S
C271 N274 1.379 . S
N272 Zn256 2.036 . S
N272 C270 1.298 . S
N272 N273 1.398 . S
N273 C271 1.299 . S
N273 N272 1.398 . S
N274 C270 1.367 . S
N274 C271 1.379 . S
H275 C278 0.980 . S
H276 C278 0.981 . S
H277 C278 0.981 . S
C278 C270 1.481 . S
C278 H275 0.980 . S
C278 H276 0.981 . S
C278 H277 0.981 . S
C279 C266 1.481 . S
C279 H280 0.980 . S
C279 H281 0.981 . S
C279 H282 0.981 . S
H280 C279 0.980 . S
H281 C279 0.981 . S
H282 C279 0.981 . S
O283 Zn259 2.066 . S
O283 C262 1.256 . S
O284 Zn256 2.053 . S
O284 C262 1.244 . S
C285 O263 1.259 . S
C285 O264 1.254 . S
O286 Zn256 2.066 . S
O286 C258 1.256 . S
O287 C258 1.244 . S
O287 Zn259 2.053 . S
C288 C289 1.363 . S
C288 C294 1.379 . S
C288 N296 1.356 . S
C289 C288 1.363 . S
C289 C295 1.363 . S
C290 C291 1.363 . S
C290 C295 1.379 . S
C290 N297 1.356 1_554 S
C291 C290 1.363 . S
C291 C294 1.363 . S
N292 C294 1.356 . S
N292 H304 0.984 . S
N292 H305 0.985 . S
N293 C295 1.356 1_556 S
N293 H298 0.984 . S
N293 H299 0.985 . S
C294 C288 1.379 . S
C294 C291 1.363 . S
C294 N292 1.356 . S
C295 C289 1.363 . S
C295 C290 1.379 . S
C295 N293 1.356 1_554 S
N296 C288 1.356 . S
N296 H302 0.984 . S
N296 H303 0.984 . S
N297 C290 1.356 1_556 S
N297 H300 0.984 . S
N297 H301 0.985 . S
H298 N293 0.984 . S
H299 N293 0.985 . S
H300 N297 0.984 . S
H301 N297 0.985 . S
H302 N296 0.984 . S
H303 N296 0.984 . S
H304 N292 0.984 . S
H305 N292 0.985 . S
C306 C307 1.363 . S
C306 C312 1.379 . S
C306 N314 1.356 . S
C307 C306 1.363 . S
C307 C313 1.363 . S
C308 C309 1.363 . S
C308 C313 1.379 . S
C308 N315 1.355 . S
C309 C308 1.363 . S
C309 C312 1.363 . S
N310 C312 1.356 . S
N310 H322 0.984 . S
N310 H323 0.985 . S
N311 C313 1.356 1_556 S
N311 H316 0.986 . S
N311 H317 0.985 . S
C312 C306 1.379 . S
C312 C309 1.363 . S
C312 N310 1.356 . S
C313 C307 1.363 . S
C313 C308 1.379 . S
C313 N311 1.356 1_554 S
N314 C306 1.356 . S
N314 H320 0.984 . S
N314 H321 0.984 . S
N315 C308 1.355 . S
N315 H318 0.984 . S
N315 H319 0.986 1_554 S
H316 N311 0.986 . S
H317 N311 0.985 . S
H318 N315 0.984 . S
H319 N315 0.986 1_556 S
H320 N314 0.984 . S
H321 N314 0.984 . S
H322 N310 0.984 . S
H323 N310 0.985 . S
C324 C325 1.363 . S
C324 C330 1.379 . S
C324 N332 1.356 1_554 S
C325 C324 1.363 . S
C325 C331 1.363 . S
C326 C327 1.363 . S
C326 C331 1.379 . S
C326 N333 1.356 . S
C327 C326 1.363 . S
C327 C330 1.363 . S
N328 C330 1.356 1_556 S
N328 H340 0.984 . S
N328 H341 0.985 . S
N329 C331 1.356 . S
N329 H334 0.984 . S
N329 H335 0.985 . S
C330 C324 1.379 . S
C330 C327 1.363 . S
C330 N328 1.356 1_554 S
C331 C325 1.363 . S
C331 C326 1.379 . S
C331 N329 1.356 . S
N332 C324 1.356 1_556 S
N332 H338 0.984 . S
N332 H339 0.984 1_556 S
N333 C326 1.356 . S
N333 H336 0.984 . S
N333 H337 0.985 . S
H334 N329 0.984 . S
H335 N329 0.985 . S
H336 N333 0.984 . S
H337 N333 0.985 . S
H338 N332 0.984 . S
H339 N332 0.984 1_554 S
H340 N328 0.984 . S
H341 N328 0.985 . S
C342 C343 1.363 . S
C342 C348 1.379 . S
C342 N350 1.356 . S
C343 C342 1.363 . S
C343 C349 1.363 . S
C344 C345 1.363 . S
C344 C349 1.379 . S
C344 N351 1.356 1_554 S
C345 C344 1.363 . S
C345 C348 1.363 . S
N346 C348 1.356 . S
N346 H358 0.984 . S
N346 H359 0.985 . S
N347 C349 1.356 1_556 S
N347 H352 0.984 . S
N347 H353 0.985 . S
C348 C342 1.379 . S
C348 C345 1.363 . S
C348 N346 1.356 . S
C349 C343 1.363 . S
C349 C344 1.379 . S
C349 N347 1.356 1_554 S
N350 C342 1.356 . S
N350 H356 0.984 . S
N350 H357 0.984 . S
N351 C344 1.356 1_556 S
N351 H354 0.983 . S
N351 H355 0.985 . S
H352 N347 0.984 . S
H353 N347 0.985 . S
H354 N351 0.983 . S
H355 N351 0.985 . S
H356 N350 0.984 . S
H357 N350 0.984 . S
H358 N346 0.984 . S
H359 N346 0.985 . S
C360 C361 1.363 . S
C360 C366 1.379 . S
C360 N368 1.356 1_554 S
C361 C360 1.363 . S
C361 C367 1.363 . S
C362 C363 1.363 . S
C362 C367 1.379 . S
C362 N369 1.356 . S
C363 C362 1.363 . S
C363 C366 1.363 . S
N364 C366 1.356 1_556 S
N364 H376 0.984 . S
N364 H377 0.985 . S
N365 C367 1.356 . S
N365 H370 0.984 . S
N365 H371 0.985 . S
C366 C360 1.379 . S
C366 C363 1.363 . S
C366 N364 1.356 1_554 S
C367 C361 1.363 . S
C367 C362 1.379 . S
C367 N365 1.356 . S
N368 C360 1.356 1_556 S
N368 H374 0.984 . S
N368 H375 0.985 1_556 S
N369 C362 1.356 . S
N369 H372 0.984 . S
N369 H373 0.985 . S
H370 N365 0.984 . S
H371 N365 0.985 . S
H372 N369 0.984 . S
H373 N369 0.985 . S
H374 N368 0.984 . S
H375 N368 0.985 1_554 S
H376 N364 0.984 . S
H377 N364 0.985 . S
C378 C379 1.363 . S
C378 C384 1.379 . S
C378 N386 1.356 1_554 S
C379 C378 1.363 . S
C379 C385 1.363 . S
C380 C381 1.363 . S
C380 C385 1.379 . S
C380 N387 1.356 . S
C381 C380 1.363 . S
C381 C384 1.363 . S
N382 C384 1.356 1_556 S
N382 H394 0.984 . S
N382 H395 0.985 . S
N383 C385 1.356 . S
N383 H388 0.984 . S
N383 H389 0.985 . S
C384 C378 1.379 . S
C384 C381 1.363 . S
C384 N382 1.356 1_554 S
C385 C379 1.363 . S
C385 C380 1.379 . S
C385 N383 1.356 . S
N386 C378 1.356 1_556 S
N386 H392 0.984 . S
N386 H393 0.984 . S
N387 C380 1.356 . S
N387 H390 0.984 . S
N387 H391 0.985 . S
H388 N383 0.984 . S
H389 N383 0.985 . S
H390 N387 0.984 . S
H391 N387 0.985 . S
H392 N386 0.984 . S
H393 N386 0.984 . S
H394 N382 0.984 . S
H395 N382 0.985 . S
C396 C397 1.363 . S
C396 C402 1.379 . S
C396 N404 1.356 . S
C397 C396 1.363 . S
C397 C403 1.363 . S
C398 C399 1.363 1_655 S
C398 C403 1.379 . S
C398 N405 1.356 1_655 S
C399 C398 1.363 1_455 S
C399 C402 1.363 1_455 S
N400 C402 1.356 1_455 S
N400 H412 0.984 1_455 S
N400 H413 0.985 . S
N401 C403 1.356 . S
N401 H406 0.984 . S
N401 H407 0.985 . S
C402 C396 1.379 . S
C402 C399 1.363 1_655 S
C402 N400 1.356 1_655 S
C403 C397 1.363 . S
C403 C398 1.379 . S
C403 N401 1.356 . S
N404 C396 1.356 . S
N404 H410 0.984 . S
N404 H411 0.984 . S
N405 C398 1.356 1_455 S
N405 H408 0.984 . S
N405 H409 0.985 . S
H406 N401 0.984 . S
H407 N401 0.985 . S
H408 N405 0.984 . S
H409 N405 0.985 . S
H410 N404 0.984 . S
H411 N404 0.984 . S
H412 N400 0.984 1_655 S
H413 N400 0.985 . S
C414 C415 1.363 . S
C414 C420 1.379 . S
C414 N422 1.356 . S
C415 C414 1.363 . S
C415 C421 1.363 . S
C416 C417 1.363 . S
C416 C421 1.379 . S
C416 N423 1.356 . S
C417 C416 1.363 . S
C417 C420 1.363 . S
N418 C420 1.356 . S
N418 H430 0.984 . S
N418 H431 0.985 . S
N419 C421 1.356 . S
N419 H424 0.984 . S
N419 H425 0.985 . S
C420 C414 1.379 . S
C420 C417 1.363 . S
C420 N418 1.356 . S
C421 C415 1.363 . S
C421 C416 1.379 . S
C421 N419 1.356 . S
N422 C414 1.356 . S
N422 H428 0.984 . S
N422 H429 0.984 . S
N423 C416 1.356 . S
N423 H426 0.984 . S
N423 H427 0.985 . S
H424 N419 0.984 . S
H425 N419 0.985 . S
H426 N423 0.984 . S
H427 N423 0.985 . S
H428 N422 0.984 . S
H429 N422 0.984 . S
H430 N418 0.984 . S
H431 N418 0.985 . S
C432 C433 1.363 . S
C432 C438 1.379 . S
C432 N440 1.356 . S
C433 C432 1.363 . S
C433 C439 1.363 . S
C434 C435 1.363 . S
C434 C439 1.379 . S
C434 N441 1.356 1_545 S
C435 C434 1.363 . S
C435 C438 1.363 . S
N436 C438 1.356 . S
N436 H448 0.984 . S
N436 H449 0.985 1_545 S
N437 C439 1.356 1_455 S
N437 H442 0.984 . S
N437 H443 0.985 . S
C438 C432 1.379 . S
C438 C435 1.363 . S
C438 N436 1.356 . S
C439 C433 1.363 . S
C439 C434 1.379 . S
C439 N437 1.356 1_655 S
N440 C432 1.356 . S
N440 H446 0.984 . S
N440 H447 0.984 . S
N441 C434 1.356 1_565 S
N441 H444 0.984 . S
N441 H445 0.987 1_565 S
H442 N437 0.984 . S
H443 N437 0.985 . S
H444 N441 0.984 . S
H445 N441 0.987 1_545 S
H446 N440 0.984 . S
H447 N440 0.984 . S
H448 N436 0.984 . S
H449 N436 0.985 1_565 S
C450 C451 1.363 . S
C450 C456 1.379 . S
C450 N458 1.356 . S
C451 C450 1.363 . S
C451 C457 1.363 . S
C452 C453 1.363 . S
C452 C457 1.379 . S
C452 N459 1.356 . S
C453 C452 1.363 . S
C453 C456 1.363 . S
N454 C456 1.356 . S
N454 H466 0.984 . S
N454 H467 0.985 . S
N455 C457 1.356 . S
N455 H460 0.984 . S
N455 H461 0.985 . S
C456 C450 1.379 . S
C456 C453 1.363 . S
C456 N454 1.356 . S
C457 C451 1.363 . S
C457 C452 1.379 . S
C457 N455 1.356 . S
N458 C450 1.356 . S
N458 H464 0.984 . S
N458 H465 0.984 . S
N459 C452 1.356 . S
N459 H462 0.984 . S
N459 H463 0.985 . S
H460 N455 0.984 . S
H461 N455 0.985 . S
H462 N459 0.984 . S
H463 N459 0.985 . S
H464 N458 0.984 . S
H465 N458 0.984 . S
H466 N454 0.984 . S
H467 N454 0.985 . S
C468 C469 1.363 . S
C468 C474 1.379 . S
C468 N476 1.356 . S
C469 C468 1.363 . S
C469 C475 1.363 . S
C470 C471 1.363 . S
C470 C475 1.379 . S
C470 N477 1.356 . S
C471 C470 1.363 . S
C471 C474 1.363 . S
N472 C474 1.356 . S
N472 H484 0.984 . S
N472 H485 0.985 . S
N473 C475 1.356 . S
N473 H478 0.984 . S
N473 H479 0.985 . S
C474 C468 1.379 . S
C474 C471 1.363 . S
C474 N472 1.356 . S
C475 C469 1.363 . S
C475 C470 1.379 . S
C475 N473 1.356 . S
N476 C468 1.356 . S
N476 H482 0.984 . S
N476 H483 0.984 . S
N477 C470 1.356 . S
N477 H480 0.984 . S
N477 H481 0.985 . S
H478 N473 0.984 . S
H479 N473 0.985 . S
H480 N477 0.984 . S
H481 N477 0.985 . S
H482 N476 0.984 . S
H483 N476 0.984 . S
H484 N472 0.984 . S
H485 N472 0.985 . S
C486 C487 1.363 . S
C486 C492 1.379 . S
C486 N494 1.356 . S
C487 C486 1.363 . S
C487 C493 1.363 . S
C488 C489 1.363 . S
C488 C493 1.379 . S
C488 N495 1.356 . S
C489 C488 1.363 . S
C489 C492 1.363 . S
N490 C492 1.356 . S
N490 H502 0.984 . S
N490 H503 0.985 . S
N491 C493 1.356 . S
N491 H496 0.984 . S
N491 H497 0.985 1_565 S
C492 C486 1.379 . S
C492 C489 1.363 . S
C492 N490 1.356 . S
C493 C487 1.363 . S
C493 C488 1.379 . S
C493 N491 1.356 . S
N494 C486 1.356 . S
N494 H500 0.984 . S
N494 H501 0.984 . S
N495 C488 1.356 . S
N495 H498 0.984 . S
N495 H499 0.985 . S
H496 N491 0.984 . S
H497 N491 0.985 1_545 S
H498 N495 0.984 . S
H499 N495 0.985 . S
H500 N494 0.984 . S
H501 N494 0.984 . S
H502 N490 0.984 . S
H503 N490 0.985 . S
C504 C505 1.363 . S
C504 C510 1.379 . S
C504 N512 1.356 . S
C505 C504 1.363 . S
C505 C511 1.363 . S
C506 C507 1.363 . S
C506 C511 1.379 . S
C506 N513 1.356 . S
C507 C506 1.363 . S
C507 C510 1.363 . S
N508 C510 1.356 . S
N508 H520 0.984 . S
N508 H521 0.985 . S
N509 C511 1.356 . S
N509 H514 0.984 . S
N509 H515 0.985 . S
C510 C504 1.379 . S
C510 C507 1.363 . S
C510 N508 1.356 . S
C511 C505 1.363 . S
C511 C506 1.379 . S
C511 N509 1.356 . S
N512 C504 1.356 . S
N512 H518 0.984 . S
N512 H519 0.984 . S
N513 C506 1.356 . S
N513 H516 0.984 . S
N513 H517 0.985 . S
H514 N509 0.984 . S
H515 N509 0.985 . S
H516 N513 0.984 . S
H517 N513 0.985 . S
H518 N512 0.984 . S
H519 N512 0.984 . S
H520 N508 0.984 . S
H521 N508 0.985 . S
C522 C523 1.363 . S
C522 C528 1.379 . S
C522 N530 1.356 . S
C523 C522 1.363 . S
C523 C529 1.363 . S
C524 C525 1.363 . S
C524 C529 1.379 . S
C524 N531 1.356 . S
C525 C524 1.363 . S
C525 C528 1.363 . S
N526 C528 1.356 . S
N526 H538 0.984 . S
N526 H539 0.985 . S
N527 C529 1.357 1_455 S
N527 H532 0.984 . S
N527 H533 0.984 . S
C528 C522 1.379 . S
C528 C525 1.363 . S
C528 N526 1.356 . S
C529 C523 1.363 . S
C529 C524 1.379 . S
C529 N527 1.357 1_655 S
N530 C522 1.356 . S
N530 H536 0.984 . S
N530 H537 0.984 . S
N531 C524 1.356 . S
N531 H534 0.984 . S
N531 H535 0.985 . S
H532 N527 0.984 . S
H533 N527 0.984 . S
H534 N531 0.984 . S
H535 N531 0.985 . S
H536 N530 0.984 . S
H537 N530 0.984 . S
H538 N526 0.984 . S
H539 N526 0.985 . S
C540 C541 1.363 . S
C540 C546 1.379 . S
C540 N548 1.356 . S
C541 C540 1.363 . S
C541 C547 1.363 . S
C542 C543 1.363 . S
C542 C547 1.379 . S
C542 N549 1.356 . S
C543 C542 1.363 . S
C543 C546 1.363 . S
N544 C546 1.356 . S
N544 H556 0.984 . S
N544 H557 0.985 . S
N545 C547 1.356 . S
N545 H550 0.984 . S
N545 H551 0.985 . S
C546 C540 1.379 . S
C546 C543 1.363 . S
C546 N544 1.356 . S
C547 C541 1.363 . S
C547 C542 1.379 . S
C547 N545 1.356 . S
N548 C540 1.356 . S
N548 H554 0.984 . S
N548 H555 0.984 . S
N549 C542 1.356 . S
N549 H552 0.984 . S
N549 H553 0.985 . S
H550 N545 0.984 . S
H551 N545 0.985 . S
H552 N549 0.984 . S
H553 N549 0.985 . S
H554 N548 0.984 . S
H555 N548 0.984 . S
H556 N544 0.984 . S
H557 N544 0.985 . S
C558 C559 1.363 . S
C558 C564 1.379 . S
C558 N566 1.356 . S
C559 C558 1.363 . S
C559 C565 1.363 . S
C560 C561 1.363 1_565 S
C560 C565 1.379 . S
C560 N567 1.356 1_565 S
C561 C560 1.363 1_545 S
C561 C564 1.363 1_545 S
N562 C564 1.356 1_545 S
N562 H574 0.984 1_655 S
N562 H575 0.985 . S
N563 C565 1.356 . S
N563 H568 0.984 . S
N563 H569 0.985 . S
C564 C558 1.379 . S
C564 C561 1.363 1_565 S
C564 N562 1.356 1_565 S
C565 C559 1.363 . S
C565 C560 1.379 . S
C565 N563 1.356 . S
N566 C558 1.356 . S
N566 H572 0.984 . S
N566 H573 0.984 . S
N567 C560 1.356 1_545 S
N567 H570 0.984 . S
N567 H571 0.985 1_545 S
H568 N563 0.984 . S
H569 N563 0.985 . S
H570 N567 0.984 . S
H571 N567 0.985 1_565 S
H572 N566 0.984 . S
H573 N566 0.984 . S
H574 N562 0.984 1_455 S
H575 N562 0.985 . S
C576 C577 1.363 . S
C576 C582 1.379 . S
C576 N584 1.356 . S
C577 C576 1.363 . S
C577 C583 1.363 . S
C578 C579 1.363 . S
C578 C583 1.379 . S
C578 N585 1.356 1_565 S
C579 C578 1.363 . S
C579 C582 1.363 . S
N580 C582 1.356 . S
N580 H592 0.984 . S
N580 H593 0.985 . S
N581 C583 1.356 . S
N581 H586 0.984 1_455 S
N581 H587 0.985 . S
C582 C576 1.379 . S
C582 C579 1.363 . S
C582 N580 1.356 . S
C583 C577 1.363 . S
C583 C578 1.379 . S
C583 N581 1.356 . S
N584 C576 1.356 . S
N584 H590 0.984 . S
N584 H591 0.984 1_455 S
N585 C578 1.356 1_545 S
N585 H588 0.984 . S
N585 H589 0.985 . S
H586 N581 0.984 1_655 S
H587 N581 0.985 . S
H588 N585 0.984 . S
H589 N585 0.985 . S
H590 N584 0.984 . S
H591 N584 0.984 1_655 S
H592 N580 0.984 . S
H593 N580 0.985 . S
C594 C595 1.363 . S
C594 C600 1.379 . S
C594 N602 1.356 . S
C595 C594 1.363 . S
C595 C601 1.363 . S
C596 C597 1.363 . S
C596 C601 1.379 . S
C596 N603 1.356 . S
C597 C596 1.363 . S
C597 C600 1.363 . S
N598 C600 1.356 . S
N598 H610 0.984 . S
N598 H611 0.985 1_455 S
N599 C601 1.356 . S
N599 H604 0.984 . S
N599 H605 0.985 . S
C600 C594 1.379 . S
C600 C597 1.363 . S
C600 N598 1.356 . S
C601 C595 1.363 . S
C601 C596 1.379 . S
C601 N599 1.356 . S
N602 C594 1.356 . S
N602 H608 0.984 . S
N602 H609 0.984 . S
N603 C596 1.356 . S
N603 H606 0.984 . S
N603 H607 0.985 . S
H604 N599 0.984 . S
H605 N599 0.985 . S
H606 N603 0.984 . S
H607 N603 0.985 . S
H608 N602 0.984 . S
H609 N602 0.984 . S
H610 N598 0.984 . S
H611 N598 0.985 1_655 S
C612 C613 1.363 . S
C612 C618 1.379 . S
C612 N620 1.356 . S
C613 C612 1.363 . S
C613 C619 1.363 . S
C614 C615 1.363 . S
C614 C619 1.379 . S
C614 N621 1.356 1_455 S
C615 C614 1.363 . S
C615 C618 1.363 . S
N616 C618 1.356 . S
N616 H628 0.984 . S
N616 H629 0.985 . S
N617 C619 1.356 . S
N617 H622 0.984 . S
N617 H623 0.985 1_455 S
C618 C612 1.379 . S
C618 C615 1.363 . S
C618 N616 1.356 . S
C619 C613 1.363 . S
C619 C614 1.379 . S
C619 N617 1.356 . S
N620 C612 1.356 . S
N620 H626 0.984 . S
N620 H627 0.984 . S
N621 C614 1.356 1_655 S
N621 H624 0.984 . S
N621 H625 0.985 . S
H622 N617 0.984 . S
H623 N617 0.985 1_655 S
H624 N621 0.984 . S
H625 N621 0.985 . S
H626 N620 0.984 . S
H627 N620 0.984 . S
H628 N616 0.984 . S
H629 N616 0.985 . S
C630 C631 1.363 . S
C630 C636 1.379 . S
C630 N638 1.356 . S
C631 C630 1.363 . S
C631 C637 1.363 . S
C632 C633 1.363 . S
C632 C637 1.379 . S
C632 N639 1.356 . S
C633 C632 1.363 . S
C633 C636 1.363 . S
N634 C636 1.356 . S
N634 H646 0.984 . S
N634 H647 0.985 . S
N635 C637 1.356 . S
N635 H640 0.984 . S
N635 H641 0.985 . S
C636 C630 1.379 . S
C636 C633 1.363 . S
C636 N634 1.356 . S
C637 C631 1.363 . S
C637 C632 1.379 . S
C637 N635 1.356 . S
N638 C630 1.356 . S
N638 H644 0.984 . S
N638 H645 0.984 . S
N639 C632 1.356 . S
N639 H642 0.984 . S
N639 H643 0.985 . S
H640 N635 0.984 . S
H641 N635 0.985 . S
H642 N639 0.984 . S
H643 N639 0.985 . S
H644 N638 0.984 . S
H645 N638 0.984 . S
H646 N634 0.984 . S
H647 N634 0.985 . S
C648 C649 1.363 . S
C648 C654 1.379 . S
C648 N656 1.356 1_565 S
C649 C648 1.363 . S
C649 C655 1.363 . S
C650 C651 1.363 . S
C650 C655 1.379 . S
C650 N657 1.356 . S
C651 C650 1.363 . S
C651 C654 1.363 . S
N652 C654 1.356 . S
N652 H664 0.984 1_565 S
N652 H665 0.985 . S
N653 C655 1.356 . S
N653 H658 0.984 . S
N653 H659 0.985 . S
C654 C648 1.379 . S
C654 C651 1.363 . S
C654 N652 1.356 . S
C655 C649 1.363 . S
C655 C650 1.379 . S
C655 N653 1.356 . S
N656 C648 1.356 1_545 S
N656 H662 0.984 . S
N656 H663 0.984 . S
N657 C650 1.356 . S
N657 H660 0.984 . S
N657 H661 0.985 . S
H658 N653 0.984 . S
H659 N653 0.985 . S
H660 N657 0.984 . S
H661 N657 0.985 . S
H662 N656 0.984 . S
H663 N656 0.984 . S
H664 N652 0.984 1_545 S
H665 N652 0.985 . S
C666 C667 1.363 . S
C666 C672 1.379 . S
C666 N674 1.356 . S
C667 C666 1.363 . S
C667 C673 1.363 . S
C668 C669 1.363 . S
C668 C673 1.379 . S
C668 N675 1.356 . S
C669 C668 1.363 . S
C669 C672 1.363 . S
N670 C672 1.356 . S
N670 H682 0.984 . S
N670 H683 0.985 . S
N671 C673 1.356 . S
N671 H676 0.984 . S
N671 H677 0.985 . S
C672 C666 1.379 . S
C672 C669 1.363 . S
C672 N670 1.356 . S
C673 C667 1.363 . S
C673 C668 1.379 . S
C673 N671 1.356 . S
N674 C666 1.356 . S
N674 H680 0.984 1_545 S
N674 H681 0.984 . S
N675 C668 1.356 . S
N675 H678 0.984 . S
N675 H679 0.985 . S
H676 N671 0.984 . S
H677 N671 0.985 . S
H678 N675 0.984 . S
H679 N675 0.985 . S
H680 N674 0.984 1_565 S
H681 N674 0.984 . S
H682 N670 0.984 . S
H683 N670 0.985 . S
C684 C685 1.363 . S
C684 C690 1.379 . S
C684 N692 1.356 . S
C685 C684 1.363 . S
C685 C691 1.363 . S
C686 C687 1.363 . S
C686 C691 1.379 . S
C686 N693 1.356 . S
C687 C686 1.363 . S
C687 C690 1.363 . S
N688 C690 1.356 . S
N688 H700 0.984 . S
N688 H701 0.985 . S
N689 C691 1.356 . S
N689 H694 0.984 . S
N689 H695 0.985 . S
C690 C684 1.379 . S
C690 C687 1.363 . S
C690 N688 1.356 . S
C691 C685 1.363 . S
C691 C686 1.379 . S
C691 N689 1.356 . S
N692 C684 1.356 . S
N692 H698 0.984 . S
N692 H699 0.984 . S
N693 C686 1.356 . S
N693 H696 0.984 . S
N693 H697 0.985 . S
H694 N689 0.984 . S
H695 N689 0.985 . S
H696 N693 0.984 . S
H697 N693 0.985 . S
H698 N692 0.984 . S
H699 N692 0.984 . S
H700 N688 0.984 . S
H701 N688 0.985 . S
C702 C703 1.363 . S
C702 C708 1.379 . S
C702 N710 1.356 . S
C703 C702 1.363 . S
C703 C709 1.363 . S
C704 C705 1.363 . S
C704 C709 1.379 . S
C704 N711 1.356 . S
C705 C704 1.363 . S
C705 C708 1.363 . S
N706 C708 1.356 . S
N706 H718 0.984 . S
N706 H719 0.985 . S
N707 C709 1.356 . S
N707 H712 0.984 . S
N707 H713 0.985 . S
C708 C702 1.379 . S
C708 C705 1.363 . S
C708 N706 1.356 . S
C709 C703 1.363 . S
C709 C704 1.379 . S
C709 N707 1.356 . S
N710 C702 1.356 . S
N710 H716 0.984 . S
N710 H717 0.984 . S
N711 C704 1.356 . S
N711 H714 0.984 . S
N711 H715 0.985 . S
H712 N707 0.984 . S
H713 N707 0.985 . S
H714 N711 0.984 . S
H715 N711 0.985 . S
H716 N710 0.984 . S
H717 N710 0.984 . S
H718 N706 0.984 . S
H719 N706 0.985 . S
C720 C721 1.363 . S
C720 C726 1.379 . S
C720 N728 1.356 . S
C721 C720 1.363 . S
C721 C727 1.363 . S
C722 C723 1.363 . S
C722 C727 1.379 . S
C722 N729 1.356 . S
C723 C722 1.363 . S
C723 C726 1.363 . S
N724 C726 1.356 . S
N724 H736 0.984 . S
N724 H737 0.985 . S
N725 C727 1.356 . S
N725 H730 0.984 . S
N725 H731 0.985 . S
C726 C720 1.379 . S
C726 C723 1.363 . S
C726 N724 1.356 . S
C727 C721 1.363 . S
C727 C722 1.379 . S
C727 N725 1.356 . S
N728 C720 1.356 . S
N728 H734 0.984 . S
N728 H735 0.984 . S
N729 C722 1.356 . S
N729 H732 0.984 . S
N729 H733 0.985 . S
H730 N725 0.984 . S
H731 N725 0.985 . S
H732 N729 0.984 . S
H733 N729 0.985 . S
H734 N728 0.984 . S
H735 N728 0.984 . S
H736 N724 0.984 . S
H737 N724 0.985 . S
C738 C739 1.363 1_545 S
C738 C744 1.379 . S
C738 N746 1.356 1_545 S
C739 C738 1.363 1_565 S
C739 C745 1.363 . S
C740 C741 1.363 . S
C740 C745 1.379 1_545 S
C740 N747 1.356 . S
C741 C740 1.363 . S
C741 C744 1.363 . S
N742 C744 1.356 . S
N742 H754 0.984 . S
N742 H755 0.985 . S
N743 C745 1.356 . S
N743 H748 0.984 . S
N743 H749 0.985 . S
C744 C738 1.379 . S
C744 C741 1.363 . S
C744 N742 1.356 . S
C745 C739 1.363 . S
C745 C740 1.379 1_565 S
C745 N743 1.356 . S
N746 C738 1.356 1_565 S
N746 H752 0.984 1_565 S
N746 H753 0.984 . S
N747 C740 1.356 . S
N747 H750 0.984 . S
N747 H751 0.985 . S
H748 N743 0.984 . S
H749 N743 0.985 . S
H750 N747 0.984 . S
H751 N747 0.985 . S
H752 N746 0.984 1_545 S
H753 N746 0.984 . S
H754 N742 0.984 . S
H755 N742 0.985 . S
C756 C757 1.363 . S
C756 C762 1.379 1_655 S
C756 N764 1.356 . S
C757 C756 1.363 . S
C757 C763 1.363 1_655 S
C758 C759 1.363 . S
C758 C763 1.379 . S
C758 N765 1.356 . S
C759 C758 1.363 . S
C759 C762 1.363 . S
N760 C762 1.356 . S
N760 H772 0.984 . S
N760 H773 0.985 . S
N761 C763 1.356 1_655 S
N761 H766 0.984 . S
N761 H767 0.985 . S
C762 C756 1.379 1_455 S
C762 C759 1.363 . S
C762 N760 1.356 . S
C763 C757 1.363 1_455 S
C763 C758 1.379 . S
C763 N761 1.356 1_455 S
N764 C756 1.356 . S
N764 H770 0.984 . S
N764 H771 0.984 . S
N765 C758 1.356 . S
N765 H768 0.984 . S
N765 H769 0.985 . S
H766 N761 0.984 . S
H767 N761 0.985 . S
H768 N765 0.984 . S
H769 N765 0.985 . S
H770 N764 0.984 . S
H771 N764 0.984 . S
H772 N760 0.984 . S
H773 N760 0.985 . S
C289 C36 1.249 . S
C291 C2 1.232 . S
C307 C93 1.249 . S
C309 C34 1.232 . S
C325 C70 1.232 . S
C327 C4 1.249 . S
C343 C66 1.232 . S
C345 C61 1.248 . S
C361 C68 1.248 . S
C363 C6 1.232 . S
C379 C29 1.249 . S
C381 C38 1.232 . S
C397 C98 1.232 . S
C399 C157 1.248 . S
C415 C164 1.248 . S
C417 C134 1.232 . S
C433 C162 1.232 1_655 S
C435 C100 1.248 1_545 S
C451 C132 1.249 . S
C453 C166 1.232 . S
C469 C189 1.249 . S
C471 C102 1.232 . S
C487 C130 1.232 . S
C489 C125 1.249 . S
C505 C253 1.249 . S
C507 C198 1.232 . S
C523 C230 1.232 . S
C525 C260 1.248 . S
C541 C258 1.232 . S
C543 C221 1.249 . S
C559 C262 1.232 . S
C561 C228 1.249 . S
C577 C285 1.248 1_455 S
C579 C194 1.232 1_565 S
C595 C196 1.248 . S
C597 C226 1.232 . S
C613 N173 1.804 . S
C615 N18 1.804 . S
C631 N109 1.804 . S
C633 N50 1.804 . S
C649 N77 1.804 . S
C651 N146 1.804 . S
C667 N82 1.804 . S
C669 N205 1.804 . S
C685 N13 1.804 . S
C687 N237 1.804 . S
C703 N274 1.804 . S
C705 N45 1.804 . S
C721 N114 1.804 . S
C723 N269 1.804 . S
C739 N141 1.804 . S
C741 N210 1.804 . S
C757 N242 1.804 . S
C759 N178 1.804 . S
