# Generated by pormake.
# Topology umo, (4)-cn, num edge types: 1
# Building blocks:
#     Node 0, Type 0, BuildingBlock: CEKHIL_clean_sbu_0, # of connection points: 4
#     Node 1, Type 0, BuildingBlock: CEKHIL_clean_sbu_0, # of connection points: 4
#     Node 2, Type 0, BuildingBlock: CEKHIL_clean_sbu_0, # of connection points: 4
#     Node 3, Type 0, BuildingBlock: CEKHIL_clean_sbu_0, # of connection points: 4
#     Node 4, Type 0, BuildingBlock: CEKHIL_clean_sbu_0, # of connection points: 4
#     Node 5, Type 0, BuildingBlock: CEKHIL_clean_sbu_0, # of connection points: 4
#     Node 6, Type 0, BuildingBlock: CEKHIL_clean_sbu_0, # of connection points: 4
#     Node 7, Type 0, BuildingBlock: CEKHIL_clean_sbu_0, # of connection points: 4
#     Node 8, Type 0, BuildingBlock: CEKHIL_clean_sbu_0, # of connection points: 4
#     Node 9, Type 0, BuildingBlock: CEKHIL_clean_sbu_0, # of connection points: 4
#     Node 10, Type 0, BuildingBlock: CEKHIL_clean_sbu_0, # of connection points: 4
#     Node 11, Type 0, BuildingBlock: CEKHIL_clean_sbu_0, # of connection points: 4
#     Edge 12, Type (0, 0), BuildingBlock: ZUJKAS_clean_linker_0, # of connection points: 2
#     Edge 13, Type (0, 0), BuildingBlock: ZUJKAS_clean_linker_0, # of connection points: 2
#     Edge 14, Type (0, 0), BuildingBlock: ZUJKAS_clean_linker_0, # of connection points: 2
#     Edge 15, Type (0, 0), BuildingBlock: ZUJKAS_clean_linker_0, # of connection points: 2
#     Edge 16, Type (0, 0), BuildingBlock: ZUJKAS_clean_linker_0, # of connection points: 2
#     Edge 17, Type (0, 0), BuildingBlock: ZUJKAS_clean_linker_0, # of connection points: 2
#     Edge 18, Type (0, 0), BuildingBlock: ZUJKAS_clean_linker_0, # of connection points: 2
#     Edge 19, Type (0, 0), BuildingBlock: ZUJKAS_clean_linker_0, # of connection points: 2
#     Edge 20, Type (0, 0), BuildingBlock: ZUJKAS_clean_linker_0, # of connection points: 2
#     Edge 21, Type (0, 0), BuildingBlock: ZUJKAS_clean_linker_0, # of connection points: 2
#     Edge 22, Type (0, 0), BuildingBlock: ZUJKAS_clean_linker_0, # of connection points: 2
#     Edge 23, Type (0, 0), BuildingBlock: ZUJKAS_clean_linker_0, # of connection points: 2
#     Edge 24, Type (0, 0), BuildingBlock: ZUJKAS_clean_linker_0, # of connection points: 2
#     Edge 25, Type (0, 0), BuildingBlock: ZUJKAS_clean_linker_0, # of connection points: 2
#     Edge 26, Type (0, 0), BuildingBlock: ZUJKAS_clean_linker_0, # of connection points: 2
#     Edge 27, Type (0, 0), BuildingBlock: ZUJKAS_clean_linker_0, # of connection points: 2
#     Edge 28, Type (0, 0), BuildingBlock: ZUJKAS_clean_linker_0, # of connection points: 2
#     Edge 29, Type (0, 0), BuildingBlock: ZUJKAS_clean_linker_0, # of connection points: 2
#     Edge 30, Type (0, 0), BuildingBlock: ZUJKAS_clean_linker_0, # of connection points: 2
#     Edge 31, Type (0, 0), BuildingBlock: ZUJKAS_clean_linker_0, # of connection points: 2
#     Edge 32, Type (0, 0), BuildingBlock: ZUJKAS_clean_linker_0, # of connection points: 2
#     Edge 33, Type (0, 0), BuildingBlock: ZUJKAS_clean_linker_0, # of connection points: 2
#     Edge 34, Type (0, 0), BuildingBlock: ZUJKAS_clean_linker_0, # of connection points: 2
#     Edge 35, Type (0, 0), BuildingBlock: ZUJKAS_clean_linker_0, # of connection points: 2
# Relax obj value: 0.181
# Max RMSD: 0.252
# Mean RMSD: 0.252
data_MOF--net-umo--node1-CEKHIL_clean_sbu_0--edge1-ZUJKAS_clean_linker_0
_symmetry_space_group_name_H-M    P1
_symmetry_Int_Tables_number       1
_symmetry_cell_setting            triclinic
loop_
_symmetry_equiv_pos_as_xyz
'x, y, z'
_cell_length_a     62.116691
_cell_length_b     62.137219
_cell_length_c     47.473932
_cell_angle_alpha  89.993438
_cell_angle_beta   90.017525
_cell_angle_gamma 119.99517
loop_
_atom_site_label
_atom_site_type_symbol
_atom_site_fract_x
_atom_site_fract_y
_atom_site_fract_z
_atom_type_partial_charge
Co0 Co 0.1575 0.52577 0.39321 0.0
O1 O 0.12409 0.49825 0.39352 0.0
O2 O 0.13464 0.53803 0.39167 0.0
C3 C 0.17255 0.51089 0.36013 0.0
O4 O 0.18924 0.55906 0.39146 0.0
Co5 Co 0.20196 0.52013 0.41202 0.0
O6 O 0.22218 0.55358 0.39512 0.0
C7 C 0.17153 0.52669 0.45517 0.0
C8 C 0.11724 0.51484 0.39162 0.0
C9 C 0.21275 0.56736 0.39065 0.0
O10 O 0.15792 0.52772 0.43544 0.0
O11 O 0.18959 0.52276 0.45047 0.0
O12 O 0.15985 0.52148 0.35319 0.0
O13 O 0.1735 0.50709 0.38687 0.0
Co14 Co 0.62869 0.15586 0.55719 0.0
O15 O 0.62303 0.12253 0.5572 0.0
O16 O 0.59371 0.13289 0.55385 0.0
C17 C 0.65986 0.17173 0.52555 0.0
O18 O 0.627 0.18748 0.55534 0.0
Co19 Co 0.67767 0.19986 0.57884 0.0
O20 O 0.66526 0.22034 0.56066 0.0
C21 C 0.63891 0.16861 0.6199 0.0
C22 C 0.59966 0.1156 0.55404 0.0
C23 C 0.64224 0.21097 0.55505 0.0
O24 O 0.62531 0.15546 0.59928 0.0
O25 O 0.66114 0.18667 0.61654 0.0
O26 O 0.63685 0.15903 0.51758 0.0
O27 O 0.66366 0.17216 0.55251 0.0
Co28 Co 0.464 0.62672 0.72191 0.0
O29 O 0.49137 0.62059 0.7231 0.0
O30 O 0.45159 0.59169 0.71838 0.0
C31 C 0.48038 0.65808 0.69056 0.0
O32 O 0.43096 0.62554 0.7191 0.0
Co33 Co 0.46942 0.67626 0.74285 0.0
O34 O 0.43612 0.66361 0.72556 0.0
C35 C 0.46213 0.63783 0.78434 0.0
C36 C 0.47472 0.59734 0.71961 0.0
C37 C 0.42258 0.64068 0.71943 0.0
O38 O 0.46033 0.62343 0.76395 0.0
O39 O 0.4673 0.66035 0.78061 0.0
O40 O 0.46999 0.63513 0.68233 0.0
O41 O 0.48309 0.66157 0.71757 0.0
Co42 Co 0.83717 0.47295 0.89487 0.0
O43 O 0.87108 0.49935 0.89426 0.0
O44 O 0.8587 0.45924 0.89019 0.0
C45 C 0.82243 0.49008 0.86414 0.0
O46 O 0.80428 0.44064 0.89339 0.0
Co47 Co 0.79562 0.48136 0.91822 0.0
O48 O 0.7732 0.44842 0.90133 0.0
C49 C 0.82617 0.47145 0.95798 0.0
C50 C 0.8768 0.48214 0.89014 0.0
C51 C 0.78104 0.4337 0.89457 0.0
O52 O 0.83827 0.46979 0.93695 0.0
O53 O 0.80902 0.47705 0.95522 0.0
O54 O 0.83375 0.47856 0.85547 0.0
O55 O 0.82264 0.49335 0.89117 0.0
Co56 Co 0.36515 0.83652 0.05885 0.0
O57 O 0.3706 0.86983 0.05944 0.0
O58 O 0.40019 0.85977 0.05775 0.0
C59 C 0.33535 0.82132 0.02554 0.0
O60 O 0.36734 0.80514 0.05693 0.0
Co61 Co 0.31528 0.79121 0.07678 0.0
O62 O 0.32928 0.77159 0.06002 0.0
C63 C 0.35175 0.82158 0.12052 0.0
C64 C 0.39414 0.87698 0.05786 0.0
C65 C 0.35259 0.78156 0.05591 0.0
O66 O 0.36638 0.83572 0.1011 0.0
O67 O 0.32998 0.80327 0.11541 0.0
O68 O 0.35866 0.83435 0.01875 0.0
O69 O 0.33049 0.82009 0.05226 0.0
Co70 Co 0.52481 0.36264 0.2268 0.0
O71 O 0.49687 0.36777 0.22513 0.0
O72 O 0.53642 0.39765 0.22402 0.0
C73 C 0.51127 0.3321 0.19441 0.0
O74 O 0.55835 0.3647 0.2271 0.0
Co75 Co 0.51893 0.31332 0.24843 0.0
O76 O 0.55292 0.32648 0.23305 0.0
C77 C 0.52504 0.35146 0.28963 0.0
C78 C 0.51306 0.39129 0.22306 0.0
C79 C 0.56674 0.34957 0.22796 0.0
O80 O 0.52592 0.36527 0.26902 0.0
O81 O 0.52112 0.32933 0.28616 0.0
O82 O 0.52188 0.35526 0.18699 0.0
O83 O 0.50646 0.32775 0.2211 0.0
Co84 Co 0.46934 0.83526 0.4417 0.0
O85 O 0.49727 0.86842 0.44133 0.0
O86 O 0.45766 0.85861 0.44244 0.0
C87 C 0.48347 0.82001 0.47542 0.0
O88 O 0.43573 0.8039 0.44326 0.0
Co89 Co 0.47425 0.7902 0.42387 0.0
O90 O 0.44051 0.77051 0.44026 0.0
C91 C 0.46844 0.82057 0.38001 0.0
C92 C 0.48099 0.8757 0.4426 0.0
C93 C 0.42701 0.78033 0.44421 0.0
O94 O 0.46777 0.83459 0.39946 0.0
O95 O 0.47187 0.80226 0.38512 0.0
O96 O 0.47312 0.83303 0.48185 0.0
O97 O 0.4875 0.81883 0.44879 0.0
Co98 Co 0.62905 0.46526 0.61558 0.0
O99 O 0.62206 0.49205 0.61591 0.0
O100 O 0.59382 0.45187 0.61896 0.0
C101 C 0.66005 0.48108 0.64751 0.0
O102 O 0.62879 0.43264 0.61655 0.0
Co103 Co 0.67906 0.4728 0.59397 0.0
O104 O 0.66725 0.43904 0.60944 0.0
C105 C 0.64025 0.46496 0.55278 0.0
C106 C 0.59893 0.47485 0.61869 0.0
C107 C 0.64437 0.42483 0.61528 0.0
O108 O 0.626 0.46297 0.57343 0.0
O109 O 0.66282 0.47022 0.55625 0.0
O110 O 0.63694 0.46979 0.65527 0.0
O111 O 0.66392 0.48506 0.62063 0.0
Co112 Co 0.15741 0.63079 0.77665 0.0
O113 O 0.12478 0.62699 0.77655 0.0
O114 O 0.13293 0.59606 0.77784 0.0
C115 C 0.17405 0.66063 0.80983 0.0
O116 O 0.18794 0.62704 0.77801 0.0
Co117 Co 0.20372 0.67966 0.75818 0.0
O118 O 0.22227 0.66457 0.77515 0.0
C119 C 0.17199 0.64362 0.7148 0.0
C120 C 0.11654 0.60323 0.77794 0.0
C121 C 0.21163 0.64118 0.77907 0.0
O122 O 0.15768 0.62939 0.73439 0.0
O123 O 0.19089 0.66504 0.7197 0.0
O124 O 0.16033 0.63743 0.81679 0.0
O125 O 0.17513 0.66541 0.78311 0.0
Co126 Co 0.52449 0.15801 0.94429 0.0
O127 O 0.4983 0.1244 0.94914 0.0
O128 O 0.53852 0.1366 0.94802 0.0
C129 C 0.51112 0.17537 0.97629 0.0
O130 O 0.55659 0.19083 0.94051 0.0
Co131 Co 0.51294 0.19721 0.92051 0.0
O132 O 0.54738 0.22094 0.93267 0.0
C133 C 0.52023 0.16486 0.88098 0.0
C134 C 0.51569 0.11868 0.95098 0.0
C135 C 0.56301 0.21383 0.93768 0.0
O136 O 0.52331 0.15385 0.90221 0.0
O137 O 0.51469 0.18204 0.88361 0.0
O138 O 0.52362 0.16475 0.98386 0.0
O139 O 0.50431 0.17261 0.95006 0.0
Co140 Co 0.36607 0.52796 0.1141 0.0
O141 O 0.37094 0.49982 0.11403 0.0
O142 O 0.40099 0.53921 0.11683 0.0
C143 C 0.33525 0.51326 0.14616 0.0
O144 O 0.36854 0.56167 0.11573 0.0
Co145 Co 0.31688 0.52375 0.09373 0.0
O146 O 0.33063 0.55728 0.11072 0.0
C147 C 0.35452 0.52962 0.05176 0.0
C148 C 0.39448 0.51582 0.11674 0.0
C149 C 0.35379 0.57053 0.11583 0.0
O150 O 0.36871 0.53047 0.07194 0.0
O151 O 0.33244 0.5257 0.05579 0.0
O152 O 0.35831 0.52332 0.15393 0.0
O153 O 0.33125 0.50995 0.11927 0.0
Co154 Co 0.83688 0.36337 0.27812 0.0
O155 O 0.87044 0.36969 0.27912 0.0
O156 O 0.85933 0.39853 0.28024 0.0
C157 C 0.82123 0.33316 0.31097 0.0
O158 O 0.80488 0.36447 0.27861 0.0
Co159 Co 0.79335 0.31324 0.25809 0.0
O160 O 0.77234 0.32593 0.27407 0.0
C161 C 0.82456 0.35072 0.21574 0.0
C162 C 0.87693 0.39304 0.28106 0.0
C163 C 0.7814 0.34906 0.27871 0.0
O164 O 0.83763 0.36524 0.23582 0.0
O165 O 0.80648 0.32866 0.21999 0.0
O166 O 0.83346 0.35641 0.31812 0.0
O167 O 0.8211 0.32865 0.28424 0.0
H168 H 0.26258 0.59185 0.38004 0.0
H169 H 0.29163 0.63598 0.38733 0.0
H170 H 0.23057 0.6484 0.40474 0.0
H171 H 0.20119 0.60416 0.39746 0.0
H172 H 0.29508 0.68313 0.36518 0.0
H173 H 0.27347 0.66386 0.47966 0.0
H174 H 0.2655 0.63897 0.45486 0.0
H175 H 0.24852 0.65531 0.45486 0.0
C176 C 0.25524 0.60401 0.38476 0.0
C177 C 0.22964 0.59445 0.38865 0.0
C178 C 0.27185 0.62922 0.38881 0.0
C179 C 0.26314 0.64521 0.39692 0.0
C180 C 0.23753 0.63619 0.39866 0.0
H181 H 0.39097 0.79261 0.43515 0.0
H182 H 0.34675 0.76371 0.42688 0.0
C183 C 0.22083 0.61094 0.39441 0.0
C184 C 0.28124 0.67028 0.40693 0.0
H185 H 0.31016 0.70025 0.46756 0.0
C186 C 0.29801 0.68738 0.38749 0.0
C187 C 0.28486 0.67549 0.43611 0.0
C188 C 0.26725 0.65752 0.45775 0.0
C189 C 0.31949 0.7088 0.39659 0.0
C190 C 0.3241 0.71299 0.42581 0.0
C191 C 0.30637 0.69689 0.4452 0.0
C192 C 0.34909 0.7309 0.43622 0.0
C193 C 0.33816 0.7257 0.37502 0.0
C194 C 0.36457 0.72191 0.44546 0.0
C195 C 0.38977 0.73824 0.45006 0.0
C196 C 0.39982 0.76384 0.44562 0.0
C197 C 0.3838 0.77296 0.43869 0.0
C198 C 0.35856 0.75654 0.43386 0.0
H199 H 0.33215 0.71917 0.35311 0.0
H200 H 0.34091 0.7447 0.37711 0.0
H201 H 0.3564 0.72693 0.37877 0.0
H202 H 0.35744 0.7021 0.44742 0.0
H203 H 0.40157 0.73067 0.45566 0.0
H204 H 0.59478 0.20024 0.56573 0.0
H205 H 0.58081 0.23025 0.57328 0.0
H206 H 0.65268 0.28966 0.54737 0.0
H207 H 0.66698 0.25991 0.54018 0.0
H208 H 0.61004 0.26939 0.61462 0.0
H209 H 0.60061 0.30654 0.51201 0.0
H210 H 0.59696 0.27592 0.51586 0.0
H211 H 0.62749 0.30288 0.51452 0.0
C212 C 0.60736 0.21959 0.56072 0.0
C213 C 0.6321 0.22784 0.55269 0.0
C214 C 0.59931 0.23665 0.56507 0.0
C215 C 0.6157 0.26203 0.56076 0.0
C216 C 0.63969 0.27005 0.55044 0.0
H217 H 0.67031 0.40071 0.62466 0.0
H218 H 0.65577 0.35679 0.61579 0.0
C219 C 0.64789 0.25308 0.54652 0.0
C220 C 0.60979 0.28061 0.5717 0.0
H221 H 0.61014 0.33352 0.55233 0.0
C222 C 0.60929 0.28305 0.60105 0.0
C223 C 0.6087 0.2982 0.55389 0.0
C224 C 0.60823 0.2957 0.52228 0.0
C225 C 0.61001 0.30397 0.61307 0.0
C226 C 0.61117 0.32264 0.59521 0.0
C227 C 0.60939 0.31912 0.56592 0.0
C228 C 0.61804 0.34743 0.60601 0.0
C229 C 0.61102 0.30675 0.64466 0.0
C230 C 0.60136 0.35631 0.60417 0.0
C231 C 0.60953 0.3813 0.60954 0.0
C232 C 0.63465 0.3978 0.61614 0.0
C233 C 0.65091 0.38846 0.61953 0.0
C234 C 0.64262 0.3634 0.61458 0.0
H235 H 0.6039 0.28855 0.65542 0.0
H236 H 0.63061 0.31904 0.65126 0.0
H237 H 0.60005 0.31542 0.65169 0.0
H238 H 0.58238 0.34417 0.59736 0.0
H239 H 0.59656 0.38796 0.60661 0.0
H240 H 0.19869 0.59387 0.76407 0.0
H241 H 0.22714 0.57819 0.75484 0.0
H242 H 0.28826 0.64659 0.78645 0.0
H243 H 0.2601 0.66257 0.79539 0.0
H244 H 0.26753 0.60713 0.71585 0.0
H245 H 0.30098 0.59086 0.81739 0.0
H246 H 0.27137 0.58958 0.81371 0.0
H247 H 0.29956 0.61904 0.81685 0.0
C248 C 0.21805 0.60525 0.76996 0.0
C249 C 0.22728 0.62957 0.7802 0.0
C250 C 0.23423 0.59625 0.76462 0.0
C251 C 0.25967 0.61121 0.7701 0.0
C252 C 0.26857 0.63466 0.78246 0.0
H253 H 0.39789 0.66569 0.70776 0.0
H254 H 0.35359 0.65034 0.71465 0.0
C255 C 0.25252 0.64382 0.7874 0.0
C256 C 0.27766 0.60462 0.75867 0.0
H257 H 0.32919 0.60217 0.7778 0.0
C258 C 0.28061 0.60525 0.72931 0.0
C259 C 0.29447 0.60195 0.77628 0.0
C260 C 0.29134 0.60007 0.80783 0.0
C261 C 0.30142 0.60574 0.71724 0.0
C262 C 0.31951 0.60559 0.73507 0.0
C263 C 0.3153 0.60247 0.76421 0.0
C264 C 0.34457 0.61277 0.72474 0.0
C265 C 0.3047 0.60791 0.68572 0.0
C266 C 0.35388 0.59648 0.72738 0.0
C267 C 0.37915 0.60515 0.72322 0.0
C268 C 0.3955 0.63038 0.71703 0.0
C269 C 0.38577 0.64621 0.71263 0.0
C270 C 0.36047 0.63743 0.7164 0.0
H271 H 0.28658 0.60064 0.67474 0.0
H272 H 0.31653 0.62778 0.67998 0.0
H273 H 0.31401 0.59771 0.6781 0.0
H274 H 0.34185 0.57744 0.73404 0.0
H275 H 0.38609 0.59249 0.72685 0.0
H276 H 0.73075 0.41261 0.89019 0.0
H277 H 0.69997 0.36861 0.89307 0.0
H278 H 0.75832 0.35019 0.89455 0.0
H279 H 0.78954 0.39445 0.89196 0.0
H280 H 0.6913 0.32605 0.85923 0.0
H281 H 0.71946 0.32272 0.97016 0.0
H282 H 0.72892 0.35191 0.95268 0.0
H283 H 0.74263 0.33356 0.94282 0.0
C284 C 0.73713 0.39926 0.89069 0.0
C285 C 0.76261 0.40707 0.89124 0.0
C286 C 0.7195 0.37412 0.89225 0.0
C287 C 0.72697 0.35631 0.89442 0.0
C288 C 0.75229 0.36379 0.89324 0.0
H289 H 0.60254 0.20587 0.93362 0.0
H290 H 0.64579 0.23705 0.9231 0.0
C291 C 0.77004 0.38904 0.8916 0.0
C292 C 0.70792 0.33033 0.90015 0.0
H293 H 0.68068 0.29044 0.95523 0.0
C294 C 0.68931 0.31784 0.87992 0.0
C295 C 0.70549 0.31977 0.9272 0.0
C296 C 0.72507 0.33259 0.94962 0.0
C297 C 0.66738 0.29597 0.88675 0.0
C298 C 0.66406 0.28665 0.91449 0.0
C299 C 0.68346 0.29787 0.93403 0.0
C300 C 0.63922 0.26806 0.92449 0.0
C301 C 0.64711 0.28391 0.86493 0.0
C302 C 0.62174 0.27554 0.92973 0.0
C303 C 0.59719 0.25796 0.93575 0.0
C304 C 0.58971 0.23257 0.9366 0.0
C305 C 0.60771 0.2253 0.9331 0.0
C306 C 0.63237 0.243 0.92701 0.0
H307 H 0.65437 0.29 0.84326 0.0
H308 H 0.63807 0.26335 0.86614 0.0
H309 H 0.6327 0.28909 0.86905 0.0
H310 H 0.62693 0.29494 0.92807 0.0
H311 H 0.58388 0.26421 0.9386 0.0
H312 H 0.40043 0.79379 0.06741 0.0
H313 H 0.41575 0.76493 0.07557 0.0
H314 H 0.34479 0.70376 0.05003 0.0
H315 H 0.32918 0.73234 0.0421 0.0
H316 H 0.38938 0.72615 0.11689 0.0
H317 H 0.39719 0.68866 0.01395 0.0
H318 H 0.3991 0.71856 0.01759 0.0
H319 H 0.36934 0.6905 0.01735 0.0
C320 C 0.38832 0.77429 0.06265 0.0
C321 C 0.36348 0.76525 0.05438 0.0
C322 C 0.39714 0.75788 0.06738 0.0
C323 C 0.38143 0.73234 0.06326 0.0
C324 C 0.35728 0.7235 0.05293 0.0
H325 H 0.33037 0.59617 0.13019 0.0
H326 H 0.34569 0.6403 0.1221 0.0
C327 C 0.34834 0.73982 0.04858 0.0
C328 C 0.38839 0.71439 0.07394 0.0
H329 H 0.38874 0.66187 0.05441 0.0
C330 C 0.39002 0.71248 0.10324 0.0
C331 C 0.38946 0.69683 0.05606 0.0
C332 C 0.38893 0.69883 0.02445 0.0
C333 C 0.39026 0.69199 0.11522 0.0
C334 C 0.38883 0.67318 0.09737 0.0
C335 C 0.38966 0.67633 0.06804 0.0
C336 C 0.38221 0.64844 0.10828 0.0
C337 C 0.39055 0.68986 0.14683 0.0
C338 C 0.39797 0.6387 0.10392 0.0
C339 C 0.38934 0.61352 0.10879 0.0
C340 C 0.36462 0.5977 0.11742 0.0
C341 C 0.34944 0.6079 0.12346 0.0
C342 C 0.35822 0.63311 0.119 0.0
H343 H 0.39883 0.70838 0.15709 0.0
H344 H 0.37117 0.67845 0.15454 0.0
H345 H 0.40113 0.68062 0.15333 0.0
H346 H 0.41646 0.65027 0.0954 0.0
H347 H 0.40144 0.60617 0.10381 0.0
H348 H 0.73132 0.32304 0.28759 0.0
H349 H 0.70213 0.33807 0.28103 0.0
H350 H 0.76306 0.41222 0.2666 0.0
H351 H 0.79259 0.39742 0.27314 0.0
H352 H 0.69859 0.38093 0.30607 0.0
H353 H 0.72031 0.38757 0.19121 0.0
H354 H 0.72819 0.36965 0.2146 0.0
H355 H 0.74519 0.40292 0.21634 0.0
C356 C 0.73859 0.34264 0.28361 0.0
C357 C 0.76423 0.35895 0.28046 0.0
C358 C 0.7219 0.35121 0.27998 0.0
C359 C 0.73056 0.37614 0.27303 0.0
C360 C 0.75615 0.39288 0.2718 0.0
H361 H 0.60326 0.3976 0.23719 0.0
H362 H 0.64739 0.41232 0.24555 0.0
C363 C 0.77293 0.38436 0.27562 0.0
C364 C 0.71242 0.3834 0.26398 0.0
H365 H 0.68338 0.38642 0.20438 0.0
C366 C 0.69564 0.38301 0.28395 0.0
C367 C 0.70878 0.38602 0.23506 0.0
C368 C 0.72646 0.38654 0.21289 0.0
C369 C 0.67414 0.38323 0.27552 0.0
C370 C 0.66949 0.38375 0.24645 0.0
C371 C 0.68722 0.38612 0.22662 0.0
C372 C 0.64445 0.37687 0.23646 0.0
C373 C 0.65547 0.38074 0.29749 0.0
C374 C 0.62866 0.35238 0.22756 0.0
C375 C 0.60352 0.34385 0.22297 0.0
C376 C 0.59386 0.35978 0.22704 0.0
C377 C 0.61017 0.38489 0.23385 0.0
C378 C 0.63534 0.39335 0.23872 0.0
H379 H 0.66188 0.38037 0.31924 0.0
H380 H 0.652 0.39656 0.29573 0.0
H381 H 0.63753 0.36339 0.29385 0.0
H382 H 0.63551 0.33947 0.22573 0.0
H383 H 0.59146 0.32449 0.21752 0.0
H384 H 0.20271 0.66269 0.66882 0.0
H385 H 0.19944 0.64154 0.62426 0.0
H386 H 0.12944 0.57954 0.65076 0.0
H387 H 0.13255 0.60034 0.69541 0.0
H388 H 0.16348 0.56574 0.63321 0.0
H389 H 0.15545 0.62747 0.55461 0.0
H390 H 0.1812 0.6432 0.5784 0.0
H391 H 0.14997 0.6289 0.59174 0.0
C392 C 0.1863 0.64483 0.66495 0.0
C393 C 0.16795 0.63322 0.68584 0.0
C394 C 0.18447 0.63275 0.63941 0.0
C395 C 0.16417 0.60898 0.63417 0.0
C396 C 0.14529 0.59786 0.6544 0.0
H397 H 0.13241 0.53104 0.47452 0.0
H398 H 0.12946 0.54878 0.51919 0.0
C399 C 0.14709 0.60986 0.67991 0.0
C400 C 0.16349 0.59488 0.60863 0.0
H401 H 0.1634 0.59634 0.53677 0.0
C402 C 0.16332 0.57234 0.6121 0.0
C403 C 0.1631 0.60345 0.58115 0.0
C404 C 0.16221 0.62696 0.57614 0.0
C405 C 0.16316 0.55831 0.58882 0.0
C406 C 0.1635 0.56723 0.56134 0.0
C407 C 0.16328 0.58959 0.55787 0.0
C408 C 0.16409 0.55379 0.53579 0.0
C409 C 0.16232 0.53393 0.59385 0.0
C410 C 0.18429 0.55013 0.53052 0.0
C411 C 0.18601 0.53983 0.50498 0.0
C412 C 0.16766 0.53323 0.4841 0.0
C413 C 0.14694 0.53596 0.49002 0.0
C414 C 0.14523 0.54618 0.51554 0.0
H415 H 0.15554 0.52665 0.61536 0.0
H416 H 0.15012 0.51974 0.57823 0.0
H417 H 0.18133 0.53672 0.59164 0.0
H418 H 0.19926 0.55622 0.54567 0.0
H419 H 0.20232 0.53821 0.50108 0.0
H420 H 0.58999 0.13778 0.63281 0.0
H421 H 0.56888 0.13507 0.67684 0.0
H422 H 0.63905 0.18596 0.71562 0.0
H423 H 0.66041 0.18971 0.67094 0.0
H424 H 0.56962 0.12018 0.72772 0.0
H425 H 0.6011 0.22077 0.73195 0.0
H426 H 0.60638 0.20654 0.70166 0.0
H427 H 0.62643 0.21467 0.73195 0.0
C428 C 0.60111 0.14832 0.65068 0.0
C429 C 0.62698 0.16421 0.64811 0.0
C430 C 0.58891 0.14673 0.67595 0.0
C431 C 0.60221 0.16079 0.69944 0.0
C432 C 0.62823 0.17555 0.69754 0.0
H433 H 0.54175 0.13694 0.86846 0.0
H434 H 0.55983 0.13478 0.82396 0.0
C435 C 0.64048 0.17745 0.67205 0.0
C436 C 0.58854 0.16015 0.72552 0.0
H437 H 0.57935 0.19684 0.77191 0.0
C438 C 0.57171 0.13697 0.73732 0.0
C439 C 0.59075 0.18197 0.73776 0.0
C440 C 0.60693 0.20736 0.72503 0.0
C441 C 0.55731 0.135 0.76105 0.0
C442 C 0.5604 0.15688 0.77407 0.0
C443 C 0.57702 0.18004 0.7621 0.0
C444 C 0.54726 0.15634 0.80055 0.0
C445 C 0.53851 0.10941 0.77141 0.0
C446 C 0.53423 0.1694 0.80255 0.0
C447 C 0.52415 0.17109 0.82831 0.0
C448 C 0.52683 0.15968 0.85263 0.0
C449 C 0.539 0.14577 0.85022 0.0
C450 C 0.54932 0.14438 0.82462 0.0
H451 H 0.53225 0.09552 0.75411 0.0
H452 H 0.54721 0.1035 0.78782 0.0
H453 H 0.52195 0.10914 0.78061 0.0
H454 H 0.5324 0.17883 0.78431 0.0
H455 H 0.51502 0.18204 0.82935 0.0
H456 H 0.40305 0.54766 0.03686 0.0
H457 H 0.42255 0.56531 0.99183 0.0
H458 H 0.3509 0.54462 0.95616 0.0
H459 H 0.33118 0.52769 0.0017 0.0
H460 H 0.41979 0.54863 0.94059 0.0
H461 H 0.38799 0.61752 0.93918 0.0
H462 H 0.38418 0.59851 0.96954 0.0
H463 H 0.36266 0.58614 0.94055 0.0
C464 C 0.39128 0.54659 0.01944 0.0
C465 C 0.3655 0.53647 0.0231 0.0
C466 C 0.40254 0.55677 0.99363 0.0
C467 C 0.38832 0.55694 0.97077 0.0
C468 C 0.36238 0.54545 0.97376 0.0
H469 H 0.43934 0.58873 0.79843 0.0
H470 H 0.42332 0.56999 0.84415 0.0
C471 C 0.35108 0.53552 0.99975 0.0
C472 C 0.40088 0.56962 0.94415 0.0
H473 H 0.40734 0.6143 0.89748 0.0
C474 C 0.41712 0.56305 0.93122 0.0
C475 C 0.39797 0.58893 0.93228 0.0
C476 C 0.38248 0.5984 0.94625 0.0
C477 C 0.43013 0.57488 0.90654 0.0
C478 C 0.42615 0.59322 0.89382 0.0
C479 C 0.41027 0.60012 0.90704 0.0
C480 C 0.43752 0.60491 0.86637 0.0
C481 C 0.44839 0.5679 0.89477 0.0
C482 C 0.4505 0.6309 0.86331 0.0
C483 C 0.45933 0.64179 0.83688 0.0
C484 C 0.45545 0.62687 0.813 0.0
C485 C 0.44301 0.60088 0.81634 0.0
C486 C 0.43391 0.59005 0.84262 0.0
H487 H 0.45571 0.56083 0.91156 0.0
H488 H 0.43881 0.55283 0.87905 0.0
H489 H 0.46431 0.58396 0.88434 0.0
H490 H 0.45343 0.64278 0.88131 0.0
H491 H 0.46876 0.66184 0.83507 0.0
H492 H 0.86536 0.39282 0.19623 0.0
H493 H 0.86933 0.41424 0.15173 0.0
H494 H 0.79739 0.35498 0.12578 0.0
H495 H 0.79346 0.3331 0.17 0.0
H496 H 0.83078 0.37261 0.08204 0.0
H497 H 0.83112 0.45073 0.13912 0.0
H498 H 0.85549 0.4449 0.14966 0.0
H499 H 0.82358 0.42184 0.15613 0.0
C500 C 0.85052 0.38411 0.1809 0.0
C501 C 0.82894 0.36133 0.18688 0.0
C502 C 0.85275 0.39651 0.15554 0.0
C503 C 0.83334 0.38659 0.13579 0.0
C504 C 0.8125 0.36312 0.14085 0.0
H505 H 0.7982 0.46198 0.00603 0.0
H506 H 0.80147 0.44252 0.04936 0.0
C507 C 0.81033 0.35057 0.16613 0.0
C508 C 0.83421 0.40111 0.1105 0.0
H509 H 0.83761 0.45545 0.08985 0.0
C510 C 0.83234 0.39075 0.08372 0.0
C511 C 0.8358 0.4246 0.11275 0.0
C512 C 0.83637 0.43612 0.14095 0.0
C513 C 0.83218 0.40329 0.05915 0.0
C514 C 0.83446 0.42708 0.06138 0.0
C515 C 0.83617 0.43737 0.08816 0.0
C516 C 0.83408 0.4411 0.03619 0.0
C517 C 0.82884 0.39059 0.03107 0.0
C518 C 0.85194 0.44775 0.01487 0.0
C519 C 0.85012 0.45884 0.99004 0.0
C520 C 0.8305 0.46375 0.98609 0.0
C521 C 0.81354 0.45849 0.00827 0.0
C522 C 0.81532 0.44727 0.03305 0.0
H523 H 0.82104 0.37024 0.03348 0.0
H524 H 0.81635 0.39379 0.01712 0.0
H525 H 0.84717 0.3983 0.02054 0.0
H526 H 0.86698 0.44381 0.01715 0.0
H527 H 0.86369 0.46285 0.97358 0.0
H528 H 0.33234 0.78995 0.1657 0.0
H529 H 0.35318 0.79233 0.21025 0.0
H530 H 0.41536 0.86284 0.18542 0.0
H531 H 0.39489 0.86059 0.14076 0.0
H532 H 0.42914 0.82861 0.20199 0.0
H533 H 0.36656 0.83474 0.28102 0.0
H534 H 0.35119 0.8094 0.25665 0.0
H535 H 0.3653 0.84084 0.24405 0.0
C536 C 0.35017 0.80627 0.16996 0.0
C537 C 0.36194 0.82503 0.14952 0.0
C538 C 0.36207 0.80759 0.19548 0.0
C539 C 0.38581 0.82779 0.20118 0.0
C540 C 0.39708 0.84706 0.18141 0.0
H541 H 0.46429 0.85964 0.36011 0.0
H542 H 0.44624 0.86218 0.31549 0.0
C543 C 0.38526 0.84575 0.15591 0.0
C544 C 0.39974 0.82802 0.22668 0.0
H545 H 0.39805 0.82721 0.29855 0.0
C546 C 0.42241 0.82842 0.22312 0.0
C547 C 0.391 0.8279 0.2542 0.0
C548 C 0.3673 0.82842 0.25933 0.0
C549 C 0.43643 0.82845 0.24635 0.0
C550 C 0.42741 0.82776 0.27385 0.0
C551 C 0.40488 0.82762 0.27742 0.0
C552 C 0.44103 0.82736 0.29933 0.0
C553 C 0.46095 0.82958 0.24129 0.0
C554 C 0.4447 0.80721 0.30478 0.0
C555 C 0.45515 0.8057 0.33032 0.0
C556 C 0.46192 0.82424 0.35098 0.0
C557 C 0.45924 0.84496 0.3448 0.0
C558 C 0.44883 0.84643 0.31931 0.0
H559 H 0.46805 0.83611 0.21966 0.0
H560 H 0.47515 0.84211 0.25671 0.0
H561 H 0.45846 0.81072 0.2439 0.0
H562 H 0.4385 0.79211 0.28979 0.0
H563 H 0.45674 0.7894 0.33441 0.0
H564 H 0.5453 0.40063 0.30264 0.0
H565 H 0.56405 0.42106 0.34688 0.0
H566 H 0.53985 0.34981 0.38573 0.0
H567 H 0.52194 0.3291 0.34085 0.0
H568 H 0.54923 0.42188 0.39746 0.0
H569 H 0.61229 0.38305 0.40271 0.0
H570 H 0.59335 0.37916 0.37226 0.0
H571 H 0.58017 0.35931 0.40252 0.0
C572 C 0.54366 0.38914 0.32059 0.0
C573 C 0.5323 0.36313 0.31798 0.0
C574 C 0.5545 0.40095 0.34597 0.0
C575 C 0.55406 0.3871 0.36953 0.0
C576 C 0.54125 0.36101 0.3676 0.0
H577 H 0.59132 0.4457 0.53892 0.0
H578 H 0.57144 0.42873 0.49395 0.0
C579 C 0.53073 0.34915 0.34199 0.0
C580 C 0.56752 0.4002 0.39569 0.0
H581 H 0.6114 0.40534 0.4429 0.0
C582 C 0.56288 0.4183 0.40731 0.0
C583 C 0.58587 0.3961 0.40823 0.0
C584 C 0.59344 0.37856 0.39563 0.0
C585 C 0.5757 0.43203 0.43126 0.0
C586 C 0.59304 0.42694 0.44469 0.0
C587 C 0.59799 0.40916 0.43281 0.0
C588 C 0.60563 0.43913 0.47157 0.0
C589 C 0.57088 0.45225 0.44145 0.0
C590 C 0.63159 0.45041 0.47434 0.0
C591 C 0.64312 0.45982 0.5004 0.0
C592 C 0.62891 0.45819 0.52422 0.0
C593 C 0.603 0.44757 0.52108 0.0
C594 C 0.59152 0.43793 0.4952 0.0
H595 H 0.56459 0.45967 0.42395 0.0
H596 H 0.55588 0.44445 0.45747 0.0
H597 H 0.58775 0.4679 0.45106 0.0
H598 H 0.64291 0.4515 0.45644 0.0
H599 H 0.66307 0.46777 0.50201 0.0
H600 H 0.91773 0.38752 0.28044 0.0
H601 H 0.95897 0.41669 0.29895 0.0
H602 H 0.93565 0.47025 0.31514 0.0
H603 H 0.89429 0.44126 0.29646 0.0
H604 H 0.99455 0.47326 0.28523 0.0
H605 H 0.95509 0.44754 0.39367 0.0
H606 H 0.94039 0.42717 0.36403 0.0
H607 H 0.93906 0.4552 0.36735 0.0
C608 C 0.92151 0.4057 0.28737 0.0
C609 C 0.90277 0.41205 0.28729 0.0
C610 C 0.94504 0.4223 0.29788 0.0
C611 C 0.95006 0.44537 0.30855 0.0
C612 C 0.93192 0.45242 0.30701 0.0
H613 H 0.0987 0.54504 0.37756 0.0
H614 H 0.05686 0.53194 0.35994 0.0
C615 C 0.90839 0.43587 0.29631 0.0
C616 C 0.97351 0.46083 0.32364 0.0
H617 H -0.00149 0.47167 0.38963 0.0
C618 C 0.99551 0.47345 0.30806 0.0
C619 C 0.9744 0.46066 0.35338 0.0
C620 C 0.95106 0.4469 0.37079 0.0
C621 C 0.01867 0.48525 0.32154 0.0
C622 C 0.01961 0.48431 0.35125 0.0
C623 C -0.00245 0.47246 0.36687 0.0
C624 C 0.04333 0.49275 0.36599 0.0
C625 C 0.04203 0.49741 0.30394 0.0
C626 C 0.04898 0.475 0.37624 0.0
C627 C 0.07276 0.48235 0.38623 0.0
C628 C 0.09115 0.50757 0.38619 0.0
C629 C 0.0849 0.52545 0.37773 0.0
C630 C 0.0611 0.51805 0.3676 0.0
H631 H 0.03802 0.49432 0.28103 0.0
H632 H 0.05219 0.51773 0.30795 0.0
H633 H 0.05448 0.49013 0.30993 0.0
H634 H 0.03536 0.45537 0.37517 0.0
H635 H 0.07702 0.46818 0.39276 0.0
H636 H 0.45131 0.89543 0.4539 0.0
H637 H 0.46482 0.93785 0.46954 0.0
H638 H 0.54136 0.95733 0.4582 0.0
H639 H 0.5281 0.91516 0.44244 0.0
H640 H 0.49469 0.95746 0.51771 0.0
H641 H 0.53928 0.017 0.42454 0.0
H642 H 0.51769 0.98402 0.42172 0.0
H643 H 0.54969 0.99518 0.43074 0.0
C644 C 0.47099 0.90893 0.45407 0.0
C645 C 0.48869 0.902 0.44714 0.0
C646 C 0.47864 0.9331 0.46303 0.0
C647 C 0.50402 0.95067 0.46479 0.0
C648 C 0.52165 0.94412 0.45647 0.0
H649 H 0.60681 0.0758 0.5534 0.0
H650 H 0.57875 0.0347 0.53377 0.0
C651 C 0.51405 0.91998 0.44764 0.0
C652 C 0.5124 0.97484 0.47852 0.0
H653 H 0.55192 0.03694 0.46998 0.0
C654 C 0.50673 0.97492 0.50715 0.0
C655 C 0.52806 -0.00251 0.46461 0.0
C656 C 0.53385 -0.00151 0.43362 0.0
C657 C 0.51764 0.99705 0.52268 0.0
C658 C 0.53442 0.0194 0.50911 0.0
C659 C 0.53904 0.01956 0.4802 0.0
C660 C 0.54918 0.0425 0.52496 0.0
C661 C 0.51221 0.99645 0.5537 0.0
C662 C 0.54131 0.05997 0.5271 0.0
C663 C 0.55722 0.08342 0.53842 0.0
C664 C 0.58124 0.08965 0.54737 0.0
C665 C 0.58844 0.07154 0.5466 0.0
C666 C 0.5725 0.0481 0.53542 0.0
H667 H 0.49719 0.97788 0.56066 0.0
H668 H 0.52931 0.00137 0.56591 0.0
H669 H 0.50671 0.01051 0.55865 0.0
H670 H 0.52332 0.05579 0.519 0.0
H671 H 0.55117 0.09702 0.53878 0.0
H672 H 0.51427 0.59531 0.74099 0.0
H673 H 0.53032 0.56864 0.72462 0.0
H674 H 0.46905 0.5329 0.66621 0.0
H675 H 0.45202 0.55817 0.68412 0.0
H676 H 0.48058 0.50078 0.68295 0.0
H677 H 0.56769 0.5857 0.65308 0.0
H678 H 0.56269 0.58462 0.69031 0.0
H679 H 0.54119 0.58683 0.66656 0.0
C680 C 0.50401 0.58133 0.72514 0.0
C681 C 0.48213 0.57885 0.71354 0.0
C682 C 0.51328 0.56632 0.71558 0.0
C683 C 0.50142 0.54951 0.69338 0.0
C684 C 0.47866 0.54593 0.68313 0.0
H685 H 0.5924 0.50983 0.59224 0.0
H686 H 0.56431 0.52481 0.60647 0.0
C687 C 0.46894 0.56034 0.69338 0.0
C688 C 0.51345 0.53687 0.67959 0.0
H689 H 0.56805 0.54773 0.65043 0.0
C690 C 0.49965 0.51104 0.67559 0.0
C691 C 0.53806 0.55036 0.66913 0.0
C692 C 0.55313 0.57842 0.66969 0.0
C693 C 0.50996 0.49826 0.66197 0.0
C694 C 0.53517 0.51154 0.65342 0.0
C695 C 0.54877 0.53742 0.65706 0.0
C696 C 0.54836 0.49925 0.64157 0.0
C697 C 0.49348 0.47084 0.65638 0.0
C698 C 0.54812 0.47932 0.65583 0.0
C699 C 0.56336 0.47012 0.64691 0.0
C700 C 0.57981 0.48141 0.62439 0.0
C701 C 0.57974 0.50089 0.60966 0.0
C702 C 0.56379 0.50945 0.61787 0.0
H703 H 0.47378 0.46599 0.65378 0.0
H704 H 0.49931 0.46487 0.6372 0.0
H705 H 0.4943 0.46016 0.67469 0.0
H706 H 0.53716 0.47168 0.67473 0.0
H707 H 0.56354 0.45533 0.65883 0.0
H708 H 0.09376 0.55257 0.78012 0.0
H709 H 0.05057 0.52365 0.79332 0.0
H710 H 0.03668 0.58494 0.79957 0.0
H711 H 0.0794 0.61373 0.78579 0.0
H712 H 0.03061 0.52445 0.84335 0.0
H713 H 0.97538 0.53468 0.75878 0.0
H714 H 0.00811 0.54532 0.75481 0.0
H715 H -0.00203 0.56449 0.77223 0.0
C716 C 0.0813 0.55977 0.78369 0.0
C717 C 0.08992 0.5854 0.782 0.0
C718 C 0.05668 0.54324 0.79123 0.0
C719 C 0.04036 0.55211 0.79705 0.0
C720 C 0.04876 0.5776 0.79443 0.0
H721 H 0.91809 0.52795 0.89105 0.0
H722 H 0.95795 0.54027 0.86856 0.0
C723 C 0.07326 0.59407 0.78675 0.0
C724 C 0.01548 0.53548 0.80901 0.0
H725 H 0.95519 0.52188 0.8046 0.0
C726 C 0.01396 0.5233 0.8345 0.0
C727 C 0.99379 0.53389 0.79734 0.0
C728 C 0.99386 0.5451 0.76911 0.0
C729 C 0.99164 0.51117 0.84969 0.0
C730 C 0.97058 0.51138 0.83905 0.0
C731 C 0.97162 0.52208 0.81274 0.0
C732 C 0.94801 0.50297 0.85607 0.0
C733 C 0.99092 0.49945 0.87774 0.0
C734 C 0.92973 0.47781 0.85713 0.0
C735 C 0.90691 0.47066 0.87007 0.0
C736 C 0.90219 0.48868 0.88182 0.0
C737 C 0.92117 0.51367 0.88209 0.0
C738 C 0.9439 0.52076 0.86923 0.0
H739 H 0.00883 0.5004 0.88282 0.0
H740 H 0.98651 0.50902 0.89462 0.0
H741 H 0.97594 0.47968 0.87765 0.0
H742 H 0.93271 0.46393 0.84693 0.0
H743 H 0.89257 0.45127 0.8695 0.0
H744 H 0.47047 0.07695 0.94809 0.0
H745 H 0.45859 0.03618 0.96769 0.0
H746 H 0.53464 0.06227 0.99175 0.0
H747 H 0.54685 0.10334 0.97189 0.0
H748 H 0.48228 0.00281 0.95746 0.0
H749 H 0.48661 0.0393 0.06597 0.0
H750 H 0.48236 0.05422 0.03553 0.0
H751 H 0.51188 0.0565 0.04172 0.0
C752 C 0.48477 0.07392 0.95709 0.0
C753 C 0.50954 0.09331 0.95868 0.0
C754 C 0.47795 0.05064 0.96821 0.0
C755 C 0.49574 0.04646 0.98128 0.0
C756 C 0.52072 0.06534 0.98176 0.0
H757 H 0.4437 0.89643 0.04767 0.0
H758 H 0.47315 0.93878 0.03224 0.0
C759 C 0.52764 0.08867 0.97035 0.0
C760 C 0.4874 0.02281 0.99613 0.0
H761 H 0.46785 0.996 0.06074 0.0
C762 C 0.47965 0.00125 0.98011 0.0
C763 C 0.48379 0.0211 0.0256 0.0
C764 C 0.49149 0.04392 0.04341 0.0
C765 C 0.46738 0.97773 0.99276 0.0
C766 C 0.46294 0.97596 0.02212 0.0
C767 C 0.47155 -0.00241 0.03829 0.0
C768 C 0.4468 0.95175 0.03559 0.0
C769 C 0.45791 0.9549 0.97447 0.0
C770 C 0.42265 0.94552 0.04361 0.0
C771 C 0.40579 0.92142 0.05237 0.0
C772 C 0.41293 0.90326 0.05331 0.0
C773 C 0.43764 0.91002 0.04701 0.0
C774 C 0.45447 0.93414 0.03815 0.0
H775 H 0.46042 0.95952 0.95167 0.0
H776 H 0.4681 0.94497 0.97967 0.0
H777 H 0.43787 0.94199 0.97859 0.0
H778 H 0.41649 0.95899 0.04178 0.0
H779 H 0.38692 0.91678 0.05724 0.0
H780 H 0.44371 0.54474 0.12982 0.0
H781 H 0.47124 0.5304 0.14838 0.0
H782 H 0.41335 0.45434 0.13679 0.0
H783 H 0.38572 0.46834 0.11827 0.0
H784 H 0.43886 0.47831 0.19767 0.0
H785 H 0.49914 0.48359 0.1078 0.0
H786 H 0.4903 0.50697 0.1128 0.0
H787 H 0.46753 0.47641 0.10157 0.0
C788 C 0.43705 0.52497 0.13062 0.0
C789 C 0.4125 0.50762 0.12286 0.0
C790 C 0.45278 0.51687 0.14121 0.0
C791 C 0.44415 0.49141 0.14393 0.0
C792 C 0.4202 0.47409 0.13473 0.0
H793 H 0.4657 0.38257 0.21972 0.0
H794 H 0.45222 0.41129 0.20416 0.0
C795 C 0.40449 0.48213 0.12417 0.0
C796 C 0.45885 0.48257 0.15912 0.0
H797 H 0.50119 0.46372 0.14926 0.0
C798 C 0.45281 0.47546 0.18732 0.0
C799 C 0.47712 0.47925 0.14548 0.0
C800 C 0.4841 0.48693 0.11522 0.0
C801 C 0.46385 0.46395 0.20199 0.0
C802 C 0.48095 0.45907 0.1878 0.0
C803 C 0.48803 0.46748 0.16004 0.0
C804 C 0.48944 0.4428 0.20013 0.0
C805 C 0.45664 0.45658 0.23231 0.0
C806 C 0.51487 0.45099 0.20287 0.0
C807 C 0.52267 0.4345 0.21161 0.0
C808 C 0.50511 0.40958 0.21744 0.0
C809 C 0.47967 0.40169 0.21549 0.0
C810 C 0.47192 0.41812 0.20677 0.0
H811 H 0.45064 0.46879 0.24258 0.0
H812 H 0.44075 0.43727 0.23308 0.0
H813 H 0.47226 0.4574 0.24456 0.0
H814 H 0.52864 0.46994 0.19762 0.0
H815 H 0.54241 0.44106 0.21286 0.0
H816 H 0.21183 0.50272 0.36747 0.0
H817 H 0.23735 0.49907 0.33024 0.0
H818 H 0.18964 0.50324 0.26708 0.0
H819 H 0.16467 0.50753 0.30385 0.0
H820 H 0.22692 0.46583 0.28554 0.0
H821 H 0.25741 0.56071 0.24565 0.0
H822 H 0.24175 0.54966 0.27897 0.0
H823 H 0.22425 0.54122 0.24667 0.0
C824 C 0.20673 0.50264 0.34564 0.0
C825 C 0.1865 0.50576 0.33853 0.0
C826 C 0.22129 0.50058 0.32442 0.0
C827 C 0.21572 0.50149 0.29589 0.0
C828 C 0.19469 0.50319 0.28891 0.0
H829 H 0.28775 0.50408 0.13676 0.0
H830 H 0.25677 0.49849 0.17259 0.0
C831 C 0.18037 0.50552 0.30998 0.0
C832 C 0.23218 0.50151 0.27327 0.0
H833 H 0.2677 0.53556 0.21755 0.0
C834 C 0.2359 0.48109 0.27073 0.0
C835 C 0.24393 0.52149 0.25397 0.0
C836 C 0.24187 0.54462 0.25655 0.0
C837 C 0.2508 0.48 0.24914 0.0
C838 C 0.2623 0.49986 0.22976 0.0
C839 C 0.25854 0.52021 0.23224 0.0
C840 C 0.27981 0.50086 0.20799 0.0
C841 C 0.25406 0.45757 0.24703 0.0
C842 C 0.30291 0.50405 0.21612 0.0
C843 C 0.3206 0.5075 0.19585 0.0
C844 C 0.31551 0.50771 0.16702 0.0
C845 C 0.29211 0.50387 0.15881 0.0
C846 C 0.27445 0.5007 0.17921 0.0
H847 H 0.23971 0.4416 0.25929 0.0
H848 H 0.25319 0.45182 0.22471 0.0
H849 H 0.27259 0.46236 0.25547 0.0
H850 H 0.30754 0.50464 0.23822 0.0
H851 H 0.33846 0.51038 0.20283 0.0
H852 H 0.78439 0.28473 0.30251 0.0
H853 H 0.75886 0.25443 0.33888 0.0
H854 H 0.80068 0.30782 0.40363 0.0
H855 H 0.82602 0.33804 0.36771 0.0
H856 H 0.78981 0.25556 0.4128 0.0
H857 H 0.70782 0.26573 0.38732 0.0
H858 H 0.72275 0.25959 0.35845 0.0
H859 H 0.73901 0.28857 0.37697 0.0
C860 C 0.78828 0.28985 0.32451 0.0
C861 C 0.80707 0.31379 0.33227 0.0
C862 C 0.77368 0.2726 0.34522 0.0
C863 C 0.77784 0.27901 0.37389 0.0
C864 C 0.79719 0.30253 0.38163 0.0
H865 H 0.70732 0.21084 0.53429 0.0
H866 H 0.73751 0.23641 0.49788 0.0
C867 C 0.81158 0.31979 0.36104 0.0
C868 C 0.76128 0.26188 0.39595 0.0
H869 H 0.70306 0.23793 0.42354 0.0
C870 C 0.77079 0.25155 0.41515 0.0
C871 C 0.73661 0.25697 0.39903 0.0
C872 C 0.72584 0.26836 0.37954 0.0
C873 C 0.75604 0.23598 0.43714 0.0
C874 C 0.73137 0.23116 0.44032 0.0
C875 C 0.72197 0.24161 0.42109 0.0
C876 C 0.71451 0.21478 0.46283 0.0
C877 C 0.76682 0.22444 0.45637 0.0
C878 C 0.69161 0.19425 0.45529 0.0
C879 C 0.67437 0.17997 0.47589 0.0
C880 C 0.67962 0.18578 0.5046 0.0
C881 C 0.70287 0.20583 0.51234 0.0
C882 C 0.72015 0.22036 0.49156 0.0
H883 H 0.78328 0.2247 0.44683 0.0
H884 H 0.77283 0.23514 0.47633 0.0
H885 H 0.75276 0.20493 0.46151 0.0
H886 H 0.68684 0.18956 0.43332 0.0
H887 H 0.65667 0.16455 0.46922 0.0
H888 H 0.48989 0.70561 0.70064 0.0
H889 H 0.49551 0.73688 0.66518 0.0
H890 H 0.48991 0.68689 0.59892 0.0
H891 H 0.48418 0.65568 0.63394 0.0
H892 H 0.53014 0.74045 0.59351 0.0
H893 H 0.4346 0.72406 0.61271 0.0
H894 H 0.45436 0.73006 0.64291 0.0
H895 H 0.44394 0.70197 0.62314 0.0
C896 C 0.49019 0.70146 0.67853 0.0
C897 C 0.4864 0.67816 0.67003 0.0
C898 C 0.49333 0.71927 0.65835 0.0
C899 C 0.49295 0.71405 0.6295 0.0
C900 C 0.49025 0.69124 0.62108 0.0
H901 H 0.49455 0.7826 0.46894 0.0
H902 H 0.49899 0.7579 0.50651 0.0
C903 C 0.48689 0.67341 0.64114 0.0
C904 C 0.49373 0.73153 0.60783 0.0
H905 H 0.45829 0.75313 0.57786 0.0
C906 C 0.51455 0.74342 0.59012 0.0
C907 C 0.47325 0.7351 0.60344 0.0
C908 C 0.45014 0.72207 0.62136 0.0
C909 C 0.51551 0.7591 0.56821 0.0
C910 C 0.49485 0.76243 0.56356 0.0
C911 C 0.47411 0.75057 0.58143 0.0
C912 C 0.49425 0.77834 0.54061 0.0
C913 C 0.53876 0.77226 0.55056 0.0
C914 C 0.4899 0.79782 0.54725 0.0
C915 C 0.48704 0.81162 0.52594 0.0
C916 C 0.48851 0.8063 0.49746 0.0
C917 C 0.4935 0.78721 0.49071 0.0
C918 C 0.49618 0.7732 0.51216 0.0
H919 H 0.55503 0.77318 0.56147 0.0
H920 H 0.53588 0.76193 0.53056 0.0
H921 H 0.54312 0.79145 0.54535 0.0
H922 H 0.4883 0.8021 0.56901 0.0
H923 H 0.48331 0.82628 0.53184 0.0
H924 H 0.83651 0.50511 0.81074 0.0
H925 H 0.81277 0.51119 0.77383 0.0
H926 H 0.75451 0.49601 0.8336 0.0
H927 H 0.77899 0.49107 0.87107 0.0
H928 H 0.77027 0.47601 0.75485 0.0
H929 H 0.75661 0.5529 0.79166 0.0
H930 H 0.77891 0.54614 0.80774 0.0
H931 H 0.74651 0.52834 0.81702 0.0
C932 C 0.8189 0.50369 0.81617 0.0
C933 C 0.80954 0.49761 0.84371 0.0
C934 C 0.80532 0.50712 0.79503 0.0
C935 C 0.78185 0.50417 0.80083 0.0
C936 C 0.77281 0.49897 0.82866 0.0
H937 H 0.65464 0.47585 0.70415 0.0
H938 H 0.68622 0.48403 0.73947 0.0
C939 C 0.78673 0.49603 0.85007 0.0
C940 C 0.76604 0.50391 0.77711 0.0
H941 H 0.73043 0.52802 0.7538 0.0
C942 C 0.76186 0.48767 0.75448 0.0
C943 C 0.755 0.51906 0.77656 0.0
C944 C 0.75967 0.53777 0.79942 0.0
C945 C 0.74641 0.48559 0.73183 0.0
C946 C 0.73494 0.50032 0.7316 0.0
C947 C 0.73936 0.51684 0.75396 0.0
C948 C 0.71652 0.49712 0.70969 0.0
C949 C 0.74171 0.46693 0.70887 0.0
C950 C 0.72312 0.5021 0.6811 0.0
C951 C 0.70495 0.49733 0.66062 0.0
C952 C 0.67998 0.48757 0.66854 0.0
C953 C 0.67368 0.48326 0.69726 0.0
C954 C 0.69173 0.48802 0.71757 0.0
H955 H 0.74822 0.45384 0.71486 0.0
H956 H 0.7216 0.45602 0.70373 0.0
H957 H 0.7518 0.4769 0.68954 0.0
H958 H 0.74225 0.50944 0.67461 0.0
H959 H 0.71036 0.50092 0.63868 0.0
H960 H 0.34014 0.82861 0.9691 0.0
H961 H 0.31055 0.80392 0.93243 0.0
H962 H 0.25847 0.75696 0.99587 0.0
H963 H 0.2879 0.78224 0.03289 0.0
H964 H 0.29395 0.75619 0.92154 0.0
H965 H 0.2136 0.769 0.94492 0.0
H966 H 0.24382 0.78823 0.96052 0.0
H967 H 0.22317 0.75776 0.97444 0.0
C968 C 0.32225 0.81323 0.9753 0.0
C969 C 0.31632 0.80734 0.00387 0.0
C970 C 0.30535 0.79913 0.95429 0.0
C971 C 0.28217 0.77872 0.96133 0.0
C972 C 0.276 0.77297 0.98991 0.0
H973 H 0.17002 0.65541 0.8667 0.0
H974 H 0.19599 0.68547 0.90252 0.0
C975 C 0.29287 0.78732 0.01105 0.0
C976 C 0.26546 0.76257 0.93858 0.0
H977 H 0.20674 0.7374 0.91162 0.0
C978 C 0.27495 0.7523 0.91924 0.0
C979 C 0.24067 0.75746 0.93559 0.0
C980 C 0.22975 0.76887 0.9548 0.0
C981 C 0.26025 0.73674 0.89734 0.0
C982 C 0.23542 0.73141 0.89458 0.0
C983 C 0.22586 0.74166 0.9138 0.0
C984 C 0.2188 0.71417 0.87266 0.0
C985 C 0.27113 0.72556 0.8777 0.0
C986 C 0.22281 0.72057 0.84399 0.0
C987 C 0.20789 0.70343 0.82338 0.0
C988 C 0.18888 0.67962 0.83121 0.0
C989 C 0.18461 0.67356 0.85999 0.0
C990 C 0.19935 0.69072 0.8805 0.0
H991 H 0.28921 0.72828 0.88544 0.0
H992 H 0.25807 0.70535 0.87498 0.0
H993 H 0.27418 0.73446 0.8567 0.0
H994 H 0.23767 0.7387 0.83758 0.0
H995 H 0.21159 0.70862 0.80139 0.0
H996 H 0.5287 0.33917 0.14103 0.0
H997 H 0.52072 0.30818 0.10521 0.0
H998 H 0.47392 0.24987 0.16315 0.0
H999 H 0.48268 0.28118 0.19988 0.0
H1000 H 0.50282 0.23753 0.13584 0.0
H1001 H 0.46127 0.27036 0.05658 0.0
H1002 H 0.49094 0.29567 0.06675 0.0
H1003 H 0.46634 0.28139 0.09247 0.0
C1004 C 0.51656 0.31977 0.14623 0.0
C1005 C 0.50612 0.31262 0.17325 0.0
C1006 C 0.51179 0.30204 0.12554 0.0
C1007 C 0.49602 0.27669 0.13106 0.0
C1008 C 0.48584 0.26936 0.15823 0.0
H1009 H 0.46985 0.18047 0.98237 0.0
H1010 H 0.46184 0.20202 0.02103 0.0
C1011 C 0.49088 0.28721 0.1792 0.0
C1012 C 0.49177 0.25814 0.10877 0.0
H1013 H 0.48111 0.24787 0.0381 0.0
C1014 C 0.49758 0.23949 0.1146 0.0
C1015 C 0.4842 0.26006 0.08115 0.0
C1016 C 0.47505 0.27778 0.074 0.0
C1017 C 0.49785 0.22402 0.09321 0.0
C1018 C 0.49312 0.22794 0.06498 0.0
C1019 C 0.48542 0.24526 0.05953 0.0
C1020 C 0.4978 0.21554 0.04082 0.0
C1021 C 0.50345 0.20381 0.10119 0.0
C1022 C 0.52094 0.21685 0.03836 0.0
C1023 C 0.52527 0.2043 0.01679 0.0
C1024 C 0.5069 0.19084 0.99657 0.0
C1025 C 0.4843 0.19078 0.99775 0.0
C1026 C 0.47971 0.20296 0.01987 0.0
H1027 H 0.49702 0.19707 0.12295 0.0
H1028 H 0.49447 0.18776 0.08655 0.0
H1029 H 0.52385 0.21141 0.1007 0.0
H1030 H 0.53563 0.22736 0.05339 0.0
H1031 H 0.54304 0.20496 0.01605 0.0
loop_
_geom_bond_atom_site_label_1
_geom_bond_atom_site_label_2
_geom_bond_distance
_geom_bond_site_symmetry_2
_ccdc_geom_bond_type
Co0 O1 2.216 . S
Co0 O2 2.091 . S
Co0 O4 2.004 . S
Co0 O10 2.021 . S
Co0 O12 2.137 . S
Co0 O13 2.244 . S
O1 Co0 2.216 . S
O1 C8 1.247 . S
O2 Co0 2.091 . S
O2 C8 1.261 . S
C3 O12 1.247 . S
C3 O13 1.272 . S
O4 Co0 2.004 . S
O4 C9 1.259 . S
Co5 O6 2.061 . S
Co5 O11 2.052 . S
Co5 O13 2.135 . S
O6 Co5 2.061 . S
O6 C9 1.235 . S
C7 O10 1.238 . S
C7 O11 1.241 . S
C8 O1 1.247 . S
C8 O2 1.261 . S
C9 O4 1.259 . S
C9 O6 1.235 . S
O10 Co0 2.021 . S
O10 C7 1.238 . S
O11 Co5 2.052 . S
O11 C7 1.241 . S
O12 Co0 2.137 . S
O12 C3 1.247 . S
O13 Co0 2.244 . S
O13 C3 1.272 . S
O13 Co5 2.135 . S
Co14 O15 2.216 . S
Co14 O16 2.091 . S
Co14 O18 2.004 . S
Co14 O24 2.021 . S
Co14 O26 2.137 . S
Co14 O27 2.244 . S
O15 Co14 2.216 . S
O15 C22 1.247 . S
O16 Co14 2.091 . S
O16 C22 1.261 . S
C17 O26 1.247 . S
C17 O27 1.272 . S
O18 Co14 2.004 . S
O18 C23 1.259 . S
Co19 O20 2.061 . S
Co19 O25 2.052 . S
Co19 O27 2.135 . S
O20 Co19 2.061 . S
O20 C23 1.235 . S
C21 O24 1.238 . S
C21 O25 1.241 . S
C22 O15 1.247 . S
C22 O16 1.261 . S
C23 O18 1.259 . S
C23 O20 1.235 . S
O24 Co14 2.021 . S
O24 C21 1.238 . S
O25 Co19 2.052 . S
O25 C21 1.241 . S
O26 Co14 2.137 . S
O26 C17 1.247 . S
O27 Co14 2.244 . S
O27 C17 1.272 . S
O27 Co19 2.135 . S
Co28 O29 2.216 . S
Co28 O30 2.091 . S
Co28 O32 2.004 . S
Co28 O38 2.021 . S
Co28 O40 2.137 . S
Co28 O41 2.244 . S
O29 Co28 2.216 . S
O29 C36 1.247 . S
O30 Co28 2.091 . S
O30 C36 1.261 . S
C31 O40 1.247 . S
C31 O41 1.272 . S
O32 Co28 2.004 . S
O32 C37 1.259 . S
Co33 O34 2.061 . S
Co33 O39 2.052 . S
Co33 O41 2.135 . S
O34 Co33 2.061 . S
O34 C37 1.235 . S
C35 O38 1.238 . S
C35 O39 1.241 . S
C36 O29 1.247 . S
C36 O30 1.261 . S
C37 O32 1.259 . S
C37 O34 1.235 . S
O38 Co28 2.021 . S
O38 C35 1.238 . S
O39 Co33 2.052 . S
O39 C35 1.241 . S
O40 Co28 2.137 . S
O40 C31 1.247 . S
O41 Co28 2.244 . S
O41 C31 1.272 . S
O41 Co33 2.135 . S
Co42 O43 2.216 . S
Co42 O44 2.091 . S
Co42 O46 2.004 . S
Co42 O52 2.021 . S
Co42 O54 2.137 . S
Co42 O55 2.244 . S
O43 Co42 2.216 . S
O43 C50 1.247 . S
O44 Co42 2.091 . S
O44 C50 1.261 . S
C45 O54 1.247 . S
C45 O55 1.272 . S
O46 Co42 2.004 . S
O46 C51 1.259 . S
Co47 O48 2.061 . S
Co47 O53 2.052 . S
Co47 O55 2.135 . S
O48 Co47 2.061 . S
O48 C51 1.235 . S
C49 O52 1.238 . S
C49 O53 1.241 . S
C50 O43 1.247 . S
C50 O44 1.261 . S
C51 O46 1.259 . S
C51 O48 1.235 . S
O52 Co42 2.021 . S
O52 C49 1.238 . S
O53 Co47 2.052 . S
O53 C49 1.241 . S
O54 Co42 2.137 . S
O54 C45 1.247 . S
O55 Co42 2.244 . S
O55 C45 1.272 . S
O55 Co47 2.135 . S
Co56 O57 2.216 . S
Co56 O58 2.091 . S
Co56 O60 2.004 . S
Co56 O66 2.021 . S
Co56 O68 2.137 . S
Co56 O69 2.244 . S
O57 Co56 2.216 . S
O57 C64 1.247 . S
O58 Co56 2.091 . S
O58 C64 1.261 . S
C59 O68 1.247 . S
C59 O69 1.272 . S
O60 Co56 2.004 . S
O60 C65 1.259 . S
Co61 O62 2.061 . S
Co61 O67 2.052 . S
Co61 O69 2.135 . S
O62 Co61 2.061 . S
O62 C65 1.235 . S
C63 O66 1.238 . S
C63 O67 1.241 . S
C64 O57 1.247 . S
C64 O58 1.261 . S
C65 O60 1.259 . S
C65 O62 1.235 . S
O66 Co56 2.021 . S
O66 C63 1.238 . S
O67 Co61 2.052 . S
O67 C63 1.241 . S
O68 Co56 2.137 . S
O68 C59 1.247 . S
O69 Co56 2.244 . S
O69 C59 1.272 . S
O69 Co61 2.135 . S
Co70 O71 2.216 . S
Co70 O72 2.091 . S
Co70 O74 2.004 . S
Co70 O80 2.021 . S
Co70 O82 2.137 . S
Co70 O83 2.244 . S
O71 Co70 2.216 . S
O71 C78 1.247 . S
O72 Co70 2.091 . S
O72 C78 1.261 . S
C73 O82 1.247 . S
C73 O83 1.272 . S
O74 Co70 2.004 . S
O74 C79 1.259 . S
Co75 O76 2.061 . S
Co75 O81 2.052 . S
Co75 O83 2.135 . S
O76 Co75 2.061 . S
O76 C79 1.235 . S
C77 O80 1.238 . S
C77 O81 1.241 . S
C78 O71 1.247 . S
C78 O72 1.261 . S
C79 O74 1.259 . S
C79 O76 1.235 . S
O80 Co70 2.021 . S
O80 C77 1.238 . S
O81 Co75 2.052 . S
O81 C77 1.241 . S
O82 Co70 2.137 . S
O82 C73 1.247 . S
O83 Co70 2.244 . S
O83 C73 1.272 . S
O83 Co75 2.135 . S
Co84 O85 2.216 . S
Co84 O86 2.091 . S
Co84 O88 2.004 . S
Co84 O94 2.021 . S
Co84 O96 2.137 . S
Co84 O97 2.244 . S
O85 Co84 2.216 . S
O85 C92 1.247 . S
O86 Co84 2.091 . S
O86 C92 1.261 . S
C87 O96 1.247 . S
C87 O97 1.272 . S
O88 Co84 2.004 . S
O88 C93 1.259 . S
Co89 O90 2.061 . S
Co89 O95 2.052 . S
Co89 O97 2.135 . S
O90 Co89 2.061 . S
O90 C93 1.235 . S
C91 O94 1.238 . S
C91 O95 1.241 . S
C92 O85 1.247 . S
C92 O86 1.261 . S
C93 O88 1.259 . S
C93 O90 1.235 . S
O94 Co84 2.021 . S
O94 C91 1.238 . S
O95 Co89 2.052 . S
O95 C91 1.241 . S
O96 Co84 2.137 . S
O96 C87 1.247 . S
O97 Co84 2.244 . S
O97 C87 1.272 . S
O97 Co89 2.135 . S
Co98 O99 2.216 . S
Co98 O100 2.091 . S
Co98 O102 2.004 . S
Co98 O108 2.021 . S
Co98 O110 2.137 . S
Co98 O111 2.244 . S
O99 Co98 2.216 . S
O99 C106 1.247 . S
O100 Co98 2.091 . S
O100 C106 1.261 . S
C101 O110 1.247 . S
C101 O111 1.272 . S
O102 Co98 2.004 . S
O102 C107 1.259 . S
Co103 O104 2.061 . S
Co103 O109 2.052 . S
Co103 O111 2.135 . S
O104 Co103 2.061 . S
O104 C107 1.235 . S
C105 O108 1.238 . S
C105 O109 1.241 . S
C106 O99 1.247 . S
C106 O100 1.261 . S
C107 O102 1.259 . S
C107 O104 1.235 . S
O108 Co98 2.021 . S
O108 C105 1.238 . S
O109 Co103 2.052 . S
O109 C105 1.241 . S
O110 Co98 2.137 . S
O110 C101 1.247 . S
O111 Co98 2.244 . S
O111 C101 1.272 . S
O111 Co103 2.135 . S
Co112 O113 2.216 . S
Co112 O114 2.091 . S
Co112 O116 2.004 . S
Co112 O122 2.021 . S
Co112 O124 2.137 . S
Co112 O125 2.244 . S
O113 Co112 2.216 . S
O113 C120 1.247 . S
O114 Co112 2.091 . S
O114 C120 1.261 . S
C115 O124 1.247 . S
C115 O125 1.272 . S
O116 Co112 2.004 . S
O116 C121 1.259 . S
Co117 O118 2.061 . S
Co117 O123 2.052 . S
Co117 O125 2.135 . S
O118 Co117 2.061 . S
O118 C121 1.235 . S
C119 O122 1.238 . S
C119 O123 1.241 . S
C120 O113 1.247 . S
C120 O114 1.261 . S
C121 O116 1.259 . S
C121 O118 1.235 . S
O122 Co112 2.021 . S
O122 C119 1.238 . S
O123 Co117 2.052 . S
O123 C119 1.241 . S
O124 Co112 2.137 . S
O124 C115 1.247 . S
O125 Co112 2.244 . S
O125 C115 1.272 . S
O125 Co117 2.135 . S
Co126 O127 2.216 . S
Co126 O128 2.091 . S
Co126 O130 2.004 . S
Co126 O136 2.021 . S
Co126 O138 2.137 . S
Co126 O139 2.244 . S
O127 Co126 2.216 . S
O127 C134 1.247 . S
O128 Co126 2.091 . S
O128 C134 1.261 . S
C129 O138 1.247 . S
C129 O139 1.272 . S
O130 Co126 2.004 . S
O130 C135 1.259 . S
Co131 O132 2.061 . S
Co131 O137 2.052 . S
Co131 O139 2.135 . S
O132 Co131 2.061 . S
O132 C135 1.235 . S
C133 O136 1.238 . S
C133 O137 1.241 . S
C134 O127 1.247 . S
C134 O128 1.261 . S
C135 O130 1.259 . S
C135 O132 1.235 . S
O136 Co126 2.021 . S
O136 C133 1.238 . S
O137 Co131 2.052 . S
O137 C133 1.241 . S
O138 Co126 2.137 . S
O138 C129 1.247 . S
O139 Co126 2.244 . S
O139 C129 1.272 . S
O139 Co131 2.135 . S
Co140 O141 2.216 . S
Co140 O142 2.091 . S
Co140 O144 2.004 . S
Co140 O150 2.021 . S
Co140 O152 2.137 . S
Co140 O153 2.244 . S
O141 Co140 2.216 . S
O141 C148 1.247 . S
O142 Co140 2.091 . S
O142 C148 1.261 . S
C143 O152 1.247 . S
C143 O153 1.272 . S
O144 Co140 2.004 . S
O144 C149 1.259 . S
Co145 O146 2.061 . S
Co145 O151 2.052 . S
Co145 O153 2.135 . S
O146 Co145 2.061 . S
O146 C149 1.235 . S
C147 O150 1.238 . S
C147 O151 1.241 . S
C148 O141 1.247 . S
C148 O142 1.261 . S
C149 O144 1.259 . S
C149 O146 1.235 . S
O150 Co140 2.021 . S
O150 C147 1.238 . S
O151 Co145 2.052 . S
O151 C147 1.241 . S
O152 Co140 2.137 . S
O152 C143 1.247 . S
O153 Co140 2.244 . S
O153 C143 1.272 . S
O153 Co145 2.135 . S
Co154 O155 2.216 . S
Co154 O156 2.091 . S
Co154 O158 2.004 . S
Co154 O164 2.021 . S
Co154 O166 2.137 . S
Co154 O167 2.244 . S
O155 Co154 2.216 . S
O155 C162 1.247 . S
O156 Co154 2.091 . S
O156 C162 1.261 . S
C157 O166 1.247 . S
C157 O167 1.272 . S
O158 Co154 2.004 . S
O158 C163 1.259 . S
Co159 O160 2.061 . S
Co159 O165 2.052 . S
Co159 O167 2.135 . S
O160 Co159 2.061 . S
O160 C163 1.235 . S
C161 O164 1.238 . S
C161 O165 1.241 . S
C162 O155 1.247 . S
C162 O156 1.261 . S
C163 O158 1.259 . S
C163 O160 1.235 . S
O164 Co154 2.021 . S
O164 C161 1.238 . S
O165 Co159 2.052 . S
O165 C161 1.241 . S
O166 Co154 2.137 . S
O166 C157 1.247 . S
O167 Co154 2.244 . S
O167 C157 1.272 . S
O167 Co159 2.135 . S
H168 C176 0.929 . S
H169 C178 0.930 . S
H170 C180 0.930 . S
H171 C183 0.929 . S
H172 C186 0.930 . S
H173 C188 0.960 . S
H174 C188 0.960 . S
H175 C188 0.960 . S
C176 H168 0.929 . S
C176 C177 1.377 . S
C176 C178 1.384 . S
C177 C176 1.377 . S
C177 C183 1.390 . S
C178 H169 0.930 . S
C178 C176 1.384 . S
C178 C179 1.372 . S
C179 C178 1.372 . S
C179 C180 1.400 . S
C179 C184 1.490 . S
C180 H170 0.930 . S
C180 C179 1.400 . S
C180 C183 1.386 . S
H181 C197 0.930 . S
H182 C198 0.931 . S
C183 H171 0.929 . S
C183 C177 1.390 . S
C183 C180 1.386 . S
C184 C179 1.490 . S
C184 C186 1.395 . S
C184 C187 1.403 . S
H185 C191 0.930 . S
C186 H172 0.930 . S
C186 C184 1.395 . S
C186 C189 1.403 . S
C187 C184 1.403 . S
C187 C188 1.524 . S
C187 C191 1.400 . S
C188 H173 0.960 . S
C188 H174 0.960 . S
C188 H175 0.960 . S
C188 C187 1.524 . S
C189 C186 1.403 . S
C189 C190 1.392 . S
C189 C193 1.495 . S
C190 C189 1.392 . S
C190 C191 1.385 . S
C190 C192 1.478 . S
C191 H185 0.930 . S
C191 C187 1.400 . S
C191 C190 1.385 . S
C192 C190 1.478 . S
C192 C194 1.381 . S
C192 C198 1.383 . S
C193 C189 1.495 . S
C193 H199 0.959 . S
C193 H200 0.961 . S
C193 H201 0.960 . S
C194 C192 1.381 . S
C194 C195 1.394 . S
C194 H202 0.930 . S
C195 C194 1.394 . S
C195 C196 1.383 . S
C195 H203 0.929 . S
C196 C195 1.383 . S
C196 C197 1.377 . S
C197 H181 0.930 . S
C197 C196 1.377 . S
C197 C198 1.379 . S
C198 H182 0.931 . S
C198 C192 1.383 . S
C198 C197 1.379 . S
H199 C193 0.959 . S
H200 C193 0.961 . S
H201 C193 0.960 . S
H202 C194 0.930 . S
H203 C195 0.929 . S
H204 C212 0.929 . S
H205 C214 0.930 . S
H206 C216 0.930 . S
H207 C219 0.929 . S
H208 C222 0.930 . S
H209 C224 0.960 . S
H210 C224 0.960 . S
H211 C224 0.960 . S
C212 H204 0.929 . S
C212 C213 1.377 . S
C212 C214 1.384 . S
C213 C212 1.377 . S
C213 C219 1.390 . S
C214 H205 0.930 . S
C214 C212 1.384 . S
C214 C215 1.372 . S
C215 C214 1.372 . S
C215 C216 1.400 . S
C215 C220 1.490 . S
C216 H206 0.930 . S
C216 C215 1.400 . S
C216 C219 1.386 . S
H217 C233 0.930 . S
H218 C234 0.931 . S
C219 H207 0.929 . S
C219 C213 1.390 . S
C219 C216 1.386 . S
C220 C215 1.490 . S
C220 C222 1.395 . S
C220 C223 1.403 . S
H221 C227 0.930 . S
C222 H208 0.930 . S
C222 C220 1.395 . S
C222 C225 1.403 . S
C223 C220 1.403 . S
C223 C224 1.524 . S
C223 C227 1.400 . S
C224 H209 0.960 . S
C224 H210 0.960 . S
C224 H211 0.960 . S
C224 C223 1.524 . S
C225 C222 1.403 . S
C225 C226 1.392 . S
C225 C229 1.495 . S
C226 C225 1.392 . S
C226 C227 1.385 . S
C226 C228 1.478 . S
C227 H221 0.930 . S
C227 C223 1.400 . S
C227 C226 1.385 . S
C228 C226 1.478 . S
C228 C230 1.381 . S
C228 C234 1.383 . S
C229 C225 1.495 . S
C229 H235 0.959 . S
C229 H236 0.961 . S
C229 H237 0.960 . S
C230 C228 1.381 . S
C230 C231 1.394 . S
C230 H238 0.930 . S
C231 C230 1.394 . S
C231 C232 1.383 . S
C231 H239 0.929 . S
C232 C231 1.383 . S
C232 C233 1.377 . S
C233 H217 0.930 . S
C233 C232 1.377 . S
C233 C234 1.379 . S
C234 H218 0.931 . S
C234 C228 1.383 . S
C234 C233 1.379 . S
H235 C229 0.959 . S
H236 C229 0.961 . S
H237 C229 0.960 . S
H238 C230 0.930 . S
H239 C231 0.929 . S
H240 C248 0.929 . S
H241 C250 0.930 . S
H242 C252 0.930 . S
H243 C255 0.929 . S
H244 C258 0.930 . S
H245 C260 0.960 . S
H246 C260 0.960 . S
H247 C260 0.960 . S
C248 H240 0.929 . S
C248 C249 1.377 . S
C248 C250 1.384 . S
C249 C248 1.377 . S
C249 C255 1.390 . S
C250 H241 0.930 . S
C250 C248 1.384 . S
C250 C251 1.372 . S
C251 C250 1.372 . S
C251 C252 1.400 . S
C251 C256 1.490 . S
C252 H242 0.930 . S
C252 C251 1.400 . S
C252 C255 1.386 . S
H253 C269 0.930 . S
H254 C270 0.931 . S
C255 H243 0.929 . S
C255 C249 1.390 . S
C255 C252 1.386 . S
C256 C251 1.490 . S
C256 C258 1.395 . S
C256 C259 1.403 . S
H257 C263 0.930 . S
C258 H244 0.930 . S
C258 C256 1.395 . S
C258 C261 1.403 . S
C259 C256 1.403 . S
C259 C260 1.524 . S
C259 C263 1.400 . S
C260 H245 0.960 . S
C260 H246 0.960 . S
C260 H247 0.960 . S
C260 C259 1.524 . S
C261 C258 1.403 . S
C261 C262 1.392 . S
C261 C265 1.495 . S
C262 C261 1.392 . S
C262 C263 1.385 . S
C262 C264 1.478 . S
C263 H257 0.930 . S
C263 C259 1.400 . S
C263 C262 1.385 . S
C264 C262 1.478 . S
C264 C266 1.381 . S
C264 C270 1.383 . S
C265 C261 1.495 . S
C265 H271 0.959 . S
C265 H272 0.961 . S
C265 H273 0.960 . S
C266 C264 1.381 . S
C266 C267 1.394 . S
C266 H274 0.930 . S
C267 C266 1.394 . S
C267 C268 1.383 . S
C267 H275 0.929 . S
C268 C267 1.383 . S
C268 C269 1.377 . S
C269 H253 0.930 . S
C269 C268 1.377 . S
C269 C270 1.379 . S
C270 H254 0.931 . S
C270 C264 1.383 . S
C270 C269 1.379 . S
H271 C265 0.959 . S
H272 C265 0.961 . S
H273 C265 0.960 . S
H274 C266 0.930 . S
H275 C267 0.929 . S
H276 C284 0.929 . S
H277 C286 0.930 . S
H278 C288 0.930 . S
H279 C291 0.929 . S
H280 C294 0.930 . S
H281 C296 0.960 . S
H282 C296 0.960 . S
H283 C296 0.960 . S
C284 H276 0.929 . S
C284 C285 1.377 . S
C284 C286 1.384 . S
C285 C284 1.377 . S
C285 C291 1.390 . S
C286 H277 0.930 . S
C286 C284 1.384 . S
C286 C287 1.372 . S
C287 C286 1.372 . S
C287 C288 1.400 . S
C287 C292 1.490 . S
C288 H278 0.930 . S
C288 C287 1.400 . S
C288 C291 1.386 . S
H289 C305 0.930 . S
H290 C306 0.931 . S
C291 H279 0.929 . S
C291 C285 1.390 . S
C291 C288 1.386 . S
C292 C287 1.490 . S
C292 C294 1.395 . S
C292 C295 1.403 . S
H293 C299 0.930 . S
C294 H280 0.930 . S
C294 C292 1.395 . S
C294 C297 1.403 . S
C295 C292 1.403 . S
C295 C296 1.524 . S
C295 C299 1.400 . S
C296 H281 0.960 . S
C296 H282 0.960 . S
C296 H283 0.960 . S
C296 C295 1.524 . S
C297 C294 1.403 . S
C297 C298 1.392 . S
C297 C301 1.495 . S
C298 C297 1.392 . S
C298 C299 1.385 . S
C298 C300 1.478 . S
C299 H293 0.930 . S
C299 C295 1.400 . S
C299 C298 1.385 . S
C300 C298 1.478 . S
C300 C302 1.381 . S
C300 C306 1.383 . S
C301 C297 1.495 . S
C301 H307 0.959 . S
C301 H308 0.961 . S
C301 H309 0.960 . S
C302 C300 1.381 . S
C302 C303 1.394 . S
C302 H310 0.930 . S
C303 C302 1.394 . S
C303 C304 1.383 . S
C303 H311 0.929 . S
C304 C303 1.383 . S
C304 C305 1.377 . S
C305 H289 0.930 . S
C305 C304 1.377 . S
C305 C306 1.379 . S
C306 H290 0.931 . S
C306 C300 1.383 . S
C306 C305 1.379 . S
H307 C301 0.959 . S
H308 C301 0.961 . S
H309 C301 0.960 . S
H310 C302 0.930 . S
H311 C303 0.929 . S
H312 C320 0.929 . S
H313 C322 0.930 . S
H314 C324 0.930 . S
H315 C327 0.929 . S
H316 C330 0.930 . S
H317 C332 0.960 . S
H318 C332 0.960 . S
H319 C332 0.960 . S
C320 H312 0.929 . S
C320 C321 1.377 . S
C320 C322 1.384 . S
C321 C320 1.377 . S
C321 C327 1.390 . S
C322 H313 0.930 . S
C322 C320 1.384 . S
C322 C323 1.372 . S
C323 C322 1.372 . S
C323 C324 1.400 . S
C323 C328 1.490 . S
C324 H314 0.930 . S
C324 C323 1.400 . S
C324 C327 1.386 . S
H325 C341 0.930 . S
H326 C342 0.931 . S
C327 H315 0.929 . S
C327 C321 1.390 . S
C327 C324 1.386 . S
C328 C323 1.490 . S
C328 C330 1.395 . S
C328 C331 1.403 . S
H329 C335 0.930 . S
C330 H316 0.930 . S
C330 C328 1.395 . S
C330 C333 1.403 . S
C331 C328 1.403 . S
C331 C332 1.524 . S
C331 C335 1.400 . S
C332 H317 0.960 . S
C332 H318 0.960 . S
C332 H319 0.960 . S
C332 C331 1.524 . S
C333 C330 1.403 . S
C333 C334 1.392 . S
C333 C337 1.495 . S
C334 C333 1.392 . S
C334 C335 1.385 . S
C334 C336 1.478 . S
C335 H329 0.930 . S
C335 C331 1.400 . S
C335 C334 1.385 . S
C336 C334 1.478 . S
C336 C338 1.381 . S
C336 C342 1.383 . S
C337 C333 1.495 . S
C337 H343 0.959 . S
C337 H344 0.961 . S
C337 H345 0.960 . S
C338 C336 1.381 . S
C338 C339 1.394 . S
C338 H346 0.930 . S
C339 C338 1.394 . S
C339 C340 1.383 . S
C339 H347 0.929 . S
C340 C339 1.383 . S
C340 C341 1.377 . S
C341 H325 0.930 . S
C341 C340 1.377 . S
C341 C342 1.379 . S
C342 H326 0.931 . S
C342 C336 1.383 . S
C342 C341 1.379 . S
H343 C337 0.959 . S
H344 C337 0.961 . S
H345 C337 0.960 . S
H346 C338 0.930 . S
H347 C339 0.929 . S
H348 C356 0.929 . S
H349 C358 0.930 . S
H350 C360 0.930 . S
H351 C363 0.929 . S
H352 C366 0.930 . S
H353 C368 0.960 . S
H354 C368 0.960 . S
H355 C368 0.960 . S
C356 H348 0.929 . S
C356 C357 1.377 . S
C356 C358 1.384 . S
C357 C356 1.377 . S
C357 C363 1.390 . S
C358 H349 0.930 . S
C358 C356 1.384 . S
C358 C359 1.372 . S
C359 C358 1.372 . S
C359 C360 1.400 . S
C359 C364 1.490 . S
C360 H350 0.930 . S
C360 C359 1.400 . S
C360 C363 1.386 . S
H361 C377 0.930 . S
H362 C378 0.931 . S
C363 H351 0.929 . S
C363 C357 1.390 . S
C363 C360 1.386 . S
C364 C359 1.490 . S
C364 C366 1.395 . S
C364 C367 1.403 . S
H365 C371 0.930 . S
C366 H352 0.930 . S
C366 C364 1.395 . S
C366 C369 1.403 . S
C367 C364 1.403 . S
C367 C368 1.524 . S
C367 C371 1.400 . S
C368 H353 0.960 . S
C368 H354 0.960 . S
C368 H355 0.960 . S
C368 C367 1.524 . S
C369 C366 1.403 . S
C369 C370 1.392 . S
C369 C373 1.495 . S
C370 C369 1.392 . S
C370 C371 1.385 . S
C370 C372 1.478 . S
C371 H365 0.930 . S
C371 C367 1.400 . S
C371 C370 1.385 . S
C372 C370 1.478 . S
C372 C374 1.381 . S
C372 C378 1.383 . S
C373 C369 1.495 . S
C373 H379 0.959 . S
C373 H380 0.961 . S
C373 H381 0.960 . S
C374 C372 1.381 . S
C374 C375 1.394 . S
C374 H382 0.930 . S
C375 C374 1.394 . S
C375 C376 1.383 . S
C375 H383 0.929 . S
C376 C375 1.383 . S
C376 C377 1.377 . S
C377 H361 0.930 . S
C377 C376 1.377 . S
C377 C378 1.379 . S
C378 H362 0.931 . S
C378 C372 1.383 . S
C378 C377 1.379 . S
H379 C373 0.959 . S
H380 C373 0.961 . S
H381 C373 0.960 . S
H382 C374 0.930 . S
H383 C375 0.929 . S
H384 C392 0.929 . S
H385 C394 0.930 . S
H386 C396 0.930 . S
H387 C399 0.929 . S
H388 C402 0.930 . S
H389 C404 0.960 . S
H390 C404 0.960 . S
H391 C404 0.960 . S
C392 H384 0.929 . S
C392 C393 1.377 . S
C392 C394 1.384 . S
C393 C392 1.377 . S
C393 C399 1.390 . S
C394 H385 0.930 . S
C394 C392 1.384 . S
C394 C395 1.372 . S
C395 C394 1.372 . S
C395 C396 1.400 . S
C395 C400 1.490 . S
C396 H386 0.930 . S
C396 C395 1.400 . S
C396 C399 1.386 . S
H397 C413 0.930 . S
H398 C414 0.931 . S
C399 H387 0.929 . S
C399 C393 1.390 . S
C399 C396 1.386 . S
C400 C395 1.490 . S
C400 C402 1.395 . S
C400 C403 1.403 . S
H401 C407 0.930 . S
C402 H388 0.930 . S
C402 C400 1.395 . S
C402 C405 1.403 . S
C403 C400 1.403 . S
C403 C404 1.524 . S
C403 C407 1.400 . S
C404 H389 0.960 . S
C404 H390 0.960 . S
C404 H391 0.960 . S
C404 C403 1.524 . S
C405 C402 1.403 . S
C405 C406 1.392 . S
C405 C409 1.495 . S
C406 C405 1.392 . S
C406 C407 1.385 . S
C406 C408 1.478 . S
C407 H401 0.930 . S
C407 C403 1.400 . S
C407 C406 1.385 . S
C408 C406 1.478 . S
C408 C410 1.381 . S
C408 C414 1.383 . S
C409 C405 1.495 . S
C409 H415 0.959 . S
C409 H416 0.961 . S
C409 H417 0.960 . S
C410 C408 1.381 . S
C410 C411 1.394 . S
C410 H418 0.930 . S
C411 C410 1.394 . S
C411 C412 1.383 . S
C411 H419 0.929 . S
C412 C411 1.383 . S
C412 C413 1.377 . S
C413 H397 0.930 . S
C413 C412 1.377 . S
C413 C414 1.379 . S
C414 H398 0.931 . S
C414 C408 1.383 . S
C414 C413 1.379 . S
H415 C409 0.959 . S
H416 C409 0.961 . S
H417 C409 0.960 . S
H418 C410 0.930 . S
H419 C411 0.929 . S
H420 C428 0.929 . S
H421 C430 0.930 . S
H422 C432 0.930 . S
H423 C435 0.929 . S
H424 C438 0.930 . S
H425 C440 0.960 . S
H426 C440 0.960 . S
H427 C440 0.960 . S
C428 H420 0.929 . S
C428 C429 1.377 . S
C428 C430 1.384 . S
C429 C428 1.377 . S
C429 C435 1.390 . S
C430 H421 0.930 . S
C430 C428 1.384 . S
C430 C431 1.372 . S
C431 C430 1.372 . S
C431 C432 1.400 . S
C431 C436 1.490 . S
C432 H422 0.930 . S
C432 C431 1.400 . S
C432 C435 1.386 . S
H433 C449 0.930 . S
H434 C450 0.931 . S
C435 H423 0.929 . S
C435 C429 1.390 . S
C435 C432 1.386 . S
C436 C431 1.490 . S
C436 C438 1.395 . S
C436 C439 1.403 . S
H437 C443 0.930 . S
C438 H424 0.930 . S
C438 C436 1.395 . S
C438 C441 1.403 . S
C439 C436 1.403 . S
C439 C440 1.524 . S
C439 C443 1.400 . S
C440 H425 0.960 . S
C440 H426 0.960 . S
C440 H427 0.960 . S
C440 C439 1.524 . S
C441 C438 1.403 . S
C441 C442 1.392 . S
C441 C445 1.495 . S
C442 C441 1.392 . S
C442 C443 1.385 . S
C442 C444 1.478 . S
C443 H437 0.930 . S
C443 C439 1.400 . S
C443 C442 1.385 . S
C444 C442 1.478 . S
C444 C446 1.381 . S
C444 C450 1.383 . S
C445 C441 1.495 . S
C445 H451 0.959 . S
C445 H452 0.961 . S
C445 H453 0.960 . S
C446 C444 1.381 . S
C446 C447 1.394 . S
C446 H454 0.930 . S
C447 C446 1.394 . S
C447 C448 1.383 . S
C447 H455 0.929 . S
C448 C447 1.383 . S
C448 C449 1.377 . S
C449 H433 0.930 . S
C449 C448 1.377 . S
C449 C450 1.379 . S
C450 H434 0.931 . S
C450 C444 1.383 . S
C450 C449 1.379 . S
H451 C445 0.959 . S
H452 C445 0.961 . S
H453 C445 0.960 . S
H454 C446 0.930 . S
H455 C447 0.929 . S
H456 C464 0.929 . S
H457 C466 0.930 . S
H458 C468 0.930 . S
H459 C471 0.929 1_554 S
H460 C474 0.930 . S
H461 C476 0.960 . S
H462 C476 0.960 . S
H463 C476 0.960 . S
C464 H456 0.929 . S
C464 C465 1.377 . S
C464 C466 1.384 1_554 S
C465 C464 1.377 . S
C465 C471 1.390 1_554 S
C466 H457 0.930 . S
C466 C464 1.384 1_556 S
C466 C467 1.372 . S
C467 C466 1.372 . S
C467 C468 1.400 . S
C467 C472 1.490 . S
C468 H458 0.930 . S
C468 C467 1.400 . S
C468 C471 1.386 . S
H469 C485 0.930 . S
H470 C486 0.931 . S
C471 H459 0.929 1_556 S
C471 C465 1.390 1_556 S
C471 C468 1.386 . S
C472 C467 1.490 . S
C472 C474 1.395 . S
C472 C475 1.403 . S
H473 C479 0.930 . S
C474 H460 0.930 . S
C474 C472 1.395 . S
C474 C477 1.403 . S
C475 C472 1.403 . S
C475 C476 1.524 . S
C475 C479 1.400 . S
C476 H461 0.960 . S
C476 H462 0.960 . S
C476 H463 0.960 . S
C476 C475 1.524 . S
C477 C474 1.403 . S
C477 C478 1.392 . S
C477 C481 1.495 . S
C478 C477 1.392 . S
C478 C479 1.385 . S
C478 C480 1.478 . S
C479 H473 0.930 . S
C479 C475 1.400 . S
C479 C478 1.385 . S
C480 C478 1.478 . S
C480 C482 1.381 . S
C480 C486 1.383 . S
C481 C477 1.495 . S
C481 H487 0.959 . S
C481 H488 0.961 . S
C481 H489 0.960 . S
C482 C480 1.381 . S
C482 C483 1.394 . S
C482 H490 0.930 . S
C483 C482 1.394 . S
C483 C484 1.383 . S
C483 H491 0.929 . S
C484 C483 1.383 . S
C484 C485 1.377 . S
C485 H469 0.930 . S
C485 C484 1.377 . S
C485 C486 1.379 . S
C486 H470 0.931 . S
C486 C480 1.383 . S
C486 C485 1.379 . S
H487 C481 0.959 . S
H488 C481 0.961 . S
H489 C481 0.960 . S
H490 C482 0.930 . S
H491 C483 0.929 . S
H492 C500 0.929 . S
H493 C502 0.930 . S
H494 C504 0.930 . S
H495 C507 0.929 . S
H496 C510 0.930 . S
H497 C512 0.960 . S
H498 C512 0.960 . S
H499 C512 0.960 . S
C500 H492 0.929 . S
C500 C501 1.377 . S
C500 C502 1.384 . S
C501 C500 1.377 . S
C501 C507 1.390 . S
C502 H493 0.930 . S
C502 C500 1.384 . S
C502 C503 1.372 . S
C503 C502 1.372 . S
C503 C504 1.400 . S
C503 C508 1.490 . S
C504 H494 0.930 . S
C504 C503 1.400 . S
C504 C507 1.386 . S
H505 C521 0.930 . S
H506 C522 0.931 . S
C507 H495 0.929 . S
C507 C501 1.390 . S
C507 C504 1.386 . S
C508 C503 1.490 . S
C508 C510 1.395 . S
C508 C511 1.403 . S
H509 C515 0.930 . S
C510 H496 0.930 . S
C510 C508 1.395 . S
C510 C513 1.403 . S
C511 C508 1.403 . S
C511 C512 1.524 . S
C511 C515 1.400 . S
C512 H497 0.960 . S
C512 H498 0.960 . S
C512 H499 0.960 . S
C512 C511 1.524 . S
C513 C510 1.403 . S
C513 C514 1.392 . S
C513 C517 1.495 . S
C514 C513 1.392 . S
C514 C515 1.385 . S
C514 C516 1.478 . S
C515 H509 0.930 . S
C515 C511 1.400 . S
C515 C514 1.385 . S
C516 C514 1.478 . S
C516 C518 1.381 . S
C516 C522 1.383 . S
C517 C513 1.495 . S
C517 H523 0.959 . S
C517 H524 0.961 . S
C517 H525 0.960 . S
C518 C516 1.381 . S
C518 C519 1.394 1_554 S
C518 H526 0.930 . S
C519 C518 1.394 1_556 S
C519 C520 1.383 . S
C519 H527 0.929 . S
C520 C519 1.383 . S
C520 C521 1.377 . S
C521 H505 0.930 . S
C521 C520 1.377 . S
C521 C522 1.379 1_556 S
C522 H506 0.931 . S
C522 C516 1.383 . S
C522 C521 1.379 1_554 S
H523 C517 0.959 . S
H524 C517 0.961 . S
H525 C517 0.960 . S
H526 C518 0.930 . S
H527 C519 0.929 . S
H528 C536 0.929 . S
H529 C538 0.930 . S
H530 C540 0.930 . S
H531 C543 0.929 . S
H532 C546 0.930 . S
H533 C548 0.960 . S
H534 C548 0.960 . S
H535 C548 0.960 . S
C536 H528 0.929 . S
C536 C537 1.377 . S
C536 C538 1.384 . S
C537 C536 1.377 . S
C537 C543 1.390 . S
C538 H529 0.930 . S
C538 C536 1.384 . S
C538 C539 1.372 . S
C539 C538 1.372 . S
C539 C540 1.400 . S
C539 C544 1.490 . S
C540 H530 0.930 . S
C540 C539 1.400 . S
C540 C543 1.386 . S
H541 C557 0.930 . S
H542 C558 0.931 . S
C543 H531 0.929 . S
C543 C537 1.390 . S
C543 C540 1.386 . S
C544 C539 1.490 . S
C544 C546 1.395 . S
C544 C547 1.403 . S
H545 C551 0.930 . S
C546 H532 0.930 . S
C546 C544 1.395 . S
C546 C549 1.403 . S
C547 C544 1.403 . S
C547 C548 1.524 . S
C547 C551 1.400 . S
C548 H533 0.960 . S
C548 H534 0.960 . S
C548 H535 0.960 . S
C548 C547 1.524 . S
C549 C546 1.403 . S
C549 C550 1.392 . S
C549 C553 1.495 . S
C550 C549 1.392 . S
C550 C551 1.385 . S
C550 C552 1.478 . S
C551 H545 0.930 . S
C551 C547 1.400 . S
C551 C550 1.385 . S
C552 C550 1.478 . S
C552 C554 1.381 . S
C552 C558 1.383 . S
C553 C549 1.495 . S
C553 H559 0.959 . S
C553 H560 0.961 . S
C553 H561 0.960 . S
C554 C552 1.381 . S
C554 C555 1.394 . S
C554 H562 0.930 . S
C555 C554 1.394 . S
C555 C556 1.383 . S
C555 H563 0.929 . S
C556 C555 1.383 . S
C556 C557 1.377 . S
C557 H541 0.930 . S
C557 C556 1.377 . S
C557 C558 1.379 . S
C558 H542 0.931 . S
C558 C552 1.383 . S
C558 C557 1.379 . S
H559 C553 0.959 . S
H560 C553 0.961 . S
H561 C553 0.960 . S
H562 C554 0.930 . S
H563 C555 0.929 . S
H564 C572 0.929 . S
H565 C574 0.930 . S
H566 C576 0.930 . S
H567 C579 0.929 . S
H568 C582 0.930 . S
H569 C584 0.960 . S
H570 C584 0.960 . S
H571 C584 0.960 . S
C572 H564 0.929 . S
C572 C573 1.377 . S
C572 C574 1.384 . S
C573 C572 1.377 . S
C573 C579 1.390 . S
C574 H565 0.930 . S
C574 C572 1.384 . S
C574 C575 1.372 . S
C575 C574 1.372 . S
C575 C576 1.400 . S
C575 C580 1.490 . S
C576 H566 0.930 . S
C576 C575 1.400 . S
C576 C579 1.386 . S
H577 C593 0.930 . S
H578 C594 0.931 . S
C579 H567 0.929 . S
C579 C573 1.390 . S
C579 C576 1.386 . S
C580 C575 1.490 . S
C580 C582 1.395 . S
C580 C583 1.403 . S
H581 C587 0.930 . S
C582 H568 0.930 . S
C582 C580 1.395 . S
C582 C585 1.403 . S
C583 C580 1.403 . S
C583 C584 1.524 . S
C583 C587 1.400 . S
C584 H569 0.960 . S
C584 H570 0.960 . S
C584 H571 0.960 . S
C584 C583 1.524 . S
C585 C582 1.403 . S
C585 C586 1.392 . S
C585 C589 1.495 . S
C586 C585 1.392 . S
C586 C587 1.385 . S
C586 C588 1.478 . S
C587 H581 0.930 . S
C587 C583 1.400 . S
C587 C586 1.385 . S
C588 C586 1.478 . S
C588 C590 1.381 . S
C588 C594 1.383 . S
C589 C585 1.495 . S
C589 H595 0.959 . S
C589 H596 0.961 . S
C589 H597 0.960 . S
C590 C588 1.381 . S
C590 C591 1.394 . S
C590 H598 0.930 . S
C591 C590 1.394 . S
C591 C592 1.383 . S
C591 H599 0.929 . S
C592 C591 1.383 . S
C592 C593 1.377 . S
C593 H577 0.930 . S
C593 C592 1.377 . S
C593 C594 1.379 . S
C594 H578 0.931 . S
C594 C588 1.383 . S
C594 C593 1.379 . S
H595 C589 0.959 . S
H596 C589 0.961 . S
H597 C589 0.960 . S
H598 C590 0.930 . S
H599 C591 0.929 . S
H600 C608 0.929 . S
H601 C610 0.930 . S
H602 C612 0.930 . S
H603 C615 0.929 . S
H604 C618 0.930 . S
H605 C620 0.960 . S
H606 C620 0.960 . S
H607 C620 0.960 . S
C608 H600 0.929 . S
C608 C609 1.377 . S
C608 C610 1.384 . S
C609 C608 1.377 . S
C609 C615 1.390 . S
C610 H601 0.930 . S
C610 C608 1.384 . S
C610 C611 1.372 . S
C611 C610 1.372 . S
C611 C612 1.400 . S
C611 C616 1.490 . S
C612 H602 0.930 . S
C612 C611 1.400 . S
C612 C615 1.386 . S
H613 C629 0.930 . S
H614 C630 0.931 . S
C615 H603 0.929 . S
C615 C609 1.390 . S
C615 C612 1.386 . S
C616 C611 1.490 . S
C616 C618 1.395 . S
C616 C619 1.403 . S
H617 C623 0.930 . S
C618 H604 0.930 . S
C618 C616 1.395 . S
C618 C621 1.403 1_655 S
C619 C616 1.403 . S
C619 C620 1.524 . S
C619 C623 1.400 1_655 S
C620 H605 0.960 . S
C620 H606 0.960 . S
C620 H607 0.960 . S
C620 C619 1.524 . S
C621 C618 1.403 1_455 S
C621 C622 1.392 . S
C621 C625 1.495 . S
C622 C621 1.392 . S
C622 C623 1.385 . S
C622 C624 1.478 . S
C623 H617 0.930 . S
C623 C619 1.400 1_455 S
C623 C622 1.385 . S
C624 C622 1.478 . S
C624 C626 1.381 . S
C624 C630 1.383 . S
C625 C621 1.495 . S
C625 H631 0.959 . S
C625 H632 0.961 . S
C625 H633 0.960 . S
C626 C624 1.381 . S
C626 C627 1.394 . S
C626 H634 0.930 . S
C627 C626 1.394 . S
C627 C628 1.383 . S
C627 H635 0.929 . S
C628 C627 1.383 . S
C628 C629 1.377 . S
C629 H613 0.930 . S
C629 C628 1.377 . S
C629 C630 1.379 . S
C630 H614 0.931 . S
C630 C624 1.383 . S
C630 C629 1.379 . S
H631 C625 0.959 . S
H632 C625 0.961 . S
H633 C625 0.960 . S
H634 C626 0.930 . S
H635 C627 0.929 . S
H636 C644 0.929 . S
H637 C646 0.930 . S
H638 C648 0.930 . S
H639 C651 0.929 . S
H640 C654 0.930 . S
H641 C656 0.960 1_545 S
H642 C656 0.960 . S
H643 C656 0.960 . S
C644 H636 0.929 . S
C644 C645 1.377 . S
C644 C646 1.384 . S
C645 C644 1.377 . S
C645 C651 1.390 . S
C646 H637 0.930 . S
C646 C644 1.384 . S
C646 C647 1.372 . S
C647 C646 1.372 . S
C647 C648 1.400 . S
C647 C652 1.490 . S
C648 H638 0.930 . S
C648 C647 1.400 . S
C648 C651 1.386 . S
H649 C665 0.930 . S
H650 C666 0.931 . S
C651 H639 0.929 . S
C651 C645 1.390 . S
C651 C648 1.386 . S
C652 C647 1.490 . S
C652 C654 1.395 . S
C652 C655 1.403 . S
H653 C659 0.930 . S
C654 H640 0.930 . S
C654 C652 1.395 . S
C654 C657 1.403 1_565 S
C655 C652 1.403 . S
C655 C656 1.524 . S
C655 C659 1.400 1_565 S
C656 H641 0.960 1_565 S
C656 H642 0.960 . S
C656 H643 0.960 . S
C656 C655 1.524 . S
C657 C654 1.403 1_545 S
C657 C658 1.392 . S
C657 C661 1.495 . S
C658 C657 1.392 . S
C658 C659 1.385 . S
C658 C660 1.478 . S
C659 H653 0.930 . S
C659 C655 1.400 1_545 S
C659 C658 1.385 . S
C660 C658 1.478 . S
C660 C662 1.381 . S
C660 C666 1.383 . S
C661 C657 1.495 . S
C661 H667 0.959 1_545 S
C661 H668 0.961 . S
C661 H669 0.960 . S
C662 C660 1.381 . S
C662 C663 1.394 . S
C662 H670 0.930 . S
C663 C662 1.394 . S
C663 C664 1.383 . S
C663 H671 0.929 . S
C664 C663 1.383 . S
C664 C665 1.377 . S
C665 H649 0.930 . S
C665 C664 1.377 . S
C665 C666 1.379 . S
C666 H650 0.931 . S
C666 C660 1.383 . S
C666 C665 1.379 . S
H667 C661 0.959 1_565 S
H668 C661 0.961 . S
H669 C661 0.960 . S
H670 C662 0.930 . S
H671 C663 0.929 . S
H672 C680 0.929 . S
H673 C682 0.930 . S
H674 C684 0.930 . S
H675 C687 0.929 . S
H676 C690 0.930 . S
H677 C692 0.960 . S
H678 C692 0.960 . S
H679 C692 0.960 . S
C680 H672 0.929 . S
C680 C681 1.377 . S
C680 C682 1.384 . S
C681 C680 1.377 . S
C681 C687 1.390 . S
C682 H673 0.930 . S
C682 C680 1.384 . S
C682 C683 1.372 . S
C683 C682 1.372 . S
C683 C684 1.400 . S
C683 C688 1.490 . S
C684 H674 0.930 . S
C684 C683 1.400 . S
C684 C687 1.386 . S
H685 C701 0.930 . S
H686 C702 0.931 . S
C687 H675 0.929 . S
C687 C681 1.390 . S
C687 C684 1.386 . S
C688 C683 1.490 . S
C688 C690 1.395 . S
C688 C691 1.403 . S
H689 C695 0.930 . S
C690 H676 0.930 . S
C690 C688 1.395 . S
C690 C693 1.403 . S
C691 C688 1.403 . S
C691 C692 1.524 . S
C691 C695 1.400 . S
C692 H677 0.960 . S
C692 H678 0.960 . S
C692 H679 0.960 . S
C692 C691 1.524 . S
C693 C690 1.403 . S
C693 C694 1.392 . S
C693 C697 1.495 . S
C694 C693 1.392 . S
C694 C695 1.385 . S
C694 C696 1.478 . S
C695 H689 0.930 . S
C695 C691 1.400 . S
C695 C694 1.385 . S
C696 C694 1.478 . S
C696 C698 1.381 . S
C696 C702 1.383 . S
C697 C693 1.495 . S
C697 H703 0.959 . S
C697 H704 0.961 . S
C697 H705 0.960 . S
C698 C696 1.381 . S
C698 C699 1.394 . S
C698 H706 0.930 . S
C699 C698 1.394 . S
C699 C700 1.383 . S
C699 H707 0.929 . S
C700 C699 1.383 . S
C700 C701 1.377 . S
C701 H685 0.930 . S
C701 C700 1.377 . S
C701 C702 1.379 . S
C702 H686 0.931 . S
C702 C696 1.383 . S
C702 C701 1.379 . S
H703 C697 0.959 . S
H704 C697 0.961 . S
H705 C697 0.960 . S
H706 C698 0.930 . S
H707 C699 0.929 . S
H708 C716 0.929 . S
H709 C718 0.930 . S
H710 C720 0.930 . S
H711 C723 0.929 . S
H712 C726 0.930 . S
H713 C728 0.960 . S
H714 C728 0.960 . S
H715 C728 0.960 . S
C716 H708 0.929 . S
C716 C717 1.377 . S
C716 C718 1.384 . S
C717 C716 1.377 . S
C717 C723 1.390 . S
C718 H709 0.930 . S
C718 C716 1.384 . S
C718 C719 1.372 . S
C719 C718 1.372 . S
C719 C720 1.400 . S
C719 C724 1.490 . S
C720 H710 0.930 . S
C720 C719 1.400 . S
C720 C723 1.386 . S
H721 C737 0.930 . S
H722 C738 0.931 . S
C723 H711 0.929 . S
C723 C717 1.390 . S
C723 C720 1.386 . S
C724 C719 1.490 . S
C724 C726 1.395 . S
C724 C727 1.403 . S
H725 C731 0.930 . S
C726 H712 0.930 . S
C726 C724 1.395 . S
C726 C729 1.403 1_455 S
C727 C724 1.403 . S
C727 C728 1.524 . S
C727 C731 1.400 1_455 S
C728 H713 0.960 . S
C728 H714 0.960 . S
C728 H715 0.960 . S
C728 C727 1.524 . S
C729 C726 1.403 1_655 S
C729 C730 1.392 . S
C729 C733 1.495 . S
C730 C729 1.392 . S
C730 C731 1.385 . S
C730 C732 1.478 . S
C731 H725 0.930 . S
C731 C727 1.400 1_655 S
C731 C730 1.385 . S
C732 C730 1.478 . S
C732 C734 1.381 . S
C732 C738 1.383 . S
C733 C729 1.495 . S
C733 H739 0.959 . S
C733 H740 0.961 . S
C733 H741 0.960 . S
C734 C732 1.381 . S
C734 C735 1.394 . S
C734 H742 0.930 . S
C735 C734 1.394 . S
C735 C736 1.383 . S
C735 H743 0.929 . S
C736 C735 1.383 . S
C736 C737 1.377 . S
C737 H721 0.930 . S
C737 C736 1.377 . S
C737 C738 1.379 . S
C738 H722 0.931 . S
C738 C732 1.383 . S
C738 C737 1.379 . S
H739 C733 0.959 . S
H740 C733 0.961 . S
H741 C733 0.960 . S
H742 C734 0.930 . S
H743 C735 0.929 . S
H744 C752 0.929 . S
H745 C754 0.930 . S
H746 C756 0.930 1_554 S
H747 C759 0.929 . S
H748 C762 0.930 . S
H749 C764 0.960 . S
H750 C764 0.960 . S
H751 C764 0.960 . S
C752 H744 0.929 . S
C752 C753 1.377 . S
C752 C754 1.384 . S
C753 C752 1.377 . S
C753 C759 1.390 . S
C754 H745 0.930 . S
C754 C752 1.384 . S
C754 C755 1.372 . S
C755 C754 1.372 . S
C755 C756 1.400 . S
C755 C760 1.490 . S
C756 H746 0.930 1_556 S
C756 C755 1.400 . S
C756 C759 1.386 . S
H757 C773 0.930 . S
H758 C774 0.931 . S
C759 H747 0.929 . S
C759 C753 1.390 . S
C759 C756 1.386 . S
C760 C755 1.490 . S
C760 C762 1.395 . S
C760 C763 1.403 1_556 S
H761 C767 0.930 . S
C762 H748 0.930 . S
C762 C760 1.395 . S
C762 C765 1.403 1_545 S
C763 C760 1.403 1_554 S
C763 C764 1.524 . S
C763 C767 1.400 1_545 S
C764 H749 0.960 . S
C764 H750 0.960 . S
C764 H751 0.960 . S
C764 C763 1.524 . S
C765 C762 1.403 1_565 S
C765 C766 1.392 1_556 S
C765 C769 1.495 . S
C766 C765 1.392 1_554 S
C766 C767 1.385 . S
C766 C768 1.478 . S
C767 H761 0.930 . S
C767 C763 1.400 1_565 S
C767 C766 1.385 . S
C768 C766 1.478 . S
C768 C770 1.381 . S
C768 C774 1.383 . S
C769 C765 1.495 . S
C769 H775 0.959 . S
C769 H776 0.961 . S
C769 H777 0.960 . S
C770 C768 1.381 . S
C770 C771 1.394 . S
C770 H778 0.930 1_554 S
C771 C770 1.394 . S
C771 C772 1.383 . S
C771 H779 0.929 . S
C772 C771 1.383 . S
C772 C773 1.377 . S
C773 H757 0.930 . S
C773 C772 1.377 . S
C773 C774 1.379 . S
C774 H758 0.931 . S
C774 C768 1.383 . S
C774 C773 1.379 . S
H775 C769 0.959 . S
H776 C769 0.961 . S
H777 C769 0.960 . S
H778 C770 0.930 1_556 S
H779 C771 0.929 . S
H780 C788 0.929 . S
H781 C790 0.930 . S
H782 C792 0.930 . S
H783 C795 0.929 . S
H784 C798 0.930 . S
H785 C800 0.960 . S
H786 C800 0.960 . S
H787 C800 0.960 . S
C788 H780 0.929 . S
C788 C789 1.377 . S
C788 C790 1.384 . S
C789 C788 1.377 . S
C789 C795 1.390 . S
C790 H781 0.930 . S
C790 C788 1.384 . S
C790 C791 1.372 . S
C791 C790 1.372 . S
C791 C792 1.400 . S
C791 C796 1.490 . S
C792 H782 0.930 . S
C792 C791 1.400 . S
C792 C795 1.386 . S
H793 C809 0.930 . S
H794 C810 0.931 . S
C795 H783 0.929 . S
C795 C789 1.390 . S
C795 C792 1.386 . S
C796 C791 1.490 . S
C796 C798 1.395 . S
C796 C799 1.403 . S
H797 C803 0.930 . S
C798 H784 0.930 . S
C798 C796 1.395 . S
C798 C801 1.403 . S
C799 C796 1.403 . S
C799 C800 1.524 . S
C799 C803 1.400 . S
C800 H785 0.960 . S
C800 H786 0.960 . S
C800 H787 0.960 . S
C800 C799 1.524 . S
C801 C798 1.403 . S
C801 C802 1.392 . S
C801 C805 1.495 . S
C802 C801 1.392 . S
C802 C803 1.385 . S
C802 C804 1.478 . S
C803 H797 0.930 . S
C803 C799 1.400 . S
C803 C802 1.385 . S
C804 C802 1.478 . S
C804 C806 1.381 . S
C804 C810 1.383 . S
C805 C801 1.495 . S
C805 H811 0.959 . S
C805 H812 0.961 . S
C805 H813 0.960 . S
C806 C804 1.381 . S
C806 C807 1.394 . S
C806 H814 0.930 . S
C807 C806 1.394 . S
C807 C808 1.383 . S
C807 H815 0.929 . S
C808 C807 1.383 . S
C808 C809 1.377 . S
C809 H793 0.930 . S
C809 C808 1.377 . S
C809 C810 1.379 . S
C810 H794 0.931 . S
C810 C804 1.383 . S
C810 C809 1.379 . S
H811 C805 0.959 . S
H812 C805 0.961 . S
H813 C805 0.960 . S
H814 C806 0.930 . S
H815 C807 0.929 . S
H816 C824 0.929 . S
H817 C826 0.930 . S
H818 C828 0.930 . S
H819 C831 0.929 . S
H820 C834 0.930 . S
H821 C836 0.960 . S
H822 C836 0.960 . S
H823 C836 0.960 . S
C824 H816 0.929 . S
C824 C825 1.377 . S
C824 C826 1.384 . S
C825 C824 1.377 . S
C825 C831 1.390 . S
C826 H817 0.930 . S
C826 C824 1.384 . S
C826 C827 1.372 . S
C827 C826 1.372 . S
C827 C828 1.400 . S
C827 C832 1.490 . S
C828 H818 0.930 . S
C828 C827 1.400 . S
C828 C831 1.386 . S
H829 C845 0.930 . S
H830 C846 0.931 . S
C831 H819 0.929 . S
C831 C825 1.390 . S
C831 C828 1.386 . S
C832 C827 1.490 . S
C832 C834 1.395 . S
C832 C835 1.403 . S
H833 C839 0.930 . S
C834 H820 0.930 . S
C834 C832 1.395 . S
C834 C837 1.403 . S
C835 C832 1.403 . S
C835 C836 1.524 . S
C835 C839 1.400 . S
C836 H821 0.960 . S
C836 H822 0.960 . S
C836 H823 0.960 . S
C836 C835 1.524 . S
C837 C834 1.403 . S
C837 C838 1.392 . S
C837 C841 1.495 . S
C838 C837 1.392 . S
C838 C839 1.385 . S
C838 C840 1.478 . S
C839 H833 0.930 . S
C839 C835 1.400 . S
C839 C838 1.385 . S
C840 C838 1.478 . S
C840 C842 1.381 . S
C840 C846 1.383 . S
C841 C837 1.495 . S
C841 H847 0.959 . S
C841 H848 0.961 . S
C841 H849 0.960 . S
C842 C840 1.381 . S
C842 C843 1.394 . S
C842 H850 0.930 . S
C843 C842 1.394 . S
C843 C844 1.383 . S
C843 H851 0.929 . S
C844 C843 1.383 . S
C844 C845 1.377 . S
C845 H829 0.930 . S
C845 C844 1.377 . S
C845 C846 1.379 . S
C846 H830 0.931 . S
C846 C840 1.383 . S
C846 C845 1.379 . S
H847 C841 0.959 . S
H848 C841 0.961 . S
H849 C841 0.960 . S
H850 C842 0.930 . S
H851 C843 0.929 . S
H852 C860 0.929 . S
H853 C862 0.930 . S
H854 C864 0.930 . S
H855 C867 0.929 . S
H856 C870 0.930 . S
H857 C872 0.960 . S
H858 C872 0.960 . S
H859 C872 0.960 . S
C860 H852 0.929 . S
C860 C861 1.377 . S
C860 C862 1.384 . S
C861 C860 1.377 . S
C861 C867 1.390 . S
C862 H853 0.930 . S
C862 C860 1.384 . S
C862 C863 1.372 . S
C863 C862 1.372 . S
C863 C864 1.400 . S
C863 C868 1.490 . S
C864 H854 0.930 . S
C864 C863 1.400 . S
C864 C867 1.386 . S
H865 C881 0.930 . S
H866 C882 0.931 . S
C867 H855 0.929 . S
C867 C861 1.390 . S
C867 C864 1.386 . S
C868 C863 1.490 . S
C868 C870 1.395 . S
C868 C871 1.403 . S
H869 C875 0.930 . S
C870 H856 0.930 . S
C870 C868 1.395 . S
C870 C873 1.403 . S
C871 C868 1.403 . S
C871 C872 1.524 . S
C871 C875 1.400 . S
C872 H857 0.960 . S
C872 H858 0.960 . S
C872 H859 0.960 . S
C872 C871 1.524 . S
C873 C870 1.403 . S
C873 C874 1.392 . S
C873 C877 1.495 . S
C874 C873 1.392 . S
C874 C875 1.385 . S
C874 C876 1.478 . S
C875 H869 0.930 . S
C875 C871 1.400 . S
C875 C874 1.385 . S
C876 C874 1.478 . S
C876 C878 1.381 . S
C876 C882 1.383 . S
C877 C873 1.495 . S
C877 H883 0.959 . S
C877 H884 0.961 . S
C877 H885 0.960 . S
C878 C876 1.381 . S
C878 C879 1.394 . S
C878 H886 0.930 . S
C879 C878 1.394 . S
C879 C880 1.383 . S
C879 H887 0.929 . S
C880 C879 1.383 . S
C880 C881 1.377 . S
C881 H865 0.930 . S
C881 C880 1.377 . S
C881 C882 1.379 . S
C882 H866 0.931 . S
C882 C876 1.383 . S
C882 C881 1.379 . S
H883 C877 0.959 . S
H884 C877 0.961 . S
H885 C877 0.960 . S
H886 C878 0.930 . S
H887 C879 0.929 . S
H888 C896 0.929 . S
H889 C898 0.930 . S
H890 C900 0.930 . S
H891 C903 0.929 . S
H892 C906 0.930 . S
H893 C908 0.960 . S
H894 C908 0.960 . S
H895 C908 0.960 . S
C896 H888 0.929 . S
C896 C897 1.377 . S
C896 C898 1.384 . S
C897 C896 1.377 . S
C897 C903 1.390 . S
C898 H889 0.930 . S
C898 C896 1.384 . S
C898 C899 1.372 . S
C899 C898 1.372 . S
C899 C900 1.400 . S
C899 C904 1.490 . S
C900 H890 0.930 . S
C900 C899 1.400 . S
C900 C903 1.386 . S
H901 C917 0.930 . S
H902 C918 0.931 . S
C903 H891 0.929 . S
C903 C897 1.390 . S
C903 C900 1.386 . S
C904 C899 1.490 . S
C904 C906 1.395 . S
C904 C907 1.403 . S
H905 C911 0.930 . S
C906 H892 0.930 . S
C906 C904 1.395 . S
C906 C909 1.403 . S
C907 C904 1.403 . S
C907 C908 1.524 . S
C907 C911 1.400 . S
C908 H893 0.960 . S
C908 H894 0.960 . S
C908 H895 0.960 . S
C908 C907 1.524 . S
C909 C906 1.403 . S
C909 C910 1.392 . S
C909 C913 1.495 . S
C910 C909 1.392 . S
C910 C911 1.385 . S
C910 C912 1.478 . S
C911 H905 0.930 . S
C911 C907 1.400 . S
C911 C910 1.385 . S
C912 C910 1.478 . S
C912 C914 1.381 . S
C912 C918 1.383 . S
C913 C909 1.495 . S
C913 H919 0.959 . S
C913 H920 0.961 . S
C913 H921 0.960 . S
C914 C912 1.381 . S
C914 C915 1.394 . S
C914 H922 0.930 . S
C915 C914 1.394 . S
C915 C916 1.383 . S
C915 H923 0.929 . S
C916 C915 1.383 . S
C916 C917 1.377 . S
C917 H901 0.930 . S
C917 C916 1.377 . S
C917 C918 1.379 . S
C918 H902 0.931 . S
C918 C912 1.383 . S
C918 C917 1.379 . S
H919 C913 0.959 . S
H920 C913 0.961 . S
H921 C913 0.960 . S
H922 C914 0.930 . S
H923 C915 0.929 . S
H924 C932 0.929 . S
H925 C934 0.930 . S
H926 C936 0.930 . S
H927 C939 0.929 . S
H928 C942 0.930 . S
H929 C944 0.960 . S
H930 C944 0.960 . S
H931 C944 0.960 . S
C932 H924 0.929 . S
C932 C933 1.377 . S
C932 C934 1.384 . S
C933 C932 1.377 . S
C933 C939 1.390 . S
C934 H925 0.930 . S
C934 C932 1.384 . S
C934 C935 1.372 . S
C935 C934 1.372 . S
C935 C936 1.400 . S
C935 C940 1.490 . S
C936 H926 0.930 . S
C936 C935 1.400 . S
C936 C939 1.386 . S
H937 C953 0.930 . S
H938 C954 0.931 . S
C939 H927 0.929 . S
C939 C933 1.390 . S
C939 C936 1.386 . S
C940 C935 1.490 . S
C940 C942 1.395 . S
C940 C943 1.403 . S
H941 C947 0.930 . S
C942 H928 0.930 . S
C942 C940 1.395 . S
C942 C945 1.403 . S
C943 C940 1.403 . S
C943 C944 1.524 . S
C943 C947 1.400 . S
C944 H929 0.960 . S
C944 H930 0.960 . S
C944 H931 0.960 . S
C944 C943 1.524 . S
C945 C942 1.403 . S
C945 C946 1.392 . S
C945 C949 1.495 . S
C946 C945 1.392 . S
C946 C947 1.385 . S
C946 C948 1.478 . S
C947 H941 0.930 . S
C947 C943 1.400 . S
C947 C946 1.385 . S
C948 C946 1.478 . S
C948 C950 1.381 . S
C948 C954 1.383 . S
C949 C945 1.495 . S
C949 H955 0.959 . S
C949 H956 0.961 . S
C949 H957 0.960 . S
C950 C948 1.381 . S
C950 C951 1.394 . S
C950 H958 0.930 . S
C951 C950 1.394 . S
C951 C952 1.383 . S
C951 H959 0.929 . S
C952 C951 1.383 . S
C952 C953 1.377 . S
C953 H937 0.930 . S
C953 C952 1.377 . S
C953 C954 1.379 . S
C954 H938 0.931 . S
C954 C948 1.383 . S
C954 C953 1.379 . S
H955 C949 0.959 . S
H956 C949 0.961 . S
H957 C949 0.960 . S
H958 C950 0.930 . S
H959 C951 0.929 . S
H960 C968 0.929 . S
H961 C970 0.930 . S
H962 C972 0.930 . S
H963 C975 0.929 . S
H964 C978 0.930 . S
H965 C980 0.960 . S
H966 C980 0.960 . S
H967 C980 0.960 . S
C968 H960 0.929 . S
C968 C969 1.377 1_556 S
C968 C970 1.384 . S
C969 C968 1.377 1_554 S
C969 C975 1.390 . S
C970 H961 0.930 . S
C970 C968 1.384 . S
C970 C971 1.372 . S
C971 C970 1.372 . S
C971 C972 1.400 . S
C971 C976 1.490 . S
C972 H962 0.930 . S
C972 C971 1.400 . S
C972 C975 1.386 1_556 S
H973 C989 0.930 . S
H974 C990 0.931 . S
C975 H963 0.929 . S
C975 C969 1.390 . S
C975 C972 1.386 1_554 S
C976 C971 1.490 . S
C976 C978 1.395 . S
C976 C979 1.403 . S
H977 C983 0.930 . S
C978 H964 0.930 . S
C978 C976 1.395 . S
C978 C981 1.403 . S
C979 C976 1.403 . S
C979 C980 1.524 . S
C979 C983 1.400 . S
C980 H965 0.960 . S
C980 H966 0.960 . S
C980 H967 0.960 . S
C980 C979 1.524 . S
C981 C978 1.403 . S
C981 C982 1.392 . S
C981 C985 1.495 . S
C982 C981 1.392 . S
C982 C983 1.385 . S
C982 C984 1.478 . S
C983 H977 0.930 . S
C983 C979 1.400 . S
C983 C982 1.385 . S
C984 C982 1.478 . S
C984 C986 1.381 . S
C984 C990 1.383 . S
C985 C981 1.495 . S
C985 H991 0.959 . S
C985 H992 0.961 . S
C985 H993 0.960 . S
C986 C984 1.381 . S
C986 C987 1.394 . S
C986 H994 0.930 . S
C987 C986 1.394 . S
C987 C988 1.383 . S
C987 H995 0.929 . S
C988 C987 1.383 . S
C988 C989 1.377 . S
C989 H973 0.930 . S
C989 C988 1.377 . S
C989 C990 1.379 . S
C990 H974 0.931 . S
C990 C984 1.383 . S
C990 C989 1.379 . S
H991 C985 0.959 . S
H992 C985 0.961 . S
H993 C985 0.960 . S
H994 C986 0.930 . S
H995 C987 0.929 . S
H996 C1004 0.929 . S
H997 C1006 0.930 . S
H998 C1008 0.930 . S
H999 C1011 0.929 . S
H1000 C1014 0.930 . S
H1001 C1016 0.960 . S
H1002 C1016 0.960 . S
H1003 C1016 0.960 . S
C1004 H996 0.929 . S
C1004 C1005 1.377 . S
C1004 C1006 1.384 . S
C1005 C1004 1.377 . S
C1005 C1011 1.390 . S
C1006 H997 0.930 . S
C1006 C1004 1.384 . S
C1006 C1007 1.372 . S
C1007 C1006 1.372 . S
C1007 C1008 1.400 . S
C1007 C1012 1.490 . S
C1008 H998 0.930 . S
C1008 C1007 1.400 . S
C1008 C1011 1.386 . S
H1009 C1025 0.930 . S
H1010 C1026 0.931 . S
C1011 H999 0.929 . S
C1011 C1005 1.390 . S
C1011 C1008 1.386 . S
C1012 C1007 1.490 . S
C1012 C1014 1.395 . S
C1012 C1015 1.403 . S
H1013 C1019 0.930 . S
C1014 H1000 0.930 . S
C1014 C1012 1.395 . S
C1014 C1017 1.403 . S
C1015 C1012 1.403 . S
C1015 C1016 1.524 . S
C1015 C1019 1.400 . S
C1016 H1001 0.960 . S
C1016 H1002 0.960 . S
C1016 H1003 0.960 . S
C1016 C1015 1.524 . S
C1017 C1014 1.403 . S
C1017 C1018 1.392 . S
C1017 C1021 1.495 . S
C1018 C1017 1.392 . S
C1018 C1019 1.385 . S
C1018 C1020 1.478 . S
C1019 H1013 0.930 . S
C1019 C1015 1.400 . S
C1019 C1018 1.385 . S
C1020 C1018 1.478 . S
C1020 C1022 1.381 . S
C1020 C1026 1.383 . S
C1021 C1017 1.495 . S
C1021 H1027 0.959 . S
C1021 H1028 0.961 . S
C1021 H1029 0.960 . S
C1022 C1020 1.381 . S
C1022 C1023 1.394 1_554 S
C1022 H1030 0.930 . S
C1023 C1022 1.394 1_556 S
C1023 C1024 1.383 . S
C1023 H1031 0.929 . S
C1024 C1023 1.383 . S
C1024 C1025 1.377 1_556 S
C1025 H1009 0.930 . S
C1025 C1024 1.377 1_554 S
C1025 C1026 1.379 . S
C1026 H1010 0.931 . S
C1026 C1020 1.383 . S
C1026 C1025 1.379 . S
H1027 C1021 0.959 . S
H1028 C1021 0.961 . S
H1029 C1021 0.960 . S
H1030 C1022 0.930 . S
H1031 C1023 0.929 . S
C177 C9 0.577 . S
C196 C93 0.550 . S
C213 C23 0.602 . S
C232 C107 0.596 . S
C249 C121 0.602 . S
C268 C37 0.627 . S
C285 C51 0.587 . S
C304 C135 0.528 . S
C321 C65 0.601 . S
C340 C149 0.637 . S
C357 C163 0.580 . S
C376 C79 0.531 . S
C393 C119 1.307 . S
C412 C7 1.323 . S
C429 C21 1.301 . S
C448 C133 1.337 . S
C465 C147 1.303 . S
C484 C35 1.328 . S
C501 C161 1.312 . S
C520 C49 1.280 . S
C537 C63 1.303 . S
C556 C91 1.336 . S
C573 C77 1.301 . S
C592 C105 1.342 . S
C609 C162 1.318 . S
C628 C8 1.311 . S
C645 C92 1.319 . S
C664 C22 1.321 . S
C681 C36 1.319 . S
C700 C106 1.315 . S
C717 C120 1.319 . S
C736 C50 1.316 . S
C753 C134 1.318 . S
C772 C64 1.311 . S
C789 C148 1.318 . S
C808 C78 1.318 . S
C825 C3 1.438 . S
C844 C143 1.449 . S
C861 C157 1.443 . S
C880 C17 1.463 . S
C897 C31 1.442 . S
C916 C87 1.462 . S
C933 C45 1.446 . S
C952 C101 1.448 . S
C969 C59 1.442 . S
C988 C115 1.422 . S
C1005 C73 1.436 . S
C1024 C129 1.413 . S
