# Generated by pormake.
# Topology xfy, (5)-cn, num edge types: 1
# Building blocks:
#     Node 0, Type 0, BuildingBlock: BEQFEK_clean_sbu_0, # of connection points: 5
#     Node 1, Type 0, BuildingBlock: BEQFEK_clean_sbu_0, # of connection points: 5
#     Node 2, Type 0, BuildingBlock: BEQFEK_clean_sbu_0, # of connection points: 5
#     Node 3, Type 0, BuildingBlock: BEQFEK_clean_sbu_0, # of connection points: 5
#     Node 4, Type 0, BuildingBlock: BEQFEK_clean_sbu_0, # of connection points: 5
#     Node 5, Type 0, BuildingBlock: BEQFEK_clean_sbu_0, # of connection points: 5
#     Node 6, Type 0, BuildingBlock: BEQFEK_clean_sbu_0, # of connection points: 5
#     Node 7, Type 0, BuildingBlock: BEQFEK_clean_sbu_0, # of connection points: 5
#     Edge 8, Type (0, 0), BuildingBlock: EZIPEK_clean_linker_0, # of connection points: 2
#     Edge 9, Type (0, 0), BuildingBlock: EZIPEK_clean_linker_0, # of connection points: 2
#     Edge 10, Type (0, 0), BuildingBlock: EZIPEK_clean_linker_0, # of connection points: 2
#     Edge 11, Type (0, 0), BuildingBlock: EZIPEK_clean_linker_0, # of connection points: 2
#     Edge 12, Type (0, 0), BuildingBlock: EZIPEK_clean_linker_0, # of connection points: 2
#     Edge 13, Type (0, 0), BuildingBlock: EZIPEK_clean_linker_0, # of connection points: 2
#     Edge 14, Type (0, 0), BuildingBlock: EZIPEK_clean_linker_0, # of connection points: 2
#     Edge 15, Type (0, 0), BuildingBlock: EZIPEK_clean_linker_0, # of connection points: 2
#     Edge 16, Type (0, 0), BuildingBlock: EZIPEK_clean_linker_0, # of connection points: 2
#     Edge 17, Type (0, 0), BuildingBlock: EZIPEK_clean_linker_0, # of connection points: 2
#     Edge 18, Type (0, 0), BuildingBlock: EZIPEK_clean_linker_0, # of connection points: 2
#     Edge 19, Type (0, 0), BuildingBlock: EZIPEK_clean_linker_0, # of connection points: 2
#     Edge 20, Type (0, 0), BuildingBlock: EZIPEK_clean_linker_0, # of connection points: 2
#     Edge 21, Type (0, 0), BuildingBlock: EZIPEK_clean_linker_0, # of connection points: 2
#     Edge 22, Type (0, 0), BuildingBlock: EZIPEK_clean_linker_0, # of connection points: 2
#     Edge 23, Type (0, 0), BuildingBlock: EZIPEK_clean_linker_0, # of connection points: 2
#     Edge 24, Type (0, 0), BuildingBlock: EZIPEK_clean_linker_0, # of connection points: 2
#     Edge 25, Type (0, 0), BuildingBlock: EZIPEK_clean_linker_0, # of connection points: 2
#     Edge 26, Type (0, 0), BuildingBlock: EZIPEK_clean_linker_0, # of connection points: 2
#     Edge 27, Type (0, 0), BuildingBlock: EZIPEK_clean_linker_0, # of connection points: 2
# Relax obj value: 0.382
# Max RMSD: 0.228
# Mean RMSD: 0.228
data_MOF--net-xfy--node1-BEQFEK_clean_sbu_0--edge1-EZIPEK_clean_linker_0
_symmetry_space_group_name_H-M    P1
_symmetry_Int_Tables_number       1
_symmetry_cell_setting            triclinic
loop_
_symmetry_equiv_pos_as_xyz
'x, y, z'
_cell_length_a     21.89559
_cell_length_b     21.868423
_cell_length_c     46.956805
_cell_angle_alpha  89.720002
_cell_angle_beta   89.825932
_cell_angle_gamma 90.199175
loop_
_atom_site_label
_atom_site_type_symbol
_atom_site_fract_x
_atom_site_fract_y
_atom_site_fract_z
_atom_type_partial_charge
Co0 Co 0.22566 0.04962 0.42416 0.0
Co1 Co 0.21002 0.15259 0.37763 0.0
C2 C 0.11853 0.05107 0.38621 0.0
O3 O 0.15255 0.02367 0.404 0.0
O4 O 0.13466 0.10124 0.37446 0.0
C5 C 0.21776 0.93705 0.45565 0.0
O6 O 0.18132 0.9201 0.43497 0.0
C7 C 0.20897 0.1979 0.31873 0.0
C8 C 0.20984 0.29806 0.32478 0.0
C9 C 0.21014 0.25317 0.30403 0.0
N10 N 0.20952 0.20964 0.34679 0.0
N11 N 0.20935 0.26958 0.35027 0.0
C12 C 0.20759 0.13482 0.30649 0.0
H13 H 0.22295 0.10072 0.32249 0.0
H14 H 0.23634 0.1326 0.28701 0.0
H15 H 0.16006 0.12297 0.30054 0.0
C16 C 0.34431 0.03786 0.39773 0.0
N17 N 0.28944 0.06446 0.39896 0.0
N18 N 0.28457 0.10588 0.37864 0.0
C19 C 0.33739 0.10639 0.36354 0.0
C20 C 0.37647 0.06302 0.37521 0.0
C21 C 0.36586 0.99072 0.41864 0.0
H22 H 0.35849 0.00768 0.4406 0.0
H23 H 0.33847 0.94833 0.41605 0.0
H24 H 0.41499 0.98003 0.41588 0.0
O25 O 0.20389 0.12357 0.44494 0.0
O26 O 0.19858 0.19952 0.41353 0.0
H27 H 0.33064 0.19324 0.34217 0.0
H28 H 0.4008 0.15229 0.33513 0.0
C29 C 0.35094 0.14752 0.33872 0.0
H30 H 0.3313 0.12732 0.3192 0.0
H31 H 0.20938 0.29108 0.37006 0.0
O32 O 0.24548 0.9881 0.45399 0.0
C33 C 0.19441 0.17943 0.43897 0.0
Co34 Co 0.03162 0.75892 0.56913 0.0
Co35 Co 0.13345 0.77602 0.61572 0.0
C36 C 0.02962 0.86364 0.60959 0.0
O37 O 0.00389 0.82999 0.59108 0.0
O38 O 0.08022 0.84889 0.62102 0.0
C39 C 0.93409 0.77819 0.53096 0.0
O40 O 0.93969 0.83438 0.54031 0.0
C41 C 0.18377 0.78226 0.67345 0.0
C42 C 0.28038 0.75748 0.66655 0.0
C43 C 0.23834 0.7723 0.68746 0.0
N44 N 0.19272 0.7736 0.64546 0.0
N45 N 0.25084 0.75966 0.64142 0.0
C46 C 0.12372 0.79848 0.68662 0.0
H47 H 0.08572 0.78861 0.67173 0.0
H48 H 0.11689 0.773 0.70688 0.0
H49 H 0.12367 0.84804 0.69158 0.0
C50 C 0.02241 0.6386 0.59515 0.0
N51 N 0.04903 0.69378 0.59332 0.0
N52 N 0.08767 0.7009 0.61444 0.0
C53 C 0.08518 0.65021 0.63102 0.0
C54 C 0.04375 0.60918 0.61928 0.0
C55 C 0.97698 0.61492 0.57409 0.0
H56 H 0.9935 0.62443 0.55215 0.0
H57 H 0.93293 0.63902 0.5771 0.0
H58 H 0.96951 0.56496 0.57651 0.0
O59 O 0.10345 0.78621 0.54759 0.0
O60 O 0.1783 0.79286 0.57936 0.0
H61 H 0.16955 0.64878 0.65303 0.0
H62 H 0.11337 0.59568 0.66727 0.0
C63 C 0.12048 0.64177 0.65785 0.0
H64 H 0.10588 0.67622 0.67361 0.0
H65 H 0.26995 0.74992 0.62157 0.0
O66 O 0.9679 0.73643 0.54107 0.0
C67 C 0.15847 0.7984 0.55399 0.0
Co68 Co 0.76334 0.96138 0.43039 0.0
Co69 Co 0.77502 0.86994 0.37887 0.0
C70 C 0.86926 0.96448 0.38926 0.0
O71 O 0.83759 0.98622 0.4096 0.0
O72 O 0.85135 0.91845 0.37499 0.0
C73 C 0.74273 0.07955 0.45769 0.0
O74 O 0.7324 0.10098 0.43199 0.0
C75 C 0.78055 0.82572 0.3198 0.0
C76 C 0.74328 0.73211 0.32417 0.0
C77 C 0.76562 0.77387 0.30448 0.0
N78 N 0.76767 0.81533 0.3474 0.0
N79 N 0.74614 0.75897 0.34991 0.0
C80 C 0.80592 0.88447 0.30831 0.0
H81 H 0.79685 0.92244 0.32329 0.0
H82 H 0.78609 0.89512 0.28715 0.0
H83 H 0.85605 0.87975 0.30564 0.0
C84 C 0.64227 0.98086 0.40483 0.0
N85 N 0.69725 0.95383 0.40534 0.0
N86 N 0.70429 0.92111 0.38209 0.0
C87 C 0.65494 0.92949 0.36538 0.0
C88 C 0.61421 0.96747 0.3793 0.0
C89 C 0.61435 0.01428 0.42926 0.0
H90 H 0.63503 -0.00157 0.44943 0.0
H91 H 0.62181 0.06411 0.42658 0.0
H92 H 0.56427 0.00617 0.43002 0.0
O93 O 0.78189 0.88346 0.44885 0.0
O94 O 0.78632 0.8173 0.4133 0.0
H95 H 0.64583 0.85102 0.33962 0.0
H96 H 0.60363 0.91641 0.32656 0.0
C97 C 0.64661 0.90136 0.33685 0.0
H98 H 0.68547 0.9141 0.32292 0.0
H99 H 0.73205 0.73929 0.36913 0.0
O100 O 0.75206 0.02263 0.46118 0.0
C101 C 0.79062 0.8296 0.43967 0.0
Co102 Co 0.95371 0.22182 0.5735 0.0
Co103 Co 0.84931 0.20952 0.61932 0.0
C104 C 0.94644 0.11369 0.61139 0.0
O105 O 0.9759 0.14694 0.59374 0.0
O106 O 0.89639 0.1313 0.62257 0.0
C107 C 0.05741 0.20633 0.53676 0.0
O108 O 0.06232 0.15297 0.54946 0.0
C109 C 0.80015 0.20473 0.6775 0.0
C110 C 0.70337 0.22913 0.67107 0.0
C111 C 0.74592 0.21523 0.69184 0.0
N112 N 0.79056 0.21243 0.64948 0.0
N113 N 0.7323 0.226 0.64573 0.0
C114 C 0.86049 0.18885 0.69036 0.0
H115 H 0.89795 0.196 0.6747 0.0
H116 H 0.86872 0.21661 0.70971 0.0
H117 H 0.85972 0.14004 0.69693 0.0
C118 C 0.97043 0.33964 0.60037 0.0
N119 N 0.94154 0.28567 0.59882 0.0
N120 N 0.90121 0.28078 0.61954 0.0
C121 C 0.90468 0.33191 0.63558 0.0
C122 C 0.94857 0.3708 0.62382 0.0
C123 C 0.01607 0.36179 0.57879 0.0
H124 H -0.0025 0.35499 0.55709 0.0
H125 H 0.0585 0.3345 0.58075 0.0
H126 H 0.02713 0.41095 0.5814 0.0
O127 O 0.87992 0.20368 0.55202 0.0
O128 O 0.8028 0.20422 0.58275 0.0
H129 H 0.81781 0.33598 0.65589 0.0
H130 H 0.87267 0.39101 0.66932 0.0
C131 C 0.86641 0.34378 0.66131 0.0
H132 H 0.87942 0.31161 0.67848 0.0
H133 H 0.71269 0.23499 0.62593 0.0
O134 O 0.01643 0.24349 0.54466 0.0
C135 C 0.82334 0.19821 0.55751 0.0
Co136 Co 0.29977 0.50767 0.91003 0.0
Co137 Co 0.28562 0.63359 0.87871 0.0
C138 C 0.39905 0.55087 0.87582 0.0
O139 O 0.3745 0.50619 0.8889 0.0
O140 O 0.37113 0.60142 0.87202 0.0
C141 C 0.2924 0.38104 0.93793 0.0
O142 O 0.29173 0.35099 0.91382 0.0
C143 C 0.28383 0.69203 0.82346 0.0
C144 C 0.22927 0.77544 0.83044 0.0
C145 C 0.25784 0.74139 0.80946 0.0
N146 N 0.2707 0.69616 0.85129 0.0
N147 N 0.23893 0.74664 0.85549 0.0
C148 C 0.31836 0.6399 0.81066 0.0
H149 H 0.3662 0.64144 0.81833 0.0
H150 H 0.29806 0.59596 0.818 0.0
H151 H 0.31888 0.64193 0.78707 0.0
C152 C 0.18463 0.48218 0.88079 0.0
N153 N 0.23396 0.51724 0.88517 0.0
N154 N 0.22378 0.57246 0.87506 0.0
C155 C 0.16533 0.57542 0.86614 0.0
C156 C 0.13892 0.51805 0.86948 0.0
C157 C 0.17793 0.41757 0.89081 0.0
H158 H 0.18169 0.41582 0.91426 0.0
H159 H 0.21474 0.39005 0.88109 0.0
H160 H 0.13347 0.39735 0.8845 0.0
O161 O 0.30414 0.57705 0.93669 0.0
O162 O 0.28381 0.66744 0.91753 0.0
H163 H 0.13875 0.66504 0.8791 0.0
H164 H 0.08258 0.62594 0.85736 0.0
C165 C 0.13211 0.63394 0.86075 0.0
H166 H 0.15147 0.6568 0.84173 0.0
H167 H 0.22153 0.75996 0.87521 0.0
O168 O 0.29443 0.43906 0.93778 0.0
C169 C 0.29698 0.63446 0.93901 0.0
Co170 Co 0.50839 0.69017 0.07913 0.0
Co171 Co 0.62361 0.71398 0.11768 0.0
C172 C 0.54212 0.60143 0.12249 0.0
O173 O 0.50316 0.62092 0.10464 0.0
O174 O 0.59034 0.63153 0.12858 0.0
C175 C 0.38539 0.6823 0.05064 0.0
O176 O 0.35756 0.67621 0.07529 0.0
C177 C 0.68778 0.72531 0.17189 0.0
C178 C 0.7684 0.78127 0.16026 0.0
C179 C 0.73957 0.75261 0.18297 0.0
N180 N 0.68584 0.73703 0.14385 0.0
N181 N 0.73463 0.76975 0.13691 0.0
C182 C 0.63962 0.69033 0.18784 0.0
H183 H 0.65152 0.64105 0.18758 0.0
H184 H 0.59458 0.69583 0.17739 0.0
H185 H 0.63678 0.70519 0.21036 0.0
C186 C 0.47444 0.81022 0.10132 0.0
N187 N 0.51302 0.76306 0.09965 0.0
N188 N 0.56156 0.77468 0.11501 0.0
C189 C 0.55604 0.83085 0.12634 0.0
C190 C 0.5033 0.85842 0.11525 0.0
C191 C 0.40687 0.80243 0.09765 0.0
H192 H 0.39287 0.75831 0.10738 0.0
H193 H 0.38064 0.83899 0.10841 0.0
H194 H 0.3951 0.80156 0.0748 0.0
O195 O 0.58239 0.67913 0.05582 0.0
O196 O 0.66429 0.70584 0.0804 0.0
H197 H 0.63599 0.86413 0.14752 0.0
H198 H 0.56428 0.88213 0.16568 0.0
C199 C 0.58936 0.84782 0.15295 0.0
H200 H 0.59397 0.80682 0.16662 0.0
H201 H 0.74403 0.78561 0.11636 0.0
O202 O 0.44302 0.6893 0.04974 0.0
C203 C 0.63977 0.68722 0.05756 0.0
Co204 Co 0.73517 0.45761 0.93365 0.0
Co205 Co 0.72352 0.35745 0.88622 0.0
C206 C 0.63989 0.46522 0.88926 0.0
O207 O 0.67268 0.48873 0.90851 0.0
O208 O 0.65218 0.41294 0.87879 0.0
C209 C 0.73547 0.57694 0.95788 0.0
O210 O 0.73331 0.59581 0.93129 0.0
C211 C 0.71373 0.30144 0.82875 0.0
C212 C 0.77635 0.22302 0.83307 0.0
C213 C 0.74024 0.25391 0.81364 0.0
N214 N 0.73397 0.29942 0.85579 0.0
N215 N 0.77053 0.25168 0.85828 0.0
C216 C 0.67264 0.34993 0.81717 0.0
H217 H 0.63257 0.35525 0.83142 0.0
H218 H 0.69781 0.39398 0.8165 0.0
H219 H 0.65668 0.33864 0.7954 0.0
C220 C 0.86124 0.46316 0.91265 0.0
N221 N 0.80469 0.43975 0.91266 0.0
N222 N 0.79875 0.40178 0.89134 0.0
C223 C 0.85099 0.40158 0.87616 0.0
C224 C 0.89521 0.43598 0.89079 0.0
C225 C 0.87781 0.51827 0.92997 0.0
H226 H 0.83921 0.5504 0.93012 0.0
H227 H 0.91749 0.54361 0.92116 0.0
H228 H 0.88664 0.50427 0.95232 0.0
O229 O 0.7061 0.38394 0.95353 0.0
O230 O 0.70505 0.30925 0.92164 0.0
H231 H 0.86052 0.33906 0.84134 0.0
H232 H 0.87978 0.41845 0.83264 0.0
C233 C 0.84929 0.38776 0.84506 0.0
H234 H 0.80238 0.39579 0.83716 0.0
H235 H 0.79358 0.24013 0.87696 0.0
O236 O 0.74415 0.52059 0.96324 0.0
C237 C 0.6973 0.32824 0.94702 0.0
Co238 Co 0.46558 0.25761 0.07326 0.0
Co239 Co 0.34965 0.2777 0.11078 0.0
C240 C 0.46371 0.35797 0.11227 0.0
O241 O 0.49539 0.32001 0.09841 0.0
O242 O 0.40702 0.34871 0.11697 0.0
C243 C 0.58683 0.22978 0.04667 0.0
O244 O 0.6094 0.21372 0.07145 0.0
C245 C 0.29827 0.276 0.16828 0.0
C246 C 0.20091 0.29684 0.16097 0.0
C247 C 0.24295 0.28406 0.18219 0.0
N248 N 0.2893 0.28264 0.14013 0.0
N249 N 0.23104 0.29542 0.1359 0.0
C250 C 0.3587 0.26156 0.18154 0.0
H251 H 0.39235 0.24738 0.16519 0.0
H252 H 0.35309 0.22524 0.19794 0.0
H253 H 0.37682 0.30259 0.19239 0.0
C254 C 0.45732 0.13435 0.09708 0.0
N255 N 0.4378 0.19204 0.09505 0.0
N256 N 0.38927 0.19938 0.1114 0.0
C257 C 0.37604 0.14527 0.12411 0.0
C258 C 0.41952 0.10325 0.11573 0.0
C259 C 0.50938 0.10854 0.08034 0.0
H260 H 0.55261 0.11835 0.09168 0.0
H261 H 0.50535 0.0583 0.07792 0.0
H262 H 0.51101 0.12979 0.05894 0.0
O263 O 0.39862 0.28688 0.04926 0.0
O264 O 0.31082 0.28891 0.07292 0.0
H265 H 0.28229 0.16187 0.13551 0.0
H266 H 0.30712 0.08355 0.14037 0.0
C267 C 0.32084 0.1323 0.14204 0.0
H268 H 0.33183 0.14102 0.16466 0.0
H269 H 0.21188 0.30338 0.1159 0.0
O270 O 0.53059 0.24306 0.04457 0.0
C271 C 0.34119 0.2949 0.0499 0.0
C272 C 0.50432 0.95477 0.36428 0.0
C273 C 0.55549 0.99309 0.36928 0.0
C274 C 0.48939 0.08255 0.37141 0.0
C275 C 0.43837 0.04427 0.36623 0.0
N276 N 0.39963 0.9492 0.34793 0.0
N277 N 0.5989 0.09449 0.36696 0.0
C278 C 0.44704 0.98223 0.35883 0.0
C279 C 0.54868 0.05751 0.36897 0.0
N280 N 0.5088 0.89278 0.3672 0.0
N281 N 0.48161 0.14095 0.38089 0.0
H282 H 0.64296 0.07702 0.3647 0.0
H283 H 0.596 0.14179 0.36455 0.0
H284 H 0.43881 0.16068 0.38377 0.0
H285 H 0.51767 0.16805 0.388 0.0
H286 H 0.47103 0.86368 0.36667 0.0
H287 H 0.54923 0.87078 0.37269 0.0
H288 H 0.40461 0.9048 0.3403 0.0
H289 H 0.35708 0.96881 0.3439 0.0
C290 C 0.9312 0.48359 0.63158 0.0
C291 C 0.96995 0.43189 0.63318 0.0
C292 C 0.05986 0.49813 0.63226 0.0
C293 C 0.02107 0.54977 0.63056 0.0
N294 N 0.92175 0.59226 0.64005 0.0
N295 N 0.06839 0.39152 0.6459 0.0
C296 C 0.95731 0.54252 0.63457 0.0
C297 C 0.03339 0.44002 0.63774 0.0
N298 N 0.871 0.47736 0.62463 0.0
N299 N 0.12069 0.50319 0.62618 0.0
H300 H 0.04951 0.34842 0.64997 0.0
H301 H 0.11432 0.39587 0.65134 0.0
H302 H 0.14161 0.54449 0.62074 0.0
H303 H 0.14927 0.46543 0.6242 0.0
H304 H 0.84291 0.51461 0.62025 0.0
H305 H 0.85036 0.43524 0.62082 0.0
H306 H 0.87543 0.58877 0.64503 0.0
H307 H 0.94031 0.63596 0.64249 0.0
C308 C 0.0 0.46509 0.90834 0.0
C309 C 0.96291 0.44429 0.88585 0.0
C310 C 0.04352 0.46988 0.85204 0.0
C311 C 0.07392 0.50297 0.87361 0.0
N312 N 0.07945 0.53466 0.92287 0.0
N313 N 0.98249 0.37988 0.8458 0.0
C314 C 0.0515 0.50158 0.90199 0.0
C315 C 0.99224 0.4336 0.85954 0.0
N316 N 0.98964 0.44425 0.93537 0.0
N317 N 0.06495 0.47086 0.82474 0.0
H318 H 0.95801 0.34465 0.85569 0.0
H319 H 0.00678 0.36699 0.82767 0.0
H320 H 0.10297 0.49683 0.81868 0.0
H321 H 0.04152 0.44996 0.80808 0.0
H322 H 0.01882 0.45336 0.95234 0.0
H323 H 0.9556 0.41197 0.93979 0.0
H324 H 0.06131 0.53874 0.94332 0.0
H325 H 0.11748 0.56237 0.91906 0.0
C326 C 0.47694 0.02221 0.13903 0.0
C327 C 0.42563 0.038 0.12251 0.0
C328 C 0.43654 0.94391 0.09576 0.0
C329 C 0.48297 0.92441 0.11481 0.0
N330 N 0.57298 0.97264 0.13334 0.0
N331 N 0.35043 0.01044 0.08763 0.0
C332 C 0.51101 0.97011 0.13151 0.0
C333 C 0.40257 -0.00311 0.10214 0.0
N334 N 0.49626 0.06 0.1602 0.0
N335 N 0.43311 0.91932 0.06914 0.0
H336 H 0.32577 0.05037 0.09134 0.0
H337 H 0.32929 0.97944 0.07399 0.0
H338 H 0.46596 0.889 0.06153 0.0
H339 H 0.40372 0.93556 0.05343 0.0
H340 H 0.53256 0.04861 0.17355 0.0
H341 H 0.47222 0.09945 0.16567 0.0
H342 H 0.59617 0.00837 0.14327 0.0
H343 H 0.60034 0.94493 0.12059 0.0
C344 C 0.02352 0.0218 0.41169 0.0
C345 C 0.05379 0.03168 0.38532 0.0
C346 C 0.9596 0.00373 0.36031 0.0
C347 C 0.93339 0.98546 0.38677 0.0
N348 N 0.95046 0.95861 0.43626 0.0
N349 N 0.05318 0.0253 0.33406 0.0
C350 C 0.96832 0.98892 0.41206 0.0
C351 C 0.02257 0.02088 0.35936 0.0
N352 N 0.04591 0.04595 0.43638 0.0
N353 N 0.92418 0.00674 0.33648 0.0
H354 H 0.09922 0.03742 0.33276 0.0
H355 H 0.03425 0.01226 0.31468 0.0
H356 H 0.87779 -0.00413 0.3367 0.0
H357 H 0.93948 0.02504 0.31721 0.0
H358 H 0.02211 0.04355 0.45564 0.0
H359 H 0.08385 0.07488 0.43698 0.0
H360 H 0.97774 0.95633 0.4544 0.0
H361 H 0.91261 0.92954 0.43706 0.0
C362 C 0.97673 0.01805 0.63878 0.0
C363 C 0.96345 0.04834 0.61271 0.0
C364 C 0.00149 0.96128 0.58601 0.0
C365 C 0.00821 0.92757 0.61169 0.0
N366 N -0.0048 0.92082 0.66261 0.0
N367 N 0.94418 0.03961 0.56215 0.0
C368 C 0.99389 0.95506 0.63823 0.0
C369 C 0.96992 0.01709 0.58653 0.0
N370 N 0.97482 0.04972 0.66375 0.0
N371 N 0.02794 0.94186 0.56124 0.0
H372 H 0.91711 0.07877 0.56175 0.0
H373 H 0.94361 0.01525 0.54311 0.0
H374 H 0.05539 0.90311 0.55999 0.0
H375 H 0.02869 0.96839 0.54272 0.0
H376 H 0.98978 0.03181 0.68308 0.0
H377 H 0.96233 0.09565 0.66471 0.0
H378 H 0.97984 0.93672 0.68222 0.0
H379 H 0.00726 0.87472 0.66272 0.0
C380 C 0.54721 0.52019 0.90653 0.0
C381 C 0.58083 0.49554 0.88327 0.0
C382 C 0.49655 0.52185 0.8513 0.0
C383 C 0.46594 0.5492 0.87449 0.0
N384 N 0.47205 0.59419 0.92108 0.0
N385 N 0.59413 0.48889 0.8323 0.0
C386 C 0.49566 0.55629 0.90083 0.0
C387 C 0.55765 0.50124 0.85513 0.0
N388 N 0.56016 0.50428 0.93408 0.0
N389 N 0.46679 0.51429 0.82609 0.0
H390 H 0.64006 0.4776 0.83459 0.0
H391 H 0.58066 0.49624 0.81131 0.0
H392 H 0.42297 0.53154 0.82272 0.0
H393 H 0.48452 0.48886 0.80929 0.0
H394 H 0.53345 0.51806 0.95129 0.0
H395 H 0.59163 0.47064 0.93961 0.0
H396 H 0.49471 0.60383 0.94005 0.0
H397 H 0.43334 0.62077 0.91741 0.0
C398 C 0.47944 0.44857 0.14492 0.0
C399 C 0.492 0.41788 0.1189 0.0
C400 C 0.56373 0.4989 0.10593 0.0
C401 C 0.54008 0.53543 0.12795 0.0
N402 N 0.47523 0.54683 0.16885 0.0
N403 N 0.53427 0.42532 0.07094 0.0
C404 C 0.49818 0.51062 0.14785 0.0
C405 C 0.53181 0.44546 0.09847 0.0
N406 N 0.45104 0.41849 0.1668 0.0
N407 N 0.61368 0.5177 0.09071 0.0
H408 H 0.50475 0.39246 0.0627 0.0
H409 H 0.55945 0.44765 0.05511 0.0
H410 H 0.63757 0.55765 0.09554 0.0
H411 H 0.63484 0.49021 0.07554 0.0
H412 H 0.44462 0.43762 0.18686 0.0
H413 H 0.43972 0.37225 0.16573 0.0
H414 H 0.43942 0.53341 0.18217 0.0
H415 H 0.49088 0.59149 0.17194 0.0
C416 C 0.2651 0.31545 0.23248 0.0
C417 C 0.23071 0.27939 0.2133 0.0
C418 C 0.17348 0.23699 0.25375 0.0
C419 C 0.21606 0.26353 0.27279 0.0
N420 N 0.31133 0.31856 0.27895 0.0
N421 N 0.15811 0.19704 0.20645 0.0
C422 C 0.26436 0.30037 0.26185 0.0
C423 C 0.18629 0.23774 0.22409 0.0
N424 N 0.29677 0.36541 0.22291 0.0
N425 N 0.1197 0.21337 0.26375 0.0
H426 H 0.16784 0.19401 0.18477 0.0
H427 H 0.12971 0.16216 0.21399 0.0
H428 H 0.08496 0.19823 0.25036 0.0
H429 H 0.10721 0.21533 0.28518 0.0
H430 H 0.31832 0.39602 0.23658 0.0
H431 H 0.29585 0.37967 0.20167 0.0
H432 H 0.34995 0.34101 0.27105 0.0
H433 H 0.31524 0.30522 0.3002 0.0
C434 C 0.27701 0.80442 0.76512 0.0
C435 C 0.25253 0.75094 0.77823 0.0
C436 C 0.22913 0.70872 0.73146 0.0
C437 C 0.24674 0.76464 0.71852 0.0
N438 N 0.28057 0.86907 0.72291 0.0
N439 N 0.19049 0.65973 0.77387 0.0
C440 C 0.26863 0.81366 0.73532 0.0
C441 C 0.22411 0.70533 0.7614 0.0
N442 N 0.31017 0.84508 0.78083 0.0
N443 N 0.21916 0.65804 0.71523 0.0
H444 H 0.18398 0.65638 0.79577 0.0
H445 H 0.16388 0.6291 0.7623 0.0
H446 H 0.22602 0.65791 0.6933 0.0
H447 H 0.21149 0.6147 0.72388 0.0
H448 H 0.33431 0.88156 0.77189 0.0
H449 H 0.31784 0.8395 0.80259 0.0
H450 H 0.29029 0.90841 0.73448 0.0
H451 H 0.27656 0.87664 0.70104 0.0
C452 C 0.80465 0.73352 0.25769 0.0
C453 C 0.7613 0.76832 0.27315 0.0
C454 C 0.71561 0.80341 0.22876 0.0
C455 C 0.75276 0.76225 0.21346 0.0
N456 N 0.83007 0.68417 0.21294 0.0
N457 N 0.66563 0.82272 0.27345 0.0
C458 C 0.79691 0.72623 0.22777 0.0
C459 C 0.71403 0.79961 0.25871 0.0
N460 N 0.85339 0.70838 0.2715 0.0
N461 N 0.68239 0.8467 0.21469 0.0
H462 H 0.66027 0.81552 0.29519 0.0
H463 H 0.62739 0.84157 0.26364 0.0
H464 H 0.6851 0.85258 0.19271 0.0
H465 H 0.6583 0.88108 0.22509 0.0
H466 H 0.88972 0.68761 0.26101 0.0
H467 H 0.8596 0.71218 0.29344 0.0
H468 H 0.85823 0.65196 0.22261 0.0
H469 H 0.82654 0.67918 0.19092 0.0
C470 C 0.7619 0.28977 0.76367 0.0
C471 C 0.73942 0.24361 0.78233 0.0
C472 C 0.72202 0.17664 0.74127 0.0
C473 C 0.73877 0.22542 0.72282 0.0
N474 N 0.75918 0.33314 0.71639 0.0
N475 N 0.68879 0.14628 0.78866 0.0
C476 C 0.75364 0.28352 0.73401 0.0
C477 C 0.71684 0.18775 0.77107 0.0
N478 N 0.79455 0.33797 0.77405 0.0
N479 N 0.71207 0.11966 0.73038 0.0
H480 H 0.68362 0.15324 0.81049 0.0
H481 H 0.66612 0.10755 0.7813 0.0
H482 H 0.71354 0.11066 0.70859 0.0
H483 H 0.70634 0.08077 0.74301 0.0
H484 H 0.81713 0.36961 0.76108 0.0
H485 H 0.80525 0.34202 0.79546 0.0
H486 H 0.76439 0.37763 0.72388 0.0
H487 H 0.75171 0.33085 0.69454 0.0
C488 C 0.19318 0.89731 0.53383 0.0
C489 C 0.19433 0.83262 0.53245 0.0
C490 C 0.22994 0.83901 0.48299 0.0
C491 C 0.21679 0.90253 0.48288 0.0
N492 N 0.17582 0.9906 0.50756 0.0
N493 N 0.21409 0.74067 0.50626 0.0
C494 C 0.19687 0.93174 0.50824 0.0
C495 C 0.21357 0.80307 0.50723 0.0
N496 N 0.18619 0.92593 0.55944 0.0
N497 N 0.25842 0.8134 0.46006 0.0
H498 H 0.20543 0.71368 0.52424 0.0
H499 H 0.22059 0.71595 0.48761 0.0
H500 H 0.27159 0.83895 0.44223 0.0
H501 H 0.27383 0.76842 0.45975 0.0
H502 H 0.19079 0.97305 0.56189 0.0
H503 H 0.18195 0.90237 0.57868 0.0
H504 H 0.15404 0.01116 0.52478 0.0
H505 H 0.17375 0.0172 0.48914 0.0
C506 C 0.7891 0.78425 0.48809 0.0
C507 C 0.81493 0.7843 0.46039 0.0
C508 C 0.91374 0.75388 0.47985 0.0
C509 C 0.89103 0.76563 0.50755 0.0
N510 N 0.80545 0.77539 0.53931 0.0
N511 N 0.8967 0.74683 0.42996 0.0
C512 C 0.82768 0.77471 0.51208 0.0
C513 C 0.8746 0.76071 0.45624 0.0
N514 N 0.72821 0.79624 0.49097 0.0
N515 N 0.97364 0.73899 0.47563 0.0
H516 H 0.87067 0.74738 0.41141 0.0
H517 H 0.87067 0.74738 0.41141 0.0
H518 H 0.00484 0.73386 0.49217 0.0
H519 H 0.99194 0.73165 0.45538 0.0
H520 H 0.70538 0.80019 0.51031 0.0
H521 H 0.69996 0.80096 0.47321 0.0
H522 H 0.75986 0.78188 0.54466 0.0
H523 H 0.83321 0.7667 0.55691 0.0
C524 C 0.72269 0.10231 0.50913 0.0
C525 C 0.74835 0.12097 0.48265 0.0
C526 C 0.79465 0.20849 0.50676 0.0
C527 C 0.78325 0.18029 0.53347 0.0
N528 N 0.73752 0.09604 0.55991 0.0
N529 N 0.81646 0.19045 0.45725 0.0
C530 C 0.74643 0.12669 0.5348 0.0
C531 C 0.78536 0.17457 0.48147 0.0
N532 N 0.67547 0.06143 0.50976 0.0
N533 N 0.81636 0.26706 0.50572 0.0
H534 H 0.81524 0.16541 0.4385 0.0
H535 H 0.84893 0.22542 0.4567 0.0
H536 H 0.82293 0.29286 0.52413 0.0
H537 H 0.82119 0.29162 0.48676 0.0
H538 H 0.65169 0.05018 0.52833 0.0
H539 H 0.65558 0.04467 0.49126 0.0
H540 H 0.71781 0.05263 0.56095 0.0
H541 H 0.75313 0.11132 0.57951 0.0
C542 C 0.10569 0.23314 0.45987 0.0
C543 C 0.16802 0.21705 0.46204 0.0
C544 C 0.15996 0.22031 0.51407 0.0
C545 C 0.09547 0.22007 0.51145 0.0
N546 N 0.00574 0.22405 0.48144 0.0
N547 N 0.25769 0.20419 0.49059 0.0
C548 C 0.06782 0.22745 0.48431 0.0
C549 C 0.19637 0.21482 0.48909 0.0
N550 N 0.08248 0.25226 0.43441 0.0
N551 N 0.18592 0.22561 0.54037 0.0
H552 H 0.28512 0.20343 0.47235 0.0
H553 H 0.28076 0.19461 0.50943 0.0
H554 H 0.15989 0.23031 0.55889 0.0
H555 H 0.23266 0.23059 0.54363 0.0
H556 H 0.03816 0.2687 0.43209 0.0
H557 H 0.10975 0.25911 0.41646 0.0
H558 H 0.98401 0.22153 0.46178 0.0
H559 H 0.9758 0.21855 0.49855 0.0
C560 C 0.33058 0.27109 -0.00131 0.0
C561 C 0.31123 0.30668 0.02215 0.0
C562 C 0.25869 0.37488 0.98906 0.0
C563 C 0.29196 0.34889 0.96597 0.0
N564 N 0.36804 0.27523 0.95055 0.0
N565 N 0.25786 0.39558 0.03961 0.0
C566 C 0.32934 0.29693 0.97101 0.0
C567 C 0.27455 0.35895 0.01746 0.0
N568 N 0.35158 0.21306 0.00305 0.0
N569 N 0.21164 0.41422 0.98389 0.0
H570 H 0.26829 0.38582 0.06076 0.0
H571 H 0.23717 0.43798 0.03672 0.0
H572 H 0.19684 0.42475 0.96338 0.0
H573 H 0.183 0.43059 -0.00013 0.0
H574 H 0.36193 0.18344 0.98639 0.0
H575 H 0.35186 0.19265 0.0232 0.0
H576 H 0.40029 0.24139 0.95468 0.0
H577 H 0.37341 0.29499 0.93052 0.0
C578 C 0.35117 0.70649 0.97247 0.0
C579 C 0.30607 0.661 0.96767 0.0
C580 C 0.30695 0.63331 0.01821 0.0
C581 C 0.35111 0.67984 0.02332 0.0
N582 N 0.39848 0.77361 0.00672 0.0
N583 N 0.22643 0.59715 0.98722 0.0
C584 C 0.36755 0.7208 0.00091 0.0
C585 C 0.2787 0.63034 0.99111 0.0
N586 N 0.38175 0.73309 0.9502 0.0
N587 N 0.2956 0.58854 0.03796 0.0
H588 H 0.20447 0.59496 0.96753 0.0
H589 H 0.20173 0.57773 0.004 0.0
H590 H 0.31802 0.58529 0.0574 0.0
H591 H 0.26845 0.55046 0.03372 0.0
H592 H 0.42034 0.76045 0.95292 0.0
H593 H 0.37192 0.72442 0.92893 0.0
H594 H 0.40656 0.80753 0.99148 0.0
H595 H 0.41004 0.78661 0.02731 0.0
C596 C 0.72841 0.63408 0.03318 0.0
C597 C 0.677 0.67356 0.03196 0.0
C598 C 0.66846 0.65682 0.9808 0.0
C599 C 0.72085 0.61858 0.98173 0.0
N600 N 0.81215 0.58926 0.00684 0.0
N601 N 0.61515 0.7405 0.00317 0.0
C602 C 0.75483 0.61364 0.0073 0.0
C603 C 0.65328 0.69138 0.00517 0.0
N604 N 0.74949 0.61211 0.05859 0.0
N605 N 0.62964 0.65634 0.95804 0.0
H606 H 0.60443 0.76758 0.02074 0.0
H607 H 0.6002 0.75803 0.98372 0.0
H608 H 0.6349 0.62828 0.9404 0.0
H609 H 0.58788 0.67911 0.95816 0.0
H610 H 0.7821 0.57762 0.05996 0.0
H611 H 0.73147 0.62414 0.07828 0.0
H612 H 0.84083 0.5892 0.02452 0.0
H613 H 0.8333 0.57559 0.98798 0.0
C614 C 0.62456 0.2507 0.96905 0.0
C615 C 0.67898 0.28598 0.97043 0.0
C616 C 0.68072 0.27454 0.02229 0.0
C617 C 0.62621 0.23899 0.02106 0.0
N618 N 0.56016 0.17557 0.9926 0.0
N619 N 0.77018 0.3102 0.99663 0.0
C620 C 0.60301 0.22095 0.99413 0.0
C621 C 0.71102 0.29017 0.99651 0.0
N622 N 0.5909 0.2489 0.94462 0.0
N623 N 0.70106 0.29842 0.04739 0.0
H624 H 0.79374 0.32097 0.97789 0.0
H625 H 0.7974 0.30938 0.01481 0.0
H626 H 0.67957 0.29177 0.06692 0.0
H627 H 0.73655 0.33021 0.0484 0.0
H628 H 0.54724 0.22987 0.94374 0.0
H629 H 0.60418 0.27032 0.92574 0.0
H630 H 0.54515 0.15722 0.97341 0.0
H631 H 0.54498 0.15175 0.01059 0.0
loop_
_geom_bond_atom_site_label_1
_geom_bond_atom_site_label_2
_geom_bond_distance
_geom_bond_site_symmetry_2
_ccdc_geom_bond_type
Co0 O3 1.970 . S
Co0 N17 1.989 . S
Co0 O25 1.967 . S
Co0 O32 1.920 . S
Co1 O4 1.966 . S
Co1 N10 2.022 . S
Co1 N18 1.993 . S
Co1 O26 1.941 . S
C2 O3 1.258 . S
C2 O4 1.263 . S
O3 Co0 1.970 . S
O3 C2 1.258 . S
O4 Co1 1.966 . S
O4 C2 1.263 . S
C5 O6 1.235 . S
C5 O32 1.289 1_565 S
O6 C5 1.235 . S
C7 C9 1.400 . S
C7 N10 1.351 . S
C7 C12 1.501 . S
C8 C9 1.387 . S
C8 N11 1.341 . S
C9 C7 1.400 . S
C9 C8 1.387 . S
N10 Co1 2.022 . S
N10 C7 1.351 . S
N10 N11 1.365 . S
N11 C8 1.341 . S
N11 N10 1.365 . S
N11 H31 0.862 . S
C12 C7 1.501 . S
C12 H13 0.961 . S
C12 H14 0.961 . S
C12 H15 0.960 . S
H13 C12 0.961 . S
H14 C12 0.961 . S
H15 C12 0.960 . S
C16 N17 1.342 . S
C16 C20 1.401 . S
C16 C21 1.499 1_545 S
N17 Co0 1.989 . S
N17 C16 1.342 . S
N17 N18 1.388 . S
N18 Co1 1.993 . S
N18 N17 1.388 . S
N18 C19 1.346 . S
C19 N18 1.346 . S
C19 C20 1.396 . S
C19 C29 1.510 . S
C20 C16 1.401 . S
C20 C19 1.396 . S
C21 C16 1.499 1_565 S
C21 H22 0.959 . S
C21 H23 0.960 . S
C21 H24 0.961 1_565 S
H22 C21 0.959 . S
H23 C21 0.960 . S
H24 C21 0.961 1_545 S
O25 Co0 1.967 . S
O25 C33 1.258 . S
O26 Co1 1.941 . S
O26 C33 1.266 . S
H27 C29 0.959 . S
H28 C29 0.961 . S
C29 C19 1.510 . S
C29 H27 0.959 . S
C29 H28 0.961 . S
C29 H30 0.960 . S
H30 C29 0.960 . S
H31 N11 0.862 . S
O32 Co0 1.920 . S
O32 C5 1.289 1_545 S
C33 O25 1.258 . S
C33 O26 1.266 . S
Co34 O37 1.970 . S
Co34 N51 1.989 . S
Co34 O59 1.967 . S
Co34 O66 1.920 . S
Co35 O38 1.966 . S
Co35 N44 2.022 . S
Co35 N52 1.993 . S
Co35 O60 1.941 . S
C36 O37 1.258 . S
C36 O38 1.263 . S
O37 Co34 1.970 . S
O37 C36 1.258 . S
O38 Co35 1.966 . S
O38 C36 1.263 . S
C39 O40 1.235 . S
C39 O66 1.289 1_655 S
O40 C39 1.235 . S
C41 C43 1.400 . S
C41 N44 1.351 . S
C41 C46 1.501 . S
C42 C43 1.387 . S
C42 N45 1.341 . S
C43 C41 1.400 . S
C43 C42 1.387 . S
N44 Co35 2.022 . S
N44 C41 1.351 . S
N44 N45 1.365 . S
N45 C42 1.341 . S
N45 N44 1.365 . S
N45 H65 0.862 . S
C46 C41 1.501 . S
C46 H47 0.961 . S
C46 H48 0.961 . S
C46 H49 0.960 . S
H47 C46 0.961 . S
H48 C46 0.961 . S
H49 C46 0.960 . S
C50 N51 1.342 . S
C50 C54 1.401 . S
C50 C55 1.499 1_455 S
N51 Co34 1.989 . S
N51 C50 1.342 . S
N51 N52 1.388 . S
N52 Co35 1.993 . S
N52 N51 1.388 . S
N52 C53 1.346 . S
C53 N52 1.346 . S
C53 C54 1.396 . S
C53 C63 1.510 . S
C54 C50 1.401 . S
C54 C53 1.396 . S
C55 C50 1.499 1_655 S
C55 H56 0.959 . S
C55 H57 0.960 . S
C55 H58 0.961 1_655 S
H56 C55 0.959 . S
H57 C55 0.960 . S
H58 C55 0.961 1_455 S
O59 Co34 1.967 . S
O59 C67 1.258 . S
O60 Co35 1.941 . S
O60 C67 1.266 . S
H61 C63 0.959 . S
H62 C63 0.961 . S
C63 C53 1.510 . S
C63 H61 0.959 . S
C63 H62 0.961 . S
C63 H64 0.960 . S
H64 C63 0.960 . S
H65 N45 0.862 . S
O66 Co34 1.920 . S
O66 C39 1.289 1_455 S
C67 O59 1.258 . S
C67 O60 1.266 . S
Co68 O71 1.970 . S
Co68 N85 1.989 . S
Co68 O93 1.967 . S
Co68 O100 1.920 . S
Co69 O72 1.966 . S
Co69 N78 2.022 . S
Co69 N86 1.993 . S
Co69 O94 1.941 . S
C70 O71 1.258 . S
C70 O72 1.263 . S
O71 Co68 1.970 . S
O71 C70 1.258 . S
O72 Co69 1.966 . S
O72 C70 1.263 . S
C73 O74 1.235 . S
C73 O100 1.289 1_545 S
O74 C73 1.235 . S
C75 C77 1.400 . S
C75 N78 1.351 . S
C75 C80 1.501 . S
C76 C77 1.387 . S
C76 N79 1.341 . S
C77 C75 1.400 . S
C77 C76 1.387 . S
N78 Co69 2.022 . S
N78 C75 1.351 . S
N78 N79 1.365 . S
N79 C76 1.341 . S
N79 N78 1.365 . S
N79 H99 0.862 . S
C80 C75 1.501 . S
C80 H81 0.961 . S
C80 H82 0.961 . S
C80 H83 0.960 . S
H81 C80 0.961 . S
H82 C80 0.961 . S
H83 C80 0.960 . S
C84 N85 1.342 . S
C84 C88 1.401 . S
C84 C89 1.499 1_565 S
N85 Co68 1.989 . S
N85 C84 1.342 . S
N85 N86 1.388 . S
N86 Co69 1.993 . S
N86 N85 1.388 . S
N86 C87 1.346 . S
C87 N86 1.346 . S
C87 C88 1.396 . S
C87 C97 1.510 . S
C88 C84 1.401 . S
C88 C87 1.396 . S
C89 C84 1.499 1_545 S
C89 H90 0.959 . S
C89 H91 0.960 . S
C89 H92 0.961 1_545 S
H90 C89 0.959 . S
H91 C89 0.960 . S
H92 C89 0.961 1_565 S
O93 Co68 1.967 . S
O93 C101 1.258 . S
O94 Co69 1.941 . S
O94 C101 1.266 . S
H95 C97 0.959 . S
H96 C97 0.961 . S
C97 C87 1.510 . S
C97 H95 0.959 . S
C97 H96 0.961 . S
C97 H98 0.960 . S
H98 C97 0.960 . S
H99 N79 0.862 . S
O100 Co68 1.920 . S
O100 C73 1.289 1_565 S
C101 O93 1.258 . S
C101 O94 1.266 . S
Co102 O105 1.970 . S
Co102 N119 1.989 . S
Co102 O127 1.967 . S
Co102 O134 1.920 . S
Co103 O106 1.966 . S
Co103 N112 2.022 . S
Co103 N120 1.993 . S
Co103 O128 1.941 . S
C104 O105 1.258 . S
C104 O106 1.263 . S
O105 Co102 1.970 . S
O105 C104 1.258 . S
O106 Co103 1.966 . S
O106 C104 1.263 . S
C107 O108 1.235 . S
C107 O134 1.289 1_455 S
O108 C107 1.235 . S
C109 C111 1.400 . S
C109 N112 1.351 . S
C109 C114 1.501 . S
C110 C111 1.387 . S
C110 N113 1.341 . S
C111 C109 1.400 . S
C111 C110 1.387 . S
N112 Co103 2.022 . S
N112 C109 1.351 . S
N112 N113 1.365 . S
N113 C110 1.341 . S
N113 N112 1.365 . S
N113 H133 0.862 . S
C114 C109 1.501 . S
C114 H115 0.961 . S
C114 H116 0.961 . S
C114 H117 0.960 . S
H115 C114 0.961 . S
H116 C114 0.961 . S
H117 C114 0.960 . S
C118 N119 1.342 . S
C118 C122 1.401 . S
C118 C123 1.499 1_655 S
N119 Co102 1.989 . S
N119 C118 1.342 . S
N119 N120 1.388 . S
N120 Co103 1.993 . S
N120 N119 1.388 . S
N120 C121 1.346 . S
C121 N120 1.346 . S
C121 C122 1.396 . S
C121 C131 1.510 . S
C122 C118 1.401 . S
C122 C121 1.396 . S
C123 C118 1.499 1_455 S
C123 H124 0.959 . S
C123 H125 0.960 . S
C123 H126 0.961 1_455 S
H124 C123 0.959 . S
H125 C123 0.960 . S
H126 C123 0.961 1_655 S
O127 Co102 1.967 . S
O127 C135 1.258 . S
O128 Co103 1.941 . S
O128 C135 1.266 . S
H129 C131 0.959 . S
H130 C131 0.961 . S
C131 C121 1.510 . S
C131 H129 0.959 . S
C131 H130 0.961 . S
C131 H132 0.960 . S
H132 C131 0.960 . S
H133 N113 0.862 . S
O134 Co102 1.920 . S
O134 C107 1.289 1_655 S
C135 O127 1.258 . S
C135 O128 1.266 . S
Co136 O139 1.970 . S
Co136 N153 1.989 . S
Co136 O161 1.967 . S
Co136 O168 1.920 . S
Co137 O140 1.966 . S
Co137 N146 2.022 . S
Co137 N154 1.993 . S
Co137 O162 1.941 . S
C138 O139 1.258 . S
C138 O140 1.263 . S
O139 Co136 1.970 . S
O139 C138 1.258 . S
O140 Co137 1.966 . S
O140 C138 1.263 . S
C141 O142 1.235 . S
C141 O168 1.289 . S
O142 C141 1.235 . S
C143 C145 1.400 . S
C143 N146 1.351 . S
C143 C148 1.501 . S
C144 C145 1.387 . S
C144 N147 1.341 . S
C145 C143 1.400 . S
C145 C144 1.387 . S
N146 Co137 2.022 . S
N146 C143 1.351 . S
N146 N147 1.365 . S
N147 C144 1.341 . S
N147 N146 1.365 . S
N147 H167 0.862 . S
C148 C143 1.501 . S
C148 H149 0.961 . S
C148 H150 0.961 . S
C148 H151 0.960 . S
H149 C148 0.961 . S
H150 C148 0.961 . S
H151 C148 0.960 . S
C152 N153 1.342 . S
C152 C156 1.401 . S
C152 C157 1.499 . S
N153 Co136 1.989 . S
N153 C152 1.342 . S
N153 N154 1.388 . S
N154 Co137 1.993 . S
N154 N153 1.388 . S
N154 C155 1.346 . S
C155 N154 1.346 . S
C155 C156 1.396 . S
C155 C165 1.510 . S
C156 C152 1.401 . S
C156 C155 1.396 . S
C157 C152 1.499 . S
C157 H158 0.959 . S
C157 H159 0.960 . S
C157 H160 0.961 . S
H158 C157 0.959 . S
H159 C157 0.960 . S
H160 C157 0.961 . S
O161 Co136 1.967 . S
O161 C169 1.258 . S
O162 Co137 1.941 . S
O162 C169 1.266 . S
H163 C165 0.959 . S
H164 C165 0.961 . S
C165 C155 1.510 . S
C165 H163 0.959 . S
C165 H164 0.961 . S
C165 H166 0.960 . S
H166 C165 0.960 . S
H167 N147 0.862 . S
O168 Co136 1.920 . S
O168 C141 1.289 . S
C169 O161 1.258 . S
C169 O162 1.266 . S
Co170 O173 1.970 . S
Co170 N187 1.989 . S
Co170 O195 1.967 . S
Co170 O202 1.920 . S
Co171 O174 1.966 . S
Co171 N180 2.022 . S
Co171 N188 1.993 . S
Co171 O196 1.941 . S
C172 O173 1.258 . S
C172 O174 1.263 . S
O173 Co170 1.970 . S
O173 C172 1.258 . S
O174 Co171 1.966 . S
O174 C172 1.263 . S
C175 O176 1.235 . S
C175 O202 1.289 . S
O176 C175 1.235 . S
C177 C179 1.400 . S
C177 N180 1.351 . S
C177 C182 1.501 . S
C178 C179 1.387 . S
C178 N181 1.341 . S
C179 C177 1.400 . S
C179 C178 1.387 . S
N180 Co171 2.022 . S
N180 C177 1.351 . S
N180 N181 1.365 . S
N181 C178 1.341 . S
N181 N180 1.365 . S
N181 H201 0.862 . S
C182 C177 1.501 . S
C182 H183 0.961 . S
C182 H184 0.961 . S
C182 H185 0.960 . S
H183 C182 0.961 . S
H184 C182 0.961 . S
H185 C182 0.960 . S
C186 N187 1.342 . S
C186 C190 1.401 . S
C186 C191 1.499 . S
N187 Co170 1.989 . S
N187 C186 1.342 . S
N187 N188 1.388 . S
N188 Co171 1.993 . S
N188 N187 1.388 . S
N188 C189 1.346 . S
C189 N188 1.346 . S
C189 C190 1.396 . S
C189 C199 1.510 . S
C190 C186 1.401 . S
C190 C189 1.396 . S
C191 C186 1.499 . S
C191 H192 0.959 . S
C191 H193 0.960 . S
C191 H194 0.961 . S
H192 C191 0.959 . S
H193 C191 0.960 . S
H194 C191 0.961 . S
O195 Co170 1.967 . S
O195 C203 1.258 . S
O196 Co171 1.941 . S
O196 C203 1.266 . S
H197 C199 0.959 . S
H198 C199 0.961 . S
C199 C189 1.510 . S
C199 H197 0.959 . S
C199 H198 0.961 . S
C199 H200 0.960 . S
H200 C199 0.960 . S
H201 N181 0.862 . S
O202 Co170 1.920 . S
O202 C175 1.289 . S
C203 O195 1.258 . S
C203 O196 1.266 . S
Co204 O207 1.970 . S
Co204 N221 1.989 . S
Co204 O229 1.967 . S
Co204 O236 1.920 . S
Co205 O208 1.966 . S
Co205 N214 2.022 . S
Co205 N222 1.993 . S
Co205 O230 1.941 . S
C206 O207 1.258 . S
C206 O208 1.263 . S
O207 Co204 1.970 . S
O207 C206 1.258 . S
O208 Co205 1.966 . S
O208 C206 1.263 . S
C209 O210 1.235 . S
C209 O236 1.289 . S
O210 C209 1.235 . S
C211 C213 1.400 . S
C211 N214 1.351 . S
C211 C216 1.501 . S
C212 C213 1.387 . S
C212 N215 1.341 . S
C213 C211 1.400 . S
C213 C212 1.387 . S
N214 Co205 2.022 . S
N214 C211 1.351 . S
N214 N215 1.365 . S
N215 C212 1.341 . S
N215 N214 1.365 . S
N215 H235 0.862 . S
C216 C211 1.501 . S
C216 H217 0.961 . S
C216 H218 0.961 . S
C216 H219 0.960 . S
H217 C216 0.961 . S
H218 C216 0.961 . S
H219 C216 0.960 . S
C220 N221 1.342 . S
C220 C224 1.401 . S
C220 C225 1.499 . S
N221 Co204 1.989 . S
N221 C220 1.342 . S
N221 N222 1.388 . S
N222 Co205 1.993 . S
N222 N221 1.388 . S
N222 C223 1.346 . S
C223 N222 1.346 . S
C223 C224 1.396 . S
C223 C233 1.510 . S
C224 C220 1.401 . S
C224 C223 1.396 . S
C225 C220 1.499 . S
C225 H226 0.959 . S
C225 H227 0.960 . S
C225 H228 0.961 . S
H226 C225 0.959 . S
H227 C225 0.960 . S
H228 C225 0.961 . S
O229 Co204 1.967 . S
O229 C237 1.258 . S
O230 Co205 1.941 . S
O230 C237 1.266 . S
H231 C233 0.959 . S
H232 C233 0.961 . S
C233 C223 1.510 . S
C233 H231 0.959 . S
C233 H232 0.961 . S
C233 H234 0.960 . S
H234 C233 0.960 . S
H235 N215 0.862 . S
O236 Co204 1.920 . S
O236 C209 1.289 . S
C237 O229 1.258 . S
C237 O230 1.266 . S
Co238 O241 1.970 . S
Co238 N255 1.989 . S
Co238 O263 1.967 . S
Co238 O270 1.920 . S
Co239 O242 1.966 . S
Co239 N248 2.022 . S
Co239 N256 1.993 . S
Co239 O264 1.941 . S
C240 O241 1.258 . S
C240 O242 1.263 . S
O241 Co238 1.970 . S
O241 C240 1.258 . S
O242 Co239 1.966 . S
O242 C240 1.263 . S
C243 O244 1.235 . S
C243 O270 1.289 . S
O244 C243 1.235 . S
C245 C247 1.400 . S
C245 N248 1.351 . S
C245 C250 1.501 . S
C246 C247 1.387 . S
C246 N249 1.341 . S
C247 C245 1.400 . S
C247 C246 1.387 . S
N248 Co239 2.022 . S
N248 C245 1.351 . S
N248 N249 1.365 . S
N249 C246 1.341 . S
N249 N248 1.365 . S
N249 H269 0.862 . S
C250 C245 1.501 . S
C250 H251 0.961 . S
C250 H252 0.961 . S
C250 H253 0.960 . S
H251 C250 0.961 . S
H252 C250 0.961 . S
H253 C250 0.960 . S
C254 N255 1.342 . S
C254 C258 1.401 . S
C254 C259 1.499 . S
N255 Co238 1.989 . S
N255 C254 1.342 . S
N255 N256 1.388 . S
N256 Co239 1.993 . S
N256 N255 1.388 . S
N256 C257 1.346 . S
C257 N256 1.346 . S
C257 C258 1.396 . S
C257 C267 1.510 . S
C258 C254 1.401 . S
C258 C257 1.396 . S
C259 C254 1.499 . S
C259 H260 0.959 . S
C259 H261 0.960 . S
C259 H262 0.961 . S
H260 C259 0.959 . S
H261 C259 0.960 . S
H262 C259 0.961 . S
O263 Co238 1.967 . S
O263 C271 1.258 . S
O264 Co239 1.941 . S
O264 C271 1.266 . S
H265 C267 0.959 . S
H266 C267 0.961 . S
C267 C257 1.510 . S
C267 H265 0.959 . S
C267 H266 0.961 . S
C267 H268 0.960 . S
H268 C267 0.960 . S
H269 N249 0.862 . S
O270 Co238 1.920 . S
O270 C243 1.289 . S
C271 O263 1.258 . S
C271 O264 1.266 . S
C272 C273 1.363 . S
C272 C278 1.379 . S
C272 N280 1.356 . S
C273 C272 1.363 . S
C273 C279 1.363 1_565 S
C274 C275 1.363 . S
C274 C279 1.379 . S
C274 N281 1.356 . S
C275 C274 1.363 . S
C275 C278 1.363 1_545 S
N276 C278 1.356 1_545 S
N276 H288 0.984 1_545 S
N276 H289 0.986 . S
N277 C279 1.356 1_565 S
N277 H282 0.986 . S
N277 H283 0.984 1_565 S
C278 C272 1.379 . S
C278 C275 1.363 1_565 S
C278 N276 1.356 1_565 S
C279 C273 1.363 1_545 S
C279 C274 1.379 . S
C279 N277 1.356 1_545 S
N280 C272 1.356 . S
N280 H286 0.984 . S
N280 H287 0.984 . S
N281 C274 1.356 . S
N281 H284 0.984 . S
N281 H285 0.985 . S
H282 N277 0.986 . S
H283 N277 0.984 1_545 S
H284 N281 0.984 . S
H285 N281 0.985 . S
H286 N280 0.984 . S
H287 N280 0.984 . S
H288 N276 0.984 1_565 S
H289 N276 0.986 . S
C290 C291 1.363 . S
C290 C296 1.379 . S
C290 N298 1.356 . S
C291 C290 1.363 . S
C291 C297 1.363 1_655 S
C292 C293 1.363 . S
C292 C297 1.379 . S
C292 N299 1.356 . S
C293 C292 1.363 . S
C293 C296 1.363 1_455 S
N294 C296 1.356 1_455 S
N294 H306 0.983 1_455 S
N294 H307 0.986 . S
N295 C297 1.356 1_655 S
N295 H300 0.986 . S
N295 H301 0.983 1_655 S
C296 C290 1.379 . S
C296 C293 1.363 1_655 S
C296 N294 1.356 1_655 S
C297 C291 1.363 1_455 S
C297 C292 1.379 . S
C297 N295 1.356 1_455 S
N298 C290 1.356 . S
N298 H304 0.984 . S
N298 H305 0.984 . S
N299 C292 1.356 . S
N299 H302 0.984 . S
N299 H303 0.985 . S
H300 N295 0.986 . S
H301 N295 0.983 1_455 S
H302 N299 0.984 . S
H303 N299 0.985 . S
H304 N298 0.984 . S
H305 N298 0.984 . S
H306 N294 0.983 1_655 S
H307 N294 0.986 . S
C308 C309 1.363 . S
C308 C314 1.379 1_655 S
C308 N316 1.356 . S
C309 C308 1.363 . S
C309 C315 1.363 . S
C310 C311 1.363 . S
C310 C315 1.379 1_455 S
C310 N317 1.356 . S
C311 C310 1.363 . S
C311 C314 1.363 . S
N312 C314 1.356 . S
N312 H324 0.984 . S
N312 H325 0.985 . S
N313 C315 1.356 . S
N313 H318 0.984 . S
N313 H319 0.985 . S
C314 C308 1.379 1_455 S
C314 C311 1.363 . S
C314 N312 1.356 . S
C315 C309 1.363 . S
C315 C310 1.379 1_655 S
C315 N313 1.356 . S
N316 C308 1.356 . S
N316 H322 0.984 . S
N316 H323 0.984 . S
N317 C310 1.356 . S
N317 H320 0.984 . S
N317 H321 0.985 . S
H318 N313 0.984 . S
H319 N313 0.985 . S
H320 N317 0.984 . S
H321 N317 0.985 . S
H322 N316 0.984 . S
H323 N316 0.984 . S
H324 N312 0.984 . S
H325 N312 0.985 . S
C326 C327 1.363 . S
C326 C332 1.379 1_545 S
C326 N334 1.356 . S
C327 C326 1.363 . S
C327 C333 1.363 . S
C328 C329 1.363 . S
C328 C333 1.379 1_565 S
C328 N335 1.356 . S
C329 C328 1.363 . S
C329 C332 1.363 . S
N330 C332 1.356 . S
N330 H342 0.984 . S
N330 H343 0.985 . S
N331 C333 1.356 . S
N331 H336 0.984 . S
N331 H337 0.985 . S
C332 C326 1.379 1_565 S
C332 C329 1.363 . S
C332 N330 1.356 . S
C333 C327 1.363 . S
C333 C328 1.379 1_545 S
C333 N331 1.356 . S
N334 C326 1.356 . S
N334 H340 0.984 . S
N334 H341 0.984 . S
N335 C328 1.356 . S
N335 H338 0.984 . S
N335 H339 0.985 . S
H336 N331 0.984 . S
H337 N331 0.985 . S
H338 N335 0.984 . S
H339 N335 0.985 . S
H340 N334 0.984 . S
H341 N334 0.984 . S
H342 N330 0.984 . S
H343 N330 0.985 . S
C344 C345 1.363 1_565 S
C344 C350 1.379 1_455 S
C344 N352 1.356 . S
C345 C344 1.363 1_545 S
C345 C351 1.363 . S
C346 C347 1.363 1_545 S
C346 C351 1.379 1_655 S
C346 N353 1.356 . S
C347 C346 1.363 1_565 S
C347 C350 1.363 . S
N348 C350 1.356 . S
N348 H360 0.984 . S
N348 H361 0.985 . S
N349 C351 1.356 . S
N349 H354 0.984 . S
N349 H355 0.985 . S
C350 C344 1.379 1_655 S
C350 C347 1.363 . S
C350 N348 1.356 . S
C351 C345 1.363 . S
C351 C346 1.379 1_455 S
C351 N349 1.356 . S
N352 C344 1.356 . S
N352 H358 0.984 . S
N352 H359 0.984 1_565 S
N353 C346 1.356 . S
N353 H356 0.984 1_545 S
N353 H357 0.985 . S
H354 N349 0.984 . S
H355 N349 0.985 . S
H356 N353 0.984 1_565 S
H357 N353 0.985 . S
H358 N352 0.984 . S
H359 N352 0.984 1_545 S
H360 N348 0.984 . S
H361 N348 0.985 . S
C362 C363 1.363 1_455 S
C362 C368 1.379 1_545 S
C362 N370 1.356 . S
C363 C362 1.363 1_655 S
C363 C369 1.363 . S
C364 C365 1.363 1_655 S
C364 C369 1.379 1_565 S
C364 N371 1.356 . S
C365 C364 1.363 1_455 S
C365 C368 1.363 . S
N366 C368 1.356 . S
N366 H378 0.984 . S
N366 H379 0.985 . S
N367 C369 1.356 . S
N367 H372 0.984 . S
N367 H373 0.985 . S
C368 C362 1.379 1_565 S
C368 C365 1.363 . S
C368 N366 1.356 . S
C369 C363 1.363 . S
C369 C364 1.379 1_545 S
C369 N367 1.356 . S
N370 C362 1.356 . S
N370 H376 0.984 . S
N370 H377 0.984 1_455 S
N371 C364 1.356 . S
N371 H374 0.984 1_655 S
N371 H375 0.985 . S
H372 N367 0.984 . S
H373 N367 0.985 . S
H374 N371 0.984 1_455 S
H375 N371 0.985 . S
H376 N370 0.984 . S
H377 N370 0.984 1_655 S
H378 N366 0.984 . S
H379 N366 0.985 . S
C380 C381 1.363 . S
C380 C386 1.379 . S
C380 N388 1.356 . S
C381 C380 1.363 . S
C381 C387 1.363 . S
C382 C383 1.363 . S
C382 C387 1.379 . S
C382 N389 1.356 . S
C383 C382 1.363 . S
C383 C386 1.363 . S
N384 C386 1.356 . S
N384 H396 0.984 . S
N384 H397 0.985 . S
N385 C387 1.356 . S
N385 H390 0.984 . S
N385 H391 0.985 . S
C386 C380 1.379 . S
C386 C383 1.363 . S
C386 N384 1.356 . S
C387 C381 1.363 . S
C387 C382 1.379 . S
C387 N385 1.356 . S
N388 C380 1.356 . S
N388 H394 0.984 . S
N388 H395 0.984 . S
N389 C382 1.356 . S
N389 H392 0.984 . S
N389 H393 0.985 . S
H390 N385 0.984 . S
H391 N385 0.985 . S
H392 N389 0.984 . S
H393 N389 0.985 . S
H394 N388 0.984 . S
H395 N388 0.984 . S
H396 N384 0.984 . S
H397 N384 0.985 . S
C398 C399 1.363 . S
C398 C404 1.379 . S
C398 N406 1.356 . S
C399 C398 1.363 . S
C399 C405 1.363 . S
C400 C401 1.363 . S
C400 C405 1.379 . S
C400 N407 1.356 . S
C401 C400 1.363 . S
C401 C404 1.363 . S
N402 C404 1.356 . S
N402 H414 0.984 . S
N402 H415 0.985 . S
N403 C405 1.356 . S
N403 H408 0.984 . S
N403 H409 0.985 . S
C404 C398 1.379 . S
C404 C401 1.363 . S
C404 N402 1.356 . S
C405 C399 1.363 . S
C405 C400 1.379 . S
C405 N403 1.356 . S
N406 C398 1.356 . S
N406 H412 0.984 . S
N406 H413 0.984 . S
N407 C400 1.356 . S
N407 H410 0.984 . S
N407 H411 0.985 . S
H408 N403 0.984 . S
H409 N403 0.985 . S
H410 N407 0.984 . S
H411 N407 0.985 . S
H412 N406 0.984 . S
H413 N406 0.984 . S
H414 N402 0.984 . S
H415 N402 0.985 . S
C416 C417 1.363 . S
C416 C422 1.379 . S
C416 N424 1.356 . S
C417 C416 1.363 . S
C417 C423 1.363 . S
C418 C419 1.363 . S
C418 C423 1.379 . S
C418 N425 1.356 . S
C419 C418 1.363 . S
C419 C422 1.363 . S
N420 C422 1.356 . S
N420 H432 0.984 . S
N420 H433 0.985 . S
N421 C423 1.356 . S
N421 H426 0.984 . S
N421 H427 0.985 . S
C422 C416 1.379 . S
C422 C419 1.363 . S
C422 N420 1.356 . S
C423 C417 1.363 . S
C423 C418 1.379 . S
C423 N421 1.356 . S
N424 C416 1.356 . S
N424 H430 0.984 . S
N424 H431 0.984 . S
N425 C418 1.356 . S
N425 H428 0.984 . S
N425 H429 0.985 . S
H426 N421 0.984 . S
H427 N421 0.985 . S
H428 N425 0.984 . S
H429 N425 0.985 . S
H430 N424 0.984 . S
H431 N424 0.984 . S
H432 N420 0.984 . S
H433 N420 0.985 . S
C434 C435 1.363 . S
C434 C440 1.379 . S
C434 N442 1.356 . S
C435 C434 1.363 . S
C435 C441 1.363 . S
C436 C437 1.363 . S
C436 C441 1.379 . S
C436 N443 1.356 . S
C437 C436 1.363 . S
C437 C440 1.363 . S
N438 C440 1.356 . S
N438 H450 0.984 . S
N438 H451 0.985 . S
N439 C441 1.356 . S
N439 H444 0.984 . S
N439 H445 0.985 . S
C440 C434 1.379 . S
C440 C437 1.363 . S
C440 N438 1.356 . S
C441 C435 1.363 . S
C441 C436 1.379 . S
C441 N439 1.356 . S
N442 C434 1.356 . S
N442 H448 0.984 . S
N442 H449 0.984 . S
N443 C436 1.356 . S
N443 H446 0.984 . S
N443 H447 0.985 . S
H444 N439 0.984 . S
H445 N439 0.985 . S
H446 N443 0.984 . S
H447 N443 0.985 . S
H448 N442 0.984 . S
H449 N442 0.984 . S
H450 N438 0.984 . S
H451 N438 0.985 . S
C452 C453 1.363 . S
C452 C458 1.379 . S
C452 N460 1.356 . S
C453 C452 1.363 . S
C453 C459 1.363 . S
C454 C455 1.363 . S
C454 C459 1.379 . S
C454 N461 1.356 . S
C455 C454 1.363 . S
C455 C458 1.363 . S
N456 C458 1.356 . S
N456 H468 0.984 . S
N456 H469 0.985 . S
N457 C459 1.356 . S
N457 H462 0.984 . S
N457 H463 0.985 . S
C458 C452 1.379 . S
C458 C455 1.363 . S
C458 N456 1.356 . S
C459 C453 1.363 . S
C459 C454 1.379 . S
C459 N457 1.356 . S
N460 C452 1.356 . S
N460 H466 0.984 . S
N460 H467 0.984 . S
N461 C454 1.356 . S
N461 H464 0.984 . S
N461 H465 0.985 . S
H462 N457 0.984 . S
H463 N457 0.985 . S
H464 N461 0.984 . S
H465 N461 0.985 . S
H466 N460 0.984 . S
H467 N460 0.984 . S
H468 N456 0.984 . S
H469 N456 0.985 . S
C470 C471 1.363 . S
C470 C476 1.379 . S
C470 N478 1.356 . S
C471 C470 1.363 . S
C471 C477 1.363 . S
C472 C473 1.363 . S
C472 C477 1.379 . S
C472 N479 1.356 . S
C473 C472 1.363 . S
C473 C476 1.363 . S
N474 C476 1.356 . S
N474 H486 0.984 . S
N474 H487 0.985 . S
N475 C477 1.356 . S
N475 H480 0.984 . S
N475 H481 0.985 . S
C476 C470 1.379 . S
C476 C473 1.363 . S
C476 N474 1.356 . S
C477 C471 1.363 . S
C477 C472 1.379 . S
C477 N475 1.356 . S
N478 C470 1.356 . S
N478 H484 0.984 . S
N478 H485 0.984 . S
N479 C472 1.356 . S
N479 H482 0.984 . S
N479 H483 0.985 . S
H480 N475 0.984 . S
H481 N475 0.985 . S
H482 N479 0.984 . S
H483 N479 0.985 . S
H484 N478 0.984 . S
H485 N478 0.984 . S
H486 N474 0.984 . S
H487 N474 0.985 . S
C488 C489 1.363 . S
C488 C494 1.379 . S
C488 N496 1.356 . S
C489 C488 1.363 . S
C489 C495 1.363 . S
C490 C491 1.363 . S
C490 C495 1.379 . S
C490 N497 1.356 . S
C491 C490 1.363 . S
C491 C494 1.363 . S
N492 C494 1.356 . S
N492 H504 0.984 . S
N492 H505 0.985 . S
N493 C495 1.356 . S
N493 H498 0.984 . S
N493 H499 0.985 . S
C494 C488 1.379 . S
C494 C491 1.363 . S
C494 N492 1.356 . S
C495 C489 1.363 . S
C495 C490 1.379 . S
C495 N493 1.356 . S
N496 C488 1.356 . S
N496 H502 0.984 . S
N496 H503 0.984 . S
N497 C490 1.356 . S
N497 H500 0.984 . S
N497 H501 0.985 . S
H498 N493 0.984 . S
H499 N493 0.985 . S
H500 N497 0.984 . S
H501 N497 0.985 . S
H502 N496 0.984 . S
H503 N496 0.984 . S
H504 N492 0.984 . S
H505 N492 0.985 . S
C506 C507 1.363 . S
C506 C512 1.379 . S
C506 N514 1.356 . S
C507 C506 1.363 . S
C507 C513 1.363 . S
C508 C509 1.363 . S
C508 C513 1.379 . S
C508 N515 1.356 . S
C509 C508 1.363 . S
C509 C512 1.363 . S
N510 C512 1.356 . S
N510 H522 0.984 . S
N510 H523 0.985 . S
N511 C513 1.356 . S
N511 H516 0.984 . S
N511 H517 0.985 . S
C512 C506 1.379 . S
C512 C509 1.363 . S
C512 N510 1.356 . S
C513 C507 1.363 . S
C513 C508 1.379 . S
C513 N511 1.356 . S
N514 C506 1.356 . S
N514 H520 0.984 . S
N514 H521 0.984 . S
N515 C508 1.356 . S
N515 H518 0.984 1_655 S
N515 H519 0.985 . S
H516 N511 0.984 . S
H517 N511 0.985 . S
H518 N515 0.984 1_455 S
H519 N515 0.985 . S
H520 N514 0.984 . S
H521 N514 0.984 . S
H522 N510 0.984 . S
H523 N510 0.985 . S
C524 C525 1.363 . S
C524 C530 1.379 . S
C524 N532 1.356 . S
C525 C524 1.363 . S
C525 C531 1.363 . S
C526 C527 1.363 . S
C526 C531 1.379 . S
C526 N533 1.356 . S
C527 C526 1.363 . S
C527 C530 1.363 . S
N528 C530 1.356 . S
N528 H540 0.984 . S
N528 H541 0.985 . S
N529 C531 1.356 . S
N529 H534 0.984 . S
N529 H535 0.985 . S
C530 C524 1.379 . S
C530 C527 1.363 . S
C530 N528 1.356 . S
C531 C525 1.363 . S
C531 C526 1.379 . S
C531 N529 1.356 . S
N532 C524 1.356 . S
N532 H538 0.984 . S
N532 H539 0.984 1_545 S
N533 C526 1.356 . S
N533 H536 0.984 . S
N533 H537 0.985 . S
H534 N529 0.984 . S
H535 N529 0.985 . S
H536 N533 0.984 . S
H537 N533 0.985 . S
H538 N532 0.984 . S
H539 N532 0.984 1_565 S
H540 N528 0.984 . S
H541 N528 0.985 . S
C542 C543 1.363 . S
C542 C548 1.379 . S
C542 N550 1.356 . S
C543 C542 1.363 . S
C543 C549 1.363 . S
C544 C545 1.363 . S
C544 C549 1.379 . S
C544 N551 1.356 . S
C545 C544 1.363 . S
C545 C548 1.363 . S
N546 C548 1.356 . S
N546 H558 0.984 . S
N546 H559 0.985 1_455 S
N547 C549 1.356 . S
N547 H552 0.984 . S
N547 H553 0.985 . S
C548 C542 1.379 . S
C548 C545 1.363 . S
C548 N546 1.356 . S
C549 C543 1.363 . S
C549 C544 1.379 . S
C549 N547 1.356 . S
N550 C542 1.356 . S
N550 H556 0.984 . S
N550 H557 0.984 . S
N551 C544 1.356 . S
N551 H554 0.984 . S
N551 H555 0.985 . S
H552 N547 0.984 . S
H553 N547 0.985 . S
H554 N551 0.984 . S
H555 N551 0.985 . S
H556 N550 0.984 . S
H557 N550 0.984 . S
H558 N546 0.984 . S
H559 N546 0.985 1_655 S
C560 C561 1.363 . S
C560 C566 1.379 1_554 S
C560 N568 1.356 . S
C561 C560 1.363 . S
C561 C567 1.363 . S
C562 C563 1.363 1_554 S
C562 C567 1.379 . S
C562 N569 1.356 . S
C563 C562 1.363 1_556 S
C563 C566 1.363 . S
N564 C566 1.356 . S
N564 H576 0.984 . S
N564 H577 0.985 . S
N565 C567 1.356 . S
N565 H570 0.984 . S
N565 H571 0.985 . S
C566 C560 1.379 1_556 S
C566 C563 1.363 . S
C566 N564 1.356 . S
C567 C561 1.363 . S
C567 C562 1.379 . S
C567 N565 1.356 . S
N568 C560 1.356 . S
N568 H574 0.984 1_554 S
N568 H575 0.984 . S
N569 C562 1.356 . S
N569 H572 0.984 . S
N569 H573 0.985 . S
H570 N565 0.984 . S
H571 N565 0.985 . S
H572 N569 0.984 . S
H573 N569 0.985 . S
H574 N568 0.984 1_556 S
H575 N568 0.984 . S
H576 N564 0.984 . S
H577 N564 0.985 . S
C578 C579 1.363 . S
C578 C584 1.379 . S
C578 N586 1.356 . S
C579 C578 1.363 . S
C579 C585 1.363 . S
C580 C581 1.363 . S
C580 C585 1.379 1_554 S
C580 N587 1.356 . S
C581 C580 1.363 . S
C581 C584 1.363 1_554 S
N582 C584 1.356 . S
N582 H594 0.984 . S
N582 H595 0.985 1_556 S
N583 C585 1.356 . S
N583 H588 0.984 . S
N583 H589 0.985 . S
C584 C578 1.379 . S
C584 C581 1.363 1_556 S
C584 N582 1.356 . S
C585 C579 1.363 . S
C585 C580 1.379 1_556 S
C585 N583 1.356 . S
N586 C578 1.356 . S
N586 H592 0.984 . S
N586 H593 0.984 . S
N587 C580 1.356 . S
N587 H590 0.984 . S
N587 H591 0.985 . S
H588 N583 0.984 . S
H589 N583 0.985 . S
H590 N587 0.984 . S
H591 N587 0.985 . S
H592 N586 0.984 . S
H593 N586 0.984 . S
H594 N582 0.984 . S
H595 N582 0.985 1_554 S
C596 C597 1.363 . S
C596 C602 1.379 . S
C596 N604 1.356 . S
C597 C596 1.363 . S
C597 C603 1.363 . S
C598 C599 1.363 . S
C598 C603 1.379 1_556 S
C598 N605 1.356 . S
C599 C598 1.363 . S
C599 C602 1.363 1_556 S
N600 C602 1.356 . S
N600 H612 0.984 . S
N600 H613 0.985 1_554 S
N601 C603 1.356 . S
N601 H606 0.984 . S
N601 H607 0.985 . S
C602 C596 1.379 . S
C602 C599 1.363 1_554 S
C602 N600 1.356 . S
C603 C597 1.363 . S
C603 C598 1.379 1_554 S
C603 N601 1.356 . S
N604 C596 1.356 . S
N604 H610 0.984 . S
N604 H611 0.984 . S
N605 C598 1.356 . S
N605 H608 0.984 . S
N605 H609 0.985 . S
H606 N601 0.984 . S
H607 N601 0.985 . S
H608 N605 0.984 . S
H609 N605 0.985 . S
H610 N604 0.984 . S
H611 N604 0.984 . S
H612 N600 0.984 . S
H613 N600 0.985 1_556 S
C614 C615 1.363 . S
C614 C620 1.379 . S
C614 N622 1.356 . S
C615 C614 1.363 . S
C615 C621 1.363 . S
C616 C617 1.364 . S
C616 C621 1.354 1_554 S
C616 N623 1.385 . S
C617 C616 1.364 . S
C617 C620 1.363 1_554 S
N618 C620 1.356 . S
N618 H630 0.984 . S
N618 H631 0.985 1_556 S
N619 C621 1.356 . S
N619 H624 0.984 . S
N619 H625 0.985 . S
C620 C614 1.379 . S
C620 C617 1.363 1_556 S
C620 N618 1.356 . S
C621 C615 1.363 . S
C621 C616 1.354 1_556 S
C621 N619 1.356 . S
N622 C614 1.356 . S
N622 H628 0.984 . S
N622 H629 0.984 . S
N623 C616 1.385 . S
N623 H626 0.984 . S
N623 H627 0.985 . S
H624 N619 0.984 . S
H625 N619 0.985 . S
H626 N623 0.984 . S
H627 N623 0.985 . S
H628 N622 0.984 . S
H629 N622 0.984 . S
H630 N618 0.984 . S
H631 N618 0.985 1_554 S
C273 C88 1.287 . S
C275 C20 1.287 . S
C291 C122 1.287 . S
C293 C54 1.287 . S
C309 C224 1.287 . S
C311 C156 1.287 . S
C327 C258 1.287 . S
C329 C190 1.287 . S
C345 C2 1.511 . S
C347 C70 1.511 . S
C363 C104 1.511 . S
C365 C36 1.511 . S
C381 C206 1.511 . S
C383 C138 1.511 . S
C399 C240 1.511 . S
C401 C172 1.511 . S
C417 C247 1.546 . S
C419 C9 1.546 . S
C435 C145 1.546 . S
C437 C43 1.546 . S
C453 C77 1.546 . S
C455 C179 1.546 . S
C471 C213 1.546 . S
C473 C111 1.546 . S
C489 C67 0.838 . S
C491 C5 0.871 . S
C507 C101 0.838 . S
C509 C39 0.871 . S
C525 C73 0.871 . S
C527 C135 0.838 . S
C543 C33 0.838 . S
C545 C107 0.871 . S
C561 C271 0.838 . S
C563 C141 0.871 . S
C579 C169 0.838 . S
C581 C175 0.871 . S
C597 C203 0.838 . S
C599 C209 0.871 . S
C615 C237 0.838 . S
C617 C243 0.871 . S
