# Generated by pormake.
# Topology pem, (4)-cn, num edge types: 1
# Building blocks:
#     Node 0, Type 0, BuildingBlock: CEKHIL_clean_sbu_0, # of connection points: 4
#     Node 1, Type 0, BuildingBlock: CEKHIL_clean_sbu_0, # of connection points: 4
#     Node 2, Type 0, BuildingBlock: CEKHIL_clean_sbu_0, # of connection points: 4
#     Node 3, Type 0, BuildingBlock: CEKHIL_clean_sbu_0, # of connection points: 4
#     Node 4, Type 0, BuildingBlock: CEKHIL_clean_sbu_0, # of connection points: 4
#     Node 5, Type 0, BuildingBlock: CEKHIL_clean_sbu_0, # of connection points: 4
#     Node 6, Type 0, BuildingBlock: CEKHIL_clean_sbu_0, # of connection points: 4
#     Node 7, Type 0, BuildingBlock: CEKHIL_clean_sbu_0, # of connection points: 4
#     Node 8, Type 0, BuildingBlock: CEKHIL_clean_sbu_0, # of connection points: 4
#     Node 9, Type 0, BuildingBlock: CEKHIL_clean_sbu_0, # of connection points: 4
#     Node 10, Type 0, BuildingBlock: CEKHIL_clean_sbu_0, # of connection points: 4
#     Node 11, Type 0, BuildingBlock: CEKHIL_clean_sbu_0, # of connection points: 4
#     Node 12, Type 0, BuildingBlock: CEKHIL_clean_sbu_0, # of connection points: 4
#     Node 13, Type 0, BuildingBlock: CEKHIL_clean_sbu_0, # of connection points: 4
#     Node 14, Type 0, BuildingBlock: CEKHIL_clean_sbu_0, # of connection points: 4
#     Node 15, Type 0, BuildingBlock: CEKHIL_clean_sbu_0, # of connection points: 4
#     Node 16, Type 0, BuildingBlock: CEKHIL_clean_sbu_0, # of connection points: 4
#     Node 17, Type 0, BuildingBlock: CEKHIL_clean_sbu_0, # of connection points: 4
#     Node 18, Type 0, BuildingBlock: CEKHIL_clean_sbu_0, # of connection points: 4
#     Node 19, Type 0, BuildingBlock: CEKHIL_clean_sbu_0, # of connection points: 4
#     Node 20, Type 0, BuildingBlock: CEKHIL_clean_sbu_0, # of connection points: 4
#     Node 21, Type 0, BuildingBlock: CEKHIL_clean_sbu_0, # of connection points: 4
#     Node 22, Type 0, BuildingBlock: CEKHIL_clean_sbu_0, # of connection points: 4
#     Node 23, Type 0, BuildingBlock: CEKHIL_clean_sbu_0, # of connection points: 4
#     Node 24, Type 0, BuildingBlock: CEKHIL_clean_sbu_0, # of connection points: 4
#     Node 25, Type 0, BuildingBlock: CEKHIL_clean_sbu_0, # of connection points: 4
#     Node 26, Type 0, BuildingBlock: CEKHIL_clean_sbu_0, # of connection points: 4
#     Node 27, Type 0, BuildingBlock: CEKHIL_clean_sbu_0, # of connection points: 4
#     Node 28, Type 0, BuildingBlock: CEKHIL_clean_sbu_0, # of connection points: 4
#     Node 29, Type 0, BuildingBlock: CEKHIL_clean_sbu_0, # of connection points: 4
#     Node 30, Type 0, BuildingBlock: CEKHIL_clean_sbu_0, # of connection points: 4
#     Node 31, Type 0, BuildingBlock: CEKHIL_clean_sbu_0, # of connection points: 4
#     Edge 32, Type (0, 0), BuildingBlock: KIFKEQ_clean_linker_1, # of connection points: 2
#     Edge 33, Type (0, 0), BuildingBlock: KIFKEQ_clean_linker_1, # of connection points: 2
#     Edge 34, Type (0, 0), BuildingBlock: KIFKEQ_clean_linker_1, # of connection points: 2
#     Edge 35, Type (0, 0), BuildingBlock: KIFKEQ_clean_linker_1, # of connection points: 2
#     Edge 36, Type (0, 0), BuildingBlock: KIFKEQ_clean_linker_1, # of connection points: 2
#     Edge 37, Type (0, 0), BuildingBlock: KIFKEQ_clean_linker_1, # of connection points: 2
#     Edge 38, Type (0, 0), BuildingBlock: KIFKEQ_clean_linker_1, # of connection points: 2
#     Edge 39, Type (0, 0), BuildingBlock: KIFKEQ_clean_linker_1, # of connection points: 2
#     Edge 40, Type (0, 0), BuildingBlock: KIFKEQ_clean_linker_1, # of connection points: 2
#     Edge 41, Type (0, 0), BuildingBlock: KIFKEQ_clean_linker_1, # of connection points: 2
#     Edge 42, Type (0, 0), BuildingBlock: KIFKEQ_clean_linker_1, # of connection points: 2
#     Edge 43, Type (0, 0), BuildingBlock: KIFKEQ_clean_linker_1, # of connection points: 2
#     Edge 44, Type (0, 0), BuildingBlock: KIFKEQ_clean_linker_1, # of connection points: 2
#     Edge 45, Type (0, 0), BuildingBlock: KIFKEQ_clean_linker_1, # of connection points: 2
#     Edge 46, Type (0, 0), BuildingBlock: KIFKEQ_clean_linker_1, # of connection points: 2
#     Edge 47, Type (0, 0), BuildingBlock: KIFKEQ_clean_linker_1, # of connection points: 2
#     Edge 48, Type (0, 0), BuildingBlock: KIFKEQ_clean_linker_1, # of connection points: 2
#     Edge 49, Type (0, 0), BuildingBlock: KIFKEQ_clean_linker_1, # of connection points: 2
#     Edge 50, Type (0, 0), BuildingBlock: KIFKEQ_clean_linker_1, # of connection points: 2
#     Edge 51, Type (0, 0), BuildingBlock: KIFKEQ_clean_linker_1, # of connection points: 2
#     Edge 52, Type (0, 0), BuildingBlock: KIFKEQ_clean_linker_1, # of connection points: 2
#     Edge 53, Type (0, 0), BuildingBlock: KIFKEQ_clean_linker_1, # of connection points: 2
#     Edge 54, Type (0, 0), BuildingBlock: KIFKEQ_clean_linker_1, # of connection points: 2
#     Edge 55, Type (0, 0), BuildingBlock: KIFKEQ_clean_linker_1, # of connection points: 2
#     Edge 56, Type (0, 0), BuildingBlock: KIFKEQ_clean_linker_1, # of connection points: 2
#     Edge 57, Type (0, 0), BuildingBlock: KIFKEQ_clean_linker_1, # of connection points: 2
#     Edge 58, Type (0, 0), BuildingBlock: KIFKEQ_clean_linker_1, # of connection points: 2
#     Edge 59, Type (0, 0), BuildingBlock: KIFKEQ_clean_linker_1, # of connection points: 2
#     Edge 60, Type (0, 0), BuildingBlock: KIFKEQ_clean_linker_1, # of connection points: 2
#     Edge 61, Type (0, 0), BuildingBlock: KIFKEQ_clean_linker_1, # of connection points: 2
#     Edge 62, Type (0, 0), BuildingBlock: KIFKEQ_clean_linker_1, # of connection points: 2
#     Edge 63, Type (0, 0), BuildingBlock: KIFKEQ_clean_linker_1, # of connection points: 2
#     Edge 64, Type (0, 0), BuildingBlock: KIFKEQ_clean_linker_1, # of connection points: 2
#     Edge 65, Type (0, 0), BuildingBlock: KIFKEQ_clean_linker_1, # of connection points: 2
#     Edge 66, Type (0, 0), BuildingBlock: KIFKEQ_clean_linker_1, # of connection points: 2
#     Edge 67, Type (0, 0), BuildingBlock: KIFKEQ_clean_linker_1, # of connection points: 2
#     Edge 68, Type (0, 0), BuildingBlock: KIFKEQ_clean_linker_1, # of connection points: 2
#     Edge 69, Type (0, 0), BuildingBlock: KIFKEQ_clean_linker_1, # of connection points: 2
#     Edge 70, Type (0, 0), BuildingBlock: KIFKEQ_clean_linker_1, # of connection points: 2
#     Edge 71, Type (0, 0), BuildingBlock: KIFKEQ_clean_linker_1, # of connection points: 2
#     Edge 72, Type (0, 0), BuildingBlock: KIFKEQ_clean_linker_1, # of connection points: 2
#     Edge 73, Type (0, 0), BuildingBlock: KIFKEQ_clean_linker_1, # of connection points: 2
#     Edge 74, Type (0, 0), BuildingBlock: KIFKEQ_clean_linker_1, # of connection points: 2
#     Edge 75, Type (0, 0), BuildingBlock: KIFKEQ_clean_linker_1, # of connection points: 2
#     Edge 76, Type (0, 0), BuildingBlock: KIFKEQ_clean_linker_1, # of connection points: 2
#     Edge 77, Type (0, 0), BuildingBlock: KIFKEQ_clean_linker_1, # of connection points: 2
#     Edge 78, Type (0, 0), BuildingBlock: KIFKEQ_clean_linker_1, # of connection points: 2
#     Edge 79, Type (0, 0), BuildingBlock: KIFKEQ_clean_linker_1, # of connection points: 2
#     Edge 80, Type (0, 0), BuildingBlock: KIFKEQ_clean_linker_1, # of connection points: 2
#     Edge 81, Type (0, 0), BuildingBlock: KIFKEQ_clean_linker_1, # of connection points: 2
#     Edge 82, Type (0, 0), BuildingBlock: KIFKEQ_clean_linker_1, # of connection points: 2
#     Edge 83, Type (0, 0), BuildingBlock: KIFKEQ_clean_linker_1, # of connection points: 2
#     Edge 84, Type (0, 0), BuildingBlock: KIFKEQ_clean_linker_1, # of connection points: 2
#     Edge 85, Type (0, 0), BuildingBlock: KIFKEQ_clean_linker_1, # of connection points: 2
#     Edge 86, Type (0, 0), BuildingBlock: KIFKEQ_clean_linker_1, # of connection points: 2
#     Edge 87, Type (0, 0), BuildingBlock: KIFKEQ_clean_linker_1, # of connection points: 2
#     Edge 88, Type (0, 0), BuildingBlock: KIFKEQ_clean_linker_1, # of connection points: 2
#     Edge 89, Type (0, 0), BuildingBlock: KIFKEQ_clean_linker_1, # of connection points: 2
#     Edge 90, Type (0, 0), BuildingBlock: KIFKEQ_clean_linker_1, # of connection points: 2
#     Edge 91, Type (0, 0), BuildingBlock: KIFKEQ_clean_linker_1, # of connection points: 2
#     Edge 92, Type (0, 0), BuildingBlock: KIFKEQ_clean_linker_1, # of connection points: 2
#     Edge 93, Type (0, 0), BuildingBlock: KIFKEQ_clean_linker_1, # of connection points: 2
#     Edge 94, Type (0, 0), BuildingBlock: KIFKEQ_clean_linker_1, # of connection points: 2
#     Edge 95, Type (0, 0), BuildingBlock: KIFKEQ_clean_linker_1, # of connection points: 2
# Relax obj value: 0.211
# Max RMSD: 0.173
# Mean RMSD: 0.151
data_MOF--net-pem--node1-CEKHIL_clean_sbu_0--edge1-KIFKEQ_clean_linker_1
_symmetry_space_group_name_H-M    P1
_symmetry_Int_Tables_number       1
_symmetry_cell_setting            triclinic
loop_
_symmetry_equiv_pos_as_xyz
'x, y, z'
_cell_length_a     46.477197
_cell_length_b     39.255252
_cell_length_c     39.264463
_cell_angle_alpha  93.696006
_cell_angle_beta   91.562588
_cell_angle_gamma 91.616152
loop_
_atom_site_label
_atom_site_type_symbol
_atom_site_fract_x
_atom_site_fract_y
_atom_site_fract_z
_atom_type_partial_charge
Co0 Co 0.09847 0.0971 0.12869 0.0
O1 O 0.1315 0.07357 0.10987 0.0
O2 O 0.1259 0.12882 0.10923 0.0
C3 C 0.09879 0.06458 0.17604 0.0
O4 O 0.0671 0.13232 0.14438 0.0
Co5 Co 0.04154 0.06109 0.14268 0.0
O6 O 0.02532 0.106 0.15616 0.0
C7 C 0.06657 0.06088 0.07463 0.0
C8 C 0.14117 0.10261 0.10027 0.0
C9 C 0.04023 0.13326 0.15313 0.0
O10 O 0.07873 0.08968 0.08354 0.0
O11 O 0.05316 0.04308 0.09571 0.0
O12 O 0.11466 0.09245 0.17523 0.0
O13 O 0.08292 0.05799 0.14897 0.0
Co14 Co 0.20316 0.84884 0.38412 0.0
O15 O 0.22402 0.83084 0.42305 0.0
O16 O 0.22526 0.88481 0.41243 0.0
C17 C 0.16086 0.818 0.38824 0.0
O18 O 0.18442 0.87718 0.34631 0.0
Co19 Co 0.18285 0.8004 0.32099 0.0
O20 O 0.16431 0.84141 0.30424 0.0
C21 C 0.24343 0.81037 0.34395 0.0
C22 C 0.23502 0.86115 0.43112 0.0
C23 C 0.16926 0.87139 0.31799 0.0
O24 O 0.23764 0.84017 0.35648 0.0
O25 O 0.22401 0.78886 0.33169 0.0
O26 O 0.16602 0.84621 0.40707 0.0
O27 O 0.18195 0.8084 0.37002 0.0
Co28 Co 0.45066 0.89595 0.63943 0.0
O29 O 0.41808 0.91911 0.61844 0.0
O30 O 0.43123 0.86847 0.60081 0.0
C31 C 0.43934 0.908 0.6971 0.0
O32 O 0.48171 0.86095 0.65082 0.0
Co33 Co 0.49877 0.92823 0.6877 0.0
O34 O 0.51386 0.8818 0.69096 0.0
C35 C 0.49018 0.94909 0.61704 0.0
C36 C 0.41319 0.89267 0.59726 0.0
C37 C 0.50391 0.85736 0.67075 0.0
O38 O 0.47681 0.92047 0.60864 0.0
O39 O 0.4982 0.958 0.64788 0.0
O40 O 0.42739 0.88297 0.67825 0.0
O41 O 0.45724 0.92579 0.68051 0.0
Co42 Co 0.33864 0.1315 0.87163 0.0
O43 O 0.37197 0.15195 0.84938 0.0
O44 O 0.3583 0.16934 0.89991 0.0
C45 C 0.34875 0.07355 0.85947 0.0
O46 O 0.30685 0.12033 0.90581 0.0
Co47 Co 0.28994 0.08558 0.8375 0.0
O48 O 0.27487 0.0806 0.88371 0.0
C49 C 0.29907 0.15692 0.81916 0.0
C50 C 0.3767 0.17286 0.87606 0.0
C51 C 0.28462 0.10021 0.90869 0.0
O52 O 0.31383 0.16371 0.84712 0.0
O53 O 0.28942 0.12683 0.80965 0.0
O54 O 0.36075 0.0919 0.88483 0.0
O55 O 0.33168 0.09086 0.84125 0.0
Co56 Co 0.08175 0.8712 0.43314 0.0
O57 O 0.05863 0.83503 0.45269 0.0
O58 O 0.0591 0.84317 0.39803 0.0
C59 C 0.12331 0.86594 0.46558 0.0
O60 O 0.10257 0.90593 0.40259 0.0
Co61 Co 0.10486 0.93578 0.47753 0.0
O62 O 0.12355 0.94963 0.43544 0.0
C63 C 0.04364 0.91456 0.4696 0.0
C64 C 0.04791 0.82651 0.42232 0.0
C65 C 0.11825 0.93411 0.40632 0.0
O66 O 0.04871 0.90155 0.43978 0.0
O67 O 0.0637 0.92668 0.49031 0.0
O68 O 0.11733 0.84543 0.43886 0.0
O69 O 0.1031 0.88642 0.47305 0.0
Co70 Co 0.35458 0.85888 0.66249 0.0
O71 O 0.38792 0.84179 0.68732 0.0
O72 O 0.37484 0.82264 0.63578 0.0
C73 C 0.3623 0.91779 0.67542 0.0
O74 O 0.32139 0.86713 0.62808 0.0
Co75 Co 0.30572 0.89851 0.69937 0.0
O76 O 0.28783 0.89999 0.65298 0.0
C77 C 0.32417 0.83009 0.71594 0.0
C78 C 0.39268 0.82051 0.66158 0.0
C79 C 0.29755 0.88335 0.62702 0.0
O80 O 0.33107 0.82446 0.68482 0.0
O81 O 0.31619 0.85936 0.72789 0.0
O82 O 0.37529 0.90131 0.651 0.0
O83 O 0.34672 0.89788 0.69256 0.0
Co84 Co 0.4334 0.10571 0.91097 0.0
O85 O 0.39942 0.08125 0.92726 0.0
O86 O 0.41307 0.13238 0.94714 0.0
C87 C 0.42617 0.09331 0.85191 0.0
O88 O 0.46704 0.14 0.90357 0.0
Co89 Co 0.48245 0.06945 0.87103 0.0
O90 O 0.50033 0.11584 0.86982 0.0
C91 C 0.46364 0.05152 0.93906 0.0
C92 C 0.39481 0.10688 0.94875 0.0
C93 C 0.49077 0.14148 0.88712 0.0
O94 O 0.45626 0.0824 0.94543 0.0
O95 O 0.47187 0.04037 0.90963 0.0
O96 O 0.41332 0.11787 0.86837 0.0
O97 O 0.44144 0.07591 0.87182 0.0
Co98 Co 0.19509 0.12606 0.184 0.0
O99 O 0.16387 0.14736 0.20973 0.0
O100 O 0.16971 0.1516 0.15501 0.0
C101 C 0.19056 0.07623 0.21253 0.0
O102 O 0.22407 0.10985 0.14609 0.0
Co103 Co 0.25113 0.10097 0.21454 0.0
O104 O 0.26547 0.09133 0.16801 0.0
C105 C 0.22985 0.17049 0.226 0.0
C106 C 0.15503 0.16013 0.18174 0.0
C107 C 0.25006 0.09873 0.14241 0.0
O108 O 0.21948 0.16721 0.19551 0.0
O109 O 0.24145 0.14546 0.23994 0.0
O110 O 0.17453 0.08142 0.18562 0.0
O111 O 0.20943 0.10026 0.22017 0.0
Co112 Co 0.58587 0.38682 0.9228 0.0
O113 O 0.56505 0.34772 0.9406 0.0
O114 O 0.56371 0.35881 0.88675 0.0
C115 C 0.62825 0.38261 0.95328 0.0
O116 O 0.60453 0.4247 0.89454 0.0
Co117 Co 0.60627 0.44993 0.9713 0.0
O118 O 0.62469 0.46678 0.93026 0.0
C119 C 0.54603 0.42542 0.9625 0.0
C120 C 0.55404 0.33987 0.91027 0.0
C121 C 0.61971 0.45299 0.90031 0.0
O122 O 0.55155 0.41442 0.93209 0.0
O123 O 0.56562 0.43762 0.98379 0.0
O124 O 0.62293 0.36385 0.92507 0.0
O125 O 0.60723 0.40083 0.96312 0.0
Co126 Co 0.8525 0.36109 0.15968 0.0
O127 O 0.88578 0.3428 0.18339 0.0
O128 O 0.87153 0.32464 0.13195 0.0
C129 C 0.86215 0.41872 0.17453 0.0
O130 O 0.81898 0.37149 0.12598 0.0
Co131 Co 0.80476 0.40233 0.19754 0.0
O132 O 0.78679 0.40583 0.15163 0.0
C133 C 0.82363 0.33405 0.2141 0.0
C134 C 0.88983 0.32184 0.15717 0.0
C135 C 0.79573 0.38906 0.12532 0.0
O136 O 0.82847 0.32757 0.18243 0.0
O137 O 0.81619 0.3636 0.22589 0.0
O138 O 0.87453 0.40294 0.14916 0.0
O139 O 0.84578 0.39906 0.19085 0.0
Co140 Co 0.93701 0.6101 0.40844 0.0
O141 O 0.90351 0.58669 0.42711 0.0
O142 O 0.91897 0.63753 0.44573 0.0
C143 C 0.92637 0.5963 0.35082 0.0
O144 O 0.9706 0.64401 0.39825 0.0
Co145 Co 0.98417 0.57417 0.36449 0.0
O146 O 1.00186 0.62022 0.36152 0.0
C147 C 0.96656 0.5545 0.43251 0.0
C148 C 0.90024 0.61276 0.44856 0.0
C149 C 0.99331 0.64572 0.37981 0.0
O150 O 0.96123 0.58579 0.44074 0.0
O151 O 0.9738 0.54439 0.40237 0.0
O152 O 0.91444 0.62161 0.3673 0.0
O153 O 0.94314 0.5797 0.36969 0.0
Co154 Co 0.83181 0.62181 0.38258 0.0
O155 O 0.86379 0.64466 0.36064 0.0
O156 O 0.84963 0.66026 0.41161 0.0
C157 C 0.84621 0.56633 0.3677 0.0
O158 O 0.80028 0.60707 0.41598 0.0
Co159 Co 0.7866 0.57187 0.34658 0.0
O160 O 0.76975 0.56669 0.39182 0.0
C161 C 0.79084 0.64458 0.33089 0.0
C162 C 0.86769 0.66529 0.38766 0.0
C163 C 0.77824 0.58626 0.41747 0.0
O164 O 0.80452 0.65232 0.35941 0.0
O165 O 0.78479 0.61375 0.31977 0.0
O166 O 0.85675 0.58403 0.39436 0.0
O167 O 0.82753 0.58249 0.35071 0.0
Co168 Co 0.70575 0.33741 0.89909 0.0
O169 O 0.7291 0.31778 0.93498 0.0
O170 O 0.72831 0.37252 0.92723 0.0
C171 C 0.66434 0.30454 0.90437 0.0
O172 O 0.68477 0.36812 0.86471 0.0
Co173 Co 0.68239 0.29342 0.8343 0.0
O174 O 0.66379 0.33562 0.82077 0.0
C175 C 0.74366 0.30139 0.85547 0.0
C176 C 0.73969 0.34821 0.94363 0.0
C177 C 0.66912 0.36462 0.83652 0.0
O178 O 0.73869 0.3312 0.86854 0.0
O179 O 0.72354 0.28074 0.84337 0.0
O180 O 0.67032 0.33114 0.92503 0.0
O181 O 0.68448 0.29742 0.88366 0.0
Co182 Co 0.89604 0.94391 0.90662 0.0
O183 O 0.93121 0.94044 0.88122 0.0
O184 O 0.91093 0.89778 0.90643 0.0
C185 C 0.87417 0.9765 0.86739 0.0
O186 O 0.85988 0.93703 0.93585 0.0
Co187 Co 0.87539 0.01383 0.9353 0.0
O188 O 0.84539 0.98766 0.95827 0.0
C189 C 0.93216 0.98696 0.94928 0.0
C190 C 0.93251 0.90906 0.88947 0.0
C191 C 0.84326 0.95514 0.95541 0.0
O192 O 0.91964 0.95755 0.94802 0.0
O193 O 0.91864 0.0135 0.94164 0.0
O194 O 0.8732 0.94336 0.8634 0.0
O195 O 0.88806 0.9883 0.89454 0.0
Co196 Co 0.84197 0.1801 0.63968 0.0
O197 O 0.8646 0.16959 0.67985 0.0
O198 O 0.83525 0.13286 0.65044 0.0
C199 C 0.87894 0.20963 0.61655 0.0
O200 O 0.81405 0.17944 0.59716 0.0
Co201 Co 0.82832 0.25311 0.62089 0.0
O202 O 0.80201 0.23228 0.58461 0.0
C203 C 0.8171 0.2251 0.6869 0.0
C204 C 0.8528 0.13911 0.67654 0.0
C205 C 0.79909 0.19999 0.57963 0.0
O206 O 0.81161 0.19643 0.67036 0.0
O207 O 0.82637 0.25104 0.67186 0.0
O208 O 0.87638 0.17641 0.61256 0.0
O209 O 0.8593 0.22375 0.63448 0.0
Co210 Co 0.57231 0.13105 0.3805 0.0
O211 O 0.5349 0.1397 0.35924 0.0
O212 O 0.56242 0.17919 0.38714 0.0
C213 C 0.58729 0.09581 0.3355 0.0
O214 O 0.61231 0.13349 0.40609 0.0
Co215 Co 0.59324 0.05837 0.3953 0.0
O216 O 0.62988 0.08129 0.41198 0.0
C217 C 0.54642 0.09036 0.43413 0.0
C218 C 0.5383 0.17143 0.37053 0.0
C219 C 0.63216 0.11368 0.41661 0.0
O220 O 0.55299 0.12018 0.42419 0.0
O221 O 0.55745 0.06278 0.42214 0.0
O222 O 0.58997 0.12888 0.33435 0.0
O223 O 0.57546 0.08609 0.36242 0.0
Co224 Co 0.65524 0.84682 0.14658 0.0
O225 O 0.69119 0.87301 0.14388 0.0
O226 O 0.67257 0.83902 0.10184 0.0
C227 C 0.63218 0.89206 0.17325 0.0
O228 O 0.61858 0.81532 0.13828 0.0
Co229 Co 0.62585 0.83428 0.21464 0.0
O230 O 0.59483 0.8096 0.18675 0.0
C231 C 0.68174 0.80454 0.19774 0.0
C232 C 0.69344 0.85997 0.1129 0.0
C233 C 0.59732 0.80293 0.1548 0.0
O234 O 0.67725 0.80863 0.16579 0.0
O235 O 0.66564 0.81673 0.22118 0.0
O236 O 0.63322 0.88891 0.14012 0.0
O237 O 0.6444 0.86807 0.18837 0.0
Co238 Co 0.945 0.13928 0.57074 0.0
O239 O 0.91924 0.10211 0.58318 0.0
O240 O 0.94768 0.13256 0.61973 0.0
C241 C 0.91132 0.16116 0.5342 0.0
O242 O 0.97554 0.17901 0.57051 0.0
Co243 Co 0.96556 0.15057 0.499 0.0
O244 O 0.9911 0.18855 0.51836 0.0
C245 C 0.97069 0.08663 0.53335 0.0
C246 C 0.92961 0.10682 0.61429 0.0
C247 C 0.99215 0.19509 0.55053 0.0
O248 O 0.97442 0.10498 0.56124 0.0
O249 O 0.96437 0.09996 0.50531 0.0
O250 O 0.91255 0.16985 0.56663 0.0
O251 O 0.93106 0.14066 0.52459 0.0
Co252 Co 0.69118 0.16187 0.34439 0.0
O253 O 0.72805 0.14199 0.35384 0.0
O254 O 0.70118 0.16607 0.39334 0.0
C255 C 0.67598 0.11992 0.30426 0.0
O256 O 0.65175 0.18585 0.34274 0.0
Co257 Co 0.67991 0.18449 0.27004 0.0
O258 O 0.64219 0.19819 0.2881 0.0
C259 C 0.72813 0.20956 0.31513 0.0
C260 C 0.72565 0.15251 0.38552 0.0
C261 C 0.63539 0.19828 0.31941 0.0
O262 O 0.71162 0.20619 0.3401 0.0
O263 O 0.72068 0.19896 0.28456 0.0
O264 O 0.67269 0.11529 0.33657 0.0
O265 O 0.68937 0.1478 0.29853 0.0
Co266 Co 0.6398 0.91479 0.04969 0.0
O267 O 0.60585 0.90856 0.07627 0.0
O268 O 0.62572 0.86681 0.04621 0.0
C269 C 0.66249 0.95092 0.09112 0.0
O270 O 0.67532 0.91253 0.01835 0.0
Co271 Co 0.65447 0.98811 0.02829 0.0
O272 O 0.68583 0.96581 1.00306 0.0
C273 C 0.59987 0.95112 0.01233 0.0
C274 C 0.60443 0.87685 0.06501 0.0
C275 C 0.69039 0.93384 1.00148 0.0
O276 O 0.61434 0.92402 0.01036 0.0
O277 O 0.61149 0.97998 0.02276 0.0
O278 O 0.66433 0.91797 0.09183 0.0
O279 O 0.64676 0.96017 0.0662 0.0
Co280 Co 0.892 0.86907 0.80531 0.0
O281 O 0.85497 0.89065 0.81053 0.0
O282 O 0.87642 0.86246 0.85018 0.0
C283 C 0.91205 0.91388 0.77737 0.0
O284 O 0.92926 0.84165 0.81092 0.0
Co285 Co 0.91653 0.84907 0.73499 0.0
O286 O 0.94464 0.82188 0.7598 0.0
C287 C 0.85954 0.82844 0.75664 0.0
C288 C 0.85378 0.87836 0.84043 0.0
C289 C 0.94576 0.82242 0.79231 0.0
O290 O 0.87132 0.82733 0.78628 0.0
O291 O 0.87353 0.83974 0.7319 0.0
O292 O 0.91236 0.91475 0.81069 0.0
O293 O 0.90037 0.88639 0.763 0.0
Co294 Co 0.38199 0.6011 0.06999 0.0
O295 O 0.35116 0.57111 0.08559 0.0
O296 O 0.38555 0.59637 0.11842 0.0
C297 C 0.35351 0.63048 0.03356 0.0
O298 O 0.41801 0.63273 0.06763 0.0
Co299 Co 0.403 0.60429 0.99756 0.0
O300 O 0.43562 0.63504 0.01542 0.0
C301 C 0.40358 0.54138 0.03371 0.0
C302 C 0.36343 0.57571 0.11585 0.0
C303 C 0.43748 0.64286 0.04739 0.0
O304 O 0.40529 0.55993 0.06173 0.0
O305 O 0.39898 0.55402 1.0049 0.0
O306 O 0.35545 0.63947 0.06616 0.0
O307 O 0.36828 0.60441 0.02442 0.0
Co308 Co 0.14906 0.70835 0.84207 0.0
O309 O 0.18116 0.67868 0.84899 0.0
O310 O 0.16184 0.7099 0.89036 0.0
C311 C 0.12486 0.66931 0.80462 0.0
O312 O 0.11554 0.74221 0.84449 0.0
Co313 Co 0.13714 0.73301 0.77035 0.0
O314 O 0.10628 0.75982 0.79198 0.0
C315 C 0.19184 0.74374 0.80804 0.0
C316 C 0.18222 0.68948 0.88085 0.0
C317 C 0.10138 0.76055 0.82382 0.0
O318 O 0.17711 0.74575 0.83489 0.0
O319 O 0.18025 0.73494 0.77877 0.0
O320 O 0.12163 0.66916 0.83736 0.0
O321 O 0.14254 0.69279 0.79594 0.0
Co322 Co 0.08812 0.40937 0.60972 0.0
O323 O 0.05233 0.39729 0.63136 0.0
O324 O 0.08183 0.36018 0.60812 0.0
C325 C 0.10226 0.45227 0.64918 0.0
O326 O 0.12688 0.41246 0.58451 0.0
Co327 Co 0.09635 0.48237 0.58328 0.0
O328 O 0.13497 0.46673 0.57047 0.0
C329 C 0.04979 0.43391 0.55914 0.0
C330 C 0.05733 0.3657 0.62239 0.0
C331 C 0.14261 0.43582 0.57129 0.0
O332 O 0.06602 0.4094 0.56575 0.0
O333 O 0.05665 0.4652 0.56751 0.0
O334 O 0.10755 0.42067 0.65511 0.0
O335 O 0.08757 0.45584 0.62164 0.0
Co336 Co 0.22236 0.3868 0.62897 0.0
O337 O 0.25912 0.41019 0.62074 0.0
O338 O 0.233 0.38059 0.58111 0.0
C339 C 0.20543 0.43096 0.66409 0.0
O340 O 0.18313 0.35933 0.62549 0.0
Co341 Co 0.20071 0.37118 0.70118 0.0
O342 O 0.16557 0.35135 0.67726 0.0
C343 C 0.25058 0.33646 0.67139 0.0
C344 C 0.25633 0.3987 0.58902 0.0
C345 C 0.16359 0.3472 0.64483 0.0
O346 O 0.24341 0.34436 0.64094 0.0
O347 O 0.23868 0.34883 0.69827 0.0
O348 O 0.20289 0.43205 0.631 0.0
O349 O 0.21804 0.40459 0.67373 0.0
Co350 Co 0.39329 0.70298 0.14347 0.0
O351 O 0.42447 0.68639 0.17242 0.0
O352 O 0.38825 0.65501 0.14928 0.0
C353 C 0.42239 0.73724 0.11263 0.0
O354 O 0.3566 0.70598 0.1135 0.0
Co355 Co 0.37395 0.77573 0.1379 0.0
O356 O 0.3403 0.75841 0.10858 0.0
C357 C 0.37418 0.74227 0.20263 0.0
C358 C 0.41102 0.65672 0.16898 0.0
C359 C 0.33748 0.72622 0.10275 0.0
O360 O 0.37157 0.71348 0.18546 0.0
O361 O 0.37885 0.77029 0.18846 0.0
O362 O 0.41878 0.70472 0.10398 0.0
O363 O 0.40809 0.7478 0.13863 0.0
Co364 Co 0.59173 0.58546 0.64291 0.0
O365 O 0.62229 0.55961 0.62049 0.0
O366 O 0.61624 0.6143 0.6161 0.0
C367 C 0.59785 0.55763 0.6929 0.0
O368 O 0.5631 0.62333 0.65988 0.0
Co369 Co 0.53678 0.55467 0.67083 0.0
O370 O 0.5224 0.60127 0.68017 0.0
C371 C 0.55429 0.54398 0.59965 0.0
C372 C 0.6307 0.58751 0.60717 0.0
C373 C 0.53736 0.62688 0.67178 0.0
O374 O 0.56618 0.57377 0.60276 0.0
O375 O 0.54369 0.52981 0.62517 0.0
O376 O 0.6137 0.58444 0.68677 0.0
O377 O 0.57839 0.5496 0.66966 0.0
Co378 Co 0.95627 0.38759 0.1474 0.0
O379 O 0.92452 0.41027 0.12478 0.0
O380 O 0.9377 0.3588 0.10941 0.0
C381 C 0.94275 0.4032 0.20302 0.0
O382 O 0.98698 0.35303 0.16174 0.0
Co383 Co 1.00294 0.42135 0.19621 0.0
O384 O 1.01761 0.37528 0.20286 0.0
C385 C 0.99943 0.43665 0.12321 0.0
C386 C 0.92008 0.38315 0.10434 0.0
C387 C 1.0085 0.35018 0.18299 0.0
O388 O 0.98347 0.40966 0.11615 0.0
O389 O 1.00727 0.4469 0.15378 0.0
O390 O 0.93158 0.37678 0.18554 0.0
O391 O 0.96171 0.41965 0.18664 0.0
Co392 Co 0.69062 0.63983 0.67295 0.0
O393 O 0.65644 0.65735 0.69468 0.0
O394 O 0.66302 0.6567 0.63958 0.0
C395 C 0.69152 0.59362 0.707 0.0
O396 O 0.72404 0.62445 0.64014 0.0
Co397 Co 0.7461 0.63435 0.71468 0.0
O398 O 0.76574 0.6263 0.67078 0.0
C399 C 0.71805 0.69908 0.70747 0.0
C400 C 0.64705 0.6658 0.66519 0.0
C401 C 0.7521 0.62305 0.64211 0.0
O402 O 0.70812 0.68642 0.67869 0.0
O403 O 0.73133 0.68105 0.72849 0.0
O404 O 0.67631 0.5926 0.6785 0.0
O405 O 0.70538 0.62218 0.71366 0.0
Co406 Co 0.45089 0.41713 0.35598 0.0
O407 O 0.48247 0.40042 0.32824 0.0
O408 O 0.45394 0.36807 0.35737 0.0
C409 C 0.4347 0.45569 0.31854 0.0
O410 O 0.41656 0.42335 0.38858 0.0
Co411 Co 0.44816 0.49272 0.38391 0.0
O412 O 0.41363 0.47809 0.40875 0.0
C413 C 0.49553 0.44863 0.40147 0.0
C414 C 0.47664 0.37044 0.33902 0.0
C415 C 0.40496 0.44691 0.40798 0.0
O416 O 0.47838 0.42276 0.39564 0.0
O417 O 0.48878 0.47879 0.39426 0.0
O418 O 0.42665 0.42351 0.31405 0.0
O419 O 0.45248 0.4624 0.34371 0.0
Co420 Co 0.11988 0.61677 0.90717 0.0
O421 O 0.08567 0.62063 0.87773 0.0
O422 O 0.10313 0.66203 0.91321 0.0
C423 C 0.14597 0.58935 0.8647 0.0
O424 O 0.15447 0.62514 0.94153 0.0
Co425 Co 0.14819 0.54909 0.92313 0.0
O426 O 0.17784 0.5771 0.95011 0.0
C427 C 0.09055 0.56629 0.94812 0.0
C428 C 0.08345 0.65179 0.8904 0.0
C429 C 0.17498 0.6091 0.95594 0.0
O430 O 0.09504 0.59815 0.94338 0.0
O431 O 0.10753 0.54292 0.93779 0.0
O432 O 0.14515 0.62239 0.86775 0.0
O433 O 0.13167 0.57438 0.88723 0.0
Co434 Co 0.331 0.39071 0.35781 0.0
O435 O 0.29849 0.41769 0.37265 0.0
O436 O 0.32715 0.39086 0.4069 0.0
C437 C 0.34645 0.42721 0.31821 0.0
O438 O 0.36666 0.35987 0.35266 0.0
Co439 Co 0.33359 0.36047 0.28289 0.0
O440 O 0.36952 0.33889 0.29813 0.0
C441 C 0.28632 0.34592 0.32805 0.0
C442 C 0.30403 0.40829 0.40318 0.0
C443 C 0.37891 0.34108 0.32907 0.0
O444 O 0.30445 0.35011 0.35308 0.0
O445 O 0.29281 0.35244 0.29762 0.0
O446 O 0.3541 0.43324 0.35035 0.0
O447 O 0.32931 0.40131 0.31232 0.0
H448 H 0.08224 0.99789 0.05137 0.0
H449 H 0.05472 0.09465 0.01825 0.0
H450 H 0.06756 0.97029 0.99599 0.0
H451 H 0.03806 0.06727 0.96428 0.0
H452 H 0.96763 0.94964 0.9869 0.0
H453 H 0.01883 0.95888 0.99611 0.0
H454 H 0.01924 0.03338 0.91925 0.0
H455 H 0.96723 0.02526 0.91197 0.0
C456 C 0.07367 0.01329 0.03175 0.0
C457 C 0.06762 0.04768 0.03922 0.0
C458 C 0.06547 0.99766 1.0 0.0
C459 C 0.04893 0.01578 0.97715 0.0
C460 C 0.04923 0.05178 0.98188 0.0
C461 C 0.05841 0.06768 0.01314 0.0
C462 C 0.97883 0.9678 0.97193 0.0
C463 C 0.96357 0.98866 0.95082 0.0
C464 C 1.00846 0.9727 0.97647 0.0
C465 C 0.0232 0.99853 0.95975 0.0
C466 C 1.00838 0.01471 0.93392 0.0
C467 C 0.9786 0.01049 0.93014 0.0
H468 H 0.34122 0.69908 0.23748 0.0
H469 H 0.39783 0.78828 0.25089 0.0
H470 H 0.32186 0.71208 0.29292 0.0
H471 H 0.37983 0.80046 0.30794 0.0
H472 H 0.26413 0.7499 0.36102 0.0
H473 H 0.31157 0.72828 0.34831 0.0
H474 H 0.33631 0.82676 0.31252 0.0
H475 H 0.28993 0.84847 0.32776 0.0
C476 C 0.35033 0.72077 0.25302 0.0
C477 C 0.36957 0.74391 0.2394 0.0
C478 C 0.33954 0.72811 0.28527 0.0
C479 C 0.34813 0.75863 0.30427 0.0
C480 C 0.37167 0.77781 0.29318 0.0
C481 C 0.38187 0.77097 0.2605 0.0
C482 C 0.28024 0.76698 0.35136 0.0
C483 C 0.27334 0.80018 0.34361 0.0
C484 C 0.3074 0.75474 0.34426 0.0
C485 C 0.32728 0.77504 0.3276 0.0
C486 C 0.32161 0.80992 0.32481 0.0
C487 C 0.29478 0.82244 0.333 0.0
H488 H 0.48616 0.93887 0.54717 0.0
H489 H 0.50279 0.01708 0.62849 0.0
H490 H 0.49286 0.98142 0.5053 0.0
H491 H 0.50822 0.0597 0.5869 0.0
H492 H 0.49348 0.0604 0.4331 0.0
H493 H 0.47428 0.02999 0.48018 0.0
H494 H 0.54216 0.07585 0.54706 0.0
H495 H 0.56024 0.10719 0.50023 0.0
C496 C 0.49105 0.96514 0.5561 0.0
C497 C 0.49443 0.97439 0.59112 0.0
C498 C 0.49449 0.98971 0.53214 0.0
C499 C 0.50096 0.02416 0.5427 0.0
C500 C 0.50366 0.03342 0.57779 0.0
C501 C 0.50061 0.00885 0.60165 0.0
C502 C 0.50313 0.06542 0.45843 0.0
C503 C 0.52806 0.0863 0.46333 0.0
C504 C 0.4926 0.04742 0.48521 0.0
C505 C 0.50721 0.04957 0.51715 0.0
C506 C 0.53027 0.07352 0.52289 0.0
C507 C 0.54053 0.09186 0.49615 0.0
H508 H 0.25437 0.16431 0.77428 0.0
H509 H 0.33733 0.20837 0.80744 0.0
H510 H 0.25089 0.20489 0.73027 0.0
H511 H 0.33498 0.24768 0.76197 0.0
H512 H 0.29699 0.3419 0.71365 0.0
H513 H 0.31316 0.29609 0.74691 0.0
H514 H 0.26538 0.22309 0.67824 0.0
H515 H 0.24778 0.27002 0.64618 0.0
C516 C 0.27189 0.18276 0.77206 0.0
C517 C 0.29581 0.1837 0.79472 0.0
C518 C 0.27023 0.20565 0.74632 0.0
C519 C 0.2928 0.22958 0.742 0.0
C520 C 0.31693 0.23012 0.76462 0.0
C521 C 0.31825 0.20772 0.7909 0.0
C522 C 0.29113 0.31587 0.7047 0.0
C523 C 0.27095 0.30947 0.67763 0.0
C524 C 0.30026 0.28939 0.72398 0.0
C525 C 0.28974 0.25576 0.71622 0.0
C526 C 0.273 0.24884 0.68586 0.0
C527 C 0.2635 0.27558 0.66681 0.0
H528 H 0.02367 0.89799 0.53066 0.0
H529 H 0.99677 0.93374 0.43361 0.0
H530 H 0.9815 0.92257 0.55698 0.0
H531 H 0.95565 0.95972 0.45977 0.0
H532 H 0.92758 0.04916 0.50013 0.0
H533 H 0.9224 0.98717 0.49466 0.0
H534 H 0.99395 0.98097 0.56682 0.0
H535 H 0.99791 0.04264 0.57316 0.0
C536 C 1.00809 0.91015 0.51479 0.0
C537 C 1.01405 0.91633 0.48087 0.0
C538 C 0.9838 0.92388 0.52971 0.0
C539 C 0.96695 0.94595 0.51133 0.0
C540 C 0.96909 0.94452 0.47543 0.0
C541 C 0.99296 0.93 0.46024 0.0
C542 C 0.94185 0.03427 0.51515 0.0
C543 C 0.9646 0.05007 0.53514 0.0
C544 C 0.93851 0.99885 0.51251 0.0
C545 C 0.95881 0.97891 0.52851 0.0
C546 C 0.97828 0.99519 0.55314 0.0
C547 C 0.98114 0.03066 0.55637 0.0
H548 H 0.34124 0.834 0.78275 0.0
H549 H 0.31071 0.76305 0.7004 0.0
H550 H 0.32741 0.79331 0.82409 0.0
H551 H 0.29533 0.72339 0.74105 0.0
H552 H 0.22739 0.79258 0.8393 0.0
H553 H 0.27899 0.7968 0.83378 0.0
H554 H 0.2781 0.6944 0.78526 0.0
H555 H 0.22578 0.69171 0.789 0.0
C556 C 0.33207 0.8093 0.77358 0.0
C557 C 0.32489 0.80227 0.73886 0.0
C558 C 0.32443 0.78585 0.79716 0.0
C559 C 0.30762 0.75667 0.78617 0.0
C560 C 0.30675 0.74647 0.75096 0.0
C561 C 0.31517 0.76945 0.72732 0.0
C562 C 0.23846 0.77093 0.82793 0.0
C563 C 0.223 0.74303 0.81217 0.0
C564 C 0.26825 0.77283 0.82528 0.0
C565 C 0.28266 0.74672 0.80664 0.0
C566 C 0.26748 0.7158 0.79774 0.0
C567 C 0.23759 0.71438 0.79943 0.0
H568 H 0.4445 0.98564 0.93408 0.0
H569 H 0.48196 0.06401 1.00506 0.0
H570 H 0.46177 0.94177 0.97004 0.0
H571 H 0.50034 0.02074 0.04017 0.0
H572 H 0.56272 0.9269 0.96146 0.0
H573 H 0.51125 0.93519 0.95981 0.0
H574 H 0.51543 0.97184 0.06633 0.0
H575 H 0.56745 0.96503 0.06692 0.0
C576 C 0.4556 0.99338 0.95809 0.0
C577 C 0.46363 0.02774 0.96614 0.0
C578 C 0.46524 0.96834 0.97882 0.0
C579 C 0.48435 0.97763 1.00639 0.0
C580 C 0.48665 0.01236 0.01832 0.0
C581 C 0.47642 0.03745 0.998 0.0
C582 C 0.55236 0.93591 0.98459 0.0
C583 C 0.56869 0.94737 0.01358 0.0
C584 C 0.5227 0.94014 0.98407 0.0
C585 C 0.50934 0.95598 0.01265 0.0
C586 C 0.52526 0.961 0.04356 0.0
C587 C 0.55498 0.95755 0.04378 0.0
H588 H 0.27404 0.29386 0.36797 0.0
H589 H 0.23481 0.363 0.30079 0.0
H590 H 0.23509 0.25284 0.35511 0.0
H591 H 0.19437 0.32269 0.28941 0.0
H592 H 0.2126 0.16815 0.29122 0.0
H593 H 0.20024 0.21607 0.32996 0.0
H594 H 0.21141 0.28378 0.24805 0.0
H595 H 0.22202 0.23565 0.20953 0.0
C596 C 0.25619 0.30093 0.35182 0.0
C597 C 0.25817 0.32999 0.33316 0.0
C598 C 0.23343 0.27754 0.3446 0.0
C599 C 0.21327 0.28319 0.31816 0.0
C600 C 0.21099 0.31663 0.30774 0.0
C601 C 0.2342 0.33959 0.31397 0.0
C602 C 0.21218 0.19343 0.2817 0.0
C603 C 0.22016 0.19896 0.2482 0.0
C604 C 0.20459 0.22075 0.30368 0.0
C605 C 0.20619 0.25416 0.29291 0.0
C606 C 0.21034 0.25869 0.25791 0.0
C607 C 0.21719 0.23122 0.23576 0.0
H608 H 0.43898 0.51144 0.07825 0.0
H609 H 0.38263 0.48945 0.98993 0.0
H610 H 0.46373 0.45934 0.06542 0.0
H611 H 0.4062 0.43553 0.97799 0.0
H612 H 0.49642 0.43498 0.92698 0.0
H613 H 0.44916 0.44056 0.95051 0.0
H614 H 0.48187 0.40791 0.04719 0.0
H615 H 0.52981 0.4049 0.02373 0.0
C616 C 0.43106 0.49454 0.05692 0.0
C617 C 0.41038 0.50522 0.0337 0.0
C618 C 0.44503 0.46417 0.04963 0.0
C619 C 0.43827 0.44432 0.01906 0.0
C620 C 0.41307 0.45137 1.00051 0.0
C621 C 0.39964 0.48225 1.00723 0.0
C622 C 0.49326 0.42853 0.95307 0.0
C623 C 0.51668 0.4216 0.97428 0.0
C624 C 0.46598 0.43104 0.96661 0.0
C625 C 0.46184 0.4262 1.0015 0.0
C626 C 0.48456 0.41341 0.02077 0.0
C627 C 0.51201 0.41198 0.00751 0.0
H628 H 0.84411 0.34649 0.27924 0.0
H629 H 0.82189 0.26484 0.20339 0.0
H630 H 0.84465 0.30596 0.3236 0.0
H631 H 0.82144 0.22456 0.24729 0.0
H632 H 0.74934 0.2689 0.3464 0.0
H633 H 0.79756 0.29176 0.33951 0.0
H634 H 0.82332 0.19334 0.29666 0.0
H635 H 0.77424 0.17116 0.30226 0.0
C636 C 0.83971 0.31969 0.27207 0.0
C637 C 0.8307 0.3088 0.23858 0.0
C638 C 0.84061 0.29642 0.29734 0.0
C639 C 0.83103 0.26251 0.28955 0.0
C640 C 0.82788 0.25074 0.25481 0.0
C641 C 0.8275 0.2739 0.22944 0.0
C642 C 0.76566 0.25202 0.33657 0.0
C643 C 0.75815 0.21937 0.32247 0.0
C644 C 0.7936 0.26478 0.33308 0.0
C645 C 0.81361 0.24497 0.31463 0.0
C646 C 0.80778 0.20973 0.30895 0.0
C647 C 0.77967 0.1972 0.3116 0.0
H648 H 1.00046 0.44231 0.59229 0.0
H649 H 0.03447 0.40929 0.49504 0.0
H650 H 0.95562 0.45726 0.56414 0.0
H651 H 0.99015 0.42447 0.46669 0.0
H652 H 0.97034 0.55872 0.50213 0.0
H653 H 0.96901 0.5107 0.53806 0.0
H654 H 0.94217 0.44313 0.45087 0.0
H655 H 0.94411 0.49131 0.41491 0.0
C656 C 0.99757 0.43651 0.56502 0.0
C657 C 0.02087 0.42629 0.54528 0.0
C658 C 0.97187 0.44477 0.54897 0.0
C659 C 0.9702 0.44421 0.5132 0.0
C660 C 0.99107 0.42632 0.49434 0.0
C661 C 1.01671 0.41781 0.51043 0.0
C662 C 0.96339 0.53378 0.49097 0.0
C663 C 0.95915 0.52808 0.4557 0.0
C664 C 0.96203 0.5062 0.51157 0.0
C665 C 0.95646 0.47275 0.49692 0.0
C666 C 0.94724 0.4684 0.46261 0.0
C667 C 0.94895 0.49585 0.442 0.0
H668 H 0.7896 0.64199 0.26192 0.0
H669 H 0.77213 0.70807 0.3506 0.0
H670 H 0.77061 0.68379 0.22484 0.0
H671 H 0.75147 0.74931 0.31375 0.0
H672 H 0.69328 0.73875 0.17839 0.0
H673 H 0.72529 0.70211 0.20875 0.0
H674 H 0.7568 0.78966 0.27314 0.0
H675 H 0.72339 0.82549 0.24391 0.0
C676 C 0.78163 0.66559 0.27343 0.0
C677 C 0.78191 0.67173 0.30908 0.0
C678 C 0.77062 0.68948 0.25219 0.0
C679 C 0.75906 0.71978 0.26616 0.0
C680 C 0.76052 0.72651 0.30193 0.0
C681 C 0.77214 0.70283 0.32318 0.0
C682 C 0.70771 0.75011 0.19838 0.0
C683 C 0.70599 0.78466 0.20903 0.0
C684 C 0.7261 0.72923 0.21588 0.0
C685 C 0.74337 0.7428 0.24392 0.0
C686 C 0.74326 0.77812 0.2524 0.0
C687 C 0.72446 0.79875 0.23541 0.0
H688 H 0.86089 0.25769 0.72377 0.0
H689 H 0.78657 0.19084 0.73273 0.0
H690 H 0.86488 0.26708 0.78559 0.0
H691 H 0.7896 0.201 0.79423 0.0
H692 H 0.76243 0.2415 0.87641 0.0
H693 H 0.80371 0.21228 0.85297 0.0
H694 H 0.83153 0.30568 0.80943 0.0
H695 H 0.79109 0.33477 0.83401 0.0
C696 C 0.84549 0.24482 0.73915 0.0
C697 C 0.82209 0.22552 0.72386 0.0
C698 C 0.84817 0.24964 0.77451 0.0
C699 C 0.82678 0.23638 0.79486 0.0
C700 C 0.80626 0.21242 0.77954 0.0
C701 C 0.80396 0.20705 0.74415 0.0
C702 C 0.77832 0.256 0.86319 0.0
C703 C 0.77305 0.28951 0.85481 0.0
C704 C 0.80211 0.23944 0.85014 0.0
C705 C 0.81922 0.2558 0.82682 0.0
C706 C 0.81788 0.29163 0.82587 0.0
C707 C 0.79444 0.30847 0.83958 0.0
H708 H 0.82405 0.85807 0.71142 0.0
H709 H 0.82409 0.79527 0.79775 0.0
H710 H 0.7719 0.85104 0.70555 0.0
H711 H 0.77286 0.7867 0.79127 0.0
H712 H 0.72804 0.74796 0.66343 0.0
H713 H 0.74801 0.80394 0.68045 0.0
H714 H 0.72378 0.79112 0.78453 0.0
H715 H 0.70597 0.73333 0.76755 0.0
C716 C 0.81286 0.84251 0.72896 0.0
C717 C 0.82809 0.82541 0.75375 0.0
C718 C 0.78296 0.83896 0.72597 0.0
C719 C 0.76797 0.81719 0.74689 0.0
C720 C 0.78319 0.80348 0.7742 0.0
C721 C 0.8129 0.80758 0.77754 0.0
C722 C 0.72615 0.75761 0.68974 0.0
C723 C 0.71771 0.73593 0.71478 0.0
C724 C 0.73727 0.79011 0.69965 0.0
C725 C 0.74021 0.80042 0.73468 0.0
C726 C 0.72394 0.78249 0.75777 0.0
C727 C 0.71394 0.74938 0.74821 0.0
H728 H 0.54742 0.48087 0.39512 0.0
H729 H 0.50274 0.40799 0.45394 0.0
H730 H 0.58218 0.49301 0.44219 0.0
H731 H 0.53564 0.42173 0.50165 0.0
H732 H 0.56363 0.47598 0.59387 0.0
H733 H 0.57061 0.44063 0.54163 0.0
H734 H 0.56336 0.53039 0.48354 0.0
H735 H 0.55826 0.56537 0.53576 0.0
C736 C 0.54569 0.46666 0.41777 0.0
C737 C 0.52172 0.44509 0.4221 0.0
C738 C 0.56554 0.47352 0.44469 0.0
C739 C 0.56022 0.46053 0.47654 0.0
C740 C 0.53992 0.43334 0.47798 0.0
C741 C 0.52069 0.42558 0.45064 0.0
C742 C 0.56369 0.48794 0.56976 0.0
C743 C 0.559 0.523 0.56833 0.0
C744 C 0.56811 0.46782 0.53995 0.0
C745 C 0.56691 0.48228 0.50815 0.0
C746 C 0.56467 0.51801 0.50735 0.0
C747 C 0.56098 0.53817 0.53722 0.0
H748 H 0.06841 0.59833 1.00528 0.0
H749 H 0.05888 0.50795 0.93681 0.0
H750 H 0.03886 0.57055 0.04685 0.0
H751 H 0.03034 0.47997 0.97816 0.0
H752 H 0.97702 0.43511 0.05775 0.0
H753 H 0.98967 0.47311 0.01324 0.0
H754 H 0.05316 0.52524 0.08194 0.0
H755 H 0.04013 0.48812 0.12637 0.0
C756 C 0.05917 0.57304 0.99868 0.0
C757 C 0.06628 0.55497 0.96827 0.0
C758 C 0.04257 0.55696 0.02256 0.0
C759 C 0.03288 0.52271 0.01615 0.0
C760 C 0.03739 0.50628 0.98403 0.0
C761 C 0.05393 0.52226 0.96036 0.0
C762 C 0.99372 0.45465 0.06326 0.0
C763 C 1.00782 0.4583 0.09546 0.0
C764 C 1.00081 0.47657 0.03786 0.0
C765 C 0.02226 0.50243 0.04411 0.0
C766 C 0.03605 0.50622 0.07646 0.0
C767 C 0.02887 0.48451 0.10182 0.0
H768 H 0.14468 0.02422 0.16501 0.0
H769 H 0.07169 0.03564 0.22923 0.0
H770 H 0.15965 0.97513 0.19518 0.0
H771 H 0.0861 0.9862 0.25966 0.0
H772 H 0.1133 0.88919 0.30771 0.0
H773 H 0.09445 0.93092 0.26986 0.0
H774 H 0.1814 0.9559 0.24156 0.0
H775 H 0.19972 0.91521 0.28034 0.0
C776 C 0.13216 0.01664 0.18627 0.0
C777 C 0.10796 0.03524 0.19603 0.0
C778 C 0.14067 0.98811 0.20369 0.0
C779 C 0.12502 0.97664 0.23136 0.0
C780 C 0.09946 0.99402 0.23931 0.0
C781 C 0.09116 0.02284 0.22202 0.0
C782 C 0.12834 0.90444 0.29404 0.0
C783 C 0.15815 0.90006 0.29844 0.0
C784 C 0.11753 0.92837 0.27194 0.0
C785 C 0.13614 0.94838 0.25282 0.0
C786 C 0.16594 0.94217 0.25596 0.0
C787 C 0.17674 0.91899 0.27878 0.0
H788 H 0.37012 0.93878 0.58655 0.0
H789 H 0.39595 0.83803 0.55251 0.0
H790 H 0.32707 0.93198 0.54914 0.0
H791 H 0.35346 0.83139 0.51446 0.0
H792 H 0.26278 0.81385 0.46813 0.0
H793 H 0.30398 0.82174 0.50784 0.0
H794 H 0.30562 0.92992 0.49395 0.0
H795 H 0.26378 0.92185 0.45457 0.0
C796 C 0.36688 0.91523 0.57082 0.0
C797 C 0.38708 0.88912 0.57274 0.0
C798 C 0.34198 0.9113 0.54902 0.0
C799 C 0.33604 0.88103 0.52812 0.0
C800 C 0.35641 0.85498 0.53014 0.0
C801 C 0.38126 0.85893 0.55192 0.0
C802 C 0.27171 0.83946 0.47359 0.0
C803 C 0.2595 0.86713 0.45769 0.0
C804 C 0.29586 0.84402 0.49635 0.0
C805 C 0.30912 0.87653 0.50443 0.0
C806 C 0.29642 0.90439 0.48906 0.0
C807 C 0.27223 0.89977 0.46614 0.0
H808 H 0.39709 0.0389 0.8801 0.0
H809 H 0.32315 0.02598 0.81195 0.0
H810 H 0.42051 0.99235 0.84894 0.0
H811 H 0.34417 0.97488 0.78495 0.0
H812 H 0.46468 0.95506 0.74513 0.0
H813 H 0.44305 0.98288 0.79534 0.0
H814 H 0.36592 0.92051 0.77611 0.0
H815 H 0.38987 0.88841 0.73048 0.0
C816 C 0.38557 0.02613 0.85868 0.0
C817 C 0.35904 0.0385 0.84719 0.0
C818 C 0.39901 0.99879 0.84082 0.0
C819 C 0.38531 0.9808 0.81236 0.0
C820 C 0.35654 0.98929 0.80495 0.0
C821 C 0.34412 0.01848 0.82096 0.0
C822 C 0.44339 0.94656 0.75206 0.0
C823 C 0.42845 0.92053 0.73178 0.0
C824 C 0.43062 0.96306 0.78073 0.0
C825 C 0.40155 0.95636 0.78844 0.0
C826 C 0.38772 0.92808 0.77023 0.0
C827 C 0.40145 0.90971 0.74343 0.0
H828 H 0.25116 0.0491 0.93252 0.0
H829 H 0.27996 0.15319 0.95819 0.0
H830 H 0.21992 0.05123 0.98119 0.0
H831 H 0.24805 0.15567 1.00701 0.0
H832 H 0.16095 0.15717 0.06544 0.0
H833 H 0.19827 0.15742 0.02256 0.0
H834 H 0.21675 0.05298 0.04123 0.0
H835 H 0.17905 0.05254 0.08314 0.0
C836 C 0.2511 0.07243 0.94883 0.0
C837 C 0.26824 0.10094 0.9412 0.0
C838 C 0.23316 0.07363 0.97706 0.0
C839 C 0.23127 0.10359 0.99859 0.0
C840 C 0.24869 0.1321 0.99119 0.0
C841 C 0.26724 0.13063 0.96326 0.0
C842 C 0.1732 0.13438 0.06064 0.0
C843 C 0.16658 0.1047 0.07757 0.0
C844 C 0.19477 0.13452 0.03602 0.0
C845 C 0.21044 0.10499 0.0276 0.0
C846 C 0.20475 0.07595 0.046 0.0
C847 C 0.18317 0.07578 0.0704 0.0
H848 H 0.14015 0.08102 0.24669 0.0
H849 H 0.21941 0.0273 0.24578 0.0
H850 H 0.1243 0.05001 0.29504 0.0
H851 H 0.20389 0.99564 0.29386 0.0
H852 H 0.17432 0.94755 0.39039 0.0
H853 H 0.19265 0.98428 0.34752 0.0
H854 H 0.10522 1.00167 0.31418 0.0
H855 H 0.08743 0.96423 0.3565 0.0
C856 C 0.1539 0.06174 0.25627 0.0
C857 C 0.18028 0.05511 0.24074 0.0
C858 C 0.1449 0.0439 0.28444 0.0
C859 C 0.16199 0.01867 0.29841 0.0
C860 C 0.18946 0.01414 0.28425 0.0
C861 C 0.19836 0.03195 0.25598 0.0
C862 C 0.15909 0.95849 0.37311 0.0
C863 C 0.12937 0.95168 0.37613 0.0
C864 C 0.16961 0.97995 0.34839 0.0
C865 C 0.15078 0.99631 0.32613 0.0
C866 C 0.12091 0.98994 0.33003 0.0
C867 C 0.11047 0.96778 0.35418 0.0
H868 H 0.27451 0.93459 0.59256 0.0
H869 H 0.27629 0.825 0.59236 0.0
H870 H 0.2357 0.93002 0.54939 0.0
H871 H 0.23583 0.81996 0.55115 0.0
H872 H 0.16658 0.81863 0.46648 0.0
H873 H 0.21193 0.8227 0.49946 0.0
H874 H 0.18739 0.92016 0.54566 0.0
H875 H 0.14326 0.91665 0.51147 0.0
C876 C 0.2667 0.90943 0.58292 0.0
C877 C 0.27852 0.88019 0.59579 0.0
C878 C 0.24398 0.90669 0.55853 0.0
C879 C 0.2315 0.87458 0.54718 0.0
C880 C 0.24451 0.84522 0.55887 0.0
C881 C 0.26788 0.84802 0.58257 0.0
C882 C 0.1712 0.84122 0.48311 0.0
C883 C 0.15135 0.86761 0.48551 0.0
C884 C 0.19722 0.84346 0.50254 0.0
C885 C 0.20413 0.8721 0.52524 0.0
C886 C 0.18386 0.89815 0.52786 0.0
C887 C 0.15808 0.89596 0.50836 0.0
H888 H 0.45896 0.05387 0.80834 0.0
H889 H 0.37857 0.10531 0.80985 0.0
H890 H 0.44416 0.02422 0.75392 0.0
H891 H 0.36195 0.0721 0.75861 0.0
H892 H 0.41097 0.95853 0.66495 0.0
H893 H 0.42779 0.0096 0.6982 0.0
H894 H 0.34467 0.01659 0.7437 0.0
H895 H 0.32947 0.96227 0.71393 0.0
C896 C 0.438 0.05886 0.79734 0.0
C897 C 0.4195 0.0811 0.81504 0.0
C898 C 0.4292 0.04136 0.76607 0.0
C899 C 0.40076 0.04321 0.75278 0.0
C900 C 0.38346 0.06818 0.76858 0.0
C901 C 0.39308 0.08748 0.7985 0.0
C902 C 0.39626 0.97036 0.68222 0.0
C903 C 0.36938 0.9545 0.6879 0.0
C904 C 0.40602 1.00017 0.70157 0.0
C905 C 0.38848 0.01655 0.72594 0.0
C906 C 0.35975 1.00394 0.72706 0.0
C907 C 0.35074 0.97275 0.70951 0.0
H908 H 0.35631 0.05419 0.96021 0.0
H909 H 0.37766 0.15834 0.99514 0.0
H910 H 0.3188 0.0519 1.0026 0.0
H911 H 0.34013 0.15611 0.03775 0.0
H912 H 0.25576 0.15002 0.09778 0.0
H913 H 0.28908 0.15313 0.05048 0.0
H914 H 0.31278 0.04926 0.06343 0.0
H915 H 0.28056 0.04692 0.11153 0.0
C916 C 0.35307 0.07674 0.97687 0.0
C917 C 0.37058 0.10637 0.97406 0.0
C918 C 0.33145 0.07537 1.00154 0.0
C919 C 0.32613 0.10367 0.02439 0.0
C920 C 0.3431 0.13368 0.02084 0.0
C921 C 0.36493 0.13494 0.99634 0.0
C922 C 0.26753 0.12753 0.09 0.0
C923 C 0.26479 0.09795 0.10838 0.0
C924 C 0.28706 0.12943 0.06296 0.0
C925 C 0.30396 0.10142 0.0524 0.0
C926 C 0.30016 0.07137 0.06997 0.0
C927 C 0.28141 0.0699 0.09769 0.0
H928 H 0.90682 0.27772 0.10374 0.0
H929 H 0.92818 0.30762 0.20908 0.0
H930 H 0.9451 0.23598 0.10334 0.0
H931 H 0.96653 0.2662 0.20872 0.0
H932 H 1.00966 0.15973 0.20719 0.0
H933 H 0.97534 0.20597 0.20806 0.0
H934 H 0.99631 0.22546 0.10465 0.0
H935 H 0.03133 0.17974 0.10443 0.0
C936 C 0.91968 0.27557 0.12686 0.0
C937 C 0.91392 0.29631 0.15647 0.0
C938 C 0.94196 0.25159 0.12661 0.0
C939 C 0.95932 0.24702 0.15607 0.0
C940 C 0.95366 0.2681 0.18556 0.0
C941 C 0.93156 0.29223 0.18572 0.0
C942 C 1.00767 0.1746 0.185 0.0
C943 C 0.0241 0.1663 0.1561 0.0
C944 C 0.9877 0.20121 0.18536 0.0
C945 C 0.98247 0.21997 0.15636 0.0
C946 C 0.99913 0.21174 0.12749 0.0
C947 C 0.01977 0.18576 0.12753 0.0
H948 H 0.52598 0.31627 0.84927 0.0
H949 H 0.5259 0.30276 0.95724 0.0
H950 H 0.48441 0.27655 0.84064 0.0
H951 H 0.48496 0.26265 0.94877 0.0
H952 H 0.39324 0.21749 0.931 0.0
H953 H 0.43559 0.25574 0.93835 0.0
H954 H 0.46336 0.22113 0.83831 0.0
H955 H 0.42046 0.18347 0.83083 0.0
C956 C 0.51735 0.30464 0.87123 0.0
C957 C 0.52969 0.31318 0.90403 0.0
C958 C 0.49332 0.28152 0.86628 0.0
C959 C 0.48042 0.26603 0.89394 0.0
C960 C 0.49328 0.27421 0.92663 0.0
C961 C 0.51726 0.2972 0.93153 0.0
C962 C 0.40823 0.2181 0.9104 0.0
C963 C 0.40285 0.19725 0.88015 0.0
C964 C 0.43298 0.24002 0.91474 0.0
C965 C 0.45366 0.24213 0.88905 0.0
C966 C 0.44818 0.22116 0.85873 0.0
C967 C 0.42339 0.19922 0.85441 0.0
H968 H 1.01237 0.68592 0.4364 0.0
H969 H 0.01905 0.67516 0.32705 0.0
H970 H 0.05134 0.7296 0.43948 0.0
H971 H 0.05744 0.71905 0.32982 0.0
H972 H 0.11523 0.81553 0.34242 0.0
H973 H 0.07198 0.77802 0.34097 0.0
H974 H 0.10278 0.73381 0.43253 0.0
H975 H 0.14583 0.77115 0.43357 0.0
C976 C 0.02162 0.69352 0.41293 0.0
C977 C 1.01237 0.67718 0.38146 0.0
C978 C 0.0443 0.71827 0.41467 0.0
C979 C 0.05791 0.72803 0.38491 0.0
C980 C 0.04753 0.71274 0.35333 0.0
C981 C 0.0254 0.6875 0.3517 0.0
C982 C 0.11255 0.79794 0.36232 0.0
C983 C 0.1337 0.79676 0.38845 0.0
C984 C 0.08784 0.77622 0.36144 0.0
C985 C 0.08356 0.75268 0.38671 0.0
C986 C 0.1048 0.75188 0.41297 0.0
C987 C 0.12959 0.77333 0.41362 0.0
H988 H 0.03936 0.32549 0.23593 0.0
H989 H 1.01723 0.30243 0.12949 0.0
H990 H 0.07213 0.27821 0.23485 0.0
H991 H 0.05068 0.25523 0.12803 0.0
H992 H 0.13722 0.19848 0.12905 0.0
H993 H 0.09974 0.24084 0.12884 0.0
H994 H 0.07919 0.21918 0.23198 0.0
H995 H 0.11719 0.17748 0.23231 0.0
C996 C 0.04114 0.30996 0.2123 0.0
C997 C 0.02534 0.31793 0.18286 0.0
C998 C 0.06001 0.28253 0.21167 0.0
C999 C 0.0643 0.2622 0.18138 0.0
C1000 C 0.04821 0.26999 0.15194 0.0
C1001 C 0.02873 0.29703 0.15279 0.0
C1002 C 0.12457 0.20252 0.15163 0.0
C1003 C 0.13053 0.18445 0.18076 0.0
C1004 C 0.10281 0.22688 0.15148 0.0
C1005 C 0.0862 0.23414 0.18051 0.0
C1006 C 0.0917 0.21522 0.20929 0.0
C1007 C 0.11351 0.19096 0.20945 0.0
H1008 H 0.62862 0.70234 0.61096 0.0
H1009 H 0.60733 0.68028 0.7136 0.0
H1010 H 0.5913 0.74537 0.61106 0.0
H1011 H 0.56984 0.7223 0.7135 0.0
H1012 H 0.53644 0.83127 0.7213 0.0
H1013 H 0.56761 0.78256 0.71775 0.0
H1014 H 0.54104 0.76103 0.61217 0.0
H1015 H 0.50919 0.80993 0.61607 0.0
C1016 C 0.61564 0.70615 0.6333 0.0
C1017 C 0.62138 0.688 0.66242 0.0
C1018 C 0.59412 0.73089 0.63339 0.0
C1019 C 0.5777 0.73818 0.6626 0.0
C1020 C 0.58246 0.71847 0.69088 0.0
C1021 C 0.60392 0.69398 0.69082 0.0
C1022 C 0.53682 0.81589 0.69741 0.0
C1023 C 0.52012 0.82472 0.66903 0.0
C1024 C 0.55473 0.78766 0.69536 0.0
C1025 C 0.55704 0.76734 0.66467 0.0
C1026 C 0.54009 0.77596 0.63625 0.0
C1027 C 0.52155 0.80388 0.63856 0.0
H1028 H 0.88487 0.70764 0.44419 0.0
H1029 H 0.908 0.68196 0.34041 0.0
H1030 H 0.92719 0.74584 0.45198 0.0
H1031 H 0.95128 0.71821 0.34855 0.0
H1032 H 0.01849 0.806 0.36184 0.0
H1033 H 0.97514 0.76967 0.35318 0.0
H1034 H 0.97558 0.75401 0.46112 0.0
H1035 H 0.01817 0.79149 0.46961 0.0
C1036 C 0.89901 0.71 0.42295 0.0
C1037 C 0.89278 0.69108 0.39176 0.0
C1038 C 0.9238 0.73178 0.42752 0.0
C1039 C 0.94364 0.73553 0.40113 0.0
C1040 C 0.93691 0.71701 0.36967 0.0
C1041 C 0.91191 0.69567 0.365 0.0
C1042 C 1.00937 0.79477 0.38375 0.0
C1043 C 0.02223 0.80193 0.41646 0.0
C1044 C 0.9843 0.77351 0.37879 0.0
C1045 C 0.97094 0.75836 0.40635 0.0
C1046 C 0.98418 0.76539 0.43904 0.0
C1047 C 1.00912 0.78679 0.44398 0.0
H1048 H 0.51171 0.17655 0.94558 0.0
H1049 H 0.51398 0.17595 0.83602 0.0
H1050 H 0.55197 0.21817 0.95065 0.0
H1051 H 0.55256 0.21939 0.84061 0.0
H1052 H 0.64479 0.25797 0.85407 0.0
H1053 H 0.60085 0.22336 0.8507 0.0
H1054 H 0.57575 0.27016 0.94766 0.0
H1055 H 0.62082 0.30378 0.9515 0.0
C1056 C 0.52018 0.18629 0.92257 0.0
C1057 C 0.50975 0.17284 0.8904 0.0
C1058 C 0.54345 0.21023 0.92539 0.0
C1059 C 0.55655 0.22188 0.89604 0.0
C1060 C 0.54424 0.21028 0.86394 0.0
C1061 C 0.52164 0.18571 0.86118 0.0
C1062 C 0.62988 0.26115 0.87466 0.0
C1063 C 0.63639 0.28435 0.9028 0.0
C1064 C 0.60422 0.24139 0.87256 0.0
C1065 C 0.58383 0.24405 0.8985 0.0
C1066 C 0.59053 0.26707 0.92696 0.0
C1067 C 0.61641 0.28684 0.92907 0.0
H1068 H 0.84649 0.06904 0.6697 0.0
H1069 H 0.86758 0.15267 0.74351 0.0
H1070 H 0.85174 0.02867 0.71413 0.0
H1071 H 0.87086 0.11332 0.78824 0.0
H1072 H 0.89908 0.03877 0.86099 0.0
H1073 H 0.8962 0.07493 0.814 0.0
H1074 H 0.83591 1.00266 0.76081 0.0
H1075 H 0.84121 0.96459 0.80746 0.0
C1076 C 0.85215 0.07878 0.69552 0.0
C1077 C 0.85698 0.11403 0.70298 0.0
C1078 C 0.85491 0.05561 0.72124 0.0
C1079 C 0.86209 0.06714 0.75532 0.0
C1080 C 0.86642 0.1027 0.76248 0.0
C1081 C 0.86433 0.12561 0.73671 0.0
C1082 C 0.88495 0.03053 0.83945 0.0
C1083 C 0.86979 0.99897 0.83855 0.0
C1084 C 0.88307 0.05166 0.81225 0.0
C1085 C 0.8651 0.04277 0.78339 0.0
C1086 C 0.85007 0.01082 0.78228 0.0
C1087 C 0.85271 0.98901 0.80932 0.0
H1088 H 0.63763 0.17487 0.45542 0.0
H1089 H 0.68401 0.08404 0.42803 0.0
H1090 H 0.67627 0.19393 0.4959 0.0
H1091 H 0.72344 0.1037 0.46681 0.0
H1092 H 0.78411 0.13281 0.55763 0.0
H1093 H 0.74371 0.11234 0.51998 0.0
H1094 H 0.72052 0.21676 0.50714 0.0
H1095 H 0.75975 0.23666 0.54534 0.0
C1096 C 0.65638 0.15928 0.45745 0.0
C1097 C 0.65751 0.12794 0.43813 0.0
C1098 C 0.67883 0.17022 0.48085 0.0
C1099 C 0.70355 0.15051 0.4854 0.0
C1100 C 0.70478 0.11945 0.46536 0.0
C1101 C 0.68214 0.1083 0.44246 0.0
C1102 C 0.77038 0.15135 0.54669 0.0
C1103 C 0.77565 0.18649 0.55465 0.0
C1104 C 0.74703 0.13962 0.52481 0.0
C1105 C 0.72812 0.16263 0.51003 0.0
C1106 C 0.73357 0.19775 0.51827 0.0
C1107 C 0.75674 0.20936 0.54003 0.0
H1108 H 0.59941 0.94736 0.15473 0.0
H1109 H 0.64994 0.91049 0.23775 0.0
H1110 H 0.58886 0.99897 0.19122 0.0
H1111 H 0.64142 0.96151 0.27238 0.0
H1112 H 0.59777 0.03001 0.34501 0.0
H1113 H 0.6057 0.98373 0.30407 0.0
H1114 H 0.60384 0.05288 0.22285 0.0
H1115 H 0.59455 0.10043 0.26519 0.0
C1116 C 0.60816 0.95014 0.18063 0.0
C1117 C 0.62477 0.92409 0.19354 0.0
C1118 C 0.60239 0.97989 0.20149 0.0
C1119 C 0.61346 0.98434 0.23548 0.0
C1120 C 0.63116 0.95879 0.24724 0.0
C1121 C 0.63628 0.92922 0.22702 0.0
C1122 C 0.59936 0.03591 0.31859 0.0
C1123 C 0.59601 0.06941 0.30879 0.0
C1124 C 0.60416 0.00899 0.29475 0.0
C1125 C 0.60634 0.01417 0.25979 0.0
C1126 C 0.60254 0.04769 0.24951 0.0
C1127 C 0.59763 0.0751 0.27381 0.0
H1128 H 0.83704 0.88696 0.97029 0.0
H1129 H 0.80114 0.98584 0.99266 0.0
H1130 H 0.80261 0.86172 0.00866 0.0
H1131 H 0.76778 0.96112 0.03111 0.0
H1132 H 0.72862 0.91685 0.12243 0.0
H1133 H 0.76565 0.93733 0.08549 0.0
H1134 H 0.75108 0.84779 0.01684 0.0
H1135 H 0.71291 0.82789 0.05346 0.0
C1136 C 0.8217 0.90329 0.98299 0.0
C1137 C 0.82173 0.93844 0.97755 0.0
C1138 C 0.80201 0.88883 1.00522 0.0
C1139 C 0.78234 0.90929 0.02342 0.0
C1140 C 0.7828 0.94444 0.01827 0.0
C1141 C 0.80197 0.95867 0.99577 0.0
C1142 C 0.73321 0.90144 0.09946 0.0
C1143 C 0.71743 0.87084 0.09085 0.0
C1144 C 0.75447 0.91332 0.07805 0.0
C1145 C 0.76119 0.8947 0.04755 0.0
C1146 C 0.74644 0.86311 0.03984 0.0
C1147 C 0.72445 0.85169 0.06081 0.0
H1148 H 0.93844 0.11429 0.68455 0.0
H1149 H 0.91036 0.04066 0.60349 0.0
H1150 H 0.93339 0.07054 0.72605 0.0
H1151 H 0.90703 0.99677 0.6438 0.0
H1152 H 0.88092 0.92547 0.72044 0.0
H1153 H 0.88261 0.97321 0.68506 0.0
H1154 H 0.94975 0.02179 0.75107 0.0
H1155 H 0.94642 0.97383 0.78845 0.0
C1156 C 0.93113 0.08876 0.67556 0.0
C1157 C 0.92445 0.08127 0.64057 0.0
C1158 C 0.92855 0.06339 0.69939 0.0
C1159 C 0.91966 0.0295 0.68893 0.0
C1160 C 0.9131 0.02237 0.65374 0.0
C1161 C 0.91512 0.04775 0.63021 0.0
C1162 C 0.89626 0.94616 0.72758 0.0
C1163 C 0.91409 0.94507 0.75706 0.0
C1164 C 0.89743 0.9738 0.70682 0.0
C1165 C 0.91709 1.0015 0.71388 0.0
C1166 C 0.93435 1.00115 0.74423 0.0
C1167 C 0.93266 0.97346 0.76572 0.0
H1168 H 0.88767 0.10974 0.49256 0.0
H1169 H 0.87184 0.21283 0.52997 0.0
H1170 H 0.84294 0.1071 0.46025 0.0
H1171 H 0.82767 0.21199 0.49463 0.0
H1172 H 0.73897 0.1972 0.44103 0.0
H1173 H 0.78291 0.20106 0.47654 0.0
H1174 H 0.81616 0.11585 0.41593 0.0
H1175 H 0.77204 0.11166 0.38196 0.0
C1176 C 0.87484 0.13239 0.49311 0.0
C1177 C 0.88379 0.16173 0.51347 0.0
C1178 C 0.8489 0.13109 0.47398 0.0
C1179 C 0.83106 0.15961 0.47316 0.0
C1180 C 0.84008 0.18912 0.494 0.0
C1181 C 0.86578 0.18992 0.51426 0.0
C1182 C 0.75542 0.17864 0.43618 0.0
C1183 C 0.75134 0.15322 0.40948 0.0
C1184 C 0.78105 0.18102 0.45644 0.0
C1185 C 0.80357 0.15801 0.45082 0.0
C1186 C 0.79946 0.13325 0.42312 0.0
C1187 C 0.77391 0.13088 0.40304 0.0
H1188 H 0.65371 0.01897 0.09588 0.0
H1189 H 0.68477 0.93832 0.15538 0.0
H1190 H 0.65537 0.05771 0.14646 0.0
H1191 H 0.68718 0.97745 0.20624 0.0
H1192 H 0.65669 0.1338 0.24255 0.0
H1193 H 0.66478 0.06677 0.2089 0.0
H1194 H 0.68168 0.01038 0.25227 0.0
H1195 H 0.68194 0.0506 0.30229 0.0
C1196 C 0.66136 0.00951 0.11969 0.0
C1197 C 0.66892 0.97525 0.12138 0.0
C1198 C 0.66217 0.03181 0.1489 0.0
C1199 C 0.6707 0.02099 0.18099 0.0
C1200 C 0.67981 0.98708 0.18253 0.0
C1201 C 0.67881 0.96448 0.15304 0.0
C1202 C 0.6617 0.10711 0.24366 0.0
C1203 C 0.66948 0.09435 0.27529 0.0
C1204 C 0.66089 0.08752 0.21279 0.0
C1205 C 0.66919 0.04897 0.21402 0.0
C1206 C 0.67615 0.03647 0.24879 0.0
C1207 C 0.6758 0.05959 0.27772 0.0
H1208 H 0.7062 0.8676 0.98056 0.0
H1209 H 0.72685 0.97367 0.96662 0.0
H1210 H 0.74389 0.85095 0.94031 0.0
H1211 H 0.76316 0.95729 0.92672 0.0
H1212 H 0.81021 0.92309 0.83376 0.0
H1213 H 0.76945 0.93278 0.87044 0.0
H1214 H 0.79676 0.85198 0.93232 0.0
H1215 H 0.83845 0.84325 0.89611 0.0
C1216 C 0.71872 0.88736 0.9692 0.0
C1217 C 0.71347 0.92203 0.97759 0.0
C1218 C 0.74029 0.87782 0.94596 0.0
C1219 C 0.75659 0.90273 0.92976 0.0
C1220 C 0.75084 0.9372 0.93783 0.0
C1221 C 0.72991 0.94663 0.96125 0.0
C1222 C 0.80772 0.90751 0.8553 0.0
C1223 C 0.8281 0.88293 0.86233 0.0
C1224 C 0.78424 0.91306 0.87647 0.0
C1225 C 0.77994 0.89375 0.90508 0.0
C1226 C 0.79939 0.86768 0.91088 0.0
C1227 C 0.82345 0.86279 0.89021 0.0
H1228 H 0.97305 0.92008 0.84218 0.0
H1229 H 0.95189 0.85307 0.92118 0.0
H1230 H 1.01635 0.8886 0.83055 0.0
H1231 H 0.99547 0.82119 0.90968 0.0
H1232 H 0.06739 0.80051 0.78615 0.0
H1233 H 0.03001 0.83808 0.80438 0.0
H1234 H 0.04607 0.8146 0.90905 0.0
H1235 H 0.08416 0.77616 0.89037 0.0
C1236 C 0.97757 0.89839 0.85698 0.0
C1237 C 0.95854 0.88866 0.88205 0.0
C1238 C 1.00252 0.88014 0.85027 0.0
C1239 C 1.00952 0.85157 0.86858 0.0
C1240 C 0.99111 0.84291 0.89491 0.0
C1241 C 0.96576 0.86087 0.9012 0.0
C1242 C 0.06331 0.80326 0.81319 0.0
C1243 C 0.07874 0.78444 0.8366 0.0
C1244 C 0.04179 0.82543 0.82382 0.0
C1245 C 0.0345 0.82969 0.85835 0.0
C1246 C 0.0505 0.81172 0.88212 0.0
C1247 C 0.07246 0.78959 0.87142 0.0
H1248 H 0.4564 0.65069 0.11441 0.0
H1249 H 0.4792 0.67865 0.014 0.0
H1250 H 0.49685 0.68503 0.13932 0.0
H1251 H 0.51992 0.71328 0.03887 0.0
H1252 H 0.60016 0.76541 0.09249 0.0
H1253 H 0.56506 0.72278 0.06683 0.0
H1254 H 0.51043 0.74086 0.153 0.0
H1255 H 0.5451 0.78273 0.17819 0.0
C1256 C 0.46992 0.6644 0.09756 0.0
C1257 C 0.46358 0.66281 0.0622 0.0
C1258 C 0.49333 0.6843 0.11193 0.0
C1259 C 0.51165 0.70311 0.09148 0.0
C1260 C 0.50656 0.69944 0.05578 0.0
C1261 C 0.48288 0.67972 0.0414 0.0
C1262 C 0.58053 0.7604 0.10578 0.0
C1263 C 0.57552 0.7781 0.13733 0.0
C1264 C 0.56031 0.73575 0.09109 0.0
C1265 C 0.53448 0.72793 0.10754 0.0
C1266 C 0.52998 0.74531 0.1394 0.0
C1267 C 0.54993 0.76993 0.15385 0.0
H1268 H 0.03519 0.32974 0.67421 0.0
H1269 H 0.02513 0.34339 0.56665 0.0
H1270 H 0.99345 0.28951 0.67067 0.0
H1271 H 0.98322 0.3039 0.56302 0.0
H1272 H 0.88851 0.26778 0.58333 0.0
H1273 H 0.93286 0.30328 0.58377 0.0
H1274 H 0.97586 0.23184 0.6453 0.0
H1275 H 0.93162 0.19609 0.64403 0.0
C1276 C 0.02417 0.32387 0.64979 0.0
C1277 C 0.03357 0.33936 0.62064 0.0
C1278 C 1.00029 0.3008 0.64767 0.0
C1279 C 0.98474 0.29344 0.61654 0.0
C1280 C 0.99434 0.30912 0.58747 0.0
C1281 C 0.0185 0.33156 0.58947 0.0
C1282 C 0.90767 0.25931 0.59622 0.0
C1283 C 0.90678 0.22872 0.61288 0.0
C1284 C 0.93312 0.27966 0.59656 0.0
C1285 C 0.95814 0.2705 0.61452 0.0
C1286 C 0.95714 0.23978 0.6312 0.0
C1287 C 0.93189 0.21904 0.63013 0.0
H1288 H 0.05435 0.64759 0.8284 0.0
H1289 H 0.06095 0.7086 0.92369 0.0
H1290 H 0.02022 0.68712 0.80598 0.0
H1291 H 0.02537 0.74734 0.90196 0.0
H1292 H 0.94534 0.79969 0.85768 0.0
H1293 H 0.97615 0.75733 0.88236 0.0
H1294 H 0.01947 0.7438 0.78687 0.0
H1295 H 0.98944 0.78642 0.76274 0.0
C1296 C 0.04841 0.66934 0.84474 0.0
C1297 C 0.06089 0.675 0.87777 0.0
C1298 C 0.02877 0.69223 0.83178 0.0
C1299 C 0.02018 0.72114 0.85175 0.0
C1300 C 0.03148 0.72572 0.88552 0.0
C1301 C 0.05202 0.70348 0.89804 0.0
C1302 C 0.96184 0.78819 0.84216 0.0
C1303 C 0.96534 0.79763 0.80847 0.0
C1304 C 0.97944 0.76359 0.85628 0.0
C1305 C 1.00062 0.74692 0.83684 0.0
C1306 C 1.00335 0.75557 0.80277 0.0
C1307 C 0.98618 0.78049 0.78894 0.0
H1308 H 0.41688 0.31143 0.28496 0.0
H1309 H 0.3979 0.3199 0.39207 0.0
H1310 H 0.45458 0.27184 0.29607 0.0
H1311 H 0.43566 0.27921 0.40327 0.0
H1312 H 0.52411 0.22602 0.41372 0.0
H1313 H 0.48566 0.26661 0.40634 0.0
H1314 H 0.46215 0.21517 0.30862 0.0
H1315 H 0.49986 0.17417 0.31676 0.0
C1316 C 0.42063 0.3048 0.31103 0.0
C1317 C 0.40391 0.31904 0.33752 0.0
C1318 C 0.44229 0.2816 0.3174 0.0
C1319 C 0.44815 0.2713 0.35054 0.0
C1320 C 0.43204 0.28629 0.37735 0.0
C1321 C 0.41025 0.30974 0.37094 0.0
C1322 C 0.51068 0.22342 0.39067 0.0
C1323 C 0.51533 0.19694 0.36569 0.0
C1324 C 0.48835 0.24659 0.38652 0.0
C1325 C 0.47078 0.245 0.35652 0.0
C1326 C 0.47548 0.21818 0.33171 0.0
C1327 C 0.49711 0.19438 0.33641 0.0
H1328 H 0.02185 0.24497 0.51857 0.0
H1329 H 1.01672 0.19953 0.61535 0.0
H1330 H 0.06283 0.28064 0.54029 0.0
H1331 H 0.05846 0.23389 0.63682 0.0
H1332 H 0.11861 0.32002 0.67884 0.0
H1333 H 0.07838 0.28434 0.65701 0.0
H1334 H 0.11092 0.28687 0.55506 0.0
H1335 H 0.15126 0.32397 0.57725 0.0
C1336 C 0.02945 0.24257 0.5446 0.0
C1337 C 1.01554 0.21945 0.56523 0.0
C1338 C 0.05344 0.26281 0.55703 0.0
C1339 C 0.06475 0.26045 0.5905 0.0
C1340 C 0.05055 0.2374 0.61117 0.0
C1341 C 0.02634 0.21746 0.59884 0.0
C1342 C 0.11738 0.31317 0.65167 0.0
C1343 C 0.1384 0.32557 0.62991 0.0
C1344 C 0.09413 0.29203 0.63902 0.0
C1345 C 0.0907 0.28221 0.60394 0.0
C1346 C 0.11203 0.29415 0.58211 0.0
C1347 C 0.13544 0.31551 0.59486 0.0
H1348 H 0.44777 0.73968 0.0491 0.0
H1349 H 0.4535 0.78418 0.15234 0.0
H1350 H 0.49032 0.77436 0.03505 0.0
H1351 H 0.49562 0.81731 0.13931 0.0
H1352 H 0.58608 0.81448 0.0329 0.0
H1353 H 0.54054 0.78303 0.0403 0.0
H1354 H 0.51632 0.86167 0.11534 0.0
H1355 H 0.56154 0.89188 0.1086 0.0
C1356 C 0.45815 0.75671 0.06879 0.0
C1357 C 0.44733 0.75872 0.10193 0.0
C1358 C 0.48263 0.77668 0.06083 0.0
C1359 C 0.49702 0.79902 0.08592 0.0
C1360 C 0.48532 0.80142 0.11871 0.0
C1361 C 0.46101 0.78189 0.12643 0.0
C1362 C 0.57113 0.82465 0.05134 0.0
C1363 C 0.57794 0.85544 0.07065 0.0
C1364 C 0.54467 0.80686 0.05527 0.0
C1365 C 0.52442 0.81906 0.07904 0.0
C1366 C 0.53131 0.85028 0.09769 0.0
C1367 C 0.5575 0.86795 0.0937 0.0
H1368 H 0.70035 0.41461 0.80717 0.0
H1369 H 0.61321 0.38071 0.82257 0.0
H1370 H 0.68304 0.45705 0.76962 0.0
H1371 H 0.59535 0.42368 0.78574 0.0
H1372 H 0.56883 0.52483 0.74192 0.0
H1373 H 0.58429 0.47728 0.7743 0.0
H1374 H 0.66458 0.47649 0.72123 0.0
H1375 H 0.64883 0.52445 0.68963 0.0
C1376 C 0.67735 0.41698 0.80334 0.0
C1377 C 0.65823 0.39497 0.81909 0.0
C1378 C 0.66719 0.44119 0.78112 0.0
C1379 C 0.6374 0.44512 0.77436 0.0
C1380 C 0.61834 0.42282 0.79039 0.0
C1381 C 0.62858 0.39803 0.81191 0.0
C1382 C 0.59003 0.51486 0.73774 0.0
C1383 C 0.60828 0.53005 0.7147 0.0
C1384 C 0.59889 0.48686 0.75595 0.0
C1385 C 0.62646 0.47286 0.75188 0.0
C1386 C 0.64385 0.48692 0.72694 0.0
C1387 C 0.63491 0.51487 0.70875 0.0
H1388 H 0.87927 0.43029 0.08866 0.0
H1389 H 0.90314 0.32708 0.06144 0.0
H1390 H 0.83598 0.42212 0.05239 0.0
H1391 H 0.86089 0.31933 0.02327 0.0
H1392 H 0.77012 0.30088 0.97772 0.0
H1393 H 0.8127 0.30956 0.01509 0.0
H1394 H 0.81192 0.41781 1.00101 0.0
H1395 H 0.76856 0.40893 0.96476 0.0
C1396 C 0.87553 0.40585 0.0746 0.0
C1397 C 0.89489 0.37924 0.07872 0.0
C1398 C 0.85053 0.40115 0.05326 0.0
C1399 C 0.84403 0.36984 0.03433 0.0
C1400 C 0.86408 0.34364 0.03765 0.0
C1401 C 0.88885 0.34821 0.05941 0.0
C1402 C 0.7789 0.32662 0.98273 0.0
C1403 C 0.76543 0.35415 0.96808 0.0
C1404 C 0.80385 0.33168 1.00407 0.0
C1405 C 0.81674 0.36451 0.01153 0.0
C1406 C 0.80304 0.39208 0.99683 0.0
C1407 C 0.77796 0.38699 0.97562 0.0
H1408 H 0.89882 0.53803 0.38276 0.0
H1409 H 0.82231 0.51952 0.31929 0.0
H1410 H 0.92303 0.49312 0.34978 0.0
H1411 H 0.84528 0.47221 0.28859 0.0
H1412 H 0.9666 0.45286 0.24872 0.0
H1413 H 0.94398 0.48322 0.29656 0.0
H1414 H 0.86714 0.41972 0.27827 0.0
H1415 H 0.89099 0.38732 0.23269 0.0
C1416 C 0.88691 0.52414 0.36212 0.0
C1417 C 0.85885 0.53368 0.35307 0.0
C1418 C 0.90089 0.4981 0.34299 0.0
C1419 C 0.88681 0.47948 0.31505 0.0
C1420 C 0.85754 0.48641 0.30884 0.0
C1421 C 0.84411 0.51359 0.32679 0.0
C1422 C 0.94508 0.44485 0.25531 0.0
C1423 C 0.93046 0.41806 0.23578 0.0
C1424 C 0.93185 0.46256 0.2828 0.0
C1425 C 0.90289 0.45553 0.29067 0.0
C1426 C 0.889 0.42715 0.27256 0.0
C1427 C 0.90278 0.40834 0.24615 0.0
H1428 H 0.74303 0.53478 0.43768 0.0
H1429 H 0.77119 0.63822 0.46771 0.0
H1430 H 0.70905 0.53599 0.48366 0.0
H1431 H 0.73685 0.63961 0.51416 0.0
H1432 H 0.64975 0.6412 0.57069 0.0
H1433 H 0.68673 0.64144 0.52756 0.0
H1434 H 0.70267 0.53562 0.54284 0.0
H1435 H 0.66557 0.53542 0.58561 0.0
C1436 C 0.74226 0.55777 0.4544 0.0
C1437 C 0.76017 0.58634 0.44879 0.0
C1438 C 0.72266 0.55845 0.48107 0.0
C1439 C 0.71982 0.58789 0.5031 0.0
C1440 C 0.73789 0.61652 0.49766 0.0
C1441 C 0.758 0.61561 0.47122 0.0
C1442 C 0.66131 0.61803 0.56509 0.0
C1443 C 0.65448 0.58828 0.58188 0.0
C1444 C 0.68271 0.61818 0.54026 0.0
C1445 C 0.69789 0.58848 0.53108 0.0
C1446 C 0.69126 0.5589 0.54836 0.0
C1447 C 0.67001 0.55882 0.57327 0.0
H1448 H 0.58941 0.48958 0.85546 0.0
H1449 H 0.67579 0.46371 0.88335 0.0
H1450 H 0.60794 0.52801 0.81455 0.0
H1451 H 0.69486 0.50118 0.84141 0.0
H1452 H 0.7187 0.54095 0.73678 0.0
H1453 H 0.70375 0.51069 0.78613 0.0
H1454 H 0.62955 0.57436 0.79522 0.0
H1455 H 0.6449 0.60417 0.74606 0.0
C1456 C 0.61244 0.4914 0.85205 0.0
C1457 C 0.63099 0.47233 0.87161 0.0
C1458 C 0.62335 0.51399 0.82873 0.0
C1459 C 0.65322 0.51744 0.82303 0.0
C1460 C 0.67176 0.49884 0.84359 0.0
C1461 C 0.66082 0.47699 0.86766 0.0
C1462 C 0.69901 0.54804 0.74917 0.0
C1463 C 0.68225 0.57382 0.73637 0.0
C1464 C 0.69038 0.53085 0.77792 0.0
C1465 C 0.66454 0.5387 0.79475 0.0
C1466 C 0.64882 0.56603 0.78274 0.0
C1467 C 0.6576 0.5833 0.75426 0.0
H1468 H 0.77721 0.3333 0.08375 0.0
H1469 H 0.76918 0.44231 0.09778 0.0
H1470 H 0.73818 0.33076 0.04025 0.0
H1471 H 0.73075 0.44013 0.054 0.0
H1472 H 0.67315 0.4295 0.95749 0.0
H1473 H 0.7163 0.43066 0.99504 0.0
H1474 H 0.68689 0.33657 0.03569 0.0
H1475 H 0.64401 0.33573 0.99819 0.0
C1476 C 0.76764 0.35685 0.07688 0.0
C1477 C 0.77656 0.38805 0.09405 0.0
C1478 C 0.74493 0.3554 0.05223 0.0
C1479 C 0.73098 0.38523 0.04337 0.0
C1480 C 0.74096 0.41659 0.05956 0.0
C1481 C 0.76312 0.4179 0.08474 0.0
C1482 C 0.67613 0.40897 0.97428 0.0
C1483 C 0.65544 0.38219 0.97438 0.0
C1484 C 0.70079 0.40969 0.99604 0.0
C1485 C 0.70541 0.38366 0.01864 0.0
C1486 C 0.68462 0.35676 0.01838 0.0
C1487 C 0.65991 0.35623 0.99683 0.0
H1488 H 0.87551 0.60287 0.3133 0.0
H1489 H 0.95898 0.55854 0.30677 0.0
H1490 H 0.85917 0.5688 0.26205 0.0
H1491 H 0.94355 0.52598 0.25458 0.0
H1492 H 0.82937 0.46143 0.21383 0.0
H1493 H 0.84425 0.51417 0.24593 0.0
H1494 H 0.92778 0.50948 0.20051 0.0
H1495 H 0.91196 0.45769 0.16697 0.0
C1496 C 0.89067 0.58651 0.30058 0.0
C1497 C 0.91836 0.5829 0.31502 0.0
C1498 C 0.8812 0.5665 0.27104 0.0
C1499 C 0.89943 0.54287 0.25442 0.0
C1500 C 0.92825 0.54273 0.26667 0.0
C1501 C 0.93731 0.5617 0.29683 0.0
C1502 C 0.85071 0.47207 0.21006 0.0
C1503 C 0.86963 0.45456 0.18826 0.0
C1504 C 0.85946 0.50254 0.22874 0.0
C1505 C 0.88796 0.51576 0.2277 0.0
C1506 C 0.90605 0.49975 0.20352 0.0
C1507 C 0.89688 0.4699 0.18383 0.0
H1508 H 0.88555 0.66674 0.49261 0.0
H1509 H 0.86076 0.56199 0.4645 0.0
H1510 H 0.8485 0.66939 0.53516 0.0
H1511 H 0.82416 0.56391 0.50825 0.0
H1512 H 0.74678 0.58221 0.58015 0.0
H1513 H 0.78088 0.57889 0.53312 0.0
H1514 H 0.8352 0.6563 0.58771 0.0
H1515 H 0.80155 0.65934 0.63357 0.0
C1516 C 0.87232 0.64405 0.4956 0.0
C1517 C 0.87669 0.61411 0.47484 0.0
C1518 C 0.85091 0.64538 0.52057 0.0
C1519 C 0.83296 0.61666 0.52649 0.0
C1520 C 0.83701 0.58683 0.50509 0.0
C1521 C 0.85835 0.58562 0.47984 0.0
C1522 C 0.76568 0.599 0.58163 0.0
C1523 C 0.7708 0.62149 0.61079 0.0
C1524 C 0.78564 0.59694 0.55465 0.0
C1525 C 0.81111 0.61794 0.55533 0.0
C1526 C 0.81585 0.6403 0.58472 0.0
C1527 C 0.79636 0.64188 0.61162 0.0
H1528 H 0.50608 0.6576 0.723 0.0
H1529 H 0.53177 0.67119 0.62018 0.0
H1530 H 0.47375 0.70549 0.72011 0.0
H1531 H 0.49839 0.71834 0.61654 0.0
H1532 H 0.41014 0.77412 0.61023 0.0
H1533 H 0.44749 0.73133 0.61289 0.0
H1534 H 0.46777 0.76614 0.71742 0.0
H1535 H 0.43044 0.80863 0.71472 0.0
C1536 C 0.50537 0.67134 0.69996 0.0
C1537 C 0.52229 0.66068 0.67216 0.0
C1538 C 0.48658 0.69895 0.69818 0.0
C1539 C 0.48304 0.71647 0.66806 0.0
C1540 C 0.50019 0.70589 0.64028 0.0
C1541 C 0.51975 0.67894 0.64248 0.0
C1542 C 0.4226 0.77278 0.6338 0.0
C1543 C 0.41672 0.79499 0.66233 0.0
C1544 C 0.44433 0.74818 0.63531 0.0
C1545 C 0.46094 0.7445 0.66553 0.0
C1546 C 0.45538 0.76729 0.6938 0.0
C1547 C 0.43387 0.79201 0.69219 0.0
H1548 H 0.39058 0.64828 0.23158 0.0
H1549 H 0.44251 0.59923 0.15485 0.0
H1550 H 0.3938 0.59866 0.2656 0.0
H1551 H 0.44676 0.54941 0.18941 0.0
H1552 H 0.42684 0.45201 0.24792 0.0
H1553 H 0.42281 0.50023 0.21109 0.0
H1554 H 0.42491 0.57018 0.30074 0.0
H1555 H 0.42868 0.52254 0.33676 0.0
C1556 C 0.40346 0.62716 0.22251 0.0
C1557 C 0.4171 0.62818 0.19113 0.0
C1558 C 0.40532 0.5985 0.242 0.0
C1559 C 0.42096 0.56976 0.23081 0.0
C1560 C 0.43445 0.57077 0.19906 0.0
C1561 C 0.43245 0.59956 0.17942 0.0
C1562 C 0.42586 0.47769 0.2596 0.0
C1563 C 0.42762 0.48328 0.29538 0.0
C1564 C 0.42406 0.50549 0.23849 0.0
C1565 C 0.42335 0.53953 0.25266 0.0
C1566 C 0.42476 0.54466 0.28852 0.0
C1567 C 0.42698 0.51715 0.30936 0.0
H1568 H 0.29785 0.75634 0.06099 0.0
H1569 H 0.3143 0.66199 0.10743 0.0
H1570 H 0.25524 0.72975 0.0313 0.0
H1571 H 0.27191 0.63549 0.07843 0.0
H1572 H 0.22269 0.58397 0.98662 0.0
H1573 H 0.25697 0.61239 0.02665 0.0
H1574 H 0.20893 0.70496 0.02503 0.0
H1575 H 0.17409 0.67588 0.98424 0.0
C1576 C 0.29237 0.72993 0.06496 0.0
C1577 C 0.31041 0.71098 0.08553 0.0
C1578 C 0.26762 0.71459 0.04809 0.0
C1579 C 0.26015 0.67979 0.05123 0.0
C1580 C 0.27725 0.66176 0.07378 0.0
C1581 C 0.30186 0.67703 0.09052 0.0
C1582 C 0.21914 0.61037 0.99475 0.0
C1583 C 0.19569 0.62763 0.98132 0.0
C1584 C 0.2389 0.62683 0.01832 0.0
C1585 C 0.23646 0.66154 0.02919 0.0
C1586 C 0.21223 0.67853 0.01692 0.0
C1587 C 0.19215 0.66181 0.99336 0.0
H1588 H 0.17646 0.61117 0.80916 0.0
H1589 H 0.13968 0.52123 0.85084 0.0
H1590 H 0.19098 0.57578 0.75855 0.0
H1591 H 0.15297 0.48691 0.8011 0.0
H1592 H 0.18617 0.49791 0.65816 0.0
H1593 H 0.17454 0.53941 0.70563 0.0
H1594 H 0.19389 0.46407 0.77761 0.0
H1595 H 0.20471 0.4238 0.73176 0.0
C1596 C 0.17168 0.58395 0.80774 0.0
C1597 C 0.15719 0.56911 0.83448 0.0
C1598 C 0.17976 0.56369 0.77857 0.0
C1599 C 0.17359 0.52815 0.77561 0.0
C1600 C 0.15899 0.51382 0.80248 0.0
C1601 C 0.15116 0.53375 0.83126 0.0
C1602 C 0.18751 0.49029 0.68416 0.0
C1603 C 0.19594 0.45707 0.69077 0.0
C1604 C 0.18115 0.51416 0.71144 0.0
C1605 C 0.18257 0.50505 0.74575 0.0
C1606 C 0.19152 0.47207 0.75183 0.0
C1607 C 0.19786 0.4487 0.72509 0.0
H1608 H 0.28561 0.45865 0.57856 0.0
H1609 H 0.2787 0.35295 0.54193 0.0
H1610 H 0.32163 0.46934 0.53589 0.0
H1611 H 0.31523 0.36306 0.49971 0.0
H1612 H 0.39675 0.38683 0.44011 0.0
H1613 H 0.36311 0.37512 0.4852 0.0
H1614 H 0.32813 0.47521 0.47766 0.0
H1615 H 0.36228 0.48708 0.4337 0.0
C1616 C 0.29191 0.43762 0.56142 0.0
C1617 C 0.27896 0.40504 0.56345 0.0
C1618 C 0.31252 0.44373 0.53664 0.0
C1619 C 0.32146 0.41725 0.51351 0.0
C1620 C 0.30929 0.38429 0.51678 0.0
C1621 C 0.28805 0.37844 0.54091 0.0
C1622 C 0.38169 0.4062 0.44787 0.0
C1623 C 0.38222 0.43783 0.43279 0.0
C1624 C 0.3623 0.39953 0.47396 0.0
C1625 C 0.34263 0.4242 0.48576 0.0
C1626 C 0.34311 0.45566 0.47024 0.0
C1627 C 0.36258 0.46238 0.44449 0.0
H1628 H 0.34685 0.40842 0.25103 0.0
H1629 H 0.35745 0.49733 0.32097 0.0
H1630 H 0.34737 0.44376 0.20324 0.0
H1631 H 0.3596 0.53363 0.27252 0.0
H1632 H 0.34347 0.59512 0.17906 0.0
H1633 H 0.33957 0.56034 0.22837 0.0
H1634 H 0.37143 0.47427 0.16753 0.0
H1635 H 0.37243 0.50836 0.11824 0.0
C1636 C 0.35004 0.43572 0.25618 0.0
C1637 C 0.35247 0.44987 0.28998 0.0
C1638 C 0.35052 0.45631 0.22844 0.0
C1639 C 0.35386 0.49212 0.23317 0.0
C1640 C 0.35661 0.50637 0.26725 0.0
C1641 C 0.35599 0.48551 0.29527 0.0
C1642 C 0.34853 0.56833 0.17619 0.0
C1643 C 0.35699 0.55399 0.14444 0.0
C1644 C 0.34688 0.54838 0.2047 0.0
C1645 C 0.35478 0.51381 0.20259 0.0
C1646 C 0.36386 0.50004 0.1706 0.0
C1647 C 0.36454 0.51965 0.14199 0.0
H1648 H 0.33722 0.69596 0.01954 0.0
H1649 H 0.3177 0.58964 0.99278 0.0
H1650 H 0.29857 0.71169 0.98008 0.0
H1651 H 0.27886 0.60455 0.95492 0.0
H1652 H 0.21692 0.63473 0.87419 0.0
H1653 H 0.26039 0.62339 0.90664 0.0
H1654 H 0.2498 0.71627 0.96978 0.0
H1655 H 0.20618 0.72747 0.9367 0.0
C1656 C 0.3244 0.67596 1.00559 0.0
C1657 C 0.33016 0.64155 0.00999 0.0
C1658 C 0.30216 0.68488 0.98275 0.0
C1659 C 0.28476 0.65959 0.96402 0.0
C1660 C 0.29154 0.62521 0.96792 0.0
C1661 C 0.3138 0.61646 0.99026 0.0
C1662 C 0.22366 0.65255 0.89532 0.0
C1663 C 0.20748 0.68158 0.90329 0.0
C1664 C 0.24879 0.646 0.91424 0.0
C1665 C 0.25894 0.66835 0.94191 0.0
C1666 C 0.24314 0.69813 0.94901 0.0
C1667 C 0.21767 0.70442 0.9303 0.0
H1668 H 0.11029 0.51717 0.63205 0.0
H1669 H 0.10736 0.45665 0.71975 0.0
H1670 H 0.11255 0.56898 0.66876 0.0
H1671 H 0.11003 0.50912 0.75734 0.0
H1672 H 0.09252 0.61095 0.81566 0.0
H1673 H 0.08751 0.55836 0.77923 0.0
H1674 H 0.14096 0.60386 0.70496 0.0
H1675 H 0.14432 0.65659 0.74041 0.0
C1676 C 0.11072 0.51493 0.65939 0.0
C1677 C 0.10897 0.48268 0.67291 0.0
C1678 C 0.1121 0.54487 0.68066 0.0
C1679 C 0.11187 0.54376 0.71639 0.0
C1680 C 0.11029 0.51131 0.73005 0.0
C1681 C 0.10919 0.48108 0.70855 0.0
C1682 C 0.1025 0.61004 0.79122 0.0
C1683 C 0.11842 0.63845 0.78102 0.0
C1684 C 0.10004 0.57953 0.77038 0.0
C1685 C 0.11371 0.57642 0.73877 0.0
C1686 C 0.12938 0.6051 0.72853 0.0
C1687 C 0.13144 0.63561 0.74909 0.0
H1688 H 0.19061 0.47642 0.56661 0.0
H1689 H 0.15545 0.37664 0.53329 0.0
H1690 H 0.23036 0.46865 0.52815 0.0
H1691 H 0.19486 0.36914 0.49349 0.0
H1692 H 0.28147 0.35778 0.43937 0.0
H1693 H 0.24399 0.36144 0.4819 0.0
H1694 H 0.23912 0.46974 0.46961 0.0
H1695 H 0.27637 0.46558 0.42679 0.0
C1696 C 0.19152 0.45256 0.55123 0.0
C1697 C 0.16964 0.42722 0.55306 0.0
C1698 C 0.21421 0.44828 0.52867 0.0
C1699 C 0.2157 0.41867 0.50664 0.0
C1700 C 0.19467 0.39239 0.50985 0.0
C1701 C 0.17202 0.39656 0.53287 0.0
C1702 C 0.27249 0.38241 0.44607 0.0
C1703 C 0.28234 0.41156 0.43035 0.0
C1704 C 0.25069 0.38449 0.47022 0.0
C1705 C 0.23853 0.41599 0.47999 0.0
C1706 C 0.24833 0.44511 0.46376 0.0
C1707 C 0.26965 0.44282 0.439 0.0
H1708 H 0.50208 0.34087 0.28234 0.0
H1709 H 0.50048 0.33876 0.39175 0.0
H1710 H 0.53845 0.29679 0.28057 0.0
H1711 H 0.53767 0.29595 0.39049 0.0
H1712 H 0.62498 0.24155 0.37586 0.0
H1713 H 0.58616 0.28237 0.38146 0.0
H1714 H 0.54642 0.23837 0.28744 0.0
H1715 H 0.58548 0.19859 0.28156 0.0
C1716 C 0.50943 0.3308 0.30599 0.0
C1717 C 0.49799 0.34276 0.33707 0.0
C1718 C 0.53026 0.30537 0.3051 0.0
C1719 C 0.54092 0.29194 0.3354 0.0
C1720 C 0.53011 0.30517 0.36655 0.0
C1721 C 0.50854 0.3296 0.36729 0.0
C1722 C 0.60754 0.24005 0.3569 0.0
C1723 C 0.60853 0.21679 0.3282 0.0
C1724 C 0.58525 0.26369 0.35992 0.0
C1725 C 0.56326 0.26462 0.33437 0.0
C1726 C 0.56332 0.23958 0.30704 0.0
C1727 C 0.58559 0.21627 0.30393 0.0
loop_
_geom_bond_atom_site_label_1
_geom_bond_atom_site_label_2
_geom_bond_distance
_geom_bond_site_symmetry_2
_ccdc_geom_bond_type
Co0 O1 2.216 . S
Co0 O2 2.091 . S
Co0 O4 2.004 . S
Co0 O10 2.021 . S
Co0 O12 2.137 . S
Co0 O13 2.244 . S
O1 Co0 2.216 . S
O1 C8 1.247 . S
O2 Co0 2.091 . S
O2 C8 1.261 . S
C3 O12 1.247 . S
C3 O13 1.272 . S
O4 Co0 2.004 . S
O4 C9 1.259 . S
Co5 O6 2.061 . S
Co5 O11 2.052 . S
Co5 O13 2.135 . S
O6 Co5 2.061 . S
O6 C9 1.235 . S
C7 O10 1.238 . S
C7 O11 1.241 . S
C8 O1 1.247 . S
C8 O2 1.261 . S
C9 O4 1.259 . S
C9 O6 1.235 . S
O10 Co0 2.021 . S
O10 C7 1.238 . S
O11 Co5 2.052 . S
O11 C7 1.241 . S
O12 Co0 2.137 . S
O12 C3 1.247 . S
O13 Co0 2.244 . S
O13 C3 1.272 . S
O13 Co5 2.135 . S
Co14 O15 2.216 . S
Co14 O16 2.091 . S
Co14 O18 2.004 . S
Co14 O24 2.021 . S
Co14 O26 2.137 . S
Co14 O27 2.244 . S
O15 Co14 2.216 . S
O15 C22 1.247 . S
O16 Co14 2.091 . S
O16 C22 1.261 . S
C17 O26 1.247 . S
C17 O27 1.272 . S
O18 Co14 2.004 . S
O18 C23 1.259 . S
Co19 O20 2.061 . S
Co19 O25 2.052 . S
Co19 O27 2.135 . S
O20 Co19 2.061 . S
O20 C23 1.235 . S
C21 O24 1.238 . S
C21 O25 1.241 . S
C22 O15 1.247 . S
C22 O16 1.261 . S
C23 O18 1.259 . S
C23 O20 1.235 . S
O24 Co14 2.021 . S
O24 C21 1.238 . S
O25 Co19 2.052 . S
O25 C21 1.241 . S
O26 Co14 2.137 . S
O26 C17 1.247 . S
O27 Co14 2.244 . S
O27 C17 1.272 . S
O27 Co19 2.135 . S
Co28 O29 2.216 . S
Co28 O30 2.091 . S
Co28 O32 2.004 . S
Co28 O38 2.021 . S
Co28 O40 2.137 . S
Co28 O41 2.244 . S
O29 Co28 2.216 . S
O29 C36 1.247 . S
O30 Co28 2.091 . S
O30 C36 1.261 . S
C31 O40 1.247 . S
C31 O41 1.272 . S
O32 Co28 2.004 . S
O32 C37 1.259 . S
Co33 O34 2.061 . S
Co33 O39 2.052 . S
Co33 O41 2.135 . S
O34 Co33 2.061 . S
O34 C37 1.235 . S
C35 O38 1.238 . S
C35 O39 1.241 . S
C36 O29 1.247 . S
C36 O30 1.261 . S
C37 O32 1.259 . S
C37 O34 1.235 . S
O38 Co28 2.021 . S
O38 C35 1.238 . S
O39 Co33 2.052 . S
O39 C35 1.241 . S
O40 Co28 2.137 . S
O40 C31 1.247 . S
O41 Co28 2.244 . S
O41 C31 1.272 . S
O41 Co33 2.135 . S
Co42 O43 2.216 . S
Co42 O44 2.091 . S
Co42 O46 2.004 . S
Co42 O52 2.021 . S
Co42 O54 2.137 . S
Co42 O55 2.244 . S
O43 Co42 2.216 . S
O43 C50 1.247 . S
O44 Co42 2.091 . S
O44 C50 1.261 . S
C45 O54 1.247 . S
C45 O55 1.272 . S
O46 Co42 2.004 . S
O46 C51 1.259 . S
Co47 O48 2.061 . S
Co47 O53 2.052 . S
Co47 O55 2.135 . S
O48 Co47 2.061 . S
O48 C51 1.235 . S
C49 O52 1.238 . S
C49 O53 1.241 . S
C50 O43 1.247 . S
C50 O44 1.261 . S
C51 O46 1.259 . S
C51 O48 1.235 . S
O52 Co42 2.021 . S
O52 C49 1.238 . S
O53 Co47 2.052 . S
O53 C49 1.241 . S
O54 Co42 2.137 . S
O54 C45 1.247 . S
O55 Co42 2.244 . S
O55 C45 1.272 . S
O55 Co47 2.135 . S
Co56 O57 2.216 . S
Co56 O58 2.091 . S
Co56 O60 2.004 . S
Co56 O66 2.021 . S
Co56 O68 2.137 . S
Co56 O69 2.244 . S
O57 Co56 2.216 . S
O57 C64 1.247 . S
O58 Co56 2.091 . S
O58 C64 1.261 . S
C59 O68 1.247 . S
C59 O69 1.272 . S
O60 Co56 2.004 . S
O60 C65 1.259 . S
Co61 O62 2.061 . S
Co61 O67 2.052 . S
Co61 O69 2.135 . S
O62 Co61 2.061 . S
O62 C65 1.235 . S
C63 O66 1.238 . S
C63 O67 1.241 . S
C64 O57 1.247 . S
C64 O58 1.261 . S
C65 O60 1.259 . S
C65 O62 1.235 . S
O66 Co56 2.021 . S
O66 C63 1.238 . S
O67 Co61 2.052 . S
O67 C63 1.241 . S
O68 Co56 2.137 . S
O68 C59 1.247 . S
O69 Co56 2.244 . S
O69 C59 1.272 . S
O69 Co61 2.135 . S
Co70 O71 2.216 . S
Co70 O72 2.091 . S
Co70 O74 2.004 . S
Co70 O80 2.021 . S
Co70 O82 2.137 . S
Co70 O83 2.244 . S
O71 Co70 2.216 . S
O71 C78 1.247 . S
O72 Co70 2.091 . S
O72 C78 1.261 . S
C73 O82 1.247 . S
C73 O83 1.272 . S
O74 Co70 2.004 . S
O74 C79 1.259 . S
Co75 O76 2.061 . S
Co75 O81 2.052 . S
Co75 O83 2.135 . S
O76 Co75 2.061 . S
O76 C79 1.235 . S
C77 O80 1.238 . S
C77 O81 1.241 . S
C78 O71 1.247 . S
C78 O72 1.261 . S
C79 O74 1.259 . S
C79 O76 1.235 . S
O80 Co70 2.021 . S
O80 C77 1.238 . S
O81 Co75 2.052 . S
O81 C77 1.241 . S
O82 Co70 2.137 . S
O82 C73 1.247 . S
O83 Co70 2.244 . S
O83 C73 1.272 . S
O83 Co75 2.135 . S
Co84 O85 2.216 . S
Co84 O86 2.091 . S
Co84 O88 2.004 . S
Co84 O94 2.021 . S
Co84 O96 2.137 . S
Co84 O97 2.244 . S
O85 Co84 2.216 . S
O85 C92 1.247 . S
O86 Co84 2.091 . S
O86 C92 1.261 . S
C87 O96 1.247 . S
C87 O97 1.272 . S
O88 Co84 2.004 . S
O88 C93 1.259 . S
Co89 O90 2.061 . S
Co89 O95 2.052 . S
Co89 O97 2.135 . S
O90 Co89 2.061 . S
O90 C93 1.235 . S
C91 O94 1.238 . S
C91 O95 1.241 . S
C92 O85 1.247 . S
C92 O86 1.261 . S
C93 O88 1.259 . S
C93 O90 1.235 . S
O94 Co84 2.021 . S
O94 C91 1.238 . S
O95 Co89 2.052 . S
O95 C91 1.241 . S
O96 Co84 2.137 . S
O96 C87 1.247 . S
O97 Co84 2.244 . S
O97 C87 1.272 . S
O97 Co89 2.135 . S
Co98 O99 2.216 . S
Co98 O100 2.091 . S
Co98 O102 2.004 . S
Co98 O108 2.021 . S
Co98 O110 2.137 . S
Co98 O111 2.244 . S
O99 Co98 2.216 . S
O99 C106 1.247 . S
O100 Co98 2.091 . S
O100 C106 1.261 . S
C101 O110 1.247 . S
C101 O111 1.272 . S
O102 Co98 2.004 . S
O102 C107 1.259 . S
Co103 O104 2.061 . S
Co103 O109 2.052 . S
Co103 O111 2.135 . S
O104 Co103 2.061 . S
O104 C107 1.235 . S
C105 O108 1.238 . S
C105 O109 1.241 . S
C106 O99 1.247 . S
C106 O100 1.261 . S
C107 O102 1.259 . S
C107 O104 1.235 . S
O108 Co98 2.021 . S
O108 C105 1.238 . S
O109 Co103 2.052 . S
O109 C105 1.241 . S
O110 Co98 2.137 . S
O110 C101 1.247 . S
O111 Co98 2.244 . S
O111 C101 1.272 . S
O111 Co103 2.135 . S
Co112 O113 2.216 . S
Co112 O114 2.091 . S
Co112 O116 2.004 . S
Co112 O122 2.021 . S
Co112 O124 2.137 . S
Co112 O125 2.244 . S
O113 Co112 2.216 . S
O113 C120 1.247 . S
O114 Co112 2.091 . S
O114 C120 1.261 . S
C115 O124 1.247 . S
C115 O125 1.272 . S
O116 Co112 2.004 . S
O116 C121 1.259 . S
Co117 O118 2.061 . S
Co117 O123 2.052 . S
Co117 O125 2.135 . S
O118 Co117 2.061 . S
O118 C121 1.235 . S
C119 O122 1.238 . S
C119 O123 1.241 . S
C120 O113 1.247 . S
C120 O114 1.261 . S
C121 O116 1.259 . S
C121 O118 1.235 . S
O122 Co112 2.021 . S
O122 C119 1.238 . S
O123 Co117 2.052 . S
O123 C119 1.241 . S
O124 Co112 2.137 . S
O124 C115 1.247 . S
O125 Co112 2.244 . S
O125 C115 1.272 . S
O125 Co117 2.135 . S
Co126 O127 2.216 . S
Co126 O128 2.091 . S
Co126 O130 2.004 . S
Co126 O136 2.021 . S
Co126 O138 2.137 . S
Co126 O139 2.244 . S
O127 Co126 2.216 . S
O127 C134 1.247 . S
O128 Co126 2.091 . S
O128 C134 1.261 . S
C129 O138 1.247 . S
C129 O139 1.272 . S
O130 Co126 2.004 . S
O130 C135 1.259 . S
Co131 O132 2.061 . S
Co131 O137 2.052 . S
Co131 O139 2.135 . S
O132 Co131 2.061 . S
O132 C135 1.235 . S
C133 O136 1.238 . S
C133 O137 1.241 . S
C134 O127 1.247 . S
C134 O128 1.261 . S
C135 O130 1.259 . S
C135 O132 1.235 . S
O136 Co126 2.021 . S
O136 C133 1.238 . S
O137 Co131 2.052 . S
O137 C133 1.241 . S
O138 Co126 2.137 . S
O138 C129 1.247 . S
O139 Co126 2.244 . S
O139 C129 1.272 . S
O139 Co131 2.135 . S
Co140 O141 2.216 . S
Co140 O142 2.091 . S
Co140 O144 2.004 . S
Co140 O150 2.021 . S
Co140 O152 2.137 . S
Co140 O153 2.244 . S
O141 Co140 2.216 . S
O141 C148 1.247 . S
O142 Co140 2.091 . S
O142 C148 1.261 . S
C143 O152 1.247 . S
C143 O153 1.272 . S
O144 Co140 2.004 . S
O144 C149 1.259 . S
Co145 O146 2.061 . S
Co145 O151 2.052 . S
Co145 O153 2.135 . S
O146 Co145 2.061 . S
O146 C149 1.235 . S
C147 O150 1.238 . S
C147 O151 1.241 . S
C148 O141 1.247 . S
C148 O142 1.261 . S
C149 O144 1.259 . S
C149 O146 1.235 . S
O150 Co140 2.021 . S
O150 C147 1.238 . S
O151 Co145 2.052 . S
O151 C147 1.241 . S
O152 Co140 2.137 . S
O152 C143 1.247 . S
O153 Co140 2.244 . S
O153 C143 1.272 . S
O153 Co145 2.135 . S
Co154 O155 2.216 . S
Co154 O156 2.091 . S
Co154 O158 2.004 . S
Co154 O164 2.021 . S
Co154 O166 2.137 . S
Co154 O167 2.244 . S
O155 Co154 2.216 . S
O155 C162 1.247 . S
O156 Co154 2.091 . S
O156 C162 1.261 . S
C157 O166 1.247 . S
C157 O167 1.272 . S
O158 Co154 2.004 . S
O158 C163 1.259 . S
Co159 O160 2.061 . S
Co159 O165 2.052 . S
Co159 O167 2.135 . S
O160 Co159 2.061 . S
O160 C163 1.235 . S
C161 O164 1.238 . S
C161 O165 1.241 . S
C162 O155 1.247 . S
C162 O156 1.261 . S
C163 O158 1.259 . S
C163 O160 1.235 . S
O164 Co154 2.021 . S
O164 C161 1.238 . S
O165 Co159 2.052 . S
O165 C161 1.241 . S
O166 Co154 2.137 . S
O166 C157 1.247 . S
O167 Co154 2.244 . S
O167 C157 1.272 . S
O167 Co159 2.135 . S
Co168 O169 2.216 . S
Co168 O170 2.091 . S
Co168 O172 2.004 . S
Co168 O178 2.021 . S
Co168 O180 2.137 . S
Co168 O181 2.244 . S
O169 Co168 2.216 . S
O169 C176 1.247 . S
O170 Co168 2.091 . S
O170 C176 1.261 . S
C171 O180 1.247 . S
C171 O181 1.272 . S
O172 Co168 2.004 . S
O172 C177 1.259 . S
Co173 O174 2.061 . S
Co173 O179 2.052 . S
Co173 O181 2.135 . S
O174 Co173 2.061 . S
O174 C177 1.235 . S
C175 O178 1.238 . S
C175 O179 1.241 . S
C176 O169 1.247 . S
C176 O170 1.261 . S
C177 O172 1.259 . S
C177 O174 1.235 . S
O178 Co168 2.021 . S
O178 C175 1.238 . S
O179 Co173 2.052 . S
O179 C175 1.241 . S
O180 Co168 2.137 . S
O180 C171 1.247 . S
O181 Co168 2.244 . S
O181 C171 1.272 . S
O181 Co173 2.135 . S
Co182 O183 2.216 . S
Co182 O184 2.091 . S
Co182 O186 2.004 . S
Co182 O192 2.021 . S
Co182 O194 2.137 . S
Co182 O195 2.244 . S
O183 Co182 2.216 . S
O183 C190 1.247 . S
O184 Co182 2.091 . S
O184 C190 1.261 . S
C185 O194 1.247 . S
C185 O195 1.272 . S
O186 Co182 2.004 . S
O186 C191 1.259 . S
Co187 O188 2.061 . S
Co187 O193 2.052 . S
Co187 O195 2.135 . S
O188 Co187 2.061 . S
O188 C191 1.235 . S
C189 O192 1.238 . S
C189 O193 1.241 . S
C190 O183 1.247 . S
C190 O184 1.261 . S
C191 O186 1.259 . S
C191 O188 1.235 . S
O192 Co182 2.021 . S
O192 C189 1.238 . S
O193 Co187 2.052 . S
O193 C189 1.241 . S
O194 Co182 2.137 . S
O194 C185 1.247 . S
O195 Co182 2.244 . S
O195 C185 1.272 . S
O195 Co187 2.135 . S
Co196 O197 2.216 . S
Co196 O198 2.091 . S
Co196 O200 2.004 . S
Co196 O206 2.021 . S
Co196 O208 2.137 . S
Co196 O209 2.244 . S
O197 Co196 2.216 . S
O197 C204 1.247 . S
O198 Co196 2.091 . S
O198 C204 1.261 . S
C199 O208 1.247 . S
C199 O209 1.272 . S
O200 Co196 2.004 . S
O200 C205 1.259 . S
Co201 O202 2.061 . S
Co201 O207 2.052 . S
Co201 O209 2.135 . S
O202 Co201 2.061 . S
O202 C205 1.235 . S
C203 O206 1.238 . S
C203 O207 1.241 . S
C204 O197 1.247 . S
C204 O198 1.261 . S
C205 O200 1.259 . S
C205 O202 1.235 . S
O206 Co196 2.021 . S
O206 C203 1.238 . S
O207 Co201 2.052 . S
O207 C203 1.241 . S
O208 Co196 2.137 . S
O208 C199 1.247 . S
O209 Co196 2.244 . S
O209 C199 1.272 . S
O209 Co201 2.135 . S
Co210 O211 2.216 . S
Co210 O212 2.091 . S
Co210 O214 2.004 . S
Co210 O220 2.021 . S
Co210 O222 2.137 . S
Co210 O223 2.244 . S
O211 Co210 2.216 . S
O211 C218 1.247 . S
O212 Co210 2.091 . S
O212 C218 1.261 . S
C213 O222 1.247 . S
C213 O223 1.272 . S
O214 Co210 2.004 . S
O214 C219 1.259 . S
Co215 O216 2.061 . S
Co215 O221 2.052 . S
Co215 O223 2.135 . S
O216 Co215 2.061 . S
O216 C219 1.235 . S
C217 O220 1.238 . S
C217 O221 1.241 . S
C218 O211 1.247 . S
C218 O212 1.261 . S
C219 O214 1.259 . S
C219 O216 1.235 . S
O220 Co210 2.021 . S
O220 C217 1.238 . S
O221 Co215 2.052 . S
O221 C217 1.241 . S
O222 Co210 2.137 . S
O222 C213 1.247 . S
O223 Co210 2.244 . S
O223 C213 1.272 . S
O223 Co215 2.135 . S
Co224 O225 2.216 . S
Co224 O226 2.091 . S
Co224 O228 2.004 . S
Co224 O234 2.021 . S
Co224 O236 2.137 . S
Co224 O237 2.244 . S
O225 Co224 2.216 . S
O225 C232 1.247 . S
O226 Co224 2.091 . S
O226 C232 1.261 . S
C227 O236 1.247 . S
C227 O237 1.272 . S
O228 Co224 2.004 . S
O228 C233 1.259 . S
Co229 O230 2.061 . S
Co229 O235 2.052 . S
Co229 O237 2.135 . S
O230 Co229 2.061 . S
O230 C233 1.235 . S
C231 O234 1.238 . S
C231 O235 1.241 . S
C232 O225 1.247 . S
C232 O226 1.261 . S
C233 O228 1.259 . S
C233 O230 1.235 . S
O234 Co224 2.021 . S
O234 C231 1.238 . S
O235 Co229 2.052 . S
O235 C231 1.241 . S
O236 Co224 2.137 . S
O236 C227 1.247 . S
O237 Co224 2.244 . S
O237 C227 1.272 . S
O237 Co229 2.135 . S
Co238 O239 2.216 . S
Co238 O240 2.091 . S
Co238 O242 2.004 . S
Co238 O248 2.021 . S
Co238 O250 2.137 . S
Co238 O251 2.244 . S
O239 Co238 2.216 . S
O239 C246 1.247 . S
O240 Co238 2.091 . S
O240 C246 1.261 . S
C241 O250 1.247 . S
C241 O251 1.272 . S
O242 Co238 2.004 . S
O242 C247 1.259 . S
Co243 O244 2.061 . S
Co243 O249 2.052 . S
Co243 O251 2.135 . S
O244 Co243 2.061 . S
O244 C247 1.235 . S
C245 O248 1.238 . S
C245 O249 1.241 . S
C246 O239 1.247 . S
C246 O240 1.261 . S
C247 O242 1.259 . S
C247 O244 1.235 . S
O248 Co238 2.021 . S
O248 C245 1.238 . S
O249 Co243 2.052 . S
O249 C245 1.241 . S
O250 Co238 2.137 . S
O250 C241 1.247 . S
O251 Co238 2.244 . S
O251 C241 1.272 . S
O251 Co243 2.135 . S
Co252 O253 2.216 . S
Co252 O254 2.091 . S
Co252 O256 2.004 . S
Co252 O262 2.021 . S
Co252 O264 2.137 . S
Co252 O265 2.244 . S
O253 Co252 2.216 . S
O253 C260 1.247 . S
O254 Co252 2.091 . S
O254 C260 1.261 . S
C255 O264 1.247 . S
C255 O265 1.272 . S
O256 Co252 2.004 . S
O256 C261 1.259 . S
Co257 O258 2.061 . S
Co257 O263 2.052 . S
Co257 O265 2.135 . S
O258 Co257 2.061 . S
O258 C261 1.235 . S
C259 O262 1.238 . S
C259 O263 1.241 . S
C260 O253 1.247 . S
C260 O254 1.261 . S
C261 O256 1.259 . S
C261 O258 1.235 . S
O262 Co252 2.021 . S
O262 C259 1.238 . S
O263 Co257 2.052 . S
O263 C259 1.241 . S
O264 Co252 2.137 . S
O264 C255 1.247 . S
O265 Co252 2.244 . S
O265 C255 1.272 . S
O265 Co257 2.135 . S
Co266 O267 2.216 . S
Co266 O268 2.091 . S
Co266 O270 2.004 . S
Co266 O276 2.021 . S
Co266 O278 2.137 . S
Co266 O279 2.244 . S
O267 Co266 2.216 . S
O267 C274 1.247 . S
O268 Co266 2.091 . S
O268 C274 1.261 . S
C269 O278 1.247 . S
C269 O279 1.272 . S
O270 Co266 2.004 . S
O270 C275 1.259 . S
Co271 O272 2.061 . S
Co271 O277 2.052 . S
Co271 O279 2.135 . S
O272 Co271 2.061 . S
O272 C275 1.235 . S
C273 O276 1.238 . S
C273 O277 1.241 . S
C274 O267 1.247 . S
C274 O268 1.261 . S
C275 O270 1.259 . S
C275 O272 1.235 . S
O276 Co266 2.021 . S
O276 C273 1.238 . S
O277 Co271 2.052 . S
O277 C273 1.241 . S
O278 Co266 2.137 . S
O278 C269 1.247 . S
O279 Co266 2.244 . S
O279 C269 1.272 . S
O279 Co271 2.135 . S
Co280 O281 2.216 . S
Co280 O282 2.091 . S
Co280 O284 2.004 . S
Co280 O290 2.021 . S
Co280 O292 2.137 . S
Co280 O293 2.244 . S
O281 Co280 2.216 . S
O281 C288 1.247 . S
O282 Co280 2.091 . S
O282 C288 1.261 . S
C283 O292 1.247 . S
C283 O293 1.272 . S
O284 Co280 2.004 . S
O284 C289 1.259 . S
Co285 O286 2.061 . S
Co285 O291 2.052 . S
Co285 O293 2.135 . S
O286 Co285 2.061 . S
O286 C289 1.235 . S
C287 O290 1.238 . S
C287 O291 1.241 . S
C288 O281 1.247 . S
C288 O282 1.261 . S
C289 O284 1.259 . S
C289 O286 1.235 . S
O290 Co280 2.021 . S
O290 C287 1.238 . S
O291 Co285 2.052 . S
O291 C287 1.241 . S
O292 Co280 2.137 . S
O292 C283 1.247 . S
O293 Co280 2.244 . S
O293 C283 1.272 . S
O293 Co285 2.135 . S
Co294 O295 2.216 . S
Co294 O296 2.091 . S
Co294 O298 2.004 . S
Co294 O304 2.021 . S
Co294 O306 2.137 . S
Co294 O307 2.244 . S
O295 Co294 2.216 . S
O295 C302 1.247 . S
O296 Co294 2.091 . S
O296 C302 1.261 . S
C297 O306 1.247 . S
C297 O307 1.272 . S
O298 Co294 2.004 . S
O298 C303 1.259 . S
Co299 O300 2.061 . S
Co299 O305 2.052 . S
Co299 O307 2.135 . S
O300 Co299 2.061 . S
O300 C303 1.235 . S
C301 O304 1.238 . S
C301 O305 1.241 . S
C302 O295 1.247 . S
C302 O296 1.261 . S
C303 O298 1.259 . S
C303 O300 1.235 . S
O304 Co294 2.021 . S
O304 C301 1.238 . S
O305 Co299 2.052 . S
O305 C301 1.241 . S
O306 Co294 2.137 . S
O306 C297 1.247 . S
O307 Co294 2.244 . S
O307 C297 1.272 . S
O307 Co299 2.135 . S
Co308 O309 2.216 . S
Co308 O310 2.091 . S
Co308 O312 2.004 . S
Co308 O318 2.021 . S
Co308 O320 2.137 . S
Co308 O321 2.244 . S
O309 Co308 2.216 . S
O309 C316 1.247 . S
O310 Co308 2.091 . S
O310 C316 1.261 . S
C311 O320 1.247 . S
C311 O321 1.272 . S
O312 Co308 2.004 . S
O312 C317 1.259 . S
Co313 O314 2.061 . S
Co313 O319 2.052 . S
Co313 O321 2.135 . S
O314 Co313 2.061 . S
O314 C317 1.235 . S
C315 O318 1.238 . S
C315 O319 1.241 . S
C316 O309 1.247 . S
C316 O310 1.261 . S
C317 O312 1.259 . S
C317 O314 1.235 . S
O318 Co308 2.021 . S
O318 C315 1.238 . S
O319 Co313 2.052 . S
O319 C315 1.241 . S
O320 Co308 2.137 . S
O320 C311 1.247 . S
O321 Co308 2.244 . S
O321 C311 1.272 . S
O321 Co313 2.135 . S
Co322 O323 2.216 . S
Co322 O324 2.091 . S
Co322 O326 2.004 . S
Co322 O332 2.021 . S
Co322 O334 2.137 . S
Co322 O335 2.244 . S
O323 Co322 2.216 . S
O323 C330 1.247 . S
O324 Co322 2.091 . S
O324 C330 1.261 . S
C325 O334 1.247 . S
C325 O335 1.272 . S
O326 Co322 2.004 . S
O326 C331 1.259 . S
Co327 O328 2.061 . S
Co327 O333 2.052 . S
Co327 O335 2.135 . S
O328 Co327 2.061 . S
O328 C331 1.235 . S
C329 O332 1.238 . S
C329 O333 1.241 . S
C330 O323 1.247 . S
C330 O324 1.261 . S
C331 O326 1.259 . S
C331 O328 1.235 . S
O332 Co322 2.021 . S
O332 C329 1.238 . S
O333 Co327 2.052 . S
O333 C329 1.241 . S
O334 Co322 2.137 . S
O334 C325 1.247 . S
O335 Co322 2.244 . S
O335 C325 1.272 . S
O335 Co327 2.135 . S
Co336 O337 2.216 . S
Co336 O338 2.091 . S
Co336 O340 2.004 . S
Co336 O346 2.021 . S
Co336 O348 2.137 . S
Co336 O349 2.244 . S
O337 Co336 2.216 . S
O337 C344 1.247 . S
O338 Co336 2.091 . S
O338 C344 1.261 . S
C339 O348 1.247 . S
C339 O349 1.272 . S
O340 Co336 2.004 . S
O340 C345 1.259 . S
Co341 O342 2.061 . S
Co341 O347 2.052 . S
Co341 O349 2.135 . S
O342 Co341 2.061 . S
O342 C345 1.235 . S
C343 O346 1.238 . S
C343 O347 1.241 . S
C344 O337 1.247 . S
C344 O338 1.261 . S
C345 O340 1.259 . S
C345 O342 1.235 . S
O346 Co336 2.021 . S
O346 C343 1.238 . S
O347 Co341 2.052 . S
O347 C343 1.241 . S
O348 Co336 2.137 . S
O348 C339 1.247 . S
O349 Co336 2.244 . S
O349 C339 1.272 . S
O349 Co341 2.135 . S
Co350 O351 2.216 . S
Co350 O352 2.091 . S
Co350 O354 2.004 . S
Co350 O360 2.021 . S
Co350 O362 2.137 . S
Co350 O363 2.244 . S
O351 Co350 2.216 . S
O351 C358 1.247 . S
O352 Co350 2.091 . S
O352 C358 1.261 . S
C353 O362 1.247 . S
C353 O363 1.272 . S
O354 Co350 2.004 . S
O354 C359 1.259 . S
Co355 O356 2.061 . S
Co355 O361 2.052 . S
Co355 O363 2.135 . S
O356 Co355 2.061 . S
O356 C359 1.235 . S
C357 O360 1.238 . S
C357 O361 1.241 . S
C358 O351 1.247 . S
C358 O352 1.261 . S
C359 O354 1.259 . S
C359 O356 1.235 . S
O360 Co350 2.021 . S
O360 C357 1.238 . S
O361 Co355 2.052 . S
O361 C357 1.241 . S
O362 Co350 2.137 . S
O362 C353 1.247 . S
O363 Co350 2.244 . S
O363 C353 1.272 . S
O363 Co355 2.135 . S
Co364 O365 2.216 . S
Co364 O366 2.091 . S
Co364 O368 2.004 . S
Co364 O374 2.021 . S
Co364 O376 2.137 . S
Co364 O377 2.244 . S
O365 Co364 2.216 . S
O365 C372 1.247 . S
O366 Co364 2.091 . S
O366 C372 1.261 . S
C367 O376 1.247 . S
C367 O377 1.272 . S
O368 Co364 2.004 . S
O368 C373 1.259 . S
Co369 O370 2.061 . S
Co369 O375 2.052 . S
Co369 O377 2.135 . S
O370 Co369 2.061 . S
O370 C373 1.235 . S
C371 O374 1.238 . S
C371 O375 1.241 . S
C372 O365 1.247 . S
C372 O366 1.261 . S
C373 O368 1.259 . S
C373 O370 1.235 . S
O374 Co364 2.021 . S
O374 C371 1.238 . S
O375 Co369 2.052 . S
O375 C371 1.241 . S
O376 Co364 2.137 . S
O376 C367 1.247 . S
O377 Co364 2.244 . S
O377 C367 1.272 . S
O377 Co369 2.135 . S
Co378 O379 2.216 . S
Co378 O380 2.091 . S
Co378 O382 2.004 . S
Co378 O388 2.021 . S
Co378 O390 2.137 . S
Co378 O391 2.244 . S
O379 Co378 2.216 . S
O379 C386 1.247 . S
O380 Co378 2.091 . S
O380 C386 1.261 . S
C381 O390 1.247 . S
C381 O391 1.272 . S
O382 Co378 2.004 . S
O382 C387 1.259 . S
Co383 O384 2.061 . S
Co383 O389 2.052 . S
Co383 O391 2.135 . S
O384 Co383 2.061 . S
O384 C387 1.235 . S
C385 O388 1.238 . S
C385 O389 1.241 . S
C386 O379 1.247 . S
C386 O380 1.261 . S
C387 O382 1.259 . S
C387 O384 1.235 . S
O388 Co378 2.021 . S
O388 C385 1.238 . S
O389 Co383 2.052 . S
O389 C385 1.241 . S
O390 Co378 2.137 . S
O390 C381 1.247 . S
O391 Co378 2.244 . S
O391 C381 1.272 . S
O391 Co383 2.135 . S
Co392 O393 2.216 . S
Co392 O394 2.091 . S
Co392 O396 2.004 . S
Co392 O402 2.021 . S
Co392 O404 2.137 . S
Co392 O405 2.244 . S
O393 Co392 2.216 . S
O393 C400 1.247 . S
O394 Co392 2.091 . S
O394 C400 1.261 . S
C395 O404 1.247 . S
C395 O405 1.272 . S
O396 Co392 2.004 . S
O396 C401 1.259 . S
Co397 O398 2.061 . S
Co397 O403 2.052 . S
Co397 O405 2.135 . S
O398 Co397 2.061 . S
O398 C401 1.235 . S
C399 O402 1.238 . S
C399 O403 1.241 . S
C400 O393 1.247 . S
C400 O394 1.261 . S
C401 O396 1.259 . S
C401 O398 1.235 . S
O402 Co392 2.021 . S
O402 C399 1.238 . S
O403 Co397 2.052 . S
O403 C399 1.241 . S
O404 Co392 2.137 . S
O404 C395 1.247 . S
O405 Co392 2.244 . S
O405 C395 1.272 . S
O405 Co397 2.135 . S
Co406 O407 2.216 . S
Co406 O408 2.091 . S
Co406 O410 2.004 . S
Co406 O416 2.021 . S
Co406 O418 2.137 . S
Co406 O419 2.244 . S
O407 Co406 2.216 . S
O407 C414 1.247 . S
O408 Co406 2.091 . S
O408 C414 1.261 . S
C409 O418 1.247 . S
C409 O419 1.272 . S
O410 Co406 2.004 . S
O410 C415 1.259 . S
Co411 O412 2.061 . S
Co411 O417 2.052 . S
Co411 O419 2.135 . S
O412 Co411 2.061 . S
O412 C415 1.235 . S
C413 O416 1.238 . S
C413 O417 1.241 . S
C414 O407 1.247 . S
C414 O408 1.261 . S
C415 O410 1.259 . S
C415 O412 1.235 . S
O416 Co406 2.021 . S
O416 C413 1.238 . S
O417 Co411 2.052 . S
O417 C413 1.241 . S
O418 Co406 2.137 . S
O418 C409 1.247 . S
O419 Co406 2.244 . S
O419 C409 1.272 . S
O419 Co411 2.135 . S
Co420 O421 2.216 . S
Co420 O422 2.091 . S
Co420 O424 2.004 . S
Co420 O430 2.021 . S
Co420 O432 2.137 . S
Co420 O433 2.244 . S
O421 Co420 2.216 . S
O421 C428 1.247 . S
O422 Co420 2.091 . S
O422 C428 1.261 . S
C423 O432 1.247 . S
C423 O433 1.272 . S
O424 Co420 2.004 . S
O424 C429 1.259 . S
Co425 O426 2.061 . S
Co425 O431 2.052 . S
Co425 O433 2.135 . S
O426 Co425 2.061 . S
O426 C429 1.235 . S
C427 O430 1.238 . S
C427 O431 1.241 . S
C428 O421 1.247 . S
C428 O422 1.261 . S
C429 O424 1.259 . S
C429 O426 1.235 . S
O430 Co420 2.021 . S
O430 C427 1.238 . S
O431 Co425 2.052 . S
O431 C427 1.241 . S
O432 Co420 2.137 . S
O432 C423 1.247 . S
O433 Co420 2.244 . S
O433 C423 1.272 . S
O433 Co425 2.135 . S
Co434 O435 2.216 . S
Co434 O436 2.091 . S
Co434 O438 2.004 . S
Co434 O444 2.021 . S
Co434 O446 2.137 . S
Co434 O447 2.244 . S
O435 Co434 2.216 . S
O435 C442 1.247 . S
O436 Co434 2.091 . S
O436 C442 1.261 . S
C437 O446 1.247 . S
C437 O447 1.272 . S
O438 Co434 2.004 . S
O438 C443 1.259 . S
Co439 O440 2.061 . S
Co439 O445 2.052 . S
Co439 O447 2.135 . S
O440 Co439 2.061 . S
O440 C443 1.235 . S
C441 O444 1.238 . S
C441 O445 1.241 . S
C442 O435 1.247 . S
C442 O436 1.261 . S
C443 O438 1.259 . S
C443 O440 1.235 . S
O444 Co434 2.021 . S
O444 C441 1.238 . S
O445 Co439 2.052 . S
O445 C441 1.241 . S
O446 Co434 2.137 . S
O446 C437 1.247 . S
O447 Co434 2.244 . S
O447 C437 1.272 . S
O447 Co439 2.135 . S
H448 C456 0.950 . S
H449 C461 0.950 . S
H450 C458 0.950 . S
H451 C460 0.950 1_655 S
H452 C462 0.950 . S
H453 C464 0.950 1_554 S
H454 C466 0.950 1_455 S
H455 C467 0.950 . S
C456 H448 0.950 . S
C456 C457 1.386 . S
C456 C458 1.391 1_554 S
C457 C456 1.386 . S
C457 C461 1.393 . S
C458 H450 0.950 . S
C458 C456 1.391 1_556 S
C458 C459 1.400 1_556 S
C459 C458 1.400 1_554 S
C459 C460 1.398 . S
C459 C465 1.491 1_444 S
C460 H451 0.950 1_455 S
C460 C459 1.398 . S
C460 C461 1.391 . S
C461 H449 0.950 . S
C461 C457 1.393 . S
C461 C460 1.391 . S
C462 H452 0.950 . S
C462 C463 1.386 . S
C462 C464 1.391 . S
C463 C462 1.386 . S
C463 C467 1.393 . S
C464 H453 0.950 1_556 S
C464 C462 1.391 . S
C464 C465 1.400 . S
C465 C459 1.491 1_666 S
C465 C464 1.400 . S
C465 C466 1.398 . S
C466 H454 0.950 1_655 S
C466 C465 1.398 . S
C466 C467 1.391 . S
C467 H455 0.950 . S
C467 C463 1.393 . S
C467 C466 1.391 . S
H468 C476 0.950 . S
H469 C481 0.950 . S
H470 C478 0.950 . S
H471 C480 0.950 . S
H472 C482 0.950 . S
H473 C484 0.950 . S
H474 C486 0.950 . S
H475 C487 0.950 . S
C476 H468 0.950 . S
C476 C477 1.386 . S
C476 C478 1.391 . S
C477 C476 1.386 . S
C477 C481 1.393 . S
C478 H470 0.950 . S
C478 C476 1.391 . S
C478 C479 1.400 . S
C479 C478 1.400 . S
C479 C480 1.398 . S
C479 C485 1.491 . S
C480 H471 0.950 . S
C480 C479 1.398 . S
C480 C481 1.391 . S
C481 H469 0.950 . S
C481 C477 1.393 . S
C481 C480 1.391 . S
C482 H472 0.950 . S
C482 C483 1.386 . S
C482 C484 1.391 . S
C483 C482 1.386 . S
C483 C487 1.393 . S
C484 H473 0.950 . S
C484 C482 1.391 . S
C484 C485 1.400 . S
C485 C479 1.491 . S
C485 C484 1.400 . S
C485 C486 1.398 . S
C486 H474 0.950 . S
C486 C485 1.398 . S
C486 C487 1.391 . S
C487 H475 0.950 . S
C487 C483 1.393 . S
C487 C486 1.391 . S
H488 C496 0.950 . S
H489 C501 0.950 . S
H490 C498 0.950 . S
H491 C500 0.950 1_545 S
H492 C502 0.950 . S
H493 C504 0.950 . S
H494 C506 0.950 1_565 S
H495 C507 0.950 . S
C496 H488 0.950 . S
C496 C497 1.386 . S
C496 C498 1.391 . S
C497 C496 1.386 . S
C497 C501 1.393 . S
C498 H490 0.950 . S
C498 C496 1.391 . S
C498 C499 1.400 . S
C499 C498 1.400 . S
C499 C500 1.398 . S
C499 C505 1.491 1_565 S
C500 H491 0.950 1_565 S
C500 C499 1.398 . S
C500 C501 1.391 . S
C501 H489 0.950 . S
C501 C497 1.393 . S
C501 C500 1.391 . S
C502 H492 0.950 . S
C502 C503 1.386 . S
C502 C504 1.391 . S
C503 C502 1.386 . S
C503 C507 1.393 . S
C504 H493 0.950 . S
C504 C502 1.391 . S
C504 C505 1.400 . S
C505 C499 1.491 1_545 S
C505 C504 1.400 . S
C505 C506 1.398 . S
C506 H494 0.950 1_545 S
C506 C505 1.398 . S
C506 C507 1.391 . S
C507 H495 0.950 . S
C507 C503 1.393 . S
C507 C506 1.391 . S
H508 C516 0.950 . S
H509 C521 0.950 . S
H510 C518 0.950 . S
H511 C520 0.950 . S
H512 C522 0.950 . S
H513 C524 0.950 . S
H514 C526 0.950 . S
H515 C527 0.950 . S
C516 H508 0.950 . S
C516 C517 1.386 . S
C516 C518 1.391 . S
C517 C516 1.386 . S
C517 C521 1.393 . S
C518 H510 0.950 . S
C518 C516 1.391 . S
C518 C519 1.400 . S
C519 C518 1.400 . S
C519 C520 1.398 . S
C519 C525 1.491 . S
C520 H511 0.950 . S
C520 C519 1.398 . S
C520 C521 1.391 . S
C521 H509 0.950 . S
C521 C517 1.393 . S
C521 C520 1.391 . S
C522 H512 0.950 . S
C522 C523 1.386 . S
C522 C524 1.391 . S
C523 C522 1.386 . S
C523 C527 1.393 . S
C524 H513 0.950 . S
C524 C522 1.391 . S
C524 C525 1.400 . S
C525 C519 1.491 . S
C525 C524 1.400 . S
C525 C526 1.398 . S
C526 H514 0.950 . S
C526 C525 1.398 . S
C526 C527 1.391 . S
C527 H515 0.950 . S
C527 C523 1.393 . S
C527 C526 1.391 . S
H528 C536 0.950 . S
H529 C541 0.950 . S
H530 C538 0.950 . S
H531 C540 0.950 1_655 S
H532 C542 0.950 . S
H533 C544 0.950 . S
H534 C546 0.965 . S
H535 C547 0.950 . S
C536 H528 0.950 . S
C536 C537 1.386 . S
C536 C538 1.391 . S
C537 C536 1.386 . S
C537 C541 1.393 . S
C538 H530 0.950 . S
C538 C536 1.391 . S
C538 C539 1.400 . S
C539 C538 1.400 . S
C539 C540 1.398 . S
C539 C545 1.491 1_465 S
C540 H531 0.950 1_455 S
C540 C539 1.398 . S
C540 C541 1.391 . S
C541 H529 0.950 . S
C541 C537 1.393 . S
C541 C540 1.391 . S
C542 H532 0.950 . S
C542 C543 1.386 . S
C542 C544 1.391 . S
C543 C542 1.386 . S
C543 C547 1.393 . S
C544 H533 0.950 . S
C544 C542 1.391 . S
C544 C545 1.400 . S
C545 C539 1.491 1_645 S
C545 C544 1.400 . S
C545 C546 1.395 1_655 S
C546 H534 0.965 . S
C546 C545 1.395 1_455 S
C546 C547 1.379 1_455 S
C547 H535 0.950 . S
C547 C543 1.393 . S
C547 C546 1.379 1_655 S
H548 C556 0.950 . S
H549 C561 0.950 . S
H550 C558 0.950 . S
H551 C560 0.950 . S
H552 C562 0.950 . S
H553 C564 0.950 . S
H554 C566 0.950 . S
H555 C567 0.950 . S
C556 H548 0.950 . S
C556 C557 1.386 . S
C556 C558 1.391 . S
C557 C556 1.386 . S
C557 C561 1.393 . S
C558 H550 0.950 . S
C558 C556 1.391 . S
C558 C559 1.400 . S
C559 C558 1.400 . S
C559 C560 1.398 . S
C559 C565 1.491 . S
C560 H551 0.950 . S
C560 C559 1.398 . S
C560 C561 1.391 . S
C561 H549 0.950 . S
C561 C557 1.393 . S
C561 C560 1.391 . S
C562 H552 0.950 . S
C562 C563 1.386 . S
C562 C564 1.391 . S
C563 C562 1.386 . S
C563 C567 1.393 . S
C564 H553 0.950 . S
C564 C562 1.391 . S
C564 C565 1.400 . S
C565 C559 1.491 . S
C565 C564 1.400 . S
C565 C566 1.398 . S
C566 H554 0.950 . S
C566 C565 1.398 . S
C566 C567 1.391 . S
C567 H555 0.950 . S
C567 C563 1.393 . S
C567 C566 1.391 . S
H568 C576 0.950 . S
H569 C581 0.950 . S
H570 C578 0.966 1_565 S
H571 C580 0.950 . S
H572 C582 0.950 . S
H573 C584 0.950 1_545 S
H574 C586 0.950 . S
H575 C587 0.950 . S
C576 H568 0.950 . S
C576 C577 1.386 . S
C576 C578 1.391 . S
C577 C576 1.386 . S
C577 C581 1.393 . S
C578 H570 0.966 1_545 S
C578 C576 1.391 . S
C578 C579 1.400 . S
C579 C578 1.400 . S
C579 C580 1.398 . S
C579 C585 1.491 1_546 S
C580 H571 0.950 . S
C580 C579 1.398 . S
C580 C581 1.391 . S
C581 H569 0.950 . S
C581 C577 1.393 . S
C581 C580 1.391 . S
C582 H572 0.950 . S
C582 C583 1.386 . S
C582 C584 1.391 . S
C583 C582 1.386 . S
C583 C587 1.393 . S
C584 H573 0.950 1_565 S
C584 C582 1.391 . S
C584 C585 1.400 . S
C585 C579 1.491 1_564 S
C585 C584 1.400 . S
C585 C586 1.398 . S
C586 H574 0.950 . S
C586 C585 1.398 . S
C586 C587 1.391 . S
C587 H575 0.950 . S
C587 C583 1.393 . S
C587 C586 1.391 . S
H588 C596 0.950 . S
H589 C601 0.950 . S
H590 C598 0.950 . S
H591 C600 0.950 . S
H592 C602 0.950 . S
H593 C604 0.950 . S
H594 C606 0.950 . S
H595 C607 0.950 . S
C596 H588 0.950 . S
C596 C597 1.386 . S
C596 C598 1.391 . S
C597 C596 1.386 . S
C597 C601 1.393 . S
C598 H590 0.950 . S
C598 C596 1.391 . S
C598 C599 1.400 . S
C599 C598 1.400 . S
C599 C600 1.398 . S
C599 C605 1.491 . S
C600 H591 0.950 . S
C600 C599 1.398 . S
C600 C601 1.391 . S
C601 H589 0.950 . S
C601 C597 1.393 . S
C601 C600 1.391 . S
C602 H592 0.950 . S
C602 C603 1.386 . S
C602 C604 1.391 . S
C603 C602 1.386 . S
C603 C607 1.393 . S
C604 H593 0.950 . S
C604 C602 1.391 . S
C604 C605 1.400 . S
C605 C599 1.491 . S
C605 C604 1.400 . S
C605 C606 1.398 . S
C606 H594 0.950 . S
C606 C605 1.398 . S
C606 C607 1.391 . S
C607 H595 0.950 . S
C607 C603 1.393 . S
C607 C606 1.391 . S
H608 C616 0.950 . S
H609 C621 0.950 . S
H610 C618 0.950 . S
H611 C620 0.950 1_556 S
H612 C622 0.950 . S
H613 C624 0.950 . S
H614 C626 0.950 . S
H615 C627 0.950 . S
C616 H608 0.950 . S
C616 C617 1.386 . S
C616 C618 1.391 . S
C617 C616 1.386 . S
C617 C621 1.393 . S
C618 H610 0.950 . S
C618 C616 1.391 . S
C618 C619 1.400 . S
C619 C618 1.400 . S
C619 C620 1.398 . S
C619 C625 1.491 1_554 S
C620 H611 0.950 1_554 S
C620 C619 1.398 . S
C620 C621 1.391 . S
C621 H609 0.950 . S
C621 C617 1.393 . S
C621 C620 1.391 . S
C622 H612 0.950 . S
C622 C623 1.386 . S
C622 C624 1.391 . S
C623 C622 1.386 . S
C623 C627 1.393 . S
C624 H613 0.950 . S
C624 C622 1.391 . S
C624 C625 1.400 . S
C625 C619 1.491 1_556 S
C625 C624 1.400 . S
C625 C626 1.398 1_556 S
C626 H614 0.950 . S
C626 C625 1.398 1_554 S
C626 C627 1.391 1_554 S
C627 H615 0.950 . S
C627 C623 1.393 . S
C627 C626 1.391 1_556 S
H628 C636 0.950 . S
H629 C641 0.950 . S
H630 C638 0.950 . S
H631 C640 0.950 . S
H632 C642 0.950 . S
H633 C644 0.950 . S
H634 C646 0.950 . S
H635 C647 0.950 . S
C636 H628 0.950 . S
C636 C637 1.386 . S
C636 C638 1.391 . S
C637 C636 1.386 . S
C637 C641 1.393 . S
C638 H630 0.950 . S
C638 C636 1.391 . S
C638 C639 1.400 . S
C639 C638 1.400 . S
C639 C640 1.398 . S
C639 C645 1.491 . S
C640 H631 0.950 . S
C640 C639 1.398 . S
C640 C641 1.391 . S
C641 H629 0.950 . S
C641 C637 1.393 . S
C641 C640 1.391 . S
C642 H632 0.950 . S
C642 C643 1.386 . S
C642 C644 1.391 . S
C643 C642 1.386 . S
C643 C647 1.393 . S
C644 H633 0.950 . S
C644 C642 1.391 . S
C644 C645 1.400 . S
C645 C639 1.491 . S
C645 C644 1.400 . S
C645 C646 1.398 . S
C646 H634 0.950 . S
C646 C645 1.398 . S
C646 C647 1.391 . S
C647 H635 0.950 . S
C647 C643 1.393 . S
C647 C646 1.391 . S
H648 C656 0.950 . S
H649 C661 0.950 . S
H650 C658 0.950 1_655 S
H651 C660 0.950 . S
H652 C662 0.950 . S
H653 C664 0.950 . S
H654 C666 0.950 . S
H655 C667 0.950 . S
C656 H648 0.950 . S
C656 C657 1.386 . S
C656 C658 1.391 . S
C657 C656 1.386 . S
C657 C661 1.393 . S
C658 H650 0.950 1_455 S
C658 C656 1.391 . S
C658 C659 1.400 . S
C659 C658 1.400 . S
C659 C660 1.398 . S
C659 C665 1.491 1_455 S
C660 H651 0.950 . S
C660 C659 1.398 . S
C660 C661 1.391 . S
C661 H649 0.950 . S
C661 C657 1.393 . S
C661 C660 1.391 . S
C662 H652 0.950 . S
C662 C663 1.386 . S
C662 C664 1.391 . S
C663 C662 1.386 . S
C663 C667 1.393 . S
C664 H653 0.950 . S
C664 C662 1.391 . S
C664 C665 1.400 . S
C665 C659 1.491 1_655 S
C665 C664 1.400 . S
C665 C666 1.398 . S
C666 H654 0.950 . S
C666 C665 1.398 . S
C666 C667 1.391 . S
C667 H655 0.950 . S
C667 C663 1.393 . S
C667 C666 1.391 . S
H668 C676 0.950 . S
H669 C681 0.950 . S
H670 C678 0.950 . S
H671 C680 0.950 . S
H672 C682 0.950 . S
H673 C684 0.950 . S
H674 C686 0.950 . S
H675 C687 0.950 . S
C676 H668 0.950 . S
C676 C677 1.386 . S
C676 C678 1.391 . S
C677 C676 1.386 . S
C677 C681 1.393 . S
C678 H670 0.950 . S
C678 C676 1.391 . S
C678 C679 1.400 . S
C679 C678 1.400 . S
C679 C680 1.398 . S
C679 C685 1.491 . S
C680 H671 0.950 . S
C680 C679 1.398 . S
C680 C681 1.391 . S
C681 H669 0.950 . S
C681 C677 1.393 . S
C681 C680 1.391 . S
C682 H672 0.950 . S
C682 C683 1.386 . S
C682 C684 1.391 . S
C683 C682 1.386 . S
C683 C687 1.393 . S
C684 H673 0.950 . S
C684 C682 1.391 . S
C684 C685 1.400 . S
C685 C679 1.491 . S
C685 C684 1.400 . S
C685 C686 1.398 . S
C686 H674 0.950 . S
C686 C685 1.398 . S
C686 C687 1.391 . S
C687 H675 0.950 . S
C687 C683 1.393 . S
C687 C686 1.391 . S
H688 C696 0.950 . S
H689 C701 0.950 . S
H690 C698 0.950 . S
H691 C700 0.950 . S
H692 C702 0.950 . S
H693 C704 0.950 . S
H694 C706 0.950 . S
H695 C707 0.950 . S
C696 H688 0.950 . S
C696 C697 1.386 . S
C696 C698 1.391 . S
C697 C696 1.386 . S
C697 C701 1.393 . S
C698 H690 0.950 . S
C698 C696 1.391 . S
C698 C699 1.400 . S
C699 C698 1.400 . S
C699 C700 1.398 . S
C699 C705 1.491 . S
C700 H691 0.950 . S
C700 C699 1.398 . S
C700 C701 1.391 . S
C701 H689 0.950 . S
C701 C697 1.393 . S
C701 C700 1.391 . S
C702 H692 0.950 . S
C702 C703 1.386 . S
C702 C704 1.391 . S
C703 C702 1.386 . S
C703 C707 1.393 . S
C704 H693 0.950 . S
C704 C702 1.391 . S
C704 C705 1.400 . S
C705 C699 1.491 . S
C705 C704 1.400 . S
C705 C706 1.398 . S
C706 H694 0.950 . S
C706 C705 1.398 . S
C706 C707 1.391 . S
C707 H695 0.950 . S
C707 C703 1.393 . S
C707 C706 1.391 . S
H708 C716 0.950 . S
H709 C721 0.950 . S
H710 C718 0.950 . S
H711 C720 0.950 . S
H712 C722 0.950 . S
H713 C724 0.950 . S
H714 C726 0.950 . S
H715 C727 0.950 . S
C716 H708 0.950 . S
C716 C717 1.386 . S
C716 C718 1.391 . S
C717 C716 1.386 . S
C717 C721 1.393 . S
C718 H710 0.950 . S
C718 C716 1.391 . S
C718 C719 1.400 . S
C719 C718 1.400 . S
C719 C720 1.398 . S
C719 C725 1.491 . S
C720 H711 0.950 . S
C720 C719 1.398 . S
C720 C721 1.391 . S
C721 H709 0.950 . S
C721 C717 1.393 . S
C721 C720 1.391 . S
C722 H712 0.950 . S
C722 C723 1.386 . S
C722 C724 1.391 . S
C723 C722 1.386 . S
C723 C727 1.393 . S
C724 H713 0.950 . S
C724 C722 1.391 . S
C724 C725 1.400 . S
C725 C719 1.491 . S
C725 C724 1.400 . S
C725 C726 1.398 . S
C726 H714 0.950 . S
C726 C725 1.398 . S
C726 C727 1.391 . S
C727 H715 0.950 . S
C727 C723 1.393 . S
C727 C726 1.391 . S
H728 C736 0.950 . S
H729 C741 0.950 . S
H730 C738 0.950 . S
H731 C740 0.950 . S
H732 C742 0.950 . S
H733 C744 0.950 . S
H734 C746 0.950 . S
H735 C747 0.950 . S
C736 H728 0.950 . S
C736 C737 1.386 . S
C736 C738 1.391 . S
C737 C736 1.386 . S
C737 C741 1.393 . S
C738 H730 0.950 . S
C738 C736 1.391 . S
C738 C739 1.400 . S
C739 C738 1.400 . S
C739 C740 1.398 . S
C739 C745 1.491 . S
C740 H731 0.950 . S
C740 C739 1.398 . S
C740 C741 1.391 . S
C741 H729 0.950 . S
C741 C737 1.393 . S
C741 C740 1.391 . S
C742 H732 0.950 . S
C742 C743 1.386 . S
C742 C744 1.391 . S
C743 C742 1.386 . S
C743 C747 1.393 . S
C744 H733 0.950 . S
C744 C742 1.391 . S
C744 C745 1.400 . S
C745 C739 1.491 . S
C745 C744 1.400 . S
C745 C746 1.398 . S
C746 H734 0.950 . S
C746 C745 1.398 . S
C746 C747 1.391 . S
C747 H735 0.950 . S
C747 C743 1.393 . S
C747 C746 1.391 . S
H748 C756 0.950 . S
H749 C761 0.950 1_655 S
H750 C758 0.950 1_554 S
H751 C760 0.950 . S
H752 C762 0.950 . S
H753 C764 0.945 1_556 S
H754 C766 0.950 . S
H755 C767 0.950 . S
C756 H748 0.950 . S
C756 C757 1.386 . S
C756 C758 1.391 . S
C757 C756 1.386 . S
C757 C761 1.393 . S
C758 H750 0.950 1_556 S
C758 C756 1.391 . S
C758 C759 1.400 . S
C759 C758 1.400 . S
C759 C760 1.398 1_455 S
C759 C765 1.491 1_456 S
C760 H751 0.950 . S
C760 C759 1.398 1_655 S
C760 C761 1.391 1_655 S
C761 H749 0.950 1_455 S
C761 C757 1.393 . S
C761 C760 1.391 1_455 S
C762 H752 0.950 . S
C762 C763 1.386 . S
C762 C764 1.395 . S
C763 C762 1.386 . S
C763 C767 1.393 . S
C764 H753 0.945 1_554 S
C764 C762 1.395 . S
C764 C765 1.401 . S
C765 C759 1.491 1_654 S
C765 C764 1.401 . S
C765 C766 1.398 1_655 S
C766 H754 0.950 . S
C766 C765 1.398 1_455 S
C766 C767 1.391 1_455 S
C767 H755 0.950 . S
C767 C763 1.393 . S
C767 C766 1.391 1_655 S
H768 C776 0.950 . S
H769 C781 0.950 . S
H770 C778 0.950 1_565 S
H771 C780 0.950 1_565 S
H772 C782 0.950 . S
H773 C784 0.950 . S
H774 C786 0.950 . S
H775 C787 0.950 . S
C776 H768 0.950 . S
C776 C777 1.386 . S
C776 C778 1.391 . S
C777 C776 1.386 . S
C777 C781 1.393 . S
C778 H770 0.950 1_545 S
C778 C776 1.391 . S
C778 C779 1.400 1_545 S
C779 C778 1.400 1_565 S
C779 C780 1.398 1_565 S
C779 C785 1.491 . S
C780 H771 0.950 1_545 S
C780 C779 1.398 1_545 S
C780 C781 1.391 . S
C781 H769 0.950 . S
C781 C777 1.393 . S
C781 C780 1.391 . S
C782 H772 0.950 . S
C782 C783 1.386 . S
C782 C784 1.391 . S
C783 C782 1.386 . S
C783 C787 1.393 . S
C784 H773 0.950 . S
C784 C782 1.391 . S
C784 C785 1.400 . S
C785 C779 1.491 . S
C785 C784 1.400 . S
C785 C786 1.398 . S
C786 H774 0.950 . S
C786 C785 1.398 . S
C786 C787 1.391 . S
C787 H775 0.950 . S
C787 C783 1.393 . S
C787 C786 1.391 . S
H788 C796 0.950 . S
H789 C801 0.950 . S
H790 C798 0.950 . S
H791 C800 0.950 . S
H792 C802 0.950 . S
H793 C804 0.950 . S
H794 C806 0.950 . S
H795 C807 0.950 . S
C796 H788 0.950 . S
C796 C797 1.386 . S
C796 C798 1.391 . S
C797 C796 1.386 . S
C797 C801 1.393 . S
C798 H790 0.950 . S
C798 C796 1.391 . S
C798 C799 1.400 . S
C799 C798 1.400 . S
C799 C800 1.398 . S
C799 C805 1.491 . S
C800 H791 0.950 . S
C800 C799 1.398 . S
C800 C801 1.391 . S
C801 H789 0.950 . S
C801 C797 1.393 . S
C801 C800 1.391 . S
C802 H792 0.950 . S
C802 C803 1.386 . S
C802 C804 1.391 . S
C803 C802 1.386 . S
C803 C807 1.393 . S
C804 H793 0.950 . S
C804 C802 1.391 . S
C804 C805 1.400 . S
C805 C799 1.491 . S
C805 C804 1.400 . S
C805 C806 1.398 . S
C806 H794 0.950 . S
C806 C805 1.398 . S
C806 C807 1.391 . S
C807 H795 0.950 . S
C807 C803 1.393 . S
C807 C806 1.391 . S
H808 C816 0.950 . S
H809 C821 0.950 . S
H810 C818 0.950 . S
H811 C820 0.950 . S
H812 C822 0.950 . S
H813 C824 0.950 1_545 S
H814 C826 0.950 . S
H815 C827 0.950 . S
C816 H808 0.950 . S
C816 C817 1.386 . S
C816 C818 1.391 1_545 S
C817 C816 1.386 . S
C817 C821 1.393 . S
C818 H810 0.950 . S
C818 C816 1.391 1_565 S
C818 C819 1.400 1_565 S
C819 C818 1.400 1_545 S
C819 C820 1.398 . S
C819 C825 1.491 1_545 S
C820 H811 0.950 . S
C820 C819 1.398 . S
C820 C821 1.391 . S
C821 H809 0.950 . S
C821 C817 1.393 . S
C821 C820 1.391 . S
C822 H812 0.950 . S
C822 C823 1.386 . S
C822 C824 1.391 . S
C823 C822 1.386 . S
C823 C827 1.393 . S
C824 H813 0.950 1_565 S
C824 C822 1.391 . S
C824 C825 1.400 . S
C825 C819 1.491 1_565 S
C825 C824 1.400 . S
C825 C826 1.398 . S
C826 H814 0.950 . S
C826 C825 1.398 . S
C826 C827 1.391 . S
C827 H815 0.950 . S
C827 C823 1.393 . S
C827 C826 1.391 . S
H828 C836 0.950 . S
H829 C841 0.950 . S
H830 C838 0.950 . S
H831 C840 0.950 . S
H832 C842 0.950 . S
H833 C844 0.950 1_556 S
H834 C846 0.950 . S
H835 C847 0.950 . S
C836 H828 0.950 . S
C836 C837 1.386 . S
C836 C838 1.391 . S
C837 C836 1.386 . S
C837 C841 1.393 . S
C838 H830 0.950 . S
C838 C836 1.391 . S
C838 C839 1.400 . S
C839 C838 1.400 . S
C839 C840 1.398 . S
C839 C845 1.491 1_556 S
C840 H831 0.950 . S
C840 C839 1.398 . S
C840 C841 1.391 . S
C841 H829 0.950 . S
C841 C837 1.393 . S
C841 C840 1.391 . S
C842 H832 0.950 . S
C842 C843 1.386 . S
C842 C844 1.391 . S
C843 C842 1.386 . S
C843 C847 1.393 . S
C844 H833 0.950 1_554 S
C844 C842 1.391 . S
C844 C845 1.400 . S
C845 C839 1.491 1_554 S
C845 C844 1.400 . S
C845 C846 1.398 . S
C846 H834 0.950 . S
C846 C845 1.398 . S
C846 C847 1.391 . S
C847 H835 0.950 . S
C847 C843 1.393 . S
C847 C846 1.391 . S
H848 C856 0.950 . S
H849 C861 0.950 . S
H850 C858 0.950 . S
H851 C860 0.950 1_565 S
H852 C862 0.950 . S
H853 C864 0.950 . S
H854 C866 0.950 . S
H855 C867 0.950 . S
C856 H848 0.950 . S
C856 C857 1.386 . S
C856 C858 1.391 . S
C857 C856 1.386 . S
C857 C861 1.393 . S
C858 H850 0.950 . S
C858 C856 1.391 . S
C858 C859 1.400 . S
C859 C858 1.400 . S
C859 C860 1.398 . S
C859 C865 1.491 1_545 S
C860 H851 0.950 1_545 S
C860 C859 1.398 . S
C860 C861 1.391 . S
C861 H849 0.950 . S
C861 C857 1.393 . S
C861 C860 1.391 . S
C862 H852 0.950 . S
C862 C863 1.386 . S
C862 C864 1.391 . S
C863 C862 1.386 . S
C863 C867 1.393 . S
C864 H853 0.950 . S
C864 C862 1.391 . S
C864 C865 1.400 . S
C865 C859 1.491 1_565 S
C865 C864 1.400 . S
C865 C866 1.398 1_565 S
C866 H854 0.950 . S
C866 C865 1.398 1_545 S
C866 C867 1.391 1_545 S
C867 H855 0.950 . S
C867 C863 1.393 . S
C867 C866 1.391 1_565 S
H868 C876 0.950 . S
H869 C881 0.950 . S
H870 C878 0.950 . S
H871 C880 0.950 . S
H872 C882 0.950 . S
H873 C884 0.950 . S
H874 C886 0.950 . S
H875 C887 0.950 . S
C876 H868 0.950 . S
C876 C877 1.386 . S
C876 C878 1.391 . S
C877 C876 1.386 . S
C877 C881 1.393 . S
C878 H870 0.950 . S
C878 C876 1.391 . S
C878 C879 1.400 . S
C879 C878 1.400 . S
C879 C880 1.398 . S
C879 C885 1.491 . S
C880 H871 0.950 . S
C880 C879 1.398 . S
C880 C881 1.391 . S
C881 H869 0.950 . S
C881 C877 1.393 . S
C881 C880 1.391 . S
C882 H872 0.950 . S
C882 C883 1.386 . S
C882 C884 1.391 . S
C883 C882 1.386 . S
C883 C887 1.393 . S
C884 H873 0.950 . S
C884 C882 1.391 . S
C884 C885 1.400 . S
C885 C879 1.491 . S
C885 C884 1.400 . S
C885 C886 1.398 . S
C886 H874 0.950 . S
C886 C885 1.398 . S
C886 C887 1.391 . S
C887 H875 0.950 . S
C887 C883 1.393 . S
C887 C886 1.391 . S
H888 C896 0.950 . S
H889 C901 0.950 . S
H890 C898 0.950 1_565 S
H891 C900 0.950 . S
H892 C902 0.950 . S
H893 C904 0.950 . S
H894 C906 0.950 . S
H895 C907 0.950 . S
C896 H888 0.950 . S
C896 C897 1.386 . S
C896 C898 1.391 . S
C897 C896 1.386 . S
C897 C901 1.393 . S
C898 H890 0.950 1_545 S
C898 C896 1.391 . S
C898 C899 1.400 . S
C899 C898 1.400 . S
C899 C900 1.398 . S
C899 C905 1.491 1_545 S
C900 H891 0.950 . S
C900 C899 1.398 . S
C900 C901 1.391 . S
C901 H889 0.950 . S
C901 C897 1.393 . S
C901 C900 1.391 . S
C902 H892 0.950 . S
C902 C903 1.386 . S
C902 C904 1.391 . S
C903 C902 1.386 . S
C903 C907 1.393 . S
C904 H893 0.950 . S
C904 C902 1.391 . S
C904 C905 1.400 . S
C905 C899 1.491 1_565 S
C905 C904 1.400 . S
C905 C906 1.398 . S
C906 H894 0.950 . S
C906 C905 1.398 . S
C906 C907 1.391 . S
C907 H895 0.950 . S
C907 C903 1.393 . S
C907 C906 1.391 . S
H908 C916 0.950 . S
H909 C921 0.950 . S
H910 C918 0.950 . S
H911 C920 0.950 . S
H912 C922 0.950 . S
H913 C924 0.950 . S
H914 C926 0.950 . S
H915 C927 0.950 . S
C916 H908 0.950 . S
C916 C917 1.386 . S
C916 C918 1.391 1_556 S
C917 C916 1.386 . S
C917 C921 1.393 . S
C918 H910 0.950 . S
C918 C916 1.391 1_554 S
C918 C919 1.400 . S
C919 C918 1.400 . S
C919 C920 1.398 . S
C919 C925 1.491 . S
C920 H911 0.950 . S
C920 C919 1.398 . S
C920 C921 1.391 1_554 S
C921 H909 0.950 . S
C921 C917 1.393 . S
C921 C920 1.391 1_556 S
C922 H912 0.950 . S
C922 C923 1.386 . S
C922 C924 1.391 . S
C923 C922 1.386 . S
C923 C927 1.393 . S
C924 H913 0.950 . S
C924 C922 1.391 . S
C924 C925 1.400 . S
C925 C919 1.491 . S
C925 C924 1.400 . S
C925 C926 1.398 . S
C926 H914 0.950 . S
C926 C925 1.398 . S
C926 C927 1.391 . S
C927 H915 0.950 . S
C927 C923 1.393 . S
C927 C926 1.391 . S
H928 C936 0.950 . S
H929 C941 0.950 . S
H930 C938 0.950 . S
H931 C940 0.950 . S
H932 C942 0.950 . S
H933 C944 0.950 . S
H934 C946 0.950 . S
H935 C947 0.950 . S
C936 H928 0.950 . S
C936 C937 1.386 . S
C936 C938 1.391 . S
C937 C936 1.386 . S
C937 C941 1.393 . S
C938 H930 0.950 . S
C938 C936 1.391 . S
C938 C939 1.400 . S
C939 C938 1.400 . S
C939 C940 1.398 . S
C939 C945 1.491 . S
C940 H931 0.950 . S
C940 C939 1.398 . S
C940 C941 1.391 . S
C941 H929 0.950 . S
C941 C937 1.393 . S
C941 C940 1.391 . S
C942 H932 0.950 . S
C942 C943 1.386 . S
C942 C944 1.391 . S
C943 C942 1.386 . S
C943 C947 1.393 1_455 S
C944 H933 0.950 . S
C944 C942 1.391 . S
C944 C945 1.400 1_455 S
C945 C939 1.491 . S
C945 C944 1.400 1_655 S
C945 C946 1.398 . S
C946 H934 0.950 . S
C946 C945 1.398 . S
C946 C947 1.391 . S
C947 H935 0.950 . S
C947 C943 1.393 1_655 S
C947 C946 1.391 . S
H948 C956 0.950 . S
H949 C961 0.950 . S
H950 C958 0.950 . S
H951 C960 0.950 . S
H952 C962 0.950 . S
H953 C964 0.950 . S
H954 C966 0.950 . S
H955 C967 0.950 . S
C956 H948 0.950 . S
C956 C957 1.386 . S
C956 C958 1.391 . S
C957 C956 1.386 . S
C957 C961 1.393 . S
C958 H950 0.950 . S
C958 C956 1.391 . S
C958 C959 1.400 . S
C959 C958 1.400 . S
C959 C960 1.398 . S
C959 C965 1.491 . S
C960 H951 0.950 . S
C960 C959 1.398 . S
C960 C961 1.391 . S
C961 H949 0.950 . S
C961 C957 1.393 . S
C961 C960 1.391 . S
C962 H952 0.950 . S
C962 C963 1.386 . S
C962 C964 1.391 . S
C963 C962 1.386 . S
C963 C967 1.393 . S
C964 H953 0.950 . S
C964 C962 1.391 . S
C964 C965 1.400 . S
C965 C959 1.491 . S
C965 C964 1.400 . S
C965 C966 1.398 . S
C966 H954 0.950 . S
C966 C965 1.398 . S
C966 C967 1.391 . S
C967 H955 0.950 . S
C967 C963 1.393 . S
C967 C966 1.391 . S
H968 C976 0.950 . S
H969 C981 0.950 . S
H970 C978 0.950 . S
H971 C980 0.950 . S
H972 C982 0.950 . S
H973 C984 0.950 . S
H974 C986 0.950 . S
H975 C987 0.950 . S
C976 H968 0.950 . S
C976 C977 1.386 . S
C976 C978 1.391 . S
C977 C976 1.386 . S
C977 C981 1.393 . S
C978 H970 0.950 . S
C978 C976 1.391 . S
C978 C979 1.400 1_655 S
C979 C978 1.400 1_455 S
C979 C980 1.398 . S
C979 C985 1.491 . S
C980 H971 0.950 . S
C980 C979 1.398 . S
C980 C981 1.391 1_455 S
C981 H969 0.950 . S
C981 C977 1.393 . S
C981 C980 1.391 1_655 S
C982 H972 0.950 . S
C982 C983 1.386 . S
C982 C984 1.391 . S
C983 C982 1.386 . S
C983 C987 1.393 . S
C984 H973 0.950 . S
C984 C982 1.391 . S
C984 C985 1.400 . S
C985 C979 1.491 . S
C985 C984 1.400 . S
C985 C986 1.398 . S
C986 H974 0.950 . S
C986 C985 1.398 . S
C986 C987 1.391 . S
C987 H975 0.950 . S
C987 C983 1.393 . S
C987 C986 1.391 . S
H988 C996 0.950 . S
H989 C1001 0.950 . S
H990 C998 0.950 . S
H991 C1000 0.946 1_455 S
H992 C1002 0.950 . S
H993 C1004 0.950 . S
H994 C1006 0.950 . S
H995 C1007 0.950 . S
C996 H988 0.950 . S
C996 C997 1.386 . S
C996 C998 1.391 1_655 S
C997 C996 1.386 . S
C997 C1001 1.393 . S
C998 H990 0.950 . S
C998 C996 1.391 1_455 S
C998 C999 1.400 . S
C999 C998 1.400 . S
C999 C1000 1.389 1_455 S
C999 C1005 1.491 . S
C1000 H991 0.946 1_655 S
C1000 C999 1.389 1_655 S
C1000 C1001 1.401 . S
C1001 H989 0.950 . S
C1001 C997 1.393 . S
C1001 C1000 1.401 . S
C1002 H992 0.950 . S
C1002 C1003 1.386 . S
C1002 C1004 1.391 . S
C1003 C1002 1.386 . S
C1003 C1007 1.393 . S
C1004 H993 0.950 . S
C1004 C1002 1.391 . S
C1004 C1005 1.400 . S
C1005 C999 1.491 . S
C1005 C1004 1.400 . S
C1005 C1006 1.398 . S
C1006 H994 0.950 . S
C1006 C1005 1.398 . S
C1006 C1007 1.391 . S
C1007 H995 0.950 . S
C1007 C1003 1.393 . S
C1007 C1006 1.391 . S
H1008 C1016 0.950 . S
H1009 C1021 0.950 . S
H1010 C1018 0.950 . S
H1011 C1020 0.950 . S
H1012 C1022 0.950 . S
H1013 C1024 0.950 . S
H1014 C1026 0.950 . S
H1015 C1027 0.950 . S
C1016 H1008 0.950 . S
C1016 C1017 1.386 . S
C1016 C1018 1.391 . S
C1017 C1016 1.386 . S
C1017 C1021 1.393 . S
C1018 H1010 0.950 . S
C1018 C1016 1.391 . S
C1018 C1019 1.400 . S
C1019 C1018 1.400 . S
C1019 C1020 1.398 . S
C1019 C1025 1.491 . S
C1020 H1011 0.950 . S
C1020 C1019 1.398 . S
C1020 C1021 1.391 . S
C1021 H1009 0.950 . S
C1021 C1017 1.393 . S
C1021 C1020 1.391 . S
C1022 H1012 0.950 . S
C1022 C1023 1.386 . S
C1022 C1024 1.391 . S
C1023 C1022 1.386 . S
C1023 C1027 1.393 . S
C1024 H1013 0.950 . S
C1024 C1022 1.391 . S
C1024 C1025 1.400 . S
C1025 C1019 1.491 . S
C1025 C1024 1.400 . S
C1025 C1026 1.398 . S
C1026 H1014 0.950 . S
C1026 C1025 1.398 . S
C1026 C1027 1.391 . S
C1027 H1015 0.950 . S
C1027 C1023 1.393 . S
C1027 C1026 1.391 . S
H1028 C1036 0.950 . S
H1029 C1041 0.950 . S
H1030 C1038 0.950 . S
H1031 C1040 0.950 . S
H1032 C1042 0.950 . S
H1033 C1044 0.950 . S
H1034 C1046 0.950 . S
H1035 C1047 0.950 . S
C1036 H1028 0.950 . S
C1036 C1037 1.386 . S
C1036 C1038 1.391 . S
C1037 C1036 1.386 . S
C1037 C1041 1.393 . S
C1038 H1030 0.950 . S
C1038 C1036 1.391 . S
C1038 C1039 1.400 . S
C1039 C1038 1.400 . S
C1039 C1040 1.398 . S
C1039 C1045 1.491 . S
C1040 H1031 0.950 . S
C1040 C1039 1.398 . S
C1040 C1041 1.391 . S
C1041 H1029 0.950 . S
C1041 C1037 1.393 . S
C1041 C1040 1.391 . S
C1042 H1032 0.950 . S
C1042 C1043 1.386 . S
C1042 C1044 1.391 1_455 S
C1043 C1042 1.386 . S
C1043 C1047 1.393 . S
C1044 H1033 0.950 . S
C1044 C1042 1.391 1_655 S
C1044 C1045 1.400 . S
C1045 C1039 1.491 . S
C1045 C1044 1.400 . S
C1045 C1046 1.398 1_655 S
C1046 H1034 0.950 . S
C1046 C1045 1.398 1_455 S
C1046 C1047 1.391 . S
C1047 H1035 0.950 . S
C1047 C1043 1.393 . S
C1047 C1046 1.391 . S
H1048 C1056 0.950 . S
H1049 C1061 0.950 . S
H1050 C1058 0.950 . S
H1051 C1060 0.950 . S
H1052 C1062 0.950 . S
H1053 C1064 0.950 . S
H1054 C1066 0.950 . S
H1055 C1067 0.950 . S
C1056 H1048 0.950 . S
C1056 C1057 1.386 . S
C1056 C1058 1.391 . S
C1057 C1056 1.386 . S
C1057 C1061 1.393 . S
C1058 H1050 0.950 . S
C1058 C1056 1.391 . S
C1058 C1059 1.400 . S
C1059 C1058 1.400 . S
C1059 C1060 1.398 . S
C1059 C1065 1.491 . S
C1060 H1051 0.950 . S
C1060 C1059 1.398 . S
C1060 C1061 1.391 . S
C1061 H1049 0.950 . S
C1061 C1057 1.393 . S
C1061 C1060 1.391 . S
C1062 H1052 0.950 . S
C1062 C1063 1.386 . S
C1062 C1064 1.391 . S
C1063 C1062 1.386 . S
C1063 C1067 1.393 . S
C1064 H1053 0.950 . S
C1064 C1062 1.391 . S
C1064 C1065 1.400 . S
C1065 C1059 1.491 . S
C1065 C1064 1.400 . S
C1065 C1066 1.398 . S
C1066 H1054 0.950 . S
C1066 C1065 1.398 . S
C1066 C1067 1.391 . S
C1067 H1055 0.950 . S
C1067 C1063 1.393 . S
C1067 C1066 1.391 . S
H1068 C1076 0.950 . S
H1069 C1081 0.950 . S
H1070 C1078 0.950 . S
H1071 C1080 0.950 . S
H1072 C1082 0.950 . S
H1073 C1084 0.950 1_545 S
H1074 C1086 0.950 . S
H1075 C1087 0.950 . S
C1076 H1068 0.950 . S
C1076 C1077 1.386 . S
C1076 C1078 1.391 . S
C1077 C1076 1.386 . S
C1077 C1081 1.393 . S
C1078 H1070 0.950 . S
C1078 C1076 1.391 . S
C1078 C1079 1.400 . S
C1079 C1078 1.400 . S
C1079 C1080 1.398 . S
C1079 C1085 1.491 . S
C1080 H1071 0.950 . S
C1080 C1079 1.398 . S
C1080 C1081 1.391 . S
C1081 H1069 0.950 . S
C1081 C1077 1.393 . S
C1081 C1080 1.391 . S
C1082 H1072 0.950 . S
C1082 C1083 1.386 . S
C1082 C1084 1.391 . S
C1083 C1082 1.386 . S
C1083 C1087 1.393 . S
C1084 H1073 0.950 1_565 S
C1084 C1082 1.391 . S
C1084 C1085 1.400 1_565 S
C1085 C1079 1.491 . S
C1085 C1084 1.400 1_545 S
C1085 C1086 1.398 1_545 S
C1086 H1074 0.950 . S
C1086 C1085 1.398 1_565 S
C1086 C1087 1.391 . S
C1087 H1075 0.950 . S
C1087 C1083 1.393 . S
C1087 C1086 1.391 . S
H1088 C1096 0.950 . S
H1089 C1101 0.950 . S
H1090 C1098 0.950 . S
H1091 C1100 0.950 . S
H1092 C1102 0.950 . S
H1093 C1104 0.950 . S
H1094 C1106 0.950 . S
H1095 C1107 0.950 . S
C1096 H1088 0.950 . S
C1096 C1097 1.386 . S
C1096 C1098 1.391 . S
C1097 C1096 1.386 . S
C1097 C1101 1.393 . S
C1098 H1090 0.950 . S
C1098 C1096 1.391 . S
C1098 C1099 1.400 . S
C1099 C1098 1.400 . S
C1099 C1100 1.398 . S
C1099 C1105 1.491 . S
C1100 H1091 0.950 . S
C1100 C1099 1.398 . S
C1100 C1101 1.391 . S
C1101 H1089 0.950 . S
C1101 C1097 1.393 . S
C1101 C1100 1.391 . S
C1102 H1092 0.950 . S
C1102 C1103 1.386 . S
C1102 C1104 1.391 . S
C1103 C1102 1.386 . S
C1103 C1107 1.393 . S
C1104 H1093 0.950 . S
C1104 C1102 1.391 . S
C1104 C1105 1.400 . S
C1105 C1099 1.491 . S
C1105 C1104 1.400 . S
C1105 C1106 1.398 . S
C1106 H1094 0.950 . S
C1106 C1105 1.398 . S
C1106 C1107 1.391 . S
C1107 H1095 0.950 . S
C1107 C1103 1.393 . S
C1107 C1106 1.391 . S
H1108 C1116 0.950 . S
H1109 C1121 0.950 . S
H1110 C1118 0.950 . S
H1111 C1120 0.950 1_545 S
H1112 C1122 0.950 . S
H1113 C1124 0.950 . S
H1114 C1126 0.950 . S
H1115 C1127 0.950 . S
C1116 H1108 0.950 . S
C1116 C1117 1.386 . S
C1116 C1118 1.391 . S
C1117 C1116 1.386 . S
C1117 C1121 1.393 . S
C1118 H1110 0.950 . S
C1118 C1116 1.391 . S
C1118 C1119 1.400 . S
C1119 C1118 1.400 . S
C1119 C1120 1.398 . S
C1119 C1125 1.491 1_565 S
C1120 H1111 0.950 1_565 S
C1120 C1119 1.398 . S
C1120 C1121 1.391 . S
C1121 H1109 0.950 . S
C1121 C1117 1.393 . S
C1121 C1120 1.391 . S
C1122 H1112 0.950 . S
C1122 C1123 1.386 . S
C1122 C1124 1.391 . S
C1123 C1122 1.386 . S
C1123 C1127 1.393 . S
C1124 H1113 0.950 . S
C1124 C1122 1.391 . S
C1124 C1125 1.400 . S
C1125 C1119 1.491 1_545 S
C1125 C1124 1.400 . S
C1125 C1126 1.398 . S
C1126 H1114 0.950 . S
C1126 C1125 1.398 . S
C1126 C1127 1.391 . S
C1127 H1115 0.950 . S
C1127 C1123 1.393 . S
C1127 C1126 1.391 . S
H1128 C1136 0.950 . S
H1129 C1141 0.950 . S
H1130 C1138 0.950 . S
H1131 C1140 0.950 1_554 S
H1132 C1142 0.950 . S
H1133 C1144 0.950 . S
H1134 C1146 0.950 1_556 S
H1135 C1147 0.950 . S
C1136 H1128 0.950 . S
C1136 C1137 1.386 . S
C1136 C1138 1.391 . S
C1137 C1136 1.386 . S
C1137 C1141 1.393 . S
C1138 H1130 0.950 . S
C1138 C1136 1.391 . S
C1138 C1139 1.400 . S
C1139 C1138 1.400 . S
C1139 C1140 1.398 . S
C1139 C1145 1.491 1_556 S
C1140 H1131 0.950 1_556 S
C1140 C1139 1.398 . S
C1140 C1141 1.391 . S
C1141 H1129 0.950 . S
C1141 C1137 1.393 . S
C1141 C1140 1.391 . S
C1142 H1132 0.950 . S
C1142 C1143 1.386 . S
C1142 C1144 1.391 . S
C1143 C1142 1.386 . S
C1143 C1147 1.393 . S
C1144 H1133 0.950 . S
C1144 C1142 1.391 . S
C1144 C1145 1.400 . S
C1145 C1139 1.491 1_554 S
C1145 C1144 1.400 . S
C1145 C1146 1.398 . S
C1146 H1134 0.950 1_554 S
C1146 C1145 1.398 . S
C1146 C1147 1.391 . S
C1147 H1135 0.950 . S
C1147 C1143 1.393 . S
C1147 C1146 1.391 . S
H1148 C1156 0.950 . S
H1149 C1161 0.950 . S
H1150 C1158 0.950 . S
H1151 C1160 0.950 1_565 S
H1152 C1162 0.950 . S
H1153 C1164 0.950 . S
H1154 C1166 0.950 1_545 S
H1155 C1167 0.950 . S
C1156 H1148 0.950 . S
C1156 C1157 1.386 . S
C1156 C1158 1.391 . S
C1157 C1156 1.386 . S
C1157 C1161 1.393 . S
C1158 H1150 0.950 . S
C1158 C1156 1.391 . S
C1158 C1159 1.400 . S
C1159 C1158 1.400 . S
C1159 C1160 1.398 . S
C1159 C1165 1.491 1_545 S
C1160 H1151 0.950 1_545 S
C1160 C1159 1.398 . S
C1160 C1161 1.391 . S
C1161 H1149 0.950 . S
C1161 C1157 1.393 . S
C1161 C1160 1.391 . S
C1162 H1152 0.950 . S
C1162 C1163 1.386 . S
C1162 C1164 1.391 . S
C1163 C1162 1.386 . S
C1163 C1167 1.393 . S
C1164 H1153 0.950 . S
C1164 C1162 1.391 . S
C1164 C1165 1.400 . S
C1165 C1159 1.491 1_565 S
C1165 C1164 1.400 . S
C1165 C1166 1.398 . S
C1166 H1154 0.950 1_565 S
C1166 C1165 1.398 . S
C1166 C1167 1.391 . S
C1167 H1155 0.950 . S
C1167 C1163 1.393 . S
C1167 C1166 1.391 . S
H1168 C1176 0.950 . S
H1169 C1181 0.950 . S
H1170 C1178 0.950 . S
H1171 C1180 0.950 . S
H1172 C1182 0.950 . S
H1173 C1184 0.950 . S
H1174 C1186 0.950 . S
H1175 C1187 0.950 . S
C1176 H1168 0.950 . S
C1176 C1177 1.386 . S
C1176 C1178 1.391 . S
C1177 C1176 1.386 . S
C1177 C1181 1.393 . S
C1178 H1170 0.950 . S
C1178 C1176 1.391 . S
C1178 C1179 1.400 . S
C1179 C1178 1.400 . S
C1179 C1180 1.398 . S
C1179 C1185 1.491 . S
C1180 H1171 0.950 . S
C1180 C1179 1.398 . S
C1180 C1181 1.391 . S
C1181 H1169 0.950 . S
C1181 C1177 1.393 . S
C1181 C1180 1.391 . S
C1182 H1172 0.950 . S
C1182 C1183 1.386 . S
C1182 C1184 1.391 . S
C1183 C1182 1.386 . S
C1183 C1187 1.393 . S
C1184 H1173 0.950 . S
C1184 C1182 1.391 . S
C1184 C1185 1.400 . S
C1185 C1179 1.491 . S
C1185 C1184 1.400 . S
C1185 C1186 1.398 . S
C1186 H1174 0.950 . S
C1186 C1185 1.398 . S
C1186 C1187 1.391 . S
C1187 H1175 0.950 . S
C1187 C1183 1.393 . S
C1187 C1186 1.391 . S
H1188 C1196 0.950 . S
H1189 C1201 0.950 . S
H1190 C1198 0.950 . S
H1191 C1200 0.950 . S
H1192 C1202 0.950 . S
H1193 C1204 0.950 . S
H1194 C1206 0.950 . S
H1195 C1207 0.950 . S
C1196 H1188 0.950 . S
C1196 C1197 1.386 . S
C1196 C1198 1.391 . S
C1197 C1196 1.386 . S
C1197 C1201 1.393 . S
C1198 H1190 0.950 . S
C1198 C1196 1.391 . S
C1198 C1199 1.398 1_565 S
C1199 C1198 1.398 1_545 S
C1199 C1200 1.399 . S
C1199 C1205 1.492 . S
C1200 H1191 0.950 . S
C1200 C1199 1.399 . S
C1200 C1201 1.391 1_545 S
C1201 H1189 0.950 . S
C1201 C1197 1.393 . S
C1201 C1200 1.391 1_565 S
C1202 H1192 0.950 . S
C1202 C1203 1.386 . S
C1202 C1204 1.391 . S
C1203 C1202 1.386 . S
C1203 C1207 1.393 . S
C1204 H1193 0.950 . S
C1204 C1202 1.391 . S
C1204 C1205 1.400 . S
C1205 C1199 1.492 . S
C1205 C1204 1.400 . S
C1205 C1206 1.398 . S
C1206 H1194 0.950 . S
C1206 C1205 1.398 . S
C1206 C1207 1.391 . S
C1207 H1195 0.950 . S
C1207 C1203 1.393 . S
C1207 C1206 1.391 . S
H1208 C1216 0.950 . S
H1209 C1221 0.950 . S
H1210 C1218 0.950 . S
H1211 C1220 0.950 . S
H1212 C1222 0.950 . S
H1213 C1224 0.950 . S
H1214 C1226 0.950 . S
H1215 C1227 0.950 . S
C1216 H1208 0.950 . S
C1216 C1217 1.386 . S
C1216 C1218 1.391 . S
C1217 C1216 1.386 . S
C1217 C1221 1.393 . S
C1218 H1210 0.950 . S
C1218 C1216 1.391 . S
C1218 C1219 1.400 1_554 S
C1219 C1218 1.400 1_556 S
C1219 C1220 1.398 . S
C1219 C1225 1.491 . S
C1220 H1211 0.950 . S
C1220 C1219 1.398 . S
C1220 C1221 1.391 1_556 S
C1221 H1209 0.950 . S
C1221 C1217 1.393 . S
C1221 C1220 1.391 1_554 S
C1222 H1212 0.950 . S
C1222 C1223 1.386 . S
C1222 C1224 1.391 . S
C1223 C1222 1.386 . S
C1223 C1227 1.393 . S
C1224 H1213 0.950 . S
C1224 C1222 1.391 . S
C1224 C1225 1.400 . S
C1225 C1219 1.491 . S
C1225 C1224 1.400 . S
C1225 C1226 1.398 . S
C1226 H1214 0.950 . S
C1226 C1225 1.398 . S
C1226 C1227 1.391 . S
C1227 H1215 0.950 . S
C1227 C1223 1.393 . S
C1227 C1226 1.391 . S
H1228 C1236 0.950 . S
H1229 C1241 0.950 . S
H1230 C1238 0.950 . S
H1231 C1240 0.956 . S
H1232 C1242 0.950 . S
H1233 C1244 0.950 . S
H1234 C1246 0.950 . S
H1235 C1247 0.950 . S
C1236 H1228 0.950 . S
C1236 C1237 1.386 1_455 S
C1236 C1238 1.391 . S
C1237 C1236 1.386 1_655 S
C1237 C1241 1.393 . S
C1238 H1230 0.950 . S
C1238 C1236 1.391 . S
C1238 C1239 1.400 . S
C1239 C1238 1.400 . S
C1239 C1240 1.368 1_455 S
C1239 C1245 1.491 . S
C1240 H1231 0.956 . S
C1240 C1239 1.368 1_655 S
C1240 C1241 1.416 . S
C1241 H1229 0.950 . S
C1241 C1237 1.393 . S
C1241 C1240 1.416 . S
C1242 H1232 0.950 . S
C1242 C1243 1.386 . S
C1242 C1244 1.391 . S
C1243 C1242 1.386 . S
C1243 C1247 1.393 . S
C1244 H1233 0.950 . S
C1244 C1242 1.391 . S
C1244 C1245 1.400 . S
C1245 C1239 1.491 . S
C1245 C1244 1.400 . S
C1245 C1246 1.398 . S
C1246 H1234 0.950 . S
C1246 C1245 1.398 . S
C1246 C1247 1.391 . S
C1247 H1235 0.950 . S
C1247 C1243 1.393 . S
C1247 C1246 1.391 . S
H1248 C1256 0.950 . S
H1249 C1261 0.950 . S
H1250 C1258 0.950 . S
H1251 C1260 0.950 . S
H1252 C1262 0.950 . S
H1253 C1264 0.950 . S
H1254 C1266 0.950 . S
H1255 C1267 0.950 . S
C1256 H1248 0.950 . S
C1256 C1257 1.386 . S
C1256 C1258 1.391 . S
C1257 C1256 1.386 . S
C1257 C1261 1.393 . S
C1258 H1250 0.950 . S
C1258 C1256 1.391 . S
C1258 C1259 1.400 . S
C1259 C1258 1.400 . S
C1259 C1260 1.398 . S
C1259 C1265 1.491 . S
C1260 H1251 0.950 . S
C1260 C1259 1.398 . S
C1260 C1261 1.391 . S
C1261 H1249 0.950 . S
C1261 C1257 1.393 . S
C1261 C1260 1.391 . S
C1262 H1252 0.950 . S
C1262 C1263 1.386 . S
C1262 C1264 1.391 . S
C1263 C1262 1.386 . S
C1263 C1267 1.393 . S
C1264 H1253 0.950 . S
C1264 C1262 1.391 . S
C1264 C1265 1.400 . S
C1265 C1259 1.491 . S
C1265 C1264 1.400 . S
C1265 C1266 1.398 . S
C1266 H1254 0.950 . S
C1266 C1265 1.398 . S
C1266 C1267 1.391 . S
C1267 H1255 0.950 . S
C1267 C1263 1.393 . S
C1267 C1266 1.391 . S
H1268 C1276 0.950 . S
H1269 C1281 0.950 . S
H1270 C1278 0.947 1_455 S
H1271 C1280 0.950 . S
H1272 C1282 0.950 . S
H1273 C1284 0.950 . S
H1274 C1286 0.950 . S
H1275 C1287 0.950 . S
C1276 H1268 0.950 . S
C1276 C1277 1.386 . S
C1276 C1278 1.381 1_455 S
C1277 C1276 1.386 . S
C1277 C1281 1.393 1_455 S
C1278 H1270 0.947 1_655 S
C1278 C1276 1.381 1_655 S
C1278 C1279 1.413 . S
C1279 C1278 1.413 . S
C1279 C1280 1.398 . S
C1279 C1285 1.491 . S
C1280 H1271 0.950 . S
C1280 C1279 1.398 . S
C1280 C1281 1.391 . S
C1281 H1269 0.950 . S
C1281 C1277 1.393 1_655 S
C1281 C1280 1.391 . S
C1282 H1272 0.950 . S
C1282 C1283 1.386 . S
C1282 C1284 1.391 . S
C1283 C1282 1.386 . S
C1283 C1287 1.393 . S
C1284 H1273 0.950 . S
C1284 C1282 1.391 . S
C1284 C1285 1.400 . S
C1285 C1279 1.491 . S
C1285 C1284 1.400 . S
C1285 C1286 1.398 . S
C1286 H1274 0.950 . S
C1286 C1285 1.398 . S
C1286 C1287 1.391 . S
C1287 H1275 0.950 . S
C1287 C1283 1.393 . S
C1287 C1286 1.391 . S
H1288 C1296 0.950 . S
H1289 C1301 0.950 . S
H1290 C1298 0.950 . S
H1291 C1300 0.950 . S
H1292 C1302 0.950 . S
H1293 C1304 0.950 . S
H1294 C1306 0.950 . S
H1295 C1307 0.950 . S
C1296 H1288 0.950 . S
C1296 C1297 1.386 . S
C1296 C1298 1.391 1_455 S
C1297 C1296 1.386 . S
C1297 C1301 1.393 . S
C1298 H1290 0.950 . S
C1298 C1296 1.391 1_655 S
C1298 C1299 1.400 . S
C1299 C1298 1.400 . S
C1299 C1300 1.398 . S
C1299 C1305 1.491 . S
C1300 H1291 0.950 . S
C1300 C1299 1.398 . S
C1300 C1301 1.391 1_655 S
C1301 H1289 0.950 . S
C1301 C1297 1.393 . S
C1301 C1300 1.391 1_455 S
C1302 H1292 0.950 . S
C1302 C1303 1.386 . S
C1302 C1304 1.391 . S
C1303 C1302 1.386 . S
C1303 C1307 1.393 . S
C1304 H1293 0.950 . S
C1304 C1302 1.391 . S
C1304 C1305 1.400 . S
C1305 C1299 1.491 . S
C1305 C1304 1.400 . S
C1305 C1306 1.398 . S
C1306 H1294 0.950 . S
C1306 C1305 1.398 . S
C1306 C1307 1.391 . S
C1307 H1295 0.950 . S
C1307 C1303 1.393 . S
C1307 C1306 1.391 . S
H1308 C1316 0.950 . S
H1309 C1321 0.950 . S
H1310 C1318 0.950 . S
H1311 C1320 0.950 . S
H1312 C1322 0.950 . S
H1313 C1324 0.950 . S
H1314 C1326 0.950 . S
H1315 C1327 0.950 . S
C1316 H1308 0.950 . S
C1316 C1317 1.386 . S
C1316 C1318 1.391 . S
C1317 C1316 1.386 . S
C1317 C1321 1.393 . S
C1318 H1310 0.950 . S
C1318 C1316 1.391 . S
C1318 C1319 1.400 . S
C1319 C1318 1.400 . S
C1319 C1320 1.398 . S
C1319 C1325 1.491 . S
C1320 H1311 0.950 . S
C1320 C1319 1.398 . S
C1320 C1321 1.391 . S
C1321 H1309 0.950 . S
C1321 C1317 1.393 . S
C1321 C1320 1.391 . S
C1322 H1312 0.950 . S
C1322 C1323 1.386 . S
C1322 C1324 1.391 . S
C1323 C1322 1.386 . S
C1323 C1327 1.393 . S
C1324 H1313 0.950 . S
C1324 C1322 1.391 . S
C1324 C1325 1.400 . S
C1325 C1319 1.491 . S
C1325 C1324 1.400 . S
C1325 C1326 1.398 . S
C1326 H1314 0.950 . S
C1326 C1325 1.398 . S
C1326 C1327 1.391 . S
C1327 H1315 0.950 . S
C1327 C1323 1.393 . S
C1327 C1326 1.391 . S
H1328 C1336 0.950 . S
H1329 C1341 0.950 . S
H1330 C1338 0.950 . S
H1331 C1340 0.950 . S
H1332 C1342 0.950 . S
H1333 C1344 0.950 . S
H1334 C1346 0.950 . S
H1335 C1347 0.950 . S
C1336 H1328 0.950 . S
C1336 C1337 1.386 . S
C1336 C1338 1.391 1_655 S
C1337 C1336 1.386 . S
C1337 C1341 1.393 . S
C1338 H1330 0.950 . S
C1338 C1336 1.391 1_455 S
C1338 C1339 1.400 . S
C1339 C1338 1.400 . S
C1339 C1340 1.398 1_455 S
C1339 C1345 1.491 . S
C1340 H1331 0.950 . S
C1340 C1339 1.398 1_655 S
C1340 C1341 1.391 . S
C1341 H1329 0.950 . S
C1341 C1337 1.393 . S
C1341 C1340 1.391 . S
C1342 H1332 0.950 . S
C1342 C1343 1.386 . S
C1342 C1344 1.391 . S
C1343 C1342 1.386 . S
C1343 C1347 1.393 . S
C1344 H1333 0.950 . S
C1344 C1342 1.391 . S
C1344 C1345 1.400 . S
C1345 C1339 1.491 . S
C1345 C1344 1.400 . S
C1345 C1346 1.398 . S
C1346 H1334 0.950 . S
C1346 C1345 1.398 . S
C1346 C1347 1.391 . S
C1347 H1335 0.950 . S
C1347 C1343 1.393 . S
C1347 C1346 1.391 . S
H1348 C1356 0.950 . S
H1349 C1361 0.950 . S
H1350 C1358 0.950 . S
H1351 C1360 0.950 . S
H1352 C1362 0.950 . S
H1353 C1364 0.950 . S
H1354 C1366 0.950 . S
H1355 C1367 0.950 . S
C1356 H1348 0.950 . S
C1356 C1357 1.386 . S
C1356 C1358 1.391 . S
C1357 C1356 1.386 . S
C1357 C1361 1.393 . S
C1358 H1350 0.950 . S
C1358 C1356 1.391 . S
C1358 C1359 1.400 . S
C1359 C1358 1.400 . S
C1359 C1360 1.398 . S
C1359 C1365 1.491 . S
C1360 H1351 0.950 . S
C1360 C1359 1.398 . S
C1360 C1361 1.391 . S
C1361 H1349 0.950 . S
C1361 C1357 1.393 . S
C1361 C1360 1.391 . S
C1362 H1352 0.950 . S
C1362 C1363 1.386 . S
C1362 C1364 1.391 . S
C1363 C1362 1.386 . S
C1363 C1367 1.393 . S
C1364 H1353 0.950 . S
C1364 C1362 1.391 . S
C1364 C1365 1.400 . S
C1365 C1359 1.491 . S
C1365 C1364 1.400 . S
C1365 C1366 1.398 . S
C1366 H1354 0.950 . S
C1366 C1365 1.398 . S
C1366 C1367 1.391 . S
C1367 H1355 0.950 . S
C1367 C1363 1.393 . S
C1367 C1366 1.391 . S
H1368 C1376 0.950 . S
H1369 C1381 0.950 . S
H1370 C1378 0.950 . S
H1371 C1380 0.950 . S
H1372 C1382 0.950 . S
H1373 C1384 0.950 . S
H1374 C1386 0.950 . S
H1375 C1387 0.950 . S
C1376 H1368 0.950 . S
C1376 C1377 1.386 . S
C1376 C1378 1.391 . S
C1377 C1376 1.386 . S
C1377 C1381 1.393 . S
C1378 H1370 0.950 . S
C1378 C1376 1.391 . S
C1378 C1379 1.400 . S
C1379 C1378 1.400 . S
C1379 C1380 1.398 . S
C1379 C1385 1.491 . S
C1380 H1371 0.950 . S
C1380 C1379 1.398 . S
C1380 C1381 1.391 . S
C1381 H1369 0.950 . S
C1381 C1377 1.393 . S
C1381 C1380 1.391 . S
C1382 H1372 0.950 . S
C1382 C1383 1.386 . S
C1382 C1384 1.391 . S
C1383 C1382 1.386 . S
C1383 C1387 1.393 . S
C1384 H1373 0.950 . S
C1384 C1382 1.391 . S
C1384 C1385 1.400 . S
C1385 C1379 1.491 . S
C1385 C1384 1.400 . S
C1385 C1386 1.398 . S
C1386 H1374 0.950 . S
C1386 C1385 1.398 . S
C1386 C1387 1.391 . S
C1387 H1375 0.950 . S
C1387 C1383 1.393 . S
C1387 C1386 1.391 . S
H1388 C1396 0.950 . S
H1389 C1401 0.950 . S
H1390 C1398 0.950 . S
H1391 C1400 0.950 1_556 S
H1392 C1402 0.950 . S
H1393 C1404 0.950 . S
H1394 C1406 0.950 1_554 S
H1395 C1407 0.950 . S
C1396 H1388 0.950 . S
C1396 C1397 1.386 . S
C1396 C1398 1.391 . S
C1397 C1396 1.386 . S
C1397 C1401 1.393 . S
C1398 H1390 0.950 . S
C1398 C1396 1.391 . S
C1398 C1399 1.400 . S
C1399 C1398 1.400 . S
C1399 C1400 1.398 . S
C1399 C1405 1.491 1_554 S
C1400 H1391 0.950 1_554 S
C1400 C1399 1.398 . S
C1400 C1401 1.391 . S
C1401 H1389 0.950 . S
C1401 C1397 1.393 . S
C1401 C1400 1.391 . S
C1402 H1392 0.950 . S
C1402 C1403 1.386 . S
C1402 C1404 1.391 . S
C1403 C1402 1.386 . S
C1403 C1407 1.393 . S
C1404 H1393 0.950 . S
C1404 C1402 1.391 . S
C1404 C1405 1.400 . S
C1405 C1399 1.491 1_556 S
C1405 C1404 1.400 . S
C1405 C1406 1.398 . S
C1406 H1394 0.950 1_556 S
C1406 C1405 1.398 . S
C1406 C1407 1.390 . S
C1407 H1395 0.950 . S
C1407 C1403 1.393 . S
C1407 C1406 1.390 . S
H1408 C1416 0.950 . S
H1409 C1421 0.950 . S
H1410 C1418 0.950 . S
H1411 C1420 0.950 . S
H1412 C1422 0.950 . S
H1413 C1424 0.950 . S
H1414 C1426 0.950 . S
H1415 C1427 0.950 . S
C1416 H1408 0.950 . S
C1416 C1417 1.386 . S
C1416 C1418 1.391 . S
C1417 C1416 1.386 . S
C1417 C1421 1.393 . S
C1418 H1410 0.950 . S
C1418 C1416 1.391 . S
C1418 C1419 1.400 . S
C1419 C1418 1.400 . S
C1419 C1420 1.398 . S
C1419 C1425 1.491 . S
C1420 H1411 0.950 . S
C1420 C1419 1.398 . S
C1420 C1421 1.391 . S
C1421 H1409 0.950 . S
C1421 C1417 1.393 . S
C1421 C1420 1.391 . S
C1422 H1412 0.950 . S
C1422 C1423 1.386 . S
C1422 C1424 1.391 . S
C1423 C1422 1.386 . S
C1423 C1427 1.393 . S
C1424 H1413 0.950 . S
C1424 C1422 1.391 . S
C1424 C1425 1.400 . S
C1425 C1419 1.491 . S
C1425 C1424 1.400 . S
C1425 C1426 1.398 . S
C1426 H1414 0.950 . S
C1426 C1425 1.398 . S
C1426 C1427 1.391 . S
C1427 H1415 0.950 . S
C1427 C1423 1.393 . S
C1427 C1426 1.391 . S
H1428 C1436 0.950 . S
H1429 C1441 0.950 . S
H1430 C1438 0.950 . S
H1431 C1440 0.950 . S
H1432 C1442 0.950 . S
H1433 C1444 0.950 . S
H1434 C1446 0.950 . S
H1435 C1447 0.950 . S
C1436 H1428 0.950 . S
C1436 C1437 1.386 . S
C1436 C1438 1.391 . S
C1437 C1436 1.386 . S
C1437 C1441 1.393 . S
C1438 H1430 0.950 . S
C1438 C1436 1.391 . S
C1438 C1439 1.400 . S
C1439 C1438 1.400 . S
C1439 C1440 1.398 . S
C1439 C1445 1.491 . S
C1440 H1431 0.950 . S
C1440 C1439 1.398 . S
C1440 C1441 1.391 . S
C1441 H1429 0.950 . S
C1441 C1437 1.393 . S
C1441 C1440 1.391 . S
C1442 H1432 0.950 . S
C1442 C1443 1.386 . S
C1442 C1444 1.391 . S
C1443 C1442 1.386 . S
C1443 C1447 1.393 . S
C1444 H1433 0.950 . S
C1444 C1442 1.391 . S
C1444 C1445 1.400 . S
C1445 C1439 1.491 . S
C1445 C1444 1.400 . S
C1445 C1446 1.398 . S
C1446 H1434 0.950 . S
C1446 C1445 1.398 . S
C1446 C1447 1.391 . S
C1447 H1435 0.950 . S
C1447 C1443 1.393 . S
C1447 C1446 1.391 . S
H1448 C1456 0.950 . S
H1449 C1461 0.950 . S
H1450 C1458 0.950 . S
H1451 C1460 0.950 . S
H1452 C1462 0.950 . S
H1453 C1464 0.950 . S
H1454 C1466 0.950 . S
H1455 C1467 0.950 . S
C1456 H1448 0.950 . S
C1456 C1457 1.386 . S
C1456 C1458 1.391 . S
C1457 C1456 1.386 . S
C1457 C1461 1.393 . S
C1458 H1450 0.950 . S
C1458 C1456 1.391 . S
C1458 C1459 1.400 . S
C1459 C1458 1.400 . S
C1459 C1460 1.398 . S
C1459 C1465 1.491 . S
C1460 H1451 0.950 . S
C1460 C1459 1.398 . S
C1460 C1461 1.391 . S
C1461 H1449 0.950 . S
C1461 C1457 1.393 . S
C1461 C1460 1.391 . S
C1462 H1452 0.950 . S
C1462 C1463 1.386 . S
C1462 C1464 1.391 . S
C1463 C1462 1.386 . S
C1463 C1467 1.393 . S
C1464 H1453 0.950 . S
C1464 C1462 1.391 . S
C1464 C1465 1.400 . S
C1465 C1459 1.491 . S
C1465 C1464 1.400 . S
C1465 C1466 1.398 . S
C1466 H1454 0.950 . S
C1466 C1465 1.398 . S
C1466 C1467 1.391 . S
C1467 H1455 0.950 . S
C1467 C1463 1.393 . S
C1467 C1466 1.391 . S
H1468 C1476 0.950 . S
H1469 C1481 0.950 . S
H1470 C1478 0.950 . S
H1471 C1480 0.950 . S
H1472 C1482 0.950 . S
H1473 C1484 0.950 . S
H1474 C1486 0.950 . S
H1475 C1487 0.950 . S
C1476 H1468 0.950 . S
C1476 C1477 1.386 . S
C1476 C1478 1.391 . S
C1477 C1476 1.386 . S
C1477 C1481 1.393 . S
C1478 H1470 0.950 . S
C1478 C1476 1.391 . S
C1478 C1479 1.400 . S
C1479 C1478 1.400 . S
C1479 C1480 1.398 . S
C1479 C1485 1.491 . S
C1480 H1471 0.950 . S
C1480 C1479 1.398 . S
C1480 C1481 1.391 . S
C1481 H1469 0.950 . S
C1481 C1477 1.393 . S
C1481 C1480 1.391 . S
C1482 H1472 0.950 . S
C1482 C1483 1.386 . S
C1482 C1484 1.391 1_556 S
C1483 C1482 1.386 . S
C1483 C1487 1.393 . S
C1484 H1473 0.950 . S
C1484 C1482 1.391 1_554 S
C1484 C1485 1.400 . S
C1485 C1479 1.491 . S
C1485 C1484 1.400 . S
C1485 C1486 1.398 1_554 S
C1486 H1474 0.950 . S
C1486 C1485 1.398 1_556 S
C1486 C1487 1.391 . S
C1487 H1475 0.950 . S
C1487 C1483 1.393 . S
C1487 C1486 1.391 . S
H1488 C1496 0.950 . S
H1489 C1501 0.950 . S
H1490 C1498 0.950 . S
H1491 C1500 0.950 . S
H1492 C1502 0.950 . S
H1493 C1504 0.950 . S
H1494 C1506 0.950 . S
H1495 C1507 0.950 . S
C1496 H1488 0.950 . S
C1496 C1497 1.386 . S
C1496 C1498 1.391 . S
C1497 C1496 1.386 . S
C1497 C1501 1.393 . S
C1498 H1490 0.950 . S
C1498 C1496 1.391 . S
C1498 C1499 1.400 . S
C1499 C1498 1.400 . S
C1499 C1500 1.398 . S
C1499 C1505 1.491 . S
C1500 H1491 0.950 . S
C1500 C1499 1.398 . S
C1500 C1501 1.391 . S
C1501 H1489 0.950 . S
C1501 C1497 1.393 . S
C1501 C1500 1.391 . S
C1502 H1492 0.950 . S
C1502 C1503 1.386 . S
C1502 C1504 1.391 . S
C1503 C1502 1.386 . S
C1503 C1507 1.393 . S
C1504 H1493 0.950 . S
C1504 C1502 1.391 . S
C1504 C1505 1.400 . S
C1505 C1499 1.491 . S
C1505 C1504 1.400 . S
C1505 C1506 1.398 . S
C1506 H1494 0.950 . S
C1506 C1505 1.398 . S
C1506 C1507 1.391 . S
C1507 H1495 0.950 . S
C1507 C1503 1.393 . S
C1507 C1506 1.391 . S
H1508 C1516 0.950 . S
H1509 C1521 0.950 . S
H1510 C1518 0.950 . S
H1511 C1520 0.950 . S
H1512 C1522 0.950 . S
H1513 C1524 0.950 . S
H1514 C1526 0.950 . S
H1515 C1527 0.950 . S
C1516 H1508 0.950 . S
C1516 C1517 1.386 . S
C1516 C1518 1.391 . S
C1517 C1516 1.386 . S
C1517 C1521 1.393 . S
C1518 H1510 0.950 . S
C1518 C1516 1.391 . S
C1518 C1519 1.400 . S
C1519 C1518 1.400 . S
C1519 C1520 1.398 . S
C1519 C1525 1.491 . S
C1520 H1511 0.950 . S
C1520 C1519 1.398 . S
C1520 C1521 1.391 . S
C1521 H1509 0.950 . S
C1521 C1517 1.393 . S
C1521 C1520 1.391 . S
C1522 H1512 0.950 . S
C1522 C1523 1.386 . S
C1522 C1524 1.391 . S
C1523 C1522 1.386 . S
C1523 C1527 1.393 . S
C1524 H1513 0.950 . S
C1524 C1522 1.391 . S
C1524 C1525 1.400 . S
C1525 C1519 1.491 . S
C1525 C1524 1.400 . S
C1525 C1526 1.398 . S
C1526 H1514 0.950 . S
C1526 C1525 1.398 . S
C1526 C1527 1.391 . S
C1527 H1515 0.950 . S
C1527 C1523 1.393 . S
C1527 C1526 1.391 . S
H1528 C1536 0.950 . S
H1529 C1541 0.950 . S
H1530 C1538 0.950 . S
H1531 C1540 0.950 . S
H1532 C1542 0.950 . S
H1533 C1544 0.950 . S
H1534 C1546 0.950 . S
H1535 C1547 0.950 . S
C1536 H1528 0.950 . S
C1536 C1537 1.386 . S
C1536 C1538 1.391 . S
C1537 C1536 1.386 . S
C1537 C1541 1.393 . S
C1538 H1530 0.950 . S
C1538 C1536 1.391 . S
C1538 C1539 1.400 . S
C1539 C1538 1.400 . S
C1539 C1540 1.398 . S
C1539 C1545 1.491 . S
C1540 H1531 0.950 . S
C1540 C1539 1.398 . S
C1540 C1541 1.391 . S
C1541 H1529 0.950 . S
C1541 C1537 1.393 . S
C1541 C1540 1.391 . S
C1542 H1532 0.950 . S
C1542 C1543 1.386 . S
C1542 C1544 1.391 . S
C1543 C1542 1.386 . S
C1543 C1547 1.393 . S
C1544 H1533 0.950 . S
C1544 C1542 1.391 . S
C1544 C1545 1.400 . S
C1545 C1539 1.491 . S
C1545 C1544 1.400 . S
C1545 C1546 1.398 . S
C1546 H1534 0.950 . S
C1546 C1545 1.398 . S
C1546 C1547 1.391 . S
C1547 H1535 0.950 . S
C1547 C1543 1.393 . S
C1547 C1546 1.391 . S
H1548 C1556 0.950 . S
H1549 C1561 0.950 . S
H1550 C1558 0.950 . S
H1551 C1560 0.950 . S
H1552 C1562 0.950 . S
H1553 C1564 0.950 . S
H1554 C1566 0.950 . S
H1555 C1567 0.950 . S
C1556 H1548 0.950 . S
C1556 C1557 1.386 . S
C1556 C1558 1.391 . S
C1557 C1556 1.386 . S
C1557 C1561 1.393 . S
C1558 H1550 0.950 . S
C1558 C1556 1.391 . S
C1558 C1559 1.400 . S
C1559 C1558 1.400 . S
C1559 C1560 1.398 . S
C1559 C1565 1.491 . S
C1560 H1551 0.950 . S
C1560 C1559 1.398 . S
C1560 C1561 1.391 . S
C1561 H1549 0.950 . S
C1561 C1557 1.393 . S
C1561 C1560 1.391 . S
C1562 H1552 0.950 . S
C1562 C1563 1.386 . S
C1562 C1564 1.391 . S
C1563 C1562 1.386 . S
C1563 C1567 1.393 . S
C1564 H1553 0.950 . S
C1564 C1562 1.391 . S
C1564 C1565 1.400 . S
C1565 C1559 1.491 . S
C1565 C1564 1.400 . S
C1565 C1566 1.398 . S
C1566 H1554 0.950 . S
C1566 C1565 1.398 . S
C1566 C1567 1.391 . S
C1567 H1555 0.950 . S
C1567 C1563 1.393 . S
C1567 C1566 1.391 . S
H1568 C1576 0.950 . S
H1569 C1581 0.950 . S
H1570 C1578 0.950 . S
H1571 C1580 0.950 . S
H1572 C1582 0.950 . S
H1573 C1584 0.950 . S
H1574 C1586 0.950 1_554 S
H1575 C1587 0.950 . S
C1576 H1568 0.950 . S
C1576 C1577 1.386 . S
C1576 C1578 1.391 . S
C1577 C1576 1.386 . S
C1577 C1581 1.393 . S
C1578 H1570 0.950 . S
C1578 C1576 1.391 . S
C1578 C1579 1.400 . S
C1579 C1578 1.400 . S
C1579 C1580 1.398 1_554 S
C1579 C1585 1.491 1_554 S
C1580 H1571 0.950 . S
C1580 C1579 1.398 1_556 S
C1580 C1581 1.391 1_556 S
C1581 H1569 0.950 . S
C1581 C1577 1.393 . S
C1581 C1580 1.391 1_554 S
C1582 H1572 0.950 . S
C1582 C1583 1.386 . S
C1582 C1584 1.391 . S
C1583 C1582 1.386 . S
C1583 C1587 1.393 . S
C1584 H1573 0.950 . S
C1584 C1582 1.391 . S
C1584 C1585 1.400 . S
C1585 C1579 1.491 1_556 S
C1585 C1584 1.400 . S
C1585 C1586 1.398 . S
C1586 H1574 0.950 1_556 S
C1586 C1585 1.398 . S
C1586 C1587 1.391 . S
C1587 H1575 0.950 . S
C1587 C1583 1.393 . S
C1587 C1586 1.391 . S
H1588 C1596 0.950 . S
H1589 C1601 0.950 . S
H1590 C1598 0.950 . S
H1591 C1600 0.950 . S
H1592 C1602 0.950 . S
H1593 C1604 0.950 . S
H1594 C1606 0.950 . S
H1595 C1607 0.950 . S
C1596 H1588 0.950 . S
C1596 C1597 1.386 . S
C1596 C1598 1.391 . S
C1597 C1596 1.386 . S
C1597 C1601 1.393 . S
C1598 H1590 0.950 . S
C1598 C1596 1.391 . S
C1598 C1599 1.400 . S
C1599 C1598 1.400 . S
C1599 C1600 1.398 . S
C1599 C1605 1.491 . S
C1600 H1591 0.950 . S
C1600 C1599 1.398 . S
C1600 C1601 1.391 . S
C1601 H1589 0.950 . S
C1601 C1597 1.393 . S
C1601 C1600 1.391 . S
C1602 H1592 0.950 . S
C1602 C1603 1.386 . S
C1602 C1604 1.391 . S
C1603 C1602 1.386 . S
C1603 C1607 1.393 . S
C1604 H1593 0.950 . S
C1604 C1602 1.391 . S
C1604 C1605 1.400 . S
C1605 C1599 1.491 . S
C1605 C1604 1.400 . S
C1605 C1606 1.398 . S
C1606 H1594 0.950 . S
C1606 C1605 1.398 . S
C1606 C1607 1.391 . S
C1607 H1595 0.950 . S
C1607 C1603 1.393 . S
C1607 C1606 1.391 . S
H1608 C1616 0.950 . S
H1609 C1621 0.950 . S
H1610 C1618 0.950 . S
H1611 C1620 0.950 . S
H1612 C1622 0.950 . S
H1613 C1624 0.950 . S
H1614 C1626 0.950 . S
H1615 C1627 0.950 . S
C1616 H1608 0.950 . S
C1616 C1617 1.386 . S
C1616 C1618 1.391 . S
C1617 C1616 1.386 . S
C1617 C1621 1.393 . S
C1618 H1610 0.950 . S
C1618 C1616 1.391 . S
C1618 C1619 1.400 . S
C1619 C1618 1.400 . S
C1619 C1620 1.398 . S
C1619 C1625 1.491 . S
C1620 H1611 0.950 . S
C1620 C1619 1.398 . S
C1620 C1621 1.391 . S
C1621 H1609 0.950 . S
C1621 C1617 1.393 . S
C1621 C1620 1.391 . S
C1622 H1612 0.950 . S
C1622 C1623 1.386 . S
C1622 C1624 1.391 . S
C1623 C1622 1.386 . S
C1623 C1627 1.393 . S
C1624 H1613 0.950 . S
C1624 C1622 1.391 . S
C1624 C1625 1.400 . S
C1625 C1619 1.491 . S
C1625 C1624 1.400 . S
C1625 C1626 1.398 . S
C1626 H1614 0.950 . S
C1626 C1625 1.398 . S
C1626 C1627 1.391 . S
C1627 H1615 0.950 . S
C1627 C1623 1.393 . S
C1627 C1626 1.391 . S
H1628 C1636 0.950 . S
H1629 C1641 0.950 . S
H1630 C1638 0.950 . S
H1631 C1640 0.950 . S
H1632 C1642 0.950 . S
H1633 C1644 0.950 . S
H1634 C1646 0.950 . S
H1635 C1647 0.950 . S
C1636 H1628 0.950 . S
C1636 C1637 1.386 . S
C1636 C1638 1.391 . S
C1637 C1636 1.386 . S
C1637 C1641 1.393 . S
C1638 H1630 0.950 . S
C1638 C1636 1.391 . S
C1638 C1639 1.400 . S
C1639 C1638 1.400 . S
C1639 C1640 1.398 . S
C1639 C1645 1.491 . S
C1640 H1631 0.950 . S
C1640 C1639 1.398 . S
C1640 C1641 1.391 . S
C1641 H1629 0.950 . S
C1641 C1637 1.393 . S
C1641 C1640 1.391 . S
C1642 H1632 0.950 . S
C1642 C1643 1.386 . S
C1642 C1644 1.391 . S
C1643 C1642 1.386 . S
C1643 C1647 1.393 . S
C1644 H1633 0.950 . S
C1644 C1642 1.391 . S
C1644 C1645 1.400 . S
C1645 C1639 1.491 . S
C1645 C1644 1.400 . S
C1645 C1646 1.398 . S
C1646 H1634 0.950 . S
C1646 C1645 1.398 . S
C1646 C1647 1.391 . S
C1647 H1635 0.950 . S
C1647 C1643 1.393 . S
C1647 C1646 1.391 . S
H1648 C1656 0.950 . S
H1649 C1661 0.950 . S
H1650 C1658 0.950 . S
H1651 C1660 0.950 . S
H1652 C1662 0.950 . S
H1653 C1664 0.950 . S
H1654 C1666 0.950 . S
H1655 C1667 0.950 . S
C1656 H1648 0.950 . S
C1656 C1657 1.386 . S
C1656 C1658 1.391 . S
C1657 C1656 1.386 . S
C1657 C1661 1.393 . S
C1658 H1650 0.950 . S
C1658 C1656 1.391 . S
C1658 C1659 1.400 1_554 S
C1659 C1658 1.400 1_556 S
C1659 C1660 1.398 . S
C1659 C1665 1.491 . S
C1660 H1651 0.950 . S
C1660 C1659 1.398 . S
C1660 C1661 1.391 1_556 S
C1661 H1649 0.950 . S
C1661 C1657 1.393 . S
C1661 C1660 1.391 1_554 S
C1662 H1652 0.950 . S
C1662 C1663 1.386 . S
C1662 C1664 1.391 . S
C1663 C1662 1.386 . S
C1663 C1667 1.393 . S
C1664 H1653 0.950 . S
C1664 C1662 1.391 . S
C1664 C1665 1.400 . S
C1665 C1659 1.491 . S
C1665 C1664 1.400 . S
C1665 C1666 1.398 . S
C1666 H1654 0.950 . S
C1666 C1665 1.398 . S
C1666 C1667 1.391 . S
C1667 H1655 0.950 . S
C1667 C1663 1.393 . S
C1667 C1666 1.391 . S
H1668 C1676 0.950 . S
H1669 C1681 0.950 . S
H1670 C1678 0.950 . S
H1671 C1680 0.950 . S
H1672 C1682 0.950 . S
H1673 C1684 0.950 . S
H1674 C1686 0.950 . S
H1675 C1687 0.950 . S
C1676 H1668 0.950 . S
C1676 C1677 1.386 . S
C1676 C1678 1.391 . S
C1677 C1676 1.386 . S
C1677 C1681 1.393 . S
C1678 H1670 0.950 . S
C1678 C1676 1.391 . S
C1678 C1679 1.400 . S
C1679 C1678 1.400 . S
C1679 C1680 1.398 . S
C1679 C1685 1.491 . S
C1680 H1671 0.950 . S
C1680 C1679 1.398 . S
C1680 C1681 1.391 . S
C1681 H1669 0.950 . S
C1681 C1677 1.393 . S
C1681 C1680 1.391 . S
C1682 H1672 0.950 . S
C1682 C1683 1.386 . S
C1682 C1684 1.391 . S
C1683 C1682 1.386 . S
C1683 C1687 1.393 . S
C1684 H1673 0.950 . S
C1684 C1682 1.391 . S
C1684 C1685 1.400 . S
C1685 C1679 1.491 . S
C1685 C1684 1.400 . S
C1685 C1686 1.398 . S
C1686 H1674 0.950 . S
C1686 C1685 1.398 . S
C1686 C1687 1.391 . S
C1687 H1675 0.950 . S
C1687 C1683 1.393 . S
C1687 C1686 1.391 . S
H1688 C1696 0.950 . S
H1689 C1701 0.950 . S
H1690 C1698 0.950 . S
H1691 C1700 0.950 . S
H1692 C1702 0.950 . S
H1693 C1704 0.950 . S
H1694 C1706 0.950 . S
H1695 C1707 0.950 . S
C1696 H1688 0.950 . S
C1696 C1697 1.386 . S
C1696 C1698 1.391 . S
C1697 C1696 1.386 . S
C1697 C1701 1.393 . S
C1698 H1690 0.950 . S
C1698 C1696 1.391 . S
C1698 C1699 1.400 . S
C1699 C1698 1.400 . S
C1699 C1700 1.398 . S
C1699 C1705 1.491 . S
C1700 H1691 0.950 . S
C1700 C1699 1.398 . S
C1700 C1701 1.391 . S
C1701 H1689 0.950 . S
C1701 C1697 1.393 . S
C1701 C1700 1.391 . S
C1702 H1692 0.950 . S
C1702 C1703 1.386 . S
C1702 C1704 1.391 . S
C1703 C1702 1.386 . S
C1703 C1707 1.393 . S
C1704 H1693 0.950 . S
C1704 C1702 1.391 . S
C1704 C1705 1.400 . S
C1705 C1699 1.491 . S
C1705 C1704 1.400 . S
C1705 C1706 1.398 . S
C1706 H1694 0.950 . S
C1706 C1705 1.398 . S
C1706 C1707 1.391 . S
C1707 H1695 0.950 . S
C1707 C1703 1.393 . S
C1707 C1706 1.391 . S
H1708 C1716 0.950 . S
H1709 C1721 0.950 . S
H1710 C1718 0.950 . S
H1711 C1720 0.950 . S
H1712 C1722 0.950 . S
H1713 C1724 0.950 . S
H1714 C1726 0.950 . S
H1715 C1727 0.950 . S
C1716 H1708 0.950 . S
C1716 C1717 1.386 . S
C1716 C1718 1.391 . S
C1717 C1716 1.386 . S
C1717 C1721 1.393 . S
C1718 H1710 0.950 . S
C1718 C1716 1.391 . S
C1718 C1719 1.400 . S
C1719 C1718 1.400 . S
C1719 C1720 1.398 . S
C1719 C1725 1.491 . S
C1720 H1711 0.950 . S
C1720 C1719 1.398 . S
C1720 C1721 1.391 . S
C1721 H1709 0.950 . S
C1721 C1717 1.393 . S
C1721 C1720 1.391 . S
C1722 H1712 0.950 . S
C1722 C1723 1.386 . S
C1722 C1724 1.391 . S
C1723 C1722 1.386 . S
C1723 C1727 1.393 . S
C1724 H1713 0.950 . S
C1724 C1722 1.391 . S
C1724 C1725 1.400 . S
C1725 C1719 1.491 . S
C1725 C1724 1.400 . S
C1725 C1726 1.398 . S
C1726 H1714 0.950 . S
C1726 C1725 1.398 . S
C1726 C1727 1.391 . S
C1727 H1715 0.950 . S
C1727 C1723 1.393 . S
C1727 C1726 1.391 . S
C457 C7 0.580 . S
C463 C189 0.553 . S
C477 C357 1.146 . S
C483 C21 1.154 . S
C497 C35 1.944 . S
C503 C217 1.924 . S
C517 C49 1.945 . S
C523 C343 1.932 . S
C537 C63 1.134 . S
C543 C245 1.143 . S
C557 C77 0.882 . S
C563 C315 0.871 . S
C577 C91 0.861 . S
C583 C273 0.879 . S
C597 C441 0.598 . S
C603 C105 0.627 . S
C617 C301 1.133 . S
C623 C119 1.128 . S
C637 C133 0.867 . S
C643 C259 0.871 . S
C657 C329 0.872 . S
C663 C147 0.887 . S
C677 C161 1.925 . S
C683 C231 1.922 . S
C697 C203 1.127 . S
C703 C175 1.155 . S
C717 C287 0.568 . S
C723 C399 0.561 . S
C737 C413 0.580 . S
C743 C371 0.625 . S
C757 C427 1.936 . S
C763 C385 1.941 . S
C777 C3 1.428 . S
C783 C23 1.424 . S
C797 C36 1.577 . S
C803 C22 1.569 . S
C817 C45 1.182 . S
C823 C31 1.183 . S
C837 C51 1.703 . S
C843 C8 1.717 . S
C857 C101 1.423 . S
C863 C65 1.433 . S
C877 C79 1.679 . S
C883 C59 1.676 . S
C897 C87 1.351 . S
C903 C73 1.340 . S
C917 C92 1.747 . S
C923 C107 1.732 . S
C937 C134 1.751 . S
C943 C9 1.725 . S
C957 C120 1.569 . S
C963 C50 1.577 . S
C977 C149 1.663 . S
C983 C17 1.675 . S
C997 C387 1.706 . S
C1003 C106 1.716 . S
C1017 C400 1.721 . S
C1023 C37 1.695 . S
C1037 C162 1.577 . S
C1043 C64 1.564 . S
C1057 C93 1.677 . S
C1063 C171 1.679 . S
C1077 C204 1.408 . S
C1083 C185 1.392 . S
C1097 C219 1.625 . S
C1103 C205 1.621 . S
C1117 C227 1.257 . S
C1123 C213 1.271 . S
C1137 C191 1.705 . S
C1143 C232 1.721 . S
C1157 C246 1.413 . S
C1163 C283 1.399 . S
C1177 C241 1.654 . S
C1183 C260 1.663 . S
C1197 C269 1.332 . S
C1203 C255 1.330 . S
C1217 C275 1.702 . S
C1223 C288 1.708 . S
C1237 C190 1.697 . S
C1243 C317 1.691 . S
C1257 C303 1.607 . S
C1263 C233 1.623 . S
C1277 C330 1.675 . S
C1283 C199 1.667 . S
C1297 C428 1.720 . S
C1303 C289 1.707 . S
C1317 C443 1.707 . S
C1323 C218 1.720 . S
C1337 C247 1.610 . S
C1343 C345 1.614 . S
C1357 C353 1.650 . S
C1363 C274 1.660 . S
C1377 C177 1.431 . S
C1383 C367 1.426 . S
C1397 C386 1.577 . S
C1403 C176 1.569 . S
C1417 C157 1.177 . S
C1423 C381 1.189 . S
C1437 C163 1.706 . S
C1443 C372 1.717 . S
C1457 C121 1.436 . S
C1463 C395 1.417 . S
C1477 C135 1.663 . S
C1483 C115 1.671 . S
C1497 C143 1.331 . S
C1503 C129 1.343 . S
C1517 C148 1.750 . S
C1523 C401 1.730 . S
C1537 C373 1.731 . S
C1543 C78 1.747 . S
C1557 C358 1.404 . S
C1563 C409 1.390 . S
C1577 C359 1.607 . S
C1583 C429 1.614 . S
C1597 C423 1.259 . S
C1603 C339 1.263 . S
C1617 C344 1.725 . S
C1623 C415 1.712 . S
C1637 C437 1.390 . S
C1643 C302 1.404 . S
C1657 C297 1.659 . S
C1663 C316 1.670 . S
C1677 C325 1.323 . S
C1683 C311 1.333 . S
C1697 C331 1.693 . S
C1703 C442 1.699 . S
C1717 C414 1.711 . S
C1723 C261 1.707 . S
