# Generated by pormake.
# Topology wjd, (6)-cn, num edge types: 1
# Building blocks:
#     Node 0, Type 0, BuildingBlock: INOVEN_clean_sbu_0, # of connection points: 6
#     Node 1, Type 0, BuildingBlock: INOVEN_clean_sbu_0, # of connection points: 6
#     Node 2, Type 0, BuildingBlock: INOVEN_clean_sbu_0, # of connection points: 6
#     Node 3, Type 0, BuildingBlock: INOVEN_clean_sbu_0, # of connection points: 6
#     Node 4, Type 0, BuildingBlock: INOVEN_clean_sbu_0, # of connection points: 6
#     Node 5, Type 0, BuildingBlock: INOVEN_clean_sbu_0, # of connection points: 6
#     Node 6, Type 0, BuildingBlock: INOVEN_clean_sbu_0, # of connection points: 6
#     Node 7, Type 0, BuildingBlock: INOVEN_clean_sbu_0, # of connection points: 6
#     Node 8, Type 0, BuildingBlock: INOVEN_clean_sbu_0, # of connection points: 6
#     Node 9, Type 0, BuildingBlock: INOVEN_clean_sbu_0, # of connection points: 6
#     Node 10, Type 0, BuildingBlock: INOVEN_clean_sbu_0, # of connection points: 6
#     Node 11, Type 0, BuildingBlock: INOVEN_clean_sbu_0, # of connection points: 6
#     Edge 12, Type (0, 0), BuildingBlock: EZIPEK_clean_linker_0, # of connection points: 2
#     Edge 13, Type (0, 0), BuildingBlock: EZIPEK_clean_linker_0, # of connection points: 2
#     Edge 14, Type (0, 0), BuildingBlock: EZIPEK_clean_linker_0, # of connection points: 2
#     Edge 15, Type (0, 0), BuildingBlock: EZIPEK_clean_linker_0, # of connection points: 2
#     Edge 16, Type (0, 0), BuildingBlock: EZIPEK_clean_linker_0, # of connection points: 2
#     Edge 17, Type (0, 0), BuildingBlock: EZIPEK_clean_linker_0, # of connection points: 2
#     Edge 18, Type (0, 0), BuildingBlock: EZIPEK_clean_linker_0, # of connection points: 2
#     Edge 19, Type (0, 0), BuildingBlock: EZIPEK_clean_linker_0, # of connection points: 2
#     Edge 20, Type (0, 0), BuildingBlock: EZIPEK_clean_linker_0, # of connection points: 2
#     Edge 21, Type (0, 0), BuildingBlock: EZIPEK_clean_linker_0, # of connection points: 2
#     Edge 22, Type (0, 0), BuildingBlock: EZIPEK_clean_linker_0, # of connection points: 2
#     Edge 23, Type (0, 0), BuildingBlock: EZIPEK_clean_linker_0, # of connection points: 2
#     Edge 24, Type (0, 0), BuildingBlock: EZIPEK_clean_linker_0, # of connection points: 2
#     Edge 25, Type (0, 0), BuildingBlock: EZIPEK_clean_linker_0, # of connection points: 2
#     Edge 26, Type (0, 0), BuildingBlock: EZIPEK_clean_linker_0, # of connection points: 2
#     Edge 27, Type (0, 0), BuildingBlock: EZIPEK_clean_linker_0, # of connection points: 2
#     Edge 28, Type (0, 0), BuildingBlock: EZIPEK_clean_linker_0, # of connection points: 2
#     Edge 29, Type (0, 0), BuildingBlock: EZIPEK_clean_linker_0, # of connection points: 2
#     Edge 30, Type (0, 0), BuildingBlock: EZIPEK_clean_linker_0, # of connection points: 2
#     Edge 31, Type (0, 0), BuildingBlock: EZIPEK_clean_linker_0, # of connection points: 2
#     Edge 32, Type (0, 0), BuildingBlock: EZIPEK_clean_linker_0, # of connection points: 2
#     Edge 33, Type (0, 0), BuildingBlock: EZIPEK_clean_linker_0, # of connection points: 2
#     Edge 34, Type (0, 0), BuildingBlock: EZIPEK_clean_linker_0, # of connection points: 2
#     Edge 35, Type (0, 0), BuildingBlock: EZIPEK_clean_linker_0, # of connection points: 2
#     Edge 36, Type (0, 0), BuildingBlock: EZIPEK_clean_linker_0, # of connection points: 2
#     Edge 37, Type (0, 0), BuildingBlock: EZIPEK_clean_linker_0, # of connection points: 2
#     Edge 38, Type (0, 0), BuildingBlock: EZIPEK_clean_linker_0, # of connection points: 2
#     Edge 39, Type (0, 0), BuildingBlock: EZIPEK_clean_linker_0, # of connection points: 2
#     Edge 40, Type (0, 0), BuildingBlock: EZIPEK_clean_linker_0, # of connection points: 2
#     Edge 41, Type (0, 0), BuildingBlock: EZIPEK_clean_linker_0, # of connection points: 2
#     Edge 42, Type (0, 0), BuildingBlock: EZIPEK_clean_linker_0, # of connection points: 2
#     Edge 43, Type (0, 0), BuildingBlock: EZIPEK_clean_linker_0, # of connection points: 2
#     Edge 44, Type (0, 0), BuildingBlock: EZIPEK_clean_linker_0, # of connection points: 2
#     Edge 45, Type (0, 0), BuildingBlock: EZIPEK_clean_linker_0, # of connection points: 2
#     Edge 46, Type (0, 0), BuildingBlock: EZIPEK_clean_linker_0, # of connection points: 2
#     Edge 47, Type (0, 0), BuildingBlock: EZIPEK_clean_linker_0, # of connection points: 2
# Relax obj value: 0.105
# Max RMSD: 0.238
# Mean RMSD: 0.238
data_MOF--net-wjd--node1-INOVEN_clean_sbu_0--edge1-EZIPEK_clean_linker_0
_symmetry_space_group_name_H-M    P1
_symmetry_Int_Tables_number       1
_symmetry_cell_setting            triclinic
loop_
_symmetry_equiv_pos_as_xyz
'x, y, z'
_cell_length_a     31.904776
_cell_length_b     31.973631
_cell_length_c     37.535902
_cell_angle_alpha  90.135162
_cell_angle_beta   89.72
_cell_angle_gamma 119.97451
loop_
_atom_site_label
_atom_site_type_symbol
_atom_site_fract_x
_atom_site_fract_y
_atom_site_fract_z
_atom_type_partial_charge
Gd0 Gd 0.4043 0.18993 0.11233 0.0
Gd1 Gd 0.34003 0.09307 0.13754 0.0
C2 C 0.45574 0.13153 0.1257 0.0
C3 C 0.45241 0.28121 0.09739 0.0
C4 C 0.49577 0.32811 0.10408 0.0
C5 C 0.50934 0.36407 0.07815 0.0
C6 C 0.52167 0.33885 0.13617 0.0
C7 C 0.57382 0.42154 0.11612 0.0
C8 C 0.56077 0.38543 0.14208 0.0
C9 C 0.54787 0.41045 0.08415 0.0
C10 C 0.35701 0.12168 0.05926 0.0
C11 C 0.29656 0.16303 0.13222 0.0
C12 C 0.28127 1.00168 0.14449 0.0
C13 C 0.22774 0.97239 0.14325 0.0
C14 C 0.19971 0.96571 0.17405 0.0
C15 C 0.20404 0.95147 0.11103 0.0
C16 C 0.126 0.91808 0.14041 0.0
C17 C 0.15357 0.92495 0.10954 0.0
C18 C 0.14926 0.93864 0.17263 0.0
C19 C 0.37692 0.15609 0.19241 0.0
O20 O 0.46208 0.17518 0.12886 0.0
O21 O 0.41121 0.09355 0.12422 0.0
O22 O 0.45753 0.24882 0.07965 0.0
O23 O 0.42042 0.26289 0.123 0.0
O24 O 0.40191 0.15492 0.05893 0.0
O25 O 0.33971 0.12705 0.08782 0.0
O26 O 0.28468 0.11716 0.13095 0.0
O27 O 0.34172 0.19754 0.13003 0.0
O28 O 0.29999 0.03078 0.17166 0.0
O29 O 0.30332 1.02137 0.11451 0.0
O30 O 0.33281 0.12099 0.19001 0.0
O31 O 0.4009 0.15628 0.16517 0.0
H32 H 0.48959 0.3564 0.05334 0.0
H33 H 0.51146 0.31152 0.1566 0.0
H34 H 0.58074 0.39339 0.16679 0.0
H35 H 0.55768 0.43774 0.06374 0.0
H36 H 0.21669 0.98102 0.19935 0.0
H37 H 0.22451 0.95539 0.08696 0.0
H38 H 0.13605 0.90875 0.08455 0.0
H39 H 0.12834 0.93293 0.19679 0.0
Gd40 Gd 0.80731 0.73068 0.39331 0.0
Gd41 Gd 0.85231 0.67666 0.42127 0.0
C42 C 0.9242 0.78498 0.4077 0.0
C43 C 0.78328 0.79618 0.38495 0.0
C44 C 0.80948 0.8492 0.38857 0.0
C45 C 0.79464 0.87647 0.36864 0.0
C46 C 0.84912 0.873 0.41175 0.0
C47 C 0.85707 0.95026 0.39606 0.0
C48 C 0.8727 0.92323 0.41553 0.0
C49 C 0.81821 0.92667 0.37238 0.0
C50 C 0.82789 0.6868 0.34023 0.0
C51 C 0.74117 0.61705 0.40079 0.0
C52 C 0.88702 0.62142 0.43854 0.0
C53 C 0.88898 0.57756 0.42982 0.0
C54 C 0.90288 0.55677 0.4565 0.0
C55 C 0.88316 0.55961 0.39505 0.0
C56 C 0.89716 0.49444 0.41524 0.0
C57 C 0.88862 0.51955 0.38764 0.0
C58 C 0.90845 0.51707 0.4491 0.0
C59 C 0.82417 0.72162 0.47087 0.0
O60 O 0.88486 0.78892 0.40697 0.0
O61 O 0.92083 0.7426 0.40851 0.0
O62 O 0.79683 0.77886 0.35857 0.0
O63 O 0.77548 0.77157 0.41442 0.0
O64 O 0.78914 0.69033 0.34223 0.0
O65 O 0.85485 0.70712 0.36707 0.0
O66 O 0.78259 0.61731 0.39924 0.0
O67 O 0.74013 0.65797 0.40294 0.0
O68 O 0.84703 0.61653 0.45215 0.0
O69 O 0.90784 0.65729 0.41615 0.0
O70 O 0.86392 0.72025 0.47302 0.0
O71 O 0.80144 0.69756 0.44438 0.0
H72 H 0.7644 0.85883 0.3505 0.0
H73 H 0.86144 0.8528 0.42723 0.0
H74 H 0.90255 0.94094 0.434 0.0
H75 H 0.80565 0.94708 0.35727 0.0
H76 H 0.9105 0.57193 0.48312 0.0
H77 H 0.87556 0.57723 0.37344 0.0
H78 H 0.88739 0.51053 0.35998 0.0
H79 H 0.92161 0.50415 0.47049 0.0
Gd80 Gd 0.88206 0.22525 0.11252 0.0
Gd81 Gd 0.97769 0.25897 0.13832 0.0
C82 C 0.93615 0.33311 0.13113 0.0
C83 C 0.7909 0.18021 0.09589 0.0
C84 C 0.74241 0.17367 0.10236 0.0
C85 C 0.70614 0.1465 0.07758 0.0
C86 C 0.73087 0.19159 0.13287 0.0
C87 C 0.64702 0.1548 0.11325 0.0
C88 C 0.68332 0.18234 0.13819 0.0
C89 C 0.6589 0.137 0.08298 0.0
C90 C 0.95304 0.25467 0.06004 0.0
C91 C 0.9147 0.14729 0.12648 0.0
C92 C 0.06893 0.29505 0.14912 0.0
C93 C 0.10102 0.27434 0.14739 0.0
C94 C 0.12911 0.27809 0.17691 0.0
C95 C 0.10173 0.24805 0.1177 0.0
C96 C 0.16864 0.24146 0.14342 0.0
C97 C 0.13418 0.23078 0.11616 0.0
C98 C 0.16097 0.26017 0.17548 0.0
C99 C 0.91221 0.22585 0.1924 0.0
O100 O 0.89322 0.29454 0.1336 0.0
O101 O 0.97527 0.32874 0.12838 0.0
O102 O 0.82315 0.21969 0.08005 0.0
O103 O 0.80928 0.16568 0.12065 0.0
O104 O 0.91944 0.26598 0.06138 0.0
O105 O 0.94714 0.22883 0.08675 0.0
O106 O 0.95953 0.18336 0.12445 0.0
O107 O 0.87834 0.15554 0.12719 0.0
O108 O 1.03707 0.27896 0.17487 0.0
O109 O 0.05138 0.29983 0.11894 0.0
O110 O 0.94654 0.21607 0.18775 0.0
O111 O 0.9125 0.25183 0.16674 0.0
H112 H 0.71434 0.13227 0.05399 0.0
H113 H 0.7584 0.2125 0.1524 0.0
H114 H 0.67487 0.19677 0.16153 0.0
H115 H 0.63158 0.11615 0.06329 0.0
H116 H 0.12616 0.29461 0.20133 0.0
H117 H 0.07736 0.24088 0.09564 0.0
H118 H 0.13212 0.20938 0.09319 0.0
H119 H 0.17838 0.26095 0.20012 0.0
Gd120 Gd 0.34035 0.09429 0.39623 0.0
Gd121 Gd 0.40473 0.19121 0.42068 0.0
C122 C 0.29479 0.16196 0.4049 0.0
C123 C 0.28182 1.00284 0.38911 0.0
C124 C 0.22877 0.97459 0.39205 0.0
C125 C 0.20297 0.93029 0.37434 0.0
C126 C 0.20342 0.99239 0.41178 0.0
C127 C 0.12742 0.92085 0.39741 0.0
C128 C 0.15309 0.96547 0.41473 0.0
C129 C 0.15251 0.90352 0.37698 0.0
C130 C 0.37501 0.15742 0.34104 0.0
C131 C 0.45641 0.13391 0.40354 0.0
C132 C 0.45342 0.28287 0.43521 0.0
C133 C 0.49699 0.33011 0.42855 0.0
C134 C 0.50921 0.36667 0.45385 0.0
C135 C 0.52441 0.34061 0.397 0.0
C136 C 0.57527 0.42407 0.41639 0.0
C137 C 0.56356 0.38735 0.39105 0.0
C138 C 0.54779 0.4132 0.44782 0.0
C139 C 0.3616 0.12202 0.47392 0.0
O140 O 0.28439 0.11658 0.40573 0.0
O141 O 0.33975 0.19735 0.40669 0.0
O142 O 0.29855 0.03239 0.36206 0.0
O143 O 0.30502 1.0223 0.41867 0.0
O144 O 0.33095 0.1227 0.34473 0.0
O145 O 0.39979 0.15767 0.36746 0.0
O146 O 0.46183 0.1772 0.4007 0.0
O147 O 0.41237 0.09543 0.40642 0.0
O148 O 0.45799 0.25041 0.45314 0.0
O149 O 0.42166 0.26441 0.40964 0.0
O150 O 0.4069 0.15463 0.47239 0.0
O151 O 0.34219 0.12799 0.44687 0.0
H152 H 0.22187 0.91633 0.35867 0.0
H153 H 0.22254 1.0269 0.42509 0.0
H154 H 0.13418 0.97917 0.4307 0.0
H155 H 0.13306 0.86893 0.36365 0.0
H156 H 0.48834 0.35935 0.47823 0.0
H157 H 0.51537 0.31294 0.37699 0.0
H158 H 0.58462 0.39496 0.36677 0.0
H159 H 0.55642 0.44081 0.4678 0.0
Gd160 Gd 0.85074 0.67302 0.1105 0.0
Gd161 Gd 0.80438 0.72633 0.14018 0.0
C162 C 0.7395 0.61306 0.13158 0.0
C163 C 0.88681 0.61872 0.09386 0.0
C164 C 0.88906 0.57442 0.09995 0.0
C165 C 0.90862 0.55921 0.073 0.0
C166 C 0.87935 0.55155 0.13317 0.0
C167 C 0.90087 0.49238 0.10997 0.0
C168 C 0.88656 0.51211 0.13838 0.0
C169 C 0.9162 0.52033 0.07836 0.0
C170 C 0.82113 0.71734 0.06202 0.0
C171 C 0.92274 0.78126 0.12797 0.0
C172 C 0.77837 0.7904 0.14586 0.0
C173 C 0.80452 0.84349 0.14319 0.0
C174 C 0.79854 0.87077 0.16993 0.0
C175 C 0.83462 0.86731 0.11377 0.0
C176 C 0.84928 0.94427 0.13676 0.0
C177 C 0.85679 0.91738 0.11057 0.0
C178 C 0.82078 0.9209 0.16674 0.0
C179 C 0.82507 0.68246 0.19225 0.0
O180 O 0.7809 0.61329 0.13212 0.0
O181 O 0.73807 0.65373 0.13053 0.0
O182 O 0.84901 0.61564 0.07784 0.0
O183 O 0.9041 0.65154 0.11883 0.0
O184 O 0.86104 0.71623 0.05875 0.0
O185 O 0.79964 0.69373 0.0891 0.0
O186 O 0.88406 0.78518 0.13492 0.0
O187 O 0.91905 0.74033 0.11824 0.0
O188 O 0.7879 0.77191 0.17362 0.0
O189 O 0.77464 0.76701 0.11633 0.0
O190 O 0.78581 0.68524 0.1906 0.0
O191 O 0.8521 0.70283 0.16518 0.0
H192 H 0.91995 0.57875 0.048 0.0
H193 H 0.86765 0.56501 0.15536 0.0
H194 H 0.88227 0.4988 0.16528 0.0
H195 H 0.93583 0.51411 0.05756 0.0
H196 H 0.77594 0.85319 0.19295 0.0
H197 H 0.84038 0.84727 0.09294 0.0
H198 H 0.8789 0.93507 0.08735 0.0
H199 H 0.81491 0.94138 0.18722 0.0
Gd200 Gd 0.984 0.2676 0.39466 0.0
Gd201 Gd 0.88382 0.2228 0.42384 0.0
C202 C 0.92259 0.15323 0.40815 0.0
C203 C 0.07606 0.30342 0.38887 0.0
C204 C 0.10448 0.2784 0.38896 0.0
C205 C 0.14666 0.29575 0.36832 0.0
C206 C 0.09052 0.23783 0.41101 0.0
C207 C 0.16193 0.23447 0.39337 0.0
C208 C 0.11908 0.21616 0.41324 0.0
C209 C 0.17526 0.2739 0.3705 0.0
C210 C 0.91698 0.22424 0.34242 0.0
C211 C 0.93224 0.33332 0.40166 0.0
C212 C 0.79351 0.18575 0.4416 0.0
C213 C 0.74634 0.18225 0.43449 0.0
C214 C 0.71342 0.16937 0.46261 0.0
C215 C 0.73083 0.18459 0.40007 0.0
C216 C 0.65191 0.1695 0.4234 0.0
C217 C 0.68392 0.17684 0.39451 0.0
C218 C 0.6667 0.16126 0.45697 0.0
C219 C 0.95939 0.25292 0.47249 0.0
O220 O 0.96574 0.19196 0.41241 0.0
O221 O 0.88422 0.15753 0.40475 0.0
O222 O 0.0487 0.29702 0.3611 0.0
O223 O 0.05433 0.30105 0.419 0.0
O224 O 0.95609 0.222 0.34603 0.0
O225 O 0.91361 0.24795 0.36845 0.0
O226 O 0.89144 0.29289 0.40757 0.0
O227 O 0.97414 0.33421 0.39652 0.0
O228 O 0.82801 0.22539 0.45595 0.0
O229 O 0.80938 0.16647 0.41822 0.0
O230 O 0.91828 0.21327 0.47577 0.0
O231 O 0.956 0.27267 0.44515 0.0
H232 H 0.15793 0.3267 0.35107 0.0
H233 H 0.0581 0.22346 0.42723 0.0
H234 H 0.10825 0.18566 0.43091 0.0
H235 H 0.20821 0.28825 0.35488 0.0
H236 H 0.72328 0.16372 0.48902 0.0
H237 H 0.75437 0.19098 0.37735 0.0
H238 H 0.67306 0.17509 0.36715 0.0
H239 H 0.64229 0.14691 0.47934 0.0
Gd240 Gd 0.10792 0.3294 0.6397 0.0
Gd241 Gd 0.20651 0.38252 0.61121 0.0
C242 C 0.16998 0.27411 0.62652 0.0
C243 C 1.01852 0.26383 0.64752 0.0
C244 C 0.99229 0.21064 0.64372 0.0
C245 C 0.9963 0.18096 0.66955 0.0
C246 C 0.9624 0.18902 0.61401 0.0
C247 C 0.9385 0.10951 0.63733 0.0
C248 C 0.93571 0.1388 0.61084 0.0
C249 C 0.96949 0.13075 0.66638 0.0
C250 C 0.17202 0.37388 0.69271 0.0
C251 C 0.15382 0.44225 0.63073 0.0
C252 C 0.2968 0.43786 0.59369 0.0
C253 C 0.34402 0.48062 0.60161 0.0
C254 C 0.38303 0.48992 0.57924 0.0
C255 C 0.35197 0.51018 0.63154 0.0
C256 C 0.43765 0.55805 0.61596 0.0
C257 C 0.39862 0.54896 0.63855 0.0
C258 C 0.42936 0.52812 0.58634 0.0
C259 C 0.13351 0.33433 0.56221 0.0
O260 O 0.12682 0.27034 0.62845 0.0
O261 O 0.20906 0.3165 0.62425 0.0
O262 O 0.04842 0.28226 0.6743 0.0
O263 O 1.03564 0.28855 0.6181 0.0
O264 O 0.13011 0.37106 0.69017 0.0
O265 O 0.17892 0.3534 0.66593 0.0
O266 O 0.19539 0.44268 0.63111 0.0
O267 O 0.11211 0.40107 0.63029 0.0
O268 O 0.26194 0.44389 0.58131 0.0
O269 O 0.28149 0.40153 0.61561 0.0
O270 O 0.17525 0.33704 0.56012 0.0
O271 O 0.13464 0.35988 0.58776 0.0
H272 H 1.01933 0.19637 0.69258 0.0
H273 H 0.95895 0.21095 0.59355 0.0
H274 H 0.91168 0.12278 0.58836 0.0
H275 H 0.97174 0.10843 0.6871 0.0
H276 H 0.37768 0.46723 0.55626 0.0
H277 H 0.32236 0.50324 0.64936 0.0
H278 H 0.40429 0.57193 0.66139 0.0
H279 H 0.45881 0.53471 0.56847 0.0
Gd280 Gd 0.24409 0.87032 0.92237 0.0
Gd281 Gd 0.28722 0.9687 0.8926 0.0
C282 C 0.35271 0.92032 0.89781 0.0
C283 C 0.21768 0.78286 0.94275 0.0
C284 C 0.20382 0.73315 0.93199 0.0
C285 C 0.17412 0.6954 0.95517 0.0
C286 C 0.22183 0.72276 0.90097 0.0
C287 C 0.18217 0.63768 0.91775 0.0
C288 C 0.21105 0.67519 0.89391 0.0
C289 C 0.1634 0.64816 0.94817 0.0
C290 C 0.27504 0.94461 0.97158 0.0
C291 C 0.16978 0.90177 0.90276 0.0
C292 C 0.30901 0.05785 0.88659 0.0
C293 C 0.28162 0.08372 0.89037 0.0
C294 C 0.28924 0.11974 0.86569 0.0
C295 C 0.24848 0.0735 0.91852 0.0
C296 C 0.2335 0.13701 0.89819 0.0
C297 C 0.22461 0.1 0.92237 0.0
C298 C 0.26543 0.14623 0.86957 0.0
C299 C 0.26736 0.90484 0.83979 0.0
O300 O 0.31106 0.87995 0.89626 0.0
O301 O 0.35464 0.96264 0.90088 0.0
O302 O 0.26272 0.81655 0.93837 0.0
O303 O 0.18716 0.79791 0.93658 0.0
O304 O 0.23664 0.90283 0.97545 0.0
O305 O 0.29504 0.94278 0.94353 0.0
O306 O 0.20775 0.94592 0.90197 0.0
O307 O 0.17517 0.86391 0.90545 0.0
O308 O 0.29828 1.02894 0.85922 0.0
O309 O 0.31578 0.03973 0.91574 0.0
O310 O 0.30549 0.94764 0.84128 0.0
O311 O 0.24042 0.89692 0.86724 0.0
H312 H 0.16019 0.70271 0.97934 0.0
H313 H 0.24499 0.75139 0.88275 0.0
H314 H 0.22615 0.66781 0.87042 0.0
H315 H 0.14148 0.61989 0.96703 0.0
H316 H 0.31423 0.12787 0.84368 0.0
H317 H 0.24154 0.04559 0.93781 0.0
H318 H 0.2 0.09238 0.94457 0.0
H319 H 0.2726 0.17457 0.85062 0.0
Gd320 Gd 0.74472 0.78941 0.63917 0.0
Gd321 Gd 0.68975 0.83378 0.61095 0.0
C322 C 0.7979 0.90707 0.62693 0.0
C323 C 0.81123 0.7663 0.64424 0.0
C324 C 0.86455 0.79372 0.6407 0.0
C325 C 0.89316 0.78934 0.66705 0.0
C326 C 0.88734 0.82354 0.61097 0.0
C327 C 0.96592 0.84095 0.63293 0.0
C328 C 0.93767 0.84688 0.60711 0.0
C329 C 0.94348 0.81275 0.6632 0.0
C330 C 0.70185 0.80984 0.69279 0.0
C331 C 0.63054 0.72351 0.63267 0.0
C332 C 0.63413 0.86777 0.59326 0.0
C333 C 0.59149 0.87239 0.601 0.0
C334 C 0.57948 0.89741 0.57631 0.0
C335 C 0.56516 0.85616 0.633 0.0
C336 C 0.51528 0.89044 0.6151 0.0
C337 C 0.52689 0.86489 0.6399 0.0
C338 C 0.54191 0.90658 0.58332 0.0
C339 C 0.73497 0.80577 0.56127 0.0
O340 O 0.80289 0.86868 0.63125 0.0
O341 O 0.75572 0.90288 0.62085 0.0
O342 O 0.79273 0.77601 0.67207 0.0
O343 O 0.78655 0.76054 0.61512 0.0
O344 O 0.70521 0.77102 0.69054 0.0
O345 O 0.72071 0.83646 0.66533 0.0
O346 O 0.63075 0.76477 0.63403 0.0
O347 O 0.67154 0.7224 0.63052 0.0
O348 O 0.62784 0.82655 0.58142 0.0
O349 O 0.67063 0.88951 0.61497 0.0
O350 O 0.73234 0.84476 0.5586 0.0
O351 O 0.71161 0.78385 0.58834 0.0
H352 H 0.87645 0.76702 0.6903 0.0
H353 H 0.86632 0.82815 0.59038 0.0
H354 H 0.95451 0.86861 0.58361 0.0
H355 H 0.96484 0.80793 0.68339 0.0
H356 H 0.59974 0.91053 0.55166 0.0
H357 H 0.57438 0.83721 0.65255 0.0
H358 H 0.50643 0.85188 0.66446 0.0
H359 H 0.53329 0.926 0.56379 0.0
Gd360 Gd 0.20475 0.38461 0.92194 0.0
Gd361 Gd 0.10492 0.33016 0.89532 0.0
C362 C 0.15318 0.44416 0.90222 0.0
C363 C 0.29558 0.43994 0.93682 0.0
C364 C 0.34178 0.48452 0.92994 0.0
C365 C 0.37597 0.50176 0.9571 0.0
C366 C 0.3554 0.50567 0.89612 0.0
C367 C 0.43546 0.56681 0.91876 0.0
C368 C 0.40196 0.54531 0.89039 0.0
C369 C 0.4223 0.54069 0.95125 0.0
C370 C 0.13194 0.34351 0.97293 0.0
C371 C 0.1678 0.2753 0.90948 0.0
C372 C 1.01497 0.26517 0.88926 0.0
C373 C 0.98834 0.2117 0.89 0.0
C374 C 0.99078 0.18443 0.86135 0.0
C375 C 0.95969 0.18737 0.91984 0.0
C376 C 0.93439 0.1101 0.8916 0.0
C377 C 0.93299 0.13698 0.92064 0.0
C378 C 0.9638 0.13398 0.86212 0.0
C379 C 0.16821 0.37282 0.84149 0.0
O380 O 0.19426 0.44385 0.90001 0.0
O381 O 0.11125 0.40323 0.9052 0.0
O382 O 0.26104 0.44275 0.95357 0.0
O383 O 0.27968 0.40668 0.91223 0.0
O384 O 0.17278 0.34403 0.97507 0.0
O385 O 0.13359 0.36567 0.94519 0.0
O386 O 0.12443 0.27122 0.9071 0.0
O387 O 0.20669 0.31768 0.91203 0.0
O388 O 1.04296 0.28642 0.86175 0.0
O389 O 1.03435 0.28658 0.91938 0.0
O390 O 0.12642 0.37029 0.84426 0.0
O391 O 0.17509 0.35237 0.86822 0.0
H392 H 0.36748 0.48369 0.98272 0.0
H393 H 0.33072 0.49066 0.87388 0.0
H394 H 0.41138 0.55703 0.86317 0.0
H395 H 0.44775 0.54844 0.9725 0.0
H396 H 1.01289 0.20195 0.83812 0.0
H397 H 0.9574 0.20739 0.94238 0.0
H398 H 0.91027 0.11896 0.94353 0.0
H399 H 0.96507 0.11355 0.83948 0.0
Gd400 Gd 0.28461 0.96656 0.63899 0.0
Gd401 Gd 0.24246 0.86856 0.60963 0.0
C402 C 0.16907 0.90336 0.62294 0.0
C403 C 0.3076 0.05535 0.64901 0.0
C404 C 0.28159 0.08217 0.64441 0.0
C405 C 0.28844 0.11779 0.66927 0.0
C406 C 0.24956 0.07234 0.61582 0.0
C407 C 0.23399 0.13546 0.63616 0.0
C408 C 0.22597 0.09895 0.61171 0.0
C409 C 0.26486 0.14434 0.66516 0.0
C410 C 0.2638 0.90187 0.69177 0.0
C411 C 0.35203 0.92066 0.63279 0.0
C412 C 0.21283 0.77949 0.59114 0.0
C413 C 0.20768 0.73251 0.60193 0.0
C414 C 0.22476 0.70973 0.57875 0.0
C415 C 0.18158 0.70758 0.63258 0.0
C416 C 0.18764 0.63718 0.61532 0.0
C417 C 0.17162 0.66026 0.63917 0.0
C418 C 0.21491 0.6626 0.58537 0.0
C419 C 0.27379 0.94313 0.56026 0.0
O420 O 0.20795 0.94684 0.62234 0.0
O421 O 0.17341 0.86481 0.62375 0.0
O422 O 0.29169 1.0233 0.67454 0.0
O423 O 0.31847 0.04016 0.61992 0.0
O424 O 0.30213 0.94431 0.69013 0.0
O425 O 0.23734 0.89473 0.66445 0.0
O426 O 0.31086 0.87949 0.63437 0.0
O427 O 0.35258 0.96226 0.63007 0.0
O428 O 0.25609 0.81515 0.58406 0.0
O429 O 0.18549 0.79369 0.60684 0.0
O430 O 0.23475 0.9016 0.55682 0.0
O431 O 0.29373 0.94098 0.58811 0.0
H432 H 0.31247 0.12539 0.69169 0.0
H433 H 0.24318 0.04454 0.59651 0.0
H434 H 0.20216 0.09172 0.5892 0.0
H435 H 0.27128 0.17235 0.68427 0.0
H436 H 0.24455 0.72794 0.55482 0.0
H437 H 0.16779 0.72405 0.65094 0.0
H438 H 0.15067 0.6413 0.66251 0.0
H439 H 0.2277 0.64553 0.5667 0.0
Gd440 Gd 0.69046 0.83316 0.92503 0.0
Gd441 Gd 0.74791 0.78788 0.8971 0.0
C442 C 0.63342 0.72135 0.90034 0.0
C443 C 0.63291 0.86549 0.94143 0.0
C444 C 0.58955 0.86774 0.93146 0.0
C445 C 0.56544 0.87818 0.958 0.0
C446 C 0.57563 0.8661 0.89593 0.0
C447 C 0.50816 0.87794 0.9144 0.0
C448 C 0.53643 0.8725 0.88741 0.0
C449 C 0.52655 0.88466 0.94952 0.0
C450 C 0.73565 0.80685 0.97459 0.0
C451 C 0.79771 0.90616 0.90203 0.0
C452 C 0.81264 0.76325 0.90545 0.0
C453 C 0.8653 0.78688 0.90099 0.0
C454 C 0.8893 0.81616 0.87141 0.0
C455 C 0.89236 0.78362 0.92907 0.0
C456 C 0.96664 0.83612 0.89744 0.0
C457 C 0.94267 0.80801 0.92731 0.0
C458 C 0.93988 0.84051 0.86957 0.0
C459 C 0.72204 0.8164 0.83865 0.0
O460 O 0.63208 0.76182 0.90403 0.0
O461 O 0.67455 0.7205 0.90006 0.0
O462 O 0.62734 0.82483 0.95398 0.0
O463 O 0.67069 0.88821 0.92065 0.0
O464 O 0.73424 0.84654 0.97657 0.0
O465 O 0.71256 0.78404 0.94761 0.0
O466 O 0.80373 0.8684 0.89734 0.0
O467 O 0.75597 0.9013 0.91136 0.0
O468 O 0.78527 0.75132 0.87693 0.0
O469 O 0.79934 0.78263 0.93044 0.0
O470 O 0.74524 0.79267 0.83868 0.0
O471 O 0.71048 0.82256 0.87014 0.0
H472 H 0.57747 0.88256 0.98541 0.0
H473 H 0.59585 0.86118 0.87465 0.0
H474 H 0.53068 0.87454 0.8595 0.0
H475 H 0.51103 0.89511 0.97105 0.0
H476 H 0.86912 0.82037 0.84995 0.0
H477 H 0.87444 0.76241 0.95257 0.0
H478 H 0.96294 0.80452 0.94905 0.0
H479 H 0.95816 0.8623 0.8464 0.0
C480 C 0.2203 0.21751 0.10509 0.0
C481 C 0.20887 0.2293 0.13897 0.0
C482 C 0.25568 0.19762 0.16771 0.0
C483 C 0.26014 0.17848 0.13483 0.0
N484 N 0.24963 0.17293 0.07103 0.0
N485 N 0.2557 0.2669 0.19163 0.0
C486 C 0.243 0.18895 0.10313 0.0
C487 C 0.23705 0.22943 0.1681 0.0
N488 N 0.21768 0.2408 0.07545 0.0
N489 N 0.27105 0.18724 0.19854 0.0
H490 H 0.25411 0.29821 0.18671 0.0
H491 H 0.27971 0.27055 0.21177 0.0
H492 H 0.28494 0.16391 0.19937 0.0
H493 H 0.26562 0.19848 0.2234 0.0
H494 H 0.22952 0.23732 0.05033 0.0
H495 H 0.21018 0.269 0.07712 0.0
H496 H 0.23216 0.17352 0.04782 0.0
H497 H 0.27099 0.15704 0.06802 0.0
C498 C 0.05661 0.85541 0.42992 0.0
C499 C 0.07444 0.89064 0.40261 0.0
C500 C 0.99155 0.86396 0.38277 0.0
C501 C 0.97377 0.82778 0.40967 0.0
N502 N 0.98795 0.79977 0.46546 0.0
N503 N 0.06022 0.93557 0.35759 0.0
C504 C 1.006 0.82687 0.43527 0.0
C505 C 1.04224 0.89723 0.38051 0.0
N506 N 0.08806 0.84835 0.45023 0.0
N507 N 0.96056 0.8654 0.35849 0.0
H508 H 0.09718 0.95953 0.35438 0.0
H509 H 1.03872 0.9458 0.34355 0.0
H510 H 0.92313 0.84539 0.36109 0.0
H511 H 0.97181 0.88558 0.33512 0.0
H512 H 0.07715 0.81905 0.46731 0.0
H513 H 0.12557 0.87005 0.4484 0.0
H514 H 1.00924 0.80112 0.48686 0.0
H515 H 0.95107 0.77998 0.47086 0.0
C516 C 0.8686 0.06398 0.10186 0.0
C517 C 0.90362 0.09655 0.12627 0.0
C518 C 0.90935 0.02972 0.15285 0.0
C519 C 0.8694 0.99679 0.13206 0.0
N520 N 0.80604 0.98171 0.09027 0.0
N521 N 0.9531 0.10971 0.17836 0.0
C522 C 0.84768 1.01364 0.10741 0.0
C523 C 0.92332 0.07942 0.15251 0.0
N524 N 0.85644 0.08121 0.07273 0.0
N525 N 0.93438 1.01358 0.17251 0.0
H526 H 0.9645 0.14638 0.1793 0.0
H527 H 0.96354 0.09772 0.20057 0.0
H528 H 0.92493 0.9773 0.17352 0.0
H529 H 0.96695 0.03661 0.18514 0.0
H530 H 0.83446 0.0591 0.05233 0.0
H531 H 0.87254 0.11797 0.06696 0.0
H532 H 0.78569 0.9924 0.07519 0.0
H533 H 0.78947 0.94439 0.09355 0.0
C534 C 0.22627 0.1638 0.37321 0.0
C535 C 0.25603 0.17468 0.40378 0.0
C536 C 0.22466 0.22548 0.42723 0.0
C537 C 0.19356 0.21302 0.39736 0.0
N538 N 0.15745 0.16331 0.34561 0.0
N539 N 0.27603 0.20685 0.46336 0.0
C540 C 0.19215 0.18 0.37147 0.0
C541 C 0.25296 0.20288 0.43185 0.0
N542 N 0.23211 0.14004 0.34505 0.0
N543 N 0.2283 0.26006 0.45056 0.0
H544 H 0.2965 0.19017 0.46784 0.0
H545 H 0.27121 0.22263 0.48615 0.0
H546 H 0.20768 0.27697 0.44836 0.0
H547 H 0.25427 0.27469 0.47053 0.0
H548 H 0.21637 0.13693 0.32023 0.0
H549 H 0.25515 0.12586 0.34568 0.0
H550 H 0.15097 0.1351 0.32843 0.0
H551 H 0.13231 0.17494 0.34318 0.0
C552 C 1.04197 0.90152 0.12635 0.0
C553 C 0.07295 0.88534 0.13976 0.0
C554 C 1.00287 0.80794 0.15538 0.0
C555 C 0.97241 0.82066 0.13634 0.0
N556 N 0.96304 0.87969 0.10269 0.0
N557 N 0.08359 0.82061 0.16234 0.0
C558 C 0.99178 0.86775 0.12187 0.0
C559 C 0.05361 0.83785 0.15304 0.0
N560 N 0.06043 0.94926 0.11847 0.0
N561 N 0.98317 0.76794 0.17675 0.0
H562 H 0.12124 0.8414 0.16114 0.0
H563 H 0.07101 0.78438 0.16817 0.0
H564 H 0.946 0.74671 0.18103 0.0
H565 H 1.0037 0.7593 0.19349 0.0
H566 H 1.03899 0.96429 0.11223 0.0
H567 H 0.09709 0.97469 0.12103 0.0
H568 H 0.97637 0.91119 0.08771 0.0
H569 H 0.92591 0.85701 0.10026 0.0
C570 C 0.91489 0.03574 0.37746 0.0
C571 C 0.8795 1.00313 0.40177 0.0
C572 C 0.88384 0.07094 0.43539 0.0
C573 C 0.9149 0.10336 0.40879 0.0
N574 N 0.95836 0.11694 0.35338 0.0
N575 N 0.8273 0.98831 0.4525 0.0
C576 C 0.93055 0.08595 0.37974 0.0
C577 C 0.86354 1.02038 0.43061 0.0
N578 N 0.93388 1.01862 0.35249 0.0
N579 N 0.87421 0.08869 0.46556 0.0
H580 H 0.81231 0.95099 0.4505 0.0
H581 H 0.80965 0.99824 0.47119 0.0
H582 H 0.88736 0.12532 0.46957 0.0
H583 H 0.85676 0.06782 0.48787 0.0
H584 H 0.96323 0.04072 0.33624 0.0
H585 H 0.92264 0.98201 0.34981 0.0
H586 H 0.96511 0.10577 0.32902 0.0
H587 H 0.97327 0.15417 0.35528 0.0
C588 C 0.23126 0.20277 0.60437 0.0
C589 C 0.2119 0.16617 0.63067 0.0
C590 C 0.15641 0.19385 0.65075 0.0
C591 C 0.17625 0.23091 0.62449 0.0
N592 N 0.21894 0.25822 0.56856 0.0
N593 N 0.14924 0.11935 0.67333 0.0
C594 C 0.20952 0.23146 0.5989 0.0
C595 C 0.17231 0.1594 0.65217 0.0
N596 N 0.27163 0.21148 0.58549 0.0
N597 N 0.1237 0.19221 0.67507 0.0
H598 H 0.16014 0.09361 0.67505 0.0
H599 H 0.11701 0.1094 0.68681 0.0
H600 H 0.10631 0.21215 0.67258 0.0
H601 H 0.11428 0.17152 0.69821 0.0
H602 H 0.29055 0.24141 0.56899 0.0
H603 H 0.28868 0.19111 0.58845 0.0
H604 H 0.23937 0.2567 0.54738 0.0
H605 H 0.20114 0.27711 0.5627 0.0
C606 C 0.09068 0.85712 0.87161 0.0
C607 C 0.12012 0.89301 0.89681 0.0
C608 C 0.04998 0.89969 0.91566 0.0
C609 C 1.01981 0.85848 0.8948 0.0
N610 N 1.01025 0.794 0.85599 0.0
N611 N 0.12769 0.94783 0.94408 0.0
C612 C 1.03982 0.83632 0.87336 0.0
C613 C 0.09998 0.91476 0.91886 0.0
N614 N 0.11146 0.84365 0.84541 0.0
N615 N 1.03079 0.92456 0.93211 0.0
H616 H 0.16474 0.96158 0.94634 0.0
H617 H 0.11358 0.95989 0.96408 0.0
H618 H 0.99421 0.91413 0.93045 0.0
H619 H 0.05161 0.95765 0.94474 0.0
H620 H 0.0921 0.82133 0.82421 0.0
H621 H 0.14875 0.85884 0.84264 0.0
H622 H 1.02288 0.77317 0.84366 0.0
H623 H 0.97261 0.77747 0.85629 0.0
C624 C 0.88193 0.97627 0.6132 0.0
C625 C 0.83851 0.95669 0.63351 0.0
C626 C 0.86126 0.03725 0.65626 0.0
C627 C 0.90505 0.05668 0.63665 0.0
N628 N 0.96154 0.04518 0.60118 0.0
N629 N 0.79346 0.96634 0.68174 0.0
C630 C 0.91679 1.02626 0.61657 0.0
C631 C 0.83025 0.98658 0.65729 0.0
N632 N 0.889 0.94773 0.58966 0.0
N633 N 0.8484 0.06734 0.6729 0.0
H634 H 0.77021 0.92926 0.68393 0.0
H635 H 0.78898 0.98573 0.70228 0.0
H636 H 0.87051 0.10479 0.6735 0.0
H637 H 0.81416 0.05558 0.6837 0.0
H638 H 0.91642 0.96098 0.57058 0.0
H639 H 0.86607 0.91059 0.58812 0.0
H640 H 0.97444 1.02434 0.5893 0.0
H641 H 0.98738 0.08181 0.60253 0.0
C642 C 0.15785 0.19745 0.88276 0.0
C643 C 0.17505 0.23252 0.9105 0.0
C644 C 0.22929 0.20347 0.93082 0.0
C645 C 0.21135 0.16794 0.90369 0.0
N646 N 0.15165 0.12393 0.85879 0.0
N647 N 0.2168 0.25922 0.96663 0.0
C648 C 0.17345 0.16273 0.88119 0.0
C649 C 0.20749 0.23232 0.93632 0.0
N650 N 0.12852 0.19846 0.85686 0.0
N651 N 0.26867 0.21129 0.95034 0.0
H652 H 0.20093 0.28016 0.97196 0.0
H653 H 0.23628 0.25704 0.988 0.0
H654 H 0.28578 0.19095 0.94728 0.0
H655 H 0.28699 0.24053 0.96749 0.0
H656 H 0.1212 0.17916 0.83313 0.0
H657 H 0.11272 0.21995 0.85843 0.0
H658 H 0.12042 0.11506 0.84448 0.0
H659 H 0.16234 0.09802 0.85686 0.0
C660 C 0.10228 0.91771 0.64611 0.0
C661 C 0.11916 0.89593 0.62105 0.0
C662 C 1.03565 0.83966 0.6029 0.0
C663 C 1.01881 0.86182 0.62737 0.0
N664 N 1.03574 0.9284 0.66623 0.0
N665 N 0.10307 0.84728 0.56814 0.0
C666 C 0.05209 0.90296 0.64708 0.0
C667 C 0.0861 0.86035 0.59711 0.0
N668 N 0.13336 0.95066 0.67012 0.0
N669 N 1.00361 0.79763 0.58624 0.0
H670 H 0.13984 0.86304 0.56231 0.0
H671 H 0.08081 0.8251 0.54787 0.0
H672 H 0.96621 0.78119 0.58959 0.0
H673 H 1.01427 0.77693 0.5714 0.0
H674 H 0.12191 0.96234 0.69208 0.0
H675 H 0.17061 0.96474 0.66943 0.0
H676 H 0.05857 0.96166 0.67802 0.0
H677 H 0.99922 0.91831 0.66768 0.0
C678 C 0.91722 1.02641 0.90653 0.0
C679 C 0.90205 0.05699 0.89101 0.0
C680 C 0.82505 0.98669 0.87414 0.0
C681 C 0.8371 0.95635 0.89417 0.0
N682 N 0.8949 0.94764 0.93023 0.0
N683 N 0.84027 0.06763 0.86282 0.0
C684 C 0.88353 0.97613 0.91019 0.0
C685 C 0.85572 0.03749 0.8754 0.0
N686 N 0.96415 0.04547 0.91733 0.0
N687 N 0.78483 0.96683 0.85299 0.0
H688 H 0.86214 0.10511 0.86215 0.0
H689 H 0.80463 0.0558 0.85548 0.0
H690 H 0.76146 0.92976 0.8507 0.0
H691 H 0.77723 0.98667 0.83481 0.0
H692 H 0.9792 1.02464 0.92521 0.0
H693 H 0.98936 0.08227 0.9158 0.0
H694 H 0.92468 0.96112 0.94707 0.0
H695 H 0.87376 0.9103 0.93111 0.0
C696 C 0.40145 0.13397 0.28534 0.0
C697 C 0.39428 0.16853 0.30414 0.0
C698 C 0.39222 0.20586 0.24756 0.0
C699 C 0.39726 0.17001 0.22888 0.0
N700 N 0.42084 0.10938 0.22957 0.0
N701 N 0.39381 0.24333 0.30455 0.0
C702 C 0.40727 0.13769 0.24777 0.0
C703 C 0.39382 0.20683 0.28559 0.0
N704 N 0.39848 0.09514 0.30293 0.0
N705 N 0.38341 0.23721 0.22883 0.0
H706 H 0.39487 0.2443 0.33236 0.0
H707 H 0.39669 0.27422 0.29299 0.0
H708 H 0.38447 0.23846 0.20103 0.0
H709 H 0.37357 0.26061 0.24053 0.0
H710 H 0.39651 0.0653 0.2901 0.0
H711 H 0.39503 0.09109 0.3305 0.0
H712 H 0.43303 0.08825 0.24181 0.0
H713 H 0.42465 0.11103 0.20205 0.0
C714 C 0.86998 0.7309 0.28474 0.0
C715 C 0.84666 0.68677 0.30385 0.0
C716 C 0.83087 0.64226 0.24743 0.0
C717 C 0.84472 0.68558 0.22859 0.0
N718 N 0.87759 0.77203 0.22911 0.0
N719 N 0.8086 0.60038 0.30451 0.0
C720 C 0.86556 0.73036 0.2471 0.0
C721 C 0.82906 0.64238 0.28547 0.0
N722 N 0.89544 0.77344 0.30271 0.0
N723 N 0.8186 0.60108 0.2287 0.0
H724 H 0.80933 0.6001 0.33231 0.0
H725 H 0.79013 0.5662 0.29307 0.0
H726 H 0.82007 0.60086 0.2009 0.0
H727 H 0.81102 0.56857 0.24042 0.0
H728 H 0.91669 0.80667 0.29032 0.0
H729 H 0.8997 0.77481 0.33017 0.0
H730 H 0.88574 0.80437 0.24151 0.0
H731 H 0.87684 0.77389 0.20152 0.0
C732 C 0.93892 0.27381 0.24853 0.0
C733 C 0.90242 0.23336 0.2299 0.0
C734 C 0.86697 0.19224 0.2867 0.0
C735 C 0.90546 0.23109 0.30517 0.0
N736 N 0.97343 0.3124 0.30479 0.0
N737 N 0.82677 0.15908 0.22995 0.0
C738 C 0.93939 0.2733 0.28638 0.0
C739 C 0.8645 0.19434 0.24874 0.0
N740 N 0.97561 0.31093 0.22989 0.0
N741 N 0.83441 0.1525 0.30545 0.0
H742 H 0.82468 0.16054 0.20225 0.0
H743 H 0.7962 0.13053 0.24151 0.0
H744 H 0.83456 0.15122 0.33324 0.0
H745 H 0.80816 0.12056 0.29383 0.0
H746 H 1.00736 0.33794 0.24123 0.0
H747 H 0.97561 0.31405 0.20231 0.0
H748 H 0.99553 0.34622 0.29355 0.0
H749 H 0.97771 0.31233 0.33219 0.0
C750 C 0.16152 0.32608 0.74783 0.0
C751 C 0.18763 0.37064 0.72947 0.0
C752 C 0.21747 0.41247 0.78676 0.0
C753 C 0.18393 0.36964 0.80473 0.0
N754 N 0.12284 0.28533 0.80268 0.0
N755 N 0.2454 0.45529 0.73016 0.0
C756 C 0.15661 0.326 0.78541 0.0
C757 C 0.21784 0.41351 0.74864 0.0
N758 N 0.1403 0.28385 0.72913 0.0
N759 N 0.24803 0.45209 0.80636 0.0
H760 H 0.24823 0.45565 0.70241 0.0
H761 H 0.26468 0.48922 0.74185 0.0
H762 H 0.24811 0.45141 0.83417 0.0
H763 H 0.27526 0.48416 0.79547 0.0
H764 H 0.12456 0.24984 0.74089 0.0
H765 H 0.14288 0.28296 0.70161 0.0
H766 H 0.09703 0.25423 0.78981 0.0
H767 H 0.11835 0.28369 0.83018 0.0
C768 C 0.2253 0.90853 0.7845 0.0
C769 C 0.24799 0.88684 0.80353 0.0
C770 C 0.26499 0.8589 0.74714 0.0
C771 C 0.2449 0.88297 0.72815 0.0
N772 N 0.19211 0.91649 0.72866 0.0
N773 N 0.27814 0.83158 0.80441 0.0
C774 C 0.21997 0.90256 0.74692 0.0
C775 C 0.26364 0.85829 0.7852 0.0
N776 N 0.21225 0.93798 0.80186 0.0
N777 N 0.28747 0.83881 0.7286 0.0
H778 H 0.277 0.83073 0.83222 0.0
H779 H 0.28723 0.8074 0.79311 0.0
H780 H 0.28645 0.83669 0.70083 0.0
H781 H 0.30791 0.82553 0.7404 0.0
H782 H 0.20195 0.96015 0.78888 0.0
H783 H 0.21431 0.94253 0.82939 0.0
H784 H 0.17002 0.92769 0.74089 0.0
H785 H 0.18674 0.91137 0.70135 0.0
C786 C 0.66331 0.81085 0.75078 0.0
C787 C 0.70576 0.82966 0.72937 0.0
C788 C 0.75561 0.86185 0.78301 0.0
C789 C 0.71408 0.83466 0.8044 0.0
N790 N 0.62784 0.79118 0.81053 0.0
N791 N 0.79332 0.87198 0.72551 0.0
C792 C 0.66751 0.81237 0.78882 0.0
C793 C 0.7522 0.85638 0.74545 0.0
N794 N 0.61924 0.78991 0.73441 0.0
N795 N 0.79899 0.89125 0.79902 0.0
H796 H 0.79333 0.86857 0.69804 0.0
H797 H 0.82769 0.88556 0.73632 0.0
H798 H 0.80291 0.89334 0.82661 0.0
H799 H 0.82973 0.91651 0.7853 0.0
H800 H 0.58625 0.77533 0.74769 0.0
H801 H 0.61595 0.78925 0.70672 0.0
H802 H 0.59234 0.77133 0.80168 0.0
H803 H 0.63087 0.79427 0.83818 0.0
C804 C 0.26258 1.00103 1.01394 0.0
C805 C 0.29407 0.98877 0.9954 0.0
C806 C 0.36202 0.06974 1.00964 0.0
C807 C 0.33305 0.07862 0.03396 0.0
N808 N 0.25227 0.0519 0.05668 0.0
N809 N 0.37723 1.00933 0.98479 0.0
C810 C 0.28237 0.04386 0.03551 0.0
C811 C 0.34471 1.02245 0.99604 0.0
N812 N 0.21362 0.97357 1.00962 0.0
N813 N 0.40505 0.10664 0.9974 0.0
H814 H 0.36719 0.97438 0.97727 0.0
H815 H 0.41451 0.03151 0.98774 0.0
H816 H 0.41595 0.14284 1.00145 0.0
H817 H 0.42564 0.10173 0.97793 0.0
H818 H 0.18921 0.98417 0.0181 0.0
H819 H 0.19686 0.94185 0.99495 0.0
H820 H 0.21715 1.02552 0.0633 0.0
H821 H 0.26195 0.08513 0.06765 0.0
C822 C 0.75826 0.71448 0.51163 0.0
C823 C 0.8047 0.74405 0.49649 0.0
C824 C 0.80565 0.81617 0.52175 0.0
C825 C 0.75822 0.78629 0.53603 0.0
N826 N 0.68507 0.70849 0.53543 0.0
N827 N 0.87611 0.82215 0.49118 0.0
C828 C 0.73354 0.73582 0.52862 0.0
C829 C 0.82938 0.79473 0.50266 0.0
N830 N 0.73861 0.66546 0.51143 0.0
N831 N 0.82744 0.86517 0.52529 0.0
H832 H 0.8939 0.80795 0.4766 0.0
H833 H 0.89868 0.85823 0.49772 0.0
H834 H 0.81238 0.88234 0.53954 0.0
H835 H 0.85923 0.88965 0.51238 0.0
H836 H 0.70736 0.64177 0.52537 0.0
H837 H 0.75682 0.64876 0.50096 0.0
H838 H 0.66384 0.67275 0.52734 0.0
H839 H 0.66454 0.72312 0.54492 0.0
C840 C 0.05944 0.34335 1.00089 0.0
C841 C 0.08812 0.32078 0.99765 0.0
C842 C 1.02487 0.25129 0.03199 0.0
C843 C 0.99644 0.27439 0.03478 0.0
N844 N 0.9794 0.33242 1.00668 0.0
N845 N 0.09986 0.25442 1.01429 0.0
C846 C 1.0115 0.31747 1.01491 0.0
C847 C 0.07143 0.27517 1.01457 0.0
N848 N 0.07895 0.39109 0.9925 0.0
N849 N 1.00488 0.2041 0.04231 0.0
H850 H 0.1315 0.26765 0.99955 0.0
H851 H 0.09394 0.22555 0.03042 0.0
H852 H 0.96886 0.18324 0.05016 0.0
H853 H 1.02121 0.18322 0.03881 0.0
H854 H 0.06146 0.41063 0.99773 0.0
H855 H 0.11501 0.41287 0.98516 0.0
H856 H 0.98784 0.36109 0.98944 0.0
H857 H 0.94257 0.31239 1.01198 0.0
C858 C 0.3662 0.06574 0.52054 0.0
C859 C 0.33783 0.07865 0.49907 0.0
C860 C 0.26472 1.00211 0.51809 0.0
C861 C 0.29446 0.98736 0.5362 0.0
N862 N 0.37552 1.00083 0.54394 0.0
N863 N 0.25792 0.06656 0.4893 0.0
C864 C 0.34566 1.01803 0.53439 0.0
C865 C 0.28636 0.04845 0.50063 0.0
N866 N 0.41181 0.09974 0.53061 0.0
N867 N 0.21575 0.97204 0.51719 0.0
H868 H 0.27196 0.10211 0.48094 0.0
H869 H 0.22054 0.04905 0.4924 0.0
H870 H 0.19753 0.9408 0.53232 0.0
H871 H 0.19298 0.97643 0.49975 0.0
H872 H 0.43214 0.09265 0.54873 0.0
H873 H 0.42643 0.13646 0.52596 0.0
H874 H 0.41285 1.02012 0.53984 0.0
H875 H 0.36277 0.96505 0.55102 0.0
C876 C 0.83033 0.79036 0.0271 0.0
C877 C 0.80135 0.74139 0.03824 0.0
C878 C 0.72909 0.74194 1.01573 0.0
C879 C 0.75827 0.78822 1.00067 0.0
N880 N 0.83722 0.8574 0.9919 0.0
N881 N 0.72377 0.66787 0.03601 0.0
C882 C 0.80907 0.81289 1.00664 0.0
C883 C 0.75088 0.71658 0.03067 0.0
N884 N 0.87767 0.81612 0.03722 0.0
N885 N 0.68016 0.72302 0.0174 0.0
H886 H 0.73855 0.64711 0.04462 0.0
H887 H 0.68796 0.64723 0.02777 0.0
H888 H 0.66318 0.74138 1.00776 0.0
H889 H 0.65727 0.69187 0.03172 0.0
H890 H 0.89928 0.85323 0.03376 0.0
H891 H 0.89485 0.80116 0.05148 0.0
H892 H 0.87482 0.87492 0.99082 0.0
H893 H 0.82254 0.87604 0.97918 0.0
C894 C 0.08249 0.3428 0.51534 0.0
C895 C 0.09287 0.31209 0.53572 0.0
C896 C 1.01932 0.24162 0.5115 0.0
C897 C 1.00498 0.27278 0.49512 0.0
N898 N 1.02268 0.35553 0.48669 0.0
N899 N 0.07047 0.23169 0.55437 0.0
C900 C 1.03672 0.32401 0.49828 0.0
C901 C 0.06101 0.26135 0.53413 0.0
N902 N 0.11721 0.39026 0.51142 0.0
N903 N 0.99544 0.1935 0.50359 0.0
H904 H 0.10348 0.24395 0.56705 0.0
H905 H 0.0452 0.1956 0.55927 0.0
H906 H 0.96726 0.17792 0.48544 0.0
H907 H 1.00689 0.1698 0.51191 0.0
H908 H 0.11451 0.41345 0.49332 0.0
H909 H 0.15107 0.40526 0.52352 0.0
H910 H 1.04142 0.39231 0.49247 0.0
H911 H 0.98999 0.34504 0.47453 0.0
C912 C 0.58157 0.17049 0.09305 0.0
C913 C 0.59698 0.14678 0.11698 0.0
C914 C 0.51583 0.10545 0.14452 0.0
C915 C 0.50026 0.12812 0.11959 0.0
N916 N 0.51412 0.16942 0.06351 0.0
N917 N 0.57747 0.08596 0.1619 0.0
C918 C 0.532 0.15681 0.09188 0.0
C919 C 0.56373 0.11261 0.1418 0.0
N920 N 0.61459 0.20732 0.07211 0.0
N921 N 0.48523 0.07779 0.17106 0.0
H922 H 0.61221 0.09058 0.16077 0.0
H923 H 0.55378 0.05717 0.17792 0.0
H924 H 0.44858 0.06699 0.17101 0.0
H925 H 0.49623 0.06627 0.19321 0.0
H926 H 0.60612 0.22942 0.05706 0.0
H927 H 0.65151 0.21898 0.0724 0.0
H928 H 0.53433 0.18655 0.04081 0.0
H929 H 0.47739 0.15694 0.06079 0.0
C930 C 0.65809 0.55214 0.3805 0.0
C931 C 0.69651 0.56927 0.40538 0.0
C932 C 0.65808 0.48961 0.4341 0.0
C933 C 0.61761 0.4736 0.41132 0.0
N934 N 0.5752 0.49193 0.36654 0.0
N935 N 0.72741 0.55751 0.46083 0.0
C936 C 0.61649 0.50553 0.3855 0.0
C937 C 0.69479 0.53889 0.43363 0.0
N938 N 0.66215 0.57942 0.35134 0.0
N939 N 0.66241 0.45731 0.45538 0.0
H940 H 0.75466 0.59352 0.4618 0.0
H941 H 0.72453 0.53855 0.4841 0.0
H942 H 0.63675 0.42061 0.45608 0.0
H943 H 0.69367 0.46593 0.46961 0.0
H944 H 0.63797 0.56662 0.33015 0.0
H945 H 0.69184 0.6137 0.347 0.0
H946 H 0.57037 0.51538 0.35012 0.0
H947 H 0.54416 0.4582 0.36942 0.0
C948 C 0.94507 0.40194 0.09453 0.0
C949 C 0.93733 0.38 0.12843 0.0
C950 C 0.89131 0.41934 0.14635 0.0
C951 C 0.90502 0.44681 0.11431 0.0
N952 N 0.90833 0.42946 0.0521 0.0
N953 N 0.90798 0.37244 0.18853 0.0
C954 C 0.92257 0.42941 0.08631 0.0
C955 C 0.91247 0.39073 0.15502 0.0
N956 N 0.97206 0.39503 0.06942 0.0
N957 N 0.85111 0.41221 0.16449 0.0
H958 H 0.92287 0.35107 0.19555 0.0
H959 H 0.89372 0.38246 0.20979 0.0
H960 H 0.82766 0.42283 0.15393 0.0
H961 H 0.83684 0.38913 0.18631 0.0
H962 H 0.98154 0.41358 0.04523 0.0
H963 H 0.98887 0.37483 0.07424 0.0
H964 H 0.91657 0.41346 0.03102 0.0
H965 H 0.88169 0.4382 0.04616 0.0
C966 C 0.51895 0.13194 0.44138 0.0
C967 C 0.50177 0.1318 0.40674 0.0
C968 C 0.58556 0.17121 0.38455 0.0
C969 C 0.60198 0.16508 0.41833 0.0
N970 N 0.58702 0.17737 0.47947 0.0
N971 N 0.51831 0.14691 0.34417 0.0
C972 C 0.56956 0.15523 0.44749 0.0
C973 C 0.53502 0.14956 0.37794 0.0
N974 N 0.48711 0.1118 0.46898 0.0
N975 N 0.61737 0.20582 0.36175 0.0
H976 H 0.48156 0.13186 0.3388 0.0
H977 H 0.54037 0.15528 0.32168 0.0
H978 H 0.65238 0.23107 0.36969 0.0
H979 H 0.60702 0.21481 0.338 0.0
H980 H 0.49803 0.10821 0.4944 0.0
H981 H 0.44976 0.09441 0.46535 0.0
H982 H 0.56475 0.17485 0.50076 0.0
H983 H 0.62306 0.20446 0.48244 0.0
C984 C 0.65716 0.48594 0.09895 0.0
C985 C 0.61605 0.4707 0.12117 0.0
C986 C 0.65593 0.54929 0.15149 0.0
C987 C 0.69501 0.56569 0.12703 0.0
N988 N 0.72659 0.55334 0.07172 0.0
N989 N 0.57219 0.49034 0.1643 0.0
C990 C 0.69378 0.53509 0.09905 0.0
C991 C 0.61419 0.50309 0.14627 0.0
N992 N 0.66207 0.45314 0.07855 0.0
N993 N 0.65941 0.57677 0.18046 0.0
H994 H 0.54092 0.45688 0.16117 0.0
H995 H 0.56715 0.51433 0.18007 0.0
H996 H 0.68938 0.61069 0.18517 0.0
H997 H 0.63437 0.56431 0.20128 0.0
H998 H 0.69377 0.46151 0.06479 0.0
H999 H 0.63645 0.41641 0.07823 0.0
H1000 H 0.72403 0.53376 0.0488 0.0
H1001 H 0.75341 0.58952 0.07008 0.0
C1002 C 0.9037 0.43052 0.37631 0.0
C1003 C 0.89806 0.44738 0.41006 0.0
C1004 C 0.91233 0.3863 0.43831 0.0
C1005 C 0.92865 0.37781 0.40512 0.0
N1006 N 0.94173 0.39435 0.34227 0.0
N1007 N 0.86426 0.41517 0.46772 0.0
C1008 C 0.92586 0.40152 0.37419 0.0
C1009 C 0.89363 0.41829 0.43998 0.0
N1010 N 0.87748 0.43117 0.34803 0.0
N1011 N 0.91328 0.36276 0.46833 0.0
H1012 H 0.84317 0.43172 0.46685 0.0
H1013 H 0.85554 0.39134 0.489 0.0
H1014 H 0.91877 0.33336 0.46784 0.0
H1015 H 0.91005 0.37364 0.49391 0.0
H1016 H 0.87779 0.41652 0.32326 0.0
H1017 H 0.8478 0.43609 0.3518 0.0
H1018 H 0.94308 0.41333 0.31932 0.0
H1019 H 0.95763 0.37296 0.3399 0.0
C1020 C 0.19749 0.5744 0.64901 0.0
C1021 C 0.17514 0.586 0.62115 0.0
C1022 C 0.13558 0.50184 0.60028 0.0
C1023 C 0.15554 0.48967 0.62956 0.0
N1024 N 0.19558 0.51174 0.68634 0.0
N1025 N 0.11502 0.5589 0.57482 0.0
C1026 C 0.18354 0.52527 0.6553 0.0
C1027 C 0.14168 0.54907 0.5982 0.0
N1028 N 0.23349 0.61044 0.66858 0.0
N1029 N 0.11323 0.46942 0.57333 0.0
H1030 H 0.11841 0.59297 0.57256 0.0
H1031 H 0.08651 0.53236 0.56007 0.0
H1032 H 0.10781 0.43451 0.57358 0.0
H1033 H 0.10342 0.47836 0.54932 0.0
H1034 H 0.25486 0.60453 0.68646 0.0
H1035 H 0.2449 0.64689 0.66476 0.0
H1036 H 0.21251 0.53524 0.70753 0.0
H1037 H 0.18364 0.4757 0.69242 0.0
C1038 C 0.39908 0.89303 0.93462 0.0
C1039 C 0.39548 0.91435 0.90241 0.0
C1040 C 0.44997 0.89125 0.87375 0.0
C1041 C 0.46216 0.88036 0.90755 0.0
N1042 N 0.42239 0.83935 0.96171 0.0
N1043 N 0.41819 0.93432 0.8409 0.0
C1044 C 0.42958 0.87259 0.93605 0.0
C1045 C 0.42192 0.9145 0.87203 0.0
N1046 N 0.37246 0.89118 0.9638 0.0
N1047 N 0.45393 0.86896 0.84402 0.0
H1048 H 0.39673 0.95031 0.83847 0.0
H1049 H 0.43961 0.93824 0.81867 0.0
H1050 H 0.45764 0.83844 0.84612 0.0
H1051 H 0.44284 0.87319 0.81887 0.0
H1052 H 0.37905 0.88293 0.98927 0.0
H1053 H 0.34529 0.9001 0.96293 0.0
H1054 H 0.39598 0.82833 0.9815 0.0
H1055 H 0.43857 0.81796 0.96018 0.0
C1056 C 0.55376 0.67645 0.59845 0.0
C1057 C 0.58271 0.67908 0.62802 0.0
C1058 C 0.51723 0.60068 0.64922 0.0
C1059 C 0.48695 0.60052 0.62147 0.0
N1060 N 0.47342 0.64252 0.57362 0.0
N1061 N 0.58999 0.64742 0.68432 0.0
C1062 C 0.50446 0.6396 0.59716 0.0
C1063 C 0.564 0.64208 0.65414 0.0
N1064 N 0.57371 0.70854 0.57095 0.0
N1065 N 0.50185 0.56076 0.67022 0.0
H1066 H 0.62446 0.67688 0.68851 0.0
H1067 H 0.57606 0.62461 0.70628 0.0
H1068 H 0.46776 0.53011 0.66763 0.0
H1069 H 0.52405 0.55656 0.68837 0.0
H1070 H 0.55631 0.70469 0.54674 0.0
H1071 H 0.60932 0.73685 0.57096 0.0
H1072 H 0.48273 0.67284 0.55801 0.0
H1073 H 0.43681 0.61659 0.57207 0.0
C1074 C 0.14088 0.55612 0.88719 0.0
C1075 C 0.17434 0.58793 0.91282 0.0
C1076 C 0.18586 0.52238 0.93504 0.0
C1077 C 0.15653 0.49196 0.90701 0.0
N1078 N 0.11091 0.4816 0.85355 0.0
N1079 N 0.23556 0.60398 0.95672 0.0
C1080 C 0.13506 0.50917 0.88237 0.0
C1081 C 0.19874 0.57175 0.93551 0.0
N1082 N 0.11384 0.57036 0.86808 0.0
N1083 N 0.20017 0.5037 0.96202 0.0
H1084 H 0.24647 0.64063 0.95769 0.0
H1085 H 0.25833 0.59535 0.97073 0.0
H1086 H 0.19115 0.4676 0.96312 0.0
H1087 H 0.21688 0.52276 0.98513 0.0
H1088 H 0.0852 0.54717 0.8518 0.0
H1089 H 0.11768 0.60461 0.87055 0.0
H1090 H 0.09927 0.49427 0.83244 0.0
H1091 H 0.10559 0.44702 0.84941 0.0
C1092 C 0.43475 0.93767 0.65252 0.0
C1093 C 0.39653 0.91767 0.62749 0.0
C1094 C 0.43328 0.87538 0.59792 0.0
C1095 C 0.47366 0.89849 0.6209 0.0
N1096 N 0.51713 0.95819 0.66622 0.0
N1097 N 0.36604 0.87777 0.57099 0.0
C1098 C 0.47568 0.93156 0.64718 0.0
C1099 C 0.39781 0.88959 0.59858 0.0
N1100 N 0.43119 0.96086 0.68199 0.0
N1101 N 0.42785 0.83857 0.57624 0.0
H1102 H 0.34017 0.8885 0.56992 0.0
H1103 H 0.36864 0.86176 0.5475 0.0
H1104 H 0.45253 0.82619 0.5755 0.0
H1105 H 0.39648 0.81707 0.56176 0.0
H1106 H 0.45524 0.97136 0.70324 0.0
H1107 H 0.40209 0.96651 0.68638 0.0
H1108 H 0.52252 0.98637 0.68306 0.0
H1109 H 0.54774 0.95472 0.66303 0.0
C1110 C 0.5527 0.66515 0.87404 0.0
C1111 C 0.58593 0.67609 0.90215 0.0
C1112 C 0.51841 0.63086 0.94297 0.0
C1113 C 0.48544 0.61208 0.91406 0.0
N1114 N 0.47064 0.64287 0.85985 0.0
N1115 N 0.6004 0.66157 0.96245 0.0
C1116 C 0.50202 0.63719 0.88104 0.0
C1117 C 0.56873 0.65589 0.93615 0.0
N1118 N 0.56969 0.68166 0.84059 0.0
N1119 N 0.50226 0.63371 0.9761 0.0
H1120 H 0.63759 0.67856 0.95791 0.0
H1121 H 0.58888 0.64455 0.98714 0.0
H1122 H 0.46657 0.62543 0.98049 0.0
H1123 H 0.52548 0.65096 0.99741 0.0
H1124 H 0.5474 0.67155 0.81828 0.0
H1125 H 0.6067 0.70136 0.83497 0.0
H1126 H 0.48124 0.66394 0.83686 0.0
H1127 H 0.43603 0.63363 0.86877 0.0
loop_
_geom_bond_atom_site_label_1
_geom_bond_atom_site_label_2
_geom_bond_distance
_geom_bond_site_symmetry_2
_ccdc_geom_bond_type
Gd0 C3 2.818 . S
Gd0 O20 2.377 . S
Gd0 O22 2.448 . S
Gd0 O23 2.506 . S
Gd0 O24 2.435 . S
Gd0 O25 2.717 . S
Gd0 O27 2.395 . S
Gd0 O31 2.327 . S
Gd1 C12 2.816 1_545 S
Gd1 O21 2.395 . S
Gd1 O25 2.327 . S
Gd1 O26 2.377 . S
Gd1 O28 2.448 . S
Gd1 O29 2.506 . S
Gd1 O30 2.435 . S
Gd1 O31 2.717 . S
C2 O20 1.240 . S
C2 O21 1.240 . S
C3 Gd0 2.818 . S
C3 C4 1.510 . S
C3 O22 1.249 . S
C3 O23 1.252 . S
C4 C3 1.510 . S
C4 C5 1.404 . S
C4 C6 1.352 . S
C5 C4 1.404 . S
C5 C9 1.389 . S
C5 H32 0.930 . S
C6 C4 1.352 . S
C6 C8 1.374 . S
C6 H33 0.931 . S
C7 C8 1.359 . S
C7 C9 1.364 . S
C8 C6 1.374 . S
C8 C7 1.359 . S
C8 H34 0.931 . S
C9 C5 1.389 . S
C9 C7 1.364 . S
C9 H35 0.931 . S
C10 O24 1.256 . S
C10 O25 1.257 . S
C11 O26 1.240 . S
C11 O27 1.240 . S
C12 Gd1 2.816 1_565 S
C12 C13 1.512 . S
C12 O28 1.248 1_565 S
C12 O29 1.250 1_565 S
C13 C12 1.512 . S
C13 C14 1.404 . S
C13 C15 1.352 . S
C14 C13 1.404 . S
C14 C18 1.389 . S
C14 H36 0.930 . S
C15 C13 1.352 . S
C15 C17 1.374 . S
C15 H37 0.931 . S
C16 C17 1.359 . S
C16 C18 1.364 . S
C17 C15 1.374 . S
C17 C16 1.359 . S
C17 H38 0.931 . S
C18 C14 1.389 . S
C18 C16 1.364 . S
C18 H39 0.931 . S
C19 O30 1.256 . S
C19 O31 1.257 . S
O20 Gd0 2.377 . S
O20 C2 1.240 . S
O21 Gd1 2.395 . S
O21 C2 1.240 . S
O22 Gd0 2.448 . S
O22 C3 1.249 . S
O23 Gd0 2.506 . S
O23 C3 1.252 . S
O24 Gd0 2.435 . S
O24 C10 1.256 . S
O25 Gd0 2.717 . S
O25 Gd1 2.327 . S
O25 C10 1.257 . S
O26 Gd1 2.377 . S
O26 C11 1.240 . S
O27 Gd0 2.395 . S
O27 C11 1.240 . S
O28 Gd1 2.448 . S
O28 C12 1.248 1_545 S
O29 Gd1 2.506 . S
O29 C12 1.250 1_545 S
O30 Gd1 2.435 . S
O30 C19 1.256 . S
O31 Gd0 2.327 . S
O31 Gd1 2.717 . S
O31 C19 1.257 . S
H32 C5 0.930 . S
H33 C6 0.931 . S
H34 C8 0.931 . S
H35 C9 0.931 . S
H36 C14 0.930 . S
H37 C15 0.931 . S
H38 C17 0.931 . S
H39 C18 0.931 . S
Gd40 C43 2.818 . S
Gd40 O60 2.377 . S
Gd40 O62 2.448 . S
Gd40 O63 2.506 . S
Gd40 O64 2.435 . S
Gd40 O65 2.717 . S
Gd40 O67 2.395 . S
Gd40 O71 2.327 . S
Gd41 C52 2.818 . S
Gd41 O61 2.395 . S
Gd41 O65 2.327 . S
Gd41 O66 2.377 . S
Gd41 O68 2.448 . S
Gd41 O69 2.506 . S
Gd41 O70 2.435 . S
Gd41 O71 2.717 . S
C42 O60 1.240 . S
C42 O61 1.240 . S
C43 Gd40 2.818 . S
C43 C44 1.510 . S
C43 O62 1.249 . S
C43 O63 1.252 . S
C44 C43 1.510 . S
C44 C45 1.404 . S
C44 C46 1.352 . S
C45 C44 1.404 . S
C45 C49 1.389 . S
C45 H72 0.930 . S
C46 C44 1.352 . S
C46 C48 1.374 . S
C46 H73 0.931 . S
C47 C48 1.359 . S
C47 C49 1.364 . S
C48 C46 1.374 . S
C48 C47 1.359 . S
C48 H74 0.931 . S
C49 C45 1.389 . S
C49 C47 1.364 . S
C49 H75 0.931 . S
C50 O64 1.256 . S
C50 O65 1.257 . S
C51 O66 1.240 . S
C51 O67 1.240 . S
C52 Gd41 2.818 . S
C52 C53 1.510 . S
C52 O68 1.249 . S
C52 O69 1.252 . S
C53 C52 1.510 . S
C53 C54 1.404 . S
C53 C55 1.352 . S
C54 C53 1.404 . S
C54 C58 1.389 . S
C54 H76 0.930 . S
C55 C53 1.352 . S
C55 C57 1.374 . S
C55 H77 0.931 . S
C56 C57 1.359 . S
C56 C58 1.364 . S
C57 C55 1.374 . S
C57 C56 1.359 . S
C57 H78 0.931 . S
C58 C54 1.389 . S
C58 C56 1.364 . S
C58 H79 0.931 . S
C59 O70 1.256 . S
C59 O71 1.257 . S
O60 Gd40 2.377 . S
O60 C42 1.240 . S
O61 Gd41 2.395 . S
O61 C42 1.240 . S
O62 Gd40 2.448 . S
O62 C43 1.249 . S
O63 Gd40 2.506 . S
O63 C43 1.252 . S
O64 Gd40 2.435 . S
O64 C50 1.256 . S
O65 Gd40 2.717 . S
O65 Gd41 2.327 . S
O65 C50 1.257 . S
O66 Gd41 2.377 . S
O66 C51 1.240 . S
O67 Gd40 2.395 . S
O67 C51 1.240 . S
O68 Gd41 2.448 . S
O68 C52 1.249 . S
O69 Gd41 2.506 . S
O69 C52 1.252 . S
O70 Gd41 2.435 . S
O70 C59 1.256 . S
O71 Gd40 2.327 . S
O71 Gd41 2.717 . S
O71 C59 1.257 . S
H72 C45 0.930 . S
H73 C46 0.931 . S
H74 C48 0.931 . S
H75 C49 0.931 . S
H76 C54 0.930 . S
H77 C55 0.931 . S
H78 C57 0.931 . S
H79 C58 0.931 . S
Gd80 C83 2.818 . S
Gd80 O100 2.377 . S
Gd80 O102 2.448 . S
Gd80 O103 2.506 . S
Gd80 O104 2.435 . S
Gd80 O105 2.717 . S
Gd80 O107 2.395 . S
Gd80 O111 2.327 . S
Gd81 C92 2.812 1_655 S
Gd81 O101 2.395 . S
Gd81 O105 2.327 . S
Gd81 O106 2.377 . S
Gd81 O108 2.448 . S
Gd81 O109 2.506 . S
Gd81 O110 2.435 . S
Gd81 O111 2.717 . S
C82 O100 1.240 . S
C82 O101 1.240 . S
C83 Gd80 2.818 . S
C83 C84 1.510 . S
C83 O102 1.249 . S
C83 O103 1.252 . S
C84 C83 1.510 . S
C84 C85 1.404 . S
C84 C86 1.352 . S
C85 C84 1.404 . S
C85 C89 1.389 . S
C85 H112 0.930 . S
C86 C84 1.352 . S
C86 C88 1.374 . S
C86 H113 0.931 . S
C87 C88 1.359 . S
C87 C89 1.364 . S
C88 C86 1.374 . S
C88 C87 1.359 . S
C88 H114 0.931 . S
C89 C85 1.389 . S
C89 C87 1.364 . S
C89 H115 0.931 . S
C90 O104 1.256 . S
C90 O105 1.257 . S
C91 O106 1.240 . S
C91 O107 1.240 . S
C92 Gd81 2.812 1_455 S
C92 C93 1.517 . S
C92 O108 1.246 1_455 S
C92 O109 1.249 1_455 S
C93 C92 1.517 . S
C93 C94 1.404 . S
C93 C95 1.352 . S
C94 C93 1.404 . S
C94 C98 1.389 . S
C94 H116 0.930 . S
C95 C93 1.352 . S
C95 C97 1.374 . S
C95 H117 0.931 . S
C96 C97 1.359 . S
C96 C98 1.364 . S
C97 C95 1.374 . S
C97 C96 1.359 . S
C97 H118 0.931 . S
C98 C94 1.389 . S
C98 C96 1.364 . S
C98 H119 0.931 . S
C99 O110 1.256 . S
C99 O111 1.257 . S
O100 Gd80 2.377 . S
O100 C82 1.240 . S
O101 Gd81 2.395 . S
O101 C82 1.240 . S
O102 Gd80 2.448 . S
O102 C83 1.249 . S
O103 Gd80 2.506 . S
O103 C83 1.252 . S
O104 Gd80 2.435 . S
O104 C90 1.256 . S
O105 Gd80 2.717 . S
O105 Gd81 2.327 . S
O105 C90 1.257 . S
O106 Gd81 2.377 . S
O106 C91 1.240 . S
O107 Gd80 2.395 . S
O107 C91 1.240 . S
O108 Gd81 2.448 . S
O108 C92 1.246 1_655 S
O109 Gd81 2.506 . S
O109 C92 1.249 1_655 S
O110 Gd81 2.435 . S
O110 C99 1.256 . S
O111 Gd80 2.327 . S
O111 Gd81 2.717 . S
O111 C99 1.257 . S
H112 C85 0.930 . S
H113 C86 0.931 . S
H114 C88 0.931 . S
H115 C89 0.931 . S
H116 C94 0.930 . S
H117 C95 0.931 . S
H118 C97 0.931 . S
H119 C98 0.931 . S
Gd120 C123 2.816 1_545 S
Gd120 O140 2.377 . S
Gd120 O142 2.448 . S
Gd120 O143 2.506 . S
Gd120 O144 2.435 . S
Gd120 O145 2.717 . S
Gd120 O147 2.395 . S
Gd120 O151 2.327 . S
Gd121 C132 2.818 . S
Gd121 O141 2.395 . S
Gd121 O145 2.327 . S
Gd121 O146 2.377 . S
Gd121 O148 2.448 . S
Gd121 O149 2.506 . S
Gd121 O150 2.435 . S
Gd121 O151 2.717 . S
C122 O140 1.240 . S
C122 O141 1.240 . S
C123 Gd120 2.816 1_565 S
C123 C124 1.512 . S
C123 O142 1.248 1_565 S
C123 O143 1.250 1_565 S
C124 C123 1.512 . S
C124 C125 1.404 . S
C124 C126 1.352 . S
C125 C124 1.404 . S
C125 C129 1.389 . S
C125 H152 0.930 . S
C126 C124 1.352 . S
C126 C128 1.374 . S
C126 H153 0.931 . S
C127 C128 1.359 . S
C127 C129 1.364 . S
C128 C126 1.374 . S
C128 C127 1.359 . S
C128 H154 0.931 . S
C129 C125 1.389 . S
C129 C127 1.364 . S
C129 H155 0.931 . S
C130 O144 1.256 . S
C130 O145 1.257 . S
C131 O146 1.240 . S
C131 O147 1.240 . S
C132 Gd121 2.818 . S
C132 C133 1.510 . S
C132 O148 1.249 . S
C132 O149 1.252 . S
C133 C132 1.510 . S
C133 C134 1.404 . S
C133 C135 1.352 . S
C134 C133 1.404 . S
C134 C138 1.389 . S
C134 H156 0.930 . S
C135 C133 1.352 . S
C135 C137 1.374 . S
C135 H157 0.931 . S
C136 C137 1.359 . S
C136 C138 1.364 . S
C137 C135 1.374 . S
C137 C136 1.359 . S
C137 H158 0.931 . S
C138 C134 1.389 . S
C138 C136 1.364 . S
C138 H159 0.931 . S
C139 O150 1.256 . S
C139 O151 1.257 . S
O140 Gd120 2.377 . S
O140 C122 1.240 . S
O141 Gd121 2.395 . S
O141 C122 1.240 . S
O142 Gd120 2.448 . S
O142 C123 1.248 1_545 S
O143 Gd120 2.506 . S
O143 C123 1.250 1_545 S
O144 Gd120 2.435 . S
O144 C130 1.256 . S
O145 Gd120 2.717 . S
O145 Gd121 2.327 . S
O145 C130 1.257 . S
O146 Gd121 2.377 . S
O146 C131 1.240 . S
O147 Gd120 2.395 . S
O147 C131 1.240 . S
O148 Gd121 2.448 . S
O148 C132 1.249 . S
O149 Gd121 2.506 . S
O149 C132 1.252 . S
O150 Gd121 2.435 . S
O150 C139 1.256 . S
O151 Gd120 2.327 . S
O151 Gd121 2.717 . S
O151 C139 1.257 . S
H152 C125 0.930 . S
H153 C126 0.931 . S
H154 C128 0.931 . S
H155 C129 0.931 . S
H156 C134 0.930 . S
H157 C135 0.931 . S
H158 C137 0.931 . S
H159 C138 0.931 . S
Gd160 C163 2.818 . S
Gd160 O180 2.377 . S
Gd160 O182 2.448 . S
Gd160 O183 2.506 . S
Gd160 O184 2.435 . S
Gd160 O185 2.717 . S
Gd160 O187 2.395 . S
Gd160 O191 2.327 . S
Gd161 C172 2.818 . S
Gd161 O181 2.395 . S
Gd161 O185 2.327 . S
Gd161 O186 2.377 . S
Gd161 O188 2.448 . S
Gd161 O189 2.506 . S
Gd161 O190 2.435 . S
Gd161 O191 2.717 . S
C162 O180 1.240 . S
C162 O181 1.240 . S
C163 Gd160 2.818 . S
C163 C164 1.510 . S
C163 O182 1.249 . S
C163 O183 1.252 . S
C164 C163 1.510 . S
C164 C165 1.404 . S
C164 C166 1.352 . S
C165 C164 1.404 . S
C165 C169 1.389 . S
C165 H192 0.930 . S
C166 C164 1.352 . S
C166 C168 1.374 . S
C166 H193 0.931 . S
C167 C168 1.359 . S
C167 C169 1.364 . S
C168 C166 1.374 . S
C168 C167 1.359 . S
C168 H194 0.931 . S
C169 C165 1.389 . S
C169 C167 1.364 . S
C169 H195 0.931 . S
C170 O184 1.256 . S
C170 O185 1.257 . S
C171 O186 1.240 . S
C171 O187 1.240 . S
C172 Gd161 2.818 . S
C172 C173 1.510 . S
C172 O188 1.249 . S
C172 O189 1.252 . S
C173 C172 1.510 . S
C173 C174 1.404 . S
C173 C175 1.352 . S
C174 C173 1.404 . S
C174 C178 1.389 . S
C174 H196 0.930 . S
C175 C173 1.352 . S
C175 C177 1.374 . S
C175 H197 0.931 . S
C176 C177 1.359 . S
C176 C178 1.364 . S
C177 C175 1.374 . S
C177 C176 1.359 . S
C177 H198 0.931 . S
C178 C174 1.389 . S
C178 C176 1.364 . S
C178 H199 0.931 . S
C179 O190 1.256 . S
C179 O191 1.257 . S
O180 Gd160 2.377 . S
O180 C162 1.240 . S
O181 Gd161 2.395 . S
O181 C162 1.240 . S
O182 Gd160 2.448 . S
O182 C163 1.249 . S
O183 Gd160 2.506 . S
O183 C163 1.252 . S
O184 Gd160 2.435 . S
O184 C170 1.256 . S
O185 Gd160 2.717 . S
O185 Gd161 2.327 . S
O185 C170 1.257 . S
O186 Gd161 2.377 . S
O186 C171 1.240 . S
O187 Gd160 2.395 . S
O187 C171 1.240 . S
O188 Gd161 2.448 . S
O188 C172 1.249 . S
O189 Gd161 2.506 . S
O189 C172 1.252 . S
O190 Gd161 2.435 . S
O190 C179 1.256 . S
O191 Gd160 2.327 . S
O191 Gd161 2.717 . S
O191 C179 1.257 . S
H192 C165 0.930 . S
H193 C166 0.931 . S
H194 C168 0.931 . S
H195 C169 0.931 . S
H196 C174 0.930 . S
H197 C175 0.931 . S
H198 C177 0.931 . S
H199 C178 0.931 . S
Gd200 C203 2.812 1_655 S
Gd200 O220 2.377 . S
Gd200 O222 2.448 . S
Gd200 O223 2.506 . S
Gd200 O224 2.435 . S
Gd200 O225 2.717 . S
Gd200 O227 2.395 . S
Gd200 O231 2.327 . S
Gd201 C212 2.818 . S
Gd201 O221 2.395 . S
Gd201 O225 2.327 . S
Gd201 O226 2.377 . S
Gd201 O228 2.448 . S
Gd201 O229 2.506 . S
Gd201 O230 2.435 . S
Gd201 O231 2.717 . S
C202 O220 1.240 . S
C202 O221 1.240 . S
C203 Gd200 2.812 1_455 S
C203 C204 1.517 . S
C203 O222 1.246 1_455 S
C203 O223 1.249 1_455 S
C204 C203 1.517 . S
C204 C205 1.404 . S
C204 C206 1.352 . S
C205 C204 1.404 . S
C205 C209 1.389 . S
C205 H232 0.930 . S
C206 C204 1.352 . S
C206 C208 1.374 . S
C206 H233 0.931 . S
C207 C208 1.359 . S
C207 C209 1.364 . S
C208 C206 1.374 . S
C208 C207 1.359 . S
C208 H234 0.931 . S
C209 C205 1.389 . S
C209 C207 1.364 . S
C209 H235 0.931 . S
C210 O224 1.256 . S
C210 O225 1.257 . S
C211 O226 1.240 . S
C211 O227 1.240 . S
C212 Gd201 2.818 . S
C212 C213 1.510 . S
C212 O228 1.249 . S
C212 O229 1.252 . S
C213 C212 1.510 . S
C213 C214 1.404 . S
C213 C215 1.352 . S
C214 C213 1.404 . S
C214 C218 1.389 . S
C214 H236 0.930 . S
C215 C213 1.352 . S
C215 C217 1.374 . S
C215 H237 0.931 . S
C216 C217 1.359 . S
C216 C218 1.364 . S
C217 C215 1.374 . S
C217 C216 1.359 . S
C217 H238 0.931 . S
C218 C214 1.389 . S
C218 C216 1.364 . S
C218 H239 0.931 . S
C219 O230 1.256 . S
C219 O231 1.257 . S
O220 Gd200 2.377 . S
O220 C202 1.240 . S
O221 Gd201 2.395 . S
O221 C202 1.240 . S
O222 Gd200 2.448 . S
O222 C203 1.246 1_655 S
O223 Gd200 2.506 . S
O223 C203 1.249 1_655 S
O224 Gd200 2.435 . S
O224 C210 1.256 . S
O225 Gd200 2.717 . S
O225 Gd201 2.327 . S
O225 C210 1.257 . S
O226 Gd201 2.377 . S
O226 C211 1.240 . S
O227 Gd200 2.395 . S
O227 C211 1.240 . S
O228 Gd201 2.448 . S
O228 C212 1.249 . S
O229 Gd201 2.506 . S
O229 C212 1.252 . S
O230 Gd201 2.435 . S
O230 C219 1.256 . S
O231 Gd200 2.327 . S
O231 Gd201 2.717 . S
O231 C219 1.257 . S
H232 C205 0.930 . S
H233 C206 0.931 . S
H234 C208 0.931 . S
H235 C209 0.931 . S
H236 C214 0.930 . S
H237 C215 0.931 . S
H238 C217 0.931 . S
H239 C218 0.931 . S
Gd240 C243 2.816 1_455 S
Gd240 O260 2.377 . S
Gd240 O262 2.448 . S
Gd240 O263 2.506 . S
Gd240 O264 2.435 . S
Gd240 O265 2.717 . S
Gd240 O267 2.395 . S
Gd240 O271 2.327 . S
Gd241 C252 2.818 . S
Gd241 O261 2.395 . S
Gd241 O265 2.327 . S
Gd241 O266 2.377 . S
Gd241 O268 2.448 . S
Gd241 O269 2.506 . S
Gd241 O270 2.435 . S
Gd241 O271 2.717 . S
C242 O260 1.240 . S
C242 O261 1.240 . S
C243 Gd240 2.816 1_655 S
C243 C244 1.512 . S
C243 O262 1.248 1_655 S
C243 O263 1.250 1_655 S
C244 C243 1.512 . S
C244 C245 1.404 . S
C244 C246 1.352 . S
C245 C244 1.404 . S
C245 C249 1.389 . S
C245 H272 0.930 . S
C246 C244 1.352 . S
C246 C248 1.374 . S
C246 H273 0.931 . S
C247 C248 1.359 . S
C247 C249 1.364 . S
C248 C246 1.374 . S
C248 C247 1.359 . S
C248 H274 0.931 . S
C249 C245 1.389 . S
C249 C247 1.364 . S
C249 H275 0.931 . S
C250 O264 1.256 . S
C250 O265 1.257 . S
C251 O266 1.240 . S
C251 O267 1.240 . S
C252 Gd241 2.818 . S
C252 C253 1.510 . S
C252 O268 1.249 . S
C252 O269 1.252 . S
C253 C252 1.510 . S
C253 C254 1.404 . S
C253 C255 1.352 . S
C254 C253 1.404 . S
C254 C258 1.389 . S
C254 H276 0.930 . S
C255 C253 1.352 . S
C255 C257 1.374 . S
C255 H277 0.931 . S
C256 C257 1.359 . S
C256 C258 1.364 . S
C257 C255 1.374 . S
C257 C256 1.359 . S
C257 H278 0.931 . S
C258 C254 1.389 . S
C258 C256 1.364 . S
C258 H279 0.931 . S
C259 O270 1.256 . S
C259 O271 1.257 . S
O260 Gd240 2.377 . S
O260 C242 1.240 . S
O261 Gd241 2.395 . S
O261 C242 1.240 . S
O262 Gd240 2.448 . S
O262 C243 1.248 1_455 S
O263 Gd240 2.506 . S
O263 C243 1.250 1_455 S
O264 Gd240 2.435 . S
O264 C250 1.256 . S
O265 Gd240 2.717 . S
O265 Gd241 2.327 . S
O265 C250 1.257 . S
O266 Gd241 2.377 . S
O266 C251 1.240 . S
O267 Gd240 2.395 . S
O267 C251 1.240 . S
O268 Gd241 2.448 . S
O268 C252 1.249 . S
O269 Gd241 2.506 . S
O269 C252 1.252 . S
O270 Gd241 2.435 . S
O270 C259 1.256 . S
O271 Gd240 2.327 . S
O271 Gd241 2.717 . S
O271 C259 1.257 . S
H272 C245 0.930 . S
H273 C246 0.931 . S
H274 C248 0.931 . S
H275 C249 0.931 . S
H276 C254 0.930 . S
H277 C255 0.931 . S
H278 C257 0.931 . S
H279 C258 0.931 . S
Gd280 C283 2.818 . S
Gd280 O300 2.377 . S
Gd280 O302 2.448 . S
Gd280 O303 2.506 . S
Gd280 O304 2.435 . S
Gd280 O305 2.717 . S
Gd280 O307 2.395 . S
Gd280 O311 2.327 . S
Gd281 C292 2.812 1_565 S
Gd281 O301 2.395 . S
Gd281 O305 2.327 . S
Gd281 O306 2.377 . S
Gd281 O308 2.448 . S
Gd281 O309 2.506 . S
Gd281 O310 2.435 . S
Gd281 O311 2.717 . S
C282 O300 1.240 . S
C282 O301 1.240 . S
C283 Gd280 2.818 . S
C283 C284 1.510 . S
C283 O302 1.249 . S
C283 O303 1.252 . S
C284 C283 1.510 . S
C284 C285 1.404 . S
C284 C286 1.352 . S
C285 C284 1.404 . S
C285 C289 1.389 . S
C285 H312 0.930 . S
C286 C284 1.352 . S
C286 C288 1.374 . S
C286 H313 0.931 . S
C287 C288 1.359 . S
C287 C289 1.364 . S
C288 C286 1.374 . S
C288 C287 1.359 . S
C288 H314 0.931 . S
C289 C285 1.389 . S
C289 C287 1.364 . S
C289 H315 0.931 . S
C290 O304 1.256 . S
C290 O305 1.257 . S
C291 O306 1.240 . S
C291 O307 1.240 . S
C292 Gd281 2.812 1_545 S
C292 C293 1.517 . S
C292 O308 1.246 1_545 S
C292 O309 1.249 1_545 S
C293 C292 1.517 . S
C293 C294 1.404 . S
C293 C295 1.352 . S
C294 C293 1.404 . S
C294 C298 1.389 . S
C294 H316 0.930 . S
C295 C293 1.352 . S
C295 C297 1.374 . S
C295 H317 0.931 . S
C296 C297 1.359 . S
C296 C298 1.364 . S
C297 C295 1.374 . S
C297 C296 1.359 . S
C297 H318 0.931 . S
C298 C294 1.389 . S
C298 C296 1.364 . S
C298 H319 0.931 . S
C299 O310 1.256 . S
C299 O311 1.257 . S
O300 Gd280 2.377 . S
O300 C282 1.240 . S
O301 Gd281 2.395 . S
O301 C282 1.240 . S
O302 Gd280 2.448 . S
O302 C283 1.249 . S
O303 Gd280 2.506 . S
O303 C283 1.252 . S
O304 Gd280 2.435 . S
O304 C290 1.256 . S
O305 Gd280 2.717 . S
O305 Gd281 2.327 . S
O305 C290 1.257 . S
O306 Gd281 2.377 . S
O306 C291 1.240 . S
O307 Gd280 2.395 . S
O307 C291 1.240 . S
O308 Gd281 2.448 . S
O308 C292 1.246 1_565 S
O309 Gd281 2.506 . S
O309 C292 1.249 1_565 S
O310 Gd281 2.435 . S
O310 C299 1.256 . S
O311 Gd280 2.327 . S
O311 Gd281 2.717 . S
O311 C299 1.257 . S
H312 C285 0.930 . S
H313 C286 0.931 . S
H314 C288 0.931 . S
H315 C289 0.931 . S
H316 C294 0.930 . S
H317 C295 0.931 . S
H318 C297 0.931 . S
H319 C298 0.931 . S
Gd320 C323 2.818 . S
Gd320 O340 2.377 . S
Gd320 O342 2.448 . S
Gd320 O343 2.506 . S
Gd320 O344 2.435 . S
Gd320 O345 2.717 . S
Gd320 O347 2.395 . S
Gd320 O351 2.327 . S
Gd321 C332 2.818 . S
Gd321 O341 2.395 . S
Gd321 O345 2.327 . S
Gd321 O346 2.377 . S
Gd321 O348 2.448 . S
Gd321 O349 2.506 . S
Gd321 O350 2.435 . S
Gd321 O351 2.717 . S
C322 O340 1.240 . S
C322 O341 1.240 . S
C323 Gd320 2.818 . S
C323 C324 1.510 . S
C323 O342 1.249 . S
C323 O343 1.252 . S
C324 C323 1.510 . S
C324 C325 1.404 . S
C324 C326 1.352 . S
C325 C324 1.404 . S
C325 C329 1.389 . S
C325 H352 0.930 . S
C326 C324 1.352 . S
C326 C328 1.374 . S
C326 H353 0.931 . S
C327 C328 1.359 . S
C327 C329 1.364 . S
C328 C326 1.374 . S
C328 C327 1.359 . S
C328 H354 0.931 . S
C329 C325 1.389 . S
C329 C327 1.364 . S
C329 H355 0.931 . S
C330 O344 1.256 . S
C330 O345 1.257 . S
C331 O346 1.240 . S
C331 O347 1.240 . S
C332 Gd321 2.818 . S
C332 C333 1.510 . S
C332 O348 1.249 . S
C332 O349 1.252 . S
C333 C332 1.510 . S
C333 C334 1.404 . S
C333 C335 1.352 . S
C334 C333 1.404 . S
C334 C338 1.389 . S
C334 H356 0.930 . S
C335 C333 1.352 . S
C335 C337 1.374 . S
C335 H357 0.931 . S
C336 C337 1.359 . S
C336 C338 1.364 . S
C337 C335 1.374 . S
C337 C336 1.359 . S
C337 H358 0.931 . S
C338 C334 1.389 . S
C338 C336 1.364 . S
C338 H359 0.931 . S
C339 O350 1.256 . S
C339 O351 1.257 . S
O340 Gd320 2.377 . S
O340 C322 1.240 . S
O341 Gd321 2.395 . S
O341 C322 1.240 . S
O342 Gd320 2.448 . S
O342 C323 1.249 . S
O343 Gd320 2.506 . S
O343 C323 1.252 . S
O344 Gd320 2.435 . S
O344 C330 1.256 . S
O345 Gd320 2.717 . S
O345 Gd321 2.327 . S
O345 C330 1.257 . S
O346 Gd321 2.377 . S
O346 C331 1.240 . S
O347 Gd320 2.395 . S
O347 C331 1.240 . S
O348 Gd321 2.448 . S
O348 C332 1.249 . S
O349 Gd321 2.506 . S
O349 C332 1.252 . S
O350 Gd321 2.435 . S
O350 C339 1.256 . S
O351 Gd320 2.327 . S
O351 Gd321 2.717 . S
O351 C339 1.257 . S
H352 C325 0.930 . S
H353 C326 0.931 . S
H354 C328 0.931 . S
H355 C329 0.931 . S
H356 C334 0.930 . S
H357 C335 0.931 . S
H358 C337 0.931 . S
H359 C338 0.931 . S
Gd360 C363 2.818 . S
Gd360 O380 2.377 . S
Gd360 O382 2.448 . S
Gd360 O383 2.506 . S
Gd360 O384 2.435 . S
Gd360 O385 2.717 . S
Gd360 O387 2.395 . S
Gd360 O391 2.327 . S
Gd361 C372 2.816 1_455 S
Gd361 O381 2.395 . S
Gd361 O385 2.327 . S
Gd361 O386 2.377 . S
Gd361 O388 2.448 . S
Gd361 O389 2.506 . S
Gd361 O390 2.435 . S
Gd361 O391 2.717 . S
C362 O380 1.240 . S
C362 O381 1.240 . S
C363 Gd360 2.818 . S
C363 C364 1.510 . S
C363 O382 1.249 . S
C363 O383 1.252 . S
C364 C363 1.510 . S
C364 C365 1.404 . S
C364 C366 1.352 . S
C365 C364 1.404 . S
C365 C369 1.389 . S
C365 H392 0.930 . S
C366 C364 1.352 . S
C366 C368 1.374 . S
C366 H393 0.931 . S
C367 C368 1.359 . S
C367 C369 1.364 . S
C368 C366 1.374 . S
C368 C367 1.359 . S
C368 H394 0.931 . S
C369 C365 1.389 . S
C369 C367 1.364 . S
C369 H395 0.931 . S
C370 O384 1.256 . S
C370 O385 1.257 . S
C371 O386 1.240 . S
C371 O387 1.240 . S
C372 Gd361 2.816 1_655 S
C372 C373 1.512 . S
C372 O388 1.248 1_655 S
C372 O389 1.250 1_655 S
C373 C372 1.512 . S
C373 C374 1.404 . S
C373 C375 1.352 . S
C374 C373 1.404 . S
C374 C378 1.389 . S
C374 H396 0.930 . S
C375 C373 1.352 . S
C375 C377 1.374 . S
C375 H397 0.931 . S
C376 C377 1.359 . S
C376 C378 1.364 . S
C377 C375 1.374 . S
C377 C376 1.359 . S
C377 H398 0.931 . S
C378 C374 1.389 . S
C378 C376 1.364 . S
C378 H399 0.931 . S
C379 O390 1.256 . S
C379 O391 1.257 . S
O380 Gd360 2.377 . S
O380 C362 1.240 . S
O381 Gd361 2.395 . S
O381 C362 1.240 . S
O382 Gd360 2.448 . S
O382 C363 1.249 . S
O383 Gd360 2.506 . S
O383 C363 1.252 . S
O384 Gd360 2.435 . S
O384 C370 1.256 . S
O385 Gd360 2.717 . S
O385 Gd361 2.327 . S
O385 C370 1.257 . S
O386 Gd361 2.377 . S
O386 C371 1.240 . S
O387 Gd360 2.395 . S
O387 C371 1.240 . S
O388 Gd361 2.448 . S
O388 C372 1.248 1_455 S
O389 Gd361 2.506 . S
O389 C372 1.250 1_455 S
O390 Gd361 2.435 . S
O390 C379 1.256 . S
O391 Gd360 2.327 . S
O391 Gd361 2.717 . S
O391 C379 1.257 . S
H392 C365 0.930 . S
H393 C366 0.931 . S
H394 C368 0.931 . S
H395 C369 0.931 . S
H396 C374 0.930 . S
H397 C375 0.931 . S
H398 C377 0.931 . S
H399 C378 0.931 . S
Gd400 C403 2.812 1_565 S
Gd400 O420 2.377 . S
Gd400 O422 2.448 . S
Gd400 O423 2.506 . S
Gd400 O424 2.435 . S
Gd400 O425 2.717 . S
Gd400 O427 2.395 . S
Gd400 O431 2.327 . S
Gd401 C412 2.818 . S
Gd401 O421 2.395 . S
Gd401 O425 2.327 . S
Gd401 O426 2.377 . S
Gd401 O428 2.448 . S
Gd401 O429 2.506 . S
Gd401 O430 2.435 . S
Gd401 O431 2.717 . S
C402 O420 1.240 . S
C402 O421 1.240 . S
C403 Gd400 2.812 1_545 S
C403 C404 1.517 . S
C403 O422 1.246 1_545 S
C403 O423 1.249 1_545 S
C404 C403 1.517 . S
C404 C405 1.404 . S
C404 C406 1.352 . S
C405 C404 1.404 . S
C405 C409 1.389 . S
C405 H432 0.930 . S
C406 C404 1.352 . S
C406 C408 1.374 . S
C406 H433 0.931 . S
C407 C408 1.359 . S
C407 C409 1.364 . S
C408 C406 1.374 . S
C408 C407 1.359 . S
C408 H434 0.931 . S
C409 C405 1.389 . S
C409 C407 1.364 . S
C409 H435 0.931 . S
C410 O424 1.256 . S
C410 O425 1.257 . S
C411 O426 1.240 . S
C411 O427 1.240 . S
C412 Gd401 2.818 . S
C412 C413 1.510 . S
C412 O428 1.249 . S
C412 O429 1.252 . S
C413 C412 1.510 . S
C413 C414 1.404 . S
C413 C415 1.352 . S
C414 C413 1.404 . S
C414 C418 1.389 . S
C414 H436 0.930 . S
C415 C413 1.352 . S
C415 C417 1.374 . S
C415 H437 0.931 . S
C416 C417 1.359 . S
C416 C418 1.364 . S
C417 C415 1.374 . S
C417 C416 1.359 . S
C417 H438 0.931 . S
C418 C414 1.389 . S
C418 C416 1.364 . S
C418 H439 0.931 . S
C419 O430 1.256 . S
C419 O431 1.257 . S
O420 Gd400 2.377 . S
O420 C402 1.240 . S
O421 Gd401 2.395 . S
O421 C402 1.240 . S
O422 Gd400 2.448 . S
O422 C403 1.246 1_565 S
O423 Gd400 2.506 . S
O423 C403 1.249 1_565 S
O424 Gd400 2.435 . S
O424 C410 1.256 . S
O425 Gd400 2.717 . S
O425 Gd401 2.327 . S
O425 C410 1.257 . S
O426 Gd401 2.377 . S
O426 C411 1.240 . S
O427 Gd400 2.395 . S
O427 C411 1.240 . S
O428 Gd401 2.448 . S
O428 C412 1.249 . S
O429 Gd401 2.506 . S
O429 C412 1.252 . S
O430 Gd401 2.435 . S
O430 C419 1.256 . S
O431 Gd400 2.327 . S
O431 Gd401 2.717 . S
O431 C419 1.257 . S
H432 C405 0.930 . S
H433 C406 0.931 . S
H434 C408 0.931 . S
H435 C409 0.931 . S
H436 C414 0.930 . S
H437 C415 0.931 . S
H438 C417 0.931 . S
H439 C418 0.931 . S
Gd440 C443 2.818 . S
Gd440 O460 2.377 . S
Gd440 O462 2.448 . S
Gd440 O463 2.506 . S
Gd440 O464 2.435 . S
Gd440 O465 2.717 . S
Gd440 O467 2.395 . S
Gd440 O471 2.327 . S
Gd441 C452 2.818 . S
Gd441 O461 2.395 . S
Gd441 O465 2.327 . S
Gd441 O466 2.377 . S
Gd441 O468 2.448 . S
Gd441 O469 2.506 . S
Gd441 O470 2.435 . S
Gd441 O471 2.717 . S
C442 O460 1.240 . S
C442 O461 1.240 . S
C443 Gd440 2.818 . S
C443 C444 1.510 . S
C443 O462 1.249 . S
C443 O463 1.252 . S
C444 C443 1.510 . S
C444 C445 1.404 . S
C444 C446 1.352 . S
C445 C444 1.404 . S
C445 C449 1.389 . S
C445 H472 0.930 . S
C446 C444 1.352 . S
C446 C448 1.374 . S
C446 H473 0.931 . S
C447 C448 1.359 . S
C447 C449 1.364 . S
C448 C446 1.374 . S
C448 C447 1.359 . S
C448 H474 0.931 . S
C449 C445 1.389 . S
C449 C447 1.364 . S
C449 H475 0.931 . S
C450 O464 1.256 . S
C450 O465 1.257 . S
C451 O466 1.240 . S
C451 O467 1.240 . S
C452 Gd441 2.818 . S
C452 C453 1.510 . S
C452 O468 1.249 . S
C452 O469 1.252 . S
C453 C452 1.510 . S
C453 C454 1.404 . S
C453 C455 1.352 . S
C454 C453 1.404 . S
C454 C458 1.389 . S
C454 H476 0.930 . S
C455 C453 1.352 . S
C455 C457 1.374 . S
C455 H477 0.931 . S
C456 C457 1.359 . S
C456 C458 1.364 . S
C457 C455 1.374 . S
C457 C456 1.359 . S
C457 H478 0.931 . S
C458 C454 1.389 . S
C458 C456 1.364 . S
C458 H479 0.931 . S
C459 O470 1.256 . S
C459 O471 1.257 . S
O460 Gd440 2.377 . S
O460 C442 1.240 . S
O461 Gd441 2.395 . S
O461 C442 1.240 . S
O462 Gd440 2.448 . S
O462 C443 1.249 . S
O463 Gd440 2.506 . S
O463 C443 1.252 . S
O464 Gd440 2.435 . S
O464 C450 1.256 . S
O465 Gd440 2.717 . S
O465 Gd441 2.327 . S
O465 C450 1.257 . S
O466 Gd441 2.377 . S
O466 C451 1.240 . S
O467 Gd440 2.395 . S
O467 C451 1.240 . S
O468 Gd441 2.448 . S
O468 C452 1.249 . S
O469 Gd441 2.506 . S
O469 C452 1.252 . S
O470 Gd441 2.435 . S
O470 C459 1.256 . S
O471 Gd440 2.327 . S
O471 Gd441 2.717 . S
O471 C459 1.257 . S
H472 C445 0.930 . S
H473 C446 0.931 . S
H474 C448 0.931 . S
H475 C449 0.931 . S
H476 C454 0.930 . S
H477 C455 0.931 . S
H478 C457 0.931 . S
H479 C458 0.931 . S
C480 C481 1.363 . S
C480 C486 1.379 . S
C480 N488 1.356 . S
C481 C480 1.363 . S
C481 C487 1.363 . S
C482 C483 1.363 . S
C482 C487 1.379 . S
C482 N489 1.356 . S
C483 C482 1.363 . S
C483 C486 1.363 . S
N484 C486 1.356 . S
N484 H496 0.984 . S
N484 H497 0.985 . S
N485 C487 1.356 . S
N485 H490 0.984 . S
N485 H491 0.985 . S
C486 C480 1.379 . S
C486 C483 1.363 . S
C486 N484 1.356 . S
C487 C481 1.363 . S
C487 C482 1.379 . S
C487 N485 1.356 . S
N488 C480 1.356 . S
N488 H494 0.984 . S
N488 H495 0.984 . S
N489 C482 1.356 . S
N489 H492 0.984 . S
N489 H493 0.985 . S
H490 N485 0.984 . S
H491 N485 0.985 . S
H492 N489 0.984 . S
H493 N489 0.985 . S
H494 N488 0.984 . S
H495 N488 0.984 . S
H496 N484 0.984 . S
H497 N484 0.985 . S
C498 C499 1.363 . S
C498 C504 1.379 1_455 S
C498 N506 1.356 . S
C499 C498 1.363 . S
C499 C505 1.363 1_455 S
C500 C501 1.363 . S
C500 C505 1.379 . S
C500 N507 1.356 . S
C501 C500 1.363 . S
C501 C504 1.363 . S
N502 C504 1.356 . S
N502 H514 0.984 . S
N502 H515 0.985 . S
N503 C505 1.356 1_455 S
N503 H508 0.984 . S
N503 H509 0.985 1_455 S
C504 C498 1.379 1_655 S
C504 C501 1.363 . S
C504 N502 1.356 . S
C505 C499 1.363 1_655 S
C505 C500 1.379 . S
C505 N503 1.356 1_655 S
N506 C498 1.356 . S
N506 H512 0.984 . S
N506 H513 0.984 . S
N507 C500 1.356 . S
N507 H510 0.984 . S
N507 H511 0.985 . S
H508 N503 0.984 . S
H509 N503 0.985 1_655 S
H510 N507 0.984 . S
H511 N507 0.985 . S
H512 N506 0.984 . S
H513 N506 0.984 . S
H514 N502 0.984 . S
H515 N502 0.985 . S
C516 C517 1.363 . S
C516 C522 1.379 1_545 S
C516 N524 1.356 . S
C517 C516 1.363 . S
C517 C523 1.363 . S
C518 C519 1.363 1_545 S
C518 C523 1.379 . S
C518 N525 1.356 1_545 S
C519 C518 1.363 1_565 S
C519 C522 1.363 . S
N520 C522 1.356 . S
N520 H532 0.984 . S
N520 H533 0.985 . S
N521 C523 1.356 . S
N521 H526 0.984 . S
N521 H527 0.985 . S
C522 C516 1.379 1_565 S
C522 C519 1.363 . S
C522 N520 1.356 . S
C523 C517 1.363 . S
C523 C518 1.379 . S
C523 N521 1.356 . S
N524 C516 1.356 . S
N524 H530 0.984 . S
N524 H531 0.984 . S
N525 C518 1.356 1_565 S
N525 H528 0.984 . S
N525 H529 0.985 1_565 S
H526 N521 0.984 . S
H527 N521 0.985 . S
H528 N525 0.984 . S
H529 N525 0.985 1_545 S
H530 N524 0.984 . S
H531 N524 0.984 . S
H532 N520 0.984 . S
H533 N520 0.985 . S
C534 C535 1.363 . S
C534 C540 1.379 . S
C534 N542 1.356 . S
C535 C534 1.363 . S
C535 C541 1.363 . S
C536 C537 1.363 . S
C536 C541 1.379 . S
C536 N543 1.356 . S
C537 C536 1.363 . S
C537 C540 1.363 . S
N538 C540 1.356 . S
N538 H550 0.984 . S
N538 H551 0.985 . S
N539 C541 1.356 . S
N539 H544 0.984 . S
N539 H545 0.985 . S
C540 C534 1.379 . S
C540 C537 1.363 . S
C540 N538 1.356 . S
C541 C535 1.363 . S
C541 C536 1.379 . S
C541 N539 1.356 . S
N542 C534 1.356 . S
N542 H548 0.984 . S
N542 H549 0.984 . S
N543 C536 1.356 . S
N543 H546 0.984 . S
N543 H547 0.985 . S
H544 N539 0.984 . S
H545 N539 0.985 . S
H546 N543 0.984 . S
H547 N543 0.985 . S
H548 N542 0.984 . S
H549 N542 0.984 . S
H550 N538 0.984 . S
H551 N538 0.985 . S
C552 C553 1.363 1_655 S
C552 C558 1.379 . S
C552 N560 1.356 1_655 S
C553 C552 1.363 1_455 S
C553 C559 1.363 . S
C554 C555 1.363 . S
C554 C559 1.379 1_655 S
C554 N561 1.356 . S
C555 C554 1.363 . S
C555 C558 1.363 . S
N556 C558 1.356 . S
N556 H568 0.984 . S
N556 H569 0.985 . S
N557 C559 1.356 . S
N557 H562 0.984 . S
N557 H563 0.985 . S
C558 C552 1.379 . S
C558 C555 1.363 . S
C558 N556 1.356 . S
C559 C553 1.363 . S
C559 C554 1.379 1_455 S
C559 N557 1.356 . S
N560 C552 1.356 1_455 S
N560 H566 0.984 . S
N560 H567 0.984 . S
N561 C554 1.356 . S
N561 H564 0.984 . S
N561 H565 0.985 . S
H562 N557 0.984 . S
H563 N557 0.985 . S
H564 N561 0.984 . S
H565 N561 0.985 . S
H566 N560 0.984 . S
H567 N560 0.984 . S
H568 N556 0.984 . S
H569 N556 0.985 . S
C570 C571 1.363 1_545 S
C570 C576 1.379 . S
C570 N578 1.356 1_545 S
C571 C570 1.363 1_565 S
C571 C577 1.363 . S
C572 C573 1.363 . S
C572 C577 1.379 1_545 S
C572 N579 1.356 . S
C573 C572 1.363 . S
C573 C576 1.363 . S
N574 C576 1.356 . S
N574 H586 0.984 . S
N574 H587 0.985 . S
N575 C577 1.356 . S
N575 H580 0.984 . S
N575 H581 0.985 . S
C576 C570 1.379 . S
C576 C573 1.363 . S
C576 N574 1.356 . S
C577 C571 1.363 . S
C577 C572 1.379 1_565 S
C577 N575 1.356 . S
N578 C570 1.356 1_565 S
N578 H584 0.984 1_565 S
N578 H585 0.984 . S
N579 C572 1.356 . S
N579 H582 0.984 . S
N579 H583 0.985 . S
H580 N575 0.984 . S
H581 N575 0.985 . S
H582 N579 0.984 . S
H583 N579 0.985 . S
H584 N578 0.984 1_545 S
H585 N578 0.984 . S
H586 N574 0.984 . S
H587 N574 0.985 . S
C588 C589 1.363 . S
C588 C594 1.379 . S
C588 N596 1.356 . S
C589 C588 1.363 . S
C589 C595 1.363 . S
C590 C591 1.363 . S
C590 C595 1.379 . S
C590 N597 1.356 . S
C591 C590 1.363 . S
C591 C594 1.363 . S
N592 C594 1.356 . S
N592 H604 0.984 . S
N592 H605 0.985 . S
N593 C595 1.356 . S
N593 H598 0.984 . S
N593 H599 0.985 . S
C594 C588 1.379 . S
C594 C591 1.363 . S
C594 N592 1.356 . S
C595 C589 1.363 . S
C595 C590 1.379 . S
C595 N593 1.356 . S
N596 C588 1.356 . S
N596 H602 0.984 . S
N596 H603 0.984 . S
N597 C590 1.356 . S
N597 H600 0.984 . S
N597 H601 0.985 . S
H598 N593 0.984 . S
H599 N593 0.985 . S
H600 N597 0.984 . S
H601 N597 0.985 . S
H602 N596 0.984 . S
H603 N596 0.984 . S
H604 N592 0.984 . S
H605 N592 0.985 . S
C606 C607 1.363 . S
C606 C612 1.379 . S
C606 N614 1.356 . S
C607 C606 1.363 . S
C607 C613 1.363 . S
C608 C609 1.363 . S
C608 C613 1.379 1_655 S
C608 N615 1.356 . S
C609 C608 1.363 . S
C609 C612 1.363 1_655 S
N610 C612 1.356 1_655 S
N610 H622 0.984 . S
N610 H623 0.985 . S
N611 C613 1.356 . S
N611 H616 0.984 . S
N611 H617 0.985 . S
C612 C606 1.379 . S
C612 C609 1.363 1_455 S
C612 N610 1.356 1_455 S
C613 C607 1.363 . S
C613 C608 1.379 1_455 S
C613 N611 1.356 . S
N614 C606 1.356 . S
N614 H620 0.984 . S
N614 H621 0.984 . S
N615 C608 1.356 . S
N615 H618 0.984 . S
N615 H619 0.985 . S
H616 N611 0.984 . S
H617 N611 0.985 . S
H618 N615 0.984 . S
H619 N615 0.985 . S
H620 N614 0.984 . S
H621 N614 0.984 . S
H622 N610 0.984 . S
H623 N610 0.985 . S
C624 C625 1.363 . S
C624 C630 1.379 1_565 S
C624 N632 1.356 . S
C625 C624 1.363 . S
C625 C631 1.363 . S
C626 C627 1.363 1_565 S
C626 C631 1.379 . S
C626 N633 1.356 1_565 S
C627 C626 1.363 1_545 S
C627 C630 1.363 . S
N628 C630 1.356 . S
N628 H640 0.984 . S
N628 H641 0.985 . S
N629 C631 1.356 . S
N629 H634 0.984 . S
N629 H635 0.985 . S
C630 C624 1.379 1_545 S
C630 C627 1.363 . S
C630 N628 1.356 . S
C631 C625 1.363 . S
C631 C626 1.379 . S
C631 N629 1.356 . S
N632 C624 1.356 . S
N632 H638 0.984 . S
N632 H639 0.984 . S
N633 C626 1.356 1_545 S
N633 H636 0.984 . S
N633 H637 0.985 . S
H634 N629 0.984 . S
H635 N629 0.985 . S
H636 N633 0.984 . S
H637 N633 0.985 . S
H638 N632 0.984 . S
H639 N632 0.984 . S
H640 N628 0.984 . S
H641 N628 0.985 . S
C642 C643 1.363 . S
C642 C648 1.379 . S
C642 N650 1.356 . S
C643 C642 1.363 . S
C643 C649 1.363 . S
C644 C645 1.363 . S
C644 C649 1.379 . S
C644 N651 1.356 . S
C645 C644 1.363 . S
C645 C648 1.363 . S
N646 C648 1.356 . S
N646 H658 0.984 . S
N646 H659 0.985 . S
N647 C649 1.356 . S
N647 H652 0.984 . S
N647 H653 0.985 . S
C648 C642 1.379 . S
C648 C645 1.363 . S
C648 N646 1.356 . S
C649 C643 1.363 . S
C649 C644 1.379 . S
C649 N647 1.356 . S
N650 C642 1.356 . S
N650 H656 0.984 . S
N650 H657 0.984 . S
N651 C644 1.356 . S
N651 H654 0.984 . S
N651 H655 0.985 . S
H652 N647 0.984 . S
H653 N647 0.985 . S
H654 N651 0.984 . S
H655 N651 0.985 . S
H656 N650 0.984 . S
H657 N650 0.984 . S
H658 N646 0.984 . S
H659 N646 0.985 . S
C660 C661 1.363 . S
C660 C666 1.379 . S
C660 N668 1.356 . S
C661 C660 1.363 . S
C661 C667 1.363 . S
C662 C663 1.363 . S
C662 C667 1.379 1_655 S
C662 N669 1.356 . S
C663 C662 1.363 . S
C663 C666 1.363 1_655 S
N664 C666 1.356 1_655 S
N664 H676 0.984 1_655 S
N664 H677 0.985 . S
N665 C667 1.356 . S
N665 H670 0.984 . S
N665 H671 0.985 . S
C666 C660 1.379 . S
C666 C663 1.363 1_455 S
C666 N664 1.356 1_455 S
C667 C661 1.363 . S
C667 C662 1.379 1_455 S
C667 N665 1.356 . S
N668 C660 1.356 . S
N668 H674 0.984 . S
N668 H675 0.984 . S
N669 C662 1.356 . S
N669 H672 0.984 . S
N669 H673 0.985 . S
H670 N665 0.984 . S
H671 N665 0.985 . S
H672 N669 0.984 . S
H673 N669 0.985 . S
H674 N668 0.984 . S
H675 N668 0.984 . S
H676 N664 0.984 1_455 S
H677 N664 0.985 . S
C678 C679 1.363 . S
C678 C684 1.379 1_545 S
C678 N686 1.356 . S
C679 C678 1.363 . S
C679 C685 1.363 1_545 S
C680 C681 1.363 . S
C680 C685 1.379 . S
C680 N687 1.356 . S
C681 C680 1.363 . S
C681 C684 1.363 . S
N682 C684 1.356 . S
N682 H694 0.984 . S
N682 H695 0.985 . S
N683 C685 1.356 1_545 S
N683 H688 0.984 . S
N683 H689 0.985 . S
C684 C678 1.379 1_565 S
C684 C681 1.363 . S
C684 N682 1.356 . S
C685 C679 1.363 1_565 S
C685 C680 1.379 . S
C685 N683 1.356 1_565 S
N686 C678 1.356 . S
N686 H692 0.984 . S
N686 H693 0.984 . S
N687 C680 1.356 . S
N687 H690 0.984 . S
N687 H691 0.985 . S
H688 N683 0.984 . S
H689 N683 0.985 . S
H690 N687 0.984 . S
H691 N687 0.985 . S
H692 N686 0.984 . S
H693 N686 0.984 . S
H694 N682 0.984 . S
H695 N682 0.985 . S
C696 C697 1.363 . S
C696 C702 1.379 . S
C696 N704 1.356 . S
C697 C696 1.363 . S
C697 C703 1.363 . S
C698 C699 1.363 . S
C698 C703 1.379 . S
C698 N705 1.356 . S
C699 C698 1.363 . S
C699 C702 1.363 . S
N700 C702 1.356 . S
N700 H712 0.984 . S
N700 H713 0.985 . S
N701 C703 1.356 . S
N701 H706 0.984 . S
N701 H707 0.985 . S
C702 C696 1.379 . S
C702 C699 1.363 . S
C702 N700 1.356 . S
C703 C697 1.363 . S
C703 C698 1.379 . S
C703 N701 1.356 . S
N704 C696 1.356 . S
N704 H710 0.984 . S
N704 H711 0.984 . S
N705 C698 1.356 . S
N705 H708 0.984 . S
N705 H709 0.985 . S
H706 N701 0.984 . S
H707 N701 0.985 . S
H708 N705 0.984 . S
H709 N705 0.985 . S
H710 N704 0.984 . S
H711 N704 0.984 . S
H712 N700 0.984 . S
H713 N700 0.985 . S
C714 C715 1.363 . S
C714 C720 1.379 . S
C714 N722 1.356 . S
C715 C714 1.363 . S
C715 C721 1.363 . S
C716 C717 1.363 . S
C716 C721 1.379 . S
C716 N723 1.356 . S
C717 C716 1.363 . S
C717 C720 1.363 . S
N718 C720 1.356 . S
N718 H730 0.984 . S
N718 H731 0.985 . S
N719 C721 1.356 . S
N719 H724 0.984 . S
N719 H725 0.985 . S
C720 C714 1.379 . S
C720 C717 1.363 . S
C720 N718 1.356 . S
C721 C715 1.363 . S
C721 C716 1.379 . S
C721 N719 1.356 . S
N722 C714 1.356 . S
N722 H728 0.984 . S
N722 H729 0.984 . S
N723 C716 1.356 . S
N723 H726 0.984 . S
N723 H727 0.985 . S
H724 N719 0.984 . S
H725 N719 0.985 . S
H726 N723 0.984 . S
H727 N723 0.985 . S
H728 N722 0.984 . S
H729 N722 0.984 . S
H730 N718 0.984 . S
H731 N718 0.985 . S
C732 C733 1.363 . S
C732 C738 1.379 . S
C732 N740 1.356 . S
C733 C732 1.363 . S
C733 C739 1.363 . S
C734 C735 1.363 . S
C734 C739 1.379 . S
C734 N741 1.356 . S
C735 C734 1.363 . S
C735 C738 1.363 . S
N736 C738 1.356 . S
N736 H748 0.984 . S
N736 H749 0.985 . S
N737 C739 1.356 . S
N737 H742 0.984 . S
N737 H743 0.985 . S
C738 C732 1.379 . S
C738 C735 1.363 . S
C738 N736 1.356 . S
C739 C733 1.363 . S
C739 C734 1.379 . S
C739 N737 1.356 . S
N740 C732 1.356 . S
N740 H746 0.984 . S
N740 H747 0.984 . S
N741 C734 1.356 . S
N741 H744 0.984 . S
N741 H745 0.985 . S
H742 N737 0.984 . S
H743 N737 0.985 . S
H744 N741 0.984 . S
H745 N741 0.985 . S
H746 N740 0.984 . S
H747 N740 0.984 . S
H748 N736 0.984 . S
H749 N736 0.985 . S
C750 C751 1.363 . S
C750 C756 1.379 . S
C750 N758 1.356 . S
C751 C750 1.363 . S
C751 C757 1.363 . S
C752 C753 1.363 . S
C752 C757 1.379 . S
C752 N759 1.356 . S
C753 C752 1.363 . S
C753 C756 1.363 . S
N754 C756 1.356 . S
N754 H766 0.984 . S
N754 H767 0.985 . S
N755 C757 1.356 . S
N755 H760 0.984 . S
N755 H761 0.985 . S
C756 C750 1.379 . S
C756 C753 1.363 . S
C756 N754 1.356 . S
C757 C751 1.363 . S
C757 C752 1.379 . S
C757 N755 1.356 . S
N758 C750 1.356 . S
N758 H764 0.984 . S
N758 H765 0.984 . S
N759 C752 1.356 . S
N759 H762 0.984 . S
N759 H763 0.985 . S
H760 N755 0.984 . S
H761 N755 0.985 . S
H762 N759 0.984 . S
H763 N759 0.985 . S
H764 N758 0.984 . S
H765 N758 0.984 . S
H766 N754 0.984 . S
H767 N754 0.985 . S
C768 C769 1.363 . S
C768 C774 1.379 . S
C768 N776 1.356 . S
C769 C768 1.363 . S
C769 C775 1.363 . S
C770 C771 1.363 . S
C770 C775 1.379 . S
C770 N777 1.356 . S
C771 C770 1.363 . S
C771 C774 1.363 . S
N772 C774 1.356 . S
N772 H784 0.984 . S
N772 H785 0.985 . S
N773 C775 1.356 . S
N773 H778 0.984 . S
N773 H779 0.985 . S
C774 C768 1.379 . S
C774 C771 1.363 . S
C774 N772 1.356 . S
C775 C769 1.363 . S
C775 C770 1.379 . S
C775 N773 1.356 . S
N776 C768 1.356 . S
N776 H782 0.984 . S
N776 H783 0.984 . S
N777 C770 1.356 . S
N777 H780 0.984 . S
N777 H781 0.985 . S
H778 N773 0.984 . S
H779 N773 0.985 . S
H780 N777 0.984 . S
H781 N777 0.985 . S
H782 N776 0.984 . S
H783 N776 0.984 . S
H784 N772 0.984 . S
H785 N772 0.985 . S
C786 C787 1.363 . S
C786 C792 1.379 . S
C786 N794 1.356 . S
C787 C786 1.363 . S
C787 C793 1.363 . S
C788 C789 1.363 . S
C788 C793 1.379 . S
C788 N795 1.356 . S
C789 C788 1.363 . S
C789 C792 1.363 . S
N790 C792 1.356 . S
N790 H802 0.984 . S
N790 H803 0.985 . S
N791 C793 1.356 . S
N791 H796 0.984 . S
N791 H797 0.985 . S
C792 C786 1.379 . S
C792 C789 1.363 . S
C792 N790 1.356 . S
C793 C787 1.363 . S
C793 C788 1.379 . S
C793 N791 1.356 . S
N794 C786 1.356 . S
N794 H800 0.984 . S
N794 H801 0.984 . S
N795 C788 1.356 . S
N795 H798 0.984 . S
N795 H799 0.985 . S
H796 N791 0.984 . S
H797 N791 0.985 . S
H798 N795 0.984 . S
H799 N795 0.985 . S
H800 N794 0.984 . S
H801 N794 0.984 . S
H802 N790 0.984 . S
H803 N790 0.985 . S
C804 C805 1.363 1_554 S
C804 C810 1.379 1_565 S
C804 N812 1.356 . S
C805 C804 1.363 1_556 S
C805 C811 1.363 . S
C806 C807 1.363 1_556 S
C806 C811 1.379 1_545 S
C806 N813 1.356 . S
C807 C806 1.363 1_554 S
C807 C810 1.363 . S
N808 C810 1.356 . S
N808 H820 0.984 . S
N808 H821 0.985 . S
N809 C811 1.356 . S
N809 H814 0.984 . S
N809 H815 0.985 . S
C810 C804 1.379 1_545 S
C810 C807 1.363 . S
C810 N808 1.356 . S
C811 C805 1.363 . S
C811 C806 1.379 1_565 S
C811 N809 1.356 . S
N812 C804 1.356 . S
N812 H818 0.984 . S
N812 H819 0.984 . S
N813 C806 1.356 . S
N813 H816 0.984 . S
N813 H817 0.985 . S
H814 N809 0.984 . S
H815 N809 0.985 . S
H816 N813 0.984 . S
H817 N813 0.985 . S
H818 N812 0.984 . S
H819 N812 0.984 . S
H820 N808 0.984 . S
H821 N808 0.985 . S
C822 C823 1.363 . S
C822 C828 1.379 . S
C822 N830 1.356 . S
C823 C822 1.363 . S
C823 C829 1.363 . S
C824 C825 1.363 . S
C824 C829 1.379 . S
C824 N831 1.356 . S
C825 C824 1.363 . S
C825 C828 1.363 . S
N826 C828 1.356 . S
N826 H838 0.984 . S
N826 H839 0.985 . S
N827 C829 1.356 . S
N827 H832 0.984 . S
N827 H833 0.985 . S
C828 C822 1.379 . S
C828 C825 1.363 . S
C828 N826 1.356 . S
C829 C823 1.363 . S
C829 C824 1.379 . S
C829 N827 1.356 . S
N830 C822 1.356 . S
N830 H836 0.984 . S
N830 H837 0.984 . S
N831 C824 1.356 . S
N831 H834 0.984 . S
N831 H835 0.985 . S
H832 N827 0.984 . S
H833 N827 0.985 . S
H834 N831 0.984 . S
H835 N831 0.985 . S
H836 N830 0.984 . S
H837 N830 0.984 . S
H838 N826 0.984 . S
H839 N826 0.985 . S
C840 C841 1.363 . S
C840 C846 1.379 1_455 S
C840 N848 1.356 . S
C841 C840 1.363 . S
C841 C847 1.363 1_556 S
C842 C843 1.363 . S
C842 C847 1.379 1_655 S
C842 N849 1.356 . S
C843 C842 1.363 . S
C843 C846 1.363 1_554 S
N844 C846 1.356 . S
N844 H856 0.984 . S
N844 H857 0.985 . S
N845 C847 1.356 . S
N845 H850 0.984 . S
N845 H851 0.985 . S
C846 C840 1.379 1_655 S
C846 C843 1.363 1_556 S
C846 N844 1.356 . S
C847 C841 1.363 1_554 S
C847 C842 1.379 1_455 S
C847 N845 1.356 . S
N848 C840 1.356 . S
N848 H854 0.984 . S
N848 H855 0.984 . S
N849 C842 1.356 . S
N849 H852 0.984 . S
N849 H853 0.985 . S
H850 N845 0.984 . S
H851 N845 0.985 . S
H852 N849 0.984 . S
H853 N849 0.985 . S
H854 N848 0.984 . S
H855 N848 0.984 . S
H856 N844 0.984 . S
H857 N844 0.985 . S
C858 C859 1.363 . S
C858 C864 1.379 1_545 S
C858 N866 1.356 . S
C859 C858 1.363 . S
C859 C865 1.363 . S
C860 C861 1.363 . S
C860 C865 1.379 1_565 S
C860 N867 1.356 . S
C861 C860 1.363 . S
C861 C864 1.363 . S
N862 C864 1.356 . S
N862 H874 0.984 . S
N862 H875 0.985 . S
N863 C865 1.356 . S
N863 H868 0.984 . S
N863 H869 0.985 . S
C864 C858 1.379 1_565 S
C864 C861 1.363 . S
C864 N862 1.356 . S
C865 C859 1.363 . S
C865 C860 1.379 1_545 S
C865 N863 1.356 . S
N866 C858 1.356 . S
N866 H872 0.984 . S
N866 H873 0.984 . S
N867 C860 1.356 . S
N867 H870 0.984 . S
N867 H871 0.985 . S
H868 N863 0.984 . S
H869 N863 0.985 . S
H870 N867 0.984 . S
H871 N867 0.985 . S
H872 N866 0.984 . S
H873 N866 0.984 . S
H874 N862 0.984 . S
H875 N862 0.985 . S
C876 C877 1.363 . S
C876 C882 1.379 1_554 S
C876 N884 1.356 . S
C877 C876 1.363 . S
C877 C883 1.363 . S
C878 C879 1.363 . S
C878 C883 1.379 1_556 S
C878 N885 1.356 . S
C879 C878 1.363 . S
C879 C882 1.363 . S
N880 C882 1.356 . S
N880 H892 0.984 . S
N880 H893 0.985 . S
N881 C883 1.356 . S
N881 H886 0.984 . S
N881 H887 0.985 . S
C882 C876 1.379 1_556 S
C882 C879 1.363 . S
C882 N880 1.356 . S
C883 C877 1.363 . S
C883 C878 1.379 1_554 S
C883 N881 1.356 . S
N884 C876 1.356 . S
N884 H890 0.984 . S
N884 H891 0.984 . S
N885 C878 1.356 . S
N885 H888 0.984 . S
N885 H889 0.985 . S
H886 N881 0.984 . S
H887 N881 0.985 . S
H888 N885 0.984 . S
H889 N885 0.985 . S
H890 N884 0.984 . S
H891 N884 0.984 . S
H892 N880 0.984 . S
H893 N880 0.985 . S
C894 C895 1.363 . S
C894 C900 1.379 1_455 S
C894 N902 1.356 . S
C895 C894 1.363 . S
C895 C901 1.363 . S
C896 C897 1.363 . S
C896 C901 1.379 1_655 S
C896 N903 1.356 . S
C897 C896 1.363 . S
C897 C900 1.363 . S
N898 C900 1.356 . S
N898 H910 0.984 . S
N898 H911 0.985 . S
N899 C901 1.356 . S
N899 H904 0.984 . S
N899 H905 0.985 . S
C900 C894 1.379 1_655 S
C900 C897 1.363 . S
C900 N898 1.356 . S
C901 C895 1.363 . S
C901 C896 1.379 1_455 S
C901 N899 1.356 . S
N902 C894 1.356 . S
N902 H908 0.984 . S
N902 H909 0.984 . S
N903 C896 1.356 . S
N903 H906 0.984 . S
N903 H907 0.985 . S
H904 N899 0.984 . S
H905 N899 0.985 . S
H906 N903 0.984 . S
H907 N903 0.985 . S
H908 N902 0.984 . S
H909 N902 0.984 . S
H910 N898 0.984 . S
H911 N898 0.985 . S
C912 C913 1.363 . S
C912 C918 1.379 . S
C912 N920 1.356 . S
C913 C912 1.363 . S
C913 C919 1.363 . S
C914 C915 1.363 . S
C914 C919 1.379 . S
C914 N921 1.356 . S
C915 C914 1.363 . S
C915 C918 1.363 . S
N916 C918 1.356 . S
N916 H928 0.984 . S
N916 H929 0.985 . S
N917 C919 1.356 . S
N917 H922 0.984 . S
N917 H923 0.985 . S
C918 C912 1.379 . S
C918 C915 1.363 . S
C918 N916 1.356 . S
C919 C913 1.363 . S
C919 C914 1.379 . S
C919 N917 1.356 . S
N920 C912 1.356 . S
N920 H926 0.984 . S
N920 H927 0.984 . S
N921 C914 1.356 . S
N921 H924 0.984 . S
N921 H925 0.985 . S
H922 N917 0.984 . S
H923 N917 0.985 . S
H924 N921 0.984 . S
H925 N921 0.985 . S
H926 N920 0.984 . S
H927 N920 0.984 . S
H928 N916 0.984 . S
H929 N916 0.985 . S
C930 C931 1.363 . S
C930 C936 1.379 . S
C930 N938 1.356 . S
C931 C930 1.363 . S
C931 C937 1.363 . S
C932 C933 1.363 . S
C932 C937 1.379 . S
C932 N939 1.356 . S
C933 C932 1.363 . S
C933 C936 1.363 . S
N934 C936 1.356 . S
N934 H946 0.984 . S
N934 H947 0.985 . S
N935 C937 1.356 . S
N935 H940 0.984 . S
N935 H941 0.985 . S
C936 C930 1.379 . S
C936 C933 1.363 . S
C936 N934 1.356 . S
C937 C931 1.363 . S
C937 C932 1.379 . S
C937 N935 1.356 . S
N938 C930 1.356 . S
N938 H944 0.984 . S
N938 H945 0.984 . S
N939 C932 1.356 . S
N939 H942 0.984 . S
N939 H943 0.985 . S
H940 N935 0.984 . S
H941 N935 0.985 . S
H942 N939 0.984 . S
H943 N939 0.985 . S
H944 N938 0.984 . S
H945 N938 0.984 . S
H946 N934 0.984 . S
H947 N934 0.985 . S
C948 C949 1.363 . S
C948 C954 1.379 . S
C948 N956 1.356 . S
C949 C948 1.363 . S
C949 C955 1.363 . S
C950 C951 1.363 . S
C950 C955 1.379 . S
C950 N957 1.356 . S
C951 C950 1.363 . S
C951 C954 1.363 . S
N952 C954 1.356 . S
N952 H964 0.984 . S
N952 H965 0.985 . S
N953 C955 1.356 . S
N953 H958 0.984 . S
N953 H959 0.985 . S
C954 C948 1.379 . S
C954 C951 1.363 . S
C954 N952 1.356 . S
C955 C949 1.363 . S
C955 C950 1.379 . S
C955 N953 1.356 . S
N956 C948 1.356 . S
N956 H962 0.984 . S
N956 H963 0.984 . S
N957 C950 1.356 . S
N957 H960 0.984 . S
N957 H961 0.985 . S
H958 N953 0.984 . S
H959 N953 0.985 . S
H960 N957 0.984 . S
H961 N957 0.985 . S
H962 N956 0.984 . S
H963 N956 0.984 . S
H964 N952 0.984 . S
H965 N952 0.985 . S
C966 C967 1.363 . S
C966 C972 1.379 . S
C966 N974 1.356 . S
C967 C966 1.363 . S
C967 C973 1.363 . S
C968 C969 1.363 . S
C968 C973 1.379 . S
C968 N975 1.356 . S
C969 C968 1.363 . S
C969 C972 1.363 . S
N970 C972 1.356 . S
N970 H982 0.984 . S
N970 H983 0.985 . S
N971 C973 1.356 . S
N971 H976 0.984 . S
N971 H977 0.985 . S
C972 C966 1.379 . S
C972 C969 1.363 . S
C972 N970 1.356 . S
C973 C967 1.363 . S
C973 C968 1.379 . S
C973 N971 1.356 . S
N974 C966 1.356 . S
N974 H980 0.984 . S
N974 H981 0.984 . S
N975 C968 1.356 . S
N975 H978 0.984 . S
N975 H979 0.985 . S
H976 N971 0.984 . S
H977 N971 0.985 . S
H978 N975 0.984 . S
H979 N975 0.985 . S
H980 N974 0.984 . S
H981 N974 0.984 . S
H982 N970 0.984 . S
H983 N970 0.985 . S
C984 C985 1.363 . S
C984 C990 1.379 . S
C984 N992 1.356 . S
C985 C984 1.363 . S
C985 C991 1.363 . S
C986 C987 1.363 . S
C986 C991 1.379 . S
C986 N993 1.356 . S
C987 C986 1.363 . S
C987 C990 1.363 . S
N988 C990 1.356 . S
N988 H1000 0.984 . S
N988 H1001 0.985 . S
N989 C991 1.356 . S
N989 H994 0.984 . S
N989 H995 0.985 . S
C990 C984 1.379 . S
C990 C987 1.363 . S
C990 N988 1.356 . S
C991 C985 1.363 . S
C991 C986 1.379 . S
C991 N989 1.356 . S
N992 C984 1.356 . S
N992 H998 0.984 . S
N992 H999 0.984 . S
N993 C986 1.356 . S
N993 H996 0.984 . S
N993 H997 0.985 . S
H994 N989 0.984 . S
H995 N989 0.985 . S
H996 N993 0.984 . S
H997 N993 0.985 . S
H998 N992 0.984 . S
H999 N992 0.984 . S
H1000 N988 0.984 . S
H1001 N988 0.985 . S
C1002 C1003 1.363 . S
C1002 C1008 1.379 . S
C1002 N1010 1.356 . S
C1003 C1002 1.363 . S
C1003 C1009 1.363 . S
C1004 C1005 1.363 . S
C1004 C1009 1.379 . S
C1004 N1011 1.356 . S
C1005 C1004 1.363 . S
C1005 C1008 1.363 . S
N1006 C1008 1.356 . S
N1006 H1018 0.984 . S
N1006 H1019 0.985 . S
N1007 C1009 1.356 . S
N1007 H1012 0.984 . S
N1007 H1013 0.985 . S
C1008 C1002 1.379 . S
C1008 C1005 1.363 . S
C1008 N1006 1.356 . S
C1009 C1003 1.363 . S
C1009 C1004 1.379 . S
C1009 N1007 1.356 . S
N1010 C1002 1.356 . S
N1010 H1016 0.984 . S
N1010 H1017 0.984 . S
N1011 C1004 1.356 . S
N1011 H1014 0.984 . S
N1011 H1015 0.985 . S
H1012 N1007 0.984 . S
H1013 N1007 0.985 . S
H1014 N1011 0.984 . S
H1015 N1011 0.985 . S
H1016 N1010 0.984 . S
H1017 N1010 0.984 . S
H1018 N1006 0.984 . S
H1019 N1006 0.985 . S
C1020 C1021 1.363 . S
C1020 C1026 1.379 . S
C1020 N1028 1.356 . S
C1021 C1020 1.363 . S
C1021 C1027 1.363 . S
C1022 C1023 1.363 . S
C1022 C1027 1.379 . S
C1022 N1029 1.356 . S
C1023 C1022 1.363 . S
C1023 C1026 1.363 . S
N1024 C1026 1.356 . S
N1024 H1036 0.984 . S
N1024 H1037 0.985 . S
N1025 C1027 1.356 . S
N1025 H1030 0.984 . S
N1025 H1031 0.985 . S
C1026 C1020 1.379 . S
C1026 C1023 1.363 . S
C1026 N1024 1.356 . S
C1027 C1021 1.363 . S
C1027 C1022 1.379 . S
C1027 N1025 1.356 . S
N1028 C1020 1.356 . S
N1028 H1034 0.984 . S
N1028 H1035 0.984 . S
N1029 C1022 1.356 . S
N1029 H1032 0.984 . S
N1029 H1033 0.985 . S
H1030 N1025 0.984 . S
H1031 N1025 0.985 . S
H1032 N1029 0.984 . S
H1033 N1029 0.985 . S
H1034 N1028 0.984 . S
H1035 N1028 0.984 . S
H1036 N1024 0.984 . S
H1037 N1024 0.985 . S
C1038 C1039 1.363 . S
C1038 C1044 1.379 . S
C1038 N1046 1.356 . S
C1039 C1038 1.363 . S
C1039 C1045 1.363 . S
C1040 C1041 1.363 . S
C1040 C1045 1.379 . S
C1040 N1047 1.356 . S
C1041 C1040 1.363 . S
C1041 C1044 1.363 . S
N1042 C1044 1.356 . S
N1042 H1054 0.984 . S
N1042 H1055 0.985 . S
N1043 C1045 1.356 . S
N1043 H1048 0.984 . S
N1043 H1049 0.985 . S
C1044 C1038 1.379 . S
C1044 C1041 1.363 . S
C1044 N1042 1.356 . S
C1045 C1039 1.363 . S
C1045 C1040 1.379 . S
C1045 N1043 1.356 . S
N1046 C1038 1.356 . S
N1046 H1052 0.984 . S
N1046 H1053 0.984 . S
N1047 C1040 1.356 . S
N1047 H1050 0.984 . S
N1047 H1051 0.985 . S
H1048 N1043 0.984 . S
H1049 N1043 0.985 . S
H1050 N1047 0.984 . S
H1051 N1047 0.985 . S
H1052 N1046 0.984 . S
H1053 N1046 0.984 . S
H1054 N1042 0.984 . S
H1055 N1042 0.985 . S
C1056 C1057 1.363 . S
C1056 C1062 1.379 . S
C1056 N1064 1.356 . S
C1057 C1056 1.363 . S
C1057 C1063 1.363 . S
C1058 C1059 1.363 . S
C1058 C1063 1.379 . S
C1058 N1065 1.356 . S
C1059 C1058 1.363 . S
C1059 C1062 1.363 . S
N1060 C1062 1.356 . S
N1060 H1072 0.984 . S
N1060 H1073 0.985 . S
N1061 C1063 1.356 . S
N1061 H1066 0.984 . S
N1061 H1067 0.985 . S
C1062 C1056 1.379 . S
C1062 C1059 1.363 . S
C1062 N1060 1.356 . S
C1063 C1057 1.363 . S
C1063 C1058 1.379 . S
C1063 N1061 1.356 . S
N1064 C1056 1.356 . S
N1064 H1070 0.984 . S
N1064 H1071 0.984 . S
N1065 C1058 1.356 . S
N1065 H1068 0.984 . S
N1065 H1069 0.985 . S
H1066 N1061 0.984 . S
H1067 N1061 0.985 . S
H1068 N1065 0.984 . S
H1069 N1065 0.985 . S
H1070 N1064 0.984 . S
H1071 N1064 0.984 . S
H1072 N1060 0.984 . S
H1073 N1060 0.985 . S
C1074 C1075 1.363 . S
C1074 C1080 1.379 . S
C1074 N1082 1.356 . S
C1075 C1074 1.363 . S
C1075 C1081 1.363 . S
C1076 C1077 1.363 . S
C1076 C1081 1.379 . S
C1076 N1083 1.356 . S
C1077 C1076 1.363 . S
C1077 C1080 1.363 . S
N1078 C1080 1.356 . S
N1078 H1090 0.984 . S
N1078 H1091 0.985 . S
N1079 C1081 1.356 . S
N1079 H1084 0.984 . S
N1079 H1085 0.985 . S
C1080 C1074 1.379 . S
C1080 C1077 1.363 . S
C1080 N1078 1.356 . S
C1081 C1075 1.363 . S
C1081 C1076 1.379 . S
C1081 N1079 1.356 . S
N1082 C1074 1.356 . S
N1082 H1088 0.984 . S
N1082 H1089 0.984 . S
N1083 C1076 1.356 . S
N1083 H1086 0.984 . S
N1083 H1087 0.985 . S
H1084 N1079 0.984 . S
H1085 N1079 0.985 . S
H1086 N1083 0.984 . S
H1087 N1083 0.985 . S
H1088 N1082 0.984 . S
H1089 N1082 0.984 . S
H1090 N1078 0.984 . S
H1091 N1078 0.985 . S
C1092 C1093 1.363 . S
C1092 C1098 1.379 . S
C1092 N1100 1.356 . S
C1093 C1092 1.363 . S
C1093 C1099 1.363 . S
C1094 C1095 1.363 . S
C1094 C1099 1.379 . S
C1094 N1101 1.356 . S
C1095 C1094 1.363 . S
C1095 C1098 1.363 . S
N1096 C1098 1.356 . S
N1096 H1108 0.984 . S
N1096 H1109 0.985 . S
N1097 C1099 1.356 . S
N1097 H1102 0.984 . S
N1097 H1103 0.985 . S
C1098 C1092 1.379 . S
C1098 C1095 1.363 . S
C1098 N1096 1.356 . S
C1099 C1093 1.363 . S
C1099 C1094 1.379 . S
C1099 N1097 1.356 . S
N1100 C1092 1.356 . S
N1100 H1106 0.984 . S
N1100 H1107 0.984 . S
N1101 C1094 1.356 . S
N1101 H1104 0.984 . S
N1101 H1105 0.985 . S
H1102 N1097 0.984 . S
H1103 N1097 0.985 . S
H1104 N1101 0.984 . S
H1105 N1101 0.985 . S
H1106 N1100 0.984 . S
H1107 N1100 0.984 . S
H1108 N1096 0.984 . S
H1109 N1096 0.985 . S
C1110 C1111 1.363 . S
C1110 C1116 1.379 . S
C1110 N1118 1.356 . S
C1111 C1110 1.363 . S
C1111 C1117 1.363 . S
C1112 C1113 1.363 . S
C1112 C1117 1.379 . S
C1112 N1119 1.356 . S
C1113 C1112 1.363 . S
C1113 C1116 1.363 . S
N1114 C1116 1.356 . S
N1114 H1126 0.984 . S
N1114 H1127 0.985 . S
N1115 C1117 1.356 . S
N1115 H1120 0.984 . S
N1115 H1121 0.985 . S
C1116 C1110 1.379 . S
C1116 C1113 1.363 . S
C1116 N1114 1.356 . S
C1117 C1111 1.363 . S
C1117 C1112 1.379 . S
C1117 N1115 1.356 . S
N1118 C1110 1.356 . S
N1118 H1124 0.984 . S
N1118 H1125 0.984 . S
N1119 C1112 1.356 . S
N1119 H1122 0.984 . S
N1119 H1123 0.985 . S
H1120 N1115 0.984 . S
H1121 N1115 0.985 . S
H1122 N1119 0.984 . S
H1123 N1119 0.985 . S
H1124 N1118 0.984 . S
H1125 N1118 0.984 . S
H1126 N1114 0.984 . S
H1127 N1114 0.985 . S
C481 C96 1.424 . S
C483 C11 1.383 . S
C499 C127 1.423 . S
C501 C42 1.382 . S
C517 C91 1.383 . S
C519 C176 1.424 . S
C535 C122 1.383 . S
C537 C207 1.424 . S
C553 C16 1.423 . S
C555 C171 1.382 . S
C571 C47 1.424 . S
C573 C202 1.382 . S
C589 C407 1.424 . S
C591 C242 1.383 . S
C607 C291 1.383 . S
C609 C456 1.424 . S
C625 C322 1.382 . S
C627 C247 1.423 . S
C643 C371 1.383 . S
C645 C296 1.424 . S
C661 C402 1.382 . S
C663 C327 1.424 . S
C679 C376 1.423 . S
C681 C451 1.382 . S
C697 C130 1.702 . S
C699 C19 1.702 . S
C715 C50 1.702 . S
C717 C179 1.702 . S
C733 C99 1.702 . S
C735 C210 1.702 . S
C751 C250 1.702 . S
C753 C379 1.702 . S
C769 C299 1.702 . S
C771 C410 1.702 . S
C787 C330 1.702 . S
C789 C459 1.702 . S
C805 C290 2.549 . S
C807 C10 2.549 . S
C823 C59 2.549 . S
C825 C339 2.549 . S
C841 C370 2.549 . S
C843 C90 2.549 . S
C859 C139 2.549 . S
C861 C419 2.549 . S
C877 C170 2.549 . S
C879 C450 2.549 . S
C895 C259 2.549 . S
C897 C219 2.549 . S
C913 C87 1.785 . S
C915 C2 1.830 . S
C931 C51 1.830 . S
C933 C136 1.785 . S
C949 C82 1.830 . S
C951 C167 1.785 . S
C967 C131 1.830 . S
C969 C216 1.785 . S
C985 C7 1.785 . S
C987 C162 1.830 . S
C1003 C56 1.785 . S
C1005 C211 1.830 . S
C1021 C416 1.785 . S
C1023 C251 1.830 . S
C1039 C282 1.830 . S
C1041 C447 1.785 . S
C1057 C331 1.830 . S
C1059 C256 1.785 . S
C1075 C287 1.785 . S
C1077 C362 1.830 . S
C1093 C411 1.830 . S
C1095 C336 1.785 . S
C1111 C442 1.830 . S
C1113 C367 1.785 . S
