# Generated by pormake.
# Topology uop, (4)-cn, num edge types: 1
# Building blocks:
#     Node 0, Type 0, BuildingBlock: NAWXER_clean_sbu_0, # of connection points: 4
#     Node 1, Type 0, BuildingBlock: NAWXER_clean_sbu_0, # of connection points: 4
#     Node 2, Type 0, BuildingBlock: NAWXER_clean_sbu_0, # of connection points: 4
#     Node 3, Type 0, BuildingBlock: NAWXER_clean_sbu_0, # of connection points: 4
#     Node 4, Type 0, BuildingBlock: NAWXER_clean_sbu_0, # of connection points: 4
#     Node 5, Type 0, BuildingBlock: NAWXER_clean_sbu_0, # of connection points: 4
#     Node 6, Type 0, BuildingBlock: NAWXER_clean_sbu_0, # of connection points: 4
#     Node 7, Type 0, BuildingBlock: NAWXER_clean_sbu_0, # of connection points: 4
#     Node 8, Type 0, BuildingBlock: NAWXER_clean_sbu_0, # of connection points: 4
#     Node 9, Type 0, BuildingBlock: NAWXER_clean_sbu_0, # of connection points: 4
#     Node 10, Type 0, BuildingBlock: NAWXER_clean_sbu_0, # of connection points: 4
#     Node 11, Type 0, BuildingBlock: NAWXER_clean_sbu_0, # of connection points: 4
#     Edge 12, Type (0, 0), BuildingBlock: UVAHIK_clean_linker_0, # of connection points: 2
#     Edge 13, Type (0, 0), BuildingBlock: UVAHIK_clean_linker_0, # of connection points: 2
#     Edge 14, Type (0, 0), BuildingBlock: UVAHIK_clean_linker_0, # of connection points: 2
#     Edge 15, Type (0, 0), BuildingBlock: UVAHIK_clean_linker_0, # of connection points: 2
#     Edge 16, Type (0, 0), BuildingBlock: UVAHIK_clean_linker_0, # of connection points: 2
#     Edge 17, Type (0, 0), BuildingBlock: UVAHIK_clean_linker_0, # of connection points: 2
#     Edge 18, Type (0, 0), BuildingBlock: UVAHIK_clean_linker_0, # of connection points: 2
#     Edge 19, Type (0, 0), BuildingBlock: UVAHIK_clean_linker_0, # of connection points: 2
#     Edge 20, Type (0, 0), BuildingBlock: UVAHIK_clean_linker_0, # of connection points: 2
#     Edge 21, Type (0, 0), BuildingBlock: UVAHIK_clean_linker_0, # of connection points: 2
#     Edge 22, Type (0, 0), BuildingBlock: UVAHIK_clean_linker_0, # of connection points: 2
#     Edge 23, Type (0, 0), BuildingBlock: UVAHIK_clean_linker_0, # of connection points: 2
#     Edge 24, Type (0, 0), BuildingBlock: UVAHIK_clean_linker_0, # of connection points: 2
#     Edge 25, Type (0, 0), BuildingBlock: UVAHIK_clean_linker_0, # of connection points: 2
#     Edge 26, Type (0, 0), BuildingBlock: UVAHIK_clean_linker_0, # of connection points: 2
#     Edge 27, Type (0, 0), BuildingBlock: UVAHIK_clean_linker_0, # of connection points: 2
#     Edge 28, Type (0, 0), BuildingBlock: UVAHIK_clean_linker_0, # of connection points: 2
#     Edge 29, Type (0, 0), BuildingBlock: UVAHIK_clean_linker_0, # of connection points: 2
#     Edge 30, Type (0, 0), BuildingBlock: UVAHIK_clean_linker_0, # of connection points: 2
#     Edge 31, Type (0, 0), BuildingBlock: UVAHIK_clean_linker_0, # of connection points: 2
#     Edge 32, Type (0, 0), BuildingBlock: UVAHIK_clean_linker_0, # of connection points: 2
#     Edge 33, Type (0, 0), BuildingBlock: UVAHIK_clean_linker_0, # of connection points: 2
#     Edge 34, Type (0, 0), BuildingBlock: UVAHIK_clean_linker_0, # of connection points: 2
#     Edge 35, Type (0, 0), BuildingBlock: UVAHIK_clean_linker_0, # of connection points: 2
# Relax obj value: 0.102
# Max RMSD: 0.272
# Mean RMSD: 0.272
data_MOF--net-uop--node1-NAWXER_clean_sbu_0--edge1-UVAHIK_clean_linker_0
_symmetry_space_group_name_H-M    P1
_symmetry_Int_Tables_number       1
_symmetry_cell_setting            triclinic
loop_
_symmetry_equiv_pos_as_xyz
'x, y, z'
_cell_length_a     43.693006
_cell_length_b     43.692073
_cell_length_c     60.051581
_cell_angle_alpha  90.010151
_cell_angle_beta   90.012571
_cell_angle_gamma 119.99197
loop_
_atom_site_label
_atom_site_type_symbol
_atom_site_fract_x
_atom_site_fract_y
_atom_site_fract_z
_atom_type_partial_charge
C0 C 0.23634 0.36612 0.24907 0.0
C1 C 0.24042 0.4636 0.20823 0.0
O2 O 0.24116 0.36373 0.22819 0.0
Zn3 Zn 0.24377 0.39296 0.19835 0.0
O4 O 0.23221 0.39114 0.25621 0.0
Zn5 Zn 0.23756 0.41393 0.22822 0.0
O6 O 0.18898 0.37779 0.21175 0.0
O7 O 0.20344 0.36032 0.18107 0.0
O8 O 0.23655 0.45716 0.22895 0.0
O9 O 0.24338 0.44205 0.19508 0.0
O10 O 0.28921 0.40488 0.18685 0.0
O11 O 0.29185 0.43087 0.21888 0.0
C12 C 0.17984 0.35928 0.19386 0.0
C13 C 0.30748 0.42516 0.20262 0.0
C14 C 0.81795 0.18241 0.52624 0.0
C15 C 0.87989 0.30953 0.53675 0.0
O16 O 0.80777 0.19088 0.54408 0.0
Zn17 Zn 0.81971 0.23922 0.56097 0.0
O18 O 0.84113 0.20648 0.51399 0.0
Zn19 Zn 0.84798 0.24596 0.53167 0.0
O20 O 0.87286 0.2415 0.56208 0.0
O21 O 0.83531 0.23298 0.58922 0.0
O22 O 0.88181 0.29166 0.52071 0.0
O23 O 0.85823 0.2936 0.55279 0.0
O24 O 0.77573 0.23868 0.561 0.0
O25 O 0.79863 0.24559 0.52745 0.0
C26 C 0.86452 0.23638 0.58283 0.0
C27 C 0.77375 0.24262 0.54024 0.0
C28 C 0.62445 0.86508 0.91737 0.0
C29 C 0.52712 0.77338 0.87544 0.0
O30 O 0.62734 0.87301 0.89656 0.0
Zn31 Zn 0.59768 0.84763 0.86637 0.0
O32 O 0.59876 0.83599 0.92402 0.0
Zn33 Zn 0.57656 0.8198 0.8959 0.0
O34 O 0.61298 0.80785 0.87908 0.0
O35 O 0.63027 0.84061 0.84872 0.0
O36 O 0.53321 0.77568 0.89619 0.0
O37 O 0.54884 0.79813 0.86251 0.0
O38 O 0.58549 0.88123 0.85529 0.0
O39 O 0.56045 0.85806 0.88755 0.0
C40 C 0.63145 0.81777 0.86117 0.0
C41 C 0.5659 0.87948 0.87141 0.0
C42 C 0.75687 0.62465 0.25395 0.0
C43 C 0.74948 0.52867 0.20963 0.0
O44 O 0.75435 0.62997 0.23316 0.0
Zn45 Zn 0.74953 0.60172 0.20233 0.0
O46 O 0.75728 0.59706 0.26 0.0
Zn47 Zn 0.75316 0.57729 0.23121 0.0
O48 O 0.80323 0.6135 0.21568 0.0
O49 O 0.79033 0.63405 0.18572 0.0
O50 O 0.75226 0.53325 0.23054 0.0
O51 O 0.74813 0.55186 0.19717 0.0
O52 O 0.70494 0.59297 0.19084 0.0
O53 O 0.69991 0.56316 0.22153 0.0
C54 C 0.81324 0.63313 0.19824 0.0
C55 C 0.68554 0.57137 0.20573 0.0
C56 C 0.1261 0.75782 0.58508 0.0
C57 C 0.2201 0.75321 0.54509 0.0
O58 O 0.11971 0.75375 0.56406 0.0
Zn59 Zn 0.14654 0.75014 0.53452 0.0
O60 O 0.15466 0.76078 0.59251 0.0
Zn61 Zn 0.1728 0.75595 0.56471 0.0
O62 O 0.18567 0.80484 0.54817 0.0
O63 O 0.15459 0.79023 0.51711 0.0
O64 O 0.21696 0.75658 0.5658 0.0
O65 O 0.19598 0.75062 0.53174 0.0
O66 O 0.1134 0.70468 0.52276 0.0
O67 O 0.13499 0.70194 0.55544 0.0
C68 C 0.17673 0.8139 0.53006 0.0
C69 C 0.11434 0.68641 0.53889 0.0
C70 C 0.36443 0.12713 0.91828 0.0
C71 C 0.46363 0.22061 0.87845 0.0
O72 O 0.36221 0.12059 0.89728 0.0
Zn73 Zn 0.39301 0.1472 0.86778 0.0
O74 O 0.39007 0.15567 0.92568 0.0
Zn75 Zn 0.41328 0.17353 0.89793 0.0
O76 O 0.37768 0.18672 0.88105 0.0
O77 O 0.36137 0.15541 0.85007 0.0
O78 O 0.45693 0.21751 0.89914 0.0
O79 O 0.44216 0.19652 0.86507 0.0
O80 O 0.40519 0.11385 0.85623 0.0
O81 O 0.42932 0.13543 0.88895 0.0
C82 C 0.35992 0.17778 0.86283 0.0
C83 C 0.42422 0.11471 0.87245 0.0
C84 C 0.52564 0.75163 0.45664 0.0
C85 C 0.62194 0.75684 0.41371 0.0
O86 O 0.54834 0.75001 0.46941 0.0
Zn87 Zn 0.59756 0.75027 0.46512 0.0
O88 O 0.53065 0.75412 0.43577 0.0
Zn89 Zn 0.57449 0.75427 0.43563 0.0
O90 O 0.56001 0.70099 0.44526 0.0
O91 O 0.58709 0.70535 0.47709 0.0
O92 O 0.59491 0.75797 0.40716 0.0
O93 O 0.62647 0.75418 0.43463 0.0
O94 O 0.63015 0.79107 0.48172 0.0
O95 O 0.61139 0.80414 0.45099 0.0
C96 C 0.56682 0.68631 0.46155 0.0
C97 C 0.63055 0.81407 0.46864 0.0
C98 C 0.86185 0.62367 0.74826 0.0
C99 C 0.77073 0.52693 0.79085 0.0
O100 O 0.86966 0.62728 0.7691 0.0
Zn101 Zn 0.8444 0.59833 0.79953 0.0
O102 O 0.83301 0.59749 0.7417 0.0
Zn103 Zn 0.81687 0.57609 0.77002 0.0
O104 O 0.80439 0.61273 0.78598 0.0
O105 O 0.83669 0.63112 0.81651 0.0
O106 O 0.77304 0.53241 0.77003 0.0
O107 O 0.79528 0.54924 0.80367 0.0
O108 O 0.87843 0.5871 0.81114 0.0
O109 O 0.85564 0.56103 0.77904 0.0
C110 C 0.81395 0.63175 0.80367 0.0
C111 C 0.87707 0.56721 0.7953 0.0
C112 C 0.24283 0.77238 0.12218 0.0
C113 C 0.23436 0.86329 0.08126 0.0
O114 O 0.24519 0.79659 0.13536 0.0
Zn115 Zn 0.24448 0.84551 0.13203 0.0
O116 O 0.23897 0.77499 0.10147 0.0
Zn117 Zn 0.23842 0.81844 0.10227 0.0
O118 O 0.29247 0.85762 0.11068 0.0
O119 O 0.28992 0.87971 0.14322 0.0
O120 O 0.23167 0.8346 0.07437 0.0
O121 O 0.23934 0.87096 0.10211 0.0
O122 O 0.20462 0.83712 0.14989 0.0
O123 O 0.18975 0.80488 0.11931 0.0
C124 C 0.30806 0.87887 0.12697 0.0
C125 C 0.18087 0.81407 0.13739 0.0
C126 C 0.46506 0.24198 0.45577 0.0
C127 C 0.36555 0.23863 0.41792 0.0
O128 O 0.44438 0.24513 0.46957 0.0
Zn129 Zn 0.39572 0.24633 0.46789 0.0
O130 O 0.45753 0.2383 0.43519 0.0
Zn131 Zn 0.41439 0.23958 0.43721 0.0
O132 O 0.43169 0.29399 0.44643 0.0
O133 O 0.40944 0.29203 0.47976 0.0
O134 O 0.38979 0.23393 0.40995 0.0
O135 O 0.36467 0.24389 0.4389 0.0
O136 O 0.3638 0.20629 0.48561 0.0
O137 O 0.37884 0.19131 0.45414 0.0
C138 C 0.4278 0.30992 0.46325 0.0
C139 C 0.36149 0.18246 0.47248 0.0
C140 C 0.12584 0.3682 0.74815 0.0
C141 C 0.21974 0.46653 0.78835 0.0
O142 O 0.11939 0.36562 0.76916 0.0
Zn143 Zn 0.14624 0.39592 0.79882 0.0
O144 O 0.15435 0.39396 0.74083 0.0
Zn145 Zn 0.17239 0.41665 0.76867 0.0
O146 O 0.18546 0.38062 0.78501 0.0
O147 O 0.1545 0.36386 0.81611 0.0
O148 O 0.21644 0.46021 0.76761 0.0
O149 O 0.19571 0.44488 0.80169 0.0
O150 O 0.11305 0.40811 0.81074 0.0
O151 O 0.1345 0.43266 0.7781 0.0
C152 C 0.17667 0.36253 0.80309 0.0
C153 C 0.1139 0.4274 0.79468 0.0
C154 C 0.75131 0.22395 0.11994 0.0
C155 C 0.75599 0.12982 0.08015 0.0
O156 O 0.74849 0.19977 0.13331 0.0
Zn157 Zn 0.74781 0.15024 0.13063 0.0
O158 O 0.75486 0.2208 0.09925 0.0
Zn159 Zn 0.75402 0.17654 0.10043 0.0
O160 O 0.69984 0.13882 0.10945 0.0
O161 O 0.70218 0.11717 0.1422 0.0
O162 O 0.75903 0.1584 0.07269 0.0
O163 O 0.7517 0.12341 0.10116 0.0
O164 O 0.78763 0.1581 0.14827 0.0
O165 O 0.80273 0.18913 0.11719 0.0
C166 C 0.6841 0.11817 0.12596 0.0
C167 C 0.81151 0.18012 0.13539 0.0
C168 C 0.24371 0.71608 0.11646 0.0
C169 C 0.24404 0.74142 0.13103 0.0
C170 C 0.24414 0.68645 0.12478 0.0
C171 C 0.2654 0.65193 0.17514 0.0
H172 H 0.20595 0.56101 0.14709 0.0
C173 C 0.2406 0.52051 0.21381 0.0
C174 C 0.24145 0.49566 0.19932 0.0
C175 C 0.24152 0.55076 0.20541 0.0
C176 C 0.22297 0.58628 0.15495 0.0
H177 H 0.24516 0.75555 0.16578 0.0
H178 H 0.24537 0.70356 0.18029 0.0
H179 H 0.20643 0.61339 0.13266 0.0
H180 H 0.24397 0.48315 0.16463 0.0
H181 H 0.24561 0.53604 0.15 0.0
H182 H 0.28165 0.62465 0.19756 0.0
C183 C 0.24533 0.70687 0.16242 0.0
C184 C 0.22329 0.61631 0.14667 0.0
C185 C 0.24502 0.73659 0.1541 0.0
C186 C 0.24323 0.50174 0.17624 0.0
C187 C 0.24398 0.53193 0.16785 0.0
C188 C 0.26498 0.62187 0.18346 0.0
C189 C 0.24477 0.68139 0.14785 0.0
C190 C 0.24452 0.6495 0.15666 0.0
C191 C 0.24315 0.55676 0.18235 0.0
C192 C 0.24377 0.58873 0.17344 0.0
H193 H 0.24314 0.71908 0.09859 0.0
H194 H 0.24426 0.66763 0.11309 0.0
H195 H 0.28246 0.67718 0.183 0.0
H196 H 0.2392 0.51661 0.23167 0.0
H197 H 0.24044 0.56922 0.21698 0.0
C198 C 0.73886 0.24495 0.50776 0.0
C199 C 0.74291 0.24359 0.53091 0.0
C200 C 0.70949 0.24554 0.49904 0.0
C201 C 0.64057 0.26695 0.51392 0.0
H202 H 0.58955 0.20657 0.46399 0.0
C203 C 0.50438 0.24419 0.48679 0.0
C204 C 0.49738 0.24267 0.46386 0.0
C205 C 0.53489 0.24489 0.49448 0.0
C206 C 0.60377 0.22394 0.47774 0.0
H207 H 0.71933 0.24187 0.56303 0.0
H208 H 0.66818 0.24286 0.5478 0.0
H209 H 0.64216 0.20712 0.47816 0.0
H210 H 0.51702 0.24083 0.43099 0.0
H211 H 0.57054 0.24259 0.44441 0.0
H212 H 0.60236 0.28389 0.51352 0.0
C213 C 0.68784 0.24375 0.53641 0.0
C214 C 0.63388 0.22422 0.48587 0.0
C215 C 0.71706 0.24298 0.54512 0.0
C216 C 0.52157 0.24187 0.44877 0.0
C217 C 0.55216 0.24269 0.45647 0.0
C218 C 0.61057 0.26678 0.50576 0.0
C219 C 0.68371 0.245 0.51329 0.0
C220 C 0.65244 0.24554 0.50415 0.0
C221 C 0.55918 0.24424 0.47942 0.0
C222 C 0.59166 0.24508 0.48768 0.0
H223 H 0.75831 0.24546 0.49636 0.0
H224 H 0.70715 0.24681 0.48115 0.0
H225 H 0.65467 0.28408 0.52781 0.0
H226 H 0.48621 0.24465 0.49887 0.0
H227 H 0.53919 0.2455 0.51228 0.0
C228 C 0.48978 0.73811 0.84314 0.0
C229 C 0.4954 0.74228 0.86625 0.0
C230 C 0.46001 0.70846 0.83451 0.0
C231 C 0.39172 0.61724 0.84923 0.0
H232 H 0.34116 0.62712 0.79921 0.0
C233 C 0.25619 0.50416 0.82017 0.0
C234 C 0.25114 0.49841 0.7971 0.0
C235 C 0.28605 0.53404 0.82846 0.0
C236 C 0.35522 0.62391 0.81305 0.0
H237 H 0.47395 0.71876 0.89844 0.0
H238 H 0.42185 0.66742 0.88342 0.0
H239 H 0.39319 0.67916 0.81396 0.0
H240 H 0.27345 0.51966 0.76463 0.0
H241 H 0.3256 0.57178 0.77914 0.0
H242 H 0.35358 0.56202 0.8484 0.0
C243 C 0.44073 0.68671 0.87193 0.0
C244 C 0.38504 0.65369 0.82148 0.0
C245 C 0.47052 0.71628 0.88055 0.0
C246 C 0.27652 0.52331 0.7825 0.0
C247 C 0.30631 0.55327 0.79079 0.0
C248 C 0.36184 0.5875 0.84085 0.0
C249 C 0.43517 0.68238 0.84881 0.0
C250 C 0.40362 0.65071 0.83969 0.0
C251 C 0.31144 0.5589 0.81386 0.0
C252 C 0.34324 0.59051 0.82269 0.0
H253 H 0.50851 0.75759 0.83167 0.0
H254 H 0.45675 0.70571 0.81661 0.0
H255 H 0.40577 0.61391 0.86301 0.0
H256 H 0.23713 0.48553 0.83188 0.0
H257 H 0.28908 0.53787 0.84632 0.0
C258 C 0.74849 0.49305 0.17657 0.0
C259 C 0.74846 0.49714 0.19979 0.0
C260 C 0.74856 0.46365 0.16742 0.0
C261 C 0.77031 0.39436 0.18156 0.0
H262 H 0.71302 0.34637 0.12989 0.0
C263 C 0.74872 0.25975 0.15167 0.0
C264 C 0.75063 0.25529 0.12863 0.0
C265 C 0.74846 0.28949 0.15993 0.0
C266 C 0.72943 0.35973 0.14419 0.0
H267 H 0.7478 0.4732 0.23159 0.0
H268 H 0.74739 0.42184 0.21566 0.0
H269 H 0.71233 0.39788 0.14505 0.0
H270 H 0.75357 0.27851 0.09619 0.0
H271 H 0.75322 0.33051 0.11068 0.0
H272 H 0.78723 0.35612 0.1808 0.0
C273 C 0.74804 0.44164 0.2045 0.0
C274 C 0.72907 0.38925 0.15286 0.0
C275 C 0.74805 0.47101 0.21363 0.0
C276 C 0.75206 0.28113 0.11403 0.0
C277 C 0.75166 0.31083 0.12231 0.0
C278 C 0.77059 0.36484 0.17294 0.0
C279 C 0.74855 0.43772 0.1813 0.0
C280 C 0.74937 0.40679 0.17172 0.0
C281 C 0.74999 0.31539 0.14535 0.0
C282 C 0.75004 0.3471 0.15423 0.0
H283 H 0.74889 0.51276 0.16545 0.0
H284 H 0.7493 0.46158 0.14948 0.0
H285 H 0.78679 0.40767 0.19584 0.0
H286 H 0.7475 0.24032 0.16337 0.0
H287 H 0.7467 0.29204 0.17776 0.0
C288 C 0.46827 0.75079 0.45205 0.0
C289 C 0.49401 0.75085 0.46613 0.0
C290 C 0.4385 0.75028 0.46095 0.0
C291 C 0.40563 0.77144 0.51166 0.0
H292 H 0.31355 0.711 0.4853 0.0
C293 C 0.27698 0.75336 0.55094 0.0
C294 C 0.25133 0.75237 0.53636 0.0
C295 C 0.30648 0.75261 0.54266 0.0
C296 C 0.33913 0.72832 0.4927 0.0
H297 H 0.50863 0.75039 0.50061 0.0
H298 H 0.45652 0.74941 0.51613 0.0
H299 H 0.36525 0.71068 0.47034 0.0
H300 H 0.23667 0.75 0.50161 0.0
H301 H 0.28833 0.74919 0.48717 0.0
H302 H 0.3796 0.78934 0.53389 0.0
C303 C 0.45957 0.75002 0.4982 0.0
C304 C 0.36873 0.7281 0.48415 0.0
C305 C 0.48931 0.75039 0.48931 0.0
C306 C 0.25585 0.75064 0.51331 0.0
C307 C 0.28538 0.74997 0.50503 0.0
C308 C 0.37604 0.77175 0.52019 0.0
C309 C 0.43384 0.74994 0.48411 0.0
C310 C 0.40232 0.74972 0.49349 0.0
C311 C 0.31103 0.75092 0.5196 0.0
C312 C 0.34245 0.75026 0.51076 0.0
H313 H 0.4711 0.7512 0.43412 0.0
H314 H 0.41935 0.75067 0.44966 0.0
H315 H 0.43125 0.78876 0.51902 0.0
H316 H 0.27424 0.75457 0.5688 0.0
H317 H 0.3255 0.75291 0.55435 0.0
C318 C 0.52048 0.27728 0.88446 0.0
C319 C 0.49581 0.2518 0.8698 0.0
C320 C 0.55077 0.30681 0.87626 0.0
C321 C 0.60767 0.33998 0.8263 0.0
H322 H 0.63942 0.43178 0.85313 0.0
C323 C 0.71413 0.46969 0.7861 0.0
C324 C 0.73991 0.4952 0.80024 0.0
C325 C 0.68491 0.4398 0.79491 0.0
C326 C 0.6311 0.40626 0.84562 0.0
H327 H 0.48354 0.23744 0.83501 0.0
H328 H 0.53607 0.28918 0.82071 0.0
H329 H 0.58722 0.37997 0.86785 0.0
H330 H 0.75519 0.50927 0.83476 0.0
H331 H 0.70412 0.45697 0.85013 0.0
H332 H 0.65138 0.36639 0.80393 0.0
C333 C 0.53233 0.28606 0.83857 0.0
C334 C 0.60122 0.37656 0.85406 0.0
C335 C 0.50209 0.25649 0.84677 0.0
C336 C 0.7358 0.49014 0.82341 0.0
C337 C 0.70646 0.46029 0.83222 0.0
C338 C 0.63747 0.36969 0.81782 0.0
C339 C 0.55703 0.31157 0.85321 0.0
C340 C 0.58909 0.34309 0.84445 0.0
C341 C 0.68072 0.43479 0.81806 0.0
C342 C 0.64945 0.40316 0.82735 0.0
H343 H 0.51651 0.27439 0.90231 0.0
H344 H 0.5695 0.32571 0.888 0.0
H345 H 0.59941 0.3145 0.81875 0.0
H346 H 0.71645 0.4728 0.76818 0.0
H347 H 0.6653 0.42084 0.78358 0.0
C348 C 0.6313 0.5686 0.18959 0.0
C349 C 0.64673 0.55629 0.20511 0.0
C350 C 0.59476 0.5549 0.18927 0.0
C351 C 0.51441 0.50561 0.224 0.0
H352 H 0.46611 0.49073 0.16746 0.0
C353 C 0.36719 0.46626 0.21884 0.0
C354 C 0.34644 0.44139 0.20253 0.0
C355 C 0.4039 0.48094 0.21901 0.0
C356 C 0.4791 0.49443 0.1834 0.0
H357 H 0.63577 0.5196 0.23234 0.0
H358 H 0.57197 0.49514 0.23147 0.0
H359 H 0.52959 0.51369 0.16803 0.0
H360 H 0.34803 0.41239 0.17364 0.0
H361 H 0.41182 0.4374 0.17421 0.0
H362 H 0.46374 0.48526 0.23934 0.0
C363 C 0.58817 0.51592 0.21982 0.0
C364 C 0.51564 0.50806 0.18373 0.0
C365 C 0.62475 0.52979 0.22022 0.0
C366 C 0.36323 0.43164 0.18636 0.0
C367 C 0.39989 0.44615 0.18662 0.0
C368 C 0.47784 0.49181 0.22366 0.0
C369 C 0.57271 0.52838 0.20438 0.0
C370 C 0.53377 0.51382 0.20404 0.0
C371 C 0.4207 0.47094 0.20296 0.0
C372 C 0.45971 0.48602 0.20335 0.0
H373 H 0.64748 0.58916 0.1778 0.0
H374 H 0.58386 0.56552 0.17738 0.0
H375 H 0.52754 0.51011 0.23996 0.0
H376 H 0.3551 0.47447 0.23148 0.0
H377 H 0.41912 0.50036 0.23164 0.0
C378 C 0.07628 0.62944 0.51888 0.0
C379 C 0.0912 0.64759 0.53886 0.0
C380 C 0.05392 0.59281 0.5189 0.0
C381 C 0.99228 0.51968 0.55355 0.0
H382 H 0.00907 0.46077 0.51283 0.0
C383 C 0.91005 0.36718 0.55721 0.0
C384 C 0.90303 0.34834 0.53713 0.0
C385 C 0.93309 0.40371 0.55767 0.0
C386 C 0.00355 0.47679 0.52406 0.0
H387 H 0.0942 0.64168 0.57452 0.0
H388 H 0.05441 0.57763 0.57456 0.0
H389 H 0.049 0.52448 0.51294 0.0
H390 H 0.9138 0.35307 0.50169 0.0
H391 H 0.95269 0.41681 0.50226 0.0
H392 H 0.94624 0.47245 0.56422 0.0
C393 C 0.06033 0.59183 0.55892 0.0
C394 C 0.02661 0.51328 0.52419 0.0
C395 C 0.08322 0.62839 0.55886 0.0
C396 C 0.91896 0.36683 0.51746 0.0
C397 C 0.94152 0.40341 0.51784 0.0
C398 C 0.96884 0.48323 0.55318 0.0
C399 C 0.04554 0.57372 0.53893 0.0
C400 C 0.02122 0.53503 0.53895 0.0
C401 C 0.94922 0.42235 0.53798 0.0
C402 C 0.97415 0.46125 0.53843 0.0
H403 H 0.08199 0.64351 0.50321 0.0
H404 H 0.04267 0.57945 0.50329 0.0
H405 H 0.98737 0.53599 0.56493 0.0
H406 H 0.89836 0.35358 0.57268 0.0
H407 H 0.93875 0.41716 0.57356 0.0
C408 C 0.45069 0.08329 0.89258 0.0
C409 C 0.43965 0.09133 0.87255 0.0
C410 C 0.46393 0.06003 0.89278 0.0
C411 C 0.4673 0.99084 0.85815 0.0
H412 H 0.54124 0.0049 0.89967 0.0
C413 C 0.54727 0.91827 0.85206 0.0
C414 C 0.55008 0.90251 0.87178 0.0
C415 C 0.5329 0.94054 0.85244 0.0
C416 C 0.52041 0.00057 0.8881 0.0
H417 H 0.43473 0.08212 0.83693 0.0
H418 H 0.45916 0.04285 0.83706 0.0
H419 H 0.51904 0.04622 0.89947 0.0
H420 H 0.54027 0.8979 0.90736 0.0
H421 H 0.51582 0.93754 0.90804 0.0
H422 H 0.46975 0.94581 0.84634 0.0
C423 C 0.45651 0.0534 0.85279 0.0
C424 C 0.50752 0.02412 0.88803 0.0
C425 C 0.44273 0.07618 0.85267 0.0
C426 C 0.5383 0.90955 0.89189 0.0
C427 C 0.52451 0.93235 0.89232 0.0
C428 C 0.48061 0.96767 0.858 0.0
C429 C 0.46698 0.0447 0.87288 0.0
C430 C 0.48076 0.01959 0.87304 0.0
C431 C 0.52164 0.94799 0.87259 0.0
C432 C 0.50724 0.9723 0.87298 0.0
H433 H 0.44835 0.09434 0.90821 0.0
H434 H 0.47112 0.05359 0.90862 0.0
H435 H 0.44617 0.98592 0.84672 0.0
H436 H 0.55606 0.9133 0.83631 0.0
H437 H 0.53115 0.95246 0.83702 0.0
C438 C 0.55093 0.63016 0.48176 0.0
C439 C 0.55187 0.64758 0.4619 0.0
C440 C 0.53738 0.59363 0.48197 0.0
C441 C 0.48317 0.51216 0.44831 0.0
H442 H 0.52538 0.473 0.48759 0.0
C443 C 0.4536 0.36757 0.44294 0.0
C444 C 0.44368 0.34876 0.46311 0.0
C445 C 0.46713 0.40411 0.44273 0.0
C446 C 0.51328 0.48362 0.47662 0.0
H447 H 0.53972 0.64048 0.42663 0.0
H448 H 0.51738 0.5771 0.42676 0.0
H449 H 0.54839 0.53662 0.48714 0.0
H450 H 0.44086 0.35354 0.49891 0.0
H451 H 0.46535 0.41757 0.49853 0.0
H452 H 0.44879 0.45897 0.43739 0.0
C453 C 0.52602 0.5913 0.44237 0.0
C454 C 0.52627 0.52006 0.47643 0.0
C455 C 0.53904 0.62774 0.44225 0.0
C456 C 0.4482 0.36731 0.4831 0.0
C457 C 0.46233 0.40392 0.48291 0.0
C458 C 0.4706 0.4758 0.44826 0.0
C459 C 0.52499 0.5737 0.46224 0.0
C460 C 0.51129 0.53484 0.46235 0.0
C461 C 0.4716 0.42259 0.46271 0.0
C462 C 0.48543 0.4612 0.46248 0.0
H463 H 0.5604 0.64472 0.49721 0.0
H464 H 0.53638 0.58103 0.49768 0.0
H465 H 0.47044 0.52234 0.43756 0.0
H466 H 0.45027 0.35398 0.42726 0.0
H467 H 0.4743 0.41798 0.42695 0.0
C468 C 0.90804 0.54007 0.77544 0.0
C469 C 0.90062 0.55199 0.79533 0.0
C470 C 0.93132 0.52687 0.77532 0.0
C471 C 0.00161 0.52489 0.80956 0.0
H472 H 0.98633 0.44963 0.76883 0.0
C473 C 0.07567 0.44602 0.81482 0.0
C474 C 0.09063 0.44296 0.79482 0.0
C475 C 0.05311 0.46008 0.81486 0.0
C476 C 0.99099 0.47081 0.78018 0.0
H477 H 0.91105 0.55862 0.83081 0.0
H478 H 0.95039 0.53423 0.83084 0.0
H479 H 0.94481 0.47153 0.7693 0.0
H480 H 0.09355 0.45202 0.75917 0.0
H481 H 0.05343 0.47587 0.75923 0.0
H482 H 0.04723 0.52308 0.82088 0.0
C483 C 0.9393 0.53614 0.81514 0.0
C484 C 0.96732 0.48354 0.78041 0.0
C485 C 0.91649 0.5499 0.81517 0.0
C486 C 0.08254 0.45419 0.77485 0.0
C487 C 0.05946 0.46763 0.77485 0.0
C488 C 0.02491 0.51172 0.80957 0.0
C489 C 0.9473 0.52471 0.79518 0.0
C490 C 0.97235 0.51086 0.79505 0.0
C491 C 0.04457 0.47072 0.79485 0.0
C492 C 0.01988 0.48466 0.79484 0.0
H493 H 0.89645 0.54166 0.75984 0.0
H494 H 0.93724 0.51899 0.75955 0.0
H495 H 0.00689 0.54641 0.82074 0.0
H496 H 0.08148 0.43766 0.83046 0.0
H497 H 0.0418 0.46203 0.83048 0.0
C498 C 0.36563 0.91069 0.10653 0.0
C499 C 0.34676 0.90284 0.12663 0.0
C500 C 0.40201 0.93446 0.10611 0.0
C501 C 0.47429 0.00526 0.14006 0.0
H502 H 0.53456 0.99126 0.09888 0.0
C503 C 0.62694 0.07984 0.1457 0.0
C504 C 0.64527 0.09502 0.12582 0.0
C505 C 0.59035 0.05729 0.14551 0.0
C506 C 0.51795 0.99558 0.11034 0.0
H507 H 0.35132 0.91295 0.16215 0.0
H508 H 0.41484 0.95314 0.16165 0.0
H509 H 0.47123 0.94924 0.09938 0.0
H510 H 0.63966 0.09839 0.09015 0.0
H511 H 0.57567 0.05829 0.08981 0.0
H512 H 0.52149 0.05101 0.15147 0.0
C513 C 0.40154 0.94203 0.14602 0.0
C514 C 0.48162 0.97162 0.1106 0.0
C515 C 0.3651 0.91872 0.14636 0.0
C516 C 0.62625 0.08719 0.10575 0.0
C517 C 0.58971 0.06413 0.10551 0.0
C518 C 0.51068 0.02886 0.14004 0.0
C519 C 0.42049 0.95052 0.12586 0.0
C520 C 0.45925 0.97611 0.12547 0.0
C521 C 0.57145 0.04899 0.12539 0.0
C522 C 0.53282 0.02425 0.12517 0.0
H523 H 0.35215 0.89907 0.09101 0.0
H524 H 0.41546 0.94071 0.09021 0.0
H525 H 0.45795 0.01015 0.15141 0.0
H526 H 0.64087 0.08542 0.16143 0.0
H527 H 0.57688 0.04577 0.16104 0.0
C528 C 0.26357 0.33115 0.26202 0.0
C529 C 0.23833 0.34161 0.26498 0.0
C530 C 0.26885 0.31175 0.27851 0.0
C531 C 0.25131 0.29019 0.33901 0.0
H532 H 0.2992 0.23806 0.32563 0.0
C533 C 0.33204 0.26768 0.40554 0.0
C534 C 0.3403 0.24081 0.40279 0.0
C535 C 0.31214 0.27309 0.38947 0.0
C536 C 0.28509 0.25172 0.3299 0.0
H537 H 0.19706 0.33818 0.28652 0.0
H538 H 0.20416 0.30196 0.31459 0.0
H539 H 0.27583 0.25684 0.29562 0.0
H540 H 0.33244 0.19684 0.38219 0.0
H541 H 0.29527 0.20423 0.35499 0.0
H542 H 0.25845 0.28302 0.37334 0.0
C543 C 0.2214 0.31021 0.30022 0.0
C544 C 0.2723 0.26333 0.31246 0.0
C545 C 0.21698 0.33066 0.28405 0.0
C546 C 0.32662 0.21801 0.38448 0.0
C547 C 0.30565 0.22259 0.36877 0.0
C548 C 0.26301 0.27753 0.35647 0.0
C549 C 0.2482 0.30138 0.29806 0.0
C550 C 0.25652 0.28402 0.31669 0.0
C551 C 0.29909 0.25098 0.3706 0.0
C552 C 0.2814 0.25935 0.35219 0.0
H553 H 0.28059 0.33963 0.24751 0.0
H554 H 0.29028 0.30638 0.27622 0.0
H555 H 0.23953 0.30611 0.34321 0.0
H556 H 0.34269 0.28581 0.41947 0.0
H557 H 0.30856 0.2957 0.39147 0.0
C558 C 0.87794 0.22461 0.62125 0.0
C559 C 0.88956 0.23682 0.59953 0.0
C560 C 0.90209 0.22902 0.63789 0.0
C561 C 0.95895 0.26856 0.67193 0.0
H562 H 0.04659 0.26837 0.66229 0.0
C563 C 0.06544 0.31747 0.73979 0.0
C564 C 0.09926 0.34286 0.73236 0.0
C565 C 0.03907 0.29649 0.7245 0.0
C566 C 0.02217 0.26845 0.66522 0.0
H567 H 0.93538 0.26159 0.57791 0.0
H568 H 0.97775 0.27023 0.60711 0.0
H569 H 0.00107 0.24538 0.63338 0.0
H570 H 0.13254 0.36466 0.70317 0.0
H571 H 0.08653 0.32835 0.67658 0.0
H572 H 0.98026 0.29244 0.70342 0.0
C573 C 0.9499 0.25666 0.61124 0.0
C574 C -0.00384 0.25538 0.64866 0.0
C575 C 0.92564 0.25189 0.59451 0.0
C576 C 0.1067 0.34548 0.70944 0.0
C577 C 0.08039 0.32445 0.69419 0.0
C578 C 0.98482 0.28144 0.68846 0.0
C579 C 0.93848 0.24614 0.63327 0.0
C580 C 0.96453 0.25596 0.65166 0.0
C581 C 0.04605 0.30039 0.70151 0.0
C582 C 0.01701 0.28224 0.68512 0.0
H583 H 0.85021 0.21241 0.62556 0.0
H584 H 0.89232 0.21987 0.65455 0.0
H585 H 0.93524 0.27006 0.67468 0.0
H586 H 0.05892 0.31463 0.75735 0.0
H587 H 0.01295 0.27784 0.73064 0.0
C588 C 0.67027 0.92643 0.92842 0.0
C589 C 0.64934 0.89047 0.9338 0.0
C590 C 0.69013 0.95106 0.94489 0.0
C591 C 0.68852 0.96149 0.0055 0.0
H592 H 0.77593 0.04907 0.9948 0.0
C593 C 0.74687 0.06953 0.07225 0.0
C594 C 0.75484 0.10309 0.06455 0.0
C595 C 0.74149 0.04291 0.05719 0.0
C596 C 0.75156 0.02467 0.99802 0.0
H597 H 0.63495 0.85171 0.96015 0.0
H598 H 0.67026 0.89448 0.98868 0.0
H599 H 0.75297 0.00281 0.96636 0.0
H600 H 0.76558 0.13568 0.03508 0.0
H601 H 0.75585 0.0892 0.00887 0.0
H602 H 0.68649 0.98355 0.03682 0.0
C603 C 0.67052 0.90387 0.97196 0.0
C604 C 0.73836 -0.00176 0.98174 0.0
C605 C 0.6504 0.87934 0.95558 0.0
C606 C 0.75926 0.11004 0.04157 0.0
C607 C 0.75397 0.08347 0.02652 0.0
C608 C 0.70175 0.98778 0.02176 0.0
C609 C 0.6897 0.94015 0.96699 0.0
C610 C 0.70628 0.96663 0.98511 0.0
C611 C 0.74408 0.04936 0.03414 0.0
C612 C 0.733 0.01995 0.01803 0.0
H613 H 0.66996 0.93579 0.91177 0.0
H614 H 0.70432 0.97881 0.9405 0.0
H615 H 0.6634 0.93782 0.00854 0.0
H616 H 0.74353 0.06338 0.08987 0.0
H617 H 0.73434 0.01698 0.06355 0.0
C618 C 0.6801 0.76212 0.40358 0.0
C619 C 0.64668 0.7563 0.39718 0.0
C620 C 0.70213 0.75878 0.38805 0.0
C621 C 0.71056 0.74597 0.32693 0.0
H622 H 0.75807 0.69693 0.34835 0.0
C623 C 0.76334 0.68295 0.26506 0.0
C624 C 0.75675 0.64907 0.27091 0.0
C625 C 0.76 0.70458 0.28091 0.0
C626 C 0.7448 0.71045 0.34202 0.0
H627 H 0.61047 0.74326 0.36942 0.0
H628 H 0.64773 0.73582 0.34279 0.0
H629 H 0.73193 0.719 0.37483 0.0
H630 H 0.74251 0.61166 0.29807 0.0
H631 H 0.73502 0.64824 0.32523 0.0
H632 H 0.72046 0.7345 0.29409 0.0
C633 C 0.65781 0.74417 0.35949 0.0
C634 C 0.73029 0.72376 0.3573 0.0
C635 C 0.63616 0.7481 0.37487 0.0
C636 C 0.74793 0.63771 0.29304 0.0
C637 C 0.74396 0.65897 0.30873 0.0
C638 C 0.72437 0.73197 0.31164 0.0
C639 C 0.69092 0.74895 0.36589 0.0
C640 C 0.71184 0.74058 0.34993 0.0
C641 C 0.74934 0.69249 0.30283 0.0
C642 C 0.74056 0.7129 0.31897 0.0
H643 H 0.68905 0.76884 0.42064 0.0
H644 H 0.72768 0.76334 0.39354 0.0
H645 H 0.69756 0.75976 0.3206 0.0
H646 H 0.77058 0.69256 0.24816 0.0
H647 H 0.7651 0.73048 0.27582 0.0
C648 C 0.10633 0.76088 0.6237 0.0
C649 C 0.0993 0.75641 0.60073 0.0
C650 C 0.0797 0.75521 0.63879 0.0
C651 C 0.98419 0.70174 0.64366 0.0
H652 H -0.00154 0.75286 0.69904 0.0
C653 C 0.92294 0.66992 0.73708 0.0
C654 C 0.88705 0.64844 0.73172 0.0
C655 C 0.94743 0.68986 0.72058 0.0
C656 C 0.9941 0.73826 0.68367 0.0
H657 H 0.05939 0.74466 0.57547 0.0
H658 H 0.01288 0.73479 0.60186 0.0
H659 H 0.04465 0.77646 0.67058 0.0
H660 H 0.8482 0.63307 0.70532 0.0
H661 H 0.89068 0.66854 0.67672 0.0
H662 H 0.93456 0.66278 0.65691 0.0
C663 C 0.03892 0.74228 0.60818 0.0
C664 C 0.0205 0.75183 0.66737 0.0
C665 C 0.0656 0.74805 0.59307 0.0
C666 C 0.87579 0.64896 0.70988 0.0
C667 C 0.90017 0.66918 0.69347 0.0
C668 C 0.95796 0.68812 0.65994 0.0
C669 C 0.04546 0.74489 0.63122 0.0
C670 C 0.01604 0.73335 0.64736 0.0
C671 C 0.93642 0.68898 0.69844 0.0
C672 C 0.96282 0.70585 0.68032 0.0
H673 H 0.13208 0.76749 0.63015 0.0
H674 H 0.0855 0.75714 0.65644 0.0
H675 H 0.98019 0.68654 0.6286 0.0
H676 H 0.93239 0.67003 0.75378 0.0
H677 H 0.97516 0.70453 0.72498 0.0
C678 C 0.22159 0.87737 0.0433 0.0
C679 C 0.23421 0.88858 0.06501 0.0
C680 C 0.22558 0.90182 0.02699 0.0
C681 C 0.25186 0.99615 0.01725 0.0
H682 H 0.28807 0.98116 0.96184 0.0
C683 C 0.34164 0.10765 0.95694 0.0
C684 C 0.33889 0.10053 0.93397 0.0
C685 C 0.32056 0.08117 0.97207 0.0
C686 C 0.2773 0.98548 0.97699 0.0
H687 H 0.25918 0.93393 0.087 0.0
H688 H 0.26713 0.97686 0.05837 0.0
H689 H 0.26598 0.93561 0.9902 0.0
H690 H 0.31027 0.06065 0.90878 0.0
H691 H 0.27337 0.01442 0.93526 0.0
H692 H 0.26484 0.0469 0.00418 0.0
C693 C 0.25356 0.9491 0.05399 0.0
C694 C 0.26457 0.95929 0.99331 0.0
C695 C 0.24918 0.92452 0.0704 0.0
C696 C 0.31324 0.06692 0.92638 0.0
C697 C 0.29219 0.0404 0.94154 0.0
C698 C 0.26478 0.02249 0.00091 0.0
C699 C 0.2427 0.93812 0.03194 0.0
C700 C 0.25229 0.96452 0.0138 0.0
C701 C 0.2963 0.04699 0.96457 0.0
C702 C 0.27825 0.01766 0.98077 0.0
H703 H 0.20944 0.84974 0.03873 0.0
H704 H 0.21616 0.89237 0.01031 0.0
H705 H 0.24211 0.00081 0.03272 0.0
H706 H 0.36101 0.13333 0.96334 0.0
H707 H 0.3246 0.08702 0.98971 0.0
C708 C 0.87561 0.21194 0.12513 0.0
C709 C 0.84917 0.19565 0.14142 0.0
C710 C 0.91126 0.22715 0.13091 0.0
C711 C 0.97157 0.2691 0.17693 0.0
H712 H 0.03559 0.24779 0.14474 0.0
C713 C 0.11613 0.3276 0.20468 0.0
C714 C 0.14204 0.33751 0.1881 0.0
C715 C 0.0803 0.30809 0.19924 0.0
C716 C 0.01825 0.25448 0.15372 0.0
H717 H 0.83931 0.18248 0.17649 0.0
H718 H 0.90174 0.20988 0.18664 0.0
H719 H 0.97322 0.21831 0.1344 0.0
H720 H 0.15087 0.33468 0.15285 0.0
H721 H 0.08839 0.30192 0.14313 0.0
H722 H 0.01635 0.30624 0.19567 0.0
C723 C 0.89474 0.21055 0.16941 0.0
C724 C 0.9825 0.23741 0.14784 0.0
C725 C 0.85908 0.19478 0.16357 0.0
C726 C 0.13145 0.32722 0.16599 0.0
C727 C 0.09557 0.30822 0.16047 0.0
C728 C 0.00736 0.28661 0.18256 0.0
C729 C 0.92112 0.2269 0.15313 0.0
C730 C 0.95888 0.24454 0.15944 0.0
C731 C 0.06948 0.29858 0.17701 0.0
C732 C 0.03123 0.2795 0.17108 0.0
H733 H 0.86876 0.21288 0.10791 0.0
H734 H 0.93116 0.2398 0.1181 0.0
H735 H 0.95391 0.27537 0.18593 0.0
H736 H 0.12353 0.33482 0.22192 0.0
H737 H 0.06112 0.30044 0.21253 0.0
C738 C 0.78518 0.11814 0.53584 0.0
C739 C 0.80222 0.1449 0.51985 0.0
C740 C 0.76948 0.08261 0.52971 0.0
C741 C 0.72675 0.02353 0.48353 0.0
H742 H 0.74637 0.95784 0.51513 0.0
C743 C 0.66222 0.87748 0.45694 0.0
C744 C 0.65265 0.85205 0.4738 0.0
C745 C 0.68281 0.91344 0.46187 0.0
C746 C 0.74014 0.97566 0.50631 0.0
H747 H 0.81626 0.15553 0.48493 0.0
H748 H 0.7879 0.09322 0.47414 0.0
H749 H 0.77772 0.02024 0.52537 0.0
H750 H 0.65685 0.84421 0.50905 0.0
H751 H 0.69133 0.90681 0.5179 0.0
H752 H 0.6881 0.97917 0.46513 0.0
C753 C 0.78709 0.0999 0.49142 0.0
C754 C 0.75831 0.01142 0.51212 0.0
C755 C 0.80339 0.13546 0.49762 0.0
C756 C 0.66406 0.86323 0.49568 0.0
C757 C 0.68409 0.89919 0.5007 0.0
C758 C 0.7081 0.9877 0.47798 0.0
C759 C 0.76998 0.07321 0.50742 0.0
C760 C 0.7517 0.0356 0.5008 0.0
C761 C 0.69375 0.92483 0.48387 0.0
C762 C 0.71444 0.96321 0.48934 0.0
H763 H 0.78398 0.12465 0.55311 0.0
H764 H 0.75623 0.06245 0.5423 0.0
H765 H 0.72095 0.04169 0.47473 0.0
H766 H 0.65409 0.86959 0.43987 0.0
H767 H 0.69029 0.93226 0.44837 0.0
C768 C 0.79846 0.66506 0.83103 0.0
C769 C 0.79824 0.65392 0.80907 0.0
C770 C 0.78237 0.68492 0.83623 0.0
C771 C 0.71739 0.70849 0.81368 0.0
H772 H 0.75381 0.77784 0.86123 0.0
C773 C 0.66416 0.8032 0.83279 0.0
C774 C 0.65343 0.80217 0.85497 0.0
C775 C 0.6836 0.78701 0.82678 0.0
C776 C 0.7434 0.7585 0.84794 0.0
H777 H 0.78216 0.6558 0.77519 0.0
H778 H 0.75551 0.69168 0.784 0.0
H779 H 0.78516 0.74674 0.85107 0.0
H780 H 0.65547 0.78433 0.88835 0.0
H781 H 0.69022 0.75675 0.87788 0.0
H782 H 0.67612 0.72112 0.8103 0.0
C783 C 0.76687 0.68409 0.79743 0.0
C784 C 0.76117 0.74047 0.84218 0.0
C785 C 0.78237 0.66369 0.79233 0.0
C786 C 0.66325 0.7854 0.87111 0.0
C787 C 0.68326 0.76981 0.86518 0.0
C788 C 0.70003 0.72697 0.81918 0.0
C789 C 0.76626 0.69463 0.8195 0.0
C790 C 0.74821 0.71494 0.82511 0.0
C791 C 0.69325 0.77013 0.84293 0.0
C792 C 0.71269 0.75187 0.83649 0.0
H793 H 0.81031 0.65771 0.84431 0.0
H794 H 0.78194 0.69193 0.85347 0.0
H795 H 0.7061 0.68856 0.80078 0.0
H796 H 0.65691 0.81586 0.81998 0.0
H797 H 0.69116 0.78769 0.80953 0.0
C798 C 0.8772 0.66158 0.20866 0.0
C799 C 0.85111 0.65379 0.19244 0.0
C800 C 0.91301 0.68051 0.20297 0.0
C801 C 0.97269 0.69738 0.15695 0.0
H802 H 0.03921 0.7819 0.1889 0.0
C803 C 0.11674 0.78117 0.12753 0.0
C804 C 0.14326 0.79747 0.14372 0.0
C805 C 0.08112 0.7649 0.13352 0.0
C806 C 0.02118 0.75803 0.18001 0.0
H807 H 0.84199 0.65961 0.15758 0.0
H808 H 0.90459 0.69187 0.14758 0.0
H809 H 0.97705 0.75062 0.19975 0.0
H810 H 0.15342 0.80937 0.17889 0.0
H811 H 0.09137 0.77968 0.18954 0.0
H812 H 0.01651 0.70357 0.13774 0.0
C813 C 0.89724 0.68361 0.16469 0.0
C814 C 0.98556 0.74029 0.18618 0.0
C815 C 0.8615 0.66532 0.17045 0.0
C816 C 0.13351 0.79724 0.16602 0.0
C817 C 0.09787 0.78037 0.17209 0.0
C818 C 0.00836 0.71467 0.15103 0.0
C819 C 0.92327 0.69132 0.18089 0.0
C820 C 0.96103 0.70996 0.17461 0.0
C821 C 0.07115 0.76391 0.15592 0.0
C822 C 0.03311 0.74539 0.16238 0.0
H823 H 0.86996 0.65312 0.22575 0.0
H824 H 0.93267 0.68604 0.21571 0.0
H825 H 0.95426 0.67375 0.14796 0.0
H826 H 0.12349 0.78127 0.11017 0.0
H827 H 0.06145 0.75331 0.12049 0.0
C828 C 0.20953 0.87791 0.5405 0.0
C829 C 0.19262 0.85164 0.52418 0.0
C830 C 0.22528 0.91364 0.53484 0.0
C831 C 0.26739 0.9738 0.48877 0.0
H832 H 0.24924 0.03923 0.52194 0.0
C833 C 0.32829 0.11882 0.46158 0.0
C834 C 0.33939 0.14473 0.47826 0.0
C835 C 0.30826 0.08303 0.46698 0.0
C836 C 0.25503 0.02147 0.51269 0.0
H837 H 0.17881 0.84215 0.48916 0.0
H838 H 0.20711 0.90471 0.47921 0.0
H839 H 0.2185 0.97675 0.53206 0.0
H840 H 0.33818 0.15359 0.51367 0.0
H841 H 0.30446 0.09111 0.52329 0.0
H842 H 0.30484 0.01824 0.46995 0.0
C843 C 0.20788 0.89753 0.49639 0.0
C844 C 0.23725 0.98567 0.51844 0.0
C845 C 0.1916 0.8618 0.50211 0.0
C846 C 0.32981 0.13418 0.50045 0.0
C847 C 0.31027 0.09832 0.50592 0.0
C848 C 0.28558 0.00962 0.48325 0.0
C849 C 0.22493 0.92374 0.51269 0.0
C850 C 0.24324 0.96155 0.50649 0.0
C851 C 0.29939 0.07223 0.48926 0.0
C852 C 0.27962 0.03397 0.4951 0.0
H853 H 0.21061 0.87087 0.55766 0.0
H854 H 0.23847 0.9334 0.54767 0.0
H855 H 0.2728 0.95575 0.47951 0.0
H856 H 0.33493 0.12619 0.44428 0.0
H857 H 0.29969 0.06385 0.45362 0.0
C858 C 0.20872 0.33077 0.79229 0.0
C859 C 0.19277 0.34081 0.80883 0.0
C860 C 0.22465 0.31089 0.79776 0.0
C861 C 0.23125 0.25619 0.84327 0.0
H862 H 0.31632 0.27534 0.81154 0.0
C863 C 0.32868 0.2108 0.87272 0.0
C864 C 0.33847 0.19397 0.85659 0.0
C865 C 0.309 0.22674 0.86671 0.0
C866 C 0.29243 0.26956 0.82041 0.0
H867 H 0.18105 0.33805 0.84408 0.0
H868 H 0.21008 0.30471 0.85383 0.0
H869 H 0.28597 0.30735 0.80155 0.0
H870 H 0.33533 0.18063 0.82154 0.0
H871 H 0.30163 0.20929 0.811 0.0
H872 H 0.23889 0.21935 0.86271 0.0
C873 C 0.20941 0.31112 0.83649 0.0
C874 C 0.27486 0.28773 0.81463 0.0
C875 C 0.19293 0.33047 0.83094 0.0
C876 C 0.32811 0.19332 0.83435 0.0
C877 C 0.30898 0.20981 0.82829 0.0
C878 C 0.24922 0.23847 0.84929 0.0
C879 C 0.2256 0.30113 0.81998 0.0
C880 C 0.24399 0.2813 0.82596 0.0
C881 C 0.29931 0.22669 0.84441 0.0
C882 C 0.27992 0.24499 0.83789 0.0
H883 H 0.20868 0.33806 0.77505 0.0
H884 H 0.23609 0.30307 0.78449 0.0
H885 H 0.20724 0.24996 0.85212 0.0
H886 H 0.33618 0.21162 0.88999 0.0
H887 H 0.30201 0.23978 0.87941 0.0
loop_
_geom_bond_atom_site_label_1
_geom_bond_atom_site_label_2
_geom_bond_distance
_geom_bond_site_symmetry_2
_ccdc_geom_bond_type
C0 O2 1.247 . S
C0 O4 1.258 . S
C1 O8 1.247 . S
C1 O9 1.258 . S
O2 C0 1.247 . S
O2 Zn3 2.028 . S
Zn3 O2 2.028 . S
Zn3 O7 2.035 . S
Zn3 O9 2.035 . S
Zn3 O10 2.028 . S
O4 C0 1.258 . S
O4 Zn5 2.035 . S
Zn5 O4 2.035 . S
Zn5 O6 2.028 . S
Zn5 O8 2.028 . S
Zn5 O11 2.035 . S
O6 Zn5 2.028 . S
O6 C12 1.247 . S
O7 Zn3 2.035 . S
O7 C12 1.258 . S
O8 C1 1.247 . S
O8 Zn5 2.028 . S
O9 C1 1.258 . S
O9 Zn3 2.035 . S
O10 Zn3 2.028 . S
O10 C13 1.247 . S
O11 Zn5 2.035 . S
O11 C13 1.258 . S
C12 O6 1.247 . S
C12 O7 1.258 . S
C13 O10 1.247 . S
C13 O11 1.258 . S
C14 O16 1.247 . S
C14 O18 1.258 . S
C15 O22 1.247 . S
C15 O23 1.258 . S
O16 C14 1.247 . S
O16 Zn17 2.028 . S
Zn17 O16 2.028 . S
Zn17 O21 2.035 . S
Zn17 O23 2.035 . S
Zn17 O24 2.028 . S
O18 C14 1.258 . S
O18 Zn19 2.035 . S
Zn19 O18 2.035 . S
Zn19 O20 2.028 . S
Zn19 O22 2.028 . S
Zn19 O25 2.035 . S
O20 Zn19 2.028 . S
O20 C26 1.247 . S
O21 Zn17 2.035 . S
O21 C26 1.258 . S
O22 C15 1.247 . S
O22 Zn19 2.028 . S
O23 C15 1.258 . S
O23 Zn17 2.035 . S
O24 Zn17 2.028 . S
O24 C27 1.247 . S
O25 Zn19 2.035 . S
O25 C27 1.258 . S
C26 O20 1.247 . S
C26 O21 1.258 . S
C27 O24 1.247 . S
C27 O25 1.258 . S
C28 O30 1.247 . S
C28 O32 1.258 . S
C29 O36 1.247 . S
C29 O37 1.258 . S
O30 C28 1.247 . S
O30 Zn31 2.028 . S
Zn31 O30 2.028 . S
Zn31 O35 2.035 . S
Zn31 O37 2.035 . S
Zn31 O38 2.028 . S
O32 C28 1.258 . S
O32 Zn33 2.035 . S
Zn33 O32 2.035 . S
Zn33 O34 2.028 . S
Zn33 O36 2.028 . S
Zn33 O39 2.035 . S
O34 Zn33 2.028 . S
O34 C40 1.247 . S
O35 Zn31 2.035 . S
O35 C40 1.258 . S
O36 C29 1.247 . S
O36 Zn33 2.028 . S
O37 C29 1.258 . S
O37 Zn31 2.035 . S
O38 Zn31 2.028 . S
O38 C41 1.247 . S
O39 Zn33 2.035 . S
O39 C41 1.258 . S
C40 O34 1.247 . S
C40 O35 1.258 . S
C41 O38 1.247 . S
C41 O39 1.258 . S
C42 O44 1.247 . S
C42 O46 1.258 . S
C43 O50 1.247 . S
C43 O51 1.258 . S
O44 C42 1.247 . S
O44 Zn45 2.028 . S
Zn45 O44 2.028 . S
Zn45 O49 2.035 . S
Zn45 O51 2.035 . S
Zn45 O52 2.028 . S
O46 C42 1.258 . S
O46 Zn47 2.035 . S
Zn47 O46 2.035 . S
Zn47 O48 2.028 . S
Zn47 O50 2.028 . S
Zn47 O53 2.035 . S
O48 Zn47 2.028 . S
O48 C54 1.247 . S
O49 Zn45 2.035 . S
O49 C54 1.258 . S
O50 C43 1.247 . S
O50 Zn47 2.028 . S
O51 C43 1.258 . S
O51 Zn45 2.035 . S
O52 Zn45 2.028 . S
O52 C55 1.247 . S
O53 Zn47 2.035 . S
O53 C55 1.258 . S
C54 O48 1.247 . S
C54 O49 1.258 . S
C55 O52 1.247 . S
C55 O53 1.258 . S
C56 O58 1.247 . S
C56 O60 1.258 . S
C57 O64 1.247 . S
C57 O65 1.258 . S
O58 C56 1.247 . S
O58 Zn59 2.028 . S
Zn59 O58 2.028 . S
Zn59 O63 2.035 . S
Zn59 O65 2.035 . S
Zn59 O66 2.028 . S
O60 C56 1.258 . S
O60 Zn61 2.035 . S
Zn61 O60 2.035 . S
Zn61 O62 2.028 . S
Zn61 O64 2.028 . S
Zn61 O67 2.035 . S
O62 Zn61 2.028 . S
O62 C68 1.247 . S
O63 Zn59 2.035 . S
O63 C68 1.258 . S
O64 C57 1.247 . S
O64 Zn61 2.028 . S
O65 C57 1.258 . S
O65 Zn59 2.035 . S
O66 Zn59 2.028 . S
O66 C69 1.247 . S
O67 Zn61 2.035 . S
O67 C69 1.258 . S
C68 O62 1.247 . S
C68 O63 1.258 . S
C69 O66 1.247 . S
C69 O67 1.258 . S
C70 O72 1.247 . S
C70 O74 1.258 . S
C71 O78 1.247 . S
C71 O79 1.258 . S
O72 C70 1.247 . S
O72 Zn73 2.028 . S
Zn73 O72 2.028 . S
Zn73 O77 2.035 . S
Zn73 O79 2.035 . S
Zn73 O80 2.028 . S
O74 C70 1.258 . S
O74 Zn75 2.035 . S
Zn75 O74 2.035 . S
Zn75 O76 2.028 . S
Zn75 O78 2.028 . S
Zn75 O81 2.035 . S
O76 Zn75 2.028 . S
O76 C82 1.247 . S
O77 Zn73 2.035 . S
O77 C82 1.258 . S
O78 C71 1.247 . S
O78 Zn75 2.028 . S
O79 C71 1.258 . S
O79 Zn73 2.035 . S
O80 Zn73 2.028 . S
O80 C83 1.247 . S
O81 Zn75 2.035 . S
O81 C83 1.258 . S
C82 O76 1.247 . S
C82 O77 1.258 . S
C83 O80 1.247 . S
C83 O81 1.258 . S
C84 O86 1.247 . S
C84 O88 1.258 . S
C85 O92 1.247 . S
C85 O93 1.258 . S
O86 C84 1.247 . S
O86 Zn87 2.028 . S
Zn87 O86 2.028 . S
Zn87 O91 2.035 . S
Zn87 O93 2.035 . S
Zn87 O94 2.028 . S
O88 C84 1.258 . S
O88 Zn89 2.035 . S
Zn89 O88 2.035 . S
Zn89 O90 2.028 . S
Zn89 O92 2.028 . S
Zn89 O95 2.035 . S
O90 Zn89 2.028 . S
O90 C96 1.247 . S
O91 Zn87 2.035 . S
O91 C96 1.258 . S
O92 C85 1.247 . S
O92 Zn89 2.028 . S
O93 C85 1.258 . S
O93 Zn87 2.035 . S
O94 Zn87 2.028 . S
O94 C97 1.247 . S
O95 Zn89 2.035 . S
O95 C97 1.258 . S
C96 O90 1.247 . S
C96 O91 1.258 . S
C97 O94 1.247 . S
C97 O95 1.258 . S
C98 O100 1.247 . S
C98 O102 1.258 . S
C99 O106 1.247 . S
C99 O107 1.258 . S
O100 C98 1.247 . S
O100 Zn101 2.028 . S
Zn101 O100 2.028 . S
Zn101 O105 2.035 . S
Zn101 O107 2.035 . S
Zn101 O108 2.028 . S
O102 C98 1.258 . S
O102 Zn103 2.035 . S
Zn103 O102 2.035 . S
Zn103 O104 2.028 . S
Zn103 O106 2.028 . S
Zn103 O109 2.035 . S
O104 Zn103 2.028 . S
O104 C110 1.247 . S
O105 Zn101 2.035 . S
O105 C110 1.258 . S
O106 C99 1.247 . S
O106 Zn103 2.028 . S
O107 C99 1.258 . S
O107 Zn101 2.035 . S
O108 Zn101 2.028 . S
O108 C111 1.247 . S
O109 Zn103 2.035 . S
O109 C111 1.258 . S
C110 O104 1.247 . S
C110 O105 1.258 . S
C111 O108 1.247 . S
C111 O109 1.258 . S
C112 O114 1.247 . S
C112 O116 1.258 . S
C113 O120 1.247 . S
C113 O121 1.258 . S
O114 C112 1.247 . S
O114 Zn115 2.028 . S
Zn115 O114 2.028 . S
Zn115 O119 2.035 . S
Zn115 O121 2.035 . S
Zn115 O122 2.028 . S
O116 C112 1.258 . S
O116 Zn117 2.035 . S
Zn117 O116 2.035 . S
Zn117 O118 2.028 . S
Zn117 O120 2.028 . S
Zn117 O123 2.035 . S
O118 Zn117 2.028 . S
O118 C124 1.247 . S
O119 Zn115 2.035 . S
O119 C124 1.258 . S
O120 C113 1.247 . S
O120 Zn117 2.028 . S
O121 C113 1.258 . S
O121 Zn115 2.035 . S
O122 Zn115 2.028 . S
O122 C125 1.247 . S
O123 Zn117 2.035 . S
O123 C125 1.258 . S
C124 O118 1.247 . S
C124 O119 1.258 . S
C125 O122 1.247 . S
C125 O123 1.258 . S
C126 O128 1.247 . S
C126 O130 1.258 . S
C127 O134 1.247 . S
C127 O135 1.258 . S
O128 C126 1.247 . S
O128 Zn129 2.028 . S
Zn129 O128 2.028 . S
Zn129 O133 2.035 . S
Zn129 O135 2.035 . S
Zn129 O136 2.028 . S
O130 C126 1.258 . S
O130 Zn131 2.035 . S
Zn131 O130 2.035 . S
Zn131 O132 2.028 . S
Zn131 O134 2.028 . S
Zn131 O137 2.035 . S
O132 Zn131 2.028 . S
O132 C138 1.247 . S
O133 Zn129 2.035 . S
O133 C138 1.258 . S
O134 C127 1.247 . S
O134 Zn131 2.028 . S
O135 C127 1.258 . S
O135 Zn129 2.035 . S
O136 Zn129 2.028 . S
O136 C139 1.247 . S
O137 Zn131 2.035 . S
O137 C139 1.258 . S
C138 O132 1.247 . S
C138 O133 1.258 . S
C139 O136 1.247 . S
C139 O137 1.258 . S
C140 O142 1.247 . S
C140 O144 1.258 . S
C141 O148 1.247 . S
C141 O149 1.258 . S
O142 C140 1.247 . S
O142 Zn143 2.028 . S
Zn143 O142 2.028 . S
Zn143 O147 2.035 . S
Zn143 O149 2.035 . S
Zn143 O150 2.028 . S
O144 C140 1.258 . S
O144 Zn145 2.035 . S
Zn145 O144 2.035 . S
Zn145 O146 2.028 . S
Zn145 O148 2.028 . S
Zn145 O151 2.035 . S
O146 Zn145 2.028 . S
O146 C152 1.247 . S
O147 Zn143 2.035 . S
O147 C152 1.258 . S
O148 C141 1.247 . S
O148 Zn145 2.028 . S
O149 C141 1.258 . S
O149 Zn143 2.035 . S
O150 Zn143 2.028 . S
O150 C153 1.247 . S
O151 Zn145 2.035 . S
O151 C153 1.258 . S
C152 O146 1.247 . S
C152 O147 1.258 . S
C153 O150 1.247 . S
C153 O151 1.258 . S
C154 O156 1.247 . S
C154 O158 1.258 . S
C155 O162 1.247 . S
C155 O163 1.258 . S
O156 C154 1.247 . S
O156 Zn157 2.028 . S
Zn157 O156 2.028 . S
Zn157 O161 2.035 . S
Zn157 O163 2.035 . S
Zn157 O164 2.028 . S
O158 C154 1.258 . S
O158 Zn159 2.035 . S
Zn159 O158 2.035 . S
Zn159 O160 2.028 . S
Zn159 O162 2.028 . S
Zn159 O165 2.035 . S
O160 Zn159 2.028 . S
O160 C166 1.247 . S
O161 Zn157 2.035 . S
O161 C166 1.258 . S
O162 C155 1.247 . S
O162 Zn159 2.028 . S
O163 C155 1.258 . S
O163 Zn157 2.035 . S
O164 Zn157 2.028 . S
O164 C167 1.247 . S
O165 Zn159 2.035 . S
O165 C167 1.258 . S
C166 O160 1.247 . S
C166 O161 1.258 . S
C167 O164 1.247 . S
C167 O165 1.258 . S
C168 C169 1.349 . S
C168 C170 1.327 . S
C168 H193 0.950 . S
C169 C168 1.349 . S
C169 C185 1.349 . S
C170 C168 1.327 . S
C170 C189 1.429 . S
C170 H194 0.950 . S
C171 C188 1.574 . S
C171 C190 1.368 . S
C171 H195 0.949 . S
H172 C176 0.949 . S
C173 C174 1.349 . S
C173 C175 1.327 . S
C173 H196 0.950 . S
C174 C173 1.349 . S
C174 C186 1.349 . S
C175 C173 1.327 . S
C175 C191 1.429 . S
C175 H197 0.950 . S
C176 H172 0.949 . S
C176 C184 1.574 . S
C176 C192 1.368 . S
H177 C185 0.950 . S
H178 C183 0.950 . S
H179 C184 0.949 . S
H180 C186 0.950 . S
H181 C187 0.950 . S
H182 C188 0.949 . S
C183 H178 0.950 . S
C183 C185 1.327 . S
C183 C189 1.429 . S
C184 C176 1.574 . S
C184 H179 0.949 . S
C184 C190 1.368 . S
C185 C169 1.349 . S
C185 H177 0.950 . S
C185 C183 1.327 . S
C186 C174 1.349 . S
C186 H180 0.950 . S
C186 C187 1.327 . S
C187 H181 0.950 . S
C187 C186 1.327 . S
C187 C191 1.429 . S
C188 C171 1.574 . S
C188 H182 0.949 . S
C188 C192 1.368 . S
C189 C170 1.429 . S
C189 C183 1.429 . S
C189 C190 1.523 . S
C190 C171 1.368 . S
C190 C184 1.368 . S
C190 C189 1.523 . S
C191 C175 1.429 . S
C191 C187 1.429 . S
C191 C192 1.523 . S
C192 C176 1.368 . S
C192 C188 1.368 . S
C192 C191 1.523 . S
H193 C168 0.950 . S
H194 C170 0.950 . S
H195 C171 0.949 . S
H196 C173 0.950 . S
H197 C175 0.950 . S
C198 C199 1.349 . S
C198 C200 1.327 . S
C198 H223 0.950 . S
C199 C198 1.349 . S
C199 C215 1.349 . S
C200 C198 1.327 . S
C200 C219 1.429 . S
C200 H224 0.950 . S
C201 C218 1.574 . S
C201 C220 1.368 . S
C201 H225 0.949 . S
H202 C206 0.949 . S
C203 C204 1.349 . S
C203 C205 1.327 . S
C203 H226 0.950 . S
C204 C203 1.349 . S
C204 C216 1.349 . S
C205 C203 1.327 . S
C205 C221 1.429 . S
C205 H227 0.950 . S
C206 H202 0.949 . S
C206 C214 1.574 . S
C206 C222 1.368 . S
H207 C215 0.950 . S
H208 C213 0.950 . S
H209 C214 0.949 . S
H210 C216 0.950 . S
H211 C217 0.950 . S
H212 C218 0.949 . S
C213 H208 0.950 . S
C213 C215 1.327 . S
C213 C219 1.429 . S
C214 C206 1.574 . S
C214 H209 0.949 . S
C214 C220 1.368 . S
C215 C199 1.349 . S
C215 H207 0.950 . S
C215 C213 1.327 . S
C216 C204 1.349 . S
C216 H210 0.950 . S
C216 C217 1.327 . S
C217 H211 0.950 . S
C217 C216 1.327 . S
C217 C221 1.429 . S
C218 C201 1.574 . S
C218 H212 0.949 . S
C218 C222 1.368 . S
C219 C200 1.429 . S
C219 C213 1.429 . S
C219 C220 1.523 . S
C220 C201 1.368 . S
C220 C214 1.368 . S
C220 C219 1.523 . S
C221 C205 1.429 . S
C221 C217 1.429 . S
C221 C222 1.523 . S
C222 C206 1.368 . S
C222 C218 1.368 . S
C222 C221 1.523 . S
H223 C198 0.950 . S
H224 C200 0.950 . S
H225 C201 0.949 . S
H226 C203 0.950 . S
H227 C205 0.950 . S
C228 C229 1.349 . S
C228 C230 1.327 . S
C228 H253 0.950 . S
C229 C228 1.349 . S
C229 C245 1.349 . S
C230 C228 1.327 . S
C230 C249 1.429 . S
C230 H254 0.950 . S
C231 C248 1.574 . S
C231 C250 1.368 . S
C231 H255 0.949 . S
H232 C236 0.949 . S
C233 C234 1.349 . S
C233 C235 1.327 . S
C233 H256 0.950 . S
C234 C233 1.349 . S
C234 C246 1.349 . S
C235 C233 1.327 . S
C235 C251 1.429 . S
C235 H257 0.950 . S
C236 H232 0.949 . S
C236 C244 1.574 . S
C236 C252 1.368 . S
H237 C245 0.950 . S
H238 C243 0.950 . S
H239 C244 0.949 . S
H240 C246 0.950 . S
H241 C247 0.950 . S
H242 C248 0.949 . S
C243 H238 0.950 . S
C243 C245 1.327 . S
C243 C249 1.429 . S
C244 C236 1.574 . S
C244 H239 0.949 . S
C244 C250 1.368 . S
C245 C229 1.349 . S
C245 H237 0.950 . S
C245 C243 1.327 . S
C246 C234 1.349 . S
C246 H240 0.950 . S
C246 C247 1.327 . S
C247 H241 0.950 . S
C247 C246 1.327 . S
C247 C251 1.429 . S
C248 C231 1.574 . S
C248 H242 0.949 . S
C248 C252 1.368 . S
C249 C230 1.429 . S
C249 C243 1.429 . S
C249 C250 1.523 . S
C250 C231 1.368 . S
C250 C244 1.368 . S
C250 C249 1.523 . S
C251 C235 1.429 . S
C251 C247 1.429 . S
C251 C252 1.523 . S
C252 C236 1.368 . S
C252 C248 1.368 . S
C252 C251 1.523 . S
H253 C228 0.950 . S
H254 C230 0.950 . S
H255 C231 0.949 . S
H256 C233 0.950 . S
H257 C235 0.950 . S
C258 C259 1.349 . S
C258 C260 1.327 . S
C258 H283 0.950 . S
C259 C258 1.349 . S
C259 C275 1.349 . S
C260 C258 1.327 . S
C260 C279 1.429 . S
C260 H284 0.950 . S
C261 C278 1.574 . S
C261 C280 1.368 . S
C261 H285 0.949 . S
H262 C266 0.949 . S
C263 C264 1.349 . S
C263 C265 1.327 . S
C263 H286 0.950 . S
C264 C263 1.349 . S
C264 C276 1.349 . S
C265 C263 1.327 . S
C265 C281 1.429 . S
C265 H287 0.950 . S
C266 H262 0.949 . S
C266 C274 1.574 . S
C266 C282 1.368 . S
H267 C275 0.950 . S
H268 C273 0.950 . S
H269 C274 0.949 . S
H270 C276 0.950 . S
H271 C277 0.950 . S
H272 C278 0.949 . S
C273 H268 0.950 . S
C273 C275 1.327 . S
C273 C279 1.429 . S
C274 C266 1.574 . S
C274 H269 0.949 . S
C274 C280 1.368 . S
C275 C259 1.349 . S
C275 H267 0.950 . S
C275 C273 1.327 . S
C276 C264 1.349 . S
C276 H270 0.950 . S
C276 C277 1.327 . S
C277 H271 0.950 . S
C277 C276 1.327 . S
C277 C281 1.429 . S
C278 C261 1.574 . S
C278 H272 0.949 . S
C278 C282 1.368 . S
C279 C260 1.429 . S
C279 C273 1.429 . S
C279 C280 1.523 . S
C280 C261 1.368 . S
C280 C274 1.368 . S
C280 C279 1.523 . S
C281 C265 1.429 . S
C281 C277 1.429 . S
C281 C282 1.523 . S
C282 C266 1.368 . S
C282 C278 1.368 . S
C282 C281 1.523 . S
H283 C258 0.950 . S
H284 C260 0.950 . S
H285 C261 0.949 . S
H286 C263 0.950 . S
H287 C265 0.950 . S
C288 C289 1.349 . S
C288 C290 1.327 . S
C288 H313 0.950 . S
C289 C288 1.349 . S
C289 C305 1.349 . S
C290 C288 1.327 . S
C290 C309 1.429 . S
C290 H314 0.950 . S
C291 C308 1.574 . S
C291 C310 1.368 . S
C291 H315 0.949 . S
H292 C296 0.949 . S
C293 C294 1.349 . S
C293 C295 1.327 . S
C293 H316 0.950 . S
C294 C293 1.349 . S
C294 C306 1.349 . S
C295 C293 1.327 . S
C295 C311 1.429 . S
C295 H317 0.950 . S
C296 H292 0.949 . S
C296 C304 1.574 . S
C296 C312 1.368 . S
H297 C305 0.950 . S
H298 C303 0.950 . S
H299 C304 0.949 . S
H300 C306 0.950 . S
H301 C307 0.950 . S
H302 C308 0.949 . S
C303 H298 0.950 . S
C303 C305 1.327 . S
C303 C309 1.429 . S
C304 C296 1.574 . S
C304 H299 0.949 . S
C304 C310 1.368 . S
C305 C289 1.349 . S
C305 H297 0.950 . S
C305 C303 1.327 . S
C306 C294 1.349 . S
C306 H300 0.950 . S
C306 C307 1.327 . S
C307 H301 0.950 . S
C307 C306 1.327 . S
C307 C311 1.429 . S
C308 C291 1.574 . S
C308 H302 0.949 . S
C308 C312 1.368 . S
C309 C290 1.429 . S
C309 C303 1.429 . S
C309 C310 1.523 . S
C310 C291 1.368 . S
C310 C304 1.368 . S
C310 C309 1.523 . S
C311 C295 1.429 . S
C311 C307 1.429 . S
C311 C312 1.523 . S
C312 C296 1.368 . S
C312 C308 1.368 . S
C312 C311 1.523 . S
H313 C288 0.950 . S
H314 C290 0.950 . S
H315 C291 0.949 . S
H316 C293 0.950 . S
H317 C295 0.950 . S
C318 C319 1.349 . S
C318 C320 1.327 . S
C318 H343 0.950 . S
C319 C318 1.349 . S
C319 C335 1.349 . S
C320 C318 1.327 . S
C320 C339 1.429 . S
C320 H344 0.950 . S
C321 C338 1.574 . S
C321 C340 1.368 . S
C321 H345 0.949 . S
H322 C326 0.949 . S
C323 C324 1.349 . S
C323 C325 1.327 . S
C323 H346 0.950 . S
C324 C323 1.349 . S
C324 C336 1.349 . S
C325 C323 1.327 . S
C325 C341 1.429 . S
C325 H347 0.950 . S
C326 H322 0.949 . S
C326 C334 1.574 . S
C326 C342 1.368 . S
H327 C335 0.950 . S
H328 C333 0.950 . S
H329 C334 0.949 . S
H330 C336 0.950 . S
H331 C337 0.950 . S
H332 C338 0.949 . S
C333 H328 0.950 . S
C333 C335 1.327 . S
C333 C339 1.429 . S
C334 C326 1.574 . S
C334 H329 0.949 . S
C334 C340 1.368 . S
C335 C319 1.349 . S
C335 H327 0.950 . S
C335 C333 1.327 . S
C336 C324 1.349 . S
C336 H330 0.950 . S
C336 C337 1.327 . S
C337 H331 0.950 . S
C337 C336 1.327 . S
C337 C341 1.429 . S
C338 C321 1.574 . S
C338 H332 0.949 . S
C338 C342 1.368 . S
C339 C320 1.429 . S
C339 C333 1.429 . S
C339 C340 1.523 . S
C340 C321 1.368 . S
C340 C334 1.368 . S
C340 C339 1.523 . S
C341 C325 1.429 . S
C341 C337 1.429 . S
C341 C342 1.523 . S
C342 C326 1.368 . S
C342 C338 1.368 . S
C342 C341 1.523 . S
H343 C318 0.950 . S
H344 C320 0.950 . S
H345 C321 0.949 . S
H346 C323 0.950 . S
H347 C325 0.950 . S
C348 C349 1.349 . S
C348 C350 1.327 . S
C348 H373 0.950 . S
C349 C348 1.349 . S
C349 C365 1.349 . S
C350 C348 1.327 . S
C350 C369 1.429 . S
C350 H374 0.950 . S
C351 C368 1.574 . S
C351 C370 1.368 . S
C351 H375 0.949 . S
H352 C356 0.949 . S
C353 C354 1.349 . S
C353 C355 1.327 . S
C353 H376 0.950 . S
C354 C353 1.349 . S
C354 C366 1.349 . S
C355 C353 1.327 . S
C355 C371 1.429 . S
C355 H377 0.950 . S
C356 H352 0.949 . S
C356 C364 1.574 . S
C356 C372 1.368 . S
H357 C365 0.950 . S
H358 C363 0.950 . S
H359 C364 0.949 . S
H360 C366 0.950 . S
H361 C367 0.950 . S
H362 C368 0.949 . S
C363 H358 0.950 . S
C363 C365 1.327 . S
C363 C369 1.429 . S
C364 C356 1.574 . S
C364 H359 0.949 . S
C364 C370 1.368 . S
C365 C349 1.349 . S
C365 H357 0.950 . S
C365 C363 1.327 . S
C366 C354 1.349 . S
C366 H360 0.950 . S
C366 C367 1.327 . S
C367 H361 0.950 . S
C367 C366 1.327 . S
C367 C371 1.429 . S
C368 C351 1.574 . S
C368 H362 0.949 . S
C368 C372 1.368 . S
C369 C350 1.429 . S
C369 C363 1.429 . S
C369 C370 1.523 . S
C370 C351 1.368 . S
C370 C364 1.368 . S
C370 C369 1.523 . S
C371 C355 1.429 . S
C371 C367 1.429 . S
C371 C372 1.523 . S
C372 C356 1.368 . S
C372 C368 1.368 . S
C372 C371 1.523 . S
H373 C348 0.950 . S
H374 C350 0.950 . S
H375 C351 0.949 . S
H376 C353 0.950 . S
H377 C355 0.950 . S
C378 C379 1.349 . S
C378 C380 1.327 . S
C378 H403 0.950 . S
C379 C378 1.349 . S
C379 C395 1.349 . S
C380 C378 1.327 . S
C380 C399 1.429 . S
C380 H404 0.950 . S
C381 C398 1.574 . S
C381 C400 1.368 1_655 S
C381 H405 0.949 . S
H382 C386 0.949 . S
C383 C384 1.349 . S
C383 C385 1.327 . S
C383 H406 0.950 . S
C384 C383 1.349 . S
C384 C396 1.349 . S
C385 C383 1.327 . S
C385 C401 1.429 . S
C385 H407 0.950 . S
C386 H382 0.949 . S
C386 C394 1.574 . S
C386 C402 1.368 1_455 S
H387 C395 0.950 . S
H388 C393 0.950 . S
H389 C394 0.949 . S
H390 C396 0.950 . S
H391 C397 0.950 . S
H392 C398 0.949 . S
C393 H388 0.950 . S
C393 C395 1.327 . S
C393 C399 1.429 . S
C394 C386 1.574 . S
C394 H389 0.949 . S
C394 C400 1.368 . S
C395 C379 1.349 . S
C395 H387 0.950 . S
C395 C393 1.327 . S
C396 C384 1.349 . S
C396 H390 0.950 . S
C396 C397 1.327 . S
C397 H391 0.950 . S
C397 C396 1.327 . S
C397 C401 1.429 . S
C398 C381 1.574 . S
C398 H392 0.949 . S
C398 C402 1.368 . S
C399 C380 1.429 . S
C399 C393 1.429 . S
C399 C400 1.523 . S
C400 C381 1.368 1_455 S
C400 C394 1.368 . S
C400 C399 1.523 . S
C401 C385 1.429 . S
C401 C397 1.429 . S
C401 C402 1.523 . S
C402 C386 1.368 1_655 S
C402 C398 1.368 . S
C402 C401 1.523 . S
H403 C378 0.950 . S
H404 C380 0.950 . S
H405 C381 0.949 . S
H406 C383 0.950 . S
H407 C385 0.950 . S
C408 C409 1.349 . S
C408 C410 1.327 . S
C408 H433 0.950 . S
C409 C408 1.349 . S
C409 C425 1.349 . S
C410 C408 1.327 . S
C410 C429 1.429 . S
C410 H434 0.950 . S
C411 C428 1.574 . S
C411 C430 1.368 . S
C411 H435 0.949 . S
H412 C416 0.949 . S
C413 C414 1.349 . S
C413 C415 1.327 . S
C413 H436 0.950 . S
C414 C413 1.349 . S
C414 C426 1.349 . S
C415 C413 1.327 . S
C415 C431 1.429 . S
C415 H437 0.950 . S
C416 H412 0.949 . S
C416 C424 1.574 . S
C416 C432 1.368 . S
H417 C425 0.950 . S
H418 C423 0.950 . S
H419 C424 0.949 . S
H420 C426 0.950 . S
H421 C427 0.950 . S
H422 C428 0.949 . S
C423 H418 0.950 . S
C423 C425 1.327 . S
C423 C429 1.429 . S
C424 C416 1.574 . S
C424 H419 0.949 . S
C424 C430 1.368 1_565 S
C425 C409 1.349 . S
C425 H417 0.950 . S
C425 C423 1.327 . S
C426 C414 1.349 . S
C426 H420 0.950 . S
C426 C427 1.327 . S
C427 H421 0.950 . S
C427 C426 1.327 . S
C427 C431 1.429 . S
C428 C411 1.574 . S
C428 H422 0.949 . S
C428 C432 1.368 1_545 S
C429 C410 1.429 . S
C429 C423 1.429 . S
C429 C430 1.523 . S
C430 C411 1.368 . S
C430 C424 1.368 1_545 S
C430 C429 1.523 . S
C431 C415 1.429 . S
C431 C427 1.429 . S
C431 C432 1.523 . S
C432 C416 1.368 . S
C432 C428 1.368 1_565 S
C432 C431 1.523 . S
H433 C408 0.950 . S
H434 C410 0.950 . S
H435 C411 0.949 . S
H436 C413 0.950 . S
H437 C415 0.950 . S
C438 C439 1.349 . S
C438 C440 1.327 . S
C438 H463 0.950 . S
C439 C438 1.349 . S
C439 C455 1.349 . S
C440 C438 1.327 . S
C440 C459 1.429 . S
C440 H464 0.950 . S
C441 C458 1.574 . S
C441 C460 1.368 . S
C441 H465 0.949 . S
H442 C446 0.949 . S
C443 C444 1.349 . S
C443 C445 1.327 . S
C443 H466 0.950 . S
C444 C443 1.349 . S
C444 C456 1.349 . S
C445 C443 1.327 . S
C445 C461 1.429 . S
C445 H467 0.950 . S
C446 H442 0.949 . S
C446 C454 1.574 . S
C446 C462 1.368 . S
H447 C455 0.950 . S
H448 C453 0.950 . S
H449 C454 0.949 . S
H450 C456 0.950 . S
H451 C457 0.950 . S
H452 C458 0.949 . S
C453 H448 0.950 . S
C453 C455 1.327 . S
C453 C459 1.429 . S
C454 C446 1.574 . S
C454 H449 0.949 . S
C454 C460 1.368 . S
C455 C439 1.349 . S
C455 H447 0.950 . S
C455 C453 1.327 . S
C456 C444 1.349 . S
C456 H450 0.950 . S
C456 C457 1.327 . S
C457 H451 0.950 . S
C457 C456 1.327 . S
C457 C461 1.429 . S
C458 C441 1.574 . S
C458 H452 0.949 . S
C458 C462 1.368 . S
C459 C440 1.429 . S
C459 C453 1.429 . S
C459 C460 1.523 . S
C460 C441 1.368 . S
C460 C454 1.368 . S
C460 C459 1.523 . S
C461 C445 1.429 . S
C461 C457 1.429 . S
C461 C462 1.523 . S
C462 C446 1.368 . S
C462 C458 1.368 . S
C462 C461 1.523 . S
H463 C438 0.950 . S
H464 C440 0.950 . S
H465 C441 0.949 . S
H466 C443 0.950 . S
H467 C445 0.950 . S
C468 C469 1.349 . S
C468 C470 1.327 . S
C468 H493 0.950 . S
C469 C468 1.349 . S
C469 C485 1.349 . S
C470 C468 1.327 . S
C470 C489 1.429 . S
C470 H494 0.950 . S
C471 C488 1.574 . S
C471 C490 1.368 . S
C471 H495 0.949 . S
H472 C476 0.949 . S
C473 C474 1.349 . S
C473 C475 1.327 . S
C473 H496 0.950 . S
C474 C473 1.349 . S
C474 C486 1.349 . S
C475 C473 1.327 . S
C475 C491 1.429 . S
C475 H497 0.950 . S
C476 H472 0.949 . S
C476 C484 1.574 . S
C476 C492 1.368 . S
H477 C485 0.950 . S
H478 C483 0.950 . S
H479 C484 0.949 . S
H480 C486 0.950 . S
H481 C487 0.950 . S
H482 C488 0.949 . S
C483 H478 0.950 . S
C483 C485 1.327 . S
C483 C489 1.429 . S
C484 C476 1.574 . S
C484 H479 0.949 . S
C484 C490 1.368 1_455 S
C485 C469 1.349 . S
C485 H477 0.950 . S
C485 C483 1.327 . S
C486 C474 1.349 . S
C486 H480 0.950 . S
C486 C487 1.327 . S
C487 H481 0.950 . S
C487 C486 1.327 . S
C487 C491 1.429 . S
C488 C471 1.574 . S
C488 H482 0.949 . S
C488 C492 1.368 1_655 S
C489 C470 1.429 . S
C489 C483 1.429 . S
C489 C490 1.523 . S
C490 C471 1.368 . S
C490 C484 1.368 1_655 S
C490 C489 1.523 . S
C491 C475 1.429 . S
C491 C487 1.429 . S
C491 C492 1.523 . S
C492 C476 1.368 . S
C492 C488 1.368 1_455 S
C492 C491 1.523 . S
H493 C468 0.950 . S
H494 C470 0.950 . S
H495 C471 0.949 . S
H496 C473 0.950 . S
H497 C475 0.950 . S
C498 C499 1.349 . S
C498 C500 1.327 . S
C498 H523 0.950 . S
C499 C498 1.349 . S
C499 C515 1.349 . S
C500 C498 1.327 . S
C500 C519 1.429 . S
C500 H524 0.950 . S
C501 C518 1.574 . S
C501 C520 1.368 . S
C501 H525 0.949 . S
H502 C506 0.949 . S
C503 C504 1.349 . S
C503 C505 1.327 . S
C503 H526 0.950 . S
C504 C503 1.349 . S
C504 C516 1.349 . S
C505 C503 1.327 . S
C505 C521 1.429 . S
C505 H527 0.950 . S
C506 H502 0.949 . S
C506 C514 1.574 . S
C506 C522 1.368 . S
H507 C515 0.950 . S
H508 C513 0.950 . S
H509 C514 0.949 . S
H510 C516 0.950 . S
H511 C517 0.950 . S
H512 C518 0.949 . S
C513 H508 0.950 . S
C513 C515 1.327 . S
C513 C519 1.429 . S
C514 C506 1.574 . S
C514 H509 0.949 . S
C514 C520 1.368 1_545 S
C515 C499 1.349 . S
C515 H507 0.950 . S
C515 C513 1.327 . S
C516 C504 1.349 . S
C516 H510 0.950 . S
C516 C517 1.327 . S
C517 H511 0.950 . S
C517 C516 1.327 . S
C517 C521 1.429 . S
C518 C501 1.574 . S
C518 H512 0.949 . S
C518 C522 1.368 1_565 S
C519 C500 1.429 . S
C519 C513 1.429 . S
C519 C520 1.523 . S
C520 C501 1.368 . S
C520 C514 1.368 1_565 S
C520 C519 1.523 . S
C521 C505 1.429 . S
C521 C517 1.429 . S
C521 C522 1.523 . S
C522 C506 1.368 . S
C522 C518 1.368 1_545 S
C522 C521 1.523 . S
H523 C498 0.950 . S
H524 C500 0.950 . S
H525 C501 0.949 . S
H526 C503 0.950 . S
H527 C505 0.950 . S
C528 C529 1.349 . S
C528 C530 1.327 . S
C528 H553 0.950 . S
C529 C528 1.349 . S
C529 C545 1.349 . S
C530 C528 1.327 . S
C530 C549 1.429 . S
C530 H554 0.950 . S
C531 C548 1.574 . S
C531 C550 1.368 . S
C531 H555 0.949 . S
H532 C536 0.949 . S
C533 C534 1.349 . S
C533 C535 1.327 . S
C533 H556 0.950 . S
C534 C533 1.349 . S
C534 C546 1.349 . S
C535 C533 1.327 . S
C535 C551 1.429 . S
C535 H557 0.950 . S
C536 H532 0.949 . S
C536 C544 1.574 . S
C536 C552 1.368 . S
H537 C545 0.950 . S
H538 C543 0.950 . S
H539 C544 0.949 . S
H540 C546 0.950 . S
H541 C547 0.950 . S
H542 C548 0.949 . S
C543 H538 0.950 . S
C543 C545 1.327 . S
C543 C549 1.429 . S
C544 C536 1.574 . S
C544 H539 0.949 . S
C544 C550 1.368 . S
C545 C529 1.349 . S
C545 H537 0.950 . S
C545 C543 1.327 . S
C546 C534 1.349 . S
C546 H540 0.950 . S
C546 C547 1.327 . S
C547 H541 0.950 . S
C547 C546 1.327 . S
C547 C551 1.429 . S
C548 C531 1.574 . S
C548 H542 0.949 . S
C548 C552 1.368 . S
C549 C530 1.429 . S
C549 C543 1.429 . S
C549 C550 1.523 . S
C550 C531 1.368 . S
C550 C544 1.368 . S
C550 C549 1.523 . S
C551 C535 1.429 . S
C551 C547 1.429 . S
C551 C552 1.523 . S
C552 C536 1.368 . S
C552 C548 1.368 . S
C552 C551 1.523 . S
H553 C528 0.950 . S
H554 C530 0.950 . S
H555 C531 0.949 . S
H556 C533 0.950 . S
H557 C535 0.950 . S
C558 C559 1.349 . S
C558 C560 1.327 . S
C558 H583 0.950 . S
C559 C558 1.349 . S
C559 C575 1.349 . S
C560 C558 1.327 . S
C560 C579 1.429 . S
C560 H584 0.950 . S
C561 C578 1.574 1_655 S
C561 C580 1.368 . S
C561 H585 0.949 . S
H562 C566 0.949 . S
C563 C564 1.349 . S
C563 C565 1.327 . S
C563 H586 0.950 . S
C564 C563 1.349 . S
C564 C576 1.349 . S
C565 C563 1.327 . S
C565 C581 1.429 . S
C565 H587 0.950 . S
C566 H562 0.949 . S
C566 C574 1.574 1_455 S
C566 C582 1.368 . S
H567 C575 0.950 . S
H568 C573 0.950 . S
H569 C574 0.949 . S
H570 C576 0.950 . S
H571 C577 0.950 . S
H572 C578 0.949 . S
C573 H568 0.950 . S
C573 C575 1.327 . S
C573 C579 1.429 . S
C574 C566 1.574 1_655 S
C574 H569 0.949 . S
C574 C580 1.368 . S
C575 C559 1.349 . S
C575 H567 0.950 . S
C575 C573 1.327 . S
C576 C564 1.349 . S
C576 H570 0.950 . S
C576 C577 1.327 . S
C577 H571 0.950 . S
C577 C576 1.327 . S
C577 C581 1.429 . S
C578 C561 1.574 1_455 S
C578 H572 0.949 . S
C578 C582 1.368 . S
C579 C560 1.429 . S
C579 C573 1.429 . S
C579 C580 1.523 . S
C580 C561 1.368 . S
C580 C574 1.368 . S
C580 C579 1.523 . S
C581 C565 1.429 . S
C581 C577 1.429 . S
C581 C582 1.523 . S
C582 C566 1.368 . S
C582 C578 1.368 . S
C582 C581 1.523 . S
H583 C558 0.950 . S
H584 C560 0.950 . S
H585 C561 0.949 . S
H586 C563 0.950 . S
H587 C565 0.950 . S
C588 C589 1.349 . S
C588 C590 1.327 . S
C588 H613 0.950 . S
C589 C588 1.349 . S
C589 C605 1.349 . S
C590 C588 1.327 . S
C590 C609 1.429 . S
C590 H614 0.950 . S
C591 C608 1.574 1_556 S
C591 C610 1.368 . S
C591 H615 0.949 . S
H592 C596 0.949 . S
C593 C594 1.349 . S
C593 C595 1.327 . S
C593 H616 0.950 . S
C594 C593 1.349 . S
C594 C606 1.349 . S
C595 C593 1.327 . S
C595 C611 1.429 . S
C595 H617 0.950 . S
C596 H592 0.949 . S
C596 C604 1.574 1_554 S
C596 C612 1.368 . S
H597 C605 0.950 . S
H598 C603 0.950 . S
H599 C604 0.949 . S
H600 C606 0.950 . S
H601 C607 0.950 . S
H602 C608 0.949 . S
C603 H598 0.950 . S
C603 C605 1.327 . S
C603 C609 1.429 . S
C604 C596 1.574 1_556 S
C604 H599 0.949 . S
C604 C610 1.368 1_545 S
C605 C589 1.349 . S
C605 H597 0.950 . S
C605 C603 1.327 . S
C606 C594 1.349 . S
C606 H600 0.950 . S
C606 C607 1.327 . S
C607 H601 0.950 . S
C607 C606 1.327 . S
C607 C611 1.429 . S
C608 C591 1.574 1_554 S
C608 H602 0.949 . S
C608 C612 1.368 1_565 S
C609 C590 1.429 . S
C609 C603 1.429 . S
C609 C610 1.523 . S
C610 C591 1.368 . S
C610 C604 1.368 1_565 S
C610 C609 1.523 . S
C611 C595 1.429 . S
C611 C607 1.429 . S
C611 C612 1.523 . S
C612 C596 1.368 . S
C612 C608 1.368 1_545 S
C612 C611 1.523 . S
H613 C588 0.950 . S
H614 C590 0.950 . S
H615 C591 0.949 . S
H616 C593 0.950 . S
H617 C595 0.950 . S
C618 C619 1.349 . S
C618 C620 1.327 . S
C618 H643 0.950 . S
C619 C618 1.349 . S
C619 C635 1.349 . S
C620 C618 1.327 . S
C620 C639 1.429 . S
C620 H644 0.950 . S
C621 C638 1.574 . S
C621 C640 1.368 . S
C621 H645 0.949 . S
H622 C626 0.949 . S
C623 C624 1.349 . S
C623 C625 1.327 . S
C623 H646 0.950 . S
C624 C623 1.349 . S
C624 C636 1.349 . S
C625 C623 1.327 . S
C625 C641 1.429 . S
C625 H647 0.950 . S
C626 H622 0.949 . S
C626 C634 1.574 . S
C626 C642 1.368 . S
H627 C635 0.950 . S
H628 C633 0.950 . S
H629 C634 0.949 . S
H630 C636 0.950 . S
H631 C637 0.950 . S
H632 C638 0.949 . S
C633 H628 0.950 . S
C633 C635 1.327 . S
C633 C639 1.429 . S
C634 C626 1.574 . S
C634 H629 0.949 . S
C634 C640 1.368 . S
C635 C619 1.349 . S
C635 H627 0.950 . S
C635 C633 1.327 . S
C636 C624 1.349 . S
C636 H630 0.950 . S
C636 C637 1.327 . S
C637 H631 0.950 . S
C637 C636 1.327 . S
C637 C641 1.429 . S
C638 C621 1.574 . S
C638 H632 0.949 . S
C638 C642 1.368 . S
C639 C620 1.429 . S
C639 C633 1.429 . S
C639 C640 1.523 . S
C640 C621 1.368 . S
C640 C634 1.368 . S
C640 C639 1.523 . S
C641 C625 1.429 . S
C641 C637 1.429 . S
C641 C642 1.523 . S
C642 C626 1.368 . S
C642 C638 1.368 . S
C642 C641 1.523 . S
H643 C618 0.950 . S
H644 C620 0.950 . S
H645 C621 0.949 . S
H646 C623 0.950 . S
H647 C625 0.950 . S
C648 C649 1.349 . S
C648 C650 1.327 . S
C648 H673 0.950 . S
C649 C648 1.349 . S
C649 C665 1.349 . S
C650 C648 1.327 . S
C650 C669 1.429 . S
C650 H674 0.950 . S
C651 C668 1.574 1_455 S
C651 C670 1.368 . S
C651 H675 0.949 . S
H652 C656 0.949 . S
C653 C654 1.349 . S
C653 C655 1.327 . S
C653 H676 0.950 . S
C654 C653 1.349 . S
C654 C666 1.349 . S
C655 C653 1.327 . S
C655 C671 1.429 . S
C655 H677 0.950 . S
C656 H652 0.949 . S
C656 C664 1.574 1_655 S
C656 C672 1.368 . S
H657 C665 0.950 . S
H658 C663 0.950 . S
H659 C664 0.949 . S
H660 C666 0.950 . S
H661 C667 0.950 . S
H662 C668 0.949 . S
C663 H658 0.950 . S
C663 C665 1.327 . S
C663 C669 1.429 . S
C664 C656 1.574 1_455 S
C664 H659 0.949 . S
C664 C670 1.368 . S
C665 C649 1.349 . S
C665 H657 0.950 . S
C665 C663 1.327 . S
C666 C654 1.349 . S
C666 H660 0.950 . S
C666 C667 1.327 . S
C667 H661 0.950 . S
C667 C666 1.327 . S
C667 C671 1.429 . S
C668 C651 1.574 1_655 S
C668 H662 0.949 . S
C668 C672 1.368 . S
C669 C650 1.429 . S
C669 C663 1.429 . S
C669 C670 1.523 . S
C670 C651 1.368 . S
C670 C664 1.368 . S
C670 C669 1.523 . S
C671 C655 1.429 . S
C671 C667 1.429 . S
C671 C672 1.523 . S
C672 C656 1.368 . S
C672 C668 1.368 . S
C672 C671 1.523 . S
H673 C648 0.950 . S
H674 C650 0.950 . S
H675 C651 0.949 . S
H676 C653 0.950 . S
H677 C655 0.950 . S
C678 C679 1.349 . S
C678 C680 1.327 . S
C678 H703 0.950 . S
C679 C678 1.349 . S
C679 C695 1.349 . S
C680 C678 1.327 . S
C680 C699 1.429 . S
C680 H704 0.950 . S
C681 C698 1.574 1_554 S
C681 C700 1.368 1_545 S
C681 H705 0.949 . S
H682 C686 0.949 . S
C683 C684 1.349 . S
C683 C685 1.327 . S
C683 H706 0.950 . S
C684 C683 1.349 . S
C684 C696 1.349 . S
C685 C683 1.327 . S
C685 C701 1.429 . S
C685 H707 0.950 . S
C686 H682 0.949 . S
C686 C694 1.574 1_556 S
C686 C702 1.368 1_565 S
H687 C695 0.950 . S
H688 C693 0.938 1_545 S
H689 C694 0.949 . S
H690 C696 0.950 . S
H691 C697 0.938 1_565 S
H692 C698 0.949 . S
C693 H688 0.938 1_565 S
C693 C695 1.327 . S
C693 C699 1.429 . S
C694 C686 1.574 1_554 S
C694 H689 0.949 . S
C694 C700 1.368 . S
C695 C679 1.349 . S
C695 H687 0.950 . S
C695 C693 1.327 . S
C696 C684 1.349 . S
C696 H690 0.950 . S
C696 C697 1.327 . S
C697 H691 0.938 1_545 S
C697 C696 1.327 . S
C697 C701 1.429 . S
C698 C681 1.574 1_556 S
C698 H692 0.949 . S
C698 C702 1.368 . S
C699 C680 1.429 . S
C699 C693 1.429 . S
C699 C700 1.523 . S
C700 C681 1.368 1_565 S
C700 C694 1.368 . S
C700 C699 1.523 . S
C701 C685 1.429 . S
C701 C697 1.429 . S
C701 C702 1.523 . S
C702 C686 1.368 1_545 S
C702 C698 1.368 . S
C702 C701 1.523 . S
H703 C678 0.950 . S
H704 C680 0.950 . S
H705 C681 0.949 . S
H706 C683 0.950 . S
H707 C685 0.950 . S
C708 C709 1.349 . S
C708 C710 1.327 . S
C708 H733 0.950 . S
C709 C708 1.349 . S
C709 C725 1.349 . S
C710 C708 1.327 . S
C710 C729 1.429 . S
C710 H734 0.950 . S
C711 C728 1.574 1_655 S
C711 C730 1.368 . S
C711 H735 0.949 . S
H712 C716 0.949 . S
C713 C714 1.349 . S
C713 C715 1.327 . S
C713 H736 0.950 . S
C714 C713 1.349 . S
C714 C726 1.349 . S
C715 C713 1.327 . S
C715 C731 1.429 . S
C715 H737 0.950 . S
C716 H712 0.949 . S
C716 C724 1.574 1_455 S
C716 C732 1.368 . S
H717 C725 0.950 . S
H718 C723 0.950 . S
H719 C724 0.949 . S
H720 C726 0.950 . S
H721 C727 0.950 . S
H722 C728 0.949 . S
C723 H718 0.950 . S
C723 C725 1.327 . S
C723 C729 1.429 . S
C724 C716 1.574 1_655 S
C724 H719 0.949 . S
C724 C730 1.368 . S
C725 C709 1.349 . S
C725 H717 0.950 . S
C725 C723 1.327 . S
C726 C714 1.349 . S
C726 H720 0.950 . S
C726 C727 1.327 . S
C727 H721 0.950 . S
C727 C726 1.327 . S
C727 C731 1.429 . S
C728 C711 1.574 1_455 S
C728 H722 0.949 . S
C728 C732 1.368 . S
C729 C710 1.429 . S
C729 C723 1.429 . S
C729 C730 1.523 . S
C730 C711 1.368 . S
C730 C724 1.368 . S
C730 C729 1.523 . S
C731 C715 1.429 . S
C731 C727 1.429 . S
C731 C732 1.523 . S
C732 C716 1.368 . S
C732 C728 1.368 . S
C732 C731 1.523 . S
H733 C708 0.950 . S
H734 C710 0.950 . S
H735 C711 0.949 . S
H736 C713 0.950 . S
H737 C715 0.950 . S
C738 C739 1.349 . S
C738 C740 1.327 . S
C738 H763 0.950 . S
C739 C738 1.349 . S
C739 C755 1.349 . S
C740 C738 1.327 . S
C740 C759 1.429 . S
C740 H764 0.950 . S
C741 C758 1.574 1_545 S
C741 C760 1.368 . S
C741 H765 0.949 . S
H742 C746 0.949 . S
C743 C744 1.349 . S
C743 C745 1.327 . S
C743 H766 0.950 . S
C744 C743 1.349 . S
C744 C756 1.349 . S
C745 C743 1.327 . S
C745 C761 1.429 . S
C745 H767 0.950 . S
C746 H742 0.949 . S
C746 C754 1.574 1_565 S
C746 C762 1.368 . S
H747 C755 0.950 . S
H748 C753 0.950 . S
H749 C754 0.949 . S
H750 C756 0.950 . S
H751 C757 0.950 . S
H752 C758 0.949 . S
C753 H748 0.950 . S
C753 C755 1.327 . S
C753 C759 1.429 . S
C754 C746 1.574 1_545 S
C754 H749 0.949 . S
C754 C760 1.368 . S
C755 C739 1.349 . S
C755 H747 0.950 . S
C755 C753 1.327 . S
C756 C744 1.349 . S
C756 H750 0.950 . S
C756 C757 1.327 . S
C757 H751 0.950 . S
C757 C756 1.327 . S
C757 C761 1.429 . S
C758 C741 1.574 1_565 S
C758 H752 0.949 . S
C758 C762 1.368 . S
C759 C740 1.429 . S
C759 C753 1.429 . S
C759 C760 1.523 . S
C760 C741 1.368 . S
C760 C754 1.368 . S
C760 C759 1.523 . S
C761 C745 1.429 . S
C761 C757 1.429 . S
C761 C762 1.523 . S
C762 C746 1.368 . S
C762 C758 1.368 . S
C762 C761 1.523 . S
H763 C738 0.950 . S
H764 C740 0.950 . S
H765 C741 0.949 . S
H766 C743 0.950 . S
H767 C745 0.950 . S
C768 C769 1.349 . S
C768 C770 1.327 . S
C768 H793 0.950 . S
C769 C768 1.349 . S
C769 C785 1.349 . S
C770 C768 1.327 . S
C770 C789 1.429 . S
C770 H794 0.950 . S
C771 C788 1.574 . S
C771 C790 1.368 . S
C771 H795 0.949 . S
H772 C776 0.949 . S
C773 C774 1.349 . S
C773 C775 1.327 . S
C773 H796 0.950 . S
C774 C773 1.349 . S
C774 C786 1.349 . S
C775 C773 1.327 . S
C775 C791 1.429 . S
C775 H797 0.950 . S
C776 H772 0.949 . S
C776 C784 1.574 . S
C776 C792 1.368 . S
H777 C785 0.950 . S
H778 C783 0.950 . S
H779 C784 0.949 . S
H780 C786 0.950 . S
H781 C787 0.950 . S
H782 C788 0.949 . S
C783 H778 0.950 . S
C783 C785 1.327 . S
C783 C789 1.429 . S
C784 C776 1.574 . S
C784 H779 0.949 . S
C784 C790 1.368 . S
C785 C769 1.349 . S
C785 H777 0.950 . S
C785 C783 1.327 . S
C786 C774 1.349 . S
C786 H780 0.950 . S
C786 C787 1.327 . S
C787 H781 0.950 . S
C787 C786 1.327 . S
C787 C791 1.429 . S
C788 C771 1.574 . S
C788 H782 0.949 . S
C788 C792 1.368 . S
C789 C770 1.429 . S
C789 C783 1.429 . S
C789 C790 1.523 . S
C790 C771 1.368 . S
C790 C784 1.368 . S
C790 C789 1.523 . S
C791 C775 1.429 . S
C791 C787 1.429 . S
C791 C792 1.523 . S
C792 C776 1.368 . S
C792 C788 1.368 . S
C792 C791 1.523 . S
H793 C768 0.950 . S
H794 C770 0.950 . S
H795 C771 0.949 . S
H796 C773 0.950 . S
H797 C775 0.950 . S
C798 C799 1.349 . S
C798 C800 1.327 . S
C798 H823 0.950 . S
C799 C798 1.349 . S
C799 C815 1.349 . S
C800 C798 1.327 . S
C800 C819 1.429 . S
C800 H824 0.950 . S
C801 C818 1.574 1_655 S
C801 C820 1.368 . S
C801 H825 0.949 . S
H802 C806 0.949 . S
C803 C804 1.349 . S
C803 C805 1.327 . S
C803 H826 0.950 . S
C804 C803 1.349 . S
C804 C816 1.349 . S
C805 C803 1.327 . S
C805 C821 1.429 . S
C805 H827 0.950 . S
C806 H802 0.949 . S
C806 C814 1.574 1_455 S
C806 C822 1.368 . S
H807 C815 0.950 . S
H808 C813 0.950 . S
H809 C814 0.949 . S
H810 C816 0.950 . S
H811 C817 0.950 . S
H812 C818 0.949 . S
C813 H808 0.950 . S
C813 C815 1.327 . S
C813 C819 1.429 . S
C814 C806 1.574 1_655 S
C814 H809 0.949 . S
C814 C820 1.368 . S
C815 C799 1.349 . S
C815 H807 0.950 . S
C815 C813 1.327 . S
C816 C804 1.349 . S
C816 H810 0.950 . S
C816 C817 1.327 . S
C817 H811 0.950 . S
C817 C816 1.327 . S
C817 C821 1.429 . S
C818 C801 1.574 1_455 S
C818 H812 0.949 . S
C818 C822 1.368 . S
C819 C800 1.429 . S
C819 C813 1.429 . S
C819 C820 1.523 . S
C820 C801 1.368 . S
C820 C814 1.368 . S
C820 C819 1.523 . S
C821 C805 1.429 . S
C821 C817 1.429 . S
C821 C822 1.523 . S
C822 C806 1.368 . S
C822 C818 1.368 . S
C822 C821 1.523 . S
H823 C798 0.950 . S
H824 C800 0.950 . S
H825 C801 0.949 . S
H826 C803 0.950 . S
H827 C805 0.950 . S
C828 C829 1.349 . S
C828 C830 1.327 . S
C828 H853 0.950 . S
C829 C828 1.349 . S
C829 C845 1.349 . S
C830 C828 1.327 . S
C830 C849 1.429 . S
C830 H854 0.950 . S
C831 C848 1.574 1_565 S
C831 C850 1.368 . S
C831 H855 0.949 . S
H832 C836 0.949 . S
C833 C834 1.349 . S
C833 C835 1.327 . S
C833 H856 0.950 . S
C834 C833 1.349 . S
C834 C846 1.349 . S
C835 C833 1.327 . S
C835 C851 1.429 . S
C835 H857 0.950 . S
C836 H832 0.949 . S
C836 C844 1.574 1_545 S
C836 C852 1.368 . S
H837 C845 0.950 . S
H838 C843 0.950 . S
H839 C844 0.949 . S
H840 C846 0.950 . S
H841 C847 0.950 . S
H842 C848 0.949 . S
C843 H838 0.950 . S
C843 C845 1.327 . S
C843 C849 1.429 . S
C844 C836 1.574 1_565 S
C844 H839 0.949 . S
C844 C850 1.368 . S
C845 C829 1.349 . S
C845 H837 0.950 . S
C845 C843 1.327 . S
C846 C834 1.349 . S
C846 H840 0.950 . S
C846 C847 1.327 . S
C847 H841 0.950 . S
C847 C846 1.327 . S
C847 C851 1.429 . S
C848 C831 1.574 1_545 S
C848 H842 0.949 . S
C848 C852 1.368 . S
C849 C830 1.429 . S
C849 C843 1.429 . S
C849 C850 1.523 . S
C850 C831 1.368 . S
C850 C844 1.368 . S
C850 C849 1.523 . S
C851 C835 1.429 . S
C851 C847 1.429 . S
C851 C852 1.523 . S
C852 C836 1.368 . S
C852 C848 1.368 . S
C852 C851 1.523 . S
H853 C828 0.950 . S
H854 C830 0.950 . S
H855 C831 0.949 . S
H856 C833 0.950 . S
H857 C835 0.950 . S
C858 C859 1.349 . S
C858 C860 1.327 . S
C858 H883 0.950 . S
C859 C858 1.349 . S
C859 C875 1.349 . S
C860 C858 1.327 . S
C860 C879 1.429 . S
C860 H884 0.950 . S
C861 C878 1.574 . S
C861 C880 1.368 . S
C861 H885 0.949 . S
H862 C866 0.949 . S
C863 C864 1.349 . S
C863 C865 1.327 . S
C863 H886 0.950 . S
C864 C863 1.349 . S
C864 C876 1.349 . S
C865 C863 1.327 . S
C865 C881 1.429 . S
C865 H887 0.950 . S
C866 H862 0.949 . S
C866 C874 1.574 . S
C866 C882 1.368 . S
H867 C875 0.950 . S
H868 C873 0.950 . S
H869 C874 0.949 . S
H870 C876 0.950 . S
H871 C877 0.950 . S
H872 C878 0.949 . S
C873 H868 0.950 . S
C873 C875 1.327 . S
C873 C879 1.429 . S
C874 C866 1.574 . S
C874 H869 0.949 . S
C874 C880 1.368 . S
C875 C859 1.349 . S
C875 H867 0.950 . S
C875 C873 1.327 . S
C876 C864 1.349 . S
C876 H870 0.950 . S
C876 C877 1.327 . S
C877 H871 0.950 . S
C877 C876 1.327 . S
C877 C881 1.429 . S
C878 C861 1.574 . S
C878 H872 0.949 . S
C878 C882 1.368 . S
C879 C860 1.429 . S
C879 C873 1.429 . S
C879 C880 1.523 . S
C880 C861 1.368 . S
C880 C874 1.368 . S
C880 C879 1.523 . S
C881 C865 1.429 . S
C881 C877 1.429 . S
C881 C882 1.523 . S
C882 C866 1.368 . S
C882 C878 1.368 . S
C882 C881 1.523 . S
H883 C858 0.950 . S
H884 C860 0.950 . S
H885 C861 0.949 . S
H886 C863 0.950 . S
H887 C865 0.950 . S
C169 C112 2.261 . S
C174 C1 2.257 . S
C199 C27 2.258 . S
C204 C126 2.261 . S
C229 C29 2.257 . S
C234 C141 2.257 . S
C259 C43 2.257 . S
C264 C154 2.261 . S
C289 C84 2.261 . S
C294 C57 2.257 . S
C319 C71 2.257 . S
C324 C99 2.257 . S
C349 C55 1.446 . S
C354 C13 1.446 . S
C379 C69 1.446 . S
C384 C15 1.446 . S
C409 C83 1.446 . S
C414 C41 1.446 . S
C439 C96 1.446 . S
C444 C138 1.446 . S
C469 C111 1.446 . S
C474 C153 1.446 . S
C499 C124 1.446 . S
C504 C166 1.446 . S
C529 C0 1.851 . S
C534 C127 1.848 . S
C559 C26 1.851 . S
C564 C140 1.851 . S
C589 C28 1.851 . S
C594 C155 1.848 . S
C619 C85 1.848 . S
C624 C42 1.851 . S
C649 C56 1.851 . S
C654 C98 1.851 . S
C679 C113 1.848 . S
C684 C70 1.851 . S
C709 C167 1.382 . S
C714 C12 1.383 . S
C739 C14 1.383 . S
C744 C97 1.382 . S
C769 C110 1.383 . S
C774 C40 1.383 . S
C799 C54 1.383 . S
C804 C125 1.382 . S
C829 C68 1.383 . S
C834 C139 1.382 . S
C859 C152 1.383 . S
C864 C82 1.383 . S
