# Generated by pormake.
# Topology gis, (4)-cn, num edge types: 1
# Building blocks:
#     Node 0, Type 0, BuildingBlock: QUQFOY_clean_sbu_1, # of connection points: 4
#     Node 1, Type 0, BuildingBlock: QUQFOY_clean_sbu_1, # of connection points: 4
#     Node 2, Type 0, BuildingBlock: QUQFOY_clean_sbu_1, # of connection points: 4
#     Node 3, Type 0, BuildingBlock: QUQFOY_clean_sbu_1, # of connection points: 4
#     Node 4, Type 0, BuildingBlock: QUQFOY_clean_sbu_1, # of connection points: 4
#     Node 5, Type 0, BuildingBlock: QUQFOY_clean_sbu_1, # of connection points: 4
#     Node 6, Type 0, BuildingBlock: QUQFOY_clean_sbu_1, # of connection points: 4
#     Node 7, Type 0, BuildingBlock: QUQFOY_clean_sbu_1, # of connection points: 4
#     Node 8, Type 0, BuildingBlock: QUQFOY_clean_sbu_1, # of connection points: 4
#     Node 9, Type 0, BuildingBlock: QUQFOY_clean_sbu_1, # of connection points: 4
#     Node 10, Type 0, BuildingBlock: QUQFOY_clean_sbu_1, # of connection points: 4
#     Node 11, Type 0, BuildingBlock: QUQFOY_clean_sbu_1, # of connection points: 4
#     Node 12, Type 0, BuildingBlock: QUQFOY_clean_sbu_1, # of connection points: 4
#     Node 13, Type 0, BuildingBlock: QUQFOY_clean_sbu_1, # of connection points: 4
#     Node 14, Type 0, BuildingBlock: QUQFOY_clean_sbu_1, # of connection points: 4
#     Node 15, Type 0, BuildingBlock: QUQFOY_clean_sbu_1, # of connection points: 4
#     Edge 16, Type (0, 0), BuildingBlock: KIFKEQ_clean_linker_1, # of connection points: 2
#     Edge 17, Type (0, 0), BuildingBlock: KIFKEQ_clean_linker_1, # of connection points: 2
#     Edge 18, Type (0, 0), BuildingBlock: KIFKEQ_clean_linker_1, # of connection points: 2
#     Edge 19, Type (0, 0), BuildingBlock: KIFKEQ_clean_linker_1, # of connection points: 2
#     Edge 20, Type (0, 0), BuildingBlock: KIFKEQ_clean_linker_1, # of connection points: 2
#     Edge 21, Type (0, 0), BuildingBlock: KIFKEQ_clean_linker_1, # of connection points: 2
#     Edge 22, Type (0, 0), BuildingBlock: KIFKEQ_clean_linker_1, # of connection points: 2
#     Edge 23, Type (0, 0), BuildingBlock: KIFKEQ_clean_linker_1, # of connection points: 2
#     Edge 24, Type (0, 0), BuildingBlock: KIFKEQ_clean_linker_1, # of connection points: 2
#     Edge 25, Type (0, 0), BuildingBlock: KIFKEQ_clean_linker_1, # of connection points: 2
#     Edge 26, Type (0, 0), BuildingBlock: KIFKEQ_clean_linker_1, # of connection points: 2
#     Edge 27, Type (0, 0), BuildingBlock: KIFKEQ_clean_linker_1, # of connection points: 2
#     Edge 28, Type (0, 0), BuildingBlock: KIFKEQ_clean_linker_1, # of connection points: 2
#     Edge 29, Type (0, 0), BuildingBlock: KIFKEQ_clean_linker_1, # of connection points: 2
#     Edge 30, Type (0, 0), BuildingBlock: KIFKEQ_clean_linker_1, # of connection points: 2
#     Edge 31, Type (0, 0), BuildingBlock: KIFKEQ_clean_linker_1, # of connection points: 2
#     Edge 32, Type (0, 0), BuildingBlock: KIFKEQ_clean_linker_1, # of connection points: 2
#     Edge 33, Type (0, 0), BuildingBlock: KIFKEQ_clean_linker_1, # of connection points: 2
#     Edge 34, Type (0, 0), BuildingBlock: KIFKEQ_clean_linker_1, # of connection points: 2
#     Edge 35, Type (0, 0), BuildingBlock: KIFKEQ_clean_linker_1, # of connection points: 2
#     Edge 36, Type (0, 0), BuildingBlock: KIFKEQ_clean_linker_1, # of connection points: 2
#     Edge 37, Type (0, 0), BuildingBlock: KIFKEQ_clean_linker_1, # of connection points: 2
#     Edge 38, Type (0, 0), BuildingBlock: KIFKEQ_clean_linker_1, # of connection points: 2
#     Edge 39, Type (0, 0), BuildingBlock: KIFKEQ_clean_linker_1, # of connection points: 2
#     Edge 40, Type (0, 0), BuildingBlock: KIFKEQ_clean_linker_1, # of connection points: 2
#     Edge 41, Type (0, 0), BuildingBlock: KIFKEQ_clean_linker_1, # of connection points: 2
#     Edge 42, Type (0, 0), BuildingBlock: KIFKEQ_clean_linker_1, # of connection points: 2
#     Edge 43, Type (0, 0), BuildingBlock: KIFKEQ_clean_linker_1, # of connection points: 2
#     Edge 44, Type (0, 0), BuildingBlock: KIFKEQ_clean_linker_1, # of connection points: 2
#     Edge 45, Type (0, 0), BuildingBlock: KIFKEQ_clean_linker_1, # of connection points: 2
#     Edge 46, Type (0, 0), BuildingBlock: KIFKEQ_clean_linker_1, # of connection points: 2
#     Edge 47, Type (0, 0), BuildingBlock: KIFKEQ_clean_linker_1, # of connection points: 2
# Relax obj value: 0.009
# Max RMSD: 0.059
# Mean RMSD: 0.059
data_MOF--net-gis--node1-QUQFOY_clean_sbu_1--edge1-KIFKEQ_clean_linker_1
_symmetry_space_group_name_H-M    P1
_symmetry_Int_Tables_number       1
_symmetry_cell_setting            triclinic
loop_
_symmetry_equiv_pos_as_xyz
'x, y, z'
_cell_length_a     54.597892
_cell_length_b     54.585121
_cell_length_c     42.037322
_cell_angle_alpha  90.000318
_cell_angle_beta   90.00592
_cell_angle_gamma 90.513758
loop_
_atom_site_label
_atom_site_type_symbol
_atom_site_fract_x
_atom_site_fract_y
_atom_site_fract_z
_atom_type_partial_charge
O0 O 0.16082 0.65968 0.15741 0.0
Cd1 Cd 0.15413 0.62377 0.17019 0.0
Cd2 Cd 0.14842 0.61918 0.10653 0.0
O3 O 0.15935 0.65574 0.10518 0.0
O4 O 0.16855 0.62047 0.21362 0.0
O5 O 0.1831 0.6012 0.17149 0.0
C6 C 0.18499 0.60651 0.20135 0.0
C7 C 0.16568 0.58867 0.07483 0.0
C8 C 0.16268 0.66896 0.12977 0.0
C9 C 0.10407 0.60938 0.14785 0.0
O10 O 0.1128 0.61191 0.12 0.0
O11 O 0.11772 0.61236 0.17211 0.0
O12 O 0.15146 0.60505 0.06292 0.0
O13 O 0.17128 0.59047 0.10461 0.0
O14 O 0.65418 0.86173 0.36866 0.0
Cd15 Cd 0.64935 0.89786 0.35622 0.0
Cd16 Cd 0.64653 0.90295 0.4197 0.0
O17 O 0.65794 0.86664 0.42049 0.0
O18 O 0.66378 0.9015 0.3128 0.0
O19 O 0.67925 0.91965 0.35545 0.0
C20 C 0.68082 0.91486 0.32541 0.0
C21 C 0.66445 0.93372 0.45094 0.0
C22 C 0.65829 0.85284 0.39608 0.0
C23 C 0.60078 0.91265 0.38083 0.0
O24 O 0.61036 0.90954 0.4081 0.0
O25 O 0.61361 0.91024 0.35578 0.0
O26 O 0.65065 0.91694 0.46331 0.0
O27 O 0.66925 0.93221 0.42091 0.0
O28 O 0.36063 0.36189 0.65745 0.0
Cd29 Cd 0.36732 0.39779 0.67026 0.0
Cd30 Cd 0.37305 0.40241 0.60659 0.0
O31 O 0.36213 0.36584 0.60522 0.0
O32 O 0.35289 0.40106 0.71368 0.0
O33 O 0.33834 0.42035 0.67157 0.0
C34 C 0.33645 0.41502 0.70143 0.0
C35 C 0.35583 0.43291 0.57486 0.0
C36 C 0.35879 0.35261 0.6298 0.0
C37 C 0.41739 0.41219 0.64797 0.0
O38 O 0.40866 0.40967 0.62011 0.0
O39 O 0.40373 0.40919 0.67222 0.0
O40 O 0.37005 0.41653 0.56297 0.0
O41 O 0.35019 0.43111 0.60464 0.0
O42 O 0.9111 0.11199 0.9082 0.0
Cd43 Cd 0.87493 0.11858 0.91978 0.0
Cd44 Cd 0.87211 0.12367 0.8563 0.0
O45 O 0.90786 0.11129 0.85587 0.0
O46 O 0.8708 0.10458 0.96338 0.0
O47 O 0.85221 0.08932 0.92097 0.0
C48 C 0.857 0.0878 0.951 0.0
C49 C 0.84065 0.10667 0.82547 0.0
C50 C 0.92068 0.10888 0.88092 0.0
C51 C 0.86318 0.16869 0.89616 0.0
O52 O 0.86729 0.1598 0.86874 0.0
O53 O 0.86353 0.15488 0.92058 0.0
O54 O 0.85769 0.12003 0.81287 0.0
O55 O 0.84221 0.10187 0.85551 0.0
O56 O 0.15489 0.36218 0.86789 0.0
Cd57 Cd 0.15011 0.3987 0.85692 0.0
Cd58 Cd 0.14829 0.40183 0.91999 0.0
O59 O 0.16173 0.36639 0.91928 0.0
O60 O 0.16392 0.4031 0.81323 0.0
O61 O 0.1803 0.42007 0.85612 0.0
C62 C 0.18138 0.41587 0.8259 0.0
C63 C 0.16541 0.43351 0.95042 0.0
C64 C 0.16078 0.35294 0.89457 0.0
C65 C 0.1016 0.41101 0.88335 0.0
O66 O 0.1115 0.40593 0.90991 0.0
O67 O 0.11449 0.41157 0.85814 0.0
O68 O 0.15299 0.41597 0.96346 0.0
O69 O 0.16925 0.43233 0.92013 0.0
O70 O 0.86012 0.86262 0.15891 0.0
Cd71 Cd 0.86668 0.89902 0.16988 0.0
Cd72 Cd 0.8711 0.90141 0.10646 0.0
O73 O 0.85823 0.86561 0.10662 0.0
O74 O 0.85292 0.90324 0.21356 0.0
O75 O 0.83736 0.92111 0.17101 0.0
C76 C 0.83599 0.91651 0.20111 0.0
C77 C 0.8545 0.93274 0.07554 0.0
C78 C 0.8564 0.85285 0.13185 0.0
C79 C 0.9166 0.91093 0.14539 0.0
O80 O 0.90742 0.90628 0.11824 0.0
O81 O 0.903 0.91101 0.17 0.0
O82 O 0.86737 0.91556 0.06293 0.0
O83 O 0.8499 0.93135 0.10565 0.0
O84 O 0.40999 0.61562 0.4098 0.0
Cd85 Cd 0.37321 0.61973 0.4199 0.0
Cd86 Cd 0.37135 0.62286 0.35683 0.0
O87 O 0.40698 0.60999 0.35803 0.0
O88 O 0.36854 0.60559 0.46337 0.0
O89 O 0.35225 0.58922 0.42006 0.0
C90 C 0.35611 0.58805 0.45035 0.0
C91 C 0.34008 0.60569 0.32582 0.0
C92 C 0.41988 0.61055 0.38323 0.0
C93 C 0.3607 0.66862 0.3945 0.0
O94 O 0.36658 0.65939 0.36781 0.0
O95 O 0.35977 0.65516 0.4192 0.0
O96 O 0.35753 0.61847 0.31315 0.0
O97 O 0.34118 0.60149 0.35603 0.0
O98 O 0.66134 0.15893 0.65889 0.0
Cd99 Cd 0.65478 0.12253 0.66988 0.0
Cd100 Cd 0.65033 0.12012 0.60646 0.0
O101 O 0.66319 0.15592 0.6066 0.0
O102 O 0.66856 0.11833 0.71356 0.0
O103 O 0.68411 0.10043 0.67102 0.0
C104 C 0.68548 0.10505 0.70112 0.0
C105 C 0.66691 0.08879 0.57553 0.0
C106 C 0.66504 0.16869 0.63181 0.0
C107 C 0.60485 0.11061 0.64543 0.0
O108 O 0.61402 0.11524 0.61827 0.0
O109 O 0.61847 0.11054 0.67003 0.0
O110 O 0.65402 0.10596 0.56293 0.0
O111 O 0.67153 0.09018 0.60564 0.0
O112 O 0.86064 0.36201 0.87558 0.0
Cd113 Cd 0.86734 0.3979 0.86274 0.0
Cd114 Cd 0.87305 0.40256 0.9264 0.0
O115 O 0.86213 0.36599 0.9278 0.0
O116 O 0.85291 0.40115 0.81931 0.0
O117 O 0.83835 0.42046 0.8614 0.0
C118 C 0.83647 0.41511 0.83154 0.0
C119 C 0.8558 0.43308 0.95809 0.0
C120 C 0.85879 0.35275 0.90323 0.0
C121 C 0.9174 0.41232 0.88505 0.0
O122 O 0.90867 0.40982 0.91291 0.0
O123 O 0.90374 0.40931 0.86079 0.0
O124 O 0.87002 0.4167 0.97 0.0
O125 O 0.85019 0.43126 0.9283 0.0
O126 O 0.3673 0.15969 0.66456 0.0
Cd127 Cd 0.37211 0.12357 0.67706 0.0
Cd128 Cd 0.37494 0.11841 0.61359 0.0
O129 O 0.36355 0.15472 0.61273 0.0
O130 O 0.35768 0.11998 0.72048 0.0
O131 O 0.3422 0.10179 0.67787 0.0
C132 C 0.34063 0.10661 0.7079 0.0
C133 C 0.35704 0.08763 0.58235 0.0
C134 C 0.3632 0.16855 0.63712 0.0
C135 C 0.42068 0.10874 0.6525 0.0
O136 O 0.41111 0.11182 0.62521 0.0
O137 O 0.40785 0.11118 0.67754 0.0
O138 O 0.37084 0.1044 0.56998 0.0
O139 O 0.35222 0.08916 0.61237 0.0
O140 O 0.66083 0.65951 0.37547 0.0
Cd141 Cd 0.65413 0.62362 0.36262 0.0
Cd142 Cd 0.64841 0.61896 0.42628 0.0
O143 O 0.65934 0.65552 0.42769 0.0
O144 O 0.66857 0.62037 0.3192 0.0
O145 O 0.68312 0.60106 0.3613 0.0
C146 C 0.68501 0.6064 0.33144 0.0
C147 C 0.66563 0.58844 0.458 0.0
C148 C 0.66267 0.66877 0.40313 0.0
C149 C 0.60407 0.6092 0.3849 0.0
O150 O 0.6128 0.6117 0.41277 0.0
O151 O 0.61773 0.61221 0.36065 0.0
O152 O 0.65141 0.60482 0.46989 0.0
O153 O 0.67127 0.59025 0.42823 0.0
O154 O 0.11035 0.90974 0.12514 0.0
Cd155 Cd 0.14652 0.90315 0.11355 0.0
Cd156 Cd 0.14934 0.89801 0.17702 0.0
O157 O 0.1136 0.9104 0.17747 0.0
O158 O 0.15065 0.91716 0.06995 0.0
O159 O 0.16925 0.9324 0.11237 0.0
C160 C 0.16445 0.93393 0.08233 0.0
C161 C 0.18082 0.91498 0.20786 0.0
C162 C 0.10078 0.91283 0.15242 0.0
C163 C 0.15827 0.85302 0.13711 0.0
O164 O 0.15415 0.86189 0.16454 0.0
O165 O 0.15792 0.86684 0.11271 0.0
O166 O 0.16377 0.90162 0.22045 0.0
O167 O 0.17925 0.9198 0.17783 0.0
O168 O 0.86656 0.6595 0.1651 0.0
Cd169 Cd 0.87135 0.62297 0.17602 0.0
Cd170 Cd 0.87317 0.61991 0.11294 0.0
O171 O 0.85973 0.65534 0.11371 0.0
O172 O 0.85754 0.61852 0.2197 0.0
O173 O 0.84118 0.60159 0.17678 0.0
C174 C 0.84009 0.60576 0.207 0.0
C175 C 0.85604 0.58824 0.08249 0.0
C176 C 0.86067 0.66876 0.13844 0.0
C177 C 0.91987 0.61069 0.14955 0.0
O178 O 0.90996 0.6158 0.123 0.0
O179 O 0.90697 0.61011 0.17476 0.0
O180 O 0.86846 0.60578 0.06946 0.0
O181 O 0.85222 0.5894 0.11279 0.0
O182 O 0.16135 0.15908 0.87438 0.0
Cd183 Cd 0.15479 0.12267 0.86345 0.0
Cd184 Cd 0.15036 0.12032 0.92686 0.0
O185 O 0.16324 0.15612 0.92667 0.0
O186 O 0.16855 0.11843 0.81977 0.0
O187 O 0.18411 0.10057 0.86234 0.0
C188 C 0.18547 0.10516 0.83223 0.0
C189 C 0.16696 0.08901 0.9578 0.0
C190 C 0.16507 0.16886 0.90143 0.0
C191 C 0.10486 0.11079 0.88795 0.0
O192 O 0.11405 0.11545 0.9151 0.0
O193 O 0.11847 0.11068 0.86334 0.0
O194 O 0.15409 0.10619 0.97041 0.0
O195 O 0.17156 0.09038 0.92769 0.0
O196 O 0.61147 0.40576 0.62308 0.0
Cd197 Cd 0.64825 0.40165 0.61299 0.0
Cd198 Cd 0.65011 0.39855 0.67606 0.0
O199 O 0.61449 0.41142 0.67485 0.0
O200 O 0.65293 0.41577 0.5695 0.0
O201 O 0.66921 0.43215 0.61281 0.0
C202 C 0.66536 0.43331 0.58252 0.0
C203 C 0.68138 0.41575 0.70706 0.0
C204 C 0.60158 0.41085 0.64965 0.0
C205 C 0.66076 0.35277 0.63844 0.0
O206 O 0.65489 0.36203 0.66512 0.0
O207 O 0.66169 0.36621 0.61372 0.0
O208 O 0.66394 0.40298 0.71974 0.0
O209 O 0.68029 0.41994 0.67683 0.0
O210 O 0.36011 0.86248 0.37433 0.0
Cd211 Cd 0.36668 0.89889 0.3634 0.0
Cd212 Cd 0.37112 0.90124 0.42682 0.0
O213 O 0.35825 0.86544 0.42663 0.0
O214 O 0.35291 0.90313 0.31973 0.0
O215 O 0.33736 0.921 0.36229 0.0
C216 C 0.33599 0.91641 0.33219 0.0
C217 C 0.35454 0.93256 0.45776 0.0
C218 C 0.3564 0.8527 0.40139 0.0
C219 C 0.41661 0.91077 0.38788 0.0
O220 O 0.40744 0.90611 0.41503 0.0
O221 O 0.403 0.91087 0.36328 0.0
O222 O 0.36741 0.91538 0.47036 0.0
O223 O 0.34993 0.93118 0.42765 0.0
H224 H 0.16937 0.82653 0.08316 0.0
H225 H 0.1561 0.81869 0.18401 0.0
H226 H 0.17441 0.78212 0.07875 0.0
H227 H 0.16022 0.77479 0.17948 0.0
H228 H 0.18566 0.69875 0.17235 0.0
H229 H 0.18844 0.74321 0.17165 0.0
H230 H 0.15139 0.74436 0.08078 0.0
H231 H 0.14966 0.69957 0.08093 0.0
C232 C 0.16759 0.81539 0.10437 0.0
C233 C 0.16239 0.82625 0.13395 0.0
C234 C 0.17033 0.78992 0.10182 0.0
C235 C 0.16789 0.77476 0.12878 0.0
C236 C 0.16284 0.78578 0.15828 0.0
C237 C 0.16026 0.81109 0.16085 0.0
C238 C 0.17842 0.70848 0.15199 0.0
C239 C 0.1672 0.69567 0.12686 0.0
C240 C 0.17985 0.73402 0.15167 0.0
C241 C 0.16964 0.74752 0.1265 0.0
C242 C 0.15955 0.73464 0.10051 0.0
C243 C 0.15848 0.70895 0.10061 0.0
H244 H 0.44365 0.92384 0.335 0.0
H245 H 0.4506 0.90637 0.43483 0.0
H246 H 0.4882 0.92844 0.33123 0.0
H247 H 0.49462 0.90997 0.43087 0.0
H248 H 0.57184 0.93364 0.42568 0.0
H249 H 0.5275 0.93729 0.42537 0.0
H250 H 0.52494 0.90498 0.3315 0.0
H251 H 0.5696 0.90249 0.33133 0.0
C252 C 0.45463 0.92104 0.35613 0.0
C253 C 0.44348 0.91479 0.38522 0.0
C254 C 0.48019 0.92353 0.35394 0.0
C255 C 0.49515 0.91971 0.38077 0.0
C256 C 0.48384 0.91366 0.40982 0.0
C257 C 0.45844 0.91138 0.41205 0.0
C258 C 0.56183 0.92763 0.40479 0.0
C259 C 0.57419 0.91754 0.37867 0.0
C260 C 0.53635 0.92955 0.40467 0.0
C261 C 0.52245 0.92095 0.37869 0.0
C262 C 0.53495 0.91194 0.35187 0.0
C263 C 0.56057 0.91041 0.35179 0.0
H264 H 0.33576 0.32282 0.67231 0.0
H265 H 0.37187 0.32201 0.58098 0.0
H266 H 0.33298 0.27836 0.67159 0.0
H267 H 0.37014 0.27722 0.58081 0.0
H268 H 0.35216 0.19504 0.58315 0.0
H269 H 0.34713 0.23945 0.57873 0.0
H270 H 0.36119 0.24678 0.67948 0.0
H271 H 0.36531 0.20288 0.68402 0.0
C272 C 0.34302 0.31309 0.65196 0.0
C273 C 0.35428 0.3259 0.62687 0.0
C274 C 0.34159 0.28755 0.65163 0.0
C275 C 0.35184 0.27405 0.62649 0.0
C276 C 0.36196 0.28694 0.60052 0.0
C277 C 0.36303 0.31263 0.60063 0.0
C278 C 0.35392 0.20618 0.60436 0.0
C279 C 0.35908 0.19532 0.63395 0.0
C280 C 0.35118 0.23166 0.6018 0.0
C281 C 0.35359 0.24681 0.62877 0.0
C282 C 0.3586 0.2358 0.65828 0.0
C283 C 0.36118 0.21048 0.66085 0.0
H284 H 0.07089 0.1152 0.93491 0.0
H285 H 0.0778 0.09768 0.83508 0.0
H286 H 0.02686 0.1116 0.93096 0.0
H287 H 0.03326 0.09308 0.83133 0.0
H288 H 0.94964 0.08793 0.9258 0.0
H289 H 0.99398 0.08428 0.92549 0.0
H290 H 0.99652 0.11653 0.83159 0.0
H291 H 0.95186 0.11902 0.83142 0.0
C292 C 0.06304 0.11018 0.91213 0.0
C293 C 0.07799 0.10675 0.8853 0.0
C294 C 0.03764 0.1079 0.90991 0.0
C295 C 0.02632 0.10184 0.88086 0.0
C296 C 0.04127 0.098 0.85403 0.0
C297 C 0.06683 0.10049 0.85621 0.0
C298 C 0.95965 0.09392 0.9049 0.0
C299 C 0.94728 0.10399 0.87877 0.0
C300 C 0.98513 0.09201 0.90478 0.0
C301 C 0.99902 0.1006 0.87879 0.0
C302 C 0.98651 0.10959 0.85197 0.0
C303 C 0.96089 0.11111 0.85188 0.0
H304 H 0.15485 0.3189 0.84778 0.0
H305 H 0.17647 0.32626 0.94623 0.0
H306 H 0.15918 0.27493 0.85137 0.0
H307 H 0.18177 0.28188 0.94955 0.0
H308 H 0.1566 0.19989 0.95144 0.0
H309 H 0.15857 0.2446 0.95094 0.0
H310 H 0.18709 0.24275 0.85503 0.0
H311 H 0.184 0.19829 0.85514 0.0
C312 C 0.16092 0.31117 0.87014 0.0
C313 C 0.16527 0.3262 0.89673 0.0
C314 C 0.16361 0.28583 0.87214 0.0
C315 C 0.171 0.27469 0.90071 0.0
C316 C 0.1758 0.28975 0.92725 0.0
C317 C 0.17291 0.31522 0.9253 0.0
C318 C 0.1636 0.20908 0.93045 0.0
C319 C 0.16982 0.1956 0.90318 0.0
C320 C 0.16483 0.23474 0.93017 0.0
C321 C 0.1726 0.24743 0.90273 0.0
C322 C 0.18031 0.23373 0.87626 0.0
C323 C 0.17872 0.20818 0.87637 0.0
H324 H 0.94366 0.924 0.19827 0.0
H325 H 0.95057 0.90655 0.09843 0.0
H326 H 0.9882 0.9286 0.20203 0.0
H327 H 0.9946 0.91015 0.10238 0.0
H328 H 0.07182 0.93382 0.10757 0.0
H329 H 0.02748 0.93747 0.10788 0.0
H330 H 0.02494 0.90515 0.20174 0.0
H331 H 0.0696 0.90266 0.20191 0.0
C332 C 0.95463 0.92121 0.17714 0.0
C333 C 0.94347 0.91496 0.14804 0.0
C334 C 0.98019 0.9237 0.17932 0.0
C335 C 0.99514 0.91988 0.15248 0.0
C336 C 0.98382 0.91384 0.12343 0.0
C337 C 0.95842 0.91156 0.12121 0.0
C338 C 0.06181 0.92781 0.12846 0.0
C339 C 0.07418 0.91772 0.15457 0.0
C340 C 0.03633 0.92973 0.12858 0.0
C341 C 0.02244 0.92112 0.15456 0.0
C342 C 0.03495 0.91211 0.18137 0.0
C343 C 0.06057 0.91058 0.18146 0.0
H344 H 0.34504 0.6953 0.44617 0.0
H345 H 0.3666 0.70267 0.34771 0.0
H346 H 0.33975 0.73967 0.4495 0.0
H347 H 0.36227 0.74663 0.35131 0.0
H348 H 0.33745 0.82327 0.35511 0.0
H349 H 0.33436 0.77881 0.355 0.0
H350 H 0.36294 0.77695 0.45088 0.0
H351 H 0.36491 0.82167 0.45139 0.0
C352 C 0.34859 0.70634 0.42524 0.0
C353 C 0.35621 0.69536 0.39666 0.0
C354 C 0.3457 0.73181 0.42719 0.0
C355 C 0.35048 0.74687 0.40066 0.0
C356 C 0.35785 0.73573 0.37208 0.0
C357 C 0.36054 0.71039 0.37007 0.0
C358 C 0.34274 0.81338 0.37634 0.0
C359 C 0.35165 0.82596 0.40314 0.0
C360 C 0.34115 0.78783 0.37622 0.0
C361 C 0.34888 0.77413 0.40269 0.0
C362 C 0.35667 0.78681 0.43011 0.0
C363 C 0.35789 0.81248 0.4304 0.0
H364 H 0.57781 0.09761 0.69835 0.0
H365 H 0.57086 0.11491 0.59846 0.0
H366 H 0.53327 0.09301 0.70214 0.0
H367 H 0.52683 0.11131 0.60244 0.0
H368 H 0.44962 0.08766 0.60771 0.0
H369 H 0.49396 0.084 0.60803 0.0
H370 H 0.49652 0.11646 0.7018 0.0
H371 H 0.45187 0.11897 0.70197 0.0
C372 C 0.56683 0.10037 0.67722 0.0
C373 C 0.57798 0.10657 0.6481 0.0
C374 C 0.54127 0.09789 0.67941 0.0
C375 C 0.52631 0.10166 0.65257 0.0
C376 C 0.53762 0.10766 0.6235 0.0
C377 C 0.56302 0.10994 0.62126 0.0
C378 C 0.45963 0.0937 0.62858 0.0
C379 C 0.44727 0.10384 0.65467 0.0
C380 C 0.48511 0.09178 0.6287 0.0
C381 C 0.49901 0.10042 0.65466 0.0
C382 C 0.48651 0.10948 0.68145 0.0
C383 C 0.46089 0.11101 0.68153 0.0
H384 H 0.85211 0.19522 0.95008 0.0
H385 H 0.86532 0.20298 0.84921 0.0
H386 H 0.84707 0.23963 0.95443 0.0
H387 H 0.8612 0.24688 0.85368 0.0
H388 H 0.83578 0.32293 0.86073 0.0
H389 H 0.83299 0.27847 0.8615 0.0
H390 H 0.8701 0.27739 0.95233 0.0
H391 H 0.87184 0.32218 0.95211 0.0
C392 C 0.85388 0.20634 0.92886 0.0
C393 C 0.85905 0.19546 0.89929 0.0
C394 C 0.85113 0.23182 0.93137 0.0
C395 C 0.85356 0.24695 0.90439 0.0
C396 C 0.85859 0.23591 0.8749 0.0
C397 C 0.86117 0.2106 0.87236 0.0
C398 C 0.84303 0.31322 0.88109 0.0
C399 C 0.85427 0.32604 0.90619 0.0
C400 C 0.8416 0.28768 0.88146 0.0
C401 C 0.85182 0.27419 0.90663 0.0
C402 C 0.86193 0.2871 0.93259 0.0
C403 C 0.86301 0.31279 0.93245 0.0
H404 H 0.64962 0.69934 0.452 0.0
H405 H 0.68568 0.69859 0.36063 0.0
H406 H 0.65136 0.74413 0.45222 0.0
H407 H 0.68847 0.74305 0.36141 0.0
H408 H 0.65616 0.81855 0.34912 0.0
H409 H 0.66027 0.77465 0.35359 0.0
H410 H 0.67438 0.78188 0.45435 0.0
H411 H 0.66935 0.8263 0.45 0.0
C412 C 0.65845 0.70873 0.43235 0.0
C413 C 0.66719 0.69548 0.40608 0.0
C414 C 0.65953 0.73442 0.43249 0.0
C415 C 0.66964 0.74733 0.40653 0.0
C416 C 0.67987 0.73385 0.38136 0.0
C417 C 0.67844 0.7083 0.381 0.0
C418 C 0.6603 0.81093 0.37228 0.0
C419 C 0.66241 0.82607 0.39921 0.0
C420 C 0.66287 0.78561 0.37481 0.0
C421 C 0.6679 0.77457 0.4043 0.0
C422 C 0.67032 0.7897 0.43129 0.0
C423 C 0.66758 0.81518 0.42877 0.0
H424 H 0.86661 0.70277 0.18528 0.0
H425 H 0.84497 0.6955 0.08683 0.0
H426 H 0.86229 0.74674 0.18176 0.0
H427 H 0.83968 0.73988 0.08358 0.0
H428 H 0.86486 0.82186 0.08179 0.0
H429 H 0.86288 0.77715 0.08223 0.0
H430 H 0.83439 0.77892 0.17816 0.0
H431 H 0.83749 0.82338 0.17811 0.0
C432 C 0.86054 0.71051 0.16294 0.0
C433 C 0.85618 0.69551 0.13632 0.0
C434 C 0.85785 0.73586 0.16098 0.0
C435 C 0.85045 0.74702 0.13243 0.0
C436 C 0.84565 0.73199 0.10587 0.0
C437 C 0.84854 0.70652 0.10778 0.0
C438 C 0.85786 0.81266 0.10278 0.0
C439 C 0.85165 0.82612 0.13007 0.0
C440 C 0.85663 0.78699 0.10302 0.0
C441 C 0.84886 0.77428 0.13044 0.0
C442 C 0.84116 0.78797 0.15694 0.0
C443 C 0.84276 0.81351 0.15686 0.0
H444 H 0.65488 0.31876 0.68529 0.0
H445 H 0.67639 0.32605 0.5868 0.0
H446 H 0.65921 0.27479 0.68175 0.0
H447 H 0.68168 0.28167 0.58352 0.0
H448 H 0.68402 0.19815 0.67803 0.0
H449 H 0.68711 0.24261 0.67808 0.0
H450 H 0.65848 0.24439 0.58222 0.0
H451 H 0.65651 0.19967 0.58178 0.0
C452 C 0.66093 0.31102 0.66293 0.0
C453 C 0.66525 0.32603 0.63631 0.0
C454 C 0.66361 0.28568 0.66095 0.0
C455 C 0.67097 0.27451 0.63238 0.0
C456 C 0.67573 0.28955 0.60582 0.0
C457 C 0.67285 0.31502 0.60774 0.0
C458 C 0.67872 0.20803 0.6568 0.0
C459 C 0.66979 0.19542 0.63002 0.0
C460 C 0.68031 0.23357 0.65688 0.0
C461 C 0.67257 0.24725 0.63039 0.0
C462 C 0.66476 0.23454 0.60299 0.0
C463 C 0.66353 0.20888 0.60275 0.0
H464 H 0.07328 0.42368 0.8317 0.0
H465 H 0.06889 0.40689 0.932 0.0
H466 H 0.02873 0.42803 0.82991 0.0
H467 H 0.02479 0.41032 0.93002 0.0
H468 H 0.94789 0.43419 0.92781 0.0
H469 H 0.99225 0.43785 0.92538 0.0
H470 H 0.99171 0.40407 0.83237 0.0
H471 H 0.94701 0.40145 0.83433 0.0
C472 C 0.06287 0.42099 0.85336 0.0
C473 C 0.07473 0.41498 0.882 0.0
C474 C 0.0373 0.42333 0.8523 0.0
C475 C 0.02304 0.41964 0.87984 0.0
C476 C 0.03506 0.41387 0.90845 0.0
C477 C 0.06048 0.4117 0.90954 0.0
C478 C 0.95721 0.42785 0.90664 0.0
C479 C 0.94397 0.41728 0.88141 0.0
C480 C 0.98271 0.42978 0.90531 0.0
C481 C 0.99573 0.42078 0.87897 0.0
C482 C 0.98236 0.41132 0.85298 0.0
C483 C 0.95672 0.40973 0.85412 0.0
H484 H 0.57359 0.58729 0.42762 0.0
H485 H 0.57445 0.62011 0.33419 0.0
H486 H 0.52923 0.58363 0.42519 0.0
H487 H 0.52975 0.6175 0.33223 0.0
H488 H 0.44817 0.59791 0.33155 0.0
H489 H 0.49272 0.59355 0.32975 0.0
H490 H 0.49671 0.61118 0.42987 0.0
H491 H 0.45261 0.61463 0.43188 0.0
C492 C 0.56426 0.59365 0.40646 0.0
C493 C 0.5775 0.60424 0.38125 0.0
C494 C 0.53877 0.59172 0.40513 0.0
C495 C 0.52574 0.60075 0.3788 0.0
C496 C 0.5391 0.61023 0.35283 0.0
C497 C 0.56475 0.61181 0.35397 0.0
C498 C 0.4586 0.60058 0.35321 0.0
C499 C 0.44675 0.60657 0.38187 0.0
C500 C 0.48416 0.59823 0.35214 0.0
C501 C 0.49843 0.6019 0.37968 0.0
C502 C 0.48643 0.60766 0.4083 0.0
C503 C 0.46101 0.60983 0.40941 0.0
H504 H 0.56885 0.40676 0.601 0.0
H505 H 0.57329 0.4235 0.70132 0.0
H506 H 0.52476 0.4102 0.603 0.0
H507 H 0.52874 0.42786 0.70312 0.0
H508 H 0.44701 0.40129 0.69869 0.0
H509 H 0.49171 0.4039 0.70065 0.0
H510 H 0.49223 0.43775 0.60768 0.0
H511 H 0.44787 0.43409 0.60525 0.0
C512 C 0.56045 0.41156 0.62347 0.0
C513 C 0.57471 0.41482 0.65101 0.0
C514 C 0.53503 0.41373 0.62458 0.0
C515 C 0.52303 0.41949 0.65319 0.0
C516 C 0.5373 0.42317 0.68073 0.0
C517 C 0.56286 0.42083 0.67966 0.0
C518 C 0.45672 0.40958 0.6789 0.0
C519 C 0.44396 0.41716 0.65162 0.0
C520 C 0.48236 0.41117 0.68004 0.0
C521 C 0.49572 0.42064 0.65407 0.0
C522 C 0.48269 0.42967 0.62773 0.0
C523 C 0.4572 0.42773 0.62641 0.0
H524 H 0.07357 0.58758 0.10504 0.0
H525 H 0.07445 0.62019 0.19859 0.0
H526 H 0.02922 0.58392 0.10746 0.0
H527 H 0.02975 0.61758 0.20055 0.0
H528 H 0.94818 0.59796 0.20118 0.0
H529 H 0.99273 0.59361 0.20295 0.0
H530 H 0.99668 0.61146 0.10289 0.0
H531 H 0.95258 0.61489 0.10091 0.0
C532 C 0.06425 0.59389 0.12622 0.0
C533 C 0.07749 0.60442 0.15148 0.0
C534 C 0.03876 0.59196 0.12754 0.0
C535 C 0.02573 0.60093 0.15391 0.0
C536 C 0.0391 0.61035 0.17992 0.0
C537 C 0.06474 0.61194 0.17878 0.0
C538 C 0.9586 0.60068 0.17952 0.0
C539 C 0.94674 0.60673 0.15089 0.0
C540 C 0.98417 0.59834 0.18057 0.0
C541 C 0.99842 0.60207 0.15305 0.0
C542 C 0.98641 0.60788 0.12445 0.0
C543 C 0.96099 0.61005 0.12336 0.0
H544 H 0.15861 0.58137 1.01125 0.0
H545 H 0.18898 0.54714 0.0949 0.0
H546 H 0.1643 0.54368 0.9814 0.0
H547 H 0.19502 0.50937 0.06477 0.0
H548 H 0.16081 0.44049 1.01447 0.0
H549 H 0.16668 0.47843 0.04398 0.0
H550 H 0.19259 0.5142 0.95856 0.0
H551 H 0.18635 0.4762 0.92882 0.0
C552 C 0.167 0.56595 0.02311 0.0
C553 C 0.17312 0.56722 0.05556 0.0
C554 C 0.1704 0.54434 1.0059 0.0
C555 C 0.17995 0.52339 0.02072 0.0
C556 C 0.18731 0.52506 0.05275 0.0
C557 C 0.184 0.54677 0.06996 0.0
C558 C 0.16817 0.4563 1.00205 0.0
C559 C 0.17287 0.45535 0.9692 0.0
C560 C 0.17168 0.47807 0.01906 0.0
C561 C 0.17993 0.49946 1.00362 0.0
C562 C 0.18589 0.49815 0.97109 0.0
C563 C 0.18245 0.47632 0.95408 0.0
H564 H 0.72295 0.93726 0.34647 0.0
H565 H 0.68813 0.90901 0.26162 0.0
H566 H 0.76086 0.94387 0.31665 0.0
H567 H 0.72597 0.91526 0.23205 0.0
H568 H 0.79388 0.93837 0.18038 0.0
H569 H 0.75602 0.94407 0.21038 0.0
H570 H 0.79124 0.91606 0.29474 0.0
H571 H 0.82903 0.91074 0.265 0.0
C572 C 0.72324 0.93284 0.32136 0.0
C573 C 0.70256 0.92242 0.3065 0.0
C574 C 0.74502 0.93649 0.30431 0.0
C575 C 0.74655 0.92992 0.272 0.0
C576 C 0.72543 0.92077 0.25679 0.0
C577 C 0.70372 0.91703 0.27384 0.0
C578 C 0.79369 0.93392 0.2055 0.0
C579 C 0.81443 0.92389 0.22022 0.0
C580 C 0.77193 0.93703 0.22264 0.0
C581 C 0.77048 0.9303 0.25491 0.0
C582 C 0.7917 0.92165 0.27002 0.0
C583 C 0.81339 0.91846 0.25288 0.0
H584 H 0.36293 0.4402 0.51129 0.0
H585 H 0.33253 0.47446 0.59488 0.0
H586 H 0.35726 0.47787 0.48141 0.0
H587 H 0.32651 0.51222 0.56473 0.0
H588 H 0.33519 0.54533 0.42877 0.0
H589 H 0.32896 0.50734 0.45853 0.0
H590 H 0.35486 0.54315 0.54394 0.0
H591 H 0.36072 0.58109 0.5144 0.0
C592 C 0.35454 0.45562 0.52313 0.0
C593 C 0.3484 0.45436 0.55557 0.0
C594 C 0.35115 0.47723 0.50591 0.0
C595 C 0.34159 0.49818 0.5207 0.0
C596 C 0.33422 0.49652 0.55272 0.0
C597 C 0.33752 0.47482 0.56995 0.0
C598 C 0.33909 0.54522 0.45403 0.0
C599 C 0.34866 0.5662 0.46914 0.0
C600 C 0.33566 0.5234 0.47105 0.0
C601 C 0.34161 0.5221 0.50358 0.0
C602 C 0.34986 0.5435 0.51901 0.0
C603 C 0.35336 0.56527 0.502 0.0
H604 H 0.69244 0.11083 0.765 0.0
H605 H 0.72759 0.08318 0.68041 0.0
H606 H 0.73023 0.10551 0.79476 0.0
H607 H 0.76545 0.07748 0.71042 0.0
H608 H 0.83334 0.11252 0.76169 0.0
H609 H 0.7955 0.10628 0.7321 0.0
H610 H 0.7606 0.07768 0.81668 0.0
H611 H 0.79851 0.08428 0.84652 0.0
C612 C 0.70808 0.1031 0.7529 0.0
C613 C 0.70704 0.09767 0.72023 0.0
C614 C 0.72977 0.09991 0.77004 0.0
C615 C 0.75098 0.09126 0.75494 0.0
C616 C 0.74954 0.08452 0.72267 0.0
C617 C 0.72778 0.08763 0.70552 0.0
C618 C 0.81774 0.1045 0.7739 0.0
C619 C 0.81891 0.09912 0.80656 0.0
C620 C 0.79604 0.10077 0.75684 0.0
C621 C 0.77491 0.09163 0.77204 0.0
C622 C 0.77644 0.08506 0.80435 0.0
C623 C 0.79822 0.0887 0.82141 0.0
H624 H 0.86286 0.44039 0.02166 0.0
H625 H 0.83251 0.47461 0.938 0.0
H626 H 0.85717 0.47807 0.0515 0.0
H627 H 0.82646 0.51238 0.96812 0.0
H628 H 0.86066 0.58127 0.01844 0.0
H629 H 0.85479 0.54333 0.98892 0.0
H630 H 0.82886 0.50755 0.07433 0.0
H631 H 0.8351 0.54554 0.10408 0.0
C632 C 0.85448 0.4558 1.00979 0.0
C633 C 0.84836 0.45453 0.97735 0.0
C634 C 0.85107 0.47742 0.027 0.0
C635 C 0.84152 0.49836 1.01218 0.0
C636 C 0.83417 0.49669 0.98015 0.0
C637 C 0.83749 0.47498 0.96294 0.0
C638 C 0.85329 0.56545 0.03085 0.0
C639 C 0.84859 0.5664 0.06371 0.0
C640 C 0.84978 0.54368 1.01384 0.0
C641 C 0.84153 0.52229 0.02928 0.0
C642 C 0.83557 0.5236 0.0618 0.0
C643 C 0.839 0.54542 0.07882 0.0
H644 H 0.19243 0.11089 0.76834 0.0
H645 H 0.22757 0.08329 0.85297 0.0
H646 H 0.23022 0.10553 0.7386 0.0
H647 H 0.26543 0.07755 0.82297 0.0
H648 H 0.29848 0.08423 0.68687 0.0
H649 H 0.26057 0.07767 0.71671 0.0
H650 H 0.29549 0.10632 0.80126 0.0
H651 H 0.33333 0.11252 0.77168 0.0
C652 C 0.20807 0.10316 0.78045 0.0
C653 C 0.20702 0.09775 0.81313 0.0
C654 C 0.22975 0.09995 0.76331 0.0
C655 C 0.25097 0.0913 0.77843 0.0
C656 C 0.24952 0.08459 0.81071 0.0
C657 C 0.22777 0.08772 0.82786 0.0
C658 C 0.2982 0.08867 0.71198 0.0
C659 C 0.31889 0.09909 0.72681 0.0
C660 C 0.27642 0.08505 0.72903 0.0
C661 C 0.27489 0.09165 0.76134 0.0
C662 C 0.29603 0.1008 0.77653 0.0
C663 C 0.31773 0.1045 0.75947 0.0
H664 H 0.65855 0.58116 0.52158 0.0
H665 H 0.68891 0.54688 0.43796 0.0
H666 H 0.66423 0.54348 0.55145 0.0
H667 H 0.69494 0.50912 0.46811 0.0
H668 H 0.6863 0.47602 0.60408 0.0
H669 H 0.69253 0.514 0.5743 0.0
H670 H 0.66659 0.4782 0.48892 0.0
H671 H 0.66073 0.44026 0.51846 0.0
C672 C 0.66693 0.56573 0.50972 0.0
C673 C 0.67306 0.56698 0.47728 0.0
C674 C 0.67033 0.54412 0.52695 0.0
C675 C 0.67987 0.52316 0.51214 0.0
C676 C 0.68723 0.52482 0.48012 0.0
C677 C 0.68393 0.54652 0.46289 0.0
C678 C 0.68239 0.47613 0.57882 0.0
C679 C 0.67281 0.45515 0.56372 0.0
C680 C 0.68582 0.49795 0.56179 0.0
C681 C 0.67985 0.49924 0.52927 0.0
C682 C 0.6716 0.47785 0.51384 0.0
C683 C 0.66809 0.45609 0.53086 0.0
H684 H 0.2939 0.93829 0.35293 0.0
H685 H 0.32902 0.91068 0.26829 0.0
H686 H 0.25605 0.94404 0.32293 0.0
H687 H 0.29123 0.91606 0.23855 0.0
H688 H 0.22296 0.93736 0.18683 0.0
H689 H 0.26088 0.94392 0.21667 0.0
H690 H 0.22597 0.91528 0.30122 0.0
H691 H 0.18812 0.90909 0.27164 0.0
C692 C 0.2937 0.93386 0.32781 0.0
C693 C 0.31444 0.92382 0.31309 0.0
C694 C 0.27195 0.937 0.31067 0.0
C695 C 0.27049 0.93029 0.27839 0.0
C696 C 0.2917 0.92164 0.26327 0.0
C697 C 0.31338 0.91841 0.28041 0.0
C698 C 0.22325 0.93292 0.21194 0.0
C699 C 0.20256 0.92251 0.22678 0.0
C700 C 0.24503 0.93654 0.229 0.0
C701 C 0.24656 0.92995 0.2613 0.0
C702 C 0.22543 0.92081 0.27649 0.0
C703 C 0.20372 0.9171 0.25944 0.0
H704 H 0.66116 0.08173 0.51165 0.0
H705 H 0.68811 0.04641 0.59652 0.0
H706 H 0.66638 0.04388 0.48198 0.0
H707 H 0.6937 1.00849 0.56659 0.0
H708 H 0.68751 0.97563 0.4303 0.0
H709 H 0.69425 0.01343 0.46034 0.0
H710 H 0.66495 0.97854 0.54454 0.0
H711 H 0.65858 0.94081 0.51476 0.0
C712 C 0.66869 0.06603 0.52385 0.0
C713 C 0.67399 0.06706 0.55655 0.0
C714 C 0.67183 0.04431 0.50675 0.0
C715 C 0.68029 0.02304 0.52193 0.0
C716 C 0.68683 0.02444 0.55427 0.0
C717 C 0.68377 0.04623 0.57138 0.0
C718 C 0.68299 0.97589 0.45539 0.0
C719 C 0.67231 0.95525 0.47005 0.0
C720 C 0.6867 0.9976 0.47255 0.0
C721 C 0.67994 0.99912 0.5048 0.0
C722 C 0.67059 0.97801 0.51985 0.0
C723 C 0.6668 0.95637 0.50269 0.0
H724 H 0.32908 0.40871 0.76511 0.0
H725 H 0.2948 0.4378 0.68073 0.0
H726 H 0.29138 0.4147 0.79478 0.0
H727 H 0.257 0.44414 0.71067 0.0
H728 H 0.18823 0.41046 0.76193 0.0
H729 H 0.22611 0.41604 0.7322 0.0
H730 H 0.26189 0.44333 0.8169 0.0
H731 H 0.22397 0.43739 0.84686 0.0
C732 C 0.31365 0.41687 0.75303 0.0
C733 C 0.31491 0.42256 0.72045 0.0
C734 C 0.29202 0.42045 0.77014 0.0
C735 C 0.27106 0.42975 0.75508 0.0
C736 C 0.27271 0.43665 0.72288 0.0
C737 C 0.29443 0.43316 0.70577 0.0
C738 C 0.20403 0.41807 0.77413 0.0
C739 C 0.20311 0.42324 0.80687 0.0
C740 C 0.22576 0.42142 0.757 0.0
C741 C 0.24715 0.42995 0.7722 0.0
C742 C 0.24585 0.4364 0.80457 0.0
C743 C 0.22406 0.43313 0.8217 0.0
H744 H 0.86286 0.0807 1.01482 0.0
H745 H 0.83391 0.04592 0.93034 0.0
H746 H 0.85647 0.04297 0.04458 0.0
H747 H 0.82714 1.00812 0.96037 0.0
H748 H 0.86022 0.93979 1.01167 0.0
H749 H 0.855 0.97765 0.982 0.0
H750 H 0.82771 0.01304 0.06663 0.0
H751 H 0.8333 0.97511 0.09655 0.0
C752 C 0.85463 0.06515 1.00274 0.0
C753 C 0.84913 0.06628 0.97011 0.0
C754 C 0.85082 0.04351 0.0199 0.0
C755 C 0.84146 0.02241 1.00484 0.0
C756 C 0.8347 0.02394 0.97259 0.0
C757 C 0.83843 0.04565 0.95543 0.0
C758 C 0.8527 0.9555 0.02387 0.0
C759 C 0.84741 0.95447 0.05657 0.0
C760 C 0.84956 0.97722 1.00677 0.0
C761 C 0.84111 0.99849 0.02196 0.0
C762 C 0.83458 0.99709 0.0543 0.0
C763 C 0.83763 0.9753 0.0714 0.0
H764 H 0.22664 0.58374 0.18065 0.0
H765 H 0.19236 0.61281 0.26505 0.0
H766 H 0.26444 0.5774 0.21059 0.0
H767 H 0.23008 0.60681 0.29471 0.0
H768 H 0.33321 0.6111 0.26185 0.0
H769 H 0.29533 0.6055 0.23212 0.0
H770 H 0.25958 0.57819 0.31682 0.0
H771 H 0.29751 0.58415 0.34678 0.0
C772 C 0.22701 0.58838 0.2057 0.0
C773 C 0.20653 0.59897 0.22038 0.0
C774 C 0.24873 0.58489 0.22281 0.0
C775 C 0.25039 0.59178 0.25501 0.0
C776 C 0.22943 0.60107 0.27007 0.0
C777 C 0.2078 0.60465 0.25296 0.0
C778 C 0.31742 0.60348 0.27404 0.0
C779 C 0.31835 0.59831 0.30678 0.0
C780 C 0.29568 0.60013 0.25692 0.0
C781 C 0.27431 0.59158 0.27212 0.0
C782 C 0.27561 0.58513 0.30449 0.0
C783 C 0.29741 0.58841 0.32162 0.0
H784 H 0.33397 0.04572 0.603 0.0
H785 H 0.36291 0.08053 0.51853 0.0
H786 H 0.32722 1.00792 0.57296 0.0
H787 H 0.35653 0.0428 0.48876 0.0
H788 H 0.36029 0.93961 0.52164 0.0
H789 H 0.35509 0.97746 0.55132 0.0
H790 H 0.32777 0.01287 0.46671 0.0
H791 H 0.33334 0.97494 0.43678 0.0
C792 C 0.33849 0.04546 0.57792 0.0
C793 C 0.34918 0.06609 0.56324 0.0
C794 C 0.33477 0.02374 0.56075 0.0
C795 C 0.34154 0.02222 0.5285 0.0
C796 C 0.35089 0.04333 0.51345 0.0
C797 C 0.35469 0.06497 0.53061 0.0
C798 C 0.35276 0.95532 0.50945 0.0
C799 C 0.34746 0.95429 0.47674 0.0
C800 C 0.34963 0.97703 0.52655 0.0
C801 C 0.34118 0.99831 0.51137 0.0
C802 C 0.33464 0.99691 0.47903 0.0
C803 C 0.33768 0.97512 0.46192 0.0
H804 H 0.83323 0.61111 0.27098 0.0
H805 H 0.79753 0.58421 0.18601 0.0
H806 H 0.79535 0.60547 0.3007 0.0
H807 H 0.7596 0.57821 0.21596 0.0
H808 H 0.72667 0.58363 0.35213 0.0
H809 H 0.76447 0.57733 0.32218 0.0
H810 H 0.73009 0.60681 0.2381 0.0
H811 H 0.69238 0.61275 0.26776 0.0
C812 C 0.81743 0.60349 0.25877 0.0
C813 C 0.81836 0.59835 0.22603 0.0
C814 C 0.7957 0.60011 0.27589 0.0
C815 C 0.77433 0.59157 0.26068 0.0
C816 C 0.77564 0.58515 0.2283 0.0
C817 C 0.79742 0.58845 0.21118 0.0
C818 C 0.72704 0.58829 0.32708 0.0
C819 C 0.70655 0.59888 0.31241 0.0
C820 C 0.74876 0.58483 0.30997 0.0
C821 C 0.75042 0.59175 0.27778 0.0
C822 C 0.72945 0.60104 0.26273 0.0
C823 C 0.70782 0.6046 0.27984 0.0
H824 H 0.18753 0.97582 0.10301 0.0
H825 H 0.1586 0.94104 0.01852 0.0
H826 H 0.19429 0.01362 0.07299 0.0
H827 H 0.165 0.97877 0.98876 0.0
H828 H 0.18817 0.04663 0.93681 0.0
H829 H 0.19375 1.00871 0.96673 0.0
H830 H 0.16644 0.04409 0.05135 0.0
H831 H 0.16123 0.08195 0.02168 0.0
C832 C 0.18301 0.97609 0.07792 0.0
C833 C 0.17232 0.95546 0.06324 0.0
C834 C 0.18674 0.99781 0.06077 0.0
C835 C 0.17999 0.99934 0.02852 0.0
C836 C 0.17063 0.97824 1.01345 0.0
C837 C 0.16682 0.95659 0.0306 0.0
C838 C 0.18383 0.04645 0.96195 0.0
C839 C 0.17405 0.06728 0.97678 0.0
C840 C 0.18689 0.02466 0.97905 0.0
C841 C 0.18035 0.02326 1.01139 0.0
C842 C 0.1719 0.04453 0.02658 0.0
C843 C 0.16876 0.06624 1.00948 0.0
H844 H 0.72395 0.43729 0.68607 0.0
H845 H 0.68825 0.41039 0.77104 0.0
H846 H 0.76187 0.44329 0.71603 0.0
H847 H 0.72613 0.41603 0.80076 0.0
H848 H 0.8291 0.40876 0.76786 0.0
H849 H 0.79139 0.4147 0.73818 0.0
H850 H 0.757 0.44418 0.82225 0.0
H851 H 0.79481 0.43788 0.85221 0.0
C852 C 0.72405 0.43305 0.71124 0.0
C853 C 0.70311 0.42315 0.72608 0.0
C854 C 0.74584 0.43635 0.72837 0.0
C855 C 0.74715 0.42993 0.76075 0.0
C856 C 0.72577 0.42139 0.77596 0.0
C857 C 0.70404 0.41801 0.75883 0.0
C858 C 0.81366 0.41692 0.77993 0.0
C859 C 0.81492 0.42263 0.8125 0.0
C860 C 0.79203 0.42047 0.76282 0.0
C861 C 0.77106 0.42976 0.77786 0.0
C862 C 0.77271 0.43668 0.81005 0.0
C863 C 0.79444 0.43322 0.82717 0.0
loop_
_geom_bond_atom_site_label_1
_geom_bond_atom_site_label_2
_geom_bond_distance
_geom_bond_site_symmetry_2
_ccdc_geom_bond_type
O0 Cd1 2.223 . S
O0 C8 1.315 . S
Cd1 O0 2.223 . S
Cd1 O4 2.297 . S
Cd1 O5 2.439 . S
Cd1 O11 2.240 . S
Cd2 O3 2.240 . S
Cd2 O10 2.223 . S
Cd2 O12 2.297 . S
Cd2 O13 2.439 . S
O3 Cd2 2.240 . S
O3 C8 1.279 . S
O4 Cd1 2.297 . S
O4 C6 1.247 . S
O5 Cd1 2.439 . S
O5 C6 1.208 . S
C6 O4 1.247 . S
C6 O5 1.208 . S
C7 O12 1.247 . S
C7 O13 1.208 . S
C8 O0 1.315 . S
C8 O3 1.279 . S
C9 O10 1.315 . S
C9 O11 1.279 . S
O10 Cd2 2.223 . S
O10 C9 1.315 . S
O11 Cd1 2.240 . S
O11 C9 1.279 . S
O12 Cd2 2.297 . S
O12 C7 1.247 . S
O13 Cd2 2.439 . S
O13 C7 1.208 . S
O14 Cd15 2.223 . S
O14 C22 1.315 . S
Cd15 O14 2.223 . S
Cd15 O18 2.297 . S
Cd15 O19 2.439 . S
Cd15 O25 2.240 . S
Cd16 O17 2.240 . S
Cd16 O24 2.223 . S
Cd16 O26 2.297 . S
Cd16 O27 2.439 . S
O17 Cd16 2.240 . S
O17 C22 1.279 . S
O18 Cd15 2.297 . S
O18 C20 1.247 . S
O19 Cd15 2.439 . S
O19 C20 1.208 . S
C20 O18 1.247 . S
C20 O19 1.208 . S
C21 O26 1.247 . S
C21 O27 1.208 . S
C22 O14 1.315 . S
C22 O17 1.279 . S
C23 O24 1.315 . S
C23 O25 1.279 . S
O24 Cd16 2.223 . S
O24 C23 1.315 . S
O25 Cd15 2.240 . S
O25 C23 1.279 . S
O26 Cd16 2.297 . S
O26 C21 1.247 . S
O27 Cd16 2.439 . S
O27 C21 1.208 . S
O28 Cd29 2.223 . S
O28 C36 1.315 . S
Cd29 O28 2.223 . S
Cd29 O32 2.297 . S
Cd29 O33 2.439 . S
Cd29 O39 2.240 . S
Cd30 O31 2.240 . S
Cd30 O38 2.223 . S
Cd30 O40 2.297 . S
Cd30 O41 2.439 . S
O31 Cd30 2.240 . S
O31 C36 1.279 . S
O32 Cd29 2.297 . S
O32 C34 1.247 . S
O33 Cd29 2.439 . S
O33 C34 1.208 . S
C34 O32 1.247 . S
C34 O33 1.208 . S
C35 O40 1.247 . S
C35 O41 1.208 . S
C36 O28 1.315 . S
C36 O31 1.279 . S
C37 O38 1.315 . S
C37 O39 1.279 . S
O38 Cd30 2.223 . S
O38 C37 1.315 . S
O39 Cd29 2.240 . S
O39 C37 1.279 . S
O40 Cd30 2.297 . S
O40 C35 1.247 . S
O41 Cd30 2.439 . S
O41 C35 1.208 . S
O42 Cd43 2.223 . S
O42 C50 1.315 . S
Cd43 O42 2.223 . S
Cd43 O46 2.297 . S
Cd43 O47 2.439 . S
Cd43 O53 2.240 . S
Cd44 O45 2.240 . S
Cd44 O52 2.223 . S
Cd44 O54 2.297 . S
Cd44 O55 2.439 . S
O45 Cd44 2.240 . S
O45 C50 1.279 . S
O46 Cd43 2.297 . S
O46 C48 1.247 . S
O47 Cd43 2.439 . S
O47 C48 1.208 . S
C48 O46 1.247 . S
C48 O47 1.208 . S
C49 O54 1.247 . S
C49 O55 1.208 . S
C50 O42 1.315 . S
C50 O45 1.279 . S
C51 O52 1.315 . S
C51 O53 1.279 . S
O52 Cd44 2.223 . S
O52 C51 1.315 . S
O53 Cd43 2.240 . S
O53 C51 1.279 . S
O54 Cd44 2.297 . S
O54 C49 1.247 . S
O55 Cd44 2.439 . S
O55 C49 1.208 . S
O56 Cd57 2.223 . S
O56 C64 1.315 . S
Cd57 O56 2.223 . S
Cd57 O60 2.297 . S
Cd57 O61 2.439 . S
Cd57 O67 2.240 . S
Cd58 O59 2.240 . S
Cd58 O66 2.223 . S
Cd58 O68 2.297 . S
Cd58 O69 2.439 . S
O59 Cd58 2.240 . S
O59 C64 1.279 . S
O60 Cd57 2.297 . S
O60 C62 1.247 . S
O61 Cd57 2.439 . S
O61 C62 1.208 . S
C62 O60 1.247 . S
C62 O61 1.208 . S
C63 O68 1.247 . S
C63 O69 1.208 . S
C64 O56 1.315 . S
C64 O59 1.279 . S
C65 O66 1.315 . S
C65 O67 1.279 . S
O66 Cd58 2.223 . S
O66 C65 1.315 . S
O67 Cd57 2.240 . S
O67 C65 1.279 . S
O68 Cd58 2.297 . S
O68 C63 1.247 . S
O69 Cd58 2.439 . S
O69 C63 1.208 . S
O70 Cd71 2.223 . S
O70 C78 1.315 . S
Cd71 O70 2.223 . S
Cd71 O74 2.297 . S
Cd71 O75 2.439 . S
Cd71 O81 2.240 . S
Cd72 O73 2.240 . S
Cd72 O80 2.223 . S
Cd72 O82 2.297 . S
Cd72 O83 2.439 . S
O73 Cd72 2.240 . S
O73 C78 1.279 . S
O74 Cd71 2.297 . S
O74 C76 1.247 . S
O75 Cd71 2.439 . S
O75 C76 1.208 . S
C76 O74 1.247 . S
C76 O75 1.208 . S
C77 O82 1.247 . S
C77 O83 1.208 . S
C78 O70 1.315 . S
C78 O73 1.279 . S
C79 O80 1.315 . S
C79 O81 1.279 . S
O80 Cd72 2.223 . S
O80 C79 1.315 . S
O81 Cd71 2.240 . S
O81 C79 1.279 . S
O82 Cd72 2.297 . S
O82 C77 1.247 . S
O83 Cd72 2.439 . S
O83 C77 1.208 . S
O84 Cd85 2.223 . S
O84 C92 1.315 . S
Cd85 O84 2.223 . S
Cd85 O88 2.297 . S
Cd85 O89 2.439 . S
Cd85 O95 2.240 . S
Cd86 O87 2.240 . S
Cd86 O94 2.223 . S
Cd86 O96 2.297 . S
Cd86 O97 2.439 . S
O87 Cd86 2.240 . S
O87 C92 1.279 . S
O88 Cd85 2.297 . S
O88 C90 1.247 . S
O89 Cd85 2.439 . S
O89 C90 1.208 . S
C90 O88 1.247 . S
C90 O89 1.208 . S
C91 O96 1.247 . S
C91 O97 1.208 . S
C92 O84 1.315 . S
C92 O87 1.279 . S
C93 O94 1.315 . S
C93 O95 1.279 . S
O94 Cd86 2.223 . S
O94 C93 1.315 . S
O95 Cd85 2.240 . S
O95 C93 1.279 . S
O96 Cd86 2.297 . S
O96 C91 1.247 . S
O97 Cd86 2.439 . S
O97 C91 1.208 . S
O98 Cd99 2.223 . S
O98 C106 1.315 . S
Cd99 O98 2.223 . S
Cd99 O102 2.297 . S
Cd99 O103 2.439 . S
Cd99 O109 2.240 . S
Cd100 O101 2.240 . S
Cd100 O108 2.223 . S
Cd100 O110 2.297 . S
Cd100 O111 2.439 . S
O101 Cd100 2.240 . S
O101 C106 1.279 . S
O102 Cd99 2.297 . S
O102 C104 1.247 . S
O103 Cd99 2.439 . S
O103 C104 1.208 . S
C104 O102 1.247 . S
C104 O103 1.208 . S
C105 O110 1.247 . S
C105 O111 1.208 . S
C106 O98 1.315 . S
C106 O101 1.279 . S
C107 O108 1.315 . S
C107 O109 1.279 . S
O108 Cd100 2.223 . S
O108 C107 1.315 . S
O109 Cd99 2.240 . S
O109 C107 1.279 . S
O110 Cd100 2.297 . S
O110 C105 1.247 . S
O111 Cd100 2.439 . S
O111 C105 1.208 . S
O112 Cd113 2.223 . S
O112 C120 1.315 . S
Cd113 O112 2.223 . S
Cd113 O116 2.297 . S
Cd113 O117 2.439 . S
Cd113 O123 2.240 . S
Cd114 O115 2.240 . S
Cd114 O122 2.223 . S
Cd114 O124 2.297 . S
Cd114 O125 2.439 . S
O115 Cd114 2.240 . S
O115 C120 1.279 . S
O116 Cd113 2.297 . S
O116 C118 1.247 . S
O117 Cd113 2.439 . S
O117 C118 1.208 . S
C118 O116 1.247 . S
C118 O117 1.208 . S
C119 O124 1.247 . S
C119 O125 1.208 . S
C120 O112 1.315 . S
C120 O115 1.279 . S
C121 O122 1.315 . S
C121 O123 1.279 . S
O122 Cd114 2.223 . S
O122 C121 1.315 . S
O123 Cd113 2.240 . S
O123 C121 1.279 . S
O124 Cd114 2.297 . S
O124 C119 1.247 . S
O125 Cd114 2.439 . S
O125 C119 1.208 . S
O126 Cd127 2.223 . S
O126 C134 1.315 . S
Cd127 O126 2.223 . S
Cd127 O130 2.297 . S
Cd127 O131 2.439 . S
Cd127 O137 2.240 . S
Cd128 O129 2.240 . S
Cd128 O136 2.223 . S
Cd128 O138 2.297 . S
Cd128 O139 2.439 . S
O129 Cd128 2.240 . S
O129 C134 1.279 . S
O130 Cd127 2.297 . S
O130 C132 1.247 . S
O131 Cd127 2.439 . S
O131 C132 1.208 . S
C132 O130 1.247 . S
C132 O131 1.208 . S
C133 O138 1.247 . S
C133 O139 1.208 . S
C134 O126 1.315 . S
C134 O129 1.279 . S
C135 O136 1.315 . S
C135 O137 1.279 . S
O136 Cd128 2.223 . S
O136 C135 1.315 . S
O137 Cd127 2.240 . S
O137 C135 1.279 . S
O138 Cd128 2.297 . S
O138 C133 1.247 . S
O139 Cd128 2.439 . S
O139 C133 1.208 . S
O140 Cd141 2.223 . S
O140 C148 1.315 . S
Cd141 O140 2.223 . S
Cd141 O144 2.297 . S
Cd141 O145 2.439 . S
Cd141 O151 2.240 . S
Cd142 O143 2.240 . S
Cd142 O150 2.223 . S
Cd142 O152 2.297 . S
Cd142 O153 2.439 . S
O143 Cd142 2.240 . S
O143 C148 1.279 . S
O144 Cd141 2.297 . S
O144 C146 1.247 . S
O145 Cd141 2.439 . S
O145 C146 1.208 . S
C146 O144 1.247 . S
C146 O145 1.208 . S
C147 O152 1.247 . S
C147 O153 1.208 . S
C148 O140 1.315 . S
C148 O143 1.279 . S
C149 O150 1.315 . S
C149 O151 1.279 . S
O150 Cd142 2.223 . S
O150 C149 1.315 . S
O151 Cd141 2.240 . S
O151 C149 1.279 . S
O152 Cd142 2.297 . S
O152 C147 1.247 . S
O153 Cd142 2.439 . S
O153 C147 1.208 . S
O154 Cd155 2.223 . S
O154 C162 1.315 . S
Cd155 O154 2.223 . S
Cd155 O158 2.297 . S
Cd155 O159 2.439 . S
Cd155 O165 2.240 . S
Cd156 O157 2.240 . S
Cd156 O164 2.223 . S
Cd156 O166 2.297 . S
Cd156 O167 2.439 . S
O157 Cd156 2.240 . S
O157 C162 1.279 . S
O158 Cd155 2.297 . S
O158 C160 1.247 . S
O159 Cd155 2.439 . S
O159 C160 1.208 . S
C160 O158 1.247 . S
C160 O159 1.208 . S
C161 O166 1.247 . S
C161 O167 1.208 . S
C162 O154 1.315 . S
C162 O157 1.279 . S
C163 O164 1.315 . S
C163 O165 1.279 . S
O164 Cd156 2.223 . S
O164 C163 1.315 . S
O165 Cd155 2.240 . S
O165 C163 1.279 . S
O166 Cd156 2.297 . S
O166 C161 1.247 . S
O167 Cd156 2.439 . S
O167 C161 1.208 . S
O168 Cd169 2.223 . S
O168 C176 1.315 . S
Cd169 O168 2.223 . S
Cd169 O172 2.297 . S
Cd169 O173 2.439 . S
Cd169 O179 2.240 . S
Cd170 O171 2.240 . S
Cd170 O178 2.223 . S
Cd170 O180 2.297 . S
Cd170 O181 2.439 . S
O171 Cd170 2.240 . S
O171 C176 1.279 . S
O172 Cd169 2.297 . S
O172 C174 1.247 . S
O173 Cd169 2.439 . S
O173 C174 1.208 . S
C174 O172 1.247 . S
C174 O173 1.208 . S
C175 O180 1.247 . S
C175 O181 1.208 . S
C176 O168 1.315 . S
C176 O171 1.279 . S
C177 O178 1.315 . S
C177 O179 1.279 . S
O178 Cd170 2.223 . S
O178 C177 1.315 . S
O179 Cd169 2.240 . S
O179 C177 1.279 . S
O180 Cd170 2.297 . S
O180 C175 1.247 . S
O181 Cd170 2.439 . S
O181 C175 1.208 . S
O182 Cd183 2.223 . S
O182 C190 1.315 . S
Cd183 O182 2.223 . S
Cd183 O186 2.297 . S
Cd183 O187 2.439 . S
Cd183 O193 2.240 . S
Cd184 O185 2.240 . S
Cd184 O192 2.223 . S
Cd184 O194 2.297 . S
Cd184 O195 2.439 . S
O185 Cd184 2.240 . S
O185 C190 1.279 . S
O186 Cd183 2.297 . S
O186 C188 1.247 . S
O187 Cd183 2.439 . S
O187 C188 1.208 . S
C188 O186 1.247 . S
C188 O187 1.208 . S
C189 O194 1.247 . S
C189 O195 1.208 . S
C190 O182 1.315 . S
C190 O185 1.279 . S
C191 O192 1.315 . S
C191 O193 1.279 . S
O192 Cd184 2.223 . S
O192 C191 1.315 . S
O193 Cd183 2.240 . S
O193 C191 1.279 . S
O194 Cd184 2.297 . S
O194 C189 1.247 . S
O195 Cd184 2.439 . S
O195 C189 1.208 . S
O196 Cd197 2.223 . S
O196 C204 1.315 . S
Cd197 O196 2.223 . S
Cd197 O200 2.297 . S
Cd197 O201 2.439 . S
Cd197 O207 2.240 . S
Cd198 O199 2.240 . S
Cd198 O206 2.223 . S
Cd198 O208 2.297 . S
Cd198 O209 2.439 . S
O199 Cd198 2.240 . S
O199 C204 1.279 . S
O200 Cd197 2.297 . S
O200 C202 1.247 . S
O201 Cd197 2.439 . S
O201 C202 1.208 . S
C202 O200 1.247 . S
C202 O201 1.208 . S
C203 O208 1.247 . S
C203 O209 1.208 . S
C204 O196 1.315 . S
C204 O199 1.279 . S
C205 O206 1.315 . S
C205 O207 1.279 . S
O206 Cd198 2.223 . S
O206 C205 1.315 . S
O207 Cd197 2.240 . S
O207 C205 1.279 . S
O208 Cd198 2.297 . S
O208 C203 1.247 . S
O209 Cd198 2.439 . S
O209 C203 1.208 . S
O210 Cd211 2.223 . S
O210 C218 1.315 . S
Cd211 O210 2.223 . S
Cd211 O214 2.297 . S
Cd211 O215 2.439 . S
Cd211 O221 2.240 . S
Cd212 O213 2.240 . S
Cd212 O220 2.223 . S
Cd212 O222 2.297 . S
Cd212 O223 2.439 . S
O213 Cd212 2.240 . S
O213 C218 1.279 . S
O214 Cd211 2.297 . S
O214 C216 1.247 . S
O215 Cd211 2.439 . S
O215 C216 1.208 . S
C216 O214 1.247 . S
C216 O215 1.208 . S
C217 O222 1.247 . S
C217 O223 1.208 . S
C218 O210 1.315 . S
C218 O213 1.279 . S
C219 O220 1.315 . S
C219 O221 1.279 . S
O220 Cd212 2.223 . S
O220 C219 1.315 . S
O221 Cd211 2.240 . S
O221 C219 1.279 . S
O222 Cd212 2.297 . S
O222 C217 1.247 . S
O223 Cd212 2.439 . S
O223 C217 1.208 . S
H224 C232 0.950 . S
H225 C237 0.950 . S
H226 C234 0.950 . S
H227 C236 0.950 . S
H228 C238 0.950 . S
H229 C240 0.950 . S
H230 C242 0.950 . S
H231 C243 0.950 . S
C232 H224 0.950 . S
C232 C233 1.386 . S
C232 C234 1.391 . S
C233 C232 1.386 . S
C233 C237 1.393 . S
C234 H226 0.950 . S
C234 C232 1.391 . S
C234 C235 1.400 . S
C235 C234 1.400 . S
C235 C236 1.398 . S
C235 C241 1.491 . S
C236 H227 0.950 . S
C236 C235 1.398 . S
C236 C237 1.391 . S
C237 H225 0.950 . S
C237 C233 1.393 . S
C237 C236 1.391 . S
C238 H228 0.950 . S
C238 C239 1.386 . S
C238 C240 1.391 . S
C239 C238 1.386 . S
C239 C243 1.393 . S
C240 H229 0.950 . S
C240 C238 1.391 . S
C240 C241 1.400 . S
C241 C235 1.491 . S
C241 C240 1.400 . S
C241 C242 1.398 . S
C242 H230 0.950 . S
C242 C241 1.398 . S
C242 C243 1.391 . S
C243 H231 0.950 . S
C243 C239 1.393 . S
C243 C242 1.391 . S
H244 C252 0.950 . S
H245 C257 0.950 . S
H246 C254 0.950 . S
H247 C256 0.950 . S
H248 C258 0.950 . S
H249 C260 0.950 . S
H250 C262 0.950 . S
H251 C263 0.950 . S
C252 H244 0.950 . S
C252 C253 1.386 . S
C252 C254 1.391 . S
C253 C252 1.386 . S
C253 C257 1.393 . S
C254 H246 0.950 . S
C254 C252 1.391 . S
C254 C255 1.400 . S
C255 C254 1.400 . S
C255 C256 1.398 . S
C255 C261 1.491 . S
C256 H247 0.950 . S
C256 C255 1.398 . S
C256 C257 1.391 . S
C257 H245 0.950 . S
C257 C253 1.393 . S
C257 C256 1.391 . S
C258 H248 0.950 . S
C258 C259 1.386 . S
C258 C260 1.391 . S
C259 C258 1.386 . S
C259 C263 1.393 . S
C260 H249 0.950 . S
C260 C258 1.391 . S
C260 C261 1.400 . S
C261 C255 1.491 . S
C261 C260 1.400 . S
C261 C262 1.398 . S
C262 H250 0.950 . S
C262 C261 1.398 . S
C262 C263 1.391 . S
C263 H251 0.950 . S
C263 C259 1.393 . S
C263 C262 1.391 . S
H264 C272 0.950 . S
H265 C277 0.950 . S
H266 C274 0.950 . S
H267 C276 0.950 . S
H268 C278 0.950 . S
H269 C280 0.950 . S
H270 C282 0.950 . S
H271 C283 0.950 . S
C272 H264 0.950 . S
C272 C273 1.386 . S
C272 C274 1.391 . S
C273 C272 1.386 . S
C273 C277 1.393 . S
C274 H266 0.950 . S
C274 C272 1.391 . S
C274 C275 1.400 . S
C275 C274 1.400 . S
C275 C276 1.398 . S
C275 C281 1.491 . S
C276 H267 0.950 . S
C276 C275 1.398 . S
C276 C277 1.391 . S
C277 H265 0.950 . S
C277 C273 1.393 . S
C277 C276 1.391 . S
C278 H268 0.950 . S
C278 C279 1.386 . S
C278 C280 1.391 . S
C279 C278 1.386 . S
C279 C283 1.393 . S
C280 H269 0.950 . S
C280 C278 1.391 . S
C280 C281 1.400 . S
C281 C275 1.491 . S
C281 C280 1.400 . S
C281 C282 1.398 . S
C282 H270 0.950 . S
C282 C281 1.398 . S
C282 C283 1.391 . S
C283 H271 0.950 . S
C283 C279 1.393 . S
C283 C282 1.391 . S
H284 C292 0.950 . S
H285 C297 0.950 . S
H286 C294 0.950 . S
H287 C296 0.950 . S
H288 C298 0.950 . S
H289 C300 0.950 . S
H290 C302 0.950 . S
H291 C303 0.950 . S
C292 H284 0.950 . S
C292 C293 1.386 . S
C292 C294 1.391 . S
C293 C292 1.386 . S
C293 C297 1.393 . S
C294 H286 0.950 . S
C294 C292 1.391 . S
C294 C295 1.400 . S
C295 C294 1.400 . S
C295 C296 1.398 . S
C295 C301 1.491 1_455 S
C296 H287 0.950 . S
C296 C295 1.398 . S
C296 C297 1.391 . S
C297 H285 0.950 . S
C297 C293 1.393 . S
C297 C296 1.391 . S
C298 H288 0.950 . S
C298 C299 1.386 . S
C298 C300 1.391 . S
C299 C298 1.386 . S
C299 C303 1.393 . S
C300 H289 0.950 . S
C300 C298 1.391 . S
C300 C301 1.400 . S
C301 C295 1.491 1_655 S
C301 C300 1.400 . S
C301 C302 1.398 . S
C302 H290 0.950 . S
C302 C301 1.398 . S
C302 C303 1.391 . S
C303 H291 0.950 . S
C303 C299 1.393 . S
C303 C302 1.391 . S
H304 C312 0.950 . S
H305 C317 0.950 . S
H306 C314 0.950 . S
H307 C316 0.950 . S
H308 C318 0.950 . S
H309 C320 0.950 . S
H310 C322 0.950 . S
H311 C323 0.950 . S
C312 H304 0.950 . S
C312 C313 1.386 . S
C312 C314 1.391 . S
C313 C312 1.386 . S
C313 C317 1.393 . S
C314 H306 0.950 . S
C314 C312 1.391 . S
C314 C315 1.400 . S
C315 C314 1.400 . S
C315 C316 1.398 . S
C315 C321 1.491 . S
C316 H307 0.950 . S
C316 C315 1.398 . S
C316 C317 1.391 . S
C317 H305 0.950 . S
C317 C313 1.393 . S
C317 C316 1.391 . S
C318 H308 0.950 . S
C318 C319 1.386 . S
C318 C320 1.391 . S
C319 C318 1.386 . S
C319 C323 1.393 . S
C320 H309 0.950 . S
C320 C318 1.391 . S
C320 C321 1.400 . S
C321 C315 1.491 . S
C321 C320 1.400 . S
C321 C322 1.398 . S
C322 H310 0.950 . S
C322 C321 1.398 . S
C322 C323 1.391 . S
C323 H311 0.950 . S
C323 C319 1.393 . S
C323 C322 1.391 . S
H324 C332 0.950 . S
H325 C337 0.950 . S
H326 C334 0.950 . S
H327 C336 0.950 . S
H328 C338 0.950 . S
H329 C340 0.950 . S
H330 C342 0.950 . S
H331 C343 0.950 . S
C332 H324 0.950 . S
C332 C333 1.386 . S
C332 C334 1.391 . S
C333 C332 1.386 . S
C333 C337 1.393 . S
C334 H326 0.950 . S
C334 C332 1.391 . S
C334 C335 1.400 . S
C335 C334 1.400 . S
C335 C336 1.398 . S
C335 C341 1.491 1_655 S
C336 H327 0.950 . S
C336 C335 1.398 . S
C336 C337 1.391 . S
C337 H325 0.950 . S
C337 C333 1.393 . S
C337 C336 1.391 . S
C338 H328 0.950 . S
C338 C339 1.386 . S
C338 C340 1.391 . S
C339 C338 1.386 . S
C339 C343 1.393 . S
C340 H329 0.950 . S
C340 C338 1.391 . S
C340 C341 1.400 . S
C341 C335 1.491 1_455 S
C341 C340 1.400 . S
C341 C342 1.398 . S
C342 H330 0.950 . S
C342 C341 1.398 . S
C342 C343 1.391 . S
C343 H331 0.950 . S
C343 C339 1.393 . S
C343 C342 1.391 . S
H344 C352 0.950 . S
H345 C357 0.950 . S
H346 C354 0.950 . S
H347 C356 0.950 . S
H348 C358 0.950 . S
H349 C360 0.950 . S
H350 C362 0.950 . S
H351 C363 0.950 . S
C352 H344 0.950 . S
C352 C353 1.386 . S
C352 C354 1.391 . S
C353 C352 1.386 . S
C353 C357 1.393 . S
C354 H346 0.950 . S
C354 C352 1.391 . S
C354 C355 1.400 . S
C355 C354 1.400 . S
C355 C356 1.398 . S
C355 C361 1.491 . S
C356 H347 0.950 . S
C356 C355 1.398 . S
C356 C357 1.391 . S
C357 H345 0.950 . S
C357 C353 1.393 . S
C357 C356 1.391 . S
C358 H348 0.950 . S
C358 C359 1.386 . S
C358 C360 1.391 . S
C359 C358 1.386 . S
C359 C363 1.393 . S
C360 H349 0.950 . S
C360 C358 1.391 . S
C360 C361 1.400 . S
C361 C355 1.491 . S
C361 C360 1.400 . S
C361 C362 1.398 . S
C362 H350 0.950 . S
C362 C361 1.398 . S
C362 C363 1.391 . S
C363 H351 0.950 . S
C363 C359 1.393 . S
C363 C362 1.391 . S
H364 C372 0.950 . S
H365 C377 0.950 . S
H366 C374 0.950 . S
H367 C376 0.950 . S
H368 C378 0.950 . S
H369 C380 0.950 . S
H370 C382 0.950 . S
H371 C383 0.950 . S
C372 H364 0.950 . S
C372 C373 1.386 . S
C372 C374 1.391 . S
C373 C372 1.386 . S
C373 C377 1.393 . S
C374 H366 0.950 . S
C374 C372 1.391 . S
C374 C375 1.400 . S
C375 C374 1.400 . S
C375 C376 1.398 . S
C375 C381 1.491 . S
C376 H367 0.950 . S
C376 C375 1.398 . S
C376 C377 1.391 . S
C377 H365 0.950 . S
C377 C373 1.393 . S
C377 C376 1.391 . S
C378 H368 0.950 . S
C378 C379 1.386 . S
C378 C380 1.391 . S
C379 C378 1.386 . S
C379 C383 1.393 . S
C380 H369 0.950 . S
C380 C378 1.391 . S
C380 C381 1.400 . S
C381 C375 1.491 . S
C381 C380 1.400 . S
C381 C382 1.398 . S
C382 H370 0.950 . S
C382 C381 1.398 . S
C382 C383 1.391 . S
C383 H371 0.950 . S
C383 C379 1.393 . S
C383 C382 1.391 . S
H384 C392 0.950 . S
H385 C397 0.950 . S
H386 C394 0.950 . S
H387 C396 0.950 . S
H388 C398 0.950 . S
H389 C400 0.950 . S
H390 C402 0.950 . S
H391 C403 0.950 . S
C392 H384 0.950 . S
C392 C393 1.386 . S
C392 C394 1.391 . S
C393 C392 1.386 . S
C393 C397 1.393 . S
C394 H386 0.950 . S
C394 C392 1.391 . S
C394 C395 1.400 . S
C395 C394 1.400 . S
C395 C396 1.398 . S
C395 C401 1.491 . S
C396 H387 0.950 . S
C396 C395 1.398 . S
C396 C397 1.391 . S
C397 H385 0.950 . S
C397 C393 1.393 . S
C397 C396 1.391 . S
C398 H388 0.950 . S
C398 C399 1.386 . S
C398 C400 1.391 . S
C399 C398 1.386 . S
C399 C403 1.393 . S
C400 H389 0.950 . S
C400 C398 1.391 . S
C400 C401 1.400 . S
C401 C395 1.491 . S
C401 C400 1.400 . S
C401 C402 1.398 . S
C402 H390 0.950 . S
C402 C401 1.398 . S
C402 C403 1.391 . S
C403 H391 0.950 . S
C403 C399 1.393 . S
C403 C402 1.391 . S
H404 C412 0.950 . S
H405 C417 0.950 . S
H406 C414 0.950 . S
H407 C416 0.950 . S
H408 C418 0.950 . S
H409 C420 0.950 . S
H410 C422 0.950 . S
H411 C423 0.950 . S
C412 H404 0.950 . S
C412 C413 1.386 . S
C412 C414 1.391 . S
C413 C412 1.386 . S
C413 C417 1.393 . S
C414 H406 0.950 . S
C414 C412 1.391 . S
C414 C415 1.400 . S
C415 C414 1.400 . S
C415 C416 1.398 . S
C415 C421 1.491 . S
C416 H407 0.950 . S
C416 C415 1.398 . S
C416 C417 1.391 . S
C417 H405 0.950 . S
C417 C413 1.393 . S
C417 C416 1.391 . S
C418 H408 0.950 . S
C418 C419 1.386 . S
C418 C420 1.391 . S
C419 C418 1.386 . S
C419 C423 1.393 . S
C420 H409 0.950 . S
C420 C418 1.391 . S
C420 C421 1.400 . S
C421 C415 1.491 . S
C421 C420 1.400 . S
C421 C422 1.398 . S
C422 H410 0.950 . S
C422 C421 1.398 . S
C422 C423 1.391 . S
C423 H411 0.950 . S
C423 C419 1.393 . S
C423 C422 1.391 . S
H424 C432 0.950 . S
H425 C437 0.950 . S
H426 C434 0.950 . S
H427 C436 0.950 . S
H428 C438 0.950 . S
H429 C440 0.950 . S
H430 C442 0.950 . S
H431 C443 0.950 . S
C432 H424 0.950 . S
C432 C433 1.386 . S
C432 C434 1.391 . S
C433 C432 1.386 . S
C433 C437 1.393 . S
C434 H426 0.950 . S
C434 C432 1.391 . S
C434 C435 1.400 . S
C435 C434 1.400 . S
C435 C436 1.398 . S
C435 C441 1.491 . S
C436 H427 0.950 . S
C436 C435 1.398 . S
C436 C437 1.391 . S
C437 H425 0.950 . S
C437 C433 1.393 . S
C437 C436 1.391 . S
C438 H428 0.950 . S
C438 C439 1.386 . S
C438 C440 1.391 . S
C439 C438 1.386 . S
C439 C443 1.393 . S
C440 H429 0.950 . S
C440 C438 1.391 . S
C440 C441 1.400 . S
C441 C435 1.491 . S
C441 C440 1.400 . S
C441 C442 1.398 . S
C442 H430 0.950 . S
C442 C441 1.398 . S
C442 C443 1.391 . S
C443 H431 0.950 . S
C443 C439 1.393 . S
C443 C442 1.391 . S
H444 C452 0.950 . S
H445 C457 0.950 . S
H446 C454 0.950 . S
H447 C456 0.950 . S
H448 C458 0.950 . S
H449 C460 0.950 . S
H450 C462 0.950 . S
H451 C463 0.950 . S
C452 H444 0.950 . S
C452 C453 1.386 . S
C452 C454 1.391 . S
C453 C452 1.386 . S
C453 C457 1.393 . S
C454 H446 0.950 . S
C454 C452 1.391 . S
C454 C455 1.400 . S
C455 C454 1.400 . S
C455 C456 1.398 . S
C455 C461 1.491 . S
C456 H447 0.950 . S
C456 C455 1.398 . S
C456 C457 1.391 . S
C457 H445 0.950 . S
C457 C453 1.393 . S
C457 C456 1.391 . S
C458 H448 0.950 . S
C458 C459 1.386 . S
C458 C460 1.391 . S
C459 C458 1.386 . S
C459 C463 1.393 . S
C460 H449 0.950 . S
C460 C458 1.391 . S
C460 C461 1.400 . S
C461 C455 1.491 . S
C461 C460 1.400 . S
C461 C462 1.398 . S
C462 H450 0.950 . S
C462 C461 1.398 . S
C462 C463 1.391 . S
C463 H451 0.950 . S
C463 C459 1.393 . S
C463 C462 1.391 . S
H464 C472 0.950 . S
H465 C477 0.950 . S
H466 C474 0.950 . S
H467 C476 0.950 . S
H468 C478 0.950 . S
H469 C480 0.950 . S
H470 C482 0.950 . S
H471 C483 0.950 . S
C472 H464 0.950 . S
C472 C473 1.386 . S
C472 C474 1.391 . S
C473 C472 1.386 . S
C473 C477 1.393 . S
C474 H466 0.950 . S
C474 C472 1.391 . S
C474 C475 1.400 . S
C475 C474 1.400 . S
C475 C476 1.398 . S
C475 C481 1.491 1_455 S
C476 H467 0.950 . S
C476 C475 1.398 . S
C476 C477 1.391 . S
C477 H465 0.950 . S
C477 C473 1.393 . S
C477 C476 1.391 . S
C478 H468 0.950 . S
C478 C479 1.386 . S
C478 C480 1.391 . S
C479 C478 1.386 . S
C479 C483 1.393 . S
C480 H469 0.950 . S
C480 C478 1.391 . S
C480 C481 1.400 . S
C481 C475 1.491 1_655 S
C481 C480 1.400 . S
C481 C482 1.398 . S
C482 H470 0.950 . S
C482 C481 1.398 . S
C482 C483 1.391 . S
C483 H471 0.950 . S
C483 C479 1.393 . S
C483 C482 1.391 . S
H484 C492 0.950 . S
H485 C497 0.950 . S
H486 C494 0.950 . S
H487 C496 0.950 . S
H488 C498 0.950 . S
H489 C500 0.950 . S
H490 C502 0.950 . S
H491 C503 0.950 . S
C492 H484 0.950 . S
C492 C493 1.386 . S
C492 C494 1.391 . S
C493 C492 1.386 . S
C493 C497 1.393 . S
C494 H486 0.950 . S
C494 C492 1.391 . S
C494 C495 1.400 . S
C495 C494 1.400 . S
C495 C496 1.398 . S
C495 C501 1.491 . S
C496 H487 0.950 . S
C496 C495 1.398 . S
C496 C497 1.391 . S
C497 H485 0.950 . S
C497 C493 1.393 . S
C497 C496 1.391 . S
C498 H488 0.950 . S
C498 C499 1.386 . S
C498 C500 1.391 . S
C499 C498 1.386 . S
C499 C503 1.393 . S
C500 H489 0.950 . S
C500 C498 1.391 . S
C500 C501 1.400 . S
C501 C495 1.491 . S
C501 C500 1.400 . S
C501 C502 1.398 . S
C502 H490 0.950 . S
C502 C501 1.398 . S
C502 C503 1.391 . S
C503 H491 0.950 . S
C503 C499 1.393 . S
C503 C502 1.391 . S
H504 C512 0.950 . S
H505 C517 0.950 . S
H506 C514 0.950 . S
H507 C516 0.950 . S
H508 C518 0.950 . S
H509 C520 0.950 . S
H510 C522 0.950 . S
H511 C523 0.950 . S
C512 H504 0.950 . S
C512 C513 1.386 . S
C512 C514 1.391 . S
C513 C512 1.386 . S
C513 C517 1.393 . S
C514 H506 0.950 . S
C514 C512 1.391 . S
C514 C515 1.400 . S
C515 C514 1.400 . S
C515 C516 1.398 . S
C515 C521 1.491 . S
C516 H507 0.950 . S
C516 C515 1.398 . S
C516 C517 1.391 . S
C517 H505 0.950 . S
C517 C513 1.393 . S
C517 C516 1.391 . S
C518 H508 0.950 . S
C518 C519 1.386 . S
C518 C520 1.391 . S
C519 C518 1.386 . S
C519 C523 1.393 . S
C520 H509 0.950 . S
C520 C518 1.391 . S
C520 C521 1.400 . S
C521 C515 1.491 . S
C521 C520 1.400 . S
C521 C522 1.398 . S
C522 H510 0.950 . S
C522 C521 1.398 . S
C522 C523 1.391 . S
C523 H511 0.950 . S
C523 C519 1.393 . S
C523 C522 1.391 . S
H524 C532 0.950 . S
H525 C537 0.950 . S
H526 C534 0.950 . S
H527 C536 0.950 . S
H528 C538 0.950 . S
H529 C540 0.950 . S
H530 C542 0.950 . S
H531 C543 0.950 . S
C532 H524 0.950 . S
C532 C533 1.386 . S
C532 C534 1.391 . S
C533 C532 1.386 . S
C533 C537 1.393 . S
C534 H526 0.950 . S
C534 C532 1.391 . S
C534 C535 1.400 . S
C535 C534 1.400 . S
C535 C536 1.398 . S
C535 C541 1.491 1_455 S
C536 H527 0.950 . S
C536 C535 1.398 . S
C536 C537 1.391 . S
C537 H525 0.950 . S
C537 C533 1.393 . S
C537 C536 1.391 . S
C538 H528 0.950 . S
C538 C539 1.386 . S
C538 C540 1.391 . S
C539 C538 1.386 . S
C539 C543 1.393 . S
C540 H529 0.950 . S
C540 C538 1.391 . S
C540 C541 1.400 . S
C541 C535 1.491 1_655 S
C541 C540 1.400 . S
C541 C542 1.398 . S
C542 H530 0.950 . S
C542 C541 1.398 . S
C542 C543 1.391 . S
C543 H531 0.950 . S
C543 C539 1.393 . S
C543 C542 1.391 . S
H544 C552 0.950 . S
H545 C557 0.950 . S
H546 C554 0.950 1_556 S
H547 C556 0.950 . S
H548 C558 0.950 . S
H549 C560 0.950 1_554 S
H550 C562 0.950 . S
H551 C563 0.950 . S
C552 H544 0.950 . S
C552 C553 1.386 . S
C552 C554 1.391 . S
C553 C552 1.386 . S
C553 C557 1.393 . S
C554 H546 0.950 1_554 S
C554 C552 1.391 . S
C554 C555 1.400 . S
C555 C554 1.400 . S
C555 C556 1.398 . S
C555 C561 1.491 1_554 S
C556 H547 0.950 . S
C556 C555 1.398 . S
C556 C557 1.391 . S
C557 H545 0.950 . S
C557 C553 1.393 . S
C557 C556 1.391 . S
C558 H548 0.950 . S
C558 C559 1.386 . S
C558 C560 1.391 . S
C559 C558 1.386 . S
C559 C563 1.393 . S
C560 H549 0.950 1_556 S
C560 C558 1.391 . S
C560 C561 1.400 . S
C561 C555 1.491 1_556 S
C561 C560 1.400 . S
C561 C562 1.398 . S
C562 H550 0.950 . S
C562 C561 1.398 . S
C562 C563 1.391 . S
C563 H551 0.950 . S
C563 C559 1.393 . S
C563 C562 1.391 . S
H564 C572 0.950 . S
H565 C577 0.950 . S
H566 C574 0.950 . S
H567 C576 0.950 . S
H568 C578 0.950 . S
H569 C580 0.950 . S
H570 C582 0.950 . S
H571 C583 0.950 . S
C572 H564 0.950 . S
C572 C573 1.386 . S
C572 C574 1.391 . S
C573 C572 1.386 . S
C573 C577 1.393 . S
C574 H566 0.950 . S
C574 C572 1.391 . S
C574 C575 1.400 . S
C575 C574 1.400 . S
C575 C576 1.398 . S
C575 C581 1.491 . S
C576 H567 0.950 . S
C576 C575 1.398 . S
C576 C577 1.391 . S
C577 H565 0.950 . S
C577 C573 1.393 . S
C577 C576 1.391 . S
C578 H568 0.950 . S
C578 C579 1.386 . S
C578 C580 1.391 . S
C579 C578 1.386 . S
C579 C583 1.393 . S
C580 H569 0.950 . S
C580 C578 1.391 . S
C580 C581 1.400 . S
C581 C575 1.491 . S
C581 C580 1.400 . S
C581 C582 1.398 . S
C582 H570 0.950 . S
C582 C581 1.398 . S
C582 C583 1.391 . S
C583 H571 0.950 . S
C583 C579 1.393 . S
C583 C582 1.391 . S
H584 C592 0.950 . S
H585 C597 0.950 . S
H586 C594 0.950 . S
H587 C596 0.950 . S
H588 C598 0.950 . S
H589 C600 0.950 . S
H590 C602 0.950 . S
H591 C603 0.950 . S
C592 H584 0.950 . S
C592 C593 1.386 . S
C592 C594 1.391 . S
C593 C592 1.386 . S
C593 C597 1.393 . S
C594 H586 0.950 . S
C594 C592 1.391 . S
C594 C595 1.400 . S
C595 C594 1.400 . S
C595 C596 1.398 . S
C595 C601 1.491 . S
C596 H587 0.950 . S
C596 C595 1.398 . S
C596 C597 1.391 . S
C597 H585 0.950 . S
C597 C593 1.393 . S
C597 C596 1.391 . S
C598 H588 0.950 . S
C598 C599 1.386 . S
C598 C600 1.391 . S
C599 C598 1.386 . S
C599 C603 1.393 . S
C600 H589 0.950 . S
C600 C598 1.391 . S
C600 C601 1.400 . S
C601 C595 1.491 . S
C601 C600 1.400 . S
C601 C602 1.398 . S
C602 H590 0.950 . S
C602 C601 1.398 . S
C602 C603 1.391 . S
C603 H591 0.950 . S
C603 C599 1.393 . S
C603 C602 1.391 . S
H604 C612 0.950 . S
H605 C617 0.950 . S
H606 C614 0.950 . S
H607 C616 0.950 . S
H608 C618 0.950 . S
H609 C620 0.950 . S
H610 C622 0.950 . S
H611 C623 0.950 . S
C612 H604 0.950 . S
C612 C613 1.386 . S
C612 C614 1.391 . S
C613 C612 1.386 . S
C613 C617 1.393 . S
C614 H606 0.950 . S
C614 C612 1.391 . S
C614 C615 1.400 . S
C615 C614 1.400 . S
C615 C616 1.398 . S
C615 C621 1.491 . S
C616 H607 0.950 . S
C616 C615 1.398 . S
C616 C617 1.391 . S
C617 H605 0.950 . S
C617 C613 1.393 . S
C617 C616 1.391 . S
C618 H608 0.950 . S
C618 C619 1.386 . S
C618 C620 1.391 . S
C619 C618 1.386 . S
C619 C623 1.393 . S
C620 H609 0.950 . S
C620 C618 1.391 . S
C620 C621 1.400 . S
C621 C615 1.491 . S
C621 C620 1.400 . S
C621 C622 1.398 . S
C622 H610 0.950 . S
C622 C621 1.398 . S
C622 C623 1.391 . S
C623 H611 0.950 . S
C623 C619 1.393 . S
C623 C622 1.391 . S
H624 C632 0.950 . S
H625 C637 0.950 . S
H626 C634 0.950 1_554 S
H627 C636 0.950 . S
H628 C638 0.950 . S
H629 C640 0.950 1_556 S
H630 C642 0.950 . S
H631 C643 0.950 . S
C632 H624 0.950 . S
C632 C633 1.386 . S
C632 C634 1.391 . S
C633 C632 1.386 . S
C633 C637 1.393 . S
C634 H626 0.950 1_556 S
C634 C632 1.391 . S
C634 C635 1.400 . S
C635 C634 1.400 . S
C635 C636 1.398 . S
C635 C641 1.491 1_556 S
C636 H627 0.950 . S
C636 C635 1.398 . S
C636 C637 1.391 . S
C637 H625 0.950 . S
C637 C633 1.393 . S
C637 C636 1.391 . S
C638 H628 0.950 . S
C638 C639 1.386 . S
C638 C640 1.391 . S
C639 C638 1.386 . S
C639 C643 1.393 . S
C640 H629 0.950 1_554 S
C640 C638 1.391 . S
C640 C641 1.400 . S
C641 C635 1.491 1_554 S
C641 C640 1.400 . S
C641 C642 1.398 . S
C642 H630 0.950 . S
C642 C641 1.398 . S
C642 C643 1.391 . S
C643 H631 0.950 . S
C643 C639 1.393 . S
C643 C642 1.391 . S
H644 C652 0.950 . S
H645 C657 0.950 . S
H646 C654 0.950 . S
H647 C656 0.950 . S
H648 C658 0.950 . S
H649 C660 0.950 . S
H650 C662 0.950 . S
H651 C663 0.950 . S
C652 H644 0.950 . S
C652 C653 1.386 . S
C652 C654 1.391 . S
C653 C652 1.386 . S
C653 C657 1.393 . S
C654 H646 0.950 . S
C654 C652 1.391 . S
C654 C655 1.400 . S
C655 C654 1.400 . S
C655 C656 1.398 . S
C655 C661 1.491 . S
C656 H647 0.950 . S
C656 C655 1.398 . S
C656 C657 1.391 . S
C657 H645 0.950 . S
C657 C653 1.393 . S
C657 C656 1.391 . S
C658 H648 0.950 . S
C658 C659 1.386 . S
C658 C660 1.391 . S
C659 C658 1.386 . S
C659 C663 1.393 . S
C660 H649 0.950 . S
C660 C658 1.391 . S
C660 C661 1.400 . S
C661 C655 1.491 . S
C661 C660 1.400 . S
C661 C662 1.398 . S
C662 H650 0.950 . S
C662 C661 1.398 . S
C662 C663 1.391 . S
C663 H651 0.950 . S
C663 C659 1.393 . S
C663 C662 1.391 . S
H664 C672 0.950 . S
H665 C677 0.950 . S
H666 C674 0.950 . S
H667 C676 0.950 . S
H668 C678 0.950 . S
H669 C680 0.950 . S
H670 C682 0.950 . S
H671 C683 0.950 . S
C672 H664 0.950 . S
C672 C673 1.386 . S
C672 C674 1.391 . S
C673 C672 1.386 . S
C673 C677 1.393 . S
C674 H666 0.950 . S
C674 C672 1.391 . S
C674 C675 1.400 . S
C675 C674 1.400 . S
C675 C676 1.398 . S
C675 C681 1.491 . S
C676 H667 0.950 . S
C676 C675 1.398 . S
C676 C677 1.391 . S
C677 H665 0.950 . S
C677 C673 1.393 . S
C677 C676 1.391 . S
C678 H668 0.950 . S
C678 C679 1.386 . S
C678 C680 1.391 . S
C679 C678 1.386 . S
C679 C683 1.393 . S
C680 H669 0.950 . S
C680 C678 1.391 . S
C680 C681 1.400 . S
C681 C675 1.491 . S
C681 C680 1.400 . S
C681 C682 1.398 . S
C682 H670 0.950 . S
C682 C681 1.398 . S
C682 C683 1.391 . S
C683 H671 0.950 . S
C683 C679 1.393 . S
C683 C682 1.391 . S
H684 C692 0.950 . S
H685 C697 0.950 . S
H686 C694 0.950 . S
H687 C696 0.950 . S
H688 C698 0.950 . S
H689 C700 0.950 . S
H690 C702 0.950 . S
H691 C703 0.950 . S
C692 H684 0.950 . S
C692 C693 1.386 . S
C692 C694 1.391 . S
C693 C692 1.386 . S
C693 C697 1.393 . S
C694 H686 0.950 . S
C694 C692 1.391 . S
C694 C695 1.400 . S
C695 C694 1.400 . S
C695 C696 1.398 . S
C695 C701 1.491 . S
C696 H687 0.950 . S
C696 C695 1.398 . S
C696 C697 1.391 . S
C697 H685 0.950 . S
C697 C693 1.393 . S
C697 C696 1.391 . S
C698 H688 0.950 . S
C698 C699 1.386 . S
C698 C700 1.391 . S
C699 C698 1.386 . S
C699 C703 1.393 . S
C700 H689 0.950 . S
C700 C698 1.391 . S
C700 C701 1.400 . S
C701 C695 1.491 . S
C701 C700 1.400 . S
C701 C702 1.398 . S
C702 H690 0.950 . S
C702 C701 1.398 . S
C702 C703 1.391 . S
C703 H691 0.950 . S
C703 C699 1.393 . S
C703 C702 1.391 . S
H704 C712 0.950 . S
H705 C717 0.950 . S
H706 C714 0.950 . S
H707 C716 0.950 . S
H708 C718 0.950 . S
H709 C720 0.950 . S
H710 C722 0.950 . S
H711 C723 0.950 . S
C712 H704 0.950 . S
C712 C713 1.386 . S
C712 C714 1.391 . S
C713 C712 1.386 . S
C713 C717 1.393 . S
C714 H706 0.950 . S
C714 C712 1.391 . S
C714 C715 1.400 . S
C715 C714 1.400 . S
C715 C716 1.398 . S
C715 C721 1.491 1_545 S
C716 H707 0.950 . S
C716 C715 1.398 . S
C716 C717 1.391 . S
C717 H705 0.950 . S
C717 C713 1.393 . S
C717 C716 1.391 . S
C718 H708 0.950 . S
C718 C719 1.386 . S
C718 C720 1.391 . S
C719 C718 1.386 . S
C719 C723 1.393 . S
C720 H709 0.950 . S
C720 C718 1.391 . S
C720 C721 1.400 . S
C721 C715 1.491 1_565 S
C721 C720 1.400 . S
C721 C722 1.398 . S
C722 H710 0.950 . S
C722 C721 1.398 . S
C722 C723 1.391 . S
C723 H711 0.950 . S
C723 C719 1.393 . S
C723 C722 1.391 . S
H724 C732 0.950 . S
H725 C737 0.950 . S
H726 C734 0.950 . S
H727 C736 0.950 . S
H728 C738 0.950 . S
H729 C740 0.950 . S
H730 C742 0.950 . S
H731 C743 0.950 . S
C732 H724 0.950 . S
C732 C733 1.386 . S
C732 C734 1.391 . S
C733 C732 1.386 . S
C733 C737 1.393 . S
C734 H726 0.950 . S
C734 C732 1.391 . S
C734 C735 1.400 . S
C735 C734 1.400 . S
C735 C736 1.398 . S
C735 C741 1.491 . S
C736 H727 0.950 . S
C736 C735 1.398 . S
C736 C737 1.391 . S
C737 H725 0.950 . S
C737 C733 1.393 . S
C737 C736 1.391 . S
C738 H728 0.950 . S
C738 C739 1.386 . S
C738 C740 1.391 . S
C739 C738 1.386 . S
C739 C743 1.393 . S
C740 H729 0.950 . S
C740 C738 1.391 . S
C740 C741 1.400 . S
C741 C735 1.491 . S
C741 C740 1.400 . S
C741 C742 1.398 . S
C742 H730 0.950 . S
C742 C741 1.398 . S
C742 C743 1.391 . S
C743 H731 0.950 . S
C743 C739 1.393 . S
C743 C742 1.391 . S
H744 C752 0.950 . S
H745 C757 0.950 . S
H746 C754 0.913 1_554 S
H747 C756 0.950 1_565 S
H748 C758 0.950 . S
H749 C760 0.913 1_556 S
H750 C762 0.950 1_545 S
H751 C763 0.950 . S
C752 H744 0.950 . S
C752 C753 1.386 . S
C752 C754 1.416 . S
C753 C752 1.386 . S
C753 C757 1.393 . S
C754 H746 0.913 1_556 S
C754 C752 1.416 . S
C754 C755 1.413 . S
C755 C754 1.413 . S
C755 C756 1.398 . S
C755 C761 1.491 1_546 S
C756 H747 0.950 1_545 S
C756 C755 1.398 . S
C756 C757 1.391 . S
C757 H745 0.950 . S
C757 C753 1.393 . S
C757 C756 1.391 . S
C758 H748 0.950 . S
C758 C759 1.386 . S
C758 C760 1.416 . S
C759 C758 1.386 . S
C759 C763 1.393 . S
C760 H749 0.913 1_554 S
C760 C758 1.416 . S
C760 C761 1.413 . S
C761 C755 1.491 1_564 S
C761 C760 1.413 . S
C761 C762 1.398 . S
C762 H750 0.950 1_565 S
C762 C761 1.398 . S
C762 C763 1.391 . S
C763 H751 0.950 . S
C763 C759 1.393 . S
C763 C762 1.391 . S
H764 C772 0.950 . S
H765 C777 0.950 . S
H766 C774 0.950 . S
H767 C776 0.950 . S
H768 C778 0.950 . S
H769 C780 0.950 . S
H770 C782 0.950 . S
H771 C783 0.950 . S
C772 H764 0.950 . S
C772 C773 1.386 . S
C772 C774 1.391 . S
C773 C772 1.386 . S
C773 C777 1.393 . S
C774 H766 0.950 . S
C774 C772 1.391 . S
C774 C775 1.400 . S
C775 C774 1.400 . S
C775 C776 1.398 . S
C775 C781 1.491 . S
C776 H767 0.950 . S
C776 C775 1.398 . S
C776 C777 1.391 . S
C777 H765 0.950 . S
C777 C773 1.393 . S
C777 C776 1.391 . S
C778 H768 0.950 . S
C778 C779 1.386 . S
C778 C780 1.391 . S
C779 C778 1.386 . S
C779 C783 1.393 . S
C780 H769 0.950 . S
C780 C778 1.391 . S
C780 C781 1.400 . S
C781 C775 1.491 . S
C781 C780 1.400 . S
C781 C782 1.398 . S
C782 H770 0.950 . S
C782 C781 1.398 . S
C782 C783 1.391 . S
C783 H771 0.950 . S
C783 C779 1.393 . S
C783 C782 1.391 . S
H784 C792 0.950 . S
H785 C797 0.950 . S
H786 C794 0.950 . S
H787 C796 0.950 . S
H788 C798 0.950 . S
H789 C800 0.950 . S
H790 C802 0.950 . S
H791 C803 0.950 . S
C792 H784 0.950 . S
C792 C793 1.386 . S
C792 C794 1.391 . S
C793 C792 1.386 . S
C793 C797 1.393 . S
C794 H786 0.950 . S
C794 C792 1.391 . S
C794 C795 1.400 . S
C795 C794 1.400 . S
C795 C796 1.398 . S
C795 C801 1.491 1_545 S
C796 H787 0.950 . S
C796 C795 1.398 . S
C796 C797 1.391 . S
C797 H785 0.950 . S
C797 C793 1.393 . S
C797 C796 1.391 . S
C798 H788 0.950 . S
C798 C799 1.386 . S
C798 C800 1.391 . S
C799 C798 1.386 . S
C799 C803 1.393 . S
C800 H789 0.950 . S
C800 C798 1.391 . S
C800 C801 1.400 . S
C801 C795 1.491 1_565 S
C801 C800 1.400 . S
C801 C802 1.398 . S
C802 H790 0.950 . S
C802 C801 1.398 . S
C802 C803 1.391 . S
C803 H791 0.950 . S
C803 C799 1.393 . S
C803 C802 1.391 . S
H804 C812 0.950 . S
H805 C817 0.950 . S
H806 C814 0.950 . S
H807 C816 0.950 . S
H808 C818 0.950 . S
H809 C820 0.950 . S
H810 C822 0.950 . S
H811 C823 0.950 . S
C812 H804 0.950 . S
C812 C813 1.386 . S
C812 C814 1.391 . S
C813 C812 1.386 . S
C813 C817 1.393 . S
C814 H806 0.950 . S
C814 C812 1.391 . S
C814 C815 1.400 . S
C815 C814 1.400 . S
C815 C816 1.398 . S
C815 C821 1.491 . S
C816 H807 0.950 . S
C816 C815 1.398 . S
C816 C817 1.391 . S
C817 H805 0.950 . S
C817 C813 1.393 . S
C817 C816 1.391 . S
C818 H808 0.950 . S
C818 C819 1.386 . S
C818 C820 1.391 . S
C819 C818 1.386 . S
C819 C823 1.393 . S
C820 H809 0.950 . S
C820 C818 1.391 . S
C820 C821 1.400 . S
C821 C815 1.491 . S
C821 C820 1.400 . S
C821 C822 1.398 . S
C822 H810 0.950 . S
C822 C821 1.398 . S
C822 C823 1.391 . S
C823 H811 0.950 . S
C823 C819 1.393 . S
C823 C822 1.391 . S
H824 C832 0.950 . S
H825 C837 0.950 . S
H826 C834 0.950 1_545 S
H827 C836 0.950 1_556 S
H828 C838 0.950 . S
H829 C840 0.950 1_565 S
H830 C842 0.950 1_554 S
H831 C843 0.950 . S
C832 H824 0.950 . S
C832 C833 1.386 . S
C832 C834 1.391 . S
C833 C832 1.386 . S
C833 C837 1.393 . S
C834 H826 0.950 1_565 S
C834 C832 1.391 . S
C834 C835 1.400 . S
C835 C834 1.400 . S
C835 C836 1.398 . S
C835 C841 1.491 1_564 S
C836 H827 0.950 1_554 S
C836 C835 1.398 . S
C836 C837 1.391 . S
C837 H825 0.950 . S
C837 C833 1.393 . S
C837 C836 1.391 . S
C838 H828 0.950 . S
C838 C839 1.386 . S
C838 C840 1.391 . S
C839 C838 1.386 . S
C839 C843 1.393 . S
C840 H829 0.950 1_545 S
C840 C838 1.391 . S
C840 C841 1.400 . S
C841 C835 1.491 1_546 S
C841 C840 1.400 . S
C841 C842 1.398 . S
C842 H830 0.950 1_556 S
C842 C841 1.398 . S
C842 C843 1.391 . S
C843 H831 0.950 . S
C843 C839 1.393 . S
C843 C842 1.391 . S
H844 C852 0.950 . S
H845 C857 0.950 . S
H846 C854 0.950 . S
H847 C856 0.950 . S
H848 C858 0.950 . S
H849 C860 0.950 . S
H850 C862 0.950 . S
H851 C863 0.950 . S
C852 H844 0.950 . S
C852 C853 1.386 . S
C852 C854 1.391 . S
C853 C852 1.386 . S
C853 C857 1.393 . S
C854 H846 0.950 . S
C854 C852 1.391 . S
C854 C855 1.400 . S
C855 C854 1.400 . S
C855 C856 1.398 . S
C855 C861 1.491 . S
C856 H847 0.950 . S
C856 C855 1.398 . S
C856 C857 1.391 . S
C857 H845 0.950 . S
C857 C853 1.393 . S
C857 C856 1.391 . S
C858 H848 0.950 . S
C858 C859 1.386 . S
C858 C860 1.391 . S
C859 C858 1.386 . S
C859 C863 1.393 . S
C860 H849 0.950 . S
C860 C858 1.391 . S
C860 C861 1.400 . S
C861 C855 1.491 . S
C861 C860 1.400 . S
C861 C862 1.398 . S
C862 H850 0.950 . S
C862 C861 1.398 . S
C862 C863 1.391 . S
C863 H851 0.950 . S
C863 C859 1.393 . S
C863 C862 1.391 . S
C233 C163 1.418 . S
C239 C8 1.434 . S
C253 C219 1.416 . S
C259 C23 1.436 . S
C273 C36 1.435 . S
C279 C134 1.417 . S
C293 C191 1.436 . S
C299 C50 1.416 . S
C313 C64 1.416 . S
C319 C190 1.436 . S
C333 C79 1.423 . S
C339 C162 1.429 . S
C353 C93 1.427 . S
C359 C218 1.425 . S
C373 C107 1.423 . S
C379 C135 1.429 . S
C393 C51 1.422 . S
C399 C120 1.430 . S
C413 C148 1.427 . S
C419 C22 1.424 . S
C433 C176 1.420 . S
C439 C78 1.431 . S
C453 C205 1.436 . S
C459 C106 1.416 . S
C473 C65 1.423 . S
C479 C121 1.429 . S
C493 C149 1.435 . S
C499 C92 1.417 . S
C513 C204 1.419 . S
C519 C37 1.433 . S
C533 C9 1.432 . S
C539 C177 1.420 . S
C553 C7 1.431 . S
C559 C63 1.424 . S
C573 C20 1.414 . S
C579 C76 1.419 . S
C593 C35 1.415 . S
C599 C90 1.416 . S
C613 C104 1.424 . S
C619 C49 1.417 . S
C633 C119 1.426 . S
C639 C175 1.432 . S
C653 C188 1.429 . S
C659 C132 1.433 . S
C673 C147 1.432 . S
C679 C202 1.431 . S
C693 C216 1.431 . S
C699 C161 1.425 . S
C713 C105 1.416 . S
C719 C21 1.415 . S
C733 C34 1.432 . S
C739 C62 1.425 . S
C753 C48 1.430 . S
C759 C77 1.423 . S
C773 C6 1.432 . S
C779 C91 1.431 . S
C793 C133 1.418 . S
C799 C217 1.414 . S
C813 C174 1.431 . S
C819 C146 1.433 . S
C833 C160 1.432 . S
C839 C189 1.426 . S
C853 C203 1.418 . S
C859 C118 1.414 . S
