# Generated by pormake.
# Topology wji, (4)-cn, num edge types: 1
# Building blocks:
#     Node 0, Type 0, BuildingBlock: QUQFOY_clean_sbu_1, # of connection points: 4
#     Node 1, Type 0, BuildingBlock: QUQFOY_clean_sbu_1, # of connection points: 4
#     Node 2, Type 0, BuildingBlock: QUQFOY_clean_sbu_1, # of connection points: 4
#     Node 3, Type 0, BuildingBlock: QUQFOY_clean_sbu_1, # of connection points: 4
#     Node 4, Type 0, BuildingBlock: QUQFOY_clean_sbu_1, # of connection points: 4
#     Node 5, Type 0, BuildingBlock: QUQFOY_clean_sbu_1, # of connection points: 4
#     Node 6, Type 0, BuildingBlock: QUQFOY_clean_sbu_1, # of connection points: 4
#     Node 7, Type 0, BuildingBlock: QUQFOY_clean_sbu_1, # of connection points: 4
#     Node 8, Type 0, BuildingBlock: QUQFOY_clean_sbu_1, # of connection points: 4
#     Node 9, Type 0, BuildingBlock: QUQFOY_clean_sbu_1, # of connection points: 4
#     Node 10, Type 0, BuildingBlock: QUQFOY_clean_sbu_1, # of connection points: 4
#     Node 11, Type 0, BuildingBlock: QUQFOY_clean_sbu_1, # of connection points: 4
#     Edge 12, Type (0, 0), BuildingBlock: MIFKUJ_clean_linker_0, # of connection points: 2
#     Edge 13, Type (0, 0), BuildingBlock: MIFKUJ_clean_linker_0, # of connection points: 2
#     Edge 14, Type (0, 0), BuildingBlock: MIFKUJ_clean_linker_0, # of connection points: 2
#     Edge 15, Type (0, 0), BuildingBlock: MIFKUJ_clean_linker_0, # of connection points: 2
#     Edge 16, Type (0, 0), BuildingBlock: MIFKUJ_clean_linker_0, # of connection points: 2
#     Edge 17, Type (0, 0), BuildingBlock: MIFKUJ_clean_linker_0, # of connection points: 2
#     Edge 18, Type (0, 0), BuildingBlock: MIFKUJ_clean_linker_0, # of connection points: 2
#     Edge 19, Type (0, 0), BuildingBlock: MIFKUJ_clean_linker_0, # of connection points: 2
#     Edge 20, Type (0, 0), BuildingBlock: MIFKUJ_clean_linker_0, # of connection points: 2
#     Edge 21, Type (0, 0), BuildingBlock: MIFKUJ_clean_linker_0, # of connection points: 2
#     Edge 22, Type (0, 0), BuildingBlock: MIFKUJ_clean_linker_0, # of connection points: 2
#     Edge 23, Type (0, 0), BuildingBlock: MIFKUJ_clean_linker_0, # of connection points: 2
#     Edge 24, Type (0, 0), BuildingBlock: MIFKUJ_clean_linker_0, # of connection points: 2
#     Edge 25, Type (0, 0), BuildingBlock: MIFKUJ_clean_linker_0, # of connection points: 2
#     Edge 26, Type (0, 0), BuildingBlock: MIFKUJ_clean_linker_0, # of connection points: 2
#     Edge 27, Type (0, 0), BuildingBlock: MIFKUJ_clean_linker_0, # of connection points: 2
#     Edge 28, Type (0, 0), BuildingBlock: MIFKUJ_clean_linker_0, # of connection points: 2
#     Edge 29, Type (0, 0), BuildingBlock: MIFKUJ_clean_linker_0, # of connection points: 2
#     Edge 30, Type (0, 0), BuildingBlock: MIFKUJ_clean_linker_0, # of connection points: 2
#     Edge 31, Type (0, 0), BuildingBlock: MIFKUJ_clean_linker_0, # of connection points: 2
#     Edge 32, Type (0, 0), BuildingBlock: MIFKUJ_clean_linker_0, # of connection points: 2
#     Edge 33, Type (0, 0), BuildingBlock: MIFKUJ_clean_linker_0, # of connection points: 2
#     Edge 34, Type (0, 0), BuildingBlock: MIFKUJ_clean_linker_0, # of connection points: 2
#     Edge 35, Type (0, 0), BuildingBlock: MIFKUJ_clean_linker_0, # of connection points: 2
# Relax obj value: 0.272
# Max RMSD: 0.191
# Mean RMSD: 0.191
data_MOF--net-wji--node1-QUQFOY_clean_sbu_1--edge1-MIFKUJ_clean_linker_0
_symmetry_space_group_name_H-M    P1
_symmetry_Int_Tables_number       1
_symmetry_cell_setting            triclinic
loop_
_symmetry_equiv_pos_as_xyz
'x, y, z'
_cell_length_a     80.269183
_cell_length_b     80.272703
_cell_length_c     27.910965
_cell_angle_alpha  90.02005
_cell_angle_beta   89.980551
_cell_angle_gamma 120.00287
loop_
_atom_site_label
_atom_site_type_symbol
_atom_site_fract_x
_atom_site_fract_y
_atom_site_fract_z
_atom_type_partial_charge
O0 O 0.3881 0.31063 0.45832 0.0
Cd1 Cd 0.40004 0.30148 0.40735 0.0
Cd2 Cd 0.43029 0.33896 0.41419 0.0
O3 O 0.41545 0.33665 0.47688 0.0
O4 O 0.38869 0.27332 0.41798 0.0
O5 O 0.41951 0.29444 0.42993 0.0
C6 C 0.40539 0.27693 0.4331 0.0
C7 C 0.46316 0.36264 0.41753 0.0
C8 C 0.39778 0.32502 0.48528 0.0
C9 C 0.4044 0.3255 0.32417 0.0
O10 O 0.4173 0.33885 0.34974 0.0
O11 O 0.39627 0.30811 0.33827 0.0
O12 O 0.44972 0.36688 0.41731 0.0
O13 O 0.45809 0.34465 0.41593 0.0
O14 O 0.08394 0.39265 0.64 0.0
Cd15 Cd 0.10322 0.40317 0.58434 0.0
Cd16 Cd 0.09513 0.4325 0.5841 0.0
O17 O 0.08307 0.41951 0.64854 0.0
O18 O 0.1225 0.39472 0.59372 0.0
O19 O 0.12931 0.42501 0.60168 0.0
C20 C 0.13466 0.41229 0.60538 0.0
C21 C 0.10463 0.46545 0.58127 0.0
C22 C 0.07841 0.40271 0.66286 0.0
C23 C 0.08091 0.40356 0.50103 0.0
O24 O 0.08091 0.4174 0.52321 0.0
O25 O 0.09078 0.39633 0.51688 0.0
O26 O 0.08691 0.45215 0.58346 0.0
O27 O 0.11741 0.46019 0.58068 0.0
O28 O 0.68937 0.08126 0.80127 0.0
Cd29 Cd 0.69905 0.10112 0.74704 0.0
Cd30 Cd 0.66094 0.09243 0.74387 0.0
O31 O 0.66002 0.07694 0.80373 0.0
O32 O 0.72722 0.11743 0.75879 0.0
O33 O 0.70688 0.12837 0.76506 0.0
C34 C 0.72413 0.13123 0.77038 0.0
C35 C 0.63894 0.10374 0.74659 0.0
C36 C 0.67274 0.07343 0.81991 0.0
C37 C 0.67721 0.08104 0.65898 0.0
O38 O 0.66306 0.08118 0.6791 0.0
O39 O 0.69375 0.08936 0.67865 0.0
O40 O 0.63349 0.0858 0.74242 0.0
O41 O 0.65719 0.1157 0.7484 0.0
O42 O 0.61547 0.69586 0.97852 0.0
Cd43 Cd 0.60196 0.7011 0.92305 0.0
Cd44 Cd 0.57459 0.66444 0.93537 0.0
O45 O 0.58907 0.66942 0.99955 0.0
O46 O 0.60887 0.72862 0.92708 0.0
O47 O 0.57971 0.70424 0.94298 0.0
C48 C 0.59161 0.7226 0.9427 0.0
C49 C 0.54131 0.64288 0.93844 0.0
C50 C 0.60644 0.68214 0.00783 0.0
C51 C 0.60026 0.67484 0.8473 0.0
O52 O 0.58841 0.6619 0.8756 0.0
O53 O 0.60626 0.69251 0.85624 0.0
O54 O 0.55364 0.63746 0.94662 0.0
O55 O 0.54772 0.66075 0.92829 0.0
O56 O 0.92148 0.61435 0.12792 0.0
Cd57 Cd 0.8999 0.60023 0.07885 0.0
Cd58 Cd 0.90863 0.57179 0.08855 0.0
O59 O 0.9206 0.58757 0.15033 0.0
O60 O 0.8799 0.60771 0.08871 0.0
O61 O 0.87531 0.57867 0.10532 0.0
C62 C 0.86909 0.59075 0.10653 0.0
C63 C 0.90022 0.53921 0.09486 0.0
C64 C 0.92645 0.60534 0.15648 0.0
C65 C 0.92014 0.59629 0.99677 0.0
O66 O 0.92168 0.58442 0.02399 0.0
O67 O 0.90969 0.60332 0.00926 0.0
O68 O 0.91778 0.55295 0.09466 0.0
O69 O 0.887 0.54383 0.09149 0.0
O70 O 0.31603 0.92172 0.29982 0.0
Cd71 Cd 0.30437 0.90118 0.24736 0.0
Cd72 Cd 0.34191 0.908 0.24244 0.0
O73 O 0.34333 0.92153 0.30662 0.0
O74 O 0.27637 0.88586 0.26256 0.0
O75 O 0.29586 0.87382 0.26587 0.0
C76 C 0.27897 0.87166 0.27316 0.0
C77 C 0.3638 0.89662 0.23648 0.0
C78 C 0.33188 0.92707 0.32104 0.0
C79 C 0.3254 0.92113 0.16016 0.0
O80 O 0.33951 0.92097 0.18048 0.0
O81 O 0.30872 0.91231 0.1789 0.0
O82 O 0.36925 0.91463 0.23559 0.0
O83 O 0.34563 0.88466 0.24094 0.0
O84 O 0.69474 0.61187 0.36476 0.0
Cd85 Cd 0.70025 0.59868 0.42061 0.0
Cd86 Cd 0.66289 0.57174 0.40967 0.0
O87 O 0.66733 0.58608 0.34561 0.0
O88 O 0.72786 0.60586 0.41678 0.0
O89 O 0.70369 0.5766 0.40055 0.0
C90 C 0.72201 0.58864 0.40116 0.0
C91 C 0.63925 0.53886 0.40962 0.0
C92 C 0.68051 0.60319 0.33658 0.0
C93 C 0.67491 0.59834 0.49683 0.0
O94 O 0.66176 0.58637 0.46928 0.0
O95 O 0.69247 0.60395 0.48756 0.0
O96 O 0.63506 0.55223 0.40407 0.0
O97 O 0.65718 0.54401 0.41437 0.0
O98 O 0.08003 0.6916 0.53334 0.0
Cd99 Cd 0.09989 0.70083 0.58739 0.0
Cd100 Cd 0.09291 0.66345 0.58325 0.0
O101 O 0.08106 0.66514 0.51887 0.0
O102 O 0.11673 0.72899 0.57694 0.0
O103 O 0.1269 0.70805 0.56896 0.0
C104 C 0.13019 0.72549 0.56448 0.0
C105 C 0.10277 0.64026 0.58247 0.0
C106 C 0.07549 0.67691 0.50768 0.0
C107 C 0.07869 0.67696 0.66975 0.0
O108 O 0.07892 0.6636 0.6457 0.0
O109 O 0.08803 0.69429 0.6552 0.0
O110 O 0.08498 0.63567 0.5815 0.0
O111 O 0.1154 0.65833 0.58429 0.0
O112 O 0.39162 0.07942 0.70267 0.0
Cd113 Cd 0.40109 0.10052 0.75386 0.0
Cd114 Cd 0.43233 0.09493 0.75392 0.0
O115 O 0.41996 0.08213 0.68932 0.0
O116 O 0.38849 0.11591 0.73902 0.0
O117 O 0.41996 0.12766 0.73392 0.0
C118 C 0.40525 0.12992 0.72731 0.0
C119 C 0.46553 0.10564 0.75859 0.0
C120 C 0.40238 0.07526 0.67832 0.0
C121 C 0.40349 0.08066 0.83854 0.0
O122 O 0.41732 0.08094 0.8155 0.0
O123 O 0.39552 0.08985 0.82281 0.0
O124 O 0.45271 0.08773 0.75767 0.0
O125 O 0.45965 0.11792 0.75655 0.0
O126 O 0.31122 0.39255 0.86437 0.0
Cd127 Cd 0.30591 0.40727 0.91646 0.0
Cd128 Cd 0.34218 0.43446 0.90054 0.0
O129 O 0.33594 0.41918 0.83698 0.0
O130 O 0.27843 0.40048 0.9125 0.0
O131 O 0.30287 0.42901 0.89175 0.0
C132 C 0.2845 0.41729 0.89379 0.0
C133 C 0.3647 0.4675 0.89554 0.0
C134 C 0.32388 0.40136 0.83245 0.0
C135 C 0.33243 0.4102 0.99149 0.0
O136 O 0.34506 0.42125 0.9614 0.0
O137 O 0.31473 0.40439 0.9839 0.0
O138 O 0.36936 0.45458 0.88775 0.0
O139 O 0.34697 0.46179 0.90587 0.0
O140 O 0.92194 0.3125 0.03271 0.0
Cd141 Cd 0.90251 0.3015 0.08776 0.0
Cd142 Cd 0.91161 0.34025 0.09675 0.0
O143 O 0.92586 0.34172 0.03391 0.0
O144 O 0.88651 0.27359 0.07243 0.0
O145 O 0.875 0.29355 0.07225 0.0
C146 C 0.87243 0.27658 0.06362 0.0
C147 C 0.90249 0.36392 0.10293 0.0
C148 C 0.92929 0.3293 0.01525 0.0
C149 C 0.92317 0.32157 0.17665 0.0
O150 O 0.92304 0.3361 0.15893 0.0
O151 O 0.91469 0.30539 0.15529 0.0
O152 O 0.92013 0.36806 0.10449 0.0
O153 O 0.88959 0.34605 0.09794 0.0
O154 O 0.61276 0.91973 0.19551 0.0
Cd155 Cd 0.60102 0.9006 0.25097 0.0
Cd156 Cd 0.57171 0.90831 0.24512 0.0
O157 O 0.58587 0.91996 0.18143 0.0
O158 O 0.60919 0.88102 0.24343 0.0
O159 O 0.57919 0.87467 0.23263 0.0
C160 C 0.59176 0.86909 0.23012 0.0
C161 C 0.53847 0.89731 0.24176 0.0
C162 C 0.60301 0.92479 0.16982 0.0
C163 C 0.59878 0.92305 0.3317 0.0
O164 O 0.58538 0.92294 0.3071 0.0
O165 O 0.60638 0.9132 0.3182 0.0
O166 O 0.55118 0.91525 0.23951 0.0
O167 O 0.54449 0.88522 0.24669 0.0
H168 H 0.30992 0.37802 0.0454 0.0
H169 H 0.32089 0.36189 0.10079 0.0
H170 H 0.37945 0.40791 0.08313 0.0
H171 H 0.36865 0.4238 0.02686 0.0
H172 H 0.37822 0.37516 0.07247 0.0
H173 H 0.35288 0.40062 0.18907 0.0
H174 H 0.32841 0.40638 0.22671 0.0
H175 H 0.29143 0.34561 0.24666 0.0
H176 H 0.31559 0.33947 0.20855 0.0
H177 H 0.42325 0.35839 0.27145 0.0
H178 H 0.40948 0.37031 0.21182 0.0
H179 H 0.35506 0.31761 0.22263 0.0
H180 H 0.36883 0.30546 0.28225 0.0
H181 H 0.35221 0.35084 0.23467 0.0
H182 H 0.37946 0.32616 0.12245 0.0
H183 H 0.40486 0.32136 0.08687 0.0
H184 H 0.43937 0.38205 0.0609 0.0
H185 H 0.41428 0.38726 0.09697 0.0
C186 C 0.32508 0.38491 0.05411 0.0
C187 C 0.33841 0.4022 0.0316 0.0
C188 C 0.33136 0.37565 0.08581 0.0
C189 C 0.35104 0.38364 0.09625 0.0
C190 C 0.36422 0.40134 0.07544 0.0
C191 C 0.358 0.41049 0.04345 0.0
C192 C 0.35812 0.37316 0.12657 0.0
C193 C 0.37266 0.37007 0.10817 0.0
C194 C 0.35051 0.36593 0.17262 0.0
C195 C 0.33595 0.36958 0.19546 0.0
C196 C 0.33946 0.38848 0.2011 0.0
C197 C 0.32566 0.39181 0.2226 0.0
C198 C 0.30835 0.37637 0.23893 0.0
C199 C 0.30483 0.35756 0.23391 0.0
C200 C 0.31857 0.35414 0.2124 0.0
C201 C 0.40847 0.34913 0.26036 0.0
C202 C 0.39715 0.33096 0.28156 0.0
C203 C 0.40062 0.35598 0.22627 0.0
C204 C 0.38123 0.34487 0.21285 0.0
C205 C 0.37005 0.32642 0.23254 0.0
C206 C 0.37799 0.31943 0.26625 0.0
C207 C 0.37247 0.35319 0.18077 0.0
C208 C 0.35762 0.35584 0.19881 0.0
C209 C 0.37991 0.36019 0.13458 0.0
C210 C 0.39504 0.35711 0.1128 0.0
C211 C 0.39253 0.33851 0.10953 0.0
C212 C 0.40686 0.33571 0.08919 0.0
C213 C 0.42374 0.35139 0.07173 0.0
C214 C 0.42629 0.36991 0.07447 0.0
C215 C 0.41201 0.37279 0.09481 0.0
H216 H 0.43481 0.3492 0.05599 0.0
H217 H 0.29769 0.37898 0.25558 0.0
H218 H 0.07126 0.36971 0.45381 0.0
H219 H 0.04394 0.35186 0.39936 0.0
H220 H 0.03126 0.39805 0.40531 0.0
H221 H 0.05841 0.41596 0.45895 0.0
H222 H 0.9998 0.36247 0.42783 0.0
H223 H 0.04917 0.3908 0.30605 0.0
H224 H 0.07925 0.39752 0.26579 0.0
H225 H 0.05679 0.33703 0.24412 0.0
H226 H 0.02665 0.32994 0.28488 0.0
H227 H 0.93628 0.35077 0.24148 0.0
H228 H 0.96203 0.35995 0.29962 0.0
H229 H 0.96525 0.30933 0.26412 0.0
H230 H 0.93937 0.30006 0.20518 0.0
H231 H 1.00049 0.34151 0.26104 0.0
H232 H 0.94965 0.31322 0.37385 0.0
H233 H 0.91944 0.30621 0.41385 0.0
H234 H 0.94432 0.36561 0.45369 0.0
H235 H 0.9746 0.37305 0.41332 0.0
C236 C 0.06293 0.37626 0.44262 0.0
C237 C 0.067 0.39424 0.46111 0.0
C238 C 0.04727 0.366 0.41165 0.0
C239 C 0.03543 0.37354 0.39874 0.0
C240 C 0.04007 0.39187 0.4152 0.0
C241 C 0.05571 0.40214 0.44574 0.0
C242 C 0.01754 0.36211 0.37043 0.0
C243 C 0.99995 0.35798 0.39124 0.0
C244 C 0.01764 0.35557 0.32342 0.0
C245 C 0.03576 0.35983 0.29908 0.0
C246 C 0.05072 0.37892 0.29315 0.0
C247 C 0.06776 0.3828 0.27014 0.0
C248 C 0.06996 0.36771 0.25256 0.0
C249 C 0.05509 0.34871 0.25786 0.0
C250 C 0.03802 0.34475 0.28089 0.0
C251 C 0.94212 0.34132 0.24674 0.0
C252 C 0.93574 0.32467 0.21864 0.0
C253 C 0.95687 0.34658 0.28013 0.0
C254 C 0.9656 0.33533 0.28639 0.0
C255 C 0.95873 0.31824 0.2599 0.0
C256 C 0.94381 0.31286 0.22658 0.0
C257 C 0.98278 0.34238 0.31796 0.0
C258 C 1.00024 0.34567 0.2979 0.0
C259 C 0.98257 0.34808 0.36585 0.0
C260 C 0.96438 0.34371 0.39026 0.0
C261 C 0.94864 0.32482 0.39082 0.0
C262 C 0.93151 0.32077 0.41362 0.0
C263 C 0.92995 0.33546 0.43623 0.0
C264 C 0.94555 0.35424 0.43615 0.0
C265 C 0.96271 0.35838 0.41337 0.0
H266 H 0.91668 0.33229 0.45387 0.0
H267 H 0.08316 0.37075 0.23473 0.0
H268 H 0.63318 0.93518 0.37835 0.0
H269 H 0.64943 0.96267 0.43288 0.0
H270 H 0.59998 0.97037 0.42929 0.0
H271 H 0.58378 0.94315 0.37477 0.0
H272 H 0.63231 0.00339 0.40939 0.0
H273 H 0.61171 0.95363 0.52936 0.0
H274 H 0.60913 0.92462 0.56685 0.0
H275 H 0.67064 0.95273 0.57879 0.0
H276 H 0.67359 0.98184 0.54077 0.0
H277 H 0.64566 0.06595 0.60098 0.0
H278 H 0.63594 0.04025 0.54242 0.0
H279 H 0.68964 0.04113 0.5627 0.0
H280 H 0.69944 0.06687 0.62218 0.0
H281 H 0.65953 0.00503 0.56994 0.0
H282 H 0.68002 0.05586 0.45685 0.0
H283 H 0.68265 0.08497 0.41991 0.0
H284 H 0.62175 0.05506 0.39442 0.0
H285 H 0.61869 0.02583 0.43182 0.0
C286 C 0.62558 0.94243 0.39007 0.0
C287 C 0.60719 0.93698 0.37191 0.0
C288 C 0.63493 0.95821 0.42117 0.0
C289 C 0.62599 0.96871 0.43495 0.0
C290 C 0.60726 0.96263 0.41882 0.0
C291 C 0.59795 0.94696 0.3878 0.0
C292 C 0.6364 0.9867 0.46367 0.0
C293 C 0.6381 0.0037 0.44471 0.0
C294 C 0.64464 0.98732 0.50893 0.0
C295 C 0.64288 0.96982 0.53169 0.0
C296 C 0.62469 0.95356 0.53957 0.0
C297 C 0.62316 0.93711 0.56101 0.0
C298 C 0.63971 0.93681 0.57504 0.0
C299 C 0.65783 0.95297 0.5678 0.0
C300 C 0.65944 0.96945 0.54634 0.0
C301 C 0.65563 0.06102 0.59231 0.0
C302 C 0.67334 0.0685 0.6164 0.0
C303 C 0.65005 0.04629 0.55865 0.0
C304 C 0.66205 0.03872 0.54799 0.0
C305 C 0.68012 0.04672 0.57037 0.0
C306 C 0.68578 0.06157 0.60404 0.0
C307 C 0.65498 0.0216 0.51615 0.0
C308 C 0.65395 0.00479 0.53439 0.0
C309 C 0.64736 0.02113 0.47012 0.0
C310 C 0.64912 0.03868 0.44747 0.0
C311 C 0.66716 0.05552 0.4437 0.0
C312 C 0.66873 0.07204 0.42261 0.0
C313 C 0.65237 0.07188 0.40491 0.0
C314 C 0.63441 0.05517 0.40816 0.0
C315 C 0.63275 0.03861 0.42924 0.0
H316 H 0.65362 0.08468 0.3886 0.0
H317 H 0.6385 0.92406 0.59165 0.0
H318 H 0.63936 0.59337 0.51515 0.0
H319 H 0.63048 0.61013 0.57334 0.0
H320 H 0.68875 0.6405 0.62593 0.0
H321 H 0.69801 0.62387 0.56674 0.0
H322 H 0.66073 0.6259 0.69909 0.0
H323 H 0.67529 0.66479 0.55965 0.0
H324 H 0.67449 0.67345 0.47527 0.0
H325 H 0.61367 0.65161 0.48554 0.0
H326 H 0.61403 0.64256 0.56981 0.0
H327 H 0.62789 0.69806 0.78174 0.0
H328 H 0.64392 0.68827 0.72235 0.0
H329 H 0.60772 0.62899 0.76353 0.0
H330 H 0.59166 0.6385 0.82244 0.0
H331 H 0.63084 0.6638 0.64443 0.0
H332 H 0.63514 0.60736 0.76616 0.0
H333 H 0.63811 0.6021 0.85205 0.0
H334 H 0.66485 0.66285 0.87787 0.0
H335 H 0.66236 0.6685 0.79217 0.0
C336 C 0.65037 0.60349 0.5392 0.0
C337 C 0.66947 0.60724 0.53613 0.0
C338 C 0.64524 0.61318 0.57228 0.0
C339 C 0.65899 0.62678 0.60347 0.0
C340 C 0.67794 0.63015 0.60189 0.0
C341 C 0.68319 0.62059 0.56818 0.0
C342 C 0.65323 0.63711 0.63793 0.0
C343 C 0.65428 0.63426 0.68715 0.0
C344 C 0.64513 0.64833 0.62239 0.0
C345 C 0.64468 0.6529 0.57104 0.0
C346 C 0.6617 0.6616 0.54377 0.0
C347 C 0.66133 0.66666 0.49601 0.0
C348 C 0.64406 0.66317 0.47518 0.0
C349 C 0.62705 0.65438 0.50182 0.0
C350 C 0.62733 0.64929 0.54959 0.0
C351 C 0.62318 0.68292 0.77772 0.0
C352 C 0.60852 0.6691 0.80712 0.0
C353 C 0.63239 0.67736 0.74384 0.0
C354 C 0.62726 0.65794 0.73915 0.0
C355 C 0.61217 0.64409 0.76713 0.0
C356 C 0.60291 0.64958 0.80065 0.0
C357 C 0.63765 0.65195 0.70541 0.0
C358 C 0.63742 0.65556 0.65636 0.0
C359 C 0.64667 0.6416 0.72112 0.0
C360 C 0.64841 0.63833 0.77275 0.0
C361 C 0.64174 0.6196 0.79014 0.0
C362 C 0.64333 0.61655 0.83883 0.0
C363 C 0.65164 0.63212 0.87046 0.0
C364 C 0.65839 0.65078 0.85344 0.0
C365 C 0.65686 0.65392 0.80481 0.0
H366 H 0.65287 0.62971 0.90812 0.0
H367 H 0.64384 0.66734 0.43843 0.0
H368 H 0.06218 0.64337 0.7202 0.0
H369 H 0.03494 0.63156 0.77504 0.0
H370 H 0.03615 0.68576 0.76495 0.0
H371 H 0.06378 0.69788 0.71053 0.0
H372 H 0.02653 0.67099 0.85494 0.0
H373 H 0.00537 0.64828 0.69587 0.0
H374 H 0.00499 0.63297 0.61895 0.0
H375 H 0.98889 0.5799 0.69168 0.0
H376 H 0.98946 0.59498 0.76917 0.0
H377 H 0.93133 0.63001 0.94818 0.0
H378 H 0.95759 0.6454 0.88986 0.0
H379 H 0.96496 0.59575 0.89306 0.0
H380 H 0.93881 0.58031 0.95104 0.0
H381 H 0.9691 0.61035 0.80243 0.0
H382 H 0.99256 0.63413 0.96195 0.0
H383 H 0.99296 0.64961 0.03863 0.0
H384 H 0.00434 0.70099 0.96386 0.0
H385 H 0.00371 0.68569 0.88663 0.0
C386 C 0.05694 0.65296 0.73036 0.0
C387 C 0.06507 0.67152 0.71055 0.0
C388 C 0.04126 0.64613 0.76151 0.0
C389 C 0.03313 0.65757 0.77307 0.0
C390 C 0.04206 0.6766 0.7562 0.0
C391 C 0.05791 0.68354 0.72522 0.0
C392 C 0.0147 0.64917 0.80023 0.0
C393 C 0.01389 0.65791 0.84305 0.0
C394 C 0.99818 0.632 0.78498 0.0
C395 C 0.9976 0.62281 0.73837 0.0
C396 C 1.00187 0.63338 0.6955 0.0
C397 C 1.00161 0.62474 0.65179 0.0
C398 C 0.99696 0.60549 0.65044 0.0
C399 C 0.9925 0.59482 0.69279 0.0
C400 C 0.99277 0.6034 0.73661 0.0
C401 C 0.93822 0.62217 0.93555 0.0
C402 C 0.93303 0.60396 0.95449 0.0
C403 C 0.95335 0.63106 0.90254 0.0
C404 C 0.96347 0.62187 0.88774 0.0
C405 C 0.95744 0.60317 0.90413 0.0
C406 C 0.94246 0.59436 0.93731 0.0
C407 C 0.98105 0.63197 0.85753 0.0
C408 C 0.98169 0.62354 0.81405 0.0
C409 C 0.99734 0.64945 0.8721 0.0
C410 C 0.99787 0.65869 0.9185 0.0
C411 C 0.995 0.64867 0.96184 0.0
C412 C 0.99529 0.65742 0.0054 0.0
C413 C 0.99861 0.67625 0.0061 0.0
C414 C 1.00172 0.68639 0.96325 0.0
C415 C 1.00141 0.67769 0.91958 0.0
H416 H 0.99883 0.683 0.03986 0.0
H417 H 0.99677 0.59883 0.61657 0.0
H418 H 0.41865 0.06131 0.88453 0.0
H419 H 0.40208 0.03389 0.93821 0.0
H420 H 0.35217 0.04079 0.93779 0.0
H421 H 0.36871 0.06843 0.88359 0.0
H422 H 0.36009 0.02993 0.02881 0.0
H423 H 0.35135 0.00907 0.86577 0.0
H424 H 0.36173 0.00779 0.78337 0.0
H425 H 0.39663 0.98506 0.83585 0.0
H426 H 0.38672 0.98652 0.91871 0.0
H427 H 0.30326 0.93571 0.12556 0.0
H428 H 0.31319 0.9622 0.06838 0.0
H429 H 0.36677 0.96313 0.04531 0.0
H430 H 0.35698 0.93673 0.10207 0.0
H431 H 0.35281 0.96927 0.96218 0.0
H432 H 0.36422 0.99322 0.12483 0.0
H433 H 0.35473 0.99512 0.20781 0.0
H434 H 0.31509 0.01218 0.15611 0.0
H435 H 0.32415 0.0101 0.07272 0.0
C436 C 0.40429 0.05731 0.89648 0.0
C437 C 0.39495 0.06699 0.87921 0.0
C438 C 0.3948 0.04154 0.92708 0.0
C439 C 0.37574 0.03504 0.94114 0.0
C440 C 0.36683 0.0455 0.92706 0.0
C441 C 0.37634 0.06134 0.8962 0.0
C442 C 0.36492 0.01657 0.96762 0.0
C443 C 0.35815 0.01658 0.01394 0.0
C444 C 0.36258 0.99919 0.94838 0.0
C445 C 0.3684 0.99805 0.89852 0.0
C446 C 0.36135 0.00393 0.85979 0.0
C447 C 0.36714 0.00315 0.81299 0.0
C448 C 0.37986 0.99638 0.80439 0.0
C449 C 0.38679 0.99032 0.84258 0.0
C450 C 0.38107 0.9911 0.88947 0.0
C451 C 0.31694 0.94123 0.1074 0.0
C452 C 0.32938 0.93417 0.11865 0.0
C453 C 0.32267 0.95649 0.07503 0.0
C454 C 0.34087 0.96488 0.05319 0.0
C455 C 0.35271 0.95696 0.06187 0.0
C456 C 0.34707 0.94185 0.09439 0.0
C457 C 0.34828 0.98266 0.02379 0.0
C458 C 0.35445 0.98253 0.97683 0.0
C459 C 0.35006 0.99991 0.04249 0.0
C460 C 0.34468 1.00127 0.09256 0.0
C461 C 0.35336 0.99722 0.13115 0.0
C462 C 0.34808 0.99836 0.17825 0.0
C463 C 0.33427 0.00371 0.18722 0.0
C464 C 0.32576 0.00799 0.1491 0.0
C465 C 0.33096 0.00684 0.10192 0.0
H466 H 0.33021 0.00459 0.22371 0.0
H467 H 0.38433 0.9958 0.76813 0.0
H468 H 0.64232 0.50615 0.41492 0.0
H469 H 0.6158 0.47266 0.42151 0.0
H470 H 0.57477 0.49241 0.41683 0.0
H471 H 0.60082 0.52548 0.41007 0.0
H472 H 0.56817 0.46692 0.49148 0.0
H473 H 0.58256 0.47311 0.31995 0.0
H474 H 0.60374 0.47868 0.25052 0.0
H475 H 0.6113 0.43159 0.29425 0.0
H476 H 0.59033 0.42591 0.36431 0.0
H477 H 0.47657 0.40105 0.42021 0.0
H478 H 0.50967 0.42705 0.42484 0.0
H479 H 0.52947 0.38604 0.42457 0.0
H480 H 0.49592 0.35954 0.41939 0.0
H481 H 0.55126 0.41767 0.36467 0.0
H482 H 0.53142 0.40749 0.52711 0.0
H483 H 0.50979 0.40168 0.59565 0.0
H484 H 0.51285 0.45593 0.57097 0.0
H485 H 0.53426 0.46196 0.50184 0.0
C486 C 0.62763 0.50328 0.41512 0.0
C487 C 0.62369 0.51848 0.41202 0.0
C488 C 0.61253 0.48418 0.41884 0.0
C489 C 0.59333 0.48009 0.41982 0.0
C490 C 0.58947 0.49525 0.41644 0.0
C491 C 0.60442 0.51418 0.41237 0.0
C492 C 0.57695 0.46018 0.4248 0.0
C493 C 0.56449 0.45611 0.46386 0.0
C494 C 0.57255 0.44583 0.38974 0.0
C495 C 0.58511 0.44926 0.34767 0.0
C496 C 0.58889 0.46407 0.31499 0.0
C497 C 0.60082 0.46722 0.27548 0.0
C498 C 0.60892 0.45554 0.26808 0.0
C499 C 0.60505 0.44065 0.30009 0.0
C500 C 0.59315 0.43746 0.33969 0.0
C501 C 0.48787 0.39743 0.42118 0.0
C502 C 0.48356 0.37817 0.41976 0.0
C503 C 0.50685 0.41237 0.424 0.0
C504 C 0.52204 0.40849 0.42589 0.0
C505 C 0.51793 0.38932 0.42347 0.0
C506 C 0.49878 0.37422 0.42064 0.0
C507 C 0.54205 0.42481 0.4302 0.0
C508 C 0.55519 0.42821 0.39307 0.0
C509 C 0.54717 0.43859 0.46722 0.0
C510 C 0.53443 0.43515 0.50915 0.0
C511 C 0.5274 0.41814 0.53613 0.0
C512 C 0.51518 0.41481 0.57511 0.0
C513 C 0.50994 0.42842 0.58764 0.0
C514 C 0.51694 0.44541 0.56126 0.0
C515 C 0.52915 0.44881 0.52221 0.0
H516 H 0.50047 0.42581 0.61781 0.0
H517 H 0.61815 0.458 0.23746 0.0
H518 H 0.07987 0.47917 0.58134 0.0
H519 H 0.0872 0.51232 0.57579 0.0
H520 H 0.14787 0.53161 0.57066 0.0
H521 H 0.1406 0.49799 0.57653 0.0
H522 H 0.13797 0.55402 0.6323 0.0
H523 H 0.1284 0.53299 0.47027 0.0
H524 H 0.11238 0.5106 0.40317 0.0
H525 H 0.06109 0.51355 0.42735 0.0
H526 H 0.07668 0.53573 0.49506 0.0
H527 H 0.13896 0.64413 0.58216 0.0
H528 H 0.14671 0.61812 0.57657 0.0
H529 H 0.08613 0.57623 0.57332 0.0
H530 H 0.07836 0.60176 0.57854 0.0
H531 H 0.10566 0.56986 0.50327 0.0
H532 H 0.11305 0.5848 0.67464 0.0
H533 H 0.12818 0.60622 0.74397 0.0
H534 H 0.18332 0.61454 0.70209 0.0
H535 H 0.16852 0.59334 0.63215 0.0
C536 C 0.09482 0.49037 0.57907 0.0
C537 C 0.10966 0.48589 0.57903 0.0
C538 C 0.09897 0.50936 0.57579 0.0
C539 C 0.11805 0.52441 0.57209 0.0
C540 C 0.13304 0.52017 0.57322 0.0
C541 C 0.12886 0.50099 0.57643 0.0
C542 C 0.12179 0.54437 0.56664 0.0
C543 C 0.13137 0.55773 0.60342 0.0
C544 C 0.11312 0.54917 0.52904 0.0
C545 C 0.10372 0.53601 0.48786 0.0
C546 C 0.11367 0.5288 0.46144 0.0
C547 C 0.10467 0.51614 0.42327 0.0
C548 C 0.08573 0.51065 0.41101 0.0
C549 C 0.07577 0.51784 0.43684 0.0
C550 C 0.0847 0.53048 0.47507 0.0
C551 C 0.12735 0.62935 0.58037 0.0
C552 C 0.10805 0.62503 0.58065 0.0
C553 C 0.13179 0.61453 0.57725 0.0
C554 C 0.11698 0.59524 0.57438 0.0
C555 C 0.09779 0.591 0.57509 0.0
C556 C 0.09338 0.60567 0.57826 0.0
C557 C 0.12094 0.57909 0.5702 0.0
C558 C 0.1128 0.56644 0.53137 0.0
C559 C 0.13091 0.57501 0.60589 0.0
C560 C 0.13974 0.58772 0.64787 0.0
C561 C 0.12843 0.59134 0.68 0.0
C562 C 0.13693 0.60341 0.71944 0.0
C563 C 0.15671 0.61179 0.72733 0.0
C564 C 0.16801 0.60808 0.69587 0.0
C565 C 0.15958 0.59604 0.65634 0.0
H566 H 0.16327 0.62113 0.75789 0.0
H567 H 0.07878 0.50084 0.38148 0.0
H568 H 0.4974 0.14148 0.7442 0.0
H569 H 0.53139 0.14984 0.74738 0.0
H570 H 0.51379 0.09111 0.784 0.0
H571 H 0.48025 0.08274 0.78081 0.0
H572 H 0.54361 0.11695 0.84006 0.0
H573 H 0.52555 0.10678 0.67072 0.0
H574 H 0.5146 0.11431 0.59545 0.0
H575 H 0.56246 0.17203 0.59968 0.0
H576 H 0.57356 0.16488 0.67536 0.0
H577 H 0.6007 0.0809 0.7619 0.0
H578 H 0.57631 0.09024 0.76962 0.0
H579 H 0.6193 0.14968 0.74755 0.0
H580 H 0.64421 0.14039 0.74026 0.0
H581 H 0.58286 0.13476 0.69162 0.0
H582 H 0.6047 0.14107 0.85234 0.0
H583 H 0.61531 0.13181 0.92544 0.0
H584 H 0.56014 0.08052 0.93706 0.0
H585 H 0.54928 0.0893 0.86359 0.0
C586 C 0.50086 0.13044 0.7532 0.0
C587 C 0.48614 0.11144 0.76206 0.0
C588 C 0.52024 0.13521 0.7549 0.0
C589 C 0.5251 0.12108 0.76592 0.0
C590 C 0.5104 0.10227 0.77568 0.0
C591 C 0.49118 0.09749 0.77357 0.0
C592 C 0.54532 0.12523 0.76608 0.0
C593 C 0.55228 0.12101 0.80774 0.0
C594 C 0.55689 0.13112 0.72433 0.0
C595 C 0.55021 0.13539 0.67897 0.0
C596 C 0.53363 0.12112 0.6558 0.0
C597 C 0.52742 0.12531 0.61304 0.0
C598 C 0.53778 0.14366 0.59289 0.0
C599 C 0.55442 0.15784 0.6154 0.0
C600 C 0.56067 0.15373 0.65822 0.0
C601 C 0.60508 0.09599 0.75861 0.0
C602 C 0.62442 0.10992 0.75051 0.0
C603 C 0.59109 0.1013 0.76319 0.0
C604 C 0.59603 0.12065 0.75953 0.0
C605 C 0.61526 0.13467 0.75063 0.0
C606 C 0.62943 0.12936 0.74662 0.0
C607 C 0.58069 0.12565 0.76503 0.0
C608 C 0.57459 0.13148 0.72449 0.0
C609 C 0.56982 0.12116 0.80779 0.0
C610 C 0.5762 0.11584 0.8523 0.0
C611 C 0.59486 0.12775 0.87029 0.0
C612 C 0.60092 0.12259 0.91184 0.0
C613 C 0.58841 0.10558 0.93587 0.0
C614 C 0.56981 0.0937 0.91843 0.0
C615 C 0.56368 0.09878 0.87687 0.0
H616 H 0.59313 0.10161 0.96802 0.0
H617 H 0.53296 0.14687 0.55976 0.0
H618 H 0.51344 0.63833 0.87484 0.0
H619 H 0.48058 0.61088 0.8701 0.0
H620 H 0.48977 0.58844 0.00194 0.0
H621 H 0.52288 0.61504 0.00452 0.0
H622 H 0.47632 0.56174 0.94461 0.0
H623 H 0.45699 0.60707 0.98736 0.0
H624 H 0.45551 0.63696 0.98219 0.0
H625 H 0.43151 0.62148 0.84079 0.0
H626 H 0.43309 0.5916 0.84485 0.0
H627 H 0.36553 0.49738 0.94541 0.0
H628 H 0.39322 0.53003 0.95421 0.0
H629 H 0.42494 0.51652 0.85158 0.0
H630 H 0.39779 0.48388 0.8443 0.0
H631 H 0.41618 0.56133 0.90144 0.0
H632 H 0.46946 0.5324 0.88828 0.0
H633 H 0.46986 0.50237 0.90425 0.0
H634 H 0.4246 0.48562 0.00762 0.0
H635 H 0.42413 0.51566 0.99278 0.0
C636 C 0.50822 0.62768 0.90316 0.0
C637 C 0.52061 0.62866 0.93991 0.0
C638 C 0.4894 0.61202 0.90063 0.0
C639 C 0.48253 0.59747 0.93573 0.0
C640 C 0.49468 0.59927 0.97408 0.0
C641 C 0.51358 0.61452 0.97573 0.0
C642 C 0.46362 0.57941 0.93026 0.0
C643 C 0.46321 0.5618 0.93548 0.0
C644 C 0.4463 0.57922 0.91885 0.0
C645 C 0.44532 0.59717 0.91627 0.0
C646 C 0.45153 0.6101 0.95502 0.0
C647 C 0.45065 0.62703 0.95231 0.0
C648 C 0.44346 0.63114 0.91115 0.0
C649 C 0.43709 0.61829 0.87264 0.0
C650 C 0.43796 0.60134 0.87515 0.0
C651 C 0.37832 0.50155 0.92419 0.0
C652 C 0.37967 0.48805 0.89479 0.0
C653 C 0.39411 0.52019 0.92916 0.0
C654 C 0.41133 0.52558 0.90441 0.0
C655 C 0.412 0.51256 0.87197 0.0
C656 C 0.39645 0.49391 0.86775 0.0
C657 C 0.42918 0.54399 0.91541 0.0
C658 C 0.42936 0.5615 0.91099 0.0
C659 C 0.44624 0.54418 0.92933 0.0
C660 C 0.44665 0.52621 0.93907 0.0
C661 C 0.45966 0.52235 0.91458 0.0
C662 C 0.45989 0.50532 0.92341 0.0
C663 C 0.44723 0.49207 0.95682 0.0
C664 C 0.43436 0.49586 0.98163 0.0
C665 C 0.4341 0.51288 0.97301 0.0
H666 H 0.44741 0.47889 0.96355 0.0
H667 H 0.44279 0.64426 0.90912 0.0
H668 H 0.86677 0.36106 0.09929 0.0
H669 H 0.85972 0.38752 0.10455 0.0
H670 H 0.92036 0.42812 0.11921 0.0
H671 H 0.92741 0.40207 0.11469 0.0
H672 H 0.90018 0.43568 0.18237 0.0
H673 H 0.89603 0.42074 0.01183 0.0
H674 H 0.88245 0.39949 0.94153 0.0
H675 H 0.82652 0.39122 0.97417 0.0
H676 H 0.83976 0.41225 0.04503 0.0
H677 H 0.92587 0.52671 0.10277 0.0
H678 H 0.91945 0.49389 0.11041 0.0
H679 H 0.85841 0.47276 0.10421 0.0
H680 H 0.86477 0.50599 0.09598 0.0
H681 H 0.8701 0.45136 0.04758 0.0
H682 H 0.87704 0.4725 0.2096 0.0
H683 H 0.89214 0.49523 0.27658 0.0
H684 H 0.9439 0.4926 0.25869 0.0
H685 H 0.92922 0.47006 0.19116 0.0
C686 C 0.87855 0.37564 0.10378 0.0
C687 C 0.89764 0.37945 0.10652 0.0
C688 C 0.87451 0.39073 0.10666 0.0
C689 C 0.88953 0.40983 0.11216 0.0
C690 C 0.90852 0.41353 0.11526 0.0
C691 C 0.91253 0.39856 0.11245 0.0
C692 C 0.88597 0.4263 0.11413 0.0
C693 C 0.89356 0.43907 0.15295 0.0
C694 C 0.87674 0.43044 0.07655 0.0
C695 C 0.86882 0.41784 0.03402 0.0
C696 C 0.88081 0.41425 0.00422 0.0
C697 C 0.87318 0.40228 0.96424 0.0
C698 C 0.85362 0.39396 0.95349 0.0
C699 C 0.84166 0.39764 0.98261 0.0
C700 C 0.84921 0.40958 0.02267 0.0
C701 C 0.91103 0.51517 0.10305 0.0
C702 C 0.89581 0.51901 0.09905 0.0
C703 C 0.90739 0.49637 0.10761 0.0
C704 C 0.88845 0.48089 0.10868 0.0
C705 C 0.87314 0.48453 0.10376 0.0
C706 C 0.87679 0.50349 0.09919 0.0
C707 C 0.88512 0.46108 0.11476 0.0
C708 C 0.87622 0.4477 0.07765 0.0
C709 C 0.89325 0.45638 0.15382 0.0
C710 C 0.90202 0.46961 0.19519 0.0
C711 C 0.89166 0.47682 0.21982 0.0
C712 C 0.90015 0.48967 0.2579 0.0
C713 C 0.91897 0.49537 0.27186 0.0
C714 C 0.92932 0.48816 0.24787 0.0
C715 C 0.9209 0.47531 0.20975 0.0
H716 H 0.92553 0.50535 0.30127 0.0
H717 H 0.84774 0.3847 0.92252 0.0
H718 H 0.40054 0.91788 0.20536 0.0
H719 H 0.42525 0.90884 0.20173 0.0
H720 H 0.38502 0.85237 0.2556 0.0
H721 H 0.35984 0.86137 0.25905 0.0
H722 H 0.42149 0.87068 0.3032 0.0
H723 H 0.3976 0.85411 0.14509 0.0
H724 H 0.38565 0.85788 0.06683 0.0
H725 H 0.4401 0.9083 0.03818 0.0
H726 H 0.45231 0.90502 0.11658 0.0
H727 H 0.50698 0.86227 0.26499 0.0
H728 H 0.47286 0.85341 0.26051 0.0
H729 H 0.48954 0.90978 0.20512 0.0
H730 H 0.52325 0.9187 0.20988 0.0
H731 H 0.45916 0.88019 0.15455 0.0
H732 H 0.47905 0.90062 0.31993 0.0
H733 H 0.49108 0.89796 0.39922 0.0
H734 H 0.44386 0.84022 0.41359 0.0
H735 H 0.43169 0.84248 0.33402 0.0
C736 C 0.39683 0.90347 0.2162 0.0
C737 C 0.37822 0.89033 0.23251 0.0
C738 C 0.41097 0.89829 0.21387 0.0
C739 C 0.40693 0.87988 0.22795 0.0
C740 C 0.38838 0.86662 0.24433 0.0
C741 C 0.37403 0.87175 0.24613 0.0
C742 C 0.42264 0.87523 0.22693 0.0
C743 C 0.42942 0.87214 0.27049 0.0
C744 C 0.43305 0.87729 0.1843 0.0
C745 C 0.42585 0.87933 0.13687 0.0
C746 C 0.407 0.86607 0.12225 0.0
C747 C 0.40018 0.86811 0.07783 0.0
C748 C 0.4121 0.88332 0.04757 0.0
C749 C 0.43089 0.89651 0.06165 0.0
C750 C 0.43778 0.89455 0.10605 0.0
C751 C 0.50329 0.87269 0.25167 0.0
C752 C 0.51779 0.89121 0.238 0.0
C753 C 0.48385 0.86763 0.24919 0.0
C754 C 0.4787 0.88095 0.23243 0.0
C755 C 0.49317 0.89925 0.21792 0.0
C756 C 0.51247 0.90436 0.22095 0.0
C757 C 0.45841 0.87651 0.23104 0.0
C758 C 0.45083 0.87797 0.18696 0.0
C759 C 0.4473 0.87295 0.27314 0.0
C760 C 0.45463 0.87161 0.32082 0.0
C761 C 0.47134 0.88729 0.33982 0.0
C762 C 0.47816 0.88587 0.38483 0.0
C763 C 0.46829 0.8689 0.41135 0.0
C764 C 0.45153 0.85333 0.39295 0.0
C765 C 0.44466 0.85467 0.34791 0.0
H766 H 0.47358 0.86783 0.44621 0.0
H767 H 0.4068 0.88488 0.01319 0.0
H768 H 0.31555 0.36411 0.83374 0.0
H769 H 0.32573 0.34833 0.7753 0.0
H770 H 0.34735 0.39816 0.68343 0.0
H771 H 0.33825 0.41442 0.74327 0.0
H772 H 0.32035 0.33649 0.68945 0.0
H773 H 0.38812 0.40777 0.63071 0.0
H774 H 0.41019 0.4399 0.66414 0.0
H775 H 0.39638 0.41691 0.80677 0.0
H776 H 0.37446 0.38461 0.77419 0.0
H777 H 0.36138 0.31895 0.48568 0.0
H778 H 0.34651 0.32918 0.54641 0.0
H779 H 0.39724 0.34977 0.63481 0.0
H780 H 0.41266 0.34085 0.57218 0.0
H781 H 0.38828 0.37479 0.63647 0.0
H782 H 0.35097 0.30736 0.6605 0.0
H783 H 0.33058 0.27315 0.63916 0.0
H784 H 0.28676 0.28434 0.58731 0.0
H785 H 0.307 0.31868 0.60776 0.0
C786 C 0.32219 0.37155 0.80068 0.0
C787 C 0.32638 0.39056 0.79319 0.0
C788 C 0.328 0.36252 0.76729 0.0
C789 C 0.33779 0.37225 0.72555 0.0
C790 C 0.34038 0.3906 0.7161 0.0
C791 C 0.33506 0.39983 0.75007 0.0
C792 C 0.34652 0.36386 0.69382 0.0
C793 C 0.3352 0.34483 0.67781 0.0
C794 C 0.36612 0.37448 0.68009 0.0
C795 C 0.3795 0.39382 0.69998 0.0
C796 C 0.38986 0.40956 0.66919 0.0
C797 C 0.40233 0.4278 0.688 0.0
C798 C 0.40463 0.43046 0.73755 0.0
C799 C 0.39454 0.41485 0.76841 0.0
C800 C 0.38208 0.39658 0.74979 0.0
C801 C 0.36922 0.32545 0.51839 0.0
C802 C 0.38812 0.32914 0.52445 0.0
C803 C 0.36067 0.33118 0.55329 0.0
C804 C 0.37059 0.34003 0.59572 0.0
C805 C 0.38928 0.34307 0.60238 0.0
C806 C 0.39807 0.33791 0.56676 0.0
C807 C 0.36208 0.34737 0.63145 0.0
C808 C 0.37345 0.3663 0.64817 0.0
C809 C 0.34283 0.33629 0.64766 0.0
C810 C 0.33058 0.31564 0.63531 0.0
C811 C 0.33704 0.30256 0.64424 0.0
C812 C 0.3255 0.28313 0.63235 0.0
C813 C 0.3074 0.27658 0.6118 0.0
C814 C 0.30079 0.28944 0.6032 0.0
C815 C 0.31228 0.30888 0.61499 0.0
H816 H 0.29849 0.26154 0.60261 0.0
H817 H 0.41427 0.44459 0.75203 0.0
H818 H 0.94952 0.3646 0.97297 0.0
H819 H 0.97408 0.37451 0.91109 0.0
H820 H 0.96471 0.31675 0.90391 0.0
H821 H 0.94025 0.30671 0.96658 0.0
H822 H 0.00235 0.34268 0.90895 0.0
H823 H 0.94936 0.33407 0.81383 0.0
H824 H 0.9216 0.33764 0.79137 0.0
H825 H 0.95847 0.39882 0.78025 0.0
H826 H 0.98642 0.39565 0.80332 0.0
H827 H 0.06093 0.36561 0.69613 0.0
H828 H 0.03533 0.35104 0.75614 0.0
H829 H 0.03976 0.40616 0.78111 0.0
H830 H 0.06514 0.42078 0.72116 0.0
H831 H 0.00309 0.37821 0.76284 0.0
H832 H 0.0557 0.38644 0.86335 0.0
H833 H 0.0832 0.38236 0.88542 0.0
H834 H 0.04651 0.32098 0.88466 0.0
H835 H 0.01883 0.32469 0.86195 0.0
C836 C 0.9525 0.35392 0.95795 0.0
C837 C 0.94292 0.33486 0.97477 0.0
C838 C 0.96652 0.35961 0.92244 0.0
C839 C 0.9711 0.34632 0.90266 0.0
C840 C 0.96137 0.32721 0.91875 0.0
C841 C 0.94736 0.3215 0.95442 0.0
C842 C 0.98663 0.35269 0.86662 0.0
C843 C 0.00237 0.35014 0.87652 0.0
C844 C 0.98674 0.36265 0.82474 0.0
C845 C 0.96997 0.36463 0.81067 0.0
C846 C 0.95153 0.3483 0.80695 0.0
C847 C 0.93576 0.35025 0.79404 0.0
C848 C 0.93826 0.36845 0.78448 0.0
C849 C 0.95655 0.38473 0.7877 0.0
C850 C 0.97237 0.38286 0.80062 0.0
C851 C 0.05667 0.37469 0.71497 0.0
C852 C 0.06497 0.39433 0.70361 0.0
C853 C 0.04206 0.36634 0.74924 0.0
C854 C 0.03564 0.37753 0.77286 0.0
C855 C 0.04444 0.39726 0.76299 0.0
C856 C 0.059 0.4056 0.72881 0.0
C857 C 0.01898 0.36861 0.80577 0.0
C858 C 0.00299 0.37061 0.79509 0.0
C859 C 0.01862 0.35808 0.84672 0.0
C860 C 0.03525 0.35584 0.86041 0.0
C861 C 0.05353 0.37207 0.86746 0.0
C862 C 0.06914 0.36982 0.88018 0.0
C863 C 0.06661 0.35142 0.8863 0.0
C864 C 0.04845 0.33523 0.87983 0.0
C865 C 0.0328 0.33739 0.86707 0.0
H866 H 0.07872 0.34971 0.89615 0.0
H867 H 0.92604 0.36993 0.7745 0.0
H868 H 0.58526 0.93497 0.10223 0.0
H869 H 0.60036 0.95898 0.03932 0.0
H870 H 0.65606 0.96793 0.08036 0.0
H871 H 0.64104 0.94391 0.14398 0.0
H872 H 0.65577 0.00157 0.07345 0.0
H873 H 0.63723 0.94672 0.97554 0.0
H874 H 0.61577 0.91438 0.94267 0.0
H875 H 0.57803 0.93329 0.88776 0.0
H876 H 0.59911 0.96569 0.92092 0.0
H877 H 0.69678 0.06469 0.86972 0.0
H878 H 0.68763 0.03868 0.92783 0.0
H879 H 0.6281 0.02327 0.91386 0.0
H880 H 0.63704 0.04919 0.85607 0.0
H881 H 0.63442 0.99212 0.90388 0.0
H882 H 0.65141 0.04577 0.01048 0.0
H883 H 0.67295 0.07805 0.04366 0.0
H884 H 0.71412 0.06102 0.08166 0.0
H885 H 0.69292 0.02869 0.04805 0.0
C886 C 0.6007 0.94183 0.09755 0.0
C887 C 0.61196 0.93759 0.12823 0.0
C888 C 0.6093 0.95549 0.06139 0.0
C889 C 0.62931 0.96513 0.05505 0.0
C890 C 0.64058 0.96059 0.0847 0.0
C891 C 0.63197 0.94682 0.12085 0.0
C892 C 0.63837 0.98088 0.01961 0.0
C893 C 0.65146 0.99945 0.0361 0.0
C894 C 0.63246 0.9781 0.97114 0.0
C895 C 0.61971 0.95862 0.95103 0.0
C896 C 0.62427 0.94395 0.95679 0.0
C897 C 0.61219 0.92561 0.93804 0.0
C898 C 0.59553 0.92177 0.91321 0.0
C899 C 0.59094 0.93628 0.90702 0.0
C900 C 0.60297 0.95465 0.92573 0.0
C901 C 0.68176 0.05588 0.87937 0.0
C902 C 0.66763 0.05898 0.85822 0.0
C903 C 0.67658 0.04106 0.91254 0.0
C904 C 0.6572 0.02908 0.92486 0.0
C905 C 0.64313 0.03234 0.90453 0.0
C906 C 0.64829 0.04723 0.87174 0.0
C907 C 0.6514 0.01278 0.95808 0.0
C908 C 0.63896 0.99414 0.94107 0.0
C909 C 0.65796 0.01548 0.00597 0.0
C910 C 0.6707 0.0349 0.02619 0.0
C911 C 0.66514 0.04897 0.02547 0.0
C912 C 0.67727 0.06726 0.04445 0.0
C913 C 0.69493 0.07161 0.0646 0.0
C914 C 0.70046 0.05765 0.06594 0.0
C915 C 0.6884 0.03934 0.04695 0.0
H916 H 0.70429 0.08577 0.0793 0.0
H917 H 0.58619 0.90756 0.89872 0.0
H918 H 0.64418 0.70505 0.03434 0.0
H919 H 0.66174 0.69782 0.09482 0.0
H920 H 0.60934 0.64606 0.13319 0.0
H921 H 0.59168 0.65337 0.07411 0.0
H922 H 0.63013 0.66191 0.21039 0.0
H923 H 0.64152 0.6467 0.04966 0.0
H924 H 0.65263 0.65447 0.96609 0.0
H925 H 0.70976 0.69435 0.01481 0.0
H926 H 0.69883 0.68712 0.09883 0.0
H927 H 0.6493 0.59058 0.27821 0.0
H928 H 0.64227 0.60984 0.22332 0.0
H929 H 0.69841 0.65888 0.24909 0.0
H930 H 0.70562 0.63975 0.305 0.0
H931 H 0.68178 0.65128 0.14613 0.0
H932 H 0.66956 0.66056 0.30961 0.0
H933 H 0.65699 0.64855 0.39038 0.0
H934 H 0.59957 0.61702 0.33422 0.0
H935 H 0.61194 0.62816 0.25261 0.0
C936 C 0.63634 0.69233 0.05634 0.0
C937 C 0.61658 0.67964 0.04896 0.0
C938 C 0.64641 0.68819 0.09073 0.0
C939 C 0.63691 0.67122 0.11784 0.0
C940 C 0.61698 0.65922 0.11259 0.0
C941 C 0.60691 0.66339 0.07858 0.0
C942 C 0.64767 0.6649 0.14891 0.0
C943 C 0.64149 0.6597 0.19638 0.0
C944 C 0.66274 0.6623 0.13088 0.0
C945 C 0.66931 0.66657 0.08045 0.0
C946 C 0.65641 0.65724 0.04253 0.0
C947 C 0.66269 0.66153 0.99508 0.0
C948 C 0.6819 0.67491 0.9851 0.0
C949 C 0.69488 0.68402 0.02259 0.0
C950 C 0.68864 0.67986 0.07013 0.0
C951 C 0.66036 0.60533 0.27159 0.0
C952 C 0.67792 0.61373 0.29657 0.0
C953 C 0.6563 0.6163 0.24017 0.0
C954 C 0.66975 0.63577 0.23286 0.0
C955 C 0.68788 0.64385 0.25457 0.0
C956 C 0.69192 0.63292 0.28654 0.0
C957 C 0.6638 0.64789 0.20675 0.0
C958 C 0.67084 0.65408 0.16042 0.0
C959 C 0.64934 0.65119 0.22555 0.0
C960 C 0.64172 0.64508 0.27486 0.0
C961 C 0.65428 0.65092 0.31435 0.0
C962 C 0.64718 0.64425 0.36032 0.0
C963 C 0.62748 0.63205 0.36749 0.0
C964 C 0.61484 0.62648 0.32863 0.0
C965 C 0.62189 0.63292 0.28246 0.0
H966 H 0.62201 0.62695 0.40315 0.0
H967 H 0.68676 0.67821 0.94836 0.0
H968 H 0.07268 0.65605 0.42788 0.0
H969 H 0.04953 0.64722 0.36238 0.0
H970 H 0.02496 0.67814 0.43152 0.0
H971 H 0.04878 0.6879 0.4953 0.0
H972 H 0.01408 0.62592 0.36112 0.0
H973 H 0.00281 0.69255 0.35592 0.0
H974 H 0.02231 0.72779 0.3648 0.0
H975 H 0.07322 0.72601 0.32669 0.0
H976 H 0.05401 0.69081 0.31687 0.0
H977 H 0.9263 0.59432 0.24853 0.0
H978 H 0.95255 0.60962 0.30659 0.0
H979 H 0.98619 0.65403 0.2034 0.0
H980 H 0.95929 0.63958 0.14704 0.0
H981 H 0.99515 0.66952 0.28333 0.0
H982 H 0.99068 0.61211 0.22251 0.0
H983 H 0.97509 0.57766 0.2019 0.0
H984 H 0.96326 0.56272 0.35064 0.0
H985 H 0.97856 0.59709 0.37209 0.0
C986 C 0.06252 0.66121 0.42853 0.0
C987 C 0.06254 0.67271 0.46645 0.0
C988 C 0.04926 0.65611 0.39123 0.0
C989 C 0.03555 0.66213 0.39166 0.0
C990 C 0.03568 0.67373 0.42952 0.0
C991 C 0.04924 0.67922 0.46616 0.0
C992 C 0.02035 0.65525 0.35434 0.0
C993 C 0.01006 0.63551 0.34391 0.0
C994 C 0.01534 0.66777 0.33082 0.0
C995 C 0.02697 0.689 0.33609 0.0
C996 C 0.01815 0.69968 0.3492 0.0
C997 C 0.02916 0.71965 0.35444 0.0
C998 C 0.049 0.72912 0.34645 0.0
C999 C 0.05786 0.71865 0.33303 0.0
C1000 C 0.04692 0.69869 0.32768 0.0
C1001 C 0.93917 0.60759 0.2389 0.0
C1002 C 0.94091 0.61581 0.19358 0.0
C1003 C 0.95424 0.61622 0.27176 0.0
C1004 C 0.97165 0.63264 0.25885 0.0
C1005 C 0.97299 0.64134 0.21424 0.0
C1006 C 0.95763 0.6331 0.18205 0.0
C1007 C 0.98872 0.64016 0.29078 0.0
C1008 C 0.99931 0.65999 0.30026 0.0
C1009 C 0.99468 0.62787 0.31152 0.0
C1010 C 0.98563 0.60717 0.29886 0.0
C1011 C 0.98467 0.60147 0.2508 0.0
C1012 C 0.97588 0.58196 0.23897 0.0
C1013 C 0.96815 0.56801 0.27493 0.0
C1014 C 0.96924 0.57354 0.32282 0.0
C1015 C 0.97798 0.59304 0.33484 0.0
H1016 H 0.96133 0.5529 0.2657 0.0
H1017 H 0.05749 0.74458 0.35057 0.0
H1018 H 0.35311 0.92956 0.39977 0.0
H1019 H 0.3633 0.95328 0.46448 0.0
H1020 H 0.33533 0.98049 0.39324 0.0
H1021 H 0.32402 0.95601 0.33075 0.0
H1022 H 0.38569 0.98832 0.4691 0.0
H1023 H 0.32185 0.0038 0.46617 0.0
H1024 H 0.28674 0.98606 0.45324 0.0
H1025 H 0.28444 0.93322 0.49231 0.0
H1026 H 0.31947 0.95066 0.5061 0.0
H1027 H 0.41759 0.07543 0.59093 0.0
H1028 H 0.4042 0.04977 0.53079 0.0
H1029 H 0.35577 0.01576 0.62375 0.0
H1030 H 0.36836 0.04205 0.68167 0.0
H1031 H 0.34287 0.00926 0.54239 0.0
H1032 H 0.39716 0.00915 0.61021 0.0
H1033 H 0.4309 0.02256 0.63564 0.0
H1034 H 0.44962 0.03646 0.4896 0.0
H1035 H 0.416 0.02336 0.46337 0.0
C1036 C 0.34894 0.94048 0.39852 0.0
C1037 C 0.33762 0.94089 0.36078 0.0
C1038 C 0.35482 0.95407 0.4353 0.0
C1039 C 0.34986 0.96857 0.43429 0.0
C1040 C 0.33883 0.96913 0.39589 0.0
C1041 C 0.33245 0.9552 0.36 0.0
C1042 C 0.35677 0.98352 0.47232 0.0
C1043 C 0.37627 0.99279 0.48534 0.0
C1044 C 0.34446 0.98911 0.49455 0.0
C1045 C 0.32333 0.97853 0.48673 0.0
C1046 C 0.31384 0.98841 0.4722 0.0
C1047 C 0.29395 0.9784 0.46468 0.0
C1048 C 0.28338 0.95852 0.47181 0.0
C1049 C 0.29266 0.94861 0.48663 0.0
C1050 C 0.31253 0.95855 0.49424 0.0
C1051 C 0.40396 0.06254 0.59793 0.0
C1052 C 0.39393 0.06062 0.64058 0.0
C1053 C 0.3964 0.0478 0.56391 0.0
C1054 C 0.37919 0.03054 0.57313 0.0
C1055 C 0.36904 0.02887 0.61557 0.0
C1056 C 0.37623 0.04388 0.6487 0.0
C1057 C 0.37182 0.01413 0.53906 0.0
C1058 C 0.35225 0.00466 0.52654 0.0
C1059 C 0.38383 0.00763 0.51934 0.0
C1060 C 0.40408 0.01543 0.53489 0.0
C1061 C 0.40849 0.01517 0.58356 0.0
C1062 C 0.42759 0.0227 0.59811 0.0
C1063 C 0.4424 0.0304 0.56427 0.0
C1064 C 0.43813 0.03052 0.51578 0.0
C1065 C 0.41906 0.02303 0.50104 0.0
H1066 H 0.45718 0.03623 0.57561 0.0
H1067 H 0.26799 0.9508 0.46593 0.0
H1068 H 0.43842 0.27936 0.46918 0.0
H1069 H 0.44093 0.25574 0.51989 0.0
H1070 H 0.37987 0.21711 0.50596 0.0
H1071 H 0.37726 0.24044 0.45517 0.0
H1072 H 0.39253 0.22352 0.60085 0.0
H1073 H 0.4102 0.20718 0.44955 0.0
H1074 H 0.42963 0.21407 0.37606 0.0
H1075 H 0.48054 0.23248 0.46077 0.0
H1076 H 0.46144 0.22594 0.53481 0.0
H1077 H 0.37641 0.1358 0.69618 0.0
H1078 H 0.37911 0.16235 0.64828 0.0
H1079 H 0.44102 0.19008 0.65492 0.0
H1080 H 0.43837 0.16299 0.70168 0.0
H1081 H 0.4311 0.19212 0.56774 0.0
H1082 H 0.41448 0.20718 0.71861 0.0
H1083 H 0.39625 0.20155 0.79373 0.0
H1084 H 0.34531 0.1878 0.71355 0.0
H1085 H 0.36316 0.19308 0.6379 0.0
C1086 C 0.42559 0.2657 0.47621 0.0
C1087 C 0.40764 0.26182 0.45808 0.0
C1088 C 0.42705 0.25222 0.50526 0.0
C1089 C 0.41057 0.23468 0.51689 0.0
C1090 C 0.39276 0.23057 0.49765 0.0
C1091 C 0.39132 0.24392 0.46834 0.0
C1092 C 0.41154 0.22093 0.55092 0.0
C1093 C 0.40081 0.2165 0.59344 0.0
C1094 C 0.42297 0.21238 0.54218 0.0
C1095 C 0.43443 0.21628 0.4977 0.0
C1096 C 0.42557 0.21287 0.45251 0.0
C1097 C 0.43651 0.21667 0.41075 0.0
C1098 C 0.45631 0.22377 0.41374 0.0
C1099 C 0.4652 0.22702 0.4585 0.0
C1100 C 0.45433 0.22325 0.50037 0.0
C1101 C 0.39063 0.14764 0.68811 0.0
C1102 C 0.40718 0.14728 0.70306 0.0
C1103 C 0.39217 0.16292 0.66074 0.0
C1104 C 0.41028 0.17846 0.64838 0.0
C1105 C 0.42687 0.17831 0.66397 0.0
C1106 C 0.42534 0.16286 0.69098 0.0
C1107 C 0.41173 0.19432 0.61748 0.0
C1108 C 0.42294 0.19923 0.57557 0.0
C1109 C 0.40095 0.20355 0.6271 0.0
C1110 C 0.39014 0.20039 0.67254 0.0
C1111 C 0.39935 0.20282 0.71697 0.0
C1112 C 0.38909 0.19972 0.75966 0.0
C1113 C 0.36962 0.19428 0.75841 0.0
C1114 C 0.36039 0.19199 0.71446 0.0
C1115 C 0.37058 0.19507 0.67166 0.0
H1116 H 0.3617 0.19188 0.7915 0.0
H1117 H 0.46476 0.2267 0.38137 0.0
H1118 H 0.24634 0.40275 0.91346 0.0
H1119 H 0.22276 0.40592 0.8647 0.0
H1120 H 0.26792 0.44372 0.76796 0.0
H1121 H 0.29164 0.44154 0.81841 0.0
H1122 H 0.2434 0.45457 0.76832 0.0
H1123 H 0.23794 0.39305 0.74815 0.0
H1124 H 0.23403 0.36181 0.77299 0.0
H1125 H 0.17851 0.34538 0.8321 0.0
H1126 H 0.18221 0.37665 0.80814 0.0
H1127 H 0.15546 0.39425 0.59184 0.0
H1128 H 0.18364 0.39909 0.6369 0.0
H1129 H 0.18277 0.44451 0.71781 0.0
H1130 H 0.1554 0.4405 0.67056 0.0
H1131 H 0.18658 0.39254 0.72156 0.0
H1132 H 0.22485 0.47392 0.77143 0.0
H1133 H 0.2318 0.50471 0.73485 0.0
H1134 H 0.22685 0.48076 0.59447 0.0
H1135 H 0.22012 0.44991 0.63019 0.0
C1136 C 0.25127 0.41209 0.88242 0.0
C1137 C 0.27081 0.42182 0.86963 0.0
C1138 C 0.23776 0.41376 0.85422 0.0
C1139 C 0.24339 0.42456 0.81157 0.0
C1140 C 0.26309 0.43519 0.8004 0.0
C1141 C 0.27668 0.43395 0.82934 0.0
C1142 C 0.22873 0.4238 0.77725 0.0
C1143 C 0.23096 0.441 0.75813 0.0
C1144 C 0.21276 0.4061 0.76243 0.0
C1145 C 0.21044 0.38726 0.77676 0.0
C1146 C 0.22495 0.38282 0.7667 0.0
C1147 C 0.22277 0.3651 0.7806 0.0
C1148 C 0.20605 0.35164 0.80422 0.0
C1149 C 0.19146 0.35584 0.81387 0.0
C1150 C 0.19359 0.37355 0.80011 0.0
C1151 C 0.16162 0.4056 0.61839 0.0
C1152 C 0.15331 0.41707 0.62745 0.0
C1153 C 0.17767 0.40829 0.64447 0.0
C1154 C 0.18552 0.42221 0.68099 0.0
C1155 C 0.17743 0.43398 0.68924 0.0
C1156 C 0.16169 0.43164 0.66223 0.0
C1157 C 0.20111 0.42334 0.7126 0.0
C1158 C 0.19901 0.40616 0.73146 0.0
C1159 C 0.21761 0.44099 0.72535 0.0
C1160 C 0.22178 0.45954 0.70354 0.0
C1161 C 0.22531 0.47524 0.73277 0.0
C1162 C 0.2292 0.4927 0.71217 0.0
C1163 C 0.2297 0.49467 0.66237 0.0
C1164 C 0.22638 0.4792 0.63304 0.0
C1165 C 0.2225 0.46171 0.65345 0.0
H1166 H 0.23271 0.5082 0.6465 0.0
H1167 H 0.20439 0.33793 0.81495 0.0
H1168 H 0.86508 0.2413 0.03269 0.0
H1169 H 0.83862 0.21869 0.98203 0.0
H1170 H 0.81343 0.25511 0.98743 0.0
H1171 H 0.84009 0.27808 0.03811 0.0
H1172 H 0.78614 0.21422 0.99517 0.0
H1173 H 0.83741 0.25858 0.89325 0.0
H1174 H 0.87101 0.27686 0.86527 0.0
H1175 H 0.87049 0.2241 0.83581 0.0
H1176 H 0.83696 0.20549 0.86434 0.0
H1177 H 0.72217 0.16246 0.8037 0.0
H1178 H 0.7463 0.18932 0.85154 0.0
H1179 H 0.78447 0.1662 0.84002 0.0
H1180 H 0.76076 0.13976 0.79134 0.0
H1181 H 0.80455 0.20345 0.83321 0.0
H1182 H 0.75539 0.15904 0.94093 0.0
H1183 H 0.72232 0.1397 0.97198 0.0
H1184 H 0.71919 0.19106 0.99307 0.0
H1185 H 0.75217 0.21069 0.96156 0.0
C1186 C 0.8538 0.24443 0.02384 0.0
C1187 C 0.85479 0.26159 0.03932 0.0
C1188 C 0.8387 0.23149 0.99466 0.0
C1189 C 0.8242 0.23535 0.98041 0.0
C1190 C 0.82452 0.25191 0.99789 0.0
C1191 C 0.83976 0.265 0.02686 0.0
C1192 C 0.80941 0.22251 0.94526 0.0
C1193 C 0.79007 0.21209 0.95943 0.0
C1194 C 0.81462 0.21949 0.89897 0.0
C1195 C 0.83472 0.23064 0.8813 0.0
C1196 C 0.8445 0.25087 0.88114 0.0
C1197 C 0.86353 0.2613 0.86513 0.0
C1198 C 0.87289 0.25165 0.84886 0.0
C1199 C 0.86323 0.23155 0.84845 0.0
C1200 C 0.8442 0.22106 0.8645 0.0
C1201 C 0.73583 0.16328 0.81071 0.0
C1202 C 0.73948 0.14889 0.7938 0.0
C1203 C 0.74957 0.17857 0.83844 0.0
C1204 C 0.76711 0.17964 0.85029 0.0
C1205 C 0.77106 0.16573 0.83161 0.0
C1206 C 0.75743 0.15056 0.8037 0.0
C1207 C 0.7812 0.19477 0.88326 0.0
C1208 C 0.80048 0.20568 0.86869 0.0
C1209 C 0.77594 0.19806 0.92936 0.0
C1210 C 0.75615 0.1863 0.94837 0.0
C1211 C 0.74759 0.16619 0.95185 0.0
C1212 C 0.72887 0.15518 0.96958 0.0
C1213 C 0.71864 0.16414 0.98434 0.0
C1214 C 0.72712 0.18414 0.98153 0.0
C1215 C 0.74582 0.19521 0.96376 0.0
H1216 H 0.70415 0.1556 0.99807 0.0
H1217 H 0.88763 0.25975 0.83649 0.0
H1218 H 0.55951 0.84476 0.17891 0.0
H1219 H 0.55421 0.81697 0.13089 0.0
H1220 H 0.60826 0.82399 0.18019 0.0
H1221 H 0.61369 0.85177 0.22808 0.0
H1222 H 0.57681 0.81737 0.05662 0.0
H1223 H 0.60475 0.77976 0.18407 0.0
H1224 H 0.60555 0.77395 0.27059 0.0
H1225 H 0.55522 0.77888 0.29221 0.0
H1226 H 0.55396 0.78445 0.20575 0.0
H1227 H 0.61177 0.76193 0.93941 0.0
H1228 H 0.6063 0.78423 0.98746 0.0
H1229 H 0.55505 0.73654 0.04702 0.0
H1230 H 0.56037 0.71411 0.99883 0.0
H1231 H 0.57942 0.76056 0.11664 0.0
H1232 H 0.55065 0.76651 0.97277 0.0
H1233 H 0.54869 0.77173 0.88639 0.0
H1234 H 0.59771 0.82854 0.89785 0.0
H1235 H 0.60013 0.82357 0.98419 0.0
C1236 C 0.57008 0.84015 0.18032 0.0
C1237 C 0.58702 0.8505 0.2074 0.0
C1238 C 0.56709 0.82434 0.15256 0.0
C1239 C 0.58082 0.81837 0.1519 0.0
C1240 C 0.59737 0.8282 0.18042 0.0
C1241 C 0.60046 0.84411 0.2078 0.0
C1242 C 0.57851 0.80266 0.11933 0.0
C1243 C 0.57727 0.80489 0.06977 0.0
C1244 C 0.57887 0.78625 0.13644 0.0
C1245 C 0.57937 0.78268 0.18845 0.0
C1246 C 0.5938 0.77951 0.20724 0.0
C1247 C 0.59435 0.77628 0.25629 0.0
C1248 C 0.58048 0.7761 0.2869 0.0
C1249 C 0.566 0.7791 0.26849 0.0
C1250 C 0.56538 0.78232 0.21948 0.0
C1251 C 0.59911 0.75619 0.96195 0.0
C1252 C 0.58651 0.73622 0.96523 0.0
C1253 C 0.59599 0.76897 0.98943 0.0
C1254 C 0.58027 0.76207 0.02093 0.0
C1255 C 0.56729 0.74219 0.02303 0.0
C1256 C 0.57029 0.7294 0.99517 0.0
C1257 C 0.5782 0.77551 0.05387 0.0
C1258 C 0.57874 0.77292 0.1035 0.0
C1259 C 0.57708 0.79153 0.03683 0.0
C1260 C 0.57565 0.7946 0.98492 0.0
C1261 C 0.5611 0.78006 0.95681 0.0
C1262 C 0.55989 0.78299 0.90786 0.0
C1263 C 0.57309 0.80044 0.88663 0.0
C1264 C 0.5875 0.81502 0.91433 0.0
C1265 C 0.58879 0.81217 0.9633 0.0
H1266 H 0.57213 0.80268 0.84872 0.0
H1267 H 0.58093 0.77361 0.32486 0.0
H1268 H 0.71538 0.56397 0.32718 0.0
H1269 H 0.7393 0.56106 0.27962 0.0
H1270 H 0.78383 0.59939 0.37716 0.0
H1271 H 0.76001 0.60338 0.42267 0.0
H1272 H 0.79655 0.61054 0.29665 0.0
H1273 H 0.76647 0.54767 0.36349 0.0
H1274 H 0.73989 0.51561 0.38613 0.0
H1275 H 0.72512 0.50181 0.2379 0.0
H1276 H 0.75146 0.53388 0.21438 0.0
H1277 H 0.85031 0.56324 0.17504 0.0
H1278 H 0.8243 0.55973 0.22746 0.0
H1279 H 0.82095 0.60409 0.1481 0.0
H1280 H 0.84757 0.6083 0.09724 0.0
H1281 H 0.78895 0.55063 0.22477 0.0
H1282 H 0.81137 0.63163 0.21833 0.0
H1283 H 0.84071 0.66311 0.20653 0.0
H1284 H 0.87549 0.63954 0.25432 0.0
H1285 H 0.84636 0.608 0.26701 0.0
C1286 C 0.73021 0.57143 0.33906 0.0
C1287 C 0.73582 0.58386 0.37875 0.0
C1288 C 0.74394 0.56971 0.31186 0.0
C1289 C 0.76352 0.57986 0.32469 0.0
C1290 C 0.76891 0.59149 0.366 0.0
C1291 C 0.75527 0.59365 0.39234 0.0
C1292 C 0.77853 0.57969 0.29311 0.0
C1293 C 0.79483 0.59736 0.28129 0.0
C1294 C 0.77669 0.56257 0.27325 0.0
C1295 C 0.76085 0.54325 0.28721 0.0
C1296 C 0.75747 0.53785 0.33574 0.0
C1297 C 0.74246 0.51967 0.34873 0.0
C1298 C 0.7308 0.5067 0.31349 0.0
C1299 C 0.73416 0.51188 0.26516 0.0
C1300 C 0.74914 0.53004 0.25198 0.0
C1301 C 0.84383 0.57205 0.16833 0.0
C1302 C 0.85113 0.58619 0.13229 0.0
C1303 C 0.82894 0.57004 0.1984 0.0
C1304 C 0.82091 0.58198 0.1927 0.0
C1305 C 0.82725 0.5951 0.15433 0.0
C1306 C 0.84239 0.59739 0.12495 0.0
C1307 C 0.80671 0.58146 0.2282 0.0
C1308 C 0.79061 0.56373 0.24052 0.0
C1309 C 0.80909 0.59843 0.25021 0.0
C1310 C 0.82669 0.61741 0.24313 0.0
C1311 C 0.82528 0.63319 0.22648 0.0
C1312 C 0.84187 0.65104 0.21961 0.0
C1313 C 0.85996 0.6533 0.22952 0.0
C1314 C 0.86148 0.63775 0.2465 0.0
C1315 C 0.84494 0.61988 0.25349 0.0
H1316 H 0.87279 0.66713 0.22414 0.0
H1317 H 0.71918 0.49264 0.32362 0.0
H1318 H 0.13826 0.7615 0.53819 0.0
H1319 H 0.16468 0.78445 0.48789 0.0
H1320 H 0.18851 0.7468 0.485 0.0
H1321 H 0.16186 0.72349 0.53514 0.0
H1322 H 0.21653 0.78773 0.49632 0.0
H1323 H 0.1645 0.74505 0.39363 0.0
H1324 H 0.13074 0.72757 0.36667 0.0
H1325 H 0.13219 0.78114 0.34318 0.0
H1326 H 0.1659 0.79895 0.37077 0.0
H1327 H 0.28004 0.83974 0.30449 0.0
H1328 H 0.2557 0.813 0.35222 0.0
H1329 H 0.21901 0.83793 0.34566 0.0
H1330 H 0.24295 0.86432 0.29716 0.0
H1331 H 0.19794 0.80067 0.33701 0.0
H1332 H 0.24794 0.84342 0.44474 0.0
H1333 H 0.28115 0.86201 0.47531 0.0
H1334 H 0.28318 0.8099 0.49238 0.0
H1335 H 0.25005 0.79101 0.46128 0.0
C1336 C 0.14925 0.75817 0.52762 0.0
C1337 C 0.14787 0.74058 0.54058 0.0
C1338 C 0.16432 0.7713 0.49865 0.0
C1339 C 0.17842 0.76722 0.48222 0.0
C1340 C 0.17773 0.75019 0.49719 0.0
C1341 C 0.1625 0.7369 0.52586 0.0
C1342 C 0.19316 0.78033 0.44736 0.0
C1343 C 0.21256 0.79033 0.46113 0.0
C1344 C 0.18789 0.78399 0.40186 0.0
C1345 C 0.16768 0.77333 0.38468 0.0
C1346 C 0.15758 0.7531 0.38308 0.0
C1347 C 0.13846 0.74313 0.36763 0.0
C1348 C 0.12931 0.75323 0.35333 0.0
C1349 C 0.13929 0.77333 0.35431 0.0
C1350 C 0.15841 0.78337 0.36982 0.0
C1351 C 0.26666 0.83937 0.31263 0.0
C1352 C 0.2635 0.85423 0.2971 0.0
C1353 C 0.25281 0.82414 0.34027 0.0
C1354 C 0.23562 0.82358 0.35339 0.0
C1355 C 0.23214 0.83801 0.33622 0.0
C1356 C 0.2459 0.85314 0.30844 0.0
C1357 C 0.22142 0.8084 0.38607 0.0
C1358 C 0.20204 0.79797 0.37192 0.0
C1359 C 0.22671 0.80452 0.43144 0.0
C1360 C 0.24661 0.81583 0.45015 0.0
C1361 C 0.25553 0.83594 0.45464 0.0
C1362 C 0.27432 0.84653 0.47213 0.0
C1363 C 0.28429 0.83715 0.48563 0.0
C1364 C 0.27546 0.81715 0.4818 0.0
C1365 C 0.25667 0.80649 0.46427 0.0
H1366 H 0.29884 0.84537 0.49917 0.0
H1367 H 0.1145 0.74549 0.34139 0.0
loop_
_geom_bond_atom_site_label_1
_geom_bond_atom_site_label_2
_geom_bond_distance
_geom_bond_site_symmetry_2
_ccdc_geom_bond_type
O0 Cd1 2.223 . S
O0 C8 1.315 . S
Cd1 O0 2.223 . S
Cd1 O4 2.297 . S
Cd1 O5 2.439 . S
Cd1 O11 2.240 . S
Cd2 O3 2.240 . S
Cd2 O10 2.223 . S
Cd2 O12 2.297 . S
Cd2 O13 2.439 . S
O3 Cd2 2.240 . S
O3 C8 1.279 . S
O4 Cd1 2.297 . S
O4 C6 1.247 . S
O5 Cd1 2.439 . S
O5 C6 1.208 . S
C6 O4 1.247 . S
C6 O5 1.208 . S
C7 O12 1.247 . S
C7 O13 1.208 . S
C8 O0 1.315 . S
C8 O3 1.279 . S
C9 O10 1.315 . S
C9 O11 1.279 . S
O10 Cd2 2.223 . S
O10 C9 1.315 . S
O11 Cd1 2.240 . S
O11 C9 1.279 . S
O12 Cd2 2.297 . S
O12 C7 1.247 . S
O13 Cd2 2.439 . S
O13 C7 1.208 . S
O14 Cd15 2.223 . S
O14 C22 1.315 . S
Cd15 O14 2.223 . S
Cd15 O18 2.297 . S
Cd15 O19 2.439 . S
Cd15 O25 2.240 . S
Cd16 O17 2.240 . S
Cd16 O24 2.223 . S
Cd16 O26 2.297 . S
Cd16 O27 2.439 . S
O17 Cd16 2.240 . S
O17 C22 1.279 . S
O18 Cd15 2.297 . S
O18 C20 1.247 . S
O19 Cd15 2.439 . S
O19 C20 1.208 . S
C20 O18 1.247 . S
C20 O19 1.208 . S
C21 O26 1.247 . S
C21 O27 1.208 . S
C22 O14 1.315 . S
C22 O17 1.279 . S
C23 O24 1.315 . S
C23 O25 1.279 . S
O24 Cd16 2.223 . S
O24 C23 1.315 . S
O25 Cd15 2.240 . S
O25 C23 1.279 . S
O26 Cd16 2.297 . S
O26 C21 1.247 . S
O27 Cd16 2.439 . S
O27 C21 1.208 . S
O28 Cd29 2.223 . S
O28 C36 1.315 . S
Cd29 O28 2.223 . S
Cd29 O32 2.297 . S
Cd29 O33 2.439 . S
Cd29 O39 2.240 . S
Cd30 O31 2.240 . S
Cd30 O38 2.223 . S
Cd30 O40 2.297 . S
Cd30 O41 2.439 . S
O31 Cd30 2.240 . S
O31 C36 1.279 . S
O32 Cd29 2.297 . S
O32 C34 1.247 . S
O33 Cd29 2.439 . S
O33 C34 1.208 . S
C34 O32 1.247 . S
C34 O33 1.208 . S
C35 O40 1.247 . S
C35 O41 1.208 . S
C36 O28 1.315 . S
C36 O31 1.279 . S
C37 O38 1.315 . S
C37 O39 1.279 . S
O38 Cd30 2.223 . S
O38 C37 1.315 . S
O39 Cd29 2.240 . S
O39 C37 1.279 . S
O40 Cd30 2.297 . S
O40 C35 1.247 . S
O41 Cd30 2.439 . S
O41 C35 1.208 . S
O42 Cd43 2.223 . S
O42 C50 1.315 . S
Cd43 O42 2.223 . S
Cd43 O46 2.297 . S
Cd43 O47 2.439 . S
Cd43 O53 2.240 . S
Cd44 O45 2.240 . S
Cd44 O52 2.223 . S
Cd44 O54 2.297 . S
Cd44 O55 2.439 . S
O45 Cd44 2.240 . S
O45 C50 1.279 . S
O46 Cd43 2.297 . S
O46 C48 1.247 . S
O47 Cd43 2.439 . S
O47 C48 1.208 . S
C48 O46 1.247 . S
C48 O47 1.208 . S
C49 O54 1.247 . S
C49 O55 1.208 . S
C50 O42 1.315 . S
C50 O45 1.279 . S
C51 O52 1.315 . S
C51 O53 1.279 . S
O52 Cd44 2.223 . S
O52 C51 1.315 . S
O53 Cd43 2.240 . S
O53 C51 1.279 . S
O54 Cd44 2.297 . S
O54 C49 1.247 . S
O55 Cd44 2.439 . S
O55 C49 1.208 . S
O56 Cd57 2.223 . S
O56 C64 1.315 . S
Cd57 O56 2.223 . S
Cd57 O60 2.297 . S
Cd57 O61 2.439 . S
Cd57 O67 2.240 . S
Cd58 O59 2.240 . S
Cd58 O66 2.223 . S
Cd58 O68 2.297 . S
Cd58 O69 2.439 . S
O59 Cd58 2.240 . S
O59 C64 1.279 . S
O60 Cd57 2.297 . S
O60 C62 1.247 . S
O61 Cd57 2.439 . S
O61 C62 1.208 . S
C62 O60 1.247 . S
C62 O61 1.208 . S
C63 O68 1.247 . S
C63 O69 1.208 . S
C64 O56 1.315 . S
C64 O59 1.279 . S
C65 O66 1.315 . S
C65 O67 1.279 . S
O66 Cd58 2.223 . S
O66 C65 1.315 . S
O67 Cd57 2.240 . S
O67 C65 1.279 . S
O68 Cd58 2.297 . S
O68 C63 1.247 . S
O69 Cd58 2.439 . S
O69 C63 1.208 . S
O70 Cd71 2.223 . S
O70 C78 1.315 . S
Cd71 O70 2.223 . S
Cd71 O74 2.297 . S
Cd71 O75 2.439 . S
Cd71 O81 2.240 . S
Cd72 O73 2.240 . S
Cd72 O80 2.223 . S
Cd72 O82 2.297 . S
Cd72 O83 2.439 . S
O73 Cd72 2.240 . S
O73 C78 1.279 . S
O74 Cd71 2.297 . S
O74 C76 1.247 . S
O75 Cd71 2.439 . S
O75 C76 1.208 . S
C76 O74 1.247 . S
C76 O75 1.208 . S
C77 O82 1.247 . S
C77 O83 1.208 . S
C78 O70 1.315 . S
C78 O73 1.279 . S
C79 O80 1.315 . S
C79 O81 1.279 . S
O80 Cd72 2.223 . S
O80 C79 1.315 . S
O81 Cd71 2.240 . S
O81 C79 1.279 . S
O82 Cd72 2.297 . S
O82 C77 1.247 . S
O83 Cd72 2.439 . S
O83 C77 1.208 . S
O84 Cd85 2.223 . S
O84 C92 1.315 . S
Cd85 O84 2.223 . S
Cd85 O88 2.297 . S
Cd85 O89 2.439 . S
Cd85 O95 2.240 . S
Cd86 O87 2.240 . S
Cd86 O94 2.223 . S
Cd86 O96 2.297 . S
Cd86 O97 2.439 . S
O87 Cd86 2.240 . S
O87 C92 1.279 . S
O88 Cd85 2.297 . S
O88 C90 1.247 . S
O89 Cd85 2.439 . S
O89 C90 1.208 . S
C90 O88 1.247 . S
C90 O89 1.208 . S
C91 O96 1.247 . S
C91 O97 1.208 . S
C92 O84 1.315 . S
C92 O87 1.279 . S
C93 O94 1.315 . S
C93 O95 1.279 . S
O94 Cd86 2.223 . S
O94 C93 1.315 . S
O95 Cd85 2.240 . S
O95 C93 1.279 . S
O96 Cd86 2.297 . S
O96 C91 1.247 . S
O97 Cd86 2.439 . S
O97 C91 1.208 . S
O98 Cd99 2.223 . S
O98 C106 1.315 . S
Cd99 O98 2.223 . S
Cd99 O102 2.297 . S
Cd99 O103 2.439 . S
Cd99 O109 2.240 . S
Cd100 O101 2.240 . S
Cd100 O108 2.223 . S
Cd100 O110 2.297 . S
Cd100 O111 2.439 . S
O101 Cd100 2.240 . S
O101 C106 1.279 . S
O102 Cd99 2.297 . S
O102 C104 1.247 . S
O103 Cd99 2.439 . S
O103 C104 1.208 . S
C104 O102 1.247 . S
C104 O103 1.208 . S
C105 O110 1.247 . S
C105 O111 1.208 . S
C106 O98 1.315 . S
C106 O101 1.279 . S
C107 O108 1.315 . S
C107 O109 1.279 . S
O108 Cd100 2.223 . S
O108 C107 1.315 . S
O109 Cd99 2.240 . S
O109 C107 1.279 . S
O110 Cd100 2.297 . S
O110 C105 1.247 . S
O111 Cd100 2.439 . S
O111 C105 1.208 . S
O112 Cd113 2.223 . S
O112 C120 1.315 . S
Cd113 O112 2.223 . S
Cd113 O116 2.297 . S
Cd113 O117 2.439 . S
Cd113 O123 2.240 . S
Cd114 O115 2.240 . S
Cd114 O122 2.223 . S
Cd114 O124 2.297 . S
Cd114 O125 2.439 . S
O115 Cd114 2.240 . S
O115 C120 1.279 . S
O116 Cd113 2.297 . S
O116 C118 1.247 . S
O117 Cd113 2.439 . S
O117 C118 1.208 . S
C118 O116 1.247 . S
C118 O117 1.208 . S
C119 O124 1.247 . S
C119 O125 1.208 . S
C120 O112 1.315 . S
C120 O115 1.279 . S
C121 O122 1.315 . S
C121 O123 1.279 . S
O122 Cd114 2.223 . S
O122 C121 1.315 . S
O123 Cd113 2.240 . S
O123 C121 1.279 . S
O124 Cd114 2.297 . S
O124 C119 1.247 . S
O125 Cd114 2.439 . S
O125 C119 1.208 . S
O126 Cd127 2.223 . S
O126 C134 1.315 . S
Cd127 O126 2.223 . S
Cd127 O130 2.297 . S
Cd127 O131 2.439 . S
Cd127 O137 2.240 . S
Cd128 O129 2.240 . S
Cd128 O136 2.223 . S
Cd128 O138 2.297 . S
Cd128 O139 2.439 . S
O129 Cd128 2.240 . S
O129 C134 1.279 . S
O130 Cd127 2.297 . S
O130 C132 1.247 . S
O131 Cd127 2.439 . S
O131 C132 1.208 . S
C132 O130 1.247 . S
C132 O131 1.208 . S
C133 O138 1.247 . S
C133 O139 1.208 . S
C134 O126 1.315 . S
C134 O129 1.279 . S
C135 O136 1.315 . S
C135 O137 1.279 . S
O136 Cd128 2.223 . S
O136 C135 1.315 . S
O137 Cd127 2.240 . S
O137 C135 1.279 . S
O138 Cd128 2.297 . S
O138 C133 1.247 . S
O139 Cd128 2.439 . S
O139 C133 1.208 . S
O140 Cd141 2.223 . S
O140 C148 1.315 . S
Cd141 O140 2.223 . S
Cd141 O144 2.297 . S
Cd141 O145 2.439 . S
Cd141 O151 2.240 . S
Cd142 O143 2.240 . S
Cd142 O150 2.223 . S
Cd142 O152 2.297 . S
Cd142 O153 2.439 . S
O143 Cd142 2.240 . S
O143 C148 1.279 . S
O144 Cd141 2.297 . S
O144 C146 1.247 . S
O145 Cd141 2.439 . S
O145 C146 1.208 . S
C146 O144 1.247 . S
C146 O145 1.208 . S
C147 O152 1.247 . S
C147 O153 1.208 . S
C148 O140 1.315 . S
C148 O143 1.279 . S
C149 O150 1.315 . S
C149 O151 1.279 . S
O150 Cd142 2.223 . S
O150 C149 1.315 . S
O151 Cd141 2.240 . S
O151 C149 1.279 . S
O152 Cd142 2.297 . S
O152 C147 1.247 . S
O153 Cd142 2.439 . S
O153 C147 1.208 . S
O154 Cd155 2.223 . S
O154 C162 1.315 . S
Cd155 O154 2.223 . S
Cd155 O158 2.297 . S
Cd155 O159 2.439 . S
Cd155 O165 2.240 . S
Cd156 O157 2.240 . S
Cd156 O164 2.223 . S
Cd156 O166 2.297 . S
Cd156 O167 2.439 . S
O157 Cd156 2.240 . S
O157 C162 1.279 . S
O158 Cd155 2.297 . S
O158 C160 1.247 . S
O159 Cd155 2.439 . S
O159 C160 1.208 . S
C160 O158 1.247 . S
C160 O159 1.208 . S
C161 O166 1.247 . S
C161 O167 1.208 . S
C162 O154 1.315 . S
C162 O157 1.279 . S
C163 O164 1.315 . S
C163 O165 1.279 . S
O164 Cd156 2.223 . S
O164 C163 1.315 . S
O165 Cd155 2.240 . S
O165 C163 1.279 . S
O166 Cd156 2.297 . S
O166 C161 1.247 . S
O167 Cd156 2.439 . S
O167 C161 1.208 . S
H168 C186 0.951 . S
H169 C188 0.951 . S
H170 C190 0.950 . S
H171 C191 0.950 1_556 S
H172 C193 0.950 . S
H173 C196 0.950 . S
H174 C197 0.950 . S
H175 C199 0.950 . S
H176 C200 0.950 . S
H177 C201 0.951 . S
H178 C203 0.951 . S
H179 C205 0.950 . S
H180 C206 0.950 . S
H181 C208 0.950 . S
H182 C211 0.950 . S
H183 C212 0.950 . S
H184 C214 0.950 . S
H185 C215 0.950 . S
C186 H168 0.951 . S
C186 C187 1.366 . S
C186 C188 1.388 . S
C187 C186 1.366 . S
C187 C191 1.385 . S
C188 H169 0.951 . S
C188 C186 1.388 . S
C188 C189 1.366 . S
C189 C188 1.366 . S
C189 C190 1.414 . S
C189 C192 1.499 . S
C190 H170 0.950 . S
C190 C189 1.414 . S
C190 C191 1.374 . S
C191 H171 0.950 1_554 S
C191 C187 1.385 . S
C191 C190 1.374 . S
C192 C189 1.499 . S
C192 C193 1.373 . S
C192 C194 1.389 . S
C193 H172 0.950 . S
C193 C192 1.373 . S
C193 C209 1.377 . S
C194 C192 1.389 . S
C194 C195 1.524 . S
C194 C208 1.377 . S
C195 C194 1.524 . S
C195 C196 1.397 . S
C195 C200 1.363 . S
C196 H173 0.950 . S
C196 C195 1.397 . S
C196 C197 1.334 . S
C197 H174 0.950 . S
C197 C196 1.334 . S
C197 C198 1.287 . S
C198 C197 1.287 . S
C198 C199 1.524 . S
C198 H217 0.913 . S
C199 H175 0.950 . S
C199 C198 1.524 . S
C199 C200 1.415 . S
C200 H176 0.950 . S
C200 C195 1.363 . S
C200 C199 1.415 . S
C201 H177 0.951 . S
C201 C202 1.366 . S
C201 C203 1.388 . S
C202 C201 1.366 . S
C202 C206 1.385 . S
C203 H178 0.951 . S
C203 C201 1.388 . S
C203 C204 1.366 . S
C204 C203 1.366 . S
C204 C205 1.414 . S
C204 C207 1.499 . S
C205 H179 0.950 . S
C205 C204 1.414 . S
C205 C206 1.374 . S
C206 H180 0.950 . S
C206 C202 1.385 . S
C206 C205 1.374 . S
C207 C204 1.499 . S
C207 C208 1.373 . S
C207 C209 1.389 . S
C208 H181 0.950 . S
C208 C194 1.377 . S
C208 C207 1.373 . S
C209 C193 1.377 . S
C209 C207 1.389 . S
C209 C210 1.524 . S
C210 C209 1.524 . S
C210 C211 1.397 . S
C210 C215 1.363 . S
C211 H182 0.950 . S
C211 C210 1.397 . S
C211 C212 1.334 . S
C212 H183 0.950 . S
C212 C211 1.334 . S
C212 C213 1.287 . S
C213 C212 1.287 . S
C213 C214 1.524 . S
C213 H216 0.999 . S
C214 H184 0.950 . S
C214 C213 1.524 . S
C214 C215 1.415 . S
C215 H185 0.950 . S
C215 C210 1.363 . S
C215 C214 1.415 . S
H216 C213 0.999 . S
H217 C198 0.913 . S
H218 C236 0.951 . S
H219 C238 0.951 . S
H220 C240 0.950 . S
H221 C241 0.950 . S
H222 C243 0.950 . S
H223 C246 0.950 . S
H224 C247 0.950 . S
H225 C249 0.950 . S
H226 C250 0.950 . S
H227 C251 0.951 . S
H228 C253 0.951 . S
H229 C255 0.950 . S
H230 C256 0.950 . S
H231 C258 0.950 . S
H232 C261 0.950 . S
H233 C262 0.950 . S
H234 C264 0.950 . S
H235 C265 0.950 . S
C236 H218 0.951 . S
C236 C237 1.366 . S
C236 C238 1.388 . S
C237 C236 1.366 . S
C237 C241 1.385 . S
C238 H219 0.951 . S
C238 C236 1.388 . S
C238 C239 1.366 . S
C239 C238 1.366 . S
C239 C240 1.414 . S
C239 C242 1.499 . S
C240 H220 0.950 . S
C240 C239 1.414 . S
C240 C241 1.374 . S
C241 H221 0.950 . S
C241 C237 1.385 . S
C241 C240 1.374 . S
C242 C239 1.499 . S
C242 C243 1.373 1_455 S
C242 C244 1.389 . S
C243 H222 0.950 . S
C243 C242 1.373 1_655 S
C243 C259 1.377 . S
C244 C242 1.389 . S
C244 C245 1.524 . S
C244 C258 1.377 . S
C245 C244 1.524 . S
C245 C246 1.397 . S
C245 C250 1.363 . S
C246 H223 0.950 . S
C246 C245 1.397 . S
C246 C247 1.334 . S
C247 H224 0.950 . S
C247 C246 1.334 . S
C247 C248 1.287 . S
C248 C247 1.287 . S
C248 C249 1.524 . S
C248 H267 0.913 . S
C249 H225 0.950 . S
C249 C248 1.524 . S
C249 C250 1.415 . S
C250 H226 0.950 . S
C250 C245 1.363 . S
C250 C249 1.415 . S
C251 H227 0.951 . S
C251 C252 1.366 . S
C251 C253 1.388 . S
C252 C251 1.366 . S
C252 C256 1.385 . S
C253 H228 0.951 . S
C253 C251 1.388 . S
C253 C254 1.366 . S
C254 C253 1.366 . S
C254 C255 1.414 . S
C254 C257 1.499 . S
C255 H229 0.950 . S
C255 C254 1.414 . S
C255 C256 1.374 . S
C256 H230 0.950 . S
C256 C252 1.385 . S
C256 C255 1.374 . S
C257 C254 1.499 . S
C257 C258 1.373 1_655 S
C257 C259 1.389 . S
C258 H231 0.950 . S
C258 C244 1.377 . S
C258 C257 1.373 1_455 S
C259 C243 1.377 . S
C259 C257 1.389 . S
C259 C260 1.524 . S
C260 C259 1.524 . S
C260 C261 1.397 . S
C260 C265 1.363 . S
C261 H232 0.950 . S
C261 C260 1.397 . S
C261 C262 1.334 . S
C262 H233 0.950 . S
C262 C261 1.334 . S
C262 C263 1.287 . S
C263 C262 1.287 . S
C263 C264 1.524 . S
C263 H266 0.999 . S
C264 H234 0.950 . S
C264 C263 1.524 . S
C264 C265 1.415 . S
C265 H235 0.950 . S
C265 C260 1.363 . S
C265 C264 1.415 . S
H266 C263 0.999 . S
H267 C248 0.913 . S
H268 C286 0.951 . S
H269 C288 0.951 . S
H270 C290 0.950 . S
H271 C291 0.950 . S
H272 C293 0.950 . S
H273 C296 0.950 . S
H274 C297 0.950 . S
H275 C299 0.950 . S
H276 C300 0.950 . S
H277 C301 0.951 . S
H278 C303 0.951 . S
H279 C305 0.950 . S
H280 C306 0.950 . S
H281 C308 0.950 . S
H282 C311 0.950 . S
H283 C312 0.950 . S
H284 C314 0.950 . S
H285 C315 0.950 . S
C286 H268 0.951 . S
C286 C287 1.366 . S
C286 C288 1.388 . S
C287 C286 1.366 . S
C287 C291 1.385 . S
C288 H269 0.951 . S
C288 C286 1.388 . S
C288 C289 1.366 . S
C289 C288 1.366 . S
C289 C290 1.414 . S
C289 C292 1.499 . S
C290 H270 0.950 . S
C290 C289 1.414 . S
C290 C291 1.374 . S
C291 H271 0.950 . S
C291 C287 1.385 . S
C291 C290 1.374 . S
C292 C289 1.499 . S
C292 C293 1.373 1_565 S
C292 C294 1.389 . S
C293 H272 0.950 . S
C293 C292 1.373 1_545 S
C293 C309 1.377 . S
C294 C292 1.389 . S
C294 C295 1.524 . S
C294 C308 1.377 . S
C295 C294 1.524 . S
C295 C296 1.397 . S
C295 C300 1.363 . S
C296 H273 0.950 . S
C296 C295 1.397 . S
C296 C297 1.334 . S
C297 H274 0.950 . S
C297 C296 1.334 . S
C297 C298 1.287 . S
C298 C297 1.287 . S
C298 C299 1.524 . S
C298 H317 0.913 . S
C299 H275 0.950 . S
C299 C298 1.524 . S
C299 C300 1.415 . S
C300 H276 0.950 . S
C300 C295 1.363 . S
C300 C299 1.415 . S
C301 H277 0.951 . S
C301 C302 1.366 . S
C301 C303 1.388 . S
C302 C301 1.366 . S
C302 C306 1.385 . S
C303 H278 0.951 . S
C303 C301 1.388 . S
C303 C304 1.366 . S
C304 C303 1.366 . S
C304 C305 1.414 . S
C304 C307 1.499 . S
C305 H279 0.950 . S
C305 C304 1.414 . S
C305 C306 1.374 . S
C306 H280 0.950 . S
C306 C302 1.385 . S
C306 C305 1.374 . S
C307 C304 1.499 . S
C307 C308 1.373 1_545 S
C307 C309 1.389 . S
C308 H281 0.950 . S
C308 C294 1.377 . S
C308 C307 1.373 1_565 S
C309 C293 1.377 . S
C309 C307 1.389 . S
C309 C310 1.524 . S
C310 C309 1.524 . S
C310 C311 1.397 . S
C310 C315 1.363 . S
C311 H282 0.950 . S
C311 C310 1.397 . S
C311 C312 1.334 . S
C312 H283 0.950 . S
C312 C311 1.334 . S
C312 C313 1.287 . S
C313 C312 1.287 . S
C313 C314 1.524 . S
C313 H316 0.999 . S
C314 H284 0.950 . S
C314 C313 1.524 . S
C314 C315 1.415 . S
C315 H285 0.950 . S
C315 C310 1.363 . S
C315 C314 1.415 . S
H316 C313 0.999 . S
H317 C298 0.913 . S
H318 C336 0.951 . S
H319 C338 0.951 . S
H320 C340 0.950 . S
H321 C341 0.950 . S
H322 C343 0.950 . S
H323 C346 0.950 . S
H324 C347 0.950 . S
H325 C349 0.950 . S
H326 C350 0.950 . S
H327 C351 0.951 . S
H328 C353 0.951 . S
H329 C355 0.950 . S
H330 C356 0.950 . S
H331 C358 0.950 . S
H332 C361 0.950 . S
H333 C362 0.950 . S
H334 C364 0.950 . S
H335 C365 0.950 . S
C336 H318 0.951 . S
C336 C337 1.366 . S
C336 C338 1.388 . S
C337 C336 1.366 . S
C337 C341 1.385 . S
C338 H319 0.951 . S
C338 C336 1.388 . S
C338 C339 1.366 . S
C339 C338 1.366 . S
C339 C340 1.414 . S
C339 C342 1.499 . S
C340 H320 0.950 . S
C340 C339 1.414 . S
C340 C341 1.374 . S
C341 H321 0.950 . S
C341 C337 1.385 . S
C341 C340 1.374 . S
C342 C339 1.499 . S
C342 C343 1.373 . S
C342 C344 1.389 . S
C343 H322 0.950 . S
C343 C342 1.373 . S
C343 C359 1.377 . S
C344 C342 1.389 . S
C344 C345 1.524 . S
C344 C358 1.377 . S
C345 C344 1.524 . S
C345 C346 1.397 . S
C345 C350 1.363 . S
C346 H323 0.950 . S
C346 C345 1.397 . S
C346 C347 1.334 . S
C347 H324 0.950 . S
C347 C346 1.334 . S
C347 C348 1.287 . S
C348 C347 1.287 . S
C348 C349 1.524 . S
C348 H367 0.913 . S
C349 H325 0.950 . S
C349 C348 1.524 . S
C349 C350 1.415 . S
C350 H326 0.950 . S
C350 C345 1.363 . S
C350 C349 1.415 . S
C351 H327 0.951 . S
C351 C352 1.366 . S
C351 C353 1.388 . S
C352 C351 1.366 . S
C352 C356 1.385 . S
C353 H328 0.951 . S
C353 C351 1.388 . S
C353 C354 1.366 . S
C354 C353 1.366 . S
C354 C355 1.414 . S
C354 C357 1.499 . S
C355 H329 0.950 . S
C355 C354 1.414 . S
C355 C356 1.374 . S
C356 H330 0.950 . S
C356 C352 1.385 . S
C356 C355 1.374 . S
C357 C354 1.499 . S
C357 C358 1.373 . S
C357 C359 1.389 . S
C358 H331 0.950 . S
C358 C344 1.377 . S
C358 C357 1.373 . S
C359 C343 1.377 . S
C359 C357 1.389 . S
C359 C360 1.524 . S
C360 C359 1.524 . S
C360 C361 1.397 . S
C360 C365 1.363 . S
C361 H332 0.950 . S
C361 C360 1.397 . S
C361 C362 1.334 . S
C362 H333 0.950 . S
C362 C361 1.334 . S
C362 C363 1.287 . S
C363 C362 1.287 . S
C363 C364 1.524 . S
C363 H366 0.999 . S
C364 H334 0.950 . S
C364 C363 1.524 . S
C364 C365 1.415 . S
C365 H335 0.950 . S
C365 C360 1.363 . S
C365 C364 1.415 . S
H366 C363 0.999 . S
H367 C348 0.913 . S
H368 C386 0.951 . S
H369 C388 0.951 . S
H370 C390 0.950 . S
H371 C391 0.950 . S
H372 C393 0.950 . S
H373 C396 0.950 1_655 S
H374 C397 0.950 . S
H375 C399 0.950 . S
H376 C400 0.950 . S
H377 C401 0.951 . S
H378 C403 0.951 . S
H379 C405 0.950 . S
H380 C406 0.950 1_554 S
H381 C408 0.950 . S
H382 C411 0.950 1_455 S
H383 C412 0.950 . S
H384 C414 0.950 . S
H385 C415 0.950 . S
C386 H368 0.951 . S
C386 C387 1.366 . S
C386 C388 1.388 . S
C387 C386 1.366 . S
C387 C391 1.385 . S
C388 H369 0.951 . S
C388 C386 1.388 . S
C388 C389 1.366 . S
C389 C388 1.366 . S
C389 C390 1.414 . S
C389 C392 1.499 . S
C390 H370 0.950 . S
C390 C389 1.414 . S
C390 C391 1.374 . S
C391 H371 0.950 . S
C391 C387 1.385 . S
C391 C390 1.374 . S
C392 C389 1.499 . S
C392 C393 1.373 . S
C392 C394 1.389 . S
C393 H372 0.950 . S
C393 C392 1.373 . S
C393 C409 1.377 1_455 S
C394 C392 1.389 . S
C394 C395 1.524 . S
C394 C408 1.377 1_455 S
C395 C394 1.524 . S
C395 C396 1.397 . S
C395 C400 1.363 . S
C396 H373 0.950 1_455 S
C396 C395 1.397 . S
C396 C397 1.334 . S
C397 H374 0.950 . S
C397 C396 1.334 . S
C397 C398 1.287 . S
C398 C397 1.287 . S
C398 C399 1.524 . S
C398 H417 0.913 . S
C399 H375 0.950 . S
C399 C398 1.524 . S
C399 C400 1.415 . S
C400 H376 0.950 . S
C400 C395 1.363 . S
C400 C399 1.415 . S
C401 H377 0.951 . S
C401 C402 1.366 . S
C401 C403 1.388 . S
C402 C401 1.366 . S
C402 C406 1.385 . S
C403 H378 0.951 . S
C403 C401 1.388 . S
C403 C404 1.366 . S
C404 C403 1.366 . S
C404 C405 1.414 . S
C404 C407 1.499 . S
C405 H379 0.950 . S
C405 C404 1.414 . S
C405 C406 1.374 . S
C406 H380 0.950 1_556 S
C406 C402 1.385 . S
C406 C405 1.374 . S
C407 C404 1.499 . S
C407 C408 1.373 . S
C407 C409 1.389 . S
C408 H381 0.950 . S
C408 C394 1.377 1_655 S
C408 C407 1.373 . S
C409 C393 1.377 1_655 S
C409 C407 1.389 . S
C409 C410 1.524 . S
C410 C409 1.524 . S
C410 C411 1.397 . S
C410 C415 1.363 . S
C411 H382 0.950 1_655 S
C411 C410 1.397 . S
C411 C412 1.334 . S
C412 H383 0.950 . S
C412 C411 1.334 . S
C412 C413 1.287 . S
C413 C412 1.287 . S
C413 C414 1.524 . S
C413 H416 0.999 . S
C414 H384 0.950 . S
C414 C413 1.524 . S
C414 C415 1.415 . S
C415 H385 0.950 . S
C415 C410 1.363 . S
C415 C414 1.415 . S
H416 C413 0.999 . S
H417 C398 0.913 . S
H418 C436 0.951 . S
H419 C438 0.951 . S
H420 C440 0.950 . S
H421 C441 0.950 . S
H422 C443 0.950 . S
H423 C446 0.950 1_545 S
H424 C447 0.950 . S
H425 C449 0.950 . S
H426 C450 0.950 . S
H427 C451 0.951 . S
H428 C453 0.951 . S
H429 C455 0.950 . S
H430 C456 0.950 . S
H431 C458 0.950 . S
H432 C461 0.950 1_565 S
H433 C462 0.950 . S
H434 C464 0.950 . S
H435 C465 0.950 . S
C436 H418 0.951 . S
C436 C437 1.366 . S
C436 C438 1.388 . S
C437 C436 1.366 . S
C437 C441 1.385 . S
C438 H419 0.951 . S
C438 C436 1.388 . S
C438 C439 1.366 . S
C439 C438 1.366 . S
C439 C440 1.414 . S
C439 C442 1.499 . S
C440 H420 0.950 . S
C440 C439 1.414 . S
C440 C441 1.374 . S
C441 H421 0.950 . S
C441 C437 1.385 . S
C441 C440 1.374 . S
C442 C439 1.499 . S
C442 C443 1.373 1_556 S
C442 C444 1.389 1_545 S
C443 H422 0.950 . S
C443 C442 1.373 1_554 S
C443 C459 1.377 . S
C444 C442 1.389 1_565 S
C444 C445 1.524 . S
C444 C458 1.377 . S
C445 C444 1.524 . S
C445 C446 1.397 . S
C445 C450 1.363 . S
C446 H423 0.950 1_565 S
C446 C445 1.397 . S
C446 C447 1.334 . S
C447 H424 0.950 . S
C447 C446 1.334 . S
C447 C448 1.287 . S
C448 C447 1.287 . S
C448 C449 1.524 . S
C448 H467 0.913 . S
C449 H425 0.950 . S
C449 C448 1.524 . S
C449 C450 1.415 . S
C450 H426 0.950 . S
C450 C445 1.363 . S
C450 C449 1.415 . S
C451 H427 0.951 . S
C451 C452 1.366 . S
C451 C453 1.388 . S
C452 C451 1.366 . S
C452 C456 1.385 . S
C453 H428 0.951 . S
C453 C451 1.388 . S
C453 C454 1.366 . S
C454 C453 1.366 . S
C454 C455 1.414 . S
C454 C457 1.499 . S
C455 H429 0.950 . S
C455 C454 1.414 . S
C455 C456 1.374 . S
C456 H430 0.950 . S
C456 C452 1.385 . S
C456 C455 1.374 . S
C457 C454 1.499 . S
C457 C458 1.373 1_554 S
C457 C459 1.389 1_565 S
C458 H431 0.950 . S
C458 C444 1.377 . S
C458 C457 1.373 1_556 S
C459 C443 1.377 . S
C459 C457 1.389 1_545 S
C459 C460 1.524 . S
C460 C459 1.524 . S
C460 C461 1.397 . S
C460 C465 1.363 . S
C461 H432 0.950 1_545 S
C461 C460 1.397 . S
C461 C462 1.334 . S
C462 H433 0.950 . S
C462 C461 1.334 . S
C462 C463 1.287 . S
C463 C462 1.287 . S
C463 C464 1.524 . S
C463 H466 0.999 . S
C464 H434 0.950 . S
C464 C463 1.524 . S
C464 C465 1.415 . S
C465 H435 0.950 . S
C465 C460 1.363 . S
C465 C464 1.415 . S
H466 C463 0.999 . S
H467 C448 0.913 . S
H468 C486 0.951 . S
H469 C488 0.951 . S
H470 C490 0.950 . S
H471 C491 0.950 . S
H472 C493 0.950 . S
H473 C496 0.950 . S
H474 C497 0.950 . S
H475 C499 0.950 . S
H476 C500 0.950 . S
H477 C501 0.951 . S
H478 C503 0.951 . S
H479 C505 0.950 . S
H480 C506 0.950 . S
H481 C508 0.950 . S
H482 C511 0.950 . S
H483 C512 0.950 . S
H484 C514 0.950 . S
H485 C515 0.950 . S
C486 H468 0.951 . S
C486 C487 1.366 . S
C486 C488 1.388 . S
C487 C486 1.366 . S
C487 C491 1.385 . S
C488 H469 0.951 . S
C488 C486 1.388 . S
C488 C489 1.366 . S
C489 C488 1.366 . S
C489 C490 1.414 . S
C489 C492 1.499 . S
C490 H470 0.950 . S
C490 C489 1.414 . S
C490 C491 1.374 . S
C491 H471 0.950 . S
C491 C487 1.385 . S
C491 C490 1.374 . S
C492 C489 1.499 . S
C492 C493 1.373 . S
C492 C494 1.389 . S
C493 H472 0.950 . S
C493 C492 1.373 . S
C493 C509 1.377 . S
C494 C492 1.389 . S
C494 C495 1.524 . S
C494 C508 1.377 . S
C495 C494 1.524 . S
C495 C496 1.397 . S
C495 C500 1.363 . S
C496 H473 0.950 . S
C496 C495 1.397 . S
C496 C497 1.334 . S
C497 H474 0.950 . S
C497 C496 1.334 . S
C497 C498 1.287 . S
C498 C497 1.287 . S
C498 C499 1.524 . S
C498 H517 0.913 . S
C499 H475 0.950 . S
C499 C498 1.524 . S
C499 C500 1.415 . S
C500 H476 0.950 . S
C500 C495 1.363 . S
C500 C499 1.415 . S
C501 H477 0.951 . S
C501 C502 1.366 . S
C501 C503 1.388 . S
C502 C501 1.366 . S
C502 C506 1.385 . S
C503 H478 0.951 . S
C503 C501 1.388 . S
C503 C504 1.366 . S
C504 C503 1.366 . S
C504 C505 1.414 . S
C504 C507 1.499 . S
C505 H479 0.950 . S
C505 C504 1.414 . S
C505 C506 1.374 . S
C506 H480 0.950 . S
C506 C502 1.385 . S
C506 C505 1.374 . S
C507 C504 1.499 . S
C507 C508 1.373 . S
C507 C509 1.389 . S
C508 H481 0.950 . S
C508 C494 1.377 . S
C508 C507 1.373 . S
C509 C493 1.377 . S
C509 C507 1.389 . S
C509 C510 1.524 . S
C510 C509 1.524 . S
C510 C511 1.397 . S
C510 C515 1.363 . S
C511 H482 0.950 . S
C511 C510 1.397 . S
C511 C512 1.334 . S
C512 H483 0.950 . S
C512 C511 1.334 . S
C512 C513 1.287 . S
C513 C512 1.287 . S
C513 C514 1.524 . S
C513 H516 0.999 . S
C514 H484 0.950 . S
C514 C513 1.524 . S
C514 C515 1.415 . S
C515 H485 0.950 . S
C515 C510 1.363 . S
C515 C514 1.415 . S
H516 C513 0.999 . S
H517 C498 0.913 . S
H518 C536 0.951 . S
H519 C538 0.951 . S
H520 C540 0.950 . S
H521 C541 0.950 . S
H522 C543 0.950 . S
H523 C546 0.950 . S
H524 C547 0.950 . S
H525 C549 0.950 . S
H526 C550 0.950 . S
H527 C551 0.951 . S
H528 C553 0.951 . S
H529 C555 0.950 . S
H530 C556 0.950 . S
H531 C558 0.950 . S
H532 C561 0.950 . S
H533 C562 0.950 . S
H534 C564 0.950 . S
H535 C565 0.950 . S
C536 H518 0.951 . S
C536 C537 1.366 . S
C536 C538 1.388 . S
C537 C536 1.366 . S
C537 C541 1.385 . S
C538 H519 0.951 . S
C538 C536 1.388 . S
C538 C539 1.366 . S
C539 C538 1.366 . S
C539 C540 1.414 . S
C539 C542 1.499 . S
C540 H520 0.950 . S
C540 C539 1.414 . S
C540 C541 1.374 . S
C541 H521 0.950 . S
C541 C537 1.385 . S
C541 C540 1.374 . S
C542 C539 1.499 . S
C542 C543 1.373 . S
C542 C544 1.389 . S
C543 H522 0.950 . S
C543 C542 1.373 . S
C543 C559 1.377 . S
C544 C542 1.389 . S
C544 C545 1.524 . S
C544 C558 1.377 . S
C545 C544 1.524 . S
C545 C546 1.397 . S
C545 C550 1.363 . S
C546 H523 0.950 . S
C546 C545 1.397 . S
C546 C547 1.334 . S
C547 H524 0.950 . S
C547 C546 1.334 . S
C547 C548 1.287 . S
C548 C547 1.287 . S
C548 C549 1.524 . S
C548 H567 0.913 . S
C549 H525 0.950 . S
C549 C548 1.524 . S
C549 C550 1.415 . S
C550 H526 0.950 . S
C550 C545 1.363 . S
C550 C549 1.415 . S
C551 H527 0.951 . S
C551 C552 1.366 . S
C551 C553 1.388 . S
C552 C551 1.366 . S
C552 C556 1.385 . S
C553 H528 0.951 . S
C553 C551 1.388 . S
C553 C554 1.366 . S
C554 C553 1.366 . S
C554 C555 1.414 . S
C554 C557 1.499 . S
C555 H529 0.950 . S
C555 C554 1.414 . S
C555 C556 1.374 . S
C556 H530 0.950 . S
C556 C552 1.385 . S
C556 C555 1.374 . S
C557 C554 1.499 . S
C557 C558 1.373 . S
C557 C559 1.389 . S
C558 H531 0.950 . S
C558 C544 1.377 . S
C558 C557 1.373 . S
C559 C543 1.377 . S
C559 C557 1.389 . S
C559 C560 1.524 . S
C560 C559 1.524 . S
C560 C561 1.397 . S
C560 C565 1.363 . S
C561 H532 0.950 . S
C561 C560 1.397 . S
C561 C562 1.334 . S
C562 H533 0.950 . S
C562 C561 1.334 . S
C562 C563 1.287 . S
C563 C562 1.287 . S
C563 C564 1.524 . S
C563 H566 0.999 . S
C564 H534 0.950 . S
C564 C563 1.524 . S
C564 C565 1.415 . S
C565 H535 0.950 . S
C565 C560 1.363 . S
C565 C564 1.415 . S
H566 C563 0.999 . S
H567 C548 0.913 . S
H568 C586 0.951 . S
H569 C588 0.951 . S
H570 C590 0.950 . S
H571 C591 0.950 . S
H572 C593 0.950 . S
H573 C596 0.950 . S
H574 C597 0.950 . S
H575 C599 0.950 . S
H576 C600 0.950 . S
H577 C601 0.951 . S
H578 C603 0.951 . S
H579 C605 0.950 . S
H580 C606 0.950 . S
H581 C608 0.950 . S
H582 C611 0.950 . S
H583 C612 0.950 . S
H584 C614 0.950 . S
H585 C615 0.950 . S
C586 H568 0.951 . S
C586 C587 1.366 . S
C586 C588 1.388 . S
C587 C586 1.366 . S
C587 C591 1.385 . S
C588 H569 0.951 . S
C588 C586 1.388 . S
C588 C589 1.366 . S
C589 C588 1.366 . S
C589 C590 1.414 . S
C589 C592 1.499 . S
C590 H570 0.950 . S
C590 C589 1.414 . S
C590 C591 1.374 . S
C591 H571 0.950 . S
C591 C587 1.385 . S
C591 C590 1.374 . S
C592 C589 1.499 . S
C592 C593 1.373 . S
C592 C594 1.389 . S
C593 H572 0.950 . S
C593 C592 1.373 . S
C593 C609 1.377 . S
C594 C592 1.389 . S
C594 C595 1.524 . S
C594 C608 1.377 . S
C595 C594 1.524 . S
C595 C596 1.397 . S
C595 C600 1.363 . S
C596 H573 0.950 . S
C596 C595 1.397 . S
C596 C597 1.334 . S
C597 H574 0.950 . S
C597 C596 1.334 . S
C597 C598 1.287 . S
C598 C597 1.287 . S
C598 C599 1.524 . S
C598 H617 0.913 . S
C599 H575 0.950 . S
C599 C598 1.524 . S
C599 C600 1.415 . S
C600 H576 0.950 . S
C600 C595 1.363 . S
C600 C599 1.415 . S
C601 H577 0.951 . S
C601 C602 1.366 . S
C601 C603 1.388 . S
C602 C601 1.366 . S
C602 C606 1.385 . S
C603 H578 0.951 . S
C603 C601 1.388 . S
C603 C604 1.366 . S
C604 C603 1.366 . S
C604 C605 1.414 . S
C604 C607 1.499 . S
C605 H579 0.950 . S
C605 C604 1.414 . S
C605 C606 1.374 . S
C606 H580 0.950 . S
C606 C602 1.385 . S
C606 C605 1.374 . S
C607 C604 1.499 . S
C607 C608 1.373 . S
C607 C609 1.389 . S
C608 H581 0.950 . S
C608 C594 1.377 . S
C608 C607 1.373 . S
C609 C593 1.377 . S
C609 C607 1.389 . S
C609 C610 1.524 . S
C610 C609 1.524 . S
C610 C611 1.397 . S
C610 C615 1.363 . S
C611 H582 0.950 . S
C611 C610 1.397 . S
C611 C612 1.334 . S
C612 H583 0.950 . S
C612 C611 1.334 . S
C612 C613 1.287 . S
C613 C612 1.287 . S
C613 C614 1.524 . S
C613 H616 0.999 . S
C614 H584 0.950 . S
C614 C613 1.524 . S
C614 C615 1.415 . S
C615 H585 0.950 . S
C615 C610 1.363 . S
C615 C614 1.415 . S
H616 C613 0.999 . S
H617 C598 0.913 . S
H618 C636 0.951 . S
H619 C638 0.951 . S
H620 C640 0.950 . S
H621 C641 0.950 . S
H622 C643 0.950 . S
H623 C646 0.950 . S
H624 C647 0.950 . S
H625 C649 0.950 . S
H626 C650 0.950 . S
H627 C651 0.951 1_554 S
H628 C653 0.951 1_554 S
H629 C655 0.950 . S
H630 C656 0.950 . S
H631 C658 0.950 . S
H632 C661 0.950 . S
H633 C662 0.950 . S
H634 C664 0.950 . S
H635 C665 0.950 . S
C636 H618 0.951 . S
C636 C637 1.366 . S
C636 C638 1.388 . S
C637 C636 1.366 . S
C637 C641 1.385 . S
C638 H619 0.951 . S
C638 C636 1.388 . S
C638 C639 1.366 . S
C639 C638 1.366 . S
C639 C640 1.414 . S
C639 C642 1.499 . S
C640 H620 0.950 . S
C640 C639 1.414 . S
C640 C641 1.374 . S
C641 H621 0.950 . S
C641 C637 1.385 . S
C641 C640 1.374 . S
C642 C639 1.499 . S
C642 C643 1.373 . S
C642 C644 1.389 . S
C643 H622 0.950 . S
C643 C642 1.373 . S
C643 C659 1.377 . S
C644 C642 1.389 . S
C644 C645 1.524 . S
C644 C658 1.377 . S
C645 C644 1.524 . S
C645 C646 1.397 . S
C645 C650 1.363 . S
C646 H623 0.950 . S
C646 C645 1.397 . S
C646 C647 1.334 . S
C647 H624 0.950 . S
C647 C646 1.334 . S
C647 C648 1.287 . S
C648 C647 1.287 . S
C648 C649 1.524 . S
C648 H667 0.913 . S
C649 H625 0.950 . S
C649 C648 1.524 . S
C649 C650 1.415 . S
C650 H626 0.950 . S
C650 C645 1.363 . S
C650 C649 1.415 . S
C651 H627 0.951 1_556 S
C651 C652 1.366 . S
C651 C653 1.388 . S
C652 C651 1.366 . S
C652 C656 1.385 . S
C653 H628 0.951 1_556 S
C653 C651 1.388 . S
C653 C654 1.366 . S
C654 C653 1.366 . S
C654 C655 1.414 . S
C654 C657 1.499 . S
C655 H629 0.950 . S
C655 C654 1.414 . S
C655 C656 1.374 . S
C656 H630 0.950 . S
C656 C652 1.385 . S
C656 C655 1.374 . S
C657 C654 1.499 . S
C657 C658 1.373 . S
C657 C659 1.389 . S
C658 H631 0.950 . S
C658 C644 1.377 . S
C658 C657 1.373 . S
C659 C643 1.377 . S
C659 C657 1.389 . S
C659 C660 1.524 . S
C660 C659 1.524 . S
C660 C661 1.397 . S
C660 C665 1.363 1_556 S
C661 H632 0.950 . S
C661 C660 1.397 . S
C661 C662 1.334 . S
C662 H633 0.950 . S
C662 C661 1.334 . S
C662 C663 1.287 . S
C663 C662 1.287 . S
C663 C664 1.524 1_556 S
C663 H666 0.999 1_556 S
C664 H634 0.950 . S
C664 C663 1.524 1_554 S
C664 C665 1.415 . S
C665 H635 0.950 . S
C665 C660 1.363 1_554 S
C665 C664 1.415 . S
H666 C663 0.999 1_554 S
H667 C648 0.913 . S
H668 C686 0.951 . S
H669 C688 0.951 . S
H670 C690 0.950 . S
H671 C691 0.950 . S
H672 C693 0.950 . S
H673 C696 0.950 . S
H674 C697 0.950 1_556 S
H675 C699 0.950 . S
H676 C700 0.950 . S
H677 C701 0.951 . S
H678 C703 0.951 . S
H679 C705 0.950 . S
H680 C706 0.950 . S
H681 C708 0.950 . S
H682 C711 0.950 . S
H683 C712 0.950 . S
H684 C714 0.950 . S
H685 C715 0.950 . S
C686 H668 0.951 . S
C686 C687 1.366 . S
C686 C688 1.388 . S
C687 C686 1.366 . S
C687 C691 1.385 . S
C688 H669 0.951 . S
C688 C686 1.388 . S
C688 C689 1.366 . S
C689 C688 1.366 . S
C689 C690 1.414 . S
C689 C692 1.499 . S
C690 H670 0.950 . S
C690 C689 1.414 . S
C690 C691 1.374 . S
C691 H671 0.950 . S
C691 C687 1.385 . S
C691 C690 1.374 . S
C692 C689 1.499 . S
C692 C693 1.373 . S
C692 C694 1.389 . S
C693 H672 0.950 . S
C693 C692 1.373 . S
C693 C709 1.377 . S
C694 C692 1.389 . S
C694 C695 1.524 . S
C694 C708 1.377 . S
C695 C694 1.524 . S
C695 C696 1.397 . S
C695 C700 1.363 . S
C696 H673 0.950 . S
C696 C695 1.397 . S
C696 C697 1.334 . S
C697 H674 0.950 1_554 S
C697 C696 1.334 . S
C697 C698 1.287 . S
C698 C697 1.287 . S
C698 C699 1.524 . S
C698 H717 0.913 . S
C699 H675 0.950 . S
C699 C698 1.524 . S
C699 C700 1.415 . S
C700 H676 0.950 . S
C700 C695 1.363 . S
C700 C699 1.415 . S
C701 H677 0.951 . S
C701 C702 1.366 . S
C701 C703 1.388 . S
C702 C701 1.366 . S
C702 C706 1.385 . S
C703 H678 0.951 . S
C703 C701 1.388 . S
C703 C704 1.366 . S
C704 C703 1.366 . S
C704 C705 1.414 . S
C704 C707 1.499 . S
C705 H679 0.950 . S
C705 C704 1.414 . S
C705 C706 1.374 . S
C706 H680 0.950 . S
C706 C702 1.385 . S
C706 C705 1.374 . S
C707 C704 1.499 . S
C707 C708 1.373 . S
C707 C709 1.389 . S
C708 H681 0.950 . S
C708 C694 1.377 . S
C708 C707 1.373 . S
C709 C693 1.377 . S
C709 C707 1.389 . S
C709 C710 1.524 . S
C710 C709 1.524 . S
C710 C711 1.397 . S
C710 C715 1.363 . S
C711 H682 0.950 . S
C711 C710 1.397 . S
C711 C712 1.334 . S
C712 H683 0.950 . S
C712 C711 1.334 . S
C712 C713 1.287 . S
C713 C712 1.287 . S
C713 C714 1.524 . S
C713 H716 0.999 . S
C714 H684 0.950 . S
C714 C713 1.524 . S
C714 C715 1.415 . S
C715 H685 0.950 . S
C715 C710 1.363 . S
C715 C714 1.415 . S
H716 C713 0.999 . S
H717 C698 0.913 . S
H718 C736 0.951 . S
H719 C738 0.951 . S
H720 C740 0.950 . S
H721 C741 0.950 . S
H722 C743 0.950 . S
H723 C746 0.950 . S
H724 C747 0.950 . S
H725 C749 0.950 . S
H726 C750 0.950 . S
H727 C751 0.951 . S
H728 C753 0.951 . S
H729 C755 0.950 . S
H730 C756 0.950 . S
H731 C758 0.950 . S
H732 C761 0.950 . S
H733 C762 0.950 . S
H734 C764 0.950 . S
H735 C765 0.950 . S
C736 H718 0.951 . S
C736 C737 1.366 . S
C736 C738 1.388 . S
C737 C736 1.366 . S
C737 C741 1.385 . S
C738 H719 0.951 . S
C738 C736 1.388 . S
C738 C739 1.366 . S
C739 C738 1.366 . S
C739 C740 1.414 . S
C739 C742 1.499 . S
C740 H720 0.950 . S
C740 C739 1.414 . S
C740 C741 1.374 . S
C741 H721 0.950 . S
C741 C737 1.385 . S
C741 C740 1.374 . S
C742 C739 1.499 . S
C742 C743 1.373 . S
C742 C744 1.389 . S
C743 H722 0.950 . S
C743 C742 1.373 . S
C743 C759 1.377 . S
C744 C742 1.389 . S
C744 C745 1.524 . S
C744 C758 1.377 . S
C745 C744 1.524 . S
C745 C746 1.397 . S
C745 C750 1.363 . S
C746 H723 0.950 . S
C746 C745 1.397 . S
C746 C747 1.334 . S
C747 H724 0.950 . S
C747 C746 1.334 . S
C747 C748 1.287 . S
C748 C747 1.287 . S
C748 C749 1.524 . S
C748 H767 0.913 . S
C749 H725 0.950 . S
C749 C748 1.524 . S
C749 C750 1.415 . S
C750 H726 0.950 . S
C750 C745 1.363 . S
C750 C749 1.415 . S
C751 H727 0.951 . S
C751 C752 1.366 . S
C751 C753 1.388 . S
C752 C751 1.366 . S
C752 C756 1.385 . S
C753 H728 0.951 . S
C753 C751 1.388 . S
C753 C754 1.366 . S
C754 C753 1.366 . S
C754 C755 1.414 . S
C754 C757 1.499 . S
C755 H729 0.950 . S
C755 C754 1.414 . S
C755 C756 1.374 . S
C756 H730 0.950 . S
C756 C752 1.385 . S
C756 C755 1.374 . S
C757 C754 1.499 . S
C757 C758 1.373 . S
C757 C759 1.389 . S
C758 H731 0.950 . S
C758 C744 1.377 . S
C758 C757 1.373 . S
C759 C743 1.377 . S
C759 C757 1.389 . S
C759 C760 1.524 . S
C760 C759 1.524 . S
C760 C761 1.397 . S
C760 C765 1.363 . S
C761 H732 0.950 . S
C761 C760 1.397 . S
C761 C762 1.334 . S
C762 H733 0.950 . S
C762 C761 1.334 . S
C762 C763 1.287 . S
C763 C762 1.287 . S
C763 C764 1.524 . S
C763 H766 0.999 . S
C764 H734 0.950 . S
C764 C763 1.524 . S
C764 C765 1.415 . S
C765 H735 0.950 . S
C765 C760 1.363 . S
C765 C764 1.415 . S
H766 C763 0.999 . S
H767 C748 0.913 . S
H768 C786 0.951 . S
H769 C788 0.951 . S
H770 C790 0.950 . S
H771 C791 0.950 . S
H772 C793 0.950 . S
H773 C796 0.950 . S
H774 C797 0.950 . S
H775 C799 0.950 . S
H776 C800 0.950 . S
H777 C801 0.951 . S
H778 C803 0.951 . S
H779 C805 0.950 . S
H780 C806 0.950 . S
H781 C808 0.950 . S
H782 C811 0.950 . S
H783 C812 0.950 . S
H784 C814 0.950 . S
H785 C815 0.950 . S
C786 H768 0.951 . S
C786 C787 1.366 . S
C786 C788 1.388 . S
C787 C786 1.366 . S
C787 C791 1.385 . S
C788 H769 0.951 . S
C788 C786 1.388 . S
C788 C789 1.366 . S
C789 C788 1.366 . S
C789 C790 1.414 . S
C789 C792 1.499 . S
C790 H770 0.950 . S
C790 C789 1.414 . S
C790 C791 1.374 . S
C791 H771 0.950 . S
C791 C787 1.385 . S
C791 C790 1.374 . S
C792 C789 1.499 . S
C792 C793 1.373 . S
C792 C794 1.389 . S
C793 H772 0.950 . S
C793 C792 1.373 . S
C793 C809 1.377 . S
C794 C792 1.389 . S
C794 C795 1.524 . S
C794 C808 1.377 . S
C795 C794 1.524 . S
C795 C796 1.397 . S
C795 C800 1.363 . S
C796 H773 0.950 . S
C796 C795 1.397 . S
C796 C797 1.334 . S
C797 H774 0.950 . S
C797 C796 1.334 . S
C797 C798 1.287 . S
C798 C797 1.287 . S
C798 C799 1.524 . S
C798 H817 0.913 . S
C799 H775 0.950 . S
C799 C798 1.524 . S
C799 C800 1.415 . S
C800 H776 0.950 . S
C800 C795 1.363 . S
C800 C799 1.415 . S
C801 H777 0.951 . S
C801 C802 1.366 . S
C801 C803 1.388 . S
C802 C801 1.366 . S
C802 C806 1.385 . S
C803 H778 0.951 . S
C803 C801 1.388 . S
C803 C804 1.366 . S
C804 C803 1.366 . S
C804 C805 1.414 . S
C804 C807 1.499 . S
C805 H779 0.950 . S
C805 C804 1.414 . S
C805 C806 1.374 . S
C806 H780 0.950 . S
C806 C802 1.385 . S
C806 C805 1.374 . S
C807 C804 1.499 . S
C807 C808 1.373 . S
C807 C809 1.389 . S
C808 H781 0.950 . S
C808 C794 1.377 . S
C808 C807 1.373 . S
C809 C793 1.377 . S
C809 C807 1.389 . S
C809 C810 1.524 . S
C810 C809 1.524 . S
C810 C811 1.397 . S
C810 C815 1.363 . S
C811 H782 0.950 . S
C811 C810 1.397 . S
C811 C812 1.334 . S
C812 H783 0.950 . S
C812 C811 1.334 . S
C812 C813 1.287 . S
C813 C812 1.287 . S
C813 C814 1.524 . S
C813 H816 0.999 . S
C814 H784 0.950 . S
C814 C813 1.524 . S
C814 C815 1.415 . S
C815 H785 0.950 . S
C815 C810 1.363 . S
C815 C814 1.415 . S
H816 C813 0.999 . S
H817 C798 0.913 . S
H818 C836 0.951 . S
H819 C838 0.951 . S
H820 C840 0.950 . S
H821 C841 0.950 . S
H822 C843 0.951 . S
H823 C846 0.950 . S
H824 C847 0.950 . S
H825 C849 0.950 . S
H826 C850 0.950 . S
H827 C851 0.951 . S
H828 C853 0.951 . S
H829 C855 0.950 . S
H830 C856 0.950 . S
H831 C858 0.951 . S
H832 C861 0.950 . S
H833 C862 0.950 . S
H834 C864 0.950 . S
H835 C865 0.950 . S
C836 H818 0.951 . S
C836 C837 1.366 . S
C836 C838 1.388 . S
C837 C836 1.366 . S
C837 C841 1.385 . S
C838 H819 0.951 . S
C838 C836 1.388 . S
C838 C839 1.366 . S
C839 C838 1.366 . S
C839 C840 1.414 . S
C839 C842 1.499 . S
C840 H820 0.950 . S
C840 C839 1.414 . S
C840 C841 1.374 . S
C841 H821 0.950 . S
C841 C837 1.385 . S
C841 C840 1.374 . S
C842 C839 1.499 . S
C842 C843 1.385 . S
C842 C844 1.389 . S
C843 H822 0.951 . S
C843 C842 1.385 . S
C843 C859 1.369 1_655 S
C844 C842 1.389 . S
C844 C845 1.524 . S
C844 C858 1.370 1_655 S
C845 C844 1.524 . S
C845 C846 1.397 . S
C845 C850 1.363 . S
C846 H823 0.950 . S
C846 C845 1.397 . S
C846 C847 1.334 . S
C847 H824 0.950 . S
C847 C846 1.334 . S
C847 C848 1.287 . S
C848 C847 1.287 . S
C848 C849 1.524 . S
C848 H867 0.913 . S
C849 H825 0.950 . S
C849 C848 1.524 . S
C849 C850 1.415 . S
C850 H826 0.950 . S
C850 C845 1.363 . S
C850 C849 1.415 . S
C851 H827 0.951 . S
C851 C852 1.366 . S
C851 C853 1.388 . S
C852 C851 1.366 . S
C852 C856 1.385 . S
C853 H828 0.951 . S
C853 C851 1.388 . S
C853 C854 1.366 . S
C854 C853 1.366 . S
C854 C855 1.414 . S
C854 C857 1.499 . S
C855 H829 0.950 . S
C855 C854 1.414 . S
C855 C856 1.374 . S
C856 H830 0.950 . S
C856 C852 1.385 . S
C856 C855 1.374 . S
C857 C854 1.499 . S
C857 C858 1.384 . S
C857 C859 1.389 . S
C858 H831 0.951 . S
C858 C844 1.370 1_455 S
C858 C857 1.384 . S
C859 C843 1.369 1_455 S
C859 C857 1.389 . S
C859 C860 1.524 . S
C860 C859 1.524 . S
C860 C861 1.397 . S
C860 C865 1.363 . S
C861 H832 0.950 . S
C861 C860 1.397 . S
C861 C862 1.334 . S
C862 H833 0.950 . S
C862 C861 1.334 . S
C862 C863 1.287 . S
C863 C862 1.287 . S
C863 C864 1.524 . S
C863 H866 0.999 . S
C864 H834 0.950 . S
C864 C863 1.524 . S
C864 C865 1.415 . S
C865 H835 0.950 . S
C865 C860 1.363 . S
C865 C864 1.415 . S
H866 C863 0.999 . S
H867 C848 0.913 . S
H868 C886 0.951 . S
H869 C888 0.951 . S
H870 C890 0.950 . S
H871 C891 0.950 . S
H872 C893 0.950 . S
H873 C896 0.950 . S
H874 C897 0.950 . S
H875 C899 0.950 . S
H876 C900 0.950 . S
H877 C901 0.951 . S
H878 C903 0.951 . S
H879 C905 0.950 . S
H880 C906 0.950 . S
H881 C908 0.950 . S
H882 C911 0.950 . S
H883 C912 0.950 . S
H884 C914 0.950 . S
H885 C915 0.950 . S
C886 H868 0.951 . S
C886 C887 1.366 . S
C886 C888 1.388 . S
C887 C886 1.366 . S
C887 C891 1.385 . S
C888 H869 0.951 . S
C888 C886 1.388 . S
C888 C889 1.366 . S
C889 C888 1.366 . S
C889 C890 1.414 . S
C889 C892 1.499 . S
C890 H870 0.950 . S
C890 C889 1.414 . S
C890 C891 1.374 . S
C891 H871 0.950 . S
C891 C887 1.385 . S
C891 C890 1.374 . S
C892 C889 1.499 . S
C892 C893 1.373 1_565 S
C892 C894 1.389 1_554 S
C893 H872 0.950 . S
C893 C892 1.373 1_545 S
C893 C909 1.377 . S
C894 C892 1.389 1_556 S
C894 C895 1.524 . S
C894 C908 1.377 . S
C895 C894 1.524 . S
C895 C896 1.397 1_556 S
C895 C900 1.363 . S
C896 H873 0.950 . S
C896 C895 1.397 1_554 S
C896 C897 1.334 . S
C897 H874 0.950 . S
C897 C896 1.334 . S
C897 C898 1.287 1_554 S
C898 C897 1.287 1_556 S
C898 C899 1.524 . S
C898 H917 0.913 . S
C899 H875 0.950 . S
C899 C898 1.524 . S
C899 C900 1.415 . S
C900 H876 0.950 . S
C900 C895 1.363 . S
C900 C899 1.415 . S
C901 H877 0.951 . S
C901 C902 1.366 . S
C901 C903 1.388 . S
C902 C901 1.366 . S
C902 C906 1.385 . S
C903 H878 0.951 . S
C903 C901 1.388 . S
C903 C904 1.366 . S
C904 C903 1.366 . S
C904 C905 1.414 . S
C904 C907 1.499 . S
C905 H879 0.950 . S
C905 C904 1.414 . S
C905 C906 1.374 . S
C906 H880 0.950 . S
C906 C902 1.385 . S
C906 C905 1.374 . S
C907 C904 1.499 . S
C907 C908 1.373 1_545 S
C907 C909 1.389 1_556 S
C908 H881 0.950 . S
C908 C894 1.377 . S
C908 C907 1.373 1_565 S
C909 C893 1.377 . S
C909 C907 1.389 1_554 S
C909 C910 1.524 . S
C910 C909 1.524 . S
C910 C911 1.397 1_554 S
C910 C915 1.363 . S
C911 H882 0.950 . S
C911 C910 1.397 1_556 S
C911 C912 1.334 . S
C912 H883 0.950 . S
C912 C911 1.334 . S
C912 C913 1.287 1_556 S
C913 C912 1.287 1_554 S
C913 C914 1.524 . S
C913 H916 0.999 . S
C914 H884 0.950 . S
C914 C913 1.524 . S
C914 C915 1.415 . S
C915 H885 0.950 . S
C915 C910 1.363 . S
C915 C914 1.415 . S
H916 C913 0.999 . S
H917 C898 0.913 . S
H918 C936 0.951 . S
H919 C938 0.951 . S
H920 C940 0.950 . S
H921 C941 0.950 . S
H922 C943 0.950 . S
H923 C946 0.950 . S
H924 C947 0.950 1_556 S
H925 C949 0.950 . S
H926 C950 0.950 . S
H927 C951 0.951 . S
H928 C953 0.951 . S
H929 C955 0.950 . S
H930 C956 0.950 . S
H931 C958 0.950 . S
H932 C961 0.950 . S
H933 C962 0.950 . S
H934 C964 0.950 . S
H935 C965 0.950 . S
C936 H918 0.951 . S
C936 C937 1.366 . S
C936 C938 1.388 . S
C937 C936 1.366 . S
C937 C941 1.385 . S
C938 H919 0.951 . S
C938 C936 1.388 . S
C938 C939 1.366 . S
C939 C938 1.366 . S
C939 C940 1.414 . S
C939 C942 1.499 . S
C940 H920 0.950 . S
C940 C939 1.414 . S
C940 C941 1.374 . S
C941 H921 0.950 . S
C941 C937 1.385 . S
C941 C940 1.374 . S
C942 C939 1.499 . S
C942 C943 1.373 . S
C942 C944 1.389 . S
C943 H922 0.950 . S
C943 C942 1.373 . S
C943 C959 1.377 . S
C944 C942 1.389 . S
C944 C945 1.524 . S
C944 C958 1.377 . S
C945 C944 1.524 . S
C945 C946 1.397 . S
C945 C950 1.363 . S
C946 H923 0.950 . S
C946 C945 1.397 . S
C946 C947 1.334 . S
C947 H924 0.950 1_554 S
C947 C946 1.334 . S
C947 C948 1.287 . S
C948 C947 1.287 . S
C948 C949 1.524 . S
C948 H967 0.913 1_554 S
C949 H925 0.950 . S
C949 C948 1.524 . S
C949 C950 1.415 . S
C950 H926 0.950 . S
C950 C945 1.363 . S
C950 C949 1.415 . S
C951 H927 0.951 . S
C951 C952 1.366 . S
C951 C953 1.388 . S
C952 C951 1.366 . S
C952 C956 1.385 . S
C953 H928 0.951 . S
C953 C951 1.388 . S
C953 C954 1.366 . S
C954 C953 1.366 . S
C954 C955 1.414 . S
C954 C957 1.499 . S
C955 H929 0.950 . S
C955 C954 1.414 . S
C955 C956 1.374 . S
C956 H930 0.950 . S
C956 C952 1.385 . S
C956 C955 1.374 . S
C957 C954 1.499 . S
C957 C958 1.373 . S
C957 C959 1.389 . S
C958 H931 0.950 . S
C958 C944 1.377 . S
C958 C957 1.373 . S
C959 C943 1.377 . S
C959 C957 1.389 . S
C959 C960 1.524 . S
C960 C959 1.524 . S
C960 C961 1.397 . S
C960 C965 1.363 . S
C961 H932 0.950 . S
C961 C960 1.397 . S
C961 C962 1.334 . S
C962 H933 0.950 . S
C962 C961 1.334 . S
C962 C963 1.287 . S
C963 C962 1.287 . S
C963 C964 1.524 . S
C963 H966 0.999 . S
C964 H934 0.950 . S
C964 C963 1.524 . S
C964 C965 1.415 . S
C965 H935 0.950 . S
C965 C960 1.363 . S
C965 C964 1.415 . S
H966 C963 0.999 . S
H967 C948 0.913 1_556 S
H968 C986 0.951 . S
H969 C988 0.951 . S
H970 C990 0.950 . S
H971 C991 0.950 . S
H972 C993 0.950 . S
H973 C996 0.950 . S
H974 C997 0.950 . S
H975 C999 0.950 . S
H976 C1000 0.950 . S
H977 C1001 0.951 . S
H978 C1003 0.951 . S
H979 C1005 0.950 . S
H980 C1006 0.950 . S
H981 C1008 0.950 . S
H982 C1011 0.950 . S
H983 C1012 0.950 . S
H984 C1014 0.950 . S
H985 C1015 0.950 . S
C986 H968 0.951 . S
C986 C987 1.366 . S
C986 C988 1.388 . S
C987 C986 1.366 . S
C987 C991 1.385 . S
C988 H969 0.951 . S
C988 C986 1.388 . S
C988 C989 1.366 . S
C989 C988 1.366 . S
C989 C990 1.414 . S
C989 C992 1.499 . S
C990 H970 0.950 . S
C990 C989 1.414 . S
C990 C991 1.374 . S
C991 H971 0.950 . S
C991 C987 1.385 . S
C991 C990 1.374 . S
C992 C989 1.499 . S
C992 C993 1.373 1_455 S
C992 C994 1.389 . S
C993 H972 0.950 . S
C993 C992 1.373 1_655 S
C993 C1009 1.377 . S
C994 C992 1.389 . S
C994 C995 1.524 . S
C994 C1008 1.377 . S
C995 C994 1.524 . S
C995 C996 1.397 . S
C995 C1000 1.363 . S
C996 H973 0.950 . S
C996 C995 1.397 . S
C996 C997 1.334 . S
C997 H974 0.950 . S
C997 C996 1.334 . S
C997 C998 1.287 . S
C998 C997 1.287 . S
C998 C999 1.524 . S
C998 H1017 0.913 . S
C999 H975 0.950 . S
C999 C998 1.524 . S
C999 C1000 1.415 . S
C1000 H976 0.950 . S
C1000 C995 1.363 . S
C1000 C999 1.415 . S
C1001 H977 0.951 . S
C1001 C1002 1.366 . S
C1001 C1003 1.388 . S
C1002 C1001 1.366 . S
C1002 C1006 1.385 . S
C1003 H978 0.951 . S
C1003 C1001 1.388 . S
C1003 C1004 1.366 . S
C1004 C1003 1.366 . S
C1004 C1005 1.414 . S
C1004 C1007 1.499 . S
C1005 H979 0.950 . S
C1005 C1004 1.414 . S
C1005 C1006 1.374 . S
C1006 H980 0.950 . S
C1006 C1002 1.385 . S
C1006 C1005 1.374 . S
C1007 C1004 1.499 . S
C1007 C1008 1.373 1_655 S
C1007 C1009 1.389 . S
C1008 H981 0.950 . S
C1008 C994 1.377 . S
C1008 C1007 1.373 1_455 S
C1009 C993 1.377 . S
C1009 C1007 1.389 . S
C1009 C1010 1.524 . S
C1010 C1009 1.524 . S
C1010 C1011 1.397 . S
C1010 C1015 1.363 . S
C1011 H982 0.950 . S
C1011 C1010 1.397 . S
C1011 C1012 1.334 . S
C1012 H983 0.950 . S
C1012 C1011 1.334 . S
C1012 C1013 1.287 . S
C1013 C1012 1.287 . S
C1013 C1014 1.524 . S
C1013 H1016 0.999 . S
C1014 H984 0.950 . S
C1014 C1013 1.524 . S
C1014 C1015 1.415 . S
C1015 H985 0.950 . S
C1015 C1010 1.363 . S
C1015 C1014 1.415 . S
H1016 C1013 0.999 . S
H1017 C998 0.913 . S
H1018 C1036 0.951 . S
H1019 C1038 0.951 . S
H1020 C1040 0.950 . S
H1021 C1041 0.950 . S
H1022 C1043 0.950 . S
H1023 C1046 0.950 . S
H1024 C1047 0.950 . S
H1025 C1049 0.950 . S
H1026 C1050 0.950 . S
H1027 C1051 0.951 . S
H1028 C1053 0.951 . S
H1029 C1055 0.950 . S
H1030 C1056 0.950 . S
H1031 C1058 0.950 . S
H1032 C1061 0.950 . S
H1033 C1062 0.950 . S
H1034 C1064 0.950 . S
H1035 C1065 0.950 . S
C1036 H1018 0.951 . S
C1036 C1037 1.366 . S
C1036 C1038 1.388 . S
C1037 C1036 1.366 . S
C1037 C1041 1.385 . S
C1038 H1019 0.951 . S
C1038 C1036 1.388 . S
C1038 C1039 1.366 . S
C1039 C1038 1.366 . S
C1039 C1040 1.414 . S
C1039 C1042 1.499 . S
C1040 H1020 0.950 . S
C1040 C1039 1.414 . S
C1040 C1041 1.374 . S
C1041 H1021 0.950 . S
C1041 C1037 1.385 . S
C1041 C1040 1.374 . S
C1042 C1039 1.499 . S
C1042 C1043 1.373 1_565 S
C1042 C1044 1.389 . S
C1043 H1022 0.950 . S
C1043 C1042 1.373 1_545 S
C1043 C1059 1.377 . S
C1044 C1042 1.389 . S
C1044 C1045 1.524 . S
C1044 C1058 1.377 . S
C1045 C1044 1.524 . S
C1045 C1046 1.397 . S
C1045 C1050 1.363 . S
C1046 H1023 0.950 . S
C1046 C1045 1.397 . S
C1046 C1047 1.334 . S
C1047 H1024 0.950 . S
C1047 C1046 1.334 . S
C1047 C1048 1.287 . S
C1048 C1047 1.287 . S
C1048 C1049 1.524 . S
C1048 H1067 0.913 . S
C1049 H1025 0.950 . S
C1049 C1048 1.524 . S
C1049 C1050 1.415 . S
C1050 H1026 0.950 . S
C1050 C1045 1.363 . S
C1050 C1049 1.415 . S
C1051 H1027 0.951 . S
C1051 C1052 1.366 . S
C1051 C1053 1.388 . S
C1052 C1051 1.366 . S
C1052 C1056 1.385 . S
C1053 H1028 0.951 . S
C1053 C1051 1.388 . S
C1053 C1054 1.366 . S
C1054 C1053 1.366 . S
C1054 C1055 1.414 . S
C1054 C1057 1.499 . S
C1055 H1029 0.950 . S
C1055 C1054 1.414 . S
C1055 C1056 1.374 . S
C1056 H1030 0.950 . S
C1056 C1052 1.385 . S
C1056 C1055 1.374 . S
C1057 C1054 1.499 . S
C1057 C1058 1.373 1_545 S
C1057 C1059 1.389 . S
C1058 H1031 0.950 . S
C1058 C1044 1.377 . S
C1058 C1057 1.373 1_565 S
C1059 C1043 1.377 . S
C1059 C1057 1.389 . S
C1059 C1060 1.524 . S
C1060 C1059 1.524 . S
C1060 C1061 1.397 . S
C1060 C1065 1.363 . S
C1061 H1032 0.950 . S
C1061 C1060 1.397 . S
C1061 C1062 1.334 . S
C1062 H1033 0.950 . S
C1062 C1061 1.334 . S
C1062 C1063 1.287 . S
C1063 C1062 1.287 . S
C1063 C1064 1.524 . S
C1063 H1066 0.999 . S
C1064 H1034 0.950 . S
C1064 C1063 1.524 . S
C1064 C1065 1.415 . S
C1065 H1035 0.950 . S
C1065 C1060 1.363 . S
C1065 C1064 1.415 . S
H1066 C1063 0.999 . S
H1067 C1048 0.913 . S
H1068 C1086 0.951 . S
H1069 C1088 0.951 . S
H1070 C1090 0.950 . S
H1071 C1091 0.950 . S
H1072 C1093 0.950 . S
H1073 C1096 0.950 . S
H1074 C1097 0.950 . S
H1075 C1099 0.950 . S
H1076 C1100 0.950 . S
H1077 C1101 0.951 . S
H1078 C1103 0.951 . S
H1079 C1105 0.950 . S
H1080 C1106 0.950 . S
H1081 C1108 0.950 . S
H1082 C1111 0.950 . S
H1083 C1112 0.950 . S
H1084 C1114 0.950 . S
H1085 C1115 0.950 . S
C1086 H1068 0.951 . S
C1086 C1087 1.366 . S
C1086 C1088 1.388 . S
C1087 C1086 1.366 . S
C1087 C1091 1.385 . S
C1088 H1069 0.951 . S
C1088 C1086 1.388 . S
C1088 C1089 1.366 . S
C1089 C1088 1.366 . S
C1089 C1090 1.414 . S
C1089 C1092 1.499 . S
C1090 H1070 0.950 . S
C1090 C1089 1.414 . S
C1090 C1091 1.374 . S
C1091 H1071 0.950 . S
C1091 C1087 1.385 . S
C1091 C1090 1.374 . S
C1092 C1089 1.499 . S
C1092 C1093 1.373 . S
C1092 C1094 1.389 . S
C1093 H1072 0.950 . S
C1093 C1092 1.373 . S
C1093 C1109 1.377 . S
C1094 C1092 1.389 . S
C1094 C1095 1.524 . S
C1094 C1108 1.377 . S
C1095 C1094 1.524 . S
C1095 C1096 1.397 . S
C1095 C1100 1.363 . S
C1096 H1073 0.950 . S
C1096 C1095 1.397 . S
C1096 C1097 1.334 . S
C1097 H1074 0.950 . S
C1097 C1096 1.334 . S
C1097 C1098 1.287 . S
C1098 C1097 1.287 . S
C1098 C1099 1.524 . S
C1098 H1117 0.913 . S
C1099 H1075 0.950 . S
C1099 C1098 1.524 . S
C1099 C1100 1.415 . S
C1100 H1076 0.950 . S
C1100 C1095 1.363 . S
C1100 C1099 1.415 . S
C1101 H1077 0.951 . S
C1101 C1102 1.366 . S
C1101 C1103 1.388 . S
C1102 C1101 1.366 . S
C1102 C1106 1.385 . S
C1103 H1078 0.951 . S
C1103 C1101 1.388 . S
C1103 C1104 1.366 . S
C1104 C1103 1.366 . S
C1104 C1105 1.414 . S
C1104 C1107 1.499 . S
C1105 H1079 0.950 . S
C1105 C1104 1.414 . S
C1105 C1106 1.374 . S
C1106 H1080 0.950 . S
C1106 C1102 1.385 . S
C1106 C1105 1.374 . S
C1107 C1104 1.499 . S
C1107 C1108 1.373 . S
C1107 C1109 1.389 . S
C1108 H1081 0.950 . S
C1108 C1094 1.377 . S
C1108 C1107 1.373 . S
C1109 C1093 1.377 . S
C1109 C1107 1.389 . S
C1109 C1110 1.524 . S
C1110 C1109 1.524 . S
C1110 C1111 1.397 . S
C1110 C1115 1.363 . S
C1111 H1082 0.950 . S
C1111 C1110 1.397 . S
C1111 C1112 1.334 . S
C1112 H1083 0.950 . S
C1112 C1111 1.334 . S
C1112 C1113 1.287 . S
C1113 C1112 1.287 . S
C1113 C1114 1.524 . S
C1113 H1116 0.999 . S
C1114 H1084 0.950 . S
C1114 C1113 1.524 . S
C1114 C1115 1.415 . S
C1115 H1085 0.950 . S
C1115 C1110 1.363 . S
C1115 C1114 1.415 . S
H1116 C1113 0.999 . S
H1117 C1098 0.913 . S
H1118 C1136 0.951 . S
H1119 C1138 0.951 . S
H1120 C1140 0.950 . S
H1121 C1141 0.950 . S
H1122 C1143 0.950 . S
H1123 C1146 0.950 . S
H1124 C1147 0.950 . S
H1125 C1149 0.950 . S
H1126 C1150 0.950 . S
H1127 C1151 0.951 . S
H1128 C1153 0.951 . S
H1129 C1155 0.950 . S
H1130 C1156 0.950 . S
H1131 C1158 0.950 . S
H1132 C1161 0.950 . S
H1133 C1162 0.950 . S
H1134 C1164 0.950 . S
H1135 C1165 0.950 . S
C1136 H1118 0.951 . S
C1136 C1137 1.366 . S
C1136 C1138 1.388 . S
C1137 C1136 1.366 . S
C1137 C1141 1.385 . S
C1138 H1119 0.951 . S
C1138 C1136 1.388 . S
C1138 C1139 1.366 . S
C1139 C1138 1.366 . S
C1139 C1140 1.414 . S
C1139 C1142 1.499 . S
C1140 H1120 0.950 . S
C1140 C1139 1.414 . S
C1140 C1141 1.374 . S
C1141 H1121 0.950 . S
C1141 C1137 1.385 . S
C1141 C1140 1.374 . S
C1142 C1139 1.499 . S
C1142 C1143 1.373 . S
C1142 C1144 1.389 . S
C1143 H1122 0.950 . S
C1143 C1142 1.373 . S
C1143 C1159 1.377 . S
C1144 C1142 1.389 . S
C1144 C1145 1.524 . S
C1144 C1158 1.377 . S
C1145 C1144 1.524 . S
C1145 C1146 1.397 . S
C1145 C1150 1.363 . S
C1146 H1123 0.950 . S
C1146 C1145 1.397 . S
C1146 C1147 1.334 . S
C1147 H1124 0.950 . S
C1147 C1146 1.334 . S
C1147 C1148 1.287 . S
C1148 C1147 1.287 . S
C1148 C1149 1.524 . S
C1148 H1167 0.913 . S
C1149 H1125 0.950 . S
C1149 C1148 1.524 . S
C1149 C1150 1.415 . S
C1150 H1126 0.950 . S
C1150 C1145 1.363 . S
C1150 C1149 1.415 . S
C1151 H1127 0.951 . S
C1151 C1152 1.366 . S
C1151 C1153 1.388 . S
C1152 C1151 1.366 . S
C1152 C1156 1.385 . S
C1153 H1128 0.951 . S
C1153 C1151 1.388 . S
C1153 C1154 1.366 . S
C1154 C1153 1.366 . S
C1154 C1155 1.414 . S
C1154 C1157 1.499 . S
C1155 H1129 0.950 . S
C1155 C1154 1.414 . S
C1155 C1156 1.374 . S
C1156 H1130 0.950 . S
C1156 C1152 1.385 . S
C1156 C1155 1.374 . S
C1157 C1154 1.499 . S
C1157 C1158 1.373 . S
C1157 C1159 1.389 . S
C1158 H1131 0.950 . S
C1158 C1144 1.377 . S
C1158 C1157 1.373 . S
C1159 C1143 1.377 . S
C1159 C1157 1.389 . S
C1159 C1160 1.524 . S
C1160 C1159 1.524 . S
C1160 C1161 1.397 . S
C1160 C1165 1.363 . S
C1161 H1132 0.950 . S
C1161 C1160 1.397 . S
C1161 C1162 1.334 . S
C1162 H1133 0.950 . S
C1162 C1161 1.334 . S
C1162 C1163 1.287 . S
C1163 C1162 1.287 . S
C1163 C1164 1.524 . S
C1163 H1166 0.999 . S
C1164 H1134 0.950 . S
C1164 C1163 1.524 . S
C1164 C1165 1.415 . S
C1165 H1135 0.950 . S
C1165 C1160 1.363 . S
C1165 C1164 1.415 . S
H1166 C1163 0.999 . S
H1167 C1148 0.913 . S
H1168 C1186 0.951 . S
H1169 C1188 0.951 . S
H1170 C1190 0.950 . S
H1171 C1191 0.950 . S
H1172 C1193 0.950 . S
H1173 C1196 0.950 . S
H1174 C1197 0.950 . S
H1175 C1199 0.950 . S
H1176 C1200 0.950 . S
H1177 C1201 0.951 . S
H1178 C1203 0.951 . S
H1179 C1205 0.950 . S
H1180 C1206 0.950 . S
H1181 C1208 0.950 . S
H1182 C1211 0.950 . S
H1183 C1212 0.950 1_554 S
H1184 C1214 0.950 . S
H1185 C1215 0.950 . S
C1186 H1168 0.951 . S
C1186 C1187 1.366 . S
C1186 C1188 1.388 1_554 S
C1187 C1186 1.366 . S
C1187 C1191 1.385 1_554 S
C1188 H1169 0.951 . S
C1188 C1186 1.388 1_556 S
C1188 C1189 1.366 . S
C1189 C1188 1.366 . S
C1189 C1190 1.414 . S
C1189 C1192 1.499 . S
C1190 H1170 0.950 . S
C1190 C1189 1.414 . S
C1190 C1191 1.374 . S
C1191 H1171 0.950 . S
C1191 C1187 1.385 1_556 S
C1191 C1190 1.374 . S
C1192 C1189 1.499 . S
C1192 C1193 1.373 . S
C1192 C1194 1.389 . S
C1193 H1172 0.950 . S
C1193 C1192 1.373 . S
C1193 C1209 1.377 . S
C1194 C1192 1.389 . S
C1194 C1195 1.524 . S
C1194 C1208 1.377 . S
C1195 C1194 1.524 . S
C1195 C1196 1.397 . S
C1195 C1200 1.363 . S
C1196 H1173 0.950 . S
C1196 C1195 1.397 . S
C1196 C1197 1.334 . S
C1197 H1174 0.950 . S
C1197 C1196 1.334 . S
C1197 C1198 1.287 . S
C1198 C1197 1.287 . S
C1198 C1199 1.524 . S
C1198 H1217 0.913 . S
C1199 H1175 0.950 . S
C1199 C1198 1.524 . S
C1199 C1200 1.415 . S
C1200 H1176 0.950 . S
C1200 C1195 1.363 . S
C1200 C1199 1.415 . S
C1201 H1177 0.951 . S
C1201 C1202 1.366 . S
C1201 C1203 1.388 . S
C1202 C1201 1.366 . S
C1202 C1206 1.385 . S
C1203 H1178 0.951 . S
C1203 C1201 1.388 . S
C1203 C1204 1.366 . S
C1204 C1203 1.366 . S
C1204 C1205 1.414 . S
C1204 C1207 1.499 . S
C1205 H1179 0.950 . S
C1205 C1204 1.414 . S
C1205 C1206 1.374 . S
C1206 H1180 0.950 . S
C1206 C1202 1.385 . S
C1206 C1205 1.374 . S
C1207 C1204 1.499 . S
C1207 C1208 1.373 . S
C1207 C1209 1.389 . S
C1208 H1181 0.950 . S
C1208 C1194 1.377 . S
C1208 C1207 1.373 . S
C1209 C1193 1.377 . S
C1209 C1207 1.389 . S
C1209 C1210 1.524 . S
C1210 C1209 1.524 . S
C1210 C1211 1.397 . S
C1210 C1215 1.363 . S
C1211 H1182 0.950 . S
C1211 C1210 1.397 . S
C1211 C1212 1.334 . S
C1212 H1183 0.950 1_556 S
C1212 C1211 1.334 . S
C1212 C1213 1.287 1_556 S
C1213 C1212 1.287 1_554 S
C1213 C1214 1.524 1_554 S
C1213 H1216 0.999 . S
C1214 H1184 0.950 . S
C1214 C1213 1.524 1_556 S
C1214 C1215 1.415 . S
C1215 H1185 0.950 . S
C1215 C1210 1.363 . S
C1215 C1214 1.415 . S
H1216 C1213 0.999 . S
H1217 C1198 0.913 . S
H1218 C1236 0.951 . S
H1219 C1238 0.951 . S
H1220 C1240 0.950 . S
H1221 C1241 0.950 . S
H1222 C1243 0.950 . S
H1223 C1246 0.950 . S
H1224 C1247 0.950 . S
H1225 C1249 0.950 . S
H1226 C1250 0.950 . S
H1227 C1251 0.951 . S
H1228 C1253 0.951 . S
H1229 C1255 0.950 . S
H1230 C1256 0.950 . S
H1231 C1258 0.950 . S
H1232 C1261 0.950 1_554 S
H1233 C1262 0.950 . S
H1234 C1264 0.950 . S
H1235 C1265 0.950 . S
C1236 H1218 0.951 . S
C1236 C1237 1.366 . S
C1236 C1238 1.388 . S
C1237 C1236 1.366 . S
C1237 C1241 1.385 . S
C1238 H1219 0.951 . S
C1238 C1236 1.388 . S
C1238 C1239 1.366 . S
C1239 C1238 1.366 . S
C1239 C1240 1.414 . S
C1239 C1242 1.499 . S
C1240 H1220 0.950 . S
C1240 C1239 1.414 . S
C1240 C1241 1.374 . S
C1241 H1221 0.950 . S
C1241 C1237 1.385 . S
C1241 C1240 1.374 . S
C1242 C1239 1.499 . S
C1242 C1243 1.373 . S
C1242 C1244 1.389 . S
C1243 H1222 0.950 . S
C1243 C1242 1.373 . S
C1243 C1259 1.377 . S
C1244 C1242 1.389 . S
C1244 C1245 1.524 . S
C1244 C1258 1.377 . S
C1245 C1244 1.524 . S
C1245 C1246 1.397 . S
C1245 C1250 1.363 . S
C1246 H1223 0.950 . S
C1246 C1245 1.397 . S
C1246 C1247 1.334 . S
C1247 H1224 0.950 . S
C1247 C1246 1.334 . S
C1247 C1248 1.287 . S
C1248 C1247 1.287 . S
C1248 C1249 1.524 . S
C1248 H1267 0.913 . S
C1249 H1225 0.950 . S
C1249 C1248 1.524 . S
C1249 C1250 1.415 . S
C1250 H1226 0.950 . S
C1250 C1245 1.363 . S
C1250 C1249 1.415 . S
C1251 H1227 0.951 . S
C1251 C1252 1.366 . S
C1251 C1253 1.388 . S
C1252 C1251 1.366 . S
C1252 C1256 1.385 1_556 S
C1253 H1228 0.951 . S
C1253 C1251 1.388 . S
C1253 C1254 1.366 1_556 S
C1254 C1253 1.366 1_554 S
C1254 C1255 1.414 . S
C1254 C1257 1.499 . S
C1255 H1229 0.950 . S
C1255 C1254 1.414 . S
C1255 C1256 1.374 . S
C1256 H1230 0.950 . S
C1256 C1252 1.385 1_554 S
C1256 C1255 1.374 . S
C1257 C1254 1.499 . S
C1257 C1258 1.373 . S
C1257 C1259 1.389 . S
C1258 H1231 0.950 . S
C1258 C1244 1.377 . S
C1258 C1257 1.373 . S
C1259 C1243 1.377 . S
C1259 C1257 1.389 . S
C1259 C1260 1.524 1_554 S
C1260 C1259 1.524 1_556 S
C1260 C1261 1.397 . S
C1260 C1265 1.363 . S
C1261 H1232 0.950 1_556 S
C1261 C1260 1.397 . S
C1261 C1262 1.334 . S
C1262 H1233 0.950 . S
C1262 C1261 1.334 . S
C1262 C1263 1.287 . S
C1263 C1262 1.287 . S
C1263 C1264 1.524 . S
C1263 H1266 0.999 . S
C1264 H1234 0.950 . S
C1264 C1263 1.524 . S
C1264 C1265 1.415 . S
C1265 H1235 0.950 . S
C1265 C1260 1.363 . S
C1265 C1264 1.415 . S
H1266 C1263 0.999 . S
H1267 C1248 0.913 . S
H1268 C1286 0.951 . S
H1269 C1288 0.951 . S
H1270 C1290 0.950 . S
H1271 C1291 0.950 . S
H1272 C1293 0.950 . S
H1273 C1296 0.950 . S
H1274 C1297 0.950 . S
H1275 C1299 0.950 . S
H1276 C1300 0.950 . S
H1277 C1301 0.951 . S
H1278 C1303 0.951 . S
H1279 C1305 0.950 . S
H1280 C1306 0.950 . S
H1281 C1308 0.950 . S
H1282 C1311 0.950 . S
H1283 C1312 0.950 . S
H1284 C1314 0.950 . S
H1285 C1315 0.950 . S
C1286 H1268 0.951 . S
C1286 C1287 1.366 . S
C1286 C1288 1.388 . S
C1287 C1286 1.366 . S
C1287 C1291 1.385 . S
C1288 H1269 0.951 . S
C1288 C1286 1.388 . S
C1288 C1289 1.366 . S
C1289 C1288 1.366 . S
C1289 C1290 1.414 . S
C1289 C1292 1.499 . S
C1290 H1270 0.950 . S
C1290 C1289 1.414 . S
C1290 C1291 1.374 . S
C1291 H1271 0.950 . S
C1291 C1287 1.385 . S
C1291 C1290 1.374 . S
C1292 C1289 1.499 . S
C1292 C1293 1.373 . S
C1292 C1294 1.389 . S
C1293 H1272 0.950 . S
C1293 C1292 1.373 . S
C1293 C1309 1.377 . S
C1294 C1292 1.389 . S
C1294 C1295 1.524 . S
C1294 C1308 1.377 . S
C1295 C1294 1.524 . S
C1295 C1296 1.397 . S
C1295 C1300 1.363 . S
C1296 H1273 0.950 . S
C1296 C1295 1.397 . S
C1296 C1297 1.334 . S
C1297 H1274 0.950 . S
C1297 C1296 1.334 . S
C1297 C1298 1.287 . S
C1298 C1297 1.287 . S
C1298 C1299 1.524 . S
C1298 H1317 0.913 . S
C1299 H1275 0.950 . S
C1299 C1298 1.524 . S
C1299 C1300 1.415 . S
C1300 H1276 0.950 . S
C1300 C1295 1.363 . S
C1300 C1299 1.415 . S
C1301 H1277 0.951 . S
C1301 C1302 1.366 . S
C1301 C1303 1.388 . S
C1302 C1301 1.366 . S
C1302 C1306 1.385 . S
C1303 H1278 0.951 . S
C1303 C1301 1.388 . S
C1303 C1304 1.366 . S
C1304 C1303 1.366 . S
C1304 C1305 1.414 . S
C1304 C1307 1.499 . S
C1305 H1279 0.950 . S
C1305 C1304 1.414 . S
C1305 C1306 1.374 . S
C1306 H1280 0.950 . S
C1306 C1302 1.385 . S
C1306 C1305 1.374 . S
C1307 C1304 1.499 . S
C1307 C1308 1.373 . S
C1307 C1309 1.389 . S
C1308 H1281 0.950 . S
C1308 C1294 1.377 . S
C1308 C1307 1.373 . S
C1309 C1293 1.377 . S
C1309 C1307 1.389 . S
C1309 C1310 1.524 . S
C1310 C1309 1.524 . S
C1310 C1311 1.397 . S
C1310 C1315 1.363 . S
C1311 H1282 0.950 . S
C1311 C1310 1.397 . S
C1311 C1312 1.334 . S
C1312 H1283 0.950 . S
C1312 C1311 1.334 . S
C1312 C1313 1.287 . S
C1313 C1312 1.287 . S
C1313 C1314 1.524 . S
C1313 H1316 0.999 . S
C1314 H1284 0.950 . S
C1314 C1313 1.524 . S
C1314 C1315 1.415 . S
C1315 H1285 0.950 . S
C1315 C1310 1.363 . S
C1315 C1314 1.415 . S
H1316 C1313 0.999 . S
H1317 C1298 0.913 . S
H1318 C1336 0.951 . S
H1319 C1338 0.951 . S
H1320 C1340 0.950 . S
H1321 C1341 0.950 . S
H1322 C1343 0.950 . S
H1323 C1346 0.950 . S
H1324 C1347 0.950 . S
H1325 C1349 0.950 . S
H1326 C1350 0.950 . S
H1327 C1351 0.951 . S
H1328 C1353 0.951 . S
H1329 C1355 0.950 . S
H1330 C1356 0.950 . S
H1331 C1358 0.950 . S
H1332 C1361 0.950 . S
H1333 C1362 0.950 . S
H1334 C1364 0.950 . S
H1335 C1365 0.950 . S
C1336 H1318 0.951 . S
C1336 C1337 1.366 . S
C1336 C1338 1.388 . S
C1337 C1336 1.366 . S
C1337 C1341 1.385 . S
C1338 H1319 0.951 . S
C1338 C1336 1.388 . S
C1338 C1339 1.366 . S
C1339 C1338 1.366 . S
C1339 C1340 1.414 . S
C1339 C1342 1.499 . S
C1340 H1320 0.950 . S
C1340 C1339 1.414 . S
C1340 C1341 1.374 . S
C1341 H1321 0.950 . S
C1341 C1337 1.385 . S
C1341 C1340 1.374 . S
C1342 C1339 1.499 . S
C1342 C1343 1.373 . S
C1342 C1344 1.389 . S
C1343 H1322 0.950 . S
C1343 C1342 1.373 . S
C1343 C1359 1.377 . S
C1344 C1342 1.389 . S
C1344 C1345 1.524 . S
C1344 C1358 1.377 . S
C1345 C1344 1.524 . S
C1345 C1346 1.397 . S
C1345 C1350 1.363 . S
C1346 H1323 0.950 . S
C1346 C1345 1.397 . S
C1346 C1347 1.334 . S
C1347 H1324 0.950 . S
C1347 C1346 1.334 . S
C1347 C1348 1.287 . S
C1348 C1347 1.287 . S
C1348 C1349 1.524 . S
C1348 H1367 0.913 . S
C1349 H1325 0.950 . S
C1349 C1348 1.524 . S
C1349 C1350 1.415 . S
C1350 H1326 0.950 . S
C1350 C1345 1.363 . S
C1350 C1349 1.415 . S
C1351 H1327 0.951 . S
C1351 C1352 1.366 . S
C1351 C1353 1.388 . S
C1352 C1351 1.366 . S
C1352 C1356 1.385 . S
C1353 H1328 0.951 . S
C1353 C1351 1.388 . S
C1353 C1354 1.366 . S
C1354 C1353 1.366 . S
C1354 C1355 1.414 . S
C1354 C1357 1.499 . S
C1355 H1329 0.950 . S
C1355 C1354 1.414 . S
C1355 C1356 1.374 . S
C1356 H1330 0.950 . S
C1356 C1352 1.385 . S
C1356 C1355 1.374 . S
C1357 C1354 1.499 . S
C1357 C1358 1.373 . S
C1357 C1359 1.389 . S
C1358 H1331 0.950 . S
C1358 C1344 1.377 . S
C1358 C1357 1.373 . S
C1359 C1343 1.377 . S
C1359 C1357 1.389 . S
C1359 C1360 1.524 . S
C1360 C1359 1.524 . S
C1360 C1361 1.397 . S
C1360 C1365 1.363 . S
C1361 H1332 0.950 . S
C1361 C1360 1.397 . S
C1361 C1362 1.334 . S
C1362 H1333 0.950 . S
C1362 C1361 1.334 . S
C1362 C1363 1.287 . S
C1363 C1362 1.287 . S
C1363 C1364 1.524 . S
C1363 H1366 0.999 . S
C1364 H1334 0.950 . S
C1364 C1363 1.524 . S
C1364 C1365 1.415 . S
C1365 H1335 0.950 . S
C1365 C1360 1.363 . S
C1365 C1364 1.415 . S
H1366 C1363 0.999 . S
H1367 C1348 0.913 . S
C187 C135 1.648 1_554 S
C202 C9 1.647 . S
C237 C23 1.648 . S
C252 C149 1.647 . S
C287 C163 1.647 . S
C302 C37 1.648 . S
C337 C93 1.647 . S
C352 C51 1.648 . S
C387 C107 1.648 . S
C402 C65 1.647 1_556 S
C437 C121 1.647 . S
C452 C79 1.648 . S
C487 C91 1.636 . S
C502 C7 1.637 . S
C537 C21 1.636 . S
C552 C105 1.635 . S
C587 C119 1.637 . S
C602 C35 1.636 . S
C637 C49 1.635 . S
C652 C133 1.636 . S
C687 C147 1.636 . S
C702 C63 1.637 . S
C737 C77 1.635 . S
C752 C161 1.636 . S
C787 C134 1.470 . S
C802 C8 1.470 . S
C837 C148 1.470 1_556 S
C852 C22 1.470 . S
C887 C162 1.470 . S
C902 C36 1.470 . S
C937 C50 1.470 1_554 S
C952 C92 1.470 . S
C987 C106 1.470 . S
C1002 C64 1.470 . S
C1037 C78 1.470 . S
C1052 C120 1.470 . S
C1087 C6 1.052 . S
C1102 C118 1.053 . S
C1137 C132 1.053 . S
C1152 C20 1.052 . S
C1187 C146 1.052 . S
C1202 C34 1.052 . S
C1237 C160 1.053 . S
C1252 C48 1.052 . S
C1287 C90 1.052 . S
C1302 C62 1.053 . S
C1337 C104 1.052 . S
C1352 C76 1.052 . S
