# Generated by pormake.
# Topology smk, (6)-cn, num edge types: 1
# Building blocks:
#     Node 0, Type 0, BuildingBlock: VOLQOD_clean_sbu_1, # of connection points: 6
#     Node 1, Type 0, BuildingBlock: VOLQOD_clean_sbu_1, # of connection points: 6
#     Node 2, Type 0, BuildingBlock: VOLQOD_clean_sbu_1, # of connection points: 6
#     Node 3, Type 0, BuildingBlock: VOLQOD_clean_sbu_1, # of connection points: 6
#     Node 4, Type 0, BuildingBlock: VOLQOD_clean_sbu_1, # of connection points: 6
#     Node 5, Type 0, BuildingBlock: VOLQOD_clean_sbu_1, # of connection points: 6
#     Edge 6, Type (0, 0), BuildingBlock: MIFKUJ_clean_linker_0, # of connection points: 2
#     Edge 7, Type (0, 0), BuildingBlock: MIFKUJ_clean_linker_0, # of connection points: 2
#     Edge 8, Type (0, 0), BuildingBlock: MIFKUJ_clean_linker_0, # of connection points: 2
#     Edge 9, Type (0, 0), BuildingBlock: MIFKUJ_clean_linker_0, # of connection points: 2
#     Edge 10, Type (0, 0), BuildingBlock: MIFKUJ_clean_linker_0, # of connection points: 2
#     Edge 11, Type (0, 0), BuildingBlock: MIFKUJ_clean_linker_0, # of connection points: 2
#     Edge 12, Type (0, 0), BuildingBlock: MIFKUJ_clean_linker_0, # of connection points: 2
#     Edge 13, Type (0, 0), BuildingBlock: MIFKUJ_clean_linker_0, # of connection points: 2
#     Edge 14, Type (0, 0), BuildingBlock: MIFKUJ_clean_linker_0, # of connection points: 2
#     Edge 15, Type (0, 0), BuildingBlock: MIFKUJ_clean_linker_0, # of connection points: 2
#     Edge 16, Type (0, 0), BuildingBlock: MIFKUJ_clean_linker_0, # of connection points: 2
#     Edge 17, Type (0, 0), BuildingBlock: MIFKUJ_clean_linker_0, # of connection points: 2
#     Edge 18, Type (0, 0), BuildingBlock: MIFKUJ_clean_linker_0, # of connection points: 2
#     Edge 19, Type (0, 0), BuildingBlock: MIFKUJ_clean_linker_0, # of connection points: 2
#     Edge 20, Type (0, 0), BuildingBlock: MIFKUJ_clean_linker_0, # of connection points: 2
#     Edge 21, Type (0, 0), BuildingBlock: MIFKUJ_clean_linker_0, # of connection points: 2
#     Edge 22, Type (0, 0), BuildingBlock: MIFKUJ_clean_linker_0, # of connection points: 2
#     Edge 23, Type (0, 0), BuildingBlock: MIFKUJ_clean_linker_0, # of connection points: 2
# Relax obj value: 0.161
# Max RMSD: 0.170
# Mean RMSD: 0.170
data_MOF--net-smk--node1-VOLQOD_clean_sbu_1--edge1-MIFKUJ_clean_linker_0
_symmetry_space_group_name_H-M    P1
_symmetry_Int_Tables_number       1
_symmetry_cell_setting            triclinic
loop_
_symmetry_equiv_pos_as_xyz
'x, y, z'
_cell_length_a     56.071348
_cell_length_b     56.054377
_cell_length_c     21.331104
_cell_angle_alpha  90.041666
_cell_angle_beta   90.041714
_cell_angle_gamma 120.02205
loop_
_atom_site_label
_atom_site_type_symbol
_atom_site_fract_x
_atom_site_fract_y
_atom_site_fract_z
_atom_type_partial_charge
O0 O 0.44242 0.24991 0.71021 0.0
Zn1 Zn 0.4382 0.25237 0.61747 0.0
O2 O 0.42798 0.21723 0.57779 0.0
Zn3 Zn 0.45619 0.22158 0.5192 0.0
Zn4 Zn 0.42365 0.19022 0.63959 0.0
Zn5 Zn 0.39334 0.20406 0.53367 0.0
O6 O 0.44094 0.21195 0.43235 0.0
O7 O 0.40044 0.20998 0.44152 0.0
O8 O 0.47321 0.28377 0.58073 0.0
O9 O 0.48567 0.26124 0.51509 0.0
O10 O 0.4748 0.20024 0.54413 0.0
O11 O 0.45397 0.18141 0.63377 0.0
O12 O 0.38844 0.15457 0.62684 0.0
O13 O 0.40739 0.26059 0.61023 0.0
O14 O 0.36842 0.16335 0.54741 0.0
O15 O 0.3739 0.2241 0.56176 0.0
C16 C 0.43521 0.22938 0.74643 0.0
C17 C 0.41957 0.21066 0.40807 0.0
C18 C 0.47221 0.18599 0.59277 0.0
C19 C 0.48991 0.28359 0.54045 0.0
C20 C 0.36897 0.14666 0.58708 0.0
C21 C 0.38272 0.24699 0.59017 0.0
O22 O 0.426 0.20505 0.72552 0.0
O23 O 0.19317 0.44314 0.88471 0.0
Zn24 Zn 0.18749 0.44004 0.79118 0.0
O25 O 0.21497 0.43394 0.75099 0.0
Zn26 Zn 0.23995 0.46653 0.70382 0.0
Zn27 Zn 0.23548 0.42735 0.81415 0.0
Zn28 Zn 0.19711 0.40164 0.69764 0.0
O29 O 0.24121 0.45651 0.61409 0.0
O30 O 0.2057 0.41359 0.60858 0.0
O31 O 0.18704 0.47315 0.7557 0.0
O32 O 0.22548 0.4927 0.69942 0.0
O33 O 0.27754 0.48715 0.74411 0.0
O34 O 0.27281 0.46076 0.82602 0.0
O35 O 0.24075 0.39549 0.79226 0.0
O36 O 0.15008 0.40754 0.77691 0.0
O37 O 0.21203 0.37624 0.71238 0.0
O38 O 0.156 0.38023 0.71114 0.0
C39 C 0.20244 0.43093 0.91881 0.0
C40 C 0.2247 0.43523 0.58257 0.0
C41 C 0.28702 0.48261 0.79425 0.0
C42 C 0.20411 0.49242 0.72032 0.0
C43 C 0.22963 0.37672 0.7508 0.0
C44 C 0.14042 0.38549 0.74476 0.0
O45 O 0.21623 0.42057 0.89605 0.0
O46 O 0.75032 0.18526 -0.00344 0.0
Zn47 Zn 0.74766 0.17996 0.90283 0.0
O48 O 0.78239 0.20564 0.86357 0.0
Zn49 Zn 0.77727 0.23033 0.80993 0.0
Zn50 Zn 0.80875 0.22675 0.92711 0.0
Zn51 Zn 0.79674 0.1861 0.81644 0.0
O52 O 0.79011 0.22942 0.72279 0.0
O53 O 0.79226 0.19075 0.72498 0.0
O54 O 0.71547 0.1821 0.8664 0.0
O55 O 0.73715 0.21635 0.79869 0.0
O56 O 0.79352 0.2685 0.84779 0.0
O57 O 0.81205 0.26394 0.9358 0.0
O58 O 0.84615 0.23273 0.9062 0.0
O59 O 0.74038 0.1415 0.8901 0.0
O60 O 0.83745 0.20251 0.83005 0.0
O61 O 0.77712 0.14585 0.83987 0.0
C62 C 0.77163 0.19374 0.03107 0.0
C63 C 0.79206 0.21031 0.69497 0.0
C64 C 0.80574 0.27811 0.89999 0.0
C65 C 0.71504 0.19759 0.82328 0.0
C66 C 0.85433 0.22139 0.8666 0.0
C67 C 0.75413 0.1311 0.86731 0.0
O68 O 0.79592 0.20744 0.009 0.0
O69 O 0.55926 0.76165 0.24664 0.0
Zn70 Zn 0.56166 0.75558 0.15403 0.0
O71 O 0.57174 0.78936 0.10858 0.0
Zn72 Zn 0.54253 0.78353 0.05266 0.0
Zn73 Zn 0.57703 0.81809 0.16549 0.0
Zn74 Zn 0.60554 0.80149 0.06251 0.0
O75 O 0.55743 0.79844 0.96791 0.0
O76 O 0.59773 0.79969 0.9708 0.0
O77 O 0.52682 0.72281 0.11856 0.0
O78 O 0.51757 0.74333 0.04097 0.0
O79 O 0.51921 0.7985 0.08722 0.0
O80 O 0.54316 0.82176 0.17063 0.0
O81 O 0.60947 0.85451 0.14116 0.0
O82 O 0.59219 0.74672 0.14601 0.0
O83 O 0.63221 0.84154 0.07769 0.0
O84 O 0.62333 0.77892 0.08355 0.0
C85 C 0.57225 0.78426 0.27697 0.0
C86 C 0.5789 0.80122 0.94076 0.0
C87 C 0.52194 0.81287 0.1358 0.0
C88 C 0.51273 0.72165 0.07044 0.0
C89 C 0.63031 0.86028 0.10713 0.0
C90 C 0.61526 0.75758 0.11763 0.0
O91 O 0.58292 0.80761 0.25006 0.0
O92 O 0.80816 0.55351 0.3434 0.0
Zn93 Zn 0.81407 0.55784 0.24968 0.0
O94 O 0.78784 0.56638 0.21134 0.0
Zn95 Zn 0.76215 0.5355 0.16127 0.0
Zn96 Zn 0.76841 0.57276 0.27702 0.0
Zn97 Zn 0.80608 0.5995 0.16098 0.0
O98 O 0.76104 0.54751 0.07316 0.0
O99 O 0.79945 0.58855 0.07035 0.0
O100 O 0.81293 0.52408 0.21099 0.0
O101 O 0.77603 0.50921 0.15041 0.0
O102 O 0.72496 0.51424 0.20362 0.0
O103 O 0.73138 0.53931 0.28929 0.0
O104 O 0.76237 0.60419 0.25727 0.0
O105 O 0.85183 0.59049 0.23905 0.0
O106 O 0.78943 0.62384 0.17523 0.0
O107 O 0.84691 0.62079 0.18134 0.0
C108 C 0.80087 0.56702 0.379 0.0
C109 C 0.77941 0.56814 0.0428 0.0
C110 C 0.7165 0.51805 0.25615 0.0
C111 C 0.79602 0.50691 0.17131 0.0
C112 C 0.77203 0.62273 0.21519 0.0
C113 C 0.86195 0.61401 0.21291 0.0
O114 O 0.78864 0.57928 0.35774 0.0
O115 O 0.23807 0.80007 0.55629 0.0
Zn116 Zn 0.24245 0.80964 0.46527 0.0
O117 O 0.20837 0.78612 0.42203 0.0
Zn118 Zn 0.21267 0.7614 0.36621 0.0
Zn119 Zn 0.17996 0.7646 0.48089 0.0
Zn120 Zn 0.19758 0.80849 0.37506 0.0
O121 O 0.19997 0.76402 0.28015 0.0
O122 O 0.2059 0.80641 0.28521 0.0
O123 O 0.27438 0.80758 0.42695 0.0
O124 O 0.25295 0.77418 0.35678 0.0
O125 O 0.19429 0.72225 0.39927 0.0
O126 O 0.17407 0.72657 0.48442 0.0
O127 O 0.14411 0.76225 0.45729 0.0
O128 O 0.25056 0.84868 0.46314 0.0
O129 O 0.15664 0.7932 0.38113 0.0
O130 O 0.2176 0.84804 0.40417 0.0
C131 C 0.21653 0.7902 0.59028 0.0
C132 C 0.20282 0.78571 0.25388 0.0
C133 C 0.18045 0.71228 0.44935 0.0
C134 C 0.275 0.79238 0.3832 0.0
C135 C 0.13812 0.77476 0.41582 0.0
C136 C 0.23877 0.86087 0.43902 0.0
O137 O 0.19241 0.77911 0.56683 0.0
H138 H 0.39263 0.23133 0.3412 0.0
H139 H 0.3957 0.24001 0.22844 0.0
H140 H 0.44643 0.20258 0.20816 0.0
H141 H 0.44445 0.19502 0.32115 0.0
H142 H 0.46864 0.24857 0.14796 0.0
H143 H 0.37659 0.17034 0.16201 0.0
H144 H 0.32873 0.14429 0.20022 0.0
H145 H 0.3133 0.20714 0.13032 0.0
H146 H 0.36121 0.23374 0.09236 0.0
H147 H 0.44529 0.20058 0.83395 0.0
H148 H 0.44429 0.20485 0.94787 0.0
H149 H 0.42636 0.27079 0.92632 0.0
H150 H 0.42813 0.26719 0.81172 0.0
H151 H 0.38828 0.21887 0.00676 0.0
H152 H 0.4809 0.2934 0.98018 0.0
H153 H 0.52818 0.31567 0.93825 0.0
H154 H 0.54163 0.25503 0.02887 0.0
H155 H 0.49427 0.23211 0.07055 0.0
C156 C 0.40409 0.22461 0.31245 0.0
C157 C 0.41833 0.21253 0.33964 0.0
C158 C 0.40582 0.22957 0.2481 0.0
C159 C 0.42121 0.22185 0.20993 0.0
C160 C 0.43463 0.2089 0.23689 0.0
C161 C 0.43337 0.20445 0.30128 0.0
C162 C 0.42429 0.22804 0.14216 0.0
C163 C 0.45103 0.24193 0.11712 0.0
C164 C 0.40135 0.22015 0.10224 0.0
C165 C 0.37256 0.20418 0.12505 0.0
C166 C 0.36306 0.17871 0.15526 0.0
C167 C 0.33591 0.16383 0.17678 0.0
C168 C 0.31801 0.1741 0.16789 0.0
C169 C 0.3272 0.19924 0.13729 0.0
C170 C 0.35434 0.21422 0.11574 0.0
C171 C 0.44146 0.2162 0.85352 0.0
C172 C 0.43674 0.23354 0.81447 0.0
C173 C 0.44097 0.21865 0.91831 0.0
C174 C 0.43529 0.23813 0.9448 0.0
C175 C 0.43088 0.25574 0.90615 0.0
C176 C 0.43199 0.25373 0.84111 0.0
C177 C 0.43244 0.23858 0.01305 0.0
C178 C 0.4058 0.22595 0.03809 0.0
C179 C 0.45538 0.24714 0.05285 0.0
C180 C 0.48394 0.26092 0.02808 0.0
C181 C 0.49385 0.28466 -0.00931 0.0
C182 C 0.52068 0.29743 0.96707 0.0
C183 C 0.53788 0.28674 0.98078 0.0
C184 C 0.52828 0.26328 0.01826 0.0
C185 C 0.50145 0.25041 0.04196 0.0
H186 H 0.55865 0.29666 0.96246 0.0
H187 H 0.297 0.16254 0.18457 0.0
H188 H 0.20649 0.39193 0.50214 0.0
H189 H 0.20373 0.39319 0.38788 0.0
H190 H 0.24193 0.48175 0.39377 0.0
H191 H 0.24521 0.48077 0.50823 0.0
H192 H 0.18897 0.45098 0.32538 0.0
H193 H 0.2793 0.46061 0.34018 0.0
H194 H 0.31293 0.44759 0.37704 0.0
H195 H 0.26575 0.36811 0.29057 0.0
H196 H 0.23162 0.38051 0.25395 0.0
H197 H 0.20468 0.4712 -0.00598 0.0
H198 H 0.20747 0.47277 0.10859 0.0
H199 H 0.19457 0.39004 0.11067 0.0
H200 H 0.19334 0.38912 -0.00372 0.0
H201 H 0.23655 0.42061 0.17687 0.0
H202 H 0.14551 0.4075 0.16511 0.0
H203 H 0.10894 0.41684 0.13104 0.0
H204 H 0.15267 0.49746 0.21373 0.0
H205 H 0.1897 0.48873 0.24759 0.0
C206 C 0.21464 0.41169 0.47901 0.0
C207 C 0.22604 0.43625 0.51381 0.0
C208 C 0.21306 0.41236 0.41397 0.0
C209 C 0.22257 0.43755 0.38303 0.0
C210 C 0.2345 0.46217 0.41733 0.0
C211 C 0.23652 0.46157 0.4824 0.0
C212 C 0.21886 0.43785 0.31496 0.0
C213 C 0.19963 0.4448 0.29246 0.0
C214 C 0.23217 0.42884 0.2731 0.0
C215 C 0.25278 0.42141 0.2948 0.0
C216 C 0.27597 0.44027 0.32949 0.0
C217 C 0.29515 0.43302 0.35024 0.0
C218 C 0.29144 0.40702 0.33629 0.0
C219 C 0.26858 0.38823 0.3014 0.0
C220 C 0.24933 0.39538 0.28057 0.0
C221 C 0.20187 0.45321 0.01926 0.0
C222 C 0.19898 0.43011 0.9869 0.0
C223 C 0.20339 0.45406 0.0846 0.0
C224 C 0.2012 0.43149 0.11819 0.0
C225 C 0.19657 0.40778 0.08567 0.0
C226 C 0.19576 0.4072 0.02051 0.0
C227 C 0.2062 0.43335 0.18652 0.0
C228 C 0.2258 0.42688 0.2093 0.0
C229 C 0.19275 0.44224 0.2287 0.0
C230 C 0.17053 0.44756 0.2083 0.0
C231 C 0.14745 0.42731 0.17556 0.0
C232 C 0.12661 0.43247 0.15638 0.0
C233 C 0.12852 0.45776 0.17005 0.0
C234 C 0.15124 0.4779 0.20308 0.0
C235 C 0.17215 0.47285 0.22233 0.0
H236 H 0.11236 0.46171 0.15517 0.0
H237 H 0.30632 0.40144 0.3524 0.0
H238 H 0.80364 0.18253 0.10635 0.0
H239 H 0.80247 0.18013 0.22099 0.0
H240 H 0.73239 0.19234 0.22269 0.0
H241 H 0.7329 0.19391 0.10757 0.0
H242 H 0.78582 0.233 0.29062 0.0
H243 H 0.71751 0.13666 0.26951 0.0
H244 H 0.69967 0.08962 0.22834 0.0
H245 H 0.76759 0.08626 0.3119 0.0
H246 H 0.78612 0.13348 0.35277 0.0
H247 H 0.7689 0.23139 0.61724 0.0
H248 H 0.76288 0.22529 0.50414 0.0
H249 H 0.8076 0.18105 0.50391 0.0
H250 H 0.81242 0.18591 0.61797 0.0
H251 H 0.76523 0.15523 0.43346 0.0
H252 H 0.83605 0.24916 0.44892 0.0
H253 H 0.85918 0.29738 0.4854 0.0
H254 H 0.79407 0.3073 0.4073 0.0
H255 H 0.77035 0.259 0.37107 0.0
C256 C 0.78767 0.18416 0.13124 0.0
C257 C 0.76849 0.18864 0.0987 0.0
C258 C 0.78696 0.18266 0.1964 0.0
C259 C 0.76737 0.18609 0.22965 0.0
C260 C 0.74753 0.18953 0.19728 0.0
C261 C 0.74782 0.19038 0.1319 0.0
C262 C 0.76983 0.18933 0.29802 0.0
C263 C 0.78083 0.21599 0.3223 0.0
C264 C 0.76453 0.16719 0.33802 0.0
C265 C 0.75331 0.13871 0.31383 0.0
C266 C 0.72878 0.12599 0.27868 0.0
C267 C 0.71849 0.09926 0.25558 0.0
C268 C 0.73245 0.08494 0.26765 0.0
C269 C 0.75675 0.09734 0.30278 0.0
C270 C 0.76715 0.12409 0.32596 0.0
C271 C 0.77779 0.2207 0.59296 0.0
C272 C 0.7913 0.20928 0.62612 0.0
C273 C 0.77436 0.21724 0.5283 0.0
C274 C 0.78512 0.20304 0.49539 0.0
C275 C 0.79908 0.19204 0.52838 0.0
C276 C 0.80198 0.19497 0.59335 0.0
C277 C 0.78112 0.19908 0.42682 0.0
C278 C 0.77005 0.17232 0.40223 0.0
C279 C 0.78711 0.2213 0.38605 0.0
C280 C 0.80129 0.25037 0.40784 0.0
C281 C 0.82655 0.26156 0.43996 0.0
C282 C 0.83979 0.28891 0.46052 0.0
C283 C 0.82806 0.30537 0.44883 0.0
C284 C 0.8031 0.29452 0.41641 0.0
C285 C 0.78977 0.26716 0.3958 0.0
H286 H 0.83834 0.32654 0.46476 0.0
H287 H 0.72449 0.06427 0.24957 0.0
H288 H 0.61509 0.82111 0.34682 0.0
H289 H 0.61816 0.82397 0.46113 0.0
H290 H 0.53832 0.75072 0.47509 0.0
H291 H 0.5354 0.74719 0.36014 0.0
H292 H 0.56501 0.82013 0.53641 0.0
H293 H 0.55915 0.72716 0.53497 0.0
H294 H 0.57575 0.69709 0.49262 0.0
H295 H 0.65907 0.75849 0.53647 0.0
H296 H 0.6429 0.78904 0.57825 0.0
H297 H 0.53846 0.79337 0.85844 0.0
H298 H 0.54073 0.79341 0.74451 0.0
H299 H 0.62661 0.81676 0.75408 0.0
H300 H 0.62439 0.81616 0.86851 0.0
H301 H 0.59984 0.77432 0.67862 0.0
H302 H 0.60762 0.86197 0.7016 0.0
H303 H 0.59645 0.89664 0.74059 0.0
H304 H 0.51702 0.85312 0.65241 0.0
H305 H 0.52753 0.81793 0.61364 0.0
C306 C 0.59838 0.80538 0.3743 0.0
C307 C 0.57497 0.78395 0.34514 0.0
C308 C 0.60021 0.80703 0.43927 0.0
C309 C 0.57855 0.78747 0.47574 0.0
C310 C 0.55534 0.76571 0.44707 0.0
C311 C 0.55371 0.76372 0.38182 0.0
C312 C 0.57957 0.79126 0.54373 0.0
C313 C 0.57213 0.80984 0.56801 0.0
C314 C 0.59025 0.77884 0.58348 0.0
C315 C 0.59988 0.76045 0.55887 0.0
C316 C 0.58102 0.73432 0.53492 0.0
C317 C 0.59034 0.71718 0.5112 0.0
C318 C 0.61846 0.72591 0.51164 0.0
C319 C 0.63731 0.75177 0.53601 0.0
C320 C 0.62808 0.769 0.55972 0.0
C321 C 0.55795 0.79892 0.83639 0.0
C322 C 0.58118 0.8045 0.87231 0.0
C323 C 0.55923 0.79903 0.77128 0.0
C324 C 0.58386 0.80517 0.74109 0.0
C325 C 0.6074 0.81184 0.77674 0.0
C326 C 0.60608 0.81151 0.84196 0.0
C327 C 0.58431 0.8026 0.67248 0.0
C328 C 0.59242 0.78455 0.64764 0.0
C329 C 0.57472 0.816 0.63208 0.0
C330 C 0.56828 0.83715 0.65519 0.0
C331 C 0.58767 0.85964 0.69097 0.0
C332 C 0.58148 0.87942 0.71297 0.0
C333 C 0.55602 0.87704 0.69914 0.0
C334 C 0.53672 0.85491 0.66315 0.0
C335 C 0.5428 0.83506 0.64108 0.0
H336 H 0.55126 0.89237 0.7162 0.0
H337 H 0.62564 0.71261 0.49328 0.0
H338 H 0.79594 0.52497 0.45209 0.0
H339 H 0.7948 0.52337 0.56723 0.0
H340 H 0.81374 0.608 0.57321 0.0
H341 H 0.81411 0.60947 0.45853 0.0
H342 H 0.84225 0.59003 0.66654 0.0
H343 H 0.75232 0.5672 0.57944 0.0
H344 H 0.71265 0.53984 0.5098 0.0
H345 H 0.69755 0.46557 0.60244 0.0
H346 H 0.73748 0.4925 0.67192 0.0
H347 H 0.80316 0.61144 0.96181 0.0
H348 H 0.80775 0.60942 0.84835 0.0
H349 H 0.76131 0.52055 0.85527 0.0
H350 H 0.75562 0.5225 0.96834 0.0
H351 H 0.74794 0.53666 0.75494 0.0
H352 H 0.83313 0.55709 0.84876 0.0
H353 H 0.87399 0.58169 0.91666 0.0
H354 H 0.89972 0.65611 0.81229 0.0
H355 H 0.85879 0.63205 0.74428 0.0
C356 C 0.80045 0.54335 0.47817 0.0
C357 C 0.80489 0.56727 0.44696 0.0
C358 C 0.79973 0.54239 0.5436 0.0
C359 C 0.80404 0.56553 0.57811 0.0
C360 C 0.8104 0.59 0.54703 0.0
C361 C 0.81048 0.59077 0.48179 0.0
C362 C 0.79925 0.56363 0.64613 0.0
C363 C 0.82169 0.57851 0.68617 0.0
C364 C 0.77244 0.5479 0.6711 0.0
C365 C 0.74807 0.53182 0.63034 0.0
C366 C 0.74068 0.54502 0.5846 0.0
C367 C 0.71813 0.5296 0.54522 0.0
C368 C 0.70264 0.50098 0.55155 0.0
C369 C 0.7096 0.48774 0.5975 0.0
C370 C 0.73218 0.50307 0.63689 0.0
C371 C 0.79361 0.5915 0.93894 0.0
C372 C 0.7792 0.56713 0.97382 0.0
C373 C 0.79642 0.59035 0.87425 0.0
C374 C 0.78555 0.5648 0.84364 0.0
C375 C 0.77003 0.54047 0.87798 0.0
C376 C 0.76675 0.54162 0.94255 0.0
C377 C 0.79099 0.56352 0.77617 0.0
C378 C 0.76863 0.548 0.73594 0.0
C379 C 0.818 0.57826 0.75116 0.0
C380 C 0.84275 0.59281 0.79175 0.0
C381 C 0.8474 0.57875 0.84054 0.0
C382 C 0.87059 0.59259 0.87903 0.0
C383 C 0.88941 0.62046 0.86888 0.0
C384 C 0.88511 0.63453 0.82013 0.0
C385 C 0.86193 0.62079 0.78155 0.0
H386 H 0.90734 0.63114 0.89873 0.0
H387 H 0.68521 0.48907 0.52096 0.0
H388 H 0.23632 0.83122 0.18684 0.0
H389 H 0.2437 0.83428 0.07373 0.0
H390 H 0.18167 0.7484 0.05466 0.0
H391 H 0.17551 0.74493 0.16853 0.0
H392 H 0.22316 0.75819 0.98671 0.0
H393 H 0.17031 0.80342 0.016 0.0
H394 H 0.15926 0.83721 0.06139 0.0
H395 H 0.23527 0.90359 -0.00946 0.0
H396 H 0.24693 0.87016 0.94537 0.0
H397 H 0.17943 0.75475 0.67381 0.0
H398 H 0.18344 0.75653 0.78794 0.0
H399 H 0.26362 0.82944 0.77496 0.0
H400 H 0.26005 0.82752 0.66008 0.0
H401 H 0.21973 0.83005 0.85768 0.0
H402 H 0.26786 0.78062 0.81715 0.0
H403 H 0.27379 0.74414 0.76773 0.0
H404 H 0.19982 0.68222 0.8563 0.0
H405 H 0.19321 0.71833 0.90553 0.0
C406 C 0.2241 0.81311 0.15826 0.0
C407 C 0.20524 0.78788 0.18573 0.0
C408 C 0.22829 0.81488 0.09379 0.0
C409 C 0.21295 0.79167 0.05579 0.0
C410 C 0.19377 0.76653 0.08328 0.0
C411 C 0.19014 0.76457 0.148 0.0
C412 C 0.21724 0.79339 0.98744 0.0
C413 C 0.22218 0.77378 0.95851 0.0
C414 C 0.21664 0.81417 0.95093 0.0
C415 C 0.20963 0.8343 0.97791 0.0
C416 C 0.18476 0.82522 0.0105 0.0
C417 C 0.17837 0.84431 0.03612 0.0
C418 C 0.19659 0.87253 0.02902 0.0
C419 C 0.2212 0.88172 -0.0039 0.0
C420 C 0.2277 0.86272 0.97044 0.0
C421 C 0.19795 0.7711 0.69525 0.0
C422 C 0.2194 0.79109 0.65855 0.0
C423 C 0.20025 0.77198 0.76015 0.0
C424 C 0.22385 0.79302 0.78905 0.0
C425 C 0.24536 0.81303 0.7528 0.0
C426 C 0.2433 0.81187 0.68761 0.0
C427 C 0.22503 0.7946 0.85753 0.0
C428 C 0.22111 0.81479 0.88635 0.0
C429 C 0.22586 0.77398 0.89371 0.0
C430 C 0.22994 0.75221 0.86467 0.0
C431 C 0.25273 0.75923 0.8257 0.0
C432 C 0.25624 0.73861 0.7978 0.0
C433 C 0.23717 0.71088 0.80877 0.0
C434 C 0.21458 0.70371 0.84782 0.0
C435 C 0.21096 0.72424 0.87581 0.0
H436 H 0.23991 0.69495 0.78709 0.0
H437 H 0.19161 0.88728 0.04888 0.0
H438 H 0.32617 0.12096 0.50367 0.0
H439 H 0.2987 0.07146 0.48319 0.0
H440 H 0.33868 0.05556 0.63715 0.0
H441 H 0.36617 0.10482 0.65814 0.0
H442 H 0.34367 0.03449 0.52376 0.0
H443 H 0.27254 0.03544 0.64783 0.0
H444 H 0.24021 0.05122 0.67766 0.0
H445 H 0.2012 0.02705 0.4973 0.0
H446 H 0.23357 0.01147 0.46603 0.0
H447 H 0.27567 0.89101 0.53017 0.0
H448 H 0.29314 0.93912 0.55699 0.0
H449 H 0.24386 0.94568 0.40992 0.0
H450 H 0.22554 0.89697 0.38364 0.0
H451 H 0.24246 0.9721 0.5141 0.0
H452 H 0.31265 0.97125 0.38896 0.0
H453 H 0.34508 0.95601 0.35625 0.0
H454 H 0.38642 0.98134 0.53391 0.0
H455 H 0.35399 0.99638 0.56805 0.0
C456 C 0.32869 0.10691 0.53412 0.0
C457 C 0.34866 0.1169 0.58202 0.0
C458 C 0.31291 0.07863 0.5224 0.0
C459 C 0.31683 0.05996 0.55845 0.0
C460 C 0.33548 0.06972 0.60866 0.0
C461 C 0.35114 0.09791 0.6206 0.0
C462 C 0.30399 0.03071 0.53967 0.0
C463 C 0.32153 0.02073 0.52252 0.0
C464 C 0.27515 0.0132 0.53563 0.0
C465 C 0.25568 0.02257 0.55434 0.0
C466 C 0.25725 0.03374 0.61429 0.0
C467 C 0.23887 0.04259 0.63152 0.0
C468 C 0.21872 0.04022 0.58934 0.0
C469 C 0.21685 0.02892 0.52989 0.0
C470 C 0.23519 0.02005 0.51241 0.0
C471 C 0.26856 0.90263 0.50323 0.0
C472 C 0.24943 0.89023 0.45425 0.0
C473 C 0.27859 0.93017 0.51867 0.0
C474 C 0.27016 0.9461 0.48475 0.0
C475 C 0.25069 0.93374 0.43653 0.0
C476 C 0.24036 0.90598 0.4214 0.0
C477 C 0.28219 0.97576 0.49945 0.0
C478 C 0.26458 0.98588 0.51531 0.0
C479 C 0.31105 0.99361 0.50177 0.0
C480 C 0.33074 0.98474 0.48123 0.0
C481 C 0.32854 0.9734 0.42122 0.0
C482 C 0.34694 0.96482 0.4024 0.0
C483 C 0.36776 0.96765 0.44302 0.0
C484 C 0.37027 0.97913 0.50251 0.0
C485 C 0.3519 0.98772 0.52159 0.0
H486 H 0.38199 0.96099 0.42837 0.0
H487 H 0.20451 0.04707 0.60277 0.0
H488 H 0.32919 0.22548 0.55115 0.0
H489 H 0.29691 0.24094 0.58095 0.0
H490 H 0.36039 0.30642 0.69147 0.0
H491 H 0.3927 0.29126 0.66227 0.0
H492 H 0.31061 0.27685 0.75501 0.0
H493 H 0.34421 0.32039 0.55197 0.0
H494 H 0.35235 0.3202 0.43841 0.0
H495 H 0.26552 0.26813 0.40711 0.0
H496 H 0.25692 0.26773 0.52068 0.0
H497 H 0.27487 0.37855 0.80342 0.0
H498 H 0.2939 0.34894 0.77985 0.0
H499 H 0.22473 0.29931 0.65874 0.0
H500 H 0.20596 0.32952 0.68053 0.0
H501 H 0.2699 0.31232 0.60027 0.0
H502 H 0.23499 0.27398 0.8003 0.0
H503 H 0.22594 0.27344 0.91352 0.0
H504 H 0.3127 0.31323 0.95166 0.0
H505 H 0.32232 0.31438 0.8386 0.0
C506 C 0.33633 0.24328 0.58149 0.0
C507 C 0.36354 0.25716 0.60426 0.0
C508 C 0.31786 0.25204 0.59846 0.0
C509 C 0.32633 0.27475 0.63847 0.0
C510 C 0.35347 0.28874 0.66082 0.0
C511 C 0.37195 0.28013 0.64368 0.0
C512 C 0.30711 0.28424 0.65734 0.0
C513 C 0.30174 0.28474 0.72139 0.0
C514 C 0.29477 0.29345 0.61305 0.0
C515 C 0.29996 0.29375 0.54484 0.0
C516 C 0.32688 0.3087 0.52092 0.0
C517 C 0.33157 0.30874 0.45655 0.0
C518 C 0.30947 0.29409 0.41559 0.0
C519 C 0.28262 0.27943 0.4389 0.0
C520 C 0.27783 0.27929 0.50325 0.0
C521 C 0.26341 0.36106 0.77266 0.0
C522 C 0.23899 0.35649 0.74356 0.0
C523 C 0.27425 0.344 0.75947 0.0
C524 C 0.26061 0.3217 0.71797 0.0
C525 C 0.2356 0.3164 0.69089 0.0
C526 C 0.2249 0.33366 0.70347 0.0
C527 C 0.2739 0.30574 0.69847 0.0
C528 C 0.27819 0.30396 0.63417 0.0
C529 C 0.28504 0.29511 0.74261 0.0
C530 C 0.27937 0.2944 0.81081 0.0
C531 C 0.25216 0.28279 0.83276 0.0
C532 C 0.24693 0.28234 0.89695 0.0
C533 C 0.26873 0.29333 0.93975 0.0
C534 C 0.29582 0.30473 0.91845 0.0
C535 C 0.30117 0.30524 0.85431 0.0
H536 H 0.26464 0.29297 -0.01058 0.0
H537 H 0.31315 0.29415 0.36576 0.0
H538 H 0.88002 0.20012 0.79533 0.0
H539 H 0.92909 0.22284 0.76864 0.0
H540 H 0.94492 0.29093 0.88943 0.0
H541 H 0.89626 0.26843 0.91709 0.0
H542 H 0.96172 0.30402 0.75867 0.0
H543 H 0.9673 0.25279 0.93623 0.0
H544 H 0.95495 0.21036 -0.00475 0.0
H545 H 0.98191 0.18021 0.8416 0.0
H546 H 0.99406 0.22233 0.78127 0.0
H547 H 0.10124 0.39236 0.80369 0.0
H548 H 0.05244 0.35924 0.81391 0.0
H549 H 0.06266 0.3001 0.705 0.0
H550 H 0.11207 0.33327 0.69488 0.0
H551 H 0.03131 0.27714 0.81114 0.0
H552 H 0.03117 0.32998 0.63826 0.0
H553 H 0.04345 0.3718 0.57687 0.0
H554 H 0.00547 0.39765 0.71521 0.0
H555 H 0.99331 0.35618 0.77797 0.0
C556 C 0.89404 0.21969 0.81713 0.0
C557 C 0.88421 0.23258 0.85794 0.0
C558 C 0.92201 0.23257 0.80185 0.0
C559 C 0.9404 0.25856 0.8268 0.0
C560 C 0.93089 0.27088 0.86962 0.0
C561 C 0.90309 0.25792 0.8855 0.0
C562 C 0.96912 0.27418 0.80475 0.0
C563 C 0.97702 0.29827 0.77032 0.0
C564 C 0.98858 0.26585 0.81772 0.0
C565 C 0.98122 0.24053 0.85391 0.0
C566 C 0.9703 0.23698 0.91474 0.0
C567 C 0.96341 0.21302 0.94851 0.0
C568 C 0.96755 0.19255 0.9221 0.0
C569 C 0.97866 0.19605 0.86194 0.0
C570 C 0.98556 0.21996 0.82796 0.0
C571 C 0.09323 0.37239 0.78155 0.0
C572 C 0.11058 0.3655 0.7483 0.0
C573 C 0.06525 0.3535 0.78727 0.0
C574 C 0.05392 0.32737 0.75958 0.0
C575 C 0.07107 0.32025 0.72646 0.0
C576 C 0.09921 0.33925 0.72054 0.0
C577 C 0.02418 0.30763 0.76707 0.0
C578 C 0.01597 0.28268 0.7984 0.0
C579 C 0.00428 0.315 0.75066 0.0
C580 C 0.01146 0.34 0.71303 0.0
C581 C 0.0256 0.34467 0.65585 0.0
C582 C 0.03252 0.36831 0.62076 0.0
C583 C 0.02528 0.38739 0.64217 0.0
C584 C 0.01106 0.38285 0.69868 0.0
C585 C 0.00411 0.35925 0.73399 0.0
H586 H 0.03065 0.40568 0.61493 0.0
H587 H 0.96222 0.17402 0.94833 0.0
H588 H 0.63126 0.90633 0.15342 0.0
H589 H 0.65856 0.95329 0.11364 0.0
H590 H 0.70255 0.92734 -0.00857 0.0
H591 H 0.67535 0.88032 0.03048 0.0
H592 H 0.71398 0.99366 0.09869 0.0
H593 H 0.70175 0.95313 0.8459 0.0
H594 H 0.67209 0.91055 0.78629 0.0
H595 H 0.60532 0.89059 0.91325 0.0
H596 H 0.63442 0.93324 0.97293 0.0
H597 H 0.78495 0.10668 0.88822 0.0
H598 H 0.76831 0.05984 0.92756 0.0
H599 H 0.68451 0.04278 0.91305 0.0
H600 H 0.70097 0.08974 0.8755 0.0
H601 H 0.69507 0.99816 0.87269 0.0
H602 H 0.70766 0.06056 0.04302 0.0
H603 H 0.73456 0.10319 0.10436 0.0
H604 H 0.79464 0.07942 0.14663 0.0
H605 H 0.76835 0.03686 0.08439 0.0
C606 C 0.6472 0.9107 0.11923 0.0
C607 C 0.65073 0.88945 0.09422 0.0
C608 C 0.66285 0.93759 0.09673 0.0
C609 C 0.68215 0.94357 0.04887 0.0
C610 C 0.68746 0.92298 0.02786 0.0
C611 C 0.67187 0.89611 0.05031 0.0
C612 C 0.69403 0.97019 0.01561 0.0
C613 C 0.71011 0.99466 0.04919 0.0
C614 C 0.68844 0.9714 0.95125 0.0
C615 C 0.6704 0.94621 0.91429 0.0
C616 C 0.68069 0.93972 0.86086 0.0
C617 C 0.66398 0.91557 0.8271 0.0
C618 C 0.63689 0.8978 0.84619 0.0
C619 C 0.62635 0.9043 0.8987 0.0
C620 C 0.64294 0.92845 0.9325 0.0
C621 C 0.76296 0.0927 0.89202 0.0
C622 C 0.74419 0.10175 0.87916 0.0
C623 C 0.75354 0.06607 0.91465 0.0
C624 C 0.72526 0.04809 0.92335 0.0
C625 C 0.70641 0.05646 0.90644 0.0
C626 C 0.71582 0.08323 0.88522 0.0
C627 C 0.71534 0.02152 0.95555 0.0
C628 C 0.69944 0.9971 0.92186 0.0
C629 C 0.72064 0.02038 0.02001 0.0
C630 C 0.73626 0.04574 0.05824 0.0
C631 C 0.72677 0.06457 0.06478 0.0
C632 C 0.74189 0.08871 0.09973 0.0
C633 C 0.7664 0.09411 0.12896 0.0
C634 C 0.77573 0.07528 0.12366 0.0
C635 C 0.76073 0.05114 0.08854 0.0
H636 H 0.77805 0.11279 0.15608 0.0
H637 H 0.62404 0.87903 0.82026 0.0
H638 H 0.73106 0.62249 0.2847 0.0
H639 H 0.70805 0.64894 0.26617 0.0
H640 H 0.76382 0.69191 0.11416 0.0
H641 H 0.7871 0.66533 0.132 0.0
H642 H 0.75062 0.72584 0.19544 0.0
H643 H 0.70626 0.64224 0.07365 0.0
H644 H 0.68471 0.59207 0.05798 0.0
H645 H 0.62198 0.57832 0.19196 0.0
H646 H 0.64342 0.62843 0.20915 0.0
H647 H 0.66488 0.77313 0.06106 0.0
H648 H 0.69447 0.75309 0.07619 0.0
H649 H 0.63623 0.695 0.20846 0.0
H650 H 0.60635 0.71447 0.19286 0.0
H651 H 0.65277 0.66981 0.13025 0.0
H652 H 0.69657 0.75168 0.25646 0.0
H653 H 0.71806 0.80142 0.27831 0.0
H654 H 0.78122 0.81829 0.14298 0.0
H655 H 0.75987 0.76863 0.11969 0.0
C656 C 0.73879 0.63782 0.24785 0.0
C657 C 0.76077 0.64156 0.20936 0.0
C658 C 0.72555 0.65289 0.23734 0.0
C659 C 0.73405 0.67207 0.18836 0.0
C660 C 0.75696 0.6771 0.15211 0.0
C661 C 0.77016 0.66185 0.1623 0.0
C662 C 0.71762 0.68521 0.17255 0.0
C663 C 0.72936 0.71375 0.18019 0.0
C664 C 0.68975 0.66922 0.15395 0.0
C665 C 0.67659 0.63908 0.14307 0.0
C666 C 0.68799 0.62851 0.10011 0.0
C667 C 0.67577 0.60009 0.0909 0.0
C668 C 0.65202 0.58201 0.12405 0.0
C669 C 0.64039 0.59234 0.16635 0.0
C670 C 0.65255 0.62076 0.1758 0.0
C671 C 0.65834 0.75606 0.09335 0.0
C672 C 0.63321 0.74542 0.12577 0.0
C673 C 0.67537 0.74474 0.10215 0.0
C674 C 0.6677 0.72274 0.14395 0.0
C675 C 0.64256 0.71197 0.17595 0.0
C676 C 0.6255 0.72316 0.16702 0.0
C677 C 0.68556 0.71055 0.15393 0.0
C678 C 0.67408 0.68207 0.14505 0.0
C679 C 0.71357 0.72661 0.17194 0.0
C680 C 0.72644 0.75647 0.18581 0.0
C681 C 0.7149 0.76602 0.23096 0.0
C682 C 0.72709 0.79419 0.24369 0.0
C683 C 0.75095 0.81301 0.21191 0.0
C684 C 0.76271 0.80369 0.16747 0.0
C685 C 0.75059 0.77553 0.15451 0.0
H686 H 0.76036 0.83482 0.22184 0.0
H687 H 0.6426 0.56001 0.11688 0.0
H688 H 0.89866 0.60678 0.28233 0.0
H689 H 0.94493 0.64149 0.31365 0.0
H690 H 0.93852 0.70249 0.20349 0.0
H691 H 0.89165 0.6677 0.17175 0.0
H692 H 0.99128 0.70286 0.19565 0.0
H693 H 0.92981 0.70579 0.34761 0.0
H694 H 0.89049 0.68513 0.42061 0.0
H695 H 0.93057 0.65077 0.52897 0.0
H696 H 0.96995 0.67083 0.45602 0.0
H697 H 0.11701 0.79909 0.33954 0.0
H698 H 0.0692 0.77952 0.30522 0.0
H699 H 0.04548 0.70928 0.4254 0.0
H700 H 0.09285 0.72905 0.4614 0.0
H701 H 0.00628 0.72161 0.42406 0.0
H702 H 0.06206 0.7099 0.26666 0.0
H703 H 0.10107 0.72663 0.19299 0.0
H704 H 0.07173 0.77384 0.09496 0.0
H705 H 0.03272 0.75764 0.16864 0.0
C706 C 0.90703 0.62746 0.26401 0.0
C707 C 0.89126 0.63448 0.22491 0.0
C708 C 0.93351 0.64729 0.28218 0.0
C709 C 0.94488 0.67456 0.26163 0.0
C710 C 0.92993 0.68151 0.22005 0.0
C711 C 0.9032 0.66162 0.20202 0.0
C712 C 0.972 0.69568 0.28619 0.0
C713 C 0.99456 0.70757 0.24533 0.0
C714 C 0.97616 0.70128 0.35119 0.0
C715 C 0.95279 0.68971 0.39609 0.0
C716 C 0.93018 0.6937 0.3868 0.0
C717 C 0.90788 0.6821 0.4282 0.0
C718 C 0.90801 0.66661 0.47934 0.0
C719 C 0.93049 0.66277 0.48933 0.0
C720 C 0.95284 0.67429 0.44801 0.0
C721 C 0.10151 0.77973 0.35956 0.0
C722 C 0.10882 0.76546 0.40263 0.0
C723 C 0.07421 0.76852 0.33966 0.0
C724 C 0.05387 0.74263 0.36162 0.0
C725 C 0.06082 0.72923 0.40758 0.0
C726 C 0.088 0.74057 0.42806 0.0
C727 C 0.02583 0.72828 0.3338 0.0
C728 C 0.00303 0.71757 0.37413 0.0
C729 C 0.02151 0.72344 0.2684 0.0
C730 C 0.04469 0.73283 0.22355 0.0
C731 C 0.06402 0.72397 0.22959 0.0
C732 C 0.08612 0.73334 0.18784 0.0
C733 C 0.08893 0.75136 0.13945 0.0
C734 C 0.06956 0.75993 0.13256 0.0
C735 C 0.04746 0.75066 0.17428 0.0
H736 H 0.10606 0.75862 0.10722 0.0
H737 H 0.8907 0.6576 0.51126 0.0
H738 H 0.53013 0.28996 0.45906 0.0
H739 H 0.56851 0.33259 0.42 0.0
H740 H 0.54392 0.37946 0.53665 0.0
H741 H 0.50477 0.33652 0.57549 0.0
H742 H 0.55523 0.40036 0.42241 0.0
H743 H 0.60222 0.37698 0.57128 0.0
H744 H 0.61759 0.34926 0.6302 0.0
H745 H 0.65191 0.33656 0.46221 0.0
H746 H 0.63647 0.36394 0.40201 0.0
H747 H 0.68731 0.52233 0.35384 0.0
H748 H 0.64771 0.48477 0.40729 0.0
H749 H 0.64758 0.42664 0.27465 0.0
H750 H 0.68692 0.46405 0.22027 0.0
H751 H 0.65014 0.41544 0.40897 0.0
H752 H 0.59892 0.43901 0.26171 0.0
H753 H 0.58676 0.47125 0.21215 0.0
H754 H 0.56317 0.48784 0.39122 0.0
H755 H 0.57559 0.45599 0.44199 0.0
C756 C 0.53288 0.30926 0.47695 0.0
C757 C 0.51427 0.30976 0.52042 0.0
C758 C 0.55502 0.33369 0.45478 0.0
C759 C 0.55932 0.35926 0.47591 0.0
C760 C 0.54102 0.35994 0.51983 0.0
C761 C 0.51872 0.33539 0.54211 0.0
C762 C 0.5822 0.38502 0.44929 0.0
C763 C 0.57609 0.40389 0.42054 0.0
C764 C 0.60944 0.38967 0.44659 0.0
C765 C 0.61802 0.3724 0.48203 0.0
C766 C 0.61279 0.36805 0.54672 0.0
C767 C 0.62161 0.35248 0.58041 0.0
C768 C 0.63578 0.34124 0.54999 0.0
C769 C 0.64099 0.34536 0.48572 0.0
C770 C 0.63224 0.36093 0.45181 0.0
C771 C 0.67855 0.50163 0.33532 0.0
C772 C 0.69028 0.49615 0.2828 0.0
C773 C 0.65595 0.48024 0.36594 0.0
C774 C 0.64488 0.45304 0.34488 0.0
C775 C 0.65595 0.44758 0.29147 0.0
C776 C 0.6783 0.46899 0.26028 0.0
C777 C 0.62285 0.43001 0.38067 0.0
C778 C 0.62927 0.41185 0.41137 0.0
C779 C 0.59615 0.42641 0.38637 0.0
C780 C 0.58847 0.44536 0.35573 0.0
C781 C 0.59138 0.44973 0.2906 0.0
C782 C 0.58439 0.46789 0.26227 0.0
C783 C 0.57428 0.48165 0.29854 0.0
C784 C 0.57105 0.47721 0.36319 0.0
C785 C 0.57804 0.45909 0.39176 0.0
H786 H 0.56889 0.49571 0.27652 0.0
H787 H 0.64277 0.32938 0.57628 0.0
H788 H 0.241 0.54574 0.69276 0.0
H789 H 0.23157 0.57999 0.64638 0.0
H790 H 0.14449 0.52055 0.64586 0.0
H791 H 0.15385 0.48684 0.69598 0.0
H792 H 0.21345 0.58236 0.54114 0.0
H793 H 0.10626 0.55146 0.6447 0.0
H794 H 0.07971 0.53179 0.74186 0.0
H795 H 0.15491 0.56207 0.84626 0.0
H796 H 0.18188 0.58218 0.74991 0.0
H797 H 0.17476 0.66798 0.38149 0.0
H798 H 0.17124 0.6256 0.42355 0.0
H799 H 0.17326 0.65497 0.61187 0.0
H800 H 0.17468 0.6959 0.57033 0.0
H801 H 0.14303 0.6045 0.61582 0.0
H802 H 0.23308 0.66292 0.52578 0.0
H803 H 0.26583 0.68905 0.4412 0.0
H804 H 0.23608 0.61486 0.333 0.0
H805 H 0.20293 0.58836 0.41671 0.0
C806 C 0.21982 0.54021 0.68379 0.0
C807 C 0.19813 0.51379 0.69836 0.0
C808 C 0.21444 0.5597 0.65684 0.0
C809 C 0.1873 0.55297 0.6426 0.0
C810 C 0.16556 0.52653 0.65753 0.0
C811 C 0.1709 0.50725 0.68613 0.0
C812 C 0.18209 0.57346 0.61042 0.0
C813 C 0.19804 0.58718 0.55763 0.0
C814 C 0.16208 0.57993 0.63171 0.0
C815 C 0.14605 0.568 0.68995 0.0
C816 C 0.11711 0.55395 0.68843 0.0
C817 C 0.10199 0.54273 0.74334 0.0
C818 C 0.11562 0.54558 0.80014 0.0
C819 C 0.14438 0.55976 0.80219 0.0
C820 C 0.15959 0.57104 0.74743 0.0
C821 C 0.17388 0.665 0.43178 0.0
C822 C 0.1751 0.68525 0.47259 0.0
C823 C 0.17208 0.64091 0.45585 0.0
C824 C 0.17265 0.63729 0.52105 0.0
C825 C 0.1727 0.65708 0.56148 0.0
C826 C 0.17361 0.68061 0.53756 0.0
C827 C 0.17511 0.61414 0.54802 0.0
C828 C 0.15837 0.59959 0.59923 0.0
C829 C 0.19538 0.60789 0.52731 0.0
C830 C 0.21534 0.62374 0.4771 0.0
C831 C 0.23344 0.65223 0.48377 0.0
C832 C 0.25207 0.66709 0.43602 0.0
C833 C 0.25297 0.65363 0.38167 0.0
C834 C 0.23531 0.62526 0.37505 0.0
C835 C 0.2166 0.61031 0.42262 0.0
H836 H 0.26741 0.66518 0.34476 0.0
H837 H 0.10388 0.53687 0.84259 0.0
H838 H 0.6635 0.16796 0.87548 0.0
H839 H 0.61992 0.16044 0.83112 0.0
H840 H 0.66322 0.20807 0.66823 0.0
H841 H 0.70662 0.21646 0.71297 0.0
H842 H 0.62914 0.22299 0.70435 0.0
H843 H 0.62303 0.13572 0.66722 0.0
H844 H 0.62344 0.09324 0.69516 0.0
H845 H 0.55465 0.06963 0.81827 0.0
H846 H 0.55406 0.11217 0.79169 0.0
H847 H 0.51577 0.19403 0.51968 0.0
H848 H 0.55449 0.18837 0.55161 0.0
H849 H 0.51432 0.15362 0.72761 0.0
H850 H 0.4753 0.1587 0.69589 0.0
H851 H 0.54592 0.13055 0.68223 0.0
H852 H 0.55602 0.2209 0.72362 0.0
H853 H 0.55425 0.26194 0.6886 0.0
H854 H 0.61569 0.27804 0.54908 0.0
H855 H 0.61777 0.23709 0.58335 0.0
C856 C 0.66366 0.17684 0.83029 0.0
C857 C 0.6885 0.19293 0.79794 0.0
C858 C 0.63875 0.17236 0.80476 0.0
C859 C 0.63825 0.18342 0.74595 0.0
C860 C 0.66306 0.19939 0.71371 0.0
C861 C 0.6879 0.20419 0.73948 0.0
C862 C 0.61216 0.17931 0.71843 0.0
C863 C 0.61115 0.20269 0.69882 0.0
C864 C 0.58843 0.1529 0.71197 0.0
C865 C 0.58869 0.12727 0.72794 0.0
C866 C 0.60813 0.12158 0.70062 0.0
C867 C 0.60837 0.09747 0.71615 0.0
C868 C 0.58913 0.07879 0.75859 0.0
C869 C 0.56956 0.08414 0.78547 0.0
C870 C 0.56925 0.10824 0.77015 0.0
C871 C 0.51481 0.18453 0.56452 0.0
C872 C 0.49272 0.17739 0.60581 0.0
C873 C 0.53694 0.18129 0.58262 0.0
C874 C 0.53742 0.1711 0.64242 0.0
C875 C 0.51434 0.16162 0.68137 0.0
C876 C 0.49213 0.16472 0.66323 0.0
C877 C 0.5633 0.17412 0.66788 0.0
C878 C 0.56414 0.1507 0.68753 0.0
C879 C 0.58704 0.20043 0.67394 0.0
C880 C 0.58696 0.22592 0.65582 0.0
C881 C 0.5692 0.23327 0.68562 0.0
C882 C 0.56814 0.25651 0.66591 0.0
C883 C 0.58484 0.2726 0.61665 0.0
C884 C 0.60283 0.26564 0.58738 0.0
C885 C 0.60402 0.24246 0.60704 0.0
H886 H 0.5838 0.29043 0.60112 0.0
H887 H 0.58934 0.06014 0.77055 0.0
H888 H 0.48722 0.71198 0.95743 0.0
H889 H 0.45059 0.66879 0.91602 0.0
H890 H 0.4511 0.627 0.0853 0.0
H891 H 0.4887 0.67059 0.12723 0.0
H892 H 0.44582 0.5965 0.97997 0.0
H893 H 0.40128 0.64304 0.06375 0.0
H894 H 0.3937 0.68222 0.08139 0.0
H895 H 0.37899 0.68499 0.88468 0.0
H896 H 0.38688 0.64607 0.86568 0.0
H897 H 0.31266 0.48116 0.90233 0.0
H898 H 0.35301 0.51931 0.95181 0.0
H899 H 0.36223 0.57143 0.79425 0.0
H900 H 0.32169 0.53352 0.74462 0.0
H901 H 0.36119 0.59464 0.90431 0.0
H902 H 0.40787 0.54905 0.82084 0.0
H903 H 0.4154 0.50977 0.80432 0.0
H904 H 0.42509 0.5045 0.00264 0.0
H905 H 0.41724 0.54353 0.02043 0.0
C906 C 0.47962 0.69371 0.98626 0.0
C907 C 0.49068 0.69485 0.04614 0.0
C908 C 0.4586 0.66898 0.96238 0.0
C909 C 0.44773 0.6448 -0.00195 0.0
C910 C 0.45912 0.64552 0.05721 0.0
C911 C 0.48049 0.67041 0.08114 0.0
C912 C 0.42418 0.61911 0.973 0.0
C913 C 0.42708 0.59586 0.96442 0.0
C914 C 0.39992 0.61848 0.95194 0.0
C915 C 0.39485 0.64173 0.96326 0.0
C916 C 0.3966 0.65211 0.02419 0.0
C917 C 0.39222 0.67426 0.03444 0.0
C918 C 0.38591 0.68612 0.98418 0.0
C919 C 0.38389 0.67579 0.92357 0.0
C920 C 0.38827 0.65366 0.91304 0.0
C921 C 0.32351 0.50058 0.87761 0.0
C922 C 0.31378 0.50431 0.81964 0.0
C923 C 0.34665 0.52236 0.90595 0.0
C924 C 0.36061 0.5482 0.87672 0.0
C925 C 0.35167 0.55165 0.81768 0.0
C926 C 0.32855 0.52991 0.78929 0.0
C927 C 0.38308 0.57225 0.90967 0.0
C928 C 0.37985 0.59517 0.92012 0.0
C929 C 0.40686 0.57243 0.93268 0.0
C930 C 0.41168 0.54903 0.92201 0.0
C931 C 0.41137 0.53937 0.86097 0.0
C932 C 0.41574 0.51718 0.85137 0.0
C933 C 0.42064 0.50459 0.90241 0.0
C934 C 0.42125 0.51423 0.96315 0.0
C935 C 0.41687 0.53641 0.97302 0.0
H936 H 0.42402 0.48742 0.89487 0.0
H937 H 0.38255 0.70328 -0.00779 0.0
H938 H 0.7688 0.4728 0.07362 0.0
H939 H 0.7745 0.43581 0.03101 0.0
H940 H 0.83716 0.45212 0.16897 0.0
H941 H 0.83203 0.49006 0.21157 0.0
H942 H 0.85175 0.44245 0.05526 0.0
H943 H 0.77276 0.39694 0.18574 0.0
H944 H 0.72764 0.38585 0.22921 0.0
H945 H 0.69019 0.35758 0.04846 0.0
H946 H 0.73518 0.36888 0.00364 0.0
H947 H 0.83855 0.30911 -0.00288 0.0
H948 H 0.84111 0.35027 0.04342 0.0
H949 H 0.78536 0.34887 0.9022 0.0
H950 H 0.7828 0.30783 0.85522 0.0
H951 H 0.76897 0.35023 0.02632 0.0
H952 H 0.84997 0.39781 0.89687 0.0
H953 H 0.89548 0.4083 0.85713 0.0
H954 H 0.92941 0.43113 0.0425 0.0
H955 H 0.88397 0.42039 0.08353 0.0
C956 C 0.78377 0.46858 0.09536 0.0
C957 C 0.79977 0.48428 0.14658 0.0
C958 C 0.78695 0.44731 0.07088 0.0
C959 C 0.80587 0.44083 0.0975 0.0
C960 C 0.82231 0.45669 0.14794 0.0
C961 C 0.81929 0.47828 0.17235 0.0
C962 C 0.80814 0.41739 0.07201 0.0
C963 C 0.83375 0.42214 0.04994 0.0
C964 C 0.78459 0.39096 0.06442 0.0
C965 C 0.75741 0.38396 0.09123 0.0
C966 C 0.75495 0.38854 0.15515 0.0
C967 C 0.72938 0.38219 0.18005 0.0
C968 C 0.70607 0.37107 0.1416 0.0
C969 C 0.70827 0.36621 0.07818 0.0
C970 C 0.73379 0.37255 0.05302 0.0
C971 C 0.82718 0.31781 0.97524 0.0
C972 C 0.81036 0.3051 0.9226 0.0
C973 C 0.82873 0.34137 0.00172 0.0
C974 C 0.81338 0.35254 0.97627 0.0
C975 C 0.79734 0.3405 0.92251 0.0
C976 C 0.79601 0.31713 0.89557 0.0
C977 C 0.81239 0.37548 0.00831 0.0
C978 C 0.78699 0.37051 0.03196 0.0
C979 C 0.83617 0.4015 0.01802 0.0
C980 C 0.86349 0.40799 -0.00661 0.0
C981 C 0.86707 0.40481 0.92928 0.0
C982 C 0.89287 0.41086 0.90649 0.0
C983 C 0.91531 0.4203 0.94729 0.0
C984 C 0.912 0.42378 0.01096 0.0
C985 C 0.88624 0.41773 0.034 0.0
H986 H 0.93527 0.42498 0.92956 0.0
H987 H 0.6863 0.36617 0.16096 0.0
H988 H 0.52111 0.8446 0.23262 0.0
H989 H 0.48127 0.8462 0.27363 0.0
H990 H 0.43051 0.79119 0.12678 0.0
H991 H 0.47032 0.78996 0.08458 0.0
H992 H 0.41631 0.82912 0.14893 0.0
H993 H 0.43274 0.76721 0.2733 0.0
H994 H 0.46047 0.75395 0.33887 0.0
H995 H 0.47199 0.81538 0.47479 0.0
H996 H 0.44463 0.82928 0.40952 0.0
H997 H 0.28403 0.76725 0.28367 0.0
H998 H 0.32804 0.77553 0.24244 0.0
H999 H 0.37085 0.83526 0.38838 0.0
H1000 H 0.32671 0.82708 0.43043 0.0
H1001 H 0.39092 0.79919 0.36967 0.0
H1002 H 0.36988 0.8577 0.24576 0.0
H1003 H 0.34046 0.86838 0.17925 0.0
H1004 H 0.33577 0.81039 0.04118 0.0
H1005 H 0.36485 0.79906 0.10732 0.0
C1006 C 0.50157 0.83315 0.20844 0.0
C1007 C 0.49887 0.81692 0.15565 0.0
C1008 C 0.47878 0.834 0.23215 0.0
C1009 C 0.45279 0.81836 0.20405 0.0
C1010 C 0.45035 0.80334 0.1494 0.0
C1011 C 0.47316 0.80263 0.12537 0.0
C1012 C 0.42784 0.81634 0.23338 0.0
C1013 C 0.41067 0.82241 0.19705 0.0
C1014 C 0.4207 0.80801 0.29656 0.0
C1015 C 0.43691 0.7995 0.3362 0.0
C1016 C 0.44135 0.77802 0.31696 0.0
C1017 C 0.45698 0.77037 0.35409 0.0
C1018 C 0.46806 0.78387 0.41086 0.0
C1019 C 0.46344 0.80498 0.43074 0.0
C1020 C 0.44786 0.81274 0.39372 0.0
C1021 C 0.30274 0.78209 0.30734 0.0
C1022 C 0.3018 0.79659 0.36032 0.0
C1023 C 0.32791 0.78689 0.28344 0.0
C1024 C 0.35269 0.80628 0.31184 0.0
C1025 C 0.35191 0.82031 0.36563 0.0
C1026 C 0.32668 0.81562 0.3895 0.0
C1027 C 0.37934 0.81175 0.28504 0.0
C1028 C 0.39676 0.80624 0.32181 0.0
C1029 C 0.38655 0.82031 0.22209 0.0
C1030 C 0.36938 0.82738 0.18176 0.0
C1031 C 0.36243 0.84709 0.20141 0.0
C1032 C 0.34583 0.85328 0.16374 0.0
C1033 C 0.3362 0.84003 0.10609 0.0
C1034 C 0.34323 0.82063 0.08588 0.0
C1035 C 0.3598 0.81434 0.1234 0.0
H1036 H 0.32332 0.84483 0.07703 0.0
H1037 H 0.48018 0.77793 0.43952 0.0
loop_
_geom_bond_atom_site_label_1
_geom_bond_atom_site_label_2
_geom_bond_distance
_geom_bond_site_symmetry_2
_ccdc_geom_bond_type
O0 Zn1 1.953 . S
O0 C16 1.225 . S
Zn1 O0 1.953 . S
Zn1 O2 1.949 . S
Zn1 O8 1.919 . S
Zn1 O13 1.924 . S
O2 Zn1 1.949 . S
O2 Zn3 1.923 . S
O2 Zn4 1.950 . S
O2 Zn5 1.945 . S
Zn3 O2 1.923 . S
Zn3 O6 1.933 . S
Zn3 O9 1.941 . S
Zn3 O10 1.965 . S
Zn4 O2 1.950 . S
Zn4 O11 1.938 . S
Zn4 O12 1.906 . S
Zn4 O22 1.953 . S
Zn5 O2 1.945 . S
Zn5 O7 1.932 . S
Zn5 O14 1.977 . S
Zn5 O15 1.910 . S
O6 Zn3 1.933 . S
O6 C17 1.226 . S
O7 Zn5 1.932 . S
O7 C17 1.307 . S
O8 Zn1 1.919 . S
O8 C19 1.253 . S
O9 Zn3 1.941 . S
O9 C19 1.283 . S
O10 Zn3 1.965 . S
O10 C18 1.303 . S
O11 Zn4 1.938 . S
O11 C18 1.247 . S
O12 Zn4 1.906 . S
O12 C20 1.304 . S
O13 Zn1 1.924 . S
O13 C21 1.311 . S
O14 Zn5 1.977 . S
O14 C20 1.272 . S
O15 Zn5 1.910 . S
O15 C21 1.231 . S
C16 O0 1.225 . S
C16 O22 1.298 . S
C17 O6 1.226 . S
C17 O7 1.307 . S
C18 O10 1.303 . S
C18 O11 1.247 . S
C19 O8 1.253 . S
C19 O9 1.283 . S
C20 O12 1.304 . S
C20 O14 1.272 . S
C21 O13 1.311 . S
C21 O15 1.231 . S
O22 Zn4 1.953 . S
O22 C16 1.298 . S
O23 Zn24 1.953 . S
O23 C39 1.225 . S
Zn24 O23 1.953 . S
Zn24 O25 1.949 . S
Zn24 O31 1.919 . S
Zn24 O36 1.924 . S
O25 Zn24 1.949 . S
O25 Zn26 1.923 . S
O25 Zn27 1.950 . S
O25 Zn28 1.945 . S
Zn26 O25 1.923 . S
Zn26 O29 1.933 . S
Zn26 O32 1.941 . S
Zn26 O33 1.965 . S
Zn27 O25 1.950 . S
Zn27 O34 1.938 . S
Zn27 O35 1.906 . S
Zn27 O45 1.953 . S
Zn28 O25 1.945 . S
Zn28 O30 1.932 . S
Zn28 O37 1.977 . S
Zn28 O38 1.910 . S
O29 Zn26 1.933 . S
O29 C40 1.226 . S
O30 Zn28 1.932 . S
O30 C40 1.307 . S
O31 Zn24 1.919 . S
O31 C42 1.253 . S
O32 Zn26 1.941 . S
O32 C42 1.283 . S
O33 Zn26 1.965 . S
O33 C41 1.303 . S
O34 Zn27 1.938 . S
O34 C41 1.247 . S
O35 Zn27 1.906 . S
O35 C43 1.304 . S
O36 Zn24 1.924 . S
O36 C44 1.311 . S
O37 Zn28 1.977 . S
O37 C43 1.272 . S
O38 Zn28 1.910 . S
O38 C44 1.231 . S
C39 O23 1.225 . S
C39 O45 1.298 . S
C40 O29 1.226 . S
C40 O30 1.307 . S
C41 O33 1.303 . S
C41 O34 1.247 . S
C42 O31 1.253 . S
C42 O32 1.283 . S
C43 O35 1.304 . S
C43 O37 1.272 . S
C44 O36 1.311 . S
C44 O38 1.231 . S
O45 Zn27 1.953 . S
O45 C39 1.298 . S
O46 Zn47 1.953 1_554 S
O46 C62 1.225 . S
Zn47 O46 1.953 1_556 S
Zn47 O48 1.949 . S
Zn47 O54 1.919 . S
Zn47 O59 1.924 . S
O48 Zn47 1.949 . S
O48 Zn49 1.923 . S
O48 Zn50 1.950 . S
O48 Zn51 1.945 . S
Zn49 O48 1.923 . S
Zn49 O52 1.933 . S
Zn49 O55 1.941 . S
Zn49 O56 1.965 . S
Zn50 O48 1.950 . S
Zn50 O57 1.938 . S
Zn50 O58 1.906 . S
Zn50 O68 1.953 1_556 S
Zn51 O48 1.945 . S
Zn51 O53 1.932 . S
Zn51 O60 1.977 . S
Zn51 O61 1.910 . S
O52 Zn49 1.933 . S
O52 C63 1.226 . S
O53 Zn51 1.932 . S
O53 C63 1.307 . S
O54 Zn47 1.919 . S
O54 C65 1.253 . S
O55 Zn49 1.941 . S
O55 C65 1.283 . S
O56 Zn49 1.965 . S
O56 C64 1.303 . S
O57 Zn50 1.938 . S
O57 C64 1.247 . S
O58 Zn50 1.906 . S
O58 C66 1.304 . S
O59 Zn47 1.924 . S
O59 C67 1.311 . S
O60 Zn51 1.977 . S
O60 C66 1.272 . S
O61 Zn51 1.910 . S
O61 C67 1.231 . S
C62 O46 1.225 . S
C62 O68 1.298 . S
C63 O52 1.226 . S
C63 O53 1.307 . S
C64 O56 1.303 . S
C64 O57 1.247 . S
C65 O54 1.253 . S
C65 O55 1.283 . S
C66 O58 1.304 . S
C66 O60 1.272 . S
C67 O59 1.311 . S
C67 O61 1.231 . S
O68 Zn50 1.953 1_554 S
O68 C62 1.298 . S
O69 Zn70 1.953 . S
O69 C85 1.225 . S
Zn70 O69 1.953 . S
Zn70 O71 1.949 . S
Zn70 O77 1.919 . S
Zn70 O82 1.924 . S
O71 Zn70 1.949 . S
O71 Zn72 1.923 . S
O71 Zn73 1.950 . S
O71 Zn74 1.945 . S
Zn72 O71 1.923 . S
Zn72 O75 1.933 1_554 S
Zn72 O78 1.941 . S
Zn72 O79 1.965 . S
Zn73 O71 1.950 . S
Zn73 O80 1.938 . S
Zn73 O81 1.906 . S
Zn73 O91 1.953 . S
Zn74 O71 1.945 . S
Zn74 O76 1.932 1_554 S
Zn74 O83 1.977 . S
Zn74 O84 1.910 . S
O75 Zn72 1.933 1_556 S
O75 C86 1.226 . S
O76 Zn74 1.932 1_556 S
O76 C86 1.307 . S
O77 Zn70 1.919 . S
O77 C88 1.253 . S
O78 Zn72 1.941 . S
O78 C88 1.283 . S
O79 Zn72 1.965 . S
O79 C87 1.303 . S
O80 Zn73 1.938 . S
O80 C87 1.247 . S
O81 Zn73 1.906 . S
O81 C89 1.304 . S
O82 Zn70 1.924 . S
O82 C90 1.311 . S
O83 Zn74 1.977 . S
O83 C89 1.272 . S
O84 Zn74 1.910 . S
O84 C90 1.231 . S
C85 O69 1.225 . S
C85 O91 1.298 . S
C86 O75 1.226 . S
C86 O76 1.307 . S
C87 O79 1.303 . S
C87 O80 1.247 . S
C88 O77 1.253 . S
C88 O78 1.283 . S
C89 O81 1.304 . S
C89 O83 1.272 . S
C90 O82 1.311 . S
C90 O84 1.231 . S
O91 Zn73 1.953 . S
O91 C85 1.298 . S
O92 Zn93 1.953 . S
O92 C108 1.225 . S
Zn93 O92 1.953 . S
Zn93 O94 1.949 . S
Zn93 O100 1.919 . S
Zn93 O105 1.924 . S
O94 Zn93 1.949 . S
O94 Zn95 1.923 . S
O94 Zn96 1.950 . S
O94 Zn97 1.945 . S
Zn95 O94 1.923 . S
Zn95 O98 1.933 . S
Zn95 O101 1.941 . S
Zn95 O102 1.965 . S
Zn96 O94 1.950 . S
Zn96 O103 1.938 . S
Zn96 O104 1.906 . S
Zn96 O114 1.953 . S
Zn97 O94 1.945 . S
Zn97 O99 1.932 . S
Zn97 O106 1.977 . S
Zn97 O107 1.910 . S
O98 Zn95 1.933 . S
O98 C109 1.226 . S
O99 Zn97 1.932 . S
O99 C109 1.307 . S
O100 Zn93 1.919 . S
O100 C111 1.253 . S
O101 Zn95 1.941 . S
O101 C111 1.283 . S
O102 Zn95 1.965 . S
O102 C110 1.303 . S
O103 Zn96 1.938 . S
O103 C110 1.247 . S
O104 Zn96 1.906 . S
O104 C112 1.304 . S
O105 Zn93 1.924 . S
O105 C113 1.311 . S
O106 Zn97 1.977 . S
O106 C112 1.272 . S
O107 Zn97 1.910 . S
O107 C113 1.231 . S
C108 O92 1.225 . S
C108 O114 1.298 . S
C109 O98 1.226 . S
C109 O99 1.307 . S
C110 O102 1.303 . S
C110 O103 1.247 . S
C111 O100 1.253 . S
C111 O101 1.283 . S
C112 O104 1.304 . S
C112 O106 1.272 . S
C113 O105 1.311 . S
C113 O107 1.231 . S
O114 Zn96 1.953 . S
O114 C108 1.298 . S
O115 Zn116 1.953 . S
O115 C131 1.225 . S
Zn116 O115 1.953 . S
Zn116 O117 1.949 . S
Zn116 O123 1.919 . S
Zn116 O128 1.924 . S
O117 Zn116 1.949 . S
O117 Zn118 1.923 . S
O117 Zn119 1.950 . S
O117 Zn120 1.945 . S
Zn118 O117 1.923 . S
Zn118 O121 1.933 . S
Zn118 O124 1.941 . S
Zn118 O125 1.965 . S
Zn119 O117 1.950 . S
Zn119 O126 1.938 . S
Zn119 O127 1.906 . S
Zn119 O137 1.953 . S
Zn120 O117 1.945 . S
Zn120 O122 1.932 . S
Zn120 O129 1.977 . S
Zn120 O130 1.910 . S
O121 Zn118 1.933 . S
O121 C132 1.226 . S
O122 Zn120 1.932 . S
O122 C132 1.307 . S
O123 Zn116 1.919 . S
O123 C134 1.253 . S
O124 Zn118 1.941 . S
O124 C134 1.283 . S
O125 Zn118 1.965 . S
O125 C133 1.303 . S
O126 Zn119 1.938 . S
O126 C133 1.247 . S
O127 Zn119 1.906 . S
O127 C135 1.304 . S
O128 Zn116 1.924 . S
O128 C136 1.311 . S
O129 Zn120 1.977 . S
O129 C135 1.272 . S
O130 Zn120 1.910 . S
O130 C136 1.231 . S
C131 O115 1.225 . S
C131 O137 1.298 . S
C132 O121 1.226 . S
C132 O122 1.307 . S
C133 O125 1.303 . S
C133 O126 1.247 . S
C134 O123 1.253 . S
C134 O124 1.283 . S
C135 O127 1.304 . S
C135 O129 1.272 . S
C136 O128 1.311 . S
C136 O130 1.231 . S
O137 Zn119 1.953 . S
O137 C131 1.298 . S
H138 C156 0.951 . S
H139 C158 0.951 . S
H140 C160 0.950 . S
H141 C161 0.950 . S
H142 C163 0.950 . S
H143 C166 0.950 . S
H144 C167 0.950 . S
H145 C169 0.950 . S
H146 C170 0.950 . S
H147 C171 0.951 . S
H148 C173 0.951 . S
H149 C175 0.950 . S
H150 C176 0.950 . S
H151 C178 0.950 . S
H152 C181 0.950 . S
H153 C182 0.950 . S
H154 C184 0.950 . S
H155 C185 0.950 . S
C156 H138 0.951 . S
C156 C157 1.366 . S
C156 C158 1.388 . S
C157 C156 1.366 . S
C157 C161 1.385 . S
C158 H139 0.951 . S
C158 C156 1.388 . S
C158 C159 1.366 . S
C159 C158 1.366 . S
C159 C160 1.414 . S
C159 C162 1.499 . S
C160 H140 0.950 . S
C160 C159 1.414 . S
C160 C161 1.374 . S
C161 H141 0.950 . S
C161 C157 1.385 . S
C161 C160 1.374 . S
C162 C159 1.499 . S
C162 C163 1.373 . S
C162 C164 1.389 . S
C163 H142 0.950 . S
C163 C162 1.373 . S
C163 C179 1.377 . S
C164 C162 1.389 . S
C164 C165 1.524 . S
C164 C178 1.377 . S
C165 C164 1.524 . S
C165 C166 1.397 . S
C165 C170 1.363 . S
C166 H143 0.950 . S
C166 C165 1.397 . S
C166 C167 1.334 . S
C167 H144 0.950 . S
C167 C166 1.334 . S
C167 C168 1.287 . S
C168 C167 1.287 . S
C168 C169 1.524 . S
C168 H187 0.913 . S
C169 H145 0.950 . S
C169 C168 1.524 . S
C169 C170 1.415 . S
C170 H146 0.950 . S
C170 C165 1.363 . S
C170 C169 1.415 . S
C171 H147 0.951 . S
C171 C172 1.366 . S
C171 C173 1.388 . S
C172 C171 1.366 . S
C172 C176 1.385 . S
C173 H148 0.951 . S
C173 C171 1.388 . S
C173 C174 1.366 . S
C174 C173 1.366 . S
C174 C175 1.414 . S
C174 C177 1.499 1_556 S
C175 H149 0.950 . S
C175 C174 1.414 . S
C175 C176 1.374 . S
C176 H150 0.950 . S
C176 C172 1.385 . S
C176 C175 1.374 . S
C177 C174 1.499 1_554 S
C177 C178 1.373 . S
C177 C179 1.389 . S
C178 H151 0.950 . S
C178 C164 1.377 . S
C178 C177 1.373 . S
C179 C163 1.377 . S
C179 C177 1.389 . S
C179 C180 1.524 . S
C180 C179 1.524 . S
C180 C181 1.397 1_554 S
C180 C185 1.363 . S
C181 H152 0.950 . S
C181 C180 1.397 1_556 S
C181 C182 1.334 . S
C182 H153 0.950 . S
C182 C181 1.334 . S
C182 C183 1.287 . S
C183 C182 1.287 . S
C183 C184 1.524 1_556 S
C183 H186 0.999 . S
C184 H154 0.950 . S
C184 C183 1.524 1_554 S
C184 C185 1.415 . S
C185 H155 0.950 . S
C185 C180 1.363 . S
C185 C184 1.415 . S
H186 C183 0.999 . S
H187 C168 0.913 . S
H188 C206 0.951 . S
H189 C208 0.951 . S
H190 C210 0.950 . S
H191 C211 0.950 . S
H192 C213 0.950 . S
H193 C216 0.950 . S
H194 C217 0.950 . S
H195 C219 0.950 . S
H196 C220 0.950 . S
H197 C221 0.951 1_556 S
H198 C223 0.951 . S
H199 C225 0.950 . S
H200 C226 0.950 1_556 S
H201 C228 0.950 . S
H202 C231 0.950 . S
H203 C232 0.950 . S
H204 C234 0.950 . S
H205 C235 0.950 . S
C206 H188 0.951 . S
C206 C207 1.366 . S
C206 C208 1.388 . S
C207 C206 1.366 . S
C207 C211 1.385 . S
C208 H189 0.951 . S
C208 C206 1.388 . S
C208 C209 1.366 . S
C209 C208 1.366 . S
C209 C210 1.414 . S
C209 C212 1.499 . S
C210 H190 0.950 . S
C210 C209 1.414 . S
C210 C211 1.374 . S
C211 H191 0.950 . S
C211 C207 1.385 . S
C211 C210 1.374 . S
C212 C209 1.499 . S
C212 C213 1.373 . S
C212 C214 1.389 . S
C213 H192 0.950 . S
C213 C212 1.373 . S
C213 C229 1.377 . S
C214 C212 1.389 . S
C214 C215 1.524 . S
C214 C228 1.377 . S
C215 C214 1.524 . S
C215 C216 1.397 . S
C215 C220 1.363 . S
C216 H193 0.950 . S
C216 C215 1.397 . S
C216 C217 1.334 . S
C217 H194 0.950 . S
C217 C216 1.334 . S
C217 C218 1.287 . S
C218 C217 1.287 . S
C218 C219 1.524 . S
C218 H237 0.913 . S
C219 H195 0.950 . S
C219 C218 1.524 . S
C219 C220 1.415 . S
C220 H196 0.950 . S
C220 C215 1.363 . S
C220 C219 1.415 . S
C221 H197 0.951 1_554 S
C221 C222 1.366 1_554 S
C221 C223 1.388 . S
C222 C221 1.366 1_556 S
C222 C226 1.385 1_556 S
C223 H198 0.951 . S
C223 C221 1.388 . S
C223 C224 1.366 . S
C224 C223 1.366 . S
C224 C225 1.414 . S
C224 C227 1.499 . S
C225 H199 0.950 . S
C225 C224 1.414 . S
C225 C226 1.374 . S
C226 H200 0.950 1_554 S
C226 C222 1.385 1_554 S
C226 C225 1.374 . S
C227 C224 1.499 . S
C227 C228 1.373 . S
C227 C229 1.389 . S
C228 H201 0.950 . S
C228 C214 1.377 . S
C228 C227 1.373 . S
C229 C213 1.377 . S
C229 C227 1.389 . S
C229 C230 1.524 . S
C230 C229 1.524 . S
C230 C231 1.397 . S
C230 C235 1.363 . S
C231 H202 0.950 . S
C231 C230 1.397 . S
C231 C232 1.334 . S
C232 H203 0.950 . S
C232 C231 1.334 . S
C232 C233 1.287 . S
C233 C232 1.287 . S
C233 C234 1.524 . S
C233 H236 0.999 . S
C234 H204 0.950 . S
C234 C233 1.524 . S
C234 C235 1.415 . S
C235 H205 0.950 . S
C235 C230 1.363 . S
C235 C234 1.415 . S
H236 C233 0.999 . S
H237 C218 0.913 . S
H238 C256 0.951 . S
H239 C258 0.951 . S
H240 C260 0.950 . S
H241 C261 0.950 . S
H242 C263 0.950 . S
H243 C266 0.950 . S
H244 C267 0.950 . S
H245 C269 0.950 . S
H246 C270 0.950 . S
H247 C271 0.951 . S
H248 C273 0.951 . S
H249 C275 0.950 . S
H250 C276 0.950 . S
H251 C278 0.950 . S
H252 C281 0.950 . S
H253 C282 0.950 . S
H254 C284 0.950 . S
H255 C285 0.950 . S
C256 H238 0.951 . S
C256 C257 1.366 . S
C256 C258 1.388 . S
C257 C256 1.366 . S
C257 C261 1.385 . S
C258 H239 0.951 . S
C258 C256 1.388 . S
C258 C259 1.366 . S
C259 C258 1.366 . S
C259 C260 1.414 . S
C259 C262 1.499 . S
C260 H240 0.950 . S
C260 C259 1.414 . S
C260 C261 1.374 . S
C261 H241 0.950 . S
C261 C257 1.385 . S
C261 C260 1.374 . S
C262 C259 1.499 . S
C262 C263 1.373 . S
C262 C264 1.389 . S
C263 H242 0.950 . S
C263 C262 1.373 . S
C263 C279 1.377 . S
C264 C262 1.389 . S
C264 C265 1.524 . S
C264 C278 1.377 . S
C265 C264 1.524 . S
C265 C266 1.397 . S
C265 C270 1.363 . S
C266 H243 0.950 . S
C266 C265 1.397 . S
C266 C267 1.334 . S
C267 H244 0.950 . S
C267 C266 1.334 . S
C267 C268 1.287 . S
C268 C267 1.287 . S
C268 C269 1.524 . S
C268 H287 0.913 . S
C269 H245 0.950 . S
C269 C268 1.524 . S
C269 C270 1.415 . S
C270 H246 0.950 . S
C270 C265 1.363 . S
C270 C269 1.415 . S
C271 H247 0.951 . S
C271 C272 1.366 . S
C271 C273 1.388 . S
C272 C271 1.366 . S
C272 C276 1.385 . S
C273 H248 0.951 . S
C273 C271 1.388 . S
C273 C274 1.366 . S
C274 C273 1.366 . S
C274 C275 1.414 . S
C274 C277 1.499 . S
C275 H249 0.950 . S
C275 C274 1.414 . S
C275 C276 1.374 . S
C276 H250 0.950 . S
C276 C272 1.385 . S
C276 C275 1.374 . S
C277 C274 1.499 . S
C277 C278 1.373 . S
C277 C279 1.389 . S
C278 H251 0.950 . S
C278 C264 1.377 . S
C278 C277 1.373 . S
C279 C263 1.377 . S
C279 C277 1.389 . S
C279 C280 1.524 . S
C280 C279 1.524 . S
C280 C281 1.397 . S
C280 C285 1.363 . S
C281 H252 0.950 . S
C281 C280 1.397 . S
C281 C282 1.334 . S
C282 H253 0.950 . S
C282 C281 1.334 . S
C282 C283 1.287 . S
C283 C282 1.287 . S
C283 C284 1.524 . S
C283 H286 0.999 . S
C284 H254 0.950 . S
C284 C283 1.524 . S
C284 C285 1.415 . S
C285 H255 0.950 . S
C285 C280 1.363 . S
C285 C284 1.415 . S
H286 C283 0.999 . S
H287 C268 0.913 . S
H288 C306 0.951 . S
H289 C308 0.951 . S
H290 C310 0.950 . S
H291 C311 0.950 . S
H292 C313 0.950 . S
H293 C316 0.950 . S
H294 C317 0.950 . S
H295 C319 0.950 . S
H296 C320 0.950 . S
H297 C321 0.951 . S
H298 C323 0.951 . S
H299 C325 0.950 . S
H300 C326 0.950 . S
H301 C328 0.950 . S
H302 C331 0.950 . S
H303 C332 0.950 . S
H304 C334 0.950 . S
H305 C335 0.950 . S
C306 H288 0.951 . S
C306 C307 1.366 . S
C306 C308 1.388 . S
C307 C306 1.366 . S
C307 C311 1.385 . S
C308 H289 0.951 . S
C308 C306 1.388 . S
C308 C309 1.366 . S
C309 C308 1.366 . S
C309 C310 1.414 . S
C309 C312 1.499 . S
C310 H290 0.950 . S
C310 C309 1.414 . S
C310 C311 1.374 . S
C311 H291 0.950 . S
C311 C307 1.385 . S
C311 C310 1.374 . S
C312 C309 1.499 . S
C312 C313 1.373 . S
C312 C314 1.389 . S
C313 H292 0.950 . S
C313 C312 1.373 . S
C313 C329 1.377 . S
C314 C312 1.389 . S
C314 C315 1.524 . S
C314 C328 1.377 . S
C315 C314 1.524 . S
C315 C316 1.397 . S
C315 C320 1.363 . S
C316 H293 0.950 . S
C316 C315 1.397 . S
C316 C317 1.334 . S
C317 H294 0.950 . S
C317 C316 1.334 . S
C317 C318 1.287 . S
C318 C317 1.287 . S
C318 C319 1.524 . S
C318 H337 0.913 . S
C319 H295 0.950 . S
C319 C318 1.524 . S
C319 C320 1.415 . S
C320 H296 0.950 . S
C320 C315 1.363 . S
C320 C319 1.415 . S
C321 H297 0.951 . S
C321 C322 1.366 . S
C321 C323 1.388 . S
C322 C321 1.366 . S
C322 C326 1.385 . S
C323 H298 0.951 . S
C323 C321 1.388 . S
C323 C324 1.366 . S
C324 C323 1.366 . S
C324 C325 1.414 . S
C324 C327 1.499 . S
C325 H299 0.950 . S
C325 C324 1.414 . S
C325 C326 1.374 . S
C326 H300 0.950 . S
C326 C322 1.385 . S
C326 C325 1.374 . S
C327 C324 1.499 . S
C327 C328 1.373 . S
C327 C329 1.389 . S
C328 H301 0.950 . S
C328 C314 1.377 . S
C328 C327 1.373 . S
C329 C313 1.377 . S
C329 C327 1.389 . S
C329 C330 1.524 . S
C330 C329 1.524 . S
C330 C331 1.397 . S
C330 C335 1.363 . S
C331 H302 0.950 . S
C331 C330 1.397 . S
C331 C332 1.334 . S
C332 H303 0.950 . S
C332 C331 1.334 . S
C332 C333 1.287 . S
C333 C332 1.287 . S
C333 C334 1.524 . S
C333 H336 0.999 . S
C334 H304 0.950 . S
C334 C333 1.524 . S
C334 C335 1.415 . S
C335 H305 0.950 . S
C335 C330 1.363 . S
C335 C334 1.415 . S
H336 C333 0.999 . S
H337 C318 0.913 . S
H338 C356 0.951 . S
H339 C358 0.951 . S
H340 C360 0.950 . S
H341 C361 0.950 . S
H342 C363 0.950 . S
H343 C366 0.950 . S
H344 C367 0.950 . S
H345 C369 0.950 . S
H346 C370 0.950 . S
H347 C371 0.951 1_554 S
H348 C373 0.951 . S
H349 C375 0.950 . S
H350 C376 0.950 1_554 S
H351 C378 0.950 . S
H352 C381 0.950 . S
H353 C382 0.950 . S
H354 C384 0.950 . S
H355 C385 0.950 . S
C356 H338 0.951 . S
C356 C357 1.366 . S
C356 C358 1.388 . S
C357 C356 1.366 . S
C357 C361 1.385 . S
C358 H339 0.951 . S
C358 C356 1.388 . S
C358 C359 1.366 . S
C359 C358 1.366 . S
C359 C360 1.414 . S
C359 C362 1.499 . S
C360 H340 0.950 . S
C360 C359 1.414 . S
C360 C361 1.374 . S
C361 H341 0.950 . S
C361 C357 1.385 . S
C361 C360 1.374 . S
C362 C359 1.499 . S
C362 C363 1.373 . S
C362 C364 1.389 . S
C363 H342 0.950 . S
C363 C362 1.373 . S
C363 C379 1.377 . S
C364 C362 1.389 . S
C364 C365 1.524 . S
C364 C378 1.377 . S
C365 C364 1.524 . S
C365 C366 1.397 . S
C365 C370 1.363 . S
C366 H343 0.950 . S
C366 C365 1.397 . S
C366 C367 1.334 . S
C367 H344 0.950 . S
C367 C366 1.334 . S
C367 C368 1.287 . S
C368 C367 1.287 . S
C368 C369 1.524 . S
C368 H387 0.913 . S
C369 H345 0.950 . S
C369 C368 1.524 . S
C369 C370 1.415 . S
C370 H346 0.950 . S
C370 C365 1.363 . S
C370 C369 1.415 . S
C371 H347 0.951 1_556 S
C371 C372 1.366 1_556 S
C371 C373 1.388 . S
C372 C371 1.366 1_554 S
C372 C376 1.385 1_554 S
C373 H348 0.951 . S
C373 C371 1.388 . S
C373 C374 1.366 . S
C374 C373 1.366 . S
C374 C375 1.414 . S
C374 C377 1.499 . S
C375 H349 0.950 . S
C375 C374 1.414 . S
C375 C376 1.374 . S
C376 H350 0.950 1_556 S
C376 C372 1.385 1_556 S
C376 C375 1.374 . S
C377 C374 1.499 . S
C377 C378 1.373 . S
C377 C379 1.389 . S
C378 H351 0.950 . S
C378 C364 1.377 . S
C378 C377 1.373 . S
C379 C363 1.377 . S
C379 C377 1.389 . S
C379 C380 1.524 . S
C380 C379 1.524 . S
C380 C381 1.397 . S
C380 C385 1.363 . S
C381 H352 0.950 . S
C381 C380 1.397 . S
C381 C382 1.334 . S
C382 H353 0.950 . S
C382 C381 1.334 . S
C382 C383 1.287 . S
C383 C382 1.287 . S
C383 C384 1.524 . S
C383 H386 0.999 . S
C384 H354 0.950 . S
C384 C383 1.524 . S
C384 C385 1.415 . S
C385 H355 0.950 . S
C385 C380 1.363 . S
C385 C384 1.415 . S
H386 C383 0.999 . S
H387 C368 0.913 . S
H388 C406 0.951 . S
H389 C408 0.951 . S
H390 C410 0.950 . S
H391 C411 0.950 . S
H392 C413 0.950 . S
H393 C416 0.950 . S
H394 C417 0.950 . S
H395 C419 0.950 . S
H396 C420 0.950 . S
H397 C421 0.951 . S
H398 C423 0.951 . S
H399 C425 0.950 . S
H400 C426 0.950 . S
H401 C428 0.950 . S
H402 C431 0.950 . S
H403 C432 0.950 . S
H404 C434 0.950 . S
H405 C435 0.950 . S
C406 H388 0.951 . S
C406 C407 1.366 . S
C406 C408 1.388 . S
C407 C406 1.366 . S
C407 C411 1.385 . S
C408 H389 0.951 . S
C408 C406 1.388 . S
C408 C409 1.366 . S
C409 C408 1.366 . S
C409 C410 1.414 . S
C409 C412 1.499 1_554 S
C410 H390 0.950 . S
C410 C409 1.414 . S
C410 C411 1.374 . S
C411 H391 0.950 . S
C411 C407 1.385 . S
C411 C410 1.374 . S
C412 C409 1.499 1_556 S
C412 C413 1.373 . S
C412 C414 1.389 . S
C413 H392 0.950 . S
C413 C412 1.373 . S
C413 C429 1.377 . S
C414 C412 1.389 . S
C414 C415 1.524 . S
C414 C428 1.377 . S
C415 C414 1.524 . S
C415 C416 1.397 1_556 S
C415 C420 1.363 . S
C416 H393 0.950 . S
C416 C415 1.397 1_554 S
C416 C417 1.334 . S
C417 H394 0.950 . S
C417 C416 1.334 . S
C417 C418 1.287 . S
C418 C417 1.287 . S
C418 C419 1.524 1_554 S
C418 H437 0.913 . S
C419 H395 0.950 . S
C419 C418 1.524 1_556 S
C419 C420 1.415 . S
C420 H396 0.950 . S
C420 C415 1.363 . S
C420 C419 1.415 . S
C421 H397 0.951 . S
C421 C422 1.366 . S
C421 C423 1.388 . S
C422 C421 1.366 . S
C422 C426 1.385 . S
C423 H398 0.951 . S
C423 C421 1.388 . S
C423 C424 1.366 . S
C424 C423 1.366 . S
C424 C425 1.414 . S
C424 C427 1.499 . S
C425 H399 0.950 . S
C425 C424 1.414 . S
C425 C426 1.374 . S
C426 H400 0.950 . S
C426 C422 1.385 . S
C426 C425 1.374 . S
C427 C424 1.499 . S
C427 C428 1.373 . S
C427 C429 1.389 . S
C428 H401 0.950 . S
C428 C414 1.377 . S
C428 C427 1.373 . S
C429 C413 1.377 . S
C429 C427 1.389 . S
C429 C430 1.524 . S
C430 C429 1.524 . S
C430 C431 1.397 . S
C430 C435 1.363 . S
C431 H402 0.950 . S
C431 C430 1.397 . S
C431 C432 1.334 . S
C432 H403 0.950 . S
C432 C431 1.334 . S
C432 C433 1.287 . S
C433 C432 1.287 . S
C433 C434 1.524 . S
C433 H436 0.999 . S
C434 H404 0.950 . S
C434 C433 1.524 . S
C434 C435 1.415 . S
C435 H405 0.950 . S
C435 C430 1.363 . S
C435 C434 1.415 . S
H436 C433 0.999 . S
H437 C418 0.913 . S
H438 C456 0.951 . S
H439 C458 0.951 . S
H440 C460 0.950 . S
H441 C461 0.950 . S
H442 C463 0.950 . S
H443 C466 0.950 . S
H444 C467 0.950 . S
H445 C469 0.950 . S
H446 C470 0.950 . S
H447 C471 0.951 . S
H448 C473 0.951 . S
H449 C475 0.950 . S
H450 C476 0.950 . S
H451 C478 0.950 . S
H452 C481 0.950 . S
H453 C482 0.950 . S
H454 C484 0.950 . S
H455 C485 0.950 . S
C456 H438 0.951 . S
C456 C457 1.366 . S
C456 C458 1.388 . S
C457 C456 1.366 . S
C457 C461 1.385 . S
C458 H439 0.951 . S
C458 C456 1.388 . S
C458 C459 1.366 . S
C459 C458 1.366 . S
C459 C460 1.414 . S
C459 C462 1.499 . S
C460 H440 0.950 . S
C460 C459 1.414 . S
C460 C461 1.374 . S
C461 H441 0.950 . S
C461 C457 1.385 . S
C461 C460 1.374 . S
C462 C459 1.499 . S
C462 C463 1.373 . S
C462 C464 1.389 . S
C463 H442 0.950 . S
C463 C462 1.373 . S
C463 C479 1.377 1_545 S
C464 C462 1.389 . S
C464 C465 1.524 . S
C464 C478 1.377 1_545 S
C465 C464 1.524 . S
C465 C466 1.397 . S
C465 C470 1.363 . S
C466 H443 0.950 . S
C466 C465 1.397 . S
C466 C467 1.334 . S
C467 H444 0.950 . S
C467 C466 1.334 . S
C467 C468 1.287 . S
C468 C467 1.287 . S
C468 C469 1.524 . S
C468 H487 0.913 . S
C469 H445 0.950 . S
C469 C468 1.524 . S
C469 C470 1.415 . S
C470 H446 0.950 . S
C470 C465 1.363 . S
C470 C469 1.415 . S
C471 H447 0.951 . S
C471 C472 1.366 . S
C471 C473 1.388 . S
C472 C471 1.366 . S
C472 C476 1.385 . S
C473 H448 0.951 . S
C473 C471 1.388 . S
C473 C474 1.366 . S
C474 C473 1.366 . S
C474 C475 1.414 . S
C474 C477 1.499 . S
C475 H449 0.950 . S
C475 C474 1.414 . S
C475 C476 1.374 . S
C476 H450 0.950 . S
C476 C472 1.385 . S
C476 C475 1.374 . S
C477 C474 1.499 . S
C477 C478 1.373 . S
C477 C479 1.389 . S
C478 H451 0.950 . S
C478 C464 1.377 1_565 S
C478 C477 1.373 . S
C479 C463 1.377 1_565 S
C479 C477 1.389 . S
C479 C480 1.524 . S
C480 C479 1.524 . S
C480 C481 1.397 . S
C480 C485 1.363 . S
C481 H452 0.950 . S
C481 C480 1.397 . S
C481 C482 1.334 . S
C482 H453 0.950 . S
C482 C481 1.334 . S
C482 C483 1.287 . S
C483 C482 1.287 . S
C483 C484 1.524 . S
C483 H486 0.999 . S
C484 H454 0.950 . S
C484 C483 1.524 . S
C484 C485 1.415 . S
C485 H455 0.950 . S
C485 C480 1.363 . S
C485 C484 1.415 . S
H486 C483 0.999 . S
H487 C468 0.913 . S
H488 C506 0.951 . S
H489 C508 0.951 . S
H490 C510 0.950 . S
H491 C511 0.950 . S
H492 C513 0.950 . S
H493 C516 0.950 . S
H494 C517 0.950 . S
H495 C519 0.950 . S
H496 C520 0.950 . S
H497 C521 0.951 . S
H498 C523 0.951 . S
H499 C525 0.950 . S
H500 C526 0.950 . S
H501 C528 0.950 . S
H502 C531 0.950 . S
H503 C532 0.950 . S
H504 C534 0.950 . S
H505 C535 0.950 . S
C506 H488 0.951 . S
C506 C507 1.366 . S
C506 C508 1.388 . S
C507 C506 1.366 . S
C507 C511 1.385 . S
C508 H489 0.951 . S
C508 C506 1.388 . S
C508 C509 1.366 . S
C509 C508 1.366 . S
C509 C510 1.414 . S
C509 C512 1.499 . S
C510 H490 0.950 . S
C510 C509 1.414 . S
C510 C511 1.374 . S
C511 H491 0.950 . S
C511 C507 1.385 . S
C511 C510 1.374 . S
C512 C509 1.499 . S
C512 C513 1.373 . S
C512 C514 1.389 . S
C513 H492 0.950 . S
C513 C512 1.373 . S
C513 C529 1.377 . S
C514 C512 1.389 . S
C514 C515 1.524 . S
C514 C528 1.377 . S
C515 C514 1.524 . S
C515 C516 1.397 . S
C515 C520 1.363 . S
C516 H493 0.950 . S
C516 C515 1.397 . S
C516 C517 1.334 . S
C517 H494 0.950 . S
C517 C516 1.334 . S
C517 C518 1.287 . S
C518 C517 1.287 . S
C518 C519 1.524 . S
C518 H537 0.913 . S
C519 H495 0.950 . S
C519 C518 1.524 . S
C519 C520 1.415 . S
C520 H496 0.950 . S
C520 C515 1.363 . S
C520 C519 1.415 . S
C521 H497 0.951 . S
C521 C522 1.366 . S
C521 C523 1.388 . S
C522 C521 1.366 . S
C522 C526 1.385 . S
C523 H498 0.951 . S
C523 C521 1.388 . S
C523 C524 1.366 . S
C524 C523 1.366 . S
C524 C525 1.414 . S
C524 C527 1.499 . S
C525 H499 0.950 . S
C525 C524 1.414 . S
C525 C526 1.374 . S
C526 H500 0.950 . S
C526 C522 1.385 . S
C526 C525 1.374 . S
C527 C524 1.499 . S
C527 C528 1.373 . S
C527 C529 1.389 . S
C528 H501 0.950 . S
C528 C514 1.377 . S
C528 C527 1.373 . S
C529 C513 1.377 . S
C529 C527 1.389 . S
C529 C530 1.524 . S
C530 C529 1.524 . S
C530 C531 1.397 . S
C530 C535 1.363 . S
C531 H502 0.950 . S
C531 C530 1.397 . S
C531 C532 1.334 . S
C532 H503 0.950 . S
C532 C531 1.334 . S
C532 C533 1.287 . S
C533 C532 1.287 . S
C533 C534 1.524 . S
C533 H536 0.999 . S
C534 H504 0.950 . S
C534 C533 1.524 . S
C534 C535 1.415 . S
C535 H505 0.950 . S
C535 C530 1.363 . S
C535 C534 1.415 . S
H536 C533 0.999 . S
H537 C518 0.913 . S
H538 C556 0.951 . S
H539 C558 0.951 . S
H540 C560 0.950 . S
H541 C561 0.950 . S
H542 C563 0.950 . S
H543 C566 0.950 . S
H544 C567 0.950 . S
H545 C569 0.950 . S
H546 C570 0.950 . S
H547 C571 0.951 . S
H548 C573 0.951 . S
H549 C575 0.950 . S
H550 C576 0.950 . S
H551 C578 0.950 . S
H552 C581 0.950 . S
H553 C582 0.950 . S
H554 C584 0.950 . S
H555 C585 0.950 . S
C556 H538 0.951 . S
C556 C557 1.366 . S
C556 C558 1.388 . S
C557 C556 1.366 . S
C557 C561 1.385 . S
C558 H539 0.951 . S
C558 C556 1.388 . S
C558 C559 1.366 . S
C559 C558 1.366 . S
C559 C560 1.414 . S
C559 C562 1.499 . S
C560 H540 0.950 . S
C560 C559 1.414 . S
C560 C561 1.374 . S
C561 H541 0.950 . S
C561 C557 1.385 . S
C561 C560 1.374 . S
C562 C559 1.499 . S
C562 C563 1.373 . S
C562 C564 1.389 . S
C563 H542 0.950 . S
C563 C562 1.373 . S
C563 C579 1.377 1_655 S
C564 C562 1.389 . S
C564 C565 1.524 . S
C564 C578 1.377 1_655 S
C565 C564 1.524 . S
C565 C566 1.397 . S
C565 C570 1.363 . S
C566 H543 0.950 . S
C566 C565 1.397 . S
C566 C567 1.334 1_556 S
C567 H544 0.950 . S
C567 C566 1.334 1_554 S
C567 C568 1.287 . S
C568 C567 1.287 . S
C568 C569 1.524 1_554 S
C568 H587 0.913 . S
C569 H545 0.950 . S
C569 C568 1.524 1_556 S
C569 C570 1.415 . S
C570 H546 0.950 . S
C570 C565 1.363 . S
C570 C569 1.415 . S
C571 H547 0.951 . S
C571 C572 1.366 . S
C571 C573 1.388 . S
C572 C571 1.366 . S
C572 C576 1.385 . S
C573 H548 0.951 . S
C573 C571 1.388 . S
C573 C574 1.366 . S
C574 C573 1.366 . S
C574 C575 1.414 . S
C574 C577 1.499 . S
C575 H549 0.950 . S
C575 C574 1.414 . S
C575 C576 1.374 . S
C576 H550 0.950 . S
C576 C572 1.385 . S
C576 C575 1.374 . S
C577 C574 1.499 . S
C577 C578 1.373 . S
C577 C579 1.389 . S
C578 H551 0.950 . S
C578 C564 1.377 1_455 S
C578 C577 1.373 . S
C579 C563 1.377 1_455 S
C579 C577 1.389 . S
C579 C580 1.524 . S
C580 C579 1.524 . S
C580 C581 1.397 . S
C580 C585 1.363 . S
C581 H552 0.950 . S
C581 C580 1.397 . S
C581 C582 1.334 . S
C582 H553 0.950 . S
C582 C581 1.334 . S
C582 C583 1.287 . S
C583 C582 1.287 . S
C583 C584 1.524 . S
C583 H586 0.999 . S
C584 H554 0.950 . S
C584 C583 1.524 . S
C584 C585 1.415 . S
C585 H555 0.950 . S
C585 C580 1.363 . S
C585 C584 1.415 . S
H586 C583 0.999 . S
H587 C568 0.913 . S
H588 C606 0.951 . S
H589 C608 0.951 1_556 S
H590 C610 0.950 . S
H591 C611 0.950 . S
H592 C613 0.950 . S
H593 C616 0.950 . S
H594 C617 0.950 . S
H595 C619 0.950 . S
H596 C620 0.950 . S
H597 C621 0.951 . S
H598 C623 0.951 1_554 S
H599 C625 0.950 . S
H600 C626 0.950 . S
H601 C628 0.950 . S
H602 C631 0.950 . S
H603 C632 0.950 . S
H604 C634 0.950 . S
H605 C635 0.950 . S
C606 H588 0.951 . S
C606 C607 1.366 . S
C606 C608 1.388 . S
C607 C606 1.366 . S
C607 C611 1.385 . S
C608 H589 0.951 1_554 S
C608 C606 1.388 . S
C608 C609 1.366 . S
C609 C608 1.366 . S
C609 C610 1.414 . S
C609 C612 1.499 . S
C610 H590 0.950 . S
C610 C609 1.414 . S
C610 C611 1.374 . S
C611 H591 0.950 . S
C611 C607 1.385 . S
C611 C610 1.374 . S
C612 C609 1.499 . S
C612 C613 1.373 . S
C612 C614 1.389 1_554 S
C613 H592 0.950 . S
C613 C612 1.373 . S
C613 C629 1.377 1_565 S
C614 C612 1.389 1_556 S
C614 C615 1.524 . S
C614 C628 1.377 1_565 S
C615 C614 1.524 . S
C615 C616 1.397 . S
C615 C620 1.363 . S
C616 H593 0.950 . S
C616 C615 1.397 . S
C616 C617 1.334 . S
C617 H594 0.950 . S
C617 C616 1.334 . S
C617 C618 1.287 . S
C618 C617 1.287 . S
C618 C619 1.524 . S
C618 H637 0.913 . S
C619 H595 0.950 . S
C619 C618 1.524 . S
C619 C620 1.415 . S
C620 H596 0.950 . S
C620 C615 1.363 . S
C620 C619 1.415 . S
C621 H597 0.951 . S
C621 C622 1.366 . S
C621 C623 1.388 . S
C622 C621 1.366 . S
C622 C626 1.385 . S
C623 H598 0.951 1_556 S
C623 C621 1.388 . S
C623 C624 1.366 . S
C624 C623 1.366 . S
C624 C625 1.414 . S
C624 C627 1.499 . S
C625 H599 0.950 . S
C625 C624 1.414 . S
C625 C626 1.374 . S
C626 H600 0.950 . S
C626 C622 1.385 . S
C626 C625 1.374 . S
C627 C624 1.499 . S
C627 C628 1.373 . S
C627 C629 1.389 1_556 S
C628 H601 0.950 . S
C628 C614 1.377 1_545 S
C628 C627 1.373 . S
C629 C613 1.377 1_545 S
C629 C627 1.389 1_554 S
C629 C630 1.524 . S
C630 C629 1.524 . S
C630 C631 1.397 . S
C630 C635 1.363 . S
C631 H602 0.950 . S
C631 C630 1.397 . S
C631 C632 1.334 . S
C632 H603 0.950 . S
C632 C631 1.334 . S
C632 C633 1.287 . S
C633 C632 1.287 . S
C633 C634 1.524 . S
C633 H636 0.999 . S
C634 H604 0.950 . S
C634 C633 1.524 . S
C634 C635 1.415 . S
C635 H605 0.950 . S
C635 C630 1.363 . S
C635 C634 1.415 . S
H636 C633 0.999 . S
H637 C618 0.913 . S
H638 C656 0.951 . S
H639 C658 0.951 . S
H640 C660 0.950 . S
H641 C661 0.950 . S
H642 C663 0.950 . S
H643 C666 0.950 . S
H644 C667 0.950 . S
H645 C669 0.950 . S
H646 C670 0.950 . S
H647 C671 0.951 . S
H648 C673 0.951 . S
H649 C675 0.950 . S
H650 C676 0.950 . S
H651 C678 0.950 . S
H652 C681 0.950 . S
H653 C682 0.950 . S
H654 C684 0.950 . S
H655 C685 0.950 . S
C656 H638 0.951 . S
C656 C657 1.366 . S
C656 C658 1.388 . S
C657 C656 1.366 . S
C657 C661 1.385 . S
C658 H639 0.951 . S
C658 C656 1.388 . S
C658 C659 1.366 . S
C659 C658 1.366 . S
C659 C660 1.414 . S
C659 C662 1.499 . S
C660 H640 0.950 . S
C660 C659 1.414 . S
C660 C661 1.374 . S
C661 H641 0.950 . S
C661 C657 1.385 . S
C661 C660 1.374 . S
C662 C659 1.499 . S
C662 C663 1.373 . S
C662 C664 1.389 . S
C663 H642 0.950 . S
C663 C662 1.373 . S
C663 C679 1.377 . S
C664 C662 1.389 . S
C664 C665 1.524 . S
C664 C678 1.377 . S
C665 C664 1.524 . S
C665 C666 1.397 . S
C665 C670 1.363 . S
C666 H643 0.950 . S
C666 C665 1.397 . S
C666 C667 1.334 . S
C667 H644 0.950 . S
C667 C666 1.334 . S
C667 C668 1.287 . S
C668 C667 1.287 . S
C668 C669 1.524 . S
C668 H687 0.913 . S
C669 H645 0.950 . S
C669 C668 1.524 . S
C669 C670 1.415 . S
C670 H646 0.950 . S
C670 C665 1.363 . S
C670 C669 1.415 . S
C671 H647 0.951 . S
C671 C672 1.366 . S
C671 C673 1.388 . S
C672 C671 1.366 . S
C672 C676 1.385 . S
C673 H648 0.951 . S
C673 C671 1.388 . S
C673 C674 1.366 . S
C674 C673 1.366 . S
C674 C675 1.414 . S
C674 C677 1.499 . S
C675 H649 0.950 . S
C675 C674 1.414 . S
C675 C676 1.374 . S
C676 H650 0.950 . S
C676 C672 1.385 . S
C676 C675 1.374 . S
C677 C674 1.499 . S
C677 C678 1.373 . S
C677 C679 1.389 . S
C678 H651 0.950 . S
C678 C664 1.377 . S
C678 C677 1.373 . S
C679 C663 1.377 . S
C679 C677 1.389 . S
C679 C680 1.524 . S
C680 C679 1.524 . S
C680 C681 1.397 . S
C680 C685 1.363 . S
C681 H652 0.950 . S
C681 C680 1.397 . S
C681 C682 1.334 . S
C682 H653 0.950 . S
C682 C681 1.334 . S
C682 C683 1.287 . S
C683 C682 1.287 . S
C683 C684 1.524 . S
C683 H686 0.999 . S
C684 H654 0.950 . S
C684 C683 1.524 . S
C684 C685 1.415 . S
C685 H655 0.950 . S
C685 C680 1.363 . S
C685 C684 1.415 . S
H686 C683 0.999 . S
H687 C668 0.913 . S
H688 C706 0.951 . S
H689 C708 0.951 . S
H690 C710 0.950 . S
H691 C711 0.950 . S
H692 C713 0.950 . S
H693 C716 0.950 . S
H694 C717 0.950 . S
H695 C719 0.950 . S
H696 C720 0.950 . S
H697 C721 0.951 . S
H698 C723 0.951 . S
H699 C725 0.950 . S
H700 C726 0.950 . S
H701 C728 0.950 . S
H702 C731 0.950 . S
H703 C732 0.950 . S
H704 C734 0.950 . S
H705 C735 0.950 . S
C706 H688 0.951 . S
C706 C707 1.366 . S
C706 C708 1.388 . S
C707 C706 1.366 . S
C707 C711 1.385 . S
C708 H689 0.951 . S
C708 C706 1.388 . S
C708 C709 1.366 . S
C709 C708 1.366 . S
C709 C710 1.414 . S
C709 C712 1.499 . S
C710 H690 0.950 . S
C710 C709 1.414 . S
C710 C711 1.374 . S
C711 H691 0.950 . S
C711 C707 1.385 . S
C711 C710 1.374 . S
C712 C709 1.499 . S
C712 C713 1.373 . S
C712 C714 1.389 . S
C713 H692 0.950 . S
C713 C712 1.373 . S
C713 C729 1.377 1_655 S
C714 C712 1.389 . S
C714 C715 1.524 . S
C714 C728 1.377 1_655 S
C715 C714 1.524 . S
C715 C716 1.397 . S
C715 C720 1.363 . S
C716 H693 0.950 . S
C716 C715 1.397 . S
C716 C717 1.334 . S
C717 H694 0.950 . S
C717 C716 1.334 . S
C717 C718 1.287 . S
C718 C717 1.287 . S
C718 C719 1.524 . S
C718 H737 0.913 . S
C719 H695 0.950 . S
C719 C718 1.524 . S
C719 C720 1.415 . S
C720 H696 0.950 . S
C720 C715 1.363 . S
C720 C719 1.415 . S
C721 H697 0.951 . S
C721 C722 1.366 . S
C721 C723 1.388 . S
C722 C721 1.366 . S
C722 C726 1.385 . S
C723 H698 0.951 . S
C723 C721 1.388 . S
C723 C724 1.366 . S
C724 C723 1.366 . S
C724 C725 1.414 . S
C724 C727 1.499 . S
C725 H699 0.950 . S
C725 C724 1.414 . S
C725 C726 1.374 . S
C726 H700 0.950 . S
C726 C722 1.385 . S
C726 C725 1.374 . S
C727 C724 1.499 . S
C727 C728 1.373 . S
C727 C729 1.389 . S
C728 H701 0.950 . S
C728 C714 1.377 1_455 S
C728 C727 1.373 . S
C729 C713 1.377 1_455 S
C729 C727 1.389 . S
C729 C730 1.524 . S
C730 C729 1.524 . S
C730 C731 1.397 . S
C730 C735 1.363 . S
C731 H702 0.950 . S
C731 C730 1.397 . S
C731 C732 1.334 . S
C732 H703 0.950 . S
C732 C731 1.334 . S
C732 C733 1.287 . S
C733 C732 1.287 . S
C733 C734 1.524 . S
C733 H736 0.999 . S
C734 H704 0.950 . S
C734 C733 1.524 . S
C734 C735 1.415 . S
C735 H705 0.950 . S
C735 C730 1.363 . S
C735 C734 1.415 . S
H736 C733 0.999 . S
H737 C718 0.913 . S
H738 C756 0.951 . S
H739 C758 0.951 . S
H740 C760 0.950 . S
H741 C761 0.950 . S
H742 C763 0.950 . S
H743 C766 0.950 . S
H744 C767 0.950 . S
H745 C769 0.950 . S
H746 C770 0.950 . S
H747 C771 0.951 . S
H748 C773 0.951 . S
H749 C775 0.950 . S
H750 C776 0.950 . S
H751 C778 0.950 . S
H752 C781 0.950 . S
H753 C782 0.950 . S
H754 C784 0.950 . S
H755 C785 0.950 . S
C756 H738 0.951 . S
C756 C757 1.366 . S
C756 C758 1.388 . S
C757 C756 1.366 . S
C757 C761 1.385 . S
C758 H739 0.951 . S
C758 C756 1.388 . S
C758 C759 1.366 . S
C759 C758 1.366 . S
C759 C760 1.414 . S
C759 C762 1.499 . S
C760 H740 0.950 . S
C760 C759 1.414 . S
C760 C761 1.374 . S
C761 H741 0.950 . S
C761 C757 1.385 . S
C761 C760 1.374 . S
C762 C759 1.499 . S
C762 C763 1.373 . S
C762 C764 1.389 . S
C763 H742 0.950 . S
C763 C762 1.373 . S
C763 C779 1.377 . S
C764 C762 1.389 . S
C764 C765 1.524 . S
C764 C778 1.377 . S
C765 C764 1.524 . S
C765 C766 1.397 . S
C765 C770 1.363 . S
C766 H743 0.950 . S
C766 C765 1.397 . S
C766 C767 1.334 . S
C767 H744 0.950 . S
C767 C766 1.334 . S
C767 C768 1.287 . S
C768 C767 1.287 . S
C768 C769 1.524 . S
C768 H787 0.913 . S
C769 H745 0.950 . S
C769 C768 1.524 . S
C769 C770 1.415 . S
C770 H746 0.950 . S
C770 C765 1.363 . S
C770 C769 1.415 . S
C771 H747 0.951 . S
C771 C772 1.366 . S
C771 C773 1.388 . S
C772 C771 1.366 . S
C772 C776 1.385 . S
C773 H748 0.951 . S
C773 C771 1.388 . S
C773 C774 1.366 . S
C774 C773 1.366 . S
C774 C775 1.414 . S
C774 C777 1.499 . S
C775 H749 0.950 . S
C775 C774 1.414 . S
C775 C776 1.374 . S
C776 H750 0.950 . S
C776 C772 1.385 . S
C776 C775 1.374 . S
C777 C774 1.499 . S
C777 C778 1.373 . S
C777 C779 1.389 . S
C778 H751 0.950 . S
C778 C764 1.377 . S
C778 C777 1.373 . S
C779 C763 1.377 . S
C779 C777 1.389 . S
C779 C780 1.524 . S
C780 C779 1.524 . S
C780 C781 1.397 . S
C780 C785 1.363 . S
C781 H752 0.950 . S
C781 C780 1.397 . S
C781 C782 1.334 . S
C782 H753 0.950 . S
C782 C781 1.334 . S
C782 C783 1.287 . S
C783 C782 1.287 . S
C783 C784 1.524 . S
C783 H786 0.999 . S
C784 H754 0.950 . S
C784 C783 1.524 . S
C784 C785 1.415 . S
C785 H755 0.950 . S
C785 C780 1.363 . S
C785 C784 1.415 . S
H786 C783 0.999 . S
H787 C768 0.913 . S
H788 C806 0.951 . S
H789 C808 0.951 . S
H790 C810 0.950 . S
H791 C811 0.950 . S
H792 C813 0.950 . S
H793 C816 0.950 . S
H794 C817 0.950 . S
H795 C819 0.950 . S
H796 C820 0.950 . S
H797 C821 0.951 . S
H798 C823 0.951 . S
H799 C825 0.950 . S
H800 C826 0.950 . S
H801 C828 0.950 . S
H802 C831 0.950 . S
H803 C832 0.950 . S
H804 C834 0.950 . S
H805 C835 0.950 . S
C806 H788 0.951 . S
C806 C807 1.366 . S
C806 C808 1.388 . S
C807 C806 1.366 . S
C807 C811 1.385 . S
C808 H789 0.951 . S
C808 C806 1.388 . S
C808 C809 1.366 . S
C809 C808 1.366 . S
C809 C810 1.414 . S
C809 C812 1.499 . S
C810 H790 0.950 . S
C810 C809 1.414 . S
C810 C811 1.374 . S
C811 H791 0.950 . S
C811 C807 1.385 . S
C811 C810 1.374 . S
C812 C809 1.499 . S
C812 C813 1.373 . S
C812 C814 1.389 . S
C813 H792 0.950 . S
C813 C812 1.373 . S
C813 C829 1.377 . S
C814 C812 1.389 . S
C814 C815 1.524 . S
C814 C828 1.377 . S
C815 C814 1.524 . S
C815 C816 1.397 . S
C815 C820 1.363 . S
C816 H793 0.950 . S
C816 C815 1.397 . S
C816 C817 1.334 . S
C817 H794 0.950 . S
C817 C816 1.334 . S
C817 C818 1.287 . S
C818 C817 1.287 . S
C818 C819 1.524 . S
C818 H837 0.913 . S
C819 H795 0.950 . S
C819 C818 1.524 . S
C819 C820 1.415 . S
C820 H796 0.950 . S
C820 C815 1.363 . S
C820 C819 1.415 . S
C821 H797 0.951 . S
C821 C822 1.366 . S
C821 C823 1.388 . S
C822 C821 1.366 . S
C822 C826 1.385 . S
C823 H798 0.951 . S
C823 C821 1.388 . S
C823 C824 1.366 . S
C824 C823 1.366 . S
C824 C825 1.414 . S
C824 C827 1.499 . S
C825 H799 0.950 . S
C825 C824 1.414 . S
C825 C826 1.374 . S
C826 H800 0.950 . S
C826 C822 1.385 . S
C826 C825 1.374 . S
C827 C824 1.499 . S
C827 C828 1.373 . S
C827 C829 1.389 . S
C828 H801 0.950 . S
C828 C814 1.377 . S
C828 C827 1.373 . S
C829 C813 1.377 . S
C829 C827 1.389 . S
C829 C830 1.524 . S
C830 C829 1.524 . S
C830 C831 1.397 . S
C830 C835 1.363 . S
C831 H802 0.950 . S
C831 C830 1.397 . S
C831 C832 1.334 . S
C832 H803 0.950 . S
C832 C831 1.334 . S
C832 C833 1.287 . S
C833 C832 1.287 . S
C833 C834 1.524 . S
C833 H836 0.999 . S
C834 H804 0.950 . S
C834 C833 1.524 . S
C834 C835 1.415 . S
C835 H805 0.950 . S
C835 C830 1.363 . S
C835 C834 1.415 . S
H836 C833 0.999 . S
H837 C818 0.913 . S
H838 C856 0.951 . S
H839 C858 0.951 . S
H840 C860 0.950 . S
H841 C861 0.950 . S
H842 C863 0.950 . S
H843 C866 0.950 . S
H844 C867 0.950 . S
H845 C869 0.950 1_554 S
H846 C870 0.950 . S
H847 C871 0.951 . S
H848 C873 0.951 . S
H849 C875 0.950 . S
H850 C876 0.950 . S
H851 C878 0.950 . S
H852 C881 0.950 . S
H853 C882 0.950 . S
H854 C884 0.950 . S
H855 C885 0.950 . S
C856 H838 0.951 . S
C856 C857 1.366 . S
C856 C858 1.388 . S
C857 C856 1.366 . S
C857 C861 1.385 . S
C858 H839 0.951 . S
C858 C856 1.388 . S
C858 C859 1.366 . S
C859 C858 1.366 . S
C859 C860 1.414 . S
C859 C862 1.499 . S
C860 H840 0.950 . S
C860 C859 1.414 . S
C860 C861 1.374 . S
C861 H841 0.950 . S
C861 C857 1.385 . S
C861 C860 1.374 . S
C862 C859 1.499 . S
C862 C863 1.373 . S
C862 C864 1.389 . S
C863 H842 0.950 . S
C863 C862 1.373 . S
C863 C879 1.377 . S
C864 C862 1.389 . S
C864 C865 1.524 . S
C864 C878 1.377 . S
C865 C864 1.524 . S
C865 C866 1.397 . S
C865 C870 1.363 . S
C866 H843 0.950 . S
C866 C865 1.397 . S
C866 C867 1.334 . S
C867 H844 0.950 . S
C867 C866 1.334 . S
C867 C868 1.287 . S
C868 C867 1.287 . S
C868 C869 1.524 . S
C868 H887 0.913 1_556 S
C869 H845 0.950 1_556 S
C869 C868 1.524 . S
C869 C870 1.415 . S
C870 H846 0.950 . S
C870 C865 1.363 . S
C870 C869 1.415 . S
C871 H847 0.951 . S
C871 C872 1.366 . S
C871 C873 1.388 . S
C872 C871 1.366 . S
C872 C876 1.385 . S
C873 H848 0.951 . S
C873 C871 1.388 . S
C873 C874 1.366 . S
C874 C873 1.366 . S
C874 C875 1.414 . S
C874 C877 1.499 . S
C875 H849 0.950 . S
C875 C874 1.414 . S
C875 C876 1.374 . S
C876 H850 0.950 . S
C876 C872 1.385 . S
C876 C875 1.374 . S
C877 C874 1.499 . S
C877 C878 1.373 . S
C877 C879 1.389 . S
C878 H851 0.950 . S
C878 C864 1.377 . S
C878 C877 1.373 . S
C879 C863 1.377 . S
C879 C877 1.389 . S
C879 C880 1.524 . S
C880 C879 1.524 . S
C880 C881 1.397 . S
C880 C885 1.363 . S
C881 H852 0.950 . S
C881 C880 1.397 . S
C881 C882 1.334 . S
C882 H853 0.950 . S
C882 C881 1.334 . S
C882 C883 1.287 . S
C883 C882 1.287 . S
C883 C884 1.524 . S
C883 H886 0.999 . S
C884 H854 0.950 . S
C884 C883 1.524 . S
C884 C885 1.415 . S
C885 H855 0.950 . S
C885 C880 1.363 . S
C885 C884 1.415 . S
H886 C883 0.999 . S
H887 C868 0.913 1_554 S
H888 C906 0.951 . S
H889 C908 0.951 . S
H890 C910 0.950 . S
H891 C911 0.950 . S
H892 C913 0.950 1_554 S
H893 C916 0.950 . S
H894 C917 0.950 . S
H895 C919 0.950 . S
H896 C920 0.950 . S
H897 C921 0.951 . S
H898 C923 0.951 . S
H899 C925 0.950 . S
H900 C926 0.950 . S
H901 C928 0.950 . S
H902 C931 0.950 . S
H903 C932 0.950 . S
H904 C934 0.950 . S
H905 C935 0.950 . S
C906 H888 0.951 . S
C906 C907 1.366 1_556 S
C906 C908 1.388 . S
C907 C906 1.366 1_554 S
C907 C911 1.385 . S
C908 H889 0.951 . S
C908 C906 1.388 . S
C908 C909 1.366 . S
C909 C908 1.366 . S
C909 C910 1.414 1_556 S
C909 C912 1.499 . S
C910 H890 0.950 . S
C910 C909 1.414 1_554 S
C910 C911 1.374 . S
C911 H891 0.950 . S
C911 C907 1.385 . S
C911 C910 1.374 . S
C912 C909 1.499 . S
C912 C913 1.373 . S
C912 C914 1.389 . S
C913 H892 0.950 1_556 S
C913 C912 1.373 . S
C913 C929 1.377 . S
C914 C912 1.389 . S
C914 C915 1.524 . S
C914 C928 1.377 . S
C915 C914 1.524 . S
C915 C916 1.397 . S
C915 C920 1.363 . S
C916 H893 0.950 . S
C916 C915 1.397 . S
C916 C917 1.334 . S
C917 H894 0.950 . S
C917 C916 1.334 . S
C917 C918 1.287 . S
C918 C917 1.287 . S
C918 C919 1.524 . S
C918 H937 0.913 . S
C919 H895 0.950 . S
C919 C918 1.524 . S
C919 C920 1.415 . S
C920 H896 0.950 . S
C920 C915 1.363 . S
C920 C919 1.415 . S
C921 H897 0.951 . S
C921 C922 1.366 . S
C921 C923 1.388 . S
C922 C921 1.366 . S
C922 C926 1.385 . S
C923 H898 0.951 . S
C923 C921 1.388 . S
C923 C924 1.366 . S
C924 C923 1.366 . S
C924 C925 1.414 . S
C924 C927 1.499 . S
C925 H899 0.950 . S
C925 C924 1.414 . S
C925 C926 1.374 . S
C926 H900 0.950 . S
C926 C922 1.385 . S
C926 C925 1.374 . S
C927 C924 1.499 . S
C927 C928 1.373 . S
C927 C929 1.389 . S
C928 H901 0.950 . S
C928 C914 1.377 . S
C928 C927 1.373 . S
C929 C913 1.377 . S
C929 C927 1.389 . S
C929 C930 1.524 . S
C930 C929 1.524 . S
C930 C931 1.397 . S
C930 C935 1.363 1_556 S
C931 H902 0.950 . S
C931 C930 1.397 . S
C931 C932 1.334 . S
C932 H903 0.950 . S
C932 C931 1.334 . S
C932 C933 1.287 1_556 S
C933 C932 1.287 1_554 S
C933 C934 1.524 . S
C933 H936 0.999 . S
C934 H904 0.950 . S
C934 C933 1.524 . S
C934 C935 1.415 . S
C935 H905 0.950 . S
C935 C930 1.363 1_554 S
C935 C934 1.415 . S
H936 C933 0.999 . S
H937 C918 0.913 . S
H938 C956 0.951 . S
H939 C958 0.951 . S
H940 C960 0.950 . S
H941 C961 0.950 . S
H942 C963 0.950 . S
H943 C966 0.950 . S
H944 C967 0.950 . S
H945 C969 0.950 . S
H946 C970 0.950 . S
H947 C971 0.951 1_556 S
H948 C973 0.951 . S
H949 C975 0.950 . S
H950 C976 0.950 . S
H951 C978 0.950 . S
H952 C981 0.950 . S
H953 C982 0.950 . S
H954 C984 0.950 . S
H955 C985 0.950 1_554 S
C956 H938 0.951 . S
C956 C957 1.366 . S
C956 C958 1.388 . S
C957 C956 1.366 . S
C957 C961 1.385 . S
C958 H939 0.951 . S
C958 C956 1.388 . S
C958 C959 1.366 . S
C959 C958 1.366 . S
C959 C960 1.414 . S
C959 C962 1.499 . S
C960 H940 0.950 . S
C960 C959 1.414 . S
C960 C961 1.374 . S
C961 H941 0.950 . S
C961 C957 1.385 . S
C961 C960 1.374 . S
C962 C959 1.499 . S
C962 C963 1.373 . S
C962 C964 1.389 . S
C963 H942 0.950 . S
C963 C962 1.373 . S
C963 C979 1.377 . S
C964 C962 1.389 . S
C964 C965 1.524 . S
C964 C978 1.377 . S
C965 C964 1.524 . S
C965 C966 1.397 . S
C965 C970 1.363 . S
C966 H943 0.950 . S
C966 C965 1.397 . S
C966 C967 1.334 . S
C967 H944 0.950 . S
C967 C966 1.334 . S
C967 C968 1.287 . S
C968 C967 1.287 . S
C968 C969 1.524 . S
C968 H987 0.913 . S
C969 H945 0.950 . S
C969 C968 1.524 . S
C969 C970 1.415 . S
C970 H946 0.950 . S
C970 C965 1.363 . S
C970 C969 1.415 . S
C971 H947 0.951 1_554 S
C971 C972 1.366 1_554 S
C971 C973 1.388 . S
C972 C971 1.366 1_556 S
C972 C976 1.385 . S
C973 H948 0.951 . S
C973 C971 1.388 . S
C973 C974 1.366 . S
C974 C973 1.366 . S
C974 C975 1.414 . S
C974 C977 1.499 . S
C975 H949 0.950 . S
C975 C974 1.414 . S
C975 C976 1.374 1_554 S
C976 H950 0.950 . S
C976 C972 1.385 . S
C976 C975 1.374 1_556 S
C977 C974 1.499 . S
C977 C978 1.373 . S
C977 C979 1.389 . S
C978 H951 0.950 . S
C978 C964 1.377 . S
C978 C977 1.373 . S
C979 C963 1.377 . S
C979 C977 1.389 . S
C979 C980 1.524 1_554 S
C980 C979 1.524 1_556 S
C980 C981 1.397 . S
C980 C985 1.363 . S
C981 H952 0.950 . S
C981 C980 1.397 . S
C981 C982 1.334 . S
C982 H953 0.950 . S
C982 C981 1.334 . S
C982 C983 1.287 . S
C983 C982 1.287 . S
C983 C984 1.524 . S
C983 H986 0.999 . S
C984 H954 0.950 . S
C984 C983 1.524 . S
C984 C985 1.415 . S
C985 H955 0.950 1_556 S
C985 C980 1.363 . S
C985 C984 1.415 . S
H986 C983 0.999 . S
H987 C968 0.913 . S
H988 C1006 0.951 . S
H989 C1008 0.951 . S
H990 C1010 0.950 . S
H991 C1011 0.950 . S
H992 C1013 0.950 . S
H993 C1016 0.950 . S
H994 C1017 0.950 . S
H995 C1019 0.950 . S
H996 C1020 0.950 . S
H997 C1021 0.951 . S
H998 C1023 0.951 . S
H999 C1025 0.950 . S
H1000 C1026 0.950 . S
H1001 C1028 0.950 . S
H1002 C1031 0.950 . S
H1003 C1032 0.950 . S
H1004 C1034 0.950 . S
H1005 C1035 0.950 . S
C1006 H988 0.951 . S
C1006 C1007 1.366 . S
C1006 C1008 1.388 . S
C1007 C1006 1.366 . S
C1007 C1011 1.385 . S
C1008 H989 0.951 . S
C1008 C1006 1.388 . S
C1008 C1009 1.366 . S
C1009 C1008 1.366 . S
C1009 C1010 1.414 . S
C1009 C1012 1.499 . S
C1010 H990 0.950 . S
C1010 C1009 1.414 . S
C1010 C1011 1.374 . S
C1011 H991 0.950 . S
C1011 C1007 1.385 . S
C1011 C1010 1.374 . S
C1012 C1009 1.499 . S
C1012 C1013 1.373 . S
C1012 C1014 1.389 . S
C1013 H992 0.950 . S
C1013 C1012 1.373 . S
C1013 C1029 1.377 . S
C1014 C1012 1.389 . S
C1014 C1015 1.524 . S
C1014 C1028 1.377 . S
C1015 C1014 1.524 . S
C1015 C1016 1.397 . S
C1015 C1020 1.363 . S
C1016 H993 0.950 . S
C1016 C1015 1.397 . S
C1016 C1017 1.334 . S
C1017 H994 0.950 . S
C1017 C1016 1.334 . S
C1017 C1018 1.287 . S
C1018 C1017 1.287 . S
C1018 C1019 1.524 . S
C1018 H1037 0.913 . S
C1019 H995 0.950 . S
C1019 C1018 1.524 . S
C1019 C1020 1.415 . S
C1020 H996 0.950 . S
C1020 C1015 1.363 . S
C1020 C1019 1.415 . S
C1021 H997 0.951 . S
C1021 C1022 1.366 . S
C1021 C1023 1.388 . S
C1022 C1021 1.366 . S
C1022 C1026 1.385 . S
C1023 H998 0.951 . S
C1023 C1021 1.388 . S
C1023 C1024 1.366 . S
C1024 C1023 1.366 . S
C1024 C1025 1.414 . S
C1024 C1027 1.499 . S
C1025 H999 0.950 . S
C1025 C1024 1.414 . S
C1025 C1026 1.374 . S
C1026 H1000 0.950 . S
C1026 C1022 1.385 . S
C1026 C1025 1.374 . S
C1027 C1024 1.499 . S
C1027 C1028 1.373 . S
C1027 C1029 1.389 . S
C1028 H1001 0.950 . S
C1028 C1014 1.377 . S
C1028 C1027 1.373 . S
C1029 C1013 1.377 . S
C1029 C1027 1.389 . S
C1029 C1030 1.524 . S
C1030 C1029 1.524 . S
C1030 C1031 1.397 . S
C1030 C1035 1.363 . S
C1031 H1002 0.950 . S
C1031 C1030 1.397 . S
C1031 C1032 1.334 . S
C1032 H1003 0.950 . S
C1032 C1031 1.334 . S
C1032 C1033 1.287 . S
C1033 C1032 1.287 . S
C1033 C1034 1.524 . S
C1033 H1036 0.999 . S
C1034 H1004 0.950 . S
C1034 C1033 1.524 . S
C1034 C1035 1.415 . S
C1035 H1005 0.950 . S
C1035 C1030 1.363 . S
C1035 C1034 1.415 . S
H1036 C1033 0.999 . S
H1037 C1018 0.913 . S
C157 C17 1.210 . S
C172 C16 1.209 . S
C207 C40 1.210 . S
C222 C39 1.209 . S
C257 C62 1.209 . S
C272 C63 1.210 . S
C307 C85 1.209 . S
C322 C86 1.210 . S
C357 C108 1.209 . S
C372 C109 1.210 . S
C407 C132 1.210 . S
C422 C131 1.209 . S
C457 C20 1.452 . S
C472 C136 1.424 . S
C507 C21 1.425 . S
C522 C43 1.453 . S
C557 C66 1.452 . S
C572 C44 1.424 . S
C607 C89 1.452 . S
C622 C67 1.424 . S
C657 C112 1.452 . S
C672 C90 1.424 . S
C707 C113 1.424 . S
C722 C135 1.452 . S
C757 C19 1.635 . S
C772 C110 1.661 . S
C807 C42 1.635 . S
C822 C133 1.661 . S
C857 C65 1.635 . S
C872 C18 1.661 . S
C907 C88 1.635 . S
C922 C41 1.661 . S
C957 C111 1.636 . S
C972 C64 1.662 . S
C1007 C87 1.662 . S
C1022 C134 1.635 . S
