# Generated by pormake.
# Topology wna, (6)-cn, num edge types: 1
# Building blocks:
#     Node 0, Type 0, BuildingBlock: CUWYAW_clean_sbu_0, # of connection points: 6
#     Node 1, Type 0, BuildingBlock: CUWYAW_clean_sbu_0, # of connection points: 6
#     Node 2, Type 0, BuildingBlock: CUWYAW_clean_sbu_0, # of connection points: 6
#     Node 3, Type 0, BuildingBlock: CUWYAW_clean_sbu_0, # of connection points: 6
#     Node 4, Type 0, BuildingBlock: CUWYAW_clean_sbu_0, # of connection points: 6
#     Node 5, Type 0, BuildingBlock: CUWYAW_clean_sbu_0, # of connection points: 6
#     Node 6, Type 0, BuildingBlock: CUWYAW_clean_sbu_0, # of connection points: 6
#     Node 7, Type 0, BuildingBlock: CUWYAW_clean_sbu_0, # of connection points: 6
#     Node 8, Type 0, BuildingBlock: CUWYAW_clean_sbu_0, # of connection points: 6
#     Node 9, Type 0, BuildingBlock: CUWYAW_clean_sbu_0, # of connection points: 6
#     Node 10, Type 0, BuildingBlock: CUWYAW_clean_sbu_0, # of connection points: 6
#     Node 11, Type 0, BuildingBlock: CUWYAW_clean_sbu_0, # of connection points: 6
#     Node 12, Type 0, BuildingBlock: CUWYAW_clean_sbu_0, # of connection points: 6
#     Node 13, Type 0, BuildingBlock: CUWYAW_clean_sbu_0, # of connection points: 6
#     Node 14, Type 0, BuildingBlock: CUWYAW_clean_sbu_0, # of connection points: 6
#     Node 15, Type 0, BuildingBlock: CUWYAW_clean_sbu_0, # of connection points: 6
#     Node 16, Type 0, BuildingBlock: CUWYAW_clean_sbu_0, # of connection points: 6
#     Node 17, Type 0, BuildingBlock: CUWYAW_clean_sbu_0, # of connection points: 6
#     Node 18, Type 0, BuildingBlock: CUWYAW_clean_sbu_0, # of connection points: 6
#     Node 19, Type 0, BuildingBlock: CUWYAW_clean_sbu_0, # of connection points: 6
#     Node 20, Type 0, BuildingBlock: CUWYAW_clean_sbu_0, # of connection points: 6
#     Node 21, Type 0, BuildingBlock: CUWYAW_clean_sbu_0, # of connection points: 6
#     Node 22, Type 0, BuildingBlock: CUWYAW_clean_sbu_0, # of connection points: 6
#     Node 23, Type 0, BuildingBlock: CUWYAW_clean_sbu_0, # of connection points: 6
#     Node 24, Type 0, BuildingBlock: CUWYAW_clean_sbu_0, # of connection points: 6
#     Node 25, Type 0, BuildingBlock: CUWYAW_clean_sbu_0, # of connection points: 6
#     Node 26, Type 0, BuildingBlock: CUWYAW_clean_sbu_0, # of connection points: 6
#     Node 27, Type 0, BuildingBlock: CUWYAW_clean_sbu_0, # of connection points: 6
#     Node 28, Type 0, BuildingBlock: CUWYAW_clean_sbu_0, # of connection points: 6
#     Node 29, Type 0, BuildingBlock: CUWYAW_clean_sbu_0, # of connection points: 6
#     Node 30, Type 0, BuildingBlock: CUWYAW_clean_sbu_0, # of connection points: 6
#     Node 31, Type 0, BuildingBlock: CUWYAW_clean_sbu_0, # of connection points: 6
#     Node 32, Type 0, BuildingBlock: CUWYAW_clean_sbu_0, # of connection points: 6
#     Node 33, Type 0, BuildingBlock: CUWYAW_clean_sbu_0, # of connection points: 6
#     Node 34, Type 0, BuildingBlock: CUWYAW_clean_sbu_0, # of connection points: 6
#     Node 35, Type 0, BuildingBlock: CUWYAW_clean_sbu_0, # of connection points: 6
#     Edge 36, Type (0, 0), BuildingBlock: OJICUG_clean_linker_0, # of connection points: 2
#     Edge 37, Type (0, 0), BuildingBlock: OJICUG_clean_linker_0, # of connection points: 2
#     Edge 38, Type (0, 0), BuildingBlock: OJICUG_clean_linker_0, # of connection points: 2
#     Edge 39, Type (0, 0), BuildingBlock: OJICUG_clean_linker_0, # of connection points: 2
#     Edge 40, Type (0, 0), BuildingBlock: OJICUG_clean_linker_0, # of connection points: 2
#     Edge 41, Type (0, 0), BuildingBlock: OJICUG_clean_linker_0, # of connection points: 2
#     Edge 42, Type (0, 0), BuildingBlock: OJICUG_clean_linker_0, # of connection points: 2
#     Edge 43, Type (0, 0), BuildingBlock: OJICUG_clean_linker_0, # of connection points: 2
#     Edge 44, Type (0, 0), BuildingBlock: OJICUG_clean_linker_0, # of connection points: 2
#     Edge 45, Type (0, 0), BuildingBlock: OJICUG_clean_linker_0, # of connection points: 2
#     Edge 46, Type (0, 0), BuildingBlock: OJICUG_clean_linker_0, # of connection points: 2
#     Edge 47, Type (0, 0), BuildingBlock: OJICUG_clean_linker_0, # of connection points: 2
#     Edge 48, Type (0, 0), BuildingBlock: OJICUG_clean_linker_0, # of connection points: 2
#     Edge 49, Type (0, 0), BuildingBlock: OJICUG_clean_linker_0, # of connection points: 2
#     Edge 50, Type (0, 0), BuildingBlock: OJICUG_clean_linker_0, # of connection points: 2
#     Edge 51, Type (0, 0), BuildingBlock: OJICUG_clean_linker_0, # of connection points: 2
#     Edge 52, Type (0, 0), BuildingBlock: OJICUG_clean_linker_0, # of connection points: 2
#     Edge 53, Type (0, 0), BuildingBlock: OJICUG_clean_linker_0, # of connection points: 2
#     Edge 54, Type (0, 0), BuildingBlock: OJICUG_clean_linker_0, # of connection points: 2
#     Edge 55, Type (0, 0), BuildingBlock: OJICUG_clean_linker_0, # of connection points: 2
#     Edge 56, Type (0, 0), BuildingBlock: OJICUG_clean_linker_0, # of connection points: 2
#     Edge 57, Type (0, 0), BuildingBlock: OJICUG_clean_linker_0, # of connection points: 2
#     Edge 58, Type (0, 0), BuildingBlock: OJICUG_clean_linker_0, # of connection points: 2
#     Edge 59, Type (0, 0), BuildingBlock: OJICUG_clean_linker_0, # of connection points: 2
#     Edge 60, Type (0, 0), BuildingBlock: OJICUG_clean_linker_0, # of connection points: 2
#     Edge 61, Type (0, 0), BuildingBlock: OJICUG_clean_linker_0, # of connection points: 2
#     Edge 62, Type (0, 0), BuildingBlock: OJICUG_clean_linker_0, # of connection points: 2
#     Edge 63, Type (0, 0), BuildingBlock: OJICUG_clean_linker_0, # of connection points: 2
#     Edge 64, Type (0, 0), BuildingBlock: OJICUG_clean_linker_0, # of connection points: 2
#     Edge 65, Type (0, 0), BuildingBlock: OJICUG_clean_linker_0, # of connection points: 2
#     Edge 66, Type (0, 0), BuildingBlock: OJICUG_clean_linker_0, # of connection points: 2
#     Edge 67, Type (0, 0), BuildingBlock: OJICUG_clean_linker_0, # of connection points: 2
#     Edge 68, Type (0, 0), BuildingBlock: OJICUG_clean_linker_0, # of connection points: 2
#     Edge 69, Type (0, 0), BuildingBlock: OJICUG_clean_linker_0, # of connection points: 2
#     Edge 70, Type (0, 0), BuildingBlock: OJICUG_clean_linker_0, # of connection points: 2
#     Edge 71, Type (0, 0), BuildingBlock: OJICUG_clean_linker_0, # of connection points: 2
#     Edge 72, Type (0, 0), BuildingBlock: OJICUG_clean_linker_0, # of connection points: 2
#     Edge 73, Type (0, 0), BuildingBlock: OJICUG_clean_linker_0, # of connection points: 2
#     Edge 74, Type (0, 0), BuildingBlock: OJICUG_clean_linker_0, # of connection points: 2
#     Edge 75, Type (0, 0), BuildingBlock: OJICUG_clean_linker_0, # of connection points: 2
#     Edge 76, Type (0, 0), BuildingBlock: OJICUG_clean_linker_0, # of connection points: 2
#     Edge 77, Type (0, 0), BuildingBlock: OJICUG_clean_linker_0, # of connection points: 2
#     Edge 78, Type (0, 0), BuildingBlock: OJICUG_clean_linker_0, # of connection points: 2
#     Edge 79, Type (0, 0), BuildingBlock: OJICUG_clean_linker_0, # of connection points: 2
#     Edge 80, Type (0, 0), BuildingBlock: OJICUG_clean_linker_0, # of connection points: 2
#     Edge 81, Type (0, 0), BuildingBlock: OJICUG_clean_linker_0, # of connection points: 2
#     Edge 82, Type (0, 0), BuildingBlock: OJICUG_clean_linker_0, # of connection points: 2
#     Edge 83, Type (0, 0), BuildingBlock: OJICUG_clean_linker_0, # of connection points: 2
#     Edge 84, Type (0, 0), BuildingBlock: OJICUG_clean_linker_0, # of connection points: 2
#     Edge 85, Type (0, 0), BuildingBlock: OJICUG_clean_linker_0, # of connection points: 2
#     Edge 86, Type (0, 0), BuildingBlock: OJICUG_clean_linker_0, # of connection points: 2
#     Edge 87, Type (0, 0), BuildingBlock: OJICUG_clean_linker_0, # of connection points: 2
#     Edge 88, Type (0, 0), BuildingBlock: OJICUG_clean_linker_0, # of connection points: 2
#     Edge 89, Type (0, 0), BuildingBlock: OJICUG_clean_linker_0, # of connection points: 2
#     Edge 90, Type (0, 0), BuildingBlock: OJICUG_clean_linker_0, # of connection points: 2
#     Edge 91, Type (0, 0), BuildingBlock: OJICUG_clean_linker_0, # of connection points: 2
#     Edge 92, Type (0, 0), BuildingBlock: OJICUG_clean_linker_0, # of connection points: 2
#     Edge 93, Type (0, 0), BuildingBlock: OJICUG_clean_linker_0, # of connection points: 2
#     Edge 94, Type (0, 0), BuildingBlock: OJICUG_clean_linker_0, # of connection points: 2
#     Edge 95, Type (0, 0), BuildingBlock: OJICUG_clean_linker_0, # of connection points: 2
#     Edge 96, Type (0, 0), BuildingBlock: OJICUG_clean_linker_0, # of connection points: 2
#     Edge 97, Type (0, 0), BuildingBlock: OJICUG_clean_linker_0, # of connection points: 2
#     Edge 98, Type (0, 0), BuildingBlock: OJICUG_clean_linker_0, # of connection points: 2
#     Edge 99, Type (0, 0), BuildingBlock: OJICUG_clean_linker_0, # of connection points: 2
#     Edge 100, Type (0, 0), BuildingBlock: OJICUG_clean_linker_0, # of connection points: 2
#     Edge 101, Type (0, 0), BuildingBlock: OJICUG_clean_linker_0, # of connection points: 2
#     Edge 102, Type (0, 0), BuildingBlock: OJICUG_clean_linker_0, # of connection points: 2
#     Edge 103, Type (0, 0), BuildingBlock: OJICUG_clean_linker_0, # of connection points: 2
#     Edge 104, Type (0, 0), BuildingBlock: OJICUG_clean_linker_0, # of connection points: 2
#     Edge 105, Type (0, 0), BuildingBlock: OJICUG_clean_linker_0, # of connection points: 2
#     Edge 106, Type (0, 0), BuildingBlock: OJICUG_clean_linker_0, # of connection points: 2
#     Edge 107, Type (0, 0), BuildingBlock: OJICUG_clean_linker_0, # of connection points: 2
#     Edge 108, Type (0, 0), BuildingBlock: OJICUG_clean_linker_0, # of connection points: 2
#     Edge 109, Type (0, 0), BuildingBlock: OJICUG_clean_linker_0, # of connection points: 2
#     Edge 110, Type (0, 0), BuildingBlock: OJICUG_clean_linker_0, # of connection points: 2
#     Edge 111, Type (0, 0), BuildingBlock: OJICUG_clean_linker_0, # of connection points: 2
#     Edge 112, Type (0, 0), BuildingBlock: OJICUG_clean_linker_0, # of connection points: 2
#     Edge 113, Type (0, 0), BuildingBlock: OJICUG_clean_linker_0, # of connection points: 2
#     Edge 114, Type (0, 0), BuildingBlock: OJICUG_clean_linker_0, # of connection points: 2
#     Edge 115, Type (0, 0), BuildingBlock: OJICUG_clean_linker_0, # of connection points: 2
#     Edge 116, Type (0, 0), BuildingBlock: OJICUG_clean_linker_0, # of connection points: 2
#     Edge 117, Type (0, 0), BuildingBlock: OJICUG_clean_linker_0, # of connection points: 2
#     Edge 118, Type (0, 0), BuildingBlock: OJICUG_clean_linker_0, # of connection points: 2
#     Edge 119, Type (0, 0), BuildingBlock: OJICUG_clean_linker_0, # of connection points: 2
#     Edge 120, Type (0, 0), BuildingBlock: OJICUG_clean_linker_0, # of connection points: 2
#     Edge 121, Type (0, 0), BuildingBlock: OJICUG_clean_linker_0, # of connection points: 2
#     Edge 122, Type (0, 0), BuildingBlock: OJICUG_clean_linker_0, # of connection points: 2
#     Edge 123, Type (0, 0), BuildingBlock: OJICUG_clean_linker_0, # of connection points: 2
#     Edge 124, Type (0, 0), BuildingBlock: OJICUG_clean_linker_0, # of connection points: 2
#     Edge 125, Type (0, 0), BuildingBlock: OJICUG_clean_linker_0, # of connection points: 2
#     Edge 126, Type (0, 0), BuildingBlock: OJICUG_clean_linker_0, # of connection points: 2
#     Edge 127, Type (0, 0), BuildingBlock: OJICUG_clean_linker_0, # of connection points: 2
#     Edge 128, Type (0, 0), BuildingBlock: OJICUG_clean_linker_0, # of connection points: 2
#     Edge 129, Type (0, 0), BuildingBlock: OJICUG_clean_linker_0, # of connection points: 2
#     Edge 130, Type (0, 0), BuildingBlock: OJICUG_clean_linker_0, # of connection points: 2
#     Edge 131, Type (0, 0), BuildingBlock: OJICUG_clean_linker_0, # of connection points: 2
#     Edge 132, Type (0, 0), BuildingBlock: OJICUG_clean_linker_0, # of connection points: 2
#     Edge 133, Type (0, 0), BuildingBlock: OJICUG_clean_linker_0, # of connection points: 2
#     Edge 134, Type (0, 0), BuildingBlock: OJICUG_clean_linker_0, # of connection points: 2
#     Edge 135, Type (0, 0), BuildingBlock: OJICUG_clean_linker_0, # of connection points: 2
#     Edge 136, Type (0, 0), BuildingBlock: OJICUG_clean_linker_0, # of connection points: 2
#     Edge 137, Type (0, 0), BuildingBlock: OJICUG_clean_linker_0, # of connection points: 2
#     Edge 138, Type (0, 0), BuildingBlock: OJICUG_clean_linker_0, # of connection points: 2
#     Edge 139, Type (0, 0), BuildingBlock: OJICUG_clean_linker_0, # of connection points: 2
#     Edge 140, Type (0, 0), BuildingBlock: OJICUG_clean_linker_0, # of connection points: 2
#     Edge 141, Type (0, 0), BuildingBlock: OJICUG_clean_linker_0, # of connection points: 2
#     Edge 142, Type (0, 0), BuildingBlock: OJICUG_clean_linker_0, # of connection points: 2
#     Edge 143, Type (0, 0), BuildingBlock: OJICUG_clean_linker_0, # of connection points: 2
# Relax obj value: 0.136
# Max RMSD: 0.229
# Mean RMSD: 0.210
data_MOF--net-wna--node1-CUWYAW_clean_sbu_0--edge1-OJICUG_clean_linker_0
_symmetry_space_group_name_H-M    P1
_symmetry_Int_Tables_number       1
_symmetry_cell_setting            triclinic
loop_
_symmetry_equiv_pos_as_xyz
'x, y, z'
_cell_length_a     29.578853
_cell_length_b     29.588799
_cell_length_c     129.23049
_cell_angle_alpha  90.078116
_cell_angle_beta   89.968322
_cell_angle_gamma 120.08834
loop_
_atom_site_label
_atom_site_type_symbol
_atom_site_fract_x
_atom_site_fract_y
_atom_site_fract_z
_atom_type_partial_charge
C0 C 0.14907 0.22277 0.21709 0.0
Eu1 Eu 0.14339 0.25458 0.19857 0.0
C2 C 0.12367 0.21292 0.22739 0.0
C3 C 0.10867 0.24688 0.2318 0.0
C4 C 0.08497 0.23633 0.2416 0.0
C5 C 0.07546 0.19143 0.24717 0.0
C6 C 0.09044 0.15756 0.24267 0.0
C7 C 0.11425 0.16824 0.23292 0.0
C8 C 0.10645 0.32127 0.19343 0.0
C9 C 0.0374 0.17791 0.18551 0.0
C10 C 0.12319 0.30381 0.15558 0.0
Eu11 Eu 0.13683 0.26982 0.17318 0.0
C12 C 0.14298 0.31656 0.14486 0.0
C13 C 0.15726 0.28494 0.13925 0.0
C14 C 0.16981 0.29441 0.12872 0.0
C15 C 0.16849 0.33577 0.12361 0.0
C16 C 0.15598 0.36838 0.12939 0.0
C17 C 0.1433 0.35878 0.13989 0.0
C18 C 0.16838 0.19959 0.17791 0.0
C19 C 0.24985 0.32913 0.18481 0.0
O20 O 0.12102 0.19117 0.20961 0.0
O21 O 0.17769 0.27149 0.21404 0.0
O22 O 0.11364 0.31119 0.20286 0.0
O23 O 0.11987 0.29588 0.18771 0.0
O24 O 0.06582 0.18441 0.19392 0.0
O25 O 0.05388 0.21118 0.17764 0.0
O26 O 0.15255 0.33514 0.16301 0.0
O27 O 0.09895 0.25429 0.1582 0.0
O28 O 0.16389 0.21218 0.16845 0.0
O29 O 0.15732 0.22613 0.18391 0.0
O30 O 0.221 0.32838 0.17685 0.0
O31 O 0.22929 0.30129 0.19342 0.0
H32 H 0.11512 0.28146 0.22767 0.0
H33 H 0.07347 0.26298 0.24476 0.0
H34 H 0.0845 0.12306 0.24675 0.0
H35 H 0.12555 0.14152 0.22969 0.0
H36 H 0.15747 0.25216 0.14292 0.0
H37 H 0.17992 0.26896 0.12454 0.0
H38 H 0.15389 0.40014 0.12571 0.0
H39 H 0.13206 0.38343 0.14406 0.0
C40 C 0.82744 0.93675 0.21662 0.0
Eu41 Eu 0.79565 0.89884 0.19806 0.0
C42 C 0.83739 0.92176 0.22699 0.0
C43 C 0.80076 0.8755 0.23198 0.0
C44 C 0.81072 0.86362 0.24196 0.0
C45 C 0.85756 0.89766 0.24719 0.0
C46 C 0.89432 0.94358 0.24207 0.0
C47 C 0.88429 0.95543 0.23213 0.0
C48 C 0.7304 0.79379 0.19363 0.0
C49 C 0.86972 0.86436 0.18587 0.0
C50 C 0.74781 0.83296 0.15533 0.0
Eu51 Eu 0.78271 0.87506 0.17345 0.0
C52 C 0.73339 0.84151 0.14485 0.0
C53 C 0.76495 0.8877 0.1393 0.0
C54 C 0.75471 0.89152 0.12884 0.0
C55 C 0.71269 0.84929 0.12373 0.0
C56 C 0.67998 0.80402 0.12946 0.0
C57 C 0.69031 0.80021 0.13989 0.0
C58 C 0.86104 0.97159 0.17877 0.0
C59 C 0.7206 0.92923 0.18427 0.0
O60 O 0.85918 0.94073 0.20913 0.0
O61 O 0.77874 0.91621 0.21353 0.0
O62 O 0.73955 0.81293 0.20292 0.0
O63 O 0.75574 0.83156 0.18772 0.0
O64 O 0.86651 0.89277 0.19346 0.0
O65 O 0.83329 0.84243 0.17864 0.0
O66 O 0.71687 0.82746 0.16309 0.0
O67 O 0.79741 0.85913 0.1578 0.0
O68 O 0.8591 0.94833 0.17009 0.0
O69 O 0.81811 0.94594 0.18352 0.0
O70 O 0.72736 0.90622 0.17604 0.0
O71 O 0.74458 0.93355 0.19327 0.0
H72 H 0.76421 0.84868 0.22823 0.0
H73 H 0.78116 0.82818 0.24564 0.0
H74 H 0.93123 0.97039 0.2457 0.0
H75 H 0.91327 0.99128 0.22846 0.0
H76 H 0.79846 0.92024 0.14294 0.0
H77 H 0.78026 0.92723 0.12471 0.0
H78 H 0.64769 0.77046 0.12578 0.0
H79 H 0.66573 0.76404 0.14399 0.0
C80 C 0.11226 0.90163 0.21651 0.0
Eu81 Eu 0.15065 0.90789 0.19802 0.0
C82 C 0.12743 0.92699 0.22683 0.0
C83 C 0.17745 0.94496 0.23102 0.0
C84 C 0.19015 0.96812 0.24088 0.0
C85 C 0.15323 0.97411 0.24674 0.0
C86 C 0.10334 0.95626 0.24244 0.0
C87 C 0.09067 0.93301 0.23263 0.0
C88 C 0.25596 0.94806 0.19377 0.0
C89 C 0.18599 1.01678 0.18591 0.0
C90 C 0.21499 0.92522 0.15534 0.0
Eu91 Eu 0.17413 0.91839 0.17355 0.0
C92 C 0.20362 0.90324 0.14474 0.0
C93 C 0.16645 0.90625 0.13843 0.0
C94 C 0.1621 0.89287 0.12794 0.0
C95 C 0.19462 0.87601 0.12354 0.0
C96 C 0.23004 0.87072 0.12997 0.0
C97 C 0.23461 0.88441 0.14045 0.0
C98 C 0.0771 0.89896 0.17881 0.0
C99 C 0.121 0.80207 0.18437 0.0
O100 O 0.10846 0.92934 0.20901 0.0
O101 O 0.13312 0.87374 0.21348 0.0
O102 O 0.23649 0.93849 0.20302 0.0
O103 O 0.21837 0.93504 0.18775 0.0
O104 O 0.15654 0.9848 0.19337 0.0
O105 O 0.20816 1.00189 0.17882 0.0
O106 O 0.21772 0.89684 0.16284 0.0
O107 O 0.19331 0.95243 0.15822 0.0
O108 O 0.10028 0.92052 0.17016 0.0
O109 O 0.10317 0.88228 0.18355 0.0
O110 O 0.14407 0.83194 0.17616 0.0
O111 O 0.11636 0.82182 0.19333 0.0
H112 H 0.2067 0.94113 0.22668 0.0
H113 H 0.22912 0.98191 0.24387 0.0
H114 H 0.0736 0.95943 0.24674 0.0
H115 H 0.05182 0.91938 0.22957 0.0
H116 H 0.14189 0.92058 0.1415 0.0
H117 H 0.13397 0.89673 0.12322 0.0
H118 H 0.25606 0.85839 0.12681 0.0
H119 H 0.2639 0.88221 0.14511 0.0
C120 C 0.22515 0.13172 0.31907 0.0
Eu121 Eu 0.25875 0.12723 0.33749 0.0
C122 C 0.21631 0.10755 0.30863 0.0
C123 C 0.25491 0.10181 0.30342 0.0
C124 C 0.24566 0.08039 0.29341 0.0
C125 C 0.19762 0.06418 0.28837 0.0
C126 C 0.15896 0.06944 0.29371 0.0
C127 C 0.16827 0.09091 0.30368 0.0
C128 C 0.32682 0.09171 0.3424 0.0
C129 C 0.18399 0.02237 0.35095 0.0
C130 C 0.3136 0.11006 0.38026 0.0
Eu131 Eu 0.27753 0.12276 0.36282 0.0
C132 C 0.32717 0.13015 0.39094 0.0
C133 C 0.29662 0.14572 0.39657 0.0
C134 C 0.30669 0.15848 0.40708 0.0
C135 C 0.34758 0.15606 0.41215 0.0
C136 C 0.3792 0.14233 0.40635 0.0
C137 C 0.36901 0.12946 0.39587 0.0
C138 C 0.20684 0.15417 0.35842 0.0
C139 C 0.33587 0.23436 0.35082 0.0
O140 O 0.19447 0.10219 0.32652 0.0
O141 O 0.27359 0.16234 0.32213 0.0
O142 O 0.31581 0.0982 0.33299 0.0
O143 O 0.30131 0.10467 0.34816 0.0
O144 O 0.18903 0.05061 0.3426 0.0
O145 O 0.21856 0.03932 0.35861 0.0
O146 O 0.34405 0.13946 0.37275 0.0
O147 O 0.26382 0.08535 0.37781 0.0
O148 O 0.22063 0.15028 0.36782 0.0
O149 O 0.2325 0.14259 0.35229 0.0
O150 O 0.33662 0.20637 0.35879 0.0
O151 O 0.30577 0.21309 0.34249 0.0
H152 H 0.29236 0.11423 0.30704 0.0
H153 H 0.27659 0.07747 0.28955 0.0
H154 H 0.12115 0.05659 0.29022 0.0
H155 H 0.13779 0.09473 0.30753 0.0
H156 H 0.26417 0.14671 0.39292 0.0
H157 H 0.28202 0.16954 0.41128 0.0
H158 H 0.41056 0.13938 0.41 0.0
H159 H 0.39284 0.11724 0.39168 0.0
C160 C 0.91352 0.10495 0.31901 0.0
Eu161 Eu 0.91937 0.1441 0.33739 0.0
C162 C 0.93751 0.1198 0.30858 0.0
C163 C 0.94761 0.16641 0.30371 0.0
C164 C 0.96948 0.17861 0.29375 0.0
C165 C 0.98186 0.14454 0.28843 0.0
C166 C 0.97207 0.09818 0.29342 0.0
C167 C 0.95013 0.08601 0.30334 0.0
C168 C 0.95626 0.24835 0.34216 0.0
C169 C 1.02454 0.1736 0.35073 0.0
C170 C 0.93898 0.21791 0.38001 0.0
Eu171 Eu 0.92469 0.16788 0.36266 0.0
C172 C 0.92067 0.21396 0.39076 0.0
C173 C 0.90285 0.16809 0.39661 0.0
C174 C 0.8929 0.16806 0.40722 0.0
C175 C 0.90093 0.21397 0.41216 0.0
C176 C 0.91633 0.25895 0.40614 0.0
C177 C 0.92611 0.2589 0.39556 0.0
C178 C 0.89287 0.06555 0.35828 0.0
C179 C 0.81233 0.11413 0.35082 0.0
O180 O 0.94311 0.10376 0.32643 0.0
O181 O 0.88366 0.12359 0.32207 0.0
O182 O 0.94981 0.23027 0.33279 0.0
O183 O 0.94238 0.20995 0.34801 0.0
O184 O 0.99597 0.1505 0.34239 0.0
O185 O 1.00794 0.19146 0.35842 0.0
O186 O 0.90928 0.21874 0.37255 0.0
O187 O 0.96241 0.19156 0.37764 0.0
O188 O 0.89697 0.08338 0.36768 0.0
O189 O 0.90438 0.10276 0.35217 0.0
O190 O 0.84065 0.14259 0.35881 0.0
O191 O 0.83339 0.10565 0.34241 0.0
H192 H 0.93839 0.19331 0.30758 0.0
H193 H 0.97589 0.21438 0.29015 0.0
H194 H 0.98186 0.07137 0.28971 0.0
H195 H 0.94294 0.04994 0.30694 0.0
H196 H 0.89841 0.1329 0.39306 0.0
H197 H 0.88127 0.13285 0.41165 0.0
H198 H 0.922 0.29468 0.40966 0.0
H199 H 0.93978 0.29467 0.39119 0.0
C200 C 0.9444 0.8228 0.31914 0.0
Eu201 Eu 0.90535 0.78863 0.33751 0.0
C202 C 0.92925 0.83215 0.30875 0.0
C203 C 0.88048 0.79787 0.30427 0.0
C204 C 0.86774 0.80797 0.29439 0.0
C205 C 0.90334 0.85272 0.28878 0.0
C206 C 0.95202 0.88691 0.29335 0.0
C207 C 0.96473 0.8767 0.30319 0.0
C208 C 0.80131 0.71982 0.34215 0.0
C209 C 0.87372 0.86379 0.35065 0.0
C210 C 0.82796 0.73369 0.37998 0.0
Eu211 Eu 0.87938 0.77058 0.36282 0.0
C212 C 0.83139 0.71889 0.39072 0.0
C213 C 0.87771 0.74539 0.39651 0.0
C214 C 0.87764 0.73514 0.40711 0.0
C215 C 0.83119 0.69849 0.41208 0.0
C216 C 0.78562 0.67045 0.40611 0.0
C217 C 0.78577 0.6806 0.39555 0.0
C218 C 0.98171 0.84142 0.35869 0.0
C219 C 0.93711 0.7145 0.35147 0.0
O220 O 0.94547 0.8532 0.32664 0.0
O221 O 0.92595 0.77419 0.32212 0.0
O222 O 0.81965 0.73039 0.33279 0.0
O223 O 0.83925 0.74619 0.34799 0.0
O224 O 0.89737 0.85829 0.34238 0.0
O225 O 0.85557 0.82956 0.35835 0.0
O226 O 0.82775 0.70358 0.37247 0.0
O227 O 0.85443 0.78367 0.37774 0.0
O228 O 0.96327 0.82821 0.36806 0.0
O229 O 0.945 0.81541 0.35247 0.0
O230 O 0.90725 0.71373 0.35926 0.0
O231 O 0.94522 0.74293 0.3429 0.0
H232 H 0.85218 0.76338 0.30842 0.0
H233 H 0.82968 0.78104 0.2912 0.0
H234 H 0.98081 0.92131 0.28926 0.0
H235 H 1.00262 0.9037 0.30646 0.0
H236 H 0.91341 0.77519 0.39293 0.0
H237 H 0.91333 0.75754 0.4115 0.0
H238 H 0.74943 0.64133 0.40965 0.0
H239 H 0.74965 0.6597 0.39121 0.0
C240 C 0.94008 0.74015 0.88032 0.0
Eu241 Eu 0.92547 0.77148 0.86241 0.0
C242 C 0.92341 0.73265 0.89133 0.0
C243 C 0.95428 0.77026 0.89878 0.0
C244 C 0.94244 0.761 0.90932 0.0
C245 C 0.89959 0.7137 0.91272 0.0
C246 C 0.86794 0.6766 0.90524 0.0
C247 C 0.87978 0.68588 0.89469 0.0
C248 C 0.89638 0.84422 0.85832 0.0
C249 C 0.81105 0.71308 0.85186 0.0
C250 C 0.90456 0.80059 0.81862 0.0
Eu251 Eu 0.91856 0.78563 0.83799 0.0
C252 C 0.93277 0.8135 0.80853 0.0
C253 C 0.94663 0.77951 0.80369 0.0
C254 C 0.97126 0.79179 0.79397 0.0
C255 C 0.98283 0.83841 0.78885 0.0
C256 C 0.96923 0.87245 0.79376 0.0
C257 C 0.94443 0.86006 0.80344 0.0
C258 C 0.96643 0.73112 0.84405 0.0
C259 C 1.0232 0.86488 0.85021 0.0
O260 O 0.90678 0.70861 0.87339 0.0
O261 O 0.9683 0.78817 0.87694 0.0
O262 O 0.90053 0.83025 0.86765 0.0
O263 O 0.90671 0.81802 0.85213 0.0
O264 O 0.83975 0.71685 0.86003 0.0
O265 O 0.83206 0.7373 0.84294 0.0
O266 O 0.92227 0.83765 0.82563 0.0
O267 O 0.88874 0.75422 0.82261 0.0
O268 O 0.97818 0.75951 0.83578 0.0
O269 O 0.92707 0.72931 0.84827 0.0
O270 O 0.99211 0.86037 0.84241 0.0
O271 O 1.00864 0.82831 0.85742 0.0
H272 H 0.98866 0.80634 0.89649 0.0
H273 H 0.96819 0.79017 0.91484 0.0
H274 H 0.83429 0.63999 0.90755 0.0
H275 H 0.85541 0.65579 0.88919 0.0
H276 H 0.9383 0.74328 0.80737 0.0
H277 H 0.98162 0.76487 0.79051 0.0
H278 H 0.97672 0.9083 0.79003 0.0
H279 H 0.93381 0.88681 0.80691 0.0
C280 C 0.31357 0.21919 0.87938 0.0
Eu281 Eu 0.27886 0.16781 0.86216 0.0
C282 C 0.32532 0.21441 0.89027 0.0
C283 C 0.28974 0.17286 0.89651 0.0
C284 C 0.29891 0.17274 0.90712 0.0
C285 C 0.34388 0.2141 0.91169 0.0
C286 C 0.38029 0.25456 0.90532 0.0
C287 C 0.37098 0.25474 0.89473 0.0
C288 C 0.20733 0.06585 0.85785 0.0
C289 C 0.33677 0.11167 0.851 0.0
C290 C 0.23155 0.10416 0.81844 0.0
Eu291 Eu 0.26289 0.14329 0.83688 0.0
C292 C 0.22271 0.1189 0.80798 0.0
C293 C 0.25968 0.16522 0.80307 0.0
C294 C 0.2501 0.17739 0.7931 0.0
C295 C 0.20331 0.14359 0.78783 0.0
C296 C 0.16633 0.09753 0.79287 0.0
C297 C 0.176 0.08537 0.80279 0.0
C298 C 0.32953 0.24768 0.84176 0.0
C299 C 0.18578 0.17224 0.84978 0.0
O300 O 0.34458 0.21801 0.87223 0.0
O301 O 0.26415 0.19481 0.87666 0.0
O302 O 0.22028 0.08401 0.86726 0.0
O303 O 0.23439 0.1025 0.85169 0.0
O304 O 0.33634 0.14053 0.85886 0.0
O305 O 0.30919 0.10417 0.84233 0.0
O306 O 0.19984 0.10203 0.82575 0.0
O307 O 0.27999 0.12363 0.82164 0.0
O308 O 0.31887 0.22984 0.83236 0.0
O309 O 0.30482 0.20902 0.84751 0.0
O310 O 0.19186 0.1492 0.8415 0.0
O311 O 0.22013 0.19131 0.85745 0.0
H312 H 0.25412 0.14124 0.89325 0.0
H313 H 0.26987 0.14116 0.9118 0.0
H314 H 0.41582 0.28646 0.90854 0.0
H315 H 0.3989 0.28717 0.89005 0.0
H316 H 0.29604 0.19192 0.8069 0.0
H317 H 0.27977 0.21293 0.78946 0.0
H318 H 0.12946 0.07095 0.7892 0.0
H319 H 0.14677 0.04954 0.80643 0.0
C320 C 0.84082 0.11254 0.88096 0.0
Eu321 Eu 0.88219 0.12012 0.86275 0.0
C322 C 0.85007 0.13377 0.89164 0.0
C323 C 0.88907 0.13442 0.89797 0.0
C324 C 0.89149 0.14634 0.90852 0.0
C325 C 0.85507 0.15798 0.91298 0.0
C326 C 0.81765 0.15964 0.90652 0.0
C327 C 0.81512 0.1475 0.89598 0.0
C328 C 0.97875 0.13879 0.85737 0.0
C329 C 0.93615 0.23659 0.85202 0.0
C330 C 0.94285 0.13727 0.81964 0.0
Eu331 Eu 0.90532 0.13096 0.83821 0.0
C332 C 0.92727 0.1128 0.80923 0.0
C333 C 0.8809 0.10361 0.80435 0.0
C334 C 0.86846 0.08213 0.79434 0.0
C335 C 0.90207 0.06933 0.78896 0.0
C336 C 0.94803 0.07796 0.79398 0.0
C337 C 0.96043 0.09946 0.80395 0.0
C338 C 0.80025 0.09119 0.84257 0.0
C339 C 0.87121 0.02242 0.85034 0.0
O340 O 0.83727 0.14029 0.87343 0.0
O341 O 0.86436 0.08697 0.87818 0.0
O342 O 0.95571 0.11737 0.86604 0.0
O343 O 0.95299 0.15593 0.85266 0.0
O344 O 0.91317 0.20673 0.86024 0.0
O345 O 0.9403 0.21689 0.84301 0.0
O346 O 0.94611 0.10871 0.82703 0.0
O347 O 0.92331 0.16608 0.82284 0.0
O348 O 0.81954 0.10086 0.8333 0.0
O349 O 0.83788 0.10389 0.84855 0.0
O350 O 0.90021 0.05449 0.84286 0.0
O351 O 0.84862 0.0368 0.85743 0.0
H352 H 0.91666 0.12401 0.89486 0.0
H353 H 0.92128 0.14543 0.91324 0.0
H354 H 0.78865 0.16789 0.90968 0.0
H355 H 0.78434 0.14674 0.8913 0.0
H356 H 0.85445 0.11341 0.80822 0.0
H357 H 0.83297 0.07655 0.79074 0.0
H358 H 0.97446 0.06776 0.79023 0.0
H359 H 0.99631 0.10595 0.80754 0.0
C360 C 0.76133 0.93168 0.6549 0.0
Eu361 Eu 0.78108 0.91294 0.67352 0.0
C362 C 0.74446 0.91145 0.6443 0.0
C363 C 0.76699 0.88683 0.63873 0.0
C364 C 0.7557 0.87534 0.62819 0.0
C365 C 0.72204 0.88863 0.62305 0.0
C366 C 0.69774 0.91093 0.6288 0.0
C367 C 0.7089 0.92223 0.6393 0.0
C368 C 0.8438 0.87571 0.68007 0.0
C369 C 0.71848 0.80384 0.6854 0.0
C370 C 0.82654 0.90761 0.71701 0.0
Eu371 Eu 0.79616 0.91243 0.69823 0.0
C372 C 0.83597 0.93287 0.72733 0.0
C373 C 0.80148 0.94707 0.73179 0.0
C374 C 0.81151 0.9701 0.74167 0.0
C375 C 0.85638 0.97969 0.74728 0.0
C376 C 0.89075 0.96549 0.74273 0.0
C377 C 0.88062 0.9424 0.7329 0.0
C378 C 0.72624 0.94512 0.69308 0.0
C379 C 0.87103 1.01859 0.6853 0.0
O380 O 0.72618 0.91371 0.66229 0.0
O381 O 0.80752 0.94097 0.65793 0.0
O382 O 0.81711 0.86112 0.67148 0.0
O383 O 0.83907 0.91184 0.68416 0.0
O384 O 0.71669 0.83192 0.67759 0.0
O385 O 0.75055 0.82579 0.69343 0.0
O386 O 0.85857 0.93531 0.70959 0.0
O387 O 0.77814 0.87918 0.7138 0.0
O388 O 0.73936 0.94168 0.70249 0.0
O389 O 0.75056 0.9305 0.68732 0.0
O390 O 0.86286 0.9932 0.69419 0.0
O391 O 0.84102 0.99733 0.67705 0.0
H392 H 0.79465 0.87814 0.64241 0.0
H393 H 0.77514 0.85828 0.62397 0.0
H394 H 0.67093 0.92079 0.62512 0.0
H395 H 0.69111 0.94126 0.64344 0.0
H396 H 0.76684 0.94043 0.72765 0.0
H397 H 0.78444 0.98098 0.74486 0.0
H398 H 0.92522 0.9714 0.74683 0.0
H399 H 0.90771 0.93163 0.72966 0.0
C400 C 0.1137 0.82335 0.65551 0.0
Eu401 Eu 0.12842 0.87081 0.67321 0.0
C402 C 0.13215 0.83158 0.64461 0.0
C403 C 0.10674 0.84497 0.63705 0.0
C404 C 0.11986 0.84728 0.62659 0.0
C405 C 0.15858 0.83597 0.62339 0.0
C406 C 0.18485 0.82369 0.63098 0.0
C407 C 0.17168 0.82136 0.64146 0.0
C408 C 0.15931 0.97274 0.67772 0.0
C409 C 0.24372 0.92751 0.68412 0.0
C410 C 0.14631 0.93282 0.71708 0.0
Eu411 Eu 0.1391 0.89474 0.69852 0.0
C412 C 0.12241 0.91708 0.72751 0.0
C413 C 0.11055 0.86917 0.73203 0.0
C414 C 0.08855 0.85596 0.74198 0.0
C415 C 0.07776 0.89027 0.74765 0.0
C416 C 0.0894 0.938 0.74302 0.0
C417 C 0.11145 0.95117 0.73311 0.0
C418 C 0.10238 0.7907 0.69359 0.0
C419 C 0.03025 0.862 0.68619 0.0
O420 O 0.14454 0.82257 0.66275 0.0
O421 O 0.08772 0.8463 0.65851 0.0
O422 O 0.15313 0.95462 0.66831 0.0
O423 O 0.14984 0.93594 0.68382 0.0
O424 O 0.21384 0.89882 0.67629 0.0
O425 O 0.2242 0.93463 0.69289 0.0
O426 O 0.11681 0.93516 0.70977 0.0
O427 O 0.17559 0.91392 0.71379 0.0
O428 O 0.11052 0.80876 0.70298 0.0
O429 O 0.11495 0.82902 0.6878 0.0
O430 O 0.06085 0.88634 0.69424 0.0
O431 O 0.04548 0.8444 0.67824 0.0
H432 H 0.07549 0.85222 0.63916 0.0
H433 H 0.09812 0.85597 0.62098 0.0
H434 H 0.21524 0.81526 0.62882 0.0
H435 H 0.19169 0.81039 0.64706 0.0
H436 H 0.11845 0.84201 0.72789 0.0
H437 H 0.08074 0.81913 0.74529 0.0
H438 H 0.08089 0.96512 0.74699 0.0
H439 H 0.11997 0.98824 0.72978 0.0
C440 C 0.22645 0.30403 0.65556 0.0
Eu441 Eu 0.17594 0.26877 0.67285 0.0
C442 C 0.22327 0.31917 0.64483 0.0
C443 C 0.17728 0.29245 0.63894 0.0
C444 C 0.17777 0.30301 0.62835 0.0
C445 C 0.2243 0.34019 0.62349 0.0
C446 C 0.26948 0.36846 0.62955 0.0
C447 C 0.26892 0.358 0.64011 0.0
C448 C 0.07344 0.19919 0.67729 0.0
C449 C 0.12077 0.32726 0.68425 0.0
C450 C 0.1133 0.22037 0.71658 0.0
Eu451 Eu 0.15204 0.25272 0.69816 0.0
C452 C 0.12879 0.2111 0.72691 0.0
C453 C 0.17825 0.24475 0.73119 0.0
C454 C 0.19158 0.23451 0.74099 0.0
C455 C 0.15588 0.1902 0.74668 0.0
C456 C 0.10648 0.15668 0.74232 0.0
C457 C 0.09315 0.16708 0.73257 0.0
C458 C 0.25633 0.31953 0.69329 0.0
C459 C 0.18118 0.17559 0.68517 0.0
O460 O 0.2283 0.33484 0.66308 0.0
O461 O 0.19877 0.25417 0.65784 0.0
O462 O 0.0914 0.21167 0.66787 0.0
O463 O 0.11073 0.22526 0.68339 0.0
O464 O 0.14935 0.32674 0.67634 0.0
O465 O 0.11323 0.29945 0.69287 0.0
O466 O 0.1109 0.18906 0.70914 0.0
O467 O 0.13286 0.26899 0.71351 0.0
O468 O 0.23837 0.30932 0.70268 0.0
O469 O 0.21781 0.29414 0.6875 0.0
O470 O 0.15837 0.182 0.69346 0.0
O471 O 0.19898 0.20925 0.67736 0.0
H472 H 0.14155 0.26224 0.64244 0.0
H473 H 0.14238 0.28043 0.62389 0.0
H474 H 0.3057 0.39798 0.62609 0.0
H475 H 0.30478 0.37908 0.64451 0.0
H476 H 0.20665 0.2788 0.72694 0.0
H477 H 0.23014 0.26086 0.74404 0.0
H478 H 0.0777 0.12265 0.74651 0.0
H479 H 0.05476 0.14059 0.72944 0.0
C480 C 0.8144 0.55268 0.54979 0.0
Eu481 Eu 0.80713 0.5852 0.53143 0.0
C482 C 0.79221 0.54579 0.56033 0.0
C483 C 0.77274 0.57722 0.56414 0.0
C484 C 0.75163 0.56929 0.57416 0.0
C485 C 0.74927 0.52956 0.58055 0.0
C486 C 0.76891 0.49831 0.57665 0.0
C487 C 0.79006 0.50635 0.56667 0.0
C488 C 0.77149 0.65357 0.5269 0.0
C489 C 0.70036 0.50936 0.5184 0.0
C490 C 0.78376 0.63906 0.48901 0.0
Eu491 Eu 0.799 0.60283 0.50617 0.0
C492 C 0.80129 0.6536 0.47822 0.0
C493 C 0.8206 0.62697 0.47233 0.0
C494 C 0.83005 0.63701 0.46171 0.0
C495 C 0.82 0.67355 0.45681 0.0
C496 C 0.80295 0.70169 0.46287 0.0
C497 C 0.79369 0.69177 0.47345 0.0
C498 C 0.82988 0.53164 0.51031 0.0
C499 C 0.91306 0.65954 0.51743 0.0
O500 O 0.78273 0.52186 0.54258 0.0
O501 O 0.84514 0.60066 0.54652 0.0
O502 O 0.77876 0.64242 0.53624 0.0
O503 O 0.78391 0.62811 0.52099 0.0
O504 O 0.72983 0.51477 0.5266 0.0
O505 O 0.71615 0.544 0.51077 0.0
O506 O 0.81412 0.66944 0.49644 0.0
O507 O 0.76035 0.58916 0.49131 0.0
O508 O 0.82471 0.54482 0.50093 0.0
O509 O 0.81964 0.55801 0.51651 0.0
O510 O 0.88397 0.65983 0.50961 0.0
O511 O 0.8927 0.63127 0.52601 0.0
H512 H 0.77363 0.6077 0.55935 0.0
H513 H 0.73638 0.59374 0.57683 0.0
H514 H 0.76857 0.46788 0.58136 0.0
H515 H 0.80487 0.48165 0.5639 0.0
H516 H 0.82668 0.59726 0.47587 0.0
H517 H 0.84299 0.61454 0.45726 0.0
H518 H 0.79571 0.73072 0.45937 0.0
H519 H 0.77884 0.71275 0.47785 0.0
C520 C 0.49548 0.26667 0.54978 0.0
Eu521 Eu 0.46312 0.22849 0.53129 0.0
C522 C 0.50452 0.25157 0.56021 0.0
C523 C 0.46575 0.20778 0.56553 0.0
C524 C 0.47534 0.19578 0.57552 0.0
C525 C 0.5239 0.22724 0.58043 0.0
C526 C 0.56269 0.27065 0.57498 0.0
C527 C 0.55304 0.28264 0.56504 0.0
C528 C 0.39588 0.1243 0.5264 0.0
C529 C 0.539 0.1978 0.51826 0.0
C530 C 0.41195 0.15643 0.48847 0.0
Eu531 Eu 0.44714 0.20503 0.50598 0.0
C532 C 0.39854 0.16321 0.47781 0.0
C533 C 0.42845 0.21001 0.47234 0.0
C534 C 0.41839 0.21322 0.46185 0.0
C535 C 0.37815 0.16978 0.45666 0.0
C536 C 0.34721 0.12367 0.4623 0.0
C537 C 0.35739 0.12047 0.47276 0.0
C538 C 0.51825 0.30712 0.51051 0.0
C539 C 0.38887 0.26032 0.5174 0.0
O540 O 0.52673 0.26873 0.54236 0.0
O541 O 0.44703 0.24794 0.54665 0.0
O542 O 0.4066 0.1423 0.53578 0.0
O543 O 0.4209 0.16279 0.52059 0.0
O544 O 0.53335 0.22138 0.52652 0.0
O545 O 0.50493 0.17986 0.51052 0.0
O546 O 0.38114 0.1548 0.49597 0.0
O547 O 0.46166 0.18191 0.49098 0.0
O548 O 0.50549 0.28937 0.50108 0.0
O549 O 0.4915 0.26995 0.51657 0.0
O550 O 0.38941 0.23178 0.50949 0.0
O551 O 0.41663 0.26777 0.52604 0.0
H552 H 0.42792 0.183 0.56202 0.0
H553 H 0.44429 0.16235 0.57947 0.0
H554 H 0.60087 0.29532 0.57836 0.0
H555 H 0.58366 0.31655 0.56111 0.0
H556 H 0.46034 0.24364 0.4761 0.0
H557 H 0.44252 0.24952 0.45777 0.0
H558 H 0.31638 0.08924 0.45854 0.0
H559 H 0.33406 0.08392 0.47682 0.0
C560 C 0.78037 0.23988 0.55003 0.0
Eu561 Eu 0.81918 0.24498 0.53164 0.0
C562 C 0.79552 0.26385 0.56047 0.0
C563 C 0.84014 0.27013 0.56565 0.0
C564 C 0.85224 0.2915 0.57566 0.0
C565 C 0.82006 0.30712 0.58074 0.0
C566 C 0.77584 0.3013 0.57544 0.0
C567 C 0.76375 0.27988 0.56546 0.0
C568 C 0.92313 0.28119 0.52686 0.0
C569 C 0.84903 0.34959 0.51814 0.0
C570 C 0.89367 0.2638 0.48906 0.0
Eu571 Eu 0.84316 0.24942 0.50634 0.0
C572 C 0.89017 0.24564 0.47831 0.0
C573 C 0.84352 0.22472 0.4726 0.0
C574 C 0.84344 0.21485 0.46198 0.0
C575 C 0.89007 0.2261 0.4569 0.0
C576 C 0.93603 0.24471 0.46279 0.0
C577 C 0.93603 0.25437 0.47337 0.0
C578 C 0.74085 0.21757 0.51068 0.0
C579 C 0.78948 0.13775 0.51831 0.0
O580 O 0.77952 0.2696 0.5426 0.0
O581 O 0.79826 0.20939 0.54696 0.0
O582 O 0.9053 0.27484 0.53625 0.0
O583 O 0.88473 0.26768 0.52104 0.0
O584 O 0.82577 0.32137 0.52651 0.0
O585 O 0.86689 0.33271 0.51051 0.0
O586 O 0.89438 0.23411 0.49653 0.0
O587 O 0.86697 0.28694 0.49136 0.0
O588 O 0.75858 0.22128 0.50128 0.0
O589 O 0.77813 0.22951 0.51681 0.0
O590 O 0.81828 0.16572 0.51033 0.0
O591 O 0.78065 0.15906 0.52664 0.0
H592 H 0.86547 0.2582 0.56199 0.0
H593 H 0.88633 0.29486 0.5795 0.0
H594 H 0.7506 0.3137 0.57896 0.0
H595 H 0.72923 0.27564 0.56164 0.0
H596 H 0.80765 0.21777 0.47627 0.0
H597 H 0.80746 0.20069 0.45766 0.0
H598 H 0.97239 0.25293 0.45916 0.0
H599 H 0.97241 0.27048 0.47764 0.0
C600 C 0.895 0.46736 0.65275 0.0
Eu601 Eu 0.92789 0.46119 0.67114 0.0
C602 C 0.88585 0.44327 0.64234 0.0
C603 C 0.91834 0.42593 0.63813 0.0
C604 C 0.90831 0.40322 0.62823 0.0
C605 C 0.86537 0.39704 0.62236 0.0
C606 C 0.833 0.41443 0.62666 0.0
C607 C 0.84316 0.43724 0.63651 0.0
C608 C 0.99544 0.42474 0.67589 0.0
C609 C 0.85178 0.35461 0.68418 0.0
C610 C 0.97995 0.44009 0.71391 0.0
Eu611 Eu 0.9446 0.45366 0.69645 0.0
C612 C 0.99309 0.45982 0.72462 0.0
C613 C 0.96274 0.47588 0.73018 0.0
C614 C 0.97244 0.48849 0.74072 0.0
C615 C 1.01276 0.48543 0.74588 0.0
C616 C 0.04415 0.47111 0.74015 0.0
C617 C 0.03434 0.4584 0.72965 0.0
C618 C 0.87386 0.48492 0.69205 0.0
C619 C 1.00247 0.56738 0.68506 0.0
O620 O 0.864 0.43781 0.66015 0.0
O621 O 0.94361 0.49687 0.65582 0.0
O622 O 0.98455 0.43195 0.66653 0.0
O623 O 0.97025 0.43778 0.68175 0.0
O624 O 0.85761 0.3838 0.67592 0.0
O625 O 0.88591 0.37067 0.69192 0.0
O626 O 1.01071 0.46975 0.70645 0.0
O627 O 0.93027 0.41553 0.71138 0.0
O628 O 0.88673 0.47994 0.70146 0.0
O629 O 0.90027 0.4743 0.68594 0.0
O630 O 1.00226 0.53832 0.69293 0.0
O631 O 0.9744 0.54696 0.67645 0.0
H632 H 0.95133 0.42977 0.6425 0.0
H633 H 0.93375 0.3898 0.62523 0.0
H634 H 0.80007 0.41111 0.62235 0.0
H635 H 0.81758 0.45035 0.63958 0.0
H636 H 0.93075 0.47744 0.72646 0.0
H637 H 0.94796 0.50002 0.74485 0.0
H638 H 0.07508 0.46766 0.74387 0.0
H639 H 0.05801 0.44579 0.72553 0.0
C640 C 0.58884 0.45293 0.65251 0.0
Eu641 Eu 0.58632 0.48018 0.67172 0.0
C642 C 0.61761 0.46974 0.64252 0.0
C643 C 0.62057 0.5113 0.6367 0.0
C644 C 0.64328 0.52263 0.6268 0.0
C645 C 0.66332 0.49253 0.62246 0.0
C646 C 0.66136 0.45181 0.62843 0.0
C647 C 0.63872 0.44054 0.6383 0.0
C648 C 0.61261 0.57878 0.67841 0.0
C649 C 0.69226 0.50536 0.6846 0.0
C650 C 0.60286 0.54084 0.71415 0.0
Eu651 Eu 0.59111 0.49723 0.69609 0.0
C652 C 0.58181 0.53221 0.72483 0.0
C653 C 0.60128 0.51255 0.73245 0.0
C654 C 0.58726 0.51089 0.74283 0.0
C655 C 0.55351 0.52903 0.74589 0.0
C656 C 0.53267 0.54716 0.73822 0.0
C657 C 0.54683 0.54893 0.72782 0.0
C658 C 0.5552 0.39422 0.69152 0.0
C659 C 0.47927 0.44542 0.68452 0.0
O660 O 0.61122 0.44288 0.6602 0.0
O661 O 0.56224 0.47498 0.65557 0.0
O662 O 0.58716 0.55746 0.66996 0.0
O663 O 0.62613 0.54867 0.68243 0.0
O664 O 0.66573 0.48939 0.67578 0.0
O665 O 0.6736 0.51675 0.69288 0.0
O666 O 0.5759 0.54605 0.70662 0.0
O667 O 0.6262 0.51503 0.71134 0.0
O668 O 0.56073 0.41202 0.70093 0.0
O669 O 0.56745 0.43173 0.68547 0.0
O670 O 0.50893 0.47804 0.6919 0.0
O671 O 0.50018 0.43449 0.67646 0.0
H672 H 0.60435 0.53439 0.63968 0.0
H673 H 0.64362 0.55398 0.62243 0.0
H674 H 0.67714 0.42831 0.62546 0.0
H675 H 0.63674 0.40808 0.64256 0.0
H676 H 0.629 0.50014 0.73048 0.0
H677 H 0.60485 0.49753 0.7485 0.0
H678 H 0.50611 0.5609 0.74028 0.0
H679 H 0.53153 0.5648 0.72216 0.0
C680 C 0.6105 0.15224 0.65226 0.0
Eu681 Eu 0.57123 0.11931 0.67065 0.0
C682 C 0.59552 0.16152 0.64187 0.0
C683 C 0.54509 0.12998 0.63781 0.0
C684 C 0.53234 0.14004 0.62793 0.0
C685 C 0.56964 0.18205 0.62193 0.0
C686 C 0.62003 0.21346 0.62608 0.0
C687 C 0.63273 0.20327 0.63592 0.0
C688 C 0.46692 0.05173 0.67536 0.0
C689 C 0.53937 0.19422 0.68371 0.0
C690 C 0.49579 0.06579 0.71317 0.0
Eu691 Eu 0.54654 0.10194 0.69593 0.0
C692 C 0.49916 0.05096 0.72391 0.0
C693 C 0.54525 0.07781 0.72976 0.0
C694 C 0.54497 0.06742 0.74035 0.0
C695 C 0.49854 0.03028 0.74526 0.0
C696 C 0.45325 1.0019 0.73922 0.0
C697 C 0.4536 1.01219 0.72867 0.0
C698 C 0.6488 0.17314 0.69166 0.0
C699 C 0.60262 0.04449 0.6845 0.0
O700 O 0.61227 0.18327 0.6597 0.0
O701 O 0.59101 0.1036 0.6553 0.0
O702 O 0.48507 0.06289 0.66599 0.0
O703 O 0.50531 0.07653 0.68121 0.0
O704 O 0.56328 0.18905 0.67546 0.0
O705 O 0.5216 0.15999 0.69141 0.0
O706 O 0.49504 0.03537 0.70568 0.0
O707 O 0.52255 0.11571 0.7109 0.0
O708 O 0.63063 0.15984 0.70105 0.0
O709 O 0.61189 0.14691 0.68549 0.0
O710 O 0.5737 0.04456 0.69238 0.0
O711 O 0.61034 0.07265 0.67591 0.0
H712 H 0.51552 0.09772 0.64228 0.0
H713 H 0.49301 0.11537 0.62505 0.0
H714 H 0.65006 0.24563 0.62167 0.0
H715 H 0.67189 0.2281 0.63888 0.0
H716 H 0.5809 0.10797 0.72623 0.0
H717 H 0.58043 0.09006 0.74479 0.0
H718 H 0.4171 0.97243 0.74272 0.0
H719 H 0.41766 0.99102 0.72429 0.0
C720 C 0.60962 0.0683 0.21368 0.0
Eu721 Eu 0.59463 0.10409 0.19645 0.0
C722 C 0.59175 0.05463 0.22446 0.0
C723 C 0.57028 0.08033 0.22999 0.0
C724 C 0.55989 0.07099 0.24061 0.0
C725 C 0.57115 0.03609 0.24585 0.0
C726 C 0.59051 1.0089 0.24014 0.0
C727 C 0.6007 1.01812 0.22957 0.0
C728 C 0.56481 0.17596 0.19219 0.0
C729 C 0.47945 0.04724 0.18548 0.0
C730 C 0.57814 0.15207 0.15276 0.0
Eu731 Eu 0.58441 0.11937 0.17116 0.0
C732 C 0.60308 0.16129 0.14243 0.0
C733 C 0.61587 0.12593 0.13789 0.0
C734 C 0.63959 0.1361 0.12809 0.0
C735 C 0.65139 0.18202 0.12266 0.0
C736 C 0.63855 0.21726 0.12727 0.0
C737 C 0.61466 0.20695 0.13702 0.0
C738 C 0.61998 0.05117 0.17582 0.0
C739 C 0.6935 0.19394 0.18364 0.0
O740 O 0.5789 0.03777 0.20631 0.0
O741 O 0.63366 0.11809 0.21128 0.0
O742 O 0.57068 0.16354 0.20158 0.0
O743 O 0.57396 0.14863 0.18602 0.0
O744 O 0.50895 0.0479 0.19332 0.0
O745 O 0.49928 0.07412 0.17674 0.0
O746 O 0.60717 0.18322 0.16021 0.0
O747 O 0.5486 0.10349 0.15583 0.0
O748 O 0.61219 0.06164 0.16646 0.0
O749 O 0.60773 0.07691 0.18169 0.0
O750 O 0.66323 0.18826 0.17557 0.0
O751 O 0.67775 0.1609 0.19155 0.0
H752 H 0.56312 0.10875 0.22619 0.0
H753 H 0.54516 0.09267 0.24479 0.0
H754 H 0.59873 0.9811 0.2439 0.0
H755 H 0.61718 0.99786 0.22543 0.0
H756 H 0.60776 0.09057 0.14192 0.0
H757 H 0.6494 0.10835 0.12484 0.0
H758 H 0.6463 0.25262 0.12329 0.0
H759 H 0.60512 0.23479 0.14034 0.0
C760 C 0.9662 0.53406 0.21439 0.0
Eu761 Eu 0.94572 0.49377 0.19591 0.0
C762 C 0.98297 0.53066 0.22499 0.0
C763 C 0.95613 0.48514 0.231 0.0
C764 C 0.96809 0.48589 0.24152 0.0
C765 C 1.00681 0.53221 0.2462 0.0
C766 C 0.0353 0.57678 0.24 0.0
C767 C 1.02342 0.576 0.22953 0.0
C768 C 0.88181 0.3931 0.18971 0.0
C769 C 1.00726 0.44462 0.18464 0.0
C770 C 0.9009 0.43687 0.15265 0.0
Eu771 Eu 0.93107 0.47514 0.17126 0.0
C772 C 0.89449 0.45154 0.14202 0.0
C773 C 0.92954 0.50037 0.13769 0.0
C774 C 0.92228 0.51245 0.12754 0.0
C775 C 0.87981 0.47598 0.1215 0.0
C776 C 0.8447 0.42733 0.12595 0.0
C777 C 0.85202 0.41534 0.13606 0.0
C778 C 1.00173 0.57829 0.17603 0.0
C779 C 0.8571 0.5092 0.18378 0.0
O780 O 1.00127 0.5499 0.20699 0.0
O781 O 0.9195 0.49787 0.2114 0.0
O782 O 0.90804 0.40583 0.19836 0.0
O783 O 0.88753 0.4338 0.1854 0.0
O784 O 1.00935 0.47596 0.19219 0.0
O785 O 0.97571 0.43383 0.17651 0.0
O786 O 0.86934 0.43714 0.15971 0.0
O787 O 0.94849 0.4544 0.15613 0.0
O788 O 0.98848 0.56073 0.16666 0.0
O789 O 0.9772 0.53993 0.18191 0.0
O790 O 0.86417 0.48933 0.17512 0.0
O791 O 0.8879 0.52006 0.19196 0.0
H792 H 0.92468 0.44958 0.22769 0.0
H793 H 0.94534 0.45099 0.24609 0.0
H794 H 0.06594 0.61281 0.24333 0.0
H795 H 0.04462 0.61157 0.22505 0.0
H796 H 0.96257 0.52907 0.14214 0.0
H797 H 0.95041 0.5501 0.12437 0.0
H798 H 0.811 0.39856 0.12167 0.0
H799 H 0.82429 0.37754 0.13925 0.0
C800 C 0.50709 0.44461 0.21455 0.0
Eu801 Eu 0.55406 0.45766 0.19686 0.0
C802 C 0.51519 0.46497 0.22524 0.0
C803 C 0.56095 0.47791 0.2308 0.0
C804 C 0.56501 0.49139 0.2413 0.0
C805 C 0.5235 0.49241 0.24642 0.0
C806 C 0.47854 0.48114 0.2407 0.0
C807 C 0.47446 0.4675 0.23024 0.0
C808 C 0.65619 0.48969 0.19212 0.0
C809 C 0.6078 0.5706 0.18534 0.0
C810 C 0.61478 0.47078 0.153 0.0
Eu811 Eu 0.57668 0.46456 0.1715 0.0
C812 C 0.59906 0.44691 0.14258 0.0
C813 C 0.54968 0.43171 0.13835 0.0
C814 C 0.53633 0.40931 0.12843 0.0
C815 C 0.57194 0.4013 0.12256 0.0
C816 C 0.62126 0.41657 0.12688 0.0
C817 C 0.63458 0.43907 0.13675 0.0
C818 C 0.47289 0.42799 0.17647 0.0
C819 C 0.54593 0.35823 0.18455 0.0
O820 O 0.50506 0.47388 0.20713 0.0
O821 O 0.53171 0.41983 0.21184 0.0
O822 O 0.63895 0.48473 0.20159 0.0
O823 O 0.61852 0.4785 0.18617 0.0
O824 O 0.5792 0.54157 0.19323 0.0
O825 O 0.61573 0.55029 0.17675 0.0
O826 O 0.61628 0.44097 0.16033 0.0
O827 O 0.59632 0.50057 0.15621 0.0
O828 O 0.49058 0.43499 0.16706 0.0
O829 O 0.5114 0.44134 0.18227 0.0
O830 O 0.56956 0.38731 0.17629 0.0
O831 O 0.52813 0.37453 0.19228 0.0
H832 H 0.59307 0.47643 0.2271 0.0
H833 H 0.60042 0.50047 0.24543 0.0
H834 H 0.44555 0.48085 0.24441 0.0
H835 H 0.43869 0.45735 0.22612 0.0
H836 H 0.52139 0.437 0.14272 0.0
H837 H 0.49783 0.39755 0.12542 0.0
H838 H 0.65002 0.41181 0.12257 0.0
H839 H 0.67292 0.45054 0.13984 0.0
C840 C 0.41925 0.23649 0.98835 0.0
Eu841 Eu 0.44851 0.24424 1.00744 0.0
C842 C 0.4033 0.23061 0.97736 0.0
C843 C 0.41139 0.19715 0.97088 0.0
C844 C 0.39922 0.19327 0.96037 0.0
C845 C 0.37852 0.22266 0.95607 0.0
C846 C 0.36959 0.25552 0.9626 0.0
C847 C 0.3819 0.25947 0.97315 0.0
C848 C 0.53002 0.23369 1.01388 0.0
C849 C 0.38176 0.1353 0.01995 0.0
C850 C 0.49408 0.24131 0.05051 0.0
Eu851 Eu 0.46197 0.24331 0.0318 0.0
C852 C 0.50453 0.26759 0.06074 0.0
C853 C 0.46731 0.27584 0.06587 0.0
C854 C 0.47747 0.29795 0.07583 0.0
C855 C 0.52502 0.31225 0.08089 0.0
C856 C 0.56245 0.30478 0.07561 0.0
C857 C 0.55225 0.28268 0.06569 0.0
C858 C 0.3929 0.27726 0.02675 0.0
C859 C 0.53655 0.34891 0.01819 0.0
O860 O 0.41561 0.26881 0.99481 0.0
O861 O 0.43778 0.20843 0.99234 0.0
O862 O 0.52984 0.25767 1.00551 0.0
O863 O 0.48576 0.21327 0.01824 0.0
O864 O 0.38243 0.16425 1.01208 0.0
O865 O 0.41316 0.15636 0.02804 0.0
O866 O 0.52571 0.26777 0.04291 0.0
O867 O 0.44527 0.21267 0.04753 0.0
O868 O 0.40477 0.27195 0.03614 0.0
O869 O 0.41733 0.26318 0.0209 0.0
O870 O 0.53095 0.32126 0.02667 0.0
O871 O 0.5036 0.32977 1.0103 0.0
H872 H 0.42807 0.17454 0.97388 0.0
H873 H 0.40737 0.1682 0.95555 0.0
H874 H 0.35307 0.27821 0.95957 0.0
H875 H 0.37516 0.2855 0.97797 0.0
H876 H 0.4301 0.26459 0.06226 0.0
H877 H 0.4475 0.30266 0.07965 0.0
H878 H 0.59989 0.31615 0.07913 0.0
H879 H 0.58164 0.27681 0.06192 0.0
C880 C 0.7872 0.15545 0.98965 0.0
Eu881 Eu 0.80165 0.20304 1.00736 0.0
C882 C 0.80493 0.16452 0.97869 0.0
C883 C 0.77672 0.17484 0.97122 0.0
C884 C 0.78969 0.17844 0.96072 0.0
C885 C 0.83107 0.1715 0.95737 0.0
C886 C 0.85993 0.16208 0.96486 0.0
C887 C 0.84694 0.15849 0.97539 0.0
C888 C 0.8339 0.30536 1.0116 0.0
C889 C 0.91448 0.25654 0.01899 0.0
C890 C 0.8162 0.26673 0.05106 0.0
Eu891 Eu 0.80883 0.22724 0.03266 0.0
C892 C 0.79192 0.25229 0.06147 0.0
C893 C 0.7789 0.20447 0.06618 0.0
C894 C 0.75663 0.19252 0.07611 0.0
C895 C 0.74672 0.22803 0.08156 0.0
C896 C 0.7595 0.27565 0.07673 0.0
C897 C 0.78185 0.28757 0.06683 0.0
C898 C 0.77184 0.12311 0.02783 0.0
C899 C 0.70311 0.19829 0.01973 0.0
O900 O 0.81923 0.15615 0.99678 0.0
O901 O 0.75983 0.17663 0.99279 0.0
O902 O 0.82901 0.28698 1.00224 0.0
O903 O 0.82301 0.26864 1.01783 0.0
O904 O 0.88565 0.22755 1.01109 0.0
O905 O 0.89408 0.26557 0.02741 0.0
O906 O 0.7874 0.26938 0.04364 0.0
O907 O 0.84461 0.24647 0.04798 0.0
O908 O 0.77876 0.14105 0.03722 0.0
O909 O 0.78527 0.16146 0.02201 0.0
O910 O 0.7318 0.22029 0.0281 0.0
O911 O 0.719 0.18085 1.01184 0.0
H912 H 0.74355 0.17879 0.97344 0.0
H913 H 0.76591 0.18478 0.9552 0.0
H914 H 0.89236 0.15701 0.96259 0.0
H915 H 0.86921 0.14998 0.98091 0.0
H916 H 0.78611 0.17643 0.06221 0.0
H917 H 0.74792 0.15574 0.07958 0.0
H918 H 0.75169 0.30366 0.08053 0.0
H919 H 0.7913 0.32459 0.06335 0.0
C920 C 0.88661 0.63369 0.9887 0.0
Eu921 Eu 0.84117 0.59937 1.00653 0.0
C922 C 0.87945 0.64808 0.9781 0.0
C923 C 0.83921 0.61217 0.97161 0.0
C924 C 0.83788 0.6237 0.96115 0.0
C925 C 0.87663 0.67139 0.95693 0.0
C926 C 0.91547 0.70814 0.96356 0.0
C927 C 0.91693 0.6965 0.97401 0.0
C928 C 0.73768 0.53237 1.01073 0.0
C929 C 0.78971 0.659 0.01841 0.0
C930 C 0.7939 0.55397 0.05 0.0
Eu931 Eu 0.82214 0.58485 0.03092 0.0
C932 C 0.81184 0.54257 0.05989 0.0
C933 C 0.85784 0.57983 0.06489 0.0
C934 C 0.87134 0.56922 0.07464 0.0
C935 C 0.83923 0.52112 0.07961 0.0
C936 C 0.79376 0.48366 0.07447 0.0
C937 C 0.78026 0.49433 0.06476 0.0
C938 C 0.9207 0.65829 0.02454 0.0
C939 C 0.84907 0.50575 1.01801 0.0
O940 O 0.89133 0.66493 0.99638 0.0
O941 O 0.86003 0.58408 0.99119 0.0
O942 O 0.75623 0.54528 1.00139 0.0
O943 O 0.77479 0.55693 1.01693 0.0
O944 O 0.82237 0.66251 1.01099 0.0
O945 O 0.7773 0.62549 0.02619 0.0
O946 O 0.78443 0.52185 0.04227 0.0
O947 O 0.81533 0.60273 0.04703 0.0
O948 O 0.89905 0.66157 0.03302 0.0
O949 O 0.89105 0.6148 0.02039 0.0
O950 O 0.83282 0.51595 0.02682 0.0
O951 O 0.86001 0.53563 1.0097 0.0
H952 H 0.80963 0.57449 0.97452 0.0
H953 H 0.80699 0.59482 0.9563 0.0
H954 H 0.94621 0.74503 0.96057 0.0
H955 H 0.9486 0.72465 0.97882 0.0
H956 H 0.88309 0.61742 0.06134 0.0
H957 H 0.90698 0.59877 0.07828 0.0
H958 H 0.76764 0.4465 0.07808 0.0
H959 H 0.74435 0.4651 0.06113 0.0
C960 C 0.47915 0.88882 0.88319 0.0
Eu961 Eu 0.47108 0.91968 0.86473 0.0
C962 C 0.45682 0.88174 0.89371 0.0
C963 C 0.43967 0.91472 0.89773 0.0
C964 C 0.41852 0.90662 0.90774 0.0
C965 C 0.41379 0.86517 0.91391 0.0
C966 C 0.43108 0.83235 0.9098 0.0
C967 C 0.45231 0.84058 0.89983 0.0
C968 C 0.43451 0.98688 0.85981 0.0
C969 C 0.36443 0.84299 0.85184 0.0
C970 C 0.44775 0.96968 0.82205 0.0
Eu971 Eu 0.4631 0.93501 0.83939 0.0
C972 C 0.46581 0.98438 0.8113 0.0
C973 C 0.48541 0.95785 0.80547 0.0
C974 C 0.49545 0.96813 0.79486 0.0
C975 C 0.48572 1.00483 0.78994 0.0
C976 C 0.46843 0.03289 0.79595 0.0
C977 C 0.45857 0.02273 0.80651 0.0
C978 C 0.49396 0.86414 0.84398 0.0
C979 C 0.57695 0.99302 0.85065 0.0
O980 O 0.44801 0.85715 0.87602 0.0
O981 O 0.50896 0.93684 0.87985 0.0
O982 O 0.44169 0.9764 0.86921 0.0
O983 O 0.44773 0.96157 0.85403 0.0
O984 O 0.39383 0.84895 0.86008 0.0
O985 O 0.38028 0.87694 0.84409 0.0
O986 O 0.47713 1.00073 0.82951 0.0
O987 O 0.42531 0.91989 0.8244 0.0
O988 O 0.48907 0.87662 0.83453 0.0
O989 O 0.48356 0.89102 0.85001 0.0
O990 O 0.54796 0.99245 0.84273 0.0
O991 O 0.55656 0.96561 0.85931 0.0
H992 H 0.4424 0.94656 0.89312 0.0
H993 H 0.40512 0.93232 0.9106 0.0
H994 H 0.42884 0.80055 0.91434 0.0
H995 H 0.46534 0.81469 0.8969 0.0
H996 H 0.49126 0.92802 0.80902 0.0
H997 H 0.50858 0.94574 0.79044 0.0
H998 H 0.46141 0.06204 0.79243 0.0
H999 H 0.44353 0.04366 0.81088 0.0
C1000 C 0.16036 0.60284 0.8836 0.0
Eu1001 Eu 0.12801 0.56341 0.8652 0.0
C1002 C 0.16704 0.58779 0.89419 0.0
C1003 C 0.13161 0.53905 0.8985 0.0
C1004 C 0.13891 0.5265 0.90861 0.0
C1005 C 0.18184 0.56238 0.91463 0.0
C1006 C 0.21737 0.61092 0.91019 0.0
C1007 C 0.20999 0.6234 0.90011 0.0
C1008 C 0.05891 0.45964 0.86048 0.0
C1009 C 0.20287 0.53167 0.85215 0.0
C1010 C 0.07441 0.48928 0.82249 0.0
Eu1011 Eu 0.11079 0.53883 0.83988 0.0
C1012 C 0.06146 0.49563 0.81176 0.0
C1013 C 0.09231 0.54176 0.80614 0.0
C1014 C 0.08274 0.54435 0.7956 0.0
C1015 C 0.04207 0.50094 0.79047 0.0
C1016 C 1.01022 0.45554 0.79625 0.0
C1017 C 1.0199 0.45296 0.80676 0.0
C1018 C 0.18331 0.6404 0.84423 0.0
C1019 C 0.05662 0.59842 0.85117 0.0
O1020 O 0.19123 0.60194 0.87642 0.0
O1021 O 0.11249 0.58589 0.88029 0.0
O1022 O 0.07078 0.47769 0.86985 0.0
O1023 O 0.08385 0.49782 0.8546 0.0
O1024 O 0.19776 0.55573 0.86038 0.0
O1025 O 0.16843 0.51343 0.84446 0.0
O1026 O 0.04411 0.48926 0.82993 0.0
O1027 O 0.12414 0.51372 0.82499 0.0
O1028 O 0.17009 0.62247 0.83482 0.0
O1029 O 0.15654 0.60362 0.85037 0.0
O1030 O 0.05639 0.56999 0.84317 0.0
O1031 O 0.08313 0.60401 0.8599 0.0
H1032 H 0.0982 0.51078 0.89408 0.0
H1033 H 0.11044 0.48895 0.91177 0.0
H1034 H 0.25141 0.63924 0.91445 0.0
H1035 H 0.23802 0.6611 0.89693 0.0
H1036 H 0.12456 0.57531 0.80984 0.0
H1037 H 0.10759 0.58014 0.79143 0.0
H1038 H 0.97902 0.42114 0.79256 0.0
H1039 H 0.99586 0.41689 0.81093 0.0
C1040 C 0.44555 0.56884 0.88364 0.0
Eu1041 Eu 0.48351 0.57612 0.86507 0.0
C1042 C 0.46131 0.59143 0.89418 0.0
C1043 C 0.51099 0.60688 0.89829 0.0
C1044 C 0.52425 0.62773 0.90835 0.0
C1045 C 0.48824 0.63384 0.9145 0.0
C1046 C 0.43861 0.61831 0.91029 0.0
C1047 C 0.42541 0.59743 0.90028 0.0
C1048 C 0.58764 0.61303 0.86019 0.0
C1049 C 0.51427 0.68294 0.85219 0.0
C1050 C 0.55399 0.59812 0.82208 0.0
Eu1051 Eu 0.5071 0.58436 0.83978 0.0
C1052 C 0.54412 0.57907 0.81125 0.0
C1053 C 0.51024 0.58668 0.80479 0.0
C1054 C 0.5061 0.57397 0.79427 0.0
C1055 C 0.53553 0.55319 0.78999 0.0
C1056 C 0.56794 0.54387 0.79654 0.0
C1057 C 0.57234 0.5569 0.80705 0.0
C1058 C 0.405 0.55295 0.84427 0.0
C1059 C 0.45207 0.47054 0.85097 0.0
O1060 O 0.44463 0.59961 0.87646 0.0
O1061 O 0.46334 0.5388 0.88024 0.0
O1062 O 0.56969 0.60593 0.86957 0.0
O1063 O 0.5492 0.59948 0.85437 0.0
O1064 O 0.48989 0.65328 0.86035 0.0
O1065 O 0.53324 0.66724 0.84457 0.0
O1066 O 0.55397 0.5666 0.82924 0.0
O1067 O 0.53266 0.62546 0.82517 0.0
O1068 O 0.42284 0.55836 0.83485 0.0
O1069 O 0.44211 0.56345 0.85034 0.0
O1070 O 0.48146 0.50012 0.84321 0.0
O1071 O 0.44392 0.49045 0.8596 0.0
H1072 H 0.53958 0.60297 0.89373 0.0
H1073 H 0.56302 0.63975 0.91124 0.0
H1074 H 0.40947 0.62154 0.9148 0.0
H1075 H 0.38681 0.58569 0.89731 0.0
H1076 H 0.48784 0.60364 0.80778 0.0
H1077 H 0.48035 0.58106 0.78945 0.0
H1078 H 0.59159 0.52848 0.79347 0.0
H1079 H 0.59907 0.55107 0.81183 0.0
C1080 C 0.5729 0.79269 0.98676 0.0
Eu1081 Eu 0.60051 0.79446 1.00613 0.0
C1082 C 0.56002 0.76342 0.97679 0.0
C1083 C 0.59719 0.75668 0.97124 0.0
C1084 C 0.58563 0.73412 0.96131 0.0
C1085 C 0.53675 0.71798 0.95665 0.0
C1086 C 0.49927 0.72359 0.96237 0.0
C1087 C 0.51082 0.74607 0.97227 0.0
C1088 C 0.67219 0.76627 1.01211 0.0
C1089 C 0.52237 0.68478 1.01775 0.0
C1090 C 0.64019 0.7799 0.04787 0.0
Eu1091 Eu 0.6094 0.78519 0.0292 0.0
C1092 C 0.65753 0.80501 0.05814 0.0
C1093 C 0.62887 0.82311 0.06371 0.0
C1094 C 0.64055 0.83781 0.07412 0.0
C1095 C 0.68109 0.83472 0.07917 0.0
C1096 C 0.71127 0.81906 0.07339 0.0
C1097 C 0.69952 0.80431 0.06301 0.0
C1098 C 0.53211 0.80483 0.02392 0.0
C1099 C 0.6738 0.90096 0.01876 0.0
O1100 O 0.53955 0.77253 0.99438 0.0
O1101 O 0.62137 0.81662 0.98996 0.0
O1102 O 0.67838 0.79628 1.00433 0.0
O1103 O 0.62772 0.75039 1.01592 0.0
O1104 O 0.52812 0.71608 1.00993 0.0
O1105 O 0.5574 0.70052 0.02522 0.0
O1106 O 0.67235 0.79878 0.04 0.0
O1107 O 0.59146 0.76254 0.04529 0.0
O1108 O 0.53167 0.77935 0.0321 0.0
O1109 O 0.57608 0.82449 0.0195 0.0
O1110 O 0.67157 0.87008 0.02639 0.0
O1111 O 0.64424 0.88107 1.0104 0.0
H1112 H 0.63566 0.76994 0.97444 0.0
H1113 H 0.6157 0.73092 0.95715 0.0
H1114 H 0.46089 0.71086 0.95917 0.0
H1115 H 0.48146 0.751 0.97631 0.0
H1116 H 0.59622 0.82409 0.06015 0.0
H1117 H 0.61701 0.85044 0.07828 0.0
H1118 H 0.74236 0.81556 0.07703 0.0
H1119 H 0.72182 0.78997 0.05892 0.0
C1120 C 0.25473 0.78687 0.98588 0.0
Eu1121 Eu 0.25251 0.81406 1.00507 0.0
C1122 C 0.28323 0.80368 0.97588 0.0
C1123 C 0.28895 0.84732 0.97041 0.0
C1124 C 0.31139 0.8589 0.96049 0.0
C1125 C 0.32841 0.82699 0.9558 0.0
C1126 C 0.32376 0.78416 0.96144 0.0
C1127 C 0.30137 0.77264 0.97132 0.0
C1128 C 0.2778 0.91194 1.01193 0.0
C1129 C 0.35697 0.83722 0.01809 0.0
C1130 C 0.26692 0.87285 0.04761 0.0
Eu1131 Eu 0.2555 0.82995 0.02947 0.0
C1132 C 0.24599 0.86317 0.05832 0.0
C1133 C 0.26888 0.84726 0.06597 0.0
C1134 C 0.2542 0.84402 0.07633 0.0
C1135 C 0.21635 0.85684 0.07938 0.0
C1136 C 0.1924 0.87148 0.0717 0.0
C1137 C 0.20718 0.87477 0.06129 0.0
C1138 C 0.21947 0.72713 0.02484 0.0
C1139 C 0.14502 0.77992 1.0175 0.0
O1140 O 0.27731 0.77681 0.99352 0.0
O1141 O 0.22828 0.80903 0.98896 0.0
O1142 O 0.25327 0.89131 1.00336 0.0
O1143 O 0.29127 0.88181 1.01594 0.0
O1144 O 0.33174 0.82355 1.00913 0.0
O1145 O 0.33763 0.84729 0.02645 0.0
O1146 O 0.2394 0.87762 0.04015 0.0
O1147 O 0.29108 0.84804 0.04469 0.0
O1148 O 0.22399 0.74467 0.03424 0.0
O1149 O 0.23235 0.76472 0.01876 0.0
O1150 O 0.17393 0.81203 0.02501 0.0
O1151 O 0.16655 0.76846 1.00965 0.0
H1152 H 0.2751 0.8719 0.97368 0.0
H1153 H 0.31389 0.89193 0.95638 0.0
H1154 H 0.33722 0.75921 0.95819 0.0
H1155 H 0.29725 0.73863 0.97533 0.0
H1156 H 0.29958 0.83893 0.06401 0.0
H1157 H 0.27426 0.83357 0.08202 0.0
H1158 H 0.16276 0.88117 0.07374 0.0
H1159 H 0.18913 0.88769 0.05562 0.0
C1160 C 0.26527 0.48062 0.98606 0.0
Eu1161 Eu 0.23675 0.44991 1.00515 0.0
C1162 C 0.24785 0.49261 0.97617 0.0
C1163 C 0.20159 0.45602 0.97115 0.0
C1164 C 0.18855 0.46714 0.96139 0.0
C1165 C 0.22138 0.51511 0.95644 0.0
C1166 C 0.26715 0.5519 0.9616 0.0
C1167 C 0.28019 0.54072 0.97131 0.0
C1168 C 0.13831 0.37694 1.01156 0.0
C1169 C 0.20854 0.52889 1.01794 0.0
C1170 C 0.17155 0.40251 0.04741 0.0
Eu1171 Eu 0.2175 0.43652 0.02963 0.0
C1172 C 0.1781 0.38734 0.05794 0.0
C1173 C 0.22503 0.41599 0.06346 0.0
C1174 C 0.22774 0.40532 0.07394 0.0
C1175 C 0.18364 0.36572 0.07907 0.0
C1176 C 0.13745 0.33578 0.07337 0.0
C1177 C 0.13475 0.34657 0.06292 0.0
C1178 C 0.32072 0.5033 0.02527 0.0
C1179 C 0.26978 0.37675 0.01806 0.0
O1180 O 0.2753 0.51283 0.9938 0.0
O1181 O 0.24304 0.43178 0.98902 0.0
O1182 O 0.15976 0.37336 1.00308 0.0
O1183 O 0.168 0.42046 1.01569 0.0
O1184 O 0.22528 0.51876 1.00917 0.0
O1185 O 0.19771 0.49925 0.02628 0.0
O1186 O 0.16616 0.37118 0.0397 0.0
O1187 O 0.19964 0.45217 0.04502 0.0
O1188 O 0.3026 0.49108 0.03465 0.0
O1189 O 0.2834 0.47834 0.01915 0.0
O1190 O 0.23702 0.37383 0.0254 0.0
O1191 O 0.28149 0.40891 1.01004 0.0
H1192 H 0.17577 0.41854 0.97468 0.0
H1193 H 0.15268 0.4381 0.95774 0.0
H1194 H 0.29384 0.58893 0.95801 0.0
H1195 H 0.31632 0.56944 0.97495 0.0
H1196 H 0.25913 0.44762 0.05978 0.0
H1197 H 0.26412 0.42865 0.07806 0.0
H1198 H 0.10254 0.30544 0.07708 0.0
H1199 H 0.09805 0.32426 0.05883 0.0
C1200 C 0.27513 0.39966 0.54663 0.0
Eu1201 Eu 0.25945 0.4343 0.52932 0.0
C1202 C 0.25725 0.38523 0.5574 0.0
C1203 C 0.23745 0.41171 0.56319 0.0
C1204 C 0.22751 0.40171 0.57381 0.0
C1205 C 0.23757 0.36535 0.57879 0.0
C1206 C 0.2551 0.33735 0.57282 0.0
C1207 C 0.26485 0.34724 0.56225 0.0
C1208 C 0.22846 0.5052 0.52486 0.0
C1209 C 0.14549 0.37628 0.51814 0.0
C1210 C 0.24268 0.48025 0.48552 0.0
Eu1211 Eu 0.2512 0.44973 0.50399 0.0
C1212 C 0.26507 0.48764 0.47499 0.0
C1213 C 0.28587 0.45732 0.47121 0.0
C1214 C 0.30698 0.46561 0.46118 0.0
C1215 C 0.30798 0.5046 0.45476 0.0
C1216 C 0.28701 0.53475 0.45863 0.0
C1217 C 0.26587 0.52634 0.46861 0.0
C1218 C 0.28835 0.38289 0.50887 0.0
C1219 C 0.35781 0.52658 0.51685 0.0
O1220 O 0.24546 0.3686 0.53921 0.0
O1221 O 0.29772 0.44941 0.54425 0.0
O1222 O 0.23351 0.49247 0.53428 0.0
O1223 O 0.23868 0.4784 0.51876 0.0
O1224 O 0.17464 0.37677 0.52602 0.0
O1225 O 0.16574 0.40373 0.50947 0.0
O1226 O 0.27349 0.51215 0.49271 0.0
O1227 O 0.2135 0.43212 0.48885 0.0
O1228 O 0.28101 0.39338 0.49948 0.0
O1229 O 0.2748 0.40786 0.51467 0.0
O1230 O 0.3287 0.52033 0.50856 0.0
O1231 O 0.34204 0.49289 0.52464 0.0
H1232 H 0.23133 0.44127 0.5596 0.0
H1233 H 0.2142 0.42405 0.57819 0.0
H1234 H 0.26236 0.30846 0.57638 0.0
H1235 H 0.28005 0.32636 0.55792 0.0
H1236 H 0.28601 0.42742 0.47602 0.0
H1237 H 0.32327 0.44203 0.45853 0.0
H1238 H 0.2863 0.56455 0.45389 0.0
H1239 H 0.24999 0.55016 0.47136 0.0
C1240 C 0.64198 0.86847 0.54732 0.0
Eu1241 Eu 0.61024 0.83023 0.52884 0.0
C1242 C 0.66236 0.86466 0.55753 0.0
C1243 C 0.63511 0.8204 0.56387 0.0
C1244 C 0.64926 0.82201 0.57427 0.0
C1245 C 0.69065 0.86796 0.57853 0.0
C1246 C 0.7198 0.91091 0.57197 0.0
C1247 C 0.70572 0.90927 0.5616 0.0
C1248 C 0.53364 0.73295 0.52359 0.0
C1249 C 0.67469 0.77904 0.51836 0.0
C1250 C 0.57484 0.78628 0.4864 0.0
Eu1251 Eu 0.6014 0.81227 0.50579 0.0
C1252 C 0.56406 0.80328 0.47634 0.0
C1253 C 0.60062 0.85015 0.47152 0.0
C1254 C 0.5913 0.86225 0.46152 0.0
C1255 C 0.54537 0.82768 0.4561 0.0
C1256 C 0.50835 0.78155 0.4611 0.0
C1257 C 0.51766 0.76953 0.47107 0.0
C1258 C 0.67219 0.91256 0.51189 0.0
C1259 C 0.52124 0.84073 0.51749 0.0
O1260 O 0.67318 0.88318 0.53928 0.0
O1261 O 0.59357 0.83398 0.54506 0.0
O1262 O 0.5332 0.7575 0.53187 0.0
O1263 O 0.57734 0.75776 0.51908 0.0
O1264 O 0.67242 0.80748 0.52605 0.0
O1265 O 0.64507 0.76947 0.51002 0.0
O1266 O 0.54101 0.77478 0.49387 0.0
O1267 O 0.62303 0.80943 0.48975 0.0
O1268 O 0.67887 0.88909 0.50409 0.0
O1269 O 0.62766 0.88336 0.51561 0.0
O1270 O 0.52791 0.81612 0.5096 0.0
O1271 O 0.55598 0.86026 0.52501 0.0
H1272 H 0.60136 0.78545 0.56094 0.0
H1273 H 0.62589 0.78832 0.57911 0.0
H1274 H 0.75247 0.94657 0.57496 0.0
H1275 H 0.72721 0.94395 0.55689 0.0
H1276 H 0.63691 0.87692 0.47536 0.0
H1277 H 0.62087 0.89795 0.45791 0.0
H1278 H 0.47211 0.75441 0.45729 0.0
H1279 H 0.48889 0.7331 0.47459 0.0
C1280 C 0.1687 0.77379 0.54705 0.0
Eu1281 Eu 0.21654 0.78712 0.52946 0.0
C1282 C 0.17669 0.79286 0.55787 0.0
C1283 C 0.2135 0.79032 0.56436 0.0
C1284 C 0.2157 0.8022 0.57491 0.0
C1285 C 0.18133 0.81706 0.57918 0.0
C1286 C 0.14594 0.82151 0.57258 0.0
C1287 C 0.14355 0.80934 0.56205 0.0
C1288 C 0.31856 0.81836 0.52501 0.0
C1289 C 0.27216 0.90066 0.518 0.0
C1290 C 0.27878 0.80052 0.48569 0.0
Eu1291 Eu 0.24029 0.79426 0.50416 0.0
C1292 C 0.26321 0.77624 0.4753 0.0
C1293 C 0.21341 0.75968 0.47113 0.0
C1294 C 0.20016 0.73693 0.46124 0.0
C1295 C 0.2363 0.72992 0.45533 0.0
C1296 C 0.28603 0.74652 0.45959 0.0
C1297 C 0.29924 0.76937 0.46943 0.0
C1298 C 0.1362 0.75772 0.50897 0.0
C1299 C 0.20952 0.68776 0.51718 0.0
O1300 O 0.1685 0.80459 0.53975 0.0
O1301 O 0.19142 0.74737 0.54421 0.0
O1302 O 0.30085 0.81358 0.53442 0.0
O1303 O 0.28141 0.80753 0.51892 0.0
O1304 O 0.24327 0.87164 0.52588 0.0
O1305 O 0.2798 0.88015 0.50941 0.0
O1306 O 0.28067 0.77117 0.49308 0.0
O1307 O 0.25981 0.82996 0.48884 0.0
O1308 O 0.1542 0.76455 0.4996 0.0
O1309 O 0.17458 0.77126 0.51482 0.0
O1310 O 0.23303 0.71687 0.50892 0.0
O1311 O 0.19159 0.70401 0.52491 0.0
H1312 H 0.23971 0.77784 0.56138 0.0
H1313 H 0.24386 0.79904 0.57975 0.0
H1314 H 0.11852 0.83228 0.57563 0.0
H1315 H 0.11454 0.81119 0.55724 0.0
H1316 H 0.18471 0.76418 0.47553 0.0
H1317 H 0.16134 0.72415 0.45828 0.0
H1318 H 0.31518 0.74254 0.45525 0.0
H1319 H 0.33791 0.78189 0.47247 0.0
C1320 C 0.07928 0.59614 0.32218 0.0
Eu1321 Eu 0.11536 0.58839 0.34005 0.0
C1322 C 0.06096 0.57344 0.31182 0.0
C1323 C 0.0863 0.55241 0.30602 0.0
C1324 C 0.07384 0.53985 0.29555 0.0
C1325 C 0.0362 0.54851 0.29073 0.0
C1326 C 1.00894 0.56667 0.29675 0.0
C1327 C 1.02125 0.57902 0.30718 0.0
C1328 C 0.19361 0.57035 0.34534 0.0
C1329 C 0.05394 0.4716 0.35069 0.0
C1330 C 0.15975 0.57156 0.38307 0.0
Eu1331 Eu 0.12821 0.57792 0.36455 0.0
C1332 C 0.16954 0.59628 0.39346 0.0
C1333 C 0.13195 0.60369 0.39866 0.0
C1334 C 0.14185 0.62526 0.40867 0.0
C1335 C 0.18954 0.63995 0.41371 0.0
C1336 C 0.22724 0.63306 0.40838 0.0
C1337 C 0.21728 0.61144 0.39842 0.0
C1338 C 0.06282 0.6175 0.36014 0.0
C1339 C 0.20253 0.68705 0.35239 0.0
O1340 O 0.049 0.57307 0.33016 0.0
O1341 O 0.12909 0.616 0.3242 0.0
O1342 O 0.19203 0.59214 0.33671 0.0
O1343 O 0.15063 0.55286 0.35008 0.0
O1344 O 0.06082 0.50134 0.34246 0.0
O1345 O 0.07737 0.49168 0.35973 0.0
O1346 O 0.19159 0.59963 0.37562 0.0
O1347 O 0.11109 0.54326 0.37996 0.0
O1348 O 0.07194 0.60759 0.36943 0.0
O1349 O 0.08818 0.60498 0.35426 0.0
O1350 O 0.19939 0.65532 0.35995 0.0
O1351 O 0.16603 0.67198 0.34516 0.0
H1352 H 0.11718 0.54782 0.30944 0.0
H1353 H 0.09558 0.52603 0.2911 0.0
H1354 H 0.97914 0.57292 0.29331 0.0
H1355 H 1.00128 0.59521 0.31152 0.0
H1356 H 0.09473 0.5924 0.39505 0.0
H1357 H 0.11163 0.62943 0.41252 0.0
H1358 H 0.26478 0.64471 0.41188 0.0
H1359 H 0.24698 0.60626 0.39459 0.0
C1360 C 0.45689 0.50292 0.32205 0.0
Eu1361 Eu 0.46332 0.54113 0.34056 0.0
C1362 C 0.48197 0.50899 0.31186 0.0
C1363 C 0.50284 0.55593 0.30626 0.0
C1364 C 0.51736 0.55772 0.29587 0.0
C1365 C 0.51132 0.51267 0.29089 0.0
C1366 C 0.49301 0.46656 0.29671 0.0
C1367 C 0.47843 0.46478 0.30706 0.0
C1368 C 0.484 0.63826 0.34577 0.0
C1369 C 0.57928 0.59283 0.35101 0.0
C1370 C 0.47136 0.58442 0.38306 0.0
Eu1371 Eu 0.47273 0.55921 0.36364 0.0
C1372 C 0.44168 0.56701 0.39295 0.0
C1373 C 0.43925 0.5258 0.39882 0.0
C1374 C 0.41596 0.51398 0.40866 0.0
C1375 C 0.39477 0.54323 0.41291 0.0
C1376 C 0.39616 0.58358 0.4069 0.0
C1377 C 0.41942 0.59536 0.39709 0.0
C1378 C 0.44308 0.45911 0.35748 0.0
C1379 C 0.36448 0.53206 0.35194 0.0
O1380 O 0.47467 0.48927 0.33004 0.0
O1381 O 0.4413 0.53592 0.32442 0.0
O1382 O 0.45933 0.61368 0.33747 0.0
O1383 O 0.503 0.6137 0.35031 0.0
O1384 O 0.54847 0.56449 0.34331 0.0
O1385 O 0.5593 0.60214 0.35939 0.0
O1386 O 0.45118 0.59787 0.3755 0.0
O1387 O 0.49547 0.56027 0.37976 0.0
O1388 O 0.47357 0.48261 0.36524 0.0
O1389 O 0.42759 0.48818 0.3538 0.0
O1390 O 0.39548 0.55547 0.35993 0.0
O1391 O 0.37917 0.51247 0.34434 0.0
H1392 H 0.50606 0.5907 0.30976 0.0
H1393 H 0.53206 0.59407 0.29167 0.0
H1394 H 0.48727 0.43096 0.29312 0.0
H1395 H 0.46195 0.42802 0.31119 0.0
H1396 H 0.45641 0.5034 0.39593 0.0
H1397 H 0.41614 0.48299 0.41307 0.0
H1398 H 0.37952 0.60643 0.4098 0.0
H1399 H 0.421 0.62759 0.39281 0.0
C1400 C 0.55326 0.97099 0.32241 0.0
Eu1401 Eu 0.50636 0.93783 0.34012 0.0
C1402 C 0.55039 0.98797 0.31182 0.0
C1403 C 0.50529 0.96091 0.30569 0.0
C1404 C 0.50675 0.97248 0.29513 0.0
C1405 C 0.55339 1.01107 0.29053 0.0
C1406 C 0.5975 0.03988 0.29685 0.0
C1407 C 0.59598 0.02838 0.30737 0.0
C1408 C 0.40311 0.87115 0.34462 0.0
C1409 C 0.45448 0.99798 0.35153 0.0
C1410 C 0.46055 0.89724 0.38377 0.0
Eu1411 Eu 0.48847 0.92583 0.36457 0.0
C1412 C 0.47785 0.88703 0.39384 0.0
C1413 C 0.52537 0.92335 0.3985 0.0
C1414 C 0.53841 0.91399 0.40841 0.0
C1415 C 0.50428 0.86811 0.41388 0.0
C1416 C 0.45714 0.83164 0.40908 0.0
C1417 C 0.44416 0.84104 0.39921 0.0
C1418 C 0.58738 0.99731 0.35791 0.0
C1419 C 0.5124 0.84407 0.35178 0.0
O1420 O 0.55988 1.00256 0.33016 0.0
O1421 O 0.52253 0.92148 0.32464 0.0
O1422 O 0.42103 0.88327 0.33521 0.0
O1423 O 0.4406 0.89658 0.3507 0.0
O1424 O 0.48702 1.00072 0.34416 0.0
O1425 O 0.44335 0.96635 0.35962 0.0
O1426 O 0.45153 0.86424 0.37622 0.0
O1427 O 0.48199 0.94563 0.38056 0.0
O1428 O 0.56637 1.00195 0.36635 0.0
O1429 O 0.55677 0.95363 0.35393 0.0
O1430 O 0.49718 0.85532 0.36062 0.0
O1431 O 0.5239 0.87372 0.34344 0.0
H1432 H 0.4696 0.92946 0.30895 0.0
H1433 H 0.47217 0.94946 0.29048 0.0
H1434 H 0.63376 0.07044 0.29359 0.0
H1435 H 0.63122 0.0497 0.31195 0.0
H1436 H 0.5522 0.95922 0.39455 0.0
H1437 H 0.57532 0.94268 0.41178 0.0
H1438 H 0.42942 0.79627 0.41306 0.0
H1439 H 0.40707 0.81264 0.39584 0.0
C1440 C 0.20183 0.13973 0.17334 0.0
C1441 C 0.17944 0.15751 0.18071 0.0
H1442 H 0.22273 0.08251 0.16927 0.0
C1443 C 0.16386 0.13168 0.19028 0.0
H1444 H 0.21429 0.15892 0.1659 0.0
C1445 C 0.16807 0.0872 0.1922 0.0
C1446 C 0.18865 0.06813 0.18464 0.0
H1447 H 0.1461 0.14423 0.19606 0.0
H1448 H 0.15361 0.06682 0.19948 0.0
C1449 C 0.20681 0.09592 0.1753 0.0
C1450 C 0.9596 0.09612 0.19258 0.0
C1451 C 0.98761 0.1279 0.18413 0.0
H1452 H 0.89577 0.02202 0.19753 0.0
C1453 C 0.97058 0.10905 0.17406 0.0
H1454 H 0.97176 0.10954 0.20043 0.0
C1455 C 0.92864 0.05879 0.17245 0.0
C1456 C 0.90155 0.0264 0.18084 0.0
H1457 H 0.9913 0.13211 0.16735 0.0
H1458 H 0.918 0.04492 0.16457 0.0
C1459 C 0.91624 0.04603 0.19094 0.0
C1460 C 0.98871 0.87638 0.17256 0.0
C1461 C 1.02199 0.88338 0.18091 0.0
H1462 H 0.914 0.86295 0.16762 0.0
C1463 C 1.00283 0.87859 0.19103 0.0
H1464 H 1.00227 0.87948 0.16466 0.0
C1465 C 0.95239 0.87053 0.19275 0.0
C1466 C 0.91967 0.86496 0.18436 0.0
H1467 H 1.02748 0.88337 0.19758 0.0
H1468 H 0.93937 0.86969 0.20062 0.0
C1469 C 0.93792 0.86647 0.17426 0.0
C1470 C 0.14513 0.18448 0.36352 0.0
C1471 C 0.16457 0.16529 0.35581 0.0
H1472 H 0.08685 0.20322 0.36793 0.0
C1473 C 0.14058 0.15338 0.34604 0.0
H1474 H 0.16294 0.1942 0.37113 0.0
C1475 C 0.09626 0.15803 0.34419 0.0
C1476 C 0.07548 0.17533 0.35206 0.0
H1477 H 0.1547 0.13847 0.33996 0.0
H1478 H 0.07743 0.14657 0.3367 0.0
C1479 C 0.10144 0.18977 0.36166 0.0
C1480 C 0.8565 0.92425 0.36143 0.0
C1481 C 0.87184 0.91297 0.35191 0.0
H1482 H 0.85134 0.98111 0.37085 0.0
C1483 C 0.88996 0.95132 0.34409 0.0
H1484 H 0.84237 0.89601 0.36767 0.0
C1485 C 0.89454 1.00029 0.34593 0.0
C1486 C 0.88174 1.01212 0.35565 0.0
H1487 H 0.90217 0.94418 0.33666 0.0
H1488 H 0.91017 0.02953 0.33992 0.0
C1489 C 0.86174 0.97323 0.36329 0.0
C1490 C 0.04819 0.90588 0.34626 0.0
C1491 C 0.03537 0.88319 0.35614 0.0
H1492 H 0.10531 0.96777 0.3368 0.0
C1493 C 0.07348 0.90338 0.36394 0.0
H1494 H 1.01958 0.89104 0.34012 0.0
C1495 C 0.12272 0.94673 0.36206 0.0
C1496 C 0.13488 0.97151 0.35234 0.0
H1497 H 0.06478 0.88648 0.37162 0.0
H1498 H 0.15039 0.9621 0.36839 0.0
C1499 C 0.09736 0.94985 0.34439 0.0
C1500 C 0.89682 0.91 0.84597 0.0
C1501 C 0.88393 0.88545 0.85568 0.0
H1502 H 0.90284 0.97263 0.83661 0.0
C1503 C 0.86211 0.90306 0.86321 0.0
H1504 H 0.91399 0.89742 0.84006 0.0
C1505 C 0.85496 0.94554 0.86122 0.0
C1506 C 0.87034 0.97206 0.8517 0.0
H1507 H 0.85166 0.88474 0.87076 0.0
H1508 H 0.83961 0.95903 0.86735 0.0
C1509 C 0.89046 0.95314 0.84402 0.0
C1510 C 0.13885 1.00163 0.84561 0.0
C1511 C 0.16429 1.01275 0.85523 0.0
H1512 H 0.07407 0.94625 0.83642 0.0
C1513 C 0.14547 0.97356 0.86281 0.0
H1514 H 0.15224 0.03122 0.83966 0.0
C1515 C 0.10126 0.92481 0.86096 0.0
C1516 C 0.07409 0.91421 0.85151 0.0
H1517 H 0.16431 0.98098 0.87031 0.0
H1518 H 0.08727 0.89619 0.86712 0.0
C1519 C 0.09394 0.95296 0.84378 0.0
C1520 C 0.05251 0.15911 0.84495 0.0
C1521 C 0.03333 0.15289 0.85511 0.0
H1522 H 0.11592 0.16914 0.83518 0.0
C1523 C 0.06615 0.15744 0.86336 0.0
H1524 H 1.02815 0.1562 0.83847 0.0
C1525 C 0.11656 0.16672 0.86154 0.0
C1526 C 0.13512 0.17021 0.85139 0.0
H1527 H 0.05263 0.15317 0.87129 0.0
H1528 H 0.1401 0.16867 0.86813 0.0
C1529 C 0.10273 0.16669 0.84308 0.0
C1530 C 0.92074 0.89139 0.69088 0.0
C1531 C 0.88716 0.86589 0.6825 0.0
H1532 H 0.99162 0.90963 0.69872 0.0
C1533 C 0.89821 0.83465 0.67597 0.0
H1534 H 0.91346 0.9159 0.69602 0.0
C1535 C 0.94342 0.83131 0.67745 0.0
C1536 C 0.97844 0.85887 0.68554 0.0
H1537 H 0.87301 0.81439 0.66947 0.0
H1538 H 0.95173 0.80848 0.67202 0.0
C1539 C 0.96569 0.88776 0.69241 0.0
C1540 C 0.19768 0.11437 0.67451 0.0
C1541 C 0.18247 0.12608 0.684 0.0
H1542 H 0.20208 0.05692 0.66517 0.0
C1543 C 0.16388 0.08788 0.69185 0.0
H1544 H 0.2122 0.14249 0.66826 0.0
C1545 C 0.15866 0.03858 0.69007 0.0
C1546 C 0.17128 0.02637 0.68038 0.0
H1547 H 0.15174 0.09538 0.69926 0.0
H1548 H 0.14251 1.00936 0.69609 0.0
C1549 C 0.19178 0.06512 0.67271 0.0
C1550 C 0.95715 0.09249 0.6919 0.0
C1551 C 0.91967 0.07011 0.68394 0.0
H1552 H 0.03515 0.15141 0.69607 0.0
C1553 C 0.93199 0.09429 0.67416 0.0
H1554 H 0.94921 0.07504 0.69952 0.0
C1555 C 0.98131 0.13739 0.6722 0.0
C1556 C 1.01955 0.158 0.67997 0.0
H1557 H 0.90436 0.07859 0.66783 0.0
H1558 H 0.99002 0.15362 0.66446 0.0
C1559 C 1.00652 0.1362 0.68993 0.0
C1560 C 0.86402 0.42532 0.50701 0.0
C1561 C 0.8509 0.40046 0.51672 0.0
H1562 H 0.86738 0.48592 0.49743 0.0
C1563 C 0.83498 0.42223 0.52464 0.0
H1564 H 0.87637 0.40988 0.5007 0.0
C1565 C 0.8304 0.4665 0.52275 0.0
C1566 C 0.84094 0.48938 0.51288 0.0
H1567 H 0.8246 0.40425 0.53222 0.0
H1568 H 0.81661 0.48145 0.52887 0.0
C1569 C 0.85874 0.46894 0.50511 0.0
C1570 C 0.57924 0.39974 0.50564 0.0
C1571 C 0.56043 0.36055 0.51322 0.0
H1572 H 0.63685 0.47732 0.50138 0.0
C1573 C 0.58503 0.37216 0.52294 0.0
H1574 H 0.56098 0.39203 0.49808 0.0
C1575 C 0.62931 0.42125 0.52484 0.0
C1576 C 0.64941 0.45994 0.51709 0.0
H1577 H 0.57153 0.34265 0.5289 0.0
H1578 H 0.64867 0.42825 0.53227 0.0
C1579 C 0.62281 0.44884 0.50756 0.0
C1580 C 0.62656 0.21435 0.52485 0.0
C1581 C 0.58815 0.19592 0.51703 0.0
H1582 H 0.70493 0.235 0.52902 0.0
C1583 C 0.59937 0.18037 0.50752 0.0
H1584 H 0.61943 0.22669 0.53227 0.0
C1585 C 0.64842 0.1858 0.50567 0.0
C1586 C 0.68739 0.20619 0.51331 0.0
H1587 H 0.57104 0.16598 0.5013 0.0
H1588 H 0.65629 0.17528 0.49812 0.0
C1589 C 0.6756 0.21911 0.52301 0.0
C1590 C 0.81329 0.51639 0.69709 0.0
C1591 C 0.83202 0.49653 0.6894 0.0
H1592 H 0.7559 0.53607 0.70154 0.0
C1593 C 0.80767 0.48439 0.67965 0.0
H1594 H 0.83145 0.52642 0.70466 0.0
C1595 C 0.76349 0.48939 0.67783 0.0
C1596 C 0.74328 0.50712 0.68572 0.0
H1597 H 0.82124 0.46887 0.6736 0.0
H1598 H 0.74412 0.47753 0.67039 0.0
C1599 C 0.76981 0.52195 0.69526 0.0
C1600 C 0.52017 0.25333 0.69446 0.0
C1601 C 0.53654 0.24288 0.68497 0.0
H1602 H 0.51342 0.30918 0.70391 0.0
C1603 C 0.55461 0.28151 0.67721 0.0
H1604 H 0.50597 0.22482 0.70065 0.0
C1605 C 0.55824 0.33005 0.67909 0.0
C1606 C 0.54454 0.34109 0.6888 0.0
H1607 H 0.56754 0.27496 0.66981 0.0
H1608 H 0.57395 0.35966 0.67313 0.0
C1609 C 0.52448 0.30186 0.69636 0.0
C1610 C 0.76416 0.28355 0.67754 0.0
C1611 C 0.80228 0.30372 0.68541 0.0
H1612 H 0.6858 0.22589 0.67329 0.0
C1613 C 0.79045 0.27737 0.69496 0.0
H1614 H 0.77175 0.30272 0.67009 0.0
C1615 C 0.74113 0.23395 0.69679 0.0
C1616 C 0.70248 0.21513 0.68908 0.0
H1617 H 0.81851 0.29148 0.70124 0.0
H1618 H 0.73282 0.21586 0.70436 0.0
C1619 C 0.71486 0.23946 0.67935 0.0
C1620 C 0.53413 0.2373 0.19724 0.0
C1621 C 0.5537 0.21813 0.18957 0.0
H1622 H 0.51508 0.29532 0.20163 0.0
C1623 C 0.56605 0.24232 0.17982 0.0
H1624 H 0.52407 0.2193 0.20482 0.0
C1625 C 0.56149 0.28664 0.17797 0.0
C1626 C 0.54381 0.30715 0.18581 0.0
H1627 H 0.58146 0.22851 0.1738 0.0
H1628 H 0.57341 0.30572 0.17051 0.0
C1629 C 0.52885 0.28093 0.19537 0.0
C1630 C 0.80534 0.33171 0.17881 0.0
C1631 C 0.83798 0.33996 0.18735 0.0
H1632 H 0.73476 0.27926 0.17083 0.0
C1633 C 0.82553 0.29805 0.19407 0.0
H1634 H 0.81377 0.36322 0.1735 0.0
C1635 C 0.77987 0.24974 0.1926 0.0
C1636 C 0.74575 0.24219 0.18433 0.0
H1637 H 0.85 0.30314 0.20071 0.0
H1638 H 0.77049 0.21893 0.19816 0.0
C1639 C 0.7599 0.2834 0.17729 0.0
C1640 C 0.77012 0.49513 0.17734 0.0
C1641 C 0.80881 0.51266 0.18509 0.0
H1642 H 0.69145 0.47457 0.17345 0.0
C1643 C 0.79805 0.52754 0.19473 0.0
H1644 H 0.77683 0.48322 0.16984 0.0
C1645 C 0.74907 0.52182 0.19679 0.0
C1646 C 0.70965 0.50182 0.18925 0.0
H1647 H 0.82664 0.54142 0.20091 0.0
H1648 H 0.74155 0.53163 0.20444 0.0
C1649 C 0.7211 0.49005 0.1794 0.0
C1650 C 0.63679 0.20249 1.00851 0.0
C1651 C 0.6538 0.19944 0.01849 0.0
H1652 H 0.58508 0.21658 0.99932 0.0
C1653 C 0.62679 0.20369 0.02709 0.0
H1654 H 0.65686 0.19991 1.00172 0.0
C1655 C 0.58448 0.21217 0.02568 0.0
C1656 C 0.56981 0.21827 1.01568 0.0
H1657 H 0.63906 0.20161 0.03488 0.0
H1658 H 0.56488 0.21625 0.03239 0.0
C1659 C 0.59584 0.2125 1.00713 0.0
C1660 C 0.83254 0.37177 0.02368 0.0
C1661 C 0.84467 0.35879 1.01401 0.0
H1662 H 0.82435 0.42856 0.0326 0.0
C1663 C 0.86305 0.39629 1.0061 0.0
H1664 H 0.81814 0.34353 0.02989 0.0
C1665 C 0.86699 0.44486 1.00762 0.0
C1666 C 0.85215 0.45717 1.01709 0.0
H1667 H 0.87298 0.38752 0.99858 0.0
H1668 H 0.87986 0.47197 1.0012 0.0
C1669 C 0.83606 0.42049 0.0252 0.0
C1670 C 0.62236 0.42251 0.02489 0.0
C1671 C 0.58509 0.4005 1.01689 0.0
H1672 H 0.6998 0.48209 0.02927 0.0
C1673 C 0.59714 0.42568 1.00722 0.0
H1674 H 0.61452 0.40432 0.03244 0.0
C1675 C 0.64606 0.46972 1.00541 0.0
C1676 C 0.68405 0.49017 1.01324 0.0
H1677 H 0.56965 0.41015 1.00086 0.0
H1678 H 0.65471 0.48686 0.99775 0.0
C1679 C 0.67127 0.46709 0.02309 0.0
C1680 C 0.52648 0.80376 0.83932 0.0
C1681 C 0.50528 0.82226 0.84679 0.0
H1682 H 0.54722 0.74662 0.83523 0.0
C1683 C 0.49155 0.79766 0.8565 0.0
H1684 H 0.5376 0.82205 0.83178 0.0
C1685 C 0.49643 0.75359 0.85849 0.0
C1686 C 0.51584 0.73378 0.85085 0.0
H1687 H 0.47485 0.81094 0.86237 0.0
H1688 H 0.48344 0.73415 0.8659 0.0
C1689 C 0.5321 0.76043 0.84134 0.0
C1690 C 0.24358 0.73278 0.83924 0.0
C1691 C 0.22519 0.6939 0.84687 0.0
H1692 H 0.30068 0.81033 0.83488 0.0
C1693 C 0.24976 0.70592 0.85659 0.0
H1694 H 0.22522 0.72471 0.83169 0.0
C1695 C 0.29379 0.7552 0.85844 0.0
C1696 C 0.31357 0.79356 0.85062 0.0
H1697 H 0.23644 0.67658 0.86259 0.0
H1698 H 0.31326 0.76257 0.86586 0.0
C1699 C 0.28689 0.78205 0.84111 0.0
C1700 C 0.33967 0.55326 0.85675 0.0
C1701 C 0.35149 0.54104 0.84698 0.0
H1702 H 0.28332 0.55997 0.86612 0.0
C1703 C 0.31247 0.52085 0.83935 0.0
H1704 H 0.36908 0.56902 0.86275 0.0
C1705 C 0.2633 0.51496 0.84128 0.0
C1706 C 0.25204 0.52989 0.85085 0.0
H1707 H 0.32039 0.51084 0.83176 0.0
H1708 H 0.23494 0.50079 0.83506 0.0
C1709 C 0.2905 0.54808 0.85865 0.0
C1710 C 0.47793 0.82685 1.01214 0.0
C1711 C 0.49238 0.82033 0.02214 0.0
H1712 H 0.4229 0.83669 1.00291 0.0
C1713 C 0.46522 0.82429 0.03067 0.0
H1714 H 0.49827 0.82384 1.00544 0.0
C1715 C 0.4234 0.83286 0.02927 0.0
C1716 C 0.40658 0.83641 0.01928 0.0
H1717 H 0.47565 0.81968 0.03847 0.0
H1718 H 0.40272 0.83419 0.03608 0.0
C1719 C 0.43483 0.83412 1.01071 0.0
C1720 C 0.22433 0.66303 1.01262 0.0
C1721 C 0.20957 0.67418 0.02221 0.0
H1722 H 0.23575 0.60821 1.00368 0.0
C1723 C 0.18967 0.63541 0.02986 0.0
H1724 H 0.23999 0.69234 1.0066 0.0
C1725 C 0.18684 0.58743 0.02821 0.0
C1726 C 0.20437 0.57693 0.01887 0.0
H1727 H 0.17773 0.64277 0.03731 0.0
H1728 H 0.17263 0.55931 0.03446 0.0
C1729 C 0.22195 0.61485 1.01097 0.0
C1730 C 0.41358 0.56261 0.03013 0.0
C1731 C 0.37423 0.54486 0.02259 0.0
H1732 H 0.49139 0.61961 0.03442 0.0
C1733 C 0.3856 0.57016 1.01296 0.0
H1734 H 0.40594 0.54369 0.03761 0.0
C1735 C 0.43466 0.61445 1.01113 0.0
C1736 C 0.47341 0.63363 0.01887 0.0
H1737 H 0.35586 0.5573 1.00703 0.0
H1738 H 0.44156 0.63463 1.00381 0.0
C1739 C 0.46268 0.60615 0.02827 0.0
C1740 C 0.19732 0.56638 0.52982 0.0
C1741 C 0.21735 0.54742 0.52219 0.0
H1742 H 0.17794 0.62424 0.53418 0.0
C1743 C 0.23026 0.57197 0.51248 0.0
H1744 H 0.18684 0.54816 0.53738 0.0
C1745 C 0.22574 0.61637 0.51063 0.0
C1746 C 0.20756 0.63665 0.51844 0.0
H1747 H 0.24601 0.55834 0.50648 0.0
H1748 H 0.23805 0.6357 0.5032 0.0
C1749 C 0.19211 0.61009 0.52796 0.0
C1750 C 0.47811 0.65906 0.51143 0.0
C1751 C 0.49367 0.678 0.52155 0.0
H1752 H 0.42194 0.59609 0.50193 0.0
C1753 C 0.46741 0.64516 0.52993 0.0
H1754 H 0.49772 0.68379 0.50485 0.0
C1755 C 0.42545 0.5949 0.52829 0.0
C1756 C 0.4076 0.57663 0.51822 0.0
H1757 H 0.47868 0.65874 0.53781 0.0
H1758 H 0.40532 0.57139 0.53499 0.0
C1759 C 0.43479 0.60899 0.50978 0.0
C1760 C 0.43273 0.8211 0.51092 0.0
C1761 C 0.47172 0.84182 0.51861 0.0
H1762 H 0.35356 0.79795 0.50686 0.0
C1763 C 0.46087 0.85895 0.52796 0.0
H1764 H 0.43965 0.80742 0.50363 0.0
C1765 C 0.41158 0.85285 0.52981 0.0
C1766 C 0.37206 0.8303 0.52231 0.0
H1767 H 0.48972 0.87509 0.53408 0.0
H1768 H 0.40399 0.86463 0.53725 0.0
C1769 C 0.38343 0.81573 0.51274 0.0
C1770 C 0.25902 0.54773 0.33894 0.0
C1771 C 0.23323 0.55488 0.34735 0.0
H1772 H 0.31919 0.53318 0.33383 0.0
C1773 C 0.24778 0.54979 0.35744 0.0
H1774 H 0.24842 0.55104 0.33107 0.0
C1775 C 0.28967 0.54086 0.35906 0.0
C1776 C 0.31616 0.53485 0.35059 0.0
H1777 H 0.22829 0.55477 0.36405 0.0
H1778 H 0.30185 0.53948 0.3669 0.0
C1779 C 0.29939 0.53707 0.34053 0.0
C1780 C 0.5019 0.71274 0.35776 0.0
C1781 C 0.49883 0.69319 0.34771 0.0
H1782 H 0.50786 0.77602 0.36703 0.0
C1783 C 0.50499 0.7252 0.33922 0.0
H1784 H 0.49705 0.68861 0.36442 0.0
C1785 C 0.51232 0.77508 0.34067 0.0
C1786 C 0.51238 0.79402 0.35067 0.0
H1787 H 0.50298 0.71119 0.33139 0.0
H1788 H 0.51547 0.79778 0.33386 0.0
C1789 C 0.50794 0.76263 0.35923 0.0
C1790 C 0.2614 0.76602 0.34176 0.0
C1791 C 0.25129 0.73859 0.35115 0.0
H1792 H 0.31725 0.82904 0.33237 0.0
C1793 C 0.29046 0.75838 0.35882 0.0
H1794 H 0.23247 0.75211 0.33564 0.0
C1795 C 0.33912 0.80326 0.35696 0.0
C1796 C 0.34985 0.82869 0.34734 0.0
H1797 H 0.28414 0.73833 0.36615 0.0
H1798 H 0.36908 0.81657 0.36286 0.0
C1799 C 0.31015 0.81016 0.33985 0.0
C1800 C 0.34293 0.36168 0.19112 0.0
C1801 C 0.308 0.35904 0.18339 0.0
H1802 H 0.42285 0.38612 0.19511 0.0
C1803 C 0.329 0.38242 0.17375 0.0
H1804 H 0.32839 0.34412 0.19863 0.0
C1805 C 0.38249 0.40565 0.17175 0.0
C1806 C 0.41715 0.40711 0.17932 0.0
H1807 H 0.30394 0.38152 0.16755 0.0
H1808 H 0.39665 0.42184 0.16413 0.0
C1809 C 0.39707 0.3858 0.18913 0.0
C1810 C 0.64394 0.98431 0.17098 0.0
C1811 C 0.64132 1.01672 0.17861 0.0
H1812 H 0.66945 0.93092 0.16681 0.0
C1813 C 0.66177 1.01757 0.18848 0.0
H1814 H 0.62841 0.98262 0.16331 0.0
C1815 C 0.686 0.98785 0.19053 0.0
C1816 C 0.68997 0.9565 0.18275 0.0
H1817 H 0.66068 0.04251 0.1945 0.0
H1818 H 0.70286 0.99062 0.1981 0.0
C1819 C 0.66756 0.9545 0.17302 0.0
C1820 C 0.09598 0.7235 0.17312 0.0
C1821 C 0.09427 0.74398 0.18286 0.0
H1822 H 0.06841 0.65599 0.16343 0.0
C1823 C 0.06384 0.70843 0.1907 0.0
H1824 H 0.11879 0.74908 0.16685 0.0
C1825 C 0.03489 0.65422 0.1887 0.0
C1826 C 0.03551 0.63448 0.17881 0.0
H1827 H 0.06125 0.72252 0.19829 0.0
H1828 H 1.01064 0.62809 0.19476 0.0
C1829 C 0.0669 0.66981 0.17112 0.0
C1830 C 0.40402 0.31599 0.35981 0.0
C1831 C 0.36714 0.29254 0.35178 0.0
H1832 H 0.45708 0.38658 0.36781 0.0
C1833 C 0.35793 0.32515 0.34525 0.0
H1834 H 0.41244 0.2924 0.36498 0.0
C1835 C 0.38342 0.37936 0.34695 0.0
C1836 C 0.41902 0.40235 0.35517 0.0
H1837 H 0.32978 0.30869 0.33901 0.0
H1838 H 0.3745 0.40319 0.34194 0.0
C1839 C 0.42974 0.37013 0.36144 0.0
C1840 C 0.66634 1.01788 0.34693 0.0
C1841 C 0.64406 0.02999 0.35536 0.0
H1842 H 0.73658 0.03497 0.33879 0.0
C1843 C 0.67711 0.07225 0.36175 0.0
H1844 H 0.64196 0.9856 0.34184 0.0
C1845 C 0.73121 0.1004 0.36004 0.0
C1846 C 0.75404 0.08741 0.35183 0.0
H1847 H 0.66133 0.08284 0.36828 0.0
H1848 H 0.75528 0.13184 0.36532 0.0
C1849 C 0.72065 0.04633 0.34517 0.0
C1850 C 0.96417 0.66294 0.36278 0.0
C1851 C 0.9663 0.68569 0.35308 0.0
H1852 H 0.9928 0.62434 0.37253 0.0
C1853 C 0.99908 0.68334 0.34542 0.0
H1854 H 0.93975 0.66379 0.36894 0.0
C1855 C 0.02947 0.65982 0.34751 0.0
C1856 C 1.0282 0.63876 0.35735 0.0
H1857 H 1.00202 0.70046 0.33787 0.0
H1858 H 0.05506 0.65952 0.34155 0.0
C1859 C 0.99482 0.64025 0.36489 0.0
C1860 C 0.66348 0.6548 0.84748 0.0
C1861 C 0.6436 0.6347 0.85737 0.0
H1862 H 0.73204 0.69565 0.83789 0.0
C1863 C 0.67857 0.63782 0.86505 0.0
H1864 H 0.63745 0.65316 0.84141 0.0
C1865 C 0.73207 0.66137 0.86304 0.0
C1866 C 0.75287 0.68337 0.8533 0.0
H1867 H 0.66462 0.62259 0.87273 0.0
H1868 H 0.75728 0.66336 0.86932 0.0
C1869 C 0.71768 0.67917 0.84547 0.0
C1870 C 0.38901 0.08542 0.86229 0.0
C1871 C 0.36605 0.08294 0.85259 0.0
H1872 H 0.42792 0.05726 0.87206 0.0
C1873 C 0.36858 0.05017 0.84494 0.0
H1874 H 0.38812 0.10988 0.86843 0.0
C1875 C 0.39232 0.01999 0.84706 0.0
C1876 C 0.41346 0.02153 0.8569 0.0
H1877 H 0.35128 0.04697 0.8374 0.0
H1878 H 0.39254 0.99423 0.84113 0.0
C1879 C 0.41193 0.05502 0.86441 0.0
C1880 C 0.96285 0.31504 0.86337 0.0
C1881 C 0.96364 0.29459 0.85357 0.0
H1882 H 0.99209 0.38241 0.87313 0.0
C1883 C 0.994 0.33 0.84571 0.0
H1884 H 0.94009 0.28953 0.86965 0.0
C1885 C 1.02387 0.38407 0.84775 0.0
C1886 C 1.02426 0.40371 0.85769 0.0
H1887 H 0.99581 0.31589 0.83808 0.0
H1888 H 0.04796 0.41018 0.84166 0.0
C1889 C 0.99286 0.36858 0.8654 0.0
C1890 C 0.62563 0.66786 0.67464 0.0
C1891 C 0.63595 0.63543 0.68095 0.0
H1892 H 0.64274 0.74554 0.67112 0.0
C1893 C 0.67081 0.65836 0.6893 0.0
H1894 H 0.59888 0.6516 0.66818 0.0
C1895 C 0.6961 0.71267 0.69104 0.0
C1896 C 0.68727 0.74545 0.68446 0.0
H1897 H 0.67956 0.63449 0.69433 0.0
H1898 H 0.72382 0.7291 0.69734 0.0
C1899 C 0.65092 0.72196 0.67635 0.0
C1900 C 0.37558 0.98514 0.67055 0.0
C1901 C 0.41091 1.01728 0.67818 0.0
H1902 H 0.29647 0.93148 0.66643 0.0
C1903 C 0.39138 1.01772 0.68809 0.0
H1904 H 0.38926 0.9838 0.66284 0.0
C1905 C 0.33735 0.98772 0.69019 0.0
C1906 C 0.30177 0.95623 0.68244 0.0
H1907 H 0.41757 0.04244 0.69412 0.0
H1908 H 0.32341 0.99 0.69782 0.0
C1909 C 0.32207 0.95491 0.67265 0.0
C1910 C 0.02971 0.38321 0.68852 0.0
C1911 C 0.03044 0.40397 0.67869 0.0
H1912 H 0.05742 0.34246 0.69807 0.0
C1913 C 0.06336 0.40222 0.67107 0.0
H1914 H 1.00446 0.3837 0.69454 0.0
C1915 C 0.09393 0.37936 0.67308 0.0
C1916 C 0.09215 0.35669 0.68276 0.0
H1917 H 0.06498 0.41794 0.66342 0.0
H1918 H 0.11787 0.37821 0.66686 0.0
C1919 C 0.06003 0.35951 0.69052 0.0
C1920 C 0.99196 0.71108 0.50618 0.0
C1921 C 0.97117 0.68881 0.5159 0.0
H1922 H 0.05947 0.7496 0.49648 0.0
C1923 C 1.00628 0.69217 0.52367 0.0
H1924 H 0.96674 0.7095 0.49995 0.0
C1925 C 0.06039 0.71613 0.52165 0.0
C1926 C 0.08031 0.73655 0.51179 0.0
H1927 H 0.99192 0.67547 0.53124 0.0
H1928 H 0.0863 0.71717 0.52768 0.0
C1929 C 0.04545 0.73416 0.50415 0.0
C1930 C 0.33567 0.28585 0.50623 0.0
C1931 C 0.35901 0.28856 0.51589 0.0
H1932 H 0.29579 0.31326 0.49655 0.0
C1933 C 0.35612 0.32094 0.52359 0.0
H1934 H 0.33678 0.26166 0.50005 0.0
C1935 C 0.33164 0.35053 0.52154 0.0
C1936 C 0.31012 0.34877 0.51173 0.0
H1937 H 0.37366 0.32429 0.53111 0.0
H1938 H 0.33111 0.37601 0.52751 0.0
C1939 C 0.31204 0.31566 0.50418 0.0
C1940 C 0.74749 1.0018 0.50777 0.0
C1941 C 0.70477 0.9695 0.51412 0.0
H1942 H 0.80766 0.07961 0.50411 0.0
C1943 C 0.69228 0.99256 0.52234 0.0
H1944 H 0.7583 0.98532 0.50139 0.0
C1945 C 0.72091 0.04685 0.52398 0.0
C1946 C 0.76254 0.07951 0.51738 0.0
H1947 H 0.6597 0.96872 0.52741 0.0
H1948 H 0.70932 0.06332 0.53022 0.0
C1949 C 0.77582 0.05601 0.50934 0.0
C1950 C 0.05907 0.71477 0.68093 0.0
C1951 C 0.08076 0.73476 0.69073 0.0
H1952 H 1.01706 0.64626 0.67138 0.0
C1953 C 0.07921 0.69991 0.69826 0.0
H1954 H 0.0594 0.74065 0.67498 0.0
C1955 C 0.05573 0.64639 0.69621 0.0
C1956 C 0.03221 0.62554 0.68657 0.0
H1957 H 0.09562 0.71394 0.70588 0.0
H1958 H 0.05488 0.62121 0.70237 0.0
C1959 C 0.03475 0.66064 0.67889 0.0
C1960 C 0.33211 0.35215 0.68064 0.0
C1961 C 0.31216 0.35448 0.69039 0.0
H1962 H 0.40052 0.37867 0.67108 0.0
C1963 C 0.34698 0.38899 0.69783 0.0
H1964 H 0.30631 0.32562 0.67477 0.0
C1965 C 0.40043 0.4197 0.69571 0.0
C1966 C 0.42119 0.41638 0.68611 0.0
H1967 H 0.33296 0.39181 0.70542 0.0
H1968 H 0.42571 0.44496 0.70179 0.0
C1969 C 0.38614 0.38249 0.67854 0.0
C1970 C 0.6585 0.96812 0.6977 0.0
C1971 C 0.69165 0.96627 0.69015 0.0
H1972 H 0.60428 0.99259 0.70183 0.0
C1973 C 0.69321 0.98763 0.68033 0.0
H1974 H 0.65625 0.95201 0.70533 0.0
C1975 C 0.66343 1.01194 0.67829 0.0
C1976 C 0.63102 1.01476 0.68599 0.0
H1977 H 0.71879 0.98728 0.67438 0.0
H1978 H 0.66668 0.02944 0.67077 0.0
C1979 C 0.62847 0.99152 0.69565 0.0
C1980 C 0.3472 0.97429 0.19892 0.0
C1981 C 0.31219 0.97013 0.19114 0.0
H1982 H 0.42618 1.00055 0.20324 0.0
C1983 C 0.33207 0.98915 0.1812 0.0
H1984 H 0.33321 0.95998 0.20665 0.0
C1985 C 0.38617 1.01324 0.17921 0.0
C1986 C 0.42141 1.0182 0.18709 0.0
H1987 H 0.30604 0.98663 0.17505 0.0
H1988 H 0.4004 0.02862 0.17155 0.0
C1989 C 0.40079 0.99759 0.19692 0.0
C1990 C 0.06174 0.42046 0.19572 0.0
C1991 C 0.03709 0.41641 0.18616 0.0
H1992 H 0.10221 0.39374 0.20541 0.0
C1993 C 0.03845 0.38259 0.17861 0.0
H1994 H 0.06173 0.44576 0.20178 0.0
C1995 C 0.06276 0.35289 0.1807 0.0
C1996 C 0.08541 0.35583 0.19044 0.0
H1997 H 1.01986 0.37824 0.17117 0.0
H1998 H 0.06216 0.32632 0.17486 0.0
C1999 C 0.08505 0.39042 0.19784 0.0
C2000 C 0.63341 0.64948 0.19648 0.0
C2001 C 0.63581 0.62866 0.18681 0.0
H2002 H 0.66128 0.71714 0.20612 0.0
C2003 C 0.66783 0.6637 0.17907 0.0
H2004 H 0.60947 0.62427 0.20269 0.0
C2005 C 0.69747 0.71781 0.18107 0.0
C2006 C 0.69615 0.7378 0.19089 0.0
H2007 H 0.67086 0.64929 0.17154 0.0
H2008 H 0.72259 0.74373 0.17506 0.0
C2009 C 0.66332 0.70303 0.19849 0.0
C2010 C 0.29001 1.00094 1.00854 0.0
C2011 C 0.29971 0.96792 1.0148 0.0
H2012 H 0.30744 0.07899 1.0053 0.0
C2013 C 0.33283 0.9897 0.02342 0.0
H2014 H 0.26451 0.98546 1.00187 0.0
C2015 C 0.35746 0.04366 0.02545 0.0
C2016 C 0.34969 0.07716 0.01888 0.0
H2017 H 0.34094 0.96528 0.02842 0.0
H2018 H 0.38417 0.05933 0.03192 0.0
C2019 C 0.31469 0.05474 1.01053 0.0
C2020 C 0.04933 0.30108 1.00765 0.0
C2021 C 0.08205 0.34297 1.01415 0.0
H2022 H 0.97138 0.24093 1.00409 0.0
C2023 C 0.05981 0.3537 0.02276 0.0
H2024 H 0.06522 0.29164 1.00098 0.0
C2025 C 1.00574 0.32435 0.02461 0.0
C2026 C 0.97258 0.28373 1.01785 0.0
H2027 H 0.08401 0.38567 0.02794 0.0
H2028 H 0.98981 0.33472 0.03114 0.0
C2029 C 0.99537 0.27197 1.00945 0.0
C2030 C 0.77602 0.7269 1.00939 0.0
C2031 C 0.76269 0.69006 1.0174 0.0
H2032 H 0.75839 0.78008 1.0015 0.0
C2033 C 0.72105 0.68093 0.024 0.0
H2034 H 0.80784 0.73517 1.00415 0.0
C2035 C 0.69253 0.70659 0.02243 0.0
C2036 C 0.70501 0.74222 1.01425 0.0
H2037 H 0.70948 0.65289 0.03024 0.0
H2038 H 0.66001 0.69776 0.02752 0.0
C2039 C 0.74766 0.75275 1.00786 0.0
C2040 C 0.70963 0.06701 0.83748 0.0
C2041 C 0.74418 0.06971 0.84521 0.0
H2042 H 0.63103 0.04215 0.83314 0.0
C2043 C 0.72395 0.04968 0.85508 0.0
H2044 H 0.72392 0.08218 0.82981 0.0
C2045 C 0.66983 0.02586 0.85702 0.0
C2046 C 0.63502 0.02221 0.84917 0.0
H2047 H 0.74968 0.05109 0.86119 0.0
H2048 H 0.65524 1.00951 0.86461 0.0
C2049 C 0.65607 0.04401 0.83943 0.0
C2050 C 0.98985 0.67886 0.85625 0.0
C2051 C 0.98689 0.69523 0.84618 0.0
H2052 H 1.01517 0.6361 0.86584 0.0
C2053 C 1.00545 0.67825 0.8379 0.0
H2054 H 0.97631 0.69173 0.86278 0.0
C2055 C 1.02629 0.64565 0.83959 0.0
C2056 C 0.03057 0.63003 0.84965 0.0
H2057 H 1.00377 0.69011 0.83005 0.0
H2058 H 0.0405 0.6339 0.83298 0.0
C2059 C 1.01224 0.64718 0.85799 0.0
C2060 C 0.36169 0.32264 0.85463 0.0
C2061 C 0.36337 0.30358 0.84473 0.0
H2062 H 0.38801 0.39024 0.86445 0.0
C2063 C 0.39636 0.33924 0.83725 0.0
H2064 H 0.33631 0.29613 0.86054 0.0
C2065 C 0.42623 0.3926 0.83949 0.0
C2066 C 0.42366 0.41251 0.84926 0.0
H2067 H 0.3987 0.32593 0.82956 0.0
H2068 H 0.45036 0.41842 0.83337 0.0
C2069 C 0.39127 0.37661 0.85686 0.0
C2070 C 0.70746 0.9944 1.01281 0.0
C2071 C 0.70365 0.95879 0.02048 0.0
H2072 H 0.73256 0.07456 1.00902 0.0
C2073 C 0.72539 0.97874 0.03028 0.0
H2074 H 0.69112 0.98058 1.00518 0.0
C2075 C 0.74829 0.03209 0.03248 0.0
C2076 C 0.75098 0.06743 0.02493 0.0
H2077 H 0.72333 0.95292 0.03643 0.0
H2078 H 0.76327 0.04559 0.0402 0.0
C2079 C 0.73123 0.04826 1.01499 0.0
C2080 C 1.00932 0.7348 0.02848 0.0
C2081 C 0.97713 0.69235 0.02205 0.0
H2082 H 0.08691 0.79573 0.03209 0.0
C2083 C 1.00006 0.68127 1.0136 0.0
H2084 H 0.99292 0.74454 0.03503 0.0
C2085 C 0.05424 0.71084 1.01187 0.0
C2086 C 0.08683 0.75215 0.01856 0.0
H2087 H 0.97631 0.6489 1.00848 0.0
H2088 H 0.0707 0.70025 1.00546 0.0
C2089 C 0.06337 0.76422 0.02678 0.0
C2090 C 0.29436 0.32289 0.02923 0.0
C2091 C 0.29802 0.34706 0.01964 0.0
H2092 H 0.32138 0.28259 0.03891 0.0
C2093 C 0.33141 0.34526 1.01205 0.0
H2094 H 0.26944 0.32341 0.03532 0.0
C2095 C 0.36098 0.32086 1.01412 0.0
C2096 C 0.35836 0.29848 0.02387 0.0
H2097 H 0.33545 0.36353 1.00459 0.0
H2098 H 0.38725 0.32123 1.00825 0.0
C2099 C 0.32434 0.29944 0.03133 0.0
C2100 C 0.05239 0.34456 0.51201 0.0
C2101 C 0.08747 0.34737 0.51972 0.0
H2102 H 0.97261 0.32099 0.50813 0.0
C2103 C 0.06681 0.32524 0.52946 0.0
H2104 H 0.06667 0.36122 0.50443 0.0
C2105 C 1.01347 0.30295 0.53157 0.0
C2106 C 0.9787 0.30125 0.52399 0.0
H2107 H 0.09203 0.3264 0.53565 0.0
H2108 H 0.99953 0.28766 0.53925 0.0
C2109 C 0.99846 0.32143 0.51411 0.0
C2110 C 0.70717 0.71864 0.51223 0.0
C2111 C 0.70438 0.75089 0.51996 0.0
H2112 H 0.73085 0.66271 0.50829 0.0
C2113 C 0.72685 0.75279 0.52967 0.0
H2114 H 0.69022 0.71598 0.50467 0.0
C2115 C 0.74947 0.72201 0.53174 0.0
C2116 C 0.75109 0.68888 0.52413 0.0
H2117 H 0.72555 0.77689 0.53585 0.0
H2118 H 0.76504 0.72356 0.5394 0.0
C2119 C 0.73054 0.68816 0.51428 0.0
C2120 C 0.29844 0.97982 0.52915 0.0
C2121 C 0.30063 0.95888 0.51948 0.0
H2122 H 0.32651 0.04746 0.5388 0.0
C2123 C 0.33275 0.994 0.51174 0.0
H2124 H 0.27449 0.95465 0.53536 0.0
C2125 C 0.36258 0.0482 0.51374 0.0
C2126 C 0.36138 0.06828 0.52356 0.0
H2127 H 0.33569 0.97957 0.50421 0.0
H2128 H 0.3878 0.07408 0.50774 0.0
C2129 C 0.32851 0.03339 0.53116 0.0
C2130 C 1.00369 0.39285 0.33928 0.0
C2131 C 1.02418 0.41345 0.34912 0.0
H2132 H 0.96682 0.32551 0.32947 0.0
C2133 C 1.01913 0.37812 0.35699 0.0
H2134 H 1.00648 0.41823 0.33298 0.0
C2135 C 0.9956 0.32406 0.35493 0.0
C2136 C 0.97702 0.30429 0.34496 0.0
H2137 H 0.0345 0.3923 0.36465 0.0
H2138 H 0.99353 0.29808 0.36104 0.0
C2139 C 0.98085 0.33935 0.33723 0.0
C2140 C 0.72609 0.68509 0.35485 0.0
C2141 C 0.74576 0.68398 0.345 0.0
H2142 H 0.65811 0.65723 0.36454 0.0
C2143 C 0.71095 0.65004 0.33749 0.0
H2144 H 0.75191 0.71119 0.36077 0.0
C2145 C 0.65758 0.6189 0.33964 0.0
C2146 C 0.63715 0.62122 0.34935 0.0
H2147 H 0.72487 0.64819 0.32983 0.0
H2148 H 0.6321 0.59421 0.33353 0.0
C2149 C 0.67229 0.65421 0.35699 0.0
C2150 C 0.3969 0.07162 0.33794 0.0
C2151 C 0.36249 0.07208 0.34537 0.0
H2152 H 0.45323 0.04938 0.33409 0.0
C2153 C 0.3608 0.05095 0.35521 0.0
H2154 H 0.39919 0.08763 0.3303 0.0
C2155 C 0.39161 0.02804 0.3574 0.0
C2156 C 0.4253 0.02659 0.34984 0.0
H2157 H 0.33438 0.05045 0.36107 0.0
H2158 H 0.38825 1.0106 0.36493 0.0
C2159 C 0.4281 0.04968 0.34016 0.0
C2160 C 0.20837 0.40084 0.0972 0.0
C2161 C 0.18441 0.35775 0.09046 0.0
H2162 H 0.22282 0.42779 0.1129 0.0
C2163 C 0.15833 0.30724 0.09473 0.0
H2164 H 0.22838 0.44032 0.0942 0.0
C2165 C 0.15474 0.30008 0.10547 0.0
C2166 C 0.17702 0.34326 0.11222 0.0
H2167 H 0.13992 0.27315 0.08977 0.0
H2168 H 0.1328 0.2607 0.10848 0.0
C2169 C 0.20466 0.39369 0.10794 0.0
C2170 C 0.74018 0.8685 0.09479 0.0
C2171 C 0.68952 0.84379 0.09056 0.0
H2172 H 0.78724 0.88954 0.10848 0.0
C2173 C 0.64667 0.82443 0.09737 0.0
H2174 H 0.77413 0.88441 0.0898 0.0
C2175 C 0.6542 0.82783 0.10811 0.0
C2176 C 0.70478 0.85075 0.11234 0.0
H2177 H 0.60706 0.80472 0.09443 0.0
H2178 H 0.62023 0.81164 0.1131 0.0
C2179 C 0.74772 0.87198 0.10553 0.0
C2180 C 0.1934 0.90366 0.10522 0.0
C2181 C 0.1945 0.86768 0.11217 0.0
H2182 H 0.20003 0.9289 0.08951 0.0
C2183 C 0.19887 0.82583 0.10817 0.0
H2184 H 0.19081 0.93677 0.10804 0.0
C2185 C 0.20382 0.82107 0.09751 0.0
C2186 C 0.20487 0.85827 0.09058 0.0
H2187 H 0.19907 0.79703 0.11331 0.0
H2188 H 0.20756 0.78859 0.09471 0.0
C2189 C 0.19862 0.89907 0.09456 0.0
C2190 C 0.4133 0.1943 0.43854 0.0
C2191 C 0.37023 0.17113 0.44529 0.0
H2192 H 0.44005 0.20842 0.42283 0.0
C2193 C 0.31964 0.14635 0.44103 0.0
H2194 H 0.45282 0.21334 0.44153 0.0
C2195 C 0.31232 0.14313 0.4303 0.0
C2196 C 0.35542 0.1645 0.42354 0.0
H2197 H 0.28558 0.12863 0.446 0.0
H2198 H 0.27282 0.1221 0.4273 0.0
C2199 C 0.40599 0.19097 0.4278 0.0
C2200 C 0.85573 0.17586 0.42919 0.0
C2201 C 0.89701 0.2164 0.42362 0.0
H2202 H 0.82089 0.14709 0.44409 0.0
C2203 C 0.93566 0.25961 0.42909 0.0
H2204 H 0.82526 0.14214 0.42518 0.0
C2205 C 0.93323 0.26237 0.43984 0.0
C2206 C 0.89201 0.22205 0.44544 0.0
H2207 H 0.96838 0.29119 0.42508 0.0
H2208 H 0.9635 0.29654 0.44377 0.0
C2209 C 0.85305 0.17884 0.43999 0.0
C2210 C 0.78681 0.68869 0.42914 0.0
C2211 C 0.82902 0.69176 0.42354 0.0
H2212 H 0.75084 0.68025 0.4439 0.0
C2213 C 0.86879 0.68905 0.42898 0.0
H2214 H 0.75586 0.69135 0.42522 0.0
C2215 C 0.86603 0.68291 0.43977 0.0
C2216 C 0.82381 0.6801 0.44535 0.0
H2217 H 0.90172 0.6911 0.42488 0.0
H2218 H 0.8972 0.68098 0.44376 0.0
C2219 C 0.78427 0.683 0.43988 0.0
C2220 C 0.89764 0.74136 0.93113 0.0
C2221 C 0.88989 0.70208 0.92401 0.0
H2222 H 0.89873 0.76241 0.94706 0.0
C2223 C 0.8752 0.65203 0.92781 0.0
H2224 H 0.90818 0.78013 0.92849 0.0
C2225 C 0.86959 0.64185 0.93845 0.0
C2226 C 0.87863 0.68146 0.94559 0.0
H2227 H 0.86978 0.62102 0.9226 0.0
H2228 H 0.85998 0.60333 0.94109 0.0
C2229 C 0.89217 0.7312 0.94179 0.0
C2230 C 0.37239 0.26355 0.92849 0.0
C2231 C 0.35204 0.21597 0.92309 0.0
H2232 H 0.39703 0.30308 0.94304 0.0
C2233 C 0.33918 0.17034 0.92868 0.0
H2234 H 0.38194 0.29934 0.92447 0.0
C2235 C 0.34698 0.17235 0.93938 0.0
C2236 C 0.36793 0.22006 0.94476 0.0
H2237 H 0.32375 0.13309 0.92477 0.0
H2238 H 0.33647 0.13642 0.94344 0.0
C2239 C 0.3803 0.26558 0.93918 0.0
C2240 C 0.85998 0.13152 0.93127 0.0
C2241 C 0.85368 0.16482 0.92441 0.0
H2242 H 0.85721 0.10698 0.94695 0.0
C2243 C 0.84304 0.20252 0.92854 0.0
H2244 H 0.8674 0.10149 0.92837 0.0
C2245 C 0.83734 0.2058 0.93923 0.0
C2246 C 0.84193 0.17133 0.94608 0.0
H2247 H 0.83872 0.22932 0.92349 0.0
H2248 H 0.82891 0.23515 0.94212 0.0
C2249 C 0.85414 0.13469 0.94196 0.0
C2250 C 0.6992 0.83233 0.59574 0.0
C2251 C 0.70041 0.87302 0.58989 0.0
H2252 H 0.70527 0.80527 0.61082 0.0
C2253 C 0.70913 0.91858 0.59505 0.0
H2254 H 0.6927 0.79679 0.59199 0.0
C2255 C 0.71617 0.92334 0.60575 0.0
C2256 C 0.71475 0.88272 0.61163 0.0
H2257 H 0.70952 0.95037 0.59082 0.0
H2258 H 0.72305 0.95917 0.60942 0.0
C2259 C 0.70668 0.83729 0.6065 0.0
C2260 C 0.17351 0.86549 0.59451 0.0
C2261 C 0.18007 0.82483 0.59056 0.0
H2262 H 0.16303 0.9018 0.60793 0.0
C2263 C 0.18264 0.78981 0.59755 0.0
H2264 H 0.17214 0.89358 0.58935 0.0
C2265 C 0.17715 0.79432 0.6082 0.0
C2266 C 0.1691 0.83409 0.61214 0.0
H2267 H 0.18689 0.75759 0.59478 0.0
H2268 H 0.17723 0.76535 0.6133 0.0
C2269 C 0.16823 0.87014 0.60516 0.0
C2270 C 0.1906 0.35565 0.59571 0.0
C2271 C 0.23327 0.35887 0.59024 0.0
H2272 H 0.15405 0.34704 0.61052 0.0
C2273 C 0.27277 0.35638 0.59581 0.0
H2274 H 0.15946 0.35727 0.59163 0.0
C2275 C 0.26973 0.35063 0.60655 0.0
C2276 C 0.22705 0.34711 0.61204 0.0
H2277 H 0.30653 0.35945 0.59187 0.0
H2278 H 0.30065 0.34826 0.61054 0.0
C2279 C 0.18733 0.34946 0.6065 0.0
C2280 C 0.07082 0.51995 0.7616 0.0
C2281 C 1.02036 0.49406 0.75728 0.0
H2282 H 0.11725 0.54235 0.77538 0.0
C2283 C 0.9771 0.47362 0.76399 0.0
H2284 H 0.10503 0.5367 0.75667 0.0
C2285 C 0.98411 0.47728 0.77474 0.0
C2286 C 0.03456 0.50158 0.77906 0.0
H2287 H 0.93767 0.45305 0.76096 0.0
H2288 H 0.9499 0.46034 0.77967 0.0
C2289 C 0.07783 0.52372 0.77235 0.0
C2290 C 0.5383 0.49366 0.76408 0.0
C2291 C 0.5434 0.53239 0.75709 0.0
H2292 H 0.53124 0.4695 0.77992 0.0
C2293 C 0.54244 0.5763 0.761 0.0
H2294 H 0.53797 0.45889 0.76134 0.0
C2295 C 0.5382 0.58214 0.77164 0.0
C2296 C 0.53506 0.54435 0.77864 0.0
H2297 H 0.54715 0.60736 0.7559 0.0
H2298 H 0.53955 0.61737 0.7744 0.0
C2299 C 0.53437 0.49966 0.77473 0.0
C2300 C 0.45348 0.02011 0.76222 0.0
C2301 C 0.496 0.02346 0.7567 0.0
H2302 H 0.41688 1.01131 0.77692 0.0
C2303 C 0.5357 0.02092 0.76221 0.0
H2304 H 0.42257 0.02263 0.75825 0.0
C2305 C 0.53253 1.01464 0.77299 0.0
C2306 C 0.48999 1.01154 0.77849 0.0
H2307 H 0.56887 0.02321 0.75816 0.0
H2308 H 0.56363 1.01282 0.77704 0.0
C2309 C 0.45054 1.01428 0.77296 0.0
C2310 C 0.52201 0.02545 0.26252 0.0
C2311 C 0.56595 0.03016 0.25731 0.0
H2312 H 0.48336 1.01562 0.27712 0.0
C2313 C 0.6057 0.02944 0.26313 0.0
H2314 H 0.49066 0.0257 0.25824 0.0
C2315 C 0.60159 0.02377 0.27386 0.0
C2316 C 0.55757 1.01859 0.2791 0.0
H2317 H 0.6404 0.03367 0.25939 0.0
H2318 H 0.63269 0.0226 0.27805 0.0
C2319 C 0.51769 1.01935 0.27331 0.0
C2320 C 1.02609 0.58265 0.27373 0.0
C2321 C 1.02834 0.54316 0.27933 0.0
H2322 H 1.01734 0.60991 0.25899 0.0
C2323 C 1.02401 0.49982 0.27394 0.0
H2324 H 0.03007 0.61691 0.27762 0.0
C2325 C 1.01688 0.49588 0.26317 0.0
C2326 C 1.01482 0.53563 0.2576 0.0
H2327 H 1.02553 0.46876 0.27806 0.0
H2328 H 1.01354 0.46208 0.2592 0.0
C2329 C 1.01948 0.57896 0.26302 0.0
C2330 C 0.50492 0.53205 0.26196 0.0
C2331 C 0.52553 0.50224 0.25778 0.0
H2332 H 0.48426 0.55868 0.2756 0.0
C2333 C 0.54513 0.47916 0.26461 0.0
H2334 H 0.49004 0.55088 0.25693 0.0
C2335 C 0.54227 0.48404 0.27534 0.0
C2336 C 0.5199 0.51227 0.27951 0.0
H2337 H 0.56091 0.45559 0.26168 0.0
H2338 H 0.55679 0.4649 0.28037 0.0
C2339 C 0.50219 0.53705 0.27268 0.0
C2340 C 0.04142 0.20861 0.27488 0.0
C2341 C 1.00483 0.157 0.27775 0.0
H2342 H 0.09259 0.25987 0.26312 0.0
C2343 C 0.99083 0.11714 0.27035 0.0
H2344 H 0.05383 0.24031 0.28037 0.0
C2345 C 1.01328 0.12838 0.26046 0.0
C2346 C 0.05031 0.17986 0.25763 0.0
H2347 H 0.96204 0.07708 0.27214 0.0
H2348 H 1.00118 0.09663 0.25498 0.0
C2349 C 0.06376 0.21988 0.26496 0.0
C2350 C 0.9055 0.91527 0.27519 0.0
C2351 C 0.89019 0.86384 0.27821 0.0
H2352 H 0.90653 0.9661 0.2633 0.0
C2353 C 0.8631 0.82342 0.27097 0.0
H2354 H 0.92555 0.9474 0.28058 0.0
C2355 C 0.85228 0.83421 0.26099 0.0
C2356 C 0.86811 0.88575 0.25793 0.0
H2357 H 0.85124 0.78343 0.27293 0.0
H2358 H 0.83246 0.80214 0.25559 0.0
C2359 C 0.8946 0.92604 0.26523 0.0
C2360 C 0.20642 1.00909 0.27434 0.0
C2361 C 0.1877 0.04218 0.2776 0.0
H2362 H 0.20996 0.96141 0.2622 0.0
C2363 C 0.15878 0.05367 0.27049 0.0
H2364 H 0.22825 0.99873 0.27959 0.0
C2365 C 0.14819 0.03214 0.26051 0.0
C2366 C 0.16625 0.99849 0.2573 0.0
H2367 H 0.1446 0.07982 0.27259 0.0
H2368 H 0.12612 0.04232 0.25527 0.0
C2369 C 0.1959 0.98761 0.26433 0.0
C2370 C 0.99393 0.81243 0.77076 0.0
C2371 C 1.00825 0.8513 0.77839 0.0
H2372 H 1.00346 0.79403 0.75516 0.0
C2373 C 0.04644 0.90286 0.77587 0.0
H2374 H 0.96418 0.77244 0.77234 0.0
C2375 C 0.06921 0.91526 0.766 0.0
C2376 C 0.0544 0.87656 0.75831 0.0
H2377 H 0.05922 0.93374 0.78157 0.0
H2378 H 0.09889 0.95531 0.76445 0.0
C2379 C 1.01658 0.82487 0.76087 0.0
C2380 C 0.15487 0.12724 0.75995 0.0
C2381 C 0.16976 0.17875 0.7571 0.0
H2382 H 0.15467 0.07597 0.77163 0.0
C2383 C 0.19706 0.21889 0.76437 0.0
H2384 H 0.13467 0.09541 0.7545 0.0
C2385 C 0.20834 0.20769 0.77427 0.0
C2386 C 0.19281 0.15604 0.77717 0.0
H2387 H 0.20863 0.25893 0.7625 0.0
H2388 H 0.22817 0.23948 0.77973 0.0
C2389 C 0.16632 0.11607 0.76981 0.0
C2390 C 0.92987 0.06191 0.77082 0.0
C2391 C 0.88977 0.04746 0.77818 0.0
H2392 H 0.95093 0.053 0.75541 0.0
C2393 C 0.83816 1.0116 0.77514 0.0
H2394 H 0.96994 0.09023 0.77274 0.0
C2395 C 0.82717 0.99025 0.76512 0.0
C2396 C 0.86748 1.00404 0.75785 0.0
H2397 H 0.80623 0.99897 0.78059 0.0
H2398 H 0.78717 0.96186 0.76317 0.0
C2399 C 0.91892 0.04053 0.76084 0.0
C2400 C 0.71509 0.55354 0.6078 0.0
C2401 C 0.68488 0.5024 0.61167 0.0
H2402 H 0.7595 0.60231 0.5951 0.0
C2403 C 0.67524 0.46044 0.60511 0.0
H2404 H 0.72386 0.58688 0.61263 0.0
C2405 C 0.69566 0.46929 0.59506 0.0
C2406 C 0.72639 0.52039 0.59122 0.0
H2407 H 0.65122 0.42046 0.60769 0.0
H2408 H 0.68678 0.43585 0.59024 0.0
C2409 C 0.73554 0.5624 0.59772 0.0
C2410 C 0.57545 0.24509 0.60812 0.0
C2411 C 0.55642 0.19329 0.6114 0.0
H2412 H 0.5794 0.29632 0.59603 0.0
C2413 C 0.5255 0.1526 0.60446 0.0
H2414 H 0.59853 0.27749 0.61328 0.0
C2415 C 0.51464 0.16344 0.59449 0.0
C2416 C 0.53425 0.21531 0.59116 0.0
H2417 H 0.51066 0.11226 0.60665 0.0
H2418 H 0.4918 0.13108 0.58931 0.0
C2419 C 0.56448 0.25592 0.59817 0.0
C2420 C 0.80243 0.3386 0.60861 0.0
C2421 C 0.85417 0.37273 0.6118 0.0
H2422 H 0.75124 0.29056 0.59656 0.0
C2423 C 0.8948 0.38411 0.60475 0.0
H2424 H 0.77012 0.32804 0.61387 0.0
C2425 C 0.88392 0.36266 0.59474 0.0
C2426 C 0.83209 0.32909 0.59151 0.0
H2427 H 0.93507 0.41067 0.60687 0.0
H2428 H 0.91619 0.37342 0.58947 0.0
C2429 C 0.79157 0.31709 0.59864 0.0
C2430 C 0.68445 0.16463 0.09489 0.0
C2431 C 0.7232 0.21574 0.09219 0.0
H2432 H 0.63126 0.11401 0.10648 0.0
C2433 C 0.73884 0.25528 0.09972 0.0
H2434 H 0.67073 0.13322 0.08929 0.0
C2435 C 0.71594 0.24425 0.10957 0.0
C2436 C 0.67682 0.1933 0.11223 0.0
H2437 H 0.76927 0.29489 0.09806 0.0
H2438 H 0.72933 0.27572 0.11516 0.0
C2439 C 0.66168 0.15356 0.10477 0.0
C2440 C 0.88163 0.53863 0.10795 0.0
C2441 C 0.87168 0.48835 0.11064 0.0
H2442 H 0.8788 0.58823 0.0962 0.0
C2443 C 0.85271 0.44953 0.10291 0.0
H2444 H 0.89555 0.5694 0.1137 0.0
C2445 C 0.84302 0.46034 0.09286 0.0
C2446 C 0.85209 0.51035 0.09021 0.0
H2447 H 0.84552 0.41062 0.10459 0.0
H2448 H 0.8286 0.42941 0.08714 0.0
C2449 C 0.872 0.54947 0.09788 0.0
C2450 C 0.53035 0.39044 0.10493 0.0
C2451 C 0.55814 0.37727 0.11199 0.0
H2452 H 0.49891 0.38127 0.08962 0.0
C2453 C 0.57366 0.34158 0.1088 0.0
H2454 H 0.51825 0.4182 0.10706 0.0
C2455 C 0.5625 0.32033 0.0988 0.0
C2456 C 0.53554 0.33413 0.09166 0.0
H2457 H 0.59417 0.32961 0.11406 0.0
H2458 H 0.57469 0.29258 0.09672 0.0
C2459 C 0.51925 0.3692 0.0949 0.0
C2460 C 0.40278 0.89768 0.93132 0.0
C2461 C 0.39091 0.85583 0.92456 0.0
H2462 H 0.39337 0.92163 0.94646 0.0
C2463 C 0.35755 0.80466 0.92811 0.0
H2464 H 0.42877 0.93757 0.92891 0.0
C2465 C 0.33722 0.79551 0.93816 0.0
C2466 C 0.34966 0.83725 0.945 0.0
H2467 H 0.34662 0.77146 0.92307 0.0
H2468 H 0.31116 0.75555 0.94053 0.0
C2469 C 0.38246 0.88851 0.94141 0.0
C2470 C 0.18834 0.48752 0.93815 0.0
C2471 C 0.20892 0.52647 0.94585 0.0
H2472 H 0.16449 0.46818 0.92233 0.0
C2473 C 0.21897 0.57687 0.94325 0.0
H2474 H 0.18075 0.44845 0.9398 0.0
C2475 C 0.20956 0.5882 0.93322 0.0
C2476 C 0.18989 0.54953 0.92545 0.0
H2477 H 0.23392 0.60771 0.94899 0.0
H2478 H 0.21747 0.62739 0.93158 0.0
C2479 C 0.17899 0.49888 0.9281 0.0
C2480 C 0.5316 0.64374 0.93195 0.0
C2481 C 0.50198 0.65625 0.92523 0.0
H2482 H 0.56502 0.65232 0.94707 0.0
C2483 C 0.48475 0.68987 0.92893 0.0
H2484 H 0.54506 0.61752 0.92946 0.0
C2485 C 0.49616 0.70979 0.93903 0.0
C2486 C 0.52519 0.69681 0.94581 0.0
H2487 H 0.46281 0.7014 0.92396 0.0
H2488 H 0.48269 0.73606 0.94148 0.0
C2489 C 0.54303 0.66371 0.94208 0.0
C2490 C 0.36054 0.56538 0.44023 0.0
C2491 C 0.33089 0.51419 0.44409 0.0
H2492 H 0.40441 0.61467 0.42761 0.0
C2493 C 0.32289 0.47248 0.43762 0.0
H2494 H 0.36849 0.59861 0.44503 0.0
C2495 C 0.3435 0.48172 0.42755 0.0
C2496 C 0.37274 0.53295 0.42367 0.0
H2497 H 0.29975 0.4325 0.44025 0.0
H2498 H 0.33566 0.44857 0.42274 0.0
C2499 C 0.38115 0.57462 0.43019 0.0
C2500 C 0.50394 0.80782 0.42774 0.0
C2501 C 0.51692 0.85845 0.42459 0.0
H2502 H 0.50331 0.75865 0.43993 0.0
C2503 C 0.54065 0.89929 0.43187 0.0
H2504 H 0.4866 0.7755 0.42233 0.0
C2505 C 0.55028 0.88957 0.44204 0.0
C2506 C 0.53639 0.83872 0.44521 0.0
H2507 H 0.55062 0.93867 0.42981 0.0
H2508 H 0.56752 0.92177 0.44747 0.0
C2509 C 0.5135 0.79811 0.43788 0.0
C2510 C 0.19388 0.71773 0.43775 0.0
C2511 C 0.22262 0.70562 0.44478 0.0
H2512 H 0.16176 0.70762 0.42249 0.0
C2513 C 0.23917 0.67075 0.44156 0.0
H2514 H 0.18098 0.74485 0.43989 0.0
C2515 C 0.22801 0.64924 0.43159 0.0
C2516 C 0.20005 0.66198 0.42448 0.0
H2517 H 0.26047 0.65961 0.4468 0.0
H2518 H 0.24099 0.62212 0.42949 0.0
C2519 C 0.18282 0.69629 0.42774 0.0
loop_
_geom_bond_atom_site_label_1
_geom_bond_atom_site_label_2
_geom_bond_distance
_geom_bond_site_symmetry_2
_ccdc_geom_bond_type
C0 Eu1 2.835 . S
C0 C2 1.500 . S
C0 O20 1.257 . S
C0 O21 1.260 . S
Eu1 C0 2.835 . S
Eu1 O20 2.473 . S
Eu1 O21 2.480 . S
Eu1 O22 2.430 . S
Eu1 O23 2.670 . S
Eu1 O24 2.394 . S
Eu1 O29 2.355 . S
Eu1 O31 2.374 . S
C2 C0 1.500 . S
C2 C3 1.377 . S
C2 C7 1.377 . S
C3 C2 1.377 . S
C3 C4 1.395 . S
C3 H32 0.931 . S
C4 C3 1.395 . S
C4 C5 1.383 . S
C4 H33 0.931 . S
C5 C4 1.383 . S
C5 C6 1.394 . S
C6 C5 1.394 . S
C6 C7 1.378 . S
C6 H34 0.931 . S
C7 C2 1.377 . S
C7 C6 1.378 . S
C7 H35 0.931 . S
C8 O22 1.259 . S
C8 O23 1.270 . S
C9 O24 1.251 . S
C9 O25 1.251 . S
C10 Eu11 2.835 . S
C10 C12 1.500 . S
C10 O26 1.257 . S
C10 O27 1.260 . S
Eu11 C10 2.835 . S
Eu11 O23 2.355 . S
Eu11 O25 2.374 . S
Eu11 O26 2.473 . S
Eu11 O27 2.480 . S
Eu11 O28 2.430 . S
Eu11 O29 2.670 . S
Eu11 O30 2.394 . S
C12 C10 1.500 . S
C12 C13 1.377 . S
C12 C17 1.377 . S
C13 C12 1.377 . S
C13 C14 1.395 . S
C13 H36 0.931 . S
C14 C13 1.395 . S
C14 C15 1.383 . S
C14 H37 0.931 . S
C15 C14 1.383 . S
C15 C16 1.394 . S
C16 C15 1.394 . S
C16 C17 1.378 . S
C16 H38 0.931 . S
C17 C12 1.377 . S
C17 C16 1.378 . S
C17 H39 0.931 . S
C18 O28 1.259 . S
C18 O29 1.270 . S
C19 O30 1.251 . S
C19 O31 1.251 . S
O20 C0 1.257 . S
O20 Eu1 2.473 . S
O21 C0 1.260 . S
O21 Eu1 2.480 . S
O22 Eu1 2.430 . S
O22 C8 1.259 . S
O23 Eu1 2.670 . S
O23 C8 1.270 . S
O23 Eu11 2.355 . S
O24 Eu1 2.394 . S
O24 C9 1.251 . S
O25 C9 1.251 . S
O25 Eu11 2.374 . S
O26 C10 1.257 . S
O26 Eu11 2.473 . S
O27 C10 1.260 . S
O27 Eu11 2.480 . S
O28 Eu11 2.430 . S
O28 C18 1.259 . S
O29 Eu1 2.355 . S
O29 Eu11 2.670 . S
O29 C18 1.270 . S
O30 Eu11 2.394 . S
O30 C19 1.251 . S
O31 Eu1 2.374 . S
O31 C19 1.251 . S
H32 C3 0.931 . S
H33 C4 0.931 . S
H34 C6 0.931 . S
H35 C7 0.931 . S
H36 C13 0.931 . S
H37 C14 0.931 . S
H38 C16 0.931 . S
H39 C17 0.931 . S
C40 Eu41 2.835 . S
C40 C42 1.500 . S
C40 O60 1.257 . S
C40 O61 1.260 . S
Eu41 C40 2.835 . S
Eu41 O60 2.473 . S
Eu41 O61 2.480 . S
Eu41 O62 2.430 . S
Eu41 O63 2.670 . S
Eu41 O64 2.394 . S
Eu41 O69 2.355 . S
Eu41 O71 2.374 . S
C42 C40 1.500 . S
C42 C43 1.377 . S
C42 C47 1.377 . S
C43 C42 1.377 . S
C43 C44 1.395 . S
C43 H72 0.931 . S
C44 C43 1.395 . S
C44 C45 1.383 . S
C44 H73 0.931 . S
C45 C44 1.383 . S
C45 C46 1.394 . S
C46 C45 1.394 . S
C46 C47 1.378 . S
C46 H74 0.931 . S
C47 C42 1.377 . S
C47 C46 1.378 . S
C47 H75 0.931 . S
C48 O62 1.259 . S
C48 O63 1.270 . S
C49 O64 1.251 . S
C49 O65 1.251 . S
C50 Eu51 2.835 . S
C50 C52 1.500 . S
C50 O66 1.257 . S
C50 O67 1.260 . S
Eu51 C50 2.835 . S
Eu51 O63 2.355 . S
Eu51 O65 2.374 . S
Eu51 O66 2.473 . S
Eu51 O67 2.480 . S
Eu51 O68 2.430 . S
Eu51 O69 2.670 . S
Eu51 O70 2.394 . S
C52 C50 1.500 . S
C52 C53 1.377 . S
C52 C57 1.377 . S
C53 C52 1.377 . S
C53 C54 1.395 . S
C53 H76 0.931 . S
C54 C53 1.395 . S
C54 C55 1.383 . S
C54 H77 0.931 . S
C55 C54 1.383 . S
C55 C56 1.394 . S
C56 C55 1.394 . S
C56 C57 1.378 . S
C56 H78 0.931 . S
C57 C52 1.377 . S
C57 C56 1.378 . S
C57 H79 0.931 . S
C58 O68 1.259 . S
C58 O69 1.270 . S
C59 O70 1.251 . S
C59 O71 1.251 . S
O60 C40 1.257 . S
O60 Eu41 2.473 . S
O61 C40 1.260 . S
O61 Eu41 2.480 . S
O62 Eu41 2.430 . S
O62 C48 1.259 . S
O63 Eu41 2.670 . S
O63 C48 1.270 . S
O63 Eu51 2.355 . S
O64 Eu41 2.394 . S
O64 C49 1.251 . S
O65 C49 1.251 . S
O65 Eu51 2.374 . S
O66 C50 1.257 . S
O66 Eu51 2.473 . S
O67 C50 1.260 . S
O67 Eu51 2.480 . S
O68 Eu51 2.430 . S
O68 C58 1.259 . S
O69 Eu41 2.355 . S
O69 Eu51 2.670 . S
O69 C58 1.270 . S
O70 Eu51 2.394 . S
O70 C59 1.251 . S
O71 Eu41 2.374 . S
O71 C59 1.251 . S
H72 C43 0.931 . S
H73 C44 0.931 . S
H74 C46 0.931 . S
H75 C47 0.931 . S
H76 C53 0.931 . S
H77 C54 0.931 . S
H78 C56 0.931 . S
H79 C57 0.931 . S
C80 Eu81 2.835 . S
C80 C82 1.500 . S
C80 O100 1.257 . S
C80 O101 1.260 . S
Eu81 C80 2.835 . S
Eu81 O100 2.473 . S
Eu81 O101 2.480 . S
Eu81 O102 2.430 . S
Eu81 O103 2.670 . S
Eu81 O104 2.394 . S
Eu81 O109 2.355 . S
Eu81 O111 2.374 . S
C82 C80 1.500 . S
C82 C83 1.377 . S
C82 C87 1.377 . S
C83 C82 1.377 . S
C83 C84 1.395 . S
C83 H112 0.931 . S
C84 C83 1.395 . S
C84 C85 1.383 . S
C84 H113 0.931 . S
C85 C84 1.383 . S
C85 C86 1.394 . S
C86 C85 1.394 . S
C86 C87 1.378 . S
C86 H114 0.931 . S
C87 C82 1.377 . S
C87 C86 1.378 . S
C87 H115 0.931 . S
C88 O102 1.259 . S
C88 O103 1.270 . S
C89 O104 1.251 . S
C89 O105 1.251 . S
C90 Eu91 2.835 . S
C90 C92 1.500 . S
C90 O106 1.257 . S
C90 O107 1.260 . S
Eu91 C90 2.835 . S
Eu91 O103 2.355 . S
Eu91 O105 2.374 . S
Eu91 O106 2.473 . S
Eu91 O107 2.480 . S
Eu91 O108 2.430 . S
Eu91 O109 2.670 . S
Eu91 O110 2.394 . S
C92 C90 1.500 . S
C92 C93 1.377 . S
C92 C97 1.377 . S
C93 C92 1.377 . S
C93 C94 1.395 . S
C93 H116 0.931 . S
C94 C93 1.395 . S
C94 C95 1.383 . S
C94 H117 0.931 . S
C95 C94 1.383 . S
C95 C96 1.394 . S
C96 C95 1.394 . S
C96 C97 1.378 . S
C96 H118 0.931 . S
C97 C92 1.377 . S
C97 C96 1.378 . S
C97 H119 0.931 . S
C98 O108 1.259 . S
C98 O109 1.270 . S
C99 O110 1.251 . S
C99 O111 1.251 . S
O100 C80 1.257 . S
O100 Eu81 2.473 . S
O101 C80 1.260 . S
O101 Eu81 2.480 . S
O102 Eu81 2.430 . S
O102 C88 1.259 . S
O103 Eu81 2.670 . S
O103 C88 1.270 . S
O103 Eu91 2.355 . S
O104 Eu81 2.394 . S
O104 C89 1.251 . S
O105 C89 1.251 . S
O105 Eu91 2.374 . S
O106 C90 1.257 . S
O106 Eu91 2.473 . S
O107 C90 1.260 . S
O107 Eu91 2.480 . S
O108 Eu91 2.430 . S
O108 C98 1.259 . S
O109 Eu81 2.355 . S
O109 Eu91 2.670 . S
O109 C98 1.270 . S
O110 Eu91 2.394 . S
O110 C99 1.251 . S
O111 Eu81 2.374 . S
O111 C99 1.251 . S
H112 C83 0.931 . S
H113 C84 0.931 . S
H114 C86 0.931 . S
H115 C87 0.931 . S
H116 C93 0.931 . S
H117 C94 0.931 . S
H118 C96 0.931 . S
H119 C97 0.931 . S
C120 Eu121 2.835 . S
C120 C122 1.500 . S
C120 O140 1.257 . S
C120 O141 1.260 . S
Eu121 C120 2.835 . S
Eu121 O140 2.473 . S
Eu121 O141 2.480 . S
Eu121 O142 2.430 . S
Eu121 O143 2.670 . S
Eu121 O144 2.394 . S
Eu121 O149 2.355 . S
Eu121 O151 2.374 . S
C122 C120 1.500 . S
C122 C123 1.377 . S
C122 C127 1.377 . S
C123 C122 1.377 . S
C123 C124 1.395 . S
C123 H152 0.931 . S
C124 C123 1.395 . S
C124 C125 1.383 . S
C124 H153 0.931 . S
C125 C124 1.383 . S
C125 C126 1.394 . S
C126 C125 1.394 . S
C126 C127 1.378 . S
C126 H154 0.931 . S
C127 C122 1.377 . S
C127 C126 1.378 . S
C127 H155 0.931 . S
C128 O142 1.259 . S
C128 O143 1.270 . S
C129 O144 1.251 . S
C129 O145 1.251 . S
C130 Eu131 2.835 . S
C130 C132 1.500 . S
C130 O146 1.257 . S
C130 O147 1.260 . S
Eu131 C130 2.835 . S
Eu131 O143 2.355 . S
Eu131 O145 2.374 . S
Eu131 O146 2.473 . S
Eu131 O147 2.480 . S
Eu131 O148 2.430 . S
Eu131 O149 2.670 . S
Eu131 O150 2.394 . S
C132 C130 1.500 . S
C132 C133 1.377 . S
C132 C137 1.377 . S
C133 C132 1.377 . S
C133 C134 1.395 . S
C133 H156 0.931 . S
C134 C133 1.395 . S
C134 C135 1.383 . S
C134 H157 0.931 . S
C135 C134 1.383 . S
C135 C136 1.394 . S
C136 C135 1.394 . S
C136 C137 1.378 . S
C136 H158 0.931 . S
C137 C132 1.377 . S
C137 C136 1.378 . S
C137 H159 0.931 . S
C138 O148 1.259 . S
C138 O149 1.270 . S
C139 O150 1.251 . S
C139 O151 1.251 . S
O140 C120 1.257 . S
O140 Eu121 2.473 . S
O141 C120 1.260 . S
O141 Eu121 2.480 . S
O142 Eu121 2.430 . S
O142 C128 1.259 . S
O143 Eu121 2.670 . S
O143 C128 1.270 . S
O143 Eu131 2.355 . S
O144 Eu121 2.394 . S
O144 C129 1.251 . S
O145 C129 1.251 . S
O145 Eu131 2.374 . S
O146 C130 1.257 . S
O146 Eu131 2.473 . S
O147 C130 1.260 . S
O147 Eu131 2.480 . S
O148 Eu131 2.430 . S
O148 C138 1.259 . S
O149 Eu121 2.355 . S
O149 Eu131 2.670 . S
O149 C138 1.270 . S
O150 Eu131 2.394 . S
O150 C139 1.251 . S
O151 Eu121 2.374 . S
O151 C139 1.251 . S
H152 C123 0.931 . S
H153 C124 0.931 . S
H154 C126 0.931 . S
H155 C127 0.931 . S
H156 C133 0.931 . S
H157 C134 0.931 . S
H158 C136 0.931 . S
H159 C137 0.931 . S
C160 Eu161 2.835 . S
C160 C162 1.500 . S
C160 O180 1.257 . S
C160 O181 1.260 . S
Eu161 C160 2.835 . S
Eu161 O180 2.473 . S
Eu161 O181 2.480 . S
Eu161 O182 2.430 . S
Eu161 O183 2.670 . S
Eu161 O184 2.394 . S
Eu161 O189 2.355 . S
Eu161 O191 2.374 . S
C162 C160 1.500 . S
C162 C163 1.377 . S
C162 C167 1.377 . S
C163 C162 1.377 . S
C163 C164 1.395 . S
C163 H192 0.931 . S
C164 C163 1.395 . S
C164 C165 1.383 . S
C164 H193 0.931 . S
C165 C164 1.383 . S
C165 C166 1.394 . S
C166 C165 1.394 . S
C166 C167 1.378 . S
C166 H194 0.931 . S
C167 C162 1.377 . S
C167 C166 1.378 . S
C167 H195 0.931 . S
C168 O182 1.259 . S
C168 O183 1.270 . S
C169 O184 1.251 . S
C169 O185 1.251 . S
C170 Eu171 2.835 . S
C170 C172 1.500 . S
C170 O186 1.257 . S
C170 O187 1.260 . S
Eu171 C170 2.835 . S
Eu171 O183 2.355 . S
Eu171 O185 2.374 . S
Eu171 O186 2.473 . S
Eu171 O187 2.480 . S
Eu171 O188 2.430 . S
Eu171 O189 2.670 . S
Eu171 O190 2.394 . S
C172 C170 1.500 . S
C172 C173 1.377 . S
C172 C177 1.377 . S
C173 C172 1.377 . S
C173 C174 1.395 . S
C173 H196 0.931 . S
C174 C173 1.395 . S
C174 C175 1.383 . S
C174 H197 0.931 . S
C175 C174 1.383 . S
C175 C176 1.394 . S
C176 C175 1.394 . S
C176 C177 1.378 . S
C176 H198 0.931 . S
C177 C172 1.377 . S
C177 C176 1.378 . S
C177 H199 0.931 . S
C178 O188 1.259 . S
C178 O189 1.270 . S
C179 O190 1.251 . S
C179 O191 1.251 . S
O180 C160 1.257 . S
O180 Eu161 2.473 . S
O181 C160 1.260 . S
O181 Eu161 2.480 . S
O182 Eu161 2.430 . S
O182 C168 1.259 . S
O183 Eu161 2.670 . S
O183 C168 1.270 . S
O183 Eu171 2.355 . S
O184 Eu161 2.394 . S
O184 C169 1.251 . S
O185 C169 1.251 . S
O185 Eu171 2.374 . S
O186 C170 1.257 . S
O186 Eu171 2.473 . S
O187 C170 1.260 . S
O187 Eu171 2.480 . S
O188 Eu171 2.430 . S
O188 C178 1.259 . S
O189 Eu161 2.355 . S
O189 Eu171 2.670 . S
O189 C178 1.270 . S
O190 Eu171 2.394 . S
O190 C179 1.251 . S
O191 Eu161 2.374 . S
O191 C179 1.251 . S
H192 C163 0.931 . S
H193 C164 0.931 . S
H194 C166 0.931 . S
H195 C167 0.931 . S
H196 C173 0.931 . S
H197 C174 0.931 . S
H198 C176 0.931 . S
H199 C177 0.931 . S
C200 Eu201 2.835 . S
C200 C202 1.500 . S
C200 O220 1.257 . S
C200 O221 1.260 . S
Eu201 C200 2.835 . S
Eu201 O220 2.473 . S
Eu201 O221 2.480 . S
Eu201 O222 2.430 . S
Eu201 O223 2.670 . S
Eu201 O224 2.394 . S
Eu201 O229 2.355 . S
Eu201 O231 2.374 . S
C202 C200 1.500 . S
C202 C203 1.377 . S
C202 C207 1.377 . S
C203 C202 1.377 . S
C203 C204 1.395 . S
C203 H232 0.931 . S
C204 C203 1.395 . S
C204 C205 1.383 . S
C204 H233 0.931 . S
C205 C204 1.383 . S
C205 C206 1.394 . S
C206 C205 1.394 . S
C206 C207 1.378 . S
C206 H234 0.931 . S
C207 C202 1.377 . S
C207 C206 1.378 . S
C207 H235 0.931 . S
C208 O222 1.259 . S
C208 O223 1.270 . S
C209 O224 1.251 . S
C209 O225 1.251 . S
C210 Eu211 2.835 . S
C210 C212 1.500 . S
C210 O226 1.257 . S
C210 O227 1.260 . S
Eu211 C210 2.835 . S
Eu211 O223 2.355 . S
Eu211 O225 2.374 . S
Eu211 O226 2.473 . S
Eu211 O227 2.480 . S
Eu211 O228 2.430 . S
Eu211 O229 2.670 . S
Eu211 O230 2.394 . S
C212 C210 1.500 . S
C212 C213 1.377 . S
C212 C217 1.377 . S
C213 C212 1.377 . S
C213 C214 1.395 . S
C213 H236 0.931 . S
C214 C213 1.395 . S
C214 C215 1.383 . S
C214 H237 0.931 . S
C215 C214 1.383 . S
C215 C216 1.394 . S
C216 C215 1.394 . S
C216 C217 1.378 . S
C216 H238 0.931 . S
C217 C212 1.377 . S
C217 C216 1.378 . S
C217 H239 0.931 . S
C218 O228 1.259 . S
C218 O229 1.270 . S
C219 O230 1.251 . S
C219 O231 1.251 . S
O220 C200 1.257 . S
O220 Eu201 2.473 . S
O221 C200 1.260 . S
O221 Eu201 2.480 . S
O222 Eu201 2.430 . S
O222 C208 1.259 . S
O223 Eu201 2.670 . S
O223 C208 1.270 . S
O223 Eu211 2.355 . S
O224 Eu201 2.394 . S
O224 C209 1.251 . S
O225 C209 1.251 . S
O225 Eu211 2.374 . S
O226 C210 1.257 . S
O226 Eu211 2.473 . S
O227 C210 1.260 . S
O227 Eu211 2.480 . S
O228 Eu211 2.430 . S
O228 C218 1.259 . S
O229 Eu201 2.355 . S
O229 Eu211 2.670 . S
O229 C218 1.270 . S
O230 Eu211 2.394 . S
O230 C219 1.251 . S
O231 Eu201 2.374 . S
O231 C219 1.251 . S
H232 C203 0.931 . S
H233 C204 0.931 . S
H234 C206 0.931 . S
H235 C207 0.931 . S
H236 C213 0.931 . S
H237 C214 0.931 . S
H238 C216 0.931 . S
H239 C217 0.931 . S
C240 Eu241 2.835 . S
C240 C242 1.500 . S
C240 O260 1.257 . S
C240 O261 1.260 . S
Eu241 C240 2.835 . S
Eu241 O260 2.473 . S
Eu241 O261 2.480 . S
Eu241 O262 2.430 . S
Eu241 O263 2.670 . S
Eu241 O264 2.394 . S
Eu241 O269 2.355 . S
Eu241 O271 2.374 . S
C242 C240 1.500 . S
C242 C243 1.377 . S
C242 C247 1.377 . S
C243 C242 1.377 . S
C243 C244 1.395 . S
C243 H272 0.931 . S
C244 C243 1.395 . S
C244 C245 1.383 . S
C244 H273 0.931 . S
C245 C244 1.383 . S
C245 C246 1.394 . S
C246 C245 1.394 . S
C246 C247 1.378 . S
C246 H274 0.931 . S
C247 C242 1.377 . S
C247 C246 1.378 . S
C247 H275 0.931 . S
C248 O262 1.259 . S
C248 O263 1.270 . S
C249 O264 1.251 . S
C249 O265 1.251 . S
C250 Eu251 2.835 . S
C250 C252 1.500 . S
C250 O266 1.257 . S
C250 O267 1.260 . S
Eu251 C250 2.835 . S
Eu251 O263 2.355 . S
Eu251 O265 2.374 . S
Eu251 O266 2.473 . S
Eu251 O267 2.480 . S
Eu251 O268 2.430 . S
Eu251 O269 2.670 . S
Eu251 O270 2.394 . S
C252 C250 1.500 . S
C252 C253 1.377 . S
C252 C257 1.377 . S
C253 C252 1.377 . S
C253 C254 1.395 . S
C253 H276 0.931 . S
C254 C253 1.395 . S
C254 C255 1.383 . S
C254 H277 0.931 . S
C255 C254 1.383 . S
C255 C256 1.394 . S
C256 C255 1.394 . S
C256 C257 1.378 . S
C256 H278 0.931 . S
C257 C252 1.377 . S
C257 C256 1.378 . S
C257 H279 0.931 . S
C258 O268 1.259 . S
C258 O269 1.270 . S
C259 O270 1.251 . S
C259 O271 1.251 . S
O260 C240 1.257 . S
O260 Eu241 2.473 . S
O261 C240 1.260 . S
O261 Eu241 2.480 . S
O262 Eu241 2.430 . S
O262 C248 1.259 . S
O263 Eu241 2.670 . S
O263 C248 1.270 . S
O263 Eu251 2.355 . S
O264 Eu241 2.394 . S
O264 C249 1.251 . S
O265 C249 1.251 . S
O265 Eu251 2.374 . S
O266 C250 1.257 . S
O266 Eu251 2.473 . S
O267 C250 1.260 . S
O267 Eu251 2.480 . S
O268 Eu251 2.430 . S
O268 C258 1.259 . S
O269 Eu241 2.355 . S
O269 Eu251 2.670 . S
O269 C258 1.270 . S
O270 Eu251 2.394 . S
O270 C259 1.251 . S
O271 Eu241 2.374 . S
O271 C259 1.251 . S
H272 C243 0.931 . S
H273 C244 0.931 . S
H274 C246 0.931 . S
H275 C247 0.931 . S
H276 C253 0.931 . S
H277 C254 0.931 . S
H278 C256 0.931 . S
H279 C257 0.931 . S
C280 Eu281 2.835 . S
C280 C282 1.500 . S
C280 O300 1.257 . S
C280 O301 1.260 . S
Eu281 C280 2.835 . S
Eu281 O300 2.473 . S
Eu281 O301 2.480 . S
Eu281 O302 2.430 . S
Eu281 O303 2.670 . S
Eu281 O304 2.394 . S
Eu281 O309 2.355 . S
Eu281 O311 2.374 . S
C282 C280 1.500 . S
C282 C283 1.377 . S
C282 C287 1.377 . S
C283 C282 1.377 . S
C283 C284 1.395 . S
C283 H312 0.931 . S
C284 C283 1.395 . S
C284 C285 1.383 . S
C284 H313 0.931 . S
C285 C284 1.383 . S
C285 C286 1.394 . S
C286 C285 1.394 . S
C286 C287 1.378 . S
C286 H314 0.931 . S
C287 C282 1.377 . S
C287 C286 1.378 . S
C287 H315 0.931 . S
C288 O302 1.259 . S
C288 O303 1.270 . S
C289 O304 1.251 . S
C289 O305 1.251 . S
C290 Eu291 2.835 . S
C290 C292 1.500 . S
C290 O306 1.257 . S
C290 O307 1.260 . S
Eu291 C290 2.835 . S
Eu291 O303 2.355 . S
Eu291 O305 2.374 . S
Eu291 O306 2.473 . S
Eu291 O307 2.480 . S
Eu291 O308 2.430 . S
Eu291 O309 2.670 . S
Eu291 O310 2.394 . S
C292 C290 1.500 . S
C292 C293 1.377 . S
C292 C297 1.377 . S
C293 C292 1.377 . S
C293 C294 1.395 . S
C293 H316 0.931 . S
C294 C293 1.395 . S
C294 C295 1.383 . S
C294 H317 0.931 . S
C295 C294 1.383 . S
C295 C296 1.394 . S
C296 C295 1.394 . S
C296 C297 1.378 . S
C296 H318 0.931 . S
C297 C292 1.377 . S
C297 C296 1.378 . S
C297 H319 0.931 . S
C298 O308 1.259 . S
C298 O309 1.270 . S
C299 O310 1.251 . S
C299 O311 1.251 . S
O300 C280 1.257 . S
O300 Eu281 2.473 . S
O301 C280 1.260 . S
O301 Eu281 2.480 . S
O302 Eu281 2.430 . S
O302 C288 1.259 . S
O303 Eu281 2.670 . S
O303 C288 1.270 . S
O303 Eu291 2.355 . S
O304 Eu281 2.394 . S
O304 C289 1.251 . S
O305 C289 1.251 . S
O305 Eu291 2.374 . S
O306 C290 1.257 . S
O306 Eu291 2.473 . S
O307 C290 1.260 . S
O307 Eu291 2.480 . S
O308 Eu291 2.430 . S
O308 C298 1.259 . S
O309 Eu281 2.355 . S
O309 Eu291 2.670 . S
O309 C298 1.270 . S
O310 Eu291 2.394 . S
O310 C299 1.251 . S
O311 Eu281 2.374 . S
O311 C299 1.251 . S
H312 C283 0.931 . S
H313 C284 0.931 . S
H314 C286 0.931 . S
H315 C287 0.931 . S
H316 C293 0.931 . S
H317 C294 0.931 . S
H318 C296 0.931 . S
H319 C297 0.931 . S
C320 Eu321 2.835 . S
C320 C322 1.500 . S
C320 O340 1.257 . S
C320 O341 1.260 . S
Eu321 C320 2.835 . S
Eu321 O340 2.473 . S
Eu321 O341 2.480 . S
Eu321 O342 2.430 . S
Eu321 O343 2.670 . S
Eu321 O344 2.394 . S
Eu321 O349 2.355 . S
Eu321 O351 2.374 . S
C322 C320 1.500 . S
C322 C323 1.377 . S
C322 C327 1.377 . S
C323 C322 1.377 . S
C323 C324 1.395 . S
C323 H352 0.931 . S
C324 C323 1.395 . S
C324 C325 1.383 . S
C324 H353 0.931 . S
C325 C324 1.383 . S
C325 C326 1.394 . S
C326 C325 1.394 . S
C326 C327 1.378 . S
C326 H354 0.931 . S
C327 C322 1.377 . S
C327 C326 1.378 . S
C327 H355 0.931 . S
C328 O342 1.259 . S
C328 O343 1.270 . S
C329 O344 1.251 . S
C329 O345 1.251 . S
C330 Eu331 2.835 . S
C330 C332 1.500 . S
C330 O346 1.257 . S
C330 O347 1.260 . S
Eu331 C330 2.835 . S
Eu331 O343 2.355 . S
Eu331 O345 2.374 . S
Eu331 O346 2.473 . S
Eu331 O347 2.480 . S
Eu331 O348 2.430 . S
Eu331 O349 2.670 . S
Eu331 O350 2.394 . S
C332 C330 1.500 . S
C332 C333 1.377 . S
C332 C337 1.377 . S
C333 C332 1.377 . S
C333 C334 1.395 . S
C333 H356 0.931 . S
C334 C333 1.395 . S
C334 C335 1.383 . S
C334 H357 0.931 . S
C335 C334 1.383 . S
C335 C336 1.394 . S
C336 C335 1.394 . S
C336 C337 1.378 . S
C336 H358 0.931 . S
C337 C332 1.377 . S
C337 C336 1.378 . S
C337 H359 0.931 . S
C338 O348 1.259 . S
C338 O349 1.270 . S
C339 O350 1.251 . S
C339 O351 1.251 . S
O340 C320 1.257 . S
O340 Eu321 2.473 . S
O341 C320 1.260 . S
O341 Eu321 2.480 . S
O342 Eu321 2.430 . S
O342 C328 1.259 . S
O343 Eu321 2.670 . S
O343 C328 1.270 . S
O343 Eu331 2.355 . S
O344 Eu321 2.394 . S
O344 C329 1.251 . S
O345 C329 1.251 . S
O345 Eu331 2.374 . S
O346 C330 1.257 . S
O346 Eu331 2.473 . S
O347 C330 1.260 . S
O347 Eu331 2.480 . S
O348 Eu331 2.430 . S
O348 C338 1.259 . S
O349 Eu321 2.355 . S
O349 Eu331 2.670 . S
O349 C338 1.270 . S
O350 Eu331 2.394 . S
O350 C339 1.251 . S
O351 Eu321 2.374 . S
O351 C339 1.251 . S
H352 C323 0.931 . S
H353 C324 0.931 . S
H354 C326 0.931 . S
H355 C327 0.931 . S
H356 C333 0.931 . S
H357 C334 0.931 . S
H358 C336 0.931 . S
H359 C337 0.931 . S
C360 Eu361 2.835 . S
C360 C362 1.500 . S
C360 O380 1.257 . S
C360 O381 1.260 . S
Eu361 C360 2.835 . S
Eu361 O380 2.473 . S
Eu361 O381 2.480 . S
Eu361 O382 2.430 . S
Eu361 O383 2.670 . S
Eu361 O384 2.394 . S
Eu361 O389 2.355 . S
Eu361 O391 2.374 . S
C362 C360 1.500 . S
C362 C363 1.377 . S
C362 C367 1.377 . S
C363 C362 1.377 . S
C363 C364 1.395 . S
C363 H392 0.931 . S
C364 C363 1.395 . S
C364 C365 1.383 . S
C364 H393 0.931 . S
C365 C364 1.383 . S
C365 C366 1.394 . S
C366 C365 1.394 . S
C366 C367 1.378 . S
C366 H394 0.931 . S
C367 C362 1.377 . S
C367 C366 1.378 . S
C367 H395 0.931 . S
C368 O382 1.259 . S
C368 O383 1.270 . S
C369 O384 1.251 . S
C369 O385 1.251 . S
C370 Eu371 2.835 . S
C370 C372 1.500 . S
C370 O386 1.257 . S
C370 O387 1.260 . S
Eu371 C370 2.835 . S
Eu371 O383 2.355 . S
Eu371 O385 2.374 . S
Eu371 O386 2.473 . S
Eu371 O387 2.480 . S
Eu371 O388 2.430 . S
Eu371 O389 2.670 . S
Eu371 O390 2.394 . S
C372 C370 1.500 . S
C372 C373 1.377 . S
C372 C377 1.377 . S
C373 C372 1.377 . S
C373 C374 1.395 . S
C373 H396 0.931 . S
C374 C373 1.395 . S
C374 C375 1.383 . S
C374 H397 0.931 . S
C375 C374 1.383 . S
C375 C376 1.394 . S
C376 C375 1.394 . S
C376 C377 1.378 . S
C376 H398 0.931 . S
C377 C372 1.377 . S
C377 C376 1.378 . S
C377 H399 0.931 . S
C378 O388 1.259 . S
C378 O389 1.270 . S
C379 O390 1.251 . S
C379 O391 1.251 . S
O380 C360 1.257 . S
O380 Eu361 2.473 . S
O381 C360 1.260 . S
O381 Eu361 2.480 . S
O382 Eu361 2.430 . S
O382 C368 1.259 . S
O383 Eu361 2.670 . S
O383 C368 1.270 . S
O383 Eu371 2.355 . S
O384 Eu361 2.394 . S
O384 C369 1.251 . S
O385 C369 1.251 . S
O385 Eu371 2.374 . S
O386 C370 1.257 . S
O386 Eu371 2.473 . S
O387 C370 1.260 . S
O387 Eu371 2.480 . S
O388 Eu371 2.430 . S
O388 C378 1.259 . S
O389 Eu361 2.355 . S
O389 Eu371 2.670 . S
O389 C378 1.270 . S
O390 Eu371 2.394 . S
O390 C379 1.251 . S
O391 Eu361 2.374 . S
O391 C379 1.251 . S
H392 C363 0.931 . S
H393 C364 0.931 . S
H394 C366 0.931 . S
H395 C367 0.931 . S
H396 C373 0.931 . S
H397 C374 0.931 . S
H398 C376 0.931 . S
H399 C377 0.931 . S
C400 Eu401 2.835 . S
C400 C402 1.500 . S
C400 O420 1.257 . S
C400 O421 1.260 . S
Eu401 C400 2.835 . S
Eu401 O420 2.473 . S
Eu401 O421 2.480 . S
Eu401 O422 2.430 . S
Eu401 O423 2.670 . S
Eu401 O424 2.394 . S
Eu401 O429 2.355 . S
Eu401 O431 2.374 . S
C402 C400 1.500 . S
C402 C403 1.377 . S
C402 C407 1.377 . S
C403 C402 1.377 . S
C403 C404 1.395 . S
C403 H432 0.931 . S
C404 C403 1.395 . S
C404 C405 1.383 . S
C404 H433 0.931 . S
C405 C404 1.383 . S
C405 C406 1.394 . S
C406 C405 1.394 . S
C406 C407 1.378 . S
C406 H434 0.931 . S
C407 C402 1.377 . S
C407 C406 1.378 . S
C407 H435 0.931 . S
C408 O422 1.259 . S
C408 O423 1.270 . S
C409 O424 1.251 . S
C409 O425 1.251 . S
C410 Eu411 2.835 . S
C410 C412 1.500 . S
C410 O426 1.257 . S
C410 O427 1.260 . S
Eu411 C410 2.835 . S
Eu411 O423 2.355 . S
Eu411 O425 2.374 . S
Eu411 O426 2.473 . S
Eu411 O427 2.480 . S
Eu411 O428 2.430 . S
Eu411 O429 2.670 . S
Eu411 O430 2.394 . S
C412 C410 1.500 . S
C412 C413 1.377 . S
C412 C417 1.377 . S
C413 C412 1.377 . S
C413 C414 1.395 . S
C413 H436 0.931 . S
C414 C413 1.395 . S
C414 C415 1.383 . S
C414 H437 0.931 . S
C415 C414 1.383 . S
C415 C416 1.394 . S
C416 C415 1.394 . S
C416 C417 1.378 . S
C416 H438 0.931 . S
C417 C412 1.377 . S
C417 C416 1.378 . S
C417 H439 0.931 . S
C418 O428 1.259 . S
C418 O429 1.270 . S
C419 O430 1.251 . S
C419 O431 1.251 . S
O420 C400 1.257 . S
O420 Eu401 2.473 . S
O421 C400 1.260 . S
O421 Eu401 2.480 . S
O422 Eu401 2.430 . S
O422 C408 1.259 . S
O423 Eu401 2.670 . S
O423 C408 1.270 . S
O423 Eu411 2.355 . S
O424 Eu401 2.394 . S
O424 C409 1.251 . S
O425 C409 1.251 . S
O425 Eu411 2.374 . S
O426 C410 1.257 . S
O426 Eu411 2.473 . S
O427 C410 1.260 . S
O427 Eu411 2.480 . S
O428 Eu411 2.430 . S
O428 C418 1.259 . S
O429 Eu401 2.355 . S
O429 Eu411 2.670 . S
O429 C418 1.270 . S
O430 Eu411 2.394 . S
O430 C419 1.251 . S
O431 Eu401 2.374 . S
O431 C419 1.251 . S
H432 C403 0.931 . S
H433 C404 0.931 . S
H434 C406 0.931 . S
H435 C407 0.931 . S
H436 C413 0.931 . S
H437 C414 0.931 . S
H438 C416 0.931 . S
H439 C417 0.931 . S
C440 Eu441 2.835 . S
C440 C442 1.500 . S
C440 O460 1.257 . S
C440 O461 1.260 . S
Eu441 C440 2.835 . S
Eu441 O460 2.473 . S
Eu441 O461 2.480 . S
Eu441 O462 2.430 . S
Eu441 O463 2.670 . S
Eu441 O464 2.394 . S
Eu441 O469 2.355 . S
Eu441 O471 2.374 . S
C442 C440 1.500 . S
C442 C443 1.377 . S
C442 C447 1.377 . S
C443 C442 1.377 . S
C443 C444 1.395 . S
C443 H472 0.931 . S
C444 C443 1.395 . S
C444 C445 1.383 . S
C444 H473 0.931 . S
C445 C444 1.383 . S
C445 C446 1.394 . S
C446 C445 1.394 . S
C446 C447 1.378 . S
C446 H474 0.931 . S
C447 C442 1.377 . S
C447 C446 1.378 . S
C447 H475 0.931 . S
C448 O462 1.259 . S
C448 O463 1.270 . S
C449 O464 1.251 . S
C449 O465 1.251 . S
C450 Eu451 2.835 . S
C450 C452 1.500 . S
C450 O466 1.257 . S
C450 O467 1.260 . S
Eu451 C450 2.835 . S
Eu451 O463 2.355 . S
Eu451 O465 2.374 . S
Eu451 O466 2.473 . S
Eu451 O467 2.480 . S
Eu451 O468 2.430 . S
Eu451 O469 2.670 . S
Eu451 O470 2.394 . S
C452 C450 1.500 . S
C452 C453 1.377 . S
C452 C457 1.377 . S
C453 C452 1.377 . S
C453 C454 1.395 . S
C453 H476 0.931 . S
C454 C453 1.395 . S
C454 C455 1.383 . S
C454 H477 0.931 . S
C455 C454 1.383 . S
C455 C456 1.394 . S
C456 C455 1.394 . S
C456 C457 1.378 . S
C456 H478 0.931 . S
C457 C452 1.377 . S
C457 C456 1.378 . S
C457 H479 0.931 . S
C458 O468 1.259 . S
C458 O469 1.270 . S
C459 O470 1.251 . S
C459 O471 1.251 . S
O460 C440 1.257 . S
O460 Eu441 2.473 . S
O461 C440 1.260 . S
O461 Eu441 2.480 . S
O462 Eu441 2.430 . S
O462 C448 1.259 . S
O463 Eu441 2.670 . S
O463 C448 1.270 . S
O463 Eu451 2.355 . S
O464 Eu441 2.394 . S
O464 C449 1.251 . S
O465 C449 1.251 . S
O465 Eu451 2.374 . S
O466 C450 1.257 . S
O466 Eu451 2.473 . S
O467 C450 1.260 . S
O467 Eu451 2.480 . S
O468 Eu451 2.430 . S
O468 C458 1.259 . S
O469 Eu441 2.355 . S
O469 Eu451 2.670 . S
O469 C458 1.270 . S
O470 Eu451 2.394 . S
O470 C459 1.251 . S
O471 Eu441 2.374 . S
O471 C459 1.251 . S
H472 C443 0.931 . S
H473 C444 0.931 . S
H474 C446 0.931 . S
H475 C447 0.931 . S
H476 C453 0.931 . S
H477 C454 0.931 . S
H478 C456 0.931 . S
H479 C457 0.931 . S
C480 Eu481 2.835 . S
C480 C482 1.500 . S
C480 O500 1.257 . S
C480 O501 1.260 . S
Eu481 C480 2.835 . S
Eu481 O500 2.473 . S
Eu481 O501 2.480 . S
Eu481 O502 2.430 . S
Eu481 O503 2.670 . S
Eu481 O504 2.394 . S
Eu481 O509 2.355 . S
Eu481 O511 2.374 . S
C482 C480 1.500 . S
C482 C483 1.377 . S
C482 C487 1.377 . S
C483 C482 1.377 . S
C483 C484 1.395 . S
C483 H512 0.931 . S
C484 C483 1.395 . S
C484 C485 1.383 . S
C484 H513 0.931 . S
C485 C484 1.383 . S
C485 C486 1.394 . S
C486 C485 1.394 . S
C486 C487 1.378 . S
C486 H514 0.931 . S
C487 C482 1.377 . S
C487 C486 1.378 . S
C487 H515 0.931 . S
C488 O502 1.259 . S
C488 O503 1.270 . S
C489 O504 1.251 . S
C489 O505 1.251 . S
C490 Eu491 2.835 . S
C490 C492 1.500 . S
C490 O506 1.257 . S
C490 O507 1.260 . S
Eu491 C490 2.835 . S
Eu491 O503 2.355 . S
Eu491 O505 2.374 . S
Eu491 O506 2.473 . S
Eu491 O507 2.480 . S
Eu491 O508 2.430 . S
Eu491 O509 2.670 . S
Eu491 O510 2.394 . S
C492 C490 1.500 . S
C492 C493 1.377 . S
C492 C497 1.377 . S
C493 C492 1.377 . S
C493 C494 1.395 . S
C493 H516 0.931 . S
C494 C493 1.395 . S
C494 C495 1.383 . S
C494 H517 0.931 . S
C495 C494 1.383 . S
C495 C496 1.394 . S
C496 C495 1.394 . S
C496 C497 1.378 . S
C496 H518 0.931 . S
C497 C492 1.377 . S
C497 C496 1.378 . S
C497 H519 0.931 . S
C498 O508 1.259 . S
C498 O509 1.270 . S
C499 O510 1.251 . S
C499 O511 1.251 . S
O500 C480 1.257 . S
O500 Eu481 2.473 . S
O501 C480 1.260 . S
O501 Eu481 2.480 . S
O502 Eu481 2.430 . S
O502 C488 1.259 . S
O503 Eu481 2.670 . S
O503 C488 1.270 . S
O503 Eu491 2.355 . S
O504 Eu481 2.394 . S
O504 C489 1.251 . S
O505 C489 1.251 . S
O505 Eu491 2.374 . S
O506 C490 1.257 . S
O506 Eu491 2.473 . S
O507 C490 1.260 . S
O507 Eu491 2.480 . S
O508 Eu491 2.430 . S
O508 C498 1.259 . S
O509 Eu481 2.355 . S
O509 Eu491 2.670 . S
O509 C498 1.270 . S
O510 Eu491 2.394 . S
O510 C499 1.251 . S
O511 Eu481 2.374 . S
O511 C499 1.251 . S
H512 C483 0.931 . S
H513 C484 0.931 . S
H514 C486 0.931 . S
H515 C487 0.931 . S
H516 C493 0.931 . S
H517 C494 0.931 . S
H518 C496 0.931 . S
H519 C497 0.931 . S
C520 Eu521 2.835 . S
C520 C522 1.500 . S
C520 O540 1.257 . S
C520 O541 1.260 . S
Eu521 C520 2.835 . S
Eu521 O540 2.473 . S
Eu521 O541 2.480 . S
Eu521 O542 2.430 . S
Eu521 O543 2.670 . S
Eu521 O544 2.394 . S
Eu521 O549 2.355 . S
Eu521 O551 2.374 . S
C522 C520 1.500 . S
C522 C523 1.377 . S
C522 C527 1.377 . S
C523 C522 1.377 . S
C523 C524 1.395 . S
C523 H552 0.931 . S
C524 C523 1.395 . S
C524 C525 1.383 . S
C524 H553 0.931 . S
C525 C524 1.383 . S
C525 C526 1.394 . S
C526 C525 1.394 . S
C526 C527 1.378 . S
C526 H554 0.931 . S
C527 C522 1.377 . S
C527 C526 1.378 . S
C527 H555 0.931 . S
C528 O542 1.259 . S
C528 O543 1.270 . S
C529 O544 1.251 . S
C529 O545 1.251 . S
C530 Eu531 2.835 . S
C530 C532 1.500 . S
C530 O546 1.257 . S
C530 O547 1.260 . S
Eu531 C530 2.835 . S
Eu531 O543 2.355 . S
Eu531 O545 2.374 . S
Eu531 O546 2.473 . S
Eu531 O547 2.480 . S
Eu531 O548 2.430 . S
Eu531 O549 2.670 . S
Eu531 O550 2.394 . S
C532 C530 1.500 . S
C532 C533 1.377 . S
C532 C537 1.377 . S
C533 C532 1.377 . S
C533 C534 1.395 . S
C533 H556 0.931 . S
C534 C533 1.395 . S
C534 C535 1.383 . S
C534 H557 0.931 . S
C535 C534 1.383 . S
C535 C536 1.394 . S
C536 C535 1.394 . S
C536 C537 1.378 . S
C536 H558 0.931 . S
C537 C532 1.377 . S
C537 C536 1.378 . S
C537 H559 0.931 . S
C538 O548 1.259 . S
C538 O549 1.270 . S
C539 O550 1.251 . S
C539 O551 1.251 . S
O540 C520 1.257 . S
O540 Eu521 2.473 . S
O541 C520 1.260 . S
O541 Eu521 2.480 . S
O542 Eu521 2.430 . S
O542 C528 1.259 . S
O543 Eu521 2.670 . S
O543 C528 1.270 . S
O543 Eu531 2.355 . S
O544 Eu521 2.394 . S
O544 C529 1.251 . S
O545 C529 1.251 . S
O545 Eu531 2.374 . S
O546 C530 1.257 . S
O546 Eu531 2.473 . S
O547 C530 1.260 . S
O547 Eu531 2.480 . S
O548 Eu531 2.430 . S
O548 C538 1.259 . S
O549 Eu521 2.355 . S
O549 Eu531 2.670 . S
O549 C538 1.270 . S
O550 Eu531 2.394 . S
O550 C539 1.251 . S
O551 Eu521 2.374 . S
O551 C539 1.251 . S
H552 C523 0.931 . S
H553 C524 0.931 . S
H554 C526 0.931 . S
H555 C527 0.931 . S
H556 C533 0.931 . S
H557 C534 0.931 . S
H558 C536 0.931 . S
H559 C537 0.931 . S
C560 Eu561 2.835 . S
C560 C562 1.500 . S
C560 O580 1.257 . S
C560 O581 1.260 . S
Eu561 C560 2.835 . S
Eu561 O580 2.473 . S
Eu561 O581 2.480 . S
Eu561 O582 2.430 . S
Eu561 O583 2.670 . S
Eu561 O584 2.394 . S
Eu561 O589 2.355 . S
Eu561 O591 2.374 . S
C562 C560 1.500 . S
C562 C563 1.377 . S
C562 C567 1.377 . S
C563 C562 1.377 . S
C563 C564 1.395 . S
C563 H592 0.931 . S
C564 C563 1.395 . S
C564 C565 1.383 . S
C564 H593 0.931 . S
C565 C564 1.383 . S
C565 C566 1.394 . S
C566 C565 1.394 . S
C566 C567 1.378 . S
C566 H594 0.931 . S
C567 C562 1.377 . S
C567 C566 1.378 . S
C567 H595 0.931 . S
C568 O582 1.259 . S
C568 O583 1.270 . S
C569 O584 1.251 . S
C569 O585 1.251 . S
C570 Eu571 2.835 . S
C570 C572 1.500 . S
C570 O586 1.257 . S
C570 O587 1.260 . S
Eu571 C570 2.835 . S
Eu571 O583 2.355 . S
Eu571 O585 2.374 . S
Eu571 O586 2.473 . S
Eu571 O587 2.480 . S
Eu571 O588 2.430 . S
Eu571 O589 2.670 . S
Eu571 O590 2.394 . S
C572 C570 1.500 . S
C572 C573 1.377 . S
C572 C577 1.377 . S
C573 C572 1.377 . S
C573 C574 1.395 . S
C573 H596 0.931 . S
C574 C573 1.395 . S
C574 C575 1.383 . S
C574 H597 0.931 . S
C575 C574 1.383 . S
C575 C576 1.394 . S
C576 C575 1.394 . S
C576 C577 1.378 . S
C576 H598 0.931 . S
C577 C572 1.377 . S
C577 C576 1.378 . S
C577 H599 0.931 . S
C578 O588 1.259 . S
C578 O589 1.270 . S
C579 O590 1.251 . S
C579 O591 1.251 . S
O580 C560 1.257 . S
O580 Eu561 2.473 . S
O581 C560 1.260 . S
O581 Eu561 2.480 . S
O582 Eu561 2.430 . S
O582 C568 1.259 . S
O583 Eu561 2.670 . S
O583 C568 1.270 . S
O583 Eu571 2.355 . S
O584 Eu561 2.394 . S
O584 C569 1.251 . S
O585 C569 1.251 . S
O585 Eu571 2.374 . S
O586 C570 1.257 . S
O586 Eu571 2.473 . S
O587 C570 1.260 . S
O587 Eu571 2.480 . S
O588 Eu571 2.430 . S
O588 C578 1.259 . S
O589 Eu561 2.355 . S
O589 Eu571 2.670 . S
O589 C578 1.270 . S
O590 Eu571 2.394 . S
O590 C579 1.251 . S
O591 Eu561 2.374 . S
O591 C579 1.251 . S
H592 C563 0.931 . S
H593 C564 0.931 . S
H594 C566 0.931 . S
H595 C567 0.931 . S
H596 C573 0.931 . S
H597 C574 0.931 . S
H598 C576 0.931 . S
H599 C577 0.931 . S
C600 Eu601 2.835 . S
C600 C602 1.500 . S
C600 O620 1.257 . S
C600 O621 1.260 . S
Eu601 C600 2.835 . S
Eu601 O620 2.473 . S
Eu601 O621 2.480 . S
Eu601 O622 2.430 . S
Eu601 O623 2.670 . S
Eu601 O624 2.394 . S
Eu601 O629 2.355 . S
Eu601 O631 2.374 . S
C602 C600 1.500 . S
C602 C603 1.377 . S
C602 C607 1.377 . S
C603 C602 1.377 . S
C603 C604 1.395 . S
C603 H632 0.931 . S
C604 C603 1.395 . S
C604 C605 1.383 . S
C604 H633 0.931 . S
C605 C604 1.383 . S
C605 C606 1.394 . S
C606 C605 1.394 . S
C606 C607 1.378 . S
C606 H634 0.931 . S
C607 C602 1.377 . S
C607 C606 1.378 . S
C607 H635 0.931 . S
C608 O622 1.259 . S
C608 O623 1.270 . S
C609 O624 1.251 . S
C609 O625 1.251 . S
C610 Eu611 2.835 . S
C610 C612 1.500 . S
C610 O626 1.257 . S
C610 O627 1.260 . S
Eu611 C610 2.835 . S
Eu611 O623 2.355 . S
Eu611 O625 2.374 . S
Eu611 O626 2.473 . S
Eu611 O627 2.480 . S
Eu611 O628 2.430 . S
Eu611 O629 2.670 . S
Eu611 O630 2.394 . S
C612 C610 1.500 . S
C612 C613 1.377 . S
C612 C617 1.377 1_655 S
C613 C612 1.377 . S
C613 C614 1.395 . S
C613 H636 0.931 . S
C614 C613 1.395 . S
C614 C615 1.383 1_655 S
C614 H637 0.931 . S
C615 C614 1.383 1_455 S
C615 C616 1.394 . S
C616 C615 1.394 . S
C616 C617 1.378 . S
C616 H638 0.931 . S
C617 C612 1.377 1_455 S
C617 C616 1.378 . S
C617 H639 0.931 . S
C618 O628 1.259 . S
C618 O629 1.270 . S
C619 O630 1.251 . S
C619 O631 1.251 . S
O620 C600 1.257 . S
O620 Eu601 2.473 . S
O621 C600 1.260 . S
O621 Eu601 2.480 . S
O622 Eu601 2.430 . S
O622 C608 1.259 . S
O623 Eu601 2.670 . S
O623 C608 1.270 . S
O623 Eu611 2.355 . S
O624 Eu601 2.394 . S
O624 C609 1.251 . S
O625 C609 1.251 . S
O625 Eu611 2.374 . S
O626 C610 1.257 . S
O626 Eu611 2.473 . S
O627 C610 1.260 . S
O627 Eu611 2.480 . S
O628 Eu611 2.430 . S
O628 C618 1.259 . S
O629 Eu601 2.355 . S
O629 Eu611 2.670 . S
O629 C618 1.270 . S
O630 Eu611 2.394 . S
O630 C619 1.251 . S
O631 Eu601 2.374 . S
O631 C619 1.251 . S
H632 C603 0.931 . S
H633 C604 0.931 . S
H634 C606 0.931 . S
H635 C607 0.931 . S
H636 C613 0.931 . S
H637 C614 0.931 . S
H638 C616 0.931 . S
H639 C617 0.931 . S
C640 Eu641 2.835 . S
C640 C642 1.500 . S
C640 O660 1.257 . S
C640 O661 1.260 . S
Eu641 C640 2.835 . S
Eu641 O660 2.473 . S
Eu641 O661 2.480 . S
Eu641 O662 2.430 . S
Eu641 O663 2.670 . S
Eu641 O664 2.394 . S
Eu641 O669 2.355 . S
Eu641 O671 2.374 . S
C642 C640 1.500 . S
C642 C643 1.377 . S
C642 C647 1.377 . S
C643 C642 1.377 . S
C643 C644 1.395 . S
C643 H672 0.931 . S
C644 C643 1.395 . S
C644 C645 1.383 . S
C644 H673 0.931 . S
C645 C644 1.383 . S
C645 C646 1.394 . S
C646 C645 1.394 . S
C646 C647 1.378 . S
C646 H674 0.931 . S
C647 C642 1.377 . S
C647 C646 1.378 . S
C647 H675 0.931 . S
C648 O662 1.259 . S
C648 O663 1.270 . S
C649 O664 1.251 . S
C649 O665 1.251 . S
C650 Eu651 2.835 . S
C650 C652 1.500 . S
C650 O666 1.257 . S
C650 O667 1.260 . S
Eu651 C650 2.835 . S
Eu651 O663 2.355 . S
Eu651 O665 2.374 . S
Eu651 O666 2.473 . S
Eu651 O667 2.480 . S
Eu651 O668 2.430 . S
Eu651 O669 2.670 . S
Eu651 O670 2.394 . S
C652 C650 1.500 . S
C652 C653 1.377 . S
C652 C657 1.377 . S
C653 C652 1.377 . S
C653 C654 1.395 . S
C653 H676 0.931 . S
C654 C653 1.395 . S
C654 C655 1.383 . S
C654 H677 0.931 . S
C655 C654 1.383 . S
C655 C656 1.394 . S
C656 C655 1.394 . S
C656 C657 1.378 . S
C656 H678 0.931 . S
C657 C652 1.377 . S
C657 C656 1.378 . S
C657 H679 0.931 . S
C658 O668 1.259 . S
C658 O669 1.270 . S
C659 O670 1.251 . S
C659 O671 1.251 . S
O660 C640 1.257 . S
O660 Eu641 2.473 . S
O661 C640 1.260 . S
O661 Eu641 2.480 . S
O662 Eu641 2.430 . S
O662 C648 1.259 . S
O663 Eu641 2.670 . S
O663 C648 1.270 . S
O663 Eu651 2.355 . S
O664 Eu641 2.394 . S
O664 C649 1.251 . S
O665 C649 1.251 . S
O665 Eu651 2.374 . S
O666 C650 1.257 . S
O666 Eu651 2.473 . S
O667 C650 1.260 . S
O667 Eu651 2.480 . S
O668 Eu651 2.430 . S
O668 C658 1.259 . S
O669 Eu641 2.355 . S
O669 Eu651 2.670 . S
O669 C658 1.270 . S
O670 Eu651 2.394 . S
O670 C659 1.251 . S
O671 Eu641 2.374 . S
O671 C659 1.251 . S
H672 C643 0.931 . S
H673 C644 0.931 . S
H674 C646 0.931 . S
H675 C647 0.931 . S
H676 C653 0.931 . S
H677 C654 0.931 . S
H678 C656 0.931 . S
H679 C657 0.931 . S
C680 Eu681 2.835 . S
C680 C682 1.500 . S
C680 O700 1.257 . S
C680 O701 1.260 . S
Eu681 C680 2.835 . S
Eu681 O700 2.473 . S
Eu681 O701 2.480 . S
Eu681 O702 2.430 . S
Eu681 O703 2.670 . S
Eu681 O704 2.394 . S
Eu681 O709 2.355 . S
Eu681 O711 2.374 . S
C682 C680 1.500 . S
C682 C683 1.377 . S
C682 C687 1.377 . S
C683 C682 1.377 . S
C683 C684 1.395 . S
C683 H712 0.931 . S
C684 C683 1.395 . S
C684 C685 1.383 . S
C684 H713 0.931 . S
C685 C684 1.383 . S
C685 C686 1.394 . S
C686 C685 1.394 . S
C686 C687 1.378 . S
C686 H714 0.931 . S
C687 C682 1.377 . S
C687 C686 1.378 . S
C687 H715 0.931 . S
C688 O702 1.259 . S
C688 O703 1.270 . S
C689 O704 1.251 . S
C689 O705 1.251 . S
C690 Eu691 2.835 . S
C690 C692 1.500 . S
C690 O706 1.257 . S
C690 O707 1.260 . S
Eu691 C690 2.835 . S
Eu691 O703 2.355 . S
Eu691 O705 2.374 . S
Eu691 O706 2.473 . S
Eu691 O707 2.480 . S
Eu691 O708 2.430 . S
Eu691 O709 2.670 . S
Eu691 O710 2.394 . S
C692 C690 1.500 . S
C692 C693 1.377 . S
C692 C697 1.377 1_545 S
C693 C692 1.377 . S
C693 C694 1.395 . S
C693 H716 0.931 . S
C694 C693 1.395 . S
C694 C695 1.383 1_545 S
C694 H717 0.931 . S
C695 C694 1.383 1_565 S
C695 C696 1.394 . S
C696 C695 1.394 . S
C696 C697 1.378 . S
C696 H718 0.931 . S
C697 C692 1.377 1_565 S
C697 C696 1.378 . S
C697 H719 0.931 . S
C698 O708 1.259 . S
C698 O709 1.270 . S
C699 O710 1.251 . S
C699 O711 1.251 . S
O700 C680 1.257 . S
O700 Eu681 2.473 . S
O701 C680 1.260 . S
O701 Eu681 2.480 . S
O702 Eu681 2.430 . S
O702 C688 1.259 . S
O703 Eu681 2.670 . S
O703 C688 1.270 . S
O703 Eu691 2.355 . S
O704 Eu681 2.394 . S
O704 C689 1.251 . S
O705 C689 1.251 . S
O705 Eu691 2.374 . S
O706 C690 1.257 . S
O706 Eu691 2.473 . S
O707 C690 1.260 . S
O707 Eu691 2.480 . S
O708 Eu691 2.430 . S
O708 C698 1.259 . S
O709 Eu681 2.355 . S
O709 Eu691 2.670 . S
O709 C698 1.270 . S
O710 Eu691 2.394 . S
O710 C699 1.251 . S
O711 Eu681 2.374 . S
O711 C699 1.251 . S
H712 C683 0.931 . S
H713 C684 0.931 . S
H714 C686 0.931 . S
H715 C687 0.931 . S
H716 C693 0.931 . S
H717 C694 0.931 . S
H718 C696 0.931 . S
H719 C697 0.931 . S
C720 Eu721 2.835 . S
C720 C722 1.500 . S
C720 O740 1.257 . S
C720 O741 1.260 . S
Eu721 C720 2.835 . S
Eu721 O740 2.473 . S
Eu721 O741 2.480 . S
Eu721 O742 2.430 . S
Eu721 O743 2.670 . S
Eu721 O744 2.394 . S
Eu721 O749 2.355 . S
Eu721 O751 2.374 . S
C722 C720 1.500 . S
C722 C723 1.377 . S
C722 C727 1.377 1_545 S
C723 C722 1.377 . S
C723 C724 1.395 . S
C723 H752 0.931 . S
C724 C723 1.395 . S
C724 C725 1.383 1_545 S
C724 H753 0.931 . S
C725 C724 1.383 1_565 S
C725 C726 1.394 . S
C726 C725 1.394 . S
C726 C727 1.378 . S
C726 H754 0.931 . S
C727 C722 1.377 1_565 S
C727 C726 1.378 . S
C727 H755 0.931 . S
C728 O742 1.259 . S
C728 O743 1.270 . S
C729 O744 1.251 . S
C729 O745 1.251 . S
C730 Eu731 2.835 . S
C730 C732 1.500 . S
C730 O746 1.257 . S
C730 O747 1.260 . S
Eu731 C730 2.835 . S
Eu731 O743 2.355 . S
Eu731 O745 2.374 . S
Eu731 O746 2.473 . S
Eu731 O747 2.480 . S
Eu731 O748 2.430 . S
Eu731 O749 2.670 . S
Eu731 O750 2.394 . S
C732 C730 1.500 . S
C732 C733 1.377 . S
C732 C737 1.377 . S
C733 C732 1.377 . S
C733 C734 1.395 . S
C733 H756 0.931 . S
C734 C733 1.395 . S
C734 C735 1.383 . S
C734 H757 0.931 . S
C735 C734 1.383 . S
C735 C736 1.394 . S
C736 C735 1.394 . S
C736 C737 1.378 . S
C736 H758 0.931 . S
C737 C732 1.377 . S
C737 C736 1.378 . S
C737 H759 0.931 . S
C738 O748 1.259 . S
C738 O749 1.270 . S
C739 O750 1.251 . S
C739 O751 1.251 . S
O740 C720 1.257 . S
O740 Eu721 2.473 . S
O741 C720 1.260 . S
O741 Eu721 2.480 . S
O742 Eu721 2.430 . S
O742 C728 1.259 . S
O743 Eu721 2.670 . S
O743 C728 1.270 . S
O743 Eu731 2.355 . S
O744 Eu721 2.394 . S
O744 C729 1.251 . S
O745 C729 1.251 . S
O745 Eu731 2.374 . S
O746 C730 1.257 . S
O746 Eu731 2.473 . S
O747 C730 1.260 . S
O747 Eu731 2.480 . S
O748 Eu731 2.430 . S
O748 C738 1.259 . S
O749 Eu721 2.355 . S
O749 Eu731 2.670 . S
O749 C738 1.270 . S
O750 Eu731 2.394 . S
O750 C739 1.251 . S
O751 Eu721 2.374 . S
O751 C739 1.251 . S
H752 C723 0.931 . S
H753 C724 0.931 . S
H754 C726 0.931 . S
H755 C727 0.931 . S
H756 C733 0.931 . S
H757 C734 0.931 . S
H758 C736 0.931 . S
H759 C737 0.931 . S
C760 Eu761 2.835 . S
C760 C762 1.500 . S
C760 O780 1.257 . S
C760 O781 1.260 . S
Eu761 C760 2.835 . S
Eu761 O780 2.473 . S
Eu761 O781 2.480 . S
Eu761 O782 2.430 . S
Eu761 O783 2.670 . S
Eu761 O784 2.394 . S
Eu761 O789 2.355 . S
Eu761 O791 2.374 . S
C762 C760 1.500 . S
C762 C763 1.377 . S
C762 C767 1.377 1_655 S
C763 C762 1.377 . S
C763 C764 1.395 . S
C763 H792 0.931 . S
C764 C763 1.395 . S
C764 C765 1.383 1_655 S
C764 H793 0.931 . S
C765 C764 1.383 1_455 S
C765 C766 1.394 . S
C766 C765 1.394 . S
C766 C767 1.378 . S
C766 H794 0.931 . S
C767 C762 1.377 1_455 S
C767 C766 1.378 . S
C767 H795 0.931 . S
C768 O782 1.259 . S
C768 O783 1.270 . S
C769 O784 1.251 . S
C769 O785 1.251 . S
C770 Eu771 2.835 . S
C770 C772 1.500 . S
C770 O786 1.257 . S
C770 O787 1.260 . S
Eu771 C770 2.835 . S
Eu771 O783 2.355 . S
Eu771 O785 2.374 . S
Eu771 O786 2.473 . S
Eu771 O787 2.480 . S
Eu771 O788 2.430 . S
Eu771 O789 2.670 . S
Eu771 O790 2.394 . S
C772 C770 1.500 . S
C772 C773 1.377 . S
C772 C777 1.377 . S
C773 C772 1.377 . S
C773 C774 1.395 . S
C773 H796 0.931 . S
C774 C773 1.395 . S
C774 C775 1.383 . S
C774 H797 0.931 . S
C775 C774 1.383 . S
C775 C776 1.394 . S
C776 C775 1.394 . S
C776 C777 1.378 . S
C776 H798 0.931 . S
C777 C772 1.377 . S
C777 C776 1.378 . S
C777 H799 0.931 . S
C778 O788 1.259 . S
C778 O789 1.270 . S
C779 O790 1.251 . S
C779 O791 1.251 . S
O780 C760 1.257 . S
O780 Eu761 2.473 . S
O781 C760 1.260 . S
O781 Eu761 2.480 . S
O782 Eu761 2.430 . S
O782 C768 1.259 . S
O783 Eu761 2.670 . S
O783 C768 1.270 . S
O783 Eu771 2.355 . S
O784 Eu761 2.394 . S
O784 C769 1.251 . S
O785 C769 1.251 . S
O785 Eu771 2.374 . S
O786 C770 1.257 . S
O786 Eu771 2.473 . S
O787 C770 1.260 . S
O787 Eu771 2.480 . S
O788 Eu771 2.430 . S
O788 C778 1.259 . S
O789 Eu761 2.355 . S
O789 Eu771 2.670 . S
O789 C778 1.270 . S
O790 Eu771 2.394 . S
O790 C779 1.251 . S
O791 Eu761 2.374 . S
O791 C779 1.251 . S
H792 C763 0.931 . S
H793 C764 0.931 . S
H794 C766 0.931 . S
H795 C767 0.931 . S
H796 C773 0.931 . S
H797 C774 0.931 . S
H798 C776 0.931 . S
H799 C777 0.931 . S
C800 Eu801 2.835 . S
C800 C802 1.500 . S
C800 O820 1.257 . S
C800 O821 1.260 . S
Eu801 C800 2.835 . S
Eu801 O820 2.473 . S
Eu801 O821 2.480 . S
Eu801 O822 2.430 . S
Eu801 O823 2.670 . S
Eu801 O824 2.394 . S
Eu801 O829 2.355 . S
Eu801 O831 2.374 . S
C802 C800 1.500 . S
C802 C803 1.377 . S
C802 C807 1.377 . S
C803 C802 1.377 . S
C803 C804 1.395 . S
C803 H832 0.931 . S
C804 C803 1.395 . S
C804 C805 1.383 . S
C804 H833 0.931 . S
C805 C804 1.383 . S
C805 C806 1.394 . S
C806 C805 1.394 . S
C806 C807 1.378 . S
C806 H834 0.931 . S
C807 C802 1.377 . S
C807 C806 1.378 . S
C807 H835 0.931 . S
C808 O822 1.259 . S
C808 O823 1.270 . S
C809 O824 1.251 . S
C809 O825 1.251 . S
C810 Eu811 2.835 . S
C810 C812 1.500 . S
C810 O826 1.257 . S
C810 O827 1.260 . S
Eu811 C810 2.835 . S
Eu811 O823 2.355 . S
Eu811 O825 2.374 . S
Eu811 O826 2.473 . S
Eu811 O827 2.480 . S
Eu811 O828 2.430 . S
Eu811 O829 2.670 . S
Eu811 O830 2.394 . S
C812 C810 1.500 . S
C812 C813 1.377 . S
C812 C817 1.377 . S
C813 C812 1.377 . S
C813 C814 1.395 . S
C813 H836 0.931 . S
C814 C813 1.395 . S
C814 C815 1.383 . S
C814 H837 0.931 . S
C815 C814 1.383 . S
C815 C816 1.394 . S
C816 C815 1.394 . S
C816 C817 1.378 . S
C816 H838 0.931 . S
C817 C812 1.377 . S
C817 C816 1.378 . S
C817 H839 0.931 . S
C818 O828 1.259 . S
C818 O829 1.270 . S
C819 O830 1.251 . S
C819 O831 1.251 . S
O820 C800 1.257 . S
O820 Eu801 2.473 . S
O821 C800 1.260 . S
O821 Eu801 2.480 . S
O822 Eu801 2.430 . S
O822 C808 1.259 . S
O823 Eu801 2.670 . S
O823 C808 1.270 . S
O823 Eu811 2.355 . S
O824 Eu801 2.394 . S
O824 C809 1.251 . S
O825 C809 1.251 . S
O825 Eu811 2.374 . S
O826 C810 1.257 . S
O826 Eu811 2.473 . S
O827 C810 1.260 . S
O827 Eu811 2.480 . S
O828 Eu811 2.430 . S
O828 C818 1.259 . S
O829 Eu801 2.355 . S
O829 Eu811 2.670 . S
O829 C818 1.270 . S
O830 Eu811 2.394 . S
O830 C819 1.251 . S
O831 Eu801 2.374 . S
O831 C819 1.251 . S
H832 C803 0.931 . S
H833 C804 0.931 . S
H834 C806 0.931 . S
H835 C807 0.931 . S
H836 C813 0.931 . S
H837 C814 0.931 . S
H838 C816 0.931 . S
H839 C817 0.931 . S
C840 Eu841 2.835 . S
C840 C842 1.500 . S
C840 O860 1.257 . S
C840 O861 1.260 . S
Eu841 C840 2.835 . S
Eu841 O860 2.473 . S
Eu841 O861 2.480 . S
Eu841 O862 2.430 . S
Eu841 O863 2.670 1_556 S
Eu841 O864 2.394 . S
Eu841 O869 2.355 . S
Eu841 O871 2.374 . S
C842 C840 1.500 . S
C842 C843 1.377 . S
C842 C847 1.377 . S
C843 C842 1.377 . S
C843 C844 1.395 . S
C843 H872 0.931 . S
C844 C843 1.395 . S
C844 C845 1.383 . S
C844 H873 0.931 . S
C845 C844 1.383 . S
C845 C846 1.394 . S
C846 C845 1.394 . S
C846 C847 1.378 . S
C846 H874 0.931 . S
C847 C842 1.377 . S
C847 C846 1.378 . S
C847 H875 0.931 . S
C848 O862 1.259 . S
C848 O863 1.270 1_556 S
C849 O864 1.251 . S
C849 O865 1.251 1_556 S
C850 Eu851 2.835 . S
C850 C852 1.500 . S
C850 O866 1.257 . S
C850 O867 1.260 . S
Eu851 C850 2.835 . S
Eu851 O863 2.355 . S
Eu851 O865 2.374 . S
Eu851 O866 2.473 . S
Eu851 O867 2.480 . S
Eu851 O868 2.430 . S
Eu851 O869 2.670 1_554 S
Eu851 O870 2.394 . S
C852 C850 1.500 . S
C852 C853 1.377 . S
C852 C857 1.377 . S
C853 C852 1.377 . S
C853 C854 1.395 . S
C853 H876 0.931 . S
C854 C853 1.395 . S
C854 C855 1.383 . S
C854 H877 0.931 . S
C855 C854 1.383 . S
C855 C856 1.394 . S
C856 C855 1.394 . S
C856 C857 1.378 . S
C856 H878 0.931 . S
C857 C852 1.377 . S
C857 C856 1.378 . S
C857 H879 0.931 . S
C858 O868 1.259 . S
C858 O869 1.270 1_554 S
C859 O870 1.251 . S
C859 O871 1.251 1_554 S
O860 C840 1.257 . S
O860 Eu841 2.473 . S
O861 C840 1.260 . S
O861 Eu841 2.480 . S
O862 Eu841 2.430 . S
O862 C848 1.259 . S
O863 Eu841 2.670 1_554 S
O863 C848 1.270 1_554 S
O863 Eu851 2.355 . S
O864 Eu841 2.394 . S
O864 C849 1.251 . S
O865 C849 1.251 1_554 S
O865 Eu851 2.374 . S
O866 C850 1.257 . S
O866 Eu851 2.473 . S
O867 C850 1.260 . S
O867 Eu851 2.480 . S
O868 Eu851 2.430 . S
O868 C858 1.259 . S
O869 Eu841 2.355 . S
O869 Eu851 2.670 1_556 S
O869 C858 1.270 1_556 S
O870 Eu851 2.394 . S
O870 C859 1.251 . S
O871 Eu841 2.374 . S
O871 C859 1.251 1_556 S
H872 C843 0.931 . S
H873 C844 0.931 . S
H874 C846 0.931 . S
H875 C847 0.931 . S
H876 C853 0.931 . S
H877 C854 0.931 . S
H878 C856 0.931 . S
H879 C857 0.931 . S
C880 Eu881 2.835 . S
C880 C882 1.500 . S
C880 O900 1.257 . S
C880 O901 1.260 . S
Eu881 C880 2.835 . S
Eu881 O900 2.473 . S
Eu881 O901 2.480 . S
Eu881 O902 2.430 . S
Eu881 O903 2.670 1_556 S
Eu881 O904 2.394 . S
Eu881 O909 2.355 . S
Eu881 O911 2.374 . S
C882 C880 1.500 . S
C882 C883 1.377 . S
C882 C887 1.377 . S
C883 C882 1.377 . S
C883 C884 1.395 . S
C883 H912 0.931 . S
C884 C883 1.395 . S
C884 C885 1.383 . S
C884 H913 0.931 . S
C885 C884 1.383 . S
C885 C886 1.394 . S
C886 C885 1.394 . S
C886 C887 1.378 . S
C886 H914 0.931 . S
C887 C882 1.377 . S
C887 C886 1.378 . S
C887 H915 0.931 . S
C888 O902 1.259 . S
C888 O903 1.270 1_556 S
C889 O904 1.251 . S
C889 O905 1.251 1_556 S
C890 Eu891 2.835 . S
C890 C892 1.500 . S
C890 O906 1.257 . S
C890 O907 1.260 . S
Eu891 C890 2.835 . S
Eu891 O903 2.355 . S
Eu891 O905 2.374 . S
Eu891 O906 2.473 . S
Eu891 O907 2.480 . S
Eu891 O908 2.430 . S
Eu891 O909 2.670 1_554 S
Eu891 O910 2.394 . S
C892 C890 1.500 . S
C892 C893 1.377 . S
C892 C897 1.377 . S
C893 C892 1.377 . S
C893 C894 1.395 . S
C893 H916 0.931 . S
C894 C893 1.395 . S
C894 C895 1.383 . S
C894 H917 0.931 . S
C895 C894 1.383 . S
C895 C896 1.394 . S
C896 C895 1.394 . S
C896 C897 1.378 . S
C896 H918 0.931 . S
C897 C892 1.377 . S
C897 C896 1.378 . S
C897 H919 0.931 . S
C898 O908 1.259 . S
C898 O909 1.270 1_554 S
C899 O910 1.251 . S
C899 O911 1.251 1_554 S
O900 C880 1.257 . S
O900 Eu881 2.473 . S
O901 C880 1.260 . S
O901 Eu881 2.480 . S
O902 Eu881 2.430 . S
O902 C888 1.259 . S
O903 Eu881 2.670 1_554 S
O903 C888 1.270 1_554 S
O903 Eu891 2.355 . S
O904 Eu881 2.394 . S
O904 C889 1.251 . S
O905 C889 1.251 1_554 S
O905 Eu891 2.374 . S
O906 C890 1.257 . S
O906 Eu891 2.473 . S
O907 C890 1.260 . S
O907 Eu891 2.480 . S
O908 Eu891 2.430 . S
O908 C898 1.259 . S
O909 Eu881 2.355 . S
O909 Eu891 2.670 1_556 S
O909 C898 1.270 1_556 S
O910 Eu891 2.394 . S
O910 C899 1.251 . S
O911 Eu881 2.374 . S
O911 C899 1.251 1_556 S
H912 C883 0.931 . S
H913 C884 0.931 . S
H914 C886 0.931 . S
H915 C887 0.931 . S
H916 C893 0.931 . S
H917 C894 0.931 . S
H918 C896 0.931 . S
H919 C897 0.931 . S
C920 Eu921 2.835 . S
C920 C922 1.500 . S
C920 O940 1.257 . S
C920 O941 1.260 . S
Eu921 C920 2.835 . S
Eu921 O940 2.473 . S
Eu921 O941 2.480 . S
Eu921 O942 2.430 . S
Eu921 O943 2.670 1_556 S
Eu921 O944 2.394 . S
Eu921 O949 2.355 . S
Eu921 O951 2.374 . S
C922 C920 1.500 . S
C922 C923 1.377 . S
C922 C927 1.377 . S
C923 C922 1.377 . S
C923 C924 1.395 . S
C923 H952 0.931 . S
C924 C923 1.395 . S
C924 C925 1.383 . S
C924 H953 0.931 . S
C925 C924 1.383 . S
C925 C926 1.394 . S
C926 C925 1.394 . S
C926 C927 1.378 . S
C926 H954 0.931 . S
C927 C922 1.377 . S
C927 C926 1.378 . S
C927 H955 0.931 . S
C928 O942 1.259 . S
C928 O943 1.270 1_556 S
C929 O944 1.251 . S
C929 O945 1.251 1_556 S
C930 Eu931 2.835 . S
C930 C932 1.500 . S
C930 O946 1.257 . S
C930 O947 1.260 . S
Eu931 C930 2.835 . S
Eu931 O943 2.355 . S
Eu931 O945 2.374 . S
Eu931 O946 2.473 . S
Eu931 O947 2.480 . S
Eu931 O948 2.430 . S
Eu931 O949 2.670 1_554 S
Eu931 O950 2.394 . S
C932 C930 1.500 . S
C932 C933 1.377 . S
C932 C937 1.377 . S
C933 C932 1.377 . S
C933 C934 1.395 . S
C933 H956 0.931 . S
C934 C933 1.395 . S
C934 C935 1.383 . S
C934 H957 0.931 . S
C935 C934 1.383 . S
C935 C936 1.394 . S
C936 C935 1.394 . S
C936 C937 1.378 . S
C936 H958 0.931 . S
C937 C932 1.377 . S
C937 C936 1.378 . S
C937 H959 0.931 . S
C938 O948 1.259 . S
C938 O949 1.270 1_554 S
C939 O950 1.251 . S
C939 O951 1.251 1_554 S
O940 C920 1.257 . S
O940 Eu921 2.473 . S
O941 C920 1.260 . S
O941 Eu921 2.480 . S
O942 Eu921 2.430 . S
O942 C928 1.259 . S
O943 Eu921 2.670 1_554 S
O943 C928 1.270 1_554 S
O943 Eu931 2.355 . S
O944 Eu921 2.394 . S
O944 C929 1.251 . S
O945 C929 1.251 1_554 S
O945 Eu931 2.374 . S
O946 C930 1.257 . S
O946 Eu931 2.473 . S
O947 C930 1.260 . S
O947 Eu931 2.480 . S
O948 Eu931 2.430 . S
O948 C938 1.259 . S
O949 Eu921 2.355 . S
O949 Eu931 2.670 1_556 S
O949 C938 1.270 1_556 S
O950 Eu931 2.394 . S
O950 C939 1.251 . S
O951 Eu921 2.374 . S
O951 C939 1.251 1_556 S
H952 C923 0.931 . S
H953 C924 0.931 . S
H954 C926 0.931 . S
H955 C927 0.931 . S
H956 C933 0.931 . S
H957 C934 0.931 . S
H958 C936 0.931 . S
H959 C937 0.931 . S
C960 Eu961 2.835 . S
C960 C962 1.500 . S
C960 O980 1.257 . S
C960 O981 1.260 . S
Eu961 C960 2.835 . S
Eu961 O980 2.473 . S
Eu961 O981 2.480 . S
Eu961 O982 2.430 . S
Eu961 O983 2.670 . S
Eu961 O984 2.394 . S
Eu961 O989 2.355 . S
Eu961 O991 2.374 . S
C962 C960 1.500 . S
C962 C963 1.377 . S
C962 C967 1.377 . S
C963 C962 1.377 . S
C963 C964 1.395 . S
C963 H992 0.931 . S
C964 C963 1.395 . S
C964 C965 1.383 . S
C964 H993 0.931 . S
C965 C964 1.383 . S
C965 C966 1.394 . S
C966 C965 1.394 . S
C966 C967 1.378 . S
C966 H994 0.931 . S
C967 C962 1.377 . S
C967 C966 1.378 . S
C967 H995 0.931 . S
C968 O982 1.259 . S
C968 O983 1.270 . S
C969 O984 1.251 . S
C969 O985 1.251 . S
C970 Eu971 2.835 . S
C970 C972 1.500 . S
C970 O986 1.257 . S
C970 O987 1.260 . S
Eu971 C970 2.835 . S
Eu971 O983 2.355 . S
Eu971 O985 2.374 . S
Eu971 O986 2.473 . S
Eu971 O987 2.480 . S
Eu971 O988 2.430 . S
Eu971 O989 2.670 . S
Eu971 O990 2.394 . S
C972 C970 1.500 . S
C972 C973 1.377 . S
C972 C977 1.377 1_565 S
C973 C972 1.377 . S
C973 C974 1.395 . S
C973 H996 0.931 . S
C974 C973 1.395 . S
C974 C975 1.383 1_565 S
C974 H997 0.931 . S
C975 C974 1.383 1_545 S
C975 C976 1.394 . S
C976 C975 1.394 . S
C976 C977 1.378 . S
C976 H998 0.931 . S
C977 C972 1.377 1_545 S
C977 C976 1.378 . S
C977 H999 0.931 . S
C978 O988 1.259 . S
C978 O989 1.270 . S
C979 O990 1.251 . S
C979 O991 1.251 . S
O980 C960 1.257 . S
O980 Eu961 2.473 . S
O981 C960 1.260 . S
O981 Eu961 2.480 . S
O982 Eu961 2.430 . S
O982 C968 1.259 . S
O983 Eu961 2.670 . S
O983 C968 1.270 . S
O983 Eu971 2.355 . S
O984 Eu961 2.394 . S
O984 C969 1.251 . S
O985 C969 1.251 . S
O985 Eu971 2.374 . S
O986 C970 1.257 . S
O986 Eu971 2.473 . S
O987 C970 1.260 . S
O987 Eu971 2.480 . S
O988 Eu971 2.430 . S
O988 C978 1.259 . S
O989 Eu961 2.355 . S
O989 Eu971 2.670 . S
O989 C978 1.270 . S
O990 Eu971 2.394 . S
O990 C979 1.251 . S
O991 Eu961 2.374 . S
O991 C979 1.251 . S
H992 C963 0.931 . S
H993 C964 0.931 . S
H994 C966 0.931 . S
H995 C967 0.931 . S
H996 C973 0.931 . S
H997 C974 0.931 . S
H998 C976 0.931 . S
H999 C977 0.931 . S
C1000 Eu1001 2.835 . S
C1000 C1002 1.500 . S
C1000 O1020 1.257 . S
C1000 O1021 1.260 . S
Eu1001 C1000 2.835 . S
Eu1001 O1020 2.473 . S
Eu1001 O1021 2.480 . S
Eu1001 O1022 2.430 . S
Eu1001 O1023 2.670 . S
Eu1001 O1024 2.394 . S
Eu1001 O1029 2.355 . S
Eu1001 O1031 2.374 . S
C1002 C1000 1.500 . S
C1002 C1003 1.377 . S
C1002 C1007 1.377 . S
C1003 C1002 1.377 . S
C1003 C1004 1.395 . S
C1003 H1032 0.931 . S
C1004 C1003 1.395 . S
C1004 C1005 1.383 . S
C1004 H1033 0.931 . S
C1005 C1004 1.383 . S
C1005 C1006 1.394 . S
C1006 C1005 1.394 . S
C1006 C1007 1.378 . S
C1006 H1034 0.931 . S
C1007 C1002 1.377 . S
C1007 C1006 1.378 . S
C1007 H1035 0.931 . S
C1008 O1022 1.259 . S
C1008 O1023 1.270 . S
C1009 O1024 1.251 . S
C1009 O1025 1.251 . S
C1010 Eu1011 2.835 . S
C1010 C1012 1.500 . S
C1010 O1026 1.257 . S
C1010 O1027 1.260 . S
Eu1011 C1010 2.835 . S
Eu1011 O1023 2.355 . S
Eu1011 O1025 2.374 . S
Eu1011 O1026 2.473 . S
Eu1011 O1027 2.480 . S
Eu1011 O1028 2.430 . S
Eu1011 O1029 2.670 . S
Eu1011 O1030 2.394 . S
C1012 C1010 1.500 . S
C1012 C1013 1.377 . S
C1012 C1017 1.377 1_455 S
C1013 C1012 1.377 . S
C1013 C1014 1.395 . S
C1013 H1036 0.931 . S
C1014 C1013 1.395 . S
C1014 C1015 1.383 1_455 S
C1014 H1037 0.931 . S
C1015 C1014 1.383 1_655 S
C1015 C1016 1.394 . S
C1016 C1015 1.394 . S
C1016 C1017 1.378 . S
C1016 H1038 0.931 . S
C1017 C1012 1.377 1_655 S
C1017 C1016 1.378 . S
C1017 H1039 0.931 . S
C1018 O1028 1.259 . S
C1018 O1029 1.270 . S
C1019 O1030 1.251 . S
C1019 O1031 1.251 . S
O1020 C1000 1.257 . S
O1020 Eu1001 2.473 . S
O1021 C1000 1.260 . S
O1021 Eu1001 2.480 . S
O1022 Eu1001 2.430 . S
O1022 C1008 1.259 . S
O1023 Eu1001 2.670 . S
O1023 C1008 1.270 . S
O1023 Eu1011 2.355 . S
O1024 Eu1001 2.394 . S
O1024 C1009 1.251 . S
O1025 C1009 1.251 . S
O1025 Eu1011 2.374 . S
O1026 C1010 1.257 . S
O1026 Eu1011 2.473 . S
O1027 C1010 1.260 . S
O1027 Eu1011 2.480 . S
O1028 Eu1011 2.430 . S
O1028 C1018 1.259 . S
O1029 Eu1001 2.355 . S
O1029 Eu1011 2.670 . S
O1029 C1018 1.270 . S
O1030 Eu1011 2.394 . S
O1030 C1019 1.251 . S
O1031 Eu1001 2.374 . S
O1031 C1019 1.251 . S
H1032 C1003 0.931 . S
H1033 C1004 0.931 . S
H1034 C1006 0.931 . S
H1035 C1007 0.931 . S
H1036 C1013 0.931 . S
H1037 C1014 0.931 . S
H1038 C1016 0.931 . S
H1039 C1017 0.931 . S
C1040 Eu1041 2.835 . S
C1040 C1042 1.500 . S
C1040 O1060 1.257 . S
C1040 O1061 1.260 . S
Eu1041 C1040 2.835 . S
Eu1041 O1060 2.473 . S
Eu1041 O1061 2.480 . S
Eu1041 O1062 2.430 . S
Eu1041 O1063 2.670 . S
Eu1041 O1064 2.394 . S
Eu1041 O1069 2.355 . S
Eu1041 O1071 2.374 . S
C1042 C1040 1.500 . S
C1042 C1043 1.377 . S
C1042 C1047 1.377 . S
C1043 C1042 1.377 . S
C1043 C1044 1.395 . S
C1043 H1072 0.931 . S
C1044 C1043 1.395 . S
C1044 C1045 1.383 . S
C1044 H1073 0.931 . S
C1045 C1044 1.383 . S
C1045 C1046 1.394 . S
C1046 C1045 1.394 . S
C1046 C1047 1.378 . S
C1046 H1074 0.931 . S
C1047 C1042 1.377 . S
C1047 C1046 1.378 . S
C1047 H1075 0.931 . S
C1048 O1062 1.259 . S
C1048 O1063 1.270 . S
C1049 O1064 1.251 . S
C1049 O1065 1.251 . S
C1050 Eu1051 2.835 . S
C1050 C1052 1.500 . S
C1050 O1066 1.257 . S
C1050 O1067 1.260 . S
Eu1051 C1050 2.835 . S
Eu1051 O1063 2.355 . S
Eu1051 O1065 2.374 . S
Eu1051 O1066 2.473 . S
Eu1051 O1067 2.480 . S
Eu1051 O1068 2.430 . S
Eu1051 O1069 2.670 . S
Eu1051 O1070 2.394 . S
C1052 C1050 1.500 . S
C1052 C1053 1.377 . S
C1052 C1057 1.377 . S
C1053 C1052 1.377 . S
C1053 C1054 1.395 . S
C1053 H1076 0.931 . S
C1054 C1053 1.395 . S
C1054 C1055 1.383 . S
C1054 H1077 0.931 . S
C1055 C1054 1.383 . S
C1055 C1056 1.394 . S
C1056 C1055 1.394 . S
C1056 C1057 1.378 . S
C1056 H1078 0.931 . S
C1057 C1052 1.377 . S
C1057 C1056 1.378 . S
C1057 H1079 0.931 . S
C1058 O1068 1.259 . S
C1058 O1069 1.270 . S
C1059 O1070 1.251 . S
C1059 O1071 1.251 . S
O1060 C1040 1.257 . S
O1060 Eu1041 2.473 . S
O1061 C1040 1.260 . S
O1061 Eu1041 2.480 . S
O1062 Eu1041 2.430 . S
O1062 C1048 1.259 . S
O1063 Eu1041 2.670 . S
O1063 C1048 1.270 . S
O1063 Eu1051 2.355 . S
O1064 Eu1041 2.394 . S
O1064 C1049 1.251 . S
O1065 C1049 1.251 . S
O1065 Eu1051 2.374 . S
O1066 C1050 1.257 . S
O1066 Eu1051 2.473 . S
O1067 C1050 1.260 . S
O1067 Eu1051 2.480 . S
O1068 Eu1051 2.430 . S
O1068 C1058 1.259 . S
O1069 Eu1041 2.355 . S
O1069 Eu1051 2.670 . S
O1069 C1058 1.270 . S
O1070 Eu1051 2.394 . S
O1070 C1059 1.251 . S
O1071 Eu1041 2.374 . S
O1071 C1059 1.251 . S
H1072 C1043 0.931 . S
H1073 C1044 0.931 . S
H1074 C1046 0.931 . S
H1075 C1047 0.931 . S
H1076 C1053 0.931 . S
H1077 C1054 0.931 . S
H1078 C1056 0.931 . S
H1079 C1057 0.931 . S
C1080 Eu1081 2.835 . S
C1080 C1082 1.500 . S
C1080 O1100 1.257 . S
C1080 O1101 1.260 . S
Eu1081 C1080 2.835 . S
Eu1081 O1100 2.473 . S
Eu1081 O1101 2.480 . S
Eu1081 O1102 2.430 . S
Eu1081 O1103 2.670 1_556 S
Eu1081 O1104 2.394 . S
Eu1081 O1109 2.355 . S
Eu1081 O1111 2.374 . S
C1082 C1080 1.500 . S
C1082 C1083 1.377 . S
C1082 C1087 1.377 . S
C1083 C1082 1.377 . S
C1083 C1084 1.395 . S
C1083 H1112 0.931 . S
C1084 C1083 1.395 . S
C1084 C1085 1.383 . S
C1084 H1113 0.931 . S
C1085 C1084 1.383 . S
C1085 C1086 1.394 . S
C1086 C1085 1.394 . S
C1086 C1087 1.378 . S
C1086 H1114 0.931 . S
C1087 C1082 1.377 . S
C1087 C1086 1.378 . S
C1087 H1115 0.931 . S
C1088 O1102 1.259 . S
C1088 O1103 1.270 1_556 S
C1089 O1104 1.251 . S
C1089 O1105 1.251 1_556 S
C1090 Eu1091 2.835 . S
C1090 C1092 1.500 . S
C1090 O1106 1.257 . S
C1090 O1107 1.260 . S
Eu1091 C1090 2.835 . S
Eu1091 O1103 2.355 . S
Eu1091 O1105 2.374 . S
Eu1091 O1106 2.473 . S
Eu1091 O1107 2.480 . S
Eu1091 O1108 2.430 . S
Eu1091 O1109 2.670 1_554 S
Eu1091 O1110 2.394 . S
C1092 C1090 1.500 . S
C1092 C1093 1.377 . S
C1092 C1097 1.377 . S
C1093 C1092 1.377 . S
C1093 C1094 1.395 . S
C1093 H1116 0.931 . S
C1094 C1093 1.395 . S
C1094 C1095 1.383 . S
C1094 H1117 0.931 . S
C1095 C1094 1.383 . S
C1095 C1096 1.394 . S
C1096 C1095 1.394 . S
C1096 C1097 1.378 . S
C1096 H1118 0.931 . S
C1097 C1092 1.377 . S
C1097 C1096 1.378 . S
C1097 H1119 0.931 . S
C1098 O1108 1.259 . S
C1098 O1109 1.270 1_554 S
C1099 O1110 1.251 . S
C1099 O1111 1.251 1_554 S
O1100 C1080 1.257 . S
O1100 Eu1081 2.473 . S
O1101 C1080 1.260 . S
O1101 Eu1081 2.480 . S
O1102 Eu1081 2.430 . S
O1102 C1088 1.259 . S
O1103 Eu1081 2.670 1_554 S
O1103 C1088 1.270 1_554 S
O1103 Eu1091 2.355 . S
O1104 Eu1081 2.394 . S
O1104 C1089 1.251 . S
O1105 C1089 1.251 1_554 S
O1105 Eu1091 2.374 . S
O1106 C1090 1.257 . S
O1106 Eu1091 2.473 . S
O1107 C1090 1.260 . S
O1107 Eu1091 2.480 . S
O1108 Eu1091 2.430 . S
O1108 C1098 1.259 . S
O1109 Eu1081 2.355 . S
O1109 Eu1091 2.670 1_556 S
O1109 C1098 1.270 1_556 S
O1110 Eu1091 2.394 . S
O1110 C1099 1.251 . S
O1111 Eu1081 2.374 . S
O1111 C1099 1.251 1_556 S
H1112 C1083 0.931 . S
H1113 C1084 0.931 . S
H1114 C1086 0.931 . S
H1115 C1087 0.931 . S
H1116 C1093 0.931 . S
H1117 C1094 0.931 . S
H1118 C1096 0.931 . S
H1119 C1097 0.931 . S
C1120 Eu1121 2.835 . S
C1120 C1122 1.500 . S
C1120 O1140 1.257 . S
C1120 O1141 1.260 . S
Eu1121 C1120 2.835 . S
Eu1121 O1140 2.473 . S
Eu1121 O1141 2.480 . S
Eu1121 O1142 2.430 . S
Eu1121 O1143 2.670 1_556 S
Eu1121 O1144 2.394 . S
Eu1121 O1149 2.355 . S
Eu1121 O1151 2.374 . S
C1122 C1120 1.500 . S
C1122 C1123 1.377 . S
C1122 C1127 1.377 . S
C1123 C1122 1.377 . S
C1123 C1124 1.395 . S
C1123 H1152 0.931 . S
C1124 C1123 1.395 . S
C1124 C1125 1.383 . S
C1124 H1153 0.931 . S
C1125 C1124 1.383 . S
C1125 C1126 1.394 . S
C1126 C1125 1.394 . S
C1126 C1127 1.378 . S
C1126 H1154 0.931 . S
C1127 C1122 1.377 . S
C1127 C1126 1.378 . S
C1127 H1155 0.931 . S
C1128 O1142 1.259 . S
C1128 O1143 1.270 1_556 S
C1129 O1144 1.251 . S
C1129 O1145 1.251 1_556 S
C1130 Eu1131 2.835 . S
C1130 C1132 1.500 . S
C1130 O1146 1.257 . S
C1130 O1147 1.260 . S
Eu1131 C1130 2.835 . S
Eu1131 O1143 2.355 . S
Eu1131 O1145 2.374 . S
Eu1131 O1146 2.473 . S
Eu1131 O1147 2.480 . S
Eu1131 O1148 2.430 . S
Eu1131 O1149 2.670 1_554 S
Eu1131 O1150 2.394 . S
C1132 C1130 1.500 . S
C1132 C1133 1.377 . S
C1132 C1137 1.377 . S
C1133 C1132 1.377 . S
C1133 C1134 1.395 . S
C1133 H1156 0.931 . S
C1134 C1133 1.395 . S
C1134 C1135 1.383 . S
C1134 H1157 0.931 . S
C1135 C1134 1.383 . S
C1135 C1136 1.394 . S
C1136 C1135 1.394 . S
C1136 C1137 1.378 . S
C1136 H1158 0.931 . S
C1137 C1132 1.377 . S
C1137 C1136 1.378 . S
C1137 H1159 0.931 . S
C1138 O1148 1.259 . S
C1138 O1149 1.270 1_554 S
C1139 O1150 1.251 . S
C1139 O1151 1.251 1_554 S
O1140 C1120 1.257 . S
O1140 Eu1121 2.473 . S
O1141 C1120 1.260 . S
O1141 Eu1121 2.480 . S
O1142 Eu1121 2.430 . S
O1142 C1128 1.259 . S
O1143 Eu1121 2.670 1_554 S
O1143 C1128 1.270 1_554 S
O1143 Eu1131 2.355 . S
O1144 Eu1121 2.394 . S
O1144 C1129 1.251 . S
O1145 C1129 1.251 1_554 S
O1145 Eu1131 2.374 . S
O1146 C1130 1.257 . S
O1146 Eu1131 2.473 . S
O1147 C1130 1.260 . S
O1147 Eu1131 2.480 . S
O1148 Eu1131 2.430 . S
O1148 C1138 1.259 . S
O1149 Eu1121 2.355 . S
O1149 Eu1131 2.670 1_556 S
O1149 C1138 1.270 1_556 S
O1150 Eu1131 2.394 . S
O1150 C1139 1.251 . S
O1151 Eu1121 2.374 . S
O1151 C1139 1.251 1_556 S
H1152 C1123 0.931 . S
H1153 C1124 0.931 . S
H1154 C1126 0.931 . S
H1155 C1127 0.931 . S
H1156 C1133 0.931 . S
H1157 C1134 0.931 . S
H1158 C1136 0.931 . S
H1159 C1137 0.931 . S
C1160 Eu1161 2.835 . S
C1160 C1162 1.500 . S
C1160 O1180 1.257 . S
C1160 O1181 1.260 . S
Eu1161 C1160 2.835 . S
Eu1161 O1180 2.473 . S
Eu1161 O1181 2.480 . S
Eu1161 O1182 2.430 . S
Eu1161 O1183 2.670 1_556 S
Eu1161 O1184 2.394 . S
Eu1161 O1189 2.355 . S
Eu1161 O1191 2.374 . S
C1162 C1160 1.500 . S
C1162 C1163 1.377 . S
C1162 C1167 1.377 . S
C1163 C1162 1.377 . S
C1163 C1164 1.395 . S
C1163 H1192 0.931 . S
C1164 C1163 1.395 . S
C1164 C1165 1.383 . S
C1164 H1193 0.931 . S
C1165 C1164 1.383 . S
C1165 C1166 1.394 . S
C1166 C1165 1.394 . S
C1166 C1167 1.378 . S
C1166 H1194 0.931 . S
C1167 C1162 1.377 . S
C1167 C1166 1.378 . S
C1167 H1195 0.931 . S
C1168 O1182 1.259 . S
C1168 O1183 1.270 1_556 S
C1169 O1184 1.251 . S
C1169 O1185 1.251 1_556 S
C1170 Eu1171 2.835 . S
C1170 C1172 1.500 . S
C1170 O1186 1.257 . S
C1170 O1187 1.260 . S
Eu1171 C1170 2.835 . S
Eu1171 O1183 2.355 . S
Eu1171 O1185 2.374 . S
Eu1171 O1186 2.473 . S
Eu1171 O1187 2.480 . S
Eu1171 O1188 2.430 . S
Eu1171 O1189 2.670 1_554 S
Eu1171 O1190 2.394 . S
C1172 C1170 1.500 . S
C1172 C1173 1.377 . S
C1172 C1177 1.377 . S
C1173 C1172 1.377 . S
C1173 C1174 1.395 . S
C1173 H1196 0.931 . S
C1174 C1173 1.395 . S
C1174 C1175 1.383 . S
C1174 H1197 0.931 . S
C1175 C1174 1.383 . S
C1175 C1176 1.394 . S
C1176 C1175 1.394 . S
C1176 C1177 1.378 . S
C1176 H1198 0.931 . S
C1177 C1172 1.377 . S
C1177 C1176 1.378 . S
C1177 H1199 0.931 . S
C1178 O1188 1.259 . S
C1178 O1189 1.270 1_554 S
C1179 O1190 1.251 . S
C1179 O1191 1.251 1_554 S
O1180 C1160 1.257 . S
O1180 Eu1161 2.473 . S
O1181 C1160 1.260 . S
O1181 Eu1161 2.480 . S
O1182 Eu1161 2.430 . S
O1182 C1168 1.259 . S
O1183 Eu1161 2.670 1_554 S
O1183 C1168 1.270 1_554 S
O1183 Eu1171 2.355 . S
O1184 Eu1161 2.394 . S
O1184 C1169 1.251 . S
O1185 C1169 1.251 1_554 S
O1185 Eu1171 2.374 . S
O1186 C1170 1.257 . S
O1186 Eu1171 2.473 . S
O1187 C1170 1.260 . S
O1187 Eu1171 2.480 . S
O1188 Eu1171 2.430 . S
O1188 C1178 1.259 . S
O1189 Eu1161 2.355 . S
O1189 Eu1171 2.670 1_556 S
O1189 C1178 1.270 1_556 S
O1190 Eu1171 2.394 . S
O1190 C1179 1.251 . S
O1191 Eu1161 2.374 . S
O1191 C1179 1.251 1_556 S
H1192 C1163 0.931 . S
H1193 C1164 0.931 . S
H1194 C1166 0.931 . S
H1195 C1167 0.931 . S
H1196 C1173 0.931 . S
H1197 C1174 0.931 . S
H1198 C1176 0.931 . S
H1199 C1177 0.931 . S
C1200 Eu1201 2.835 . S
C1200 C1202 1.500 . S
C1200 O1220 1.257 . S
C1200 O1221 1.260 . S
Eu1201 C1200 2.835 . S
Eu1201 O1220 2.473 . S
Eu1201 O1221 2.480 . S
Eu1201 O1222 2.430 . S
Eu1201 O1223 2.670 . S
Eu1201 O1224 2.394 . S
Eu1201 O1229 2.355 . S
Eu1201 O1231 2.374 . S
C1202 C1200 1.500 . S
C1202 C1203 1.377 . S
C1202 C1207 1.377 . S
C1203 C1202 1.377 . S
C1203 C1204 1.395 . S
C1203 H1232 0.931 . S
C1204 C1203 1.395 . S
C1204 C1205 1.383 . S
C1204 H1233 0.931 . S
C1205 C1204 1.383 . S
C1205 C1206 1.394 . S
C1206 C1205 1.394 . S
C1206 C1207 1.378 . S
C1206 H1234 0.931 . S
C1207 C1202 1.377 . S
C1207 C1206 1.378 . S
C1207 H1235 0.931 . S
C1208 O1222 1.259 . S
C1208 O1223 1.270 . S
C1209 O1224 1.251 . S
C1209 O1225 1.251 . S
C1210 Eu1211 2.835 . S
C1210 C1212 1.500 . S
C1210 O1226 1.257 . S
C1210 O1227 1.260 . S
Eu1211 C1210 2.835 . S
Eu1211 O1223 2.355 . S
Eu1211 O1225 2.374 . S
Eu1211 O1226 2.473 . S
Eu1211 O1227 2.480 . S
Eu1211 O1228 2.430 . S
Eu1211 O1229 2.670 . S
Eu1211 O1230 2.394 . S
C1212 C1210 1.500 . S
C1212 C1213 1.377 . S
C1212 C1217 1.377 . S
C1213 C1212 1.377 . S
C1213 C1214 1.395 . S
C1213 H1236 0.931 . S
C1214 C1213 1.395 . S
C1214 C1215 1.383 . S
C1214 H1237 0.931 . S
C1215 C1214 1.383 . S
C1215 C1216 1.394 . S
C1216 C1215 1.394 . S
C1216 C1217 1.378 . S
C1216 H1238 0.931 . S
C1217 C1212 1.377 . S
C1217 C1216 1.378 . S
C1217 H1239 0.931 . S
C1218 O1228 1.259 . S
C1218 O1229 1.270 . S
C1219 O1230 1.251 . S
C1219 O1231 1.251 . S
O1220 C1200 1.257 . S
O1220 Eu1201 2.473 . S
O1221 C1200 1.260 . S
O1221 Eu1201 2.480 . S
O1222 Eu1201 2.430 . S
O1222 C1208 1.259 . S
O1223 Eu1201 2.670 . S
O1223 C1208 1.270 . S
O1223 Eu1211 2.355 . S
O1224 Eu1201 2.394 . S
O1224 C1209 1.251 . S
O1225 C1209 1.251 . S
O1225 Eu1211 2.374 . S
O1226 C1210 1.257 . S
O1226 Eu1211 2.473 . S
O1227 C1210 1.260 . S
O1227 Eu1211 2.480 . S
O1228 Eu1211 2.430 . S
O1228 C1218 1.259 . S
O1229 Eu1201 2.355 . S
O1229 Eu1211 2.670 . S
O1229 C1218 1.270 . S
O1230 Eu1211 2.394 . S
O1230 C1219 1.251 . S
O1231 Eu1201 2.374 . S
O1231 C1219 1.251 . S
H1232 C1203 0.931 . S
H1233 C1204 0.931 . S
H1234 C1206 0.931 . S
H1235 C1207 0.931 . S
H1236 C1213 0.931 . S
H1237 C1214 0.931 . S
H1238 C1216 0.931 . S
H1239 C1217 0.931 . S
C1240 Eu1241 2.835 . S
C1240 C1242 1.500 . S
C1240 O1260 1.257 . S
C1240 O1261 1.260 . S
Eu1241 C1240 2.835 . S
Eu1241 O1260 2.473 . S
Eu1241 O1261 2.480 . S
Eu1241 O1262 2.430 . S
Eu1241 O1263 2.670 . S
Eu1241 O1264 2.394 . S
Eu1241 O1269 2.355 . S
Eu1241 O1271 2.374 . S
C1242 C1240 1.500 . S
C1242 C1243 1.377 . S
C1242 C1247 1.377 . S
C1243 C1242 1.377 . S
C1243 C1244 1.395 . S
C1243 H1272 0.931 . S
C1244 C1243 1.395 . S
C1244 C1245 1.383 . S
C1244 H1273 0.931 . S
C1245 C1244 1.383 . S
C1245 C1246 1.394 . S
C1246 C1245 1.394 . S
C1246 C1247 1.378 . S
C1246 H1274 0.931 . S
C1247 C1242 1.377 . S
C1247 C1246 1.378 . S
C1247 H1275 0.931 . S
C1248 O1262 1.259 . S
C1248 O1263 1.270 . S
C1249 O1264 1.251 . S
C1249 O1265 1.251 . S
C1250 Eu1251 2.835 . S
C1250 C1252 1.500 . S
C1250 O1266 1.257 . S
C1250 O1267 1.260 . S
Eu1251 C1250 2.835 . S
Eu1251 O1263 2.355 . S
Eu1251 O1265 2.374 . S
Eu1251 O1266 2.473 . S
Eu1251 O1267 2.480 . S
Eu1251 O1268 2.430 . S
Eu1251 O1269 2.670 . S
Eu1251 O1270 2.394 . S
C1252 C1250 1.500 . S
C1252 C1253 1.377 . S
C1252 C1257 1.377 . S
C1253 C1252 1.377 . S
C1253 C1254 1.395 . S
C1253 H1276 0.931 . S
C1254 C1253 1.395 . S
C1254 C1255 1.383 . S
C1254 H1277 0.931 . S
C1255 C1254 1.383 . S
C1255 C1256 1.394 . S
C1256 C1255 1.394 . S
C1256 C1257 1.378 . S
C1256 H1278 0.931 . S
C1257 C1252 1.377 . S
C1257 C1256 1.378 . S
C1257 H1279 0.931 . S
C1258 O1268 1.259 . S
C1258 O1269 1.270 . S
C1259 O1270 1.251 . S
C1259 O1271 1.251 . S
O1260 C1240 1.257 . S
O1260 Eu1241 2.473 . S
O1261 C1240 1.260 . S
O1261 Eu1241 2.480 . S
O1262 Eu1241 2.430 . S
O1262 C1248 1.259 . S
O1263 Eu1241 2.670 . S
O1263 C1248 1.270 . S
O1263 Eu1251 2.355 . S
O1264 Eu1241 2.394 . S
O1264 C1249 1.251 . S
O1265 C1249 1.251 . S
O1265 Eu1251 2.374 . S
O1266 C1250 1.257 . S
O1266 Eu1251 2.473 . S
O1267 C1250 1.260 . S
O1267 Eu1251 2.480 . S
O1268 Eu1251 2.430 . S
O1268 C1258 1.259 . S
O1269 Eu1241 2.355 . S
O1269 Eu1251 2.670 . S
O1269 C1258 1.270 . S
O1270 Eu1251 2.394 . S
O1270 C1259 1.251 . S
O1271 Eu1241 2.374 . S
O1271 C1259 1.251 . S
H1272 C1243 0.931 . S
H1273 C1244 0.931 . S
H1274 C1246 0.931 . S
H1275 C1247 0.931 . S
H1276 C1253 0.931 . S
H1277 C1254 0.931 . S
H1278 C1256 0.931 . S
H1279 C1257 0.931 . S
C1280 Eu1281 2.835 . S
C1280 C1282 1.500 . S
C1280 O1300 1.257 . S
C1280 O1301 1.260 . S
Eu1281 C1280 2.835 . S
Eu1281 O1300 2.473 . S
Eu1281 O1301 2.480 . S
Eu1281 O1302 2.430 . S
Eu1281 O1303 2.670 . S
Eu1281 O1304 2.394 . S
Eu1281 O1309 2.355 . S
Eu1281 O1311 2.374 . S
C1282 C1280 1.500 . S
C1282 C1283 1.377 . S
C1282 C1287 1.377 . S
C1283 C1282 1.377 . S
C1283 C1284 1.395 . S
C1283 H1312 0.931 . S
C1284 C1283 1.395 . S
C1284 C1285 1.383 . S
C1284 H1313 0.931 . S
C1285 C1284 1.383 . S
C1285 C1286 1.394 . S
C1286 C1285 1.394 . S
C1286 C1287 1.378 . S
C1286 H1314 0.931 . S
C1287 C1282 1.377 . S
C1287 C1286 1.378 . S
C1287 H1315 0.931 . S
C1288 O1302 1.259 . S
C1288 O1303 1.270 . S
C1289 O1304 1.251 . S
C1289 O1305 1.251 . S
C1290 Eu1291 2.835 . S
C1290 C1292 1.500 . S
C1290 O1306 1.257 . S
C1290 O1307 1.260 . S
Eu1291 C1290 2.835 . S
Eu1291 O1303 2.355 . S
Eu1291 O1305 2.374 . S
Eu1291 O1306 2.473 . S
Eu1291 O1307 2.480 . S
Eu1291 O1308 2.430 . S
Eu1291 O1309 2.670 . S
Eu1291 O1310 2.394 . S
C1292 C1290 1.500 . S
C1292 C1293 1.377 . S
C1292 C1297 1.377 . S
C1293 C1292 1.377 . S
C1293 C1294 1.395 . S
C1293 H1316 0.931 . S
C1294 C1293 1.395 . S
C1294 C1295 1.383 . S
C1294 H1317 0.931 . S
C1295 C1294 1.383 . S
C1295 C1296 1.394 . S
C1296 C1295 1.394 . S
C1296 C1297 1.378 . S
C1296 H1318 0.931 . S
C1297 C1292 1.377 . S
C1297 C1296 1.378 . S
C1297 H1319 0.931 . S
C1298 O1308 1.259 . S
C1298 O1309 1.270 . S
C1299 O1310 1.251 . S
C1299 O1311 1.251 . S
O1300 C1280 1.257 . S
O1300 Eu1281 2.473 . S
O1301 C1280 1.260 . S
O1301 Eu1281 2.480 . S
O1302 Eu1281 2.430 . S
O1302 C1288 1.259 . S
O1303 Eu1281 2.670 . S
O1303 C1288 1.270 . S
O1303 Eu1291 2.355 . S
O1304 Eu1281 2.394 . S
O1304 C1289 1.251 . S
O1305 C1289 1.251 . S
O1305 Eu1291 2.374 . S
O1306 C1290 1.257 . S
O1306 Eu1291 2.473 . S
O1307 C1290 1.260 . S
O1307 Eu1291 2.480 . S
O1308 Eu1291 2.430 . S
O1308 C1298 1.259 . S
O1309 Eu1281 2.355 . S
O1309 Eu1291 2.670 . S
O1309 C1298 1.270 . S
O1310 Eu1291 2.394 . S
O1310 C1299 1.251 . S
O1311 Eu1281 2.374 . S
O1311 C1299 1.251 . S
H1312 C1283 0.931 . S
H1313 C1284 0.931 . S
H1314 C1286 0.931 . S
H1315 C1287 0.931 . S
H1316 C1293 0.931 . S
H1317 C1294 0.931 . S
H1318 C1296 0.931 . S
H1319 C1297 0.931 . S
C1320 Eu1321 2.835 . S
C1320 C1322 1.500 . S
C1320 O1340 1.257 . S
C1320 O1341 1.260 . S
Eu1321 C1320 2.835 . S
Eu1321 O1340 2.473 . S
Eu1321 O1341 2.480 . S
Eu1321 O1342 2.430 . S
Eu1321 O1343 2.670 . S
Eu1321 O1344 2.394 . S
Eu1321 O1349 2.355 . S
Eu1321 O1351 2.374 . S
C1322 C1320 1.500 . S
C1322 C1323 1.377 . S
C1322 C1327 1.377 1_455 S
C1323 C1322 1.377 . S
C1323 C1324 1.395 . S
C1323 H1352 0.931 . S
C1324 C1323 1.395 . S
C1324 C1325 1.383 1_455 S
C1324 H1353 0.931 . S
C1325 C1324 1.383 1_655 S
C1325 C1326 1.394 . S
C1326 C1325 1.394 . S
C1326 C1327 1.378 . S
C1326 H1354 0.931 . S
C1327 C1322 1.377 1_655 S
C1327 C1326 1.378 . S
C1327 H1355 0.931 . S
C1328 O1342 1.259 . S
C1328 O1343 1.270 . S
C1329 O1344 1.251 . S
C1329 O1345 1.251 . S
C1330 Eu1331 2.835 . S
C1330 C1332 1.500 . S
C1330 O1346 1.257 . S
C1330 O1347 1.260 . S
Eu1331 C1330 2.835 . S
Eu1331 O1343 2.355 . S
Eu1331 O1345 2.374 . S
Eu1331 O1346 2.473 . S
Eu1331 O1347 2.480 . S
Eu1331 O1348 2.430 . S
Eu1331 O1349 2.670 . S
Eu1331 O1350 2.394 . S
C1332 C1330 1.500 . S
C1332 C1333 1.377 . S
C1332 C1337 1.377 . S
C1333 C1332 1.377 . S
C1333 C1334 1.395 . S
C1333 H1356 0.931 . S
C1334 C1333 1.395 . S
C1334 C1335 1.383 . S
C1334 H1357 0.931 . S
C1335 C1334 1.383 . S
C1335 C1336 1.394 . S
C1336 C1335 1.394 . S
C1336 C1337 1.378 . S
C1336 H1358 0.931 . S
C1337 C1332 1.377 . S
C1337 C1336 1.378 . S
C1337 H1359 0.931 . S
C1338 O1348 1.259 . S
C1338 O1349 1.270 . S
C1339 O1350 1.251 . S
C1339 O1351 1.251 . S
O1340 C1320 1.257 . S
O1340 Eu1321 2.473 . S
O1341 C1320 1.260 . S
O1341 Eu1321 2.480 . S
O1342 Eu1321 2.430 . S
O1342 C1328 1.259 . S
O1343 Eu1321 2.670 . S
O1343 C1328 1.270 . S
O1343 Eu1331 2.355 . S
O1344 Eu1321 2.394 . S
O1344 C1329 1.251 . S
O1345 C1329 1.251 . S
O1345 Eu1331 2.374 . S
O1346 C1330 1.257 . S
O1346 Eu1331 2.473 . S
O1347 C1330 1.260 . S
O1347 Eu1331 2.480 . S
O1348 Eu1331 2.430 . S
O1348 C1338 1.259 . S
O1349 Eu1321 2.355 . S
O1349 Eu1331 2.670 . S
O1349 C1338 1.270 . S
O1350 Eu1331 2.394 . S
O1350 C1339 1.251 . S
O1351 Eu1321 2.374 . S
O1351 C1339 1.251 . S
H1352 C1323 0.931 . S
H1353 C1324 0.931 . S
H1354 C1326 0.931 . S
H1355 C1327 0.931 . S
H1356 C1333 0.931 . S
H1357 C1334 0.931 . S
H1358 C1336 0.931 . S
H1359 C1337 0.931 . S
C1360 Eu1361 2.835 . S
C1360 C1362 1.500 . S
C1360 O1380 1.257 . S
C1360 O1381 1.260 . S
Eu1361 C1360 2.835 . S
Eu1361 O1380 2.473 . S
Eu1361 O1381 2.480 . S
Eu1361 O1382 2.430 . S
Eu1361 O1383 2.670 . S
Eu1361 O1384 2.394 . S
Eu1361 O1389 2.355 . S
Eu1361 O1391 2.374 . S
C1362 C1360 1.500 . S
C1362 C1363 1.377 . S
C1362 C1367 1.377 . S
C1363 C1362 1.377 . S
C1363 C1364 1.395 . S
C1363 H1392 0.931 . S
C1364 C1363 1.395 . S
C1364 C1365 1.383 . S
C1364 H1393 0.931 . S
C1365 C1364 1.383 . S
C1365 C1366 1.394 . S
C1366 C1365 1.394 . S
C1366 C1367 1.378 . S
C1366 H1394 0.931 . S
C1367 C1362 1.377 . S
C1367 C1366 1.378 . S
C1367 H1395 0.931 . S
C1368 O1382 1.259 . S
C1368 O1383 1.270 . S
C1369 O1384 1.251 . S
C1369 O1385 1.251 . S
C1370 Eu1371 2.835 . S
C1370 C1372 1.500 . S
C1370 O1386 1.257 . S
C1370 O1387 1.260 . S
Eu1371 C1370 2.835 . S
Eu1371 O1383 2.355 . S
Eu1371 O1385 2.374 . S
Eu1371 O1386 2.473 . S
Eu1371 O1387 2.480 . S
Eu1371 O1388 2.430 . S
Eu1371 O1389 2.670 . S
Eu1371 O1390 2.394 . S
C1372 C1370 1.500 . S
C1372 C1373 1.377 . S
C1372 C1377 1.377 . S
C1373 C1372 1.377 . S
C1373 C1374 1.395 . S
C1373 H1396 0.931 . S
C1374 C1373 1.395 . S
C1374 C1375 1.383 . S
C1374 H1397 0.931 . S
C1375 C1374 1.383 . S
C1375 C1376 1.394 . S
C1376 C1375 1.394 . S
C1376 C1377 1.378 . S
C1376 H1398 0.931 . S
C1377 C1372 1.377 . S
C1377 C1376 1.378 . S
C1377 H1399 0.931 . S
C1378 O1388 1.259 . S
C1378 O1389 1.270 . S
C1379 O1390 1.251 . S
C1379 O1391 1.251 . S
O1380 C1360 1.257 . S
O1380 Eu1361 2.473 . S
O1381 C1360 1.260 . S
O1381 Eu1361 2.480 . S
O1382 Eu1361 2.430 . S
O1382 C1368 1.259 . S
O1383 Eu1361 2.670 . S
O1383 C1368 1.270 . S
O1383 Eu1371 2.355 . S
O1384 Eu1361 2.394 . S
O1384 C1369 1.251 . S
O1385 C1369 1.251 . S
O1385 Eu1371 2.374 . S
O1386 C1370 1.257 . S
O1386 Eu1371 2.473 . S
O1387 C1370 1.260 . S
O1387 Eu1371 2.480 . S
O1388 Eu1371 2.430 . S
O1388 C1378 1.259 . S
O1389 Eu1361 2.355 . S
O1389 Eu1371 2.670 . S
O1389 C1378 1.270 . S
O1390 Eu1371 2.394 . S
O1390 C1379 1.251 . S
O1391 Eu1361 2.374 . S
O1391 C1379 1.251 . S
H1392 C1363 0.931 . S
H1393 C1364 0.931 . S
H1394 C1366 0.931 . S
H1395 C1367 0.931 . S
H1396 C1373 0.931 . S
H1397 C1374 0.931 . S
H1398 C1376 0.931 . S
H1399 C1377 0.931 . S
C1400 Eu1401 2.835 . S
C1400 C1402 1.500 . S
C1400 O1420 1.257 . S
C1400 O1421 1.260 . S
Eu1401 C1400 2.835 . S
Eu1401 O1420 2.473 . S
Eu1401 O1421 2.480 . S
Eu1401 O1422 2.430 . S
Eu1401 O1423 2.670 . S
Eu1401 O1424 2.394 . S
Eu1401 O1429 2.355 . S
Eu1401 O1431 2.374 . S
C1402 C1400 1.500 . S
C1402 C1403 1.377 . S
C1402 C1407 1.377 1_565 S
C1403 C1402 1.377 . S
C1403 C1404 1.395 . S
C1403 H1432 0.931 . S
C1404 C1403 1.395 . S
C1404 C1405 1.383 1_565 S
C1404 H1433 0.931 . S
C1405 C1404 1.383 1_545 S
C1405 C1406 1.394 . S
C1406 C1405 1.394 . S
C1406 C1407 1.378 . S
C1406 H1434 0.931 . S
C1407 C1402 1.377 1_545 S
C1407 C1406 1.378 . S
C1407 H1435 0.931 . S
C1408 O1422 1.259 . S
C1408 O1423 1.270 . S
C1409 O1424 1.251 . S
C1409 O1425 1.251 . S
C1410 Eu1411 2.835 . S
C1410 C1412 1.500 . S
C1410 O1426 1.257 . S
C1410 O1427 1.260 . S
Eu1411 C1410 2.835 . S
Eu1411 O1423 2.355 . S
Eu1411 O1425 2.374 . S
Eu1411 O1426 2.473 . S
Eu1411 O1427 2.480 . S
Eu1411 O1428 2.430 . S
Eu1411 O1429 2.670 . S
Eu1411 O1430 2.394 . S
C1412 C1410 1.500 . S
C1412 C1413 1.377 . S
C1412 C1417 1.377 . S
C1413 C1412 1.377 . S
C1413 C1414 1.395 . S
C1413 H1436 0.931 . S
C1414 C1413 1.395 . S
C1414 C1415 1.383 . S
C1414 H1437 0.931 . S
C1415 C1414 1.383 . S
C1415 C1416 1.394 . S
C1416 C1415 1.394 . S
C1416 C1417 1.378 . S
C1416 H1438 0.931 . S
C1417 C1412 1.377 . S
C1417 C1416 1.378 . S
C1417 H1439 0.931 . S
C1418 O1428 1.259 . S
C1418 O1429 1.270 . S
C1419 O1430 1.251 . S
C1419 O1431 1.251 . S
O1420 C1400 1.257 . S
O1420 Eu1401 2.473 . S
O1421 C1400 1.260 . S
O1421 Eu1401 2.480 . S
O1422 Eu1401 2.430 . S
O1422 C1408 1.259 . S
O1423 Eu1401 2.670 . S
O1423 C1408 1.270 . S
O1423 Eu1411 2.355 . S
O1424 Eu1401 2.394 . S
O1424 C1409 1.251 . S
O1425 C1409 1.251 . S
O1425 Eu1411 2.374 . S
O1426 C1410 1.257 . S
O1426 Eu1411 2.473 . S
O1427 C1410 1.260 . S
O1427 Eu1411 2.480 . S
O1428 Eu1411 2.430 . S
O1428 C1418 1.259 . S
O1429 Eu1401 2.355 . S
O1429 Eu1411 2.670 . S
O1429 C1418 1.270 . S
O1430 Eu1411 2.394 . S
O1430 C1419 1.251 . S
O1431 Eu1401 2.374 . S
O1431 C1419 1.251 . S
H1432 C1403 0.931 . S
H1433 C1404 0.931 . S
H1434 C1406 0.931 . S
H1435 C1407 0.931 . S
H1436 C1413 0.931 . S
H1437 C1414 0.931 . S
H1438 C1416 0.931 . S
H1439 C1417 0.931 . S
C1440 C1441 1.387 . S
C1440 H1444 0.950 . S
C1440 C1449 1.390 . S
C1441 C1440 1.387 . S
C1441 C1443 1.387 . S
H1442 C1449 0.950 . S
C1443 C1441 1.387 . S
C1443 C1445 1.390 . S
C1443 H1447 0.950 . S
H1444 C1440 0.950 . S
C1445 C1443 1.390 . S
C1445 C1446 1.387 . S
C1445 H1448 0.950 . S
C1446 C1445 1.387 . S
C1446 C1449 1.387 . S
H1447 C1443 0.950 . S
H1448 C1445 0.950 . S
C1449 C1440 1.390 . S
C1449 H1442 0.950 . S
C1449 C1446 1.387 . S
C1450 C1451 1.387 . S
C1450 H1454 0.950 . S
C1450 C1459 1.390 . S
C1451 C1450 1.387 . S
C1451 C1453 1.387 . S
H1452 C1459 0.950 . S
C1453 C1451 1.387 . S
C1453 C1455 1.390 . S
C1453 H1457 0.950 . S
H1454 C1450 0.950 . S
C1455 C1453 1.390 . S
C1455 C1456 1.387 . S
C1455 H1458 0.950 . S
C1456 C1455 1.387 . S
C1456 C1459 1.387 . S
H1457 C1453 0.950 . S
H1458 C1455 0.950 . S
C1459 C1450 1.390 . S
C1459 H1452 0.950 . S
C1459 C1456 1.387 . S
C1460 C1461 1.387 . S
C1460 H1464 0.950 . S
C1460 C1469 1.390 . S
C1461 C1460 1.387 . S
C1461 C1463 1.387 . S
H1462 C1469 0.950 . S
C1463 C1461 1.387 . S
C1463 C1465 1.390 . S
C1463 H1467 0.950 . S
H1464 C1460 0.950 . S
C1465 C1463 1.390 . S
C1465 C1466 1.387 . S
C1465 H1468 0.950 . S
C1466 C1465 1.387 . S
C1466 C1469 1.387 . S
H1467 C1463 0.950 . S
H1468 C1465 0.950 . S
C1469 C1460 1.390 . S
C1469 H1462 0.950 . S
C1469 C1466 1.387 . S
C1470 C1471 1.387 . S
C1470 H1474 0.950 . S
C1470 C1479 1.390 . S
C1471 C1470 1.387 . S
C1471 C1473 1.387 . S
H1472 C1479 0.950 . S
C1473 C1471 1.387 . S
C1473 C1475 1.390 . S
C1473 H1477 0.950 . S
H1474 C1470 0.950 . S
C1475 C1473 1.390 . S
C1475 C1476 1.387 . S
C1475 H1478 0.950 . S
C1476 C1475 1.387 . S
C1476 C1479 1.387 . S
H1477 C1473 0.950 . S
H1478 C1475 0.950 . S
C1479 C1470 1.390 . S
C1479 H1472 0.950 . S
C1479 C1476 1.387 . S
C1480 C1481 1.387 . S
C1480 H1484 0.950 . S
C1480 C1489 1.390 . S
C1481 C1480 1.387 . S
C1481 C1483 1.387 . S
H1482 C1489 0.950 . S
C1483 C1481 1.387 . S
C1483 C1485 1.390 . S
C1483 H1487 0.950 . S
H1484 C1480 0.950 . S
C1485 C1483 1.390 . S
C1485 C1486 1.387 . S
C1485 H1488 0.950 . S
C1486 C1485 1.387 . S
C1486 C1489 1.387 . S
H1487 C1483 0.950 . S
H1488 C1485 0.950 . S
C1489 C1480 1.390 . S
C1489 H1482 0.950 . S
C1489 C1486 1.387 . S
C1490 C1491 1.387 . S
C1490 H1494 0.950 . S
C1490 C1499 1.390 . S
C1491 C1490 1.387 . S
C1491 C1493 1.387 . S
H1492 C1499 0.950 . S
C1493 C1491 1.387 . S
C1493 C1495 1.390 . S
C1493 H1497 0.950 . S
H1494 C1490 0.950 . S
C1495 C1493 1.390 . S
C1495 C1496 1.387 . S
C1495 H1498 0.950 . S
C1496 C1495 1.387 . S
C1496 C1499 1.387 . S
H1497 C1493 0.950 . S
H1498 C1495 0.950 . S
C1499 C1490 1.390 . S
C1499 H1492 0.950 . S
C1499 C1496 1.387 . S
C1500 C1501 1.387 . S
C1500 H1504 0.950 . S
C1500 C1509 1.390 . S
C1501 C1500 1.387 . S
C1501 C1503 1.387 . S
H1502 C1509 0.950 . S
C1503 C1501 1.387 . S
C1503 C1505 1.390 . S
C1503 H1507 0.950 . S
H1504 C1500 0.950 . S
C1505 C1503 1.390 . S
C1505 C1506 1.387 . S
C1505 H1508 0.950 . S
C1506 C1505 1.387 . S
C1506 C1509 1.387 . S
H1507 C1503 0.950 . S
H1508 C1505 0.950 . S
C1509 C1500 1.390 . S
C1509 H1502 0.950 . S
C1509 C1506 1.387 . S
C1510 C1511 1.387 . S
C1510 H1514 0.950 . S
C1510 C1519 1.390 . S
C1511 C1510 1.387 . S
C1511 C1513 1.387 . S
H1512 C1519 0.950 . S
C1513 C1511 1.387 . S
C1513 C1515 1.390 . S
C1513 H1517 0.950 . S
H1514 C1510 0.950 . S
C1515 C1513 1.390 . S
C1515 C1516 1.387 . S
C1515 H1518 0.950 . S
C1516 C1515 1.387 . S
C1516 C1519 1.387 . S
H1517 C1513 0.950 . S
H1518 C1515 0.950 . S
C1519 C1510 1.390 . S
C1519 H1512 0.950 . S
C1519 C1516 1.387 . S
C1520 C1521 1.387 . S
C1520 H1524 0.950 . S
C1520 C1529 1.390 . S
C1521 C1520 1.387 . S
C1521 C1523 1.387 . S
H1522 C1529 0.950 . S
C1523 C1521 1.387 . S
C1523 C1525 1.390 . S
C1523 H1527 0.950 . S
H1524 C1520 0.950 . S
C1525 C1523 1.390 . S
C1525 C1526 1.387 . S
C1525 H1528 0.950 . S
C1526 C1525 1.387 . S
C1526 C1529 1.387 . S
H1527 C1523 0.950 . S
H1528 C1525 0.950 . S
C1529 C1520 1.390 . S
C1529 H1522 0.950 . S
C1529 C1526 1.387 . S
C1530 C1531 1.387 . S
C1530 H1534 0.950 . S
C1530 C1539 1.390 . S
C1531 C1530 1.387 . S
C1531 C1533 1.387 . S
H1532 C1539 0.950 . S
C1533 C1531 1.387 . S
C1533 C1535 1.390 . S
C1533 H1537 0.950 . S
H1534 C1530 0.950 . S
C1535 C1533 1.390 . S
C1535 C1536 1.387 . S
C1535 H1538 0.950 . S
C1536 C1535 1.387 . S
C1536 C1539 1.387 . S
H1537 C1533 0.950 . S
H1538 C1535 0.950 . S
C1539 C1530 1.390 . S
C1539 H1532 0.950 . S
C1539 C1536 1.387 . S
C1540 C1541 1.387 . S
C1540 H1544 0.950 . S
C1540 C1549 1.390 . S
C1541 C1540 1.387 . S
C1541 C1543 1.387 . S
H1542 C1549 0.950 . S
C1543 C1541 1.387 . S
C1543 C1545 1.390 . S
C1543 H1547 0.950 . S
H1544 C1540 0.950 . S
C1545 C1543 1.390 . S
C1545 C1546 1.387 . S
C1545 H1548 0.950 . S
C1546 C1545 1.387 . S
C1546 C1549 1.387 . S
H1547 C1543 0.950 . S
H1548 C1545 0.950 . S
C1549 C1540 1.390 . S
C1549 H1542 0.950 . S
C1549 C1546 1.387 . S
C1550 C1551 1.387 . S
C1550 H1554 0.950 . S
C1550 C1559 1.390 . S
C1551 C1550 1.387 . S
C1551 C1553 1.387 . S
H1552 C1559 0.950 . S
C1553 C1551 1.387 . S
C1553 C1555 1.390 . S
C1553 H1557 0.950 . S
H1554 C1550 0.950 . S
C1555 C1553 1.390 . S
C1555 C1556 1.387 . S
C1555 H1558 0.950 . S
C1556 C1555 1.387 . S
C1556 C1559 1.387 . S
H1557 C1553 0.950 . S
H1558 C1555 0.950 . S
C1559 C1550 1.390 . S
C1559 H1552 0.950 . S
C1559 C1556 1.387 . S
C1560 C1561 1.387 . S
C1560 H1564 0.950 . S
C1560 C1569 1.390 . S
C1561 C1560 1.387 . S
C1561 C1563 1.387 . S
H1562 C1569 0.950 . S
C1563 C1561 1.387 . S
C1563 C1565 1.390 . S
C1563 H1567 0.950 . S
H1564 C1560 0.950 . S
C1565 C1563 1.390 . S
C1565 C1566 1.387 . S
C1565 H1568 0.950 . S
C1566 C1565 1.387 . S
C1566 C1569 1.387 . S
H1567 C1563 0.950 . S
H1568 C1565 0.950 . S
C1569 C1560 1.390 . S
C1569 H1562 0.950 . S
C1569 C1566 1.387 . S
C1570 C1571 1.387 . S
C1570 H1574 0.950 . S
C1570 C1579 1.390 . S
C1571 C1570 1.387 . S
C1571 C1573 1.387 . S
H1572 C1579 0.950 . S
C1573 C1571 1.387 . S
C1573 C1575 1.390 . S
C1573 H1577 0.950 . S
H1574 C1570 0.950 . S
C1575 C1573 1.390 . S
C1575 C1576 1.387 . S
C1575 H1578 0.950 . S
C1576 C1575 1.387 . S
C1576 C1579 1.387 . S
H1577 C1573 0.950 . S
H1578 C1575 0.950 . S
C1579 C1570 1.390 . S
C1579 H1572 0.950 . S
C1579 C1576 1.387 . S
C1580 C1581 1.387 . S
C1580 H1584 0.950 . S
C1580 C1589 1.390 . S
C1581 C1580 1.387 . S
C1581 C1583 1.387 . S
H1582 C1589 0.950 . S
C1583 C1581 1.387 . S
C1583 C1585 1.390 . S
C1583 H1587 0.950 . S
H1584 C1580 0.950 . S
C1585 C1583 1.390 . S
C1585 C1586 1.387 . S
C1585 H1588 0.950 . S
C1586 C1585 1.387 . S
C1586 C1589 1.387 . S
H1587 C1583 0.950 . S
H1588 C1585 0.950 . S
C1589 C1580 1.390 . S
C1589 H1582 0.950 . S
C1589 C1586 1.387 . S
C1590 C1591 1.387 . S
C1590 H1594 0.950 . S
C1590 C1599 1.390 . S
C1591 C1590 1.387 . S
C1591 C1593 1.387 . S
H1592 C1599 0.950 . S
C1593 C1591 1.387 . S
C1593 C1595 1.390 . S
C1593 H1597 0.950 . S
H1594 C1590 0.950 . S
C1595 C1593 1.390 . S
C1595 C1596 1.387 . S
C1595 H1598 0.950 . S
C1596 C1595 1.387 . S
C1596 C1599 1.387 . S
H1597 C1593 0.950 . S
H1598 C1595 0.950 . S
C1599 C1590 1.390 . S
C1599 H1592 0.950 . S
C1599 C1596 1.387 . S
C1600 C1601 1.387 . S
C1600 H1604 0.950 . S
C1600 C1609 1.390 . S
C1601 C1600 1.387 . S
C1601 C1603 1.387 . S
H1602 C1609 0.950 . S
C1603 C1601 1.387 . S
C1603 C1605 1.390 . S
C1603 H1607 0.950 . S
H1604 C1600 0.950 . S
C1605 C1603 1.390 . S
C1605 C1606 1.387 . S
C1605 H1608 0.950 . S
C1606 C1605 1.387 . S
C1606 C1609 1.387 . S
H1607 C1603 0.950 . S
H1608 C1605 0.950 . S
C1609 C1600 1.390 . S
C1609 H1602 0.950 . S
C1609 C1606 1.387 . S
C1610 C1611 1.387 . S
C1610 H1614 0.950 . S
C1610 C1619 1.390 . S
C1611 C1610 1.387 . S
C1611 C1613 1.387 . S
H1612 C1619 0.950 . S
C1613 C1611 1.387 . S
C1613 C1615 1.390 . S
C1613 H1617 0.950 . S
H1614 C1610 0.950 . S
C1615 C1613 1.390 . S
C1615 C1616 1.387 . S
C1615 H1618 0.950 . S
C1616 C1615 1.387 . S
C1616 C1619 1.387 . S
H1617 C1613 0.950 . S
H1618 C1615 0.950 . S
C1619 C1610 1.390 . S
C1619 H1612 0.950 . S
C1619 C1616 1.387 . S
C1620 C1621 1.387 . S
C1620 H1624 0.950 . S
C1620 C1629 1.390 . S
C1621 C1620 1.387 . S
C1621 C1623 1.387 . S
H1622 C1629 0.950 . S
C1623 C1621 1.387 . S
C1623 C1625 1.390 . S
C1623 H1627 0.950 . S
H1624 C1620 0.950 . S
C1625 C1623 1.390 . S
C1625 C1626 1.387 . S
C1625 H1628 0.950 . S
C1626 C1625 1.387 . S
C1626 C1629 1.387 . S
H1627 C1623 0.950 . S
H1628 C1625 0.950 . S
C1629 C1620 1.390 . S
C1629 H1622 0.950 . S
C1629 C1626 1.387 . S
C1630 C1631 1.387 . S
C1630 H1634 0.950 . S
C1630 C1639 1.390 . S
C1631 C1630 1.387 . S
C1631 C1633 1.387 . S
H1632 C1639 0.950 . S
C1633 C1631 1.387 . S
C1633 C1635 1.390 . S
C1633 H1637 0.950 . S
H1634 C1630 0.950 . S
C1635 C1633 1.390 . S
C1635 C1636 1.387 . S
C1635 H1638 0.950 . S
C1636 C1635 1.387 . S
C1636 C1639 1.387 . S
H1637 C1633 0.950 . S
H1638 C1635 0.950 . S
C1639 C1630 1.390 . S
C1639 H1632 0.950 . S
C1639 C1636 1.387 . S
C1640 C1641 1.387 . S
C1640 H1644 0.950 . S
C1640 C1649 1.390 . S
C1641 C1640 1.387 . S
C1641 C1643 1.387 . S
H1642 C1649 0.950 . S
C1643 C1641 1.387 . S
C1643 C1645 1.390 . S
C1643 H1647 0.950 . S
H1644 C1640 0.950 . S
C1645 C1643 1.390 . S
C1645 C1646 1.387 . S
C1645 H1648 0.950 . S
C1646 C1645 1.387 . S
C1646 C1649 1.387 . S
H1647 C1643 0.950 . S
H1648 C1645 0.950 . S
C1649 C1640 1.390 . S
C1649 H1642 0.950 . S
C1649 C1646 1.387 . S
C1650 C1651 1.387 1_556 S
C1650 H1654 0.950 . S
C1650 C1659 1.390 . S
C1651 C1650 1.387 1_554 S
C1651 C1653 1.387 . S
H1652 C1659 0.950 . S
C1653 C1651 1.387 . S
C1653 C1655 1.390 . S
C1653 H1657 0.950 . S
H1654 C1650 0.950 . S
C1655 C1653 1.390 . S
C1655 C1656 1.387 . S
C1655 H1658 0.950 . S
C1656 C1655 1.387 . S
C1656 C1659 1.387 1_554 S
H1657 C1653 0.950 . S
H1658 C1655 0.950 . S
C1659 C1650 1.390 . S
C1659 H1652 0.950 . S
C1659 C1656 1.387 1_556 S
C1660 C1661 1.387 . S
C1660 H1664 0.950 . S
C1660 C1669 1.390 . S
C1661 C1660 1.387 . S
C1661 C1663 1.387 1_554 S
H1662 C1669 0.950 . S
C1663 C1661 1.387 1_556 S
C1663 C1665 1.390 . S
C1663 H1667 0.950 . S
H1664 C1660 0.950 . S
C1665 C1663 1.390 . S
C1665 C1666 1.387 1_556 S
C1665 H1668 0.950 . S
C1666 C1665 1.387 1_554 S
C1666 C1669 1.387 . S
H1667 C1663 0.950 . S
H1668 C1665 0.950 . S
C1669 C1660 1.390 . S
C1669 H1662 0.950 . S
C1669 C1666 1.387 . S
C1670 C1671 1.387 . S
C1670 H1674 0.950 . S
C1670 C1679 1.390 . S
C1671 C1670 1.387 . S
C1671 C1673 1.387 1_554 S
H1672 C1679 0.950 . S
C1673 C1671 1.387 1_556 S
C1673 C1675 1.390 . S
C1673 H1677 0.950 . S
H1674 C1670 0.950 . S
C1675 C1673 1.390 . S
C1675 C1676 1.387 1_556 S
C1675 H1678 0.950 . S
C1676 C1675 1.387 1_554 S
C1676 C1679 1.387 . S
H1677 C1673 0.950 . S
H1678 C1675 0.950 . S
C1679 C1670 1.390 . S
C1679 H1672 0.950 . S
C1679 C1676 1.387 . S
C1680 C1681 1.387 . S
C1680 H1684 0.950 . S
C1680 C1689 1.390 . S
C1681 C1680 1.387 . S
C1681 C1683 1.387 . S
H1682 C1689 0.950 . S
C1683 C1681 1.387 . S
C1683 C1685 1.390 . S
C1683 H1687 0.950 . S
H1684 C1680 0.950 . S
C1685 C1683 1.390 . S
C1685 C1686 1.387 . S
C1685 H1688 0.950 . S
C1686 C1685 1.387 . S
C1686 C1689 1.387 . S
H1687 C1683 0.950 . S
H1688 C1685 0.950 . S
C1689 C1680 1.390 . S
C1689 H1682 0.950 . S
C1689 C1686 1.387 . S
C1690 C1691 1.387 . S
C1690 H1694 0.950 . S
C1690 C1699 1.390 . S
C1691 C1690 1.387 . S
C1691 C1693 1.387 . S
H1692 C1699 0.950 . S
C1693 C1691 1.387 . S
C1693 C1695 1.390 . S
C1693 H1697 0.950 . S
H1694 C1690 0.950 . S
C1695 C1693 1.390 . S
C1695 C1696 1.387 . S
C1695 H1698 0.950 . S
C1696 C1695 1.387 . S
C1696 C1699 1.387 . S
H1697 C1693 0.950 . S
H1698 C1695 0.950 . S
C1699 C1690 1.390 . S
C1699 H1692 0.950 . S
C1699 C1696 1.387 . S
C1700 C1701 1.387 . S
C1700 H1704 0.950 . S
C1700 C1709 1.390 . S
C1701 C1700 1.387 . S
C1701 C1703 1.387 . S
H1702 C1709 0.950 . S
C1703 C1701 1.387 . S
C1703 C1705 1.390 . S
C1703 H1707 0.950 . S
H1704 C1700 0.950 . S
C1705 C1703 1.390 . S
C1705 C1706 1.387 . S
C1705 H1708 0.950 . S
C1706 C1705 1.387 . S
C1706 C1709 1.387 . S
H1707 C1703 0.950 . S
H1708 C1705 0.950 . S
C1709 C1700 1.390 . S
C1709 H1702 0.950 . S
C1709 C1706 1.387 . S
C1710 C1711 1.387 . S
C1710 H1714 0.950 . S
C1710 C1719 1.390 . S
C1711 C1710 1.387 . S
C1711 C1713 1.387 1_556 S
H1712 C1719 0.950 . S
C1713 C1711 1.387 1_554 S
C1713 C1715 1.402 . S
C1713 H1717 0.950 . S
H1714 C1710 0.950 . S
C1715 C1713 1.402 . S
C1715 C1716 1.346 1_554 S
C1715 H1718 0.991 . S
C1716 C1715 1.346 1_556 S
C1716 C1719 1.387 . S
H1717 C1713 0.950 . S
H1718 C1715 0.991 . S
C1719 C1710 1.390 . S
C1719 H1712 0.950 . S
C1719 C1716 1.387 . S
C1720 C1721 1.387 . S
C1720 H1724 0.950 . S
C1720 C1729 1.390 . S
C1721 C1720 1.387 . S
C1721 C1723 1.387 1_556 S
H1722 C1729 0.950 . S
C1723 C1721 1.387 1_554 S
C1723 C1725 1.390 . S
C1723 H1727 0.950 . S
H1724 C1720 0.950 . S
C1725 C1723 1.390 . S
C1725 C1726 1.387 1_554 S
C1725 H1728 0.950 . S
C1726 C1725 1.387 1_556 S
C1726 C1729 1.387 . S
H1727 C1723 0.950 . S
H1728 C1725 0.950 . S
C1729 C1720 1.390 . S
C1729 H1722 0.950 . S
C1729 C1726 1.387 . S
C1730 C1731 1.387 1_554 S
C1730 H1734 0.950 . S
C1730 C1739 1.390 . S
C1731 C1730 1.387 1_556 S
C1731 C1733 1.387 . S
H1732 C1739 0.950 . S
C1733 C1731 1.387 . S
C1733 C1735 1.390 . S
C1733 H1737 0.950 . S
H1734 C1730 0.950 . S
C1735 C1733 1.390 . S
C1735 C1736 1.387 . S
C1735 H1738 0.950 . S
C1736 C1735 1.387 . S
C1736 C1739 1.387 1_556 S
H1737 C1733 0.950 . S
H1738 C1735 0.950 . S
C1739 C1730 1.390 . S
C1739 H1732 0.950 . S
C1739 C1736 1.387 1_554 S
C1740 C1741 1.387 . S
C1740 H1744 0.950 . S
C1740 C1749 1.390 . S
C1741 C1740 1.387 . S
C1741 C1743 1.387 . S
H1742 C1749 0.950 . S
C1743 C1741 1.387 . S
C1743 C1745 1.390 . S
C1743 H1747 0.950 . S
H1744 C1740 0.950 . S
C1745 C1743 1.390 . S
C1745 C1746 1.387 . S
C1745 H1748 0.950 . S
C1746 C1745 1.387 . S
C1746 C1749 1.387 . S
H1747 C1743 0.950 . S
H1748 C1745 0.950 . S
C1749 C1740 1.390 . S
C1749 H1742 0.950 . S
C1749 C1746 1.387 . S
C1750 C1751 1.387 . S
C1750 H1754 0.950 . S
C1750 C1759 1.390 . S
C1751 C1750 1.387 . S
C1751 C1753 1.387 . S
H1752 C1759 0.950 . S
C1753 C1751 1.387 . S
C1753 C1755 1.390 . S
C1753 H1757 0.950 . S
H1754 C1750 0.950 . S
C1755 C1753 1.390 . S
C1755 C1756 1.387 . S
C1755 H1758 0.950 . S
C1756 C1755 1.387 . S
C1756 C1759 1.387 . S
H1757 C1753 0.950 . S
H1758 C1755 0.950 . S
C1759 C1750 1.390 . S
C1759 H1752 0.950 . S
C1759 C1756 1.387 . S
C1760 C1761 1.387 . S
C1760 H1764 0.950 . S
C1760 C1769 1.390 . S
C1761 C1760 1.387 . S
C1761 C1763 1.387 . S
H1762 C1769 0.950 . S
C1763 C1761 1.387 . S
C1763 C1765 1.390 . S
C1763 H1767 0.950 . S
H1764 C1760 0.950 . S
C1765 C1763 1.390 . S
C1765 C1766 1.387 . S
C1765 H1768 0.950 . S
C1766 C1765 1.387 . S
C1766 C1769 1.387 . S
H1767 C1763 0.950 . S
H1768 C1765 0.950 . S
C1769 C1760 1.390 . S
C1769 H1762 0.950 . S
C1769 C1766 1.387 . S
C1770 C1771 1.387 . S
C1770 H1774 0.950 . S
C1770 C1779 1.390 . S
C1771 C1770 1.387 . S
C1771 C1773 1.387 . S
H1772 C1779 0.950 . S
C1773 C1771 1.387 . S
C1773 C1775 1.390 . S
C1773 H1777 0.950 . S
H1774 C1770 0.950 . S
C1775 C1773 1.390 . S
C1775 C1776 1.387 . S
C1775 H1778 0.950 . S
C1776 C1775 1.387 . S
C1776 C1779 1.387 . S
H1777 C1773 0.950 . S
H1778 C1775 0.950 . S
C1779 C1770 1.390 . S
C1779 H1772 0.950 . S
C1779 C1776 1.387 . S
C1780 C1781 1.387 . S
C1780 H1784 0.950 . S
C1780 C1789 1.390 . S
C1781 C1780 1.387 . S
C1781 C1783 1.387 . S
H1782 C1789 0.950 . S
C1783 C1781 1.387 . S
C1783 C1785 1.390 . S
C1783 H1787 0.950 . S
H1784 C1780 0.950 . S
C1785 C1783 1.390 . S
C1785 C1786 1.387 . S
C1785 H1788 0.950 . S
C1786 C1785 1.387 . S
C1786 C1789 1.387 . S
H1787 C1783 0.950 . S
H1788 C1785 0.950 . S
C1789 C1780 1.390 . S
C1789 H1782 0.950 . S
C1789 C1786 1.387 . S
C1790 C1791 1.387 . S
C1790 H1794 0.950 . S
C1790 C1799 1.390 . S
C1791 C1790 1.387 . S
C1791 C1793 1.387 . S
H1792 C1799 0.950 . S
C1793 C1791 1.387 . S
C1793 C1795 1.390 . S
C1793 H1797 0.950 . S
H1794 C1790 0.950 . S
C1795 C1793 1.390 . S
C1795 C1796 1.387 . S
C1795 H1798 0.950 . S
C1796 C1795 1.387 . S
C1796 C1799 1.387 . S
H1797 C1793 0.950 . S
H1798 C1795 0.950 . S
C1799 C1790 1.390 . S
C1799 H1792 0.950 . S
C1799 C1796 1.387 . S
C1800 C1801 1.387 . S
C1800 H1804 0.950 . S
C1800 C1809 1.390 . S
C1801 C1800 1.387 . S
C1801 C1803 1.387 . S
H1802 C1809 0.950 . S
C1803 C1801 1.387 . S
C1803 C1805 1.390 . S
C1803 H1807 0.950 . S
H1804 C1800 0.950 . S
C1805 C1803 1.390 . S
C1805 C1806 1.387 . S
C1805 H1808 0.950 . S
C1806 C1805 1.387 . S
C1806 C1809 1.387 . S
H1807 C1803 0.950 . S
H1808 C1805 0.950 . S
C1809 C1800 1.390 . S
C1809 H1802 0.950 . S
C1809 C1806 1.387 . S
C1810 C1811 1.387 . S
C1810 H1814 0.950 . S
C1810 C1819 1.390 . S
C1811 C1810 1.387 . S
C1811 C1813 1.388 1_565 S
H1812 C1819 0.950 . S
C1813 C1811 1.388 1_545 S
C1813 C1815 1.388 1_545 S
C1813 H1817 0.951 . S
H1814 C1810 0.950 . S
C1815 C1813 1.388 1_565 S
C1815 C1816 1.387 . S
C1815 H1818 0.950 . S
C1816 C1815 1.387 . S
C1816 C1819 1.387 . S
H1817 C1813 0.951 . S
H1818 C1815 0.950 . S
C1819 C1810 1.390 . S
C1819 H1812 0.950 . S
C1819 C1816 1.387 . S
C1820 C1821 1.387 . S
C1820 H1824 0.950 . S
C1820 C1829 1.390 . S
C1821 C1820 1.387 . S
C1821 C1823 1.387 . S
H1822 C1829 0.950 . S
C1823 C1821 1.387 . S
C1823 C1825 1.390 . S
C1823 H1827 0.950 . S
H1824 C1820 0.950 . S
C1825 C1823 1.390 . S
C1825 C1826 1.387 . S
C1825 H1828 0.950 . S
C1826 C1825 1.387 . S
C1826 C1829 1.387 . S
H1827 C1823 0.950 . S
H1828 C1825 0.950 . S
C1829 C1820 1.390 . S
C1829 H1822 0.950 . S
C1829 C1826 1.387 . S
C1830 C1831 1.387 . S
C1830 H1834 0.950 . S
C1830 C1839 1.390 . S
C1831 C1830 1.387 . S
C1831 C1833 1.387 . S
H1832 C1839 0.950 . S
C1833 C1831 1.387 . S
C1833 C1835 1.390 . S
C1833 H1837 0.950 . S
H1834 C1830 0.950 . S
C1835 C1833 1.390 . S
C1835 C1836 1.387 . S
C1835 H1838 0.950 . S
C1836 C1835 1.387 . S
C1836 C1839 1.387 . S
H1837 C1833 0.950 . S
H1838 C1835 0.950 . S
C1839 C1830 1.390 . S
C1839 H1832 0.950 . S
C1839 C1836 1.387 . S
C1840 C1841 1.387 . S
C1840 H1844 0.950 . S
C1840 C1849 1.390 . S
C1841 C1840 1.387 . S
C1841 C1843 1.387 . S
H1842 C1849 0.950 . S
C1843 C1841 1.387 . S
C1843 C1845 1.390 . S
C1843 H1847 0.950 . S
H1844 C1840 0.950 . S
C1845 C1843 1.390 . S
C1845 C1846 1.387 . S
C1845 H1848 0.950 . S
C1846 C1845 1.387 . S
C1846 C1849 1.387 . S
H1847 C1843 0.950 . S
H1848 C1845 0.950 . S
C1849 C1840 1.390 . S
C1849 H1842 0.950 . S
C1849 C1846 1.387 . S
C1850 C1851 1.387 . S
C1850 H1854 0.950 . S
C1850 C1859 1.390 . S
C1851 C1850 1.387 . S
C1851 C1853 1.387 . S
H1852 C1859 0.950 . S
C1853 C1851 1.387 . S
C1853 C1855 1.390 . S
C1853 H1857 0.950 . S
H1854 C1850 0.950 . S
C1855 C1853 1.390 . S
C1855 C1856 1.387 . S
C1855 H1858 0.950 . S
C1856 C1855 1.387 . S
C1856 C1859 1.387 . S
H1857 C1853 0.950 . S
H1858 C1855 0.950 . S
C1859 C1850 1.390 . S
C1859 H1852 0.950 . S
C1859 C1856 1.387 . S
C1860 C1861 1.387 . S
C1860 H1864 0.950 . S
C1860 C1869 1.390 . S
C1861 C1860 1.387 . S
C1861 C1863 1.387 . S
H1862 C1869 0.950 . S
C1863 C1861 1.387 . S
C1863 C1865 1.390 . S
C1863 H1867 0.950 . S
H1864 C1860 0.950 . S
C1865 C1863 1.390 . S
C1865 C1866 1.387 . S
C1865 H1868 0.950 . S
C1866 C1865 1.387 . S
C1866 C1869 1.387 . S
H1867 C1863 0.950 . S
H1868 C1865 0.950 . S
C1869 C1860 1.390 . S
C1869 H1862 0.950 . S
C1869 C1866 1.387 . S
C1870 C1871 1.387 . S
C1870 H1874 0.950 . S
C1870 C1879 1.390 . S
C1871 C1870 1.387 . S
C1871 C1873 1.387 . S
H1872 C1879 0.950 . S
C1873 C1871 1.387 . S
C1873 C1875 1.390 . S
C1873 H1877 0.950 . S
H1874 C1870 0.950 . S
C1875 C1873 1.390 . S
C1875 C1876 1.387 . S
C1875 H1878 0.950 1_545 S
C1876 C1875 1.387 . S
C1876 C1879 1.387 . S
H1877 C1873 0.950 . S
H1878 C1875 0.950 1_565 S
C1879 C1870 1.390 . S
C1879 H1872 0.950 . S
C1879 C1876 1.387 . S
C1880 C1881 1.387 . S
C1880 H1884 0.950 . S
C1880 C1889 1.390 . S
C1881 C1880 1.387 . S
C1881 C1883 1.387 . S
H1882 C1889 0.950 . S
C1883 C1881 1.387 . S
C1883 C1885 1.390 . S
C1883 H1887 0.950 . S
H1884 C1880 0.950 . S
C1885 C1883 1.390 . S
C1885 C1886 1.387 . S
C1885 H1888 0.950 . S
C1886 C1885 1.387 . S
C1886 C1889 1.387 . S
H1887 C1883 0.950 . S
H1888 C1885 0.950 . S
C1889 C1880 1.390 . S
C1889 H1882 0.950 . S
C1889 C1886 1.387 . S
C1890 C1891 1.387 . S
C1890 H1894 0.950 . S
C1890 C1899 1.390 . S
C1891 C1890 1.387 . S
C1891 C1893 1.387 . S
H1892 C1899 0.950 . S
C1893 C1891 1.387 . S
C1893 C1895 1.390 . S
C1893 H1897 0.950 . S
H1894 C1890 0.950 . S
C1895 C1893 1.390 . S
C1895 C1896 1.387 . S
C1895 H1898 0.950 . S
C1896 C1895 1.387 . S
C1896 C1899 1.387 . S
H1897 C1893 0.950 . S
H1898 C1895 0.950 . S
C1899 C1890 1.390 . S
C1899 H1892 0.950 . S
C1899 C1896 1.387 . S
C1900 C1901 1.387 . S
C1900 H1904 0.950 . S
C1900 C1909 1.390 . S
C1901 C1900 1.387 . S
C1901 C1903 1.387 . S
H1902 C1909 0.950 . S
C1903 C1901 1.387 . S
C1903 C1905 1.390 . S
C1903 H1907 0.950 . S
H1904 C1900 0.950 . S
C1905 C1903 1.390 . S
C1905 C1906 1.387 . S
C1905 H1908 0.950 . S
C1906 C1905 1.387 . S
C1906 C1909 1.387 . S
H1907 C1903 0.950 . S
H1908 C1905 0.950 . S
C1909 C1900 1.390 . S
C1909 H1902 0.950 . S
C1909 C1906 1.387 . S
C1910 C1911 1.387 . S
C1910 H1914 0.950 . S
C1910 C1919 1.390 . S
C1911 C1910 1.387 . S
C1911 C1913 1.387 . S
H1912 C1919 0.950 . S
C1913 C1911 1.387 . S
C1913 C1915 1.390 . S
C1913 H1917 0.950 . S
H1914 C1910 0.950 . S
C1915 C1913 1.390 . S
C1915 C1916 1.387 . S
C1915 H1918 0.950 . S
C1916 C1915 1.387 . S
C1916 C1919 1.387 . S
H1917 C1913 0.950 . S
H1918 C1915 0.950 . S
C1919 C1910 1.390 . S
C1919 H1912 0.950 . S
C1919 C1916 1.387 . S
C1920 C1921 1.381 1_455 S
C1920 H1924 0.944 1_455 S
C1920 C1929 1.403 . S
C1921 C1920 1.381 1_655 S
C1921 C1923 1.387 1_655 S
H1922 C1929 0.950 . S
C1923 C1921 1.387 1_455 S
C1923 C1925 1.390 . S
C1923 H1927 0.950 1_455 S
H1924 C1920 0.944 1_655 S
C1925 C1923 1.390 . S
C1925 C1926 1.387 . S
C1925 H1928 0.950 . S
C1926 C1925 1.387 . S
C1926 C1929 1.387 . S
H1927 C1923 0.950 1_655 S
H1928 C1925 0.950 . S
C1929 C1920 1.403 . S
C1929 H1922 0.950 . S
C1929 C1926 1.387 . S
C1930 C1931 1.387 . S
C1930 H1934 0.950 . S
C1930 C1939 1.390 . S
C1931 C1930 1.387 . S
C1931 C1933 1.387 . S
H1932 C1939 0.950 . S
C1933 C1931 1.387 . S
C1933 C1935 1.390 . S
C1933 H1937 0.950 . S
H1934 C1930 0.950 . S
C1935 C1933 1.390 . S
C1935 C1936 1.387 . S
C1935 H1938 0.950 . S
C1936 C1935 1.387 . S
C1936 C1939 1.387 . S
H1937 C1933 0.950 . S
H1938 C1935 0.950 . S
C1939 C1930 1.390 . S
C1939 H1932 0.950 . S
C1939 C1936 1.387 . S
C1940 C1941 1.387 . S
C1940 H1944 0.950 . S
C1940 C1949 1.390 . S
C1941 C1940 1.387 . S
C1941 C1943 1.387 . S
H1942 C1949 0.950 1_545 S
C1943 C1941 1.387 . S
C1943 C1945 1.390 . S
C1943 H1947 0.950 . S
H1944 C1940 0.950 . S
C1945 C1943 1.390 . S
C1945 C1946 1.387 1_565 S
C1945 H1948 0.950 1_565 S
C1946 C1945 1.387 1_545 S
C1946 C1949 1.387 1_545 S
H1947 C1943 0.950 . S
H1948 C1945 0.950 1_545 S
C1949 C1940 1.390 . S
C1949 H1942 0.950 1_565 S
C1949 C1946 1.387 1_565 S
C1950 C1951 1.387 . S
C1950 H1954 0.950 . S
C1950 C1959 1.390 . S
C1951 C1950 1.387 . S
C1951 C1953 1.387 . S
H1952 C1959 0.950 . S
C1953 C1951 1.387 . S
C1953 C1955 1.390 . S
C1953 H1957 0.950 . S
H1954 C1950 0.950 . S
C1955 C1953 1.390 . S
C1955 C1956 1.387 . S
C1955 H1958 0.950 . S
C1956 C1955 1.387 . S
C1956 C1959 1.387 . S
H1957 C1953 0.950 . S
H1958 C1955 0.950 . S
C1959 C1950 1.390 . S
C1959 H1952 0.950 . S
C1959 C1956 1.387 . S
C1960 C1961 1.387 . S
C1960 H1964 0.950 . S
C1960 C1969 1.390 . S
C1961 C1960 1.387 . S
C1961 C1963 1.387 . S
H1962 C1969 0.950 . S
C1963 C1961 1.387 . S
C1963 C1965 1.390 . S
C1963 H1967 0.950 . S
H1964 C1960 0.950 . S
C1965 C1963 1.390 . S
C1965 C1966 1.387 . S
C1965 H1968 0.950 . S
C1966 C1965 1.387 . S
C1966 C1969 1.387 . S
H1967 C1963 0.950 . S
H1968 C1965 0.950 . S
C1969 C1960 1.390 . S
C1969 H1962 0.950 . S
C1969 C1966 1.387 . S
C1970 C1971 1.387 . S
C1970 H1974 0.950 . S
C1970 C1979 1.390 . S
C1971 C1970 1.387 . S
C1971 C1973 1.387 . S
H1972 C1979 0.950 . S
C1973 C1971 1.387 . S
C1973 C1975 1.390 . S
C1973 H1977 0.950 . S
H1974 C1970 0.950 . S
C1975 C1973 1.390 . S
C1975 C1976 1.387 . S
C1975 H1978 0.950 . S
C1976 C1975 1.387 . S
C1976 C1979 1.387 . S
H1977 C1973 0.950 . S
H1978 C1975 0.950 . S
C1979 C1970 1.390 . S
C1979 H1972 0.950 . S
C1979 C1976 1.387 . S
C1980 C1981 1.387 . S
C1980 H1984 0.950 . S
C1980 C1989 1.390 . S
C1981 C1980 1.387 . S
C1981 C1983 1.387 . S
H1982 C1989 0.950 1_545 S
C1983 C1981 1.387 . S
C1983 C1985 1.390 . S
C1983 H1987 0.950 . S
H1984 C1980 0.950 . S
C1985 C1983 1.390 . S
C1985 C1986 1.387 . S
C1985 H1988 0.950 . S
C1986 C1985 1.387 . S
C1986 C1989 1.387 . S
H1987 C1983 0.950 . S
H1988 C1985 0.950 . S
C1989 C1980 1.390 . S
C1989 H1982 0.950 1_565 S
C1989 C1986 1.387 . S
C1990 C1991 1.387 . S
C1990 H1994 0.950 . S
C1990 C1999 1.390 . S
C1991 C1990 1.387 . S
C1991 C1993 1.387 . S
H1992 C1999 0.950 . S
C1993 C1991 1.387 . S
C1993 C1995 1.390 . S
C1993 H1997 0.950 . S
H1994 C1990 0.950 . S
C1995 C1993 1.390 . S
C1995 C1996 1.387 . S
C1995 H1998 0.950 . S
C1996 C1995 1.387 . S
C1996 C1999 1.387 . S
H1997 C1993 0.950 . S
H1998 C1995 0.950 . S
C1999 C1990 1.390 . S
C1999 H1992 0.950 . S
C1999 C1996 1.387 . S
C2000 C2001 1.387 . S
C2000 H2004 0.950 . S
C2000 C2009 1.390 . S
C2001 C2000 1.387 . S
C2001 C2003 1.387 . S
H2002 C2009 0.950 . S
C2003 C2001 1.387 . S
C2003 C2005 1.390 . S
C2003 H2007 0.950 . S
H2004 C2000 0.950 . S
C2005 C2003 1.390 . S
C2005 C2006 1.387 . S
C2005 H2008 0.950 . S
C2006 C2005 1.387 . S
C2006 C2009 1.387 . S
H2007 C2003 0.950 . S
H2008 C2005 0.950 . S
C2009 C2000 1.390 . S
C2009 H2002 0.950 . S
C2009 C2006 1.387 . S
C2010 C2011 1.387 1_556 S
C2010 H2014 0.950 . S
C2010 C2019 1.390 . S
C2011 C2010 1.387 1_554 S
C2011 C2013 1.388 . S
H2012 C2019 0.950 1_545 S
C2013 C2011 1.388 . S
C2013 C2015 1.390 1_565 S
C2013 H2017 0.950 . S
H2014 C2010 0.950 . S
C2015 C2013 1.390 1_545 S
C2015 C2016 1.387 1_554 S
C2015 H2018 0.950 . S
C2016 C2015 1.387 1_556 S
C2016 C2019 1.387 1_545 S
H2017 C2013 0.950 . S
H2018 C2015 0.950 . S
C2019 C2010 1.390 . S
C2019 H2012 0.950 1_565 S
C2019 C2016 1.387 1_565 S
C2020 C2021 1.386 1_556 S
C2020 H2024 0.950 . S
C2020 C2029 1.390 . S
C2021 C2020 1.386 1_554 S
C2021 C2023 1.388 . S
H2022 C2029 0.950 1_655 S
C2023 C2021 1.388 . S
C2023 C2025 1.390 1_455 S
C2023 H2027 0.950 . S
H2024 C2020 0.950 . S
C2025 C2023 1.390 1_655 S
C2025 C2026 1.387 1_554 S
C2025 H2028 0.950 . S
C2026 C2025 1.387 1_556 S
C2026 C2029 1.387 1_655 S
H2027 C2023 0.950 . S
H2028 C2025 0.950 . S
C2029 C2020 1.390 . S
C2029 H2022 0.950 1_455 S
C2029 C2026 1.387 1_455 S
C2030 C2031 1.387 . S
C2030 H2034 0.950 . S
C2030 C2039 1.390 . S
C2031 C2030 1.387 . S
C2031 C2033 1.387 1_556 S
H2032 C2039 0.950 . S
C2033 C2031 1.387 1_554 S
C2033 C2035 1.390 . S
C2033 H2037 0.950 . S
H2034 C2030 0.950 . S
C2035 C2033 1.390 . S
C2035 C2036 1.388 1_554 S
C2035 H2038 0.950 . S
C2036 C2035 1.388 1_556 S
C2036 C2039 1.387 . S
H2037 C2033 0.950 . S
H2038 C2035 0.950 . S
C2039 C2030 1.390 . S
C2039 H2032 0.950 . S
C2039 C2036 1.387 . S
C2040 C2041 1.387 . S
C2040 H2044 0.950 . S
C2040 C2049 1.390 . S
C2041 C2040 1.387 . S
C2041 C2043 1.387 . S
H2042 C2049 0.950 . S
C2043 C2041 1.387 . S
C2043 C2045 1.390 . S
C2043 H2047 0.950 . S
H2044 C2040 0.950 . S
C2045 C2043 1.390 . S
C2045 C2046 1.387 . S
C2045 H2048 0.950 . S
C2046 C2045 1.387 . S
C2046 C2049 1.387 . S
H2047 C2043 0.950 . S
H2048 C2045 0.950 . S
C2049 C2040 1.390 . S
C2049 H2042 0.950 . S
C2049 C2046 1.387 . S
C2050 C2051 1.387 . S
C2050 H2054 0.950 . S
C2050 C2059 1.390 . S
C2051 C2050 1.387 . S
C2051 C2053 1.387 . S
H2052 C2059 0.950 . S
C2053 C2051 1.387 . S
C2053 C2055 1.390 . S
C2053 H2057 0.950 . S
H2054 C2050 0.950 . S
C2055 C2053 1.390 . S
C2055 C2056 1.387 . S
C2055 H2058 0.950 1_655 S
C2056 C2055 1.387 . S
C2056 C2059 1.387 . S
H2057 C2053 0.950 . S
H2058 C2055 0.950 1_455 S
C2059 C2050 1.390 . S
C2059 H2052 0.950 . S
C2059 C2056 1.387 . S
C2060 C2061 1.387 . S
C2060 H2064 0.950 . S
C2060 C2069 1.390 . S
C2061 C2060 1.387 . S
C2061 C2063 1.387 . S
H2062 C2069 0.950 . S
C2063 C2061 1.387 . S
C2063 C2065 1.390 . S
C2063 H2067 0.950 . S
H2064 C2060 0.950 . S
C2065 C2063 1.390 . S
C2065 C2066 1.387 . S
C2065 H2068 0.950 . S
C2066 C2065 1.387 . S
C2066 C2069 1.387 . S
H2067 C2063 0.950 . S
H2068 C2065 0.950 . S
C2069 C2060 1.390 . S
C2069 H2062 0.950 . S
C2069 C2066 1.387 . S
C2070 C2071 1.387 1_556 S
C2070 H2074 0.950 . S
C2070 C2079 1.390 1_565 S
C2071 C2070 1.387 1_554 S
C2071 C2073 1.387 1_565 S
H2072 C2079 0.950 . S
C2073 C2071 1.387 1_545 S
C2073 C2075 1.390 . S
C2073 H2077 0.950 1_545 S
H2074 C2070 0.950 . S
C2075 C2073 1.390 . S
C2075 C2076 1.390 . S
C2075 H2078 0.950 . S
C2076 C2075 1.390 . S
C2076 C2079 1.385 1_554 S
H2077 C2073 0.950 1_565 S
H2078 C2075 0.950 . S
C2079 C2070 1.390 1_545 S
C2079 H2072 0.950 . S
C2079 C2076 1.385 1_556 S
C2080 C2081 1.390 1_554 S
C2080 H2084 0.950 . S
C2080 C2089 1.390 . S
C2081 C2080 1.390 1_556 S
C2081 C2083 1.386 . S
H2082 C2089 0.950 1_455 S
C2083 C2081 1.386 . S
C2083 C2085 1.390 1_655 S
C2083 H2087 0.950 . S
H2084 C2080 0.950 . S
C2085 C2083 1.390 1_455 S
C2085 C2086 1.387 1_556 S
C2085 H2088 0.950 . S
C2086 C2085 1.387 1_554 S
C2086 C2089 1.387 1_455 S
H2087 C2083 0.950 . S
H2088 C2085 0.950 . S
C2089 C2080 1.390 . S
C2089 H2082 0.950 1_655 S
C2089 C2086 1.387 1_655 S
C2090 C2091 1.387 . S
C2090 H2094 0.950 . S
C2090 C2099 1.390 . S
C2091 C2090 1.387 . S
C2091 C2093 1.387 1_554 S
H2092 C2099 0.950 . S
C2093 C2091 1.387 1_556 S
C2093 C2095 1.390 . S
C2093 H2097 0.950 . S
H2094 C2090 0.950 . S
C2095 C2093 1.390 . S
C2095 C2096 1.389 1_556 S
C2095 H2098 0.950 . S
C2096 C2095 1.389 1_554 S
C2096 C2099 1.386 . S
H2097 C2093 0.950 . S
H2098 C2095 0.950 . S
C2099 C2090 1.390 . S
C2099 H2092 0.950 . S
C2099 C2096 1.386 . S
C2100 C2101 1.387 1_655 S
C2100 H2104 0.950 1_655 S
C2100 C2109 1.390 . S
C2101 C2100 1.387 1_455 S
C2101 C2103 1.387 . S
H2102 C2109 0.950 . S
C2103 C2101 1.387 . S
C2103 C2105 1.392 1_455 S
C2103 H2107 0.949 . S
H2104 C2100 0.950 1_455 S
C2105 C2103 1.392 1_655 S
C2105 C2106 1.387 . S
C2105 H2108 0.950 . S
C2106 C2105 1.387 . S
C2106 C2109 1.387 . S
H2107 C2103 0.949 . S
H2108 C2105 0.950 . S
C2109 C2100 1.390 . S
C2109 H2102 0.950 . S
C2109 C2106 1.387 . S
C2110 C2111 1.387 . S
C2110 H2114 0.950 . S
C2110 C2119 1.390 . S
C2111 C2110 1.387 . S
C2111 C2113 1.387 . S
H2112 C2119 0.950 . S
C2113 C2111 1.387 . S
C2113 C2115 1.390 . S
C2113 H2117 0.950 . S
H2114 C2110 0.950 . S
C2115 C2113 1.390 . S
C2115 C2116 1.387 . S
C2115 H2118 0.950 . S
C2116 C2115 1.387 . S
C2116 C2119 1.387 . S
H2117 C2113 0.950 . S
H2118 C2115 0.950 . S
C2119 C2110 1.390 . S
C2119 H2112 0.950 . S
C2119 C2116 1.387 . S
C2120 C2121 1.387 . S
C2120 H2124 0.950 . S
C2120 C2129 1.390 1_565 S
C2121 C2120 1.387 . S
C2121 C2123 1.387 1_565 S
H2122 C2129 0.950 . S
C2123 C2121 1.387 1_545 S
C2123 C2125 1.390 . S
C2123 H2127 0.950 1_545 S
H2124 C2120 0.950 . S
C2125 C2123 1.390 . S
C2125 C2126 1.387 . S
C2125 H2128 0.950 . S
C2126 C2125 1.387 . S
C2126 C2129 1.387 . S
H2127 C2123 0.950 1_565 S
H2128 C2125 0.950 . S
C2129 C2120 1.390 1_545 S
C2129 H2122 0.950 . S
C2129 C2126 1.387 . S
C2130 C2131 1.387 . S
C2130 H2134 0.950 . S
C2130 C2139 1.390 . S
C2131 C2130 1.387 . S
C2131 C2133 1.387 . S
H2132 C2139 0.950 . S
C2133 C2131 1.387 . S
C2133 C2135 1.390 . S
C2133 H2137 0.950 . S
H2134 C2130 0.950 . S
C2135 C2133 1.390 . S
C2135 C2136 1.387 . S
C2135 H2138 0.950 . S
C2136 C2135 1.387 . S
C2136 C2139 1.387 . S
H2137 C2133 0.950 . S
H2138 C2135 0.950 . S
C2139 C2130 1.390 . S
C2139 H2132 0.950 . S
C2139 C2136 1.387 . S
C2140 C2141 1.387 . S
C2140 H2144 0.950 . S
C2140 C2149 1.390 . S
C2141 C2140 1.387 . S
C2141 C2143 1.387 . S
H2142 C2149 0.950 . S
C2143 C2141 1.387 . S
C2143 C2145 1.390 . S
C2143 H2147 0.950 . S
H2144 C2140 0.950 . S
C2145 C2143 1.390 . S
C2145 C2146 1.387 . S
C2145 H2148 0.950 . S
C2146 C2145 1.387 . S
C2146 C2149 1.387 . S
H2147 C2143 0.950 . S
H2148 C2145 0.950 . S
C2149 C2140 1.390 . S
C2149 H2142 0.950 . S
C2149 C2146 1.387 . S
C2150 C2151 1.387 . S
C2150 H2154 0.950 . S
C2150 C2159 1.390 . S
C2151 C2150 1.387 . S
C2151 C2153 1.387 . S
H2152 C2159 0.950 . S
C2153 C2151 1.387 . S
C2153 C2155 1.390 . S
C2153 H2157 0.950 . S
H2154 C2150 0.950 . S
C2155 C2153 1.390 . S
C2155 C2156 1.387 . S
C2155 H2158 0.950 . S
C2156 C2155 1.387 . S
C2156 C2159 1.387 . S
H2157 C2153 0.950 . S
H2158 C2155 0.950 . S
C2159 C2150 1.390 . S
C2159 H2152 0.950 . S
C2159 C2156 1.387 . S
C2160 C2161 1.387 . S
C2160 H2164 0.950 . S
C2160 C2169 1.390 . S
C2161 C2160 1.387 . S
C2161 C2163 1.387 . S
H2162 C2169 0.950 . S
C2163 C2161 1.387 . S
C2163 C2165 1.390 . S
C2163 H2167 0.950 . S
H2164 C2160 0.950 . S
C2165 C2163 1.390 . S
C2165 C2166 1.387 . S
C2165 H2168 0.950 . S
C2166 C2165 1.387 . S
C2166 C2169 1.387 . S
H2167 C2163 0.950 . S
H2168 C2165 0.950 . S
C2169 C2160 1.390 . S
C2169 H2162 0.950 . S
C2169 C2166 1.387 . S
C2170 C2171 1.387 . S
C2170 H2174 0.950 . S
C2170 C2179 1.390 . S
C2171 C2170 1.387 . S
C2171 C2173 1.387 . S
H2172 C2179 0.950 . S
C2173 C2171 1.387 . S
C2173 C2175 1.390 . S
C2173 H2177 0.950 . S
H2174 C2170 0.950 . S
C2175 C2173 1.390 . S
C2175 C2176 1.387 . S
C2175 H2178 0.950 . S
C2176 C2175 1.387 . S
C2176 C2179 1.387 . S
H2177 C2173 0.950 . S
H2178 C2175 0.950 . S
C2179 C2170 1.390 . S
C2179 H2172 0.950 . S
C2179 C2176 1.387 . S
C2180 C2181 1.387 . S
C2180 H2184 0.950 . S
C2180 C2189 1.390 . S
C2181 C2180 1.387 . S
C2181 C2183 1.387 . S
H2182 C2189 0.950 . S
C2183 C2181 1.387 . S
C2183 C2185 1.390 . S
C2183 H2187 0.950 . S
H2184 C2180 0.950 . S
C2185 C2183 1.390 . S
C2185 C2186 1.387 . S
C2185 H2188 0.950 . S
C2186 C2185 1.387 . S
C2186 C2189 1.387 . S
H2187 C2183 0.950 . S
H2188 C2185 0.950 . S
C2189 C2180 1.390 . S
C2189 H2182 0.950 . S
C2189 C2186 1.387 . S
C2190 C2191 1.387 . S
C2190 H2194 0.950 . S
C2190 C2199 1.390 . S
C2191 C2190 1.387 . S
C2191 C2193 1.387 . S
H2192 C2199 0.950 . S
C2193 C2191 1.387 . S
C2193 C2195 1.390 . S
C2193 H2197 0.950 . S
H2194 C2190 0.950 . S
C2195 C2193 1.390 . S
C2195 C2196 1.387 . S
C2195 H2198 0.950 . S
C2196 C2195 1.387 . S
C2196 C2199 1.387 . S
H2197 C2193 0.950 . S
H2198 C2195 0.950 . S
C2199 C2190 1.390 . S
C2199 H2192 0.950 . S
C2199 C2196 1.387 . S
C2200 C2201 1.387 . S
C2200 H2204 0.950 . S
C2200 C2209 1.390 . S
C2201 C2200 1.387 . S
C2201 C2203 1.387 . S
H2202 C2209 0.943 1_565 S
C2203 C2201 1.387 . S
C2203 C2205 1.390 . S
C2203 H2207 0.950 . S
H2204 C2200 0.950 . S
C2205 C2203 1.390 . S
C2205 C2206 1.387 . S
C2205 H2208 0.950 . S
C2206 C2205 1.387 . S
C2206 C2209 1.387 . S
H2207 C2203 0.950 . S
H2208 C2205 0.950 . S
C2209 C2200 1.390 . S
C2209 H2202 0.943 1_545 S
C2209 C2206 1.387 . S
C2210 C2211 1.387 . S
C2210 H2214 0.950 . S
C2210 C2219 1.390 . S
C2211 C2210 1.387 . S
C2211 C2213 1.387 . S
H2212 C2219 0.950 . S
C2213 C2211 1.387 . S
C2213 C2215 1.390 . S
C2213 H2217 0.950 . S
H2214 C2210 0.950 . S
C2215 C2213 1.390 . S
C2215 C2216 1.387 . S
C2215 H2218 0.950 . S
C2216 C2215 1.387 . S
C2216 C2219 1.387 . S
H2217 C2213 0.950 . S
H2218 C2215 0.950 . S
C2219 C2210 1.390 . S
C2219 H2212 0.950 . S
C2219 C2216 1.387 . S
C2220 C2221 1.387 . S
C2220 H2224 0.950 . S
C2220 C2229 1.390 . S
C2221 C2220 1.387 . S
C2221 C2223 1.387 . S
H2222 C2229 0.950 . S
C2223 C2221 1.387 . S
C2223 C2225 1.390 . S
C2223 H2227 0.950 . S
H2224 C2220 0.950 . S
C2225 C2223 1.390 . S
C2225 C2226 1.387 . S
C2225 H2228 0.950 . S
C2226 C2225 1.387 . S
C2226 C2229 1.387 . S
H2227 C2223 0.950 . S
H2228 C2225 0.950 . S
C2229 C2220 1.390 . S
C2229 H2222 0.950 . S
C2229 C2226 1.387 . S
C2230 C2231 1.387 . S
C2230 H2234 0.950 . S
C2230 C2239 1.390 . S
C2231 C2230 1.387 . S
C2231 C2233 1.387 . S
H2232 C2239 0.950 . S
C2233 C2231 1.387 . S
C2233 C2235 1.390 . S
C2233 H2237 0.950 . S
H2234 C2230 0.950 . S
C2235 C2233 1.390 . S
C2235 C2236 1.387 . S
C2235 H2238 0.950 1_545 S
C2236 C2235 1.387 . S
C2236 C2239 1.387 . S
H2237 C2233 0.950 . S
H2238 C2235 0.950 1_565 S
C2239 C2230 1.390 . S
C2239 H2232 0.950 . S
C2239 C2236 1.387 . S
C2240 C2241 1.387 . S
C2240 H2244 0.950 . S
C2240 C2249 1.390 . S
C2241 C2240 1.387 . S
C2241 C2243 1.387 . S
H2242 C2249 0.950 . S
C2243 C2241 1.387 . S
C2243 C2245 1.390 . S
C2243 H2247 0.950 . S
H2244 C2240 0.950 . S
C2245 C2243 1.390 . S
C2245 C2246 1.387 . S
C2245 H2248 0.950 . S
C2246 C2245 1.387 . S
C2246 C2249 1.387 . S
H2247 C2243 0.950 . S
H2248 C2245 0.950 . S
C2249 C2240 1.390 . S
C2249 H2242 0.950 . S
C2249 C2246 1.387 . S
C2250 C2251 1.387 . S
C2250 H2254 0.950 . S
C2250 C2259 1.390 . S
C2251 C2250 1.387 . S
C2251 C2253 1.387 . S
H2252 C2259 0.950 . S
C2253 C2251 1.387 . S
C2253 C2255 1.390 . S
C2253 H2257 0.950 . S
H2254 C2250 0.950 . S
C2255 C2253 1.390 . S
C2255 C2256 1.387 . S
C2255 H2258 0.950 . S
C2256 C2255 1.387 . S
C2256 C2259 1.387 . S
H2257 C2253 0.950 . S
H2258 C2255 0.950 . S
C2259 C2250 1.390 . S
C2259 H2252 0.950 . S
C2259 C2256 1.387 . S
C2260 C2261 1.387 . S
C2260 H2264 0.950 1_565 S
C2260 C2269 1.390 . S
C2261 C2260 1.387 . S
C2261 C2263 1.387 . S
H2262 C2269 0.950 . S
C2263 C2261 1.387 . S
C2263 C2265 1.390 . S
C2263 H2267 0.950 . S
H2264 C2260 0.950 1_545 S
C2265 C2263 1.390 . S
C2265 C2266 1.387 . S
C2265 H2268 0.950 . S
C2266 C2265 1.387 . S
C2266 C2269 1.387 . S
H2267 C2263 0.950 . S
H2268 C2265 0.950 . S
C2269 C2260 1.390 . S
C2269 H2262 0.950 . S
C2269 C2266 1.387 . S
C2270 C2271 1.387 . S
C2270 H2274 0.950 . S
C2270 C2279 1.390 . S
C2271 C2270 1.387 . S
C2271 C2273 1.387 . S
H2272 C2279 0.950 . S
C2273 C2271 1.387 . S
C2273 C2275 1.390 . S
C2273 H2277 0.950 . S
H2274 C2270 0.950 . S
C2275 C2273 1.390 . S
C2275 C2276 1.387 . S
C2275 H2278 0.950 . S
C2276 C2275 1.387 . S
C2276 C2279 1.387 . S
H2277 C2273 0.950 . S
H2278 C2275 0.950 . S
C2279 C2270 1.390 . S
C2279 H2272 0.950 . S
C2279 C2276 1.387 . S
C2280 C2281 1.387 . S
C2280 H2284 0.950 . S
C2280 C2289 1.390 . S
C2281 C2280 1.387 . S
C2281 C2283 1.387 1_455 S
H2282 C2289 0.950 . S
C2283 C2281 1.387 1_655 S
C2283 C2285 1.390 . S
C2283 H2287 0.950 . S
H2284 C2280 0.950 . S
C2285 C2283 1.390 . S
C2285 C2286 1.387 . S
C2285 H2288 0.950 . S
C2286 C2285 1.387 . S
C2286 C2289 1.387 1_655 S
H2287 C2283 0.950 . S
H2288 C2285 0.950 . S
C2289 C2280 1.390 . S
C2289 H2282 0.950 . S
C2289 C2286 1.387 1_455 S
C2290 C2291 1.387 . S
C2290 H2294 0.950 . S
C2290 C2299 1.390 . S
C2291 C2290 1.387 . S
C2291 C2293 1.387 . S
H2292 C2299 0.950 . S
C2293 C2291 1.387 . S
C2293 C2295 1.390 . S
C2293 H2297 0.950 . S
H2294 C2290 0.950 . S
C2295 C2293 1.390 . S
C2295 C2296 1.387 . S
C2295 H2298 0.950 . S
C2296 C2295 1.387 . S
C2296 C2299 1.387 . S
H2297 C2293 0.950 . S
H2298 C2295 0.950 . S
C2299 C2290 1.390 . S
C2299 H2292 0.950 . S
C2299 C2296 1.387 . S
C2300 C2301 1.387 . S
C2300 H2304 0.950 . S
C2300 C2309 1.391 . S
C2301 C2300 1.387 . S
C2301 C2303 1.387 . S
H2302 C2309 0.948 1_545 S
C2303 C2301 1.387 . S
C2303 C2305 1.392 . S
C2303 H2307 0.950 . S
H2304 C2300 0.950 . S
C2305 C2303 1.392 . S
C2305 C2306 1.380 1_565 S
C2305 H2308 0.956 1_565 S
C2306 C2305 1.380 1_545 S
C2306 C2309 1.389 1_545 S
H2307 C2303 0.950 . S
H2308 C2305 0.956 1_545 S
C2309 C2300 1.391 . S
C2309 H2302 0.948 1_565 S
C2309 C2306 1.389 1_565 S
C2310 C2311 1.385 1_545 S
C2310 H2314 0.951 1_545 S
C2310 C2319 1.391 . S
C2311 C2310 1.385 1_565 S
C2311 C2313 1.393 1_565 S
H2312 C2319 0.950 . S
C2313 C2311 1.393 1_545 S
C2313 C2315 1.392 . S
C2313 H2317 0.942 1_545 S
H2314 C2310 0.951 1_565 S
C2315 C2313 1.392 . S
C2315 C2316 1.387 . S
C2315 H2318 0.950 . S
C2316 C2315 1.387 . S
C2316 C2319 1.387 . S
H2317 C2313 0.942 1_565 S
H2318 C2315 0.950 . S
C2319 C2310 1.391 . S
C2319 H2312 0.950 . S
C2319 C2316 1.387 . S
C2320 C2321 1.387 1_455 S
C2320 H2324 0.950 . S
C2320 C2329 1.390 . S
C2321 C2320 1.387 1_655 S
C2321 C2323 1.387 . S
H2322 C2329 0.950 . S
C2323 C2321 1.387 . S
C2323 C2325 1.390 . S
C2323 H2327 0.950 . S
H2324 C2320 0.950 . S
C2325 C2323 1.390 . S
C2325 C2326 1.387 1_655 S
C2325 H2328 0.950 . S
C2326 C2325 1.387 1_455 S
C2326 C2329 1.387 . S
H2327 C2323 0.950 . S
H2328 C2325 0.950 . S
C2329 C2320 1.390 . S
C2329 H2322 0.950 . S
C2329 C2326 1.387 . S
C2330 C2331 1.387 . S
C2330 H2334 0.950 . S
C2330 C2339 1.390 . S
C2331 C2330 1.387 . S
C2331 C2333 1.387 . S
H2332 C2339 0.950 . S
C2333 C2331 1.387 . S
C2333 C2335 1.390 . S
C2333 H2337 0.950 . S
H2334 C2330 0.950 . S
C2335 C2333 1.390 . S
C2335 C2336 1.387 . S
C2335 H2338 0.950 . S
C2336 C2335 1.387 . S
C2336 C2339 1.387 . S
H2337 C2333 0.950 . S
H2338 C2335 0.950 . S
C2339 C2330 1.390 . S
C2339 H2332 0.950 . S
C2339 C2336 1.387 . S
C2340 C2341 1.387 1_455 S
C2340 H2344 0.950 . S
C2340 C2349 1.390 . S
C2341 C2340 1.387 1_655 S
C2341 C2343 1.387 . S
H2342 C2349 0.950 . S
C2343 C2341 1.387 . S
C2343 C2345 1.390 . S
C2343 H2347 0.950 . S
H2344 C2340 0.950 . S
C2345 C2343 1.390 . S
C2345 C2346 1.387 1_655 S
C2345 H2348 0.950 . S
C2346 C2345 1.387 1_455 S
C2346 C2349 1.387 . S
H2347 C2343 0.950 . S
H2348 C2345 0.950 . S
C2349 C2340 1.390 . S
C2349 H2342 0.950 . S
C2349 C2346 1.387 . S
C2350 C2351 1.387 . S
C2350 H2354 0.950 . S
C2350 C2359 1.390 . S
C2351 C2350 1.387 . S
C2351 C2353 1.387 . S
H2352 C2359 0.950 . S
C2353 C2351 1.387 . S
C2353 C2355 1.390 . S
C2353 H2357 0.950 . S
H2354 C2350 0.950 . S
C2355 C2353 1.390 . S
C2355 C2356 1.387 . S
C2355 H2358 0.950 . S
C2356 C2355 1.387 . S
C2356 C2359 1.387 . S
H2357 C2353 0.950 . S
H2358 C2355 0.950 . S
C2359 C2350 1.390 . S
C2359 H2352 0.950 . S
C2359 C2356 1.387 . S
C2360 C2361 1.387 . S
C2360 H2364 0.950 . S
C2360 C2369 1.390 1_545 S
C2361 C2360 1.387 . S
C2361 C2363 1.387 . S
H2362 C2369 0.950 . S
C2363 C2361 1.387 . S
C2363 C2365 1.390 1_545 S
C2363 H2367 0.950 . S
H2364 C2360 0.950 . S
C2365 C2363 1.390 1_565 S
C2365 C2366 1.387 . S
C2365 H2368 0.950 . S
C2366 C2365 1.387 . S
C2366 C2369 1.387 . S
H2367 C2363 0.950 . S
H2368 C2365 0.950 . S
C2369 C2360 1.390 1_565 S
C2369 H2362 0.950 . S
C2369 C2366 1.387 . S
C2370 C2371 1.387 . S
C2370 H2374 0.950 . S
C2370 C2379 1.390 . S
C2371 C2370 1.387 . S
C2371 C2373 1.387 1_655 S
H2372 C2379 0.950 . S
C2373 C2371 1.387 1_455 S
C2373 C2375 1.390 . S
C2373 H2377 0.950 . S
H2374 C2370 0.950 . S
C2375 C2373 1.390 . S
C2375 C2376 1.387 . S
C2375 H2378 0.950 . S
C2376 C2375 1.387 . S
C2376 C2379 1.387 1_455 S
H2377 C2373 0.950 . S
H2378 C2375 0.950 . S
C2379 C2370 1.390 . S
C2379 H2372 0.950 . S
C2379 C2376 1.387 1_655 S
C2380 C2381 1.387 . S
C2380 H2384 0.950 . S
C2380 C2389 1.390 . S
C2381 C2380 1.387 . S
C2381 C2383 1.387 . S
H2382 C2389 0.950 . S
C2383 C2381 1.387 . S
C2383 C2385 1.390 . S
C2383 H2387 0.950 . S
H2384 C2380 0.950 . S
C2385 C2383 1.390 . S
C2385 C2386 1.387 . S
C2385 H2388 0.950 . S
C2386 C2385 1.387 . S
C2386 C2389 1.387 . S
H2387 C2383 0.950 . S
H2388 C2385 0.950 . S
C2389 C2380 1.390 . S
C2389 H2382 0.950 . S
C2389 C2386 1.387 . S
C2390 C2391 1.387 . S
C2390 H2394 0.950 . S
C2390 C2399 1.390 1_545 S
C2391 C2390 1.387 . S
C2391 C2393 1.387 . S
H2392 C2399 0.950 . S
C2393 C2391 1.387 . S
C2393 C2395 1.390 1_545 S
C2393 H2397 0.950 . S
H2394 C2390 0.950 . S
C2395 C2393 1.390 1_565 S
C2395 C2396 1.387 . S
C2395 H2398 0.950 . S
C2396 C2395 1.387 . S
C2396 C2399 1.387 . S
H2397 C2393 0.950 . S
H2398 C2395 0.950 . S
C2399 C2390 1.390 1_565 S
C2399 H2392 0.950 . S
C2399 C2396 1.387 . S
C2400 C2401 1.387 . S
C2400 H2404 0.950 . S
C2400 C2409 1.390 . S
C2401 C2400 1.387 . S
C2401 C2403 1.387 . S
H2402 C2409 0.950 . S
C2403 C2401 1.387 . S
C2403 C2405 1.390 . S
C2403 H2407 0.950 . S
H2404 C2400 0.950 . S
C2405 C2403 1.390 . S
C2405 C2406 1.387 . S
C2405 H2408 0.950 . S
C2406 C2405 1.387 . S
C2406 C2409 1.387 . S
H2407 C2403 0.950 . S
H2408 C2405 0.950 . S
C2409 C2400 1.390 . S
C2409 H2402 0.950 . S
C2409 C2406 1.387 . S
C2410 C2411 1.387 . S
C2410 H2414 0.950 . S
C2410 C2419 1.390 . S
C2411 C2410 1.387 . S
C2411 C2413 1.387 . S
H2412 C2419 0.950 . S
C2413 C2411 1.387 . S
C2413 C2415 1.390 . S
C2413 H2417 0.950 . S
H2414 C2410 0.950 . S
C2415 C2413 1.390 . S
C2415 C2416 1.387 . S
C2415 H2418 0.950 . S
C2416 C2415 1.387 . S
C2416 C2419 1.387 . S
H2417 C2413 0.950 . S
H2418 C2415 0.950 . S
C2419 C2410 1.390 . S
C2419 H2412 0.950 . S
C2419 C2416 1.387 . S
C2420 C2421 1.387 . S
C2420 H2424 0.950 . S
C2420 C2429 1.390 . S
C2421 C2420 1.387 . S
C2421 C2423 1.387 . S
H2422 C2429 0.950 . S
C2423 C2421 1.387 . S
C2423 C2425 1.390 . S
C2423 H2427 0.950 . S
H2424 C2420 0.950 . S
C2425 C2423 1.390 . S
C2425 C2426 1.387 . S
C2425 H2428 0.950 . S
C2426 C2425 1.387 . S
C2426 C2429 1.387 . S
H2427 C2423 0.950 . S
H2428 C2425 0.950 . S
C2429 C2420 1.390 . S
C2429 H2422 0.950 . S
C2429 C2426 1.387 . S
C2430 C2431 1.387 . S
C2430 H2434 0.950 . S
C2430 C2439 1.390 . S
C2431 C2430 1.387 . S
C2431 C2433 1.387 . S
H2432 C2439 0.950 . S
C2433 C2431 1.387 . S
C2433 C2435 1.390 . S
C2433 H2437 0.950 . S
H2434 C2430 0.950 . S
C2435 C2433 1.390 . S
C2435 C2436 1.387 . S
C2435 H2438 0.950 . S
C2436 C2435 1.387 . S
C2436 C2439 1.387 . S
H2437 C2433 0.950 . S
H2438 C2435 0.950 . S
C2439 C2430 1.390 . S
C2439 H2432 0.950 . S
C2439 C2436 1.387 . S
C2440 C2441 1.387 . S
C2440 H2444 0.950 . S
C2440 C2449 1.390 . S
C2441 C2440 1.387 . S
C2441 C2443 1.387 . S
H2442 C2449 0.950 . S
C2443 C2441 1.387 . S
C2443 C2445 1.390 . S
C2443 H2447 0.950 . S
H2444 C2440 0.950 . S
C2445 C2443 1.390 . S
C2445 C2446 1.387 . S
C2445 H2448 0.950 . S
C2446 C2445 1.387 . S
C2446 C2449 1.387 . S
H2447 C2443 0.950 . S
H2448 C2445 0.950 . S
C2449 C2440 1.390 . S
C2449 H2442 0.950 . S
C2449 C2446 1.387 . S
C2450 C2451 1.387 . S
C2450 H2454 0.950 . S
C2450 C2459 1.390 . S
C2451 C2450 1.387 . S
C2451 C2453 1.387 . S
H2452 C2459 0.950 . S
C2453 C2451 1.387 . S
C2453 C2455 1.390 . S
C2453 H2457 0.950 . S
H2454 C2450 0.950 . S
C2455 C2453 1.390 . S
C2455 C2456 1.387 . S
C2455 H2458 0.950 . S
C2456 C2455 1.387 . S
C2456 C2459 1.387 . S
H2457 C2453 0.950 . S
H2458 C2455 0.950 . S
C2459 C2450 1.390 . S
C2459 H2452 0.950 . S
C2459 C2456 1.387 . S
C2460 C2461 1.387 . S
C2460 H2464 0.950 . S
C2460 C2469 1.390 . S
C2461 C2460 1.387 . S
C2461 C2463 1.387 . S
H2462 C2469 0.950 . S
C2463 C2461 1.387 . S
C2463 C2465 1.390 . S
C2463 H2467 0.950 . S
H2464 C2460 0.950 . S
C2465 C2463 1.390 . S
C2465 C2466 1.387 . S
C2465 H2468 0.950 . S
C2466 C2465 1.387 . S
C2466 C2469 1.387 . S
H2467 C2463 0.950 . S
H2468 C2465 0.950 . S
C2469 C2460 1.390 . S
C2469 H2462 0.950 . S
C2469 C2466 1.387 . S
C2470 C2471 1.387 . S
C2470 H2474 0.950 . S
C2470 C2479 1.390 . S
C2471 C2470 1.387 . S
C2471 C2473 1.387 . S
H2472 C2479 0.950 . S
C2473 C2471 1.387 . S
C2473 C2475 1.390 . S
C2473 H2477 0.950 . S
H2474 C2470 0.950 . S
C2475 C2473 1.390 . S
C2475 C2476 1.387 . S
C2475 H2478 0.950 . S
C2476 C2475 1.387 . S
C2476 C2479 1.387 . S
H2477 C2473 0.950 . S
H2478 C2475 0.950 . S
C2479 C2470 1.390 . S
C2479 H2472 0.950 . S
C2479 C2476 1.387 . S
C2480 C2481 1.387 . S
C2480 H2484 0.950 . S
C2480 C2489 1.390 . S
C2481 C2480 1.387 . S
C2481 C2483 1.387 . S
H2482 C2489 0.950 . S
C2483 C2481 1.387 . S
C2483 C2485 1.390 . S
C2483 H2487 0.950 . S
H2484 C2480 0.950 . S
C2485 C2483 1.390 . S
C2485 C2486 1.387 . S
C2485 H2488 0.950 . S
C2486 C2485 1.387 . S
C2486 C2489 1.387 . S
H2487 C2483 0.950 . S
H2488 C2485 0.950 . S
C2489 C2480 1.390 . S
C2489 H2482 0.950 . S
C2489 C2486 1.387 . S
C2490 C2491 1.387 . S
C2490 H2494 0.950 . S
C2490 C2499 1.390 . S
C2491 C2490 1.387 . S
C2491 C2493 1.387 . S
H2492 C2499 0.950 . S
C2493 C2491 1.387 . S
C2493 C2495 1.390 . S
C2493 H2497 0.950 . S
H2494 C2490 0.950 . S
C2495 C2493 1.390 . S
C2495 C2496 1.387 . S
C2495 H2498 0.950 . S
C2496 C2495 1.387 . S
C2496 C2499 1.387 . S
H2497 C2493 0.950 . S
H2498 C2495 0.950 . S
C2499 C2490 1.390 . S
C2499 H2492 0.950 . S
C2499 C2496 1.387 . S
C2500 C2501 1.387 . S
C2500 H2504 0.950 . S
C2500 C2509 1.390 . S
C2501 C2500 1.387 . S
C2501 C2503 1.387 . S
H2502 C2509 0.950 . S
C2503 C2501 1.387 . S
C2503 C2505 1.390 . S
C2503 H2507 0.950 . S
H2504 C2500 0.950 . S
C2505 C2503 1.390 . S
C2505 C2506 1.387 . S
C2505 H2508 0.950 . S
C2506 C2505 1.387 . S
C2506 C2509 1.387 . S
H2507 C2503 0.950 . S
H2508 C2505 0.950 . S
C2509 C2500 1.390 . S
C2509 H2502 0.950 . S
C2509 C2506 1.387 . S
C2510 C2511 1.387 . S
C2510 H2514 0.950 . S
C2510 C2519 1.390 . S
C2511 C2510 1.387 . S
C2511 C2513 1.387 . S
H2512 C2519 0.950 . S
C2513 C2511 1.387 . S
C2513 C2515 1.390 . S
C2513 H2517 0.950 . S
H2514 C2510 0.950 . S
C2515 C2513 1.390 . S
C2515 C2516 1.387 . S
C2515 H2518 0.950 . S
C2516 C2515 1.387 . S
C2516 C2519 1.387 . S
H2517 C2513 0.950 . S
H2518 C2515 0.950 . S
C2519 C2510 1.390 . S
C2519 H2512 0.950 . S
C2519 C2516 1.387 . S
C1441 C18 1.683 . S
C1446 C89 1.794 1_545 S
C1451 C9 1.792 1_655 S
C1456 C58 1.685 1_545 S
C1461 C98 1.684 1_655 S
C1466 C49 1.792 . S
C1471 C138 1.750 . S
C1476 C169 1.859 1_455 S
C1481 C209 1.859 . S
C1486 C178 1.748 1_565 S
C1491 C218 1.751 1_455 S
C1496 C129 1.859 1_565 S
C1501 C248 1.683 . S
C1506 C339 1.794 1_565 S
C1511 C288 1.682 1_565 S
C1516 C259 1.793 1_455 S
C1521 C328 1.685 1_455 S
C1526 C299 1.792 . S
C1531 C368 1.750 . S
C1536 C419 1.859 1_655 S
C1541 C459 1.859 . S
C1546 C408 1.751 1_545 S
C1551 C379 1.858 1_545 S
C1556 C448 1.748 1_655 S
C1561 C569 1.850 . S
C1566 C498 1.739 . S
C1571 C538 1.738 . S
C1576 C489 1.849 . S
C1581 C529 1.850 . S
C1586 C578 1.740 . S
C1591 C618 1.766 . S
C1596 C649 1.874 . S
C1601 C689 1.874 . S
C1606 C658 1.765 . S
C1611 C609 1.874 . S
C1616 C698 1.767 . S
C1621 C728 1.714 . S
C1626 C819 1.822 . S
C1631 C768 1.711 . S
C1636 C739 1.819 . S
C1641 C779 1.820 . S
C1646 C808 1.710 . S
C1651 C899 1.724 . S
C1656 C848 1.632 1_554 S
C1661 C888 1.630 1_554 S
C1666 C939 1.722 . S
C1671 C859 1.722 . S
C1676 C928 1.630 1_554 S
C1681 C978 1.711 . S
C1686 C1049 1.821 . S
C1691 C1018 1.710 . S
C1696 C969 1.820 . S
C1701 C1058 1.713 . S
C1706 C1009 1.821 . S
C1711 C1098 1.634 1_556 S
C1716 C1129 1.723 . S
C1721 C1138 1.633 1_556 S
C1726 C1169 1.723 . S
C1731 C1178 1.630 1_556 S
C1736 C1089 1.722 . S
C1741 C1208 1.741 . S
C1746 C1299 1.851 . S
C1751 C1248 1.738 . S
C1756 C1219 1.849 . S
C1761 C1259 1.850 . S
C1766 C1288 1.737 . S
C1771 C1328 1.768 . S
C1776 C1379 1.874 . S
C1781 C1368 1.765 . S
C1786 C1419 1.874 . S
C1791 C1339 1.874 . S
C1796 C1408 1.767 . S
C1801 C19 1.850 . S
C1806 C818 1.828 . S
C1811 C738 1.830 1_565 S
C1816 C59 1.849 . S
C1821 C99 1.849 . S
C1826 C778 1.829 1_455 S
C1831 C139 1.770 . S
C1836 C1378 1.742 . S
C1841 C1418 1.740 1_545 S
C1846 C179 1.771 . S
C1851 C219 1.771 . S
C1856 C1338 1.742 1_655 S
C1861 C1048 1.829 . S
C1866 C249 1.849 . S
C1871 C289 1.850 . S
C1876 C968 1.828 1_545 S
C1881 C329 1.850 . S
C1886 C1008 1.828 1_655 S
C1891 C648 1.741 . S
C1896 C369 1.772 . S
C1901 C688 1.740 1_565 S
C1906 C409 1.771 . S
C1911 C608 1.742 1_455 S
C1916 C449 1.771 . S
C1921 C499 1.810 . S
C1926 C1298 1.785 . S
C1931 C539 1.811 . S
C1936 C1218 1.787 . S
C1941 C1258 1.785 . S
C1946 C579 1.809 . S
C1951 C418 1.776 . S
C1956 C619 1.804 1_455 S
C1961 C458 1.775 . S
C1966 C659 1.804 . S
C1971 C378 1.776 . S
C1976 C699 1.803 1_565 S
C1981 C88 1.825 . S
C1986 C729 1.844 1_565 S
C1991 C769 1.844 1_455 S
C1996 C8 1.824 . S
C2001 C809 1.844 . S
C2006 C48 1.824 . S
C2011 C1128 1.794 1_554 S
C2016 C849 1.837 . S
C2021 C1168 1.794 1_554 S
C2026 C889 1.837 . S
C2031 C929 1.838 . S
C2036 C1088 1.793 . S
C2041 C338 1.825 . S
C2046 C979 1.843 1_545 S
C2051 C258 1.826 . S
C2056 C1019 1.845 1_655 S
C2061 C298 1.825 . S
C2066 C1059 1.844 . S
C2071 C1099 1.837 . S
C2076 C898 1.791 . S
C2081 C938 1.794 1_556 S
C2086 C1139 1.835 . S
C2091 C1179 1.837 . S
C2096 C858 1.794 . S
C2101 C1209 1.810 . S
C2106 C568 1.786 . S
C2111 C1249 1.810 . S
C2116 C488 1.786 . S
C2121 C1289 1.810 . S
C2126 C528 1.784 . S
C2131 C1329 1.804 1_655 S
C2136 C168 1.776 . S
C2141 C208 1.776 . S
C2146 C1369 1.803 . S
C2151 C128 1.776 . S
C2156 C1409 1.804 1_545 S
C2161 C1175 2.231 . S
C2166 C15 2.225 . S
C2171 C1095 2.231 . S
C2176 C55 2.226 . S
C2181 C95 2.238 . S
C2186 C1135 2.216 . S
C2191 C535 2.395 . S
C2196 C135 2.392 . S
C2201 C175 2.393 . S
C2206 C575 2.395 . S
C2211 C215 2.391 . S
C2216 C495 2.393 . S
C2221 C245 2.237 . S
C2226 C925 2.216 . S
C2231 C285 2.239 . S
C2236 C845 2.218 . S
C2241 C325 2.238 . S
C2246 C885 2.217 . S
C2251 C1245 2.393 . S
C2256 C365 2.391 . S
C2261 C1285 2.393 . S
C2266 C405 2.391 . S
C2271 C1205 2.393 . S
C2276 C445 2.391 . S
C2281 C615 2.422 . S
C2286 C1015 2.427 . S
C2291 C655 2.424 . S
C2296 C1055 2.427 . S
C2301 C695 2.422 . S
C2306 C975 2.426 . S
C2311 C725 2.426 . S
C2316 C1405 2.422 . S
C2321 C1325 2.423 . S
C2326 C765 2.428 . S
C2331 C805 2.427 . S
C2336 C1365 2.422 . S
C2341 C165 1.258 . S
C2346 C5 1.261 . S
C2351 C205 1.259 . S
C2356 C45 1.261 . S
C2361 C125 1.259 . S
C2366 C85 1.260 . S
C2371 C255 1.259 . S
C2376 C415 1.259 . S
C2381 C455 1.259 . S
C2386 C295 1.260 . S
C2391 C335 1.260 . S
C2396 C375 1.258 . S
C2401 C645 1.321 . S
C2406 C485 1.322 . S
C2411 C685 1.321 . S
C2416 C525 1.322 . S
C2421 C605 1.321 . S
C2426 C565 1.322 . S
C2431 C895 1.531 . S
C2436 C735 1.563 . S
C2441 C775 1.551 . S
C2446 C935 1.543 . S
C2451 C815 1.551 . S
C2456 C855 1.544 . S
C2461 C965 1.550 . S
C2466 C1125 1.541 . S
C2471 C1165 1.530 . S
C2476 C1005 1.562 . S
C2481 C1045 1.550 . S
C2486 C1085 1.542 . S
C2491 C1215 1.322 . S
C2496 C1375 1.321 . S
C2501 C1415 1.321 . S
C2506 C1255 1.321 . S
C2511 C1295 1.322 . S
C2516 C1335 1.321 . S
