# Generated by pormake.
# Topology unp, (4)-cn, num edge types: 1
# Building blocks:
#     Node 0, Type 0, BuildingBlock: ICAMEG_clean_sbu_1, # of connection points: 4
#     Node 1, Type 0, BuildingBlock: ICAMEG_clean_sbu_1, # of connection points: 4
#     Node 2, Type 0, BuildingBlock: ICAMEG_clean_sbu_1, # of connection points: 4
#     Node 3, Type 0, BuildingBlock: ICAMEG_clean_sbu_1, # of connection points: 4
#     Node 4, Type 0, BuildingBlock: ICAMEG_clean_sbu_1, # of connection points: 4
#     Node 5, Type 0, BuildingBlock: ICAMEG_clean_sbu_1, # of connection points: 4
#     Node 6, Type 0, BuildingBlock: ICAMEG_clean_sbu_1, # of connection points: 4
#     Node 7, Type 0, BuildingBlock: ICAMEG_clean_sbu_1, # of connection points: 4
#     Node 8, Type 0, BuildingBlock: ICAMEG_clean_sbu_1, # of connection points: 4
#     Node 9, Type 0, BuildingBlock: ICAMEG_clean_sbu_1, # of connection points: 4
#     Node 10, Type 0, BuildingBlock: ICAMEG_clean_sbu_1, # of connection points: 4
#     Node 11, Type 0, BuildingBlock: ICAMEG_clean_sbu_1, # of connection points: 4
#     Node 12, Type 0, BuildingBlock: ICAMEG_clean_sbu_1, # of connection points: 4
#     Node 13, Type 0, BuildingBlock: ICAMEG_clean_sbu_1, # of connection points: 4
#     Node 14, Type 0, BuildingBlock: ICAMEG_clean_sbu_1, # of connection points: 4
#     Node 15, Type 0, BuildingBlock: ICAMEG_clean_sbu_1, # of connection points: 4
#     Node 16, Type 0, BuildingBlock: ICAMEG_clean_sbu_1, # of connection points: 4
#     Node 17, Type 0, BuildingBlock: ICAMEG_clean_sbu_1, # of connection points: 4
#     Edge 18, Type (0, 0), BuildingBlock: AJUNOK_clean_linker_0, # of connection points: 2
#     Edge 19, Type (0, 0), BuildingBlock: AJUNOK_clean_linker_0, # of connection points: 2
#     Edge 20, Type (0, 0), BuildingBlock: AJUNOK_clean_linker_0, # of connection points: 2
#     Edge 21, Type (0, 0), BuildingBlock: AJUNOK_clean_linker_0, # of connection points: 2
#     Edge 22, Type (0, 0), BuildingBlock: AJUNOK_clean_linker_0, # of connection points: 2
#     Edge 23, Type (0, 0), BuildingBlock: AJUNOK_clean_linker_0, # of connection points: 2
#     Edge 24, Type (0, 0), BuildingBlock: AJUNOK_clean_linker_0, # of connection points: 2
#     Edge 25, Type (0, 0), BuildingBlock: AJUNOK_clean_linker_0, # of connection points: 2
#     Edge 26, Type (0, 0), BuildingBlock: AJUNOK_clean_linker_0, # of connection points: 2
#     Edge 27, Type (0, 0), BuildingBlock: AJUNOK_clean_linker_0, # of connection points: 2
#     Edge 28, Type (0, 0), BuildingBlock: AJUNOK_clean_linker_0, # of connection points: 2
#     Edge 29, Type (0, 0), BuildingBlock: AJUNOK_clean_linker_0, # of connection points: 2
#     Edge 30, Type (0, 0), BuildingBlock: AJUNOK_clean_linker_0, # of connection points: 2
#     Edge 31, Type (0, 0), BuildingBlock: AJUNOK_clean_linker_0, # of connection points: 2
#     Edge 32, Type (0, 0), BuildingBlock: AJUNOK_clean_linker_0, # of connection points: 2
#     Edge 33, Type (0, 0), BuildingBlock: AJUNOK_clean_linker_0, # of connection points: 2
#     Edge 34, Type (0, 0), BuildingBlock: AJUNOK_clean_linker_0, # of connection points: 2
#     Edge 35, Type (0, 0), BuildingBlock: AJUNOK_clean_linker_0, # of connection points: 2
#     Edge 36, Type (0, 0), BuildingBlock: AJUNOK_clean_linker_0, # of connection points: 2
#     Edge 37, Type (0, 0), BuildingBlock: AJUNOK_clean_linker_0, # of connection points: 2
#     Edge 38, Type (0, 0), BuildingBlock: AJUNOK_clean_linker_0, # of connection points: 2
#     Edge 39, Type (0, 0), BuildingBlock: AJUNOK_clean_linker_0, # of connection points: 2
#     Edge 40, Type (0, 0), BuildingBlock: AJUNOK_clean_linker_0, # of connection points: 2
#     Edge 41, Type (0, 0), BuildingBlock: AJUNOK_clean_linker_0, # of connection points: 2
#     Edge 42, Type (0, 0), BuildingBlock: AJUNOK_clean_linker_0, # of connection points: 2
#     Edge 43, Type (0, 0), BuildingBlock: AJUNOK_clean_linker_0, # of connection points: 2
#     Edge 44, Type (0, 0), BuildingBlock: AJUNOK_clean_linker_0, # of connection points: 2
#     Edge 45, Type (0, 0), BuildingBlock: AJUNOK_clean_linker_0, # of connection points: 2
#     Edge 46, Type (0, 0), BuildingBlock: AJUNOK_clean_linker_0, # of connection points: 2
#     Edge 47, Type (0, 0), BuildingBlock: AJUNOK_clean_linker_0, # of connection points: 2
#     Edge 48, Type (0, 0), BuildingBlock: AJUNOK_clean_linker_0, # of connection points: 2
#     Edge 49, Type (0, 0), BuildingBlock: AJUNOK_clean_linker_0, # of connection points: 2
#     Edge 50, Type (0, 0), BuildingBlock: AJUNOK_clean_linker_0, # of connection points: 2
#     Edge 51, Type (0, 0), BuildingBlock: AJUNOK_clean_linker_0, # of connection points: 2
#     Edge 52, Type (0, 0), BuildingBlock: AJUNOK_clean_linker_0, # of connection points: 2
#     Edge 53, Type (0, 0), BuildingBlock: AJUNOK_clean_linker_0, # of connection points: 2
# Relax obj value: 0.379
# Max RMSD: 0.176
# Mean RMSD: 0.176
data_MOF--net-unp--node1-ICAMEG_clean_sbu_1--edge1-AJUNOK_clean_linker_0
_symmetry_space_group_name_H-M    P1
_symmetry_Int_Tables_number       1
_symmetry_cell_setting            triclinic
loop_
_symmetry_equiv_pos_as_xyz
'x, y, z'
_cell_length_a     38.969902
_cell_length_b     38.956098
_cell_length_c     48.702642
_cell_angle_alpha  89.940978
_cell_angle_beta   90.045811
_cell_angle_gamma 120.01407
loop_
_atom_site_label
_atom_site_type_symbol
_atom_site_fract_x
_atom_site_fract_y
_atom_site_fract_z
_atom_type_partial_charge
Co0 Co 0.14244 0.12159 0.09353 0.0
Co1 Co 0.1689 0.1511 0.16031 0.0
O2 O 0.18012 0.15681 0.12065 0.0
C3 C 0.19329 0.194 0.05895 0.0
O4 O 0.22262 0.20804 0.07656 0.0
C5 C 0.24388 0.15006 0.16013 0.0
O6 O 0.226 0.11585 0.14737 0.0
O7 O 0.15418 0.09368 0.16005 0.0
O8 O 0.1248 0.07612 0.11887 0.0
H9 H 0.09275 0.08902 0.24707 0.0
H10 H 0.23261 0.15898 0.09642 0.0
O11 O 0.15926 0.16508 0.0653 0.0
H12 H 0.18644 0.03162 0.0499 0.0
H13 H 0.0917 0.05043 0.00408 0.0
H14 H 0.06225 0.06283 0.09998 0.0
H15 H 0.13871 0.04945 0.06683 0.0
H16 H 0.13762 0.10779 0.0317 0.0
O17 O 0.22536 0.16795 0.1668 0.0
H18 H 0.1051 0.09396 0.19723 0.0
H19 H 0.21436 0.20044 0.20817 0.0
H20 H 0.97104 0.98063 0.09392 0.0
H21 H 0.28071 0.14131 0.08079 0.0
H22 H 0.03312 -0.00157 0.0237 0.0
H23 H 0.25838 0.07755 0.05669 0.0
O24 O 0.10214 0.13441 0.10881 0.0
H25 H 0.2505 0.29588 0.13661 0.0
H26 H 0.13015 0.19407 0.18343 0.0
H27 H 0.14488 0.26344 0.18293 0.0
H28 H 0.2055 0.31493 0.15946 0.0
H29 H 0.23442 0.22609 0.13736 0.0
H30 H 0.20357 0.1968 0.25823 0.0
H31 H 0.14228 0.14088 0.278 0.0
O32 O 0.11219 0.13378 0.15424 0.0
C33 C 0.13395 0.06768 0.1419 0.0
C34 C 0.11954 0.1136 0.23874 0.0
C35 C 0.18175 0.17403 0.24499 0.0
N36 N 0.16016 0.1474 0.19973 0.0
C37 C 0.12657 0.1165 0.21049 0.0
C38 C 0.18775 0.17586 0.21662 0.0
C39 C 0.14735 0.14267 0.25606 0.0
C40 C 0.22157 0.132 0.08496 0.0
N41 N 0.18189 0.10788 0.07975 0.0
C42 C 0.24954 0.12171 0.07661 0.0
C43 C 0.23704 0.08592 0.06323 0.0
C44 C 0.19677 0.06036 0.05923 0.0
C45 C 0.16966 0.07144 0.06819 0.0
C46 C 0.08395 0.0533 0.02496 0.0
C47 C 0.0664 0.05999 0.0784 0.0
C48 C 0.10967 0.0858 0.04048 0.0
N49 N 0.10239 0.08625 0.06766 0.0
C50 C 0.03518 0.02731 0.06342 0.0
C51 C 0.04927 0.02324 0.03686 0.0
C52 C 0.09082 0.13159 0.13382 0.0
C53 C 0.22408 0.27375 0.147 0.0
C54 C 0.15655 0.21628 0.17313 0.0
C55 C 0.16477 0.25553 0.17296 0.0
C56 C 0.19879 0.2844 0.15979 0.0
N57 N 0.18158 0.20607 0.16063 0.0
C58 C 0.21491 0.2342 0.14759 0.0
Co59 Co 0.87507 0.02499 0.09205 0.0
Co60 Co 0.83986 0.01823 0.15727 0.0
O61 O 0.8383 0.02806 0.11779 0.0
C62 C 0.80344 0.00642 0.05616 0.0
O63 O 0.78377 0.01196 0.07584 0.0
C64 C 0.84364 0.09495 0.15717 0.0
O65 O 0.87521 0.10834 0.14164 0.0
O66 O 0.89738 0.05949 0.15945 0.0
O67 O 0.91748 0.04522 0.12028 0.0
H68 H 0.89322 0.99073 0.24341 0.0
H69 H 0.83936 0.07763 0.08699 0.0
O70 O 0.83561 0.00644 0.06103 0.0
H71 H 0.9805 0.16339 0.06496 0.0
H72 H 0.95239 0.05234 0.00531 0.0
H73 H 0.92959 -0.00307 0.09822 0.0
H74 H 0.95483 0.09375 0.07744 0.0
H75 H 0.89589 0.0428 0.03232 0.0
O76 O 0.8251 0.05915 0.16523 0.0
H77 H 0.89205 0.00353 0.19394 0.0
H78 H 0.78883 0.01264 0.20456 0.0
H79 H 0.01612 0.99363 0.09418 0.0
H80 H 0.86422 0.14741 0.07588 0.0
H81 H -2e-05 0.03877 0.02381 0.0
H82 H 0.93521 0.19095 0.0642 0.0
O83 O 0.85573 0.96898 0.1043 0.0
H84 H 0.69768 0.96365 0.12936 0.0
H85 H 0.79232 0.93439 0.17631 0.0
H86 H 0.72223 0.88212 0.17248 0.0
H87 H 0.67434 0.89661 0.1489 0.0
H88 H 0.76816 0.01498 0.13345 0.0
H89 H 0.78887 9e-05 0.25421 0.0
H90 H 0.84126 0.98886 0.27393 0.0
O91 O 0.85505 0.97743 0.14988 0.0
C92 C 0.92447 0.06381 0.14282 0.0
C93 C 0.87024 0.9956 0.23508 0.0
C94 C 0.81171 0.0009 0.24114 0.0
N95 N 0.84051 0.00889 0.19636 0.0
C96 C 0.86948 0.00289 0.20707 0.0
C97 C 0.81193 0.00815 0.21303 0.0
C98 C 0.84109 0.99457 0.25219 0.0
C99 C 0.87013 0.09576 0.08182 0.0
N100 N 0.89482 0.08026 0.08142 0.0
C101 C 0.88416 0.13563 0.07563 0.0
C102 C 0.92395 0.16003 0.06911 0.0
C103 C 0.94929 0.14454 0.06937 0.0
C104 C 0.93429 0.10467 0.07605 0.0
C105 C 0.94765 0.0391 0.02551 0.0
C106 C 0.93535 0.00744 0.07731 0.0
C107 C 0.91544 0.03334 0.04071 0.0
N108 N 0.91147 0.02056 0.067 0.0
C109 C 0.96951 0.01061 0.06309 0.0
C110 C 0.97519 0.03041 0.03692 0.0
C111 C 0.85573 0.95798 0.12911 0.0
C112 C 0.71825 0.95699 0.13973 0.0
C113 C 0.77171 0.94092 0.16594 0.0
C114 C 0.73203 0.91121 0.16389 0.0
C115 C 0.70518 0.91937 0.15067 0.0
N116 N 0.78432 0.97775 0.15514 0.0
C117 C 0.75816 0.98597 0.14216 0.0
Co118 Co 0.97042 0.85297 0.09347 0.0
Co119 Co 0.96924 0.82423 0.15938 0.0
O120 O 0.96538 0.81311 0.11974 0.0
C121 C -0.00235 0.80385 0.06153 0.0
O122 O 0.98714 0.7766 0.08059 0.0
C123 C 0.89817 0.74516 0.15572 0.0
O124 O 0.88171 0.75988 0.13959 0.0
O125 O 0.92394 0.8345 0.15695 0.0
O126 O 0.94461 0.87241 0.11932 0.0
H127 H 0.96968 0.89722 0.24457 0.0
H128 H 0.92182 0.76446 0.08387 0.0
O129 O -0.00434 0.83515 0.06534 0.0
H130 H 0.83689 0.81735 0.05392 0.0
H131 H 0.94988 0.90436 0.0047 0.0
H132 H -0.00392 0.93487 0.09985 0.0
H133 H 0.90172 0.86133 0.0749 0.0
H134 H 0.9594 0.85748 0.03254 0.0
O135 O 0.93238 0.7672 0.16579 0.0
H136 H 0.96602 0.88455 0.19475 0.0
H137 H 0.97576 0.78213 0.20852 0.0
H138 H 0.00316 0.02578 0.09385 0.0
H139 H 0.85727 0.71958 0.06355 0.0
H140 H 0.96034 0.96485 0.02356 0.0
H141 H 0.8141 0.74583 0.04805 0.0
O142 O 0.02362 0.89013 0.10954 0.0
H143 H 0.04264 0.75198 0.13762 0.0
H144 H 0.0489 0.86596 0.18621 0.0
H145 H 0.10621 0.85545 0.18802 0.0
H146 H 0.10325 0.798 0.16371 0.0
H147 H 0.98619 0.76387 0.13612 0.0
H148 H 0.97913 0.79341 0.25853 0.0
H149 H 0.97642 0.8515 0.27684 0.0
O150 O 0.00727 0.88202 0.15403 0.0
C151 C 0.92173 0.85808 0.13985 0.0
C152 C 0.97114 0.87194 0.23684 0.0
C153 C 0.97641 0.81366 0.24467 0.0
N154 N 0.97149 0.83314 0.1987 0.0
C155 C 0.96924 0.86472 0.20864 0.0
C156 C 0.97445 0.80741 0.21634 0.0
C157 C 0.97488 0.84625 0.25493 0.0
C158 C 0.90445 0.77682 0.07644 0.0
N159 N 0.91766 0.8165 0.07866 0.0
C160 C 0.86724 0.75089 0.06532 0.0
C161 C 0.84297 0.76556 0.05677 0.0
C162 C 0.85574 0.80565 0.06005 0.0
C163 C 0.89287 0.83055 0.07167 0.0
C164 C 0.9613 0.91236 0.0254 0.0
C165 C 0.98813 0.93059 0.0784 0.0
C166 C 0.96702 0.88606 0.04105 0.0
N167 N 0.97695 0.89413 0.0679 0.0
C168 C 0.98632 0.96179 0.06344 0.0
C169 C 0.96808 0.948 0.03686 0.0
C170 C 0.03062 0.9018 0.13455 0.0
C171 C 0.04423 0.77701 0.14841 0.0
C172 C 0.04735 0.84088 0.17556 0.0
C173 C 0.07991 0.83508 0.17668 0.0
C174 C 0.07823 0.80286 0.16303 0.0
N175 N 0.01393 0.81518 0.16138 0.0
C176 C 0.01228 0.78379 0.14772 0.0
Co177 Co 0.1175 0.14351 0.90767 0.0
Co178 Co 0.14955 0.17084 0.84165 0.0
O179 O 0.15415 0.18208 0.88135 0.0
C180 C 0.19277 0.18994 0.94166 0.0
O181 O 0.21256 0.21566 0.92223 0.0
C182 C 0.15171 0.24695 0.84372 0.0
O183 O 0.11962 0.22994 0.85891 0.0
O184 O 0.09282 0.15758 0.84106 0.0
O185 O 0.07315 0.12516 0.88105 0.0
H186 H 0.08705 0.09349 0.75548 0.0
H187 H 0.16125 0.23212 0.91548 0.0
O188 O 0.15876 0.16003 0.93715 0.0
H189 H 0.0241 0.18761 0.94351 0.0
H190 H 0.04197 0.09635 0.99537 0.0
H191 H 0.05949 0.06284 0.90151 0.0
H192 H 0.04185 0.14001 0.92476 0.0
H193 H 0.09982 0.14144 0.96812 0.0
O194 O 0.16742 0.22739 0.83475 0.0
H195 H 0.09177 0.10663 0.80526 0.0
H196 H 0.19968 0.21488 0.79365 0.0
H197 H 0.9739 0.97307 0.90729 0.0
H198 H 0.14436 0.28067 0.93288 0.0
H199 H 0.99164 0.03641 0.97658 0.0
H200 H 0.0754 0.25862 0.94754 0.0
O201 O 0.13152 0.10375 0.89334 0.0
H202 H 0.29401 0.25101 0.86626 0.0
H203 H 0.19188 0.13075 0.81956 0.0
H204 H 0.2609 0.14457 0.82076 0.0
H205 H 0.31256 0.20515 0.84415 0.0
H206 H 0.22454 0.23582 0.86484 0.0
H207 H 0.19597 0.20304 0.7437 0.0
H208 H 0.13945 0.14187 0.72434 0.0
O209 O 0.13135 0.11395 0.84796 0.0
C210 C 0.06594 0.13558 0.85809 0.0
C211 C 0.11188 0.12021 0.76368 0.0
C212 C 0.17298 0.18172 0.75707 0.0
N213 N 0.1461 0.16136 0.80238 0.0
C214 C 0.11475 0.12778 0.79186 0.0
C215 C 0.17486 0.18831 0.78535 0.0
C216 C 0.14127 0.14738 0.74622 0.0
C217 C 0.13139 0.2217 0.92214 0.0
N218 N 0.10339 0.18236 0.92079 0.0
C219 C 0.12185 0.24966 0.93176 0.0
C220 C 0.08317 0.23733 0.93988 0.0
C221 C 0.05441 0.19751 0.93762 0.0
C222 C 0.06487 0.17054 0.92733 0.0
C223 C 0.04577 0.08764 0.975 0.0
C224 C 0.05527 0.06765 0.92273 0.0
C225 C 0.07856 0.11291 0.95969 0.0
N226 N 0.08094 0.10399 0.93314 0.0
C227 C 0.02143 0.03737 0.9374 0.0
C228 C 0.01667 0.05217 0.96352 0.0
C229 C 0.13001 0.09294 0.86835 0.0
C230 C 0.2718 0.22458 0.85593 0.0
C231 C 0.21414 0.1571 0.82988 0.0
C232 C 0.2532 0.16481 0.83043 0.0
C233 C 0.28217 0.19881 0.84355 0.0
N234 N 0.2042 0.18257 0.84201 0.0
C235 C 0.23243 0.2159 0.85498 0.0
Co236 Co 0.84897 0.97736 0.90847 0.0
Co237 Co 0.82059 0.97767 0.84213 0.0
O238 O 0.81031 0.97381 0.88189 0.0
C239 C 0.80251 0.00796 0.93991 0.0
O240 O 0.775 -0.00268 0.92108 0.0
C241 C 0.74276 0.90483 0.84617 0.0
O242 O 0.75941 0.88837 0.86032 0.0
O243 O 0.83236 0.93303 0.84353 0.0
O244 O 0.86551 0.94816 0.88343 0.0
H245 H 0.89531 0.98948 0.75498 0.0
H246 H 0.75962 0.93162 0.91574 0.0
O247 O 0.83349 0.00542 0.93596 0.0
H248 H 0.80551 0.84291 0.95013 0.0
H249 H 0.89943 0.9552 0.99728 0.0
H250 H 0.92881 -0.00143 0.90159 0.0
H251 H 0.8528 0.90741 0.93033 0.0
H252 H 0.85384 0.96769 0.96998 0.0
O253 O 0.76311 0.93994 0.8369 0.0
H254 H 0.88509 0.98586 0.805 0.0
H255 H 0.77314 0.97749 0.79409 0.0
H256 H 0.01911 0.00487 0.90698 0.0
H257 H 0.71172 0.86798 0.93566 0.0
H258 H 0.95772 0.96145 0.97738 0.0
H259 H 0.7343 0.82277 0.95331 0.0
O260 O 0.88876 0.02968 0.89199 0.0
H261 H 0.74937 0.05127 0.86668 0.0
H262 H 0.86068 0.05684 0.81489 0.0
H263 H 0.85 0.11406 0.81369 0.0
H264 H 0.79387 0.11146 0.8396 0.0
H265 H 0.76159 0.99501 0.86754 0.0
H266 H 0.78204 0.98103 0.7439 0.0
H267 H 0.84351 0.98712 0.72399 0.0
O268 O 0.8782 0.01556 0.84708 0.0
C269 C 0.85372 0.92827 0.86136 0.0
C270 C 0.86825 0.98652 0.76338 0.0
C271 C 0.80469 0.98174 0.75716 0.0
N272 N 0.82824 0.98051 0.80257 0.0
C273 C 0.86222 0.98418 0.79174 0.0
C274 C 0.79969 0.97943 0.78563 0.0
C275 C 0.8392 0.98522 0.74601 0.0
C276 C 0.77059 0.91372 0.92443 0.0
N277 N 0.81011 0.92566 0.92387 0.0
C278 C 0.74286 0.87689 0.93523 0.0
C279 C 0.75547 0.85146 0.94498 0.0
C280 C 0.79538 0.86279 0.94328 0.0
C281 C 0.8222 0.89981 0.93229 0.0
C282 C 0.90724 0.96619 0.97646 0.0
C283 C 0.92491 0.9915 0.92317 0.0
C284 C 0.88171 0.97352 0.96114 0.0
N285 N 0.88926 0.9823 0.9341 0.0
C286 C 0.95571 0.98889 0.93784 0.0
C287 C 0.94177 0.97071 0.96444 0.0
C288 C 0.89963 0.0367 0.86685 0.0
C289 C 0.77371 0.05265 0.85508 0.0
C290 C 0.83604 0.05533 0.8261 0.0
C291 C 0.8302 0.0879 0.82538 0.0
C292 C 0.79872 0.08643 0.83994 0.0
N293 N 0.81108 0.02209 0.84074 0.0
C294 C 0.78053 0.0207 0.85533 0.0
Co295 Co 0.01819 0.87713 0.90909 0.0
Co296 Co 0.01417 0.84339 0.84423 0.0
O297 O 0.02058 0.83994 0.88382 0.0
C298 C -0.00258 0.80506 0.9451 0.0
O299 O 0.00425 0.78579 0.92581 0.0
C300 C 0.08765 0.84017 0.84749 0.0
O301 O 0.10415 0.87444 0.86019 0.0
O302 O 0.05813 0.89984 0.84358 0.0
O303 O 0.04023 0.91984 0.88113 0.0
H304 H 0.00753 0.90666 0.75582 0.0
H305 H 0.0697 0.8397 0.91378 0.0
O306 O -0.00261 0.83715 0.93989 0.0
H307 H 0.1559 0.97914 0.94006 0.0
H308 H 0.04444 0.95386 0.99616 0.0
H309 H 0.99188 0.93283 0.90247 0.0
H310 H 0.08768 0.95574 0.92498 0.0
H311 H 0.035 0.89732 0.96903 0.0
O312 O 0.05242 0.82471 0.83844 0.0
H313 H 0.01508 0.90314 0.80583 0.0
H314 H 0.00483 0.78999 0.79759 0.0
H315 H 0.98734 0.01832 0.90689 0.0
H316 H 0.13852 0.8628 0.92642 0.0
H317 H 0.03123 0.00191 0.97739 0.0
H318 H 0.18218 0.93281 0.94049 0.0
O319 O 0.96324 0.85968 0.89521 0.0
H320 H 0.94744 0.6998 0.87188 0.0
H321 H 0.93233 0.80098 0.82103 0.0
H322 H 0.87654 0.73223 0.82274 0.0
H323 H 0.88397 0.68104 0.8482 0.0
H324 H 0.00229 0.769 0.86989 0.0
H325 H -0.00218 0.79243 0.7474 0.0
H326 H -0.00126 0.85092 0.72621 0.0
O327 O 0.97527 0.86192 0.84984 0.0
C328 C 0.06082 0.92692 0.85955 0.0
C329 C 0.00657 0.88078 0.76482 0.0
C330 C 0.00121 0.81672 0.76009 0.0
N331 N 0.00897 0.84586 0.80474 0.0
C332 C 0.01043 0.8785 0.79318 0.0
C333 C 0.00515 0.8155 0.78853 0.0
C334 C 0.00175 0.84955 0.74822 0.0
C335 C 0.0878 0.87011 0.9199 0.0
N336 N 0.07288 0.89532 0.92061 0.0
C337 C 0.1272 0.88314 0.92693 0.0
C338 C 0.1517 0.92238 0.93475 0.0
C339 C 0.13692 0.94832 0.93462 0.0
C340 C 0.09775 0.93453 0.92661 0.0
C341 C 0.03179 0.94942 0.97579 0.0
C342 C 0.00155 0.93794 0.92357 0.0
C343 C 0.0261 0.91724 0.96052 0.0
N344 N 0.01409 0.91373 0.93404 0.0
C345 C 0.00418 0.97164 0.93797 0.0
C346 C 0.02342 0.97715 0.96431 0.0
C347 C 0.9547 0.86243 0.87009 0.0
C348 C 0.94389 0.72179 0.86061 0.0
C349 C 0.93578 0.7789 0.83221 0.0
C350 C 0.90409 0.74 0.83306 0.0
C351 C 0.90828 0.7113 0.84735 0.0
N352 N 0.97076 0.78891 0.84507 0.0
C353 C 0.97492 0.76099 0.85932 0.0
Co354 Co 0.80459 0.44952 0.42666 0.0
Co355 Co 0.8323 0.48123 0.49247 0.0
O356 O 0.8429 0.48654 0.45278 0.0
C357 C 0.85155 0.5242 0.39233 0.0
O358 O 0.87618 0.54484 0.41206 0.0
C359 C 0.91053 0.48723 0.49024 0.0
O360 O 0.89439 0.45375 0.47653 0.0
O361 O 0.82138 0.42509 0.49242 0.0
O362 O 0.787 0.40522 0.45322 0.0
H363 H 0.75785 0.41589 0.57907 0.0
H364 H 0.89351 0.49398 0.4205 0.0
O365 O 0.82069 0.49088 0.39714 0.0
H366 H 0.85084 0.35866 0.38887 0.0
H367 H 0.75663 0.3734 0.33907 0.0
H368 H 0.72408 0.39062 0.43322 0.0
H369 H 0.80231 0.37484 0.40799 0.0
H370 H 0.80152 0.43144 0.36606 0.0
O371 O 0.88974 0.50192 0.49866 0.0
H372 H 0.76993 0.42164 0.52914 0.0
H373 H 0.87614 0.53157 0.5404 0.0
H374 H 0.63354 0.30565 0.4272 0.0
H375 H 0.94291 0.47838 0.40316 0.0
H376 H 0.69709 0.32284 0.35812 0.0
H377 H 0.92183 0.41046 0.38652 0.0
O378 O 0.76449 0.46275 0.44147 0.0
H379 H 0.90297 0.62545 0.46599 0.0
H380 H 0.79053 0.52016 0.5174 0.0
H381 H 0.80036 0.58778 0.51691 0.0
H382 H 0.85708 0.64108 0.49121 0.0
H383 H 0.89157 0.55722 0.46673 0.0
H384 H 0.86538 0.52685 0.59049 0.0
H385 H 0.80576 0.46878 0.61012 0.0
O386 O 0.77486 0.46078 0.4867 0.0
C387 C 0.79887 0.39807 0.47558 0.0
C388 C 0.7839 0.44137 0.57076 0.0
C389 C 0.84428 0.50361 0.57718 0.0
N390 N 0.82359 0.47699 0.53185 0.0
C391 C 0.79086 0.44482 0.54249 0.0
C392 C 0.85029 0.50605 0.54881 0.0
C393 C 0.81081 0.47104 0.58817 0.0
C394 C 0.88344 0.46445 0.41317 0.0
N395 N 0.84406 0.43629 0.41342 0.0
C396 C 0.91192 0.4557 0.4035 0.0
C397 C 0.90012 0.4176 0.39426 0.0
C398 C 0.86031 0.38858 0.39555 0.0
C399 C 0.83278 0.39821 0.40595 0.0
C400 C 0.74807 0.3772 0.35948 0.0
C401 C 0.72866 0.38661 0.41194 0.0
C402 C 0.77333 0.41013 0.37469 0.0
N403 N 0.76486 0.41246 0.40136 0.0
C404 C 0.69812 0.35296 0.39724 0.0
C405 C 0.71278 0.34804 0.37109 0.0
C406 C 0.7537 0.46009 0.4666 0.0
C407 C 0.87836 0.60258 0.47748 0.0
C408 C 0.81538 0.54319 0.50624 0.0
C409 C 0.82076 0.58144 0.50602 0.0
C410 C 0.85256 0.61131 0.49159 0.0
N411 N 0.84109 0.53494 0.49262 0.0
C412 C 0.87199 0.56397 0.47814 0.0
Co413 Co 0.5392 0.35245 0.42625 0.0
Co414 Co 0.50375 0.34683 0.49094 0.0
O415 O 0.50223 0.35566 0.45146 0.0
C416 C 0.46898 0.33608 0.38929 0.0
O417 O 0.44928 0.34241 0.40854 0.0
C418 C 0.50704 0.42359 0.4901 0.0
O419 O 0.54041 0.43779 0.47646 0.0
O420 O 0.56114 0.38822 0.49287 0.0
O421 O 0.5807 0.37092 0.45484 0.0
H422 H 0.56165 0.33194 0.57948 0.0
H423 H 0.50511 0.40676 0.42106 0.0
O424 O 0.50039 0.33491 0.39479 0.0
H425 H 0.64744 0.49068 0.40184 0.0
H426 H 0.61721 0.3804 0.3396 0.0
H427 H 0.59281 0.32297 0.43206 0.0
H428 H 0.62 0.42059 0.41382 0.0
H429 H 0.56122 0.37197 0.36691 0.0
O430 O 0.48864 0.3876 0.49788 0.0
H431 H 0.56076 0.34312 0.52972 0.0
H432 H 0.44935 0.33699 0.53705 0.0
H433 H 0.67855 0.31827 0.42742 0.0
H434 H 0.53183 0.47706 0.41079 0.0
H435 H 0.66371 0.36478 0.35785 0.0
H436 H 0.60344 0.51969 0.40051 0.0
O437 O 0.51914 0.29639 0.43878 0.0
H438 H 0.36152 0.29139 0.46279 0.0
H439 H 0.45635 0.26323 0.5106 0.0
H440 H 0.38624 0.21083 0.50706 0.0
H441 H 0.33826 0.22481 0.48309 0.0
H442 H 0.43198 0.3428 0.46654 0.0
H443 H 0.44917 0.32628 0.58697 0.0
H444 H 0.50543 0.32326 0.60848 0.0
O445 O 0.51917 0.30569 0.48442 0.0
C446 C 0.58799 0.38999 0.47713 0.0
C447 C 0.5367 0.33264 0.57031 0.0
C448 C 0.47362 0.32952 0.57452 0.0
N449 N 0.50434 0.33906 0.53029 0.0
C450 C 0.53587 0.33856 0.54208 0.0
C451 C 0.47384 0.33548 0.54622 0.0
C452 C 0.5052 0.32787 0.58657 0.0
C453 C 0.5361 0.4244 0.41632 0.0
N454 N 0.56014 0.40813 0.41619 0.0
C455 C 0.5512 0.46461 0.41069 0.0
C456 C 0.59136 0.48853 0.405 0.0
C457 C 0.616 0.47224 0.40565 0.0
C458 C 0.60002 0.43214 0.41198 0.0
C459 C 0.61214 0.36693 0.35975 0.0
C460 C 0.59884 0.33402 0.41128 0.0
C461 C 0.58019 0.36168 0.3751 0.0
N462 N 0.5756 0.34801 0.40122 0.0
C463 C 0.63272 0.33691 0.39692 0.0
C464 C 0.63897 0.35713 0.37091 0.0
C465 C 0.52021 0.28605 0.46375 0.0
C466 C 0.38213 0.28496 0.47333 0.0
C467 C 0.43571 0.26948 0.49998 0.0
C468 C 0.39602 0.23973 0.49813 0.0
C469 C 0.3691 0.2476 0.4847 0.0
N470 N 0.44825 0.30611 0.48885 0.0
C471 C 0.42205 0.314 0.47559 0.0
Co472 Co 0.63747 0.18047 0.42432 0.0
Co473 Co 0.63769 0.15392 0.49168 0.0
O474 O 0.63443 0.14232 0.45173 0.0
C475 C 0.66631 0.13385 0.39109 0.0
O476 O 0.66034 0.10812 0.41053 0.0
C477 C 0.56465 0.07751 0.48751 0.0
O478 O 0.55313 0.09309 0.46828 0.0
O479 O 0.59365 0.16652 0.48966 0.0
O480 O 0.60713 0.19632 0.44871 0.0
H481 H 0.6488 0.233 0.57626 0.0
H482 H 0.59338 0.09111 0.41952 0.0
O483 O 0.66596 0.16575 0.39634 0.0
H484 H 0.50341 0.13212 0.37995 0.0
H485 H 0.61425 0.23268 0.33633 0.0
H486 H 0.6578 0.25955 0.43193 0.0
H487 H 0.56713 0.18163 0.39934 0.0
H488 H 0.62776 0.187 0.36235 0.0
O489 O 0.5984 0.09744 0.49876 0.0
H490 H 0.64532 0.22008 0.52656 0.0
H491 H 0.63836 0.10939 0.54131 0.0
H492 H 0.66592 0.35067 0.42785 0.0
H493 H 0.52999 0.04095 0.40058 0.0
H494 H 0.6211 0.29085 0.3572 0.0
H495 H 0.48428 0.06103 0.38022 0.0
O496 O 0.68968 0.22119 0.44067 0.0
H497 H 0.70434 0.07426 0.47306 0.0
H498 H 0.71835 0.19475 0.51675 0.0
H499 H 0.7739 0.18153 0.51872 0.0
H500 H 0.76708 0.12088 0.49679 0.0
H501 H 0.64957 0.0888 0.47139 0.0
H502 H 0.64166 0.12097 0.59122 0.0
H503 H 0.64696 0.18318 0.60903 0.0
O504 O 0.67671 0.21098 0.48573 0.0
C505 C 0.58797 0.18621 0.47106 0.0
C506 C 0.64629 0.20568 0.56878 0.0
C507 C 0.64226 0.14281 0.57717 0.0
N508 N 0.6409 0.16375 0.53097 0.0
C509 C 0.64414 0.19815 0.54062 0.0
C510 C 0.64015 0.13631 0.54886 0.0
C511 C 0.64527 0.17773 0.58715 0.0
C512 C 0.57483 0.10093 0.41018 0.0
N513 N 0.58618 0.14035 0.40902 0.0
C514 C 0.53834 0.07193 0.39971 0.0
C515 C 0.51267 0.08317 0.38838 0.0
C516 C 0.52345 0.12301 0.38814 0.0
C517 C 0.56012 0.15112 0.3989 0.0
C518 C 0.62555 0.2401 0.35709 0.0
C519 C 0.65097 0.25623 0.41033 0.0
C520 C 0.63331 0.21432 0.37174 0.0
N521 N 0.64185 0.22087 0.39885 0.0
C522 C 0.64874 0.2876 0.39625 0.0
C523 C 0.63033 0.27442 0.36966 0.0
C524 C 0.69736 0.23221 0.46575 0.0
C525 C 0.70763 0.10075 0.48273 0.0
C526 C 0.71515 0.16834 0.50709 0.0
C527 C 0.7467 0.16098 0.50832 0.0
C528 C 0.74285 0.12694 0.49603 0.0
N529 N 0.6807 0.14251 0.494 0.0
C530 C 0.6767 0.10908 0.48191 0.0
Co531 Co 0.78532 0.47258 0.24258 0.0
Co532 Co 0.81807 0.5013 0.17692 0.0
O533 O 0.8215 0.51175 0.2166 0.0
C534 C 0.8602 0.52129 0.27613 0.0
O535 O 0.87777 0.5484 0.2571 0.0
C536 C 0.81951 0.57744 0.17874 0.0
O537 O 0.78574 0.55983 0.19208 0.0
O538 O 0.7612 0.48769 0.17604 0.0
O539 O 0.74106 0.45441 0.21586 0.0
H540 H 0.76112 0.42527 0.08929 0.0
H541 H 0.82619 0.56186 0.2496 0.0
O542 O 0.82738 0.48966 0.2716 0.0
H543 H 0.68847 0.51219 0.27834 0.0
H544 H 0.71087 0.4228 0.33048 0.0
H545 H 0.72738 0.39153 0.23577 0.0
H546 H 0.70901 0.46626 0.2608 0.0
H547 H 0.76844 0.46862 0.30323 0.0
O548 O 0.83621 0.55826 0.17084 0.0
H549 H 0.76424 0.43636 0.13923 0.0
H550 H 0.86822 0.54845 0.12979 0.0
H551 H 0.64162 0.30219 0.24062 0.0
H552 H 0.80704 0.60847 0.26719 0.0
H553 H 0.6602 0.3636 0.31127 0.0
H554 H 0.73768 0.58397 0.282 0.0
O555 O 0.80018 0.43371 0.22786 0.0
H556 H 0.9612 0.57759 0.20565 0.0
H557 H 0.86097 0.46284 0.15318 0.0
H558 H 0.92971 0.47593 0.15498 0.0
H559 H 0.98046 0.53379 0.18125 0.0
H560 H 0.89193 0.56295 0.20356 0.0
H561 H 0.86632 0.53872 0.0797 0.0
H562 H 0.81253 0.47671 0.05911 0.0
O563 O 0.79969 0.44422 0.18261 0.0
C564 C 0.73414 0.46569 0.19308 0.0
C565 C 0.78462 0.4525 0.09798 0.0
C566 C 0.84362 0.51618 0.0926 0.0
N567 N 0.81597 0.49317 0.13746 0.0
C568 C 0.78639 0.45897 0.12628 0.0
C569 C 0.84439 0.52162 0.12099 0.0
C570 C 0.81346 0.48136 0.08107 0.0
C571 C 0.79655 0.55014 0.25704 0.0
N572 N 0.76992 0.51036 0.25623 0.0
C573 C 0.78556 0.5771 0.26652 0.0
C574 C 0.74664 0.5634 0.27469 0.0
C575 C 0.7191 0.52317 0.27274 0.0
C576 C 0.73118 0.49714 0.26307 0.0
C577 C 0.71446 0.41459 0.3099 0.0
C578 C 0.72339 0.39588 0.25713 0.0
C579 C 0.74711 0.44027 0.29459 0.0
N580 N 0.74918 0.43206 0.26783 0.0
C581 C 0.68953 0.3652 0.2717 0.0
C582 C 0.68512 0.37945 0.29815 0.0
C583 C 0.79827 0.42296 0.20285 0.0
C584 C 0.93946 0.55248 0.19393 0.0
C585 C 0.88289 0.48818 0.16457 0.0
C586 C 0.92177 0.49541 0.16554 0.0
C587 C 0.95022 0.52786 0.18029 0.0
N588 N 0.87263 0.51271 0.17778 0.0
C589 C 0.90027 0.54427 0.19252 0.0
Co590 Co 0.51689 0.307 0.24132 0.0
Co591 Co 0.48789 0.30749 0.17505 0.0
O592 O 0.478 0.30366 0.21488 0.0
C593 C 0.47163 0.33923 0.27271 0.0
O594 O 0.44482 0.33007 0.25351 0.0
C595 C 0.41177 0.23458 0.18054 0.0
O596 O 0.42922 0.2213 0.19698 0.0
O597 O 0.50045 0.2636 0.17616 0.0
O598 O 0.53329 0.27777 0.21612 0.0
H599 H 0.55775 0.30992 0.08762 0.0
H600 H 0.42812 0.26335 0.2505 0.0
O601 O 0.50185 0.3353 0.26901 0.0
H602 H 0.47253 0.17305 0.28411 0.0
H603 H 0.56595 0.28399 0.33017 0.0
H604 H 0.59735 0.3281 0.23467 0.0
H605 H 0.51969 0.2359 0.26192 0.0
H606 H 0.52107 0.2967 0.30246 0.0
O607 O 0.43111 0.2687 0.16963 0.0
H608 H 0.54687 0.30505 0.13767 0.0
H609 H 0.44341 0.31376 0.1274 0.0
H610 H 0.68709 0.33314 0.24103 0.0
H611 H 0.38018 0.20083 0.2719 0.0
H612 H 0.62501 0.29095 0.31102 0.0
H613 H 0.40213 0.15499 0.28928 0.0
O614 O 0.55679 0.35908 0.22482 0.0
H615 H 0.40934 0.37438 0.19705 0.0
H616 H 0.52819 0.38866 0.1506 0.0
H617 H 0.51514 0.44439 0.15004 0.0
H618 H 0.45529 0.43742 0.17332 0.0
H619 H 0.42374 0.31953 0.19736 0.0
H620 H 0.4527 0.31819 0.07717 0.0
H621 H 0.51043 0.31664 0.05697 0.0
O622 O 0.54544 0.34633 0.17975 0.0
C623 C 0.52199 0.2588 0.19367 0.0
C624 C 0.53271 0.31106 0.09617 0.0
C625 C 0.47372 0.31562 0.09031 0.0
N626 N 0.49531 0.31035 0.13553 0.0
C627 C 0.52664 0.30866 0.12453 0.0
C628 C 0.46864 0.31314 0.11877 0.0
C629 C 0.50611 0.31474 0.07899 0.0
C630 C 0.43874 0.24487 0.25872 0.0
N631 N 0.47787 0.25556 0.25686 0.0
C632 C 0.41101 0.20878 0.27045 0.0
C633 C 0.42326 0.183 0.28005 0.0
C634 C 0.46273 0.19313 0.27715 0.0
C635 C 0.48947 0.22918 0.26486 0.0
C636 C 0.57422 0.29507 0.30942 0.0
C637 C 0.59295 0.32077 0.25623 0.0
C638 C 0.54905 0.30252 0.29384 0.0
N639 N 0.5571 0.31157 0.26688 0.0
C640 C 0.6234 0.31788 0.27124 0.0
C641 C 0.60899 0.29973 0.29777 0.0
C642 C 0.56741 0.36664 0.19966 0.0
C643 C 0.43549 0.37776 0.18679 0.0
C644 C 0.50221 0.38545 0.16093 0.0
C645 C 0.4949 0.41708 0.16046 0.0
C646 C 0.4613 0.41313 0.1735 0.0
N647 N 0.47671 0.3508 0.17398 0.0
C648 C 0.44374 0.34675 0.18684 0.0
Co649 Co 0.68191 0.20328 0.24196 0.0
Co650 Co 0.6808 0.17358 0.17585 0.0
O651 O 0.68631 0.16793 0.21563 0.0
C652 C 0.65525 0.12728 0.27465 0.0
O653 O 0.66402 0.10963 0.25522 0.0
C654 C 0.75455 0.17201 0.17992 0.0
O655 O 0.76555 0.19972 0.19867 0.0
O656 O 0.72396 0.23018 0.17666 0.0
O657 O 0.70692 0.24815 0.21564 0.0
H658 H 0.67028 0.24017 0.09034 0.0
H659 H 0.7298 0.16285 0.25246 0.0
O660 O 0.6575 0.1607 0.27068 0.0
H661 H 0.81746 0.3022 0.27798 0.0
H662 H 0.70815 0.27772 0.3297 0.0
H663 H 0.65679 0.25994 0.23586 0.0
H664 H 0.75184 0.28085 0.25818 0.0
H665 H 0.69514 0.21976 0.30255 0.0
O666 O 0.72058 0.15714 0.1688 0.0
H667 H 0.67656 0.23321 0.14014 0.0
H668 H 0.67497 0.12464 0.1272 0.0
H669 H 0.6561 0.34764 0.24079 0.0
H670 H 0.79501 0.18292 0.27185 0.0
H671 H 0.69933 0.32848 0.3108 0.0
H672 H 0.83957 0.25314 0.28507 0.0
O673 O 0.6281 0.18737 0.22691 0.0
H674 H 0.61785 0.02831 0.19757 0.0
H675 H 0.59885 0.13115 0.15273 0.0
H676 H 0.54428 0.06177 0.15264 0.0
H677 H 0.55363 0.00976 0.17512 0.0
H678 H 0.67157 0.09816 0.19741 0.0
H679 H 0.66911 0.13061 0.07721 0.0
H680 H 0.66652 0.18862 0.05849 0.0
O681 O 0.6412 0.19091 0.18184 0.0
C682 C 0.72684 0.25629 0.19362 0.0
C683 C 0.6713 0.21472 0.09825 0.0
C684 C 0.6707 0.15326 0.09087 0.0
N685 N 0.67597 0.17847 0.13658 0.0
C686 C 0.67478 0.21058 0.12644 0.0
C687 C 0.67415 0.1501 0.11918 0.0
C688 C 0.66923 0.1858 0.08039 0.0
C689 C 0.74782 0.19298 0.25897 0.0
N690 N 0.73511 0.21972 0.25595 0.0
C691 C 0.78537 0.20445 0.26953 0.0
C692 C 0.81044 0.24384 0.27679 0.0
C693 C 0.79805 0.27134 0.27281 0.0
C694 C 0.76053 0.25888 0.26179 0.0
C695 C 0.69561 0.27395 0.30933 0.0
C696 C 0.66602 0.26437 0.25706 0.0
C697 C 0.68786 0.24101 0.29409 0.0
N698 N 0.67661 0.23859 0.26751 0.0
C699 C 0.67052 0.29889 0.27151 0.0
C700 C 0.68968 0.30332 0.29777 0.0
C701 C 0.6201 0.19052 0.20188 0.0
C702 C 0.61344 0.05069 0.18767 0.0
C703 C 0.60311 0.10875 0.1627 0.0
C704 C 0.57213 0.06948 0.16249 0.0
C705 C 0.5774 0.04031 0.1751 0.0
N706 N 0.6384 0.1187 0.17506 0.0
C707 C 0.64378 0.09027 0.18746 0.0
Co708 Co 0.47097 0.7862 0.75906 0.0
Co709 Co 0.49745 0.81816 0.82467 0.0
O710 O 0.51023 0.82212 0.78527 0.0
C711 C 0.52266 0.86077 0.72576 0.0
O712 O 0.54855 0.87849 0.74549 0.0
C713 C 0.57454 0.8216 0.82437 0.0
O714 O 0.55879 0.78953 0.80912 0.0
O715 O 0.48467 0.76172 0.82527 0.0
O716 O 0.44897 0.743 0.78661 0.0
H717 H 0.41729 0.75505 0.9097 0.0
H718 H 0.55917 0.82373 0.74981 0.0
O719 O 0.49137 0.82736 0.72941 0.0
H720 H 0.50453 0.68173 0.7314 0.0
H721 H 0.42103 0.70889 0.67181 0.0
H722 H 0.38914 0.73224 0.76461 0.0
H723 H 0.46094 0.70667 0.7466 0.0
H724 H 0.46873 0.7657 0.69901 0.0
O725 O 0.55374 0.83622 0.83283 0.0
H726 H 0.43245 0.75987 0.86022 0.0
H727 H 0.5394 0.86857 0.8731 0.0
H728 H 0.29961 0.64633 0.76137 0.0
H729 H 0.60358 0.80016 0.7346 0.0
H730 H 0.35924 0.66186 0.69002 0.0
H731 H 0.57647 0.72856 0.72512 0.0
O732 O 0.43418 0.8046 0.77201 0.0
H733 H 0.57717 0.96213 0.79861 0.0
H734 H 0.45752 0.86095 0.84644 0.0
H735 H 0.47151 0.93003 0.84478 0.0
H736 H 0.5318 0.98123 0.82083 0.0
H737 H 0.56178 0.89259 0.80053 0.0
H738 H 0.52559 0.86473 0.92278 0.0
H739 H 0.46402 0.80778 0.94134 0.0
O740 O 0.44048 0.8003 0.81736 0.0
C741 C 0.46103 0.73522 0.80864 0.0
C742 C 0.44414 0.78009 0.90184 0.0
C743 C 0.50495 0.84162 0.90919 0.0
N744 N 0.48653 0.81469 0.86374 0.0
C745 C 0.45282 0.78304 0.87383 0.0
C746 C 0.51266 0.84358 0.88106 0.0
C747 C 0.47039 0.80967 0.91959 0.0
C748 C 0.54654 0.79295 0.74485 0.0
N749 N 0.50674 0.76734 0.74743 0.0
C750 C 0.57214 0.77954 0.73665 0.0
C751 C 0.55697 0.73938 0.73146 0.0
C752 C 0.51664 0.71313 0.73495 0.0
C753 C 0.49202 0.7276 0.74337 0.0
C754 C 0.41273 0.71387 0.692 0.0
C755 C 0.39362 0.72655 0.74366 0.0
C756 C 0.43953 0.74612 0.70726 0.0
N757 N 0.43059 0.75037 0.73345 0.0
C758 C 0.36243 0.69239 0.7295 0.0
C759 C 0.37606 0.68667 0.70319 0.0
C760 C 0.42135 0.80171 0.79658 0.0
C761 C 0.55088 0.94014 0.80921 0.0
C762 C 0.4838 0.88302 0.83594 0.0
C763 C 0.49158 0.92212 0.8351 0.0
C764 C 0.52541 0.95083 0.82166 0.0
N765 N 0.50911 0.87282 0.82386 0.0
C766 C 0.54211 0.90075 0.81045 0.0
Co767 Co 0.19745 0.68002 0.76008 0.0
Co768 Co 0.17314 0.6804 0.82763 0.0
O769 O 0.16241 0.68089 0.788 0.0
C770 C 0.12599 0.65792 0.7273 0.0
O771 O 0.12015 0.68221 0.74268 0.0
C772 C 0.16914 0.75043 0.84503 0.0
O773 O 0.20418 0.76439 0.85643 0.0
O774 O 0.22902 0.72633 0.82414 0.0
O775 O 0.24413 0.71244 0.78312 0.0
H776 H 0.25015 0.68579 0.91207 0.0
H777 H 0.19659 0.71716 0.70228 0.0
O778 O 0.15172 0.64849 0.73465 0.0
H779 H 0.21615 0.81688 0.7709 0.0
H780 H 0.26685 0.69578 0.6691 0.0
H781 H 0.26231 0.66791 0.7672 0.0
H782 H 0.20497 0.7524 0.78549 0.0
H783 H 0.20505 0.6705 0.69565 0.0
O784 O 0.15273 0.71723 0.83276 0.0
H785 H 0.2389 0.68706 0.86236 0.0
H786 H 0.12587 0.67421 0.87742 0.0
H787 H 0.34471 0.65924 0.76054 0.0
H788 H 0.20971 0.78133 0.68708 0.0
H789 H 0.3253 0.70343 0.69079 0.0
H790 H 0.21956 0.83257 0.72125 0.0
O791 O 0.19072 0.62968 0.77716 0.0
H792 H 0.02622 0.60425 0.80994 0.0
H793 H 0.13803 0.60166 0.85538 0.0
H794 H 0.07082 0.54363 0.85916 0.0
H795 H 0.01429 0.54479 0.83649 0.0
H796 H 0.09398 0.66132 0.80631 0.0
H797 H 0.13589 0.67316 0.92736 0.0
H798 H 0.19833 0.67876 0.94498 0.0
O799 O 0.19383 0.64365 0.82231 0.0
C800 C 0.25396 0.73155 0.80537 0.0
C801 C 0.22271 0.68308 0.90466 0.0
C802 C 0.15862 0.67604 0.91323 0.0
N803 N 0.18157 0.68002 0.86695 0.0
C804 C 0.21614 0.68357 0.8765 0.0
C805 C 0.15311 0.67664 0.88494 0.0
C806 C 0.19365 0.67919 0.92311 0.0
C807 C 0.20396 0.73885 0.71777 0.0
N808 N 0.20425 0.73062 0.74516 0.0
C809 C 0.21002 0.77556 0.7088 0.0
C810 C 0.21517 0.80414 0.72792 0.0
C811 C 0.21332 0.79536 0.75569 0.0
C812 C 0.20741 0.75842 0.76386 0.0
C813 C 0.26635 0.68968 0.69083 0.0
C814 C 0.26391 0.67333 0.74542 0.0
C815 C 0.23226 0.67811 0.7061 0.0
N816 N 0.23438 0.67761 0.73387 0.0
C817 C 0.29691 0.67564 0.73049 0.0
C818 C 0.29976 0.69269 0.70372 0.0
C819 C 0.1956 0.62346 0.80241 0.0
C820 C 0.05056 0.6035 0.8201 0.0
C821 C 0.1136 0.60241 0.84544 0.0
C822 C 0.0756 0.56946 0.84768 0.0
C823 C 0.04389 0.57013 0.83495 0.0
N824 N 0.11985 0.63526 0.83111 0.0
C825 C 0.08897 0.63587 0.81828 0.0
Co826 Co 0.30054 0.51832 0.76041 0.0
Co827 Co 0.31273 0.49016 0.82461 0.0
O828 O 0.30289 0.48013 0.78495 0.0
C829 C 0.33116 0.47712 0.72077 0.0
O830 O 0.3323 0.45231 0.73852 0.0
C831 C 0.23825 0.41496 0.82293 0.0
O832 O 0.22354 0.43304 0.80849 0.0
O833 O 0.26964 0.50384 0.82887 0.0
O834 O 0.27702 0.53561 0.7892 0.0
H835 H 0.33747 0.56573 0.91297 0.0
H836 H 0.26143 0.43186 0.74723 0.0
O837 O 0.32301 0.50355 0.72848 0.0
H838 H 0.15533 0.46503 0.74046 0.0
H839 H 0.2644 0.56499 0.67532 0.0
H840 H 0.32491 0.60045 0.76659 0.0
H841 H 0.2233 0.5164 0.75235 0.0
H842 H 0.26633 0.51621 0.70504 0.0
O843 O 0.27389 0.43357 0.83138 0.0
H844 H 0.32539 0.55447 0.86322 0.0
H845 H 0.32084 0.44365 0.87017 0.0
H846 H 0.33174 0.6914 0.76063 0.0
H847 H 0.1943 0.37996 0.73467 0.0
H848 H 0.29068 0.63091 0.68945 0.0
H849 H 0.14044 0.39622 0.73125 0.0
O850 O 0.3551 0.55927 0.77263 0.0
H851 H 0.37297 0.40913 0.79288 0.0
H852 H 0.39687 0.52903 0.84303 0.0
H853 H 0.45122 0.51442 0.83794 0.0
H854 H 0.43941 0.45402 0.81279 0.0
H855 H 0.31953 0.42507 0.79822 0.0
H856 H 0.33271 0.45356 0.92004 0.0
H857 H 0.34122 0.51501 0.94175 0.0
O858 O 0.35134 0.5471 0.81807 0.0
C859 C 0.26216 0.52519 0.8129 0.0
C860 C 0.3338 0.53882 0.90376 0.0
C861 C 0.33108 0.47585 0.90773 0.0
N862 N 0.32233 0.49845 0.8638 0.0
C863 C 0.32694 0.5323 0.87559 0.0
C864 C 0.32422 0.47034 0.87949 0.0
C865 C 0.33588 0.51035 0.9199 0.0
C866 C 0.23877 0.43974 0.74509 0.0
N867 N 0.247 0.47771 0.74978 0.0
C868 C 0.20049 0.40994 0.73827 0.0
C869 C 0.17026 0.41903 0.73647 0.0
C870 C 0.17858 0.45759 0.74165 0.0
C871 C 0.21719 0.48656 0.74849 0.0
C872 C 0.27891 0.5741 0.69507 0.0
C873 C 0.31419 0.59512 0.74578 0.0
C874 C 0.28092 0.54666 0.71163 0.0
N875 N 0.29876 0.55729 0.73646 0.0
C876 C 0.31334 0.62666 0.73056 0.0
C877 C 0.29401 0.6127 0.70426 0.0
C878 C 0.36775 0.56909 0.79728 0.0
C879 C 0.37846 0.43548 0.80395 0.0
C880 C 0.39151 0.50276 0.83196 0.0
C881 C 0.42239 0.4946 0.8292 0.0
C882 C 0.41574 0.4607 0.8151 0.0
N883 N 0.35499 0.47783 0.82103 0.0
C884 C 0.34827 0.44459 0.80711 0.0
Co885 Co 0.45176 0.80469 0.57474 0.0
Co886 Co 0.48441 0.83823 0.50999 0.0
O887 O 0.48819 0.84673 0.54997 0.0
C888 C 0.52523 0.85423 0.60993 0.0
O889 O 0.54595 0.87839 0.58998 0.0
C890 C 0.48459 0.91285 0.5156 0.0
O891 O 0.45629 0.89521 0.53381 0.0
O892 O 0.42743 0.82382 0.51041 0.0
O893 O 0.40951 0.7836 0.54672 0.0
H894 H 0.41996 0.76813 0.422 0.0
H895 H 0.48843 0.89122 0.58834 0.0
O896 O 0.49154 0.82375 0.6054 0.0
H897 H 0.34507 0.83528 0.602 0.0
H898 H 0.37477 0.75136 0.66115 0.0
H899 H 0.39707 0.72136 0.56738 0.0
H900 H 0.37128 0.79283 0.58653 0.0
H901 H 0.43062 0.79941 0.63412 0.0
O902 O 0.50001 0.8946 0.50408 0.0
H903 H 0.42491 0.77845 0.47211 0.0
H904 H 0.53572 0.88405 0.46279 0.0
H905 H 0.31 0.63154 0.57106 0.0
H906 H 0.46351 0.93441 0.60435 0.0
H907 H 0.32805 0.68958 0.64292 0.0
H908 H 0.3913 0.90662 0.61131 0.0
O909 O 0.47125 0.76966 0.55978 0.0
H910 H 0.62842 0.92158 0.53473 0.0
H911 H 0.52921 0.80167 0.4861 0.0
H912 H 0.599 0.81789 0.48692 0.0
H913 H 0.64918 0.87827 0.51132 0.0
H914 H 0.55819 0.90405 0.5336 0.0
H915 H 0.53191 0.87517 0.41253 0.0
H916 H 0.47385 0.81668 0.39183 0.0
O917 O 0.46851 0.78109 0.5148 0.0
C918 C 0.40124 0.79795 0.52615 0.0
C919 C 0.44561 0.79354 0.43078 0.0
C920 C 0.50841 0.85361 0.42546 0.0
N921 N 0.48108 0.8311 0.47044 0.0
C922 C 0.44866 0.79937 0.45916 0.0
C923 C 0.51043 0.85844 0.45395 0.0
C924 C 0.47582 0.82081 0.41386 0.0
C925 C 0.45715 0.8784 0.59196 0.0
N926 N 0.43177 0.83889 0.58766 0.0
C927 C 0.44311 0.90325 0.60075 0.0
C928 C 0.4026 0.88768 0.6046 0.0
C929 C 0.37668 0.84767 0.59944 0.0
C930 C 0.39182 0.82372 0.59077 0.0
C931 C 0.37942 0.74337 0.64079 0.0
C932 C 0.39157 0.72545 0.5885 0.0
C933 C 0.41132 0.77044 0.62555 0.0
N934 N 0.41556 0.76225 0.59915 0.0
C935 C 0.35756 0.69392 0.60275 0.0
C936 C 0.35231 0.70696 0.62945 0.0
C937 C 0.46933 0.75974 0.53443 0.0
C938 C 0.60684 0.89522 0.524 0.0
C939 C 0.55081 0.82789 0.4969 0.0
C940 C 0.59032 0.83699 0.49721 0.0
C941 C 0.61847 0.87089 0.51088 0.0
N942 N 0.53964 0.85193 0.50979 0.0
C943 C 0.56706 0.88521 0.52323 0.0
Co944 Co 0.18441 0.63695 0.57549 0.0
Co945 Co 0.15637 0.64536 0.51016 0.0
O946 O 0.14593 0.63711 0.54997 0.0
C947 C 0.13934 0.66565 0.61062 0.0
O948 O 0.11641 0.66484 0.5906 0.0
C949 C 0.07876 0.57261 0.51213 0.0
O950 O 0.09503 0.556 0.52653 0.0
O951 O 0.16834 0.60093 0.50773 0.0
O952 O 0.20014 0.61003 0.54776 0.0
H953 H 0.23269 0.66615 0.42252 0.0
H954 H 0.09596 0.59464 0.58326 0.0
O955 O 0.1693 0.66157 0.60595 0.0
H956 H 0.13547 0.49762 0.61021 0.0
H957 H 0.23409 0.60599 0.66109 0.0
H958 H 0.26452 0.65722 0.5673 0.0
H959 H 0.18529 0.56363 0.59394 0.0
H960 H 0.18923 0.62042 0.63562 0.0
O961 O 0.09943 0.60796 0.50347 0.0
H962 H 0.22095 0.65615 0.47232 0.0
H963 H 0.11073 0.65237 0.46347 0.0
H964 H 0.35515 0.66347 0.57108 0.0
H965 H 0.0455 0.52914 0.59936 0.0
H966 H 0.29335 0.61543 0.64123 0.0
H967 H 0.06488 0.47985 0.61321 0.0
O968 O 0.22506 0.69057 0.56156 0.0
H969 H 0.07995 0.71171 0.53938 0.0
H970 H 0.1972 0.72845 0.48918 0.0
H971 H 0.18483 0.78452 0.49221 0.0
H972 H 0.12574 0.7763 0.51735 0.0
H973 H 0.09373 0.65657 0.53611 0.0
H974 H 0.12121 0.6623 0.41352 0.0
H975 H 0.18259 0.66934 0.39271 0.0
O976 O 0.21351 0.68275 0.51621 0.0
C977 C 0.18921 0.59363 0.52437 0.0
C978 C 0.20574 0.66297 0.43131 0.0
C979 C 0.14317 0.66076 0.42626 0.0
N980 N 0.165 0.65315 0.47082 0.0
C981 C 0.19889 0.65716 0.45952 0.0
C982 C 0.1373 0.65491 0.45456 0.0
C983 C 0.17763 0.66476 0.41461 0.0
C984 C 0.10532 0.57416 0.5896 0.0
N985 N 0.14438 0.5843 0.58857 0.0
C986 C 0.07625 0.53668 0.59856 0.0
C987 C 0.0871 0.50902 0.60626 0.0
C988 C 0.12667 0.519 0.60463 0.0
C989 C 0.15488 0.55674 0.5955 0.0
C990 C 0.24245 0.61886 0.64081 0.0
C991 C 0.26053 0.64843 0.58855 0.0
C992 C 0.21701 0.62712 0.62641 0.0
N993 N 0.22466 0.63823 0.59977 0.0
C994 C 0.29167 0.64528 0.60256 0.0
C995 C 0.2775 0.62517 0.62862 0.0
C996 C 0.23537 0.70081 0.53663 0.0
C997 C 0.10572 0.71563 0.52828 0.0
C998 C 0.17148 0.72464 0.50023 0.0
C999 C 0.1646 0.7565 0.50183 0.0
C1000 C 0.13144 0.75186 0.51594 0.0
N1001 N 0.14598 0.68911 0.51226 0.0
C1002 C 0.11358 0.68445 0.52627 0.0
Co1003 Co 0.35045 0.53395 0.56677 0.0
Co1004 Co 0.35127 0.51192 0.49839 0.0
O1005 O 0.35208 0.50085 0.53782 0.0
C1006 C 0.32122 0.46053 0.60173 0.0
O1007 O 0.32679 0.43567 0.58685 0.0
C1008 C 0.42618 0.51184 0.50387 0.0
O1009 O 0.43928 0.54298 0.51983 0.0
O1010 O 0.39374 0.5693 0.50224 0.0
O1011 O 0.38505 0.58205 0.54561 0.0
H1012 H 0.34806 0.58532 0.41434 0.0
H1013 H 0.38836 0.48244 0.56809 0.0
O1014 O 0.31489 0.4864 0.5902 0.0
H1015 H 0.48438 0.60594 0.61375 0.0
H1016 H 0.37453 0.60245 0.65867 0.0
H1017 H 0.33326 0.59587 0.56314 0.0
H1018 H 0.42326 0.5991 0.59449 0.0
H1019 H 0.36524 0.548 0.62879 0.0
O1020 O 0.39192 0.49609 0.49302 0.0
H1021 H 0.34895 0.57363 0.46406 0.0
H1022 H 0.35382 0.46912 0.44853 0.0
H1023 H 0.32329 0.67675 0.57229 0.0
H1024 H 0.4483 0.48763 0.5877 0.0
H1025 H 0.36537 0.65433 0.64184 0.0
H1026 H 0.49712 0.54965 0.61107 0.0
O1027 O 0.30143 0.52887 0.54926 0.0
H1028 H 0.28546 0.36478 0.51451 0.0
H1029 H 0.27328 0.47174 0.46964 0.0
H1030 H 0.21918 0.40252 0.46499 0.0
H1031 H 0.22514 0.34845 0.48743 0.0
H1032 H 0.33859 0.43443 0.51889 0.0
H1033 H 0.35333 0.47961 0.3986 0.0
H1034 H 0.3502 0.53795 0.3812 0.0
O1035 O 0.31025 0.52767 0.50367 0.0
C1036 C 0.40169 0.59298 0.52244 0.0
C1037 C 0.34929 0.5597 0.42163 0.0
C1038 C 0.3523 0.50042 0.41281 0.0
N1039 N 0.35104 0.52067 0.45918 0.0
C1040 C 0.34968 0.55295 0.44977 0.0
C1041 C 0.35268 0.49469 0.4411 0.0
C1042 C 0.35053 0.53315 0.40306 0.0
C1043 C 0.40756 0.50865 0.5796 0.0
N1044 N 0.39914 0.53862 0.58273 0.0
C1045 C 0.4424 0.51182 0.59008 0.0
C1046 C 0.4699 0.54668 0.60297 0.0
C1047 C 0.46269 0.57816 0.60456 0.0
C1048 C 0.42748 0.57382 0.59384 0.0
C1049 C 0.36365 0.60058 0.63793 0.0
C1050 C 0.33902 0.59652 0.58484 0.0
C1051 C 0.35753 0.56926 0.62121 0.0
N1052 N 0.34772 0.56889 0.59446 0.0
C1053 C 0.34031 0.62828 0.60101 0.0
C1054 C 0.35786 0.63071 0.62759 0.0
C1055 C 0.29158 0.53018 0.52433 0.0
C1056 C 0.28262 0.38805 0.50447 0.0
C1057 C 0.27613 0.44839 0.47946 0.0
C1058 C 0.2454 0.40924 0.47673 0.0
C1059 C 0.24876 0.37891 0.48932 0.0
N1060 N 0.30943 0.45711 0.49418 0.0
C1061 C 0.31276 0.42754 0.50674 0.0
C1062 C 0.34876 0.232 0.16956 0.0
C1063 C 0.369 0.21159 0.17578 0.0
C1064 C 0.3082 0.21159 0.16465 0.0
C1065 C 0.28653 0.17001 0.16526 0.0
H1066 H 0.36425 0.2641 0.16873 0.0
H1067 H 0.29384 0.2286 0.16005 0.0
S1068 S 0.32553 0.10267 0.18051 0.0
N1069 N 0.36461 0.14763 0.18256 0.0
N1070 N 0.28774 0.10889 0.17262 0.0
C1071 C 0.30627 0.14907 0.17126 0.0
C1072 C 0.3477 0.17 0.17679 0.0
C1073 C 0.82893 0.13747 0.18672 0.0
C1074 C 0.82515 0.11888 0.16139 0.0
C1075 C 0.80712 0.1563 0.19222 0.0
C1076 C 0.78045 0.15615 0.17269 0.0
H1077 H 0.848 0.13652 0.20254 0.0
H1078 H 0.8099 0.16952 0.21226 0.0
S1079 S 0.7616 0.11218 0.10286 0.0
N1080 N 0.7944 0.1021 0.11643 0.0
N1081 N 0.75309 0.13732 0.12654 0.0
C1082 C 0.77737 0.13837 0.14699 0.0
C1083 C 0.79983 0.11966 0.1414 0.0
C1084 C 0.81747 0.63865 0.16683 0.0
C1085 C 0.83945 0.62017 0.1735 0.0
C1086 C 0.83661 0.67922 0.1606 0.0
C1087 C 0.87815 0.70247 0.16166 0.0
H1088 H 0.78542 0.62153 0.16586 0.0
H1089 H 0.81882 0.69249 0.15529 0.0
S1090 S 0.94878 0.66787 0.17911 0.0
N1091 N 0.90458 0.62792 0.18104 0.0
N1092 N 0.94049 0.70399 0.17044 0.0
C1093 C 0.90026 0.68423 0.16881 0.0
C1094 C 0.88089 0.64306 0.17446 0.0
C1095 C 0.23459 0.35072 0.83115 0.0
C1096 C 0.21477 0.37225 0.82805 0.0
C1097 C 0.21367 0.31012 0.83607 0.0
C1098 C 0.17223 0.2897 0.83863 0.0
H1099 H 0.26657 0.36521 0.82945 0.0
H1100 H 0.23024 0.29473 0.83817 0.0
S1101 S 0.10637 0.33244 0.83236 0.0
N1102 N 0.15146 0.37045 0.82765 0.0
N1103 N 0.11188 0.29358 0.83768 0.0
C1104 C 0.15192 0.31078 0.83582 0.0
C1105 C 0.17328 0.35223 0.83024 0.0
C1106 C 0.67933 0.8425 0.83648 0.0
C1107 C 0.69979 0.88346 0.84165 0.0
C1108 C 0.63863 0.82245 0.83066 0.0
C1109 C 0.61717 0.84267 0.83064 0.0
H1110 H 0.69503 0.82609 0.83627 0.0
H1111 H 0.62388 0.79097 0.82635 0.0
S1112 S 0.65718 0.94988 0.84437 0.0
N1113 N 0.6957 0.94333 0.84686 0.0
N1114 N 0.61938 0.90577 0.83712 0.0
C1115 C 0.63731 0.88348 0.8365 0.0
C1116 C 0.67864 0.90388 0.8417 0.0
C1117 C 0.16832 0.81335 0.85276 0.0
C1118 C 0.14797 0.7728 0.84619 0.0
C1119 C 0.14871 0.8352 0.85284 0.0
C1120 C 0.10826 0.81724 0.84612 0.0
H1121 H 0.19963 0.82843 0.85763 0.0
H1122 H 0.16544 0.86636 0.85812 0.0
S1123 S 0.04101 0.71107 0.82901 0.0
N1124 N 0.08456 0.71499 0.83445 0.0
N1125 N 0.04829 0.75616 0.83335 0.0
C1126 C 0.08758 0.77661 0.83961 0.0
C1127 C 0.1073 0.75434 0.84 0.0
C1128 C 0.97389 0.48866 0.50058 0.0
C1129 C 0.95337 0.50908 0.49532 0.0
C1130 C 0.01456 0.50938 0.50643 0.0
C1131 C 0.03596 0.55107 0.50643 0.0
H1132 H 0.95831 0.45655 0.5007 0.0
H1133 H 0.02936 0.49268 0.51065 0.0
S1134 S -0.00426 0.61813 0.49286 0.0
N1135 N 0.95728 0.57301 0.49024 0.0
N1136 N 0.03359 0.61193 0.50018 0.0
C1137 C 0.01572 0.5717 0.50072 0.0
C1138 C 0.97439 0.55067 0.49543 0.0
C1139 C 0.42869 0.45014 0.50555 0.0
C1140 C 0.44852 0.4912 0.50137 0.0
C1141 C 0.44834 0.42887 0.50248 0.0
C1142 C 0.48843 0.44787 0.49462 0.0
H1143 H 0.39774 0.43424 0.51131 0.0
H1144 H 0.43156 0.39711 0.50577 0.0
S1145 S 0.55339 0.55547 0.48138 0.0
N1146 N 0.51007 0.55065 0.48962 0.0
N1147 N 0.54746 0.51046 0.48304 0.0
C1148 C 0.50876 0.48918 0.49059 0.0
C1149 C 0.48869 0.51097 0.49423 0.0
C1150 C 0.52304 0.00686 0.47472 0.0
C1151 C 0.53983 0.03594 0.49522 0.0
C1152 C 0.50409 0.96663 0.4816 0.0
C1153 C 0.5004 0.95463 0.50916 0.0
H1154 H 0.52632 0.01524 0.45325 0.0
H1155 H 0.49291 0.94478 0.4653 0.0
S1156 S 0.53766 0.01942 0.57031 0.0
N1157 N 0.5508 0.05033 0.54404 0.0
N1158 N 0.51381 0.97442 0.55698 0.0
C1159 C 0.51555 0.98336 0.52986 0.0
C1160 C 0.53571 0.02424 0.52285 0.0
C1161 C 0.02986 0.13767 0.12878 0.0
C1162 C 0.04893 0.11839 0.13991 0.0
C1163 C 0.98936 0.12316 0.13375 0.0
C1164 C 0.96667 0.08864 0.14948 0.0
H1165 H 0.04599 0.16335 0.11568 0.0
H1166 H 0.97506 0.13749 0.12375 0.0
S1167 S 0.0033 0.02901 0.1844 0.0
N1168 N 0.04242 0.06406 0.16829 0.0
N1169 N 0.967 0.03804 0.17801 0.0
C1170 C 0.98613 0.07104 0.1622 0.0
C1171 C 0.02705 0.08542 0.15711 0.0
C1172 C 0.90268 0.94083 0.15012 0.0
C1173 C 0.86786 0.92849 0.13483 0.0
C1174 C 0.91751 0.9154 0.15514 0.0
C1175 C 0.89756 0.87633 0.14542 0.0
H1176 H 0.91975 0.97114 0.15694 0.0
H1177 H 0.9464 0.92738 0.1647 0.0
S1178 S 0.80146 0.8273 0.1086 0.0
N1179 N 0.81125 0.87345 0.11281 0.0
N1180 N 0.83878 0.82482 0.12271 0.0
C1181 C 0.86105 0.86256 0.13196 0.0
C1182 C 0.84625 0.88886 0.12645 0.0
C1183 C 0.12029 0.00304 0.12367 0.0
C1184 C 0.11887 0.02491 0.14618 0.0
C1185 C 0.09308 0.96269 0.1207 0.0
C1186 C 0.06414 0.94212 0.14076 0.0
H1187 H 0.1408 0.01785 0.10715 0.0
H1188 H 0.09359 0.9481 0.1019 0.0
S1189 S 0.05742 0.98287 0.2084 0.0
N1190 N 0.09261 0.02142 0.19181 0.0
N1191 N 0.04242 0.9448 0.18736 0.0
C1192 C 0.0665 0.96234 0.16547 0.0
C1193 C 0.09384 0.00393 0.16804 0.0
C1194 C 0.0638 0.98817 0.84462 0.0
C1195 C 0.08454 0.96891 0.85242 0.0
C1196 C 0.07969 0.0287 0.84922 0.0
C1197 C 0.11652 0.0512 0.86228 0.0
H1198 H 0.03372 0.9712 0.83702 0.0
H1199 H 0.06203 0.04211 0.84395 0.0
S1200 S 0.18552 0.01631 0.88218 0.0
N1201 N 0.14601 0.97621 0.87036 0.0
N1202 N 0.17572 0.05286 0.87955 0.0
C1203 C 0.13888 0.0331 0.8684 0.0
C1204 C 0.12292 0.99178 0.86324 0.0
C1205 C 0.00419 0.0797 0.84012 0.0
C1206 C 0.02367 0.11792 0.85149 0.0
C1207 C 0.96349 0.05429 0.84423 0.0
C1208 C 0.94111 0.06606 0.86027 0.0
H1209 H 0.02102 0.06829 0.82984 0.0
H1210 H 0.95 0.02435 0.83628 0.0
S1211 S 0.97655 0.16569 0.88969 0.0
N1212 N 0.01644 0.16843 0.87561 0.0
N1213 N 0.93997 0.12008 0.88411 0.0
C1214 C 0.95952 0.10511 0.86993 0.0
C1215 C 0.00082 0.13125 0.86524 0.0
C1216 C 0.89035 0.85967 0.88106 0.0
C1217 C 0.92341 0.87248 0.86386 0.0
C1218 C 0.86356 0.87343 0.87722 0.0
C1219 C 0.86948 0.90138 0.85667 0.0
H1220 H 0.88586 0.83999 0.89812 0.0
H1221 H 0.83939 0.86406 0.89157 0.0
S1222 S 0.94909 0.94139 0.80455 0.0
N1223 N 0.95809 0.91174 0.82359 0.0
N1224 N 0.90859 0.93837 0.81749 0.0
C1225 C 0.90051 0.91197 0.83813 0.0
C1226 C 0.92742 0.89752 0.84159 0.0
C1227 C 0.68932 0.40661 0.48313 0.0
C1228 C 0.71187 0.44539 0.47295 0.0
C1229 C 0.64895 0.39021 0.48857 0.0
C1230 C 0.62992 0.4123 0.48441 0.0
H1231 H 0.70258 0.38812 0.48554 0.0
H1232 H 0.63182 0.35901 0.49382 0.0
S1233 S 0.6775 0.51747 0.46286 0.0
N1234 N 0.71388 0.50723 0.46231 0.0
N1235 N 0.63741 0.47632 0.47273 0.0
C1236 C 0.65285 0.4522 0.47648 0.0
C1237 C 0.69405 0.4688 0.47058 0.0
C1238 C 0.52137 0.22481 0.44939 0.0
C1239 C 0.52915 0.25372 0.46933 0.0
C1240 C 0.53586 0.19855 0.45236 0.0
C1241 C 0.55999 0.20109 0.47473 0.0
H1242 H 0.5053 0.22338 0.43086 0.0
H1243 H 0.52989 0.17749 0.4362 0.0
S1244 S 0.58309 0.26634 0.53515 0.0
N1245 N 0.55718 0.27866 0.51473 0.0
N1246 N 0.58575 0.23047 0.51912 0.0
C1247 C 0.56461 0.22693 0.49608 0.0
C1248 C 0.5491 0.25316 0.49353 0.0
C1249 C 0.74341 0.33648 0.49403 0.0
C1250 C 0.78125 0.35568 0.48207 0.0
C1251 C 0.7171 0.29605 0.48941 0.0
C1252 C 0.72753 0.27356 0.4723 0.0
H1253 H 0.73289 0.35344 0.50518 0.0
H1254 H 0.68749 0.28292 0.4979 0.0
S1255 S 0.82588 0.30791 0.44104 0.0
N1256 N 0.83007 0.34778 0.45623 0.0
N1257 N 0.78009 0.27186 0.44686 0.0
C1258 C 0.76626 0.29157 0.46204 0.0
C1259 C 0.7933 0.3326 0.46721 0.0
C1260 C 0.73165 0.31848 0.17851 0.0
C1261 C 0.75117 0.29857 0.1876 0.0
C1262 C 0.74824 0.35922 0.18274 0.0
C1263 C 0.78441 0.38115 0.19674 0.0
H1264 H 0.70207 0.302 0.16995 0.0
H1265 H 0.73149 0.37323 0.17648 0.0
S1266 S 0.84958 0.34383 0.22118 0.0
N1267 N 0.81049 0.3043 0.20836 0.0
N1268 N 0.84126 0.38117 0.21705 0.0
C1269 C 0.80533 0.36216 0.20451 0.0
C1270 C 0.78879 0.32072 0.19968 0.0
C1271 C 0.66928 0.45805 0.2054 0.0
C1272 C 0.69188 0.44967 0.18692 0.0
C1273 C 0.62852 0.43194 0.20881 0.0
C1274 C 0.60881 0.39707 0.19321 0.0
H1275 H 0.68373 0.48362 0.21868 0.0
H1276 H 0.61272 0.43832 0.22442 0.0
S1277 S 0.65387 0.36405 0.13969 0.0
N1278 N 0.69106 0.40599 0.15131 0.0
N1279 N 0.6145 0.35744 0.15683 0.0
C1280 C 0.6305 0.39028 0.17291 0.0
C1281 C 0.67205 0.41659 0.16984 0.0
C1282 C 0.57501 0.24963 0.17417 0.0
C1283 C 0.53854 0.23307 0.18786 0.0
C1284 C 0.60024 0.23408 0.17778 0.0
C1285 C 0.59015 0.20198 0.19568 0.0
H1286 H 0.58551 0.27663 0.16239 0.0
H1287 H 0.62901 0.24904 0.16793 0.0
S1288 S 0.49462 0.14339 0.23182 0.0
N1289 N 0.49073 0.17906 0.21629 0.0
N1290 N 0.53905 0.15072 0.22403 0.0
C1291 C 0.55256 0.18332 0.20781 0.0
C1292 C 0.52648 0.19863 0.20359 0.0
C1293 C 0.31929 0.75919 0.82909 0.0
C1294 C 0.29661 0.76098 0.80739 0.0
C1295 C 0.36041 0.77523 0.82613 0.0
C1296 C 0.38007 0.79311 0.80126 0.0
H1297 H 0.3049 0.74233 0.8474 0.0
H1298 H 0.37623 0.77087 0.84281 0.0
S1299 S 0.33438 0.81106 0.74018 0.0
N1300 N 0.29736 0.78701 0.76184 0.0
N1301 N 0.3741 0.81634 0.75615 0.0
C1302 C 0.35811 0.79825 0.78048 0.0
C1303 C 0.31655 0.78247 0.78364 0.0
C1304 C 0.20202 0.52935 0.80533 0.0
C1305 C 0.23665 0.54127 0.82096 0.0
C1306 C 0.18845 0.55582 0.79924 0.0
C1307 C 0.20833 0.59463 0.80952 0.0
H1308 H 0.1873 0.50041 0.79579 0.0
H1309 H 0.16297 0.54622 0.78593 0.0
S1310 S 0.29583 0.63785 0.8558 0.0
N1311 N 0.2868 0.59237 0.84976 0.0
N1312 N 0.26156 0.64216 0.83876 0.0
C1313 C 0.24049 0.60546 0.82751 0.0
C1314 C 0.25431 0.57859 0.83342 0.0
C1315 C 0.40092 0.67331 0.81921 0.0
C1316 C 0.44206 0.69307 0.81517 0.0
C1317 C 0.37761 0.63299 0.81345 0.0
C1318 C 0.39449 0.61105 0.80343 0.0
H1319 H 0.3863 0.68986 0.82457 0.0
H1320 H 0.34583 0.61922 0.81547 0.0
S1321 S 0.50116 0.64777 0.79241 0.0
N1322 N 0.49928 0.68725 0.80268 0.0
N1323 N 0.45491 0.61059 0.79225 0.0
C1324 C 0.43575 0.62962 0.80096 0.0
C1325 C 0.4597 0.67093 0.80687 0.0
C1326 C 0.46736 0.69661 0.54736 0.0
C1327 C 0.46147 0.7192 0.52748 0.0
C1328 C 0.45257 0.65603 0.5435 0.0
C1329 C 0.43005 0.63601 0.52015 0.0
H1330 H 0.48179 0.70984 0.56664 0.0
H1331 H 0.45657 0.63972 0.55985 0.0
S1332 S 0.41431 0.68287 0.45904 0.0
N1333 N 0.43874 0.71973 0.48079 0.0
N1334 N 0.40897 0.64293 0.47472 0.0
C1335 C 0.42791 0.65882 0.49877 0.0
C1336 C 0.44391 0.70053 0.50226 0.0
C1337 C 0.2956 0.76863 0.53606 0.0
C1338 C 0.27722 0.72793 0.53032 0.0
C1339 C 0.33617 0.79361 0.53062 0.0
C1340 C 0.35913 0.77833 0.51952 0.0
H1341 H 0.2789 0.78087 0.5455 0.0
H1342 H 0.35029 0.82425 0.53721 0.0
S1343 S 0.32458 0.67384 0.5015 0.0
N1344 N 0.28443 0.67371 0.51244 0.0
N1345 N 0.36059 0.72041 0.50309 0.0
C1346 C 0.34045 0.73806 0.51268 0.0
C1347 C 0.29946 0.71286 0.51797 0.0
C1348 C 0.22871 0.52648 0.53938 0.0
C1349 C 0.25821 0.53757 0.51933 0.0
C1350 C 0.20136 0.53966 0.53801 0.0
C1351 C 0.20356 0.56602 0.51742 0.0
H1352 H 0.22773 0.50888 0.55692 0.0
H1353 H 0.18002 0.5313 0.55429 0.0
S1354 S 0.26701 0.59402 0.45555 0.0
N1355 N 0.28142 0.56825 0.47441 0.0
N1356 N 0.2312 0.59491 0.47309 0.0
C1357 C 0.22922 0.573 0.49534 0.0
C1358 C 0.25652 0.55856 0.49616 0.0
C1359 C 0.18102 0.21651 0.01391 0.0
C1360 C 0.2018 0.20243 0.02938 0.0
C1361 C 0.18174 0.21607 0.9851 0.0
C1362 C 0.20251 0.20072 0.97077 0.0
H1363 H 0.16259 0.22612 0.02413 0.0
H1364 H 0.1637 0.22535 0.97402 0.0
S1365 S 0.26111 0.15977 0.00175 0.0
N1366 N 0.24467 0.17378 0.02827 0.0
N1367 N 0.24426 0.17122 0.97413 0.0
C1368 C 0.22433 0.18769 0.98594 0.0
C1369 C 0.2244 0.18899 0.01528 0.0
C1370 C 0.76513 0.97989 0.9833 0.0
C1371 C 0.7942 0.01285 0.9686 0.0
C1372 C 0.76585 0.97889 0.01222 0.0
C1373 C 0.79548 0.01094 0.02707 0.0
H1374 H 0.74401 0.95344 0.97238 0.0
H1375 H 0.74505 0.95194 0.0228 0.0
S1376 S 0.87508 0.10564 0.99794 0.0
N1377 N 0.85094 0.07906 0.97086 0.0
N1378 N 0.85176 0.07788 0.02479 0.0
C1379 C 0.8225 0.04508 0.01247 0.0
C1380 C 0.82199 0.04589 0.98329 0.0
C1381 C 0.96828 0.76808 0.98908 0.0
C1382 C 0.00102 0.79702 0.97435 0.0
C1383 C 0.96897 0.76712 0.01801 0.0
C1384 C 0.00232 0.79524 0.03286 0.0
H1385 H 0.94117 0.74798 0.97837 0.0
H1386 H 0.94211 0.74661 0.02881 0.0
S1387 S 0.09662 0.87425 0.00391 0.0
N1388 N 0.06875 0.85176 0.97692 0.0
N1389 N 0.06942 0.85049 0.03086 0.0
C1390 C 0.0359 0.82236 0.0183 0.0
C1391 C 0.03537 0.82313 0.9891 0.0
C1392 C 0.87322 0.50188 0.32146 0.0
C1393 C 0.87147 0.53062 0.30519 0.0
C1394 C 0.87043 0.50254 0.35003 0.0
C1395 C 0.86492 0.53141 0.36345 0.0
H1396 H 0.87396 0.47713 0.31194 0.0
H1397 H 0.86984 0.4785 0.36145 0.0
S1398 S 0.86171 0.61521 0.33026 0.0
N1399 N 0.86741 0.59091 0.3045 0.0
N1400 N 0.861 0.59131 0.35852 0.0
C1401 C 0.86597 0.562 0.34765 0.0
C1402 C 0.86949 0.56176 0.31839 0.0
C1403 C 0.43323 0.31064 0.31574 0.0
C1404 C 0.46285 0.3437 0.30143 0.0
C1405 C 0.43301 0.30922 0.34467 0.0
C1406 C 0.46218 0.341 0.35999 0.0
H1407 H 0.41227 0.28442 0.30453 0.0
H1408 H 0.41173 0.28219 0.35495 0.0
S1409 S 0.54303 0.43589 0.33203 0.0
N1410 N 0.51982 0.40969 0.30458 0.0
N1411 N 0.51868 0.40788 0.35856 0.0
C1412 C 0.48981 0.37527 0.34577 0.0
C1413 C 0.49035 0.37643 0.31655 0.0
C1414 C 0.62623 0.11699 0.34844 0.0
C1415 C 0.66006 0.12119 0.36197 0.0
C1416 C 0.62278 0.11438 0.31988 0.0
C1417 C 0.65273 0.11512 0.3036 0.0
H1418 H 0.60325 0.11847 0.35972 0.0
H1419 H 0.59779 0.11472 0.31035 0.0
S1420 S 0.74536 0.121 0.32883 0.0
N1421 N 0.72264 0.12252 0.35707 0.0
N1422 N 0.71588 0.11665 0.30301 0.0
C1423 C 0.68521 0.11576 0.31685 0.0
C1424 C 0.68896 0.11901 0.34616 0.0
C1425 C 0.50392 0.87264 0.65253 0.0
C1426 C 0.53296 0.86778 0.63876 0.0
C1427 C 0.50366 0.87538 0.68107 0.0
C1428 C 0.53256 0.87356 0.69705 0.0
H1429 H 0.47933 0.87132 0.64146 0.0
H1430 H 0.47878 0.87562 0.69082 0.0
S1431 S 0.61712 0.86446 0.67119 0.0
N1432 N 0.59313 0.86426 0.64312 0.0
N1433 N 0.59285 0.86957 0.69723 0.0
C1434 C 0.5637 0.87194 0.6836 0.0
C1435 C 0.56384 0.86896 0.65428 0.0
C1436 C 0.12204 0.62705 0.65393 0.0
C1437 C 0.12531 0.65977 0.63936 0.0
C1438 C 0.11763 0.62432 0.68245 0.0
C1439 C 0.1159 0.65405 0.69761 0.0
H1440 H 0.12491 0.60422 0.64338 0.0
H1441 H 0.1185 0.60017 0.69288 0.0
S1442 S 0.11454 0.74158 0.66836 0.0
N1443 N 0.12043 0.71932 0.64139 0.0
N1444 N 0.11113 0.7141 0.69523 0.0
C1445 C 0.11428 0.68453 0.68289 0.0
C1446 C 0.11932 0.68748 0.65368 0.0
C1447 C 0.30697 0.48095 0.64614 0.0
C1448 C 0.31944 0.4578 0.63221 0.0
C1449 C 0.31459 0.48905 0.67383 0.0
C1450 C 0.32926 0.46982 0.69051 0.0
H1451 H 0.294 0.49595 0.63521 0.0
H1452 H 0.30951 0.51161 0.6818 0.0
S1453 S 0.36093 0.40027 0.66504 0.0
N1454 N 0.34669 0.41381 0.63705 0.0
N1455 N 0.35365 0.42326 0.69098 0.0
C1456 C 0.33881 0.44344 0.67742 0.0
C1457 C 0.33476 0.43811 0.64807 0.0
loop_
_geom_bond_atom_site_label_1
_geom_bond_atom_site_label_2
_geom_bond_distance
_geom_bond_site_symmetry_2
_ccdc_geom_bond_type
Co0 O2 2.143 . S
Co0 O8 2.074 . S
Co0 O11 2.093 . S
Co0 O24 2.097 . S
Co0 N41 2.151 . S
Co0 N49 2.214 . S
Co1 O2 2.160 . S
Co1 O7 2.058 . S
Co1 O17 2.057 . S
Co1 O32 2.037 . S
Co1 N36 2.145 . S
Co1 N57 2.257 . S
O2 Co0 2.143 . S
O2 Co1 2.160 . S
C3 O4 1.278 . S
C3 O11 1.224 . S
O4 C3 1.278 . S
C5 O6 1.245 . S
C5 O17 1.232 . S
O6 C5 1.245 . S
O7 Co1 2.058 . S
O7 C33 1.269 . S
O8 Co0 2.074 . S
O8 C33 1.257 . S
H9 C34 0.930 . S
H10 C40 0.930 . S
O11 Co0 2.093 . S
O11 C3 1.224 . S
H12 C44 0.929 . S
H13 C46 0.930 . S
H14 C47 0.930 . S
H15 C45 0.929 . S
H16 C48 0.928 . S
O17 Co1 2.057 . S
O17 C5 1.232 . S
H18 C37 0.929 . S
H19 C38 0.929 . S
H20 C50 0.925 1_665 S
H21 C42 0.929 . S
H22 C51 0.930 1_665 S
H23 C43 0.931 . S
O24 Co0 2.097 . S
O24 C52 1.214 . S
H25 C53 0.929 . S
H26 C54 0.929 . S
H27 C55 0.930 . S
H28 C56 0.929 . S
H29 C58 0.930 . S
H30 C35 0.930 . S
H31 C39 0.930 . S
O32 Co1 2.037 . S
O32 C52 1.234 . S
C33 O7 1.269 . S
C33 O8 1.257 . S
C34 H9 0.930 . S
C34 C37 1.388 . S
C34 C39 1.418 . S
C35 H30 0.930 . S
C35 C38 1.404 . S
C35 C39 1.353 . S
N36 Co1 2.145 . S
N36 C37 1.397 . S
N36 C38 1.334 . S
C37 H18 0.929 . S
C37 C34 1.388 . S
C37 N36 1.397 . S
C38 H19 0.929 . S
C38 C35 1.404 . S
C38 N36 1.334 . S
C39 H31 0.930 . S
C39 C34 1.418 . S
C39 C35 1.353 . S
C40 H10 0.930 . S
C40 N41 1.330 . S
C40 C42 1.446 . S
N41 Co0 2.151 . S
N41 C40 1.330 . S
N41 C45 1.418 . S
C42 H21 0.929 . S
C42 C40 1.446 . S
C42 C43 1.332 . S
C43 H23 0.931 . S
C43 C42 1.332 . S
C43 C44 1.267 . S
C44 H12 0.929 . S
C44 C43 1.267 . S
C44 C45 1.251 . S
C45 H15 0.929 . S
C45 N41 1.418 . S
C45 C44 1.251 . S
C46 H13 0.930 . S
C46 C48 1.406 . S
C46 C51 1.261 . S
C47 H14 0.930 . S
C47 N49 1.325 . S
C47 C50 1.357 . S
C48 H16 0.928 . S
C48 C46 1.406 . S
C48 N49 1.261 . S
N49 Co0 2.214 . S
N49 C47 1.325 . S
N49 C48 1.261 . S
C50 H20 0.925 1_445 S
C50 C47 1.357 . S
C50 C51 1.312 . S
C51 H22 0.930 1_445 S
C51 C46 1.261 . S
C51 C50 1.312 . S
C52 O24 1.214 . S
C52 O32 1.234 . S
C53 H25 0.929 . S
C53 C56 1.391 . S
C53 C58 1.391 . S
C54 H26 0.929 . S
C54 C55 1.390 . S
C54 N57 1.391 . S
C55 H27 0.930 . S
C55 C54 1.390 . S
C55 C56 1.392 . S
C56 H28 0.929 . S
C56 C53 1.391 . S
C56 C55 1.392 . S
N57 Co1 2.257 . S
N57 C54 1.391 . S
N57 C58 1.388 . S
C58 H29 0.930 . S
C58 C53 1.391 . S
C58 N57 1.388 . S
Co59 O61 2.143 . S
Co59 O67 2.074 . S
Co59 O70 2.093 1_545 S
Co59 O83 2.097 1_545 S
Co59 N100 2.151 . S
Co59 N108 2.214 . S
Co60 O61 2.160 1_565 S
Co60 O66 2.058 1_565 S
Co60 O76 2.057 1_565 S
Co60 O91 2.037 . S
Co60 N95 2.145 . S
Co60 N116 2.257 . S
O61 Co59 2.143 . S
O61 Co60 2.160 1_545 S
C62 O63 1.278 . S
C62 O70 1.224 . S
O63 C62 1.278 . S
C64 O65 1.245 . S
C64 O76 1.232 . S
O65 C64 1.245 . S
O66 Co60 2.058 1_545 S
O66 C92 1.269 . S
O67 Co59 2.074 . S
O67 C92 1.257 . S
H68 C93 0.930 . S
H69 C99 0.930 . S
O70 Co59 2.093 1_565 S
O70 C62 1.224 . S
H71 C103 0.929 . S
H72 C105 0.930 . S
H73 C106 0.928 1_565 S
H74 C104 0.929 . S
H75 C107 0.928 . S
O76 Co60 2.057 1_545 S
O76 C64 1.232 . S
H77 C96 0.929 . S
H78 C97 0.929 . S
H79 C109 0.931 1_465 S
H80 C101 0.929 . S
H81 C110 0.930 1_455 S
H82 C102 0.931 . S
O83 Co59 2.097 1_565 S
O83 C111 1.214 . S
H84 C112 0.929 . S
H85 C113 0.929 . S
H86 C114 0.930 . S
H87 C115 0.929 . S
H88 C117 0.930 . S
H89 C94 0.930 . S
H90 C98 0.930 . S
O91 Co60 2.037 . S
O91 C111 1.234 . S
C92 O66 1.269 . S
C92 O67 1.257 . S
C93 H68 0.930 . S
C93 C96 1.388 . S
C93 C98 1.418 . S
C94 H89 0.930 . S
C94 C97 1.404 . S
C94 C98 1.353 . S
N95 Co60 2.145 . S
N95 C96 1.397 . S
N95 C97 1.334 . S
C96 H77 0.929 . S
C96 C93 1.388 . S
C96 N95 1.397 . S
C97 H78 0.929 . S
C97 C94 1.404 . S
C97 N95 1.334 . S
C98 H90 0.930 . S
C98 C93 1.418 . S
C98 C94 1.353 . S
C99 H69 0.930 . S
C99 N100 1.330 . S
C99 C101 1.446 . S
N100 Co59 2.151 . S
N100 C99 1.330 . S
N100 C104 1.418 . S
C101 H80 0.929 . S
C101 C99 1.446 . S
C101 C102 1.332 . S
C102 H82 0.931 . S
C102 C101 1.332 . S
C102 C103 1.267 . S
C103 H71 0.929 . S
C103 C102 1.267 . S
C103 C104 1.251 . S
C104 H74 0.929 . S
C104 N100 1.418 . S
C104 C103 1.251 . S
C105 H72 0.930 . S
C105 C107 1.406 . S
C105 C110 1.261 . S
C106 H73 0.928 1_545 S
C106 N108 1.331 . S
C106 C109 1.353 . S
C107 H75 0.928 . S
C107 C105 1.406 . S
C107 N108 1.261 . S
N108 Co59 2.214 . S
N108 C106 1.331 . S
N108 C107 1.261 . S
C109 H79 0.931 1_645 S
C109 C106 1.353 . S
C109 C110 1.312 . S
C110 H81 0.930 1_655 S
C110 C105 1.261 . S
C110 C109 1.312 . S
C111 O83 1.214 . S
C111 O91 1.234 . S
C112 H84 0.929 . S
C112 C115 1.391 . S
C112 C117 1.391 . S
C113 H85 0.929 . S
C113 C114 1.390 . S
C113 N116 1.391 . S
C114 H86 0.930 . S
C114 C113 1.390 . S
C114 C115 1.392 . S
C115 H87 0.929 . S
C115 C112 1.391 . S
C115 C114 1.392 . S
N116 Co60 2.257 . S
N116 C113 1.391 . S
N116 C117 1.388 . S
C117 H88 0.930 . S
C117 C112 1.391 . S
C117 N116 1.388 . S
Co118 O120 2.143 . S
Co118 O126 2.074 . S
Co118 O129 2.093 1_655 S
Co118 O142 2.097 1_655 S
Co118 N159 2.151 . S
Co118 N167 2.214 . S
Co119 O120 2.160 1_455 S
Co119 O125 2.058 1_455 S
Co119 O135 2.057 1_455 S
Co119 O150 2.037 . S
Co119 N154 2.145 . S
Co119 N175 2.257 . S
O120 Co118 2.143 . S
O120 Co119 2.160 1_655 S
C121 O122 1.278 . S
C121 O129 1.224 . S
O122 C121 1.278 . S
C123 O124 1.245 . S
C123 O135 1.232 . S
O124 C123 1.245 . S
O125 Co119 2.058 1_655 S
O125 C151 1.269 . S
O126 Co118 2.074 . S
O126 C151 1.257 . S
H127 C152 0.930 . S
H128 C158 0.930 . S
O129 Co118 2.093 1_455 S
O129 C121 1.224 . S
H130 C162 0.929 . S
H131 C164 0.930 . S
H132 C165 0.934 . S
H133 C163 0.929 . S
H134 C166 0.928 . S
O135 Co119 2.057 1_655 S
O135 C123 1.232 . S
H136 C155 0.929 . S
H137 C156 0.929 . S
H138 C168 0.932 1_445 S
H139 C160 0.929 . S
H140 C169 0.930 1_545 S
H141 C161 0.931 . S
O142 Co118 2.097 1_455 S
O142 C170 1.214 . S
H143 C171 0.929 . S
H144 C172 0.929 . S
H145 C173 0.930 . S
H146 C174 0.929 . S
H147 C176 0.930 . S
H148 C153 0.930 . S
H149 C157 0.930 . S
O150 Co119 2.037 . S
O150 C170 1.234 . S
C151 O125 1.269 . S
C151 O126 1.257 . S
C152 H127 0.930 . S
C152 C155 1.388 . S
C152 C157 1.418 . S
C153 H148 0.930 . S
C153 C156 1.404 . S
C153 C157 1.353 . S
N154 Co119 2.145 . S
N154 C155 1.397 . S
N154 C156 1.334 . S
C155 H136 0.929 . S
C155 C152 1.388 . S
C155 N154 1.397 . S
C156 H137 0.929 . S
C156 C153 1.404 . S
C156 N154 1.334 . S
C157 H149 0.930 . S
C157 C152 1.418 . S
C157 C153 1.353 . S
C158 H128 0.930 . S
C158 N159 1.330 . S
C158 C160 1.446 . S
N159 Co118 2.151 . S
N159 C158 1.330 . S
N159 C163 1.418 . S
C160 H139 0.929 . S
C160 C158 1.446 . S
C160 C161 1.332 . S
C161 H141 0.931 . S
C161 C160 1.332 . S
C161 C162 1.267 . S
C162 H130 0.929 . S
C162 C161 1.267 . S
C162 C163 1.251 . S
C163 H133 0.929 . S
C163 N159 1.418 . S
C163 C162 1.251 . S
C164 H131 0.930 . S
C164 C166 1.406 . S
C164 C169 1.261 . S
C165 H132 0.934 . S
C165 N167 1.327 1_455 S
C165 C168 1.348 1_455 S
C166 H134 0.928 . S
C166 C164 1.406 . S
C166 N167 1.261 . S
N167 Co118 2.214 . S
N167 C165 1.327 1_655 S
N167 C166 1.261 . S
C168 H138 0.932 1_665 S
C168 C165 1.348 1_655 S
C168 C169 1.315 . S
C169 H140 0.930 1_565 S
C169 C164 1.261 . S
C169 C168 1.315 . S
C170 O142 1.214 . S
C170 O150 1.234 . S
C171 H143 0.929 . S
C171 C174 1.391 . S
C171 C176 1.391 . S
C172 H144 0.929 . S
C172 C173 1.390 . S
C172 N175 1.391 . S
C173 H145 0.930 . S
C173 C172 1.390 . S
C173 C174 1.392 . S
C174 H146 0.929 . S
C174 C171 1.391 . S
C174 C173 1.392 . S
N175 Co119 2.257 . S
N175 C172 1.391 . S
N175 C176 1.388 . S
C176 H147 0.930 . S
C176 C171 1.391 . S
C176 N175 1.388 . S
Co177 O179 2.143 . S
Co177 O185 2.074 . S
Co177 O188 2.093 . S
Co177 O201 2.097 . S
Co177 N218 2.151 . S
Co177 N226 2.214 . S
Co178 O179 2.160 . S
Co178 O184 2.058 . S
Co178 O194 2.057 . S
Co178 O209 2.037 . S
Co178 N213 2.145 . S
Co178 N234 2.257 . S
O179 Co177 2.143 . S
O179 Co178 2.160 . S
C180 O181 1.278 . S
C180 O188 1.224 . S
O181 C180 1.278 . S
C182 O183 1.245 . S
C182 O194 1.232 . S
O183 C182 1.245 . S
O184 Co178 2.058 . S
O184 C210 1.269 . S
O185 Co177 2.074 . S
O185 C210 1.257 . S
H186 C211 0.930 . S
H187 C217 0.930 . S
O188 Co177 2.093 . S
O188 C180 1.224 . S
H189 C221 0.929 . S
H190 C223 0.930 . S
H191 C224 0.930 . S
H192 C222 0.929 . S
H193 C225 0.928 . S
O194 Co178 2.057 . S
O194 C182 1.232 . S
H195 C214 0.929 . S
H196 C215 0.929 . S
H197 C227 0.925 1_665 S
H198 C219 0.929 . S
H199 C228 0.930 1_665 S
H200 C220 0.931 . S
O201 Co177 2.097 . S
O201 C229 1.214 . S
H202 C230 0.929 . S
H203 C231 0.929 . S
H204 C232 0.930 . S
H205 C233 0.929 . S
H206 C235 0.930 . S
H207 C212 0.930 . S
H208 C216 0.930 . S
O209 Co178 2.037 . S
O209 C229 1.234 . S
C210 O184 1.269 . S
C210 O185 1.257 . S
C211 H186 0.930 . S
C211 C214 1.388 . S
C211 C216 1.418 . S
C212 H207 0.930 . S
C212 C215 1.404 . S
C212 C216 1.353 . S
N213 Co178 2.145 . S
N213 C214 1.397 . S
N213 C215 1.334 . S
C214 H195 0.929 . S
C214 C211 1.388 . S
C214 N213 1.397 . S
C215 H196 0.929 . S
C215 C212 1.404 . S
C215 N213 1.334 . S
C216 H208 0.930 . S
C216 C211 1.418 . S
C216 C212 1.353 . S
C217 H187 0.930 . S
C217 N218 1.330 . S
C217 C219 1.446 . S
N218 Co177 2.151 . S
N218 C217 1.330 . S
N218 C222 1.418 . S
C219 H198 0.929 . S
C219 C217 1.446 . S
C219 C220 1.332 . S
C220 H200 0.931 . S
C220 C219 1.332 . S
C220 C221 1.267 . S
C221 H189 0.929 . S
C221 C220 1.267 . S
C221 C222 1.251 . S
C222 H192 0.929 . S
C222 N218 1.418 . S
C222 C221 1.251 . S
C223 H190 0.930 . S
C223 C225 1.406 . S
C223 C228 1.261 . S
C224 H191 0.930 . S
C224 N226 1.325 . S
C224 C227 1.357 . S
C225 H193 0.928 . S
C225 C223 1.406 . S
C225 N226 1.261 . S
N226 Co177 2.214 . S
N226 C224 1.325 . S
N226 C225 1.261 . S
C227 H197 0.925 1_445 S
C227 C224 1.357 . S
C227 C228 1.312 . S
C228 H199 0.930 1_445 S
C228 C223 1.261 . S
C228 C227 1.312 . S
C229 O201 1.214 . S
C229 O209 1.234 . S
C230 H202 0.929 . S
C230 C233 1.391 . S
C230 C235 1.391 . S
C231 H203 0.929 . S
C231 C232 1.390 . S
C231 N234 1.391 . S
C232 H204 0.930 . S
C232 C231 1.390 . S
C232 C233 1.392 . S
C233 H205 0.929 . S
C233 C230 1.391 . S
C233 C232 1.392 . S
N234 Co178 2.257 . S
N234 C231 1.391 . S
N234 C235 1.388 . S
C235 H206 0.930 . S
C235 C230 1.391 . S
C235 N234 1.388 . S
Co236 O238 2.143 . S
Co236 O244 2.074 . S
Co236 O247 2.093 1_565 S
Co236 O260 2.097 1_565 S
Co236 N277 2.151 . S
Co236 N285 2.214 . S
Co237 O238 2.160 1_545 S
Co237 O243 2.058 1_545 S
Co237 O253 2.057 1_545 S
Co237 O268 2.037 . S
Co237 N272 2.145 . S
Co237 N293 2.257 . S
O238 Co236 2.143 . S
O238 Co237 2.160 1_565 S
C239 O240 1.278 . S
C239 O247 1.224 . S
O240 C239 1.278 . S
C241 O242 1.245 . S
C241 O253 1.232 . S
O242 C241 1.245 . S
O243 Co237 2.058 1_565 S
O243 C269 1.269 . S
O244 Co236 2.074 . S
O244 C269 1.257 . S
H245 C270 0.930 . S
H246 C276 0.930 . S
O247 Co236 2.093 1_545 S
O247 C239 1.224 . S
H248 C280 0.929 . S
H249 C282 0.930 . S
H250 C283 0.934 . S
H251 C281 0.929 . S
H252 C284 0.928 . S
O253 Co237 2.057 1_565 S
O253 C241 1.232 . S
H254 C273 0.929 . S
H255 C274 0.929 . S
H256 C286 0.932 1_445 S
H257 C278 0.929 . S
H258 C287 0.930 1_455 S
H259 C279 0.931 . S
O260 Co236 2.097 1_545 S
O260 C288 1.214 . S
H261 C289 0.929 . S
H262 C290 0.929 . S
H263 C291 0.930 . S
H264 C292 0.929 . S
H265 C294 0.930 . S
H266 C271 0.930 . S
H267 C275 0.930 . S
O268 Co237 2.037 . S
O268 C288 1.234 . S
C269 O243 1.269 . S
C269 O244 1.257 . S
C270 H245 0.930 . S
C270 C273 1.388 . S
C270 C275 1.418 . S
C271 H266 0.930 . S
C271 C274 1.404 . S
C271 C275 1.353 . S
N272 Co237 2.145 . S
N272 C273 1.397 . S
N272 C274 1.334 . S
C273 H254 0.929 . S
C273 C270 1.388 . S
C273 N272 1.397 . S
C274 H255 0.929 . S
C274 C271 1.404 . S
C274 N272 1.334 . S
C275 H267 0.930 . S
C275 C270 1.418 . S
C275 C271 1.353 . S
C276 H246 0.930 . S
C276 N277 1.330 . S
C276 C278 1.446 . S
N277 Co236 2.151 . S
N277 C276 1.330 . S
N277 C281 1.418 . S
C278 H257 0.929 . S
C278 C276 1.446 . S
C278 C279 1.332 . S
C279 H259 0.931 . S
C279 C278 1.332 . S
C279 C280 1.267 . S
C280 H248 0.929 . S
C280 C279 1.267 . S
C280 C281 1.251 . S
C281 H251 0.929 . S
C281 N277 1.418 . S
C281 C280 1.251 . S
C282 H249 0.930 . S
C282 C284 1.406 . S
C282 C287 1.261 . S
C283 H250 0.934 . S
C283 N285 1.327 1_545 S
C283 C286 1.348 1_545 S
C284 H252 0.928 . S
C284 C282 1.406 . S
C284 N285 1.261 . S
N285 Co236 2.214 . S
N285 C283 1.327 1_565 S
N285 C284 1.261 . S
C286 H256 0.932 1_665 S
C286 C283 1.348 1_565 S
C286 C287 1.315 . S
C287 H258 0.930 1_655 S
C287 C282 1.261 . S
C287 C286 1.315 . S
C288 O260 1.214 . S
C288 O268 1.234 . S
C289 H261 0.929 . S
C289 C292 1.391 . S
C289 C294 1.391 . S
C290 H262 0.929 . S
C290 C291 1.390 . S
C290 N293 1.391 . S
C291 H263 0.930 . S
C291 C290 1.390 . S
C291 C292 1.392 . S
C292 H264 0.929 . S
C292 C289 1.391 . S
C292 C291 1.392 . S
N293 Co237 2.257 . S
N293 C290 1.391 . S
N293 C294 1.388 . S
C294 H265 0.930 . S
C294 C289 1.391 . S
C294 N293 1.388 . S
Co295 O297 2.143 . S
Co295 O303 2.074 . S
Co295 O306 2.093 1_455 S
Co295 O319 2.097 1_455 S
Co295 N336 2.151 . S
Co295 N344 2.214 . S
Co296 O297 2.160 1_655 S
Co296 O302 2.058 1_655 S
Co296 O312 2.057 1_655 S
Co296 O327 2.037 . S
Co296 N331 2.145 . S
Co296 N352 2.257 . S
O297 Co295 2.143 . S
O297 Co296 2.160 1_455 S
C298 O299 1.278 . S
C298 O306 1.224 . S
O299 C298 1.278 . S
C300 O301 1.245 . S
C300 O312 1.232 . S
O301 C300 1.245 . S
O302 Co296 2.058 1_455 S
O302 C328 1.269 . S
O303 Co295 2.074 . S
O303 C328 1.257 . S
H304 C329 0.930 . S
H305 C335 0.930 . S
O306 Co295 2.093 1_655 S
O306 C298 1.224 . S
H307 C339 0.929 . S
H308 C341 0.930 . S
H309 C342 0.928 1_655 S
H310 C340 0.929 . S
H311 C343 0.928 . S
O312 Co296 2.057 1_455 S
O312 C300 1.232 . S
H313 C332 0.929 . S
H314 C333 0.929 . S
H315 C345 0.931 1_645 S
H316 C337 0.929 . S
H317 C346 0.930 1_545 S
H318 C338 0.931 . S
O319 Co295 2.097 1_655 S
O319 C347 1.214 . S
H320 C348 0.929 . S
H321 C349 0.929 . S
H322 C350 0.930 . S
H323 C351 0.929 . S
H324 C353 0.930 . S
H325 C330 0.930 . S
H326 C334 0.930 . S
O327 Co296 2.037 . S
O327 C347 1.234 . S
C328 O302 1.269 . S
C328 O303 1.257 . S
C329 H304 0.930 . S
C329 C332 1.388 . S
C329 C334 1.418 . S
C330 H325 0.930 . S
C330 C333 1.404 . S
C330 C334 1.353 . S
N331 Co296 2.145 . S
N331 C332 1.397 . S
N331 C333 1.334 . S
C332 H313 0.929 . S
C332 C329 1.388 . S
C332 N331 1.397 . S
C333 H314 0.929 . S
C333 C330 1.404 . S
C333 N331 1.334 . S
C334 H326 0.930 . S
C334 C329 1.418 . S
C334 C330 1.353 . S
C335 H305 0.930 . S
C335 N336 1.330 . S
C335 C337 1.446 . S
N336 Co295 2.151 . S
N336 C335 1.330 . S
N336 C340 1.418 . S
C337 H316 0.929 . S
C337 C335 1.446 . S
C337 C338 1.332 . S
C338 H318 0.931 . S
C338 C337 1.332 . S
C338 C339 1.267 . S
C339 H307 0.929 . S
C339 C338 1.267 . S
C339 C340 1.251 . S
C340 H310 0.929 . S
C340 N336 1.418 . S
C340 C339 1.251 . S
C341 H308 0.930 . S
C341 C343 1.406 . S
C341 C346 1.261 . S
C342 H309 0.928 1_455 S
C342 N344 1.332 . S
C342 C345 1.353 . S
C343 H311 0.928 . S
C343 C341 1.406 . S
C343 N344 1.261 . S
N344 Co295 2.214 . S
N344 C342 1.332 . S
N344 C343 1.261 . S
C345 H315 0.931 1_465 S
C345 C342 1.353 . S
C345 C346 1.312 . S
C346 H317 0.930 1_565 S
C346 C341 1.261 . S
C346 C345 1.312 . S
C347 O319 1.214 . S
C347 O327 1.234 . S
C348 H320 0.929 . S
C348 C351 1.391 . S
C348 C353 1.391 . S
C349 H321 0.929 . S
C349 C350 1.390 . S
C349 N352 1.391 . S
C350 H322 0.930 . S
C350 C349 1.390 . S
C350 C351 1.392 . S
C351 H323 0.929 . S
C351 C348 1.391 . S
C351 C350 1.392 . S
N352 Co296 2.257 . S
N352 C349 1.391 . S
N352 C353 1.388 . S
C353 H324 0.930 . S
C353 C348 1.391 . S
C353 N352 1.388 . S
Co354 O356 2.143 . S
Co354 O362 2.074 . S
Co354 O365 2.093 . S
Co354 O378 2.097 . S
Co354 N395 2.151 . S
Co354 N403 2.214 . S
Co355 O356 2.160 . S
Co355 O361 2.058 . S
Co355 O371 2.057 . S
Co355 O386 2.037 . S
Co355 N390 2.145 . S
Co355 N411 2.257 . S
O356 Co354 2.143 . S
O356 Co355 2.160 . S
C357 O358 1.278 . S
C357 O365 1.224 . S
O358 C357 1.278 . S
C359 O360 1.245 . S
C359 O371 1.232 . S
O360 C359 1.245 . S
O361 Co355 2.058 . S
O361 C387 1.269 . S
O362 Co354 2.074 . S
O362 C387 1.257 . S
H363 C388 0.930 . S
H364 C394 0.930 . S
O365 Co354 2.093 . S
O365 C357 1.224 . S
H366 C398 0.929 . S
H367 C400 0.930 . S
H368 C401 0.930 . S
H369 C399 0.929 . S
H370 C402 0.928 . S
O371 Co355 2.057 . S
O371 C359 1.232 . S
H372 C391 0.929 . S
H373 C392 0.929 . S
H374 C404 0.931 . S
H375 C396 0.929 . S
H376 C405 0.930 . S
H377 C397 0.931 . S
O378 Co354 2.097 . S
O378 C406 1.214 . S
H379 C407 0.929 . S
H380 C408 0.929 . S
H381 C409 0.930 . S
H382 C410 0.929 . S
H383 C412 0.930 . S
H384 C389 0.930 . S
H385 C393 0.930 . S
O386 Co355 2.037 . S
O386 C406 1.234 . S
C387 O361 1.269 . S
C387 O362 1.257 . S
C388 H363 0.930 . S
C388 C391 1.388 . S
C388 C393 1.418 . S
C389 H384 0.930 . S
C389 C392 1.404 . S
C389 C393 1.353 . S
N390 Co355 2.145 . S
N390 C391 1.397 . S
N390 C392 1.334 . S
C391 H372 0.929 . S
C391 C388 1.388 . S
C391 N390 1.397 . S
C392 H373 0.929 . S
C392 C389 1.404 . S
C392 N390 1.334 . S
C393 H385 0.930 . S
C393 C388 1.418 . S
C393 C389 1.353 . S
C394 H364 0.930 . S
C394 N395 1.330 . S
C394 C396 1.446 . S
N395 Co354 2.151 . S
N395 C394 1.330 . S
N395 C399 1.418 . S
C396 H375 0.929 . S
C396 C394 1.446 . S
C396 C397 1.332 . S
C397 H377 0.931 . S
C397 C396 1.332 . S
C397 C398 1.267 . S
C398 H366 0.929 . S
C398 C397 1.267 . S
C398 C399 1.251 . S
C399 H369 0.929 . S
C399 N395 1.418 . S
C399 C398 1.251 . S
C400 H367 0.930 . S
C400 C402 1.406 . S
C400 C405 1.261 . S
C401 H368 0.930 . S
C401 N403 1.325 . S
C401 C404 1.357 . S
C402 H370 0.928 . S
C402 C400 1.406 . S
C402 N403 1.261 . S
N403 Co354 2.214 . S
N403 C401 1.325 . S
N403 C402 1.261 . S
C404 H374 0.931 . S
C404 C401 1.357 . S
C404 C405 1.312 . S
C405 H376 0.930 . S
C405 C400 1.261 . S
C405 C404 1.312 . S
C406 O378 1.214 . S
C406 O386 1.234 . S
C407 H379 0.929 . S
C407 C410 1.391 . S
C407 C412 1.391 . S
C408 H380 0.929 . S
C408 C409 1.390 . S
C408 N411 1.391 . S
C409 H381 0.930 . S
C409 C408 1.390 . S
C409 C410 1.392 . S
C410 H382 0.929 . S
C410 C407 1.391 . S
C410 C409 1.392 . S
N411 Co355 2.257 . S
N411 C408 1.391 . S
N411 C412 1.388 . S
C412 H383 0.930 . S
C412 C407 1.391 . S
C412 N411 1.388 . S
Co413 O415 2.143 . S
Co413 O421 2.074 . S
Co413 O424 2.093 . S
Co413 O437 2.097 . S
Co413 N454 2.151 . S
Co413 N462 2.214 . S
Co414 O415 2.160 . S
Co414 O420 2.058 . S
Co414 O430 2.057 . S
Co414 O445 2.037 . S
Co414 N449 2.145 . S
Co414 N470 2.257 . S
O415 Co413 2.143 . S
O415 Co414 2.160 . S
C416 O417 1.278 . S
C416 O424 1.224 . S
O417 C416 1.278 . S
C418 O419 1.245 . S
C418 O430 1.232 . S
O419 C418 1.245 . S
O420 Co414 2.058 . S
O420 C446 1.269 . S
O421 Co413 2.074 . S
O421 C446 1.257 . S
H422 C447 0.930 . S
H423 C453 0.930 . S
O424 Co413 2.093 . S
O424 C416 1.224 . S
H425 C457 0.929 . S
H426 C459 0.930 . S
H427 C460 0.930 . S
H428 C458 0.929 . S
H429 C461 0.928 . S
O430 Co414 2.057 . S
O430 C418 1.232 . S
H431 C450 0.929 . S
H432 C451 0.929 . S
H433 C463 0.931 . S
H434 C455 0.929 . S
H435 C464 0.930 . S
H436 C456 0.931 . S
O437 Co413 2.097 . S
O437 C465 1.214 . S
H438 C466 0.929 . S
H439 C467 0.929 . S
H440 C468 0.930 . S
H441 C469 0.929 . S
H442 C471 0.930 . S
H443 C448 0.930 . S
H444 C452 0.930 . S
O445 Co414 2.037 . S
O445 C465 1.234 . S
C446 O420 1.269 . S
C446 O421 1.257 . S
C447 H422 0.930 . S
C447 C450 1.388 . S
C447 C452 1.418 . S
C448 H443 0.930 . S
C448 C451 1.404 . S
C448 C452 1.353 . S
N449 Co414 2.145 . S
N449 C450 1.397 . S
N449 C451 1.334 . S
C450 H431 0.929 . S
C450 C447 1.388 . S
C450 N449 1.397 . S
C451 H432 0.929 . S
C451 C448 1.404 . S
C451 N449 1.334 . S
C452 H444 0.930 . S
C452 C447 1.418 . S
C452 C448 1.353 . S
C453 H423 0.930 . S
C453 N454 1.330 . S
C453 C455 1.446 . S
N454 Co413 2.151 . S
N454 C453 1.330 . S
N454 C458 1.418 . S
C455 H434 0.929 . S
C455 C453 1.446 . S
C455 C456 1.332 . S
C456 H436 0.931 . S
C456 C455 1.332 . S
C456 C457 1.267 . S
C457 H425 0.929 . S
C457 C456 1.267 . S
C457 C458 1.251 . S
C458 H428 0.929 . S
C458 N454 1.418 . S
C458 C457 1.251 . S
C459 H426 0.930 . S
C459 C461 1.406 . S
C459 C464 1.261 . S
C460 H427 0.930 . S
C460 N462 1.325 . S
C460 C463 1.357 . S
C461 H429 0.928 . S
C461 C459 1.406 . S
C461 N462 1.261 . S
N462 Co413 2.214 . S
N462 C460 1.325 . S
N462 C461 1.261 . S
C463 H433 0.931 . S
C463 C460 1.357 . S
C463 C464 1.312 . S
C464 H435 0.930 . S
C464 C459 1.261 . S
C464 C463 1.312 . S
C465 O437 1.214 . S
C465 O445 1.234 . S
C466 H438 0.929 . S
C466 C469 1.391 . S
C466 C471 1.391 . S
C467 H439 0.929 . S
C467 C468 1.390 . S
C467 N470 1.391 . S
C468 H440 0.930 . S
C468 C467 1.390 . S
C468 C469 1.392 . S
C469 H441 0.929 . S
C469 C466 1.391 . S
C469 C468 1.392 . S
N470 Co414 2.257 . S
N470 C467 1.391 . S
N470 C471 1.388 . S
C471 H442 0.930 . S
C471 C466 1.391 . S
C471 N470 1.388 . S
Co472 O474 2.143 . S
Co472 O480 2.074 . S
Co472 O483 2.093 . S
Co472 O496 2.097 . S
Co472 N513 2.151 . S
Co472 N521 2.214 . S
Co473 O474 2.160 . S
Co473 O479 2.058 . S
Co473 O489 2.057 . S
Co473 O504 2.037 . S
Co473 N508 2.145 . S
Co473 N529 2.257 . S
O474 Co472 2.143 . S
O474 Co473 2.160 . S
C475 O476 1.278 . S
C475 O483 1.224 . S
O476 C475 1.278 . S
C477 O478 1.245 . S
C477 O489 1.232 . S
O478 C477 1.245 . S
O479 Co473 2.058 . S
O479 C505 1.269 . S
O480 Co472 2.074 . S
O480 C505 1.257 . S
H481 C506 0.930 . S
H482 C512 0.930 . S
O483 Co472 2.093 . S
O483 C475 1.224 . S
H484 C516 0.929 . S
H485 C518 0.930 . S
H486 C519 0.930 . S
H487 C517 0.929 . S
H488 C520 0.928 . S
O489 Co473 2.057 . S
O489 C477 1.232 . S
H490 C509 0.929 . S
H491 C510 0.929 . S
H492 C522 0.931 . S
H493 C514 0.929 . S
H494 C523 0.930 . S
H495 C515 0.931 . S
O496 Co472 2.097 . S
O496 C524 1.214 . S
H497 C525 0.929 . S
H498 C526 0.929 . S
H499 C527 0.930 . S
H500 C528 0.929 . S
H501 C530 0.930 . S
H502 C507 0.930 . S
H503 C511 0.930 . S
O504 Co473 2.037 . S
O504 C524 1.234 . S
C505 O479 1.269 . S
C505 O480 1.257 . S
C506 H481 0.930 . S
C506 C509 1.388 . S
C506 C511 1.418 . S
C507 H502 0.930 . S
C507 C510 1.404 . S
C507 C511 1.353 . S
N508 Co473 2.145 . S
N508 C509 1.397 . S
N508 C510 1.334 . S
C509 H490 0.929 . S
C509 C506 1.388 . S
C509 N508 1.397 . S
C510 H491 0.929 . S
C510 C507 1.404 . S
C510 N508 1.334 . S
C511 H503 0.930 . S
C511 C506 1.418 . S
C511 C507 1.353 . S
C512 H482 0.930 . S
C512 N513 1.330 . S
C512 C514 1.446 . S
N513 Co472 2.151 . S
N513 C512 1.330 . S
N513 C517 1.418 . S
C514 H493 0.929 . S
C514 C512 1.446 . S
C514 C515 1.332 . S
C515 H495 0.931 . S
C515 C514 1.332 . S
C515 C516 1.267 . S
C516 H484 0.929 . S
C516 C515 1.267 . S
C516 C517 1.251 . S
C517 H487 0.929 . S
C517 N513 1.418 . S
C517 C516 1.251 . S
C518 H485 0.930 . S
C518 C520 1.406 . S
C518 C523 1.261 . S
C519 H486 0.930 . S
C519 N521 1.325 . S
C519 C522 1.357 . S
C520 H488 0.928 . S
C520 C518 1.406 . S
C520 N521 1.261 . S
N521 Co472 2.214 . S
N521 C519 1.325 . S
N521 C520 1.261 . S
C522 H492 0.931 . S
C522 C519 1.357 . S
C522 C523 1.312 . S
C523 H494 0.930 . S
C523 C518 1.261 . S
C523 C522 1.312 . S
C524 O496 1.214 . S
C524 O504 1.234 . S
C525 H497 0.929 . S
C525 C528 1.391 . S
C525 C530 1.391 . S
C526 H498 0.929 . S
C526 C527 1.390 . S
C526 N529 1.391 . S
C527 H499 0.930 . S
C527 C526 1.390 . S
C527 C528 1.392 . S
C528 H500 0.929 . S
C528 C525 1.391 . S
C528 C527 1.392 . S
N529 Co473 2.257 . S
N529 C526 1.391 . S
N529 C530 1.388 . S
C530 H501 0.930 . S
C530 C525 1.391 . S
C530 N529 1.388 . S
Co531 O533 2.143 . S
Co531 O539 2.074 . S
Co531 O542 2.093 . S
Co531 O555 2.097 . S
Co531 N572 2.151 . S
Co531 N580 2.214 . S
Co532 O533 2.160 . S
Co532 O538 2.058 . S
Co532 O548 2.057 . S
Co532 O563 2.037 . S
Co532 N567 2.145 . S
Co532 N588 2.257 . S
O533 Co531 2.143 . S
O533 Co532 2.160 . S
C534 O535 1.278 . S
C534 O542 1.224 . S
O535 C534 1.278 . S
C536 O537 1.245 . S
C536 O548 1.232 . S
O537 C536 1.245 . S
O538 Co532 2.058 . S
O538 C564 1.269 . S
O539 Co531 2.074 . S
O539 C564 1.257 . S
H540 C565 0.930 . S
H541 C571 0.930 . S
O542 Co531 2.093 . S
O542 C534 1.224 . S
H543 C575 0.929 . S
H544 C577 0.930 . S
H545 C578 0.930 . S
H546 C576 0.929 . S
H547 C579 0.928 . S
O548 Co532 2.057 . S
O548 C536 1.232 . S
H549 C568 0.929 . S
H550 C569 0.929 . S
H551 C581 0.931 . S
H552 C573 0.929 . S
H553 C582 0.930 . S
H554 C574 0.931 . S
O555 Co531 2.097 . S
O555 C583 1.214 . S
H556 C584 0.929 . S
H557 C585 0.929 . S
H558 C586 0.930 . S
H559 C587 0.929 . S
H560 C589 0.930 . S
H561 C566 0.930 . S
H562 C570 0.930 . S
O563 Co532 2.037 . S
O563 C583 1.234 . S
C564 O538 1.269 . S
C564 O539 1.257 . S
C565 H540 0.930 . S
C565 C568 1.388 . S
C565 C570 1.418 . S
C566 H561 0.930 . S
C566 C569 1.404 . S
C566 C570 1.353 . S
N567 Co532 2.145 . S
N567 C568 1.397 . S
N567 C569 1.334 . S
C568 H549 0.929 . S
C568 C565 1.388 . S
C568 N567 1.397 . S
C569 H550 0.929 . S
C569 C566 1.404 . S
C569 N567 1.334 . S
C570 H562 0.930 . S
C570 C565 1.418 . S
C570 C566 1.353 . S
C571 H541 0.930 . S
C571 N572 1.330 . S
C571 C573 1.446 . S
N572 Co531 2.151 . S
N572 C571 1.330 . S
N572 C576 1.418 . S
C573 H552 0.929 . S
C573 C571 1.446 . S
C573 C574 1.332 . S
C574 H554 0.931 . S
C574 C573 1.332 . S
C574 C575 1.267 . S
C575 H543 0.929 . S
C575 C574 1.267 . S
C575 C576 1.251 . S
C576 H546 0.929 . S
C576 N572 1.418 . S
C576 C575 1.251 . S
C577 H544 0.930 . S
C577 C579 1.406 . S
C577 C582 1.261 . S
C578 H545 0.930 . S
C578 N580 1.325 . S
C578 C581 1.357 . S
C579 H547 0.928 . S
C579 C577 1.406 . S
C579 N580 1.261 . S
N580 Co531 2.214 . S
N580 C578 1.325 . S
N580 C579 1.261 . S
C581 H551 0.931 . S
C581 C578 1.357 . S
C581 C582 1.312 . S
C582 H553 0.930 . S
C582 C577 1.261 . S
C582 C581 1.312 . S
C583 O555 1.214 . S
C583 O563 1.234 . S
C584 H556 0.929 . S
C584 C587 1.391 . S
C584 C589 1.391 . S
C585 H557 0.929 . S
C585 C586 1.390 . S
C585 N588 1.391 . S
C586 H558 0.930 . S
C586 C585 1.390 . S
C586 C587 1.392 . S
C587 H559 0.929 . S
C587 C584 1.391 . S
C587 C586 1.392 . S
N588 Co532 2.257 . S
N588 C585 1.391 . S
N588 C589 1.388 . S
C589 H560 0.930 . S
C589 C584 1.391 . S
C589 N588 1.388 . S
Co590 O592 2.143 . S
Co590 O598 2.074 . S
Co590 O601 2.093 . S
Co590 O614 2.097 . S
Co590 N631 2.151 . S
Co590 N639 2.214 . S
Co591 O592 2.160 . S
Co591 O597 2.058 . S
Co591 O607 2.057 . S
Co591 O622 2.037 . S
Co591 N626 2.145 . S
Co591 N647 2.257 . S
O592 Co590 2.143 . S
O592 Co591 2.160 . S
C593 O594 1.278 . S
C593 O601 1.224 . S
O594 C593 1.278 . S
C595 O596 1.245 . S
C595 O607 1.232 . S
O596 C595 1.245 . S
O597 Co591 2.058 . S
O597 C623 1.269 . S
O598 Co590 2.074 . S
O598 C623 1.257 . S
H599 C624 0.930 . S
H600 C630 0.930 . S
O601 Co590 2.093 . S
O601 C593 1.224 . S
H602 C634 0.929 . S
H603 C636 0.930 . S
H604 C637 0.930 . S
H605 C635 0.929 . S
H606 C638 0.928 . S
O607 Co591 2.057 . S
O607 C595 1.232 . S
H608 C627 0.929 . S
H609 C628 0.929 . S
H610 C640 0.931 . S
H611 C632 0.929 . S
H612 C641 0.930 . S
H613 C633 0.931 . S
O614 Co590 2.097 . S
O614 C642 1.214 . S
H615 C643 0.929 . S
H616 C644 0.929 . S
H617 C645 0.930 . S
H618 C646 0.929 . S
H619 C648 0.930 . S
H620 C625 0.930 . S
H621 C629 0.930 . S
O622 Co591 2.037 . S
O622 C642 1.234 . S
C623 O597 1.269 . S
C623 O598 1.257 . S
C624 H599 0.930 . S
C624 C627 1.388 . S
C624 C629 1.418 . S
C625 H620 0.930 . S
C625 C628 1.404 . S
C625 C629 1.353 . S
N626 Co591 2.145 . S
N626 C627 1.397 . S
N626 C628 1.334 . S
C627 H608 0.929 . S
C627 C624 1.388 . S
C627 N626 1.397 . S
C628 H609 0.929 . S
C628 C625 1.404 . S
C628 N626 1.334 . S
C629 H621 0.930 . S
C629 C624 1.418 . S
C629 C625 1.353 . S
C630 H600 0.930 . S
C630 N631 1.330 . S
C630 C632 1.446 . S
N631 Co590 2.151 . S
N631 C630 1.330 . S
N631 C635 1.418 . S
C632 H611 0.929 . S
C632 C630 1.446 . S
C632 C633 1.332 . S
C633 H613 0.931 . S
C633 C632 1.332 . S
C633 C634 1.267 . S
C634 H602 0.929 . S
C634 C633 1.267 . S
C634 C635 1.251 . S
C635 H605 0.929 . S
C635 N631 1.418 . S
C635 C634 1.251 . S
C636 H603 0.930 . S
C636 C638 1.406 . S
C636 C641 1.261 . S
C637 H604 0.930 . S
C637 N639 1.325 . S
C637 C640 1.357 . S
C638 H606 0.928 . S
C638 C636 1.406 . S
C638 N639 1.261 . S
N639 Co590 2.214 . S
N639 C637 1.325 . S
N639 C638 1.261 . S
C640 H610 0.931 . S
C640 C637 1.357 . S
C640 C641 1.312 . S
C641 H612 0.930 . S
C641 C636 1.261 . S
C641 C640 1.312 . S
C642 O614 1.214 . S
C642 O622 1.234 . S
C643 H615 0.929 . S
C643 C646 1.391 . S
C643 C648 1.391 . S
C644 H616 0.929 . S
C644 C645 1.390 . S
C644 N647 1.391 . S
C645 H617 0.930 . S
C645 C644 1.390 . S
C645 C646 1.392 . S
C646 H618 0.929 . S
C646 C643 1.391 . S
C646 C645 1.392 . S
N647 Co591 2.257 . S
N647 C644 1.391 . S
N647 C648 1.388 . S
C648 H619 0.930 . S
C648 C643 1.391 . S
C648 N647 1.388 . S
Co649 O651 2.143 . S
Co649 O657 2.074 . S
Co649 O660 2.093 . S
Co649 O673 2.097 . S
Co649 N690 2.151 . S
Co649 N698 2.214 . S
Co650 O651 2.160 . S
Co650 O656 2.058 . S
Co650 O666 2.057 . S
Co650 O681 2.037 . S
Co650 N685 2.145 . S
Co650 N706 2.257 . S
O651 Co649 2.143 . S
O651 Co650 2.160 . S
C652 O653 1.278 . S
C652 O660 1.224 . S
O653 C652 1.278 . S
C654 O655 1.245 . S
C654 O666 1.232 . S
O655 C654 1.245 . S
O656 Co650 2.058 . S
O656 C682 1.269 . S
O657 Co649 2.074 . S
O657 C682 1.257 . S
H658 C683 0.930 . S
H659 C689 0.930 . S
O660 Co649 2.093 . S
O660 C652 1.224 . S
H661 C693 0.929 . S
H662 C695 0.930 . S
H663 C696 0.930 . S
H664 C694 0.929 . S
H665 C697 0.928 . S
O666 Co650 2.057 . S
O666 C654 1.232 . S
H667 C686 0.929 . S
H668 C687 0.929 . S
H669 C699 0.931 . S
H670 C691 0.929 . S
H671 C700 0.930 . S
H672 C692 0.931 . S
O673 Co649 2.097 . S
O673 C701 1.214 . S
H674 C702 0.929 . S
H675 C703 0.929 . S
H676 C704 0.930 . S
H677 C705 0.929 . S
H678 C707 0.930 . S
H679 C684 0.930 . S
H680 C688 0.930 . S
O681 Co650 2.037 . S
O681 C701 1.234 . S
C682 O656 1.269 . S
C682 O657 1.257 . S
C683 H658 0.930 . S
C683 C686 1.388 . S
C683 C688 1.418 . S
C684 H679 0.930 . S
C684 C687 1.404 . S
C684 C688 1.353 . S
N685 Co650 2.145 . S
N685 C686 1.397 . S
N685 C687 1.334 . S
C686 H667 0.929 . S
C686 C683 1.388 . S
C686 N685 1.397 . S
C687 H668 0.929 . S
C687 C684 1.404 . S
C687 N685 1.334 . S
C688 H680 0.930 . S
C688 C683 1.418 . S
C688 C684 1.353 . S
C689 H659 0.930 . S
C689 N690 1.330 . S
C689 C691 1.446 . S
N690 Co649 2.151 . S
N690 C689 1.330 . S
N690 C694 1.418 . S
C691 H670 0.929 . S
C691 C689 1.446 . S
C691 C692 1.332 . S
C692 H672 0.931 . S
C692 C691 1.332 . S
C692 C693 1.267 . S
C693 H661 0.929 . S
C693 C692 1.267 . S
C693 C694 1.251 . S
C694 H664 0.929 . S
C694 N690 1.418 . S
C694 C693 1.251 . S
C695 H662 0.930 . S
C695 C697 1.406 . S
C695 C700 1.261 . S
C696 H663 0.930 . S
C696 N698 1.325 . S
C696 C699 1.357 . S
C697 H665 0.928 . S
C697 C695 1.406 . S
C697 N698 1.261 . S
N698 Co649 2.214 . S
N698 C696 1.325 . S
N698 C697 1.261 . S
C699 H669 0.931 . S
C699 C696 1.357 . S
C699 C700 1.312 . S
C700 H671 0.930 . S
C700 C695 1.261 . S
C700 C699 1.312 . S
C701 O673 1.214 . S
C701 O681 1.234 . S
C702 H674 0.929 . S
C702 C705 1.391 . S
C702 C707 1.391 . S
C703 H675 0.929 . S
C703 C704 1.390 . S
C703 N706 1.391 . S
C704 H676 0.930 . S
C704 C703 1.390 . S
C704 C705 1.392 . S
C705 H677 0.929 . S
C705 C702 1.391 . S
C705 C704 1.392 . S
N706 Co650 2.257 . S
N706 C703 1.391 . S
N706 C707 1.388 . S
C707 H678 0.930 . S
C707 C702 1.391 . S
C707 N706 1.388 . S
Co708 O710 2.143 . S
Co708 O716 2.074 . S
Co708 O719 2.093 . S
Co708 O732 2.097 . S
Co708 N749 2.151 . S
Co708 N757 2.214 . S
Co709 O710 2.160 . S
Co709 O715 2.058 . S
Co709 O725 2.057 . S
Co709 O740 2.037 . S
Co709 N744 2.145 . S
Co709 N765 2.257 . S
O710 Co708 2.143 . S
O710 Co709 2.160 . S
C711 O712 1.278 . S
C711 O719 1.224 . S
O712 C711 1.278 . S
C713 O714 1.245 . S
C713 O725 1.232 . S
O714 C713 1.245 . S
O715 Co709 2.058 . S
O715 C741 1.269 . S
O716 Co708 2.074 . S
O716 C741 1.257 . S
H717 C742 0.930 . S
H718 C748 0.930 . S
O719 Co708 2.093 . S
O719 C711 1.224 . S
H720 C752 0.929 . S
H721 C754 0.930 . S
H722 C755 0.930 . S
H723 C753 0.929 . S
H724 C756 0.928 . S
O725 Co709 2.057 . S
O725 C713 1.232 . S
H726 C745 0.929 . S
H727 C746 0.929 . S
H728 C758 0.931 . S
H729 C750 0.929 . S
H730 C759 0.930 . S
H731 C751 0.931 . S
O732 Co708 2.097 . S
O732 C760 1.214 . S
H733 C761 0.929 . S
H734 C762 0.929 . S
H735 C763 0.930 . S
H736 C764 0.929 . S
H737 C766 0.930 . S
H738 C743 0.930 . S
H739 C747 0.930 . S
O740 Co709 2.037 . S
O740 C760 1.234 . S
C741 O715 1.269 . S
C741 O716 1.257 . S
C742 H717 0.930 . S
C742 C745 1.388 . S
C742 C747 1.418 . S
C743 H738 0.930 . S
C743 C746 1.404 . S
C743 C747 1.353 . S
N744 Co709 2.145 . S
N744 C745 1.397 . S
N744 C746 1.334 . S
C745 H726 0.929 . S
C745 C742 1.388 . S
C745 N744 1.397 . S
C746 H727 0.929 . S
C746 C743 1.404 . S
C746 N744 1.334 . S
C747 H739 0.930 . S
C747 C742 1.418 . S
C747 C743 1.353 . S
C748 H718 0.930 . S
C748 N749 1.330 . S
C748 C750 1.446 . S
N749 Co708 2.151 . S
N749 C748 1.330 . S
N749 C753 1.418 . S
C750 H729 0.929 . S
C750 C748 1.446 . S
C750 C751 1.332 . S
C751 H731 0.931 . S
C751 C750 1.332 . S
C751 C752 1.267 . S
C752 H720 0.929 . S
C752 C751 1.267 . S
C752 C753 1.251 . S
C753 H723 0.929 . S
C753 N749 1.418 . S
C753 C752 1.251 . S
C754 H721 0.930 . S
C754 C756 1.406 . S
C754 C759 1.261 . S
C755 H722 0.930 . S
C755 N757 1.325 . S
C755 C758 1.357 . S
C756 H724 0.928 . S
C756 C754 1.406 . S
C756 N757 1.261 . S
N757 Co708 2.214 . S
N757 C755 1.325 . S
N757 C756 1.261 . S
C758 H728 0.931 . S
C758 C755 1.357 . S
C758 C759 1.312 . S
C759 H730 0.930 . S
C759 C754 1.261 . S
C759 C758 1.312 . S
C760 O732 1.214 . S
C760 O740 1.234 . S
C761 H733 0.929 . S
C761 C764 1.391 . S
C761 C766 1.391 . S
C762 H734 0.929 . S
C762 C763 1.390 . S
C762 N765 1.391 . S
C763 H735 0.930 . S
C763 C762 1.390 . S
C763 C764 1.392 . S
C764 H736 0.929 . S
C764 C761 1.391 . S
C764 C763 1.392 . S
N765 Co709 2.257 . S
N765 C762 1.391 . S
N765 C766 1.388 . S
C766 H737 0.930 . S
C766 C761 1.391 . S
C766 N765 1.388 . S
Co767 O769 2.143 . S
Co767 O775 2.074 . S
Co767 O778 2.093 . S
Co767 O791 2.097 . S
Co767 N808 2.151 . S
Co767 N816 2.214 . S
Co768 O769 2.160 . S
Co768 O774 2.058 . S
Co768 O784 2.057 . S
Co768 O799 2.037 . S
Co768 N803 2.145 . S
Co768 N824 2.257 . S
O769 Co767 2.143 . S
O769 Co768 2.160 . S
C770 O771 1.278 . S
C770 O778 1.224 . S
O771 C770 1.278 . S
C772 O773 1.245 . S
C772 O784 1.232 . S
O773 C772 1.245 . S
O774 Co768 2.058 . S
O774 C800 1.269 . S
O775 Co767 2.074 . S
O775 C800 1.257 . S
H776 C801 0.930 . S
H777 C807 0.930 . S
O778 Co767 2.093 . S
O778 C770 1.224 . S
H779 C811 0.929 . S
H780 C813 0.930 . S
H781 C814 0.930 . S
H782 C812 0.929 . S
H783 C815 0.928 . S
O784 Co768 2.057 . S
O784 C772 1.232 . S
H785 C804 0.929 . S
H786 C805 0.929 . S
H787 C817 0.931 . S
H788 C809 0.929 . S
H789 C818 0.930 . S
H790 C810 0.931 . S
O791 Co767 2.097 . S
O791 C819 1.214 . S
H792 C820 0.929 . S
H793 C821 0.929 . S
H794 C822 0.930 . S
H795 C823 0.929 . S
H796 C825 0.930 . S
H797 C802 0.930 . S
H798 C806 0.930 . S
O799 Co768 2.037 . S
O799 C819 1.234 . S
C800 O774 1.269 . S
C800 O775 1.257 . S
C801 H776 0.930 . S
C801 C804 1.388 . S
C801 C806 1.418 . S
C802 H797 0.930 . S
C802 C805 1.404 . S
C802 C806 1.353 . S
N803 Co768 2.145 . S
N803 C804 1.397 . S
N803 C805 1.334 . S
C804 H785 0.929 . S
C804 C801 1.388 . S
C804 N803 1.397 . S
C805 H786 0.929 . S
C805 C802 1.404 . S
C805 N803 1.334 . S
C806 H798 0.930 . S
C806 C801 1.418 . S
C806 C802 1.353 . S
C807 H777 0.930 . S
C807 N808 1.330 . S
C807 C809 1.446 . S
N808 Co767 2.151 . S
N808 C807 1.330 . S
N808 C812 1.418 . S
C809 H788 0.929 . S
C809 C807 1.446 . S
C809 C810 1.332 . S
C810 H790 0.931 . S
C810 C809 1.332 . S
C810 C811 1.267 . S
C811 H779 0.929 . S
C811 C810 1.267 . S
C811 C812 1.251 . S
C812 H782 0.929 . S
C812 N808 1.418 . S
C812 C811 1.251 . S
C813 H780 0.930 . S
C813 C815 1.406 . S
C813 C818 1.261 . S
C814 H781 0.930 . S
C814 N816 1.325 . S
C814 C817 1.357 . S
C815 H783 0.928 . S
C815 C813 1.406 . S
C815 N816 1.261 . S
N816 Co767 2.214 . S
N816 C814 1.325 . S
N816 C815 1.261 . S
C817 H787 0.931 . S
C817 C814 1.357 . S
C817 C818 1.312 . S
C818 H789 0.930 . S
C818 C813 1.261 . S
C818 C817 1.312 . S
C819 O791 1.214 . S
C819 O799 1.234 . S
C820 H792 0.929 . S
C820 C823 1.391 . S
C820 C825 1.391 . S
C821 H793 0.929 . S
C821 C822 1.390 . S
C821 N824 1.391 . S
C822 H794 0.930 . S
C822 C821 1.390 . S
C822 C823 1.392 . S
C823 H795 0.929 . S
C823 C820 1.391 . S
C823 C822 1.392 . S
N824 Co768 2.257 . S
N824 C821 1.391 . S
N824 C825 1.388 . S
C825 H796 0.930 . S
C825 C820 1.391 . S
C825 N824 1.388 . S
Co826 O828 2.143 . S
Co826 O834 2.074 . S
Co826 O837 2.093 . S
Co826 O850 2.097 . S
Co826 N867 2.151 . S
Co826 N875 2.214 . S
Co827 O828 2.160 . S
Co827 O833 2.058 . S
Co827 O843 2.057 . S
Co827 O858 2.037 . S
Co827 N862 2.145 . S
Co827 N883 2.257 . S
O828 Co826 2.143 . S
O828 Co827 2.160 . S
C829 O830 1.278 . S
C829 O837 1.224 . S
O830 C829 1.278 . S
C831 O832 1.245 . S
C831 O843 1.232 . S
O832 C831 1.245 . S
O833 Co827 2.058 . S
O833 C859 1.269 . S
O834 Co826 2.074 . S
O834 C859 1.257 . S
H835 C860 0.930 . S
H836 C866 0.930 . S
O837 Co826 2.093 . S
O837 C829 1.224 . S
H838 C870 0.929 . S
H839 C872 0.930 . S
H840 C873 0.930 . S
H841 C871 0.929 . S
H842 C874 0.928 . S
O843 Co827 2.057 . S
O843 C831 1.232 . S
H844 C863 0.929 . S
H845 C864 0.929 . S
H846 C876 0.931 . S
H847 C868 0.929 . S
H848 C877 0.930 . S
H849 C869 0.931 . S
O850 Co826 2.097 . S
O850 C878 1.214 . S
H851 C879 0.929 . S
H852 C880 0.929 . S
H853 C881 0.930 . S
H854 C882 0.929 . S
H855 C884 0.930 . S
H856 C861 0.930 . S
H857 C865 0.930 . S
O858 Co827 2.037 . S
O858 C878 1.234 . S
C859 O833 1.269 . S
C859 O834 1.257 . S
C860 H835 0.930 . S
C860 C863 1.388 . S
C860 C865 1.418 . S
C861 H856 0.930 . S
C861 C864 1.404 . S
C861 C865 1.353 . S
N862 Co827 2.145 . S
N862 C863 1.397 . S
N862 C864 1.334 . S
C863 H844 0.929 . S
C863 C860 1.388 . S
C863 N862 1.397 . S
C864 H845 0.929 . S
C864 C861 1.404 . S
C864 N862 1.334 . S
C865 H857 0.930 . S
C865 C860 1.418 . S
C865 C861 1.353 . S
C866 H836 0.930 . S
C866 N867 1.330 . S
C866 C868 1.446 . S
N867 Co826 2.151 . S
N867 C866 1.330 . S
N867 C871 1.418 . S
C868 H847 0.929 . S
C868 C866 1.446 . S
C868 C869 1.332 . S
C869 H849 0.931 . S
C869 C868 1.332 . S
C869 C870 1.267 . S
C870 H838 0.929 . S
C870 C869 1.267 . S
C870 C871 1.251 . S
C871 H841 0.929 . S
C871 N867 1.418 . S
C871 C870 1.251 . S
C872 H839 0.930 . S
C872 C874 1.406 . S
C872 C877 1.261 . S
C873 H840 0.930 . S
C873 N875 1.325 . S
C873 C876 1.357 . S
C874 H842 0.928 . S
C874 C872 1.406 . S
C874 N875 1.261 . S
N875 Co826 2.214 . S
N875 C873 1.325 . S
N875 C874 1.261 . S
C876 H846 0.931 . S
C876 C873 1.357 . S
C876 C877 1.312 . S
C877 H848 0.930 . S
C877 C872 1.261 . S
C877 C876 1.312 . S
C878 O850 1.214 . S
C878 O858 1.234 . S
C879 H851 0.929 . S
C879 C882 1.391 . S
C879 C884 1.391 . S
C880 H852 0.929 . S
C880 C881 1.390 . S
C880 N883 1.391 . S
C881 H853 0.930 . S
C881 C880 1.390 . S
C881 C882 1.392 . S
C882 H854 0.929 . S
C882 C879 1.391 . S
C882 C881 1.392 . S
N883 Co827 2.257 . S
N883 C880 1.391 . S
N883 C884 1.388 . S
C884 H855 0.930 . S
C884 C879 1.391 . S
C884 N883 1.388 . S
Co885 O887 2.143 . S
Co885 O893 2.074 . S
Co885 O896 2.093 . S
Co885 O909 2.097 . S
Co885 N926 2.151 . S
Co885 N934 2.214 . S
Co886 O887 2.160 . S
Co886 O892 2.058 . S
Co886 O902 2.057 . S
Co886 O917 2.037 . S
Co886 N921 2.145 . S
Co886 N942 2.257 . S
O887 Co885 2.143 . S
O887 Co886 2.160 . S
C888 O889 1.278 . S
C888 O896 1.224 . S
O889 C888 1.278 . S
C890 O891 1.245 . S
C890 O902 1.232 . S
O891 C890 1.245 . S
O892 Co886 2.058 . S
O892 C918 1.269 . S
O893 Co885 2.074 . S
O893 C918 1.257 . S
H894 C919 0.930 . S
H895 C925 0.930 . S
O896 Co885 2.093 . S
O896 C888 1.224 . S
H897 C929 0.929 . S
H898 C931 0.930 . S
H899 C932 0.930 . S
H900 C930 0.929 . S
H901 C933 0.928 . S
O902 Co886 2.057 . S
O902 C890 1.232 . S
H903 C922 0.929 . S
H904 C923 0.929 . S
H905 C935 0.931 . S
H906 C927 0.929 . S
H907 C936 0.930 . S
H908 C928 0.931 . S
O909 Co885 2.097 . S
O909 C937 1.214 . S
H910 C938 0.929 . S
H911 C939 0.929 . S
H912 C940 0.930 . S
H913 C941 0.929 . S
H914 C943 0.930 . S
H915 C920 0.930 . S
H916 C924 0.930 . S
O917 Co886 2.037 . S
O917 C937 1.234 . S
C918 O892 1.269 . S
C918 O893 1.257 . S
C919 H894 0.930 . S
C919 C922 1.388 . S
C919 C924 1.418 . S
C920 H915 0.930 . S
C920 C923 1.404 . S
C920 C924 1.353 . S
N921 Co886 2.145 . S
N921 C922 1.397 . S
N921 C923 1.334 . S
C922 H903 0.929 . S
C922 C919 1.388 . S
C922 N921 1.397 . S
C923 H904 0.929 . S
C923 C920 1.404 . S
C923 N921 1.334 . S
C924 H916 0.930 . S
C924 C919 1.418 . S
C924 C920 1.353 . S
C925 H895 0.930 . S
C925 N926 1.330 . S
C925 C927 1.446 . S
N926 Co885 2.151 . S
N926 C925 1.330 . S
N926 C930 1.418 . S
C927 H906 0.929 . S
C927 C925 1.446 . S
C927 C928 1.332 . S
C928 H908 0.931 . S
C928 C927 1.332 . S
C928 C929 1.267 . S
C929 H897 0.929 . S
C929 C928 1.267 . S
C929 C930 1.251 . S
C930 H900 0.929 . S
C930 N926 1.418 . S
C930 C929 1.251 . S
C931 H898 0.930 . S
C931 C933 1.406 . S
C931 C936 1.261 . S
C932 H899 0.930 . S
C932 N934 1.325 . S
C932 C935 1.357 . S
C933 H901 0.928 . S
C933 C931 1.406 . S
C933 N934 1.261 . S
N934 Co885 2.214 . S
N934 C932 1.325 . S
N934 C933 1.261 . S
C935 H905 0.931 . S
C935 C932 1.357 . S
C935 C936 1.312 . S
C936 H907 0.930 . S
C936 C931 1.261 . S
C936 C935 1.312 . S
C937 O909 1.214 . S
C937 O917 1.234 . S
C938 H910 0.929 . S
C938 C941 1.391 . S
C938 C943 1.391 . S
C939 H911 0.929 . S
C939 C940 1.390 . S
C939 N942 1.391 . S
C940 H912 0.930 . S
C940 C939 1.390 . S
C940 C941 1.392 . S
C941 H913 0.929 . S
C941 C938 1.391 . S
C941 C940 1.392 . S
N942 Co886 2.257 . S
N942 C939 1.391 . S
N942 C943 1.388 . S
C943 H914 0.930 . S
C943 C938 1.391 . S
C943 N942 1.388 . S
Co944 O946 2.143 . S
Co944 O952 2.074 . S
Co944 O955 2.093 . S
Co944 O968 2.097 . S
Co944 N985 2.151 . S
Co944 N993 2.214 . S
Co945 O946 2.160 . S
Co945 O951 2.058 . S
Co945 O961 2.057 . S
Co945 O976 2.037 . S
Co945 N980 2.145 . S
Co945 N1001 2.257 . S
O946 Co944 2.143 . S
O946 Co945 2.160 . S
C947 O948 1.278 . S
C947 O955 1.224 . S
O948 C947 1.278 . S
C949 O950 1.245 . S
C949 O961 1.232 . S
O950 C949 1.245 . S
O951 Co945 2.058 . S
O951 C977 1.269 . S
O952 Co944 2.074 . S
O952 C977 1.257 . S
H953 C978 0.930 . S
H954 C984 0.930 . S
O955 Co944 2.093 . S
O955 C947 1.224 . S
H956 C988 0.929 . S
H957 C990 0.930 . S
H958 C991 0.930 . S
H959 C989 0.929 . S
H960 C992 0.928 . S
O961 Co945 2.057 . S
O961 C949 1.232 . S
H962 C981 0.929 . S
H963 C982 0.929 . S
H964 C994 0.931 . S
H965 C986 0.929 . S
H966 C995 0.930 . S
H967 C987 0.931 . S
O968 Co944 2.097 . S
O968 C996 1.214 . S
H969 C997 0.929 . S
H970 C998 0.929 . S
H971 C999 0.930 . S
H972 C1000 0.929 . S
H973 C1002 0.930 . S
H974 C979 0.930 . S
H975 C983 0.930 . S
O976 Co945 2.037 . S
O976 C996 1.234 . S
C977 O951 1.269 . S
C977 O952 1.257 . S
C978 H953 0.930 . S
C978 C981 1.388 . S
C978 C983 1.418 . S
C979 H974 0.930 . S
C979 C982 1.404 . S
C979 C983 1.353 . S
N980 Co945 2.145 . S
N980 C981 1.397 . S
N980 C982 1.334 . S
C981 H962 0.929 . S
C981 C978 1.388 . S
C981 N980 1.397 . S
C982 H963 0.929 . S
C982 C979 1.404 . S
C982 N980 1.334 . S
C983 H975 0.930 . S
C983 C978 1.418 . S
C983 C979 1.353 . S
C984 H954 0.930 . S
C984 N985 1.330 . S
C984 C986 1.446 . S
N985 Co944 2.151 . S
N985 C984 1.330 . S
N985 C989 1.418 . S
C986 H965 0.929 . S
C986 C984 1.446 . S
C986 C987 1.332 . S
C987 H967 0.931 . S
C987 C986 1.332 . S
C987 C988 1.267 . S
C988 H956 0.929 . S
C988 C987 1.267 . S
C988 C989 1.251 . S
C989 H959 0.929 . S
C989 N985 1.418 . S
C989 C988 1.251 . S
C990 H957 0.930 . S
C990 C992 1.406 . S
C990 C995 1.261 . S
C991 H958 0.930 . S
C991 N993 1.325 . S
C991 C994 1.357 . S
C992 H960 0.928 . S
C992 C990 1.406 . S
C992 N993 1.261 . S
N993 Co944 2.214 . S
N993 C991 1.325 . S
N993 C992 1.261 . S
C994 H964 0.931 . S
C994 C991 1.357 . S
C994 C995 1.312 . S
C995 H966 0.930 . S
C995 C990 1.261 . S
C995 C994 1.312 . S
C996 O968 1.214 . S
C996 O976 1.234 . S
C997 H969 0.929 . S
C997 C1000 1.391 . S
C997 C1002 1.391 . S
C998 H970 0.929 . S
C998 C999 1.390 . S
C998 N1001 1.391 . S
C999 H971 0.930 . S
C999 C998 1.390 . S
C999 C1000 1.392 . S
C1000 H972 0.929 . S
C1000 C997 1.391 . S
C1000 C999 1.392 . S
N1001 Co945 2.257 . S
N1001 C998 1.391 . S
N1001 C1002 1.388 . S
C1002 H973 0.930 . S
C1002 C997 1.391 . S
C1002 N1001 1.388 . S
Co1003 O1005 2.143 . S
Co1003 O1011 2.074 . S
Co1003 O1014 2.093 . S
Co1003 O1027 2.097 . S
Co1003 N1044 2.151 . S
Co1003 N1052 2.214 . S
Co1004 O1005 2.160 . S
Co1004 O1010 2.058 . S
Co1004 O1020 2.057 . S
Co1004 O1035 2.037 . S
Co1004 N1039 2.145 . S
Co1004 N1060 2.257 . S
O1005 Co1003 2.143 . S
O1005 Co1004 2.160 . S
C1006 O1007 1.278 . S
C1006 O1014 1.224 . S
O1007 C1006 1.278 . S
C1008 O1009 1.245 . S
C1008 O1020 1.232 . S
O1009 C1008 1.245 . S
O1010 Co1004 2.058 . S
O1010 C1036 1.269 . S
O1011 Co1003 2.074 . S
O1011 C1036 1.257 . S
H1012 C1037 0.930 . S
H1013 C1043 0.930 . S
O1014 Co1003 2.093 . S
O1014 C1006 1.224 . S
H1015 C1047 0.929 . S
H1016 C1049 0.930 . S
H1017 C1050 0.930 . S
H1018 C1048 0.929 . S
H1019 C1051 0.928 . S
O1020 Co1004 2.057 . S
O1020 C1008 1.232 . S
H1021 C1040 0.929 . S
H1022 C1041 0.929 . S
H1023 C1053 0.931 . S
H1024 C1045 0.929 . S
H1025 C1054 0.930 . S
H1026 C1046 0.931 . S
O1027 Co1003 2.097 . S
O1027 C1055 1.214 . S
H1028 C1056 0.929 . S
H1029 C1057 0.929 . S
H1030 C1058 0.930 . S
H1031 C1059 0.929 . S
H1032 C1061 0.930 . S
H1033 C1038 0.930 . S
H1034 C1042 0.930 . S
O1035 Co1004 2.037 . S
O1035 C1055 1.234 . S
C1036 O1010 1.269 . S
C1036 O1011 1.257 . S
C1037 H1012 0.930 . S
C1037 C1040 1.388 . S
C1037 C1042 1.418 . S
C1038 H1033 0.930 . S
C1038 C1041 1.404 . S
C1038 C1042 1.353 . S
N1039 Co1004 2.145 . S
N1039 C1040 1.397 . S
N1039 C1041 1.334 . S
C1040 H1021 0.929 . S
C1040 C1037 1.388 . S
C1040 N1039 1.397 . S
C1041 H1022 0.929 . S
C1041 C1038 1.404 . S
C1041 N1039 1.334 . S
C1042 H1034 0.930 . S
C1042 C1037 1.418 . S
C1042 C1038 1.353 . S
C1043 H1013 0.930 . S
C1043 N1044 1.330 . S
C1043 C1045 1.446 . S
N1044 Co1003 2.151 . S
N1044 C1043 1.330 . S
N1044 C1048 1.418 . S
C1045 H1024 0.929 . S
C1045 C1043 1.446 . S
C1045 C1046 1.332 . S
C1046 H1026 0.931 . S
C1046 C1045 1.332 . S
C1046 C1047 1.267 . S
C1047 H1015 0.929 . S
C1047 C1046 1.267 . S
C1047 C1048 1.251 . S
C1048 H1018 0.929 . S
C1048 N1044 1.418 . S
C1048 C1047 1.251 . S
C1049 H1016 0.930 . S
C1049 C1051 1.406 . S
C1049 C1054 1.261 . S
C1050 H1017 0.930 . S
C1050 N1052 1.325 . S
C1050 C1053 1.357 . S
C1051 H1019 0.928 . S
C1051 C1049 1.406 . S
C1051 N1052 1.261 . S
N1052 Co1003 2.214 . S
N1052 C1050 1.325 . S
N1052 C1051 1.261 . S
C1053 H1023 0.931 . S
C1053 C1050 1.357 . S
C1053 C1054 1.312 . S
C1054 H1025 0.930 . S
C1054 C1049 1.261 . S
C1054 C1053 1.312 . S
C1055 O1027 1.214 . S
C1055 O1035 1.234 . S
C1056 H1028 0.929 . S
C1056 C1059 1.391 . S
C1056 C1061 1.391 . S
C1057 H1029 0.929 . S
C1057 C1058 1.390 . S
C1057 N1060 1.391 . S
C1058 H1030 0.930 . S
C1058 C1057 1.390 . S
C1058 C1059 1.392 . S
C1059 H1031 0.929 . S
C1059 C1056 1.391 . S
C1059 C1058 1.392 . S
N1060 Co1004 2.257 . S
N1060 C1057 1.391 . S
N1060 C1061 1.388 . S
C1061 H1032 0.930 . S
C1061 C1056 1.391 . S
C1061 N1060 1.388 . S
C1062 C1063 1.369 . S
C1062 C1064 1.419 . S
C1062 H1066 0.930 . S
C1063 C1062 1.369 . S
C1063 C1072 1.429 . S
C1064 C1062 1.419 . S
C1064 C1065 1.363 . S
C1064 H1067 0.929 . S
C1065 C1064 1.363 . S
C1065 C1071 1.428 . S
H1066 C1062 0.930 . S
H1067 C1064 0.929 . S
S1068 N1069 1.613 . S
S1068 N1070 1.610 . S
N1069 S1068 1.613 . S
N1069 C1072 1.350 . S
N1070 S1068 1.610 . S
N1070 C1071 1.351 . S
C1071 C1065 1.428 . S
C1071 N1070 1.351 . S
C1071 C1072 1.434 . S
C1072 C1063 1.429 . S
C1072 N1069 1.350 . S
C1072 C1071 1.434 . S
C1073 C1074 1.369 . S
C1073 C1075 1.419 . S
C1073 H1077 0.930 . S
C1074 C1073 1.369 . S
C1074 C1083 1.429 . S
C1075 C1073 1.419 . S
C1075 C1076 1.363 . S
C1075 H1078 0.929 . S
C1076 C1075 1.363 . S
C1076 C1082 1.428 . S
H1077 C1073 0.930 . S
H1078 C1075 0.929 . S
S1079 N1080 1.613 . S
S1079 N1081 1.610 . S
N1080 S1079 1.613 . S
N1080 C1083 1.350 . S
N1081 S1079 1.610 . S
N1081 C1082 1.351 . S
C1082 C1076 1.428 . S
C1082 N1081 1.351 . S
C1082 C1083 1.434 . S
C1083 C1074 1.429 . S
C1083 N1080 1.350 . S
C1083 C1082 1.434 . S
C1084 C1085 1.369 . S
C1084 C1086 1.419 . S
C1084 H1088 0.930 . S
C1085 C1084 1.369 . S
C1085 C1094 1.429 . S
C1086 C1084 1.419 . S
C1086 C1087 1.363 . S
C1086 H1089 0.929 . S
C1087 C1086 1.363 . S
C1087 C1093 1.428 . S
H1088 C1084 0.930 . S
H1089 C1086 0.929 . S
S1090 N1091 1.613 . S
S1090 N1092 1.610 . S
N1091 S1090 1.613 . S
N1091 C1094 1.350 . S
N1092 S1090 1.610 . S
N1092 C1093 1.351 . S
C1093 C1087 1.428 . S
C1093 N1092 1.351 . S
C1093 C1094 1.434 . S
C1094 C1085 1.429 . S
C1094 N1091 1.350 . S
C1094 C1093 1.434 . S
C1095 C1096 1.369 . S
C1095 C1097 1.419 . S
C1095 H1099 0.930 . S
C1096 C1095 1.369 . S
C1096 C1105 1.429 . S
C1097 C1095 1.419 . S
C1097 C1098 1.363 . S
C1097 H1100 0.929 . S
C1098 C1097 1.363 . S
C1098 C1104 1.428 . S
H1099 C1095 0.930 . S
H1100 C1097 0.929 . S
S1101 N1102 1.613 . S
S1101 N1103 1.610 . S
N1102 S1101 1.613 . S
N1102 C1105 1.350 . S
N1103 S1101 1.610 . S
N1103 C1104 1.351 . S
C1104 C1098 1.428 . S
C1104 N1103 1.351 . S
C1104 C1105 1.434 . S
C1105 C1096 1.429 . S
C1105 N1102 1.350 . S
C1105 C1104 1.434 . S
C1106 C1107 1.369 . S
C1106 C1108 1.419 . S
C1106 H1110 0.930 . S
C1107 C1106 1.369 . S
C1107 C1116 1.429 . S
C1108 C1106 1.419 . S
C1108 C1109 1.363 . S
C1108 H1111 0.929 . S
C1109 C1108 1.363 . S
C1109 C1115 1.428 . S
H1110 C1106 0.930 . S
H1111 C1108 0.929 . S
S1112 N1113 1.613 . S
S1112 N1114 1.610 . S
N1113 S1112 1.613 . S
N1113 C1116 1.350 . S
N1114 S1112 1.610 . S
N1114 C1115 1.351 . S
C1115 C1109 1.428 . S
C1115 N1114 1.351 . S
C1115 C1116 1.434 . S
C1116 C1107 1.429 . S
C1116 N1113 1.350 . S
C1116 C1115 1.434 . S
C1117 C1118 1.369 . S
C1117 C1119 1.419 . S
C1117 H1121 0.930 . S
C1118 C1117 1.369 . S
C1118 C1127 1.429 . S
C1119 C1117 1.419 . S
C1119 C1120 1.363 . S
C1119 H1122 0.929 . S
C1120 C1119 1.363 . S
C1120 C1126 1.428 . S
H1121 C1117 0.930 . S
H1122 C1119 0.929 . S
S1123 N1124 1.613 1_655 S
S1123 N1125 1.610 1_655 S
N1124 S1123 1.613 1_455 S
N1124 C1127 1.350 . S
N1125 S1123 1.610 1_455 S
N1125 C1126 1.351 . S
C1126 C1120 1.428 . S
C1126 N1125 1.351 . S
C1126 C1127 1.434 . S
C1127 C1118 1.429 . S
C1127 N1124 1.350 . S
C1127 C1126 1.434 . S
C1128 C1129 1.369 . S
C1128 C1130 1.419 1_655 S
C1128 H1132 0.930 . S
C1129 C1128 1.369 . S
C1129 C1138 1.429 . S
C1130 C1128 1.419 1_455 S
C1130 C1131 1.363 . S
C1130 H1133 0.929 . S
C1131 C1130 1.363 . S
C1131 C1137 1.428 . S
H1132 C1128 0.930 . S
H1133 C1130 0.929 . S
S1134 N1135 1.602 1_455 S
S1134 N1136 1.632 . S
N1135 S1134 1.602 1_655 S
N1135 C1138 1.350 . S
N1136 S1134 1.632 . S
N1136 C1137 1.351 . S
C1137 C1131 1.428 . S
C1137 N1136 1.351 . S
C1137 C1138 1.434 1_455 S
C1138 C1129 1.429 . S
C1138 N1135 1.350 . S
C1138 C1137 1.434 1_655 S
C1139 C1140 1.369 . S
C1139 C1141 1.419 . S
C1139 H1143 0.930 . S
C1140 C1139 1.369 . S
C1140 C1149 1.429 . S
C1141 C1139 1.419 . S
C1141 C1142 1.363 . S
C1141 H1144 0.929 . S
C1142 C1141 1.363 . S
C1142 C1148 1.428 . S
H1143 C1139 0.930 . S
H1144 C1141 0.929 . S
S1145 N1146 1.613 . S
S1145 N1147 1.610 . S
N1146 S1145 1.613 . S
N1146 C1149 1.350 . S
N1147 S1145 1.610 . S
N1147 C1148 1.351 . S
C1148 C1142 1.428 . S
C1148 N1147 1.351 . S
C1148 C1149 1.434 . S
C1149 C1140 1.429 . S
C1149 N1146 1.350 . S
C1149 C1148 1.434 . S
C1150 C1151 1.369 . S
C1150 C1152 1.419 1_545 S
C1150 H1154 0.930 . S
C1151 C1150 1.369 . S
C1151 C1160 1.429 . S
C1152 C1150 1.419 1_565 S
C1152 C1153 1.363 . S
C1152 H1155 0.929 . S
C1153 C1152 1.363 . S
C1153 C1159 1.428 . S
H1154 C1150 0.930 . S
H1155 C1152 0.929 . S
S1156 N1157 1.627 . S
S1156 N1158 1.590 1_545 S
N1157 S1156 1.627 . S
N1157 C1160 1.350 . S
N1158 S1156 1.590 1_565 S
N1158 C1159 1.351 . S
C1159 C1153 1.428 . S
C1159 N1158 1.351 . S
C1159 C1160 1.434 1_565 S
C1160 C1151 1.429 . S
C1160 N1157 1.350 . S
C1160 C1159 1.434 1_545 S
C1161 C1162 1.369 . S
C1161 C1163 1.419 1_455 S
C1161 H1165 0.930 . S
C1162 C1161 1.369 . S
C1162 C1171 1.429 . S
C1163 C1161 1.419 1_655 S
C1163 C1164 1.363 . S
C1163 H1166 0.929 . S
C1164 C1163 1.363 . S
C1164 C1170 1.428 . S
H1165 C1161 0.930 . S
H1166 C1163 0.929 . S
S1167 N1168 1.613 . S
S1167 N1169 1.610 1_455 S
N1168 S1167 1.613 . S
N1168 C1171 1.350 . S
N1169 S1167 1.610 1_655 S
N1169 C1170 1.351 . S
C1170 C1164 1.428 . S
C1170 N1169 1.351 . S
C1170 C1171 1.434 1_655 S
C1171 C1162 1.429 . S
C1171 N1168 1.350 . S
C1171 C1170 1.434 1_455 S
C1172 C1173 1.369 . S
C1172 C1174 1.419 . S
C1172 H1176 0.930 . S
C1173 C1172 1.369 . S
C1173 C1182 1.429 . S
C1174 C1172 1.419 . S
C1174 C1175 1.363 . S
C1174 H1177 0.929 . S
C1175 C1174 1.363 . S
C1175 C1181 1.428 . S
H1176 C1172 0.930 . S
H1177 C1174 0.929 . S
S1178 N1179 1.613 . S
S1178 N1180 1.610 . S
N1179 S1178 1.613 . S
N1179 C1182 1.350 . S
N1180 S1178 1.610 . S
N1180 C1181 1.351 . S
C1181 C1175 1.428 . S
C1181 N1180 1.351 . S
C1181 C1182 1.434 . S
C1182 C1173 1.429 . S
C1182 N1179 1.350 . S
C1182 C1181 1.434 . S
C1183 C1184 1.369 . S
C1183 C1185 1.419 1_545 S
C1183 H1187 0.930 . S
C1184 C1183 1.369 . S
C1184 C1193 1.429 . S
C1185 C1183 1.419 1_565 S
C1185 C1186 1.363 . S
C1185 H1188 0.929 . S
C1186 C1185 1.363 . S
C1186 C1192 1.428 . S
H1187 C1183 0.930 . S
H1188 C1185 0.929 . S
S1189 N1190 1.613 1_565 S
S1189 N1191 1.610 . S
N1190 S1189 1.613 1_545 S
N1190 C1193 1.350 . S
N1191 S1189 1.610 . S
N1191 C1192 1.351 . S
C1192 C1186 1.428 . S
C1192 N1191 1.351 . S
C1192 C1193 1.434 1_565 S
C1193 C1184 1.429 . S
C1193 N1190 1.350 . S
C1193 C1192 1.434 1_545 S
C1194 C1195 1.369 . S
C1194 C1196 1.419 1_565 S
C1194 H1198 0.930 . S
C1195 C1194 1.369 . S
C1195 C1204 1.429 . S
C1196 C1194 1.419 1_545 S
C1196 C1197 1.363 . S
C1196 H1199 0.929 . S
C1197 C1196 1.363 . S
C1197 C1203 1.428 . S
H1198 C1194 0.930 . S
H1199 C1196 0.929 . S
S1200 N1201 1.613 . S
S1200 N1202 1.610 1_565 S
N1201 S1200 1.613 . S
N1201 C1204 1.350 . S
N1202 S1200 1.610 1_545 S
N1202 C1203 1.351 . S
C1203 C1197 1.428 . S
C1203 N1202 1.351 . S
C1203 C1204 1.434 1_545 S
C1204 C1195 1.429 . S
C1204 N1201 1.350 . S
C1204 C1203 1.434 1_565 S
C1205 C1206 1.369 . S
C1205 C1207 1.419 1_455 S
C1205 H1209 0.930 . S
C1206 C1205 1.369 . S
C1206 C1215 1.429 . S
C1207 C1205 1.419 1_655 S
C1207 C1208 1.363 . S
C1207 H1210 0.929 . S
C1208 C1207 1.363 . S
C1208 C1214 1.428 . S
H1209 C1205 0.930 . S
H1210 C1207 0.929 . S
S1211 N1212 1.613 . S
S1211 N1213 1.610 1_455 S
N1212 S1211 1.613 . S
N1212 C1215 1.350 . S
N1213 S1211 1.610 1_655 S
N1213 C1214 1.351 . S
C1214 C1208 1.428 . S
C1214 N1213 1.351 . S
C1214 C1215 1.434 1_655 S
C1215 C1206 1.429 . S
C1215 N1212 1.350 . S
C1215 C1214 1.434 1_455 S
C1216 C1217 1.369 . S
C1216 C1218 1.419 . S
C1216 H1220 0.930 . S
C1217 C1216 1.369 . S
C1217 C1226 1.429 . S
C1218 C1216 1.419 . S
C1218 C1219 1.363 . S
C1218 H1221 0.929 . S
C1219 C1218 1.363 . S
C1219 C1225 1.428 . S
H1220 C1216 0.930 . S
H1221 C1218 0.929 . S
S1222 N1223 1.613 . S
S1222 N1224 1.610 . S
N1223 S1222 1.613 . S
N1223 C1226 1.350 . S
N1224 S1222 1.610 . S
N1224 C1225 1.351 . S
C1225 C1219 1.428 . S
C1225 N1224 1.351 . S
C1225 C1226 1.434 . S
C1226 C1217 1.429 . S
C1226 N1223 1.350 . S
C1226 C1225 1.434 . S
C1227 C1228 1.369 . S
C1227 C1229 1.419 . S
C1227 H1231 0.930 . S
C1228 C1227 1.369 . S
C1228 C1237 1.429 . S
C1229 C1227 1.419 . S
C1229 C1230 1.363 . S
C1229 H1232 0.929 . S
C1230 C1229 1.363 . S
C1230 C1236 1.428 . S
H1231 C1227 0.930 . S
H1232 C1229 0.929 . S
S1233 N1234 1.613 . S
S1233 N1235 1.610 . S
N1234 S1233 1.613 . S
N1234 C1237 1.350 . S
N1235 S1233 1.610 . S
N1235 C1236 1.351 . S
C1236 C1230 1.428 . S
C1236 N1235 1.351 . S
C1236 C1237 1.434 . S
C1237 C1228 1.429 . S
C1237 N1234 1.350 . S
C1237 C1236 1.434 . S
C1238 C1239 1.369 . S
C1238 C1240 1.419 . S
C1238 H1242 0.930 . S
C1239 C1238 1.369 . S
C1239 C1248 1.429 . S
C1240 C1238 1.419 . S
C1240 C1241 1.363 . S
C1240 H1243 0.929 . S
C1241 C1240 1.363 . S
C1241 C1247 1.428 . S
H1242 C1238 0.930 . S
H1243 C1240 0.929 . S
S1244 N1245 1.613 . S
S1244 N1246 1.610 . S
N1245 S1244 1.613 . S
N1245 C1248 1.350 . S
N1246 S1244 1.610 . S
N1246 C1247 1.351 . S
C1247 C1241 1.428 . S
C1247 N1246 1.351 . S
C1247 C1248 1.434 . S
C1248 C1239 1.429 . S
C1248 N1245 1.350 . S
C1248 C1247 1.434 . S
C1249 C1250 1.369 . S
C1249 C1251 1.419 . S
C1249 H1253 0.930 . S
C1250 C1249 1.369 . S
C1250 C1259 1.429 . S
C1251 C1249 1.419 . S
C1251 C1252 1.363 . S
C1251 H1254 0.929 . S
C1252 C1251 1.363 . S
C1252 C1258 1.428 . S
H1253 C1249 0.930 . S
H1254 C1251 0.929 . S
S1255 N1256 1.613 . S
S1255 N1257 1.610 . S
N1256 S1255 1.613 . S
N1256 C1259 1.350 . S
N1257 S1255 1.610 . S
N1257 C1258 1.351 . S
C1258 C1252 1.428 . S
C1258 N1257 1.351 . S
C1258 C1259 1.434 . S
C1259 C1250 1.429 . S
C1259 N1256 1.350 . S
C1259 C1258 1.434 . S
C1260 C1261 1.369 . S
C1260 C1262 1.419 . S
C1260 H1264 0.930 . S
C1261 C1260 1.369 . S
C1261 C1270 1.429 . S
C1262 C1260 1.419 . S
C1262 C1263 1.363 . S
C1262 H1265 0.929 . S
C1263 C1262 1.363 . S
C1263 C1269 1.428 . S
H1264 C1260 0.930 . S
H1265 C1262 0.929 . S
S1266 N1267 1.613 . S
S1266 N1268 1.610 . S
N1267 S1266 1.613 . S
N1267 C1270 1.350 . S
N1268 S1266 1.610 . S
N1268 C1269 1.351 . S
C1269 C1263 1.428 . S
C1269 N1268 1.351 . S
C1269 C1270 1.434 . S
C1270 C1261 1.429 . S
C1270 N1267 1.350 . S
C1270 C1269 1.434 . S
C1271 C1272 1.369 . S
C1271 C1273 1.419 . S
C1271 H1275 0.930 . S
C1272 C1271 1.369 . S
C1272 C1281 1.429 . S
C1273 C1271 1.419 . S
C1273 C1274 1.363 . S
C1273 H1276 0.929 . S
C1274 C1273 1.363 . S
C1274 C1280 1.428 . S
H1275 C1271 0.930 . S
H1276 C1273 0.929 . S
S1277 N1278 1.613 . S
S1277 N1279 1.610 . S
N1278 S1277 1.613 . S
N1278 C1281 1.350 . S
N1279 S1277 1.610 . S
N1279 C1280 1.351 . S
C1280 C1274 1.428 . S
C1280 N1279 1.351 . S
C1280 C1281 1.434 . S
C1281 C1272 1.429 . S
C1281 N1278 1.350 . S
C1281 C1280 1.434 . S
C1282 C1283 1.369 . S
C1282 C1284 1.419 . S
C1282 H1286 0.930 . S
C1283 C1282 1.369 . S
C1283 C1292 1.429 . S
C1284 C1282 1.419 . S
C1284 C1285 1.363 . S
C1284 H1287 0.929 . S
C1285 C1284 1.363 . S
C1285 C1291 1.428 . S
H1286 C1282 0.930 . S
H1287 C1284 0.929 . S
S1288 N1289 1.613 . S
S1288 N1290 1.610 . S
N1289 S1288 1.613 . S
N1289 C1292 1.350 . S
N1290 S1288 1.610 . S
N1290 C1291 1.351 . S
C1291 C1285 1.428 . S
C1291 N1290 1.351 . S
C1291 C1292 1.434 . S
C1292 C1283 1.429 . S
C1292 N1289 1.350 . S
C1292 C1291 1.434 . S
C1293 C1294 1.369 . S
C1293 C1295 1.419 . S
C1293 H1297 0.930 . S
C1294 C1293 1.369 . S
C1294 C1303 1.429 . S
C1295 C1293 1.419 . S
C1295 C1296 1.363 . S
C1295 H1298 0.929 . S
C1296 C1295 1.363 . S
C1296 C1302 1.428 . S
H1297 C1293 0.930 . S
H1298 C1295 0.929 . S
S1299 N1300 1.613 . S
S1299 N1301 1.610 . S
N1300 S1299 1.613 . S
N1300 C1303 1.350 . S
N1301 S1299 1.610 . S
N1301 C1302 1.351 . S
C1302 C1296 1.428 . S
C1302 N1301 1.351 . S
C1302 C1303 1.434 . S
C1303 C1294 1.429 . S
C1303 N1300 1.350 . S
C1303 C1302 1.434 . S
C1304 C1305 1.369 . S
C1304 C1306 1.419 . S
C1304 H1308 0.930 . S
C1305 C1304 1.369 . S
C1305 C1314 1.429 . S
C1306 C1304 1.419 . S
C1306 C1307 1.363 . S
C1306 H1309 0.929 . S
C1307 C1306 1.363 . S
C1307 C1313 1.428 . S
H1308 C1304 0.930 . S
H1309 C1306 0.929 . S
S1310 N1311 1.613 . S
S1310 N1312 1.610 . S
N1311 S1310 1.613 . S
N1311 C1314 1.350 . S
N1312 S1310 1.610 . S
N1312 C1313 1.351 . S
C1313 C1307 1.428 . S
C1313 N1312 1.351 . S
C1313 C1314 1.434 . S
C1314 C1305 1.429 . S
C1314 N1311 1.350 . S
C1314 C1313 1.434 . S
C1315 C1316 1.369 . S
C1315 C1317 1.419 . S
C1315 H1319 0.930 . S
C1316 C1315 1.369 . S
C1316 C1325 1.429 . S
C1317 C1315 1.419 . S
C1317 C1318 1.363 . S
C1317 H1320 0.929 . S
C1318 C1317 1.363 . S
C1318 C1324 1.428 . S
H1319 C1315 0.930 . S
H1320 C1317 0.929 . S
S1321 N1322 1.613 . S
S1321 N1323 1.610 . S
N1322 S1321 1.613 . S
N1322 C1325 1.350 . S
N1323 S1321 1.610 . S
N1323 C1324 1.351 . S
C1324 C1318 1.428 . S
C1324 N1323 1.351 . S
C1324 C1325 1.434 . S
C1325 C1316 1.429 . S
C1325 N1322 1.350 . S
C1325 C1324 1.434 . S
C1326 C1327 1.369 . S
C1326 C1328 1.419 . S
C1326 H1330 0.930 . S
C1327 C1326 1.369 . S
C1327 C1336 1.429 . S
C1328 C1326 1.419 . S
C1328 C1329 1.363 . S
C1328 H1331 0.929 . S
C1329 C1328 1.363 . S
C1329 C1335 1.428 . S
H1330 C1326 0.930 . S
H1331 C1328 0.929 . S
S1332 N1333 1.613 . S
S1332 N1334 1.610 . S
N1333 S1332 1.613 . S
N1333 C1336 1.350 . S
N1334 S1332 1.610 . S
N1334 C1335 1.351 . S
C1335 C1329 1.428 . S
C1335 N1334 1.351 . S
C1335 C1336 1.434 . S
C1336 C1327 1.429 . S
C1336 N1333 1.350 . S
C1336 C1335 1.434 . S
C1337 C1338 1.369 . S
C1337 C1339 1.419 . S
C1337 H1341 0.930 . S
C1338 C1337 1.369 . S
C1338 C1347 1.429 . S
C1339 C1337 1.419 . S
C1339 C1340 1.363 . S
C1339 H1342 0.929 . S
C1340 C1339 1.363 . S
C1340 C1346 1.428 . S
H1341 C1337 0.930 . S
H1342 C1339 0.929 . S
S1343 N1344 1.613 . S
S1343 N1345 1.610 . S
N1344 S1343 1.613 . S
N1344 C1347 1.350 . S
N1345 S1343 1.610 . S
N1345 C1346 1.351 . S
C1346 C1340 1.428 . S
C1346 N1345 1.351 . S
C1346 C1347 1.434 . S
C1347 C1338 1.429 . S
C1347 N1344 1.350 . S
C1347 C1346 1.434 . S
C1348 C1349 1.369 . S
C1348 C1350 1.419 . S
C1348 H1352 0.930 . S
C1349 C1348 1.369 . S
C1349 C1358 1.429 . S
C1350 C1348 1.419 . S
C1350 C1351 1.363 . S
C1350 H1353 0.929 . S
C1351 C1350 1.363 . S
C1351 C1357 1.428 . S
H1352 C1348 0.930 . S
H1353 C1350 0.929 . S
S1354 N1355 1.613 . S
S1354 N1356 1.610 . S
N1355 S1354 1.613 . S
N1355 C1358 1.350 . S
N1356 S1354 1.610 . S
N1356 C1357 1.351 . S
C1357 C1351 1.428 . S
C1357 N1356 1.351 . S
C1357 C1358 1.434 . S
C1358 C1349 1.429 . S
C1358 N1355 1.350 . S
C1358 C1357 1.434 . S
C1359 C1360 1.369 . S
C1359 C1361 1.419 1_554 S
C1359 H1363 0.930 . S
C1360 C1359 1.369 . S
C1360 C1369 1.429 . S
C1361 C1359 1.419 1_556 S
C1361 C1362 1.363 . S
C1361 H1364 0.929 . S
C1362 C1361 1.363 . S
C1362 C1368 1.428 . S
H1363 C1359 0.930 . S
H1364 C1361 0.929 . S
S1365 N1366 1.613 . S
S1365 N1367 1.610 1_554 S
N1366 S1365 1.613 . S
N1366 C1369 1.350 . S
N1367 S1365 1.610 1_556 S
N1367 C1368 1.351 . S
C1368 C1362 1.428 . S
C1368 N1367 1.351 . S
C1368 C1369 1.434 1_556 S
C1369 C1360 1.429 . S
C1369 N1366 1.350 . S
C1369 C1368 1.434 1_554 S
C1370 C1371 1.369 1_565 S
C1370 C1372 1.419 1_556 S
C1370 H1374 0.930 . S
C1371 C1370 1.369 1_545 S
C1371 C1380 1.429 . S
C1372 C1370 1.419 1_554 S
C1372 C1373 1.363 . S
C1372 H1375 0.929 . S
C1373 C1372 1.363 . S
C1373 C1379 1.428 1_565 S
H1374 C1370 0.930 . S
H1375 C1372 0.929 . S
S1376 N1377 1.613 1_554 S
S1376 N1378 1.610 . S
N1377 S1376 1.613 1_556 S
N1377 C1380 1.350 . S
N1378 S1376 1.610 . S
N1378 C1379 1.351 . S
C1379 C1373 1.428 1_545 S
C1379 N1378 1.351 . S
C1379 C1380 1.434 1_554 S
C1380 C1371 1.429 . S
C1380 N1377 1.350 . S
C1380 C1379 1.434 1_556 S
C1381 C1382 1.369 . S
C1381 C1383 1.419 1_556 S
C1381 H1385 0.930 . S
C1382 C1381 1.369 . S
C1382 C1391 1.429 1_655 S
C1383 C1381 1.419 1_554 S
C1383 C1384 1.363 1_655 S
C1383 H1386 0.929 . S
C1384 C1383 1.363 1_455 S
C1384 C1390 1.428 . S
H1385 C1381 0.930 . S
H1386 C1383 0.929 . S
S1387 N1388 1.613 . S
S1387 N1389 1.610 1_556 S
N1388 S1387 1.613 . S
N1388 C1391 1.350 . S
N1389 S1387 1.610 1_554 S
N1389 C1390 1.351 . S
C1390 C1384 1.428 . S
C1390 N1389 1.351 . S
C1390 C1391 1.434 1_554 S
C1391 C1382 1.429 1_455 S
C1391 N1388 1.350 . S
C1391 C1390 1.434 1_556 S
C1392 C1393 1.369 . S
C1392 C1394 1.419 . S
C1392 H1396 0.930 . S
C1393 C1392 1.369 . S
C1393 C1402 1.429 . S
C1394 C1392 1.419 . S
C1394 C1395 1.363 . S
C1394 H1397 0.929 . S
C1395 C1394 1.363 . S
C1395 C1401 1.428 . S
H1396 C1392 0.930 . S
H1397 C1394 0.929 . S
S1398 N1399 1.613 . S
S1398 N1400 1.610 . S
N1399 S1398 1.613 . S
N1399 C1402 1.350 . S
N1400 S1398 1.610 . S
N1400 C1401 1.351 . S
C1401 C1395 1.428 . S
C1401 N1400 1.351 . S
C1401 C1402 1.434 . S
C1402 C1393 1.429 . S
C1402 N1399 1.350 . S
C1402 C1401 1.434 . S
C1403 C1404 1.369 . S
C1403 C1405 1.419 . S
C1403 H1407 0.930 . S
C1404 C1403 1.369 . S
C1404 C1413 1.429 . S
C1405 C1403 1.419 . S
C1405 C1406 1.363 . S
C1405 H1408 0.929 . S
C1406 C1405 1.363 . S
C1406 C1412 1.428 . S
H1407 C1403 0.930 . S
H1408 C1405 0.929 . S
S1409 N1410 1.613 . S
S1409 N1411 1.610 . S
N1410 S1409 1.613 . S
N1410 C1413 1.350 . S
N1411 S1409 1.610 . S
N1411 C1412 1.351 . S
C1412 C1406 1.428 . S
C1412 N1411 1.351 . S
C1412 C1413 1.434 . S
C1413 C1404 1.429 . S
C1413 N1410 1.350 . S
C1413 C1412 1.434 . S
C1414 C1415 1.369 . S
C1414 C1416 1.419 . S
C1414 H1418 0.930 . S
C1415 C1414 1.369 . S
C1415 C1424 1.429 . S
C1416 C1414 1.419 . S
C1416 C1417 1.363 . S
C1416 H1419 0.929 . S
C1417 C1416 1.363 . S
C1417 C1423 1.428 . S
H1418 C1414 0.930 . S
H1419 C1416 0.929 . S
S1420 N1421 1.613 . S
S1420 N1422 1.610 . S
N1421 S1420 1.613 . S
N1421 C1424 1.350 . S
N1422 S1420 1.610 . S
N1422 C1423 1.351 . S
C1423 C1417 1.428 . S
C1423 N1422 1.351 . S
C1423 C1424 1.434 . S
C1424 C1415 1.429 . S
C1424 N1421 1.350 . S
C1424 C1423 1.434 . S
C1425 C1426 1.369 . S
C1425 C1427 1.419 . S
C1425 H1429 0.930 . S
C1426 C1425 1.369 . S
C1426 C1435 1.429 . S
C1427 C1425 1.419 . S
C1427 C1428 1.363 . S
C1427 H1430 0.929 . S
C1428 C1427 1.363 . S
C1428 C1434 1.428 . S
H1429 C1425 0.930 . S
H1430 C1427 0.929 . S
S1431 N1432 1.613 . S
S1431 N1433 1.610 . S
N1432 S1431 1.613 . S
N1432 C1435 1.350 . S
N1433 S1431 1.610 . S
N1433 C1434 1.351 . S
C1434 C1428 1.428 . S
C1434 N1433 1.351 . S
C1434 C1435 1.434 . S
C1435 C1426 1.429 . S
C1435 N1432 1.350 . S
C1435 C1434 1.434 . S
C1436 C1437 1.369 . S
C1436 C1438 1.419 . S
C1436 H1440 0.930 . S
C1437 C1436 1.369 . S
C1437 C1446 1.429 . S
C1438 C1436 1.419 . S
C1438 C1439 1.363 . S
C1438 H1441 0.929 . S
C1439 C1438 1.363 . S
C1439 C1445 1.428 . S
H1440 C1436 0.930 . S
H1441 C1438 0.929 . S
S1442 N1443 1.613 . S
S1442 N1444 1.610 . S
N1443 S1442 1.613 . S
N1443 C1446 1.350 . S
N1444 S1442 1.610 . S
N1444 C1445 1.351 . S
C1445 C1439 1.428 . S
C1445 N1444 1.351 . S
C1445 C1446 1.434 . S
C1446 C1437 1.429 . S
C1446 N1443 1.350 . S
C1446 C1445 1.434 . S
C1447 C1448 1.369 . S
C1447 C1449 1.419 . S
C1447 H1451 0.930 . S
C1448 C1447 1.369 . S
C1448 C1457 1.429 . S
C1449 C1447 1.419 . S
C1449 C1450 1.363 . S
C1449 H1452 0.929 . S
C1450 C1449 1.363 . S
C1450 C1456 1.428 . S
H1451 C1447 0.930 . S
H1452 C1449 0.929 . S
S1453 N1454 1.613 . S
S1453 N1455 1.610 . S
N1454 S1453 1.613 . S
N1454 C1457 1.350 . S
N1455 S1453 1.610 . S
N1455 C1456 1.351 . S
C1456 C1450 1.428 . S
C1456 N1455 1.351 . S
C1456 C1457 1.434 . S
C1457 C1448 1.429 . S
C1457 N1454 1.350 . S
C1457 C1456 1.434 . S
C1063 C595 1.309 . S
C1065 C5 1.309 . S
C1074 C64 1.306 . S
C1076 C654 1.313 . S
C1085 C536 1.307 . S
C1087 C123 1.313 . S
C1096 C831 1.309 . S
C1098 C182 1.309 . S
C1107 C241 1.308 . S
C1109 C713 1.313 . S
C1118 C772 1.311 . S
C1120 C300 1.312 . S
C1129 C359 1.307 . S
C1131 C949 1.313 . S
C1140 C1008 1.313 . S
C1142 C418 1.308 . S
C1151 C477 1.314 . S
C1153 C890 1.307 . S
C1162 C52 1.431 . S
C1164 C92 1.376 . S
C1173 C111 1.438 . S
C1175 C151 1.380 . S
C1184 C33 1.382 . S
C1186 C170 1.432 . S
C1195 C328 1.372 . S
C1197 C229 1.435 . S
C1206 C210 1.374 . S
C1208 C288 1.436 . S
C1217 C347 1.431 . S
C1219 C269 1.379 . S
C1228 C406 1.436 . S
C1230 C446 1.382 . S
C1239 C465 1.435 . S
C1241 C505 1.383 . S
C1250 C387 1.372 . S
C1252 C524 1.436 . S
C1261 C682 1.374 . S
C1263 C583 1.437 . S
C1272 C564 1.378 . S
C1274 C642 1.432 . S
C1283 C623 1.376 . S
C1285 C701 1.437 . S
C1294 C800 1.374 . S
C1296 C760 1.433 . S
C1305 C859 1.383 . S
C1307 C819 1.432 . S
C1316 C741 1.373 . S
C1318 C878 1.436 . S
C1327 C937 1.432 . S
C1329 C1036 1.382 . S
C1338 C996 1.432 . S
C1340 C918 1.382 . S
C1349 C1055 1.433 . S
C1351 C977 1.383 . S
C1360 C3 1.862 . S
C1362 C180 1.866 . S
C1371 C239 1.863 . S
C1373 C62 1.863 . S
C1382 C298 1.863 . S
C1384 C121 1.868 . S
C1393 C534 1.865 . S
C1395 C357 1.869 . S
C1404 C593 1.863 . S
C1406 C416 1.863 . S
C1415 C475 1.870 . S
C1417 C652 1.866 . S
C1426 C888 1.867 . S
C1428 C711 1.863 . S
C1437 C947 1.867 . S
C1439 C770 1.864 . S
C1448 C1006 1.870 . S
C1450 C829 1.867 . S
