# Generated by pormake.
# Topology sra, (4)-cn, num edge types: 1
# Building blocks:
#     Node 0, Type 0, BuildingBlock: KUFVIS_clean_sbu_0, # of connection points: 4
#     Node 1, Type 0, BuildingBlock: KUFVIS_clean_sbu_0, # of connection points: 4
#     Node 2, Type 0, BuildingBlock: KUFVIS_clean_sbu_0, # of connection points: 4
#     Node 3, Type 0, BuildingBlock: KUFVIS_clean_sbu_0, # of connection points: 4
#     Node 4, Type 0, BuildingBlock: KUFVIS_clean_sbu_0, # of connection points: 4
#     Node 5, Type 0, BuildingBlock: KUFVIS_clean_sbu_0, # of connection points: 4
#     Node 6, Type 0, BuildingBlock: KUFVIS_clean_sbu_0, # of connection points: 4
#     Node 7, Type 0, BuildingBlock: KUFVIS_clean_sbu_0, # of connection points: 4
#     Edge 8, Type (0, 0), BuildingBlock: OJICUG_clean_linker_0, # of connection points: 2
#     Edge 9, Type (0, 0), BuildingBlock: OJICUG_clean_linker_0, # of connection points: 2
#     Edge 10, Type (0, 0), BuildingBlock: OJICUG_clean_linker_0, # of connection points: 2
#     Edge 11, Type (0, 0), BuildingBlock: OJICUG_clean_linker_0, # of connection points: 2
#     Edge 12, Type (0, 0), BuildingBlock: OJICUG_clean_linker_0, # of connection points: 2
#     Edge 13, Type (0, 0), BuildingBlock: OJICUG_clean_linker_0, # of connection points: 2
#     Edge 14, Type (0, 0), BuildingBlock: OJICUG_clean_linker_0, # of connection points: 2
#     Edge 15, Type (0, 0), BuildingBlock: OJICUG_clean_linker_0, # of connection points: 2
#     Edge 16, Type (0, 0), BuildingBlock: OJICUG_clean_linker_0, # of connection points: 2
#     Edge 17, Type (0, 0), BuildingBlock: OJICUG_clean_linker_0, # of connection points: 2
#     Edge 18, Type (0, 0), BuildingBlock: OJICUG_clean_linker_0, # of connection points: 2
#     Edge 19, Type (0, 0), BuildingBlock: OJICUG_clean_linker_0, # of connection points: 2
#     Edge 20, Type (0, 0), BuildingBlock: OJICUG_clean_linker_0, # of connection points: 2
#     Edge 21, Type (0, 0), BuildingBlock: OJICUG_clean_linker_0, # of connection points: 2
#     Edge 22, Type (0, 0), BuildingBlock: OJICUG_clean_linker_0, # of connection points: 2
#     Edge 23, Type (0, 0), BuildingBlock: OJICUG_clean_linker_0, # of connection points: 2
# Relax obj value: 0.056
# Max RMSD: 0.084
# Mean RMSD: 0.084
data_MOF--net-sra--node1-KUFVIS_clean_sbu_0--edge1-OJICUG_clean_linker_0
_symmetry_space_group_name_H-M    P1
_symmetry_Int_Tables_number       1
_symmetry_cell_setting            triclinic
loop_
_symmetry_equiv_pos_as_xyz
'x, y, z'
_cell_length_a     19.279686
_cell_length_b     38.076533
_cell_length_c     23.991146
_cell_angle_alpha  90.000434
_cell_angle_beta   89.999696
_cell_angle_gamma 90.000174
loop_
_atom_site_label
_atom_site_type_symbol
_atom_site_fract_x
_atom_site_fract_y
_atom_site_fract_z
_atom_type_partial_charge
Mn0 Mn 0.98208 0.12522 0.16588 0.0
Mn1 Mn 0.99177 0.05063 0.24112 0.0
C2 C 0.87775 0.09869 0.19502 0.0
C3 C 0.98714 0.18654 0.16286 0.0
C4 C 0.01368 0.05344 0.11492 0.0
O5 O 0.08319 0.12459 0.19149 0.0
O6 O 0.07765 0.07824 0.24841 0.0
C7 C 0.99481 0.08515 0.35185 0.0
N8 N 0.96796 0.06046 0.31687 0.0
C9 C 0.89504 0.03741 0.38944 0.0
C10 C 0.92254 0.06224 0.42653 0.0
C11 C 0.97219 0.08644 0.40747 0.0
C12 C 0.91834 0.03803 0.33417 0.0
H13 H 0.03315 0.1037 0.3374 0.0
C14 C 0.10936 0.10476 0.22859 0.0
O15 O 0.00198 0.16756 0.11951 0.0
O16 O 0.96775 0.16993 0.20746 0.0
N17 N 0.91484 0.01914 0.24178 0.0
C18 C 0.89551 0.996 0.20127 0.0
C19 C 0.85034 0.96832 0.21455 0.0
C20 C 0.82623 0.96441 0.26944 0.0
C21 C 0.84555 0.98879 0.31019 0.0
C22 C 0.89211 1.01529 0.29492 0.0
H23 H 0.91561 0.99809 0.15946 0.0
O24 O 0.88029 0.12052 0.15354 0.0
O25 O 0.93778 0.09266 0.21853 0.0
O26 O 0.00058 0.08608 0.10958 0.0
O27 O 0.01512 0.03794 0.16238 0.0
C28 C 0.82205 0.9872 0.36577 0.0
C29 C 0.84599 1.01186 0.40521 0.0
H30 H 0.90592 0.06297 0.46965 0.0
H31 H 0.99339 0.10585 0.4357 0.0
H32 H 0.83533 0.94958 0.18284 0.0
H33 H 0.79353 0.94231 0.28013 0.0
H34 H 0.78556 0.96714 0.3786 0.0
H35 H 0.82728 1.01055 0.44774 0.0
Mn36 Mn 0.02309 0.399 0.16584 0.0
Mn37 Mn 0.00236 0.4732 0.24089 0.0
C38 C 0.12232 0.42704 0.2013 0.0
C39 C 0.02105 0.33765 0.16282 0.0
C40 C 0.99349 0.47091 0.11368 0.0
O41 O 0.91991 0.39846 0.1844 0.0
O42 O 0.91606 0.44542 0.24055 0.0
C43 C 0.98644 0.43735 0.34975 0.0
N44 N 0.01803 0.46213 0.31759 0.0
C45 C 0.08621 0.48228 0.39514 0.0
C46 C 0.05406 0.45719 0.42925 0.0
C47 C 0.00434 0.43443 0.4063 0.0
C48 C 0.06772 0.4832 0.33869 0.0
H49 H 0.94793 0.41994 0.33237 0.0
C50 C 0.88845 0.41855 0.21822 0.0
O51 O 0.00992 0.3564 0.11848 0.0
O52 O 0.03525 0.35453 0.20839 0.0
N53 N 0.07864 0.5048 0.24817 0.0
C54 C 0.09908 0.52993 0.21111 0.0
C55 C 0.1433 0.55701 0.22881 0.0
C56 C 0.16489 0.55843 0.28465 0.0
C57 C 0.14344 0.53246 0.32206 0.0
C58 C 0.09808 0.50658 0.30241 0.0
H59 H 0.08066 0.52979 0.16867 0.0
O60 O 0.12558 0.40492 0.16026 0.0
O61 O 0.0599 0.432 0.22103 0.0
O62 O 0.00797 0.43832 0.10891 0.0
O63 O 0.98776 0.4864 0.16101 0.0
C64 C 0.16269 0.53227 0.37873 0.0
C65 C 0.13493 0.5068 0.4151 0.0
H66 H 0.06693 0.45528 0.4731 0.0
H67 H 0.97941 0.4149 0.43225 0.0
H68 H 0.15928 0.57724 0.19984 0.0
H69 H 0.19611 0.58022 0.29902 0.0
H70 H 0.19833 0.55178 0.39486 0.0
H71 H 0.15001 0.50689 0.45861 0.0
Mn72 Mn 0.98721 0.89902 0.85841 0.0
Mn73 Mn 0.00795 0.97321 0.78335 0.0
C74 C 0.88798 0.92707 0.82296 0.0
C75 C 0.98924 0.83767 0.86145 0.0
C76 C 0.01685 0.97093 0.91056 0.0
O77 O 0.09039 0.89847 0.83984 0.0
O78 O 0.09423 0.94542 0.78367 0.0
C79 C 0.02381 0.93736 0.67449 0.0
N80 N 0.99226 0.96215 0.70665 0.0
C81 C 0.92408 0.98231 0.62911 0.0
C82 C 0.9562 0.95722 0.595 0.0
C83 C 0.0059 0.93444 0.61794 0.0
C84 C 0.94258 0.98323 0.68555 0.0
H85 H 0.0623 0.91993 0.69186 0.0
C86 C 0.12184 0.91856 0.806 0.0
O87 O 0.00038 0.85642 0.90578 0.0
O88 O 0.97503 0.85455 0.81588 0.0
N89 N 0.93169 1.00482 0.77609 0.0
C90 C 0.91125 0.02995 0.81316 0.0
C91 C 0.86705 0.05704 0.79547 0.0
C92 C 0.84546 0.05847 0.73962 0.0
C93 C 0.86689 0.0325 0.70221 0.0
C94 C 0.91225 1.00662 0.72185 0.0
H95 H 0.92967 0.0298 0.8556 0.0
O96 O 0.88473 0.90495 0.86401 0.0
O97 O 0.9504 0.93202 0.80322 0.0
O98 O 0.00235 0.93834 0.91533 0.0
O99 O 0.02258 0.98641 0.86322 0.0
C100 C 0.84763 0.03232 0.64553 0.0
C101 C 0.87538 1.00685 0.60916 0.0
H102 H 0.94332 0.95531 0.55115 0.0
H103 H 0.0308 0.91491 0.59198 0.0
H104 H 0.85107 0.07726 0.82445 0.0
H105 H 0.81424 0.08026 0.72527 0.0
H106 H 0.812 0.05184 0.62942 0.0
H107 H 0.86029 1.00695 0.56565 0.0
Mn108 Mn 0.02818 0.62524 0.85843 0.0
Mn109 Mn 0.01845 0.55067 0.78313 0.0
C110 C 0.13249 0.59871 0.82924 0.0
C111 C 0.02312 0.68655 0.86145 0.0
C112 C 0.9966 0.55345 0.90934 0.0
O113 O 0.92706 0.6246 0.83286 0.0
O114 O 0.93257 0.5783 0.77585 0.0
C115 C 0.01546 0.58524 0.67243 0.0
N116 N 0.04228 0.56053 0.70739 0.0
C117 C 0.11522 0.53751 0.63481 0.0
C118 C 0.08775 0.56236 0.59774 0.0
C119 C 0.03811 0.58657 0.61682 0.0
C120 C 0.0919 0.53811 0.69008 0.0
H121 H 0.97714 0.6038 0.68691 0.0
C122 C 0.90088 0.6048 0.79573 0.0
O123 O 0.00832 0.66757 0.9048 0.0
O124 O 0.04248 0.66995 0.81684 0.0
N125 N 0.09538 0.51918 0.78245 0.0
C126 C 0.1147 0.49602 0.82294 0.0
C127 C 0.15985 0.46834 0.80964 0.0
C128 C 0.18397 0.46446 0.75475 0.0
C129 C 0.16467 0.48886 0.71402 0.0
C130 C 0.11812 0.51535 0.72931 0.0
H131 H 0.09458 0.4981 0.86475 0.0
O132 O 0.12999 0.62055 0.87071 0.0
O133 O 0.07245 0.59269 0.80575 0.0
O134 O 0.00974 0.58609 0.9147 0.0
O135 O 0.9951 0.53797 0.86186 0.0
C136 C 0.18819 0.48729 0.65844 0.0
C137 C 0.16427 0.51196 0.61902 0.0
H138 H 0.10439 0.56311 0.55463 0.0
H139 H 0.01693 0.60599 0.58862 0.0
H140 H 0.17484 0.44959 0.84132 0.0
H141 H 0.21664 0.44235 0.74403 0.0
H142 H 0.22467 0.46722 0.64559 0.0
H143 H 0.183 0.51067 0.5765 0.0
Mn144 Mn 0.48715 0.63156 0.66584 0.0
Mn145 Mn 0.50785 0.55738 0.7409 0.0
C146 C 0.3879 0.60353 0.70128 0.0
C147 C 0.48921 0.69291 0.66281 0.0
C148 C 0.5168 0.55967 0.6137 0.0
O149 O 0.59033 0.6321 0.68442 0.0
O150 O 0.59412 0.58518 0.74065 0.0
C151 C 0.5236 0.59321 0.84979 0.0
N152 N 0.49208 0.56842 0.8176 0.0
C153 C 0.42386 0.54823 0.8951 0.0
C154 C 0.45594 0.57332 0.92924 0.0
C155 C 0.50564 0.59611 0.90634 0.0
C156 C 0.44241 0.54733 0.83866 0.0
H157 H 0.56209 0.61064 0.83245 0.0
C158 C 0.62175 0.61203 0.7183 0.0
O159 O 0.50034 0.67416 0.61848 0.0
O160 O 0.47499 0.67604 0.70838 0.0
N161 N 0.43159 0.52576 0.74811 0.0
C162 C 0.41117 0.50065 0.71101 0.0
C163 C 0.36697 0.47354 0.72866 0.0
C164 C 0.34535 0.47209 0.78449 0.0
C165 C 0.36675 0.49805 0.82194 0.0
C166 C 0.41211 0.52394 0.80233 0.0
H167 H 0.42961 0.50082 0.66857 0.0
O168 O 0.38465 0.62565 0.66024 0.0
O169 O 0.45031 0.59857 0.72102 0.0
O170 O 0.50227 0.59225 0.60892 0.0
O171 O 0.52255 0.54418 0.66103 0.0
C172 C 0.34746 0.49821 0.8786 0.0
C173 C 0.37517 0.52367 0.91501 0.0
H174 H 0.44303 0.57521 0.97309 0.0
H175 H 0.53052 0.61563 0.93232 0.0
H176 H 0.35101 0.45333 0.69965 0.0
H177 H 0.31414 0.45029 0.79882 0.0
H178 H 0.31183 0.47869 0.89469 0.0
H179 H 0.36005 0.52356 0.95851 0.0
Mn180 Mn 0.52825 0.90534 0.66584 0.0
Mn181 Mn 0.51856 0.97992 0.74113 0.0
C182 C 0.63258 0.93186 0.69501 0.0
C183 C 0.52317 0.84403 0.66282 0.0
C184 C 0.49668 0.97713 0.61491 0.0
O185 O 0.42713 0.90599 0.69142 0.0
O186 O 0.43267 0.95229 0.74843 0.0
C187 C 0.51557 0.94536 0.85183 0.0
N188 N 0.5424 0.97006 0.81687 0.0
C189 C 0.61537 0.99308 0.88942 0.0
C190 C 0.58789 0.96824 0.9265 0.0
C191 C 0.53823 0.94404 0.90744 0.0
C192 C 0.59204 0.99248 0.83416 0.0
H193 H 0.47724 0.92681 0.83737 0.0
C194 C 0.40097 0.92579 0.72855 0.0
O195 O 0.50836 0.86301 0.61947 0.0
O196 O 0.54254 0.86063 0.70743 0.0
N197 N 0.59549 1.0114 0.74178 0.0
C198 C 0.6148 0.03456 0.70129 0.0
C199 C 0.65997 0.06223 0.71457 0.0
C200 C 0.68411 0.06612 0.76945 0.0
C201 C 0.66482 0.04172 0.81019 0.0
C202 C 0.61826 1.01524 0.79491 0.0
H203 H 0.59467 0.03248 0.65949 0.0
O204 O 0.63006 0.91002 0.65354 0.0
O205 O 0.57254 0.93789 0.7185 0.0
O206 O 0.50981 0.94449 0.60956 0.0
O207 O 0.49518 0.99261 0.66239 0.0
C208 C 0.68835 0.0433 0.86576 0.0
C209 C 0.66443 0.01863 0.90519 0.0
H210 H 0.60455 0.9675 0.96962 0.0
H211 H 0.51705 0.92463 0.93566 0.0
H212 H 0.67496 0.08098 0.68288 0.0
H213 H 0.7168 0.08822 0.78016 0.0
H214 H 0.72485 0.06336 0.8786 0.0
H215 H 0.68318 0.01992 0.94772 0.0
Mn216 Mn 0.48205 0.40536 0.35841 0.0
Mn217 Mn 0.49175 0.47994 0.28314 0.0
C218 C 0.37773 0.43189 0.32925 0.0
C219 C 0.48712 0.34405 0.36143 0.0
C220 C 0.51365 0.47714 0.40935 0.0
O221 O 0.58317 0.406 0.33281 0.0
O222 O 0.57763 0.45232 0.27584 0.0
C223 C 0.49476 0.44541 0.17242 0.0
N224 N 0.46792 0.47011 0.20739 0.0
C225 C 0.395 0.49315 0.13483 0.0
C226 C 0.42248 0.46831 0.09774 0.0
C227 C 0.47212 0.4441 0.1168 0.0
C228 C 0.41831 0.49253 0.1901 0.0
H229 H 0.53309 0.42685 0.18688 0.0
C230 C 0.60934 0.42582 0.29569 0.0
O231 O 0.50194 0.36303 0.40478 0.0
O232 O 0.46774 0.36065 0.31682 0.0
N233 N 0.41482 0.51143 0.28249 0.0
C234 C 0.3955 0.53458 0.32299 0.0
C235 C 0.35034 0.56226 0.30971 0.0
C236 C 0.32623 0.56616 0.25482 0.0
C237 C 0.34553 0.54178 0.21408 0.0
C238 C 0.39209 0.51528 0.22935 0.0
H239 H 0.41561 0.53249 0.3648 0.0
O240 O 0.38026 0.41005 0.37072 0.0
O241 O 0.43776 0.43792 0.30575 0.0
O242 O 0.50053 0.4445 0.41469 0.0
O243 O 0.51512 0.49263 0.36187 0.0
C244 C 0.32202 0.54336 0.1585 0.0
C245 C 0.34595 0.5187 0.11906 0.0
H246 H 0.40584 0.46758 0.05462 0.0
H247 H 0.49331 0.4247 0.08858 0.0
H248 H 0.33534 0.581 0.34141 0.0
H249 H 0.29354 0.58827 0.24413 0.0
H250 H 0.28554 0.56343 0.14567 0.0
H251 H 0.32723 0.52001 0.07653 0.0
Mn252 Mn 0.52312 0.13158 0.35842 0.0
Mn253 Mn 0.50238 0.05739 0.28337 0.0
C254 C 0.62234 0.10354 0.32296 0.0
C255 C 0.52108 0.19293 0.36146 0.0
C256 C 0.49354 0.05967 0.41058 0.0
O257 O 0.41994 0.13214 0.33987 0.0
O258 O 0.41607 0.08516 0.28376 0.0
C259 C 0.48637 0.09325 0.17454 0.0
N260 N 0.518 0.06847 0.20667 0.0
C261 C 0.58617 0.04837 0.12909 0.0
C262 C 0.55399 0.07345 0.09501 0.0
C263 C 0.50425 0.0962 0.11798 0.0
C264 C 0.5677 0.04743 0.18554 0.0
H265 H 0.44785 0.11065 0.19194 0.0
C266 C 0.38846 0.11203 0.30608 0.0
O267 O 0.50995 0.17419 0.40579 0.0
O268 O 0.53528 0.17606 0.31589 0.0
N269 N 0.57867 0.0258 0.27605 0.0
C270 C 0.59912 1.00066 0.31308 0.0
C271 C 0.64335 0.97358 0.29535 0.0
C272 C 0.66494 0.97219 0.2395 0.0
C273 C 0.64347 0.99817 0.20213 0.0
C274 C 0.59809 0.02404 0.22181 0.0
H275 H 0.5807 1.00078 0.35552 0.0
O276 O 0.62561 0.12567 0.364 0.0
O277 O 0.55992 0.09859 0.30323 0.0
O278 O 0.50799 0.09226 0.41535 0.0
O279 O 0.48783 0.04418 0.36325 0.0
C280 C 0.66271 0.99839 0.14545 0.0
C281 C 0.6349 0.02386 0.1091 0.0
H282 H 0.56684 0.07538 0.05115 0.0
H283 H 0.47929 0.11572 0.09205 0.0
H284 H 0.65935 0.95335 0.3243 0.0
H285 H 0.69617 0.95042 0.22511 0.0
H286 H 0.69835 0.97889 0.1293 0.0
H287 H 0.64997 0.02378 0.06559 0.0
C288 C 0.01132 0.28019 0.11195 0.0
C289 C 0.01388 0.29892 0.1624 0.0
H290 H 0.00138 0.22987 0.07248 0.0
C291 C 0.00713 0.2804 0.21279 0.0
H292 H 0.01628 0.29374 0.07245 0.0
C293 C 0.99733 0.24402 0.21278 0.0
C294 C 0.99519 0.22522 0.1624 0.0
H295 H 0.00845 0.29409 0.25237 0.0
H296 H 0.99219 0.23056 0.25235 0.0
C297 C 0.00269 0.24365 0.11197 0.0
C298 C 0.00311 0.78042 0.81149 0.0
C299 C 0.99639 0.79894 0.86188 0.0
H300 H 0.01802 0.73057 0.77195 0.0
C301 C -0.00103 0.78022 0.91234 0.0
H302 H 0.00178 0.7941 0.77192 0.0
C303 C 0.00759 0.74367 0.91233 0.0
C304 C 0.01506 0.72524 0.8619 0.0
H305 H 0.99403 0.79377 0.95183 0.0
H306 H 0.00892 0.7299 0.95182 0.0
C307 C 0.0129 0.74403 0.81152 0.0
C308 C 0.49897 0.75037 0.61193 0.0
C309 C 0.49638 0.73165 0.66238 0.0
H310 H 0.50894 0.80068 0.57245 0.0
C311 C 0.50311 0.75017 0.71277 0.0
H312 H 0.49402 0.73682 0.57243 0.0
C313 C 0.51292 0.78655 0.71275 0.0
C314 C 0.5151 0.80534 0.66237 0.0
H315 H 0.50178 0.73649 0.75235 0.0
H316 H 0.51806 0.80001 0.75232 0.0
C317 C 0.50761 0.78691 0.61194 0.0
C318 C 0.50269 0.28694 0.41231 0.0
C319 C 0.49519 0.30536 0.36188 0.0
H320 H 0.51629 0.23685 0.45183 0.0
C321 C 0.49735 0.28657 0.31151 0.0
H322 H 0.50137 0.30071 0.4518 0.0
C323 C 0.50716 0.25018 0.31149 0.0
C324 C 0.51391 0.23167 0.36188 0.0
H325 H 0.4922 0.30002 0.27194 0.0
H326 H 0.50848 0.2365 0.27192 0.0
C327 C 0.51133 0.25039 0.41233 0.0
C328 C 0.26455 0.10175 0.32463 0.0
C329 C 0.31546 0.11825 0.29252 0.0
H330 H 0.1595 0.08462 0.32946 0.0
C331 C 0.2973 0.13343 0.24116 0.0
H332 H 0.27799 0.08925 0.36375 0.0
C333 C 0.22918 0.13085 0.2211 0.0
C334 C 0.17903 0.11226 0.25168 0.0
H335 H 0.33654 0.14565 0.21531 0.0
H336 H 0.21686 0.14158 0.18048 0.0
C337 C 0.19702 0.09875 0.30444 0.0
C338 C 0.72919 0.39979 0.30327 0.0
C339 C 0.67901 0.4183 0.27262 0.0
H340 H 0.83659 0.38505 0.30912 0.0
C341 C 0.69698 0.43174 0.21981 0.0
H342 H 0.71689 0.38911 0.34393 0.0
C343 C 0.76451 0.42874 0.19963 0.0
C344 C 0.81546 0.41232 0.23181 0.0
H345 H 0.65943 0.44582 0.19474 0.0
H346 H 0.77792 0.44119 0.16045 0.0
C347 C 0.79732 0.39721 0.28322 0.0
C348 C 0.24581 0.92866 0.82463 0.0
C349 C 0.19483 0.91231 0.79239 0.0
H350 H 0.35092 0.94569 0.82957 0.0
C351 C 0.21294 0.89726 0.74093 0.0
H352 H 0.23241 0.94107 0.86384 0.0
C353 C 0.28107 0.89983 0.7209 0.0
C354 C 0.33128 0.91828 0.75161 0.0
H355 H 0.17365 0.88515 0.715 0.0
H356 H 0.29335 0.8892 0.6802 0.0
C357 C 0.31335 0.93166 0.80446 0.0
C358 C 0.74573 0.60199 0.69964 0.0
C359 C 0.69473 0.61828 0.73192 0.0
H360 H 0.85087 0.58501 0.69466 0.0
C361 C 0.71282 0.63328 0.78343 0.0
H362 H 0.73236 0.58963 0.66039 0.0
C363 C 0.78095 0.63071 0.80346 0.0
C364 C 0.83119 0.61232 0.77269 0.0
H365 H 0.67351 0.64534 0.8094 0.0
H366 H 0.79322 0.6413 0.84418 0.0
C367 C 0.81327 0.59899 0.7198 0.0
C368 C 0.73077 0.90019 0.73951 0.0
C369 C 0.69858 0.93241 0.72712 0.0
H370 H 0.81722 0.87382 0.77685 0.0
C371 C 0.73202 0.96335 0.74369 0.0
H372 H 0.70729 0.87564 0.72661 0.0
C373 C 0.79138 0.96209 0.77734 0.0
C374 C 0.82493 0.93014 0.78781 0.0
H375 H 0.71402 0.98846 0.72994 0.0
H376 H 0.8095 0.98604 0.79574 0.0
C377 C 0.79368 0.89913 0.76844 0.0
C378 C 0.2936 0.63146 0.75582 0.0
C379 C 0.32484 0.60045 0.73643 0.0
H380 H 0.20721 0.65494 0.79766 0.0
C381 C 0.29128 0.5685 0.74687 0.0
H382 H 0.31714 0.65676 0.74742 0.0
C383 C 0.23192 0.56724 0.78052 0.0
C384 C 0.19849 0.59817 0.79712 0.0
H385 H 0.3094 0.54455 0.72845 0.0
H386 H 0.21392 0.54212 0.79426 0.0
C387 C 0.23068 0.63039 0.78474 0.0
C388 C 0.71896 0.0685 0.27741 0.0
C389 C 0.68538 0.10045 0.2878 0.0
H390 H 0.79634 0.0421 0.23007 0.0
C391 C 0.71659 0.13146 0.26834 0.0
H392 H 0.70086 0.04457 0.29588 0.0
C393 C 0.77951 0.13037 0.23942 0.0
C394 C 0.81174 0.09815 0.22711 0.0
H395 H 0.69302 0.15676 0.27669 0.0
H396 H 0.80296 0.15492 0.22645 0.0
C397 C 0.77833 0.06723 0.24377 0.0
C398 C 0.21894 0.46209 0.24686 0.0
C399 C 0.18536 0.43013 0.23646 0.0
H400 H 0.29631 0.48848 0.29422 0.0
C401 C 0.21658 0.39913 0.25589 0.0
H402 H 0.20083 0.48602 0.22841 0.0
C403 C 0.2795 0.40021 0.28482 0.0
C404 C 0.31172 0.43243 0.29715 0.0
H405 H 0.19303 0.37382 0.24753 0.0
H406 H 0.30296 0.37566 0.29777 0.0
C407 C 0.27831 0.46335 0.28051 0.0
C408 C 0.02575 0.04872 1.01042 0.0
C409 C 0.02271 0.03222 0.06298 0.0
H410 H 0.02747 0.04271 0.92164 0.0
C411 C 0.02333 0.99529 0.06474 0.0
H412 H 0.02591 0.07709 1.00715 0.0
C413 C 0.02341 0.97551 0.01542 0.0
C414 C 0.02368 0.99203 0.96282 0.0
H415 H 0.02152 0.98153 0.10421 0.0
H416 H 0.02182 0.94715 0.01866 0.0
C417 C 0.02661 0.02894 0.96112 0.0
C418 C 0.98698 0.49529 0.9595 0.0
C419 C 0.98758 0.53222 0.96128 0.0
H420 H 0.98852 0.44714 1.00556 0.0
C421 C 0.98455 0.54872 0.01384 0.0
H422 H 0.98877 0.48154 0.92003 0.0
C423 C 0.98372 0.52892 0.06314 0.0
C424 C 0.98666 0.49202 0.06142 0.0
H425 H 0.98438 0.57709 0.01712 0.0
H426 H 0.98285 0.54269 0.10262 0.0
C427 C 0.98692 0.4755 1.00881 0.0
C428 C 0.52575 0.48187 0.51384 0.0
C429 C 0.52269 0.49836 0.46128 0.0
H430 H 0.52748 0.48789 0.60262 0.0
C431 C 0.5233 0.5353 0.45952 0.0
H432 H 0.52592 0.4535 0.51712 0.0
C433 C 0.52337 0.55508 0.50883 0.0
C434 C 0.52365 0.53856 0.56143 0.0
H435 H 0.52149 0.54905 0.42004 0.0
H436 H 0.52177 0.58344 0.50559 0.0
C437 C 0.5266 0.50166 0.56314 0.0
C438 C 0.48464 0.98186 0.51042 0.0
C439 C 0.48766 0.99835 0.56298 0.0
H440 H 0.48295 0.98789 0.42164 0.0
C441 C 0.48704 0.03529 0.56476 0.0
H442 H 0.48449 0.95349 0.50714 0.0
C443 C 0.48697 0.05508 0.51544 0.0
C444 C 0.48673 0.03856 0.46284 0.0
H445 H 0.48882 0.04904 0.60423 0.0
H446 H 0.48855 0.08344 0.51869 0.0
C447 C 0.4838 1.00166 0.46112 0.0
loop_
_geom_bond_atom_site_label_1
_geom_bond_atom_site_label_2
_geom_bond_distance
_geom_bond_site_symmetry_2
_ccdc_geom_bond_type
Mn0 O5 2.095 . S
Mn0 O15 2.162 . S
Mn0 O16 2.297 . S
Mn0 O24 2.385 1_455 S
Mn0 O25 2.209 1_455 S
Mn0 O26 2.094 . S
Mn1 O6 2.122 1_655 S
Mn1 N8 2.257 . S
Mn1 N17 2.281 . S
Mn1 O25 2.214 . S
Mn1 O27 2.117 1_655 S
C2 O24 1.234 . S
C2 O25 1.283 . S
C3 O15 1.281 . S
C3 O16 1.236 . S
C4 O26 1.240 . S
C4 O27 1.264 . S
O5 Mn0 2.095 . S
O5 C14 1.250 . S
O6 Mn1 2.122 1_455 S
O6 C14 1.258 . S
C7 N8 1.326 1_455 S
C7 C11 1.460 1_455 S
C7 H13 0.929 . S
N8 Mn1 2.257 . S
N8 C7 1.326 1_655 S
N8 C12 1.362 . S
C9 C10 1.255 1_565 S
C9 C12 1.426 1_565 S
C9 C29 1.459 . S
C10 C9 1.255 1_545 S
C10 C11 1.477 . S
C10 H30 0.931 1_545 S
C11 C7 1.460 1_655 S
C11 C10 1.477 . S
C11 H31 0.930 1_655 S
C12 N8 1.362 . S
C12 C9 1.426 1_545 S
C12 C22 1.476 . S
H13 C7 0.929 . S
C14 O5 1.250 . S
C14 O6 1.258 . S
O15 Mn0 2.162 . S
O15 C3 1.281 . S
O16 Mn0 2.297 . S
O16 C3 1.236 . S
N17 Mn1 2.281 . S
N17 C18 1.328 . S
N17 C22 1.318 . S
C18 N17 1.328 . S
C18 C19 1.457 1_545 S
C18 H23 0.929 . S
C19 C18 1.457 1_565 S
C19 C20 1.291 . S
C19 H32 0.931 . S
C20 C19 1.291 . S
C20 C21 1.373 . S
C20 H33 0.929 . S
C21 C20 1.373 . S
C21 C22 1.396 1_565 S
C21 C28 1.403 . S
C22 C12 1.476 . S
C22 N17 1.318 . S
C22 C21 1.396 1_545 S
H23 C18 0.929 . S
O24 Mn0 2.385 1_655 S
O24 C2 1.234 . S
O25 Mn0 2.209 1_655 S
O25 Mn1 2.214 . S
O25 C2 1.283 . S
O26 Mn0 2.094 . S
O26 C4 1.240 . S
O27 Mn1 2.117 1_455 S
O27 C4 1.264 . S
C28 C21 1.403 . S
C28 C29 1.399 . S
C28 H34 0.929 . S
C29 C9 1.459 . S
C29 C28 1.399 . S
C29 H35 0.930 . S
H30 C10 0.931 1_565 S
H31 C11 0.930 1_455 S
H32 C19 0.931 . S
H33 C20 0.929 . S
H34 C28 0.929 . S
H35 C29 0.930 . S
Mn36 O41 2.095 1_455 S
Mn36 O51 2.162 . S
Mn36 O52 2.297 . S
Mn36 O60 2.385 . S
Mn36 O61 2.209 . S
Mn36 O62 2.094 . S
Mn37 O42 2.121 1_455 S
Mn37 N44 2.257 . S
Mn37 N53 2.282 . S
Mn37 O61 2.215 . S
Mn37 O63 2.117 . S
C38 O60 1.234 . S
C38 O61 1.283 . S
C39 O51 1.281 . S
C39 O52 1.236 . S
C40 O62 1.240 . S
C40 O63 1.264 . S
O41 Mn36 2.095 1_655 S
O41 C50 1.250 . S
O42 Mn37 2.121 1_655 S
O42 C50 1.258 . S
C43 N44 1.326 . S
C43 C47 1.460 . S
C43 H49 0.929 1_455 S
N44 Mn37 2.257 . S
N44 C43 1.326 . S
N44 C48 1.362 . S
C45 C46 1.258 . S
C45 C48 1.431 . S
C45 C65 1.449 . S
C46 C45 1.258 . S
C46 C47 1.477 . S
C46 H66 0.931 . S
C47 C43 1.460 . S
C47 C46 1.477 . S
C47 H67 0.930 1_455 S
C48 N44 1.362 . S
C48 C45 1.431 . S
C48 C58 1.476 . S
H49 C43 0.929 1_655 S
C50 O41 1.250 . S
C50 O42 1.258 . S
O51 Mn36 2.162 . S
O51 C39 1.281 . S
O52 Mn36 2.297 . S
O52 C39 1.236 . S
N53 Mn37 2.282 . S
N53 C54 1.328 . S
N53 C58 1.318 . S
C54 N53 1.328 . S
C54 C55 1.457 . S
C54 H59 0.929 . S
C55 C54 1.457 . S
C55 C56 1.291 . S
C55 H68 0.931 . S
C56 C55 1.291 . S
C56 C57 1.373 . S
C56 H69 0.929 . S
C57 C56 1.373 . S
C57 C58 1.396 . S
C57 C64 1.403 . S
C58 C48 1.476 . S
C58 N53 1.318 . S
C58 C57 1.396 . S
H59 C54 0.929 . S
O60 Mn36 2.385 . S
O60 C38 1.234 . S
O61 Mn36 2.209 . S
O61 Mn37 2.215 . S
O61 C38 1.283 . S
O62 Mn36 2.094 . S
O62 C40 1.240 . S
O63 Mn37 2.117 . S
O63 C40 1.264 . S
C64 C57 1.403 . S
C64 C65 1.399 . S
C64 H70 0.929 . S
C65 C45 1.449 . S
C65 C64 1.399 . S
C65 H71 0.930 . S
H66 C46 0.931 . S
H67 C47 0.930 1_655 S
H68 C55 0.931 . S
H69 C56 0.929 . S
H70 C64 0.929 . S
H71 C65 0.930 . S
Mn72 O77 2.095 . S
Mn72 O87 2.162 . S
Mn72 O88 2.297 . S
Mn72 O96 2.385 1_455 S
Mn72 O97 2.209 1_455 S
Mn72 O98 2.094 . S
Mn73 O78 2.122 1_655 S
Mn73 N80 2.257 . S
Mn73 N89 2.281 . S
Mn73 O97 2.214 . S
Mn73 O99 2.117 1_655 S
C74 O96 1.234 . S
C74 O97 1.283 . S
C75 O87 1.281 . S
C75 O88 1.236 . S
C76 O98 1.240 . S
C76 O99 1.264 . S
O77 Mn72 2.095 . S
O77 C86 1.250 . S
O78 Mn73 2.122 1_455 S
O78 C86 1.258 . S
C79 N80 1.326 1_455 S
C79 C83 1.460 1_455 S
C79 H85 0.929 . S
N80 Mn73 2.257 . S
N80 C79 1.326 1_655 S
N80 C84 1.362 . S
C81 C82 1.255 1_545 S
C81 C84 1.426 1_545 S
C81 C101 1.459 . S
C82 C81 1.255 1_565 S
C82 C83 1.477 . S
C82 H102 0.931 1_565 S
C83 C79 1.460 1_655 S
C83 C82 1.477 . S
C83 H103 0.930 1_655 S
C84 N80 1.362 . S
C84 C81 1.426 1_565 S
C84 C94 1.476 . S
H85 C79 0.929 . S
C86 O77 1.250 . S
C86 O78 1.258 . S
O87 Mn72 2.162 . S
O87 C75 1.281 . S
O88 Mn72 2.297 . S
O88 C75 1.236 . S
N89 Mn73 2.281 . S
N89 C90 1.328 . S
N89 C94 1.318 . S
C90 N89 1.328 . S
C90 C91 1.457 1_565 S
C90 H95 0.929 . S
C91 C90 1.457 1_545 S
C91 C92 1.291 . S
C91 H104 0.931 . S
C92 C91 1.291 . S
C92 C93 1.373 . S
C92 H105 0.929 . S
C93 C92 1.373 . S
C93 C94 1.396 1_545 S
C93 C100 1.403 . S
C94 C84 1.476 . S
C94 N89 1.318 . S
C94 C93 1.396 1_565 S
H95 C90 0.929 . S
O96 Mn72 2.385 1_655 S
O96 C74 1.234 . S
O97 Mn72 2.209 1_655 S
O97 Mn73 2.214 . S
O97 C74 1.283 . S
O98 Mn72 2.094 . S
O98 C76 1.240 . S
O99 Mn73 2.117 1_455 S
O99 C76 1.264 . S
C100 C93 1.403 . S
C100 C101 1.399 . S
C100 H106 0.929 . S
C101 C81 1.459 . S
C101 C100 1.399 . S
C101 H107 0.930 . S
H102 C82 0.931 1_545 S
H103 C83 0.930 1_455 S
H104 C91 0.931 . S
H105 C92 0.929 . S
H106 C100 0.929 . S
H107 C101 0.930 . S
Mn108 O113 2.095 1_455 S
Mn108 O123 2.162 . S
Mn108 O124 2.297 . S
Mn108 O132 2.385 . S
Mn108 O133 2.209 . S
Mn108 O134 2.094 . S
Mn109 O114 2.121 1_455 S
Mn109 N116 2.257 . S
Mn109 N125 2.282 . S
Mn109 O133 2.215 . S
Mn109 O135 2.117 . S
C110 O132 1.234 . S
C110 O133 1.283 . S
C111 O123 1.281 . S
C111 O124 1.236 . S
C112 O134 1.240 . S
C112 O135 1.264 . S
O113 Mn108 2.095 1_655 S
O113 C122 1.250 . S
O114 Mn109 2.121 1_655 S
O114 C122 1.258 . S
C115 N116 1.326 . S
C115 C119 1.460 . S
C115 H121 0.929 1_455 S
N116 Mn109 2.257 . S
N116 C115 1.326 . S
N116 C120 1.362 . S
C117 C118 1.258 . S
C117 C120 1.431 . S
C117 C137 1.449 . S
C118 C117 1.258 . S
C118 C119 1.477 . S
C118 H138 0.931 . S
C119 C115 1.460 . S
C119 C118 1.477 . S
C119 H139 0.930 1_455 S
C120 N116 1.362 . S
C120 C117 1.431 . S
C120 C130 1.476 . S
H121 C115 0.929 1_655 S
C122 O113 1.250 . S
C122 O114 1.258 . S
O123 Mn108 2.162 . S
O123 C111 1.281 . S
O124 Mn108 2.297 . S
O124 C111 1.236 . S
N125 Mn109 2.282 . S
N125 C126 1.328 . S
N125 C130 1.318 . S
C126 N125 1.328 . S
C126 C127 1.457 . S
C126 H131 0.929 . S
C127 C126 1.457 . S
C127 C128 1.291 . S
C127 H140 0.931 . S
C128 C127 1.291 . S
C128 C129 1.373 . S
C128 H141 0.929 . S
C129 C128 1.373 . S
C129 C130 1.396 . S
C129 C136 1.403 . S
C130 C120 1.476 . S
C130 N125 1.318 . S
C130 C129 1.396 . S
H131 C126 0.929 . S
O132 Mn108 2.385 . S
O132 C110 1.234 . S
O133 Mn108 2.209 . S
O133 Mn109 2.215 . S
O133 C110 1.283 . S
O134 Mn108 2.094 . S
O134 C112 1.240 . S
O135 Mn109 2.117 . S
O135 C112 1.264 . S
C136 C129 1.403 . S
C136 C137 1.399 . S
C136 H142 0.929 . S
C137 C117 1.449 . S
C137 C136 1.399 . S
C137 H143 0.930 . S
H138 C118 0.931 . S
H139 C119 0.930 1_655 S
H140 C127 0.931 . S
H141 C128 0.929 . S
H142 C136 0.929 . S
H143 C137 0.930 . S
Mn144 O149 2.095 . S
Mn144 O159 2.162 . S
Mn144 O160 2.297 . S
Mn144 O168 2.385 . S
Mn144 O169 2.209 . S
Mn144 O170 2.094 . S
Mn145 O150 2.121 . S
Mn145 N152 2.257 . S
Mn145 N161 2.282 . S
Mn145 O169 2.215 . S
Mn145 O171 2.117 . S
C146 O168 1.234 . S
C146 O169 1.283 . S
C147 O159 1.281 . S
C147 O160 1.236 . S
C148 O170 1.240 . S
C148 O171 1.264 . S
O149 Mn144 2.095 . S
O149 C158 1.250 . S
O150 Mn145 2.121 . S
O150 C158 1.258 . S
C151 N152 1.326 . S
C151 C155 1.460 . S
C151 H157 0.929 . S
N152 Mn145 2.257 . S
N152 C151 1.326 . S
N152 C156 1.362 . S
C153 C154 1.258 . S
C153 C156 1.431 . S
C153 C173 1.449 . S
C154 C153 1.258 . S
C154 C155 1.477 . S
C154 H174 0.931 . S
C155 C151 1.460 . S
C155 C154 1.477 . S
C155 H175 0.930 . S
C156 N152 1.362 . S
C156 C153 1.431 . S
C156 C166 1.476 . S
H157 C151 0.929 . S
C158 O149 1.250 . S
C158 O150 1.258 . S
O159 Mn144 2.162 . S
O159 C147 1.281 . S
O160 Mn144 2.297 . S
O160 C147 1.236 . S
N161 Mn145 2.282 . S
N161 C162 1.328 . S
N161 C166 1.318 . S
C162 N161 1.328 . S
C162 C163 1.457 . S
C162 H167 0.929 . S
C163 C162 1.457 . S
C163 C164 1.291 . S
C163 H176 0.931 . S
C164 C163 1.291 . S
C164 C165 1.373 . S
C164 H177 0.929 . S
C165 C164 1.373 . S
C165 C166 1.396 . S
C165 C172 1.403 . S
C166 C156 1.476 . S
C166 N161 1.318 . S
C166 C165 1.396 . S
H167 C162 0.929 . S
O168 Mn144 2.385 . S
O168 C146 1.234 . S
O169 Mn144 2.209 . S
O169 Mn145 2.215 . S
O169 C146 1.283 . S
O170 Mn144 2.094 . S
O170 C148 1.240 . S
O171 Mn145 2.117 . S
O171 C148 1.264 . S
C172 C165 1.403 . S
C172 C173 1.399 . S
C172 H178 0.929 . S
C173 C153 1.449 . S
C173 C172 1.399 . S
C173 H179 0.930 . S
H174 C154 0.931 . S
H175 C155 0.930 . S
H176 C163 0.931 . S
H177 C164 0.929 . S
H178 C172 0.929 . S
H179 C173 0.930 . S
Mn180 O185 2.095 . S
Mn180 O195 2.162 . S
Mn180 O196 2.297 . S
Mn180 O204 2.385 . S
Mn180 O205 2.209 . S
Mn180 O206 2.094 . S
Mn181 O186 2.121 . S
Mn181 N188 2.257 . S
Mn181 N197 2.282 . S
Mn181 O205 2.215 . S
Mn181 O207 2.117 . S
C182 O204 1.234 . S
C182 O205 1.283 . S
C183 O195 1.281 . S
C183 O196 1.236 . S
C184 O206 1.240 . S
C184 O207 1.264 . S
O185 Mn180 2.095 . S
O185 C194 1.250 . S
O186 Mn181 2.121 . S
O186 C194 1.258 . S
C187 N188 1.326 . S
C187 C191 1.460 . S
C187 H193 0.929 . S
N188 Mn181 2.257 . S
N188 C187 1.326 . S
N188 C192 1.362 . S
C189 C190 1.254 1_545 S
C189 C192 1.426 1_545 S
C189 C209 1.459 . S
C190 C189 1.254 1_565 S
C190 C191 1.477 . S
C190 H210 0.931 1_565 S
C191 C187 1.460 . S
C191 C190 1.477 . S
C191 H211 0.930 . S
C192 N188 1.362 . S
C192 C189 1.426 1_565 S
C192 C202 1.476 . S
H193 C187 0.929 . S
C194 O185 1.250 . S
C194 O186 1.258 . S
O195 Mn180 2.162 . S
O195 C183 1.281 . S
O196 Mn180 2.297 . S
O196 C183 1.236 . S
N197 Mn181 2.282 . S
N197 C198 1.328 . S
N197 C202 1.318 . S
C198 N197 1.328 . S
C198 C199 1.457 1_565 S
C198 H203 0.929 . S
C199 C198 1.457 1_545 S
C199 C200 1.291 . S
C199 H212 0.931 . S
C200 C199 1.291 . S
C200 C201 1.373 . S
C200 H213 0.929 . S
C201 C200 1.373 . S
C201 C202 1.396 1_545 S
C201 C208 1.403 . S
C202 C192 1.476 . S
C202 N197 1.318 . S
C202 C201 1.396 1_565 S
H203 C198 0.929 . S
O204 Mn180 2.385 . S
O204 C182 1.234 . S
O205 Mn180 2.209 . S
O205 Mn181 2.215 . S
O205 C182 1.283 . S
O206 Mn180 2.094 . S
O206 C184 1.240 . S
O207 Mn181 2.117 . S
O207 C184 1.264 . S
C208 C201 1.403 . S
C208 C209 1.399 . S
C208 H214 0.929 . S
C209 C189 1.459 . S
C209 C208 1.399 . S
C209 H215 0.930 . S
H210 C190 0.931 1_545 S
H211 C191 0.930 . S
H212 C199 0.931 . S
H213 C200 0.929 . S
H214 C208 0.929 . S
H215 C209 0.930 . S
Mn216 O221 2.095 . S
Mn216 O231 2.162 . S
Mn216 O232 2.297 . S
Mn216 O240 2.385 . S
Mn216 O241 2.209 . S
Mn216 O242 2.094 . S
Mn217 O222 2.121 . S
Mn217 N224 2.257 . S
Mn217 N233 2.282 . S
Mn217 O241 2.215 . S
Mn217 O243 2.117 . S
C218 O240 1.234 . S
C218 O241 1.283 . S
C219 O231 1.281 . S
C219 O232 1.236 . S
C220 O242 1.240 . S
C220 O243 1.264 . S
O221 Mn216 2.095 . S
O221 C230 1.250 . S
O222 Mn217 2.121 . S
O222 C230 1.258 . S
C223 N224 1.326 . S
C223 C227 1.460 . S
C223 H229 0.929 . S
N224 Mn217 2.257 . S
N224 C223 1.326 . S
N224 C228 1.362 . S
C225 C226 1.258 . S
C225 C228 1.431 . S
C225 C245 1.449 . S
C226 C225 1.258 . S
C226 C227 1.477 . S
C226 H246 0.931 . S
C227 C223 1.460 . S
C227 C226 1.477 . S
C227 H247 0.930 . S
C228 N224 1.362 . S
C228 C225 1.431 . S
C228 C238 1.476 . S
H229 C223 0.929 . S
C230 O221 1.250 . S
C230 O222 1.258 . S
O231 Mn216 2.162 . S
O231 C219 1.281 . S
O232 Mn216 2.297 . S
O232 C219 1.236 . S
N233 Mn217 2.282 . S
N233 C234 1.328 . S
N233 C238 1.318 . S
C234 N233 1.328 . S
C234 C235 1.457 . S
C234 H239 0.929 . S
C235 C234 1.457 . S
C235 C236 1.291 . S
C235 H248 0.931 . S
C236 C235 1.291 . S
C236 C237 1.373 . S
C236 H249 0.929 . S
C237 C236 1.373 . S
C237 C238 1.396 . S
C237 C244 1.403 . S
C238 C228 1.476 . S
C238 N233 1.318 . S
C238 C237 1.396 . S
H239 C234 0.929 . S
O240 Mn216 2.385 . S
O240 C218 1.234 . S
O241 Mn216 2.209 . S
O241 Mn217 2.215 . S
O241 C218 1.283 . S
O242 Mn216 2.094 . S
O242 C220 1.240 . S
O243 Mn217 2.117 . S
O243 C220 1.264 . S
C244 C237 1.403 . S
C244 C245 1.399 . S
C244 H250 0.929 . S
C245 C225 1.449 . S
C245 C244 1.399 . S
C245 H251 0.930 . S
H246 C226 0.931 . S
H247 C227 0.930 . S
H248 C235 0.931 . S
H249 C236 0.929 . S
H250 C244 0.929 . S
H251 C245 0.930 . S
Mn252 O257 2.095 . S
Mn252 O267 2.162 . S
Mn252 O268 2.297 . S
Mn252 O276 2.385 . S
Mn252 O277 2.209 . S
Mn252 O278 2.094 . S
Mn253 O258 2.121 . S
Mn253 N260 2.257 . S
Mn253 N269 2.282 . S
Mn253 O277 2.215 . S
Mn253 O279 2.117 . S
C254 O276 1.234 . S
C254 O277 1.283 . S
C255 O267 1.281 . S
C255 O268 1.236 . S
C256 O278 1.240 . S
C256 O279 1.264 . S
O257 Mn252 2.095 . S
O257 C266 1.250 . S
O258 Mn253 2.121 . S
O258 C266 1.258 . S
C259 N260 1.326 . S
C259 C263 1.460 . S
C259 H265 0.929 . S
N260 Mn253 2.257 . S
N260 C259 1.326 . S
N260 C264 1.362 . S
C261 C262 1.254 1_565 S
C261 C264 1.426 1_565 S
C261 C281 1.459 . S
C262 C261 1.254 1_545 S
C262 C263 1.477 . S
C262 H282 0.931 1_545 S
C263 C259 1.460 . S
C263 C262 1.477 . S
C263 H283 0.930 . S
C264 N260 1.362 . S
C264 C261 1.426 1_545 S
C264 C274 1.476 . S
H265 C259 0.929 . S
C266 O257 1.250 . S
C266 O258 1.258 . S
O267 Mn252 2.162 . S
O267 C255 1.281 . S
O268 Mn252 2.297 . S
O268 C255 1.236 . S
N269 Mn253 2.282 . S
N269 C270 1.328 . S
N269 C274 1.318 . S
C270 N269 1.328 . S
C270 C271 1.457 1_545 S
C270 H275 0.929 . S
C271 C270 1.457 1_565 S
C271 C272 1.291 . S
C271 H284 0.931 . S
C272 C271 1.291 . S
C272 C273 1.373 . S
C272 H285 0.929 . S
C273 C272 1.373 . S
C273 C274 1.396 1_565 S
C273 C280 1.403 . S
C274 C264 1.476 . S
C274 N269 1.318 . S
C274 C273 1.396 1_545 S
H275 C270 0.929 . S
O276 Mn252 2.385 . S
O276 C254 1.234 . S
O277 Mn252 2.209 . S
O277 Mn253 2.215 . S
O277 C254 1.283 . S
O278 Mn252 2.094 . S
O278 C256 1.240 . S
O279 Mn253 2.117 . S
O279 C256 1.264 . S
C280 C273 1.403 . S
C280 C281 1.399 . S
C280 H286 0.929 . S
C281 C261 1.459 . S
C281 C280 1.399 . S
C281 H287 0.930 . S
H282 C262 0.931 1_565 S
H283 C263 0.930 . S
H284 C271 0.931 . S
H285 C272 0.929 . S
H286 C280 0.929 . S
H287 C281 0.930 . S
C288 C289 1.387 . S
C288 H292 0.950 . S
C288 C297 1.390 . S
C289 C288 1.387 . S
C289 C291 1.387 . S
H290 C297 0.950 . S
C291 C289 1.387 . S
C291 C293 1.390 . S
C291 H295 0.950 . S
H292 C288 0.950 . S
C293 C291 1.390 . S
C293 C294 1.387 . S
C293 H296 0.950 . S
C294 C293 1.387 . S
C294 C297 1.387 . S
H295 C291 0.950 . S
H296 C293 0.950 . S
C297 C288 1.390 . S
C297 H290 0.950 . S
C297 C294 1.387 . S
C298 C299 1.387 . S
C298 H302 0.950 . S
C298 C307 1.390 . S
C299 C298 1.387 . S
C299 C301 1.387 . S
H300 C307 0.950 . S
C301 C299 1.387 . S
C301 C303 1.390 . S
C301 H305 0.950 . S
H302 C298 0.950 . S
C303 C301 1.390 . S
C303 C304 1.387 . S
C303 H306 0.950 . S
C304 C303 1.387 . S
C304 C307 1.387 . S
H305 C301 0.950 . S
H306 C303 0.950 . S
C307 C298 1.390 . S
C307 H300 0.950 . S
C307 C304 1.387 . S
C308 C309 1.387 . S
C308 H312 0.950 . S
C308 C317 1.390 . S
C309 C308 1.387 . S
C309 C311 1.387 . S
H310 C317 0.950 . S
C311 C309 1.387 . S
C311 C313 1.390 . S
C311 H315 0.950 . S
H312 C308 0.950 . S
C313 C311 1.390 . S
C313 C314 1.387 . S
C313 H316 0.950 . S
C314 C313 1.387 . S
C314 C317 1.387 . S
H315 C311 0.950 . S
H316 C313 0.950 . S
C317 C308 1.390 . S
C317 H310 0.950 . S
C317 C314 1.387 . S
C318 C319 1.387 . S
C318 H322 0.950 . S
C318 C327 1.390 . S
C319 C318 1.387 . S
C319 C321 1.387 . S
H320 C327 0.950 . S
C321 C319 1.387 . S
C321 C323 1.390 . S
C321 H325 0.950 . S
H322 C318 0.950 . S
C323 C321 1.390 . S
C323 C324 1.387 . S
C323 H326 0.950 . S
C324 C323 1.387 . S
C324 C327 1.387 . S
H325 C321 0.950 . S
H326 C323 0.950 . S
C327 C318 1.390 . S
C327 H320 0.950 . S
C327 C324 1.387 . S
C328 C329 1.387 . S
C328 H332 0.950 . S
C328 C337 1.390 . S
C329 C328 1.387 . S
C329 C331 1.387 . S
H330 C337 0.950 . S
C331 C329 1.387 . S
C331 C333 1.390 . S
C331 H335 0.950 . S
H332 C328 0.950 . S
C333 C331 1.390 . S
C333 C334 1.387 . S
C333 H336 0.950 . S
C334 C333 1.387 . S
C334 C337 1.387 . S
H335 C331 0.950 . S
H336 C333 0.950 . S
C337 C328 1.390 . S
C337 H330 0.950 . S
C337 C334 1.387 . S
C338 C339 1.387 . S
C338 H342 0.950 . S
C338 C347 1.390 . S
C339 C338 1.387 . S
C339 C341 1.387 . S
H340 C347 0.950 . S
C341 C339 1.387 . S
C341 C343 1.390 . S
C341 H345 0.950 . S
H342 C338 0.950 . S
C343 C341 1.390 . S
C343 C344 1.387 . S
C343 H346 0.950 . S
C344 C343 1.387 . S
C344 C347 1.387 . S
H345 C341 0.950 . S
H346 C343 0.950 . S
C347 C338 1.390 . S
C347 H340 0.950 . S
C347 C344 1.387 . S
C348 C349 1.387 . S
C348 H352 0.950 . S
C348 C357 1.390 . S
C349 C348 1.387 . S
C349 C351 1.387 . S
H350 C357 0.950 . S
C351 C349 1.387 . S
C351 C353 1.390 . S
C351 H355 0.950 . S
H352 C348 0.950 . S
C353 C351 1.390 . S
C353 C354 1.387 . S
C353 H356 0.950 . S
C354 C353 1.387 . S
C354 C357 1.387 . S
H355 C351 0.950 . S
H356 C353 0.950 . S
C357 C348 1.390 . S
C357 H350 0.950 . S
C357 C354 1.387 . S
C358 C359 1.387 . S
C358 H362 0.950 . S
C358 C367 1.390 . S
C359 C358 1.387 . S
C359 C361 1.387 . S
H360 C367 0.950 . S
C361 C359 1.387 . S
C361 C363 1.390 . S
C361 H365 0.950 . S
H362 C358 0.950 . S
C363 C361 1.390 . S
C363 C364 1.387 . S
C363 H366 0.950 . S
C364 C363 1.387 . S
C364 C367 1.387 . S
H365 C361 0.950 . S
H366 C363 0.950 . S
C367 C358 1.390 . S
C367 H360 0.950 . S
C367 C364 1.387 . S
C368 C369 1.387 . S
C368 H372 0.950 . S
C368 C377 1.390 . S
C369 C368 1.387 . S
C369 C371 1.387 . S
H370 C377 0.950 . S
C371 C369 1.387 . S
C371 C373 1.390 . S
C371 H375 0.950 . S
H372 C368 0.950 . S
C373 C371 1.390 . S
C373 C374 1.387 . S
C373 H376 0.950 . S
C374 C373 1.387 . S
C374 C377 1.387 . S
H375 C371 0.950 . S
H376 C373 0.950 . S
C377 C368 1.390 . S
C377 H370 0.950 . S
C377 C374 1.387 . S
C378 C379 1.387 . S
C378 H382 0.950 . S
C378 C387 1.390 . S
C379 C378 1.387 . S
C379 C381 1.387 . S
H380 C387 0.950 . S
C381 C379 1.387 . S
C381 C383 1.390 . S
C381 H385 0.950 . S
H382 C378 0.950 . S
C383 C381 1.390 . S
C383 C384 1.387 . S
C383 H386 0.950 . S
C384 C383 1.387 . S
C384 C387 1.387 . S
H385 C381 0.950 . S
H386 C383 0.950 . S
C387 C378 1.390 . S
C387 H380 0.950 . S
C387 C384 1.387 . S
C388 C389 1.387 . S
C388 H392 0.950 . S
C388 C397 1.390 . S
C389 C388 1.387 . S
C389 C391 1.387 . S
H390 C397 0.950 . S
C391 C389 1.387 . S
C391 C393 1.390 . S
C391 H395 0.950 . S
H392 C388 0.950 . S
C393 C391 1.390 . S
C393 C394 1.387 . S
C393 H396 0.950 . S
C394 C393 1.387 . S
C394 C397 1.387 . S
H395 C391 0.950 . S
H396 C393 0.950 . S
C397 C388 1.390 . S
C397 H390 0.950 . S
C397 C394 1.387 . S
C398 C399 1.387 . S
C398 H402 0.950 . S
C398 C407 1.390 . S
C399 C398 1.387 . S
C399 C401 1.387 . S
H400 C407 0.950 . S
C401 C399 1.387 . S
C401 C403 1.390 . S
C401 H405 0.950 . S
H402 C398 0.950 . S
C403 C401 1.390 . S
C403 C404 1.387 . S
C403 H406 0.950 . S
C404 C403 1.387 . S
C404 C407 1.387 . S
H405 C401 0.950 . S
H406 C403 0.950 . S
C407 C398 1.390 . S
C407 H400 0.950 . S
C407 C404 1.387 . S
C408 C409 1.387 . S
C408 H412 0.950 . S
C408 C417 1.390 1_544 S
C409 C408 1.387 . S
C409 C411 1.387 1_455 S
H410 C417 0.950 . S
C411 C409 1.387 1_655 S
C411 C413 1.390 1_544 S
C411 H415 0.950 . S
H412 C408 0.950 . S
C413 C411 1.390 1_566 S
C413 C414 1.387 1_655 S
C413 H416 0.950 . S
C414 C413 1.387 1_455 S
C414 C417 1.387 . S
H415 C411 0.950 . S
H416 C413 0.950 . S
C417 C408 1.390 1_566 S
C417 H410 0.950 . S
C417 C414 1.387 . S
C418 C419 1.387 . S
C418 H422 0.950 . S
C418 C427 1.390 1_556 S
C419 C418 1.387 . S
C419 C421 1.387 1_455 S
H420 C427 0.950 . S
C421 C419 1.387 1_655 S
C421 C423 1.390 1_556 S
C421 H425 0.950 . S
H422 C418 0.950 . S
C423 C421 1.390 1_554 S
C423 C424 1.387 1_655 S
C423 H426 0.950 . S
C424 C423 1.387 1_455 S
C424 C427 1.387 . S
H425 C421 0.950 . S
H426 C423 0.950 . S
C427 C418 1.390 1_554 S
C427 H420 0.950 . S
C427 C424 1.387 . S
C428 C429 1.387 . S
C428 H432 0.950 . S
C428 C437 1.390 . S
C429 C428 1.387 . S
C429 C431 1.387 . S
H430 C437 0.950 . S
C431 C429 1.387 . S
C431 C433 1.390 . S
C431 H435 0.950 . S
H432 C428 0.950 . S
C433 C431 1.390 . S
C433 C434 1.387 . S
C433 H436 0.950 . S
C434 C433 1.387 . S
C434 C437 1.387 . S
H435 C431 0.950 . S
H436 C433 0.950 . S
C437 C428 1.390 . S
C437 H430 0.950 . S
C437 C434 1.387 . S
C438 C439 1.387 . S
C438 H442 0.950 . S
C438 C447 1.390 1_565 S
C439 C438 1.387 . S
C439 C441 1.387 . S
H440 C447 0.950 . S
C441 C439 1.387 . S
C441 C443 1.390 1_565 S
C441 H445 0.950 . S
H442 C438 0.950 . S
C443 C441 1.390 1_545 S
C443 C444 1.387 . S
C443 H446 0.950 . S
C444 C443 1.387 . S
C444 C447 1.387 . S
H445 C441 0.950 . S
H446 C443 0.950 . S
C447 C438 1.390 1_545 S
C447 H440 0.950 . S
C447 C444 1.387 . S
C289 C39 1.460 . S
C294 C3 1.460 . S
C299 C75 1.461 . S
C304 C111 1.461 . S
C309 C147 1.460 . S
C314 C183 1.460 . S
C319 C219 1.460 . S
C324 C255 1.460 . S
C329 C266 1.371 . S
C334 C14 1.371 . S
C339 C230 1.371 . S
C344 C50 1.371 . S
C349 C86 1.371 . S
C354 C194 1.371 . S
C359 C158 1.371 . S
C364 C122 1.371 . S
C369 C182 1.474 . S
C374 C74 1.474 . S
C379 C146 1.474 . S
C384 C110 1.474 . S
C389 C254 1.473 . S
C394 C2 1.473 . S
C399 C38 1.473 . S
C404 C218 1.473 . S
C409 C4 1.372 . S
C414 C76 1.372 . S
C419 C112 1.371 . S
C424 C40 1.371 . S
C429 C220 1.372 . S
C434 C148 1.372 . S
C439 C184 1.373 . S
C444 C256 1.373 . S
