# Generated by pormake.
# Topology vby, (6)-cn, num edge types: 1
# Building blocks:
#     Node 0, Type 0, BuildingBlock: KUMBOL_clean_sbu_1, # of connection points: 6
#     Node 1, Type 0, BuildingBlock: KUMBOL_clean_sbu_1, # of connection points: 6
#     Node 2, Type 0, BuildingBlock: KUMBOL_clean_sbu_1, # of connection points: 6
#     Node 3, Type 0, BuildingBlock: KUMBOL_clean_sbu_1, # of connection points: 6
#     Node 4, Type 0, BuildingBlock: KUMBOL_clean_sbu_1, # of connection points: 6
#     Node 5, Type 0, BuildingBlock: KUMBOL_clean_sbu_1, # of connection points: 6
#     Node 6, Type 0, BuildingBlock: KUMBOL_clean_sbu_1, # of connection points: 6
#     Node 7, Type 0, BuildingBlock: KUMBOL_clean_sbu_1, # of connection points: 6
#     Edge 8, Type (0, 0), BuildingBlock: KIFKEQ_clean_linker_1, # of connection points: 2
#     Edge 9, Type (0, 0), BuildingBlock: KIFKEQ_clean_linker_1, # of connection points: 2
#     Edge 10, Type (0, 0), BuildingBlock: KIFKEQ_clean_linker_1, # of connection points: 2
#     Edge 11, Type (0, 0), BuildingBlock: KIFKEQ_clean_linker_1, # of connection points: 2
#     Edge 12, Type (0, 0), BuildingBlock: KIFKEQ_clean_linker_1, # of connection points: 2
#     Edge 13, Type (0, 0), BuildingBlock: KIFKEQ_clean_linker_1, # of connection points: 2
#     Edge 14, Type (0, 0), BuildingBlock: KIFKEQ_clean_linker_1, # of connection points: 2
#     Edge 15, Type (0, 0), BuildingBlock: KIFKEQ_clean_linker_1, # of connection points: 2
#     Edge 16, Type (0, 0), BuildingBlock: KIFKEQ_clean_linker_1, # of connection points: 2
#     Edge 17, Type (0, 0), BuildingBlock: KIFKEQ_clean_linker_1, # of connection points: 2
#     Edge 18, Type (0, 0), BuildingBlock: KIFKEQ_clean_linker_1, # of connection points: 2
#     Edge 19, Type (0, 0), BuildingBlock: KIFKEQ_clean_linker_1, # of connection points: 2
#     Edge 20, Type (0, 0), BuildingBlock: KIFKEQ_clean_linker_1, # of connection points: 2
#     Edge 21, Type (0, 0), BuildingBlock: KIFKEQ_clean_linker_1, # of connection points: 2
#     Edge 22, Type (0, 0), BuildingBlock: KIFKEQ_clean_linker_1, # of connection points: 2
#     Edge 23, Type (0, 0), BuildingBlock: KIFKEQ_clean_linker_1, # of connection points: 2
#     Edge 24, Type (0, 0), BuildingBlock: KIFKEQ_clean_linker_1, # of connection points: 2
#     Edge 25, Type (0, 0), BuildingBlock: KIFKEQ_clean_linker_1, # of connection points: 2
#     Edge 26, Type (0, 0), BuildingBlock: KIFKEQ_clean_linker_1, # of connection points: 2
#     Edge 27, Type (0, 0), BuildingBlock: KIFKEQ_clean_linker_1, # of connection points: 2
#     Edge 28, Type (0, 0), BuildingBlock: KIFKEQ_clean_linker_1, # of connection points: 2
#     Edge 29, Type (0, 0), BuildingBlock: KIFKEQ_clean_linker_1, # of connection points: 2
#     Edge 30, Type (0, 0), BuildingBlock: KIFKEQ_clean_linker_1, # of connection points: 2
#     Edge 31, Type (0, 0), BuildingBlock: KIFKEQ_clean_linker_1, # of connection points: 2
# Relax obj value: 0.083
# Max RMSD: 0.155
# Mean RMSD: 0.155
data_MOF--net-vby--node1-KUMBOL_clean_sbu_1--edge1-KIFKEQ_clean_linker_1
_symmetry_space_group_name_H-M    P1
_symmetry_Int_Tables_number       1
_symmetry_cell_setting            triclinic
loop_
_symmetry_equiv_pos_as_xyz
'x, y, z'
_cell_length_a     15.390929
_cell_length_b     99.345807
_cell_length_c     30.01131
_cell_angle_alpha  113.15761
_cell_angle_beta   90.083887
_cell_angle_gamma 89.909896
loop_
_atom_site_label
_atom_site_type_symbol
_atom_site_fract_x
_atom_site_fract_y
_atom_site_fract_z
_atom_type_partial_charge
C0 C 0.26966 0.41977 0.08834 0.0
C1 C 0.36891 0.41977 0.0253 0.0
C2 C 0.28686 0.4165 0.03937 0.0
C3 C 0.43276 0.42639 0.06061 0.0
C4 C 0.33394 0.42638 0.12372 0.0
C5 C 0.41528 0.42972 0.1096 0.0
N6 N 0.19149 0.41596 0.10111 0.0
C7 C 0.17197 0.41893 0.14832 0.0
C8 C 0.31495 0.42926 0.17226 0.0
C9 C 0.23355 0.42555 0.1846 0.0
Gd10 Gd 0.07704 0.36219 0.98345 0.0
Gd11 Gd 0.09223 0.40632 0.03797 0.0
N12 N 0.22469 0.4097 0.00549 0.0
C13 C 0.38474 0.41618 0.97604 0.0
C14 C 0.23835 0.4069 0.95779 0.0
C15 C 0.31896 0.40983 0.94223 0.0
H16 H 0.18694 0.40285 0.93174 0.0
H17 H 0.32985 0.4074 0.90422 0.0
H18 H 0.94119 0.36035 0.0673 0.0
H19 H 0.1084 0.41651 0.15819 0.0
H20 H 0.798 0.34956 0.07092 0.0
H21 H 0.4471 0.41845 0.9638 0.0
H22 H 0.4962 0.42893 0.05036 0.0
H23 H 0.13163 0.3498 0.86551 0.0
H24 H 0.36261 0.43435 0.20049 0.0
H25 H 0.21799 0.42789 0.22208 0.0
H26 H 0.71482 0.32509 0.90388 0.0
H27 H 0.46551 0.43476 0.13629 0.0
H28 H 0.91551 0.32566 0.78254 0.0
H29 H 0.06321 0.33585 0.78623 0.0
N30 N 1.02096 0.34855 0.9061 0.0
C31 C 0.94107 0.3426 0.90497 0.0
C32 C 0.06593 0.34586 0.86429 0.0
C33 C 0.94454 0.33202 0.81742 0.0
C34 C 1.02788 0.33777 0.81934 0.0
C35 C 0.90059 0.33419 0.86054 0.0
H36 H 0.78612 0.32161 0.82676 0.0
N37 N 0.94045 0.35298 0.9907 0.0
C38 C 0.90054 0.34459 0.94847 0.0
C39 C 0.78135 0.34019 0.99333 0.0
C40 C 0.819 0.33818 0.94867 0.0
C41 C 0.90647 0.35434 0.03425 0.0
C42 C 0.82575 0.34819 0.03628 0.0
O43 O 0.20186 0.39171 0.04617 0.0
O44 O 0.20486 0.37187 0.97434 0.0
O45 O 0.13435 0.35143 0.02703 0.0
O46 O 0.12161 0.33968 0.94952 0.0
O47 O 0.04623 0.39467 0.96087 0.0
O48 O 0.12479 0.37339 0.93573 0.0
O49 O 0.94662 0.37376 0.99224 0.0
O50 O 0.95077 0.39927 0.03159 0.0
O51 O 0.08165 0.42419 0.01387 0.0
O52 O 0.04761 0.42774 0.08769 0.0
O53 O 0.08929 0.37509 0.0646 0.0
O54 O 1.02597 0.39802 0.08898 0.0
C55 C 0.24601 0.38177 0.01085 0.0
C56 C 0.0764 0.38282 0.92622 0.0
C57 C 0.22936 0.33144 0.98887 0.0
C58 C 0.30519 0.31055 0.995 0.0
C59 C 0.38529 0.32919 0.9781 0.0
C60 C 0.30836 0.33684 0.97974 0.0
C61 C 0.38392 0.31615 0.98559 0.0
C62 C 0.22788 0.31835 0.99649 0.0
C63 C 0.14734 0.33913 0.99005 0.0
C64 C 0.77782 0.33001 0.90448 0.0
C65 C 0.81839 0.32805 0.86055 0.0
H66 H 0.71867 0.33547 0.99501 0.0
C67 C 0.90867 0.38672 0.01094 0.0
C68 C 0.04334 0.38594 0.09564 0.0
C69 C 0.9874 0.44397 0.05477 0.0
C70 C 0.952 0.46684 0.04645 0.0
C71 C 0.83955 0.45314 0.06727 0.0
C72 C 0.90029 0.44248 0.06566 0.0
C73 C 0.86524 0.46532 0.05819 0.0
C74 C 1.01268 0.45604 0.04444 0.0
C75 C 0.05434 0.43351 0.05562 0.0
H76 H 0.44626 0.33334 0.97081 0.0
H77 H 0.3104 0.34689 0.97372 0.0
H78 H 0.44448 0.31037 0.98341 0.0
H79 H 0.16651 0.31435 0.00413 0.0
H80 H 0.77244 0.45202 0.07596 0.0
H81 H 0.87954 0.4332 0.07335 0.0
H82 H 0.81725 0.4735 0.0599 0.0
H83 H 0.08011 0.45723 0.03615 0.0
C84 C 0.13142 0.68035 0.09295 0.0
C85 C 0.207 0.68693 0.03326 0.0
C86 C 0.13805 0.67978 0.0459 0.0
C87 C 0.26929 0.69457 0.06825 0.0
C88 C 0.19309 0.68829 0.12834 0.0
C89 C 0.26234 0.69525 0.11561 0.0
N90 N 0.06406 0.67339 0.10431 0.0
C91 C 0.0501 0.67525 0.15133 0.0
C92 C 0.18246 0.68926 0.1758 0.0
C93 C 0.10997 0.68289 0.18745 0.0
Gd94 Gd 0.96472 0.61696 0.99358 0.0
Gd95 Gd 0.9674 0.66128 0.04034 0.0
N96 N 0.07808 0.67201 0.01226 0.0
C97 C 0.21179 0.68605 0.98559 0.0
C98 C 0.08083 0.67149 0.96624 0.0
C99 C 0.14817 0.67836 0.95203 0.0
H100 H 0.02979 0.66617 0.9409 0.0
H101 H 0.15043 0.67784 0.91535 0.0
H102 H 0.8681 0.61207 0.08577 0.0
H103 H 0.99176 0.67132 0.16191 0.0
H104 H 0.72638 0.60333 0.10306 0.0
H105 H 0.2639 0.69135 0.97445 0.0
H106 H 0.32296 0.70005 0.05909 0.0
H107 H 0.96363 0.60801 0.87093 0.0
H108 H 0.22834 0.69528 0.204 0.0
H109 H 0.0992 0.6841 0.22448 0.0
H110 H 0.56251 0.59216 0.95676 0.0
H111 H 0.31045 0.70133 0.14231 0.0
H112 H 0.70553 0.59556 0.82033 0.0
H113 H 0.85687 0.60085 0.80526 0.0
N114 N 0.8713 0.60939 0.92572 0.0
C115 C 0.79036 0.60522 0.93379 0.0
C116 C 0.89669 0.60694 0.87949 0.0
C117 C 0.7515 0.59932 0.85008 0.0
C118 C 0.8367 0.60237 0.84148 0.0
C119 C 0.72806 0.60027 0.89623 0.0
H120 H 0.59678 0.5922 0.87689 0.0
N121 N 0.83149 0.60979 0.01479 0.0
C122 C 0.77075 0.60504 0.97896 0.0
C123 C 0.67292 0.59964 0.03279 0.0
C124 C 0.68899 0.60012 0.98748 0.0
C125 C 0.81783 0.60873 0.05834 0.0
C126 C 0.73795 0.60382 0.06816 0.0
O127 O 0.10267 0.65087 0.02681 0.0
O128 O 0.10355 0.62531 0.00057 0.0
O129 O 0.99768 0.60104 0.02358 0.0
O130 O 1.00335 0.59482 0.9461 0.0
O131 O 0.93852 0.64745 0.96205 0.0
O132 O 1.01927 0.62635 0.94136 0.0
O133 O 0.84863 0.63117 0.03164 0.0
O134 O 0.85145 0.64826 0.99956 0.0
O135 O 0.92638 0.68061 0.02822 0.0
O136 O 0.87733 0.67673 0.09073 0.0
O137 O 1.01842 0.62997 0.06773 0.0
O138 O 0.93703 0.65122 0.09486 0.0
C139 C 0.14322 0.63812 0.01329 0.0
C140 C 0.99016 0.63747 0.93205 0.0
C141 C 0.07995 0.58011 0.97942 0.0
C142 C 0.11957 0.55712 0.98615 0.0
C143 C 0.2312 0.5733 0.97705 0.0
C144 C 0.16762 0.58319 0.97577 0.0
C145 C 0.20768 0.56043 0.98254 0.0
C146 C 0.05617 0.56708 0.98398 0.0
C147 C 1.01122 0.59053 0.98167 0.0
C148 C 0.62605 0.59581 0.95068 0.0
C149 C 0.64547 0.5959 0.90525 0.0
H150 H 0.61078 0.59597 0.04069 0.0
C151 C 0.80704 0.64002 0.01613 0.0
C152 C 0.98108 0.64095 0.10267 0.0
C153 C 0.82716 0.69896 0.08222 0.0
C154 C 0.78814 0.72187 0.07476 0.0
C155 C 0.71322 0.71449 0.13259 0.0
C156 C 0.76399 0.70186 0.11855 0.0
C157 C 0.72471 0.72439 0.11066 0.0
C158 C 0.8398 0.70915 0.06063 0.0
C159 C 0.87825 0.68526 0.06693 0.0
H160 H 0.29912 0.57573 0.97457 0.0
H161 H 0.18669 0.59326 0.97252 0.0
H162 H 0.25884 0.55327 0.98498 0.0
H163 H 0.98777 0.5648 0.98604 0.0
H164 H 0.6645 0.71658 0.1605 0.0
H165 H 0.75318 0.69428 0.13589 0.0
H166 H 0.6845 0.73413 0.12202 0.0
H167 H 0.88874 0.70717 0.03281 0.0
C168 C 0.25751 0.60309 0.43287 0.0
C169 C 0.36215 0.60227 0.49267 0.0
C170 C 0.27914 0.606 0.48116 0.0
C171 C 0.4225 0.59548 0.45549 0.0
C172 C 0.31839 0.59636 0.39565 0.0
C173 C 0.40067 0.59252 0.40721 0.0
N174 N 0.1784 0.60735 0.42259 0.0
C175 C 0.15471 0.60474 0.37611 0.0
C176 C 0.29514 0.59385 0.34788 0.0
C177 C 0.21292 0.59802 0.33808 0.0
Gd178 Gd 0.07336 0.6614 0.54607 0.0
Gd179 Gd 0.08584 0.61727 0.48884 0.0
N180 N 0.2206 0.61304 0.51691 0.0
C181 C 0.38258 0.60565 0.54137 0.0
C182 C 0.23892 0.61585 0.56418 0.0
C183 C 0.32055 0.61238 0.57719 0.0
H184 H 0.19059 0.62047 0.59184 0.0
H185 H 0.33529 0.61478 0.61482 0.0
H186 H 0.94905 0.66311 0.45718 0.0
H187 H 0.09041 0.60752 0.36807 0.0
H188 H 0.80741 0.6735 0.44824 0.0
H189 H 0.44585 0.60301 0.55167 0.0
H190 H 0.48664 0.59257 0.46375 0.0
H191 H 0.11225 0.67335 0.66595 0.0
H192 H 0.34013 0.58868 0.31829 0.0
H193 H 0.19415 0.59596 0.30121 0.0
H194 H 0.70537 0.69786 0.61177 0.0
H195 H 0.44829 0.58736 0.37905 0.0
H196 H 0.8886 0.69729 0.74038 0.0
H197 H 0.03464 0.68709 0.74236 0.0
N198 N 1.00826 0.67473 0.62114 0.0
C199 C 0.92942 0.68069 0.61923 0.0
C200 C 0.04722 0.67727 0.6646 0.0
C201 C 0.92167 0.69103 0.70669 0.0
C202 C 1.00401 0.68526 0.70797 0.0
C203 C 0.88383 0.68896 0.66201 0.0
H204 H 0.76649 0.70135 0.69138 0.0
N205 N 0.93888 0.67032 0.53359 0.0
C206 C 0.89464 0.67871 0.57427 0.0
C207 C 0.78175 0.68285 0.52503 0.0
C208 C 0.81388 0.68497 0.57101 0.0
C209 C 0.91036 0.66887 0.48888 0.0
C210 C 0.8307 0.6749 0.48383 0.0
O211 O 0.1989 0.63165 0.48358 0.0
O212 O 0.20017 0.65148 0.55568 0.0
O213 O 0.13086 0.67305 0.5054 0.0
O214 O 0.1192 0.6837 0.58336 0.0
O215 O 0.04198 0.62867 0.56644 0.0
O216 O 0.11897 0.65022 0.59453 0.0
O217 O 0.94266 0.64994 0.53715 0.0
O218 O 0.94524 0.62456 0.49444 0.0
O219 O 0.07375 0.5997 0.51428 0.0
O220 O 0.0402 0.59582 0.44004 0.0
O221 O 0.09238 0.64862 0.46539 0.0
O222 O 1.02065 0.62645 0.43959 0.0
C223 C 0.24189 0.64165 0.51927 0.0
C224 C 0.07282 0.64021 0.60218 0.0
C225 C 0.22642 0.69273 0.54618 0.0
C226 C 0.30241 0.71372 0.54113 0.0
C227 C 0.38155 0.69535 0.56019 0.0
C228 C 0.30486 0.68754 0.55709 0.0
C229 C 0.38053 0.70834 0.55237 0.0
C230 C 0.22532 0.70576 0.53818 0.0
C231 C 0.14446 0.68494 0.54383 0.0
C232 C 0.76783 0.69305 0.61354 0.0
C233 C 0.80261 0.69502 0.65889 0.0
H234 H 0.71989 0.68747 0.521 0.0
C235 C 0.90396 0.63709 0.51697 0.0
C236 C 0.0445 0.63833 0.43347 0.0
C237 C 0.97937 0.57988 0.47385 0.0
C238 C 0.94365 0.55707 0.48316 0.0
C239 C 0.83138 0.57097 0.46214 0.0
C240 C 0.89233 0.58148 0.46323 0.0
C241 C 0.85669 0.55881 0.47153 0.0
C242 C 1.00446 0.56783 0.48445 0.0
C243 C 0.04647 0.59026 0.47269 0.0
H244 H 0.44205 0.69137 0.56891 0.0
H245 H 0.30659 0.67754 0.56344 0.0
H246 H 0.44083 0.71426 0.55573 0.0
H247 H 0.16443 0.7096 0.52918 0.0
H248 H 0.76431 0.57214 0.45335 0.0
H249 H 0.87176 0.59075 0.45531 0.0
H250 H 0.80804 0.55067 0.46878 0.0
H251 H 0.07167 0.56694 0.49373 0.0
C252 C 0.13364 0.34305 0.41428 0.0
C253 C 0.24998 0.34019 0.4647 0.0
C254 C 0.16822 0.34589 0.45991 0.0
C255 C 0.29722 0.33181 0.42297 0.0
C256 C 0.1803 0.33443 0.37232 0.0
C257 C 0.26258 0.32896 0.37692 0.0
N258 N 0.05376 0.34845 0.41095 0.0
C259 C 1.01452 0.34487 0.36703 0.0
C260 C 0.1423 0.33141 0.32697 0.0
C261 C 0.05864 0.33652 0.32435 0.0
Gd262 Gd 0.9721 0.40664 0.54043 0.0
Gd263 Gd 0.98651 0.36252 0.48466 0.0
N264 N 0.1226 0.35456 0.49968 0.0
C265 C 0.2818 0.34312 0.51133 0.0
C266 C 0.1509 0.35674 0.54509 0.0
C267 C 0.2315 0.35128 0.55168 0.0
H268 H 0.11117 0.36254 0.57618 0.0
H269 H 0.2544 0.35326 0.58783 0.0
H270 H 0.85533 0.40349 0.44157 0.0
H271 H 0.94819 0.34807 0.36503 0.0
H272 H 0.70796 0.40961 0.42336 0.0
H273 H 0.34436 0.33894 0.51655 0.0
H274 H 0.36045 0.32742 0.42592 0.0
H275 H 0.98372 0.41779 0.66194 0.0
H276 H 0.17611 0.32485 0.29386 0.0
H277 H 1.02759 0.33385 0.28953 0.0
H278 H 0.57378 0.43263 0.57936 0.0
H279 H 0.29954 0.32238 0.34507 0.0
H280 H 0.73849 0.43697 0.71988 0.0
H281 H 0.88771 0.4298 0.73216 0.0
N282 N 0.88806 0.41742 0.61016 0.0
C283 C 0.80709 0.42167 0.60251 0.0
C284 C 0.9179 0.42046 0.65593 0.0
C285 C 0.77998 0.43155 0.68879 0.0
C286 C 0.86407 0.42746 0.69588 0.0
C287 C 0.75059 0.42873 0.64176 0.0
H288 H 0.62234 0.43808 0.66273 0.0
N289 N 0.83395 0.41131 0.51744 0.0
C290 C 0.77955 0.41864 0.55505 0.0
C291 C 0.66907 0.4191 0.49833 0.0
C292 C 0.69512 0.42256 0.5463 0.0
C293 C 0.8102 0.40842 0.4708 0.0
C294 C 0.72706 0.41209 0.46048 0.0
O295 O 0.11539 0.37425 0.49011 0.0
O296 O 0.11251 0.39939 0.53695 0.0
O297 O 0.98157 0.42318 0.51056 0.0
O298 O 1.02109 0.42839 0.58481 0.0
O299 O 0.96253 0.37583 0.56443 0.0
O300 O 0.03745 0.39759 0.58992 0.0
O301 O 0.85745 0.39251 0.54503 0.0
O302 O 0.85794 0.37194 0.47462 0.0
O303 O 0.93718 0.35079 0.52693 0.0
O304 O 0.93834 0.34029 0.44863 0.0
O305 O 1.01244 0.39455 0.46245 0.0
O306 O 0.93884 0.37258 0.43323 0.0
C307 C 0.15393 0.38705 0.51208 0.0
C308 C 1.01139 0.38589 0.59637 0.0
C309 C 0.07953 0.44269 0.54427 0.0
C310 C 0.11666 0.46471 0.53074 0.0
C311 C 0.22967 0.44769 0.53219 0.0
C312 C 0.16741 0.43871 0.54049 0.0
C313 C 0.20463 0.46056 0.52713 0.0
C314 C 0.05445 0.4557 0.53965 0.0
C315 C 1.01182 0.43316 0.55033 0.0
C316 C 0.639 0.4296 0.58546 0.0
C317 C 0.66664 0.43268 0.63297 0.0
H318 H 0.60455 0.42187 0.49015 0.0
C319 C 0.8157 0.38211 0.5099 0.0
C320 C 0.97564 0.38365 0.42681 0.0
C321 C 0.83839 0.3314 0.49011 0.0
C322 C 0.76658 0.31041 0.49711 0.0
C323 C 0.68131 0.32999 0.48889 0.0
C324 C 0.75736 0.33741 0.48701 0.0
C325 C 0.68569 0.31661 0.49407 0.0
C326 C 0.84286 0.3179 0.49489 0.0
C327 C 0.91939 0.33898 0.48895 0.0
H328 H 0.29757 0.44461 0.52935 0.0
H329 H 0.18761 0.42866 0.54353 0.0
H330 H 0.25414 0.46732 0.52073 0.0
H331 H 0.98617 0.45861 0.54173 0.0
H332 H 0.61873 0.33463 0.48639 0.0
H333 H 0.75306 0.3478 0.48324 0.0
H334 H 0.62582 0.31104 0.49517 0.0
H335 H 0.90579 0.31337 0.49773 0.0
C336 C 0.75911 0.92147 0.09603 0.0
C337 C 0.86022 0.92235 0.03493 0.0
C338 C 0.77804 0.91867 0.04753 0.0
C339 C 0.92244 0.92896 0.07125 0.0
C340 C 0.82185 0.92803 0.13238 0.0
C341 C 0.90328 0.93181 0.11975 0.0
N342 N 0.68091 0.91722 0.10732 0.0
C343 C 0.65979 0.91975 0.15405 0.0
C344 C 0.80133 0.93041 0.18037 0.0
C345 C 0.7199 0.92629 0.19124 0.0
Gd346 Gd 0.57255 0.86342 0.98703 0.0
Gd347 Gd 0.58482 0.90761 0.0425 0.0
N348 N 0.71766 0.91182 0.0126 0.0
C349 C 0.87793 0.91912 0.98605 0.0
C350 C 0.73328 0.90921 0.96522 0.0
C351 C 0.81402 0.91261 0.95114 0.0
H352 H 0.6834 0.90485 0.93831 0.0
H353 H 0.82656 0.91037 0.9134 0.0
H354 H 0.46159 0.86166 0.08032 0.0
H355 H 0.59608 0.91703 0.16296 0.0
H356 H 0.32275 0.85166 0.09454 0.0
H357 H 0.94046 0.92172 0.97494 0.0
H358 H 0.98596 0.93182 0.06214 0.0
H359 H 0.59649 0.85125 0.86582 0.0
H360 H 0.84782 0.93544 0.20931 0.0
H361 H 0.70318 0.92826 0.22831 0.0
H362 H 0.20125 0.82758 0.93528 0.0
H363 H 0.95232 0.93683 0.14721 0.0
H364 H 0.36624 0.8277 0.80009 0.0
H365 H 0.5103 0.83761 0.79256 0.0
N366 N 0.49899 0.85021 0.9145 0.0
C367 C 0.42146 0.84436 0.91942 0.0
C368 C 0.5322 0.84754 0.86967 0.0
C369 C 0.40302 0.83394 0.83245 0.0
C370 C 0.48419 0.83957 0.82804 0.0
C371 C 0.37119 0.83613 0.87846 0.0
H372 H 0.25176 0.82391 0.85357 0.0
N373 N 0.44128 0.85476 0.00461 0.0
C374 C 0.39265 0.84643 0.96563 0.0
C375 C 0.28737 0.84248 0.01893 0.0
C376 C 0.31333 0.84032 0.97189 0.0
C377 C 0.41896 0.85618 0.0502 0.0
C378 C 0.34099 0.8503 0.05819 0.0
O379 O 0.69786 0.89318 0.04758 0.0
O380 O 0.6985 0.87325 0.97575 0.0
O381 O 0.64099 0.85188 0.02524 0.0
O382 O 0.61051 0.84081 0.94899 0.0
O383 O 0.54096 0.896 0.96486 0.0
O384 O 0.61586 0.87414 0.93689 0.0
O385 O 0.44168 0.8749 0.99756 0.0
O386 O 0.44396 0.90043 0.0351 0.0
O387 O 0.57211 0.92563 0.01922 0.0
O388 O 0.53871 0.92884 0.09281 0.0
O389 O 0.59355 0.8764 0.06727 0.0
O390 O 0.52109 0.89854 0.09222 0.0
C391 C 0.74062 0.88322 0.01166 0.0
C392 C 0.57144 0.88436 0.92926 0.0
C393 C 0.72509 0.83094 0.97854 0.0
C394 C 0.79764 0.80898 0.97891 0.0
C395 C 0.86571 0.82392 0.94057 0.0
C396 C 0.79514 0.83352 0.95329 0.0
C397 C 0.86664 0.81168 0.9526 0.0
C398 C 0.72718 0.8189 0.99206 0.0
C399 C 0.64531 0.83969 0.98687 0.0
C400 C 0.26265 0.83229 0.93118 0.0
C401 C 0.29141 0.83022 0.88463 0.0
H402 H 0.22688 0.83796 0.02525 0.0
C403 C 0.40281 0.88778 0.01521 0.0
C404 C 0.54657 0.88685 0.09912 0.0
C405 C 0.47515 0.94495 0.06052 0.0
C406 C 0.43412 0.96757 0.05147 0.0
C407 C 0.3248 0.95279 0.06998 0.0
C408 C 0.38826 0.94269 0.06958 0.0
C409 C 0.34735 0.96515 0.06115 0.0
C410 C 0.49772 0.95733 0.05129 0.0
C411 C 0.54415 0.93477 0.06112 0.0
H412 H 0.91918 0.8258 0.92034 0.0
H413 H 0.79418 0.84271 0.94245 0.0
H414 H 0.92095 0.8042 0.94025 0.0
H415 H 0.67298 0.81727 0.01236 0.0
H416 H 0.25783 0.95109 0.07739 0.0
H417 H 0.36966 0.93319 0.07658 0.0
H418 H 0.29687 0.9729 0.0625 0.0
H419 H 0.56489 0.95887 0.04353 0.0
C420 C 0.64483 0.18033 0.08481 0.0
C421 C 0.70795 0.18749 0.0232 0.0
C422 C 0.64333 0.1801 0.03806 0.0
C423 C 0.7738 0.1951 0.05576 0.0
C424 C 0.71037 0.18813 0.1177 0.0
C425 C 0.77494 0.19543 0.10284 0.0
N426 N 0.58249 0.17289 0.098 0.0
C427 C 0.57779 0.17396 0.14467 0.0
C428 C 0.7086 0.1885 0.16479 0.0
C429 C 0.64138 0.18153 0.17846 0.0
Gd430 Gd 0.47766 0.11657 0.98884 0.0
Gd431 Gd 0.47719 0.16125 0.03862 0.0
N432 N 0.58013 0.17233 0.00677 0.0
C433 C 0.70509 0.18686 0.97579 0.0
C434 C 0.57505 0.17217 0.96122 0.0
C435 C 0.63803 0.17924 0.94478 0.0
H436 H 0.52085 0.16704 0.93816 0.0
H437 H 0.63412 0.17897 0.90843 0.0
H438 H 0.40235 0.11046 0.08306 0.0
H439 H 0.52399 0.16944 0.15675 0.0
H440 H 0.26923 0.10057 0.1054 0.0
H441 H 0.75375 0.19235 0.96295 0.0
H442 H 0.82416 0.20079 0.04488 0.0
H443 H 0.45382 0.11022 0.86873 0.0
H444 H 0.75762 0.19441 0.19114 0.0
H445 H 0.63768 0.18219 0.21528 0.0
H446 H 0.08317 0.08908 0.96679 0.0
H447 H 0.82591 0.20143 0.1276 0.0
H448 H 0.19367 0.09602 0.82845 0.0
H449 H 0.33721 0.10324 0.8084 0.0
N450 N 0.37416 0.10947 0.92586 0.0
C451 C 0.29807 0.1043 0.93633 0.0
C452 C 0.39008 0.1083 0.87968 0.0
C453 C 0.24392 0.09965 0.85595 0.0
C454 C 0.32462 0.10382 0.84459 0.0
C455 C 0.23054 0.09946 0.90179 0.0
H456 H 0.10016 0.09056 0.88743 0.0
N457 N 0.35359 0.10817 0.01428 0.0
C458 C 0.28834 0.1033 0.98117 0.0
C459 C 0.20444 0.09677 0.03776 0.0
C460 C 0.21122 0.09768 0.99247 0.0
C461 C 0.34858 0.10698 0.05796 0.0
C462 C 0.27365 0.10135 0.07051 0.0
O463 O 0.61293 0.15108 0.02541 0.0
O464 O 0.61446 0.12556 0.99868 0.0
O465 O 0.52486 0.09926 0.01171 0.0
O466 O 0.51846 0.09578 0.93503 0.0
O467 O 0.44513 0.14748 0.96074 0.0
O468 O 0.52841 0.12665 0.93803 0.0
O469 O 0.35958 0.13017 0.02715 0.0
O470 O 0.35988 0.14831 0.99902 0.0
O471 O 0.43091 0.18076 0.02928 0.0
O472 O 0.39325 0.1767 0.09332 0.0
O473 O 0.52729 0.12942 0.06408 0.0
O474 O 0.44763 0.15091 0.0925 0.0
C475 C 0.6537 0.13836 0.01185 0.0
C476 C 0.49749 0.13785 0.93003 0.0
C477 C 0.57461 0.07555 0.95149 0.0
C478 C 0.59007 0.05199 0.95895 0.0
C479 C 0.66504 0.0565 0.89475 0.0
C480 C 0.62993 0.07054 0.91113 0.0
C481 C 0.64516 0.04728 0.91824 0.0
C482 C 0.55479 0.06627 0.97555 0.0
C483 C 0.53674 0.09033 0.96686 0.0
C484 C 0.14325 0.09329 0.95857 0.0
C485 C 0.15281 0.0942 0.91345 0.0
H486 H 0.14619 0.09252 0.04775 0.0
C487 C 0.31709 0.1394 0.0136 0.0
C488 C 0.48669 0.13996 0.09909 0.0
C489 C 0.33822 0.19916 0.08815 0.0
C490 C 0.29318 0.22226 0.08325 0.0
C491 C 0.23718 0.21533 0.14707 0.0
C492 C 0.28524 0.20241 0.12909 0.0
C493 C 0.24103 0.22518 0.12448 0.0
C494 C 0.34241 0.20919 0.06533 0.0
C495 C 0.38882 0.18538 0.07008 0.0
H496 H 0.70728 0.0527 0.86341 0.0
H497 H 0.64607 0.07749 0.89214 0.0
H498 H 0.6718 0.0363 0.90382 0.0
H499 H 0.51189 0.07011 0.00668 0.0
H500 H 0.19687 0.21776 0.17881 0.0
H501 H 0.28086 0.19496 0.14736 0.0
H502 H 0.20387 0.23522 0.13982 0.0
H503 H 0.38303 0.2068 0.03365 0.0
C504 C 0.76651 0.10308 0.43793 0.0
C505 C 0.86416 0.10307 0.50176 0.0
C506 C 0.78227 0.10623 0.48699 0.0
C507 C 0.9293 0.09669 0.46707 0.0
C508 C 0.83207 0.09671 0.40318 0.0
C509 C 0.91325 0.09349 0.418 0.0
N510 N 0.68851 0.1068 0.42451 0.0
C511 C 0.67031 0.10393 0.37721 0.0
C512 C 0.81451 0.09398 0.35456 0.0
C513 C 0.73321 0.09756 0.34153 0.0
Gd514 Gd 0.57083 0.16023 0.54215 0.0
Gd515 Gd 0.58722 0.1161 0.48659 0.0
N516 N 0.71884 0.11278 0.52029 0.0
C517 C 0.87854 0.10651 0.55109 0.0
C518 C 0.73115 0.11543 0.56801 0.0
C519 C 0.81153 0.1126 0.58425 0.0
H520 H 0.67887 0.11925 0.59355 0.0
H521 H 0.82131 0.1149 0.62227 0.0
H522 H 0.43526 0.16258 0.45864 0.0
H523 H 0.60689 0.10628 0.36681 0.0
H524 H 0.29183 0.17345 0.4555 0.0
H525 H 0.94072 0.10432 0.56385 0.0
H526 H 0.99263 0.09425 0.47788 0.0
H527 H 0.6266 0.17254 0.65992 0.0
H528 H 0.86321 0.08909 0.32681 0.0
H529 H 0.71878 0.09533 0.30397 0.0
H530 H 0.20803 0.19708 0.62264 0.0
H531 H 0.96446 0.08865 0.39181 0.0
H532 H 0.40961 0.19619 0.74344 0.0
H533 H 0.55813 0.18621 0.73942 0.0
N534 N 0.515 0.17365 0.61963 0.0
C535 C 0.43471 0.17953 0.62093 0.0
C536 C 0.56049 0.17636 0.66134 0.0
C537 C 0.43861 0.18993 0.70848 0.0
C538 C 0.52243 0.18429 0.70638 0.0
C539 C 0.39426 0.18781 0.66546 0.0
H540 H 0.27955 0.20028 0.69954 0.0
N541 N 0.43413 0.1695 0.53512 0.0
C542 C 0.39404 0.1777 0.57752 0.0
C543 C 0.27484 0.18238 0.53305 0.0
C544 C 0.3124 0.18415 0.57757 0.0
C545 C 0.40033 0.16842 0.49176 0.0
C546 C 0.31948 0.17462 0.49 0.0
O547 O 0.69569 0.13095 0.47892 0.0
O548 O 0.69881 0.15054 0.55139 0.0
O549 O 0.63472 0.17084 0.49984 0.0
O550 O 0.60849 0.18302 0.57603 0.0
O551 O 0.54047 0.12754 0.56359 0.0
O552 O 0.61826 0.14889 0.58951 0.0
O553 O 0.44065 0.14859 0.53147 0.0
O554 O 0.4454 0.12305 0.49453 0.0
O555 O 0.58105 0.09767 0.50788 0.0
O556 O 0.53912 0.09499 0.43604 0.0
O557 O 0.58212 0.1477 0.46094 0.0
O558 O 0.52166 0.12452 0.43554 0.0
C559 C 0.74 0.14074 0.51462 0.0
C560 C 0.56973 0.13941 0.59854 0.0
C561 C 0.71997 0.19198 0.54179 0.0
C562 C 0.78933 0.21403 0.54075 0.0
C563 C 0.86867 0.19752 0.56882 0.0
C564 C 0.79626 0.1884 0.56008 0.0
C565 C 0.8652 0.21029 0.55974 0.0
C566 C 0.71701 0.20461 0.53155 0.0
C567 C 0.64032 0.18342 0.53651 0.0
C568 C 0.27113 0.19214 0.62186 0.0
C569 C 0.31182 0.19394 0.66566 0.0
H570 H 0.21209 0.18715 0.53157 0.0
C571 C 0.40299 0.13561 0.51382 0.0
C572 C 0.53813 0.13669 0.42934 0.0
C573 C 0.47952 0.07904 0.47015 0.0
C574 C 0.43882 0.05706 0.48321 0.0
C575 C 0.32759 0.07296 0.47212 0.0
C576 C 0.39153 0.08228 0.46742 0.0
C577 C 0.35084 0.06046 0.47999 0.0
C578 C 0.50285 0.06645 0.47802 0.0
C579 C 0.54865 0.08879 0.46683 0.0
H580 H 0.92732 0.19483 0.58352 0.0
H581 H 0.79918 0.17873 0.56836 0.0
H582 H 0.92163 0.21734 0.56862 0.0
H583 H 0.65776 0.20708 0.51671 0.0
H584 H 0.25968 0.07546 0.4698 0.0
H585 H 0.37238 0.09201 0.46189 0.0
H586 H 0.2999 0.05338 0.48318 0.0
H587 H 0.571 0.06417 0.48113 0.0
C588 C 0.63417 0.84327 0.42796 0.0
C589 C 0.71793 0.83595 0.48358 0.0
C590 C 0.64697 0.84346 0.47425 0.0
C591 C 0.77611 0.82834 0.4461 0.0
C592 C 0.69158 0.83532 0.39005 0.0
C593 C 0.76298 0.82803 0.39952 0.0
N594 N 0.56448 0.85044 0.41967 0.0
C595 C 0.54374 0.84872 0.37342 0.0
C596 C 0.67437 0.83461 0.34338 0.0
C597 C 0.59938 0.84114 0.33493 0.0
Gd598 Gd 0.47115 0.90668 0.53714 0.0
Gd599 Gd 0.47511 0.86225 0.48739 0.0
N600 N 0.59088 0.85119 0.51035 0.0
C601 C 0.72878 0.83643 0.53054 0.0
C602 C 0.59997 0.85146 0.55586 0.0
C603 C 0.66939 0.84418 0.56677 0.0
H604 H 0.55271 0.857 0.58341 0.0
H605 H 0.67672 0.84447 0.603 0.0
H606 H 0.39179 0.91018 0.439 0.0
H607 H 0.48313 0.85272 0.36537 0.0
H608 H 0.25814 0.91967 0.41534 0.0
H609 H 0.78258 0.83082 0.53915 0.0
H610 H 0.83126 0.82258 0.45269 0.0
H611 H 0.44774 0.9137 0.65789 0.0
H612 H 0.71686 0.8286 0.31333 0.0
H613 H 0.58335 0.84008 0.29856 0.0
H614 H 0.07621 0.93371 0.55619 0.0
H615 H 0.80787 0.82194 0.37085 0.0
H616 H 0.18898 0.92885 0.69767 0.0
H617 H 0.33208 0.92163 0.71852 0.0
N618 N 0.36802 0.91406 0.60006 0.0
C619 C 0.29156 0.91898 0.58871 0.0
C620 C 0.3842 0.91566 0.64668 0.0
C621 C 0.23874 0.9248 0.67005 0.0
C622 C 0.31923 0.92065 0.68189 0.0
C623 C 0.22473 0.92435 0.62342 0.0
H624 H 0.09492 0.93354 0.63728 0.0
N625 N 0.34448 0.91355 0.50906 0.0
C626 C 0.28048 0.91911 0.54262 0.0
C627 C 0.19524 0.92466 0.4842 0.0
C628 C 0.20322 0.92455 0.53059 0.0
C629 C 0.33849 0.91404 0.4643 0.0
C630 C 0.26339 0.91947 0.45104 0.0
O631 O 0.60994 0.87278 0.50264 0.0
O632 O 0.60971 0.89844 0.53259 0.0
O633 O 0.51235 0.92306 0.5101 0.0
O634 O 0.50107 0.92882 0.58743 0.0
O635 O 0.44829 0.87538 0.56654 0.0
O636 O 0.52281 0.89728 0.58977 0.0
O637 O 0.35482 0.8924 0.49997 0.0
O638 O 0.35699 0.87443 0.52857 0.0
O639 O 0.43739 0.84249 0.4984 0.0
O640 O 0.38566 0.84686 0.43725 0.0
O641 O 0.52737 0.89409 0.46358 0.0
O642 O 0.44343 0.87322 0.43564 0.0
C643 C 0.64984 0.88563 0.51842 0.0
C644 C 0.49673 0.88575 0.5976 0.0
C645 C 0.57731 0.94552 0.56215 0.0
C646 C 0.60719 0.96922 0.55804 0.0
C647 C 0.70739 0.95888 0.59932 0.0
C648 C 0.65426 0.9466 0.58824 0.0
C649 C 0.68396 0.97014 0.58474 0.0
C650 C 0.55454 0.95671 0.54671 0.0
C651 C 0.51587 0.93344 0.55313 0.0
C652 C 0.13634 0.9296 0.56492 0.0
C653 C 0.14692 0.92945 0.61106 0.0
H654 H 0.13689 0.92879 0.47368 0.0
C655 C 0.31316 0.88361 0.51565 0.0
C656 C 0.4899 0.88328 0.42823 0.0
C657 C 0.33834 0.82419 0.44292 0.0
C658 C 0.29374 0.80134 0.44954 0.0
C659 C 0.2385 0.80763 0.38413 0.0
C660 C 0.28586 0.8206 0.40153 0.0
C661 C 0.24236 0.79807 0.40777 0.0
C662 C 0.34261 0.81444 0.46683 0.0
C663 C 0.38872 0.83799 0.45979 0.0
H664 H 0.7664 0.95979 0.61996 0.0
H665 H 0.6725 0.93809 0.60053 0.0
H666 H 0.72534 0.9797 0.59528 0.0
H667 H 0.49522 0.95566 0.52608 0.0
H668 H 0.19877 0.80494 0.352 0.0
H669 H 0.28154 0.82779 0.38228 0.0
H670 H 0.20574 0.78797 0.39282 0.0
H671 H 0.38281 0.81709 0.49883 0.0
H672 H 0.35602 0.39321 0.08881 0.0
H673 H 0.35587 0.37171 0.93296 0.0
H674 H 0.51409 0.39507 0.08863 0.0
H675 H 0.51341 0.37381 0.93224 0.0
H676 H 0.80081 0.3668 0.94582 0.0
H677 H 0.64401 0.36515 0.94764 0.0
H678 H 0.63624 0.40638 0.07194 0.0
H679 H 0.79525 0.40722 0.07239 0.0
C680 C 0.38983 0.38893 0.05442 0.0
C681 C 0.34303 0.38234 0.01091 0.0
C682 C 0.48083 0.39007 0.05422 0.0
C683 C 0.52801 0.38462 0.01042 0.0
C684 C 0.48063 0.37794 0.96692 0.0
C685 C 0.38976 0.37673 0.96721 0.0
C686 C 0.76605 0.37532 0.97436 0.0
C687 C 0.81144 0.38687 0.00981 0.0
C688 C 0.6752 0.37457 0.97479 0.0
C689 C 0.62584 0.38561 0.01003 0.0
C690 C 0.67124 0.39748 0.04472 0.0
C691 C 0.76271 0.39809 0.04465 0.0
H692 H 0.25093 0.65742 0.99538 0.0
H693 H 0.25711 0.61855 0.02592 0.0
H694 H 0.40922 0.65836 0.99699 0.0
H695 H 0.41594 0.61893 0.02501 0.0
H696 H 0.69546 0.63322 0.07532 0.0
H697 H 0.53708 0.63225 0.0724 0.0
H698 H 0.53944 0.64687 0.95459 0.0
H699 H 0.69839 0.64762 0.95735 0.0
C700 C 0.28599 0.64917 0.00305 0.0
C701 C 0.2406 0.63817 0.01181 0.0
C702 C 0.37729 0.64951 0.00299 0.0
C703 C 0.42648 0.63878 0.01149 0.0
C704 C 0.38092 0.62757 0.01922 0.0
C705 C 0.2895 0.62725 0.01927 0.0
C706 C 0.66223 0.63606 0.04841 0.0
C707 C 0.70993 0.64026 0.01604 0.0
C708 C 0.57106 0.63551 0.04669 0.0
C709 C 0.5244 0.63936 0.01299 0.0
C710 C 0.57237 0.64391 0.98132 0.0
C711 C 0.66376 0.64434 0.98286 0.0
H712 H 0.79682 0.65715 0.58241 0.0
H713 H 0.79014 0.61664 0.45609 0.0
H714 H 0.64005 0.65879 0.5812 0.0
H715 H 0.63139 0.61742 0.45743 0.0
H716 H 0.35083 0.63004 0.44129 0.0
H717 H 0.50875 0.62841 0.44101 0.0
H718 H 0.51015 0.65034 0.59728 0.0
H719 H 0.35242 0.65228 0.59696 0.0
C720 C 0.76187 0.64862 0.55402 0.0
C721 C 0.80687 0.63705 0.51839 0.0
C722 C 0.67103 0.64935 0.554 0.0
C723 C 0.62144 0.63827 0.51912 0.0
C724 C 0.66653 0.62637 0.48434 0.0
C725 C 0.75791 0.6258 0.48389 0.0
C726 C 0.38503 0.63453 0.47557 0.0
C727 C 0.33879 0.64127 0.51915 0.0
C728 C 0.47599 0.63352 0.47551 0.0
C729 C 0.52369 0.63921 0.51912 0.0
C730 C 0.47689 0.64603 0.56272 0.0
C731 C 0.38595 0.64713 0.56268 0.0
H732 H 0.7056 0.37104 0.43207 0.0
H733 H 0.70666 0.39406 0.58746 0.0
H734 H 0.54801 0.37316 0.4314 0.0
H735 H 0.54897 0.39573 0.58752 0.0
H736 H 0.26834 0.40741 0.57297 0.0
H737 H 0.42693 0.40653 0.57135 0.0
H738 H 0.41704 0.36531 0.4469 0.0
H739 H 0.26057 0.36716 0.44569 0.0
C740 C 0.67191 0.37636 0.46623 0.0
C741 C 0.71887 0.3824 0.50976 0.0
C742 C 0.58103 0.37756 0.466 0.0
C743 C 0.53411 0.38464 0.50946 0.0
C744 C 0.58169 0.39045 0.55309 0.0
C745 C 0.67255 0.38938 0.55318 0.0
C746 C 0.30027 0.39828 0.54491 0.0
C747 C 0.251 0.38714 0.51024 0.0
C748 C 0.39163 0.39763 0.54432 0.0
C749 C 0.4364 0.38573 0.50935 0.0
C750 C 0.38648 0.37477 0.47425 0.0
C751 C 0.29571 0.37561 0.47424 0.0
H752 H 0.84963 0.89486 0.08963 0.0
H753 H 0.85134 0.87234 0.93405 0.0
H754 H 1.00748 0.89655 0.09007 0.0
H755 H 1.00932 0.87421 0.93398 0.0
H756 H 0.2962 0.8673 0.95099 0.0
H757 H 0.13932 0.86569 0.95168 0.0
H758 H 0.12948 0.90769 0.0726 0.0
H759 H 0.28835 0.90853 0.07435 0.0
C760 C 0.88382 0.89033 0.05539 0.0
C761 C 0.83758 0.88353 0.01178 0.0
C762 C 0.97474 0.89137 0.05557 0.0
C763 C 1.02251 0.88558 0.01207 0.0
C764 C 0.97584 0.87863 0.96844 0.0
C765 C 0.88484 0.87756 0.96835 0.0
C766 C 0.26099 0.87599 0.97865 0.0
C767 C 0.30568 0.88778 0.01358 0.0
C768 C 0.17013 0.87527 0.97835 0.0
C769 C 0.12023 0.88653 0.01229 0.0
C770 C 0.16496 0.89861 0.04642 0.0
C771 C 0.25637 0.89921 0.0471 0.0
H772 H 0.20685 0.1497 0.96237 0.0
H773 H 0.20702 0.12958 0.0661 0.0
H774 H 0.04825 0.14914 0.96066 0.0
H775 H 0.04856 0.12889 0.06438 0.0
H776 H 0.76572 0.11734 0.01649 0.0
H777 H 0.92442 0.11746 0.01612 0.0
H778 H 0.92148 0.15966 0.00608 0.0
H779 H 0.76372 0.15905 0.00385 0.0
C780 C 0.17303 0.14519 0.98497 0.0
C781 C 0.22001 0.13949 0.01384 0.0
C782 C 0.08176 0.14488 0.98411 0.0
C783 C 0.0346 0.1389 0.01223 0.0
C784 C 0.08194 0.13334 0.04148 0.0
C785 C 0.17315 0.13372 0.0425 0.0
C786 C 0.79889 0.12663 0.01404 0.0
C787 C 0.75108 0.13838 0.01124 0.0
C788 C 0.89027 0.12677 0.01426 0.0
C789 C 0.9368 0.13863 0.01148 0.0
C790 C 0.88876 0.15027 0.00802 0.0
C791 C 0.79759 0.15009 0.0077 0.0
H792 H 0.28939 0.11526 0.45194 0.0
H793 H 0.29541 0.15539 0.57953 0.0
H794 H 0.13027 0.11616 0.45251 0.0
H795 H 0.13849 0.15709 0.57799 0.0
H796 H 0.85032 0.15041 0.5925 0.0
H797 H 1.00797 0.14825 0.593 0.0
H798 H 1.00797 0.1278 0.43649 0.0
H799 H 0.84984 0.12973 0.43648 0.0
C800 C 0.25691 0.12434 0.47995 0.0
C801 C 0.30576 0.13546 0.51502 0.0
C802 C 0.1654 0.12498 0.47997 0.0
C803 C 0.12009 0.1368 0.51502 0.0
C804 C 0.1696 0.14773 0.55053 0.0
C805 C 0.2605 0.14695 0.55081 0.0
C806 C 0.88407 0.14555 0.55818 0.0
C807 C 0.83711 0.14018 0.51448 0.0
C808 C 0.975 0.14432 0.55836 0.0
C809 C 1.02222 0.13784 0.51474 0.0
C810 C 0.97483 0.13264 0.47096 0.0
C811 C 0.88379 0.13382 0.47087 0.0
H812 H 0.7585 0.86541 0.5303 0.0
H813 H 0.76265 0.90631 0.51237 0.0
H814 H 0.91645 0.86448 0.5281 0.0
H815 H 0.92161 0.90591 0.51272 0.0
H816 H 0.20199 0.89224 0.46055 0.0
H817 H 0.04379 0.89342 0.46354 0.0
H818 H 0.04492 0.87526 0.57278 0.0
H819 H 0.2038 0.87439 0.57022 0.0
C820 C 0.79303 0.87412 0.5253 0.0
C821 C 0.74714 0.88567 0.52017 0.0
C822 C 0.88419 0.87377 0.52502 0.0
C823 C 0.93283 0.88509 0.51997 0.0
C824 C 0.8869 0.89685 0.51584 0.0
C825 C 0.79547 0.89716 0.5161 0.0
C826 C 0.1686 0.88871 0.48576 0.0
C827 C 0.21601 0.88351 0.51585 0.0
C828 C 0.0775 0.88936 0.48744 0.0
C829 C 0.03061 0.88454 0.51866 0.0
C830 C 0.07818 0.87899 0.54798 0.0
C831 C 0.16952 0.87849 0.54658 0.0
H832 H 0.98143 0.55325 0.03837 0.0
H833 H 0.19894 0.53008 0.95039 0.0
H834 H 0.9398 0.53137 0.04974 0.0
H835 H 0.16281 0.50865 0.96619 0.0
H836 H 0.03618 0.46749 0.96725 0.0
H837 H 0.07366 0.48892 0.95065 0.0
H838 H 0.97171 0.51699 0.091 0.0
H839 H 0.92939 0.49548 0.10548 0.0
C840 C 1.0207 0.54352 0.02135 0.0
C841 C 0.09397 0.54358 0.99337 0.0
C842 C 0.99768 0.53095 0.02881 0.0
C843 C 0.0483 0.51812 0.00954 0.0
C844 C 0.12127 0.51817 0.98134 0.0
C845 C 0.14317 0.53064 0.97297 0.0
C846 C 1.02186 0.47829 0.99433 0.0
C847 C 0.97916 0.47986 0.03739 0.0
C848 C 0.04383 0.49063 0.98509 0.0
C849 C 1.02546 0.50486 0.01926 0.0
C850 C 0.98482 0.50632 0.063 0.0
C851 C 0.96112 0.49398 0.07165 0.0
H852 H 1.00506 0.48618 0.58689 0.0
H853 H 0.1677 0.4738 0.46006 0.0
H854 H 0.96617 0.50881 0.57818 0.0
H855 H 0.12603 0.49599 0.44958 0.0
H856 H 0.10064 0.54235 0.46284 0.0
H857 H 0.14306 0.52096 0.47749 0.0
H858 H 0.88796 0.51956 0.53566 0.0
H859 H 0.84872 0.54182 0.52573 0.0
C860 C 0.03171 0.48824 0.55679 0.0
C861 C 0.09006 0.47827 0.52442 0.0
C862 C 1.00912 0.50121 0.55155 0.0
C863 C 0.04308 0.50443 0.51323 0.0
C864 C 0.10014 0.49422 0.48034 0.0
C865 C 0.12377 0.4814 0.4861 0.0
C866 C 0.05398 0.53774 0.47981 0.0
C867 C 0.97071 0.54395 0.49279 0.0
C868 C 0.07791 0.52519 0.48738 0.0
C869 C 1.01884 0.51825 0.50726 0.0
C870 C 0.93599 0.52456 0.52073 0.0
C871 C 0.9127 0.53727 0.5141 0.0
H872 H 0.34329 0.97988 0.9984 0.0
H873 H 0.57882 0.98506 0.08198 0.0
H874 H 0.38026 1.00142 0.98283 0.0
H875 H 0.61574 1.00669 0.06657 0.0
H876 H 0.69982 0.03341 0.97861 0.0
H877 H 0.66209 0.01366 0.00342 0.0
H878 H 0.39358 0.02753 0.01854 0.0
H879 H 0.43106 0.04692 0.99111 0.0
C880 C 0.40249 0.98572 0.01401 0.0
C881 C 0.45776 0.98072 0.04165 0.0
C882 C 0.42363 0.99814 0.00518 0.0
C883 C 0.50071 1.00593 0.02372 0.0
C884 C 0.55623 1.00091 0.05127 0.0
C885 C 0.53511 0.98846 0.06005 0.0
C886 C 0.63267 0.03227 0.98731 0.0
C887 C 0.56827 0.04161 0.98206 0.0
C888 C 0.61111 0.02101 0.0021 0.0
C889 C 0.52452 0.01883 0.01253 0.0
C890 C 0.46068 0.02868 0.00985 0.0
C891 C 0.4823 0.03994 0.99479 0.0
H892 H 0.36433 0.047 0.54695 0.0
H893 H 0.56951 0.03733 0.44091 0.0
H894 H 0.40382 0.02553 0.5625 0.0
H895 H 0.6081 0.01562 0.45554 0.0
H896 H 0.7128 0.98671 0.52976 0.0
H897 H 0.67239 1.00767 0.51184 0.0
H898 H 0.40164 0.9998 0.53102 0.0
H899 H 0.44255 0.97952 0.55269 0.0
C900 C 0.41726 0.04017 0.52648 0.0
C901 C 0.46348 0.04388 0.49256 0.0
C902 C 0.43984 0.02779 0.53527 0.0
C903 C 0.50903 0.0187 0.51016 0.0
C904 C 0.55529 0.02243 0.47618 0.0
C905 C 0.53308 0.03489 0.46767 0.0
C906 C 0.64465 0.98953 0.53084 0.0
C907 C 0.58132 0.98143 0.54335 0.0
C908 C 0.62124 1.00147 0.51972 0.0
C909 C 0.53361 1.00557 0.52011 0.0
C910 C 0.46995 0.9972 0.5312 0.0
C911 C 0.49345 0.98536 0.54291 0.0
H912 H 0.18586 0.28817 0.96277 0.0
H913 H 0.42202 0.30151 0.04652 0.0
H914 H 0.18505 0.26556 0.97656 0.0
H915 H 0.42101 0.27901 0.06056 0.0
H916 H 0.43563 0.23265 0.05132 0.0
H917 H 0.43976 0.25293 0.02443 0.0
H918 H 0.1607 0.25718 0.03934 0.0
H919 H 0.15657 0.23665 0.06398 0.0
C920 C 0.23738 0.28634 0.98436 0.0
C921 C 0.30415 0.2967 0.00341 0.0
C922 C 0.23704 0.27333 0.99222 0.0
C923 C 0.30326 0.27035 0.01952 0.0
C924 C 0.37 0.28072 0.03845 0.0
C925 C 0.37043 0.29369 0.03051 0.0
C926 C 0.37512 0.23773 0.04777 0.0
C927 C 0.29589 0.23315 0.06043 0.0
C928 C 0.37748 0.24948 0.03297 0.0
C929 C 0.30065 0.25689 0.03033 0.0
C930 C 0.22119 0.25177 0.04062 0.0
C931 C 0.21887 0.24006 0.05529 0.0
H932 H 0.65825 0.79294 0.99005 0.0
H933 H 0.93908 0.79463 0.99641 0.0
H934 H 0.66052 0.7719 0.01139 0.0
H935 H 0.94148 0.77252 0.01163 0.0
H936 H 0.91904 0.74157 0.09026 0.0
H937 H 0.92229 0.76247 0.06701 0.0
H938 H 0.68372 0.74738 0.98607 0.0
H939 H 0.67861 0.72715 0.01265 0.0
C940 C 0.72076 0.78889 0.99578 0.0
C941 C 0.79852 0.79574 0.99136 0.0
C942 C 0.72211 0.77647 0.00699 0.0
C943 C 0.80129 0.77021 0.0129 0.0
C944 C 0.87893 0.77699 0.00814 0.0
C945 C 0.87753 0.78963 0.99828 0.0
C946 C 0.8683 0.74269 0.06688 0.0
C947 C 0.79886 0.73278 0.05297 0.0
C948 C 0.86994 0.75466 0.05331 0.0
C949 C 0.80274 0.75688 0.02481 0.0
C950 C 0.7355 0.74642 0.00908 0.0
C951 C 0.73308 0.73464 0.02353 0.0
H952 H 0.18107 0.73585 0.57065 0.0
H953 H 0.42218 0.7229 0.49172 0.0
H954 H 0.18102 0.7584 0.55657 0.0
H955 H 0.42182 0.74532 0.47719 0.0
H956 H 0.43521 0.79136 0.48413 0.0
H957 H 0.4384 0.77131 0.51212 0.0
H958 H 0.15986 0.76677 0.49401 0.0
H959 H 0.15656 0.78713 0.46865 0.0
C960 C 0.23385 0.73776 0.55003 0.0
C961 C 0.30176 0.72753 0.53244 0.0
C962 C 0.23394 0.75073 0.54198 0.0
C963 C 0.30169 0.7538 0.51588 0.0
C964 C 0.36956 0.74356 0.49839 0.0
C965 C 0.36961 0.73063 0.50658 0.0
C966 C 0.37458 0.78629 0.48729 0.0
C967 C 0.29579 0.79072 0.47348 0.0
C968 C 0.37642 0.77465 0.50269 0.0
C969 C 0.29951 0.7672 0.50468 0.0
C970 C 0.22042 0.77221 0.49331 0.0
C971 C 0.2186 0.78383 0.4782 0.0
H972 H 0.67278 0.30204 0.55896 0.0
H973 H 0.87108 0.28681 0.44881 0.0
H974 H 0.67878 0.27889 0.56869 0.0
H975 H 0.87482 0.26333 0.45667 0.0
H976 H 0.92107 0.22762 0.51223 0.0
H977 H 0.9171 0.25082 0.50347 0.0
H978 H 0.64202 0.25443 0.53511 0.0
H979 H 0.64792 0.23202 0.54891 0.0
C980 C 0.71695 0.29363 0.53636 0.0
C981 C 0.77112 0.29623 0.50299 0.0
C982 C 0.72015 0.28027 0.54168 0.0
C983 C 0.77679 0.26903 0.51323 0.0
C984 C 0.83125 0.27171 0.47987 0.0
C985 C 0.82894 0.28517 0.47512 0.0
C986 C 0.85991 0.23346 0.5183 0.0
C987 C 0.78515 0.22785 0.53189 0.0
C988 C 0.85725 0.24672 0.5123 0.0
C989 C 0.77928 0.25468 0.51866 0.0
C990 C 0.70389 0.24887 0.53088 0.0
C991 C 0.70694 0.23576 0.53788 0.0
H992 H 0.07232 0.36339 0.12448 0.0
H993 H 0.97051 0.40752 0.17588 0.0
H994 H 0.04635 0.36289 0.20389 0.0
H995 H 0.94827 0.40709 0.25601 0.0
H996 H 0.0599 0.40337 0.3996 0.0
H997 H 0.06653 0.40407 0.3195 0.0
H998 H 0.90381 0.36575 0.26235 0.0
H999 H 0.89177 0.36554 0.34335 0.0
C1000 C 0.04443 0.373 0.15256 0.0
C1001 C 1.02445 0.38557 0.1437 0.0
C1002 C 0.02929 0.37264 0.19797 0.0
C1003 C 0.99553 0.38495 0.23587 0.0
C1004 C 0.97474 0.39748 0.22725 0.0
C1005 C 0.98786 0.39772 0.18142 0.0
C1006 C 1.02488 0.3951 0.37021 0.0
C1007 C 0.97749 0.38407 0.37784 0.0
C1008 C 1.02862 0.39557 0.32437 0.0
C1009 C 0.9863 0.38491 0.28488 0.0
C1010 C 0.93789 0.37399 0.29228 0.0
C1011 C 0.93216 0.37375 0.33853 0.0
H1012 H 0.86043 0.6506 0.1757 0.0
H1013 H 0.11768 0.63203 0.14108 0.0
H1014 H 0.87206 0.64989 0.25658 0.0
H1015 H 0.12987 0.63166 0.22176 0.0
H1016 H 0.14811 0.65183 0.39029 0.0
H1017 H 0.1295 0.65291 0.311 0.0
H1018 H 0.89437 0.62749 0.28846 0.0
H1019 H 0.91383 0.6261 0.36792 0.0
C1020 C 0.91952 0.6465 0.18556 0.0
C1021 C 0.98816 0.64136 0.15227 0.0
C1022 C 0.92589 0.646 0.23152 0.0
C1023 C 1.00178 0.64068 0.24515 0.0
C1024 C 0.07078 0.63582 0.21211 0.0
C1025 C 0.06368 0.63601 0.16599 0.0
C1026 C 0.09231 0.64647 0.36855 0.0
C1027 C 0.03247 0.63884 0.38523 0.0
C1028 C 0.08186 0.64708 0.32316 0.0
C1029 C 1.01042 0.64033 0.29385 0.0
C1030 C 0.94968 0.63286 0.31065 0.0
C1031 C 0.96116 0.63198 0.35579 0.0
H1032 H 0.13282 0.62818 0.87319 0.0
H1033 H 0.87791 0.6472 0.88142 0.0
H1034 H 0.15587 0.62968 0.79413 0.0
H1035 H 0.90048 0.64855 0.80288 0.0
H1036 H 0.93594 0.63015 0.63636 0.0
H1037 H 0.91838 0.62947 0.71622 0.0
H1038 H 0.16755 0.65046 0.75989 0.0
H1039 H 0.185 0.65123 0.67946 0.0
C1040 C 0.08165 0.63255 0.8579 0.0
C1041 C 1.00354 0.63752 0.88327 0.0
C1042 C 0.09512 0.63355 0.81305 0.0
C1043 C 0.02997 0.63926 0.79249 0.0
C1044 C 0.95164 0.64405 0.81774 0.0
C1045 C 0.93882 0.64328 0.86271 0.0
C1046 C 0.98686 0.63468 0.66306 0.0
C1047 C 0.06169 0.64078 0.65182 0.0
C1048 C 0.97667 0.63433 0.70879 0.0
C1049 C 0.04172 0.63986 0.74418 0.0
C1050 C 0.11673 0.64601 0.7331 0.0
C1051 C 0.1263 0.64659 0.68738 0.0
H1052 H 0.14188 0.39772 0.66239 0.0
H1053 H 0.90491 0.37261 0.63896 0.0
H1054 H 0.16026 0.39587 0.74119 0.0
H1055 H 0.92258 0.37103 0.71752 0.0
H1056 H 0.93651 0.39073 0.88757 0.0
H1057 H 0.92261 0.39114 0.80696 0.0
H1058 H 0.18207 0.37367 0.77169 0.0
H1059 H 0.19546 0.37299 0.85246 0.0
C1060 C 0.09365 0.39191 0.6742 0.0
C1061 C 1.02195 0.38535 0.64465 0.0
C1062 C 0.10453 0.39074 0.71893 0.0
C1063 C 0.0429 0.38327 0.73519 0.0
C1064 C 0.97091 0.37686 0.70582 0.0
C1065 C 0.96098 0.37776 0.66085 0.0
C1066 C 0.99023 0.38684 0.8624 0.0
C1067 C 0.06686 0.38177 0.87601 0.0
C1068 C 0.98225 0.38707 0.81638 0.0
C1069 C 0.05147 0.38253 0.78335 0.0
C1070 C 0.12807 0.37733 0.79672 0.0
C1071 C 0.13536 0.37681 0.84257 0.0
H1072 H 0.6537 0.87393 0.14259 0.0
H1073 H 0.41649 0.89904 0.16494 0.0
H1074 H 0.63681 0.8728 0.22178 0.0
H1075 H 0.39897 0.89767 0.24451 0.0
H1076 H 0.36771 0.87438 0.35603 0.0
H1077 H 0.37824 0.8756 0.27592 0.0
H1078 H 0.63725 0.89327 0.31054 0.0
H1079 H 0.62631 0.89231 0.39042 0.0
C1080 C 0.59777 0.87918 0.16441 0.0
C1081 C 0.53643 0.88662 0.14772 0.0
C1082 C 0.58832 0.87855 0.20973 0.0
C1083 C 0.51655 0.88511 0.239 0.0
C1084 C 0.45457 0.89245 0.22232 0.0
C1085 C 0.46495 0.89333 0.17716 0.0
C1086 C 0.42685 0.87845 0.34625 0.0
C1087 C 0.4963 0.88323 0.37917 0.0
C1088 C 0.43255 0.87926 0.30078 0.0
C1089 C 0.50846 0.88456 0.28735 0.0
C1090 C 0.57815 0.88912 0.32008 0.0
C1091 C 0.5718 0.88859 0.36571 0.0
H1092 H 0.40432 0.15856 0.182 0.0
H1093 H 0.56382 0.11956 0.12616 0.0
H1094 H 0.40919 0.15777 0.26247 0.0
H1095 H 0.5651 0.11855 0.20588 0.0
H1096 H 0.46907 0.11505 0.34788 0.0
H1097 H 0.44935 0.11564 0.26776 0.0
H1098 H 0.54254 0.16014 0.32244 0.0
H1099 H 0.56555 0.15951 0.40181 0.0
C1100 C 0.44034 0.14984 0.18672 0.0
C1101 C 0.48517 0.1393 0.14767 0.0
C1102 C 0.44261 0.14936 0.23271 0.0
C1103 C 0.48746 0.13809 0.24016 0.0
C1104 C 0.52959 0.12729 0.20094 0.0
C1105 C 0.5291 0.12795 0.15533 0.0
C1106 C 0.48573 0.12495 0.3429 0.0
C1107 C 0.52014 0.13715 0.38131 0.0
C1108 C 0.4741 0.12528 0.29707 0.0
C1109 C 0.49436 0.13794 0.28914 0.0
C1110 C 0.5258 0.15029 0.32777 0.0
C1111 C 0.53931 0.14986 0.37319 0.0
H1112 H 0.63771 0.12867 0.86979 0.0
H1113 H 0.38217 0.14771 0.88109 0.0
H1114 H 0.65687 0.13001 0.7904 0.0
H1115 H 0.4011 0.14902 0.80217 0.0
H1116 H 0.43105 0.13056 0.6351 0.0
H1117 H 0.41485 0.1304 0.7158 0.0
H1118 H 0.66836 0.15008 0.75549 0.0
H1119 H 0.68453 0.15025 0.67431 0.0
C1120 C 0.58569 0.13307 0.85516 0.0
C1121 C 0.50862 0.13811 0.88147 0.0
C1122 C 0.59691 0.13397 0.8101 0.0
C1123 C 0.53056 0.13967 0.79029 0.0
C1124 C 0.45316 0.14453 0.81647 0.0
C1125 C 0.44245 0.14381 0.86165 0.0
C1126 C 0.48304 0.13495 0.6612 0.0
C1127 C 0.55879 0.14048 0.64868 0.0
C1128 C 0.47366 0.1349 0.70738 0.0
C1129 C 0.54044 0.14019 0.74182 0.0
C1130 C 0.61617 0.14584 0.72947 0.0
C1131 C 0.62501 0.14609 0.68333 0.0
H1132 H 0.62419 0.89953 0.66375 0.0
H1133 H 0.40062 0.87132 0.64108 0.0
H1134 H 0.64701 0.89857 0.7436 0.0
H1135 H 0.4231 0.87063 0.72072 0.0
H1136 H 0.68041 0.8714 0.85152 0.0
H1137 H 0.66653 0.8718 0.77034 0.0
H1138 H 0.42974 0.89676 0.8143 0.0
H1139 H 0.44358 0.89657 0.89522 0.0
C1140 C 0.58 0.89318 0.67579 0.0
C1141 C 0.51064 0.88551 0.64615 0.0
C1142 C 0.59347 0.89255 0.72116 0.0
C1143 C 0.53697 0.88445 0.73776 0.0
C1144 C 0.46751 0.87689 0.70841 0.0
C1145 C 0.4548 0.87732 0.66293 0.0
C1146 C 0.62519 0.87688 0.84367 0.0
C1147 C 0.56276 0.88388 0.87956 0.0
C1148 C 0.61779 0.87722 0.79755 0.0
C1149 C 0.5473 0.88437 0.78657 0.0
C1150 C 0.48463 0.89121 0.82216 0.0
C1151 C 0.49267 0.89108 0.86832 0.0
loop_
_geom_bond_atom_site_label_1
_geom_bond_atom_site_label_2
_geom_bond_distance
_geom_bond_site_symmetry_2
_ccdc_geom_bond_type
C0 C2 1.422 . S
C0 C4 1.415 . S
C0 N6 1.369 . S
C1 C2 1.421 . S
C1 C3 1.417 . S
C1 C13 1.422 . S
C2 C0 1.422 . S
C2 C1 1.421 . S
C2 N12 1.359 . S
C3 C1 1.417 . S
C3 C5 1.329 . S
C3 H22 0.930 . S
C4 C0 1.415 . S
C4 C5 1.437 . S
C4 C8 1.413 . S
C5 C3 1.329 . S
C5 C4 1.437 . S
C5 H27 0.929 . S
N6 C0 1.369 . S
N6 C7 1.338 . S
N6 Gd11 2.622 . S
C7 N6 1.338 . S
C7 C9 1.378 . S
C7 H19 0.929 . S
C8 C4 1.413 . S
C8 C9 1.348 . S
C8 H24 0.931 . S
C9 C7 1.378 . S
C9 C8 1.348 . S
C9 H25 0.930 . S
Gd10 N30 2.622 1_455 S
Gd10 N37 2.570 1_455 S
Gd10 O44 2.353 . S
Gd10 O45 2.468 1_556 S
Gd10 O46 2.427 . S
Gd10 O48 2.388 . S
Gd10 O49 2.386 1_455 S
Gd10 O53 2.307 1_556 S
Gd10 C63 2.805 . S
Gd11 N6 2.622 . S
Gd11 N12 2.570 . S
Gd11 O43 2.386 . S
Gd11 O47 2.307 1_554 S
Gd11 O50 2.353 1_455 S
Gd11 O51 2.468 . S
Gd11 O52 2.427 . S
Gd11 O54 2.388 . S
Gd11 C75 2.804 1_455 S
N12 C2 1.359 . S
N12 Gd11 2.570 . S
N12 C14 1.343 1_554 S
C13 C1 1.422 . S
C13 C15 1.321 1_554 S
C13 H21 0.921 1_554 S
C14 N12 1.343 1_556 S
C14 C15 1.390 . S
C14 H16 0.931 . S
C15 C13 1.321 1_556 S
C15 C14 1.390 . S
C15 H17 0.930 . S
H16 C14 0.931 . S
H17 C15 0.930 . S
H18 C41 0.931 . S
H19 C7 0.929 . S
H20 C42 0.930 . S
H21 C13 0.921 1_556 S
H22 C3 0.930 . S
H23 C32 0.929 1_455 S
H24 C8 0.931 . S
H25 C9 0.930 . S
H26 C64 0.930 . S
H27 C5 0.929 . S
H28 C33 0.931 . S
H29 C34 0.930 . S
N30 Gd10 2.622 1_655 S
N30 C31 1.369 . S
N30 C32 1.338 . S
C31 N30 1.369 . S
C31 C35 1.415 . S
C31 C38 1.422 . S
C32 H23 0.929 1_655 S
C32 N30 1.338 . S
C32 C34 1.378 . S
C33 H28 0.931 . S
C33 C34 1.348 . S
C33 C35 1.413 . S
C34 H29 0.930 . S
C34 C32 1.378 . S
C34 C33 1.348 . S
C35 C31 1.415 . S
C35 C33 1.413 . S
C35 C65 1.437 . S
H36 C65 0.929 . S
N37 Gd10 2.570 1_655 S
N37 C38 1.359 . S
N37 C41 1.343 1_556 S
C38 C31 1.422 . S
C38 N37 1.359 . S
C38 C40 1.421 . S
C39 C40 1.422 1_554 S
C39 C42 1.321 . S
C39 H66 0.931 . S
C40 C38 1.421 . S
C40 C39 1.422 1_556 S
C40 C64 1.417 . S
C41 H18 0.931 . S
C41 N37 1.343 1_554 S
C41 C42 1.390 . S
C42 H20 0.930 . S
C42 C39 1.321 . S
C42 C41 1.390 . S
O43 Gd11 2.386 . S
O43 C55 1.265 . S
O44 Gd10 2.353 . S
O44 C55 1.242 1_556 S
O45 Gd10 2.468 1_554 S
O45 C63 1.263 1_554 S
O46 Gd10 2.427 . S
O46 C63 1.252 . S
O47 Gd11 2.307 1_556 S
O47 C56 1.261 . S
O48 Gd10 2.388 . S
O48 C56 1.252 . S
O49 Gd10 2.386 1_655 S
O49 C67 1.265 1_556 S
O50 Gd11 2.353 1_655 S
O50 C67 1.242 . S
O51 Gd11 2.468 . S
O51 C75 1.263 1_455 S
O52 Gd11 2.427 . S
O52 C75 1.252 1_455 S
O53 Gd10 2.307 1_554 S
O53 C68 1.261 . S
O54 Gd11 2.388 . S
O54 C68 1.252 . S
C55 O43 1.265 . S
C55 O44 1.242 1_554 S
C56 O47 1.261 . S
C56 O48 1.252 . S
C57 C60 1.394 . S
C57 C62 1.371 1_556 S
C57 C63 1.500 . S
C58 C61 1.383 . S
C58 C62 1.395 1_556 S
C59 C60 1.396 . S
C59 C61 1.365 . S
C59 H76 0.929 . S
C60 C57 1.394 . S
C60 C59 1.396 . S
C60 H77 0.930 . S
C61 C58 1.383 . S
C61 C59 1.365 . S
C61 H78 0.931 . S
C62 C57 1.371 1_554 S
C62 C58 1.395 1_554 S
C62 H79 0.929 . S
C63 Gd10 2.805 . S
C63 O45 1.263 1_556 S
C63 O46 1.252 . S
C63 C57 1.500 . S
C64 H26 0.930 . S
C64 C40 1.417 . S
C64 C65 1.329 . S
C65 C35 1.437 . S
C65 H36 0.929 . S
C65 C64 1.329 . S
H66 C39 0.931 . S
C67 O49 1.265 1_554 S
C67 O50 1.242 . S
C68 O53 1.261 . S
C68 O54 1.252 . S
C69 C72 1.394 . S
C69 C74 1.370 . S
C69 C75 1.501 . S
C70 C73 1.383 . S
C70 C74 1.395 . S
C71 C72 1.396 . S
C71 C73 1.365 . S
C71 H80 0.929 . S
C72 C69 1.394 . S
C72 C71 1.396 . S
C72 H81 0.930 . S
C73 C70 1.383 . S
C73 C71 1.365 . S
C73 H82 0.931 . S
C74 C69 1.370 . S
C74 C70 1.395 . S
C74 H83 0.930 1_554 S
C75 Gd11 2.804 1_655 S
C75 O51 1.263 1_655 S
C75 O52 1.252 1_655 S
C75 C69 1.501 . S
H76 C59 0.929 . S
H77 C60 0.930 . S
H78 C61 0.931 . S
H79 C62 0.929 . S
H80 C71 0.929 . S
H81 C72 0.930 . S
H82 C73 0.931 . S
H83 C74 0.930 1_556 S
C84 C86 1.422 . S
C84 C88 1.415 . S
C84 N90 1.369 . S
C85 C86 1.421 . S
C85 C87 1.417 . S
C85 C97 1.422 . S
C86 C84 1.422 . S
C86 C85 1.421 . S
C86 N96 1.359 . S
C87 C85 1.417 . S
C87 C89 1.329 . S
C87 H106 0.930 . S
C88 C84 1.415 . S
C88 C89 1.437 . S
C88 C92 1.413 . S
C89 C87 1.329 . S
C89 C88 1.437 . S
C89 H111 0.929 . S
N90 C84 1.369 . S
N90 C91 1.338 . S
N90 Gd95 2.622 1_455 S
C91 N90 1.338 . S
C91 C93 1.378 . S
C91 H103 0.929 1_455 S
C92 C88 1.413 . S
C92 C93 1.348 . S
C92 H108 0.931 . S
C93 C91 1.378 . S
C93 C92 1.348 . S
C93 H109 0.930 . S
Gd94 N114 2.622 . S
Gd94 N121 2.570 . S
Gd94 O128 2.353 1_655 S
Gd94 O129 2.468 1_556 S
Gd94 O130 2.427 . S
Gd94 O132 2.388 . S
Gd94 O133 2.386 . S
Gd94 O137 2.307 1_556 S
Gd94 C147 2.804 1_655 S
Gd95 N90 2.622 1_655 S
Gd95 N96 2.570 1_655 S
Gd95 O127 2.386 1_655 S
Gd95 O131 2.307 1_554 S
Gd95 O134 2.353 . S
Gd95 O135 2.468 . S
Gd95 O136 2.427 . S
Gd95 O138 2.388 . S
Gd95 C159 2.805 . S
N96 C86 1.359 . S
N96 Gd95 2.570 1_455 S
N96 C98 1.343 1_554 S
C97 C85 1.422 . S
C97 C99 1.321 1_554 S
C97 H105 0.931 . S
C98 N96 1.343 1_556 S
C98 C99 1.390 . S
C98 H100 0.931 . S
C99 C97 1.321 1_556 S
C99 C98 1.390 . S
C99 H101 0.930 . S
H100 C98 0.931 . S
H101 C99 0.930 . S
H102 C125 0.931 . S
H103 C91 0.929 1_655 S
H104 C126 0.930 . S
H105 C97 0.931 . S
H106 C87 0.930 . S
H107 C116 0.929 . S
H108 C92 0.931 . S
H109 C93 0.930 . S
H110 C148 0.930 . S
H111 C89 0.929 . S
H112 C117 0.931 . S
H113 C118 0.930 . S
N114 Gd94 2.622 . S
N114 C115 1.369 . S
N114 C116 1.338 . S
C115 N114 1.369 . S
C115 C119 1.415 . S
C115 C122 1.422 . S
C116 H107 0.929 . S
C116 N114 1.338 . S
C116 C118 1.378 . S
C117 H112 0.931 . S
C117 C118 1.348 . S
C117 C119 1.413 . S
C118 H113 0.930 . S
C118 C116 1.378 . S
C118 C117 1.348 . S
C119 C115 1.415 . S
C119 C117 1.413 . S
C119 C149 1.437 . S
H120 C149 0.929 . S
N121 Gd94 2.570 . S
N121 C122 1.359 . S
N121 C125 1.343 1_556 S
C122 C115 1.422 . S
C122 N121 1.359 . S
C122 C124 1.421 . S
C123 C124 1.422 1_554 S
C123 C126 1.321 . S
C123 H150 0.931 . S
C124 C122 1.421 . S
C124 C123 1.422 1_556 S
C124 C148 1.417 . S
C125 H102 0.931 . S
C125 N121 1.343 1_554 S
C125 C126 1.390 . S
C126 H104 0.930 . S
C126 C123 1.321 . S
C126 C125 1.390 . S
O127 Gd95 2.386 1_455 S
O127 C139 1.265 . S
O128 Gd94 2.353 1_455 S
O128 C139 1.242 1_556 S
O129 Gd94 2.468 1_554 S
O129 C147 1.263 1_654 S
O130 Gd94 2.427 . S
O130 C147 1.252 1_655 S
O131 Gd95 2.307 1_556 S
O131 C140 1.261 . S
O132 Gd94 2.388 . S
O132 C140 1.252 . S
O133 Gd94 2.386 . S
O133 C151 1.265 1_556 S
O134 Gd95 2.353 . S
O134 C151 1.242 . S
O135 Gd95 2.468 . S
O135 C159 1.263 . S
O136 Gd95 2.427 . S
O136 C159 1.252 . S
O137 Gd94 2.307 1_554 S
O137 C152 1.261 . S
O138 Gd95 2.388 . S
O138 C152 1.252 . S
C139 O127 1.265 . S
C139 O128 1.242 1_554 S
C140 O131 1.261 . S
C140 O132 1.252 . S
C141 C144 1.394 . S
C141 C146 1.370 1_556 S
C141 C147 1.501 . S
C142 C145 1.392 . S
C142 C146 1.399 1_556 S
C143 C144 1.396 . S
C143 C145 1.365 . S
C143 H160 0.929 . S
C144 C141 1.394 . S
C144 C143 1.396 . S
C144 H161 0.930 . S
C145 C142 1.392 . S
C145 C143 1.365 . S
C145 H162 0.931 . S
C146 C141 1.370 1_554 S
C146 C142 1.399 1_554 S
C146 H163 0.930 . S
C147 Gd94 2.804 1_455 S
C147 O129 1.263 1_456 S
C147 O130 1.252 1_455 S
C147 C141 1.501 . S
C148 H110 0.930 . S
C148 C124 1.417 . S
C148 C149 1.329 . S
C149 C119 1.437 . S
C149 H120 0.929 . S
C149 C148 1.329 . S
H150 C123 0.931 . S
C151 O133 1.265 1_554 S
C151 O134 1.242 . S
C152 O137 1.261 . S
C152 O138 1.252 . S
C153 C156 1.394 . S
C153 C158 1.370 . S
C153 C159 1.500 . S
C154 C157 1.383 . S
C154 C158 1.395 . S
C155 C156 1.396 . S
C155 C157 1.365 . S
C155 H164 0.929 . S
C156 C153 1.394 . S
C156 C155 1.396 . S
C156 H165 0.930 . S
C157 C154 1.383 . S
C157 C155 1.365 . S
C157 H166 0.931 . S
C158 C153 1.370 . S
C158 C154 1.395 . S
C158 H167 0.930 1_554 S
C159 Gd95 2.805 . S
C159 O135 1.263 . S
C159 O136 1.252 . S
C159 C153 1.500 . S
H160 C143 0.929 . S
H161 C144 0.930 . S
H162 C145 0.931 . S
H163 C146 0.930 . S
H164 C155 0.929 . S
H165 C156 0.930 . S
H166 C157 0.931 . S
H167 C158 0.930 1_556 S
C168 C170 1.422 . S
C168 C172 1.415 . S
C168 N174 1.369 . S
C169 C170 1.421 . S
C169 C171 1.417 . S
C169 C181 1.422 . S
C170 C168 1.422 . S
C170 C169 1.421 . S
C170 N180 1.359 . S
C171 C169 1.417 . S
C171 C173 1.329 . S
C171 H190 0.930 . S
C172 C168 1.415 . S
C172 C173 1.437 . S
C172 C176 1.413 . S
C173 C171 1.329 . S
C173 C172 1.437 . S
C173 H195 0.929 . S
N174 C168 1.369 . S
N174 C175 1.338 . S
N174 Gd179 2.622 . S
C175 N174 1.338 . S
C175 C177 1.378 . S
C175 H187 0.929 . S
C176 C172 1.413 . S
C176 C177 1.348 . S
C176 H192 0.931 . S
C177 C175 1.378 . S
C177 C176 1.348 . S
C177 H193 0.930 . S
Gd178 N198 2.622 1_455 S
Gd178 N205 2.570 1_455 S
Gd178 O212 2.353 . S
Gd178 O213 2.468 . S
Gd178 O214 2.427 . S
Gd178 O216 2.388 . S
Gd178 O217 2.386 1_455 S
Gd178 O221 2.307 . S
Gd178 C231 2.805 . S
Gd179 N174 2.622 . S
Gd179 N180 2.570 . S
Gd179 O211 2.386 . S
Gd179 O215 2.307 . S
Gd179 O218 2.353 1_455 S
Gd179 O219 2.468 . S
Gd179 O220 2.427 . S
Gd179 O222 2.388 . S
Gd179 C243 2.804 1_455 S
N180 C170 1.359 . S
N180 Gd179 2.570 . S
N180 C182 1.343 . S
C181 C169 1.422 . S
C181 C183 1.321 . S
C181 H189 0.931 . S
C182 N180 1.343 . S
C182 C183 1.390 . S
C182 H184 0.931 . S
C183 C181 1.321 . S
C183 C182 1.390 . S
C183 H185 0.930 . S
H184 C182 0.931 . S
H185 C183 0.930 . S
H186 C209 0.931 . S
H187 C175 0.929 . S
H188 C210 0.930 . S
H189 C181 0.931 . S
H190 C171 0.930 . S
H191 C200 0.929 1_455 S
H192 C176 0.931 . S
H193 C177 0.930 . S
H194 C232 0.930 . S
H195 C173 0.929 . S
H196 C201 0.931 . S
H197 C202 0.930 . S
N198 Gd178 2.622 1_655 S
N198 C199 1.369 . S
N198 C200 1.338 . S
C199 N198 1.369 . S
C199 C203 1.415 . S
C199 C206 1.422 . S
C200 H191 0.929 1_655 S
C200 N198 1.338 . S
C200 C202 1.378 . S
C201 H196 0.931 . S
C201 C202 1.348 . S
C201 C203 1.413 . S
C202 H197 0.930 . S
C202 C200 1.378 . S
C202 C201 1.348 . S
C203 C199 1.415 . S
C203 C201 1.413 . S
C203 C233 1.437 . S
H204 C233 0.929 . S
N205 Gd178 2.570 1_655 S
N205 C206 1.359 . S
N205 C209 1.343 . S
C206 C199 1.422 . S
C206 N205 1.359 . S
C206 C208 1.421 . S
C207 C208 1.422 . S
C207 C210 1.321 . S
C207 H234 0.931 . S
C208 C206 1.421 . S
C208 C207 1.422 . S
C208 C232 1.417 . S
C209 H186 0.931 . S
C209 N205 1.343 . S
C209 C210 1.390 . S
C210 H188 0.930 . S
C210 C207 1.321 . S
C210 C209 1.390 . S
O211 Gd179 2.386 . S
O211 C223 1.265 . S
O212 Gd178 2.353 . S
O212 C223 1.242 . S
O213 Gd178 2.468 . S
O213 C231 1.263 . S
O214 Gd178 2.427 . S
O214 C231 1.252 . S
O215 Gd179 2.307 . S
O215 C224 1.261 . S
O216 Gd178 2.388 . S
O216 C224 1.252 . S
O217 Gd178 2.386 1_655 S
O217 C235 1.265 . S
O218 Gd179 2.353 1_655 S
O218 C235 1.242 . S
O219 Gd179 2.468 . S
O219 C243 1.263 1_455 S
O220 Gd179 2.427 . S
O220 C243 1.252 1_455 S
O221 Gd178 2.307 . S
O221 C236 1.261 . S
O222 Gd179 2.388 . S
O222 C236 1.252 . S
C223 O211 1.265 . S
C223 O212 1.242 . S
C224 O215 1.261 . S
C224 O216 1.252 . S
C225 C228 1.394 . S
C225 C230 1.370 . S
C225 C231 1.500 . S
C226 C229 1.383 . S
C226 C230 1.395 . S
C227 C228 1.396 . S
C227 C229 1.365 . S
C227 H244 0.929 . S
C228 C225 1.394 . S
C228 C227 1.396 . S
C228 H245 0.930 . S
C229 C226 1.383 . S
C229 C227 1.365 . S
C229 H246 0.931 . S
C230 C225 1.370 . S
C230 C226 1.395 . S
C230 H247 0.930 . S
C231 Gd178 2.805 . S
C231 O213 1.263 . S
C231 O214 1.252 . S
C231 C225 1.500 . S
C232 H194 0.930 . S
C232 C208 1.417 . S
C232 C233 1.329 . S
C233 C203 1.437 . S
C233 H204 0.929 . S
C233 C232 1.329 . S
H234 C207 0.931 . S
C235 O217 1.265 . S
C235 O218 1.242 . S
C236 O221 1.261 . S
C236 O222 1.252 . S
C237 C240 1.394 . S
C237 C242 1.370 . S
C237 C243 1.501 . S
C238 C241 1.383 . S
C238 C242 1.395 . S
C239 C240 1.396 . S
C239 C241 1.365 . S
C239 H248 0.929 . S
C240 C237 1.394 . S
C240 C239 1.396 . S
C240 H249 0.930 . S
C241 C238 1.383 . S
C241 C239 1.365 . S
C241 H250 0.931 . S
C242 C237 1.370 . S
C242 C238 1.395 . S
C242 H251 0.930 . S
C243 Gd179 2.804 1_655 S
C243 O219 1.263 1_655 S
C243 O220 1.252 1_655 S
C243 C237 1.501 . S
H244 C227 0.929 . S
H245 C228 0.930 . S
H246 C229 0.931 . S
H247 C230 0.930 . S
H248 C239 0.929 . S
H249 C240 0.930 . S
H250 C241 0.931 . S
H251 C242 0.930 . S
C252 C254 1.422 . S
C252 C256 1.415 . S
C252 N258 1.369 . S
C253 C254 1.421 . S
C253 C255 1.417 . S
C253 C265 1.422 . S
C254 C252 1.422 . S
C254 C253 1.421 . S
C254 N264 1.359 . S
C255 C253 1.417 . S
C255 C257 1.329 . S
C255 H274 0.930 . S
C256 C252 1.415 . S
C256 C257 1.437 . S
C256 C260 1.413 . S
C257 C255 1.329 . S
C257 C256 1.437 . S
C257 H279 0.929 . S
N258 C252 1.369 . S
N258 C259 1.338 . S
N258 Gd263 2.622 1_455 S
C259 N258 1.338 . S
C259 C261 1.378 . S
C259 H271 0.929 1_455 S
C260 C256 1.413 . S
C260 C261 1.348 . S
C260 H276 0.931 . S
C261 C259 1.378 . S
C261 C260 1.348 . S
C261 H277 0.930 . S
Gd262 N282 2.622 . S
Gd262 N289 2.570 . S
Gd262 O296 2.353 1_655 S
Gd262 O297 2.468 . S
Gd262 O298 2.427 . S
Gd262 O300 2.388 . S
Gd262 O301 2.386 . S
Gd262 O305 2.307 . S
Gd262 C315 2.804 1_655 S
Gd263 N258 2.622 1_655 S
Gd263 N264 2.570 1_655 S
Gd263 O295 2.386 1_655 S
Gd263 O299 2.307 . S
Gd263 O302 2.353 . S
Gd263 O303 2.468 . S
Gd263 O304 2.427 . S
Gd263 O306 2.388 . S
Gd263 C327 2.805 . S
N264 C254 1.359 . S
N264 Gd263 2.570 1_455 S
N264 C266 1.343 . S
C265 C253 1.422 . S
C265 C267 1.321 . S
C265 H273 0.931 . S
C266 N264 1.343 . S
C266 C267 1.390 . S
C266 H268 0.931 . S
C267 C265 1.321 . S
C267 C266 1.390 . S
C267 H269 0.930 . S
H268 C266 0.931 . S
H269 C267 0.930 . S
H270 C293 0.931 . S
H271 C259 0.929 1_655 S
H272 C294 0.930 . S
H273 C265 0.931 . S
H274 C255 0.930 . S
H275 C284 0.929 . S
H276 C260 0.931 . S
H277 C261 0.930 . S
H278 C316 0.930 . S
H279 C257 0.929 . S
H280 C285 0.931 . S
H281 C286 0.930 . S
N282 Gd262 2.622 . S
N282 C283 1.369 . S
N282 C284 1.338 . S
C283 N282 1.369 . S
C283 C287 1.415 . S
C283 C290 1.422 . S
C284 H275 0.929 . S
C284 N282 1.338 . S
C284 C286 1.378 . S
C285 H280 0.931 . S
C285 C286 1.348 . S
C285 C287 1.413 . S
C286 H281 0.930 . S
C286 C284 1.378 . S
C286 C285 1.348 . S
C287 C283 1.415 . S
C287 C285 1.413 . S
C287 C317 1.437 . S
H288 C317 0.929 . S
N289 Gd262 2.570 . S
N289 C290 1.359 . S
N289 C293 1.343 . S
C290 C283 1.422 . S
C290 N289 1.359 . S
C290 C292 1.421 . S
C291 C292 1.422 . S
C291 C294 1.321 . S
C291 H318 0.931 . S
C292 C290 1.421 . S
C292 C291 1.422 . S
C292 C316 1.417 . S
C293 H270 0.931 . S
C293 N289 1.343 . S
C293 C294 1.390 . S
C294 H272 0.930 . S
C294 C291 1.321 . S
C294 C293 1.390 . S
O295 Gd263 2.386 1_455 S
O295 C307 1.265 . S
O296 Gd262 2.353 1_455 S
O296 C307 1.242 . S
O297 Gd262 2.468 . S
O297 C315 1.263 1_655 S
O298 Gd262 2.427 . S
O298 C315 1.252 1_655 S
O299 Gd263 2.307 . S
O299 C308 1.261 . S
O300 Gd262 2.388 . S
O300 C308 1.252 . S
O301 Gd262 2.386 . S
O301 C319 1.265 . S
O302 Gd263 2.353 . S
O302 C319 1.242 . S
O303 Gd263 2.468 . S
O303 C327 1.263 . S
O304 Gd263 2.427 . S
O304 C327 1.252 . S
O305 Gd262 2.307 . S
O305 C320 1.261 . S
O306 Gd263 2.388 . S
O306 C320 1.252 . S
C307 O295 1.265 . S
C307 O296 1.242 . S
C308 O299 1.261 . S
C308 O300 1.252 . S
C309 C312 1.394 . S
C309 C314 1.370 . S
C309 C315 1.501 . S
C310 C313 1.383 . S
C310 C314 1.395 . S
C311 C312 1.396 . S
C311 C313 1.365 . S
C311 H328 0.929 . S
C312 C309 1.394 . S
C312 C311 1.396 . S
C312 H329 0.930 . S
C313 C310 1.383 . S
C313 C311 1.365 . S
C313 H330 0.931 . S
C314 C309 1.370 . S
C314 C310 1.395 . S
C314 H331 0.930 . S
C315 Gd262 2.804 1_455 S
C315 O297 1.263 1_455 S
C315 O298 1.252 1_455 S
C315 C309 1.501 . S
C316 H278 0.930 . S
C316 C292 1.417 . S
C316 C317 1.329 . S
C317 C287 1.437 . S
C317 H288 0.929 . S
C317 C316 1.329 . S
H318 C291 0.931 . S
C319 O301 1.265 . S
C319 O302 1.242 . S
C320 O305 1.261 . S
C320 O306 1.252 . S
C321 C324 1.394 . S
C321 C326 1.370 . S
C321 C327 1.500 . S
C322 C325 1.383 . S
C322 C326 1.395 . S
C323 C324 1.396 . S
C323 C325 1.365 . S
C323 H332 0.929 . S
C324 C321 1.394 . S
C324 C323 1.396 . S
C324 H333 0.930 . S
C325 C322 1.383 . S
C325 C323 1.365 . S
C325 H334 0.931 . S
C326 C321 1.370 . S
C326 C322 1.395 . S
C326 H335 0.930 . S
C327 Gd263 2.805 . S
C327 O303 1.263 . S
C327 O304 1.252 . S
C327 C321 1.500 . S
H328 C311 0.929 . S
H329 C312 0.930 . S
H330 C313 0.931 . S
H331 C314 0.930 . S
H332 C323 0.929 . S
H333 C324 0.930 . S
H334 C325 0.931 . S
H335 C326 0.930 . S
C336 C338 1.422 . S
C336 C340 1.415 . S
C336 N342 1.369 . S
C337 C338 1.421 . S
C337 C339 1.417 . S
C337 C349 1.422 . S
C338 C336 1.422 . S
C338 C337 1.421 . S
C338 N348 1.359 . S
C339 C337 1.417 . S
C339 C341 1.329 . S
C339 H358 0.930 . S
C340 C336 1.415 . S
C340 C341 1.437 . S
C340 C344 1.413 . S
C341 C339 1.329 . S
C341 C340 1.437 . S
C341 H363 0.929 . S
N342 C336 1.369 . S
N342 C343 1.338 . S
N342 Gd347 2.622 . S
C343 N342 1.338 . S
C343 C345 1.378 . S
C343 H355 0.929 . S
C344 C340 1.413 . S
C344 C345 1.348 . S
C344 H360 0.931 . S
C345 C343 1.378 . S
C345 C344 1.348 . S
C345 H361 0.930 . S
Gd346 N366 2.622 . S
Gd346 N373 2.570 . S
Gd346 O380 2.353 . S
Gd346 O381 2.468 1_556 S
Gd346 O382 2.427 . S
Gd346 O384 2.388 . S
Gd346 O385 2.386 . S
Gd346 O389 2.307 1_556 S
Gd346 C399 2.805 . S
Gd347 N342 2.622 . S
Gd347 N348 2.570 . S
Gd347 O379 2.386 . S
Gd347 O383 2.307 1_554 S
Gd347 O386 2.353 . S
Gd347 O387 2.468 . S
Gd347 O388 2.427 . S
Gd347 O390 2.388 . S
Gd347 C411 2.805 . S
N348 C338 1.359 . S
N348 Gd347 2.570 . S
N348 C350 1.343 1_554 S
C349 C337 1.422 . S
C349 C351 1.321 1_554 S
C349 H357 0.921 1_554 S
C350 N348 1.343 1_556 S
C350 C351 1.390 . S
C350 H352 0.931 . S
C351 C349 1.321 1_556 S
C351 C350 1.390 . S
C351 H353 0.930 . S
H352 C350 0.931 . S
H353 C351 0.930 . S
H354 C377 0.931 . S
H355 C343 0.929 . S
H356 C378 0.930 . S
H357 C349 0.921 1_556 S
H358 C339 0.930 . S
H359 C368 0.929 . S
H360 C344 0.931 . S
H361 C345 0.930 . S
H362 C400 0.930 . S
H363 C341 0.929 . S
H364 C369 0.931 . S
H365 C370 0.930 . S
N366 Gd346 2.622 . S
N366 C367 1.369 . S
N366 C368 1.338 . S
C367 N366 1.369 . S
C367 C371 1.415 . S
C367 C374 1.422 . S
C368 H359 0.929 . S
C368 N366 1.338 . S
C368 C370 1.378 . S
C369 H364 0.931 . S
C369 C370 1.348 . S
C369 C371 1.413 . S
C370 H365 0.930 . S
C370 C368 1.378 . S
C370 C369 1.348 . S
C371 C367 1.415 . S
C371 C369 1.413 . S
C371 C401 1.437 . S
H372 C401 0.929 . S
N373 Gd346 2.570 . S
N373 C374 1.359 . S
N373 C377 1.343 1_556 S
C374 C367 1.422 . S
C374 N373 1.359 . S
C374 C376 1.421 . S
C375 C376 1.422 1_554 S
C375 C378 1.321 . S
C375 H402 0.931 . S
C376 C374 1.421 . S
C376 C375 1.422 1_556 S
C376 C400 1.417 . S
C377 H354 0.931 . S
C377 N373 1.343 1_554 S
C377 C378 1.390 . S
C378 H356 0.930 . S
C378 C375 1.321 . S
C378 C377 1.390 . S
O379 Gd347 2.386 . S
O379 C391 1.265 . S
O380 Gd346 2.353 . S
O380 C391 1.242 1_556 S
O381 Gd346 2.468 1_554 S
O381 C399 1.263 1_554 S
O382 Gd346 2.427 . S
O382 C399 1.252 . S
O383 Gd347 2.307 1_556 S
O383 C392 1.261 . S
O384 Gd346 2.388 . S
O384 C392 1.252 . S
O385 Gd346 2.386 . S
O385 C403 1.265 1_556 S
O386 Gd347 2.353 . S
O386 C403 1.242 . S
O387 Gd347 2.468 . S
O387 C411 1.263 . S
O388 Gd347 2.427 . S
O388 C411 1.252 . S
O389 Gd346 2.307 1_554 S
O389 C404 1.261 . S
O390 Gd347 2.388 . S
O390 C404 1.252 . S
C391 O379 1.265 . S
C391 O380 1.242 1_554 S
C392 O383 1.261 . S
C392 O384 1.252 . S
C393 C396 1.394 . S
C393 C398 1.372 1_556 S
C393 C399 1.500 . S
C394 C397 1.383 . S
C394 C398 1.395 1_556 S
C395 C396 1.396 . S
C395 C397 1.365 . S
C395 H412 0.929 . S
C396 C393 1.394 . S
C396 C395 1.396 . S
C396 H413 0.930 . S
C397 C394 1.383 . S
C397 C395 1.365 . S
C397 H414 0.931 . S
C398 C393 1.372 1_554 S
C398 C394 1.395 1_554 S
C398 H415 0.929 . S
C399 Gd346 2.805 . S
C399 O381 1.263 1_556 S
C399 O382 1.252 . S
C399 C393 1.500 . S
C400 H362 0.930 . S
C400 C376 1.417 . S
C400 C401 1.329 . S
C401 C371 1.437 . S
C401 H372 0.929 . S
C401 C400 1.329 . S
H402 C375 0.931 . S
C403 O385 1.265 1_554 S
C403 O386 1.242 . S
C404 O389 1.261 . S
C404 O390 1.252 . S
C405 C408 1.394 . S
C405 C410 1.370 . S
C405 C411 1.500 . S
C406 C409 1.383 . S
C406 C410 1.395 . S
C407 C408 1.396 . S
C407 C409 1.365 . S
C407 H416 0.929 . S
C408 C405 1.394 . S
C408 C407 1.396 . S
C408 H417 0.930 . S
C409 C406 1.383 . S
C409 C407 1.365 . S
C409 H418 0.931 . S
C410 C405 1.370 . S
C410 C406 1.395 . S
C410 H419 0.930 1_554 S
C411 Gd347 2.805 . S
C411 O387 1.263 . S
C411 O388 1.252 . S
C411 C405 1.500 . S
H412 C395 0.929 . S
H413 C396 0.930 . S
H414 C397 0.931 . S
H415 C398 0.929 . S
H416 C407 0.929 . S
H417 C408 0.930 . S
H418 C409 0.931 . S
H419 C410 0.930 1_556 S
C420 C422 1.422 . S
C420 C424 1.415 . S
C420 N426 1.369 . S
C421 C422 1.421 . S
C421 C423 1.417 . S
C421 C433 1.422 . S
C422 C420 1.422 . S
C422 C421 1.421 . S
C422 N432 1.359 . S
C423 C421 1.417 . S
C423 C425 1.329 . S
C423 H442 0.930 . S
C424 C420 1.415 . S
C424 C425 1.437 . S
C424 C428 1.413 . S
C425 C423 1.329 . S
C425 C424 1.437 . S
C425 H447 0.929 . S
N426 C420 1.369 . S
N426 C427 1.338 . S
N426 Gd431 2.622 . S
C427 N426 1.338 . S
C427 C429 1.378 . S
C427 H439 0.929 . S
C428 C424 1.413 . S
C428 C429 1.348 . S
C428 H444 0.931 . S
C429 C427 1.378 . S
C429 C428 1.348 . S
C429 H445 0.930 . S
Gd430 N450 2.622 . S
Gd430 N457 2.570 . S
Gd430 O464 2.353 . S
Gd430 O465 2.468 1_556 S
Gd430 O466 2.427 . S
Gd430 O468 2.388 . S
Gd430 O469 2.386 . S
Gd430 O473 2.307 1_556 S
Gd430 C483 2.805 . S
Gd431 N426 2.622 . S
Gd431 N432 2.570 . S
Gd431 O463 2.386 . S
Gd431 O467 2.307 1_554 S
Gd431 O470 2.353 . S
Gd431 O471 2.468 . S
Gd431 O472 2.427 . S
Gd431 O474 2.388 . S
Gd431 C495 2.805 . S
N432 C422 1.359 . S
N432 Gd431 2.570 . S
N432 C434 1.343 1_554 S
C433 C421 1.422 . S
C433 C435 1.321 1_554 S
C433 H441 0.931 . S
C434 N432 1.343 1_556 S
C434 C435 1.390 . S
C434 H436 0.931 . S
C435 C433 1.321 1_556 S
C435 C434 1.390 . S
C435 H437 0.930 . S
H436 C434 0.931 . S
H437 C435 0.930 . S
H438 C461 0.931 . S
H439 C427 0.929 . S
H440 C462 0.930 . S
H441 C433 0.931 . S
H442 C423 0.930 . S
H443 C452 0.929 . S
H444 C428 0.931 . S
H445 C429 0.930 . S
H446 C484 0.930 . S
H447 C425 0.929 . S
H448 C453 0.931 . S
H449 C454 0.930 . S
N450 Gd430 2.622 . S
N450 C451 1.369 . S
N450 C452 1.338 . S
C451 N450 1.369 . S
C451 C455 1.415 . S
C451 C458 1.422 . S
C452 H443 0.929 . S
C452 N450 1.338 . S
C452 C454 1.378 . S
C453 H448 0.931 . S
C453 C454 1.348 . S
C453 C455 1.413 . S
C454 H449 0.930 . S
C454 C452 1.378 . S
C454 C453 1.348 . S
C455 C451 1.415 . S
C455 C453 1.413 . S
C455 C485 1.437 . S
H456 C485 0.929 . S
N457 Gd430 2.570 . S
N457 C458 1.359 . S
N457 C461 1.343 1_556 S
C458 C451 1.422 . S
C458 N457 1.359 . S
C458 C460 1.421 . S
C459 C460 1.422 1_554 S
C459 C462 1.321 . S
C459 H486 0.931 . S
C460 C458 1.421 . S
C460 C459 1.422 1_556 S
C460 C484 1.417 . S
C461 H438 0.931 . S
C461 N457 1.343 1_554 S
C461 C462 1.390 . S
C462 H440 0.930 . S
C462 C459 1.321 . S
C462 C461 1.390 . S
O463 Gd431 2.386 . S
O463 C475 1.265 . S
O464 Gd430 2.353 . S
O464 C475 1.242 1_556 S
O465 Gd430 2.468 1_554 S
O465 C483 1.263 1_554 S
O466 Gd430 2.427 . S
O466 C483 1.252 . S
O467 Gd431 2.307 1_556 S
O467 C476 1.261 . S
O468 Gd430 2.388 . S
O468 C476 1.252 . S
O469 Gd430 2.386 . S
O469 C487 1.265 1_556 S
O470 Gd431 2.353 . S
O470 C487 1.242 . S
O471 Gd431 2.468 . S
O471 C495 1.263 . S
O472 Gd431 2.427 . S
O472 C495 1.252 . S
O473 Gd430 2.307 1_554 S
O473 C488 1.261 . S
O474 Gd431 2.388 . S
O474 C488 1.252 . S
C475 O463 1.265 . S
C475 O464 1.242 1_554 S
C476 O467 1.261 . S
C476 O468 1.252 . S
C477 C480 1.394 . S
C477 C482 1.370 1_556 S
C477 C483 1.500 . S
C478 C481 1.392 . S
C478 C482 1.399 1_556 S
C479 C480 1.396 . S
C479 C481 1.365 . S
C479 H496 0.929 . S
C480 C477 1.394 . S
C480 C479 1.396 . S
C480 H497 0.930 . S
C481 C478 1.392 . S
C481 C479 1.365 . S
C481 H498 0.931 . S
C482 C477 1.370 1_554 S
C482 C478 1.399 1_554 S
C482 H499 0.930 . S
C483 Gd430 2.805 . S
C483 O465 1.263 1_556 S
C483 O466 1.252 . S
C483 C477 1.500 . S
C484 H446 0.930 . S
C484 C460 1.417 . S
C484 C485 1.329 . S
C485 C455 1.437 . S
C485 H456 0.929 . S
C485 C484 1.329 . S
H486 C459 0.931 . S
C487 O469 1.265 1_554 S
C487 O470 1.242 . S
C488 O473 1.261 . S
C488 O474 1.252 . S
C489 C492 1.394 . S
C489 C494 1.370 . S
C489 C495 1.500 . S
C490 C493 1.383 . S
C490 C494 1.395 . S
C491 C492 1.396 . S
C491 C493 1.365 . S
C491 H500 0.929 . S
C492 C489 1.394 . S
C492 C491 1.396 . S
C492 H501 0.930 . S
C493 C490 1.383 . S
C493 C491 1.365 . S
C493 H502 0.931 . S
C494 C489 1.370 . S
C494 C490 1.395 . S
C494 H503 0.930 1_554 S
C495 Gd431 2.805 . S
C495 O471 1.263 . S
C495 O472 1.252 . S
C495 C489 1.500 . S
H496 C479 0.929 . S
H497 C480 0.930 . S
H498 C481 0.931 . S
H499 C482 0.930 . S
H500 C491 0.929 . S
H501 C492 0.930 . S
H502 C493 0.931 . S
H503 C494 0.930 1_556 S
C504 C506 1.422 . S
C504 C508 1.415 . S
C504 N510 1.369 . S
C505 C506 1.421 . S
C505 C507 1.417 . S
C505 C517 1.422 . S
C506 C504 1.422 . S
C506 C505 1.421 . S
C506 N516 1.359 . S
C507 C505 1.417 . S
C507 C509 1.329 . S
C507 H526 0.930 . S
C508 C504 1.415 . S
C508 C509 1.437 . S
C508 C512 1.413 . S
C509 C507 1.329 . S
C509 C508 1.437 . S
C509 H531 0.929 . S
N510 C504 1.369 . S
N510 C511 1.338 . S
N510 Gd515 2.622 . S
C511 N510 1.338 . S
C511 C513 1.378 . S
C511 H523 0.929 . S
C512 C508 1.413 . S
C512 C513 1.348 . S
C512 H528 0.931 . S
C513 C511 1.378 . S
C513 C512 1.348 . S
C513 H529 0.930 . S
Gd514 N534 2.622 . S
Gd514 N541 2.570 . S
Gd514 O548 2.353 . S
Gd514 O549 2.468 . S
Gd514 O550 2.427 . S
Gd514 O552 2.388 . S
Gd514 O553 2.386 . S
Gd514 O557 2.307 . S
Gd514 C567 2.805 . S
Gd515 N510 2.622 . S
Gd515 N516 2.570 . S
Gd515 O547 2.386 . S
Gd515 O551 2.307 . S
Gd515 O554 2.353 . S
Gd515 O555 2.468 . S
Gd515 O556 2.427 . S
Gd515 O558 2.388 . S
Gd515 C579 2.805 . S
N516 C506 1.359 . S
N516 Gd515 2.570 . S
N516 C518 1.343 . S
C517 C505 1.422 . S
C517 C519 1.321 . S
C517 H525 0.931 . S
C518 N516 1.343 . S
C518 C519 1.390 . S
C518 H520 0.931 . S
C519 C517 1.321 . S
C519 C518 1.390 . S
C519 H521 0.930 . S
H520 C518 0.931 . S
H521 C519 0.930 . S
H522 C545 0.931 . S
H523 C511 0.929 . S
H524 C546 0.930 . S
H525 C517 0.931 . S
H526 C507 0.930 . S
H527 C536 0.929 . S
H528 C512 0.931 . S
H529 C513 0.930 . S
H530 C568 0.930 . S
H531 C509 0.929 . S
H532 C537 0.931 . S
H533 C538 0.930 . S
N534 Gd514 2.622 . S
N534 C535 1.369 . S
N534 C536 1.338 . S
C535 N534 1.369 . S
C535 C539 1.415 . S
C535 C542 1.422 . S
C536 H527 0.929 . S
C536 N534 1.338 . S
C536 C538 1.378 . S
C537 H532 0.931 . S
C537 C538 1.348 . S
C537 C539 1.413 . S
C538 H533 0.930 . S
C538 C536 1.378 . S
C538 C537 1.348 . S
C539 C535 1.415 . S
C539 C537 1.413 . S
C539 C569 1.437 . S
H540 C569 0.929 . S
N541 Gd514 2.570 . S
N541 C542 1.359 . S
N541 C545 1.343 . S
C542 C535 1.422 . S
C542 N541 1.359 . S
C542 C544 1.421 . S
C543 C544 1.422 . S
C543 C546 1.321 . S
C543 H570 0.931 . S
C544 C542 1.421 . S
C544 C543 1.422 . S
C544 C568 1.417 . S
C545 H522 0.931 . S
C545 N541 1.343 . S
C545 C546 1.390 . S
C546 H524 0.930 . S
C546 C543 1.321 . S
C546 C545 1.390 . S
O547 Gd515 2.386 . S
O547 C559 1.265 . S
O548 Gd514 2.353 . S
O548 C559 1.242 . S
O549 Gd514 2.468 . S
O549 C567 1.263 . S
O550 Gd514 2.427 . S
O550 C567 1.252 . S
O551 Gd515 2.307 . S
O551 C560 1.261 . S
O552 Gd514 2.388 . S
O552 C560 1.252 . S
O553 Gd514 2.386 . S
O553 C571 1.265 . S
O554 Gd515 2.353 . S
O554 C571 1.242 . S
O555 Gd515 2.468 . S
O555 C579 1.263 . S
O556 Gd515 2.427 . S
O556 C579 1.252 . S
O557 Gd514 2.307 . S
O557 C572 1.261 . S
O558 Gd515 2.388 . S
O558 C572 1.252 . S
C559 O547 1.265 . S
C559 O548 1.242 . S
C560 O551 1.261 . S
C560 O552 1.252 . S
C561 C564 1.394 . S
C561 C566 1.370 . S
C561 C567 1.500 . S
C562 C565 1.383 . S
C562 C566 1.395 . S
C563 C564 1.396 . S
C563 C565 1.365 . S
C563 H580 0.929 . S
C564 C561 1.394 . S
C564 C563 1.396 . S
C564 H581 0.930 . S
C565 C562 1.383 . S
C565 C563 1.365 . S
C565 H582 0.931 . S
C566 C561 1.370 . S
C566 C562 1.395 . S
C566 H583 0.930 . S
C567 Gd514 2.805 . S
C567 O549 1.263 . S
C567 O550 1.252 . S
C567 C561 1.500 . S
C568 H530 0.930 . S
C568 C544 1.417 . S
C568 C569 1.329 . S
C569 C539 1.437 . S
C569 H540 0.929 . S
C569 C568 1.329 . S
H570 C543 0.931 . S
C571 O553 1.265 . S
C571 O554 1.242 . S
C572 O557 1.261 . S
C572 O558 1.252 . S
C573 C576 1.394 . S
C573 C578 1.370 . S
C573 C579 1.500 . S
C574 C577 1.383 . S
C574 C578 1.395 . S
C575 C576 1.396 . S
C575 C577 1.365 . S
C575 H584 0.929 . S
C576 C573 1.394 . S
C576 C575 1.396 . S
C576 H585 0.930 . S
C577 C574 1.383 . S
C577 C575 1.365 . S
C577 H586 0.931 . S
C578 C573 1.370 . S
C578 C574 1.395 . S
C578 H587 0.930 . S
C579 Gd515 2.805 . S
C579 O555 1.263 . S
C579 O556 1.252 . S
C579 C573 1.500 . S
H580 C563 0.929 . S
H581 C564 0.930 . S
H582 C565 0.931 . S
H583 C566 0.930 . S
H584 C575 0.929 . S
H585 C576 0.930 . S
H586 C577 0.931 . S
H587 C578 0.930 . S
C588 C590 1.422 . S
C588 C592 1.415 . S
C588 N594 1.369 . S
C589 C590 1.421 . S
C589 C591 1.417 . S
C589 C601 1.422 . S
C590 C588 1.422 . S
C590 C589 1.421 . S
C590 N600 1.359 . S
C591 C589 1.417 . S
C591 C593 1.329 . S
C591 H610 0.930 . S
C592 C588 1.415 . S
C592 C593 1.437 . S
C592 C596 1.413 . S
C593 C591 1.329 . S
C593 C592 1.437 . S
C593 H615 0.929 . S
N594 C588 1.369 . S
N594 C595 1.338 . S
N594 Gd599 2.622 . S
C595 N594 1.338 . S
C595 C597 1.378 . S
C595 H607 0.929 . S
C596 C592 1.413 . S
C596 C597 1.348 . S
C596 H612 0.931 . S
C597 C595 1.378 . S
C597 C596 1.348 . S
C597 H613 0.930 . S
Gd598 N618 2.622 . S
Gd598 N625 2.570 . S
Gd598 O632 2.353 . S
Gd598 O633 2.468 . S
Gd598 O634 2.427 . S
Gd598 O636 2.388 . S
Gd598 O637 2.386 . S
Gd598 O641 2.307 . S
Gd598 C651 2.805 . S
Gd599 N594 2.622 . S
Gd599 N600 2.570 . S
Gd599 O631 2.386 . S
Gd599 O635 2.307 . S
Gd599 O638 2.353 . S
Gd599 O639 2.468 . S
Gd599 O640 2.427 . S
Gd599 O642 2.388 . S
Gd599 C663 2.805 . S
N600 C590 1.359 . S
N600 Gd599 2.570 . S
N600 C602 1.343 . S
C601 C589 1.422 . S
C601 C603 1.321 . S
C601 H609 0.931 . S
C602 N600 1.343 . S
C602 C603 1.390 . S
C602 H604 0.931 . S
C603 C601 1.321 . S
C603 C602 1.390 . S
C603 H605 0.930 . S
H604 C602 0.931 . S
H605 C603 0.930 . S
H606 C629 0.931 . S
H607 C595 0.929 . S
H608 C630 0.930 . S
H609 C601 0.931 . S
H610 C591 0.930 . S
H611 C620 0.929 . S
H612 C596 0.931 . S
H613 C597 0.930 . S
H614 C652 0.930 . S
H615 C593 0.929 . S
H616 C621 0.931 . S
H617 C622 0.930 . S
N618 Gd598 2.622 . S
N618 C619 1.369 . S
N618 C620 1.338 . S
C619 N618 1.369 . S
C619 C623 1.415 . S
C619 C626 1.422 . S
C620 H611 0.929 . S
C620 N618 1.338 . S
C620 C622 1.378 . S
C621 H616 0.931 . S
C621 C622 1.348 . S
C621 C623 1.413 . S
C622 H617 0.930 . S
C622 C620 1.378 . S
C622 C621 1.348 . S
C623 C619 1.415 . S
C623 C621 1.413 . S
C623 C653 1.437 . S
H624 C653 0.929 . S
N625 Gd598 2.570 . S
N625 C626 1.359 . S
N625 C629 1.343 . S
C626 C619 1.422 . S
C626 N625 1.359 . S
C626 C628 1.421 . S
C627 C628 1.422 . S
C627 C630 1.321 . S
C627 H654 0.931 . S
C628 C626 1.421 . S
C628 C627 1.422 . S
C628 C652 1.417 . S
C629 H606 0.931 . S
C629 N625 1.343 . S
C629 C630 1.390 . S
C630 H608 0.930 . S
C630 C627 1.321 . S
C630 C629 1.390 . S
O631 Gd599 2.386 . S
O631 C643 1.265 . S
O632 Gd598 2.353 . S
O632 C643 1.242 . S
O633 Gd598 2.468 . S
O633 C651 1.263 . S
O634 Gd598 2.427 . S
O634 C651 1.252 . S
O635 Gd599 2.307 . S
O635 C644 1.261 . S
O636 Gd598 2.388 . S
O636 C644 1.252 . S
O637 Gd598 2.386 . S
O637 C655 1.265 . S
O638 Gd599 2.353 . S
O638 C655 1.242 . S
O639 Gd599 2.468 . S
O639 C663 1.263 . S
O640 Gd599 2.427 . S
O640 C663 1.252 . S
O641 Gd598 2.307 . S
O641 C656 1.261 . S
O642 Gd599 2.388 . S
O642 C656 1.252 . S
C643 O631 1.265 . S
C643 O632 1.242 . S
C644 O635 1.261 . S
C644 O636 1.252 . S
C645 C648 1.394 . S
C645 C650 1.370 . S
C645 C651 1.500 . S
C646 C649 1.383 . S
C646 C650 1.395 . S
C647 C648 1.396 . S
C647 C649 1.365 . S
C647 H664 0.929 . S
C648 C645 1.394 . S
C648 C647 1.396 . S
C648 H665 0.930 . S
C649 C646 1.383 . S
C649 C647 1.365 . S
C649 H666 0.931 . S
C650 C645 1.370 . S
C650 C646 1.395 . S
C650 H667 0.930 . S
C651 Gd598 2.805 . S
C651 O633 1.263 . S
C651 O634 1.252 . S
C651 C645 1.500 . S
C652 H614 0.930 . S
C652 C628 1.417 . S
C652 C653 1.329 . S
C653 C623 1.437 . S
C653 H624 0.929 . S
C653 C652 1.329 . S
H654 C627 0.931 . S
C655 O637 1.265 . S
C655 O638 1.242 . S
C656 O641 1.261 . S
C656 O642 1.252 . S
C657 C660 1.394 . S
C657 C662 1.370 . S
C657 C663 1.500 . S
C658 C661 1.383 . S
C658 C662 1.395 . S
C659 C660 1.396 . S
C659 C661 1.365 . S
C659 H668 0.929 . S
C660 C657 1.394 . S
C660 C659 1.396 . S
C660 H669 0.930 . S
C661 C658 1.383 . S
C661 C659 1.365 . S
C661 H670 0.931 . S
C662 C657 1.370 . S
C662 C658 1.395 . S
C662 H671 0.930 . S
C663 Gd599 2.805 . S
C663 O639 1.263 . S
C663 O640 1.252 . S
C663 C657 1.500 . S
H664 C647 0.929 . S
H665 C648 0.930 . S
H666 C649 0.931 . S
H667 C650 0.930 . S
H668 C659 0.929 . S
H669 C660 0.930 . S
H670 C661 0.931 . S
H671 C662 0.930 . S
H672 C680 0.950 . S
H673 C685 0.950 . S
H674 C682 0.950 . S
H675 C684 0.950 . S
H676 C686 0.950 . S
H677 C688 0.950 . S
H678 C690 0.950 . S
H679 C691 0.950 . S
C680 H672 0.950 . S
C680 C681 1.386 . S
C680 C682 1.391 . S
C681 C680 1.386 . S
C681 C685 1.393 1_554 S
C682 H674 0.950 . S
C682 C680 1.391 . S
C682 C683 1.400 . S
C683 C682 1.400 . S
C683 C684 1.398 1_554 S
C683 C689 1.491 . S
C684 H675 0.950 . S
C684 C683 1.398 1_556 S
C684 C685 1.391 . S
C685 H673 0.950 . S
C685 C681 1.393 1_556 S
C685 C684 1.391 . S
C686 H676 0.950 . S
C686 C687 1.386 1_556 S
C686 C688 1.391 . S
C687 C686 1.386 1_554 S
C687 C691 1.393 . S
C688 H677 0.950 . S
C688 C686 1.391 . S
C688 C689 1.400 1_556 S
C689 C683 1.491 . S
C689 C688 1.400 1_554 S
C689 C690 1.398 . S
C690 H678 0.950 . S
C690 C689 1.398 . S
C690 C691 1.391 . S
C691 H679 0.950 . S
C691 C687 1.393 . S
C691 C690 1.391 . S
H692 C700 0.950 1_556 S
H693 C705 0.950 . S
H694 C702 0.950 1_556 S
H695 C704 0.950 . S
H696 C706 0.950 . S
H697 C708 0.950 . S
H698 C710 0.950 1_556 S
H699 C711 0.950 1_556 S
C700 H692 0.950 1_554 S
C700 C701 1.386 . S
C700 C702 1.391 . S
C701 C700 1.386 . S
C701 C705 1.393 . S
C702 H694 0.950 1_554 S
C702 C700 1.391 . S
C702 C703 1.400 . S
C703 C702 1.400 . S
C703 C704 1.398 . S
C703 C709 1.491 . S
C704 H695 0.950 . S
C704 C703 1.398 . S
C704 C705 1.391 . S
C705 H693 0.950 . S
C705 C701 1.393 . S
C705 C704 1.391 . S
C706 H696 0.950 . S
C706 C707 1.386 . S
C706 C708 1.391 . S
C707 C706 1.386 . S
C707 C711 1.393 . S
C708 H697 0.950 . S
C708 C706 1.391 . S
C708 C709 1.400 . S
C709 C703 1.491 . S
C709 C708 1.400 . S
C709 C710 1.398 . S
C710 H698 0.950 1_554 S
C710 C709 1.398 . S
C710 C711 1.391 . S
C711 H699 0.950 1_554 S
C711 C707 1.393 . S
C711 C710 1.391 . S
H712 C720 0.950 . S
H713 C725 0.950 . S
H714 C722 0.950 . S
H715 C724 0.950 . S
H716 C726 0.950 . S
H717 C728 0.950 . S
H718 C730 0.950 . S
H719 C731 0.950 . S
C720 H712 0.950 . S
C720 C721 1.386 . S
C720 C722 1.391 . S
C721 C720 1.386 . S
C721 C725 1.393 . S
C722 H714 0.950 . S
C722 C720 1.391 . S
C722 C723 1.400 . S
C723 C722 1.400 . S
C723 C724 1.398 . S
C723 C729 1.491 . S
C724 H715 0.950 . S
C724 C723 1.398 . S
C724 C725 1.391 . S
C725 H713 0.950 . S
C725 C721 1.393 . S
C725 C724 1.391 . S
C726 H716 0.950 . S
C726 C727 1.386 . S
C726 C728 1.391 . S
C727 C726 1.386 . S
C727 C731 1.393 . S
C728 H717 0.950 . S
C728 C726 1.391 . S
C728 C729 1.400 . S
C729 C723 1.491 . S
C729 C728 1.400 . S
C729 C730 1.398 . S
C730 H718 0.950 . S
C730 C729 1.398 . S
C730 C731 1.391 . S
C731 H719 0.950 . S
C731 C727 1.393 . S
C731 C730 1.391 . S
H732 C740 0.950 . S
H733 C745 0.950 . S
H734 C742 0.950 . S
H735 C744 0.950 . S
H736 C746 0.950 . S
H737 C748 0.950 . S
H738 C750 0.950 . S
H739 C751 0.950 . S
C740 H732 0.950 . S
C740 C741 1.386 . S
C740 C742 1.391 . S
C741 C740 1.386 . S
C741 C745 1.393 . S
C742 H734 0.950 . S
C742 C740 1.391 . S
C742 C743 1.400 . S
C743 C742 1.400 . S
C743 C744 1.398 . S
C743 C749 1.491 . S
C744 H735 0.950 . S
C744 C743 1.398 . S
C744 C745 1.391 . S
C745 H733 0.950 . S
C745 C741 1.393 . S
C745 C744 1.391 . S
C746 H736 0.950 . S
C746 C747 1.386 . S
C746 C748 1.391 . S
C747 C746 1.386 . S
C747 C751 1.393 . S
C748 H737 0.950 . S
C748 C746 1.391 . S
C748 C749 1.400 . S
C749 C743 1.491 . S
C749 C748 1.400 . S
C749 C750 1.398 . S
C750 H738 0.950 . S
C750 C749 1.398 . S
C750 C751 1.391 . S
C751 H739 0.950 . S
C751 C747 1.393 . S
C751 C750 1.391 . S
H752 C760 0.950 . S
H753 C765 0.950 . S
H754 C762 0.950 . S
H755 C764 0.948 1_455 S
H756 C766 0.950 . S
H757 C768 0.950 . S
H758 C770 0.950 . S
H759 C771 0.950 . S
C760 H752 0.950 . S
C760 C761 1.386 . S
C760 C762 1.391 . S
C761 C760 1.386 . S
C761 C765 1.393 1_554 S
C762 H754 0.950 . S
C762 C760 1.391 . S
C762 C763 1.400 1_655 S
C763 C762 1.400 1_455 S
C763 C764 1.400 1_454 S
C763 C769 1.491 . S
C764 H755 0.948 1_655 S
C764 C763 1.400 1_656 S
C764 C765 1.390 . S
C765 H753 0.950 . S
C765 C761 1.393 1_556 S
C765 C764 1.390 . S
C766 H756 0.950 . S
C766 C767 1.386 1_556 S
C766 C768 1.391 . S
C767 C766 1.386 1_554 S
C767 C771 1.393 . S
C768 H757 0.950 . S
C768 C766 1.391 . S
C768 C769 1.400 1_556 S
C769 C763 1.491 . S
C769 C768 1.400 1_554 S
C769 C770 1.398 . S
C770 H758 0.950 . S
C770 C769 1.398 . S
C770 C771 1.391 . S
C771 H759 0.950 . S
C771 C767 1.393 . S
C771 C770 1.391 . S
H772 C780 0.950 . S
H773 C785 0.950 . S
H774 C782 0.950 1_655 S
H775 C784 0.950 . S
H776 C786 0.950 . S
H777 C788 0.950 . S
H778 C790 0.950 . S
H779 C791 0.950 . S
C780 H772 0.950 . S
C780 C781 1.386 . S
C780 C782 1.391 . S
C781 C780 1.386 . S
C781 C785 1.393 . S
C782 H774 0.950 1_455 S
C782 C780 1.391 . S
C782 C783 1.400 1_455 S
C783 C782 1.400 1_655 S
C783 C784 1.398 1_655 S
C783 C789 1.491 . S
C784 H775 0.950 . S
C784 C783 1.398 1_455 S
C784 C785 1.391 . S
C785 H773 0.950 . S
C785 C781 1.393 . S
C785 C784 1.391 . S
C786 H776 0.950 . S
C786 C787 1.386 . S
C786 C788 1.391 . S
C787 C786 1.386 . S
C787 C791 1.393 . S
C788 H777 0.950 . S
C788 C786 1.391 . S
C788 C789 1.400 . S
C789 C783 1.491 . S
C789 C788 1.400 . S
C789 C790 1.398 . S
C790 H778 0.950 . S
C790 C789 1.398 . S
C790 C791 1.391 . S
C791 H779 0.950 . S
C791 C787 1.393 . S
C791 C790 1.391 . S
H792 C800 0.950 . S
H793 C805 0.950 . S
H794 C802 0.950 . S
H795 C804 0.950 . S
H796 C806 0.950 . S
H797 C808 0.950 1_455 S
H798 C810 0.950 . S
H799 C811 0.950 . S
C800 H792 0.950 . S
C800 C801 1.386 . S
C800 C802 1.391 . S
C801 C800 1.386 . S
C801 C805 1.393 . S
C802 H794 0.950 . S
C802 C800 1.391 . S
C802 C803 1.400 . S
C803 C802 1.400 . S
C803 C804 1.398 . S
C803 C809 1.491 . S
C804 H795 0.950 . S
C804 C803 1.398 . S
C804 C805 1.391 . S
C805 H793 0.950 . S
C805 C801 1.393 . S
C805 C804 1.391 . S
C806 H796 0.950 . S
C806 C807 1.386 . S
C806 C808 1.391 . S
C807 C806 1.386 . S
C807 C811 1.393 . S
C808 H797 0.950 1_655 S
C808 C806 1.391 . S
C808 C809 1.400 1_655 S
C809 C803 1.491 . S
C809 C808 1.400 1_455 S
C809 C810 1.398 1_455 S
C810 H798 0.950 . S
C810 C809 1.398 1_655 S
C810 C811 1.391 . S
C811 H799 0.950 . S
C811 C807 1.393 . S
C811 C810 1.391 . S
H812 C820 0.950 . S
H813 C825 0.950 . S
H814 C822 0.950 . S
H815 C824 0.950 . S
H816 C826 0.950 . S
H817 C828 0.950 . S
H818 C830 0.950 1_655 S
H819 C831 0.950 . S
C820 H812 0.950 . S
C820 C821 1.386 . S
C820 C822 1.391 . S
C821 C820 1.386 . S
C821 C825 1.393 . S
C822 H814 0.950 . S
C822 C820 1.391 . S
C822 C823 1.400 . S
C823 C822 1.400 . S
C823 C824 1.398 . S
C823 C829 1.491 . S
C824 H815 0.950 . S
C824 C823 1.398 . S
C824 C825 1.391 . S
C825 H813 0.950 . S
C825 C821 1.393 . S
C825 C824 1.391 . S
C826 H816 0.950 . S
C826 C827 1.386 . S
C826 C828 1.391 . S
C827 C826 1.386 . S
C827 C831 1.393 . S
C828 H817 0.950 . S
C828 C826 1.391 . S
C828 C829 1.400 1_455 S
C829 C823 1.491 . S
C829 C828 1.400 1_655 S
C829 C830 1.398 1_655 S
C830 H818 0.950 1_455 S
C830 C829 1.398 1_455 S
C830 C831 1.391 . S
C831 H819 0.950 . S
C831 C827 1.393 . S
C831 C830 1.391 . S
H832 C840 0.950 . S
H833 C845 0.950 . S
H834 C842 0.950 . S
H835 C844 0.950 . S
H836 C846 0.950 . S
H837 C848 0.950 . S
H838 C850 0.950 . S
H839 C851 0.950 . S
C840 H832 0.950 . S
C840 C841 1.386 . S
C840 C842 1.391 . S
C841 C840 1.386 . S
C841 C845 1.393 1_554 S
C842 H834 0.950 . S
C842 C840 1.391 . S
C842 C843 1.400 . S
C843 C842 1.400 . S
C843 C844 1.398 1_554 S
C843 C849 1.491 1_455 S
C844 H835 0.950 . S
C844 C843 1.398 1_556 S
C844 C845 1.391 . S
C845 H833 0.950 . S
C845 C841 1.393 1_556 S
C845 C844 1.391 . S
C846 H836 0.950 . S
C846 C847 1.386 1_556 S
C846 C848 1.391 . S
C847 C846 1.386 1_554 S
C847 C851 1.393 . S
C848 H837 0.950 . S
C848 C846 1.391 . S
C848 C849 1.400 1_556 S
C849 C843 1.491 1_655 S
C849 C848 1.400 1_554 S
C849 C850 1.398 . S
C850 H838 0.950 . S
C850 C849 1.398 . S
C850 C851 1.391 . S
C851 H839 0.950 . S
C851 C847 1.393 . S
C851 C850 1.391 . S
H852 C860 0.950 1_655 S
H853 C865 0.950 . S
H854 C862 0.950 . S
H855 C864 0.950 . S
H856 C866 0.950 1_455 S
H857 C868 0.950 . S
H858 C870 0.950 . S
H859 C871 0.950 . S
C860 H852 0.950 1_455 S
C860 C861 1.386 . S
C860 C862 1.391 1_455 S
C861 C860 1.386 . S
C861 C865 1.393 . S
C862 H854 0.950 . S
C862 C860 1.391 1_655 S
C862 C863 1.400 1_655 S
C863 C862 1.400 1_455 S
C863 C864 1.398 . S
C863 C869 1.491 1_455 S
C864 H855 0.950 . S
C864 C863 1.398 . S
C864 C865 1.391 . S
C865 H853 0.950 . S
C865 C861 1.393 . S
C865 C864 1.391 . S
C866 H856 0.950 1_655 S
C866 C867 1.386 . S
C866 C868 1.391 1_655 S
C867 C866 1.386 . S
C867 C871 1.393 . S
C868 H857 0.950 . S
C868 C866 1.391 1_455 S
C868 C869 1.400 1_455 S
C869 C863 1.491 1_655 S
C869 C868 1.400 1_655 S
C869 C870 1.398 . S
C870 H858 0.950 . S
C870 C869 1.398 . S
C870 C871 1.391 . S
C871 H859 0.950 . S
C871 C867 1.393 . S
C871 C870 1.391 . S
H872 C880 0.950 . S
H873 C885 0.950 . S
H874 C882 0.942 1_545 S
H875 C884 0.950 . S
H876 C886 0.950 . S
H877 C888 0.950 1_565 S
H878 C890 0.950 . S
H879 C891 0.950 . S
C880 H872 0.950 . S
C880 C881 1.386 . S
C880 C882 1.391 . S
C881 C880 1.386 . S
C881 C885 1.393 1_554 S
C882 H874 0.942 1_565 S
C882 C880 1.391 . S
C882 C883 1.400 . S
C883 C882 1.400 . S
C883 C884 1.398 1_554 S
C883 C889 1.491 1_565 S
C884 H875 0.950 . S
C884 C883 1.398 1_556 S
C884 C885 1.391 . S
C885 H873 0.950 . S
C885 C881 1.393 1_556 S
C885 C884 1.391 . S
C886 H876 0.950 . S
C886 C887 1.386 1_556 S
C886 C888 1.391 . S
C887 C886 1.386 1_554 S
C887 C891 1.393 . S
C888 H877 0.950 1_545 S
C888 C886 1.391 . S
C888 C889 1.400 1_556 S
C889 C883 1.491 1_545 S
C889 C888 1.400 1_554 S
C889 C890 1.398 . S
C890 H878 0.950 . S
C890 C889 1.398 . S
C890 C891 1.391 . S
C891 H879 0.950 . S
C891 C887 1.393 . S
C891 C890 1.391 . S
H892 C900 0.950 . S
H893 C905 0.950 . S
H894 C902 0.950 . S
H895 C904 0.950 . S
H896 C906 0.950 . S
H897 C908 0.950 . S
H898 C910 0.950 . S
H899 C911 0.950 . S
C900 H892 0.950 . S
C900 C901 1.386 . S
C900 C902 1.391 . S
C901 C900 1.386 . S
C901 C905 1.393 . S
C902 H894 0.950 . S
C902 C900 1.391 . S
C902 C903 1.400 . S
C903 C902 1.400 . S
C903 C904 1.398 . S
C903 C909 1.491 1_545 S
C904 H895 0.950 . S
C904 C903 1.398 . S
C904 C905 1.391 . S
C905 H893 0.950 . S
C905 C901 1.393 . S
C905 C904 1.391 . S
C906 H896 0.950 . S
C906 C907 1.386 . S
C906 C908 1.391 . S
C907 C906 1.386 . S
C907 C911 1.393 . S
C908 H897 0.950 . S
C908 C906 1.391 . S
C908 C909 1.400 . S
C909 C903 1.491 1_565 S
C909 C908 1.400 . S
C909 C910 1.398 . S
C910 H898 0.950 . S
C910 C909 1.398 . S
C910 C911 1.391 . S
C911 H899 0.950 . S
C911 C907 1.393 . S
C911 C910 1.391 . S
H912 C920 0.950 1_556 S
H913 C925 0.950 . S
H914 C922 0.950 1_556 S
H915 C924 0.950 . S
H916 C926 0.950 . S
H917 C928 0.950 . S
H918 C930 0.950 . S
H919 C931 0.951 1_556 S
C920 H912 0.950 1_554 S
C920 C921 1.386 . S
C920 C922 1.391 . S
C921 C920 1.386 . S
C921 C925 1.393 . S
C922 H914 0.950 1_554 S
C922 C920 1.391 . S
C922 C923 1.400 . S
C923 C922 1.400 . S
C923 C924 1.398 . S
C923 C929 1.491 . S
C924 H915 0.950 . S
C924 C923 1.398 . S
C924 C925 1.391 . S
C925 H913 0.950 . S
C925 C921 1.393 . S
C925 C924 1.391 . S
C926 H916 0.950 . S
C926 C927 1.386 . S
C926 C928 1.391 . S
C927 C926 1.386 . S
C927 C931 1.393 . S
C928 H917 0.950 . S
C928 C926 1.391 . S
C928 C929 1.400 . S
C929 C923 1.491 . S
C929 C928 1.400 . S
C929 C930 1.398 . S
C930 H918 0.950 . S
C930 C929 1.398 . S
C930 C931 1.391 . S
C931 H919 0.951 1_554 S
C931 C927 1.393 . S
C931 C930 1.391 . S
H932 C940 0.950 . S
H933 C945 0.950 . S
H934 C942 0.950 . S
H935 C944 0.950 . S
H936 C946 0.950 . S
H937 C948 0.950 . S
H938 C950 0.950 . S
H939 C951 0.950 . S
C940 H932 0.950 . S
C940 C941 1.386 . S
C940 C942 1.391 . S
C941 C940 1.386 . S
C941 C945 1.393 1_554 S
C942 H934 0.950 . S
C942 C940 1.391 . S
C942 C943 1.400 . S
C943 C942 1.400 . S
C943 C944 1.398 1_554 S
C943 C949 1.491 . S
C944 H935 0.950 . S
C944 C943 1.398 1_556 S
C944 C945 1.391 . S
C945 H933 0.950 . S
C945 C941 1.393 1_556 S
C945 C944 1.391 . S
C946 H936 0.950 . S
C946 C947 1.386 1_556 S
C946 C948 1.391 . S
C947 C946 1.386 1_554 S
C947 C951 1.393 . S
C948 H937 0.950 . S
C948 C946 1.391 . S
C948 C949 1.400 1_556 S
C949 C943 1.491 . S
C949 C948 1.400 1_554 S
C949 C950 1.398 . S
C950 H938 0.950 . S
C950 C949 1.398 . S
C950 C951 1.391 . S
C951 H939 0.950 . S
C951 C947 1.393 . S
C951 C950 1.391 . S
H952 C960 0.950 . S
H953 C965 0.950 . S
H954 C962 0.950 . S
H955 C964 0.950 . S
H956 C966 0.950 . S
H957 C968 0.950 . S
H958 C970 0.950 . S
H959 C971 0.950 . S
C960 H952 0.950 . S
C960 C961 1.386 . S
C960 C962 1.391 . S
C961 C960 1.386 . S
C961 C965 1.393 . S
C962 H954 0.950 . S
C962 C960 1.391 . S
C962 C963 1.400 . S
C963 C962 1.400 . S
C963 C964 1.398 . S
C963 C969 1.491 . S
C964 H955 0.950 . S
C964 C963 1.398 . S
C964 C965 1.391 . S
C965 H953 0.950 . S
C965 C961 1.393 . S
C965 C964 1.391 . S
C966 H956 0.950 . S
C966 C967 1.386 . S
C966 C968 1.391 . S
C967 C966 1.386 . S
C967 C971 1.393 . S
C968 H957 0.950 . S
C968 C966 1.391 . S
C968 C969 1.400 . S
C969 C963 1.491 . S
C969 C968 1.400 . S
C969 C970 1.398 . S
C970 H958 0.950 . S
C970 C969 1.398 . S
C970 C971 1.391 . S
C971 H959 0.950 . S
C971 C967 1.393 . S
C971 C970 1.391 . S
H972 C980 0.950 . S
H973 C985 0.950 . S
H974 C982 0.950 . S
H975 C984 0.950 . S
H976 C986 0.950 . S
H977 C988 0.950 . S
H978 C990 0.950 . S
H979 C991 0.950 . S
C980 H972 0.950 . S
C980 C981 1.386 . S
C980 C982 1.391 . S
C981 C980 1.386 . S
C981 C985 1.393 . S
C982 H974 0.950 . S
C982 C980 1.391 . S
C982 C983 1.400 . S
C983 C982 1.400 . S
C983 C984 1.398 . S
C983 C989 1.491 . S
C984 H975 0.950 . S
C984 C983 1.398 . S
C984 C985 1.391 . S
C985 H973 0.950 . S
C985 C981 1.393 . S
C985 C984 1.391 . S
C986 H976 0.950 . S
C986 C987 1.386 . S
C986 C988 1.391 . S
C987 C986 1.386 . S
C987 C991 1.393 . S
C988 H977 0.950 . S
C988 C986 1.391 . S
C988 C989 1.400 . S
C989 C983 1.491 . S
C989 C988 1.400 . S
C989 C990 1.398 . S
C990 H978 0.950 . S
C990 C989 1.398 . S
C990 C991 1.391 . S
C991 H979 0.950 . S
C991 C987 1.393 . S
C991 C990 1.391 . S
H992 C1000 0.950 . S
H993 C1005 0.950 . S
H994 C1002 0.952 . S
H995 C1004 0.950 . S
H996 C1006 0.950 . S
H997 C1008 0.950 . S
H998 C1010 0.950 . S
H999 C1011 0.950 . S
C1000 H992 0.950 . S
C1000 C1001 1.386 . S
C1000 C1002 1.391 . S
C1001 C1000 1.386 . S
C1001 C1005 1.393 . S
C1002 H994 0.952 . S
C1002 C1000 1.391 . S
C1002 C1003 1.400 . S
C1003 C1002 1.400 . S
C1003 C1004 1.398 . S
C1003 C1009 1.491 1_455 S
C1004 H995 0.950 . S
C1004 C1003 1.398 . S
C1004 C1005 1.391 . S
C1005 H993 0.950 . S
C1005 C1001 1.393 . S
C1005 C1004 1.391 . S
C1006 H996 0.950 . S
C1006 C1007 1.386 . S
C1006 C1008 1.391 . S
C1007 C1006 1.386 . S
C1007 C1011 1.393 . S
C1008 H997 0.950 . S
C1008 C1006 1.391 . S
C1008 C1009 1.400 . S
C1009 C1003 1.491 1_655 S
C1009 C1008 1.400 . S
C1009 C1010 1.398 . S
C1010 H998 0.950 . S
C1010 C1009 1.398 . S
C1010 C1011 1.391 . S
C1011 H999 0.950 . S
C1011 C1007 1.393 . S
C1011 C1010 1.391 . S
H1012 C1020 0.950 . S
H1013 C1025 0.950 . S
H1014 C1022 0.950 . S
H1015 C1024 0.950 . S
H1016 C1026 0.950 . S
H1017 C1028 0.950 . S
H1018 C1030 0.950 . S
H1019 C1031 0.950 . S
C1020 H1012 0.950 . S
C1020 C1021 1.386 . S
C1020 C1022 1.391 . S
C1021 C1020 1.386 . S
C1021 C1025 1.393 1_655 S
C1022 H1014 0.950 . S
C1022 C1020 1.391 . S
C1022 C1023 1.400 . S
C1023 C1022 1.400 . S
C1023 C1024 1.398 1_655 S
C1023 C1029 1.491 1_655 S
C1024 H1015 0.950 . S
C1024 C1023 1.398 1_455 S
C1024 C1025 1.391 . S
C1025 H1013 0.950 . S
C1025 C1021 1.393 1_455 S
C1025 C1024 1.391 . S
C1026 H1016 0.950 . S
C1026 C1027 1.386 . S
C1026 C1028 1.391 . S
C1027 C1026 1.386 . S
C1027 C1031 1.393 1_455 S
C1028 H1017 0.950 . S
C1028 C1026 1.391 . S
C1028 C1029 1.400 . S
C1029 C1023 1.491 1_455 S
C1029 C1028 1.400 . S
C1029 C1030 1.398 1_455 S
C1030 H1018 0.950 . S
C1030 C1029 1.398 1_655 S
C1030 C1031 1.391 . S
C1031 H1019 0.950 . S
C1031 C1027 1.393 1_655 S
C1031 C1030 1.391 . S
H1032 C1040 0.950 . S
H1033 C1045 0.950 . S
H1034 C1042 0.950 . S
H1035 C1044 0.950 . S
H1036 C1046 0.950 1_655 S
H1037 C1048 0.950 . S
H1038 C1050 0.950 . S
H1039 C1051 0.950 . S
C1040 H1032 0.950 . S
C1040 C1041 1.386 1_455 S
C1040 C1042 1.391 . S
C1041 C1040 1.386 1_655 S
C1041 C1045 1.393 . S
C1042 H1034 0.950 . S
C1042 C1040 1.391 . S
C1042 C1043 1.400 1_455 S
C1043 C1042 1.400 1_655 S
C1043 C1044 1.398 . S
C1043 C1049 1.491 1_655 S
C1044 H1035 0.950 . S
C1044 C1043 1.398 . S
C1044 C1045 1.391 . S
C1045 H1033 0.950 . S
C1045 C1041 1.393 . S
C1045 C1044 1.391 . S
C1046 H1036 0.950 1_455 S
C1046 C1047 1.386 . S
C1046 C1048 1.391 1_455 S
C1047 C1046 1.386 . S
C1047 C1051 1.393 . S
C1048 H1037 0.950 . S
C1048 C1046 1.391 1_655 S
C1048 C1049 1.400 1_655 S
C1049 C1043 1.491 1_455 S
C1049 C1048 1.400 1_455 S
C1049 C1050 1.398 . S
C1050 H1038 0.950 . S
C1050 C1049 1.398 . S
C1050 C1051 1.391 . S
C1051 H1039 0.950 . S
C1051 C1047 1.393 . S
C1051 C1050 1.391 . S
H1052 C1060 0.950 . S
H1053 C1065 0.950 . S
H1054 C1062 0.950 . S
H1055 C1064 0.950 . S
H1056 C1066 0.950 . S
H1057 C1068 0.950 . S
H1058 C1070 0.950 . S
H1059 C1071 0.950 . S
C1060 H1052 0.950 . S
C1060 C1061 1.386 1_455 S
C1060 C1062 1.391 . S
C1061 C1060 1.386 1_655 S
C1061 C1065 1.393 . S
C1062 H1054 0.950 . S
C1062 C1060 1.391 . S
C1062 C1063 1.400 1_455 S
C1063 C1062 1.400 1_655 S
C1063 C1064 1.398 . S
C1063 C1069 1.491 1_655 S
C1064 H1055 0.950 . S
C1064 C1063 1.398 . S
C1064 C1065 1.391 . S
C1065 H1053 0.950 . S
C1065 C1061 1.393 . S
C1065 C1064 1.391 . S
C1066 H1056 0.950 . S
C1066 C1067 1.386 1_655 S
C1066 C1068 1.391 . S
C1067 C1066 1.386 1_455 S
C1067 C1071 1.393 . S
C1068 H1057 0.950 . S
C1068 C1066 1.391 . S
C1068 C1069 1.400 1_655 S
C1069 C1063 1.491 1_455 S
C1069 C1068 1.400 1_455 S
C1069 C1070 1.398 . S
C1070 H1058 0.950 . S
C1070 C1069 1.398 . S
C1070 C1071 1.391 . S
C1071 H1059 0.950 . S
C1071 C1067 1.393 . S
C1071 C1070 1.391 . S
H1072 C1080 0.950 . S
H1073 C1085 0.950 . S
H1074 C1082 0.950 . S
H1075 C1084 0.950 . S
H1076 C1086 0.950 . S
H1077 C1088 0.950 . S
H1078 C1090 0.950 . S
H1079 C1091 0.950 . S
C1080 H1072 0.950 . S
C1080 C1081 1.386 . S
C1080 C1082 1.391 . S
C1081 C1080 1.386 . S
C1081 C1085 1.393 . S
C1082 H1074 0.950 . S
C1082 C1080 1.391 . S
C1082 C1083 1.400 . S
C1083 C1082 1.400 . S
C1083 C1084 1.398 . S
C1083 C1089 1.491 . S
C1084 H1075 0.950 . S
C1084 C1083 1.398 . S
C1084 C1085 1.391 . S
C1085 H1073 0.950 . S
C1085 C1081 1.393 . S
C1085 C1084 1.391 . S
C1086 H1076 0.950 . S
C1086 C1087 1.386 . S
C1086 C1088 1.391 . S
C1087 C1086 1.386 . S
C1087 C1091 1.393 . S
C1088 H1077 0.950 . S
C1088 C1086 1.391 . S
C1088 C1089 1.400 . S
C1089 C1083 1.491 . S
C1089 C1088 1.400 . S
C1089 C1090 1.398 . S
C1090 H1078 0.950 . S
C1090 C1089 1.398 . S
C1090 C1091 1.391 . S
C1091 H1079 0.950 . S
C1091 C1087 1.393 . S
C1091 C1090 1.391 . S
H1092 C1100 0.950 . S
H1093 C1105 0.950 . S
H1094 C1102 0.950 . S
H1095 C1104 0.950 . S
H1096 C1106 0.950 . S
H1097 C1108 0.950 . S
H1098 C1110 0.950 . S
H1099 C1111 0.950 . S
C1100 H1092 0.950 . S
C1100 C1101 1.386 . S
C1100 C1102 1.391 . S
C1101 C1100 1.386 . S
C1101 C1105 1.393 . S
C1102 H1094 0.950 . S
C1102 C1100 1.391 . S
C1102 C1103 1.400 . S
C1103 C1102 1.400 . S
C1103 C1104 1.398 . S
C1103 C1109 1.491 . S
C1104 H1095 0.950 . S
C1104 C1103 1.398 . S
C1104 C1105 1.391 . S
C1105 H1093 0.950 . S
C1105 C1101 1.393 . S
C1105 C1104 1.391 . S
C1106 H1096 0.950 . S
C1106 C1107 1.386 . S
C1106 C1108 1.391 . S
C1107 C1106 1.386 . S
C1107 C1111 1.393 . S
C1108 H1097 0.950 . S
C1108 C1106 1.391 . S
C1108 C1109 1.400 . S
C1109 C1103 1.491 . S
C1109 C1108 1.400 . S
C1109 C1110 1.398 . S
C1110 H1098 0.950 . S
C1110 C1109 1.398 . S
C1110 C1111 1.391 . S
C1111 H1099 0.950 . S
C1111 C1107 1.393 . S
C1111 C1110 1.391 . S
H1112 C1120 0.950 . S
H1113 C1125 0.950 . S
H1114 C1122 0.950 . S
H1115 C1124 0.950 . S
H1116 C1126 0.950 . S
H1117 C1128 0.950 . S
H1118 C1130 0.950 . S
H1119 C1131 0.950 . S
C1120 H1112 0.950 . S
C1120 C1121 1.386 . S
C1120 C1122 1.391 . S
C1121 C1120 1.386 . S
C1121 C1125 1.393 . S
C1122 H1114 0.950 . S
C1122 C1120 1.391 . S
C1122 C1123 1.400 . S
C1123 C1122 1.400 . S
C1123 C1124 1.398 . S
C1123 C1129 1.491 . S
C1124 H1115 0.950 . S
C1124 C1123 1.398 . S
C1124 C1125 1.391 . S
C1125 H1113 0.950 . S
C1125 C1121 1.393 . S
C1125 C1124 1.391 . S
C1126 H1116 0.950 . S
C1126 C1127 1.386 . S
C1126 C1128 1.391 . S
C1127 C1126 1.386 . S
C1127 C1131 1.393 . S
C1128 H1117 0.950 . S
C1128 C1126 1.391 . S
C1128 C1129 1.400 . S
C1129 C1123 1.491 . S
C1129 C1128 1.400 . S
C1129 C1130 1.398 . S
C1130 H1118 0.950 . S
C1130 C1129 1.398 . S
C1130 C1131 1.391 . S
C1131 H1119 0.950 . S
C1131 C1127 1.393 . S
C1131 C1130 1.391 . S
H1132 C1140 0.950 . S
H1133 C1145 0.950 . S
H1134 C1142 0.950 . S
H1135 C1144 0.950 . S
H1136 C1146 0.950 . S
H1137 C1148 0.950 . S
H1138 C1150 0.950 . S
H1139 C1151 0.950 . S
C1140 H1132 0.950 . S
C1140 C1141 1.386 . S
C1140 C1142 1.391 . S
C1141 C1140 1.386 . S
C1141 C1145 1.393 . S
C1142 H1134 0.950 . S
C1142 C1140 1.391 . S
C1142 C1143 1.400 . S
C1143 C1142 1.400 . S
C1143 C1144 1.398 . S
C1143 C1149 1.491 . S
C1144 H1135 0.950 . S
C1144 C1143 1.398 . S
C1144 C1145 1.391 . S
C1145 H1133 0.950 . S
C1145 C1141 1.393 . S
C1145 C1144 1.391 . S
C1146 H1136 0.950 . S
C1146 C1147 1.386 . S
C1146 C1148 1.391 . S
C1147 C1146 1.386 . S
C1147 C1151 1.393 . S
C1148 H1137 0.950 . S
C1148 C1146 1.391 . S
C1148 C1149 1.400 . S
C1149 C1143 1.491 . S
C1149 C1148 1.400 . S
C1149 C1150 1.398 . S
C1150 H1138 0.950 . S
C1150 C1149 1.398 . S
C1150 C1151 1.391 . S
C1151 H1139 0.950 . S
C1151 C1147 1.393 . S
C1151 C1150 1.391 . S
C681 C55 1.958 . S
C687 C67 1.958 . S
C701 C139 1.955 . S
C707 C151 1.955 . S
C721 C235 1.957 . S
C727 C223 1.957 . S
C741 C319 1.959 . S
C747 C307 1.959 . S
C761 C391 1.957 . S
C767 C403 1.957 . S
C781 C487 1.955 . S
C787 C475 1.955 . S
C801 C571 1.957 . S
C807 C559 1.957 . S
C821 C643 1.955 . S
C827 C655 1.955 . S
C841 C142 1.911 1_554 S
C847 C70 1.919 . S
C861 C310 1.925 . S
C867 C238 1.925 . S
C881 C406 1.914 . S
C887 C478 1.906 1_554 S
C901 C574 1.927 . S
C907 C646 1.927 . S
C921 C58 1.419 1_554 S
C927 C490 1.419 . S
C941 C394 1.417 1_554 S
C947 C154 1.417 . S
C961 C226 1.418 . S
C967 C658 1.418 . S
C981 C322 1.417 . S
C987 C562 1.417 . S
C1001 C68 1.552 . S
C1007 C320 1.576 . S
C1021 C152 1.583 . S
C1027 C236 1.552 . S
C1041 C140 1.532 . S
C1047 C224 1.571 . S
C1061 C308 1.535 . S
C1067 C56 1.571 . S
C1081 C404 1.534 . S
C1087 C656 1.570 . S
C1101 C488 1.581 . S
C1107 C572 1.556 . S
C1121 C476 1.548 . S
C1127 C560 1.573 . S
C1141 C644 1.556 . S
C1147 C392 1.581 . S
