# Generated by pormake.
# Topology uni, (4)-cn, num edge types: 1
# Building blocks:
#     Node 0, Type 0, BuildingBlock: KUFVIS_clean_sbu_0, # of connection points: 4
#     Node 1, Type 0, BuildingBlock: KUFVIS_clean_sbu_0, # of connection points: 4
#     Node 2, Type 0, BuildingBlock: KUFVIS_clean_sbu_0, # of connection points: 4
#     Node 3, Type 0, BuildingBlock: KUFVIS_clean_sbu_0, # of connection points: 4
#     Node 4, Type 0, BuildingBlock: KUFVIS_clean_sbu_0, # of connection points: 4
#     Node 5, Type 0, BuildingBlock: KUFVIS_clean_sbu_0, # of connection points: 4
#     Edge 6, Type (0, 0), BuildingBlock: AJUNOK_clean_linker_0, # of connection points: 2
#     Edge 7, Type (0, 0), BuildingBlock: AJUNOK_clean_linker_0, # of connection points: 2
#     Edge 8, Type (0, 0), BuildingBlock: AJUNOK_clean_linker_0, # of connection points: 2
#     Edge 9, Type (0, 0), BuildingBlock: AJUNOK_clean_linker_0, # of connection points: 2
#     Edge 10, Type (0, 0), BuildingBlock: AJUNOK_clean_linker_0, # of connection points: 2
#     Edge 11, Type (0, 0), BuildingBlock: AJUNOK_clean_linker_0, # of connection points: 2
#     Edge 12, Type (0, 0), BuildingBlock: AJUNOK_clean_linker_0, # of connection points: 2
#     Edge 13, Type (0, 0), BuildingBlock: AJUNOK_clean_linker_0, # of connection points: 2
#     Edge 14, Type (0, 0), BuildingBlock: AJUNOK_clean_linker_0, # of connection points: 2
#     Edge 15, Type (0, 0), BuildingBlock: AJUNOK_clean_linker_0, # of connection points: 2
#     Edge 16, Type (0, 0), BuildingBlock: AJUNOK_clean_linker_0, # of connection points: 2
#     Edge 17, Type (0, 0), BuildingBlock: AJUNOK_clean_linker_0, # of connection points: 2
# Relax obj value: 0.055
# Max RMSD: 0.074
# Mean RMSD: 0.074
data_MOF--net-uni--node1-KUFVIS_clean_sbu_0--edge1-AJUNOK_clean_linker_0
_symmetry_space_group_name_H-M    P1
_symmetry_Int_Tables_number       1
_symmetry_cell_setting            triclinic
loop_
_symmetry_equiv_pos_as_xyz
'x, y, z'
_cell_length_a     27.851848
_cell_length_b     27.846977
_cell_length_c     16.726961
_cell_angle_alpha  89.974252
_cell_angle_beta   90.047945
_cell_angle_gamma 120.03265
loop_
_atom_site_label
_atom_site_type_symbol
_atom_site_fract_x
_atom_site_fract_y
_atom_site_fract_z
_atom_type_partial_charge
Mn0 Mn 0.65713 0.02507 0.05655 0.0
Mn1 Mn 0.65591 0.14292 0.10105 0.0
C2 C 0.59503 0.02411 0.15009 0.0
C3 C 0.68627 0.96062 0.07835 0.0
C4 C 0.60853 0.07853 0.94768 0.0
O5 O 0.73251 0.08528 1.01514 0.0
O6 O 0.72844 0.16138 0.05229 0.0
C7 C 0.74122 0.18625 0.22846 0.0
N8 N 0.68844 0.16914 0.20401 0.0
C9 C 0.66394 0.18775 0.33369 0.0
C10 C 0.71813 0.20576 0.36013 0.0
C11 C 0.7569 0.20494 0.30729 0.0
C12 C 0.65081 0.16984 0.25434 0.0
H13 H 0.77107 0.1856 0.18811 0.0
C14 C 0.75332 0.1378 0.02074 0.0
O15 O 0.66632 0.96436 1.00998 0.0
O16 O 0.69228 0.99658 0.13253 0.0
N17 N 0.58829 0.13059 0.14918 0.0
C18 C 0.53702 0.10916 0.11557 0.0
C19 C 0.49305 0.10562 0.16119 0.0
C20 C 0.5023 0.12443 0.24066 0.0
C21 C 0.55553 0.14686 0.27371 0.0
C22 C 0.59783 0.14967 0.22517 0.0
H23 H 0.52963 0.09448 0.05462 0.0
O24 O 0.58457 0.97904 0.11286 0.0
O25 O 0.64095 0.06848 0.13048 0.0
O26 O 0.61874 0.03975 0.96301 0.0
O27 O 0.62039 0.11903 0.99472 0.0
C28 C 0.56806 0.16561 0.35333 0.0
C29 C 0.62219 0.18591 0.38336 0.0
H30 H 0.7303 0.21991 0.42102 0.0
H31 H 0.79876 0.21861 0.32731 0.0
H32 H 0.45206 0.08813 0.1353 0.0
H33 H 0.46815 0.12108 0.27593 0.0
H34 H 0.5362 0.16389 0.3923 0.0
H35 H 0.63111 0.19943 0.44501 0.0
Mn36 Mn 0.67488 0.65589 0.22144 0.0
Mn37 Mn 0.55761 0.6591 0.26288 0.0
C38 C 0.61181 0.59541 0.31455 0.0
C39 C 0.76773 0.6825 0.24503 0.0
C40 C 0.57251 0.60749 0.11247 0.0
O41 O 0.69309 0.73182 0.17838 0.0
O42 O 0.61298 0.72942 0.21031 0.0
C43 C 0.60407 0.74796 0.38512 0.0
N44 N 0.56662 0.6949 0.36388 0.0
C45 C 0.52654 0.67493 0.49567 0.0
C46 C 0.56459 0.72943 0.51881 0.0
C47 C 0.60353 0.76608 0.46328 0.0
C48 C 0.52896 0.65931 0.41686 0.0
H49 H 0.63415 0.77621 0.34279 0.0
C50 C 0.66192 0.7533 0.18043 0.0
O51 O 0.74413 0.66238 0.17664 0.0
O52 O 0.73817 0.68995 0.2982 0.0
N53 N 0.50084 0.594 0.31478 0.0
C54 C 0.46711 0.54279 0.28314 0.0
C55 C 0.42607 0.50105 0.33111 0.0
C56 C 0.4197 0.51255 0.41088 0.0
C57 C 0.45396 0.56596 0.44159 0.0
C58 C 0.49384 0.60599 0.39068 0.0
H59 H 0.4715 0.53389 0.22182 0.0
O60 O 0.64577 0.58338 0.27882 0.0
O61 O 0.61532 0.64207 0.29413 0.0
O62 O 0.62165 0.61797 0.12772 0.0
O63 O 0.54414 0.62021 0.15883 0.0
C64 C 0.45046 0.58089 0.52093 0.0
C65 C 0.48681 0.63531 0.54801 0.0
H66 H 0.56445 0.7435 0.57913 0.0
H67 H 0.63314 0.80817 0.48072 0.0
H68 H 0.39956 0.46005 0.30672 0.0
H69 H 0.38838 0.48011 0.44796 0.0
H70 H 0.42028 0.55072 0.56181 0.0
H71 H 0.48406 0.64616 0.60934 0.0
Mn72 Mn 0.06411 0.67948 0.39444 0.0
Mn73 Mn 0.94687 0.55869 0.43443 0.0
C74 C 0.06474 0.61713 0.48599 0.0
C75 C 0.12813 0.77271 0.42067 0.0
C76 C 1.01457 0.57706 0.28481 0.0
O77 O 1.00437 0.69528 0.35362 0.0
O78 O 0.92936 0.61133 0.37848 0.0
C79 C 0.89954 0.60295 0.55232 0.0
N80 N 0.91749 0.56696 0.53356 0.0
C81 C 0.89651 0.52774 0.66592 0.0
C82 C 0.87759 0.56424 0.68646 0.0
C83 C 0.87917 0.60204 0.62941 0.0
C84 C 0.91614 0.53042 0.58804 0.0
H85 H 0.9008 0.63219 0.50886 0.0
C86 C 0.95227 0.66103 0.35141 0.0
O87 O 0.12529 0.75087 0.35102 0.0
O88 O 0.09153 0.74125 0.47312 0.0
N89 N 0.95734 0.50422 0.48943 0.0
C90 C 0.97784 0.47236 0.46062 0.0
C91 C 0.98007 0.433 0.51061 0.0
C92 C 0.96046 0.42624 0.58947 0.0
C93 C 0.93823 0.45852 0.61727 0.0
C94 C 0.93685 0.4969 0.56448 0.0
H95 H 0.9925 0.4771 0.40009 0.0
O96 O 0.10991 0.65231 0.44954 0.0
O97 O 1.02032 0.61864 0.46666 0.0
O98 O 0.05002 0.62773 0.29882 0.0
O99 O 0.97523 0.54625 0.3325 0.0
C100 C 0.91811 0.45467 0.69564 0.0
C101 C 0.89737 0.48934 0.71999 0.0
H102 H 0.86208 0.56383 0.74597 0.0
H103 H 0.86481 0.63048 0.64487 0.0
H104 H 0.99703 0.40806 0.48848 0.0
H105 H 0.96272 0.39622 0.62813 0.0
H106 H 0.9189 0.42558 0.7379 0.0
H107 H 0.88255 0.48639 0.78065 0.0
Mn108 Mn 0.43588 0.06695 0.55518 0.0
Mn109 Mn 0.43438 0.94822 0.60181 0.0
C110 C 0.49746 0.06731 0.64946 0.0
C111 C 0.40671 0.13136 0.57704 0.0
C112 C 0.48093 1.01103 0.4462 0.0
O113 O 0.36047 1.00677 0.5125 0.0
O114 O 0.36039 0.93048 0.55972 0.0
C115 C 0.35506 0.9104 0.7369 0.0
N116 N 0.40615 0.92496 0.70759 0.0
C117 C 0.43543 0.90856 0.83519 0.0
C118 C 0.38287 0.89276 0.86642 0.0
C119 C 0.34258 0.89385 0.81709 0.0
C120 C 0.44535 0.92436 0.75467 0.0
H121 H 0.32425 0.91175 0.69948 0.0
C122 C 0.33703 0.95442 0.52453 0.0
O123 O 0.42713 0.12809 0.50883 0.0
O124 O 0.40026 0.09498 0.63075 0.0
N125 N 0.50347 0.96027 0.64428 0.0
C126 C 0.55307 0.97978 0.60631 0.0
C127 C 0.59839 0.98309 0.6481 0.0
C128 C 0.59223 0.96615 0.72835 0.0
C129 C 0.54066 0.94572 0.76596 0.0
C130 C 0.49684 0.94288 0.72105 0.0
H131 H 0.55813 0.99292 0.54473 0.0
O132 O 0.50823 0.11268 0.61282 0.0
O133 O 0.45145 0.0234 0.62924 0.0
O134 O 0.47499 0.05233 0.46297 0.0
O135 O 0.4657 0.96924 0.49223 0.0
C136 C 0.53128 0.9289 0.84661 0.0
C137 C 0.47875 0.91048 0.88128 0.0
H138 H 0.37322 0.88036 0.9284 0.0
H139 H 0.30207 0.88217 0.84093 0.0
H140 H 0.63807 0.99898 0.61866 0.0
H141 H 0.62745 0.96937 0.76064 0.0
H142 H 0.56441 0.93072 0.88285 0.0
H143 H 0.47232 0.89858 0.94372 0.0
Mn144 Mn 0.41003 0.43161 0.72306 0.0
Mn145 Mn 0.53096 0.43501 0.76102 0.0
C146 C 0.47245 0.49378 0.81551 0.0
C147 C 0.31678 0.40138 0.7503 0.0
C148 C 0.5108 0.48321 0.61129 0.0
O149 O 0.39478 0.35657 0.6804 0.0
O150 O 0.47741 0.36337 0.70941 0.0
C151 C 0.49179 0.34622 0.8831 0.0
N152 N 0.52574 0.40012 0.8617 0.0
C153 C 0.56937 0.42207 0.9912 0.0
C154 C 0.53502 0.36671 1.01446 0.0
C155 C 0.49598 0.32868 0.96022 0.0
C156 C 0.56344 0.43707 0.91346 0.0
H157 H 0.46183 0.31682 0.8416 0.0
C158 C 0.42803 0.33745 0.6809 0.0
O159 O 0.33836 0.42122 0.68083 0.0
O160 O 0.34854 0.39599 0.80198 0.0
N161 N 0.58579 0.50183 0.81168 0.0
C162 C 0.61565 0.55371 0.78001 0.0
C163 C 0.65594 0.59689 0.82704 0.0
C164 C 0.66535 0.58621 0.9059 0.0
C165 C 0.63462 0.53233 0.93682 0.0
C166 C 0.59527 0.4909 0.88695 0.0
H167 H 0.60856 0.56215 0.71949 0.0
O168 O 0.43702 0.50398 0.78024 0.0
O169 O 0.47115 0.44828 0.79422 0.0
O170 O 0.46113 0.47051 0.62753 0.0
O171 O 0.54112 0.47286 0.65717 0.0
C172 C 0.64124 0.5182 0.01534 0.0
C173 C 0.60864 0.4631 0.0425 0.0
H174 H 0.53793 0.35308 0.07402 0.0
H175 H 0.46916 0.28594 0.97782 0.0
H176 H 0.67954 0.63834 0.80269 0.0
H177 H 0.69615 0.61971 0.9422 0.0
H178 H 0.67111 0.54943 0.05543 0.0
H179 H 0.61388 0.4528 0.10313 0.0
Mn180 Mn 1.02446 0.41566 0.89189 0.0
Mn181 Mn 0.14436 0.53299 0.93441 0.0
C182 C 1.02622 0.47795 0.98603 0.0
C183 C 0.95977 0.32232 0.91601 0.0
C184 C 0.07912 0.51573 0.78095 0.0
O185 O 0.08359 0.39952 0.8476 0.0
O186 O 0.16097 0.47615 0.89163 0.0
C187 C 0.18689 0.49405 0.06701 0.0
N188 N 0.16969 0.52893 0.03923 0.0
C189 C 0.18879 0.57587 0.16608 0.0
C190 C 0.20721 0.54076 0.19572 0.0
C191 C 0.2061 0.49958 0.146 0.0
C192 C 0.17054 0.56867 0.08663 0.0
H193 H 0.18589 0.46226 0.02919 0.0
C194 C 0.13616 0.42841 0.85767 0.0
O195 O 0.96227 0.34553 0.84762 0.0
O196 O 0.99708 0.35254 0.96852 0.0
N197 N 0.13307 0.59034 0.97747 0.0
C198 C 0.11327 0.62042 0.94013 0.0
C199 C 0.11056 0.66263 0.98221 0.0
C200 C 0.12848 0.67369 0.06205 0.0
C201 C 0.14917 0.64254 0.09902 0.0
C202 C 0.1512 0.60122 0.05391 0.0
H203 H 0.09949 0.6122 0.8788 0.0
O204 O 0.98018 0.44331 0.95087 0.0
O205 O 0.06956 0.4753 0.96441 0.0
O206 O 0.03795 0.46868 0.79901 0.0
O207 O 0.12157 0.54254 0.8257 0.0
C208 C 0.16731 0.6505 0.17909 0.0
C209 C 0.18711 0.61719 0.2126 0.0
H210 H 0.22168 0.54464 0.25679 0.0
H211 H 0.21986 0.47204 0.1686 0.0
H212 H 0.09454 0.68648 0.95323 0.0
H213 H 0.12594 0.706 0.0945 0.0
H214 H 0.16592 0.68191 0.21557 0.0
H215 H 0.20061 0.62345 0.27437 0.0
C216 C 0.59426 0.04159 0.29609 0.0
C217 C 0.5647 0.02066 0.22425 0.0
C218 C 0.56673 0.03807 0.36798 0.0
C219 C 0.50869 1.01259 0.37056 0.0
H220 H 0.63906 0.06108 0.29663 0.0
H221 H 0.59102 0.05576 0.42171 0.0
S222 S 0.41208 0.94789 0.20053 0.0
N223 N 0.47421 0.97098 0.16105 0.0
N224 N 0.42236 0.96439 0.2964 0.0
C225 C 0.47855 0.99006 0.29985 0.0
C226 C 0.50659 0.99366 0.22665 0.0
C227 C 0.59516 0.59557 0.46068 0.0
C228 C 0.58372 0.56589 0.38847 0.0
C229 C 0.57102 0.56853 0.53281 0.0
C230 C 0.5347 0.511 0.53484 0.0
H231 H 0.62323 0.64001 0.46142 0.0
H232 H 0.58064 0.59276 0.5872 0.0
S233 S 0.49394 0.41414 0.36346 0.0
N234 N 0.53625 0.47565 0.32425 0.0
N235 N 0.48967 0.42488 0.45973 0.0
C236 C 0.52361 0.48073 0.46349 0.0
C237 C 0.54879 0.50815 0.39029 0.0
C238 C 0.05072 0.57363 0.70328 0.0
C239 C 0.07668 0.54153 0.70539 0.0
C240 C 0.04693 0.59778 0.63167 0.0
C241 C 0.06812 0.5898 0.5597 0.0
H242 H 0.03301 0.57988 0.7572 0.0
H243 H 1.02713 0.6228 0.63254 0.0
S244 S 0.14167 0.51092 0.53466 0.0
N245 N 0.12532 0.50427 0.63059 0.0
N246 N 0.11814 0.54975 0.49572 0.0
C247 C 0.09544 0.55901 0.56159 0.0
C248 C 0.09932 0.53442 0.6345 0.0
C249 C 0.52375 0.05448 0.86845 0.0
C250 C 0.58136 0.07646 0.87128 0.0
C251 C 0.497 0.05143 0.79595 0.0
C252 C 0.52699 0.06998 0.72404 0.0
H253 H 0.49918 0.03908 0.92241 0.0
H254 H 0.45247 0.03435 0.79608 0.0
S255 S 0.67908 0.13419 0.70118 0.0
N256 N 0.66792 0.1189 0.79734 0.0
N257 N 0.61764 0.11422 0.66108 0.0
C258 C 0.58482 0.09374 0.72669 0.0
C259 C 0.61199 0.09631 0.80035 0.0
C260 C 0.55741 0.60792 0.9653 0.0
C261 C 0.54676 0.57828 0.0374 0.0
C262 C 0.53304 0.58049 0.89318 0.0
C263 C 0.49868 0.52253 0.89093 0.0
H264 H 0.58459 0.6525 0.96479 0.0
H265 H 0.54191 0.60453 0.83872 0.0
S266 S 0.45359 0.42732 0.06501 0.0
N267 N 0.49708 0.4888 0.10307 0.0
N268 N 0.45096 0.43733 0.96811 0.0
C269 C 0.48657 0.49287 0.96312 0.0
C270 C 0.51099 0.52074 0.03627 0.0
C271 C 1.00523 0.54213 0.06401 0.0
C272 C 1.02476 0.50439 0.06166 0.0
C273 C 1.0032 0.56663 0.13655 0.0
C274 C 1.01895 0.55265 0.20894 0.0
H275 H 0.99229 0.55336 1.00942 0.0
H276 H 0.9886 0.59612 0.13624 0.0
S277 S 0.06665 0.45115 0.23555 0.0
N278 N 0.0558 0.4509 0.1384 0.0
N279 N 0.05217 0.49699 0.27418 0.0
C280 C 0.03692 0.5138 0.20744 0.0
C281 C 0.0395 0.48939 0.13387 0.0
C282 C 0.66244 0.81434 0.07214 0.0
C283 C 0.682 0.809 0.14704 0.0
C284 C 0.66834 0.86517 0.0474 0.0
C285 C 0.69287 0.91212 0.09764 0.0
H286 H 0.63961 0.7782 0.0344 0.0
H287 H 0.65004 0.86645 0.99085 0.0
S288 S 0.75585 0.92022 0.29654 0.0
N289 N 0.73124 0.85523 0.26817 0.0
N290 N 0.74165 0.95077 0.22296 0.0
C291 C 0.71577 0.90794 0.17067 0.0
C292 C 0.71033 0.85627 0.19519 0.0
C293 C 0.88824 0.65558 0.24405 0.0
C294 C 0.91481 0.6785 0.31697 0.0
C295 C 0.84326 0.66099 0.21815 0.0
C296 C 0.82233 0.6883 0.26538 0.0
H297 H 0.90066 0.63104 0.20863 0.0
H298 H 0.82262 0.64047 0.16317 0.0
S299 S 0.88093 0.75925 0.45869 0.0
N300 N 0.92038 0.73298 0.43325 0.0
N301 N 0.83499 0.74231 0.38604 0.0
C302 C 0.85067 0.71394 0.33658 0.0
C303 C 0.89707 0.70912 0.36213 0.0
C304 C 0.18812 0.83905 0.52605 0.0
C305 C 0.17628 0.82699 0.44423 0.0
C306 C 0.23913 0.88319 0.55154 0.0
C307 C 0.27976 0.91781 0.49636 0.0
H308 H 0.15938 0.81209 0.57119 0.0
H309 H 0.24769 0.88872 0.61502 0.0
S310 S 0.2668 0.9096 0.27581 0.0
N311 N 0.20763 0.85713 0.308 0.0
N312 N 0.3031 0.94106 0.35666 0.0
C313 C 0.26695 0.90931 0.41461 0.0
C314 C 0.21527 0.86365 0.38834 0.0
C315 C 0.42981 0.27745 0.57272 0.0
C316 C 0.40974 0.28209 0.64754 0.0
C317 C 0.42444 0.22695 0.5474 0.0
C318 C 0.39993 0.17965 0.59695 0.0
H319 H 0.45237 0.31381 0.53534 0.0
H320 H 0.44297 0.22615 0.49087 0.0
S321 S 0.33643 0.16995 0.79584 0.0
N322 N 0.36061 0.23502 0.76821 0.0
N323 N 0.35106 0.14007 0.72189 0.0
C324 C 0.37677 0.18322 0.67007 0.0
C325 C 0.38171 0.23455 0.69519 0.0
C326 C 0.20655 0.40039 0.88302 0.0
C327 C 0.17202 0.40718 0.82855 0.0
C328 C 0.25054 0.39365 0.85666 0.0
C329 C 0.26246 0.39468 0.77465 0.0
H330 H 0.20112 0.40282 0.94666 0.0
H331 H 0.27756 0.39141 0.90129 0.0
S332 S 0.17957 0.40413 0.6078 0.0
N333 N 0.14844 0.40847 0.68928 0.0
N334 N 0.23198 0.39699 0.63896 0.0
C335 C 0.2257 0.3975 0.71943 0.0
C336 C 0.18025 0.40349 0.74658 0.0
C337 C 0.86502 0.24262 0.88625 0.0
C338 C 0.91155 0.26741 0.93732 0.0
C339 C 0.81453 0.19744 0.91167 0.0
C340 C 0.80905 0.17488 0.9884 0.0
H341 H 0.8664 0.26028 0.82801 0.0
H342 H 0.77874 0.18204 0.87269 0.0
S343 S 0.91916 0.21914 0.14158 0.0
N344 N 0.94964 0.262 0.06602 0.0
N345 N 0.85471 0.17676 0.11268 0.0
C346 C 0.85588 0.19641 0.03792 0.0
C347 C 0.90725 0.24268 1.01253 0.0
loop_
_geom_bond_atom_site_label_1
_geom_bond_atom_site_label_2
_geom_bond_distance
_geom_bond_site_symmetry_2
_ccdc_geom_bond_type
Mn0 O5 2.095 1_554 S
Mn0 O15 2.162 1_545 S
Mn0 O16 2.297 1_545 S
Mn0 O24 2.385 1_545 S
Mn0 O25 2.209 . S
Mn0 O26 2.094 1_544 S
Mn1 O6 2.121 . S
Mn1 N8 2.257 . S
Mn1 N17 2.282 . S
Mn1 O25 2.215 . S
Mn1 O27 2.117 1_554 S
C2 O24 1.234 1_545 S
C2 O25 1.283 . S
C3 O15 1.281 . S
C3 O16 1.236 . S
C4 O26 1.240 1_545 S
C4 O27 1.264 . S
O5 Mn0 2.095 1_556 S
O5 C14 1.250 1_556 S
O6 Mn1 2.121 . S
O6 C14 1.258 . S
C7 N8 1.326 . S
C7 C11 1.460 . S
C7 H13 0.929 . S
N8 Mn1 2.257 . S
N8 C7 1.326 . S
N8 C12 1.362 . S
C9 C10 1.258 . S
C9 C12 1.431 . S
C9 C29 1.449 . S
C10 C9 1.258 . S
C10 C11 1.477 . S
C10 H30 0.931 . S
C11 C7 1.460 . S
C11 C10 1.477 . S
C11 H31 0.930 . S
C12 N8 1.362 . S
C12 C9 1.431 . S
C12 C22 1.476 . S
H13 C7 0.929 . S
C14 O5 1.250 1_554 S
C14 O6 1.258 . S
O15 Mn0 2.162 1_565 S
O15 C3 1.281 . S
O16 Mn0 2.297 1_565 S
O16 C3 1.236 . S
N17 Mn1 2.282 . S
N17 C18 1.328 . S
N17 C22 1.318 . S
C18 N17 1.328 . S
C18 C19 1.457 . S
C18 H23 0.929 . S
C19 C18 1.457 . S
C19 C20 1.291 . S
C19 H32 0.931 . S
C20 C19 1.291 . S
C20 C21 1.373 . S
C20 H33 0.929 . S
C21 C20 1.373 . S
C21 C22 1.396 . S
C21 C28 1.403 . S
C22 C12 1.476 . S
C22 N17 1.318 . S
C22 C21 1.396 . S
H23 C18 0.929 . S
O24 Mn0 2.385 1_565 S
O24 C2 1.234 1_565 S
O25 Mn0 2.209 . S
O25 Mn1 2.215 . S
O25 C2 1.283 . S
O26 Mn0 2.094 1_566 S
O26 C4 1.240 1_565 S
O27 Mn1 2.117 1_556 S
O27 C4 1.264 . S
C28 C21 1.403 . S
C28 C29 1.399 . S
C28 H34 0.929 . S
C29 C9 1.449 . S
C29 C28 1.399 . S
C29 H35 0.930 . S
H30 C10 0.931 . S
H31 C11 0.930 . S
H32 C19 0.931 . S
H33 C20 0.929 . S
H34 C28 0.929 . S
H35 C29 0.930 . S
Mn36 O41 2.095 . S
Mn36 O51 2.162 . S
Mn36 O52 2.297 . S
Mn36 O60 2.385 . S
Mn36 O61 2.209 . S
Mn36 O62 2.094 . S
Mn37 O42 2.121 . S
Mn37 N44 2.257 . S
Mn37 N53 2.282 . S
Mn37 O61 2.215 . S
Mn37 O63 2.117 . S
C38 O60 1.234 . S
C38 O61 1.283 . S
C39 O51 1.281 . S
C39 O52 1.236 . S
C40 O62 1.240 . S
C40 O63 1.264 . S
O41 Mn36 2.095 . S
O41 C50 1.250 . S
O42 Mn37 2.121 . S
O42 C50 1.258 . S
C43 N44 1.326 . S
C43 C47 1.460 . S
C43 H49 0.929 . S
N44 Mn37 2.257 . S
N44 C43 1.326 . S
N44 C48 1.362 . S
C45 C46 1.258 . S
C45 C48 1.431 . S
C45 C65 1.449 . S
C46 C45 1.258 . S
C46 C47 1.477 . S
C46 H66 0.931 . S
C47 C43 1.460 . S
C47 C46 1.477 . S
C47 H67 0.930 . S
C48 N44 1.362 . S
C48 C45 1.431 . S
C48 C58 1.476 . S
H49 C43 0.929 . S
C50 O41 1.250 . S
C50 O42 1.258 . S
O51 Mn36 2.162 . S
O51 C39 1.281 . S
O52 Mn36 2.297 . S
O52 C39 1.236 . S
N53 Mn37 2.282 . S
N53 C54 1.328 . S
N53 C58 1.318 . S
C54 N53 1.328 . S
C54 C55 1.457 . S
C54 H59 0.929 . S
C55 C54 1.457 . S
C55 C56 1.291 . S
C55 H68 0.931 . S
C56 C55 1.291 . S
C56 C57 1.373 . S
C56 H69 0.929 . S
C57 C56 1.373 . S
C57 C58 1.396 . S
C57 C64 1.403 . S
C58 C48 1.476 . S
C58 N53 1.318 . S
C58 C57 1.396 . S
H59 C54 0.929 . S
O60 Mn36 2.385 . S
O60 C38 1.234 . S
O61 Mn36 2.209 . S
O61 Mn37 2.215 . S
O61 C38 1.283 . S
O62 Mn36 2.094 . S
O62 C40 1.240 . S
O63 Mn37 2.117 . S
O63 C40 1.264 . S
C64 C57 1.403 . S
C64 C65 1.399 . S
C64 H70 0.929 . S
C65 C45 1.449 . S
C65 C64 1.399 . S
C65 H71 0.930 . S
H66 C46 0.931 . S
H67 C47 0.930 . S
H68 C55 0.931 . S
H69 C56 0.929 . S
H70 C64 0.929 . S
H71 C65 0.930 . S
Mn72 O77 2.095 1_455 S
Mn72 O87 2.162 . S
Mn72 O88 2.297 . S
Mn72 O96 2.385 . S
Mn72 O97 2.209 1_455 S
Mn72 O98 2.094 . S
Mn73 O78 2.121 . S
Mn73 N80 2.257 . S
Mn73 N89 2.282 . S
Mn73 O97 2.215 . S
Mn73 O99 2.117 . S
C74 O96 1.234 . S
C74 O97 1.283 1_455 S
C75 O87 1.281 . S
C75 O88 1.236 . S
C76 O98 1.240 . S
C76 O99 1.264 1_455 S
O77 Mn72 2.095 1_655 S
O77 C86 1.250 . S
O78 Mn73 2.121 . S
O78 C86 1.258 . S
C79 N80 1.326 . S
C79 C83 1.460 . S
C79 H85 0.929 . S
N80 Mn73 2.257 . S
N80 C79 1.326 . S
N80 C84 1.362 . S
C81 C82 1.258 . S
C81 C84 1.431 . S
C81 C101 1.449 . S
C82 C81 1.258 . S
C82 C83 1.477 . S
C82 H102 0.931 . S
C83 C79 1.460 . S
C83 C82 1.477 . S
C83 H103 0.930 . S
C84 N80 1.362 . S
C84 C81 1.431 . S
C84 C94 1.476 . S
H85 C79 0.929 . S
C86 O77 1.250 . S
C86 O78 1.258 . S
O87 Mn72 2.162 . S
O87 C75 1.281 . S
O88 Mn72 2.297 . S
O88 C75 1.236 . S
N89 Mn73 2.282 . S
N89 C90 1.328 . S
N89 C94 1.318 . S
C90 N89 1.328 . S
C90 C91 1.457 . S
C90 H95 0.929 . S
C91 C90 1.457 . S
C91 C92 1.291 . S
C91 H104 0.931 . S
C92 C91 1.291 . S
C92 C93 1.373 . S
C92 H105 0.929 . S
C93 C92 1.373 . S
C93 C94 1.396 . S
C93 C100 1.403 . S
C94 C84 1.476 . S
C94 N89 1.318 . S
C94 C93 1.396 . S
H95 C90 0.929 . S
O96 Mn72 2.385 . S
O96 C74 1.234 . S
O97 Mn72 2.209 1_655 S
O97 Mn73 2.215 . S
O97 C74 1.283 1_655 S
O98 Mn72 2.094 . S
O98 C76 1.240 . S
O99 Mn73 2.117 . S
O99 C76 1.264 1_655 S
C100 C93 1.403 . S
C100 C101 1.399 . S
C100 H106 0.929 . S
C101 C81 1.449 . S
C101 C100 1.399 . S
C101 H107 0.930 . S
H102 C82 0.931 . S
H103 C83 0.930 . S
H104 C91 0.931 . S
H105 C92 0.929 . S
H106 C100 0.929 . S
H107 C101 0.930 . S
Mn108 O113 2.095 1_545 S
Mn108 O123 2.162 . S
Mn108 O124 2.297 . S
Mn108 O132 2.385 . S
Mn108 O133 2.209 1_545 S
Mn108 O134 2.094 . S
Mn109 O114 2.121 . S
Mn109 N116 2.257 . S
Mn109 N125 2.282 . S
Mn109 O133 2.215 . S
Mn109 O135 2.117 . S
C110 O132 1.234 . S
C110 O133 1.283 1_545 S
C111 O123 1.281 . S
C111 O124 1.236 . S
C112 O134 1.240 . S
C112 O135 1.264 1_545 S
O113 Mn108 2.095 1_565 S
O113 C122 1.250 . S
O114 Mn109 2.121 . S
O114 C122 1.258 . S
C115 N116 1.326 . S
C115 C119 1.460 . S
C115 H121 0.929 . S
N116 Mn109 2.257 . S
N116 C115 1.326 . S
N116 C120 1.362 . S
C117 C118 1.258 . S
C117 C120 1.431 . S
C117 C137 1.449 . S
C118 C117 1.258 . S
C118 C119 1.477 . S
C118 H138 0.931 . S
C119 C115 1.460 . S
C119 C118 1.477 . S
C119 H139 0.930 . S
C120 N116 1.362 . S
C120 C117 1.431 . S
C120 C130 1.476 . S
H121 C115 0.929 . S
C122 O113 1.250 . S
C122 O114 1.258 . S
O123 Mn108 2.162 . S
O123 C111 1.281 . S
O124 Mn108 2.297 . S
O124 C111 1.236 . S
N125 Mn109 2.282 . S
N125 C126 1.328 . S
N125 C130 1.318 . S
C126 N125 1.328 . S
C126 C127 1.457 . S
C126 H131 0.929 . S
C127 C126 1.457 . S
C127 C128 1.291 . S
C127 H140 0.931 1_565 S
C128 C127 1.291 . S
C128 C129 1.373 . S
C128 H141 0.929 . S
C129 C128 1.373 . S
C129 C130 1.396 . S
C129 C136 1.403 . S
C130 C120 1.476 . S
C130 N125 1.318 . S
C130 C129 1.396 . S
H131 C126 0.929 . S
O132 Mn108 2.385 . S
O132 C110 1.234 . S
O133 Mn108 2.209 1_565 S
O133 Mn109 2.215 . S
O133 C110 1.283 1_565 S
O134 Mn108 2.094 . S
O134 C112 1.240 . S
O135 Mn109 2.117 . S
O135 C112 1.264 1_565 S
C136 C129 1.403 . S
C136 C137 1.399 . S
C136 H142 0.929 . S
C137 C117 1.449 . S
C137 C136 1.399 . S
C137 H143 0.930 . S
H138 C118 0.931 . S
H139 C119 0.930 . S
H140 C127 0.931 1_545 S
H141 C128 0.929 . S
H142 C136 0.929 . S
H143 C137 0.930 . S
Mn144 O149 2.095 . S
Mn144 O159 2.162 . S
Mn144 O160 2.297 . S
Mn144 O168 2.385 . S
Mn144 O169 2.209 . S
Mn144 O170 2.094 . S
Mn145 O150 2.121 . S
Mn145 N152 2.257 . S
Mn145 N161 2.282 . S
Mn145 O169 2.215 . S
Mn145 O171 2.117 . S
C146 O168 1.234 . S
C146 O169 1.283 . S
C147 O159 1.281 . S
C147 O160 1.236 . S
C148 O170 1.240 . S
C148 O171 1.264 . S
O149 Mn144 2.095 . S
O149 C158 1.250 . S
O150 Mn145 2.121 . S
O150 C158 1.258 . S
C151 N152 1.326 . S
C151 C155 1.460 . S
C151 H157 0.929 . S
N152 Mn145 2.257 . S
N152 C151 1.326 . S
N152 C156 1.362 . S
C153 C154 1.258 . S
C153 C156 1.431 . S
C153 C173 1.449 . S
C154 C153 1.258 . S
C154 C155 1.477 . S
C154 H174 0.931 . S
C155 C151 1.460 . S
C155 C154 1.477 . S
C155 H175 0.930 . S
C156 N152 1.362 . S
C156 C153 1.431 . S
C156 C166 1.476 . S
H157 C151 0.929 . S
C158 O149 1.250 . S
C158 O150 1.258 . S
O159 Mn144 2.162 . S
O159 C147 1.281 . S
O160 Mn144 2.297 . S
O160 C147 1.236 . S
N161 Mn145 2.282 . S
N161 C162 1.328 . S
N161 C166 1.318 . S
C162 N161 1.328 . S
C162 C163 1.457 . S
C162 H167 0.929 . S
C163 C162 1.457 . S
C163 C164 1.291 . S
C163 H176 0.931 . S
C164 C163 1.291 . S
C164 C165 1.373 . S
C164 H177 0.929 . S
C165 C164 1.373 . S
C165 C166 1.396 . S
C165 C172 1.403 . S
C166 C156 1.476 . S
C166 N161 1.318 . S
C166 C165 1.396 . S
H167 C162 0.929 . S
O168 Mn144 2.385 . S
O168 C146 1.234 . S
O169 Mn144 2.209 . S
O169 Mn145 2.215 . S
O169 C146 1.283 . S
O170 Mn144 2.094 . S
O170 C148 1.240 . S
O171 Mn145 2.117 . S
O171 C148 1.264 . S
C172 C165 1.403 . S
C172 C173 1.399 . S
C172 H178 0.929 . S
C173 C153 1.449 . S
C173 C172 1.399 . S
C173 H179 0.930 1_556 S
H174 C154 0.931 . S
H175 C155 0.930 . S
H176 C163 0.931 . S
H177 C164 0.929 . S
H178 C172 0.929 . S
H179 C173 0.930 1_554 S
Mn180 O185 2.095 1_655 S
Mn180 O195 2.162 . S
Mn180 O196 2.297 . S
Mn180 O204 2.385 . S
Mn180 O205 2.209 1_655 S
Mn180 O206 2.094 . S
Mn181 O186 2.121 . S
Mn181 N188 2.257 1_556 S
Mn181 N197 2.282 . S
Mn181 O205 2.215 . S
Mn181 O207 2.117 . S
C182 O204 1.239 1_455 S
C182 O205 1.289 . S
C183 O195 1.281 . S
C183 O196 1.236 . S
C184 O206 1.240 1_455 S
C184 O207 1.264 . S
O185 Mn180 2.095 1_455 S
O185 C194 1.250 . S
O186 Mn181 2.121 . S
O186 C194 1.258 . S
C187 N188 1.326 . S
C187 C191 1.460 . S
C187 H193 0.929 . S
N188 Mn181 2.257 1_554 S
N188 C187 1.326 . S
N188 C192 1.362 . S
C189 C190 1.258 . S
C189 C192 1.431 . S
C189 C209 1.449 . S
C190 C189 1.258 . S
C190 C191 1.477 . S
C190 H210 0.931 . S
C191 C187 1.460 . S
C191 C190 1.477 . S
C191 H211 0.930 . S
C192 N188 1.362 . S
C192 C189 1.431 . S
C192 C202 1.476 . S
H193 C187 0.929 . S
C194 O185 1.250 . S
C194 O186 1.258 . S
O195 Mn180 2.162 . S
O195 C183 1.281 . S
O196 Mn180 2.297 . S
O196 C183 1.236 . S
N197 Mn181 2.282 . S
N197 C198 1.328 . S
N197 C202 1.318 1_556 S
C198 N197 1.328 . S
C198 C199 1.457 . S
C198 H203 0.929 . S
C199 C198 1.457 . S
C199 C200 1.291 1_556 S
C199 H212 0.931 . S
C200 C199 1.291 1_554 S
C200 C201 1.373 . S
C200 H213 0.929 . S
C201 C200 1.373 . S
C201 C202 1.396 . S
C201 C208 1.403 . S
C202 C192 1.476 . S
C202 N197 1.318 1_554 S
C202 C201 1.396 . S
H203 C198 0.929 . S
O204 Mn180 2.385 . S
O204 C182 1.239 1_655 S
O205 Mn180 2.209 1_455 S
O205 Mn181 2.215 . S
O205 C182 1.289 . S
O206 Mn180 2.094 . S
O206 C184 1.240 1_655 S
O207 Mn181 2.117 . S
O207 C184 1.264 . S
C208 C201 1.403 . S
C208 C209 1.399 . S
C208 H214 0.929 . S
C209 C189 1.449 . S
C209 C208 1.399 . S
C209 H215 0.930 . S
H210 C190 0.931 . S
H211 C191 0.930 . S
H212 C199 0.931 . S
H213 C200 0.929 . S
H214 C208 0.929 . S
H215 C209 0.930 . S
C216 C217 1.369 . S
C216 C218 1.419 . S
C216 H220 0.930 . S
C217 C216 1.369 . S
C217 C226 1.429 1_545 S
C218 C216 1.419 . S
C218 C219 1.363 . S
C218 H221 0.929 . S
C219 C218 1.363 . S
C219 C225 1.428 1_545 S
H220 C216 0.930 . S
H221 C218 0.929 . S
S222 N223 1.613 . S
S222 N224 1.610 . S
N223 S222 1.613 . S
N223 C226 1.350 . S
N224 S222 1.610 . S
N224 C225 1.351 . S
C225 C219 1.428 1_565 S
C225 N224 1.351 . S
C225 C226 1.434 . S
C226 C217 1.429 1_565 S
C226 N223 1.350 . S
C226 C225 1.434 . S
C227 C228 1.369 . S
C227 C229 1.419 . S
C227 H231 0.930 . S
C228 C227 1.369 . S
C228 C237 1.429 . S
C229 C227 1.419 . S
C229 C230 1.363 . S
C229 H232 0.929 . S
C230 C229 1.363 . S
C230 C236 1.428 . S
H231 C227 0.930 . S
H232 C229 0.929 . S
S233 N234 1.613 . S
S233 N235 1.610 . S
N234 S233 1.613 . S
N234 C237 1.350 . S
N235 S233 1.610 . S
N235 C236 1.351 . S
C236 C230 1.428 . S
C236 N235 1.351 . S
C236 C237 1.434 . S
C237 C228 1.429 . S
C237 N234 1.350 . S
C237 C236 1.434 . S
C238 C239 1.369 1_655 S
C238 C240 1.419 . S
C238 H242 0.930 . S
C239 C238 1.369 1_455 S
C239 C248 1.429 . S
C240 C238 1.419 . S
C240 C241 1.363 1_655 S
C240 H243 0.929 . S
C241 C240 1.363 1_455 S
C241 C247 1.428 . S
H242 C238 0.930 . S
H243 C240 0.929 . S
S244 N245 1.613 . S
S244 N246 1.610 . S
N245 S244 1.613 . S
N245 C248 1.350 . S
N246 S244 1.610 . S
N246 C247 1.351 . S
C247 C241 1.428 . S
C247 N246 1.351 . S
C247 C248 1.434 . S
C248 C239 1.429 . S
C248 N245 1.350 . S
C248 C247 1.434 . S
C249 C250 1.369 1_565 S
C249 C251 1.419 . S
C249 H253 0.930 . S
C250 C249 1.369 1_545 S
C250 C259 1.429 . S
C251 C249 1.419 . S
C251 C252 1.363 1_565 S
C251 H254 0.929 . S
C252 C251 1.363 1_545 S
C252 C258 1.428 . S
H253 C249 0.930 . S
H254 C251 0.929 . S
S255 N256 1.613 . S
S255 N257 1.610 . S
N256 S255 1.613 . S
N256 C259 1.350 . S
N257 S255 1.610 . S
N257 C258 1.351 . S
C258 C252 1.428 . S
C258 N257 1.351 . S
C258 C259 1.434 . S
C259 C250 1.429 . S
C259 N256 1.350 . S
C259 C258 1.434 . S
C260 C261 1.369 1_556 S
C260 C262 1.419 . S
C260 H264 0.930 . S
C261 C260 1.369 1_554 S
C261 C270 1.429 . S
C262 C260 1.419 . S
C262 C263 1.363 . S
C262 H265 0.929 . S
C263 C262 1.363 . S
C263 C269 1.428 . S
H264 C260 0.930 . S
H265 C262 0.929 . S
S266 N267 1.613 . S
S266 N268 1.610 . S
N267 S266 1.613 . S
N267 C270 1.350 . S
N268 S266 1.610 . S
N268 C269 1.351 1_554 S
C269 C263 1.428 . S
C269 N268 1.351 1_556 S
C269 C270 1.434 1_556 S
C270 C261 1.429 . S
C270 N267 1.350 . S
C270 C269 1.434 1_554 S
C271 C272 1.369 1_655 S
C271 C273 1.419 . S
C271 H275 0.930 . S
C272 C271 1.369 1_455 S
C272 C281 1.429 . S
C273 C271 1.419 . S
C273 C274 1.363 1_655 S
C273 H276 0.929 . S
C274 C273 1.363 1_455 S
C274 C280 1.428 . S
H275 C271 0.930 . S
H276 C273 0.929 . S
S277 N278 1.613 . S
S277 N279 1.610 . S
N278 S277 1.613 . S
N278 C281 1.350 . S
N279 S277 1.610 . S
N279 C280 1.351 . S
C280 C274 1.428 . S
C280 N279 1.351 . S
C280 C281 1.434 . S
C281 C272 1.429 . S
C281 N278 1.350 . S
C281 C280 1.434 . S
C282 C283 1.369 . S
C282 C284 1.419 . S
C282 H286 0.930 . S
C283 C282 1.369 . S
C283 C292 1.429 . S
C284 C282 1.419 . S
C284 C285 1.363 . S
C284 H287 0.929 . S
C285 C284 1.363 . S
C285 C291 1.428 . S
H286 C282 0.930 . S
H287 C284 0.929 . S
S288 N289 1.613 . S
S288 N290 1.610 . S
N289 S288 1.613 . S
N289 C292 1.350 . S
N290 S288 1.610 . S
N290 C291 1.351 . S
C291 C285 1.428 . S
C291 N290 1.351 . S
C291 C292 1.434 . S
C292 C283 1.429 . S
C292 N289 1.350 . S
C292 C291 1.434 . S
C293 C294 1.369 . S
C293 C295 1.419 . S
C293 H297 0.930 . S
C294 C293 1.369 . S
C294 C303 1.429 . S
C295 C293 1.419 . S
C295 C296 1.363 . S
C295 H298 0.929 . S
C296 C295 1.363 . S
C296 C302 1.428 . S
H297 C293 0.930 . S
H298 C295 0.929 . S
S299 N300 1.613 . S
S299 N301 1.610 . S
N300 S299 1.613 . S
N300 C303 1.350 . S
N301 S299 1.610 . S
N301 C302 1.351 . S
C302 C296 1.428 . S
C302 N301 1.351 . S
C302 C303 1.434 . S
C303 C294 1.429 . S
C303 N300 1.350 . S
C303 C302 1.434 . S
C304 C305 1.369 . S
C304 C306 1.419 . S
C304 H308 0.930 . S
C305 C304 1.369 . S
C305 C314 1.429 . S
C306 C304 1.419 . S
C306 C307 1.363 . S
C306 H309 0.929 . S
C307 C306 1.363 . S
C307 C313 1.428 . S
H308 C304 0.930 . S
H309 C306 0.929 . S
S310 N311 1.613 . S
S310 N312 1.610 . S
N311 S310 1.613 . S
N311 C314 1.350 . S
N312 S310 1.610 . S
N312 C313 1.351 . S
C313 C307 1.428 . S
C313 N312 1.351 . S
C313 C314 1.434 . S
C314 C305 1.429 . S
C314 N311 1.350 . S
C314 C313 1.434 . S
C315 C316 1.369 . S
C315 C317 1.419 . S
C315 H319 0.930 . S
C316 C315 1.369 . S
C316 C325 1.429 . S
C317 C315 1.419 . S
C317 C318 1.363 . S
C317 H320 0.929 . S
C318 C317 1.363 . S
C318 C324 1.428 . S
H319 C315 0.930 . S
H320 C317 0.929 . S
S321 N322 1.613 . S
S321 N323 1.610 . S
N322 S321 1.613 . S
N322 C325 1.350 . S
N323 S321 1.610 . S
N323 C324 1.351 . S
C324 C318 1.428 . S
C324 N323 1.351 . S
C324 C325 1.434 . S
C325 C316 1.429 . S
C325 N322 1.350 . S
C325 C324 1.434 . S
C326 C327 1.369 . S
C326 C328 1.419 . S
C326 H330 0.930 . S
C327 C326 1.369 . S
C327 C336 1.429 . S
C328 C326 1.419 . S
C328 C329 1.363 . S
C328 H331 0.929 . S
C329 C328 1.363 . S
C329 C335 1.428 . S
H330 C326 0.930 . S
H331 C328 0.929 . S
S332 N333 1.613 . S
S332 N334 1.610 . S
N333 S332 1.613 . S
N333 C336 1.350 . S
N334 S332 1.610 . S
N334 C335 1.351 . S
C335 C329 1.428 . S
C335 N334 1.351 . S
C335 C336 1.434 . S
C336 C327 1.429 . S
C336 N333 1.350 . S
C336 C335 1.434 . S
C337 C338 1.369 . S
C337 C339 1.419 . S
C337 H341 0.930 . S
C338 C337 1.369 . S
C338 C347 1.429 1_556 S
C339 C337 1.419 . S
C339 C340 1.363 1_556 S
C339 H342 0.929 . S
C340 C339 1.363 1_554 S
C340 C346 1.428 . S
H341 C337 0.930 . S
H342 C339 0.929 . S
S343 N344 1.613 . S
S343 N345 1.610 . S
N344 S343 1.613 . S
N344 C347 1.350 . S
N345 S343 1.610 . S
N345 C346 1.351 . S
C346 C340 1.428 . S
C346 N345 1.351 . S
C346 C347 1.434 . S
C347 C338 1.429 1_554 S
C347 N344 1.350 . S
C347 C346 1.434 . S
C217 C2 1.561 . S
C219 C112 1.570 . S
C228 C38 1.562 . S
C230 C148 1.571 . S
C239 C184 1.569 . S
C241 C74 1.561 . S
C250 C4 1.568 . S
C252 C110 1.562 . S
C261 C40 1.568 . S
C263 C146 1.565 . S
C272 C182 1.554 1_554 S
C274 C76 1.568 . S
C283 C50 1.353 . S
C285 C3 1.420 . S
C294 C86 1.351 . S
C296 C39 1.420 . S
C305 C75 1.417 . S
C307 C122 1.345 . S
C316 C158 1.351 . S
C318 C111 1.420 . S
C327 C194 1.353 . S
C329 C147 1.419 . S
C338 C183 1.420 . S
C340 C14 1.353 . S
