# Generated by pormake.
# Topology uoh, (4)-cn, num edge types: 1
# Building blocks:
#     Node 0, Type 0, BuildingBlock: TATPOV_clean_sbu_0, # of connection points: 4
#     Node 1, Type 0, BuildingBlock: TATPOV_clean_sbu_0, # of connection points: 4
#     Node 2, Type 0, BuildingBlock: TATPOV_clean_sbu_0, # of connection points: 4
#     Node 3, Type 0, BuildingBlock: TATPOV_clean_sbu_0, # of connection points: 4
#     Node 4, Type 0, BuildingBlock: TATPOV_clean_sbu_0, # of connection points: 4
#     Node 5, Type 0, BuildingBlock: TATPOV_clean_sbu_0, # of connection points: 4
#     Node 6, Type 0, BuildingBlock: TATPOV_clean_sbu_0, # of connection points: 4
#     Node 7, Type 0, BuildingBlock: TATPOV_clean_sbu_0, # of connection points: 4
#     Node 8, Type 0, BuildingBlock: TATPOV_clean_sbu_0, # of connection points: 4
#     Node 9, Type 0, BuildingBlock: TATPOV_clean_sbu_0, # of connection points: 4
#     Node 10, Type 0, BuildingBlock: TATPOV_clean_sbu_0, # of connection points: 4
#     Node 11, Type 0, BuildingBlock: TATPOV_clean_sbu_0, # of connection points: 4
#     Node 12, Type 0, BuildingBlock: TATPOV_clean_sbu_0, # of connection points: 4
#     Node 13, Type 0, BuildingBlock: TATPOV_clean_sbu_0, # of connection points: 4
#     Node 14, Type 0, BuildingBlock: TATPOV_clean_sbu_0, # of connection points: 4
#     Node 15, Type 0, BuildingBlock: TATPOV_clean_sbu_0, # of connection points: 4
#     Node 16, Type 0, BuildingBlock: TATPOV_clean_sbu_0, # of connection points: 4
#     Node 17, Type 0, BuildingBlock: TATPOV_clean_sbu_0, # of connection points: 4
#     Node 18, Type 0, BuildingBlock: TATPOV_clean_sbu_0, # of connection points: 4
#     Node 19, Type 0, BuildingBlock: TATPOV_clean_sbu_0, # of connection points: 4
#     Node 20, Type 0, BuildingBlock: TATPOV_clean_sbu_0, # of connection points: 4
#     Node 21, Type 0, BuildingBlock: TATPOV_clean_sbu_0, # of connection points: 4
#     Node 22, Type 0, BuildingBlock: TATPOV_clean_sbu_0, # of connection points: 4
#     Node 23, Type 0, BuildingBlock: TATPOV_clean_sbu_0, # of connection points: 4
#     Node 24, Type 0, BuildingBlock: TATPOV_clean_sbu_0, # of connection points: 4
#     Node 25, Type 0, BuildingBlock: TATPOV_clean_sbu_0, # of connection points: 4
#     Node 26, Type 0, BuildingBlock: TATPOV_clean_sbu_0, # of connection points: 4
#     Node 27, Type 0, BuildingBlock: TATPOV_clean_sbu_0, # of connection points: 4
#     Node 28, Type 0, BuildingBlock: TATPOV_clean_sbu_0, # of connection points: 4
#     Node 29, Type 0, BuildingBlock: TATPOV_clean_sbu_0, # of connection points: 4
#     Node 30, Type 0, BuildingBlock: TATPOV_clean_sbu_0, # of connection points: 4
#     Node 31, Type 0, BuildingBlock: TATPOV_clean_sbu_0, # of connection points: 4
#     Node 32, Type 0, BuildingBlock: TATPOV_clean_sbu_0, # of connection points: 4
#     Node 33, Type 0, BuildingBlock: TATPOV_clean_sbu_0, # of connection points: 4
#     Node 34, Type 0, BuildingBlock: TATPOV_clean_sbu_0, # of connection points: 4
#     Node 35, Type 0, BuildingBlock: TATPOV_clean_sbu_0, # of connection points: 4
#     Edge 36, Type (0, 0), None
#     Edge 37, Type (0, 0), None
#     Edge 38, Type (0, 0), None
#     Edge 39, Type (0, 0), None
#     Edge 40, Type (0, 0), None
#     Edge 41, Type (0, 0), None
#     Edge 42, Type (0, 0), None
#     Edge 43, Type (0, 0), None
#     Edge 44, Type (0, 0), None
#     Edge 45, Type (0, 0), None
#     Edge 46, Type (0, 0), None
#     Edge 47, Type (0, 0), None
#     Edge 48, Type (0, 0), None
#     Edge 49, Type (0, 0), None
#     Edge 50, Type (0, 0), None
#     Edge 51, Type (0, 0), None
#     Edge 52, Type (0, 0), None
#     Edge 53, Type (0, 0), None
#     Edge 54, Type (0, 0), None
#     Edge 55, Type (0, 0), None
#     Edge 56, Type (0, 0), None
#     Edge 57, Type (0, 0), None
#     Edge 58, Type (0, 0), None
#     Edge 59, Type (0, 0), None
#     Edge 60, Type (0, 0), None
#     Edge 61, Type (0, 0), None
#     Edge 62, Type (0, 0), None
#     Edge 63, Type (0, 0), None
#     Edge 64, Type (0, 0), None
#     Edge 65, Type (0, 0), None
#     Edge 66, Type (0, 0), None
#     Edge 67, Type (0, 0), None
#     Edge 68, Type (0, 0), None
#     Edge 69, Type (0, 0), None
#     Edge 70, Type (0, 0), None
#     Edge 71, Type (0, 0), None
#     Edge 72, Type (0, 0), None
#     Edge 73, Type (0, 0), None
#     Edge 74, Type (0, 0), None
#     Edge 75, Type (0, 0), None
#     Edge 76, Type (0, 0), None
#     Edge 77, Type (0, 0), None
#     Edge 78, Type (0, 0), None
#     Edge 79, Type (0, 0), None
#     Edge 80, Type (0, 0), None
#     Edge 81, Type (0, 0), None
#     Edge 82, Type (0, 0), None
#     Edge 83, Type (0, 0), None
#     Edge 84, Type (0, 0), None
#     Edge 85, Type (0, 0), None
#     Edge 86, Type (0, 0), None
#     Edge 87, Type (0, 0), None
#     Edge 88, Type (0, 0), None
#     Edge 89, Type (0, 0), None
#     Edge 90, Type (0, 0), None
#     Edge 91, Type (0, 0), None
#     Edge 92, Type (0, 0), None
#     Edge 93, Type (0, 0), None
#     Edge 94, Type (0, 0), None
#     Edge 95, Type (0, 0), None
#     Edge 96, Type (0, 0), None
#     Edge 97, Type (0, 0), None
#     Edge 98, Type (0, 0), None
#     Edge 99, Type (0, 0), None
#     Edge 100, Type (0, 0), None
#     Edge 101, Type (0, 0), None
#     Edge 102, Type (0, 0), None
#     Edge 103, Type (0, 0), None
#     Edge 104, Type (0, 0), None
#     Edge 105, Type (0, 0), None
#     Edge 106, Type (0, 0), None
#     Edge 107, Type (0, 0), None
# Relax obj value: 0.194
# Max RMSD: 0.265
# Mean RMSD: 0.265
data_MOF--net-uoh--node1-TATPOV_clean_sbu_0--edge1-none
_symmetry_space_group_name_H-M    P1
_symmetry_Int_Tables_number       1
_symmetry_cell_setting            triclinic
loop_
_symmetry_equiv_pos_as_xyz
'x, y, z'
_cell_length_a     42.178199
_cell_length_b     42.184852
_cell_length_c     12.495213
_cell_angle_alpha  90.000315
_cell_angle_beta   89.969476
_cell_angle_gamma 119.98706
loop_
_atom_site_label
_atom_site_type_symbol
_atom_site_fract_x
_atom_site_fract_y
_atom_site_fract_z
_atom_type_partial_charge
Zn0 Zn 0.20225 0.06958 0.16277 0.0
Zn1 Zn 0.20761 0.13562 0.17385 0.0
O2 O 0.18524 0.11686 0.02604 0.0
O3 O 0.17513 0.06041 0.02178 0.0
O4 O 0.20165 0.1793 0.19971 0.0
O5 O 0.17839 0.05284 0.30952 0.0
O6 O 0.1851 0.10779 0.31223 0.0
C7 C 0.17451 0.08693 0.97602 0.0
C8 C 0.27723 0.13342 0.15423 0.0
O9 O 0.2619 0.15273 0.16482 0.0
O10 O 0.25835 0.09872 0.15257 0.0
C11 C 0.20846 0.19466 0.29111 0.0
O12 O 0.22531 0.18596 0.36373 0.0
C13 C 0.17542 0.07749 0.35852 0.0
Zn14 Zn 0.87028 0.12019 0.16164 0.0
Zn15 Zn 0.80424 0.05949 0.17295 0.0
O16 O 0.82297 0.05583 0.02504 0.0
O17 O 0.87941 0.1022 0.0206 0.0
O18 O 0.76052 0.00991 0.19915 0.0
O19 O 0.88704 0.1131 0.30836 0.0
O20 O 0.83212 0.06485 0.31118 0.0
C21 C 0.8529 0.07505 0.97492 0.0
C22 C 0.80643 0.13131 0.15329 0.0
O23 O 0.78714 0.09669 0.16395 0.0
O24 O 0.84113 0.14714 0.15152 0.0
C25 C 0.74518 0.00147 0.29064 0.0
O26 O 0.75397 0.02708 0.3631 0.0
C27 C 0.86242 0.08549 0.35739 0.0
Zn28 Zn 0.81895 0.7373 0.16259 0.0
Zn29 Zn 0.87966 0.73198 0.1736 0.0
O30 O 0.88326 0.75434 0.0257 0.0
O31 O 0.83688 0.76441 0.02151 0.0
O32 O 0.92931 0.73799 0.19965 0.0
O33 O 0.82602 0.76115 0.30929 0.0
O34 O 0.87426 0.75445 0.3119 0.0
C35 C 0.86402 0.76503 0.97569 0.0
C36 C 0.8079 0.66235 0.15416 0.0
O37 O 0.84254 0.67769 0.16469 0.0
O38 O 0.79206 0.68122 0.15251 0.0
C39 C 0.93777 0.7311 0.2911 0.0
O40 O 0.91214 0.71414 0.36349 0.0
C41 C 0.85363 0.76412 0.35823 0.0
Zn42 Zn 0.05641 0.21502 0.30096 0.0
Zn43 Zn 0.12171 0.21885 0.29026 0.0
O44 O 0.10274 0.19628 0.43792 0.0
O45 O 0.0469 0.18794 0.44219 0.0
O46 O 0.16446 0.21191 0.25984 0.0
O47 O 0.03925 0.19115 0.15442 0.0
O48 O 0.09391 0.19715 0.15173 0.0
C49 C 0.07293 0.18639 0.48793 0.0
C50 C 0.12123 0.28934 0.30959 0.0
O51 O 0.13994 0.27334 0.29993 0.0
O52 O 0.08649 0.27109 0.31052 0.0
C53 C 0.1885 0.21326 0.32344 0.0
O54 O 0.18894 0.22295 0.42353 0.0
C55 C 0.06371 0.18786 0.10539 0.0
Zn56 Zn 0.72423 0.82889 0.30061 0.0
Zn57 Zn 0.72044 0.89038 0.29008 0.0
O58 O 0.74296 0.89388 0.43771 0.0
O59 O 0.75129 0.84639 0.44181 0.0
O60 O 0.72755 0.94011 0.25957 0.0
O61 O 0.74812 0.83556 0.15405 0.0
O62 O 0.74208 0.88418 0.15147 0.0
C63 C 0.75284 0.87395 0.48764 0.0
C64 C 0.64991 0.8195 0.30943 0.0
O65 O 0.66591 0.8542 0.29983 0.0
O66 O 0.66816 0.803 0.31024 0.0
C67 C 0.72645 0.96294 0.32322 0.0
O68 O 0.71689 0.95381 0.42346 0.0
C69 C 0.75138 0.86328 0.10505 0.0
Zn70 Zn 0.11009 0.88331 0.3016 0.0
Zn71 Zn 0.04866 0.81799 0.2911 0.0
O72 O 0.04502 0.83693 0.43877 0.0
O73 O 0.09247 0.89277 0.44287 0.0
O74 O -0.00098 0.77526 0.2605 0.0
O75 O 0.10338 0.90049 0.15504 0.0
O76 O 0.05479 0.84582 0.15255 0.0
C77 C 0.06491 0.86673 0.48871 0.0
C78 C 0.11967 0.81853 0.31035 0.0
O79 O 0.08497 0.7998 0.30077 0.0
O80 O 0.13612 0.85326 0.31118 0.0
C81 C -0.02371 0.75108 0.32378 0.0
O82 O -0.01458 0.75047 0.42388 0.0
C83 C 0.07566 0.87601 0.10611 0.0
Zn84 Zn 0.72477 0.88167 0.80088 0.0
Zn85 Zn 0.71961 0.81571 0.78979 0.0
O86 O 0.74195 0.83453 0.93761 0.0
O87 O 0.75191 0.89094 0.94184 0.0
O88 O 0.72578 0.77216 0.76396 0.0
O89 O 0.7486 0.89847 0.65413 0.0
O90 O 0.74203 0.84357 0.6514 0.0
C91 C 0.75261 0.86446 -0.01243 0.0
C92 C 0.64987 0.81766 0.80943 0.0
O93 O 0.66527 0.79842 0.79883 0.0
O94 O 0.66868 0.85236 0.81109 0.0
C95 C 0.719 0.75678 0.6726 0.0
O96 O 0.70205 0.76535 0.59998 0.0
C97 C 0.75164 0.87387 0.60514 0.0
Zn98 Zn 0.05721 0.83095 0.80195 0.0
Zn99 Zn 0.12318 0.89177 0.79065 0.0
O100 O 0.10439 0.89534 0.93855 0.0
O101 O 0.04799 0.84888 0.94297 0.0
O102 O 0.16677 0.94143 0.76449 0.0
O103 O 0.0404 0.83796 0.65522 0.0
O104 O 0.09528 0.88631 0.6524 0.0
C105 C 0.07447 0.87607 -0.01137 0.0
C106 C 0.12124 0.82008 0.81031 0.0
O107 O 0.14045 0.85471 0.79964 0.0
O108 O 0.08652 0.80417 0.81208 0.0
C109 C 0.18214 0.94992 0.67305 0.0
O110 O 0.17348 0.92433 0.60059 0.0
C111 C 0.06499 0.86561 0.60621 0.0
Zn112 Zn 0.10867 0.2144 0.80105 0.0
Zn113 Zn 0.04786 0.21957 0.79005 0.0
O114 O 0.04435 0.19725 0.93794 0.0
O115 O 0.09081 0.18728 0.94212 0.0
O116 O -0.00186 0.21337 0.76402 0.0
O117 O 0.10168 0.19057 0.65435 0.0
O118 O 0.05336 0.19717 0.65173 0.0
C119 C 0.06363 0.18659 -0.01209 0.0
C120 C 0.11951 0.28929 0.80949 0.0
O121 O 0.08487 0.2739 0.79896 0.0
O122 O 0.13541 0.27048 0.81114 0.0
C123 C -0.01037 0.22023 0.67262 0.0
O124 O 0.01523 0.2373 0.60024 0.0
C125 C 0.07404 0.18756 0.60543 0.0
Zn126 Zn 0.87129 0.73664 0.66262 0.0
Zn127 Zn 0.80599 0.73289 0.67333 0.0
O128 O 0.82497 0.75547 0.52572 0.0
O129 O 0.88079 0.76374 0.5214 0.0
O130 O 0.76323 0.73981 0.70375 0.0
O131 O 0.88841 0.76047 0.80923 0.0
O132 O 0.83379 0.75458 0.81187 0.0
C133 C 0.85477 0.76534 0.47572 0.0
C134 C 0.80642 0.66236 0.65392 0.0
O135 O 0.78774 0.67839 0.66361 0.0
O136 O 0.84116 0.68057 0.65299 0.0
C137 C 0.73907 0.73828 0.6403 0.0
O138 O 0.73852 0.72843 0.54032 0.0
C139 C 0.86397 0.76381 0.8582 0.0
Zn140 Zn 0.20289 0.12252 0.66296 0.0
Zn141 Zn 0.20655 0.06094 0.67351 0.0
O142 O 0.18401 0.05742 0.52592 0.0
O143 O 0.1758 0.105 0.52177 0.0
O144 O 0.19946 0.01121 0.70399 0.0
O145 O 0.17904 0.11586 0.8096 0.0
O146 O 0.18493 0.06714 0.81212 0.0
C147 C 0.17418 0.07739 0.47601 0.0
C148 C 0.27715 0.13179 0.65408 0.0
O149 O 0.26109 0.09709 0.66371 0.0
O150 O 0.25895 0.14834 0.65326 0.0
C151 C 0.20077 -0.01154 0.64051 0.0
O152 O 0.2105 -0.00236 0.54039 0.0
C153 C 0.17571 0.08809 0.85854 0.0
Zn154 Zn 0.81727 0.0678 0.66191 0.0
Zn155 Zn 0.87881 0.13309 0.67245 0.0
O156 O 0.88244 0.11414 0.52481 0.0
O157 O 0.83491 0.05833 0.52067 0.0
O158 O 0.92845 0.17582 0.70303 0.0
O159 O 0.82396 0.05064 0.80855 0.0
O160 O 0.87265 0.10526 0.81099 0.0
C161 C 0.86251 0.08434 0.4749 0.0
C162 C 0.80784 0.13267 0.6531 0.0
O163 O 0.84254 0.15134 0.66271 0.0
O164 O 0.79133 0.09793 0.65227 0.0
C165 C 0.95111 0.20014 0.63997 0.0
O166 O 0.94192 0.20089 0.54001 0.0
C167 C 0.85172 0.07508 0.85743 0.0
Zn168 Zn 0.86878 0.40261 0.49572 0.0
Zn169 Zn 0.87388 0.46854 0.5068 0.0
O170 O 0.85154 0.44972 0.35896 0.0
O171 O 0.84165 0.39335 0.35471 0.0
O172 O 0.86775 0.51211 0.53281 0.0
O173 O 0.84494 0.3858 0.64247 0.0
O174 O 0.85145 0.44066 0.64516 0.0
C175 C 0.84092 0.41981 0.30894 0.0
C176 C 0.94364 0.46662 0.48716 0.0
O177 O 0.92821 0.48583 0.49774 0.0
O178 O 0.92486 0.43191 0.48552 0.0
C179 C 0.87464 0.5275 0.62419 0.0
O180 O 0.8916 0.51887 0.69662 0.0
C181 C 0.84187 0.41038 0.69147 0.0
Zn182 Zn 0.53681 0.45363 0.49534 0.0
Zn183 Zn 0.47081 0.3929 0.50664 0.0
O184 O 0.48957 0.38929 0.35872 0.0
O185 O 0.54599 0.43569 0.35429 0.0
O186 O 0.42719 0.34326 0.53281 0.0
O187 O 0.55361 0.44659 0.64206 0.0
O188 O 0.4987 0.39832 0.64488 0.0
C189 C 0.51949 0.40853 0.30859 0.0
C190 C 0.47286 0.46463 0.48701 0.0
O191 O 0.45361 0.43001 0.49767 0.0
O192 O 0.50757 0.4805 0.48524 0.0
C193 C 0.41184 0.33478 0.62427 0.0
O194 O 0.42051 0.36038 0.69671 0.0
C195 C 0.52899 0.41897 0.69111 0.0
Zn196 Zn 0.48604 0.07088 0.49549 0.0
Zn197 Zn 0.54666 0.0654 0.50651 0.0
O198 O 0.5503 0.08777 0.35862 0.0
O199 O 0.50401 0.09798 0.35441 0.0
O200 O 0.59627 0.0713 0.53245 0.0
O201 O 0.49315 0.09474 0.6422 0.0
O202 O 0.54132 0.08791 0.64483 0.0
C203 C 0.53112 0.09854 0.3086 0.0
C204 C 0.47481 -0.00414 0.48707 0.0
O205 O 0.50943 0.01113 0.4976 0.0
O206 O 0.45903 0.0148 0.48541 0.0
C207 C 0.60476 0.06443 0.62387 0.0
O208 O 0.57916 0.04756 0.69641 0.0
C209 C 0.52073 0.09764 0.69115 0.0
Zn210 Zn 0.72274 0.54817 0.6347 0.0
Zn211 Zn 0.78798 0.55186 0.62397 0.0
O212 O 0.76899 0.52933 0.77167 0.0
O213 O 0.71319 0.52109 0.77596 0.0
O214 O 0.83062 0.54477 0.59335 0.0
O215 O 0.70551 0.52431 0.48816 0.0
O216 O 0.76013 0.53023 0.48547 0.0
C217 C 0.7392 0.5195 0.8217 0.0
C218 C 0.78767 0.62243 0.64331 0.0
O219 O 0.80633 0.60638 0.63364 0.0
O220 O 0.75292 0.60422 0.64424 0.0
C221 C 0.85471 0.54611 0.65673 0.0
O222 O 0.85529 0.55589 0.75681 0.0
C223 C 0.72995 0.52099 0.43912 0.0
Zn224 Zn 0.39136 0.1623 0.63455 0.0
Zn225 Zn 0.38766 0.22384 0.62399 0.0
O226 O 0.41022 0.22742 0.77157 0.0
O227 O 0.41845 0.17986 0.77574 0.0
O228 O 0.39465 0.27352 0.59346 0.0
O229 O 0.41524 0.16899 0.48794 0.0
O230 O 0.40933 0.2177 0.4854 0.0
C231 C 0.42006 0.20747 0.82152 0.0
C232 C 0.31709 0.15294 0.64341 0.0
O233 O 0.33314 0.18764 0.63379 0.0
O234 O 0.33529 0.1364 0.64423 0.0
C235 C 0.39326 0.29625 0.65686 0.0
O236 O 0.38352 0.28707 0.75698 0.0
C237 C 0.41858 0.19676 0.43897 0.0
Zn238 Zn 0.77727 0.21632 0.63373 0.0
Zn239 Zn 0.71575 0.15109 0.62328 0.0
O240 O 0.71221 0.1701 0.77094 0.0
O241 O 0.75974 0.22589 0.77498 0.0
O242 O 0.66604 0.10844 0.59287 0.0
O243 O 0.7706 0.23353 0.4872 0.0
O244 O 0.72192 0.17892 0.4847 0.0
C245 C 0.73216 0.19989 0.82085 0.0
C246 C 0.78664 0.15141 0.64247 0.0
O247 O 0.75194 0.13275 0.63291 0.0
O248 O 0.80317 0.18615 0.64329 0.0
C249 C 0.6433 0.08434 0.65632 0.0
O250 O 0.65248 0.08377 0.7564 0.0
C251 C 0.74285 0.2091 0.43827 0.0
Zn252 Zn 0.39209 0.21529 0.13478 0.0
Zn253 Zn 0.38677 0.14925 0.12367 0.0
O254 O 0.40912 0.16802 0.27149 0.0
O255 O 0.41922 0.22448 0.27577 0.0
O256 O 0.39286 0.10567 0.09766 0.0
O257 O 0.41593 0.23206 -0.012 0.0
O258 O 0.40922 0.17711 -0.0147 0.0
C259 C 0.41984 0.19795 0.32149 0.0
C260 C 0.31712 0.15138 0.14333 0.0
O261 O 0.33246 0.13208 0.13272 0.0
O262 O 0.336 0.18608 0.145 0.0
C263 C 0.38602 0.0903 0.00627 0.0
O264 O 0.36903 0.09888 0.93382 0.0
C265 C 0.41889 0.20741 0.93902 0.0
Zn266 Zn 0.72442 0.16416 0.13407 0.0
Zn267 Zn 0.79042 0.2249 0.12283 0.0
O268 O 0.7716 0.22841 0.27074 0.0
O269 O 0.71516 0.18203 0.27509 0.0
O270 O 0.83398 0.27461 0.09688 0.0
O271 O 0.70761 0.17117 -0.01262 0.0
O272 O 0.76254 0.21944 -0.01546 0.0
C273 C 0.74167 0.20918 0.32079 0.0
C274 C 0.78843 0.15321 0.14243 0.0
O275 O 0.80769 0.18784 0.13177 0.0
O276 O 0.75372 0.13735 0.14418 0.0
C277 C 0.84933 0.28321 0.00542 0.0
O278 O 0.84071 0.2577 0.93276 0.0
C279 C 0.73224 0.19879 0.93835 0.0
Zn280 Zn 0.77499 0.54752 0.13484 0.0
Zn281 Zn 0.71426 0.55283 0.12379 0.0
O282 O 0.71066 0.53046 0.27167 0.0
O283 O 0.75704 0.52039 0.27587 0.0
O284 O 0.6646 0.54678 0.09774 0.0
O285 O 0.76795 0.52368 -0.01188 0.0
O286 O 0.71968 0.53037 -0.01451 0.0
C287 C 0.72988 0.51975 0.32164 0.0
C288 C 0.786 0.62246 0.14331 0.0
O289 O 0.75137 0.60712 0.13274 0.0
O290 O 0.80185 0.6036 0.14496 0.0
C291 C 0.65613 0.55366 0.00632 0.0
O292 O 0.68175 0.57068 0.93394 0.0
C293 C 0.74033 0.5207 0.9392 0.0
Zn294 Zn 0.53832 0.07007 -0.00444 0.0
Zn295 Zn 0.47308 0.06648 0.00627 0.0
O296 O 0.49208 0.08905 0.85864 0.0
O297 O 0.54784 0.09718 0.85433 0.0
O298 O 0.43037 0.07346 0.03684 0.0
O299 O 0.55547 0.09391 0.14216 0.0
O300 O 0.5009 0.08814 0.14478 0.0
C301 C 0.52187 0.09885 0.80865 0.0
C302 C 0.47335 -0.00413 -0.01311 0.0
O303 O 0.45474 0.01197 -0.00345 0.0
O304 O 0.5081 0.01401 -0.01403 0.0
C305 C 0.40608 0.07182 0.97372 0.0
O306 O 0.40537 0.06186 0.87378 0.0
C307 C 0.53107 0.09731 0.19112 0.0
Zn308 Zn 0.86926 0.45549 -0.00413 0.0
Zn309 Zn 0.87321 0.39405 0.00642 0.0
O310 O 0.85061 0.39043 0.85887 0.0
O311 O 0.84217 0.43787 0.8547 0.0
O312 O 0.86639 0.34442 0.03677 0.0
O313 O 0.84538 0.44871 0.14252 0.0
O314 O 0.85147 0.40011 0.14505 0.0
C315 C 0.84066 0.4103 0.80897 0.0
C316 C 0.94364 0.46511 -0.01303 0.0
O317 O 0.92769 0.43041 -0.00339 0.0
O318 O 0.92533 0.48155 -0.01386 0.0
C319 C 0.86781 0.32177 0.97311 0.0
O320 O 0.87751 0.33104 0.87301 0.0
C321 C 0.84214 0.42098 0.19146 0.0
Zn322 Zn 0.48382 0.40125 -0.00438 0.0
Zn323 Zn 0.54532 0.46657 0.00614 0.0
O324 O 0.54898 0.44764 0.85852 0.0
O325 O 0.50148 0.39181 0.85438 0.0
O326 O 0.59493 0.50933 0.03674 0.0
O327 O 0.49055 0.38412 0.14224 0.0
O328 O 0.53921 0.43875 0.14468 0.0
C329 C 0.52908 0.41783 0.80861 0.0
C330 C 0.47431 0.46607 -0.01317 0.0
O331 O 0.50901 0.48476 -0.00358 0.0
O332 O 0.45782 0.43133 -0.014 0.0
C333 C 0.61761 0.53362 0.97363 0.0
O334 O 0.60845 0.53431 0.8736 0.0
C335 C 0.5183 0.40857 0.19111 0.0
Zn336 Zn 0.53506 0.7357 0.82887 0.0
Zn337 Zn 0.54027 0.80169 0.83997 0.0
O338 O 0.51791 0.78291 0.69215 0.0
O339 O 0.50794 0.72651 0.68785 0.0
O340 O 0.53426 0.84533 0.86598 0.0
O341 O 0.51121 0.71894 0.97565 0.0
O342 O 0.5178 0.77383 0.97832 0.0
C343 C 0.50726 0.753 0.6421 0.0
C344 C 0.60997 0.79962 0.82033 0.0
O345 O 0.59458 0.81887 0.83092 0.0
O346 O 0.59115 0.76492 0.81868 0.0
C347 C 0.54116 0.86071 0.95735 0.0
O348 O 0.55808 0.85204 0.02981 0.0
C349 C 0.50818 0.74355 0.02463 0.0
Zn350 Zn 0.20335 0.7874 0.82948 0.0
Zn351 Zn 0.13741 0.72659 0.84071 0.0
O352 O 0.15623 0.72308 0.6928 0.0
O353 O 0.21262 0.76954 0.68843 0.0
O354 O 0.09382 0.6769 0.86668 0.0
O355 O 0.22017 0.78038 0.97616 0.0
O356 O 0.1653 0.73204 0.979 0.0
C357 C 0.18615 0.74237 0.64271 0.0
C358 C 0.13932 0.79826 0.82116 0.0
O359 O 0.12011 0.76363 0.83179 0.0
O360 O 0.17403 0.81417 0.8194 0.0
C361 C 0.07846 0.66834 0.95813 0.0
O362 O 0.08714 0.69388 0.03077 0.0
C363 C 0.19558 0.75274 0.02521 0.0
Zn364 Zn 0.15237 0.4041 0.82877 0.0
Zn365 Zn 0.21313 0.39884 0.83981 0.0
O366 O 0.21675 0.42123 0.69193 0.0
O367 O 0.17032 0.43122 0.68771 0.0
O368 O 0.26275 0.40479 0.86585 0.0
O369 O 0.15944 0.42795 0.97549 0.0
O370 O 0.20775 0.42134 0.9781 0.0
C371 C 0.19749 0.4319 0.64192 0.0
C372 C 0.14136 0.32918 0.82033 0.0
O373 O 0.176 0.34456 0.83087 0.0
O374 O 0.12548 0.34801 0.81868 0.0
C375 C 0.27118 0.39786 0.95726 0.0
O376 O 0.24555 0.38094 0.02967 0.0
C377 C 0.18708 0.43097 0.02442 0.0
Zn378 Zn 0.38947 0.88175 0.96769 0.0
Zn379 Zn 0.45463 0.88527 0.957 0.0
O380 O 0.43559 0.86276 0.1047 0.0
O381 O 0.37985 0.85466 0.10895 0.0
O382 O 0.4972 0.87806 0.92647 0.0
O383 O 0.37222 0.8579 0.82116 0.0
O384 O 0.42678 0.86368 0.81848 0.0
C385 C 0.40581 0.853 0.15471 0.0
C386 C 0.45452 0.95593 0.9763 0.0
O387 O 0.47312 0.93981 0.96666 0.0
O388 O 0.41978 0.9378 0.97722 0.0
C389 C 0.52129 0.87939 -0.01015 0.0
O390 O 0.5219 0.8892 0.0899 0.0
C391 C 0.39662 0.85452 0.77213 0.0
Zn392 Zn 0.05795 0.49593 0.96745 0.0
Zn393 Zn 0.05404 0.55736 0.95692 0.0
O394 O 0.07659 0.56091 0.10451 0.0
O395 O 0.08502 0.51347 0.10865 0.0
O396 O 0.06102 0.60705 0.92659 0.0
O397 O 0.08183 0.50265 0.82085 0.0
O398 O 0.07572 0.55124 0.81828 0.0
C399 C 0.08652 0.54103 0.15445 0.0
C400 C -0.01642 0.48638 0.9763 0.0
O401 O -0.00047 0.52108 0.96668 0.0
O402 O 0.00187 0.46993 0.97713 0.0
C403 C 0.05983 0.62978 -0.00958 0.0
O404 O 0.05025 0.62055 0.09061 0.0
C405 C 0.08505 0.53036 0.77185 0.0
Zn406 Zn 0.44368 0.54969 0.96748 0.0
Zn407 Zn 0.38219 0.48444 0.957 0.0
O408 O 0.37863 0.50342 0.10468 0.0
O409 O 0.42614 0.55923 0.10875 0.0
O410 O 0.33249 0.4418 0.92647 0.0
O411 O 0.43703 0.56691 0.82094 0.0
O412 O 0.38838 0.51228 0.81844 0.0
C413 C 0.39856 0.53321 0.15461 0.0
C414 C 0.45309 0.48479 0.97621 0.0
O415 O 0.41839 0.46611 0.96665 0.0
O416 O 0.46959 0.51953 0.97704 0.0
C417 C 0.30971 0.41773 -0.01013 0.0
O418 O 0.31884 0.41715 0.09 0.0
C419 C 0.40929 0.54246 0.772 0.0
Zn420 Zn 0.05841 0.54874 0.46767 0.0
Zn421 Zn 0.05331 0.48279 0.45659 0.0
O422 O 0.07566 0.50162 0.6044 0.0
O423 O 0.08555 0.558 0.60864 0.0
O424 O 0.05946 0.43923 0.43063 0.0
O425 O 0.08224 0.56553 0.3209 0.0
O426 O 0.07575 0.51067 0.31822 0.0
C427 C 0.08629 0.53154 0.65437 0.0
C428 C -0.01646 0.4847 0.47624 0.0
O429 O -0.00102 0.4655 0.46565 0.0
O430 O 0.00232 0.51941 0.47788 0.0
C431 C 0.05261 0.42385 0.33924 0.0
O432 O 0.03565 0.43247 0.26676 0.0
C433 C 0.08532 0.54095 0.27195 0.0
Zn434 Zn 0.39084 0.49744 0.46782 0.0
Zn435 Zn 0.45683 0.5582 0.45656 0.0
O436 O 0.43804 0.56176 0.60446 0.0
O437 O 0.38161 0.51535 0.60885 0.0
O438 O 0.5004 0.60788 0.4305 0.0
O439 O 0.37403 0.50447 0.32113 0.0
O440 O 0.42894 0.55276 0.31829 0.0
C441 C 0.4081 0.54252 0.65452 0.0
C442 C 0.45484 0.4865 0.47616 0.0
O443 O 0.47409 0.52113 0.46551 0.0
O444 O 0.42013 0.47063 0.47793 0.0
C445 C 0.51574 0.61643 0.33904 0.0
O446 O 0.50713 0.59088 0.2665 0.0
C447 C 0.39864 0.53209 0.2721 0.0
Zn448 Zn 0.44164 0.88097 0.46783 0.0
Zn449 Zn 0.38099 0.88643 0.45682 0.0
O450 O 0.37738 0.86406 0.60469 0.0
O451 O 0.42368 0.85385 0.60887 0.0
O452 O 0.33136 0.88048 0.43095 0.0
O453 O 0.43453 0.85711 0.32113 0.0
O454 O 0.38634 0.86392 0.31849 0.0
C455 C 0.39655 0.85328 0.65465 0.0
C456 C 0.45283 0.95598 0.47625 0.0
O457 O 0.4182 0.94071 0.46572 0.0
O458 O 0.46861 0.93705 0.47792 0.0
C459 C 0.32283 0.8873 0.33952 0.0
O460 O 0.3484 0.90419 0.26692 0.0
C461 C 0.40694 0.8542 0.27221 0.0
Zn462 Zn 0.20479 0.40358 0.32885 0.0
Zn463 Zn 0.13946 0.39977 0.33957 0.0
O464 O 0.15843 0.42233 0.19192 0.0
O465 O 0.21427 0.43067 0.1876 0.0
O466 O 0.09673 0.40672 0.37014 0.0
O467 O 0.22193 0.42742 0.47544 0.0
O468 O 0.16727 0.42143 0.47809 0.0
C469 C 0.18823 0.43222 0.14191 0.0
C470 C 0.13993 0.32927 0.32018 0.0
O471 O 0.12122 0.34527 0.32986 0.0
O472 O 0.17467 0.34752 0.31925 0.0
C473 C 0.07261 0.40531 0.30674 0.0
O474 O 0.07207 0.39555 0.20667 0.0
C475 C 0.19746 0.4307 0.52443 0.0
Zn476 Zn 0.53562 0.78871 0.32902 0.0
Zn477 Zn 0.53951 0.72724 0.33958 0.0
O478 O 0.51689 0.72358 0.19205 0.0
O479 O 0.50853 0.77107 0.18785 0.0
O480 O 0.53271 0.67762 0.37002 0.0
O481 O 0.51176 0.78193 0.4757 0.0
O482 O 0.51777 0.73329 0.4782 0.0
C483 C 0.50697 0.74347 0.14213 0.0
C484 C 0.60997 0.79827 0.3201 0.0
O485 O 0.59399 0.76357 0.32974 0.0
O486 O 0.5917 0.81474 0.31928 0.0
C487 C 0.53421 0.65497 0.30656 0.0
O488 O 0.54396 0.66421 0.20648 0.0
C489 C 0.50848 0.75418 0.52462 0.0
Zn490 Zn 0.1505 0.73506 0.32975 0.0
Zn491 Zn 0.21195 0.8004 0.34021 0.0
O492 O 0.21557 0.78143 0.19259 0.0
O493 O 0.16811 0.72557 0.18852 0.0
O494 O 0.2616 0.84317 0.37058 0.0
O495 O 0.15725 0.71794 0.47634 0.0
O496 O 0.20586 0.77261 0.4788 0.0
C497 C 0.19568 0.75161 0.14271 0.0
C498 C 0.14094 0.79986 0.32096 0.0
O499 O 0.17564 0.81859 0.33053 0.0
O500 O 0.12448 0.76512 0.32014 0.0
C501 C 0.28429 0.8673 0.30711 0.0
O502 O 0.27507 0.86783 0.20704 0.0
C503 C 0.18498 0.74241 0.52523 0.0
loop_
_geom_bond_atom_site_label_1
_geom_bond_atom_site_label_2
_geom_bond_distance
_geom_bond_site_symmetry_2
_ccdc_geom_bond_type
Zn0 O3 2.031 . S
Zn0 O5 2.049 . S
Zn0 O10 2.067 . S
Zn1 O2 1.962 . S
Zn1 O4 1.986 . S
Zn1 O6 1.996 . S
Zn1 O9 1.943 . S
O2 Zn1 1.962 . S
O2 C7 1.254 . S
O3 Zn0 2.031 . S
O3 C7 1.269 . S
O4 Zn1 1.986 . S
O4 C11 1.262 . S
O5 Zn0 2.049 . S
O5 C13 1.260 . S
O6 Zn1 1.996 . S
O6 C13 1.257 . S
C7 O2 1.254 . S
C7 O3 1.269 . S
C8 O9 1.249 . S
C8 O10 1.270 . S
O9 Zn1 1.943 . S
O9 C8 1.249 . S
O10 Zn0 2.067 . S
O10 C8 1.270 . S
C11 O4 1.262 . S
C11 O12 1.232 . S
O12 C11 1.232 . S
C13 O5 1.260 . S
C13 O6 1.257 . S
Zn14 O17 2.031 . S
Zn14 O19 2.049 . S
Zn14 O24 2.067 . S
Zn15 O16 1.962 . S
Zn15 O18 1.986 . S
Zn15 O20 1.996 . S
Zn15 O23 1.943 . S
O16 Zn15 1.962 . S
O16 C21 1.254 . S
O17 Zn14 2.031 . S
O17 C21 1.269 . S
O18 Zn15 1.986 . S
O18 C25 1.262 . S
O19 Zn14 2.049 . S
O19 C27 1.260 . S
O20 Zn15 1.996 . S
O20 C27 1.257 . S
C21 O16 1.254 . S
C21 O17 1.269 . S
C22 O23 1.249 . S
C22 O24 1.270 . S
O23 Zn15 1.943 . S
O23 C22 1.249 . S
O24 Zn14 2.067 . S
O24 C22 1.270 . S
C25 O18 1.262 . S
C25 O26 1.232 . S
O26 C25 1.232 . S
C27 O19 1.260 . S
C27 O20 1.257 . S
Zn28 O31 2.031 . S
Zn28 O33 2.049 . S
Zn28 O38 2.067 . S
Zn29 O30 1.962 . S
Zn29 O32 1.986 . S
Zn29 O34 1.996 . S
Zn29 O37 1.943 . S
O30 Zn29 1.962 . S
O30 C35 1.254 . S
O31 Zn28 2.031 . S
O31 C35 1.269 . S
O32 Zn29 1.986 . S
O32 C39 1.262 . S
O33 Zn28 2.049 . S
O33 C41 1.260 . S
O34 Zn29 1.996 . S
O34 C41 1.257 . S
C35 O30 1.254 . S
C35 O31 1.269 . S
C36 O37 1.249 . S
C36 O38 1.270 . S
O37 Zn29 1.943 . S
O37 C36 1.249 . S
O38 Zn28 2.067 . S
O38 C36 1.270 . S
C39 O32 1.262 . S
C39 O40 1.232 . S
O40 C39 1.232 . S
C41 O33 1.260 . S
C41 O34 1.257 . S
Zn42 O45 2.031 . S
Zn42 O47 2.049 . S
Zn42 O52 2.067 . S
Zn43 O44 1.962 . S
Zn43 O46 1.986 . S
Zn43 O48 1.996 . S
Zn43 O51 1.943 . S
O44 Zn43 1.962 . S
O44 C49 1.254 . S
O45 Zn42 2.031 . S
O45 C49 1.269 . S
O46 Zn43 1.986 . S
O46 C53 1.262 . S
O47 Zn42 2.049 . S
O47 C55 1.260 . S
O48 Zn43 1.996 . S
O48 C55 1.257 . S
C49 O44 1.254 . S
C49 O45 1.269 . S
C50 O51 1.249 . S
C50 O52 1.270 . S
O51 Zn43 1.943 . S
O51 C50 1.249 . S
O52 Zn42 2.067 . S
O52 C50 1.270 . S
C53 O46 1.262 . S
C53 O54 1.232 . S
O54 C53 1.232 . S
C55 O47 1.260 . S
C55 O48 1.257 . S
Zn56 O59 2.031 . S
Zn56 O61 2.049 . S
Zn56 O66 2.067 . S
Zn57 O58 1.962 . S
Zn57 O60 1.986 . S
Zn57 O62 1.996 . S
Zn57 O65 1.943 . S
O58 Zn57 1.962 . S
O58 C63 1.254 . S
O59 Zn56 2.031 . S
O59 C63 1.269 . S
O60 Zn57 1.986 . S
O60 C67 1.262 . S
O61 Zn56 2.049 . S
O61 C69 1.260 . S
O62 Zn57 1.996 . S
O62 C69 1.257 . S
C63 O58 1.254 . S
C63 O59 1.269 . S
C64 O65 1.249 . S
C64 O66 1.270 . S
O65 Zn57 1.943 . S
O65 C64 1.249 . S
O66 Zn56 2.067 . S
O66 C64 1.270 . S
C67 O60 1.262 . S
C67 O68 1.232 . S
O68 C67 1.232 . S
C69 O61 1.260 . S
C69 O62 1.257 . S
Zn70 O73 2.031 . S
Zn70 O75 2.049 . S
Zn70 O80 2.067 . S
Zn71 O72 1.962 . S
Zn71 O74 1.986 . S
Zn71 O76 1.996 . S
Zn71 O79 1.943 . S
O72 Zn71 1.962 . S
O72 C77 1.254 . S
O73 Zn70 2.031 . S
O73 C77 1.269 . S
O74 Zn71 1.986 . S
O74 C81 1.262 . S
O75 Zn70 2.049 . S
O75 C83 1.260 . S
O76 Zn71 1.996 . S
O76 C83 1.257 . S
C77 O72 1.254 . S
C77 O73 1.269 . S
C78 O79 1.249 . S
C78 O80 1.270 . S
O79 Zn71 1.943 . S
O79 C78 1.249 . S
O80 Zn70 2.067 . S
O80 C78 1.270 . S
C81 O74 1.262 . S
C81 O82 1.232 . S
O82 C81 1.232 . S
C83 O75 1.260 . S
C83 O76 1.257 . S
Zn84 O87 2.031 . S
Zn84 O89 2.049 . S
Zn84 O94 2.067 . S
Zn85 O86 1.962 . S
Zn85 O88 1.986 . S
Zn85 O90 1.996 . S
Zn85 O93 1.943 . S
O86 Zn85 1.962 . S
O86 C91 1.254 . S
O87 Zn84 2.031 . S
O87 C91 1.269 . S
O88 Zn85 1.986 . S
O88 C95 1.262 . S
O89 Zn84 2.049 . S
O89 C97 1.260 . S
O90 Zn85 1.996 . S
O90 C97 1.257 . S
C91 O86 1.254 . S
C91 O87 1.269 . S
C92 O93 1.249 . S
C92 O94 1.270 . S
O93 Zn85 1.943 . S
O93 C92 1.249 . S
O94 Zn84 2.067 . S
O94 C92 1.270 . S
C95 O88 1.262 . S
C95 O96 1.232 . S
O96 C95 1.232 . S
C97 O89 1.260 . S
C97 O90 1.257 . S
Zn98 O101 2.031 . S
Zn98 O103 2.049 . S
Zn98 O108 2.067 . S
Zn99 O100 1.962 . S
Zn99 O102 1.986 . S
Zn99 O104 1.996 . S
Zn99 O107 1.943 . S
O100 Zn99 1.962 . S
O100 C105 1.254 . S
O101 Zn98 2.031 . S
O101 C105 1.269 . S
O102 Zn99 1.986 . S
O102 C109 1.262 . S
O103 Zn98 2.049 . S
O103 C111 1.260 . S
O104 Zn99 1.996 . S
O104 C111 1.257 . S
C105 O100 1.254 . S
C105 O101 1.269 . S
C106 O107 1.249 . S
C106 O108 1.270 . S
O107 Zn99 1.943 . S
O107 C106 1.249 . S
O108 Zn98 2.067 . S
O108 C106 1.270 . S
C109 O102 1.262 . S
C109 O110 1.232 . S
O110 C109 1.232 . S
C111 O103 1.260 . S
C111 O104 1.257 . S
Zn112 O115 2.031 . S
Zn112 O117 2.049 . S
Zn112 O122 2.067 . S
Zn113 O114 1.962 . S
Zn113 O116 1.986 . S
Zn113 O118 1.996 . S
Zn113 O121 1.943 . S
O114 Zn113 1.962 . S
O114 C119 1.254 . S
O115 Zn112 2.031 . S
O115 C119 1.269 . S
O116 Zn113 1.986 . S
O116 C123 1.262 . S
O117 Zn112 2.049 . S
O117 C125 1.260 . S
O118 Zn113 1.996 . S
O118 C125 1.257 . S
C119 O114 1.254 . S
C119 O115 1.269 . S
C120 O121 1.249 . S
C120 O122 1.270 . S
O121 Zn113 1.943 . S
O121 C120 1.249 . S
O122 Zn112 2.067 . S
O122 C120 1.270 . S
C123 O116 1.262 . S
C123 O124 1.232 . S
O124 C123 1.232 . S
C125 O117 1.260 . S
C125 O118 1.257 . S
Zn126 O129 2.031 . S
Zn126 O131 2.049 . S
Zn126 O136 2.067 . S
Zn127 O128 1.962 . S
Zn127 O130 1.986 . S
Zn127 O132 1.996 . S
Zn127 O135 1.943 . S
O128 Zn127 1.962 . S
O128 C133 1.254 . S
O129 Zn126 2.031 . S
O129 C133 1.269 . S
O130 Zn127 1.986 . S
O130 C137 1.262 . S
O131 Zn126 2.049 . S
O131 C139 1.260 . S
O132 Zn127 1.996 . S
O132 C139 1.257 . S
C133 O128 1.254 . S
C133 O129 1.269 . S
C134 O135 1.249 . S
C134 O136 1.270 . S
O135 Zn127 1.943 . S
O135 C134 1.249 . S
O136 Zn126 2.067 . S
O136 C134 1.270 . S
C137 O130 1.262 . S
C137 O138 1.232 . S
O138 C137 1.232 . S
C139 O131 1.260 . S
C139 O132 1.257 . S
Zn140 O143 2.031 . S
Zn140 O145 2.049 . S
Zn140 O150 2.067 . S
Zn141 O142 1.962 . S
Zn141 O144 1.986 . S
Zn141 O146 1.996 . S
Zn141 O149 1.943 . S
O142 Zn141 1.962 . S
O142 C147 1.254 . S
O143 Zn140 2.031 . S
O143 C147 1.269 . S
O144 Zn141 1.986 . S
O144 C151 1.262 . S
O145 Zn140 2.049 . S
O145 C153 1.260 . S
O146 Zn141 1.996 . S
O146 C153 1.257 . S
C147 O142 1.254 . S
C147 O143 1.269 . S
C148 O149 1.249 . S
C148 O150 1.270 . S
O149 Zn141 1.943 . S
O149 C148 1.249 . S
O150 Zn140 2.067 . S
O150 C148 1.270 . S
C151 O144 1.262 . S
C151 O152 1.232 . S
O152 C151 1.232 . S
C153 O145 1.260 . S
C153 O146 1.257 . S
Zn154 O157 2.031 . S
Zn154 O159 2.049 . S
Zn154 O164 2.067 . S
Zn155 O156 1.962 . S
Zn155 O158 1.986 . S
Zn155 O160 1.996 . S
Zn155 O163 1.943 . S
O156 Zn155 1.962 . S
O156 C161 1.254 . S
O157 Zn154 2.031 . S
O157 C161 1.269 . S
O158 Zn155 1.986 . S
O158 C165 1.262 . S
O159 Zn154 2.049 . S
O159 C167 1.260 . S
O160 Zn155 1.996 . S
O160 C167 1.257 . S
C161 O156 1.254 . S
C161 O157 1.269 . S
C162 O163 1.249 . S
C162 O164 1.270 . S
O163 Zn155 1.943 . S
O163 C162 1.249 . S
O164 Zn154 2.067 . S
O164 C162 1.270 . S
C165 O158 1.262 . S
C165 O166 1.232 . S
O166 C165 1.232 . S
C167 O159 1.260 . S
C167 O160 1.257 . S
Zn168 O171 2.031 . S
Zn168 O173 2.049 . S
Zn168 O178 2.067 . S
Zn169 O170 1.962 . S
Zn169 O172 1.986 . S
Zn169 O174 1.996 . S
Zn169 O177 1.943 . S
O170 Zn169 1.962 . S
O170 C175 1.254 . S
O171 Zn168 2.031 . S
O171 C175 1.269 . S
O172 Zn169 1.986 . S
O172 C179 1.262 . S
O173 Zn168 2.049 . S
O173 C181 1.260 . S
O174 Zn169 1.996 . S
O174 C181 1.257 . S
C175 O170 1.254 . S
C175 O171 1.269 . S
C176 O177 1.249 . S
C176 O178 1.270 . S
O177 Zn169 1.943 . S
O177 C176 1.249 . S
O178 Zn168 2.067 . S
O178 C176 1.270 . S
C179 O172 1.262 . S
C179 O180 1.232 . S
O180 C179 1.232 . S
C181 O173 1.260 . S
C181 O174 1.257 . S
Zn182 O185 2.031 . S
Zn182 O187 2.049 . S
Zn182 O192 2.067 . S
Zn183 O184 1.962 . S
Zn183 O186 1.986 . S
Zn183 O188 1.996 . S
Zn183 O191 1.943 . S
O184 Zn183 1.962 . S
O184 C189 1.254 . S
O185 Zn182 2.031 . S
O185 C189 1.269 . S
O186 Zn183 1.986 . S
O186 C193 1.262 . S
O187 Zn182 2.049 . S
O187 C195 1.260 . S
O188 Zn183 1.996 . S
O188 C195 1.257 . S
C189 O184 1.254 . S
C189 O185 1.269 . S
C190 O191 1.249 . S
C190 O192 1.270 . S
O191 Zn183 1.943 . S
O191 C190 1.249 . S
O192 Zn182 2.067 . S
O192 C190 1.270 . S
C193 O186 1.262 . S
C193 O194 1.232 . S
O194 C193 1.232 . S
C195 O187 1.260 . S
C195 O188 1.257 . S
Zn196 O199 2.031 . S
Zn196 O201 2.049 . S
Zn196 O206 2.067 . S
Zn197 O198 1.962 . S
Zn197 O200 1.986 . S
Zn197 O202 1.996 . S
Zn197 O205 1.943 . S
O198 Zn197 1.962 . S
O198 C203 1.254 . S
O199 Zn196 2.031 . S
O199 C203 1.269 . S
O200 Zn197 1.986 . S
O200 C207 1.262 . S
O201 Zn196 2.049 . S
O201 C209 1.260 . S
O202 Zn197 1.996 . S
O202 C209 1.257 . S
C203 O198 1.254 . S
C203 O199 1.269 . S
C204 O205 1.249 . S
C204 O206 1.270 . S
O205 Zn197 1.943 . S
O205 C204 1.249 . S
O206 Zn196 2.067 . S
O206 C204 1.270 . S
C207 O200 1.262 . S
C207 O208 1.232 . S
O208 C207 1.232 . S
C209 O201 1.260 . S
C209 O202 1.257 . S
Zn210 O213 2.031 . S
Zn210 O215 2.049 . S
Zn210 O220 2.067 . S
Zn211 O212 1.962 . S
Zn211 O214 1.986 . S
Zn211 O216 1.996 . S
Zn211 O219 1.943 . S
O212 Zn211 1.962 . S
O212 C217 1.254 . S
O213 Zn210 2.031 . S
O213 C217 1.269 . S
O214 Zn211 1.986 . S
O214 C221 1.262 . S
O215 Zn210 2.049 . S
O215 C223 1.260 . S
O216 Zn211 1.996 . S
O216 C223 1.257 . S
C217 O212 1.254 . S
C217 O213 1.269 . S
C218 O219 1.249 . S
C218 O220 1.270 . S
O219 Zn211 1.943 . S
O219 C218 1.249 . S
O220 Zn210 2.067 . S
O220 C218 1.270 . S
C221 O214 1.262 . S
C221 O222 1.232 . S
O222 C221 1.232 . S
C223 O215 1.260 . S
C223 O216 1.257 . S
Zn224 O227 2.031 . S
Zn224 O229 2.049 . S
Zn224 O234 2.067 . S
Zn225 O226 1.962 . S
Zn225 O228 1.986 . S
Zn225 O230 1.996 . S
Zn225 O233 1.943 . S
O226 Zn225 1.962 . S
O226 C231 1.254 . S
O227 Zn224 2.031 . S
O227 C231 1.269 . S
O228 Zn225 1.986 . S
O228 C235 1.262 . S
O229 Zn224 2.049 . S
O229 C237 1.260 . S
O230 Zn225 1.996 . S
O230 C237 1.257 . S
C231 O226 1.254 . S
C231 O227 1.269 . S
C232 O233 1.249 . S
C232 O234 1.270 . S
O233 Zn225 1.943 . S
O233 C232 1.249 . S
O234 Zn224 2.067 . S
O234 C232 1.270 . S
C235 O228 1.262 . S
C235 O236 1.232 . S
O236 C235 1.232 . S
C237 O229 1.260 . S
C237 O230 1.257 . S
Zn238 O241 2.031 . S
Zn238 O243 2.049 . S
Zn238 O248 2.067 . S
Zn239 O240 1.962 . S
Zn239 O242 1.986 . S
Zn239 O244 1.996 . S
Zn239 O247 1.943 . S
O240 Zn239 1.962 . S
O240 C245 1.254 . S
O241 Zn238 2.031 . S
O241 C245 1.269 . S
O242 Zn239 1.986 . S
O242 C249 1.262 . S
O243 Zn238 2.049 . S
O243 C251 1.260 . S
O244 Zn239 1.996 . S
O244 C251 1.257 . S
C245 O240 1.254 . S
C245 O241 1.269 . S
C246 O247 1.249 . S
C246 O248 1.270 . S
O247 Zn239 1.943 . S
O247 C246 1.249 . S
O248 Zn238 2.067 . S
O248 C246 1.270 . S
C249 O242 1.262 . S
C249 O250 1.232 . S
O250 C249 1.232 . S
C251 O243 1.260 . S
C251 O244 1.257 . S
Zn252 O255 2.031 . S
Zn252 O257 2.049 1_554 S
Zn252 O262 2.067 . S
Zn253 O254 1.962 . S
Zn253 O256 1.986 . S
Zn253 O258 1.996 . S
Zn253 O261 1.943 . S
O254 Zn253 1.962 . S
O254 C259 1.254 . S
O255 Zn252 2.031 . S
O255 C259 1.269 . S
O256 Zn253 1.986 . S
O256 C263 1.262 . S
O257 Zn252 2.049 1_556 S
O257 C265 1.260 . S
O258 Zn253 1.996 . S
O258 C265 1.257 1_554 S
C259 O254 1.254 . S
C259 O255 1.269 . S
C260 O261 1.249 . S
C260 O262 1.270 . S
O261 Zn253 1.943 . S
O261 C260 1.249 . S
O262 Zn252 2.067 . S
O262 C260 1.270 . S
C263 O256 1.262 . S
C263 O264 1.232 . S
O264 C263 1.232 . S
C265 O257 1.260 . S
C265 O258 1.257 1_556 S
Zn266 O269 2.031 . S
Zn266 O271 2.049 1_554 S
Zn266 O276 2.067 . S
Zn267 O268 1.962 . S
Zn267 O270 1.986 . S
Zn267 O272 1.996 . S
Zn267 O275 1.943 . S
O268 Zn267 1.962 . S
O268 C273 1.254 . S
O269 Zn266 2.031 . S
O269 C273 1.269 . S
O270 Zn267 1.986 . S
O270 C277 1.262 . S
O271 Zn266 2.049 1_556 S
O271 C279 1.260 . S
O272 Zn267 1.996 . S
O272 C279 1.257 1_554 S
C273 O268 1.254 . S
C273 O269 1.269 . S
C274 O275 1.249 . S
C274 O276 1.270 . S
O275 Zn267 1.943 . S
O275 C274 1.249 . S
O276 Zn266 2.067 . S
O276 C274 1.270 . S
C277 O270 1.262 . S
C277 O278 1.232 . S
O278 C277 1.232 . S
C279 O271 1.260 . S
C279 O272 1.257 1_556 S
Zn280 O283 2.031 . S
Zn280 O285 2.049 1_554 S
Zn280 O290 2.067 . S
Zn281 O282 1.962 . S
Zn281 O284 1.986 . S
Zn281 O286 1.996 . S
Zn281 O289 1.943 . S
O282 Zn281 1.962 . S
O282 C287 1.254 . S
O283 Zn280 2.031 . S
O283 C287 1.269 . S
O284 Zn281 1.986 . S
O284 C291 1.262 . S
O285 Zn280 2.049 1_556 S
O285 C293 1.260 . S
O286 Zn281 1.996 . S
O286 C293 1.257 1_554 S
C287 O282 1.254 . S
C287 O283 1.269 . S
C288 O289 1.249 . S
C288 O290 1.270 . S
O289 Zn281 1.943 . S
O289 C288 1.249 . S
O290 Zn280 2.067 . S
O290 C288 1.270 . S
C291 O284 1.262 . S
C291 O292 1.232 . S
O292 C291 1.232 . S
C293 O285 1.260 . S
C293 O286 1.257 1_556 S
Zn294 O297 2.031 1_554 S
Zn294 O299 2.049 . S
Zn294 O304 2.067 . S
Zn295 O296 1.962 1_554 S
Zn295 O298 1.986 . S
Zn295 O300 1.996 . S
Zn295 O303 1.943 . S
O296 Zn295 1.962 1_556 S
O296 C301 1.254 . S
O297 Zn294 2.031 1_556 S
O297 C301 1.269 . S
O298 Zn295 1.986 . S
O298 C305 1.262 . S
O299 Zn294 2.049 . S
O299 C307 1.260 . S
O300 Zn295 1.996 . S
O300 C307 1.257 . S
C301 O296 1.254 . S
C301 O297 1.269 . S
C302 O303 1.249 . S
C302 O304 1.270 . S
O303 Zn295 1.943 . S
O303 C302 1.249 . S
O304 Zn294 2.067 . S
O304 C302 1.270 . S
C305 O298 1.262 . S
C305 O306 1.232 1_554 S
O306 C305 1.232 1_556 S
C307 O299 1.260 . S
C307 O300 1.257 . S
Zn308 O311 2.031 1_554 S
Zn308 O313 2.049 . S
Zn308 O318 2.067 . S
Zn309 O310 1.962 1_554 S
Zn309 O312 1.986 . S
Zn309 O314 1.996 . S
Zn309 O317 1.943 . S
O310 Zn309 1.962 1_556 S
O310 C315 1.254 . S
O311 Zn308 2.031 1_556 S
O311 C315 1.269 . S
O312 Zn309 1.986 . S
O312 C319 1.262 . S
O313 Zn308 2.049 . S
O313 C321 1.260 . S
O314 Zn309 1.996 . S
O314 C321 1.257 . S
C315 O310 1.254 . S
C315 O311 1.269 . S
C316 O317 1.249 . S
C316 O318 1.270 . S
O317 Zn309 1.943 . S
O317 C316 1.249 . S
O318 Zn308 2.067 . S
O318 C316 1.270 . S
C319 O312 1.262 . S
C319 O320 1.232 1_554 S
O320 C319 1.232 1_556 S
C321 O313 1.260 . S
C321 O314 1.257 . S
Zn322 O325 2.031 1_554 S
Zn322 O327 2.049 . S
Zn322 O332 2.067 . S
Zn323 O324 1.962 1_554 S
Zn323 O326 1.986 . S
Zn323 O328 1.996 . S
Zn323 O331 1.943 . S
O324 Zn323 1.962 1_556 S
O324 C329 1.254 . S
O325 Zn322 2.031 1_556 S
O325 C329 1.269 . S
O326 Zn323 1.986 . S
O326 C333 1.262 . S
O327 Zn322 2.049 . S
O327 C335 1.260 . S
O328 Zn323 1.996 . S
O328 C335 1.257 . S
C329 O324 1.254 . S
C329 O325 1.269 . S
C330 O331 1.249 . S
C330 O332 1.270 . S
O331 Zn323 1.943 . S
O331 C330 1.249 . S
O332 Zn322 2.067 . S
O332 C330 1.270 . S
C333 O326 1.262 . S
C333 O334 1.232 1_554 S
O334 C333 1.232 1_556 S
C335 O327 1.260 . S
C335 O328 1.257 . S
Zn336 O339 2.031 . S
Zn336 O341 2.049 1_556 S
Zn336 O346 2.067 . S
Zn337 O338 1.962 . S
Zn337 O340 1.986 . S
Zn337 O342 1.996 . S
Zn337 O345 1.943 . S
O338 Zn337 1.962 . S
O338 C343 1.254 . S
O339 Zn336 2.031 . S
O339 C343 1.269 . S
O340 Zn337 1.986 . S
O340 C347 1.262 . S
O341 Zn336 2.049 1_554 S
O341 C349 1.260 . S
O342 Zn337 1.996 . S
O342 C349 1.257 1_556 S
C343 O338 1.254 . S
C343 O339 1.269 . S
C344 O345 1.249 . S
C344 O346 1.270 . S
O345 Zn337 1.943 . S
O345 C344 1.249 . S
O346 Zn336 2.067 . S
O346 C344 1.270 . S
C347 O340 1.262 . S
C347 O348 1.232 . S
O348 C347 1.232 . S
C349 O341 1.260 . S
C349 O342 1.257 1_554 S
Zn350 O353 2.031 . S
Zn350 O355 2.049 1_556 S
Zn350 O360 2.067 . S
Zn351 O352 1.962 . S
Zn351 O354 1.986 . S
Zn351 O356 1.996 . S
Zn351 O359 1.943 . S
O352 Zn351 1.962 . S
O352 C357 1.254 . S
O353 Zn350 2.031 . S
O353 C357 1.269 . S
O354 Zn351 1.986 . S
O354 C361 1.262 . S
O355 Zn350 2.049 1_554 S
O355 C363 1.260 . S
O356 Zn351 1.996 . S
O356 C363 1.257 1_556 S
C357 O352 1.254 . S
C357 O353 1.269 . S
C358 O359 1.249 . S
C358 O360 1.270 . S
O359 Zn351 1.943 . S
O359 C358 1.249 . S
O360 Zn350 2.067 . S
O360 C358 1.270 . S
C361 O354 1.262 . S
C361 O362 1.232 . S
O362 C361 1.232 . S
C363 O355 1.260 . S
C363 O356 1.257 1_554 S
Zn364 O367 2.031 . S
Zn364 O369 2.049 1_556 S
Zn364 O374 2.067 . S
Zn365 O366 1.962 . S
Zn365 O368 1.986 . S
Zn365 O370 1.996 . S
Zn365 O373 1.943 . S
O366 Zn365 1.962 . S
O366 C371 1.254 . S
O367 Zn364 2.031 . S
O367 C371 1.269 . S
O368 Zn365 1.986 . S
O368 C375 1.262 . S
O369 Zn364 2.049 1_554 S
O369 C377 1.260 . S
O370 Zn365 1.996 . S
O370 C377 1.257 1_556 S
C371 O366 1.254 . S
C371 O367 1.269 . S
C372 O373 1.249 . S
C372 O374 1.270 . S
O373 Zn365 1.943 . S
O373 C372 1.249 . S
O374 Zn364 2.067 . S
O374 C372 1.270 . S
C375 O368 1.262 . S
C375 O376 1.232 . S
O376 C375 1.232 . S
C377 O369 1.260 . S
C377 O370 1.257 1_554 S
Zn378 O381 2.031 1_556 S
Zn378 O383 2.049 . S
Zn378 O388 2.067 . S
Zn379 O380 1.962 1_556 S
Zn379 O382 1.986 . S
Zn379 O384 1.996 . S
Zn379 O387 1.943 . S
O380 Zn379 1.962 1_554 S
O380 C385 1.254 . S
O381 Zn378 2.031 1_554 S
O381 C385 1.269 . S
O382 Zn379 1.986 . S
O382 C389 1.262 . S
O383 Zn378 2.049 . S
O383 C391 1.260 . S
O384 Zn379 1.996 . S
O384 C391 1.257 . S
C385 O380 1.254 . S
C385 O381 1.269 . S
C386 O387 1.249 . S
C386 O388 1.270 . S
O387 Zn379 1.943 . S
O387 C386 1.249 . S
O388 Zn378 2.067 . S
O388 C386 1.270 . S
C389 O382 1.262 . S
C389 O390 1.232 1_556 S
O390 C389 1.232 1_554 S
C391 O383 1.260 . S
C391 O384 1.257 . S
Zn392 O395 2.031 1_556 S
Zn392 O397 2.049 . S
Zn392 O402 2.067 . S
Zn393 O394 1.962 1_556 S
Zn393 O396 1.986 . S
Zn393 O398 1.996 . S
Zn393 O401 1.943 . S
O394 Zn393 1.962 1_554 S
O394 C399 1.254 . S
O395 Zn392 2.031 1_554 S
O395 C399 1.269 . S
O396 Zn393 1.986 . S
O396 C403 1.262 . S
O397 Zn392 2.049 . S
O397 C405 1.260 . S
O398 Zn393 1.996 . S
O398 C405 1.257 . S
C399 O394 1.254 . S
C399 O395 1.269 . S
C400 O401 1.249 . S
C400 O402 1.270 . S
O401 Zn393 1.943 . S
O401 C400 1.249 . S
O402 Zn392 2.067 . S
O402 C400 1.270 . S
C403 O396 1.262 . S
C403 O404 1.232 1_556 S
O404 C403 1.232 1_554 S
C405 O397 1.260 . S
C405 O398 1.257 . S
Zn406 O409 2.031 1_556 S
Zn406 O411 2.049 . S
Zn406 O416 2.067 . S
Zn407 O408 1.962 1_556 S
Zn407 O410 1.986 . S
Zn407 O412 1.996 . S
Zn407 O415 1.943 . S
O408 Zn407 1.962 1_554 S
O408 C413 1.254 . S
O409 Zn406 2.031 1_554 S
O409 C413 1.269 . S
O410 Zn407 1.986 . S
O410 C417 1.262 . S
O411 Zn406 2.049 . S
O411 C419 1.260 . S
O412 Zn407 1.996 . S
O412 C419 1.257 . S
C413 O408 1.254 . S
C413 O409 1.269 . S
C414 O415 1.249 . S
C414 O416 1.270 . S
O415 Zn407 1.943 . S
O415 C414 1.249 . S
O416 Zn406 2.067 . S
O416 C414 1.270 . S
C417 O410 1.262 . S
C417 O418 1.232 1_556 S
O418 C417 1.232 1_554 S
C419 O411 1.260 . S
C419 O412 1.257 . S
Zn420 O423 2.031 . S
Zn420 O425 2.049 . S
Zn420 O430 2.067 . S
Zn421 O422 1.962 . S
Zn421 O424 1.986 . S
Zn421 O426 1.996 . S
Zn421 O429 1.943 . S
O422 Zn421 1.962 . S
O422 C427 1.254 . S
O423 Zn420 2.031 . S
O423 C427 1.269 . S
O424 Zn421 1.986 . S
O424 C431 1.262 . S
O425 Zn420 2.049 . S
O425 C433 1.260 . S
O426 Zn421 1.996 . S
O426 C433 1.257 . S
C427 O422 1.254 . S
C427 O423 1.269 . S
C428 O429 1.249 . S
C428 O430 1.270 . S
O429 Zn421 1.943 . S
O429 C428 1.249 . S
O430 Zn420 2.067 . S
O430 C428 1.270 . S
C431 O424 1.262 . S
C431 O432 1.232 . S
O432 C431 1.232 . S
C433 O425 1.260 . S
C433 O426 1.257 . S
Zn434 O437 2.031 . S
Zn434 O439 2.049 . S
Zn434 O444 2.067 . S
Zn435 O436 1.962 . S
Zn435 O438 1.986 . S
Zn435 O440 1.996 . S
Zn435 O443 1.943 . S
O436 Zn435 1.962 . S
O436 C441 1.254 . S
O437 Zn434 2.031 . S
O437 C441 1.269 . S
O438 Zn435 1.986 . S
O438 C445 1.262 . S
O439 Zn434 2.049 . S
O439 C447 1.260 . S
O440 Zn435 1.996 . S
O440 C447 1.257 . S
C441 O436 1.254 . S
C441 O437 1.269 . S
C442 O443 1.249 . S
C442 O444 1.270 . S
O443 Zn435 1.943 . S
O443 C442 1.249 . S
O444 Zn434 2.067 . S
O444 C442 1.270 . S
C445 O438 1.262 . S
C445 O446 1.232 . S
O446 C445 1.232 . S
C447 O439 1.260 . S
C447 O440 1.257 . S
Zn448 O451 2.031 . S
Zn448 O453 2.049 . S
Zn448 O458 2.067 . S
Zn449 O450 1.962 . S
Zn449 O452 1.986 . S
Zn449 O454 1.996 . S
Zn449 O457 1.943 . S
O450 Zn449 1.962 . S
O450 C455 1.254 . S
O451 Zn448 2.031 . S
O451 C455 1.269 . S
O452 Zn449 1.986 . S
O452 C459 1.262 . S
O453 Zn448 2.049 . S
O453 C461 1.260 . S
O454 Zn449 1.996 . S
O454 C461 1.257 . S
C455 O450 1.254 . S
C455 O451 1.269 . S
C456 O457 1.249 . S
C456 O458 1.270 . S
O457 Zn449 1.943 . S
O457 C456 1.249 . S
O458 Zn448 2.067 . S
O458 C456 1.270 . S
C459 O452 1.262 . S
C459 O460 1.232 . S
O460 C459 1.232 . S
C461 O453 1.260 . S
C461 O454 1.257 . S
Zn462 O465 2.031 . S
Zn462 O467 2.049 . S
Zn462 O472 2.067 . S
Zn463 O464 1.962 . S
Zn463 O466 1.986 . S
Zn463 O468 1.996 . S
Zn463 O471 1.943 . S
O464 Zn463 1.962 . S
O464 C469 1.254 . S
O465 Zn462 2.031 . S
O465 C469 1.269 . S
O466 Zn463 1.986 . S
O466 C473 1.262 . S
O467 Zn462 2.049 . S
O467 C475 1.260 . S
O468 Zn463 1.996 . S
O468 C475 1.257 . S
C469 O464 1.254 . S
C469 O465 1.269 . S
C470 O471 1.249 . S
C470 O472 1.270 . S
O471 Zn463 1.943 . S
O471 C470 1.249 . S
O472 Zn462 2.067 . S
O472 C470 1.270 . S
C473 O466 1.262 . S
C473 O474 1.232 . S
O474 C473 1.232 . S
C475 O467 1.260 . S
C475 O468 1.257 . S
Zn476 O479 2.031 . S
Zn476 O481 2.049 . S
Zn476 O486 2.067 . S
Zn477 O478 1.962 . S
Zn477 O480 1.986 . S
Zn477 O482 1.996 . S
Zn477 O485 1.943 . S
O478 Zn477 1.962 . S
O478 C483 1.254 . S
O479 Zn476 2.031 . S
O479 C483 1.269 . S
O480 Zn477 1.986 . S
O480 C487 1.262 . S
O481 Zn476 2.049 . S
O481 C489 1.260 . S
O482 Zn477 1.996 . S
O482 C489 1.257 . S
C483 O478 1.254 . S
C483 O479 1.269 . S
C484 O485 1.249 . S
C484 O486 1.270 . S
O485 Zn477 1.943 . S
O485 C484 1.249 . S
O486 Zn476 2.067 . S
O486 C484 1.270 . S
C487 O480 1.262 . S
C487 O488 1.232 . S
O488 C487 1.232 . S
C489 O481 1.260 . S
C489 O482 1.257 . S
Zn490 O493 2.031 . S
Zn490 O495 2.049 . S
Zn490 O500 2.067 . S
Zn491 O492 1.962 . S
Zn491 O494 1.986 . S
Zn491 O496 1.996 . S
Zn491 O499 1.943 . S
O492 Zn491 1.962 . S
O492 C497 1.254 . S
O493 Zn490 2.031 . S
O493 C497 1.269 . S
O494 Zn491 1.986 . S
O494 C501 1.262 . S
O495 Zn490 2.049 . S
O495 C503 1.260 . S
O496 Zn491 1.996 . S
O496 C503 1.257 . S
C497 O492 1.254 . S
C497 O493 1.269 . S
C498 O499 1.249 . S
C498 O500 1.270 . S
O499 Zn491 1.943 . S
O499 C498 1.249 . S
O500 Zn490 2.067 . S
O500 C498 1.270 . S
C501 O494 1.262 . S
C501 O502 1.232 . S
O502 C501 1.232 . S
C503 O495 1.260 . S
C503 O496 1.257 . S
C153 C7 1.976 1_556 S
C167 C21 1.976 1_556 S
C35 C139 1.976 1_554 S
C49 C125 1.976 . S
C63 C97 1.976 . S
C111 C77 1.976 . S
C69 C91 1.976 1_554 S
C83 C105 1.976 1_554 S
C119 C55 1.976 1_556 S
C41 C133 1.976 . S
C147 C13 1.976 . S
C161 C27 1.976 . S
C321 C175 1.976 . S
C335 C189 1.976 . S
C203 C307 1.976 . S
C217 C293 1.976 . S
C231 C265 1.976 . S
C245 C279 1.976 . S
C237 C259 1.976 . S
C251 C273 1.976 . S
C223 C287 1.976 . S
C209 C301 1.976 . S
C181 C315 1.976 . S
C195 C329 1.976 . S
C343 C489 1.976 . S
C503 C357 1.976 . S
C475 C371 1.976 . S
C385 C461 1.976 . S
C399 C433 1.976 . S
C413 C447 1.976 . S
C405 C427 1.976 . S
C419 C441 1.976 . S
C391 C455 1.976 . S
C469 C377 1.976 . S
C349 C483 1.976 . S
C497 C363 1.976 . S
C53 C11 1.461 . S
C67 C25 1.461 1_565 S
C39 C81 1.461 1_655 S
C137 C95 1.461 . S
C151 C109 1.461 1_545 S
C165 C123 1.461 1_655 S
C221 C179 1.461 . S
C235 C193 1.461 . S
C207 C249 1.461 . S
C263 C305 1.461 . S
C319 C277 1.461 . S
C291 C333 1.461 . S
C389 C347 1.461 . S
C403 C361 1.461 . S
C375 C417 1.461 . S
C431 C473 1.461 . S
C445 C487 1.461 . S
C459 C501 1.461 . S
C8 C260 1.552 . S
C274 C22 1.552 . S
C288 C36 1.552 . S
C470 C50 1.552 . S
C484 C64 1.552 . S
C498 C78 1.552 . S
C92 C344 1.552 . S
C358 C106 1.552 . S
C372 C120 1.552 . S
C134 C218 1.552 . S
C148 C232 1.552 . S
C162 C246 1.552 . S
C428 C176 1.552 1_455 S
C442 C190 1.552 . S
C204 C456 1.552 1_545 S
C302 C386 1.552 1_544 S
C316 C400 1.552 1_654 S
C330 C414 1.552 1_554 S
