# Generated by pormake.
# Topology ske, (6)-cn, num edge types: 1
# Building blocks:
#     Node 0, Type 0, BuildingBlock: KUMBOL_clean_sbu_1, # of connection points: 6
#     Node 1, Type 0, BuildingBlock: KUMBOL_clean_sbu_1, # of connection points: 6
#     Node 2, Type 0, BuildingBlock: KUMBOL_clean_sbu_1, # of connection points: 6
#     Node 3, Type 0, BuildingBlock: KUMBOL_clean_sbu_1, # of connection points: 6
#     Node 4, Type 0, BuildingBlock: KUMBOL_clean_sbu_1, # of connection points: 6
#     Node 5, Type 0, BuildingBlock: KUMBOL_clean_sbu_1, # of connection points: 6
#     Node 6, Type 0, BuildingBlock: KUMBOL_clean_sbu_1, # of connection points: 6
#     Node 7, Type 0, BuildingBlock: KUMBOL_clean_sbu_1, # of connection points: 6
#     Edge 8, Type (0, 0), BuildingBlock: XIVTED_clean_linker_0, # of connection points: 2
#     Edge 9, Type (0, 0), BuildingBlock: XIVTED_clean_linker_0, # of connection points: 2
#     Edge 10, Type (0, 0), BuildingBlock: XIVTED_clean_linker_0, # of connection points: 2
#     Edge 11, Type (0, 0), BuildingBlock: XIVTED_clean_linker_0, # of connection points: 2
#     Edge 12, Type (0, 0), BuildingBlock: XIVTED_clean_linker_0, # of connection points: 2
#     Edge 13, Type (0, 0), BuildingBlock: XIVTED_clean_linker_0, # of connection points: 2
#     Edge 14, Type (0, 0), BuildingBlock: XIVTED_clean_linker_0, # of connection points: 2
#     Edge 15, Type (0, 0), BuildingBlock: XIVTED_clean_linker_0, # of connection points: 2
#     Edge 16, Type (0, 0), BuildingBlock: XIVTED_clean_linker_0, # of connection points: 2
#     Edge 17, Type (0, 0), BuildingBlock: XIVTED_clean_linker_0, # of connection points: 2
#     Edge 18, Type (0, 0), BuildingBlock: XIVTED_clean_linker_0, # of connection points: 2
#     Edge 19, Type (0, 0), BuildingBlock: XIVTED_clean_linker_0, # of connection points: 2
#     Edge 20, Type (0, 0), BuildingBlock: XIVTED_clean_linker_0, # of connection points: 2
#     Edge 21, Type (0, 0), BuildingBlock: XIVTED_clean_linker_0, # of connection points: 2
#     Edge 22, Type (0, 0), BuildingBlock: XIVTED_clean_linker_0, # of connection points: 2
#     Edge 23, Type (0, 0), BuildingBlock: XIVTED_clean_linker_0, # of connection points: 2
#     Edge 24, Type (0, 0), BuildingBlock: XIVTED_clean_linker_0, # of connection points: 2
#     Edge 25, Type (0, 0), BuildingBlock: XIVTED_clean_linker_0, # of connection points: 2
#     Edge 26, Type (0, 0), BuildingBlock: XIVTED_clean_linker_0, # of connection points: 2
#     Edge 27, Type (0, 0), BuildingBlock: XIVTED_clean_linker_0, # of connection points: 2
#     Edge 28, Type (0, 0), BuildingBlock: XIVTED_clean_linker_0, # of connection points: 2
#     Edge 29, Type (0, 0), BuildingBlock: XIVTED_clean_linker_0, # of connection points: 2
#     Edge 30, Type (0, 0), BuildingBlock: XIVTED_clean_linker_0, # of connection points: 2
#     Edge 31, Type (0, 0), BuildingBlock: XIVTED_clean_linker_0, # of connection points: 2
# Relax obj value: 0.216
# Max RMSD: 0.232
# Mean RMSD: 0.229
data_MOF--net-ske--node1-KUMBOL_clean_sbu_1--edge1-XIVTED_clean_linker_0
_symmetry_space_group_name_H-M    P1
_symmetry_Int_Tables_number       1
_symmetry_cell_setting            triclinic
loop_
_symmetry_equiv_pos_as_xyz
'x, y, z'
_cell_length_a     99.098026
_cell_length_b     29.971398
_cell_length_c     15.235938
_cell_angle_alpha  98.312424
_cell_angle_beta   89.941597
_cell_angle_gamma 89.907852
loop_
_atom_site_label
_atom_site_type_symbol
_atom_site_fract_x
_atom_site_fract_y
_atom_site_fract_z
_atom_type_partial_charge
C0 C 0.10282 0.24776 0.73959 0.0
C1 C 0.09965 0.32453 0.81199 0.0
C2 C 0.10319 0.29384 0.73629 0.0
C3 C 0.09634 0.30835 0.89139 0.0
C4 C 0.09909 0.23129 0.81822 0.0
C5 C 0.09604 0.26187 0.89447 0.0
N6 N 0.10637 0.21893 0.66593 0.0
C7 C 0.10529 0.17338 0.66358 0.0
C8 C 0.09855 0.18454 0.81775 0.0
C9 C 0.10152 0.15548 0.73979 0.0
Gd10 Gd 0.15333 0.25836 0.5279 0.0
Gd11 Gd 0.1127 0.25151 0.54155 0.0
N12 N 0.10651 0.30851 0.65847 0.0
C13 C 0.0992 0.37054 0.80506 0.0
C14 C 0.10488 0.35294 0.64966 0.0
C15 C 0.10157 0.38468 0.7231 0.0
H16 H 0.10582 0.36425 0.58591 0.0
H17 H 0.10062 0.41997 0.71604 0.0
H18 H 0.16216 0.1633 0.39909 0.0
H19 H 0.1076 0.15102 0.6032 0.0
H20 H 0.17048 0.13935 0.24565 0.0
H21 H 0.09653 0.39519 0.86165 0.0
H22 H 0.09374 0.33151 0.95038 0.0
H23 H 0.16143 0.36856 0.57503 0.0
H24 H 0.09572 0.17058 0.87687 0.0
H25 H 0.10093 0.11934 0.73847 0.0
H26 H 0.17594 0.27858 0.12745 0.0
H27 H 0.09331 0.2499 0.95588 0.0
H28 H 0.17189 0.4156 0.33146 0.0
H29 H 0.16765 0.43094 0.49315 0.0
N30 N 0.16081 0.31945 0.45938 0.0
C31 C 0.16421 0.30968 0.37232 0.0
C32 C 0.16286 0.36179 0.50399 0.0
C33 C 0.16891 0.38829 0.36677 0.0
C34 C 0.16655 0.39708 0.45805 0.0
C35 C 0.16819 0.3439 0.32325 0.0
H36 H 0.17481 0.35833 0.19461 0.0
N37 N 0.16163 0.23277 0.38513 0.0
C38 C 0.16488 0.26488 0.33441 0.0
C39 C 0.17127 0.20715 0.21403 0.0
C40 C 0.16951 0.25294 0.24667 0.0
C41 C 0.16418 0.18826 0.35611 0.0
C42 C 0.16884 0.17472 0.2696 0.0
O43 O 0.12661 0.23165 0.6499 0.0
O44 O 0.14369 0.28283 0.66209 0.0
O45 O 0.16607 0.21472 0.59471 0.0
O46 O 0.1743 0.27591 0.55822 0.0
O47 O 0.12172 0.31484 0.50262 0.0
O48 O 0.14128 0.32047 0.5842 0.0
O49 O 0.14106 0.23251 0.40291 0.0
O50 O 0.12107 0.27171 0.4129 0.0
O51 O 0.09162 0.27024 0.53048 0.0
O52 O 0.09866 0.20594 0.46448 0.0
O53 O 0.14459 0.18997 0.54356 0.0
O54 O 0.12297 0.18671 0.48225 0.0
C55 C 0.1349 0.25868 0.69964 0.0
C56 C 0.13185 0.33857 0.54 0.0
C57 C 0.18399 0.24927 0.68228 0.0
C58 C 0.20559 0.2535 0.7612 0.0
C59 C 0.18442 0.26606 0.84277 0.0
C60 C 0.17716 0.25919 0.76344 0.0
C61 C 0.19851 0.26319 0.84189 0.0
C62 C 0.19817 0.24666 0.6814 0.0
C63 C 0.17653 0.2411 0.59786 0.0
C64 C 0.1726 0.28702 0.19558 0.0
C65 C 0.17192 0.33244 0.23378 0.0
H66 H 0.17482 0.19658 0.14695 0.0
C67 C 0.13133 0.25321 0.36554 0.0
C68 C 0.13395 0.16752 0.50861 0.0
C69 C 0.08026 0.23988 0.39987 0.0
C70 C 0.05793 0.24785 0.33479 0.0
C71 C 0.07831 0.25055 0.24571 0.0
C72 C 0.08631 0.2446 0.31848 0.0
C73 C 0.06425 0.2521 0.25353 0.0
C74 C 0.06611 0.2416 0.40782 0.0
C75 C 0.08852 0.23378 0.47757 0.0
H76 H 0.1791 0.27371 0.90527 0.0
H77 H 0.16626 0.26146 0.76547 0.0
H78 H 0.20386 0.26919 0.90439 0.0
H79 H 0.20339 0.23857 0.61855 0.0
H80 H 0.08302 0.2539 0.18286 0.0
H81 H 0.09718 0.24363 0.31122 0.0
H82 H 0.05833 0.25613 0.19548 0.0
H83 H 0.06152 0.23878 0.47138 0.0
C84 C 0.84658 0.24405 0.38075 0.0
C85 C 0.83715 0.16854 0.35664 0.0
C86 C 0.84447 0.20266 0.40962 0.0
C87 C 0.83198 0.17663 0.27457 0.0
C88 C 0.84144 0.25221 0.29827 0.0
C89 C 0.83411 0.21834 0.2455 0.0
N90 N 0.85413 0.27566 0.43185 0.0
C91 C 0.85627 0.31693 0.40662 0.0
C92 C 0.84396 0.29402 0.27083 0.0
C93 C 0.85135 0.32657 0.32546 0.0
Gd94 Gd 0.902 0.25905 0.58178 0.0
Gd95 Gd 0.86142 0.25633 0.56816 0.0
N96 N 0.8497 0.1956 0.48896 0.0
C97 C 0.83528 0.12721 0.3876 0.0
C98 C 0.84769 0.1557 0.52031 0.0
C99 C 0.84055 0.12083 0.46988 0.0
H100 H 0.85138 0.15097 0.58501 0.0
H101 H 0.83903 0.08917 0.4948 0.0
H102 H 0.9081 0.36844 0.64675 0.0
H103 H 0.8616 0.34267 0.44926 0.0
H104 H 0.91722 0.4169 0.77848 0.0
H105 H 0.82973 0.10014 0.34877 0.0
H106 H 0.82634 0.1508 0.23295 0.0
H107 H 0.90499 0.15143 0.62586 0.0
H108 H 0.84021 0.30155 0.20782 0.0
H109 H 0.85319 0.35921 0.30536 0.0
H110 H 0.92699 0.31389 0.98379 0.0
H111 H 0.83011 0.22397 0.18186 0.0
H112 H 0.91786 0.15716 0.89419 0.0
H113 H 0.91032 0.11298 0.75318 0.0
N114 N 0.90724 0.21746 0.69712 0.0
C115 C 0.91248 0.24211 0.77154 0.0
C116 C 0.90717 0.17151 0.6885 0.0
C117 C 0.91504 0.17444 0.83916 0.0
C118 C 0.91068 0.14941 0.75997 0.0
C119 C 0.91631 0.22125 0.84505 0.0
H120 H 0.92438 0.23201 0.97863 0.0
N121 N 0.90994 0.30813 0.70391 0.0
C122 C 0.9141 0.28851 0.77441 0.0
C123 C 0.92047 0.36155 0.85199 0.0
C124 C 0.91935 0.31489 0.85086 0.0
C125 C 0.91111 0.35349 0.7041 0.0
C126 C 0.91635 0.38089 0.77826 0.0
O127 O 0.87259 0.23724 0.43688 0.0
O128 O 0.89383 0.27007 0.44753 0.0
O129 O 0.92115 0.289 0.55231 0.0
O130 O 0.9188 0.21684 0.52822 0.0
O131 O 0.87222 0.19719 0.61142 0.0
O132 O 0.89168 0.19265 0.52861 0.0
O133 O 0.88896 0.28685 0.70192 0.0
O134 O 0.87093 0.2393 0.69385 0.0
O135 O 0.84153 0.24277 0.61941 0.0
O136 O 0.84903 0.31104 0.63415 0.0
O137 O 0.89298 0.31963 0.53225 0.0
O138 O 0.87177 0.3248 0.59824 0.0
C139 C 0.88343 0.25254 0.40087 0.0
C140 C 0.88131 0.17345 0.56226 0.0
C141 C 0.9344 0.24922 0.43849 0.0
C142 C 0.95614 0.24947 0.36192 0.0
C143 C 0.93507 0.247 0.27889 0.0
C144 C 0.92769 0.24764 0.35717 0.0
C145 C 0.94917 0.24796 0.28103 0.0
C146 C 0.9486 0.24998 0.44065 0.0
C147 C 0.92676 0.25072 0.52176 0.0
C148 C 0.92302 0.29413 0.92427 0.0
C149 C 0.92147 0.24751 0.92146 0.0
H150 H 0.92443 0.38295 0.90956 0.0
C151 C 0.87999 0.26403 0.74102 0.0
C152 C 0.88212 0.34259 0.56108 0.0
C153 C 0.82547 0.30023 0.61132 0.0
C154 C 0.80076 0.30197 0.62141 0.0
C155 C 0.81231 0.33798 0.50934 0.0
C156 C 0.82476 0.32513 0.54018 0.0
C157 C 0.8004 0.32649 0.54937 0.0
C158 C 0.81342 0.28889 0.65207 0.0
C159 C 0.83864 0.28518 0.64211 0.0
H160 H 0.92983 0.2457 0.21623 0.0
H161 H 0.91678 0.24691 0.35428 0.0
H162 H 0.95462 0.24691 0.21912 0.0
H163 H 0.95374 0.25172 0.50382 0.0
H164 H 0.8119 0.35717 0.45442 0.0
H165 H 0.83382 0.33488 0.50853 0.0
H166 H 0.79089 0.33758 0.52492 0.0
H167 H 0.8139 0.26949 0.70676 0.0
C168 C 0.10098 0.78655 0.26715 0.0
C169 C 0.09571 0.72183 0.1572 0.0
C170 C 0.10016 0.74017 0.24263 0.0
C171 C 0.09252 0.75079 0.09553 0.0
C172 C 0.09723 0.81573 0.20649 0.0
C173 C 0.0933 0.79762 0.12006 0.0
N174 N 0.10484 0.80307 0.35132 0.0
C175 C 0.10352 0.84802 0.38178 0.0
C176 C 0.09716 0.86223 0.2353 0.0
C177 C 0.10005 0.87835 0.32384 0.0
Gd178 Gd 0.15206 0.74559 0.44634 0.0
Gd179 Gd 0.11137 0.74864 0.44054 0.0
N180 N 0.10385 0.71289 0.30242 0.0
C181 C 0.0946 0.67489 0.13647 0.0
C182 C 0.10217 0.66727 0.28443 0.0
C183 C 0.09768 0.64755 0.20075 0.0
H184 H 0.10461 0.64626 0.33424 0.0
H185 H 0.09664 0.61131 0.18576 0.0
H186 H 0.16097 0.85516 0.45531 0.0
H187 H 0.10492 0.86076 0.45109 0.0
H188 H 0.169 0.91701 0.56718 0.0
H189 H 0.09122 0.65949 0.07151 0.0
H190 H 0.08926 0.73734 0.0291 0.0
H191 H 0.15837 0.65028 0.52788 0.0
H192 H 0.09436 0.88577 0.19075 0.0
H193 H 0.0994 0.91408 0.3479 0.0
H194 H 0.17855 0.84532 0.8222 0.0
H195 H 0.09055 0.81955 0.0723 0.0
H196 H 0.17449 0.68434 0.78995 0.0
H197 H 0.1672 0.62666 0.66617 0.0
N198 N 0.16059 0.72019 0.57399 0.0
C199 C 0.16523 0.75224 0.63908 0.0
C200 C 0.16169 0.67545 0.58145 0.0
C201 C 0.17072 0.69476 0.72933 0.0
C202 C 0.16663 0.66209 0.65959 0.0
C203 C 0.1702 0.74047 0.71928 0.0
H204 H 0.17842 0.76619 0.84843 0.0
N205 N 0.16099 0.80645 0.5442 0.0
C206 C 0.16521 0.79679 0.62426 0.0
C207 C 0.17124 0.87482 0.66936 0.0
C208 C 0.17031 0.8308 0.68939 0.0
C209 C 0.16299 0.84847 0.52183 0.0
C210 C 0.1678 0.88349 0.5846 0.0
O211 O 0.12421 0.72188 0.31835 0.0
O212 O 0.14225 0.76886 0.32583 0.0
O213 O 0.17279 0.76016 0.41227 0.0
O214 O 0.16356 0.69759 0.35491 0.0
O215 O 0.12052 0.68438 0.47497 0.0
O216 O 0.14143 0.6788 0.40463 0.0
O217 O 0.14014 0.72961 0.56719 0.0
O218 O 0.12097 0.7733 0.57519 0.0
O219 O 0.09714 0.7073 0.50141 0.0
O220 O 0.09082 0.77188 0.46951 0.0
O221 O 0.14134 0.80816 0.41558 0.0
O222 O 0.12204 0.81273 0.50023 0.0
C223 C 0.13272 0.74622 0.27899 0.0
C224 C 0.1312 0.66113 0.44313 0.0
C225 C 0.18731 0.6974 0.37824 0.0
C226 C 0.21198 0.69299 0.36699 0.0
C227 C 0.19933 0.635 0.428 0.0
C228 C 0.18724 0.65694 0.41457 0.0
C229 C 0.2116 0.65278 0.40454 0.0
C230 C 0.19971 0.71518 0.35429 0.0
C231 C 0.17461 0.72127 0.36382 0.0
C232 C 0.17474 0.81956 0.77104 0.0
C233 C 0.17469 0.77449 0.78592 0.0
H234 H 0.17508 0.90192 0.71759 0.0
C235 C 0.13064 0.75293 0.61396 0.0
C236 C 0.13228 0.83179 0.4653 0.0
C237 C 0.07989 0.74573 0.5896 0.0
C238 C 0.05817 0.75361 0.66703 0.0
C239 C 0.07925 0.76166 0.75014 0.0
C240 C 0.08662 0.75386 0.67124 0.0
C241 C 0.06514 0.76145 0.74828 0.0
C242 C 0.0657 0.74586 0.58772 0.0
C243 C 0.08744 0.73686 0.50568 0.0
H244 H 0.19917 0.60379 0.45598 0.0
H245 H 0.17786 0.64202 0.43194 0.0
H246 H 0.22079 0.63449 0.41412 0.0
H247 H 0.19979 0.74644 0.32632 0.0
H248 H 0.08449 0.76792 0.81303 0.0
H249 H 0.09754 0.75405 0.67391 0.0
H250 H 0.05968 0.76804 0.81044 0.0
H251 H 0.06054 0.73918 0.52446 0.0
C252 C 0.84307 0.68971 0.58764 0.0
C253 C 0.83562 0.74319 0.71363 0.0
C254 C 0.8427 0.73343 0.63285 0.0
C255 C 0.82918 0.70816 0.7494 0.0
C256 C 0.83636 0.65466 0.62235 0.0
C257 C 0.82957 0.66402 0.70397 0.0
N258 N 0.84963 0.68172 0.50854 0.0
C259 C 0.84921 0.64021 0.45826 0.0
C260 C 0.83649 0.61138 0.57325 0.0
C261 C 0.84284 0.60425 0.49045 0.0
Gd262 Gd 0.90166 0.75429 0.46928 0.0
Gd263 Gd 0.8606 0.74371 0.4634 0.0
N264 N 0.84933 0.76644 0.59783 0.0
C265 C 0.83517 0.78793 0.75571 0.0
C266 C 0.84845 0.81043 0.63641 0.0
C267 C 0.84149 0.82174 0.71645 0.0
H268 H 0.85339 0.83653 0.60628 0.0
H269 H 0.84103 0.85648 0.74787 0.0
H270 H 0.90572 0.64048 0.40747 0.0
H271 H 0.85379 0.63485 0.39319 0.0
H272 H 0.91107 0.58895 0.27218 0.0
H273 H 0.82983 0.79679 0.81788 0.0
H274 H 0.82377 0.71493 0.81174 0.0
H275 H 0.90734 0.85755 0.42275 0.0
H276 H 0.83149 0.58351 0.59778 0.0
H277 H 0.84274 0.57114 0.45114 0.0
H278 H 0.92317 0.68624 0.06177 0.0
H279 H 0.82442 0.63746 0.73193 0.0
H280 H 0.92294 0.84568 0.15772 0.0
H281 H 0.91621 0.89324 0.29748 0.0
N282 N 0.90896 0.79107 0.35321 0.0
C283 C 0.91303 0.76404 0.27835 0.0
C284 C 0.91026 0.83678 0.36166 0.0
C285 C 0.91915 0.82993 0.21248 0.0
C286 C 0.91531 0.85694 0.29118 0.0
C287 C 0.91803 0.78292 0.20524 0.0
H288 H 0.92528 0.76843 0.0699 0.0
N289 N 0.90709 0.69997 0.34626 0.0
C290 C 0.91176 0.71741 0.27401 0.0
C291 C 0.91484 0.64222 0.1946 0.0
C292 C 0.91558 0.6889 0.19592 0.0
C293 C 0.90753 0.6545 0.34745 0.0
C294 C 0.91102 0.62499 0.27118 0.0
O295 O 0.86952 0.75245 0.60233 0.0
O296 O 0.89315 0.75191 0.60657 0.0
O297 O 0.92156 0.72677 0.48954 0.0
O298 O 0.91766 0.79738 0.53122 0.0
O299 O 0.86948 0.81394 0.46938 0.0
O300 O 0.891 0.81727 0.53302 0.0
O301 O 0.88834 0.77512 0.3591 0.0
O302 O 0.8728 0.71921 0.34125 0.0
O303 O 0.85085 0.7895 0.38529 0.0
O304 O 0.84079 0.72779 0.40471 0.0
O305 O 0.89268 0.69117 0.51095 0.0
O306 O 0.87424 0.68434 0.42038 0.0
C307 C 0.88115 0.7531 0.64476 0.0
C308 C 0.87983 0.83619 0.50902 0.0
C309 C 0.93432 0.76276 0.60965 0.0
C310 C 0.95634 0.75852 0.6811 0.0
C311 C 0.93558 0.76077 0.76787 0.0
C312 C 0.92793 0.76258 0.69164 0.0
C313 C 0.94966 0.75885 0.76291 0.0
C314 C 0.94849 0.7606 0.60452 0.0
C315 C 0.92639 0.76477 0.52869 0.0
C316 C 0.92029 0.7077 0.12235 0.0
C317 C 0.92155 0.75452 0.12708 0.0
H318 H 0.91767 0.61922 0.13591 0.0
C319 C 0.88045 0.74778 0.30684 0.0
C320 C 0.88216 0.66821 0.47721 0.0
C321 C 0.82699 0.7918 0.39909 0.0
C322 C 0.80254 0.80021 0.38193 0.0
C323 C 0.81521 0.85558 0.48188 0.0
C324 C 0.82713 0.83189 0.45959 0.0
C325 C 0.80301 0.83997 0.44358 0.0
C326 C 0.81464 0.77601 0.36053 0.0
C327 C 0.83965 0.76645 0.37612 0.0
H328 H 0.93059 0.76094 0.83115 0.0
H329 H 0.91704 0.76388 0.69663 0.0
H330 H 0.95531 0.75816 0.82348 0.0
H331 H 0.95335 0.75989 0.54058 0.0
H332 H 0.81543 0.88626 0.52907 0.0
H333 H 0.83646 0.8451 0.48958 0.0
H334 H 0.79391 0.8589 0.46306 0.0
H335 H 0.81452 0.7454 0.31299 0.0
C336 C 0.60164 0.73472 0.23382 0.0
C337 C 0.59892 0.80996 0.31556 0.0
C338 C 0.60268 0.78138 0.23741 0.0
C339 C 0.59451 0.79122 0.38991 0.0
C340 C 0.59693 0.71589 0.30775 0.0
C341 C 0.59347 0.74437 0.38593 0.0
N342 N 0.60568 0.70765 0.15894 0.0
C343 C 0.6046 0.6619 0.15126 0.0
C344 C 0.59604 0.66886 0.30126 0.0
C345 C 0.59983 0.64178 0.22253 0.0
Gd346 Gd 0.6534 0.75744 0.04452 0.0
Gd347 Gd 0.61252 0.74431 0.04163 0.0
N348 N 0.60709 0.79877 0.16445 0.0
C349 C 0.59943 0.85663 0.31619 0.0
C350 C 0.60641 0.84416 0.16268 0.0
C351 C 0.60296 0.87375 0.23895 0.0
H352 H 0.60797 0.85803 0.10223 0.0
H353 H 0.60272 0.90974 0.23746 0.0
H354 H 0.66102 0.66481 0.90218 0.0
H355 H 0.60747 0.64107 0.09014 0.0
H356 H 0.67343 0.64528 0.76067 0.0
H357 H 0.59664 0.87968 0.3749 0.0
H358 H 0.59168 0.81273 0.45055 0.0
H359 H 0.65981 0.86665 0.1143 0.0
H360 H 0.59247 0.65314 0.35664 0.0
H361 H 0.5991 0.60545 0.21681 0.0
H362 H 0.68993 0.78755 0.69565 0.0
H363 H 0.58997 0.7305 0.44373 0.0
H364 H 0.68174 0.9188 0.90911 0.0
H365 H 0.67054 0.93078 0.05594 0.0
N366 N 0.66406 0.81989 0.99891 0.0
C367 C 0.6706 0.81214 0.91969 0.0
C368 C 0.66435 0.86144 0.04909 0.0
C369 C 0.67686 0.89074 0.93378 0.0
C370 C 0.67055 0.89766 0.01669 0.0
C371 C 0.67714 0.84745 0.88479 0.0
H372 H 0.68896 0.86506 0.77507 0.0
N373 N 0.66471 0.73511 0.91007 0.0
C374 C 0.67114 0.7684 0.87469 0.0
C375 C 0.67891 0.71411 0.75222 0.0
C376 C 0.67824 0.75888 0.79396 0.0
C377 C 0.66581 0.69111 0.87183 0.0
C378 C 0.67279 0.68004 0.79181 0.0
O379 O 0.62622 0.72481 0.15118 0.0
O380 O 0.64129 0.78203 0.16697 0.0
O381 O 0.66326 0.71279 0.12457 0.0
O382 O 0.67329 0.77396 0.10141 0.0
O383 O 0.62097 0.80764 0.99747 0.0
O384 O 0.63959 0.81664 0.0864 0.0
O385 O 0.64435 0.74733 0.90591 0.0
O386 O 0.62072 0.74672 0.90346 0.0
O387 O 0.59239 0.77056 0.02413 0.0
O388 O 0.59666 0.70032 0.98063 0.0
O389 O 0.64501 0.68649 0.0391 0.0
O390 O 0.62329 0.68139 0.97852 0.0
C391 C 0.63395 0.75311 0.20259 0.0
C392 C 0.63137 0.83174 0.02988 0.0
C393 C 0.6871 0.71025 0.10982 0.0
C394 C 0.71153 0.70157 0.12765 0.0
C395 C 0.69882 0.64596 0.02842 0.0
C396 C 0.68693 0.66991 0.05004 0.0
C397 C 0.71103 0.66157 0.06668 0.0
C398 C 0.69945 0.72602 0.14837 0.0
C399 C 0.67447 0.73585 0.1321 0.0
C400 C 0.68451 0.79415 0.75796 0.0
C401 C 0.68394 0.83831 0.80316 0.0
H402 H 0.68428 0.70542 0.6901 0.0
C403 C 0.63265 0.74592 0.86428 0.0
C404 C 0.63466 0.66331 1.00153 0.0
C405 C 0.57948 0.73434 0.90518 0.0
C406 C 0.55721 0.73939 0.83789 0.0
C407 C 0.57758 0.73656 0.74732 0.0
C408 C 0.58555 0.7344 0.82208 0.0
C409 C 0.56353 0.73898 0.75491 0.0
C410 C 0.56535 0.73692 0.91291 0.0
C411 C 0.58771 0.73237 0.98484 0.0
H412 H 0.69859 0.61509 0.98177 0.0
H413 H 0.67759 0.65672 0.02014 0.0
H414 H 0.72011 0.64244 0.0477 0.0
H415 H 0.69958 0.75682 0.1954 0.0
H416 H 0.58231 0.73633 0.68317 0.0
H417 H 0.59641 0.7328 0.81514 0.0
H418 H 0.55762 0.74004 0.69551 0.0
H419 H 0.56075 0.73775 0.97771 0.0
C420 C 0.34266 0.73608 0.8984 0.0
C421 C 0.33523 0.65825 0.87087 0.0
C422 C 0.34228 0.6933 0.92313 0.0
C423 C 0.32885 0.66665 0.79255 0.0
C424 C 0.33604 0.74495 0.82096 0.0
C425 C 0.32924 0.70989 0.76772 0.0
N426 N 0.34959 0.76906 0.9501 0.0
C427 C 0.34946 0.81238 0.93213 0.0
C428 C 0.33638 0.78888 0.79974 0.0
C429 C 0.34301 0.82282 0.85609 0.0
Gd430 Gd 0.40109 0.75163 0.08271 0.0
Gd431 Gd 0.35988 0.74841 0.07671 0.0
N432 N 0.34848 0.6863 0.99955 0.0
C433 C 0.33461 0.616 0.89968 0.0
C434 C 0.34733 0.64588 0.03021 0.0
C435 C 0.34059 0.60994 0.98013 0.0
H436 H 0.35149 0.64143 0.09388 0.0
H437 H 0.33988 0.57773 1.00406 0.0
H438 H 0.40603 0.85937 0.16588 0.0
H439 H 0.35445 0.83868 0.97613 0.0
H440 H 0.41486 0.90314 0.30437 0.0
H441 H 0.32931 0.58818 0.86133 0.0
H442 H 0.32344 0.64008 0.75132 0.0
H443 H 0.40472 0.64096 0.1071 0.0
H444 H 0.33141 0.79706 0.7408 0.0
H445 H 0.34311 0.85703 0.84111 0.0
H446 H 0.42494 0.79076 0.48968 0.0
H447 H 0.32415 0.71596 0.70765 0.0
H448 H 0.41715 0.63593 0.37337 0.0
H449 H 0.41018 0.597 0.22629 0.0
N450 N 0.40642 0.70461 0.18874 0.0
C451 C 0.41124 0.72667 0.26706 0.0
C452 C 0.40669 0.65863 0.17236 0.0
C453 C 0.41428 0.65557 0.32196 0.0
C454 C 0.41025 0.63347 0.23926 0.0
C455 C 0.41513 0.70265 0.3361 0.0
H456 H 0.4229 0.70821 0.47018 0.0
N457 N 0.40815 0.7963 0.21244 0.0
C458 C 0.41245 0.77357 0.27837 0.0
C459 C 0.41833 0.84425 0.36754 0.0
C460 C 0.41747 0.79714 0.35844 0.0
C461 C 0.40913 0.84208 0.22006 0.0
C462 C 0.41417 0.86678 0.29798 0.0
O463 O 0.36946 0.74879 0.94138 0.0
O464 O 0.39307 0.74613 0.94246 0.0
O465 O 0.41824 0.78939 0.04334 0.0
O466 O 0.42021 0.7181 0.04712 0.0
O467 O 0.37209 0.68831 0.10305 0.0
O468 O 0.39136 0.68626 0.0196 0.0
O469 O 0.38765 0.77735 0.20257 0.0
O470 O 0.37086 0.72549 0.19133 0.0
O471 O 0.34001 0.73625 0.12952 0.0
O472 O 0.3498 0.80056 0.16719 0.0
O473 O 0.39155 0.81191 0.03525 0.0
O474 O 0.37057 0.81605 0.1042 0.0
C475 C 0.38132 0.74663 0.90167 0.0
C476 C 0.3806 0.66639 0.04644 0.0
C477 C 0.43377 0.74916 0.94417 0.0
C478 C 0.45553 0.74594 0.86726 0.0
C479 C 0.43452 0.7388 0.78344 0.0
C480 C 0.42712 0.74313 0.86218 0.0
C481 C 0.44861 0.74023 0.78574 0.0
C482 C 0.44796 0.75035 0.94653 0.0
C483 C 0.42606 0.75423 0.02764 0.0
C484 C 0.42118 0.77319 0.42737 0.0
C485 C 0.41996 0.72616 0.41638 0.0
H486 H 0.42212 0.86355 0.42808 0.0
C487 C 0.37923 0.75205 0.24052 0.0
C488 C 0.38021 0.83313 0.05952 0.0
C489 C 0.32588 0.80039 0.15347 0.0
C490 C 0.3012 0.80427 0.16449 0.0
C491 C 0.31364 0.85998 0.09534 0.0
C492 C 0.32579 0.839 0.11105 0.0
C493 C 0.30144 0.84289 0.12178 0.0
C494 C 0.31354 0.78323 0.18022 0.0
C495 C 0.33869 0.77742 0.16931 0.0
H496 H 0.42932 0.73414 0.72033 0.0
H497 H 0.41623 0.7417 0.85908 0.0
H498 H 0.45409 0.73613 0.72356 0.0
H499 H 0.45307 0.75528 1.01006 0.0
H500 H 0.31368 0.88979 0.06281 0.0
H501 H 0.3351 0.85312 0.09014 0.0
H502 H 0.2922 0.86039 0.1099 0.0
H503 H 0.31358 0.75316 0.2121 0.0
C504 C 0.59801 0.28781 0.79485 0.0
C505 C 0.59421 0.22313 0.68186 0.0
C506 C 0.5988 0.24143 0.76714 0.0
C507 C 0.58894 0.25179 0.6251 0.0
C508 C 0.5928 0.31664 0.73769 0.0
C509 C 0.58823 0.29836 0.65291 0.0
N510 N 0.603 0.30491 0.87595 0.0
C511 C 0.60267 0.3501 0.90522 0.0
C512 C 0.5926 0.36316 0.7668 0.0
C513 C 0.59753 0.37992 0.85098 0.0
Gd514 Gd 0.65166 0.23385 0.96707 0.0
Gd515 Gd 0.61123 0.2522 0.9619 0.0
N516 N 0.60443 0.21453 0.82235 0.0
C517 C 0.5951 0.17652 0.6559 0.0
C518 C 0.60461 0.16882 0.79891 0.0
C519 C 0.60018 0.14925 0.71505 0.0
H520 H 0.60778 0.14688 0.84477 0.0
H521 H 0.60052 0.11301 0.69651 0.0
H522 H 0.65968 0.34387 0.03886 0.0
H523 H 0.60617 0.36308 0.97105 0.0
H524 H 0.66678 0.39 0.17696 0.0
H525 H 0.59169 0.16118 0.59095 0.0
H526 H 0.58543 0.23826 0.55929 0.0
H527 H 0.65571 0.12698 0.99882 0.0
H528 H 0.5887 0.3864 0.72476 0.0
H529 H 0.59734 0.41579 0.87424 0.0
H530 H 0.67582 0.28276 0.37401 0.0
H531 H 0.58423 0.32001 0.60802 0.0
H532 H 0.67094 0.12587 0.26148 0.0
H533 H 0.66319 0.08462 0.11791 0.0
N534 N 0.65851 0.19105 0.07613 0.0
C535 C 0.66324 0.2145 0.15317 0.0
C536 C 0.65874 0.14507 0.06209 0.0
C537 C 0.66758 0.14454 0.20972 0.0
C538 C 0.66315 0.12111 0.12892 0.0
C539 C 0.66773 0.19177 0.22255 0.0
H540 H 0.67547 0.19993 0.35683 0.0
N541 N 0.6591 0.28237 0.09389 0.0
C542 C 0.6633 0.2614 0.16281 0.0
C543 C 0.66881 0.33339 0.24826 0.0
C544 C 0.66806 0.28646 0.24228 0.0
C545 C 0.66107 0.32768 0.09683 0.0
C546 C 0.66555 0.35396 0.1746 0.0
O547 O 0.62357 0.2676 0.84378 0.0
O548 O 0.64186 0.21962 0.83094 0.0
O549 O 0.67012 0.26361 0.92228 0.0
O550 O 0.66818 0.19154 0.90983 0.0
O551 O 0.61897 0.18266 0.98068 0.0
O552 O 0.63926 0.17441 0.90488 0.0
O553 O 0.63873 0.21731 0.08252 0.0
O554 O 0.62121 0.26814 0.09681 0.0
O555 O 0.59414 0.21392 1.00039 0.0
O556 O 0.59308 0.28655 0.01651 0.0
O557 O 0.64345 0.30232 0.94396 0.0
O558 O 0.62385 0.31031 0.02723 0.0
C559 C 0.63271 0.24346 0.79555 0.0
C560 C 0.62896 0.15748 0.94335 0.0
C561 C 0.69013 0.22153 0.93732 0.0
C562 C 0.71451 0.23386 0.92608 0.0
C563 C 0.70543 0.19712 0.04562 0.0
C564 C 0.69243 0.2008 1.0129 0.0
C565 C 0.71639 0.21343 1.00275 0.0
C566 C 0.70125 0.23787 0.89364 0.0
C567 C 0.67624 0.225 0.90273 0.0
C568 C 0.67224 0.26396 0.31234 0.0
C569 C 0.6721 0.21677 0.30244 0.0
H570 H 0.67241 0.35382 0.30812 0.0
C571 C 0.62999 0.24283 0.1318 0.0
C572 C 0.634 0.32758 0.98779 0.0
C573 C 0.57926 0.24985 0.11003 0.0
C574 C 0.55742 0.24949 0.18542 0.0
C575 C 0.57842 0.25087 0.2692 0.0
C576 C 0.5859 0.25062 0.19136 0.0
C577 C 0.56431 0.2503 0.26648 0.0
C578 C 0.56507 0.24932 0.10728 0.0
C579 C 0.58687 0.24956 0.02709 0.0
H580 H 0.70704 0.18094 0.10384 0.0
H581 H 0.68427 0.18665 0.04621 0.0
H582 H 0.7264 0.20897 0.02859 0.0
H583 H 0.69959 0.25363 0.83487 0.0
H584 H 0.58358 0.25162 0.33199 0.0
H585 H 0.59682 0.25104 0.19453 0.0
H586 H 0.5588 0.25112 0.3281 0.0
H587 H 0.56003 0.24813 0.04389 0.0
C588 C 0.34865 0.24504 0.19256 0.0
C589 C 0.34212 0.32144 0.25386 0.0
C590 C 0.3474 0.29046 0.18371 0.0
C591 C 0.33813 0.30624 0.3329 0.0
C592 C 0.34447 0.22965 0.2715 0.0
C593 C 0.33931 0.26051 0.34171 0.0
N594 N 0.35406 0.21605 0.12434 0.0
C595 C 0.35403 0.17079 0.12712 0.0
C596 C 0.34552 0.18361 0.27728 0.0
C597 C 0.3501 0.15397 0.20417 0.0
Gd598 Gd 0.40093 0.24154 0.97484 0.0
Gd599 Gd 0.36047 0.24847 0.99891 0.0
N600 N 0.35173 0.30451 0.10746 0.0
C601 C 0.34116 0.36692 0.24285 0.0
C602 C 0.35054 0.34859 0.09555 0.0
C603 C 0.34533 0.38048 0.16317 0.0
H604 H 0.35337 0.35911 0.03329 0.0
H605 H 0.34447 0.41547 0.15365 0.0
H606 H 0.40637 0.13107 0.91672 0.0
H607 H 0.35655 0.14729 0.06936 0.0
H608 H 0.41473 0.07967 0.7864 0.0
H609 H 0.33717 0.39176 0.29522 0.0
H610 H 0.33411 0.32959 0.38767 0.0
H611 H 0.40446 0.3474 0.92249 0.0
H612 H 0.34243 0.17046 0.33679 0.0
H613 H 0.35037 0.11806 0.2065 0.0
H614 H 0.42468 0.17744 0.5716 0.0
H615 H 0.33613 0.2493 0.40301 0.0
H616 H 0.41686 0.33573 0.65204 0.0
H617 H 0.40983 0.38284 0.79135 0.0
N618 N 0.40633 0.28028 0.85559 0.0
C619 C 0.41128 0.25399 0.78197 0.0
C620 C 0.40649 0.32611 0.8609 0.0
C621 C 0.41408 0.31981 0.70891 0.0
C622 C 0.41 0.34648 0.78715 0.0
C623 C 0.41506 0.27306 0.70615 0.0
H624 H 0.42269 0.2592 0.57156 0.0
N625 N 0.40842 0.18984 0.85486 0.0
C626 C 0.41254 0.20766 0.78206 0.0
C627 C 0.41815 0.13304 0.70819 0.0
C628 C 0.41738 0.17956 0.70629 0.0
C629 C 0.40927 0.14464 0.85759 0.0
C630 C 0.41411 0.11555 0.78423 0.0
O631 O 0.37317 0.27082 0.12284 0.0
O632 O 0.39286 0.22934 0.10918 0.0
O633 O 0.42023 0.21152 1.00145 0.0
O634 O 0.41766 0.2836 0.02913 0.0
O635 O 0.37083 0.30744 0.95174 0.0
O636 O 0.39121 0.30922 0.02555 0.0
O637 O 0.38747 0.21639 0.85567 0.0
O638 O 0.3691 0.26326 0.86826 0.0
O639 O 0.34072 0.27376 0.96796 0.0
O640 O 0.34518 0.2028 0.93562 0.0
O641 O 0.39135 0.18248 0.02574 0.0
O642 O 0.37031 0.17949 0.95854 0.0
C643 C 0.38308 0.25 0.15793 0.0
C644 C 0.38098 0.32961 0.99277 0.0
C645 C 0.43356 0.25036 0.11564 0.0
C646 C 0.45546 0.24901 0.18971 0.0
C647 C 0.43455 0.25203 0.275 0.0
C648 C 0.42701 0.25186 0.19762 0.0
C649 C 0.44865 0.25062 0.27131 0.0
C650 C 0.44775 0.24898 0.11189 0.0
C651 C 0.42575 0.24969 0.03332 0.0
C652 C 0.42101 0.19853 0.63061 0.0
C653 C 0.41983 0.2451 0.63048 0.0
H654 H 0.4218 0.11035 0.65126 0.0
C655 C 0.37827 0.2396 0.81929 0.0
C656 C 0.38053 0.16035 0.99456 0.0
C657 C 0.32898 0.2338 0.84718 0.0
C658 C 0.30744 0.23593 0.76879 0.0
C659 C 0.32873 0.23044 0.68732 0.0
C660 C 0.3359 0.23095 0.76629 0.0
C661 C 0.31463 0.23282 0.68831 0.0
C662 C 0.31479 0.23639 0.84823 0.0
C663 C 0.33634 0.23468 0.9313 0.0
H664 H 0.42945 0.25334 0.33821 0.0
H665 H 0.41611 0.25294 0.20174 0.0
H666 H 0.45421 0.2514 0.33264 0.0
H667 H 0.45274 0.24719 0.04814 0.0
H668 H 0.33412 0.22804 0.62495 0.0
H669 H 0.34681 0.22908 0.76425 0.0
H670 H 0.30937 0.23159 0.62575 0.0
H671 H 0.30954 0.2394 0.91123 0.0
H672 H 0.22345 0.28596 0.64743 0.0
H673 H 0.28947 0.19697 0.87329 0.0
H674 H 0.22213 0.21457 0.87375 0.0
H675 H 0.29084 0.28087 0.66576 0.0
H676 H 0.26484 0.20129 0.87197 0.0
H677 H 0.2481 0.28165 0.64906 0.0
C678 C 0.22832 0.26912 0.69716 0.0
C679 C 0.22064 0.25064 0.76059 0.0
C680 C 0.27053 0.21878 0.82675 0.0
C681 C 0.24898 0.24589 0.76329 0.0
C682 C 0.28464 0.21658 0.82782 0.0
C683 C 0.29235 0.23857 0.76952 0.0
C684 C 0.264 0.24306 0.76678 0.0
C685 C 0.28539 0.26275 0.71104 0.0
C686 C 0.24242 0.26693 0.69842 0.0
C687 C 0.22759 0.22981 0.8242 0.0
N688 N 0.27166 0.26429 0.71115 0.0
N689 N 0.24132 0.22794 0.82381 0.0
H690 H 0.73686 0.27793 1.00045 0.0
H691 H 0.77694 0.27204 0.54195 0.0
H692 H 0.71982 0.22426 0.74664 0.0
H693 H 0.79522 0.30752 0.7994 0.0
H694 H 0.75555 0.2587 0.61415 0.0
H695 H 0.75771 0.29438 0.92632 0.0
C696 C 0.73748 0.26969 0.92896 0.0
C697 C 0.72657 0.24916 0.87991 0.0
C698 C 0.76424 0.26932 0.65488 0.0
C699 C 0.75053 0.26822 0.79419 0.0
C700 C 0.77646 0.27707 0.61373 0.0
C701 C 0.78792 0.29105 0.66466 0.0
C702 C 0.7634 0.27582 0.74785 0.0
C703 C 0.78671 0.29638 0.75742 0.0
C704 C 0.74941 0.27914 0.88664 0.0
C705 C 0.72791 0.24025 0.7872 0.0
N706 N 0.77468 0.28897 0.79592 0.0
N707 N 0.73969 0.24958 0.74743 0.0
H708 H 0.27708 0.79791 0.07483 0.0
H709 H 0.23622 0.69664 0.4552 0.0
H710 H 0.29526 0.7702 0.31857 0.0
H711 H 0.21783 0.72993 0.21631 0.0
H712 H 0.25794 0.72258 0.40584 0.0
H713 H 0.25541 0.77224 0.12487 0.0
C714 C 0.27653 0.78658 0.13909 0.0
C715 C 0.28806 0.78653 0.1927 0.0
C716 C 0.24915 0.72431 0.36425 0.0
C717 C 0.26317 0.75654 0.25024 0.0
C718 C 0.23674 0.70933 0.39224 0.0
C719 C 0.22514 0.71092 0.33976 0.0
C720 C 0.25006 0.74097 0.28289 0.0
C721 C 0.22643 0.72845 0.25948 0.0
C722 C 0.26413 0.77173 0.16748 0.0
C723 C 0.28671 0.77051 0.27453 0.0
N724 N 0.23865 0.7426 0.23343 0.0
N725 N 0.27451 0.75631 0.30083 0.0
H726 H 0.7215 0.78816 0.16113 0.0
H727 H 0.79263 0.71358 0.34754 0.0
H728 H 0.73169 0.65067 0.18745 0.0
H729 H 0.78233 0.85119 0.32305 0.0
H730 H 0.77049 0.68968 0.28687 0.0
H731 H 0.74363 0.81205 0.22181 0.0
C732 C 0.72833 0.76302 0.18028 0.0
C733 C 0.7247 0.71726 0.16859 0.0
C734 C 0.77308 0.72512 0.29473 0.0
C735 C 0.75019 0.74434 0.23722 0.0
C736 C 0.78578 0.73875 0.32879 0.0
C737 C 0.78937 0.78453 0.34098 0.0
C738 C 0.76388 0.75745 0.27234 0.0
C739 C 0.77995 0.81563 0.31634 0.0
C740 C 0.74102 0.77664 0.21436 0.0
C741 C 0.73409 0.6862 0.19374 0.0
N742 N 0.76768 0.80155 0.28344 0.0
N743 N 0.74636 0.70027 0.2266 0.0
H744 H 0.13737 0.88088 0.33257 0.0
H745 H 0.14345 0.11743 0.63067 0.0
H746 H 0.12782 0.89434 0.61125 0.0
H747 H 0.12452 0.10584 0.37368 0.0
H748 H 0.14282 0.03483 0.62166 0.0
H749 H 0.13768 0.96342 0.34278 0.0
C750 C 0.13543 0.90135 0.39593 0.0
C751 C 0.13254 0.8812 0.47125 0.0
C752 C 0.13884 0.05053 0.56738 0.0
C753 C 0.13317 0.97484 0.48358 0.0
C754 C 0.13929 0.09738 0.5721 0.0
C755 C 0.13406 0.11811 0.5026 0.0
C756 C 0.1335 0.02445 0.49158 0.0
C757 C 0.12862 0.09091 0.42858 0.0
C758 C 0.13553 0.94819 0.40154 0.0
C759 C 0.12999 0.90891 0.55177 0.0
N760 N 0.12861 0.0453 0.42445 0.0
N761 N 0.13052 0.95454 0.55621 0.0
H762 H 0.87047 0.41223 0.67215 0.0
H763 H 0.87908 0.59537 0.34891 0.0
H764 H 0.89235 0.38252 0.42578 0.0
H765 H 0.88314 0.63259 0.63157 0.0
H766 H 0.87862 0.51547 0.36966 0.0
H767 H 0.86987 0.49236 0.65247 0.0
C768 C 0.87509 0.42258 0.6139 0.0
C769 C 0.88156 0.39091 0.55081 0.0
C770 C 0.87955 0.54121 0.42703 0.0
C771 C 0.88062 0.48174 0.52705 0.0
C772 C 0.87975 0.5866 0.41531 0.0
C773 C 0.8812 0.62027 0.48872 0.0
C774 C 0.88046 0.52962 0.51289 0.0
C775 C 0.8821 0.60738 0.57342 0.0
C776 C 0.87478 0.46815 0.60293 0.0
C777 C 0.88741 0.406 0.47646 0.0
N778 N 0.8816 0.56299 0.58342 0.0
N779 N 0.88668 0.45028 0.46615 0.0
H780 H 0.87037 0.88777 0.38937 0.0
H781 H 0.87513 0.12343 0.69235 0.0
H782 H 0.88873 0.89735 0.64786 0.0
H783 H 0.88649 0.111 0.41671 0.0
H784 H 0.87477 0.04075 0.68083 0.0
H785 H 0.87084 0.97045 0.4014 0.0
C786 C 0.87436 0.90736 0.44904 0.0
C787 C 0.87948 0.88591 0.51795 0.0
C788 C 0.87732 0.05624 0.62301 0.0
C789 C 0.87985 0.97998 0.53237 0.0
C790 C 0.87745 0.1032 0.62929 0.0
C791 C 0.88087 0.1238 0.55527 0.0
C792 C 0.88019 0.02981 0.54145 0.0
C793 C 0.88389 0.09623 0.47527 0.0
C794 C 0.87471 0.95433 0.45544 0.0
C795 C 0.8847 0.91273 0.59334 0.0
N796 N 0.88332 0.05052 0.47006 0.0
N797 N 0.88461 0.95851 0.59909 0.0
H798 H 0.14179 0.58998 0.33166 0.0
H799 H 0.13723 0.41101 0.66663 0.0
H800 H 0.12301 0.62495 0.58789 0.0
H801 H 0.12824 0.37456 0.38908 0.0
H802 H 0.1379 0.49101 0.64467 0.0
H803 H 0.14285 0.51082 0.35741 0.0
C804 C 0.13795 0.58095 0.39332 0.0
C805 C 0.13212 0.61363 0.45723 0.0
C806 C 0.13582 0.46529 0.58878 0.0
C807 C 0.13366 0.52419 0.48791 0.0
C808 C 0.13547 0.41995 0.60118 0.0
C809 C 0.13258 0.38656 0.52944 0.0
C810 C 0.13365 0.47676 0.50371 0.0
C811 C 0.13035 0.39952 0.44591 0.0
C812 C 0.13854 0.53601 0.40786 0.0
C813 C 0.12736 0.60044 0.53639 0.0
N814 N 0.13105 0.44361 0.435 0.0
N815 N 0.12831 0.55669 0.54988 0.0
H816 H 0.62466 0.6003 0.86914 0.0
H817 H 0.63027 0.39278 0.13019 0.0
H818 H 0.64568 0.61336 0.11916 0.0
H819 H 0.63871 0.37426 0.84975 0.0
H820 H 0.63101 0.47503 0.1318 0.0
H821 H 0.62495 0.51768 0.86369 0.0
C822 C 0.62936 0.58575 0.9226 0.0
C823 C 0.63526 0.61355 0.99431 0.0
C824 C 0.63272 0.45285 0.07006 0.0
C825 C 0.63525 0.51978 0.98975 0.0
C826 C 0.63225 0.40615 0.06906 0.0
C827 C 0.63454 0.377 0.98988 0.0
C828 C 0.63503 0.47039 0.99077 0.0
C829 C 0.63706 0.39581 0.91228 0.0
C830 C 0.62955 0.5388 0.91933 0.0
C831 C 0.64117 0.59306 0.06215 0.0
N832 N 0.63707 0.44141 0.91433 0.0
N833 N 0.64086 0.54746 0.05886 0.0
H834 H 0.38697 0.8699 0.91249 0.0
H835 H 0.38703 0.12139 0.13865 0.0
H836 H 0.37138 0.90442 0.17794 0.0
H837 H 0.37237 0.09008 0.87061 0.0
H838 H 0.38584 0.04107 0.15399 0.0
H839 H 0.38602 0.95009 0.89382 0.0
C840 C 0.38337 0.89445 0.96671 0.0
C841 C 0.37927 0.88086 0.0469 0.0
C842 C 0.38287 0.05188 0.09196 0.0
C843 C 0.37844 0.97193 0.02669 0.0
C844 C 0.38364 0.09745 0.08294 0.0
C845 C 0.3798 0.11205 1.00323 0.0
C846 C 0.37868 0.0206 0.01977 0.0
C847 C 0.37535 0.07994 0.93317 0.0
C848 C 0.38276 0.93992 0.95584 0.0
C849 C 0.37458 0.9137 0.11506 0.0
N850 N 0.37509 0.03542 0.94254 0.0
N851 N 0.3745 0.95794 0.10397 0.0
H852 H 0.38935 0.39003 0.13305 0.0
H853 H 0.38567 0.6074 0.89559 0.0
H854 H 0.37278 0.38148 0.86961 0.0
H855 H 0.37528 0.61287 0.17179 0.0
H856 H 0.38561 0.52432 0.88027 0.0
H857 H 0.38907 0.47272 0.14497 0.0
C858 C 0.38573 0.40566 0.07768 0.0
C859 C 0.38102 0.37923 1.00047 0.0
C860 C 0.38331 0.54391 0.94398 0.0
C861 C 0.38093 0.47306 1.01286 0.0
C862 C 0.38339 0.59103 0.95274 0.0
C863 C 0.38039 0.61668 0.03479 0.0
C864 C 0.38065 0.52269 0.01854 0.0
C865 C 0.3775 0.59414 0.10715 0.0
C866 C 0.38551 0.45261 0.08463 0.0
C867 C 0.37637 0.40091 0.93054 0.0
N868 N 0.37786 0.54839 0.09763 0.0
N869 N 0.37656 0.44669 0.93797 0.0
H870 H 0.63804 0.08679 0.8231 0.0
H871 H 0.63527 0.9056 0.1553 0.0
H872 H 0.62062 0.11804 0.08421 0.0
H873 H 0.62832 0.86657 0.87561 0.0
H874 H 0.63473 0.98525 0.13287 0.0
H875 H 0.63908 0.00673 0.84302 0.0
C876 C 0.63439 0.07672 0.88435 0.0
C877 C 0.62908 0.10886 0.9517 0.0
C878 C 0.63338 0.95918 0.07647 0.0
C879 C 0.63062 0.01806 0.97581 0.0
C880 C 0.63377 0.91389 0.0891 0.0
C881 C 0.63182 0.87971 0.01711 0.0
C882 C 0.63134 0.97026 0.99095 0.0
C883 C 0.62979 0.89211 0.93276 0.0
C884 C 0.63498 0.0312 0.89562 0.0
C885 C 0.62458 0.09418 0.0301 0.0
N886 N 0.62971 0.93641 0.92175 0.0
N887 N 0.62558 0.04994 0.04043 0.0
H888 H 0.13973 0.18566 0.23511 0.0
H889 H 0.13755 0.33056 0.83346 0.0
H890 H 0.12314 0.31985 0.2695 0.0
H891 H 0.13226 0.1865 0.79064 0.0
H892 H 0.13632 0.32951 0.995 0.0
H893 H 0.14094 0.18705 0.07423 0.0
C894 C 0.13644 0.2156 0.20905 0.0
C895 C 0.13151 0.25297 0.26675 0.0
C896 C 0.13548 0.29812 0.9502 0.0
C897 C 0.13298 0.25496 0.08155 0.0
C898 C 0.1363 0.29866 0.85801 0.0
C899 C 0.13504 0.25856 0.79813 0.0
C900 C 0.13377 0.257 0.98339 0.0
C901 C 0.13327 0.21825 0.8341 0.0
C902 C 0.13707 0.21627 0.11699 0.0
C903 C 0.12713 0.29045 0.22825 0.0
N904 N 0.1328 0.21844 0.92386 0.0
N905 N 0.12813 0.29073 0.13869 0.0
H906 H 0.86902 0.19811 0.27406 0.0
H907 H 0.89041 0.32819 0.87098 0.0
H908 H 0.89781 0.30699 0.30368 0.0
H909 H 0.87051 0.1991 0.83445 0.0
H910 H 0.89202 0.32444 0.0306 0.0
H911 H 0.86809 0.20146 0.11471 0.0
C912 C 0.87517 0.22275 0.24714 0.0
C913 C 0.88347 0.25243 0.30285 0.0
C914 C 0.88733 0.29688 0.98765 0.0
C915 C 0.88248 0.2564 0.1193 0.0
C916 C 0.88648 0.2989 0.89639 0.0
C917 C 0.88054 0.26358 0.83876 0.0
C918 C 0.88194 0.25964 0.0222 0.0
C919 C 0.8752 0.22715 0.87608 0.0
C920 C 0.87467 0.22451 0.15585 0.0
C921 C 0.89131 0.28328 0.2635 0.0
N922 N 0.87602 0.22615 0.96507 0.0
N923 N 0.89056 0.28464 0.17447 0.0
H924 H 0.12772 0.67561 0.14652 0.0
H925 H 0.12287 0.821 0.7463 0.0
H926 H 0.13591 0.81814 0.18746 0.0
H927 H 0.13742 0.68408 0.70658 0.0
H928 H 0.12314 0.81998 0.90804 0.0
H929 H 0.12678 0.67727 0.98543 0.0
C930 C 0.1293 0.70728 0.12164 0.0
C931 C 0.13201 0.74672 0.18079 0.0
C932 C 0.12626 0.79018 0.86379 0.0
C933 C 0.13069 0.74906 0.99596 0.0
C934 C 0.12604 0.79066 0.77144 0.0
C935 C 0.13022 0.75268 0.7124 0.0
C936 C 0.13033 0.751 0.89777 0.0
C937 C 0.13427 0.71433 0.74928 0.0
C938 C 0.12879 0.70818 0.02964 0.0
C939 C 0.13395 0.78683 0.14441 0.0
N940 N 0.13412 0.71434 0.839 0.0
N941 N 0.13313 0.78707 0.05481 0.0
H942 H 0.86431 0.70473 0.73765 0.0
H943 H 0.88908 0.81625 0.21863 0.0
H944 H 0.89691 0.80048 0.77431 0.0
H945 H 0.87022 0.6855 0.17287 0.0
H946 H 0.88955 0.81751 0.05823 0.0
H947 H 0.86363 0.70408 0.89847 0.0
C948 C 0.87123 0.72601 0.77966 0.0
C949 C 0.88062 0.75293 0.74242 0.0
C950 C 0.88533 0.7885 0.08323 0.0
C951 C 0.87997 0.75218 0.92699 0.0
C952 C 0.88513 0.78761 0.17491 0.0
C953 C 0.87993 0.75021 0.20961 0.0
C954 C 0.8799 0.75229 0.02525 0.0
C955 C 0.87444 0.71492 0.14942 0.0
C956 C 0.87093 0.72527 0.87141 0.0
C957 C 0.88957 0.779 0.80007 0.0
N958 N 0.87454 0.71686 0.06044 0.0
N959 N 0.88896 0.77824 0.88936 0.0
H960 H 0.64342 0.81782 0.33468 0.0
H961 H 0.61671 0.69777 0.73685 0.0
H962 H 0.62614 0.68459 0.29351 0.0
H963 H 0.64913 0.79434 0.76882 0.0
H964 H 0.61734 0.69892 0.57571 0.0
H965 H 0.64334 0.81573 0.49531 0.0
C966 C 0.6396 0.78811 0.35923 0.0
C967 C 0.63454 0.75163 0.30018 0.0
C968 C 0.62436 0.71968 0.61802 0.0
C969 C 0.63424 0.74933 0.48451 0.0
C970 C 0.62394 0.71925 0.71 0.0
C971 C 0.63296 0.7457 0.7664 0.0
C972 C 0.63367 0.7475 0.5821 0.0
C973 C 0.64218 0.77274 0.72776 0.0
C974 C 0.63954 0.787 0.45102 0.0
C975 C 0.62979 0.714 0.33635 0.0
N976 N 0.64223 0.77322 0.63835 0.0
N977 N 0.62961 0.71401 0.42586 0.0
H978 H 0.39856 0.79191 0.80482 0.0
H979 H 0.36969 0.68641 0.33157 0.0
H980 H 0.36429 0.70267 0.77644 0.0
H981 H 0.38879 0.81686 0.37304 0.0
H982 H 0.37028 0.68489 0.49181 0.0
H983 H 0.39812 0.79391 0.64399 0.0
C984 C 0.39101 0.77245 0.76466 0.0
C985 C 0.38145 0.74706 0.80414 0.0
C986 C 0.37439 0.71378 0.46582 0.0
C987 C 0.38088 0.74921 0.6202 0.0
C988 C 0.37405 0.71476 0.37427 0.0
C989 C 0.37942 0.75154 0.3383 0.0
C990 C 0.38028 0.74962 0.52237 0.0
C991 C 0.3849 0.78726 0.39739 0.0
C992 C 0.39069 0.77396 0.6731 0.0
C993 C 0.37176 0.72305 0.74901 0.0
N994 N 0.38531 0.78525 0.48629 0.0
N995 N 0.37179 0.72443 0.65996 0.0
H996 H 0.63805 0.17424 0.22081 0.0
H997 H 0.62266 0.30895 0.70552 0.0
H998 H 0.62121 0.30824 0.26528 0.0
H999 H 0.64266 0.17978 0.66226 0.0
H1000 H 0.62134 0.30808 0.54514 0.0
H1001 H 0.63919 0.17451 0.38135 0.0
C1002 C 0.63467 0.20389 0.26442 0.0
C1003 C 0.62979 0.24164 0.2293 0.0
C1004 C 0.62604 0.27991 0.57044 0.0
C1005 C 0.63073 0.2418 0.41415 0.0
C1006 C 0.62674 0.28024 0.66227 0.0
C1007 C 0.63266 0.24414 0.69781 0.0
C1008 C 0.63136 0.24325 0.5128 0.0
C1009 C 0.63804 0.2084 0.6381 0.0
C1010 C 0.63524 0.20392 0.35626 0.0
C1011 C 0.62511 0.27847 0.28921 0.0
N1012 N 0.63722 0.20879 0.54875 0.0
N1013 N 0.62573 0.27768 0.37846 0.0
H1014 H 0.395 0.18824 0.25054 0.0
H1015 H 0.36875 0.30587 0.72881 0.0
H1016 H 0.37135 0.31027 0.28963 0.0
H1017 H 0.38816 0.1758 0.68616 0.0
H1018 H 0.37017 0.30913 0.56924 0.0
H1019 H 0.39372 0.18504 0.41035 0.0
C1020 C 0.38954 0.21443 0.29263 0.0
C1021 C 0.38308 0.24919 0.25589 0.0
C1022 C 0.37417 0.27987 0.59462 0.0
C1023 C 0.38155 0.24574 0.43988 0.0
C1024 C 0.3733 0.2779 0.68589 0.0
C1025 C 0.37854 0.24077 0.72151 0.0
C1026 C 0.3803 0.24443 0.53775 0.0
C1027 C 0.3843 0.20558 0.6622 0.0
C1028 C 0.38876 0.21246 0.38401 0.0
C1029 C 0.37622 0.28227 0.31431 0.0
N1030 N 0.38509 0.20834 0.57367 0.0
N1031 N 0.37562 0.27969 0.40292 0.0
H1032 H 0.04034 0.30261 0.26019 0.0
H1033 H 0.97351 0.20401 0.459 0.0
H1034 H 0.0411 0.19831 0.42811 0.0
H1035 H 0.97317 0.29747 0.26854 0.0
H1036 H 0.99823 0.20493 0.45684 0.0
H1037 H 0.01577 0.30403 0.26962 0.0
C1038 C 0.03537 0.2798 0.29876 0.0
C1039 C 0.0429 0.25004 0.34287 0.0
C1040 C 0.99274 0.22527 0.4156 0.0
C1041 C 0.01458 0.25201 0.355 0.0
C1042 C 0.97861 0.22498 0.4172 0.0
C1043 C 0.9712 0.25056 0.36358 0.0
C1044 C 0.99956 0.25154 0.36036 0.0
C1045 C 0.97842 0.27667 0.31001 0.0
C1046 C 0.02129 0.28083 0.30452 0.0
C1047 C 0.0358 0.22211 0.39355 0.0
N1048 N 0.99215 0.27647 0.3098 0.0
N1049 N 0.02207 0.2237 0.39802 0.0
H1050 H 0.97352 0.70962 0.77235 0.0
H1051 H 0.04121 0.79089 0.55445 0.0
H1052 H 0.97364 0.80142 0.57852 0.0
H1053 H 0.04077 0.71581 0.77564 0.0
H1054 H 0.01649 0.79085 0.55452 0.0
H1055 H 0.99812 0.7078 0.76749 0.0
C1056 C 0.97869 0.72963 0.72902 0.0
C1057 C 0.97139 0.75598 0.67621 0.0
C1058 C 0.02181 0.77438 0.60303 0.0
C1059 C 0.99974 0.75342 0.66935 0.0
C1060 C 0.03593 0.77415 0.6027 0.0
C1061 C 0.04312 0.75341 0.66528 0.0
C1062 C 0.01477 0.75343 0.666 0.0
C1063 C 0.03569 0.73273 0.72689 0.0
C1064 C 0.99277 0.72835 0.72596 0.0
C1065 C 0.97875 0.78025 0.61984 0.0
N1066 N 0.02196 0.73322 0.72558 0.0
N1067 N 0.99249 0.77844 0.61803 0.0
H1068 H 0.5398 0.78995 0.75202 0.0
H1069 H 0.47279 0.70579 0.97384 0.0
H1070 H 0.54027 0.69618 0.94205 0.0
H1071 H 0.47262 0.78841 0.76423 0.0
H1072 H 0.4975 0.70582 0.97095 0.0
H1073 H 0.51523 0.79298 0.76217 0.0
C1074 C 0.53476 0.76978 0.79562 0.0
C1075 C 0.54219 0.74252 0.84579 0.0
C1076 C 0.49205 0.724 0.9257 0.0
C1077 C 0.51392 0.74638 0.85869 0.0
C1078 C 0.47793 0.72425 0.9277 0.0
C1079 C 0.47057 0.74698 0.86893 0.0
C1080 C 0.49891 0.74686 0.86479 0.0
C1081 C 0.47783 0.76986 0.80988 0.0
C1082 C 0.5207 0.77176 0.80177 0.0
C1083 C 0.53503 0.71801 0.90267 0.0
N1084 N 0.49155 0.76919 0.80933 0.0
N1085 N 0.52132 0.72044 0.90737 0.0
H1086 H 0.47267 0.20163 0.2836 0.0
H1087 H 0.54039 0.29417 0.08454 0.0
H1088 H 0.47273 0.29249 0.08819 0.0
H1089 H 0.53994 0.20323 0.27982 0.0
H1090 H 0.51571 0.29284 0.08215 0.0
H1091 H 0.49729 0.2012 0.28121 0.0
C1092 C 0.47784 0.22168 0.24037 0.0
C1093 C 0.47053 0.24734 0.18635 0.0
C1094 C 0.52101 0.27314 0.12547 0.0
C1095 C 0.49891 0.24662 0.18264 0.0
C1096 C 0.53513 0.27367 0.12653 0.0
C1097 C 0.54234 0.24881 0.18258 0.0
C1098 C 0.51396 0.24753 0.18078 0.0
C1099 C 0.53488 0.22347 0.23646 0.0
C1100 C 0.49194 0.22121 0.2387 0.0
C1101 C 0.47788 0.27187 0.13043 0.0
N1102 N 0.52115 0.22351 0.23419 0.0
N1103 N 0.49163 0.27102 0.13026 0.0
loop_
_geom_bond_atom_site_label_1
_geom_bond_atom_site_label_2
_geom_bond_distance
_geom_bond_site_symmetry_2
_ccdc_geom_bond_type
C0 C2 1.422 . S
C0 C4 1.415 . S
C0 N6 1.369 . S
C1 C2 1.421 . S
C1 C3 1.417 . S
C1 C13 1.422 . S
C2 C0 1.422 . S
C2 C1 1.421 . S
C2 N12 1.359 . S
C3 C1 1.417 . S
C3 C5 1.329 . S
C3 H22 0.930 . S
C4 C0 1.415 . S
C4 C5 1.437 . S
C4 C8 1.413 . S
C5 C3 1.329 . S
C5 C4 1.437 . S
C5 H27 0.929 . S
N6 C0 1.369 . S
N6 C7 1.338 . S
N6 Gd11 2.622 . S
C7 N6 1.338 . S
C7 C9 1.378 . S
C7 H19 0.929 . S
C8 C4 1.413 . S
C8 C9 1.348 . S
C8 H24 0.931 . S
C9 C7 1.378 . S
C9 C8 1.348 . S
C9 H25 0.930 . S
Gd10 N30 2.622 . S
Gd10 N37 2.570 . S
Gd10 O44 2.353 . S
Gd10 O45 2.468 . S
Gd10 O46 2.427 . S
Gd10 O48 2.388 . S
Gd10 O49 2.386 . S
Gd10 O53 2.307 . S
Gd10 C63 2.805 . S
Gd11 N6 2.622 . S
Gd11 N12 2.570 . S
Gd11 O43 2.386 . S
Gd11 O47 2.307 . S
Gd11 O50 2.353 . S
Gd11 O51 2.468 . S
Gd11 O52 2.427 . S
Gd11 O54 2.388 . S
Gd11 C75 2.805 . S
N12 C2 1.359 . S
N12 Gd11 2.570 . S
N12 C14 1.343 . S
C13 C1 1.422 . S
C13 C15 1.321 . S
C13 H21 0.931 . S
C14 N12 1.343 . S
C14 C15 1.390 . S
C14 H16 0.931 . S
C15 C13 1.321 . S
C15 C14 1.390 . S
C15 H17 0.930 . S
H16 C14 0.931 . S
H17 C15 0.930 . S
H18 C41 0.931 . S
H19 C7 0.929 . S
H20 C42 0.930 . S
H21 C13 0.931 . S
H22 C3 0.930 . S
H23 C32 0.929 . S
H24 C8 0.931 . S
H25 C9 0.930 . S
H26 C64 0.930 . S
H27 C5 0.929 . S
H28 C33 0.931 . S
H29 C34 0.930 . S
N30 Gd10 2.622 . S
N30 C31 1.369 . S
N30 C32 1.338 . S
C31 N30 1.369 . S
C31 C35 1.415 . S
C31 C38 1.422 . S
C32 H23 0.929 . S
C32 N30 1.338 . S
C32 C34 1.378 . S
C33 H28 0.931 . S
C33 C34 1.348 . S
C33 C35 1.413 . S
C34 H29 0.930 . S
C34 C32 1.378 . S
C34 C33 1.348 . S
C35 C31 1.415 . S
C35 C33 1.413 . S
C35 C65 1.437 . S
H36 C65 0.929 . S
N37 Gd10 2.570 . S
N37 C38 1.359 . S
N37 C41 1.343 . S
C38 C31 1.422 . S
C38 N37 1.359 . S
C38 C40 1.421 . S
C39 C40 1.422 . S
C39 C42 1.321 . S
C39 H66 0.931 . S
C40 C38 1.421 . S
C40 C39 1.422 . S
C40 C64 1.417 . S
C41 H18 0.931 . S
C41 N37 1.343 . S
C41 C42 1.390 . S
C42 H20 0.930 . S
C42 C39 1.321 . S
C42 C41 1.390 . S
O43 Gd11 2.386 . S
O43 C55 1.265 . S
O44 Gd10 2.353 . S
O44 C55 1.242 . S
O45 Gd10 2.468 . S
O45 C63 1.263 . S
O46 Gd10 2.427 . S
O46 C63 1.252 . S
O47 Gd11 2.307 . S
O47 C56 1.261 . S
O48 Gd10 2.388 . S
O48 C56 1.252 . S
O49 Gd10 2.386 . S
O49 C67 1.265 . S
O50 Gd11 2.353 . S
O50 C67 1.242 . S
O51 Gd11 2.468 . S
O51 C75 1.263 . S
O52 Gd11 2.427 . S
O52 C75 1.252 . S
O53 Gd10 2.307 . S
O53 C68 1.261 . S
O54 Gd11 2.388 . S
O54 C68 1.252 . S
C55 O43 1.265 . S
C55 O44 1.242 . S
C56 O47 1.261 . S
C56 O48 1.252 . S
C57 C60 1.394 . S
C57 C62 1.370 . S
C57 C63 1.500 . S
C58 C61 1.383 . S
C58 C62 1.395 . S
C59 C60 1.396 . S
C59 C61 1.365 . S
C59 H76 0.929 . S
C60 C57 1.394 . S
C60 C59 1.396 . S
C60 H77 0.930 . S
C61 C58 1.383 . S
C61 C59 1.365 . S
C61 H78 0.931 . S
C62 C57 1.370 . S
C62 C58 1.395 . S
C62 H79 0.930 . S
C63 Gd10 2.805 . S
C63 O45 1.263 . S
C63 O46 1.252 . S
C63 C57 1.500 . S
C64 H26 0.930 . S
C64 C40 1.417 . S
C64 C65 1.329 . S
C65 C35 1.437 . S
C65 H36 0.929 . S
C65 C64 1.329 . S
H66 C39 0.931 . S
C67 O49 1.265 . S
C67 O50 1.242 . S
C68 O53 1.261 . S
C68 O54 1.252 . S
C69 C72 1.394 . S
C69 C74 1.370 . S
C69 C75 1.500 . S
C70 C73 1.383 . S
C70 C74 1.395 . S
C71 C72 1.396 . S
C71 C73 1.365 . S
C71 H80 0.929 . S
C72 C69 1.394 . S
C72 C71 1.396 . S
C72 H81 0.930 . S
C73 C70 1.383 . S
C73 C71 1.365 . S
C73 H82 0.931 . S
C74 C69 1.370 . S
C74 C70 1.395 . S
C74 H83 0.930 . S
C75 Gd11 2.805 . S
C75 O51 1.263 . S
C75 O52 1.252 . S
C75 C69 1.500 . S
H76 C59 0.929 . S
H77 C60 0.930 . S
H78 C61 0.931 . S
H79 C62 0.930 . S
H80 C71 0.929 . S
H81 C72 0.930 . S
H82 C73 0.931 . S
H83 C74 0.930 . S
C84 C86 1.422 . S
C84 C88 1.415 . S
C84 N90 1.369 . S
C85 C86 1.421 . S
C85 C87 1.417 . S
C85 C97 1.422 . S
C86 C84 1.422 . S
C86 C85 1.421 . S
C86 N96 1.359 . S
C87 C85 1.417 . S
C87 C89 1.329 . S
C87 H106 0.930 . S
C88 C84 1.415 . S
C88 C89 1.437 . S
C88 C92 1.413 . S
C89 C87 1.329 . S
C89 C88 1.437 . S
C89 H111 0.929 . S
N90 C84 1.369 . S
N90 C91 1.338 . S
N90 Gd95 2.622 . S
C91 N90 1.338 . S
C91 C93 1.378 . S
C91 H103 0.929 . S
C92 C88 1.413 . S
C92 C93 1.348 . S
C92 H108 0.931 . S
C93 C91 1.378 . S
C93 C92 1.348 . S
C93 H109 0.930 . S
Gd94 N114 2.622 . S
Gd94 N121 2.570 . S
Gd94 O128 2.353 . S
Gd94 O129 2.468 . S
Gd94 O130 2.427 . S
Gd94 O132 2.388 . S
Gd94 O133 2.386 . S
Gd94 O137 2.307 . S
Gd94 C147 2.805 . S
Gd95 N90 2.622 . S
Gd95 N96 2.570 . S
Gd95 O127 2.386 . S
Gd95 O131 2.307 . S
Gd95 O134 2.353 . S
Gd95 O135 2.468 . S
Gd95 O136 2.427 . S
Gd95 O138 2.388 . S
Gd95 C159 2.805 . S
N96 C86 1.359 . S
N96 Gd95 2.570 . S
N96 C98 1.343 . S
C97 C85 1.422 . S
C97 C99 1.321 . S
C97 H105 0.931 . S
C98 N96 1.343 . S
C98 C99 1.390 . S
C98 H100 0.931 . S
C99 C97 1.321 . S
C99 C98 1.390 . S
C99 H101 0.930 . S
H100 C98 0.931 . S
H101 C99 0.930 . S
H102 C125 0.931 . S
H103 C91 0.929 . S
H104 C126 0.930 . S
H105 C97 0.931 . S
H106 C87 0.930 . S
H107 C116 0.929 . S
H108 C92 0.931 . S
H109 C93 0.930 . S
H110 C148 0.930 . S
H111 C89 0.929 . S
H112 C117 0.931 . S
H113 C118 0.930 . S
N114 Gd94 2.622 . S
N114 C115 1.369 . S
N114 C116 1.338 . S
C115 N114 1.369 . S
C115 C119 1.415 . S
C115 C122 1.422 . S
C116 H107 0.929 . S
C116 N114 1.338 . S
C116 C118 1.378 . S
C117 H112 0.931 . S
C117 C118 1.348 . S
C117 C119 1.413 . S
C118 H113 0.930 . S
C118 C116 1.378 . S
C118 C117 1.348 . S
C119 C115 1.415 . S
C119 C117 1.413 . S
C119 C149 1.437 . S
H120 C149 0.929 . S
N121 Gd94 2.570 . S
N121 C122 1.359 . S
N121 C125 1.343 . S
C122 C115 1.422 . S
C122 N121 1.359 . S
C122 C124 1.421 . S
C123 C124 1.422 . S
C123 C126 1.321 . S
C123 H150 0.931 . S
C124 C122 1.421 . S
C124 C123 1.422 . S
C124 C148 1.417 . S
C125 H102 0.931 . S
C125 N121 1.343 . S
C125 C126 1.390 . S
C126 H104 0.930 . S
C126 C123 1.321 . S
C126 C125 1.390 . S
O127 Gd95 2.386 . S
O127 C139 1.265 . S
O128 Gd94 2.353 . S
O128 C139 1.242 . S
O129 Gd94 2.468 . S
O129 C147 1.263 . S
O130 Gd94 2.427 . S
O130 C147 1.252 . S
O131 Gd95 2.307 . S
O131 C140 1.261 . S
O132 Gd94 2.388 . S
O132 C140 1.252 . S
O133 Gd94 2.386 . S
O133 C151 1.265 . S
O134 Gd95 2.353 . S
O134 C151 1.242 . S
O135 Gd95 2.468 . S
O135 C159 1.263 . S
O136 Gd95 2.427 . S
O136 C159 1.252 . S
O137 Gd94 2.307 . S
O137 C152 1.261 . S
O138 Gd95 2.388 . S
O138 C152 1.252 . S
C139 O127 1.265 . S
C139 O128 1.242 . S
C140 O131 1.261 . S
C140 O132 1.252 . S
C141 C144 1.394 . S
C141 C146 1.370 . S
C141 C147 1.500 . S
C142 C145 1.383 . S
C142 C146 1.395 . S
C143 C144 1.396 . S
C143 C145 1.365 . S
C143 H160 0.929 . S
C144 C141 1.394 . S
C144 C143 1.396 . S
C144 H161 0.930 . S
C145 C142 1.383 . S
C145 C143 1.365 . S
C145 H162 0.931 . S
C146 C141 1.370 . S
C146 C142 1.395 . S
C146 H163 0.930 . S
C147 Gd94 2.805 . S
C147 O129 1.263 . S
C147 O130 1.252 . S
C147 C141 1.500 . S
C148 H110 0.930 . S
C148 C124 1.417 . S
C148 C149 1.329 . S
C149 C119 1.437 . S
C149 H120 0.929 . S
C149 C148 1.329 . S
H150 C123 0.931 . S
C151 O133 1.265 . S
C151 O134 1.242 . S
C152 O137 1.261 . S
C152 O138 1.252 . S
C153 C156 1.394 . S
C153 C158 1.370 . S
C153 C159 1.500 . S
C154 C157 1.383 . S
C154 C158 1.395 . S
C155 C156 1.396 . S
C155 C157 1.365 . S
C155 H164 0.929 . S
C156 C153 1.394 . S
C156 C155 1.396 . S
C156 H165 0.930 . S
C157 C154 1.383 . S
C157 C155 1.365 . S
C157 H166 0.931 . S
C158 C153 1.370 . S
C158 C154 1.395 . S
C158 H167 0.930 . S
C159 Gd95 2.805 . S
C159 O135 1.263 . S
C159 O136 1.252 . S
C159 C153 1.500 . S
H160 C143 0.929 . S
H161 C144 0.930 . S
H162 C145 0.931 . S
H163 C146 0.930 . S
H164 C155 0.929 . S
H165 C156 0.930 . S
H166 C157 0.931 . S
H167 C158 0.930 . S
C168 C170 1.422 . S
C168 C172 1.415 . S
C168 N174 1.369 . S
C169 C170 1.421 . S
C169 C171 1.417 . S
C169 C181 1.422 . S
C170 C168 1.422 . S
C170 C169 1.421 . S
C170 N180 1.359 . S
C171 C169 1.417 . S
C171 C173 1.329 . S
C171 H190 0.930 . S
C172 C168 1.415 . S
C172 C173 1.437 . S
C172 C176 1.413 . S
C173 C171 1.329 . S
C173 C172 1.437 . S
C173 H195 0.929 . S
N174 C168 1.369 . S
N174 C175 1.338 . S
N174 Gd179 2.622 . S
C175 N174 1.338 . S
C175 C177 1.378 . S
C175 H187 0.929 . S
C176 C172 1.413 . S
C176 C177 1.348 . S
C176 H192 0.931 . S
C177 C175 1.378 . S
C177 C176 1.348 . S
C177 H193 0.930 . S
Gd178 N198 2.622 . S
Gd178 N205 2.570 . S
Gd178 O212 2.353 . S
Gd178 O213 2.468 . S
Gd178 O214 2.427 . S
Gd178 O216 2.388 . S
Gd178 O217 2.386 . S
Gd178 O221 2.307 . S
Gd178 C231 2.805 . S
Gd179 N174 2.622 . S
Gd179 N180 2.570 . S
Gd179 O211 2.386 . S
Gd179 O215 2.307 . S
Gd179 O218 2.353 . S
Gd179 O219 2.468 . S
Gd179 O220 2.427 . S
Gd179 O222 2.388 . S
Gd179 C243 2.805 . S
N180 C170 1.359 . S
N180 Gd179 2.570 . S
N180 C182 1.343 . S
C181 C169 1.422 . S
C181 C183 1.321 . S
C181 H189 0.931 . S
C182 N180 1.343 . S
C182 C183 1.390 . S
C182 H184 0.931 . S
C183 C181 1.321 . S
C183 C182 1.390 . S
C183 H185 0.930 . S
H184 C182 0.931 . S
H185 C183 0.930 . S
H186 C209 0.931 . S
H187 C175 0.929 . S
H188 C210 0.930 . S
H189 C181 0.931 . S
H190 C171 0.930 . S
H191 C200 0.929 . S
H192 C176 0.931 . S
H193 C177 0.930 . S
H194 C232 0.930 . S
H195 C173 0.929 . S
H196 C201 0.931 . S
H197 C202 0.930 . S
N198 Gd178 2.622 . S
N198 C199 1.369 . S
N198 C200 1.338 . S
C199 N198 1.369 . S
C199 C203 1.415 . S
C199 C206 1.422 . S
C200 H191 0.929 . S
C200 N198 1.338 . S
C200 C202 1.378 . S
C201 H196 0.931 . S
C201 C202 1.348 . S
C201 C203 1.413 . S
C202 H197 0.930 . S
C202 C200 1.378 . S
C202 C201 1.348 . S
C203 C199 1.415 . S
C203 C201 1.413 . S
C203 C233 1.437 . S
H204 C233 0.929 . S
N205 Gd178 2.570 . S
N205 C206 1.359 . S
N205 C209 1.343 . S
C206 C199 1.422 . S
C206 N205 1.359 . S
C206 C208 1.421 . S
C207 C208 1.422 . S
C207 C210 1.321 . S
C207 H234 0.931 . S
C208 C206 1.421 . S
C208 C207 1.422 . S
C208 C232 1.417 . S
C209 H186 0.931 . S
C209 N205 1.343 . S
C209 C210 1.390 . S
C210 H188 0.930 . S
C210 C207 1.321 . S
C210 C209 1.390 . S
O211 Gd179 2.386 . S
O211 C223 1.265 . S
O212 Gd178 2.353 . S
O212 C223 1.242 . S
O213 Gd178 2.468 . S
O213 C231 1.263 . S
O214 Gd178 2.427 . S
O214 C231 1.252 . S
O215 Gd179 2.307 . S
O215 C224 1.261 . S
O216 Gd178 2.388 . S
O216 C224 1.252 . S
O217 Gd178 2.386 . S
O217 C235 1.265 . S
O218 Gd179 2.353 . S
O218 C235 1.242 . S
O219 Gd179 2.468 . S
O219 C243 1.263 . S
O220 Gd179 2.427 . S
O220 C243 1.252 . S
O221 Gd178 2.307 . S
O221 C236 1.261 . S
O222 Gd179 2.388 . S
O222 C236 1.252 . S
C223 O211 1.265 . S
C223 O212 1.242 . S
C224 O215 1.261 . S
C224 O216 1.252 . S
C225 C228 1.394 . S
C225 C230 1.370 . S
C225 C231 1.500 . S
C226 C229 1.383 . S
C226 C230 1.395 . S
C227 C228 1.396 . S
C227 C229 1.365 . S
C227 H244 0.929 . S
C228 C225 1.394 . S
C228 C227 1.396 . S
C228 H245 0.930 . S
C229 C226 1.383 . S
C229 C227 1.365 . S
C229 H246 0.931 . S
C230 C225 1.370 . S
C230 C226 1.395 . S
C230 H247 0.930 . S
C231 Gd178 2.805 . S
C231 O213 1.263 . S
C231 O214 1.252 . S
C231 C225 1.500 . S
C232 H194 0.930 . S
C232 C208 1.417 . S
C232 C233 1.329 . S
C233 C203 1.437 . S
C233 H204 0.929 . S
C233 C232 1.329 . S
H234 C207 0.931 . S
C235 O217 1.265 . S
C235 O218 1.242 . S
C236 O221 1.261 . S
C236 O222 1.252 . S
C237 C240 1.394 . S
C237 C242 1.370 . S
C237 C243 1.500 . S
C238 C241 1.383 . S
C238 C242 1.395 . S
C239 C240 1.396 . S
C239 C241 1.365 . S
C239 H248 0.929 . S
C240 C237 1.394 . S
C240 C239 1.396 . S
C240 H249 0.930 . S
C241 C238 1.383 . S
C241 C239 1.365 . S
C241 H250 0.931 . S
C242 C237 1.370 . S
C242 C238 1.395 . S
C242 H251 0.930 . S
C243 Gd179 2.805 . S
C243 O219 1.263 . S
C243 O220 1.252 . S
C243 C237 1.500 . S
H244 C227 0.929 . S
H245 C228 0.930 . S
H246 C229 0.931 . S
H247 C230 0.930 . S
H248 C239 0.929 . S
H249 C240 0.930 . S
H250 C241 0.931 . S
H251 C242 0.930 . S
C252 C254 1.422 . S
C252 C256 1.415 . S
C252 N258 1.369 . S
C253 C254 1.421 . S
C253 C255 1.417 . S
C253 C265 1.422 . S
C254 C252 1.422 . S
C254 C253 1.421 . S
C254 N264 1.359 . S
C255 C253 1.417 . S
C255 C257 1.329 . S
C255 H274 0.930 . S
C256 C252 1.415 . S
C256 C257 1.437 . S
C256 C260 1.413 . S
C257 C255 1.329 . S
C257 C256 1.437 . S
C257 H279 0.929 . S
N258 C252 1.369 . S
N258 C259 1.338 . S
N258 Gd263 2.622 . S
C259 N258 1.338 . S
C259 C261 1.378 . S
C259 H271 0.929 . S
C260 C256 1.413 . S
C260 C261 1.348 . S
C260 H276 0.931 . S
C261 C259 1.378 . S
C261 C260 1.348 . S
C261 H277 0.930 . S
Gd262 N282 2.622 . S
Gd262 N289 2.570 . S
Gd262 O296 2.353 . S
Gd262 O297 2.468 . S
Gd262 O298 2.427 . S
Gd262 O300 2.388 . S
Gd262 O301 2.386 . S
Gd262 O305 2.307 . S
Gd262 C315 2.805 . S
Gd263 N258 2.622 . S
Gd263 N264 2.570 . S
Gd263 O295 2.386 . S
Gd263 O299 2.307 . S
Gd263 O302 2.353 . S
Gd263 O303 2.468 . S
Gd263 O304 2.427 . S
Gd263 O306 2.388 . S
Gd263 C327 2.805 . S
N264 C254 1.359 . S
N264 Gd263 2.570 . S
N264 C266 1.343 . S
C265 C253 1.422 . S
C265 C267 1.321 . S
C265 H273 0.931 . S
C266 N264 1.343 . S
C266 C267 1.390 . S
C266 H268 0.931 . S
C267 C265 1.321 . S
C267 C266 1.390 . S
C267 H269 0.930 . S
H268 C266 0.931 . S
H269 C267 0.930 . S
H270 C293 0.931 . S
H271 C259 0.929 . S
H272 C294 0.930 . S
H273 C265 0.931 . S
H274 C255 0.930 . S
H275 C284 0.929 . S
H276 C260 0.931 . S
H277 C261 0.930 . S
H278 C316 0.930 . S
H279 C257 0.929 . S
H280 C285 0.931 . S
H281 C286 0.930 . S
N282 Gd262 2.622 . S
N282 C283 1.369 . S
N282 C284 1.338 . S
C283 N282 1.369 . S
C283 C287 1.415 . S
C283 C290 1.422 . S
C284 H275 0.929 . S
C284 N282 1.338 . S
C284 C286 1.378 . S
C285 H280 0.931 . S
C285 C286 1.348 . S
C285 C287 1.413 . S
C286 H281 0.930 . S
C286 C284 1.378 . S
C286 C285 1.348 . S
C287 C283 1.415 . S
C287 C285 1.413 . S
C287 C317 1.437 . S
H288 C317 0.929 . S
N289 Gd262 2.570 . S
N289 C290 1.359 . S
N289 C293 1.343 . S
C290 C283 1.422 . S
C290 N289 1.359 . S
C290 C292 1.421 . S
C291 C292 1.422 . S
C291 C294 1.321 . S
C291 H318 0.931 . S
C292 C290 1.421 . S
C292 C291 1.422 . S
C292 C316 1.417 . S
C293 H270 0.931 . S
C293 N289 1.343 . S
C293 C294 1.390 . S
C294 H272 0.930 . S
C294 C291 1.321 . S
C294 C293 1.390 . S
O295 Gd263 2.386 . S
O295 C307 1.265 . S
O296 Gd262 2.353 . S
O296 C307 1.242 . S
O297 Gd262 2.468 . S
O297 C315 1.263 . S
O298 Gd262 2.427 . S
O298 C315 1.252 . S
O299 Gd263 2.307 . S
O299 C308 1.261 . S
O300 Gd262 2.388 . S
O300 C308 1.252 . S
O301 Gd262 2.386 . S
O301 C319 1.265 . S
O302 Gd263 2.353 . S
O302 C319 1.242 . S
O303 Gd263 2.468 . S
O303 C327 1.263 . S
O304 Gd263 2.427 . S
O304 C327 1.252 . S
O305 Gd262 2.307 . S
O305 C320 1.261 . S
O306 Gd263 2.388 . S
O306 C320 1.252 . S
C307 O295 1.265 . S
C307 O296 1.242 . S
C308 O299 1.261 . S
C308 O300 1.252 . S
C309 C312 1.394 . S
C309 C314 1.370 . S
C309 C315 1.500 . S
C310 C313 1.383 . S
C310 C314 1.395 . S
C311 C312 1.396 . S
C311 C313 1.365 . S
C311 H328 0.929 . S
C312 C309 1.394 . S
C312 C311 1.396 . S
C312 H329 0.930 . S
C313 C310 1.383 . S
C313 C311 1.365 . S
C313 H330 0.931 . S
C314 C309 1.370 . S
C314 C310 1.395 . S
C314 H331 0.930 . S
C315 Gd262 2.805 . S
C315 O297 1.263 . S
C315 O298 1.252 . S
C315 C309 1.500 . S
C316 H278 0.930 . S
C316 C292 1.417 . S
C316 C317 1.329 . S
C317 C287 1.437 . S
C317 H288 0.929 . S
C317 C316 1.329 . S
H318 C291 0.931 . S
C319 O301 1.265 . S
C319 O302 1.242 . S
C320 O305 1.261 . S
C320 O306 1.252 . S
C321 C324 1.394 . S
C321 C326 1.370 . S
C321 C327 1.500 . S
C322 C325 1.383 . S
C322 C326 1.395 . S
C323 C324 1.396 . S
C323 C325 1.365 . S
C323 H332 0.929 . S
C324 C321 1.394 . S
C324 C323 1.396 . S
C324 H333 0.930 . S
C325 C322 1.383 . S
C325 C323 1.365 . S
C325 H334 0.931 . S
C326 C321 1.370 . S
C326 C322 1.395 . S
C326 H335 0.930 . S
C327 Gd263 2.805 . S
C327 O303 1.263 . S
C327 O304 1.252 . S
C327 C321 1.500 . S
H328 C311 0.929 . S
H329 C312 0.930 . S
H330 C313 0.931 . S
H331 C314 0.930 . S
H332 C323 0.929 . S
H333 C324 0.930 . S
H334 C325 0.931 . S
H335 C326 0.930 . S
C336 C338 1.422 . S
C336 C340 1.415 . S
C336 N342 1.369 . S
C337 C338 1.421 . S
C337 C339 1.417 . S
C337 C349 1.422 . S
C338 C336 1.422 . S
C338 C337 1.421 . S
C338 N348 1.359 . S
C339 C337 1.417 . S
C339 C341 1.329 . S
C339 H358 0.930 . S
C340 C336 1.415 . S
C340 C341 1.437 . S
C340 C344 1.413 . S
C341 C339 1.329 . S
C341 C340 1.437 . S
C341 H363 0.929 . S
N342 C336 1.369 . S
N342 C343 1.338 . S
N342 Gd347 2.622 . S
C343 N342 1.338 . S
C343 C345 1.378 . S
C343 H355 0.929 . S
C344 C340 1.413 . S
C344 C345 1.348 . S
C344 H360 0.931 . S
C345 C343 1.378 . S
C345 C344 1.348 . S
C345 H361 0.930 . S
Gd346 N366 2.622 . S
Gd346 N373 2.570 . S
Gd346 O380 2.353 1_556 S
Gd346 O381 2.468 1_556 S
Gd346 O382 2.427 1_556 S
Gd346 O384 2.388 1_556 S
Gd346 O385 2.386 . S
Gd346 O389 2.307 . S
Gd346 C399 2.805 1_556 S
Gd347 N342 2.622 . S
Gd347 N348 2.570 . S
Gd347 O379 2.386 . S
Gd347 O383 2.307 . S
Gd347 O386 2.353 1_554 S
Gd347 O387 2.468 1_554 S
Gd347 O388 2.427 1_554 S
Gd347 O390 2.388 1_554 S
Gd347 C411 2.805 1_554 S
N348 C338 1.359 . S
N348 Gd347 2.570 . S
N348 C350 1.343 . S
C349 C337 1.422 . S
C349 C351 1.321 . S
C349 H357 0.931 . S
C350 N348 1.343 . S
C350 C351 1.390 . S
C350 H352 0.931 . S
C351 C349 1.321 . S
C351 C350 1.390 . S
C351 H353 0.930 . S
H352 C350 0.931 . S
H353 C351 0.930 . S
H354 C377 0.931 . S
H355 C343 0.929 . S
H356 C378 0.930 . S
H357 C349 0.931 . S
H358 C339 0.930 . S
H359 C368 0.929 . S
H360 C344 0.931 . S
H361 C345 0.930 . S
H362 C400 0.930 . S
H363 C341 0.929 . S
H364 C369 0.931 . S
H365 C370 0.930 . S
N366 Gd346 2.622 . S
N366 C367 1.369 . S
N366 C368 1.338 . S
C367 N366 1.369 . S
C367 C371 1.415 . S
C367 C374 1.422 . S
C368 H359 0.929 . S
C368 N366 1.338 . S
C368 C370 1.378 . S
C369 H364 0.931 . S
C369 C370 1.348 . S
C369 C371 1.413 . S
C370 H365 0.930 . S
C370 C368 1.378 . S
C370 C369 1.348 . S
C371 C367 1.415 . S
C371 C369 1.413 . S
C371 C401 1.437 . S
H372 C401 0.929 . S
N373 Gd346 2.570 . S
N373 C374 1.359 . S
N373 C377 1.343 . S
C374 C367 1.422 . S
C374 N373 1.359 . S
C374 C376 1.421 . S
C375 C376 1.422 . S
C375 C378 1.321 . S
C375 H402 0.931 . S
C376 C374 1.421 . S
C376 C375 1.422 . S
C376 C400 1.417 . S
C377 H354 0.931 . S
C377 N373 1.343 . S
C377 C378 1.390 . S
C378 H356 0.930 . S
C378 C375 1.321 . S
C378 C377 1.390 . S
O379 Gd347 2.386 . S
O379 C391 1.265 . S
O380 Gd346 2.353 1_554 S
O380 C391 1.242 . S
O381 Gd346 2.468 1_554 S
O381 C399 1.263 . S
O382 Gd346 2.427 1_554 S
O382 C399 1.252 . S
O383 Gd347 2.307 . S
O383 C392 1.261 . S
O384 Gd346 2.388 1_554 S
O384 C392 1.252 . S
O385 Gd346 2.386 . S
O385 C403 1.265 . S
O386 Gd347 2.353 1_556 S
O386 C403 1.242 . S
O387 Gd347 2.468 1_556 S
O387 C411 1.263 . S
O388 Gd347 2.427 1_556 S
O388 C411 1.252 . S
O389 Gd346 2.307 . S
O389 C404 1.261 . S
O390 Gd347 2.388 1_556 S
O390 C404 1.252 . S
C391 O379 1.265 . S
C391 O380 1.242 . S
C392 O383 1.261 . S
C392 O384 1.252 . S
C393 C396 1.394 . S
C393 C398 1.370 . S
C393 C399 1.500 . S
C394 C397 1.383 . S
C394 C398 1.395 . S
C395 C396 1.396 . S
C395 C397 1.365 . S
C395 H412 0.929 . S
C396 C393 1.394 . S
C396 C395 1.396 . S
C396 H413 0.930 . S
C397 C394 1.383 . S
C397 C395 1.365 . S
C397 H414 0.931 . S
C398 C393 1.370 . S
C398 C394 1.395 . S
C398 H415 0.930 . S
C399 Gd346 2.805 1_554 S
C399 O381 1.263 . S
C399 O382 1.252 . S
C399 C393 1.500 . S
C400 H362 0.930 . S
C400 C376 1.417 . S
C400 C401 1.329 . S
C401 C371 1.437 . S
C401 H372 0.929 . S
C401 C400 1.329 . S
H402 C375 0.931 . S
C403 O385 1.265 . S
C403 O386 1.242 . S
C404 O389 1.261 . S
C404 O390 1.252 . S
C405 C408 1.394 . S
C405 C410 1.370 . S
C405 C411 1.500 . S
C406 C409 1.383 . S
C406 C410 1.395 . S
C407 C408 1.396 . S
C407 C409 1.365 . S
C407 H416 0.929 . S
C408 C405 1.394 . S
C408 C407 1.396 . S
C408 H417 0.930 . S
C409 C406 1.383 . S
C409 C407 1.365 . S
C409 H418 0.931 . S
C410 C405 1.370 . S
C410 C406 1.395 . S
C410 H419 0.930 . S
C411 Gd347 2.805 1_556 S
C411 O387 1.263 . S
C411 O388 1.252 . S
C411 C405 1.500 . S
H412 C395 0.929 . S
H413 C396 0.930 . S
H414 C397 0.931 . S
H415 C398 0.930 . S
H416 C407 0.929 . S
H417 C408 0.930 . S
H418 C409 0.931 . S
H419 C410 0.930 . S
C420 C422 1.422 . S
C420 C424 1.415 . S
C420 N426 1.369 . S
C421 C422 1.421 . S
C421 C423 1.417 . S
C421 C433 1.422 . S
C422 C420 1.422 . S
C422 C421 1.421 . S
C422 N432 1.359 . S
C423 C421 1.417 . S
C423 C425 1.329 . S
C423 H442 0.930 . S
C424 C420 1.415 . S
C424 C425 1.437 . S
C424 C428 1.413 . S
C425 C423 1.329 . S
C425 C424 1.437 . S
C425 H447 0.929 . S
N426 C420 1.369 . S
N426 C427 1.338 . S
N426 Gd431 2.622 . S
C427 N426 1.338 . S
C427 C429 1.378 . S
C427 H439 0.929 . S
C428 C424 1.413 . S
C428 C429 1.348 . S
C428 H444 0.931 . S
C429 C427 1.378 . S
C429 C428 1.348 . S
C429 H445 0.930 . S
Gd430 N450 2.622 . S
Gd430 N457 2.570 . S
Gd430 O464 2.353 1_554 S
Gd430 O465 2.468 1_554 S
Gd430 O466 2.427 1_554 S
Gd430 O468 2.388 1_554 S
Gd430 O469 2.386 . S
Gd430 O473 2.307 . S
Gd430 C483 2.805 1_554 S
Gd431 N426 2.622 . S
Gd431 N432 2.570 . S
Gd431 O463 2.386 . S
Gd431 O467 2.307 . S
Gd431 O470 2.353 1_556 S
Gd431 O471 2.468 1_556 S
Gd431 O472 2.427 1_556 S
Gd431 O474 2.388 1_556 S
Gd431 C495 2.805 1_556 S
N432 C422 1.359 . S
N432 Gd431 2.570 . S
N432 C434 1.343 . S
C433 C421 1.422 . S
C433 C435 1.321 . S
C433 H441 0.931 . S
C434 N432 1.343 . S
C434 C435 1.390 . S
C434 H436 0.931 . S
C435 C433 1.321 . S
C435 C434 1.390 . S
C435 H437 0.930 . S
H436 C434 0.931 . S
H437 C435 0.930 . S
H438 C461 0.931 . S
H439 C427 0.929 . S
H440 C462 0.930 . S
H441 C433 0.931 . S
H442 C423 0.930 . S
H443 C452 0.929 . S
H444 C428 0.931 . S
H445 C429 0.930 . S
H446 C484 0.930 . S
H447 C425 0.929 . S
H448 C453 0.931 . S
H449 C454 0.930 . S
N450 Gd430 2.622 . S
N450 C451 1.369 . S
N450 C452 1.338 . S
C451 N450 1.369 . S
C451 C455 1.415 . S
C451 C458 1.422 . S
C452 H443 0.929 . S
C452 N450 1.338 . S
C452 C454 1.378 . S
C453 H448 0.931 . S
C453 C454 1.348 . S
C453 C455 1.413 . S
C454 H449 0.930 . S
C454 C452 1.378 . S
C454 C453 1.348 . S
C455 C451 1.415 . S
C455 C453 1.413 . S
C455 C485 1.437 . S
H456 C485 0.929 . S
N457 Gd430 2.570 . S
N457 C458 1.359 . S
N457 C461 1.343 . S
C458 C451 1.422 . S
C458 N457 1.359 . S
C458 C460 1.421 . S
C459 C460 1.422 . S
C459 C462 1.321 . S
C459 H486 0.931 . S
C460 C458 1.421 . S
C460 C459 1.422 . S
C460 C484 1.417 . S
C461 H438 0.931 . S
C461 N457 1.343 . S
C461 C462 1.390 . S
C462 H440 0.930 . S
C462 C459 1.321 . S
C462 C461 1.390 . S
O463 Gd431 2.386 . S
O463 C475 1.265 . S
O464 Gd430 2.353 1_556 S
O464 C475 1.242 . S
O465 Gd430 2.468 1_556 S
O465 C483 1.263 . S
O466 Gd430 2.427 1_556 S
O466 C483 1.252 . S
O467 Gd431 2.307 . S
O467 C476 1.261 . S
O468 Gd430 2.388 1_556 S
O468 C476 1.252 . S
O469 Gd430 2.386 . S
O469 C487 1.265 . S
O470 Gd431 2.353 1_554 S
O470 C487 1.242 . S
O471 Gd431 2.468 1_554 S
O471 C495 1.263 . S
O472 Gd431 2.427 1_554 S
O472 C495 1.252 . S
O473 Gd430 2.307 . S
O473 C488 1.261 . S
O474 Gd431 2.388 1_554 S
O474 C488 1.252 . S
C475 O463 1.265 . S
C475 O464 1.242 . S
C476 O467 1.261 . S
C476 O468 1.252 . S
C477 C480 1.394 . S
C477 C482 1.370 . S
C477 C483 1.500 . S
C478 C481 1.383 . S
C478 C482 1.395 . S
C479 C480 1.396 . S
C479 C481 1.365 . S
C479 H496 0.929 . S
C480 C477 1.394 . S
C480 C479 1.396 . S
C480 H497 0.930 . S
C481 C478 1.383 . S
C481 C479 1.365 . S
C481 H498 0.931 . S
C482 C477 1.370 . S
C482 C478 1.395 . S
C482 H499 0.930 . S
C483 Gd430 2.805 1_556 S
C483 O465 1.263 . S
C483 O466 1.252 . S
C483 C477 1.500 . S
C484 H446 0.930 . S
C484 C460 1.417 . S
C484 C485 1.329 . S
C485 C455 1.437 . S
C485 H456 0.929 . S
C485 C484 1.329 . S
H486 C459 0.931 . S
C487 O469 1.265 . S
C487 O470 1.242 . S
C488 O473 1.261 . S
C488 O474 1.252 . S
C489 C492 1.394 . S
C489 C494 1.370 . S
C489 C495 1.500 . S
C490 C493 1.383 . S
C490 C494 1.395 . S
C491 C492 1.396 . S
C491 C493 1.365 . S
C491 H500 0.929 . S
C492 C489 1.394 . S
C492 C491 1.396 . S
C492 H501 0.930 . S
C493 C490 1.383 . S
C493 C491 1.365 . S
C493 H502 0.931 . S
C494 C489 1.370 . S
C494 C490 1.395 . S
C494 H503 0.930 . S
C495 Gd431 2.805 1_554 S
C495 O471 1.263 . S
C495 O472 1.252 . S
C495 C489 1.500 . S
H496 C479 0.929 . S
H497 C480 0.930 . S
H498 C481 0.931 . S
H499 C482 0.930 . S
H500 C491 0.929 . S
H501 C492 0.930 . S
H502 C493 0.931 . S
H503 C494 0.930 . S
C504 C506 1.422 . S
C504 C508 1.415 . S
C504 N510 1.369 . S
C505 C506 1.421 . S
C505 C507 1.417 . S
C505 C517 1.422 . S
C506 C504 1.422 . S
C506 C505 1.421 . S
C506 N516 1.359 . S
C507 C505 1.417 . S
C507 C509 1.329 . S
C507 H526 0.930 . S
C508 C504 1.415 . S
C508 C509 1.437 . S
C508 C512 1.413 . S
C509 C507 1.329 . S
C509 C508 1.437 . S
C509 H531 0.929 . S
N510 C504 1.369 . S
N510 C511 1.338 . S
N510 Gd515 2.622 . S
C511 N510 1.338 . S
C511 C513 1.378 . S
C511 H523 0.929 . S
C512 C508 1.413 . S
C512 C513 1.348 . S
C512 H528 0.931 . S
C513 C511 1.378 . S
C513 C512 1.348 . S
C513 H529 0.930 . S
Gd514 N534 2.622 . S
Gd514 N541 2.570 . S
Gd514 O548 2.353 1_554 S
Gd514 O549 2.468 1_554 S
Gd514 O550 2.427 1_554 S
Gd514 O552 2.388 1_554 S
Gd514 O553 2.386 . S
Gd514 O557 2.307 . S
Gd514 C567 2.805 1_554 S
Gd515 N510 2.622 . S
Gd515 N516 2.570 . S
Gd515 O547 2.386 . S
Gd515 O551 2.307 . S
Gd515 O554 2.353 1_556 S
Gd515 O555 2.468 1_556 S
Gd515 O556 2.427 1_556 S
Gd515 O558 2.388 1_556 S
Gd515 C579 2.805 1_556 S
N516 C506 1.359 . S
N516 Gd515 2.570 . S
N516 C518 1.343 . S
C517 C505 1.422 . S
C517 C519 1.321 . S
C517 H525 0.931 . S
C518 N516 1.343 . S
C518 C519 1.390 . S
C518 H520 0.931 . S
C519 C517 1.321 . S
C519 C518 1.390 . S
C519 H521 0.930 . S
H520 C518 0.931 . S
H521 C519 0.930 . S
H522 C545 0.931 . S
H523 C511 0.929 . S
H524 C546 0.930 . S
H525 C517 0.931 . S
H526 C507 0.930 . S
H527 C536 0.929 . S
H528 C512 0.931 . S
H529 C513 0.930 . S
H530 C568 0.930 . S
H531 C509 0.929 . S
H532 C537 0.931 . S
H533 C538 0.930 . S
N534 Gd514 2.622 . S
N534 C535 1.369 . S
N534 C536 1.338 . S
C535 N534 1.369 . S
C535 C539 1.415 . S
C535 C542 1.422 . S
C536 H527 0.929 . S
C536 N534 1.338 . S
C536 C538 1.378 . S
C537 H532 0.931 . S
C537 C538 1.348 . S
C537 C539 1.413 . S
C538 H533 0.930 . S
C538 C536 1.378 . S
C538 C537 1.348 . S
C539 C535 1.415 . S
C539 C537 1.413 . S
C539 C569 1.437 . S
H540 C569 0.929 . S
N541 Gd514 2.570 . S
N541 C542 1.359 . S
N541 C545 1.343 . S
C542 C535 1.422 . S
C542 N541 1.359 . S
C542 C544 1.421 . S
C543 C544 1.422 . S
C543 C546 1.321 . S
C543 H570 0.931 . S
C544 C542 1.421 . S
C544 C543 1.422 . S
C544 C568 1.417 . S
C545 H522 0.931 . S
C545 N541 1.343 . S
C545 C546 1.390 . S
C546 H524 0.930 . S
C546 C543 1.321 . S
C546 C545 1.390 . S
O547 Gd515 2.386 . S
O547 C559 1.265 . S
O548 Gd514 2.353 1_556 S
O548 C559 1.242 . S
O549 Gd514 2.468 1_556 S
O549 C567 1.263 . S
O550 Gd514 2.427 1_556 S
O550 C567 1.252 . S
O551 Gd515 2.307 . S
O551 C560 1.261 . S
O552 Gd514 2.388 1_556 S
O552 C560 1.252 . S
O553 Gd514 2.386 . S
O553 C571 1.265 . S
O554 Gd515 2.353 1_554 S
O554 C571 1.242 . S
O555 Gd515 2.468 1_554 S
O555 C579 1.263 . S
O556 Gd515 2.427 1_554 S
O556 C579 1.252 . S
O557 Gd514 2.307 . S
O557 C572 1.261 . S
O558 Gd515 2.388 1_554 S
O558 C572 1.252 . S
C559 O547 1.265 . S
C559 O548 1.242 . S
C560 O551 1.261 . S
C560 O552 1.252 . S
C561 C564 1.394 . S
C561 C566 1.370 . S
C561 C567 1.500 . S
C562 C565 1.383 . S
C562 C566 1.395 . S
C563 C564 1.396 . S
C563 C565 1.365 . S
C563 H580 0.929 . S
C564 C561 1.394 . S
C564 C563 1.396 . S
C564 H581 0.930 . S
C565 C562 1.383 . S
C565 C563 1.365 . S
C565 H582 0.931 . S
C566 C561 1.370 . S
C566 C562 1.395 . S
C566 H583 0.930 . S
C567 Gd514 2.805 1_556 S
C567 O549 1.263 . S
C567 O550 1.252 . S
C567 C561 1.500 . S
C568 H530 0.930 . S
C568 C544 1.417 . S
C568 C569 1.329 . S
C569 C539 1.437 . S
C569 H540 0.929 . S
C569 C568 1.329 . S
H570 C543 0.931 . S
C571 O553 1.265 . S
C571 O554 1.242 . S
C572 O557 1.261 . S
C572 O558 1.252 . S
C573 C576 1.394 . S
C573 C578 1.370 . S
C573 C579 1.500 . S
C574 C577 1.383 . S
C574 C578 1.395 . S
C575 C576 1.396 . S
C575 C577 1.365 . S
C575 H584 0.929 . S
C576 C573 1.394 . S
C576 C575 1.396 . S
C576 H585 0.930 . S
C577 C574 1.383 . S
C577 C575 1.365 . S
C577 H586 0.931 . S
C578 C573 1.370 . S
C578 C574 1.395 . S
C578 H587 0.930 . S
C579 Gd515 2.805 1_554 S
C579 O555 1.263 . S
C579 O556 1.252 . S
C579 C573 1.500 . S
H580 C563 0.929 . S
H581 C564 0.930 . S
H582 C565 0.931 . S
H583 C566 0.930 . S
H584 C575 0.929 . S
H585 C576 0.930 . S
H586 C577 0.931 . S
H587 C578 0.930 . S
C588 C590 1.422 . S
C588 C592 1.415 . S
C588 N594 1.369 . S
C589 C590 1.421 . S
C589 C591 1.417 . S
C589 C601 1.422 . S
C590 C588 1.422 . S
C590 C589 1.421 . S
C590 N600 1.359 . S
C591 C589 1.417 . S
C591 C593 1.329 . S
C591 H610 0.930 . S
C592 C588 1.415 . S
C592 C593 1.437 . S
C592 C596 1.413 . S
C593 C591 1.329 . S
C593 C592 1.437 . S
C593 H615 0.929 . S
N594 C588 1.369 . S
N594 C595 1.338 . S
N594 Gd599 2.622 . S
C595 N594 1.338 . S
C595 C597 1.378 . S
C595 H607 0.929 . S
C596 C592 1.413 . S
C596 C597 1.348 . S
C596 H612 0.931 . S
C597 C595 1.378 . S
C597 C596 1.348 . S
C597 H613 0.930 . S
Gd598 N618 2.622 . S
Gd598 N625 2.570 . S
Gd598 O632 2.353 1_556 S
Gd598 O633 2.468 1_556 S
Gd598 O634 2.427 1_556 S
Gd598 O636 2.388 1_556 S
Gd598 O637 2.386 . S
Gd598 O641 2.307 . S
Gd598 C651 2.805 1_556 S
Gd599 N594 2.622 . S
Gd599 N600 2.570 . S
Gd599 O631 2.386 . S
Gd599 O635 2.307 . S
Gd599 O638 2.353 1_554 S
Gd599 O639 2.468 1_554 S
Gd599 O640 2.427 1_554 S
Gd599 O642 2.388 1_554 S
Gd599 C663 2.805 1_554 S
N600 C590 1.359 . S
N600 Gd599 2.570 . S
N600 C602 1.343 . S
C601 C589 1.422 . S
C601 C603 1.321 . S
C601 H609 0.931 . S
C602 N600 1.343 . S
C602 C603 1.390 . S
C602 H604 0.931 . S
C603 C601 1.321 . S
C603 C602 1.390 . S
C603 H605 0.930 . S
H604 C602 0.931 . S
H605 C603 0.930 . S
H606 C629 0.931 . S
H607 C595 0.929 . S
H608 C630 0.930 . S
H609 C601 0.931 . S
H610 C591 0.930 . S
H611 C620 0.929 . S
H612 C596 0.931 . S
H613 C597 0.930 . S
H614 C652 0.930 . S
H615 C593 0.929 . S
H616 C621 0.931 . S
H617 C622 0.930 . S
N618 Gd598 2.622 . S
N618 C619 1.369 . S
N618 C620 1.338 . S
C619 N618 1.369 . S
C619 C623 1.415 . S
C619 C626 1.422 . S
C620 H611 0.929 . S
C620 N618 1.338 . S
C620 C622 1.378 . S
C621 H616 0.931 . S
C621 C622 1.348 . S
C621 C623 1.413 . S
C622 H617 0.930 . S
C622 C620 1.378 . S
C622 C621 1.348 . S
C623 C619 1.415 . S
C623 C621 1.413 . S
C623 C653 1.437 . S
H624 C653 0.929 . S
N625 Gd598 2.570 . S
N625 C626 1.359 . S
N625 C629 1.343 . S
C626 C619 1.422 . S
C626 N625 1.359 . S
C626 C628 1.421 . S
C627 C628 1.422 . S
C627 C630 1.321 . S
C627 H654 0.931 . S
C628 C626 1.421 . S
C628 C627 1.422 . S
C628 C652 1.417 . S
C629 H606 0.931 . S
C629 N625 1.343 . S
C629 C630 1.390 . S
C630 H608 0.930 . S
C630 C627 1.321 . S
C630 C629 1.390 . S
O631 Gd599 2.386 . S
O631 C643 1.265 . S
O632 Gd598 2.353 1_554 S
O632 C643 1.242 . S
O633 Gd598 2.468 1_554 S
O633 C651 1.263 . S
O634 Gd598 2.427 1_554 S
O634 C651 1.252 . S
O635 Gd599 2.307 . S
O635 C644 1.261 . S
O636 Gd598 2.388 1_554 S
O636 C644 1.252 . S
O637 Gd598 2.386 . S
O637 C655 1.265 . S
O638 Gd599 2.353 1_556 S
O638 C655 1.242 . S
O639 Gd599 2.468 1_556 S
O639 C663 1.263 . S
O640 Gd599 2.427 1_556 S
O640 C663 1.252 . S
O641 Gd598 2.307 . S
O641 C656 1.261 . S
O642 Gd599 2.388 1_556 S
O642 C656 1.252 . S
C643 O631 1.265 . S
C643 O632 1.242 . S
C644 O635 1.261 . S
C644 O636 1.252 . S
C645 C648 1.394 . S
C645 C650 1.370 . S
C645 C651 1.500 . S
C646 C649 1.383 . S
C646 C650 1.395 . S
C647 C648 1.396 . S
C647 C649 1.365 . S
C647 H664 0.929 . S
C648 C645 1.394 . S
C648 C647 1.396 . S
C648 H665 0.930 . S
C649 C646 1.383 . S
C649 C647 1.365 . S
C649 H666 0.931 . S
C650 C645 1.370 . S
C650 C646 1.395 . S
C650 H667 0.930 . S
C651 Gd598 2.805 1_554 S
C651 O633 1.263 . S
C651 O634 1.252 . S
C651 C645 1.500 . S
C652 H614 0.930 . S
C652 C628 1.417 . S
C652 C653 1.329 . S
C653 C623 1.437 . S
C653 H624 0.929 . S
C653 C652 1.329 . S
H654 C627 0.931 . S
C655 O637 1.265 . S
C655 O638 1.242 . S
C656 O641 1.261 . S
C656 O642 1.252 . S
C657 C660 1.394 . S
C657 C662 1.370 . S
C657 C663 1.500 . S
C658 C661 1.383 . S
C658 C662 1.395 . S
C659 C660 1.396 . S
C659 C661 1.365 . S
C659 H668 0.929 . S
C660 C657 1.394 . S
C660 C659 1.396 . S
C660 H669 0.930 . S
C661 C658 1.383 . S
C661 C659 1.365 . S
C661 H670 0.931 . S
C662 C657 1.370 . S
C662 C658 1.395 . S
C662 H671 0.930 . S
C663 Gd599 2.805 1_556 S
C663 O639 1.263 . S
C663 O640 1.252 . S
C663 C657 1.500 . S
H664 C647 0.929 . S
H665 C648 0.930 . S
H666 C649 0.931 . S
H667 C650 0.930 . S
H668 C659 0.929 . S
H669 C660 0.930 . S
H670 C661 0.931 . S
H671 C662 0.930 . S
H672 C678 0.930 . S
H673 C682 0.930 . S
H674 C687 0.929 . S
H675 C685 0.929 . S
H676 C680 0.929 . S
H677 C686 0.929 . S
C678 H672 0.930 . S
C678 C679 1.367 . S
C678 C686 1.378 . S
C679 C678 1.367 . S
C679 C687 1.433 . S
C680 H676 0.929 . S
C680 C682 1.378 . S
C680 C684 1.350 . S
C681 C684 1.463 . S
C681 C686 1.350 . S
C681 N689 1.427 . S
C682 H673 0.930 . S
C682 C680 1.378 . S
C682 C683 1.367 . S
C683 C682 1.367 . S
C683 C685 1.433 . S
C684 C680 1.350 . S
C684 C681 1.463 . S
C684 N688 1.427 . S
C685 H675 0.929 . S
C685 C683 1.433 . S
C685 N688 1.384 . S
C686 H677 0.929 . S
C686 C678 1.378 . S
C686 C681 1.350 . S
C687 H674 0.929 . S
C687 C679 1.433 . S
C687 N689 1.384 . S
N688 C684 1.427 . S
N688 C685 1.384 . S
N689 C681 1.427 . S
N689 C687 1.384 . S
H690 C696 0.930 . S
H691 C700 0.930 . S
H692 C705 0.929 . S
H693 C703 0.929 . S
H694 C698 0.929 . S
H695 C704 0.929 . S
C696 H690 0.930 . S
C696 C697 1.367 . S
C696 C704 1.378 . S
C697 C696 1.367 . S
C697 C705 1.433 . S
C698 H694 0.929 . S
C698 C700 1.378 . S
C698 C702 1.350 . S
C699 C702 1.463 . S
C699 C704 1.350 . S
C699 N707 1.427 . S
C700 H691 0.930 . S
C700 C698 1.378 . S
C700 C701 1.367 . S
C701 C700 1.367 . S
C701 C703 1.433 . S
C702 C698 1.350 . S
C702 C699 1.463 . S
C702 N706 1.427 . S
C703 H693 0.929 . S
C703 C701 1.433 . S
C703 N706 1.384 . S
C704 H695 0.929 . S
C704 C696 1.378 . S
C704 C699 1.350 . S
C705 H692 0.929 . S
C705 C697 1.433 . S
C705 N707 1.384 . S
N706 C702 1.427 . S
N706 C703 1.384 . S
N707 C699 1.427 . S
N707 C705 1.384 . S
H708 C714 0.930 . S
H709 C718 0.930 . S
H710 C723 0.929 . S
H711 C721 0.929 . S
H712 C716 0.929 . S
H713 C722 0.929 . S
C714 H708 0.930 . S
C714 C715 1.367 . S
C714 C722 1.378 . S
C715 C714 1.367 . S
C715 C723 1.433 . S
C716 H712 0.929 . S
C716 C718 1.378 . S
C716 C720 1.350 . S
C717 C720 1.463 . S
C717 C722 1.350 . S
C717 N725 1.427 . S
C718 H709 0.930 . S
C718 C716 1.378 . S
C718 C719 1.367 . S
C719 C718 1.367 . S
C719 C721 1.433 . S
C720 C716 1.350 . S
C720 C717 1.463 . S
C720 N724 1.427 . S
C721 H711 0.929 . S
C721 C719 1.433 . S
C721 N724 1.384 . S
C722 H713 0.929 . S
C722 C714 1.378 . S
C722 C717 1.350 . S
C723 H710 0.929 . S
C723 C715 1.433 . S
C723 N725 1.384 . S
N724 C720 1.427 . S
N724 C721 1.384 . S
N725 C717 1.427 . S
N725 C723 1.384 . S
H726 C732 0.930 . S
H727 C736 0.930 . S
H728 C741 0.929 . S
H729 C739 0.929 . S
H730 C734 0.929 . S
H731 C740 0.929 . S
C732 H726 0.930 . S
C732 C733 1.367 . S
C732 C740 1.378 . S
C733 C732 1.367 . S
C733 C741 1.433 . S
C734 H730 0.929 . S
C734 C736 1.378 . S
C734 C738 1.350 . S
C735 C738 1.463 . S
C735 C740 1.350 . S
C735 N743 1.427 . S
C736 H727 0.930 . S
C736 C734 1.378 . S
C736 C737 1.367 . S
C737 C736 1.367 . S
C737 C739 1.433 . S
C738 C734 1.350 . S
C738 C735 1.463 . S
C738 N742 1.427 . S
C739 H729 0.929 . S
C739 C737 1.433 . S
C739 N742 1.384 . S
C740 H731 0.929 . S
C740 C732 1.378 . S
C740 C735 1.350 . S
C741 H728 0.929 . S
C741 C733 1.433 . S
C741 N743 1.384 . S
N742 C738 1.427 . S
N742 C739 1.384 . S
N743 C735 1.427 . S
N743 C741 1.384 . S
H744 C750 0.930 . S
H745 C754 0.930 . S
H746 C759 0.929 . S
H747 C757 0.929 . S
H748 C752 0.929 . S
H749 C758 0.929 . S
C750 H744 0.930 . S
C750 C751 1.367 . S
C750 C758 1.378 . S
C751 C750 1.367 . S
C751 C759 1.433 . S
C752 H748 0.929 . S
C752 C754 1.378 . S
C752 C756 1.350 . S
C753 C756 1.463 1_565 S
C753 C758 1.350 . S
C753 N761 1.427 . S
C754 H745 0.930 . S
C754 C752 1.378 . S
C754 C755 1.367 . S
C755 C754 1.367 . S
C755 C757 1.433 . S
C756 C752 1.350 . S
C756 C753 1.463 1_545 S
C756 N760 1.427 . S
C757 H747 0.929 . S
C757 C755 1.433 . S
C757 N760 1.384 . S
C758 H749 0.929 . S
C758 C750 1.378 . S
C758 C753 1.350 . S
C759 H746 0.929 . S
C759 C751 1.433 . S
C759 N761 1.384 . S
N760 C756 1.427 . S
N760 C757 1.384 . S
N761 C753 1.427 . S
N761 C759 1.384 . S
H762 C768 0.930 . S
H763 C772 0.930 . S
H764 C777 0.929 . S
H765 C775 0.929 . S
H766 C770 0.929 . S
H767 C776 0.929 . S
C768 H762 0.930 . S
C768 C769 1.367 . S
C768 C776 1.378 . S
C769 C768 1.367 . S
C769 C777 1.433 . S
C770 H766 0.929 . S
C770 C772 1.378 . S
C770 C774 1.350 . S
C771 C774 1.463 . S
C771 C776 1.350 . S
C771 N779 1.427 . S
C772 H763 0.930 . S
C772 C770 1.378 . S
C772 C773 1.367 . S
C773 C772 1.367 . S
C773 C775 1.433 . S
C774 C770 1.350 . S
C774 C771 1.463 . S
C774 N778 1.427 . S
C775 H765 0.929 . S
C775 C773 1.433 . S
C775 N778 1.384 . S
C776 H767 0.929 . S
C776 C768 1.378 . S
C776 C771 1.350 . S
C777 H764 0.929 . S
C777 C769 1.433 . S
C777 N779 1.384 . S
N778 C774 1.427 . S
N778 C775 1.384 . S
N779 C771 1.427 . S
N779 C777 1.384 . S
H780 C786 0.930 . S
H781 C790 0.930 . S
H782 C795 0.929 . S
H783 C793 0.929 . S
H784 C788 0.929 . S
H785 C794 0.929 . S
C786 H780 0.930 . S
C786 C787 1.367 . S
C786 C794 1.378 . S
C787 C786 1.367 . S
C787 C795 1.433 . S
C788 H784 0.929 . S
C788 C790 1.378 . S
C788 C792 1.350 . S
C789 C792 1.463 1_565 S
C789 C794 1.350 . S
C789 N797 1.427 . S
C790 H781 0.930 . S
C790 C788 1.378 . S
C790 C791 1.367 . S
C791 C790 1.367 . S
C791 C793 1.433 . S
C792 C788 1.350 . S
C792 C789 1.463 1_545 S
C792 N796 1.427 . S
C793 H783 0.929 . S
C793 C791 1.433 . S
C793 N796 1.384 . S
C794 H785 0.929 . S
C794 C786 1.378 . S
C794 C789 1.350 . S
C795 H782 0.929 . S
C795 C787 1.433 . S
C795 N797 1.384 . S
N796 C792 1.427 . S
N796 C793 1.384 . S
N797 C789 1.427 . S
N797 C795 1.384 . S
H798 C804 0.930 . S
H799 C808 0.930 . S
H800 C813 0.929 . S
H801 C811 0.929 . S
H802 C806 0.929 . S
H803 C812 0.929 . S
C804 H798 0.930 . S
C804 C805 1.367 . S
C804 C812 1.378 . S
C805 C804 1.367 . S
C805 C813 1.433 . S
C806 H802 0.929 . S
C806 C808 1.378 . S
C806 C810 1.350 . S
C807 C810 1.463 . S
C807 C812 1.350 . S
C807 N815 1.427 . S
C808 H799 0.930 . S
C808 C806 1.378 . S
C808 C809 1.367 . S
C809 C808 1.367 . S
C809 C811 1.433 . S
C810 C806 1.350 . S
C810 C807 1.463 . S
C810 N814 1.427 . S
C811 H801 0.929 . S
C811 C809 1.433 . S
C811 N814 1.384 . S
C812 H803 0.929 . S
C812 C804 1.378 . S
C812 C807 1.350 . S
C813 H800 0.929 . S
C813 C805 1.433 . S
C813 N815 1.384 . S
N814 C810 1.427 . S
N814 C811 1.384 . S
N815 C807 1.427 . S
N815 C813 1.384 . S
H816 C822 0.930 . S
H817 C826 0.930 . S
H818 C831 0.929 . S
H819 C829 0.929 . S
H820 C824 0.929 . S
H821 C830 0.929 . S
C822 H816 0.930 . S
C822 C823 1.367 . S
C822 C830 1.378 . S
C823 C822 1.367 . S
C823 C831 1.433 1_556 S
C824 H820 0.929 . S
C824 C826 1.378 . S
C824 C828 1.350 . S
C825 C828 1.463 1_556 S
C825 C830 1.350 . S
C825 N833 1.427 1_556 S
C826 H817 0.930 . S
C826 C824 1.378 . S
C826 C827 1.367 . S
C827 C826 1.367 . S
C827 C829 1.433 1_554 S
C828 C824 1.350 . S
C828 C825 1.463 1_554 S
C828 N832 1.427 1_554 S
C829 H819 0.929 . S
C829 C827 1.433 1_556 S
C829 N832 1.384 . S
C830 H821 0.929 . S
C830 C822 1.378 . S
C830 C825 1.350 . S
C831 H818 0.929 . S
C831 C823 1.433 1_554 S
C831 N833 1.384 . S
N832 C828 1.427 1_556 S
N832 C829 1.384 . S
N833 C825 1.427 1_554 S
N833 C831 1.384 . S
H834 C840 0.930 . S
H835 C844 0.930 . S
H836 C849 0.929 . S
H837 C847 0.929 . S
H838 C842 0.929 . S
H839 C848 0.929 . S
C840 H834 0.930 . S
C840 C841 1.367 1_556 S
C840 C848 1.378 . S
C841 C840 1.367 1_554 S
C841 C849 1.433 . S
C842 H838 0.929 . S
C842 C844 1.378 . S
C842 C846 1.344 1_554 S
C843 C846 1.460 1_564 S
C843 C848 1.350 1_554 S
C843 N851 1.427 . S
C844 H835 0.930 . S
C844 C842 1.378 . S
C844 C845 1.367 1_554 S
C845 C844 1.367 1_556 S
C845 C847 1.433 . S
C846 C842 1.344 1_556 S
C846 C843 1.460 1_546 S
C846 N850 1.436 . S
C847 H837 0.929 . S
C847 C845 1.433 . S
C847 N850 1.384 . S
C848 H839 0.929 . S
C848 C840 1.378 . S
C848 C843 1.350 1_556 S
C849 H836 0.929 . S
C849 C841 1.433 . S
C849 N851 1.384 . S
N850 C846 1.436 . S
N850 C847 1.384 . S
N851 C843 1.427 . S
N851 C849 1.384 . S
H852 C858 0.930 . S
H853 C862 0.930 . S
H854 C867 0.929 . S
H855 C865 0.929 . S
H856 C860 0.929 . S
H857 C866 0.929 . S
C858 H852 0.930 . S
C858 C859 1.367 . S
C858 C866 1.378 . S
C859 C858 1.367 . S
C859 C867 1.433 1_554 S
C860 H856 0.929 . S
C860 C862 1.378 . S
C860 C864 1.350 . S
C861 C864 1.463 1_554 S
C861 C866 1.350 . S
C861 N869 1.427 1_554 S
C862 H853 0.930 . S
C862 C860 1.378 . S
C862 C863 1.367 . S
C863 C862 1.367 . S
C863 C865 1.433 1_556 S
C864 C860 1.350 . S
C864 C861 1.463 1_556 S
C864 N868 1.427 1_556 S
C865 H855 0.929 . S
C865 C863 1.433 1_554 S
C865 N868 1.384 . S
C866 H857 0.929 . S
C866 C858 1.378 . S
C866 C861 1.350 . S
C867 H854 0.929 . S
C867 C859 1.433 1_556 S
C867 N869 1.384 . S
N868 C864 1.427 1_554 S
N868 C865 1.384 . S
N869 C861 1.427 1_556 S
N869 C867 1.384 . S
H870 C876 0.930 . S
H871 C880 0.930 . S
H872 C885 0.929 . S
H873 C883 0.929 . S
H874 C878 0.929 . S
H875 C884 0.929 . S
C876 H870 0.930 . S
C876 C877 1.367 . S
C876 C884 1.378 . S
C877 C876 1.367 . S
C877 C885 1.433 1_556 S
C878 H874 0.929 . S
C878 C880 1.378 . S
C878 C882 1.350 . S
C879 C882 1.463 1_546 S
C879 C884 1.350 . S
C879 N887 1.427 1_556 S
C880 H871 0.930 . S
C880 C878 1.378 . S
C880 C881 1.367 . S
C881 C880 1.367 . S
C881 C883 1.433 1_554 S
C882 C878 1.350 . S
C882 C879 1.463 1_564 S
C882 N886 1.427 1_554 S
C883 H873 0.929 . S
C883 C881 1.433 1_556 S
C883 N886 1.384 . S
C884 H875 0.929 . S
C884 C876 1.378 . S
C884 C879 1.350 . S
C885 H872 0.929 . S
C885 C877 1.433 1_554 S
C885 N887 1.384 . S
N886 C882 1.427 1_556 S
N886 C883 1.384 . S
N887 C879 1.427 1_554 S
N887 C885 1.384 . S
H888 C894 0.930 . S
H889 C898 0.930 . S
H890 C903 0.929 . S
H891 C901 0.929 . S
H892 C896 0.929 . S
H893 C902 0.929 . S
C894 H888 0.930 . S
C894 C895 1.367 . S
C894 C902 1.378 . S
C895 C894 1.367 . S
C895 C903 1.433 . S
C896 H892 0.929 . S
C896 C898 1.378 . S
C896 C900 1.350 . S
C897 C900 1.463 1_554 S
C897 C902 1.350 . S
C897 N905 1.427 . S
C898 H889 0.930 . S
C898 C896 1.378 . S
C898 C899 1.367 . S
C899 C898 1.367 . S
C899 C901 1.433 . S
C900 C896 1.350 . S
C900 C897 1.463 1_556 S
C900 N904 1.427 . S
C901 H891 0.929 . S
C901 C899 1.433 . S
C901 N904 1.384 . S
C902 H893 0.929 . S
C902 C894 1.378 . S
C902 C897 1.350 . S
C903 H890 0.929 . S
C903 C895 1.433 . S
C903 N905 1.384 . S
N904 C900 1.427 . S
N904 C901 1.384 . S
N905 C897 1.427 . S
N905 C903 1.384 . S
H906 C912 0.930 . S
H907 C916 0.930 . S
H908 C921 0.929 . S
H909 C919 0.929 . S
H910 C914 0.929 . S
H911 C920 0.929 . S
C912 H906 0.930 . S
C912 C913 1.367 . S
C912 C920 1.378 . S
C913 C912 1.367 . S
C913 C921 1.433 . S
C914 H910 0.929 . S
C914 C916 1.378 . S
C914 C918 1.350 . S
C915 C918 1.463 1_554 S
C915 C920 1.350 . S
C915 N923 1.427 . S
C916 H907 0.930 . S
C916 C914 1.378 . S
C916 C917 1.367 . S
C917 C916 1.367 . S
C917 C919 1.433 . S
C918 C914 1.350 . S
C918 C915 1.463 1_556 S
C918 N922 1.427 . S
C919 H909 0.929 . S
C919 C917 1.433 . S
C919 N922 1.384 . S
C920 H911 0.929 . S
C920 C912 1.378 . S
C920 C915 1.350 . S
C921 H908 0.929 . S
C921 C913 1.433 . S
C921 N923 1.384 . S
N922 C918 1.427 . S
N922 C919 1.384 . S
N923 C915 1.427 . S
N923 C921 1.384 . S
H924 C930 0.930 . S
H925 C934 0.930 . S
H926 C939 0.929 . S
H927 C937 0.929 . S
H928 C932 0.929 . S
H929 C938 0.929 . S
C930 H924 0.930 . S
C930 C931 1.367 . S
C930 C938 1.378 . S
C931 C930 1.367 . S
C931 C939 1.433 . S
C932 H928 0.929 . S
C932 C934 1.378 . S
C932 C936 1.350 . S
C933 C936 1.463 1_554 S
C933 C938 1.350 . S
C933 N941 1.427 . S
C934 H925 0.930 . S
C934 C932 1.378 . S
C934 C935 1.367 . S
C935 C934 1.367 . S
C935 C937 1.433 . S
C936 C932 1.350 . S
C936 C933 1.463 1_556 S
C936 N940 1.427 . S
C937 H927 0.929 . S
C937 C935 1.433 . S
C937 N940 1.384 . S
C938 H929 0.929 . S
C938 C930 1.378 . S
C938 C933 1.350 . S
C939 H926 0.929 . S
C939 C931 1.433 . S
C939 N941 1.384 . S
N940 C936 1.427 . S
N940 C937 1.384 . S
N941 C933 1.427 . S
N941 C939 1.384 . S
H942 C948 0.930 . S
H943 C952 0.930 . S
H944 C957 0.929 . S
H945 C955 0.929 . S
H946 C950 0.929 . S
H947 C956 0.929 . S
C948 H942 0.930 . S
C948 C949 1.367 . S
C948 C956 1.378 . S
C949 C948 1.367 . S
C949 C957 1.433 . S
C950 H946 0.929 . S
C950 C952 1.378 . S
C950 C954 1.350 . S
C951 C954 1.463 1_556 S
C951 C956 1.350 . S
C951 N959 1.427 . S
C952 H943 0.930 . S
C952 C950 1.378 . S
C952 C953 1.367 . S
C953 C952 1.367 . S
C953 C955 1.433 . S
C954 C950 1.350 . S
C954 C951 1.463 1_554 S
C954 N958 1.427 . S
C955 H945 0.929 . S
C955 C953 1.433 . S
C955 N958 1.384 . S
C956 H947 0.929 . S
C956 C948 1.378 . S
C956 C951 1.350 . S
C957 H944 0.929 . S
C957 C949 1.433 . S
C957 N959 1.384 . S
N958 C954 1.427 . S
N958 C955 1.384 . S
N959 C951 1.427 . S
N959 C957 1.384 . S
H960 C966 0.930 . S
H961 C970 0.930 . S
H962 C975 0.929 . S
H963 C973 0.929 . S
H964 C968 0.929 . S
H965 C974 0.929 . S
C966 H960 0.930 . S
C966 C967 1.367 . S
C966 C974 1.378 . S
C967 C966 1.367 . S
C967 C975 1.433 . S
C968 H964 0.929 . S
C968 C970 1.378 . S
C968 C972 1.350 . S
C969 C972 1.463 . S
C969 C974 1.350 . S
C969 N977 1.427 . S
C970 H961 0.930 . S
C970 C968 1.378 . S
C970 C971 1.367 . S
C971 C970 1.367 . S
C971 C973 1.433 . S
C972 C968 1.350 . S
C972 C969 1.463 . S
C972 N976 1.427 . S
C973 H963 0.929 . S
C973 C971 1.433 . S
C973 N976 1.384 . S
C974 H965 0.929 . S
C974 C966 1.378 . S
C974 C969 1.350 . S
C975 H962 0.929 . S
C975 C967 1.433 . S
C975 N977 1.384 . S
N976 C972 1.427 . S
N976 C973 1.384 . S
N977 C969 1.427 . S
N977 C975 1.384 . S
H978 C984 0.930 . S
H979 C988 0.930 . S
H980 C993 0.929 . S
H981 C991 0.929 . S
H982 C986 0.929 . S
H983 C992 0.929 . S
C984 H978 0.930 . S
C984 C985 1.367 . S
C984 C992 1.378 . S
C985 C984 1.367 . S
C985 C993 1.433 . S
C986 H982 0.929 . S
C986 C988 1.378 . S
C986 C990 1.350 . S
C987 C990 1.463 . S
C987 C992 1.350 . S
C987 N995 1.427 . S
C988 H979 0.930 . S
C988 C986 1.378 . S
C988 C989 1.367 . S
C989 C988 1.367 . S
C989 C991 1.433 . S
C990 C986 1.350 . S
C990 C987 1.463 . S
C990 N994 1.427 . S
C991 H981 0.929 . S
C991 C989 1.433 . S
C991 N994 1.384 . S
C992 H983 0.929 . S
C992 C984 1.378 . S
C992 C987 1.350 . S
C993 H980 0.929 . S
C993 C985 1.433 . S
C993 N995 1.384 . S
N994 C990 1.427 . S
N994 C991 1.384 . S
N995 C987 1.427 . S
N995 C993 1.384 . S
H996 C1002 0.930 . S
H997 C1006 0.930 . S
H998 C1011 0.929 . S
H999 C1009 0.929 . S
H1000 C1004 0.929 . S
H1001 C1010 0.929 . S
C1002 H996 0.930 . S
C1002 C1003 1.367 . S
C1002 C1010 1.378 . S
C1003 C1002 1.367 . S
C1003 C1011 1.433 . S
C1004 H1000 0.929 . S
C1004 C1006 1.378 . S
C1004 C1008 1.350 . S
C1005 C1008 1.463 . S
C1005 C1010 1.350 . S
C1005 N1013 1.427 . S
C1006 H997 0.930 . S
C1006 C1004 1.378 . S
C1006 C1007 1.367 . S
C1007 C1006 1.367 . S
C1007 C1009 1.433 . S
C1008 C1004 1.350 . S
C1008 C1005 1.463 . S
C1008 N1012 1.427 . S
C1009 H999 0.929 . S
C1009 C1007 1.433 . S
C1009 N1012 1.384 . S
C1010 H1001 0.929 . S
C1010 C1002 1.378 . S
C1010 C1005 1.350 . S
C1011 H998 0.929 . S
C1011 C1003 1.433 . S
C1011 N1013 1.384 . S
N1012 C1008 1.427 . S
N1012 C1009 1.384 . S
N1013 C1005 1.427 . S
N1013 C1011 1.384 . S
H1014 C1020 0.930 . S
H1015 C1024 0.930 . S
H1016 C1029 0.929 . S
H1017 C1027 0.929 . S
H1018 C1022 0.929 . S
H1019 C1028 0.929 . S
C1020 H1014 0.930 . S
C1020 C1021 1.367 . S
C1020 C1028 1.378 . S
C1021 C1020 1.367 . S
C1021 C1029 1.433 . S
C1022 H1018 0.929 . S
C1022 C1024 1.378 . S
C1022 C1026 1.350 . S
C1023 C1026 1.463 . S
C1023 C1028 1.350 . S
C1023 N1031 1.427 . S
C1024 H1015 0.930 . S
C1024 C1022 1.378 . S
C1024 C1025 1.367 . S
C1025 C1024 1.367 . S
C1025 C1027 1.433 . S
C1026 C1022 1.350 . S
C1026 C1023 1.463 . S
C1026 N1030 1.427 . S
C1027 H1017 0.929 . S
C1027 C1025 1.433 . S
C1027 N1030 1.384 . S
C1028 H1019 0.929 . S
C1028 C1020 1.378 . S
C1028 C1023 1.350 . S
C1029 H1016 0.929 . S
C1029 C1021 1.433 . S
C1029 N1031 1.384 . S
N1030 C1026 1.427 . S
N1030 C1027 1.384 . S
N1031 C1023 1.427 . S
N1031 C1029 1.384 . S
H1032 C1038 0.930 . S
H1033 C1042 0.930 . S
H1034 C1047 0.929 . S
H1035 C1045 0.929 . S
H1036 C1040 0.929 . S
H1037 C1046 0.929 . S
C1038 H1032 0.930 . S
C1038 C1039 1.367 . S
C1038 C1046 1.378 . S
C1039 C1038 1.367 . S
C1039 C1047 1.433 . S
C1040 H1036 0.929 . S
C1040 C1042 1.378 . S
C1040 C1044 1.350 . S
C1041 C1044 1.463 1_455 S
C1041 C1046 1.350 . S
C1041 N1049 1.427 . S
C1042 H1033 0.930 . S
C1042 C1040 1.378 . S
C1042 C1043 1.367 . S
C1043 C1042 1.367 . S
C1043 C1045 1.433 . S
C1044 C1040 1.350 . S
C1044 C1041 1.463 1_655 S
C1044 N1048 1.427 . S
C1045 H1035 0.929 . S
C1045 C1043 1.433 . S
C1045 N1048 1.384 . S
C1046 H1037 0.929 . S
C1046 C1038 1.378 . S
C1046 C1041 1.350 . S
C1047 H1034 0.929 . S
C1047 C1039 1.433 . S
C1047 N1049 1.384 . S
N1048 C1044 1.427 . S
N1048 C1045 1.384 . S
N1049 C1041 1.427 . S
N1049 C1047 1.384 . S
H1050 C1056 0.930 . S
H1051 C1060 0.930 . S
H1052 C1065 0.929 . S
H1053 C1063 0.929 . S
H1054 C1058 0.929 . S
H1055 C1064 0.929 . S
C1056 H1050 0.930 . S
C1056 C1057 1.367 . S
C1056 C1064 1.378 . S
C1057 C1056 1.367 . S
C1057 C1065 1.433 . S
C1058 H1054 0.929 . S
C1058 C1060 1.378 . S
C1058 C1062 1.350 . S
C1059 C1062 1.463 1_655 S
C1059 C1064 1.350 . S
C1059 N1067 1.427 . S
C1060 H1051 0.930 . S
C1060 C1058 1.378 . S
C1060 C1061 1.367 . S
C1061 C1060 1.367 . S
C1061 C1063 1.433 . S
C1062 C1058 1.350 . S
C1062 C1059 1.463 1_455 S
C1062 N1066 1.427 . S
C1063 H1053 0.929 . S
C1063 C1061 1.433 . S
C1063 N1066 1.384 . S
C1064 H1055 0.929 . S
C1064 C1056 1.378 . S
C1064 C1059 1.350 . S
C1065 H1052 0.929 . S
C1065 C1057 1.433 . S
C1065 N1067 1.384 . S
N1066 C1062 1.427 . S
N1066 C1063 1.384 . S
N1067 C1059 1.427 . S
N1067 C1065 1.384 . S
H1068 C1074 0.930 . S
H1069 C1078 0.930 . S
H1070 C1083 0.929 . S
H1071 C1081 0.929 . S
H1072 C1076 0.929 . S
H1073 C1082 0.929 . S
C1074 H1068 0.930 . S
C1074 C1075 1.367 . S
C1074 C1082 1.378 . S
C1075 C1074 1.367 . S
C1075 C1083 1.433 . S
C1076 H1072 0.929 . S
C1076 C1078 1.378 . S
C1076 C1080 1.350 . S
C1077 C1080 1.463 . S
C1077 C1082 1.350 . S
C1077 N1085 1.427 . S
C1078 H1069 0.930 . S
C1078 C1076 1.378 . S
C1078 C1079 1.367 . S
C1079 C1078 1.367 . S
C1079 C1081 1.433 . S
C1080 C1076 1.350 . S
C1080 C1077 1.463 . S
C1080 N1084 1.427 . S
C1081 H1071 0.929 . S
C1081 C1079 1.433 . S
C1081 N1084 1.384 . S
C1082 H1073 0.929 . S
C1082 C1074 1.378 . S
C1082 C1077 1.350 . S
C1083 H1070 0.929 . S
C1083 C1075 1.433 . S
C1083 N1085 1.384 . S
N1084 C1080 1.427 . S
N1084 C1081 1.384 . S
N1085 C1077 1.427 . S
N1085 C1083 1.384 . S
H1086 C1092 0.930 . S
H1087 C1096 0.930 . S
H1088 C1101 0.929 . S
H1089 C1099 0.929 . S
H1090 C1094 0.929 . S
H1091 C1100 0.929 . S
C1092 H1086 0.930 . S
C1092 C1093 1.367 . S
C1092 C1100 1.378 . S
C1093 C1092 1.367 . S
C1093 C1101 1.433 . S
C1094 H1090 0.929 . S
C1094 C1096 1.378 . S
C1094 C1098 1.350 . S
C1095 C1098 1.463 . S
C1095 C1100 1.350 . S
C1095 N1103 1.427 . S
C1096 H1087 0.930 . S
C1096 C1094 1.378 . S
C1096 C1097 1.367 . S
C1097 C1096 1.367 . S
C1097 C1099 1.433 . S
C1098 C1094 1.350 . S
C1098 C1095 1.463 . S
C1098 N1102 1.427 . S
C1099 H1089 0.929 . S
C1099 C1097 1.433 . S
C1099 N1102 1.384 . S
C1100 H1091 0.929 . S
C1100 C1092 1.378 . S
C1100 C1095 1.350 . S
C1101 H1088 0.929 . S
C1101 C1093 1.433 . S
C1101 N1103 1.384 . S
N1102 C1098 1.427 . S
N1102 C1099 1.384 . S
N1103 C1095 1.427 . S
N1103 C1101 1.384 . S
C679 C58 1.526 . S
C683 C658 1.526 . S
C697 C562 1.550 . S
C701 C154 1.550 . S
C715 C490 1.548 . S
C719 C226 1.547 . S
C733 C394 1.526 . S
C737 C322 1.526 . S
C751 C236 2.437 . S
C755 C68 2.439 . S
C769 C152 0.632 . S
C773 C320 0.654 . S
C787 C308 2.440 . S
C791 C140 2.436 . S
C805 C224 0.635 . S
C809 C56 0.649 . S
C823 C404 2.448 . S
C827 C572 2.443 . S
C841 C488 0.608 . S
C845 C656 0.631 . S
C859 C644 2.443 . S
C863 C476 2.449 . S
C877 C560 0.606 . S
C881 C392 0.625 . S
C895 C67 1.777 . S
C899 C55 1.777 . S
C913 C139 1.774 . S
C917 C151 1.774 . S
C931 C223 1.777 . S
C935 C235 1.777 . S
C949 C307 1.769 . S
C953 C319 1.769 . S
C967 C391 1.777 . S
C971 C403 1.777 . S
C985 C475 1.770 . S
C989 C487 1.770 . S
C1003 C571 1.768 . S
C1007 C559 1.768 . S
C1021 C643 1.770 . S
C1025 C655 1.770 . S
C1039 C70 2.005 . S
C1043 C142 1.987 . S
C1057 C310 1.997 . S
C1061 C238 1.995 . S
C1075 C406 2.006 . S
C1079 C478 1.987 . S
C1093 C646 2.006 . S
C1097 C574 1.987 . S
