# Generated by pormake.
# Topology whm, (6)-cn, num edge types: 1
# Building blocks:
#     Node 0, Type 0, BuildingBlock: IZENUY_clean_sbu_0, # of connection points: 6
#     Node 1, Type 0, BuildingBlock: IZENUY_clean_sbu_0, # of connection points: 6
#     Node 2, Type 0, BuildingBlock: IZENUY_clean_sbu_0, # of connection points: 6
#     Node 3, Type 0, BuildingBlock: IZENUY_clean_sbu_0, # of connection points: 6
#     Node 4, Type 0, BuildingBlock: IZENUY_clean_sbu_0, # of connection points: 6
#     Node 5, Type 0, BuildingBlock: IZENUY_clean_sbu_0, # of connection points: 6
#     Node 6, Type 0, BuildingBlock: IZENUY_clean_sbu_0, # of connection points: 6
#     Node 7, Type 0, BuildingBlock: IZENUY_clean_sbu_0, # of connection points: 6
#     Node 8, Type 0, BuildingBlock: IZENUY_clean_sbu_0, # of connection points: 6
#     Node 9, Type 0, BuildingBlock: IZENUY_clean_sbu_0, # of connection points: 6
#     Node 10, Type 0, BuildingBlock: IZENUY_clean_sbu_0, # of connection points: 6
#     Node 11, Type 0, BuildingBlock: IZENUY_clean_sbu_0, # of connection points: 6
#     Node 12, Type 0, BuildingBlock: IZENUY_clean_sbu_0, # of connection points: 6
#     Node 13, Type 0, BuildingBlock: IZENUY_clean_sbu_0, # of connection points: 6
#     Node 14, Type 0, BuildingBlock: IZENUY_clean_sbu_0, # of connection points: 6
#     Node 15, Type 0, BuildingBlock: IZENUY_clean_sbu_0, # of connection points: 6
#     Edge 16, Type (0, 0), BuildingBlock: UVAHIK_clean_linker_0, # of connection points: 2
#     Edge 17, Type (0, 0), BuildingBlock: UVAHIK_clean_linker_0, # of connection points: 2
#     Edge 18, Type (0, 0), BuildingBlock: UVAHIK_clean_linker_0, # of connection points: 2
#     Edge 19, Type (0, 0), BuildingBlock: UVAHIK_clean_linker_0, # of connection points: 2
#     Edge 20, Type (0, 0), BuildingBlock: UVAHIK_clean_linker_0, # of connection points: 2
#     Edge 21, Type (0, 0), BuildingBlock: UVAHIK_clean_linker_0, # of connection points: 2
#     Edge 22, Type (0, 0), BuildingBlock: UVAHIK_clean_linker_0, # of connection points: 2
#     Edge 23, Type (0, 0), BuildingBlock: UVAHIK_clean_linker_0, # of connection points: 2
#     Edge 24, Type (0, 0), BuildingBlock: UVAHIK_clean_linker_0, # of connection points: 2
#     Edge 25, Type (0, 0), BuildingBlock: UVAHIK_clean_linker_0, # of connection points: 2
#     Edge 26, Type (0, 0), BuildingBlock: UVAHIK_clean_linker_0, # of connection points: 2
#     Edge 27, Type (0, 0), BuildingBlock: UVAHIK_clean_linker_0, # of connection points: 2
#     Edge 28, Type (0, 0), BuildingBlock: UVAHIK_clean_linker_0, # of connection points: 2
#     Edge 29, Type (0, 0), BuildingBlock: UVAHIK_clean_linker_0, # of connection points: 2
#     Edge 30, Type (0, 0), BuildingBlock: UVAHIK_clean_linker_0, # of connection points: 2
#     Edge 31, Type (0, 0), BuildingBlock: UVAHIK_clean_linker_0, # of connection points: 2
#     Edge 32, Type (0, 0), BuildingBlock: UVAHIK_clean_linker_0, # of connection points: 2
#     Edge 33, Type (0, 0), BuildingBlock: UVAHIK_clean_linker_0, # of connection points: 2
#     Edge 34, Type (0, 0), BuildingBlock: UVAHIK_clean_linker_0, # of connection points: 2
#     Edge 35, Type (0, 0), BuildingBlock: UVAHIK_clean_linker_0, # of connection points: 2
#     Edge 36, Type (0, 0), BuildingBlock: UVAHIK_clean_linker_0, # of connection points: 2
#     Edge 37, Type (0, 0), BuildingBlock: UVAHIK_clean_linker_0, # of connection points: 2
#     Edge 38, Type (0, 0), BuildingBlock: UVAHIK_clean_linker_0, # of connection points: 2
#     Edge 39, Type (0, 0), BuildingBlock: UVAHIK_clean_linker_0, # of connection points: 2
#     Edge 40, Type (0, 0), BuildingBlock: UVAHIK_clean_linker_0, # of connection points: 2
#     Edge 41, Type (0, 0), BuildingBlock: UVAHIK_clean_linker_0, # of connection points: 2
#     Edge 42, Type (0, 0), BuildingBlock: UVAHIK_clean_linker_0, # of connection points: 2
#     Edge 43, Type (0, 0), BuildingBlock: UVAHIK_clean_linker_0, # of connection points: 2
#     Edge 44, Type (0, 0), BuildingBlock: UVAHIK_clean_linker_0, # of connection points: 2
#     Edge 45, Type (0, 0), BuildingBlock: UVAHIK_clean_linker_0, # of connection points: 2
#     Edge 46, Type (0, 0), BuildingBlock: UVAHIK_clean_linker_0, # of connection points: 2
#     Edge 47, Type (0, 0), BuildingBlock: UVAHIK_clean_linker_0, # of connection points: 2
#     Edge 48, Type (0, 0), BuildingBlock: UVAHIK_clean_linker_0, # of connection points: 2
#     Edge 49, Type (0, 0), BuildingBlock: UVAHIK_clean_linker_0, # of connection points: 2
#     Edge 50, Type (0, 0), BuildingBlock: UVAHIK_clean_linker_0, # of connection points: 2
#     Edge 51, Type (0, 0), BuildingBlock: UVAHIK_clean_linker_0, # of connection points: 2
#     Edge 52, Type (0, 0), BuildingBlock: UVAHIK_clean_linker_0, # of connection points: 2
#     Edge 53, Type (0, 0), BuildingBlock: UVAHIK_clean_linker_0, # of connection points: 2
#     Edge 54, Type (0, 0), BuildingBlock: UVAHIK_clean_linker_0, # of connection points: 2
#     Edge 55, Type (0, 0), BuildingBlock: UVAHIK_clean_linker_0, # of connection points: 2
#     Edge 56, Type (0, 0), BuildingBlock: UVAHIK_clean_linker_0, # of connection points: 2
#     Edge 57, Type (0, 0), BuildingBlock: UVAHIK_clean_linker_0, # of connection points: 2
#     Edge 58, Type (0, 0), BuildingBlock: UVAHIK_clean_linker_0, # of connection points: 2
#     Edge 59, Type (0, 0), BuildingBlock: UVAHIK_clean_linker_0, # of connection points: 2
#     Edge 60, Type (0, 0), BuildingBlock: UVAHIK_clean_linker_0, # of connection points: 2
#     Edge 61, Type (0, 0), BuildingBlock: UVAHIK_clean_linker_0, # of connection points: 2
#     Edge 62, Type (0, 0), BuildingBlock: UVAHIK_clean_linker_0, # of connection points: 2
#     Edge 63, Type (0, 0), BuildingBlock: UVAHIK_clean_linker_0, # of connection points: 2
# Relax obj value: 0.316
# Max RMSD: 0.231
# Mean RMSD: 0.231
data_MOF--net-whm--node1-IZENUY_clean_sbu_0--edge1-UVAHIK_clean_linker_0
_symmetry_space_group_name_H-M    P1
_symmetry_Int_Tables_number       1
_symmetry_cell_setting            triclinic
loop_
_symmetry_equiv_pos_as_xyz
'x, y, z'
_cell_length_a     64.985829
_cell_length_b     64.976757
_cell_length_c     35.780595
_cell_angle_alpha  89.975908
_cell_angle_beta   90.028023
_cell_angle_gamma 90.015243
loop_
_atom_site_label
_atom_site_type_symbol
_atom_site_fract_x
_atom_site_fract_y
_atom_site_fract_z
_atom_type_partial_charge
Fe0 Fe 0.54051 0.16387 0.21104 0.0
Fe1 Fe 0.55975 0.12295 0.18725 0.0
O2 O 0.55877 0.15011 0.18414 0.0
Fe3 Fe 0.57607 0.16365 0.15493 0.0
O4 O 0.58625 0.17835 0.19397 0.0
O5 O 0.55611 0.18722 0.2159 0.0
O6 O 0.55209 0.15462 0.25425 0.0
C7 C 0.5544 0.13575 0.26186 0.0
C8 C 0.53785 0.18412 0.14467 0.0
O9 O 0.55245 0.12217 0.2367 0.0
C10 C 0.56755 0.13073 0.11017 0.0
O11 O 0.52131 0.14328 0.21147 0.0
O12 O 0.53315 0.12036 0.17213 0.0
O13 O 0.55736 0.18382 0.14303 0.0
O14 O 0.52823 0.17381 0.16901 0.0
C15 C 0.60093 0.13224 0.1863 0.0
O16 O 0.56754 0.11902 0.13848 0.0
O17 O 0.56743 0.15002 0.11376 0.0
C18 C 0.51834 0.12803 0.19016 0.0
O19 O 0.58624 0.12354 0.203 0.0
O20 O 0.59766 0.14577 0.16155 0.0
C21 C 0.57531 0.19006 0.21375 0.0
Fe22 Fe 0.33153 0.54083 0.70719 0.0
Fe23 Fe 0.3733 0.56146 0.69373 0.0
O24 O 0.34673 0.55935 0.68348 0.0
Fe25 Fe 0.33529 0.57583 0.65021 0.0
O26 O 0.31717 0.58586 0.68427 0.0
O27 O 0.30757 0.5557 0.70534 0.0
O28 O 0.33694 0.55317 0.75183 0.0
C29 C 0.35495 0.55583 0.76424 0.0
C30 C 0.31757 0.53681 0.63565 0.0
O31 O 0.37045 0.55417 0.74304 0.0
C32 C 0.37174 0.56828 0.6152 0.0
O33 O 0.35266 0.52235 0.71344 0.0
O34 O 0.3779 0.53499 0.6798 0.0
O35 O 0.31716 0.55629 0.63348 0.0
O36 O 0.32524 0.52778 0.6637 0.0
C37 C 0.36264 0.60212 0.68924 0.0
O38 O 0.38095 0.56944 0.64633 0.0
O39 O 0.35243 0.56712 0.6138 0.0
C40 C 0.36952 0.51995 0.69618 0.0
O41 O 0.37037 0.58791 0.7087 0.0
O42 O 0.35167 0.59811 0.66091 0.0
C43 C 0.30449 0.5748 0.70175 0.0
Fe44 Fe 0.93871 0.37318 0.19213 0.0
Fe45 Fe 0.92279 0.33389 0.15456 0.0
O46 O 0.93977 0.34616 0.18607 0.0
Fe47 Fe 0.95782 0.33142 0.21205 0.0
O48 O 0.94613 0.33951 0.25592 0.0
O49 O 0.94616 0.37239 0.24147 0.0
O50 O 0.91224 0.37208 0.20769 0.0
C51 C 0.8977 0.36362 0.1901 0.0
C52 C 0.98004 0.36802 0.19478 0.0
O53 O 0.90115 0.35126 0.1635 0.0
C54 C 0.96106 0.31425 0.14255 0.0
O55 O 0.93071 0.37895 0.14411 0.0
O56 O 0.93172 0.34917 0.11547 0.0
O57 O 0.9772 0.35204 0.21447 0.0
O58 O 0.96522 0.37602 0.17717 0.0
C59 C 0.92261 0.30579 0.21137 0.0
O60 O 0.94159 0.31445 0.14033 0.0
O61 O 0.97037 0.32256 0.16962 0.0
C62 C 0.93104 0.36852 0.11429 0.0
O63 O 0.9123 0.31775 0.19105 0.0
O64 O 0.94187 0.30808 0.21462 0.0
C65 C 0.94421 0.35815 0.26535 0.0
Fe66 Fe 0.12695 0.94059 0.69758 0.0
Fe67 Fe 0.16594 0.92333 0.66094 0.0
O68 O 0.15395 0.94124 0.69103 0.0
Fe69 Fe 0.16903 0.95996 0.71456 0.0
O70 O 0.16115 0.95 0.75987 0.0
O71 O 0.12811 0.94927 0.74625 0.0
O72 O 0.12784 0.91449 0.71528 0.0
C73 C 0.13574 0.89945 0.69828 0.0
C74 C 0.13263 0.98197 0.69609 0.0
O75 O 0.14813 0.9022 0.67145 0.0
C76 C 0.18578 0.96081 0.64454 0.0
O77 O 0.12095 0.93151 0.65023 0.0
O78 O 0.15076 0.93184 0.62142 0.0
O79 O 0.14876 0.97954 0.71544 0.0
O80 O 0.12416 0.96676 0.68046 0.0
C81 C 0.19418 0.92443 0.71722 0.0
O82 O 0.18575 0.94132 0.64506 0.0
O83 O 0.17759 0.97104 0.67055 0.0
C84 C 0.1314 0.93178 0.62044 0.0
O85 O 0.18201 0.91352 0.6983 0.0
O86 O 0.19209 0.94379 0.71822 0.0
C87 C 0.14256 0.94871 0.77001 0.0
Fe88 Fe 0.57325 0.33151 0.83803 0.0
Fe89 Fe 0.53601 0.33036 0.78543 0.0
O90 O 0.55558 0.34445 0.80882 0.0
Fe91 Fe 0.55732 0.37142 0.80241 0.0
O92 O 0.58316 0.36954 0.78394 0.0
O93 O 0.59521 0.34801 0.82617 0.0
O94 O 0.58155 0.31476 0.80036 0.0
C95 C 0.56972 0.30283 0.78291 0.0
C96 C 0.56762 0.3665 0.87907 0.0
O97 O 0.55058 0.30624 0.78207 0.0
C98 C 0.51582 0.36774 0.80437 0.0
O99 O 0.55417 0.31298 0.855 0.0
O100 O 0.52465 0.32241 0.8296 0.0
O101 O 0.56717 0.37701 0.84935 0.0
O102 O 0.5665 0.34717 0.87802 0.0
C103 C 0.54911 0.35623 0.73027 0.0
O104 O 0.51753 0.35173 0.78442 0.0
O105 O 0.53145 0.37523 0.82032 0.0
C106 C 0.53467 0.3138 0.85558 0.0
O107 O 0.54665 0.33769 0.74013 0.0
O108 O 0.54819 0.37064 0.75403 0.0
C109 C 0.59806 0.36072 0.79984 0.0
Fe110 Fe 0.16438 0.53855 0.287 0.0
Fe111 Fe 0.12386 0.55969 0.30769 0.0
O112 O 0.15089 0.55782 0.31216 0.0
Fe113 Fe 0.16452 0.57518 0.34107 0.0
O114 O 0.18016 0.58409 0.30226 0.0
O115 O 0.18832 0.55332 0.28224 0.0
O116 O 0.15614 0.54964 0.24266 0.0
C117 C 0.13753 0.55305 0.23443 0.0
C118 C 0.18366 0.53649 0.35439 0.0
O119 O 0.12356 0.55144 0.25887 0.0
C120 C 0.13057 0.56875 0.38449 0.0
O121 O 0.14306 0.52003 0.28684 0.0
O122 O 0.12022 0.53357 0.32451 0.0
O123 O 0.18383 0.55602 0.3551 0.0
O124 O 0.17337 0.52675 0.33017 0.0
C125 C 0.13439 0.60051 0.30653 0.0
O126 O 0.11946 0.56868 0.35546 0.0
O127 O 0.14991 0.56776 0.38208 0.0
C128 C 0.12746 0.51811 0.30773 0.0
O129 O 0.1255 0.58577 0.29032 0.0
O130 O 0.14755 0.59727 0.33199 0.0
C131 C 0.19171 0.57247 0.28347 0.0
Fe132 Fe 0.94267 0.12555 0.8032 0.0
Fe133 Fe 0.92689 0.16511 0.84005 0.0
O134 O 0.94437 0.15247 0.81 0.0
Fe135 Fe 0.96353 0.16685 0.78651 0.0
O136 O 0.95318 0.15945 0.74126 0.0
O137 O 0.95128 0.12641 0.75447 0.0
O138 O 0.91656 0.12761 0.78558 0.0
C139 C 0.90184 0.13583 0.803 0.0
C140 C 0.98426 0.12971 0.80469 0.0
O141 O 0.9052 0.14788 0.83012 0.0
C142 C 0.965 0.18469 0.85516 0.0
O143 O 0.93359 0.11991 0.85068 0.0
O144 O 0.93498 0.1497 0.87959 0.0
O145 O 0.98235 0.14593 0.78544 0.0
O146 O 0.96875 0.12162 0.82004 0.0
C147 C 0.92898 0.19344 0.78425 0.0
O148 O 0.9455 0.18462 0.85538 0.0
O149 O 0.97495 0.17502 0.83051 0.0
C150 C 0.9342 0.13032 0.88057 0.0
O151 O 0.91756 0.18139 0.80246 0.0
O152 O 0.94823 0.19053 0.78303 0.0
C153 C 0.95111 0.14097 0.73094 0.0
Fe154 Fe 0.37297 0.94235 0.30554 0.0
Fe155 Fe 0.33289 0.92502 0.33808 0.0
O156 O 0.34579 0.94263 0.30858 0.0
Fe157 Fe 0.3314 0.96055 0.28191 0.0
O158 O 0.34123 0.94995 0.23848 0.0
O159 O 0.37366 0.94995 0.25624 0.0
O160 O 0.37313 0.91588 0.28958 0.0
C161 C 0.36469 0.90104 0.30632 0.0
C162 C 0.36681 0.98362 0.30309 0.0
O163 O 0.35146 0.9041 0.33163 0.0
C164 C 0.31089 0.96223 0.34814 0.0
O165 O 0.37711 0.93443 0.35419 0.0
O166 O 0.34622 0.93451 0.37908 0.0
O167 O 0.35131 0.98055 0.28235 0.0
O168 O 0.37478 0.9689 0.321 0.0
C169 C 0.30709 0.92436 0.27812 0.0
O170 O 0.31189 0.94278 0.34963 0.0
O171 O 0.32086 0.97223 0.32394 0.0
C172 C 0.36553 0.93468 0.38263 0.0
O173 O 0.31878 0.91417 0.2992 0.0
O174 O 0.30877 0.94376 0.27606 0.0
C175 C 0.36016 0.94872 0.2308 0.0
Fe176 Fe 0.43368 0.87432 0.81228 0.0
Fe177 Fe 0.45693 0.83538 0.78705 0.0
O178 O 0.43918 0.84783 0.81725 0.0
Fe179 Fe 0.42644 0.83372 0.85249 0.0
O180 O 0.40142 0.83885 0.83156 0.0
O181 O 0.40681 0.87214 0.82744 0.0
O182 O 0.42444 0.87032 0.76547 0.0
C183 C 0.43429 0.86203 0.73919 0.0
C184 C 0.43436 0.87186 0.88773 0.0
O185 O 0.45 0.85093 0.74555 0.0
C186 C 0.46543 0.81885 0.85938 0.0
O187 O 0.45937 0.88132 0.7957 0.0
O188 O 0.4776 0.85289 0.79949 0.0
O189 O 0.42406 0.85542 0.88469 0.0
O190 O 0.44239 0.88006 0.85933 0.0
C191 C 0.42793 0.80514 0.79319 0.0
O192 O 0.46678 0.81777 0.82391 0.0
O193 O 0.4506 0.82805 0.87479 0.0
C194 C 0.47657 0.87222 0.79685 0.0
O195 O 0.43769 0.81692 0.77159 0.0
O196 O 0.4266 0.80918 0.82759 0.0
C197 C 0.39471 0.85687 0.82646 0.0
Fe198 Fe 0.62414 0.43589 0.30452 0.0
Fe199 Fe 0.66389 0.45904 0.28525 0.0
O200 O 0.65101 0.43921 0.3101 0.0
Fe201 Fe 0.66519 0.42266 0.33973 0.0
O202 O 0.64958 0.3997 0.33047 0.0
O203 O 0.62729 0.40976 0.28803 0.0
O204 O 0.6241 0.44363 0.25541 0.0
C205 C 0.6385 0.44294 0.23165 0.0
C206 C 0.63049 0.42764 0.38184 0.0
O207 O 0.65678 0.44744 0.24069 0.0
C208 C 0.68231 0.46224 0.35331 0.0
O209 O 0.61884 0.46198 0.3202 0.0
O210 O 0.64173 0.47638 0.28369 0.0
O211 O 0.64979 0.42948 0.38007 0.0
O212 O 0.61965 0.42711 0.35247 0.0
C213 C 0.69268 0.42652 0.28291 0.0
O214 O 0.67179 0.47146 0.32869 0.0
O215 O 0.68337 0.44276 0.35413 0.0
C216 C 0.62551 0.4776 0.30308 0.0
O217 O 0.68855 0.44551 0.2817 0.0
O218 O 0.68158 0.41442 0.30155 0.0
C219 C 0.63704 0.39565 0.30445 0.0
Fe220 Fe 0.07427 0.66684 0.83728 0.0
Fe221 Fe 0.0604 0.62559 0.80425 0.0
O222 O 0.05678 0.65237 0.81012 0.0
Fe223 Fe 0.03568 0.66474 0.78822 0.0
O224 O 0.04869 0.68965 0.78211 0.0
O225 O 0.08062 0.68327 0.79803 0.0
O226 O 0.09698 0.65146 0.82471 0.0
C227 C 0.10007 0.63918 0.79779 0.0
C228 C 0.03519 0.68333 0.85638 0.0
O229 O 0.08539 0.62939 0.78314 0.0
C230 C 0.01887 0.62619 0.81047 0.0
O231 O 0.06924 0.65137 0.87847 0.0
O232 O 0.0719 0.62142 0.85038 0.0
O233 O 0.02517 0.67265 0.83314 0.0
O234 O 0.05462 0.68483 0.85441 0.0
C235 C 0.0488 0.63911 0.73265 0.0
O236 O 0.03551 0.61991 0.82468 0.0
O237 O 0.01864 0.6422 0.79026 0.0
C238 C 0.07172 0.63214 0.87986 0.0
O239 O 0.0498 0.62499 0.75693 0.0
O240 O 0.04531 0.65752 0.74215 0.0
C241 C 0.06763 0.69417 0.78102 0.0
Fe242 Fe 0.83356 0.07475 0.34751 0.0
Fe243 Fe 0.87459 0.06754 0.30893 0.0
O244 O 0.84838 0.06106 0.31447 0.0
Fe245 Fe 0.83688 0.0413 0.28724 0.0
O246 O 0.81743 0.05878 0.26884 0.0
O247 O 0.80905 0.07176 0.32313 0.0
O248 O 0.8373 0.09887 0.32241 0.0
C249 C 0.855 0.10629 0.31652 0.0
C250 C 0.821 0.03545 0.36084 0.0
O251 O 0.87088 0.09501 0.31885 0.0
C252 C 0.87462 0.02394 0.30068 0.0
O253 O 0.85504 0.08044 0.37881 0.0
O254 O 0.88045 0.06175 0.35756 0.0
O255 O 0.81988 0.03242 0.32571 0.0
O256 O 0.82935 0.05148 0.37383 0.0
C257 C 0.8627 0.0626 0.23602 0.0
O258 O 0.88295 0.04144 0.29721 0.0
O259 O 0.85534 0.02216 0.30289 0.0
C260 C 0.87224 0.0718 0.3837 0.0
O261 O 0.87053 0.07395 0.2607 0.0
O262 O 0.85206 0.04691 0.2447 0.0
C263 C 0.80504 0.06863 0.28912 0.0
Fe264 Fe 0.43659 0.62677 0.18883 0.0
Fe265 Fe 0.46023 0.66581 0.21052 0.0
O266 O 0.4397 0.65383 0.18613 0.0
Fe267 Fe 0.4225 0.66916 0.15968 0.0
O268 O 0.3997 0.65346 0.16943 0.0
O269 O 0.41073 0.62908 0.20717 0.0
O270 O 0.44535 0.62519 0.23753 0.0
C271 C 0.44624 0.63875 0.26301 0.0
C272 C 0.42636 0.63592 0.11309 0.0
O273 O 0.44969 0.65745 0.25522 0.0
C274 C 0.46195 0.68556 0.1435 0.0
O275 O 0.46234 0.62205 0.17087 0.0
O276 O 0.47744 0.64359 0.2089 0.0
O277 O 0.42779 0.65513 0.11713 0.0
O278 O 0.427 0.62386 0.14089 0.0
C279 C 0.4283 0.69504 0.21824 0.0
O280 O 0.47156 0.67451 0.16677 0.0
O281 O 0.44253 0.68751 0.14506 0.0
C282 C 0.47828 0.62805 0.18776 0.0
O283 O 0.44721 0.69059 0.21731 0.0
O284 O 0.41556 0.68437 0.20024 0.0
C285 C 0.39626 0.63945 0.19318 0.0
Fe286 Fe 0.87183 0.43743 0.69437 0.0
Fe287 Fe 0.83199 0.46108 0.71113 0.0
O288 O 0.84498 0.44059 0.68824 0.0
Fe289 Fe 0.83104 0.42327 0.65979 0.0
O290 O 0.84658 0.40064 0.67174 0.0
O291 O 0.86868 0.41187 0.71362 0.0
O292 O 0.87187 0.44698 0.74252 0.0
C293 C 0.85757 0.4475 0.76651 0.0
C294 C 0.86594 0.42713 0.61793 0.0
O295 O 0.83914 0.45077 0.75676 0.0
C296 C 0.81463 0.46242 0.64161 0.0
O297 O 0.87697 0.46285 0.67575 0.0
O298 O 0.85421 0.47861 0.71077 0.0
O299 O 0.84668 0.42902 0.61934 0.0
O300 O 0.87662 0.42707 0.6475 0.0
C301 C 0.80312 0.42856 0.71562 0.0
O302 O 0.82408 0.47229 0.66677 0.0
O303 O 0.81319 0.44297 0.64263 0.0
C304 C 0.87037 0.47905 0.69099 0.0
O305 O 0.8073 0.44756 0.71576 0.0
O306 O 0.81432 0.41608 0.6981 0.0
C307 C 0.85916 0.3973 0.69807 0.0
Fe308 Fe 0.04236 0.83667 0.20952 0.0
Fe309 Fe 0.07568 0.83466 0.14859 0.0
O310 O 0.06221 0.84863 0.18307 0.0
Fe311 Fe 0.06893 0.8746 0.19137 0.0
O312 O 0.0761 0.86855 0.23884 0.0
O313 O 0.04802 0.85113 0.25277 0.0
O314 O 0.05974 0.81687 0.22672 0.0
C315 C 0.07062 0.80539 0.20632 0.0
C316 C 0.02541 0.87472 0.20023 0.0
O317 O 0.07384 0.80988 0.17247 0.0
C318 C 0.07074 0.87405 0.11565 0.0
O319 O 0.03343 0.82009 0.17071 0.0
O320 O 0.05223 0.83013 0.1229 0.0
O321 O 0.04304 0.88248 0.20552 0.0
O322 O 0.02341 0.85563 0.19473 0.0
C323 C 0.10761 0.85596 0.17901 0.0
O324 O 0.07983 0.85687 0.11814 0.0
O325 O 0.06242 0.88215 0.14393 0.0
C326 C 0.03648 0.82127 0.13571 0.0
O327 O 0.10022 0.8384 0.17227 0.0
O328 O 0.09612 0.87166 0.17911 0.0
C329 C 0.06434 0.8604 0.26256 0.0
Fe330 Fe 0.62779 0.05771 0.69096 0.0
Fe331 Fe 0.66831 0.03648 0.71124 0.0
O332 O 0.65484 0.05581 0.68633 0.0
Fe333 Fe 0.66848 0.0731 0.65728 0.0
O334 O 0.65171 0.09525 0.66692 0.0
O335 O 0.62951 0.08376 0.7085 0.0
O336 O 0.6275 0.04918 0.7399 0.0
C337 C 0.64158 0.05013 0.76433 0.0
C338 C 0.63435 0.06677 0.61414 0.0
O339 O 0.66024 0.04758 0.75555 0.0
C340 C 0.68704 0.03432 0.64329 0.0
O341 O 0.62416 0.03168 0.67375 0.0
O342 O 0.64689 0.018 0.71151 0.0
O343 O 0.65367 0.06578 0.61652 0.0
O344 O 0.62327 0.06689 0.64321 0.0
C345 C 0.69591 0.07025 0.71446 0.0
O346 O 0.67702 0.02466 0.66796 0.0
O347 O 0.6876 0.05384 0.6428 0.0
C348 C 0.63136 0.01615 0.69038 0.0
O349 O 0.69239 0.05111 0.71594 0.0
O350 O 0.68436 0.08187 0.69571 0.0
C351 C 0.63863 0.09847 0.69253 0.0
C352 C 0.57072 0.22615 0.2358 0.0
C353 C 0.584 0.20965 0.2277 0.0
C354 C 0.57862 0.24547 0.24469 0.0
C355 C 0.61924 0.2742 0.28508 0.0
H356 H 0.60491 0.31729 0.21464 0.0
C357 C 0.64658 0.35831 0.30497 0.0
C358 C 0.63273 0.37396 0.29486 0.0
C359 C 0.64247 0.33779 0.29591 0.0
C360 C 0.60885 0.30555 0.23491 0.0
H361 H 0.61597 0.20025 0.22437 0.0
H362 H 0.6298 0.23424 0.24124 0.0
H363 H 0.59426 0.28196 0.20251 0.0
H364 H 0.60362 0.38037 0.26762 0.0
H365 H 0.596 0.34466 0.25322 0.0
H366 H 0.63286 0.2978 0.31862 0.0
C367 C 0.61329 0.23204 0.24004 0.0
C368 C 0.60291 0.28532 0.2277 0.0
C369 C 0.60538 0.21269 0.23038 0.0
C370 C 0.61467 0.36868 0.27558 0.0
C371 C 0.6104 0.34817 0.26706 0.0
C372 C 0.62488 0.29456 0.29271 0.0
C373 C 0.59992 0.24862 0.24638 0.0
C374 C 0.60786 0.26956 0.25289 0.0
C375 C 0.62426 0.33243 0.27696 0.0
C376 C 0.6195 0.31055 0.26793 0.0
H377 H 0.55418 0.2244 0.23389 0.0
H378 H 0.56807 0.25809 0.24969 0.0
H379 H 0.62308 0.26221 0.30495 0.0
H380 H 0.66074 0.36195 0.31954 0.0
H381 H 0.65367 0.32619 0.30346 0.0
C382 C 0.28166 0.60471 0.71789 0.0
C383 C 0.28433 0.58343 0.7127 0.0
C384 C 0.26223 0.61268 0.72667 0.0
C385 C 0.20803 0.6028 0.71309 0.0
H386 H 0.19784 0.63395 0.80357 0.0
C387 C 0.1259 0.61653 0.76638 0.0
C388 C 0.12137 0.63475 0.78578 0.0
C389 C 0.1461 0.61192 0.75618 0.0
C390 C 0.20042 0.62565 0.77777 0.0
H391 H 0.26879 0.55384 0.71272 0.0
H392 H 0.23493 0.56785 0.72707 0.0
H393 H 0.2329 0.62338 0.78813 0.0
H394 H 0.13438 0.66274 0.80877 0.0
H395 H 0.16958 0.65511 0.78972 0.0
H396 H 0.17586 0.60528 0.70196 0.0
C397 C 0.24787 0.57829 0.72467 0.0
C398 C 0.22051 0.61954 0.76911 0.0
C399 C 0.26728 0.5703 0.71669 0.0
C400 C 0.13744 0.64847 0.79413 0.0
C401 C 0.15764 0.64402 0.78338 0.0
C402 C 0.18805 0.6092 0.72133 0.0
C403 C 0.24515 0.59953 0.72955 0.0
C404 C 0.22437 0.60772 0.73709 0.0
C405 C 0.16228 0.6256 0.7645 0.0
C406 C 0.18387 0.62033 0.75421 0.0
H407 H 0.29455 0.61517 0.71508 0.0
H408 H 0.26043 0.62913 0.73035 0.0
H409 H 0.21073 0.59388 0.68798 0.0
H410 H 0.11388 0.60555 0.75978 0.0
H411 H 0.14904 0.59737 0.74245 0.0
C412 C 0.84181 0.14154 0.29948 0.0
C413 C 0.85791 0.1287 0.31155 0.0
C414 C 0.84537 0.16256 0.29324 0.0
C415 C 0.88192 0.20458 0.31544 0.0
H416 H 0.86622 0.22713 0.21926 0.0
C417 C 0.92375 0.27329 0.24909 0.0
C418 C 0.91237 0.28764 0.22822 0.0
C419 C 0.91432 0.25562 0.26331 0.0
C420 C 0.8704 0.22123 0.24654 0.0
H421 H 0.89012 0.12795 0.32773 0.0
H422 H 0.89621 0.16426 0.31699 0.0
H423 H 0.85398 0.19305 0.23753 0.0
H424 H 0.88193 0.29497 0.20697 0.0
H425 H 0.8655 0.26415 0.23194 0.0
H426 H 0.8988 0.23245 0.32411 0.0
C427 C 0.88086 0.15825 0.3124 0.0
C428 C 0.86336 0.20172 0.257 0.0
C429 C 0.87739 0.13736 0.31819 0.0
C430 C 0.89121 0.28416 0.22269 0.0
C431 C 0.88178 0.26646 0.23687 0.0
C432 C 0.88893 0.22407 0.30504 0.0
C433 C 0.86498 0.17108 0.29957 0.0
C434 C 0.86954 0.19296 0.2911 0.0
C435 C 0.89327 0.25189 0.25704 0.0
C436 C 0.88372 0.23238 0.27003 0.0
H437 H 0.82665 0.13528 0.29411 0.0
H438 H 0.83285 0.17213 0.2834 0.0
H439 H 0.88665 0.19836 0.34219 0.0
H440 H 0.94006 0.27548 0.25393 0.0
H441 H 0.92369 0.24458 0.27829 0.0
C442 C 0.36479 0.88068 0.82791 0.0
C443 C 0.37249 0.8608 0.82148 0.0
C444 C 0.34445 0.88547 0.81949 0.0
C445 C 0.29309 0.86444 0.79826 0.0
H446 H 0.28698 0.91685 0.74745 0.0
C447 C 0.21721 0.89396 0.72876 0.0
C448 C 0.21277 0.91497 0.73392 0.0
C449 C 0.2358 0.88567 0.74164 0.0
C450 C 0.28838 0.90227 0.76195 0.0
H451 H 0.36465 0.83006 0.80276 0.0
H452 H 0.32882 0.8386 0.78738 0.0
H453 H 0.321 0.90514 0.76563 0.0
H454 H 0.22382 0.94342 0.75865 0.0
H455 H 0.25602 0.92897 0.78107 0.0
H456 H 0.26022 0.86168 0.79409 0.0
C457 C 0.33863 0.85039 0.79926 0.0
C458 C 0.30788 0.89555 0.77239 0.0
C459 C 0.3591 0.84551 0.808 0.0
C460 C 0.22684 0.92725 0.75371 0.0
C461 C 0.24535 0.91899 0.76647 0.0
C462 C 0.27344 0.87118 0.78763 0.0
C463 C 0.3313 0.8706 0.80404 0.0
C464 C 0.31046 0.87676 0.79127 0.0
C465 C 0.25025 0.89826 0.7598 0.0
C466 C 0.27091 0.89035 0.76994 0.0
H467 H 0.37461 0.89274 0.83886 0.0
H468 H 0.33913 0.90103 0.82446 0.0
H469 H 0.29461 0.84989 0.81279 0.0
H470 H 0.20664 0.88404 0.71382 0.0
H471 H 0.23919 0.86965 0.73608 0.0
C472 C 0.56417 0.26623 0.764 0.0
C473 C 0.57769 0.28289 0.76917 0.0
C474 C 0.57172 0.2468 0.75471 0.0
C475 C 0.61343 0.21882 0.71123 0.0
H476 H 0.59803 0.17439 0.778 0.0
C477 C 0.64579 0.13638 0.69323 0.0
C478 C 0.63266 0.11985 0.70171 0.0
C479 C 0.64003 0.15659 0.70174 0.0
C480 C 0.60224 0.18649 0.75865 0.0
H481 H 0.60966 0.29241 0.767 0.0
H482 H 0.62281 0.25834 0.74958 0.0
H483 H 0.58585 0.20915 0.79028 0.0
H484 H 0.60306 0.11154 0.72522 0.0
H485 H 0.59262 0.14664 0.73856 0.0
H486 H 0.62914 0.19616 0.67864 0.0
C487 C 0.6064 0.26043 0.7533 0.0
C488 C 0.59535 0.20643 0.7659 0.0
C489 C 0.59888 0.27985 0.76333 0.0
C490 C 0.61362 0.12393 0.71867 0.0
C491 C 0.6077 0.14412 0.72657 0.0
C492 C 0.62004 0.19876 0.70352 0.0
C493 C 0.5929 0.24367 0.74968 0.0
C494 C 0.6008 0.22274 0.74219 0.0
C495 C 0.62084 0.16075 0.71839 0.0
C496 C 0.61443 0.18228 0.72703 0.0
H497 H 0.54777 0.26801 0.76838 0.0
H498 H 0.56101 0.23412 0.75176 0.0
H499 H 0.61774 0.23118 0.69247 0.0
H500 H 0.66065 0.13369 0.68041 0.0
H501 H 0.65074 0.16889 0.69559 0.0
C502 C 0.35877 0.6482 0.19638 0.0
C503 C 0.37475 0.63396 0.20216 0.0
C504 C 0.33833 0.64272 0.20353 0.0
C505 C 0.30416 0.59868 0.20524 0.0
H506 H 0.26956 0.63067 0.27164 0.0
C507 C 0.22756 0.56698 0.26052 0.0
C508 C 0.21135 0.58057 0.2686 0.0
C509 C 0.24677 0.57446 0.24967 0.0
C510 C 0.27882 0.62177 0.2524 0.0
H511 H 0.38187 0.60286 0.22009 0.0
H512 H 0.34609 0.59319 0.23171 0.0
H513 H 0.3046 0.64215 0.25846 0.0
H514 H 0.20237 0.61268 0.27028 0.0
H515 H 0.23575 0.62578 0.24984 0.0
H516 H 0.2785 0.57854 0.19822 0.0
C517 C 0.34946 0.6086 0.2219 0.0
C518 C 0.29893 0.6283 0.2451 0.0
C519 C 0.36991 0.61419 0.21546 0.0
C520 C 0.21461 0.60183 0.26444 0.0
C521 C 0.2338 0.60932 0.253 0.0
C522 C 0.28397 0.59233 0.21197 0.0
C523 C 0.3335 0.62279 0.21587 0.0
C524 C 0.31186 0.61661 0.22199 0.0
C525 C 0.25023 0.59573 0.24598 0.0
C526 C 0.27113 0.60356 0.23622 0.0
H527 H 0.36206 0.66358 0.18631 0.0
H528 H 0.32626 0.6539 0.19864 0.0
H529 H 0.31377 0.58959 0.18684 0.0
H530 H 0.22566 0.55052 0.26381 0.0
H531 H 0.25906 0.56348 0.24534 0.0
C532 C 0.85078 0.35972 0.69975 0.0
C533 C 0.86455 0.37586 0.70758 0.0
C534 C 0.85637 0.3393 0.70677 0.0
C535 C 0.90069 0.30605 0.70977 0.0
H536 H 0.86885 0.26988 0.77369 0.0
C537 C 0.93371 0.22971 0.76307 0.0
C538 C 0.92049 0.21306 0.77008 0.0
C539 C 0.92583 0.24883 0.75274 0.0
C540 C 0.87772 0.27959 0.75512 0.0
H541 H 0.89484 0.38332 0.72922 0.0
H542 H 0.90476 0.34757 0.74053 0.0
H543 H 0.85672 0.30484 0.76157 0.0
H544 H 0.88863 0.20317 0.7704 0.0
H545 H 0.87483 0.23644 0.75083 0.0
H546 H 0.92143 0.28094 0.70226 0.0
C547 C 0.88961 0.3508 0.72928 0.0
C548 C 0.87081 0.29964 0.74845 0.0
C549 C 0.88389 0.37122 0.723 0.0
C550 C 0.89919 0.21578 0.7654 0.0
C551 C 0.89129 0.23489 0.75445 0.0
C552 C 0.9074 0.28593 0.71581 0.0
C553 C 0.87596 0.3347 0.72098 0.0
C554 C 0.88246 0.31312 0.72632 0.0
C555 C 0.90451 0.25176 0.74847 0.0
C556 C 0.89625 0.27254 0.73922 0.0
H557 H 0.83574 0.36288 0.68801 0.0
H558 H 0.84563 0.32709 0.70015 0.0
H559 H 0.90974 0.31612 0.6921 0.0
H560 H 0.95019 0.22822 0.7668 0.0
H561 H 0.93651 0.26148 0.74925 0.0
C562 C 0.13841 0.87875 0.17744 0.0
C563 C 0.13009 0.85898 0.18264 0.0
C564 C 0.1594 0.88224 0.18186 0.0
C565 C 0.20427 0.86376 0.23189 0.0
H566 H 0.23312 0.90105 0.16532 0.0
C567 C 0.28654 0.89253 0.26421 0.0
C568 C 0.28944 0.91388 0.26005 0.0
C569 C 0.26898 0.88295 0.24977 0.0
C570 C 0.22528 0.89065 0.18423 0.0
H571 H 0.13736 0.82729 0.1962 0.0
H572 H 0.17438 0.83355 0.20462 0.0
H573 H 0.19875 0.88897 0.1489 0.0
H574 H 0.27648 0.94172 0.23621 0.0
H575 H 0.24584 0.92509 0.21148 0.0
H576 H 0.23043 0.86611 0.268 0.0
C577 C 0.16447 0.84626 0.19688 0.0
C578 C 0.20564 0.88368 0.17475 0.0
C579 C 0.14335 0.84267 0.19196 0.0
C580 C 0.27474 0.92527 0.23998 0.0
C581 C 0.25722 0.91568 0.22555 0.0
C582 C 0.22392 0.8708 0.24146 0.0
C583 C 0.17266 0.86612 0.1919 0.0
C584 C 0.19469 0.87064 0.19899 0.0
C585 C 0.25397 0.89447 0.23074 0.0
C586 C 0.23441 0.88479 0.21822 0.0
H587 H 0.12867 0.89166 0.17008 0.0
H588 H 0.16517 0.89777 0.1784 0.0
H589 H 0.19613 0.85386 0.25125 0.0
H590 H 0.29763 0.88325 0.27927 0.0
H591 H 0.26708 0.86654 0.25382 0.0
C592 C 0.36636 0.63901 0.67017 0.0
C593 C 0.36783 0.62372 0.69788 0.0
C594 C 0.37167 0.65937 0.67821 0.0
C595 C 0.37564 0.69607 0.75466 0.0
H596 H 0.41577 0.72448 0.6932 0.0
C597 C 0.41482 0.76973 0.80534 0.0
C598 C 0.41985 0.78524 0.77954 0.0
C599 C 0.40735 0.75079 0.79322 0.0
C600 C 0.40425 0.71695 0.71026 0.0
H601 H 0.37565 0.6178 0.75584 0.0
H602 H 0.38454 0.65351 0.77002 0.0
H603 H 0.40447 0.68989 0.67592 0.0
H604 H 0.42081 0.7931 0.7207 0.0
H605 H 0.40712 0.76003 0.69938 0.0
H606 H 0.37503 0.72301 0.78873 0.0
C607 C 0.37942 0.64965 0.74207 0.0
C608 C 0.39788 0.69712 0.70043 0.0
C609 C 0.37446 0.62924 0.73389 0.0
C610 C 0.41715 0.7814 0.74122 0.0
C611 C 0.40939 0.76243 0.72904 0.0
C612 C 0.38176 0.71596 0.76419 0.0
C613 C 0.37817 0.66487 0.71425 0.0
C614 C 0.38382 0.68638 0.72297 0.0
C615 C 0.40439 0.74689 0.75497 0.0
C616 C 0.39649 0.7265 0.7426 0.0
H617 H 0.36136 0.63519 0.64213 0.0
H618 H 0.3705 0.67087 0.65637 0.0
H619 H 0.36452 0.68821 0.77214 0.0
H620 H 0.41694 0.77207 0.83507 0.0
H621 H 0.40421 0.73908 0.81399 0.0
C622 C 0.72863 0.43336 0.2622 0.0
C623 C 0.71259 0.41926 0.26816 0.0
C624 C 0.74802 0.42657 0.25111 0.0
C625 C 0.78057 0.37973 0.24925 0.0
H626 H 0.81552 0.41443 0.18794 0.0
C627 C 0.86016 0.35564 0.19 0.0
C628 C 0.87627 0.36928 0.19866 0.0
C629 C 0.83979 0.36102 0.19747 0.0
C630 C 0.80589 0.40466 0.20515 0.0
H631 H 0.704 0.38706 0.26591 0.0
H632 H 0.73772 0.37518 0.24491 0.0
H633 H 0.78008 0.42475 0.19999 0.0
H634 H 0.88376 0.39919 0.22186 0.0
H635 H 0.84795 0.40881 0.23398 0.0
H636 H 0.80647 0.35939 0.25329 0.0
C637 C 0.73551 0.39146 0.24998 0.0
C638 C 0.78563 0.41056 0.21225 0.0
C639 C 0.71615 0.39825 0.26173 0.0
C640 C 0.87164 0.38838 0.21497 0.0
C641 C 0.85122 0.39392 0.22172 0.0
C642 C 0.80074 0.37364 0.24152 0.0
C643 C 0.75178 0.40552 0.24502 0.0
C644 C 0.7728 0.39836 0.23494 0.0
C645 C 0.83517 0.38028 0.21302 0.0
C646 C 0.81361 0.38622 0.2199 0.0
H647 H 0.72644 0.44964 0.26735 0.0
H648 H 0.7602 0.43784 0.24843 0.0
H649 H 0.77132 0.37009 0.26732 0.0
H650 H 0.86333 0.34075 0.17764 0.0
H651 H 0.8276 0.3503 0.1905 0.0
C652 C 0.1413 0.86144 0.69742 0.0
C653 C 0.12893 0.87832 0.70711 0.0
C654 C 0.13464 0.84137 0.70443 0.0
C655 C 0.09586 0.81149 0.75868 0.0
H656 H 0.11026 0.76831 0.68853 0.0
C657 C 0.05975 0.73058 0.76374 0.0
C658 C 0.07407 0.71442 0.76636 0.0
C659 C 0.06621 0.75041 0.75434 0.0
C660 C 0.1062 0.78025 0.70834 0.0
H661 H 0.09986 0.8875 0.73163 0.0
H662 H 0.08783 0.85253 0.74256 0.0
H663 H 0.12181 0.80349 0.67705 0.0
H664 H 0.10616 0.70612 0.75947 0.0
H665 H 0.11734 0.74081 0.74198 0.0
H666 H 0.07971 0.78818 0.78924 0.0
C667 C 0.10297 0.85469 0.73056 0.0
C668 C 0.11292 0.80038 0.70199 0.0
C669 C 0.10981 0.87477 0.72415 0.0
C670 C 0.09481 0.71829 0.75773 0.0
C671 C 0.10119 0.73808 0.74766 0.0
C672 C 0.08885 0.79144 0.76462 0.0
C673 C 0.11528 0.8377 0.72071 0.0
C674 C 0.10793 0.81627 0.7272 0.0
C675 C 0.08701 0.75437 0.74671 0.0
C676 C 0.09404 0.77565 0.7396 0.0
H677 H 0.15623 0.86373 0.68458 0.0
H678 H 0.14479 0.82877 0.69725 0.0
H679 H 0.09204 0.82315 0.77914 0.0
H680 H 0.04368 0.72811 0.7704 0.0
H681 H 0.05498 0.76272 0.7535 0.0
C682 C 0.63801 0.12906 0.16799 0.0
C683 C 0.62225 0.12567 0.19423 0.0
C684 C 0.65819 0.12288 0.17565 0.0
C685 C 0.69331 0.11423 0.25273 0.0
H686 H 0.72419 0.07909 0.18544 0.0
C687 C 0.7682 0.07673 0.30045 0.0
C688 C 0.78449 0.0745 0.27502 0.0
C689 C 0.74884 0.083 0.28834 0.0
C690 C 0.71594 0.08919 0.20424 0.0
H691 H 0.61528 0.11327 0.24907 0.0
H692 H 0.65065 0.10296 0.26277 0.0
H693 H 0.6895 0.09034 0.16825 0.0
H694 H 0.79324 0.07678 0.21677 0.0
H695 H 0.75933 0.08851 0.19548 0.0
H696 H 0.7196 0.1137 0.28835 0.0
C697 C 0.6473 0.11022 0.23619 0.0
C698 C 0.69606 0.09553 0.19445 0.0
C699 C 0.62708 0.11603 0.22827 0.0
C700 C 0.78091 0.07836 0.23694 0.0
C701 C 0.76148 0.085 0.2248 0.0
C702 C 0.71322 0.1082 0.26224 0.0
C703 C 0.66302 0.1136 0.20997 0.0
C704 C 0.68447 0.10779 0.21896 0.0
C705 C 0.74526 0.08762 0.25051 0.0
C706 C 0.72466 0.09524 0.23855 0.0
H707 H 0.63473 0.13637 0.14143 0.0
H708 H 0.67009 0.12573 0.1551 0.0
H709 H 0.6848 0.12399 0.27178 0.0
H710 H 0.77035 0.07352 0.32991 0.0
H711 H 0.73663 0.08416 0.30881 0.0
C712 C 0.39066 0.87571 0.28272 0.0
C713 C 0.37126 0.87975 0.29827 0.0
C714 C 0.39691 0.85547 0.27602 0.0
C715 C 0.38405 0.80105 0.30024 0.0
H716 H 0.41872 0.7893 0.21472 0.0
C717 C 0.40093 0.71942 0.24018 0.0
C718 C 0.42182 0.71514 0.23353 0.0
C719 C 0.39476 0.73918 0.25092 0.0
C720 C 0.40913 0.79242 0.23882 0.0
H721 H 0.34293 0.86588 0.31802 0.0
H722 H 0.3534 0.8307 0.30486 0.0
H723 H 0.40761 0.8245 0.22634 0.0
H724 H 0.45264 0.72807 0.23384 0.0
H725 H 0.44174 0.76257 0.25183 0.0
H726 H 0.38507 0.76862 0.31158 0.0
C727 C 0.36418 0.843 0.2991 0.0
C728 C 0.40284 0.81261 0.24567 0.0
C729 C 0.3581 0.8632 0.30642 0.0
C730 C 0.43644 0.73083 0.23885 0.0
C731 C 0.43023 0.75061 0.24891 0.0
C732 C 0.39005 0.78079 0.29294 0.0
C733 C 0.38373 0.83883 0.28403 0.0
C734 C 0.3903 0.81724 0.2766 0.0
C735 C 0.40933 0.75502 0.25452 0.0
C736 C 0.40275 0.77635 0.26232 0.0
H737 H 0.40118 0.88817 0.27641 0.0
H738 H 0.41222 0.85291 0.26506 0.0
H739 H 0.37472 0.804 0.32471 0.0
H740 H 0.38934 0.70762 0.23637 0.0
H741 H 0.37854 0.74227 0.25505 0.0
C742 C 0.63589 0.35384 0.79874 0.0
C743 C 0.61928 0.36686 0.79029 0.0
C744 C 0.65606 0.35998 0.7911 0.0
C745 C 0.68628 0.39882 0.73745 0.0
H746 H 0.72982 0.383 0.80591 0.0
C747 C 0.76678 0.43553 0.73441 0.0
C748 C 0.78303 0.42146 0.72996 0.0
C749 C 0.74709 0.42861 0.74359 0.0
C750 C 0.71778 0.38744 0.78657 0.0
H751 H 0.61071 0.39652 0.76734 0.0
H752 H 0.64582 0.40761 0.75541 0.0
H753 H 0.69464 0.37146 0.8175 0.0
H754 H 0.79166 0.38928 0.73354 0.0
H755 H 0.75719 0.37726 0.75066 0.0
H756 H 0.70946 0.41539 0.70738 0.0
C757 C 0.64338 0.39238 0.76683 0.0
C758 C 0.69765 0.38073 0.79297 0.0
C759 C 0.6232 0.38608 0.77384 0.0
C760 C 0.7794 0.40045 0.73664 0.0
C761 C 0.75976 0.39358 0.74651 0.0
C762 C 0.70631 0.40581 0.7315 0.0
C763 C 0.6601 0.37943 0.77542 0.0
C764 C 0.68161 0.38633 0.76846 0.0
C765 C 0.74337 0.40756 0.7492 0.0
C766 C 0.72221 0.40018 0.75598 0.0
H767 H 0.6333 0.33884 0.81112 0.0
H768 H 0.66845 0.3494 0.79736 0.0
H769 H 0.67451 0.40308 0.71748 0.0
H770 H 0.76905 0.45181 0.72936 0.0
H771 H 0.73468 0.43967 0.74582 0.0
C772 C 0.0707 0.77675 0.25379 0.0
C773 C 0.07826 0.7854 0.2205 0.0
C774 C 0.07711 0.75713 0.26515 0.0
C775 C 0.09909 0.70941 0.22578 0.0
H776 H 0.10984 0.69513 0.32916 0.0
C777 C 0.11246 0.62561 0.27133 0.0
C778 C 0.12805 0.62187 0.29773 0.0
C779 C 0.10622 0.64569 0.26333 0.0
C780 C 0.10703 0.69893 0.30013 0.0
H781 H 0.09929 0.78072 0.17414 0.0
H782 H 0.11063 0.74691 0.19418 0.0
H783 H 0.09988 0.73032 0.31317 0.0
H784 H 0.14936 0.63637 0.33631 0.0
H785 H 0.13868 0.67146 0.32182 0.0
H786 H 0.10667 0.67829 0.21247 0.0
C787 C 0.09934 0.75493 0.21101 0.0
C788 C 0.1011 0.71902 0.29104 0.0
C789 C 0.09289 0.77438 0.19962 0.0
C790 C 0.13728 0.6387 0.31588 0.0
C791 C 0.13105 0.65882 0.3078 0.0
C792 C 0.10502 0.6894 0.23482 0.0
C793 C 0.09125 0.74587 0.24348 0.0
C794 C 0.09717 0.72451 0.25371 0.0
C795 C 0.11547 0.66254 0.28138 0.0
C796 C 0.10909 0.6839 0.27208 0.0
H797 H 0.05944 0.78487 0.27052 0.0
H798 H 0.07053 0.75053 0.29024 0.0
H799 H 0.09588 0.71302 0.1968 0.0
H800 H 0.10496 0.61303 0.25688 0.0
H801 H 0.09398 0.64799 0.24321 0.0
C802 C 0.86406 0.13677 0.8167 0.0
C803 C 0.88037 0.12992 0.79407 0.0
C804 C 0.84384 0.13087 0.80904 0.0
C805 C 0.81358 0.09123 0.7594 0.0
H806 H 0.76882 0.12999 0.77283 0.0
C807 C 0.72205 0.09849 0.72046 0.0
C808 C 0.71568 0.07834 0.72897 0.0
C809 C 0.74172 0.10528 0.73039 0.0
C810 C 0.78115 0.11901 0.76873 0.0
H811 H 0.88811 0.11181 0.74513 0.0
H812 H 0.85274 0.10177 0.73141 0.0
H813 H 0.80414 0.14107 0.78383 0.0
H814 H 0.72462 0.0499 0.75634 0.0
H815 H 0.75872 0.0619 0.77431 0.0
H816 H 0.79068 0.06935 0.74325 0.0
C817 C 0.85566 0.11139 0.75554 0.0
C818 C 0.80139 0.1253 0.77542 0.0
C819 C 0.87593 0.11724 0.76329 0.0
C820 C 0.72909 0.06546 0.74905 0.0
C821 C 0.74871 0.07228 0.75911 0.0
C822 C 0.79336 0.08497 0.75262 0.0
C823 C 0.83938 0.11806 0.77845 0.0
C824 C 0.81786 0.11148 0.77085 0.0
C825 C 0.75543 0.09212 0.74922 0.0
C826 C 0.77688 0.09877 0.75723 0.0
H827 H 0.8669 0.14651 0.84071 0.0
H828 H 0.83173 0.13605 0.82757 0.0
H829 H 0.82585 0.08011 0.75604 0.0
H830 H 0.71213 0.10882 0.70498 0.0
H831 H 0.74642 0.1206 0.72207 0.0
C832 C 0.56806 0.1008 0.06613 0.0
C833 C 0.5719 0.12176 0.07308 0.0
C834 C 0.57478 0.09168 0.03292 0.0
C835 C 0.61576 0.09006 0.97086 0.0
H836 H 0.58002 0.07533 0.88839 0.0
C837 C 0.6475 0.06717 0.82587 0.0
C838 C 0.63566 0.05407 0.80335 0.0
C839 C 0.63998 0.07374 0.8605 0.0
C840 C 0.59024 0.07889 0.91139 0.0
H841 H 0.58538 0.14967 0.05034 0.0
H842 H 0.59748 0.13348 0.9927 0.0
H843 H 0.5653 0.09016 0.94501 0.0
H844 H 0.6075 0.03633 0.8001 0.0
H845 H 0.59494 0.04668 0.86132 0.0
H846 H 0.64068 0.07838 0.93822 0.0
C847 C 0.58908 0.12431 0.01288 0.0
C848 C 0.58175 0.08756 0.9436 0.0
C849 C 0.58203 0.13354 0.04569 0.0
C850 C 0.61682 0.04662 0.81689 0.0
C851 C 0.60954 0.05276 0.85181 0.0
C852 C 0.62424 0.08103 0.93896 0.0
C853 C 0.58574 0.1033 0.00659 0.0
C854 C 0.5945 0.09338 0.97328 0.0
C855 C 0.62066 0.06696 0.87358 0.0
C856 C 0.61162 0.0755 0.90858 0.0
H857 H 0.5603 0.09137 0.08673 0.0
H858 H 0.57207 0.07542 0.02835 0.0
H859 H 0.62579 0.0944 0.99375 0.0
H860 H 0.66198 0.07329 0.81577 0.0
H861 H 0.64893 0.08485 0.87612 0.0
C862 C 0.40354 0.57931 0.58072 0.0
C863 C 0.38317 0.57201 0.58004 0.0
C864 C 0.4133 0.58539 0.54765 0.0
C865 C 0.41006 0.58108 0.44466 0.0
H866 H 0.43904 0.6333 0.44483 0.0
C867 C 0.44775 0.61117 0.31125 0.0
C868 C 0.44418 0.63192 0.30222 0.0
C869 C 0.44345 0.60373 0.34691 0.0
C870 C 0.43096 0.61872 0.44434 0.0
H871 H 0.35742 0.5645 0.54386 0.0
H872 H 0.37435 0.5751 0.48649 0.0
H873 H 0.42529 0.61953 0.50332 0.0
H874 H 0.43424 0.66138 0.324 0.0
H875 H 0.42624 0.64824 0.38651 0.0
H876 H 0.41492 0.58055 0.3857 0.0
C877 C 0.38286 0.57609 0.51246 0.0
C878 C 0.4233 0.61071 0.47789 0.0
C879 C 0.3731 0.57009 0.54544 0.0
C880 C 0.43716 0.64533 0.33022 0.0
C881 C 0.43264 0.63779 0.36601 0.0
C882 C 0.41768 0.58907 0.41123 0.0
C883 C 0.40293 0.58415 0.51324 0.0
C884 C 0.41255 0.59191 0.47831 0.0
C885 C 0.43523 0.61677 0.3744 0.0
C886 C 0.42809 0.60805 0.41057 0.0
H887 H 0.41174 0.58099 0.60691 0.0
H888 H 0.42887 0.59128 0.54907 0.0
H889 H 0.40203 0.56648 0.44406 0.0
H890 H 0.45349 0.60051 0.29044 0.0
H891 H 0.44614 0.58759 0.35269 0.0
C892 C 0.92333 0.36728 0.04562 0.0
C893 C 0.92629 0.37885 0.07838 0.0
C894 C 0.91574 0.37661 0.01324 0.0
C895 C 0.90758 0.42692 0.96722 0.0
H896 H 0.86565 0.39703 0.91234 0.0
C897 C 0.88375 0.44722 0.81727 0.0
C898 C 0.86316 0.44457 0.80619 0.0
C899 C 0.89012 0.44169 0.85306 0.0
C900 C 0.87711 0.40572 0.92766 0.0
H901 H 0.92458 0.40956 0.10211 0.0
H902 H 0.91132 0.42575 0.04573 0.0
H903 H 0.88051 0.38195 0.96861 0.0
H904 H 0.83288 0.43494 0.8245 0.0
H905 H 0.84406 0.42526 0.88758 0.0
H906 H 0.90411 0.45072 0.92632 0.0
C907 C 0.91489 0.40948 0.04504 0.0
C908 C 0.88587 0.39693 0.95955 0.0
C909 C 0.92247 0.40015 0.07742 0.0
C910 C 0.84883 0.43719 0.83232 0.0
C911 C 0.85527 0.43149 0.86825 0.0
C912 C 0.89883 0.4357 0.9353 0.0
C913 C 0.91098 0.39773 0.01286 0.0
C914 C 0.9014 0.40731 0.97942 0.0
C915 C 0.87609 0.4333 0.87868 0.0
C916 C 0.88369 0.42508 0.91488 0.0
H917 H 0.92622 0.35086 0.04527 0.0
H918 H 0.91332 0.36723 0.98862 0.0
H919 H 0.91953 0.43531 0.98183 0.0
H920 H 0.89517 0.45297 0.79785 0.0
H921 H 0.90629 0.4431 0.85999 0.0
C922 C 0.0536 0.87514 0.32365 0.0
C923 C 0.0683 0.86481 0.30204 0.0
C924 C 0.05881 0.88262 0.35906 0.0
C925 C 0.10549 0.89567 0.41506 0.0
H926 H 0.06565 0.90324 0.49433 0.0
C927 C 0.12956 0.9354 0.55112 0.0
C928 C 0.12116 0.92782 0.58446 0.0
C929 C 0.12124 0.92959 0.51671 0.0
C930 C 0.07709 0.90104 0.47272 0.0
H931 H 0.09936 0.85296 0.30057 0.0
H932 H 0.10809 0.86446 0.36335 0.0
H933 H 0.05512 0.88689 0.43646 0.0
H934 H 0.09731 0.90858 0.60831 0.0
H935 H 0.08353 0.89746 0.54857 0.0
H936 H 0.1278 0.90836 0.45197 0.0
C937 C 0.09288 0.86788 0.35267 0.0
C938 C 0.07093 0.8919 0.43914 0.0
C939 C 0.08785 0.86098 0.31693 0.0
C940 C 0.10393 0.91482 0.58294 0.0
C941 C 0.09597 0.90853 0.54855 0.0
C942 C 0.11174 0.90429 0.44886 0.0
C943 C 0.07871 0.87947 0.37374 0.0
C944 C 0.08508 0.88902 0.40984 0.0
C945 C 0.10475 0.91551 0.51487 0.0
C946 C 0.09767 0.90713 0.47824 0.0
H947 H 0.0385 0.87848 0.31228 0.0
H948 H 0.04752 0.89164 0.37406 0.0
H949 H 0.11679 0.8943 0.39299 0.0
H950 H 0.14275 0.94561 0.55166 0.0
H951 H 0.12805 0.93586 0.49157 0.0
C952 C 0.5702 0.36643 0.9488 0.0
C953 C 0.57334 0.37654 0.91462 0.0
C954 C 0.57791 0.37476 0.98193 0.0
C955 C 0.60028 0.42243 0.0236 0.0
H956 H 0.6207 0.38355 0.09706 0.0
C957 C 0.64436 0.44332 0.16203 0.0
C958 C 0.63333 0.43637 0.19336 0.0
C959 C 0.63866 0.43686 0.12607 0.0
C960 C 0.61518 0.39454 0.07659 0.0
H961 H 0.58657 0.4036 0.88842 0.0
H962 H 0.60055 0.41781 0.94593 0.0
H963 H 0.60679 0.37089 0.03817 0.0
H964 H 0.60826 0.41679 0.21193 0.0
H965 H 0.59884 0.40517 0.14962 0.0
H966 H 0.60911 0.44604 0.06244 0.0
C967 C 0.59176 0.40368 0.94745 0.0
C968 C 0.60696 0.38734 0.04307 0.0
C969 C 0.58375 0.3955 0.91439 0.0
C970 C 0.61689 0.4226 0.18826 0.0
C971 C 0.61156 0.41583 0.15269 0.0
C972 C 0.60885 0.42964 0.057 0.0
C973 C 0.58927 0.39323 0.98157 0.0
C974 C 0.59896 0.40114 0.01645 0.0
C975 C 0.62229 0.42296 0.12132 0.0
C976 C 0.61599 0.41571 0.08398 0.0
H977 H 0.56207 0.35188 0.94988 0.0
H978 H 0.57515 0.36656 0.0078 0.0
H979 H 0.59413 0.43352 0.00397 0.0
H980 H 0.65709 0.45393 0.16529 0.0
H981 H 0.64712 0.44249 0.10208 0.0
C982 C 0.13282 0.57557 0.45345 0.0
C983 C 0.12091 0.57375 0.42081 0.0
C984 C 0.12395 0.58267 0.48662 0.0
C985 C 0.08082 0.61396 0.52079 0.0
H986 H 0.09221 0.58766 0.61582 0.0
C987 C 0.05944 0.64771 0.66698 0.0
C988 C 0.05218 0.63336 0.69323 0.0
C989 C 0.0663 0.64106 0.63185 0.0
C990 C 0.08881 0.59511 0.58943 0.0
H991 H 0.09012 0.57725 0.3979 0.0
H992 H 0.07476 0.5895 0.45573 0.0
H993 H 0.10766 0.57399 0.55892 0.0
H994 H 0.04478 0.60114 0.70227 0.0
H995 H 0.0565 0.58973 0.6413 0.0
H996 H 0.06187 0.63505 0.55151 0.0
C997 C 0.091 0.58573 0.45548 0.0
C998 C 0.09781 0.5874 0.55696 0.0
C999 C 0.0998 0.57852 0.42244 0.0
C1000 C 0.05059 0.61255 0.68286 0.0
C1001 C 0.0574 0.60597 0.64801 0.0
C1002 C 0.07193 0.6218 0.5534 0.0
C1003 C 0.10304 0.58817 0.48773 0.0
C1004 C 0.09379 0.59664 0.52228 0.0
C1005 C 0.06597 0.62001 0.62266 0.0
C1006 C 0.07569 0.6123 0.58796 0.0
H1007 H 0.14911 0.57205 0.45317 0.0
H1008 H 0.1336 0.58444 0.5111 0.0
H1009 H 0.07766 0.62153 0.49443 0.0
H1010 H 0.06091 0.66382 0.67429 0.0
H1011 H 0.07283 0.65221 0.61272 0.0
C1012 C 0.92466 0.09904 0.91774 0.0
C1013 C 0.93049 0.11989 0.91671 0.0
C1014 C 0.91888 0.0898 0.95141 0.0
C1015 C 0.92165 0.09599 0.05384 0.0
H1016 H 0.86981 0.06629 0.05478 0.0
C1017 C 0.87602 0.08653 0.18767 0.0
C1018 C 0.86824 0.06698 0.19678 0.0
C1019 C 0.88391 0.09047 0.1523 0.0
C1020 C 0.88446 0.07425 0.05483 0.0
H1021 H 0.9357 0.14712 0.95052 0.0
H1022 H 0.92566 0.13102 0.00914 0.0
H1023 H 0.88459 0.07751 0.99523 0.0
H1024 H 0.86158 0.03652 0.1752 0.0
H1025 H 0.87545 0.04355 0.11255 0.0
H1026 H 0.92131 0.09325 0.11333 0.0
C1027 C 0.92559 0.12178 0.98394 0.0
C1028 C 0.89294 0.08065 0.0208 0.0
C1029 C 0.93125 0.13105 0.9503 0.0
C1030 C 0.86751 0.05172 0.16896 0.0
C1031 C 0.87546 0.05572 0.13324 0.0
C1032 C 0.9132 0.08962 0.0877 0.0
C1033 C 0.91901 0.10117 0.98476 0.0
C1034 C 0.91135 0.09206 0.0201 0.0
C1035 C 0.88425 0.07499 0.12502 0.0
C1036 C 0.89424 0.07922 0.08863 0.0
H1037 H 0.92394 0.08997 0.89237 0.0
H1038 H 0.91409 0.07383 0.95129 0.0
H1039 H 0.93606 0.10437 0.05411 0.0
H1040 H 0.87647 0.09877 0.20823 0.0
H1041 H 0.89003 0.10565 0.14644 0.0
C1042 C 0.44264 0.86715 0.67118 0.0
C1043 C 0.42838 0.86764 0.70066 0.0
C1044 C 0.43734 0.87507 0.63602 0.0
C1045 C 0.40042 0.91144 0.5931 0.0
H1046 H 0.4158 0.88535 0.49984 0.0
C1047 C 0.36217 0.93062 0.45205 0.0
C1048 C 0.37466 0.93118 0.42001 0.0
C1049 C 0.37036 0.92463 0.48648 0.0
C1050 C 0.41165 0.89297 0.52567 0.0
H1051 H 0.39701 0.87549 0.71585 0.0
H1052 H 0.3877 0.88873 0.65475 0.0
H1053 H 0.42692 0.87021 0.55901 0.0
H1054 H 0.40581 0.92682 0.39946 0.0
H1055 H 0.42003 0.91641 0.4596 0.0
H1056 H 0.38481 0.93395 0.55986 0.0
C1057 C 0.40316 0.88294 0.65888 0.0
C1058 C 0.41801 0.88429 0.55954 0.0
C1059 C 0.40847 0.8752 0.69385 0.0
C1060 C 0.39572 0.92649 0.42353 0.0
C1061 C 0.40386 0.92037 0.45791 0.0
C1062 C 0.39401 0.92005 0.55933 0.0
C1063 C 0.41766 0.88348 0.62982 0.0
C1064 C 0.41217 0.89325 0.59364 0.0
C1065 C 0.39119 0.919 0.48956 0.0
C1066 C 0.39932 0.91076 0.52528 0.0
H1067 H 0.45811 0.86146 0.67568 0.0
H1068 H 0.44885 0.87527 0.61416 0.0
H1069 H 0.39608 0.91901 0.61888 0.0
H1070 H 0.34592 0.93417 0.45036 0.0
H1071 H 0.36018 0.9236 0.51037 0.0
C1072 C 0.43121 0.9051 0.92272 0.0
C1073 C 0.43236 0.8835 0.92281 0.0
C1074 C 0.42427 0.91557 0.95451 0.0
C1075 C 0.3905 0.90569 0.03418 0.0
H1076 H 0.41277 0.95581 0.07675 0.0
C1077 C 0.35308 0.94249 0.16274 0.0
C1078 C 0.36708 0.94679 0.19163 0.0
C1079 C 0.36018 0.93872 0.1265 0.0
C1080 C 0.40634 0.94186 0.06499 0.0
H1081 H 0.42925 0.85609 0.95689 0.0
H1082 H 0.41764 0.87433 0.01235 0.0
H1083 H 0.42899 0.94069 0.0214 0.0
H1084 H 0.39937 0.95172 0.20467 0.0
H1085 H 0.41165 0.94486 0.14197 0.0
H1086 H 0.36838 0.90626 0.07821 0.0
C1087 C 0.42141 0.88315 0.98757 0.0
C1088 C 0.41556 0.93329 0.0333 0.0
C1089 C 0.42822 0.87273 0.95596 0.0
C1090 C 0.38816 0.94827 0.18316 0.0
C1091 C 0.39522 0.94456 0.14705 0.0
C1092 C 0.38129 0.91424 0.06567 0.0
C1093 C 0.41849 0.90454 0.98664 0.0
C1094 C 0.40804 0.91482 0.01826 0.0
C1095 C 0.38138 0.93925 0.11852 0.0
C1096 C 0.38937 0.93215 0.08195 0.0
H1097 H 0.43424 0.91375 0.89744 0.0
H1098 H 0.42224 0.9321 0.95317 0.0
H1099 H 0.3841 0.89167 0.02265 0.0
H1100 H 0.33674 0.94137 0.16834 0.0
H1101 H 0.34914 0.93488 0.10492 0.0
C1102 C 0.59998 0.41635 0.41921 0.0
C1103 C 0.62075 0.42243 0.41803 0.0
C1104 C 0.59131 0.40898 0.45228 0.0
C1105 C 0.59738 0.40893 0.55408 0.0
H1106 H 0.56435 0.35917 0.5498 0.0
C1107 C 0.56144 0.34767 0.6655 0.0
C1108 C 0.55307 0.36186 0.69092 0.0
C1109 C 0.56838 0.35432 0.63042 0.0
C1110 C 0.5736 0.37301 0.55136 0.0
H1111 H 0.64846 0.42628 0.45117 0.0
H1112 H 0.6332 0.4136 0.50909 0.0
H1113 H 0.57968 0.37297 0.4925 0.0
H1114 H 0.54393 0.39374 0.69848 0.0
H1115 H 0.55582 0.40515 0.63764 0.0
H1116 H 0.59144 0.40897 0.61282 0.0
C1117 C 0.62369 0.41447 0.48427 0.0
C1118 C 0.58222 0.38101 0.51862 0.0
C1119 C 0.63243 0.42173 0.45109 0.0
C1120 C 0.5506 0.38246 0.67977 0.0
C1121 C 0.55749 0.38905 0.64498 0.0
C1122 C 0.58866 0.40104 0.58667 0.0
C1123 C 0.60316 0.40769 0.485 0.0
C1124 C 0.59414 0.39909 0.51968 0.0
C1125 C 0.56705 0.37523 0.62042 0.0
C1126 C 0.57658 0.38308 0.58563 0.0
H1127 H 0.59049 0.41671 0.39431 0.0
H1128 H 0.57534 0.40419 0.45221 0.0
H1129 H 0.6064 0.42292 0.55571 0.0
H1130 H 0.56359 0.33172 0.6734 0.0
H1131 H 0.57568 0.34334 0.61191 0.0
C1132 C 0.07183 0.63109 0.9498 0.0
C1133 C 0.07769 0.62242 0.91548 0.0
C1134 C 0.07822 0.6221 0.98335 0.0
C1135 C 0.11925 0.59324 0.02548 0.0
H1136 H 0.07912 0.57569 0.09897 0.0
C1137 C 0.1433 0.55431 0.16488 0.0
C1138 C 0.13144 0.55926 0.19638 0.0
C1139 C 0.1369 0.56055 0.12921 0.0
C1140 C 0.09059 0.58078 0.07907 0.0
H1141 H 0.09498 0.59776 0.88922 0.0
H1142 H 0.10657 0.58246 0.94798 0.0
H1143 H 0.06749 0.59034 0.03997 0.0
H1144 H 0.10417 0.57535 0.2156 0.0
H1145 H 0.09362 0.58691 0.15439 0.0
H1146 H 0.14241 0.58466 0.06499 0.0
C1147 C 0.09683 0.59599 0.94878 0.0
C1148 C 0.08386 0.58904 0.04524 0.0
C1149 C 0.09008 0.60467 0.91529 0.0
C1150 C 0.11341 0.57089 0.19174 0.0
C1151 C 0.10727 0.57743 0.15647 0.0
C1152 C 0.12602 0.58536 0.0597 0.0
C1153 C 0.09094 0.60462 0.983 0.0
C1154 C 0.09813 0.59545 0.01834 0.0
C1155 C 0.11875 0.57217 0.12461 0.0
C1156 C 0.11176 0.57923 0.08712 0.0
H1157 H 0.06229 0.64475 0.95069 0.0
H1158 H 0.07357 0.629 0.00958 0.0
H1159 H 0.13049 0.59816 0.005 0.0
H1160 H 0.15729 0.54539 0.16775 0.0
H1161 H 0.14606 0.55608 0.10528 0.0
C1162 C 0.88379 0.10001 0.42474 0.0
C1163 C 0.8849 0.07912 0.41502 0.0
C1164 C 0.89453 0.10751 0.4554 0.0
C1165 C 0.93528 0.09581 0.52459 0.0
H1166 H 0.90376 0.13413 0.58487 0.0
C1167 C 0.95213 0.1154 0.67903 0.0
C1168 C 0.94906 0.13579 0.69096 0.0
C1169 C 0.94783 0.10969 0.64231 0.0
C1170 C 0.91292 0.12375 0.56803 0.0
H1171 H 0.89881 0.04979 0.42839 0.0
H1172 H 0.91718 0.06277 0.48371 0.0
H1173 H 0.88918 0.12094 0.52731 0.0
H1174 H 0.94014 0.16644 0.67329 0.0
H1175 H 0.93241 0.15637 0.6089 0.0
H1176 H 0.95871 0.09817 0.56666 0.0
C1177 C 0.9082 0.07341 0.46707 0.0
C1178 C 0.90457 0.11614 0.53499 0.0
C1179 C 0.89764 0.06593 0.43566 0.0
C1180 C 0.9426 0.15061 0.66491 0.0
C1181 C 0.9381 0.14483 0.62817 0.0
C1182 C 0.94359 0.10333 0.55799 0.0
C1183 C 0.90635 0.09422 0.47768 0.0
C1184 C 0.91563 0.10211 0.51278 0.0
C1185 C 0.9402 0.12421 0.61683 0.0
C1186 C 0.93245 0.11737 0.57999 0.0
H1187 H 0.8745 0.11064 0.40858 0.0
H1188 H 0.89329 0.12373 0.46196 0.0
H1189 H 0.94425 0.08517 0.50796 0.0
H1190 H 0.95729 0.10365 0.69838 0.0
H1191 H 0.94945 0.09367 0.63444 0.0
C1192 C 0.37549 0.55208 0.82243 0.0
C1193 C 0.35848 0.56064 0.80386 0.0
C1194 C 0.38101 0.55898 0.85797 0.0
C1195 C 0.38369 0.60488 0.91046 0.0
H1196 H 0.39036 0.57107 -0.00107 0.0
C1197 C 0.40921 0.63987 0.05108 0.0
C1198 C 0.4204 0.62762 0.07622 0.0
C1199 C 0.40124 0.63143 0.01825 0.0
C1200 C 0.38898 0.5807 0.97436 0.0
H1201 H 0.33361 0.5827 0.80779 0.0
H1202 H 0.34379 0.59538 0.86986 0.0
H1203 H 0.37596 0.55604 0.94213 0.0
H1204 H 0.43284 0.59717 0.086 0.0
H1205 H 0.42004 0.58267 0.02764 0.0
H1206 H 0.39772 0.62922 0.94127 0.0
C1207 C 0.3525 0.58304 0.85707 0.0
C1208 C 0.38047 0.5721 0.94205 0.0
C1209 C 0.34663 0.57573 0.82185 0.0
C1210 C 0.42417 0.60694 0.06718 0.0
C1211 C 0.41659 0.59859 0.03388 0.0
C1212 C 0.39263 0.61337 0.94242 0.0
C1213 C 0.36993 0.57492 0.87505 0.0
C1214 C 0.3777 0.58416 0.90996 0.0
C1215 C 0.40464 0.61061 0.00929 0.0
C1216 C 0.39538 0.60143 0.97492 0.0
H1217 H 0.38487 0.54047 0.80896 0.0
H1218 H 0.39456 0.55261 0.8713 0.0
H1219 H 0.38201 0.61434 0.8857 0.0
H1220 H 0.40581 0.6558 0.05753 0.0
H1221 H 0.39183 0.64116 0.0006 0.0
C1222 C 0.93223 0.34972 0.3304 0.0
C1223 C 0.94014 0.36397 0.30457 0.0
C1224 C 0.92593 0.35628 0.3659 0.0
C1225 C 0.90709 0.40299 0.41206 0.0
H1226 H 0.91658 0.37323 0.50439 0.0
C1227 C 0.8642 0.42191 0.54867 0.0
C1228 C 0.87573 0.4218 0.58191 0.0
C1229 C 0.8729 0.41507 0.51525 0.0
C1230 C 0.91395 0.38177 0.47882 0.0
H1231 H 0.94894 0.39592 0.29654 0.0
H1232 H 0.93823 0.40716 0.35815 0.0
H1233 H 0.9311 0.36018 0.44589 0.0
H1234 H 0.90565 0.41488 0.60587 0.0
H1235 H 0.92085 0.40309 0.54739 0.0
H1236 H 0.89008 0.42463 0.44476 0.0
C1237 C 0.93641 0.39108 0.35083 0.0
C1238 C 0.92208 0.37419 0.44536 0.0
C1239 C 0.94263 0.38459 0.31556 0.0
C1240 C 0.89633 0.41517 0.58078 0.0
C1241 C 0.90499 0.40823 0.54738 0.0
C1242 C 0.8989 0.41049 0.44538 0.0
C1243 C 0.92747 0.37715 0.37601 0.0
C1244 C 0.9188 0.3848 0.41168 0.0
C1245 C 0.8933 0.40791 0.51436 0.0
C1246 C 0.90226 0.39999 0.47912 0.0
H1247 H 0.93011 0.33374 0.32268 0.0
H1248 H 0.91905 0.34521 0.38479 0.0
H1249 H 0.90406 0.41136 0.38645 0.0
H1250 H 0.8483 0.42691 0.54854 0.0
H1251 H 0.86347 0.41488 0.49029 0.0
C1252 C 0.15189 0.94301 0.83741 0.0
C1253 C 0.13708 0.94759 0.81004 0.0
C1254 C 0.14593 0.93983 0.87455 0.0
C1255 C 0.10179 0.94487 0.94073 0.0
H1256 H 0.12324 0.89391 0.98136 0.0
C1257 C 0.0762 0.90762 0.08238 0.0
C1258 C 0.07406 0.8861 0.0813 0.0
C1259 C 0.08389 0.91821 0.05126 0.0
C1260 C 0.11709 0.90818 0.97037 0.0
H1261 H 0.10462 0.95372 0.80062 0.0
H1262 H 0.09432 0.94788 0.86475 0.0
H1263 H 0.13831 0.90815 0.92487 0.0
H1264 H 0.07644 0.85904 0.04614 0.0
H1265 H 0.08936 0.87748 0.9919 0.0
H1266 H 0.0799 0.94423 0.9856 0.0
C1267 C 0.11052 0.94691 0.85787 0.0
C1268 C 0.12595 0.91652 0.93832 0.0
C1269 C 0.11643 0.95001 0.82091 0.0
C1270 C 0.07821 0.8756 0.04788 0.0
C1271 C 0.08578 0.88613 0.01695 0.0
C1272 C 0.09291 0.9365 0.97294 0.0
C1273 C 0.12509 0.94127 0.88495 0.0
C1274 C 0.11803 0.93464 0.9225 0.0
C1275 C 0.08948 0.90739 0.01878 0.0
C1276 C 0.10009 0.91773 0.98733 0.0
H1277 H 0.16794 0.94116 0.82993 0.0
H1278 H 0.15755 0.9357 0.89494 0.0
H1279 H 0.09552 0.959 0.92942 0.0
H1280 H 0.07319 0.91606 0.1079 0.0
H1281 H 0.08649 0.93464 0.05329 0.0
C1282 C 0.60361 0.07568 0.57514 0.0
C1283 C 0.62474 0.07116 0.57748 0.0
C1284 C 0.5949 0.08207 0.54139 0.0
C1285 C 0.60309 0.08251 0.43959 0.0
H1286 H 0.56611 0.1294 0.44158 0.0
C1287 C 0.55906 0.10782 0.30893 0.0
C1288 C 0.55919 0.12895 0.30035 0.0
C1289 C 0.56572 0.10085 0.34369 0.0
C1290 C 0.57648 0.11636 0.44061 0.0
H1291 H 0.65311 0.06905 0.54572 0.0
H1292 H 0.63787 0.08015 0.48683 0.0
H1293 H 0.58074 0.11639 0.49996 0.0
H1294 H 0.56573 0.15939 0.32216 0.0
H1295 H 0.57748 0.14711 0.38326 0.0
H1296 H 0.59916 0.08265 0.38028 0.0
C1297 C 0.62806 0.07874 0.51115 0.0
C1298 C 0.58468 0.10877 0.47402 0.0
C1299 C 0.6368 0.07243 0.54494 0.0
C1300 C 0.56539 0.14303 0.32796 0.0
C1301 C 0.57209 0.136 0.36292 0.0
C1302 C 0.59484 0.09002 0.40627 0.0
C1303 C 0.60709 0.08395 0.50918 0.0
C1304 C 0.59808 0.09177 0.47383 0.0
C1305 C 0.57273 0.11479 0.37078 0.0
C1306 C 0.58143 0.10701 0.4064 0.0
H1307 H 0.59383 0.07481 0.5996 0.0
H1308 H 0.57863 0.08565 0.54057 0.0
H1309 H 0.61326 0.06932 0.43856 0.0
H1310 H 0.5542 0.09653 0.28848 0.0
H1311 H 0.56562 0.08445 0.3492 0.0
C1312 C 0.37212 0.01745 0.27124 0.0
C1313 C 0.37866 0.00291 0.2979 0.0
C1314 C 0.38513 0.03338 0.26004 0.0
C1315 C 0.43128 0.06304 0.28385 0.0
H1316 H 0.43947 0.06584 0.17645 0.0
C1317 C 0.48321 0.12424 0.21749 0.0
C1318 C 0.49884 0.11642 0.19427 0.0
C1319 C 0.46659 0.11194 0.2279 0.0
C1320 C 0.43728 0.06524 0.20645 0.0
H1321 H 0.40339 0.99481 0.33593 0.0
H1322 H 0.42597 0.02298 0.31677 0.0
H1323 H 0.41396 0.04206 0.20232 0.0
H1324 H 0.50833 0.09004 0.16135 0.0
H1325 H 0.47896 0.06861 0.17919 0.0
H1326 H 0.45474 0.08606 0.28802 0.0
C1327 C 0.41083 0.02179 0.30428 0.0
C1328 C 0.42261 0.05179 0.22124 0.0
C1329 C 0.39789 0.00567 0.31525 0.0
C1330 C 0.49661 0.09652 0.17936 0.0
C1331 C 0.47981 0.08425 0.18958 0.0
C1332 C 0.44574 0.07669 0.26903 0.0
C1333 C 0.40484 0.03532 0.27561 0.0
C1334 C 0.41959 0.05045 0.2601 0.0
C1335 C 0.46506 0.09163 0.215 0.0
C1336 C 0.44899 0.07781 0.23021 0.0
H1337 H 0.35735 0.01594 0.25746 0.0
H1338 H 0.38 0.04383 0.23835 0.0
H1339 H 0.42922 0.06232 0.31387 0.0
H1340 H 0.48427 0.13958 0.22916 0.0
H1341 H 0.45522 0.11813 0.24697 0.0
C1342 C 0.48118 0.37402 0.77617 0.0
C1343 C 0.49699 0.38043 0.80045 0.0
C1344 C 0.46527 0.38741 0.76648 0.0
C1345 C 0.44612 0.42467 0.72843 0.0
H1346 H 0.4161 0.45916 0.79795 0.0
C1347 C 0.40096 0.4981 0.68619 0.0
C1348 C 0.38165 0.50102 0.7031 0.0
C1349 C 0.41358 0.48171 0.69704 0.0
C1350 C 0.42427 0.44951 0.77824 0.0
H1351 H 0.50751 0.40544 0.83581 0.0
H1352 H 0.47942 0.42874 0.81921 0.0
H1353 H 0.44034 0.43349 0.8218 0.0
H1354 H 0.36008 0.48832 0.74339 0.0
H1355 H 0.38217 0.45992 0.76232 0.0
H1356 H 0.43037 0.44095 0.68485 0.0
C1357 C 0.47956 0.41338 0.80745 0.0
C1358 C 0.43822 0.43496 0.79189 0.0
C1359 C 0.49565 0.40003 0.81693 0.0
C1360 C 0.37488 0.48663 0.72983 0.0
C1361 C 0.38757 0.47042 0.74093 0.0
C1362 C 0.43239 0.43941 0.71478 0.0
C1363 C 0.46463 0.40741 0.78117 0.0
C1364 C 0.44928 0.4224 0.7671 0.0
C1365 C 0.4072 0.46804 0.72523 0.0
C1366 C 0.42134 0.45198 0.73955 0.0
H1367 H 0.48158 0.35898 0.76316 0.0
H1368 H 0.45374 0.3823 0.74665 0.0
H1369 H 0.45463 0.41535 0.70867 0.0
H1370 H 0.40662 0.50887 0.66548 0.0
H1371 H 0.42867 0.48023 0.68451 0.0
C1372 C 0.00135 0.39968 0.18386 0.0
C1373 C 0.99903 0.38026 0.20068 0.0
C1374 C 0.01716 0.4129 0.19511 0.0
C1375 C 0.06587 0.41602 0.24954 0.0
H1376 H 0.04848 0.4725 0.26443 0.0
C1377 C 0.09495 0.4982 0.31943 0.0
C1378 C 0.11494 0.49912 0.30453 0.0
C1379 C 0.08179 0.48194 0.3101 0.0
C1380 C 0.05353 0.45674 0.26096 0.0
H1381 H 0.01251 0.35895 0.24054 0.0
H1382 H 0.03983 0.38204 0.26033 0.0
H1383 H 0.02449 0.44771 0.23828 0.0
H1384 H 0.13729 0.48279 0.27056 0.0
H1385 H 0.11435 0.45473 0.25404 0.0
H1386 H 0.09482 0.42504 0.27304 0.0
C1387 C 0.0295 0.38707 0.23839 0.0
C1388 C 0.03988 0.44258 0.24526 0.0
C1389 C 0.01375 0.37383 0.22707 0.0
C1390 C 0.12194 0.48267 0.28235 0.0
C1391 C 0.10879 0.46648 0.27297 0.0
C1392 C 0.07955 0.4302 0.26533 0.0
C1393 C 0.03098 0.40701 0.22344 0.0
C1394 C 0.04589 0.42207 0.23917 0.0
C1395 C 0.08835 0.46627 0.28571 0.0
C1396 C 0.07355 0.45075 0.27114 0.0
H1397 H 0.99042 0.40507 0.16319 0.0
H1398 H 0.01819 0.42798 0.18234 0.0
H1399 H 0.07102 0.40036 0.24512 0.0
H1400 H 0.0891 0.5105 0.33685 0.0
H1401 H 0.06627 0.48199 0.32109 0.0
C1402 C 0.1282 0.01658 0.72523 0.0
C1403 C 0.12099 0.0014 0.70039 0.0
C1404 C 0.11556 0.0329 0.73576 0.0
C1405 C 0.06967 0.06264 0.71245 0.0
H1406 H 0.06229 0.06671 0.81993 0.0
C1407 C 0.0052 0.09777 0.81576 0.0
C1408 C 0.00353 0.11775 0.80097 0.0
C1409 C 0.02181 0.0852 0.80591 0.0
C1410 C 0.06429 0.06577 0.78992 0.0
H1411 H 0.0955 0.9925 0.66467 0.0
H1412 H 0.07355 0.02141 0.68263 0.0
H1413 H 0.08726 0.04227 0.79435 0.0
H1414 H 0.01887 0.14074 0.76669 0.0
H1415 H 0.04756 0.11871 0.74938 0.0
H1416 H 0.04661 0.08603 0.708 0.0
C1417 C 0.08891 0.02039 0.69424 0.0
C1418 C 0.07862 0.05194 0.7753 0.0
C1419 C 0.10148 0.00386 0.68399 0.0
C1420 C 0.01951 0.12535 0.77828 0.0
C1421 C 0.03592 0.11274 0.76817 0.0
C1422 C 0.05558 0.0767 0.72709 0.0
C1423 C 0.0956 0.03459 0.72124 0.0
C1424 C 0.08129 0.05013 0.73644 0.0
C1425 C 0.03688 0.09238 0.78095 0.0
C1426 C 0.05265 0.07825 0.76592 0.0
H1427 H 0.14321 0.01531 0.73819 0.0
H1428 H 0.12116 0.04387 0.75618 0.0
H1429 H 0.07149 0.06151 0.68243 0.0
H1430 H 0.99322 0.09148 0.83341 0.0
H1431 H 0.02227 0.06952 0.81616 0.0
C1432 C 0.6012 0.9946 0.67038 0.0
C1433 C 0.61879 0.99715 0.69276 0.0
C1434 C 0.58755 0.97836 0.67711 0.0
C1435 C 0.55407 0.95484 0.71677 0.0
H1436 H 0.56988 0.90216 0.75887 0.0
C1437 C 0.4952 0.90572 0.7948 0.0
C1438 C 0.49529 0.88437 0.78879 0.0
C1439 C 0.51148 0.91791 0.78234 0.0
C1440 C 0.56518 0.91671 0.74682 0.0
H1441 H 0.63648 0.98381 0.73822 0.0
H1442 H 0.61252 0.95606 0.75059 0.0
H1443 H 0.59622 0.925 0.73357 0.0
H1444 H 0.51291 0.85891 0.76629 0.0
H1445 H 0.54126 0.88029 0.74375 0.0
H1446 H 0.52306 0.94645 0.72908 0.0
C1447 C 0.60932 0.96631 0.72744 0.0
C1448 C 0.58031 0.92991 0.73262 0.0
C1449 C 0.62306 0.98237 0.72045 0.0
C1450 C 0.51247 0.87532 0.77151 0.0
C1451 C 0.52871 0.88759 0.75858 0.0
C1452 C 0.53898 0.94161 0.73062 0.0
C1453 C 0.59106 0.96444 0.70662 0.0
C1454 C 0.57498 0.94932 0.71797 0.0
C1455 C 0.52814 0.90911 0.76303 0.0
C1456 C 0.54434 0.92256 0.74654 0.0
H1457 H 0.59758 0.00555 0.64852 0.0
H1458 H 0.57392 0.9771 0.65985 0.0
H1459 H 0.54931 0.96972 0.70623 0.0
H1460 H 0.48228 0.9131 0.80844 0.0
H1461 H 0.5108 0.93433 0.78732 0.0
C1462 C 0.61789 0.51109 0.27182 0.0
C1463 C 0.61188 0.4956 0.29711 0.0
C1464 C 0.60394 0.52604 0.26009 0.0
C1465 C 0.55681 0.55323 0.28231 0.0
H1466 H 0.55046 0.55818 0.1747 0.0
C1467 C 0.51263 0.6199 0.21511 0.0
C1468 C 0.4962 0.6141 0.19172 0.0
C1469 C 0.52742 0.60558 0.226 0.0
C1470 C 0.55207 0.5569 0.20475 0.0
H1471 H 0.58683 0.48469 0.33196 0.0
H1472 H 0.56253 0.51139 0.31208 0.0
H1473 H 0.57488 0.53319 0.20059 0.0
H1474 H 0.48347 0.58904 0.15895 0.0
H1475 H 0.50988 0.56406 0.17733 0.0
H1476 H 0.53429 0.5772 0.28647 0.0
C1477 C 0.57803 0.51156 0.30099 0.0
C1478 C 0.56607 0.54274 0.21955 0.0
C1479 C 0.59195 0.49634 0.31241 0.0
C1480 C 0.49588 0.59402 0.17705 0.0
C1481 C 0.51092 0.5797 0.18764 0.0
C1482 C 0.54309 0.56765 0.2675 0.0
C1483 C 0.58375 0.52611 0.27382 0.0
C1484 C 0.56859 0.54083 0.25845 0.0
C1485 C 0.52635 0.58522 0.21329 0.0
C1486 C 0.54066 0.56965 0.2286 0.0
H1487 H 0.63315 0.51117 0.25962 0.0
H1488 H 0.60881 0.53733 0.23963 0.0
H1489 H 0.55851 0.55206 0.31236 0.0
H1490 H 0.51354 0.63528 0.22667 0.0
H1491 H 0.53941 0.61029 0.24525 0.0
C1492 C 0.90571 0.49421 0.69139 0.0
C1493 C 0.88435 0.4969 0.69478 0.0
C1494 C 0.91924 0.50969 0.70274 0.0
C1495 C 0.92066 0.55556 0.76492 0.0
H1496 H 0.97555 0.56098 0.72369 0.0
C1497 C 0.98159 0.61944 0.79844 0.0
C1498 C 0.00123 0.61192 0.80772 0.0
C1499 C 0.96596 0.60593 0.78745 0.0
C1500 C 0.96027 0.55952 0.73553 0.0
H1501 H 0.86038 0.51853 0.70988 0.0
H1502 H 0.88395 0.54601 0.72779 0.0
H1503 H 0.9509 0.53809 0.69367 0.0
H1504 H 0.01957 0.58426 0.81469 0.0
H1505 H 0.99235 0.56077 0.79469 0.0
H1506 H 0.93013 0.57776 0.80598 0.0
C1507 C 0.89033 0.53161 0.71793 0.0
C1508 C 0.94614 0.54635 0.71846 0.0
C1509 C 0.87679 0.51596 0.70721 0.0
C1510 C 0.00457 0.59054 0.80797 0.0
C1511 C 0.98909 0.5771 0.79624 0.0
C1512 C 0.93471 0.56909 0.7815 0.0
C1513 C 0.91175 0.52843 0.7171 0.0
C1514 C 0.92622 0.5439 0.73325 0.0
C1515 C 0.96988 0.58475 0.7849 0.0
C1516 C 0.95472 0.57088 0.76728 0.0
H1517 H 0.91206 0.47965 0.68227 0.0
H1518 H 0.93556 0.50644 0.70204 0.0
H1519 H 0.90564 0.55388 0.77764 0.0
H1520 H 0.97861 0.63584 0.79796 0.0
H1521 H 0.95123 0.61213 0.77882 0.0
C1522 C 0.87923 0.98591 0.28945 0.0
C1523 C 0.88774 0.00538 0.29717 0.0
C1524 C 0.89203 0.96901 0.28214 0.0
C1525 C 0.94605 0.95107 0.29214 0.0
H1526 H 0.93472 0.9181 0.2041 0.0
C1527 C 0.00992 0.90878 0.2158 0.0
C1528 C 0.00712 0.88779 0.20758 0.0
C1529 C 0.99349 0.92084 0.22777 0.0
C1530 C 0.93791 0.92699 0.22905 0.0
H1531 H 0.91636 0.02209 0.30467 0.0
H1532 H 0.93847 0.9929 0.29194 0.0
H1533 H 0.90917 0.94315 0.22584 0.0
H1534 H 0.98444 0.86337 0.20355 0.0
H1535 H 0.95544 0.88482 0.22405 0.0
H1536 H 0.97504 0.93558 0.29455 0.0
C1537 C 0.92197 0.99054 0.2917 0.0
C1538 C 0.92328 0.94128 0.24159 0.0
C1539 C 0.90926 0.00736 0.29877 0.0
C1540 C 0.98715 0.87946 0.20974 0.0
C1541 C 0.97056 0.89169 0.2215 0.0
C1542 C 0.96063 0.93696 0.27952 0.0
C1543 C 0.91357 0.97121 0.28281 0.0
C1544 C 0.92748 0.95391 0.27266 0.0
C1545 C 0.97375 0.91236 0.23159 0.0
C1546 C 0.95698 0.92521 0.24725 0.0
H1547 H 0.86271 0.98386 0.28792 0.0
H1548 H 0.88509 0.95428 0.27567 0.0
H1549 H 0.94956 0.96019 0.31667 0.0
H1550 H 0.02499 0.91585 0.2141 0.0
H1551 H 0.99631 0.93685 0.23457 0.0
C1552 C 0.50836 0.19397 0.10295 0.0
C1553 C 0.52681 0.1991 0.12119 0.0
C1554 C 0.49961 0.20766 0.07707 0.0
C1555 C 0.50074 0.26186 0.0455 0.0
H1556 H 0.50011 0.24019 0.94454 0.0
C1557 C 0.53292 0.30505 0.92268 0.0
C1558 C 0.52402 0.30381 0.88705 0.0
C1559 C 0.52457 0.29421 0.95256 0.0
C1560 C 0.49954 0.24646 0.97257 0.0
H1561 H 0.5499 0.22279 0.12875 0.0
H1562 H 0.53448 0.24673 0.08465 0.0
H1563 H 0.50082 0.2165 0.99764 0.0
H1564 H 0.49901 0.29084 0.8547 0.0
H1565 H 0.4846 0.27103 0.90735 0.0
H1566 H 0.50102 0.29178 0.02051 0.0
C1567 C 0.52679 0.23221 0.08986 0.0
C1568 C 0.49996 0.23289 0.00298 0.0
C1569 C 0.53572 0.21845 0.11485 0.0
C1570 C 0.50609 0.29204 0.88203 0.0
C1571 C 0.49791 0.28073 0.91201 0.0
C1572 C 0.50027 0.27538 0.01521 0.0
C1573 C 0.50891 0.22683 0.07008 0.0
C1574 C 0.50179 0.24052 0.03958 0.0
C1575 C 0.50726 0.28157 0.94747 0.0
C1576 C 0.50092 0.2678 0.97845 0.0
H1577 H 0.50129 0.17907 0.10738 0.0
H1578 H 0.48587 0.20313 0.06201 0.0
H1579 H 0.50186 0.26811 0.07349 0.0
H1580 H 0.54669 0.31412 0.92731 0.0
H1581 H 0.53234 0.29493 0.97932 0.0
C1582 C 0.19295 0.50789 0.39854 0.0
C1583 C 0.19854 0.5255 0.37815 0.0
C1584 C 0.20675 0.4993 0.42441 0.0
C1585 C 0.26155 0.49874 0.45229 0.0
H1586 H 0.24207 0.5024 0.55447 0.0
C1587 C 0.30904 0.5322 0.56885 0.0
C1588 C 0.3074 0.52506 0.6057 0.0
C1589 C 0.29746 0.52329 0.54042 0.0
C1590 C 0.24771 0.50063 0.52617 0.0
H1591 H 0.22305 0.54721 0.36677 0.0
H1592 H 0.24716 0.53203 0.41084 0.0
H1593 H 0.21734 0.50265 0.50301 0.0
H1594 H 0.29304 0.50246 0.64176 0.0
H1595 H 0.27209 0.48704 0.59168 0.0
H1596 H 0.29197 0.49819 0.47521 0.0
C1597 C 0.23222 0.52488 0.40734 0.0
C1598 C 0.23353 0.50078 0.49669 0.0
C1599 C 0.21836 0.53369 0.38237 0.0
C1600 C 0.29461 0.50815 0.61344 0.0
C1601 C 0.28261 0.49941 0.58491 0.0
C1602 C 0.27568 0.49851 0.48167 0.0
C1603 C 0.22645 0.50788 0.42922 0.0
C1604 C 0.24044 0.50105 0.45949 0.0
C1605 C 0.28369 0.50717 0.54823 0.0
C1606 C 0.26896 0.5007 0.51878 0.0
H1607 H 0.17767 0.50141 0.39574 0.0
H1608 H 0.20193 0.48626 0.44113 0.0
H1609 H 0.26724 0.49865 0.42383 0.0
H1610 H 0.31887 0.54518 0.56218 0.0
H1611 H 0.29844 0.52987 0.51265 0.0
C1612 C 0.96515 0.30465 0.07615 0.0
C1613 C 0.97255 0.30354 0.11291 0.0
C1614 C 0.9745 0.29344 0.04778 0.0
C1615 C 0.99906 0.2452 0.03187 0.0
H1616 H 0.00205 0.2668 0.93094 0.0
C1617 C 0.99335 0.19322 0.90024 0.0
C1618 C 0.9757 0.19909 0.88022 0.0
C1619 C 0.00175 0.20648 0.92721 0.0
C1620 C 0.00173 0.26054 0.95901 0.0
H1621 H 0.9959 0.29036 0.14889 0.0
H1622 H 0.01202 0.26985 0.09886 0.0
H1623 H 0.00143 0.29048 0.98387 0.0
H1624 H 0.9537 0.22356 0.87068 0.0
H1625 H 0.96854 0.24677 0.91666 0.0
H1626 H 0.9977 0.21528 0.00669 0.0
C1627 C 0.99913 0.27976 0.09218 0.0
C1628 C 0.00136 0.27407 0.98926 0.0
C1629 C 0.98997 0.29145 0.12067 0.0
C1630 C 0.96726 0.21868 0.88595 0.0
C1631 C 0.97588 0.23202 0.91202 0.0
C1632 C 0.99947 0.23162 0.00151 0.0
C1633 C 0.99133 0.28056 0.05553 0.0
C1634 C 0.99874 0.26656 0.02577 0.0
C1635 C 0.99292 0.22593 0.93348 0.0
C1636 C 0.99954 0.23928 0.96478 0.0
H1637 H 0.95183 0.31398 0.06941 0.0
H1638 H 0.96791 0.29412 0.01998 0.0
H1639 H 0.99698 0.239 0.05973 0.0
H1640 H 3e-05 0.17811 0.89626 0.0
H1641 H 0.01481 0.20142 0.94361 0.0
C1642 C 0.2771 0.96312 0.38003 0.0
C1643 C 0.29593 0.97275 0.37237 0.0
C1644 C 0.26355 0.97156 0.40592 0.0
C1645 C 0.26382 0.9982 0.49282 0.0
H1646 H 0.20469 0.99473 0.47952 0.0
C1647 C 0.20678 0.98971 0.61714 0.0
C1648 C 0.19585 0.9712 0.61284 0.0
C1649 C 0.21747 0.99821 0.58672 0.0
C1650 C 0.22114 0.99618 0.48363 0.0
H1651 H 0.31528 0.99902 0.3848 0.0
H1652 H 0.29164 0.01356 0.43173 0.0
H1653 H 0.22715 0.99514 0.42486 0.0
H1654 H 0.18645 0.94771 0.57336 0.0
H1655 H 0.2046 0.96259 0.52062 0.0
H1656 H 0.25783 0.99751 0.55175 0.0
C1657 C 0.28731 0.99966 0.41698 0.0
C1658 C 0.23397 0.99642 0.4524 0.0
C1659 C 0.30075 0.99141 0.39021 0.0
C1660 C 0.19494 0.96189 0.57752 0.0
C1661 C 0.20514 0.97054 0.54721 0.0
C1662 C 0.25094 0.99794 0.52418 0.0
C1663 C 0.26868 0.98964 0.4253 0.0
C1664 C 0.25544 0.99621 0.45678 0.0
C1665 C 0.21678 0.98859 0.55152 0.0
C1666 C 0.22957 0.99569 0.51978 0.0
H1667 H 0.27301 0.94876 0.36652 0.0
H1668 H 0.24947 0.96331 0.41217 0.0
H1669 H 0.28033 0.99797 0.49697 0.0
H1670 H 0.20768 0.99715 0.64418 0.0
H1671 H 0.22645 0.01208 0.59074 0.0
C1672 C 0.46842 0.71927 0.11313 0.0
C1673 C 0.47335 0.69835 0.11662 0.0
C1674 C 0.47718 0.73111 0.08479 0.0
C1675 C 0.49068 0.72795 0.9899 0.0
H1676 H 0.51396 0.78229 0.00465 0.0
C1677 C 0.487 0.7874 0.87165 0.0
C1678 C 0.47867 0.80618 0.8839 0.0
C1679 C 0.49516 0.77338 0.89757 0.0
C1680 C 0.50752 0.76714 -9e-05 0.0
H1681 H 0.49145 0.67333 0.09397 0.0
H1682 H 0.5062 0.69403 0.04278 0.0
H1683 H 0.51119 0.75865 0.05748 0.0
H1684 H 0.47419 0.82586 0.93211 0.0
H1685 H 0.48789 0.80166 0.97686 0.0
H1686 H 0.48503 0.73695 0.9334 0.0
C1687 C 0.49597 0.70128 0.06272 0.0
C1688 C 0.50612 0.75358 0.03014 0.0
C1689 C 0.48762 0.68952 0.0919 0.0
C1690 C 0.48033 0.81142 0.92185 0.0
C1691 C 0.48842 0.79752 0.94758 0.0
C1692 C 0.49171 0.74165 0.95978 0.0
C1693 C 0.49063 0.72212 0.05878 0.0
C1694 C 0.49695 0.7342 0.02567 0.0
C1695 C 0.49518 0.77795 0.9361 0.0
C1696 C 0.49924 0.76179 0.96484 0.0
H1697 H 0.4574 0.72635 0.13188 0.0
H1698 H 0.47263 0.74708 0.08202 0.0
H1699 H 0.48342 0.71311 0.98588 0.0
H1700 H 0.48595 0.78296 0.84254 0.0
H1701 H 0.50054 0.75859 0.88764 0.0
C1702 C 0.79125 0.49033 0.6177 0.0
C1703 C 0.80399 0.47326 0.61103 0.0
C1704 C 0.77902 0.49836 0.58878 0.0
C1705 C 0.77262 0.49874 0.48605 0.0
H1706 H 0.71405 0.49374 0.50462 0.0
C1707 C 0.71722 0.46692 0.37925 0.0
C1708 C 0.69679 0.47375 0.37708 0.0
C1709 C 0.73068 0.47527 0.40543 0.0
C1710 C 0.7303 0.49585 0.49904 0.0
H1711 H 0.81496 0.45195 0.56904 0.0
H1712 H 0.79428 0.46624 0.51862 0.0
H1713 H 0.73812 0.4935 0.55714 0.0
H1714 H 0.67446 0.49513 0.39943 0.0
H1715 H 0.69812 0.50965 0.44644 0.0
H1716 H 0.76497 0.49983 0.42791 0.0
C1717 C 0.79348 0.47338 0.54594 0.0
C1718 C 0.74409 0.49569 0.52915 0.0
C1719 C 0.80522 0.46511 0.57483 0.0
C1720 C 0.69022 0.48976 0.40053 0.0
C1721 C 0.70369 0.49794 0.42744 0.0
C1722 C 0.75887 0.499 0.45605 0.0
C1723 C 0.7799 0.48977 0.55271 0.0
C1724 C 0.76542 0.49603 0.52273 0.0
C1725 C 0.72398 0.49049 0.43053 0.0
C1726 C 0.73765 0.4964 0.46209 0.0
H1727 H 0.78997 0.49674 0.64554 0.0
H1728 H 0.7686 0.51095 0.59472 0.0
H1729 H 0.78898 0.4993 0.48038 0.0
H1730 H 0.72262 0.45458 0.3614 0.0
H1731 H 0.74605 0.46891 0.40737 0.0
C1732 C 0.02977 0.71797 0.88325 0.0
C1733 C 0.0243 0.69711 0.88223 0.0
C1734 C 0.02153 0.73097 0.91034 0.0
C1735 C 0.00685 0.73046 0.00607 0.0
H1736 H 0.99061 0.78682 0.98601 0.0
C1737 C 0.01264 0.79181 0.12119 0.0
C1738 C 0.02383 0.80914 0.10927 0.0
C1739 C 0.00424 0.77815 0.09496 0.0
C1740 C 0.99502 0.77111 0.99219 0.0
H1741 H 0.00565 0.67339 0.90783 0.0
H1742 H 0.99169 0.69616 0.95676 0.0
H1743 H 0.99161 0.76189 0.93501 0.0
H1744 H 0.03339 0.82669 0.06073 0.0
H1745 H 0.01909 0.80305 0.01542 0.0
H1746 H 0.01202 0.73996 0.0625 0.0
C1747 C 0.00203 0.70246 0.93596 0.0
C1748 C 0.99545 0.75683 0.96302 0.0
C1749 C 0.00993 0.6895 0.90807 0.0
C1750 C 0.02502 0.81338 0.07084 0.0
C1751 C 0.0166 0.79986 0.04477 0.0
C1752 C 0.00666 0.74481 0.03522 0.0
C1753 C 0.00798 0.72326 0.93753 0.0
C1754 C 0.00224 0.73662 0.9694 0.0
C1755 C 0.00673 0.78168 0.05639 0.0
C1756 C 0.0017 0.76555 0.02823 0.0
H1757 H 0.04084 0.72414 0.86353 0.0
H1758 H 0.02661 0.74685 0.9112 0.0
H1759 H 0.01226 0.71499 0.01169 0.0
H1760 H 0.01143 0.78815 0.15064 0.0
H1761 H 0.9965 0.76443 0.10486 0.0
C1762 C 0.79189 0.01125 0.37571 0.0
C1763 C 0.8093 0.02241 0.38725 0.0
C1764 C 0.77866 0.00248 0.40228 0.0
C1765 C 0.77301 0.9927 0.5053 0.0
H1766 H 0.71668 0.01002 0.48835 0.0
C1767 C 0.72136 0.02904 0.61494 0.0
C1768 C 0.70068 0.0231 0.6177 0.0
C1769 C 0.73402 0.02045 0.58767 0.0
C1770 C 0.73221 0.00458 0.49325 0.0
H1771 H 0.82751 0.03153 0.43525 0.0
H1772 H 0.80461 0.01667 0.48113 0.0
H1773 H 0.7409 0.00967 0.4364 0.0
H1774 H 0.67694 0.00337 0.59501 0.0
H1775 H 0.69907 0.98885 0.54567 0.0
H1776 H 0.76462 0.98955 0.56296 0.0
C1777 C 0.80101 0.01444 0.45187 0.0
C1778 C 0.74613 0.00432 0.46344 0.0
C1779 C 0.8141 0.0232 0.42548 0.0
C1780 C 0.69293 0.00798 0.59346 0.0
C1781 C 0.70552 0.99976 0.56534 0.0
C1782 C 0.75917 0.99327 0.53515 0.0
C1783 C 0.78271 0.00461 0.44077 0.0
C1784 C 0.76696 0.99938 0.4695 0.0
C1785 C 0.72611 0.00614 0.56201 0.0
C1786 C 0.73891 9e-05 0.52964 0.0
H1787 H 0.78782 0.01035 0.3464 0.0
H1788 H 0.76484 0.99479 0.39274 0.0
H1789 H 0.78879 0.98829 0.51079 0.0
H1790 H 0.7276 0.04073 0.63335 0.0
H1791 H 0.74975 0.02585 0.58536 0.0
loop_
_geom_bond_atom_site_label_1
_geom_bond_atom_site_label_2
_geom_bond_distance
_geom_bond_site_symmetry_2
_ccdc_geom_bond_type
Fe0 O2 1.918 . S
Fe0 O5 1.997 . S
Fe0 O6 2.002 . S
Fe0 O11 1.976 . S
Fe0 O14 1.996 . S
Fe1 O2 1.918 . S
Fe1 O9 1.997 . S
Fe1 O12 1.996 . S
Fe1 O16 1.976 . S
Fe1 O19 2.002 . S
O2 Fe0 1.918 . S
O2 Fe1 1.918 . S
O2 Fe3 1.918 . S
Fe3 O2 1.918 . S
Fe3 O4 2.002 . S
Fe3 O13 1.976 . S
Fe3 O17 1.996 . S
Fe3 O20 1.997 . S
O4 Fe3 2.002 . S
O4 C21 1.295 . S
O5 Fe0 1.997 . S
O5 C21 1.235 . S
O6 Fe0 2.002 . S
O6 C7 1.295 . S
C7 O6 1.295 . S
C7 O9 1.235 . S
C8 O13 1.287 . S
C8 O14 1.255 . S
O9 Fe1 1.997 . S
O9 C7 1.235 . S
C10 O16 1.287 . S
C10 O17 1.255 . S
O11 Fe0 1.976 . S
O11 C18 1.287 . S
O12 Fe1 1.996 . S
O12 C18 1.255 . S
O13 Fe3 1.976 . S
O13 C8 1.287 . S
O14 Fe0 1.996 . S
O14 C8 1.255 . S
C15 O19 1.295 . S
C15 O20 1.235 . S
O16 Fe1 1.976 . S
O16 C10 1.287 . S
O17 Fe3 1.996 . S
O17 C10 1.255 . S
C18 O11 1.287 . S
C18 O12 1.255 . S
O19 Fe1 2.002 . S
O19 C15 1.295 . S
O20 Fe3 1.997 . S
O20 C15 1.235 . S
C21 O4 1.295 . S
C21 O5 1.235 . S
Fe22 O24 1.918 . S
Fe22 O27 1.997 . S
Fe22 O28 2.002 . S
Fe22 O33 1.976 . S
Fe22 O36 1.996 . S
Fe23 O24 1.918 . S
Fe23 O31 1.997 . S
Fe23 O34 1.996 . S
Fe23 O38 1.976 . S
Fe23 O41 2.002 . S
O24 Fe22 1.918 . S
O24 Fe23 1.918 . S
O24 Fe25 1.918 . S
Fe25 O24 1.918 . S
Fe25 O26 2.002 . S
Fe25 O35 1.976 . S
Fe25 O39 1.996 . S
Fe25 O42 1.997 . S
O26 Fe25 2.002 . S
O26 C43 1.295 . S
O27 Fe22 1.997 . S
O27 C43 1.235 . S
O28 Fe22 2.002 . S
O28 C29 1.295 . S
C29 O28 1.295 . S
C29 O31 1.235 . S
C30 O35 1.287 . S
C30 O36 1.255 . S
O31 Fe23 1.997 . S
O31 C29 1.235 . S
C32 O38 1.287 . S
C32 O39 1.255 . S
O33 Fe22 1.976 . S
O33 C40 1.287 . S
O34 Fe23 1.996 . S
O34 C40 1.255 . S
O35 Fe25 1.976 . S
O35 C30 1.287 . S
O36 Fe22 1.996 . S
O36 C30 1.255 . S
C37 O41 1.295 . S
C37 O42 1.235 . S
O38 Fe23 1.976 . S
O38 C32 1.287 . S
O39 Fe25 1.996 . S
O39 C32 1.255 . S
C40 O33 1.287 . S
C40 O34 1.255 . S
O41 Fe23 2.002 . S
O41 C37 1.295 . S
O42 Fe25 1.997 . S
O42 C37 1.235 . S
C43 O26 1.295 . S
C43 O27 1.235 . S
Fe44 O46 1.918 . S
Fe44 O49 1.997 . S
Fe44 O50 2.002 . S
Fe44 O55 1.976 . S
Fe44 O58 1.996 . S
Fe45 O46 1.918 . S
Fe45 O53 1.997 . S
Fe45 O56 1.996 . S
Fe45 O60 1.976 . S
Fe45 O63 2.002 . S
O46 Fe44 1.918 . S
O46 Fe45 1.918 . S
O46 Fe47 1.918 . S
Fe47 O46 1.918 . S
Fe47 O48 2.002 . S
Fe47 O57 1.976 . S
Fe47 O61 1.996 . S
Fe47 O64 1.997 . S
O48 Fe47 2.002 . S
O48 C65 1.295 . S
O49 Fe44 1.997 . S
O49 C65 1.235 . S
O50 Fe44 2.002 . S
O50 C51 1.295 . S
C51 O50 1.295 . S
C51 O53 1.235 . S
C52 O57 1.287 . S
C52 O58 1.255 . S
O53 Fe45 1.997 . S
O53 C51 1.235 . S
C54 O60 1.287 . S
C54 O61 1.255 . S
O55 Fe44 1.976 . S
O55 C62 1.287 . S
O56 Fe45 1.996 . S
O56 C62 1.255 . S
O57 Fe47 1.976 . S
O57 C52 1.287 . S
O58 Fe44 1.996 . S
O58 C52 1.255 . S
C59 O63 1.295 . S
C59 O64 1.235 . S
O60 Fe45 1.976 . S
O60 C54 1.287 . S
O61 Fe47 1.996 . S
O61 C54 1.255 . S
C62 O55 1.287 . S
C62 O56 1.255 . S
O63 Fe45 2.002 . S
O63 C59 1.295 . S
O64 Fe47 1.997 . S
O64 C59 1.235 . S
C65 O48 1.295 . S
C65 O49 1.235 . S
Fe66 O68 1.918 . S
Fe66 O71 1.997 . S
Fe66 O72 2.002 . S
Fe66 O77 1.976 . S
Fe66 O80 1.996 . S
Fe67 O68 1.918 . S
Fe67 O75 1.997 . S
Fe67 O78 1.996 . S
Fe67 O82 1.976 . S
Fe67 O85 2.002 . S
O68 Fe66 1.918 . S
O68 Fe67 1.918 . S
O68 Fe69 1.918 . S
Fe69 O68 1.918 . S
Fe69 O70 2.002 . S
Fe69 O79 1.976 . S
Fe69 O83 1.996 . S
Fe69 O86 1.997 . S
O70 Fe69 2.002 . S
O70 C87 1.295 . S
O71 Fe66 1.997 . S
O71 C87 1.235 . S
O72 Fe66 2.002 . S
O72 C73 1.295 . S
C73 O72 1.295 . S
C73 O75 1.235 . S
C74 O79 1.287 . S
C74 O80 1.255 . S
O75 Fe67 1.997 . S
O75 C73 1.235 . S
C76 O82 1.287 . S
C76 O83 1.255 . S
O77 Fe66 1.976 . S
O77 C84 1.287 . S
O78 Fe67 1.996 . S
O78 C84 1.255 . S
O79 Fe69 1.976 . S
O79 C74 1.287 . S
O80 Fe66 1.996 . S
O80 C74 1.255 . S
C81 O85 1.295 . S
C81 O86 1.235 . S
O82 Fe67 1.976 . S
O82 C76 1.287 . S
O83 Fe69 1.996 . S
O83 C76 1.255 . S
C84 O77 1.287 . S
C84 O78 1.255 . S
O85 Fe67 2.002 . S
O85 C81 1.295 . S
O86 Fe69 1.997 . S
O86 C81 1.235 . S
C87 O70 1.295 . S
C87 O71 1.235 . S
Fe88 O90 1.918 . S
Fe88 O93 1.997 . S
Fe88 O94 2.002 . S
Fe88 O99 1.976 . S
Fe88 O102 1.996 . S
Fe89 O90 1.918 . S
Fe89 O97 1.997 . S
Fe89 O100 1.996 . S
Fe89 O104 1.976 . S
Fe89 O107 2.002 . S
O90 Fe88 1.918 . S
O90 Fe89 1.918 . S
O90 Fe91 1.918 . S
Fe91 O90 1.918 . S
Fe91 O92 2.002 . S
Fe91 O101 1.976 . S
Fe91 O105 1.996 . S
Fe91 O108 1.997 . S
O92 Fe91 2.002 . S
O92 C109 1.295 . S
O93 Fe88 1.997 . S
O93 C109 1.235 . S
O94 Fe88 2.002 . S
O94 C95 1.295 . S
C95 O94 1.295 . S
C95 O97 1.235 . S
C96 O101 1.287 . S
C96 O102 1.255 . S
O97 Fe89 1.997 . S
O97 C95 1.235 . S
C98 O104 1.287 . S
C98 O105 1.255 . S
O99 Fe88 1.976 . S
O99 C106 1.287 . S
O100 Fe89 1.996 . S
O100 C106 1.255 . S
O101 Fe91 1.976 . S
O101 C96 1.287 . S
O102 Fe88 1.996 . S
O102 C96 1.255 . S
C103 O107 1.295 . S
C103 O108 1.235 . S
O104 Fe89 1.976 . S
O104 C98 1.287 . S
O105 Fe91 1.996 . S
O105 C98 1.255 . S
C106 O99 1.287 . S
C106 O100 1.255 . S
O107 Fe89 2.002 . S
O107 C103 1.295 . S
O108 Fe91 1.997 . S
O108 C103 1.235 . S
C109 O92 1.295 . S
C109 O93 1.235 . S
Fe110 O112 1.918 . S
Fe110 O115 1.997 . S
Fe110 O116 2.002 . S
Fe110 O121 1.976 . S
Fe110 O124 1.996 . S
Fe111 O112 1.918 . S
Fe111 O119 1.997 . S
Fe111 O122 1.996 . S
Fe111 O126 1.976 . S
Fe111 O129 2.002 . S
O112 Fe110 1.918 . S
O112 Fe111 1.918 . S
O112 Fe113 1.918 . S
Fe113 O112 1.918 . S
Fe113 O114 2.002 . S
Fe113 O123 1.976 . S
Fe113 O127 1.996 . S
Fe113 O130 1.997 . S
O114 Fe113 2.002 . S
O114 C131 1.295 . S
O115 Fe110 1.997 . S
O115 C131 1.235 . S
O116 Fe110 2.002 . S
O116 C117 1.295 . S
C117 O116 1.295 . S
C117 O119 1.235 . S
C118 O123 1.287 . S
C118 O124 1.255 . S
O119 Fe111 1.997 . S
O119 C117 1.235 . S
C120 O126 1.287 . S
C120 O127 1.255 . S
O121 Fe110 1.976 . S
O121 C128 1.287 . S
O122 Fe111 1.996 . S
O122 C128 1.255 . S
O123 Fe113 1.976 . S
O123 C118 1.287 . S
O124 Fe110 1.996 . S
O124 C118 1.255 . S
C125 O129 1.295 . S
C125 O130 1.235 . S
O126 Fe111 1.976 . S
O126 C120 1.287 . S
O127 Fe113 1.996 . S
O127 C120 1.255 . S
C128 O121 1.287 . S
C128 O122 1.255 . S
O129 Fe111 2.002 . S
O129 C125 1.295 . S
O130 Fe113 1.997 . S
O130 C125 1.235 . S
C131 O114 1.295 . S
C131 O115 1.235 . S
Fe132 O134 1.918 . S
Fe132 O137 1.997 . S
Fe132 O138 2.002 . S
Fe132 O143 1.976 . S
Fe132 O146 1.996 . S
Fe133 O134 1.918 . S
Fe133 O141 1.997 . S
Fe133 O144 1.996 . S
Fe133 O148 1.976 . S
Fe133 O151 2.002 . S
O134 Fe132 1.918 . S
O134 Fe133 1.918 . S
O134 Fe135 1.918 . S
Fe135 O134 1.918 . S
Fe135 O136 2.002 . S
Fe135 O145 1.976 . S
Fe135 O149 1.996 . S
Fe135 O152 1.997 . S
O136 Fe135 2.002 . S
O136 C153 1.295 . S
O137 Fe132 1.997 . S
O137 C153 1.235 . S
O138 Fe132 2.002 . S
O138 C139 1.295 . S
C139 O138 1.295 . S
C139 O141 1.235 . S
C140 O145 1.287 . S
C140 O146 1.255 . S
O141 Fe133 1.997 . S
O141 C139 1.235 . S
C142 O148 1.287 . S
C142 O149 1.255 . S
O143 Fe132 1.976 . S
O143 C150 1.287 . S
O144 Fe133 1.996 . S
O144 C150 1.255 . S
O145 Fe135 1.976 . S
O145 C140 1.287 . S
O146 Fe132 1.996 . S
O146 C140 1.255 . S
C147 O151 1.295 . S
C147 O152 1.235 . S
O148 Fe133 1.976 . S
O148 C142 1.287 . S
O149 Fe135 1.996 . S
O149 C142 1.255 . S
C150 O143 1.287 . S
C150 O144 1.255 . S
O151 Fe133 2.002 . S
O151 C147 1.295 . S
O152 Fe135 1.997 . S
O152 C147 1.235 . S
C153 O136 1.295 . S
C153 O137 1.235 . S
Fe154 O156 1.918 . S
Fe154 O159 1.997 . S
Fe154 O160 2.002 . S
Fe154 O165 1.976 . S
Fe154 O168 1.996 . S
Fe155 O156 1.918 . S
Fe155 O163 1.997 . S
Fe155 O166 1.996 . S
Fe155 O170 1.976 . S
Fe155 O173 2.002 . S
O156 Fe154 1.918 . S
O156 Fe155 1.918 . S
O156 Fe157 1.918 . S
Fe157 O156 1.918 . S
Fe157 O158 2.002 . S
Fe157 O167 1.976 . S
Fe157 O171 1.996 . S
Fe157 O174 1.997 . S
O158 Fe157 2.002 . S
O158 C175 1.295 . S
O159 Fe154 1.997 . S
O159 C175 1.235 . S
O160 Fe154 2.002 . S
O160 C161 1.295 . S
C161 O160 1.295 . S
C161 O163 1.235 . S
C162 O167 1.287 . S
C162 O168 1.255 . S
O163 Fe155 1.997 . S
O163 C161 1.235 . S
C164 O170 1.287 . S
C164 O171 1.255 . S
O165 Fe154 1.976 . S
O165 C172 1.287 . S
O166 Fe155 1.996 . S
O166 C172 1.255 . S
O167 Fe157 1.976 . S
O167 C162 1.287 . S
O168 Fe154 1.996 . S
O168 C162 1.255 . S
C169 O173 1.295 . S
C169 O174 1.235 . S
O170 Fe155 1.976 . S
O170 C164 1.287 . S
O171 Fe157 1.996 . S
O171 C164 1.255 . S
C172 O165 1.287 . S
C172 O166 1.255 . S
O173 Fe155 2.002 . S
O173 C169 1.295 . S
O174 Fe157 1.997 . S
O174 C169 1.235 . S
C175 O158 1.295 . S
C175 O159 1.235 . S
Fe176 O178 1.918 . S
Fe176 O181 1.997 . S
Fe176 O182 2.002 . S
Fe176 O187 1.976 . S
Fe176 O190 1.996 . S
Fe177 O178 1.918 . S
Fe177 O185 1.997 . S
Fe177 O188 1.996 . S
Fe177 O192 1.976 . S
Fe177 O195 2.002 . S
O178 Fe176 1.918 . S
O178 Fe177 1.918 . S
O178 Fe179 1.918 . S
Fe179 O178 1.918 . S
Fe179 O180 2.002 . S
Fe179 O189 1.976 . S
Fe179 O193 1.996 . S
Fe179 O196 1.997 . S
O180 Fe179 2.002 . S
O180 C197 1.295 . S
O181 Fe176 1.997 . S
O181 C197 1.235 . S
O182 Fe176 2.002 . S
O182 C183 1.295 . S
C183 O182 1.295 . S
C183 O185 1.235 . S
C184 O189 1.287 . S
C184 O190 1.255 . S
O185 Fe177 1.997 . S
O185 C183 1.235 . S
C186 O192 1.287 . S
C186 O193 1.255 . S
O187 Fe176 1.976 . S
O187 C194 1.287 . S
O188 Fe177 1.996 . S
O188 C194 1.255 . S
O189 Fe179 1.976 . S
O189 C184 1.287 . S
O190 Fe176 1.996 . S
O190 C184 1.255 . S
C191 O195 1.295 . S
C191 O196 1.235 . S
O192 Fe177 1.976 . S
O192 C186 1.287 . S
O193 Fe179 1.996 . S
O193 C186 1.255 . S
C194 O187 1.287 . S
C194 O188 1.255 . S
O195 Fe177 2.002 . S
O195 C191 1.295 . S
O196 Fe179 1.997 . S
O196 C191 1.235 . S
C197 O180 1.295 . S
C197 O181 1.235 . S
Fe198 O200 1.918 . S
Fe198 O203 1.997 . S
Fe198 O204 2.002 . S
Fe198 O209 1.976 . S
Fe198 O212 1.996 . S
Fe199 O200 1.918 . S
Fe199 O207 1.997 . S
Fe199 O210 1.996 . S
Fe199 O214 1.976 . S
Fe199 O217 2.002 . S
O200 Fe198 1.918 . S
O200 Fe199 1.918 . S
O200 Fe201 1.918 . S
Fe201 O200 1.918 . S
Fe201 O202 2.002 . S
Fe201 O211 1.976 . S
Fe201 O215 1.996 . S
Fe201 O218 1.997 . S
O202 Fe201 2.002 . S
O202 C219 1.295 . S
O203 Fe198 1.997 . S
O203 C219 1.235 . S
O204 Fe198 2.002 . S
O204 C205 1.295 . S
C205 O204 1.295 . S
C205 O207 1.235 . S
C206 O211 1.287 . S
C206 O212 1.255 . S
O207 Fe199 1.997 . S
O207 C205 1.235 . S
C208 O214 1.287 . S
C208 O215 1.255 . S
O209 Fe198 1.976 . S
O209 C216 1.287 . S
O210 Fe199 1.996 . S
O210 C216 1.255 . S
O211 Fe201 1.976 . S
O211 C206 1.287 . S
O212 Fe198 1.996 . S
O212 C206 1.255 . S
C213 O217 1.295 . S
C213 O218 1.235 . S
O214 Fe199 1.976 . S
O214 C208 1.287 . S
O215 Fe201 1.996 . S
O215 C208 1.255 . S
C216 O209 1.287 . S
C216 O210 1.255 . S
O217 Fe199 2.002 . S
O217 C213 1.295 . S
O218 Fe201 1.997 . S
O218 C213 1.235 . S
C219 O202 1.295 . S
C219 O203 1.235 . S
Fe220 O222 1.918 . S
Fe220 O225 1.997 . S
Fe220 O226 2.002 . S
Fe220 O231 1.976 . S
Fe220 O234 1.996 . S
Fe221 O222 1.918 . S
Fe221 O229 1.997 . S
Fe221 O232 1.996 . S
Fe221 O236 1.976 . S
Fe221 O239 2.002 . S
O222 Fe220 1.918 . S
O222 Fe221 1.918 . S
O222 Fe223 1.918 . S
Fe223 O222 1.918 . S
Fe223 O224 2.002 . S
Fe223 O233 1.976 . S
Fe223 O237 1.996 . S
Fe223 O240 1.997 . S
O224 Fe223 2.002 . S
O224 C241 1.295 . S
O225 Fe220 1.997 . S
O225 C241 1.235 . S
O226 Fe220 2.002 . S
O226 C227 1.295 . S
C227 O226 1.295 . S
C227 O229 1.235 . S
C228 O233 1.287 . S
C228 O234 1.255 . S
O229 Fe221 1.997 . S
O229 C227 1.235 . S
C230 O236 1.287 . S
C230 O237 1.255 . S
O231 Fe220 1.976 . S
O231 C238 1.287 . S
O232 Fe221 1.996 . S
O232 C238 1.255 . S
O233 Fe223 1.976 . S
O233 C228 1.287 . S
O234 Fe220 1.996 . S
O234 C228 1.255 . S
C235 O239 1.295 . S
C235 O240 1.235 . S
O236 Fe221 1.976 . S
O236 C230 1.287 . S
O237 Fe223 1.996 . S
O237 C230 1.255 . S
C238 O231 1.287 . S
C238 O232 1.255 . S
O239 Fe221 2.002 . S
O239 C235 1.295 . S
O240 Fe223 1.997 . S
O240 C235 1.235 . S
C241 O224 1.295 . S
C241 O225 1.235 . S
Fe242 O244 1.918 . S
Fe242 O247 1.997 . S
Fe242 O248 2.002 . S
Fe242 O253 1.976 . S
Fe242 O256 1.996 . S
Fe243 O244 1.918 . S
Fe243 O251 1.997 . S
Fe243 O254 1.996 . S
Fe243 O258 1.976 . S
Fe243 O261 2.002 . S
O244 Fe242 1.918 . S
O244 Fe243 1.918 . S
O244 Fe245 1.918 . S
Fe245 O244 1.918 . S
Fe245 O246 2.002 . S
Fe245 O255 1.976 . S
Fe245 O259 1.996 . S
Fe245 O262 1.997 . S
O246 Fe245 2.002 . S
O246 C263 1.295 . S
O247 Fe242 1.997 . S
O247 C263 1.235 . S
O248 Fe242 2.002 . S
O248 C249 1.295 . S
C249 O248 1.295 . S
C249 O251 1.235 . S
C250 O255 1.287 . S
C250 O256 1.255 . S
O251 Fe243 1.997 . S
O251 C249 1.235 . S
C252 O258 1.287 . S
C252 O259 1.255 . S
O253 Fe242 1.976 . S
O253 C260 1.287 . S
O254 Fe243 1.996 . S
O254 C260 1.255 . S
O255 Fe245 1.976 . S
O255 C250 1.287 . S
O256 Fe242 1.996 . S
O256 C250 1.255 . S
C257 O261 1.295 . S
C257 O262 1.235 . S
O258 Fe243 1.976 . S
O258 C252 1.287 . S
O259 Fe245 1.996 . S
O259 C252 1.255 . S
C260 O253 1.287 . S
C260 O254 1.255 . S
O261 Fe243 2.002 . S
O261 C257 1.295 . S
O262 Fe245 1.997 . S
O262 C257 1.235 . S
C263 O246 1.295 . S
C263 O247 1.235 . S
Fe264 O266 1.918 . S
Fe264 O269 1.997 . S
Fe264 O270 2.002 . S
Fe264 O275 1.976 . S
Fe264 O278 1.996 . S
Fe265 O266 1.918 . S
Fe265 O273 1.997 . S
Fe265 O276 1.996 . S
Fe265 O280 1.976 . S
Fe265 O283 2.002 . S
O266 Fe264 1.918 . S
O266 Fe265 1.918 . S
O266 Fe267 1.918 . S
Fe267 O266 1.918 . S
Fe267 O268 2.002 . S
Fe267 O277 1.976 . S
Fe267 O281 1.996 . S
Fe267 O284 1.997 . S
O268 Fe267 2.002 . S
O268 C285 1.295 . S
O269 Fe264 1.997 . S
O269 C285 1.235 . S
O270 Fe264 2.002 . S
O270 C271 1.295 . S
C271 O270 1.295 . S
C271 O273 1.235 . S
C272 O277 1.287 . S
C272 O278 1.255 . S
O273 Fe265 1.997 . S
O273 C271 1.235 . S
C274 O280 1.287 . S
C274 O281 1.255 . S
O275 Fe264 1.976 . S
O275 C282 1.287 . S
O276 Fe265 1.996 . S
O276 C282 1.255 . S
O277 Fe267 1.976 . S
O277 C272 1.287 . S
O278 Fe264 1.996 . S
O278 C272 1.255 . S
C279 O283 1.295 . S
C279 O284 1.235 . S
O280 Fe265 1.976 . S
O280 C274 1.287 . S
O281 Fe267 1.996 . S
O281 C274 1.255 . S
C282 O275 1.287 . S
C282 O276 1.255 . S
O283 Fe265 2.002 . S
O283 C279 1.295 . S
O284 Fe267 1.997 . S
O284 C279 1.235 . S
C285 O268 1.295 . S
C285 O269 1.235 . S
Fe286 O288 1.918 . S
Fe286 O291 1.997 . S
Fe286 O292 2.002 . S
Fe286 O297 1.976 . S
Fe286 O300 1.996 . S
Fe287 O288 1.918 . S
Fe287 O295 1.997 . S
Fe287 O298 1.996 . S
Fe287 O302 1.976 . S
Fe287 O305 2.002 . S
O288 Fe286 1.918 . S
O288 Fe287 1.918 . S
O288 Fe289 1.918 . S
Fe289 O288 1.918 . S
Fe289 O290 2.002 . S
Fe289 O299 1.976 . S
Fe289 O303 1.996 . S
Fe289 O306 1.997 . S
O290 Fe289 2.002 . S
O290 C307 1.295 . S
O291 Fe286 1.997 . S
O291 C307 1.235 . S
O292 Fe286 2.002 . S
O292 C293 1.295 . S
C293 O292 1.295 . S
C293 O295 1.235 . S
C294 O299 1.287 . S
C294 O300 1.255 . S
O295 Fe287 1.997 . S
O295 C293 1.235 . S
C296 O302 1.287 . S
C296 O303 1.255 . S
O297 Fe286 1.976 . S
O297 C304 1.287 . S
O298 Fe287 1.996 . S
O298 C304 1.255 . S
O299 Fe289 1.976 . S
O299 C294 1.287 . S
O300 Fe286 1.996 . S
O300 C294 1.255 . S
C301 O305 1.295 . S
C301 O306 1.235 . S
O302 Fe287 1.976 . S
O302 C296 1.287 . S
O303 Fe289 1.996 . S
O303 C296 1.255 . S
C304 O297 1.287 . S
C304 O298 1.255 . S
O305 Fe287 2.002 . S
O305 C301 1.295 . S
O306 Fe289 1.997 . S
O306 C301 1.235 . S
C307 O290 1.295 . S
C307 O291 1.235 . S
Fe308 O310 1.918 . S
Fe308 O313 1.997 . S
Fe308 O314 2.002 . S
Fe308 O319 1.976 . S
Fe308 O322 1.996 . S
Fe309 O310 1.918 . S
Fe309 O317 1.997 . S
Fe309 O320 1.996 . S
Fe309 O324 1.976 . S
Fe309 O327 2.002 . S
O310 Fe308 1.918 . S
O310 Fe309 1.918 . S
O310 Fe311 1.918 . S
Fe311 O310 1.918 . S
Fe311 O312 2.002 . S
Fe311 O321 1.976 . S
Fe311 O325 1.996 . S
Fe311 O328 1.997 . S
O312 Fe311 2.002 . S
O312 C329 1.295 . S
O313 Fe308 1.997 . S
O313 C329 1.235 . S
O314 Fe308 2.002 . S
O314 C315 1.295 . S
C315 O314 1.295 . S
C315 O317 1.235 . S
C316 O321 1.287 . S
C316 O322 1.255 . S
O317 Fe309 1.997 . S
O317 C315 1.235 . S
C318 O324 1.287 . S
C318 O325 1.255 . S
O319 Fe308 1.976 . S
O319 C326 1.287 . S
O320 Fe309 1.996 . S
O320 C326 1.255 . S
O321 Fe311 1.976 . S
O321 C316 1.287 . S
O322 Fe308 1.996 . S
O322 C316 1.255 . S
C323 O327 1.295 . S
C323 O328 1.235 . S
O324 Fe309 1.976 . S
O324 C318 1.287 . S
O325 Fe311 1.996 . S
O325 C318 1.255 . S
C326 O319 1.287 . S
C326 O320 1.255 . S
O327 Fe309 2.002 . S
O327 C323 1.295 . S
O328 Fe311 1.997 . S
O328 C323 1.235 . S
C329 O312 1.295 . S
C329 O313 1.235 . S
Fe330 O332 1.918 . S
Fe330 O335 1.997 . S
Fe330 O336 2.002 . S
Fe330 O341 1.976 . S
Fe330 O344 1.996 . S
Fe331 O332 1.918 . S
Fe331 O339 1.997 . S
Fe331 O342 1.996 . S
Fe331 O346 1.976 . S
Fe331 O349 2.002 . S
O332 Fe330 1.918 . S
O332 Fe331 1.918 . S
O332 Fe333 1.918 . S
Fe333 O332 1.918 . S
Fe333 O334 2.002 . S
Fe333 O343 1.976 . S
Fe333 O347 1.996 . S
Fe333 O350 1.997 . S
O334 Fe333 2.002 . S
O334 C351 1.295 . S
O335 Fe330 1.997 . S
O335 C351 1.235 . S
O336 Fe330 2.002 . S
O336 C337 1.295 . S
C337 O336 1.295 . S
C337 O339 1.235 . S
C338 O343 1.287 . S
C338 O344 1.255 . S
O339 Fe331 1.997 . S
O339 C337 1.235 . S
C340 O346 1.287 . S
C340 O347 1.255 . S
O341 Fe330 1.976 . S
O341 C348 1.287 . S
O342 Fe331 1.996 . S
O342 C348 1.255 . S
O343 Fe333 1.976 . S
O343 C338 1.287 . S
O344 Fe330 1.996 . S
O344 C338 1.255 . S
C345 O349 1.295 . S
C345 O350 1.235 . S
O346 Fe331 1.976 . S
O346 C340 1.287 . S
O347 Fe333 1.996 . S
O347 C340 1.255 . S
C348 O341 1.287 . S
C348 O342 1.255 . S
O349 Fe331 2.002 . S
O349 C345 1.295 . S
O350 Fe333 1.997 . S
O350 C345 1.235 . S
C351 O334 1.295 . S
C351 O335 1.235 . S
C352 C353 1.349 . S
C352 C354 1.327 . S
C352 H377 0.950 . S
C353 C352 1.349 . S
C353 C369 1.349 . S
C354 C352 1.327 . S
C354 C373 1.429 . S
C354 H378 0.950 . S
C355 C372 1.574 . S
C355 C374 1.368 . S
C355 H379 0.949 . S
H356 C360 0.949 . S
C357 C358 1.349 . S
C357 C359 1.327 . S
C357 H380 0.950 . S
C358 C357 1.349 . S
C358 C370 1.349 . S
C359 C357 1.327 . S
C359 C375 1.429 . S
C359 H381 0.950 . S
C360 H356 0.949 . S
C360 C368 1.574 . S
C360 C376 1.368 . S
H361 C369 0.950 . S
H362 C367 0.950 . S
H363 C368 0.949 . S
H364 C370 0.950 . S
H365 C371 0.950 . S
H366 C372 0.949 . S
C367 H362 0.950 . S
C367 C369 1.327 . S
C367 C373 1.429 . S
C368 C360 1.574 . S
C368 H363 0.949 . S
C368 C374 1.368 . S
C369 C353 1.349 . S
C369 H361 0.950 . S
C369 C367 1.327 . S
C370 C358 1.349 . S
C370 H364 0.950 . S
C370 C371 1.327 . S
C371 H365 0.950 . S
C371 C370 1.327 . S
C371 C375 1.429 . S
C372 C355 1.574 . S
C372 H366 0.949 . S
C372 C376 1.368 . S
C373 C354 1.429 . S
C373 C367 1.429 . S
C373 C374 1.523 . S
C374 C355 1.368 . S
C374 C368 1.368 . S
C374 C373 1.523 . S
C375 C359 1.429 . S
C375 C371 1.429 . S
C375 C376 1.523 . S
C376 C360 1.368 . S
C376 C372 1.368 . S
C376 C375 1.523 . S
H377 C352 0.950 . S
H378 C354 0.950 . S
H379 C355 0.949 . S
H380 C357 0.950 . S
H381 C359 0.950 . S
C382 C383 1.349 . S
C382 C384 1.327 . S
C382 H407 0.950 . S
C383 C382 1.349 . S
C383 C399 1.349 . S
C384 C382 1.327 . S
C384 C403 1.429 . S
C384 H408 0.950 . S
C385 C402 1.574 . S
C385 C404 1.368 . S
C385 H409 0.949 . S
H386 C390 0.949 . S
C387 C388 1.349 . S
C387 C389 1.327 . S
C387 H410 0.950 . S
C388 C387 1.349 . S
C388 C400 1.349 . S
C389 C387 1.327 . S
C389 C405 1.429 . S
C389 H411 0.950 . S
C390 H386 0.949 . S
C390 C398 1.574 . S
C390 C406 1.368 . S
H391 C399 0.950 . S
H392 C397 0.950 . S
H393 C398 0.949 . S
H394 C400 0.950 . S
H395 C401 0.950 . S
H396 C402 0.949 . S
C397 H392 0.950 . S
C397 C399 1.327 . S
C397 C403 1.429 . S
C398 C390 1.574 . S
C398 H393 0.949 . S
C398 C404 1.368 . S
C399 C383 1.349 . S
C399 H391 0.950 . S
C399 C397 1.327 . S
C400 C388 1.349 . S
C400 H394 0.950 . S
C400 C401 1.327 . S
C401 H395 0.950 . S
C401 C400 1.327 . S
C401 C405 1.429 . S
C402 C385 1.574 . S
C402 H396 0.949 . S
C402 C406 1.368 . S
C403 C384 1.429 . S
C403 C397 1.429 . S
C403 C404 1.523 . S
C404 C385 1.368 . S
C404 C398 1.368 . S
C404 C403 1.523 . S
C405 C389 1.429 . S
C405 C401 1.429 . S
C405 C406 1.523 . S
C406 C390 1.368 . S
C406 C402 1.368 . S
C406 C405 1.523 . S
H407 C382 0.950 . S
H408 C384 0.950 . S
H409 C385 0.949 . S
H410 C387 0.950 . S
H411 C389 0.950 . S
C412 C413 1.349 . S
C412 C414 1.327 . S
C412 H437 0.950 . S
C413 C412 1.349 . S
C413 C429 1.349 . S
C414 C412 1.327 . S
C414 C433 1.429 . S
C414 H438 0.950 . S
C415 C432 1.574 . S
C415 C434 1.368 . S
C415 H439 0.949 . S
H416 C420 0.949 . S
C417 C418 1.349 . S
C417 C419 1.327 . S
C417 H440 0.950 . S
C418 C417 1.349 . S
C418 C430 1.349 . S
C419 C417 1.327 . S
C419 C435 1.429 . S
C419 H441 0.950 . S
C420 H416 0.949 . S
C420 C428 1.574 . S
C420 C436 1.368 . S
H421 C429 0.950 . S
H422 C427 0.950 . S
H423 C428 0.949 . S
H424 C430 0.950 . S
H425 C431 0.950 . S
H426 C432 0.949 . S
C427 H422 0.950 . S
C427 C429 1.327 . S
C427 C433 1.429 . S
C428 C420 1.574 . S
C428 H423 0.949 . S
C428 C434 1.368 . S
C429 C413 1.349 . S
C429 H421 0.950 . S
C429 C427 1.327 . S
C430 C418 1.349 . S
C430 H424 0.950 . S
C430 C431 1.327 . S
C431 H425 0.950 . S
C431 C430 1.327 . S
C431 C435 1.429 . S
C432 C415 1.574 . S
C432 H426 0.949 . S
C432 C436 1.368 . S
C433 C414 1.429 . S
C433 C427 1.429 . S
C433 C434 1.523 . S
C434 C415 1.368 . S
C434 C428 1.368 . S
C434 C433 1.523 . S
C435 C419 1.429 . S
C435 C431 1.429 . S
C435 C436 1.523 . S
C436 C420 1.368 . S
C436 C432 1.368 . S
C436 C435 1.523 . S
H437 C412 0.950 . S
H438 C414 0.950 . S
H439 C415 0.949 . S
H440 C417 0.950 . S
H441 C419 0.950 . S
C442 C443 1.349 . S
C442 C444 1.327 . S
C442 H467 0.950 . S
C443 C442 1.349 . S
C443 C459 1.349 . S
C444 C442 1.327 . S
C444 C463 1.429 . S
C444 H468 0.950 . S
C445 C462 1.574 . S
C445 C464 1.368 . S
C445 H469 0.949 . S
H446 C450 0.949 . S
C447 C448 1.349 . S
C447 C449 1.327 . S
C447 H470 0.950 . S
C448 C447 1.349 . S
C448 C460 1.349 . S
C449 C447 1.327 . S
C449 C465 1.429 . S
C449 H471 0.950 . S
C450 H446 0.949 . S
C450 C458 1.574 . S
C450 C466 1.368 . S
H451 C459 0.950 . S
H452 C457 0.950 . S
H453 C458 0.949 . S
H454 C460 0.950 . S
H455 C461 0.950 . S
H456 C462 0.949 . S
C457 H452 0.950 . S
C457 C459 1.327 . S
C457 C463 1.429 . S
C458 C450 1.574 . S
C458 H453 0.949 . S
C458 C464 1.368 . S
C459 C443 1.349 . S
C459 H451 0.950 . S
C459 C457 1.327 . S
C460 C448 1.349 . S
C460 H454 0.950 . S
C460 C461 1.327 . S
C461 H455 0.950 . S
C461 C460 1.327 . S
C461 C465 1.429 . S
C462 C445 1.574 . S
C462 H456 0.949 . S
C462 C466 1.368 . S
C463 C444 1.429 . S
C463 C457 1.429 . S
C463 C464 1.523 . S
C464 C445 1.368 . S
C464 C458 1.368 . S
C464 C463 1.523 . S
C465 C449 1.429 . S
C465 C461 1.429 . S
C465 C466 1.523 . S
C466 C450 1.368 . S
C466 C462 1.368 . S
C466 C465 1.523 . S
H467 C442 0.950 . S
H468 C444 0.950 . S
H469 C445 0.949 . S
H470 C447 0.950 . S
H471 C449 0.950 . S
C472 C473 1.349 . S
C472 C474 1.327 . S
C472 H497 0.950 . S
C473 C472 1.349 . S
C473 C489 1.349 . S
C474 C472 1.327 . S
C474 C493 1.429 . S
C474 H498 0.950 . S
C475 C492 1.574 . S
C475 C494 1.368 . S
C475 H499 0.949 . S
H476 C480 0.949 . S
C477 C478 1.349 . S
C477 C479 1.327 . S
C477 H500 0.950 . S
C478 C477 1.349 . S
C478 C490 1.349 . S
C479 C477 1.327 . S
C479 C495 1.429 . S
C479 H501 0.950 . S
C480 H476 0.949 . S
C480 C488 1.574 . S
C480 C496 1.368 . S
H481 C489 0.950 . S
H482 C487 0.950 . S
H483 C488 0.949 . S
H484 C490 0.950 . S
H485 C491 0.950 . S
H486 C492 0.949 . S
C487 H482 0.950 . S
C487 C489 1.327 . S
C487 C493 1.429 . S
C488 C480 1.574 . S
C488 H483 0.949 . S
C488 C494 1.368 . S
C489 C473 1.349 . S
C489 H481 0.950 . S
C489 C487 1.327 . S
C490 C478 1.349 . S
C490 H484 0.950 . S
C490 C491 1.327 . S
C491 H485 0.950 . S
C491 C490 1.327 . S
C491 C495 1.429 . S
C492 C475 1.574 . S
C492 H486 0.949 . S
C492 C496 1.368 . S
C493 C474 1.429 . S
C493 C487 1.429 . S
C493 C494 1.523 . S
C494 C475 1.368 . S
C494 C488 1.368 . S
C494 C493 1.523 . S
C495 C479 1.429 . S
C495 C491 1.429 . S
C495 C496 1.523 . S
C496 C480 1.368 . S
C496 C492 1.368 . S
C496 C495 1.523 . S
H497 C472 0.950 . S
H498 C474 0.950 . S
H499 C475 0.949 . S
H500 C477 0.950 . S
H501 C479 0.950 . S
C502 C503 1.349 . S
C502 C504 1.327 . S
C502 H527 0.950 . S
C503 C502 1.349 . S
C503 C519 1.349 . S
C504 C502 1.327 . S
C504 C523 1.429 . S
C504 H528 0.950 . S
C505 C522 1.574 . S
C505 C524 1.368 . S
C505 H529 0.949 . S
H506 C510 0.949 . S
C507 C508 1.349 . S
C507 C509 1.327 . S
C507 H530 0.950 . S
C508 C507 1.349 . S
C508 C520 1.349 . S
C509 C507 1.327 . S
C509 C525 1.429 . S
C509 H531 0.950 . S
C510 H506 0.949 . S
C510 C518 1.574 . S
C510 C526 1.368 . S
H511 C519 0.950 . S
H512 C517 0.950 . S
H513 C518 0.949 . S
H514 C520 0.950 . S
H515 C521 0.950 . S
H516 C522 0.949 . S
C517 H512 0.950 . S
C517 C519 1.327 . S
C517 C523 1.429 . S
C518 C510 1.574 . S
C518 H513 0.949 . S
C518 C524 1.368 . S
C519 C503 1.349 . S
C519 H511 0.950 . S
C519 C517 1.327 . S
C520 C508 1.349 . S
C520 H514 0.950 . S
C520 C521 1.327 . S
C521 H515 0.950 . S
C521 C520 1.327 . S
C521 C525 1.429 . S
C522 C505 1.574 . S
C522 H516 0.949 . S
C522 C526 1.368 . S
C523 C504 1.429 . S
C523 C517 1.429 . S
C523 C524 1.523 . S
C524 C505 1.368 . S
C524 C518 1.368 . S
C524 C523 1.523 . S
C525 C509 1.429 . S
C525 C521 1.429 . S
C525 C526 1.523 . S
C526 C510 1.368 . S
C526 C522 1.368 . S
C526 C525 1.523 . S
H527 C502 0.950 . S
H528 C504 0.950 . S
H529 C505 0.949 . S
H530 C507 0.950 . S
H531 C509 0.950 . S
C532 C533 1.349 . S
C532 C534 1.327 . S
C532 H557 0.950 . S
C533 C532 1.349 . S
C533 C549 1.349 . S
C534 C532 1.327 . S
C534 C553 1.429 . S
C534 H558 0.950 . S
C535 C552 1.574 . S
C535 C554 1.368 . S
C535 H559 0.949 . S
H536 C540 0.949 . S
C537 C538 1.349 . S
C537 C539 1.327 . S
C537 H560 0.950 . S
C538 C537 1.349 . S
C538 C550 1.349 . S
C539 C537 1.327 . S
C539 C555 1.429 . S
C539 H561 0.950 . S
C540 H536 0.949 . S
C540 C548 1.574 . S
C540 C556 1.368 . S
H541 C549 0.950 . S
H542 C547 0.950 . S
H543 C548 0.949 . S
H544 C550 0.950 . S
H545 C551 0.950 . S
H546 C552 0.949 . S
C547 H542 0.950 . S
C547 C549 1.327 . S
C547 C553 1.429 . S
C548 C540 1.574 . S
C548 H543 0.949 . S
C548 C554 1.368 . S
C549 C533 1.349 . S
C549 H541 0.950 . S
C549 C547 1.327 . S
C550 C538 1.349 . S
C550 H544 0.950 . S
C550 C551 1.327 . S
C551 H545 0.950 . S
C551 C550 1.327 . S
C551 C555 1.429 . S
C552 C535 1.574 . S
C552 H546 0.949 . S
C552 C556 1.368 . S
C553 C534 1.429 . S
C553 C547 1.429 . S
C553 C554 1.523 . S
C554 C535 1.368 . S
C554 C548 1.368 . S
C554 C553 1.523 . S
C555 C539 1.429 . S
C555 C551 1.429 . S
C555 C556 1.523 . S
C556 C540 1.368 . S
C556 C552 1.368 . S
C556 C555 1.523 . S
H557 C532 0.950 . S
H558 C534 0.950 . S
H559 C535 0.949 . S
H560 C537 0.950 . S
H561 C539 0.950 . S
C562 C563 1.349 . S
C562 C564 1.327 . S
C562 H587 0.950 . S
C563 C562 1.349 . S
C563 C579 1.349 . S
C564 C562 1.327 . S
C564 C583 1.429 . S
C564 H588 0.950 . S
C565 C582 1.574 . S
C565 C584 1.368 . S
C565 H589 0.949 . S
H566 C570 0.949 . S
C567 C568 1.349 . S
C567 C569 1.327 . S
C567 H590 0.950 . S
C568 C567 1.349 . S
C568 C580 1.349 . S
C569 C567 1.327 . S
C569 C585 1.429 . S
C569 H591 0.950 . S
C570 H566 0.949 . S
C570 C578 1.574 . S
C570 C586 1.368 . S
H571 C579 0.950 . S
H572 C577 0.950 . S
H573 C578 0.949 . S
H574 C580 0.950 . S
H575 C581 0.950 . S
H576 C582 0.949 . S
C577 H572 0.950 . S
C577 C579 1.327 . S
C577 C583 1.429 . S
C578 C570 1.574 . S
C578 H573 0.949 . S
C578 C584 1.368 . S
C579 C563 1.349 . S
C579 H571 0.950 . S
C579 C577 1.327 . S
C580 C568 1.349 . S
C580 H574 0.950 . S
C580 C581 1.327 . S
C581 H575 0.950 . S
C581 C580 1.327 . S
C581 C585 1.429 . S
C582 C565 1.574 . S
C582 H576 0.949 . S
C582 C586 1.368 . S
C583 C564 1.429 . S
C583 C577 1.429 . S
C583 C584 1.523 . S
C584 C565 1.368 . S
C584 C578 1.368 . S
C584 C583 1.523 . S
C585 C569 1.429 . S
C585 C581 1.429 . S
C585 C586 1.523 . S
C586 C570 1.368 . S
C586 C582 1.368 . S
C586 C585 1.523 . S
H587 C562 0.950 . S
H588 C564 0.950 . S
H589 C565 0.949 . S
H590 C567 0.950 . S
H591 C569 0.950 . S
C592 C593 1.349 . S
C592 C594 1.327 . S
C592 H617 0.950 . S
C593 C592 1.349 . S
C593 C609 1.349 . S
C594 C592 1.327 . S
C594 C613 1.429 . S
C594 H618 0.950 . S
C595 C612 1.574 . S
C595 C614 1.368 . S
C595 H619 0.949 . S
H596 C600 0.949 . S
C597 C598 1.349 . S
C597 C599 1.327 . S
C597 H620 0.950 . S
C598 C597 1.349 . S
C598 C610 1.349 . S
C599 C597 1.327 . S
C599 C615 1.429 . S
C599 H621 0.950 . S
C600 H596 0.949 . S
C600 C608 1.574 . S
C600 C616 1.368 . S
H601 C609 0.950 . S
H602 C607 0.950 . S
H603 C608 0.949 . S
H604 C610 0.950 . S
H605 C611 0.950 . S
H606 C612 0.949 . S
C607 H602 0.950 . S
C607 C609 1.327 . S
C607 C613 1.429 . S
C608 C600 1.574 . S
C608 H603 0.949 . S
C608 C614 1.368 . S
C609 C593 1.349 . S
C609 H601 0.950 . S
C609 C607 1.327 . S
C610 C598 1.349 . S
C610 H604 0.950 . S
C610 C611 1.327 . S
C611 H605 0.950 . S
C611 C610 1.327 . S
C611 C615 1.429 . S
C612 C595 1.574 . S
C612 H606 0.949 . S
C612 C616 1.368 . S
C613 C594 1.429 . S
C613 C607 1.429 . S
C613 C614 1.523 . S
C614 C595 1.368 . S
C614 C608 1.368 . S
C614 C613 1.523 . S
C615 C599 1.429 . S
C615 C611 1.429 . S
C615 C616 1.523 . S
C616 C600 1.368 . S
C616 C612 1.368 . S
C616 C615 1.523 . S
H617 C592 0.950 . S
H618 C594 0.950 . S
H619 C595 0.949 . S
H620 C597 0.950 . S
H621 C599 0.950 . S
C622 C623 1.349 . S
C622 C624 1.327 . S
C622 H647 0.950 . S
C623 C622 1.349 . S
C623 C639 1.349 . S
C624 C622 1.327 . S
C624 C643 1.429 . S
C624 H648 0.950 . S
C625 C642 1.574 . S
C625 C644 1.368 . S
C625 H649 0.949 . S
H626 C630 0.949 . S
C627 C628 1.349 . S
C627 C629 1.327 . S
C627 H650 0.950 . S
C628 C627 1.349 . S
C628 C640 1.349 . S
C629 C627 1.327 . S
C629 C645 1.429 . S
C629 H651 0.950 . S
C630 H626 0.949 . S
C630 C638 1.574 . S
C630 C646 1.368 . S
H631 C639 0.950 . S
H632 C637 0.950 . S
H633 C638 0.949 . S
H634 C640 0.950 . S
H635 C641 0.950 . S
H636 C642 0.949 . S
C637 H632 0.950 . S
C637 C639 1.327 . S
C637 C643 1.429 . S
C638 C630 1.574 . S
C638 H633 0.949 . S
C638 C644 1.368 . S
C639 C623 1.349 . S
C639 H631 0.950 . S
C639 C637 1.327 . S
C640 C628 1.349 . S
C640 H634 0.950 . S
C640 C641 1.327 . S
C641 H635 0.950 . S
C641 C640 1.327 . S
C641 C645 1.429 . S
C642 C625 1.574 . S
C642 H636 0.949 . S
C642 C646 1.368 . S
C643 C624 1.429 . S
C643 C637 1.429 . S
C643 C644 1.523 . S
C644 C625 1.368 . S
C644 C638 1.368 . S
C644 C643 1.523 . S
C645 C629 1.429 . S
C645 C641 1.429 . S
C645 C646 1.523 . S
C646 C630 1.368 . S
C646 C642 1.368 . S
C646 C645 1.523 . S
H647 C622 0.950 . S
H648 C624 0.950 . S
H649 C625 0.949 . S
H650 C627 0.950 . S
H651 C629 0.950 . S
C652 C653 1.349 . S
C652 C654 1.327 . S
C652 H677 0.950 . S
C653 C652 1.349 . S
C653 C669 1.349 . S
C654 C652 1.327 . S
C654 C673 1.429 . S
C654 H678 0.950 . S
C655 C672 1.574 . S
C655 C674 1.368 . S
C655 H679 0.949 . S
H656 C660 0.949 . S
C657 C658 1.349 . S
C657 C659 1.327 . S
C657 H680 0.950 . S
C658 C657 1.349 . S
C658 C670 1.349 . S
C659 C657 1.327 . S
C659 C675 1.429 . S
C659 H681 0.950 . S
C660 H656 0.949 . S
C660 C668 1.574 . S
C660 C676 1.368 . S
H661 C669 0.950 . S
H662 C667 0.950 . S
H663 C668 0.949 . S
H664 C670 0.950 . S
H665 C671 0.950 . S
H666 C672 0.949 . S
C667 H662 0.950 . S
C667 C669 1.327 . S
C667 C673 1.429 . S
C668 C660 1.574 . S
C668 H663 0.949 . S
C668 C674 1.368 . S
C669 C653 1.349 . S
C669 H661 0.950 . S
C669 C667 1.327 . S
C670 C658 1.349 . S
C670 H664 0.950 . S
C670 C671 1.327 . S
C671 H665 0.950 . S
C671 C670 1.327 . S
C671 C675 1.429 . S
C672 C655 1.574 . S
C672 H666 0.949 . S
C672 C676 1.368 . S
C673 C654 1.429 . S
C673 C667 1.429 . S
C673 C674 1.523 . S
C674 C655 1.368 . S
C674 C668 1.368 . S
C674 C673 1.523 . S
C675 C659 1.429 . S
C675 C671 1.429 . S
C675 C676 1.523 . S
C676 C660 1.368 . S
C676 C672 1.368 . S
C676 C675 1.523 . S
H677 C652 0.950 . S
H678 C654 0.950 . S
H679 C655 0.949 . S
H680 C657 0.950 . S
H681 C659 0.950 . S
C682 C683 1.349 . S
C682 C684 1.327 . S
C682 H707 0.950 . S
C683 C682 1.349 . S
C683 C699 1.349 . S
C684 C682 1.327 . S
C684 C703 1.429 . S
C684 H708 0.950 . S
C685 C702 1.574 . S
C685 C704 1.368 . S
C685 H709 0.949 . S
H686 C690 0.949 . S
C687 C688 1.349 . S
C687 C689 1.327 . S
C687 H710 0.950 . S
C688 C687 1.349 . S
C688 C700 1.349 . S
C689 C687 1.327 . S
C689 C705 1.429 . S
C689 H711 0.950 . S
C690 H686 0.949 . S
C690 C698 1.574 . S
C690 C706 1.368 . S
H691 C699 0.950 . S
H692 C697 0.950 . S
H693 C698 0.949 . S
H694 C700 0.950 . S
H695 C701 0.950 . S
H696 C702 0.949 . S
C697 H692 0.950 . S
C697 C699 1.327 . S
C697 C703 1.429 . S
C698 C690 1.574 . S
C698 H693 0.949 . S
C698 C704 1.368 . S
C699 C683 1.349 . S
C699 H691 0.950 . S
C699 C697 1.327 . S
C700 C688 1.349 . S
C700 H694 0.950 . S
C700 C701 1.327 . S
C701 H695 0.950 . S
C701 C700 1.327 . S
C701 C705 1.429 . S
C702 C685 1.574 . S
C702 H696 0.949 . S
C702 C706 1.368 . S
C703 C684 1.429 . S
C703 C697 1.429 . S
C703 C704 1.523 . S
C704 C685 1.368 . S
C704 C698 1.368 . S
C704 C703 1.523 . S
C705 C689 1.429 . S
C705 C701 1.429 . S
C705 C706 1.523 . S
C706 C690 1.368 . S
C706 C702 1.368 . S
C706 C705 1.523 . S
H707 C682 0.950 . S
H708 C684 0.950 . S
H709 C685 0.949 . S
H710 C687 0.950 . S
H711 C689 0.950 . S
C712 C713 1.349 . S
C712 C714 1.327 . S
C712 H737 0.950 . S
C713 C712 1.349 . S
C713 C729 1.349 . S
C714 C712 1.327 . S
C714 C733 1.429 . S
C714 H738 0.950 . S
C715 C732 1.574 . S
C715 C734 1.368 . S
C715 H739 0.949 . S
H716 C720 0.949 . S
C717 C718 1.349 . S
C717 C719 1.327 . S
C717 H740 0.950 . S
C718 C717 1.349 . S
C718 C730 1.349 . S
C719 C717 1.327 . S
C719 C735 1.429 . S
C719 H741 0.950 . S
C720 H716 0.949 . S
C720 C728 1.574 . S
C720 C736 1.368 . S
H721 C729 0.950 . S
H722 C727 0.950 . S
H723 C728 0.949 . S
H724 C730 0.950 . S
H725 C731 0.950 . S
H726 C732 0.949 . S
C727 H722 0.950 . S
C727 C729 1.327 . S
C727 C733 1.429 . S
C728 C720 1.574 . S
C728 H723 0.949 . S
C728 C734 1.368 . S
C729 C713 1.349 . S
C729 H721 0.950 . S
C729 C727 1.327 . S
C730 C718 1.349 . S
C730 H724 0.950 . S
C730 C731 1.327 . S
C731 H725 0.950 . S
C731 C730 1.327 . S
C731 C735 1.429 . S
C732 C715 1.574 . S
C732 H726 0.949 . S
C732 C736 1.368 . S
C733 C714 1.429 . S
C733 C727 1.429 . S
C733 C734 1.523 . S
C734 C715 1.368 . S
C734 C728 1.368 . S
C734 C733 1.523 . S
C735 C719 1.429 . S
C735 C731 1.429 . S
C735 C736 1.523 . S
C736 C720 1.368 . S
C736 C732 1.368 . S
C736 C735 1.523 . S
H737 C712 0.950 . S
H738 C714 0.950 . S
H739 C715 0.949 . S
H740 C717 0.950 . S
H741 C719 0.950 . S
C742 C743 1.349 . S
C742 C744 1.327 . S
C742 H767 0.950 . S
C743 C742 1.349 . S
C743 C759 1.349 . S
C744 C742 1.327 . S
C744 C763 1.429 . S
C744 H768 0.950 . S
C745 C762 1.574 . S
C745 C764 1.368 . S
C745 H769 0.949 . S
H746 C750 0.949 . S
C747 C748 1.349 . S
C747 C749 1.327 . S
C747 H770 0.950 . S
C748 C747 1.349 . S
C748 C760 1.349 . S
C749 C747 1.327 . S
C749 C765 1.429 . S
C749 H771 0.950 . S
C750 H746 0.949 . S
C750 C758 1.574 . S
C750 C766 1.368 . S
H751 C759 0.950 . S
H752 C757 0.950 . S
H753 C758 0.949 . S
H754 C760 0.950 . S
H755 C761 0.950 . S
H756 C762 0.949 . S
C757 H752 0.950 . S
C757 C759 1.327 . S
C757 C763 1.429 . S
C758 C750 1.574 . S
C758 H753 0.949 . S
C758 C764 1.368 . S
C759 C743 1.349 . S
C759 H751 0.950 . S
C759 C757 1.327 . S
C760 C748 1.349 . S
C760 H754 0.950 . S
C760 C761 1.327 . S
C761 H755 0.950 . S
C761 C760 1.327 . S
C761 C765 1.429 . S
C762 C745 1.574 . S
C762 H756 0.949 . S
C762 C766 1.368 . S
C763 C744 1.429 . S
C763 C757 1.429 . S
C763 C764 1.523 . S
C764 C745 1.368 . S
C764 C758 1.368 . S
C764 C763 1.523 . S
C765 C749 1.429 . S
C765 C761 1.429 . S
C765 C766 1.523 . S
C766 C750 1.368 . S
C766 C762 1.368 . S
C766 C765 1.523 . S
H767 C742 0.950 . S
H768 C744 0.950 . S
H769 C745 0.949 . S
H770 C747 0.950 . S
H771 C749 0.950 . S
C772 C773 1.349 . S
C772 C774 1.327 . S
C772 H797 0.950 . S
C773 C772 1.349 . S
C773 C789 1.349 . S
C774 C772 1.327 . S
C774 C793 1.429 . S
C774 H798 0.950 . S
C775 C792 1.574 . S
C775 C794 1.368 . S
C775 H799 0.949 . S
H776 C780 0.949 . S
C777 C778 1.349 . S
C777 C779 1.327 . S
C777 H800 0.950 . S
C778 C777 1.349 . S
C778 C790 1.349 . S
C779 C777 1.327 . S
C779 C795 1.429 . S
C779 H801 0.950 . S
C780 H776 0.949 . S
C780 C788 1.574 . S
C780 C796 1.368 . S
H781 C789 0.950 . S
H782 C787 0.950 . S
H783 C788 0.949 . S
H784 C790 0.950 . S
H785 C791 0.950 . S
H786 C792 0.949 . S
C787 H782 0.950 . S
C787 C789 1.327 . S
C787 C793 1.429 . S
C788 C780 1.574 . S
C788 H783 0.949 . S
C788 C794 1.368 . S
C789 C773 1.349 . S
C789 H781 0.950 . S
C789 C787 1.327 . S
C790 C778 1.349 . S
C790 H784 0.950 . S
C790 C791 1.327 . S
C791 H785 0.950 . S
C791 C790 1.327 . S
C791 C795 1.429 . S
C792 C775 1.574 . S
C792 H786 0.949 . S
C792 C796 1.368 . S
C793 C774 1.429 . S
C793 C787 1.429 . S
C793 C794 1.523 . S
C794 C775 1.368 . S
C794 C788 1.368 . S
C794 C793 1.523 . S
C795 C779 1.429 . S
C795 C791 1.429 . S
C795 C796 1.523 . S
C796 C780 1.368 . S
C796 C792 1.368 . S
C796 C795 1.523 . S
H797 C772 0.950 . S
H798 C774 0.950 . S
H799 C775 0.949 . S
H800 C777 0.950 . S
H801 C779 0.950 . S
C802 C803 1.349 . S
C802 C804 1.327 . S
C802 H827 0.950 . S
C803 C802 1.349 . S
C803 C819 1.349 . S
C804 C802 1.327 . S
C804 C823 1.429 . S
C804 H828 0.950 . S
C805 C822 1.574 . S
C805 C824 1.368 . S
C805 H829 0.949 . S
H806 C810 0.949 . S
C807 C808 1.349 . S
C807 C809 1.327 . S
C807 H830 0.950 . S
C808 C807 1.349 . S
C808 C820 1.349 . S
C809 C807 1.327 . S
C809 C825 1.429 . S
C809 H831 0.950 . S
C810 H806 0.949 . S
C810 C818 1.574 . S
C810 C826 1.368 . S
H811 C819 0.950 . S
H812 C817 0.950 . S
H813 C818 0.949 . S
H814 C820 0.950 . S
H815 C821 0.950 . S
H816 C822 0.949 . S
C817 H812 0.950 . S
C817 C819 1.327 . S
C817 C823 1.429 . S
C818 C810 1.574 . S
C818 H813 0.949 . S
C818 C824 1.368 . S
C819 C803 1.349 . S
C819 H811 0.950 . S
C819 C817 1.327 . S
C820 C808 1.349 . S
C820 H814 0.950 . S
C820 C821 1.327 . S
C821 H815 0.950 . S
C821 C820 1.327 . S
C821 C825 1.429 . S
C822 C805 1.574 . S
C822 H816 0.949 . S
C822 C826 1.368 . S
C823 C804 1.429 . S
C823 C817 1.429 . S
C823 C824 1.523 . S
C824 C805 1.368 . S
C824 C818 1.368 . S
C824 C823 1.523 . S
C825 C809 1.429 . S
C825 C821 1.429 . S
C825 C826 1.523 . S
C826 C810 1.368 . S
C826 C822 1.368 . S
C826 C825 1.523 . S
H827 C802 0.950 . S
H828 C804 0.950 . S
H829 C805 0.949 . S
H830 C807 0.950 . S
H831 C809 0.950 . S
C832 C833 1.349 . S
C832 C834 1.327 . S
C832 H857 0.950 . S
C833 C832 1.349 . S
C833 C849 1.349 . S
C834 C832 1.327 . S
C834 C853 1.429 . S
C834 H858 0.950 . S
C835 C852 1.574 . S
C835 C854 1.368 . S
C835 H859 0.949 1_556 S
H836 C840 0.949 . S
C837 C838 1.349 . S
C837 C839 1.327 . S
C837 H860 0.950 . S
C838 C837 1.349 . S
C838 C850 1.349 . S
C839 C837 1.327 . S
C839 C855 1.429 . S
C839 H861 0.950 . S
C840 H836 0.949 . S
C840 C848 1.574 . S
C840 C856 1.368 . S
H841 C849 0.950 . S
H842 C847 0.950 . S
H843 C848 0.949 . S
H844 C850 0.950 . S
H845 C851 0.950 . S
H846 C852 0.949 . S
C847 H842 0.950 . S
C847 C849 1.327 . S
C847 C853 1.429 . S
C848 C840 1.574 . S
C848 H843 0.949 . S
C848 C854 1.368 . S
C849 C833 1.349 . S
C849 H841 0.950 . S
C849 C847 1.327 . S
C850 C838 1.349 . S
C850 H844 0.950 . S
C850 C851 1.327 . S
C851 H845 0.950 . S
C851 C850 1.327 . S
C851 C855 1.429 . S
C852 C835 1.574 . S
C852 H846 0.949 . S
C852 C856 1.368 . S
C853 C834 1.429 . S
C853 C847 1.429 . S
C853 C854 1.523 1_554 S
C854 C835 1.368 . S
C854 C848 1.368 . S
C854 C853 1.523 1_556 S
C855 C839 1.429 . S
C855 C851 1.429 . S
C855 C856 1.523 . S
C856 C840 1.368 . S
C856 C852 1.368 . S
C856 C855 1.523 . S
H857 C832 0.950 . S
H858 C834 0.950 . S
H859 C835 0.949 1_554 S
H860 C837 0.950 . S
H861 C839 0.950 . S
C862 C863 1.349 . S
C862 C864 1.327 . S
C862 H887 0.950 . S
C863 C862 1.349 . S
C863 C879 1.349 . S
C864 C862 1.327 . S
C864 C883 1.429 . S
C864 H888 0.950 . S
C865 C882 1.574 . S
C865 C884 1.368 . S
C865 H889 0.949 . S
H866 C870 0.949 . S
C867 C868 1.349 . S
C867 C869 1.327 . S
C867 H890 0.950 . S
C868 C867 1.349 . S
C868 C880 1.349 . S
C869 C867 1.327 . S
C869 C885 1.429 . S
C869 H891 0.950 . S
C870 H866 0.949 . S
C870 C878 1.574 . S
C870 C886 1.368 . S
H871 C879 0.950 . S
H872 C877 0.950 . S
H873 C878 0.949 . S
H874 C880 0.950 . S
H875 C881 0.950 . S
H876 C882 0.949 . S
C877 H872 0.950 . S
C877 C879 1.327 . S
C877 C883 1.429 . S
C878 C870 1.574 . S
C878 H873 0.949 . S
C878 C884 1.368 . S
C879 C863 1.349 . S
C879 H871 0.950 . S
C879 C877 1.327 . S
C880 C868 1.349 . S
C880 H874 0.950 . S
C880 C881 1.327 . S
C881 H875 0.950 . S
C881 C880 1.327 . S
C881 C885 1.429 . S
C882 C865 1.574 . S
C882 H876 0.949 . S
C882 C886 1.368 . S
C883 C864 1.429 . S
C883 C877 1.429 . S
C883 C884 1.523 . S
C884 C865 1.368 . S
C884 C878 1.368 . S
C884 C883 1.523 . S
C885 C869 1.429 . S
C885 C881 1.429 . S
C885 C886 1.523 . S
C886 C870 1.368 . S
C886 C882 1.368 . S
C886 C885 1.523 . S
H887 C862 0.950 . S
H888 C864 0.950 . S
H889 C865 0.949 . S
H890 C867 0.950 . S
H891 C869 0.950 . S
C892 C893 1.349 . S
C892 C894 1.327 . S
C892 H917 0.950 . S
C893 C892 1.349 . S
C893 C909 1.349 . S
C894 C892 1.327 . S
C894 C913 1.429 . S
C894 H918 0.950 . S
C895 C912 1.574 . S
C895 C914 1.368 . S
C895 H919 0.949 . S
H896 C900 0.949 . S
C897 C898 1.349 . S
C897 C899 1.327 . S
C897 H920 0.950 . S
C898 C897 1.349 . S
C898 C910 1.349 . S
C899 C897 1.327 . S
C899 C915 1.429 . S
C899 H921 0.950 . S
C900 H896 0.949 . S
C900 C908 1.574 . S
C900 C916 1.368 . S
H901 C909 0.950 . S
H902 C907 0.950 . S
H903 C908 0.949 . S
H904 C910 0.950 . S
H905 C911 0.950 . S
H906 C912 0.949 . S
C907 H902 0.950 . S
C907 C909 1.327 . S
C907 C913 1.429 . S
C908 C900 1.574 . S
C908 H903 0.949 . S
C908 C914 1.368 . S
C909 C893 1.349 . S
C909 H901 0.950 . S
C909 C907 1.327 . S
C910 C898 1.349 . S
C910 H904 0.950 . S
C910 C911 1.327 . S
C911 H905 0.950 . S
C911 C910 1.327 . S
C911 C915 1.429 . S
C912 C895 1.574 . S
C912 H906 0.949 . S
C912 C916 1.368 . S
C913 C894 1.429 . S
C913 C907 1.429 . S
C913 C914 1.523 1_554 S
C914 C895 1.368 . S
C914 C908 1.368 . S
C914 C913 1.523 1_556 S
C915 C899 1.429 . S
C915 C911 1.429 . S
C915 C916 1.523 . S
C916 C900 1.368 . S
C916 C912 1.368 . S
C916 C915 1.523 . S
H917 C892 0.950 . S
H918 C894 0.950 . S
H919 C895 0.949 . S
H920 C897 0.950 . S
H921 C899 0.950 . S
C922 C923 1.349 . S
C922 C924 1.327 . S
C922 H947 0.950 . S
C923 C922 1.349 . S
C923 C939 1.349 . S
C924 C922 1.327 . S
C924 C943 1.429 . S
C924 H948 0.950 . S
C925 C942 1.574 . S
C925 C944 1.368 . S
C925 H949 0.949 . S
H926 C930 0.949 . S
C927 C928 1.349 . S
C927 C929 1.327 . S
C927 H950 0.950 . S
C928 C927 1.349 . S
C928 C940 1.349 . S
C929 C927 1.327 . S
C929 C945 1.429 . S
C929 H951 0.950 . S
C930 H926 0.949 . S
C930 C938 1.574 . S
C930 C946 1.368 . S
H931 C939 0.950 . S
H932 C937 0.950 . S
H933 C938 0.949 . S
H934 C940 0.950 . S
H935 C941 0.950 . S
H936 C942 0.949 . S
C937 H932 0.950 . S
C937 C939 1.327 . S
C937 C943 1.429 . S
C938 C930 1.574 . S
C938 H933 0.949 . S
C938 C944 1.368 . S
C939 C923 1.349 . S
C939 H931 0.950 . S
C939 C937 1.327 . S
C940 C928 1.349 . S
C940 H934 0.950 . S
C940 C941 1.327 . S
C941 H935 0.950 . S
C941 C940 1.327 . S
C941 C945 1.429 . S
C942 C925 1.574 . S
C942 H936 0.949 . S
C942 C946 1.368 . S
C943 C924 1.429 . S
C943 C937 1.429 . S
C943 C944 1.523 . S
C944 C925 1.368 . S
C944 C938 1.368 . S
C944 C943 1.523 . S
C945 C929 1.429 . S
C945 C941 1.429 . S
C945 C946 1.523 . S
C946 C930 1.368 . S
C946 C942 1.368 . S
C946 C945 1.523 . S
H947 C922 0.950 . S
H948 C924 0.950 . S
H949 C925 0.949 . S
H950 C927 0.950 . S
H951 C929 0.950 . S
C952 C953 1.349 . S
C952 C954 1.327 . S
C952 H977 0.950 . S
C953 C952 1.349 . S
C953 C969 1.349 . S
C954 C952 1.327 . S
C954 C973 1.429 . S
C954 H978 0.950 . S
C955 C972 1.574 . S
C955 C974 1.368 . S
C955 H979 0.936 1_554 S
H956 C960 0.949 . S
C957 C958 1.349 . S
C957 C959 1.327 . S
C957 H980 0.950 . S
C958 C957 1.349 . S
C958 C970 1.349 . S
C959 C957 1.327 . S
C959 C975 1.429 . S
C959 H981 0.950 . S
C960 H956 0.949 . S
C960 C968 1.574 . S
C960 C976 1.368 . S
H961 C969 0.950 . S
H962 C967 0.950 . S
H963 C968 0.949 . S
H964 C970 0.950 . S
H965 C971 0.950 . S
H966 C972 0.949 . S
C967 H962 0.950 . S
C967 C969 1.327 . S
C967 C973 1.429 . S
C968 C960 1.574 . S
C968 H963 0.949 . S
C968 C974 1.368 . S
C969 C953 1.349 . S
C969 H961 0.950 . S
C969 C967 1.327 . S
C970 C958 1.349 . S
C970 H964 0.950 . S
C970 C971 1.327 . S
C971 H965 0.950 . S
C971 C970 1.327 . S
C971 C975 1.429 . S
C972 C955 1.574 . S
C972 H966 0.949 . S
C972 C976 1.368 . S
C973 C954 1.429 . S
C973 C967 1.429 . S
C973 C974 1.523 1_556 S
C974 C955 1.368 . S
C974 C968 1.368 . S
C974 C973 1.523 1_554 S
C975 C959 1.429 . S
C975 C971 1.429 . S
C975 C976 1.523 . S
C976 C960 1.368 . S
C976 C972 1.368 . S
C976 C975 1.523 . S
H977 C952 0.950 . S
H978 C954 0.950 . S
H979 C955 0.936 1_556 S
H980 C957 0.950 . S
H981 C959 0.950 . S
C982 C983 1.349 . S
C982 C984 1.327 . S
C982 H1007 0.950 . S
C983 C982 1.349 . S
C983 C999 1.349 . S
C984 C982 1.327 . S
C984 C1003 1.429 . S
C984 H1008 0.950 . S
C985 C1002 1.574 . S
C985 C1004 1.368 . S
C985 H1009 0.949 . S
H986 C990 0.949 . S
C987 C988 1.349 . S
C987 C989 1.327 . S
C987 H1010 0.950 . S
C988 C987 1.349 . S
C988 C1000 1.349 . S
C989 C987 1.327 . S
C989 C1005 1.429 . S
C989 H1011 0.950 . S
C990 H986 0.949 . S
C990 C998 1.574 . S
C990 C1006 1.368 . S
H991 C999 0.950 . S
H992 C997 0.950 . S
H993 C998 0.949 . S
H994 C1000 0.950 . S
H995 C1001 0.950 . S
H996 C1002 0.949 . S
C997 H992 0.950 . S
C997 C999 1.327 . S
C997 C1003 1.429 . S
C998 C990 1.574 . S
C998 H993 0.949 . S
C998 C1004 1.368 . S
C999 C983 1.349 . S
C999 H991 0.950 . S
C999 C997 1.327 . S
C1000 C988 1.349 . S
C1000 H994 0.950 . S
C1000 C1001 1.327 . S
C1001 H995 0.950 . S
C1001 C1000 1.327 . S
C1001 C1005 1.429 . S
C1002 C985 1.574 . S
C1002 H996 0.949 . S
C1002 C1006 1.368 . S
C1003 C984 1.429 . S
C1003 C997 1.429 . S
C1003 C1004 1.523 . S
C1004 C985 1.368 . S
C1004 C998 1.368 . S
C1004 C1003 1.523 . S
C1005 C989 1.429 . S
C1005 C1001 1.429 . S
C1005 C1006 1.523 . S
C1006 C990 1.368 . S
C1006 C1002 1.368 . S
C1006 C1005 1.523 . S
H1007 C982 0.950 . S
H1008 C984 0.950 . S
H1009 C985 0.949 . S
H1010 C987 0.950 . S
H1011 C989 0.950 . S
C1012 C1013 1.349 . S
C1012 C1014 1.327 . S
C1012 H1037 0.950 . S
C1013 C1012 1.349 . S
C1013 C1029 1.349 . S
C1014 C1012 1.327 . S
C1014 C1033 1.429 . S
C1014 H1038 0.950 . S
C1015 C1032 1.574 . S
C1015 C1034 1.368 . S
C1015 H1039 0.949 . S
H1016 C1020 0.949 . S
C1017 C1018 1.349 . S
C1017 C1019 1.327 . S
C1017 H1040 0.950 . S
C1018 C1017 1.349 . S
C1018 C1030 1.349 . S
C1019 C1017 1.327 . S
C1019 C1035 1.429 . S
C1019 H1041 0.950 . S
C1020 H1016 0.949 . S
C1020 C1028 1.574 . S
C1020 C1036 1.368 . S
H1021 C1029 0.950 . S
H1022 C1027 0.950 . S
H1023 C1028 0.949 . S
H1024 C1030 0.950 . S
H1025 C1031 0.950 . S
H1026 C1032 0.949 . S
C1027 H1022 0.950 . S
C1027 C1029 1.327 . S
C1027 C1033 1.429 . S
C1028 C1020 1.574 . S
C1028 H1023 0.949 . S
C1028 C1034 1.368 . S
C1029 C1013 1.349 . S
C1029 H1021 0.950 . S
C1029 C1027 1.327 . S
C1030 C1018 1.349 . S
C1030 H1024 0.950 . S
C1030 C1031 1.327 . S
C1031 H1025 0.950 . S
C1031 C1030 1.327 . S
C1031 C1035 1.429 . S
C1032 C1015 1.574 . S
C1032 H1026 0.949 . S
C1032 C1036 1.368 . S
C1033 C1014 1.429 . S
C1033 C1027 1.429 . S
C1033 C1034 1.523 1_556 S
C1034 C1015 1.368 . S
C1034 C1028 1.368 . S
C1034 C1033 1.523 1_554 S
C1035 C1019 1.429 . S
C1035 C1031 1.429 . S
C1035 C1036 1.523 . S
C1036 C1020 1.368 . S
C1036 C1032 1.368 . S
C1036 C1035 1.523 . S
H1037 C1012 0.950 . S
H1038 C1014 0.950 . S
H1039 C1015 0.949 . S
H1040 C1017 0.950 . S
H1041 C1019 0.950 . S
C1042 C1043 1.349 . S
C1042 C1044 1.327 . S
C1042 H1067 0.950 . S
C1043 C1042 1.349 . S
C1043 C1059 1.349 . S
C1044 C1042 1.327 . S
C1044 C1063 1.429 . S
C1044 H1068 0.950 . S
C1045 C1062 1.574 . S
C1045 C1064 1.368 . S
C1045 H1069 0.949 . S
H1046 C1050 0.949 . S
C1047 C1048 1.349 . S
C1047 C1049 1.327 . S
C1047 H1070 0.950 . S
C1048 C1047 1.349 . S
C1048 C1060 1.349 . S
C1049 C1047 1.327 . S
C1049 C1065 1.429 . S
C1049 H1071 0.950 . S
C1050 H1046 0.949 . S
C1050 C1058 1.574 . S
C1050 C1066 1.368 . S
H1051 C1059 0.950 . S
H1052 C1057 0.950 . S
H1053 C1058 0.949 . S
H1054 C1060 0.950 . S
H1055 C1061 0.950 . S
H1056 C1062 0.949 . S
C1057 H1052 0.950 . S
C1057 C1059 1.327 . S
C1057 C1063 1.429 . S
C1058 C1050 1.574 . S
C1058 H1053 0.949 . S
C1058 C1064 1.368 . S
C1059 C1043 1.349 . S
C1059 H1051 0.950 . S
C1059 C1057 1.327 . S
C1060 C1048 1.349 . S
C1060 H1054 0.950 . S
C1060 C1061 1.327 . S
C1061 H1055 0.950 . S
C1061 C1060 1.327 . S
C1061 C1065 1.429 . S
C1062 C1045 1.574 . S
C1062 H1056 0.949 . S
C1062 C1066 1.368 . S
C1063 C1044 1.429 . S
C1063 C1057 1.429 . S
C1063 C1064 1.523 . S
C1064 C1045 1.368 . S
C1064 C1058 1.368 . S
C1064 C1063 1.523 . S
C1065 C1049 1.429 . S
C1065 C1061 1.429 . S
C1065 C1066 1.523 . S
C1066 C1050 1.368 . S
C1066 C1062 1.368 . S
C1066 C1065 1.523 . S
H1067 C1042 0.950 . S
H1068 C1044 0.950 . S
H1069 C1045 0.949 . S
H1070 C1047 0.950 . S
H1071 C1049 0.950 . S
C1072 C1073 1.349 . S
C1072 C1074 1.327 . S
C1072 H1097 0.950 . S
C1073 C1072 1.349 . S
C1073 C1089 1.349 . S
C1074 C1072 1.327 . S
C1074 C1093 1.429 . S
C1074 H1098 0.950 . S
C1075 C1092 1.574 . S
C1075 C1094 1.368 . S
C1075 H1099 0.949 . S
H1076 C1080 0.949 . S
C1077 C1078 1.349 . S
C1077 C1079 1.327 . S
C1077 H1100 0.950 . S
C1078 C1077 1.349 . S
C1078 C1090 1.349 . S
C1079 C1077 1.327 . S
C1079 C1095 1.429 . S
C1079 H1101 0.950 . S
C1080 H1076 0.949 . S
C1080 C1088 1.574 . S
C1080 C1096 1.368 . S
H1081 C1089 0.950 . S
H1082 C1087 0.950 . S
H1083 C1088 0.949 1_556 S
H1084 C1090 0.950 . S
H1085 C1091 0.950 . S
H1086 C1092 0.949 . S
C1087 H1082 0.950 . S
C1087 C1089 1.327 . S
C1087 C1093 1.429 . S
C1088 C1080 1.574 . S
C1088 H1083 0.949 1_554 S
C1088 C1094 1.368 . S
C1089 C1073 1.349 . S
C1089 H1081 0.950 . S
C1089 C1087 1.327 . S
C1090 C1078 1.349 . S
C1090 H1084 0.950 . S
C1090 C1091 1.327 . S
C1091 H1085 0.950 . S
C1091 C1090 1.327 . S
C1091 C1095 1.429 . S
C1092 C1075 1.574 . S
C1092 H1086 0.949 . S
C1092 C1096 1.368 . S
C1093 C1074 1.429 . S
C1093 C1087 1.429 . S
C1093 C1094 1.523 1_556 S
C1094 C1075 1.368 . S
C1094 C1088 1.368 . S
C1094 C1093 1.523 1_554 S
C1095 C1079 1.429 . S
C1095 C1091 1.429 . S
C1095 C1096 1.523 . S
C1096 C1080 1.368 . S
C1096 C1092 1.368 . S
C1096 C1095 1.523 . S
H1097 C1072 0.950 . S
H1098 C1074 0.950 . S
H1099 C1075 0.949 . S
H1100 C1077 0.950 . S
H1101 C1079 0.950 . S
C1102 C1103 1.349 . S
C1102 C1104 1.327 . S
C1102 H1127 0.950 . S
C1103 C1102 1.349 . S
C1103 C1119 1.349 . S
C1104 C1102 1.327 . S
C1104 C1123 1.429 . S
C1104 H1128 0.950 . S
C1105 C1122 1.574 . S
C1105 C1124 1.368 . S
C1105 H1129 0.949 . S
H1106 C1110 0.949 . S
C1107 C1108 1.349 . S
C1107 C1109 1.327 . S
C1107 H1130 0.950 . S
C1108 C1107 1.349 . S
C1108 C1120 1.349 . S
C1109 C1107 1.327 . S
C1109 C1125 1.429 . S
C1109 H1131 0.950 . S
C1110 H1106 0.949 . S
C1110 C1118 1.574 . S
C1110 C1126 1.368 . S
H1111 C1119 0.950 . S
H1112 C1117 0.950 . S
H1113 C1118 0.949 . S
H1114 C1120 0.950 . S
H1115 C1121 0.950 . S
H1116 C1122 0.949 . S
C1117 H1112 0.950 . S
C1117 C1119 1.327 . S
C1117 C1123 1.429 . S
C1118 C1110 1.574 . S
C1118 H1113 0.949 . S
C1118 C1124 1.368 . S
C1119 C1103 1.349 . S
C1119 H1111 0.950 . S
C1119 C1117 1.327 . S
C1120 C1108 1.349 . S
C1120 H1114 0.950 . S
C1120 C1121 1.327 . S
C1121 H1115 0.950 . S
C1121 C1120 1.327 . S
C1121 C1125 1.429 . S
C1122 C1105 1.574 . S
C1122 H1116 0.949 . S
C1122 C1126 1.368 . S
C1123 C1104 1.429 . S
C1123 C1117 1.429 . S
C1123 C1124 1.523 . S
C1124 C1105 1.368 . S
C1124 C1118 1.368 . S
C1124 C1123 1.523 . S
C1125 C1109 1.429 . S
C1125 C1121 1.429 . S
C1125 C1126 1.523 . S
C1126 C1110 1.368 . S
C1126 C1122 1.368 . S
C1126 C1125 1.523 . S
H1127 C1102 0.950 . S
H1128 C1104 0.950 . S
H1129 C1105 0.949 . S
H1130 C1107 0.950 . S
H1131 C1109 0.950 . S
C1132 C1133 1.349 . S
C1132 C1134 1.327 . S
C1132 H1157 0.950 . S
C1133 C1132 1.349 . S
C1133 C1149 1.349 . S
C1134 C1132 1.327 . S
C1134 C1153 1.429 . S
C1134 H1158 0.950 . S
C1135 C1152 1.574 . S
C1135 C1154 1.368 . S
C1135 H1159 0.949 1_554 S
H1136 C1140 0.949 . S
C1137 C1138 1.349 . S
C1137 C1139 1.327 . S
C1137 H1160 0.950 . S
C1138 C1137 1.349 . S
C1138 C1150 1.349 . S
C1139 C1137 1.327 . S
C1139 C1155 1.429 . S
C1139 H1161 0.950 . S
C1140 H1136 0.949 . S
C1140 C1148 1.574 . S
C1140 C1156 1.368 . S
H1141 C1149 0.950 . S
H1142 C1147 0.950 . S
H1143 C1148 0.949 . S
H1144 C1150 0.950 . S
H1145 C1151 0.950 . S
H1146 C1152 0.949 . S
C1147 H1142 0.950 . S
C1147 C1149 1.327 . S
C1147 C1153 1.429 . S
C1148 C1140 1.574 . S
C1148 H1143 0.949 . S
C1148 C1154 1.368 . S
C1149 C1133 1.349 . S
C1149 H1141 0.950 . S
C1149 C1147 1.327 . S
C1150 C1138 1.349 . S
C1150 H1144 0.950 . S
C1150 C1151 1.327 . S
C1151 H1145 0.950 . S
C1151 C1150 1.327 . S
C1151 C1155 1.429 . S
C1152 C1135 1.574 . S
C1152 H1146 0.949 . S
C1152 C1156 1.368 . S
C1153 C1134 1.429 . S
C1153 C1147 1.429 . S
C1153 C1154 1.523 1_556 S
C1154 C1135 1.368 . S
C1154 C1148 1.368 . S
C1154 C1153 1.523 1_554 S
C1155 C1139 1.429 . S
C1155 C1151 1.429 . S
C1155 C1156 1.523 . S
C1156 C1140 1.368 . S
C1156 C1152 1.368 . S
C1156 C1155 1.523 . S
H1157 C1132 0.950 . S
H1158 C1134 0.950 . S
H1159 C1135 0.949 1_556 S
H1160 C1137 0.950 . S
H1161 C1139 0.950 . S
C1162 C1163 1.349 . S
C1162 C1164 1.327 . S
C1162 H1187 0.950 . S
C1163 C1162 1.349 . S
C1163 C1179 1.349 . S
C1164 C1162 1.327 . S
C1164 C1183 1.429 . S
C1164 H1188 0.950 . S
C1165 C1182 1.574 . S
C1165 C1184 1.368 . S
C1165 H1189 0.949 . S
H1166 C1170 0.949 . S
C1167 C1168 1.349 . S
C1167 C1169 1.327 . S
C1167 H1190 0.950 . S
C1168 C1167 1.349 . S
C1168 C1180 1.349 . S
C1169 C1167 1.327 . S
C1169 C1185 1.429 . S
C1169 H1191 0.950 . S
C1170 H1166 0.949 . S
C1170 C1178 1.574 . S
C1170 C1186 1.368 . S
H1171 C1179 0.950 . S
H1172 C1177 0.950 . S
H1173 C1178 0.949 . S
H1174 C1180 0.950 . S
H1175 C1181 0.950 . S
H1176 C1182 0.949 . S
C1177 H1172 0.950 . S
C1177 C1179 1.327 . S
C1177 C1183 1.429 . S
C1178 C1170 1.574 . S
C1178 H1173 0.949 . S
C1178 C1184 1.368 . S
C1179 C1163 1.349 . S
C1179 H1171 0.950 . S
C1179 C1177 1.327 . S
C1180 C1168 1.349 . S
C1180 H1174 0.950 . S
C1180 C1181 1.327 . S
C1181 H1175 0.950 . S
C1181 C1180 1.327 . S
C1181 C1185 1.429 . S
C1182 C1165 1.574 . S
C1182 H1176 0.949 . S
C1182 C1186 1.368 . S
C1183 C1164 1.429 . S
C1183 C1177 1.429 . S
C1183 C1184 1.523 . S
C1184 C1165 1.368 . S
C1184 C1178 1.368 . S
C1184 C1183 1.523 . S
C1185 C1169 1.429 . S
C1185 C1181 1.429 . S
C1185 C1186 1.523 . S
C1186 C1170 1.368 . S
C1186 C1182 1.368 . S
C1186 C1185 1.523 . S
H1187 C1162 0.950 . S
H1188 C1164 0.950 . S
H1189 C1165 0.949 . S
H1190 C1167 0.950 . S
H1191 C1169 0.950 . S
C1192 C1193 1.349 . S
C1192 C1194 1.327 . S
C1192 H1217 0.950 . S
C1193 C1192 1.349 . S
C1193 C1209 1.349 . S
C1194 C1192 1.327 . S
C1194 C1213 1.429 . S
C1194 H1218 0.950 . S
C1195 C1212 1.574 . S
C1195 C1214 1.368 . S
C1195 H1219 0.949 . S
H1196 C1200 0.949 . S
C1197 C1198 1.349 . S
C1197 C1199 1.327 . S
C1197 H1220 0.950 . S
C1198 C1197 1.349 . S
C1198 C1210 1.349 . S
C1199 C1197 1.327 . S
C1199 C1215 1.429 . S
C1199 H1221 0.950 . S
C1200 H1196 0.949 . S
C1200 C1208 1.574 . S
C1200 C1216 1.368 . S
H1201 C1209 0.950 . S
H1202 C1207 0.950 . S
H1203 C1208 0.949 . S
H1204 C1210 0.950 . S
H1205 C1211 0.950 . S
H1206 C1212 0.949 . S
C1207 H1202 0.950 . S
C1207 C1209 1.327 . S
C1207 C1213 1.429 . S
C1208 C1200 1.574 . S
C1208 H1203 0.949 . S
C1208 C1214 1.368 . S
C1209 C1193 1.349 . S
C1209 H1201 0.950 . S
C1209 C1207 1.327 . S
C1210 C1198 1.349 . S
C1210 H1204 0.950 . S
C1210 C1211 1.327 . S
C1211 H1205 0.950 . S
C1211 C1210 1.327 . S
C1211 C1215 1.429 . S
C1212 C1195 1.574 . S
C1212 H1206 0.949 . S
C1212 C1216 1.368 . S
C1213 C1194 1.429 . S
C1213 C1207 1.429 . S
C1213 C1214 1.523 . S
C1214 C1195 1.368 . S
C1214 C1208 1.368 . S
C1214 C1213 1.523 . S
C1215 C1199 1.429 . S
C1215 C1211 1.429 . S
C1215 C1216 1.523 1_554 S
C1216 C1200 1.368 . S
C1216 C1212 1.368 . S
C1216 C1215 1.523 1_556 S
H1217 C1192 0.950 . S
H1218 C1194 0.950 . S
H1219 C1195 0.949 . S
H1220 C1197 0.950 . S
H1221 C1199 0.950 . S
C1222 C1223 1.349 . S
C1222 C1224 1.327 . S
C1222 H1247 0.950 . S
C1223 C1222 1.349 . S
C1223 C1239 1.349 . S
C1224 C1222 1.327 . S
C1224 C1243 1.429 . S
C1224 H1248 0.950 . S
C1225 C1242 1.574 . S
C1225 C1244 1.368 . S
C1225 H1249 0.949 . S
H1226 C1230 0.949 . S
C1227 C1228 1.349 . S
C1227 C1229 1.327 . S
C1227 H1250 0.950 . S
C1228 C1227 1.349 . S
C1228 C1240 1.349 . S
C1229 C1227 1.327 . S
C1229 C1245 1.429 . S
C1229 H1251 0.950 . S
C1230 H1226 0.949 . S
C1230 C1238 1.574 . S
C1230 C1246 1.368 . S
H1231 C1239 0.950 . S
H1232 C1237 0.950 . S
H1233 C1238 0.949 . S
H1234 C1240 0.950 . S
H1235 C1241 0.950 . S
H1236 C1242 0.949 . S
C1237 H1232 0.950 . S
C1237 C1239 1.327 . S
C1237 C1243 1.429 . S
C1238 C1230 1.574 . S
C1238 H1233 0.949 . S
C1238 C1244 1.368 . S
C1239 C1223 1.349 . S
C1239 H1231 0.950 . S
C1239 C1237 1.327 . S
C1240 C1228 1.349 . S
C1240 H1234 0.950 . S
C1240 C1241 1.327 . S
C1241 H1235 0.950 . S
C1241 C1240 1.327 . S
C1241 C1245 1.429 . S
C1242 C1225 1.574 . S
C1242 H1236 0.949 . S
C1242 C1246 1.368 . S
C1243 C1224 1.429 . S
C1243 C1237 1.429 . S
C1243 C1244 1.523 . S
C1244 C1225 1.368 . S
C1244 C1238 1.368 . S
C1244 C1243 1.523 . S
C1245 C1229 1.429 . S
C1245 C1241 1.429 . S
C1245 C1246 1.523 . S
C1246 C1230 1.368 . S
C1246 C1242 1.368 . S
C1246 C1245 1.523 . S
H1247 C1222 0.950 . S
H1248 C1224 0.950 . S
H1249 C1225 0.949 . S
H1250 C1227 0.950 . S
H1251 C1229 0.950 . S
C1252 C1253 1.349 . S
C1252 C1254 1.327 . S
C1252 H1277 0.950 . S
C1253 C1252 1.349 . S
C1253 C1269 1.349 . S
C1254 C1252 1.327 . S
C1254 C1273 1.429 . S
C1254 H1278 0.950 . S
C1255 C1272 1.574 . S
C1255 C1274 1.368 . S
C1255 H1279 0.949 . S
H1256 C1260 0.949 . S
C1257 C1258 1.349 . S
C1257 C1259 1.327 . S
C1257 H1280 0.950 . S
C1258 C1257 1.349 . S
C1258 C1270 1.349 . S
C1259 C1257 1.327 . S
C1259 C1275 1.429 . S
C1259 H1281 0.950 . S
C1260 H1256 0.949 . S
C1260 C1268 1.574 . S
C1260 C1276 1.368 . S
H1261 C1269 0.950 . S
H1262 C1267 0.950 . S
H1263 C1268 0.949 . S
H1264 C1270 0.950 . S
H1265 C1271 0.950 . S
H1266 C1272 0.949 . S
C1267 H1262 0.950 . S
C1267 C1269 1.327 . S
C1267 C1273 1.429 . S
C1268 C1260 1.574 . S
C1268 H1263 0.949 . S
C1268 C1274 1.368 . S
C1269 C1253 1.349 . S
C1269 H1261 0.950 . S
C1269 C1267 1.327 . S
C1270 C1258 1.349 . S
C1270 H1264 0.950 . S
C1270 C1271 1.327 . S
C1271 H1265 0.950 . S
C1271 C1270 1.327 . S
C1271 C1275 1.429 . S
C1272 C1255 1.574 . S
C1272 H1266 0.949 . S
C1272 C1276 1.368 . S
C1273 C1254 1.429 . S
C1273 C1267 1.429 . S
C1273 C1274 1.523 . S
C1274 C1255 1.368 . S
C1274 C1268 1.368 . S
C1274 C1273 1.523 . S
C1275 C1259 1.429 . S
C1275 C1271 1.429 . S
C1275 C1276 1.523 1_554 S
C1276 C1260 1.368 . S
C1276 C1272 1.368 . S
C1276 C1275 1.523 1_556 S
H1277 C1252 0.950 . S
H1278 C1254 0.950 . S
H1279 C1255 0.949 . S
H1280 C1257 0.950 . S
H1281 C1259 0.950 . S
C1282 C1283 1.349 . S
C1282 C1284 1.327 . S
C1282 H1307 0.950 . S
C1283 C1282 1.349 . S
C1283 C1299 1.349 . S
C1284 C1282 1.327 . S
C1284 C1303 1.429 . S
C1284 H1308 0.950 . S
C1285 C1302 1.574 . S
C1285 C1304 1.368 . S
C1285 H1309 0.949 . S
H1286 C1290 0.949 . S
C1287 C1288 1.349 . S
C1287 C1289 1.327 . S
C1287 H1310 0.950 . S
C1288 C1287 1.349 . S
C1288 C1300 1.349 . S
C1289 C1287 1.327 . S
C1289 C1305 1.429 . S
C1289 H1311 0.950 . S
C1290 H1286 0.949 . S
C1290 C1298 1.574 . S
C1290 C1306 1.368 . S
H1291 C1299 0.950 . S
H1292 C1297 0.950 . S
H1293 C1298 0.949 . S
H1294 C1300 0.950 . S
H1295 C1301 0.950 . S
H1296 C1302 0.949 . S
C1297 H1292 0.950 . S
C1297 C1299 1.327 . S
C1297 C1303 1.429 . S
C1298 C1290 1.574 . S
C1298 H1293 0.949 . S
C1298 C1304 1.368 . S
C1299 C1283 1.349 . S
C1299 H1291 0.950 . S
C1299 C1297 1.327 . S
C1300 C1288 1.349 . S
C1300 H1294 0.950 . S
C1300 C1301 1.327 . S
C1301 H1295 0.950 . S
C1301 C1300 1.327 . S
C1301 C1305 1.429 . S
C1302 C1285 1.574 . S
C1302 H1296 0.949 . S
C1302 C1306 1.368 . S
C1303 C1284 1.429 . S
C1303 C1297 1.429 . S
C1303 C1304 1.523 . S
C1304 C1285 1.368 . S
C1304 C1298 1.368 . S
C1304 C1303 1.523 . S
C1305 C1289 1.429 . S
C1305 C1301 1.429 . S
C1305 C1306 1.523 . S
C1306 C1290 1.368 . S
C1306 C1302 1.368 . S
C1306 C1305 1.523 . S
H1307 C1282 0.950 . S
H1308 C1284 0.950 . S
H1309 C1285 0.949 . S
H1310 C1287 0.950 . S
H1311 C1289 0.950 . S
C1312 C1313 1.349 1_545 S
C1312 C1314 1.327 . S
C1312 H1337 0.950 1_545 S
C1313 C1312 1.349 1_565 S
C1313 C1329 1.349 1_565 S
C1314 C1312 1.327 . S
C1314 C1333 1.429 . S
C1314 H1338 0.950 . S
C1315 C1332 1.574 . S
C1315 C1334 1.368 . S
C1315 H1339 0.949 . S
H1316 C1320 0.949 . S
C1317 C1318 1.349 . S
C1317 C1319 1.327 . S
C1317 H1340 0.950 . S
C1318 C1317 1.349 . S
C1318 C1330 1.349 . S
C1319 C1317 1.327 . S
C1319 C1335 1.429 . S
C1319 H1341 0.950 . S
C1320 H1316 0.949 . S
C1320 C1328 1.574 . S
C1320 C1336 1.368 . S
H1321 C1329 0.951 . S
H1322 C1327 0.950 . S
H1323 C1328 0.949 . S
H1324 C1330 0.950 . S
H1325 C1331 0.950 . S
H1326 C1332 0.949 . S
C1327 H1322 0.950 . S
C1327 C1329 1.327 . S
C1327 C1333 1.429 . S
C1328 C1320 1.574 . S
C1328 H1323 0.949 . S
C1328 C1334 1.368 . S
C1329 C1313 1.349 1_545 S
C1329 H1321 0.951 . S
C1329 C1327 1.327 . S
C1330 C1318 1.349 . S
C1330 H1324 0.950 . S
C1330 C1331 1.327 . S
C1331 H1325 0.950 . S
C1331 C1330 1.327 . S
C1331 C1335 1.429 . S
C1332 C1315 1.574 . S
C1332 H1326 0.949 . S
C1332 C1336 1.368 . S
C1333 C1314 1.429 . S
C1333 C1327 1.429 . S
C1333 C1334 1.523 . S
C1334 C1315 1.368 . S
C1334 C1328 1.368 . S
C1334 C1333 1.523 . S
C1335 C1319 1.429 . S
C1335 C1331 1.429 . S
C1335 C1336 1.523 . S
C1336 C1320 1.368 . S
C1336 C1332 1.368 . S
C1336 C1335 1.523 . S
H1337 C1312 0.950 1_565 S
H1338 C1314 0.950 . S
H1339 C1315 0.949 . S
H1340 C1317 0.950 . S
H1341 C1319 0.950 . S
C1342 C1343 1.349 . S
C1342 C1344 1.327 . S
C1342 H1367 0.950 . S
C1343 C1342 1.349 . S
C1343 C1359 1.349 . S
C1344 C1342 1.327 . S
C1344 C1363 1.429 . S
C1344 H1368 0.950 . S
C1345 C1362 1.574 . S
C1345 C1364 1.368 . S
C1345 H1369 0.949 . S
H1346 C1350 0.949 . S
C1347 C1348 1.349 . S
C1347 C1349 1.327 . S
C1347 H1370 0.950 . S
C1348 C1347 1.349 . S
C1348 C1360 1.349 . S
C1349 C1347 1.327 . S
C1349 C1365 1.429 . S
C1349 H1371 0.950 . S
C1350 H1346 0.949 . S
C1350 C1358 1.574 . S
C1350 C1366 1.368 . S
H1351 C1359 0.950 . S
H1352 C1357 0.950 . S
H1353 C1358 0.949 . S
H1354 C1360 0.950 . S
H1355 C1361 0.950 . S
H1356 C1362 0.949 . S
C1357 H1352 0.950 . S
C1357 C1359 1.327 . S
C1357 C1363 1.429 . S
C1358 C1350 1.574 . S
C1358 H1353 0.949 . S
C1358 C1364 1.368 . S
C1359 C1343 1.349 . S
C1359 H1351 0.950 . S
C1359 C1357 1.327 . S
C1360 C1348 1.349 . S
C1360 H1354 0.950 . S
C1360 C1361 1.327 . S
C1361 H1355 0.950 . S
C1361 C1360 1.327 . S
C1361 C1365 1.429 . S
C1362 C1345 1.574 . S
C1362 H1356 0.949 . S
C1362 C1366 1.368 . S
C1363 C1344 1.429 . S
C1363 C1357 1.429 . S
C1363 C1364 1.523 . S
C1364 C1345 1.368 . S
C1364 C1358 1.368 . S
C1364 C1363 1.523 . S
C1365 C1349 1.429 . S
C1365 C1361 1.429 . S
C1365 C1366 1.523 . S
C1366 C1350 1.368 . S
C1366 C1362 1.368 . S
C1366 C1365 1.523 . S
H1367 C1342 0.950 . S
H1368 C1344 0.950 . S
H1369 C1345 0.949 . S
H1370 C1347 0.950 . S
H1371 C1349 0.950 . S
C1372 C1373 1.353 . S
C1372 C1374 1.308 1_655 S
C1372 H1397 0.966 . S
C1373 C1372 1.353 . S
C1373 C1389 1.349 1_655 S
C1374 C1372 1.308 1_455 S
C1374 C1393 1.429 . S
C1374 H1398 0.950 . S
C1375 C1392 1.574 . S
C1375 C1394 1.368 . S
C1375 H1399 0.949 . S
H1376 C1380 0.949 . S
C1377 C1378 1.349 . S
C1377 C1379 1.327 . S
C1377 H1400 0.950 . S
C1378 C1377 1.349 . S
C1378 C1390 1.349 . S
C1379 C1377 1.327 . S
C1379 C1395 1.429 . S
C1379 H1401 0.950 . S
C1380 H1376 0.949 . S
C1380 C1388 1.574 . S
C1380 C1396 1.368 . S
H1381 C1389 0.950 . S
H1382 C1387 0.950 . S
H1383 C1388 0.949 . S
H1384 C1390 0.950 . S
H1385 C1391 0.950 . S
H1386 C1392 0.949 . S
C1387 H1382 0.950 . S
C1387 C1389 1.327 . S
C1387 C1393 1.429 . S
C1388 C1380 1.574 . S
C1388 H1383 0.949 . S
C1388 C1394 1.368 . S
C1389 C1373 1.349 1_455 S
C1389 H1381 0.950 . S
C1389 C1387 1.327 . S
C1390 C1378 1.349 . S
C1390 H1384 0.950 . S
C1390 C1391 1.327 . S
C1391 H1385 0.950 . S
C1391 C1390 1.327 . S
C1391 C1395 1.429 . S
C1392 C1375 1.574 . S
C1392 H1386 0.949 . S
C1392 C1396 1.368 . S
C1393 C1374 1.429 . S
C1393 C1387 1.429 . S
C1393 C1394 1.523 . S
C1394 C1375 1.368 . S
C1394 C1388 1.368 . S
C1394 C1393 1.523 . S
C1395 C1379 1.429 . S
C1395 C1391 1.429 . S
C1395 C1396 1.523 . S
C1396 C1380 1.368 . S
C1396 C1392 1.368 . S
C1396 C1395 1.523 . S
H1397 C1372 0.966 . S
H1398 C1374 0.950 . S
H1399 C1375 0.949 . S
H1400 C1377 0.950 . S
H1401 C1379 0.950 . S
C1402 C1403 1.349 1_545 S
C1402 C1404 1.327 . S
C1402 H1427 0.950 . S
C1403 C1402 1.349 1_565 S
C1403 C1419 1.349 . S
C1404 C1402 1.327 . S
C1404 C1423 1.429 . S
C1404 H1428 0.950 . S
C1405 C1422 1.574 . S
C1405 C1424 1.368 . S
C1405 H1429 0.949 . S
H1406 C1410 0.949 . S
C1407 C1408 1.349 . S
C1407 C1409 1.327 1_655 S
C1407 H1430 0.950 . S
C1408 C1407 1.349 . S
C1408 C1420 1.349 1_655 S
C1409 C1407 1.327 1_455 S
C1409 C1425 1.429 . S
C1409 H1431 0.950 . S
C1410 H1406 0.949 . S
C1410 C1418 1.574 . S
C1410 C1426 1.368 . S
H1411 C1419 0.950 . S
H1412 C1417 0.942 1_565 S
H1413 C1418 0.949 . S
H1414 C1420 0.950 . S
H1415 C1421 0.950 . S
H1416 C1422 0.949 . S
C1417 H1412 0.942 1_545 S
C1417 C1419 1.327 1_545 S
C1417 C1423 1.429 . S
C1418 C1410 1.574 . S
C1418 H1413 0.949 . S
C1418 C1424 1.368 . S
C1419 C1403 1.349 . S
C1419 H1411 0.950 . S
C1419 C1417 1.327 1_565 S
C1420 C1408 1.349 1_455 S
C1420 H1414 0.950 . S
C1420 C1421 1.327 . S
C1421 H1415 0.950 . S
C1421 C1420 1.327 . S
C1421 C1425 1.429 . S
C1422 C1405 1.574 . S
C1422 H1416 0.949 . S
C1422 C1426 1.368 . S
C1423 C1404 1.429 . S
C1423 C1417 1.429 . S
C1423 C1424 1.523 . S
C1424 C1405 1.368 . S
C1424 C1418 1.368 . S
C1424 C1423 1.523 . S
C1425 C1409 1.429 . S
C1425 C1421 1.429 . S
C1425 C1426 1.523 . S
C1426 C1410 1.368 . S
C1426 C1422 1.368 . S
C1426 C1425 1.523 . S
H1427 C1402 0.950 . S
H1428 C1404 0.950 . S
H1429 C1405 0.949 . S
H1430 C1407 0.950 . S
H1431 C1409 0.950 . S
C1432 C1433 1.349 1_565 S
C1432 C1434 1.327 . S
C1432 H1457 0.950 . S
C1433 C1432 1.349 1_545 S
C1433 C1449 1.349 . S
C1434 C1432 1.327 . S
C1434 C1453 1.429 . S
C1434 H1458 0.950 . S
C1435 C1452 1.574 . S
C1435 C1454 1.368 . S
C1435 H1459 0.949 . S
H1436 C1440 0.949 . S
C1437 C1438 1.349 . S
C1437 C1439 1.327 . S
C1437 H1460 0.950 . S
C1438 C1437 1.349 . S
C1438 C1450 1.349 . S
C1439 C1437 1.327 . S
C1439 C1455 1.429 . S
C1439 H1461 0.950 . S
C1440 H1436 0.949 . S
C1440 C1448 1.574 . S
C1440 C1456 1.368 . S
H1441 C1449 0.950 . S
H1442 C1447 0.950 . S
H1443 C1448 0.949 . S
H1444 C1450 0.950 . S
H1445 C1451 0.950 . S
H1446 C1452 0.949 . S
C1447 H1442 0.950 . S
C1447 C1449 1.327 1_565 S
C1447 C1453 1.429 . S
C1448 C1440 1.574 . S
C1448 H1443 0.949 . S
C1448 C1454 1.368 . S
C1449 C1433 1.349 . S
C1449 H1441 0.950 . S
C1449 C1447 1.327 1_545 S
C1450 C1438 1.349 . S
C1450 H1444 0.950 . S
C1450 C1451 1.327 . S
C1451 H1445 0.950 . S
C1451 C1450 1.327 . S
C1451 C1455 1.429 . S
C1452 C1435 1.574 . S
C1452 H1446 0.949 . S
C1452 C1456 1.368 . S
C1453 C1434 1.429 . S
C1453 C1447 1.429 . S
C1453 C1454 1.523 . S
C1454 C1435 1.368 . S
C1454 C1448 1.368 . S
C1454 C1453 1.523 . S
C1455 C1439 1.429 . S
C1455 C1451 1.429 . S
C1455 C1456 1.523 . S
C1456 C1440 1.368 . S
C1456 C1452 1.368 . S
C1456 C1455 1.523 . S
H1457 C1432 0.950 . S
H1458 C1434 0.950 . S
H1459 C1435 0.949 . S
H1460 C1437 0.950 . S
H1461 C1439 0.950 . S
C1462 C1463 1.349 . S
C1462 C1464 1.327 . S
C1462 H1487 0.950 . S
C1463 C1462 1.349 . S
C1463 C1479 1.349 . S
C1464 C1462 1.327 . S
C1464 C1483 1.429 . S
C1464 H1488 0.950 . S
C1465 C1482 1.574 . S
C1465 C1484 1.368 . S
C1465 H1489 0.949 . S
H1466 C1470 0.949 . S
C1467 C1468 1.349 . S
C1467 C1469 1.327 . S
C1467 H1490 0.950 . S
C1468 C1467 1.349 . S
C1468 C1480 1.349 . S
C1469 C1467 1.327 . S
C1469 C1485 1.429 . S
C1469 H1491 0.950 . S
C1470 H1466 0.949 . S
C1470 C1478 1.574 . S
C1470 C1486 1.368 . S
H1471 C1479 0.950 . S
H1472 C1477 0.950 . S
H1473 C1478 0.949 . S
H1474 C1480 0.950 . S
H1475 C1481 0.950 . S
H1476 C1482 0.949 . S
C1477 H1472 0.950 . S
C1477 C1479 1.327 . S
C1477 C1483 1.429 . S
C1478 C1470 1.574 . S
C1478 H1473 0.949 . S
C1478 C1484 1.368 . S
C1479 C1463 1.349 . S
C1479 H1471 0.950 . S
C1479 C1477 1.327 . S
C1480 C1468 1.349 . S
C1480 H1474 0.950 . S
C1480 C1481 1.327 . S
C1481 H1475 0.950 . S
C1481 C1480 1.327 . S
C1481 C1485 1.429 . S
C1482 C1465 1.574 . S
C1482 H1476 0.949 . S
C1482 C1486 1.368 . S
C1483 C1464 1.429 . S
C1483 C1477 1.429 . S
C1483 C1484 1.523 . S
C1484 C1465 1.368 . S
C1484 C1478 1.368 . S
C1484 C1483 1.523 . S
C1485 C1469 1.429 . S
C1485 C1481 1.429 . S
C1485 C1486 1.523 . S
C1486 C1470 1.368 . S
C1486 C1482 1.368 . S
C1486 C1485 1.523 . S
H1487 C1462 0.950 . S
H1488 C1464 0.950 . S
H1489 C1465 0.949 . S
H1490 C1467 0.950 . S
H1491 C1469 0.950 . S
C1492 C1493 1.349 . S
C1492 C1494 1.327 . S
C1492 H1517 0.950 . S
C1493 C1492 1.349 . S
C1493 C1509 1.349 . S
C1494 C1492 1.327 . S
C1494 C1513 1.429 . S
C1494 H1518 0.950 . S
C1495 C1512 1.574 . S
C1495 C1514 1.368 . S
C1495 H1519 0.949 . S
H1496 C1500 0.949 . S
C1497 C1498 1.349 1_655 S
C1497 C1499 1.327 . S
C1497 H1520 0.950 . S
C1498 C1497 1.349 1_455 S
C1498 C1510 1.349 . S
C1499 C1497 1.327 . S
C1499 C1515 1.429 . S
C1499 H1521 0.950 . S
C1500 H1496 0.949 . S
C1500 C1508 1.574 . S
C1500 C1516 1.368 . S
H1501 C1509 0.950 . S
H1502 C1507 0.950 . S
H1503 C1508 0.949 . S
H1504 C1510 0.950 . S
H1505 C1511 0.950 . S
H1506 C1512 0.949 . S
C1507 H1502 0.950 . S
C1507 C1509 1.327 . S
C1507 C1513 1.429 . S
C1508 C1500 1.574 . S
C1508 H1503 0.949 . S
C1508 C1514 1.368 . S
C1509 C1493 1.349 . S
C1509 H1501 0.950 . S
C1509 C1507 1.327 . S
C1510 C1498 1.349 . S
C1510 H1504 0.950 . S
C1510 C1511 1.327 1_455 S
C1511 H1505 0.950 . S
C1511 C1510 1.327 1_655 S
C1511 C1515 1.429 . S
C1512 C1495 1.574 . S
C1512 H1506 0.949 . S
C1512 C1516 1.368 . S
C1513 C1494 1.429 . S
C1513 C1507 1.429 . S
C1513 C1514 1.523 . S
C1514 C1495 1.368 . S
C1514 C1508 1.368 . S
C1514 C1513 1.523 . S
C1515 C1499 1.429 . S
C1515 C1511 1.429 . S
C1515 C1516 1.523 . S
C1516 C1500 1.368 . S
C1516 C1512 1.368 . S
C1516 C1515 1.523 . S
H1517 C1492 0.950 . S
H1518 C1494 0.950 . S
H1519 C1495 0.949 . S
H1520 C1497 0.950 . S
H1521 C1499 0.950 . S
C1522 C1523 1.349 1_565 S
C1522 C1524 1.327 . S
C1522 H1547 0.950 . S
C1523 C1522 1.349 1_545 S
C1523 C1539 1.349 . S
C1524 C1522 1.327 . S
C1524 C1543 1.429 . S
C1524 H1548 0.950 . S
C1525 C1542 1.574 . S
C1525 C1544 1.368 . S
C1525 H1549 0.949 . S
H1526 C1530 0.949 . S
C1527 C1528 1.349 . S
C1527 C1529 1.326 1_455 S
C1527 H1550 0.951 . S
C1528 C1527 1.349 . S
C1528 C1540 1.349 1_455 S
C1529 C1527 1.326 1_655 S
C1529 C1545 1.429 . S
C1529 H1551 0.950 . S
C1530 H1526 0.949 . S
C1530 C1538 1.574 . S
C1530 C1546 1.368 . S
H1531 C1539 0.950 . S
H1532 C1537 0.950 . S
H1533 C1538 0.949 . S
H1534 C1540 0.950 . S
H1535 C1541 0.950 . S
H1536 C1542 0.949 . S
C1537 H1532 0.950 . S
C1537 C1539 1.327 1_565 S
C1537 C1543 1.429 . S
C1538 C1530 1.574 . S
C1538 H1533 0.949 . S
C1538 C1544 1.368 . S
C1539 C1523 1.349 . S
C1539 H1531 0.950 . S
C1539 C1537 1.327 1_545 S
C1540 C1528 1.349 1_655 S
C1540 H1534 0.950 . S
C1540 C1541 1.327 . S
C1541 H1535 0.950 . S
C1541 C1540 1.327 . S
C1541 C1545 1.429 . S
C1542 C1525 1.574 . S
C1542 H1536 0.949 . S
C1542 C1546 1.368 . S
C1543 C1524 1.429 . S
C1543 C1537 1.429 . S
C1543 C1544 1.523 . S
C1544 C1525 1.368 . S
C1544 C1538 1.368 . S
C1544 C1543 1.523 . S
C1545 C1529 1.429 . S
C1545 C1541 1.429 . S
C1545 C1546 1.523 . S
C1546 C1530 1.368 . S
C1546 C1542 1.368 . S
C1546 C1545 1.523 . S
H1547 C1522 0.950 . S
H1548 C1524 0.950 . S
H1549 C1525 0.949 . S
H1550 C1527 0.951 . S
H1551 C1529 0.950 . S
C1552 C1553 1.349 . S
C1552 C1554 1.327 . S
C1552 H1577 0.950 . S
C1553 C1552 1.349 . S
C1553 C1569 1.349 . S
C1554 C1552 1.327 . S
C1554 C1573 1.429 . S
C1554 H1578 0.950 . S
C1555 C1572 1.574 . S
C1555 C1574 1.368 . S
C1555 H1579 0.949 . S
H1556 C1560 0.949 . S
C1557 C1558 1.349 . S
C1557 C1559 1.327 . S
C1557 H1580 0.950 . S
C1558 C1557 1.349 . S
C1558 C1570 1.349 . S
C1559 C1557 1.327 . S
C1559 C1575 1.429 . S
C1559 H1581 0.950 . S
C1560 H1556 0.949 . S
C1560 C1568 1.574 . S
C1560 C1576 1.368 . S
H1561 C1569 0.950 . S
H1562 C1567 0.950 . S
H1563 C1568 0.949 . S
H1564 C1570 0.950 . S
H1565 C1571 0.950 . S
H1566 C1572 0.949 . S
C1567 H1562 0.950 . S
C1567 C1569 1.327 . S
C1567 C1573 1.429 . S
C1568 C1560 1.574 . S
C1568 H1563 0.949 . S
C1568 C1574 1.368 1_556 S
C1569 C1553 1.349 . S
C1569 H1561 0.950 . S
C1569 C1567 1.327 . S
C1570 C1558 1.349 . S
C1570 H1564 0.950 . S
C1570 C1571 1.327 . S
C1571 H1565 0.950 . S
C1571 C1570 1.327 . S
C1571 C1575 1.429 . S
C1572 C1555 1.574 . S
C1572 H1566 0.949 . S
C1572 C1576 1.368 1_554 S
C1573 C1554 1.429 . S
C1573 C1567 1.429 . S
C1573 C1574 1.523 . S
C1574 C1555 1.368 . S
C1574 C1568 1.368 1_554 S
C1574 C1573 1.523 . S
C1575 C1559 1.429 . S
C1575 C1571 1.429 . S
C1575 C1576 1.523 . S
C1576 C1560 1.368 . S
C1576 C1572 1.368 1_556 S
C1576 C1575 1.523 . S
H1577 C1552 0.950 . S
H1578 C1554 0.950 . S
H1579 C1555 0.949 . S
H1580 C1557 0.950 . S
H1581 C1559 0.950 . S
C1582 C1583 1.349 . S
C1582 C1584 1.327 . S
C1582 H1607 0.950 . S
C1583 C1582 1.349 . S
C1583 C1599 1.349 . S
C1584 C1582 1.327 . S
C1584 C1603 1.429 . S
C1584 H1608 0.950 . S
C1585 C1602 1.574 . S
C1585 C1604 1.368 . S
C1585 H1609 0.949 . S
H1586 C1590 0.949 . S
C1587 C1588 1.349 . S
C1587 C1589 1.327 . S
C1587 H1610 0.950 . S
C1588 C1587 1.349 . S
C1588 C1600 1.349 . S
C1589 C1587 1.327 . S
C1589 C1605 1.429 . S
C1589 H1611 0.950 . S
C1590 H1586 0.949 . S
C1590 C1598 1.574 . S
C1590 C1606 1.368 . S
H1591 C1599 0.950 . S
H1592 C1597 0.950 . S
H1593 C1598 0.949 . S
H1594 C1600 0.950 . S
H1595 C1601 0.950 . S
H1596 C1602 0.949 . S
C1597 H1592 0.950 . S
C1597 C1599 1.327 . S
C1597 C1603 1.429 . S
C1598 C1590 1.574 . S
C1598 H1593 0.949 . S
C1598 C1604 1.368 . S
C1599 C1583 1.349 . S
C1599 H1591 0.950 . S
C1599 C1597 1.327 . S
C1600 C1588 1.349 . S
C1600 H1594 0.950 . S
C1600 C1601 1.327 . S
C1601 H1595 0.950 . S
C1601 C1600 1.327 . S
C1601 C1605 1.429 . S
C1602 C1585 1.574 . S
C1602 H1596 0.949 . S
C1602 C1606 1.368 . S
C1603 C1584 1.429 . S
C1603 C1597 1.429 . S
C1603 C1604 1.523 . S
C1604 C1585 1.368 . S
C1604 C1598 1.368 . S
C1604 C1603 1.523 . S
C1605 C1589 1.429 . S
C1605 C1601 1.429 . S
C1605 C1606 1.523 . S
C1606 C1590 1.368 . S
C1606 C1602 1.368 . S
C1606 C1605 1.523 . S
H1607 C1582 0.950 . S
H1608 C1584 0.950 . S
H1609 C1585 0.949 . S
H1610 C1587 0.950 . S
H1611 C1589 0.950 . S
C1612 C1613 1.349 . S
C1612 C1614 1.327 . S
C1612 H1637 0.950 . S
C1613 C1612 1.349 . S
C1613 C1629 1.349 . S
C1614 C1612 1.327 . S
C1614 C1633 1.429 . S
C1614 H1638 0.950 . S
C1615 C1632 1.574 . S
C1615 C1634 1.368 . S
C1615 H1639 0.949 . S
H1616 C1620 0.949 . S
C1617 C1618 1.349 . S
C1617 C1619 1.327 . S
C1617 H1640 0.950 . S
C1618 C1617 1.349 . S
C1618 C1630 1.349 . S
C1619 C1617 1.327 . S
C1619 C1635 1.429 . S
C1619 H1641 0.950 . S
C1620 H1616 0.949 . S
C1620 C1628 1.574 . S
C1620 C1636 1.368 . S
H1621 C1629 0.950 . S
H1622 C1627 0.950 . S
H1623 C1628 0.949 . S
H1624 C1630 0.950 . S
H1625 C1631 0.950 . S
H1626 C1632 0.949 . S
C1627 H1622 0.950 . S
C1627 C1629 1.327 . S
C1627 C1633 1.429 . S
C1628 C1620 1.574 . S
C1628 H1623 0.949 . S
C1628 C1634 1.368 1_556 S
C1629 C1613 1.349 . S
C1629 H1621 0.950 . S
C1629 C1627 1.327 . S
C1630 C1618 1.349 . S
C1630 H1624 0.950 . S
C1630 C1631 1.327 . S
C1631 H1625 0.950 . S
C1631 C1630 1.327 . S
C1631 C1635 1.429 . S
C1632 C1615 1.574 . S
C1632 H1626 0.949 . S
C1632 C1636 1.368 1_554 S
C1633 C1614 1.429 . S
C1633 C1627 1.429 . S
C1633 C1634 1.523 . S
C1634 C1615 1.368 . S
C1634 C1628 1.368 1_554 S
C1634 C1633 1.523 . S
C1635 C1619 1.429 . S
C1635 C1631 1.429 . S
C1635 C1636 1.523 . S
C1636 C1620 1.368 . S
C1636 C1632 1.368 1_556 S
C1636 C1635 1.523 . S
H1637 C1612 0.950 . S
H1638 C1614 0.950 . S
H1639 C1615 0.949 . S
H1640 C1617 0.950 . S
H1641 C1619 0.950 . S
C1642 C1643 1.349 . S
C1642 C1644 1.327 . S
C1642 H1667 0.950 . S
C1643 C1642 1.349 . S
C1643 C1659 1.349 . S
C1644 C1642 1.327 . S
C1644 C1663 1.429 . S
C1644 H1668 0.950 . S
C1645 C1662 1.574 . S
C1645 C1664 1.368 . S
C1645 H1669 0.949 . S
H1646 C1650 0.949 . S
C1647 C1648 1.349 . S
C1647 C1649 1.327 . S
C1647 H1670 0.950 . S
C1648 C1647 1.349 . S
C1648 C1660 1.349 . S
C1649 C1647 1.327 . S
C1649 C1665 1.429 . S
C1649 H1671 0.950 . S
C1650 H1646 0.949 . S
C1650 C1658 1.574 . S
C1650 C1666 1.368 . S
H1651 C1659 0.950 . S
H1652 C1657 0.950 . S
H1653 C1658 0.949 . S
H1654 C1660 0.950 . S
H1655 C1661 0.950 . S
H1656 C1662 0.949 . S
C1657 H1652 0.950 . S
C1657 C1659 1.327 . S
C1657 C1663 1.429 . S
C1658 C1650 1.574 . S
C1658 H1653 0.949 . S
C1658 C1664 1.368 . S
C1659 C1643 1.349 . S
C1659 H1651 0.950 . S
C1659 C1657 1.327 . S
C1660 C1648 1.349 . S
C1660 H1654 0.950 . S
C1660 C1661 1.327 . S
C1661 H1655 0.950 . S
C1661 C1660 1.327 . S
C1661 C1665 1.429 . S
C1662 C1645 1.574 . S
C1662 H1656 0.949 . S
C1662 C1666 1.368 . S
C1663 C1644 1.429 . S
C1663 C1657 1.429 . S
C1663 C1664 1.523 . S
C1664 C1645 1.368 . S
C1664 C1658 1.368 . S
C1664 C1663 1.523 . S
C1665 C1649 1.429 . S
C1665 C1661 1.429 . S
C1665 C1666 1.523 . S
C1666 C1650 1.368 . S
C1666 C1662 1.368 . S
C1666 C1665 1.523 . S
H1667 C1642 0.950 . S
H1668 C1644 0.950 . S
H1669 C1645 0.949 . S
H1670 C1647 0.950 . S
H1671 C1649 0.950 . S
C1672 C1673 1.349 . S
C1672 C1674 1.327 . S
C1672 H1697 0.950 . S
C1673 C1672 1.349 . S
C1673 C1689 1.349 . S
C1674 C1672 1.327 . S
C1674 C1693 1.429 . S
C1674 H1698 0.950 . S
C1675 C1692 1.574 1_554 S
C1675 C1694 1.368 . S
C1675 H1699 0.949 . S
H1676 C1680 0.949 . S
C1677 C1678 1.349 . S
C1677 C1679 1.327 . S
C1677 H1700 0.950 . S
C1678 C1677 1.349 . S
C1678 C1690 1.349 . S
C1679 C1677 1.327 . S
C1679 C1695 1.429 . S
C1679 H1701 0.950 . S
C1680 H1676 0.949 . S
C1680 C1688 1.574 1_556 S
C1680 C1696 1.368 . S
H1681 C1689 0.950 . S
H1682 C1687 0.950 . S
H1683 C1688 0.949 . S
H1684 C1690 0.950 . S
H1685 C1691 0.950 . S
H1686 C1692 0.949 . S
C1687 H1682 0.950 . S
C1687 C1689 1.327 . S
C1687 C1693 1.429 . S
C1688 C1680 1.574 1_554 S
C1688 H1683 0.949 . S
C1688 C1694 1.368 . S
C1689 C1673 1.349 . S
C1689 H1681 0.950 . S
C1689 C1687 1.327 . S
C1690 C1678 1.349 . S
C1690 H1684 0.950 . S
C1690 C1691 1.327 . S
C1691 H1685 0.950 . S
C1691 C1690 1.327 . S
C1691 C1695 1.429 . S
C1692 C1675 1.574 1_556 S
C1692 H1686 0.949 . S
C1692 C1696 1.368 . S
C1693 C1674 1.429 . S
C1693 C1687 1.429 . S
C1693 C1694 1.523 . S
C1694 C1675 1.368 . S
C1694 C1688 1.368 . S
C1694 C1693 1.523 . S
C1695 C1679 1.429 . S
C1695 C1691 1.429 . S
C1695 C1696 1.523 . S
C1696 C1680 1.368 . S
C1696 C1692 1.368 . S
C1696 C1695 1.523 . S
H1697 C1672 0.950 . S
H1698 C1674 0.950 . S
H1699 C1675 0.949 . S
H1700 C1677 0.950 . S
H1701 C1679 0.950 . S
C1702 C1703 1.349 . S
C1702 C1704 1.327 . S
C1702 H1727 0.950 . S
C1703 C1702 1.349 . S
C1703 C1719 1.349 . S
C1704 C1702 1.327 . S
C1704 C1723 1.429 . S
C1704 H1728 0.950 . S
C1705 C1722 1.574 . S
C1705 C1724 1.368 . S
C1705 H1729 0.949 . S
H1706 C1710 0.949 . S
C1707 C1708 1.349 . S
C1707 C1709 1.327 . S
C1707 H1730 0.950 . S
C1708 C1707 1.349 . S
C1708 C1720 1.349 . S
C1709 C1707 1.327 . S
C1709 C1725 1.429 . S
C1709 H1731 0.950 . S
C1710 H1706 0.949 . S
C1710 C1718 1.574 . S
C1710 C1726 1.368 . S
H1711 C1719 0.950 . S
H1712 C1717 0.950 . S
H1713 C1718 0.949 . S
H1714 C1720 0.950 . S
H1715 C1721 0.950 . S
H1716 C1722 0.949 . S
C1717 H1712 0.950 . S
C1717 C1719 1.327 . S
C1717 C1723 1.429 . S
C1718 C1710 1.574 . S
C1718 H1713 0.949 . S
C1718 C1724 1.368 . S
C1719 C1703 1.349 . S
C1719 H1711 0.950 . S
C1719 C1717 1.327 . S
C1720 C1708 1.349 . S
C1720 H1714 0.950 . S
C1720 C1721 1.327 . S
C1721 H1715 0.950 . S
C1721 C1720 1.327 . S
C1721 C1725 1.429 . S
C1722 C1705 1.574 . S
C1722 H1716 0.949 . S
C1722 C1726 1.368 . S
C1723 C1704 1.429 . S
C1723 C1717 1.429 . S
C1723 C1724 1.523 . S
C1724 C1705 1.368 . S
C1724 C1718 1.368 . S
C1724 C1723 1.523 . S
C1725 C1709 1.429 . S
C1725 C1721 1.429 . S
C1725 C1726 1.523 . S
C1726 C1710 1.368 . S
C1726 C1722 1.368 . S
C1726 C1725 1.523 . S
H1727 C1702 0.950 . S
H1728 C1704 0.950 . S
H1729 C1705 0.949 . S
H1730 C1707 0.950 . S
H1731 C1709 0.950 . S
C1732 C1733 1.349 . S
C1732 C1734 1.327 . S
C1732 H1757 0.950 . S
C1733 C1732 1.349 . S
C1733 C1749 1.349 . S
C1734 C1732 1.327 . S
C1734 C1753 1.429 . S
C1734 H1758 0.950 . S
C1735 C1752 1.574 . S
C1735 C1754 1.368 1_554 S
C1735 H1759 0.949 . S
H1736 C1740 0.949 . S
C1737 C1738 1.349 . S
C1737 C1739 1.327 . S
C1737 H1760 0.950 . S
C1738 C1737 1.349 . S
C1738 C1750 1.349 . S
C1739 C1737 1.327 . S
C1739 C1755 1.429 . S
C1739 H1761 0.950 . S
C1740 H1736 0.949 . S
C1740 C1748 1.574 . S
C1740 C1756 1.368 1_556 S
H1741 C1749 0.950 . S
H1742 C1747 0.950 . S
H1743 C1748 0.949 . S
H1744 C1750 0.950 . S
H1745 C1751 0.950 . S
H1746 C1752 0.949 . S
C1747 H1742 0.950 . S
C1747 C1749 1.327 . S
C1747 C1753 1.429 . S
C1748 C1740 1.574 . S
C1748 H1743 0.949 . S
C1748 C1754 1.368 . S
C1749 C1733 1.349 . S
C1749 H1741 0.950 . S
C1749 C1747 1.327 . S
C1750 C1738 1.349 . S
C1750 H1744 0.950 . S
C1750 C1751 1.327 . S
C1751 H1745 0.950 . S
C1751 C1750 1.327 . S
C1751 C1755 1.429 . S
C1752 C1735 1.574 . S
C1752 H1746 0.949 . S
C1752 C1756 1.368 . S
C1753 C1734 1.429 . S
C1753 C1747 1.429 . S
C1753 C1754 1.523 . S
C1754 C1735 1.368 1_556 S
C1754 C1748 1.368 . S
C1754 C1753 1.523 . S
C1755 C1739 1.429 . S
C1755 C1751 1.429 . S
C1755 C1756 1.523 . S
C1756 C1740 1.368 1_554 S
C1756 C1752 1.368 . S
C1756 C1755 1.523 . S
H1757 C1732 0.950 . S
H1758 C1734 0.950 . S
H1759 C1735 0.949 . S
H1760 C1737 0.950 . S
H1761 C1739 0.950 . S
C1762 C1763 1.349 . S
C1762 C1764 1.327 . S
C1762 H1787 0.950 . S
C1763 C1762 1.349 . S
C1763 C1779 1.349 . S
C1764 C1762 1.327 . S
C1764 C1783 1.429 . S
C1764 H1788 0.950 . S
C1765 C1782 1.574 . S
C1765 C1784 1.368 . S
C1765 H1789 0.949 . S
H1766 C1770 0.949 . S
C1767 C1768 1.349 . S
C1767 C1769 1.327 . S
C1767 H1790 0.950 . S
C1768 C1767 1.349 . S
C1768 C1780 1.349 . S
C1769 C1767 1.327 . S
C1769 C1785 1.429 . S
C1769 H1791 0.950 . S
C1770 H1766 0.949 . S
C1770 C1778 1.574 . S
C1770 C1786 1.368 . S
H1771 C1779 0.950 . S
H1772 C1777 0.950 . S
H1773 C1778 0.949 . S
H1774 C1780 0.950 . S
H1775 C1781 0.950 . S
H1776 C1782 0.949 . S
C1777 H1772 0.950 . S
C1777 C1779 1.327 . S
C1777 C1783 1.429 . S
C1778 C1770 1.574 . S
C1778 H1773 0.949 . S
C1778 C1784 1.368 . S
C1779 C1763 1.349 . S
C1779 H1771 0.950 . S
C1779 C1777 1.327 . S
C1780 C1768 1.349 . S
C1780 H1774 0.950 . S
C1780 C1781 1.327 . S
C1781 H1775 0.950 . S
C1781 C1780 1.327 . S
C1781 C1785 1.429 . S
C1782 C1765 1.574 . S
C1782 H1776 0.949 . S
C1782 C1786 1.368 . S
C1783 C1764 1.429 . S
C1783 C1777 1.429 . S
C1783 C1784 1.523 . S
C1784 C1765 1.368 . S
C1784 C1778 1.368 . S
C1784 C1783 1.523 . S
C1785 C1769 1.429 . S
C1785 C1781 1.429 . S
C1785 C1786 1.523 . S
C1786 C1770 1.368 . S
C1786 C1782 1.368 . S
C1786 C1785 1.523 . S
H1787 C1762 0.950 . S
H1788 C1764 0.950 . S
H1789 C1765 0.949 . S
H1790 C1767 0.950 . S
H1791 C1769 0.950 . S
C353 C21 1.294 . S
C358 C219 1.309 . S
C383 C43 1.294 . S
C388 C227 1.309 . S
C413 C249 1.309 . S
C418 C59 1.294 . S
C443 C197 1.309 . S
C448 C81 1.294 . S
C473 C95 1.294 . S
C478 C351 1.309 . S
C503 C285 1.309 . S
C508 C131 1.294 . S
C533 C307 1.309 . S
C538 C147 1.294 . S
C563 C323 1.309 . S
C568 C169 1.294 . S
C593 C37 1.299 . S
C598 C191 1.288 . S
C623 C213 1.288 . S
C628 C51 1.299 . S
C653 C73 1.299 . S
C658 C241 1.288 . S
C683 C15 1.299 . S
C688 C263 1.289 . S
C713 C161 1.299 . S
C718 C279 1.288 . S
C743 C109 1.299 . S
C748 C301 1.288 . S
C773 C315 1.289 . S
C778 C125 1.299 . S
C803 C139 1.299 . S
C808 C345 1.288 . S
C833 C10 1.239 . S
C838 C337 1.234 . S
C863 C32 1.239 . S
C868 C271 1.234 . S
C893 C62 1.239 . S
C898 C293 1.234 . S
C923 C329 1.234 . S
C928 C84 1.239 . S
C953 C96 1.239 . S
C958 C205 1.234 . S
C983 C120 1.239 . S
C988 C235 1.234 . S
C1013 C150 1.239 . S
C1018 C257 1.234 . S
C1043 C183 1.234 . S
C1048 C172 1.239 . S
C1073 C184 1.252 . S
C1078 C175 1.249 . S
C1103 C206 1.252 . S
C1108 C103 1.249 . S
C1133 C238 1.252 . S
C1138 C117 1.249 . S
C1163 C260 1.252 . S
C1168 C153 1.249 . S
C1193 C29 1.249 . S
C1198 C272 1.252 . S
C1223 C65 1.249 . S
C1228 C294 1.252 . S
C1253 C87 1.249 . S
C1258 C318 1.252 . S
C1283 C338 1.252 . S
C1288 C7 1.249 . S
C1313 C162 1.128 . S
C1318 C18 1.128 . S
C1343 C98 1.128 . S
C1348 C40 1.128 . S
C1373 C52 1.128 . S
C1378 C128 1.128 . S
C1403 C74 1.128 . S
C1408 C140 1.128 . S
C1433 C348 1.141 . S
C1438 C194 1.141 . S
C1463 C216 1.141 . S
C1468 C282 1.141 . S
C1493 C304 1.141 . S
C1498 C230 1.141 . S
C1523 C252 1.140 . S
C1528 C316 1.140 . S
C1553 C8 1.129 . S
C1558 C106 1.129 . S
C1583 C118 1.129 . S
C1588 C30 1.129 . S
C1613 C54 1.129 . S
C1618 C142 1.129 . S
C1643 C164 1.129 . S
C1648 C76 1.129 . S
C1673 C274 1.102 . S
C1678 C186 1.102 . S
C1703 C296 1.102 . S
C1708 C208 1.102 . S
C1733 C228 1.102 . S
C1738 C326 1.102 . S
C1763 C250 1.102 . S
C1768 C340 1.102 . S
