# Generated by pormake.
# Topology ukr, (4)-cn, num edge types: 1
# Building blocks:
#     Node 0, Type 0, BuildingBlock: QUQFOY_clean_sbu_3, # of connection points: 4
#     Node 1, Type 0, BuildingBlock: QUQFOY_clean_sbu_3, # of connection points: 4
#     Node 2, Type 0, BuildingBlock: QUQFOY_clean_sbu_3, # of connection points: 4
#     Node 3, Type 0, BuildingBlock: QUQFOY_clean_sbu_3, # of connection points: 4
#     Node 4, Type 0, BuildingBlock: QUQFOY_clean_sbu_3, # of connection points: 4
#     Node 5, Type 0, BuildingBlock: QUQFOY_clean_sbu_3, # of connection points: 4
#     Node 6, Type 0, BuildingBlock: QUQFOY_clean_sbu_3, # of connection points: 4
#     Node 7, Type 0, BuildingBlock: QUQFOY_clean_sbu_3, # of connection points: 4
#     Node 8, Type 0, BuildingBlock: QUQFOY_clean_sbu_3, # of connection points: 4
#     Node 9, Type 0, BuildingBlock: QUQFOY_clean_sbu_3, # of connection points: 4
#     Node 10, Type 0, BuildingBlock: QUQFOY_clean_sbu_3, # of connection points: 4
#     Node 11, Type 0, BuildingBlock: QUQFOY_clean_sbu_3, # of connection points: 4
#     Node 12, Type 0, BuildingBlock: QUQFOY_clean_sbu_3, # of connection points: 4
#     Node 13, Type 0, BuildingBlock: QUQFOY_clean_sbu_3, # of connection points: 4
#     Node 14, Type 0, BuildingBlock: QUQFOY_clean_sbu_3, # of connection points: 4
#     Node 15, Type 0, BuildingBlock: QUQFOY_clean_sbu_3, # of connection points: 4
#     Node 16, Type 0, BuildingBlock: QUQFOY_clean_sbu_3, # of connection points: 4
#     Node 17, Type 0, BuildingBlock: QUQFOY_clean_sbu_3, # of connection points: 4
#     Node 18, Type 0, BuildingBlock: QUQFOY_clean_sbu_3, # of connection points: 4
#     Node 19, Type 0, BuildingBlock: QUQFOY_clean_sbu_3, # of connection points: 4
#     Node 20, Type 0, BuildingBlock: QUQFOY_clean_sbu_3, # of connection points: 4
#     Node 21, Type 0, BuildingBlock: QUQFOY_clean_sbu_3, # of connection points: 4
#     Node 22, Type 0, BuildingBlock: QUQFOY_clean_sbu_3, # of connection points: 4
#     Node 23, Type 0, BuildingBlock: QUQFOY_clean_sbu_3, # of connection points: 4
#     Node 24, Type 0, BuildingBlock: QUQFOY_clean_sbu_3, # of connection points: 4
#     Node 25, Type 0, BuildingBlock: QUQFOY_clean_sbu_3, # of connection points: 4
#     Node 26, Type 0, BuildingBlock: QUQFOY_clean_sbu_3, # of connection points: 4
#     Node 27, Type 0, BuildingBlock: QUQFOY_clean_sbu_3, # of connection points: 4
#     Node 28, Type 0, BuildingBlock: QUQFOY_clean_sbu_3, # of connection points: 4
#     Node 29, Type 0, BuildingBlock: QUQFOY_clean_sbu_3, # of connection points: 4
#     Node 30, Type 0, BuildingBlock: QUQFOY_clean_sbu_3, # of connection points: 4
#     Node 31, Type 0, BuildingBlock: QUQFOY_clean_sbu_3, # of connection points: 4
#     Node 32, Type 0, BuildingBlock: QUQFOY_clean_sbu_3, # of connection points: 4
#     Node 33, Type 0, BuildingBlock: QUQFOY_clean_sbu_3, # of connection points: 4
#     Node 34, Type 0, BuildingBlock: QUQFOY_clean_sbu_3, # of connection points: 4
#     Node 35, Type 0, BuildingBlock: QUQFOY_clean_sbu_3, # of connection points: 4
#     Node 36, Type 0, BuildingBlock: QUQFOY_clean_sbu_3, # of connection points: 4
#     Node 37, Type 0, BuildingBlock: QUQFOY_clean_sbu_3, # of connection points: 4
#     Node 38, Type 0, BuildingBlock: QUQFOY_clean_sbu_3, # of connection points: 4
#     Node 39, Type 0, BuildingBlock: QUQFOY_clean_sbu_3, # of connection points: 4
#     Node 40, Type 0, BuildingBlock: QUQFOY_clean_sbu_3, # of connection points: 4
#     Node 41, Type 0, BuildingBlock: QUQFOY_clean_sbu_3, # of connection points: 4
#     Node 42, Type 0, BuildingBlock: QUQFOY_clean_sbu_3, # of connection points: 4
#     Node 43, Type 0, BuildingBlock: QUQFOY_clean_sbu_3, # of connection points: 4
#     Node 44, Type 0, BuildingBlock: QUQFOY_clean_sbu_3, # of connection points: 4
#     Node 45, Type 0, BuildingBlock: QUQFOY_clean_sbu_3, # of connection points: 4
#     Node 46, Type 0, BuildingBlock: QUQFOY_clean_sbu_3, # of connection points: 4
#     Node 47, Type 0, BuildingBlock: QUQFOY_clean_sbu_3, # of connection points: 4
#     Edge 48, Type (0, 0), BuildingBlock: AJUNOK_clean_linker_0, # of connection points: 2
#     Edge 49, Type (0, 0), BuildingBlock: AJUNOK_clean_linker_0, # of connection points: 2
#     Edge 50, Type (0, 0), BuildingBlock: AJUNOK_clean_linker_0, # of connection points: 2
#     Edge 51, Type (0, 0), BuildingBlock: AJUNOK_clean_linker_0, # of connection points: 2
#     Edge 52, Type (0, 0), BuildingBlock: AJUNOK_clean_linker_0, # of connection points: 2
#     Edge 53, Type (0, 0), BuildingBlock: AJUNOK_clean_linker_0, # of connection points: 2
#     Edge 54, Type (0, 0), BuildingBlock: AJUNOK_clean_linker_0, # of connection points: 2
#     Edge 55, Type (0, 0), BuildingBlock: AJUNOK_clean_linker_0, # of connection points: 2
#     Edge 56, Type (0, 0), BuildingBlock: AJUNOK_clean_linker_0, # of connection points: 2
#     Edge 57, Type (0, 0), BuildingBlock: AJUNOK_clean_linker_0, # of connection points: 2
#     Edge 58, Type (0, 0), BuildingBlock: AJUNOK_clean_linker_0, # of connection points: 2
#     Edge 59, Type (0, 0), BuildingBlock: AJUNOK_clean_linker_0, # of connection points: 2
#     Edge 60, Type (0, 0), BuildingBlock: AJUNOK_clean_linker_0, # of connection points: 2
#     Edge 61, Type (0, 0), BuildingBlock: AJUNOK_clean_linker_0, # of connection points: 2
#     Edge 62, Type (0, 0), BuildingBlock: AJUNOK_clean_linker_0, # of connection points: 2
#     Edge 63, Type (0, 0), BuildingBlock: AJUNOK_clean_linker_0, # of connection points: 2
#     Edge 64, Type (0, 0), BuildingBlock: AJUNOK_clean_linker_0, # of connection points: 2
#     Edge 65, Type (0, 0), BuildingBlock: AJUNOK_clean_linker_0, # of connection points: 2
#     Edge 66, Type (0, 0), BuildingBlock: AJUNOK_clean_linker_0, # of connection points: 2
#     Edge 67, Type (0, 0), BuildingBlock: AJUNOK_clean_linker_0, # of connection points: 2
#     Edge 68, Type (0, 0), BuildingBlock: AJUNOK_clean_linker_0, # of connection points: 2
#     Edge 69, Type (0, 0), BuildingBlock: AJUNOK_clean_linker_0, # of connection points: 2
#     Edge 70, Type (0, 0), BuildingBlock: AJUNOK_clean_linker_0, # of connection points: 2
#     Edge 71, Type (0, 0), BuildingBlock: AJUNOK_clean_linker_0, # of connection points: 2
#     Edge 72, Type (0, 0), BuildingBlock: AJUNOK_clean_linker_0, # of connection points: 2
#     Edge 73, Type (0, 0), BuildingBlock: AJUNOK_clean_linker_0, # of connection points: 2
#     Edge 74, Type (0, 0), BuildingBlock: AJUNOK_clean_linker_0, # of connection points: 2
#     Edge 75, Type (0, 0), BuildingBlock: AJUNOK_clean_linker_0, # of connection points: 2
#     Edge 76, Type (0, 0), BuildingBlock: AJUNOK_clean_linker_0, # of connection points: 2
#     Edge 77, Type (0, 0), BuildingBlock: AJUNOK_clean_linker_0, # of connection points: 2
#     Edge 78, Type (0, 0), BuildingBlock: AJUNOK_clean_linker_0, # of connection points: 2
#     Edge 79, Type (0, 0), BuildingBlock: AJUNOK_clean_linker_0, # of connection points: 2
#     Edge 80, Type (0, 0), BuildingBlock: AJUNOK_clean_linker_0, # of connection points: 2
#     Edge 81, Type (0, 0), BuildingBlock: AJUNOK_clean_linker_0, # of connection points: 2
#     Edge 82, Type (0, 0), BuildingBlock: AJUNOK_clean_linker_0, # of connection points: 2
#     Edge 83, Type (0, 0), BuildingBlock: AJUNOK_clean_linker_0, # of connection points: 2
#     Edge 84, Type (0, 0), BuildingBlock: AJUNOK_clean_linker_0, # of connection points: 2
#     Edge 85, Type (0, 0), BuildingBlock: AJUNOK_clean_linker_0, # of connection points: 2
#     Edge 86, Type (0, 0), BuildingBlock: AJUNOK_clean_linker_0, # of connection points: 2
#     Edge 87, Type (0, 0), BuildingBlock: AJUNOK_clean_linker_0, # of connection points: 2
#     Edge 88, Type (0, 0), BuildingBlock: AJUNOK_clean_linker_0, # of connection points: 2
#     Edge 89, Type (0, 0), BuildingBlock: AJUNOK_clean_linker_0, # of connection points: 2
#     Edge 90, Type (0, 0), BuildingBlock: AJUNOK_clean_linker_0, # of connection points: 2
#     Edge 91, Type (0, 0), BuildingBlock: AJUNOK_clean_linker_0, # of connection points: 2
#     Edge 92, Type (0, 0), BuildingBlock: AJUNOK_clean_linker_0, # of connection points: 2
#     Edge 93, Type (0, 0), BuildingBlock: AJUNOK_clean_linker_0, # of connection points: 2
#     Edge 94, Type (0, 0), BuildingBlock: AJUNOK_clean_linker_0, # of connection points: 2
#     Edge 95, Type (0, 0), BuildingBlock: AJUNOK_clean_linker_0, # of connection points: 2
#     Edge 96, Type (0, 0), BuildingBlock: AJUNOK_clean_linker_0, # of connection points: 2
#     Edge 97, Type (0, 0), BuildingBlock: AJUNOK_clean_linker_0, # of connection points: 2
#     Edge 98, Type (0, 0), BuildingBlock: AJUNOK_clean_linker_0, # of connection points: 2
#     Edge 99, Type (0, 0), BuildingBlock: AJUNOK_clean_linker_0, # of connection points: 2
#     Edge 100, Type (0, 0), BuildingBlock: AJUNOK_clean_linker_0, # of connection points: 2
#     Edge 101, Type (0, 0), BuildingBlock: AJUNOK_clean_linker_0, # of connection points: 2
#     Edge 102, Type (0, 0), BuildingBlock: AJUNOK_clean_linker_0, # of connection points: 2
#     Edge 103, Type (0, 0), BuildingBlock: AJUNOK_clean_linker_0, # of connection points: 2
#     Edge 104, Type (0, 0), BuildingBlock: AJUNOK_clean_linker_0, # of connection points: 2
#     Edge 105, Type (0, 0), BuildingBlock: AJUNOK_clean_linker_0, # of connection points: 2
#     Edge 106, Type (0, 0), BuildingBlock: AJUNOK_clean_linker_0, # of connection points: 2
#     Edge 107, Type (0, 0), BuildingBlock: AJUNOK_clean_linker_0, # of connection points: 2
#     Edge 108, Type (0, 0), BuildingBlock: AJUNOK_clean_linker_0, # of connection points: 2
#     Edge 109, Type (0, 0), BuildingBlock: AJUNOK_clean_linker_0, # of connection points: 2
#     Edge 110, Type (0, 0), BuildingBlock: AJUNOK_clean_linker_0, # of connection points: 2
#     Edge 111, Type (0, 0), BuildingBlock: AJUNOK_clean_linker_0, # of connection points: 2
#     Edge 112, Type (0, 0), BuildingBlock: AJUNOK_clean_linker_0, # of connection points: 2
#     Edge 113, Type (0, 0), BuildingBlock: AJUNOK_clean_linker_0, # of connection points: 2
#     Edge 114, Type (0, 0), BuildingBlock: AJUNOK_clean_linker_0, # of connection points: 2
#     Edge 115, Type (0, 0), BuildingBlock: AJUNOK_clean_linker_0, # of connection points: 2
#     Edge 116, Type (0, 0), BuildingBlock: AJUNOK_clean_linker_0, # of connection points: 2
#     Edge 117, Type (0, 0), BuildingBlock: AJUNOK_clean_linker_0, # of connection points: 2
#     Edge 118, Type (0, 0), BuildingBlock: AJUNOK_clean_linker_0, # of connection points: 2
#     Edge 119, Type (0, 0), BuildingBlock: AJUNOK_clean_linker_0, # of connection points: 2
#     Edge 120, Type (0, 0), BuildingBlock: AJUNOK_clean_linker_0, # of connection points: 2
#     Edge 121, Type (0, 0), BuildingBlock: AJUNOK_clean_linker_0, # of connection points: 2
#     Edge 122, Type (0, 0), BuildingBlock: AJUNOK_clean_linker_0, # of connection points: 2
#     Edge 123, Type (0, 0), BuildingBlock: AJUNOK_clean_linker_0, # of connection points: 2
#     Edge 124, Type (0, 0), BuildingBlock: AJUNOK_clean_linker_0, # of connection points: 2
#     Edge 125, Type (0, 0), BuildingBlock: AJUNOK_clean_linker_0, # of connection points: 2
#     Edge 126, Type (0, 0), BuildingBlock: AJUNOK_clean_linker_0, # of connection points: 2
#     Edge 127, Type (0, 0), BuildingBlock: AJUNOK_clean_linker_0, # of connection points: 2
#     Edge 128, Type (0, 0), BuildingBlock: AJUNOK_clean_linker_0, # of connection points: 2
#     Edge 129, Type (0, 0), BuildingBlock: AJUNOK_clean_linker_0, # of connection points: 2
#     Edge 130, Type (0, 0), BuildingBlock: AJUNOK_clean_linker_0, # of connection points: 2
#     Edge 131, Type (0, 0), BuildingBlock: AJUNOK_clean_linker_0, # of connection points: 2
#     Edge 132, Type (0, 0), BuildingBlock: AJUNOK_clean_linker_0, # of connection points: 2
#     Edge 133, Type (0, 0), BuildingBlock: AJUNOK_clean_linker_0, # of connection points: 2
#     Edge 134, Type (0, 0), BuildingBlock: AJUNOK_clean_linker_0, # of connection points: 2
#     Edge 135, Type (0, 0), BuildingBlock: AJUNOK_clean_linker_0, # of connection points: 2
#     Edge 136, Type (0, 0), BuildingBlock: AJUNOK_clean_linker_0, # of connection points: 2
#     Edge 137, Type (0, 0), BuildingBlock: AJUNOK_clean_linker_0, # of connection points: 2
#     Edge 138, Type (0, 0), BuildingBlock: AJUNOK_clean_linker_0, # of connection points: 2
#     Edge 139, Type (0, 0), BuildingBlock: AJUNOK_clean_linker_0, # of connection points: 2
#     Edge 140, Type (0, 0), BuildingBlock: AJUNOK_clean_linker_0, # of connection points: 2
#     Edge 141, Type (0, 0), BuildingBlock: AJUNOK_clean_linker_0, # of connection points: 2
#     Edge 142, Type (0, 0), BuildingBlock: AJUNOK_clean_linker_0, # of connection points: 2
#     Edge 143, Type (0, 0), BuildingBlock: AJUNOK_clean_linker_0, # of connection points: 2
# Relax obj value: 0.442
# Max RMSD: 0.178
# Mean RMSD: 0.178
data_MOF--net-ukr--node1-QUQFOY_clean_sbu_3--edge1-AJUNOK_clean_linker_0
_symmetry_space_group_name_H-M    P1
_symmetry_Int_Tables_number       1
_symmetry_cell_setting            triclinic
loop_
_symmetry_equiv_pos_as_xyz
'x, y, z'
_cell_length_a     53.232249
_cell_length_b     53.166651
_cell_length_c     53.332085
_cell_angle_alpha  90.095274
_cell_angle_beta   90.181506
_cell_angle_gamma 90.105052
loop_
_atom_site_label
_atom_site_type_symbol
_atom_site_fract_x
_atom_site_fract_y
_atom_site_fract_z
_atom_type_partial_charge
C0 C 0.09443 0.21152 0.20131 0.0
O1 O 0.10285 0.22628 0.21806 0.0
Cd2 Cd 0.12789 0.25961 0.20145 0.0
O3 O 0.09253 0.2195 0.17875 0.0
Cd4 Cd 0.08537 0.26535 0.16652 0.0
C5 C 0.13028 0.25057 0.13385 0.0
O6 O 0.09531 0.28902 0.20252 0.0
O7 O 0.10058 0.3098 0.16825 0.0
O8 O 0.04545 0.25906 0.18354 0.0
C9 C 0.10049 0.30969 0.19212 0.0
O10 O 0.13828 0.24915 0.15656 0.0
C11 C 0.0342 0.26649 0.16384 0.0
O12 O 0.10858 0.25916 0.12907 0.0
O13 O 0.04734 0.27318 0.14502 0.0
C14 C 0.25114 0.59404 0.69934 0.0
O15 O 0.23482 0.59517 0.7165 0.0
Cd16 Cd 0.20797 0.62925 0.704 0.0
O17 O 0.24355 0.59654 0.67673 0.0
Cd18 Cd 0.19802 0.58742 0.66524 0.0
C19 C 0.2124 0.63276 0.63492 0.0
O20 O 0.1784 0.59851 0.70287 0.0
O21 O 0.15287 0.60402 0.6722 0.0
O22 O 0.20496 0.54836 0.6839 0.0
C23 C 0.15698 0.60528 0.69575 0.0
O24 O 0.21318 0.63865 0.65828 0.0
C25 C 0.19608 0.53627 0.66529 0.0
O26 O 0.20606 0.61077 0.62795 0.0
O27 O 0.18946 0.54853 0.64579 0.0
C28 C 0.86846 0.75428 0.19969 0.0
O29 O 0.85951 0.7399 0.21644 0.0
Cd30 Cd 0.83626 0.705 0.20127 0.0
O31 O 0.87195 0.74592 0.17753 0.0
Cd32 Cd 0.88036 0.70123 0.16549 0.0
C33 C 0.83501 0.71475 0.13342 0.0
O34 O 0.87115 0.67889 0.20277 0.0
O35 O 0.86406 0.65716 0.16941 0.0
O36 O 0.9198 0.70875 0.18257 0.0
C37 C 0.86589 0.65783 0.19326 0.0
O38 O 0.82708 0.71342 0.15609 0.0
C39 C 0.93135 0.6993 0.16399 0.0
O40 O 0.85783 0.71037 0.12812 0.0
O41 O 0.91867 0.69168 0.14507 0.0
C42 C 0.71163 0.37512 0.69916 0.0
O43 O 0.72785 0.37471 0.71653 0.0
Cd44 Cd 0.75374 0.33968 0.70434 0.0
O45 O 0.71954 0.37141 0.67682 0.0
Cd46 Cd 0.76581 0.37924 0.66586 0.0
C47 C 0.75042 0.3362 0.63498 0.0
O48 O 0.78628 0.36783 0.70396 0.0
O49 O 0.81 0.36157 0.67185 0.0
O50 O 0.75945 0.41869 0.68407 0.0
C51 C 0.80721 0.36088 0.69558 0.0
O52 O 0.74955 0.33209 0.65863 0.0
C53 C 0.76848 0.4302 0.66527 0.0
O54 O 0.75793 0.35735 0.62681 0.0
O55 O 0.77617 0.41751 0.64646 0.0
C56 C 0.10262 0.75543 0.76688 0.0
O57 O 0.12081 0.7442 0.75595 0.0
Cd58 Cd 0.13855 0.70394 0.76562 0.0
O59 O 0.08982 0.74497 0.78433 0.0
Cd60 Cd 0.08467 0.70086 0.80095 0.0
C61 C 0.12815 0.7118 0.83167 0.0
O62 O 0.09983 0.6828 0.76217 0.0
O63 O 0.09666 0.65616 0.79249 0.0
O64 O 0.04634 0.70808 0.78059 0.0
C65 C 0.10008 0.66014 0.76917 0.0
O66 O 0.12827 0.70694 0.80853 0.0
C67 C 0.0338 0.69838 0.79829 0.0
O68 O 0.10732 0.70834 0.84269 0.0
O69 O 0.04534 0.69098 0.81796 0.0
C70 C 0.71195 0.60567 0.26504 0.0
O71 O 0.72206 0.62581 0.25663 0.0
Cd72 Cd 0.76091 0.64506 0.26772 0.0
O73 O 0.72304 0.59147 0.28108 0.0
Cd74 Cd 0.76713 0.5873 0.29959 0.0
C75 C 0.7548 0.62908 0.33252 0.0
O76 O 0.78232 0.60719 0.26272 0.0
O77 O 0.81239 0.59921 0.28856 0.0
O78 O 0.7604 0.54911 0.27811 0.0
C79 C 0.80559 0.60746 0.26714 0.0
O80 O 0.75911 0.63071 0.30933 0.0
C81 C 0.76965 0.53613 0.29577 0.0
O82 O 0.75845 0.60766 0.34227 0.0
O83 O 0.77738 0.54731 0.31555 0.0
C84 C 0.86654 0.21117 0.76344 0.0
O85 O 0.84954 0.22266 0.75114 0.0
Cd86 Cd 0.83042 0.26037 0.76494 0.0
O87 O 0.87682 0.22098 0.78276 0.0
Cd88 Cd 0.8803 0.26538 0.79739 0.0
C89 C 0.83418 0.25118 0.832 0.0
O90 O 0.86627 0.28552 0.76108 0.0
O91 O 0.86728 0.31073 0.79283 0.0
O92 O 0.91939 0.26113 0.77851 0.0
C93 C 0.86408 0.30768 0.76931 0.0
O94 O 0.82369 0.2525 0.81036 0.0
C95 C 0.93119 0.26667 0.79848 0.0
O96 O 0.85754 0.25533 0.83474 0.0
O97 O 0.91899 0.27201 0.81834 0.0
C98 C 0.25391 0.37567 0.26543 0.0
O99 O 0.2378 0.37422 0.24809 0.0
Cd100 Cd 0.21556 0.33709 0.26249 0.0
O101 O 0.24592 0.37183 0.28769 0.0
Cd102 Cd 0.19901 0.37852 0.29614 0.0
C103 C 0.2143 0.33571 0.33089 0.0
O104 O 0.1811 0.36248 0.25943 0.0
O105 O 0.15469 0.36099 0.29012 0.0
O106 O 0.20265 0.41725 0.27576 0.0
C107 C 0.15988 0.35592 0.26734 0.0
O108 O 0.21893 0.32775 0.30862 0.0
C109 C 0.19509 0.42948 0.29476 0.0
O110 O 0.20461 0.35719 0.33464 0.0
O111 O 0.18956 0.41765 0.31482 0.0
C112 C 0.19095 0.10013 0.20893 0.0
O113 O 0.19293 0.11854 0.22383 0.0
Cd114 Cd 0.18956 0.1472 0.25685 0.0
O115 O 0.17655 0.08184 0.21477 0.0
Cd116 Cd 0.16204 0.08422 0.26106 0.0
C117 C 0.12789 0.12771 0.2561 0.0
O118 O 0.19793 0.10812 0.27692 0.0
O119 O 0.17552 0.092 0.30648 0.0
O120 O 0.1836 0.04616 0.25987 0.0
C121 C 0.19497 0.10448 0.30023 0.0
O122 O 0.15027 0.13017 0.26356 0.0
C123 C 0.16425 0.03377 0.2662 0.0
O124 O 0.11913 0.10564 0.25812 0.0
O125 O 0.14363 0.04523 0.27034 0.0
C126 C 0.37039 0.69999 0.7133 0.0
O127 O 0.36815 0.71429 0.73218 0.0
Cd128 Cd 0.33139 0.70429 0.75651 0.0
O129 O 0.37038 0.67626 0.71722 0.0
Cd130 Cd 0.37857 0.66527 0.76379 0.0
C131 C 0.33401 0.63602 0.7538 0.0
O132 O 0.36509 0.70465 0.78334 0.0
O133 O 0.36473 0.67322 0.80856 0.0
O134 O 0.41706 0.68593 0.75774 0.0
C135 C 0.36227 0.69684 0.80537 0.0
O136 O 0.33425 0.65973 0.7553 0.0
C137 C 0.42939 0.66806 0.7676 0.0
O138 O 0.35426 0.62465 0.75947 0.0
O139 O 0.41779 0.64803 0.77402 0.0
C140 C 0.76635 0.8646 0.21089 0.0
O141 O 0.75603 0.84532 0.22092 0.0
Cd142 Cd 0.76747 0.82308 0.25818 0.0
O143 O 0.78455 0.87663 0.22152 0.0
Cd144 Cd 0.80351 0.88082 0.26591 0.0
C145 C 0.83316 0.83721 0.25317 0.0
O146 O 0.76683 0.86122 0.27896 0.0
O147 O 0.78982 0.87053 0.3108 0.0
O148 O 0.78229 0.91891 0.26027 0.0
C149 C 0.76914 0.86162 0.30234 0.0
O150 O 0.81001 0.83595 0.25807 0.0
C151 C 0.80058 0.93218 0.26785 0.0
O152 O 0.84429 0.85742 0.2594 0.0
O153 O 0.82112 0.92146 0.274 0.0
C154 C 0.59996 0.26329 0.71214 0.0
O155 O 0.61576 0.24976 0.72406 0.0
Cd156 Cd 0.63636 0.26232 0.76174 0.0
O157 O 0.59138 0.28377 0.72149 0.0
Cd158 Cd 0.58652 0.29929 0.76616 0.0
C159 C 0.62947 0.33058 0.75273 0.0
O160 O 0.6001 0.26104 0.78618 0.0
O161 O 0.59967 0.29313 0.81087 0.0
O162 O 0.54821 0.27927 0.7584 0.0
C163 C 0.60255 0.26948 0.80819 0.0
O164 O 0.63184 0.30701 0.75585 0.0
C165 C 0.53536 0.29724 0.76728 0.0
O166 O 0.6084 0.34021 0.75834 0.0
O167 O 0.54688 0.31689 0.77504 0.0
C168 C 0.20012 0.87199 0.75176 0.0
O169 O 0.21661 0.86274 0.73724 0.0
Cd170 Cd 0.20086 0.83477 0.70541 0.0
O171 O 0.17749 0.87404 0.74379 0.0
Cd172 Cd 0.16483 0.88069 0.6982 0.0
C173 C 0.13274 0.83476 0.71347 0.0
O174 O 0.20215 0.86919 0.67945 0.0
O175 O 0.17158 0.86621 0.65319 0.0
O176 O 0.18381 0.91959 0.7053 0.0
C177 C 0.1952 0.86512 0.65732 0.0
O178 O 0.15547 0.82682 0.71484 0.0
C179 C 0.16478 0.93192 0.698 0.0
O180 O 0.1278 0.85648 0.70488 0.0
O181 O 0.14508 0.92018 0.69079 0.0
C182 C 0.59519 0.70116 0.25007 0.0
O183 O 0.60104 0.71866 0.23508 0.0
Cd184 Cd 0.63243 0.70391 0.2062 0.0
O185 O 0.59502 0.67858 0.24174 0.0
Cd186 Cd 0.58723 0.66784 0.1959 0.0
C187 C 0.6336 0.63544 0.21083 0.0
O188 O 0.59994 0.70492 0.17796 0.0
O189 O 0.60145 0.67519 0.15063 0.0
O190 O 0.54809 0.68632 0.20311 0.0
C191 C 0.60475 0.69838 0.15587 0.0
O192 O 0.64186 0.65802 0.21339 0.0
C193 C 0.53614 0.66699 0.19565 0.0
O194 O 0.61161 0.63111 0.20251 0.0
O195 O 0.5484 0.64774 0.18823 0.0
C196 C 0.7666 0.09476 0.75134 0.0
O197 O 0.74927 0.10149 0.73642 0.0
Cd198 Cd 0.76346 0.13305 0.70766 0.0
O199 O 0.78931 0.0938 0.74322 0.0
Cd200 Cd 0.80216 0.08604 0.69716 0.0
C201 C 0.83274 0.13156 0.71182 0.0
O202 O 0.76467 0.09927 0.68211 0.0
O203 O 0.79069 0.09799 0.65168 0.0
O204 O 0.7838 0.04775 0.70712 0.0
C205 C 0.76852 0.10281 0.65932 0.0
O206 O 0.80948 0.13749 0.71391 0.0
C207 C 0.80099 0.03503 0.69666 0.0
O208 O 0.83925 0.1109 0.70176 0.0
O209 O 0.82007 0.04639 0.68757 0.0
C210 C 0.36244 0.2654 0.25206 0.0
O211 O 0.34483 0.25309 0.24132 0.0
Cd212 Cd 0.32502 0.26441 0.20334 0.0
O213 O 0.37351 0.28396 0.24131 0.0
Cd214 Cd 0.37758 0.30026 0.19628 0.0
C215 C 0.33477 0.33175 0.21014 0.0
O216 O 0.36152 0.26253 0.17896 0.0
O217 O 0.36662 0.2913 0.15085 0.0
O218 O 0.41642 0.28058 0.20308 0.0
C219 C 0.3607 0.26867 0.15608 0.0
O220 O 0.33239 0.30824 0.20719 0.0
C221 C 0.42868 0.29941 0.19509 0.0
O222 O 0.35554 0.34146 0.20362 0.0
O223 O 0.41675 0.31875 0.18748 0.0
C224 C 0.20844 0.20023 0.09766 0.0
O225 O 0.21994 0.2134 0.11404 0.0
Cd226 Cd 0.2579 0.20117 0.13288 0.0
O227 O 0.21854 0.1808 0.08778 0.0
Cd228 Cd 0.26325 0.16586 0.08436 0.0
C229 C 0.25096 0.13297 0.12971 0.0
O230 O 0.28368 0.20304 0.09761 0.0
O231 O 0.30883 0.17127 0.09742 0.0
O232 O 0.25831 0.18439 0.04479 0.0
C233 C 0.30583 0.19488 0.10028 0.0
O234 O 0.25212 0.15599 0.13648 0.0
C235 C 0.26641 0.16514 0.03321 0.0
O236 O 0.25448 0.127 0.1069 0.0
O237 O 0.27212 0.14572 0.04602 0.0
C238 C 0.21166 0.76839 0.87048 0.0
O239 O 0.22826 0.75148 0.86831 0.0
Cd240 Cd 0.25521 0.76403 0.83433 0.0
O241 O 0.21887 0.79137 0.86936 0.0
Cd242 Cd 0.26518 0.80309 0.87854 0.0
C243 C 0.25192 0.83339 0.83559 0.0
O244 O 0.28344 0.76409 0.86604 0.0
O245 O 0.31066 0.79375 0.86405 0.0
O246 O 0.25762 0.78334 0.91747 0.0
C247 C 0.30548 0.77053 0.86082 0.0
O248 O 0.25237 0.80951 0.83404 0.0
C249 C 0.26574 0.80215 0.9298 0.0
O250 O 0.26073 0.84359 0.85533 0.0
O251 O 0.27226 0.82181 0.91774 0.0
C252 C 0.70009 0.71504 0.3697 0.0
O253 O 0.71528 0.7332 0.36671 0.0
Cd254 Cd 0.70417 0.75884 0.33108 0.0
O255 O 0.67656 0.71995 0.36909 0.0
Cd256 Cd 0.66481 0.76626 0.37708 0.0
C257 C 0.63576 0.75411 0.33325 0.0
O258 O 0.70398 0.78623 0.36439 0.0
O259 O 0.67155 0.81011 0.36105 0.0
O260 O 0.68404 0.75982 0.41655 0.0
C261 C 0.69532 0.80768 0.35975 0.0
O262 O 0.65943 0.75617 0.3332 0.0
C263 C 0.66549 0.76913 0.42828 0.0
O264 O 0.62435 0.76125 0.35293 0.0
O265 O 0.64656 0.77678 0.41572 0.0
C266 C 0.75653 0.19378 0.85953 0.0
O267 O 0.74564 0.20033 0.83911 0.0
Cd268 Cd 0.7063 0.19073 0.81847 0.0
O269 O 0.74599 0.17873 0.87509 0.0
Cd270 Cd 0.70132 0.16162 0.87801 0.0
C271 C 0.71033 0.12871 0.8351 0.0
O272 O 0.68796 0.19886 0.85735 0.0
O273 O 0.65638 0.17609 0.86802 0.0
O274 O 0.70831 0.1833 0.91636 0.0
C275 C 0.66446 0.1967 0.85873 0.0
O276 O 0.69887 0.14941 0.83258 0.0
C277 C 0.69829 0.16614 0.92948 0.0
O278 O 0.70891 0.11907 0.8568 0.0
O279 O 0.69064 0.14629 0.91825 0.0
C280 C 0.26593 0.25549 0.36037 0.0
O281 O 0.25829 0.24429 0.34058 0.0
Cd282 Cd 0.26693 0.20358 0.32469 0.0
O283 O 0.28051 0.24443 0.37591 0.0
Cd284 Cd 0.29615 0.19942 0.37759 0.0
C285 C 0.33236 0.21129 0.33033 0.0
O286 O 0.26003 0.18025 0.36158 0.0
O287 O 0.28983 0.15338 0.3672 0.0
O288 O 0.27724 0.20247 0.41678 0.0
C289 C 0.26694 0.15748 0.36143 0.0
O290 O 0.31149 0.20939 0.31859 0.0
C291 C 0.29731 0.19725 0.42853 0.0
O292 O 0.33361 0.20779 0.35388 0.0
O293 O 0.3174 0.19285 0.41626 0.0
C294 C 0.75465 0.77024 0.10283 0.0
O295 O 0.74109 0.76465 0.12171 0.0
Cd296 Cd 0.70057 0.77189 0.13837 0.0
O297 O 0.74663 0.78514 0.08595 0.0
Cd298 Cd 0.70206 0.79924 0.08415 0.0
C299 C 0.71064 0.83645 0.13205 0.0
O300 O 0.68234 0.76289 0.09947 0.0
O301 O 0.65681 0.794 0.09496 0.0
O302 O 0.70504 0.7793 0.04533 0.0
C303 C 0.65995 0.77053 0.09859 0.0
O304 O 0.70621 0.81655 0.1447 0.0
C305 C 0.69794 0.79869 0.03343 0.0
O306 O 0.71015 0.83628 0.10821 0.0
O307 O 0.69356 0.81899 0.04551 0.0
C308 C 0.69866 0.25152 0.59287 0.0
O309 O 0.71283 0.23248 0.59374 0.0
Cd310 Cd 0.70307 0.20735 0.63026 0.0
O311 O 0.67525 0.24753 0.59598 0.0
Cd312 Cd 0.66661 0.20083 0.58744 0.0
C313 C 0.63453 0.21115 0.63285 0.0
O314 O 0.70468 0.1789 0.5982 0.0
O315 O 0.67105 0.15683 0.60302 0.0
O316 O 0.6871 0.20595 0.54914 0.0
C317 C 0.69497 0.15791 0.60296 0.0
O318 O 0.65773 0.2131 0.63918 0.0
C319 C 0.66832 0.19893 0.5362 0.0
O320 O 0.62854 0.20321 0.61115 0.0
O321 O 0.64798 0.19318 0.54757 0.0
C322 C 0.26967 0.71297 0.60054 0.0
O323 O 0.26738 0.72842 0.61839 0.0
Cd324 Cd 0.27006 0.76176 0.64637 0.0
O325 O 0.28486 0.71791 0.5828 0.0
Cd326 Cd 0.29898 0.76376 0.58548 0.0
C327 C 0.33322 0.7557 0.62793 0.0
O328 O 0.26144 0.78081 0.60763 0.0
O329 O 0.28976 0.80846 0.59872 0.0
O330 O 0.27815 0.76286 0.54666 0.0
C331 C 0.26766 0.80369 0.60658 0.0
O332 O 0.31018 0.76044 0.6301 0.0
C333 C 0.29751 0.77045 0.53503 0.0
O334 O 0.34185 0.7571 0.60586 0.0
O335 O 0.31733 0.77587 0.54743 0.0
C336 C 0.87023 0.75653 0.77086 0.0
O337 O 0.85688 0.73732 0.7705 0.0
Cd338 Cd 0.82777 0.70879 0.76179 0.0
O339 O 0.88833 0.75589 0.78621 0.0
Cd340 Cd 0.88243 0.70776 0.79685 0.0
C341 C 0.8325 0.71478 0.82934 0.0
O342 O 0.86505 0.68551 0.7602 0.0
O343 O 0.87024 0.66194 0.79261 0.0
O344 O 0.9205 0.70843 0.77765 0.0
C345 C 0.86465 0.66356 0.76943 0.0
O346 O 0.82341 0.71257 0.80714 0.0
C347 C 0.9315 0.69875 0.79648 0.0
O348 O 0.85617 0.71514 0.83319 0.0
O349 O 0.91897 0.69427 0.81647 0.0
C350 C 0.71326 0.37055 0.26599 0.0
O351 O 0.73013 0.36822 0.24951 0.0
Cd352 Cd 0.75559 0.3332 0.26311 0.0
O353 O 0.72023 0.36905 0.28895 0.0
Cd354 Cd 0.76702 0.37765 0.29905 0.0
C355 C 0.75341 0.33397 0.33189 0.0
O356 O 0.78297 0.36518 0.2602 0.0
O357 O 0.81166 0.36266 0.28831 0.0
O358 O 0.7596 0.416 0.27843 0.0
C359 C 0.80519 0.35983 0.26541 0.0
O360 O 0.75109 0.32869 0.30861 0.0
C361 C 0.76871 0.429 0.29623 0.0
O362 O 0.76345 0.35468 0.33853 0.0
O363 O 0.77616 0.41779 0.31609 0.0
C364 C 0.09354 0.21276 0.76203 0.0
O365 O 0.10753 0.22501 0.74704 0.0
Cd366 Cd 0.13175 0.25948 0.7618 0.0
O367 O 0.08775 0.22198 0.78343 0.0
Cd368 Cd 0.08409 0.26645 0.79876 0.0
C369 C 0.12944 0.25039 0.83013 0.0
O370 O 0.09731 0.28535 0.76172 0.0
O371 O 0.09977 0.31146 0.79248 0.0
O372 O 0.04525 0.26181 0.77961 0.0
C373 C 0.102 0.30739 0.76898 0.0
O374 O 0.13678 0.25174 0.80731 0.0
C375 C 0.03323 0.26757 0.79928 0.0
O376 O 0.10688 0.25535 0.83601 0.0
O377 O 0.04519 0.2735 0.81922 0.0
C378 C 0.25075 0.59209 0.26364 0.0
O379 O 0.23364 0.5948 0.24737 0.0
Cd380 Cd 0.20987 0.63147 0.26055 0.0
O381 O 0.24423 0.59445 0.28658 0.0
Cd382 Cd 0.19774 0.5872 0.29688 0.0
C383 C 0.213 0.63292 0.32911 0.0
O384 O 0.17957 0.60127 0.26036 0.0
O385 O 0.15246 0.60246 0.29012 0.0
O386 O 0.20262 0.54871 0.27664 0.0
C387 C 0.15766 0.60651 0.26714 0.0
O388 O 0.21614 0.64081 0.30655 0.0
C389 C 0.19528 0.53629 0.29557 0.0
O390 O 0.20415 0.61118 0.33356 0.0
O391 O 0.18968 0.54792 0.31579 0.0
C392 C 0.8687 0.21136 0.20053 0.0
O393 O 0.85384 0.22345 0.21479 0.0
Cd394 Cd 0.83352 0.26068 0.20075 0.0
O395 O 0.87626 0.22077 0.17992 0.0
Cd396 Cd 0.88022 0.26487 0.1661 0.0
C397 C 0.83395 0.25085 0.13325 0.0
O398 O 0.86904 0.28659 0.20293 0.0
O399 O 0.86573 0.309 0.16938 0.0
O400 O 0.91989 0.25873 0.18308 0.0
C401 C 0.86527 0.3079 0.19324 0.0
O402 O 0.82495 0.25258 0.15548 0.0
C403 C 0.93101 0.26705 0.16372 0.0
O404 O 0.85716 0.25442 0.12911 0.0
O405 O 0.91783 0.27437 0.14509 0.0
C406 C 0.25204 0.35983 0.69621 0.0
O407 O 0.23913 0.34026 0.70138 0.0
Cd408 Cd 0.20122 0.31846 0.69153 0.0
O409 O 0.24462 0.37565 0.67972 0.0
Cd410 Cd 0.20017 0.37738 0.66297 0.0
C411 C 0.20724 0.33489 0.62955 0.0
O412 O 0.18334 0.35816 0.70146 0.0
O413 O 0.15529 0.36713 0.67353 0.0
O414 O 0.20385 0.41643 0.68378 0.0
C415 C 0.1604 0.36104 0.69612 0.0
O416 O 0.19678 0.33305 0.6507 0.0
C417 C 0.19537 0.4288 0.66528 0.0
O418 O 0.20615 0.35664 0.61997 0.0
O419 O 0.19017 0.4169 0.64514 0.0
C420 C 0.10181 0.75666 0.19641 0.0
O421 O 0.11796 0.74443 0.20934 0.0
Cd422 Cd 0.13471 0.70343 0.19994 0.0
O423 O 0.09053 0.74652 0.17769 0.0
Cd424 Cd 0.08584 0.70111 0.16333 0.0
C425 C 0.13099 0.7119 0.1319 0.0
O426 O 0.09675 0.68128 0.20208 0.0
O427 O 0.09847 0.65646 0.17018 0.0
O428 O 0.04652 0.70791 0.18157 0.0
C429 C 0.09886 0.65909 0.19394 0.0
O430 O 0.13549 0.71041 0.1553 0.0
C431 C 0.03436 0.69892 0.16312 0.0
O432 O 0.10928 0.70587 0.12396 0.0
O433 O 0.0465 0.69176 0.14379 0.0
C434 C 0.70787 0.60456 0.69529 0.0
O435 O 0.71646 0.62603 0.70172 0.0
Cd436 Cd 0.75609 0.64375 0.69223 0.0
O437 O 0.7211 0.58907 0.68257 0.0
Cd438 Cd 0.76581 0.58867 0.66657 0.0
C439 C 0.75314 0.63146 0.62693 0.0
O440 O 0.78056 0.60882 0.7026 0.0
O441 O 0.81101 0.60205 0.67697 0.0
O442 O 0.76177 0.54886 0.68522 0.0
C443 C 0.80378 0.61036 0.69821 0.0
O444 O 0.75287 0.64331 0.64767 0.0
C445 C 0.77005 0.53739 0.66604 0.0
O446 O 0.75704 0.6079 0.62623 0.0
O447 O 0.7772 0.55024 0.64719 0.0
C448 C 0.77321 0.86101 0.75749 0.0
O449 O 0.7723 0.83822 0.74992 0.0
Cd450 Cd 0.7694 0.82578 0.70672 0.0
O451 O 0.78135 0.8785 0.74322 0.0
Cd452 Cd 0.80135 0.88182 0.70087 0.0
C453 C 0.83439 0.83876 0.71038 0.0
O454 O 0.76301 0.86396 0.68371 0.0
O455 O 0.79257 0.87045 0.6567 0.0
O456 O 0.78189 0.92027 0.70726 0.0
C457 C 0.76974 0.86462 0.66091 0.0
O458 O 0.81098 0.83695 0.70795 0.0
C459 C 0.79932 0.93258 0.69673 0.0
O460 O 0.84345 0.86073 0.70847 0.0
O461 O 0.81875 0.92097 0.68896 0.0
C462 C 0.59464 0.26434 0.25016 0.0
O463 O 0.59778 0.24715 0.23396 0.0
Cd464 Cd 0.62935 0.25995 0.20452 0.0
O465 O 0.59528 0.28725 0.24278 0.0
Cd466 Cd 0.58653 0.29979 0.19712 0.0
C467 C 0.63017 0.32914 0.21045 0.0
O468 O 0.59714 0.26079 0.17569 0.0
O469 O 0.60369 0.29397 0.15359 0.0
O470 O 0.54753 0.28059 0.20382 0.0
C471 C 0.60333 0.27002 0.1549 0.0
O472 O 0.63075 0.30532 0.2088 0.0
C473 C 0.53551 0.29939 0.19541 0.0
O474 O 0.60985 0.34016 0.20437 0.0
O475 O 0.54765 0.31868 0.18789 0.0
C476 C 0.20136 0.09644 0.7531 0.0
O477 O 0.21503 0.11221 0.74126 0.0
Cd478 Cd 0.20242 0.13267 0.70287 0.0
O479 O 0.18064 0.08853 0.74371 0.0
Cd480 Cd 0.16495 0.0856 0.69904 0.0
C481 C 0.13449 0.13261 0.71314 0.0
O482 O 0.20259 0.09629 0.67858 0.0
O483 O 0.17012 0.09915 0.65447 0.0
O484 O 0.18369 0.04661 0.70481 0.0
C485 C 0.19398 0.09947 0.6568 0.0
O486 O 0.15762 0.13909 0.712 0.0
C487 C 0.16435 0.0344 0.69806 0.0
O488 O 0.12779 0.11057 0.70667 0.0
O489 O 0.1445 0.04626 0.69164 0.0
C490 C 0.36882 0.70059 0.24896 0.0
O491 O 0.36728 0.7148 0.23004 0.0
Cd492 Cd 0.33199 0.70304 0.20477 0.0
O493 O 0.36957 0.67689 0.2451 0.0
Cd494 Cd 0.37801 0.66595 0.19902 0.0
C495 C 0.33449 0.63457 0.21058 0.0
O496 O 0.36538 0.70481 0.17849 0.0
O497 O 0.36057 0.6721 0.15529 0.0
O498 O 0.41735 0.68575 0.20386 0.0
C499 C 0.36016 0.69601 0.15728 0.0
O500 O 0.33176 0.65825 0.20925 0.0
C501 C 0.42912 0.66692 0.19513 0.0
O502 O 0.35606 0.62546 0.20584 0.0
O503 O 0.41674 0.64744 0.18845 0.0
C504 C 0.76607 0.09275 0.21154 0.0
O505 O 0.74939 0.09647 0.22794 0.0
Cd506 Cd 0.76575 0.13103 0.25182 0.0
O507 O 0.78911 0.09328 0.21869 0.0
Cd508 Cd 0.80162 0.08617 0.26521 0.0
C509 C 0.83438 0.12805 0.24752 0.0
O510 O 0.76322 0.10056 0.28108 0.0
O511 O 0.79133 0.10224 0.30987 0.0
O512 O 0.78127 0.0474 0.25951 0.0
C513 C 0.76862 0.10621 0.3032 0.0
O514 O 0.81104 0.13325 0.24604 0.0
C515 C 0.79971 0.03467 0.26755 0.0
O516 O 0.84151 0.10838 0.25904 0.0
O517 O 0.81988 0.046 0.27401 0.0
C518 C 0.36475 0.26246 0.71118 0.0
O519 O 0.3494 0.2487 0.7233 0.0
Cd520 Cd 0.33007 0.2625 0.7611 0.0
O521 O 0.37283 0.28312 0.72037 0.0
Cd522 Cd 0.37678 0.29686 0.76476 0.0
C523 C 0.33214 0.33049 0.75214 0.0
O524 O 0.36594 0.25929 0.78615 0.0
O525 O 0.36162 0.29255 0.80894 0.0
O526 O 0.41536 0.27786 0.75816 0.0
C527 C 0.36232 0.26858 0.8076 0.0
O528 O 0.32381 0.30795 0.75394 0.0
C529 C 0.4278 0.29622 0.76701 0.0
O530 O 0.35535 0.33524 0.75512 0.0
O531 O 0.41587 0.31576 0.77429 0.0
C532 C 0.19836 0.87284 0.21169 0.0
O533 O 0.21511 0.87084 0.22846 0.0
Cd534 Cd 0.20185 0.83875 0.25771 0.0
O535 O 0.17552 0.87119 0.21865 0.0
Cd536 Cd 0.16589 0.88051 0.26412 0.0
C537 C 0.13389 0.83425 0.251 0.0
O538 O 0.20324 0.87133 0.28644 0.0
O539 O 0.1697 0.86484 0.30805 0.0
O540 O 0.18485 0.91969 0.25931 0.0
C541 C 0.19362 0.86615 0.3073 0.0
O542 O 0.15674 0.8268 0.24885 0.0
C543 C 0.16493 0.9315 0.26488 0.0
O544 O 0.12894 0.85598 0.25955 0.0
O545 O 0.14486 0.91929 0.26975 0.0
C546 C 0.6051 0.69751 0.71039 0.0
O547 O 0.62455 0.70288 0.72338 0.0
Cd548 Cd 0.64078 0.69585 0.76405 0.0
O549 O 0.58787 0.68349 0.71917 0.0
Cd550 Cd 0.58681 0.67014 0.76348 0.0
C551 C 0.63271 0.63161 0.754 0.0
O552 O 0.60252 0.70685 0.78306 0.0
O553 O 0.59911 0.67541 0.80829 0.0
O554 O 0.54776 0.68944 0.75975 0.0
C555 C 0.60204 0.69904 0.80537 0.0
O556 O 0.64596 0.65114 0.75858 0.0
C557 C 0.53623 0.67052 0.7686 0.0
O558 O 0.60885 0.63245 0.75393 0.0
O559 O 0.54871 0.65077 0.77414 0.0
C560 C 0.75388 0.7724 0.86678 0.0
O561 O 0.73638 0.77063 0.85109 0.0
Cd562 Cd 0.70465 0.7674 0.82261 0.0
O563 O 0.75079 0.78803 0.88449 0.0
Cd564 Cd 0.7037 0.80003 0.88072 0.0
C565 C 0.71101 0.83419 0.83186 0.0
O566 O 0.68579 0.7638 0.86113 0.0
O567 O 0.6575 0.79161 0.86806 0.0
O568 O 0.70457 0.77976 0.91911 0.0
C569 C 0.66285 0.76952 0.86046 0.0
O570 O 0.70896 0.81234 0.82203 0.0
C571 C 0.69657 0.79893 0.93085 0.0
O572 O 0.71095 0.83722 0.8556 0.0
O573 O 0.69209 0.81923 0.91879 0.0
C574 C 0.75452 0.19452 0.10515 0.0
O575 O 0.74328 0.20006 0.12563 0.0
Cd576 Cd 0.70303 0.19155 0.14392 0.0
O577 O 0.74453 0.17989 0.08876 0.0
Cd578 Cd 0.70065 0.16152 0.08449 0.0
C579 C 0.70905 0.12926 0.12765 0.0
O580 O 0.68665 0.19888 0.1042 0.0
O581 O 0.65541 0.17531 0.09407 0.0
O582 O 0.70812 0.18327 0.04641 0.0
C583 C 0.66322 0.19645 0.1025 0.0
O584 O 0.69749 0.14999 0.12941 0.0
C585 C 0.69854 0.16597 0.03306 0.0
O586 O 0.70828 0.11923 0.10605 0.0
O587 O 0.69103 0.14599 0.04406 0.0
C588 C 0.26332 0.2508 0.59756 0.0
O589 O 0.24655 0.23618 0.60619 0.0
Cd590 Cd 0.26186 0.20379 0.63297 0.0
O591 O 0.28582 0.24263 0.59466 0.0
Cd592 Cd 0.29887 0.19682 0.58624 0.0
C593 C 0.33081 0.21054 0.63156 0.0
O594 O 0.26141 0.17907 0.59826 0.0
O595 O 0.29063 0.15135 0.59987 0.0
O596 O 0.27911 0.20293 0.54746 0.0
C597 C 0.26749 0.1568 0.60288 0.0
O598 O 0.30765 0.21178 0.6381 0.0
C599 C 0.29851 0.19733 0.53491 0.0
O600 O 0.33686 0.20139 0.6104 0.0
O601 O 0.31869 0.19138 0.54643 0.0
C602 C 0.21291 0.76466 0.09644 0.0
O603 O 0.22526 0.75089 0.11171 0.0
Cd604 Cd 0.25927 0.76511 0.13705 0.0
O605 O 0.22142 0.78612 0.08922 0.0
Cd606 Cd 0.26569 0.8039 0.08411 0.0
C607 C 0.25296 0.83254 0.12837 0.0
O608 O 0.28077 0.76633 0.10021 0.0
O609 O 0.31143 0.79197 0.09534 0.0
O610 O 0.25879 0.78383 0.04541 0.0
C611 C 0.30395 0.77 0.10155 0.0
O612 O 0.25679 0.80908 0.12839 0.0
C613 C 0.26669 0.80259 0.03303 0.0
O614 O 0.25802 0.84413 0.10819 0.0
O615 O 0.27298 0.82246 0.04497 0.0
C616 C 0.69646 0.70941 0.60476 0.0
O617 O 0.70429 0.7193 0.62521 0.0
Cd618 Cd 0.69601 0.75957 0.64227 0.0
O619 O 0.68222 0.72147 0.58957 0.0
Cd620 Cd 0.66584 0.76599 0.58676 0.0
C621 C 0.62951 0.75561 0.63002 0.0
O622 O 0.70325 0.78015 0.60464 0.0
O623 O 0.67795 0.81103 0.59885 0.0
O624 O 0.68426 0.75968 0.54715 0.0
C625 C 0.69971 0.8035 0.60555 0.0
O626 O 0.65196 0.75625 0.63803 0.0
C627 C 0.66598 0.76969 0.53555 0.0
O628 O 0.6251 0.75824 0.60677 0.0
O629 O 0.64757 0.77815 0.54824 0.0
C630 C 0.21102 0.1951 0.85976 0.0
O631 O 0.22472 0.20039 0.8409 0.0
Cd632 Cd 0.2643 0.19325 0.82245 0.0
O633 O 0.21857 0.17959 0.87643 0.0
Cd634 Cd 0.26355 0.1645 0.87856 0.0
C635 C 0.25523 0.12791 0.83155 0.0
O636 O 0.28034 0.20093 0.86162 0.0
O637 O 0.30955 0.17402 0.86825 0.0
O638 O 0.25966 0.18391 0.91779 0.0
C639 C 0.30345 0.19624 0.8617 0.0
O640 O 0.25745 0.14889 0.82019 0.0
C641 C 0.267 0.16459 0.92971 0.0
O642 O 0.25811 0.12638 0.85516 0.0
O643 O 0.27197 0.1447 0.91726 0.0
C644 C 0.26734 0.71183 0.35795 0.0
O645 O 0.2586 0.72216 0.3381 0.0
Cd646 Cd 0.26737 0.76217 0.32022 0.0
O647 O 0.28269 0.72331 0.3727 0.0
Cd648 Cd 0.30071 0.76765 0.3774 0.0
C649 C 0.33216 0.75633 0.33452 0.0
O650 O 0.26291 0.78286 0.35863 0.0
O651 O 0.28938 0.81279 0.36536 0.0
O652 O 0.28031 0.76143 0.41594 0.0
C653 C 0.26747 0.80613 0.35811 0.0
O654 O 0.30897 0.76087 0.33414 0.0
C655 C 0.29884 0.76969 0.42851 0.0
O656 O 0.34287 0.75898 0.35564 0.0
O657 O 0.31843 0.77721 0.41698 0.0
C658 C 0.70153 0.25237 0.3638 0.0
O659 O 0.71468 0.2406 0.34761 0.0
Cd660 Cd 0.70302 0.20251 0.32733 0.0
O661 O 0.68137 0.24287 0.37299 0.0
Cd662 Cd 0.66437 0.19839 0.37812 0.0
C663 C 0.6353 0.21022 0.33376 0.0
O664 O 0.7025 0.17887 0.3642 0.0
O665 O 0.67122 0.15316 0.3668 0.0
O666 O 0.68517 0.20547 0.41576 0.0
C667 C 0.69457 0.15652 0.36272 0.0
O668 O 0.65875 0.20644 0.3336 0.0
C669 C 0.66683 0.1983 0.42907 0.0
O670 O 0.62394 0.20542 0.35412 0.0
O671 O 0.64651 0.19151 0.41811 0.0
C672 C 0.97165 0.26881 0.18588 0.0
C673 C 0.95824 0.26776 0.16309 0.0
C674 C -0.00642 0.2686 0.18591 0.0
C675 C 0.00691 0.2673 0.16315 0.0
H676 H 0.96191 0.26985 0.20377 0.0
H677 H 0.00338 0.2695 0.20383 0.0
S678 S -0.01975 0.26272 0.09872 0.0
N679 N 0.95975 0.26447 0.11744 0.0
N680 N 0.0051 0.26414 0.11747 0.0
C681 C -0.00628 0.26623 0.14028 0.0
C682 C 0.97129 0.26644 0.14026 0.0
C683 C 0.20691 0.49561 0.68504 0.0
C684 C 0.19358 0.50903 0.66651 0.0
C685 C 0.20651 0.46938 0.68522 0.0
C686 C 0.19282 0.45603 0.66684 0.0
H687 H 0.21846 0.50531 0.69888 0.0
H688 H 0.21786 0.45959 0.69911 0.0
S689 S 0.1511 0.48268 0.61749 0.0
N690 N 0.16361 0.50743 0.63174 0.0
N691 N 0.16295 0.45784 0.63201 0.0
C692 C 0.17795 0.46925 0.64946 0.0
C693 C 0.17832 0.49592 0.6493 0.0
C694 C -0.00596 0.71606 0.17776 0.0
C695 C 0.00715 0.69756 0.16416 0.0
C696 C 0.97211 0.71618 0.17789 0.0
C697 C 0.95854 0.69779 0.16447 0.0
H698 H 0.00402 0.73095 0.18769 0.0
H699 H 0.96249 0.73116 0.18794 0.0
S700 S 0.98438 0.64269 0.13011 0.0
N701 N 0.00515 0.65864 0.13986 0.0
N702 N 0.9597 0.65883 0.1401 0.0
C703 C 0.9714 0.67834 0.15205 0.0
C704 C -0.00615 0.67824 0.15191 0.0
C705 C 0.77477 0.47045 0.68739 0.0
C706 C 0.76921 0.45735 0.66509 0.0
C707 C 0.77522 0.49669 0.68754 0.0
C708 C 0.77015 0.51016 0.66538 0.0
H709 H 0.77897 0.46039 0.70465 0.0
H710 H 0.77971 0.50647 0.70493 0.0
S711 S 0.75117 0.48413 0.60334 0.0
N712 N 0.75641 0.45919 0.62119 0.0
N713 N 0.75714 0.50885 0.62141 0.0
C714 C 0.7639 0.49721 0.64321 0.0
C715 C 0.76348 0.47058 0.64307 0.0
C716 C 0.9714 0.6976 0.81881 0.0
C717 C 0.95838 0.69566 0.79599 0.0
C718 C -0.00684 0.69821 0.81913 0.0
C719 C 0.00675 0.69681 0.79667 0.0
H720 H 0.96151 0.69964 0.83653 0.0
H721 H 0.00264 0.70044 0.83711 0.0
S722 S -0.01883 0.69031 0.73169 0.0
N723 N 0.96039 0.69131 0.75019 0.0
N724 N 0.00578 0.69262 0.75078 0.0
C725 C -0.00595 0.69437 0.77349 0.0
C726 C 0.97164 0.69365 0.77317 0.0
C727 C 0.76366 0.49578 0.31643 0.0
C728 C 0.76937 0.50898 0.29441 0.0
C729 C 0.76347 0.46971 0.31656 0.0
C730 C 0.76894 0.45618 0.29466 0.0
H731 H 0.75923 0.50569 0.33374 0.0
H732 H 0.7589 0.46008 0.33396 0.0
S733 S 0.78446 0.48221 0.23156 0.0
N734 N 0.78003 0.50722 0.24974 0.0
N735 N 0.77973 0.45743 0.24992 0.0
C736 C 0.77412 0.46906 0.27208 0.0
C737 C 0.7743 0.49583 0.27196 0.0
C738 C -0.00685 0.28483 0.7849 0.0
C739 C 0.00631 0.26672 0.79886 0.0
C740 C 0.97118 0.28463 0.78474 0.0
C741 C 0.95812 0.2663 0.79849 0.0
H742 H 0.00313 0.29936 0.77456 0.0
H743 H 0.96111 0.29901 0.77426 0.0
S744 S -0.01972 0.21185 0.83314 0.0
N745 N 0.0051 0.228 0.82337 0.0
N746 N 0.95958 0.22771 0.82316 0.0
C747 C 0.9711 0.24721 0.81115 0.0
C748 C -0.00654 0.24738 0.81128 0.0
C749 C 0.20592 0.46972 0.31403 0.0
C750 C 0.19464 0.45657 0.29411 0.0
C751 C 0.20601 0.49585 0.31422 0.0
C752 C 0.19482 0.50922 0.29449 0.0
H753 H 0.21482 0.45973 0.32948 0.0
H754 H 0.21495 0.50566 0.3298 0.0
S755 S 0.16343 0.48321 0.23752 0.0
N756 N 0.17259 0.45822 0.25379 0.0
N757 N 0.17272 0.50801 0.25413 0.0
C758 C 0.18397 0.49636 0.27402 0.0
C759 C 0.18389 0.46967 0.27383 0.0
C760 C 0.17925 0.97149 0.28299 0.0
C761 C 0.16511 0.95848 0.26478 0.0
C762 C 0.17922 -0.00631 0.28335 0.0
C763 C 0.16497 0.00687 0.26551 0.0
H764 H 0.18995 0.96133 0.29713 0.0
H765 H 0.18982 0.00367 0.29776 0.0
S766 S 0.12961 -0.01892 0.21113 0.0
N767 N 0.13975 0.96012 0.22666 0.0
N768 N 0.13971 0.00582 0.22728 0.0
C769 C 0.15212 -0.00594 0.24638 0.0
C770 C 0.15212 0.97155 0.24603 0.0
C771 C 0.49628 0.64808 0.76634 0.0
C772 C 0.50914 0.67078 0.77045 0.0
C773 C 0.47024 0.64753 0.76603 0.0
C774 C 0.45644 0.66968 0.76975 0.0
H775 H 0.50637 0.63068 0.76262 0.0
H776 H 0.46089 0.62973 0.76212 0.0
S777 S 0.48151 0.73403 0.78279 0.0
N778 N 0.50671 0.71598 0.77941 0.0
N779 N 0.45703 0.71499 0.7788 0.0
C780 C 0.46897 0.69267 0.77441 0.0
C781 C 0.49566 0.69321 0.77476 0.0
C782 C 0.80834 -0.00553 0.24721 0.0
C783 C 0.79818 0.00765 0.26762 0.0
C784 C 0.80843 0.97233 0.24725 0.0
C785 C 0.79844 0.95912 0.26769 0.0
H786 H 0.81665 0.00448 0.23148 0.0
H787 H 0.81689 0.96235 0.23156 0.0
S788 S 0.76691 -0.01875 0.32407 0.0
N789 N 0.77581 0.0062 0.30758 0.0
N790 N 0.77597 0.96041 0.3076 0.0
C791 C 0.78682 0.97203 0.28753 0.0
C792 C 0.78676 -0.00534 0.28751 0.0
C793 C 0.49446 0.3179 0.77202 0.0
C794 C 0.50807 0.29564 0.76799 0.0
C795 C 0.46839 0.31766 0.77203 0.0
C796 C 0.45511 0.29515 0.768 0.0
H797 H 0.50395 0.33584 0.77478 0.0
H798 H 0.45864 0.33542 0.77476 0.0
S799 S 0.48204 0.23107 0.75774 0.0
N800 N 0.50669 0.25 0.76074 0.0
N801 N 0.45714 0.24954 0.76077 0.0
C802 C 0.46839 0.27241 0.76438 0.0
C803 C 0.49511 0.27266 0.76436 0.0
C804 C 0.17188 -0.00571 0.67667 0.0
C805 C 0.16506 0.00741 0.69851 0.0
C806 C 0.17205 0.97209 0.67669 0.0
C807 C 0.16556 0.95892 0.69856 0.0
H808 H 0.17659 0.00435 0.65956 0.0
H809 H 0.17688 0.96206 0.65957 0.0
S810 S 0.15097 -0.0189 0.76141 0.0
N811 N 0.15493 0.00602 0.74311 0.0
N812 N 0.15532 0.96027 0.74313 0.0
C813 C 0.1604 0.97187 0.72089 0.0
C814 C 0.1602 -0.00556 0.72086 0.0
C815 C 0.46958 0.68855 0.18774 0.0
C816 C 0.45627 0.66685 0.195 0.0
C817 C 0.49583 0.6886 0.18817 0.0
C818 C 0.50899 0.66695 0.19585 0.0
H819 H 0.45967 0.70532 0.18152 0.0
H820 H 0.50586 0.70538 0.18213 0.0
S821 S 0.48228 0.60738 0.22057 0.0
N822 N 0.4576 0.62457 0.21257 0.0
N823 N 0.50721 0.62467 0.21346 0.0
C824 C 0.49583 0.64562 0.20402 0.0
C825 C 0.46925 0.64557 0.20354 0.0
C826 C 0.7888 -0.00503 0.71592 0.0
C827 C 0.79864 0.00803 0.69523 0.0
C828 C 0.78824 0.97288 0.71585 0.0
C829 C 0.79754 0.95952 0.69508 0.0
H830 H 0.78246 0.00496 0.73256 0.0
H831 H 0.78159 0.96309 0.73248 0.0
S832 S 0.81972 -0.01864 0.63435 0.0
N833 N 0.81384 0.00634 0.65207 0.0
N834 N 0.81306 0.96065 0.65204 0.0
C835 C 0.8056 0.97235 0.67358 0.0
C836 C 0.80611 -0.00509 0.67362 0.0
C837 C 0.49517 0.27741 0.18866 0.0
C838 C 0.50841 0.29928 0.19573 0.0
C839 C 0.46892 0.27737 0.18869 0.0
C840 C 0.45577 0.29922 0.19576 0.0
H841 H 0.50512 0.26056 0.18273 0.0
H842 H 0.45891 0.26051 0.18272 0.0
S843 S 0.48222 0.35927 0.21987 0.0
N844 N 0.50699 0.34189 0.21263 0.0
N845 N 0.45738 0.34182 0.21272 0.0
C846 C 0.46886 0.32065 0.20389 0.0
C847 C 0.49541 0.32069 0.20385 0.0
C848 C 0.25898 0.18601 -0.00765 0.0
C849 C 0.2687 0.16544 0.00594 0.0
C850 C 0.25899 0.18595 0.97022 0.0
C851 C 0.26901 0.16529 0.957 0.0
H852 H 0.25045 0.20196 0.00186 0.0
H853 H 0.25065 0.20181 0.9604 0.0
S854 S 0.30019 0.10862 -0.02001 0.0
N855 N 0.29085 0.12522 0.00453 0.0
N856 N 0.29121 0.12516 0.95916 0.0
C857 C 0.28006 0.14535 0.97037 0.0
C858 C 0.28003 0.14539 -0.00704 0.0
C859 C 0.25574 0.78208 -0.00738 0.0
C860 C 0.26851 0.80127 0.00584 0.0
C861 C 0.25523 0.78202 0.97044 0.0
C862 C 0.26781 0.80109 0.95703 0.0
H863 H 0.24515 0.76765 0.00246 0.0
H864 H 0.24451 0.7675 0.96075 0.0
S865 S 0.30753 0.85257 0.98319 0.0
N866 N 0.29658 0.8376 0.00392 0.0
N867 N 0.29594 0.83743 0.95861 0.0
C868 C 0.28203 0.8192 0.97009 0.0
C869 C 0.28253 0.81928 -0.00739 0.0
C870 C 0.68849 0.77163 0.49501 0.0
C871 C 0.66568 0.77024 0.50833 0.0
C872 C 0.68839 0.7715 0.4688 0.0
C873 C 0.66548 0.76992 0.45552 0.0
H874 H 0.70637 0.77294 0.50487 0.0
H875 H 0.70621 0.77273 0.45891 0.0
S876 S 0.60132 0.76285 0.482 0.0
N877 N 0.62011 0.76526 0.5067 0.0
N878 N 0.61992 0.76511 0.45728 0.0
C879 C 0.64274 0.76807 0.46868 0.0
C880 C 0.64283 0.76819 0.49524 0.0
C881 C 0.68815 0.14747 -0.00783 0.0
C882 C 0.69679 0.16843 0.00578 0.0
C883 C 0.68781 0.14755 0.9702 0.0
C884 C 0.69644 0.16854 0.95676 0.0
H885 H 0.68196 0.13041 0.00156 0.0
H886 H 0.68163 0.13051 0.96067 0.0
S887 S 0.71787 0.23006 0.9835 0.0
N888 N 0.71189 0.21215 0.00419 0.0
N889 N 0.71156 0.21223 0.95867 0.0
C890 C 0.70384 0.1905 0.96998 0.0
C891 C 0.70416 0.19043 -0.00727 0.0
C892 C 0.28335 0.17995 0.49491 0.0
C893 C 0.29752 0.19814 0.50794 0.0
C894 C 0.28325 0.17977 0.46871 0.0
C895 C 0.29735 0.19775 0.45548 0.0
H896 H 0.27287 0.1656 0.50499 0.0
H897 H 0.2726 0.16535 0.45879 0.0
S898 S 0.33257 0.25228 0.48137 0.0
N899 N 0.32253 0.23658 0.50629 0.0
N900 N 0.32245 0.23615 0.45665 0.0
C901 C 0.31017 0.21691 0.46832 0.0
C902 C 0.31021 0.21715 0.49487 0.0
C903 C 0.7061 0.81873 -0.00687 0.0
C904 C 0.69657 0.79805 0.0064 0.0
C905 C 0.70537 0.81888 0.97112 0.0
C906 C 0.69537 0.79833 0.95786 0.0
H907 H 0.71423 0.83478 0.00294 0.0
H908 H 0.71327 0.83497 0.9613 0.0
S909 S 0.66941 0.73891 -0.01993 0.0
N910 N 0.67753 0.75604 0.00489 0.0
N911 N 0.67657 0.75625 0.95929 0.0
C912 C 0.68624 0.77713 0.97081 0.0
C913 C 0.68695 0.77698 -0.00659 0.0
C914 C 0.65293 0.18245 0.49586 0.0
C915 C 0.67006 0.19776 0.50899 0.0
C916 C 0.65252 0.18238 0.4698 0.0
C917 C 0.66919 0.19763 0.4562 0.0
H918 H 0.63944 0.17075 0.50577 0.0
H919 H 0.63875 0.17056 0.46029 0.0
S920 S 0.7191 0.23997 0.48187 0.0
N921 N 0.70529 0.22753 0.5068 0.0
N922 N 0.70443 0.22746 0.45735 0.0
C923 C 0.68738 0.2122 0.46901 0.0
C924 C 0.68784 0.21224 0.49565 0.0
C925 C 0.27699 0.77841 0.46829 0.0
C926 C 0.29817 0.76916 0.45551 0.0
C927 C 0.2768 0.77892 0.49448 0.0
C928 C 0.29779 0.77018 0.508 0.0
H929 H 0.2609 0.78575 0.45803 0.0
H930 H 0.2605 0.78649 0.50417 0.0
S931 S 0.35486 0.739 0.48271 0.0
N932 N 0.33853 0.74768 0.45768 0.0
N933 N 0.33827 0.7486 0.50719 0.0
C934 C 0.31831 0.75954 0.49535 0.0
C935 C 0.31846 0.75902 0.46885 0.0
C936 C 0.11877 0.35172 0.24502 0.0
C937 C 0.14328 0.34292 0.24967 0.0
C938 C 0.10526 0.34302 0.22398 0.0
C939 C 0.1165 0.32651 0.20659 0.0
H940 H 0.1102 0.36544 0.25748 0.0
H941 H 0.08568 0.34846 0.22176 0.0
S942 S 0.18005 0.29775 0.21076 0.0
N943 N 0.17727 0.31498 0.23653 0.0
N944 N 0.1537 0.30251 0.19481 0.0
C945 C 0.1414 0.31864 0.21052 0.0
C946 C 0.15422 0.32564 0.23281 0.0
C947 C 0.13863 0.63964 0.75502 0.0
C948 C 0.1125 0.64198 0.75283 0.0
C949 C 0.15251 0.628 0.73611 0.0
C950 C 0.14081 0.61824 0.71421 0.0
H951 H 0.14855 0.64791 0.77091 0.0
H952 H 0.17277 0.62705 0.73865 0.0
S953 S 0.07249 0.62073 0.69948 0.0
N954 N 0.0751 0.63453 0.72732 0.0
N955 N 0.10138 0.61219 0.69144 0.0
C956 C 0.11456 0.62056 0.71178 0.0
C957 C 0.10035 0.6325 0.73124 0.0
C958 C 0.8112 0.63234 0.22832 0.0
C959 C 0.82251 0.61913 0.24845 0.0
C960 C 0.82555 0.64281 0.20911 0.0
C961 C 0.85181 0.6406 0.20923 0.0
H962 H 0.79095 0.63493 0.22735 0.0
H963 H 0.8161 0.65377 0.19466 0.0
S964 S 0.89134 0.61056 0.25833 0.0
N965 N 0.86202 0.60567 0.26782 0.0
N966 N 0.88911 0.62632 0.2316 0.0
C967 C 0.86364 0.6281 0.22932 0.0
C968 C 0.84897 0.61712 0.24899 0.0
C969 C 0.82483 0.31792 0.74807 0.0
C970 C 0.84958 0.32515 0.75392 0.0
C971 C 0.81229 0.32828 0.72757 0.0
C972 C 0.82367 0.34698 0.7127 0.0
H973 H 0.81542 0.30333 0.7588 0.0
H974 H 0.79323 0.32197 0.72366 0.0
S975 S 0.88769 0.37376 0.72131 0.0
N976 N 0.88517 0.35224 0.74372 0.0
N977 N 0.86058 0.37334 0.70581 0.0
C978 C 0.84819 0.355 0.71868 0.0
C979 C 0.86132 0.34385 0.73935 0.0
C980 C 0.24572 0.14803 0.32215 0.0
C981 C 0.25196 0.13986 0.34634 0.0
C982 C 0.226 0.13735 0.30886 0.0
C983 C 0.21269 0.11648 0.31813 0.0
H984 H 0.2556 0.16359 0.31354 0.0
H985 H 0.22173 0.14536 0.29061 0.0
S986 S 0.22396 0.08544 0.38013 0.0
N987 N 0.24431 0.10916 0.37948 0.0
N988 N 0.2083 0.08657 0.35306 0.0
C989 C 0.21939 0.10696 0.34216 0.0
C990 C 0.23909 0.11899 0.35643 0.0
C991 C 0.30919 0.73422 0.83178 0.0
C992 C 0.32137 0.75234 0.84709 0.0
C993 C 0.32261 0.7151 0.8198 0.0
C994 C 0.34871 0.71308 0.82291 0.0
H995 H 0.28902 0.73475 0.8288 0.0
H996 H 0.31258 0.70224 0.80739 0.0
S997 S 0.38992 0.7556 0.86037 0.0
N998 N 0.36122 0.76709 0.86445 0.0
N999 N 0.38672 0.73086 0.84157 0.0
C1000 C 0.36134 0.73097 0.83795 0.0
C1001 C 0.3476 0.75071 0.85014 0.0
C1002 C 0.7346 0.8325 0.35742 0.0
C1003 C 0.71151 0.82533 0.34641 0.0
C1004 C 0.75311 0.84499 0.34337 0.0
C1005 C 0.7492 0.85006 0.31775 0.0
H1006 H 0.73862 0.82775 0.37685 0.0
H1007 H 0.7708 0.84995 0.35239 0.0
S1008 S 0.69279 0.8319 0.27954 0.0
N1009 N 0.68639 0.8221 0.30831 0.0
N1010 N 0.72062 0.84575 0.28163 0.0
C1011 C 0.72603 0.84269 0.30652 0.0
C1012 C 0.70729 0.8302 0.32092 0.0
C1013 C 0.62193 0.21624 0.85056 0.0
C1014 C 0.64831 0.2166 0.84771 0.0
C1015 C 0.60687 0.23495 0.83934 0.0
C1016 C 0.61785 0.25475 0.82558 0.0
H1017 H 0.61286 0.20114 0.86089 0.0
H1018 H 0.58652 0.23337 0.84055 0.0
S1019 S 0.68562 0.26407 0.81163 0.0
N1020 N 0.68451 0.23853 0.82931 0.0
N1021 N 0.6561 0.27359 0.80918 0.0
C1022 C 0.64407 0.25572 0.82313 0.0
C1023 C 0.65934 0.23665 0.83399 0.0
C1024 C 0.22407 0.81904 0.61208 0.0
C1025 C 0.2501 0.82289 0.61605 0.0
C1026 C 0.20605 0.83416 0.62392 0.0
C1027 C 0.21354 0.85358 0.64021 0.0
H1028 H 0.21754 0.8035 0.60043 0.0
H1029 H 0.18625 0.82962 0.62149 0.0
S1030 S 0.2793 0.87098 0.65783 0.0
N1031 N 0.28245 0.84741 0.63762 0.0
N1032 N 0.24866 0.87606 0.6599 0.0
C1033 C 0.23957 0.85822 0.64376 0.0
C1034 C 0.2579 0.84284 0.63162 0.0
C1035 C 0.64046 0.75667 0.13745 0.0
C1036 C 0.64127 0.75515 0.11123 0.0
C1037 C 0.62884 0.73784 0.15138 0.0
C1038 C 0.61746 0.71677 0.1396 0.0
H1039 H 0.65 0.77189 0.14732 0.0
H1040 H 0.62921 0.73976 0.17169 0.0
S1041 S 0.61553 0.70399 0.07102 0.0
N1042 N 0.63074 0.73115 0.07365 0.0
N1043 N 0.60814 0.69545 0.10002 0.0
C1044 C 0.61813 0.71504 0.11326 0.0
C1045 C 0.63016 0.73439 0.09902 0.0
C1046 C 0.75225 0.12 0.61869 0.0
C1047 C 0.74859 0.11491 0.64429 0.0
C1048 C 0.73361 0.13239 0.60474 0.0
C1049 C 0.71075 0.13973 0.61593 0.0
H1050 H 0.76975 0.1149 0.60951 0.0
H1051 H 0.73741 0.13707 0.58526 0.0
S1052 S 0.69295 0.13386 0.68302 0.0
N1053 N 0.72051 0.11963 0.68069 0.0
N1054 N 0.68631 0.14359 0.65426 0.0
C1055 C 0.70687 0.1351 0.64149 0.0
C1056 C 0.72563 0.12248 0.65574 0.0
C1057 C 0.31387 0.22068 0.13704 0.0
C1058 C 0.32336 0.2106 0.11467 0.0
C1059 C 0.32467 0.2417 0.14801 0.0
C1060 C 0.34715 0.25196 0.13884 0.0
H1061 H 0.29713 0.21304 0.14567 0.0
H1062 H 0.31563 0.24936 0.16448 0.0
S1063 S 0.38158 0.23098 0.08182 0.0
N1064 N 0.3566 0.21221 0.08313 0.0
N1065 N 0.37967 0.24997 0.10655 0.0
C1066 C 0.35787 0.24153 0.11698 0.0
C1067 C 0.34559 0.22088 0.10452 0.0
C1068 C 0.84576 0.61631 0.72012 0.0
C1069 C 0.82024 0.62298 0.71686 0.0
C1070 C 0.86028 0.62746 0.73948 0.0
C1071 C 0.84924 0.64447 0.75663 0.0
H1072 H 0.85455 0.6029 0.70749 0.0
H1073 H 0.88036 0.62376 0.7403 0.0
S1074 S 0.78341 0.66718 0.75696 0.0
N1075 N 0.78552 0.64913 0.73176 0.0
N1076 N 0.81111 0.6649 0.77094 0.0
C1077 C 0.82346 0.64937 0.75474 0.0
C1078 C 0.80945 0.64019 0.73395 0.0
C1079 C 0.86173 0.33829 0.2281 0.0
C1080 C 0.8504 0.32541 0.20789 0.0
C1081 C 0.847 0.34942 0.2469 0.0
C1082 C 0.82063 0.34775 0.24594 0.0
H1083 H 0.88209 0.33882 0.2299 0.0
H1084 H 0.85628 0.35914 0.26233 0.0
S1085 S 0.78231 0.31345 0.19751 0.0
N1086 N 0.81186 0.30988 0.18856 0.0
N1087 N 0.7838 0.33118 0.22309 0.0
C1088 C 0.80912 0.33486 0.22547 0.0
C1089 C 0.82415 0.32356 0.20658 0.0
C1090 C 0.11227 0.31858 0.72501 0.0
C1091 C 0.1137 0.32488 0.75084 0.0
C1092 C 0.12583 0.33193 0.70692 0.0
C1093 C 0.14144 0.352 0.71397 0.0
H1094 H 0.10125 0.30251 0.71868 0.0
H1095 H 0.12532 0.32547 0.68755 0.0
S1096 S 0.15192 0.37657 0.77871 0.0
N1097 N 0.1318 0.35299 0.78236 0.0
N1098 N 0.15731 0.37838 0.74812 0.0
C1099 C 0.14242 0.35929 0.7395 0.0
C1100 C 0.12851 0.34566 0.75804 0.0
C1101 C 0.15222 0.62847 0.22671 0.0
C1102 C 0.14098 0.61871 0.24872 0.0
C1103 C 0.13784 0.63937 0.20776 0.0
C1104 C 0.1117 0.64118 0.21016 0.0
H1105 H 0.17249 0.62809 0.22408 0.0
H1106 H 0.14739 0.64769 0.19175 0.0
S1107 S 0.07288 0.62 0.26411 0.0
N1108 N 0.10203 0.61208 0.27193 0.0
N1109 N 0.07481 0.63341 0.23609 0.0
C1110 C 0.10003 0.63176 0.23194 0.0
C1111 C 0.11473 0.62037 0.25135 0.0
C1112 C 0.73591 0.86119 0.62853 0.0
C1113 C 0.75527 0.84998 0.64274 0.0
C1114 C 0.71797 0.84615 0.61595 0.0
C1115 C 0.71898 0.81965 0.61763 0.0
H1116 H 0.73399 0.88155 0.62808 0.0
H1117 H 0.70298 0.85526 0.60547 0.0
S1118 S 0.76691 0.78193 0.65275 0.0
N1119 N 0.77517 0.81161 0.65729 0.0
N1120 N 0.74176 0.78315 0.63446 0.0
C1121 C 0.73901 0.8085 0.63129 0.0
C1122 C 0.75713 0.82376 0.64367 0.0
C1123 C 0.60676 0.23033 0.13046 0.0
C1124 C 0.61719 0.25378 0.13751 0.0
C1125 C 0.62135 0.21197 0.11823 0.0
C1126 C 0.64699 0.21636 0.1133 0.0
H1127 H 0.58736 0.2259 0.13512 0.0
H1128 H 0.61277 0.19401 0.11347 0.0
S1129 S 0.68386 0.27372 0.1313 0.0
N1130 N 0.65483 0.27968 0.1407 0.0
N1131 N 0.68246 0.24572 0.11772 0.0
C1132 C 0.65761 0.23986 0.12052 0.0
C1133 C 0.64267 0.25847 0.13269 0.0
C1134 C 0.22719 0.15248 0.6257 0.0
C1135 C 0.24892 0.14076 0.6157 0.0
C1136 C 0.20824 0.13847 0.63716 0.0
C1137 C 0.21027 0.11226 0.639 0.0
H1138 H 0.22475 0.17277 0.62498 0.0
H1139 H 0.19246 0.14831 0.64561 0.0
S1140 S 0.26389 0.07258 0.61837 0.0
N1141 N 0.27185 0.10151 0.60984 0.0
N1142 N 0.23591 0.075 0.63182 0.0
C1143 C 0.23191 0.10024 0.62968 0.0
C1144 C 0.25137 0.11455 0.61794 0.0
C1145 C 0.34369 0.75576 0.12281 0.0
C1146 C 0.3197 0.7502 0.1131 0.0
C1147 C 0.35738 0.73735 0.13591 0.0
C1148 C 0.34773 0.71276 0.13927 0.0
H1149 H 0.35151 0.77459 0.1211 0.0
H1150 H 0.37538 0.74258 0.14415 0.0
S1151 S 0.28481 0.6893 0.11982 0.0
N1152 N 0.2863 0.71842 0.10892 0.0
N1153 N 0.31224 0.68436 0.13372 0.0
C1154 C 0.32388 0.70691 0.12967 0.0
C1155 C 0.30981 0.72554 0.11653 0.0
C1156 C 0.72839 0.12464 0.35912 0.0
C1157 C 0.70928 0.139 0.34767 0.0
C1158 C 0.74796 0.11416 0.34475 0.0
C1159 C 0.74913 0.11837 0.31871 0.0
H1160 H 0.7288 0.12245 0.3794 0.0
H1161 H 0.7623 0.10298 0.35405 0.0
S1162 S 0.70353 0.156 0.28034 0.0
N1163 N 0.69216 0.15665 0.3092 0.0
N1164 N 0.72937 0.13876 0.28228 0.0
C1165 C 0.72978 0.13272 0.30715 0.0
C1166 C 0.70966 0.14255 0.32164 0.0
C1167 C 0.3103 0.23847 0.84328 0.0
C1168 C 0.32062 0.2149 0.85029 0.0
C1169 C 0.32479 0.25686 0.83148 0.0
C1170 C 0.35015 0.2524 0.82607 0.0
H1171 H 0.29059 0.24278 0.84647 0.0
H1172 H 0.3157 0.2741 0.82527 0.0
S1173 S 0.38607 0.19356 0.83795 0.0
N1174 N 0.35774 0.18785 0.84966 0.0
N1175 N 0.38505 0.22273 0.82699 0.0
C1176 C 0.36089 0.22908 0.83271 0.0
C1177 C 0.34612 0.21021 0.84495 0.0
C1178 C 0.22675 0.81192 0.33615 0.0
C1179 C 0.24855 0.8231 0.34675 0.0
C1180 C 0.20772 0.82643 0.32544 0.0
C1181 C 0.20968 0.85272 0.32488 0.0
H1182 H 0.22435 0.7916 0.33569 0.0
H1183 H 0.19197 0.81694 0.3164 0.0
S1184 S 0.26349 0.89166 0.34698 0.0
N1185 N 0.2714 0.86239 0.3545 0.0
N1186 N 0.23546 0.88967 0.33344 0.0
C1187 C 0.23138 0.86435 0.33474 0.0
C1188 C 0.25088 0.84956 0.34594 0.0
C1189 C 0.63988 0.71 0.82892 0.0
C1190 C 0.61444 0.71468 0.8242 0.0
C1191 C 0.65484 0.72806 0.84073 0.0
C1192 C 0.64498 0.75158 0.84851 0.0
H1193 H 0.64867 0.69282 0.82213 0.0
H1194 H 0.67459 0.72347 0.84333 0.0
S1195 S 0.57893 0.77309 0.83872 0.0
N1196 N 0.5796 0.74424 0.82685 0.0
N1197 N 0.60769 0.77861 0.84973 0.0
C1198 C 0.61922 0.75644 0.84401 0.0
C1199 C 0.60396 0.73784 0.83168 0.0
C1200 C 0.12263 0.17578 0.20412 0.0
C1201 C 0.09783 0.18463 0.20682 0.0
C1202 C 0.13208 0.15681 0.21972 0.0
C1203 C 0.11672 0.14538 0.23794 0.0
H1204 H 0.13578 0.18571 0.19206 0.0
H1205 H 0.15184 0.15186 0.21826 0.0
S1206 S 0.04923 0.15856 0.24993 0.0
N1207 N 0.05715 0.17852 0.22729 0.0
N1208 N 0.07484 0.14185 0.25594 0.0
C1209 C 0.09115 0.15203 0.23905 0.0
C1210 C 0.08162 0.17188 0.22353 0.0
C1211 C 0.31405 0.59886 0.7315 0.0
C1212 C 0.31305 0.62413 0.73983 0.0
C1213 C 0.29499 0.58903 0.71573 0.0
C1214 C 0.27545 0.60464 0.70687 0.0
H1215 H 0.32927 0.58662 0.73748 0.0
H1216 H 0.29496 0.56906 0.71128 0.0
S1217 S 0.26445 0.67188 0.72262 0.0
N1218 N 0.28948 0.66377 0.73911 0.0
N1219 N 0.25707 0.64651 0.70614 0.0
C1220 C 0.27531 0.63014 0.7138 0.0
C1221 C 0.29305 0.6395 0.73138 0.0
C1222 C 0.8701 0.81389 0.23553 0.0
C1223 C 0.84419 0.81948 0.23506 0.0
C1224 C 0.87977 0.79441 0.22045 0.0
C1225 C 0.86388 0.78098 0.20394 0.0
H1226 H 0.88245 0.82315 0.24897 0.0
H1227 H 0.89903 0.78827 0.22342 0.0
S1228 S 0.79563 0.79043 0.19332 0.0
N1229 N 0.80334 0.81109 0.21534 0.0
N1230 N 0.82228 0.77645 0.18557 0.0
C1231 C 0.83883 0.78864 0.20104 0.0
C1232 C 0.82865 0.80725 0.21723 0.0
C1233 C 0.66968 0.32951 0.73006 0.0
C1234 C 0.64897 0.34398 0.73807 0.0
C1235 C 0.68789 0.33938 0.71423 0.0
C1236 C 0.68724 0.36467 0.70674 0.0
H1237 H 0.67208 0.31007 0.73591 0.0
H1238 H 0.70383 0.32753 0.70939 0.0
S1239 S 0.63679 0.41103 0.72092 0.0
N1240 N 0.62782 0.38495 0.73558 0.0
N1241 N 0.66391 0.40421 0.70715 0.0
C1242 C 0.66659 0.37964 0.714 0.0
C1243 C 0.64712 0.3692 0.72955 0.0
C1244 C 0.08866 0.78408 0.73346 0.0
C1245 C 0.09696 0.78115 0.75852 0.0
C1246 C 0.09753 0.80417 0.71872 0.0
C1247 C 0.11421 0.82188 0.72918 0.0
H1248 H 0.07864 0.76882 0.72417 0.0
H1249 H 0.09392 0.804 0.69863 0.0
S1250 S 0.13605 0.82592 0.79526 0.0
N1251 N 0.1183 0.80024 0.79425 0.0
N1252 N 0.13451 0.83825 0.76679 0.0
C1253 C 0.11876 0.82156 0.7552 0.0
C1254 C 0.10998 0.80109 0.77003 0.0
C1255 C 0.64535 0.61361 0.24956 0.0
C1256 C 0.64768 0.6153 0.22325 0.0
C1257 C 0.66554 0.60508 0.26433 0.0
C1258 C 0.68826 0.59793 0.25292 0.0
H1259 H 0.62938 0.62222 0.25894 0.0
H1260 H 0.6647 0.60781 0.28453 0.0
S1261 S 0.70108 0.59263 0.18464 0.0
N1262 N 0.67239 0.60475 0.18629 0.0
N1263 N 0.70969 0.58714 0.21405 0.0
C1264 C 0.68876 0.5949 0.22661 0.0
C1265 C 0.66862 0.60432 0.21159 0.0
C1266 C 0.85286 0.16809 0.76757 0.0
C1267 C 0.87045 0.18473 0.75712 0.0
C1268 C 0.84274 0.14872 0.75303 0.0
C1269 C 0.85032 0.14525 0.72795 0.0
H1270 H 0.84402 0.1724 0.78546 0.0
H1271 H 0.82703 0.13806 0.76065 0.0
S1272 S 0.90144 0.17946 0.69494 0.0
N1273 N 0.89955 0.19316 0.72287 0.0
N1274 N 0.88022 0.15648 0.69506 0.0
C1275 C 0.87094 0.15899 0.71876 0.0
C1276 C 0.88133 0.17879 0.73375 0.0
C1277 C 0.29758 0.32981 0.23762 0.0
C1278 C 0.31604 0.34489 0.22593 0.0
C1279 C 0.27977 0.3401 0.25369 0.0
C1280 C 0.2787 0.36615 0.25799 0.0
H1281 H 0.29658 0.30962 0.2344 0.0
H1282 H 0.26531 0.32772 0.26118 0.0
S1283 S 0.32326 0.41431 0.23349 0.0
N1284 N 0.33345 0.38734 0.22146 0.0
N1285 N 0.29816 0.4071 0.25052 0.0
C1286 C 0.29731 0.38168 0.24715 0.0
C1287 C 0.31634 0.37097 0.23129 0.0
C1288 C 0.22094 0.09941 0.144 0.0
C1289 C 0.24209 0.11496 0.14874 0.0
C1290 C 0.20506 0.09167 0.16392 0.0
C1291 C 0.21024 0.09941 0.18878 0.0
H1292 H 0.215 0.09576 0.12481 0.0
H1293 H 0.18756 0.082 0.15956 0.0
S1294 S 0.26594 0.13645 0.21083 0.0
N1295 N 0.26929 0.13442 0.18006 0.0
N1296 N 0.2404 0.11991 0.21709 0.0
C1297 C 0.23328 0.11204 0.19367 0.0
C1298 C 0.24907 0.11977 0.17371 0.0
C1299 C 0.33494 0.74462 0.67236 0.0
C1300 C 0.3459 0.74231 0.64856 0.0
C1301 C 0.34203 0.7291 0.69198 0.0
C1302 C 0.36154 0.71131 0.68946 0.0
H1303 H 0.31992 0.75807 0.67579 0.0
H1304 H 0.33224 0.73158 0.70971 0.0
S1305 S 0.39682 0.6978 0.63049 0.0
N1306 N 0.37695 0.72053 0.62271 0.0
N1307 N 0.39187 0.69195 0.66074 0.0
C1308 C 0.37317 0.70873 0.66571 0.0
C1309 C 0.36523 0.72438 0.64511 0.0
C1310 C 0.76808 0.85389 0.16658 0.0
C1311 C 0.75841 0.87019 0.18497 0.0
C1312 C 0.75289 0.84563 0.14673 0.0
C1313 C 0.72785 0.85399 0.14434 0.0
H1314 H 0.78601 0.84454 0.16959 0.0
H1315 H 0.75978 0.83035 0.135 0.0
S1316 S 0.69591 0.90192 0.18328 0.0
N1317 N 0.72407 0.89856 0.19645 0.0
N1318 N 0.69554 0.8828 0.15867 0.0
C1319 C 0.71923 0.87315 0.16014 0.0
C1320 C 0.73471 0.88155 0.18053 0.0
C1321 C 0.61541 0.26713 0.66982 0.0
C1322 C 0.59667 0.25731 0.68546 0.0
C1323 C 0.62571 0.25231 0.65087 0.0
C1324 C 0.61717 0.22752 0.64661 0.0
H1325 H 0.6249 0.28464 0.67472 0.0
H1326 H 0.64216 0.2595 0.6411 0.0
S1327 S 0.56188 0.19706 0.67663 0.0
N1328 N 0.56501 0.22451 0.69127 0.0
N1329 N 0.58445 0.19624 0.65513 0.0
C1330 C 0.59531 0.21921 0.65897 0.0
C1331 C 0.58483 0.23448 0.6785 0.0
C1332 C 0.20407 0.84147 0.78443 0.0
C1333 C 0.20512 0.86706 0.77839 0.0
C1334 C 0.21954 0.8315 0.80281 0.0
C1335 C 0.23579 0.8468 0.81731 0.0
H1336 H 0.19338 0.82841 0.77277 0.0
H1337 H 0.21881 0.81119 0.80513 0.0
S1338 S 0.2404 0.91678 0.81336 0.0
N1339 N 0.22059 0.90877 0.79052 0.0
N1340 N 0.24857 0.89008 0.82738 0.0
C1341 C 0.23483 0.87319 0.81372 0.0
C1342 C 0.21959 0.88334 0.79379 0.0
C1343 C 0.58729 0.71986 0.2924 0.0
C1344 C 0.60305 0.70625 0.27595 0.0
C1345 C 0.59767 0.73499 0.31168 0.0
C1346 C 0.62402 0.7377 0.31402 0.0
H1347 H 0.5671 0.72019 0.28922 0.0
H1348 H 0.58514 0.74558 0.32381 0.0
S1349 S 0.67283 0.70507 0.27548 0.0
N1350 N 0.64563 0.69459 0.26456 0.0
N1351 N 0.66535 0.72457 0.2984 0.0
C1352 C 0.63969 0.72325 0.29811 0.0
C1353 C 0.62911 0.70691 0.27983 0.0
C1354 C 0.7485 0.08463 0.79356 0.0
C1355 C 0.76133 0.10149 0.77762 0.0
C1356 C 0.73338 0.09368 0.81341 0.0
C1357 C 0.72957 0.1198 0.81691 0.0
H1358 H 0.74862 0.06457 0.78952 0.0
H1359 H 0.72306 0.08019 0.82474 0.0
S1360 S 0.76023 0.17119 0.78028 0.0
N1361 N 0.77127 0.14492 0.76793 0.0
N1362 N 0.74142 0.16204 0.80326 0.0
C1363 C 0.74343 0.13659 0.80175 0.0
C1364 C 0.75979 0.12736 0.78269 0.0
C1365 C 0.37806 0.23503 0.28318 0.0
C1366 C 0.36731 0.2589 0.27842 0.0
C1367 C 0.36925 0.2199 0.30298 0.0
C1368 C 0.35011 0.22879 0.31877 0.0
H1369 H 0.39036 0.22649 0.26931 0.0
H1370 H 0.37518 0.20035 0.30401 0.0
S1371 S 0.31781 0.29072 0.31558 0.0
N1372 N 0.3388 0.29157 0.2927 0.0
N1373 N 0.32239 0.26349 0.32995 0.0
C1374 C 0.34193 0.25394 0.31635 0.0
C1375 C 0.35077 0.26913 0.29621 0.0
C1376 C 0.17725 0.2315 0.085 0.0
C1377 C 0.18205 0.20665 0.09316 0.0
C1378 C 0.15808 0.24585 0.09622 0.0
C1379 C 0.14301 0.23505 0.11501 0.0
H1380 H 0.19086 0.24115 0.07323 0.0
H1381 H 0.15701 0.2659 0.09236 0.0
S1382 S 0.1435 0.16893 0.13721 0.0
N1383 N 0.16683 0.17051 0.11669 0.0
N1384 N 0.13026 0.19711 0.13703 0.0
C1385 C 0.14466 0.20905 0.11955 0.0
C1386 C 0.16421 0.19465 0.10841 0.0
C1387 C 0.16681 0.75395 0.87577 0.0
C1388 C 0.1871 0.76076 0.8601 0.0
C1389 C 0.14741 0.73799 0.86674 0.0
C1390 C 0.14874 0.72734 0.84239 0.0
H1391 H 0.16655 0.76002 0.89525 0.0
H1392 H 0.13181 0.73341 0.87905 0.0
S1393 S 0.19888 0.73906 0.79489 0.0
N1394 N 0.20624 0.75739 0.8189 0.0
N1395 N 0.17307 0.72415 0.80359 0.0
C1396 C 0.16922 0.73402 0.82694 0.0
C1397 C 0.18738 0.75176 0.8353 0.0
C1398 C 0.72415 0.69196 0.33862 0.0
C1399 C 0.71006 0.69066 0.36089 0.0
C1400 C 0.73982 0.67255 0.33127 0.0
C1401 C 0.74107 0.64988 0.3448 0.0
H1402 H 0.72394 0.70886 0.3271 0.0
H1403 H 0.75064 0.67533 0.31421 0.0
S1404 S 0.70666 0.63549 0.404 0.0
N1405 N 0.69801 0.66469 0.39687 0.0
N1406 N 0.7263 0.62652 0.38154 0.0
C1407 C 0.72658 0.64759 0.36696 0.0
C1408 C 0.71105 0.66823 0.37518 0.0
C1409 C 0.7751 0.2356 0.8637 0.0
C1410 C 0.77844 0.20944 0.86697 0.0
C1411 C 0.79501 0.25088 0.85596 0.0
C1412 C 0.8191 0.24073 0.85259 0.0
H1413 H 0.75626 0.24353 0.86317 0.0
H1414 H 0.79081 0.26983 0.84948 0.0
S1415 S 0.83996 0.17609 0.8693 0.0
N1416 N 0.80902 0.17569 0.87362 0.0
N1417 N 0.84704 0.20518 0.86048 0.0
C1418 C 0.82387 0.2161 0.86132 0.0
C1419 C 0.80326 0.20011 0.86835 0.0
C1420 C 0.22566 0.27665 0.36427 0.0
C1421 C 0.25199 0.27851 0.36728 0.0
C1422 C 0.21166 0.29718 0.35578 0.0
C1423 C 0.22334 0.32051 0.35188 0.0
H1424 H 0.21653 0.2583 0.36441 0.0
H1425 H 0.1925 0.29397 0.34931 0.0
S1426 S 0.28934 0.33794 0.36635 0.0
N1427 N 0.2879 0.30717 0.37188 0.0
N1428 N 0.26051 0.34648 0.35816 0.0
C1429 C 0.24824 0.32401 0.36017 0.0
C1430 C 0.26301 0.30274 0.36756 0.0
C1431 C 0.80087 0.76214 0.09479 0.0
C1432 C 0.77613 0.75325 0.09838 0.0
C1433 C 0.82148 0.74714 0.1024 0.0
C1434 C 0.8173 0.7237 0.1143 0.0
H1435 H 0.80416 0.78152 0.08916 0.0
H1436 H 0.84019 0.75541 0.10233 0.0
S1437 S 0.75621 0.69097 0.12279 0.0
N1438 N 0.74916 0.71753 0.10833 0.0
N1439 N 0.78722 0.69117 0.12563 0.0
C1440 C 0.79299 0.71351 0.11438 0.0
C1441 C 0.77249 0.72793 0.10542 0.0
C1442 C 0.74415 0.29162 0.6282 0.0
C1443 C 0.74102 0.31596 0.61859 0.0
C1444 C 0.72876 0.27206 0.62059 0.0
C1445 C 0.71085 0.27507 0.60132 0.0
H1446 H 0.75736 0.28798 0.6434 0.0
H1447 H 0.7312 0.25407 0.63002 0.0
S1448 S 0.69797 0.33456 0.56646 0.0
N1449 N 0.72011 0.3423 0.58716 0.0
N1450 N 0.69217 0.3041 0.5708 0.0
C1451 C 0.70856 0.29898 0.58983 0.0
C1452 C 0.72384 0.31966 0.59857 0.0
C1453 C 0.24129 0.64746 0.6009 0.0
C1454 C 0.22055 0.65194 0.61689 0.0
C1455 C 0.25647 0.6677 0.59258 0.0
C1456 C 0.25079 0.69252 0.60007 0.0
H1457 H 0.24754 0.62831 0.5974 0.0
H1458 H 0.27386 0.66369 0.58271 0.0
S1459 S 0.19536 0.71374 0.63741 0.0
N1460 N 0.19291 0.68272 0.63622 0.0
N1461 N 0.22029 0.7205 0.62028 0.0
C1462 C 0.22789 0.69706 0.61286 0.0
C1463 C 0.21295 0.67676 0.62137 0.0
C1464 C 0.86607 0.82166 0.74089 0.0
C1465 C 0.84791 0.81754 0.72191 0.0
C1466 C 0.87424 0.80173 0.75639 0.0
C1467 C 0.86446 0.77724 0.75318 0.0
H1468 H 0.87279 0.84059 0.74483 0.0
H1469 H 0.88735 0.80572 0.77156 0.0
S1470 S 0.81785 0.75648 0.7046 0.0
N1471 N 0.82147 0.78705 0.69986 0.0
N1472 N 0.83708 0.74973 0.72805 0.0
C1473 C 0.84735 0.77278 0.73319 0.0
C1474 C 0.83901 0.79291 0.71776 0.0
C1475 C 0.64968 0.36635 0.23383 0.0
C1476 C 0.65122 0.34162 0.22396 0.0
C1477 C 0.66887 0.37582 0.24986 0.0
C1478 C 0.68886 0.36014 0.25779 0.0
H1479 H 0.63391 0.37839 0.22899 0.0
H1480 H 0.66848 0.39549 0.25548 0.0
S1481 S 0.70254 0.2953 0.23575 0.0
N1482 N 0.67699 0.3037 0.22031 0.0
N1483 N 0.70854 0.31903 0.25491 0.0
C1484 C 0.68957 0.33523 0.24894 0.0
C1485 C 0.67216 0.32675 0.23063 0.0
C1486 C 0.0942 0.15583 0.72307 0.0
C1487 C 0.11847 0.14766 0.72992 0.0
C1488 C 0.08234 0.17501 0.73707 0.0
C1489 C 0.09424 0.18549 0.75846 0.0
H1490 H 0.08568 0.1494 0.70564 0.0
H1491 H 0.06552 0.18377 0.72946 0.0
S1492 S 0.15602 0.16845 0.78533 0.0
N1493 N 0.15283 0.1503 0.76028 0.0
N1494 N 0.12912 0.18375 0.78775 0.0
C1495 C 0.11626 0.17432 0.76758 0.0
C1496 C 0.12906 0.15632 0.75267 0.0
C1497 C 0.293 0.63534 0.23023 0.0
C1498 C 0.31433 0.62086 0.22393 0.0
C1499 C 0.27465 0.62643 0.24622 0.0
C1500 C 0.27528 0.60171 0.25526 0.0
H1501 H 0.29025 0.65432 0.22314 0.0
H1502 H 0.25862 0.63855 0.25004 0.0
S1503 S 0.3265 0.55508 0.24489 0.0
N1504 N 0.33582 0.58044 0.22924 0.0
N1505 N 0.29886 0.56231 0.25744 0.0
C1506 C 0.29622 0.58645 0.24929 0.0
C1507 C 0.31616 0.59622 0.23382 0.0
C1508 C 0.87275 0.15466 0.23988 0.0
C1509 C 0.85108 0.14231 0.23082 0.0
C1510 C 0.88239 0.17562 0.22686 0.0
C1511 C 0.87045 0.1843 0.2048 0.0
H1512 H 0.88027 0.15013 0.25831 0.0
H1513 H 0.89689 0.187 0.23579 0.0
S1514 S 0.81635 0.15542 0.17151 0.0
N1515 N 0.82079 0.13765 0.1966 0.0
N1516 N 0.83906 0.17674 0.17245 0.0
C1517 C 0.85154 0.16964 0.19372 0.0
C1518 C 0.84161 0.14871 0.20688 0.0
C1519 C 0.29773 0.36982 0.70557 0.0
C1520 C 0.27296 0.36521 0.71385 0.0
C1521 C 0.31839 0.36241 0.72064 0.0
C1522 C 0.3143 0.34975 0.74363 0.0
H1523 H 0.30111 0.37598 0.68643 0.0
H1524 H 0.33715 0.36317 0.71265 0.0
S1525 S 0.25308 0.33829 0.77497 0.0
N1526 N 0.24592 0.35334 0.7488 0.0
N1527 N 0.28415 0.33655 0.77523 0.0
C1528 C 0.28986 0.34872 0.7534 0.0
C1529 C 0.26926 0.35741 0.7389 0.0
C1530 C 0.09827 0.80372 0.24577 0.0
C1531 C 0.11499 0.8214 0.23551 0.0
C1532 C 0.08818 0.78461 0.23039 0.0
C1533 C 0.09562 0.7824 0.205 0.0
H1534 H 0.09542 0.80283 0.26593 0.0
H1535 H 0.07822 0.76919 0.23938 0.0
S1536 S 0.1296 0.83121 0.1682 0.0
N1537 N 0.13163 0.84075 0.19772 0.0
N1538 N 0.11273 0.80484 0.16881 0.0
C1539 C 0.10762 0.80318 0.19381 0.0
C1540 C 0.11769 0.82263 0.20933 0.0
C1541 C 0.68789 0.59497 0.73494 0.0
C1542 C 0.6852 0.5962 0.70863 0.0
C1543 C 0.66857 0.60304 0.75075 0.0
C1544 C 0.6456 0.61133 0.7407 0.0
H1545 H 0.70634 0.59179 0.74321 0.0
H1546 H 0.67274 0.6058 0.77056 0.0
S1547 S 0.62739 0.61304 0.67323 0.0
N1548 N 0.65665 0.60225 0.67332 0.0
N1549 N 0.61973 0.6167 0.70315 0.0
C1550 C 0.64118 0.60855 0.71467 0.0
C1551 C 0.6612 0.60092 0.69848 0.0
C1552 C 0.74297 0.86626 0.8206 0.0
C1553 C 0.72008 0.85387 0.81485 0.0
C1554 C 0.75995 0.87264 0.80129 0.0
C1555 C 0.75384 0.86715 0.77613 0.0
H1556 H 0.74944 0.86749 0.83993 0.0
H1557 H 0.77883 0.87878 0.80623 0.0
S1558 S 0.69527 0.83799 0.75154 0.0
N1559 N 0.69134 0.83919 0.7823 0.0
N1560 N 0.72232 0.85241 0.74634 0.0
C1561 C 0.72936 0.85881 0.77021 0.0
C1562 C 0.71254 0.85186 0.78959 0.0
C1563 C 0.58857 0.24803 0.294 0.0
C1564 C 0.60447 0.25759 0.27506 0.0
C1565 C 0.59836 0.23262 0.31334 0.0
C1566 C 0.62397 0.22536 0.3133 0.0
H1567 H 0.56845 0.25145 0.29315 0.0
H1568 H 0.58576 0.22573 0.32781 0.0
S1569 S 0.67237 0.24431 0.26637 0.0
N1570 N 0.64672 0.25975 0.25806 0.0
N1571 N 0.66429 0.22802 0.29141 0.0
C1572 C 0.63969 0.23481 0.29415 0.0
C1573 C 0.6302 0.25183 0.27597 0.0
C1574 C 0.19799 0.11103 0.796 0.0
C1575 C 0.20734 0.09247 0.77982 0.0
C1576 C 0.21319 0.1208 0.81505 0.0
C1577 C 0.23737 0.11088 0.81956 0.0
H1578 H 0.18069 0.12075 0.79142 0.0
H1579 H 0.207 0.13779 0.82466 0.0
S1580 S 0.26499 0.05405 0.7905 0.0
N1581 N 0.23848 0.05896 0.77465 0.0
N1582 N 0.26662 0.07663 0.81199 0.0
C1583 C 0.24464 0.08887 0.80718 0.0
C1584 C 0.22944 0.07947 0.78703 0.0
C1585 C 0.36403 0.72647 0.31556 0.0
C1586 C 0.34343 0.74313 0.31288 0.0
C1587 C 0.37173 0.711 0.2953 0.0
C1588 C 0.35855 0.71151 0.27228 0.0
H1589 H 0.37397 0.72516 0.33334 0.0
H1590 H 0.38827 0.69921 0.29742 0.0
S1591 S 0.30284 0.75099 0.25631 0.0
N1592 N 0.3109 0.75969 0.28501 0.0
N1593 N 0.32293 0.72853 0.24884 0.0
C1594 C 0.33743 0.7274 0.27 0.0
C1595 C 0.33065 0.74393 0.28972 0.0
C1596 C 0.73446 0.09491 0.14799 0.0
C1597 C 0.72763 0.12063 0.14672 0.0
C1598 C 0.74945 0.08568 0.1679 0.0
C1599 C 0.7588 0.10211 0.18654 0.0
H1600 H 0.7269 0.08157 0.13443 0.0
H1601 H 0.75242 0.06552 0.16956 0.0
S1602 S 0.74797 0.17107 0.19122 0.0
N1603 N 0.73286 0.16226 0.16549 0.0
N1604 N 0.76099 0.14507 0.20214 0.0
C1605 C 0.75343 0.12794 0.18453 0.0
C1606 C 0.73787 0.13719 0.1648 0.0
C1607 C 0.34871 0.26649 0.66902 0.0
C1608 C 0.36772 0.25685 0.6845 0.0
C1609 C 0.33902 0.25192 0.64951 0.0
C1610 C 0.34814 0.22745 0.64491 0.0
H1611 H 0.33871 0.28354 0.67429 0.0
H1612 H 0.32247 0.25881 0.63968 0.0
S1613 S 0.40485 0.19852 0.67397 0.0
N1614 N 0.40074 0.22536 0.68943 0.0
N1615 N 0.38207 0.19728 0.65258 0.0
C1616 C 0.37034 0.21963 0.65709 0.0
C1617 C 0.38037 0.23474 0.67701 0.0
C1618 C 0.21302 0.878 0.16715 0.0
C1619 C 0.20594 0.86242 0.18737 0.0
C1620 C 0.22851 0.86853 0.14778 0.0
C1621 C 0.2382 0.84375 0.14903 0.0
H1622 H 0.20751 0.89768 0.1669 0.0
H1623 H 0.23335 0.88076 0.13219 0.0
S1624 S 0.22591 0.79664 0.19947 0.0
N1625 N 0.2084 0.8212 0.20684 0.0
N1626 N 0.24054 0.80478 0.17341 0.0
C1627 C 0.23129 0.82843 0.16952 0.0
C1628 C 0.21415 0.83734 0.18778 0.0
C1629 C 0.60083 0.72175 0.644 0.0
C1630 C 0.61099 0.7461 0.64787 0.0
C1631 C 0.59562 0.70591 0.66464 0.0
C1632 C 0.60005 0.71461 0.68927 0.0
H1633 H 0.60032 0.7137 0.62524 0.0
H1634 H 0.59094 0.68627 0.66128 0.0
S1635 S 0.62381 0.77728 0.70915 0.0
N1636 N 0.62372 0.77817 0.6781 0.0
N1637 N 0.61096 0.74993 0.7164 0.0
C1638 C 0.60636 0.74011 0.69311 0.0
C1639 C 0.61267 0.75559 0.67246 0.0
C1640 C 0.81945 0.74391 0.86385 0.0
C1641 C 0.81449 0.72246 0.84881 0.0
C1642 C 0.79953 0.75949 0.87206 0.0
C1643 C 0.77449 0.7538 0.86521 0.0
H1644 H 0.83867 0.75035 0.86662 0.0
H1645 H 0.8039 0.7771 0.88155 0.0
S1646 S 0.75218 0.69753 0.82934 0.0
N1647 N 0.78301 0.69426 0.83115 0.0
N1648 N 0.74597 0.72342 0.84537 0.0
C1649 C 0.76949 0.73071 0.85285 0.0
C1650 C 0.78945 0.71484 0.84523 0.0
C1651 C 0.82117 0.2174 0.10304 0.0
C1652 C 0.81707 0.24158 0.11342 0.0
C1653 C 0.80052 0.20211 0.09595 0.0
C1654 C 0.77578 0.2113 0.09856 0.0
H1655 H 0.83971 0.20889 0.1041 0.0
H1656 H 0.80371 0.18233 0.09184 0.0
S1657 S 0.75637 0.27547 0.11807 0.0
N1658 N 0.78732 0.27526 0.12148 0.0
N1659 N 0.74912 0.24785 0.10558 0.0
C1660 C 0.77236 0.23713 0.10369 0.0
C1661 C 0.79296 0.25207 0.11198 0.0
C1662 C 0.22833 0.31161 0.59463 0.0
C1663 C 0.2263 0.31667 0.62058 0.0
C1664 C 0.24366 0.29182 0.58582 0.0
C1665 C 0.25835 0.27753 0.60266 0.0
H1666 H 0.2165 0.32161 0.5813 0.0
H1667 H 0.24241 0.28634 0.5662 0.0
S1668 S 0.26261 0.28526 0.67167 0.0
N1669 N 0.24184 0.30664 0.66256 0.0
N1670 N 0.27226 0.27153 0.64557 0.0
C1671 C 0.25871 0.28448 0.62807 0.0
C1672 C 0.2421 0.3034 0.63724 0.0
C1673 C 0.17579 0.7391 0.08339 0.0
C1674 C 0.18578 0.75981 0.09692 0.0
C1675 C 0.15611 0.72434 0.09352 0.0
C1676 C 0.14688 0.72965 0.11773 0.0
H1677 H 0.18504 0.73267 0.06639 0.0
H1678 H 0.14996 0.70752 0.08362 0.0
S1679 S 0.16826 0.78083 0.1606 0.0
N1680 N 0.18411 0.78546 0.13443 0.0
N1681 N 0.14914 0.75709 0.15447 0.0
C1682 C 0.15554 0.75146 0.1303 0.0
C1683 C 0.17431 0.76698 0.11944 0.0
C1684 C 0.75209 0.66874 0.60095 0.0
C1685 C 0.74166 0.64496 0.60601 0.0
C1686 C 0.73658 0.68933 0.5959 0.0
C1687 C 0.71018 0.68688 0.59634 0.0
H1688 H 0.77192 0.67227 0.60466 0.0
H1689 H 0.7452 0.70791 0.59526 0.0
S1690 S 0.67398 0.62752 0.60403 0.0
N1691 N 0.70384 0.61904 0.60686 0.0
N1692 N 0.67439 0.65813 0.59781 0.0
C1693 C 0.69965 0.66257 0.59749 0.0
C1694 C 0.71562 0.64136 0.60215 0.0
C1695 C 0.14418 0.21932 0.86226 0.0
C1696 C 0.14796 0.24194 0.84875 0.0
C1697 C 0.16506 0.20442 0.86954 0.0
C1698 C 0.18971 0.21259 0.86393 0.0
H1699 H 0.12539 0.21145 0.86397 0.0
H1700 H 0.16184 0.18553 0.87663 0.0
S1701 S 0.20882 0.27319 0.8348 0.0
N1702 N 0.17773 0.27324 0.83379 0.0
N1703 N 0.21637 0.24743 0.8504 0.0
C1704 C 0.19317 0.23745 0.85517 0.0
C1705 C 0.17236 0.25165 0.84663 0.0
C1706 C 0.22871 0.68896 0.36722 0.0
C1707 C 0.25521 0.68804 0.36544 0.0
C1708 C 0.2139 0.66893 0.35841 0.0
C1709 C 0.22536 0.64703 0.34922 0.0
H1710 H 0.21941 0.70671 0.37132 0.0
H1711 H 0.1938 0.67179 0.356 0.0
S1712 S 0.29342 0.6321 0.3481 0.0
N1713 N 0.29203 0.66143 0.35884 0.0
N1714 N 0.26386 0.62296 0.34425 0.0
C1715 C 0.25146 0.64396 0.35221 0.0
C1716 C 0.26665 0.66473 0.36012 0.0
C1717 C 0.7124 0.3151 0.33993 0.0
C1718 C 0.737 0.31965 0.34888 0.0
C1719 C 0.69796 0.29527 0.34919 0.0
C1720 C 0.70786 0.27903 0.3674 0.0
H1721 H 0.70512 0.32542 0.32386 0.0
H1722 H 0.68062 0.29045 0.3394 0.0
S1723 S 0.76846 0.28656 0.40179 0.0
N1724 N 0.7687 0.30946 0.38059 0.0
N1725 N 0.74111 0.27184 0.39824 0.0
C1726 C 0.73071 0.28569 0.37938 0.0
C1727 C 0.74561 0.30609 0.3699 0.0
loop_
_geom_bond_atom_site_label_1
_geom_bond_atom_site_label_2
_geom_bond_distance
_geom_bond_site_symmetry_2
_ccdc_geom_bond_type
C0 O1 1.306 . S
C0 O3 1.160 . S
O1 C0 1.306 . S
O1 Cd2 2.228 . S
Cd2 O1 2.228 . S
Cd2 O6 2.273 . S
Cd2 O10 2.277 . S
O3 C0 1.160 . S
O3 Cd4 2.203 . S
Cd4 O3 2.203 . S
Cd4 O6 2.411 . S
Cd4 O7 2.333 . S
Cd4 O8 2.352 . S
Cd4 O12 2.277 . S
Cd4 O13 2.356 . S
C5 O10 1.209 . S
C5 O12 1.226 . S
O6 Cd2 2.273 . S
O6 Cd4 2.411 . S
O6 C9 1.320 . S
O7 Cd4 2.333 . S
O7 C9 1.214 . S
O8 Cd4 2.352 . S
O8 C11 1.258 . S
C9 O6 1.320 . S
C9 O7 1.214 . S
O10 Cd2 2.277 . S
O10 C5 1.209 . S
C11 O8 1.258 . S
C11 O13 1.282 . S
O12 Cd4 2.277 . S
O12 C5 1.226 . S
O13 Cd4 2.356 . S
O13 C11 1.282 . S
C14 O15 1.306 . S
C14 O17 1.160 . S
O15 C14 1.306 . S
O15 Cd16 2.228 . S
Cd16 O15 2.228 . S
Cd16 O20 2.273 . S
Cd16 O24 2.277 . S
O17 C14 1.160 . S
O17 Cd18 2.203 . S
Cd18 O17 2.203 . S
Cd18 O20 2.411 . S
Cd18 O21 2.333 . S
Cd18 O22 2.352 . S
Cd18 O26 2.277 . S
Cd18 O27 2.356 . S
C19 O24 1.209 . S
C19 O26 1.226 . S
O20 Cd16 2.273 . S
O20 Cd18 2.411 . S
O20 C23 1.320 . S
O21 Cd18 2.333 . S
O21 C23 1.214 . S
O22 Cd18 2.352 . S
O22 C25 1.258 . S
C23 O20 1.320 . S
C23 O21 1.214 . S
O24 Cd16 2.277 . S
O24 C19 1.209 . S
C25 O22 1.258 . S
C25 O27 1.282 . S
O26 Cd18 2.277 . S
O26 C19 1.226 . S
O27 Cd18 2.356 . S
O27 C25 1.282 . S
C28 O29 1.306 . S
C28 O31 1.160 . S
O29 C28 1.306 . S
O29 Cd30 2.228 . S
Cd30 O29 2.228 . S
Cd30 O34 2.273 . S
Cd30 O38 2.277 . S
O31 C28 1.160 . S
O31 Cd32 2.203 . S
Cd32 O31 2.203 . S
Cd32 O34 2.411 . S
Cd32 O35 2.333 . S
Cd32 O36 2.352 . S
Cd32 O40 2.277 . S
Cd32 O41 2.356 . S
C33 O38 1.209 . S
C33 O40 1.226 . S
O34 Cd30 2.273 . S
O34 Cd32 2.411 . S
O34 C37 1.320 . S
O35 Cd32 2.333 . S
O35 C37 1.214 . S
O36 Cd32 2.352 . S
O36 C39 1.258 . S
C37 O34 1.320 . S
C37 O35 1.214 . S
O38 Cd30 2.277 . S
O38 C33 1.209 . S
C39 O36 1.258 . S
C39 O41 1.282 . S
O40 Cd32 2.277 . S
O40 C33 1.226 . S
O41 Cd32 2.356 . S
O41 C39 1.282 . S
C42 O43 1.306 . S
C42 O45 1.160 . S
O43 C42 1.306 . S
O43 Cd44 2.228 . S
Cd44 O43 2.228 . S
Cd44 O48 2.273 . S
Cd44 O52 2.277 . S
O45 C42 1.160 . S
O45 Cd46 2.203 . S
Cd46 O45 2.203 . S
Cd46 O48 2.411 . S
Cd46 O49 2.333 . S
Cd46 O50 2.352 . S
Cd46 O54 2.277 . S
Cd46 O55 2.356 . S
C47 O52 1.209 . S
C47 O54 1.226 . S
O48 Cd44 2.273 . S
O48 Cd46 2.411 . S
O48 C51 1.320 . S
O49 Cd46 2.333 . S
O49 C51 1.214 . S
O50 Cd46 2.352 . S
O50 C53 1.258 . S
C51 O48 1.320 . S
C51 O49 1.214 . S
O52 Cd44 2.277 . S
O52 C47 1.209 . S
C53 O50 1.258 . S
C53 O55 1.282 . S
O54 Cd46 2.277 . S
O54 C47 1.226 . S
O55 Cd46 2.356 . S
O55 C53 1.282 . S
C56 O57 1.306 . S
C56 O59 1.160 . S
O57 C56 1.306 . S
O57 Cd58 2.228 . S
Cd58 O57 2.228 . S
Cd58 O62 2.273 . S
Cd58 O66 2.277 . S
O59 C56 1.160 . S
O59 Cd60 2.203 . S
Cd60 O59 2.203 . S
Cd60 O62 2.411 . S
Cd60 O63 2.333 . S
Cd60 O64 2.352 . S
Cd60 O68 2.277 . S
Cd60 O69 2.356 . S
C61 O66 1.209 . S
C61 O68 1.226 . S
O62 Cd58 2.273 . S
O62 Cd60 2.411 . S
O62 C65 1.320 . S
O63 Cd60 2.333 . S
O63 C65 1.214 . S
O64 Cd60 2.352 . S
O64 C67 1.258 . S
C65 O62 1.320 . S
C65 O63 1.214 . S
O66 Cd58 2.277 . S
O66 C61 1.209 . S
C67 O64 1.258 . S
C67 O69 1.282 . S
O68 Cd60 2.277 . S
O68 C61 1.226 . S
O69 Cd60 2.356 . S
O69 C67 1.282 . S
C70 O71 1.306 . S
C70 O73 1.160 . S
O71 C70 1.306 . S
O71 Cd72 2.228 . S
Cd72 O71 2.228 . S
Cd72 O76 2.273 . S
Cd72 O80 2.277 . S
O73 C70 1.160 . S
O73 Cd74 2.203 . S
Cd74 O73 2.203 . S
Cd74 O76 2.411 . S
Cd74 O77 2.333 . S
Cd74 O78 2.352 . S
Cd74 O82 2.277 . S
Cd74 O83 2.356 . S
C75 O80 1.209 . S
C75 O82 1.226 . S
O76 Cd72 2.273 . S
O76 Cd74 2.411 . S
O76 C79 1.320 . S
O77 Cd74 2.333 . S
O77 C79 1.214 . S
O78 Cd74 2.352 . S
O78 C81 1.258 . S
C79 O76 1.320 . S
C79 O77 1.214 . S
O80 Cd72 2.277 . S
O80 C75 1.209 . S
C81 O78 1.258 . S
C81 O83 1.282 . S
O82 Cd74 2.277 . S
O82 C75 1.226 . S
O83 Cd74 2.356 . S
O83 C81 1.282 . S
C84 O85 1.306 . S
C84 O87 1.160 . S
O85 C84 1.306 . S
O85 Cd86 2.228 . S
Cd86 O85 2.228 . S
Cd86 O90 2.273 . S
Cd86 O94 2.277 . S
O87 C84 1.160 . S
O87 Cd88 2.203 . S
Cd88 O87 2.203 . S
Cd88 O90 2.411 . S
Cd88 O91 2.333 . S
Cd88 O92 2.352 . S
Cd88 O96 2.277 . S
Cd88 O97 2.356 . S
C89 O94 1.209 . S
C89 O96 1.226 . S
O90 Cd86 2.273 . S
O90 Cd88 2.411 . S
O90 C93 1.320 . S
O91 Cd88 2.333 . S
O91 C93 1.214 . S
O92 Cd88 2.352 . S
O92 C95 1.258 . S
C93 O90 1.320 . S
C93 O91 1.214 . S
O94 Cd86 2.277 . S
O94 C89 1.209 . S
C95 O92 1.258 . S
C95 O97 1.282 . S
O96 Cd88 2.277 . S
O96 C89 1.226 . S
O97 Cd88 2.356 . S
O97 C95 1.282 . S
C98 O99 1.306 . S
C98 O101 1.160 . S
O99 C98 1.306 . S
O99 Cd100 2.228 . S
Cd100 O99 2.228 . S
Cd100 O104 2.273 . S
Cd100 O108 2.277 . S
O101 C98 1.160 . S
O101 Cd102 2.203 . S
Cd102 O101 2.203 . S
Cd102 O104 2.411 . S
Cd102 O105 2.333 . S
Cd102 O106 2.352 . S
Cd102 O110 2.277 . S
Cd102 O111 2.356 . S
C103 O108 1.209 . S
C103 O110 1.226 . S
O104 Cd100 2.273 . S
O104 Cd102 2.411 . S
O104 C107 1.320 . S
O105 Cd102 2.333 . S
O105 C107 1.214 . S
O106 Cd102 2.352 . S
O106 C109 1.258 . S
C107 O104 1.320 . S
C107 O105 1.214 . S
O108 Cd100 2.277 . S
O108 C103 1.209 . S
C109 O106 1.258 . S
C109 O111 1.282 . S
O110 Cd102 2.277 . S
O110 C103 1.226 . S
O111 Cd102 2.356 . S
O111 C109 1.282 . S
C112 O113 1.306 . S
C112 O115 1.160 . S
O113 C112 1.306 . S
O113 Cd114 2.228 . S
Cd114 O113 2.228 . S
Cd114 O118 2.273 . S
Cd114 O122 2.277 . S
O115 C112 1.160 . S
O115 Cd116 2.203 . S
Cd116 O115 2.203 . S
Cd116 O118 2.411 . S
Cd116 O119 2.333 . S
Cd116 O120 2.352 . S
Cd116 O124 2.277 . S
Cd116 O125 2.356 . S
C117 O122 1.209 . S
C117 O124 1.226 . S
O118 Cd114 2.273 . S
O118 Cd116 2.411 . S
O118 C121 1.320 . S
O119 Cd116 2.333 . S
O119 C121 1.214 . S
O120 Cd116 2.352 . S
O120 C123 1.258 . S
C121 O118 1.320 . S
C121 O119 1.214 . S
O122 Cd114 2.277 . S
O122 C117 1.209 . S
C123 O120 1.258 . S
C123 O125 1.282 . S
O124 Cd116 2.277 . S
O124 C117 1.226 . S
O125 Cd116 2.356 . S
O125 C123 1.282 . S
C126 O127 1.306 . S
C126 O129 1.160 . S
O127 C126 1.306 . S
O127 Cd128 2.228 . S
Cd128 O127 2.228 . S
Cd128 O132 2.273 . S
Cd128 O136 2.277 . S
O129 C126 1.160 . S
O129 Cd130 2.203 . S
Cd130 O129 2.203 . S
Cd130 O132 2.411 . S
Cd130 O133 2.333 . S
Cd130 O134 2.352 . S
Cd130 O138 2.277 . S
Cd130 O139 2.356 . S
C131 O136 1.209 . S
C131 O138 1.226 . S
O132 Cd128 2.273 . S
O132 Cd130 2.411 . S
O132 C135 1.320 . S
O133 Cd130 2.333 . S
O133 C135 1.214 . S
O134 Cd130 2.352 . S
O134 C137 1.258 . S
C135 O132 1.320 . S
C135 O133 1.214 . S
O136 Cd128 2.277 . S
O136 C131 1.209 . S
C137 O134 1.258 . S
C137 O139 1.282 . S
O138 Cd130 2.277 . S
O138 C131 1.226 . S
O139 Cd130 2.356 . S
O139 C137 1.282 . S
C140 O141 1.306 . S
C140 O143 1.160 . S
O141 C140 1.306 . S
O141 Cd142 2.228 . S
Cd142 O141 2.228 . S
Cd142 O146 2.273 . S
Cd142 O150 2.277 . S
O143 C140 1.160 . S
O143 Cd144 2.203 . S
Cd144 O143 2.203 . S
Cd144 O146 2.411 . S
Cd144 O147 2.333 . S
Cd144 O148 2.352 . S
Cd144 O152 2.277 . S
Cd144 O153 2.356 . S
C145 O150 1.209 . S
C145 O152 1.226 . S
O146 Cd142 2.273 . S
O146 Cd144 2.411 . S
O146 C149 1.320 . S
O147 Cd144 2.333 . S
O147 C149 1.214 . S
O148 Cd144 2.352 . S
O148 C151 1.258 . S
C149 O146 1.320 . S
C149 O147 1.214 . S
O150 Cd142 2.277 . S
O150 C145 1.209 . S
C151 O148 1.258 . S
C151 O153 1.282 . S
O152 Cd144 2.277 . S
O152 C145 1.226 . S
O153 Cd144 2.356 . S
O153 C151 1.282 . S
C154 O155 1.306 . S
C154 O157 1.160 . S
O155 C154 1.306 . S
O155 Cd156 2.228 . S
Cd156 O155 2.228 . S
Cd156 O160 2.273 . S
Cd156 O164 2.277 . S
O157 C154 1.160 . S
O157 Cd158 2.203 . S
Cd158 O157 2.203 . S
Cd158 O160 2.411 . S
Cd158 O161 2.333 . S
Cd158 O162 2.352 . S
Cd158 O166 2.277 . S
Cd158 O167 2.356 . S
C159 O164 1.209 . S
C159 O166 1.226 . S
O160 Cd156 2.273 . S
O160 Cd158 2.411 . S
O160 C163 1.320 . S
O161 Cd158 2.333 . S
O161 C163 1.214 . S
O162 Cd158 2.352 . S
O162 C165 1.258 . S
C163 O160 1.320 . S
C163 O161 1.214 . S
O164 Cd156 2.277 . S
O164 C159 1.209 . S
C165 O162 1.258 . S
C165 O167 1.282 . S
O166 Cd158 2.277 . S
O166 C159 1.226 . S
O167 Cd158 2.356 . S
O167 C165 1.282 . S
C168 O169 1.306 . S
C168 O171 1.160 . S
O169 C168 1.306 . S
O169 Cd170 2.228 . S
Cd170 O169 2.228 . S
Cd170 O174 2.273 . S
Cd170 O178 2.277 . S
O171 C168 1.160 . S
O171 Cd172 2.203 . S
Cd172 O171 2.203 . S
Cd172 O174 2.411 . S
Cd172 O175 2.333 . S
Cd172 O176 2.352 . S
Cd172 O180 2.277 . S
Cd172 O181 2.356 . S
C173 O178 1.209 . S
C173 O180 1.226 . S
O174 Cd170 2.273 . S
O174 Cd172 2.411 . S
O174 C177 1.320 . S
O175 Cd172 2.333 . S
O175 C177 1.214 . S
O176 Cd172 2.352 . S
O176 C179 1.258 . S
C177 O174 1.320 . S
C177 O175 1.214 . S
O178 Cd170 2.277 . S
O178 C173 1.209 . S
C179 O176 1.258 . S
C179 O181 1.282 . S
O180 Cd172 2.277 . S
O180 C173 1.226 . S
O181 Cd172 2.356 . S
O181 C179 1.282 . S
C182 O183 1.306 . S
C182 O185 1.160 . S
O183 C182 1.306 . S
O183 Cd184 2.228 . S
Cd184 O183 2.228 . S
Cd184 O188 2.273 . S
Cd184 O192 2.277 . S
O185 C182 1.160 . S
O185 Cd186 2.203 . S
Cd186 O185 2.203 . S
Cd186 O188 2.411 . S
Cd186 O189 2.333 . S
Cd186 O190 2.352 . S
Cd186 O194 2.277 . S
Cd186 O195 2.356 . S
C187 O192 1.209 . S
C187 O194 1.226 . S
O188 Cd184 2.273 . S
O188 Cd186 2.411 . S
O188 C191 1.320 . S
O189 Cd186 2.333 . S
O189 C191 1.214 . S
O190 Cd186 2.352 . S
O190 C193 1.258 . S
C191 O188 1.320 . S
C191 O189 1.214 . S
O192 Cd184 2.277 . S
O192 C187 1.209 . S
C193 O190 1.258 . S
C193 O195 1.282 . S
O194 Cd186 2.277 . S
O194 C187 1.226 . S
O195 Cd186 2.356 . S
O195 C193 1.282 . S
C196 O197 1.306 . S
C196 O199 1.160 . S
O197 C196 1.306 . S
O197 Cd198 2.228 . S
Cd198 O197 2.228 . S
Cd198 O202 2.273 . S
Cd198 O206 2.277 . S
O199 C196 1.160 . S
O199 Cd200 2.203 . S
Cd200 O199 2.203 . S
Cd200 O202 2.411 . S
Cd200 O203 2.333 . S
Cd200 O204 2.352 . S
Cd200 O208 2.277 . S
Cd200 O209 2.356 . S
C201 O206 1.209 . S
C201 O208 1.226 . S
O202 Cd198 2.273 . S
O202 Cd200 2.411 . S
O202 C205 1.320 . S
O203 Cd200 2.333 . S
O203 C205 1.214 . S
O204 Cd200 2.352 . S
O204 C207 1.258 . S
C205 O202 1.320 . S
C205 O203 1.214 . S
O206 Cd198 2.277 . S
O206 C201 1.209 . S
C207 O204 1.258 . S
C207 O209 1.282 . S
O208 Cd200 2.277 . S
O208 C201 1.226 . S
O209 Cd200 2.356 . S
O209 C207 1.282 . S
C210 O211 1.306 . S
C210 O213 1.160 . S
O211 C210 1.306 . S
O211 Cd212 2.228 . S
Cd212 O211 2.228 . S
Cd212 O216 2.273 . S
Cd212 O220 2.277 . S
O213 C210 1.160 . S
O213 Cd214 2.203 . S
Cd214 O213 2.203 . S
Cd214 O216 2.411 . S
Cd214 O217 2.333 . S
Cd214 O218 2.352 . S
Cd214 O222 2.277 . S
Cd214 O223 2.356 . S
C215 O220 1.209 . S
C215 O222 1.226 . S
O216 Cd212 2.273 . S
O216 Cd214 2.411 . S
O216 C219 1.320 . S
O217 Cd214 2.333 . S
O217 C219 1.214 . S
O218 Cd214 2.352 . S
O218 C221 1.258 . S
C219 O216 1.320 . S
C219 O217 1.214 . S
O220 Cd212 2.277 . S
O220 C215 1.209 . S
C221 O218 1.258 . S
C221 O223 1.282 . S
O222 Cd214 2.277 . S
O222 C215 1.226 . S
O223 Cd214 2.356 . S
O223 C221 1.282 . S
C224 O225 1.306 . S
C224 O227 1.160 . S
O225 C224 1.306 . S
O225 Cd226 2.228 . S
Cd226 O225 2.228 . S
Cd226 O230 2.273 . S
Cd226 O234 2.277 . S
O227 C224 1.160 . S
O227 Cd228 2.203 . S
Cd228 O227 2.203 . S
Cd228 O230 2.411 . S
Cd228 O231 2.333 . S
Cd228 O232 2.352 . S
Cd228 O236 2.277 . S
Cd228 O237 2.356 . S
C229 O234 1.209 . S
C229 O236 1.226 . S
O230 Cd226 2.273 . S
O230 Cd228 2.411 . S
O230 C233 1.320 . S
O231 Cd228 2.333 . S
O231 C233 1.214 . S
O232 Cd228 2.352 . S
O232 C235 1.258 . S
C233 O230 1.320 . S
C233 O231 1.214 . S
O234 Cd226 2.277 . S
O234 C229 1.209 . S
C235 O232 1.258 . S
C235 O237 1.282 . S
O236 Cd228 2.277 . S
O236 C229 1.226 . S
O237 Cd228 2.356 . S
O237 C235 1.282 . S
C238 O239 1.306 . S
C238 O241 1.160 . S
O239 C238 1.306 . S
O239 Cd240 2.228 . S
Cd240 O239 2.228 . S
Cd240 O244 2.273 . S
Cd240 O248 2.277 . S
O241 C238 1.160 . S
O241 Cd242 2.203 . S
Cd242 O241 2.203 . S
Cd242 O244 2.411 . S
Cd242 O245 2.333 . S
Cd242 O246 2.352 . S
Cd242 O250 2.277 . S
Cd242 O251 2.356 . S
C243 O248 1.209 . S
C243 O250 1.226 . S
O244 Cd240 2.273 . S
O244 Cd242 2.411 . S
O244 C247 1.320 . S
O245 Cd242 2.333 . S
O245 C247 1.214 . S
O246 Cd242 2.352 . S
O246 C249 1.258 . S
C247 O244 1.320 . S
C247 O245 1.214 . S
O248 Cd240 2.277 . S
O248 C243 1.209 . S
C249 O246 1.258 . S
C249 O251 1.282 . S
O250 Cd242 2.277 . S
O250 C243 1.226 . S
O251 Cd242 2.356 . S
O251 C249 1.282 . S
C252 O253 1.306 . S
C252 O255 1.160 . S
O253 C252 1.306 . S
O253 Cd254 2.228 . S
Cd254 O253 2.228 . S
Cd254 O258 2.273 . S
Cd254 O262 2.277 . S
O255 C252 1.160 . S
O255 Cd256 2.203 . S
Cd256 O255 2.203 . S
Cd256 O258 2.411 . S
Cd256 O259 2.333 . S
Cd256 O260 2.352 . S
Cd256 O264 2.277 . S
Cd256 O265 2.356 . S
C257 O262 1.209 . S
C257 O264 1.226 . S
O258 Cd254 2.273 . S
O258 Cd256 2.411 . S
O258 C261 1.320 . S
O259 Cd256 2.333 . S
O259 C261 1.214 . S
O260 Cd256 2.352 . S
O260 C263 1.258 . S
C261 O258 1.320 . S
C261 O259 1.214 . S
O262 Cd254 2.277 . S
O262 C257 1.209 . S
C263 O260 1.258 . S
C263 O265 1.282 . S
O264 Cd256 2.277 . S
O264 C257 1.226 . S
O265 Cd256 2.356 . S
O265 C263 1.282 . S
C266 O267 1.306 . S
C266 O269 1.160 . S
O267 C266 1.306 . S
O267 Cd268 2.228 . S
Cd268 O267 2.228 . S
Cd268 O272 2.273 . S
Cd268 O276 2.277 . S
O269 C266 1.160 . S
O269 Cd270 2.203 . S
Cd270 O269 2.203 . S
Cd270 O272 2.411 . S
Cd270 O273 2.333 . S
Cd270 O274 2.352 . S
Cd270 O278 2.277 . S
Cd270 O279 2.356 . S
C271 O276 1.209 . S
C271 O278 1.226 . S
O272 Cd268 2.273 . S
O272 Cd270 2.411 . S
O272 C275 1.320 . S
O273 Cd270 2.333 . S
O273 C275 1.214 . S
O274 Cd270 2.352 . S
O274 C277 1.258 . S
C275 O272 1.320 . S
C275 O273 1.214 . S
O276 Cd268 2.277 . S
O276 C271 1.209 . S
C277 O274 1.258 . S
C277 O279 1.282 . S
O278 Cd270 2.277 . S
O278 C271 1.226 . S
O279 Cd270 2.356 . S
O279 C277 1.282 . S
C280 O281 1.306 . S
C280 O283 1.160 . S
O281 C280 1.306 . S
O281 Cd282 2.228 . S
Cd282 O281 2.228 . S
Cd282 O286 2.273 . S
Cd282 O290 2.277 . S
O283 C280 1.160 . S
O283 Cd284 2.203 . S
Cd284 O283 2.203 . S
Cd284 O286 2.411 . S
Cd284 O287 2.333 . S
Cd284 O288 2.352 . S
Cd284 O292 2.277 . S
Cd284 O293 2.356 . S
C285 O290 1.209 . S
C285 O292 1.226 . S
O286 Cd282 2.273 . S
O286 Cd284 2.411 . S
O286 C289 1.320 . S
O287 Cd284 2.333 . S
O287 C289 1.214 . S
O288 Cd284 2.352 . S
O288 C291 1.258 . S
C289 O286 1.320 . S
C289 O287 1.214 . S
O290 Cd282 2.277 . S
O290 C285 1.209 . S
C291 O288 1.258 . S
C291 O293 1.282 . S
O292 Cd284 2.277 . S
O292 C285 1.226 . S
O293 Cd284 2.356 . S
O293 C291 1.282 . S
C294 O295 1.306 . S
C294 O297 1.160 . S
O295 C294 1.306 . S
O295 Cd296 2.228 . S
Cd296 O295 2.228 . S
Cd296 O300 2.273 . S
Cd296 O304 2.277 . S
O297 C294 1.160 . S
O297 Cd298 2.203 . S
Cd298 O297 2.203 . S
Cd298 O300 2.411 . S
Cd298 O301 2.333 . S
Cd298 O302 2.352 . S
Cd298 O306 2.277 . S
Cd298 O307 2.356 . S
C299 O304 1.209 . S
C299 O306 1.226 . S
O300 Cd296 2.273 . S
O300 Cd298 2.411 . S
O300 C303 1.320 . S
O301 Cd298 2.333 . S
O301 C303 1.214 . S
O302 Cd298 2.352 . S
O302 C305 1.258 . S
C303 O300 1.320 . S
C303 O301 1.214 . S
O304 Cd296 2.277 . S
O304 C299 1.209 . S
C305 O302 1.258 . S
C305 O307 1.282 . S
O306 Cd298 2.277 . S
O306 C299 1.226 . S
O307 Cd298 2.356 . S
O307 C305 1.282 . S
C308 O309 1.306 . S
C308 O311 1.160 . S
O309 C308 1.306 . S
O309 Cd310 2.228 . S
Cd310 O309 2.228 . S
Cd310 O314 2.273 . S
Cd310 O318 2.277 . S
O311 C308 1.160 . S
O311 Cd312 2.203 . S
Cd312 O311 2.203 . S
Cd312 O314 2.411 . S
Cd312 O315 2.333 . S
Cd312 O316 2.352 . S
Cd312 O320 2.277 . S
Cd312 O321 2.356 . S
C313 O318 1.209 . S
C313 O320 1.226 . S
O314 Cd310 2.273 . S
O314 Cd312 2.411 . S
O314 C317 1.320 . S
O315 Cd312 2.333 . S
O315 C317 1.214 . S
O316 Cd312 2.352 . S
O316 C319 1.258 . S
C317 O314 1.320 . S
C317 O315 1.214 . S
O318 Cd310 2.277 . S
O318 C313 1.209 . S
C319 O316 1.258 . S
C319 O321 1.282 . S
O320 Cd312 2.277 . S
O320 C313 1.226 . S
O321 Cd312 2.356 . S
O321 C319 1.282 . S
C322 O323 1.306 . S
C322 O325 1.160 . S
O323 C322 1.306 . S
O323 Cd324 2.228 . S
Cd324 O323 2.228 . S
Cd324 O328 2.273 . S
Cd324 O332 2.277 . S
O325 C322 1.160 . S
O325 Cd326 2.203 . S
Cd326 O325 2.203 . S
Cd326 O328 2.411 . S
Cd326 O329 2.333 . S
Cd326 O330 2.352 . S
Cd326 O334 2.277 . S
Cd326 O335 2.356 . S
C327 O332 1.209 . S
C327 O334 1.226 . S
O328 Cd324 2.273 . S
O328 Cd326 2.411 . S
O328 C331 1.320 . S
O329 Cd326 2.333 . S
O329 C331 1.214 . S
O330 Cd326 2.352 . S
O330 C333 1.258 . S
C331 O328 1.320 . S
C331 O329 1.214 . S
O332 Cd324 2.277 . S
O332 C327 1.209 . S
C333 O330 1.258 . S
C333 O335 1.282 . S
O334 Cd326 2.277 . S
O334 C327 1.226 . S
O335 Cd326 2.356 . S
O335 C333 1.282 . S
C336 O337 1.306 . S
C336 O339 1.160 . S
O337 C336 1.306 . S
O337 Cd338 2.228 . S
Cd338 O337 2.228 . S
Cd338 O342 2.273 . S
Cd338 O346 2.277 . S
O339 C336 1.160 . S
O339 Cd340 2.203 . S
Cd340 O339 2.203 . S
Cd340 O342 2.411 . S
Cd340 O343 2.333 . S
Cd340 O344 2.352 . S
Cd340 O348 2.277 . S
Cd340 O349 2.356 . S
C341 O346 1.209 . S
C341 O348 1.226 . S
O342 Cd338 2.273 . S
O342 Cd340 2.411 . S
O342 C345 1.320 . S
O343 Cd340 2.333 . S
O343 C345 1.214 . S
O344 Cd340 2.352 . S
O344 C347 1.258 . S
C345 O342 1.320 . S
C345 O343 1.214 . S
O346 Cd338 2.277 . S
O346 C341 1.209 . S
C347 O344 1.258 . S
C347 O349 1.282 . S
O348 Cd340 2.277 . S
O348 C341 1.226 . S
O349 Cd340 2.356 . S
O349 C347 1.282 . S
C350 O351 1.306 . S
C350 O353 1.160 . S
O351 C350 1.306 . S
O351 Cd352 2.228 . S
Cd352 O351 2.228 . S
Cd352 O356 2.273 . S
Cd352 O360 2.277 . S
O353 C350 1.160 . S
O353 Cd354 2.203 . S
Cd354 O353 2.203 . S
Cd354 O356 2.411 . S
Cd354 O357 2.333 . S
Cd354 O358 2.352 . S
Cd354 O362 2.277 . S
Cd354 O363 2.356 . S
C355 O360 1.209 . S
C355 O362 1.226 . S
O356 Cd352 2.273 . S
O356 Cd354 2.411 . S
O356 C359 1.320 . S
O357 Cd354 2.333 . S
O357 C359 1.214 . S
O358 Cd354 2.352 . S
O358 C361 1.258 . S
C359 O356 1.320 . S
C359 O357 1.214 . S
O360 Cd352 2.277 . S
O360 C355 1.209 . S
C361 O358 1.258 . S
C361 O363 1.282 . S
O362 Cd354 2.277 . S
O362 C355 1.226 . S
O363 Cd354 2.356 . S
O363 C361 1.282 . S
C364 O365 1.306 . S
C364 O367 1.160 . S
O365 C364 1.306 . S
O365 Cd366 2.228 . S
Cd366 O365 2.228 . S
Cd366 O370 2.273 . S
Cd366 O374 2.277 . S
O367 C364 1.160 . S
O367 Cd368 2.203 . S
Cd368 O367 2.203 . S
Cd368 O370 2.411 . S
Cd368 O371 2.333 . S
Cd368 O372 2.352 . S
Cd368 O376 2.277 . S
Cd368 O377 2.356 . S
C369 O374 1.209 . S
C369 O376 1.226 . S
O370 Cd366 2.273 . S
O370 Cd368 2.411 . S
O370 C373 1.320 . S
O371 Cd368 2.333 . S
O371 C373 1.214 . S
O372 Cd368 2.352 . S
O372 C375 1.258 . S
C373 O370 1.320 . S
C373 O371 1.214 . S
O374 Cd366 2.277 . S
O374 C369 1.209 . S
C375 O372 1.258 . S
C375 O377 1.282 . S
O376 Cd368 2.277 . S
O376 C369 1.226 . S
O377 Cd368 2.356 . S
O377 C375 1.282 . S
C378 O379 1.306 . S
C378 O381 1.160 . S
O379 C378 1.306 . S
O379 Cd380 2.228 . S
Cd380 O379 2.228 . S
Cd380 O384 2.273 . S
Cd380 O388 2.277 . S
O381 C378 1.160 . S
O381 Cd382 2.203 . S
Cd382 O381 2.203 . S
Cd382 O384 2.411 . S
Cd382 O385 2.333 . S
Cd382 O386 2.352 . S
Cd382 O390 2.277 . S
Cd382 O391 2.356 . S
C383 O388 1.209 . S
C383 O390 1.226 . S
O384 Cd380 2.273 . S
O384 Cd382 2.411 . S
O384 C387 1.320 . S
O385 Cd382 2.333 . S
O385 C387 1.214 . S
O386 Cd382 2.352 . S
O386 C389 1.258 . S
C387 O384 1.320 . S
C387 O385 1.214 . S
O388 Cd380 2.277 . S
O388 C383 1.209 . S
C389 O386 1.258 . S
C389 O391 1.282 . S
O390 Cd382 2.277 . S
O390 C383 1.226 . S
O391 Cd382 2.356 . S
O391 C389 1.282 . S
C392 O393 1.306 . S
C392 O395 1.160 . S
O393 C392 1.306 . S
O393 Cd394 2.228 . S
Cd394 O393 2.228 . S
Cd394 O398 2.273 . S
Cd394 O402 2.277 . S
O395 C392 1.160 . S
O395 Cd396 2.203 . S
Cd396 O395 2.203 . S
Cd396 O398 2.411 . S
Cd396 O399 2.333 . S
Cd396 O400 2.352 . S
Cd396 O404 2.277 . S
Cd396 O405 2.356 . S
C397 O402 1.209 . S
C397 O404 1.226 . S
O398 Cd394 2.273 . S
O398 Cd396 2.411 . S
O398 C401 1.320 . S
O399 Cd396 2.333 . S
O399 C401 1.214 . S
O400 Cd396 2.352 . S
O400 C403 1.258 . S
C401 O398 1.320 . S
C401 O399 1.214 . S
O402 Cd394 2.277 . S
O402 C397 1.209 . S
C403 O400 1.258 . S
C403 O405 1.282 . S
O404 Cd396 2.277 . S
O404 C397 1.226 . S
O405 Cd396 2.356 . S
O405 C403 1.282 . S
C406 O407 1.306 . S
C406 O409 1.160 . S
O407 C406 1.306 . S
O407 Cd408 2.228 . S
Cd408 O407 2.228 . S
Cd408 O412 2.273 . S
Cd408 O416 2.277 . S
O409 C406 1.160 . S
O409 Cd410 2.203 . S
Cd410 O409 2.203 . S
Cd410 O412 2.411 . S
Cd410 O413 2.333 . S
Cd410 O414 2.352 . S
Cd410 O418 2.277 . S
Cd410 O419 2.356 . S
C411 O416 1.209 . S
C411 O418 1.226 . S
O412 Cd408 2.273 . S
O412 Cd410 2.411 . S
O412 C415 1.320 . S
O413 Cd410 2.333 . S
O413 C415 1.214 . S
O414 Cd410 2.352 . S
O414 C417 1.258 . S
C415 O412 1.320 . S
C415 O413 1.214 . S
O416 Cd408 2.277 . S
O416 C411 1.209 . S
C417 O414 1.258 . S
C417 O419 1.282 . S
O418 Cd410 2.277 . S
O418 C411 1.226 . S
O419 Cd410 2.356 . S
O419 C417 1.282 . S
C420 O421 1.306 . S
C420 O423 1.160 . S
O421 C420 1.306 . S
O421 Cd422 2.228 . S
Cd422 O421 2.228 . S
Cd422 O426 2.273 . S
Cd422 O430 2.277 . S
O423 C420 1.160 . S
O423 Cd424 2.203 . S
Cd424 O423 2.203 . S
Cd424 O426 2.411 . S
Cd424 O427 2.333 . S
Cd424 O428 2.352 . S
Cd424 O432 2.277 . S
Cd424 O433 2.356 . S
C425 O430 1.209 . S
C425 O432 1.226 . S
O426 Cd422 2.273 . S
O426 Cd424 2.411 . S
O426 C429 1.320 . S
O427 Cd424 2.333 . S
O427 C429 1.214 . S
O428 Cd424 2.352 . S
O428 C431 1.258 . S
C429 O426 1.320 . S
C429 O427 1.214 . S
O430 Cd422 2.277 . S
O430 C425 1.209 . S
C431 O428 1.258 . S
C431 O433 1.282 . S
O432 Cd424 2.277 . S
O432 C425 1.226 . S
O433 Cd424 2.356 . S
O433 C431 1.282 . S
C434 O435 1.306 . S
C434 O437 1.160 . S
O435 C434 1.306 . S
O435 Cd436 2.228 . S
Cd436 O435 2.228 . S
Cd436 O440 2.273 . S
Cd436 O444 2.277 . S
O437 C434 1.160 . S
O437 Cd438 2.203 . S
Cd438 O437 2.203 . S
Cd438 O440 2.411 . S
Cd438 O441 2.333 . S
Cd438 O442 2.352 . S
Cd438 O446 2.277 . S
Cd438 O447 2.356 . S
C439 O444 1.209 . S
C439 O446 1.226 . S
O440 Cd436 2.273 . S
O440 Cd438 2.411 . S
O440 C443 1.320 . S
O441 Cd438 2.333 . S
O441 C443 1.214 . S
O442 Cd438 2.352 . S
O442 C445 1.258 . S
C443 O440 1.320 . S
C443 O441 1.214 . S
O444 Cd436 2.277 . S
O444 C439 1.209 . S
C445 O442 1.258 . S
C445 O447 1.282 . S
O446 Cd438 2.277 . S
O446 C439 1.226 . S
O447 Cd438 2.356 . S
O447 C445 1.282 . S
C448 O449 1.306 . S
C448 O451 1.160 . S
O449 C448 1.306 . S
O449 Cd450 2.228 . S
Cd450 O449 2.228 . S
Cd450 O454 2.273 . S
Cd450 O458 2.277 . S
O451 C448 1.160 . S
O451 Cd452 2.203 . S
Cd452 O451 2.203 . S
Cd452 O454 2.411 . S
Cd452 O455 2.333 . S
Cd452 O456 2.352 . S
Cd452 O460 2.277 . S
Cd452 O461 2.356 . S
C453 O458 1.209 . S
C453 O460 1.226 . S
O454 Cd450 2.273 . S
O454 Cd452 2.411 . S
O454 C457 1.320 . S
O455 Cd452 2.333 . S
O455 C457 1.214 . S
O456 Cd452 2.352 . S
O456 C459 1.258 . S
C457 O454 1.320 . S
C457 O455 1.214 . S
O458 Cd450 2.277 . S
O458 C453 1.209 . S
C459 O456 1.258 . S
C459 O461 1.282 . S
O460 Cd452 2.277 . S
O460 C453 1.226 . S
O461 Cd452 2.356 . S
O461 C459 1.282 . S
C462 O463 1.306 . S
C462 O465 1.160 . S
O463 C462 1.306 . S
O463 Cd464 2.228 . S
Cd464 O463 2.228 . S
Cd464 O468 2.273 . S
Cd464 O472 2.277 . S
O465 C462 1.160 . S
O465 Cd466 2.203 . S
Cd466 O465 2.203 . S
Cd466 O468 2.411 . S
Cd466 O469 2.333 . S
Cd466 O470 2.352 . S
Cd466 O474 2.277 . S
Cd466 O475 2.356 . S
C467 O472 1.209 . S
C467 O474 1.226 . S
O468 Cd464 2.273 . S
O468 Cd466 2.411 . S
O468 C471 1.320 . S
O469 Cd466 2.333 . S
O469 C471 1.214 . S
O470 Cd466 2.352 . S
O470 C473 1.258 . S
C471 O468 1.320 . S
C471 O469 1.214 . S
O472 Cd464 2.277 . S
O472 C467 1.209 . S
C473 O470 1.258 . S
C473 O475 1.282 . S
O474 Cd466 2.277 . S
O474 C467 1.226 . S
O475 Cd466 2.356 . S
O475 C473 1.282 . S
C476 O477 1.306 . S
C476 O479 1.160 . S
O477 C476 1.306 . S
O477 Cd478 2.228 . S
Cd478 O477 2.228 . S
Cd478 O482 2.273 . S
Cd478 O486 2.277 . S
O479 C476 1.160 . S
O479 Cd480 2.203 . S
Cd480 O479 2.203 . S
Cd480 O482 2.411 . S
Cd480 O483 2.333 . S
Cd480 O484 2.352 . S
Cd480 O488 2.277 . S
Cd480 O489 2.356 . S
C481 O486 1.209 . S
C481 O488 1.226 . S
O482 Cd478 2.273 . S
O482 Cd480 2.411 . S
O482 C485 1.320 . S
O483 Cd480 2.333 . S
O483 C485 1.214 . S
O484 Cd480 2.352 . S
O484 C487 1.258 . S
C485 O482 1.320 . S
C485 O483 1.214 . S
O486 Cd478 2.277 . S
O486 C481 1.209 . S
C487 O484 1.258 . S
C487 O489 1.282 . S
O488 Cd480 2.277 . S
O488 C481 1.226 . S
O489 Cd480 2.356 . S
O489 C487 1.282 . S
C490 O491 1.306 . S
C490 O493 1.160 . S
O491 C490 1.306 . S
O491 Cd492 2.228 . S
Cd492 O491 2.228 . S
Cd492 O496 2.273 . S
Cd492 O500 2.277 . S
O493 C490 1.160 . S
O493 Cd494 2.203 . S
Cd494 O493 2.203 . S
Cd494 O496 2.411 . S
Cd494 O497 2.333 . S
Cd494 O498 2.352 . S
Cd494 O502 2.277 . S
Cd494 O503 2.356 . S
C495 O500 1.209 . S
C495 O502 1.226 . S
O496 Cd492 2.273 . S
O496 Cd494 2.411 . S
O496 C499 1.320 . S
O497 Cd494 2.333 . S
O497 C499 1.214 . S
O498 Cd494 2.352 . S
O498 C501 1.258 . S
C499 O496 1.320 . S
C499 O497 1.214 . S
O500 Cd492 2.277 . S
O500 C495 1.209 . S
C501 O498 1.258 . S
C501 O503 1.282 . S
O502 Cd494 2.277 . S
O502 C495 1.226 . S
O503 Cd494 2.356 . S
O503 C501 1.282 . S
C504 O505 1.306 . S
C504 O507 1.160 . S
O505 C504 1.306 . S
O505 Cd506 2.228 . S
Cd506 O505 2.228 . S
Cd506 O510 2.273 . S
Cd506 O514 2.277 . S
O507 C504 1.160 . S
O507 Cd508 2.203 . S
Cd508 O507 2.203 . S
Cd508 O510 2.411 . S
Cd508 O511 2.333 . S
Cd508 O512 2.352 . S
Cd508 O516 2.277 . S
Cd508 O517 2.356 . S
C509 O514 1.209 . S
C509 O516 1.226 . S
O510 Cd506 2.273 . S
O510 Cd508 2.411 . S
O510 C513 1.320 . S
O511 Cd508 2.333 . S
O511 C513 1.214 . S
O512 Cd508 2.352 . S
O512 C515 1.258 . S
C513 O510 1.320 . S
C513 O511 1.214 . S
O514 Cd506 2.277 . S
O514 C509 1.209 . S
C515 O512 1.258 . S
C515 O517 1.282 . S
O516 Cd508 2.277 . S
O516 C509 1.226 . S
O517 Cd508 2.356 . S
O517 C515 1.282 . S
C518 O519 1.306 . S
C518 O521 1.160 . S
O519 C518 1.306 . S
O519 Cd520 2.228 . S
Cd520 O519 2.228 . S
Cd520 O524 2.273 . S
Cd520 O528 2.277 . S
O521 C518 1.160 . S
O521 Cd522 2.203 . S
Cd522 O521 2.203 . S
Cd522 O524 2.411 . S
Cd522 O525 2.333 . S
Cd522 O526 2.352 . S
Cd522 O530 2.277 . S
Cd522 O531 2.356 . S
C523 O528 1.209 . S
C523 O530 1.226 . S
O524 Cd520 2.273 . S
O524 Cd522 2.411 . S
O524 C527 1.320 . S
O525 Cd522 2.333 . S
O525 C527 1.214 . S
O526 Cd522 2.352 . S
O526 C529 1.258 . S
C527 O524 1.320 . S
C527 O525 1.214 . S
O528 Cd520 2.277 . S
O528 C523 1.209 . S
C529 O526 1.258 . S
C529 O531 1.282 . S
O530 Cd522 2.277 . S
O530 C523 1.226 . S
O531 Cd522 2.356 . S
O531 C529 1.282 . S
C532 O533 1.306 . S
C532 O535 1.160 . S
O533 C532 1.306 . S
O533 Cd534 2.228 . S
Cd534 O533 2.228 . S
Cd534 O538 2.273 . S
Cd534 O542 2.277 . S
O535 C532 1.160 . S
O535 Cd536 2.203 . S
Cd536 O535 2.203 . S
Cd536 O538 2.411 . S
Cd536 O539 2.333 . S
Cd536 O540 2.352 . S
Cd536 O544 2.277 . S
Cd536 O545 2.356 . S
C537 O542 1.209 . S
C537 O544 1.226 . S
O538 Cd534 2.273 . S
O538 Cd536 2.411 . S
O538 C541 1.320 . S
O539 Cd536 2.333 . S
O539 C541 1.214 . S
O540 Cd536 2.352 . S
O540 C543 1.258 . S
C541 O538 1.320 . S
C541 O539 1.214 . S
O542 Cd534 2.277 . S
O542 C537 1.209 . S
C543 O540 1.258 . S
C543 O545 1.282 . S
O544 Cd536 2.277 . S
O544 C537 1.226 . S
O545 Cd536 2.356 . S
O545 C543 1.282 . S
C546 O547 1.306 . S
C546 O549 1.160 . S
O547 C546 1.306 . S
O547 Cd548 2.228 . S
Cd548 O547 2.228 . S
Cd548 O552 2.273 . S
Cd548 O556 2.277 . S
O549 C546 1.160 . S
O549 Cd550 2.203 . S
Cd550 O549 2.203 . S
Cd550 O552 2.411 . S
Cd550 O553 2.333 . S
Cd550 O554 2.352 . S
Cd550 O558 2.277 . S
Cd550 O559 2.356 . S
C551 O556 1.209 . S
C551 O558 1.226 . S
O552 Cd548 2.273 . S
O552 Cd550 2.411 . S
O552 C555 1.320 . S
O553 Cd550 2.333 . S
O553 C555 1.214 . S
O554 Cd550 2.352 . S
O554 C557 1.258 . S
C555 O552 1.320 . S
C555 O553 1.214 . S
O556 Cd548 2.277 . S
O556 C551 1.209 . S
C557 O554 1.258 . S
C557 O559 1.282 . S
O558 Cd550 2.277 . S
O558 C551 1.226 . S
O559 Cd550 2.356 . S
O559 C557 1.282 . S
C560 O561 1.306 . S
C560 O563 1.160 . S
O561 C560 1.306 . S
O561 Cd562 2.228 . S
Cd562 O561 2.228 . S
Cd562 O566 2.273 . S
Cd562 O570 2.277 . S
O563 C560 1.160 . S
O563 Cd564 2.203 . S
Cd564 O563 2.203 . S
Cd564 O566 2.411 . S
Cd564 O567 2.333 . S
Cd564 O568 2.352 . S
Cd564 O572 2.277 . S
Cd564 O573 2.356 . S
C565 O570 1.209 . S
C565 O572 1.226 . S
O566 Cd562 2.273 . S
O566 Cd564 2.411 . S
O566 C569 1.320 . S
O567 Cd564 2.333 . S
O567 C569 1.214 . S
O568 Cd564 2.352 . S
O568 C571 1.258 . S
C569 O566 1.320 . S
C569 O567 1.214 . S
O570 Cd562 2.277 . S
O570 C565 1.209 . S
C571 O568 1.258 . S
C571 O573 1.282 . S
O572 Cd564 2.277 . S
O572 C565 1.226 . S
O573 Cd564 2.356 . S
O573 C571 1.282 . S
C574 O575 1.306 . S
C574 O577 1.160 . S
O575 C574 1.306 . S
O575 Cd576 2.228 . S
Cd576 O575 2.228 . S
Cd576 O580 2.273 . S
Cd576 O584 2.277 . S
O577 C574 1.160 . S
O577 Cd578 2.203 . S
Cd578 O577 2.203 . S
Cd578 O580 2.411 . S
Cd578 O581 2.333 . S
Cd578 O582 2.352 . S
Cd578 O586 2.277 . S
Cd578 O587 2.356 . S
C579 O584 1.209 . S
C579 O586 1.226 . S
O580 Cd576 2.273 . S
O580 Cd578 2.411 . S
O580 C583 1.320 . S
O581 Cd578 2.333 . S
O581 C583 1.214 . S
O582 Cd578 2.352 . S
O582 C585 1.258 . S
C583 O580 1.320 . S
C583 O581 1.214 . S
O584 Cd576 2.277 . S
O584 C579 1.209 . S
C585 O582 1.258 . S
C585 O587 1.282 . S
O586 Cd578 2.277 . S
O586 C579 1.226 . S
O587 Cd578 2.356 . S
O587 C585 1.282 . S
C588 O589 1.306 . S
C588 O591 1.160 . S
O589 C588 1.306 . S
O589 Cd590 2.228 . S
Cd590 O589 2.228 . S
Cd590 O594 2.273 . S
Cd590 O598 2.277 . S
O591 C588 1.160 . S
O591 Cd592 2.203 . S
Cd592 O591 2.203 . S
Cd592 O594 2.411 . S
Cd592 O595 2.333 . S
Cd592 O596 2.352 . S
Cd592 O600 2.277 . S
Cd592 O601 2.356 . S
C593 O598 1.209 . S
C593 O600 1.226 . S
O594 Cd590 2.273 . S
O594 Cd592 2.411 . S
O594 C597 1.320 . S
O595 Cd592 2.333 . S
O595 C597 1.214 . S
O596 Cd592 2.352 . S
O596 C599 1.258 . S
C597 O594 1.320 . S
C597 O595 1.214 . S
O598 Cd590 2.277 . S
O598 C593 1.209 . S
C599 O596 1.258 . S
C599 O601 1.282 . S
O600 Cd592 2.277 . S
O600 C593 1.226 . S
O601 Cd592 2.356 . S
O601 C599 1.282 . S
C602 O603 1.306 . S
C602 O605 1.160 . S
O603 C602 1.306 . S
O603 Cd604 2.228 . S
Cd604 O603 2.228 . S
Cd604 O608 2.273 . S
Cd604 O612 2.277 . S
O605 C602 1.160 . S
O605 Cd606 2.203 . S
Cd606 O605 2.203 . S
Cd606 O608 2.411 . S
Cd606 O609 2.333 . S
Cd606 O610 2.352 . S
Cd606 O614 2.277 . S
Cd606 O615 2.356 . S
C607 O612 1.209 . S
C607 O614 1.226 . S
O608 Cd604 2.273 . S
O608 Cd606 2.411 . S
O608 C611 1.320 . S
O609 Cd606 2.333 . S
O609 C611 1.214 . S
O610 Cd606 2.352 . S
O610 C613 1.258 . S
C611 O608 1.320 . S
C611 O609 1.214 . S
O612 Cd604 2.277 . S
O612 C607 1.209 . S
C613 O610 1.258 . S
C613 O615 1.282 . S
O614 Cd606 2.277 . S
O614 C607 1.226 . S
O615 Cd606 2.356 . S
O615 C613 1.282 . S
C616 O617 1.306 . S
C616 O619 1.160 . S
O617 C616 1.306 . S
O617 Cd618 2.228 . S
Cd618 O617 2.228 . S
Cd618 O622 2.273 . S
Cd618 O626 2.277 . S
O619 C616 1.160 . S
O619 Cd620 2.203 . S
Cd620 O619 2.203 . S
Cd620 O622 2.411 . S
Cd620 O623 2.333 . S
Cd620 O624 2.352 . S
Cd620 O628 2.277 . S
Cd620 O629 2.356 . S
C621 O626 1.209 . S
C621 O628 1.226 . S
O622 Cd618 2.273 . S
O622 Cd620 2.411 . S
O622 C625 1.320 . S
O623 Cd620 2.333 . S
O623 C625 1.214 . S
O624 Cd620 2.352 . S
O624 C627 1.258 . S
C625 O622 1.320 . S
C625 O623 1.214 . S
O626 Cd618 2.277 . S
O626 C621 1.209 . S
C627 O624 1.258 . S
C627 O629 1.282 . S
O628 Cd620 2.277 . S
O628 C621 1.226 . S
O629 Cd620 2.356 . S
O629 C627 1.282 . S
C630 O631 1.306 . S
C630 O633 1.160 . S
O631 C630 1.306 . S
O631 Cd632 2.228 . S
Cd632 O631 2.228 . S
Cd632 O636 2.273 . S
Cd632 O640 2.277 . S
O633 C630 1.160 . S
O633 Cd634 2.203 . S
Cd634 O633 2.203 . S
Cd634 O636 2.411 . S
Cd634 O637 2.333 . S
Cd634 O638 2.352 . S
Cd634 O642 2.277 . S
Cd634 O643 2.356 . S
C635 O640 1.209 . S
C635 O642 1.226 . S
O636 Cd632 2.273 . S
O636 Cd634 2.411 . S
O636 C639 1.320 . S
O637 Cd634 2.333 . S
O637 C639 1.214 . S
O638 Cd634 2.352 . S
O638 C641 1.258 . S
C639 O636 1.320 . S
C639 O637 1.214 . S
O640 Cd632 2.277 . S
O640 C635 1.209 . S
C641 O638 1.258 . S
C641 O643 1.282 . S
O642 Cd634 2.277 . S
O642 C635 1.226 . S
O643 Cd634 2.356 . S
O643 C641 1.282 . S
C644 O645 1.306 . S
C644 O647 1.160 . S
O645 C644 1.306 . S
O645 Cd646 2.228 . S
Cd646 O645 2.228 . S
Cd646 O650 2.273 . S
Cd646 O654 2.277 . S
O647 C644 1.160 . S
O647 Cd648 2.203 . S
Cd648 O647 2.203 . S
Cd648 O650 2.411 . S
Cd648 O651 2.333 . S
Cd648 O652 2.352 . S
Cd648 O656 2.277 . S
Cd648 O657 2.356 . S
C649 O654 1.209 . S
C649 O656 1.226 . S
O650 Cd646 2.273 . S
O650 Cd648 2.411 . S
O650 C653 1.320 . S
O651 Cd648 2.333 . S
O651 C653 1.214 . S
O652 Cd648 2.352 . S
O652 C655 1.258 . S
C653 O650 1.320 . S
C653 O651 1.214 . S
O654 Cd646 2.277 . S
O654 C649 1.209 . S
C655 O652 1.258 . S
C655 O657 1.282 . S
O656 Cd648 2.277 . S
O656 C649 1.226 . S
O657 Cd648 2.356 . S
O657 C655 1.282 . S
C658 O659 1.306 . S
C658 O661 1.160 . S
O659 C658 1.306 . S
O659 Cd660 2.228 . S
Cd660 O659 2.228 . S
Cd660 O664 2.273 . S
Cd660 O668 2.277 . S
O661 C658 1.160 . S
O661 Cd662 2.203 . S
Cd662 O661 2.203 . S
Cd662 O664 2.411 . S
Cd662 O665 2.333 . S
Cd662 O666 2.352 . S
Cd662 O670 2.277 . S
Cd662 O671 2.356 . S
C663 O668 1.209 . S
C663 O670 1.226 . S
O664 Cd660 2.273 . S
O664 Cd662 2.411 . S
O664 C667 1.320 . S
O665 Cd662 2.333 . S
O665 C667 1.214 . S
O666 Cd662 2.352 . S
O666 C669 1.258 . S
C667 O664 1.320 . S
C667 O665 1.214 . S
O668 Cd660 2.277 . S
O668 C663 1.209 . S
C669 O666 1.258 . S
C669 O671 1.282 . S
O670 Cd662 2.277 . S
O670 C663 1.226 . S
O671 Cd662 2.356 . S
O671 C669 1.282 . S
C672 C673 1.369 . S
C672 C674 1.419 1_655 S
C672 H676 0.930 . S
C673 C672 1.369 . S
C673 C682 1.429 . S
C674 C672 1.419 1_455 S
C674 C675 1.363 . S
C674 H677 0.929 . S
C675 C674 1.363 . S
C675 C681 1.428 . S
H676 C672 0.930 . S
H677 C674 0.929 . S
S678 N679 1.616 1_455 S
S678 N680 1.607 . S
N679 S678 1.616 1_655 S
N679 C682 1.350 . S
N680 S678 1.607 . S
N680 C681 1.351 . S
C681 C675 1.428 . S
C681 N680 1.351 . S
C681 C682 1.434 1_455 S
C682 C673 1.429 . S
C682 N679 1.350 . S
C682 C681 1.434 1_655 S
C683 C684 1.369 . S
C683 C685 1.419 . S
C683 H687 0.930 . S
C684 C683 1.369 . S
C684 C693 1.429 . S
C685 C683 1.419 . S
C685 C686 1.363 . S
C685 H688 0.929 . S
C686 C685 1.363 . S
C686 C692 1.428 . S
H687 C683 0.930 . S
H688 C685 0.929 . S
S689 N690 1.613 . S
S689 N691 1.610 . S
N690 S689 1.613 . S
N690 C693 1.350 . S
N691 S689 1.610 . S
N691 C692 1.351 . S
C692 C686 1.428 . S
C692 N691 1.351 . S
C692 C693 1.434 . S
C693 C684 1.429 . S
C693 N690 1.350 . S
C693 C692 1.434 . S
C694 C695 1.369 . S
C694 C696 1.419 1_455 S
C694 H698 0.930 . S
C695 C694 1.369 . S
C695 C704 1.429 . S
C696 C694 1.419 1_655 S
C696 C697 1.363 . S
C696 H699 0.929 . S
C697 C696 1.363 . S
C697 C703 1.428 . S
H698 C694 0.930 . S
H699 C696 0.929 . S
S700 N701 1.616 1_655 S
S700 N702 1.607 . S
N701 S700 1.616 1_455 S
N701 C704 1.350 . S
N702 S700 1.607 . S
N702 C703 1.351 . S
C703 C697 1.428 . S
C703 N702 1.351 . S
C703 C704 1.434 1_655 S
C704 C695 1.429 . S
C704 N701 1.350 . S
C704 C703 1.434 1_455 S
C705 C706 1.369 . S
C705 C707 1.419 . S
C705 H709 0.930 . S
C706 C705 1.369 . S
C706 C715 1.429 . S
C707 C705 1.419 . S
C707 C708 1.363 . S
C707 H710 0.929 . S
C708 C707 1.363 . S
C708 C714 1.428 . S
H709 C705 0.930 . S
H710 C707 0.929 . S
S711 N712 1.613 . S
S711 N713 1.610 . S
N712 S711 1.613 . S
N712 C715 1.350 . S
N713 S711 1.610 . S
N713 C714 1.351 . S
C714 C708 1.428 . S
C714 N713 1.351 . S
C714 C715 1.434 . S
C715 C706 1.429 . S
C715 N712 1.350 . S
C715 C714 1.434 . S
C716 C717 1.369 . S
C716 C718 1.419 1_655 S
C716 H720 0.930 . S
C717 C716 1.369 . S
C717 C726 1.429 . S
C718 C716 1.419 1_455 S
C718 C719 1.363 . S
C718 H721 0.929 . S
C719 C718 1.363 . S
C719 C725 1.428 . S
H720 C716 0.930 . S
H721 C718 0.929 . S
S722 N723 1.616 1_455 S
S722 N724 1.607 . S
N723 S722 1.616 1_655 S
N723 C726 1.350 . S
N724 S722 1.607 . S
N724 C725 1.351 . S
C725 C719 1.428 . S
C725 N724 1.351 . S
C725 C726 1.434 1_455 S
C726 C717 1.429 . S
C726 N723 1.350 . S
C726 C725 1.434 1_655 S
C727 C728 1.369 . S
C727 C729 1.419 . S
C727 H731 0.930 . S
C728 C727 1.369 . S
C728 C737 1.429 . S
C729 C727 1.419 . S
C729 C730 1.363 . S
C729 H732 0.929 . S
C730 C729 1.363 . S
C730 C736 1.428 . S
H731 C727 0.930 . S
H732 C729 0.929 . S
S733 N734 1.613 . S
S733 N735 1.610 . S
N734 S733 1.613 . S
N734 C737 1.350 . S
N735 S733 1.610 . S
N735 C736 1.351 . S
C736 C730 1.428 . S
C736 N735 1.351 . S
C736 C737 1.434 . S
C737 C728 1.429 . S
C737 N734 1.350 . S
C737 C736 1.434 . S
C738 C739 1.369 . S
C738 C740 1.419 1_455 S
C738 H742 0.930 . S
C739 C738 1.369 . S
C739 C748 1.429 . S
C740 C738 1.419 1_655 S
C740 C741 1.363 . S
C740 H743 0.929 . S
C741 C740 1.363 . S
C741 C747 1.428 . S
H742 C738 0.930 . S
H743 C740 0.929 . S
S744 N745 1.616 1_655 S
S744 N746 1.607 . S
N745 S744 1.616 1_455 S
N745 C748 1.350 . S
N746 S744 1.607 . S
N746 C747 1.351 . S
C747 C741 1.428 . S
C747 N746 1.351 . S
C747 C748 1.434 1_655 S
C748 C739 1.429 . S
C748 N745 1.350 . S
C748 C747 1.434 1_455 S
C749 C750 1.369 . S
C749 C751 1.419 . S
C749 H753 0.930 . S
C750 C749 1.369 . S
C750 C759 1.429 . S
C751 C749 1.419 . S
C751 C752 1.363 . S
C751 H754 0.929 . S
C752 C751 1.363 . S
C752 C758 1.428 . S
H753 C749 0.930 . S
H754 C751 0.929 . S
S755 N756 1.613 . S
S755 N757 1.610 . S
N756 S755 1.613 . S
N756 C759 1.350 . S
N757 S755 1.610 . S
N757 C758 1.351 . S
C758 C752 1.428 . S
C758 N757 1.351 . S
C758 C759 1.434 . S
C759 C750 1.429 . S
C759 N756 1.350 . S
C759 C758 1.434 . S
C760 C761 1.369 . S
C760 C762 1.419 1_565 S
C760 H764 0.930 . S
C761 C760 1.369 . S
C761 C770 1.429 . S
C762 C760 1.419 1_545 S
C762 C763 1.363 . S
C762 H765 0.929 . S
C763 C762 1.363 . S
C763 C769 1.428 . S
H764 C760 0.930 . S
H765 C762 0.929 . S
S766 N767 1.616 1_545 S
S766 N768 1.607 . S
N767 S766 1.616 1_565 S
N767 C770 1.350 . S
N768 S766 1.607 . S
N768 C769 1.351 . S
C769 C763 1.428 . S
C769 N768 1.351 . S
C769 C770 1.434 1_545 S
C770 C761 1.429 . S
C770 N767 1.350 . S
C770 C769 1.434 1_565 S
C771 C772 1.369 . S
C771 C773 1.419 . S
C771 H775 0.930 . S
C772 C771 1.369 . S
C772 C781 1.429 . S
C773 C771 1.419 . S
C773 C774 1.363 . S
C773 H776 0.929 . S
C774 C773 1.363 . S
C774 C780 1.428 . S
H775 C771 0.930 . S
H776 C773 0.929 . S
S777 N778 1.613 . S
S777 N779 1.610 . S
N778 S777 1.613 . S
N778 C781 1.350 . S
N779 S777 1.610 . S
N779 C780 1.351 . S
C780 C774 1.428 . S
C780 N779 1.351 . S
C780 C781 1.434 . S
C781 C772 1.429 . S
C781 N778 1.350 . S
C781 C780 1.434 . S
C782 C783 1.369 . S
C782 C784 1.419 1_545 S
C782 H786 0.930 . S
C783 C782 1.369 . S
C783 C792 1.429 . S
C784 C782 1.419 1_565 S
C784 C785 1.363 . S
C784 H787 0.929 . S
C785 C784 1.363 . S
C785 C791 1.428 . S
H786 C782 0.930 . S
H787 C784 0.929 . S
S788 N789 1.616 1_565 S
S788 N790 1.607 . S
N789 S788 1.616 1_545 S
N789 C792 1.350 . S
N790 S788 1.607 . S
N790 C791 1.351 . S
C791 C785 1.428 . S
C791 N790 1.351 . S
C791 C792 1.434 1_565 S
C792 C783 1.429 . S
C792 N789 1.350 . S
C792 C791 1.434 1_545 S
C793 C794 1.369 . S
C793 C795 1.419 . S
C793 H797 0.930 . S
C794 C793 1.369 . S
C794 C803 1.429 . S
C795 C793 1.419 . S
C795 C796 1.363 . S
C795 H798 0.929 . S
C796 C795 1.363 . S
C796 C802 1.428 . S
H797 C793 0.930 . S
H798 C795 0.929 . S
S799 N800 1.613 . S
S799 N801 1.610 . S
N800 S799 1.613 . S
N800 C803 1.350 . S
N801 S799 1.610 . S
N801 C802 1.351 . S
C802 C796 1.428 . S
C802 N801 1.351 . S
C802 C803 1.434 . S
C803 C794 1.429 . S
C803 N800 1.350 . S
C803 C802 1.434 . S
C804 C805 1.369 . S
C804 C806 1.419 1_545 S
C804 H808 0.930 . S
C805 C804 1.369 . S
C805 C814 1.429 . S
C806 C804 1.419 1_565 S
C806 C807 1.363 . S
C806 H809 0.929 . S
C807 C806 1.363 . S
C807 C813 1.428 . S
H808 C804 0.930 . S
H809 C806 0.929 . S
S810 N811 1.616 1_565 S
S810 N812 1.607 . S
N811 S810 1.616 1_545 S
N811 C814 1.350 . S
N812 S810 1.607 . S
N812 C813 1.351 . S
C813 C807 1.428 . S
C813 N812 1.351 . S
C813 C814 1.434 1_565 S
C814 C805 1.429 . S
C814 N811 1.350 . S
C814 C813 1.434 1_545 S
C815 C816 1.369 . S
C815 C817 1.419 . S
C815 H819 0.930 . S
C816 C815 1.369 . S
C816 C825 1.429 . S
C817 C815 1.419 . S
C817 C818 1.363 . S
C817 H820 0.929 . S
C818 C817 1.363 . S
C818 C824 1.428 . S
H819 C815 0.930 . S
H820 C817 0.929 . S
S821 N822 1.613 . S
S821 N823 1.610 . S
N822 S821 1.613 . S
N822 C825 1.350 . S
N823 S821 1.610 . S
N823 C824 1.351 . S
C824 C818 1.428 . S
C824 N823 1.351 . S
C824 C825 1.434 . S
C825 C816 1.429 . S
C825 N822 1.350 . S
C825 C824 1.434 . S
C826 C827 1.369 . S
C826 C828 1.419 1_545 S
C826 H830 0.930 . S
C827 C826 1.369 . S
C827 C836 1.429 . S
C828 C826 1.419 1_565 S
C828 C829 1.363 . S
C828 H831 0.929 . S
C829 C828 1.363 . S
C829 C835 1.428 . S
H830 C826 0.930 . S
H831 C828 0.929 . S
S832 N833 1.616 1_565 S
S832 N834 1.607 . S
N833 S832 1.616 1_545 S
N833 C836 1.350 . S
N834 S832 1.607 . S
N834 C835 1.351 . S
C835 C829 1.428 . S
C835 N834 1.351 . S
C835 C836 1.434 1_565 S
C836 C827 1.429 . S
C836 N833 1.350 . S
C836 C835 1.434 1_545 S
C837 C838 1.369 . S
C837 C839 1.419 . S
C837 H841 0.930 . S
C838 C837 1.369 . S
C838 C847 1.429 . S
C839 C837 1.419 . S
C839 C840 1.363 . S
C839 H842 0.929 . S
C840 C839 1.363 . S
C840 C846 1.428 . S
H841 C837 0.930 . S
H842 C839 0.929 . S
S843 N844 1.613 . S
S843 N845 1.610 . S
N844 S843 1.613 . S
N844 C847 1.350 . S
N845 S843 1.610 . S
N845 C846 1.351 . S
C846 C840 1.428 . S
C846 N845 1.351 . S
C846 C847 1.434 . S
C847 C838 1.429 . S
C847 N844 1.350 . S
C847 C846 1.434 . S
C848 C849 1.369 . S
C848 C850 1.419 1_554 S
C848 H852 0.930 . S
C849 C848 1.369 . S
C849 C858 1.429 . S
C850 C848 1.419 1_556 S
C850 C851 1.363 . S
C850 H853 0.929 . S
C851 C850 1.363 . S
C851 C857 1.428 . S
H852 C848 0.930 . S
H853 C850 0.929 . S
S854 N855 1.616 1_556 S
S854 N856 1.607 . S
N855 S854 1.616 1_554 S
N855 C858 1.350 . S
N856 S854 1.607 . S
N856 C857 1.351 . S
C857 C851 1.428 . S
C857 N856 1.351 . S
C857 C858 1.434 1_556 S
C858 C849 1.429 . S
C858 N855 1.350 . S
C858 C857 1.434 1_554 S
C859 C860 1.369 . S
C859 C861 1.419 1_554 S
C859 H863 0.930 . S
C860 C859 1.369 . S
C860 C869 1.429 . S
C861 C859 1.419 1_556 S
C861 C862 1.363 . S
C861 H864 0.929 . S
C862 C861 1.363 . S
C862 C868 1.428 . S
H863 C859 0.930 . S
H864 C861 0.929 . S
S865 N866 1.616 1_556 S
S865 N867 1.607 . S
N866 S865 1.616 1_554 S
N866 C869 1.350 . S
N867 S865 1.607 . S
N867 C868 1.351 . S
C868 C862 1.428 . S
C868 N867 1.351 . S
C868 C869 1.434 1_556 S
C869 C860 1.429 . S
C869 N866 1.350 . S
C869 C868 1.434 1_554 S
C870 C871 1.369 . S
C870 C872 1.419 . S
C870 H874 0.930 . S
C871 C870 1.369 . S
C871 C880 1.429 . S
C872 C870 1.419 . S
C872 C873 1.363 . S
C872 H875 0.929 . S
C873 C872 1.363 . S
C873 C879 1.428 . S
H874 C870 0.930 . S
H875 C872 0.929 . S
S876 N877 1.613 . S
S876 N878 1.610 . S
N877 S876 1.613 . S
N877 C880 1.350 . S
N878 S876 1.610 . S
N878 C879 1.351 . S
C879 C873 1.428 . S
C879 N878 1.351 . S
C879 C880 1.434 . S
C880 C871 1.429 . S
C880 N877 1.350 . S
C880 C879 1.434 . S
C881 C882 1.369 . S
C881 C883 1.419 1_554 S
C881 H885 0.930 . S
C882 C881 1.369 . S
C882 C891 1.429 . S
C883 C881 1.419 1_556 S
C883 C884 1.363 . S
C883 H886 0.929 . S
C884 C883 1.363 . S
C884 C890 1.428 . S
H885 C881 0.930 . S
H886 C883 0.929 . S
S887 N888 1.616 1_556 S
S887 N889 1.607 . S
N888 S887 1.616 1_554 S
N888 C891 1.350 . S
N889 S887 1.607 . S
N889 C890 1.351 . S
C890 C884 1.428 . S
C890 N889 1.351 . S
C890 C891 1.434 1_556 S
C891 C882 1.429 . S
C891 N888 1.350 . S
C891 C890 1.434 1_554 S
C892 C893 1.369 . S
C892 C894 1.419 . S
C892 H896 0.930 . S
C893 C892 1.369 . S
C893 C902 1.429 . S
C894 C892 1.419 . S
C894 C895 1.363 . S
C894 H897 0.929 . S
C895 C894 1.363 . S
C895 C901 1.428 . S
H896 C892 0.930 . S
H897 C894 0.929 . S
S898 N899 1.613 . S
S898 N900 1.610 . S
N899 S898 1.613 . S
N899 C902 1.350 . S
N900 S898 1.610 . S
N900 C901 1.351 . S
C901 C895 1.428 . S
C901 N900 1.351 . S
C901 C902 1.434 . S
C902 C893 1.429 . S
C902 N899 1.350 . S
C902 C901 1.434 . S
C903 C904 1.369 . S
C903 C905 1.419 1_554 S
C903 H907 0.930 . S
C904 C903 1.369 . S
C904 C913 1.429 . S
C905 C903 1.419 1_556 S
C905 C906 1.363 . S
C905 H908 0.929 . S
C906 C905 1.363 . S
C906 C912 1.428 . S
H907 C903 0.930 . S
H908 C905 0.929 . S
S909 N910 1.616 1_556 S
S909 N911 1.607 . S
N910 S909 1.616 1_554 S
N910 C913 1.350 . S
N911 S909 1.607 . S
N911 C912 1.351 . S
C912 C906 1.428 . S
C912 N911 1.351 . S
C912 C913 1.434 1_556 S
C913 C904 1.429 . S
C913 N910 1.350 . S
C913 C912 1.434 1_554 S
C914 C915 1.369 . S
C914 C916 1.419 . S
C914 H918 0.930 . S
C915 C914 1.369 . S
C915 C924 1.429 . S
C916 C914 1.419 . S
C916 C917 1.363 . S
C916 H919 0.929 . S
C917 C916 1.363 . S
C917 C923 1.428 . S
H918 C914 0.930 . S
H919 C916 0.929 . S
S920 N921 1.613 . S
S920 N922 1.610 . S
N921 S920 1.613 . S
N921 C924 1.350 . S
N922 S920 1.610 . S
N922 C923 1.351 . S
C923 C917 1.428 . S
C923 N922 1.351 . S
C923 C924 1.434 . S
C924 C915 1.429 . S
C924 N921 1.350 . S
C924 C923 1.434 . S
C925 C926 1.369 . S
C925 C927 1.419 . S
C925 H929 0.930 . S
C926 C925 1.369 . S
C926 C935 1.429 . S
C927 C925 1.419 . S
C927 C928 1.363 . S
C927 H930 0.929 . S
C928 C927 1.363 . S
C928 C934 1.428 . S
H929 C925 0.930 . S
H930 C927 0.929 . S
S931 N932 1.613 . S
S931 N933 1.610 . S
N932 S931 1.613 . S
N932 C935 1.350 . S
N933 S931 1.610 . S
N933 C934 1.351 . S
C934 C928 1.428 . S
C934 N933 1.351 . S
C934 C935 1.434 . S
C935 C926 1.429 . S
C935 N932 1.350 . S
C935 C934 1.434 . S
C936 C937 1.369 . S
C936 C938 1.419 . S
C936 H940 0.930 . S
C937 C936 1.369 . S
C937 C946 1.429 . S
C938 C936 1.419 . S
C938 C939 1.363 . S
C938 H941 0.929 . S
C939 C938 1.363 . S
C939 C945 1.428 . S
H940 C936 0.930 . S
H941 C938 0.929 . S
S942 N943 1.613 . S
S942 N944 1.610 . S
N943 S942 1.613 . S
N943 C946 1.350 . S
N944 S942 1.610 . S
N944 C945 1.351 . S
C945 C939 1.428 . S
C945 N944 1.351 . S
C945 C946 1.434 . S
C946 C937 1.429 . S
C946 N943 1.350 . S
C946 C945 1.434 . S
C947 C948 1.369 . S
C947 C949 1.419 . S
C947 H951 0.930 . S
C948 C947 1.369 . S
C948 C957 1.429 . S
C949 C947 1.419 . S
C949 C950 1.363 . S
C949 H952 0.929 . S
C950 C949 1.363 . S
C950 C956 1.428 . S
H951 C947 0.930 . S
H952 C949 0.929 . S
S953 N954 1.613 . S
S953 N955 1.610 . S
N954 S953 1.613 . S
N954 C957 1.350 . S
N955 S953 1.610 . S
N955 C956 1.351 . S
C956 C950 1.428 . S
C956 N955 1.351 . S
C956 C957 1.434 . S
C957 C948 1.429 . S
C957 N954 1.350 . S
C957 C956 1.434 . S
C958 C959 1.369 . S
C958 C960 1.419 . S
C958 H962 0.930 . S
C959 C958 1.369 . S
C959 C968 1.429 . S
C960 C958 1.419 . S
C960 C961 1.363 . S
C960 H963 0.929 . S
C961 C960 1.363 . S
C961 C967 1.428 . S
H962 C958 0.930 . S
H963 C960 0.929 . S
S964 N965 1.613 . S
S964 N966 1.610 . S
N965 S964 1.613 . S
N965 C968 1.350 . S
N966 S964 1.610 . S
N966 C967 1.351 . S
C967 C961 1.428 . S
C967 N966 1.351 . S
C967 C968 1.434 . S
C968 C959 1.429 . S
C968 N965 1.350 . S
C968 C967 1.434 . S
C969 C970 1.369 . S
C969 C971 1.419 . S
C969 H973 0.930 . S
C970 C969 1.369 . S
C970 C979 1.429 . S
C971 C969 1.419 . S
C971 C972 1.363 . S
C971 H974 0.929 . S
C972 C971 1.363 . S
C972 C978 1.428 . S
H973 C969 0.930 . S
H974 C971 0.929 . S
S975 N976 1.613 . S
S975 N977 1.610 . S
N976 S975 1.613 . S
N976 C979 1.350 . S
N977 S975 1.610 . S
N977 C978 1.351 . S
C978 C972 1.428 . S
C978 N977 1.351 . S
C978 C979 1.434 . S
C979 C970 1.429 . S
C979 N976 1.350 . S
C979 C978 1.434 . S
C980 C981 1.369 . S
C980 C982 1.419 . S
C980 H984 0.930 . S
C981 C980 1.369 . S
C981 C990 1.429 . S
C982 C980 1.419 . S
C982 C983 1.363 . S
C982 H985 0.929 . S
C983 C982 1.363 . S
C983 C989 1.428 . S
H984 C980 0.930 . S
H985 C982 0.929 . S
S986 N987 1.613 . S
S986 N988 1.610 . S
N987 S986 1.613 . S
N987 C990 1.350 . S
N988 S986 1.610 . S
N988 C989 1.351 . S
C989 C983 1.428 . S
C989 N988 1.351 . S
C989 C990 1.434 . S
C990 C981 1.429 . S
C990 N987 1.350 . S
C990 C989 1.434 . S
C991 C992 1.369 . S
C991 C993 1.419 . S
C991 H995 0.930 . S
C992 C991 1.369 . S
C992 C1001 1.429 . S
C993 C991 1.419 . S
C993 C994 1.363 . S
C993 H996 0.929 . S
C994 C993 1.363 . S
C994 C1000 1.428 . S
H995 C991 0.930 . S
H996 C993 0.929 . S
S997 N998 1.613 . S
S997 N999 1.610 . S
N998 S997 1.613 . S
N998 C1001 1.350 . S
N999 S997 1.610 . S
N999 C1000 1.351 . S
C1000 C994 1.428 . S
C1000 N999 1.351 . S
C1000 C1001 1.434 . S
C1001 C992 1.429 . S
C1001 N998 1.350 . S
C1001 C1000 1.434 . S
C1002 C1003 1.369 . S
C1002 C1004 1.419 . S
C1002 H1006 0.930 . S
C1003 C1002 1.369 . S
C1003 C1012 1.429 . S
C1004 C1002 1.419 . S
C1004 C1005 1.363 . S
C1004 H1007 0.929 . S
C1005 C1004 1.363 . S
C1005 C1011 1.428 . S
H1006 C1002 0.930 . S
H1007 C1004 0.929 . S
S1008 N1009 1.613 . S
S1008 N1010 1.610 . S
N1009 S1008 1.613 . S
N1009 C1012 1.350 . S
N1010 S1008 1.610 . S
N1010 C1011 1.351 . S
C1011 C1005 1.428 . S
C1011 N1010 1.351 . S
C1011 C1012 1.434 . S
C1012 C1003 1.429 . S
C1012 N1009 1.350 . S
C1012 C1011 1.434 . S
C1013 C1014 1.369 . S
C1013 C1015 1.419 . S
C1013 H1017 0.930 . S
C1014 C1013 1.369 . S
C1014 C1023 1.429 . S
C1015 C1013 1.419 . S
C1015 C1016 1.363 . S
C1015 H1018 0.929 . S
C1016 C1015 1.363 . S
C1016 C1022 1.428 . S
H1017 C1013 0.930 . S
H1018 C1015 0.929 . S
S1019 N1020 1.613 . S
S1019 N1021 1.610 . S
N1020 S1019 1.613 . S
N1020 C1023 1.350 . S
N1021 S1019 1.610 . S
N1021 C1022 1.351 . S
C1022 C1016 1.428 . S
C1022 N1021 1.351 . S
C1022 C1023 1.434 . S
C1023 C1014 1.429 . S
C1023 N1020 1.350 . S
C1023 C1022 1.434 . S
C1024 C1025 1.369 . S
C1024 C1026 1.419 . S
C1024 H1028 0.930 . S
C1025 C1024 1.369 . S
C1025 C1034 1.429 . S
C1026 C1024 1.419 . S
C1026 C1027 1.363 . S
C1026 H1029 0.929 . S
C1027 C1026 1.363 . S
C1027 C1033 1.428 . S
H1028 C1024 0.930 . S
H1029 C1026 0.929 . S
S1030 N1031 1.613 . S
S1030 N1032 1.610 . S
N1031 S1030 1.613 . S
N1031 C1034 1.350 . S
N1032 S1030 1.610 . S
N1032 C1033 1.351 . S
C1033 C1027 1.428 . S
C1033 N1032 1.351 . S
C1033 C1034 1.434 . S
C1034 C1025 1.429 . S
C1034 N1031 1.350 . S
C1034 C1033 1.434 . S
C1035 C1036 1.369 . S
C1035 C1037 1.419 . S
C1035 H1039 0.930 . S
C1036 C1035 1.369 . S
C1036 C1045 1.429 . S
C1037 C1035 1.419 . S
C1037 C1038 1.363 . S
C1037 H1040 0.929 . S
C1038 C1037 1.363 . S
C1038 C1044 1.428 . S
H1039 C1035 0.930 . S
H1040 C1037 0.929 . S
S1041 N1042 1.613 . S
S1041 N1043 1.610 . S
N1042 S1041 1.613 . S
N1042 C1045 1.350 . S
N1043 S1041 1.610 . S
N1043 C1044 1.351 . S
C1044 C1038 1.428 . S
C1044 N1043 1.351 . S
C1044 C1045 1.434 . S
C1045 C1036 1.429 . S
C1045 N1042 1.350 . S
C1045 C1044 1.434 . S
C1046 C1047 1.369 . S
C1046 C1048 1.419 . S
C1046 H1050 0.930 . S
C1047 C1046 1.369 . S
C1047 C1056 1.429 . S
C1048 C1046 1.419 . S
C1048 C1049 1.363 . S
C1048 H1051 0.929 . S
C1049 C1048 1.363 . S
C1049 C1055 1.428 . S
H1050 C1046 0.930 . S
H1051 C1048 0.929 . S
S1052 N1053 1.613 . S
S1052 N1054 1.610 . S
N1053 S1052 1.613 . S
N1053 C1056 1.350 . S
N1054 S1052 1.610 . S
N1054 C1055 1.351 . S
C1055 C1049 1.428 . S
C1055 N1054 1.351 . S
C1055 C1056 1.434 . S
C1056 C1047 1.429 . S
C1056 N1053 1.350 . S
C1056 C1055 1.434 . S
C1057 C1058 1.369 . S
C1057 C1059 1.419 . S
C1057 H1061 0.930 . S
C1058 C1057 1.369 . S
C1058 C1067 1.429 . S
C1059 C1057 1.419 . S
C1059 C1060 1.363 . S
C1059 H1062 0.929 . S
C1060 C1059 1.363 . S
C1060 C1066 1.428 . S
H1061 C1057 0.930 . S
H1062 C1059 0.929 . S
S1063 N1064 1.613 . S
S1063 N1065 1.610 . S
N1064 S1063 1.613 . S
N1064 C1067 1.350 . S
N1065 S1063 1.610 . S
N1065 C1066 1.351 . S
C1066 C1060 1.428 . S
C1066 N1065 1.351 . S
C1066 C1067 1.434 . S
C1067 C1058 1.429 . S
C1067 N1064 1.350 . S
C1067 C1066 1.434 . S
C1068 C1069 1.369 . S
C1068 C1070 1.419 . S
C1068 H1072 0.930 . S
C1069 C1068 1.369 . S
C1069 C1078 1.429 . S
C1070 C1068 1.419 . S
C1070 C1071 1.363 . S
C1070 H1073 0.929 . S
C1071 C1070 1.363 . S
C1071 C1077 1.428 . S
H1072 C1068 0.930 . S
H1073 C1070 0.929 . S
S1074 N1075 1.613 . S
S1074 N1076 1.610 . S
N1075 S1074 1.613 . S
N1075 C1078 1.350 . S
N1076 S1074 1.610 . S
N1076 C1077 1.351 . S
C1077 C1071 1.428 . S
C1077 N1076 1.351 . S
C1077 C1078 1.434 . S
C1078 C1069 1.429 . S
C1078 N1075 1.350 . S
C1078 C1077 1.434 . S
C1079 C1080 1.369 . S
C1079 C1081 1.419 . S
C1079 H1083 0.930 . S
C1080 C1079 1.369 . S
C1080 C1089 1.429 . S
C1081 C1079 1.419 . S
C1081 C1082 1.363 . S
C1081 H1084 0.929 . S
C1082 C1081 1.363 . S
C1082 C1088 1.428 . S
H1083 C1079 0.930 . S
H1084 C1081 0.929 . S
S1085 N1086 1.613 . S
S1085 N1087 1.610 . S
N1086 S1085 1.613 . S
N1086 C1089 1.350 . S
N1087 S1085 1.610 . S
N1087 C1088 1.351 . S
C1088 C1082 1.428 . S
C1088 N1087 1.351 . S
C1088 C1089 1.434 . S
C1089 C1080 1.429 . S
C1089 N1086 1.350 . S
C1089 C1088 1.434 . S
C1090 C1091 1.369 . S
C1090 C1092 1.419 . S
C1090 H1094 0.930 . S
C1091 C1090 1.369 . S
C1091 C1100 1.429 . S
C1092 C1090 1.419 . S
C1092 C1093 1.363 . S
C1092 H1095 0.929 . S
C1093 C1092 1.363 . S
C1093 C1099 1.428 . S
H1094 C1090 0.930 . S
H1095 C1092 0.929 . S
S1096 N1097 1.613 . S
S1096 N1098 1.610 . S
N1097 S1096 1.613 . S
N1097 C1100 1.350 . S
N1098 S1096 1.610 . S
N1098 C1099 1.351 . S
C1099 C1093 1.428 . S
C1099 N1098 1.351 . S
C1099 C1100 1.434 . S
C1100 C1091 1.429 . S
C1100 N1097 1.350 . S
C1100 C1099 1.434 . S
C1101 C1102 1.369 . S
C1101 C1103 1.419 . S
C1101 H1105 0.930 . S
C1102 C1101 1.369 . S
C1102 C1111 1.429 . S
C1103 C1101 1.419 . S
C1103 C1104 1.363 . S
C1103 H1106 0.929 . S
C1104 C1103 1.363 . S
C1104 C1110 1.428 . S
H1105 C1101 0.930 . S
H1106 C1103 0.929 . S
S1107 N1108 1.613 . S
S1107 N1109 1.610 . S
N1108 S1107 1.613 . S
N1108 C1111 1.350 . S
N1109 S1107 1.610 . S
N1109 C1110 1.351 . S
C1110 C1104 1.428 . S
C1110 N1109 1.351 . S
C1110 C1111 1.434 . S
C1111 C1102 1.429 . S
C1111 N1108 1.350 . S
C1111 C1110 1.434 . S
C1112 C1113 1.369 . S
C1112 C1114 1.419 . S
C1112 H1116 0.930 . S
C1113 C1112 1.369 . S
C1113 C1122 1.429 . S
C1114 C1112 1.419 . S
C1114 C1115 1.363 . S
C1114 H1117 0.929 . S
C1115 C1114 1.363 . S
C1115 C1121 1.428 . S
H1116 C1112 0.930 . S
H1117 C1114 0.929 . S
S1118 N1119 1.613 . S
S1118 N1120 1.610 . S
N1119 S1118 1.613 . S
N1119 C1122 1.350 . S
N1120 S1118 1.610 . S
N1120 C1121 1.351 . S
C1121 C1115 1.428 . S
C1121 N1120 1.351 . S
C1121 C1122 1.434 . S
C1122 C1113 1.429 . S
C1122 N1119 1.350 . S
C1122 C1121 1.434 . S
C1123 C1124 1.369 . S
C1123 C1125 1.419 . S
C1123 H1127 0.930 . S
C1124 C1123 1.369 . S
C1124 C1133 1.429 . S
C1125 C1123 1.419 . S
C1125 C1126 1.363 . S
C1125 H1128 0.929 . S
C1126 C1125 1.363 . S
C1126 C1132 1.428 . S
H1127 C1123 0.930 . S
H1128 C1125 0.929 . S
S1129 N1130 1.613 . S
S1129 N1131 1.610 . S
N1130 S1129 1.613 . S
N1130 C1133 1.350 . S
N1131 S1129 1.610 . S
N1131 C1132 1.351 . S
C1132 C1126 1.428 . S
C1132 N1131 1.351 . S
C1132 C1133 1.434 . S
C1133 C1124 1.429 . S
C1133 N1130 1.350 . S
C1133 C1132 1.434 . S
C1134 C1135 1.369 . S
C1134 C1136 1.419 . S
C1134 H1138 0.930 . S
C1135 C1134 1.369 . S
C1135 C1144 1.429 . S
C1136 C1134 1.419 . S
C1136 C1137 1.363 . S
C1136 H1139 0.929 . S
C1137 C1136 1.363 . S
C1137 C1143 1.428 . S
H1138 C1134 0.930 . S
H1139 C1136 0.929 . S
S1140 N1141 1.613 . S
S1140 N1142 1.610 . S
N1141 S1140 1.613 . S
N1141 C1144 1.350 . S
N1142 S1140 1.610 . S
N1142 C1143 1.351 . S
C1143 C1137 1.428 . S
C1143 N1142 1.351 . S
C1143 C1144 1.434 . S
C1144 C1135 1.429 . S
C1144 N1141 1.350 . S
C1144 C1143 1.434 . S
C1145 C1146 1.369 . S
C1145 C1147 1.419 . S
C1145 H1149 0.930 . S
C1146 C1145 1.369 . S
C1146 C1155 1.429 . S
C1147 C1145 1.419 . S
C1147 C1148 1.363 . S
C1147 H1150 0.929 . S
C1148 C1147 1.363 . S
C1148 C1154 1.428 . S
H1149 C1145 0.930 . S
H1150 C1147 0.929 . S
S1151 N1152 1.613 . S
S1151 N1153 1.610 . S
N1152 S1151 1.613 . S
N1152 C1155 1.350 . S
N1153 S1151 1.610 . S
N1153 C1154 1.351 . S
C1154 C1148 1.428 . S
C1154 N1153 1.351 . S
C1154 C1155 1.434 . S
C1155 C1146 1.429 . S
C1155 N1152 1.350 . S
C1155 C1154 1.434 . S
C1156 C1157 1.369 . S
C1156 C1158 1.419 . S
C1156 H1160 0.930 . S
C1157 C1156 1.369 . S
C1157 C1166 1.429 . S
C1158 C1156 1.419 . S
C1158 C1159 1.363 . S
C1158 H1161 0.929 . S
C1159 C1158 1.363 . S
C1159 C1165 1.428 . S
H1160 C1156 0.930 . S
H1161 C1158 0.929 . S
S1162 N1163 1.613 . S
S1162 N1164 1.610 . S
N1163 S1162 1.613 . S
N1163 C1166 1.350 . S
N1164 S1162 1.610 . S
N1164 C1165 1.351 . S
C1165 C1159 1.428 . S
C1165 N1164 1.351 . S
C1165 C1166 1.434 . S
C1166 C1157 1.429 . S
C1166 N1163 1.350 . S
C1166 C1165 1.434 . S
C1167 C1168 1.369 . S
C1167 C1169 1.419 . S
C1167 H1171 0.930 . S
C1168 C1167 1.369 . S
C1168 C1177 1.429 . S
C1169 C1167 1.419 . S
C1169 C1170 1.363 . S
C1169 H1172 0.929 . S
C1170 C1169 1.363 . S
C1170 C1176 1.428 . S
H1171 C1167 0.930 . S
H1172 C1169 0.929 . S
S1173 N1174 1.613 . S
S1173 N1175 1.610 . S
N1174 S1173 1.613 . S
N1174 C1177 1.350 . S
N1175 S1173 1.610 . S
N1175 C1176 1.351 . S
C1176 C1170 1.428 . S
C1176 N1175 1.351 . S
C1176 C1177 1.434 . S
C1177 C1168 1.429 . S
C1177 N1174 1.350 . S
C1177 C1176 1.434 . S
C1178 C1179 1.369 . S
C1178 C1180 1.419 . S
C1178 H1182 0.930 . S
C1179 C1178 1.369 . S
C1179 C1188 1.429 . S
C1180 C1178 1.419 . S
C1180 C1181 1.363 . S
C1180 H1183 0.929 . S
C1181 C1180 1.363 . S
C1181 C1187 1.428 . S
H1182 C1178 0.930 . S
H1183 C1180 0.929 . S
S1184 N1185 1.613 . S
S1184 N1186 1.610 . S
N1185 S1184 1.613 . S
N1185 C1188 1.350 . S
N1186 S1184 1.610 . S
N1186 C1187 1.351 . S
C1187 C1181 1.428 . S
C1187 N1186 1.351 . S
C1187 C1188 1.434 . S
C1188 C1179 1.429 . S
C1188 N1185 1.350 . S
C1188 C1187 1.434 . S
C1189 C1190 1.369 . S
C1189 C1191 1.419 . S
C1189 H1193 0.930 . S
C1190 C1189 1.369 . S
C1190 C1199 1.429 . S
C1191 C1189 1.419 . S
C1191 C1192 1.363 . S
C1191 H1194 0.929 . S
C1192 C1191 1.363 . S
C1192 C1198 1.428 . S
H1193 C1189 0.930 . S
H1194 C1191 0.929 . S
S1195 N1196 1.613 . S
S1195 N1197 1.610 . S
N1196 S1195 1.613 . S
N1196 C1199 1.350 . S
N1197 S1195 1.610 . S
N1197 C1198 1.351 . S
C1198 C1192 1.428 . S
C1198 N1197 1.351 . S
C1198 C1199 1.434 . S
C1199 C1190 1.429 . S
C1199 N1196 1.350 . S
C1199 C1198 1.434 . S
C1200 C1201 1.369 . S
C1200 C1202 1.419 . S
C1200 H1204 0.930 . S
C1201 C1200 1.369 . S
C1201 C1210 1.429 . S
C1202 C1200 1.419 . S
C1202 C1203 1.363 . S
C1202 H1205 0.929 . S
C1203 C1202 1.363 . S
C1203 C1209 1.428 . S
H1204 C1200 0.930 . S
H1205 C1202 0.929 . S
S1206 N1207 1.613 . S
S1206 N1208 1.610 . S
N1207 S1206 1.613 . S
N1207 C1210 1.350 . S
N1208 S1206 1.610 . S
N1208 C1209 1.351 . S
C1209 C1203 1.428 . S
C1209 N1208 1.351 . S
C1209 C1210 1.434 . S
C1210 C1201 1.429 . S
C1210 N1207 1.350 . S
C1210 C1209 1.434 . S
C1211 C1212 1.369 . S
C1211 C1213 1.419 . S
C1211 H1215 0.930 . S
C1212 C1211 1.369 . S
C1212 C1221 1.429 . S
C1213 C1211 1.419 . S
C1213 C1214 1.363 . S
C1213 H1216 0.929 . S
C1214 C1213 1.363 . S
C1214 C1220 1.428 . S
H1215 C1211 0.930 . S
H1216 C1213 0.929 . S
S1217 N1218 1.613 . S
S1217 N1219 1.610 . S
N1218 S1217 1.613 . S
N1218 C1221 1.350 . S
N1219 S1217 1.610 . S
N1219 C1220 1.351 . S
C1220 C1214 1.428 . S
C1220 N1219 1.351 . S
C1220 C1221 1.434 . S
C1221 C1212 1.429 . S
C1221 N1218 1.350 . S
C1221 C1220 1.434 . S
C1222 C1223 1.369 . S
C1222 C1224 1.419 . S
C1222 H1226 0.930 . S
C1223 C1222 1.369 . S
C1223 C1232 1.429 . S
C1224 C1222 1.419 . S
C1224 C1225 1.363 . S
C1224 H1227 0.929 . S
C1225 C1224 1.363 . S
C1225 C1231 1.428 . S
H1226 C1222 0.930 . S
H1227 C1224 0.929 . S
S1228 N1229 1.613 . S
S1228 N1230 1.610 . S
N1229 S1228 1.613 . S
N1229 C1232 1.350 . S
N1230 S1228 1.610 . S
N1230 C1231 1.351 . S
C1231 C1225 1.428 . S
C1231 N1230 1.351 . S
C1231 C1232 1.434 . S
C1232 C1223 1.429 . S
C1232 N1229 1.350 . S
C1232 C1231 1.434 . S
C1233 C1234 1.369 . S
C1233 C1235 1.419 . S
C1233 H1237 0.930 . S
C1234 C1233 1.369 . S
C1234 C1243 1.429 . S
C1235 C1233 1.419 . S
C1235 C1236 1.363 . S
C1235 H1238 0.929 . S
C1236 C1235 1.363 . S
C1236 C1242 1.428 . S
H1237 C1233 0.930 . S
H1238 C1235 0.929 . S
S1239 N1240 1.613 . S
S1239 N1241 1.610 . S
N1240 S1239 1.613 . S
N1240 C1243 1.350 . S
N1241 S1239 1.610 . S
N1241 C1242 1.351 . S
C1242 C1236 1.428 . S
C1242 N1241 1.351 . S
C1242 C1243 1.434 . S
C1243 C1234 1.429 . S
C1243 N1240 1.350 . S
C1243 C1242 1.434 . S
C1244 C1245 1.369 . S
C1244 C1246 1.419 . S
C1244 H1248 0.930 . S
C1245 C1244 1.369 . S
C1245 C1254 1.429 . S
C1246 C1244 1.419 . S
C1246 C1247 1.363 . S
C1246 H1249 0.929 . S
C1247 C1246 1.363 . S
C1247 C1253 1.428 . S
H1248 C1244 0.930 . S
H1249 C1246 0.929 . S
S1250 N1251 1.613 . S
S1250 N1252 1.610 . S
N1251 S1250 1.613 . S
N1251 C1254 1.350 . S
N1252 S1250 1.610 . S
N1252 C1253 1.351 . S
C1253 C1247 1.428 . S
C1253 N1252 1.351 . S
C1253 C1254 1.434 . S
C1254 C1245 1.429 . S
C1254 N1251 1.350 . S
C1254 C1253 1.434 . S
C1255 C1256 1.369 . S
C1255 C1257 1.419 . S
C1255 H1259 0.930 . S
C1256 C1255 1.369 . S
C1256 C1265 1.429 . S
C1257 C1255 1.419 . S
C1257 C1258 1.363 . S
C1257 H1260 0.929 . S
C1258 C1257 1.363 . S
C1258 C1264 1.428 . S
H1259 C1255 0.930 . S
H1260 C1257 0.929 . S
S1261 N1262 1.613 . S
S1261 N1263 1.610 . S
N1262 S1261 1.613 . S
N1262 C1265 1.350 . S
N1263 S1261 1.610 . S
N1263 C1264 1.351 . S
C1264 C1258 1.428 . S
C1264 N1263 1.351 . S
C1264 C1265 1.434 . S
C1265 C1256 1.429 . S
C1265 N1262 1.350 . S
C1265 C1264 1.434 . S
C1266 C1267 1.369 . S
C1266 C1268 1.419 . S
C1266 H1270 0.930 . S
C1267 C1266 1.369 . S
C1267 C1276 1.429 . S
C1268 C1266 1.419 . S
C1268 C1269 1.363 . S
C1268 H1271 0.929 . S
C1269 C1268 1.363 . S
C1269 C1275 1.428 . S
H1270 C1266 0.930 . S
H1271 C1268 0.929 . S
S1272 N1273 1.613 . S
S1272 N1274 1.610 . S
N1273 S1272 1.613 . S
N1273 C1276 1.350 . S
N1274 S1272 1.610 . S
N1274 C1275 1.351 . S
C1275 C1269 1.428 . S
C1275 N1274 1.351 . S
C1275 C1276 1.434 . S
C1276 C1267 1.429 . S
C1276 N1273 1.350 . S
C1276 C1275 1.434 . S
C1277 C1278 1.369 . S
C1277 C1279 1.419 . S
C1277 H1281 0.930 . S
C1278 C1277 1.369 . S
C1278 C1287 1.429 . S
C1279 C1277 1.419 . S
C1279 C1280 1.363 . S
C1279 H1282 0.929 . S
C1280 C1279 1.363 . S
C1280 C1286 1.428 . S
H1281 C1277 0.930 . S
H1282 C1279 0.929 . S
S1283 N1284 1.613 . S
S1283 N1285 1.610 . S
N1284 S1283 1.613 . S
N1284 C1287 1.350 . S
N1285 S1283 1.610 . S
N1285 C1286 1.351 . S
C1286 C1280 1.428 . S
C1286 N1285 1.351 . S
C1286 C1287 1.434 . S
C1287 C1278 1.429 . S
C1287 N1284 1.350 . S
C1287 C1286 1.434 . S
C1288 C1289 1.369 . S
C1288 C1290 1.419 . S
C1288 H1292 0.930 . S
C1289 C1288 1.369 . S
C1289 C1298 1.429 . S
C1290 C1288 1.419 . S
C1290 C1291 1.363 . S
C1290 H1293 0.929 . S
C1291 C1290 1.363 . S
C1291 C1297 1.428 . S
H1292 C1288 0.930 . S
H1293 C1290 0.929 . S
S1294 N1295 1.613 . S
S1294 N1296 1.610 . S
N1295 S1294 1.613 . S
N1295 C1298 1.350 . S
N1296 S1294 1.610 . S
N1296 C1297 1.351 . S
C1297 C1291 1.428 . S
C1297 N1296 1.351 . S
C1297 C1298 1.434 . S
C1298 C1289 1.429 . S
C1298 N1295 1.350 . S
C1298 C1297 1.434 . S
C1299 C1300 1.369 . S
C1299 C1301 1.419 . S
C1299 H1303 0.930 . S
C1300 C1299 1.369 . S
C1300 C1309 1.429 . S
C1301 C1299 1.419 . S
C1301 C1302 1.363 . S
C1301 H1304 0.929 . S
C1302 C1301 1.363 . S
C1302 C1308 1.428 . S
H1303 C1299 0.930 . S
H1304 C1301 0.929 . S
S1305 N1306 1.613 . S
S1305 N1307 1.610 . S
N1306 S1305 1.613 . S
N1306 C1309 1.350 . S
N1307 S1305 1.610 . S
N1307 C1308 1.351 . S
C1308 C1302 1.428 . S
C1308 N1307 1.351 . S
C1308 C1309 1.434 . S
C1309 C1300 1.429 . S
C1309 N1306 1.350 . S
C1309 C1308 1.434 . S
C1310 C1311 1.369 . S
C1310 C1312 1.419 . S
C1310 H1314 0.930 . S
C1311 C1310 1.369 . S
C1311 C1320 1.429 . S
C1312 C1310 1.419 . S
C1312 C1313 1.363 . S
C1312 H1315 0.929 . S
C1313 C1312 1.363 . S
C1313 C1319 1.428 . S
H1314 C1310 0.930 . S
H1315 C1312 0.929 . S
S1316 N1317 1.613 . S
S1316 N1318 1.610 . S
N1317 S1316 1.613 . S
N1317 C1320 1.350 . S
N1318 S1316 1.610 . S
N1318 C1319 1.351 . S
C1319 C1313 1.428 . S
C1319 N1318 1.351 . S
C1319 C1320 1.434 . S
C1320 C1311 1.429 . S
C1320 N1317 1.350 . S
C1320 C1319 1.434 . S
C1321 C1322 1.369 . S
C1321 C1323 1.419 . S
C1321 H1325 0.930 . S
C1322 C1321 1.369 . S
C1322 C1331 1.429 . S
C1323 C1321 1.419 . S
C1323 C1324 1.363 . S
C1323 H1326 0.929 . S
C1324 C1323 1.363 . S
C1324 C1330 1.428 . S
H1325 C1321 0.930 . S
H1326 C1323 0.929 . S
S1327 N1328 1.613 . S
S1327 N1329 1.610 . S
N1328 S1327 1.613 . S
N1328 C1331 1.350 . S
N1329 S1327 1.610 . S
N1329 C1330 1.351 . S
C1330 C1324 1.428 . S
C1330 N1329 1.351 . S
C1330 C1331 1.434 . S
C1331 C1322 1.429 . S
C1331 N1328 1.350 . S
C1331 C1330 1.434 . S
C1332 C1333 1.369 . S
C1332 C1334 1.419 . S
C1332 H1336 0.930 . S
C1333 C1332 1.369 . S
C1333 C1342 1.429 . S
C1334 C1332 1.419 . S
C1334 C1335 1.363 . S
C1334 H1337 0.929 . S
C1335 C1334 1.363 . S
C1335 C1341 1.428 . S
H1336 C1332 0.930 . S
H1337 C1334 0.929 . S
S1338 N1339 1.613 . S
S1338 N1340 1.610 . S
N1339 S1338 1.613 . S
N1339 C1342 1.350 . S
N1340 S1338 1.610 . S
N1340 C1341 1.351 . S
C1341 C1335 1.428 . S
C1341 N1340 1.351 . S
C1341 C1342 1.434 . S
C1342 C1333 1.429 . S
C1342 N1339 1.350 . S
C1342 C1341 1.434 . S
C1343 C1344 1.369 . S
C1343 C1345 1.419 . S
C1343 H1347 0.930 . S
C1344 C1343 1.369 . S
C1344 C1353 1.429 . S
C1345 C1343 1.419 . S
C1345 C1346 1.363 . S
C1345 H1348 0.929 . S
C1346 C1345 1.363 . S
C1346 C1352 1.428 . S
H1347 C1343 0.930 . S
H1348 C1345 0.929 . S
S1349 N1350 1.613 . S
S1349 N1351 1.610 . S
N1350 S1349 1.613 . S
N1350 C1353 1.350 . S
N1351 S1349 1.610 . S
N1351 C1352 1.351 . S
C1352 C1346 1.428 . S
C1352 N1351 1.351 . S
C1352 C1353 1.434 . S
C1353 C1344 1.429 . S
C1353 N1350 1.350 . S
C1353 C1352 1.434 . S
C1354 C1355 1.369 . S
C1354 C1356 1.419 . S
C1354 H1358 0.930 . S
C1355 C1354 1.369 . S
C1355 C1364 1.429 . S
C1356 C1354 1.419 . S
C1356 C1357 1.363 . S
C1356 H1359 0.929 . S
C1357 C1356 1.363 . S
C1357 C1363 1.428 . S
H1358 C1354 0.930 . S
H1359 C1356 0.929 . S
S1360 N1361 1.613 . S
S1360 N1362 1.610 . S
N1361 S1360 1.613 . S
N1361 C1364 1.350 . S
N1362 S1360 1.610 . S
N1362 C1363 1.351 . S
C1363 C1357 1.428 . S
C1363 N1362 1.351 . S
C1363 C1364 1.434 . S
C1364 C1355 1.429 . S
C1364 N1361 1.350 . S
C1364 C1363 1.434 . S
C1365 C1366 1.369 . S
C1365 C1367 1.419 . S
C1365 H1369 0.930 . S
C1366 C1365 1.369 . S
C1366 C1375 1.429 . S
C1367 C1365 1.419 . S
C1367 C1368 1.363 . S
C1367 H1370 0.929 . S
C1368 C1367 1.363 . S
C1368 C1374 1.428 . S
H1369 C1365 0.930 . S
H1370 C1367 0.929 . S
S1371 N1372 1.613 . S
S1371 N1373 1.610 . S
N1372 S1371 1.613 . S
N1372 C1375 1.350 . S
N1373 S1371 1.610 . S
N1373 C1374 1.351 . S
C1374 C1368 1.428 . S
C1374 N1373 1.351 . S
C1374 C1375 1.434 . S
C1375 C1366 1.429 . S
C1375 N1372 1.350 . S
C1375 C1374 1.434 . S
C1376 C1377 1.369 . S
C1376 C1378 1.419 . S
C1376 H1380 0.930 . S
C1377 C1376 1.369 . S
C1377 C1386 1.429 . S
C1378 C1376 1.419 . S
C1378 C1379 1.363 . S
C1378 H1381 0.929 . S
C1379 C1378 1.363 . S
C1379 C1385 1.428 . S
H1380 C1376 0.930 . S
H1381 C1378 0.929 . S
S1382 N1383 1.613 . S
S1382 N1384 1.610 . S
N1383 S1382 1.613 . S
N1383 C1386 1.350 . S
N1384 S1382 1.610 . S
N1384 C1385 1.351 . S
C1385 C1379 1.428 . S
C1385 N1384 1.351 . S
C1385 C1386 1.434 . S
C1386 C1377 1.429 . S
C1386 N1383 1.350 . S
C1386 C1385 1.434 . S
C1387 C1388 1.369 . S
C1387 C1389 1.419 . S
C1387 H1391 0.930 . S
C1388 C1387 1.369 . S
C1388 C1397 1.429 . S
C1389 C1387 1.419 . S
C1389 C1390 1.363 . S
C1389 H1392 0.929 . S
C1390 C1389 1.363 . S
C1390 C1396 1.428 . S
H1391 C1387 0.930 . S
H1392 C1389 0.929 . S
S1393 N1394 1.613 . S
S1393 N1395 1.610 . S
N1394 S1393 1.613 . S
N1394 C1397 1.350 . S
N1395 S1393 1.610 . S
N1395 C1396 1.351 . S
C1396 C1390 1.428 . S
C1396 N1395 1.351 . S
C1396 C1397 1.434 . S
C1397 C1388 1.429 . S
C1397 N1394 1.350 . S
C1397 C1396 1.434 . S
C1398 C1399 1.369 . S
C1398 C1400 1.419 . S
C1398 H1402 0.930 . S
C1399 C1398 1.369 . S
C1399 C1408 1.429 . S
C1400 C1398 1.419 . S
C1400 C1401 1.363 . S
C1400 H1403 0.929 . S
C1401 C1400 1.363 . S
C1401 C1407 1.428 . S
H1402 C1398 0.930 . S
H1403 C1400 0.929 . S
S1404 N1405 1.613 . S
S1404 N1406 1.610 . S
N1405 S1404 1.613 . S
N1405 C1408 1.350 . S
N1406 S1404 1.610 . S
N1406 C1407 1.351 . S
C1407 C1401 1.428 . S
C1407 N1406 1.351 . S
C1407 C1408 1.434 . S
C1408 C1399 1.429 . S
C1408 N1405 1.350 . S
C1408 C1407 1.434 . S
C1409 C1410 1.369 . S
C1409 C1411 1.419 . S
C1409 H1413 0.930 . S
C1410 C1409 1.369 . S
C1410 C1419 1.429 . S
C1411 C1409 1.419 . S
C1411 C1412 1.363 . S
C1411 H1414 0.929 . S
C1412 C1411 1.363 . S
C1412 C1418 1.428 . S
H1413 C1409 0.930 . S
H1414 C1411 0.929 . S
S1415 N1416 1.613 . S
S1415 N1417 1.610 . S
N1416 S1415 1.613 . S
N1416 C1419 1.350 . S
N1417 S1415 1.610 . S
N1417 C1418 1.351 . S
C1418 C1412 1.428 . S
C1418 N1417 1.351 . S
C1418 C1419 1.434 . S
C1419 C1410 1.429 . S
C1419 N1416 1.350 . S
C1419 C1418 1.434 . S
C1420 C1421 1.369 . S
C1420 C1422 1.419 . S
C1420 H1424 0.930 . S
C1421 C1420 1.369 . S
C1421 C1430 1.429 . S
C1422 C1420 1.419 . S
C1422 C1423 1.363 . S
C1422 H1425 0.929 . S
C1423 C1422 1.363 . S
C1423 C1429 1.428 . S
H1424 C1420 0.930 . S
H1425 C1422 0.929 . S
S1426 N1427 1.613 . S
S1426 N1428 1.610 . S
N1427 S1426 1.613 . S
N1427 C1430 1.350 . S
N1428 S1426 1.610 . S
N1428 C1429 1.351 . S
C1429 C1423 1.428 . S
C1429 N1428 1.351 . S
C1429 C1430 1.434 . S
C1430 C1421 1.429 . S
C1430 N1427 1.350 . S
C1430 C1429 1.434 . S
C1431 C1432 1.369 . S
C1431 C1433 1.419 . S
C1431 H1435 0.930 . S
C1432 C1431 1.369 . S
C1432 C1441 1.429 . S
C1433 C1431 1.419 . S
C1433 C1434 1.363 . S
C1433 H1436 0.929 . S
C1434 C1433 1.363 . S
C1434 C1440 1.428 . S
H1435 C1431 0.930 . S
H1436 C1433 0.929 . S
S1437 N1438 1.613 . S
S1437 N1439 1.610 . S
N1438 S1437 1.613 . S
N1438 C1441 1.350 . S
N1439 S1437 1.610 . S
N1439 C1440 1.351 . S
C1440 C1434 1.428 . S
C1440 N1439 1.351 . S
C1440 C1441 1.434 . S
C1441 C1432 1.429 . S
C1441 N1438 1.350 . S
C1441 C1440 1.434 . S
C1442 C1443 1.369 . S
C1442 C1444 1.419 . S
C1442 H1446 0.930 . S
C1443 C1442 1.369 . S
C1443 C1452 1.429 . S
C1444 C1442 1.419 . S
C1444 C1445 1.363 . S
C1444 H1447 0.929 . S
C1445 C1444 1.363 . S
C1445 C1451 1.428 . S
H1446 C1442 0.930 . S
H1447 C1444 0.929 . S
S1448 N1449 1.613 . S
S1448 N1450 1.610 . S
N1449 S1448 1.613 . S
N1449 C1452 1.350 . S
N1450 S1448 1.610 . S
N1450 C1451 1.351 . S
C1451 C1445 1.428 . S
C1451 N1450 1.351 . S
C1451 C1452 1.434 . S
C1452 C1443 1.429 . S
C1452 N1449 1.350 . S
C1452 C1451 1.434 . S
C1453 C1454 1.369 . S
C1453 C1455 1.419 . S
C1453 H1457 0.930 . S
C1454 C1453 1.369 . S
C1454 C1463 1.429 . S
C1455 C1453 1.419 . S
C1455 C1456 1.363 . S
C1455 H1458 0.929 . S
C1456 C1455 1.363 . S
C1456 C1462 1.428 . S
H1457 C1453 0.930 . S
H1458 C1455 0.929 . S
S1459 N1460 1.613 . S
S1459 N1461 1.610 . S
N1460 S1459 1.613 . S
N1460 C1463 1.350 . S
N1461 S1459 1.610 . S
N1461 C1462 1.351 . S
C1462 C1456 1.428 . S
C1462 N1461 1.351 . S
C1462 C1463 1.434 . S
C1463 C1454 1.429 . S
C1463 N1460 1.350 . S
C1463 C1462 1.434 . S
C1464 C1465 1.369 . S
C1464 C1466 1.419 . S
C1464 H1468 0.930 . S
C1465 C1464 1.369 . S
C1465 C1474 1.429 . S
C1466 C1464 1.419 . S
C1466 C1467 1.363 . S
C1466 H1469 0.929 . S
C1467 C1466 1.363 . S
C1467 C1473 1.428 . S
H1468 C1464 0.930 . S
H1469 C1466 0.929 . S
S1470 N1471 1.613 . S
S1470 N1472 1.610 . S
N1471 S1470 1.613 . S
N1471 C1474 1.350 . S
N1472 S1470 1.610 . S
N1472 C1473 1.351 . S
C1473 C1467 1.428 . S
C1473 N1472 1.351 . S
C1473 C1474 1.434 . S
C1474 C1465 1.429 . S
C1474 N1471 1.350 . S
C1474 C1473 1.434 . S
C1475 C1476 1.369 . S
C1475 C1477 1.419 . S
C1475 H1479 0.930 . S
C1476 C1475 1.369 . S
C1476 C1485 1.429 . S
C1477 C1475 1.419 . S
C1477 C1478 1.363 . S
C1477 H1480 0.929 . S
C1478 C1477 1.363 . S
C1478 C1484 1.428 . S
H1479 C1475 0.930 . S
H1480 C1477 0.929 . S
S1481 N1482 1.613 . S
S1481 N1483 1.610 . S
N1482 S1481 1.613 . S
N1482 C1485 1.350 . S
N1483 S1481 1.610 . S
N1483 C1484 1.351 . S
C1484 C1478 1.428 . S
C1484 N1483 1.351 . S
C1484 C1485 1.434 . S
C1485 C1476 1.429 . S
C1485 N1482 1.350 . S
C1485 C1484 1.434 . S
C1486 C1487 1.369 . S
C1486 C1488 1.419 . S
C1486 H1490 0.930 . S
C1487 C1486 1.369 . S
C1487 C1496 1.429 . S
C1488 C1486 1.419 . S
C1488 C1489 1.363 . S
C1488 H1491 0.929 . S
C1489 C1488 1.363 . S
C1489 C1495 1.428 . S
H1490 C1486 0.930 . S
H1491 C1488 0.929 . S
S1492 N1493 1.613 . S
S1492 N1494 1.610 . S
N1493 S1492 1.613 . S
N1493 C1496 1.350 . S
N1494 S1492 1.610 . S
N1494 C1495 1.351 . S
C1495 C1489 1.428 . S
C1495 N1494 1.351 . S
C1495 C1496 1.434 . S
C1496 C1487 1.429 . S
C1496 N1493 1.350 . S
C1496 C1495 1.434 . S
C1497 C1498 1.369 . S
C1497 C1499 1.419 . S
C1497 H1501 0.930 . S
C1498 C1497 1.369 . S
C1498 C1507 1.429 . S
C1499 C1497 1.419 . S
C1499 C1500 1.363 . S
C1499 H1502 0.929 . S
C1500 C1499 1.363 . S
C1500 C1506 1.428 . S
H1501 C1497 0.930 . S
H1502 C1499 0.929 . S
S1503 N1504 1.613 . S
S1503 N1505 1.610 . S
N1504 S1503 1.613 . S
N1504 C1507 1.350 . S
N1505 S1503 1.610 . S
N1505 C1506 1.351 . S
C1506 C1500 1.428 . S
C1506 N1505 1.351 . S
C1506 C1507 1.434 . S
C1507 C1498 1.429 . S
C1507 N1504 1.350 . S
C1507 C1506 1.434 . S
C1508 C1509 1.369 . S
C1508 C1510 1.419 . S
C1508 H1512 0.930 . S
C1509 C1508 1.369 . S
C1509 C1518 1.429 . S
C1510 C1508 1.419 . S
C1510 C1511 1.363 . S
C1510 H1513 0.929 . S
C1511 C1510 1.363 . S
C1511 C1517 1.428 . S
H1512 C1508 0.930 . S
H1513 C1510 0.929 . S
S1514 N1515 1.613 . S
S1514 N1516 1.610 . S
N1515 S1514 1.613 . S
N1515 C1518 1.350 . S
N1516 S1514 1.610 . S
N1516 C1517 1.351 . S
C1517 C1511 1.428 . S
C1517 N1516 1.351 . S
C1517 C1518 1.434 . S
C1518 C1509 1.429 . S
C1518 N1515 1.350 . S
C1518 C1517 1.434 . S
C1519 C1520 1.369 . S
C1519 C1521 1.419 . S
C1519 H1523 0.930 . S
C1520 C1519 1.369 . S
C1520 C1529 1.429 . S
C1521 C1519 1.419 . S
C1521 C1522 1.363 . S
C1521 H1524 0.929 . S
C1522 C1521 1.363 . S
C1522 C1528 1.428 . S
H1523 C1519 0.930 . S
H1524 C1521 0.929 . S
S1525 N1526 1.613 . S
S1525 N1527 1.610 . S
N1526 S1525 1.613 . S
N1526 C1529 1.350 . S
N1527 S1525 1.610 . S
N1527 C1528 1.351 . S
C1528 C1522 1.428 . S
C1528 N1527 1.351 . S
C1528 C1529 1.434 . S
C1529 C1520 1.429 . S
C1529 N1526 1.350 . S
C1529 C1528 1.434 . S
C1530 C1531 1.369 . S
C1530 C1532 1.419 . S
C1530 H1534 0.930 . S
C1531 C1530 1.369 . S
C1531 C1540 1.429 . S
C1532 C1530 1.419 . S
C1532 C1533 1.363 . S
C1532 H1535 0.929 . S
C1533 C1532 1.363 . S
C1533 C1539 1.428 . S
H1534 C1530 0.930 . S
H1535 C1532 0.929 . S
S1536 N1537 1.613 . S
S1536 N1538 1.610 . S
N1537 S1536 1.613 . S
N1537 C1540 1.350 . S
N1538 S1536 1.610 . S
N1538 C1539 1.351 . S
C1539 C1533 1.428 . S
C1539 N1538 1.351 . S
C1539 C1540 1.434 . S
C1540 C1531 1.429 . S
C1540 N1537 1.350 . S
C1540 C1539 1.434 . S
C1541 C1542 1.369 . S
C1541 C1543 1.419 . S
C1541 H1545 0.930 . S
C1542 C1541 1.369 . S
C1542 C1551 1.429 . S
C1543 C1541 1.419 . S
C1543 C1544 1.363 . S
C1543 H1546 0.929 . S
C1544 C1543 1.363 . S
C1544 C1550 1.428 . S
H1545 C1541 0.930 . S
H1546 C1543 0.929 . S
S1547 N1548 1.613 . S
S1547 N1549 1.610 . S
N1548 S1547 1.613 . S
N1548 C1551 1.350 . S
N1549 S1547 1.610 . S
N1549 C1550 1.351 . S
C1550 C1544 1.428 . S
C1550 N1549 1.351 . S
C1550 C1551 1.434 . S
C1551 C1542 1.429 . S
C1551 N1548 1.350 . S
C1551 C1550 1.434 . S
C1552 C1553 1.369 . S
C1552 C1554 1.419 . S
C1552 H1556 0.930 . S
C1553 C1552 1.369 . S
C1553 C1562 1.429 . S
C1554 C1552 1.419 . S
C1554 C1555 1.363 . S
C1554 H1557 0.929 . S
C1555 C1554 1.363 . S
C1555 C1561 1.428 . S
H1556 C1552 0.930 . S
H1557 C1554 0.929 . S
S1558 N1559 1.613 . S
S1558 N1560 1.610 . S
N1559 S1558 1.613 . S
N1559 C1562 1.350 . S
N1560 S1558 1.610 . S
N1560 C1561 1.351 . S
C1561 C1555 1.428 . S
C1561 N1560 1.351 . S
C1561 C1562 1.434 . S
C1562 C1553 1.429 . S
C1562 N1559 1.350 . S
C1562 C1561 1.434 . S
C1563 C1564 1.369 . S
C1563 C1565 1.419 . S
C1563 H1567 0.930 . S
C1564 C1563 1.369 . S
C1564 C1573 1.429 . S
C1565 C1563 1.419 . S
C1565 C1566 1.363 . S
C1565 H1568 0.929 . S
C1566 C1565 1.363 . S
C1566 C1572 1.428 . S
H1567 C1563 0.930 . S
H1568 C1565 0.929 . S
S1569 N1570 1.613 . S
S1569 N1571 1.610 . S
N1570 S1569 1.613 . S
N1570 C1573 1.350 . S
N1571 S1569 1.610 . S
N1571 C1572 1.351 . S
C1572 C1566 1.428 . S
C1572 N1571 1.351 . S
C1572 C1573 1.434 . S
C1573 C1564 1.429 . S
C1573 N1570 1.350 . S
C1573 C1572 1.434 . S
C1574 C1575 1.369 . S
C1574 C1576 1.419 . S
C1574 H1578 0.930 . S
C1575 C1574 1.369 . S
C1575 C1584 1.429 . S
C1576 C1574 1.419 . S
C1576 C1577 1.363 . S
C1576 H1579 0.929 . S
C1577 C1576 1.363 . S
C1577 C1583 1.428 . S
H1578 C1574 0.930 . S
H1579 C1576 0.929 . S
S1580 N1581 1.613 . S
S1580 N1582 1.610 . S
N1581 S1580 1.613 . S
N1581 C1584 1.350 . S
N1582 S1580 1.610 . S
N1582 C1583 1.351 . S
C1583 C1577 1.428 . S
C1583 N1582 1.351 . S
C1583 C1584 1.434 . S
C1584 C1575 1.429 . S
C1584 N1581 1.350 . S
C1584 C1583 1.434 . S
C1585 C1586 1.369 . S
C1585 C1587 1.419 . S
C1585 H1589 0.930 . S
C1586 C1585 1.369 . S
C1586 C1595 1.429 . S
C1587 C1585 1.419 . S
C1587 C1588 1.363 . S
C1587 H1590 0.929 . S
C1588 C1587 1.363 . S
C1588 C1594 1.428 . S
H1589 C1585 0.930 . S
H1590 C1587 0.929 . S
S1591 N1592 1.613 . S
S1591 N1593 1.610 . S
N1592 S1591 1.613 . S
N1592 C1595 1.350 . S
N1593 S1591 1.610 . S
N1593 C1594 1.351 . S
C1594 C1588 1.428 . S
C1594 N1593 1.351 . S
C1594 C1595 1.434 . S
C1595 C1586 1.429 . S
C1595 N1592 1.350 . S
C1595 C1594 1.434 . S
C1596 C1597 1.369 . S
C1596 C1598 1.419 . S
C1596 H1600 0.930 . S
C1597 C1596 1.369 . S
C1597 C1606 1.429 . S
C1598 C1596 1.419 . S
C1598 C1599 1.363 . S
C1598 H1601 0.929 . S
C1599 C1598 1.363 . S
C1599 C1605 1.428 . S
H1600 C1596 0.930 . S
H1601 C1598 0.929 . S
S1602 N1603 1.613 . S
S1602 N1604 1.610 . S
N1603 S1602 1.613 . S
N1603 C1606 1.350 . S
N1604 S1602 1.610 . S
N1604 C1605 1.351 . S
C1605 C1599 1.428 . S
C1605 N1604 1.351 . S
C1605 C1606 1.434 . S
C1606 C1597 1.429 . S
C1606 N1603 1.350 . S
C1606 C1605 1.434 . S
C1607 C1608 1.369 . S
C1607 C1609 1.419 . S
C1607 H1611 0.930 . S
C1608 C1607 1.369 . S
C1608 C1617 1.429 . S
C1609 C1607 1.419 . S
C1609 C1610 1.363 . S
C1609 H1612 0.929 . S
C1610 C1609 1.363 . S
C1610 C1616 1.428 . S
H1611 C1607 0.930 . S
H1612 C1609 0.929 . S
S1613 N1614 1.613 . S
S1613 N1615 1.610 . S
N1614 S1613 1.613 . S
N1614 C1617 1.350 . S
N1615 S1613 1.610 . S
N1615 C1616 1.351 . S
C1616 C1610 1.428 . S
C1616 N1615 1.351 . S
C1616 C1617 1.434 . S
C1617 C1608 1.429 . S
C1617 N1614 1.350 . S
C1617 C1616 1.434 . S
C1618 C1619 1.369 . S
C1618 C1620 1.419 . S
C1618 H1622 0.930 . S
C1619 C1618 1.369 . S
C1619 C1628 1.429 . S
C1620 C1618 1.419 . S
C1620 C1621 1.363 . S
C1620 H1623 0.929 . S
C1621 C1620 1.363 . S
C1621 C1627 1.428 . S
H1622 C1618 0.930 . S
H1623 C1620 0.929 . S
S1624 N1625 1.613 . S
S1624 N1626 1.610 . S
N1625 S1624 1.613 . S
N1625 C1628 1.350 . S
N1626 S1624 1.610 . S
N1626 C1627 1.351 . S
C1627 C1621 1.428 . S
C1627 N1626 1.351 . S
C1627 C1628 1.434 . S
C1628 C1619 1.429 . S
C1628 N1625 1.350 . S
C1628 C1627 1.434 . S
C1629 C1630 1.369 . S
C1629 C1631 1.419 . S
C1629 H1633 0.930 . S
C1630 C1629 1.369 . S
C1630 C1639 1.429 . S
C1631 C1629 1.419 . S
C1631 C1632 1.363 . S
C1631 H1634 0.929 . S
C1632 C1631 1.363 . S
C1632 C1638 1.428 . S
H1633 C1629 0.930 . S
H1634 C1631 0.929 . S
S1635 N1636 1.613 . S
S1635 N1637 1.610 . S
N1636 S1635 1.613 . S
N1636 C1639 1.350 . S
N1637 S1635 1.610 . S
N1637 C1638 1.351 . S
C1638 C1632 1.428 . S
C1638 N1637 1.351 . S
C1638 C1639 1.434 . S
C1639 C1630 1.429 . S
C1639 N1636 1.350 . S
C1639 C1638 1.434 . S
C1640 C1641 1.369 . S
C1640 C1642 1.419 . S
C1640 H1644 0.930 . S
C1641 C1640 1.369 . S
C1641 C1650 1.429 . S
C1642 C1640 1.419 . S
C1642 C1643 1.363 . S
C1642 H1645 0.929 . S
C1643 C1642 1.363 . S
C1643 C1649 1.428 . S
H1644 C1640 0.930 . S
H1645 C1642 0.929 . S
S1646 N1647 1.613 . S
S1646 N1648 1.610 . S
N1647 S1646 1.613 . S
N1647 C1650 1.350 . S
N1648 S1646 1.610 . S
N1648 C1649 1.351 . S
C1649 C1643 1.428 . S
C1649 N1648 1.351 . S
C1649 C1650 1.434 . S
C1650 C1641 1.429 . S
C1650 N1647 1.350 . S
C1650 C1649 1.434 . S
C1651 C1652 1.369 . S
C1651 C1653 1.419 . S
C1651 H1655 0.930 . S
C1652 C1651 1.369 . S
C1652 C1661 1.429 . S
C1653 C1651 1.419 . S
C1653 C1654 1.363 . S
C1653 H1656 0.929 . S
C1654 C1653 1.363 . S
C1654 C1660 1.428 . S
H1655 C1651 0.930 . S
H1656 C1653 0.929 . S
S1657 N1658 1.613 . S
S1657 N1659 1.610 . S
N1658 S1657 1.613 . S
N1658 C1661 1.350 . S
N1659 S1657 1.610 . S
N1659 C1660 1.351 . S
C1660 C1654 1.428 . S
C1660 N1659 1.351 . S
C1660 C1661 1.434 . S
C1661 C1652 1.429 . S
C1661 N1658 1.350 . S
C1661 C1660 1.434 . S
C1662 C1663 1.369 . S
C1662 C1664 1.419 . S
C1662 H1666 0.930 . S
C1663 C1662 1.369 . S
C1663 C1672 1.429 . S
C1664 C1662 1.419 . S
C1664 C1665 1.363 . S
C1664 H1667 0.929 . S
C1665 C1664 1.363 . S
C1665 C1671 1.428 . S
H1666 C1662 0.930 . S
H1667 C1664 0.929 . S
S1668 N1669 1.613 . S
S1668 N1670 1.610 . S
N1669 S1668 1.613 . S
N1669 C1672 1.350 . S
N1670 S1668 1.610 . S
N1670 C1671 1.351 . S
C1671 C1665 1.428 . S
C1671 N1670 1.351 . S
C1671 C1672 1.434 . S
C1672 C1663 1.429 . S
C1672 N1669 1.350 . S
C1672 C1671 1.434 . S
C1673 C1674 1.369 . S
C1673 C1675 1.419 . S
C1673 H1677 0.930 . S
C1674 C1673 1.369 . S
C1674 C1683 1.429 . S
C1675 C1673 1.419 . S
C1675 C1676 1.363 . S
C1675 H1678 0.929 . S
C1676 C1675 1.363 . S
C1676 C1682 1.428 . S
H1677 C1673 0.930 . S
H1678 C1675 0.929 . S
S1679 N1680 1.613 . S
S1679 N1681 1.610 . S
N1680 S1679 1.613 . S
N1680 C1683 1.350 . S
N1681 S1679 1.610 . S
N1681 C1682 1.351 . S
C1682 C1676 1.428 . S
C1682 N1681 1.351 . S
C1682 C1683 1.434 . S
C1683 C1674 1.429 . S
C1683 N1680 1.350 . S
C1683 C1682 1.434 . S
C1684 C1685 1.369 . S
C1684 C1686 1.419 . S
C1684 H1688 0.930 . S
C1685 C1684 1.369 . S
C1685 C1694 1.429 . S
C1686 C1684 1.419 . S
C1686 C1687 1.363 . S
C1686 H1689 0.929 . S
C1687 C1686 1.363 . S
C1687 C1693 1.428 . S
H1688 C1684 0.930 . S
H1689 C1686 0.929 . S
S1690 N1691 1.613 . S
S1690 N1692 1.610 . S
N1691 S1690 1.613 . S
N1691 C1694 1.350 . S
N1692 S1690 1.610 . S
N1692 C1693 1.351 . S
C1693 C1687 1.428 . S
C1693 N1692 1.351 . S
C1693 C1694 1.434 . S
C1694 C1685 1.429 . S
C1694 N1691 1.350 . S
C1694 C1693 1.434 . S
C1695 C1696 1.369 . S
C1695 C1697 1.419 . S
C1695 H1699 0.930 . S
C1696 C1695 1.369 . S
C1696 C1705 1.429 . S
C1697 C1695 1.419 . S
C1697 C1698 1.363 . S
C1697 H1700 0.929 . S
C1698 C1697 1.363 . S
C1698 C1704 1.428 . S
H1699 C1695 0.930 . S
H1700 C1697 0.929 . S
S1701 N1702 1.613 . S
S1701 N1703 1.610 . S
N1702 S1701 1.613 . S
N1702 C1705 1.350 . S
N1703 S1701 1.610 . S
N1703 C1704 1.351 . S
C1704 C1698 1.428 . S
C1704 N1703 1.351 . S
C1704 C1705 1.434 . S
C1705 C1696 1.429 . S
C1705 N1702 1.350 . S
C1705 C1704 1.434 . S
C1706 C1707 1.369 . S
C1706 C1708 1.419 . S
C1706 H1710 0.930 . S
C1707 C1706 1.369 . S
C1707 C1716 1.429 . S
C1708 C1706 1.419 . S
C1708 C1709 1.363 . S
C1708 H1711 0.929 . S
C1709 C1708 1.363 . S
C1709 C1715 1.428 . S
H1710 C1706 0.930 . S
H1711 C1708 0.929 . S
S1712 N1713 1.613 . S
S1712 N1714 1.610 . S
N1713 S1712 1.613 . S
N1713 C1716 1.350 . S
N1714 S1712 1.610 . S
N1714 C1715 1.351 . S
C1715 C1709 1.428 . S
C1715 N1714 1.351 . S
C1715 C1716 1.434 . S
C1716 C1707 1.429 . S
C1716 N1713 1.350 . S
C1716 C1715 1.434 . S
C1717 C1718 1.369 . S
C1717 C1719 1.419 . S
C1717 H1721 0.930 . S
C1718 C1717 1.369 . S
C1718 C1727 1.429 . S
C1719 C1717 1.419 . S
C1719 C1720 1.363 . S
C1719 H1722 0.929 . S
C1720 C1719 1.363 . S
C1720 C1726 1.428 . S
H1721 C1717 0.930 . S
H1722 C1719 0.929 . S
S1723 N1724 1.613 . S
S1723 N1725 1.610 . S
N1724 S1723 1.613 . S
N1724 C1727 1.350 . S
N1725 S1723 1.610 . S
N1725 C1726 1.351 . S
C1726 C1720 1.428 . S
C1726 N1725 1.351 . S
C1726 C1727 1.434 . S
C1727 C1718 1.429 . S
C1727 N1724 1.350 . S
C1727 C1726 1.434 . S
C673 C403 1.195 . S
C675 C11 1.195 . S
C684 C25 1.196 . S
C686 C417 1.196 . S
C695 C431 1.196 . S
C697 C39 1.196 . S
C706 C53 1.195 . S
C708 C445 1.195 . S
C717 C347 1.197 . S
C719 C67 1.196 . S
C728 C81 1.196 . S
C730 C361 1.196 . S
C739 C375 1.195 . S
C741 C95 1.195 . S
C750 C109 1.196 . S
C752 C389 1.196 . S
C761 C543 1.195 . S
C763 C123 1.195 . S
C772 C557 1.197 . S
C774 C137 1.196 . S
C783 C515 1.197 . S
C785 C151 1.197 . S
C794 C165 1.195 . S
C796 C529 1.196 . S
C805 C487 1.195 . S
C807 C179 1.195 . S
C816 C501 1.195 . S
C818 C193 1.195 . S
C827 C207 1.197 . S
C829 C459 1.197 . S
C838 C473 1.195 . S
C840 C221 1.195 . S
C849 C235 1.196 . S
C851 C641 1.196 . S
C860 C613 1.196 . S
C862 C249 1.196 . S
C871 C627 1.195 . S
C873 C263 1.195 . S
C882 C585 1.196 . S
C884 C277 1.196 . S
C893 C599 1.195 . S
C895 C291 1.195 . S
C904 C305 1.196 . S
C906 C571 1.196 . S
C915 C319 1.195 . S
C917 C669 1.195 . S
C926 C655 1.195 . S
C928 C333 1.195 . S
C937 C107 1.551 . S
C939 C9 1.555 . S
C948 C65 1.556 . S
C950 C23 1.558 . S
C959 C79 1.559 . S
C961 C37 1.554 . S
C970 C93 1.558 . S
C972 C51 1.556 . S
C981 C289 1.558 . S
C983 C121 1.556 . S
C992 C247 1.559 . S
C994 C135 1.555 . S
C1003 C261 1.554 . S
C1005 C149 1.552 . S
C1014 C275 1.551 . S
C1016 C163 1.555 . S
C1025 C331 1.557 . S
C1027 C177 1.552 . S
C1036 C303 1.556 . S
C1038 C191 1.557 . S
C1047 C205 1.551 . S
C1049 C317 1.556 . S
C1058 C233 1.558 . S
C1060 C219 1.556 . S
C1069 C443 1.553 . S
C1071 C345 1.553 . S
C1080 C401 1.556 . S
C1082 C359 1.552 . S
C1091 C373 1.559 . S
C1093 C415 1.554 . S
C1102 C387 1.558 . S
C1104 C429 1.556 . S
C1113 C457 1.556 . S
C1115 C625 1.552 . S
C1124 C471 1.557 . S
C1126 C583 1.552 . S
C1135 C597 1.558 . S
C1137 C485 1.556 . S
C1146 C611 1.551 . S
C1148 C499 1.555 . S
C1157 C667 1.555 . S
C1159 C513 1.552 . S
C1168 C639 1.558 . S
C1170 C527 1.555 . S
C1179 C653 1.558 . S
C1181 C541 1.556 . S
C1190 C555 1.553 . S
C1192 C569 1.558 . S
C1201 C0 1.294 . S
C1203 C117 1.290 . S
C1212 C131 1.285 . S
C1214 C14 1.288 . S
C1223 C145 1.282 . S
C1225 C28 1.288 . S
C1234 C159 1.287 . S
C1236 C42 1.296 . S
C1245 C56 1.294 . S
C1247 C173 1.282 . S
C1256 C187 1.292 . S
C1258 C70 1.292 . S
C1267 C84 1.292 . S
C1269 C201 1.290 . S
C1278 C215 1.288 . S
C1280 C98 1.296 . S
C1289 C229 1.289 . S
C1291 C112 1.289 . S
C1300 C327 1.284 . S
C1302 C126 1.296 . S
C1311 C140 1.291 . S
C1313 C299 1.290 . S
C1322 C154 1.292 . S
C1324 C313 1.290 . S
C1333 C168 1.295 . S
C1335 C243 1.290 . S
C1344 C182 1.289 . S
C1346 C257 1.282 . S
C1355 C196 1.289 . S
C1357 C271 1.282 . S
C1366 C210 1.293 . S
C1368 C285 1.282 . S
C1377 C224 1.294 . S
C1379 C5 1.282 . S
C1388 C238 1.287 . S
C1390 C61 1.283 . S
C1399 C252 1.297 . S
C1401 C75 1.289 . S
C1410 C266 1.297 . S
C1412 C89 1.285 . S
C1421 C280 1.297 . S
C1423 C103 1.285 . S
C1432 C294 1.287 . S
C1434 C33 1.286 . S
C1443 C47 1.285 . S
C1445 C308 1.296 . S
C1454 C19 1.289 . S
C1456 C322 1.289 . S
C1465 C453 1.283 . S
C1467 C336 1.288 . S
C1476 C467 1.281 . S
C1478 C350 1.288 . S
C1487 C481 1.280 . S
C1489 C364 1.291 . S
C1498 C495 1.291 . S
C1500 C378 1.296 . S
C1509 C509 1.280 . S
C1511 C392 1.291 . S
C1520 C406 1.289 . S
C1522 C523 1.288 . S
C1531 C537 1.281 . S
C1533 C420 1.293 . S
C1542 C434 1.293 . S
C1544 C551 1.282 . S
C1553 C565 1.285 . S
C1555 C448 1.288 . S
C1564 C462 1.286 . S
C1566 C663 1.284 . S
C1575 C476 1.296 . S
C1577 C635 1.290 . S
C1586 C649 1.282 . S
C1588 C490 1.288 . S
C1597 C579 1.280 . S
C1599 C504 1.289 . S
C1608 C518 1.296 . S
C1610 C593 1.290 . S
C1619 C532 1.287 . S
C1621 C607 1.285 . S
C1630 C621 1.285 . S
C1632 C546 1.288 . S
C1641 C341 1.284 . S
C1643 C560 1.288 . S
C1652 C397 1.286 . S
C1654 C574 1.288 . S
C1663 C411 1.280 . S
C1665 C588 1.290 . S
C1674 C602 1.288 . S
C1676 C425 1.282 . S
C1685 C439 1.285 . S
C1687 C616 1.296 . S
C1696 C369 1.285 . S
C1698 C630 1.288 . S
C1707 C644 1.293 . S
C1709 C383 1.282 . S
C1718 C355 1.291 . S
C1720 C658 1.292 . S
