# Generated by pormake.
# Topology wiq, (6)-cn, num edge types: 1
# Building blocks:
#     Node 0, Type 0, BuildingBlock: OJICUG_clean_sbu_0, # of connection points: 6
#     Node 1, Type 0, BuildingBlock: OJICUG_clean_sbu_0, # of connection points: 6
#     Node 2, Type 0, BuildingBlock: OJICUG_clean_sbu_0, # of connection points: 6
#     Node 3, Type 0, BuildingBlock: OJICUG_clean_sbu_0, # of connection points: 6
#     Node 4, Type 0, BuildingBlock: OJICUG_clean_sbu_0, # of connection points: 6
#     Node 5, Type 0, BuildingBlock: OJICUG_clean_sbu_0, # of connection points: 6
#     Node 6, Type 0, BuildingBlock: OJICUG_clean_sbu_0, # of connection points: 6
#     Node 7, Type 0, BuildingBlock: OJICUG_clean_sbu_0, # of connection points: 6
#     Node 8, Type 0, BuildingBlock: OJICUG_clean_sbu_0, # of connection points: 6
#     Node 9, Type 0, BuildingBlock: OJICUG_clean_sbu_0, # of connection points: 6
#     Node 10, Type 0, BuildingBlock: OJICUG_clean_sbu_0, # of connection points: 6
#     Node 11, Type 0, BuildingBlock: OJICUG_clean_sbu_0, # of connection points: 6
#     Node 12, Type 0, BuildingBlock: OJICUG_clean_sbu_0, # of connection points: 6
#     Node 13, Type 0, BuildingBlock: OJICUG_clean_sbu_0, # of connection points: 6
#     Node 14, Type 0, BuildingBlock: OJICUG_clean_sbu_0, # of connection points: 6
#     Node 15, Type 0, BuildingBlock: OJICUG_clean_sbu_0, # of connection points: 6
#     Node 16, Type 0, BuildingBlock: OJICUG_clean_sbu_0, # of connection points: 6
#     Node 17, Type 0, BuildingBlock: OJICUG_clean_sbu_0, # of connection points: 6
#     Node 18, Type 0, BuildingBlock: OJICUG_clean_sbu_0, # of connection points: 6
#     Node 19, Type 0, BuildingBlock: OJICUG_clean_sbu_0, # of connection points: 6
#     Node 20, Type 0, BuildingBlock: OJICUG_clean_sbu_0, # of connection points: 6
#     Node 21, Type 0, BuildingBlock: OJICUG_clean_sbu_0, # of connection points: 6
#     Node 22, Type 0, BuildingBlock: OJICUG_clean_sbu_0, # of connection points: 6
#     Node 23, Type 0, BuildingBlock: OJICUG_clean_sbu_0, # of connection points: 6
#     Node 24, Type 0, BuildingBlock: OJICUG_clean_sbu_0, # of connection points: 6
#     Node 25, Type 0, BuildingBlock: OJICUG_clean_sbu_0, # of connection points: 6
#     Node 26, Type 0, BuildingBlock: OJICUG_clean_sbu_0, # of connection points: 6
#     Node 27, Type 0, BuildingBlock: OJICUG_clean_sbu_0, # of connection points: 6
#     Node 28, Type 0, BuildingBlock: OJICUG_clean_sbu_0, # of connection points: 6
#     Node 29, Type 0, BuildingBlock: OJICUG_clean_sbu_0, # of connection points: 6
#     Node 30, Type 0, BuildingBlock: OJICUG_clean_sbu_0, # of connection points: 6
#     Node 31, Type 0, BuildingBlock: OJICUG_clean_sbu_0, # of connection points: 6
#     Edge 32, Type (0, 0), None
#     Edge 33, Type (0, 0), None
#     Edge 34, Type (0, 0), None
#     Edge 35, Type (0, 0), None
#     Edge 36, Type (0, 0), None
#     Edge 37, Type (0, 0), None
#     Edge 38, Type (0, 0), None
#     Edge 39, Type (0, 0), None
#     Edge 40, Type (0, 0), None
#     Edge 41, Type (0, 0), None
#     Edge 42, Type (0, 0), None
#     Edge 43, Type (0, 0), None
#     Edge 44, Type (0, 0), None
#     Edge 45, Type (0, 0), None
#     Edge 46, Type (0, 0), None
#     Edge 47, Type (0, 0), None
#     Edge 48, Type (0, 0), None
#     Edge 49, Type (0, 0), None
#     Edge 50, Type (0, 0), None
#     Edge 51, Type (0, 0), None
#     Edge 52, Type (0, 0), None
#     Edge 53, Type (0, 0), None
#     Edge 54, Type (0, 0), None
#     Edge 55, Type (0, 0), None
#     Edge 56, Type (0, 0), None
#     Edge 57, Type (0, 0), None
#     Edge 58, Type (0, 0), None
#     Edge 59, Type (0, 0), None
#     Edge 60, Type (0, 0), None
#     Edge 61, Type (0, 0), None
#     Edge 62, Type (0, 0), None
#     Edge 63, Type (0, 0), None
#     Edge 64, Type (0, 0), None
#     Edge 65, Type (0, 0), None
#     Edge 66, Type (0, 0), None
#     Edge 67, Type (0, 0), None
#     Edge 68, Type (0, 0), None
#     Edge 69, Type (0, 0), None
#     Edge 70, Type (0, 0), None
#     Edge 71, Type (0, 0), None
#     Edge 72, Type (0, 0), None
#     Edge 73, Type (0, 0), None
#     Edge 74, Type (0, 0), None
#     Edge 75, Type (0, 0), None
#     Edge 76, Type (0, 0), None
#     Edge 77, Type (0, 0), None
#     Edge 78, Type (0, 0), None
#     Edge 79, Type (0, 0), None
#     Edge 80, Type (0, 0), None
#     Edge 81, Type (0, 0), None
#     Edge 82, Type (0, 0), None
#     Edge 83, Type (0, 0), None
#     Edge 84, Type (0, 0), None
#     Edge 85, Type (0, 0), None
#     Edge 86, Type (0, 0), None
#     Edge 87, Type (0, 0), None
#     Edge 88, Type (0, 0), None
#     Edge 89, Type (0, 0), None
#     Edge 90, Type (0, 0), None
#     Edge 91, Type (0, 0), None
#     Edge 92, Type (0, 0), None
#     Edge 93, Type (0, 0), None
#     Edge 94, Type (0, 0), None
#     Edge 95, Type (0, 0), None
#     Edge 96, Type (0, 0), None
#     Edge 97, Type (0, 0), None
#     Edge 98, Type (0, 0), None
#     Edge 99, Type (0, 0), None
#     Edge 100, Type (0, 0), None
#     Edge 101, Type (0, 0), None
#     Edge 102, Type (0, 0), None
#     Edge 103, Type (0, 0), None
#     Edge 104, Type (0, 0), None
#     Edge 105, Type (0, 0), None
#     Edge 106, Type (0, 0), None
#     Edge 107, Type (0, 0), None
#     Edge 108, Type (0, 0), None
#     Edge 109, Type (0, 0), None
#     Edge 110, Type (0, 0), None
#     Edge 111, Type (0, 0), None
#     Edge 112, Type (0, 0), None
#     Edge 113, Type (0, 0), None
#     Edge 114, Type (0, 0), None
#     Edge 115, Type (0, 0), None
#     Edge 116, Type (0, 0), None
#     Edge 117, Type (0, 0), None
#     Edge 118, Type (0, 0), None
#     Edge 119, Type (0, 0), None
#     Edge 120, Type (0, 0), None
#     Edge 121, Type (0, 0), None
#     Edge 122, Type (0, 0), None
#     Edge 123, Type (0, 0), None
#     Edge 124, Type (0, 0), None
#     Edge 125, Type (0, 0), None
#     Edge 126, Type (0, 0), None
#     Edge 127, Type (0, 0), None
# Relax obj value: 0.240
# Max RMSD: 0.192
# Mean RMSD: 0.192
data_MOF--net-wiq--node1-OJICUG_clean_sbu_0--edge1-none
_symmetry_space_group_name_H-M    P1
_symmetry_Int_Tables_number       1
_symmetry_cell_setting            triclinic
loop_
_symmetry_equiv_pos_as_xyz
'x, y, z'
_cell_length_a     24.43697
_cell_length_b     24.437169
_cell_length_c     27.183457
_cell_angle_alpha  90.000084
_cell_angle_beta   89.999983
_cell_angle_gamma 89.999999
loop_
_atom_site_label
_atom_site_type_symbol
_atom_site_fract_x
_atom_site_fract_y
_atom_site_fract_z
_atom_type_partial_charge
Sc0 Sc 0.14357 0.23479 0.23585 0.0
Sc1 Sc 0.17894 0.14016 0.32366 0.0
Sc2 Sc 0.06848 0.11735 0.25206 0.0
O3 O 0.12821 0.16614 0.27241 0.0
C4 C 0.02624 0.23724 0.23225 0.0
C5 C 0.15797 0.26458 0.3518 0.0
C6 C 0.05516 0.10824 0.3623 0.0
C7 C 0.24797 0.22158 0.25288 0.0
C8 C 0.11501 0.14817 0.15294 0.0
C9 C 0.1569 0.03 0.26592 0.0
O10 O 0.06741 0.26186 0.24783 0.0
O11 O 0.15928 0.21396 0.36463 0.0
O12 O 0.03362 0.12553 0.32272 0.0
O13 O 0.21918 0.20363 0.21953 0.0
O14 O 0.10367 0.10881 0.18149 0.0
O15 O 0.19681 0.06244 0.27743 0.0
O16 O 0.1213 0.19751 0.16699 0.0
O17 O 0.24707 0.19469 0.29374 0.0
O18 O 0.10908 0.04497 0.27769 0.0
O19 O 0.16142 0.27935 0.30647 0.0
O20 O 0.02243 0.18577 0.22616 0.0
O21 O 0.10777 0.10053 0.3658 0.0
Sc22 Sc 0.13752 0.81849 0.50214 0.0
Sc23 Sc 0.11454 0.92897 0.57368 0.0
Sc24 Sc 0.01998 0.89341 0.4859 0.0
O25 O 0.08865 0.87818 0.52245 0.0
C26 C 0.10666 0.86489 0.40302 0.0
C27 C 0.22475 0.90699 0.516 0.0
C28 C 0.03307 0.99788 0.5028 0.0
C29 C 0.14651 0.80522 0.61237 0.0
C30 C 0.01771 0.7761 0.48234 0.0
C31 C 0.99014 0.90796 0.60182 0.0
O32 O 0.14606 0.85368 0.43158 0.0
O33 O 0.19225 0.94687 0.52744 0.0
O34 O 0.051 0.96905 0.46947 0.0
O35 O 0.12929 0.78365 0.57279 0.0
O36 O 0.99308 0.81722 0.49805 0.0
O37 O 0.04075 0.9093 0.61465 0.0
O38 O 0.06917 0.77235 0.4762 0.0
O39 O 0.15419 0.85784 0.61587 0.0
O40 O 0.97538 0.91136 0.55649 0.0
O41 O 0.20982 0.85918 0.52784 0.0
O42 O 0.0573 0.87107 0.41708 0.0
O43 O 0.05996 0.99702 0.54367 0.0
Sc44 Sc 0.43624 0.88736 0.75208 0.0
Sc45 Sc 0.32577 0.86455 0.82368 0.0
Sc46 Sc 0.36114 0.76992 0.73587 0.0
O47 O 0.3765 0.83856 0.77243 0.0
C48 C 0.3897 0.85654 0.65297 0.0
C49 C 0.34781 0.97471 0.76593 0.0
C50 C 0.25674 0.78313 0.75291 0.0
C51 C 0.44955 0.89646 0.86232 0.0
C52 C 0.47847 0.76746 0.73228 0.0
C53 C 0.34674 0.74014 0.85183 0.0
O54 O 0.40104 0.8959 0.68152 0.0
O55 O 0.30791 0.94227 0.77744 0.0
O56 O 0.28553 0.80108 0.71955 0.0
O57 O 0.47109 0.87917 0.82274 0.0
O58 O 0.4373 0.74284 0.74786 0.0
O59 O 0.34543 0.79075 0.86466 0.0
O60 O 0.48228 0.81893 0.72619 0.0
O61 O 0.39694 0.90418 0.86582 0.0
O62 O 0.34328 0.72536 0.8065 0.0
O63 O 0.39563 0.95974 0.77771 0.0
O64 O 0.38341 0.80719 0.66702 0.0
O65 O 0.25764 0.81003 0.79377 0.0
Sc66 Sc 0.36719 0.18621 1.00211 0.0
Sc67 Sc 0.39016 0.07573 0.07366 0.0
Sc68 Sc 0.48472 0.11128 0.98588 0.0
O69 O 0.41606 0.12652 0.02243 0.0
C70 C 0.39805 0.1398 0.903 0.0
C71 C 0.27996 0.09772 0.01597 0.0
C72 C 0.47164 0.00682 0.00279 0.0
C73 C 0.35819 0.19949 0.11234 0.0
C74 C 0.487 0.2286 0.98231 0.0
C75 C 0.51457 0.09674 0.1018 0.0
O76 O 0.35865 0.15102 0.93155 0.0
O77 O 0.31245 0.05783 0.02742 0.0
O78 O 0.45371 0.03564 0.96945 0.0
O79 O 0.37541 0.22106 0.07276 0.0
O80 O 0.51163 0.18748 0.99801 0.0
O81 O 0.46395 0.0954 0.11463 0.0
O82 O 0.43553 0.23235 0.97617 0.0
O83 O 0.35052 0.14687 0.11584 0.0
O84 O 0.52933 0.09335 0.05646 0.0
O85 O 0.29489 0.14552 0.02781 0.0
O86 O 0.44741 0.13361 0.91705 0.0
O87 O 0.44474 0.00768 0.04365 0.0
Sc88 Sc 0.14357 0.7699 0.26872 0.0
Sc89 Sc 0.17893 0.86454 0.18092 0.0
Sc90 Sc 0.06847 0.88735 0.25254 0.0
O91 O 0.12821 0.83856 0.23218 0.0
C92 C 0.02624 0.76746 0.27232 0.0
C93 C 0.15797 0.74013 0.15277 0.0
C94 C 0.05515 0.89647 0.1423 0.0
C95 C 0.24797 0.78312 0.2517 0.0
C96 C 0.11508 0.85651 0.35164 0.0
C97 C 0.1569 0.97471 0.23868 0.0
O98 O 0.0674 0.74284 0.25672 0.0
O99 O 0.15928 0.79075 0.13995 0.0
O100 O 0.03361 0.87919 0.18188 0.0
O101 O 0.21917 0.80106 0.28505 0.0
O102 O 0.10367 0.89588 0.32311 0.0
O103 O 0.1968 0.94226 0.22716 0.0
O104 O 0.12129 0.80716 0.33758 0.0
O105 O 0.24706 0.81002 0.21084 0.0
O106 O 0.10908 0.95973 0.22692 0.0
O107 O 0.16143 0.72535 0.19809 0.0
O108 O 0.02243 0.81893 0.27843 0.0
O109 O 0.10776 0.90417 0.13879 0.0
Sc110 Sc 0.48473 0.89341 0.51869 0.0
Sc111 Sc 0.39016 0.92896 0.43093 0.0
Sc112 Sc 0.36719 0.81848 0.50249 0.0
O113 O 0.41606 0.87818 0.48216 0.0
C114 C 0.487 0.7761 0.52227 0.0
C115 C 0.51456 0.90796 0.40277 0.0
C116 C 0.35818 0.8052 0.39226 0.0
C117 C 0.47164 0.99788 0.50179 0.0
C118 C 0.39807 0.86496 0.60158 0.0
C119 C 0.27996 0.90698 0.48863 0.0
O120 O 0.51163 0.81721 0.50655 0.0
O121 O 0.46394 0.9093 0.38994 0.0
O122 O 0.3754 0.78363 0.43184 0.0
O123 O 0.45372 0.96905 0.53513 0.0
O124 O 0.35867 0.85368 0.57305 0.0
O125 O 0.31245 0.94686 0.47717 0.0
O126 O 0.44743 0.87108 0.58752 0.0
O127 O 0.44474 0.99701 0.46093 0.0
O128 O 0.29488 0.85917 0.47679 0.0
O129 O 0.52932 0.91136 0.4481 0.0
O130 O 0.43554 0.77236 0.52843 0.0
O131 O 0.35051 0.85782 0.38875 0.0
Sc132 Sc 0.36114 0.23479 0.7687 0.0
Sc133 Sc 0.32578 0.14015 0.6809 0.0
Sc134 Sc 0.43624 0.11734 0.75252 0.0
O135 O 0.37651 0.16613 0.73216 0.0
C136 C 0.47847 0.23724 0.7723 0.0
C137 C 0.34673 0.26455 0.65274 0.0
C138 C 0.44956 0.10823 0.64228 0.0
C139 C 0.25674 0.22157 0.75168 0.0
C140 C 0.38963 0.14818 0.85161 0.0
C141 C 0.34781 0.02999 0.73867 0.0
O142 O 0.4373 0.26186 0.75669 0.0
O143 O 0.34543 0.21393 0.63992 0.0
O144 O 0.4711 0.12551 0.68186 0.0
O145 O 0.28554 0.20363 0.78503 0.0
O146 O 0.40104 0.10881 0.82309 0.0
O147 O 0.30791 0.06243 0.72715 0.0
O148 O 0.38342 0.19753 0.83755 0.0
O149 O 0.25765 0.19467 0.71082 0.0
O150 O 0.39564 0.04496 0.7269 0.0
O151 O 0.34327 0.27933 0.69806 0.0
O152 O 0.48228 0.18577 0.77841 0.0
O153 O 0.39695 0.10052 0.63877 0.0
Sc154 Sc 0.01998 0.11129 0.01867 0.0
Sc155 Sc 0.11455 0.07573 0.93091 0.0
Sc156 Sc 0.13752 0.18622 0.00246 0.0
O157 O 0.08865 0.12652 0.98213 0.0
C158 C 0.0177 0.2286 0.02223 0.0
C159 C 0.99015 0.09673 0.90275 0.0
C160 C 0.14652 0.19949 0.89223 0.0
C161 C 0.03306 0.00682 1.00178 0.0
C162 C 0.10664 0.13974 0.10156 0.0
C163 C 0.22475 0.09772 0.98861 0.0
O164 O 0.99308 0.18749 0.00651 0.0
O165 O 0.04076 0.0954 0.88992 0.0
O166 O 0.12931 0.22106 0.93181 0.0
O167 O 0.05099 0.03566 0.03512 0.0
O168 O 0.14604 0.15102 0.07303 0.0
O169 O 0.19225 0.05783 0.97715 0.0
O170 O 0.05727 0.13363 0.08749 0.0
O171 O 0.05996 0.00768 0.96092 0.0
O172 O 0.20982 0.14553 0.97676 0.0
O173 O 0.97538 0.09334 0.94808 0.0
O174 O 0.06917 0.23234 0.0284 0.0
O175 O 0.15419 0.14687 0.88873 0.0
Sc176 Sc 0.93623 0.88733 0.75253 0.0
Sc177 Sc 0.82577 0.86453 0.68092 0.0
Sc178 Sc 0.86111 0.76991 0.76875 0.0
O179 O 0.8765 0.83854 0.73218 0.0
C180 C 0.97846 0.76743 0.77233 0.0
C181 C 0.94955 0.89646 0.64229 0.0
C182 C 0.84675 0.74012 0.65278 0.0
C183 C 0.84781 0.9747 0.73867 0.0
C184 C 0.88967 0.85652 0.85165 0.0
C185 C 0.75675 0.78311 0.75169 0.0
O186 O 0.98227 0.8189 0.77841 0.0
O187 O 0.89694 0.90416 0.63879 0.0
O188 O 0.84328 0.72534 0.69811 0.0
O189 O 0.89563 0.95971 0.72691 0.0
O190 O 0.88337 0.80717 0.8376 0.0
O191 O 0.75764 0.80999 0.71082 0.0
O192 O 0.90104 0.89587 0.8231 0.0
O193 O 0.8079 0.94225 0.72715 0.0
O194 O 0.78551 0.80111 0.78504 0.0
O195 O 0.97109 0.87916 0.68186 0.0
O196 O 0.93727 0.74279 0.7568 0.0
O197 O 0.84543 0.79073 0.63996 0.0
Sc198 Sc 0.86716 0.18621 0.50242 0.0
Sc199 Sc 0.89017 0.07572 0.4309 0.0
Sc200 Sc 0.9847 0.1113 0.51868 0.0
O201 O 0.91604 0.12651 0.48212 0.0
C202 C 0.98696 0.22861 0.5222 0.0
C203 C 0.85817 0.19946 0.3922 0.0
C204 C 0.01456 0.09674 0.40276 0.0
C205 C 0.77995 0.09769 0.48857 0.0
C206 C 0.89802 0.13983 0.60155 0.0
C207 C 0.97164 0.00686 0.5018 0.0
O208 O 0.9355 0.23235 0.52836 0.0
O209 O 0.85051 0.14684 0.3887 0.0
O210 O 0.02932 0.09335 0.4481 0.0
O211 O 0.79487 0.1455 0.47671 0.0
O212 O 0.94738 0.13366 0.58749 0.0
O213 O 0.94478 0.00769 0.46092 0.0
O214 O 0.85862 0.15102 0.57299 0.0
O215 O 0.81246 0.05781 0.47715 0.0
O216 O 0.95369 0.03566 0.53515 0.0
O217 O 0.87539 0.22103 0.43178 0.0
O218 O 0.0116 0.1875 0.50651 0.0
O219 O 0.96395 0.09539 0.38992 0.0
Sc220 Sc 0.56847 0.11736 0.25251 0.0
Sc221 Sc 0.67893 0.14016 0.1809 0.0
Sc222 Sc 0.64359 0.23478 0.26872 0.0
O223 O 0.6282 0.16615 0.23215 0.0
C224 C 0.52625 0.23726 0.2723 0.0
C225 C 0.55516 0.10824 0.14227 0.0
C226 C 0.65796 0.26457 0.15275 0.0
C227 C 0.6569 0.02999 0.23866 0.0
C228 C 0.61503 0.14817 0.35162 0.0
C229 C 0.74795 0.22157 0.25166 0.0
O230 O 0.52243 0.18579 0.27838 0.0
O231 O 0.60777 0.10052 0.13877 0.0
O232 O 0.66142 0.27934 0.19808 0.0
O233 O 0.60907 0.04497 0.22689 0.0
O234 O 0.62133 0.19752 0.33758 0.0
O235 O 0.74706 0.1947 0.2108 0.0
O236 O 0.60367 0.10882 0.32307 0.0
O237 O 0.6968 0.06244 0.22714 0.0
O238 O 0.71919 0.20358 0.28502 0.0
O239 O 0.53361 0.12553 0.18184 0.0
O240 O 0.56744 0.2619 0.25676 0.0
O241 O 0.65927 0.21395 0.13993 0.0
Sc242 Sc 0.63755 0.81849 0.00245 0.0
Sc243 Sc 0.61454 0.92898 0.93092 0.0
Sc244 Sc 0.52001 0.8934 0.01871 0.0
O245 O 0.58867 0.87818 0.98215 0.0
C246 C 0.51774 0.77609 0.02224 0.0
C247 C 0.64654 0.80523 0.89223 0.0
C248 C 0.49015 0.90796 0.90279 0.0
C249 C 0.72476 0.90701 0.98859 0.0
C250 C 0.60669 0.86488 0.10158 0.0
C251 C 0.53307 0.99784 1.00181 0.0
O252 O 0.56921 0.77235 0.02839 0.0
O253 O 0.6542 0.85785 0.88873 0.0
O254 O 0.47539 0.91135 0.94812 0.0
O255 O 0.70984 0.8592 0.97674 0.0
O256 O 0.55733 0.87105 0.08752 0.0
O257 O 0.55993 0.99701 0.96092 0.0
O258 O 0.64609 0.85368 0.07302 0.0
O259 O 0.69225 0.94689 0.97716 0.0
O260 O 0.55102 0.96905 0.03516 0.0
O261 O 0.62932 0.78366 0.93181 0.0
O262 O 0.49311 0.81721 0.00655 0.0
O263 O 0.54076 0.9093 0.88995 0.0
Sc264 Sc 0.93623 0.11737 0.75203 0.0
Sc265 Sc 0.82578 0.14016 0.82366 0.0
Sc266 Sc 0.86111 0.2348 0.73584 0.0
O267 O 0.8765 0.16615 0.7724 0.0
C268 C 0.97846 0.23727 0.73226 0.0
C269 C 0.94956 0.10823 0.86227 0.0
C270 C 0.84675 0.26457 0.85181 0.0
C271 C 0.84781 0.03 0.76589 0.0
C272 C 0.88961 0.1482 0.65294 0.0
C273 C 0.75676 0.22158 0.75289 0.0
O274 O 0.98227 0.18581 0.72616 0.0
O275 O 0.89694 0.10053 0.86578 0.0
O276 O 0.84328 0.27935 0.80649 0.0
O277 O 0.89563 0.04498 0.77765 0.0
O278 O 0.88338 0.19755 0.66699 0.0
O279 O 0.75765 0.1947 0.79376 0.0
O280 O 0.90104 0.10884 0.68146 0.0
O281 O 0.80791 0.06244 0.77742 0.0
O282 O 0.78552 0.2036 0.71954 0.0
O283 O 0.9711 0.12552 0.8227 0.0
O284 O 0.93727 0.2619 0.74781 0.0
O285 O 0.84544 0.21395 0.86463 0.0
Sc286 Sc 0.52 0.1113 0.48589 0.0
Sc287 Sc 0.61455 0.07573 0.57366 0.0
Sc288 Sc 0.63755 0.18621 0.50211 0.0
O289 O 0.58867 0.12652 0.52243 0.0
C290 C 0.60667 0.13975 0.40301 0.0
C291 C 0.53307 0.00686 0.50277 0.0
C292 C 0.72476 0.09769 0.51597 0.0
C293 C 0.49016 0.09674 0.60181 0.0
C294 C 0.51774 0.22861 0.48235 0.0
C295 C 0.64655 0.19948 0.61234 0.0
O296 O 0.5573 0.13366 0.41707 0.0
O297 O 0.55994 0.0077 0.54365 0.0
O298 O 0.70984 0.14551 0.52781 0.0
O299 O 0.4754 0.09335 0.55647 0.0
O300 O 0.5692 0.23235 0.47618 0.0
O301 O 0.65421 0.14686 0.61584 0.0
O302 O 0.49311 0.1875 0.49806 0.0
O303 O 0.54077 0.0954 0.61464 0.0
O304 O 0.62933 0.22105 0.57276 0.0
O305 O 0.55101 0.03566 0.46942 0.0
O306 O 0.64607 0.15102 0.43154 0.0
O307 O 0.69225 0.05782 0.52741 0.0
Sc308 Sc 0.64359 0.76991 0.23587 0.0
Sc309 Sc 0.67893 0.86455 0.32368 0.0
Sc310 Sc 0.56847 0.88734 0.25206 0.0
O311 O 0.6282 0.83855 0.27242 0.0
C312 C 0.6151 0.85651 0.15296 0.0
C313 C 0.74795 0.78313 0.25292 0.0
C314 C 0.65689 0.97471 0.26591 0.0
C315 C 0.65796 0.74014 0.35184 0.0
C316 C 0.52625 0.76743 0.23229 0.0
C317 C 0.55515 0.89647 0.36229 0.0
O318 O 0.62133 0.80716 0.16702 0.0
O319 O 0.74706 0.81001 0.29378 0.0
O320 O 0.60907 0.95973 0.27767 0.0
O321 O 0.66143 0.72536 0.30651 0.0
O322 O 0.52244 0.8189 0.22618 0.0
O323 O 0.60776 0.90418 0.3658 0.0
O324 O 0.56743 0.7428 0.24784 0.0
O325 O 0.65927 0.79076 0.36466 0.0
O326 O 0.53361 0.87918 0.32272 0.0
O327 O 0.71919 0.80111 0.21956 0.0
O328 O 0.60367 0.89587 0.18149 0.0
O329 O 0.6968 0.94226 0.27743 0.0
Sc330 Sc 0.98471 0.89339 0.98591 0.0
Sc331 Sc 0.89016 0.92898 0.07368 0.0
Sc332 Sc 0.86716 0.81849 1.00214 0.0
O333 O 0.91604 0.87818 0.02246 0.0
C334 C 0.89804 0.86494 0.90304 0.0
C335 C 0.97164 0.99783 0.00278 0.0
C336 C 0.77995 0.90701 0.01599 0.0
C337 C 0.01455 0.90797 0.10183 0.0
C338 C 0.98697 0.77609 0.98239 0.0
C339 C 0.85816 0.80523 0.11237 0.0
O340 O 0.94741 0.87103 0.9171 0.0
O341 O 0.94478 0.997 0.04366 0.0
O342 O 0.79487 0.8592 0.02784 0.0
O343 O 0.02931 0.91136 0.05649 0.0
O344 O 0.9355 0.77235 0.97621 0.0
O345 O 0.8505 0.85785 0.11587 0.0
O346 O 0.01159 0.8172 0.9981 0.0
O347 O 0.96394 0.9093 0.11466 0.0
O348 O 0.87538 0.78366 0.07279 0.0
O349 O 0.9537 0.96903 0.96943 0.0
O350 O 0.85863 0.85368 0.93157 0.0
O351 O 0.81246 0.94689 0.02743 0.0
Sc352 Sc 0.64333 0.73478 0.73586 0.0
Sc353 Sc 0.67896 0.64022 0.82361 0.0
Sc354 Sc 0.56843 0.61724 0.75212 0.0
O355 O 0.62814 0.66611 0.77241 0.0
C356 C 0.52606 0.73706 0.7323 0.0
C357 C 0.65801 0.76464 0.85175 0.0
C358 C 0.55522 0.60822 0.86235 0.0
C359 C 0.7478 0.72168 0.75267 0.0
C360 C 0.61481 0.64812 0.65301 0.0
C361 C 0.65694 0.52997 0.76596 0.0
O362 O 0.56715 0.76166 0.74809 0.0
O363 O 0.65934 0.71402 0.86458 0.0
O364 O 0.53363 0.62545 0.82278 0.0
O365 O 0.71896 0.70378 0.71933 0.0
O366 O 0.60362 0.60872 0.68156 0.0
O367 O 0.69682 0.56248 0.77738 0.0
O368 O 0.62093 0.69749 0.66707 0.0
O369 O 0.74698 0.6948 0.79354 0.0
O370 O 0.60912 0.54492 0.77779 0.0
O371 O 0.66135 0.7794 0.80641 0.0
O372 O 0.52228 0.68559 0.7262 0.0
O373 O 0.60785 0.60057 0.86583 0.0
Sc374 Sc 0.6373 0.31842 1.00204 0.0
Sc375 Sc 0.61449 0.42891 0.0736 0.0
Sc376 Sc 0.51985 0.39349 0.98582 0.0
O377 O 0.58851 0.37816 0.02237 0.0
C378 C 0.60645 0.36493 0.90294 0.0
C379 C 0.72469 0.40685 0.01588 0.0
C380 C 0.53306 0.49789 0.00277 0.0
C381 C 0.64643 0.30515 0.11228 0.0
C382 C 0.5174 0.27619 0.98221 0.0
C383 C 0.49006 0.40799 0.10174 0.0
O384 O 0.64582 0.35361 0.93148 0.0
O385 O 0.69224 0.44675 0.02738 0.0
O386 O 0.551 0.46908 0.96943 0.0
O387 O 0.62914 0.28359 0.07271 0.0
O388 O 0.4928 0.31733 0.99788 0.0
O389 O 0.54068 0.40931 0.11456 0.0
O390 O 0.56888 0.27235 0.97617 0.0
O391 O 0.65412 0.35777 0.11577 0.0
O392 O 0.47528 0.4114 0.05642 0.0
O393 O 0.7097 0.35902 0.02764 0.0
O394 O 0.5571 0.37116 0.91699 0.0
O395 O 0.55997 0.49702 0.04363 0.0
Sc396 Sc 0.93627 0.38746 0.2521 0.0
Sc397 Sc 0.82574 0.36447 0.32359 0.0
Sc398 Sc 0.86137 0.26991 0.23583 0.0
O399 O 0.87656 0.33858 0.27239 0.0
C400 C 0.8899 0.35657 0.15299 0.0
C401 C 0.84776 0.47472 0.26595 0.0
C402 C 0.7569 0.28301 0.25265 0.0
C403 C 0.94948 0.39648 0.36233 0.0
C404 C 0.97864 0.26764 0.23227 0.0
C405 C 0.8467 0.24005 0.35172 0.0
O406 O 0.90108 0.39598 0.18154 0.0
O407 O 0.80787 0.44222 0.27737 0.0
O408 O 0.78575 0.30091 0.21931 0.0
O409 O 0.97107 0.37924 0.32276 0.0
O410 O 0.93756 0.24303 0.24806 0.0
O411 O 0.84537 0.29066 0.36455 0.0
O412 O 0.98242 0.31911 0.22618 0.0
O413 O 0.89686 0.40412 0.36581 0.0
O414 O 0.84336 0.22529 0.30638 0.0
O415 O 0.89557 0.45977 0.27777 0.0
O416 O 0.88377 0.30721 0.16704 0.0
O417 O 0.75772 0.30989 0.29352 0.0
Sc418 Sc 0.8674 0.68628 0.50207 0.0
Sc419 Sc 0.89022 0.57578 0.57361 0.0
Sc420 Sc 0.98486 0.61121 0.48584 0.0
O421 O 0.9162 0.62654 0.5224 0.0
C422 C 0.89826 0.63977 0.40296 0.0
C423 C 0.78002 0.59785 0.51591 0.0
C424 C 0.97165 0.50681 0.50278 0.0
C425 C 0.85828 0.69953 0.61231 0.0
C426 C 0.98731 0.72851 0.48224 0.0
C427 C 0.01466 0.5967 0.60176 0.0
O428 O 0.85888 0.65109 0.43151 0.0
O429 O 0.81247 0.55794 0.5274 0.0
O430 O 0.9537 0.53563 0.46944 0.0
O431 O 0.87557 0.7211 0.57274 0.0
O432 O 0.01191 0.68737 0.49791 0.0
O433 O 0.96404 0.59539 0.61458 0.0
O434 O 0.93583 0.73235 0.4762 0.0
O435 O 0.85059 0.64692 0.61579 0.0
O436 O 0.02943 0.59329 0.55644 0.0
O437 O 0.79501 0.64567 0.52767 0.0
O438 O 0.94761 0.63355 0.41701 0.0
O439 O 0.94475 0.50767 0.54364 0.0
Sc440 Sc 0.64332 0.26991 0.76871 0.0
Sc441 Sc 0.67895 0.36449 0.68098 0.0
Sc442 Sc 0.56843 0.38746 0.75248 0.0
O443 O 0.62814 0.33859 0.73217 0.0
C444 C 0.52606 0.26764 0.77228 0.0
C445 C 0.65801 0.24007 0.65282 0.0
C446 C 0.55521 0.39649 0.64225 0.0
C447 C 0.74779 0.28302 0.75191 0.0
C448 C 0.61487 0.35656 0.85156 0.0
C449 C 0.65693 0.47473 0.73865 0.0
O450 O 0.56714 0.24304 0.75646 0.0
O451 O 0.65933 0.29069 0.64 0.0
O452 O 0.53362 0.37926 0.68182 0.0
O453 O 0.71895 0.30091 0.78525 0.0
O454 O 0.60362 0.39597 0.82304 0.0
O455 O 0.69682 0.44222 0.72721 0.0
O456 O 0.62092 0.30719 0.8375 0.0
O457 O 0.74697 0.3099 0.71104 0.0
O458 O 0.60912 0.45979 0.72682 0.0
O459 O 0.66135 0.2253 0.69815 0.0
O460 O 0.52228 0.31911 0.77839 0.0
O461 O 0.60784 0.40414 0.63876 0.0
Sc462 Sc 0.98487 0.39348 0.01873 0.0
Sc463 Sc 0.89022 0.42892 0.93097 0.0
Sc464 Sc 0.8674 0.31842 0.00253 0.0
O465 O 0.9162 0.37815 0.98219 0.0
C466 C 0.98731 0.27619 0.02234 0.0
C467 C 0.01465 0.408 0.90281 0.0
C468 C 0.85827 0.30515 0.89229 0.0
C469 C 0.97165 0.49789 1.00181 0.0
C470 C 0.89828 0.36499 0.10161 0.0
C471 C 0.78002 0.40685 0.9887 0.0
O472 O 0.01191 0.31732 0.00665 0.0
O473 O 0.96402 0.40931 0.89 0.0
O474 O 0.87555 0.28359 0.93186 0.0
O475 O 0.95371 0.46906 0.03514 0.0
O476 O 0.8589 0.35361 0.07309 0.0
O477 O 0.81247 0.44675 0.97719 0.0
O478 O 0.94763 0.37114 0.08756 0.0
O479 O 0.94474 0.49702 0.96095 0.0
O480 O 0.79501 0.35902 0.97694 0.0
O481 O 0.02943 0.41142 0.94813 0.0
O482 O 0.93583 0.27236 0.02839 0.0
O483 O 0.85059 0.35777 0.8888 0.0
Sc484 Sc 0.86138 0.7348 0.26874 0.0
Sc485 Sc 0.82575 0.64022 0.181 0.0
Sc486 Sc 0.93627 0.61724 0.2525 0.0
O487 O 0.87657 0.66611 0.2322 0.0
C488 C 0.97865 0.73706 0.2723 0.0
C489 C 0.8467 0.76464 0.15285 0.0
C490 C 0.94949 0.60821 0.14227 0.0
C491 C 0.75691 0.72169 0.25194 0.0
C492 C 0.88983 0.64815 0.35159 0.0
C493 C 0.84777 0.52998 0.23866 0.0
O494 O 0.93757 0.76166 0.25649 0.0
O495 O 0.84537 0.71402 0.14003 0.0
O496 O 0.97108 0.62544 0.18184 0.0
O497 O 0.78576 0.7038 0.28528 0.0
O498 O 0.90108 0.60873 0.32306 0.0
O499 O 0.80788 0.56248 0.22722 0.0
O500 O 0.88378 0.69752 0.33753 0.0
O501 O 0.75773 0.69481 0.21106 0.0
O502 O 0.89558 0.54492 0.22684 0.0
O503 O 0.84335 0.77941 0.19818 0.0
O504 O 0.98242 0.68559 0.27841 0.0
O505 O 0.89687 0.60057 0.13878 0.0
Sc506 Sc 0.51984 0.61122 0.51875 0.0
Sc507 Sc 0.6145 0.57579 0.43099 0.0
Sc508 Sc 0.63731 0.68628 0.50256 0.0
O509 O 0.58851 0.62655 0.48221 0.0
C510 C 0.5174 0.72851 0.52237 0.0
C511 C 0.49007 0.5967 0.40283 0.0
C512 C 0.64644 0.69956 0.39232 0.0
C513 C 0.53306 0.50681 0.50181 0.0
C514 C 0.60643 0.6397 0.60164 0.0
C515 C 0.72469 0.59786 0.48872 0.0
O516 O 0.4928 0.68738 0.50668 0.0
O517 O 0.54069 0.5954 0.39002 0.0
O518 O 0.62916 0.72112 0.43189 0.0
O519 O 0.55099 0.53563 0.53515 0.0
O520 O 0.64581 0.65109 0.57312 0.0
O521 O 0.69224 0.55795 0.47721 0.0
O522 O 0.55708 0.63355 0.58758 0.0
O523 O 0.55997 0.50768 0.46096 0.0
O524 O 0.70971 0.64568 0.47697 0.0
O525 O 0.47528 0.59329 0.44815 0.0
O526 O 0.56888 0.73234 0.52842 0.0
O527 O 0.65413 0.64694 0.38883 0.0
Sc528 Sc 0.43627 0.38748 0.25245 0.0
Sc529 Sc 0.32575 0.36449 0.18096 0.0
Sc530 Sc 0.36138 0.26993 0.26871 0.0
O531 O 0.37657 0.33861 0.23216 0.0
C532 C 0.47865 0.26766 0.27226 0.0
C533 C 0.44948 0.3965 0.14222 0.0
C534 C 0.34672 0.24008 0.15282 0.0
C535 C 0.34775 0.47473 0.23861 0.0
C536 C 0.38991 0.35659 0.35156 0.0
C537 C 0.25693 0.28301 0.2519 0.0
O538 O 0.48243 0.31913 0.27836 0.0
O539 O 0.39685 0.40415 0.13874 0.0
O540 O 0.34337 0.22532 0.19815 0.0
O541 O 0.39557 0.4598 0.22678 0.0
O542 O 0.38378 0.30723 0.33751 0.0
O543 O 0.25774 0.30988 0.21102 0.0
O544 O 0.40109 0.396 0.32301 0.0
O545 O 0.30787 0.44222 0.2272 0.0
O546 O 0.28575 0.30095 0.28524 0.0
O547 O 0.47107 0.37927 0.18179 0.0
O548 O 0.43756 0.24305 0.25648 0.0
O549 O 0.34538 0.29069 0.13999 0.0
Sc550 Sc 0.36742 0.68629 0.00254 0.0
Sc551 Sc 0.39022 0.57579 0.93098 0.0
Sc552 Sc 0.48486 0.61119 0.01877 0.0
O553 O 0.41621 0.62654 0.98221 0.0
C554 C 0.48734 0.7285 0.02236 0.0
C555 C 0.35827 0.69956 0.89231 0.0
C556 C 0.51464 0.59672 0.90283 0.0
C557 C 0.28002 0.59786 0.9887 0.0
C558 C 0.39826 0.63976 0.10165 0.0
C559 C 0.47162 0.50683 1.0018 0.0
O560 O 0.43586 0.73234 0.02839 0.0
O561 O 0.35058 0.64694 0.88882 0.0
O562 O 0.52942 0.59329 0.94816 0.0
O563 O 0.29501 0.64569 0.97696 0.0
O564 O 0.44761 0.63352 0.0876 0.0
O565 O 0.44476 0.50769 0.96092 0.0
O566 O 0.3589 0.65111 0.0731 0.0
O567 O 0.31247 0.55796 0.9772 0.0
O568 O 0.45367 0.53561 0.03516 0.0
O569 O 0.37558 0.72112 0.93186 0.0
O570 O 0.51195 0.68734 0.00673 0.0
O571 O 0.46402 0.59542 0.89001 0.0
Sc572 Sc 0.06844 0.61722 0.75247 0.0
Sc573 Sc 0.17897 0.64022 0.68098 0.0
Sc574 Sc 0.14333 0.73477 0.76874 0.0
O575 O 0.12814 0.6661 0.73218 0.0
C576 C 0.02605 0.73703 0.77229 0.0
C577 C 0.05523 0.6082 0.64224 0.0
C578 C 0.15798 0.76463 0.65285 0.0
C579 C 0.15696 0.52997 0.73862 0.0
C580 C 0.1148 0.64811 0.85159 0.0
C581 C 0.24777 0.7217 0.75192 0.0
O582 O 0.02228 0.68556 0.77839 0.0
O583 O 0.10786 0.60056 0.63876 0.0
O584 O 0.16134 0.77939 0.69818 0.0
O585 O 0.10915 0.54491 0.72679 0.0
O586 O 0.12092 0.69747 0.83753 0.0
O587 O 0.24697 0.69483 0.71104 0.0
O588 O 0.10363 0.6087 0.82303 0.0
O589 O 0.19685 0.56249 0.72721 0.0
O590 O 0.21895 0.70376 0.78526 0.0
O591 O 0.03364 0.62543 0.68181 0.0
O592 O 0.06714 0.76164 0.75651 0.0
O593 O 0.15932 0.71402 0.64001 0.0
Sc594 Sc 0.13728 0.31841 0.50251 0.0
Sc595 Sc 0.11449 0.42891 0.43096 0.0
Sc596 Sc 0.01985 0.39351 0.51875 0.0
O597 O 0.0885 0.37816 0.48218 0.0
C598 C 0.01736 0.2762 0.52232 0.0
C599 C 0.14643 0.30516 0.39228 0.0
C600 C 0.99006 0.40798 0.40281 0.0
C601 C 0.22469 0.40684 0.48868 0.0
C602 C 0.10645 0.36493 0.60163 0.0
C603 C 0.03309 0.49786 0.50179 0.0
O604 O 0.06884 0.27236 0.52836 0.0
O605 O 0.15413 0.35777 0.38879 0.0
O606 O 0.97528 0.41142 0.44814 0.0
O607 O 0.20969 0.35901 0.47693 0.0
O608 O 0.0571 0.37118 0.58758 0.0
O609 O 0.05994 0.49702 0.46091 0.0
O610 O 0.14581 0.35359 0.57308 0.0
O611 O 0.19223 0.44675 0.47718 0.0
O612 O 0.05105 0.46909 0.53515 0.0
O613 O 0.12912 0.28359 0.43183 0.0
O614 O 0.99276 0.31737 0.5067 0.0
O615 O 0.04068 0.40929 0.38999 0.0
Sc616 Sc 0.43627 0.61722 0.25212 0.0
Sc617 Sc 0.32575 0.6402 0.32361 0.0
Sc618 Sc 0.36139 0.73477 0.23588 0.0
O619 O 0.37657 0.66609 0.27242 0.0
C620 C 0.47866 0.73704 0.23233 0.0
C621 C 0.44949 0.60819 0.36234 0.0
C622 C 0.34672 0.76461 0.35177 0.0
C623 C 0.34776 0.52996 0.26595 0.0
C624 C 0.38984 0.64813 0.15303 0.0
C625 C 0.25694 0.72169 0.25268 0.0
O626 O 0.48243 0.68557 0.22621 0.0
O627 O 0.39686 0.60054 0.36583 0.0
O628 O 0.34336 0.77938 0.30644 0.0
O629 O 0.39557 0.5449 0.27778 0.0
O630 O 0.3838 0.6975 0.16709 0.0
O631 O 0.25774 0.69482 0.29356 0.0
O632 O 0.40109 0.60871 0.18155 0.0
O633 O 0.30788 0.56248 0.27737 0.0
O634 O 0.28577 0.70376 0.21934 0.0
O635 O 0.47108 0.62541 0.32277 0.0
O636 O 0.43757 0.76164 0.24813 0.0
O637 O 0.34539 0.71399 0.3646 0.0
Sc638 Sc 0.01984 0.6112 0.98584 0.0
Sc639 Sc 0.11449 0.57579 0.07362 0.0
Sc640 Sc 0.13728 0.68629 1.00205 0.0
O641 O 0.0885 0.62654 0.02239 0.0
C642 C 0.10643 0.6397 0.90296 0.0
C643 C 0.03309 0.50684 0.00279 0.0
C644 C 0.22469 0.59786 0.01588 0.0
C645 C 0.99007 0.59671 0.10178 0.0
C646 C 0.01736 0.7285 0.98227 0.0
C647 C 0.14644 0.69955 0.11229 0.0
O648 O 0.05707 0.63353 0.91701 0.0
O649 O 0.05995 0.50769 0.04367 0.0
O650 O 0.20969 0.64569 0.02763 0.0
O651 O 0.97529 0.59328 0.05646 0.0
O652 O 0.06884 0.73234 0.97621 0.0
O653 O 0.15413 0.64694 0.11578 0.0
O654 O 0.99276 0.68734 0.99791 0.0
O655 O 0.04069 0.59541 0.1146 0.0
O656 O 0.12914 0.72112 0.07273 0.0
O657 O 0.05104 0.53562 0.96943 0.0
O658 O 0.1458 0.6511 0.93148 0.0
O659 O 0.19224 0.55796 0.02739 0.0
Sc660 Sc 0.14332 0.26992 0.73586 0.0
Sc661 Sc 0.17896 0.36449 0.82359 0.0
Sc662 Sc 0.06844 0.38748 0.7521 0.0
O663 O 0.12814 0.3386 0.7724 0.0
C664 C 0.11487 0.35657 0.653 0.0
C665 C 0.24777 0.283 0.75266 0.0
C666 C 0.15696 0.47473 0.76594 0.0
C667 C 0.15799 0.24008 0.85175 0.0
C668 C 0.02605 0.26767 0.7323 0.0
C669 C 0.05522 0.39651 0.86232 0.0
O670 O 0.12091 0.3072 0.66706 0.0
O671 O 0.24697 0.30987 0.79353 0.0
O672 O 0.10915 0.45979 0.77776 0.0
O673 O 0.16134 0.22531 0.80641 0.0
O674 O 0.02228 0.31913 0.72618 0.0
O675 O 0.10785 0.40415 0.86581 0.0
O676 O 0.06713 0.24306 0.7481 0.0
O677 O 0.15932 0.29069 0.86457 0.0
O678 O 0.03363 0.37929 0.82275 0.0
O679 O 0.21895 0.30093 0.71932 0.0
O680 O 0.10363 0.39599 0.68153 0.0
O681 O 0.19684 0.44222 0.77736 0.0
Sc682 Sc 0.48486 0.3935 0.48582 0.0
Sc683 Sc 0.39021 0.4289 0.5736 0.0
Sc684 Sc 0.36742 0.31841 0.50202 0.0
O685 O 0.4162 0.37815 0.52237 0.0
C686 C 0.39828 0.365 0.40294 0.0
C687 C 0.47162 0.49786 0.50278 0.0
C688 C 0.28002 0.40683 0.51586 0.0
C689 C 0.51463 0.40798 0.60176 0.0
C690 C 0.48734 0.2762 0.48223 0.0
C691 C 0.35826 0.30513 0.61226 0.0
O692 O 0.44764 0.37117 0.41699 0.0
O693 O 0.44475 0.49701 0.54366 0.0
O694 O 0.29501 0.35901 0.5276 0.0
O695 O 0.52942 0.41141 0.55644 0.0
O696 O 0.43587 0.27236 0.47618 0.0
O697 O 0.35057 0.35775 0.61575 0.0
O698 O 0.51194 0.31736 0.49788 0.0
O699 O 0.46401 0.40928 0.61458 0.0
O700 O 0.37556 0.28357 0.5727 0.0
O701 O 0.45368 0.46908 0.46942 0.0
O702 O 0.35891 0.3536 0.43146 0.0
O703 O 0.31247 0.44674 0.52737 0.0
loop_
_geom_bond_atom_site_label_1
_geom_bond_atom_site_label_2
_geom_bond_distance
_geom_bond_site_symmetry_2
_ccdc_geom_bond_type
Sc0 O3 2.025 . S
Sc0 O10 2.105 . S
Sc0 O13 2.105 . S
Sc0 O16 2.105 . S
Sc0 O19 2.105 . S
Sc1 O3 2.025 . S
Sc1 O11 2.105 . S
Sc1 O15 2.105 . S
Sc1 O17 2.105 . S
Sc1 O21 2.105 . S
Sc2 O3 2.025 . S
Sc2 O12 2.105 . S
Sc2 O14 2.105 . S
Sc2 O18 2.105 . S
Sc2 O20 2.117 . S
O3 Sc0 2.025 . S
O3 Sc1 2.025 . S
O3 Sc2 2.025 . S
C4 O10 1.268 . S
C4 O20 1.270 . S
C5 O11 1.268 . S
C5 O19 1.268 . S
C6 O12 1.268 . S
C6 O21 1.268 . S
C7 O13 1.268 . S
C7 O17 1.268 . S
C8 O14 1.268 . S
C8 O16 1.268 . S
C9 O15 1.268 . S
C9 O18 1.268 . S
O10 Sc0 2.105 . S
O10 C4 1.268 . S
O11 Sc1 2.105 . S
O11 C5 1.268 . S
O12 Sc2 2.105 . S
O12 C6 1.268 . S
O13 Sc0 2.105 . S
O13 C7 1.268 . S
O14 Sc2 2.105 . S
O14 C8 1.268 . S
O15 Sc1 2.105 . S
O15 C9 1.268 . S
O16 Sc0 2.105 . S
O16 C8 1.268 . S
O17 Sc1 2.105 . S
O17 C7 1.268 . S
O18 Sc2 2.105 . S
O18 C9 1.268 . S
O19 Sc0 2.105 . S
O19 C5 1.268 . S
O20 Sc2 2.117 . S
O20 C4 1.270 . S
O21 Sc1 2.105 . S
O21 C6 1.268 . S
Sc22 O25 2.025 . S
Sc22 O32 2.105 . S
Sc22 O35 2.105 . S
Sc22 O38 2.105 . S
Sc22 O41 2.105 . S
Sc23 O25 2.025 . S
Sc23 O33 2.105 . S
Sc23 O37 2.105 . S
Sc23 O39 2.105 . S
Sc23 O43 2.105 . S
Sc24 O25 2.025 . S
Sc24 O34 2.105 . S
Sc24 O36 2.105 1_455 S
Sc24 O40 2.105 1_455 S
Sc24 O42 2.105 . S
O25 Sc22 2.025 . S
O25 Sc23 2.025 . S
O25 Sc24 2.025 . S
C26 O32 1.268 . S
C26 O42 1.268 . S
C27 O33 1.268 . S
C27 O41 1.268 . S
C28 O34 1.273 . S
C28 O43 1.270 . S
C29 O35 1.268 . S
C29 O39 1.268 . S
C30 O36 1.268 1_455 S
C30 O38 1.268 . S
C31 O37 1.268 1_655 S
C31 O40 1.268 . S
O32 Sc22 2.105 . S
O32 C26 1.268 . S
O33 Sc23 2.105 . S
O33 C27 1.268 . S
O34 Sc24 2.105 . S
O34 C28 1.273 . S
O35 Sc22 2.105 . S
O35 C29 1.268 . S
O36 Sc24 2.105 1_655 S
O36 C30 1.268 1_655 S
O37 Sc23 2.105 . S
O37 C31 1.268 1_455 S
O38 Sc22 2.105 . S
O38 C30 1.268 . S
O39 Sc23 2.105 . S
O39 C29 1.268 . S
O40 Sc24 2.105 1_655 S
O40 C31 1.268 . S
O41 Sc22 2.105 . S
O41 C27 1.268 . S
O42 Sc24 2.105 . S
O42 C26 1.268 . S
O43 Sc23 2.105 . S
O43 C28 1.270 . S
Sc44 O47 2.025 . S
Sc44 O54 2.105 . S
Sc44 O57 2.105 . S
Sc44 O60 2.105 . S
Sc44 O63 2.105 . S
Sc45 O47 2.025 . S
Sc45 O55 2.105 . S
Sc45 O59 2.105 . S
Sc45 O61 2.105 . S
Sc45 O65 2.105 . S
Sc46 O47 2.025 . S
Sc46 O56 2.105 . S
Sc46 O58 2.105 . S
Sc46 O62 2.105 . S
Sc46 O64 2.105 . S
O47 Sc44 2.025 . S
O47 Sc45 2.025 . S
O47 Sc46 2.025 . S
C48 O54 1.268 . S
C48 O64 1.268 . S
C49 O55 1.268 . S
C49 O63 1.268 . S
C50 O56 1.268 . S
C50 O65 1.268 . S
C51 O57 1.268 . S
C51 O61 1.268 . S
C52 O58 1.268 . S
C52 O60 1.268 . S
C53 O59 1.268 . S
C53 O62 1.268 . S
O54 Sc44 2.105 . S
O54 C48 1.268 . S
O55 Sc45 2.105 . S
O55 C49 1.268 . S
O56 Sc46 2.105 . S
O56 C50 1.268 . S
O57 Sc44 2.105 . S
O57 C51 1.268 . S
O58 Sc46 2.105 . S
O58 C52 1.268 . S
O59 Sc45 2.105 . S
O59 C53 1.268 . S
O60 Sc44 2.105 . S
O60 C52 1.268 . S
O61 Sc45 2.105 . S
O61 C51 1.268 . S
O62 Sc46 2.105 . S
O62 C53 1.268 . S
O63 Sc44 2.105 . S
O63 C49 1.268 . S
O64 Sc46 2.105 . S
O64 C48 1.268 . S
O65 Sc45 2.105 . S
O65 C50 1.268 . S
Sc66 O69 2.026 1_556 S
Sc66 O76 2.102 . S
Sc66 O79 2.107 1_556 S
Sc66 O82 2.105 . S
Sc66 O85 2.105 . S
Sc67 O69 2.025 . S
Sc67 O77 2.105 . S
Sc67 O81 2.105 . S
Sc67 O83 2.105 . S
Sc67 O87 2.105 . S
Sc68 O69 2.025 1_556 S
Sc68 O78 2.105 . S
Sc68 O80 2.105 . S
Sc68 O84 2.105 1_556 S
Sc68 O86 2.105 . S
O69 Sc66 2.026 1_554 S
O69 Sc67 2.025 . S
O69 Sc68 2.025 1_554 S
C70 O76 1.268 . S
C70 O86 1.268 . S
C71 O77 1.268 . S
C71 O85 1.268 1_554 S
C72 O78 1.273 1_554 S
C72 O87 1.270 . S
C73 O79 1.268 . S
C73 O83 1.268 . S
C74 O80 1.268 1_554 S
C74 O82 1.268 1_554 S
C75 O81 1.268 . S
C75 O84 1.268 . S
O76 Sc66 2.102 . S
O76 C70 1.268 . S
O77 Sc67 2.105 . S
O77 C71 1.268 . S
O78 Sc68 2.105 . S
O78 C72 1.273 1_556 S
O79 Sc66 2.107 1_554 S
O79 C73 1.268 . S
O80 Sc68 2.105 . S
O80 C74 1.268 1_556 S
O81 Sc67 2.105 . S
O81 C75 1.268 . S
O82 Sc66 2.105 . S
O82 C74 1.268 1_556 S
O83 Sc67 2.105 . S
O83 C73 1.268 . S
O84 Sc68 2.105 1_554 S
O84 C75 1.268 . S
O85 Sc66 2.105 . S
O85 C71 1.268 1_556 S
O86 Sc68 2.105 . S
O86 C70 1.268 . S
O87 Sc67 2.105 . S
O87 C72 1.270 . S
Sc88 O91 2.025 . S
Sc88 O98 2.105 . S
Sc88 O101 2.105 . S
Sc88 O104 2.105 . S
Sc88 O107 2.105 . S
Sc89 O91 2.025 . S
Sc89 O99 2.105 . S
Sc89 O103 2.105 . S
Sc89 O105 2.105 . S
Sc89 O109 2.105 . S
Sc90 O91 2.025 . S
Sc90 O100 2.105 . S
Sc90 O102 2.105 . S
Sc90 O106 2.105 . S
Sc90 O108 2.117 . S
O91 Sc88 2.025 . S
O91 Sc89 2.025 . S
O91 Sc90 2.025 . S
C92 O98 1.268 . S
C92 O108 1.270 . S
C93 O99 1.268 . S
C93 O107 1.268 . S
C94 O100 1.268 . S
C94 O109 1.268 . S
C95 O101 1.268 . S
C95 O105 1.268 . S
C96 O102 1.268 . S
C96 O104 1.268 . S
C97 O103 1.268 . S
C97 O106 1.268 . S
O98 Sc88 2.105 . S
O98 C92 1.268 . S
O99 Sc89 2.105 . S
O99 C93 1.268 . S
O100 Sc90 2.105 . S
O100 C94 1.268 . S
O101 Sc88 2.105 . S
O101 C95 1.268 . S
O102 Sc90 2.105 . S
O102 C96 1.268 . S
O103 Sc89 2.105 . S
O103 C97 1.268 . S
O104 Sc88 2.105 . S
O104 C96 1.268 . S
O105 Sc89 2.105 . S
O105 C95 1.268 . S
O106 Sc90 2.105 . S
O106 C97 1.268 . S
O107 Sc88 2.105 . S
O107 C93 1.268 . S
O108 Sc90 2.117 . S
O108 C92 1.270 . S
O109 Sc89 2.105 . S
O109 C94 1.268 . S
Sc110 O113 2.025 . S
Sc110 O120 2.105 . S
Sc110 O123 2.105 . S
Sc110 O126 2.105 . S
Sc110 O129 2.105 . S
Sc111 O113 2.025 . S
Sc111 O121 2.105 . S
Sc111 O125 2.105 . S
Sc111 O127 2.105 . S
Sc111 O131 2.105 . S
Sc112 O113 2.025 . S
Sc112 O122 2.105 . S
Sc112 O124 2.105 . S
Sc112 O128 2.105 . S
Sc112 O130 2.105 . S
O113 Sc110 2.025 . S
O113 Sc111 2.025 . S
O113 Sc112 2.025 . S
C114 O120 1.268 . S
C114 O130 1.268 . S
C115 O121 1.268 . S
C115 O129 1.268 . S
C116 O122 1.268 . S
C116 O131 1.268 . S
C117 O123 1.273 . S
C117 O127 1.270 . S
C118 O124 1.268 . S
C118 O126 1.268 . S
C119 O125 1.268 . S
C119 O128 1.268 . S
O120 Sc110 2.105 . S
O120 C114 1.268 . S
O121 Sc111 2.105 . S
O121 C115 1.268 . S
O122 Sc112 2.105 . S
O122 C116 1.268 . S
O123 Sc110 2.105 . S
O123 C117 1.273 . S
O124 Sc112 2.105 . S
O124 C118 1.268 . S
O125 Sc111 2.105 . S
O125 C119 1.268 . S
O126 Sc110 2.105 . S
O126 C118 1.268 . S
O127 Sc111 2.105 . S
O127 C117 1.270 . S
O128 Sc112 2.105 . S
O128 C119 1.268 . S
O129 Sc110 2.105 . S
O129 C115 1.268 . S
O130 Sc112 2.105 . S
O130 C114 1.268 . S
O131 Sc111 2.105 . S
O131 C116 1.268 . S
Sc132 O135 2.025 . S
Sc132 O142 2.105 . S
Sc132 O145 2.105 . S
Sc132 O148 2.105 . S
Sc132 O151 2.105 . S
Sc133 O135 2.025 . S
Sc133 O143 2.105 . S
Sc133 O147 2.105 . S
Sc133 O149 2.105 . S
Sc133 O153 2.105 . S
Sc134 O135 2.025 . S
Sc134 O144 2.105 . S
Sc134 O146 2.105 . S
Sc134 O150 2.105 . S
Sc134 O152 2.105 . S
O135 Sc132 2.025 . S
O135 Sc133 2.025 . S
O135 Sc134 2.025 . S
C136 O142 1.268 . S
C136 O152 1.268 . S
C137 O143 1.268 . S
C137 O151 1.268 . S
C138 O144 1.268 . S
C138 O153 1.268 . S
C139 O145 1.268 . S
C139 O149 1.268 . S
C140 O146 1.268 . S
C140 O148 1.268 . S
C141 O147 1.268 . S
C141 O150 1.268 . S
O142 Sc132 2.105 . S
O142 C136 1.268 . S
O143 Sc133 2.105 . S
O143 C137 1.268 . S
O144 Sc134 2.105 . S
O144 C138 1.268 . S
O145 Sc132 2.105 . S
O145 C139 1.268 . S
O146 Sc134 2.105 . S
O146 C140 1.268 . S
O147 Sc133 2.105 . S
O147 C141 1.268 . S
O148 Sc132 2.105 . S
O148 C140 1.268 . S
O149 Sc133 2.105 . S
O149 C139 1.268 . S
O150 Sc134 2.105 . S
O150 C141 1.268 . S
O151 Sc132 2.105 . S
O151 C137 1.268 . S
O152 Sc134 2.105 . S
O152 C136 1.268 . S
O153 Sc133 2.105 . S
O153 C138 1.268 . S
Sc154 O157 2.025 1_554 S
Sc154 O164 2.105 1_455 S
Sc154 O167 2.105 . S
Sc154 O170 2.105 . S
Sc154 O173 2.105 1_454 S
Sc155 O157 2.025 . S
Sc155 O165 2.105 . S
Sc155 O169 2.105 . S
Sc155 O171 2.105 . S
Sc155 O175 2.105 . S
Sc156 O157 2.026 1_554 S
Sc156 O166 2.107 1_554 S
Sc156 O168 2.102 . S
Sc156 O172 2.105 . S
Sc156 O174 2.105 . S
O157 Sc154 2.025 1_556 S
O157 Sc155 2.025 . S
O157 Sc156 2.026 1_556 S
C158 O164 1.268 1_456 S
C158 O174 1.268 1_556 S
C159 O165 1.268 1_655 S
C159 O173 1.268 . S
C160 O166 1.268 . S
C160 O175 1.268 . S
C161 O167 1.273 1_556 S
C161 O171 1.270 . S
C162 O168 1.268 . S
C162 O170 1.268 . S
C163 O169 1.268 . S
C163 O172 1.268 1_556 S
O164 Sc154 2.105 1_655 S
O164 C158 1.268 1_654 S
O165 Sc155 2.105 . S
O165 C159 1.268 1_455 S
O166 Sc156 2.107 1_556 S
O166 C160 1.268 . S
O167 Sc154 2.105 . S
O167 C161 1.273 1_554 S
O168 Sc156 2.102 . S
O168 C162 1.268 . S
O169 Sc155 2.105 . S
O169 C163 1.268 . S
O170 Sc154 2.105 . S
O170 C162 1.268 . S
O171 Sc155 2.105 . S
O171 C161 1.270 . S
O172 Sc156 2.105 . S
O172 C163 1.268 1_554 S
O173 Sc154 2.105 1_656 S
O173 C159 1.268 . S
O174 Sc156 2.105 . S
O174 C158 1.268 1_554 S
O175 Sc155 2.105 . S
O175 C160 1.268 . S
Sc176 O179 2.025 . S
Sc176 O186 2.117 . S
Sc176 O189 2.105 . S
Sc176 O192 2.105 . S
Sc176 O195 2.105 . S
Sc177 O179 2.025 . S
Sc177 O187 2.105 . S
Sc177 O191 2.105 . S
Sc177 O193 2.105 . S
Sc177 O197 2.105 . S
Sc178 O179 2.025 . S
Sc178 O188 2.105 . S
Sc178 O190 2.105 . S
Sc178 O194 2.105 . S
Sc178 O196 2.105 . S
O179 Sc176 2.025 . S
O179 Sc177 2.025 . S
O179 Sc178 2.025 . S
C180 O186 1.270 . S
C180 O196 1.268 . S
C181 O187 1.268 . S
C181 O195 1.268 . S
C182 O188 1.268 . S
C182 O197 1.268 . S
C183 O189 1.268 . S
C183 O193 1.268 . S
C184 O190 1.268 . S
C184 O192 1.268 . S
C185 O191 1.268 . S
C185 O194 1.268 . S
O186 Sc176 2.117 . S
O186 C180 1.270 . S
O187 Sc177 2.105 . S
O187 C181 1.268 . S
O188 Sc178 2.105 . S
O188 C182 1.268 . S
O189 Sc176 2.105 . S
O189 C183 1.268 . S
O190 Sc178 2.105 . S
O190 C184 1.268 . S
O191 Sc177 2.105 . S
O191 C185 1.268 . S
O192 Sc176 2.105 . S
O192 C184 1.268 . S
O193 Sc177 2.105 . S
O193 C183 1.268 . S
O194 Sc178 2.105 . S
O194 C185 1.268 . S
O195 Sc176 2.105 . S
O195 C181 1.268 . S
O196 Sc178 2.105 . S
O196 C180 1.268 . S
O197 Sc177 2.105 . S
O197 C182 1.268 . S
Sc198 O201 2.025 . S
Sc198 O208 2.105 . S
Sc198 O211 2.105 . S
Sc198 O214 2.105 . S
Sc198 O217 2.105 . S
Sc199 O201 2.025 . S
Sc199 O209 2.105 . S
Sc199 O213 2.105 . S
Sc199 O215 2.105 . S
Sc199 O219 2.105 . S
Sc200 O201 2.025 . S
Sc200 O210 2.105 1_655 S
Sc200 O212 2.105 . S
Sc200 O216 2.105 . S
Sc200 O218 2.105 1_655 S
O201 Sc198 2.025 . S
O201 Sc199 2.025 . S
O201 Sc200 2.025 . S
C202 O208 1.268 . S
C202 O218 1.268 1_655 S
C203 O209 1.268 . S
C203 O217 1.268 . S
C204 O210 1.268 . S
C204 O219 1.268 1_455 S
C205 O211 1.268 . S
C205 O215 1.268 . S
C206 O212 1.268 . S
C206 O214 1.268 . S
C207 O213 1.270 . S
C207 O216 1.273 . S
O208 Sc198 2.105 . S
O208 C202 1.268 . S
O209 Sc199 2.105 . S
O209 C203 1.268 . S
O210 Sc200 2.105 1_455 S
O210 C204 1.268 . S
O211 Sc198 2.105 . S
O211 C205 1.268 . S
O212 Sc200 2.105 . S
O212 C206 1.268 . S
O213 Sc199 2.105 . S
O213 C207 1.270 . S
O214 Sc198 2.105 . S
O214 C206 1.268 . S
O215 Sc199 2.105 . S
O215 C205 1.268 . S
O216 Sc200 2.105 . S
O216 C207 1.273 . S
O217 Sc198 2.105 . S
O217 C203 1.268 . S
O218 Sc200 2.105 1_455 S
O218 C202 1.268 1_455 S
O219 Sc199 2.105 . S
O219 C204 1.268 1_655 S
Sc220 O223 2.025 . S
Sc220 O230 2.105 . S
Sc220 O233 2.105 . S
Sc220 O236 2.105 . S
Sc220 O239 2.105 . S
Sc221 O223 2.025 . S
Sc221 O231 2.105 . S
Sc221 O235 2.105 . S
Sc221 O237 2.105 . S
Sc221 O241 2.105 . S
Sc222 O223 2.025 . S
Sc222 O232 2.105 . S
Sc222 O234 2.105 . S
Sc222 O238 2.105 . S
Sc222 O240 2.105 . S
O223 Sc220 2.025 . S
O223 Sc221 2.025 . S
O223 Sc222 2.025 . S
C224 O230 1.268 . S
C224 O240 1.268 . S
C225 O231 1.268 . S
C225 O239 1.268 . S
C226 O232 1.268 . S
C226 O241 1.268 . S
C227 O233 1.268 . S
C227 O237 1.268 . S
C228 O234 1.268 . S
C228 O236 1.268 . S
C229 O235 1.268 . S
C229 O238 1.268 . S
O230 Sc220 2.105 . S
O230 C224 1.268 . S
O231 Sc221 2.105 . S
O231 C225 1.268 . S
O232 Sc222 2.105 . S
O232 C226 1.268 . S
O233 Sc220 2.105 . S
O233 C227 1.268 . S
O234 Sc222 2.105 . S
O234 C228 1.268 . S
O235 Sc221 2.105 . S
O235 C229 1.268 . S
O236 Sc220 2.105 . S
O236 C228 1.268 . S
O237 Sc221 2.105 . S
O237 C227 1.268 . S
O238 Sc222 2.105 . S
O238 C229 1.268 . S
O239 Sc220 2.105 . S
O239 C225 1.268 . S
O240 Sc222 2.105 . S
O240 C224 1.268 . S
O241 Sc221 2.105 . S
O241 C226 1.268 . S
Sc242 O245 2.026 1_554 S
Sc242 O252 2.105 . S
Sc242 O255 2.105 . S
Sc242 O258 2.102 . S
Sc242 O261 2.107 1_554 S
Sc243 O245 2.025 . S
Sc243 O253 2.105 . S
Sc243 O257 2.105 . S
Sc243 O259 2.105 . S
Sc243 O263 2.105 . S
Sc244 O245 2.025 1_554 S
Sc244 O254 2.105 1_554 S
Sc244 O256 2.105 . S
Sc244 O260 2.105 . S
Sc244 O262 2.105 . S
O245 Sc242 2.026 1_556 S
O245 Sc243 2.025 . S
O245 Sc244 2.025 1_556 S
C246 O252 1.268 1_556 S
C246 O262 1.268 1_556 S
C247 O253 1.268 . S
C247 O261 1.268 . S
C248 O254 1.268 . S
C248 O263 1.268 . S
C249 O255 1.268 1_556 S
C249 O259 1.268 . S
C250 O256 1.268 . S
C250 O258 1.268 . S
C251 O257 1.270 . S
C251 O260 1.273 1_556 S
O252 Sc242 2.105 . S
O252 C246 1.268 1_554 S
O253 Sc243 2.105 . S
O253 C247 1.268 . S
O254 Sc244 2.105 1_556 S
O254 C248 1.268 . S
O255 Sc242 2.105 . S
O255 C249 1.268 1_554 S
O256 Sc244 2.105 . S
O256 C250 1.268 . S
O257 Sc243 2.105 . S
O257 C251 1.270 . S
O258 Sc242 2.102 . S
O258 C250 1.268 . S
O259 Sc243 2.105 . S
O259 C249 1.268 . S
O260 Sc244 2.105 . S
O260 C251 1.273 1_554 S
O261 Sc242 2.107 1_556 S
O261 C247 1.268 . S
O262 Sc244 2.105 . S
O262 C246 1.268 1_554 S
O263 Sc243 2.105 . S
O263 C248 1.268 . S
Sc264 O267 2.025 . S
Sc264 O274 2.117 . S
Sc264 O277 2.105 . S
Sc264 O280 2.105 . S
Sc264 O283 2.105 . S
Sc265 O267 2.025 . S
Sc265 O275 2.105 . S
Sc265 O279 2.105 . S
Sc265 O281 2.105 . S
Sc265 O285 2.105 . S
Sc266 O267 2.025 . S
Sc266 O276 2.105 . S
Sc266 O278 2.105 . S
Sc266 O282 2.105 . S
Sc266 O284 2.105 . S
O267 Sc264 2.025 . S
O267 Sc265 2.025 . S
O267 Sc266 2.025 . S
C268 O274 1.270 . S
C268 O284 1.268 . S
C269 O275 1.268 . S
C269 O283 1.268 . S
C270 O276 1.268 . S
C270 O285 1.268 . S
C271 O277 1.268 . S
C271 O281 1.268 . S
C272 O278 1.268 . S
C272 O280 1.268 . S
C273 O279 1.268 . S
C273 O282 1.268 . S
O274 Sc264 2.117 . S
O274 C268 1.270 . S
O275 Sc265 2.105 . S
O275 C269 1.268 . S
O276 Sc266 2.105 . S
O276 C270 1.268 . S
O277 Sc264 2.105 . S
O277 C271 1.268 . S
O278 Sc266 2.105 . S
O278 C272 1.268 . S
O279 Sc265 2.105 . S
O279 C273 1.268 . S
O280 Sc264 2.105 . S
O280 C272 1.268 . S
O281 Sc265 2.105 . S
O281 C271 1.268 . S
O282 Sc266 2.105 . S
O282 C273 1.268 . S
O283 Sc264 2.105 . S
O283 C269 1.268 . S
O284 Sc266 2.105 . S
O284 C268 1.268 . S
O285 Sc265 2.105 . S
O285 C270 1.268 . S
Sc286 O289 2.025 . S
Sc286 O296 2.105 . S
Sc286 O299 2.105 . S
Sc286 O302 2.105 . S
Sc286 O305 2.105 . S
Sc287 O289 2.025 . S
Sc287 O297 2.105 . S
Sc287 O301 2.105 . S
Sc287 O303 2.105 . S
Sc287 O307 2.105 . S
Sc288 O289 2.025 . S
Sc288 O298 2.105 . S
Sc288 O300 2.105 . S
Sc288 O304 2.105 . S
Sc288 O306 2.105 . S
O289 Sc286 2.025 . S
O289 Sc287 2.025 . S
O289 Sc288 2.025 . S
C290 O296 1.268 . S
C290 O306 1.268 . S
C291 O297 1.270 . S
C291 O305 1.273 . S
C292 O298 1.268 . S
C292 O307 1.268 . S
C293 O299 1.268 . S
C293 O303 1.268 . S
C294 O300 1.268 . S
C294 O302 1.268 . S
C295 O301 1.268 . S
C295 O304 1.268 . S
O296 Sc286 2.105 . S
O296 C290 1.268 . S
O297 Sc287 2.105 . S
O297 C291 1.270 . S
O298 Sc288 2.105 . S
O298 C292 1.268 . S
O299 Sc286 2.105 . S
O299 C293 1.268 . S
O300 Sc288 2.105 . S
O300 C294 1.268 . S
O301 Sc287 2.105 . S
O301 C295 1.268 . S
O302 Sc286 2.105 . S
O302 C294 1.268 . S
O303 Sc287 2.105 . S
O303 C293 1.268 . S
O304 Sc288 2.105 . S
O304 C295 1.268 . S
O305 Sc286 2.105 . S
O305 C291 1.273 . S
O306 Sc288 2.105 . S
O306 C290 1.268 . S
O307 Sc287 2.105 . S
O307 C292 1.268 . S
Sc308 O311 2.025 . S
Sc308 O318 2.105 . S
Sc308 O321 2.105 . S
Sc308 O324 2.105 . S
Sc308 O327 2.105 . S
Sc309 O311 2.025 . S
Sc309 O319 2.105 . S
Sc309 O323 2.105 . S
Sc309 O325 2.105 . S
Sc309 O329 2.105 . S
Sc310 O311 2.025 . S
Sc310 O320 2.105 . S
Sc310 O322 2.105 . S
Sc310 O326 2.105 . S
Sc310 O328 2.105 . S
O311 Sc308 2.025 . S
O311 Sc309 2.025 . S
O311 Sc310 2.025 . S
C312 O318 1.268 . S
C312 O328 1.268 . S
C313 O319 1.268 . S
C313 O327 1.268 . S
C314 O320 1.268 . S
C314 O329 1.268 . S
C315 O321 1.268 . S
C315 O325 1.268 . S
C316 O322 1.268 . S
C316 O324 1.268 . S
C317 O323 1.268 . S
C317 O326 1.268 . S
O318 Sc308 2.105 . S
O318 C312 1.268 . S
O319 Sc309 2.105 . S
O319 C313 1.268 . S
O320 Sc310 2.105 . S
O320 C314 1.268 . S
O321 Sc308 2.105 . S
O321 C315 1.268 . S
O322 Sc310 2.105 . S
O322 C316 1.268 . S
O323 Sc309 2.105 . S
O323 C317 1.268 . S
O324 Sc308 2.105 . S
O324 C316 1.268 . S
O325 Sc309 2.105 . S
O325 C315 1.268 . S
O326 Sc310 2.105 . S
O326 C317 1.268 . S
O327 Sc308 2.105 . S
O327 C313 1.268 . S
O328 Sc310 2.105 . S
O328 C312 1.268 . S
O329 Sc309 2.105 . S
O329 C314 1.268 . S
Sc330 O333 2.025 1_556 S
Sc330 O340 2.105 . S
Sc330 O343 2.105 1_656 S
Sc330 O346 2.105 1_655 S
Sc330 O349 2.105 . S
Sc331 O333 2.025 . S
Sc331 O341 2.105 . S
Sc331 O345 2.105 . S
Sc331 O347 2.105 . S
Sc331 O351 2.105 . S
Sc332 O333 2.026 1_556 S
Sc332 O342 2.105 . S
Sc332 O344 2.105 . S
Sc332 O348 2.107 1_556 S
Sc332 O350 2.102 . S
O333 Sc330 2.025 1_554 S
O333 Sc331 2.025 . S
O333 Sc332 2.026 1_554 S
C334 O340 1.268 . S
C334 O350 1.268 . S
C335 O341 1.270 . S
C335 O349 1.273 1_554 S
C336 O342 1.268 1_554 S
C336 O351 1.268 . S
C337 O343 1.268 . S
C337 O347 1.268 1_455 S
C338 O344 1.268 1_554 S
C338 O346 1.268 1_654 S
C339 O345 1.268 . S
C339 O348 1.268 . S
O340 Sc330 2.105 . S
O340 C334 1.268 . S
O341 Sc331 2.105 . S
O341 C335 1.270 . S
O342 Sc332 2.105 . S
O342 C336 1.268 1_556 S
O343 Sc330 2.105 1_454 S
O343 C337 1.268 . S
O344 Sc332 2.105 . S
O344 C338 1.268 1_556 S
O345 Sc331 2.105 . S
O345 C339 1.268 . S
O346 Sc330 2.105 1_455 S
O346 C338 1.268 1_456 S
O347 Sc331 2.105 . S
O347 C337 1.268 1_655 S
O348 Sc332 2.107 1_554 S
O348 C339 1.268 . S
O349 Sc330 2.105 . S
O349 C335 1.273 1_556 S
O350 Sc332 2.102 . S
O350 C334 1.268 . S
O351 Sc331 2.105 . S
O351 C336 1.268 . S
Sc352 O355 2.025 . S
Sc352 O362 2.105 . S
Sc352 O365 2.105 . S
Sc352 O368 2.105 . S
Sc352 O371 2.105 . S
Sc353 O355 2.025 . S
Sc353 O363 2.105 . S
Sc353 O367 2.105 . S
Sc353 O369 2.105 . S
Sc353 O373 2.105 . S
Sc354 O355 2.025 . S
Sc354 O364 2.105 . S
Sc354 O366 2.105 . S
Sc354 O370 2.105 . S
Sc354 O372 2.105 . S
O355 Sc352 2.025 . S
O355 Sc353 2.025 . S
O355 Sc354 2.025 . S
C356 O362 1.268 . S
C356 O372 1.268 . S
C357 O363 1.268 . S
C357 O371 1.268 . S
C358 O364 1.268 . S
C358 O373 1.268 . S
C359 O365 1.268 . S
C359 O369 1.268 . S
C360 O366 1.268 . S
C360 O368 1.268 . S
C361 O367 1.268 . S
C361 O370 1.268 . S
O362 Sc352 2.105 . S
O362 C356 1.268 . S
O363 Sc353 2.105 . S
O363 C357 1.268 . S
O364 Sc354 2.105 . S
O364 C358 1.268 . S
O365 Sc352 2.105 . S
O365 C359 1.268 . S
O366 Sc354 2.105 . S
O366 C360 1.268 . S
O367 Sc353 2.105 . S
O367 C361 1.268 . S
O368 Sc352 2.105 . S
O368 C360 1.268 . S
O369 Sc353 2.105 . S
O369 C359 1.268 . S
O370 Sc354 2.105 . S
O370 C361 1.268 . S
O371 Sc352 2.105 . S
O371 C357 1.268 . S
O372 Sc354 2.105 . S
O372 C356 1.268 . S
O373 Sc353 2.105 . S
O373 C358 1.268 . S
Sc374 O377 2.026 1_556 S
Sc374 O384 2.102 . S
Sc374 O387 2.107 1_556 S
Sc374 O390 2.105 . S
Sc374 O393 2.105 . S
Sc375 O377 2.025 . S
Sc375 O385 2.105 . S
Sc375 O389 2.105 . S
Sc375 O391 2.105 . S
Sc375 O395 2.105 . S
Sc376 O377 2.025 1_556 S
Sc376 O386 2.105 . S
Sc376 O388 2.105 . S
Sc376 O392 2.105 1_556 S
Sc376 O394 2.105 . S
O377 Sc374 2.026 1_554 S
O377 Sc375 2.025 . S
O377 Sc376 2.025 1_554 S
C378 O384 1.268 . S
C378 O394 1.268 . S
C379 O385 1.268 . S
C379 O393 1.268 1_554 S
C380 O386 1.268 1_554 S
C380 O395 1.268 . S
C381 O387 1.268 . S
C381 O391 1.268 . S
C382 O388 1.268 1_554 S
C382 O390 1.268 1_554 S
C383 O389 1.268 . S
C383 O392 1.268 . S
O384 Sc374 2.102 . S
O384 C378 1.268 . S
O385 Sc375 2.105 . S
O385 C379 1.268 . S
O386 Sc376 2.105 . S
O386 C380 1.268 1_556 S
O387 Sc374 2.107 1_554 S
O387 C381 1.268 . S
O388 Sc376 2.105 . S
O388 C382 1.268 1_556 S
O389 Sc375 2.105 . S
O389 C383 1.268 . S
O390 Sc374 2.105 . S
O390 C382 1.268 1_556 S
O391 Sc375 2.105 . S
O391 C381 1.268 . S
O392 Sc376 2.105 1_554 S
O392 C383 1.268 . S
O393 Sc374 2.105 . S
O393 C379 1.268 1_556 S
O394 Sc376 2.105 . S
O394 C378 1.268 . S
O395 Sc375 2.105 . S
O395 C380 1.268 . S
Sc396 O399 2.025 . S
Sc396 O406 2.105 . S
Sc396 O409 2.105 . S
Sc396 O412 2.117 . S
Sc396 O415 2.105 . S
Sc397 O399 2.025 . S
Sc397 O407 2.105 . S
Sc397 O411 2.105 . S
Sc397 O413 2.105 . S
Sc397 O417 2.105 . S
Sc398 O399 2.025 . S
Sc398 O408 2.105 . S
Sc398 O410 2.105 . S
Sc398 O414 2.105 . S
Sc398 O416 2.105 . S
O399 Sc396 2.025 . S
O399 Sc397 2.025 . S
O399 Sc398 2.025 . S
C400 O406 1.268 . S
C400 O416 1.268 . S
C401 O407 1.268 . S
C401 O415 1.268 . S
C402 O408 1.268 . S
C402 O417 1.268 . S
C403 O409 1.268 . S
C403 O413 1.268 . S
C404 O410 1.268 . S
C404 O412 1.270 . S
C405 O411 1.268 . S
C405 O414 1.268 . S
O406 Sc396 2.105 . S
O406 C400 1.268 . S
O407 Sc397 2.105 . S
O407 C401 1.268 . S
O408 Sc398 2.105 . S
O408 C402 1.268 . S
O409 Sc396 2.105 . S
O409 C403 1.268 . S
O410 Sc398 2.105 . S
O410 C404 1.268 . S
O411 Sc397 2.105 . S
O411 C405 1.268 . S
O412 Sc396 2.117 . S
O412 C404 1.270 . S
O413 Sc397 2.105 . S
O413 C403 1.268 . S
O414 Sc398 2.105 . S
O414 C405 1.268 . S
O415 Sc396 2.105 . S
O415 C401 1.268 . S
O416 Sc398 2.105 . S
O416 C400 1.268 . S
O417 Sc397 2.105 . S
O417 C402 1.268 . S
Sc418 O421 2.025 . S
Sc418 O428 2.105 . S
Sc418 O431 2.105 . S
Sc418 O434 2.105 . S
Sc418 O437 2.105 . S
Sc419 O421 2.025 . S
Sc419 O429 2.105 . S
Sc419 O433 2.105 . S
Sc419 O435 2.105 . S
Sc419 O439 2.105 . S
Sc420 O421 2.025 . S
Sc420 O430 2.105 . S
Sc420 O432 2.105 1_655 S
Sc420 O436 2.105 1_655 S
Sc420 O438 2.105 . S
O421 Sc418 2.025 . S
O421 Sc419 2.025 . S
O421 Sc420 2.025 . S
C422 O428 1.268 . S
C422 O438 1.268 . S
C423 O429 1.268 . S
C423 O437 1.268 . S
C424 O430 1.268 . S
C424 O439 1.268 . S
C425 O431 1.268 . S
C425 O435 1.268 . S
C426 O432 1.268 1_655 S
C426 O434 1.268 . S
C427 O433 1.268 1_455 S
C427 O436 1.268 . S
O428 Sc418 2.105 . S
O428 C422 1.268 . S
O429 Sc419 2.105 . S
O429 C423 1.268 . S
O430 Sc420 2.105 . S
O430 C424 1.268 . S
O431 Sc418 2.105 . S
O431 C425 1.268 . S
O432 Sc420 2.105 1_455 S
O432 C426 1.268 1_455 S
O433 Sc419 2.105 . S
O433 C427 1.268 1_655 S
O434 Sc418 2.105 . S
O434 C426 1.268 . S
O435 Sc419 2.105 . S
O435 C425 1.268 . S
O436 Sc420 2.105 1_455 S
O436 C427 1.268 . S
O437 Sc418 2.105 . S
O437 C423 1.268 . S
O438 Sc420 2.105 . S
O438 C422 1.268 . S
O439 Sc419 2.105 . S
O439 C424 1.268 . S
Sc440 O443 2.025 . S
Sc440 O450 2.105 . S
Sc440 O453 2.105 . S
Sc440 O456 2.105 . S
Sc440 O459 2.105 . S
Sc441 O443 2.025 . S
Sc441 O451 2.105 . S
Sc441 O455 2.105 . S
Sc441 O457 2.105 . S
Sc441 O461 2.105 . S
Sc442 O443 2.025 . S
Sc442 O452 2.105 . S
Sc442 O454 2.105 . S
Sc442 O458 2.105 . S
Sc442 O460 2.105 . S
O443 Sc440 2.025 . S
O443 Sc441 2.025 . S
O443 Sc442 2.025 . S
C444 O450 1.268 . S
C444 O460 1.268 . S
C445 O451 1.268 . S
C445 O459 1.268 . S
C446 O452 1.268 . S
C446 O461 1.268 . S
C447 O453 1.268 . S
C447 O457 1.268 . S
C448 O454 1.268 . S
C448 O456 1.268 . S
C449 O455 1.268 . S
C449 O458 1.268 . S
O450 Sc440 2.105 . S
O450 C444 1.268 . S
O451 Sc441 2.105 . S
O451 C445 1.268 . S
O452 Sc442 2.105 . S
O452 C446 1.268 . S
O453 Sc440 2.105 . S
O453 C447 1.268 . S
O454 Sc442 2.105 . S
O454 C448 1.268 . S
O455 Sc441 2.105 . S
O455 C449 1.268 . S
O456 Sc440 2.105 . S
O456 C448 1.268 . S
O457 Sc441 2.105 . S
O457 C447 1.268 . S
O458 Sc442 2.105 . S
O458 C449 1.268 . S
O459 Sc440 2.105 . S
O459 C445 1.268 . S
O460 Sc442 2.105 . S
O460 C444 1.268 . S
O461 Sc441 2.105 . S
O461 C446 1.268 . S
Sc462 O465 2.025 1_554 S
Sc462 O472 2.105 1_655 S
Sc462 O475 2.105 . S
Sc462 O478 2.105 . S
Sc462 O481 2.105 1_654 S
Sc463 O465 2.025 . S
Sc463 O473 2.105 . S
Sc463 O477 2.105 . S
Sc463 O479 2.105 . S
Sc463 O483 2.105 . S
Sc464 O465 2.026 1_554 S
Sc464 O474 2.107 1_554 S
Sc464 O476 2.102 . S
Sc464 O480 2.105 . S
Sc464 O482 2.105 . S
O465 Sc462 2.025 1_556 S
O465 Sc463 2.025 . S
O465 Sc464 2.026 1_556 S
C466 O472 1.268 1_656 S
C466 O482 1.268 1_556 S
C467 O473 1.268 1_455 S
C467 O481 1.268 . S
C468 O474 1.268 . S
C468 O483 1.268 . S
C469 O475 1.268 1_556 S
C469 O479 1.268 . S
C470 O476 1.268 . S
C470 O478 1.268 . S
C471 O477 1.268 . S
C471 O480 1.268 1_556 S
O472 Sc462 2.105 1_455 S
O472 C466 1.268 1_454 S
O473 Sc463 2.105 . S
O473 C467 1.268 1_655 S
O474 Sc464 2.107 1_556 S
O474 C468 1.268 . S
O475 Sc462 2.105 . S
O475 C469 1.268 1_554 S
O476 Sc464 2.102 . S
O476 C470 1.268 . S
O477 Sc463 2.105 . S
O477 C471 1.268 . S
O478 Sc462 2.105 . S
O478 C470 1.268 . S
O479 Sc463 2.105 . S
O479 C469 1.268 . S
O480 Sc464 2.105 . S
O480 C471 1.268 1_554 S
O481 Sc462 2.105 1_456 S
O481 C467 1.268 . S
O482 Sc464 2.105 . S
O482 C466 1.268 1_554 S
O483 Sc463 2.105 . S
O483 C468 1.268 . S
Sc484 O487 2.025 . S
Sc484 O494 2.105 . S
Sc484 O497 2.105 . S
Sc484 O500 2.105 . S
Sc484 O503 2.105 . S
Sc485 O487 2.025 . S
Sc485 O495 2.105 . S
Sc485 O499 2.105 . S
Sc485 O501 2.105 . S
Sc485 O505 2.105 . S
Sc486 O487 2.025 . S
Sc486 O496 2.105 . S
Sc486 O498 2.105 . S
Sc486 O502 2.105 . S
Sc486 O504 2.117 . S
O487 Sc484 2.025 . S
O487 Sc485 2.025 . S
O487 Sc486 2.025 . S
C488 O494 1.268 . S
C488 O504 1.270 . S
C489 O495 1.268 . S
C489 O503 1.268 . S
C490 O496 1.268 . S
C490 O505 1.268 . S
C491 O497 1.268 . S
C491 O501 1.268 . S
C492 O498 1.268 . S
C492 O500 1.268 . S
C493 O499 1.268 . S
C493 O502 1.268 . S
O494 Sc484 2.105 . S
O494 C488 1.268 . S
O495 Sc485 2.105 . S
O495 C489 1.268 . S
O496 Sc486 2.105 . S
O496 C490 1.268 . S
O497 Sc484 2.105 . S
O497 C491 1.268 . S
O498 Sc486 2.105 . S
O498 C492 1.268 . S
O499 Sc485 2.105 . S
O499 C493 1.268 . S
O500 Sc484 2.105 . S
O500 C492 1.268 . S
O501 Sc485 2.105 . S
O501 C491 1.268 . S
O502 Sc486 2.105 . S
O502 C493 1.268 . S
O503 Sc484 2.105 . S
O503 C489 1.268 . S
O504 Sc486 2.117 . S
O504 C488 1.270 . S
O505 Sc485 2.105 . S
O505 C490 1.268 . S
Sc506 O509 2.025 . S
Sc506 O516 2.105 . S
Sc506 O519 2.105 . S
Sc506 O522 2.105 . S
Sc506 O525 2.105 . S
Sc507 O509 2.025 . S
Sc507 O517 2.105 . S
Sc507 O521 2.105 . S
Sc507 O523 2.105 . S
Sc507 O527 2.105 . S
Sc508 O509 2.025 . S
Sc508 O518 2.105 . S
Sc508 O520 2.105 . S
Sc508 O524 2.105 . S
Sc508 O526 2.105 . S
O509 Sc506 2.025 . S
O509 Sc507 2.025 . S
O509 Sc508 2.025 . S
C510 O516 1.268 . S
C510 O526 1.268 . S
C511 O517 1.268 . S
C511 O525 1.268 . S
C512 O518 1.268 . S
C512 O527 1.268 . S
C513 O519 1.268 . S
C513 O523 1.268 . S
C514 O520 1.268 . S
C514 O522 1.268 . S
C515 O521 1.268 . S
C515 O524 1.268 . S
O516 Sc506 2.105 . S
O516 C510 1.268 . S
O517 Sc507 2.105 . S
O517 C511 1.268 . S
O518 Sc508 2.105 . S
O518 C512 1.268 . S
O519 Sc506 2.105 . S
O519 C513 1.268 . S
O520 Sc508 2.105 . S
O520 C514 1.268 . S
O521 Sc507 2.105 . S
O521 C515 1.268 . S
O522 Sc506 2.105 . S
O522 C514 1.268 . S
O523 Sc507 2.105 . S
O523 C513 1.268 . S
O524 Sc508 2.105 . S
O524 C515 1.268 . S
O525 Sc506 2.105 . S
O525 C511 1.268 . S
O526 Sc508 2.105 . S
O526 C510 1.268 . S
O527 Sc507 2.105 . S
O527 C512 1.268 . S
Sc528 O531 2.025 . S
Sc528 O538 2.105 . S
Sc528 O541 2.105 . S
Sc528 O544 2.105 . S
Sc528 O547 2.105 . S
Sc529 O531 2.025 . S
Sc529 O539 2.105 . S
Sc529 O543 2.105 . S
Sc529 O545 2.105 . S
Sc529 O549 2.105 . S
Sc530 O531 2.025 . S
Sc530 O540 2.105 . S
Sc530 O542 2.105 . S
Sc530 O546 2.105 . S
Sc530 O548 2.105 . S
O531 Sc528 2.025 . S
O531 Sc529 2.025 . S
O531 Sc530 2.025 . S
C532 O538 1.268 . S
C532 O548 1.268 . S
C533 O539 1.268 . S
C533 O547 1.268 . S
C534 O540 1.268 . S
C534 O549 1.268 . S
C535 O541 1.268 . S
C535 O545 1.268 . S
C536 O542 1.268 . S
C536 O544 1.268 . S
C537 O543 1.268 . S
C537 O546 1.268 . S
O538 Sc528 2.105 . S
O538 C532 1.268 . S
O539 Sc529 2.105 . S
O539 C533 1.268 . S
O540 Sc530 2.105 . S
O540 C534 1.268 . S
O541 Sc528 2.105 . S
O541 C535 1.268 . S
O542 Sc530 2.105 . S
O542 C536 1.268 . S
O543 Sc529 2.105 . S
O543 C537 1.268 . S
O544 Sc528 2.105 . S
O544 C536 1.268 . S
O545 Sc529 2.105 . S
O545 C535 1.268 . S
O546 Sc530 2.105 . S
O546 C537 1.268 . S
O547 Sc528 2.105 . S
O547 C533 1.268 . S
O548 Sc530 2.105 . S
O548 C532 1.268 . S
O549 Sc529 2.105 . S
O549 C534 1.268 . S
Sc550 O553 2.026 1_554 S
Sc550 O560 2.105 . S
Sc550 O563 2.105 . S
Sc550 O566 2.102 . S
Sc550 O569 2.107 1_554 S
Sc551 O553 2.025 . S
Sc551 O561 2.105 . S
Sc551 O565 2.105 . S
Sc551 O567 2.105 . S
Sc551 O571 2.105 . S
Sc552 O553 2.025 1_554 S
Sc552 O562 2.105 1_554 S
Sc552 O564 2.105 . S
Sc552 O568 2.105 . S
Sc552 O570 2.105 . S
O553 Sc550 2.026 1_556 S
O553 Sc551 2.025 . S
O553 Sc552 2.025 1_556 S
C554 O560 1.268 1_556 S
C554 O570 1.268 1_556 S
C555 O561 1.268 . S
C555 O569 1.268 . S
C556 O562 1.268 . S
C556 O571 1.268 . S
C557 O563 1.268 1_556 S
C557 O567 1.268 . S
C558 O564 1.268 . S
C558 O566 1.268 . S
C559 O565 1.268 . S
C559 O568 1.268 1_556 S
O560 Sc550 2.105 . S
O560 C554 1.268 1_554 S
O561 Sc551 2.105 . S
O561 C555 1.268 . S
O562 Sc552 2.105 1_556 S
O562 C556 1.268 . S
O563 Sc550 2.105 . S
O563 C557 1.268 1_554 S
O564 Sc552 2.105 . S
O564 C558 1.268 . S
O565 Sc551 2.105 . S
O565 C559 1.268 . S
O566 Sc550 2.102 . S
O566 C558 1.268 . S
O567 Sc551 2.105 . S
O567 C557 1.268 . S
O568 Sc552 2.105 . S
O568 C559 1.268 1_554 S
O569 Sc550 2.107 1_556 S
O569 C555 1.268 . S
O570 Sc552 2.105 . S
O570 C554 1.268 1_554 S
O571 Sc551 2.105 . S
O571 C556 1.268 . S
Sc572 O575 2.025 . S
Sc572 O582 2.117 . S
Sc572 O585 2.105 . S
Sc572 O588 2.105 . S
Sc572 O591 2.105 . S
Sc573 O575 2.025 . S
Sc573 O583 2.105 . S
Sc573 O587 2.105 . S
Sc573 O589 2.105 . S
Sc573 O593 2.105 . S
Sc574 O575 2.025 . S
Sc574 O584 2.105 . S
Sc574 O586 2.105 . S
Sc574 O590 2.105 . S
Sc574 O592 2.105 . S
O575 Sc572 2.025 . S
O575 Sc573 2.025 . S
O575 Sc574 2.025 . S
C576 O582 1.270 . S
C576 O592 1.268 . S
C577 O583 1.268 . S
C577 O591 1.268 . S
C578 O584 1.268 . S
C578 O593 1.268 . S
C579 O585 1.268 . S
C579 O589 1.268 . S
C580 O586 1.268 . S
C580 O588 1.268 . S
C581 O587 1.268 . S
C581 O590 1.268 . S
O582 Sc572 2.117 . S
O582 C576 1.270 . S
O583 Sc573 2.105 . S
O583 C577 1.268 . S
O584 Sc574 2.105 . S
O584 C578 1.268 . S
O585 Sc572 2.105 . S
O585 C579 1.268 . S
O586 Sc574 2.105 . S
O586 C580 1.268 . S
O587 Sc573 2.105 . S
O587 C581 1.268 . S
O588 Sc572 2.105 . S
O588 C580 1.268 . S
O589 Sc573 2.105 . S
O589 C579 1.268 . S
O590 Sc574 2.105 . S
O590 C581 1.268 . S
O591 Sc572 2.105 . S
O591 C577 1.268 . S
O592 Sc574 2.105 . S
O592 C576 1.268 . S
O593 Sc573 2.105 . S
O593 C578 1.268 . S
Sc594 O597 2.025 . S
Sc594 O604 2.105 . S
Sc594 O607 2.105 . S
Sc594 O610 2.105 . S
Sc594 O613 2.105 . S
Sc595 O597 2.025 . S
Sc595 O605 2.105 . S
Sc595 O609 2.105 . S
Sc595 O611 2.105 . S
Sc595 O615 2.105 . S
Sc596 O597 2.025 . S
Sc596 O606 2.105 1_455 S
Sc596 O608 2.105 . S
Sc596 O612 2.105 . S
Sc596 O614 2.105 1_455 S
O597 Sc594 2.025 . S
O597 Sc595 2.025 . S
O597 Sc596 2.025 . S
C598 O604 1.268 . S
C598 O614 1.268 1_455 S
C599 O605 1.268 . S
C599 O613 1.268 . S
C600 O606 1.268 . S
C600 O615 1.268 1_655 S
C601 O607 1.268 . S
C601 O611 1.268 . S
C602 O608 1.268 . S
C602 O610 1.268 . S
C603 O609 1.268 . S
C603 O612 1.268 . S
O604 Sc594 2.105 . S
O604 C598 1.268 . S
O605 Sc595 2.105 . S
O605 C599 1.268 . S
O606 Sc596 2.105 1_655 S
O606 C600 1.268 . S
O607 Sc594 2.105 . S
O607 C601 1.268 . S
O608 Sc596 2.105 . S
O608 C602 1.268 . S
O609 Sc595 2.105 . S
O609 C603 1.268 . S
O610 Sc594 2.105 . S
O610 C602 1.268 . S
O611 Sc595 2.105 . S
O611 C601 1.268 . S
O612 Sc596 2.105 . S
O612 C603 1.268 . S
O613 Sc594 2.105 . S
O613 C599 1.268 . S
O614 Sc596 2.105 1_655 S
O614 C598 1.268 1_655 S
O615 Sc595 2.105 . S
O615 C600 1.268 1_455 S
Sc616 O619 2.025 . S
Sc616 O626 2.105 . S
Sc616 O629 2.105 . S
Sc616 O632 2.105 . S
Sc616 O635 2.105 . S
Sc617 O619 2.025 . S
Sc617 O627 2.105 . S
Sc617 O631 2.105 . S
Sc617 O633 2.105 . S
Sc617 O637 2.105 . S
Sc618 O619 2.025 . S
Sc618 O628 2.105 . S
Sc618 O630 2.105 . S
Sc618 O634 2.105 . S
Sc618 O636 2.105 . S
O619 Sc616 2.025 . S
O619 Sc617 2.025 . S
O619 Sc618 2.025 . S
C620 O626 1.268 . S
C620 O636 1.268 . S
C621 O627 1.268 . S
C621 O635 1.268 . S
C622 O628 1.268 . S
C622 O637 1.268 . S
C623 O629 1.268 . S
C623 O633 1.268 . S
C624 O630 1.268 . S
C624 O632 1.268 . S
C625 O631 1.268 . S
C625 O634 1.268 . S
O626 Sc616 2.105 . S
O626 C620 1.268 . S
O627 Sc617 2.105 . S
O627 C621 1.268 . S
O628 Sc618 2.105 . S
O628 C622 1.268 . S
O629 Sc616 2.105 . S
O629 C623 1.268 . S
O630 Sc618 2.105 . S
O630 C624 1.268 . S
O631 Sc617 2.105 . S
O631 C625 1.268 . S
O632 Sc616 2.105 . S
O632 C624 1.268 . S
O633 Sc617 2.105 . S
O633 C623 1.268 . S
O634 Sc618 2.105 . S
O634 C625 1.268 . S
O635 Sc616 2.105 . S
O635 C621 1.268 . S
O636 Sc618 2.105 . S
O636 C620 1.268 . S
O637 Sc617 2.105 . S
O637 C622 1.268 . S
Sc638 O641 2.025 1_556 S
Sc638 O648 2.105 . S
Sc638 O651 2.105 1_456 S
Sc638 O654 2.105 1_455 S
Sc638 O657 2.105 . S
Sc639 O641 2.025 . S
Sc639 O649 2.105 . S
Sc639 O653 2.105 . S
Sc639 O655 2.105 . S
Sc639 O659 2.105 . S
Sc640 O641 2.026 1_556 S
Sc640 O650 2.105 . S
Sc640 O652 2.105 . S
Sc640 O656 2.107 1_556 S
Sc640 O658 2.102 . S
O641 Sc638 2.025 1_554 S
O641 Sc639 2.025 . S
O641 Sc640 2.026 1_554 S
C642 O648 1.268 . S
C642 O658 1.268 . S
C643 O649 1.268 . S
C643 O657 1.268 1_554 S
C644 O650 1.268 1_554 S
C644 O659 1.268 . S
C645 O651 1.268 . S
C645 O655 1.268 1_655 S
C646 O652 1.268 1_554 S
C646 O654 1.268 1_454 S
C647 O653 1.268 . S
C647 O656 1.268 . S
O648 Sc638 2.105 . S
O648 C642 1.268 . S
O649 Sc639 2.105 . S
O649 C643 1.268 . S
O650 Sc640 2.105 . S
O650 C644 1.268 1_556 S
O651 Sc638 2.105 1_654 S
O651 C645 1.268 . S
O652 Sc640 2.105 . S
O652 C646 1.268 1_556 S
O653 Sc639 2.105 . S
O653 C647 1.268 . S
O654 Sc638 2.105 1_655 S
O654 C646 1.268 1_656 S
O655 Sc639 2.105 . S
O655 C645 1.268 1_455 S
O656 Sc640 2.107 1_554 S
O656 C647 1.268 . S
O657 Sc638 2.105 . S
O657 C643 1.268 1_556 S
O658 Sc640 2.102 . S
O658 C642 1.268 . S
O659 Sc639 2.105 . S
O659 C644 1.268 . S
Sc660 O663 2.025 . S
Sc660 O670 2.105 . S
Sc660 O673 2.105 . S
Sc660 O676 2.105 . S
Sc660 O679 2.105 . S
Sc661 O663 2.025 . S
Sc661 O671 2.105 . S
Sc661 O675 2.105 . S
Sc661 O677 2.105 . S
Sc661 O681 2.105 . S
Sc662 O663 2.025 . S
Sc662 O672 2.105 . S
Sc662 O674 2.117 . S
Sc662 O678 2.105 . S
Sc662 O680 2.105 . S
O663 Sc660 2.025 . S
O663 Sc661 2.025 . S
O663 Sc662 2.025 . S
C664 O670 1.268 . S
C664 O680 1.268 . S
C665 O671 1.268 . S
C665 O679 1.268 . S
C666 O672 1.268 . S
C666 O681 1.268 . S
C667 O673 1.268 . S
C667 O677 1.268 . S
C668 O674 1.270 . S
C668 O676 1.268 . S
C669 O675 1.268 . S
C669 O678 1.268 . S
O670 Sc660 2.105 . S
O670 C664 1.268 . S
O671 Sc661 2.105 . S
O671 C665 1.268 . S
O672 Sc662 2.105 . S
O672 C666 1.268 . S
O673 Sc660 2.105 . S
O673 C667 1.268 . S
O674 Sc662 2.117 . S
O674 C668 1.270 . S
O675 Sc661 2.105 . S
O675 C669 1.268 . S
O676 Sc660 2.105 . S
O676 C668 1.268 . S
O677 Sc661 2.105 . S
O677 C667 1.268 . S
O678 Sc662 2.105 . S
O678 C669 1.268 . S
O679 Sc660 2.105 . S
O679 C665 1.268 . S
O680 Sc662 2.105 . S
O680 C664 1.268 . S
O681 Sc661 2.105 . S
O681 C666 1.268 . S
Sc682 O685 2.025 . S
Sc682 O692 2.105 . S
Sc682 O695 2.105 . S
Sc682 O698 2.105 . S
Sc682 O701 2.105 . S
Sc683 O685 2.025 . S
Sc683 O693 2.105 . S
Sc683 O697 2.105 . S
Sc683 O699 2.105 . S
Sc683 O703 2.105 . S
Sc684 O685 2.025 . S
Sc684 O694 2.105 . S
Sc684 O696 2.105 . S
Sc684 O700 2.105 . S
Sc684 O702 2.105 . S
O685 Sc682 2.025 . S
O685 Sc683 2.025 . S
O685 Sc684 2.025 . S
C686 O692 1.268 . S
C686 O702 1.268 . S
C687 O693 1.268 . S
C687 O701 1.268 . S
C688 O694 1.268 . S
C688 O703 1.268 . S
C689 O695 1.268 . S
C689 O699 1.268 . S
C690 O696 1.268 . S
C690 O698 1.268 . S
C691 O697 1.268 . S
C691 O700 1.268 . S
O692 Sc682 2.105 . S
O692 C686 1.268 . S
O693 Sc683 2.105 . S
O693 C687 1.268 . S
O694 Sc684 2.105 . S
O694 C688 1.268 . S
O695 Sc682 2.105 . S
O695 C689 1.268 . S
O696 Sc684 2.105 . S
O696 C690 1.268 . S
O697 Sc683 2.105 . S
O697 C691 1.268 . S
O698 Sc682 2.105 . S
O698 C690 1.268 . S
O699 Sc683 2.105 . S
O699 C689 1.268 . S
O700 Sc684 2.105 . S
O700 C691 1.268 . S
O701 Sc682 2.105 . S
O701 C687 1.268 . S
O702 Sc684 2.105 . S
O702 C686 1.268 . S
O703 Sc683 2.105 . S
O703 C688 1.268 . S
C9 C97 2.094 1_545 S
C119 C27 2.094 . S
C141 C49 2.094 1_545 S
C71 C163 2.094 1_554 S
C183 C271 2.094 1_565 S
C205 C292 2.094 . S
C227 C314 2.094 1_545 S
C336 C249 2.094 1_554 S
C361 C449 2.094 . S
C471 C379 2.094 1_556 S
C401 C493 2.094 . S
C515 C423 2.094 . S
C535 C623 2.094 . S
C557 C644 2.094 1_556 S
C579 C666 2.094 . S
C601 C688 2.094 . S
C537 C7 2.694 . S
C207 C28 2.694 1_645 S
C50 C581 2.694 . S
C72 C251 2.694 1_544 S
C95 C625 2.694 . S
C117 C291 2.694 1_565 S
C665 C139 2.694 . S
C335 C161 2.694 1_664 S
C359 C185 2.694 . S
C229 C402 2.694 . S
C273 C447 2.694 . S
C491 C313 2.694 . S
C380 C559 2.694 1_554 S
C603 C424 2.694 1_455 S
C643 C469 2.694 1_454 S
C513 C687 2.694 . S
C5 C599 1.176 . S
C31 C181 1.176 . S
C53 C555 1.176 . S
C225 C75 1.176 . S
C647 C93 1.176 . S
C115 C317 1.176 . S
C691 C137 1.176 . S
C269 C159 1.176 . S
C425 C182 1.176 . S
C204 C6 1.176 . S
C381 C226 1.176 . S
C51 C248 1.176 . S
C468 C270 1.176 . S
C293 C138 1.176 . S
C315 C512 1.176 . S
C94 C337 1.176 . S
C357 C247 1.176 . S
C383 C533 1.176 . S
C203 C405 1.176 . S
C427 C577 1.176 . S
C295 C445 1.176 . S
C467 C669 1.176 . S
C339 C489 1.176 . S
C511 C621 1.176 . S
C73 C534 1.176 . S
C556 C358 1.176 . S
C578 C29 1.176 . S
C403 C600 1.176 . S
C116 C622 1.176 . S
C490 C645 1.176 . S
C667 C160 1.176 . S
C446 C689 1.176 . S
C4 C404 0.633 1_455 S
C30 C426 0.633 1_455 S
C52 C356 0.633 . S
C74 C382 0.633 . S
C488 C92 0.633 1_655 S
C510 C114 0.633 . S
C136 C444 0.633 . S
C466 C158 0.633 1_655 S
C576 C180 0.633 1_455 S
C598 C202 0.633 1_455 S
C532 C224 0.633 . S
C246 C554 0.633 . S
C268 C668 0.633 1_655 S
C690 C294 0.633 . S
C620 C316 0.633 . S
C338 C646 0.633 1_655 S
C162 C8 1.798 . S
C26 C96 1.798 . S
C48 C118 1.798 . S
C140 C70 1.798 . S
C334 C184 1.798 . S
C206 C272 1.798 . S
C290 C228 1.798 . S
C312 C250 1.798 . S
C514 C360 1.798 . S
C448 C378 1.798 . S
C470 C400 1.798 . S
C422 C492 1.798 . S
C686 C536 1.798 . S
C624 C558 1.798 . S
C642 C580 1.798 . S
C602 C664 1.798 . S
