# Generated by pormake.
# Topology whc, (6)-cn, num edge types: 1
# Building blocks:
#     Node 0, Type 0, BuildingBlock: OJICUG_clean_sbu_0, # of connection points: 6
#     Node 1, Type 0, BuildingBlock: OJICUG_clean_sbu_0, # of connection points: 6
#     Node 2, Type 0, BuildingBlock: OJICUG_clean_sbu_0, # of connection points: 6
#     Node 3, Type 0, BuildingBlock: OJICUG_clean_sbu_0, # of connection points: 6
#     Node 4, Type 0, BuildingBlock: OJICUG_clean_sbu_0, # of connection points: 6
#     Node 5, Type 0, BuildingBlock: OJICUG_clean_sbu_0, # of connection points: 6
#     Node 6, Type 0, BuildingBlock: OJICUG_clean_sbu_0, # of connection points: 6
#     Node 7, Type 0, BuildingBlock: OJICUG_clean_sbu_0, # of connection points: 6
#     Edge 8, Type (0, 0), BuildingBlock: KIFKEQ_clean_linker_1, # of connection points: 2
#     Edge 9, Type (0, 0), BuildingBlock: KIFKEQ_clean_linker_1, # of connection points: 2
#     Edge 10, Type (0, 0), BuildingBlock: KIFKEQ_clean_linker_1, # of connection points: 2
#     Edge 11, Type (0, 0), BuildingBlock: KIFKEQ_clean_linker_1, # of connection points: 2
#     Edge 12, Type (0, 0), BuildingBlock: KIFKEQ_clean_linker_1, # of connection points: 2
#     Edge 13, Type (0, 0), BuildingBlock: KIFKEQ_clean_linker_1, # of connection points: 2
#     Edge 14, Type (0, 0), BuildingBlock: KIFKEQ_clean_linker_1, # of connection points: 2
#     Edge 15, Type (0, 0), BuildingBlock: KIFKEQ_clean_linker_1, # of connection points: 2
#     Edge 16, Type (0, 0), BuildingBlock: KIFKEQ_clean_linker_1, # of connection points: 2
#     Edge 17, Type (0, 0), BuildingBlock: KIFKEQ_clean_linker_1, # of connection points: 2
#     Edge 18, Type (0, 0), BuildingBlock: KIFKEQ_clean_linker_1, # of connection points: 2
#     Edge 19, Type (0, 0), BuildingBlock: KIFKEQ_clean_linker_1, # of connection points: 2
#     Edge 20, Type (0, 0), BuildingBlock: KIFKEQ_clean_linker_1, # of connection points: 2
#     Edge 21, Type (0, 0), BuildingBlock: KIFKEQ_clean_linker_1, # of connection points: 2
#     Edge 22, Type (0, 0), BuildingBlock: KIFKEQ_clean_linker_1, # of connection points: 2
#     Edge 23, Type (0, 0), BuildingBlock: KIFKEQ_clean_linker_1, # of connection points: 2
#     Edge 24, Type (0, 0), BuildingBlock: KIFKEQ_clean_linker_1, # of connection points: 2
#     Edge 25, Type (0, 0), BuildingBlock: KIFKEQ_clean_linker_1, # of connection points: 2
#     Edge 26, Type (0, 0), BuildingBlock: KIFKEQ_clean_linker_1, # of connection points: 2
#     Edge 27, Type (0, 0), BuildingBlock: KIFKEQ_clean_linker_1, # of connection points: 2
#     Edge 28, Type (0, 0), BuildingBlock: KIFKEQ_clean_linker_1, # of connection points: 2
#     Edge 29, Type (0, 0), BuildingBlock: KIFKEQ_clean_linker_1, # of connection points: 2
#     Edge 30, Type (0, 0), BuildingBlock: KIFKEQ_clean_linker_1, # of connection points: 2
#     Edge 31, Type (0, 0), BuildingBlock: KIFKEQ_clean_linker_1, # of connection points: 2
# Relax obj value: 0.339
# Max RMSD: 0.283
# Mean RMSD: 0.283
data_MOF--net-whc--node1-OJICUG_clean_sbu_0--edge1-KIFKEQ_clean_linker_1
_symmetry_space_group_name_H-M    P1
_symmetry_Int_Tables_number       1
_symmetry_cell_setting            triclinic
loop_
_symmetry_equiv_pos_as_xyz
'x, y, z'
_cell_length_a     35.997604
_cell_length_b     36.012312
_cell_length_c     31.624578
_cell_angle_alpha  89.945788
_cell_angle_beta   90.040605
_cell_angle_gamma 89.936314
loop_
_atom_site_label
_atom_site_type_symbol
_atom_site_fract_x
_atom_site_fract_y
_atom_site_fract_z
_atom_type_partial_charge
Sc0 Sc 0.43689 0.26333 0.13811 0.0
Sc1 Sc 0.40817 0.18544 0.07843 0.0
Sc2 Sc 0.49931 0.19065 0.11877 0.0
O3 O 0.44798 0.21308 0.11186 0.0
C4 C 0.52088 0.27583 0.10995 0.0
C5 C 0.40012 0.26985 0.04709 0.0
C6 C 0.48118 0.17271 0.02296 0.0
C7 C 0.35956 0.22088 0.15095 0.0
C8 C 0.47933 0.21973 0.21129 0.0
C9 C 0.44746 0.1192 0.1262 0.0
O10 O 0.48894 0.28814 0.11945 0.0
O11 O 0.39491 0.23505 0.04252 0.0
O12 O 0.50472 0.18138 0.05136 0.0
O13 O 0.38279 0.24639 0.15902 0.0
O14 O 0.49665 0.19809 0.18626 0.0
O15 O 0.41835 0.13297 0.10965 0.0
O16 O 0.458 0.24567 0.19859 0.0
O17 O 0.36461 0.19611 0.12316 0.0
O18 O 0.47787 0.13656 0.12922 0.0
O19 O 0.41478 0.28392 0.07993 0.0
O20 O 0.52839 0.24152 0.10943 0.0
O21 O 0.44646 0.17137 0.02962 0.0
Sc22 Sc 0.26815 0.54021 0.83637 0.0
Sc23 Sc 0.19236 0.56981 0.89888 0.0
Sc24 Sc 0.19623 0.47854 0.86006 0.0
O25 O 0.21894 0.52968 0.86508 0.0
C26 C 0.22078 0.4977 0.76624 0.0
C27 C 0.22378 0.61622 0.82167 0.0
C28 C 0.12396 0.52976 0.85785 0.0
C29 C 0.27742 0.57963 0.92597 0.0
C30 C 0.28194 0.45672 0.86319 0.0
C31 C 0.18412 0.49718 0.95656 0.0
O32 O 0.24915 0.51615 0.77791 0.0
O33 O 0.20196 0.61288 0.85292 0.0
O34 O 0.14108 0.49914 0.8561 0.0
O35 O 0.29076 0.56555 0.89236 0.0
O36 O 0.24764 0.44916 0.86263 0.0
O37 O 0.18006 0.53157 0.94873 0.0
O38 O 0.29414 0.4893 0.85699 0.0
O39 O 0.2427 0.58322 0.93241 0.0
O40 O 0.19296 0.4734 0.9284 0.0
O41 O 0.24838 0.59231 0.81227 0.0
O42 O 0.19818 0.48266 0.79209 0.0
O43 O 0.1389 0.55979 0.87014 0.0
Sc44 Sc 0.54286 0.71521 0.1432 0.0
Sc45 Sc 0.5683 0.79472 0.08431 0.0
Sc46 Sc 0.47813 0.7864 0.12627 0.0
O47 O 0.52991 0.76552 0.11803 0.0
C48 C 0.45859 0.70072 0.11767 0.0
C49 C 0.57838 0.71088 0.05169 0.0
C50 C 0.49411 0.80463 0.0299 0.0
C51 C 0.61917 0.7599 0.15509 0.0
C52 C 0.50161 0.75758 0.21807 0.0
C53 C 0.5273 0.8598 0.13203 0.0
O54 O 0.4911 0.68917 0.12578 0.0
O55 O 0.5832 0.74582 0.04812 0.0
O56 O 0.47118 0.79524 0.05871 0.0
O57 O 0.5972 0.73311 0.16241 0.0
O58 O 0.48317 0.7791 0.19379 0.0
O59 O 0.55668 0.84687 0.11533 0.0
O60 O 0.52284 0.7319 0.20452 0.0
O61 O 0.61243 0.7856 0.12883 0.0
O62 O 0.49765 0.84133 0.13577 0.0
O63 O 0.56389 0.6959 0.08409 0.0
O64 O 0.4502 0.7348 0.118 0.0
O65 O 0.52886 0.80725 0.03607 0.0
Sc66 Sc 0.71895 0.44578 0.84142 0.0
Sc67 Sc 0.79289 0.41428 0.90575 0.0
Sc68 Sc 0.79038 0.50667 0.86979 0.0
O69 O 0.76736 0.45545 0.87232 0.0
C70 C 0.76803 0.49028 0.77444 0.0
C71 C 0.76299 0.36967 0.82647 0.0
C72 C 0.86217 0.45493 0.86714 0.0
C73 C 0.70707 0.40429 0.92948 0.0
C74 C 0.7047 0.52868 0.87056 0.0
C75 C 0.80055 0.48532 0.96602 0.0
O76 O 0.73989 0.47073 0.78435 0.0
O77 O 0.78423 0.3723 0.85834 0.0
O78 O 0.84536 0.48573 0.86576 0.0
O79 O 0.69468 0.41952 0.89598 0.0
O80 O 0.739 0.53601 0.87266 0.0
O81 O 0.80408 0.45104 0.95734 0.0
O82 O 0.69264 0.49651 0.86183 0.0
O83 O 0.7416 0.40021 0.93697 0.0
O84 O 0.79292 0.50987 0.93824 0.0
O85 O 0.73879 0.39394 0.81693 0.0
O86 O 0.78944 0.50513 0.8017 0.0
O87 O 0.84698 0.42482 0.87879 0.0
Sc88 Sc 0.48026 0.19345 0.61944 0.0
Sc89 Sc 0.57301 0.19165 0.58447 0.0
Sc90 Sc 0.53988 0.26634 0.6464 0.0
O91 O 0.53117 0.21718 0.61675 0.0
C92 C 0.45706 0.27877 0.61544 0.0
C93 C 0.5025 0.1818 0.52372 0.0
C94 C 0.5823 0.27709 0.55886 0.0
C95 C 0.53303 0.12248 0.62445 0.0
C96 C 0.49556 0.21816 0.71417 0.0
C97 C 0.61636 0.22342 0.66373 0.0
O98 O 0.4502 0.24434 0.61436 0.0
O99 O 0.53685 0.17932 0.53262 0.0
O100 O 0.56633 0.28985 0.59165 0.0
O101 O 0.50201 0.13892 0.62556 0.0
O102 O 0.51472 0.24639 0.70369 0.0
O103 O 0.61426 0.20149 0.63246 0.0
O104 O 0.48126 0.19595 0.68742 0.0
O105 O 0.56288 0.13784 0.61223 0.0
O106 O 0.59179 0.24763 0.67215 0.0
O107 O 0.47765 0.18921 0.55117 0.0
O108 O 0.48896 0.29145 0.62447 0.0
O109 O 0.587 0.24253 0.55236 0.0
Sc110 Sc 0.19701 0.50694 0.36017 0.0
Sc111 Sc 0.19035 0.41614 0.40088 0.0
Sc112 Sc 0.26974 0.44398 0.34347 0.0
O113 O 0.21896 0.45558 0.3681 0.0
C114 C 0.2266 0.48422 0.26842 0.0
C115 C 0.1246 0.45651 0.35315 0.0
C116 C 0.22727 0.3664 0.33107 0.0
C117 C 0.17869 0.4894 0.45628 0.0
C118 C 0.28209 0.52862 0.36885 0.0
C119 C 0.27444 0.40786 0.4344 0.0
O120 O 0.20525 0.50277 0.29272 0.0
O121 O 0.13781 0.42739 0.37019 0.0
O122 O 0.25403 0.38876 0.32538 0.0
O123 O 0.18719 0.51288 0.42765 0.0
O124 O 0.2944 0.49664 0.35975 0.0
O125 O 0.23967 0.4013 0.43675 0.0
O126 O 0.24778 0.53598 0.36967 0.0
O127 O 0.17732 0.45464 0.44984 0.0
O128 O 0.28935 0.42415 0.40306 0.0
O129 O 0.1427 0.48637 0.34942 0.0
O130 O 0.25225 0.46285 0.28191 0.0
O131 O 0.20016 0.37296 0.35545 0.0
Sc132 Sc 0.50756 0.78664 0.62665 0.0
Sc133 Sc 0.41668 0.79411 0.58724 0.0
Sc134 Sc 0.44327 0.7171 0.64934 0.0
O135 O 0.45564 0.76594 0.6211 0.0
C136 C 0.52596 0.70033 0.62319 0.0
C137 C 0.49 0.7997 0.53024 0.0
C138 C 0.40367 0.70998 0.55941 0.0
C139 C 0.45888 0.86059 0.62876 0.0
C140 C 0.48719 0.76258 0.71997 0.0
C141 C 0.36898 0.76383 0.66416 0.0
O142 O 0.53529 0.7341 0.62572 0.0
O143 O 0.45593 0.80603 0.53817 0.0
O144 O 0.41638 0.69614 0.59351 0.0
O145 O 0.48908 0.84264 0.62945 0.0
O146 O 0.4688 0.7343 0.70787 0.0
O147 O 0.37275 0.78501 0.63235 0.0
O148 O 0.50238 0.78538 0.69445 0.0
O149 O 0.42814 0.84654 0.61739 0.0
O150 O 0.3924 0.73894 0.67423 0.0
O151 O 0.51317 0.78899 0.55832 0.0
O152 O 0.49266 0.68953 0.62721 0.0
O153 O 0.4021 0.74477 0.55258 0.0
Sc154 Sc 0.7963 0.48848 0.37051 0.0
Sc155 Sc 0.80098 0.58034 0.40848 0.0
Sc156 Sc 0.72149 0.54873 0.35459 0.0
O157 O 0.77311 0.53921 0.37775 0.0
C158 C 0.76373 0.5093 0.27903 0.0
C159 C 0.86693 0.54056 0.35984 0.0
C160 C 0.76101 0.62773 0.33993 0.0
C161 C 0.81566 0.50901 0.46603 0.0
C162 C 0.71254 0.46389 0.38128 0.0
C163 C 0.71753 0.58526 0.44436 0.0
O164 O 0.7847 0.49028 0.30343 0.0
O165 O 0.85387 0.56888 0.37862 0.0
O166 O 0.73391 0.60528 0.33791 0.0
O167 O 0.80935 0.48477 0.4375 0.0
O168 O 0.69918 0.49466 0.36916 0.0
O169 O 0.7513 0.59605 0.4435 0.0
O170 O 0.74706 0.45828 0.38438 0.0
O171 O 0.8143 0.54376 0.4593 0.0
O172 O 0.70283 0.56558 0.41555 0.0
O173 O 0.84914 0.5106 0.35553 0.0
O174 O 0.73908 0.53184 0.29246 0.0
O175 O 0.79049 0.62115 0.36046 0.0
H176 H 0.2793 0.3157 0.34814 0.0
H177 H 0.18344 0.33598 0.26967 0.0
H178 H 0.29623 0.26293 0.30483 0.0
H179 H 0.20016 0.28241 0.2255 0.0
H180 H 0.30152 0.26356 0.12957 0.0
H181 H 0.25274 0.284 0.17721 0.0
H182 H 0.28943 0.20372 0.27014 0.0
H183 H 0.33913 0.18413 0.22219 0.0
C184 C 0.26113 0.30777 0.32233 0.0
C185 C 0.23054 0.32981 0.31156 0.0
C186 C 0.27051 0.27725 0.29769 0.0
C187 C 0.24975 0.26863 0.26131 0.0
C188 C 0.21682 0.28859 0.25314 0.0
C189 C 0.20722 0.31912 0.27826 0.0
C190 C 0.29795 0.24922 0.15945 0.0
C191 C 0.32392 0.22274 0.17277 0.0
C192 C 0.26982 0.26067 0.18672 0.0
C193 C 0.26769 0.24601 0.2279 0.0
C194 C 0.29081 0.21591 0.23886 0.0
C195 C 0.31913 0.2046 0.21153 0.0
H196 H 0.21979 0.68717 0.851 0.0
H197 H 0.22816 0.62237 0.73672 0.0
H198 H 0.23984 0.74251 0.81208 0.0
H199 H 0.2473 0.67728 0.6978 0.0
H200 H 0.36222 0.76235 0.74915 0.0
H201 H 0.30765 0.74199 0.78786 0.0
H202 H 0.24335 0.74466 0.67249 0.0
H203 H 0.2983 0.76591 0.63378 0.0
C204 C 0.22415 0.68523 0.81718 0.0
C205 C 0.2233 0.65063 0.79681 0.0
C206 C 0.23552 0.71683 0.79495 0.0
C207 C 0.24551 0.71409 0.75209 0.0
C208 C 0.23958 0.6804 0.73072 0.0
C209 C 0.229 0.64881 0.75304 0.0
C210 C 0.33595 0.76035 0.73254 0.0
C211 C 0.33438 0.76493 0.68857 0.0
C212 C 0.30454 0.749 0.75472 0.0
C213 C 0.27139 0.74118 0.73299 0.0
C214 C 0.26864 0.75039 0.68987 0.0
C215 C 0.30002 0.76249 0.66777 0.0
H216 H 0.80255 0.65697 0.27595 0.0
H217 H 0.70812 0.67798 0.35625 0.0
H218 H 0.78266 0.70745 0.22878 0.0
H219 H 0.6883 0.72801 0.31006 0.0
H220 H 0.64174 0.80179 0.22174 0.0
H221 H 0.69315 0.78609 0.26951 0.0
H222 H 0.72694 0.69866 0.18411 0.0
H223 H 0.67605 0.71465 0.13696 0.0
C224 C 0.77849 0.67349 0.28433 0.0
C225 C 0.75636 0.66362 0.31897 0.0
C226 C 0.76712 0.70228 0.2575 0.0
C227 C 0.73368 0.72141 0.26541 0.0
C228 C 0.71431 0.71417 0.3031 0.0
C229 C 0.72537 0.68524 0.3294 0.0
C230 C 0.66134 0.78041 0.21259 0.0
C231 C 0.65516 0.75901 0.17632 0.0
C232 C 0.69067 0.77142 0.23975 0.0
C233 C 0.71374 0.74079 0.23088 0.0
C234 C 0.70996 0.72256 0.19182 0.0
C235 C 0.68063 0.73142 0.16493 0.0
H236 H 0.7638 0.29857 0.8555 0.0
H237 H 0.7606 0.36416 0.74132 0.0
H238 H 0.74201 0.24439 0.81582 0.0
H239 H 0.73979 0.31026 0.70163 0.0
H240 H 0.68799 0.22077 0.63645 0.0
H241 H 0.74212 0.24201 0.67676 0.0
H242 H 0.67434 0.2488 0.78916 0.0
H243 H 0.62054 0.22854 0.74883 0.0
C244 C 0.76029 0.30083 0.82156 0.0
C245 C 0.76312 0.33543 0.80137 0.0
C246 C 0.74788 0.26989 0.79892 0.0
C247 C 0.73886 0.27327 0.75582 0.0
C248 C 0.74674 0.3067 0.73473 0.0
C249 C 0.75834 0.3377 0.75747 0.0
C250 C 0.68523 0.22525 0.67018 0.0
C251 C 0.65022 0.22379 0.6896 0.0
C252 C 0.71614 0.23732 0.69318 0.0
C253 C 0.71231 0.24734 0.73591 0.0
C254 C 0.67825 0.24102 0.75637 0.0
C255 C 0.64732 0.22978 0.73325 0.0
H256 H 0.48142 0.15021 0.74875 0.0
H257 H 0.50825 0.26352 0.78176 0.0
H258 H 0.4866 0.13231 0.82273 0.0
H259 H 0.51209 0.24592 0.85591 0.0
H260 H 0.44692 0.13247 0.96219 0.0
H261 H 0.45348 0.14039 0.88656 0.0
H262 H 0.54832 0.2118 0.90689 0.0
H263 H 0.54067 0.20491 0.98334 0.0
C264 C 0.48771 0.17145 0.7719 0.0
C265 C 0.49405 0.20838 0.75946 0.0
C266 C 0.49093 0.16113 0.81429 0.0
C267 C 0.50013 0.18759 0.84523 0.0
C268 C 0.50592 0.22463 0.8328 0.0
C269 C 0.50311 0.23486 0.79037 0.0
C270 C 0.46977 0.14915 0.95051 0.0
C271 C 0.49289 0.16861 0.9786 0.0
C272 C 0.47364 0.15357 0.90705 0.0
C273 C 0.50092 0.17739 0.89067 0.0
C274 C 0.52641 0.19399 0.91867 0.0
C275 C 0.52245 0.18961 0.96239 0.0
H276 H 0.21912 0.43908 -0.00319 0.0
H277 H 0.14602 0.53235 0.01837 0.0
H278 H 0.22668 0.43163 0.07334 0.0
H279 H 0.15482 0.52628 0.09369 0.0
H280 H 0.16045 0.49888 0.23042 0.0
H281 H 0.14499 0.49367 0.15596 0.0
H282 H 0.25884 0.46409 0.12806 0.0
H283 H 0.27379 0.46745 0.20324 0.0
C284 C 0.20402 0.45738 0.01785 0.0
C285 C 0.18226 0.48648 0.00161 0.0
C286 C 0.2088 0.45355 0.06164 0.0
C287 C 0.19187 0.47874 0.0898 0.0
C288 C 0.1681 0.50612 0.0733 0.0
C289 C 0.16321 0.50977 0.02989 0.0
C290 C 0.18229 0.49159 0.20836 0.0
C291 C 0.21851 0.48419 0.22261 0.0
C292 C 0.17339 0.48846 0.16559 0.0
C293 C 0.20066 0.47857 0.13579 0.0
C294 C 0.23694 0.47111 0.15011 0.0
C295 C 0.24569 0.47359 0.19311 0.0
H296 H 0.52452 0.84873 0.97016 0.0
H297 H 0.43786 0.76767 0.98934 0.0
H298 H 0.51942 0.84105 0.89445 0.0
H299 H 0.43135 0.76101 0.91266 0.0
H300 H 0.49581 0.83059 0.75633 0.0
H301 H 0.48776 0.84685 0.83037 0.0
H302 H 0.46903 0.73124 0.86068 0.0
H303 H 0.47539 0.71531 0.78624 0.0
C304 C 0.50337 0.83019 0.95799 0.0
C305 C 0.48196 0.80839 0.98559 0.0
C306 C 0.50033 0.82585 0.91442 0.0
C307 C 0.4755 0.79981 0.89733 0.0
C308 C 0.45145 0.78061 0.92488 0.0
C309 C 0.45466 0.78487 0.96876 0.0
C310 C 0.49037 0.80859 0.77889 0.0
C311 C 0.48673 0.77158 0.76553 0.0
C312 C 0.48553 0.81794 0.82135 0.0
C313 C 0.47754 0.79042 0.85161 0.0
C314 C 0.47427 0.75332 0.8382 0.0
C315 C 0.47855 0.74406 0.79561 0.0
H316 H 0.71706 0.52969 0.21448 0.0
H317 H 0.8271 0.48692 0.23969 0.0
H318 H 0.73023 0.52907 0.13878 0.0
H319 H 0.8408 0.48782 0.16458 0.0
H320 H 0.77174 0.54708 0.00556 0.0
H321 H 0.76539 0.55653 0.08192 0.0
H322 H 0.82437 0.45372 0.10441 0.0
H323 H 0.832 0.44527 0.02924 0.0
C324 C 0.74406 0.52024 0.20386 0.0
C325 C 0.77076 0.50767 0.23301 0.0
C326 C 0.7518 0.52036 0.16052 0.0
C327 C 0.78657 0.50835 0.1455 0.0
C328 C 0.81347 0.49655 0.17488 0.0
C329 C 0.80556 0.49592 0.21802 0.0
C330 C 0.78417 0.52712 0.02698 0.0
C331 C 0.80211 0.49531 0.01134 0.0
C332 C 0.78011 0.53224 0.07067 0.0
C333 C 0.79401 0.50568 0.09937 0.0
C334 C 0.81363 0.475 0.08349 0.0
C335 C 0.81778 0.47 0.04016 0.0
H336 H 0.50181 0.15581 0.24982 0.0
H337 H 0.4597 0.2658 0.27641 0.0
H338 H 0.50084 0.1413 0.32481 0.0
H339 H 0.46007 0.25172 0.35183 0.0
H340 H 0.44046 0.20931 0.48367 0.0
H341 H 0.43138 0.21548 0.40726 0.0
H342 H 0.53486 0.15744 0.3858 0.0
H343 H 0.54306 0.15008 0.46118 0.0
C344 C 0.49291 0.17714 0.27174 0.0
C345 C 0.4813 0.21216 0.25717 0.0
C346 C 0.49222 0.16876 0.31478 0.0
C347 C 0.48039 0.19534 0.3444 0.0
C348 C 0.46871 0.23037 0.32984 0.0
C349 C 0.46898 0.23862 0.28666 0.0
C350 C 0.46065 0.19701 0.46249 0.0
C351 C 0.49263 0.17954 0.47844 0.0
C352 C 0.45573 0.20096 0.41878 0.0
C353 C 0.48266 0.1874 0.39041 0.0
C354 C 0.51339 0.16798 0.40655 0.0
C355 C 0.51822 0.16397 0.44995 0.0
H356 H 0.13603 0.45682 0.51595 0.0
H357 H 0.2132 0.54702 0.49703 0.0
H358 H 0.14338 0.46219 0.59174 0.0
H359 H 0.21955 0.55364 0.57373 0.0
H360 H 0.26741 0.5107 0.69976 0.0
H361 H 0.25105 0.51646 0.62538 0.0
H362 H 0.13616 0.49406 0.65592 0.0
H363 H 0.15284 0.48682 0.73004 0.0
C364 C 0.15363 0.47873 0.52818 0.0
C365 C 0.17449 0.50114 0.50065 0.0
C366 C 0.15776 0.48192 0.57177 0.0
C367 C 0.18267 0.50784 0.58892 0.0
C368 C 0.20083 0.53274 0.56143 0.0
C369 C 0.19675 0.52943 0.51755 0.0
C370 C 0.23872 0.50666 0.6905 0.0
C371 C 0.21153 0.49775 0.72071 0.0
C372 C 0.22921 0.51057 0.64793 0.0
C373 C 0.19219 0.50612 0.63462 0.0
C374 C 0.165 0.49729 0.66493 0.0
C375 C 0.1746 0.4929 0.70743 0.0
H376 H 0.51693 0.70969 0.28311 0.0
H377 H 0.48869 0.8239 0.25626 0.0
H378 H 0.52061 0.72417 0.35835 0.0
H379 H 0.49435 0.83891 0.33078 0.0
H380 H 0.45633 0.83926 0.46831 0.0
H381 H 0.46192 0.83031 0.39305 0.0
H382 H 0.55368 0.75469 0.41341 0.0
H383 H 0.54656 0.76234 0.48992 0.0
C384 C 0.51156 0.73789 0.29333 0.0
C385 C 0.50175 0.76547 0.26391 0.0
C386 C 0.51423 0.74636 0.33639 0.0
C387 C 0.50781 0.78277 0.35084 0.0
C388 C 0.49871 0.81041 0.32109 0.0
C389 C 0.49533 0.80179 0.27828 0.0
C390 C 0.47817 0.82116 0.45684 0.0
C391 C 0.50069 0.80112 0.48514 0.0
C392 C 0.48157 0.81619 0.41341 0.0
C393 C 0.50797 0.79139 0.3969 0.0
C394 C 0.53247 0.77339 0.42508 0.0
C395 C 0.52885 0.77821 0.46889 0.0
H396 H 0.7247 0.47407 0.70596 0.0
H397 H 0.83541 0.50901 0.7409 0.0
H398 H 0.74335 0.47185 0.63212 0.0
H399 H 0.85438 0.50564 0.66712 0.0
H400 H 0.7879 0.44705 0.50514 0.0
H401 H 0.78083 0.43854 0.58146 0.0
H402 H 0.84404 0.53875 0.60321 0.0
H403 H 0.85211 0.54636 0.52767 0.0
C404 C 0.75303 0.4813 0.69788 0.0
C405 C 0.77843 0.49216 0.72928 0.0
C406 C 0.76389 0.47947 0.6556 0.0
C407 C 0.80049 0.48813 0.64373 0.0
C408 C 0.82589 0.49905 0.67514 0.0
C409 C 0.81494 0.50121 0.71742 0.0
C410 C 0.80142 0.46639 0.52637 0.0
C411 C 0.82011 0.49762 0.51054 0.0
C412 C 0.79691 0.46188 0.57003 0.0
C413 C 0.81112 0.48847 0.59838 0.0
C414 C 0.83275 0.51771 0.58243 0.0
C415 C 0.83725 0.52216 0.53902 0.0
H416 H 0.35426 0.46284 0.88999 0.0
H417 H 0.26739 0.38264 0.86646 0.0
H418 H 0.39059 0.41498 0.92595 0.0
H419 H 0.30282 0.33558 0.90342 0.0
H420 H 0.37538 0.25257 0.96724 0.0
H421 H 0.35567 0.29573 0.91197 0.0
H422 H 0.38013 0.38813 -0.00547 0.0
H423 H 0.4006 0.34551 0.04888 0.0
C424 C 0.34327 0.43489 0.89165 0.0
C425 C 0.30759 0.42676 0.87628 0.0
C426 C 0.36393 0.40754 0.91251 0.0
C427 C 0.34923 0.37168 0.91836 0.0
C428 C 0.31508 0.36281 0.89947 0.0
C429 C 0.29456 0.39001 0.87859 0.0
C430 C 0.37676 0.28211 0.97342 0.0
C431 C 0.38908 0.29551 0.01273 0.0
C432 C 0.36557 0.30683 0.94173 0.0
C433 C 0.36637 0.34539 0.9488 0.0
C434 C 0.37982 0.35868 0.98762 0.0
C435 C 0.39111 0.3341 0.0191 0.0
H436 H 0.26082 0.60022 0.0071 0.0
H437 H 0.35309 0.58556 0.92118 0.0
H438 H 0.30356 0.62121 0.06178 0.0
H439 H 0.39557 0.60742 0.97549 0.0
H440 H 0.46918 0.63112 0.08461 0.0
H441 H 0.42412 0.59514 0.04391 0.0
H442 H 0.33951 0.67667 0.07209 0.0
H443 H 0.38393 0.71184 0.11338 0.0
C444 C 0.29019 0.60153 -0.0002 0.0
C445 C 0.30345 0.59168 0.95951 0.0
C446 C 0.31468 0.61349 0.0312 0.0
C447 C 0.35296 0.61605 0.023 0.0
C448 C 0.36633 0.60521 0.98312 0.0
C449 C 0.34188 0.59307 0.95177 0.0
C450 C 0.44067 0.6407 0.08316 0.0
C451 C 0.43024 0.67459 0.10171 0.0
C452 C 0.41497 0.62032 0.05948 0.0
C453 C 0.37841 0.63338 0.05417 0.0
C454 C 0.36735 0.66567 0.07564 0.0
C455 C 0.39295 0.686 0.09915 0.0
H456 H 0.57588 0.63524 0.05008 0.0
H457 H 0.60651 0.73028 0.97397 0.0
H458 H 0.59856 0.59404 -0.00441 0.0
H459 H 0.62847 0.68856 0.9185 0.0
H460 H 0.71948 0.60243 0.87842 0.0
H461 H 0.68181 0.64864 0.91364 0.0
H462 H 0.59236 0.5693 0.9252 0.0
H463 H 0.63083 0.52224 0.89094 0.0
C464 C 0.58701 0.64743 0.02144 0.0
C465 C 0.59002 0.68615 0.0168 0.0
C466 C 0.59957 0.62368 0.98984 0.0
C467 C 0.61532 0.63798 0.95264 0.0
C468 C 0.61682 0.67671 0.94705 0.0
C469 C 0.60434 0.70059 0.97885 0.0
C470 C 0.69153 0.5949 0.88776 0.0
C471 C 0.6785 0.55835 0.88292 0.0
C472 C 0.66972 0.62163 0.9076 0.0
C473 C 0.63431 0.61248 0.92289 0.0
C474 C 0.61989 0.57692 0.9145 0.0
C475 C 0.64182 0.55003 0.89467 0.0
H476 H 0.72162 0.37845 0.00924 0.0
H477 H 0.63135 0.40053 0.92241 0.0
H478 H 0.67747 0.35456 0.06076 0.0
H479 H 0.58743 0.37584 0.9736 0.0
H480 H 0.51197 0.34703 0.08064 0.0
H481 H 0.558 0.38413 0.04266 0.0
H482 H 0.64038 0.29887 0.06458 0.0
H483 H 0.59501 0.26245 0.10308 0.0
C484 C 0.6924 0.37822 0.00108 0.0
C485 C 0.68011 0.39095 0.9614 0.0
C486 C 0.6671 0.36456 0.03067 0.0
C487 C 0.62897 0.36319 0.02124 0.0
C488 C 0.61656 0.377 0.98212 0.0
C489 C 0.64182 0.3908 0.95256 0.0
C490 C 0.54018 0.33673 0.07828 0.0
C491 C 0.54974 0.30161 0.09442 0.0
C492 C 0.56642 0.3578 0.0562 0.0
C493 C 0.60269 0.34422 0.05016 0.0
C494 C 0.6128 0.3103 0.06887 0.0
C495 C 0.58665 0.28927 0.09073 0.0
H496 H 0.61297 0.26151 0.48165 0.0
H497 H 0.58215 0.353 0.56301 0.0
H498 H 0.63795 0.30529 0.43032 0.0
H499 H 0.60781 0.39653 0.51205 0.0
H500 H 0.63935 0.47004 0.40425 0.0
H501 H 0.60207 0.42334 0.44089 0.0
H502 H 0.69252 0.34491 0.43036 0.0
H503 H 0.72927 0.39095 0.39324 0.0
C504 C 0.61144 0.29091 0.48861 0.0
C505 C 0.59601 0.30368 0.52677 0.0
C506 C 0.62572 0.31598 0.45914 0.0
C507 C 0.62494 0.35433 0.46719 0.0
C508 C 0.60837 0.36718 0.50463 0.0
C509 C 0.59402 0.34215 0.53408 0.0
C510 C 0.65086 0.44253 0.40884 0.0
C511 C 0.6874 0.43431 0.39632 0.0
C512 C 0.62964 0.41592 0.43011 0.0
C513 C 0.64453 0.38062 0.4389 0.0
C514 C 0.68011 0.37173 0.42383 0.0
C515 C 0.7013 0.39827 0.4028 0.0
H516 H 0.38411 0.26214 0.60282 0.0
H517 H 0.4622 0.35317 0.59697 0.0
H518 H 0.3379 0.29971 0.56731 0.0
H519 H 0.41508 0.39148 0.56243 0.0
H520 H 0.25498 0.37565 0.51002 0.0
H521 H 0.29666 0.35199 0.56471 0.0
H522 H 0.39122 0.3884 0.49148 0.0
H523 H 0.34998 0.41282 0.43783 0.0
C524 C 0.39119 0.29052 0.59482 0.0
C525 C 0.42719 0.30436 0.60183 0.0
C526 C 0.36443 0.31225 0.5748 0.0
C527 C 0.37294 0.34844 0.56148 0.0
C528 C 0.40795 0.3634 0.5716 0.0
C529 C 0.43487 0.34154 0.5916 0.0
C530 C 0.28465 0.37893 0.50585 0.0
C531 C 0.2991 0.39559 0.46918 0.0
C532 C 0.30853 0.36541 0.5372 0.0
C533 C 0.34728 0.36817 0.5324 0.0
C534 C 0.36155 0.3863 0.49661 0.0
C535 C 0.33779 0.39991 0.46547 0.0
H536 H 0.39835 0.6343 0.56333 0.0
H537 H 0.38111 0.72741 0.479 0.0
H538 H 0.37615 0.59227 0.50891 0.0
H539 H 0.35959 0.68503 0.4242 0.0
H540 H 0.26895 0.60285 0.37454 0.0
H541 H 0.30411 0.64782 0.41514 0.0
H542 H 0.38866 0.56522 0.43943 0.0
H543 H 0.35283 0.51964 0.39935 0.0
C544 C 0.39014 0.64583 0.53308 0.0
C545 C 0.39102 0.68434 0.52581 0.0
C546 C 0.37784 0.62162 0.50166 0.0
C547 C 0.36623 0.63531 0.46218 0.0
C548 C 0.36805 0.67369 0.45445 0.0
C549 C 0.38029 0.69796 0.48592 0.0
C550 C 0.29542 0.59443 0.38775 0.0
C551 C 0.3078 0.55751 0.38435 0.0
C552 C 0.31573 0.62033 0.41084 0.0
C553 C 0.34888 0.60991 0.43105 0.0
C554 C 0.36283 0.57382 0.4248 0.0
C555 C 0.3425 0.54784 0.40152 0.0
H556 H 0.72055 0.64919 0.49043 0.0
H557 H 0.66078 0.54586 0.4785 0.0
H558 H 0.6758 0.67039 0.5428 0.0
H559 H 0.6171 0.56596 0.53256 0.0
H560 H 0.51791 0.64074 0.57127 0.0
H561 H 0.56748 0.60756 0.53533 0.0
H562 H 0.64897 0.66672 0.60997 0.0
H563 H 0.59914 0.70133 0.64409 0.0
C564 C 0.69832 0.6307 0.49986 0.0
C565 C 0.69367 0.59626 0.48 0.0
C566 C 0.67276 0.64264 0.53015 0.0
C567 C 0.64248 0.62001 0.54175 0.0
C568 C 0.63944 0.5845 0.52369 0.0
C569 C 0.66453 0.57292 0.49283 0.0
C570 C 0.54639 0.64586 0.58073 0.0
C571 C 0.55482 0.67386 0.60994 0.0
C572 C 0.57493 0.6268 0.5602 0.0
C573 C 0.61242 0.63494 0.56913 0.0
C574 C 0.62053 0.66054 0.60136 0.0
C575 C 0.59201 0.6801 0.62122 0.0
H576 H 0.4752 0.08962 0.19811 0.0
H577 H 0.4264 0.06107 0.07775 0.0
H578 H 0.49804 0.02589 0.20604 0.0
H579 H 0.44996 -0.00245 0.08527 0.0
H580 H 0.54919 0.91737 0.08303 0.0
H581 H 0.52459 0.98068 0.08749 0.0
H582 H 0.4718 0.95402 0.20617 0.0
H583 H 0.49575 0.89046 0.20132 0.0
C584 C 0.46818 0.06923 0.17422 0.0
C585 C 0.44895 0.07985 0.13745 0.0
C586 C 0.48153 0.03307 0.17856 0.0
C587 C 0.4764 0.00749 0.14576 0.0
C588 C 0.45461 0.01725 0.11059 0.0
C589 C 0.44062 0.05323 0.10663 0.0
C590 C 0.53361 0.92552 0.11083 0.0
C591 C 0.52436 0.89937 0.14189 0.0
C592 C 0.51903 0.96137 0.11301 0.0
C593 C 0.4957 0.97153 0.14667 0.0
C594 C 0.48946 0.94649 0.1798 0.0
C595 C 0.50343 0.91044 0.17721 0.0
H596 H 0.89335 0.47969 0.79518 0.0
H597 H 0.91896 0.43705 0.91938 0.0
H598 H 0.95725 0.5019 0.78774 0.0
H599 H 0.98284 0.45983 0.91232 0.0
H600 H 0.06871 0.55309 0.90942 0.0
H601 H 0.00456 0.53038 0.90748 0.0
H602 H 0.02618 0.4768 0.78791 0.0
H603 H 0.09037 0.49898 0.79023 0.0
C604 C 0.91319 0.47389 0.82014 0.0
C605 C 0.90178 0.45634 0.85759 0.0
C606 C 0.94944 0.48691 0.81609 0.0
C607 C 0.97439 0.48322 0.84986 0.0
C608 C 0.96368 0.46345 0.8862 0.0
C609 C 0.92755 0.44982 0.88993 0.0
C610 C 0.05921 0.53775 0.88201 0.0
C611 C 0.08404 0.52791 0.84983 0.0
C612 C 0.02291 0.5242 0.88127 0.0
C613 C 0.01103 0.50123 0.848 0.0
C614 C 0.03492 0.49425 0.81396 0.0
C615 C 0.07135 0.50722 0.81508 0.0
H616 H 0.43624 0.91718 0.5786 0.0
H617 H 0.49126 0.89228 0.69659 0.0
H618 H 0.45935 0.98113 0.58227 0.0
H619 H 0.51369 0.95637 0.70074 0.0
H620 H 0.50669 0.09065 0.69546 0.0
H621 H 0.48563 0.02625 0.70193 0.0
H622 H 0.53203 0.0019 0.57918 0.0
H623 H 0.55383 0.06619 0.57318 0.0
C624 C 0.45193 0.9259 0.6061 0.0
C625 C 0.46184 0.90028 0.63748 0.0
C626 C 0.46566 0.96209 0.60784 0.0
C627 C 0.48883 0.97304 0.64135 0.0
C628 C 0.49607 0.94828 0.67453 0.0
C629 C 0.48299 0.91194 0.67235 0.0
C630 C 0.51371 0.071 0.67077 0.0
C631 C 0.53214 0.08286 0.63406 0.0
C632 C 0.50137 0.03447 0.67427 0.0
C633 C 0.50661 0.00975 0.64063 0.0
C634 C 0.52731 0.0209 0.60519 0.0
C635 C 0.54032 0.05728 0.60207 0.0
H636 H 0.89581 0.51371 0.28713 0.0
H637 H 0.92568 0.56011 0.40827 0.0
H638 H 0.95888 0.48923 0.27898 0.0
H639 H 0.98855 0.53503 0.40046 0.0
H640 H 0.06712 0.43563 0.40276 0.0
H641 H 0.00423 0.46133 0.39843 0.0
H642 H 0.03071 0.51172 0.27831 0.0
H643 H 0.09382 0.48659 0.28299 0.0
C644 C 0.91638 0.51991 0.31114 0.0
C645 C 0.90622 0.53884 0.34823 0.0
C646 C 0.95217 0.5056 0.30668 0.0
C647 C 0.97788 0.5095 0.33963 0.0
C648 C 0.96872 0.5312 0.37505 0.0
C649 C 0.93312 0.54612 0.37915 0.0
C650 C 0.05895 0.45082 0.37465 0.0
C651 C 0.08499 0.45912 0.34315 0.0
C652 C 0.02336 0.46608 0.37255 0.0
C653 C 0.01333 0.48918 0.33857 0.0
C654 C 0.03812 0.49427 0.30495 0.0
C655 C 0.07391 0.4796 0.30742 0.0
loop_
_geom_bond_atom_site_label_1
_geom_bond_atom_site_label_2
_geom_bond_distance
_geom_bond_site_symmetry_2
_ccdc_geom_bond_type
Sc0 O3 2.025 . S
Sc0 O10 2.105 . S
Sc0 O13 2.105 . S
Sc0 O16 2.105 . S
Sc0 O19 2.105 . S
Sc1 O3 2.025 . S
Sc1 O11 2.105 . S
Sc1 O15 2.105 . S
Sc1 O17 2.105 . S
Sc1 O21 2.105 . S
Sc2 O3 2.025 . S
Sc2 O12 2.105 . S
Sc2 O14 2.105 . S
Sc2 O18 2.105 . S
Sc2 O20 2.105 . S
O3 Sc0 2.025 . S
O3 Sc1 2.025 . S
O3 Sc2 2.025 . S
C4 O10 1.268 . S
C4 O20 1.268 . S
C5 O11 1.268 . S
C5 O19 1.268 . S
C6 O12 1.268 1_556 S
C6 O21 1.268 1_556 S
C7 O13 1.268 . S
C7 O17 1.268 . S
C8 O14 1.268 . S
C8 O16 1.268 . S
C9 O15 1.268 . S
C9 O18 1.268 . S
O10 Sc0 2.105 . S
O10 C4 1.268 . S
O11 Sc1 2.105 . S
O11 C5 1.268 . S
O12 Sc2 2.105 . S
O12 C6 1.268 1_554 S
O13 Sc0 2.105 . S
O13 C7 1.268 . S
O14 Sc2 2.105 . S
O14 C8 1.268 . S
O15 Sc1 2.105 . S
O15 C9 1.268 . S
O16 Sc0 2.105 . S
O16 C8 1.268 . S
O17 Sc1 2.105 . S
O17 C7 1.268 . S
O18 Sc2 2.105 . S
O18 C9 1.268 . S
O19 Sc0 2.105 . S
O19 C5 1.268 . S
O20 Sc2 2.105 . S
O20 C4 1.268 . S
O21 Sc1 2.105 . S
O21 C6 1.268 1_554 S
Sc22 O25 2.025 . S
Sc22 O32 2.105 . S
Sc22 O35 2.105 . S
Sc22 O38 2.105 . S
Sc22 O41 2.105 . S
Sc23 O25 2.025 . S
Sc23 O33 2.105 . S
Sc23 O37 2.105 . S
Sc23 O39 2.105 . S
Sc23 O43 2.105 . S
Sc24 O25 2.025 . S
Sc24 O34 2.105 . S
Sc24 O36 2.105 . S
Sc24 O40 2.105 . S
Sc24 O42 2.105 . S
O25 Sc22 2.025 . S
O25 Sc23 2.025 . S
O25 Sc24 2.025 . S
C26 O32 1.268 . S
C26 O42 1.268 . S
C27 O33 1.268 . S
C27 O41 1.268 . S
C28 O34 1.268 . S
C28 O43 1.268 . S
C29 O35 1.268 . S
C29 O39 1.268 . S
C30 O36 1.268 . S
C30 O38 1.268 . S
C31 O37 1.268 1_554 S
C31 O40 1.268 1_554 S
O32 Sc22 2.105 . S
O32 C26 1.268 . S
O33 Sc23 2.105 . S
O33 C27 1.268 . S
O34 Sc24 2.105 . S
O34 C28 1.268 . S
O35 Sc22 2.105 . S
O35 C29 1.268 . S
O36 Sc24 2.105 . S
O36 C30 1.268 . S
O37 Sc23 2.105 . S
O37 C31 1.268 1_556 S
O38 Sc22 2.105 . S
O38 C30 1.268 . S
O39 Sc23 2.105 . S
O39 C29 1.268 . S
O40 Sc24 2.105 . S
O40 C31 1.268 1_556 S
O41 Sc22 2.105 . S
O41 C27 1.268 . S
O42 Sc24 2.105 . S
O42 C26 1.268 . S
O43 Sc23 2.105 . S
O43 C28 1.268 . S
Sc44 O47 2.025 . S
Sc44 O54 2.105 . S
Sc44 O57 2.105 . S
Sc44 O60 2.105 . S
Sc44 O63 2.105 . S
Sc45 O47 2.025 . S
Sc45 O55 2.105 . S
Sc45 O59 2.105 . S
Sc45 O61 2.105 . S
Sc45 O65 2.105 . S
Sc46 O47 2.025 . S
Sc46 O56 2.105 . S
Sc46 O58 2.105 . S
Sc46 O62 2.105 . S
Sc46 O64 2.105 . S
O47 Sc44 2.025 . S
O47 Sc45 2.025 . S
O47 Sc46 2.025 . S
C48 O54 1.268 . S
C48 O64 1.268 . S
C49 O55 1.268 . S
C49 O63 1.268 . S
C50 O56 1.268 1_556 S
C50 O65 1.268 1_556 S
C51 O57 1.268 . S
C51 O61 1.268 . S
C52 O58 1.268 . S
C52 O60 1.268 . S
C53 O59 1.268 . S
C53 O62 1.268 . S
O54 Sc44 2.105 . S
O54 C48 1.268 . S
O55 Sc45 2.105 . S
O55 C49 1.268 . S
O56 Sc46 2.105 . S
O56 C50 1.268 1_554 S
O57 Sc44 2.105 . S
O57 C51 1.268 . S
O58 Sc46 2.105 . S
O58 C52 1.268 . S
O59 Sc45 2.105 . S
O59 C53 1.268 . S
O60 Sc44 2.105 . S
O60 C52 1.268 . S
O61 Sc45 2.105 . S
O61 C51 1.268 . S
O62 Sc46 2.105 . S
O62 C53 1.268 . S
O63 Sc44 2.105 . S
O63 C49 1.268 . S
O64 Sc46 2.105 . S
O64 C48 1.268 . S
O65 Sc45 2.105 . S
O65 C50 1.268 1_554 S
Sc66 O69 2.025 . S
Sc66 O76 2.105 . S
Sc66 O79 2.105 . S
Sc66 O82 2.105 . S
Sc66 O85 2.105 . S
Sc67 O69 2.025 . S
Sc67 O77 2.105 . S
Sc67 O81 2.105 . S
Sc67 O83 2.105 . S
Sc67 O87 2.105 . S
Sc68 O69 2.025 . S
Sc68 O78 2.105 . S
Sc68 O80 2.105 . S
Sc68 O84 2.105 . S
Sc68 O86 2.105 . S
O69 Sc66 2.025 . S
O69 Sc67 2.025 . S
O69 Sc68 2.025 . S
C70 O76 1.268 . S
C70 O86 1.268 . S
C71 O77 1.268 . S
C71 O85 1.268 . S
C72 O78 1.268 . S
C72 O87 1.268 . S
C73 O79 1.268 . S
C73 O83 1.268 . S
C74 O80 1.268 . S
C74 O82 1.268 . S
C75 O81 1.268 1_554 S
C75 O84 1.268 1_554 S
O76 Sc66 2.105 . S
O76 C70 1.268 . S
O77 Sc67 2.105 . S
O77 C71 1.268 . S
O78 Sc68 2.105 . S
O78 C72 1.268 . S
O79 Sc66 2.105 . S
O79 C73 1.268 . S
O80 Sc68 2.105 . S
O80 C74 1.268 . S
O81 Sc67 2.105 . S
O81 C75 1.268 1_556 S
O82 Sc66 2.105 . S
O82 C74 1.268 . S
O83 Sc67 2.105 . S
O83 C73 1.268 . S
O84 Sc68 2.105 . S
O84 C75 1.268 1_556 S
O85 Sc66 2.105 . S
O85 C71 1.268 . S
O86 Sc68 2.105 . S
O86 C70 1.268 . S
O87 Sc67 2.105 . S
O87 C72 1.268 . S
Sc88 O91 2.025 . S
Sc88 O98 2.105 . S
Sc88 O101 2.105 . S
Sc88 O104 2.105 . S
Sc88 O107 2.105 . S
Sc89 O91 2.025 . S
Sc89 O99 2.105 . S
Sc89 O103 2.105 . S
Sc89 O105 2.105 . S
Sc89 O109 2.105 . S
Sc90 O91 2.025 . S
Sc90 O100 2.105 . S
Sc90 O102 2.105 . S
Sc90 O106 2.105 . S
Sc90 O108 2.105 . S
O91 Sc88 2.025 . S
O91 Sc89 2.025 . S
O91 Sc90 2.025 . S
C92 O98 1.268 . S
C92 O108 1.268 . S
C93 O99 1.268 . S
C93 O107 1.268 . S
C94 O100 1.268 . S
C94 O109 1.268 . S
C95 O101 1.268 . S
C95 O105 1.268 . S
C96 O102 1.268 . S
C96 O104 1.268 . S
C97 O103 1.268 . S
C97 O106 1.268 . S
O98 Sc88 2.105 . S
O98 C92 1.268 . S
O99 Sc89 2.105 . S
O99 C93 1.268 . S
O100 Sc90 2.105 . S
O100 C94 1.268 . S
O101 Sc88 2.105 . S
O101 C95 1.268 . S
O102 Sc90 2.105 . S
O102 C96 1.268 . S
O103 Sc89 2.105 . S
O103 C97 1.268 . S
O104 Sc88 2.105 . S
O104 C96 1.268 . S
O105 Sc89 2.105 . S
O105 C95 1.268 . S
O106 Sc90 2.105 . S
O106 C97 1.268 . S
O107 Sc88 2.105 . S
O107 C93 1.268 . S
O108 Sc90 2.105 . S
O108 C92 1.268 . S
O109 Sc89 2.105 . S
O109 C94 1.268 . S
Sc110 O113 2.025 . S
Sc110 O120 2.105 . S
Sc110 O123 2.105 . S
Sc110 O126 2.105 . S
Sc110 O129 2.105 . S
Sc111 O113 2.025 . S
Sc111 O121 2.105 . S
Sc111 O125 2.105 . S
Sc111 O127 2.105 . S
Sc111 O131 2.105 . S
Sc112 O113 2.025 . S
Sc112 O122 2.105 . S
Sc112 O124 2.105 . S
Sc112 O128 2.105 . S
Sc112 O130 2.105 . S
O113 Sc110 2.025 . S
O113 Sc111 2.025 . S
O113 Sc112 2.025 . S
C114 O120 1.268 . S
C114 O130 1.268 . S
C115 O121 1.268 . S
C115 O129 1.268 . S
C116 O122 1.268 . S
C116 O131 1.268 . S
C117 O123 1.268 . S
C117 O127 1.268 . S
C118 O124 1.268 . S
C118 O126 1.268 . S
C119 O125 1.268 . S
C119 O128 1.268 . S
O120 Sc110 2.105 . S
O120 C114 1.268 . S
O121 Sc111 2.105 . S
O121 C115 1.268 . S
O122 Sc112 2.105 . S
O122 C116 1.268 . S
O123 Sc110 2.105 . S
O123 C117 1.268 . S
O124 Sc112 2.105 . S
O124 C118 1.268 . S
O125 Sc111 2.105 . S
O125 C119 1.268 . S
O126 Sc110 2.105 . S
O126 C118 1.268 . S
O127 Sc111 2.105 . S
O127 C117 1.268 . S
O128 Sc112 2.105 . S
O128 C119 1.268 . S
O129 Sc110 2.105 . S
O129 C115 1.268 . S
O130 Sc112 2.105 . S
O130 C114 1.268 . S
O131 Sc111 2.105 . S
O131 C116 1.268 . S
Sc132 O135 2.025 . S
Sc132 O142 2.105 . S
Sc132 O145 2.105 . S
Sc132 O148 2.105 . S
Sc132 O151 2.105 . S
Sc133 O135 2.025 . S
Sc133 O143 2.105 . S
Sc133 O147 2.105 . S
Sc133 O149 2.105 . S
Sc133 O153 2.105 . S
Sc134 O135 2.025 . S
Sc134 O144 2.105 . S
Sc134 O146 2.105 . S
Sc134 O150 2.105 . S
Sc134 O152 2.105 . S
O135 Sc132 2.025 . S
O135 Sc133 2.025 . S
O135 Sc134 2.025 . S
C136 O142 1.268 . S
C136 O152 1.268 . S
C137 O143 1.268 . S
C137 O151 1.268 . S
C138 O144 1.268 . S
C138 O153 1.268 . S
C139 O145 1.268 . S
C139 O149 1.268 . S
C140 O146 1.268 . S
C140 O148 1.268 . S
C141 O147 1.268 . S
C141 O150 1.268 . S
O142 Sc132 2.105 . S
O142 C136 1.268 . S
O143 Sc133 2.105 . S
O143 C137 1.268 . S
O144 Sc134 2.105 . S
O144 C138 1.268 . S
O145 Sc132 2.105 . S
O145 C139 1.268 . S
O146 Sc134 2.105 . S
O146 C140 1.268 . S
O147 Sc133 2.105 . S
O147 C141 1.268 . S
O148 Sc132 2.105 . S
O148 C140 1.268 . S
O149 Sc133 2.105 . S
O149 C139 1.268 . S
O150 Sc134 2.105 . S
O150 C141 1.268 . S
O151 Sc132 2.105 . S
O151 C137 1.268 . S
O152 Sc134 2.105 . S
O152 C136 1.268 . S
O153 Sc133 2.105 . S
O153 C138 1.268 . S
Sc154 O157 2.025 . S
Sc154 O164 2.105 . S
Sc154 O167 2.105 . S
Sc154 O170 2.105 . S
Sc154 O173 2.105 . S
Sc155 O157 2.025 . S
Sc155 O165 2.105 . S
Sc155 O169 2.105 . S
Sc155 O171 2.105 . S
Sc155 O175 2.105 . S
Sc156 O157 2.025 . S
Sc156 O166 2.105 . S
Sc156 O168 2.105 . S
Sc156 O172 2.105 . S
Sc156 O174 2.105 . S
O157 Sc154 2.025 . S
O157 Sc155 2.025 . S
O157 Sc156 2.025 . S
C158 O164 1.268 . S
C158 O174 1.268 . S
C159 O165 1.268 . S
C159 O173 1.268 . S
C160 O166 1.268 . S
C160 O175 1.268 . S
C161 O167 1.268 . S
C161 O171 1.268 . S
C162 O168 1.268 . S
C162 O170 1.268 . S
C163 O169 1.268 . S
C163 O172 1.268 . S
O164 Sc154 2.105 . S
O164 C158 1.268 . S
O165 Sc155 2.105 . S
O165 C159 1.268 . S
O166 Sc156 2.105 . S
O166 C160 1.268 . S
O167 Sc154 2.105 . S
O167 C161 1.268 . S
O168 Sc156 2.105 . S
O168 C162 1.268 . S
O169 Sc155 2.105 . S
O169 C163 1.268 . S
O170 Sc154 2.105 . S
O170 C162 1.268 . S
O171 Sc155 2.105 . S
O171 C161 1.268 . S
O172 Sc156 2.105 . S
O172 C163 1.268 . S
O173 Sc154 2.105 . S
O173 C159 1.268 . S
O174 Sc156 2.105 . S
O174 C158 1.268 . S
O175 Sc155 2.105 . S
O175 C160 1.268 . S
H176 C184 0.950 . S
H177 C189 0.950 . S
H178 C186 0.950 . S
H179 C188 0.950 . S
H180 C190 0.950 . S
H181 C192 0.950 . S
H182 C194 0.950 . S
H183 C195 0.950 . S
C184 H176 0.950 . S
C184 C185 1.386 . S
C184 C186 1.391 . S
C185 C184 1.386 . S
C185 C189 1.393 . S
C186 H178 0.950 . S
C186 C184 1.391 . S
C186 C187 1.400 . S
C187 C186 1.400 . S
C187 C188 1.398 . S
C187 C193 1.491 . S
C188 H179 0.950 . S
C188 C187 1.398 . S
C188 C189 1.391 . S
C189 H177 0.950 . S
C189 C185 1.393 . S
C189 C188 1.391 . S
C190 H180 0.950 . S
C190 C191 1.386 . S
C190 C192 1.391 . S
C191 C190 1.386 . S
C191 C195 1.393 . S
C192 H181 0.950 . S
C192 C190 1.391 . S
C192 C193 1.400 . S
C193 C187 1.491 . S
C193 C192 1.400 . S
C193 C194 1.398 . S
C194 H182 0.950 . S
C194 C193 1.398 . S
C194 C195 1.391 . S
C195 H183 0.950 . S
C195 C191 1.393 . S
C195 C194 1.391 . S
H196 C204 0.950 . S
H197 C209 0.950 . S
H198 C206 0.950 . S
H199 C208 0.950 . S
H200 C210 0.950 . S
H201 C212 0.950 . S
H202 C214 0.950 . S
H203 C215 0.950 . S
C204 H196 0.950 . S
C204 C205 1.386 . S
C204 C206 1.391 . S
C205 C204 1.386 . S
C205 C209 1.393 . S
C206 H198 0.950 . S
C206 C204 1.391 . S
C206 C207 1.400 . S
C207 C206 1.400 . S
C207 C208 1.398 . S
C207 C213 1.491 . S
C208 H199 0.950 . S
C208 C207 1.398 . S
C208 C209 1.391 . S
C209 H197 0.950 . S
C209 C205 1.393 . S
C209 C208 1.391 . S
C210 H200 0.950 . S
C210 C211 1.386 . S
C210 C212 1.391 . S
C211 C210 1.386 . S
C211 C215 1.393 . S
C212 H201 0.950 . S
C212 C210 1.391 . S
C212 C213 1.400 . S
C213 C207 1.491 . S
C213 C212 1.400 . S
C213 C214 1.398 . S
C214 H202 0.950 . S
C214 C213 1.398 . S
C214 C215 1.391 . S
C215 H203 0.950 . S
C215 C211 1.393 . S
C215 C214 1.391 . S
H216 C224 0.950 . S
H217 C229 0.950 . S
H218 C226 0.950 . S
H219 C228 0.950 . S
H220 C230 0.950 . S
H221 C232 0.950 . S
H222 C234 0.950 . S
H223 C235 0.950 . S
C224 H216 0.950 . S
C224 C225 1.386 . S
C224 C226 1.391 . S
C225 C224 1.386 . S
C225 C229 1.393 . S
C226 H218 0.950 . S
C226 C224 1.391 . S
C226 C227 1.400 . S
C227 C226 1.400 . S
C227 C228 1.398 . S
C227 C233 1.491 . S
C228 H219 0.950 . S
C228 C227 1.398 . S
C228 C229 1.391 . S
C229 H217 0.950 . S
C229 C225 1.393 . S
C229 C228 1.391 . S
C230 H220 0.950 . S
C230 C231 1.386 . S
C230 C232 1.391 . S
C231 C230 1.386 . S
C231 C235 1.393 . S
C232 H221 0.950 . S
C232 C230 1.391 . S
C232 C233 1.400 . S
C233 C227 1.491 . S
C233 C232 1.400 . S
C233 C234 1.398 . S
C234 H222 0.950 . S
C234 C233 1.398 . S
C234 C235 1.391 . S
C235 H223 0.950 . S
C235 C231 1.393 . S
C235 C234 1.391 . S
H236 C244 0.950 . S
H237 C249 0.950 . S
H238 C246 0.950 . S
H239 C248 0.950 . S
H240 C250 0.950 . S
H241 C252 0.950 . S
H242 C254 0.950 . S
H243 C255 0.950 . S
C244 H236 0.950 . S
C244 C245 1.386 . S
C244 C246 1.391 . S
C245 C244 1.386 . S
C245 C249 1.393 . S
C246 H238 0.950 . S
C246 C244 1.391 . S
C246 C247 1.400 . S
C247 C246 1.400 . S
C247 C248 1.398 . S
C247 C253 1.491 . S
C248 H239 0.950 . S
C248 C247 1.398 . S
C248 C249 1.391 . S
C249 H237 0.950 . S
C249 C245 1.393 . S
C249 C248 1.391 . S
C250 H240 0.950 . S
C250 C251 1.386 . S
C250 C252 1.391 . S
C251 C250 1.386 . S
C251 C255 1.393 . S
C252 H241 0.950 . S
C252 C250 1.391 . S
C252 C253 1.400 . S
C253 C247 1.491 . S
C253 C252 1.400 . S
C253 C254 1.398 . S
C254 H242 0.950 . S
C254 C253 1.398 . S
C254 C255 1.391 . S
C255 H243 0.950 . S
C255 C251 1.393 . S
C255 C254 1.391 . S
H256 C264 0.950 . S
H257 C269 0.950 . S
H258 C266 0.950 . S
H259 C268 0.950 . S
H260 C270 0.950 . S
H261 C272 0.950 . S
H262 C274 0.950 . S
H263 C275 0.950 . S
C264 H256 0.950 . S
C264 C265 1.386 . S
C264 C266 1.391 . S
C265 C264 1.386 . S
C265 C269 1.393 . S
C266 H258 0.950 . S
C266 C264 1.391 . S
C266 C267 1.400 . S
C267 C266 1.400 . S
C267 C268 1.398 . S
C267 C273 1.491 . S
C268 H259 0.950 . S
C268 C267 1.398 . S
C268 C269 1.391 . S
C269 H257 0.950 . S
C269 C265 1.393 . S
C269 C268 1.391 . S
C270 H260 0.950 . S
C270 C271 1.386 . S
C270 C272 1.391 . S
C271 C270 1.386 . S
C271 C275 1.393 . S
C272 H261 0.950 . S
C272 C270 1.391 . S
C272 C273 1.400 . S
C273 C267 1.491 . S
C273 C272 1.400 . S
C273 C274 1.398 . S
C274 H262 0.950 . S
C274 C273 1.398 . S
C274 C275 1.391 . S
C275 H263 0.950 . S
C275 C271 1.393 . S
C275 C274 1.391 . S
H276 C284 0.950 . S
H277 C289 0.950 . S
H278 C286 0.950 . S
H279 C288 0.950 . S
H280 C290 0.950 . S
H281 C292 0.950 . S
H282 C294 0.950 . S
H283 C295 0.950 . S
C284 H276 0.950 . S
C284 C285 1.386 . S
C284 C286 1.391 . S
C285 C284 1.386 . S
C285 C289 1.393 . S
C286 H278 0.950 . S
C286 C284 1.391 . S
C286 C287 1.400 . S
C287 C286 1.400 . S
C287 C288 1.398 . S
C287 C293 1.491 . S
C288 H279 0.950 . S
C288 C287 1.398 . S
C288 C289 1.391 . S
C289 H277 0.950 . S
C289 C285 1.393 . S
C289 C288 1.391 . S
C290 H280 0.950 . S
C290 C291 1.386 . S
C290 C292 1.391 . S
C291 C290 1.386 . S
C291 C295 1.393 . S
C292 H281 0.950 . S
C292 C290 1.391 . S
C292 C293 1.400 . S
C293 C287 1.491 . S
C293 C292 1.400 . S
C293 C294 1.398 . S
C294 H282 0.950 . S
C294 C293 1.398 . S
C294 C295 1.391 . S
C295 H283 0.950 . S
C295 C291 1.393 . S
C295 C294 1.391 . S
H296 C304 0.950 . S
H297 C309 0.950 . S
H298 C306 0.950 . S
H299 C308 0.950 . S
H300 C310 0.950 . S
H301 C312 0.950 . S
H302 C314 0.950 . S
H303 C315 0.950 . S
C304 H296 0.950 . S
C304 C305 1.386 . S
C304 C306 1.391 . S
C305 C304 1.386 . S
C305 C309 1.393 . S
C306 H298 0.950 . S
C306 C304 1.391 . S
C306 C307 1.400 . S
C307 C306 1.400 . S
C307 C308 1.398 . S
C307 C313 1.491 . S
C308 H299 0.950 . S
C308 C307 1.398 . S
C308 C309 1.391 . S
C309 H297 0.950 . S
C309 C305 1.393 . S
C309 C308 1.391 . S
C310 H300 0.950 . S
C310 C311 1.386 . S
C310 C312 1.391 . S
C311 C310 1.386 . S
C311 C315 1.393 . S
C312 H301 0.950 . S
C312 C310 1.391 . S
C312 C313 1.400 . S
C313 C307 1.491 . S
C313 C312 1.400 . S
C313 C314 1.398 . S
C314 H302 0.950 . S
C314 C313 1.398 . S
C314 C315 1.391 . S
C315 H303 0.950 . S
C315 C311 1.393 . S
C315 C314 1.391 . S
H316 C324 0.950 . S
H317 C329 0.950 . S
H318 C326 0.950 . S
H319 C328 0.950 . S
H320 C330 0.950 . S
H321 C332 0.950 . S
H322 C334 0.950 . S
H323 C335 0.950 . S
C324 H316 0.950 . S
C324 C325 1.386 . S
C324 C326 1.391 . S
C325 C324 1.386 . S
C325 C329 1.393 . S
C326 H318 0.950 . S
C326 C324 1.391 . S
C326 C327 1.400 . S
C327 C326 1.400 . S
C327 C328 1.398 . S
C327 C333 1.491 . S
C328 H319 0.950 . S
C328 C327 1.398 . S
C328 C329 1.391 . S
C329 H317 0.950 . S
C329 C325 1.393 . S
C329 C328 1.391 . S
C330 H320 0.950 . S
C330 C331 1.386 . S
C330 C332 1.391 . S
C331 C330 1.386 . S
C331 C335 1.393 . S
C332 H321 0.950 . S
C332 C330 1.391 . S
C332 C333 1.400 . S
C333 C327 1.491 . S
C333 C332 1.400 . S
C333 C334 1.398 . S
C334 H322 0.950 . S
C334 C333 1.398 . S
C334 C335 1.391 . S
C335 H323 0.950 . S
C335 C331 1.393 . S
C335 C334 1.391 . S
H336 C344 0.950 . S
H337 C349 0.950 . S
H338 C346 0.950 . S
H339 C348 0.950 . S
H340 C350 0.950 . S
H341 C352 0.950 . S
H342 C354 0.950 . S
H343 C355 0.950 . S
C344 H336 0.950 . S
C344 C345 1.386 . S
C344 C346 1.391 . S
C345 C344 1.386 . S
C345 C349 1.393 . S
C346 H338 0.950 . S
C346 C344 1.391 . S
C346 C347 1.400 . S
C347 C346 1.400 . S
C347 C348 1.398 . S
C347 C353 1.491 . S
C348 H339 0.950 . S
C348 C347 1.398 . S
C348 C349 1.391 . S
C349 H337 0.950 . S
C349 C345 1.393 . S
C349 C348 1.391 . S
C350 H340 0.950 . S
C350 C351 1.386 . S
C350 C352 1.391 . S
C351 C350 1.386 . S
C351 C355 1.393 . S
C352 H341 0.950 . S
C352 C350 1.391 . S
C352 C353 1.400 . S
C353 C347 1.491 . S
C353 C352 1.400 . S
C353 C354 1.398 . S
C354 H342 0.950 . S
C354 C353 1.398 . S
C354 C355 1.391 . S
C355 H343 0.950 . S
C355 C351 1.393 . S
C355 C354 1.391 . S
H356 C364 0.950 . S
H357 C369 0.950 . S
H358 C366 0.950 . S
H359 C368 0.950 . S
H360 C370 0.950 . S
H361 C372 0.950 . S
H362 C374 0.950 . S
H363 C375 0.950 . S
C364 H356 0.950 . S
C364 C365 1.386 . S
C364 C366 1.391 . S
C365 C364 1.386 . S
C365 C369 1.393 . S
C366 H358 0.950 . S
C366 C364 1.391 . S
C366 C367 1.400 . S
C367 C366 1.400 . S
C367 C368 1.398 . S
C367 C373 1.491 . S
C368 H359 0.950 . S
C368 C367 1.398 . S
C368 C369 1.391 . S
C369 H357 0.950 . S
C369 C365 1.393 . S
C369 C368 1.391 . S
C370 H360 0.950 . S
C370 C371 1.386 . S
C370 C372 1.391 . S
C371 C370 1.386 . S
C371 C375 1.393 . S
C372 H361 0.950 . S
C372 C370 1.391 . S
C372 C373 1.400 . S
C373 C367 1.491 . S
C373 C372 1.400 . S
C373 C374 1.398 . S
C374 H362 0.950 . S
C374 C373 1.398 . S
C374 C375 1.391 . S
C375 H363 0.950 . S
C375 C371 1.393 . S
C375 C374 1.391 . S
H376 C384 0.950 . S
H377 C389 0.950 . S
H378 C386 0.950 . S
H379 C388 0.950 . S
H380 C390 0.950 . S
H381 C392 0.950 . S
H382 C394 0.950 . S
H383 C395 0.950 . S
C384 H376 0.950 . S
C384 C385 1.386 . S
C384 C386 1.391 . S
C385 C384 1.386 . S
C385 C389 1.393 . S
C386 H378 0.950 . S
C386 C384 1.391 . S
C386 C387 1.400 . S
C387 C386 1.400 . S
C387 C388 1.398 . S
C387 C393 1.491 . S
C388 H379 0.950 . S
C388 C387 1.398 . S
C388 C389 1.391 . S
C389 H377 0.950 . S
C389 C385 1.393 . S
C389 C388 1.391 . S
C390 H380 0.950 . S
C390 C391 1.386 . S
C390 C392 1.391 . S
C391 C390 1.386 . S
C391 C395 1.393 . S
C392 H381 0.950 . S
C392 C390 1.391 . S
C392 C393 1.400 . S
C393 C387 1.491 . S
C393 C392 1.400 . S
C393 C394 1.398 . S
C394 H382 0.950 . S
C394 C393 1.398 . S
C394 C395 1.391 . S
C395 H383 0.950 . S
C395 C391 1.393 . S
C395 C394 1.391 . S
H396 C404 0.950 . S
H397 C409 0.950 . S
H398 C406 0.950 . S
H399 C408 0.950 . S
H400 C410 0.950 . S
H401 C412 0.950 . S
H402 C414 0.950 . S
H403 C415 0.950 . S
C404 H396 0.950 . S
C404 C405 1.386 . S
C404 C406 1.391 . S
C405 C404 1.386 . S
C405 C409 1.393 . S
C406 H398 0.950 . S
C406 C404 1.391 . S
C406 C407 1.400 . S
C407 C406 1.400 . S
C407 C408 1.398 . S
C407 C413 1.491 . S
C408 H399 0.950 . S
C408 C407 1.398 . S
C408 C409 1.391 . S
C409 H397 0.950 . S
C409 C405 1.393 . S
C409 C408 1.391 . S
C410 H400 0.950 . S
C410 C411 1.386 . S
C410 C412 1.391 . S
C411 C410 1.386 . S
C411 C415 1.393 . S
C412 H401 0.950 . S
C412 C410 1.391 . S
C412 C413 1.400 . S
C413 C407 1.491 . S
C413 C412 1.400 . S
C413 C414 1.398 . S
C414 H402 0.950 . S
C414 C413 1.398 . S
C414 C415 1.391 . S
C415 H403 0.950 . S
C415 C411 1.393 . S
C415 C414 1.391 . S
H416 C424 0.950 . S
H417 C429 0.950 . S
H418 C426 0.950 . S
H419 C428 0.950 1_554 S
H420 C430 0.950 . S
H421 C432 0.950 . S
H422 C434 0.950 . S
H423 C435 0.950 . S
C424 H416 0.950 . S
C424 C425 1.386 . S
C424 C426 1.391 . S
C425 C424 1.386 . S
C425 C429 1.393 . S
C426 H418 0.950 . S
C426 C424 1.391 . S
C426 C427 1.400 . S
C427 C426 1.400 . S
C427 C428 1.398 . S
C427 C433 1.491 . S
C428 H419 0.950 1_556 S
C428 C427 1.398 . S
C428 C429 1.391 . S
C429 H417 0.950 . S
C429 C425 1.393 . S
C429 C428 1.391 . S
C430 H420 0.950 . S
C430 C431 1.386 . S
C430 C432 1.391 . S
C431 C430 1.386 . S
C431 C435 1.393 1_554 S
C432 H421 0.950 . S
C432 C430 1.391 . S
C432 C433 1.400 1_554 S
C433 C427 1.491 . S
C433 C432 1.400 1_556 S
C433 C434 1.398 . S
C434 H422 0.950 . S
C434 C433 1.398 . S
C434 C435 1.391 . S
C435 H423 0.950 . S
C435 C431 1.393 1_556 S
C435 C434 1.391 . S
H436 C444 0.950 . S
H437 C449 0.950 . S
H438 C446 0.950 . S
H439 C448 0.950 . S
H440 C450 0.950 . S
H441 C452 0.950 . S
H442 C454 0.950 1_556 S
H443 C455 0.950 . S
C444 H436 0.950 . S
C444 C445 1.386 . S
C444 C446 1.391 . S
C445 C444 1.386 . S
C445 C449 1.393 1_556 S
C446 H438 0.950 . S
C446 C444 1.391 . S
C446 C447 1.400 1_556 S
C447 C446 1.400 1_554 S
C447 C448 1.398 . S
C447 C453 1.491 . S
C448 H439 0.950 . S
C448 C447 1.398 . S
C448 C449 1.391 . S
C449 H437 0.950 . S
C449 C445 1.393 1_554 S
C449 C448 1.391 . S
C450 H440 0.950 . S
C450 C451 1.386 . S
C450 C452 1.391 . S
C451 C450 1.386 . S
C451 C455 1.393 . S
C452 H441 0.950 . S
C452 C450 1.391 . S
C452 C453 1.400 . S
C453 C447 1.491 . S
C453 C452 1.400 . S
C453 C454 1.398 . S
C454 H442 0.950 1_554 S
C454 C453 1.398 . S
C454 C455 1.391 . S
C455 H443 0.950 . S
C455 C451 1.393 . S
C455 C454 1.391 . S
H456 C464 0.950 . S
H457 C469 0.950 . S
H458 C466 0.950 . S
H459 C468 0.952 . S
H460 C470 0.950 . S
H461 C472 0.950 . S
H462 C474 0.950 . S
H463 C475 0.950 . S
C464 H456 0.950 . S
C464 C465 1.386 . S
C464 C466 1.391 1_554 S
C465 C464 1.386 . S
C465 C469 1.393 . S
C466 H458 0.950 . S
C466 C464 1.391 1_556 S
C466 C467 1.400 . S
C467 C466 1.400 . S
C467 C468 1.398 1_556 S
C467 C473 1.491 . S
C468 H459 0.952 . S
C468 C467 1.398 1_554 S
C468 C469 1.391 . S
C469 H457 0.950 . S
C469 C465 1.393 . S
C469 C468 1.391 . S
C470 H460 0.950 . S
C470 C471 1.386 . S
C470 C472 1.391 . S
C471 C470 1.386 . S
C471 C475 1.393 . S
C472 H461 0.950 . S
C472 C470 1.391 . S
C472 C473 1.400 . S
C473 C467 1.491 . S
C473 C472 1.400 . S
C473 C474 1.398 . S
C474 H462 0.950 . S
C474 C473 1.398 . S
C474 C475 1.391 . S
C475 H463 0.950 . S
C475 C471 1.393 . S
C475 C474 1.391 . S
H476 C484 0.950 . S
H477 C489 0.950 . S
H478 C486 0.950 . S
H479 C488 0.950 . S
H480 C490 0.950 . S
H481 C492 0.950 . S
H482 C494 0.950 . S
H483 C495 0.950 . S
C484 H476 0.950 . S
C484 C485 1.386 . S
C484 C486 1.391 . S
C485 C484 1.386 . S
C485 C489 1.393 . S
C486 H478 0.950 . S
C486 C484 1.391 . S
C486 C487 1.400 1_556 S
C487 C486 1.400 1_554 S
C487 C488 1.398 . S
C487 C493 1.491 . S
C488 H479 0.950 . S
C488 C487 1.398 . S
C488 C489 1.391 1_554 S
C489 H477 0.950 . S
C489 C485 1.393 . S
C489 C488 1.391 1_556 S
C490 H480 0.950 . S
C490 C491 1.386 . S
C490 C492 1.391 . S
C491 C490 1.386 . S
C491 C495 1.393 . S
C492 H481 0.950 . S
C492 C490 1.391 . S
C492 C493 1.400 . S
C493 C487 1.491 . S
C493 C492 1.400 . S
C493 C494 1.398 . S
C494 H482 0.950 . S
C494 C493 1.398 . S
C494 C495 1.391 . S
C495 H483 0.950 . S
C495 C491 1.393 . S
C495 C494 1.391 . S
H496 C504 0.950 . S
H497 C509 0.950 . S
H498 C506 0.950 . S
H499 C508 0.950 . S
H500 C510 0.950 . S
H501 C512 0.950 . S
H502 C514 0.950 . S
H503 C515 0.950 . S
C504 H496 0.950 . S
C504 C505 1.386 . S
C504 C506 1.391 . S
C505 C504 1.386 . S
C505 C509 1.393 . S
C506 H498 0.950 . S
C506 C504 1.391 . S
C506 C507 1.400 . S
C507 C506 1.400 . S
C507 C508 1.398 . S
C507 C513 1.491 . S
C508 H499 0.950 . S
C508 C507 1.398 . S
C508 C509 1.391 . S
C509 H497 0.950 . S
C509 C505 1.393 . S
C509 C508 1.391 . S
C510 H500 0.950 . S
C510 C511 1.386 . S
C510 C512 1.391 . S
C511 C510 1.386 . S
C511 C515 1.393 . S
C512 H501 0.950 . S
C512 C510 1.391 . S
C512 C513 1.400 . S
C513 C507 1.491 . S
C513 C512 1.400 . S
C513 C514 1.398 . S
C514 H502 0.950 . S
C514 C513 1.398 . S
C514 C515 1.391 . S
C515 H503 0.950 . S
C515 C511 1.393 . S
C515 C514 1.391 . S
H516 C524 0.950 . S
H517 C529 0.950 . S
H518 C526 0.950 . S
H519 C528 0.950 . S
H520 C530 0.950 . S
H521 C532 0.950 . S
H522 C534 0.950 . S
H523 C535 0.950 . S
C524 H516 0.950 . S
C524 C525 1.386 . S
C524 C526 1.391 . S
C525 C524 1.386 . S
C525 C529 1.393 . S
C526 H518 0.950 . S
C526 C524 1.391 . S
C526 C527 1.400 . S
C527 C526 1.400 . S
C527 C528 1.398 . S
C527 C533 1.491 . S
C528 H519 0.950 . S
C528 C527 1.398 . S
C528 C529 1.391 . S
C529 H517 0.950 . S
C529 C525 1.393 . S
C529 C528 1.391 . S
C530 H520 0.950 . S
C530 C531 1.386 . S
C530 C532 1.391 . S
C531 C530 1.386 . S
C531 C535 1.393 . S
C532 H521 0.950 . S
C532 C530 1.391 . S
C532 C533 1.400 . S
C533 C527 1.491 . S
C533 C532 1.400 . S
C533 C534 1.398 . S
C534 H522 0.950 . S
C534 C533 1.398 . S
C534 C535 1.391 . S
C535 H523 0.950 . S
C535 C531 1.393 . S
C535 C534 1.391 . S
H536 C544 0.950 . S
H537 C549 0.950 . S
H538 C546 0.950 . S
H539 C548 0.950 . S
H540 C550 0.950 . S
H541 C552 0.950 . S
H542 C554 0.950 . S
H543 C555 0.950 . S
C544 H536 0.950 . S
C544 C545 1.386 . S
C544 C546 1.391 . S
C545 C544 1.386 . S
C545 C549 1.393 . S
C546 H538 0.950 . S
C546 C544 1.391 . S
C546 C547 1.400 . S
C547 C546 1.400 . S
C547 C548 1.398 . S
C547 C553 1.491 . S
C548 H539 0.950 . S
C548 C547 1.398 . S
C548 C549 1.391 . S
C549 H537 0.950 . S
C549 C545 1.393 . S
C549 C548 1.391 . S
C550 H540 0.950 . S
C550 C551 1.386 . S
C550 C552 1.391 . S
C551 C550 1.386 . S
C551 C555 1.393 . S
C552 H541 0.950 . S
C552 C550 1.391 . S
C552 C553 1.400 . S
C553 C547 1.491 . S
C553 C552 1.400 . S
C553 C554 1.398 . S
C554 H542 0.950 . S
C554 C553 1.398 . S
C554 C555 1.391 . S
C555 H543 0.950 . S
C555 C551 1.393 . S
C555 C554 1.391 . S
H556 C564 0.950 . S
H557 C569 0.950 . S
H558 C566 0.950 . S
H559 C568 0.950 . S
H560 C570 0.950 . S
H561 C572 0.950 . S
H562 C574 0.950 . S
H563 C575 0.950 . S
C564 H556 0.950 . S
C564 C565 1.386 . S
C564 C566 1.391 . S
C565 C564 1.386 . S
C565 C569 1.393 . S
C566 H558 0.950 . S
C566 C564 1.391 . S
C566 C567 1.400 . S
C567 C566 1.400 . S
C567 C568 1.398 . S
C567 C573 1.491 . S
C568 H559 0.950 . S
C568 C567 1.398 . S
C568 C569 1.391 . S
C569 H557 0.950 . S
C569 C565 1.393 . S
C569 C568 1.391 . S
C570 H560 0.950 . S
C570 C571 1.386 . S
C570 C572 1.391 . S
C571 C570 1.386 . S
C571 C575 1.393 . S
C572 H561 0.950 . S
C572 C570 1.391 . S
C572 C573 1.400 . S
C573 C567 1.491 . S
C573 C572 1.400 . S
C573 C574 1.398 . S
C574 H562 0.950 . S
C574 C573 1.398 . S
C574 C575 1.391 . S
C575 H563 0.950 . S
C575 C571 1.393 . S
C575 C574 1.391 . S
H576 C584 0.950 . S
H577 C589 0.950 . S
H578 C586 0.950 . S
H579 C588 0.950 . S
H580 C590 0.950 . S
H581 C592 0.950 . S
H582 C594 0.950 . S
H583 C595 0.950 . S
C584 H576 0.950 . S
C584 C585 1.386 . S
C584 C586 1.391 . S
C585 C584 1.386 . S
C585 C589 1.393 . S
C586 H578 0.950 . S
C586 C584 1.391 . S
C586 C587 1.400 . S
C587 C586 1.400 . S
C587 C588 1.398 . S
C587 C593 1.491 1_545 S
C588 H579 0.950 . S
C588 C587 1.398 . S
C588 C589 1.391 . S
C589 H577 0.950 . S
C589 C585 1.393 . S
C589 C588 1.391 . S
C590 H580 0.950 . S
C590 C591 1.386 . S
C590 C592 1.391 . S
C591 C590 1.386 . S
C591 C595 1.393 . S
C592 H581 0.950 . S
C592 C590 1.391 . S
C592 C593 1.400 . S
C593 C587 1.491 1_565 S
C593 C592 1.400 . S
C593 C594 1.398 . S
C594 H582 0.950 . S
C594 C593 1.398 . S
C594 C595 1.391 . S
C595 H583 0.950 . S
C595 C591 1.393 . S
C595 C594 1.391 . S
H596 C604 0.950 . S
H597 C609 0.950 . S
H598 C606 0.950 . S
H599 C608 0.950 1_455 S
H600 C610 0.950 . S
H601 C612 0.950 . S
H602 C614 0.950 1_655 S
H603 C615 0.950 . S
C604 H596 0.950 . S
C604 C605 1.386 . S
C604 C606 1.391 . S
C605 C604 1.386 . S
C605 C609 1.393 . S
C606 H598 0.950 . S
C606 C604 1.391 . S
C606 C607 1.400 . S
C607 C606 1.400 . S
C607 C608 1.398 . S
C607 C613 1.491 1_655 S
C608 H599 0.950 1_655 S
C608 C607 1.398 . S
C608 C609 1.391 . S
C609 H597 0.950 . S
C609 C605 1.393 . S
C609 C608 1.391 . S
C610 H600 0.950 . S
C610 C611 1.386 . S
C610 C612 1.391 . S
C611 C610 1.386 . S
C611 C615 1.393 . S
C612 H601 0.950 . S
C612 C610 1.391 . S
C612 C613 1.400 . S
C613 C607 1.491 1_455 S
C613 C612 1.400 . S
C613 C614 1.398 . S
C614 H602 0.950 1_455 S
C614 C613 1.398 . S
C614 C615 1.391 . S
C615 H603 0.950 . S
C615 C611 1.393 . S
C615 C614 1.391 . S
H616 C624 0.950 . S
H617 C629 0.950 . S
H618 C626 0.950 . S
H619 C628 0.950 . S
H620 C630 0.950 . S
H621 C632 0.950 . S
H622 C634 0.950 . S
H623 C635 0.950 . S
C624 H616 0.950 . S
C624 C625 1.386 . S
C624 C626 1.391 . S
C625 C624 1.386 . S
C625 C629 1.393 . S
C626 H618 0.950 . S
C626 C624 1.391 . S
C626 C627 1.400 . S
C627 C626 1.400 . S
C627 C628 1.398 . S
C627 C633 1.491 1_565 S
C628 H619 0.950 . S
C628 C627 1.398 . S
C628 C629 1.391 . S
C629 H617 0.950 . S
C629 C625 1.393 . S
C629 C628 1.391 . S
C630 H620 0.950 . S
C630 C631 1.386 . S
C630 C632 1.391 . S
C631 C630 1.386 . S
C631 C635 1.393 . S
C632 H621 0.950 . S
C632 C630 1.391 . S
C632 C633 1.400 . S
C633 C627 1.491 1_545 S
C633 C632 1.400 . S
C633 C634 1.398 . S
C634 H622 0.950 . S
C634 C633 1.398 . S
C634 C635 1.391 . S
C635 H623 0.950 . S
C635 C631 1.393 . S
C635 C634 1.391 . S
H636 C644 0.950 . S
H637 C649 0.950 . S
H638 C646 0.950 . S
H639 C648 0.950 . S
H640 C650 0.950 . S
H641 C652 0.950 . S
H642 C654 0.950 . S
H643 C655 0.950 . S
C644 H636 0.950 . S
C644 C645 1.386 . S
C644 C646 1.391 . S
C645 C644 1.386 . S
C645 C649 1.393 . S
C646 H638 0.950 . S
C646 C644 1.391 . S
C646 C647 1.400 . S
C647 C646 1.400 . S
C647 C648 1.398 . S
C647 C653 1.491 1_655 S
C648 H639 0.950 . S
C648 C647 1.398 . S
C648 C649 1.391 . S
C649 H637 0.950 . S
C649 C645 1.393 . S
C649 C648 1.391 . S
C650 H640 0.950 . S
C650 C651 1.386 . S
C650 C652 1.391 . S
C651 C650 1.386 . S
C651 C655 1.393 . S
C652 H641 0.950 . S
C652 C650 1.391 . S
C652 C653 1.400 . S
C653 C647 1.491 1_455 S
C653 C652 1.400 . S
C653 C654 1.398 . S
C654 H642 0.950 . S
C654 C653 1.398 . S
C654 C655 1.391 . S
C655 H643 0.950 . S
C655 C651 1.393 . S
C655 C654 1.391 . S
C185 C116 1.201 . S
C191 C7 1.175 . S
C205 C27 1.182 . S
C211 C141 1.185 . S
C225 C160 1.190 . S
C231 C51 1.220 . S
C245 C71 1.176 . S
C251 C97 1.207 . S
C265 C96 1.440 . S
C271 C6 1.453 . S
C285 C31 1.451 . S
C291 C114 1.447 . S
C305 C50 1.451 . S
C311 C140 1.448 . S
C325 C158 1.441 . S
C331 C75 1.453 . S
C345 C8 1.445 . S
C351 C93 1.452 . S
C365 C117 1.452 . S
C371 C26 1.445 . S
C385 C52 1.445 . S
C391 C137 1.452 . S
C405 C70 1.450 . S
C411 C161 1.450 . S
C425 C30 1.027 . S
C431 C5 1.014 . S
C445 C29 1.018 . S
C451 C48 1.026 . S
C465 C49 1.020 . S
C471 C74 1.024 . S
C485 C73 1.022 . S
C491 C4 1.023 . S
C505 C94 1.022 . S
C511 C162 1.014 . S
C525 C92 1.008 . S
C531 C119 1.012 . S
C545 C138 1.005 . S
C551 C118 1.007 . S
C565 C163 0.997 . S
C571 C136 1.018 . S
C585 C9 1.574 . S
C591 C53 1.564 . S
C605 C72 1.541 . S
C611 C28 1.562 . S
C625 C139 1.573 . S
C631 C95 1.567 . S
C645 C159 1.574 . S
C651 C115 1.566 . S
