# Generated by pormake.
# Topology wke, (5)-cn, num edge types: 1
# Building blocks:
#     Node 0, Type 0, BuildingBlock: XOMCOT_clean_sbu_0, # of connection points: 5
#     Node 1, Type 0, BuildingBlock: XOMCOT_clean_sbu_0, # of connection points: 5
#     Node 2, Type 0, BuildingBlock: XOMCOT_clean_sbu_0, # of connection points: 5
#     Node 3, Type 0, BuildingBlock: XOMCOT_clean_sbu_0, # of connection points: 5
#     Node 4, Type 0, BuildingBlock: XOMCOT_clean_sbu_0, # of connection points: 5
#     Node 5, Type 0, BuildingBlock: XOMCOT_clean_sbu_0, # of connection points: 5
#     Node 6, Type 0, BuildingBlock: XOMCOT_clean_sbu_0, # of connection points: 5
#     Node 7, Type 0, BuildingBlock: XOMCOT_clean_sbu_0, # of connection points: 5
#     Node 8, Type 0, BuildingBlock: XOMCOT_clean_sbu_0, # of connection points: 5
#     Node 9, Type 0, BuildingBlock: XOMCOT_clean_sbu_0, # of connection points: 5
#     Node 10, Type 0, BuildingBlock: XOMCOT_clean_sbu_0, # of connection points: 5
#     Node 11, Type 0, BuildingBlock: XOMCOT_clean_sbu_0, # of connection points: 5
#     Edge 12, Type (0, 0), BuildingBlock: CIFDUS_clean_linker_0, # of connection points: 2
#     Edge 13, Type (0, 0), BuildingBlock: CIFDUS_clean_linker_0, # of connection points: 2
#     Edge 14, Type (0, 0), BuildingBlock: CIFDUS_clean_linker_0, # of connection points: 2
#     Edge 15, Type (0, 0), BuildingBlock: CIFDUS_clean_linker_0, # of connection points: 2
#     Edge 16, Type (0, 0), BuildingBlock: CIFDUS_clean_linker_0, # of connection points: 2
#     Edge 17, Type (0, 0), BuildingBlock: CIFDUS_clean_linker_0, # of connection points: 2
#     Edge 18, Type (0, 0), BuildingBlock: CIFDUS_clean_linker_0, # of connection points: 2
#     Edge 19, Type (0, 0), BuildingBlock: CIFDUS_clean_linker_0, # of connection points: 2
#     Edge 20, Type (0, 0), BuildingBlock: CIFDUS_clean_linker_0, # of connection points: 2
#     Edge 21, Type (0, 0), BuildingBlock: CIFDUS_clean_linker_0, # of connection points: 2
#     Edge 22, Type (0, 0), BuildingBlock: CIFDUS_clean_linker_0, # of connection points: 2
#     Edge 23, Type (0, 0), BuildingBlock: CIFDUS_clean_linker_0, # of connection points: 2
#     Edge 24, Type (0, 0), BuildingBlock: CIFDUS_clean_linker_0, # of connection points: 2
#     Edge 25, Type (0, 0), BuildingBlock: CIFDUS_clean_linker_0, # of connection points: 2
#     Edge 26, Type (0, 0), BuildingBlock: CIFDUS_clean_linker_0, # of connection points: 2
#     Edge 27, Type (0, 0), BuildingBlock: CIFDUS_clean_linker_0, # of connection points: 2
#     Edge 28, Type (0, 0), BuildingBlock: CIFDUS_clean_linker_0, # of connection points: 2
#     Edge 29, Type (0, 0), BuildingBlock: CIFDUS_clean_linker_0, # of connection points: 2
#     Edge 30, Type (0, 0), BuildingBlock: CIFDUS_clean_linker_0, # of connection points: 2
#     Edge 31, Type (0, 0), BuildingBlock: CIFDUS_clean_linker_0, # of connection points: 2
#     Edge 32, Type (0, 0), BuildingBlock: CIFDUS_clean_linker_0, # of connection points: 2
#     Edge 33, Type (0, 0), BuildingBlock: CIFDUS_clean_linker_0, # of connection points: 2
#     Edge 34, Type (0, 0), BuildingBlock: CIFDUS_clean_linker_0, # of connection points: 2
#     Edge 35, Type (0, 0), BuildingBlock: CIFDUS_clean_linker_0, # of connection points: 2
#     Edge 36, Type (0, 0), BuildingBlock: CIFDUS_clean_linker_0, # of connection points: 2
#     Edge 37, Type (0, 0), BuildingBlock: CIFDUS_clean_linker_0, # of connection points: 2
#     Edge 38, Type (0, 0), BuildingBlock: CIFDUS_clean_linker_0, # of connection points: 2
#     Edge 39, Type (0, 0), BuildingBlock: CIFDUS_clean_linker_0, # of connection points: 2
#     Edge 40, Type (0, 0), BuildingBlock: CIFDUS_clean_linker_0, # of connection points: 2
#     Edge 41, Type (0, 0), BuildingBlock: CIFDUS_clean_linker_0, # of connection points: 2
# Relax obj value: 0.147
# Max RMSD: 0.150
# Mean RMSD: 0.150
data_MOF--net-wke--node1-XOMCOT_clean_sbu_0--edge1-CIFDUS_clean_linker_0
_symmetry_space_group_name_H-M    P1
_symmetry_Int_Tables_number       1
_symmetry_cell_setting            triclinic
loop_
_symmetry_equiv_pos_as_xyz
'x, y, z'
_cell_length_a     62.897322
_cell_length_b     62.939197
_cell_length_c     15.724126
_cell_angle_alpha  90.075964
_cell_angle_beta   90.027148
_cell_angle_gamma 120.07369
loop_
_atom_site_label
_atom_site_type_symbol
_atom_site_fract_x
_atom_site_fract_y
_atom_site_fract_z
_atom_type_partial_charge
Co0 Co 0.11343 0.41873 0.32162 0.0
C1 C 0.11162 0.41414 0.12892 0.0
C2 C 0.08754 0.38031 0.19156 0.0
C3 C 0.08598 0.37612 0.10521 0.0
N4 N 0.10308 0.40434 0.20722 0.0
N5 N 0.10109 0.39742 0.06539 0.0
H6 H 0.12633 0.4326 0.11794 0.0
H7 H 0.07832 0.36645 0.23983 0.0
C8 C 0.05899 0.38862 0.343 0.0
O9 O 0.05672 0.39861 0.27276 0.0
N10 N 0.12392 0.43245 0.43539 0.0
C11 C 0.14046 0.45602 0.4528 0.0
C12 C 0.14222 0.4593 0.53961 0.0
C13 C 0.11589 0.4216 0.51241 0.0
N14 N 0.12671 0.43773 0.57755 0.0
C15 C 0.11413 0.45955 0.23796 0.0
C16 C 0.08071 0.46317 0.3419 0.0
C17 C 0.09072 0.47929 0.27283 0.0
C18 C 0.10789 0.47747 0.22137 0.0
C19 C 0.0874 0.4453 0.35581 0.0
N20 N 0.10295 0.44276 0.30123 0.0
H21 H 0.12891 0.46009 0.2022 0.0
H22 H 0.08029 0.43373 0.41129 0.0
H23 H 0.15031 0.47002 0.40542 0.0
H24 H 0.10197 0.40253 0.52056 0.0
O25 O 0.14672 0.43801 0.28245 0.0
O26 O 0.13061 0.40038 0.33482 0.0
O27 O 0.08028 0.39402 0.3702 0.0
C28 C 0.14968 0.41971 0.30342 0.0
H29 H 0.07465 0.35859 0.07436 0.0
H30 H 0.15412 0.47639 0.5722 0.0
H31 H 0.06797 0.46443 0.38506 0.0
H32 H 0.11725 0.49049 0.1706 0.0
Co33 Co 0.69484 0.11203 0.83209 0.0
C34 C 0.69684 0.11011 0.63844 0.0
C35 C 0.71409 0.0928 0.70309 0.0
C36 C 0.71705 0.09141 0.61708 0.0
N37 N 0.70106 0.10414 0.71727 0.0
N38 N 0.70626 0.10233 0.576 0.0
H39 H 0.68805 0.12068 0.62604 0.0
H40 H 0.72116 0.08608 0.75253 0.0
C41 C 0.66962 0.05784 0.82624 0.0
O42 O 0.66227 0.06049 0.75078 0.0
N43 N 0.68977 0.12032 0.94656 0.0
C44 C 0.68159 0.13588 0.96528 0.0
C45 C 0.67923 0.13654 0.05199 0.0
C46 C 0.69259 0.1119 0.02259 0.0
N47 N 0.68608 0.12147 0.08826 0.0
C48 C 0.65681 0.11761 0.75153 0.0
C49 C 0.61821 0.08218 0.84541 0.0
C50 C 0.61356 0.09626 0.78748 0.0
C51 C 0.63324 0.11409 0.73985 0.0
C52 C 0.64204 0.08626 0.85491 0.0
N53 N 0.66098 0.10323 0.80615 0.0
H54 H 0.67191 0.13304 0.72058 0.0
H55 H 0.64535 0.07657 0.90497 0.0
H56 H 0.67735 0.14586 0.91878 0.0
H57 H 0.69871 0.0987 0.02959 0.0
O58 O 0.71055 0.14617 0.80202 0.0
O59 O 0.7302 0.12797 0.85319 0.0
O60 O 0.68377 0.07702 0.87016 0.0
C61 C 0.73117 0.14795 0.82512 0.0
H62 H 0.72646 0.08293 0.58734 0.0
H63 H 0.67306 0.14745 0.08589 0.0
H64 H 0.60369 0.06858 0.885 0.0
H65 H 0.63075 0.12621 0.69739 0.0
Co66 Co 0.58437 0.69667 0.34174 0.0
C67 C 0.58797 0.69663 0.15141 0.0
C68 C 0.61854 0.69687 0.21311 0.0
C69 C 0.62212 0.69786 0.12652 0.0
N70 N 0.59712 0.69604 0.22912 0.0
N71 N 0.60303 0.69791 0.0871 0.0
H72 H 0.57105 0.69689 0.14243 0.0
H73 H 0.63105 0.69724 0.26101 0.0
C74 C 0.59591 0.66377 0.44466 0.0
O75 O 0.57287 0.65265 0.46964 0.0
N76 N 0.57206 0.69824 0.45614 0.0
C77 C 0.55255 0.70099 0.47369 0.0
C78 C 0.54982 0.70146 0.56031 0.0
C79 C 0.58184 0.69883 0.53417 0.0
N80 N 0.56804 0.69976 0.59893 0.0
C81 C 0.53332 0.66242 0.31409 0.0
C82 C 0.53765 0.62193 0.27531 0.0
C83 C 0.51428 0.61959 0.27523 0.0
C84 C 0.51236 0.64028 0.29389 0.0
C85 C 0.55835 0.64473 0.2945 0.0
N86 N 0.55589 0.66434 0.31822 0.0
H87 H 0.5313 0.67821 0.32309 0.0
H88 H 0.57634 0.6466 0.28963 0.0
H89 H 0.54135 0.70352 0.42748 0.0
H90 H 0.59866 0.69848 0.5439 0.0
O91 O 0.57136 0.71615 0.29666 0.0
O92 O 0.60862 0.73163 0.35137 0.0
O93 O 0.60382 0.68184 0.39274 0.0
C94 C 0.59208 0.73549 0.31589 0.0
H95 H 0.63779 0.69859 0.09532 0.0
H96 H 0.53569 0.70346 0.5923 0.0
H97 H 0.53995 0.60652 0.25835 0.0
H98 H 0.49472 0.63942 0.29242 0.0
Co99 Co 0.89022 0.58081 0.84613 0.0
C100 C 0.89365 0.5848 0.65325 0.0
C101 C 0.91453 0.61924 0.71736 0.0
C102 C 0.91631 0.62347 0.63117 0.0
N103 N 0.90079 0.59492 0.73204 0.0
N104 N 0.90311 0.60183 0.59032 0.0
H105 H 0.88073 0.56572 0.64145 0.0
H106 H 0.92232 0.63314 0.76643 0.0
C107 C 0.94498 0.61033 0.86143 0.0
O108 O 0.9462 0.60177 0.78642 0.0
N109 N 0.87949 0.56736 0.95977 0.0
C110 C 0.8626 0.54391 0.97724 0.0
C111 C 0.86119 0.54064 0.06402 0.0
C112 C 0.88802 0.57815 0.03665 0.0
N113 N 0.87721 0.5621 0.10173 0.0
C114 C 0.88462 0.537 0.76893 0.0
C115 C 0.91835 0.53255 0.86839 0.0
C116 C 0.90453 0.51402 0.80887 0.0
C117 C 0.88749 0.51656 0.75885 0.0
C118 C 0.9148 0.55272 0.87667 0.0
N119 N 0.89865 0.55526 0.82523 0.0
H120 H 0.86988 0.53718 0.73489 0.0
H121 H 0.92427 0.5656 0.92746 0.0
H122 H 0.85237 0.52997 0.92991 0.0
H123 H 0.9023 0.59709 0.04476 0.0
O124 O 0.85675 0.56317 0.80743 0.0
O125 O 0.87477 0.60091 0.85986 0.0
O126 O 0.92404 0.60412 0.89415 0.0
C127 C 0.85511 0.58227 0.82788 0.0
H128 H 0.9264 0.64129 0.60126 0.0
H129 H 0.84924 0.52364 0.09684 0.0
H130 H 0.93143 0.53126 0.90972 0.0
H131 H 0.87547 0.50224 0.71508 0.0
Co132 Co 0.3038 0.88381 0.36004 0.0
C133 C 0.30359 0.88741 0.1677 0.0
C134 C 0.29861 0.91482 0.22997 0.0
C135 C 0.29653 0.91682 0.14359 0.0
N136 N 0.3039 0.89691 0.24599 0.0
N137 N 0.29961 0.89955 0.10388 0.0
H138 H 0.30421 0.8708 0.15728 0.0
H139 H 0.29535 0.92516 0.27796 0.0
C140 C 0.33296 0.93806 0.39116 0.0
O141 O 0.34516 0.94029 0.32078 0.0
N142 N 0.30276 0.87043 0.47307 0.0
C143 C 0.30616 0.85137 0.48958 0.0
C144 C 0.3069 0.84882 0.57633 0.0
C145 C 0.30123 0.87912 0.55066 0.0
N146 N 0.30401 0.86637 0.61525 0.0
C147 C 0.34369 0.8801 0.28377 0.0
C148 C 0.37791 0.90591 0.40917 0.0
C149 C 0.38459 0.89614 0.34124 0.0
C150 C 0.36726 0.8832 0.27777 0.0
C151 C 0.35433 0.90289 0.41167 0.0
N152 N 0.33761 0.89055 0.34845 0.0
H153 H 0.33009 0.86821 0.23869 0.0
H154 H 0.3493 0.90978 0.46642 0.0
H155 H 0.30875 0.84053 0.44168 0.0
H156 H 0.29903 0.89493 0.5597 0.0
O157 O 0.28653 0.85098 0.31376 0.0
O158 O 0.26868 0.87105 0.36466 0.0
O159 O 0.31551 0.91703 0.41432 0.0
C160 C 0.26633 0.85122 0.32954 0.0
H161 H 0.29247 0.92974 0.1128 0.0
H162 H 0.30967 0.83517 0.60813 0.0
H163 H 0.39066 0.91542 0.46065 0.0
H164 H 0.37153 0.87453 0.22617 0.0
Co165 Co 0.41948 0.31106 0.80664 0.0
C166 C 0.41618 0.31209 0.61335 0.0
C167 C 0.38143 0.29711 0.67632 0.0
C168 C 0.3775 0.29631 0.58999 0.0
N169 N 0.40574 0.30757 0.69183 0.0
N170 N 0.39933 0.30571 0.55022 0.0
H171 H 0.43547 0.31962 0.60136 0.0
H172 H 0.36739 0.29038 0.72494 0.0
C173 C 0.394 0.33976 0.80988 0.0
O174 O 0.40445 0.34808 0.7356 0.0
N175 N 0.43251 0.31352 0.9207 0.0
C176 C 0.45583 0.31961 0.93824 0.0
C177 C 0.45855 0.31923 0.02479 0.0
C178 C 0.42124 0.30943 0.99736 0.0
N179 N 0.43684 0.31272 0.06251 0.0
C180 C 0.46472 0.34746 0.72961 0.0
C181 C 0.47034 0.38687 0.8249 0.0
C182 C 0.48835 0.3907 0.76482 0.0
C183 C 0.48542 0.37055 0.71726 0.0
C184 C 0.44999 0.36344 0.83542 0.0
N185 N 0.44664 0.34425 0.785 0.0
H186 H 0.46387 0.33197 0.69713 0.0
H187 H 0.43745 0.36066 0.88665 0.0
H188 H 0.46996 0.32408 0.89107 0.0
H189 H 0.40203 0.30378 1.00507 0.0
O190 O 0.43513 0.293 0.77109 0.0
O191 O 0.39733 0.27604 0.82265 0.0
O192 O 0.39782 0.32422 0.84964 0.0
C193 C 0.41499 0.27318 0.79178 0.0
H194 H 0.35983 0.2888 0.55878 0.0
H195 H 0.47546 0.32372 0.05736 0.0
H196 H 0.47245 0.40163 0.866 0.0
H197 H 0.4992 0.37249 0.67177 0.0
Co198 Co 0.57842 0.88852 0.19431 0.0
C199 C 0.57806 0.88974 0.37881 0.0
C200 C 0.61392 0.91494 0.33017 0.0
C201 C 0.61537 0.91409 0.41746 0.0
N202 N 0.59052 0.89963 0.30673 0.0
N203 N 0.5928 0.89802 0.44763 0.0
H204 H 0.55877 0.87597 0.38005 0.0
H205 H 0.62906 0.92485 0.2867 0.0
C206 C 0.59598 0.93348 0.08877 0.0
O207 O 0.57372 0.92269 0.0563 0.0
N208 N 0.56687 0.87692 0.08019 0.0
C209 C 0.54397 0.86227 0.04983 0.0
C210 C 0.54524 0.86053 0.96297 0.0
C211 C 0.58173 0.88281 0.01208 0.0
N212 N 0.56901 0.87375 0.93936 0.0
C213 C 0.52875 0.8763 0.22839 0.0
C214 C 0.537 0.92351 0.24544 0.0
C215 C 0.51291 0.90375 0.25129 0.0
C216 C 0.50901 0.87992 0.24477 0.0
C217 C 0.55639 0.91901 0.23094 0.0
N218 N 0.55194 0.89567 0.21631 0.0
H219 H 0.52519 0.85769 0.2258 0.0
H220 H 0.57491 0.93436 0.23228 0.0
H221 H 0.52729 0.85365 0.08638 0.0
H222 H 0.60148 0.89443 0.01572 0.0
O223 O 0.56192 0.85507 0.23304 0.0
O224 O 0.6001 0.87459 0.18521 0.0
O225 O 0.60125 0.92293 0.14817 0.0
C226 C 0.58168 0.85442 0.21498 0.0
H227 H 0.632 0.92346 0.45503 0.0
H228 H 0.52972 0.85127 0.92029 0.0
H229 H 0.54084 0.9422 0.25364 0.0
H230 H 0.49074 0.86412 0.25106 0.0
Co231 Co 0.69713 0.58575 0.70797 0.0
C232 C 0.69935 0.58657 0.89602 0.0
C233 C 0.70608 0.62083 0.84424 0.0
C234 C 0.70939 0.6235 0.9308 0.0
N235 N 0.69904 0.59742 0.82279 0.0
N236 N 0.7053 0.60194 0.96259 0.0
H237 H 0.69647 0.56828 0.90115 0.0
H238 H 0.70949 0.63524 0.79953 0.0
C239 C 0.66416 0.60675 0.7092 0.0
O240 O 0.65582 0.59455 0.78071 0.0
N241 N 0.69635 0.57517 0.59377 0.0
C242 C 0.69267 0.55326 0.56686 0.0
C243 C 0.69296 0.55339 0.47934 0.0
C244 C 0.69897 0.58835 0.52371 0.0
N245 N 0.69683 0.57544 0.45283 0.0
C246 C 0.66304 0.53831 0.77654 0.0
C247 C 0.62313 0.5298 0.67818 0.0
C248 C 0.62091 0.51137 0.73348 0.0
C249 C 0.64124 0.51589 0.78304 0.0
C250 C 0.6454 0.55198 0.67328 0.0
N251 N 0.66481 0.55655 0.72486 0.0
H252 H 0.67887 0.54015 0.80925 0.0
H253 H 0.64726 0.56495 0.6249 0.0
H254 H 0.68965 0.53823 0.60792 0.0
H255 H 0.70254 0.60704 0.52475 0.0
O256 O 0.71683 0.57162 0.73984 0.0
O257 O 0.73215 0.60991 0.69623 0.0
O258 O 0.68155 0.60587 0.66973 0.0
C259 C 0.73613 0.59262 0.72372 0.0
H260 H 0.71537 0.64019 0.96703 0.0
H261 H 0.69 0.53829 0.4385 0.0
H262 H 0.60819 0.52668 0.63609 0.0
H263 H 0.64056 0.50194 0.82509 0.0
Co264 Co 0.11095 0.68759 0.2001 0.0
C265 C 0.1128 0.69056 0.3878 0.0
C266 C 0.09011 0.70371 0.33561 0.0
C267 C 0.0914 0.70721 0.42238 0.0
N268 N 0.10296 0.69258 0.31434 0.0
N269 N 0.10585 0.69904 0.45445 0.0
H270 H 0.12555 0.684 0.39313 0.0
H271 H 0.08108 0.70963 0.2908 0.0
C272 C 0.05587 0.6647 0.19445 0.0
O273 O 0.05469 0.65538 0.2702 0.0
N274 N 0.11902 0.68359 0.08625 0.0
C275 C 0.13332 0.67463 0.0595 0.0
C276 C 0.13353 0.67488 0.97178 0.0
C277 C 0.1109 0.68929 0.01589 0.0
N278 N 0.11929 0.684 0.945 0.0
C279 C 0.11598 0.64891 0.27526 0.0
C280 C 0.07668 0.60986 0.19569 0.0
C281 C 0.09039 0.60514 0.25531 0.0
C282 C 0.11049 0.6251 0.29406 0.0
C283 C 0.0827 0.63416 0.17944 0.0
N284 N 0.10133 0.65334 0.22287 0.0
H285 H 0.13274 0.66374 0.30068 0.0
H286 H 0.07277 0.63742 0.13005 0.0
H287 H 0.14268 0.66819 0.1007 0.0
H288 H 0.09926 0.6974 0.01671 0.0
O289 O 0.14509 0.70253 0.23099 0.0
O290 O 0.12744 0.72309 0.18378 0.0
O291 O 0.07675 0.67821 0.15918 0.0
C292 C 0.14722 0.72349 0.21109 0.0
H293 H 0.08321 0.71591 0.45854 0.0
H294 H 0.14296 0.66841 0.93099 0.0
H295 H 0.0616 0.59498 0.16156 0.0
H296 H 0.12254 0.6224 0.33637 0.0
Co297 Co 0.42784 0.12038 0.66387 0.0
C298 C 0.42388 0.11701 0.85646 0.0
C299 C 0.38968 0.09416 0.79338 0.0
C300 C 0.38556 0.09255 0.87968 0.0
N301 N 0.41385 0.10893 0.77794 0.0
N302 N 0.40705 0.10698 0.91988 0.0
H303 H 0.44258 0.13124 0.86752 0.0
H304 H 0.37568 0.08571 0.74489 0.0
C305 C 0.39724 0.06601 0.63851 0.0
O306 O 0.40566 0.06308 0.71144 0.0
N307 N 0.44126 0.13212 0.5506 0.0
C308 C 0.46481 0.14886 0.53381 0.0
C309 C 0.46818 0.15077 0.44706 0.0
C310 C 0.43051 0.12421 0.47324 0.0
N311 N 0.4467 0.13517 0.40853 0.0
C312 C 0.47004 0.12158 0.73952 0.0
C313 C 0.47347 0.08997 0.62562 0.0
C314 C 0.49135 0.1009 0.68938 0.0
C315 C 0.48939 0.11685 0.74687 0.0
C316 C 0.45433 0.09514 0.62081 0.0
N317 N 0.45227 0.11019 0.67904 0.0
H318 H 0.47035 0.1356 0.77933 0.0
H319 H 0.44181 0.0878 0.5677 0.0
H320 H 0.47881 0.15852 0.58156 0.0
H321 H 0.41151 0.11019 0.4645 0.0
O322 O 0.44666 0.15331 0.7071 0.0
O323 O 0.40879 0.13687 0.65587 0.0
O324 O 0.4036 0.08758 0.61187 0.0
C325 C 0.42785 0.1558 0.68939 0.0
H326 H 0.36788 0.08184 0.9101 0.0
H327 H 0.48533 0.16266 0.41494 0.0
H328 H 0.47453 0.07793 0.57868 0.0
H329 H 0.5034 0.12663 0.7946 0.0
Co330 Co 0.31089 0.42094 0.20121 0.0
C331 C 0.31556 0.42241 0.38605 0.0
C332 C 0.30697 0.38708 0.33752 0.0
C333 C 0.30766 0.38648 0.42521 0.0
N334 N 0.31194 0.40963 0.31367 0.0
N335 N 0.31306 0.40875 0.45534 0.0
H336 H 0.31897 0.44105 0.38777 0.0
H337 H 0.30255 0.372 0.29444 0.0
C338 C 0.34103 0.40739 0.09398 0.0
O339 O 0.35132 0.42995 0.06466 0.0
N340 N 0.30883 0.43178 0.08712 0.0
C341 C 0.31199 0.45356 0.06056 0.0
C342 C 0.30908 0.45281 0.97368 0.0
C343 C 0.3025 0.41768 0.0164 0.0
N344 N 0.30339 0.4303 0.94599 0.0
C345 C 0.34706 0.47199 0.22704 0.0
C346 C 0.3868 0.46534 0.25261 0.0
C347 C 0.39079 0.48934 0.25034 0.0
C348 C 0.37035 0.49243 0.2397 0.0
C349 C 0.36313 0.44542 0.23978 0.0
N350 N 0.34388 0.44895 0.22076 0.0
H351 H 0.33151 0.47475 0.22491 0.0
H352 H 0.36037 0.42711 0.24527 0.0
H353 H 0.31571 0.46898 0.10019 0.0
H354 H 0.29837 0.3988 0.01607 0.0
O355 O 0.2918 0.43493 0.24352 0.0
O356 O 0.27604 0.39698 0.19441 0.0
O357 O 0.32467 0.40038 0.15231 0.0
C358 C 0.27235 0.41397 0.22647 0.0
H359 H 0.30423 0.37083 0.46365 0.0
H360 H 0.31101 0.46772 0.934 0.0
H361 H 0.40182 0.46191 0.26339 0.0
H362 H 0.37223 0.51048 0.24292 0.0
Co363 Co 0.88965 0.30681 0.68335 0.0
C364 C 0.89328 0.30692 0.8756 0.0
C365 C 0.92284 0.30553 0.81386 0.0
C366 C 0.92514 0.30384 0.90024 0.0
N367 N 0.90328 0.30826 0.79752 0.0
N368 N 0.90653 0.30467 0.93958 0.0
H369 H 0.87573 0.3057 0.88566 0.0
H370 H 0.93418 0.3037 0.76617 0.0
C371 C 0.94334 0.3396 0.65134 0.0
O372 O 0.94387 0.35243 0.71809 0.0
N373 N 0.87587 0.3045 0.56998 0.0
C374 C 0.85527 0.30525 0.5532 0.0
C375 C 0.85259 0.30578 0.46646 0.0
C376 C 0.88543 0.30446 0.4925 0.0
N377 N 0.87161 0.30545 0.42784 0.0
C378 C 0.88339 0.34525 0.75928 0.0
C379 C 0.90818 0.37998 0.63487 0.0
C380 C 0.8984 0.38633 0.70406 0.0
C381 C 0.88565 0.36846 0.76638 0.0
C382 C 0.90537 0.35655 0.63014 0.0
N383 N 0.89408 0.33979 0.69381 0.0
H384 H 0.87218 0.33147 0.80485 0.0
H385 H 0.91227 0.35188 0.57459 0.0
H386 H 0.84336 0.30615 0.60091 0.0
H387 H 0.90263 0.30475 0.48357 0.0
O388 O 0.85696 0.28823 0.72952 0.0
O389 O 0.87859 0.27191 0.68021 0.0
O390 O 0.92336 0.32031 0.62984 0.0
C391 C 0.85829 0.2686 0.71466 0.0
H392 H 0.93925 0.30161 0.93133 0.0
H393 H 0.83781 0.30663 0.4344 0.0
H394 H 0.91793 0.39296 0.58445 0.0
H395 H 0.87676 0.37205 0.81891 0.0
H396 H 0.02559 0.40166 0.3831 0.0
H397 H 0.04512 0.34624 0.43093 0.0
H398 H 0.01001 0.32501 0.52799 0.0
H399 H 0.97399 0.32294 0.60179 0.0
H400 H 0.95837 0.38161 0.56539 0.0
H401 H 0.99153 0.40088 0.4614 0.0
C402 C 0.02194 0.38477 0.41416 0.0
C403 C 0.0375 0.37518 0.39903 0.0
C404 C 0.00247 0.37338 0.47222 0.0
C405 C 0.03315 0.35375 0.44134 0.0
C406 C 0.01314 0.34168 0.49679 0.0
C407 C 0.97795 0.33991 0.5707 0.0
C408 C 0.96375 0.3508 0.59015 0.0
C409 C 0.99771 0.3514 0.51313 0.0
C410 C 0.96908 0.37292 0.55082 0.0
C411 C 0.988 0.38392 0.49142 0.0
H412 H 0.67261 0.04356 0.99045 0.0
H413 H 0.63976 0.01522 0.74444 0.0
H414 H 0.61512 0.97455 0.80386 0.0
H415 H 0.59994 0.94755 0.92638 0.0
H416 H 0.63338 0.97323 0.17216 0.0
H417 H 0.66064 0.01429 0.11247 0.0
C418 C 0.66034 0.0284 0.94975 0.0
C419 C 0.65785 0.03272 0.86318 0.0
C420 C 0.64607 0.00459 0.98439 0.0
C421 C 0.64193 0.01273 0.81138 0.0
C422 C 0.62771 0.98933 0.84526 0.0
C423 C 0.61344 0.96204 0.96676 0.0
C424 C 0.61455 0.9575 0.0535 0.0
C425 C 0.62917 0.98519 0.93182 0.0
C426 C 0.63223 0.97635 0.10501 0.0
C427 C 0.64772 0.99981 0.0709 0.0
H428 H 0.67222 0.63082 0.55516 0.0
H429 H 0.62623 0.60945 0.779 0.0
H430 H 0.60176 0.6254 0.71731 0.0
H431 H 0.59193 0.64379 0.59895 0.0
H432 H 0.63773 0.66716 0.37569 0.0
H433 H 0.66372 0.65224 0.43793 0.0
C434 C 0.65699 0.62987 0.59062 0.0
C435 C 0.65107 0.6187 0.67157 0.0
C436 C 0.6428 0.63932 0.55474 0.0
C437 C 0.63126 0.61774 0.71654 0.0
C438 C 0.61713 0.62685 0.68129 0.0
C439 C 0.6076 0.64563 0.56374 0.0
C440 C 0.61272 0.65625 0.48246 0.0
C441 C 0.62249 0.63735 0.60021 0.0
C442 C 0.63339 0.65898 0.43842 0.0
C443 C 0.6482 0.6504 0.47394 0.0
H444 H 0.05122 0.66618 0.02272 0.0
H445 H 0.0089 0.6441 0.25444 0.0
H446 H 0.97082 0.62709 0.17211 0.0
H447 H 0.94945 0.61604 0.03386 0.0
H448 H 0.99192 0.63607 0.80242 0.0
H449 H 0.02994 0.65641 0.88485 0.0
C450 C 0.0337 0.65797 0.05532 0.0
C451 C 0.03296 0.65648 0.14473 0.0
C452 C 0.01185 0.6477 1.00747 0.0
C453 C 0.01003 0.64546 0.18574 0.0
C454 C 0.98822 0.6357 0.13867 0.0
C455 C 0.96701 0.62517 1.00144 0.0
C456 C 0.9678 0.62455 0.91199 0.0
C457 C 0.98888 0.63636 0.04943 0.0
C458 C 0.99076 0.63619 0.87114 0.0
C459 C 0.01254 0.64784 0.91828 0.0
H460 H 0.3701 0.01787 0.68243 0.0
H461 H 0.39437 0.0662 0.46539 0.0
H462 H 0.37602 0.03095 0.36955 0.0
H463 H 0.35517 0.98621 0.34705 0.0
H464 H 0.32947 0.93788 0.56387 0.0
H465 H 0.34609 0.97314 0.65979 0.0
C466 C 0.37115 0.02066 0.61415 0.0
C467 C 0.38367 0.04464 0.58123 0.0
C468 C 0.36038 1.00026 0.55923 0.0
C469 C 0.38471 0.04797 0.49259 0.0
C470 C 0.37435 0.0278 0.43759 0.0
C471 C 0.35308 0.98344 0.4153 0.0
C472 C 0.34118 0.95948 0.44828 0.0
C473 C 0.36247 0.00385 0.47015 0.0
C474 C 0.33836 0.95612 0.53678 0.0
C475 C 0.348 0.9763 0.59177 0.0
H476 H 0.37643 0.33418 0.97378 0.0
H477 H 0.38225 0.37145 0.73678 0.0
H478 H 0.36545 0.39459 0.80351 0.0
H479 H 0.3518 0.40657 0.93 0.0
H480 H 0.34427 0.3695 0.16773 0.0
H481 H 0.35881 0.34384 0.09996 0.0
C482 C 0.37372 0.34714 0.93663 0.0
C483 C 0.38094 0.35124 0.85052 0.0
C484 C 0.36393 0.36058 0.9756 0.0
C485 C 0.37717 0.36804 0.80327 0.0
C486 C 0.36755 0.38137 0.84134 0.0
C487 C 0.35329 0.39281 0.96698 0.0
C488 C 0.34742 0.39013 0.05379 0.0
C489 C 0.36138 0.37818 0.92764 0.0
C490 C 0.34881 0.37189 0.10068 0.0
C491 C 0.35719 0.35732 0.06199 0.0
H492 H 0.08135 0.56882 0.14174 0.0
H493 H 0.08865 0.58508 0.41022 0.0
H494 H 0.0869 0.54619 0.44051 0.0
H495 H 0.08782 0.50977 0.38943 0.0
H496 H 0.08137 0.49383 0.12072 0.0
H497 H 0.07805 0.53019 0.09186 0.0
C498 C 0.08197 0.56356 0.20695 0.0
C499 C 0.08533 0.57988 0.27356 0.0
C500 C 0.08139 0.54133 0.22382 0.0
C501 C 0.08638 0.57294 0.35776 0.0
C502 C 0.08538 0.55071 0.37514 0.0
C503 C 0.08511 0.51393 0.32479 0.0
C504 C 0.08507 0.49923 0.2573 0.0
C505 C 0.08357 0.53507 0.30851 0.0
C506 C 0.08183 0.50507 0.17371 0.0
C507 C 0.07989 0.52583 0.15714 0.0
H508 H 0.51252 0.09385 0.82923 0.0
H509 H 0.51898 0.1003 0.5561 0.0
H510 H 0.55654 0.09794 0.56182 0.0
H511 H 0.58893 0.09651 0.64518 0.0
H512 H 0.583 0.09137 0.9187 0.0
H513 H 0.54391 0.09065 0.91196 0.0
C514 C 0.52215 0.09471 0.77096 0.0
C515 C 0.51298 0.09734 0.69245 0.0
C516 C 0.54389 0.09364 0.77477 0.0
C517 C 0.52545 0.09803 0.61735 0.0
C518 C 0.54706 0.09687 0.6206 0.0
C519 C 0.57904 0.09521 0.70326 0.0
C520 C 0.58892 0.09403 0.78226 0.0
C521 C 0.55665 0.09506 0.69905 0.0
C522 C 0.57572 0.092 0.85692 0.0
C523 C 0.55342 0.09177 0.85322 0.0
H524 H 0.49812 0.57454 0.34585 0.0
H525 H 0.47996 0.61241 0.1566 0.0
H526 H 0.44064 0.57521 0.12994 0.0
H527 H 0.41059 0.53264 0.16508 0.0
H528 H 0.42753 0.49488 0.35883 0.0
H529 H 0.46817 0.53106 0.37817 0.0
C530 C 0.48565 0.57444 0.29798 0.0
C531 C 0.49184 0.59614 0.25337 0.0
C532 C 0.4628 0.55306 0.28414 0.0
C533 C 0.47547 0.59593 0.19206 0.0
C534 C 0.453 0.5747 0.17688 0.0
C535 C 0.42309 0.53234 0.21196 0.0
C536 C 0.41588 0.51106 0.26071 0.0
C537 C 0.44628 0.5533 0.2236 0.0
C538 C 0.4326 0.51088 0.31984 0.0
C539 C 0.45583 0.53164 0.3313 0.0
H540 H 0.90199 0.48815 0.66603 0.0
H541 H 0.91074 0.48841 0.93845 0.0
H542 H 0.91073 0.44971 0.92958 0.0
H543 H 0.9064 0.41477 0.84534 0.0
H544 H 0.89504 0.41346 0.5741 0.0
H545 H 0.89779 0.45343 0.58202 0.0
C546 C 0.90378 0.47973 0.72364 0.0
C547 C 0.90632 0.4913 0.80278 0.0
C548 C 0.90319 0.45715 0.71842 0.0
C549 C 0.90912 0.48024 0.87643 0.0
C550 C 0.90887 0.45792 0.87157 0.0
C551 C 0.90437 0.42313 0.78798 0.0
C552 C 0.90054 0.411 0.70925 0.0
C553 C 0.9056 0.44605 0.79304 0.0
C554 C 0.89837 0.42241 0.63545 0.0
C555 C 0.89977 0.44525 0.63993 0.0
H556 H 0.47784 0.88401 0.37326 0.0
H557 H 0.50039 0.93181 0.15529 0.0
H558 H 0.46273 0.93419 0.16426 0.0
H559 H 0.42202 0.92045 0.22944 0.0
H560 H 0.40066 0.87432 0.45153 0.0
H561 H 0.43911 0.87337 0.44593 0.0
C562 C 0.47455 0.89511 0.32832 0.0
C563 C 0.4917 0.90759 0.2634 0.0
C564 C 0.453 0.89651 0.33435 0.0
C565 C 0.48745 0.92214 0.20599 0.0
C566 C 0.46587 0.92337 0.21079 0.0
C567 C 0.426 0.9104 0.27677 0.0
C568 C 0.40867 0.89735 0.34052 0.0
C569 C 0.44832 0.9103 0.27386 0.0
C570 C 0.41388 0.88449 0.40209 0.0
C571 C 0.43578 0.88392 0.39874 0.0
H572 H 0.53561 0.40089 0.75126 0.0
H573 H 0.49138 0.43558 0.75949 0.0
H574 H 0.52839 0.476 0.74896 0.0
H575 H 0.57351 0.50154 0.7398 0.0
H576 H 0.61736 0.46641 0.7315 0.0
H577 H 0.58031 0.42614 0.73903 0.0
C578 C 0.53402 0.41726 0.74958 0.0
C579 C 0.51076 0.41521 0.75579 0.0
C580 C 0.55534 0.44039 0.74383 0.0
C581 C 0.50909 0.43667 0.7554 0.0
C582 C 0.53023 0.45978 0.74907 0.0
C583 C 0.57489 0.48504 0.73899 0.0
C584 C 0.59815 0.48698 0.73575 0.0
C585 C 0.55347 0.46187 0.74361 0.0
C586 C 0.5997 0.46545 0.7354 0.0
C587 C 0.57852 0.4424 0.73925 0.0
H588 H 0.11155 0.39526 0.66555 0.0
H589 H 0.1319 0.47126 0.69634 0.0
H590 H 0.12659 0.46578 0.84955 0.0
H591 H 0.11594 0.43949 0.97654 0.0
H592 H 0.09553 0.36347 0.94688 0.0
H593 H 0.10076 0.36883 0.79329 0.0
C594 C 0.11464 0.41057 0.70564 0.0
C595 C 0.12236 0.43372 0.66851 0.0
C596 C 0.11152 0.40732 0.7948 0.0
C597 C 0.12642 0.45333 0.72237 0.0
C598 C 0.12325 0.45021 0.81047 0.0
C599 C 0.11287 0.42414 0.93672 0.0
C600 C 0.10527 0.40108 0.97424 0.0
C601 C 0.11594 0.42733 0.84768 0.0
C602 C 0.10107 0.38137 0.92059 0.0
C603 C 0.10416 0.38444 0.83228 0.0
H604 H 0.67317 0.10881 0.48546 0.0
H605 H 0.73827 0.10286 0.4587 0.0
H606 H 0.73696 0.10669 0.30505 0.0
H607 H 0.7179 0.11271 0.17654 0.0
H608 H 0.65361 0.11988 0.20395 0.0
H609 H 0.65418 0.11483 0.35763 0.0
C610 C 0.68721 0.10856 0.44629 0.0
C611 C 0.7057 0.1054 0.48463 0.0
C612 C 0.68652 0.11101 0.35724 0.0
C613 C 0.72353 0.10484 0.43181 0.0
C614 C 0.7229 0.10717 0.34345 0.0
C615 C 0.7039 0.1129 0.21617 0.0
C616 C 0.68581 0.11677 0.1785 0.0
C617 C 0.70448 0.11024 0.30522 0.0
C618 C 0.66794 0.11724 0.23113 0.0
C619 C 0.66821 0.11429 0.3192 0.0
H620 H 0.6101 0.71291 0.68785 0.0
H621 H 0.53189 0.68188 0.71741 0.0
H622 H 0.53568 0.67894 0.8704 0.0
H623 H 0.56104 0.68472 0.99765 0.0
H624 H 0.63938 0.7164 0.96825 0.0
H625 H 0.63553 0.71908 0.81546 0.0
C626 C 0.59387 0.70541 0.72757 0.0
C627 C 0.57077 0.69789 0.69011 0.0
C628 C 0.59612 0.70371 0.8166 0.0
C629 C 0.55001 0.68832 0.74366 0.0
C630 C 0.55211 0.68645 0.83167 0.0
C631 C 0.57732 0.69238 0.95817 0.0
C632 C 0.60044 0.70007 0.99588 0.0
C633 C 0.57508 0.69416 0.86918 0.0
C634 C 0.62122 0.70979 0.94228 0.0
C635 C 0.61909 0.71152 0.85419 0.0
H636 H 0.89008 0.56025 0.4994 0.0
H637 H 0.90716 0.63542 0.47287 0.0
H638 H 0.90191 0.63024 0.31956 0.0
H639 H 0.8917 0.60418 0.191 0.0
H640 H 0.87375 0.52883 0.21804 0.0
H641 H 0.87981 0.53423 0.37139 0.0
C642 C 0.89247 0.57546 0.4604 0.0
C643 C 0.89919 0.59825 0.49893 0.0
C644 C 0.8892 0.57234 0.37133 0.0
C645 C 0.90242 0.61775 0.44609 0.0
C646 C 0.89928 0.61479 0.35781 0.0
C647 C 0.88931 0.58902 0.23037 0.0
C648 C 0.88208 0.56608 0.19238 0.0
C649 C 0.8927 0.59219 0.31945 0.0
C650 C 0.8789 0.54659 0.24506 0.0
C651 C 0.88247 0.54968 0.33312 0.0
H652 H 0.28323 0.88837 0.70514 0.0
H653 H 0.32868 0.85541 0.73271 0.0
H654 H 0.33074 0.862 0.88568 0.0
H655 H 0.3201 0.87748 0.01355 0.0
H656 H 0.27452 0.91032 0.98675 0.0
H657 H 0.27241 0.90373 0.83362 0.0
C658 C 0.29369 0.88275 0.74445 0.0
C659 C 0.30555 0.87115 0.70635 0.0
C660 C 0.29489 0.88664 0.83355 0.0
C661 C 0.31891 0.86392 0.75934 0.0
C662 C 0.32024 0.86782 0.84738 0.0
C663 C 0.30951 0.883 0.97449 0.0
C664 C 0.29764 0.89455 0.01284 0.0
C665 C 0.30824 0.87908 0.8855 0.0
C666 C 0.28424 0.90177 0.96001 0.0
C667 C 0.28288 0.89789 0.87186 0.0
H668 H 0.43382 0.30132 0.46169 0.0
H669 H 0.37358 0.31495 0.43272 0.0
H670 H 0.37924 0.31777 0.27846 0.0
H671 H 0.40174 0.31679 0.15059 0.0
H672 H 0.46113 0.30174 0.18114 0.0
H673 H 0.4555 0.29928 0.33437 0.0
C674 C 0.42208 0.30511 0.42167 0.0
C675 C 0.40333 0.30796 0.4591 0.0
C676 C 0.42528 0.30646 0.33259 0.0
C677 C 0.38802 0.31246 0.40579 0.0
C678 C 0.39129 0.31414 0.31739 0.0
C679 C 0.4133 0.31275 0.1906 0.0
C680 C 0.43207 0.30981 0.15339 0.0
C681 C 0.40984 0.31111 0.27979 0.0
C682 C 0.44689 0.30468 0.20716 0.0
C683 C 0.44361 0.30311 0.29531 0.0
H684 H 0.61571 0.92232 0.5906 0.0
H685 H 0.55514 0.854 0.49885 0.0
H686 H 0.54307 0.84 0.64402 0.0
H687 H 0.549 0.84745 0.79723 0.0
H688 H 0.60994 0.91538 0.88923 0.0
H689 H 0.62301 0.92881 0.74405 0.0
C690 C 0.60005 0.90428 0.60228 0.0
C691 C 0.5862 0.88948 0.53368 0.0
C692 C 0.59334 0.89613 0.6861 0.0
C693 C 0.56582 0.86614 0.55015 0.0
C694 C 0.55899 0.85796 0.63331 0.0
C695 C 0.56514 0.86517 0.78547 0.0
C696 C 0.57823 0.88044 0.85409 0.0
C697 C 0.57247 0.87289 0.70173 0.0
C698 C 0.59947 0.90316 0.83785 0.0
C699 C 0.60691 0.91097 0.75466 0.0
H700 H 0.71268 0.56165 0.31708 0.0
H701 H 0.68334 0.60749 0.39634 0.0
H702 H 0.68501 0.62122 0.2503 0.0
H703 H 0.69317 0.61876 0.09922 0.0
H704 H 0.72163 0.57227 0.01963 0.0
H705 H 0.72173 0.55994 0.16671 0.0
C706 C 0.70651 0.5745 0.30212 0.0
C707 C 0.6979 0.58352 0.36702 0.0
C708 C 0.70732 0.58213 0.21817 0.0
C709 C 0.69033 0.60051 0.34739 0.0
C710 C 0.69116 0.60828 0.26396 0.0
C711 C 0.6997 0.60622 0.11458 0.0
C712 C 0.70721 0.59629 0.04934 0.0
C713 C 0.69951 0.5991 0.19887 0.0
C714 C 0.71539 0.57981 0.06915 0.0
C715 C 0.71553 0.57284 0.15303 0.0
H716 H 0.07811 0.69248 0.59191 0.0
H717 H 0.14934 0.70596 0.51171 0.0
H718 H 0.15993 0.70238 0.65823 0.0
H719 H 0.14844 0.69426 0.80865 0.0
H720 H 0.07712 0.68054 0.88881 0.0
H721 H 0.0671 0.68565 0.74323 0.0
C722 C 0.09605 0.69499 0.60697 0.0
C723 C 0.11282 0.69925 0.54144 0.0
C724 C 0.10194 0.69276 0.69117 0.0
C725 C 0.13596 0.70223 0.56119 0.0
C726 C 0.14206 0.70026 0.64486 0.0
C727 C 0.13068 0.69226 0.79395 0.0
C728 C 0.11354 0.687 0.8591 0.0
C729 C 0.12505 0.69518 0.71016 0.0
C730 C 0.09071 0.68483 0.83972 0.0
C731 C 0.08493 0.68766 0.7565 0.0
H732 H 0.4491 0.12223 1.0106 0.0
H733 H 0.37298 0.10203 0.03694 0.0
H734 H 0.37814 0.10802 0.19013 0.0
H735 H 0.40437 0.11947 0.31872 0.0
H736 H 0.48054 0.14004 0.2917 0.0
H737 H 0.47528 0.13378 0.1386 0.0
C738 C 0.43367 0.11934 0.04956 0.0
C739 C 0.41063 0.11151 1.01105 0.0
C740 C 0.43676 0.12296 0.13856 0.0
C741 C 0.39086 0.10764 0.06377 0.0
C742 C 0.39381 0.1112 0.15197 0.0
C743 C 0.41977 0.12243 0.27946 0.0
C744 C 0.44289 0.13047 0.3176 0.0
C745 C 0.41665 0.1188 0.19039 0.0
C746 C 0.46263 0.13432 0.26484 0.0
C747 C 0.45962 0.13061 0.17681 0.0
H748 H 0.32722 0.45867 0.81184 0.0
H749 H 0.27661 0.38394 0.88491 0.0
H750 H 0.27572 0.37028 0.73856 0.0
H751 H 0.28902 0.37983 0.58936 0.0
H752 H 0.34006 0.4547 0.51817 0.0
H753 H 0.3408 0.46813 0.66412 0.0
C754 C 0.3157 0.43945 0.79559 0.0
C755 C 0.30185 0.42239 0.85908 0.0
C756 C 0.31539 0.43176 0.71166 0.0
C757 C 0.28751 0.39743 0.83728 0.0
C758 C 0.28697 0.38963 0.75361 0.0
C759 C 0.30051 0.39902 0.60599 0.0
C760 C 0.31437 0.41624 0.54271 0.0
C761 C 0.3009 0.40664 0.69029 0.0
C762 C 0.32893 0.44111 0.56525 0.0
C763 C 0.32944 0.44881 0.6488 0.0
H764 H 0.89673 0.28812 0.3379 0.0
H765 H 0.85764 0.32776 0.31106 0.0
H766 H 0.86422 0.33037 0.15798 0.0
H767 H 0.88139 0.32181 0.0299 0.0
H768 H 0.92032 0.28198 0.0562 0.0
H769 H 0.91376 0.27936 0.20935 0.0
C770 C 0.88979 0.29746 0.29869 0.0
C771 C 0.87649 0.30752 0.33689 0.0
C772 C 0.89365 0.29894 0.20964 0.0
C773 C 0.86753 0.31941 0.28417 0.0
C774 C 0.87141 0.32105 0.19614 0.0
C775 C 0.88825 0.31235 0.0689 0.0
C776 C 0.90149 0.30227 0.03049 0.0
C777 C 0.88435 0.31081 0.15786 0.0
C778 C 0.91042 0.29032 0.08311 0.0
C779 C 0.90657 0.28868 0.17123 0.0
H780 H 0.16049 0.3828 0.28257 0.0
H781 H 0.19358 0.46149 0.30226 0.0
H782 H 0.23421 0.46646 0.28268 0.0
H783 H 0.26044 0.44889 0.25717 0.0
H784 H 0.22832 0.37058 0.22883 0.0
H785 H 0.18733 0.36499 0.25418 0.0
C786 C 0.17665 0.40096 0.28303 0.0
C787 C 0.17403 0.42174 0.29399 0.0
C788 C 0.20013 0.40378 0.26977 0.0
C789 C 0.19508 0.44521 0.29353 0.0
C790 C 0.21836 0.44809 0.28244 0.0
C791 C 0.2445 0.43056 0.25683 0.0
C792 C 0.24743 0.41018 0.24152 0.0
C793 C 0.2211 0.42757 0.27001 0.0
C794 C 0.22654 0.38659 0.24041 0.0
C795 C 0.20311 0.38339 0.25504 0.0
H796 H 0.81398 0.25786 0.77701 0.0
H797 H 0.85592 0.22385 0.70179 0.0
H798 H 0.82099 0.1833 0.73645 0.0
H799 H 0.77746 0.15726 0.78278 0.0
H800 H 0.73594 0.19236 0.8503 0.0
H801 H 0.77177 0.23262 0.82524 0.0
C802 C 0.81559 0.24162 0.76839 0.0
C803 C 0.83753 0.24392 0.73655 0.0
C804 C 0.79544 0.21848 0.78755 0.0
C805 C 0.83921 0.22261 0.72586 0.0
C806 C 0.81924 0.19941 0.74584 0.0
C807 C 0.77649 0.1738 0.79321 0.0
C808 C 0.75414 0.17189 0.81871 0.0
C809 C 0.79714 0.19707 0.77623 0.0
C810 C 0.75294 0.19338 0.83062 0.0
C811 C 0.7734 0.21642 0.81611 0.0
H812 H 0.61975 0.84673 0.26088 0.0
H813 H 0.54319 0.80951 0.18921 0.0
H814 H 0.54015 0.7699 0.21166 0.0
H815 H 0.55818 0.74571 0.25646 0.0
H816 H 0.63399 0.78098 0.33555 0.0
H817 H 0.63841 0.8214 0.30594 0.0
C818 C 0.60256 0.82988 0.24944 0.0
C819 C 0.5817 0.83103 0.2234 0.0
C820 C 0.60073 0.80685 0.26457 0.0
C821 C 0.55944 0.80912 0.20971 0.0
C822 C 0.55766 0.78643 0.22254 0.0
C823 C 0.57578 0.76217 0.26713 0.0
C824 C 0.59572 0.76028 0.29825 0.0
C825 C 0.57803 0.78508 0.25093 0.0
C826 C 0.61831 0.78191 0.3118 0.0
C827 C 0.62083 0.80501 0.29473 0.0
H828 H 0.847 0.62059 0.79209 0.0
H829 H 0.81019 0.54241 0.83564 0.0
H830 H 0.77065 0.53905 0.80709 0.0
H831 H 0.74648 0.55753 0.76673 0.0
H832 H 0.78148 0.63525 0.71757 0.0
H833 H 0.82175 0.63958 0.75027 0.0
C834 C 0.83025 0.60294 0.79608 0.0
C835 C 0.83152 0.58176 0.81616 0.0
C836 C 0.80731 0.60099 0.77763 0.0
C837 C 0.80973 0.55894 0.82003 0.0
C838 C 0.78708 0.55698 0.80363 0.0
C839 C 0.76286 0.57551 0.76299 0.0
C840 C 0.76093 0.59604 0.73963 0.0
C841 C 0.78568 0.57777 0.7816 0.0
C842 C 0.78245 0.61912 0.73502 0.0
C843 C 0.80545 0.62159 0.75407 0.0
H844 H 0.25667 0.80666 0.27228 0.0
H845 H 0.22132 0.8482 0.33591 0.0
H846 H 0.18128 0.81298 0.29841 0.0
H847 H 0.15604 0.76956 0.25166 0.0
H848 H 0.19203 0.72814 0.19594 0.0
H849 H 0.23199 0.7641 0.22507 0.0
C850 C 0.24023 0.80807 0.2778 0.0
C851 C 0.242 0.83001 0.30704 0.0
C852 C 0.21732 0.78772 0.25707 0.0
C853 C 0.22047 0.83147 0.31394 0.0
C854 C 0.19756 0.81135 0.29228 0.0
C855 C 0.1727 0.76861 0.24486 0.0
C856 C 0.17114 0.74629 0.22132 0.0
C857 C 0.19572 0.7893 0.26411 0.0
C858 C 0.19279 0.74512 0.21407 0.0
C859 C 0.21565 0.76566 0.23087 0.0
H860 H 0.45168 0.26375 0.76417 0.0
H861 H 0.37289 0.22797 0.78757 0.0
H862 H 0.36955 0.18824 0.75501 0.0
H863 H 0.38942 0.16381 0.71758 0.0
H864 H 0.46849 0.20051 0.70119 0.0
H865 H 0.47131 0.23973 0.73257 0.0
C866 C 0.43374 0.24726 0.76232 0.0
C867 C 0.41256 0.2488 0.77784 0.0
C868 C 0.43203 0.22465 0.74422 0.0
C869 C 0.38948 0.22724 0.77606 0.0
C870 C 0.38758 0.20456 0.75705 0.0
C871 C 0.40719 0.18046 0.7205 0.0
C872 C 0.42871 0.1793 0.70656 0.0
C873 C 0.40875 0.20306 0.74043 0.0
C874 C 0.45167 0.20091 0.71174 0.0
C875 C 0.45332 0.22337 0.72969 0.0
loop_
_geom_bond_atom_site_label_1
_geom_bond_atom_site_label_2
_geom_bond_distance
_geom_bond_site_symmetry_2
_ccdc_geom_bond_type
Co0 N4 2.148 . S
Co0 N10 2.128 . S
Co0 N20 2.194 . S
Co0 O25 2.351 . S
Co0 O26 2.155 . S
Co0 O27 2.096 . S
C1 N4 1.301 . S
C1 N5 1.328 . S
C1 H6 0.930 . S
C2 C3 1.333 . S
C2 N4 1.317 . S
C2 H7 0.930 . S
C3 C2 1.333 . S
C3 N5 1.350 . S
C3 H29 0.931 . S
N4 Co0 2.148 . S
N4 C1 1.301 . S
N4 C2 1.317 . S
N5 C1 1.328 . S
N5 C3 1.350 . S
H6 C1 0.930 . S
H7 C2 0.930 . S
C8 O9 1.224 . S
C8 O27 1.247 . S
O9 C8 1.224 . S
N10 Co0 2.128 . S
N10 C11 1.355 . S
N10 C13 1.311 . S
C11 N10 1.355 . S
C11 C12 1.363 . S
C11 H23 0.929 . S
C12 C11 1.363 . S
C12 N14 1.375 . S
C12 H30 0.931 . S
C13 N10 1.311 . S
C13 N14 1.347 . S
C13 H24 0.929 . S
N14 C12 1.375 . S
N14 C13 1.347 . S
C15 C18 1.365 . S
C15 N20 1.328 . S
C15 H21 0.929 . S
C16 C17 1.362 . S
C16 C19 1.378 . S
C16 H31 0.929 . S
C17 C16 1.362 . S
C17 C18 1.366 . S
C18 C15 1.365 . S
C18 C17 1.366 . S
C18 H32 0.930 . S
C19 C16 1.378 . S
C19 N20 1.315 . S
C19 H22 0.930 . S
N20 Co0 2.194 . S
N20 C15 1.328 . S
N20 C19 1.315 . S
H21 C15 0.929 . S
H22 C19 0.930 . S
H23 C11 0.929 . S
H24 C13 0.929 . S
O25 Co0 2.351 . S
O25 C28 1.244 . S
O26 Co0 2.155 . S
O26 C28 1.240 . S
O27 Co0 2.096 . S
O27 C8 1.247 . S
C28 O25 1.244 . S
C28 O26 1.240 . S
H29 C3 0.931 . S
H30 C12 0.931 . S
H31 C16 0.929 . S
H32 C18 0.930 . S
Co33 N37 2.148 . S
Co33 N43 2.128 . S
Co33 N53 2.194 . S
Co33 O58 2.351 . S
Co33 O59 2.155 . S
Co33 O60 2.096 . S
C34 N37 1.301 . S
C34 N38 1.328 . S
C34 H39 0.930 . S
C35 C36 1.333 . S
C35 N37 1.317 . S
C35 H40 0.930 . S
C36 C35 1.333 . S
C36 N38 1.350 . S
C36 H62 0.931 . S
N37 Co33 2.148 . S
N37 C34 1.301 . S
N37 C35 1.317 . S
N38 C34 1.328 . S
N38 C36 1.350 . S
H39 C34 0.930 . S
H40 C35 0.930 . S
C41 O42 1.224 . S
C41 O60 1.247 . S
O42 C41 1.224 . S
N43 Co33 2.128 . S
N43 C44 1.355 . S
N43 C46 1.311 1_556 S
C44 N43 1.355 . S
C44 C45 1.363 1_556 S
C44 H56 0.929 . S
C45 C44 1.363 1_554 S
C45 N47 1.375 . S
C45 H63 0.931 . S
C46 N43 1.311 1_554 S
C46 N47 1.347 . S
C46 H57 0.929 . S
N47 C45 1.375 . S
N47 C46 1.347 . S
C48 C51 1.365 . S
C48 N53 1.328 . S
C48 H54 0.929 . S
C49 C50 1.362 . S
C49 C52 1.378 . S
C49 H64 0.929 . S
C50 C49 1.362 . S
C50 C51 1.366 . S
C51 C48 1.365 . S
C51 C50 1.366 . S
C51 H65 0.930 . S
C52 C49 1.378 . S
C52 N53 1.315 . S
C52 H55 0.930 . S
N53 Co33 2.194 . S
N53 C48 1.328 . S
N53 C52 1.315 . S
H54 C48 0.929 . S
H55 C52 0.930 . S
H56 C44 0.929 . S
H57 C46 0.929 . S
O58 Co33 2.351 . S
O58 C61 1.244 . S
O59 Co33 2.155 . S
O59 C61 1.240 . S
O60 Co33 2.096 . S
O60 C41 1.247 . S
C61 O58 1.244 . S
C61 O59 1.240 . S
H62 C36 0.931 . S
H63 C45 0.931 . S
H64 C49 0.929 . S
H65 C51 0.930 . S
Co66 N70 2.148 . S
Co66 N76 2.128 . S
Co66 N86 2.194 . S
Co66 O91 2.351 . S
Co66 O92 2.155 . S
Co66 O93 2.096 . S
C67 N70 1.301 . S
C67 N71 1.328 . S
C67 H72 0.930 . S
C68 C69 1.333 . S
C68 N70 1.317 . S
C68 H73 0.930 . S
C69 C68 1.333 . S
C69 N71 1.350 . S
C69 H95 0.931 . S
N70 Co66 2.148 . S
N70 C67 1.301 . S
N70 C68 1.317 . S
N71 C67 1.328 . S
N71 C69 1.350 . S
H72 C67 0.930 . S
H73 C68 0.930 . S
C74 O75 1.224 . S
C74 O93 1.247 . S
O75 C74 1.224 . S
N76 Co66 2.128 . S
N76 C77 1.355 . S
N76 C79 1.311 . S
C77 N76 1.355 . S
C77 C78 1.363 . S
C77 H89 0.929 . S
C78 C77 1.363 . S
C78 N80 1.375 . S
C78 H96 0.931 . S
C79 N76 1.311 . S
C79 N80 1.347 . S
C79 H90 0.929 . S
N80 C78 1.375 . S
N80 C79 1.347 . S
C81 C84 1.365 . S
C81 N86 1.328 . S
C81 H87 0.929 . S
C82 C83 1.362 . S
C82 C85 1.378 . S
C82 H97 0.929 . S
C83 C82 1.362 . S
C83 C84 1.366 . S
C84 C81 1.365 . S
C84 C83 1.366 . S
C84 H98 0.930 . S
C85 C82 1.378 . S
C85 N86 1.315 . S
C85 H88 0.930 . S
N86 Co66 2.194 . S
N86 C81 1.328 . S
N86 C85 1.315 . S
H87 C81 0.929 . S
H88 C85 0.930 . S
H89 C77 0.929 . S
H90 C79 0.929 . S
O91 Co66 2.351 . S
O91 C94 1.244 . S
O92 Co66 2.155 . S
O92 C94 1.240 . S
O93 Co66 2.096 . S
O93 C74 1.247 . S
C94 O91 1.244 . S
C94 O92 1.240 . S
H95 C69 0.931 . S
H96 C78 0.931 . S
H97 C82 0.929 . S
H98 C84 0.930 . S
Co99 N103 2.148 . S
Co99 N109 2.128 . S
Co99 N119 2.194 . S
Co99 O124 2.351 . S
Co99 O125 2.155 . S
Co99 O126 2.096 . S
C100 N103 1.301 . S
C100 N104 1.328 . S
C100 H105 0.930 . S
C101 C102 1.333 . S
C101 N103 1.317 . S
C101 H106 0.930 . S
C102 C101 1.333 . S
C102 N104 1.350 . S
C102 H128 0.931 . S
N103 Co99 2.148 . S
N103 C100 1.301 . S
N103 C101 1.317 . S
N104 C100 1.328 . S
N104 C102 1.350 . S
H105 C100 0.930 . S
H106 C101 0.930 . S
C107 O108 1.224 . S
C107 O126 1.247 . S
O108 C107 1.224 . S
N109 Co99 2.128 . S
N109 C110 1.355 . S
N109 C112 1.311 1_556 S
C110 N109 1.355 . S
C110 C111 1.363 1_556 S
C110 H122 0.929 . S
C111 C110 1.363 1_554 S
C111 N113 1.375 . S
C111 H129 0.931 . S
C112 N109 1.311 1_554 S
C112 N113 1.347 . S
C112 H123 0.929 . S
N113 C111 1.375 . S
N113 C112 1.347 . S
C114 C117 1.365 . S
C114 N119 1.328 . S
C114 H120 0.929 . S
C115 C116 1.362 . S
C115 C118 1.378 . S
C115 H130 0.929 . S
C116 C115 1.362 . S
C116 C117 1.366 . S
C117 C114 1.365 . S
C117 C116 1.366 . S
C117 H131 0.930 . S
C118 C115 1.378 . S
C118 N119 1.315 . S
C118 H121 0.930 . S
N119 Co99 2.194 . S
N119 C114 1.328 . S
N119 C118 1.315 . S
H120 C114 0.929 . S
H121 C118 0.930 . S
H122 C110 0.929 . S
H123 C112 0.929 . S
O124 Co99 2.351 . S
O124 C127 1.244 . S
O125 Co99 2.155 . S
O125 C127 1.240 . S
O126 Co99 2.096 . S
O126 C107 1.247 . S
C127 O124 1.244 . S
C127 O125 1.240 . S
H128 C102 0.931 . S
H129 C111 0.931 . S
H130 C115 0.929 . S
H131 C117 0.930 . S
Co132 N136 2.148 . S
Co132 N142 2.128 . S
Co132 N152 2.194 . S
Co132 O157 2.351 . S
Co132 O158 2.155 . S
Co132 O159 2.096 . S
C133 N136 1.301 . S
C133 N137 1.328 . S
C133 H138 0.930 . S
C134 C135 1.333 . S
C134 N136 1.317 . S
C134 H139 0.930 . S
C135 C134 1.333 . S
C135 N137 1.350 . S
C135 H161 0.931 . S
N136 Co132 2.148 . S
N136 C133 1.301 . S
N136 C134 1.317 . S
N137 C133 1.328 . S
N137 C135 1.350 . S
H138 C133 0.930 . S
H139 C134 0.930 . S
C140 O141 1.224 . S
C140 O159 1.247 . S
O141 C140 1.224 . S
N142 Co132 2.128 . S
N142 C143 1.355 . S
N142 C145 1.311 . S
C143 N142 1.355 . S
C143 C144 1.363 . S
C143 H155 0.929 . S
C144 C143 1.363 . S
C144 N146 1.375 . S
C144 H162 0.931 . S
C145 N142 1.311 . S
C145 N146 1.347 . S
C145 H156 0.929 . S
N146 C144 1.375 . S
N146 C145 1.347 . S
C147 C150 1.365 . S
C147 N152 1.328 . S
C147 H153 0.929 . S
C148 C149 1.362 . S
C148 C151 1.378 . S
C148 H163 0.929 . S
C149 C148 1.362 . S
C149 C150 1.366 . S
C150 C147 1.365 . S
C150 C149 1.366 . S
C150 H164 0.930 . S
C151 C148 1.378 . S
C151 N152 1.315 . S
C151 H154 0.930 . S
N152 Co132 2.194 . S
N152 C147 1.328 . S
N152 C151 1.315 . S
H153 C147 0.929 . S
H154 C151 0.930 . S
H155 C143 0.929 . S
H156 C145 0.929 . S
O157 Co132 2.351 . S
O157 C160 1.244 . S
O158 Co132 2.155 . S
O158 C160 1.240 . S
O159 Co132 2.096 . S
O159 C140 1.247 . S
C160 O157 1.244 . S
C160 O158 1.240 . S
H161 C135 0.931 . S
H162 C144 0.931 . S
H163 C148 0.929 . S
H164 C150 0.930 . S
Co165 N169 2.148 . S
Co165 N175 2.128 . S
Co165 N185 2.194 . S
Co165 O190 2.351 . S
Co165 O191 2.155 . S
Co165 O192 2.096 . S
C166 N169 1.301 . S
C166 N170 1.328 . S
C166 H171 0.930 . S
C167 C168 1.333 . S
C167 N169 1.317 . S
C167 H172 0.930 . S
C168 C167 1.333 . S
C168 N170 1.350 . S
C168 H194 0.931 . S
N169 Co165 2.148 . S
N169 C166 1.301 . S
N169 C167 1.317 . S
N170 C166 1.328 . S
N170 C168 1.350 . S
H171 C166 0.930 . S
H172 C167 0.930 . S
C173 O174 1.224 . S
C173 O192 1.247 . S
O174 C173 1.224 . S
N175 Co165 2.128 . S
N175 C176 1.355 . S
N175 C178 1.311 1_556 S
C176 N175 1.355 . S
C176 C177 1.363 1_556 S
C176 H188 0.929 . S
C177 C176 1.363 1_554 S
C177 N179 1.375 . S
C177 H195 0.931 . S
C178 N175 1.311 1_554 S
C178 N179 1.347 . S
C178 H189 0.929 . S
N179 C177 1.375 . S
N179 C178 1.347 . S
C180 C183 1.365 . S
C180 N185 1.328 . S
C180 H186 0.929 . S
C181 C182 1.362 . S
C181 C184 1.378 . S
C181 H196 0.929 . S
C182 C181 1.362 . S
C182 C183 1.366 . S
C183 C180 1.365 . S
C183 C182 1.366 . S
C183 H197 0.930 . S
C184 C181 1.378 . S
C184 N185 1.315 . S
C184 H187 0.930 . S
N185 Co165 2.194 . S
N185 C180 1.328 . S
N185 C184 1.315 . S
H186 C180 0.929 . S
H187 C184 0.930 . S
H188 C176 0.929 . S
H189 C178 0.929 . S
O190 Co165 2.351 . S
O190 C193 1.244 . S
O191 Co165 2.155 . S
O191 C193 1.240 . S
O192 Co165 2.096 . S
O192 C173 1.247 . S
C193 O190 1.244 . S
C193 O191 1.240 . S
H194 C168 0.931 . S
H195 C177 0.931 . S
H196 C181 0.929 . S
H197 C183 0.930 . S
Co198 N202 2.148 . S
Co198 N208 2.128 . S
Co198 N218 2.194 . S
Co198 O223 2.351 . S
Co198 O224 2.155 . S
Co198 O225 2.096 . S
C199 N202 1.301 . S
C199 N203 1.328 . S
C199 H204 0.930 . S
C200 C201 1.333 . S
C200 N202 1.317 . S
C200 H205 0.930 . S
C201 C200 1.333 . S
C201 N203 1.350 . S
C201 H227 0.931 . S
N202 Co198 2.148 . S
N202 C199 1.301 . S
N202 C200 1.317 . S
N203 C199 1.328 . S
N203 C201 1.350 . S
H204 C199 0.930 . S
H205 C200 0.930 . S
C206 O207 1.224 . S
C206 O225 1.247 . S
O207 C206 1.224 . S
N208 Co198 2.128 . S
N208 C209 1.355 . S
N208 C211 1.311 1_554 S
C209 N208 1.355 . S
C209 C210 1.363 1_554 S
C209 H221 0.929 . S
C210 C209 1.363 1_556 S
C210 N212 1.375 . S
C210 H228 0.931 . S
C211 N208 1.311 1_556 S
C211 N212 1.347 . S
C211 H222 0.929 . S
N212 C210 1.375 . S
N212 C211 1.347 . S
C213 C216 1.365 . S
C213 N218 1.328 . S
C213 H219 0.929 . S
C214 C215 1.362 . S
C214 C217 1.378 . S
C214 H229 0.929 . S
C215 C214 1.362 . S
C215 C216 1.366 . S
C216 C213 1.365 . S
C216 C215 1.366 . S
C216 H230 0.930 . S
C217 C214 1.378 . S
C217 N218 1.315 . S
C217 H220 0.930 . S
N218 Co198 2.194 . S
N218 C213 1.328 . S
N218 C217 1.315 . S
H219 C213 0.929 . S
H220 C217 0.930 . S
H221 C209 0.929 . S
H222 C211 0.929 . S
O223 Co198 2.351 . S
O223 C226 1.244 . S
O224 Co198 2.155 . S
O224 C226 1.240 . S
O225 Co198 2.096 . S
O225 C206 1.247 . S
C226 O223 1.244 . S
C226 O224 1.240 . S
H227 C201 0.931 . S
H228 C210 0.931 . S
H229 C214 0.929 . S
H230 C216 0.930 . S
Co231 N235 2.148 . S
Co231 N241 2.128 . S
Co231 N251 2.194 . S
Co231 O256 2.351 . S
Co231 O257 2.155 . S
Co231 O258 2.096 . S
C232 N235 1.301 . S
C232 N236 1.328 . S
C232 H237 0.930 . S
C233 C234 1.333 . S
C233 N235 1.317 . S
C233 H238 0.930 . S
C234 C233 1.333 . S
C234 N236 1.350 . S
C234 H260 0.931 . S
N235 Co231 2.148 . S
N235 C232 1.301 . S
N235 C233 1.317 . S
N236 C232 1.328 . S
N236 C234 1.350 . S
H237 C232 0.930 . S
H238 C233 0.930 . S
C239 O240 1.224 . S
C239 O258 1.247 . S
O240 C239 1.224 . S
N241 Co231 2.128 . S
N241 C242 1.355 . S
N241 C244 1.311 . S
C242 N241 1.355 . S
C242 C243 1.363 . S
C242 H254 0.929 . S
C243 C242 1.363 . S
C243 N245 1.375 . S
C243 H261 0.931 . S
C244 N241 1.311 . S
C244 N245 1.347 . S
C244 H255 0.929 . S
N245 C243 1.375 . S
N245 C244 1.347 . S
C246 C249 1.365 . S
C246 N251 1.328 . S
C246 H252 0.929 . S
C247 C248 1.362 . S
C247 C250 1.378 . S
C247 H262 0.929 . S
C248 C247 1.362 . S
C248 C249 1.366 . S
C249 C246 1.365 . S
C249 C248 1.366 . S
C249 H263 0.930 . S
C250 C247 1.378 . S
C250 N251 1.315 . S
C250 H253 0.930 . S
N251 Co231 2.194 . S
N251 C246 1.328 . S
N251 C250 1.315 . S
H252 C246 0.929 . S
H253 C250 0.930 . S
H254 C242 0.929 . S
H255 C244 0.929 . S
O256 Co231 2.351 . S
O256 C259 1.244 . S
O257 Co231 2.155 . S
O257 C259 1.240 . S
O258 Co231 2.096 . S
O258 C239 1.247 . S
C259 O256 1.244 . S
C259 O257 1.240 . S
H260 C234 0.931 . S
H261 C243 0.931 . S
H262 C247 0.929 . S
H263 C249 0.930 . S
Co264 N268 2.148 . S
Co264 N274 2.128 . S
Co264 N284 2.194 . S
Co264 O289 2.351 . S
Co264 O290 2.155 . S
Co264 O291 2.096 . S
C265 N268 1.301 . S
C265 N269 1.328 . S
C265 H270 0.930 . S
C266 C267 1.333 . S
C266 N268 1.317 . S
C266 H271 0.930 . S
C267 C266 1.333 . S
C267 N269 1.350 . S
C267 H293 0.931 . S
N268 Co264 2.148 . S
N268 C265 1.301 . S
N268 C266 1.317 . S
N269 C265 1.328 . S
N269 C267 1.350 . S
H270 C265 0.930 . S
H271 C266 0.930 . S
C272 O273 1.224 . S
C272 O291 1.247 . S
O273 C272 1.224 . S
N274 Co264 2.128 . S
N274 C275 1.355 . S
N274 C277 1.311 1_554 S
C275 N274 1.355 . S
C275 C276 1.363 1_554 S
C275 H287 0.929 . S
C276 C275 1.363 1_556 S
C276 N278 1.375 . S
C276 H294 0.931 . S
C277 N274 1.311 1_556 S
C277 N278 1.347 . S
C277 H288 0.929 . S
N278 C276 1.375 . S
N278 C277 1.347 . S
C279 C282 1.365 . S
C279 N284 1.328 . S
C279 H285 0.929 . S
C280 C281 1.362 . S
C280 C283 1.378 . S
C280 H295 0.929 . S
C281 C280 1.362 . S
C281 C282 1.366 . S
C282 C279 1.365 . S
C282 C281 1.366 . S
C282 H296 0.930 . S
C283 C280 1.378 . S
C283 N284 1.315 . S
C283 H286 0.930 . S
N284 Co264 2.194 . S
N284 C279 1.328 . S
N284 C283 1.315 . S
H285 C279 0.929 . S
H286 C283 0.930 . S
H287 C275 0.929 . S
H288 C277 0.929 . S
O289 Co264 2.351 . S
O289 C292 1.244 . S
O290 Co264 2.155 . S
O290 C292 1.240 . S
O291 Co264 2.096 . S
O291 C272 1.247 . S
C292 O289 1.244 . S
C292 O290 1.240 . S
H293 C267 0.931 . S
H294 C276 0.931 . S
H295 C280 0.929 . S
H296 C282 0.930 . S
Co297 N301 2.148 . S
Co297 N307 2.128 . S
Co297 N317 2.194 . S
Co297 O322 2.351 . S
Co297 O323 2.155 . S
Co297 O324 2.096 . S
C298 N301 1.301 . S
C298 N302 1.328 . S
C298 H303 0.930 . S
C299 C300 1.333 . S
C299 N301 1.317 . S
C299 H304 0.930 . S
C300 C299 1.333 . S
C300 N302 1.350 . S
C300 H326 0.931 . S
N301 Co297 2.148 . S
N301 C298 1.301 . S
N301 C299 1.317 . S
N302 C298 1.328 . S
N302 C300 1.350 . S
H303 C298 0.930 . S
H304 C299 0.930 . S
C305 O306 1.224 . S
C305 O324 1.247 . S
O306 C305 1.224 . S
N307 Co297 2.128 . S
N307 C308 1.355 . S
N307 C310 1.311 . S
C308 N307 1.355 . S
C308 C309 1.363 . S
C308 H320 0.929 . S
C309 C308 1.363 . S
C309 N311 1.375 . S
C309 H327 0.931 . S
C310 N307 1.311 . S
C310 N311 1.347 . S
C310 H321 0.929 . S
N311 C309 1.375 . S
N311 C310 1.347 . S
C312 C315 1.365 . S
C312 N317 1.328 . S
C312 H318 0.929 . S
C313 C314 1.362 . S
C313 C316 1.378 . S
C313 H328 0.929 . S
C314 C313 1.362 . S
C314 C315 1.366 . S
C315 C312 1.365 . S
C315 C314 1.366 . S
C315 H329 0.930 . S
C316 C313 1.378 . S
C316 N317 1.315 . S
C316 H319 0.930 . S
N317 Co297 2.194 . S
N317 C312 1.328 . S
N317 C316 1.315 . S
H318 C312 0.929 . S
H319 C316 0.930 . S
H320 C308 0.929 . S
H321 C310 0.929 . S
O322 Co297 2.351 . S
O322 C325 1.244 . S
O323 Co297 2.155 . S
O323 C325 1.240 . S
O324 Co297 2.096 . S
O324 C305 1.247 . S
C325 O322 1.244 . S
C325 O323 1.240 . S
H326 C300 0.931 . S
H327 C309 0.931 . S
H328 C313 0.929 . S
H329 C315 0.930 . S
Co330 N334 2.148 . S
Co330 N340 2.128 . S
Co330 N350 2.194 . S
Co330 O355 2.351 . S
Co330 O356 2.155 . S
Co330 O357 2.096 . S
C331 N334 1.301 . S
C331 N335 1.328 . S
C331 H336 0.930 . S
C332 C333 1.333 . S
C332 N334 1.317 . S
C332 H337 0.930 . S
C333 C332 1.333 . S
C333 N335 1.350 . S
C333 H359 0.931 . S
N334 Co330 2.148 . S
N334 C331 1.301 . S
N334 C332 1.317 . S
N335 C331 1.328 . S
N335 C333 1.350 . S
H336 C331 0.930 . S
H337 C332 0.930 . S
C338 O339 1.224 . S
C338 O357 1.247 . S
O339 C338 1.224 . S
N340 Co330 2.128 . S
N340 C341 1.355 . S
N340 C343 1.311 1_554 S
C341 N340 1.355 . S
C341 C342 1.363 1_554 S
C341 H353 0.929 . S
C342 C341 1.363 1_556 S
C342 N344 1.375 . S
C342 H360 0.931 . S
C343 N340 1.311 1_556 S
C343 N344 1.347 . S
C343 H354 0.929 . S
N344 C342 1.375 . S
N344 C343 1.347 . S
C345 C348 1.365 . S
C345 N350 1.328 . S
C345 H351 0.929 . S
C346 C347 1.362 . S
C346 C349 1.378 . S
C346 H361 0.929 . S
C347 C346 1.362 . S
C347 C348 1.366 . S
C348 C345 1.365 . S
C348 C347 1.366 . S
C348 H362 0.930 . S
C349 C346 1.378 . S
C349 N350 1.315 . S
C349 H352 0.930 . S
N350 Co330 2.194 . S
N350 C345 1.328 . S
N350 C349 1.315 . S
H351 C345 0.929 . S
H352 C349 0.930 . S
H353 C341 0.929 . S
H354 C343 0.929 . S
O355 Co330 2.351 . S
O355 C358 1.244 . S
O356 Co330 2.155 . S
O356 C358 1.240 . S
O357 Co330 2.096 . S
O357 C338 1.247 . S
C358 O355 1.244 . S
C358 O356 1.240 . S
H359 C333 0.931 . S
H360 C342 0.931 . S
H361 C346 0.929 . S
H362 C348 0.930 . S
Co363 N367 2.148 . S
Co363 N373 2.128 . S
Co363 N383 2.194 . S
Co363 O388 2.351 . S
Co363 O389 2.155 . S
Co363 O390 2.096 . S
C364 N367 1.301 . S
C364 N368 1.328 . S
C364 H369 0.930 . S
C365 C366 1.333 . S
C365 N367 1.317 . S
C365 H370 0.930 . S
C366 C365 1.333 . S
C366 N368 1.350 . S
C366 H392 0.931 . S
N367 Co363 2.148 . S
N367 C364 1.301 . S
N367 C365 1.317 . S
N368 C364 1.328 . S
N368 C366 1.350 . S
H369 C364 0.930 . S
H370 C365 0.930 . S
C371 O372 1.224 . S
C371 O390 1.247 . S
O372 C371 1.224 . S
N373 Co363 2.128 . S
N373 C374 1.355 . S
N373 C376 1.311 . S
C374 N373 1.355 . S
C374 C375 1.363 . S
C374 H386 0.929 . S
C375 C374 1.363 . S
C375 N377 1.375 . S
C375 H393 0.931 . S
C376 N373 1.311 . S
C376 N377 1.347 . S
C376 H387 0.929 . S
N377 C375 1.375 . S
N377 C376 1.347 . S
C378 C381 1.365 . S
C378 N383 1.328 . S
C378 H384 0.929 . S
C379 C380 1.362 . S
C379 C382 1.378 . S
C379 H394 0.929 . S
C380 C379 1.362 . S
C380 C381 1.366 . S
C381 C378 1.365 . S
C381 C380 1.366 . S
C381 H395 0.930 . S
C382 C379 1.378 . S
C382 N383 1.315 . S
C382 H385 0.930 . S
N383 Co363 2.194 . S
N383 C378 1.328 . S
N383 C382 1.315 . S
H384 C378 0.929 . S
H385 C382 0.930 . S
H386 C374 0.929 . S
H387 C376 0.929 . S
O388 Co363 2.351 . S
O388 C391 1.244 . S
O389 Co363 2.155 . S
O389 C391 1.240 . S
O390 Co363 2.096 . S
O390 C371 1.247 . S
C391 O388 1.244 . S
C391 O389 1.240 . S
H392 C366 0.931 . S
H393 C375 0.931 . S
H394 C379 0.929 . S
H395 C381 0.930 . S
H396 C402 0.930 . S
H397 C405 0.930 . S
H398 C406 0.930 . S
H399 C407 0.930 . S
H400 C410 0.930 . S
H401 C411 0.930 . S
C402 H396 0.930 . S
C402 C403 1.355 . S
C402 C404 1.415 . S
C403 C402 1.355 . S
C403 C405 1.419 . S
C404 C402 1.415 . S
C404 C409 1.425 1_455 S
C404 C411 1.409 1_455 S
C405 H397 0.930 . S
C405 C403 1.419 . S
C405 C406 1.362 . S
C406 H398 0.930 . S
C406 C405 1.362 . S
C406 C409 1.409 1_455 S
C407 H399 0.930 . S
C407 C408 1.355 . S
C407 C409 1.415 . S
C408 C407 1.355 . S
C408 C410 1.419 . S
C409 C404 1.425 1_655 S
C409 C406 1.409 1_655 S
C409 C407 1.415 . S
C410 H400 0.930 . S
C410 C408 1.419 . S
C410 C411 1.362 . S
C411 H401 0.930 . S
C411 C404 1.409 1_655 S
C411 C410 1.362 . S
H412 C418 0.930 1_554 S
H413 C421 0.930 . S
H414 C422 0.930 . S
H415 C423 0.930 1_556 S
H416 C426 0.930 . S
H417 C427 0.930 . S
C418 H412 0.930 1_556 S
C418 C419 1.355 . S
C418 C420 1.415 1_556 S
C419 C418 1.355 . S
C419 C421 1.419 . S
C420 C418 1.415 1_554 S
C420 C425 1.425 1_544 S
C420 C427 1.409 . S
C421 H413 0.930 . S
C421 C419 1.419 . S
C421 C422 1.362 1_545 S
C422 H414 0.930 . S
C422 C421 1.362 1_565 S
C422 C425 1.409 . S
C423 H415 0.930 1_554 S
C423 C424 1.355 . S
C423 C425 1.415 1_554 S
C424 C423 1.355 . S
C424 C426 1.419 . S
C425 C420 1.425 1_566 S
C425 C422 1.409 . S
C425 C423 1.415 1_556 S
C426 H416 0.930 . S
C426 C424 1.419 . S
C426 C427 1.362 1_565 S
C427 H417 0.930 . S
C427 C420 1.409 . S
C427 C426 1.362 1_545 S
H428 C434 0.930 . S
H429 C437 0.930 . S
H430 C438 0.930 . S
H431 C439 0.930 . S
H432 C442 0.930 . S
H433 C443 0.930 . S
C434 H428 0.930 . S
C434 C435 1.355 . S
C434 C436 1.415 . S
C435 C434 1.355 . S
C435 C437 1.419 . S
C436 C434 1.415 . S
C436 C441 1.425 . S
C436 C443 1.409 . S
C437 H429 0.930 . S
C437 C435 1.419 . S
C437 C438 1.362 . S
C438 H430 0.930 . S
C438 C437 1.362 . S
C438 C441 1.409 . S
C439 H431 0.930 . S
C439 C440 1.355 . S
C439 C441 1.415 . S
C440 C439 1.355 . S
C440 C442 1.419 . S
C441 C436 1.425 . S
C441 C438 1.409 . S
C441 C439 1.415 . S
C442 H432 0.930 . S
C442 C440 1.419 . S
C442 C443 1.362 . S
C443 H433 0.930 . S
C443 C436 1.409 . S
C443 C442 1.362 . S
H444 C450 0.930 . S
H445 C453 0.930 . S
H446 C454 0.930 . S
H447 C455 0.930 . S
H448 C458 0.930 . S
H449 C459 0.930 . S
C450 H444 0.930 . S
C450 C451 1.355 . S
C450 C452 1.415 . S
C451 C450 1.355 . S
C451 C453 1.419 . S
C452 C450 1.415 . S
C452 C457 1.425 1_454 S
C452 C459 1.409 1_454 S
C453 H445 0.930 . S
C453 C451 1.419 . S
C453 C454 1.362 . S
C454 H446 0.930 . S
C454 C453 1.362 . S
C454 C457 1.409 1_454 S
C455 H447 0.930 . S
C455 C456 1.355 . S
C455 C457 1.415 . S
C456 C455 1.355 . S
C456 C458 1.419 . S
C457 C452 1.425 1_656 S
C457 C454 1.409 1_656 S
C457 C455 1.415 . S
C458 H448 0.930 . S
C458 C456 1.419 . S
C458 C459 1.362 . S
C459 H449 0.930 . S
C459 C452 1.409 1_656 S
C459 C458 1.362 . S
H460 C466 0.930 . S
H461 C469 0.930 . S
H462 C470 0.930 . S
H463 C471 0.930 . S
H464 C474 0.930 . S
H465 C475 0.930 . S
C466 H460 0.930 . S
C466 C467 1.355 . S
C466 C468 1.415 1_545 S
C467 C466 1.355 . S
C467 C469 1.419 . S
C468 C466 1.415 1_565 S
C468 C473 1.425 1_565 S
C468 C475 1.409 . S
C469 H461 0.930 . S
C469 C467 1.419 . S
C469 C470 1.362 . S
C470 H462 0.930 . S
C470 C469 1.362 . S
C470 C473 1.409 . S
C471 H463 0.930 . S
C471 C472 1.355 . S
C471 C473 1.415 1_565 S
C472 C471 1.355 . S
C472 C474 1.419 . S
C473 C468 1.425 1_545 S
C473 C470 1.409 . S
C473 C471 1.415 1_545 S
C474 H464 0.930 . S
C474 C472 1.419 . S
C474 C475 1.362 . S
C475 H465 0.930 . S
C475 C468 1.409 . S
C475 C474 1.362 . S
H476 C482 0.930 . S
H477 C485 0.930 . S
H478 C486 0.930 . S
H479 C487 0.930 . S
H480 C490 0.930 . S
H481 C491 0.930 . S
C482 H476 0.930 . S
C482 C483 1.355 . S
C482 C484 1.415 1_556 S
C483 C482 1.355 . S
C483 C485 1.419 . S
C484 C482 1.415 1_554 S
C484 C489 1.425 1_554 S
C484 C491 1.409 . S
C485 H477 0.930 . S
C485 C483 1.419 . S
C485 C486 1.362 . S
C486 H478 0.930 . S
C486 C485 1.362 . S
C486 C489 1.409 . S
C487 H479 0.930 . S
C487 C488 1.355 . S
C487 C489 1.415 1_554 S
C488 C487 1.355 . S
C488 C490 1.419 . S
C489 C484 1.425 1_556 S
C489 C486 1.409 . S
C489 C487 1.415 1_556 S
C490 H480 0.930 . S
C490 C488 1.419 . S
C490 C491 1.362 . S
C491 H481 0.930 . S
C491 C484 1.409 . S
C491 C490 1.362 . S
H492 C498 0.930 . S
H493 C501 0.930 . S
H494 C502 0.930 . S
H495 C503 0.930 . S
H496 C506 0.930 . S
H497 C507 0.930 . S
C498 H492 0.930 . S
C498 C499 1.355 . S
C498 C500 1.415 . S
C499 C498 1.355 . S
C499 C501 1.419 . S
C500 C498 1.415 . S
C500 C505 1.425 . S
C500 C507 1.409 . S
C501 H493 0.930 . S
C501 C499 1.419 . S
C501 C502 1.362 . S
C502 H494 0.930 . S
C502 C501 1.362 . S
C502 C505 1.409 . S
C503 H495 0.930 . S
C503 C504 1.355 . S
C503 C505 1.415 . S
C504 C503 1.355 . S
C504 C506 1.419 . S
C505 C500 1.425 . S
C505 C502 1.409 . S
C505 C503 1.415 . S
C506 H496 0.930 . S
C506 C504 1.419 . S
C506 C507 1.362 . S
C507 H497 0.930 . S
C507 C500 1.409 . S
C507 C506 1.362 . S
H508 C514 0.930 . S
H509 C517 0.930 . S
H510 C518 0.930 . S
H511 C519 0.930 . S
H512 C522 0.930 . S
H513 C523 0.930 . S
C514 H508 0.930 . S
C514 C515 1.355 . S
C514 C516 1.415 . S
C515 C514 1.355 . S
C515 C517 1.419 . S
C516 C514 1.415 . S
C516 C521 1.425 . S
C516 C523 1.409 . S
C517 H509 0.930 . S
C517 C515 1.419 . S
C517 C518 1.362 . S
C518 H510 0.930 . S
C518 C517 1.362 . S
C518 C521 1.409 . S
C519 H511 0.930 . S
C519 C520 1.355 . S
C519 C521 1.415 . S
C520 C519 1.355 . S
C520 C522 1.419 . S
C521 C516 1.425 . S
C521 C518 1.409 . S
C521 C519 1.415 . S
C522 H512 0.930 . S
C522 C520 1.419 . S
C522 C523 1.362 . S
C523 H513 0.930 . S
C523 C516 1.409 . S
C523 C522 1.362 . S
H524 C530 0.930 . S
H525 C533 0.930 . S
H526 C534 0.930 . S
H527 C535 0.930 . S
H528 C538 0.930 . S
H529 C539 0.930 . S
C530 H524 0.930 . S
C530 C531 1.355 . S
C530 C532 1.415 . S
C531 C530 1.355 . S
C531 C533 1.419 . S
C532 C530 1.415 . S
C532 C537 1.425 . S
C532 C539 1.409 . S
C533 H525 0.930 . S
C533 C531 1.419 . S
C533 C534 1.362 . S
C534 H526 0.930 . S
C534 C533 1.362 . S
C534 C537 1.409 . S
C535 H527 0.930 . S
C535 C536 1.355 . S
C535 C537 1.415 . S
C536 C535 1.355 . S
C536 C538 1.419 . S
C537 C532 1.425 . S
C537 C534 1.409 . S
C537 C535 1.415 . S
C538 H528 0.930 . S
C538 C536 1.419 . S
C538 C539 1.362 . S
C539 H529 0.930 . S
C539 C532 1.409 . S
C539 C538 1.362 . S
H540 C546 0.930 . S
H541 C549 0.930 . S
H542 C550 0.930 . S
H543 C551 0.930 . S
H544 C554 0.930 . S
H545 C555 0.930 . S
C546 H540 0.930 . S
C546 C547 1.355 . S
C546 C548 1.415 . S
C547 C546 1.355 . S
C547 C549 1.419 . S
C548 C546 1.415 . S
C548 C553 1.425 . S
C548 C555 1.409 . S
C549 H541 0.930 . S
C549 C547 1.419 . S
C549 C550 1.362 . S
C550 H542 0.930 . S
C550 C549 1.362 . S
C550 C553 1.409 . S
C551 H543 0.930 . S
C551 C552 1.355 . S
C551 C553 1.415 . S
C552 C551 1.355 . S
C552 C554 1.419 . S
C553 C548 1.425 . S
C553 C550 1.409 . S
C553 C551 1.415 . S
C554 H544 0.930 . S
C554 C552 1.419 . S
C554 C555 1.362 . S
C555 H545 0.930 . S
C555 C548 1.409 . S
C555 C554 1.362 . S
H556 C562 0.930 . S
H557 C565 0.930 . S
H558 C566 0.930 . S
H559 C567 0.930 . S
H560 C570 0.930 . S
H561 C571 0.930 . S
C562 H556 0.930 . S
C562 C563 1.355 . S
C562 C564 1.415 . S
C563 C562 1.355 . S
C563 C565 1.419 . S
C564 C562 1.415 . S
C564 C569 1.425 . S
C564 C571 1.409 . S
C565 H557 0.930 . S
C565 C563 1.419 . S
C565 C566 1.362 . S
C566 H558 0.930 . S
C566 C565 1.362 . S
C566 C569 1.409 . S
C567 H559 0.930 . S
C567 C568 1.355 . S
C567 C569 1.415 . S
C568 C567 1.355 . S
C568 C570 1.419 . S
C569 C564 1.425 . S
C569 C566 1.409 . S
C569 C567 1.415 . S
C570 H560 0.930 . S
C570 C568 1.419 . S
C570 C571 1.362 . S
C571 H561 0.930 . S
C571 C564 1.409 . S
C571 C570 1.362 . S
H572 C578 0.930 . S
H573 C581 0.930 . S
H574 C582 0.930 . S
H575 C583 0.930 . S
H576 C586 0.930 . S
H577 C587 0.930 . S
C578 H572 0.930 . S
C578 C579 1.355 . S
C578 C580 1.415 . S
C579 C578 1.355 . S
C579 C581 1.419 . S
C580 C578 1.415 . S
C580 C585 1.425 . S
C580 C587 1.409 . S
C581 H573 0.930 . S
C581 C579 1.419 . S
C581 C582 1.362 . S
C582 H574 0.930 . S
C582 C581 1.362 . S
C582 C585 1.409 . S
C583 H575 0.930 . S
C583 C584 1.355 . S
C583 C585 1.415 . S
C584 C583 1.355 . S
C584 C586 1.419 . S
C585 C580 1.425 . S
C585 C582 1.409 . S
C585 C583 1.415 . S
C586 H576 0.930 . S
C586 C584 1.419 . S
C586 C587 1.362 . S
C587 H577 0.930 . S
C587 C580 1.409 . S
C587 C586 1.362 . S
H588 C594 0.930 . S
H589 C597 0.930 . S
H590 C598 0.930 . S
H591 C599 0.930 . S
H592 C602 0.930 . S
H593 C603 0.930 . S
C594 H588 0.930 . S
C594 C595 1.355 . S
C594 C596 1.415 . S
C595 C594 1.355 . S
C595 C597 1.419 . S
C596 C594 1.415 . S
C596 C601 1.425 . S
C596 C603 1.409 . S
C597 H589 0.930 . S
C597 C595 1.419 . S
C597 C598 1.362 . S
C598 H590 0.930 . S
C598 C597 1.362 . S
C598 C601 1.409 . S
C599 H591 0.930 . S
C599 C600 1.355 . S
C599 C601 1.415 . S
C600 C599 1.355 . S
C600 C602 1.419 . S
C601 C596 1.425 . S
C601 C598 1.409 . S
C601 C599 1.415 . S
C602 H592 0.930 . S
C602 C600 1.419 . S
C602 C603 1.362 . S
C603 H593 0.930 . S
C603 C596 1.409 . S
C603 C602 1.362 . S
H604 C610 0.930 . S
H605 C613 0.930 . S
H606 C614 0.930 . S
H607 C615 0.930 . S
H608 C618 0.930 . S
H609 C619 0.930 . S
C610 H604 0.930 . S
C610 C611 1.355 . S
C610 C612 1.415 . S
C611 C610 1.355 . S
C611 C613 1.419 . S
C612 C610 1.415 . S
C612 C617 1.425 . S
C612 C619 1.409 . S
C613 H605 0.930 . S
C613 C611 1.419 . S
C613 C614 1.362 . S
C614 H606 0.930 . S
C614 C613 1.362 . S
C614 C617 1.409 . S
C615 H607 0.930 . S
C615 C616 1.355 . S
C615 C617 1.415 . S
C616 C615 1.355 . S
C616 C618 1.419 . S
C617 C612 1.425 . S
C617 C614 1.409 . S
C617 C615 1.415 . S
C618 H608 0.930 . S
C618 C616 1.419 . S
C618 C619 1.362 . S
C619 H609 0.930 . S
C619 C612 1.409 . S
C619 C618 1.362 . S
H620 C626 0.930 . S
H621 C629 0.930 . S
H622 C630 0.930 . S
H623 C631 0.930 . S
H624 C634 0.930 . S
H625 C635 0.930 . S
C626 H620 0.930 . S
C626 C627 1.355 . S
C626 C628 1.415 . S
C627 C626 1.355 . S
C627 C629 1.419 . S
C628 C626 1.415 . S
C628 C633 1.425 . S
C628 C635 1.409 . S
C629 H621 0.930 . S
C629 C627 1.419 . S
C629 C630 1.362 . S
C630 H622 0.930 . S
C630 C629 1.362 . S
C630 C633 1.409 . S
C631 H623 0.930 . S
C631 C632 1.355 . S
C631 C633 1.415 . S
C632 C631 1.355 . S
C632 C634 1.419 . S
C633 C628 1.425 . S
C633 C630 1.409 . S
C633 C631 1.415 . S
C634 H624 0.930 . S
C634 C632 1.419 . S
C634 C635 1.362 . S
C635 H625 0.930 . S
C635 C628 1.409 . S
C635 C634 1.362 . S
H636 C642 0.930 . S
H637 C645 0.930 . S
H638 C646 0.930 . S
H639 C647 0.930 . S
H640 C650 0.930 . S
H641 C651 0.930 . S
C642 H636 0.930 . S
C642 C643 1.355 . S
C642 C644 1.415 . S
C643 C642 1.355 . S
C643 C645 1.419 . S
C644 C642 1.415 . S
C644 C649 1.425 . S
C644 C651 1.409 . S
C645 H637 0.930 . S
C645 C643 1.419 . S
C645 C646 1.362 . S
C646 H638 0.930 . S
C646 C645 1.362 . S
C646 C649 1.409 . S
C647 H639 0.930 . S
C647 C648 1.355 . S
C647 C649 1.415 . S
C648 C647 1.355 . S
C648 C650 1.419 . S
C649 C644 1.425 . S
C649 C646 1.409 . S
C649 C647 1.415 . S
C650 H640 0.930 . S
C650 C648 1.419 . S
C650 C651 1.362 . S
C651 H641 0.930 . S
C651 C644 1.409 . S
C651 C650 1.362 . S
H652 C658 0.930 . S
H653 C661 0.930 . S
H654 C662 0.930 . S
H655 C663 0.930 . S
H656 C666 0.930 . S
H657 C667 0.930 . S
C658 H652 0.930 . S
C658 C659 1.355 . S
C658 C660 1.415 . S
C659 C658 1.355 . S
C659 C661 1.419 . S
C660 C658 1.415 . S
C660 C665 1.425 . S
C660 C667 1.409 . S
C661 H653 0.930 . S
C661 C659 1.419 . S
C661 C662 1.362 . S
C662 H654 0.930 . S
C662 C661 1.362 . S
C662 C665 1.409 . S
C663 H655 0.930 . S
C663 C664 1.355 . S
C663 C665 1.415 . S
C664 C663 1.355 . S
C664 C666 1.419 . S
C665 C660 1.425 . S
C665 C662 1.409 . S
C665 C663 1.415 . S
C666 H656 0.930 . S
C666 C664 1.419 . S
C666 C667 1.362 . S
C667 H657 0.930 . S
C667 C660 1.409 . S
C667 C666 1.362 . S
H668 C674 0.930 . S
H669 C677 0.930 . S
H670 C678 0.930 . S
H671 C679 0.930 . S
H672 C682 0.930 . S
H673 C683 0.930 . S
C674 H668 0.930 . S
C674 C675 1.355 . S
C674 C676 1.415 . S
C675 C674 1.355 . S
C675 C677 1.419 . S
C676 C674 1.415 . S
C676 C681 1.425 . S
C676 C683 1.409 . S
C677 H669 0.930 . S
C677 C675 1.419 . S
C677 C678 1.362 . S
C678 H670 0.930 . S
C678 C677 1.362 . S
C678 C681 1.409 . S
C679 H671 0.930 . S
C679 C680 1.355 . S
C679 C681 1.415 . S
C680 C679 1.355 . S
C680 C682 1.419 . S
C681 C676 1.425 . S
C681 C678 1.409 . S
C681 C679 1.415 . S
C682 H672 0.930 . S
C682 C680 1.419 . S
C682 C683 1.362 . S
C683 H673 0.930 . S
C683 C676 1.409 . S
C683 C682 1.362 . S
H684 C690 0.930 . S
H685 C693 0.930 . S
H686 C694 0.930 . S
H687 C695 0.930 . S
H688 C698 0.930 . S
H689 C699 0.930 . S
C690 H684 0.930 . S
C690 C691 1.355 . S
C690 C692 1.415 . S
C691 C690 1.355 . S
C691 C693 1.419 . S
C692 C690 1.415 . S
C692 C697 1.425 . S
C692 C699 1.409 . S
C693 H685 0.930 . S
C693 C691 1.419 . S
C693 C694 1.362 . S
C694 H686 0.930 . S
C694 C693 1.362 . S
C694 C697 1.409 . S
C695 H687 0.930 . S
C695 C696 1.355 . S
C695 C697 1.415 . S
C696 C695 1.355 . S
C696 C698 1.419 . S
C697 C692 1.425 . S
C697 C694 1.409 . S
C697 C695 1.415 . S
C698 H688 0.930 . S
C698 C696 1.419 . S
C698 C699 1.362 . S
C699 H689 0.930 . S
C699 C692 1.409 . S
C699 C698 1.362 . S
H700 C706 0.930 . S
H701 C709 0.930 . S
H702 C710 0.930 . S
H703 C711 0.930 . S
H704 C714 0.930 1_556 S
H705 C715 0.930 . S
C706 H700 0.930 . S
C706 C707 1.355 . S
C706 C708 1.415 . S
C707 C706 1.355 . S
C707 C709 1.419 . S
C708 C706 1.415 . S
C708 C713 1.425 . S
C708 C715 1.409 . S
C709 H701 0.930 . S
C709 C707 1.419 . S
C709 C710 1.362 . S
C710 H702 0.930 . S
C710 C709 1.362 . S
C710 C713 1.409 . S
C711 H703 0.930 . S
C711 C712 1.355 . S
C711 C713 1.415 . S
C712 C711 1.355 . S
C712 C714 1.419 . S
C713 C708 1.425 . S
C713 C710 1.409 . S
C713 C711 1.415 . S
C714 H704 0.930 1_554 S
C714 C712 1.419 . S
C714 C715 1.362 . S
C715 H705 0.930 . S
C715 C708 1.409 . S
C715 C714 1.362 . S
H716 C722 0.930 . S
H717 C725 0.930 . S
H718 C726 0.930 . S
H719 C727 0.930 . S
H720 C730 0.930 . S
H721 C731 0.930 . S
C722 H716 0.930 . S
C722 C723 1.355 . S
C722 C724 1.415 . S
C723 C722 1.355 . S
C723 C725 1.419 . S
C724 C722 1.415 . S
C724 C729 1.425 . S
C724 C731 1.409 . S
C725 H717 0.930 . S
C725 C723 1.419 . S
C725 C726 1.362 . S
C726 H718 0.930 . S
C726 C725 1.362 . S
C726 C729 1.409 . S
C727 H719 0.930 . S
C727 C728 1.355 . S
C727 C729 1.415 . S
C728 C727 1.355 . S
C728 C730 1.419 . S
C729 C724 1.425 . S
C729 C726 1.409 . S
C729 C727 1.415 . S
C730 H720 0.930 . S
C730 C728 1.419 . S
C730 C731 1.362 . S
C731 H721 0.930 . S
C731 C724 1.409 . S
C731 C730 1.362 . S
H732 C738 0.930 . S
H733 C741 0.930 . S
H734 C742 0.930 . S
H735 C743 0.930 . S
H736 C746 0.930 . S
H737 C747 0.930 . S
C738 H732 0.930 . S
C738 C739 1.355 . S
C738 C740 1.415 . S
C739 C738 1.355 . S
C739 C741 1.419 . S
C740 C738 1.415 . S
C740 C745 1.425 . S
C740 C747 1.409 . S
C741 H733 0.930 . S
C741 C739 1.419 . S
C741 C742 1.362 . S
C742 H734 0.930 . S
C742 C741 1.362 . S
C742 C745 1.409 . S
C743 H735 0.930 . S
C743 C744 1.355 . S
C743 C745 1.415 . S
C744 C743 1.355 . S
C744 C746 1.419 . S
C745 C740 1.425 . S
C745 C742 1.409 . S
C745 C743 1.415 . S
C746 H736 0.930 . S
C746 C744 1.419 . S
C746 C747 1.362 . S
C747 H737 0.930 . S
C747 C740 1.409 . S
C747 C746 1.362 . S
H748 C754 0.930 . S
H749 C757 0.930 . S
H750 C758 0.930 . S
H751 C759 0.930 . S
H752 C762 0.930 . S
H753 C763 0.930 . S
C754 H748 0.930 . S
C754 C755 1.355 . S
C754 C756 1.415 . S
C755 C754 1.355 . S
C755 C757 1.419 . S
C756 C754 1.415 . S
C756 C761 1.425 . S
C756 C763 1.409 . S
C757 H749 0.930 . S
C757 C755 1.419 . S
C757 C758 1.362 . S
C758 H750 0.930 . S
C758 C757 1.362 . S
C758 C761 1.409 . S
C759 H751 0.930 . S
C759 C760 1.355 . S
C759 C761 1.415 . S
C760 C759 1.355 . S
C760 C762 1.419 . S
C761 C756 1.425 . S
C761 C758 1.409 . S
C761 C759 1.415 . S
C762 H752 0.930 . S
C762 C760 1.419 . S
C762 C763 1.362 . S
C763 H753 0.930 . S
C763 C756 1.409 . S
C763 C762 1.362 . S
H764 C770 0.930 . S
H765 C773 0.930 . S
H766 C774 0.930 . S
H767 C775 0.930 . S
H768 C778 0.930 . S
H769 C779 0.930 . S
C770 H764 0.930 . S
C770 C771 1.355 . S
C770 C772 1.415 . S
C771 C770 1.355 . S
C771 C773 1.419 . S
C772 C770 1.415 . S
C772 C777 1.425 . S
C772 C779 1.409 . S
C773 H765 0.930 . S
C773 C771 1.419 . S
C773 C774 1.362 . S
C774 H766 0.930 . S
C774 C773 1.362 . S
C774 C777 1.409 . S
C775 H767 0.930 . S
C775 C776 1.355 . S
C775 C777 1.415 . S
C776 C775 1.355 . S
C776 C778 1.419 . S
C777 C772 1.425 . S
C777 C774 1.409 . S
C777 C775 1.415 . S
C778 H768 0.930 . S
C778 C776 1.419 . S
C778 C779 1.362 . S
C779 H769 0.930 . S
C779 C772 1.409 . S
C779 C778 1.362 . S
H780 C786 0.930 . S
H781 C789 0.930 . S
H782 C790 0.930 . S
H783 C791 0.930 . S
H784 C794 0.930 . S
H785 C795 0.930 . S
C786 H780 0.930 . S
C786 C787 1.355 . S
C786 C788 1.415 . S
C787 C786 1.355 . S
C787 C789 1.419 . S
C788 C786 1.415 . S
C788 C793 1.425 . S
C788 C795 1.409 . S
C789 H781 0.930 . S
C789 C787 1.419 . S
C789 C790 1.362 . S
C790 H782 0.930 . S
C790 C789 1.362 . S
C790 C793 1.409 . S
C791 H783 0.930 . S
C791 C792 1.355 . S
C791 C793 1.415 . S
C792 C791 1.355 . S
C792 C794 1.419 . S
C793 C788 1.425 . S
C793 C790 1.409 . S
C793 C791 1.415 . S
C794 H784 0.930 . S
C794 C792 1.419 . S
C794 C795 1.362 . S
C795 H785 0.930 . S
C795 C788 1.409 . S
C795 C794 1.362 . S
H796 C802 0.930 . S
H797 C805 0.930 . S
H798 C806 0.930 . S
H799 C807 0.930 . S
H800 C810 0.930 . S
H801 C811 0.930 . S
C802 H796 0.930 . S
C802 C803 1.355 . S
C802 C804 1.415 . S
C803 C802 1.355 . S
C803 C805 1.419 . S
C804 C802 1.415 . S
C804 C809 1.425 . S
C804 C811 1.409 . S
C805 H797 0.930 . S
C805 C803 1.419 . S
C805 C806 1.362 . S
C806 H798 0.930 . S
C806 C805 1.362 . S
C806 C809 1.409 . S
C807 H799 0.930 . S
C807 C808 1.355 . S
C807 C809 1.415 . S
C808 C807 1.355 . S
C808 C810 1.419 . S
C809 C804 1.425 . S
C809 C806 1.409 . S
C809 C807 1.415 . S
C810 H800 0.930 . S
C810 C808 1.419 . S
C810 C811 1.362 . S
C811 H801 0.930 . S
C811 C804 1.409 . S
C811 C810 1.362 . S
H812 C818 0.930 . S
H813 C821 0.930 . S
H814 C822 0.930 . S
H815 C823 0.930 . S
H816 C826 0.930 . S
H817 C827 0.930 . S
C818 H812 0.930 . S
C818 C819 1.355 . S
C818 C820 1.415 . S
C819 C818 1.355 . S
C819 C821 1.419 . S
C820 C818 1.415 . S
C820 C825 1.425 . S
C820 C827 1.409 . S
C821 H813 0.930 . S
C821 C819 1.419 . S
C821 C822 1.362 . S
C822 H814 0.930 . S
C822 C821 1.362 . S
C822 C825 1.409 . S
C823 H815 0.930 . S
C823 C824 1.355 . S
C823 C825 1.415 . S
C824 C823 1.355 . S
C824 C826 1.419 . S
C825 C820 1.425 . S
C825 C822 1.409 . S
C825 C823 1.415 . S
C826 H816 0.930 . S
C826 C824 1.419 . S
C826 C827 1.362 . S
C827 H817 0.930 . S
C827 C820 1.409 . S
C827 C826 1.362 . S
H828 C834 0.930 . S
H829 C837 0.930 . S
H830 C838 0.930 . S
H831 C839 0.930 . S
H832 C842 0.930 . S
H833 C843 0.930 . S
C834 H828 0.930 . S
C834 C835 1.355 . S
C834 C836 1.415 . S
C835 C834 1.355 . S
C835 C837 1.419 . S
C836 C834 1.415 . S
C836 C841 1.425 . S
C836 C843 1.409 . S
C837 H829 0.930 . S
C837 C835 1.419 . S
C837 C838 1.362 . S
C838 H830 0.930 . S
C838 C837 1.362 . S
C838 C841 1.409 . S
C839 H831 0.930 . S
C839 C840 1.355 . S
C839 C841 1.415 . S
C840 C839 1.355 . S
C840 C842 1.419 . S
C841 C836 1.425 . S
C841 C838 1.409 . S
C841 C839 1.415 . S
C842 H832 0.930 . S
C842 C840 1.419 . S
C842 C843 1.362 . S
C843 H833 0.930 . S
C843 C836 1.409 . S
C843 C842 1.362 . S
H844 C850 0.930 . S
H845 C853 0.930 . S
H846 C854 0.930 . S
H847 C855 0.930 . S
H848 C858 0.930 . S
H849 C859 0.930 . S
C850 H844 0.930 . S
C850 C851 1.355 . S
C850 C852 1.415 . S
C851 C850 1.355 . S
C851 C853 1.419 . S
C852 C850 1.415 . S
C852 C857 1.425 . S
C852 C859 1.409 . S
C853 H845 0.930 . S
C853 C851 1.419 . S
C853 C854 1.362 . S
C854 H846 0.930 . S
C854 C853 1.362 . S
C854 C857 1.409 . S
C855 H847 0.930 . S
C855 C856 1.355 . S
C855 C857 1.415 . S
C856 C855 1.355 . S
C856 C858 1.419 . S
C857 C852 1.425 . S
C857 C854 1.409 . S
C857 C855 1.415 . S
C858 H848 0.930 . S
C858 C856 1.419 . S
C858 C859 1.362 . S
C859 H849 0.930 . S
C859 C852 1.409 . S
C859 C858 1.362 . S
H860 C866 0.930 . S
H861 C869 0.930 . S
H862 C870 0.930 . S
H863 C871 0.930 . S
H864 C874 0.930 . S
H865 C875 0.930 . S
C866 H860 0.930 . S
C866 C867 1.355 . S
C866 C868 1.415 . S
C867 C866 1.355 . S
C867 C869 1.419 . S
C868 C866 1.415 . S
C868 C873 1.425 . S
C868 C875 1.409 . S
C869 H861 0.930 . S
C869 C867 1.419 . S
C869 C870 1.362 . S
C870 H862 0.930 . S
C870 C869 1.362 . S
C870 C873 1.409 . S
C871 H863 0.930 . S
C871 C872 1.355 . S
C871 C873 1.415 . S
C872 C871 1.355 . S
C872 C874 1.419 . S
C873 C868 1.425 . S
C873 C870 1.409 . S
C873 C871 1.415 . S
C874 H864 0.930 . S
C874 C872 1.419 . S
C874 C875 1.362 . S
C875 H865 0.930 . S
C875 C868 1.409 . S
C875 C874 1.362 . S
C403 C8 1.252 . S
C408 C371 1.196 . S
C419 C41 1.274 . S
C424 C206 1.224 . S
C435 C239 1.274 . S
C440 C74 1.227 . S
C451 C272 1.263 . S
C456 C107 1.199 . S
C467 C305 1.217 . S
C472 C140 1.210 . S
C483 C173 1.268 . S
C488 C338 1.203 . S
C499 C281 1.580 . S
C504 C17 1.582 . S
C515 C314 1.608 . S
C520 C50 1.597 . S
C531 C83 1.589 . S
C536 C347 1.579 . S
C547 C116 1.606 . S
C552 C380 1.606 . S
C563 C215 1.603 . S
C568 C149 1.607 . S
C579 C182 1.584 . S
C584 C248 1.600 . S
C595 N14 1.388 . S
C600 N5 1.392 1_556 S
C611 N38 1.377 . S
C616 N47 1.373 . S
C627 N80 1.390 . S
C632 N71 1.393 1_556 S
C643 N104 1.384 . S
C648 N113 1.379 . S
C659 N146 1.378 . S
C664 N137 1.382 1_556 S
C675 N170 1.366 . S
C680 N179 1.367 . S
C691 N203 1.396 . S
C696 N212 1.396 . S
C707 N245 1.394 . S
C712 N236 1.391 1_554 S
C723 N269 1.395 . S
C728 N278 1.396 . S
C739 N302 1.377 1_554 S
C744 N311 1.372 . S
C755 N344 1.374 . S
C760 N335 1.371 . S
C771 N377 1.374 . S
C776 N368 1.379 1_554 S
C787 C28 1.289 . S
C792 C358 1.296 . S
C803 C391 1.291 . S
C808 C61 1.293 . S
C819 C226 1.282 . S
C824 C94 1.299 . S
C835 C127 1.288 . S
C840 C259 1.286 . S
C851 C160 1.299 . S
C856 C292 1.282 . S
C867 C193 1.295 . S
C872 C325 1.291 . S
