# Generated by pormake.
# Topology uov, (4)-cn, num edge types: 1
# Building blocks:
#     Node 0, Type 0, BuildingBlock: TATPOV_clean_sbu_0, # of connection points: 4
#     Node 1, Type 0, BuildingBlock: TATPOV_clean_sbu_0, # of connection points: 4
#     Node 2, Type 0, BuildingBlock: TATPOV_clean_sbu_0, # of connection points: 4
#     Node 3, Type 0, BuildingBlock: TATPOV_clean_sbu_0, # of connection points: 4
#     Node 4, Type 0, BuildingBlock: TATPOV_clean_sbu_0, # of connection points: 4
#     Node 5, Type 0, BuildingBlock: TATPOV_clean_sbu_0, # of connection points: 4
#     Node 6, Type 0, BuildingBlock: TATPOV_clean_sbu_0, # of connection points: 4
#     Node 7, Type 0, BuildingBlock: TATPOV_clean_sbu_0, # of connection points: 4
#     Edge 8, Type (0, 0), BuildingBlock: ZUJKAS_clean_linker_0, # of connection points: 2
#     Edge 9, Type (0, 0), BuildingBlock: ZUJKAS_clean_linker_0, # of connection points: 2
#     Edge 10, Type (0, 0), BuildingBlock: ZUJKAS_clean_linker_0, # of connection points: 2
#     Edge 11, Type (0, 0), BuildingBlock: ZUJKAS_clean_linker_0, # of connection points: 2
#     Edge 12, Type (0, 0), BuildingBlock: ZUJKAS_clean_linker_0, # of connection points: 2
#     Edge 13, Type (0, 0), BuildingBlock: ZUJKAS_clean_linker_0, # of connection points: 2
#     Edge 14, Type (0, 0), BuildingBlock: ZUJKAS_clean_linker_0, # of connection points: 2
#     Edge 15, Type (0, 0), BuildingBlock: ZUJKAS_clean_linker_0, # of connection points: 2
#     Edge 16, Type (0, 0), BuildingBlock: ZUJKAS_clean_linker_0, # of connection points: 2
#     Edge 17, Type (0, 0), BuildingBlock: ZUJKAS_clean_linker_0, # of connection points: 2
#     Edge 18, Type (0, 0), BuildingBlock: ZUJKAS_clean_linker_0, # of connection points: 2
#     Edge 19, Type (0, 0), BuildingBlock: ZUJKAS_clean_linker_0, # of connection points: 2
#     Edge 20, Type (0, 0), BuildingBlock: ZUJKAS_clean_linker_0, # of connection points: 2
#     Edge 21, Type (0, 0), BuildingBlock: ZUJKAS_clean_linker_0, # of connection points: 2
#     Edge 22, Type (0, 0), BuildingBlock: ZUJKAS_clean_linker_0, # of connection points: 2
#     Edge 23, Type (0, 0), BuildingBlock: ZUJKAS_clean_linker_0, # of connection points: 2
# Relax obj value: 0.183
# Max RMSD: 0.193
# Mean RMSD: 0.193
data_MOF--net-uov--node1-TATPOV_clean_sbu_0--edge1-ZUJKAS_clean_linker_0
_symmetry_space_group_name_H-M    P1
_symmetry_Int_Tables_number       1
_symmetry_cell_setting            triclinic
loop_
_symmetry_equiv_pos_as_xyz
'x, y, z'
_cell_length_a     38.411265
_cell_length_b     38.390624
_cell_length_c     55.651197
_cell_angle_alpha  89.986583
_cell_angle_beta   90.060854
_cell_angle_gamma 90.01564
loop_
_atom_site_label
_atom_site_type_symbol
_atom_site_fract_x
_atom_site_fract_y
_atom_site_fract_z
_atom_type_partial_charge
Zn0 Zn 0.10695 0.1917 0.59298 0.0
Zn1 Zn 0.09432 0.25923 0.59295 0.0
O2 O 0.04647 0.23664 0.58635 0.0
O3 O 0.0571 0.18045 0.58501 0.0
O4 O 0.08129 0.31005 0.59343 0.0
O5 O 0.12325 0.19348 0.62686 0.0
O6 O 0.11712 0.25046 0.62641 0.0
C7 C 0.03586 0.20551 0.58322 0.0
C8 C 0.1452 0.22856 0.5566 0.0
O9 O 0.1278 0.25464 0.56408 0.0
O10 O 0.1418 0.1991 0.56655 0.0
C11 C 0.06956 0.32365 0.57422 0.0
O12 O 0.06792 0.30456 0.55465 0.0
C13 C 0.12655 0.22264 0.63718 0.0
Zn14 Zn 0.18958 0.95221 0.38025 0.0
Zn15 Zn 0.2552 0.93915 0.39368 0.0
O16 O 0.24829 0.99249 0.39517 0.0
O17 O 0.19577 0.0042 0.38169 0.0
O18 O 0.30592 0.93574 0.40225 0.0
O19 O 0.19809 0.92678 0.34931 0.0
O20 O 0.25137 0.9139 0.361 0.0
C21 C 0.22474 0.01453 0.3898 0.0
C22 C 0.19693 0.91027 0.42412 0.0
O23 O 0.22948 0.91298 0.42023 0.0
O24 O 0.17531 0.9249 0.41011 0.0
C25 C 0.31619 0.94957 0.42176 0.0
O26 O 0.29301 0.96316 0.43635 0.0
C27 C 0.2269 0.91173 0.34558 0.0
Zn28 Zn 0.91339 0.80289 0.60735 0.0
Zn29 Zn 0.9122 0.73533 0.59895 0.0
O30 O 0.96321 0.75152 0.59368 0.0
O31 O 0.96441 0.80761 0.60136 0.0
O32 O 0.91775 0.68347 0.59543 0.0
O33 O 0.89545 0.79629 0.64074 0.0
O34 O 0.88888 0.74061 0.63236 0.0
C35 C 0.98001 0.78012 0.59503 0.0
C36 C 0.86962 0.7817 0.56669 0.0
O37 O 0.87986 0.75094 0.57161 0.0
O38 O 0.87986 0.8072 0.57936 0.0
C39 C 0.92937 0.6707 0.57595 0.0
O40 O 0.93512 0.69155 0.55765 0.0
C41 C 0.88508 0.76624 0.64668 0.0
Zn42 Zn 0.79986 0.03896 0.37607 0.0
Zn43 Zn 0.73596 0.04998 0.39256 0.0
O44 O 0.74381 0.99668 0.39315 0.0
O45 O 0.79671 0.98708 0.37977 0.0
O46 O 0.68591 0.05232 0.4029 0.0
O47 O 0.78746 0.06252 0.34499 0.0
O48 O 0.73637 0.07624 0.36015 0.0
C49 C 0.76836 0.97557 0.38815 0.0
C50 C 0.79649 0.0804 0.42017 0.0
O51 O 0.76372 0.07573 0.41859 0.0
O52 O 0.81661 0.06783 0.40433 0.0
C53 C 0.67655 0.03598 0.42169 0.0
O54 O 0.70038 0.02047 0.43484 0.0
C55 C 0.75853 0.07809 0.34317 0.0
Zn56 Zn 0.93018 0.1942 0.1236 0.0
Zn57 Zn 0.92509 0.26096 0.11091 0.0
O58 O 0.97737 0.2483 0.10974 0.0
O59 O 0.98237 0.19407 0.12195 0.0
O60 O 0.92732 0.31199 0.10294 0.0
O61 O 0.90674 0.2046 0.15478 0.0
O62 O 0.89855 0.25895 0.14334 0.0
C63 C 0.99627 0.22192 0.11455 0.0
C64 C 0.89092 0.20694 0.07927 0.0
O65 O 0.89801 0.23884 0.08321 0.0
O66 O 0.90132 0.18362 0.09375 0.0
C67 C 0.94304 0.32086 0.0838 0.0
O68 O 0.95483 0.29643 0.06942 0.0
C69 C 0.8944 0.23461 0.15867 0.0
Zn70 Zn 0.18454 0.0637 0.89532 0.0
Zn71 Zn 0.25193 0.0751 0.90328 0.0
O72 O 0.24469 0.02188 0.903 0.0
O73 O 0.19037 0.01169 0.89277 0.0
O74 O 0.30383 0.07701 0.90811 0.0
O75 O 0.1867 0.09387 0.86611 0.0
O76 O 0.24259 0.1032 0.87208 0.0
C77 C 0.22027 0.00047 0.89831 0.0
C78 C 0.19986 0.09942 0.94041 0.0
O79 O 0.23135 0.09802 0.93333 0.0
O80 O 0.17583 0.08616 0.92772 0.0
C81 C 0.31577 0.0619 0.92672 0.0
O82 O 0.29377 0.04864 0.9423 0.0
C83 C 0.21491 0.1083 0.85987 0.0
Zn84 Zn 0.08549 0.80536 0.10244 0.0
Zn85 Zn 0.08296 0.73702 0.09527 0.0
O86 O 0.03317 0.75492 0.08852 0.0
O87 O 0.03483 0.81149 0.09454 0.0
O88 O 0.07635 0.68536 0.09151 0.0
O89 O 0.10017 0.79849 0.13648 0.0
O90 O 0.10393 0.74212 0.12953 0.0
C91 C 0.01802 0.78445 0.08869 0.0
C92 C 0.12976 0.78036 0.0635 0.0
O93 O 0.11644 0.75079 0.06831 0.0
O94 O 0.12166 0.80691 0.07584 0.0
C95 C 0.06154 0.67391 0.07266 0.0
O96 O 0.0528 0.69601 0.05565 0.0
C97 C 0.10798 0.76815 0.1435 0.0
Zn98 Zn 0.79538 0.94972 0.86998 0.0
Zn99 Zn 0.73179 0.9419 0.88757 0.0
O100 O 0.74509 0.99365 0.89192 0.0
O101 O 0.79724 0.00113 0.87666 0.0
O102 O 0.6815 0.94275 0.8976 0.0
O103 O 0.78085 0.93189 0.8377 0.0
O104 O 0.73028 0.91878 0.85392 0.0
C105 C 0.77089 0.01341 0.8873 0.0
C106 C 0.78947 0.9035 0.91218 0.0
O107 O 0.75734 0.9117 0.91202 0.0
O108 O 0.80983 0.91541 0.8962 0.0
C109 C 0.6728 0.95813 0.91692 0.0
O110 O 0.69728 0.97067 0.93098 0.0
C111 C 0.75115 0.91785 0.83614 0.0
H112 H 0.93281 0.62382 0.6129 0.0
H113 H 0.95606 0.56461 0.6117 0.0
H114 H 0.97272 0.57423 0.53536 0.0
H115 H 0.9504 0.63386 0.53649 0.0
H116 H 0.93655 0.50622 0.58792 0.0
H117 H 0.06851 0.54647 0.5584 0.0
H118 H 0.03635 0.57733 0.56858 0.0
H119 H 0.03457 0.56043 0.53844 0.0
C120 C 0.94125 0.61331 0.59581 0.0
C121 C 0.94008 0.63369 0.57482 0.0
C122 C 0.95457 0.57945 0.59517 0.0
C123 C 0.96689 0.56528 0.57355 0.0
C124 C 0.9643 0.58499 0.55237 0.0
H125 H 0.04968 0.36246 0.53541 0.0
H126 H 0.02467 0.42111 0.53541 0.0
C127 C 0.95127 0.61898 0.55302 0.0
C128 C 0.9827 0.53001 0.57329 0.0
H129 H 0.05709 0.48566 0.55923 0.0
C130 C 0.96294 0.50176 0.58173 0.0
C131 C 0.01725 0.52425 0.56533 0.0
C132 C 0.04055 0.55375 0.5574 0.0
C133 C 0.97664 0.46786 0.5821 0.0
C134 C 0.01095 0.46216 0.57389 0.0
C135 C 0.03072 0.49026 0.56542 0.0
C136 C 0.02676 0.42707 0.57401 0.0
C137 C 0.95431 0.43822 0.59099 0.0
C138 C 0.03669 0.4114 0.59572 0.0
C139 C 0.05126 0.37802 0.5958 0.0
C140 C 0.05594 0.35972 0.57414 0.0
C141 C 0.04634 0.37579 0.5524 0.0
C142 C 0.03205 0.40927 0.55234 0.0
H143 H 0.9267 0.44609 0.59336 0.0
H144 H 0.95546 0.41599 0.57824 0.0
H145 H 0.96444 0.42901 0.60856 0.0
H146 H 0.03305 0.42496 0.6126 0.0
H147 H 0.05834 0.36637 0.61285 0.0
H148 H 0.6207 0.05924 0.39574 0.0
H149 H 0.55948 0.04469 0.4018 0.0
H150 H 0.58627 0.98598 0.46526 0.0
H151 H 0.64777 -9e-05 0.45912 0.0
H152 H 0.54522 0.94905 0.43444 0.0
H153 H 0.48811 0.07948 0.4498 0.0
H154 H 0.51362 0.07773 0.42284 0.0
H155 H 0.53436 0.07143 0.45153 0.0
C156 C 0.61357 0.0437 0.41122 0.0
C157 C 0.63915 0.03071 0.42693 0.0
C158 C 0.5785 0.03556 0.41473 0.0
C159 C 0.56826 0.01461 0.43415 0.0
C160 C 0.59361 0.00232 0.45022 0.0
H161 H 0.34669 0.97943 0.46112 0.0
H162 H 0.40845 0.99231 0.46711 0.0
C163 C 0.62873 0.01038 0.4467 0.0
C164 C 0.5315 0.00339 0.43653 0.0
H165 H 0.44822 0.03407 0.43871 0.0
C166 C 0.524 0.96761 0.43569 0.0
C167 C 0.5039 0.02758 0.43851 0.0
C168 C 0.51038 0.06618 0.44098 0.0
C169 C 0.48955 0.95544 0.43575 0.0
C170 C 0.46191 0.97976 0.4362 0.0
C171 C 0.46944 0.01545 0.43809 0.0
C172 C 0.42504 0.96897 0.43365 0.0
C173 C 0.48311 0.91668 0.43525 0.0
C174 C 0.41392 0.95132 0.41293 0.0
C175 C 0.37868 0.94378 0.40949 0.0
C176 C 0.35383 0.9541 0.4266 0.0
C177 C 0.36514 0.97109 0.44759 0.0
C178 C 0.40042 0.97854 0.45105 0.0
H179 H 0.50571 0.90201 0.44254 0.0
H180 H 0.45956 0.90965 0.44574 0.0
H181 H 0.47912 0.90824 0.41637 0.0
H182 H 0.43234 0.94437 0.39902 0.0
H183 H 0.37084 0.93085 0.39305 0.0
H184 H 0.92658 0.37754 0.11138 0.0
H185 H 0.94558 0.43771 0.10553 0.0
H186 H 0.99763 0.40821 0.04001 0.0
H187 H 0.97913 0.34787 0.04583 0.0
H188 H 0.03963 0.44567 0.07108 0.0
H189 H 0.91289 0.51217 0.05805 0.0
H190 H 0.91456 0.4857 0.08463 0.0
H191 H 0.91781 0.46552 0.05555 0.0
C192 C 0.94165 0.38391 0.09554 0.0
C193 C 0.95136 0.35788 0.07908 0.0
C194 C 0.95234 0.41836 0.09217 0.0
C195 C 0.9727 0.42747 0.0722 0.0
C196 C 0.98182 0.40172 0.05548 0.0
H197 H 0.02664 0.64196 0.03592 0.0
H198 H 0.00685 0.58145 0.03406 0.0
C199 C 0.97115 0.36726 0.05883 0.0
C200 C 0.98644 0.46333 0.06966 0.0
H201 H 0.96194 0.54862 0.06611 0.0
C202 C 0.02267 0.46818 0.06978 0.0
C203 C 0.96426 0.49259 0.06769 0.0
C204 C 0.92522 0.48882 0.06623 0.0
C205 C 0.03732 0.50162 0.06871 0.0
C206 C 0.01511 0.53096 0.06787 0.0
C207 C 0.9789 0.52607 0.06699 0.0
C208 C 0.02884 0.567 0.06844 0.0
C209 C 0.07643 0.50525 0.06842 0.0
C210 C 0.04779 0.57887 0.08839 0.0
C211 C 0.0592 0.61339 0.08951 0.0
C212 C 0.05165 0.63675 0.07075 0.0
C213 C 0.03298 0.62464 0.05065 0.0
C214 C 0.02157 0.5901 0.04956 0.0
H215 H 0.08929 0.48085 0.0624 0.0
H216 H 0.08469 0.52686 0.05644 0.0
H217 H 0.08574 0.5111 0.08687 0.0
H218 H 0.0531 0.56163 0.10336 0.0
H219 H 0.07335 0.62192 0.1053 0.0
H220 H 0.34903 0.02983 0.96404 0.0
H221 H 0.41051 0.01394 0.96671 0.0
H222 H 0.42934 0.06223 0.89796 0.0
H223 H 0.36798 0.0787 0.89528 0.0
H224 H 0.44514 0.97099 0.93553 0.0
H225 H 0.50874 0.10049 0.93872 0.0
H226 H 0.46278 0.0946 0.94414 0.0
H227 H 0.47923 0.09577 0.9139 0.0
C228 C 0.36633 0.03758 0.94965 0.0
C229 C 0.35359 0.05555 0.92944 0.0
C230 C 0.40145 0.0284 0.9512 0.0
C231 C 0.42456 0.03718 0.93266 0.0
C232 C 0.41211 0.0558 0.9127 0.0
H233 H 0.61604 0.93953 0.89009 0.0
H234 H 0.55562 0.95722 0.89619 0.0
C235 C 0.37698 0.06506 0.91115 0.0
C236 C 0.46107 0.02472 0.93338 0.0
H237 H 0.54553 0.05187 0.93001 0.0
C238 C 0.46712 0.98869 0.93455 0.0
C239 C 0.48969 0.04785 0.93242 0.0
C240 C 0.48488 0.08685 0.93247 0.0
C241 C 0.50102 0.97509 0.934 0.0
C242 C 0.52955 0.99814 0.93183 0.0
C243 C 0.52358 0.03422 0.93146 0.0
C244 C 0.56576 0.98541 0.92914 0.0
C245 C 0.50595 0.93619 0.93581 0.0
C246 C 0.59157 0.99557 0.94556 0.0
C247 C 0.62621 0.98564 0.94206 0.0
C248 C 0.6357 0.96557 0.92196 0.0
C249 C 0.60962 0.95483 0.90582 0.0
C250 C 0.57501 0.96479 0.90933 0.0
H251 H 0.48316 0.92338 0.94435 0.0
H252 H 0.50891 0.9252 0.91749 0.0
H253 H 0.52967 0.92967 0.94631 0.0
H254 H 0.58497 0.01161 0.96091 0.0
H255 H 0.64565 0.99444 0.9548 0.0
H256 H 0.26486 0.04137 0.42557 0.0
H257 H 0.26036 0.09958 0.44281 0.0
H258 H 0.19124 0.13027 0.38541 0.0
H259 H 0.19388 0.07115 0.36894 0.0
H260 H 0.26907 0.1672 0.43261 0.0
H261 H 0.12723 0.13857 0.44122 0.0
H262 H 0.15763 0.10641 0.43069 0.0
H263 H 0.14355 0.14099 0.41111 0.0
C264 C 0.24929 0.06072 0.41632 0.0
C265 C 0.22905 0.05157 0.39627 0.0
C266 C 0.2468 0.09408 0.42615 0.0
C267 C 0.22452 0.119 0.41586 0.0
C268 C 0.20758 0.1111 0.39416 0.0
H269 H 0.13189 0.26585 0.5158 0.0
H270 H 0.15684 0.25396 0.47603 0.0
C271 C 0.20927 0.07741 0.38468 0.0
C272 C 0.21555 0.15069 0.42986 0.0
H273 H 0.14883 0.18571 0.46228 0.0
C274 C 0.24264 0.17177 0.4387 0.0
C275 C 0.18098 0.15689 0.43774 0.0
C276 C 0.15068 0.13445 0.42989 0.0
C277 C 0.23648 0.19691 0.45653 0.0
C278 C 0.20244 0.20108 0.46566 0.0
C279 C 0.17492 0.18253 0.45515 0.0
C280 C 0.19555 0.21769 0.48919 0.0
C281 C 0.26672 0.21745 0.4664 0.0
C282 C 0.21 0.2024 0.50982 0.0
C283 C 0.1955 0.20871 0.53233 0.0
C284 C 0.1665 0.23067 0.53466 0.0
C285 C 0.15441 0.24898 0.51446 0.0
C286 C 0.16864 0.24222 0.49176 0.0
H287 H 0.28696 0.2215 0.45242 0.0
H288 H 0.25821 0.24318 0.47336 0.0
H289 H 0.27884 0.20265 0.48136 0.0
H290 H 0.23022 0.18285 0.5083 0.0
H291 H 0.2053 0.19433 0.54768 0.0
H292 H 0.23444 0.87003 0.45585 0.0
H293 H 0.21152 0.83415 0.48879 0.0
H294 H 0.10742 0.86839 0.47186 0.0
H295 H 0.12973 0.90357 0.43897 0.0
H296 H 0.174 0.85216 0.52921 0.0
H297 H 0.09654 0.76324 0.47275 0.0
H298 H 0.13002 0.79106 0.46047 0.0
H299 H 0.0867 0.80761 0.4654 0.0
C300 C 0.20665 0.86981 0.45914 0.0
C301 C 0.18387 0.88943 0.44462 0.0
C302 C 0.19364 0.84928 0.47792 0.0
C303 C 0.1577 0.84794 0.48236 0.0
C304 C 0.13514 0.86821 0.4683 0.0
H305 H 0.02114 0.83788 0.59348 0.0
H306 H 0.07357 0.84583 0.56999 0.0
C307 C 0.14801 0.88855 0.44957 0.0
C308 C 0.14316 0.82653 0.5021 0.0
H309 H 0.07538 0.77187 0.51355 0.0
C310 C 0.15299 0.8339 0.52585 0.0
C311 C 0.11666 0.80175 0.49775 0.0
C312 C 0.10718 0.79016 0.47267 0.0
C313 C 0.13451 0.81984 0.54535 0.0
C314 C 0.10496 0.79872 0.54086 0.0
C315 C 0.09759 0.78853 0.51715 0.0
C316 C 0.0782 0.79166 0.55951 0.0
C317 C 0.1462 0.82874 0.57048 0.0
C318 C 0.06318 0.75842 0.56182 0.0
C319 C 0.0324 0.75391 0.57493 0.0
C320 C 0.01616 0.7826 0.58593 0.0
C321 C 0.03283 0.8152 0.58519 0.0
C322 C 0.06326 0.81973 0.57194 0.0
H323 H 0.17505 0.83051 0.57137 0.0
H324 H 0.13568 0.85464 0.57553 0.0
H325 H 0.13722 0.80914 0.58378 0.0
H326 H 0.07413 0.73636 0.55234 0.0
H327 H 0.02031 0.72842 0.57522 0.0
H328 H 0.8218 0.92999 0.39392 0.0
H329 H 0.82101 0.87667 0.41691 0.0
H330 H 0.70909 0.88313 0.42288 0.0
H331 H 0.71015 0.93852 0.40112 0.0
H332 H 0.73092 0.87666 0.46374 0.0
H333 H 0.80417 0.77729 0.41577 0.0
H334 H 0.83113 0.81514 0.4144 0.0
H335 H 0.7886 0.81562 0.40034 0.0
C336 C 0.79682 0.91961 0.39943 0.0
C337 C 0.76609 0.93881 0.396 0.0
C338 C 0.79632 0.88857 0.41241 0.0
C339 C 0.76494 0.87526 0.42159 0.0
C340 C 0.73371 0.89274 0.41611 0.0
H341 H 0.83971 0.73453 0.53539 0.0
H342 H 0.80359 0.74783 0.50002 0.0
C343 C 0.73431 0.92441 0.40362 0.0
C344 C 0.76616 0.84812 0.44072 0.0
H345 H 0.81903 0.7825 0.46019 0.0
C346 C 0.74922 0.85524 0.46256 0.0
C347 C 0.78882 0.81903 0.43949 0.0
C348 C 0.80375 0.80622 0.41606 0.0
C349 C 0.75811 0.83744 0.48366 0.0
C350 C 0.78563 0.813 0.48313 0.0
C351 C 0.79891 0.80229 0.46084 0.0
C352 C 0.80495 0.80367 0.50532 0.0
C353 C 0.73938 0.84668 0.50661 0.0
C354 C 0.8181 0.83057 0.51978 0.0
C355 C 0.83836 0.82314 0.53985 0.0
C356 C 0.84664 0.78856 0.54583 0.0
C357 C 0.83365 0.76144 0.53132 0.0
C358 C 0.81301 0.76898 0.51114 0.0
H359 H 0.7115 0.8523 0.50293 0.0
H360 H 0.74105 0.8254 0.52008 0.0
H361 H 0.75101 0.87065 0.51435 0.0
H362 H 0.81346 0.8576 0.5152 0.0
H363 H 0.84814 0.84476 0.55039 0.0
H364 H 0.86516 0.09203 0.42893 0.0
H365 H 0.89129 0.12301 0.46242 0.0
H366 H 0.78941 0.14517 0.49111 0.0
H367 H 0.76265 0.11334 0.45749 0.0
H368 H 0.88216 0.19248 0.47602 0.0
H369 H 0.84163 0.1003 0.54817 0.0
H370 H 0.83922 0.08876 0.51678 0.0
H371 H 0.80837 0.11877 0.52927 0.0
C372 C 0.84811 0.10341 0.44228 0.0
C373 C 0.81175 0.10006 0.44053 0.0
C374 C 0.86316 0.12123 0.46142 0.0
C375 C 0.84233 0.13621 0.47931 0.0
C376 C 0.80596 0.1334 0.47763 0.0
H377 H 0.98303 0.25264 0.57564 0.0
H378 H 0.92744 0.24166 0.55532 0.0
C379 C 0.79074 0.11534 0.45838 0.0
C380 C 0.85967 0.15425 0.49958 0.0
H381 H 0.88332 0.14241 0.55814 0.0
C382 C 0.88191 0.18215 0.49417 0.0
C383 C 0.85913 0.14061 0.52318 0.0
C384 C 0.83599 0.11036 0.52985 0.0
C385 C 0.90578 0.1949 0.5111 0.0
C386 C 0.9067 0.1799 0.53435 0.0
C387 C 0.88248 0.15388 0.54034 0.0
C388 C 0.93631 0.18634 0.55091 0.0
C389 C 0.9317 0.22221 0.50323 0.0
C390 C 0.9586 0.15859 0.55658 0.0
C391 C 0.98998 0.16464 0.56847 0.0
C392 C -0.00011 0.19868 0.57482 0.0
C393 C 0.97637 0.22617 0.57072 0.0
C394 C 0.94468 0.21998 0.55899 0.0
H395 H 0.93092 0.22679 0.48352 0.0
H396 H 0.92574 0.24721 0.51232 0.0
H397 H 0.95857 0.2144 0.50824 0.0
H398 H 0.95265 0.13238 0.55062 0.0
H399 H 0.00726 0.14279 0.57152 0.0
H400 H 0.8169 0.06579 0.87703 0.0
H401 H 0.83187 0.11444 0.90347 0.0
H402 H 0.74678 0.08721 0.95033 0.0
H403 H 0.73085 0.03944 0.92363 0.0
H404 H 0.76178 0.15885 0.9509 0.0
H405 H 0.88044 0.07747 0.96349 0.0
H406 H 0.87339 0.09316 0.9335 0.0
H407 H 0.84341 0.06253 0.9465 0.0
C408 C 0.80062 0.07093 0.89251 0.0
C409 C 0.77324 0.04823 0.89857 0.0
C410 C 0.80928 0.09866 0.90764 0.0
C411 C 0.79114 0.10364 0.92924 0.0
C412 C 0.76133 0.08361 0.93385 0.0
H413 H 0.86311 0.14338 0.06926 0.0
H414 H 0.83706 0.12386 0.03169 0.0
C415 C 0.75229 0.05621 0.91854 0.0
C416 C 0.80632 0.12495 0.94883 0.0
H417 H 0.87445 0.12612 0.98824 0.0
C418 C 0.78663 0.15211 0.9589 0.0
C419 C 0.83854 0.11563 0.95945 0.0
C420 C 0.86011 0.08546 0.95038 0.0
C421 C 0.79798 0.16962 0.9797 0.0
C422 C 0.82986 0.15979 0.99043 0.0
C423 C 0.85003 0.13355 0.97986 0.0
C424 C 0.84163 0.17373 0.01386 0.0
C425 C 0.77517 0.19729 0.99071 0.0
C426 C 0.85229 0.2085 0.01642 0.0
C427 C 0.8672 0.21987 0.03804 0.0
C428 C 0.87193 0.19648 0.05726 0.0
C429 C 0.86011 0.16202 0.05479 0.0
C430 C 0.84513 0.15081 0.03334 0.0
H431 H 0.74904 0.19833 0.98217 0.0
H432 H 0.77193 0.19251 0.01026 0.0
H433 H 0.78779 0.2231 0.98852 0.0
H434 H 0.85027 0.22645 0.00147 0.0
H435 H 0.87614 0.24655 0.03937 0.0
H436 H 0.24394 0.12629 0.97488 0.0
H437 H 0.22747 0.15142 0.01392 0.0
H438 H 0.11912 0.13544 -0.00315 0.0
H439 H 0.13501 0.11033 0.95835 0.0
H440 H 0.182 0.20956 0.02525 0.0
H441 H 0.13284 0.08542 0.06187 0.0
H442 H 0.16178 0.08738 0.03633 0.0
H443 H 0.1156 0.09339 0.03241 0.0
C444 C 0.21662 0.12821 0.97948 0.0
C445 C 0.19079 0.11598 0.96359 0.0
C446 C 0.20732 0.14256 0.00175 0.0
C447 C 0.17215 0.14461 0.00838 0.0
C448 C 0.14645 0.13338 0.99225 0.0
H449 H 0.02661 0.25788 0.07814 0.0
H450 H 0.08123 0.24333 0.05866 0.0
C451 C 0.15562 0.1191 0.97018 0.0
C452 C 0.16126 0.15835 0.03202 0.0
H453 H 0.10564 0.13783 0.07728 0.0
C454 C 0.16606 0.19381 0.03711 0.0
C455 C 0.14155 0.13756 0.04791 0.0
C456 C 0.13797 0.09873 0.0445 0.0
C457 C 0.14846 0.20974 0.05634 0.0
C458 C 0.12482 0.18978 0.07021 0.0
C459 C 0.12321 0.15357 0.06658 0.0
C460 C 0.09752 0.20584 0.0856 0.0
C461 C 0.15464 0.24791 0.06101 0.0
C462 C 0.08845 0.19042 0.10765 0.0
C463 C 0.05639 0.19782 0.11835 0.0
C464 C 0.03328 0.2214 0.1075 0.0
C465 C 0.04403 0.23977 0.087 0.0
C466 C 0.07561 0.23165 0.07593 0.0
H467 H 0.18238 0.25465 0.05781 0.0
H468 H 0.13883 0.26357 0.04827 0.0
H469 H 0.14768 0.25534 0.07968 0.0
H470 H 0.10488 0.17057 0.11558 0.0
H471 H 0.04878 0.18347 0.13427 0.0
H472 H 0.17776 0.83111 0.05598 0.0
H473 H 0.2046 0.84698 0.01779 0.0
H474 H 0.15782 0.75738 0.98404 0.0
H475 H 0.13104 0.74093 0.02248 0.0
H476 H 0.24579 0.80535 0.97674 0.0
H477 H 0.11139 0.85334 0.95757 0.0
H478 H 0.1253 0.84587 0.98811 0.0
H479 H 0.11827 0.80963 0.96839 0.0
C480 C 0.174 0.81418 0.04062 0.0
C481 C 0.15194 0.78507 0.04209 0.0
C482 C 0.18955 0.82314 0.01887 0.0
C483 C 0.18304 0.80339 -0.00182 0.0
C484 C 0.16325 0.77277 -8e-05 0.0
H485 H 0.18495 0.94555 0.87871 0.0
H486 H 0.1822 0.88634 0.89484 0.0
C487 C 0.14797 0.76348 0.02185 0.0
C488 C 0.1915 0.81889 0.97463 0.0
H489 H 0.15672 0.87678 0.9351 0.0
C490 C 0.22628 0.82025 0.96708 0.0
C491 C 0.16588 0.8378 0.96193 0.0
C492 C 0.12805 0.83681 0.96926 0.0
C493 C 0.23647 0.84208 0.94805 0.0
C494 C 0.2114 0.86407 0.93712 0.0
C495 C 0.17616 0.8602 0.9434 0.0
C496 C 0.22105 0.89505 0.92246 0.0
C497 C 0.27411 0.84194 0.94041 0.0
C498 C 0.24529 0.91914 0.93155 0.0
C499 C 0.2476 0.95261 0.92187 0.0
C500 C 0.22487 0.96303 0.90345 0.0
C501 C 0.2026 0.93823 0.89305 0.0
C502 C 0.20102 0.90439 0.90228 0.0
H503 H 0.28491 0.81513 0.94133 0.0
H504 H 0.27749 0.85203 0.92186 0.0
H505 H 0.2895 0.85827 0.95299 0.0
H506 H 0.26036 0.9133 0.94749 0.0
H507 H 0.26486 0.97125 0.93037 0.0
H508 H 0.85046 0.86768 0.91187 0.0
H509 H 0.87911 0.83941 0.94575 0.0
H510 H 0.79128 0.86351 0.99103 0.0
H511 H 0.76192 0.89128 0.95687 0.0
H512 H 0.89651 0.87729 0.98539 0.0
H513 H 0.81549 0.76336 0.0113 0.0
H514 H 0.81192 0.78427 0.98231 0.0
H515 H 0.79257 0.80397 0.00832 0.0
C516 C 0.83688 0.86637 0.9289 0.0
C517 C 0.80408 0.88198 0.93177 0.0
C518 C 0.85326 0.85012 0.94823 0.0
C519 C 0.83731 0.84927 0.97089 0.0
C520 C 0.8038 0.86333 0.9736 0.0
H521 H 0.97257 0.83812 0.09547 0.0
H522 H 0.9219 0.85183 0.07059 0.0
C523 C 0.78715 0.87934 0.9541 0.0
C524 C 0.85789 0.8378 0.99198 0.0
H525 H 0.86281 0.77752 0.03706 0.0
C526 C 0.88907 0.85551 -0.00329 0.0
C527 C 0.84811 0.80937 0.00666 0.0
C528 C 0.81534 0.78887 0.00187 0.0
C529 C 0.91116 0.84527 0.01541 0.0
C530 C 0.90132 0.81708 0.03032 0.0
C531 C 0.86997 0.79942 0.02579 0.0
C532 C 0.92488 0.80457 0.04954 0.0
C533 C 0.94548 0.86403 0.01844 0.0
C534 C 0.94152 0.77223 0.04715 0.0
C535 C 0.97018 0.76405 0.06161 0.0
C536 C 0.98273 0.78834 0.07844 0.0
C537 C 0.9638 0.81914 0.08239 0.0
C538 C 0.93488 0.82703 0.06819 0.0
H539 H 0.95242 0.87953 0.00227 0.0
H540 H 0.94367 0.88218 0.0339 0.0
H541 H 0.96689 0.84531 0.02208 0.0
H542 H 0.93405 0.75448 0.03291 0.0
H543 H 0.98416 0.74005 0.0582 0.0
H544 H 0.14485 0.27985 0.66463 0.0
H545 H 0.1741 0.27927 0.70406 0.0
H546 H 0.1735 0.16694 0.70331 0.0
H547 H 0.145 0.16715 0.66452 0.0
H548 H 0.1517 0.25032 0.74695 0.0
H549 H 0.27425 0.18749 0.72015 0.0
H550 H 0.24555 0.20805 0.69864 0.0
H551 H 0.23834 0.16358 0.70786 0.0
C552 C 0.1511 0.25509 0.67291 0.0
C553 C 0.14278 0.22356 0.66133 0.0
C554 C 0.16795 0.25482 0.69532 0.0
C555 C 0.17696 0.22305 0.70622 0.0
C556 C 0.16796 0.19176 0.69486 0.0
H557 H 0.16033 0.12166 0.83025 0.0
H558 H 0.15826 0.16023 0.79587 0.0
C559 C 0.15125 0.19197 0.67271 0.0
C560 C 0.19325 0.22139 0.73031 0.0
H561 H 0.25261 0.17204 0.76058 0.0
C562 C 0.17449 0.23423 0.75 0.0
C563 C 0.22363 0.20139 0.7344 0.0
C564 C 0.24678 0.18973 0.71406 0.0
C565 C 0.18272 0.22372 0.77347 0.0
C566 C 0.20974 0.19918 0.77711 0.0
C567 C 0.23131 0.19015 0.75778 0.0
C568 C 0.2116 0.17782 0.79925 0.0
C569 C 0.16098 0.23729 0.79398 0.0
C570 C 0.2428 0.17366 0.81215 0.0
C571 C 0.24427 0.15096 0.83189 0.0
C572 C 0.21462 0.1319 0.83881 0.0
C573 C 0.18365 0.13603 0.82562 0.0
C574 C 0.18225 0.15852 0.80606 0.0
H575 H 0.15262 0.26453 0.79048 0.0
H576 H 0.1371 0.2212 0.79567 0.0
H577 H 0.17541 0.23642 0.81127 0.0
H578 H 0.26596 0.18784 0.80689 0.0
H579 H 0.26852 0.14834 0.84168 0.0
H580 H 0.0924 0.80449 0.18353 0.0
H581 H 0.1271 0.80868 0.22013 0.0
H582 H 0.19654 0.72933 0.19355 0.0
H583 H 0.16124 0.72459 0.15667 0.0
H584 H 0.15525 0.75396 0.25571 0.0
H585 H 0.25249 0.82656 0.20059 0.0
H586 H 0.20826 0.82184 0.1901 0.0
H587 H 0.23643 0.78464 0.19099 0.0
C588 C 0.11447 0.7872 0.18576 0.0
C589 C 0.1243 0.76436 0.1673 0.0
C590 C 0.13422 0.78956 0.20667 0.0
C591 C 0.16444 0.7695 0.20939 0.0
C592 C 0.17323 0.74498 0.1917 0.0
H593 H 0.26679 0.85296 0.34017 0.0
H594 H 0.26266 0.81025 0.30725 0.0
C595 C 0.15302 0.74219 0.17078 0.0
C596 C 0.18822 0.77824 0.22936 0.0
H597 H 0.25148 0.83787 0.24211 0.0
C598 C 0.17734 0.77109 0.25289 0.0
C599 C 0.21682 0.80076 0.22549 0.0
C600 C 0.22943 0.80908 0.20048 0.0
C601 C 0.19228 0.78845 0.27254 0.0
C602 C 0.21841 0.81366 0.26839 0.0
C603 C 0.23154 0.81835 0.24514 0.0
C604 C 0.22584 0.84059 0.28659 0.0
C605 C 0.17768 0.7825 0.29735 0.0
C606 C 0.20728 0.87195 0.28536 0.0
C607 C 0.2093 0.89598 0.30403 0.0
C608 C 0.23024 0.88928 0.3242 0.0
C609 C 0.25064 0.85884 0.32473 0.0
C610 C 0.24823 0.83442 0.30606 0.0
H611 H 0.15927 0.76018 0.29786 0.0
H612 H 0.19916 0.7775 0.31025 0.0
H613 H 0.16377 0.80627 0.30342 0.0
H614 H 0.18986 0.87706 0.27043 0.0
H615 H 0.19342 0.91927 0.30309 0.0
H616 H 0.89869 0.79766 0.6891 0.0
H617 H 0.85908 0.80356 0.72311 0.0
H618 H 0.7855 0.7353 0.68827 0.0
H619 H 0.82577 0.72859 0.65421 0.0
H620 H 0.76174 0.80618 0.6998 0.0
H621 H 0.82063 0.74032 0.77832 0.0
H622 H 0.85199 0.76377 0.76069 0.0
H623 H 0.82944 0.72726 0.74768 0.0
C624 C 0.87464 0.78289 0.6891 0.0
C625 C 0.86525 0.76262 0.66916 0.0
C626 C 0.85208 0.78618 0.70854 0.0
C627 C 0.8195 0.76966 0.70825 0.0
C628 C 0.81072 0.74789 0.68891 0.0
H629 H 0.71614 0.85601 0.83466 0.0
H630 H 0.71888 0.81297 0.80205 0.0
C631 C 0.83376 0.74397 0.66958 0.0
C632 C 0.79334 0.78014 0.72631 0.0
H633 H 0.78655 0.79232 0.78673 0.0
C634 C 0.76625 0.80218 0.71885 0.0
C635 C 0.799 0.77462 0.75108 0.0
C636 C 0.82666 0.7499 0.75995 0.0
C637 C 0.74735 0.82193 0.73556 0.0
C638 C 0.75593 0.81949 0.76019 0.0
C639 C 0.78016 0.7944 0.76779 0.0
C640 C 0.74608 0.84705 0.77746 0.0
C641 C 0.72013 0.84707 0.72663 0.0
C642 C 0.75956 0.88068 0.77412 0.0
C643 C 0.75851 0.90496 0.79272 0.0
C644 C 0.74361 0.89616 0.81492 0.0
C645 C 0.72741 0.86354 0.8176 0.0
C646 C 0.72906 0.83892 0.79906 0.0
H647 H 0.70828 0.83778 0.70957 0.0
H648 H 0.69925 0.85089 0.74017 0.0
H649 H 0.73253 0.87266 0.72305 0.0
H650 H 0.77338 0.8873 0.75778 0.0
H651 H 0.77129 0.92987 0.79026 0.0
H652 H 0.78813 0.0733 0.29911 0.0
H653 H 0.78977 0.11813 0.26817 0.0
H654 H 0.71915 0.18157 0.3095 0.0
H655 H 0.71732 0.13639 0.34082 0.0
H656 H 0.73708 0.15662 0.24046 0.0
H657 H 0.81297 0.23773 0.30518 0.0
H658 H 0.80627 0.19188 0.31062 0.0
H659 H 0.77053 0.22167 0.31335 0.0
C660 C 0.77225 0.09638 0.30139 0.0
C661 C 0.75292 0.10153 0.32249 0.0
C662 C 0.77312 0.12195 0.28366 0.0
C663 C 0.75493 0.1533 0.28672 0.0
C664 C 0.73355 0.15761 0.30694 0.0
H665 H 0.83425 0.27252 0.16313 0.0
H666 H 0.79139 0.2669 0.19582 0.0
C667 C 0.73239 0.13172 0.3247 0.0
C668 C 0.76251 0.18226 0.26998 0.0
H669 H 0.8212 0.24842 0.26418 0.0
C670 C 0.75433 0.17772 0.24563 0.0
C671 C 0.78497 0.2097 0.27691 0.0
C672 C 0.7944 0.21578 0.30291 0.0
C673 C 0.77107 0.19737 0.22778 0.0
C674 C 0.79649 0.22217 0.23462 0.0
C675 C 0.80165 0.22942 0.25907 0.0
C676 C 0.82378 0.23306 0.21746 0.0
C677 C 0.76439 0.18876 0.20172 0.0
C678 C 0.85662 0.21739 0.21948 0.0
C679 C 0.88077 0.22038 0.20099 0.0
C680 C 0.87271 0.23945 0.18021 0.0
C681 C 0.84109 0.25783 0.17907 0.0
C682 C 0.81657 0.25447 0.1976 0.0
H683 H 0.74418 0.1683 0.1995 0.0
H684 H 0.75568 0.2125 0.19206 0.0
H685 H 0.78881 0.17961 0.19312 0.0
H686 H 0.86269 0.20074 0.23465 0.0
H687 H 0.90501 0.20608 0.20232 0.0
loop_
_geom_bond_atom_site_label_1
_geom_bond_atom_site_label_2
_geom_bond_distance
_geom_bond_site_symmetry_2
_ccdc_geom_bond_type
Zn0 O3 2.035 . S
Zn0 O5 2.049 . S
Zn0 O10 2.067 . S
Zn1 O2 1.962 1_455 S
Zn1 O4 1.986 . S
Zn1 O6 1.996 . S
Zn1 O9 1.943 . S
O2 Zn1 1.962 1_655 S
O2 C7 1.254 . S
O3 Zn0 2.035 . S
O3 C7 1.264 1_455 S
O4 Zn1 1.986 . S
O4 C11 1.262 . S
O5 Zn0 2.049 . S
O5 C13 1.260 . S
O6 Zn1 1.996 . S
O6 C13 1.257 . S
C7 O2 1.254 . S
C7 O3 1.264 1_655 S
C8 O9 1.249 . S
C8 O10 1.270 . S
O9 Zn1 1.943 . S
O9 C8 1.249 . S
O10 Zn0 2.067 . S
O10 C8 1.270 . S
C11 O4 1.262 . S
C11 O12 1.232 . S
O12 C11 1.232 . S
C13 O5 1.260 . S
C13 O6 1.257 . S
Zn14 O17 2.035 . S
Zn14 O19 2.049 . S
Zn14 O24 2.067 . S
Zn15 O16 1.962 1_565 S
Zn15 O18 1.986 . S
Zn15 O20 1.996 . S
Zn15 O23 1.943 . S
O16 Zn15 1.962 1_545 S
O16 C21 1.254 . S
O17 Zn14 2.035 . S
O17 C21 1.264 1_565 S
O18 Zn15 1.986 . S
O18 C25 1.262 . S
O19 Zn14 2.049 . S
O19 C27 1.260 . S
O20 Zn15 1.996 . S
O20 C27 1.257 . S
C21 O16 1.254 . S
C21 O17 1.264 1_545 S
C22 O23 1.249 . S
C22 O24 1.270 . S
O23 Zn15 1.943 . S
O23 C22 1.249 . S
O24 Zn14 2.067 . S
O24 C22 1.270 . S
C25 O18 1.262 . S
C25 O26 1.232 . S
O26 C25 1.232 . S
C27 O19 1.260 . S
C27 O20 1.257 . S
Zn28 O31 2.035 . S
Zn28 O33 2.049 . S
Zn28 O38 2.067 . S
Zn29 O30 1.962 1_655 S
Zn29 O32 1.986 . S
Zn29 O34 1.996 . S
Zn29 O37 1.943 . S
O30 Zn29 1.962 1_455 S
O30 C35 1.254 . S
O31 Zn28 2.035 . S
O31 C35 1.264 1_655 S
O32 Zn29 1.986 . S
O32 C39 1.262 . S
O33 Zn28 2.049 . S
O33 C41 1.260 . S
O34 Zn29 1.996 . S
O34 C41 1.257 . S
C35 O30 1.254 . S
C35 O31 1.264 1_455 S
C36 O37 1.249 . S
C36 O38 1.270 . S
O37 Zn29 1.943 . S
O37 C36 1.249 . S
O38 Zn28 2.067 . S
O38 C36 1.270 . S
C39 O32 1.262 . S
C39 O40 1.232 . S
O40 C39 1.232 . S
C41 O33 1.260 . S
C41 O34 1.257 . S
Zn42 O45 2.035 . S
Zn42 O47 2.049 . S
Zn42 O52 2.067 . S
Zn43 O44 1.962 1_545 S
Zn43 O46 1.986 . S
Zn43 O48 1.996 . S
Zn43 O51 1.943 . S
O44 Zn43 1.962 1_565 S
O44 C49 1.254 . S
O45 Zn42 2.035 . S
O45 C49 1.264 1_545 S
O46 Zn43 1.986 . S
O46 C53 1.262 . S
O47 Zn42 2.049 . S
O47 C55 1.260 . S
O48 Zn43 1.996 . S
O48 C55 1.257 . S
C49 O44 1.254 . S
C49 O45 1.264 1_565 S
C50 O51 1.249 . S
C50 O52 1.270 . S
O51 Zn43 1.943 . S
O51 C50 1.249 . S
O52 Zn42 2.067 . S
O52 C50 1.270 . S
C53 O46 1.262 . S
C53 O54 1.232 . S
O54 C53 1.232 . S
C55 O47 1.260 . S
C55 O48 1.257 . S
Zn56 O59 2.035 . S
Zn56 O61 2.049 . S
Zn56 O66 2.067 . S
Zn57 O58 1.962 1_655 S
Zn57 O60 1.986 . S
Zn57 O62 1.996 . S
Zn57 O65 1.943 . S
O58 Zn57 1.962 1_455 S
O58 C63 1.254 . S
O59 Zn56 2.035 . S
O59 C63 1.264 1_655 S
O60 Zn57 1.986 . S
O60 C67 1.262 . S
O61 Zn56 2.049 . S
O61 C69 1.260 . S
O62 Zn57 1.996 . S
O62 C69 1.257 . S
C63 O58 1.254 . S
C63 O59 1.264 1_455 S
C64 O65 1.249 . S
C64 O66 1.270 . S
O65 Zn57 1.943 . S
O65 C64 1.249 . S
O66 Zn56 2.067 . S
O66 C64 1.270 . S
C67 O60 1.262 . S
C67 O68 1.232 . S
O68 C67 1.232 . S
C69 O61 1.260 . S
C69 O62 1.257 . S
Zn70 O73 2.035 . S
Zn70 O75 2.049 . S
Zn70 O80 2.067 . S
Zn71 O72 1.962 1_545 S
Zn71 O74 1.986 . S
Zn71 O76 1.996 . S
Zn71 O79 1.943 . S
O72 Zn71 1.962 1_565 S
O72 C77 1.254 . S
O73 Zn70 2.035 . S
O73 C77 1.264 1_545 S
O74 Zn71 1.986 . S
O74 C81 1.262 . S
O75 Zn70 2.049 . S
O75 C83 1.260 . S
O76 Zn71 1.996 . S
O76 C83 1.257 . S
C77 O72 1.254 . S
C77 O73 1.264 1_565 S
C78 O79 1.249 . S
C78 O80 1.270 . S
O79 Zn71 1.943 . S
O79 C78 1.249 . S
O80 Zn70 2.067 . S
O80 C78 1.270 . S
C81 O74 1.262 . S
C81 O82 1.232 . S
O82 C81 1.232 . S
C83 O75 1.260 . S
C83 O76 1.257 . S
Zn84 O87 2.035 . S
Zn84 O89 2.049 . S
Zn84 O94 2.067 . S
Zn85 O86 1.962 1_455 S
Zn85 O88 1.986 . S
Zn85 O90 1.996 . S
Zn85 O93 1.943 . S
O86 Zn85 1.962 1_655 S
O86 C91 1.254 . S
O87 Zn84 2.035 . S
O87 C91 1.264 1_455 S
O88 Zn85 1.986 . S
O88 C95 1.262 . S
O89 Zn84 2.049 . S
O89 C97 1.260 . S
O90 Zn85 1.996 . S
O90 C97 1.257 . S
C91 O86 1.254 . S
C91 O87 1.264 1_655 S
C92 O93 1.249 . S
C92 O94 1.270 . S
O93 Zn85 1.943 . S
O93 C92 1.249 . S
O94 Zn84 2.067 . S
O94 C92 1.270 . S
C95 O88 1.262 . S
C95 O96 1.232 . S
O96 C95 1.232 . S
C97 O89 1.260 . S
C97 O90 1.257 . S
Zn98 O101 2.035 . S
Zn98 O103 2.049 . S
Zn98 O108 2.067 . S
Zn99 O100 1.962 1_565 S
Zn99 O102 1.986 . S
Zn99 O104 1.996 . S
Zn99 O107 1.943 . S
O100 Zn99 1.962 1_545 S
O100 C105 1.254 . S
O101 Zn98 2.035 . S
O101 C105 1.264 1_565 S
O102 Zn99 1.986 . S
O102 C109 1.262 . S
O103 Zn98 2.049 . S
O103 C111 1.260 . S
O104 Zn99 1.996 . S
O104 C111 1.257 . S
C105 O100 1.254 . S
C105 O101 1.264 1_545 S
C106 O107 1.249 . S
C106 O108 1.270 . S
O107 Zn99 1.943 . S
O107 C106 1.249 . S
O108 Zn98 2.067 . S
O108 C106 1.270 . S
C109 O102 1.262 . S
C109 O110 1.232 . S
O110 C109 1.232 . S
C111 O103 1.260 . S
C111 O104 1.257 . S
H112 C120 0.929 . S
H113 C122 0.930 . S
H114 C124 0.930 . S
H115 C127 0.929 . S
H116 C130 0.930 . S
H117 C132 0.960 . S
H118 C132 0.960 . S
H119 C132 0.960 . S
C120 H112 0.929 . S
C120 C121 1.377 . S
C120 C122 1.384 . S
C121 C120 1.377 . S
C121 C127 1.390 . S
C122 H113 0.930 . S
C122 C120 1.384 . S
C122 C123 1.372 . S
C123 C122 1.372 . S
C123 C124 1.400 . S
C123 C128 1.490 . S
C124 H114 0.930 . S
C124 C123 1.400 . S
C124 C127 1.386 . S
H125 C141 0.930 . S
H126 C142 0.931 1_655 S
C127 H115 0.929 . S
C127 C121 1.390 . S
C127 C124 1.386 . S
C128 C123 1.490 . S
C128 C130 1.395 . S
C128 C131 1.403 1_655 S
H129 C135 0.930 . S
C130 H116 0.930 . S
C130 C128 1.395 . S
C130 C133 1.403 . S
C131 C128 1.403 1_455 S
C131 C132 1.524 . S
C131 C135 1.400 . S
C132 H117 0.960 . S
C132 H118 0.960 . S
C132 H119 0.960 . S
C132 C131 1.524 . S
C133 C130 1.403 . S
C133 C134 1.392 1_655 S
C133 C137 1.495 . S
C134 C133 1.392 1_455 S
C134 C135 1.385 . S
C134 C136 1.478 . S
C135 H129 0.930 . S
C135 C131 1.400 . S
C135 C134 1.385 . S
C136 C134 1.478 . S
C136 C138 1.381 . S
C136 C142 1.383 . S
C137 C133 1.495 . S
C137 H143 0.959 . S
C137 H144 0.961 . S
C137 H145 0.960 . S
C138 C136 1.381 . S
C138 C139 1.394 . S
C138 H146 0.930 . S
C139 C138 1.394 . S
C139 C140 1.383 . S
C139 H147 0.929 . S
C140 C139 1.383 . S
C140 C141 1.377 . S
C141 H125 0.930 . S
C141 C140 1.377 . S
C141 C142 1.379 . S
C142 H126 0.931 1_455 S
C142 C136 1.383 . S
C142 C141 1.379 . S
H143 C137 0.959 . S
H144 C137 0.961 . S
H145 C137 0.960 . S
H146 C138 0.930 . S
H147 C139 0.929 . S
H148 C156 0.929 . S
H149 C158 0.920 1_565 S
H150 C160 0.930 . S
H151 C163 0.929 . S
H152 C166 0.930 . S
H153 C168 0.960 . S
H154 C168 0.960 . S
H155 C168 0.960 . S
C156 H148 0.929 . S
C156 C157 1.377 . S
C156 C158 1.384 . S
C157 C156 1.377 . S
C157 C163 1.390 . S
C158 H149 0.920 1_545 S
C158 C156 1.384 . S
C158 C159 1.372 . S
C159 C158 1.372 . S
C159 C160 1.400 . S
C159 C164 1.490 . S
C160 H150 0.930 . S
C160 C159 1.400 . S
C160 C163 1.386 . S
H161 C177 0.930 . S
H162 C178 0.931 . S
C163 H151 0.929 . S
C163 C157 1.390 . S
C163 C160 1.386 . S
C164 C159 1.490 . S
C164 C166 1.395 1_545 S
C164 C167 1.403 . S
H165 C171 0.930 . S
C166 H152 0.930 . S
C166 C164 1.395 1_565 S
C166 C169 1.403 . S
C167 C164 1.403 . S
C167 C168 1.524 . S
C167 C171 1.400 . S
C168 H153 0.960 . S
C168 H154 0.960 . S
C168 H155 0.960 . S
C168 C167 1.524 . S
C169 C166 1.403 . S
C169 C170 1.392 . S
C169 C173 1.495 . S
C170 C169 1.392 . S
C170 C171 1.385 1_565 S
C170 C172 1.478 . S
C171 H165 0.930 . S
C171 C167 1.400 . S
C171 C170 1.385 1_545 S
C172 C170 1.478 . S
C172 C174 1.381 . S
C172 C178 1.383 . S
C173 C169 1.495 . S
C173 H179 0.959 . S
C173 H180 0.961 . S
C173 H181 0.960 . S
C174 C172 1.381 . S
C174 C175 1.394 . S
C174 H182 0.930 . S
C175 C174 1.394 . S
C175 C176 1.383 . S
C175 H183 0.929 . S
C176 C175 1.383 . S
C176 C177 1.377 . S
C177 H161 0.930 . S
C177 C176 1.377 . S
C177 C178 1.379 . S
C178 H162 0.931 . S
C178 C172 1.383 . S
C178 C177 1.379 . S
H179 C173 0.959 . S
H180 C173 0.961 . S
H181 C173 0.960 . S
H182 C174 0.930 . S
H183 C175 0.929 . S
H184 C192 0.929 . S
H185 C194 0.930 . S
H186 C196 0.930 1_455 S
H187 C199 0.929 . S
H188 C202 0.930 . S
H189 C204 0.960 . S
H190 C204 0.960 . S
H191 C204 0.960 . S
C192 H184 0.929 . S
C192 C193 1.377 . S
C192 C194 1.384 . S
C193 C192 1.377 . S
C193 C199 1.390 . S
C194 H185 0.930 . S
C194 C192 1.384 . S
C194 C195 1.372 . S
C195 C194 1.372 . S
C195 C196 1.400 . S
C195 C200 1.490 . S
C196 H186 0.930 1_655 S
C196 C195 1.400 . S
C196 C199 1.386 . S
H197 C213 0.930 . S
H198 C214 0.931 . S
C199 H187 0.929 . S
C199 C193 1.390 . S
C199 C196 1.386 . S
C200 C195 1.490 . S
C200 C202 1.395 1_655 S
C200 C203 1.403 . S
H201 C207 0.930 . S
C202 H188 0.930 . S
C202 C200 1.395 1_455 S
C202 C205 1.403 . S
C203 C200 1.403 . S
C203 C204 1.524 . S
C203 C207 1.400 . S
C204 H189 0.960 . S
C204 H190 0.960 . S
C204 H191 0.960 . S
C204 C203 1.524 . S
C205 C202 1.403 . S
C205 C206 1.392 . S
C205 C209 1.495 . S
C206 C205 1.392 . S
C206 C207 1.385 1_455 S
C206 C208 1.478 . S
C207 H201 0.930 . S
C207 C203 1.400 . S
C207 C206 1.385 1_655 S
C208 C206 1.478 . S
C208 C210 1.381 . S
C208 C214 1.383 . S
C209 C205 1.495 . S
C209 H215 0.959 . S
C209 H216 0.961 . S
C209 H217 0.960 . S
C210 C208 1.381 . S
C210 C211 1.394 . S
C210 H218 0.930 1_455 S
C211 C210 1.394 . S
C211 C212 1.383 . S
C211 H219 0.929 . S
C212 C211 1.383 . S
C212 C213 1.377 . S
C213 H197 0.930 . S
C213 C212 1.377 . S
C213 C214 1.379 . S
C214 H198 0.931 . S
C214 C208 1.383 . S
C214 C213 1.379 . S
H215 C209 0.959 . S
H216 C209 0.961 . S
H217 C209 0.960 . S
H218 C210 0.930 1_655 S
H219 C211 0.929 . S
H220 C228 0.929 . S
H221 C230 0.930 1_565 S
H222 C232 0.930 . S
H223 C235 0.929 . S
H224 C238 0.930 . S
H225 C240 0.960 . S
H226 C240 0.960 . S
H227 C240 0.960 . S
C228 H220 0.929 . S
C228 C229 1.377 . S
C228 C230 1.384 . S
C229 C228 1.377 . S
C229 C235 1.390 . S
C230 H221 0.930 1_545 S
C230 C228 1.384 . S
C230 C231 1.372 . S
C231 C230 1.372 . S
C231 C232 1.400 . S
C231 C236 1.490 . S
C232 H222 0.930 . S
C232 C231 1.400 . S
C232 C235 1.386 . S
H233 C249 0.930 . S
H234 C250 0.931 . S
C235 H223 0.929 . S
C235 C229 1.390 . S
C235 C232 1.386 . S
C236 C231 1.490 . S
C236 C238 1.395 1_545 S
C236 C239 1.403 . S
H237 C243 0.930 . S
C238 H224 0.930 . S
C238 C236 1.395 1_565 S
C238 C241 1.403 . S
C239 C236 1.403 . S
C239 C240 1.524 . S
C239 C243 1.400 . S
C240 H225 0.960 . S
C240 H226 0.960 . S
C240 H227 0.960 . S
C240 C239 1.524 . S
C241 C238 1.403 . S
C241 C242 1.392 . S
C241 C245 1.495 . S
C242 C241 1.392 . S
C242 C243 1.385 1_565 S
C242 C244 1.478 . S
C243 H237 0.930 . S
C243 C239 1.400 . S
C243 C242 1.385 1_545 S
C244 C242 1.478 . S
C244 C246 1.381 . S
C244 C250 1.383 . S
C245 C241 1.495 . S
C245 H251 0.959 . S
C245 H252 0.961 . S
C245 H253 0.960 . S
C246 C244 1.381 . S
C246 C247 1.394 . S
C246 H254 0.930 . S
C247 C246 1.394 . S
C247 C248 1.383 . S
C247 H255 0.929 . S
C248 C247 1.383 . S
C248 C249 1.377 . S
C249 H233 0.930 . S
C249 C248 1.377 . S
C249 C250 1.379 . S
C250 H234 0.931 . S
C250 C244 1.383 . S
C250 C249 1.379 . S
H251 C245 0.959 . S
H252 C245 0.961 . S
H253 C245 0.960 . S
H254 C246 0.930 . S
H255 C247 0.929 . S
H256 C264 0.929 . S
H257 C266 0.930 . S
H258 C268 0.930 . S
H259 C271 0.929 . S
H260 C274 0.930 . S
H261 C276 0.960 . S
H262 C276 0.960 . S
H263 C276 0.960 . S
C264 H256 0.929 . S
C264 C265 1.377 . S
C264 C266 1.384 . S
C265 C264 1.377 . S
C265 C271 1.390 . S
C266 H257 0.930 . S
C266 C264 1.384 . S
C266 C267 1.372 . S
C267 C266 1.372 . S
C267 C268 1.400 . S
C267 C272 1.490 . S
C268 H258 0.930 . S
C268 C267 1.400 . S
C268 C271 1.386 . S
H269 C285 0.930 . S
H270 C286 0.931 . S
C271 H259 0.929 . S
C271 C265 1.390 . S
C271 C268 1.386 . S
C272 C267 1.490 . S
C272 C274 1.395 . S
C272 C275 1.403 . S
H273 C279 0.930 . S
C274 H260 0.930 . S
C274 C272 1.395 . S
C274 C277 1.403 . S
C275 C272 1.403 . S
C275 C276 1.524 . S
C275 C279 1.400 . S
C276 H261 0.960 . S
C276 H262 0.960 . S
C276 H263 0.960 . S
C276 C275 1.524 . S
C277 C274 1.403 . S
C277 C278 1.392 . S
C277 C281 1.495 . S
C278 C277 1.392 . S
C278 C279 1.385 . S
C278 C280 1.478 . S
C279 H273 0.930 . S
C279 C275 1.400 . S
C279 C278 1.385 . S
C280 C278 1.478 . S
C280 C282 1.381 . S
C280 C286 1.383 . S
C281 C277 1.495 . S
C281 H287 0.959 . S
C281 H288 0.961 . S
C281 H289 0.960 . S
C282 C280 1.381 . S
C282 C283 1.394 . S
C282 H290 0.930 . S
C283 C282 1.394 . S
C283 C284 1.383 . S
C283 H291 0.929 . S
C284 C283 1.383 . S
C284 C285 1.377 . S
C285 H269 0.930 . S
C285 C284 1.377 . S
C285 C286 1.379 . S
C286 H270 0.931 . S
C286 C280 1.383 . S
C286 C285 1.379 . S
H287 C281 0.959 . S
H288 C281 0.961 . S
H289 C281 0.960 . S
H290 C282 0.930 . S
H291 C283 0.929 . S
H292 C300 0.929 . S
H293 C302 0.930 . S
H294 C304 0.930 . S
H295 C307 0.929 . S
H296 C310 0.930 . S
H297 C312 0.960 . S
H298 C312 0.960 . S
H299 C312 0.960 . S
C300 H292 0.929 . S
C300 C301 1.377 . S
C300 C302 1.384 . S
C301 C300 1.377 . S
C301 C307 1.390 . S
C302 H293 0.930 . S
C302 C300 1.384 . S
C302 C303 1.372 . S
C303 C302 1.372 . S
C303 C304 1.400 . S
C303 C308 1.490 . S
C304 H294 0.930 . S
C304 C303 1.400 . S
C304 C307 1.386 . S
H305 C321 0.930 . S
H306 C322 0.931 . S
C307 H295 0.929 . S
C307 C301 1.390 . S
C307 C304 1.386 . S
C308 C303 1.490 . S
C308 C310 1.395 . S
C308 C311 1.403 . S
H309 C315 0.930 . S
C310 H296 0.930 . S
C310 C308 1.395 . S
C310 C313 1.403 . S
C311 C308 1.403 . S
C311 C312 1.524 . S
C311 C315 1.400 . S
C312 H297 0.960 . S
C312 H298 0.960 . S
C312 H299 0.960 . S
C312 C311 1.524 . S
C313 C310 1.403 . S
C313 C314 1.392 . S
C313 C317 1.495 . S
C314 C313 1.392 . S
C314 C315 1.385 . S
C314 C316 1.478 . S
C315 H309 0.930 . S
C315 C311 1.400 . S
C315 C314 1.385 . S
C316 C314 1.478 . S
C316 C318 1.381 . S
C316 C322 1.383 . S
C317 C313 1.495 . S
C317 H323 0.959 . S
C317 H324 0.961 . S
C317 H325 0.960 . S
C318 C316 1.381 . S
C318 C319 1.394 . S
C318 H326 0.930 . S
C319 C318 1.394 . S
C319 C320 1.383 . S
C319 H327 0.929 . S
C320 C319 1.383 . S
C320 C321 1.377 . S
C321 H305 0.930 . S
C321 C320 1.377 . S
C321 C322 1.379 . S
C322 H306 0.931 . S
C322 C316 1.383 . S
C322 C321 1.379 . S
H323 C317 0.959 . S
H324 C317 0.961 . S
H325 C317 0.960 . S
H326 C318 0.930 . S
H327 C319 0.929 . S
H328 C336 0.929 . S
H329 C338 0.930 . S
H330 C340 0.930 . S
H331 C343 0.929 . S
H332 C346 0.930 . S
H333 C348 0.960 . S
H334 C348 0.960 . S
H335 C348 0.960 . S
C336 H328 0.929 . S
C336 C337 1.377 . S
C336 C338 1.384 . S
C337 C336 1.377 . S
C337 C343 1.390 . S
C338 H329 0.930 . S
C338 C336 1.384 . S
C338 C339 1.372 . S
C339 C338 1.372 . S
C339 C340 1.400 . S
C339 C344 1.490 . S
C340 H330 0.930 . S
C340 C339 1.400 . S
C340 C343 1.386 . S
H341 C357 0.930 . S
H342 C358 0.931 . S
C343 H331 0.929 . S
C343 C337 1.390 . S
C343 C340 1.386 . S
C344 C339 1.490 . S
C344 C346 1.395 . S
C344 C347 1.403 . S
H345 C351 0.930 . S
C346 H332 0.930 . S
C346 C344 1.395 . S
C346 C349 1.403 . S
C347 C344 1.403 . S
C347 C348 1.524 . S
C347 C351 1.400 . S
C348 H333 0.960 . S
C348 H334 0.960 . S
C348 H335 0.960 . S
C348 C347 1.524 . S
C349 C346 1.403 . S
C349 C350 1.392 . S
C349 C353 1.495 . S
C350 C349 1.392 . S
C350 C351 1.385 . S
C350 C352 1.478 . S
C351 H345 0.930 . S
C351 C347 1.400 . S
C351 C350 1.385 . S
C352 C350 1.478 . S
C352 C354 1.381 . S
C352 C358 1.383 . S
C353 C349 1.495 . S
C353 H359 0.959 . S
C353 H360 0.961 . S
C353 H361 0.960 . S
C354 C352 1.381 . S
C354 C355 1.394 . S
C354 H362 0.930 . S
C355 C354 1.394 . S
C355 C356 1.383 . S
C355 H363 0.929 . S
C356 C355 1.383 . S
C356 C357 1.377 . S
C357 H341 0.930 . S
C357 C356 1.377 . S
C357 C358 1.379 . S
C358 H342 0.931 . S
C358 C352 1.383 . S
C358 C357 1.379 . S
H359 C353 0.959 . S
H360 C353 0.961 . S
H361 C353 0.960 . S
H362 C354 0.930 . S
H363 C355 0.929 . S
H364 C372 0.929 . S
H365 C374 0.930 . S
H366 C376 0.930 . S
H367 C379 0.929 . S
H368 C382 0.930 . S
H369 C384 0.960 . S
H370 C384 0.960 . S
H371 C384 0.960 . S
C372 H364 0.929 . S
C372 C373 1.377 . S
C372 C374 1.384 . S
C373 C372 1.377 . S
C373 C379 1.390 . S
C374 H365 0.930 . S
C374 C372 1.384 . S
C374 C375 1.372 . S
C375 C374 1.372 . S
C375 C376 1.400 . S
C375 C380 1.490 . S
C376 H366 0.930 . S
C376 C375 1.400 . S
C376 C379 1.386 . S
H377 C393 0.930 . S
H378 C394 0.931 . S
C379 H367 0.929 . S
C379 C373 1.390 . S
C379 C376 1.386 . S
C380 C375 1.490 . S
C380 C382 1.395 . S
C380 C383 1.403 . S
H381 C387 0.930 . S
C382 H368 0.930 . S
C382 C380 1.395 . S
C382 C385 1.403 . S
C383 C380 1.403 . S
C383 C384 1.524 . S
C383 C387 1.400 . S
C384 H369 0.960 . S
C384 H370 0.960 . S
C384 H371 0.960 . S
C384 C383 1.524 . S
C385 C382 1.403 . S
C385 C386 1.392 . S
C385 C389 1.495 . S
C386 C385 1.392 . S
C386 C387 1.385 . S
C386 C388 1.478 . S
C387 H381 0.930 . S
C387 C383 1.400 . S
C387 C386 1.385 . S
C388 C386 1.478 . S
C388 C390 1.381 . S
C388 C394 1.383 . S
C389 C385 1.495 . S
C389 H395 0.959 . S
C389 H396 0.961 . S
C389 H397 0.960 . S
C390 C388 1.381 . S
C390 C391 1.394 . S
C390 H398 0.930 . S
C391 C390 1.394 . S
C391 C392 1.383 . S
C391 H399 0.911 1_655 S
C392 C391 1.383 . S
C392 C393 1.377 . S
C393 H377 0.930 . S
C393 C392 1.377 . S
C393 C394 1.379 . S
C394 H378 0.931 . S
C394 C388 1.383 . S
C394 C393 1.379 . S
H395 C389 0.959 . S
H396 C389 0.961 . S
H397 C389 0.960 . S
H398 C390 0.930 . S
H399 C391 0.911 1_455 S
H400 C408 0.929 . S
H401 C410 0.930 . S
H402 C412 0.930 . S
H403 C415 0.929 . S
H404 C418 0.930 . S
H405 C420 0.960 . S
H406 C420 0.960 1_556 S
H407 C420 0.960 . S
C408 H400 0.929 . S
C408 C409 1.377 . S
C408 C410 1.384 . S
C409 C408 1.377 . S
C409 C415 1.390 . S
C410 H401 0.930 . S
C410 C408 1.384 . S
C410 C411 1.372 . S
C411 C410 1.372 . S
C411 C412 1.400 . S
C411 C416 1.490 . S
C412 H402 0.930 . S
C412 C411 1.400 . S
C412 C415 1.386 . S
H413 C429 0.930 . S
H414 C430 0.931 . S
C415 H403 0.929 . S
C415 C409 1.390 . S
C415 C412 1.386 . S
C416 C411 1.490 . S
C416 C418 1.395 . S
C416 C419 1.431 . S
H417 C423 0.930 . S
C418 H404 0.930 . S
C418 C416 1.395 . S
C418 C421 1.403 . S
C419 C416 1.431 . S
C419 C420 1.515 1_556 S
C419 C423 1.381 1_556 S
C420 H405 0.960 . S
C420 H406 0.960 1_554 S
C420 H407 0.960 . S
C420 C419 1.515 1_554 S
C421 C418 1.403 . S
C421 C422 1.392 1_556 S
C421 C425 1.495 . S
C422 C421 1.392 1_554 S
C422 C423 1.385 . S
C422 C424 1.478 . S
C423 H417 0.930 . S
C423 C419 1.381 1_554 S
C423 C422 1.385 . S
C424 C422 1.478 . S
C424 C426 1.381 . S
C424 C430 1.383 . S
C425 C421 1.495 . S
C425 H431 0.959 . S
C425 H432 0.961 . S
C425 H433 0.960 . S
C426 C424 1.381 . S
C426 C427 1.394 . S
C426 H434 0.930 . S
C427 C426 1.394 . S
C427 C428 1.383 . S
C427 H435 0.929 . S
C428 C427 1.383 . S
C428 C429 1.377 . S
C429 H413 0.930 . S
C429 C428 1.377 . S
C429 C430 1.379 . S
C430 H414 0.931 . S
C430 C424 1.383 . S
C430 C429 1.379 . S
H431 C425 0.959 . S
H432 C425 0.961 . S
H433 C425 0.960 . S
H434 C426 0.930 . S
H435 C427 0.929 . S
H436 C444 0.929 . S
H437 C446 0.930 . S
H438 C448 0.930 . S
H439 C451 0.929 . S
H440 C454 0.930 . S
H441 C456 0.960 . S
H442 C456 0.960 . S
H443 C456 0.960 . S
C444 H436 0.929 . S
C444 C445 1.377 . S
C444 C446 1.384 . S
C445 C444 1.377 . S
C445 C451 1.390 . S
C446 H437 0.930 . S
C446 C444 1.384 . S
C446 C447 1.372 . S
C447 C446 1.372 . S
C447 C448 1.400 . S
C447 C452 1.490 . S
C448 H438 0.930 . S
C448 C447 1.400 . S
C448 C451 1.386 . S
H449 C465 0.930 . S
H450 C466 0.931 . S
C451 H439 0.929 . S
C451 C445 1.390 . S
C451 C448 1.386 . S
C452 C447 1.490 . S
C452 C454 1.395 1_556 S
C452 C455 1.403 . S
H453 C459 0.930 . S
C454 H440 0.930 . S
C454 C452 1.395 1_554 S
C454 C457 1.403 . S
C455 C452 1.403 . S
C455 C456 1.524 . S
C455 C459 1.400 1_556 S
C456 H441 0.960 . S
C456 H442 0.960 . S
C456 H443 0.960 . S
C456 C455 1.524 . S
C457 C454 1.403 . S
C457 C458 1.392 . S
C457 C461 1.495 . S
C458 C457 1.392 . S
C458 C459 1.385 . S
C458 C460 1.478 . S
C459 H453 0.930 . S
C459 C455 1.400 1_554 S
C459 C458 1.385 . S
C460 C458 1.478 . S
C460 C462 1.381 . S
C460 C466 1.383 . S
C461 C457 1.495 . S
C461 H467 0.959 . S
C461 H468 0.961 . S
C461 H469 0.960 . S
C462 C460 1.381 . S
C462 C463 1.394 . S
C462 H470 0.930 . S
C463 C462 1.394 . S
C463 C464 1.383 . S
C463 H471 0.929 . S
C464 C463 1.383 . S
C464 C465 1.377 . S
C465 H449 0.930 . S
C465 C464 1.377 . S
C465 C466 1.379 . S
C466 H450 0.931 . S
C466 C460 1.383 . S
C466 C465 1.379 . S
H467 C461 0.959 . S
H468 C461 0.961 . S
H469 C461 0.960 . S
H470 C462 0.930 . S
H471 C463 0.929 . S
H472 C480 0.929 . S
H473 C482 0.930 . S
H474 C484 0.930 . S
H475 C487 0.929 . S
H476 C490 0.930 . S
H477 C492 0.960 1_556 S
H478 C492 0.960 . S
H479 C492 0.960 . S
C480 H472 0.929 . S
C480 C481 1.377 . S
C480 C482 1.384 . S
C481 C480 1.377 . S
C481 C487 1.390 . S
C482 H473 0.930 . S
C482 C480 1.384 . S
C482 C483 1.372 . S
C483 C482 1.372 . S
C483 C484 1.400 . S
C483 C488 1.490 . S
C484 H474 0.930 . S
C484 C483 1.400 . S
C484 C487 1.386 . S
H485 C501 0.930 . S
H486 C502 0.931 . S
C487 H475 0.929 . S
C487 C481 1.390 . S
C487 C484 1.386 . S
C488 C483 1.490 . S
C488 C490 1.395 . S
C488 C491 1.381 1_554 S
H489 C495 0.930 . S
C490 H476 0.930 . S
C490 C488 1.395 . S
C490 C493 1.403 1_554 S
C491 C488 1.381 1_556 S
C491 C492 1.519 1_556 S
C491 C495 1.428 . S
C492 H477 0.960 1_554 S
C492 H478 0.960 . S
C492 H479 0.960 . S
C492 C491 1.519 1_554 S
C493 C490 1.403 1_556 S
C493 C494 1.392 . S
C493 C497 1.495 . S
C494 C493 1.392 . S
C494 C495 1.385 . S
C494 C496 1.478 . S
C495 H489 0.930 . S
C495 C491 1.428 . S
C495 C494 1.385 . S
C496 C494 1.478 . S
C496 C498 1.381 . S
C496 C502 1.383 . S
C497 C493 1.495 . S
C497 H503 0.956 1_556 S
C497 H504 0.961 . S
C497 H505 0.960 . S
C498 C496 1.381 . S
C498 C499 1.394 . S
C498 H506 0.930 . S
C499 C498 1.394 . S
C499 C500 1.383 . S
C499 H507 0.929 . S
C500 C499 1.383 . S
C500 C501 1.377 . S
C501 H485 0.930 . S
C501 C500 1.377 . S
C501 C502 1.379 . S
C502 H486 0.931 . S
C502 C496 1.383 . S
C502 C501 1.379 . S
H503 C497 0.956 1_554 S
H504 C497 0.961 . S
H505 C497 0.960 . S
H506 C498 0.930 . S
H507 C499 0.929 . S
H508 C516 0.929 . S
H509 C518 0.930 . S
H510 C520 0.930 . S
H511 C523 0.929 . S
H512 C526 0.930 . S
H513 C528 0.960 . S
H514 C528 0.960 . S
H515 C528 0.960 . S
C516 H508 0.929 . S
C516 C517 1.377 . S
C516 C518 1.384 . S
C517 C516 1.377 . S
C517 C523 1.390 . S
C518 H509 0.930 . S
C518 C516 1.384 . S
C518 C519 1.372 . S
C519 C518 1.372 . S
C519 C520 1.400 . S
C519 C524 1.490 . S
C520 H510 0.930 . S
C520 C519 1.400 . S
C520 C523 1.386 . S
H521 C537 0.930 . S
H522 C538 0.931 . S
C523 H511 0.929 . S
C523 C517 1.390 . S
C523 C520 1.386 . S
C524 C519 1.490 . S
C524 C526 1.395 . S
C524 C527 1.403 1_556 S
H525 C531 0.930 . S
C526 H512 0.930 . S
C526 C524 1.395 . S
C526 C529 1.403 . S
C527 C524 1.403 1_554 S
C527 C528 1.524 . S
C527 C531 1.400 . S
C528 H513 0.960 . S
C528 H514 0.960 . S
C528 H515 0.960 . S
C528 C527 1.524 . S
C529 C526 1.403 . S
C529 C530 1.392 1_556 S
C529 C533 1.495 . S
C530 C529 1.392 1_554 S
C530 C531 1.385 . S
C530 C532 1.478 . S
C531 H525 0.930 . S
C531 C527 1.400 . S
C531 C530 1.385 . S
C532 C530 1.478 . S
C532 C534 1.381 . S
C532 C538 1.383 . S
C533 C529 1.495 . S
C533 H539 0.959 . S
C533 H540 0.961 . S
C533 H541 0.960 . S
C534 C532 1.381 . S
C534 C535 1.394 . S
C534 H542 0.930 . S
C535 C534 1.394 . S
C535 C536 1.383 . S
C535 H543 0.929 . S
C536 C535 1.383 . S
C536 C537 1.377 . S
C537 H521 0.930 . S
C537 C536 1.377 . S
C537 C538 1.379 . S
C538 H522 0.931 . S
C538 C532 1.383 . S
C538 C537 1.379 . S
H539 C533 0.959 . S
H540 C533 0.961 . S
H541 C533 0.960 . S
H542 C534 0.930 . S
H543 C535 0.929 . S
H544 C552 0.929 . S
H545 C554 0.930 . S
H546 C556 0.930 . S
H547 C559 0.929 . S
H548 C562 0.930 . S
H549 C564 0.960 . S
H550 C564 0.960 . S
H551 C564 0.960 . S
C552 H544 0.929 . S
C552 C553 1.377 . S
C552 C554 1.384 . S
C553 C552 1.377 . S
C553 C559 1.390 . S
C554 H545 0.930 . S
C554 C552 1.384 . S
C554 C555 1.372 . S
C555 C554 1.372 . S
C555 C556 1.400 . S
C555 C560 1.490 . S
C556 H546 0.930 . S
C556 C555 1.400 . S
C556 C559 1.386 . S
H557 C573 0.930 . S
H558 C574 0.931 . S
C559 H547 0.929 . S
C559 C553 1.390 . S
C559 C556 1.386 . S
C560 C555 1.490 . S
C560 C562 1.395 . S
C560 C563 1.403 . S
H561 C567 0.930 . S
C562 H548 0.930 . S
C562 C560 1.395 . S
C562 C565 1.403 . S
C563 C560 1.403 . S
C563 C564 1.524 . S
C563 C567 1.400 . S
C564 H549 0.960 . S
C564 H550 0.960 . S
C564 H551 0.960 . S
C564 C563 1.524 . S
C565 C562 1.403 . S
C565 C566 1.392 . S
C565 C569 1.495 . S
C566 C565 1.392 . S
C566 C567 1.385 . S
C566 C568 1.478 . S
C567 H561 0.930 . S
C567 C563 1.400 . S
C567 C566 1.385 . S
C568 C566 1.478 . S
C568 C570 1.381 . S
C568 C574 1.383 . S
C569 C565 1.495 . S
C569 H575 0.959 . S
C569 H576 0.961 . S
C569 H577 0.960 . S
C570 C568 1.381 . S
C570 C571 1.394 . S
C570 H578 0.930 . S
C571 C570 1.394 . S
C571 C572 1.383 . S
C571 H579 0.929 . S
C572 C571 1.383 . S
C572 C573 1.377 . S
C573 H557 0.930 . S
C573 C572 1.377 . S
C573 C574 1.379 . S
C574 H558 0.931 . S
C574 C568 1.383 . S
C574 C573 1.379 . S
H575 C569 0.959 . S
H576 C569 0.961 . S
H577 C569 0.960 . S
H578 C570 0.930 . S
H579 C571 0.929 . S
H580 C588 0.929 . S
H581 C590 0.930 . S
H582 C592 0.930 . S
H583 C595 0.929 . S
H584 C598 0.930 . S
H585 C600 0.960 . S
H586 C600 0.960 . S
H587 C600 0.960 . S
C588 H580 0.929 . S
C588 C589 1.377 . S
C588 C590 1.384 . S
C589 C588 1.377 . S
C589 C595 1.390 . S
C590 H581 0.930 . S
C590 C588 1.384 . S
C590 C591 1.372 . S
C591 C590 1.372 . S
C591 C592 1.400 . S
C591 C596 1.490 . S
C592 H582 0.930 . S
C592 C591 1.400 . S
C592 C595 1.386 . S
H593 C609 0.930 . S
H594 C610 0.931 . S
C595 H583 0.929 . S
C595 C589 1.390 . S
C595 C592 1.386 . S
C596 C591 1.490 . S
C596 C598 1.395 . S
C596 C599 1.403 . S
H597 C603 0.930 . S
C598 H584 0.930 . S
C598 C596 1.395 . S
C598 C601 1.403 . S
C599 C596 1.403 . S
C599 C600 1.524 . S
C599 C603 1.400 . S
C600 H585 0.960 . S
C600 H586 0.960 . S
C600 H587 0.960 . S
C600 C599 1.524 . S
C601 C598 1.403 . S
C601 C602 1.392 . S
C601 C605 1.495 . S
C602 C601 1.392 . S
C602 C603 1.385 . S
C602 C604 1.478 . S
C603 H597 0.930 . S
C603 C599 1.400 . S
C603 C602 1.385 . S
C604 C602 1.478 . S
C604 C606 1.381 . S
C604 C610 1.383 . S
C605 C601 1.495 . S
C605 H611 0.959 . S
C605 H612 0.961 . S
C605 H613 0.960 . S
C606 C604 1.381 . S
C606 C607 1.394 . S
C606 H614 0.930 . S
C607 C606 1.394 . S
C607 C608 1.383 . S
C607 H615 0.929 . S
C608 C607 1.383 . S
C608 C609 1.377 . S
C609 H593 0.930 . S
C609 C608 1.377 . S
C609 C610 1.379 . S
C610 H594 0.931 . S
C610 C604 1.383 . S
C610 C609 1.379 . S
H611 C605 0.959 . S
H612 C605 0.961 . S
H613 C605 0.960 . S
H614 C606 0.930 . S
H615 C607 0.929 . S
H616 C624 0.929 . S
H617 C626 0.930 . S
H618 C628 0.930 . S
H619 C631 0.929 . S
H620 C634 0.930 . S
H621 C636 0.960 . S
H622 C636 0.960 . S
H623 C636 0.960 . S
C624 H616 0.929 . S
C624 C625 1.377 . S
C624 C626 1.384 . S
C625 C624 1.377 . S
C625 C631 1.390 . S
C626 H617 0.930 . S
C626 C624 1.384 . S
C626 C627 1.372 . S
C627 C626 1.372 . S
C627 C628 1.400 . S
C627 C632 1.490 . S
C628 H618 0.930 . S
C628 C627 1.400 . S
C628 C631 1.386 . S
H629 C645 0.930 . S
H630 C646 0.931 . S
C631 H619 0.929 . S
C631 C625 1.390 . S
C631 C628 1.386 . S
C632 C627 1.490 . S
C632 C634 1.395 . S
C632 C635 1.403 . S
H633 C639 0.930 . S
C634 H620 0.930 . S
C634 C632 1.395 . S
C634 C637 1.403 . S
C635 C632 1.403 . S
C635 C636 1.524 . S
C635 C639 1.400 . S
C636 H621 0.960 . S
C636 H622 0.960 . S
C636 H623 0.960 . S
C636 C635 1.524 . S
C637 C634 1.403 . S
C637 C638 1.392 . S
C637 C641 1.495 . S
C638 C637 1.392 . S
C638 C639 1.385 . S
C638 C640 1.478 . S
C639 H633 0.930 . S
C639 C635 1.400 . S
C639 C638 1.385 . S
C640 C638 1.478 . S
C640 C642 1.381 . S
C640 C646 1.383 . S
C641 C637 1.495 . S
C641 H647 0.959 . S
C641 H648 0.961 . S
C641 H649 0.960 . S
C642 C640 1.381 . S
C642 C643 1.394 . S
C642 H650 0.930 . S
C643 C642 1.394 . S
C643 C644 1.383 . S
C643 H651 0.929 . S
C644 C643 1.383 . S
C644 C645 1.377 . S
C645 H629 0.930 . S
C645 C644 1.377 . S
C645 C646 1.379 . S
C646 H630 0.931 . S
C646 C640 1.383 . S
C646 C645 1.379 . S
H647 C641 0.959 . S
H648 C641 0.961 . S
H649 C641 0.960 . S
H650 C642 0.930 . S
H651 C643 0.929 . S
H652 C660 0.929 . S
H653 C662 0.930 . S
H654 C664 0.930 . S
H655 C667 0.929 . S
H656 C670 0.930 . S
H657 C672 0.960 . S
H658 C672 0.960 . S
H659 C672 0.960 . S
C660 H652 0.929 . S
C660 C661 1.377 . S
C660 C662 1.384 . S
C661 C660 1.377 . S
C661 C667 1.390 . S
C662 H653 0.930 . S
C662 C660 1.384 . S
C662 C663 1.372 . S
C663 C662 1.372 . S
C663 C664 1.400 . S
C663 C668 1.490 . S
C664 H654 0.930 . S
C664 C663 1.400 . S
C664 C667 1.386 . S
H665 C681 0.930 . S
H666 C682 0.931 . S
C667 H655 0.929 . S
C667 C661 1.390 . S
C667 C664 1.386 . S
C668 C663 1.490 . S
C668 C670 1.395 . S
C668 C671 1.403 . S
H669 C675 0.930 . S
C670 H656 0.930 . S
C670 C668 1.395 . S
C670 C673 1.403 . S
C671 C668 1.403 . S
C671 C672 1.524 . S
C671 C675 1.400 . S
C672 H657 0.960 . S
C672 H658 0.960 . S
C672 H659 0.960 . S
C672 C671 1.524 . S
C673 C670 1.403 . S
C673 C674 1.392 . S
C673 C677 1.495 . S
C674 C673 1.392 . S
C674 C675 1.385 . S
C674 C676 1.478 . S
C675 H669 0.930 . S
C675 C671 1.400 . S
C675 C674 1.385 . S
C676 C674 1.478 . S
C676 C678 1.381 . S
C676 C682 1.383 . S
C677 C673 1.495 . S
C677 H683 0.959 . S
C677 H684 0.961 . S
C677 H685 0.960 . S
C678 C676 1.381 . S
C678 C679 1.394 . S
C678 H686 0.930 . S
C679 C678 1.394 . S
C679 C680 1.383 . S
C679 H687 0.929 . S
C680 C679 1.383 . S
C680 C681 1.377 . S
C681 H665 0.930 . S
C681 C680 1.377 . S
C681 C682 1.379 . S
C682 H666 0.931 . S
C682 C676 1.383 . S
C682 C681 1.379 . S
H683 C677 0.959 . S
H684 C677 0.961 . S
H685 C677 0.960 . S
H686 C678 0.930 . S
H687 C679 0.929 . S
C121 C39 1.218 . S
C140 C11 1.206 . S
C157 C53 1.224 . S
C176 C25 1.237 . S
C193 C67 1.224 . S
C212 C95 1.235 . S
C229 C81 1.221 . S
C248 C109 1.235 . S
C265 C21 0.694 . S
C284 C8 0.714 . S
C301 C22 0.710 . S
C320 C35 0.727 . S
C337 C49 0.700 . S
C356 C36 0.658 . S
C373 C50 0.700 . S
C392 C7 0.697 . S
C409 C105 0.696 . S
C428 C64 0.763 . S
C445 C78 0.704 . S
C464 C63 0.745 . S
C481 C92 0.695 . S
C500 C77 0.734 . S
C517 C106 0.717 . S
C536 C91 0.671 . S
C553 C13 1.605 . S
C572 C83 1.569 . S
C589 C97 1.595 . S
C608 C27 1.562 . S
C625 C41 1.600 . S
C644 C111 1.626 . S
C661 C55 1.599 . S
C680 C69 1.572 . S
