# Generated by pormake.
# Topology uos, (4)-cn, num edge types: 1
# Building blocks:
#     Node 0, Type 0, BuildingBlock: GALJAG_clean_sbu_0, # of connection points: 4
#     Node 1, Type 0, BuildingBlock: GALJAG_clean_sbu_0, # of connection points: 4
#     Node 2, Type 0, BuildingBlock: GALJAG_clean_sbu_0, # of connection points: 4
#     Node 3, Type 0, BuildingBlock: GALJAG_clean_sbu_0, # of connection points: 4
#     Node 4, Type 0, BuildingBlock: GALJAG_clean_sbu_0, # of connection points: 4
#     Node 5, Type 0, BuildingBlock: GALJAG_clean_sbu_0, # of connection points: 4
#     Node 6, Type 0, BuildingBlock: GALJAG_clean_sbu_0, # of connection points: 4
#     Node 7, Type 0, BuildingBlock: GALJAG_clean_sbu_0, # of connection points: 4
#     Node 8, Type 0, BuildingBlock: GALJAG_clean_sbu_0, # of connection points: 4
#     Node 9, Type 0, BuildingBlock: GALJAG_clean_sbu_0, # of connection points: 4
#     Node 10, Type 0, BuildingBlock: GALJAG_clean_sbu_0, # of connection points: 4
#     Node 11, Type 0, BuildingBlock: GALJAG_clean_sbu_0, # of connection points: 4
#     Node 12, Type 0, BuildingBlock: GALJAG_clean_sbu_0, # of connection points: 4
#     Node 13, Type 0, BuildingBlock: GALJAG_clean_sbu_0, # of connection points: 4
#     Node 14, Type 0, BuildingBlock: GALJAG_clean_sbu_0, # of connection points: 4
#     Node 15, Type 0, BuildingBlock: GALJAG_clean_sbu_0, # of connection points: 4
#     Node 16, Type 0, BuildingBlock: GALJAG_clean_sbu_0, # of connection points: 4
#     Node 17, Type 0, BuildingBlock: GALJAG_clean_sbu_0, # of connection points: 4
#     Node 18, Type 0, BuildingBlock: GALJAG_clean_sbu_0, # of connection points: 4
#     Node 19, Type 0, BuildingBlock: GALJAG_clean_sbu_0, # of connection points: 4
#     Node 20, Type 0, BuildingBlock: GALJAG_clean_sbu_0, # of connection points: 4
#     Node 21, Type 0, BuildingBlock: GALJAG_clean_sbu_0, # of connection points: 4
#     Node 22, Type 0, BuildingBlock: GALJAG_clean_sbu_0, # of connection points: 4
#     Node 23, Type 0, BuildingBlock: GALJAG_clean_sbu_0, # of connection points: 4
#     Node 24, Type 0, BuildingBlock: GALJAG_clean_sbu_0, # of connection points: 4
#     Node 25, Type 0, BuildingBlock: GALJAG_clean_sbu_0, # of connection points: 4
#     Node 26, Type 0, BuildingBlock: GALJAG_clean_sbu_0, # of connection points: 4
#     Node 27, Type 0, BuildingBlock: GALJAG_clean_sbu_0, # of connection points: 4
#     Node 28, Type 0, BuildingBlock: GALJAG_clean_sbu_0, # of connection points: 4
#     Node 29, Type 0, BuildingBlock: GALJAG_clean_sbu_0, # of connection points: 4
#     Node 30, Type 0, BuildingBlock: GALJAG_clean_sbu_0, # of connection points: 4
#     Node 31, Type 0, BuildingBlock: GALJAG_clean_sbu_0, # of connection points: 4
#     Edge 32, Type (0, 0), BuildingBlock: CIFDUS_clean_linker_0, # of connection points: 2
#     Edge 33, Type (0, 0), BuildingBlock: CIFDUS_clean_linker_0, # of connection points: 2
#     Edge 34, Type (0, 0), BuildingBlock: CIFDUS_clean_linker_0, # of connection points: 2
#     Edge 35, Type (0, 0), BuildingBlock: CIFDUS_clean_linker_0, # of connection points: 2
#     Edge 36, Type (0, 0), BuildingBlock: CIFDUS_clean_linker_0, # of connection points: 2
#     Edge 37, Type (0, 0), BuildingBlock: CIFDUS_clean_linker_0, # of connection points: 2
#     Edge 38, Type (0, 0), BuildingBlock: CIFDUS_clean_linker_0, # of connection points: 2
#     Edge 39, Type (0, 0), BuildingBlock: CIFDUS_clean_linker_0, # of connection points: 2
#     Edge 40, Type (0, 0), BuildingBlock: CIFDUS_clean_linker_0, # of connection points: 2
#     Edge 41, Type (0, 0), BuildingBlock: CIFDUS_clean_linker_0, # of connection points: 2
#     Edge 42, Type (0, 0), BuildingBlock: CIFDUS_clean_linker_0, # of connection points: 2
#     Edge 43, Type (0, 0), BuildingBlock: CIFDUS_clean_linker_0, # of connection points: 2
#     Edge 44, Type (0, 0), BuildingBlock: CIFDUS_clean_linker_0, # of connection points: 2
#     Edge 45, Type (0, 0), BuildingBlock: CIFDUS_clean_linker_0, # of connection points: 2
#     Edge 46, Type (0, 0), BuildingBlock: CIFDUS_clean_linker_0, # of connection points: 2
#     Edge 47, Type (0, 0), BuildingBlock: CIFDUS_clean_linker_0, # of connection points: 2
#     Edge 48, Type (0, 0), BuildingBlock: CIFDUS_clean_linker_0, # of connection points: 2
#     Edge 49, Type (0, 0), BuildingBlock: CIFDUS_clean_linker_0, # of connection points: 2
#     Edge 50, Type (0, 0), BuildingBlock: CIFDUS_clean_linker_0, # of connection points: 2
#     Edge 51, Type (0, 0), BuildingBlock: CIFDUS_clean_linker_0, # of connection points: 2
#     Edge 52, Type (0, 0), BuildingBlock: CIFDUS_clean_linker_0, # of connection points: 2
#     Edge 53, Type (0, 0), BuildingBlock: CIFDUS_clean_linker_0, # of connection points: 2
#     Edge 54, Type (0, 0), BuildingBlock: CIFDUS_clean_linker_0, # of connection points: 2
#     Edge 55, Type (0, 0), BuildingBlock: CIFDUS_clean_linker_0, # of connection points: 2
#     Edge 56, Type (0, 0), BuildingBlock: CIFDUS_clean_linker_0, # of connection points: 2
#     Edge 57, Type (0, 0), BuildingBlock: CIFDUS_clean_linker_0, # of connection points: 2
#     Edge 58, Type (0, 0), BuildingBlock: CIFDUS_clean_linker_0, # of connection points: 2
#     Edge 59, Type (0, 0), BuildingBlock: CIFDUS_clean_linker_0, # of connection points: 2
#     Edge 60, Type (0, 0), BuildingBlock: CIFDUS_clean_linker_0, # of connection points: 2
#     Edge 61, Type (0, 0), BuildingBlock: CIFDUS_clean_linker_0, # of connection points: 2
#     Edge 62, Type (0, 0), BuildingBlock: CIFDUS_clean_linker_0, # of connection points: 2
#     Edge 63, Type (0, 0), BuildingBlock: CIFDUS_clean_linker_0, # of connection points: 2
#     Edge 64, Type (0, 0), BuildingBlock: CIFDUS_clean_linker_0, # of connection points: 2
#     Edge 65, Type (0, 0), BuildingBlock: CIFDUS_clean_linker_0, # of connection points: 2
#     Edge 66, Type (0, 0), BuildingBlock: CIFDUS_clean_linker_0, # of connection points: 2
#     Edge 67, Type (0, 0), BuildingBlock: CIFDUS_clean_linker_0, # of connection points: 2
#     Edge 68, Type (0, 0), BuildingBlock: CIFDUS_clean_linker_0, # of connection points: 2
#     Edge 69, Type (0, 0), BuildingBlock: CIFDUS_clean_linker_0, # of connection points: 2
#     Edge 70, Type (0, 0), BuildingBlock: CIFDUS_clean_linker_0, # of connection points: 2
#     Edge 71, Type (0, 0), BuildingBlock: CIFDUS_clean_linker_0, # of connection points: 2
#     Edge 72, Type (0, 0), BuildingBlock: CIFDUS_clean_linker_0, # of connection points: 2
#     Edge 73, Type (0, 0), BuildingBlock: CIFDUS_clean_linker_0, # of connection points: 2
#     Edge 74, Type (0, 0), BuildingBlock: CIFDUS_clean_linker_0, # of connection points: 2
#     Edge 75, Type (0, 0), BuildingBlock: CIFDUS_clean_linker_0, # of connection points: 2
#     Edge 76, Type (0, 0), BuildingBlock: CIFDUS_clean_linker_0, # of connection points: 2
#     Edge 77, Type (0, 0), BuildingBlock: CIFDUS_clean_linker_0, # of connection points: 2
#     Edge 78, Type (0, 0), BuildingBlock: CIFDUS_clean_linker_0, # of connection points: 2
#     Edge 79, Type (0, 0), BuildingBlock: CIFDUS_clean_linker_0, # of connection points: 2
#     Edge 80, Type (0, 0), BuildingBlock: CIFDUS_clean_linker_0, # of connection points: 2
#     Edge 81, Type (0, 0), BuildingBlock: CIFDUS_clean_linker_0, # of connection points: 2
#     Edge 82, Type (0, 0), BuildingBlock: CIFDUS_clean_linker_0, # of connection points: 2
#     Edge 83, Type (0, 0), BuildingBlock: CIFDUS_clean_linker_0, # of connection points: 2
#     Edge 84, Type (0, 0), BuildingBlock: CIFDUS_clean_linker_0, # of connection points: 2
#     Edge 85, Type (0, 0), BuildingBlock: CIFDUS_clean_linker_0, # of connection points: 2
#     Edge 86, Type (0, 0), BuildingBlock: CIFDUS_clean_linker_0, # of connection points: 2
#     Edge 87, Type (0, 0), BuildingBlock: CIFDUS_clean_linker_0, # of connection points: 2
#     Edge 88, Type (0, 0), BuildingBlock: CIFDUS_clean_linker_0, # of connection points: 2
#     Edge 89, Type (0, 0), BuildingBlock: CIFDUS_clean_linker_0, # of connection points: 2
#     Edge 90, Type (0, 0), BuildingBlock: CIFDUS_clean_linker_0, # of connection points: 2
#     Edge 91, Type (0, 0), BuildingBlock: CIFDUS_clean_linker_0, # of connection points: 2
#     Edge 92, Type (0, 0), BuildingBlock: CIFDUS_clean_linker_0, # of connection points: 2
#     Edge 93, Type (0, 0), BuildingBlock: CIFDUS_clean_linker_0, # of connection points: 2
#     Edge 94, Type (0, 0), BuildingBlock: CIFDUS_clean_linker_0, # of connection points: 2
#     Edge 95, Type (0, 0), BuildingBlock: CIFDUS_clean_linker_0, # of connection points: 2
# Relax obj value: 0.041
# Max RMSD: 0.074
# Mean RMSD: 0.074
data_MOF--net-uos--node1-GALJAG_clean_sbu_0--edge1-CIFDUS_clean_linker_0
_symmetry_space_group_name_H-M    P1
_symmetry_Int_Tables_number       1
_symmetry_cell_setting            triclinic
loop_
_symmetry_equiv_pos_as_xyz
'x, y, z'
_cell_length_a     78.847939
_cell_length_b     78.873417
_cell_length_c     18.33624
_cell_angle_alpha  90.090634
_cell_angle_beta   89.909167
_cell_angle_gamma 90.017077
loop_
_atom_site_label
_atom_site_type_symbol
_atom_site_fract_x
_atom_site_fract_y
_atom_site_fract_z
_atom_type_partial_charge
In0 In 0.17096 0.17264 0.11055 0.0
O1 O 0.16879 0.14994 0.03222 0.0
O2 O 0.15503 0.17215 0.00643 0.0
C3 C 0.20398 0.17047 0.14993 0.0
C4 C 0.15163 0.15623 0.20843 0.0
C5 C 0.1675 0.20669 0.11583 0.0
O6 O 0.19948 0.17062 0.08376 0.0
O7 O 0.19193 0.17133 0.19488 0.0
O8 O 0.16131 0.19686 0.16308 0.0
O9 O 0.17536 0.19935 0.06466 0.0
C10 C 0.15829 0.15696 0.99028 0.0
O11 O 0.14671 0.16962 0.17735 0.0
O12 O 0.16623 0.15125 0.19016 0.0
In13 In 0.08714 0.92167 0.35588 0.0
O14 O 0.10831 0.91999 0.26909 0.0
O15 O 0.08769 0.90282 0.26193 0.0
C16 C 0.09134 0.9528 0.41505 0.0
C17 C 0.10203 0.90147 0.45447 0.0
C18 C 0.05325 0.92283 0.33696 0.0
O19 O 0.09282 0.95027 0.34713 0.0
O20 O 0.08783 0.93977 0.45171 0.0
O21 O 0.06027 0.91349 0.38397 0.0
O22 O 0.06338 0.93147 0.29853 0.0
C23 C 0.10183 0.90742 0.23673 0.0
O24 O 0.08672 0.89949 0.43589 0.0
O25 O 0.10963 0.91352 0.42323 0.0
In26 In 0.33758 0.83754 0.63819 0.0
O27 O 0.33481 0.85869 0.55257 0.0
O28 O 0.35625 0.84263 0.54553 0.0
C29 C 0.30562 0.83843 0.69246 0.0
C30 C 0.35717 0.8538 0.73586 0.0
C31 C 0.34125 0.80356 0.62492 0.0
O32 O 0.3086 0.83866 0.62468 0.0
O33 O 0.31867 0.8378 0.73197 0.0
O34 O 0.34799 0.81218 0.67502 0.0
O35 O 0.33267 0.8121 0.57991 0.0
C36 C 0.34866 0.85545 0.52098 0.0
O37 O 0.36113 0.83955 0.70951 0.0
O38 O 0.34326 0.85973 0.71344 0.0
In39 In 0.41737 0.08672 0.89049 0.0
O40 O 0.39478 0.08974 0.81217 0.0
O41 O 0.41726 0.10331 0.78835 0.0
C42 C 0.41517 0.05348 0.92675 0.0
C43 C 0.40153 0.10598 0.99104 0.0
C44 C 0.45149 0.08961 0.88881 0.0
O45 O 0.41437 0.0585 0.86142 0.0
O46 O 0.41687 0.06517 0.97304 0.0
O47 O 0.44229 0.09606 0.93791 0.0
O48 O 0.44346 0.0817 0.83978 0.0
C49 C 0.40208 0.10032 0.77135 0.0
O50 O 0.41547 0.11024 0.96259 0.0
O51 O 0.39571 0.09195 0.96926 0.0
In52 In 0.17523 0.83733 0.85381 0.0
O53 O 0.15461 0.84109 0.76876 0.0
O54 O 0.17249 0.86099 0.78452 0.0
C55 C 0.17001 0.80364 0.86982 0.0
C56 C 0.16199 0.8545 0.96904 0.0
C57 C 0.20739 0.83697 0.80224 0.0
O58 O 0.16299 0.81242 0.82109 0.0
O59 O 0.17958 0.81191 0.91213 0.0
O60 O 0.20414 0.83966 0.86889 0.0
O61 O 0.19454 0.83439 0.76299 0.0
C62 C 0.15959 0.85571 0.75076 0.0
O63 O 0.17732 0.85612 0.95006 0.0
O64 O 0.15387 0.84364 0.93282 0.0
In65 In 0.42025 0.92771 0.1377 0.0
O66 O 0.41787 0.90881 0.04378 0.0
O67 O 0.3963 0.92369 0.07175 0.0
C68 C 0.45428 0.9259 0.15221 0.0
C69 C 0.40635 0.90984 0.2491 0.0
C70 C 0.41752 0.96096 0.10377 0.0
O71 O 0.44643 0.91944 0.09894 0.0
O72 O 0.44494 0.93326 0.19849 0.0
O73 O 0.41545 0.95561 0.16823 0.0
O74 O 0.42098 0.94961 0.05765 0.0
C75 C 0.40253 0.91235 0.03122 0.0
O76 O 0.40069 0.92417 0.23032 0.0
O77 O 0.41928 0.9051 0.21425 0.0
In78 In 0.32699 0.16928 0.39111 0.0
O79 O 0.32586 0.15092 0.48839 0.0
O80 O 0.34948 0.1624 0.46302 0.0
C81 C 0.29428 0.16838 0.34683 0.0
C82 C 0.34258 0.15145 0.28547 0.0
C83 C 0.33055 0.20303 0.41481 0.0
O84 O 0.29857 0.16515 0.41176 0.0
O85 O 0.30642 0.17209 0.305 0.0
O86 O 0.33632 0.19565 0.35899 0.0
O87 O 0.32321 0.19335 0.45961 0.0
C88 C 0.34149 0.15208 0.50267 0.0
O89 O 0.34716 0.16627 0.3028 0.0
O90 O 0.33005 0.1458 0.3208 0.0
In91 In 0.09112 0.08042 0.61011 0.0
O92 O 0.10916 0.07909 0.70887 0.0
O93 O 0.0971 0.1025 0.68516 0.0
C94 C 0.09249 0.04917 0.54965 0.0
C95 C 0.10882 0.09717 0.50823 0.0
C96 C 0.05747 0.08282 0.63635 0.0
O97 O 0.09605 0.05166 0.61615 0.0
O98 O 0.08822 0.06229 0.51514 0.0
O99 O 0.06493 0.09128 0.58757 0.0
O100 O 0.06705 0.07333 0.67334 0.0
C101 C 0.10755 0.09464 0.72448 0.0
O102 O 0.09346 0.10054 0.5219 0.0
O103 O 0.1151 0.08532 0.54571 0.0
In104 In 0.83362 0.83855 0.86797 0.0
O105 O 0.83099 0.85951 0.95559 0.0
O106 O 0.85305 0.84426 0.95654 0.0
C107 C 0.80241 0.83962 0.8066 0.0
C108 C 0.85298 0.85389 0.76732 0.0
C109 C 0.83707 0.80468 0.886 0.0
O110 O 0.80458 0.84176 0.87439 0.0
O111 O 0.81583 0.83689 0.77112 0.0
O112 O 0.84534 0.81323 0.84025 0.0
O113 O 0.82697 0.81327 0.92495 0.0
C114 C 0.84536 0.85678 0.98342 0.0
O115 O 0.85659 0.83956 0.79338 0.0
O116 O 0.83955 0.86048 0.79195 0.0
In117 In 0.92279 0.08706 0.60057 0.0
O118 O 0.92071 0.11061 0.52877 0.0
O119 O 0.90042 0.09283 0.52795 0.0
C120 C 0.95676 0.09027 0.60997 0.0
C121 C 0.90696 0.09884 0.72239 0.0
C122 C 0.92132 0.05536 0.54399 0.0
O123 O 0.94781 0.09871 0.56606 0.0
O124 O 0.94853 0.08018 0.65034 0.0
O125 O 0.91941 0.05812 0.61155 0.0
O126 O 0.92406 0.06844 0.50648 0.0
C127 C 0.90635 0.10657 0.50387 0.0
O128 O 0.90039 0.08776 0.68166 0.0
O129 O 0.92178 0.10306 0.7043 0.0
In130 In 0.67383 0.16516 0.38744 0.0
O131 O 0.67572 0.14396 0.47356 0.0
O132 O 0.65475 0.16071 0.47856 0.0
C133 C 0.70428 0.1623 0.32036 0.0
C134 C 0.65273 0.15078 0.291 0.0
C135 C 0.67367 0.19898 0.41087 0.0
O136 O 0.70276 0.16117 0.38889 0.0
O137 O 0.69059 0.16476 0.28678 0.0
O138 O 0.66474 0.19182 0.36287 0.0
O139 O 0.68255 0.189 0.44882 0.0
C140 C 0.66181 0.14767 0.50386 0.0
O141 O 0.65053 0.16572 0.31407 0.0
O142 O 0.66556 0.14327 0.31638 0.0
In143 In 0.58913 0.92068 0.11084 0.0
O144 O 0.61049 0.92254 0.19651 0.0
O145 O 0.59467 0.90087 0.19821 0.0
C146 C 0.59534 0.95365 0.08061 0.0
C147 C 0.60009 0.90307 0.99388 0.0
C148 C 0.55493 0.91724 0.11839 0.0
O149 O 0.5833 0.94901 0.12154 0.0
O150 O 0.60478 0.94177 0.05882 0.0
O151 O 0.56372 0.91175 0.06603 0.0
O152 O 0.5634 0.92426 0.16839 0.0
C153 C 0.6074 0.90829 0.22471 0.0
O154 O 0.59438 0.91795 0.9893 0.0
O155 O 0.59992 0.8969 0.05727 0.0
In156 In 0.82993 0.1657 0.10204 0.0
O157 O 0.85053 0.16358 0.18813 0.0
O158 O 0.83492 0.142 0.16764 0.0
C159 C 0.83198 0.19937 0.07679 0.0
C160 C 0.84401 0.14917 0.98739 0.0
C161 C 0.79913 0.1642 0.16639 0.0
O162 O 0.84078 0.19186 0.12416 0.0
O163 O 0.82233 0.1898 0.04028 0.0
O164 O 0.80114 0.16047 0.09969 0.0
O165 O 0.81245 0.16876 0.1988 0.0
C166 C 0.84702 0.14835 0.20349 0.0
O167 O 0.82848 0.1475 0.00335 0.0
O168 O 0.85186 0.15975 0.02628 0.0
In169 In 0.58583 0.08088 0.88824 0.0
O170 O 0.60457 0.0819 0.79125 0.0
O171 O 0.58888 0.10325 0.81242 0.0
C172 C 0.58558 0.0489 0.93977 0.0
C173 C 0.60413 0.09569 0.99398 0.0
C174 C 0.55233 0.08334 0.86297 0.0
O175 O 0.59276 0.05254 0.87988 0.0
O176 O 0.57856 0.06122 0.97163 0.0
O177 O 0.55968 0.09111 0.91433 0.0
O178 O 0.562 0.07451 0.82293 0.0
C179 C 0.6006 0.09694 0.77439 0.0
O180 O 0.58926 0.10048 0.97886 0.0
O181 O 0.60958 0.08353 0.95601 0.0
In182 In 0.67484 0.83491 0.61481 0.0
O183 O 0.65722 0.83199 0.71255 0.0
O184 O 0.6602 0.85657 0.66631 0.0
C185 C 0.67524 0.80099 0.59482 0.0
C186 C 0.66023 0.84914 0.49582 0.0
C187 C 0.70607 0.84119 0.67144 0.0
O188 O 0.6656 0.80829 0.63994 0.0
O189 O 0.68465 0.81084 0.55856 0.0
O190 O 0.69281 0.83996 0.7092 0.0
O191 O 0.70369 0.83968 0.6036 0.0
C192 C 0.65323 0.84749 0.71439 0.0
O193 O 0.67257 0.85602 0.52836 0.0
O194 O 0.65604 0.83487 0.5209 0.0
In195 In 0.91829 0.92605 0.36791 0.0
O196 O 0.91414 0.90571 0.4538 0.0
O197 O 0.89332 0.92162 0.42594 0.0
C198 C 0.95215 0.92168 0.36362 0.0
C199 C 0.9048 0.91154 0.24674 0.0
C200 C 0.91752 0.95806 0.42098 0.0
O201 O 0.94259 0.91383 0.40738 0.0
O202 O 0.94459 0.93175 0.32094 0.0
O203 O 0.91649 0.95512 0.35314 0.0
O204 O 0.91892 0.94503 0.46006 0.0
C205 C 0.89878 0.90954 0.46429 0.0
O206 O 0.89872 0.92495 0.27401 0.0
O207 O 0.91807 0.90634 0.27751 0.0
In208 In 0.67227 0.66595 0.61849 0.0
O209 O 0.66784 0.64301 0.54343 0.0
O210 O 0.65737 0.66655 0.51161 0.0
C211 C 0.70535 0.66273 0.65626 0.0
C212 C 0.65185 0.65104 0.71701 0.0
C213 C 0.66995 0.70009 0.61897 0.0
O214 O 0.7005 0.6622 0.59065 0.0
O215 O 0.69357 0.66464 0.70198 0.0
O216 O 0.6629 0.69083 0.6662 0.0
O217 O 0.67819 0.69212 0.57073 0.0
C218 C 0.65879 0.65095 0.49836 0.0
O219 O 0.64826 0.66507 0.68781 0.0
O220 O 0.66582 0.64471 0.69712 0.0
In221 In 0.59175 0.42171 0.86847 0.0
O222 O 0.59441 0.40064 0.95277 0.0
O223 O 0.61037 0.42219 0.9629 0.0
C224 C 0.55793 0.41633 0.86667 0.0
C225 C 0.60843 0.40736 0.75375 0.0
C226 C 0.59461 0.45519 0.899 0.0
O227 O 0.56726 0.41279 0.92034 0.0
O228 O 0.56568 0.42255 0.81242 0.0
O229 O 0.60727 0.44549 0.89387 0.0
O230 O 0.58059 0.4482 0.88514 0.0
C231 C 0.60615 0.4079 0.98748 0.0
O232 O 0.60551 0.42307 0.7567 0.0
O233 O 0.60231 0.39912 0.80604 0.0
In234 In 0.83549 0.3339 0.12438 0.0
O235 O 0.8583 0.33528 0.20042 0.0
O236 O 0.84236 0.35694 0.19231 0.0
C237 C 0.83834 0.29994 0.1138 0.0
C238 C 0.84803 0.34877 0.00208 0.0
C239 C 0.80378 0.33579 0.18095 0.0
O240 O 0.8468 0.30874 0.15836 0.0
O241 O 0.82835 0.3083 0.07369 0.0
O242 O 0.8065 0.3372 0.11317 0.0
O243 O 0.8169 0.33347 0.21866 0.0
C244 C 0.8553 0.35028 0.22069 0.0
O245 O 0.85225 0.33419 0.02303 0.0
O246 O 0.8366 0.35561 0.04028 0.0
In247 In 0.91638 0.58351 0.38213 0.0
O248 O 0.89613 0.58209 0.29247 0.0
O249 O 0.90946 0.60524 0.30602 0.0
C250 C 0.91617 0.55028 0.41696 0.0
C251 C 0.89921 0.59855 0.4918 0.0
C252 C 0.95017 0.5871 0.35962 0.0
O253 O 0.9198 0.56181 0.46208 0.0
O254 O 0.91268 0.55548 0.3535 0.0
O255 O 0.94288 0.5918 0.41753 0.0
O256 O 0.94036 0.58091 0.31224 0.0
C257 C 0.89796 0.59731 0.27268 0.0
O258 O 0.8951 0.58436 0.46551 0.0
O259 O 0.9122 0.60521 0.46337 0.0
In260 In 0.67498 0.33357 0.36514 0.0
O261 O 0.65161 0.33405 0.29196 0.0
O262 O 0.66648 0.35647 0.30064 0.0
C263 C 0.67116 0.29971 0.37452 0.0
C264 C 0.6637 0.34893 0.48875 0.0
C265 C 0.70657 0.33562 0.30682 0.0
O266 O 0.66268 0.30885 0.33141 0.0
O267 O 0.68167 0.30769 0.41379 0.0
O268 O 0.704 0.33679 0.37472 0.0
O269 O 0.69336 0.33347 0.26958 0.0
C270 C 0.65366 0.34931 0.2734 0.0
O271 O 0.66136 0.33345 0.47539 0.0
O272 O 0.67272 0.35649 0.44226 0.0
In273 In 0.9175 0.42415 0.62424 0.0
O274 O 0.89829 0.42516 0.71882 0.0
O275 O 0.91146 0.40214 0.70064 0.0
C276 C 0.91695 0.45751 0.59067 0.0
C277 C 0.89969 0.40888 0.5181 0.0
C278 C 0.95152 0.41949 0.62951 0.0
O279 O 0.91706 0.45233 0.65588 0.0
O280 O 0.91707 0.44592 0.54331 0.0
O281 O 0.94248 0.41498 0.57631 0.0
O282 O 0.94337 0.42613 0.68156 0.0
C283 C 0.90023 0.40984 0.73668 0.0
O284 O 0.91396 0.40354 0.53901 0.0
O285 O 0.89444 0.42201 0.55053 0.0
In286 In 0.82956 0.67006 0.88294 0.0
O287 O 0.84877 0.67159 0.78963 0.0
O288 O 0.83874 0.64741 0.81709 0.0
C289 C 0.82937 0.70394 0.90459 0.0
C290 C 0.84557 0.65591 0.99869 0.0
C291 C 0.79694 0.66525 0.84138 0.0
O292 O 0.83847 0.69678 0.85693 0.0
O293 O 0.82029 0.69399 0.94187 0.0
O294 O 0.8017 0.66371 0.9068 0.0
O295 O 0.80861 0.66908 0.79733 0.0
C296 C 0.84865 0.65585 0.7771 0.0
O297 O 0.83294 0.64904 0.96856 0.0
O298 O 0.84957 0.67011 0.9725 0.0
In299 In 0.58558 0.57998 0.11833 0.0
O300 O 0.58886 0.59994 0.02906 0.0
O301 O 0.60805 0.58124 0.04161 0.0
C302 C 0.55251 0.5841 0.15192 0.0
C303 C 0.60308 0.59354 0.23105 0.0
C304 C 0.58416 0.54806 0.06585 0.0
O305 O 0.55954 0.59145 0.09868 0.0
O306 O 0.56235 0.57514 0.1902 0.0
O307 O 0.59468 0.55232 0.11457 0.0
O308 O 0.5744 0.55973 0.04507 0.0
C309 C 0.60298 0.59418 0.00787 0.0
O310 O 0.60151 0.57768 0.22308 0.0
O311 O 0.59527 0.60227 0.18444 0.0
In312 In 0.33258 0.33811 0.38864 0.0
O313 O 0.33183 0.35844 0.47889 0.0
O314 O 0.35369 0.34297 0.47137 0.0
C315 C 0.29916 0.33938 0.35591 0.0
C316 C 0.34867 0.35557 0.28318 0.0
C317 C 0.33654 0.30397 0.39096 0.0
O318 O 0.30439 0.33901 0.42107 0.0
O319 O 0.31072 0.33905 0.30837 0.0
O320 O 0.34112 0.31314 0.3383 0.0
O321 O 0.33011 0.31201 0.4438 0.0
C322 C 0.34651 0.35529 0.50244 0.0
O323 O 0.33458 0.36012 0.30936 0.0
O324 O 0.35468 0.34214 0.31008 0.0
In325 In 0.41776 0.58183 0.11945 0.0
O326 O 0.39804 0.58286 0.21303 0.0
O327 O 0.41746 0.60141 0.21039 0.0
C328 C 0.41687 0.54968 0.06719 0.0
C329 C 0.39839 0.59861 0.02341 0.0
C330 C 0.45162 0.58639 0.12479 0.0
O331 O 0.41578 0.55275 0.13489 0.0
O332 O 0.41847 0.56264 0.02779 0.0
O333 O 0.44219 0.59376 0.07915 0.0
O334 O 0.44395 0.57661 0.16845 0.0
C335 C 0.40416 0.59617 0.24093 0.0
O336 O 0.41374 0.6024 0.03416 0.0
O337 O 0.39289 0.58644 0.06122 0.0
In338 In 0.17476 0.66906 0.88789 0.0
O339 O 0.17322 0.65063 0.98555 0.0
O340 O 0.15342 0.66854 0.9704 0.0
C341 C 0.20595 0.66626 0.82806 0.0
C342 C 0.15724 0.65038 0.79181 0.0
C343 C 0.17418 0.70294 0.90607 0.0
O344 O 0.20355 0.66397 0.89575 0.0
O345 O 0.1928 0.66989 0.79244 0.0
O346 O 0.16515 0.69538 0.8593 0.0
O347 O 0.1834 0.69335 0.94445 0.0
C348 C 0.15894 0.65615 0.00652 0.0
O349 O 0.15482 0.66616 0.79876 0.0
O350 O 0.16843 0.64422 0.83316 0.0
In351 In 0.08632 0.42739 0.64009 0.0
O352 O 0.1052 0.4253 0.73536 0.0
O353 O 0.08814 0.40492 0.71688 0.0
C354 C 0.08799 0.4605 0.60306 0.0
C355 C 0.10512 0.4122 0.5362 0.0
C356 C 0.0524 0.4252 0.65776 0.0
O357 O 0.09133 0.4554 0.66687 0.0
O358 O 0.08384 0.44895 0.55893 0.0
O359 O 0.06003 0.41885 0.60356 0.0
O360 O 0.06191 0.43255 0.70331 0.0
C361 C 0.10036 0.41063 0.75367 0.0
O362 O 0.08996 0.40788 0.54884 0.0
O363 O 0.11055 0.42423 0.57504 0.0
In364 In 0.33273 0.66915 0.62093 0.0
O365 O 0.33027 0.6483 0.53286 0.0
O366 O 0.35296 0.66264 0.53677 0.0
C367 C 0.30181 0.6673 0.68508 0.0
C368 C 0.35236 0.65452 0.72222 0.0
C369 C 0.33445 0.70286 0.59401 0.0
O370 O 0.3038 0.66498 0.61728 0.0
O371 O 0.31526 0.67061 0.71925 0.0
O372 O 0.34254 0.69564 0.64435 0.0
O373 O 0.32554 0.69301 0.55548 0.0
C374 C 0.34504 0.65051 0.50788 0.0
O375 O 0.3556 0.66901 0.69657 0.0
O376 O 0.33924 0.64751 0.69683 0.0
In377 In 0.08536 0.58602 0.38785 0.0
O378 O 0.10764 0.58414 0.30695 0.0
O379 O 0.09086 0.60492 0.29639 0.0
C380 C 0.08673 0.55275 0.42328 0.0
C381 C 0.10048 0.60535 0.48959 0.0
C382 C 0.05122 0.5899 0.3865 0.0
O383 O 0.0847 0.55771 0.35831 0.0
O384 O 0.08818 0.56452 0.46942 0.0
O385 O 0.06036 0.59317 0.44101 0.0
O386 O 0.05929 0.5847 0.33122 0.0
C387 C 0.10428 0.59784 0.27474 0.0
O388 O 0.08778 0.61037 0.45387 0.0
O389 O 0.10543 0.59055 0.47431 0.0
In390 In 0.17363 0.34147 0.13928 0.0
O391 O 0.15085 0.3412 0.21622 0.0
O392 O 0.16784 0.36209 0.22242 0.0
C393 C 0.17203 0.30782 0.11149 0.0
C394 C 0.1601 0.3602 0.03004 0.0
C395 C 0.20659 0.34317 0.1798 0.0
O396 O 0.16658 0.31439 0.16973 0.0
O397 O 0.17815 0.31826 0.06644 0.0
O398 O 0.2018 0.34574 0.11504 0.0
O399 O 0.19477 0.33992 0.22401 0.0
C400 C 0.15441 0.35524 0.24555 0.0
O401 O 0.17407 0.3639 0.05955 0.0
O402 O 0.15344 0.34673 0.05334 0.0
In403 In 0.4232 0.42053 0.88991 0.0
O404 O 0.42359 0.3998 0.97674 0.0
O405 O 0.40025 0.41241 0.95537 0.0
C406 C 0.45683 0.42032 0.86227 0.0
C407 C 0.40803 0.4055 0.77393 0.0
C408 C 0.42004 0.45212 0.94683 0.0
O409 O 0.45014 0.41189 0.91327 0.0
O410 O 0.44651 0.42888 0.82464 0.0
O411 O 0.41736 0.44912 0.87999 0.0
O412 O 0.42424 0.43933 0.98363 0.0
C413 C 0.408 0.40125 0.99158 0.0
O414 O 0.40238 0.41906 0.80161 0.0
O415 O 0.42154 0.40018 0.80245 0.0
H416 H 0.283 0.17102 0.20738 0.0
H417 H 0.26563 0.16464 0.42896 0.0
H418 H 0.23621 0.1645 0.38709 0.0
H419 H 0.21545 0.16667 0.28804 0.0
H420 H 0.23266 0.17253 0.06603 0.0
H421 H 0.26217 0.17232 0.10754 0.0
C422 C 0.27277 0.16959 0.2465 0.0
C423 C 0.27649 0.16792 0.32126 0.0
C424 C 0.25589 0.16942 0.22196 0.0
C425 C 0.26311 0.16596 0.37119 0.0
C426 C 0.24629 0.16589 0.34728 0.0
C427 C 0.22565 0.16787 0.24864 0.0
C428 C 0.22187 0.16969 0.17404 0.0
C429 C 0.24253 0.16768 0.27288 0.0
C430 C 0.23524 0.17112 0.12371 0.0
C431 C 0.2521 0.17103 0.14745 0.0
H432 H 0.09134 0.98384 0.34979 0.0
H433 H 0.09506 0.95943 0.55951 0.0
H434 H 0.0965 0.98699 0.61987 0.0
H435 H 0.09566 0.01816 0.61378 0.0
H436 H 0.09068 0.04253 0.40446 0.0
H437 H 0.0908 0.01501 0.34361 0.0
C438 C 0.0926 0.98458 0.40861 0.0
C439 C 0.0931 0.96963 0.45003 0.0
C440 C 0.09311 1.00051 0.44324 0.0
C441 C 0.0946 0.97077 0.52632 0.0
C442 C 0.09542 0.98653 0.56098 0.0
C443 C 0.09469 0.01742 0.55486 0.0
C444 C 0.09314 0.03236 0.51382 0.0
C445 C 0.09452 1.0015 0.52011 0.0
C446 C 0.09182 0.03121 0.43746 0.0
C447 C 0.0919 0.01547 0.40249 0.0
H448 H 0.23747 0.84004 0.87474 0.0
H449 H 0.21624 0.83408 0.65946 0.0
H450 H 0.24459 0.8343 0.60622 0.0
H451 H 0.27554 0.83604 0.62039 0.0
H452 H 0.2969 0.84141 0.83564 0.0
H453 H 0.26851 0.84159 0.88898 0.0
C454 C 0.23907 0.83879 0.81622 0.0
C455 C 0.22475 0.83705 0.77125 0.0
C456 C 0.25547 0.83884 0.78579 0.0
C457 C 0.22704 0.83542 0.69545 0.0
C458 C 0.24327 0.83556 0.66483 0.0
C459 C 0.27397 0.83729 0.67893 0.0
C460 C 0.28831 0.83873 0.72388 0.0
C461 C 0.25758 0.83725 0.70941 0.0
C462 C 0.28607 0.84027 0.79973 0.0
C463 C 0.26982 0.84037 0.83036 0.0
H464 H 0.41374 0.04046 0.06375 0.0
H465 H 0.41578 0.02581 0.83706 0.0
H466 H 0.4165 0.99592 0.87211 0.0
H467 H 0.41728 0.97401 0.96709 0.0
H468 H 0.41473 0.98852 0.1938 0.0
H469 H 0.41345 0.01844 0.15881 0.0
C470 C 0.41429 0.03072 0.02199 0.0
C471 C 0.41477 0.03536 0.94785 0.0
C472 C 0.41465 0.01356 0.04257 0.0
C473 C 0.41538 0.02259 0.89444 0.0
C474 C 0.41584 0.0055 0.91447 0.0
C475 C 0.41642 0.98371 0.0089 0.0
C476 C 0.41619 0.97906 0.08301 0.0
C477 C 0.4156 1.00085 0.98834 0.0
C478 C 0.41494 0.99177 0.13643 0.0
C479 C 0.41423 0.00888 0.11643 0.0
H480 H 0.77152 0.84567 0.86885 0.0
H481 H 0.79567 0.83498 0.66253 0.0
H482 H 0.76821 0.83546 0.60146 0.0
H483 H 0.73711 0.838 0.60687 0.0
H484 H 0.71293 0.84823 0.8135 0.0
H485 H 0.74049 0.849 0.87368 0.0
C486 C 0.77076 0.84348 0.81054 0.0
C487 C 0.78562 0.84023 0.77049 0.0
C488 C 0.75488 0.84373 0.77556 0.0
C489 C 0.78442 0.83747 0.69483 0.0
C490 C 0.76871 0.83775 0.65972 0.0
C491 C 0.73791 0.84057 0.66489 0.0
C492 C 0.72299 0.84305 0.70554 0.0
C493 C 0.75383 0.84078 0.69953 0.0
C494 C 0.72422 0.84625 0.78086 0.0
C495 C 0.73999 0.84666 0.81546 0.0
H496 H 0.91932 0.9887 0.3517 0.0
H497 H 0.91538 0.9659 0.5648 0.0
H498 H 0.9159 0.9938 0.62185 0.0
H499 H 0.91799 0.02481 0.612 0.0
H500 H 0.92256 0.04771 0.39937 0.0
H501 H 0.92129 0.01982 0.34184 0.0
C502 C 0.9185 0.98988 0.41054 0.0
C503 C 0.91732 0.97523 0.45378 0.0
C504 C 0.91898 0.00603 0.44335 0.0
C505 C 0.91634 0.97696 0.53009 0.0
C506 C 0.91664 0.99293 0.56293 0.0
C507 C 0.91867 0.02368 0.55311 0.0
C508 C 0.92039 0.03832 0.51019 0.0
C509 C 0.91804 0.00757 0.52021 0.0
C510 C 0.92128 0.03664 0.43384 0.0
C511 C 0.92054 0.02068 0.40076 0.0
H512 H 0.73597 0.16377 0.37866 0.0
H513 H 0.70938 0.15874 0.17441 0.0
H514 H 0.73629 0.15825 0.10836 0.0
H515 H 0.76751 0.1601 0.1081 0.0
H516 H 0.79391 0.16629 0.31238 0.0
H517 H 0.76709 0.16547 0.37852 0.0
C518 C 0.7361 0.16245 0.31977 0.0
C519 C 0.72072 0.16128 0.28158 0.0
C520 C 0.75162 0.16246 0.28192 0.0
C521 C 0.72106 0.1597 0.20515 0.0
C522 C 0.73644 0.15943 0.16725 0.0
C523 C 0.76736 0.16119 0.16707 0.0
C524 C 0.78267 0.16327 0.20513 0.0
C525 C 0.75182 0.16093 0.20496 0.0
C526 C 0.78229 0.16475 0.28161 0.0
C527 C 0.76695 0.16426 0.31963 0.0
H528 H 0.60656 0.02223 0.90908 0.0
H529 H 0.56448 0.03732 0.0451 0.0
H530 H 0.56435 0.00959 0.10353 0.0
H531 H 0.57579 0.98085 0.11495 0.0
H532 H 0.61823 0.96562 0.98142 0.0
H533 H 0.61881 0.99358 0.92415 0.0
C534 C 0.59734 0.01937 0.95123 0.0
C535 C 0.58548 0.03176 0.9723 0.0
C536 C 0.5975 0.00342 0.98568 0.0
C537 C 0.57373 0.02799 0.02774 0.0
C538 C 0.57365 0.01214 0.06136 0.0
C539 C 0.58528 0.98371 0.0739 0.0
C540 C 0.59694 0.97117 0.05257 0.0
C541 C 0.58547 0.99976 0.04084 0.0
C542 C 0.60914 0.97507 0.99911 0.0
C543 C 0.60942 0.99103 0.96596 0.0
H544 H 0.71781 0.6604 0.79367 0.0
H545 H 0.73338 0.66343 0.5684 0.0
H546 H 0.76316 0.66404 0.60581 0.0
H547 H 0.78469 0.66482 0.7029 0.0
H548 H 0.76904 0.66139 0.92799 0.0
H549 H 0.73936 0.65976 0.89026 0.0
C550 C 0.72772 0.66111 0.75271 0.0
C551 C 0.72339 0.66196 0.67836 0.0
C552 C 0.74479 0.66143 0.77462 0.0
C553 C 0.73638 0.66277 0.62596 0.0
C554 C 0.75341 0.66316 0.64734 0.0
C555 C 0.77479 0.66365 0.74367 0.0
C556 C 0.77906 0.66333 0.81819 0.0
C557 C 0.75775 0.66267 0.72155 0.0
C558 C 0.76609 0.66169 0.87033 0.0
C559 C 0.74911 0.66078 0.84879 0.0
H560 H 0.56956 0.47868 0.90685 0.0
H561 H 0.62241 0.47078 0.95677 0.0
H562 H 0.62376 0.49858 0.01569 0.0
H563 H 0.60966 0.52495 0.0558 0.0
H564 H 0.55716 0.53318 0.00071 0.0
H565 H 0.55586 0.50541 0.94189 0.0
C566 C 0.58141 0.48311 0.93006 0.0
C567 C 0.59585 0.47269 0.92747 0.0
C568 C 0.5821 0.49909 0.96376 0.0
C569 C 0.61113 0.4786 0.95772 0.0
C570 C 0.61189 0.49445 0.99185 0.0
C571 C 0.59794 0.52056 0.03129 0.0
C572 C 0.58348 0.53097 0.03313 0.0
C573 C 0.5974 0.50474 0.99591 0.0
C574 C 0.56843 0.52533 0.00011 0.0
C575 C 0.56769 0.50948 0.96633 0.0
H576 H 0.73735 0.33664 0.37438 0.0
H577 H 0.71395 0.33635 0.16187 0.0
H578 H 0.7418 0.3369 0.10373 0.0
H579 H 0.77299 0.3368 0.11291 0.0
H580 H 0.79631 0.3364 0.3256 0.0
H581 H 0.76847 0.33682 0.38357 0.0
C582 C 0.73836 0.33676 0.31538 0.0
C583 C 0.72359 0.33644 0.27264 0.0
C584 C 0.75446 0.33692 0.28212 0.0
C585 C 0.72512 0.33656 0.19617 0.0
C586 C 0.74106 0.33687 0.16276 0.0
C587 C 0.77195 0.33688 0.17189 0.0
C588 C 0.78671 0.33655 0.21473 0.0
C589 C 0.75584 0.33696 0.20513 0.0
C590 C 0.78516 0.3366 0.2912 0.0
C591 C 0.76922 0.33684 0.32454 0.0
H592 H 0.9137 0.47081 0.45523 0.0
H593 H 0.92001 0.48493 0.68101 0.0
H594 H 0.92044 0.51491 0.64691 0.0
H595 H 0.91921 0.53704 0.55278 0.0
H596 H 0.91232 0.52289 0.32734 0.0
H597 H 0.91194 0.49293 0.36148 0.0
C598 C 0.91516 0.48045 0.49701 0.0
C599 C 0.91687 0.47566 0.57055 0.0
C600 C 0.91531 0.49762 0.47703 0.0
C601 C 0.91867 0.48829 0.62406 0.0
C602 C 0.91893 0.50542 0.60457 0.0
C603 C 0.91765 0.5274 0.5111 0.0
C604 C 0.91586 0.53217 0.43758 0.0
C605 C 0.91731 0.51023 0.53121 0.0
C606 C 0.91373 0.51954 0.38427 0.0
C607 C 0.91352 0.50242 0.40377 0.0
H608 H 0.28603 0.34402 0.22109 0.0
H609 H 0.27154 0.33649 0.4457 0.0
H610 H 0.24156 0.3372 0.41115 0.0
H611 H 0.2195 0.33954 0.3165 0.0
H612 H 0.23423 0.34748 0.09235 0.0
H613 H 0.2641 0.34709 0.12742 0.0
C614 C 0.27631 0.34254 0.26256 0.0
C615 C 0.281 0.34014 0.33584 0.0
C616 C 0.25915 0.34305 0.24234 0.0
C617 C 0.26826 0.33835 0.38893 0.0
C618 C 0.25113 0.33874 0.36917 0.0
C619 C 0.22925 0.34122 0.27538 0.0
C620 C 0.22464 0.34349 0.20186 0.0
C621 C 0.24643 0.34102 0.29598 0.0
C622 C 0.23743 0.34571 0.14927 0.0
C623 C 0.25451 0.34547 0.16927 0.0
H624 H 0.41813 0.51909 0.13738 0.0
H625 H 0.41465 0.5416 0.92362 0.0
H626 H 0.41468 0.51359 0.86744 0.0
H627 H 0.41642 0.48256 0.87816 0.0
H628 H 0.42082 0.45996 0.09133 0.0
H629 H 0.41964 0.48794 0.14814 0.0
C630 C 0.41731 0.51783 0.07859 0.0
C631 C 0.41641 0.53243 0.03491 0.0
C632 C 0.41752 0.50161 0.04626 0.0
C633 C 0.41541 0.53059 0.95867 0.0
C634 C 0.41541 0.51455 0.92633 0.0
C635 C 0.41703 0.48377 0.93703 0.0
C636 C 0.41871 0.46919 0.98031 0.0
C637 C 0.41657 0.49996 0.96947 0.0
C638 C 0.41957 0.47098 0.0566 0.0
C639 C 0.4189 0.487 0.08925 0.0
H640 H 0.27047 0.66482 0.62352 0.0
H641 H 0.29589 0.66764 0.83132 0.0
H642 H 0.26865 0.66672 0.89462 0.0
H643 H 0.23737 0.66596 0.89113 0.0
H644 H 0.21207 0.66422 0.68279 0.0
H645 H 0.23933 0.66379 0.62002 0.0
C646 C 0.27003 0.66516 0.68263 0.0
C647 C 0.28518 0.66632 0.72252 0.0
C648 C 0.25429 0.66484 0.71882 0.0
C649 C 0.2844 0.66681 0.79918 0.0
C650 C 0.26882 0.66627 0.83554 0.0
C651 C 0.23786 0.66536 0.83207 0.0
C652 C 0.22271 0.66513 0.79181 0.0
C653 C 0.25365 0.66539 0.79597 0.0
C654 C 0.22355 0.66447 0.71519 0.0
C655 C 0.23914 0.66423 0.6791 0.0
H656 H 0.08353 0.4734 0.46735 0.0
H657 H 0.09424 0.4881 0.68934 0.0
H658 H 0.09502 0.51792 0.65289 0.0
H659 H 0.09226 0.5398 0.55828 0.0
H660 H 0.08178 0.52506 0.33614 0.0
H661 H 0.08137 0.49522 0.37232 0.0
C662 C 0.08605 0.48312 0.5078 0.0
C663 C 0.08877 0.47854 0.58105 0.0
C664 C 0.08653 0.50021 0.48639 0.0
C665 C 0.09209 0.49129 0.63267 0.0
C666 C 0.09253 0.50834 0.61184 0.0
C667 C 0.08992 0.53006 0.51771 0.0
C668 C 0.08701 0.53465 0.4446 0.0
C669 C 0.08971 0.51295 0.53892 0.0
C670 C 0.08405 0.52187 0.39272 0.0
C671 C 0.0838 0.50481 0.41341 0.0
H672 H 0.15811 0.12289 0.96381 0.0
H673 H 0.13712 0.17025 0.88844 0.0
H674 H 0.11934 0.15505 0.8013 0.0
H675 H 0.10917 0.12842 0.7487 0.0
H676 H 0.12993 0.08086 0.82237 0.0
H677 H 0.14824 0.096 0.90861 0.0
C678 C 0.14979 0.12988 0.92767 0.0
C679 C 0.14899 0.1477 0.93246 0.0
C680 C 0.13939 0.12102 0.87816 0.0
C681 C 0.13802 0.15655 0.88576 0.0
C682 C 0.12778 0.14787 0.83612 0.0
C683 C 0.11763 0.12133 0.78389 0.0
C684 C 0.11808 0.10352 0.77955 0.0
C685 C 0.12822 0.13011 0.83246 0.0
C686 C 0.12925 0.09456 0.82499 0.0
C687 C 0.13977 0.10322 0.87406 0.0
H688 H 0.12863 0.85526 0.00311 0.0
H689 H 0.17641 0.87882 0.05643 0.0
H690 H 0.16191 0.89811 0.141 0.0
H691 H 0.13548 0.90812 0.20049 0.0
H692 H 0.08799 0.88407 0.14595 0.0
H693 H 0.10251 0.86535 0.06032 0.0
C694 C 0.13592 0.86454 0.03354 0.0
C695 C 0.1536 0.86551 0.02387 0.0
C696 C 0.1275 0.87566 0.08122 0.0
C697 C 0.1628 0.87773 0.06326 0.0
C698 C 0.1545 0.88881 0.11132 0.0
C699 C 0.12832 0.89893 0.16908 0.0
C700 C 0.11066 0.89755 0.17932 0.0
C701 C 0.13683 0.88794 0.12058 0.0
C702 C 0.10157 0.88543 0.13898 0.0
C703 C 0.10987 0.87465 0.09021 0.0
H704 H 0.37453 0.91297 0.3073 0.0
H705 H 0.41913 0.88128 0.31004 0.0
H706 H 0.40493 0.86133 0.39116 0.0
H707 H 0.37993 0.85271 0.46091 0.0
H708 H 0.33512 0.88406 0.45964 0.0
H709 H 0.34919 0.90414 0.37764 0.0
C710 C 0.38117 0.90178 0.32629 0.0
C711 C 0.39791 0.89868 0.30298 0.0
C712 C 0.37281 0.89017 0.37241 0.0
C713 C 0.40627 0.88401 0.32732 0.0
C714 C 0.39814 0.87254 0.37351 0.0
C715 C 0.37316 0.86385 0.44221 0.0
C716 C 0.35646 0.86682 0.46605 0.0
C717 C 0.38139 0.87543 0.39602 0.0
C718 C 0.34795 0.88141 0.44174 0.0
C719 C 0.35602 0.89295 0.39518 0.0
H720 H 0.36814 0.10108 0.7429 0.0
H721 H 0.41612 0.12142 0.67081 0.0
H722 H 0.40157 0.13939 0.58256 0.0
H723 H 0.37526 0.14991 0.528 0.0
H724 H 0.32713 0.12985 0.59931 0.0
H725 H 0.34166 0.11132 0.68616 0.0
C726 C 0.3754 0.10931 0.70728 0.0
C727 C 0.3932 0.10986 0.71329 0.0
C728 C 0.36692 0.11981 0.65718 0.0
C729 C 0.40243 0.12071 0.66722 0.0
C730 C 0.39411 0.13105 0.61692 0.0
C731 C 0.36793 0.14154 0.56278 0.0
C732 C 0.35012 0.14135 0.55756 0.0
C733 C 0.37636 0.13085 0.61199 0.0
C734 C 0.34084 0.13031 0.60255 0.0
C735 C 0.34914 0.11967 0.65202 0.0
H736 H 0.87815 0.85648 0.02596 0.0
H737 H 0.8312 0.88355 0.05769 0.0
H738 H 0.84563 0.90374 0.13843 0.0
H739 H 0.87177 0.9135 0.20114 0.0
H740 H 0.91847 0.88609 0.16676 0.0
H741 H 0.90404 0.86648 0.08492 0.0
C742 C 0.87101 0.86672 0.05094 0.0
C743 C 0.85358 0.86839 0.03643 0.0
C744 C 0.87943 0.87839 0.09607 0.0
C745 C 0.8446 0.88188 0.06848 0.0
C746 C 0.85287 0.89349 0.11431 0.0
C747 C 0.87881 0.90339 0.17476 0.0
C748 C 0.89621 0.90132 0.18982 0.0
C749 C 0.87033 0.89191 0.12834 0.0
C750 C 0.9051 0.88801 0.15601 0.0
C751 C 0.89684 0.87671 0.10947 0.0
H752 H 0.87779 0.14762 0.96394 0.0
H753 H 0.8304 0.12649 0.88969 0.0
H754 H 0.84575 0.10812 0.804 0.0
H755 H 0.87282 0.09844 0.74894 0.0
H756 H 0.91992 0.11992 0.82523 0.0
H757 H 0.90451 0.13755 0.91226 0.0
C758 C 0.87077 0.13907 0.92876 0.0
C759 C 0.85295 0.13855 0.9327 0.0
C760 C 0.87967 0.12845 0.88058 0.0
C761 C 0.84411 0.12723 0.88733 0.0
C762 C 0.85289 0.11668 0.83859 0.0
C763 C 0.8797 0.10681 0.78537 0.0
C764 C 0.89752 0.10782 0.78074 0.0
C765 C 0.8707 0.11717 0.83479 0.0
C766 C 0.90624 0.11887 0.82774 0.0
C767 C 0.89742 0.12903 0.87731 0.0
H768 H 0.63224 0.09162 0.71658 0.0
H769 H 0.58946 0.1257 0.71033 0.0
H770 H 0.60489 0.14463 0.62907 0.0
H771 H 0.63053 0.15188 0.56137 0.0
H772 H 0.67369 0.11833 0.56598 0.0
H773 H 0.65828 0.099 0.64709 0.0
C774 C 0.62627 0.10309 0.69658 0.0
C775 C 0.60968 0.10719 0.71915 0.0
C776 C 0.63537 0.11416 0.65054 0.0
C777 C 0.60218 0.12222 0.69368 0.0
C778 C 0.61102 0.13311 0.64744 0.0
C779 C 0.63665 0.14041 0.58054 0.0
C780 C 0.65328 0.13662 0.55804 0.0
C781 C 0.62766 0.1293 0.62612 0.0
C782 C 0.66094 0.12162 0.58294 0.0
C783 C 0.65209 0.11051 0.62895 0.0
H784 H 0.66227 0.88214 0.45043 0.0
H785 H 0.63497 0.83544 0.41446 0.0
H786 H 0.616 0.84976 0.32984 0.0
H787 H 0.60661 0.87555 0.26811 0.0
H788 H 0.63379 0.92239 0.30094 0.0
H789 H 0.65319 0.9081 0.3852 0.0
C790 C 0.65229 0.87508 0.42335 0.0
C791 C 0.65009 0.85772 0.4387 0.0
C792 C 0.64124 0.88347 0.37496 0.0
C793 C 0.637 0.84878 0.40361 0.0
C794 C 0.62607 0.85698 0.3554 0.0
C795 C 0.61671 0.88268 0.29406 0.0
C796 C 0.61865 0.90005 0.27883 0.0
C797 C 0.62794 0.87434 0.34131 0.0
C798 C 0.63195 0.90903 0.31215 0.0
C799 C 0.64309 0.90085 0.36008 0.0
H800 H 0.65356 0.61705 0.47962 0.0
H801 H 0.64172 0.6659 0.38699 0.0
H802 H 0.62329 0.6524 0.29718 0.0
H803 H 0.60993 0.62694 0.24708 0.0
H804 H 0.62126 0.57796 0.33928 0.0
H805 H 0.64037 0.5913 0.42769 0.0
C806 C 0.6471 0.6247 0.43918 0.0
C807 C 0.64907 0.64246 0.43975 0.0
C808 C 0.63627 0.61686 0.38832 0.0
C809 C 0.64046 0.65222 0.38758 0.0
C810 C 0.62986 0.64452 0.3364 0.0
C811 C 0.61652 0.61916 0.28669 0.0
C812 C 0.61409 0.60148 0.28689 0.0
C813 C 0.62752 0.62689 0.3368 0.0
C814 C 0.62283 0.5916 0.33825 0.0
C815 C 0.6338 0.59922 0.3886 0.0
H816 H 0.61703 0.37425 0.74549 0.0
H817 H 0.62435 0.42217 0.63685 0.0
H818 H 0.64325 0.40853 0.54816 0.0
H819 H 0.6573 0.38275 0.50048 0.0
H820 H 0.64913 0.33489 0.60864 0.0
H821 H 0.6312 0.34881 0.69945 0.0
C822 C 0.6227 0.38173 0.70226 0.0
C823 C 0.6192 0.39919 0.69751 0.0
C824 C 0.63356 0.37384 0.65194 0.0
C825 C 0.62674 0.4087 0.64141 0.0
C826 C 0.63761 0.40091 0.59094 0.0
C827 C 0.65179 0.37544 0.54463 0.0
C828 C 0.65464 0.35783 0.54822 0.0
C829 C 0.64113 0.38348 0.59573 0.0
C830 C 0.64719 0.34846 0.60493 0.0
C831 C 0.63687 0.3564 0.65662 0.0
H832 H 0.89859 0.37613 0.76333 0.0
H833 H 0.87688 0.42394 0.82936 0.0
H834 H 0.85787 0.40921 0.914 0.0
H835 H 0.84779 0.38262 0.97087 0.0
H836 H 0.86979 0.33499 0.90362 0.0
H837 H 0.88807 0.34973 0.817 0.0
C838 C 0.88977 0.38335 0.79654 0.0
C839 C 0.88927 0.40112 0.79058 0.0
C840 C 0.87878 0.37479 0.84428 0.0
C841 C 0.87761 0.41026 0.83332 0.0
C842 C 0.86669 0.40183 0.88148 0.0
C843 C 0.85641 0.37547 0.93646 0.0
C844 C 0.85738 0.35772 0.94354 0.0
C845 C 0.86714 0.38408 0.8874 0.0
C846 C 0.86876 0.34865 0.89916 0.0
C847 C 0.8793 0.35708 0.84985 0.0
H848 H 0.89865 0.63018 0.23016 0.0
H849 H 0.87203 0.5831 0.19465 0.0
H850 H 0.85285 0.59724 0.10931 0.0
H851 H 0.84379 0.62304 0.04397 0.0
H852 H 0.87082 0.66991 0.07953 0.0
H853 H 0.88954 0.65584 0.16622 0.0
C854 C 0.8887 0.62298 0.20352 0.0
C855 C 0.88682 0.6056 0.21844 0.0
C856 C 0.87769 0.6312 0.15496 0.0
C857 C 0.8738 0.59648 0.18379 0.0
C858 C 0.86279 0.60457 0.1352 0.0
C859 C 0.85367 0.63019 0.07129 0.0
C860 C 0.85586 0.64751 0.05554 0.0
C861 C 0.86459 0.62194 0.12046 0.0
C862 C 0.86883 0.65658 0.0908 0.0
C863 C 0.87959 0.64853 0.14021 0.0
H864 H 0.37914 0.35273 0.5472 0.0
H865 H 0.33375 0.38239 0.57834 0.0
H866 H 0.34893 0.4012 0.66225 0.0
H867 H 0.37526 0.40915 0.72742 0.0
H868 H 0.4204 0.37911 0.6952 0.0
H869 H 0.40525 0.36072 0.61049 0.0
C870 C 0.37252 0.36324 0.57269 0.0
C871 C 0.3553 0.36607 0.5569 0.0
C872 C 0.38136 0.37408 0.62017 0.0
C873 C 0.34697 0.37985 0.58993 0.0
C874 C 0.35568 0.39067 0.63766 0.0
C875 C 0.3818 0.39869 0.70116 0.0
C876 C 0.39897 0.39556 0.71743 0.0
C877 C 0.37291 0.38795 0.65303 0.0
C878 C 0.40722 0.38184 0.68359 0.0
C879 C 0.39854 0.37126 0.6353 0.0
H880 H 0.37798 0.65035 0.46698 0.0
H881 H 0.33067 0.62419 0.43149 0.0
H882 H 0.34496 0.60417 0.34936 0.0
H883 H 0.37105 0.59439 0.28603 0.0
H884 H 0.41807 0.62102 0.32344 0.0
H885 H 0.40381 0.64033 0.40734 0.0
C886 C 0.37074 0.64034 0.44098 0.0
C887 C 0.35325 0.63888 0.45481 0.0
C888 C 0.37906 0.6288 0.39481 0.0
C889 C 0.34413 0.62569 0.4213 0.0
C890 C 0.35231 0.61419 0.37464 0.0
C891 C 0.37819 0.60426 0.3135 0.0
C892 C 0.39563 0.60621 0.29871 0.0
C893 C 0.36981 0.61559 0.36104 0.0
C894 C 0.40466 0.61921 0.33394 0.0
C895 C 0.3965 0.63033 0.38168 0.0
H896 H 0.16224 0.62423 0.06346 0.0
H897 H 0.1314 0.66936 0.07423 0.0
H898 H 0.11154 0.65511 0.15559 0.0
H899 H 0.10239 0.62973 0.2211 0.0
H900 H 0.13288 0.5844 0.21232 0.0
H901 H 0.15324 0.5987 0.13218 0.0
C902 C 0.15131 0.63099 0.08456 0.0
C903 C 0.14836 0.64786 0.06302 0.0
C904 C 0.1397 0.6226 0.13071 0.0
C905 C 0.134 0.65638 0.09004 0.0
C906 C 0.12257 0.64822 0.13631 0.0
C907 C 0.11341 0.62292 0.20122 0.0
C908 C 0.11602 0.60597 0.22209 0.0
C909 C 0.12516 0.63128 0.15622 0.0
C910 C 0.13051 0.59742 0.19659 0.0
C911 C 0.1422 0.60562 0.15108 0.0
H912 H 0.13132 0.41609 0.81597 0.0
H913 H 0.08896 0.38144 0.81456 0.0
H914 H 0.10386 0.36266 0.89832 0.0
H915 H 0.12904 0.35573 0.97021 0.0
H916 H 0.1717 0.38997 0.97182 0.0
H917 H 0.15668 0.40914 0.88925 0.0
C918 C 0.12531 0.40452 0.83467 0.0
C919 C 0.10903 0.40021 0.80932 0.0
C920 C 0.13408 0.39359 0.88216 0.0
C921 C 0.10147 0.38507 0.83335 0.0
C922 C 0.11 0.37428 0.88107 0.0
C923 C 0.1351 0.36734 0.95221 0.0
C924 C 0.15149 0.37137 0.97683 0.0
C925 C 0.12636 0.37833 0.90529 0.0
C926 C 0.15912 0.38653 0.95335 0.0
C927 C 0.15051 0.39753 0.90638 0.0
H928 H 0.1579 0.28376 0.19748 0.0
H929 H 0.18566 0.29033 0.9966 0.0
H930 H 0.18637 0.25958 0.97878 0.0
H931 H 0.17983 0.23071 0.02268 0.0
H932 H 0.15198 0.22454 0.22376 0.0
H933 H 0.15054 0.25521 0.23889 0.0
C934 C 0.16405 0.27848 0.14962 0.0
C935 C 0.17176 0.2893 0.09859 0.0
C936 C 0.16442 0.26083 0.13983 0.0
C937 C 0.17962 0.28226 0.03672 0.0
C938 C 0.18006 0.26467 0.02657 0.0
C939 C 0.17338 0.2361 0.06956 0.0
C940 C 0.16608 0.22535 0.12211 0.0
C941 C 0.17261 0.25382 0.07809 0.0
C942 C 0.15774 0.23252 0.18254 0.0
C943 C 0.15691 0.25007 0.19134 0.0
H944 H 0.97565 0.93772 0.27881 0.0
H945 H 0.97047 0.90059 0.45012 0.0
H946 H 1.00119 0.89735 0.45538 0.0
H947 H 0.02956 0.90553 0.41396 0.0
H948 H 0.0351 0.94275 0.24343 0.0
H949 H 0.00424 0.94543 0.23503 0.0
C950 C 0.98126 0.92887 0.31703 0.0
C951 C 0.97078 0.91945 0.3641 0.0
C952 C 0.999 0.9271 0.32002 0.0
C953 C 0.97824 0.90803 0.41334 0.0
C954 C 0.99582 0.90616 0.41646 0.0
C955 C 0.02403 0.91418 0.37472 0.0
C956 C 0.0346 0.92394 0.3295 0.0
C957 C 0.00632 0.9157 0.37044 0.0
C958 C 0.02723 0.93508 0.2789 0.0
C959 C 0.00959 0.93664 0.27414 0.0
H960 H 0.3249 0.78131 0.53428 0.0
H961 H 0.3612 0.78383 0.70999 0.0
H962 H 0.36287 0.75302 0.71298 0.0
H963 H 0.35315 0.72539 0.67037 0.0
H964 H 0.3165 0.72217 0.49652 0.0
H965 H 0.31592 0.75318 0.48776 0.0
C966 C 0.33326 0.77509 0.57273 0.0
C967 C 0.34285 0.78487 0.62202 0.0
C968 C 0.33406 0.75725 0.57471 0.0
C969 C 0.35362 0.77663 0.67165 0.0
C970 C 0.35459 0.75899 0.67347 0.0
C971 C 0.3451 0.73144 0.63017 0.0
C972 C 0.33484 0.72149 0.58437 0.0
C973 C 0.34473 0.74918 0.62597 0.0
C974 C 0.32452 0.72955 0.53247 0.0
C975 C 0.32416 0.74728 0.52758 0.0
H976 H 0.47418 0.07507 0.79532 0.0
H977 H 0.47078 0.10711 0.98584 0.0
H978 H 0.50163 0.1086 0.99239 0.0
H979 H 0.52955 0.10005 0.94703 0.0
H980 H 0.53332 0.06759 0.75811 0.0
H981 H 0.50237 0.0671 0.74762 0.0
C982 C 0.48021 0.08244 0.838 0.0
C983 C 0.4702 0.09092 0.89013 0.0
C984 C 0.49802 0.08316 0.8418 0.0
C985 C 0.47819 0.10042 0.94515 0.0
C986 C 0.49584 0.10129 0.94897 0.0
C987 C 0.52362 0.09295 0.90323 0.0
C988 C 0.53371 0.08385 0.85349 0.0
C989 C 0.50587 0.09259 0.89802 0.0
C990 C 0.52582 0.0747 0.79712 0.0
C991 C 0.50813 0.07439 0.79119 0.0
H992 H 0.1864 0.78124 0.95849 0.0
H993 H 0.14864 0.78428 0.78886 0.0
H994 H 0.1461 0.75348 0.7874 0.0
H995 H 0.15548 0.72562 0.82988 0.0
H996 H 0.19351 0.7222 0.99808 0.0
H997 H 0.19501 0.75315 0.00472 0.0
C998 C 0.17752 0.77515 0.92171 0.0
C999 C 0.16777 0.78504 0.87371 0.0
C1000 C 0.17622 0.75735 0.92061 0.0
C1001 C 0.15634 0.77697 0.82623 0.0
C1002 C 0.15488 0.75934 0.82525 0.0
C1003 C 0.16403 0.73164 0.8683 0.0
C1004 C 0.17441 0.72163 0.91317 0.0
C1005 C 0.1649 0.7494 0.87149 0.0
C1006 C 0.1854 0.72963 0.96281 0.0
C1007 C 0.18628 0.74732 0.96658 0.0
H1008 H 0.4764 0.91011 0.06131 0.0
H1009 H 0.47412 0.9399 0.25857 0.0
H1010 H 0.50507 0.93929 0.26759 0.0
H1011 H 0.5329 0.93102 0.21697 0.0
H1012 H 0.53487 0.90144 0.01892 0.0
H1013 H 0.50397 0.90116 0.01299 0.0
C1014 C 0.48266 0.91643 0.10642 0.0
C1015 C 0.47297 0.92509 0.15902 0.0
C1016 C 0.50044 0.91606 0.11114 0.0
C1017 C 0.48129 0.93317 0.21725 0.0
C1018 C 0.49899 0.93283 0.22244 0.0
C1019 C 0.52654 0.92441 0.17287 0.0
C1020 C 0.53618 0.91629 0.11843 0.0
C1021 C 0.50871 0.92441 0.1694 0.0
C1022 C 0.52776 0.90782 0.06149 0.0
C1023 C 0.51008 0.90767 0.05795 0.0
H1024 H 0.34477 0.22597 0.3232 0.0
H1025 H 0.31841 0.22188 0.52876 0.0
H1026 H 0.31856 0.25277 0.54149 0.0
H1027 H 0.32513 0.28107 0.49135 0.0
H1028 H 0.3511 0.28482 0.28464 0.0
H1029 H 0.3522 0.254 0.27546 0.0
C1030 C 0.33915 0.23182 0.37105 0.0
C1031 C 0.33156 0.22164 0.42483 0.0
C1032 C 0.33916 0.24957 0.37771 0.0
C1033 C 0.32433 0.22943 0.4865 0.0
C1034 C 0.32439 0.2471 0.49376 0.0
C1035 C 0.33113 0.27512 0.44461 0.0
C1036 C 0.33798 0.28525 0.38869 0.0
C1037 C 0.33161 0.25732 0.43931 0.0
C1038 C 0.3457 0.27735 0.32839 0.0
C1039 C 0.34632 0.2597 0.32301 0.0
H1040 H 0.9791 0.07285 0.69532 0.0
H1041 H 0.97641 0.11102 0.52729 0.0
H1042 H 0.00727 0.11264 0.52335 0.0
H1043 H 0.03501 0.10241 0.56337 0.0
H1044 H 0.03811 0.0641 0.73044 0.0
H1045 H 0.00714 0.06343 0.73939 0.0
C1046 C 0.98528 0.08158 0.65821 0.0
C1047 C 0.97546 0.09173 0.61145 0.0
C1048 C 1.00311 0.08242 0.65593 0.0
C1049 C 0.98366 0.10302 0.56373 0.0
C1050 C 1.00132 0.10396 0.56137 0.0
C1051 C 0.02893 0.09399 0.60214 0.0
C1052 C 0.03884 0.08328 0.64596 0.0
C1053 C 0.01116 0.0936 0.60659 0.0
C1054 C 0.03075 0.07247 0.69603 0.0
C1055 C 0.01305 0.07205 0.70105 0.0
H1056 H 0.85047 0.7267 0.84231 0.0
H1057 H 0.80792 0.72293 0.98941 0.0
H1058 H 0.80698 0.75388 0.00037 0.0
H1059 H 0.81757 0.78218 0.96313 0.0
H1060 H 0.86017 0.78526 0.81547 0.0
H1061 H 0.86184 0.75449 0.81036 0.0
C1062 C 0.84102 0.73263 0.877 0.0
C1063 C 0.82922 0.72256 0.91455 0.0
C1064 C 0.84057 0.75036 0.88298 0.0
C1065 C 0.81714 0.73043 0.95977 0.0
C1066 C 0.81659 0.74812 0.966 0.0
C1067 C 0.8273 0.77608 0.9305 0.0
C1068 C 0.83866 0.78601 0.88946 0.0
C1069 C 0.82814 0.75825 0.92722 0.0
C1070 C 0.8512 0.77794 0.84731 0.0
C1071 C 0.85217 0.76031 0.84421 0.0
H1072 H 0.65526 0.22198 0.33598 0.0
H1073 H 0.6937 0.21784 0.50212 0.0
H1074 H 0.69605 0.24878 0.50741 0.0
H1075 H 0.68791 0.27702 0.46073 0.0
H1076 H 0.64955 0.28062 0.29371 0.0
H1077 H 0.64645 0.24989 0.29295 0.0
C1078 C 0.66408 0.22783 0.37373 0.0
C1079 C 0.67433 0.21764 0.41842 0.0
C1080 C 0.66544 0.24555 0.37604 0.0
C1081 C 0.68567 0.22542 0.46714 0.0
C1082 C 0.68705 0.24311 0.47002 0.0
C1083 C 0.67883 0.27106 0.42445 0.0
C1084 C 0.66904 0.2811 0.37712 0.0
C1085 C 0.67712 0.2533 0.4241 0.0
C1086 C 0.65729 0.2732 0.33053 0.0
C1087 C 0.6555 0.25562 0.33002 0.0
H1088 H 0.82092 0.27787 0.02679 0.0
H1089 H 0.85929 0.28009 0.19423 0.0
H1090 H 0.8613 0.24927 0.19447 0.0
H1091 H 0.85143 0.22167 0.15125 0.0
H1092 H 0.81284 0.21894 0.98517 0.0
H1093 H 0.81175 0.24994 0.9798 0.0
C1094 C 0.82977 0.27158 0.06301 0.0
C1095 C 0.83987 0.28126 0.11066 0.0
C1096 C 0.83082 0.25377 0.06316 0.0
C1097 C 0.85131 0.27296 0.15719 0.0
C1098 C 0.85248 0.25532 0.1574 0.0
C1099 C 0.84286 0.22784 0.11344 0.0
C1100 C 0.8322 0.21803 0.06883 0.0
C1101 C 0.8422 0.2456 0.1112 0.0
C1102 C 0.82118 0.22622 0.0201 0.0
C1103 C 0.82052 0.24394 0.01717 0.0
H1104 H 0.68627 0.72291 0.53206 0.0
H1105 H 0.65089 0.71921 0.71123 0.0
H1106 H 0.6491 0.75003 0.71796 0.0
H1107 H 0.65792 0.77801 0.67494 0.0
H1108 H 0.69373 0.78213 0.49776 0.0
H1109 H 0.69498 0.75119 0.48809 0.0
C1110 C 0.67813 0.72887 0.57235 0.0
C1111 C 0.66873 0.71879 0.62108 0.0
C1112 C 0.67725 0.74666 0.57634 0.0
C1113 C 0.65828 0.72668 0.67316 0.0
C1114 C 0.65724 0.74431 0.67707 0.0
C1115 C 0.66595 0.77215 0.63398 0.0
C1116 C 0.67571 0.78233 0.58711 0.0
C1117 C 0.66671 0.75442 0.62922 0.0
C1118 C 0.6861 0.77455 0.5345 0.0
C1119 C 0.68683 0.75687 0.52899 0.0
H1120 H 0.53401 0.43004 0.77669 0.0
H1121 H 0.54011 0.39793 0.96517 0.0
H1122 H 0.50942 0.39579 0.9784 0.0
H1123 H 0.4809 0.40402 0.94038 0.0
H1124 H 0.47433 0.43686 0.75469 0.0
H1125 H 0.50509 0.43773 0.73638 0.0
C1126 C 0.52859 0.42245 0.82012 0.0
C1127 C 0.53932 0.41417 0.86991 0.0
C1128 C 0.51085 0.4215 0.82827 0.0
C1129 C 0.53213 0.40447 0.92628 0.0
C1130 C 0.51458 0.40325 0.93398 0.0
C1131 C 0.48618 0.41131 0.89566 0.0
C1132 C 0.47536 0.42039 0.84912 0.0
C1133 C 0.50382 0.41188 0.88595 0.0
C1134 C 0.4824 0.42978 0.79142 0.0
C1135 C 0.49999 0.43028 0.78092 0.0
H1136 H 0.97339 0.59866 0.45653 0.0
H1137 H 0.96878 0.57703 0.24126 0.0
H1138 H 0.99968 0.57655 0.22887 0.0
H1139 H 0.02814 0.5812 0.28169 0.0
H1140 H 0.03232 0.60243 0.49804 0.0
H1141 H 1.00155 0.60417 0.5073 0.0
C1142 C 0.97914 0.59395 0.40667 0.0
C1143 C 0.9688 0.58786 0.35001 0.0
C1144 C 0.99688 0.59357 0.4002 0.0
C1145 C 0.97645 0.58179 0.28576 0.0
C1146 C 0.99413 0.58148 0.27868 0.0
C1147 C 0.02229 0.5863 0.3306 0.0
C1148 C 0.03253 0.59161 0.38914 0.0
C1149 C 0.00449 0.58717 0.33589 0.0
C1150 C 0.02476 0.59818 0.45222 0.0
C1151 C 0.00714 0.59919 0.45766 0.0
H1152 H 0.97418 0.4315 0.72929 0.0
H1153 H 0.97083 0.40398 0.5262 0.0
H1154 H 1.00169 0.4028 0.51834 0.0
H1155 H 0.02965 0.41057 0.56623 0.0
H1156 H 0.03325 0.43844 0.76823 0.0
H1157 H 1.00234 0.43846 0.7795 0.0
C1158 C 0.98022 0.42513 0.68368 0.0
C1159 C 0.97022 0.41788 0.62837 0.0
C1160 C 0.99803 0.42463 0.67907 0.0
C1161 C 0.97823 0.40971 0.56947 0.0
C1162 C 0.99589 0.40904 0.56482 0.0
C1163 C 0.02368 0.41658 0.61291 0.0
C1164 C 0.03373 0.42454 0.66614 0.0
C1165 C 0.00592 0.41662 0.61883 0.0
C1166 C 0.02579 0.43225 0.72637 0.0
C1167 C 0.00812 0.43228 0.73285 0.0
H1168 H 0.47474 0.57238 0.21754 0.0
H1169 H 0.47029 0.60594 0.03284 0.0
H1170 H 0.50103 0.60914 0.02842 0.0
H1171 H 0.52924 0.60131 0.07257 0.0
H1172 H 0.53406 0.56752 0.25613 0.0
H1173 H 0.50316 0.56569 0.26601 0.0
C1174 C 0.48051 0.58046 0.17662 0.0
C1175 C 0.47024 0.58881 0.12531 0.0
C1176 C 0.49827 0.58222 0.1742 0.0
C1177 C 0.4779 0.5993 0.0728 0.0
C1178 C 0.49549 0.60115 0.0702 0.0
C1179 C 0.52354 0.59368 0.11527 0.0
C1180 C 0.53393 0.58452 0.16338 0.0
C1181 C 0.5058 0.59253 0.12003 0.0
C1182 C 0.52634 0.57471 0.21841 0.0
C1183 C 0.50867 0.57359 0.22389 0.0
H1184 H 0.16072 0.12857 0.28547 0.0
H1185 H 0.11925 0.16336 0.25187 0.0
H1186 H 0.10213 0.14796 0.34137 0.0
H1187 H 0.09911 0.12465 0.42957 0.0
H1188 H 0.14094 0.09026 0.46353 0.0
H1189 H 0.15778 0.10548 0.37321 0.0
C1190 C 0.14793 0.13278 0.29767 0.0
C1191 C 0.14123 0.14704 0.26223 0.0
C1192 C 0.13825 0.12394 0.34914 0.0
C1193 C 0.12467 0.15239 0.27861 0.0
C1194 C 0.11489 0.1436 0.32968 0.0
C1195 C 0.1119 0.12049 0.41701 0.0
C1196 C 0.11878 0.10636 0.453 0.0
C1197 C 0.12156 0.12936 0.36531 0.0
C1198 C 0.13537 0.10112 0.43652 0.0
C1199 C 0.14501 0.1098 0.38492 0.0
H1200 H 0.13261 0.90693 0.5156 0.0
H1201 H 0.09028 0.87225 0.51666 0.0
H1202 H 0.10457 0.85474 0.60799 0.0
H1203 H 0.1291 0.84947 0.68776 0.0
H1204 H 0.17088 0.88486 0.68861 0.0
H1205 H 0.15677 0.90195 0.59597 0.0
C1206 C 0.12652 0.89551 0.53568 0.0
C1207 C 0.11047 0.89083 0.50942 0.0
C1208 C 0.1347 0.88567 0.58842 0.0
C1209 C 0.10265 0.87609 0.53622 0.0
C1210 C 0.11082 0.86609 0.5883 0.0
C1211 C 0.13511 0.86091 0.66746 0.0
C1212 C 0.151 0.8659 0.69468 0.0
C1213 C 0.12684 0.87078 0.6148 0.0
C1214 C 0.15862 0.88078 0.66845 0.0
C1215 C 0.15058 0.89055 0.61549 0.0
H1216 H 0.41093 0.88402 0.95492 0.0
H1217 H 0.37129 0.92122 0.98211 0.0
H1218 H 0.35388 0.9065 0.89213 0.0
H1219 H 0.34968 0.88284 0.80755 0.0
H1220 H 0.38884 0.84508 0.78237 0.0
H1221 H 0.40668 0.86022 0.86989 0.0
C1222 C 0.39852 0.88893 0.94078 0.0
C1223 C 0.3924 0.90367 0.97491 0.0
C1224 C 0.38847 0.88028 0.88969 0.0
C1225 C 0.37626 0.90986 0.95658 0.0
C1226 C 0.36629 0.90146 0.90519 0.0
C1227 C 0.36213 0.87794 0.82115 0.0
C1228 C 0.36794 0.86289 0.78868 0.0
C1229 C 0.37223 0.88662 0.87175 0.0
C1230 C 0.38408 0.85664 0.80688 0.0
C1231 C 0.39429 0.8653 0.85679 0.0
H1232 H 0.37207 0.09876 0.06023 0.0
H1233 H 0.41091 0.13709 0.04233 0.0
H1234 H 0.39587 0.1548 0.13083 0.0
H1235 H 0.37174 0.15927 0.21391 0.0
H1236 H 0.3332 0.12063 0.2325 0.0
H1237 H 0.34805 0.10319 0.14281 0.0
C1238 C 0.37725 0.11099 0.07571 0.0
C1239 C 0.39257 0.11662 0.04492 0.0
C1240 C 0.36857 0.12106 0.12658 0.0
C1241 C 0.39914 0.13248 0.06545 0.0
C1242 C 0.39054 0.14262 0.11594 0.0
C1243 C 0.36657 0.14706 0.19805 0.0
C1244 C 0.3514 0.14125 0.22964 0.0
C1245 C 0.37525 0.13703 0.14687 0.0
C1246 C 0.34488 0.12538 0.20893 0.0
C1247 C 0.35335 0.11539 0.15771 0.0
H1248 H 0.90648 0.88131 0.54126 0.0
H1249 H 0.86706 0.91845 0.50828 0.0
H1250 H 0.84942 0.90454 0.5999 0.0
H1251 H 0.84531 0.88197 0.6898 0.0
H1252 H 0.88437 0.84437 0.72083 0.0
H1253 H 0.90209 0.85833 0.6294 0.0
C1254 C 0.89403 0.88633 0.55417 0.0
C1255 C 0.88807 0.90087 0.51839 0.0
C1256 C 0.88392 0.87822 0.60648 0.0
C1257 C 0.87189 0.90723 0.53518 0.0
C1258 C 0.86182 0.89932 0.58758 0.0
C1259 C 0.85771 0.87686 0.67657 0.0
C1260 C 0.86358 0.86224 0.71199 0.0
C1261 C 0.86773 0.88483 0.62365 0.0
C1262 C 0.8796 0.85564 0.69412 0.0
C1263 C 0.88973 0.86361 0.64196 0.0
H1264 H 0.87553 0.15775 0.27596 0.0
H1265 H 0.83902 0.1172 0.25601 0.0
H1266 H 0.85408 0.10089 0.34832 0.0
H1267 H 0.87761 0.09802 0.43363 0.0
H1268 H 0.9147 0.13802 0.45257 0.0
H1269 H 0.89939 0.15473 0.36154 0.0
C1270 C 0.87088 0.14535 0.292 0.0
C1271 C 0.85621 0.13867 0.25941 0.0
C1272 C 0.87968 0.13597 0.34472 0.0
C1273 C 0.85033 0.12259 0.2803 0.0
C1274 C 0.85891 0.11326 0.33308 0.0
C1275 C 0.88233 0.11042 0.41799 0.0
C1276 C 0.8972 0.11682 0.44969 0.0
C1277 C 0.87359 0.11982 0.36548 0.0
C1278 C 0.90324 0.13284 0.42874 0.0
C1279 C 0.89451 0.14239 0.3768 0.0
H1280 H 0.65753 0.12075 0.22397 0.0
H1281 H 0.62259 0.16271 0.23847 0.0
H1282 H 0.60401 0.14906 0.14904 0.0
H1283 H 0.59803 0.12529 0.06539 0.0
H1284 H 0.63372 0.08396 0.04936 0.0
H1285 H 0.65168 0.09727 0.14112 0.0
C1286 C 0.64583 0.12689 0.20772 0.0
C1287 C 0.6414 0.14267 0.23764 0.0
C1288 C 0.63536 0.11909 0.1561 0.0
C1289 C 0.62625 0.15054 0.21594 0.0
C1290 C 0.61564 0.14275 0.16495 0.0
C1291 C 0.6097 0.1192 0.08235 0.0
C1292 C 0.61456 0.10369 0.05086 0.0
C1293 C 0.6201 0.12703 0.13451 0.0
C1294 C 0.62975 0.09594 0.07278 0.0
C1295 C 0.64002 0.10352 0.12522 0.0
H1296 H 0.63817 0.87822 0.71224 0.0
H1297 H 0.64285 0.83277 0.84126 0.0
H1298 H 0.62581 0.84566 0.93815 0.0
H1299 H 0.61115 0.87054 0.98895 0.0
H1300 H 0.60623 0.91579 0.85863 0.0
H1301 H 0.62166 0.9022 0.75895 0.0
C1302 C 0.63537 0.87111 0.76143 0.0
C1303 C 0.64187 0.85468 0.77016 0.0
C1304 C 0.62555 0.87856 0.81653 0.0
C1305 C 0.638 0.84549 0.83358 0.0
C1306 C 0.6283 0.85286 0.88897 0.0
C1307 C 0.61332 0.87735 0.93843 0.0
C1308 C 0.60771 0.89417 0.93125 0.0
C1309 C 0.62224 0.86948 0.88146 0.0
C1310 C 0.61047 0.90283 0.86543 0.0
C1311 C 0.61934 0.8951 0.80854 0.0
H1312 H 0.59693 0.62411 0.93917 0.0
H1313 H 0.63236 0.58247 0.94913 0.0
H1314 H 0.65051 0.59638 0.85961 0.0
H1315 H 0.6567 0.62058 0.78084 0.0
H1316 H 0.62161 0.66246 0.7707 0.0
H1317 H 0.60295 0.64827 0.85812 0.0
C1318 C 0.60857 0.61806 0.92131 0.0
C1319 C 0.61331 0.60231 0.95068 0.0
C1320 C 0.61905 0.62619 0.8702 0.0
C1321 C 0.62845 0.59461 0.92735 0.0
C1322 C 0.63885 0.60256 0.87626 0.0
C1323 C 0.64497 0.6266 0.79776 0.0
C1324 C 0.64056 0.64255 0.76966 0.0
C1325 C 0.63435 0.61839 0.84781 0.0
C1326 C 0.62529 0.65019 0.7918 0.0
C1327 C 0.61462 0.64208 0.84168 0.0
H1328 H 0.65508 0.3822 0.23346 0.0
H1329 H 0.62656 0.33615 0.20005 0.0
H1330 H 0.60847 0.35062 0.11151 0.0
H1331 H 0.6018 0.37599 0.03926 0.0
H1332 H 0.6308 0.4218 0.07201 0.0
H1333 H 0.64761 0.4078 0.16587 0.0
C1334 C 0.64487 0.37534 0.20701 0.0
C1335 C 0.64221 0.35813 0.22268 0.0
C1336 C 0.63462 0.38369 0.15619 0.0
C1337 C 0.62887 0.34942 0.18851 0.0
C1338 C 0.61854 0.35767 0.13795 0.0
C1339 C 0.61169 0.38294 0.0675 0.0
C1340 C 0.61513 0.39985 0.04862 0.0
C1341 C 0.62144 0.37475 0.12076 0.0
C1342 C 0.62796 0.40873 0.0855 0.0
C1343 C 0.6376 0.40074 0.13902 0.0
H1344 H 0.90682 0.37891 0.45252 0.0
H1345 H 0.87029 0.41965 0.45578 0.0
H1346 H 0.85354 0.40523 0.36247 0.0
H1347 H 0.84905 0.38088 0.2817 0.0
H1348 H 0.88514 0.33976 0.28042 0.0
H1349 H 0.90235 0.35454 0.37135 0.0
C1350 C 0.89522 0.38465 0.4326 0.0
C1351 C 0.88978 0.4003 0.46085 0.0
C1352 C 0.88559 0.37623 0.37952 0.0
C1353 C 0.87471 0.40758 0.43486 0.0
C1354 C 0.86513 0.39936 0.38155 0.0
C1355 C 0.86071 0.37518 0.30117 0.0
C1356 C 0.86585 0.35928 0.27451 0.0
C1357 C 0.87042 0.38365 0.35376 0.0
C1358 C 0.88093 0.352 0.30032 0.0
C1359 C 0.89077 0.36043 0.35223 0.0
H1360 H 0.84944 0.62267 0.73984 0.0
H1361 H 0.8722 0.67099 0.68915 0.0
H1362 H 0.89042 0.65743 0.598 0.0
H1363 H 0.89968 0.63176 0.53194 0.0
H1364 H 0.87609 0.58374 0.58095 0.0
H1365 H 0.8585 0.59723 0.674 0.0
C1366 C 0.85838 0.63024 0.70882 0.0
C1367 C 0.85948 0.64779 0.72114 0.0
C1368 C 0.86872 0.6224 0.65646 0.0
C1369 C 0.87111 0.65745 0.68053 0.0
C1370 C 0.88155 0.6497 0.62854 0.0
C1371 C 0.89076 0.62427 0.5634 0.0
C1372 C 0.88919 0.6068 0.54984 0.0
C1373 C 0.88046 0.63218 0.61604 0.0
C1374 C 0.87748 0.59723 0.59036 0.0
C1375 C 0.86742 0.60493 0.64352 0.0
H1376 H 0.38109 0.35171 0.23571 0.0
H1377 H 0.33575 0.38133 0.20237 0.0
H1378 H 0.3501 0.39786 0.10827 0.0
H1379 H 0.37551 0.40412 0.03673 0.0
H1380 H 0.42122 0.37518 0.07138 0.0
H1381 H 0.40674 0.35814 0.16398 0.0
C1382 C 0.37436 0.36175 0.20763 0.0
C1383 C 0.35741 0.36531 0.22581 0.0
C1384 C 0.38275 0.37133 0.15411 0.0
C1385 C 0.34884 0.3784 0.18942 0.0
C1386 C 0.35702 0.38784 0.1356 0.0
C1387 C 0.38231 0.39407 0.06446 0.0
C1388 C 0.39938 0.39088 0.0473 0.0
C1389 C 0.37397 0.38446 0.11775 0.0
C1390 C 0.40805 0.37786 0.08376 0.0
C1391 C 0.39978 0.36812 0.13661 0.0
H1392 H 0.40593 0.62725 0.9482 0.0
H1393 H 0.36685 0.58956 0.97844 0.0
H1394 H 0.3492 0.60358 0.88757 0.0
H1395 H 0.34497 0.62629 0.79891 0.0
H1396 H 0.38355 0.66452 0.77017 0.0
H1397 H 0.40133 0.65054 0.86129 0.0
C1398 C 0.39355 0.62214 0.93485 0.0
C1399 C 0.38771 0.6074 0.96966 0.0
C1400 C 0.3834 0.63033 0.88293 0.0
C1401 C 0.37161 0.60093 0.95232 0.0
C1402 C 0.36152 0.6089 0.90034 0.0
C1403 C 0.35728 0.63156 0.81257 0.0
C1404 C 0.363 0.64634 0.77783 0.0
C1405 C 0.36731 0.62357 0.8652 0.0
C1406 C 0.37889 0.65312 0.79635 0.0
C1407 C 0.38906 0.64514 0.8483 0.0
H1408 H 0.13104 0.65981 0.70463 0.0
H1409 H 0.16276 0.61718 0.76058 0.0
H1410 H 0.14789 0.59949 0.67229 0.0
H1411 H 0.12613 0.59614 0.57859 0.0
H1412 H 0.09401 0.63846 0.52293 0.0
H1413 H 0.10876 0.65626 0.61188 0.0
C1414 C 0.13467 0.64665 0.69741 0.0
C1415 C 0.14798 0.63982 0.73883 0.0
C1416 C 0.12601 0.6365 0.64673 0.0
C1417 C 0.15253 0.62273 0.72929 0.0
C1418 C 0.14405 0.6126 0.67881 0.0
C1419 C 0.12234 0.60926 0.58599 0.0
C1420 C 0.10906 0.61601 0.54429 0.0
C1421 C 0.13081 0.61936 0.63718 0.0
C1422 C 0.10423 0.63299 0.55455 0.0
C1423 C 0.11266 0.64317 0.60528 0.0
H1424 H 0.16028 0.38462 0.31752 0.0
H1425 H 0.12367 0.34428 0.29569 0.0
H1426 H 0.10489 0.35854 0.38256 0.0
H1427 H 0.09884 0.38265 0.46431 0.0
H1428 H 0.1359 0.42258 0.48703 0.0
H1429 H 0.15448 0.40836 0.39988 0.0
C1430 C 0.14822 0.37892 0.33194 0.0
C1431 C 0.14337 0.36344 0.30031 0.0
C1432 C 0.13752 0.38717 0.38177 0.0
C1433 C 0.1277 0.35619 0.31951 0.0
C1434 C 0.11694 0.36435 0.36899 0.0
C1435 C 0.11095 0.38824 0.44984 0.0
C1436 C 0.11597 0.40366 0.48178 0.0
C1437 C 0.12169 0.37989 0.40026 0.0
C1438 C 0.13175 0.41072 0.46312 0.0
C1439 C 0.1424 0.4026 0.41336 0.0
loop_
_geom_bond_atom_site_label_1
_geom_bond_atom_site_label_2
_geom_bond_distance
_geom_bond_site_symmetry_2
_ccdc_geom_bond_type
In0 O1 2.294 . S
In0 O2 2.326 . S
In0 O6 2.266 . S
In0 O7 2.326 . S
In0 O8 2.266 . S
In0 O9 2.326 . S
In0 O11 2.294 . S
In0 O12 2.326 . S
O1 In0 2.294 . S
O1 C10 1.240 . S
O2 In0 2.326 . S
O2 C10 1.252 . S
C3 O6 1.252 . S
C3 O7 1.260 . S
C4 O11 1.240 . S
C4 O12 1.252 . S
C5 O8 1.252 . S
C5 O9 1.260 . S
O6 In0 2.266 . S
O6 C3 1.252 . S
O7 In0 2.326 . S
O7 C3 1.260 . S
O8 In0 2.266 . S
O8 C5 1.252 . S
O9 In0 2.326 . S
O9 C5 1.260 . S
C10 O1 1.240 . S
C10 O2 1.252 . S
O11 In0 2.294 . S
O11 C4 1.240 . S
O12 In0 2.326 . S
O12 C4 1.252 . S
In13 O14 2.294 . S
In13 O15 2.326 . S
In13 O19 2.266 . S
In13 O20 2.326 . S
In13 O21 2.266 . S
In13 O22 2.326 . S
In13 O24 2.294 . S
In13 O25 2.326 . S
O14 In13 2.294 . S
O14 C23 1.240 . S
O15 In13 2.326 . S
O15 C23 1.252 . S
C16 O19 1.252 . S
C16 O20 1.260 . S
C17 O24 1.240 . S
C17 O25 1.252 . S
C18 O21 1.252 . S
C18 O22 1.260 . S
O19 In13 2.266 . S
O19 C16 1.252 . S
O20 In13 2.326 . S
O20 C16 1.260 . S
O21 In13 2.266 . S
O21 C18 1.252 . S
O22 In13 2.326 . S
O22 C18 1.260 . S
C23 O14 1.240 . S
C23 O15 1.252 . S
O24 In13 2.294 . S
O24 C17 1.240 . S
O25 In13 2.326 . S
O25 C17 1.252 . S
In26 O27 2.294 . S
In26 O28 2.326 . S
In26 O32 2.266 . S
In26 O33 2.326 . S
In26 O34 2.266 . S
In26 O35 2.326 . S
In26 O37 2.294 . S
In26 O38 2.326 . S
O27 In26 2.294 . S
O27 C36 1.240 . S
O28 In26 2.326 . S
O28 C36 1.252 . S
C29 O32 1.252 . S
C29 O33 1.260 . S
C30 O37 1.240 . S
C30 O38 1.252 . S
C31 O34 1.252 . S
C31 O35 1.260 . S
O32 In26 2.266 . S
O32 C29 1.252 . S
O33 In26 2.326 . S
O33 C29 1.260 . S
O34 In26 2.266 . S
O34 C31 1.252 . S
O35 In26 2.326 . S
O35 C31 1.260 . S
C36 O27 1.240 . S
C36 O28 1.252 . S
O37 In26 2.294 . S
O37 C30 1.240 . S
O38 In26 2.326 . S
O38 C30 1.252 . S
In39 O40 2.294 . S
In39 O41 2.326 . S
In39 O45 2.266 . S
In39 O46 2.326 . S
In39 O47 2.266 . S
In39 O48 2.326 . S
In39 O50 2.294 . S
In39 O51 2.326 . S
O40 In39 2.294 . S
O40 C49 1.240 . S
O41 In39 2.326 . S
O41 C49 1.252 . S
C42 O45 1.252 . S
C42 O46 1.260 . S
C43 O50 1.240 . S
C43 O51 1.252 . S
C44 O47 1.252 . S
C44 O48 1.260 . S
O45 In39 2.266 . S
O45 C42 1.252 . S
O46 In39 2.326 . S
O46 C42 1.260 . S
O47 In39 2.266 . S
O47 C44 1.252 . S
O48 In39 2.326 . S
O48 C44 1.260 . S
C49 O40 1.240 . S
C49 O41 1.252 . S
O50 In39 2.294 . S
O50 C43 1.240 . S
O51 In39 2.326 . S
O51 C43 1.252 . S
In52 O53 2.294 . S
In52 O54 2.326 . S
In52 O58 2.266 . S
In52 O59 2.326 . S
In52 O60 2.266 . S
In52 O61 2.326 . S
In52 O63 2.294 . S
In52 O64 2.326 . S
O53 In52 2.294 . S
O53 C62 1.240 . S
O54 In52 2.326 . S
O54 C62 1.252 . S
C55 O58 1.252 . S
C55 O59 1.260 . S
C56 O63 1.240 . S
C56 O64 1.252 . S
C57 O60 1.252 . S
C57 O61 1.260 . S
O58 In52 2.266 . S
O58 C55 1.252 . S
O59 In52 2.326 . S
O59 C55 1.260 . S
O60 In52 2.266 . S
O60 C57 1.252 . S
O61 In52 2.326 . S
O61 C57 1.260 . S
C62 O53 1.240 . S
C62 O54 1.252 . S
O63 In52 2.294 . S
O63 C56 1.240 . S
O64 In52 2.326 . S
O64 C56 1.252 . S
In65 O66 2.294 . S
In65 O67 2.326 . S
In65 O71 2.266 . S
In65 O72 2.326 . S
In65 O73 2.266 . S
In65 O74 2.326 . S
In65 O76 2.294 . S
In65 O77 2.326 . S
O66 In65 2.294 . S
O66 C75 1.240 . S
O67 In65 2.326 . S
O67 C75 1.252 . S
C68 O71 1.252 . S
C68 O72 1.260 . S
C69 O76 1.240 . S
C69 O77 1.252 . S
C70 O73 1.252 . S
C70 O74 1.260 . S
O71 In65 2.266 . S
O71 C68 1.252 . S
O72 In65 2.326 . S
O72 C68 1.260 . S
O73 In65 2.266 . S
O73 C70 1.252 . S
O74 In65 2.326 . S
O74 C70 1.260 . S
C75 O66 1.240 . S
C75 O67 1.252 . S
O76 In65 2.294 . S
O76 C69 1.240 . S
O77 In65 2.326 . S
O77 C69 1.252 . S
In78 O79 2.294 . S
In78 O80 2.326 . S
In78 O84 2.266 . S
In78 O85 2.326 . S
In78 O86 2.266 . S
In78 O87 2.326 . S
In78 O89 2.294 . S
In78 O90 2.326 . S
O79 In78 2.294 . S
O79 C88 1.240 . S
O80 In78 2.326 . S
O80 C88 1.252 . S
C81 O84 1.252 . S
C81 O85 1.260 . S
C82 O89 1.240 . S
C82 O90 1.252 . S
C83 O86 1.252 . S
C83 O87 1.260 . S
O84 In78 2.266 . S
O84 C81 1.252 . S
O85 In78 2.326 . S
O85 C81 1.260 . S
O86 In78 2.266 . S
O86 C83 1.252 . S
O87 In78 2.326 . S
O87 C83 1.260 . S
C88 O79 1.240 . S
C88 O80 1.252 . S
O89 In78 2.294 . S
O89 C82 1.240 . S
O90 In78 2.326 . S
O90 C82 1.252 . S
In91 O92 2.294 . S
In91 O93 2.326 . S
In91 O97 2.266 . S
In91 O98 2.326 . S
In91 O99 2.266 . S
In91 O100 2.326 . S
In91 O102 2.294 . S
In91 O103 2.326 . S
O92 In91 2.294 . S
O92 C101 1.240 . S
O93 In91 2.326 . S
O93 C101 1.252 . S
C94 O97 1.252 . S
C94 O98 1.260 . S
C95 O102 1.240 . S
C95 O103 1.252 . S
C96 O99 1.252 . S
C96 O100 1.260 . S
O97 In91 2.266 . S
O97 C94 1.252 . S
O98 In91 2.326 . S
O98 C94 1.260 . S
O99 In91 2.266 . S
O99 C96 1.252 . S
O100 In91 2.326 . S
O100 C96 1.260 . S
C101 O92 1.240 . S
C101 O93 1.252 . S
O102 In91 2.294 . S
O102 C95 1.240 . S
O103 In91 2.326 . S
O103 C95 1.252 . S
In104 O105 2.294 . S
In104 O106 2.326 . S
In104 O110 2.266 . S
In104 O111 2.326 . S
In104 O112 2.266 . S
In104 O113 2.326 . S
In104 O115 2.294 . S
In104 O116 2.326 . S
O105 In104 2.294 . S
O105 C114 1.240 . S
O106 In104 2.326 . S
O106 C114 1.252 . S
C107 O110 1.252 . S
C107 O111 1.260 . S
C108 O115 1.240 . S
C108 O116 1.252 . S
C109 O112 1.252 . S
C109 O113 1.260 . S
O110 In104 2.266 . S
O110 C107 1.252 . S
O111 In104 2.326 . S
O111 C107 1.260 . S
O112 In104 2.266 . S
O112 C109 1.252 . S
O113 In104 2.326 . S
O113 C109 1.260 . S
C114 O105 1.240 . S
C114 O106 1.252 . S
O115 In104 2.294 . S
O115 C108 1.240 . S
O116 In104 2.326 . S
O116 C108 1.252 . S
In117 O118 2.294 . S
In117 O119 2.326 . S
In117 O123 2.266 . S
In117 O124 2.326 . S
In117 O125 2.266 . S
In117 O126 2.326 . S
In117 O128 2.294 . S
In117 O129 2.326 . S
O118 In117 2.294 . S
O118 C127 1.240 . S
O119 In117 2.326 . S
O119 C127 1.252 . S
C120 O123 1.252 . S
C120 O124 1.260 . S
C121 O128 1.240 . S
C121 O129 1.252 . S
C122 O125 1.252 . S
C122 O126 1.260 . S
O123 In117 2.266 . S
O123 C120 1.252 . S
O124 In117 2.326 . S
O124 C120 1.260 . S
O125 In117 2.266 . S
O125 C122 1.252 . S
O126 In117 2.326 . S
O126 C122 1.260 . S
C127 O118 1.240 . S
C127 O119 1.252 . S
O128 In117 2.294 . S
O128 C121 1.240 . S
O129 In117 2.326 . S
O129 C121 1.252 . S
In130 O131 2.294 . S
In130 O132 2.326 . S
In130 O136 2.266 . S
In130 O137 2.326 . S
In130 O138 2.266 . S
In130 O139 2.326 . S
In130 O141 2.294 . S
In130 O142 2.326 . S
O131 In130 2.294 . S
O131 C140 1.240 . S
O132 In130 2.326 . S
O132 C140 1.252 . S
C133 O136 1.252 . S
C133 O137 1.260 . S
C134 O141 1.240 . S
C134 O142 1.252 . S
C135 O138 1.252 . S
C135 O139 1.260 . S
O136 In130 2.266 . S
O136 C133 1.252 . S
O137 In130 2.326 . S
O137 C133 1.260 . S
O138 In130 2.266 . S
O138 C135 1.252 . S
O139 In130 2.326 . S
O139 C135 1.260 . S
C140 O131 1.240 . S
C140 O132 1.252 . S
O141 In130 2.294 . S
O141 C134 1.240 . S
O142 In130 2.326 . S
O142 C134 1.252 . S
In143 O144 2.294 . S
In143 O145 2.326 . S
In143 O149 2.266 . S
In143 O150 2.326 . S
In143 O151 2.266 . S
In143 O152 2.326 . S
In143 O154 2.294 . S
In143 O155 2.326 . S
O144 In143 2.294 . S
O144 C153 1.240 . S
O145 In143 2.326 . S
O145 C153 1.252 . S
C146 O149 1.252 . S
C146 O150 1.260 . S
C147 O154 1.240 . S
C147 O155 1.252 . S
C148 O151 1.252 . S
C148 O152 1.260 . S
O149 In143 2.266 . S
O149 C146 1.252 . S
O150 In143 2.326 . S
O150 C146 1.260 . S
O151 In143 2.266 . S
O151 C148 1.252 . S
O152 In143 2.326 . S
O152 C148 1.260 . S
C153 O144 1.240 . S
C153 O145 1.252 . S
O154 In143 2.294 . S
O154 C147 1.240 . S
O155 In143 2.326 . S
O155 C147 1.252 . S
In156 O157 2.294 . S
In156 O158 2.326 . S
In156 O162 2.266 . S
In156 O163 2.326 . S
In156 O164 2.266 . S
In156 O165 2.326 . S
In156 O167 2.294 . S
In156 O168 2.326 . S
O157 In156 2.294 . S
O157 C166 1.240 . S
O158 In156 2.326 . S
O158 C166 1.252 . S
C159 O162 1.252 . S
C159 O163 1.260 . S
C160 O167 1.240 . S
C160 O168 1.252 . S
C161 O164 1.252 . S
C161 O165 1.260 . S
O162 In156 2.266 . S
O162 C159 1.252 . S
O163 In156 2.326 . S
O163 C159 1.260 . S
O164 In156 2.266 . S
O164 C161 1.252 . S
O165 In156 2.326 . S
O165 C161 1.260 . S
C166 O157 1.240 . S
C166 O158 1.252 . S
O167 In156 2.294 . S
O167 C160 1.240 . S
O168 In156 2.326 . S
O168 C160 1.252 . S
In169 O170 2.294 . S
In169 O171 2.326 . S
In169 O175 2.266 . S
In169 O176 2.326 . S
In169 O177 2.266 . S
In169 O178 2.326 . S
In169 O180 2.294 . S
In169 O181 2.326 . S
O170 In169 2.294 . S
O170 C179 1.240 . S
O171 In169 2.326 . S
O171 C179 1.252 . S
C172 O175 1.252 . S
C172 O176 1.260 . S
C173 O180 1.240 . S
C173 O181 1.252 . S
C174 O177 1.252 . S
C174 O178 1.260 . S
O175 In169 2.266 . S
O175 C172 1.252 . S
O176 In169 2.326 . S
O176 C172 1.260 . S
O177 In169 2.266 . S
O177 C174 1.252 . S
O178 In169 2.326 . S
O178 C174 1.260 . S
C179 O170 1.240 . S
C179 O171 1.252 . S
O180 In169 2.294 . S
O180 C173 1.240 . S
O181 In169 2.326 . S
O181 C173 1.252 . S
In182 O183 2.294 . S
In182 O184 2.326 . S
In182 O188 2.266 . S
In182 O189 2.326 . S
In182 O190 2.266 . S
In182 O191 2.326 . S
In182 O193 2.294 . S
In182 O194 2.326 . S
O183 In182 2.294 . S
O183 C192 1.240 . S
O184 In182 2.326 . S
O184 C192 1.252 . S
C185 O188 1.252 . S
C185 O189 1.260 . S
C186 O193 1.240 . S
C186 O194 1.252 . S
C187 O190 1.252 . S
C187 O191 1.260 . S
O188 In182 2.266 . S
O188 C185 1.252 . S
O189 In182 2.326 . S
O189 C185 1.260 . S
O190 In182 2.266 . S
O190 C187 1.252 . S
O191 In182 2.326 . S
O191 C187 1.260 . S
C192 O183 1.240 . S
C192 O184 1.252 . S
O193 In182 2.294 . S
O193 C186 1.240 . S
O194 In182 2.326 . S
O194 C186 1.252 . S
In195 O196 2.294 . S
In195 O197 2.326 . S
In195 O201 2.266 . S
In195 O202 2.326 . S
In195 O203 2.266 . S
In195 O204 2.326 . S
In195 O206 2.294 . S
In195 O207 2.326 . S
O196 In195 2.294 . S
O196 C205 1.240 . S
O197 In195 2.326 . S
O197 C205 1.252 . S
C198 O201 1.252 . S
C198 O202 1.260 . S
C199 O206 1.240 . S
C199 O207 1.252 . S
C200 O203 1.252 . S
C200 O204 1.260 . S
O201 In195 2.266 . S
O201 C198 1.252 . S
O202 In195 2.326 . S
O202 C198 1.260 . S
O203 In195 2.266 . S
O203 C200 1.252 . S
O204 In195 2.326 . S
O204 C200 1.260 . S
C205 O196 1.240 . S
C205 O197 1.252 . S
O206 In195 2.294 . S
O206 C199 1.240 . S
O207 In195 2.326 . S
O207 C199 1.252 . S
In208 O209 2.294 . S
In208 O210 2.326 . S
In208 O214 2.266 . S
In208 O215 2.326 . S
In208 O216 2.266 . S
In208 O217 2.326 . S
In208 O219 2.294 . S
In208 O220 2.326 . S
O209 In208 2.294 . S
O209 C218 1.240 . S
O210 In208 2.326 . S
O210 C218 1.252 . S
C211 O214 1.252 . S
C211 O215 1.260 . S
C212 O219 1.240 . S
C212 O220 1.252 . S
C213 O216 1.252 . S
C213 O217 1.260 . S
O214 In208 2.266 . S
O214 C211 1.252 . S
O215 In208 2.326 . S
O215 C211 1.260 . S
O216 In208 2.266 . S
O216 C213 1.252 . S
O217 In208 2.326 . S
O217 C213 1.260 . S
C218 O209 1.240 . S
C218 O210 1.252 . S
O219 In208 2.294 . S
O219 C212 1.240 . S
O220 In208 2.326 . S
O220 C212 1.252 . S
In221 O222 2.294 . S
In221 O223 2.326 . S
In221 O227 2.266 . S
In221 O228 2.326 . S
In221 O229 2.266 . S
In221 O230 2.326 . S
In221 O232 2.294 . S
In221 O233 2.326 . S
O222 In221 2.294 . S
O222 C231 1.240 . S
O223 In221 2.326 . S
O223 C231 1.252 . S
C224 O227 1.252 . S
C224 O228 1.260 . S
C225 O232 1.240 . S
C225 O233 1.252 . S
C226 O229 1.252 . S
C226 O230 1.260 . S
O227 In221 2.266 . S
O227 C224 1.252 . S
O228 In221 2.326 . S
O228 C224 1.260 . S
O229 In221 2.266 . S
O229 C226 1.252 . S
O230 In221 2.326 . S
O230 C226 1.260 . S
C231 O222 1.240 . S
C231 O223 1.252 . S
O232 In221 2.294 . S
O232 C225 1.240 . S
O233 In221 2.326 . S
O233 C225 1.252 . S
In234 O235 2.294 . S
In234 O236 2.326 . S
In234 O240 2.266 . S
In234 O241 2.326 . S
In234 O242 2.266 . S
In234 O243 2.326 . S
In234 O245 2.294 . S
In234 O246 2.326 . S
O235 In234 2.294 . S
O235 C244 1.240 . S
O236 In234 2.326 . S
O236 C244 1.252 . S
C237 O240 1.252 . S
C237 O241 1.260 . S
C238 O245 1.240 . S
C238 O246 1.252 . S
C239 O242 1.252 . S
C239 O243 1.260 . S
O240 In234 2.266 . S
O240 C237 1.252 . S
O241 In234 2.326 . S
O241 C237 1.260 . S
O242 In234 2.266 . S
O242 C239 1.252 . S
O243 In234 2.326 . S
O243 C239 1.260 . S
C244 O235 1.240 . S
C244 O236 1.252 . S
O245 In234 2.294 . S
O245 C238 1.240 . S
O246 In234 2.326 . S
O246 C238 1.252 . S
In247 O248 2.294 . S
In247 O249 2.326 . S
In247 O253 2.266 . S
In247 O254 2.326 . S
In247 O255 2.266 . S
In247 O256 2.326 . S
In247 O258 2.294 . S
In247 O259 2.326 . S
O248 In247 2.294 . S
O248 C257 1.240 . S
O249 In247 2.326 . S
O249 C257 1.252 . S
C250 O253 1.252 . S
C250 O254 1.260 . S
C251 O258 1.240 . S
C251 O259 1.252 . S
C252 O255 1.252 . S
C252 O256 1.260 . S
O253 In247 2.266 . S
O253 C250 1.252 . S
O254 In247 2.326 . S
O254 C250 1.260 . S
O255 In247 2.266 . S
O255 C252 1.252 . S
O256 In247 2.326 . S
O256 C252 1.260 . S
C257 O248 1.240 . S
C257 O249 1.252 . S
O258 In247 2.294 . S
O258 C251 1.240 . S
O259 In247 2.326 . S
O259 C251 1.252 . S
In260 O261 2.294 . S
In260 O262 2.326 . S
In260 O266 2.266 . S
In260 O267 2.326 . S
In260 O268 2.266 . S
In260 O269 2.326 . S
In260 O271 2.294 . S
In260 O272 2.326 . S
O261 In260 2.294 . S
O261 C270 1.240 . S
O262 In260 2.326 . S
O262 C270 1.252 . S
C263 O266 1.252 . S
C263 O267 1.260 . S
C264 O271 1.240 . S
C264 O272 1.252 . S
C265 O268 1.252 . S
C265 O269 1.260 . S
O266 In260 2.266 . S
O266 C263 1.252 . S
O267 In260 2.326 . S
O267 C263 1.260 . S
O268 In260 2.266 . S
O268 C265 1.252 . S
O269 In260 2.326 . S
O269 C265 1.260 . S
C270 O261 1.240 . S
C270 O262 1.252 . S
O271 In260 2.294 . S
O271 C264 1.240 . S
O272 In260 2.326 . S
O272 C264 1.252 . S
In273 O274 2.294 . S
In273 O275 2.326 . S
In273 O279 2.266 . S
In273 O280 2.326 . S
In273 O281 2.266 . S
In273 O282 2.326 . S
In273 O284 2.294 . S
In273 O285 2.326 . S
O274 In273 2.294 . S
O274 C283 1.240 . S
O275 In273 2.326 . S
O275 C283 1.252 . S
C276 O279 1.252 . S
C276 O280 1.260 . S
C277 O284 1.240 . S
C277 O285 1.252 . S
C278 O281 1.252 . S
C278 O282 1.260 . S
O279 In273 2.266 . S
O279 C276 1.252 . S
O280 In273 2.326 . S
O280 C276 1.260 . S
O281 In273 2.266 . S
O281 C278 1.252 . S
O282 In273 2.326 . S
O282 C278 1.260 . S
C283 O274 1.240 . S
C283 O275 1.252 . S
O284 In273 2.294 . S
O284 C277 1.240 . S
O285 In273 2.326 . S
O285 C277 1.252 . S
In286 O287 2.294 . S
In286 O288 2.326 . S
In286 O292 2.266 . S
In286 O293 2.326 . S
In286 O294 2.266 . S
In286 O295 2.326 . S
In286 O297 2.294 . S
In286 O298 2.326 . S
O287 In286 2.294 . S
O287 C296 1.240 . S
O288 In286 2.326 . S
O288 C296 1.252 . S
C289 O292 1.252 . S
C289 O293 1.260 . S
C290 O297 1.240 . S
C290 O298 1.252 . S
C291 O294 1.252 . S
C291 O295 1.260 . S
O292 In286 2.266 . S
O292 C289 1.252 . S
O293 In286 2.326 . S
O293 C289 1.260 . S
O294 In286 2.266 . S
O294 C291 1.252 . S
O295 In286 2.326 . S
O295 C291 1.260 . S
C296 O287 1.240 . S
C296 O288 1.252 . S
O297 In286 2.294 . S
O297 C290 1.240 . S
O298 In286 2.326 . S
O298 C290 1.252 . S
In299 O300 2.294 . S
In299 O301 2.326 . S
In299 O305 2.266 . S
In299 O306 2.326 . S
In299 O307 2.266 . S
In299 O308 2.326 . S
In299 O310 2.294 . S
In299 O311 2.326 . S
O300 In299 2.294 . S
O300 C309 1.240 . S
O301 In299 2.326 . S
O301 C309 1.252 . S
C302 O305 1.252 . S
C302 O306 1.260 . S
C303 O310 1.240 . S
C303 O311 1.252 . S
C304 O307 1.252 . S
C304 O308 1.260 . S
O305 In299 2.266 . S
O305 C302 1.252 . S
O306 In299 2.326 . S
O306 C302 1.260 . S
O307 In299 2.266 . S
O307 C304 1.252 . S
O308 In299 2.326 . S
O308 C304 1.260 . S
C309 O300 1.240 . S
C309 O301 1.252 . S
O310 In299 2.294 . S
O310 C303 1.240 . S
O311 In299 2.326 . S
O311 C303 1.252 . S
In312 O313 2.294 . S
In312 O314 2.326 . S
In312 O318 2.266 . S
In312 O319 2.326 . S
In312 O320 2.266 . S
In312 O321 2.326 . S
In312 O323 2.294 . S
In312 O324 2.326 . S
O313 In312 2.294 . S
O313 C322 1.240 . S
O314 In312 2.326 . S
O314 C322 1.252 . S
C315 O318 1.252 . S
C315 O319 1.260 . S
C316 O323 1.240 . S
C316 O324 1.252 . S
C317 O320 1.252 . S
C317 O321 1.260 . S
O318 In312 2.266 . S
O318 C315 1.252 . S
O319 In312 2.326 . S
O319 C315 1.260 . S
O320 In312 2.266 . S
O320 C317 1.252 . S
O321 In312 2.326 . S
O321 C317 1.260 . S
C322 O313 1.240 . S
C322 O314 1.252 . S
O323 In312 2.294 . S
O323 C316 1.240 . S
O324 In312 2.326 . S
O324 C316 1.252 . S
In325 O326 2.294 . S
In325 O327 2.326 . S
In325 O331 2.266 . S
In325 O332 2.326 . S
In325 O333 2.266 . S
In325 O334 2.326 . S
In325 O336 2.294 . S
In325 O337 2.326 . S
O326 In325 2.294 . S
O326 C335 1.240 . S
O327 In325 2.326 . S
O327 C335 1.252 . S
C328 O331 1.252 . S
C328 O332 1.260 . S
C329 O336 1.240 . S
C329 O337 1.252 . S
C330 O333 1.252 . S
C330 O334 1.260 . S
O331 In325 2.266 . S
O331 C328 1.252 . S
O332 In325 2.326 . S
O332 C328 1.260 . S
O333 In325 2.266 . S
O333 C330 1.252 . S
O334 In325 2.326 . S
O334 C330 1.260 . S
C335 O326 1.240 . S
C335 O327 1.252 . S
O336 In325 2.294 . S
O336 C329 1.240 . S
O337 In325 2.326 . S
O337 C329 1.252 . S
In338 O339 2.294 . S
In338 O340 2.326 . S
In338 O344 2.266 . S
In338 O345 2.326 . S
In338 O346 2.266 . S
In338 O347 2.326 . S
In338 O349 2.294 . S
In338 O350 2.326 . S
O339 In338 2.294 . S
O339 C348 1.240 . S
O340 In338 2.326 . S
O340 C348 1.252 . S
C341 O344 1.252 . S
C341 O345 1.260 . S
C342 O349 1.240 . S
C342 O350 1.252 . S
C343 O346 1.252 . S
C343 O347 1.260 . S
O344 In338 2.266 . S
O344 C341 1.252 . S
O345 In338 2.326 . S
O345 C341 1.260 . S
O346 In338 2.266 . S
O346 C343 1.252 . S
O347 In338 2.326 . S
O347 C343 1.260 . S
C348 O339 1.240 . S
C348 O340 1.252 . S
O349 In338 2.294 . S
O349 C342 1.240 . S
O350 In338 2.326 . S
O350 C342 1.252 . S
In351 O352 2.294 . S
In351 O353 2.326 . S
In351 O357 2.266 . S
In351 O358 2.326 . S
In351 O359 2.266 . S
In351 O360 2.326 . S
In351 O362 2.294 . S
In351 O363 2.326 . S
O352 In351 2.294 . S
O352 C361 1.240 . S
O353 In351 2.326 . S
O353 C361 1.252 . S
C354 O357 1.252 . S
C354 O358 1.260 . S
C355 O362 1.240 . S
C355 O363 1.252 . S
C356 O359 1.252 . S
C356 O360 1.260 . S
O357 In351 2.266 . S
O357 C354 1.252 . S
O358 In351 2.326 . S
O358 C354 1.260 . S
O359 In351 2.266 . S
O359 C356 1.252 . S
O360 In351 2.326 . S
O360 C356 1.260 . S
C361 O352 1.240 . S
C361 O353 1.252 . S
O362 In351 2.294 . S
O362 C355 1.240 . S
O363 In351 2.326 . S
O363 C355 1.252 . S
In364 O365 2.294 . S
In364 O366 2.326 . S
In364 O370 2.266 . S
In364 O371 2.326 . S
In364 O372 2.266 . S
In364 O373 2.326 . S
In364 O375 2.294 . S
In364 O376 2.326 . S
O365 In364 2.294 . S
O365 C374 1.240 . S
O366 In364 2.326 . S
O366 C374 1.252 . S
C367 O370 1.252 . S
C367 O371 1.260 . S
C368 O375 1.240 . S
C368 O376 1.252 . S
C369 O372 1.252 . S
C369 O373 1.260 . S
O370 In364 2.266 . S
O370 C367 1.252 . S
O371 In364 2.326 . S
O371 C367 1.260 . S
O372 In364 2.266 . S
O372 C369 1.252 . S
O373 In364 2.326 . S
O373 C369 1.260 . S
C374 O365 1.240 . S
C374 O366 1.252 . S
O375 In364 2.294 . S
O375 C368 1.240 . S
O376 In364 2.326 . S
O376 C368 1.252 . S
In377 O378 2.294 . S
In377 O379 2.326 . S
In377 O383 2.266 . S
In377 O384 2.326 . S
In377 O385 2.266 . S
In377 O386 2.326 . S
In377 O388 2.294 . S
In377 O389 2.326 . S
O378 In377 2.294 . S
O378 C387 1.240 . S
O379 In377 2.326 . S
O379 C387 1.252 . S
C380 O383 1.252 . S
C380 O384 1.260 . S
C381 O388 1.240 . S
C381 O389 1.252 . S
C382 O385 1.252 . S
C382 O386 1.260 . S
O383 In377 2.266 . S
O383 C380 1.252 . S
O384 In377 2.326 . S
O384 C380 1.260 . S
O385 In377 2.266 . S
O385 C382 1.252 . S
O386 In377 2.326 . S
O386 C382 1.260 . S
C387 O378 1.240 . S
C387 O379 1.252 . S
O388 In377 2.294 . S
O388 C381 1.240 . S
O389 In377 2.326 . S
O389 C381 1.252 . S
In390 O391 2.294 . S
In390 O392 2.326 . S
In390 O396 2.266 . S
In390 O397 2.326 . S
In390 O398 2.266 . S
In390 O399 2.326 . S
In390 O401 2.294 . S
In390 O402 2.326 . S
O391 In390 2.294 . S
O391 C400 1.240 . S
O392 In390 2.326 . S
O392 C400 1.252 . S
C393 O396 1.252 . S
C393 O397 1.260 . S
C394 O401 1.240 . S
C394 O402 1.252 . S
C395 O398 1.252 . S
C395 O399 1.260 . S
O396 In390 2.266 . S
O396 C393 1.252 . S
O397 In390 2.326 . S
O397 C393 1.260 . S
O398 In390 2.266 . S
O398 C395 1.252 . S
O399 In390 2.326 . S
O399 C395 1.260 . S
C400 O391 1.240 . S
C400 O392 1.252 . S
O401 In390 2.294 . S
O401 C394 1.240 . S
O402 In390 2.326 . S
O402 C394 1.252 . S
In403 O404 2.294 . S
In403 O405 2.326 . S
In403 O409 2.266 . S
In403 O410 2.326 . S
In403 O411 2.266 . S
In403 O412 2.326 . S
In403 O414 2.294 . S
In403 O415 2.326 . S
O404 In403 2.294 . S
O404 C413 1.240 . S
O405 In403 2.326 . S
O405 C413 1.252 . S
C406 O409 1.252 . S
C406 O410 1.260 . S
C407 O414 1.240 . S
C407 O415 1.252 . S
C408 O411 1.252 . S
C408 O412 1.260 . S
O409 In403 2.266 . S
O409 C406 1.252 . S
O410 In403 2.326 . S
O410 C406 1.260 . S
O411 In403 2.266 . S
O411 C408 1.252 . S
O412 In403 2.326 . S
O412 C408 1.260 . S
C413 O404 1.240 . S
C413 O405 1.252 . S
O414 In403 2.294 . S
O414 C407 1.240 . S
O415 In403 2.326 . S
O415 C407 1.252 . S
H416 C422 0.930 . S
H417 C425 0.930 . S
H418 C426 0.930 . S
H419 C427 0.930 . S
H420 C430 0.930 . S
H421 C431 0.930 . S
C422 H416 0.930 . S
C422 C423 1.355 . S
C422 C424 1.415 . S
C423 C422 1.355 . S
C423 C425 1.419 . S
C424 C422 1.415 . S
C424 C429 1.425 . S
C424 C431 1.409 . S
C425 H417 0.930 . S
C425 C423 1.419 . S
C425 C426 1.362 . S
C426 H418 0.930 . S
C426 C425 1.362 . S
C426 C429 1.409 . S
C427 H419 0.930 . S
C427 C428 1.355 . S
C427 C429 1.415 . S
C428 C427 1.355 . S
C428 C430 1.419 . S
C429 C424 1.425 . S
C429 C426 1.409 . S
C429 C427 1.415 . S
C430 H420 0.930 . S
C430 C428 1.419 . S
C430 C431 1.362 . S
C431 H421 0.930 . S
C431 C424 1.409 . S
C431 C430 1.362 . S
H432 C438 0.930 . S
H433 C441 0.930 . S
H434 C442 0.930 . S
H435 C443 0.930 . S
H436 C446 0.930 . S
H437 C447 0.930 . S
C438 H432 0.930 . S
C438 C439 1.355 . S
C438 C440 1.429 . S
C439 C438 1.355 . S
C439 C441 1.419 . S
C440 C438 1.429 . S
C440 C445 1.425 1_565 S
C440 C447 1.395 1_565 S
C441 H433 0.930 . S
C441 C439 1.419 . S
C441 C442 1.362 . S
C442 H434 0.930 . S
C442 C441 1.362 . S
C442 C445 1.395 1_565 S
C443 H435 0.930 . S
C443 C444 1.355 . S
C443 C445 1.429 . S
C444 C443 1.355 . S
C444 C446 1.419 . S
C445 C440 1.425 1_545 S
C445 C442 1.395 1_545 S
C445 C443 1.429 . S
C446 H436 0.930 . S
C446 C444 1.419 . S
C446 C447 1.362 . S
C447 H437 0.930 . S
C447 C440 1.395 1_545 S
C447 C446 1.362 . S
H448 C454 0.930 . S
H449 C457 0.930 . S
H450 C458 0.930 . S
H451 C459 0.930 . S
H452 C462 0.930 . S
H453 C463 0.930 . S
C454 H448 0.930 . S
C454 C455 1.355 . S
C454 C456 1.415 . S
C455 C454 1.355 . S
C455 C457 1.419 . S
C456 C454 1.415 . S
C456 C461 1.425 . S
C456 C463 1.409 . S
C457 H449 0.930 . S
C457 C455 1.419 . S
C457 C458 1.362 . S
C458 H450 0.930 . S
C458 C457 1.362 . S
C458 C461 1.409 . S
C459 H451 0.930 . S
C459 C460 1.355 . S
C459 C461 1.415 . S
C460 C459 1.355 . S
C460 C462 1.419 . S
C461 C456 1.425 . S
C461 C458 1.409 . S
C461 C459 1.415 . S
C462 H452 0.930 . S
C462 C460 1.419 . S
C462 C463 1.362 . S
C463 H453 0.930 . S
C463 C456 1.409 . S
C463 C462 1.362 . S
H464 C470 0.930 1_554 S
H465 C473 0.930 . S
H466 C474 0.922 1_565 S
H467 C475 0.930 1_556 S
H468 C478 0.930 . S
H469 C479 0.922 1_545 S
C470 H464 0.930 1_556 S
C470 C471 1.355 . S
C470 C472 1.415 1_556 S
C471 C470 1.355 . S
C471 C473 1.419 . S
C472 C470 1.415 1_554 S
C472 C477 1.425 1_544 S
C472 C479 1.409 1_545 S
C473 H465 0.930 . S
C473 C471 1.419 . S
C473 C474 1.362 . S
C474 H466 0.922 1_545 S
C474 C473 1.362 . S
C474 C477 1.409 1_545 S
C475 H467 0.930 1_554 S
C475 C476 1.355 . S
C475 C477 1.415 1_554 S
C476 C475 1.355 . S
C476 C478 1.419 . S
C477 C472 1.425 1_566 S
C477 C474 1.409 1_565 S
C477 C475 1.415 1_556 S
C478 H468 0.930 . S
C478 C476 1.419 . S
C478 C479 1.362 . S
C479 H469 0.922 1_565 S
C479 C472 1.409 1_565 S
C479 C478 1.362 . S
H480 C486 0.930 . S
H481 C489 0.930 . S
H482 C490 0.930 . S
H483 C491 0.930 . S
H484 C494 0.930 . S
H485 C495 0.930 . S
C486 H480 0.930 . S
C486 C487 1.355 . S
C486 C488 1.415 . S
C487 C486 1.355 . S
C487 C489 1.419 . S
C488 C486 1.415 . S
C488 C493 1.425 . S
C488 C495 1.409 . S
C489 H481 0.930 . S
C489 C487 1.419 . S
C489 C490 1.362 . S
C490 H482 0.930 . S
C490 C489 1.362 . S
C490 C493 1.409 . S
C491 H483 0.930 . S
C491 C492 1.355 . S
C491 C493 1.415 . S
C492 C491 1.355 . S
C492 C494 1.419 . S
C493 C488 1.425 . S
C493 C490 1.409 . S
C493 C491 1.415 . S
C494 H484 0.930 . S
C494 C492 1.419 . S
C494 C495 1.362 . S
C495 H485 0.930 . S
C495 C488 1.409 . S
C495 C494 1.362 . S
H496 C502 0.930 . S
H497 C505 0.930 . S
H498 C506 0.930 . S
H499 C507 0.930 . S
H500 C510 0.930 . S
H501 C511 0.930 . S
C502 H496 0.930 . S
C502 C503 1.355 . S
C502 C504 1.415 . S
C503 C502 1.355 . S
C503 C505 1.419 . S
C504 C502 1.415 . S
C504 C509 1.425 1_565 S
C504 C511 1.409 1_565 S
C505 H497 0.930 . S
C505 C503 1.419 . S
C505 C506 1.362 . S
C506 H498 0.930 . S
C506 C505 1.362 . S
C506 C509 1.409 1_565 S
C507 H499 0.930 . S
C507 C508 1.355 . S
C507 C509 1.415 . S
C508 C507 1.355 . S
C508 C510 1.419 . S
C509 C504 1.425 1_545 S
C509 C506 1.409 1_545 S
C509 C507 1.415 . S
C510 H500 0.930 . S
C510 C508 1.419 . S
C510 C511 1.362 . S
C511 H501 0.930 . S
C511 C504 1.409 1_545 S
C511 C510 1.362 . S
H512 C518 0.930 . S
H513 C521 0.930 . S
H514 C522 0.930 . S
H515 C523 0.930 . S
H516 C526 0.930 . S
H517 C527 0.930 . S
C518 H512 0.930 . S
C518 C519 1.355 . S
C518 C520 1.415 . S
C519 C518 1.355 . S
C519 C521 1.419 . S
C520 C518 1.415 . S
C520 C525 1.425 . S
C520 C527 1.409 . S
C521 H513 0.930 . S
C521 C519 1.419 . S
C521 C522 1.362 . S
C522 H514 0.930 . S
C522 C521 1.362 . S
C522 C525 1.409 . S
C523 H515 0.930 . S
C523 C524 1.355 . S
C523 C525 1.415 . S
C524 C523 1.355 . S
C524 C526 1.419 . S
C525 C520 1.425 . S
C525 C522 1.409 . S
C525 C523 1.415 . S
C526 H516 0.930 . S
C526 C524 1.419 . S
C526 C527 1.362 . S
C527 H517 0.930 . S
C527 C520 1.409 . S
C527 C526 1.362 . S
H528 C534 0.930 . S
H529 C537 0.930 . S
H530 C538 0.930 . S
H531 C539 0.930 . S
H532 C542 0.930 . S
H533 C543 0.930 . S
C534 H528 0.930 . S
C534 C535 1.355 . S
C534 C536 1.408 . S
C535 C534 1.355 . S
C535 C537 1.419 1_556 S
C536 C534 1.408 . S
C536 C541 1.425 1_546 S
C536 C543 1.415 1_545 S
C537 H529 0.930 . S
C537 C535 1.419 1_554 S
C537 C538 1.362 . S
C538 H530 0.930 . S
C538 C537 1.362 . S
C538 C541 1.415 1_545 S
C539 H531 0.930 . S
C539 C540 1.355 . S
C539 C541 1.408 . S
C540 C539 1.355 . S
C540 C542 1.419 1_554 S
C541 C536 1.425 1_564 S
C541 C538 1.415 1_565 S
C541 C539 1.408 . S
C542 H532 0.930 . S
C542 C540 1.419 1_556 S
C542 C543 1.362 . S
C543 H533 0.930 . S
C543 C536 1.415 1_565 S
C543 C542 1.362 . S
H544 C550 0.930 . S
H545 C553 0.930 . S
H546 C554 0.930 . S
H547 C555 0.930 . S
H548 C558 0.930 . S
H549 C559 0.930 . S
C550 H544 0.930 . S
C550 C551 1.355 . S
C550 C552 1.415 . S
C551 C550 1.355 . S
C551 C553 1.419 . S
C552 C550 1.415 . S
C552 C557 1.425 . S
C552 C559 1.409 . S
C553 H545 0.930 . S
C553 C551 1.419 . S
C553 C554 1.362 . S
C554 H546 0.930 . S
C554 C553 1.362 . S
C554 C557 1.409 . S
C555 H547 0.930 . S
C555 C556 1.355 . S
C555 C557 1.415 . S
C556 C555 1.355 . S
C556 C558 1.419 . S
C557 C552 1.425 . S
C557 C554 1.409 . S
C557 C555 1.415 . S
C558 H548 0.930 . S
C558 C556 1.419 . S
C558 C559 1.362 . S
C559 H549 0.930 . S
C559 C552 1.409 . S
C559 C558 1.362 . S
H560 C566 0.930 . S
H561 C569 0.930 . S
H562 C570 0.930 . S
H563 C571 0.930 . S
H564 C574 0.930 . S
H565 C575 0.930 . S
C566 H560 0.930 . S
C566 C567 1.355 . S
C566 C568 1.415 . S
C567 C566 1.355 . S
C567 C569 1.419 . S
C568 C566 1.415 . S
C568 C573 1.425 1_556 S
C568 C575 1.409 . S
C569 H561 0.930 . S
C569 C567 1.419 . S
C569 C570 1.362 1_556 S
C570 H562 0.930 . S
C570 C569 1.362 1_554 S
C570 C573 1.409 . S
C571 H563 0.930 . S
C571 C572 1.355 . S
C571 C573 1.415 . S
C572 C571 1.355 . S
C572 C574 1.419 . S
C573 C568 1.425 1_554 S
C573 C570 1.409 . S
C573 C571 1.415 . S
C574 H564 0.930 . S
C574 C572 1.419 . S
C574 C575 1.362 1_554 S
C575 H565 0.930 . S
C575 C568 1.409 . S
C575 C574 1.362 1_556 S
H576 C582 0.930 . S
H577 C585 0.930 . S
H578 C586 0.930 . S
H579 C587 0.930 . S
H580 C590 0.930 . S
H581 C591 0.930 . S
C582 H576 0.930 . S
C582 C583 1.355 . S
C582 C584 1.415 . S
C583 C582 1.355 . S
C583 C585 1.419 . S
C584 C582 1.415 . S
C584 C589 1.425 . S
C584 C591 1.409 . S
C585 H577 0.930 . S
C585 C583 1.419 . S
C585 C586 1.362 . S
C586 H578 0.930 . S
C586 C585 1.362 . S
C586 C589 1.409 . S
C587 H579 0.930 . S
C587 C588 1.355 . S
C587 C589 1.415 . S
C588 C587 1.355 . S
C588 C590 1.419 . S
C589 C584 1.425 . S
C589 C586 1.409 . S
C589 C587 1.415 . S
C590 H580 0.930 . S
C590 C588 1.419 . S
C590 C591 1.362 . S
C591 H581 0.930 . S
C591 C584 1.409 . S
C591 C590 1.362 . S
H592 C598 0.930 . S
H593 C601 0.930 . S
H594 C602 0.930 . S
H595 C603 0.930 . S
H596 C606 0.930 . S
H597 C607 0.930 . S
C598 H592 0.930 . S
C598 C599 1.355 . S
C598 C600 1.415 . S
C599 C598 1.355 . S
C599 C601 1.419 . S
C600 C598 1.415 . S
C600 C605 1.425 . S
C600 C607 1.409 . S
C601 H593 0.930 . S
C601 C599 1.419 . S
C601 C602 1.362 . S
C602 H594 0.930 . S
C602 C601 1.362 . S
C602 C605 1.409 . S
C603 H595 0.930 . S
C603 C604 1.355 . S
C603 C605 1.415 . S
C604 C603 1.355 . S
C604 C606 1.419 . S
C605 C600 1.425 . S
C605 C602 1.409 . S
C605 C603 1.415 . S
C606 H596 0.930 . S
C606 C604 1.419 . S
C606 C607 1.362 . S
C607 H597 0.930 . S
C607 C600 1.409 . S
C607 C606 1.362 . S
H608 C614 0.930 . S
H609 C617 0.930 . S
H610 C618 0.930 . S
H611 C619 0.930 . S
H612 C622 0.930 . S
H613 C623 0.930 . S
C614 H608 0.930 . S
C614 C615 1.355 . S
C614 C616 1.415 . S
C615 C614 1.355 . S
C615 C617 1.419 . S
C616 C614 1.415 . S
C616 C621 1.425 . S
C616 C623 1.409 . S
C617 H609 0.930 . S
C617 C615 1.419 . S
C617 C618 1.362 . S
C618 H610 0.930 . S
C618 C617 1.362 . S
C618 C621 1.409 . S
C619 H611 0.930 . S
C619 C620 1.355 . S
C619 C621 1.415 . S
C620 C619 1.355 . S
C620 C622 1.419 . S
C621 C616 1.425 . S
C621 C618 1.409 . S
C621 C619 1.415 . S
C622 H612 0.930 . S
C622 C620 1.419 . S
C622 C623 1.362 . S
C623 H613 0.930 . S
C623 C616 1.409 . S
C623 C622 1.362 . S
H624 C630 0.930 . S
H625 C633 0.930 . S
H626 C634 0.930 . S
H627 C635 0.930 . S
H628 C638 0.930 . S
H629 C639 0.930 . S
C630 H624 0.930 . S
C630 C631 1.355 . S
C630 C632 1.415 . S
C631 C630 1.355 . S
C631 C633 1.419 1_554 S
C632 C630 1.415 . S
C632 C637 1.425 1_554 S
C632 C639 1.409 . S
C633 H625 0.930 . S
C633 C631 1.419 1_556 S
C633 C634 1.362 . S
C634 H626 0.930 . S
C634 C633 1.362 . S
C634 C637 1.409 . S
C635 H627 0.930 . S
C635 C636 1.355 . S
C635 C637 1.415 . S
C636 C635 1.355 . S
C636 C638 1.419 1_556 S
C637 C632 1.425 1_556 S
C637 C634 1.409 . S
C637 C635 1.415 . S
C638 H628 0.930 . S
C638 C636 1.419 1_554 S
C638 C639 1.362 . S
C639 H629 0.930 . S
C639 C632 1.409 . S
C639 C638 1.362 . S
H640 C646 0.930 . S
H641 C649 0.930 . S
H642 C650 0.930 . S
H643 C651 0.930 . S
H644 C654 0.930 . S
H645 C655 0.930 . S
C646 H640 0.930 . S
C646 C647 1.355 . S
C646 C648 1.415 . S
C647 C646 1.355 . S
C647 C649 1.419 . S
C648 C646 1.415 . S
C648 C653 1.425 . S
C648 C655 1.409 . S
C649 H641 0.930 . S
C649 C647 1.419 . S
C649 C650 1.362 . S
C650 H642 0.930 . S
C650 C649 1.362 . S
C650 C653 1.409 . S
C651 H643 0.930 . S
C651 C652 1.355 . S
C651 C653 1.415 . S
C652 C651 1.355 . S
C652 C654 1.419 . S
C653 C648 1.425 . S
C653 C650 1.409 . S
C653 C651 1.415 . S
C654 H644 0.930 . S
C654 C652 1.419 . S
C654 C655 1.362 . S
C655 H645 0.930 . S
C655 C648 1.409 . S
C655 C654 1.362 . S
H656 C662 0.930 . S
H657 C665 0.930 . S
H658 C666 0.930 . S
H659 C667 0.930 . S
H660 C670 0.930 . S
H661 C671 0.930 . S
C662 H656 0.930 . S
C662 C663 1.355 . S
C662 C664 1.415 . S
C663 C662 1.355 . S
C663 C665 1.419 . S
C664 C662 1.415 . S
C664 C669 1.425 . S
C664 C671 1.409 . S
C665 H657 0.930 . S
C665 C663 1.419 . S
C665 C666 1.362 . S
C666 H658 0.930 . S
C666 C665 1.362 . S
C666 C669 1.409 . S
C667 H659 0.930 . S
C667 C668 1.355 . S
C667 C669 1.415 . S
C668 C667 1.355 . S
C668 C670 1.419 . S
C669 C664 1.425 . S
C669 C666 1.409 . S
C669 C667 1.415 . S
C670 H660 0.930 . S
C670 C668 1.419 . S
C670 C671 1.362 . S
C671 H661 0.930 . S
C671 C664 1.409 . S
C671 C670 1.362 . S
H672 C678 0.930 . S
H673 C681 0.930 . S
H674 C682 0.930 . S
H675 C683 0.930 . S
H676 C686 0.930 . S
H677 C687 0.930 . S
C678 H672 0.930 . S
C678 C679 1.355 . S
C678 C680 1.415 . S
C679 C678 1.355 . S
C679 C681 1.419 . S
C680 C678 1.415 . S
C680 C685 1.425 . S
C680 C687 1.409 . S
C681 H673 0.930 . S
C681 C679 1.419 . S
C681 C682 1.362 . S
C682 H674 0.930 . S
C682 C681 1.362 . S
C682 C685 1.409 . S
C683 H675 0.930 . S
C683 C684 1.355 . S
C683 C685 1.415 . S
C684 C683 1.355 . S
C684 C686 1.419 . S
C685 C680 1.425 . S
C685 C682 1.409 . S
C685 C683 1.415 . S
C686 H676 0.930 . S
C686 C684 1.419 . S
C686 C687 1.362 . S
C687 H677 0.930 . S
C687 C680 1.409 . S
C687 C686 1.362 . S
H688 C694 0.930 1_556 S
H689 C697 0.930 . S
H690 C698 0.930 . S
H691 C699 0.930 . S
H692 C702 0.930 . S
H693 C703 0.930 . S
C694 H688 0.930 1_554 S
C694 C695 1.355 . S
C694 C696 1.415 . S
C695 C694 1.355 . S
C695 C697 1.419 . S
C696 C694 1.415 . S
C696 C701 1.425 . S
C696 C703 1.409 . S
C697 H689 0.930 . S
C697 C695 1.419 . S
C697 C698 1.362 . S
C698 H690 0.930 . S
C698 C697 1.362 . S
C698 C701 1.409 . S
C699 H691 0.930 . S
C699 C700 1.355 . S
C699 C701 1.415 . S
C700 C699 1.355 . S
C700 C702 1.419 . S
C701 C696 1.425 . S
C701 C698 1.409 . S
C701 C699 1.415 . S
C702 H692 0.930 . S
C702 C700 1.419 . S
C702 C703 1.362 . S
C703 H693 0.930 . S
C703 C696 1.409 . S
C703 C702 1.362 . S
H704 C710 0.930 . S
H705 C713 0.930 . S
H706 C714 0.930 . S
H707 C715 0.930 . S
H708 C718 0.930 . S
H709 C719 0.930 . S
C710 H704 0.930 . S
C710 C711 1.355 . S
C710 C712 1.415 . S
C711 C710 1.355 . S
C711 C713 1.419 . S
C712 C710 1.415 . S
C712 C717 1.425 . S
C712 C719 1.409 . S
C713 H705 0.930 . S
C713 C711 1.419 . S
C713 C714 1.362 . S
C714 H706 0.930 . S
C714 C713 1.362 . S
C714 C717 1.409 . S
C715 H707 0.930 . S
C715 C716 1.355 . S
C715 C717 1.415 . S
C716 C715 1.355 . S
C716 C718 1.419 . S
C717 C712 1.425 . S
C717 C714 1.409 . S
C717 C715 1.415 . S
C718 H708 0.930 . S
C718 C716 1.419 . S
C718 C719 1.362 . S
C719 H709 0.930 . S
C719 C712 1.409 . S
C719 C718 1.362 . S
H720 C726 0.930 . S
H721 C729 0.930 . S
H722 C730 0.930 . S
H723 C731 0.930 . S
H724 C734 0.930 . S
H725 C735 0.930 . S
C726 H720 0.930 . S
C726 C727 1.355 . S
C726 C728 1.415 . S
C727 C726 1.355 . S
C727 C729 1.419 . S
C728 C726 1.415 . S
C728 C733 1.425 . S
C728 C735 1.409 . S
C729 H721 0.930 . S
C729 C727 1.419 . S
C729 C730 1.362 . S
C730 H722 0.930 . S
C730 C729 1.362 . S
C730 C733 1.409 . S
C731 H723 0.930 . S
C731 C732 1.355 . S
C731 C733 1.415 . S
C732 C731 1.355 . S
C732 C734 1.419 . S
C733 C728 1.425 . S
C733 C730 1.409 . S
C733 C731 1.415 . S
C734 H724 0.930 . S
C734 C732 1.419 . S
C734 C735 1.362 . S
C735 H725 0.930 . S
C735 C728 1.409 . S
C735 C734 1.362 . S
H736 C742 0.930 . S
H737 C745 0.930 . S
H738 C746 0.930 . S
H739 C747 0.930 . S
H740 C750 0.930 . S
H741 C751 0.930 . S
C742 H736 0.930 . S
C742 C743 1.355 . S
C742 C744 1.415 . S
C743 C742 1.355 . S
C743 C745 1.419 . S
C744 C742 1.415 . S
C744 C749 1.425 . S
C744 C751 1.409 . S
C745 H737 0.930 . S
C745 C743 1.419 . S
C745 C746 1.362 . S
C746 H738 0.930 . S
C746 C745 1.362 . S
C746 C749 1.409 . S
C747 H739 0.930 . S
C747 C748 1.355 . S
C747 C749 1.415 . S
C748 C747 1.355 . S
C748 C750 1.419 . S
C749 C744 1.425 . S
C749 C746 1.409 . S
C749 C747 1.415 . S
C750 H740 0.930 . S
C750 C748 1.419 . S
C750 C751 1.362 . S
C751 H741 0.930 . S
C751 C744 1.409 . S
C751 C750 1.362 . S
H752 C758 0.930 . S
H753 C761 0.930 1_554 S
H754 C762 0.930 . S
H755 C763 0.930 . S
H756 C766 0.930 . S
H757 C767 0.930 . S
C758 H752 0.930 . S
C758 C759 1.355 . S
C758 C760 1.415 . S
C759 C758 1.355 . S
C759 C761 1.419 . S
C760 C758 1.415 . S
C760 C765 1.425 . S
C760 C767 1.409 . S
C761 H753 0.930 1_556 S
C761 C759 1.419 . S
C761 C762 1.362 . S
C762 H754 0.930 . S
C762 C761 1.362 . S
C762 C765 1.409 . S
C763 H755 0.930 . S
C763 C764 1.355 . S
C763 C765 1.415 . S
C764 C763 1.355 . S
C764 C766 1.419 . S
C765 C760 1.425 . S
C765 C762 1.409 . S
C765 C763 1.415 . S
C766 H756 0.930 . S
C766 C764 1.419 . S
C766 C767 1.362 . S
C767 H757 0.930 . S
C767 C760 1.409 . S
C767 C766 1.362 . S
H768 C774 0.930 . S
H769 C777 0.930 . S
H770 C778 0.930 . S
H771 C779 0.930 . S
H772 C782 0.930 . S
H773 C783 0.930 . S
C774 H768 0.930 . S
C774 C775 1.355 . S
C774 C776 1.415 . S
C775 C774 1.355 . S
C775 C777 1.419 . S
C776 C774 1.415 . S
C776 C781 1.425 . S
C776 C783 1.409 . S
C777 H769 0.930 . S
C777 C775 1.419 . S
C777 C778 1.362 . S
C778 H770 0.930 . S
C778 C777 1.362 . S
C778 C781 1.409 . S
C779 H771 0.930 . S
C779 C780 1.355 . S
C779 C781 1.415 . S
C780 C779 1.355 . S
C780 C782 1.419 . S
C781 C776 1.425 . S
C781 C778 1.409 . S
C781 C779 1.415 . S
C782 H772 0.930 . S
C782 C780 1.419 . S
C782 C783 1.362 . S
C783 H773 0.930 . S
C783 C776 1.409 . S
C783 C782 1.362 . S
H784 C790 0.930 . S
H785 C793 0.930 . S
H786 C794 0.930 . S
H787 C795 0.930 . S
H788 C798 0.930 . S
H789 C799 0.930 . S
C790 H784 0.930 . S
C790 C791 1.355 . S
C790 C792 1.415 . S
C791 C790 1.355 . S
C791 C793 1.419 . S
C792 C790 1.415 . S
C792 C797 1.425 . S
C792 C799 1.409 . S
C793 H785 0.930 . S
C793 C791 1.419 . S
C793 C794 1.362 . S
C794 H786 0.930 . S
C794 C793 1.362 . S
C794 C797 1.409 . S
C795 H787 0.930 . S
C795 C796 1.355 . S
C795 C797 1.415 . S
C796 C795 1.355 . S
C796 C798 1.419 . S
C797 C792 1.425 . S
C797 C794 1.409 . S
C797 C795 1.415 . S
C798 H788 0.930 . S
C798 C796 1.419 . S
C798 C799 1.362 . S
C799 H789 0.930 . S
C799 C792 1.409 . S
C799 C798 1.362 . S
H800 C806 0.930 . S
H801 C809 0.930 . S
H802 C810 0.930 . S
H803 C811 0.930 . S
H804 C814 0.930 . S
H805 C815 0.930 . S
C806 H800 0.930 . S
C806 C807 1.355 . S
C806 C808 1.415 . S
C807 C806 1.355 . S
C807 C809 1.419 . S
C808 C806 1.415 . S
C808 C813 1.425 . S
C808 C815 1.409 . S
C809 H801 0.930 . S
C809 C807 1.419 . S
C809 C810 1.362 . S
C810 H802 0.930 . S
C810 C809 1.362 . S
C810 C813 1.409 . S
C811 H803 0.930 . S
C811 C812 1.355 . S
C811 C813 1.415 . S
C812 C811 1.355 . S
C812 C814 1.419 . S
C813 C808 1.425 . S
C813 C810 1.409 . S
C813 C811 1.415 . S
C814 H804 0.930 . S
C814 C812 1.419 . S
C814 C815 1.362 . S
C815 H805 0.930 . S
C815 C808 1.409 . S
C815 C814 1.362 . S
H816 C822 0.930 . S
H817 C825 0.930 . S
H818 C826 0.930 . S
H819 C827 0.930 . S
H820 C830 0.930 . S
H821 C831 0.930 . S
C822 H816 0.930 . S
C822 C823 1.355 . S
C822 C824 1.415 . S
C823 C822 1.355 . S
C823 C825 1.419 . S
C824 C822 1.415 . S
C824 C829 1.425 . S
C824 C831 1.409 . S
C825 H817 0.930 . S
C825 C823 1.419 . S
C825 C826 1.362 . S
C826 H818 0.930 . S
C826 C825 1.362 . S
C826 C829 1.409 . S
C827 H819 0.930 . S
C827 C828 1.355 . S
C827 C829 1.415 . S
C828 C827 1.355 . S
C828 C830 1.419 . S
C829 C824 1.425 . S
C829 C826 1.409 . S
C829 C827 1.415 . S
C830 H820 0.930 . S
C830 C828 1.419 . S
C830 C831 1.362 . S
C831 H821 0.930 . S
C831 C824 1.409 . S
C831 C830 1.362 . S
H832 C838 0.930 . S
H833 C841 0.930 . S
H834 C842 0.930 . S
H835 C843 0.930 1_554 S
H836 C846 0.930 . S
H837 C847 0.930 . S
C838 H832 0.930 . S
C838 C839 1.355 . S
C838 C840 1.415 . S
C839 C838 1.355 . S
C839 C841 1.419 . S
C840 C838 1.415 . S
C840 C845 1.425 . S
C840 C847 1.409 . S
C841 H833 0.930 . S
C841 C839 1.419 . S
C841 C842 1.362 . S
C842 H834 0.930 . S
C842 C841 1.362 . S
C842 C845 1.409 . S
C843 H835 0.930 1_556 S
C843 C844 1.355 . S
C843 C845 1.415 . S
C844 C843 1.355 . S
C844 C846 1.419 . S
C845 C840 1.425 . S
C845 C842 1.409 . S
C845 C843 1.415 . S
C846 H836 0.930 . S
C846 C844 1.419 . S
C846 C847 1.362 . S
C847 H837 0.930 . S
C847 C840 1.409 . S
C847 C846 1.362 . S
H848 C854 0.930 . S
H849 C857 0.930 . S
H850 C858 0.930 . S
H851 C859 0.930 . S
H852 C862 0.930 . S
H853 C863 0.930 . S
C854 H848 0.930 . S
C854 C855 1.355 . S
C854 C856 1.415 . S
C855 C854 1.355 . S
C855 C857 1.419 . S
C856 C854 1.415 . S
C856 C861 1.425 . S
C856 C863 1.409 . S
C857 H849 0.930 . S
C857 C855 1.419 . S
C857 C858 1.362 . S
C858 H850 0.930 . S
C858 C857 1.362 . S
C858 C861 1.409 . S
C859 H851 0.930 . S
C859 C860 1.355 . S
C859 C861 1.415 . S
C860 C859 1.355 . S
C860 C862 1.419 . S
C861 C856 1.425 . S
C861 C858 1.409 . S
C861 C859 1.415 . S
C862 H852 0.930 . S
C862 C860 1.419 . S
C862 C863 1.362 . S
C863 H853 0.930 . S
C863 C856 1.409 . S
C863 C862 1.362 . S
H864 C870 0.930 . S
H865 C873 0.930 . S
H866 C874 0.930 . S
H867 C875 0.930 . S
H868 C878 0.930 . S
H869 C879 0.930 . S
C870 H864 0.930 . S
C870 C871 1.355 . S
C870 C872 1.415 . S
C871 C870 1.355 . S
C871 C873 1.419 . S
C872 C870 1.415 . S
C872 C877 1.425 . S
C872 C879 1.409 . S
C873 H865 0.930 . S
C873 C871 1.419 . S
C873 C874 1.362 . S
C874 H866 0.930 . S
C874 C873 1.362 . S
C874 C877 1.409 . S
C875 H867 0.930 . S
C875 C876 1.355 . S
C875 C877 1.415 . S
C876 C875 1.355 . S
C876 C878 1.419 . S
C877 C872 1.425 . S
C877 C874 1.409 . S
C877 C875 1.415 . S
C878 H868 0.930 . S
C878 C876 1.419 . S
C878 C879 1.362 . S
C879 H869 0.930 . S
C879 C872 1.409 . S
C879 C878 1.362 . S
H880 C886 0.930 . S
H881 C889 0.930 . S
H882 C890 0.930 . S
H883 C891 0.930 . S
H884 C894 0.930 . S
H885 C895 0.930 . S
C886 H880 0.930 . S
C886 C887 1.355 . S
C886 C888 1.415 . S
C887 C886 1.355 . S
C887 C889 1.419 . S
C888 C886 1.415 . S
C888 C893 1.425 . S
C888 C895 1.409 . S
C889 H881 0.930 . S
C889 C887 1.419 . S
C889 C890 1.362 . S
C890 H882 0.930 . S
C890 C889 1.362 . S
C890 C893 1.409 . S
C891 H883 0.930 . S
C891 C892 1.355 . S
C891 C893 1.415 . S
C892 C891 1.355 . S
C892 C894 1.419 . S
C893 C888 1.425 . S
C893 C890 1.409 . S
C893 C891 1.415 . S
C894 H884 0.930 . S
C894 C892 1.419 . S
C894 C895 1.362 . S
C895 H885 0.930 . S
C895 C888 1.409 . S
C895 C894 1.362 . S
H896 C902 0.930 . S
H897 C905 0.930 . S
H898 C906 0.930 . S
H899 C907 0.930 . S
H900 C910 0.930 . S
H901 C911 0.930 . S
C902 H896 0.930 . S
C902 C903 1.355 . S
C902 C904 1.415 . S
C903 C902 1.355 . S
C903 C905 1.419 . S
C904 C902 1.415 . S
C904 C909 1.425 . S
C904 C911 1.409 . S
C905 H897 0.930 . S
C905 C903 1.419 . S
C905 C906 1.362 . S
C906 H898 0.930 . S
C906 C905 1.362 . S
C906 C909 1.409 . S
C907 H899 0.930 . S
C907 C908 1.355 . S
C907 C909 1.415 . S
C908 C907 1.355 . S
C908 C910 1.419 . S
C909 C904 1.425 . S
C909 C906 1.409 . S
C909 C907 1.415 . S
C910 H900 0.930 . S
C910 C908 1.419 . S
C910 C911 1.362 . S
C911 H901 0.930 . S
C911 C904 1.409 . S
C911 C910 1.362 . S
H912 C918 0.930 . S
H913 C921 0.930 . S
H914 C922 0.930 . S
H915 C923 0.930 . S
H916 C926 0.930 . S
H917 C927 0.930 . S
C918 H912 0.930 . S
C918 C919 1.355 . S
C918 C920 1.415 . S
C919 C918 1.355 . S
C919 C921 1.419 . S
C920 C918 1.415 . S
C920 C925 1.425 . S
C920 C927 1.409 . S
C921 H913 0.930 . S
C921 C919 1.419 . S
C921 C922 1.362 . S
C922 H914 0.930 . S
C922 C921 1.362 . S
C922 C925 1.409 . S
C923 H915 0.930 . S
C923 C924 1.355 . S
C923 C925 1.415 . S
C924 C923 1.355 . S
C924 C926 1.419 1_556 S
C925 C920 1.425 . S
C925 C922 1.409 . S
C925 C923 1.415 . S
C926 H916 0.930 . S
C926 C924 1.419 1_554 S
C926 C927 1.362 1_554 S
C927 H917 0.930 . S
C927 C920 1.409 . S
C927 C926 1.362 1_556 S
H928 C934 0.930 . S
H929 C937 0.930 . S
H930 C938 0.930 . S
H931 C939 0.930 . S
H932 C942 0.930 . S
H933 C943 0.930 . S
C934 H928 0.930 . S
C934 C935 1.355 . S
C934 C936 1.415 . S
C935 C934 1.355 . S
C935 C937 1.419 . S
C936 C934 1.415 . S
C936 C941 1.425 . S
C936 C943 1.409 . S
C937 H929 0.930 . S
C937 C935 1.419 . S
C937 C938 1.362 . S
C938 H930 0.930 . S
C938 C937 1.362 . S
C938 C941 1.409 . S
C939 H931 0.930 . S
C939 C940 1.355 . S
C939 C941 1.415 . S
C940 C939 1.355 . S
C940 C942 1.419 . S
C941 C936 1.425 . S
C941 C938 1.409 . S
C941 C939 1.415 . S
C942 H932 0.930 . S
C942 C940 1.419 . S
C942 C943 1.362 . S
C943 H933 0.930 . S
C943 C936 1.409 . S
C943 C942 1.362 . S
H944 C950 0.930 . S
H945 C953 0.930 . S
H946 C954 0.930 . S
H947 C955 0.930 . S
H948 C958 0.930 . S
H949 C959 0.930 . S
C950 H944 0.930 . S
C950 C951 1.355 . S
C950 C952 1.415 . S
C951 C950 1.355 . S
C951 C953 1.419 . S
C952 C950 1.415 . S
C952 C957 1.425 1_655 S
C952 C959 1.409 1_655 S
C953 H945 0.930 . S
C953 C951 1.419 . S
C953 C954 1.362 . S
C954 H946 0.930 . S
C954 C953 1.362 . S
C954 C957 1.409 1_655 S
C955 H947 0.930 . S
C955 C956 1.355 . S
C955 C957 1.415 . S
C956 C955 1.355 . S
C956 C958 1.419 . S
C957 C952 1.425 1_455 S
C957 C954 1.409 1_455 S
C957 C955 1.415 . S
C958 H948 0.930 . S
C958 C956 1.419 . S
C958 C959 1.362 . S
C959 H949 0.930 . S
C959 C952 1.409 1_455 S
C959 C958 1.362 . S
H960 C966 0.930 . S
H961 C969 0.930 . S
H962 C970 0.930 . S
H963 C971 0.930 . S
H964 C974 0.930 . S
H965 C975 0.930 . S
C966 H960 0.930 . S
C966 C967 1.355 . S
C966 C968 1.415 . S
C967 C966 1.355 . S
C967 C969 1.419 . S
C968 C966 1.415 . S
C968 C973 1.425 . S
C968 C975 1.409 . S
C969 H961 0.930 . S
C969 C967 1.419 . S
C969 C970 1.362 . S
C970 H962 0.930 . S
C970 C969 1.362 . S
C970 C973 1.409 . S
C971 H963 0.930 . S
C971 C972 1.355 . S
C971 C973 1.415 . S
C972 C971 1.355 . S
C972 C974 1.419 . S
C973 C968 1.425 . S
C973 C970 1.409 . S
C973 C971 1.415 . S
C974 H964 0.930 . S
C974 C972 1.419 . S
C974 C975 1.362 . S
C975 H965 0.930 . S
C975 C968 1.409 . S
C975 C974 1.362 . S
H976 C982 0.930 . S
H977 C985 0.930 . S
H978 C986 0.930 . S
H979 C987 0.930 . S
H980 C990 0.930 . S
H981 C991 0.930 . S
C982 H976 0.930 . S
C982 C983 1.355 . S
C982 C984 1.415 . S
C983 C982 1.355 . S
C983 C985 1.419 . S
C984 C982 1.415 . S
C984 C989 1.425 . S
C984 C991 1.409 . S
C985 H977 0.930 . S
C985 C983 1.419 . S
C985 C986 1.362 . S
C986 H978 0.930 . S
C986 C985 1.362 . S
C986 C989 1.409 . S
C987 H979 0.930 . S
C987 C988 1.355 . S
C987 C989 1.415 . S
C988 C987 1.355 . S
C988 C990 1.419 . S
C989 C984 1.425 . S
C989 C986 1.409 . S
C989 C987 1.415 . S
C990 H980 0.930 . S
C990 C988 1.419 . S
C990 C991 1.362 . S
C991 H981 0.930 . S
C991 C984 1.409 . S
C991 C990 1.362 . S
H992 C998 0.930 . S
H993 C1001 0.930 . S
H994 C1002 0.930 . S
H995 C1003 0.930 . S
H996 C1006 0.930 . S
H997 C1007 0.930 . S
C998 H992 0.930 . S
C998 C999 1.355 . S
C998 C1000 1.415 . S
C999 C998 1.355 . S
C999 C1001 1.419 . S
C1000 C998 1.415 . S
C1000 C1005 1.425 . S
C1000 C1007 1.409 . S
C1001 H993 0.930 . S
C1001 C999 1.419 . S
C1001 C1002 1.362 . S
C1002 H994 0.930 . S
C1002 C1001 1.362 . S
C1002 C1005 1.409 . S
C1003 H995 0.930 . S
C1003 C1004 1.355 . S
C1003 C1005 1.415 . S
C1004 C1003 1.355 . S
C1004 C1006 1.419 . S
C1005 C1000 1.425 . S
C1005 C1002 1.409 . S
C1005 C1003 1.415 . S
C1006 H996 0.930 . S
C1006 C1004 1.419 . S
C1006 C1007 1.362 . S
C1007 H997 0.930 . S
C1007 C1000 1.409 . S
C1007 C1006 1.362 . S
H1008 C1014 0.930 . S
H1009 C1017 0.930 . S
H1010 C1018 0.930 . S
H1011 C1019 0.930 . S
H1012 C1022 0.930 . S
H1013 C1023 0.930 . S
C1014 H1008 0.930 . S
C1014 C1015 1.355 . S
C1014 C1016 1.415 . S
C1015 C1014 1.355 . S
C1015 C1017 1.419 . S
C1016 C1014 1.415 . S
C1016 C1021 1.425 . S
C1016 C1023 1.409 . S
C1017 H1009 0.930 . S
C1017 C1015 1.419 . S
C1017 C1018 1.362 . S
C1018 H1010 0.930 . S
C1018 C1017 1.362 . S
C1018 C1021 1.409 . S
C1019 H1011 0.930 . S
C1019 C1020 1.355 . S
C1019 C1021 1.415 . S
C1020 C1019 1.355 . S
C1020 C1022 1.419 . S
C1021 C1016 1.425 . S
C1021 C1018 1.409 . S
C1021 C1019 1.415 . S
C1022 H1012 0.930 . S
C1022 C1020 1.419 . S
C1022 C1023 1.362 . S
C1023 H1013 0.930 . S
C1023 C1016 1.409 . S
C1023 C1022 1.362 . S
H1024 C1030 0.930 . S
H1025 C1033 0.930 . S
H1026 C1034 0.930 . S
H1027 C1035 0.930 . S
H1028 C1038 0.930 . S
H1029 C1039 0.930 . S
C1030 H1024 0.930 . S
C1030 C1031 1.355 . S
C1030 C1032 1.415 . S
C1031 C1030 1.355 . S
C1031 C1033 1.419 . S
C1032 C1030 1.415 . S
C1032 C1037 1.425 . S
C1032 C1039 1.409 . S
C1033 H1025 0.930 . S
C1033 C1031 1.419 . S
C1033 C1034 1.362 . S
C1034 H1026 0.930 . S
C1034 C1033 1.362 . S
C1034 C1037 1.409 . S
C1035 H1027 0.930 . S
C1035 C1036 1.355 . S
C1035 C1037 1.415 . S
C1036 C1035 1.355 . S
C1036 C1038 1.419 . S
C1037 C1032 1.425 . S
C1037 C1034 1.409 . S
C1037 C1035 1.415 . S
C1038 H1028 0.930 . S
C1038 C1036 1.419 . S
C1038 C1039 1.362 . S
C1039 H1029 0.930 . S
C1039 C1032 1.409 . S
C1039 C1038 1.362 . S
H1040 C1046 0.930 . S
H1041 C1049 0.930 . S
H1042 C1050 0.930 . S
H1043 C1051 0.930 . S
H1044 C1054 0.930 . S
H1045 C1055 0.930 . S
C1046 H1040 0.930 . S
C1046 C1047 1.355 . S
C1046 C1048 1.415 . S
C1047 C1046 1.355 . S
C1047 C1049 1.419 . S
C1048 C1046 1.415 . S
C1048 C1053 1.425 1_655 S
C1048 C1055 1.409 1_655 S
C1049 H1041 0.930 . S
C1049 C1047 1.419 . S
C1049 C1050 1.362 . S
C1050 H1042 0.930 . S
C1050 C1049 1.362 . S
C1050 C1053 1.409 1_655 S
C1051 H1043 0.930 . S
C1051 C1052 1.355 . S
C1051 C1053 1.415 . S
C1052 C1051 1.355 . S
C1052 C1054 1.419 . S
C1053 C1048 1.425 1_455 S
C1053 C1050 1.409 1_455 S
C1053 C1051 1.415 . S
C1054 H1044 0.930 . S
C1054 C1052 1.419 . S
C1054 C1055 1.362 . S
C1055 H1045 0.930 . S
C1055 C1048 1.409 1_455 S
C1055 C1054 1.362 . S
H1056 C1062 0.930 . S
H1057 C1065 0.930 . S
H1058 C1066 0.930 . S
H1059 C1067 0.930 . S
H1060 C1070 0.930 . S
H1061 C1071 0.930 . S
C1062 H1056 0.930 . S
C1062 C1063 1.355 . S
C1062 C1064 1.415 . S
C1063 C1062 1.355 . S
C1063 C1065 1.419 . S
C1064 C1062 1.415 . S
C1064 C1069 1.425 . S
C1064 C1071 1.409 . S
C1065 H1057 0.930 . S
C1065 C1063 1.419 . S
C1065 C1066 1.362 . S
C1066 H1058 0.930 . S
C1066 C1065 1.362 . S
C1066 C1069 1.409 . S
C1067 H1059 0.930 . S
C1067 C1068 1.355 . S
C1067 C1069 1.415 . S
C1068 C1067 1.355 . S
C1068 C1070 1.419 . S
C1069 C1064 1.425 . S
C1069 C1066 1.409 . S
C1069 C1067 1.415 . S
C1070 H1060 0.930 . S
C1070 C1068 1.419 . S
C1070 C1071 1.362 . S
C1071 H1061 0.930 . S
C1071 C1064 1.409 . S
C1071 C1070 1.362 . S
H1072 C1078 0.930 . S
H1073 C1081 0.930 . S
H1074 C1082 0.930 . S
H1075 C1083 0.930 . S
H1076 C1086 0.930 . S
H1077 C1087 0.930 . S
C1078 H1072 0.930 . S
C1078 C1079 1.355 . S
C1078 C1080 1.415 . S
C1079 C1078 1.355 . S
C1079 C1081 1.419 . S
C1080 C1078 1.415 . S
C1080 C1085 1.425 . S
C1080 C1087 1.409 . S
C1081 H1073 0.930 . S
C1081 C1079 1.419 . S
C1081 C1082 1.362 . S
C1082 H1074 0.930 . S
C1082 C1081 1.362 . S
C1082 C1085 1.409 . S
C1083 H1075 0.930 . S
C1083 C1084 1.355 . S
C1083 C1085 1.415 . S
C1084 C1083 1.355 . S
C1084 C1086 1.419 . S
C1085 C1080 1.425 . S
C1085 C1082 1.409 . S
C1085 C1083 1.415 . S
C1086 H1076 0.930 . S
C1086 C1084 1.419 . S
C1086 C1087 1.362 . S
C1087 H1077 0.930 . S
C1087 C1080 1.409 . S
C1087 C1086 1.362 . S
H1088 C1094 0.930 . S
H1089 C1097 0.930 . S
H1090 C1098 0.930 . S
H1091 C1099 0.930 . S
H1092 C1102 0.930 . S
H1093 C1103 0.930 . S
C1094 H1088 0.930 . S
C1094 C1095 1.355 . S
C1094 C1096 1.415 . S
C1095 C1094 1.355 . S
C1095 C1097 1.419 . S
C1096 C1094 1.415 . S
C1096 C1101 1.425 . S
C1096 C1103 1.409 . S
C1097 H1089 0.930 . S
C1097 C1095 1.419 . S
C1097 C1098 1.362 . S
C1098 H1090 0.930 . S
C1098 C1097 1.362 . S
C1098 C1101 1.409 . S
C1099 H1091 0.930 . S
C1099 C1100 1.355 . S
C1099 C1101 1.415 . S
C1100 C1099 1.355 . S
C1100 C1102 1.419 . S
C1101 C1096 1.425 . S
C1101 C1098 1.409 . S
C1101 C1099 1.415 . S
C1102 H1092 0.930 . S
C1102 C1100 1.419 . S
C1102 C1103 1.362 . S
C1103 H1093 0.930 . S
C1103 C1096 1.409 . S
C1103 C1102 1.362 . S
H1104 C1110 0.930 . S
H1105 C1113 0.930 . S
H1106 C1114 0.930 . S
H1107 C1115 0.930 . S
H1108 C1118 0.930 . S
H1109 C1119 0.930 . S
C1110 H1104 0.930 . S
C1110 C1111 1.355 . S
C1110 C1112 1.415 . S
C1111 C1110 1.355 . S
C1111 C1113 1.419 . S
C1112 C1110 1.415 . S
C1112 C1117 1.425 . S
C1112 C1119 1.409 . S
C1113 H1105 0.930 . S
C1113 C1111 1.419 . S
C1113 C1114 1.362 . S
C1114 H1106 0.930 . S
C1114 C1113 1.362 . S
C1114 C1117 1.409 . S
C1115 H1107 0.930 . S
C1115 C1116 1.355 . S
C1115 C1117 1.415 . S
C1116 C1115 1.355 . S
C1116 C1118 1.419 . S
C1117 C1112 1.425 . S
C1117 C1114 1.409 . S
C1117 C1115 1.415 . S
C1118 H1108 0.930 . S
C1118 C1116 1.419 . S
C1118 C1119 1.362 . S
C1119 H1109 0.930 . S
C1119 C1112 1.409 . S
C1119 C1118 1.362 . S
H1120 C1126 0.930 . S
H1121 C1129 0.930 . S
H1122 C1130 0.930 . S
H1123 C1131 0.930 . S
H1124 C1134 0.930 . S
H1125 C1135 0.930 . S
C1126 H1120 0.930 . S
C1126 C1127 1.355 . S
C1126 C1128 1.415 . S
C1127 C1126 1.355 . S
C1127 C1129 1.419 . S
C1128 C1126 1.415 . S
C1128 C1133 1.425 . S
C1128 C1135 1.409 . S
C1129 H1121 0.930 . S
C1129 C1127 1.419 . S
C1129 C1130 1.362 . S
C1130 H1122 0.930 . S
C1130 C1129 1.362 . S
C1130 C1133 1.409 . S
C1131 H1123 0.930 . S
C1131 C1132 1.355 . S
C1131 C1133 1.415 . S
C1132 C1131 1.355 . S
C1132 C1134 1.419 . S
C1133 C1128 1.425 . S
C1133 C1130 1.409 . S
C1133 C1131 1.415 . S
C1134 H1124 0.930 . S
C1134 C1132 1.419 . S
C1134 C1135 1.362 . S
C1135 H1125 0.930 . S
C1135 C1128 1.409 . S
C1135 C1134 1.362 . S
H1136 C1142 0.930 . S
H1137 C1145 0.930 . S
H1138 C1146 0.930 . S
H1139 C1147 0.930 . S
H1140 C1150 0.930 . S
H1141 C1151 0.930 . S
C1142 H1136 0.930 . S
C1142 C1143 1.355 . S
C1142 C1144 1.415 . S
C1143 C1142 1.355 . S
C1143 C1145 1.419 . S
C1144 C1142 1.415 . S
C1144 C1149 1.425 1_655 S
C1144 C1151 1.409 1_655 S
C1145 H1137 0.930 . S
C1145 C1143 1.419 . S
C1145 C1146 1.362 . S
C1146 H1138 0.930 . S
C1146 C1145 1.362 . S
C1146 C1149 1.409 1_655 S
C1147 H1139 0.930 . S
C1147 C1148 1.355 . S
C1147 C1149 1.415 . S
C1148 C1147 1.355 . S
C1148 C1150 1.419 . S
C1149 C1144 1.425 1_455 S
C1149 C1146 1.409 1_455 S
C1149 C1147 1.415 . S
C1150 H1140 0.930 . S
C1150 C1148 1.419 . S
C1150 C1151 1.362 . S
C1151 H1141 0.930 . S
C1151 C1144 1.409 1_455 S
C1151 C1150 1.362 . S
H1152 C1158 0.930 . S
H1153 C1161 0.930 . S
H1154 C1162 0.930 . S
H1155 C1163 0.930 . S
H1156 C1166 0.930 . S
H1157 C1167 0.930 . S
C1158 H1152 0.930 . S
C1158 C1159 1.355 . S
C1158 C1160 1.415 . S
C1159 C1158 1.355 . S
C1159 C1161 1.419 . S
C1160 C1158 1.415 . S
C1160 C1165 1.425 1_655 S
C1160 C1167 1.409 1_655 S
C1161 H1153 0.930 . S
C1161 C1159 1.419 . S
C1161 C1162 1.362 . S
C1162 H1154 0.930 . S
C1162 C1161 1.362 . S
C1162 C1165 1.409 1_655 S
C1163 H1155 0.930 . S
C1163 C1164 1.355 . S
C1163 C1165 1.415 . S
C1164 C1163 1.355 . S
C1164 C1166 1.419 . S
C1165 C1160 1.425 1_455 S
C1165 C1162 1.409 1_455 S
C1165 C1163 1.415 . S
C1166 H1156 0.930 . S
C1166 C1164 1.419 . S
C1166 C1167 1.362 . S
C1167 H1157 0.930 . S
C1167 C1160 1.409 1_455 S
C1167 C1166 1.362 . S
H1168 C1174 0.930 . S
H1169 C1177 0.930 . S
H1170 C1178 0.930 . S
H1171 C1179 0.930 . S
H1172 C1182 0.930 . S
H1173 C1183 0.930 . S
C1174 H1168 0.930 . S
C1174 C1175 1.355 . S
C1174 C1176 1.415 . S
C1175 C1174 1.355 . S
C1175 C1177 1.419 . S
C1176 C1174 1.415 . S
C1176 C1181 1.425 . S
C1176 C1183 1.409 . S
C1177 H1169 0.930 . S
C1177 C1175 1.419 . S
C1177 C1178 1.362 . S
C1178 H1170 0.930 . S
C1178 C1177 1.362 . S
C1178 C1181 1.409 . S
C1179 H1171 0.930 . S
C1179 C1180 1.355 . S
C1179 C1181 1.415 . S
C1180 C1179 1.355 . S
C1180 C1182 1.419 . S
C1181 C1176 1.425 . S
C1181 C1178 1.409 . S
C1181 C1179 1.415 . S
C1182 H1172 0.930 . S
C1182 C1180 1.419 . S
C1182 C1183 1.362 . S
C1183 H1173 0.930 . S
C1183 C1176 1.409 . S
C1183 C1182 1.362 . S
H1184 C1190 0.930 . S
H1185 C1193 0.930 . S
H1186 C1194 0.930 . S
H1187 C1195 0.930 . S
H1188 C1198 0.930 . S
H1189 C1199 0.930 . S
C1190 H1184 0.930 . S
C1190 C1191 1.355 . S
C1190 C1192 1.415 . S
C1191 C1190 1.355 . S
C1191 C1193 1.419 . S
C1192 C1190 1.415 . S
C1192 C1197 1.425 . S
C1192 C1199 1.409 . S
C1193 H1185 0.930 . S
C1193 C1191 1.419 . S
C1193 C1194 1.362 . S
C1194 H1186 0.930 . S
C1194 C1193 1.362 . S
C1194 C1197 1.409 . S
C1195 H1187 0.930 . S
C1195 C1196 1.355 . S
C1195 C1197 1.415 . S
C1196 C1195 1.355 . S
C1196 C1198 1.419 . S
C1197 C1192 1.425 . S
C1197 C1194 1.409 . S
C1197 C1195 1.415 . S
C1198 H1188 0.930 . S
C1198 C1196 1.419 . S
C1198 C1199 1.362 . S
C1199 H1189 0.930 . S
C1199 C1192 1.409 . S
C1199 C1198 1.362 . S
H1200 C1206 0.930 . S
H1201 C1209 0.930 . S
H1202 C1210 0.930 . S
H1203 C1211 0.930 . S
H1204 C1214 0.930 . S
H1205 C1215 0.930 . S
C1206 H1200 0.930 . S
C1206 C1207 1.355 . S
C1206 C1208 1.415 . S
C1207 C1206 1.355 . S
C1207 C1209 1.419 . S
C1208 C1206 1.415 . S
C1208 C1213 1.425 . S
C1208 C1215 1.409 . S
C1209 H1201 0.930 . S
C1209 C1207 1.419 . S
C1209 C1210 1.362 . S
C1210 H1202 0.930 . S
C1210 C1209 1.362 . S
C1210 C1213 1.409 . S
C1211 H1203 0.930 . S
C1211 C1212 1.355 . S
C1211 C1213 1.415 . S
C1212 C1211 1.355 . S
C1212 C1214 1.419 . S
C1213 C1208 1.425 . S
C1213 C1210 1.409 . S
C1213 C1211 1.415 . S
C1214 H1204 0.930 . S
C1214 C1212 1.419 . S
C1214 C1215 1.362 . S
C1215 H1205 0.930 . S
C1215 C1208 1.409 . S
C1215 C1214 1.362 . S
H1216 C1222 0.930 . S
H1217 C1225 0.930 . S
H1218 C1226 0.930 . S
H1219 C1227 0.930 . S
H1220 C1230 0.930 . S
H1221 C1231 0.930 . S
C1222 H1216 0.930 . S
C1222 C1223 1.355 . S
C1222 C1224 1.415 . S
C1223 C1222 1.355 . S
C1223 C1225 1.419 . S
C1224 C1222 1.415 . S
C1224 C1229 1.425 . S
C1224 C1231 1.409 . S
C1225 H1217 0.930 . S
C1225 C1223 1.419 . S
C1225 C1226 1.362 . S
C1226 H1218 0.930 . S
C1226 C1225 1.362 . S
C1226 C1229 1.409 . S
C1227 H1219 0.930 . S
C1227 C1228 1.355 . S
C1227 C1229 1.415 . S
C1228 C1227 1.355 . S
C1228 C1230 1.419 . S
C1229 C1224 1.425 . S
C1229 C1226 1.409 . S
C1229 C1227 1.415 . S
C1230 H1220 0.930 . S
C1230 C1228 1.419 . S
C1230 C1231 1.362 . S
C1231 H1221 0.930 . S
C1231 C1224 1.409 . S
C1231 C1230 1.362 . S
H1232 C1238 0.930 . S
H1233 C1241 0.930 . S
H1234 C1242 0.930 . S
H1235 C1243 0.930 . S
H1236 C1246 0.930 . S
H1237 C1247 0.930 . S
C1238 H1232 0.930 . S
C1238 C1239 1.355 . S
C1238 C1240 1.415 . S
C1239 C1238 1.355 . S
C1239 C1241 1.419 . S
C1240 C1238 1.415 . S
C1240 C1245 1.425 . S
C1240 C1247 1.409 . S
C1241 H1233 0.930 . S
C1241 C1239 1.419 . S
C1241 C1242 1.362 . S
C1242 H1234 0.930 . S
C1242 C1241 1.362 . S
C1242 C1245 1.409 . S
C1243 H1235 0.930 . S
C1243 C1244 1.355 . S
C1243 C1245 1.415 . S
C1244 C1243 1.355 . S
C1244 C1246 1.419 . S
C1245 C1240 1.425 . S
C1245 C1242 1.409 . S
C1245 C1243 1.415 . S
C1246 H1236 0.930 . S
C1246 C1244 1.419 . S
C1246 C1247 1.362 . S
C1247 H1237 0.930 . S
C1247 C1240 1.409 . S
C1247 C1246 1.362 . S
H1248 C1254 0.930 . S
H1249 C1257 0.930 . S
H1250 C1258 0.930 . S
H1251 C1259 0.930 . S
H1252 C1262 0.930 . S
H1253 C1263 0.930 . S
C1254 H1248 0.930 . S
C1254 C1255 1.355 . S
C1254 C1256 1.415 . S
C1255 C1254 1.355 . S
C1255 C1257 1.419 . S
C1256 C1254 1.415 . S
C1256 C1261 1.425 . S
C1256 C1263 1.409 . S
C1257 H1249 0.930 . S
C1257 C1255 1.419 . S
C1257 C1258 1.362 . S
C1258 H1250 0.930 . S
C1258 C1257 1.362 . S
C1258 C1261 1.409 . S
C1259 H1251 0.930 . S
C1259 C1260 1.355 . S
C1259 C1261 1.415 . S
C1260 C1259 1.355 . S
C1260 C1262 1.419 . S
C1261 C1256 1.425 . S
C1261 C1258 1.409 . S
C1261 C1259 1.415 . S
C1262 H1252 0.930 . S
C1262 C1260 1.419 . S
C1262 C1263 1.362 . S
C1263 H1253 0.930 . S
C1263 C1256 1.409 . S
C1263 C1262 1.362 . S
H1264 C1270 0.930 . S
H1265 C1273 0.930 . S
H1266 C1274 0.930 . S
H1267 C1275 0.930 . S
H1268 C1278 0.930 . S
H1269 C1279 0.930 . S
C1270 H1264 0.930 . S
C1270 C1271 1.355 . S
C1270 C1272 1.415 . S
C1271 C1270 1.355 . S
C1271 C1273 1.419 . S
C1272 C1270 1.415 . S
C1272 C1277 1.425 . S
C1272 C1279 1.409 . S
C1273 H1265 0.930 . S
C1273 C1271 1.419 . S
C1273 C1274 1.362 . S
C1274 H1266 0.930 . S
C1274 C1273 1.362 . S
C1274 C1277 1.409 . S
C1275 H1267 0.930 . S
C1275 C1276 1.355 . S
C1275 C1277 1.415 . S
C1276 C1275 1.355 . S
C1276 C1278 1.419 . S
C1277 C1272 1.425 . S
C1277 C1274 1.409 . S
C1277 C1275 1.415 . S
C1278 H1268 0.930 . S
C1278 C1276 1.419 . S
C1278 C1279 1.362 . S
C1279 H1269 0.930 . S
C1279 C1272 1.409 . S
C1279 C1278 1.362 . S
H1280 C1286 0.930 . S
H1281 C1289 0.930 . S
H1282 C1290 0.930 . S
H1283 C1291 0.938 . S
H1284 C1294 0.930 . S
H1285 C1295 0.930 . S
C1286 H1280 0.930 . S
C1286 C1287 1.355 . S
C1286 C1288 1.415 . S
C1287 C1286 1.355 . S
C1287 C1289 1.419 . S
C1288 C1286 1.415 . S
C1288 C1293 1.425 . S
C1288 C1295 1.409 . S
C1289 H1281 0.930 . S
C1289 C1287 1.419 . S
C1289 C1290 1.362 . S
C1290 H1282 0.930 . S
C1290 C1289 1.362 . S
C1290 C1293 1.409 . S
C1291 H1283 0.938 . S
C1291 C1292 1.355 . S
C1291 C1293 1.415 . S
C1292 C1291 1.355 . S
C1292 C1294 1.419 . S
C1293 C1288 1.425 . S
C1293 C1290 1.409 . S
C1293 C1291 1.415 . S
C1294 H1284 0.930 . S
C1294 C1292 1.419 . S
C1294 C1295 1.362 . S
C1295 H1285 0.930 . S
C1295 C1288 1.409 . S
C1295 C1294 1.362 . S
H1296 C1302 0.930 . S
H1297 C1305 0.930 . S
H1298 C1306 0.930 . S
H1299 C1307 0.930 1_554 S
H1300 C1310 0.930 . S
H1301 C1311 0.930 . S
C1302 H1296 0.930 . S
C1302 C1303 1.355 . S
C1302 C1304 1.415 . S
C1303 C1302 1.355 . S
C1303 C1305 1.419 . S
C1304 C1302 1.415 . S
C1304 C1309 1.425 . S
C1304 C1311 1.409 . S
C1305 H1297 0.930 . S
C1305 C1303 1.419 . S
C1305 C1306 1.362 . S
C1306 H1298 0.930 . S
C1306 C1305 1.362 . S
C1306 C1309 1.409 . S
C1307 H1299 0.930 1_556 S
C1307 C1308 1.355 . S
C1307 C1309 1.415 . S
C1308 C1307 1.355 . S
C1308 C1310 1.419 . S
C1309 C1304 1.425 . S
C1309 C1306 1.409 . S
C1309 C1307 1.415 . S
C1310 H1300 0.930 . S
C1310 C1308 1.419 . S
C1310 C1311 1.362 . S
C1311 H1301 0.930 . S
C1311 C1304 1.409 . S
C1311 C1310 1.362 . S
H1312 C1318 0.930 . S
H1313 C1321 0.930 1_554 S
H1314 C1322 0.930 . S
H1315 C1323 0.930 . S
H1316 C1326 0.930 . S
H1317 C1327 0.930 . S
C1318 H1312 0.930 . S
C1318 C1319 1.355 . S
C1318 C1320 1.415 . S
C1319 C1318 1.355 . S
C1319 C1321 1.419 . S
C1320 C1318 1.415 . S
C1320 C1325 1.425 . S
C1320 C1327 1.409 . S
C1321 H1313 0.930 1_556 S
C1321 C1319 1.419 . S
C1321 C1322 1.362 . S
C1322 H1314 0.930 . S
C1322 C1321 1.362 . S
C1322 C1325 1.409 . S
C1323 H1315 0.930 . S
C1323 C1324 1.355 . S
C1323 C1325 1.415 . S
C1324 C1323 1.355 . S
C1324 C1326 1.419 . S
C1325 C1320 1.425 . S
C1325 C1322 1.409 . S
C1325 C1323 1.415 . S
C1326 H1316 0.930 . S
C1326 C1324 1.419 . S
C1326 C1327 1.362 . S
C1327 H1317 0.930 . S
C1327 C1320 1.409 . S
C1327 C1326 1.362 . S
H1328 C1334 0.930 . S
H1329 C1337 0.930 . S
H1330 C1338 0.930 . S
H1331 C1339 0.930 . S
H1332 C1342 0.930 . S
H1333 C1343 0.930 . S
C1334 H1328 0.930 . S
C1334 C1335 1.355 . S
C1334 C1336 1.415 . S
C1335 C1334 1.355 . S
C1335 C1337 1.419 . S
C1336 C1334 1.415 . S
C1336 C1341 1.425 . S
C1336 C1343 1.409 . S
C1337 H1329 0.930 . S
C1337 C1335 1.419 . S
C1337 C1338 1.362 . S
C1338 H1330 0.930 . S
C1338 C1337 1.362 . S
C1338 C1341 1.409 . S
C1339 H1331 0.930 . S
C1339 C1340 1.355 . S
C1339 C1341 1.415 . S
C1340 C1339 1.355 . S
C1340 C1342 1.419 . S
C1341 C1336 1.425 . S
C1341 C1338 1.409 . S
C1341 C1339 1.415 . S
C1342 H1332 0.930 . S
C1342 C1340 1.419 . S
C1342 C1343 1.362 . S
C1343 H1333 0.930 . S
C1343 C1336 1.409 . S
C1343 C1342 1.362 . S
H1344 C1350 0.930 . S
H1345 C1353 0.930 . S
H1346 C1354 0.930 . S
H1347 C1355 0.930 . S
H1348 C1358 0.930 . S
H1349 C1359 0.930 . S
C1350 H1344 0.930 . S
C1350 C1351 1.355 . S
C1350 C1352 1.415 . S
C1351 C1350 1.355 . S
C1351 C1353 1.419 . S
C1352 C1350 1.415 . S
C1352 C1357 1.425 . S
C1352 C1359 1.409 . S
C1353 H1345 0.930 . S
C1353 C1351 1.419 . S
C1353 C1354 1.362 . S
C1354 H1346 0.930 . S
C1354 C1353 1.362 . S
C1354 C1357 1.409 . S
C1355 H1347 0.930 . S
C1355 C1356 1.355 . S
C1355 C1357 1.415 . S
C1356 C1355 1.355 . S
C1356 C1358 1.419 . S
C1357 C1352 1.425 . S
C1357 C1354 1.409 . S
C1357 C1355 1.415 . S
C1358 H1348 0.930 . S
C1358 C1356 1.419 . S
C1358 C1359 1.362 . S
C1359 H1349 0.930 . S
C1359 C1352 1.409 . S
C1359 C1358 1.362 . S
H1360 C1366 0.930 . S
H1361 C1369 0.930 . S
H1362 C1370 0.930 . S
H1363 C1371 0.930 . S
H1364 C1374 0.930 . S
H1365 C1375 0.930 . S
C1366 H1360 0.930 . S
C1366 C1367 1.355 . S
C1366 C1368 1.415 . S
C1367 C1366 1.355 . S
C1367 C1369 1.419 . S
C1368 C1366 1.415 . S
C1368 C1373 1.425 . S
C1368 C1375 1.409 . S
C1369 H1361 0.930 . S
C1369 C1367 1.419 . S
C1369 C1370 1.362 . S
C1370 H1362 0.930 . S
C1370 C1369 1.362 . S
C1370 C1373 1.409 . S
C1371 H1363 0.930 . S
C1371 C1372 1.355 . S
C1371 C1373 1.415 . S
C1372 C1371 1.355 . S
C1372 C1374 1.419 . S
C1373 C1368 1.425 . S
C1373 C1370 1.409 . S
C1373 C1371 1.415 . S
C1374 H1364 0.930 . S
C1374 C1372 1.419 . S
C1374 C1375 1.362 . S
C1375 H1365 0.930 . S
C1375 C1368 1.409 . S
C1375 C1374 1.362 . S
H1376 C1382 0.930 . S
H1377 C1385 0.930 . S
H1378 C1386 0.930 . S
H1379 C1387 0.930 1_556 S
H1380 C1390 0.930 . S
H1381 C1391 0.930 . S
C1382 H1376 0.930 . S
C1382 C1383 1.355 . S
C1382 C1384 1.415 . S
C1383 C1382 1.355 . S
C1383 C1385 1.419 . S
C1384 C1382 1.415 . S
C1384 C1389 1.425 . S
C1384 C1391 1.409 . S
C1385 H1377 0.930 . S
C1385 C1383 1.419 . S
C1385 C1386 1.362 . S
C1386 H1378 0.930 . S
C1386 C1385 1.362 . S
C1386 C1389 1.409 . S
C1387 H1379 0.930 1_554 S
C1387 C1388 1.355 . S
C1387 C1389 1.415 . S
C1388 C1387 1.355 . S
C1388 C1390 1.419 . S
C1389 C1384 1.425 . S
C1389 C1386 1.409 . S
C1389 C1387 1.415 . S
C1390 H1380 0.930 . S
C1390 C1388 1.419 . S
C1390 C1391 1.362 . S
C1391 H1381 0.930 . S
C1391 C1384 1.409 . S
C1391 C1390 1.362 . S
H1392 C1398 0.930 . S
H1393 C1401 0.930 1_554 S
H1394 C1402 0.930 . S
H1395 C1403 0.930 . S
H1396 C1406 0.930 . S
H1397 C1407 0.930 . S
C1398 H1392 0.930 . S
C1398 C1399 1.355 . S
C1398 C1400 1.415 . S
C1399 C1398 1.355 . S
C1399 C1401 1.419 . S
C1400 C1398 1.415 . S
C1400 C1405 1.425 . S
C1400 C1407 1.409 . S
C1401 H1393 0.930 1_556 S
C1401 C1399 1.419 . S
C1401 C1402 1.362 . S
C1402 H1394 0.930 . S
C1402 C1401 1.362 . S
C1402 C1405 1.409 . S
C1403 H1395 0.930 . S
C1403 C1404 1.355 . S
C1403 C1405 1.415 . S
C1404 C1403 1.355 . S
C1404 C1406 1.419 . S
C1405 C1400 1.425 . S
C1405 C1402 1.409 . S
C1405 C1403 1.415 . S
C1406 H1396 0.930 . S
C1406 C1404 1.419 . S
C1406 C1407 1.362 . S
C1407 H1397 0.930 . S
C1407 C1400 1.409 . S
C1407 C1406 1.362 . S
H1408 C1414 0.930 . S
H1409 C1417 0.930 . S
H1410 C1418 0.930 . S
H1411 C1419 0.930 . S
H1412 C1422 0.930 . S
H1413 C1423 0.930 . S
C1414 H1408 0.930 . S
C1414 C1415 1.355 . S
C1414 C1416 1.415 . S
C1415 C1414 1.355 . S
C1415 C1417 1.419 . S
C1416 C1414 1.415 . S
C1416 C1421 1.425 . S
C1416 C1423 1.409 . S
C1417 H1409 0.930 . S
C1417 C1415 1.419 . S
C1417 C1418 1.362 . S
C1418 H1410 0.930 . S
C1418 C1417 1.362 . S
C1418 C1421 1.409 . S
C1419 H1411 0.930 . S
C1419 C1420 1.355 . S
C1419 C1421 1.415 . S
C1420 C1419 1.355 . S
C1420 C1422 1.419 . S
C1421 C1416 1.425 . S
C1421 C1418 1.409 . S
C1421 C1419 1.415 . S
C1422 H1412 0.930 . S
C1422 C1420 1.419 . S
C1422 C1423 1.362 . S
C1423 H1413 0.930 . S
C1423 C1416 1.409 . S
C1423 C1422 1.362 . S
H1424 C1430 0.930 . S
H1425 C1433 0.930 . S
H1426 C1434 0.930 . S
H1427 C1435 0.930 . S
H1428 C1438 0.930 . S
H1429 C1439 0.930 . S
C1430 H1424 0.930 . S
C1430 C1431 1.355 . S
C1430 C1432 1.415 . S
C1431 C1430 1.355 . S
C1431 C1433 1.419 . S
C1432 C1430 1.415 . S
C1432 C1437 1.425 . S
C1432 C1439 1.409 . S
C1433 H1425 0.930 . S
C1433 C1431 1.419 . S
C1433 C1434 1.362 . S
C1434 H1426 0.930 . S
C1434 C1433 1.362 . S
C1434 C1437 1.409 . S
C1435 H1427 0.930 . S
C1435 C1436 1.355 . S
C1435 C1437 1.415 . S
C1436 C1435 1.355 . S
C1436 C1438 1.419 . S
C1437 C1432 1.425 . S
C1437 C1434 1.409 . S
C1437 C1435 1.415 . S
C1438 H1428 0.930 . S
C1438 C1436 1.419 . S
C1438 C1439 1.362 . S
C1439 H1429 0.930 . S
C1439 C1432 1.409 . S
C1439 C1438 1.362 . S
C423 C81 1.551 . S
C428 C3 1.551 . S
C439 C16 1.540 . S
C444 C94 1.540 . S
C455 C57 1.537 . S
C460 C29 1.537 . S
C471 C42 1.545 . S
C476 C70 1.545 . S
C487 C107 1.545 . S
C492 C187 1.544 . S
C503 C200 1.544 . S
C508 C122 1.544 . S
C519 C133 1.538 . S
C524 C161 1.538 . S
C535 C172 1.539 . S
C540 C146 1.539 . S
C551 C211 1.546 . S
C556 C291 1.546 . S
C567 C226 1.544 . S
C572 C304 1.544 . S
C583 C265 1.539 . S
C588 C239 1.540 . S
C599 C276 1.546 . S
C604 C250 1.546 . S
C615 C315 1.547 . S
C620 C395 1.548 . S
C631 C328 1.539 . S
C636 C408 1.539 . S
C647 C367 1.541 . S
C652 C341 1.540 . S
C663 C354 1.542 . S
C668 C380 1.542 . S
C679 C10 1.597 1_556 S
C684 C101 1.592 . S
C695 C56 1.589 1_554 S
C700 C23 1.595 . S
C711 C69 1.570 . S
C716 C36 1.566 . S
C727 C49 1.595 . S
C732 C88 1.589 . S
C743 C114 1.581 1_554 S
C748 C199 1.590 . S
C759 C160 1.572 1_556 S
C764 C121 1.581 . S
C775 C179 1.566 . S
C780 C140 1.568 . S
C791 C186 1.584 . S
C796 C153 1.575 . S
C807 C218 1.589 . S
C812 C303 1.580 . S
C823 C225 1.593 . S
C828 C264 1.597 . S
C839 C283 1.592 . S
C844 C238 1.597 1_556 S
C855 C257 1.570 . S
C860 C290 1.579 1_554 S
C871 C322 1.587 . S
C876 C407 1.594 . S
C887 C374 1.589 . S
C892 C335 1.596 . S
C903 C348 1.577 1_554 S
C908 C387 1.569 . S
C919 C361 1.566 . S
C924 C394 1.566 1_556 S
C935 C393 1.547 . S
C940 C5 1.546 . S
C951 C198 1.538 . S
C956 C18 1.555 . S
C967 C31 1.541 . S
C972 C369 1.552 . S
C983 C44 1.539 . S
C988 C174 1.554 . S
C999 C55 1.546 . S
C1004 C343 1.547 . S
C1015 C68 1.550 . S
C1020 C148 1.543 . S
C1031 C83 1.555 . S
C1036 C317 1.538 . S
C1047 C120 1.538 . S
C1052 C96 1.555 . S
C1063 C289 1.553 . S
C1068 C109 1.540 . S
C1079 C135 1.540 . S
C1084 C263 1.553 . S
C1095 C237 1.544 . S
C1100 C159 1.549 . S
C1111 C213 1.544 . S
C1116 C185 1.549 . S
C1127 C224 1.539 . S
C1132 C406 1.554 . S
C1143 C252 1.550 . S
C1148 C382 1.542 . S
C1159 C278 1.538 . S
C1164 C356 1.555 . S
C1175 C330 1.546 . S
C1180 C302 1.547 . S
C1191 C4 1.445 . S
C1196 C95 1.455 . S
C1207 C17 1.440 . S
C1212 C62 1.447 . S
C1223 C75 1.448 1_556 S
C1228 C30 1.440 . S
C1239 C43 1.444 1_554 S
C1244 C82 1.455 . S
C1255 C205 1.455 . S
C1260 C108 1.449 . S
C1271 C166 1.454 . S
C1276 C127 1.452 . S
C1287 C134 1.441 . S
C1292 C173 1.445 1_554 S
C1303 C192 1.445 . S
C1308 C147 1.441 1_556 S
C1319 C309 1.454 1_556 S
C1324 C212 1.442 . S
C1335 C270 1.441 . S
C1340 C231 1.453 1_554 S
C1351 C277 1.455 . S
C1356 C244 1.444 . S
C1367 C296 1.442 . S
C1372 C251 1.442 . S
C1383 C316 1.442 . S
C1388 C413 1.443 1_554 S
C1399 C329 1.455 1_556 S
C1404 C368 1.448 . S
C1415 C342 1.455 . S
C1420 C381 1.444 . S
C1431 C400 1.440 . S
C1436 C355 1.447 . S
