# Generated by pormake.
# Topology wjk, (5)-cn, num edge types: 1
# Building blocks:
#     Node 0, Type 0, BuildingBlock: BEQFEK_clean_sbu_0, # of connection points: 5
#     Node 1, Type 0, BuildingBlock: BEQFEK_clean_sbu_0, # of connection points: 5
#     Node 2, Type 0, BuildingBlock: BEQFEK_clean_sbu_0, # of connection points: 5
#     Node 3, Type 0, BuildingBlock: BEQFEK_clean_sbu_0, # of connection points: 5
#     Node 4, Type 0, BuildingBlock: BEQFEK_clean_sbu_0, # of connection points: 5
#     Node 5, Type 0, BuildingBlock: BEQFEK_clean_sbu_0, # of connection points: 5
#     Node 6, Type 0, BuildingBlock: BEQFEK_clean_sbu_0, # of connection points: 5
#     Node 7, Type 0, BuildingBlock: BEQFEK_clean_sbu_0, # of connection points: 5
#     Node 8, Type 0, BuildingBlock: BEQFEK_clean_sbu_0, # of connection points: 5
#     Node 9, Type 0, BuildingBlock: BEQFEK_clean_sbu_0, # of connection points: 5
#     Node 10, Type 0, BuildingBlock: BEQFEK_clean_sbu_0, # of connection points: 5
#     Node 11, Type 0, BuildingBlock: BEQFEK_clean_sbu_0, # of connection points: 5
#     Edge 12, Type (0, 0), BuildingBlock: EZIPEK_clean_linker_0, # of connection points: 2
#     Edge 13, Type (0, 0), BuildingBlock: EZIPEK_clean_linker_0, # of connection points: 2
#     Edge 14, Type (0, 0), BuildingBlock: EZIPEK_clean_linker_0, # of connection points: 2
#     Edge 15, Type (0, 0), BuildingBlock: EZIPEK_clean_linker_0, # of connection points: 2
#     Edge 16, Type (0, 0), BuildingBlock: EZIPEK_clean_linker_0, # of connection points: 2
#     Edge 17, Type (0, 0), BuildingBlock: EZIPEK_clean_linker_0, # of connection points: 2
#     Edge 18, Type (0, 0), BuildingBlock: EZIPEK_clean_linker_0, # of connection points: 2
#     Edge 19, Type (0, 0), BuildingBlock: EZIPEK_clean_linker_0, # of connection points: 2
#     Edge 20, Type (0, 0), BuildingBlock: EZIPEK_clean_linker_0, # of connection points: 2
#     Edge 21, Type (0, 0), BuildingBlock: EZIPEK_clean_linker_0, # of connection points: 2
#     Edge 22, Type (0, 0), BuildingBlock: EZIPEK_clean_linker_0, # of connection points: 2
#     Edge 23, Type (0, 0), BuildingBlock: EZIPEK_clean_linker_0, # of connection points: 2
#     Edge 24, Type (0, 0), BuildingBlock: EZIPEK_clean_linker_0, # of connection points: 2
#     Edge 25, Type (0, 0), BuildingBlock: EZIPEK_clean_linker_0, # of connection points: 2
#     Edge 26, Type (0, 0), BuildingBlock: EZIPEK_clean_linker_0, # of connection points: 2
#     Edge 27, Type (0, 0), BuildingBlock: EZIPEK_clean_linker_0, # of connection points: 2
#     Edge 28, Type (0, 0), BuildingBlock: EZIPEK_clean_linker_0, # of connection points: 2
#     Edge 29, Type (0, 0), BuildingBlock: EZIPEK_clean_linker_0, # of connection points: 2
#     Edge 30, Type (0, 0), BuildingBlock: EZIPEK_clean_linker_0, # of connection points: 2
#     Edge 31, Type (0, 0), BuildingBlock: EZIPEK_clean_linker_0, # of connection points: 2
#     Edge 32, Type (0, 0), BuildingBlock: EZIPEK_clean_linker_0, # of connection points: 2
#     Edge 33, Type (0, 0), BuildingBlock: EZIPEK_clean_linker_0, # of connection points: 2
#     Edge 34, Type (0, 0), BuildingBlock: EZIPEK_clean_linker_0, # of connection points: 2
#     Edge 35, Type (0, 0), BuildingBlock: EZIPEK_clean_linker_0, # of connection points: 2
#     Edge 36, Type (0, 0), BuildingBlock: EZIPEK_clean_linker_0, # of connection points: 2
#     Edge 37, Type (0, 0), BuildingBlock: EZIPEK_clean_linker_0, # of connection points: 2
#     Edge 38, Type (0, 0), BuildingBlock: EZIPEK_clean_linker_0, # of connection points: 2
#     Edge 39, Type (0, 0), BuildingBlock: EZIPEK_clean_linker_0, # of connection points: 2
#     Edge 40, Type (0, 0), BuildingBlock: EZIPEK_clean_linker_0, # of connection points: 2
#     Edge 41, Type (0, 0), BuildingBlock: EZIPEK_clean_linker_0, # of connection points: 2
# Relax obj value: 0.419
# Max RMSD: 0.219
# Mean RMSD: 0.219
data_MOF--net-wjk--node1-BEQFEK_clean_sbu_0--edge1-EZIPEK_clean_linker_0
_symmetry_space_group_name_H-M    P1
_symmetry_Int_Tables_number       1
_symmetry_cell_setting            triclinic
loop_
_symmetry_equiv_pos_as_xyz
'x, y, z'
_cell_length_a     27.3875
_cell_length_b     27.361891
_cell_length_c     54.024873
_cell_angle_alpha  89.997594
_cell_angle_beta   89.791682
_cell_angle_gamma 120.13319
loop_
_atom_site_label
_atom_site_type_symbol
_atom_site_fract_x
_atom_site_fract_y
_atom_site_fract_z
_atom_type_partial_charge
Co0 Co 0.13984 0.20476 0.27073 0.0
Co1 Co 0.2358 0.31682 0.24804 0.0
C2 C 0.21791 0.202 0.23331 0.0
O3 O 0.177 0.17658 0.24844 0.0
O4 O 0.24471 0.25576 0.23131 0.0
C5 C 0.07577 0.09413 0.29086 0.0
O6 O 0.1088 0.08247 0.27752 0.0
C7 C 0.35589 0.39753 0.23821 0.0
C8 C 0.35722 0.47702 0.22964 0.0
C9 C 0.39187 0.45391 0.23217 0.0
N10 N 0.30246 0.38756 0.23918 0.0
N11 N 0.30361 0.43533 0.23389 0.0
C12 C 0.37209 0.35363 0.24287 0.0
H13 H 0.37236 0.3338 0.225 0.0
H14 H 0.34097 0.3202 0.25536 0.0
H15 H 0.41497 0.37276 0.25096 0.0
C16 C 0.20074 0.25336 0.31671 0.0
N17 N 0.19219 0.25893 0.29256 0.0
N18 N 0.234 0.30658 0.2839 0.0
C19 C 0.27059 0.33292 0.3028 0.0
C20 C 0.25107 0.29938 0.32405 0.0
C21 C 0.165 0.20142 0.33176 0.0
H22 H 0.12065 0.19207 0.33179 0.0
H23 H 0.16673 0.16566 0.32318 0.0
H24 H 0.17964 0.20581 0.35118 0.0
O25 O 0.09833 0.23029 0.25003 0.0
O26 O 0.16296 0.31154 0.23354 0.0
H27 H 0.33861 0.40793 0.31897 0.0
H28 H 0.35783 0.37893 0.29342 0.0
C29 C 0.32483 0.38737 0.3006 0.0
H30 H 0.31976 0.41595 0.28768 0.0
H31 H 0.26789 0.43973 0.23355 0.0
O32 O 0.0827 0.14342 0.29062 0.0
C33 C 0.11129 0.27184 0.2357 0.0
Co34 Co 0.94114 0.13275 0.60483 0.0
Co35 Co 0.92737 0.22801 0.57995 0.0
C36 C 0.02091 0.20401 0.56569 0.0
O37 O 1.00656 0.16719 0.58273 0.0
O38 O 0.99434 0.23075 0.56225 0.0
C39 C 0.98421 0.06698 0.62566 0.0
O40 O 0.02887 0.09845 0.61192 0.0
C41 C 0.96825 0.34872 0.56999 0.0
C42 C 0.89103 0.34939 0.55917 0.0
C43 C 0.94832 0.38447 0.56318 0.0
N44 N 0.92498 0.29497 0.57004 0.0
N45 N 0.87895 0.29576 0.56336 0.0
C46 C 0.02768 0.36562 0.57646 0.0
H47 H 0.02891 0.33157 0.58711 0.0
H48 H 0.04762 0.40543 0.58728 0.0
H49 H 0.05235 0.37339 0.55912 0.0
C50 C 0.95407 0.19676 0.64966 0.0
N51 N 0.94069 0.18709 0.6255 0.0
N52 N 0.93591 0.22873 0.61603 0.0
C53 C 0.94552 0.26612 0.63457 0.0
C54 C 0.95854 0.24751 0.65629 0.0
C55 C 0.96896 0.1613 0.66546 0.0
H56 H 0.93293 0.11735 0.6661 0.0
H57 H 1.00568 0.16106 0.65706 0.0
H58 H 0.97989 0.17751 0.68465 0.0
O59 O 0.87484 0.09151 0.58354 0.0
O60 O 0.85832 0.15535 0.56644 0.0
H61 H 0.93449 0.33236 0.64991 0.0
H62 H 0.98548 0.35344 0.62536 0.0
C63 C 0.94374 0.31932 0.63184 0.0
H64 H 0.91091 0.31296 0.61823 0.0
H65 H 0.83899 0.25977 0.56214 0.0
O66 O 0.9429 0.07549 0.62558 0.0
C67 C 0.84652 0.10385 0.56886 0.0
Co68 Co 0.81687 0.94419 0.94719 0.0
Co69 Co 0.71128 0.93037 0.91952 0.0
C70 C 0.82665 0.02336 0.90595 0.0
O71 O 0.84695 0.00824 0.92354 0.0
O72 O 0.77371 0.99756 0.90185 0.0
C73 C 0.90431 0.01104 0.97892 0.0
O74 O 0.88391 0.04466 0.97475 0.0
C75 C 0.62929 0.96498 0.90525 0.0
C76 C 0.55095 0.88404 0.89886 0.0
C77 C 0.57269 0.94198 0.89942 0.0
N78 N 0.6408 0.92287 0.90814 0.0
N79 N 0.59374 0.87453 0.90401 0.0
C80 C 0.67139 0.02621 0.90876 0.0
H81 H 0.70571 0.03131 0.92122 0.0
H82 H 0.65081 0.04911 0.91635 0.0
H83 H 0.69008 0.04505 0.89051 0.0
C84 C 0.75479 0.94617 0.99122 0.0
N85 N 0.75711 0.93849 0.96666 0.0
N86 N 0.71569 0.94072 0.95554 0.0
C87 C 0.68753 0.95289 0.97305 0.0
C88 C 0.71238 0.95795 0.99611 0.0
C89 C 0.7918 0.94171 1.01029 0.0
H90 H 0.82576 0.98456 1.0156 0.0
H91 H 0.76703 0.92138 1.02731 0.0
H92 H 0.80961 0.91594 1.00321 0.0
O93 O 0.79809 0.87717 0.92689 0.0
O94 O 0.72069 0.86315 0.90748 0.0
H95 H 0.61518 0.95728 0.98562 0.0
H96 H 0.65287 1.00247 0.95987 0.0
C97 C 0.63821 0.96035 0.9682 0.0
H98 H 0.60959 0.92716 0.95521 0.0
H99 H 0.59037 0.83491 0.90546 0.0
O100 O 0.88063 0.96257 0.9688 0.0
C101 C 0.75944 0.85039 0.91099 0.0
Co102 Co 0.88179 0.81012 0.28129 0.0
Co103 Co 0.7883 0.70964 0.25172 0.0
C104 C 0.80964 0.82631 0.24369 0.0
O105 O 0.84571 0.84342 0.26104 0.0
O106 O 0.78264 0.77439 0.23751 0.0
C107 C 0.90542 0.89425 0.31544 0.0
O108 O 0.851 0.87403 0.31252 0.0
C109 C 0.67114 0.62909 0.23684 0.0
C110 C 0.6738 0.55173 0.22815 0.0
C111 C 0.63743 0.57296 0.23012 0.0
N112 N 0.72493 0.6407 0.23906 0.0
N113 N 0.72625 0.59431 0.23347 0.0
C114 C 0.65177 0.67027 0.24221 0.0
H115 H 0.68123 0.70326 0.25515 0.0
H116 H 0.6084 0.64842 0.25007 0.0
H117 H 0.6511 0.69095 0.22465 0.0
C118 C 0.81861 0.74299 0.32437 0.0
N119 N 0.82856 0.7474 0.29974 0.0
N120 N 0.7837 0.70862 0.2881 0.0
C121 C 0.74272 0.68022 0.30542 0.0
C122 C 0.76327 0.70221 0.32886 0.0
C123 C 0.86057 0.77778 0.3438 0.0
H124 H 0.85173 0.81081 0.35061 0.0
H125 H 0.85622 0.75079 0.35995 0.0
H126 H 0.90422 0.79684 0.33654 0.0
O127 O 0.92894 0.79576 0.25796 0.0
O128 O 0.86436 0.72136 0.23725 0.0
H129 H 0.68458 0.60749 0.28526 0.0
H130 H 0.66337 0.60926 0.31683 0.0
C131 C 0.68382 0.63496 0.30002 0.0
H132 H 0.65879 0.65433 0.29389 0.0
H133 H 0.76262 0.59108 0.23414 0.0
O134 O 0.92896 0.871 0.3039 0.0
C135 C 0.91617 0.75986 0.24061 0.0
Co136 Co 0.07724 0.87417 0.616 0.0
Co137 Co 0.08567 0.78024 0.58735 0.0
C138 C 0.99108 0.80119 0.57771 0.0
O139 O 1.00924 0.83766 0.59495 0.0
O140 O 0.01613 0.77405 0.57215 0.0
C141 C 0.01417 0.89708 0.64914 0.0
O142 O 0.98018 0.84262 0.64592 0.0
C143 C 0.05045 0.66327 0.57221 0.0
C144 C 0.13138 0.66702 0.56449 0.0
C145 C 0.0736 0.63024 0.56551 0.0
N146 N 0.09237 0.71713 0.57517 0.0
N147 N 0.14066 0.71908 0.5702 0.0
C148 C 0.98935 0.64324 0.57658 0.0
H149 H 0.98448 0.67234 0.58927 0.0
H150 H 0.96741 0.59975 0.58433 0.0
H151 H 0.96934 0.64245 0.55865 0.0
C152 C 0.07861 0.81154 0.65963 0.0
N153 N 0.08566 0.82116 0.63501 0.0
N154 N 0.07959 0.77593 0.62368 0.0
C155 C 0.06527 0.73501 0.64115 0.0
C156 C 0.06298 0.75607 0.66441 0.0
C157 C 0.0854 0.854 0.67877 0.0
H158 H 0.04333 0.84552 0.68517 0.0
H159 H 0.10722 0.84982 0.69522 0.0
H160 H 0.1107 0.89751 0.67138 0.0
O161 O 0.14004 0.92137 0.59312 0.0
O162 O 0.15091 0.85652 0.57325 0.0
H163 H 0.07938 0.67584 0.62164 0.0
H164 H 0.05396 0.6549 0.653 0.0
C165 C 0.05051 0.67569 0.63598 0.0
H166 H 1.00645 0.65142 0.62927 0.0
H167 H 0.18017 0.75564 0.57145 0.0
O168 O 0.06174 0.92107 0.63811 0.0
C169 C 0.16409 0.90839 0.57622 0.0
Co170 Co 0.21269 0.07697 0.93883 0.0
Co171 Co 0.32238 0.09225 0.91454 0.0
C172 C 0.20639 0.99261 0.90305 0.0
O173 O 0.1821 0.00892 0.91833 0.0
O174 O 0.25983 0.02018 0.89992 0.0
C175 C 0.10403 0.03629 0.95933 0.0
O176 O 0.09012 0.99088 0.94614 0.0
C177 C 0.40131 0.05146 0.90451 0.0
C178 C 0.47958 0.12813 0.89289 0.0
C179 C 0.45664 0.07077 0.8972 0.0
N180 N 0.39166 0.09514 0.90453 0.0
N181 N 0.43864 0.14085 0.89737 0.0
C182 C 0.35823 0.99216 0.91143 0.0
H183 H 0.32602 0.99179 0.92407 0.0
H184 H 0.37849 0.97026 0.92027 0.0
H185 H 0.33674 0.96868 0.89439 0.0
C186 C 0.26444 0.06663 0.98406 0.0
N187 N 0.26875 0.08089 0.95994 0.0
N188 N 0.31599 0.08718 0.95066 0.0
C189 C 0.34365 0.07765 0.96922 0.0
C190 C 0.31126 0.06333 0.99086 0.0
C191 C 0.21258 0.04836 0.99946 0.0
H192 H 0.20279 0.08303 1.00038 0.0
H193 H 0.17686 0.01131 0.99055 0.0
H194 H 0.21751 0.03671 1.01859 0.0
O195 O 0.2349 0.14058 0.9161 0.0
O196 O 0.31507 0.15778 0.89865 0.0
H197 H 0.42491 0.11091 0.95239 0.0
H198 H 0.42091 0.08852 0.9843 0.0
C199 C 0.3983 0.07874 0.96635 0.0
H200 H 0.39001 0.03656 0.96031 0.0
H201 H 0.4431 0.18095 0.89595 0.0
O202 O 0.15438 0.07675 0.95934 0.0
C203 C 0.27453 0.16834 0.90075 0.0
Co204 Co 0.81381 0.87348 0.47331 0.0
Co205 Co 0.7063 0.7802 0.49995 0.0
C206 C 0.8237 0.80363 0.51283 0.0
O207 O 0.84557 0.84009 0.49559 0.0
O208 O 0.77055 0.77721 0.51688 0.0
C209 C 0.92211 0.93618 0.45134 0.0
O210 O 0.93431 0.90471 0.46543 0.0
C211 C 0.6254 0.66137 0.51244 0.0
C212 C 0.54964 0.66437 0.52402 0.0
C213 C 0.56986 0.62758 0.52009 0.0
N214 N 0.63751 0.71555 0.51164 0.0
N215 N 0.59217 0.71706 0.51897 0.0
C216 C 0.66552 0.64197 0.50499 0.0
H217 H 0.70003 0.67431 0.4933 0.0
H218 H 0.64292 0.60115 0.49496 0.0
H219 H 0.68414 0.63509 0.52191 0.0
C220 C 0.7596 0.80608 0.42944 0.0
N221 N 0.75738 0.81741 0.45356 0.0
N222 N 0.7116 0.77616 0.46384 0.0
C223 C 0.6828 0.73722 0.44594 0.0
C224 C 0.71305 0.75461 0.42371 0.0
C225 C 0.80866 0.84108 0.41271 0.0
H226 H 0.81658 0.88498 0.4121 0.0
H227 H 0.84646 0.84175 0.42026 0.0
H228 H 0.80156 0.82417 0.39358 0.0
O229 O 0.79048 0.91711 0.49441 0.0
O230 O 0.711 0.85377 0.51253 0.0
H231 H 0.60385 0.67041 0.43218 0.0
H232 H 0.63623 0.64979 0.45558 0.0
C233 C 0.62804 0.68381 0.44973 0.0
H234 H 0.60294 0.69015 0.46413 0.0
H235 H 0.5897 0.75387 0.51982 0.0
O236 O 0.87264 0.92872 0.45148 0.0
C237 C 0.75029 0.90524 0.50948 0.0
Co238 Co 0.94553 0.80891 0.8102 0.0
Co239 Co 0.93089 0.70058 0.83556 0.0
C240 C 0.03047 0.81651 0.84614 0.0
O241 O 0.01358 0.8401 0.83082 0.0
O242 O 1.00329 0.76316 0.84954 0.0
C243 C 0.98933 0.91676 0.788 0.0
O244 O 0.03462 0.92997 0.80108 0.0
C245 C 0.96893 0.62003 0.84684 0.0
C246 C 0.89074 0.54385 0.85894 0.0
C247 C 0.94775 0.56464 0.8545 0.0
N248 N 0.92657 0.6316 0.84662 0.0
N249 N 0.88005 0.58602 0.85421 0.0
C250 C 0.02822 0.6606 0.83892 0.0
H251 H 0.02952 0.69348 0.82647 0.0
H252 H 0.04719 0.63794 0.82954 0.0
H253 H 0.05379 0.68163 0.85558 0.0
C254 C 0.95386 0.75371 0.7654 0.0
N255 N 0.94094 0.75123 0.78965 0.0
N256 N 0.93521 0.70463 0.79943 0.0
C257 C 0.944 0.67565 0.78114 0.0
C258 C 0.95713 0.70651 0.75909 0.0
C259 C 0.9704 0.8041 0.74924 0.0
H260 H 0.93565 0.81376 0.74879 0.0
H261 H 1.00827 0.84067 0.7572 0.0
H262 H 0.98015 0.79743 0.73001 0.0
O263 O 0.88172 0.788 0.83289 0.0
O264 O 0.86616 0.70915 0.85119 0.0
H265 H 0.9316 0.59691 0.76694 0.0
H266 H 0.98513 0.62926 0.79015 0.0
C267 C 0.94275 0.62095 0.78457 0.0
H268 H 0.91155 0.59559 0.79907 0.0
H269 H 0.84067 0.58318 0.85553 0.0
O270 O 0.94747 0.86713 0.78888 0.0
C271 C 0.85487 0.74908 0.84869 0.0
Co272 Co 0.14529 0.94783 0.13543 0.0
Co273 Co 0.23802 0.93368 0.16196 0.0
C274 C 0.22393 0.03194 0.17325 0.0
O275 O 0.18396 0.01416 0.15767 0.0
O276 O 0.25092 1.00593 0.17669 0.0
C277 C 0.12724 0.01572 0.10318 0.0
O278 O 0.18209 0.0468 0.10609 0.0
C279 C 0.3543 0.9663 0.1758 0.0
C280 C 0.34985 0.88473 0.18276 0.0
C281 C 0.38694 0.94252 0.18196 0.0
N282 N 0.30027 0.92475 0.17301 0.0
N283 N 0.2979 0.87604 0.17745 0.0
C284 C 0.37473 0.02783 0.17216 0.0
H285 H 0.34795 0.0339 0.1586 0.0
H286 H 0.4194 0.05075 0.16587 0.0
H287 H 0.37204 0.04612 0.19009 0.0
C288 C 0.20497 0.94428 0.09063 0.0
N289 N 0.19624 0.9375 0.11531 0.0
N290 N 0.24031 0.93946 0.1259 0.0
C291 C 0.27971 0.95094 0.10798 0.0
C292 C 0.25888 0.95566 0.08513 0.0
C293 C 0.16295 0.94032 0.07201 0.0
H294 H 0.17381 0.98334 0.06593 0.0
H295 H 0.16489 0.91773 0.0553 0.0
H296 H 0.11966 0.91695 0.0798 0.0
O297 O 0.09676 0.88372 0.15738 0.0
O298 O 0.16088 0.87095 0.17678 0.0
H299 H 0.33429 0.92808 0.12581 0.0
H300 H 0.35656 0.95629 0.09489 0.0
C301 C 0.33731 0.96 0.1124 0.0
H302 H 0.36468 1.00282 0.12006 0.0
H303 H 0.26108 0.83673 0.17621 0.0
O304 O 0.10075 0.96805 0.11406 0.0
C305 C 0.10925 0.85869 0.17395 0.0
Co306 Co 0.20883 0.12672 0.46578 0.0
Co307 Co 0.30702 0.22542 0.49475 0.0
C308 C 0.19056 0.20181 0.50187 0.0
O309 O 0.1747 0.16385 0.48528 0.0
O310 O 0.24222 0.23108 0.50804 0.0
C311 C 0.12644 0.10187 0.43087 0.0
O312 O 0.1471 0.15646 0.43362 0.0
C313 C 0.38529 0.341 0.51458 0.0
C314 C 0.4675 0.35425 0.50159 0.0
C315 C 0.44217 0.38205 0.51227 0.0
N316 N 0.37722 0.29188 0.50496 0.0
N317 N 0.42703 0.30006 0.49782 0.0
C318 C 0.3389 0.34975 0.52406 0.0
H319 H 0.31231 0.31563 0.53735 0.0
H320 H 0.31186 0.34737 0.50837 0.0
H321 H 0.35599 0.39148 0.53322 0.0
C322 C 0.27486 0.18833 0.42254 0.0
N323 N 0.27177 0.17908 0.4472 0.0
N324 N 0.30606 0.22641 0.4586 0.0
C325 C 0.32854 0.26817 0.44134 0.0
C326 C 0.3088 0.24541 0.41793 0.0
C327 C 0.24347 0.14414 0.40336 0.0
H328 H 0.20959 0.15002 0.39527 0.0
H329 H 0.27263 0.14927 0.38796 0.0
H330 H 0.22602 0.10121 0.4113 0.0
O331 O 0.22432 0.0826 0.49011 0.0
O332 O 0.29679 0.15069 0.51058 0.0
H333 H 0.37003 0.356 0.43048 0.0
H334 H 0.33083 0.33774 0.45933 0.0
C335 C 0.35887 0.32943 0.44739 0.0
H336 H 0.39793 0.34036 0.45765 0.0
H337 H 0.43288 0.26963 0.48882 0.0
O338 O 0.14842 0.07801 0.44306 0.0
C339 C 0.25989 0.09799 0.5077 0.0
Co340 Co 0.08315 0.20245 0.79946 0.0
Co341 Co 0.08752 0.30396 0.82753 0.0
C342 C 0.99577 0.18749 0.83836 0.0
O343 O 0.01528 0.1694 0.82151 0.0
O344 O 0.01903 0.24003 0.84312 0.0
C345 C 0.02156 0.1176 0.76595 0.0
O346 O 0.98792 0.13834 0.76921 0.0
C347 C 0.0513 0.38255 0.8476 0.0
C348 C 0.12065 0.46497 0.83482 0.0
C349 C 0.06739 0.43947 0.84551 0.0
N350 N 0.09224 0.37456 0.8378 0.0
N351 N 0.13417 0.42449 0.83082 0.0
C352 C 0.99585 0.33602 0.85693 0.0
H353 H 1.00311 0.31022 0.87067 0.0
H354 H 0.97198 0.3083 0.84125 0.0
H355 H 0.97054 0.35293 0.86558 0.0
C356 C 0.08449 0.26577 0.75556 0.0
N357 N 0.09079 0.26329 0.78022 0.0
N358 N 0.08098 0.30009 0.79143 0.0
C359 C 0.06371 0.32389 0.774 0.0
C360 C 0.06478 0.30231 0.75075 0.0
C361 C 0.09487 0.23231 0.73652 0.0
H362 H 0.05405 0.19799 0.72936 0.0
H363 H 0.11782 0.25988 0.72051 0.0
H364 H 0.12052 0.21507 0.7443 0.0
O365 O 0.14764 0.22159 0.8212 0.0
O366 O 0.15497 0.29603 0.84119 0.0
H367 H 0.02796 0.37468 0.76244 0.0
H368 H 0.9966 0.33067 0.78941 0.0
C369 C 0.03689 0.35827 0.7796 0.0
H370 H 0.0648 0.39415 0.79163 0.0
H371 H 0.17049 0.43044 0.82176 0.0
O372 O 0.06852 0.14035 0.77729 0.0
C373 C 0.17089 0.25944 0.83778 0.0
Co374 Co 0.88258 0.07969 0.14118 0.0
Co375 Co 0.78828 0.09311 0.16683 0.0
C376 C 0.81219 0.99867 0.18 0.0
O377 O 0.84914 0.01354 0.16295 0.0
O378 O 0.78574 0.02545 0.18383 0.0
C379 C 0.95224 0.04146 0.12074 0.0
O380 O 0.92175 0.99634 0.13436 0.0
C381 C 0.66806 0.05102 0.17749 0.0
C382 C 0.66657 0.12741 0.18929 0.0
C383 C 0.63203 0.07013 0.18491 0.0
N384 N 0.7215 0.09472 0.17744 0.0
N385 N 0.72028 0.14025 0.18473 0.0
C386 C 0.65168 0.99198 0.17033 0.0
H387 H 0.64521 0.96684 0.1874 0.0
H388 H 0.68545 0.99173 0.15902 0.0
H389 H 0.61136 0.97185 0.15994 0.0
C390 C 0.81653 0.06494 0.09687 0.0
N391 N 0.82743 0.07938 0.12089 0.0
N392 N 0.78643 0.08478 0.1307 0.0
C393 C 0.74839 0.07491 0.11249 0.0
C394 C 0.76584 0.06096 0.09063 0.0
C395 C 0.85054 0.04824 0.08096 0.0
H396 H 0.89448 0.08402 0.07951 0.0
H397 H 0.85128 0.01219 0.08985 0.0
H398 H 0.83282 0.03572 0.06207 0.0
O399 O 0.92389 0.1459 0.1626 0.0
O400 O 0.86077 0.16274 0.18014 0.0
H401 H 0.68267 0.08735 0.09784 0.0
H402 H 0.66117 0.03522 0.12186 0.0
C403 C 0.69555 0.07714 0.11568 0.0
H404 H 0.70226 0.10955 0.12965 0.0
H405 H 0.75598 0.1804 0.1861 0.0
O406 O 0.94092 0.08087 0.12022 0.0
C407 C 0.91215 0.1746 0.17739 0.0
C408 C 0.54478 0.51497 0.25214 0.0
C409 C 0.5745 0.53977 0.22985 0.0
C410 C 0.48399 0.5044 0.20825 0.0
C411 C 0.45492 0.48513 0.23119 0.0
N412 N 0.45957 0.48652 0.27573 0.0
N413 N 0.57319 0.56431 0.18714 0.0
C414 C 0.48589 0.49449 0.25337 0.0
C415 C 0.5443 0.53636 0.208 0.0
N416 N 0.57242 0.50975 0.27204 0.0
N417 N 0.45411 0.49081 0.18669 0.0
H418 H 0.6172 0.58638 0.18612 0.0
H419 H 0.55375 0.56873 0.17146 0.0
H420 H 0.41009 0.46789 0.18623 0.0
H421 H 0.47284 0.49846 0.16924 0.0
H422 H 0.55172 0.48743 0.28799 0.0
H423 H 0.61508 0.52205 0.27154 0.0
H424 H 0.48103 0.49752 0.29252 0.0
H425 H 0.41735 0.47547 0.27724 0.0
C426 C 0.02329 0.5389 0.54136 0.0
C427 C 0.04406 0.56733 0.56424 0.0
C428 C 0.99515 0.47677 0.58614 0.0
C429 C 0.97963 0.4476 0.56325 0.0
N430 N 0.98447 0.45044 0.5187 0.0
N431 N 0.06136 0.56185 0.60761 0.0
C432 C 0.99522 0.47856 0.5407 0.0
C433 C 0.03356 0.53579 0.58639 0.0
N434 N 0.0295 0.56947 0.52041 0.0
N435 N 0.97101 0.4486 0.60762 0.0
H436 H 0.09204 0.60451 0.60818 0.0
H437 H 0.05886 0.5399 0.62377 0.0
H438 H 0.93937 0.4063 0.60782 0.0
H439 H 0.9771 0.46868 0.62466 0.0
H440 H 1.01004 0.55126 0.5037 0.0
H441 H 0.05122 0.61357 0.52017 0.0
H442 H 0.99989 0.47059 0.50176 0.0
H443 H 0.96342 0.40643 0.51758 0.0
C444 C 0.49929 0.01989 0.87466 0.0
C445 C 0.48748 0.03874 0.8972 0.0
C446 C 0.52206 0.98559 0.92053 0.0
C447 C 0.54002 0.97209 0.89823 0.0
N448 N 0.55124 0.98103 0.85394 0.0
N449 N 0.50112 0.05114 0.94129 0.0
C450 C 0.53021 0.99059 0.8752 0.0
C451 C 0.50283 0.02496 0.92006 0.0
N452 N 0.47979 0.02876 0.85285 0.0
N453 N 0.52142 0.95929 0.9421 0.0
H454 H 0.49044 0.08268 0.94134 0.0
H455 H 0.51663 0.04642 0.95816 0.0
H456 H 0.53141 0.92729 0.94274 0.0
H457 H 0.50433 0.96411 0.95855 0.0
H458 H 0.48172 0.01093 0.83612 0.0
H459 H 0.45792 0.05081 0.85181 0.0
H460 H 0.55087 0.99862 0.8369 0.0
H461 H 0.5725 0.95829 0.85366 0.0
C462 C 0.49605 0.53864 0.49965 0.0
C463 C 0.53529 0.56467 0.51913 0.0
C464 C 0.51232 0.4709 0.53481 0.0
C465 C 0.47063 0.44479 0.5161 0.0
N466 N 0.41617 0.45475 0.4834 0.0
N467 N 0.57596 0.55673 0.55725 0.0
C468 C 0.46039 0.47898 0.49944 0.0
C469 C 0.54213 0.53107 0.53728 0.0
N470 N 0.49468 0.57065 0.4805 0.0
N471 N 0.52376 0.43811 0.55008 0.0
H472 H 0.59864 0.60052 0.55944 0.0
H473 H 0.57854 0.53494 0.5725 0.0
H474 H 0.50023 0.39405 0.55001 0.0
H475 H 0.55808 0.45423 0.56203 0.0
H476 H 0.47299 0.55361 0.46407 0.0
H477 H 0.51904 0.61453 0.47995 0.0
H478 H 0.40194 0.47744 0.47323 0.0
H479 H 0.39036 0.41153 0.48183 0.0
C480 C 0.96369 0.49196 0.83356 0.0
C481 C 0.9766 0.53077 0.85322 0.0
C482 C 0.04836 0.50906 0.86837 0.0
C483 C 0.033 0.46765 0.8495 0.0
N484 N 0.96851 0.41298 0.8168 0.0
N485 N 0.02545 0.57162 0.89128 0.0
C486 C 0.98828 0.457 0.833 0.0
C487 C 0.01744 0.53808 0.87118 0.0
N488 N 0.92993 0.49031 0.81458 0.0
N489 N 0.09289 0.52095 0.88349 0.0
H490 H 1.00396 0.59377 0.89371 0.0
H491 H 0.05013 0.57447 0.90642 0.0
H492 H 0.11389 0.49799 0.88315 0.0
H493 H 0.11088 0.55513 0.89556 0.0
H494 H 0.92544 0.46899 0.79803 0.0
H495 H 0.90992 0.51411 0.81432 0.0
H496 H 0.93144 0.39841 0.80672 0.0
H497 H 0.98627 0.38762 0.81503 0.0
C498 C 0.47765 0.98971 0.2065 0.0
C499 C 0.44972 0.97191 0.18337 0.0
C500 C 0.54031 0.02531 0.16182 0.0
C501 C 0.56907 0.0382 0.18475 0.0
N502 N 0.5659 0.02719 0.22907 0.0
N503 N 0.45611 0.96082 0.13942 0.0
C504 C 0.53794 0.01884 0.2072 0.0
C505 C 0.48159 0.98605 0.16114 0.0
N506 N 0.44664 0.97985 0.22768 0.0
N507 N 0.56855 0.05254 0.14077 0.0
H508 H 0.41379 0.92941 0.13855 0.0
H509 H 0.47833 0.96603 0.12301 0.0
H510 H 0.61064 0.08463 0.14098 0.0
H511 H 0.54865 0.04832 0.12386 0.0
H512 H 0.46437 0.99705 0.24477 0.0
H513 H 0.40257 0.95729 0.22783 0.0
H514 H 0.54576 0.00905 0.24575 0.0
H515 H 0.60987 0.04917 0.23023 0.0
C516 C 0.2674 0.2947 0.39313 0.0
C517 C 0.306 0.27433 0.39478 0.0
C518 C 0.31914 0.28318 0.34958 0.0
C519 C 0.28034 0.3032 0.34799 0.0
N520 N 0.23015 0.34274 0.36838 0.0
N521 N 0.37883 0.2626 0.37569 0.0
C522 C 0.25915 0.31428 0.36992 0.0
C523 C 0.33548 0.27338 0.37332 0.0
N524 N 0.2356 0.29173 0.41325 0.0
N525 N 0.33767 0.27017 0.32843 0.0
H526 H 0.39127 0.25505 0.39284 0.0
H527 H 0.4055 0.26619 0.36115 0.0
H528 H 0.32773 0.27788 0.31079 0.0
H529 H 0.3602 0.24883 0.32832 0.0
H530 H 0.20199 0.29929 0.41235 0.0
H531 H 0.23977 0.27756 0.43057 0.0
H532 H 0.21775 0.35675 0.3838 0.0
H533 H 0.22355 0.35722 0.35154 0.0
C534 C 0.94894 0.25666 0.70187 0.0
C535 C 0.98264 0.27747 0.68026 0.0
C536 C 0.06663 0.33115 0.70634 0.0
C537 C 0.03462 0.30157 0.72749 0.0
N538 N 0.94487 0.23331 0.74538 0.0
N539 N 0.07421 0.33453 0.66149 0.0
C540 C 0.97536 0.26434 0.72537 0.0
C541 C 0.04159 0.31573 0.68237 0.0
N542 N 0.89152 0.22852 0.69972 0.0
N543 N 0.1212 0.37356 0.70924 0.0
H544 H 0.05728 0.32547 0.64371 0.0
H545 H 0.11815 0.35663 0.66171 0.0
H546 H 0.14032 0.38524 0.72659 0.0
H547 H 0.14564 0.40028 0.69495 0.0
H548 H 0.86413 0.21631 0.71482 0.0
H549 H 0.8716 0.22245 0.68263 0.0
H550 H 0.9032 0.20048 0.74426 0.0
H551 H 0.96217 0.23757 0.76293 0.0
C552 C 0.69859 0.97714 0.06465 0.0
C553 C 0.73464 0.03653 0.06693 0.0
C554 C 0.742 0.04579 1.02163 0.0
C555 C 0.70874 0.98602 1.01935 0.0
N556 N 0.64328 0.8967 1.03762 0.0
N557 N 0.77722 0.12842 0.04825 0.0
C558 C 0.68264 0.95244 0.0406 0.0
C559 C 0.75145 0.07115 0.04553 0.0
N560 N 0.68246 0.94412 0.08543 0.0
N561 N 0.76757 0.078 1.00113 0.0
H562 H 0.78445 0.14751 0.06562 0.0
H563 H 0.78657 0.15639 1.03355 0.0
H564 H 0.76021 0.06141 0.98328 0.0
H565 H 0.79812 0.12065 1.00184 0.0
H566 H 0.66205 0.9002 0.08509 0.0
H567 H 0.69171 0.96099 0.10324 0.0
H568 H 0.61908 0.87029 0.05203 0.0
H569 H 0.63139 0.8782 1.02014 0.0
C570 C 0.72865 0.68707 0.3974 0.0
C571 C 0.70572 0.72329 0.39994 0.0
C572 C 0.7062 0.73312 0.3547 0.0
C573 C 0.73172 0.69909 0.35217 0.0
N574 N 0.75296 0.63165 0.37002 0.0
N575 N 0.6576 0.76685 0.38142 0.0
C576 C 0.73771 0.6717 0.37324 0.0
C577 C 0.68901 0.74114 0.37861 0.0
N578 N 0.74505 0.67029 0.41804 0.0
N579 N 0.70199 0.76103 0.33458 0.0
H580 H 0.6449 0.77311 0.39882 0.0
H581 H 0.63972 0.77685 0.36671 0.0
H582 H 0.71292 0.75564 0.31672 0.0
H583 H 0.69069 0.79205 0.33573 0.0
H584 H 0.76841 0.64983 0.4175 0.0
H585 H 0.73735 0.67918 0.43592 0.0
H586 H 0.75382 0.60652 0.38429 0.0
H587 H 0.75985 0.62014 0.35249 0.0
C588 C 0.97386 0.70049 0.68996 0.0
C589 C 0.03345 0.72511 0.68771 0.0
C590 C 0.04095 0.72228 0.73302 0.0
C591 C 0.98172 0.69986 0.73528 0.0
N592 N 0.89042 0.65308 0.71629 0.0
N593 N 0.12123 0.74529 0.70608 0.0
C594 C 0.94778 0.68372 0.71378 0.0
C595 C 0.06603 0.73084 0.70899 0.0
N596 N 0.94258 0.69664 0.66963 0.0
N597 N 0.07367 0.73868 0.75379 0.0
H598 H 0.14014 0.75181 0.68865 0.0
H599 H 0.14654 0.74577 0.72051 0.0
H600 H 0.0567 0.73152 0.77161 0.0
H601 H 0.11759 0.76173 0.7534 0.0
H602 H 0.90042 0.68606 0.67052 0.0
H603 H 0.95955 0.70713 0.65183 0.0
H604 H 0.86288 0.63556 0.70144 0.0
H605 H 0.87077 0.64064 0.73359 0.0
C606 C 0.33363 0.07112 1.03618 0.0
C607 C 0.31644 0.03753 1.01452 0.0
C608 C 0.28282 0.95215 1.04034 0.0
C609 C 0.29008 0.98481 0.06183 0.0
N610 N 0.32242 0.07603 0.08053 0.0
N611 N 0.2755 0.94581 0.99547 0.0
C612 C 0.31667 0.04469 0.0599 0.0
C613 C 0.29233 0.97796 1.01645 0.0
N614 N 0.36565 0.1285 1.03389 0.0
N615 N 0.2661 0.89625 0.04292 0.0
H616 H 0.28358 0.96339 0.97776 0.0
H617 H 0.25141 0.9019 0.99555 0.0
H618 H 0.25891 0.87686 0.06025 0.0
H619 H 0.26422 0.87056 1.02832 0.0
H620 H 0.38397 0.15568 0.04882 0.0
H621 H 0.3783 0.14843 1.01668 0.0
H622 H 0.33448 0.11866 0.08 0.0
H623 H 0.31226 0.05877 0.09828 0.0
C624 C 0.04274 0.01716 0.32259 0.0
C625 C 0.03038 0.05007 0.30607 0.0
C626 C 0.93087 0.9934 0.31701 0.0
C627 C 0.94179 0.9514 0.32547 0.0
N628 N 1.00516 0.92864 0.34559 0.0
N629 N 0.96058 0.06928 0.28769 0.0
C630 C 0.9972 0.96608 0.33201 0.0
C631 C 0.97404 0.03949 0.30388 0.0
N632 N 0.09731 0.03423 0.32877 0.0
N633 N 0.87893 0.98755 0.32058 0.0
H634 H 0.98976 0.10114 0.27616 0.0
H635 H 0.91905 0.05855 0.28398 0.0
H636 H 0.84799 0.95417 0.33104 0.0
H637 H 0.86953 0.01886 0.31589 0.0
H638 H 0.10882 0.01385 0.34177 0.0
H639 H 0.13149 0.07111 0.32185 0.0
H640 H 0.04434 0.93308 0.34949 0.0
H641 H 0.97077 0.89229 0.35296 0.0
C642 C 0.02751 0.03387 0.65731 0.0
C643 C 0.98197 0.02158 0.64104 0.0
C644 C 0.93972 0.92165 0.65108 0.0
C645 C 0.99293 0.93297 0.65929 0.0
N646 N 0.07862 0.99632 0.67986 0.0
N647 N 0.89216 0.95205 0.62304 0.0
C648 C 0.03334 0.98834 0.66625 0.0
C649 C 0.93614 0.96515 0.6387 0.0
N650 N 0.06511 0.08849 0.66358 0.0
N651 N 0.89387 0.86921 0.65437 0.0
H652 H 0.88851 0.9817 0.61236 0.0
H653 H 0.86138 0.91059 0.61903 0.0
H654 H 0.89666 0.83811 0.66442 0.0
H655 H 0.85293 0.85939 0.64992 0.0
H656 H 0.09768 0.10017 0.67621 0.0
H657 H 0.06193 0.12256 0.65704 0.0
H658 H 0.11305 0.03554 0.68418 0.0
H659 H 0.08061 0.96189 0.68699 0.0
C660 C 0.02623 0.99713 0.99052 0.0
C661 C 0.06088 0.0409 0.97363 0.0
C662 C 1.00385 0.08501 0.98054 0.0
C663 C 0.96098 0.03286 0.9896 0.0
N664 N 0.93661 0.9496 1.01288 0.0
N665 N 0.08409 0.12933 0.95315 0.0
C666 C 0.97478 0.99284 0.99838 0.0
C667 C 0.05145 0.08691 0.9694 0.0
N668 N 0.04209 0.95969 0.99838 0.0
N669 N 0.99783 0.13145 0.98192 0.0
H670 H 0.11813 0.13177 0.94344 0.0
H671 H 0.07438 0.16001 0.94772 0.0
H672 H 0.96361 0.13008 0.99116 0.0
H673 H 0.02961 0.17179 0.97681 0.0
H674 H 0.01957 0.92758 1.01114 0.0
H675 H 0.07991 0.96249 0.9929 0.0
H676 H 0.94058 0.91551 1.01865 0.0
H677 H 0.9006 0.94929 1.01947 0.0
C678 C 0.97838 0.0372 0.43679 0.0
C679 C 0.96623 0.98014 0.43555 0.0
C680 C 0.05476 0.0102 0.41348 0.0
C681 C 0.07043 0.06621 0.41959 0.0
N682 N 0.03726 0.13221 0.42075 0.0
N683 N 0.98208 0.91115 0.41471 0.0
C684 C 0.02836 0.07938 0.42538 0.0
C685 C 1.0007 0.96611 0.4209 0.0
N686 N 0.94606 0.05221 0.45059 0.0
N687 N 0.09336 1.00008 0.40213 0.0
H688 H 0.94238 0.87835 0.41993 0.0
H689 H 1.00394 0.89834 0.40311 0.0
H690 H 0.1319 0.0334 0.39587 0.0
H691 H 0.08765 0.96006 0.39894 0.0
H692 H 0.95778 0.09419 0.45397 0.0
H693 H 0.91002 0.02369 0.46029 0.0
H694 H 1.0063 0.14323 0.4234 0.0
H695 H 0.07327 0.16226 0.41132 0.0
C696 C 0.03307 0.99334 0.7563 0.0
C697 C 0.98712 0.95978 0.7725 0.0
C698 C 0.94643 0.01877 0.76293 0.0
C699 C 1.00025 0.06094 0.7552 0.0
N700 N 0.0868 0.08384 0.73503 0.0
N701 N 0.89707 0.93959 0.79048 0.0
C702 C 0.04041 0.04583 0.74808 0.0
C703 C 0.9417 0.97081 0.77498 0.0
N704 N 0.06951 0.97543 0.74937 0.0
N705 N 0.90113 0.02596 0.75963 0.0
H706 H 0.89238 0.90556 0.80093 0.0
H707 H 0.86665 0.95065 0.79457 0.0
H708 H 0.90483 0.06061 0.74986 0.0
H709 H 0.85985 0.99471 0.76377 0.0
H710 H 0.10227 0.9966 0.73672 0.0
H711 H 0.06464 0.93692 0.75518 0.0
H712 H 0.1212 0.07889 0.73092 0.0
H713 H 0.08993 0.12108 0.7283 0.0
C714 C 0.05641 0.09252 0.11279 0.0
C715 C 1.0013 0.04747 0.10706 0.0
C716 C 0.04145 1.00153 0.08242 0.0
C717 C 0.09432 0.03979 0.09266 0.0
N718 N 0.15656 0.13653 0.10357 0.0
N719 N 0.94083 0.96796 0.0812 0.0
C720 C 0.10334 0.09086 0.10286 0.0
C721 C 0.99363 1.00513 0.08976 0.0
N722 N 0.06428 0.13367 0.12933 0.0
N723 N 0.03788 0.9608 0.06677 0.0
H724 H 0.90541 0.97045 0.08624 0.0
H725 H 0.93185 0.93577 0.06865 0.0
H726 H 0.07425 0.96133 0.06057 0.0
H727 H 1.00063 0.92868 0.05927 0.0
H728 H 0.10382 0.16327 0.13612 0.0
H729 H 0.03141 0.13621 0.13778 0.0
H730 H 0.16543 0.1763 0.10963 0.0
H731 H 0.19053 0.13585 0.09512 0.0
C732 C 0.95919 0.21922 0.21892 0.0
C733 C 0.96083 0.21868 0.19255 0.0
C734 C 0.06526 0.27008 0.19412 0.0
C735 C 0.06355 0.26873 0.22047 0.0
N736 N 1.01001 0.26125 0.25704 0.0
N737 N 0.01548 0.26275 0.1559 0.0
C738 C 0.01072 0.25001 0.23246 0.0
C739 C 0.01407 0.25097 0.18054 0.0
N740 N 0.90953 0.18722 0.23135 0.0
N741 N 0.11453 0.28532 0.18182 0.0
H742 H 0.97867 0.25018 0.14576 0.0
H743 H 0.05257 0.28991 0.1464 0.0
H744 H 0.15319 0.30037 0.19058 0.0
H745 H 0.11633 0.27958 0.16284 0.0
H746 H 0.90749 0.18008 0.25037 0.0
H747 H 0.87052 0.16492 0.22273 0.0
H748 H 0.97349 0.25321 0.26651 0.0
H749 H 0.04713 0.28438 0.26716 0.0
C750 C 0.77 1.00239 0.56492 0.0
C751 C 0.80316 0.0558 0.55325 0.0
C752 C 0.77433 1.00679 0.51303 0.0
C753 C 0.75465 0.9536 0.52483 0.0
N754 N 0.73664 0.9022 0.56353 0.0
N755 N 0.83762 0.10793 0.51482 0.0
C756 C 0.75193 0.95145 0.55121 0.0
C757 C 0.80451 0.05802 0.52689 0.0
N758 N 0.75656 1.00056 0.58939 0.0
N759 N 0.76437 0.00824 0.48837 0.0
H760 H 0.85959 0.14673 0.52371 0.0
H761 H 0.84599 0.11033 0.49589 0.0
H762 H 0.74134 0.97142 0.47801 0.0
H763 H 0.77326 0.04515 0.47903 0.0
H764 H 0.72858 0.96329 0.59858 0.0
H765 H 0.76865 0.03725 0.59963 0.0
H766 H 0.74136 0.90044 0.58259 0.0
H767 H 0.72307 0.86362 0.55486 0.0
C768 C 0.8151 0.75377 0.89146 0.0
C769 C 0.81344 0.75561 0.86511 0.0
C770 C 0.76389 0.80998 0.86846 0.0
C771 C 0.76554 0.80834 0.89484 0.0
N772 N 0.77422 0.7604 0.93044 0.0
N773 N 0.76632 0.76614 0.82977 0.0
C774 C 0.78481 0.77387 0.90593 0.0
C775 C 0.78074 0.77695 0.85414 0.0
N776 N 0.84848 0.7369 0.90299 0.0
N777 N 0.75099 0.84623 0.85669 0.0
H778 H 0.77698 0.74105 0.81906 0.0
H779 H 0.73864 0.77645 0.82119 0.0
H780 H 0.73981 0.8727 0.86573 0.0
H781 H 0.75624 0.85362 0.83767 0.0
H782 H 0.85662 0.7419 0.92193 0.0
H783 H 0.87129 0.72155 0.8937 0.0
H784 H 0.78283 0.73159 0.93916 0.0
H785 H 0.75092 0.77317 0.94123 0.0
C786 C 0.06746 0.82074 0.21753 0.0
C787 C 0.06175 0.81872 0.19121 0.0
C788 C 0.95788 0.76794 0.1967 0.0
C789 C 0.96351 0.76871 0.223 0.0
N790 N 0.02428 0.77726 0.25685 0.0
N791 N 1.00043 0.77038 0.15689 0.0
C792 C 0.01857 0.78879 0.2328 0.0
C793 C 1.00653 0.78542 0.18127 0.0
N794 N 0.11818 0.85594 0.2284 0.0
N795 N 0.90761 0.75495 0.18609 0.0
H796 H 0.03503 0.78069 0.1454 0.0
H797 H 0.9615 0.74229 0.14907 0.0
H798 H 0.87089 0.74386 0.19598 0.0
H799 H 0.90373 0.76038 0.16724 0.0
H800 H 0.12234 0.86356 0.2474 0.0
H801 H 0.15525 0.88139 0.21868 0.0
H802 H 0.06293 0.7866 0.26446 0.0
H803 H 0.98948 0.75237 0.26817 0.0
C804 C 0.23632 0.01134 0.56806 0.0
C805 C 0.20343 0.95547 0.55859 0.0
C806 C 0.23346 0.99679 0.51674 0.0
C807 C 0.25254 0.05225 0.52594 0.0
N808 N 0.26579 0.10991 0.56229 0.0
N809 N 0.16626 0.89744 0.52171 0.0
C810 C 0.25322 0.0592 0.55217 0.0
C811 C 0.20149 0.94856 0.53233 0.0
N812 N 0.2517 0.01888 0.59239 0.0
N813 N 0.2458 0.99003 0.49293 0.0
H814 H 0.14002 0.86085 0.53158 0.0
H815 H 0.15916 0.89262 0.50269 0.0
H816 H 0.27083 0.0244 0.48142 0.0
H817 H 0.23704 0.95105 0.4858 0.0
H818 H 0.27946 0.05839 0.59987 0.0
H819 H 0.24215 0.98498 0.60418 0.0
H820 H 0.26016 0.11459 0.58106 0.0
H821 H 0.277 0.14619 0.55206 0.0
C822 C 0.2436 0.24018 0.89531 0.0
C823 C 0.26785 0.20984 0.88443 0.0
C824 C 0.25056 0.23892 0.8436 0.0
C825 C 0.21329 0.25519 0.85439 0.0
N826 N 0.17138 0.26586 0.89221 0.0
N827 N 0.29201 0.17909 0.84659 0.0
C828 C 0.20982 0.25555 0.88074 0.0
C829 C 0.2718 0.20979 0.85811 0.0
N830 N 0.25235 0.25373 0.91983 0.0
N831 N 0.26574 0.25139 0.81931 0.0
H832 H 0.30888 0.15779 0.85592 0.0
H833 H 0.28864 0.17181 0.82757 0.0
H834 H 0.25232 0.27409 0.80854 0.0
H835 H 0.29638 0.24505 0.81087 0.0
H836 H 0.23974 0.27973 0.92843 0.0
H837 H 0.27796 0.24424 0.93071 0.0
H838 H 0.16276 0.25946 0.91112 0.0
H839 H 0.14456 0.2761 0.88293 0.0
C840 C 0.24079 0.12478 0.22918 0.0
C841 C 0.23297 0.16684 0.2176 0.0
C842 C 0.23985 0.13022 0.17709 0.0
C843 C 0.23555 0.08169 0.18873 0.0
N844 N 0.22378 0.02946 0.22671 0.0
N845 N 0.21861 0.20581 0.17993 0.0
C846 C 0.23475 0.0783 0.21504 0.0
C847 C 0.23158 0.16922 0.19134 0.0
N848 N 0.25394 0.12927 0.25376 0.0
N849 N 0.2523 0.13926 0.15241 0.0
H850 H 0.21098 0.23439 0.18948 0.0
H851 H 0.21057 0.20437 0.16102 0.0
H852 H 0.26061 0.11248 0.14172 0.0
H853 H 0.2605 0.17623 0.14333 0.0
H854 H 0.26511 0.10254 0.26267 0.0
H855 H 0.25969 0.16346 0.26451 0.0
H856 H 0.21649 0.02322 0.2457 0.0
H857 H 0.21632 0.99302 0.21744 0.0
C858 C 0.11131 0.25814 0.54022 0.0
C859 C 0.06237 0.20667 0.54705 0.0
C860 C 0.10005 0.15351 0.52609 0.0
C861 C 0.14636 0.20456 0.51697 0.0
N862 N 0.18853 0.30509 0.51081 0.0
N863 N 1.00237 0.107 0.53856 0.0
C864 C 0.14988 0.25696 0.52269 0.0
C865 C 0.05424 0.1549 0.53741 0.0
N866 N 0.12224 0.3076 0.5511 0.0
N867 N 0.10093 0.10398 0.52552 0.0
H868 H 0.9666 0.10674 0.54547 0.0
H869 H 0.99369 0.06942 0.52991 0.0
H870 H 0.13572 0.10122 0.51959 0.0
H871 H 0.06982 0.06703 0.53395 0.0
H872 H 0.16003 0.34547 0.54857 0.0
H873 H 0.09556 0.30963 0.56433 0.0
H874 H 0.18991 0.34365 0.51277 0.0
H875 H 0.21513 0.30494 0.49698 0.0
C876 C 0.90189 0.14898 0.86101 0.0
C877 C 0.95069 0.14549 0.85511 0.0
C878 C 0.91108 0.05671 0.87827 0.0
C879 C 0.86708 0.06482 0.88755 0.0
N880 N 0.82572 0.12442 0.8904 0.0
N881 N 1.00781 0.10312 0.86447 0.0
C882 C 0.86369 0.11255 0.87961 0.0
C883 C 0.95705 0.10135 0.86552 0.0
N884 N 0.89079 0.18532 0.84824 0.0
N885 N 0.90819 1.00557 0.88068 0.0
H886 H 0.04426 0.13698 0.85699 0.0
H887 H 0.01526 0.07415 0.87382 0.0
H888 H 0.93712 0.99661 0.87225 0.0
H889 H 0.87343 0.97015 0.88836 0.0
H890 H 0.85343 0.18625 0.85032 0.0
H891 H 0.91625 0.21015 0.83367 0.0
H892 H 0.825 0.16152 0.88693 0.0
H893 H 0.7986 0.09978 0.90457 0.0
C894 C 0.85942 0.91664 0.21954 0.0
C895 C 0.80767 0.86988 0.2278 0.0
C896 C 0.75632 0.906 0.20371 0.0
C897 C 0.80824 0.95564 0.19804 0.0
N898 N 0.90715 0.01491 0.20784 0.0
N899 N 0.7065 0.82622 0.23163 0.0
C900 C 0.85911 0.96307 0.20828 0.0
C901 C 0.75582 0.86621 0.22101 0.0
N902 N 0.90879 0.91569 0.22099 0.0
N903 N 0.70806 0.89565 0.19194 0.0
H904 H 0.70514 0.79817 0.24504 0.0
H905 H 0.66811 0.82471 0.22901 0.0
H906 H 0.70738 0.9232 0.17882 0.0
H907 H 0.67008 0.85761 0.19358 0.0
H908 H 0.94647 0.94708 0.21318 0.0
H909 H 0.91088 0.8806 0.22702 0.0
H910 H 0.94388 0.02314 0.21707 0.0
H911 H 0.90825 0.05104 0.20089 0.0
C912 C 0.8592 0.74783 0.53707 0.0
C913 C 0.86291 0.80002 0.53077 0.0
C914 C 0.95334 0.85094 0.55215 0.0
C915 C 0.94673 0.79916 0.56114 0.0
N916 N 0.88745 0.69824 0.56573 0.0
N917 N 0.90503 0.89988 0.53947 0.0
C918 C 0.89791 0.74738 0.55462 0.0
C919 C 0.90735 0.85115 0.54053 0.0
N920 N 0.82042 0.69919 0.5257 0.0
N921 N 1.0044 0.89979 0.55342 0.0
H922 H 0.87042 0.90146 0.53243 0.0
H923 H 0.93435 0.93698 0.54831 0.0
H924 H 0.04094 0.9013 0.55992 0.0
H925 H 0.01196 0.93738 0.54511 0.0
H926 H 0.81942 0.66085 0.52782 0.0
H927 H 0.79252 0.69834 0.51241 0.0
H928 H 0.85 0.66005 0.56335 0.0
H929 H 0.9139 0.69691 0.5792 0.0
C930 C 0.12804 0.89252 0.90055 0.0
C931 C 0.17013 0.94136 0.88815 0.0
C932 C 0.13031 0.8958 0.84841 0.0
C933 C 0.08175 0.85338 0.86087 0.0
N934 N 0.03181 0.81523 0.89958 0.0
N935 N 0.20789 0.99199 0.84959 0.0
C936 C 0.08014 0.85199 0.88719 0.0
C937 C 0.17112 0.94345 0.86185 0.0
N938 N 0.13386 0.88505 0.92514 0.0
N939 N 0.13735 0.89045 0.8237 0.0
H940 H 0.23763 0.02875 0.85843 0.0
H941 H 0.20554 0.99736 0.83063 0.0
H942 H 0.10871 0.8553 0.81349 0.0
H943 H 0.17429 0.91758 0.8141 0.0
H944 H 0.10697 0.84787 0.93465 0.0
H945 H 0.16916 0.91359 0.93528 0.0
H946 H 0.02693 0.81729 0.91862 0.0
H947 H 0.99467 0.78601 0.89085 0.0
loop_
_geom_bond_atom_site_label_1
_geom_bond_atom_site_label_2
_geom_bond_distance
_geom_bond_site_symmetry_2
_ccdc_geom_bond_type
Co0 O3 1.970 . S
Co0 N17 1.989 . S
Co0 O25 1.967 . S
Co0 O32 1.920 . S
Co1 O4 1.966 . S
Co1 N10 2.022 . S
Co1 N18 1.993 . S
Co1 O26 1.941 . S
C2 O3 1.258 . S
C2 O4 1.263 . S
O3 Co0 1.970 . S
O3 C2 1.258 . S
O4 Co1 1.966 . S
O4 C2 1.263 . S
C5 O6 1.235 . S
C5 O32 1.289 . S
O6 C5 1.235 . S
C7 C9 1.400 . S
C7 N10 1.351 . S
C7 C12 1.501 . S
C8 C9 1.387 . S
C8 N11 1.341 . S
C9 C7 1.400 . S
C9 C8 1.387 . S
N10 Co1 2.022 . S
N10 C7 1.351 . S
N10 N11 1.365 . S
N11 C8 1.341 . S
N11 N10 1.365 . S
N11 H31 0.862 . S
C12 C7 1.501 . S
C12 H13 0.961 . S
C12 H14 0.961 . S
C12 H15 0.960 . S
H13 C12 0.961 . S
H14 C12 0.961 . S
H15 C12 0.960 . S
C16 N17 1.342 . S
C16 C20 1.401 . S
C16 C21 1.499 . S
N17 Co0 1.989 . S
N17 C16 1.342 . S
N17 N18 1.388 . S
N18 Co1 1.993 . S
N18 N17 1.388 . S
N18 C19 1.346 . S
C19 N18 1.346 . S
C19 C20 1.396 . S
C19 C29 1.510 . S
C20 C16 1.401 . S
C20 C19 1.396 . S
C21 C16 1.499 . S
C21 H22 0.959 . S
C21 H23 0.960 . S
C21 H24 0.961 . S
H22 C21 0.959 . S
H23 C21 0.960 . S
H24 C21 0.961 . S
O25 Co0 1.967 . S
O25 C33 1.258 . S
O26 Co1 1.941 . S
O26 C33 1.266 . S
H27 C29 0.959 . S
H28 C29 0.961 . S
C29 C19 1.510 . S
C29 H27 0.959 . S
C29 H28 0.961 . S
C29 H30 0.960 . S
H30 C29 0.960 . S
H31 N11 0.862 . S
O32 Co0 1.920 . S
O32 C5 1.289 . S
C33 O25 1.258 . S
C33 O26 1.266 . S
Co34 O37 1.970 1_655 S
Co34 N51 1.989 . S
Co34 O59 1.967 . S
Co34 O66 1.920 . S
Co35 O38 1.966 . S
Co35 N44 2.022 . S
Co35 N52 1.993 . S
Co35 O60 1.941 . S
C36 O37 1.258 . S
C36 O38 1.263 1_455 S
O37 Co34 1.970 1_455 S
O37 C36 1.258 . S
O38 Co35 1.966 . S
O38 C36 1.263 1_655 S
C39 O40 1.235 1_655 S
C39 O66 1.289 . S
O40 C39 1.235 1_455 S
C41 C43 1.400 . S
C41 N44 1.351 . S
C41 C46 1.501 1_655 S
C42 C43 1.387 . S
C42 N45 1.341 . S
C43 C41 1.400 . S
C43 C42 1.387 . S
N44 Co35 2.022 . S
N44 C41 1.351 . S
N44 N45 1.365 . S
N45 C42 1.341 . S
N45 N44 1.365 . S
N45 H65 0.862 . S
C46 C41 1.501 1_455 S
C46 H47 0.961 . S
C46 H48 0.961 . S
C46 H49 0.960 . S
H47 C46 0.961 . S
H48 C46 0.961 . S
H49 C46 0.960 . S
C50 N51 1.342 . S
C50 C54 1.401 . S
C50 C55 1.499 . S
N51 Co34 1.989 . S
N51 C50 1.342 . S
N51 N52 1.388 . S
N52 Co35 1.993 . S
N52 N51 1.388 . S
N52 C53 1.346 . S
C53 N52 1.346 . S
C53 C54 1.396 . S
C53 C63 1.510 . S
C54 C50 1.401 . S
C54 C53 1.396 . S
C55 C50 1.499 . S
C55 H56 0.959 . S
C55 H57 0.960 . S
C55 H58 0.961 . S
H56 C55 0.959 . S
H57 C55 0.960 . S
H58 C55 0.961 . S
O59 Co34 1.967 . S
O59 C67 1.258 . S
O60 Co35 1.941 . S
O60 C67 1.266 . S
H61 C63 0.959 . S
H62 C63 0.961 . S
C63 C53 1.510 . S
C63 H61 0.959 . S
C63 H62 0.961 . S
C63 H64 0.960 . S
H64 C63 0.960 . S
H65 N45 0.862 . S
O66 Co34 1.920 . S
O66 C39 1.289 . S
C67 O59 1.258 . S
C67 O60 1.266 . S
Co68 O71 1.970 1_565 S
Co68 N85 1.989 . S
Co68 O93 1.967 . S
Co68 O100 1.920 . S
Co69 O72 1.966 . S
Co69 N78 2.022 . S
Co69 N86 1.993 . S
Co69 O94 1.941 . S
C70 O71 1.258 . S
C70 O72 1.263 1_545 S
O71 Co68 1.970 1_545 S
O71 C70 1.258 . S
O72 Co69 1.966 . S
O72 C70 1.263 1_565 S
C73 O74 1.235 1_565 S
C73 O100 1.289 . S
O74 C73 1.235 1_545 S
C75 C77 1.400 . S
C75 N78 1.351 . S
C75 C80 1.501 1_565 S
C76 C77 1.387 . S
C76 N79 1.341 . S
C77 C75 1.400 . S
C77 C76 1.387 . S
N78 Co69 2.022 . S
N78 C75 1.351 . S
N78 N79 1.365 . S
N79 C76 1.341 . S
N79 N78 1.365 . S
N79 H99 0.862 . S
C80 C75 1.501 1_545 S
C80 H81 0.961 . S
C80 H82 0.961 . S
C80 H83 0.960 . S
H81 C80 0.961 . S
H82 C80 0.961 . S
H83 C80 0.960 . S
C84 N85 1.342 . S
C84 C88 1.401 . S
C84 C89 1.499 . S
N85 Co68 1.989 . S
N85 C84 1.342 . S
N85 N86 1.388 . S
N86 Co69 1.993 . S
N86 N85 1.388 . S
N86 C87 1.346 . S
C87 N86 1.346 . S
C87 C88 1.396 . S
C87 C97 1.510 . S
C88 C84 1.401 . S
C88 C87 1.396 . S
C89 C84 1.499 . S
C89 H90 0.959 . S
C89 H91 0.960 . S
C89 H92 0.961 . S
H90 C89 0.959 . S
H91 C89 0.960 . S
H92 C89 0.961 . S
O93 Co68 1.967 . S
O93 C101 1.258 . S
O94 Co69 1.941 . S
O94 C101 1.266 . S
H95 C97 0.959 . S
H96 C97 0.961 . S
C97 C87 1.510 . S
C97 H95 0.959 . S
C97 H96 0.961 . S
C97 H98 0.960 . S
H98 C97 0.960 . S
H99 N79 0.862 . S
O100 Co68 1.920 . S
O100 C73 1.289 . S
C101 O93 1.258 . S
C101 O94 1.266 . S
Co102 O105 1.970 . S
Co102 N119 1.989 . S
Co102 O127 1.967 . S
Co102 O134 1.920 . S
Co103 O106 1.966 . S
Co103 N112 2.022 . S
Co103 N120 1.993 . S
Co103 O128 1.941 . S
C104 O105 1.258 . S
C104 O106 1.263 . S
O105 Co102 1.970 . S
O105 C104 1.258 . S
O106 Co103 1.966 . S
O106 C104 1.263 . S
C107 O108 1.235 . S
C107 O134 1.289 . S
O108 C107 1.235 . S
C109 C111 1.400 . S
C109 N112 1.351 . S
C109 C114 1.501 . S
C110 C111 1.387 . S
C110 N113 1.341 . S
C111 C109 1.400 . S
C111 C110 1.387 . S
N112 Co103 2.022 . S
N112 C109 1.351 . S
N112 N113 1.365 . S
N113 C110 1.341 . S
N113 N112 1.365 . S
N113 H133 0.862 . S
C114 C109 1.501 . S
C114 H115 0.961 . S
C114 H116 0.961 . S
C114 H117 0.960 . S
H115 C114 0.961 . S
H116 C114 0.961 . S
H117 C114 0.960 . S
C118 N119 1.342 . S
C118 C122 1.401 . S
C118 C123 1.499 . S
N119 Co102 1.989 . S
N119 C118 1.342 . S
N119 N120 1.388 . S
N120 Co103 1.993 . S
N120 N119 1.388 . S
N120 C121 1.346 . S
C121 N120 1.346 . S
C121 C122 1.396 . S
C121 C131 1.510 . S
C122 C118 1.401 . S
C122 C121 1.396 . S
C123 C118 1.499 . S
C123 H124 0.959 . S
C123 H125 0.960 . S
C123 H126 0.961 . S
H124 C123 0.959 . S
H125 C123 0.960 . S
H126 C123 0.961 . S
O127 Co102 1.967 . S
O127 C135 1.258 . S
O128 Co103 1.941 . S
O128 C135 1.266 . S
H129 C131 0.959 . S
H130 C131 0.961 . S
C131 C121 1.510 . S
C131 H129 0.959 . S
C131 H130 0.961 . S
C131 H132 0.960 . S
H132 C131 0.960 . S
H133 N113 0.862 . S
O134 Co102 1.920 . S
O134 C107 1.289 . S
C135 O127 1.258 . S
C135 O128 1.266 . S
Co136 O139 1.970 1_455 S
Co136 N153 1.989 . S
Co136 O161 1.967 . S
Co136 O168 1.920 . S
Co137 O140 1.966 . S
Co137 N146 2.022 . S
Co137 N154 1.993 . S
Co137 O162 1.941 . S
C138 O139 1.258 . S
C138 O140 1.263 1_655 S
O139 Co136 1.970 1_655 S
O139 C138 1.258 . S
O140 Co137 1.966 . S
O140 C138 1.263 1_455 S
C141 O142 1.235 1_455 S
C141 O168 1.289 . S
O142 C141 1.235 1_655 S
C143 C145 1.400 . S
C143 N146 1.351 . S
C143 C148 1.501 1_455 S
C144 C145 1.387 . S
C144 N147 1.341 . S
C145 C143 1.400 . S
C145 C144 1.387 . S
N146 Co137 2.022 . S
N146 C143 1.351 . S
N146 N147 1.365 . S
N147 C144 1.341 . S
N147 N146 1.365 . S
N147 H167 0.862 . S
C148 C143 1.501 1_655 S
C148 H149 0.961 . S
C148 H150 0.961 . S
C148 H151 0.960 . S
H149 C148 0.961 . S
H150 C148 0.961 . S
H151 C148 0.960 . S
C152 N153 1.342 . S
C152 C156 1.401 . S
C152 C157 1.499 . S
N153 Co136 1.989 . S
N153 C152 1.342 . S
N153 N154 1.388 . S
N154 Co137 1.993 . S
N154 N153 1.388 . S
N154 C155 1.346 . S
C155 N154 1.346 . S
C155 C156 1.396 . S
C155 C165 1.510 . S
C156 C152 1.401 . S
C156 C155 1.396 . S
C157 C152 1.499 . S
C157 H158 0.959 . S
C157 H159 0.960 . S
C157 H160 0.961 . S
H158 C157 0.959 . S
H159 C157 0.960 . S
H160 C157 0.961 . S
O161 Co136 1.967 . S
O161 C169 1.258 . S
O162 Co137 1.941 . S
O162 C169 1.266 . S
H163 C165 0.959 . S
H164 C165 0.961 . S
C165 C155 1.510 . S
C165 H163 0.959 . S
C165 H164 0.961 . S
C165 H166 0.960 . S
H166 C165 0.960 . S
H167 N147 0.862 . S
O168 Co136 1.920 . S
O168 C141 1.289 . S
C169 O161 1.258 . S
C169 O162 1.266 . S
Co170 O173 1.970 1_545 S
Co170 N187 1.989 . S
Co170 O195 1.967 . S
Co170 O202 1.920 . S
Co171 O174 1.966 . S
Co171 N180 2.022 . S
Co171 N188 1.993 . S
Co171 O196 1.941 . S
C172 O173 1.258 . S
C172 O174 1.263 1_565 S
O173 Co170 1.970 1_565 S
O173 C172 1.258 . S
O174 Co171 1.966 . S
O174 C172 1.263 1_545 S
C175 O176 1.235 1_545 S
C175 O202 1.289 . S
O176 C175 1.235 1_565 S
C177 C179 1.400 . S
C177 N180 1.351 . S
C177 C182 1.501 1_545 S
C178 C179 1.387 . S
C178 N181 1.341 . S
C179 C177 1.400 . S
C179 C178 1.387 . S
N180 Co171 2.022 . S
N180 C177 1.351 . S
N180 N181 1.365 . S
N181 C178 1.341 . S
N181 N180 1.365 . S
N181 H201 0.862 . S
C182 C177 1.501 1_565 S
C182 H183 0.961 . S
C182 H184 0.961 . S
C182 H185 0.960 . S
H183 C182 0.961 . S
H184 C182 0.961 . S
H185 C182 0.960 . S
C186 N187 1.342 . S
C186 C190 1.401 . S
C186 C191 1.499 . S
N187 Co170 1.989 . S
N187 C186 1.342 . S
N187 N188 1.388 . S
N188 Co171 1.993 . S
N188 N187 1.388 . S
N188 C189 1.346 . S
C189 N188 1.346 . S
C189 C190 1.396 . S
C189 C199 1.510 . S
C190 C186 1.401 . S
C190 C189 1.396 . S
C191 C186 1.499 . S
C191 H192 0.959 . S
C191 H193 0.960 . S
C191 H194 0.961 . S
H192 C191 0.959 . S
H193 C191 0.960 . S
H194 C191 0.961 . S
O195 Co170 1.967 . S
O195 C203 1.258 . S
O196 Co171 1.941 . S
O196 C203 1.266 . S
H197 C199 0.959 . S
H198 C199 0.961 . S
C199 C189 1.510 . S
C199 H197 0.959 . S
C199 H198 0.961 . S
C199 H200 0.960 . S
H200 C199 0.960 . S
H201 N181 0.862 . S
O202 Co170 1.920 . S
O202 C175 1.289 . S
C203 O195 1.258 . S
C203 O196 1.266 . S
Co204 O207 1.970 . S
Co204 N221 1.989 . S
Co204 O229 1.967 . S
Co204 O236 1.920 . S
Co205 O208 1.966 . S
Co205 N214 2.022 . S
Co205 N222 1.993 . S
Co205 O230 1.941 . S
C206 O207 1.258 . S
C206 O208 1.263 . S
O207 Co204 1.970 . S
O207 C206 1.258 . S
O208 Co205 1.966 . S
O208 C206 1.263 . S
C209 O210 1.235 . S
C209 O236 1.289 . S
O210 C209 1.235 . S
C211 C213 1.400 . S
C211 N214 1.351 . S
C211 C216 1.501 . S
C212 C213 1.387 . S
C212 N215 1.341 . S
C213 C211 1.400 . S
C213 C212 1.387 . S
N214 Co205 2.022 . S
N214 C211 1.351 . S
N214 N215 1.365 . S
N215 C212 1.341 . S
N215 N214 1.365 . S
N215 H235 0.862 . S
C216 C211 1.501 . S
C216 H217 0.961 . S
C216 H218 0.961 . S
C216 H219 0.960 . S
H217 C216 0.961 . S
H218 C216 0.961 . S
H219 C216 0.960 . S
C220 N221 1.342 . S
C220 C224 1.401 . S
C220 C225 1.499 . S
N221 Co204 1.989 . S
N221 C220 1.342 . S
N221 N222 1.388 . S
N222 Co205 1.993 . S
N222 N221 1.388 . S
N222 C223 1.346 . S
C223 N222 1.346 . S
C223 C224 1.396 . S
C223 C233 1.510 . S
C224 C220 1.401 . S
C224 C223 1.396 . S
C225 C220 1.499 . S
C225 H226 0.959 . S
C225 H227 0.960 . S
C225 H228 0.961 . S
H226 C225 0.959 . S
H227 C225 0.960 . S
H228 C225 0.961 . S
O229 Co204 1.967 . S
O229 C237 1.258 . S
O230 Co205 1.941 . S
O230 C237 1.266 . S
H231 C233 0.959 . S
H232 C233 0.961 . S
C233 C223 1.510 . S
C233 H231 0.959 . S
C233 H232 0.961 . S
C233 H234 0.960 . S
H234 C233 0.960 . S
H235 N215 0.862 . S
O236 Co204 1.920 . S
O236 C209 1.289 . S
C237 O229 1.258 . S
C237 O230 1.266 . S
Co238 O241 1.970 1_655 S
Co238 N255 1.989 . S
Co238 O263 1.967 . S
Co238 O270 1.920 . S
Co239 O242 1.966 . S
Co239 N248 2.022 . S
Co239 N256 1.993 . S
Co239 O264 1.941 . S
C240 O241 1.258 . S
C240 O242 1.263 1_455 S
O241 Co238 1.970 1_455 S
O241 C240 1.258 . S
O242 Co239 1.966 . S
O242 C240 1.263 1_655 S
C243 O244 1.235 1_655 S
C243 O270 1.289 . S
O244 C243 1.235 1_455 S
C245 C247 1.400 . S
C245 N248 1.351 . S
C245 C250 1.501 1_655 S
C246 C247 1.387 . S
C246 N249 1.341 . S
C247 C245 1.400 . S
C247 C246 1.387 . S
N248 Co239 2.022 . S
N248 C245 1.351 . S
N248 N249 1.365 . S
N249 C246 1.341 . S
N249 N248 1.365 . S
N249 H269 0.862 . S
C250 C245 1.501 1_455 S
C250 H251 0.961 . S
C250 H252 0.961 . S
C250 H253 0.960 . S
H251 C250 0.961 . S
H252 C250 0.961 . S
H253 C250 0.960 . S
C254 N255 1.342 . S
C254 C258 1.401 . S
C254 C259 1.499 . S
N255 Co238 1.989 . S
N255 C254 1.342 . S
N255 N256 1.388 . S
N256 Co239 1.993 . S
N256 N255 1.388 . S
N256 C257 1.346 . S
C257 N256 1.346 . S
C257 C258 1.396 . S
C257 C267 1.510 . S
C258 C254 1.401 . S
C258 C257 1.396 . S
C259 C254 1.499 . S
C259 H260 0.959 . S
C259 H261 0.960 . S
C259 H262 0.961 . S
H260 C259 0.959 . S
H261 C259 0.960 . S
H262 C259 0.961 . S
O263 Co238 1.967 . S
O263 C271 1.258 . S
O264 Co239 1.941 . S
O264 C271 1.266 . S
H265 C267 0.959 . S
H266 C267 0.961 . S
C267 C257 1.510 . S
C267 H265 0.959 . S
C267 H266 0.961 . S
C267 H268 0.960 . S
H268 C267 0.960 . S
H269 N249 0.862 . S
O270 Co238 1.920 . S
O270 C243 1.289 . S
C271 O263 1.258 . S
C271 O264 1.266 . S
Co272 O275 1.970 1_565 S
Co272 N289 1.989 . S
Co272 O297 1.967 . S
Co272 O304 1.920 . S
Co273 O276 1.966 . S
Co273 N282 2.022 . S
Co273 N290 1.993 . S
Co273 O298 1.941 . S
C274 O275 1.258 . S
C274 O276 1.263 1_545 S
O275 Co272 1.970 1_545 S
O275 C274 1.258 . S
O276 Co273 1.966 . S
O276 C274 1.263 1_565 S
C277 O278 1.235 1_565 S
C277 O304 1.289 . S
O278 C277 1.235 1_545 S
C279 C281 1.400 . S
C279 N282 1.351 . S
C279 C284 1.501 1_565 S
C280 C281 1.387 . S
C280 N283 1.341 . S
C281 C279 1.400 . S
C281 C280 1.387 . S
N282 Co273 2.022 . S
N282 C279 1.351 . S
N282 N283 1.365 . S
N283 C280 1.341 . S
N283 N282 1.365 . S
N283 H303 0.862 . S
C284 C279 1.501 1_545 S
C284 H285 0.961 . S
C284 H286 0.961 . S
C284 H287 0.960 . S
H285 C284 0.961 . S
H286 C284 0.961 . S
H287 C284 0.960 . S
C288 N289 1.342 . S
C288 C292 1.401 . S
C288 C293 1.499 . S
N289 Co272 1.989 . S
N289 C288 1.342 . S
N289 N290 1.388 . S
N290 Co273 1.993 . S
N290 N289 1.388 . S
N290 C291 1.346 . S
C291 N290 1.346 . S
C291 C292 1.396 . S
C291 C301 1.510 . S
C292 C288 1.401 . S
C292 C291 1.396 . S
C293 C288 1.499 . S
C293 H294 0.959 . S
C293 H295 0.960 . S
C293 H296 0.961 . S
H294 C293 0.959 . S
H295 C293 0.960 . S
H296 C293 0.961 . S
O297 Co272 1.967 . S
O297 C305 1.258 . S
O298 Co273 1.941 . S
O298 C305 1.266 . S
H299 C301 0.959 . S
H300 C301 0.961 . S
C301 C291 1.510 . S
C301 H299 0.959 . S
C301 H300 0.961 . S
C301 H302 0.960 . S
H302 C301 0.960 . S
H303 N283 0.862 . S
O304 Co272 1.920 . S
O304 C277 1.289 . S
C305 O297 1.258 . S
C305 O298 1.266 . S
Co306 O309 1.970 . S
Co306 N323 1.989 . S
Co306 O331 1.967 . S
Co306 O338 1.920 . S
Co307 O310 1.966 . S
Co307 N316 2.022 . S
Co307 N324 1.993 . S
Co307 O332 1.941 . S
C308 O309 1.258 . S
C308 O310 1.263 . S
O309 Co306 1.970 . S
O309 C308 1.258 . S
O310 Co307 1.966 . S
O310 C308 1.263 . S
C311 O312 1.235 . S
C311 O338 1.289 . S
O312 C311 1.235 . S
C313 C315 1.400 . S
C313 N316 1.351 . S
C313 C318 1.501 . S
C314 C315 1.387 . S
C314 N317 1.341 . S
C315 C313 1.400 . S
C315 C314 1.387 . S
N316 Co307 2.022 . S
N316 C313 1.351 . S
N316 N317 1.365 . S
N317 C314 1.341 . S
N317 N316 1.365 . S
N317 H337 0.862 . S
C318 C313 1.501 . S
C318 H319 0.961 . S
C318 H320 0.961 . S
C318 H321 0.960 . S
H319 C318 0.961 . S
H320 C318 0.961 . S
H321 C318 0.960 . S
C322 N323 1.342 . S
C322 C326 1.401 . S
C322 C327 1.499 . S
N323 Co306 1.989 . S
N323 C322 1.342 . S
N323 N324 1.388 . S
N324 Co307 1.993 . S
N324 N323 1.388 . S
N324 C325 1.346 . S
C325 N324 1.346 . S
C325 C326 1.396 . S
C325 C335 1.510 . S
C326 C322 1.401 . S
C326 C325 1.396 . S
C327 C322 1.499 . S
C327 H328 0.959 . S
C327 H329 0.960 . S
C327 H330 0.961 . S
H328 C327 0.959 . S
H329 C327 0.960 . S
H330 C327 0.961 . S
O331 Co306 1.967 . S
O331 C339 1.258 . S
O332 Co307 1.941 . S
O332 C339 1.266 . S
H333 C335 0.959 . S
H334 C335 0.961 . S
C335 C325 1.510 . S
C335 H333 0.959 . S
C335 H334 0.961 . S
C335 H336 0.960 . S
H336 C335 0.960 . S
H337 N317 0.862 . S
O338 Co306 1.920 . S
O338 C311 1.289 . S
C339 O331 1.258 . S
C339 O332 1.266 . S
Co340 O343 1.970 1_455 S
Co340 N357 1.989 . S
Co340 O365 1.967 . S
Co340 O372 1.920 . S
Co341 O344 1.966 . S
Co341 N350 2.022 . S
Co341 N358 1.993 . S
Co341 O366 1.941 . S
C342 O343 1.258 . S
C342 O344 1.263 1_655 S
O343 Co340 1.970 1_655 S
O343 C342 1.258 . S
O344 Co341 1.966 . S
O344 C342 1.263 1_455 S
C345 O346 1.235 1_455 S
C345 O372 1.289 . S
O346 C345 1.235 1_655 S
C347 C349 1.400 . S
C347 N350 1.351 . S
C347 C352 1.501 1_455 S
C348 C349 1.387 . S
C348 N351 1.341 . S
C349 C347 1.400 . S
C349 C348 1.387 . S
N350 Co341 2.022 . S
N350 C347 1.351 . S
N350 N351 1.365 . S
N351 C348 1.341 . S
N351 N350 1.365 . S
N351 H371 0.862 . S
C352 C347 1.501 1_655 S
C352 H353 0.961 . S
C352 H354 0.961 . S
C352 H355 0.960 . S
H353 C352 0.961 . S
H354 C352 0.961 . S
H355 C352 0.960 . S
C356 N357 1.342 . S
C356 C360 1.401 . S
C356 C361 1.499 . S
N357 Co340 1.989 . S
N357 C356 1.342 . S
N357 N358 1.388 . S
N358 Co341 1.993 . S
N358 N357 1.388 . S
N358 C359 1.346 . S
C359 N358 1.346 . S
C359 C360 1.396 . S
C359 C369 1.510 . S
C360 C356 1.401 . S
C360 C359 1.396 . S
C361 C356 1.499 . S
C361 H362 0.959 . S
C361 H363 0.960 . S
C361 H364 0.961 . S
H362 C361 0.959 . S
H363 C361 0.960 . S
H364 C361 0.961 . S
O365 Co340 1.967 . S
O365 C373 1.258 . S
O366 Co341 1.941 . S
O366 C373 1.266 . S
H367 C369 0.959 . S
H368 C369 0.961 . S
C369 C359 1.510 . S
C369 H367 0.959 . S
C369 H368 0.961 . S
C369 H370 0.960 . S
H370 C369 0.960 . S
H371 N351 0.862 . S
O372 Co340 1.920 . S
O372 C345 1.289 . S
C373 O365 1.258 . S
C373 O366 1.266 . S
Co374 O377 1.970 1_545 S
Co374 N391 1.989 . S
Co374 O399 1.967 . S
Co374 O406 1.920 . S
Co375 O378 1.966 . S
Co375 N384 2.022 . S
Co375 N392 1.993 . S
Co375 O400 1.941 . S
C376 O377 1.258 . S
C376 O378 1.263 1_565 S
O377 Co374 1.970 1_565 S
O377 C376 1.258 . S
O378 Co375 1.966 . S
O378 C376 1.263 1_545 S
C379 O380 1.235 1_545 S
C379 O406 1.289 . S
O380 C379 1.235 1_565 S
C381 C383 1.400 . S
C381 N384 1.351 . S
C381 C386 1.501 1_545 S
C382 C383 1.387 . S
C382 N385 1.341 . S
C383 C381 1.400 . S
C383 C382 1.387 . S
N384 Co375 2.022 . S
N384 C381 1.351 . S
N384 N385 1.365 . S
N385 C382 1.341 . S
N385 N384 1.365 . S
N385 H405 0.862 . S
C386 C381 1.501 1_565 S
C386 H387 0.961 . S
C386 H388 0.961 . S
C386 H389 0.960 . S
H387 C386 0.961 . S
H388 C386 0.961 . S
H389 C386 0.960 . S
C390 N391 1.342 . S
C390 C394 1.401 . S
C390 C395 1.499 . S
N391 Co374 1.989 . S
N391 C390 1.342 . S
N391 N392 1.388 . S
N392 Co375 1.993 . S
N392 N391 1.388 . S
N392 C393 1.346 . S
C393 N392 1.346 . S
C393 C394 1.396 . S
C393 C403 1.510 . S
C394 C390 1.401 . S
C394 C393 1.396 . S
C395 C390 1.499 . S
C395 H396 0.959 . S
C395 H397 0.960 . S
C395 H398 0.961 . S
H396 C395 0.959 . S
H397 C395 0.960 . S
H398 C395 0.961 . S
O399 Co374 1.967 . S
O399 C407 1.258 . S
O400 Co375 1.941 . S
O400 C407 1.266 . S
H401 C403 0.959 . S
H402 C403 0.961 . S
C403 C393 1.510 . S
C403 H401 0.959 . S
C403 H402 0.961 . S
C403 H404 0.960 . S
H404 C403 0.960 . S
H405 N385 0.862 . S
O406 Co374 1.920 . S
O406 C379 1.289 . S
C407 O399 1.258 . S
C407 O400 1.266 . S
C408 C409 1.363 . S
C408 C414 1.379 . S
C408 N416 1.356 . S
C409 C408 1.363 . S
C409 C415 1.363 . S
C410 C411 1.363 . S
C410 C415 1.379 . S
C410 N417 1.356 . S
C411 C410 1.363 . S
C411 C414 1.363 . S
N412 C414 1.356 . S
N412 H424 0.984 . S
N412 H425 0.985 . S
N413 C415 1.356 . S
N413 H418 0.984 . S
N413 H419 0.985 . S
C414 C408 1.379 . S
C414 C411 1.363 . S
C414 N412 1.356 . S
C415 C409 1.363 . S
C415 C410 1.379 . S
C415 N413 1.356 . S
N416 C408 1.356 . S
N416 H422 0.984 . S
N416 H423 0.984 . S
N417 C410 1.356 . S
N417 H420 0.984 . S
N417 H421 0.985 . S
H418 N413 0.984 . S
H419 N413 0.985 . S
H420 N417 0.984 . S
H421 N417 0.985 . S
H422 N416 0.984 . S
H423 N416 0.984 . S
H424 N412 0.984 . S
H425 N412 0.985 . S
C426 C427 1.363 1_655 S
C426 C432 1.379 . S
C426 N434 1.356 . S
C427 C426 1.363 1_455 S
C427 C433 1.363 . S
C428 C429 1.363 1_455 S
C428 C433 1.379 . S
C428 N435 1.356 . S
C429 C428 1.363 1_655 S
C429 C432 1.363 . S
N430 C432 1.356 . S
N430 H442 0.984 . S
N430 H443 0.985 . S
N431 C433 1.356 . S
N431 H436 0.984 . S
N431 H437 0.985 . S
C432 C426 1.379 . S
C432 C429 1.363 . S
C432 N430 1.356 . S
C433 C427 1.363 . S
C433 C428 1.379 . S
C433 N431 1.356 . S
N434 C426 1.356 . S
N434 H440 0.984 . S
N434 H441 0.984 1_655 S
N435 C428 1.356 . S
N435 H438 0.984 1_455 S
N435 H439 0.985 . S
H436 N431 0.984 . S
H437 N431 0.985 . S
H438 N435 0.984 1_655 S
H439 N435 0.985 . S
H440 N434 0.984 . S
H441 N434 0.984 1_455 S
H442 N430 0.984 . S
H443 N430 0.985 . S
C444 C445 1.363 1_565 S
C444 C450 1.379 . S
C444 N452 1.356 . S
C445 C444 1.363 1_545 S
C445 C451 1.363 . S
C446 C447 1.363 1_545 S
C446 C451 1.379 . S
C446 N453 1.356 . S
C447 C446 1.363 1_565 S
C447 C450 1.363 . S
N448 C450 1.356 . S
N448 H460 0.984 . S
N448 H461 0.985 . S
N449 C451 1.356 . S
N449 H454 0.984 . S
N449 H455 0.985 . S
C450 C444 1.379 . S
C450 C447 1.363 . S
C450 N448 1.356 . S
C451 C445 1.363 . S
C451 C446 1.379 . S
C451 N449 1.356 . S
N452 C444 1.356 . S
N452 H458 0.984 . S
N452 H459 0.984 1_565 S
N453 C446 1.356 . S
N453 H456 0.984 1_545 S
N453 H457 0.985 . S
H454 N449 0.984 . S
H455 N449 0.985 . S
H456 N453 0.984 1_565 S
H457 N453 0.985 . S
H458 N452 0.984 . S
H459 N452 0.984 1_545 S
H460 N448 0.984 . S
H461 N448 0.985 . S
C462 C463 1.363 . S
C462 C468 1.379 . S
C462 N470 1.356 . S
C463 C462 1.363 . S
C463 C469 1.363 . S
C464 C465 1.363 . S
C464 C469 1.379 . S
C464 N471 1.356 . S
C465 C464 1.363 . S
C465 C468 1.363 . S
N466 C468 1.356 . S
N466 H478 0.984 . S
N466 H479 0.985 . S
N467 C469 1.356 . S
N467 H472 0.984 . S
N467 H473 0.985 . S
C468 C462 1.379 . S
C468 C465 1.363 . S
C468 N466 1.356 . S
C469 C463 1.363 . S
C469 C464 1.379 . S
C469 N467 1.356 . S
N470 C462 1.356 . S
N470 H476 0.984 . S
N470 H477 0.984 . S
N471 C464 1.356 . S
N471 H474 0.984 . S
N471 H475 0.985 . S
H472 N467 0.984 . S
H473 N467 0.985 . S
H474 N471 0.984 . S
H475 N471 0.985 . S
H476 N470 0.984 . S
H477 N470 0.984 . S
H478 N466 0.984 . S
H479 N466 0.985 . S
C480 C481 1.363 . S
C480 C486 1.379 . S
C480 N488 1.356 . S
C481 C480 1.363 . S
C481 C487 1.363 1_655 S
C482 C483 1.363 . S
C482 C487 1.379 . S
C482 N489 1.356 . S
C483 C482 1.363 . S
C483 C486 1.363 1_455 S
N484 C486 1.356 . S
N484 H496 0.984 . S
N484 H497 0.985 1_655 S
N485 C487 1.356 . S
N485 H490 0.984 1_455 S
N485 H491 0.985 . S
C486 C480 1.379 . S
C486 C483 1.363 1_655 S
C486 N484 1.356 . S
C487 C481 1.363 1_455 S
C487 C482 1.379 . S
C487 N485 1.356 . S
N488 C480 1.356 . S
N488 H494 0.984 . S
N488 H495 0.984 . S
N489 C482 1.356 . S
N489 H492 0.984 . S
N489 H493 0.985 . S
H490 N485 0.984 1_655 S
H491 N485 0.985 . S
H492 N489 0.984 . S
H493 N489 0.985 . S
H494 N488 0.984 . S
H495 N488 0.984 . S
H496 N484 0.984 . S
H497 N484 0.985 1_455 S
C498 C499 1.363 1_545 S
C498 C504 1.379 . S
C498 N506 1.356 . S
C499 C498 1.363 1_565 S
C499 C505 1.363 . S
C500 C501 1.363 1_565 S
C500 C505 1.379 . S
C500 N507 1.356 . S
C501 C500 1.363 1_545 S
C501 C504 1.363 . S
N502 C504 1.356 . S
N502 H514 0.984 . S
N502 H515 0.985 . S
N503 C505 1.356 . S
N503 H508 0.984 . S
N503 H509 0.985 . S
C504 C498 1.379 . S
C504 C501 1.363 . S
C504 N502 1.356 . S
C505 C499 1.363 . S
C505 C500 1.379 . S
C505 N503 1.356 . S
N506 C498 1.356 . S
N506 H512 0.984 . S
N506 H513 0.984 1_545 S
N507 C500 1.356 . S
N507 H510 0.984 1_565 S
N507 H511 0.985 . S
H508 N503 0.984 . S
H509 N503 0.985 . S
H510 N507 0.984 1_545 S
H511 N507 0.985 . S
H512 N506 0.984 . S
H513 N506 0.984 1_565 S
H514 N502 0.984 . S
H515 N502 0.985 . S
C516 C517 1.363 . S
C516 C522 1.379 . S
C516 N524 1.356 . S
C517 C516 1.363 . S
C517 C523 1.363 . S
C518 C519 1.363 . S
C518 C523 1.379 . S
C518 N525 1.356 . S
C519 C518 1.363 . S
C519 C522 1.363 . S
N520 C522 1.356 . S
N520 H532 0.984 . S
N520 H533 0.985 . S
N521 C523 1.356 . S
N521 H526 0.984 . S
N521 H527 0.985 . S
C522 C516 1.379 . S
C522 C519 1.363 . S
C522 N520 1.356 . S
C523 C517 1.363 . S
C523 C518 1.379 . S
C523 N521 1.356 . S
N524 C516 1.356 . S
N524 H530 0.984 . S
N524 H531 0.984 . S
N525 C518 1.356 . S
N525 H528 0.984 . S
N525 H529 0.985 . S
H526 N521 0.984 . S
H527 N521 0.985 . S
H528 N525 0.984 . S
H529 N525 0.985 . S
H530 N524 0.984 . S
H531 N524 0.984 . S
H532 N520 0.984 . S
H533 N520 0.985 . S
C534 C535 1.363 . S
C534 C540 1.379 . S
C534 N542 1.356 . S
C535 C534 1.363 . S
C535 C541 1.363 1_655 S
C536 C537 1.363 . S
C536 C541 1.379 . S
C536 N543 1.356 . S
C537 C536 1.363 . S
C537 C540 1.363 1_455 S
N538 C540 1.356 . S
N538 H550 0.984 . S
N538 H551 0.985 1_655 S
N539 C541 1.356 . S
N539 H544 0.984 1_455 S
N539 H545 0.985 . S
C540 C534 1.379 . S
C540 C537 1.363 1_655 S
C540 N538 1.356 . S
C541 C535 1.363 1_455 S
C541 C536 1.379 . S
C541 N539 1.356 . S
N542 C534 1.356 . S
N542 H548 0.984 . S
N542 H549 0.984 . S
N543 C536 1.356 . S
N543 H546 0.984 . S
N543 H547 0.985 . S
H544 N539 0.984 1_655 S
H545 N539 0.985 . S
H546 N543 0.984 . S
H547 N543 0.985 . S
H548 N542 0.984 . S
H549 N542 0.984 . S
H550 N538 0.984 . S
H551 N538 0.985 1_455 S
C552 C553 1.363 1_565 S
C552 C558 1.379 . S
C552 N560 1.356 . S
C553 C552 1.363 1_545 S
C553 C559 1.363 1_554 S
C554 C555 1.363 1_545 S
C554 C559 1.379 . S
C554 N561 1.356 . S
C555 C554 1.363 1_565 S
C555 C558 1.363 1_556 S
N556 C558 1.356 1_556 S
N556 H568 0.984 1_556 S
N556 H569 0.985 . S
N557 C559 1.356 1_554 S
N557 H562 0.984 . S
N557 H563 0.985 1_554 S
C558 C552 1.379 . S
C558 C555 1.363 1_554 S
C558 N556 1.356 1_554 S
C559 C553 1.363 1_556 S
C559 C554 1.379 . S
C559 N557 1.356 1_556 S
N560 C552 1.356 . S
N560 H566 0.984 . S
N560 H567 0.984 1_565 S
N561 C554 1.356 . S
N561 H564 0.984 1_545 S
N561 H565 0.985 . S
H562 N557 0.984 . S
H563 N557 0.985 1_556 S
H564 N561 0.984 1_565 S
H565 N561 0.985 . S
H566 N560 0.984 . S
H567 N560 0.984 1_545 S
H568 N556 0.984 1_554 S
H569 N556 0.985 . S
C570 C571 1.363 . S
C570 C576 1.379 . S
C570 N578 1.356 . S
C571 C570 1.363 . S
C571 C577 1.363 . S
C572 C573 1.363 . S
C572 C577 1.379 . S
C572 N579 1.356 . S
C573 C572 1.363 . S
C573 C576 1.363 . S
N574 C576 1.356 . S
N574 H586 0.984 . S
N574 H587 0.985 . S
N575 C577 1.356 . S
N575 H580 0.984 . S
N575 H581 0.985 . S
C576 C570 1.379 . S
C576 C573 1.363 . S
C576 N574 1.356 . S
C577 C571 1.363 . S
C577 C572 1.379 . S
C577 N575 1.356 . S
N578 C570 1.356 . S
N578 H584 0.984 . S
N578 H585 0.984 . S
N579 C572 1.356 . S
N579 H582 0.984 . S
N579 H583 0.985 . S
H580 N575 0.984 . S
H581 N575 0.985 . S
H582 N579 0.984 . S
H583 N579 0.985 . S
H584 N578 0.984 . S
H585 N578 0.984 . S
H586 N574 0.984 . S
H587 N574 0.985 . S
C588 C589 1.363 1_655 S
C588 C594 1.379 . S
C588 N596 1.356 . S
C589 C588 1.363 1_455 S
C589 C595 1.363 . S
C590 C591 1.363 1_455 S
C590 C595 1.379 . S
C590 N597 1.356 . S
C591 C590 1.363 1_655 S
C591 C594 1.363 . S
N592 C594 1.356 . S
N592 H604 0.984 . S
N592 H605 0.985 . S
N593 C595 1.356 . S
N593 H598 0.984 . S
N593 H599 0.985 . S
C594 C588 1.379 . S
C594 C591 1.363 . S
C594 N592 1.356 . S
C595 C589 1.363 . S
C595 C590 1.379 . S
C595 N593 1.356 . S
N596 C588 1.356 . S
N596 H602 0.984 . S
N596 H603 0.984 1_655 S
N597 C590 1.356 . S
N597 H600 0.984 1_455 S
N597 H601 0.985 . S
H598 N593 0.984 . S
H599 N593 0.985 . S
H600 N597 0.984 1_655 S
H601 N597 0.985 . S
H602 N596 0.984 . S
H603 N596 0.984 1_455 S
H604 N592 0.984 . S
H605 N592 0.985 . S
C606 C607 1.363 . S
C606 C612 1.379 1_556 S
C606 N614 1.356 . S
C607 C606 1.363 . S
C607 C613 1.363 1_545 S
C608 C609 1.363 . S
C608 C613 1.379 1_554 S
C608 N615 1.356 . S
C609 C608 1.363 . S
C609 C612 1.363 1_565 S
N610 C612 1.356 . S
N610 H622 0.984 . S
N610 H623 0.985 1_545 S
N611 C613 1.356 . S
N611 H616 0.984 1_565 S
N611 H617 0.985 . S
C612 C606 1.379 1_554 S
C612 C609 1.363 1_545 S
C612 N610 1.356 . S
C613 C607 1.363 1_565 S
C613 C608 1.379 1_556 S
C613 N611 1.356 . S
N614 C606 1.356 . S
N614 H620 0.984 1_556 S
N614 H621 0.984 . S
N615 C608 1.356 . S
N615 H618 0.984 . S
N615 H619 0.985 1_554 S
H616 N611 0.984 1_545 S
H617 N611 0.985 . S
H618 N615 0.984 . S
H619 N615 0.985 1_556 S
H620 N614 0.984 1_554 S
H621 N614 0.984 . S
H622 N610 0.984 . S
H623 N610 0.985 1_565 S
C624 C625 1.363 . S
C624 C630 1.379 1_445 S
C624 N632 1.356 . S
C625 C624 1.363 . S
C625 C631 1.363 . S
C626 C627 1.363 . S
C626 C631 1.379 1_665 S
C626 N633 1.356 . S
C627 C626 1.363 . S
C627 C630 1.363 . S
N628 C630 1.356 . S
N628 H640 0.979 1_655 S
N628 H641 0.985 . S
N629 C631 1.356 . S
N629 H634 0.984 . S
N629 H635 0.979 1_455 S
C630 C624 1.379 1_665 S
C630 C627 1.363 . S
C630 N628 1.356 . S
C631 C625 1.363 . S
C631 C626 1.379 1_445 S
C631 N629 1.356 . S
N632 C624 1.356 . S
N632 H638 0.984 . S
N632 H639 0.984 . S
N633 C626 1.356 . S
N633 H636 0.984 . S
N633 H637 0.985 . S
H634 N629 0.984 . S
H635 N629 0.979 1_655 S
H636 N633 0.984 . S
H637 N633 0.985 . S
H638 N632 0.984 . S
H639 N632 0.984 . S
H640 N628 0.979 1_455 S
H641 N628 0.985 . S
C642 C643 1.363 1_455 S
C642 C648 1.379 1_545 S
C642 N650 1.356 . S
C643 C642 1.363 1_655 S
C643 C649 1.363 . S
C644 C645 1.363 1_655 S
C644 C649 1.379 1_565 S
C644 N651 1.356 . S
C645 C644 1.363 1_455 S
C645 C648 1.363 . S
N646 C648 1.356 . S
N646 H658 0.982 1_565 S
N646 H659 0.985 . S
N647 C649 1.356 . S
N647 H652 0.984 . S
N647 H653 0.982 1_545 S
C648 C642 1.379 1_565 S
C648 C645 1.363 . S
C648 N646 1.356 . S
C649 C643 1.363 . S
C649 C644 1.379 1_545 S
C649 N647 1.356 . S
N650 C642 1.356 . S
N650 H656 0.984 . S
N650 H657 0.984 . S
N651 C644 1.356 . S
N651 H654 0.984 . S
N651 H655 0.985 . S
H652 N647 0.984 . S
H653 N647 0.982 1_565 S
H654 N651 0.984 . S
H655 N651 0.985 . S
H656 N650 0.984 . S
H657 N650 0.984 . S
H658 N646 0.982 1_545 S
H659 N646 0.985 . S
C660 C661 1.363 1_565 S
C660 C666 1.379 1_455 S
C660 N668 1.356 . S
C661 C660 1.363 1_545 S
C661 C667 1.363 . S
C662 C663 1.363 1_545 S
C662 C667 1.379 1_655 S
C662 N669 1.356 . S
C663 C662 1.363 1_565 S
C663 C666 1.363 . S
N664 C666 1.356 . S
N664 H676 0.984 . S
N664 H677 0.985 . S
N665 C667 1.356 . S
N665 H670 0.984 . S
N665 H671 0.985 . S
C666 C660 1.379 1_655 S
C666 C663 1.363 . S
C666 N664 1.356 . S
C667 C661 1.363 . S
C667 C662 1.379 1_455 S
C667 N665 1.356 . S
N668 C660 1.356 . S
N668 H674 0.984 . S
N668 H675 0.984 . S
N669 C662 1.356 . S
N669 H672 0.984 . S
N669 H673 0.985 . S
H670 N665 0.984 . S
H671 N665 0.985 . S
H672 N669 0.984 . S
H673 N669 0.985 . S
H674 N668 0.984 . S
H675 N668 0.984 . S
H676 N664 0.984 . S
H677 N664 0.985 . S
C678 C679 1.363 . S
C678 C684 1.379 1_665 S
C678 N686 1.356 . S
C679 C678 1.363 . S
C679 C685 1.363 . S
C680 C681 1.363 . S
C680 C685 1.379 1_445 S
C680 N687 1.356 . S
C681 C680 1.363 . S
C681 C684 1.363 . S
N682 C684 1.356 . S
N682 H694 0.984 . S
N682 H695 0.985 . S
N683 C685 1.356 . S
N683 H688 0.984 . S
N683 H689 0.985 . S
C684 C678 1.379 1_445 S
C684 C681 1.363 . S
C684 N682 1.356 . S
C685 C679 1.363 . S
C685 C680 1.379 1_665 S
C685 N683 1.356 . S
N686 C678 1.356 . S
N686 H692 0.979 1_565 S
N686 H693 0.984 . S
N687 C680 1.356 . S
N687 H690 0.984 . S
N687 H691 0.979 1_545 S
H688 N683 0.984 . S
H689 N683 0.985 . S
H690 N687 0.984 . S
H691 N687 0.979 1_565 S
H692 N686 0.979 1_545 S
H693 N686 0.984 . S
H694 N682 0.984 . S
H695 N682 0.985 . S
C696 C697 1.363 1_455 S
C696 C702 1.379 1_565 S
C696 N704 1.356 . S
C697 C696 1.363 1_655 S
C697 C703 1.363 . S
C698 C699 1.363 1_655 S
C698 C703 1.379 1_545 S
C698 N705 1.356 . S
C699 C698 1.363 1_455 S
C699 C702 1.363 . S
N700 C702 1.356 . S
N700 H712 0.984 . S
N700 H713 0.985 . S
N701 C703 1.356 . S
N701 H706 0.984 . S
N701 H707 0.985 . S
C702 C696 1.379 1_545 S
C702 C699 1.363 . S
C702 N700 1.356 . S
C703 C697 1.363 . S
C703 C698 1.379 1_565 S
C703 N701 1.356 . S
N704 C696 1.356 . S
N704 H710 0.984 . S
N704 H711 0.984 . S
N705 C698 1.356 . S
N705 H708 0.984 . S
N705 H709 0.985 . S
H706 N701 0.984 . S
H707 N701 0.985 . S
H708 N705 0.984 . S
H709 N705 0.985 . S
H710 N704 0.984 . S
H711 N704 0.984 . S
H712 N700 0.984 . S
H713 N700 0.985 . S
C714 C715 1.363 . S
C714 C720 1.379 1_655 S
C714 N722 1.356 . S
C715 C714 1.363 . S
C715 C721 1.363 1_545 S
C716 C717 1.363 . S
C716 C721 1.379 1_455 S
C716 N723 1.356 . S
C717 C716 1.363 . S
C717 C720 1.363 1_565 S
N718 C720 1.356 . S
N718 H730 0.984 . S
N718 H731 0.985 . S
N719 C721 1.356 . S
N719 H724 0.984 . S
N719 H725 0.985 . S
C720 C714 1.379 1_455 S
C720 C717 1.363 1_545 S
C720 N718 1.356 . S
C721 C715 1.363 1_565 S
C721 C716 1.379 1_655 S
C721 N719 1.356 . S
N722 C714 1.356 . S
N722 H728 0.982 1_655 S
N722 H729 0.984 . S
N723 C716 1.356 . S
N723 H726 0.984 . S
N723 H727 0.982 1_455 S
H724 N719 0.984 . S
H725 N719 0.985 . S
H726 N723 0.984 . S
H727 N723 0.982 1_655 S
H728 N722 0.982 1_455 S
H729 N722 0.984 . S
H730 N718 0.984 . S
H731 N718 0.985 . S
C732 C733 1.363 . S
C732 C738 1.378 1_655 S
C732 N740 1.356 . S
C733 C732 1.363 . S
C733 C739 1.364 . S
C734 C735 1.363 . S
C734 C739 1.378 1_455 S
C734 N741 1.356 . S
C735 C734 1.363 . S
C735 C738 1.364 . S
N736 C738 1.357 . S
N736 H748 0.984 1_455 S
N736 H749 0.985 . S
N737 C739 1.357 . S
N737 H742 0.984 . S
N737 H743 0.985 1_655 S
C738 C732 1.378 1_455 S
C738 C735 1.364 . S
C738 N736 1.357 . S
C739 C733 1.364 . S
C739 C734 1.378 1_655 S
C739 N737 1.357 . S
N740 C732 1.356 . S
N740 H746 0.984 . S
N740 H747 0.984 . S
N741 C734 1.356 . S
N741 H744 0.984 . S
N741 H745 0.985 . S
H742 N737 0.984 . S
H743 N737 0.985 1_455 S
H744 N741 0.984 . S
H745 N741 0.985 . S
H746 N740 0.984 . S
H747 N740 0.984 . S
H748 N736 0.984 1_655 S
H749 N736 0.985 . S
C750 C751 1.363 . S
C750 C756 1.379 1_545 S
C750 N758 1.356 . S
C751 C750 1.363 . S
C751 C757 1.363 . S
C752 C753 1.363 . S
C752 C757 1.379 1_565 S
C752 N759 1.356 . S
C753 C752 1.363 . S
C753 C756 1.363 . S
N754 C756 1.356 . S
N754 H766 0.984 . S
N754 H767 0.985 . S
N755 C757 1.356 . S
N755 H760 0.984 . S
N755 H761 0.985 . S
C756 C750 1.379 1_565 S
C756 C753 1.363 . S
C756 N754 1.356 . S
C757 C751 1.363 . S
C757 C752 1.379 1_545 S
C757 N755 1.356 . S
N758 C750 1.356 . S
N758 H764 0.984 . S
N758 H765 0.984 . S
N759 C752 1.356 . S
N759 H762 0.984 . S
N759 H763 0.985 . S
H760 N755 0.984 . S
H761 N755 0.985 . S
H762 N759 0.984 . S
H763 N759 0.985 . S
H764 N758 0.984 . S
H765 N758 0.984 . S
H766 N754 0.984 . S
H767 N754 0.985 . S
C768 C769 1.363 . S
C768 C774 1.379 . S
C768 N776 1.356 . S
C769 C768 1.363 . S
C769 C775 1.363 . S
C770 C771 1.363 . S
C770 C775 1.379 . S
C770 N777 1.356 . S
C771 C770 1.363 . S
C771 C774 1.363 . S
N772 C774 1.356 . S
N772 H784 0.984 . S
N772 H785 0.985 . S
N773 C775 1.356 . S
N773 H778 0.984 . S
N773 H779 0.985 . S
C774 C768 1.379 . S
C774 C771 1.363 . S
C774 N772 1.356 . S
C775 C769 1.363 . S
C775 C770 1.379 . S
C775 N773 1.356 . S
N776 C768 1.356 . S
N776 H782 0.984 . S
N776 H783 0.984 . S
N777 C770 1.356 . S
N777 H780 0.984 . S
N777 H781 0.985 . S
H778 N773 0.984 . S
H779 N773 0.985 . S
H780 N777 0.984 . S
H781 N777 0.985 . S
H782 N776 0.984 . S
H783 N776 0.984 . S
H784 N772 0.984 . S
H785 N772 0.985 . S
C786 C787 1.363 . S
C786 C792 1.379 . S
C786 N794 1.356 . S
C787 C786 1.363 . S
C787 C793 1.363 1_455 S
C788 C789 1.363 . S
C788 C793 1.379 . S
C788 N795 1.356 . S
C789 C788 1.363 . S
C789 C792 1.363 1_655 S
N790 C792 1.356 1_655 S
N790 H802 0.984 1_655 S
N790 H803 0.985 . S
N791 C793 1.356 1_455 S
N791 H796 0.984 . S
N791 H797 0.985 1_455 S
C792 C786 1.379 . S
C792 C789 1.363 1_455 S
C792 N790 1.356 1_455 S
C793 C787 1.363 1_655 S
C793 C788 1.379 . S
C793 N791 1.356 1_655 S
N794 C786 1.356 . S
N794 H800 0.984 . S
N794 H801 0.984 . S
N795 C788 1.356 . S
N795 H798 0.984 . S
N795 H799 0.985 . S
H796 N791 0.984 . S
H797 N791 0.985 1_655 S
H798 N795 0.984 . S
H799 N795 0.985 . S
H800 N794 0.984 . S
H801 N794 0.984 . S
H802 N790 0.984 1_455 S
H803 N790 0.985 . S
C804 C805 1.363 . S
C804 C810 1.379 1_565 S
C804 N812 1.356 . S
C805 C804 1.363 . S
C805 C811 1.363 . S
C806 C807 1.363 . S
C806 C811 1.379 1_545 S
C806 N813 1.356 . S
C807 C806 1.363 . S
C807 C810 1.363 . S
N808 C810 1.356 . S
N808 H820 0.984 . S
N808 H821 0.985 . S
N809 C811 1.356 . S
N809 H814 0.984 . S
N809 H815 0.985 . S
C810 C804 1.379 1_545 S
C810 C807 1.363 . S
C810 N808 1.356 . S
C811 C805 1.363 . S
C811 C806 1.379 1_565 S
C811 N809 1.356 . S
N812 C804 1.356 . S
N812 H818 0.969 1_565 S
N812 H819 0.984 . S
N813 C806 1.356 . S
N813 H816 0.984 . S
N813 H817 0.969 1_545 S
H814 N809 0.984 . S
H815 N809 0.985 . S
H816 N813 0.984 . S
H817 N813 0.969 1_565 S
H818 N812 0.969 1_545 S
H819 N812 0.984 . S
H820 N808 0.984 . S
H821 N808 0.985 . S
C822 C823 1.363 . S
C822 C828 1.379 . S
C822 N830 1.356 . S
C823 C822 1.363 . S
C823 C829 1.363 . S
C824 C825 1.363 . S
C824 C829 1.379 . S
C824 N831 1.356 . S
C825 C824 1.363 . S
C825 C828 1.363 . S
N826 C828 1.356 . S
N826 H838 0.984 . S
N826 H839 0.985 . S
N827 C829 1.356 . S
N827 H832 0.984 . S
N827 H833 0.985 . S
C828 C822 1.379 . S
C828 C825 1.363 . S
C828 N826 1.356 . S
C829 C823 1.363 . S
C829 C824 1.379 . S
C829 N827 1.356 . S
N830 C822 1.356 . S
N830 H836 0.984 . S
N830 H837 0.984 . S
N831 C824 1.356 . S
N831 H834 0.984 . S
N831 H835 0.985 . S
H832 N827 0.984 . S
H833 N827 0.985 . S
H834 N831 0.984 . S
H835 N831 0.985 . S
H836 N830 0.984 . S
H837 N830 0.984 . S
H838 N826 0.984 . S
H839 N826 0.985 . S
C840 C841 1.363 . S
C840 C846 1.379 . S
C840 N848 1.356 . S
C841 C840 1.363 . S
C841 C847 1.363 . S
C842 C843 1.363 . S
C842 C847 1.379 . S
C842 N849 1.356 . S
C843 C842 1.363 . S
C843 C846 1.363 . S
N844 C846 1.356 . S
N844 H856 0.984 . S
N844 H857 0.977 1_545 S
N845 C847 1.356 . S
N845 H850 0.984 . S
N845 H851 0.985 . S
C846 C840 1.379 . S
C846 C843 1.363 . S
C846 N844 1.356 . S
C847 C841 1.363 . S
C847 C842 1.379 . S
C847 N845 1.356 . S
N848 C840 1.356 . S
N848 H854 0.984 . S
N848 H855 0.984 . S
N849 C842 1.356 . S
N849 H852 0.984 . S
N849 H853 0.985 . S
H850 N845 0.984 . S
H851 N845 0.985 . S
H852 N849 0.984 . S
H853 N849 0.985 . S
H854 N848 0.984 . S
H855 N848 0.984 . S
H856 N844 0.984 . S
H857 N844 0.977 1_565 S
C858 C859 1.363 . S
C858 C864 1.379 . S
C858 N866 1.356 . S
C859 C858 1.363 . S
C859 C865 1.363 . S
C860 C861 1.363 . S
C860 C865 1.379 . S
C860 N867 1.356 . S
C861 C860 1.363 . S
C861 C864 1.363 . S
N862 C864 1.356 . S
N862 H874 0.984 . S
N862 H875 0.985 . S
N863 C865 1.356 . S
N863 H868 1.006 . S
N863 H869 0.985 . S
C864 C858 1.379 . S
C864 C861 1.363 . S
C864 N862 1.356 . S
C865 C859 1.363 . S
C865 C860 1.379 . S
C865 N863 1.356 . S
N866 C858 1.356 . S
N866 H872 0.984 . S
N866 H873 0.984 . S
N867 C860 1.356 . S
N867 H870 0.984 . S
N867 H871 0.985 . S
H868 N863 1.006 . S
H869 N863 0.985 . S
H870 N867 0.984 . S
H871 N867 0.985 . S
H872 N866 0.984 . S
H873 N866 0.984 . S
H874 N862 0.984 . S
H875 N862 0.985 . S
C876 C877 1.363 . S
C876 C882 1.379 . S
C876 N884 1.356 . S
C877 C876 1.363 . S
C877 C883 1.363 . S
C878 C879 1.363 . S
C878 C883 1.379 . S
C878 N885 1.356 . S
C879 C878 1.363 . S
C879 C882 1.363 . S
N880 C882 1.356 . S
N880 H892 0.984 . S
N880 H893 0.985 . S
N881 C883 1.356 . S
N881 H886 0.984 1_655 S
N881 H887 0.985 1_655 S
C882 C876 1.379 . S
C882 C879 1.363 . S
C882 N880 1.356 . S
C883 C877 1.363 . S
C883 C878 1.379 . S
C883 N881 1.356 . S
N884 C876 1.356 . S
N884 H890 0.984 . S
N884 H891 0.984 . S
N885 C878 1.356 . S
N885 H888 0.984 . S
N885 H889 0.985 . S
H886 N881 0.984 1_455 S
H887 N881 0.985 1_455 S
H888 N885 0.984 . S
H889 N885 0.985 . S
H890 N884 0.984 . S
H891 N884 0.984 . S
H892 N880 0.984 . S
H893 N880 0.985 . S
C894 C895 1.363 . S
C894 C900 1.379 . S
C894 N902 1.356 . S
C895 C894 1.363 . S
C895 C901 1.363 . S
C896 C897 1.363 . S
C896 C901 1.379 . S
C896 N903 1.356 . S
C897 C896 1.363 . S
C897 C900 1.363 . S
N898 C900 1.366 . S
N898 H910 0.985 1_565 S
N898 H911 0.974 1_565 S
N899 C901 1.356 . S
N899 H904 0.984 . S
N899 H905 0.985 . S
C900 C894 1.379 . S
C900 C897 1.363 . S
C900 N898 1.366 . S
C901 C895 1.363 . S
C901 C896 1.379 . S
C901 N899 1.356 . S
N902 C894 1.356 . S
N902 H908 0.984 . S
N902 H909 0.984 . S
N903 C896 1.356 . S
N903 H906 0.984 . S
N903 H907 0.985 . S
H904 N899 0.984 . S
H905 N899 0.985 . S
H906 N903 0.984 . S
H907 N903 0.985 . S
H908 N902 0.984 . S
H909 N902 0.984 . S
H910 N898 0.985 1_545 S
H911 N898 0.974 1_545 S
C912 C913 1.363 . S
C912 C918 1.379 . S
C912 N920 1.356 . S
C913 C912 1.363 . S
C913 C919 1.363 . S
C914 C915 1.363 . S
C914 C919 1.379 . S
C914 N921 1.370 . S
C915 C914 1.363 . S
C915 C918 1.363 . S
N916 C918 1.356 . S
N916 H928 0.984 . S
N916 H929 0.985 . S
N917 C919 1.356 . S
N917 H922 0.984 . S
N917 H923 0.985 . S
C918 C912 1.379 . S
C918 C915 1.363 . S
C918 N916 1.356 . S
C919 C913 1.363 . S
C919 C914 1.379 . S
C919 N917 1.356 . S
N920 C912 1.356 . S
N920 H926 0.984 . S
N920 H927 0.984 . S
N921 C914 1.370 . S
N921 H924 0.971 1_655 S
N921 H925 0.985 1_655 S
H922 N917 0.984 . S
H923 N917 0.985 . S
H924 N921 0.971 1_455 S
H925 N921 0.985 1_455 S
H926 N920 0.984 . S
H927 N920 0.984 . S
H928 N916 0.984 . S
H929 N916 0.985 . S
C930 C931 1.363 . S
C930 C936 1.379 . S
C930 N938 1.356 . S
C931 C930 1.363 . S
C931 C937 1.363 . S
C932 C933 1.363 . S
C932 C937 1.379 . S
C932 N939 1.356 . S
C933 C932 1.363 . S
C933 C936 1.363 . S
N934 C936 1.356 . S
N934 H946 0.984 . S
N934 H947 0.985 . S
N935 C937 1.356 . S
N935 H940 0.984 1_565 S
N935 H941 0.985 . S
C936 C930 1.379 . S
C936 C933 1.363 . S
C936 N934 1.356 . S
C937 C931 1.363 . S
C937 C932 1.379 . S
C937 N935 1.356 . S
N938 C930 1.356 . S
N938 H944 0.984 . S
N938 H945 0.984 . S
N939 C932 1.356 . S
N939 H942 0.984 . S
N939 H943 0.985 . S
H940 N935 0.984 1_545 S
H941 N935 0.985 . S
H942 N939 0.984 . S
H943 N939 0.985 . S
H944 N938 0.984 . S
H945 N938 0.984 . S
H946 N934 0.984 . S
H947 N934 0.985 . S
C409 C111 1.576 . S
C411 C9 1.576 . S
C427 C145 1.576 . S
C429 C43 1.576 . S
C445 C179 1.576 . S
C447 C77 1.576 . S
C463 C213 1.576 . S
C465 C315 1.576 . S
C481 C247 1.576 . S
C483 C349 1.576 . S
C499 C281 1.576 . S
C501 C383 1.576 . S
C517 C326 1.950 . S
C519 C20 1.950 . S
C535 C54 1.950 . S
C537 C360 1.950 . S
C553 C394 1.950 . S
C555 C88 1.950 . S
C571 C224 1.950 . S
C573 C122 1.950 . S
C589 C156 1.950 . S
C591 C258 1.950 . S
C607 C190 1.950 . S
C609 C292 1.950 . S
C625 C5 0.258 . S
C627 C107 0.258 . S
C643 C39 0.258 . S
C645 C141 0.258 . S
C661 C175 0.258 . S
C663 C73 0.258 . S
C679 C209 0.258 . S
C681 C311 0.258 . S
C697 C243 0.258 . S
C699 C345 0.258 . S
C715 C379 0.258 . S
C717 C277 0.258 . S
C733 C407 1.764 . S
C735 C33 1.764 . S
C751 C67 1.764 . S
C753 C237 1.764 . S
C769 C271 1.764 . S
C771 C101 1.764 . S
C787 C305 1.764 . S
C789 C135 1.764 . S
C805 C169 1.764 . S
C807 C339 1.764 . S
C823 C203 1.764 . S
C825 C373 1.764 . S
C841 C2 1.419 . S
C843 C274 1.419 . S
C859 C36 1.419 . S
C861 C308 1.419 . S
C877 C342 1.419 . S
C879 C70 1.419 . S
C895 C104 1.419 . S
C897 C376 1.419 . S
C913 C206 1.419 . S
C915 C138 1.419 . S
C931 C172 1.419 . S
C933 C240 1.419 . S
