# Generated by pormake.
# Topology smk, (6)-cn, num edge types: 1
# Building blocks:
#     Node 0, Type 0, BuildingBlock: MIDCAF_clean_sbu_0, # of connection points: 6
#     Node 1, Type 0, BuildingBlock: MIDCAF_clean_sbu_0, # of connection points: 6
#     Node 2, Type 0, BuildingBlock: MIDCAF_clean_sbu_0, # of connection points: 6
#     Node 3, Type 0, BuildingBlock: MIDCAF_clean_sbu_0, # of connection points: 6
#     Node 4, Type 0, BuildingBlock: MIDCAF_clean_sbu_0, # of connection points: 6
#     Node 5, Type 0, BuildingBlock: MIDCAF_clean_sbu_0, # of connection points: 6
#     Edge 6, Type (0, 0), BuildingBlock: CIFDUS_clean_linker_0, # of connection points: 2
#     Edge 7, Type (0, 0), BuildingBlock: CIFDUS_clean_linker_0, # of connection points: 2
#     Edge 8, Type (0, 0), BuildingBlock: CIFDUS_clean_linker_0, # of connection points: 2
#     Edge 9, Type (0, 0), BuildingBlock: CIFDUS_clean_linker_0, # of connection points: 2
#     Edge 10, Type (0, 0), BuildingBlock: CIFDUS_clean_linker_0, # of connection points: 2
#     Edge 11, Type (0, 0), BuildingBlock: CIFDUS_clean_linker_0, # of connection points: 2
#     Edge 12, Type (0, 0), BuildingBlock: CIFDUS_clean_linker_0, # of connection points: 2
#     Edge 13, Type (0, 0), BuildingBlock: CIFDUS_clean_linker_0, # of connection points: 2
#     Edge 14, Type (0, 0), BuildingBlock: CIFDUS_clean_linker_0, # of connection points: 2
#     Edge 15, Type (0, 0), BuildingBlock: CIFDUS_clean_linker_0, # of connection points: 2
#     Edge 16, Type (0, 0), BuildingBlock: CIFDUS_clean_linker_0, # of connection points: 2
#     Edge 17, Type (0, 0), BuildingBlock: CIFDUS_clean_linker_0, # of connection points: 2
#     Edge 18, Type (0, 0), BuildingBlock: CIFDUS_clean_linker_0, # of connection points: 2
#     Edge 19, Type (0, 0), BuildingBlock: CIFDUS_clean_linker_0, # of connection points: 2
#     Edge 20, Type (0, 0), BuildingBlock: CIFDUS_clean_linker_0, # of connection points: 2
#     Edge 21, Type (0, 0), BuildingBlock: CIFDUS_clean_linker_0, # of connection points: 2
#     Edge 22, Type (0, 0), BuildingBlock: CIFDUS_clean_linker_0, # of connection points: 2
#     Edge 23, Type (0, 0), BuildingBlock: CIFDUS_clean_linker_0, # of connection points: 2
# Relax obj value: 0.124
# Max RMSD: 0.126
# Mean RMSD: 0.126
data_MOF--net-smk--node1-MIDCAF_clean_sbu_0--edge1-CIFDUS_clean_linker_0
_symmetry_space_group_name_H-M    P1
_symmetry_Int_Tables_number       1
_symmetry_cell_setting            triclinic
loop_
_symmetry_equiv_pos_as_xyz
'x, y, z'
_cell_length_a     36.820735
_cell_length_b     36.896679
_cell_length_c     12.994419
_cell_angle_alpha  90.073129
_cell_angle_beta   90.149031
_cell_angle_gamma 119.9419
loop_
_atom_site_label
_atom_site_type_symbol
_atom_site_fract_x
_atom_site_fract_y
_atom_site_fract_z
_atom_type_partial_charge
Zn0 Zn 0.41382 0.2501 0.45764 0.0
Zn1 Zn 0.44036 0.16173 0.66157 0.0
Zn2 Zn 0.42358 0.20266 0.56549 0.0
C3 C 0.37706 0.15868 0.76875 0.0
C4 C 0.51277 0.22829 0.67561 0.0
O5 O 0.39135 0.16736 0.42311 0.0
O6 O 0.37252 0.21086 0.36043 0.0
C7 C 0.37683 0.25183 0.6347 0.0
O8 O 0.38914 0.19163 0.71298 0.0
O9 O 0.38978 0.13366 0.74668 0.0
O10 O 0.49215 0.19911 0.73803 0.0
O11 O 0.49357 0.23297 0.59767 0.0
O12 O 0.39142 0.27391 0.55531 0.0
O13 O 0.38401 0.2217 0.65313 0.0
O14 O 0.4863 0.25605 0.52392 0.0
O15 O 0.47008 0.28686 0.40121 0.0
C16 C 0.49753 0.28419 0.45334 0.0
O17 O 0.39605 0.13909 0.49893 0.0
O18 O 0.44342 0.12471 0.55668 0.0
C19 C 0.37193 0.17651 0.35441 0.0
C20 C 0.40975 0.11323 0.50777 0.0
Zn21 Zn 0.15545 0.40544 0.53827 0.0
Zn22 Zn 0.27225 0.44771 0.88822 0.0
Zn23 Zn 0.21907 0.42085 0.77776 0.0
C24 C 0.20497 0.42191 0.00657 0.0
C25 C 0.29685 0.51457 0.79086 0.0
O26 O 0.23399 0.38671 0.6675 0.0
O27 O 0.17148 0.37137 0.62805 0.0
C28 C 0.12209 0.37407 0.7742 0.0
O29 O 0.18835 0.39819 0.92763 0.0
O30 O 0.23867 0.45593 0.99418 0.0
O31 O 0.31756 0.49915 0.82906 0.0
O32 O 0.25735 0.49079 0.77368 0.0
O33 O 0.12683 0.38227 0.6784 0.0
O34 O 0.15426 0.38583 0.83318 0.0
O35 O 0.22293 0.47569 0.69628 0.0
O36 O 0.19092 0.46906 0.54395 0.0
C37 C 0.21402 0.49152 0.6178 0.0
O38 O 0.25644 0.38809 0.75653 0.0
O39 O 0.2848 0.40278 0.91117 0.0
C40 C 0.20517 0.37379 0.59959 0.0
C41 C 0.27773 0.38274 0.82803 0.0
Zn42 Zn 0.72839 0.17352 0.81746 0.0
Zn43 Zn 0.86465 0.30098 0.10298 0.0
Zn44 Zn 0.78457 0.21544 0.90636 0.0
C45 C 0.81683 0.20894 0.09306 0.0
C46 C 0.78772 0.30134 0.02889 0.0
O47 O 0.80859 0.21135 0.74978 0.0
O48 O 0.75331 0.14961 0.72612 0.0
C49 C 0.71371 0.12332 0.96559 0.0
O50 O 0.7873 0.1802 0.04038 0.0
O51 O 0.83594 0.24373 0.04865 0.0
O52 O 0.81934 0.31605 0.08947 0.0
O53 O 0.77713 0.26949 0.96782 0.0
O54 O 0.68974 0.13292 0.91826 0.0
O55 O 0.75298 0.15082 0.97291 0.0
O56 O 0.74305 0.24342 0.89226 0.0
O57 O 0.71179 0.21084 0.74967 0.0
C58 C 0.71876 0.23862 0.81557 0.0
O59 O 0.84363 0.2399 0.82411 0.0
O60 O 0.8721 0.27922 0.96072 0.0
C61 C 0.78855 0.17775 0.695 0.0
C62 C 0.87654 0.26591 0.87403 0.0
Zn63 Zn 0.56194 0.73589 0.94482 0.0
Zn64 Zn 0.56633 0.83366 0.16407 0.0
Zn65 Zn 0.56995 0.78709 0.052 0.0
C66 C 0.62099 0.81817 0.26183 0.0
C67 C 0.48741 0.77664 0.16685 0.0
O68 O 0.60581 0.81682 0.90822 0.0
O69 O 0.61577 0.76442 0.87177 0.0
C70 C 0.58622 0.71485 0.11179 0.0
O71 O 0.60351 0.78758 0.19708 0.0
O72 O 0.61546 0.84897 0.25078 0.0
O73 O 0.51117 0.80284 0.23287 0.0
O74 O 0.50355 0.76882 0.08776 0.0
O75 O 0.55723 0.69462 0.04769 0.0
O76 O 0.59946 0.7541 0.12469 0.0
O77 O 0.50239 0.74281 0.00893 0.0
O78 O 0.51132 0.72006 0.86008 0.0
C79 C 0.48687 0.72182 0.92489 0.0
O80 O 0.60438 0.84859 0.9758 0.0
O81 O 0.57377 0.87678 0.06473 0.0
C82 C 0.62306 0.80083 0.85172 0.0
C83 C 0.5977 0.87912 0.99277 0.0
Zn84 Zn 0.82729 0.56948 0.15164 0.0
Zn85 Zn 0.73303 0.57637 0.37462 0.0
Zn86 Zn 0.78196 0.57657 0.25454 0.0
C87 C 0.80308 0.60046 0.48529 0.0
C88 C 0.69375 0.49691 0.31654 0.0
O89 O 0.78606 0.61058 0.11321 0.0
O90 O 0.85166 0.62807 0.09941 0.0
C91 C 0.87594 0.5959 0.3015 0.0
O92 O 0.81807 0.60428 0.39452 0.0
O93 O 0.76421 0.58351 0.49936 0.0
O94 O 0.68264 0.52105 0.35595 0.0
O95 O 0.73098 0.51163 0.28033 0.0
O96 O 0.86747 0.56538 0.24289 0.0
O97 O 0.84764 0.60619 0.3178 0.0
O98 O 0.75941 0.50994 0.21201 0.0
O99 O 0.79196 0.5189 0.06473 0.0
C100 C 0.76572 0.4944 0.12947 0.0
O101 O 0.7572 0.61528 0.18705 0.0
O102 O 0.73286 0.62676 0.33072 0.0
C103 C 0.82123 0.63111 0.06627 0.0
C104 C 0.74219 0.63489 0.23731 0.0
Zn105 Zn 0.26358 0.82727 0.33453 0.0
Zn106 Zn 0.16326 0.72871 0.54913 0.0
Zn107 Zn 0.21177 0.78185 0.43945 0.0
C108 C 0.18088 0.79891 0.65464 0.0
C109 C 0.21825 0.70363 0.53705 0.0
O110 O 0.18337 0.79048 0.29563 0.0
O111 O 0.23551 0.85317 0.26068 0.0
C112 C 0.28401 0.86836 0.51011 0.0
O113 O 0.21 0.81345 0.58597 0.0
O114 O 0.15197 0.7614 0.64825 0.0
O115 O 0.19082 0.69844 0.60224 0.0
O116 O 0.22853 0.73179 0.46689 0.0
O117 O 0.30428 0.86175 0.44199 0.0
O118 O 0.24449 0.84267 0.51968 0.0
O119 O 0.25746 0.7608 0.39745 0.0
O120 O 0.28014 0.79335 0.24976 0.0
C121 C 0.27914 0.76748 0.3145 0.0
O122 O 0.15153 0.75689 0.35802 0.0
O123 O 0.11799 0.69908 0.44962 0.0
C124 C 0.19907 0.82393 0.24018 0.0
C125 C 0.11871 0.72133 0.37537 0.0
H126 H 0.32884 0.18968 0.20452 0.0
H127 H 0.38255 0.1124 0.28132 0.0
H128 H 0.37723 0.09124 0.10157 0.0
H129 H 0.37378 0.10818 0.92247 0.0
H130 H 0.33548 0.19787 0.84379 0.0
H131 H 0.31843 0.20103 0.02435 0.0
C132 C 0.33858 0.16744 0.1826 0.0
C133 C 0.35656 0.15301 0.25659 0.0
C134 C 0.33925 0.1587 0.07803 0.0
C135 C 0.36828 0.12373 0.22682 0.0
C136 C 0.36591 0.11221 0.12346 0.0
C137 C 0.36081 0.12782 0.94391 0.0
C138 C 0.35675 0.15358 0.86988 0.0
C139 C 0.35395 0.13157 0.04816 0.0
C140 C 0.33959 0.17841 0.89935 0.0
C141 C 0.32994 0.18021 0.00262 0.0
H142 H 0.16088 0.32842 0.43527 0.0
H143 H 0.27083 0.44411 0.52231 0.0
H144 H 0.27586 0.47089 0.34817 0.0
H145 H 0.2471 0.46313 0.17703 0.0
H146 H 0.1427 0.345 0.07807 0.0
H147 H 0.13588 0.31793 0.25369 0.0
C148 C 0.18673 0.35891 0.41462 0.0
C149 C 0.21592 0.38405 0.49061 0.0
C150 C 0.18923 0.37417 0.31428 0.0
C151 C 0.24881 0.42381 0.46437 0.0
C152 C 0.25111 0.43942 0.36548 0.0
C153 C 0.22247 0.43141 0.19294 0.0
C154 C 0.19472 0.40647 0.11404 0.0
C155 C 0.22096 0.4152 0.29091 0.0
C156 C 0.16355 0.3654 0.13742 0.0
C157 C 0.16027 0.34967 0.23739 0.0
H158 H 0.77119 0.14272 0.22228 0.0
H159 H 0.88022 0.26596 0.21619 0.0
H160 H 0.88413 0.26726 0.40281 0.0
H161 H 0.8506 0.23657 0.56997 0.0
H162 H 0.74938 0.10855 0.57416 0.0
H163 H 0.74942 0.10569 0.38799 0.0
C164 C 0.79616 0.16961 0.2615 0.0
C165 C 0.82346 0.20533 0.20492 0.0
C166 C 0.79978 0.16938 0.36953 0.0
C167 C 0.85665 0.23919 0.25745 0.0
C168 C 0.85949 0.23975 0.36476 0.0
C169 C 0.82965 0.20764 0.53062 0.0
C170 C 0.79936 0.17347 0.58693 0.0
C171 C 0.83025 0.20558 0.42212 0.0
C172 C 0.77259 0.13598 0.53352 0.0
C173 C 0.77232 0.13417 0.42634 0.0
H174 H 0.65309 0.8768 0.41244 0.0
H175 H 0.6281 0.75224 0.33823 0.0
H176 H 0.63807 0.74096 0.51901 0.0
H177 H 0.63817 0.76054 0.69832 0.0
H178 H 0.64825 0.87933 0.77368 0.0
H179 H 0.66034 0.89917 0.59184 0.0
C180 C 0.65059 0.84734 0.43497 0.0
C181 C 0.63905 0.81502 0.36152 0.0
C182 C 0.65294 0.83994 0.53985 0.0
C183 C 0.63679 0.77754 0.39249 0.0
C184 C 0.64202 0.77097 0.49628 0.0
C185 C 0.64391 0.79126 0.6759 0.0
C186 C 0.64156 0.81823 0.74975 0.0
C187 C 0.64769 0.80105 0.57092 0.0
C188 C 0.64946 0.85789 0.71867 0.0
C189 C 0.6561 0.86905 0.61457 0.0
H190 H 0.82648 0.66976 0.59485 0.0
H191 H 0.83083 0.55534 0.583 0.0
H192 H 0.83478 0.55458 0.77033 0.0
H193 H 0.82575 0.58036 0.93385 0.0
H194 H 0.82023 0.69406 0.95275 0.0
H195 H 0.82711 0.70133 0.76376 0.0
C196 C 0.83081 0.64617 0.63375 0.0
C197 C 0.82899 0.61295 0.57678 0.0
C198 C 0.83072 0.64489 0.74132 0.0
C199 C 0.83346 0.58172 0.62617 0.0
C200 C 0.83448 0.5807 0.73299 0.0
C201 C 0.82587 0.60667 0.8964 0.0
C202 C 0.82133 0.63604 0.9551 0.0
C203 C 0.83095 0.61093 0.79058 0.0
C204 C 0.82241 0.67054 0.90751 0.0
C205 C 0.82699 0.67491 0.80041 0.0
H206 H 0.23818 0.8792 0.08596 0.0
H207 H 0.12016 0.77042 0.16423 0.0
H208 H 0.09981 0.76049 0.98269 0.0
H209 H 0.12215 0.77336 0.80361 0.0
H210 H 0.24541 0.87434 0.72593 0.0
H211 H 0.25668 0.89771 0.90544 0.0
C212 C 0.20749 0.85383 0.06407 0.0
C213 C 0.18105 0.82484 0.13869 0.0
C214 C 0.19733 0.84676 0.95917 0.0
C215 C 0.14131 0.79265 0.10853 0.0
C216 C 0.12982 0.78692 0.00457 0.0
C217 C 0.15132 0.80103 0.82511 0.0
C218 C 0.18352 0.82134 0.75169 0.0
C219 C 0.15865 0.81228 0.92919 0.0
C220 C 0.22042 0.85775 0.78074 0.0
C221 C 0.22696 0.87085 0.88371 0.0
H222 H 0.4214 0.05097 0.57809 0.0
H223 H 0.3316 0.07319 0.41704 0.0
H224 H 0.28058 0.9983 0.42192 0.0
H225 H 0.26269 0.92622 0.46783 0.0
H226 H 0.35279 0.90572 0.63099 0.0
H227 H 0.40171 0.98107 0.63644 0.0
C228 C 0.39088 0.03963 0.54272 0.0
C229 C 0.38093 0.06774 0.49426 0.0
C230 C 0.36115 0.99713 0.55069 0.0
C231 C 0.34073 0.05223 0.45152 0.0
C232 C 0.31123 0.0095 0.45625 0.0
C233 C 0.29232 0.93859 0.50857 0.0
C234 C 0.304 0.91089 0.55124 0.0
C235 C 0.32104 0.98173 0.50627 0.0
C236 C 0.34295 0.92677 0.60035 0.0
C237 C 0.37118 0.96967 0.6012 0.0
H238 H 0.39533 0.30556 0.79158 0.0
H239 H 0.29409 0.21692 0.60095 0.0
H240 H 0.25222 0.24946 0.6449 0.0
H241 H 0.24936 0.31024 0.71716 0.0
H242 H 0.35131 0.39799 0.90955 0.0
H243 H 0.38795 0.35914 0.8852 0.0
C244 C 0.36333 0.29228 0.76396 0.0
C245 C 0.34736 0.25874 0.69485 0.0
C246 C 0.34015 0.31197 0.787 0.0
C247 C 0.3064 0.24226 0.65654 0.0
C248 C 0.28285 0.26137 0.67995 0.0
C249 C 0.27946 0.32056 0.75385 0.0
C250 C 0.29794 0.35726 0.81331 0.0
C251 C 0.30022 0.29751 0.74128 0.0
C252 C 0.33657 0.36995 0.86253 0.0
C253 C 0.35757 0.34772 0.84909 0.0
H254 H 0.94427 0.28272 0.98869 0.0
H255 H 0.905 0.28372 0.6764 0.0
H256 H 0.97784 0.31578 0.61886 0.0
H257 H 0.0519 0.34669 0.65918 0.0
H258 H 0.09277 0.34805 0.9717 0.0
H259 H 0.01943 0.31115 0.028 0.0
C260 C 0.95173 0.28965 0.90782 0.0
C261 C 0.91941 0.28073 0.8363 0.0
C262 C 0.99367 0.30845 0.87601 0.0
C263 C 0.92922 0.28952 0.732 0.0
C264 C 0.97087 0.30824 0.6996 0.0
C265 C 0.04516 0.33893 0.73994 0.0
C266 C 0.07816 0.35039 0.81152 0.0
C267 C 0.00327 0.3183 0.77125 0.0
C268 C 0.06824 0.3397 0.91526 0.0
C269 C 0.02629 0.31871 0.94725 0.0
H270 H 0.67366 0.93852 0.05459 0.0
H271 H 0.5743 0.91241 0.83961 0.0
H272 H 0.60134 0.98738 0.81669 0.0
H273 H 0.64764 0.05882 0.87318 0.0
H274 H 0.74793 0.08688 0.08817 0.0
H275 H 0.72527 0.01208 0.09887 0.0
C276 C 0.65926 0.94952 -0.00084 0.0
C277 C 0.6228 0.92036 0.94643 0.0
C278 C 0.67388 0.99258 0.99056 0.0
C279 C 0.60316 0.93449 0.87805 0.0
C280 C 0.61807 0.97724 0.86696 0.0
C281 C 0.66446 0.04878 0.92354 0.0
C282 C 0.69871 0.07837 0.98252 0.0
C283 C 0.65228 0.00632 0.92607 0.0
C284 C 0.72082 0.06467 0.0443 0.0
C285 C 0.7082 0.02202 0.04922 0.0
H286 H 0.6661 0.60124 0.16143 0.0
H287 H 0.77718 0.71944 0.21931 0.0
H288 H 0.73716 0.7559 0.19575 0.0
H289 H 0.6689 0.75273 0.16672 0.0
H290 H 0.5573 0.63204 0.13033 0.0
H291 H 0.59881 0.59765 0.14165 0.0
C292 C 0.68175 0.63516 0.16457 0.0
C293 C 0.72463 0.65799 0.18678 0.0
C294 C 0.65803 0.65512 0.15944 0.0
C295 C 0.74447 0.70164 0.19699 0.0
C296 C 0.72138 0.72224 0.18626 0.0
C297 C 0.65364 0.71888 0.1641 0.0
C298 C 0.61006 0.69498 0.148 0.0
C299 C 0.67783 0.6991 0.17001 0.0
C300 C 0.59076 0.65114 0.1433 0.0
C301 C 0.6145 0.63143 0.14822 0.0
H302 H 0.94291 0.60232 0.20268 0.0
H303 H 0.90844 0.65658 0.45182 0.0
H304 H 0.98267 0.70744 0.48225 0.0
H305 H 0.05716 0.7321 0.44598 0.0
H306 H 0.09052 0.67648 0.19904 0.0
H307 H 0.01628 0.63135 0.15572 0.0
C308 C 0.9515 0.62494 0.26458 0.0
C309 C 0.9203 0.62483 0.32736 0.0
C310 C 0.99378 0.65447 0.27941 0.0
C311 C 0.93196 0.65537 0.40442 0.0
C312 C 0.97428 0.68467 0.42089 0.0
C313 C 0.04798 0.71127 0.37994 0.0
C314 C 0.07878 0.70794 0.3239 0.0
C315 C 0.00539 0.68421 0.35934 0.0
C316 C 0.06711 0.68014 0.24081 0.0
C317 C 0.02477 0.65385 0.21775 0.0
H318 H 0.53511 0.32099 0.27493 0.0
H319 H 0.5575 0.32158 0.60088 0.0
H320 H 0.62558 0.38492 0.58252 0.0
H321 H 0.67225 0.44643 0.47915 0.0
H322 H 0.64833 0.44855 0.15546 0.0
H323 H 0.58715 0.37791 0.16656 0.0
C324 C 0.55545 0.33455 0.34135 0.0
C325 C 0.54167 0.31655 0.43903 0.0
C326 C 0.59378 0.37179 0.33057 0.0
C327 C 0.56798 0.33429 0.5247 0.0
C328 C 0.6066 0.37086 0.5144 0.0
C329 C 0.65418 0.4307 0.41083 0.0
C330 C 0.66414 0.452 0.31686 0.0
C331 C 0.61894 0.39073 0.41859 0.0
C332 C 0.64091 0.43214 0.22827 0.0
C333 C 0.60593 0.39204 0.23492 0.0
H334 H 0.2309 0.54374 0.45392 0.0
H335 H 0.2248 0.5399 0.78571 0.0
H336 H 0.23439 0.60998 0.7901 0.0
H337 H 0.23226 0.66697 0.69954 0.0
H338 H 0.23482 0.67037 0.36812 0.0
H339 H 0.23981 0.60668 0.3635 0.0
C340 C 0.23245 0.55864 0.52708 0.0
C341 C 0.22709 0.53654 0.61924 0.0
C342 C 0.23704 0.59886 0.5291 0.0
C343 C 0.22937 0.55627 0.7136 0.0
C344 C 0.23448 0.59632 0.71627 0.0
C345 C 0.23506 0.65432 0.62645 0.0
C346 C 0.23298 0.67308 0.53438 0.0
C347 C 0.23665 0.61715 0.6245 0.0
C348 C 0.2368 0.65667 0.44007 0.0
C349 C 0.23907 0.61992 0.43743 0.0
H350 H 0.69474 0.26278 0.64514 0.0
H351 H 0.68083 0.25498 0.97485 0.0
H352 H 0.61788 0.26112 0.96007 0.0
H353 H 0.5586 0.25098 0.85109 0.0
H354 H 0.57005 0.25295 0.52081 0.0
H355 H 0.6423 0.26762 0.53751 0.0
C356 C 0.67874 0.26404 0.71391 0.0
C357 C 0.69212 0.25808 0.81089 0.0
C358 C 0.64157 0.26563 0.70424 0.0
C359 C 0.67136 0.25985 0.89952 0.0
C360 C 0.63496 0.26271 0.89083 0.0
C361 C 0.57749 0.25608 0.7829 0.0
C362 C 0.55899 0.25057 0.68483 0.0
C363 C 0.61846 0.26295 0.7933 0.0
C364 C 0.58366 0.25732 0.597 0.0
C365 C 0.62483 0.26521 0.60664 0.0
H366 H 0.44452 0.69221 0.74515 0.0
H367 H 0.42781 0.68565 0.07435 0.0
H368 H 0.35786 0.62542 0.05476 0.0
H369 H 0.31057 0.56507 0.94936 0.0
H370 H 0.33216 0.56492 0.62424 0.0
H371 H 0.39025 0.63732 0.63528 0.0
C372 C 0.42497 0.6783 0.81224 0.0
C373 C 0.44128 0.6936 0.91112 0.0
C374 C 0.38577 0.6419 0.80068 0.0
C375 C 0.41575 0.67528 0.99741 0.0
C376 C 0.37591 0.6403 0.98626 0.0
C377 C 0.3269 0.58176 0.88039 0.0
C378 C 0.3175 0.56024 0.78626 0.0
C379 C 0.36175 0.62202 0.88902 0.0
C380 C 0.3389 0.58134 0.69717 0.0
C381 C 0.37242 0.62242 0.704 0.0
H382 H 0.75917 0.45053 0.95555 0.0
H383 H 0.73785 0.43642 0.2831 0.0
H384 H 0.73423 0.36865 0.27696 0.0
H385 H 0.75334 0.32205 0.18503 0.0
H386 H 0.77653 0.33707 0.85893 0.0
H387 H 0.76237 0.39518 0.85714 0.0
C388 C 0.75241 0.43199 0.025 0.0
C389 C 0.74978 0.44893 0.11992 0.0
C390 C 0.7513 0.3934 0.02126 0.0
C391 C 0.7403 0.42431 0.20906 0.0
C392 C 0.73864 0.38565 0.20581 0.0
C393 C 0.7537 0.33715 0.11313 0.0
C394 C 0.76598 0.3256 0.02226 0.0
C395 C 0.74653 0.37113 0.1134 0.0
C396 C 0.7667 0.3453 0.92945 0.0
C397 C 0.75908 0.37881 0.92874 0.0
H398 H 0.44023 0.75366 0.33941 0.0
H399 H 0.43382 0.76577 0.0109 0.0
H400 H 0.36295 0.75486 0.02638 0.0
H401 H 0.30906 0.75514 0.13624 0.0
H402 H 0.31692 0.74674 0.46573 0.0
H403 H 0.38021 0.74163 0.44719 0.0
C404 C 0.42275 0.7528 0.27119 0.0
C405 C 0.442 0.76051 0.17422 0.0
C406 C 0.38243 0.74748 0.28108 0.0
C407 C 0.41935 0.75943 0.08615 0.0
C408 C 0.379 0.75356 0.09511 0.0
C409 C 0.32401 0.75099 0.20372 0.0
C410 C 0.30871 0.7518 0.30217 0.0
C411 C 0.36107 0.74944 0.19257 0.0
C412 C 0.32802 0.74604 0.38906 0.0
C413 C 0.36453 0.74364 0.37855 0.0
loop_
_geom_bond_atom_site_label_1
_geom_bond_atom_site_label_2
_geom_bond_distance
_geom_bond_site_symmetry_2
_ccdc_geom_bond_type
Zn0 O6 1.920 . S
Zn0 O12 1.898 . S
Zn0 O15 1.905 . S
Zn1 O9 1.905 . S
Zn1 O10 1.898 . S
Zn1 O18 1.920 . S
Zn2 O5 2.080 . S
Zn2 O8 2.114 . S
Zn2 O11 2.120 . S
Zn2 O13 2.120 . S
Zn2 O14 2.114 . S
Zn2 O17 2.080 . S
C3 O8 1.166 . S
C3 O9 1.182 . S
C4 O10 1.167 . S
C4 O11 1.299 . S
O5 Zn2 2.080 . S
O5 C19 1.305 . S
O6 Zn0 1.920 . S
O6 C19 1.234 . S
C7 O12 1.167 . S
C7 O13 1.299 . S
O8 Zn2 2.114 . S
O8 C3 1.166 . S
O9 Zn1 1.905 . S
O9 C3 1.182 . S
O10 Zn1 1.898 . S
O10 C4 1.167 . S
O11 Zn2 2.120 . S
O11 C4 1.299 . S
O12 Zn0 1.898 . S
O12 C7 1.167 . S
O13 Zn2 2.120 . S
O13 C7 1.299 . S
O14 Zn2 2.114 . S
O14 C16 1.166 . S
O15 Zn0 1.905 . S
O15 C16 1.182 . S
C16 O14 1.166 . S
C16 O15 1.182 . S
O17 Zn2 2.080 . S
O17 C20 1.305 . S
O18 Zn1 1.920 . S
O18 C20 1.234 . S
C19 O5 1.305 . S
C19 O6 1.234 . S
C20 O17 1.305 . S
C20 O18 1.234 . S
Zn21 O27 1.920 . S
Zn21 O33 1.898 . S
Zn21 O36 1.905 . S
Zn22 O30 1.905 1_556 S
Zn22 O31 1.898 . S
Zn22 O39 1.920 . S
Zn23 O26 2.080 . S
Zn23 O29 2.114 . S
Zn23 O32 2.120 . S
Zn23 O34 2.120 . S
Zn23 O35 2.114 . S
Zn23 O38 2.080 . S
C24 O29 1.166 . S
C24 O30 1.182 1_556 S
C25 O31 1.167 . S
C25 O32 1.299 . S
O26 Zn23 2.080 . S
O26 C40 1.305 . S
O27 Zn21 1.920 . S
O27 C40 1.234 . S
C28 O33 1.167 . S
C28 O34 1.299 . S
O29 Zn23 2.114 . S
O29 C24 1.166 . S
O30 Zn22 1.905 1_554 S
O30 C24 1.182 1_554 S
O31 Zn22 1.898 . S
O31 C25 1.167 . S
O32 Zn23 2.120 . S
O32 C25 1.299 . S
O33 Zn21 1.898 . S
O33 C28 1.167 . S
O34 Zn23 2.120 . S
O34 C28 1.299 . S
O35 Zn23 2.114 . S
O35 C37 1.166 . S
O36 Zn21 1.905 . S
O36 C37 1.182 . S
C37 O35 1.166 . S
C37 O36 1.182 . S
O38 Zn23 2.080 . S
O38 C41 1.305 . S
O39 Zn22 1.920 . S
O39 C41 1.234 . S
C40 O26 1.305 . S
C40 O27 1.234 . S
C41 O38 1.305 . S
C41 O39 1.234 . S
Zn42 O48 1.920 . S
Zn42 O54 1.898 . S
Zn42 O57 1.905 . S
Zn43 O51 1.905 . S
Zn43 O52 1.898 . S
Zn43 O60 1.920 1_554 S
Zn44 O47 2.080 . S
Zn44 O50 2.114 1_556 S
Zn44 O53 2.120 . S
Zn44 O55 2.120 . S
Zn44 O56 2.114 . S
Zn44 O59 2.080 . S
C45 O50 1.166 . S
C45 O51 1.182 . S
C46 O52 1.167 1_556 S
C46 O53 1.299 . S
O47 Zn44 2.080 . S
O47 C61 1.305 . S
O48 Zn42 1.920 . S
O48 C61 1.234 . S
C49 O54 1.167 . S
C49 O55 1.299 . S
O50 Zn44 2.114 1_554 S
O50 C45 1.166 . S
O51 Zn43 1.905 . S
O51 C45 1.182 . S
O52 Zn43 1.898 . S
O52 C46 1.167 1_554 S
O53 Zn44 2.120 . S
O53 C46 1.299 . S
O54 Zn42 1.898 . S
O54 C49 1.167 . S
O55 Zn44 2.120 . S
O55 C49 1.299 . S
O56 Zn44 2.114 . S
O56 C58 1.166 . S
O57 Zn42 1.905 . S
O57 C58 1.182 . S
C58 O56 1.166 . S
C58 O57 1.182 . S
O59 Zn44 2.080 . S
O59 C62 1.305 . S
O60 Zn43 1.920 1_556 S
O60 C62 1.234 . S
C61 O47 1.305 . S
C61 O48 1.234 . S
C62 O59 1.305 . S
C62 O60 1.234 . S
Zn63 O69 1.920 . S
Zn63 O75 1.898 1_556 S
Zn63 O78 1.905 . S
Zn64 O72 1.905 . S
Zn64 O73 1.898 . S
Zn64 O81 1.920 . S
Zn65 O68 2.080 1_554 S
Zn65 O71 2.114 . S
Zn65 O74 2.120 . S
Zn65 O76 2.120 . S
Zn65 O77 2.114 . S
Zn65 O80 2.080 . S
C66 O71 1.166 . S
C66 O72 1.182 . S
C67 O73 1.167 . S
C67 O74 1.299 . S
O68 Zn65 2.080 1_556 S
O68 C82 1.305 . S
O69 Zn63 1.920 . S
O69 C82 1.234 . S
C70 O75 1.167 . S
C70 O76 1.299 . S
O71 Zn65 2.114 . S
O71 C66 1.166 . S
O72 Zn64 1.905 . S
O72 C66 1.182 . S
O73 Zn64 1.898 . S
O73 C67 1.167 . S
O74 Zn65 2.120 . S
O74 C67 1.299 . S
O75 Zn63 1.898 1_554 S
O75 C70 1.167 . S
O76 Zn65 2.120 . S
O76 C70 1.299 . S
O77 Zn65 2.114 . S
O77 C79 1.166 . S
O78 Zn63 1.905 . S
O78 C79 1.182 1_556 S
C79 O77 1.166 . S
C79 O78 1.182 1_554 S
O80 Zn65 2.080 . S
O80 C83 1.305 . S
O81 Zn64 1.920 . S
O81 C83 1.234 . S
C82 O68 1.305 . S
C82 O69 1.234 . S
C83 O80 1.305 . S
C83 O81 1.234 . S
Zn84 O90 1.920 1_554 S
Zn84 O96 1.898 . S
Zn84 O99 1.905 . S
Zn85 O93 1.905 . S
Zn85 O94 1.898 . S
Zn85 O102 1.920 . S
Zn86 O89 2.080 . S
Zn86 O92 2.114 . S
Zn86 O95 2.120 . S
Zn86 O97 2.120 . S
Zn86 O98 2.114 . S
Zn86 O101 2.080 . S
C87 O92 1.166 . S
C87 O93 1.182 . S
C88 O94 1.167 . S
C88 O95 1.299 . S
O89 Zn86 2.080 . S
O89 C103 1.305 . S
O90 Zn84 1.920 1_556 S
O90 C103 1.234 1_556 S
C91 O96 1.167 . S
C91 O97 1.299 . S
O92 Zn86 2.114 . S
O92 C87 1.166 . S
O93 Zn85 1.905 . S
O93 C87 1.182 . S
O94 Zn85 1.898 . S
O94 C88 1.167 . S
O95 Zn86 2.120 . S
O95 C88 1.299 . S
O96 Zn84 1.898 . S
O96 C91 1.167 . S
O97 Zn86 2.120 . S
O97 C91 1.299 . S
O98 Zn86 2.114 . S
O98 C100 1.166 . S
O99 Zn84 1.905 . S
O99 C100 1.182 . S
C100 O98 1.166 . S
C100 O99 1.182 . S
O101 Zn86 2.080 . S
O101 C104 1.305 . S
O102 Zn85 1.920 . S
O102 C104 1.234 . S
C103 O89 1.305 . S
C103 O90 1.234 1_554 S
C104 O101 1.305 . S
C104 O102 1.234 . S
Zn105 O111 1.920 . S
Zn105 O117 1.898 . S
Zn105 O120 1.905 . S
Zn106 O114 1.905 . S
Zn106 O115 1.898 . S
Zn106 O123 1.920 . S
Zn107 O110 2.080 . S
Zn107 O113 2.114 . S
Zn107 O116 2.120 . S
Zn107 O118 2.120 . S
Zn107 O119 2.114 . S
Zn107 O122 2.080 . S
C108 O113 1.166 . S
C108 O114 1.182 . S
C109 O115 1.167 . S
C109 O116 1.299 . S
O110 Zn107 2.080 . S
O110 C124 1.305 . S
O111 Zn105 1.920 . S
O111 C124 1.234 . S
C112 O117 1.167 . S
C112 O118 1.299 . S
O113 Zn107 2.114 . S
O113 C108 1.166 . S
O114 Zn106 1.905 . S
O114 C108 1.182 . S
O115 Zn106 1.898 . S
O115 C109 1.167 . S
O116 Zn107 2.120 . S
O116 C109 1.299 . S
O117 Zn105 1.898 . S
O117 C112 1.167 . S
O118 Zn107 2.120 . S
O118 C112 1.299 . S
O119 Zn107 2.114 . S
O119 C121 1.166 . S
O120 Zn105 1.905 . S
O120 C121 1.182 . S
C121 O119 1.166 . S
C121 O120 1.182 . S
O122 Zn107 2.080 . S
O122 C125 1.305 . S
O123 Zn106 1.920 . S
O123 C125 1.234 . S
C124 O110 1.305 . S
C124 O111 1.234 . S
C125 O122 1.305 . S
C125 O123 1.234 . S
H126 C132 0.930 . S
H127 C135 0.930 . S
H128 C136 0.930 . S
H129 C137 0.930 . S
H130 C140 0.930 . S
H131 C141 0.930 . S
C132 H126 0.930 . S
C132 C133 1.355 . S
C132 C134 1.415 . S
C133 C132 1.355 . S
C133 C135 1.419 . S
C134 C132 1.415 . S
C134 C139 1.425 . S
C134 C141 1.409 . S
C135 H127 0.930 . S
C135 C133 1.419 . S
C135 C136 1.362 . S
C136 H128 0.930 . S
C136 C135 1.362 . S
C136 C139 1.409 . S
C137 H129 0.930 . S
C137 C138 1.355 . S
C137 C139 1.415 1_556 S
C138 C137 1.355 . S
C138 C140 1.419 . S
C139 C134 1.425 . S
C139 C136 1.409 . S
C139 C137 1.415 1_554 S
C140 H130 0.930 . S
C140 C138 1.419 . S
C140 C141 1.362 1_556 S
C141 H131 0.930 . S
C141 C134 1.409 . S
C141 C140 1.362 1_554 S
H142 C148 0.930 . S
H143 C151 0.930 . S
H144 C152 0.930 . S
H145 C153 0.930 . S
H146 C156 0.930 . S
H147 C157 0.930 . S
C148 H142 0.930 . S
C148 C149 1.355 . S
C148 C150 1.415 . S
C149 C148 1.355 . S
C149 C151 1.419 . S
C150 C148 1.415 . S
C150 C155 1.425 . S
C150 C157 1.409 . S
C151 H143 0.930 . S
C151 C149 1.419 . S
C151 C152 1.362 . S
C152 H144 0.930 . S
C152 C151 1.362 . S
C152 C155 1.409 . S
C153 H145 0.930 . S
C153 C154 1.355 . S
C153 C155 1.415 . S
C154 C153 1.355 . S
C154 C156 1.419 . S
C155 C150 1.425 . S
C155 C152 1.409 . S
C155 C153 1.415 . S
C156 H146 0.930 . S
C156 C154 1.419 . S
C156 C157 1.362 . S
C157 H147 0.930 . S
C157 C150 1.409 . S
C157 C156 1.362 . S
H158 C164 0.930 . S
H159 C167 0.930 . S
H160 C168 0.930 . S
H161 C169 0.930 . S
H162 C172 0.930 . S
H163 C173 0.930 . S
C164 H158 0.930 . S
C164 C165 1.355 . S
C164 C166 1.415 . S
C165 C164 1.355 . S
C165 C167 1.419 . S
C166 C164 1.415 . S
C166 C171 1.425 . S
C166 C173 1.409 . S
C167 H159 0.930 . S
C167 C165 1.419 . S
C167 C168 1.362 . S
C168 H160 0.930 . S
C168 C167 1.362 . S
C168 C171 1.409 . S
C169 H161 0.930 . S
C169 C170 1.355 . S
C169 C171 1.415 . S
C170 C169 1.355 . S
C170 C172 1.419 . S
C171 C166 1.425 . S
C171 C168 1.409 . S
C171 C169 1.415 . S
C172 H162 0.930 . S
C172 C170 1.419 . S
C172 C173 1.362 . S
C173 H163 0.930 . S
C173 C166 1.409 . S
C173 C172 1.362 . S
H174 C180 0.930 . S
H175 C183 0.930 . S
H176 C184 0.930 . S
H177 C185 0.930 . S
H178 C188 0.930 . S
H179 C189 0.930 . S
C180 H174 0.930 . S
C180 C181 1.355 . S
C180 C182 1.415 . S
C181 C180 1.355 . S
C181 C183 1.419 . S
C182 C180 1.415 . S
C182 C187 1.425 . S
C182 C189 1.409 . S
C183 H175 0.930 . S
C183 C181 1.419 . S
C183 C184 1.362 . S
C184 H176 0.930 . S
C184 C183 1.362 . S
C184 C187 1.409 . S
C185 H177 0.930 . S
C185 C186 1.355 . S
C185 C187 1.415 . S
C186 C185 1.355 . S
C186 C188 1.419 . S
C187 C182 1.425 . S
C187 C184 1.409 . S
C187 C185 1.415 . S
C188 H178 0.930 . S
C188 C186 1.419 . S
C188 C189 1.362 . S
C189 H179 0.930 . S
C189 C182 1.409 . S
C189 C188 1.362 . S
H190 C196 0.930 . S
H191 C199 0.930 . S
H192 C200 0.930 . S
H193 C201 0.930 . S
H194 C204 0.930 . S
H195 C205 0.930 . S
C196 H190 0.930 . S
C196 C197 1.355 . S
C196 C198 1.415 . S
C197 C196 1.355 . S
C197 C199 1.419 . S
C198 C196 1.415 . S
C198 C203 1.425 . S
C198 C205 1.409 . S
C199 H191 0.930 . S
C199 C197 1.419 . S
C199 C200 1.362 . S
C200 H192 0.930 . S
C200 C199 1.362 . S
C200 C203 1.409 . S
C201 H193 0.930 . S
C201 C202 1.355 . S
C201 C203 1.415 . S
C202 C201 1.355 . S
C202 C204 1.419 . S
C203 C198 1.425 . S
C203 C200 1.409 . S
C203 C201 1.415 . S
C204 H194 0.930 . S
C204 C202 1.419 . S
C204 C205 1.362 . S
C205 H195 0.930 . S
C205 C198 1.409 . S
C205 C204 1.362 . S
H206 C212 0.930 . S
H207 C215 0.930 . S
H208 C216 0.930 . S
H209 C217 0.930 . S
H210 C220 0.930 . S
H211 C221 0.930 . S
C212 H206 0.930 . S
C212 C213 1.355 . S
C212 C214 1.415 1_554 S
C213 C212 1.355 . S
C213 C215 1.419 . S
C214 C212 1.415 1_556 S
C214 C219 1.425 . S
C214 C221 1.409 . S
C215 H207 0.930 . S
C215 C213 1.419 . S
C215 C216 1.362 1_554 S
C216 H208 0.930 . S
C216 C215 1.362 1_556 S
C216 C219 1.409 . S
C217 H209 0.930 . S
C217 C218 1.355 . S
C217 C219 1.415 . S
C218 C217 1.355 . S
C218 C220 1.419 . S
C219 C214 1.425 . S
C219 C216 1.409 . S
C219 C217 1.415 . S
C220 H210 0.930 . S
C220 C218 1.419 . S
C220 C221 1.362 . S
C221 H211 0.930 . S
C221 C214 1.409 . S
C221 C220 1.362 . S
H222 C228 0.930 . S
H223 C231 0.930 . S
H224 C232 0.930 . S
H225 C233 0.930 . S
H226 C236 0.930 . S
H227 C237 0.930 . S
C228 H222 0.930 . S
C228 C229 1.355 . S
C228 C230 1.415 . S
C229 C228 1.355 . S
C229 C231 1.419 . S
C230 C228 1.415 . S
C230 C235 1.425 1_545 S
C230 C237 1.409 1_545 S
C231 H223 0.930 . S
C231 C229 1.419 . S
C231 C232 1.362 . S
C232 H224 0.930 . S
C232 C231 1.362 . S
C232 C235 1.409 1_545 S
C233 H225 0.930 . S
C233 C234 1.355 . S
C233 C235 1.415 . S
C234 C233 1.355 . S
C234 C236 1.419 . S
C235 C230 1.425 1_565 S
C235 C232 1.409 1_565 S
C235 C233 1.415 . S
C236 H226 0.930 . S
C236 C234 1.419 . S
C236 C237 1.362 . S
C237 H227 0.930 . S
C237 C230 1.409 1_565 S
C237 C236 1.362 . S
H238 C244 0.930 . S
H239 C247 0.930 . S
H240 C248 0.930 . S
H241 C249 0.930 . S
H242 C252 0.930 . S
H243 C253 0.930 . S
C244 H238 0.930 . S
C244 C245 1.355 . S
C244 C246 1.415 . S
C245 C244 1.355 . S
C245 C247 1.419 . S
C246 C244 1.415 . S
C246 C251 1.425 . S
C246 C253 1.409 . S
C247 H239 0.930 . S
C247 C245 1.419 . S
C247 C248 1.362 . S
C248 H240 0.930 . S
C248 C247 1.362 . S
C248 C251 1.409 . S
C249 H241 0.930 . S
C249 C250 1.355 . S
C249 C251 1.415 . S
C250 C249 1.355 . S
C250 C252 1.419 . S
C251 C246 1.425 . S
C251 C248 1.409 . S
C251 C249 1.415 . S
C252 H242 0.930 . S
C252 C250 1.419 . S
C252 C253 1.362 . S
C253 H243 0.930 . S
C253 C246 1.409 . S
C253 C252 1.362 . S
H254 C260 0.930 . S
H255 C263 0.930 . S
H256 C264 0.930 . S
H257 C265 0.930 . S
H258 C268 0.930 . S
H259 C269 0.930 . S
C260 H254 0.930 . S
C260 C261 1.355 . S
C260 C262 1.415 . S
C261 C260 1.355 . S
C261 C263 1.419 . S
C262 C260 1.415 . S
C262 C267 1.425 1_655 S
C262 C269 1.409 1_655 S
C263 H255 0.930 . S
C263 C261 1.419 . S
C263 C264 1.362 . S
C264 H256 0.930 . S
C264 C263 1.362 . S
C264 C267 1.409 1_655 S
C265 H257 0.930 . S
C265 C266 1.355 . S
C265 C267 1.415 . S
C266 C265 1.355 . S
C266 C268 1.419 . S
C267 C262 1.425 1_455 S
C267 C264 1.409 1_455 S
C267 C265 1.415 . S
C268 H258 0.930 . S
C268 C266 1.419 . S
C268 C269 1.362 . S
C269 H259 0.930 . S
C269 C262 1.409 1_455 S
C269 C268 1.362 . S
H270 C276 0.930 1_556 S
H271 C279 0.930 . S
H272 C280 0.930 . S
H273 C281 0.930 1_554 S
H274 C284 0.930 . S
H275 C285 0.930 . S
C276 H270 0.930 1_554 S
C276 C277 1.355 . S
C276 C278 1.415 1_554 S
C277 C276 1.355 . S
C277 C279 1.419 . S
C278 C276 1.415 1_556 S
C278 C283 1.425 1_566 S
C278 C285 1.409 1_565 S
C279 H271 0.930 . S
C279 C277 1.419 . S
C279 C280 1.362 . S
C280 H272 0.930 . S
C280 C279 1.362 . S
C280 C283 1.409 1_565 S
C281 H273 0.930 1_556 S
C281 C282 1.355 . S
C281 C283 1.415 1_556 S
C282 C281 1.355 . S
C282 C284 1.419 . S
C283 C278 1.425 1_544 S
C283 C280 1.409 1_545 S
C283 C281 1.415 1_554 S
C284 H274 0.930 . S
C284 C282 1.419 . S
C284 C285 1.362 . S
C285 H275 0.930 . S
C285 C278 1.409 1_545 S
C285 C284 1.362 . S
H286 C292 0.930 . S
H287 C295 0.930 . S
H288 C296 0.930 . S
H289 C297 0.930 . S
H290 C300 0.930 1_556 S
H291 C301 0.930 1_556 S
C292 H286 0.930 . S
C292 C293 1.355 . S
C292 C294 1.415 . S
C293 C292 1.355 . S
C293 C295 1.419 . S
C294 C292 1.415 . S
C294 C299 1.425 . S
C294 C301 1.409 . S
C295 H287 0.930 . S
C295 C293 1.419 . S
C295 C296 1.362 . S
C296 H288 0.930 . S
C296 C295 1.362 . S
C296 C299 1.409 . S
C297 H289 0.930 . S
C297 C298 1.355 . S
C297 C299 1.415 . S
C298 C297 1.355 . S
C298 C300 1.419 . S
C299 C294 1.425 . S
C299 C296 1.409 . S
C299 C297 1.415 . S
C300 H290 0.930 1_554 S
C300 C298 1.419 . S
C300 C301 1.362 . S
C301 H291 0.930 1_554 S
C301 C294 1.409 . S
C301 C300 1.362 . S
H302 C308 0.930 . S
H303 C311 0.930 . S
H304 C312 0.930 . S
H305 C313 0.930 . S
H306 C316 0.930 . S
H307 C317 0.930 . S
C308 H302 0.930 . S
C308 C309 1.355 . S
C308 C310 1.415 . S
C309 C308 1.355 . S
C309 C311 1.419 . S
C310 C308 1.415 . S
C310 C315 1.425 1_655 S
C310 C317 1.409 1_655 S
C311 H303 0.930 . S
C311 C309 1.419 . S
C311 C312 1.362 . S
C312 H304 0.930 . S
C312 C311 1.362 . S
C312 C315 1.409 1_655 S
C313 H305 0.930 . S
C313 C314 1.355 . S
C313 C315 1.415 . S
C314 C313 1.355 . S
C314 C316 1.419 . S
C315 C310 1.425 1_455 S
C315 C312 1.409 1_455 S
C315 C313 1.415 . S
C316 H306 0.930 . S
C316 C314 1.419 . S
C316 C317 1.362 . S
C317 H307 0.930 . S
C317 C310 1.409 1_455 S
C317 C316 1.362 . S
H318 C324 0.930 . S
H319 C327 0.930 . S
H320 C328 0.930 . S
H321 C329 0.930 . S
H322 C332 0.930 . S
H323 C333 0.930 . S
C324 H318 0.930 . S
C324 C325 1.355 . S
C324 C326 1.415 . S
C325 C324 1.355 . S
C325 C327 1.419 . S
C326 C324 1.415 . S
C326 C331 1.425 . S
C326 C333 1.409 . S
C327 H319 0.930 . S
C327 C325 1.419 . S
C327 C328 1.362 . S
C328 H320 0.930 . S
C328 C327 1.362 . S
C328 C331 1.409 . S
C329 H321 0.930 . S
C329 C330 1.355 . S
C329 C331 1.415 . S
C330 C329 1.355 . S
C330 C332 1.419 . S
C331 C326 1.425 . S
C331 C328 1.409 . S
C331 C329 1.415 . S
C332 H322 0.930 . S
C332 C330 1.419 . S
C332 C333 1.362 . S
C333 H323 0.930 . S
C333 C326 1.409 . S
C333 C332 1.362 . S
H334 C340 0.930 . S
H335 C343 0.930 . S
H336 C344 0.930 . S
H337 C345 0.930 . S
H338 C348 0.930 . S
H339 C349 0.930 . S
C340 H334 0.930 . S
C340 C341 1.355 . S
C340 C342 1.415 . S
C341 C340 1.355 . S
C341 C343 1.419 . S
C342 C340 1.415 . S
C342 C347 1.425 . S
C342 C349 1.409 . S
C343 H335 0.930 . S
C343 C341 1.419 . S
C343 C344 1.362 . S
C344 H336 0.930 . S
C344 C343 1.362 . S
C344 C347 1.409 . S
C345 H337 0.930 . S
C345 C346 1.355 . S
C345 C347 1.415 . S
C346 C345 1.355 . S
C346 C348 1.419 . S
C347 C342 1.425 . S
C347 C344 1.409 . S
C347 C345 1.415 . S
C348 H338 0.930 . S
C348 C346 1.419 . S
C348 C349 1.362 . S
C349 H339 0.930 . S
C349 C342 1.409 . S
C349 C348 1.362 . S
H350 C356 0.930 . S
H351 C359 0.930 . S
H352 C360 0.930 . S
H353 C361 0.930 . S
H354 C364 0.930 . S
H355 C365 0.930 . S
C356 H350 0.930 . S
C356 C357 1.355 . S
C356 C358 1.415 . S
C357 C356 1.355 . S
C357 C359 1.419 . S
C358 C356 1.415 . S
C358 C363 1.425 . S
C358 C365 1.409 . S
C359 H351 0.930 . S
C359 C357 1.419 . S
C359 C360 1.362 . S
C360 H352 0.930 . S
C360 C359 1.362 . S
C360 C363 1.409 . S
C361 H353 0.930 . S
C361 C362 1.355 . S
C361 C363 1.415 . S
C362 C361 1.355 . S
C362 C364 1.419 . S
C363 C358 1.425 . S
C363 C360 1.409 . S
C363 C361 1.415 . S
C364 H354 0.930 . S
C364 C362 1.419 . S
C364 C365 1.362 . S
C365 H355 0.930 . S
C365 C358 1.409 . S
C365 C364 1.362 . S
H366 C372 0.930 . S
H367 C375 0.930 . S
H368 C376 0.930 . S
H369 C377 0.930 . S
H370 C380 0.930 . S
H371 C381 0.930 . S
C372 H366 0.930 . S
C372 C373 1.355 1_556 S
C372 C374 1.415 . S
C373 C372 1.355 1_554 S
C373 C375 1.419 . S
C374 C372 1.415 . S
C374 C379 1.425 . S
C374 C381 1.409 . S
C375 H367 0.930 . S
C375 C373 1.419 . S
C375 C376 1.362 . S
C376 H368 0.930 . S
C376 C375 1.362 . S
C376 C379 1.409 1_554 S
C377 H369 0.930 . S
C377 C378 1.355 . S
C377 C379 1.415 . S
C378 C377 1.355 . S
C378 C380 1.419 . S
C379 C374 1.425 . S
C379 C376 1.409 1_556 S
C379 C377 1.415 . S
C380 H370 0.930 . S
C380 C378 1.419 . S
C380 C381 1.362 . S
C381 H371 0.930 . S
C381 C374 1.409 . S
C381 C380 1.362 . S
H382 C388 0.930 . S
H383 C391 0.930 . S
H384 C392 0.930 . S
H385 C393 0.930 . S
H386 C396 0.930 . S
H387 C397 0.930 . S
C388 H382 0.930 . S
C388 C389 1.355 . S
C388 C390 1.415 . S
C389 C388 1.355 . S
C389 C391 1.419 . S
C390 C388 1.415 . S
C390 C395 1.425 . S
C390 C397 1.409 1_554 S
C391 H383 0.930 . S
C391 C389 1.419 . S
C391 C392 1.362 . S
C392 H384 0.930 . S
C392 C391 1.362 . S
C392 C395 1.409 . S
C393 H385 0.930 . S
C393 C394 1.355 1_554 S
C393 C395 1.415 . S
C394 C393 1.355 1_556 S
C394 C396 1.419 . S
C395 C390 1.425 . S
C395 C392 1.409 . S
C395 C393 1.415 . S
C396 H386 0.930 . S
C396 C394 1.419 . S
C396 C397 1.362 . S
C397 H387 0.930 . S
C397 C390 1.409 1_556 S
C397 C396 1.362 . S
H398 C404 0.930 . S
H399 C407 0.930 . S
H400 C408 0.930 . S
H401 C409 0.930 . S
H402 C412 0.930 . S
H403 C413 0.930 . S
C404 H398 0.930 . S
C404 C405 1.355 . S
C404 C406 1.415 . S
C405 C404 1.355 . S
C405 C407 1.419 . S
C406 C404 1.415 . S
C406 C411 1.425 . S
C406 C413 1.409 . S
C407 H399 0.930 . S
C407 C405 1.419 . S
C407 C408 1.362 . S
C408 H400 0.930 . S
C408 C407 1.362 . S
C408 C411 1.409 . S
C409 H401 0.930 . S
C409 C410 1.355 . S
C409 C411 1.415 . S
C410 C409 1.355 . S
C410 C412 1.419 . S
C411 C406 1.425 . S
C411 C408 1.409 . S
C411 C409 1.415 . S
C412 H402 0.930 . S
C412 C410 1.419 . S
C412 C413 1.362 . S
C413 H403 0.930 . S
C413 C406 1.409 . S
C413 C412 1.362 . S
C133 C19 1.107 . S
C138 C3 1.139 . S
C149 C40 1.057 . S
C154 C24 1.110 1_554 S
C165 C45 0.978 . S
C170 C61 0.979 . S
C181 C66 1.078 . S
C186 C82 1.118 . S
C197 C87 1.080 . S
C202 C103 1.119 1_556 S
C213 C124 1.138 . S
C218 C108 1.119 . S
C229 C20 1.446 . S
C234 C112 1.376 . S
C245 C7 1.394 . S
C250 C41 1.351 . S
C261 C62 1.361 . S
C266 C28 1.418 . S
C277 C83 1.351 . S
C282 C49 1.393 . S
C293 C104 1.403 . S
C298 C70 1.344 . S
C309 C91 1.439 . S
C314 C125 1.382 . S
C325 C16 1.583 . S
C330 C88 1.524 . S
C341 C37 1.535 . S
C346 C109 1.577 . S
C357 C58 1.583 . S
C362 C4 1.538 . S
C373 C79 1.583 . S
C378 C25 1.525 . S
C389 C100 1.583 . S
C394 C46 1.526 . S
C405 C67 1.551 . S
C410 C121 1.581 . S
