# Generated by pormake.
# Topology uoc, (4)-cn, num edge types: 1
# Building blocks:
#     Node 0, Type 0, BuildingBlock: QUQFOY_clean_sbu_1, # of connection points: 4
#     Node 1, Type 0, BuildingBlock: QUQFOY_clean_sbu_1, # of connection points: 4
#     Node 2, Type 0, BuildingBlock: QUQFOY_clean_sbu_1, # of connection points: 4
#     Node 3, Type 0, BuildingBlock: QUQFOY_clean_sbu_1, # of connection points: 4
#     Node 4, Type 0, BuildingBlock: QUQFOY_clean_sbu_1, # of connection points: 4
#     Node 5, Type 0, BuildingBlock: QUQFOY_clean_sbu_1, # of connection points: 4
#     Node 6, Type 0, BuildingBlock: QUQFOY_clean_sbu_1, # of connection points: 4
#     Node 7, Type 0, BuildingBlock: QUQFOY_clean_sbu_1, # of connection points: 4
#     Edge 8, Type (0, 0), BuildingBlock: FUNLAD_clean_linker_0, # of connection points: 2
#     Edge 9, Type (0, 0), BuildingBlock: FUNLAD_clean_linker_0, # of connection points: 2
#     Edge 10, Type (0, 0), BuildingBlock: FUNLAD_clean_linker_0, # of connection points: 2
#     Edge 11, Type (0, 0), BuildingBlock: FUNLAD_clean_linker_0, # of connection points: 2
#     Edge 12, Type (0, 0), BuildingBlock: FUNLAD_clean_linker_0, # of connection points: 2
#     Edge 13, Type (0, 0), BuildingBlock: FUNLAD_clean_linker_0, # of connection points: 2
#     Edge 14, Type (0, 0), BuildingBlock: FUNLAD_clean_linker_0, # of connection points: 2
#     Edge 15, Type (0, 0), BuildingBlock: FUNLAD_clean_linker_0, # of connection points: 2
#     Edge 16, Type (0, 0), BuildingBlock: FUNLAD_clean_linker_0, # of connection points: 2
#     Edge 17, Type (0, 0), BuildingBlock: FUNLAD_clean_linker_0, # of connection points: 2
#     Edge 18, Type (0, 0), BuildingBlock: FUNLAD_clean_linker_0, # of connection points: 2
#     Edge 19, Type (0, 0), BuildingBlock: FUNLAD_clean_linker_0, # of connection points: 2
#     Edge 20, Type (0, 0), BuildingBlock: FUNLAD_clean_linker_0, # of connection points: 2
#     Edge 21, Type (0, 0), BuildingBlock: FUNLAD_clean_linker_0, # of connection points: 2
#     Edge 22, Type (0, 0), BuildingBlock: FUNLAD_clean_linker_0, # of connection points: 2
#     Edge 23, Type (0, 0), BuildingBlock: FUNLAD_clean_linker_0, # of connection points: 2
# Relax obj value: 0.073
# Max RMSD: 0.103
# Mean RMSD: 0.103
data_MOF--net-uoc--node1-QUQFOY_clean_sbu_1--edge1-FUNLAD_clean_linker_0
_symmetry_space_group_name_H-M    P1
_symmetry_Int_Tables_number       1
_symmetry_cell_setting            triclinic
loop_
_symmetry_equiv_pos_as_xyz
'x, y, z'
_cell_length_a     31.966728
_cell_length_b     32.003842
_cell_length_c     65.372258
_cell_angle_alpha  90.031639
_cell_angle_beta   89.926179
_cell_angle_gamma 111.02184
loop_
_atom_site_label
_atom_site_type_symbol
_atom_site_fract_x
_atom_site_fract_y
_atom_site_fract_z
_atom_type_partial_charge
O0 O 0.1449 0.21361 0.11956 0.0
Cd1 Cd 0.18512 0.27965 0.12305 0.0
Cd2 Cd 0.10402 0.28763 0.12765 0.0
O3 O 0.07975 0.22235 0.11713 0.0
O4 O 0.24289 0.28313 0.11023 0.0
O5 O 0.19928 0.31678 0.09735 0.0
C6 C 0.23425 0.30571 0.09555 0.0
C7 C 0.0723 0.33924 0.11651 0.0
C8 C 0.10296 0.19737 0.11632 0.0
C9 C 0.16554 0.30352 0.16469 0.0
O10 O 0.12676 0.29681 0.15747 0.0
O11 O 0.19693 0.30246 0.15295 0.0
O12 O 0.05143 0.30713 0.12885 0.0
O13 O 0.11092 0.3412 0.10971 0.0
O14 O 0.72221 0.63487 0.40284 0.0
Cd15 Cd 0.78917 0.67318 0.3996 0.0
Cd16 Cd 0.79441 0.59249 0.39336 0.0
O17 O 0.73035 0.56953 0.40527 0.0
O18 O 0.79767 0.72953 0.41489 0.0
O19 O 0.82672 0.67954 0.42478 0.0
C20 C 0.81924 0.71597 0.42846 0.0
C21 C 0.84571 0.55852 0.40214 0.0
C22 C 0.70571 0.59305 0.40631 0.0
C23 C 0.81126 0.65644 0.35745 0.0
O24 O 0.80147 0.61652 0.36378 0.0
O25 O 0.81337 0.68751 0.37001 0.0
O26 O 0.81179 0.53891 0.39053 0.0
O27 O 0.84956 0.59703 0.40971 0.0
O28 O 0.36271 0.27717 0.61801 0.0
Cd29 Cd 0.31693 0.21366 0.62238 0.0
Cd30 Cd 0.39276 0.19437 0.62846 0.0
O31 O 0.42343 0.25966 0.61871 0.0
O32 O 0.26212 0.21128 0.60716 0.0
O33 O 0.3047 0.17299 0.59798 0.0
C34 C 0.27126 0.18547 0.59411 0.0
C35 C 0.42492 0.14228 0.61839 0.0
C36 C 0.40489 0.2884 0.61619 0.0
C37 C 0.32868 0.18474 0.66436 0.0
O38 O 0.36583 0.18434 0.65759 0.0
O39 O 0.30144 0.19343 0.65244 0.0
O40 O 0.44369 0.173 0.63165 0.0
O41 O 0.38784 0.14152 0.61027 0.0
O42 O 0.79086 0.85663 0.9038 0.0
Cd43 Cd 0.72554 0.8141 0.89956 0.0
Cd44 Cd 0.71372 0.89289 0.89435 0.0
O45 O 0.77724 0.91919 0.90651 0.0
O46 O 0.72386 0.75641 0.91171 0.0
O47 O 0.68729 0.79714 0.92488 0.0
C48 C 0.6996 0.76291 0.92627 0.0
C49 C 0.65823 0.91917 0.90575 0.0
C50 C 0.80428 0.8983 0.90763 0.0
C51 C 0.70224 0.83281 0.85753 0.0
O52 O 0.70869 0.8719 0.86427 0.0
O53 O 0.70271 0.80197 0.86971 0.0
O54 O 0.69083 0.94322 0.89431 0.0
O55 O 0.65755 0.88012 0.91119 0.0
O56 O 0.645 0.70897 0.62413 0.0
Cd57 Cd 0.68811 0.77444 0.62712 0.0
Cd58 Cd 0.60972 0.78787 0.63317 0.0
O59 O 0.583 0.72386 0.62172 0.0
O60 O 0.74344 0.77833 0.6119 0.0
O61 O 0.69755 0.8123 0.60187 0.0
C62 C 0.73234 0.80172 0.59831 0.0
C63 C 0.57423 0.83841 0.62519 0.0
C64 C 0.60313 0.69615 0.62075 0.0
C65 C 0.67411 0.80098 0.66895 0.0
O66 O 0.63485 0.79496 0.66256 0.0
O67 O 0.70404 0.79894 0.65656 0.0
O68 O 0.5563 0.80502 0.63727 0.0
O69 O 0.61216 0.84255 0.61686 0.0
O70 O 0.22296 0.13419 0.89872 0.0
Cd71 Cd 0.28605 0.18062 0.89437 0.0
Cd72 Cd 0.30749 0.10489 0.89125 0.0
O73 O 0.2418 0.07447 0.90088 0.0
O74 O 0.28403 0.23658 0.907 0.0
O75 O 0.32482 0.1993 0.9194 0.0
C76 C 0.30971 0.23159 0.92127 0.0
C77 C 0.36137 0.07755 0.90388 0.0
C78 C 0.21232 0.09253 0.90192 0.0
C79 C 0.3179 0.16414 0.85356 0.0
O80 O 0.31853 0.12807 0.86148 0.0
O81 O 0.30793 0.19234 0.86436 0.0
O82 O 0.33092 0.05493 0.89118 0.0
O83 O 0.36073 0.11573 0.90996 0.0
O84 O 0.85619 0.77364 0.12295 0.0
Cd85 Cd 0.81791 0.70688 0.12665 0.0
Cd86 Cd 0.90009 0.70261 0.132 0.0
O87 O 0.92158 0.76589 0.11933 0.0
O88 O 0.75963 0.70058 0.11365 0.0
O89 O 0.80597 0.66969 0.10103 0.0
C90 C 0.76984 0.67872 0.09909 0.0
C91 C 0.93432 0.65151 0.12312 0.0
C92 C 0.89769 0.7902 0.11866 0.0
C93 C 0.83782 0.68627 0.16859 0.0
O94 O 0.8776 0.6967 0.16188 0.0
O95 O 0.80592 0.68306 0.15634 0.0
O96 O 0.9543 0.686 0.13435 0.0
O97 O 0.89522 0.64689 0.116 0.0
O98 O 0.28139 0.34551 0.39687 0.0
Cd99 Cd 0.21455 0.30772 0.39417 0.0
Cd100 Cd 0.20664 0.38865 0.3922 0.0
O101 O 0.27317 0.41048 0.40122 0.0
O102 O 0.2045 0.25089 0.40937 0.0
O103 O 0.17828 0.30288 0.4196 0.0
C104 C 0.18443 0.26574 0.42319 0.0
C105 C 0.15824 0.42224 0.4055 0.0
C106 C 0.29805 0.38711 0.40081 0.0
C107 C 0.18524 0.32934 0.35417 0.0
O108 O 0.19227 0.36733 0.36232 0.0
O109 O 0.1891 0.29751 0.36471 0.0
O110 O 0.18956 0.44276 0.39271 0.0
O111 O 0.15552 0.38298 0.4116 0.0
C112 C 0.24497 0.32812 0.05852 0.0
C113 C 0.2602 0.31298 0.07618 0.0
C114 C 0.26395 0.32612 0.03937 0.0
C115 C 0.29887 0.30916 0.03751 0.0
C116 C 0.31577 0.2967 0.05538 0.0
C117 C 0.29683 0.2987 0.07447 0.0
C118 C 0.31462 0.29853 0.01733 0.0
C119 C 0.30846 0.31611 0.99931 0.0
C120 C 0.31581 0.29885 0.97886 0.0
C121 C 0.29601 0.31048 0.96166 0.0
C122 C 0.29641 0.29062 0.94264 0.0
C123 C 0.31683 0.25864 0.94028 0.0
H124 H 0.35645 0.26041 0.98862 0.0
C125 C 0.33947 0.2493 0.95707 0.0
C126 C 0.33917 0.26926 0.97613 0.0
H127 H 0.35596 0.22517 0.95572 0.0
H128 H 0.21663 0.33906 0.05927 0.0
H129 H 0.24917 0.33533 0.02606 0.0
H130 H 0.34256 0.2835 0.05449 0.0
H131 H 0.30951 0.28685 0.08775 0.0
H132 H 0.32961 0.27308 0.01753 0.0
H133 H 0.29421 0.34219 0.99934 0.0
H134 H 0.27828 0.33353 0.96312 0.0
H135 H 0.27889 0.2989 0.93002 0.0
C136 C 0.80547 0.62975 0.32124 0.0
C137 C 0.81779 0.66559 0.3352 0.0
C138 C 0.80995 0.63758 0.3002 0.0
C139 C 0.8271 0.68152 0.29257 0.0
C140 C 0.84029 0.71739 0.30648 0.0
C141 C 0.83524 0.70957 0.3276 0.0
C142 C 0.83368 0.69052 0.27027 0.0
C143 C 0.80694 0.66355 0.25598 0.0
C144 C 0.81519 0.67062 0.23365 0.0
C145 C 0.77889 0.65605 0.21999 0.0
C146 C 0.78594 0.66114 0.19884 0.0
C147 C 0.82962 0.68004 0.19091 0.0
H148 H 0.88773 0.69976 0.23572 0.0
C149 C 0.86595 0.69391 0.20462 0.0
C150 C 0.85885 0.68939 0.22571 0.0
H151 H 0.90007 0.70857 0.19907 0.0
H152 H 0.79199 0.5954 0.32653 0.0
H153 H 0.80074 0.60906 0.28999 0.0
H154 H 0.85415 0.75157 0.30099 0.0
H155 H 0.84519 0.7379 0.33794 0.0
H156 H 0.86069 0.72085 0.26557 0.0
H157 H 0.77723 0.63581 0.26073 0.0
H158 H 0.74494 0.64096 0.22572 0.0
H159 H 0.75726 0.64999 0.18871 0.0
C160 C 0.21034 0.18791 0.57055 0.0
C161 C 0.24752 0.17532 0.5742 0.0
C162 C 0.19279 0.18594 0.55082 0.0
C163 C 0.21252 0.17188 0.53416 0.0
C164 C 0.24763 0.1563 0.53814 0.0
C165 C 0.26495 0.15797 0.5579 0.0
C166 C 0.19984 0.17539 0.51238 0.0
C167 C 0.17651 0.20087 0.50604 0.0
C168 C 0.17201 0.21214 0.48416 0.0
C169 C 0.16015 0.24951 0.47989 0.0
C170 C 0.16131 0.2653 0.45986 0.0
C171 C 0.1743 0.244 0.44357 0.0
H172 H 0.18913 0.15878 0.46994 0.0
C173 C 0.18295 0.20469 0.44758 0.0
C174 C 0.18159 0.18875 0.46761 0.0
H175 H 0.1925 0.18711 0.43533 0.0
H176 H 0.19569 0.20084 0.58284 0.0
H177 H 0.16453 0.1965 0.54879 0.0
H178 H 0.2632 0.14466 0.52575 0.0
H179 H 0.29349 0.14782 0.56017 0.0
H180 H 0.21455 0.15997 0.50109 0.0
H181 H 0.16397 0.21835 0.51728 0.0
H182 H 0.15196 0.26794 0.4922 0.0
H183 H 0.15421 0.29554 0.45734 0.0
C184 C 0.70952 0.86019 0.82138 0.0
C185 C 0.69651 0.82418 0.83524 0.0
C186 C 0.70561 0.85256 0.8003 0.0
C187 C 0.68815 0.80868 0.79259 0.0
C188 C 0.67441 0.77269 0.80642 0.0
C189 C 0.67907 0.78029 0.82753 0.0
C190 C 0.68141 0.7998 0.77031 0.0
C191 C 0.70865 0.82606 0.75596 0.0
C192 C 0.69968 0.81876 0.7337 0.0
C193 C 0.73558 0.82984 0.71979 0.0
C194 C 0.72762 0.82398 0.6987 0.0
C195 C 0.68354 0.80798 0.69114 0.0
H196 H 0.62722 0.7953 0.73633 0.0
C197 C 0.64772 0.79778 0.7051 0.0
C198 C 0.65566 0.80292 0.7261 0.0
H199 H 0.61332 0.7854 0.69984 0.0
H200 H 0.72314 0.89444 0.82679 0.0
H201 H 0.71536 0.88111 0.7901 0.0
H202 H 0.66034 0.73858 0.80085 0.0
H203 H 0.66862 0.75186 0.83781 0.0
H204 H 0.65366 0.77005 0.76565 0.0
H205 H 0.73902 0.85311 0.76058 0.0
H206 H 0.76983 0.84263 0.72526 0.0
H207 H 0.75591 0.8323 0.68835 0.0
C208 C 0.18458 0.29111 0.32043 0.0
C209 C 0.17554 0.32402 0.33195 0.0
C210 C 0.18003 0.28986 0.29907 0.0
C211 C 0.16596 0.32133 0.2889 0.0
C212 C 0.15515 0.35287 0.30055 0.0
C213 C 0.16027 0.35451 0.32177 0.0
C214 C 0.16104 0.32191 0.26628 0.0
C215 C 0.18556 0.30784 0.25301 0.0
C216 C 0.18085 0.30959 0.23035 0.0
C217 C 0.21644 0.30961 0.21768 0.0
C218 C 0.21237 0.30935 0.19632 0.0
C219 C 0.17235 0.30866 0.18716 0.0
H220 H 0.11222 0.30802 0.23019 0.0
C221 C 0.13698 0.30921 0.19986 0.0
C222 C 0.14103 0.30943 0.22113 0.0
H223 H 0.10547 0.30828 0.1934 0.0
H224 H 0.19639 0.26715 0.32783 0.0
H225 H 0.18738 0.26421 0.29063 0.0
H226 H 0.14366 0.3771 0.29317 0.0
H227 H 0.15274 0.38012 0.3302 0.0
H228 H 0.1383 0.33739 0.26046 0.0
H229 H 0.21137 0.29637 0.25885 0.0
H230 H 0.24742 0.30946 0.22433 0.0
H231 H 0.24016 0.30859 0.18703 0.0
C232 C 0.79399 0.80035 0.57489 0.0
C233 C 0.75566 0.81125 0.57828 0.0
C234 C 0.8115 0.8017 0.55516 0.0
C235 C 0.79063 0.81345 0.53829 0.0
C236 C 0.75429 0.8274 0.54196 0.0
C237 C 0.73697 0.82631 0.56171 0.0
C238 C 0.80353 0.80917 0.51662 0.0
C239 C 0.82754 0.78404 0.51068 0.0
C240 C 0.83217 0.77186 0.48894 0.0
C241 C 0.84366 0.7341 0.48504 0.0
C242 C 0.84241 0.71752 0.46515 0.0
C243 C 0.82967 0.73841 0.44866 0.0
H244 H 0.81586 0.82514 0.47424 0.0
C245 C 0.82148 0.77811 0.4523 0.0
C246 C 0.82299 0.79485 0.47218 0.0
H247 H 0.81221 0.79541 0.43987 0.0
H248 H 0.80962 0.78922 0.58739 0.0
H249 H 0.84068 0.79252 0.55331 0.0
H250 H 0.73782 0.83726 0.52938 0.0
H251 H 0.70753 0.83513 0.56377 0.0
H252 H 0.7883 0.82348 0.50509 0.0
H253 H 0.84039 0.76739 0.52216 0.0
H254 H 0.85156 0.71598 0.49755 0.0
H255 H 0.84912 0.68697 0.4629 0.0
C256 C 0.34562 0.16149 0.69894 0.0
C257 C 0.31958 0.17871 0.68664 0.0
C258 C 0.3413 0.16048 0.72021 0.0
C259 C 0.31123 0.1774 0.72983 0.0
C260 C 0.2837 0.1927 0.71747 0.0
C261 C 0.28779 0.19338 0.6961 0.0
C262 C 0.30731 0.17915 0.75257 0.0
C263 C 0.33925 0.17708 0.7656 0.0
C264 C 0.33455 0.17633 0.78824 0.0
C265 C 0.35541 0.15227 0.79969 0.0
C266 C 0.35082 0.14928 0.82093 0.0
C267 C 0.32616 0.17128 0.83131 0.0
H268 H 0.29524 0.2192 0.79028 0.0
C269 C 0.30685 0.19707 0.81998 0.0
C270 C 0.31071 0.19933 0.7986 0.0
H271 H 0.28759 0.21433 0.82757 0.0
H272 H 0.36995 0.14924 0.69214 0.0
H273 H 0.36173 0.14632 0.72889 0.0
H274 H 0.25969 0.20525 0.72438 0.0
H275 H 0.26717 0.20684 0.68707 0.0
H276 H 0.27705 0.18242 0.75872 0.0
H277 H 0.36965 0.17382 0.75971 0.0
H278 H 0.3744 0.13468 0.79211 0.0
H279 H 0.36629 0.12933 0.82923 0.0
C280 C 0.76222 0.65878 0.06183 0.0
C281 C 0.74418 0.67008 0.07968 0.0
C282 C 0.74303 0.66014 0.04271 0.0
C283 C 0.70493 0.67241 0.04105 0.0
C284 C 0.68524 0.68057 0.05911 0.0
C285 C 0.70459 0.67948 0.07818 0.0
C286 C 0.68782 0.68237 0.02105 0.0
C287 C 0.70156 0.67344 1.00257 0.0
C288 C 0.69249 0.69208 0.98281 0.0
C289 C 0.70471 0.67633 0.96452 0.0
C290 C 0.70417 0.69756 0.9459 0.0
C291 C 0.69132 0.73516 0.94506 0.0
H292 H 0.66785 0.74215 0.99532 0.0
C293 C 0.67627 0.74926 0.96306 0.0
C294 C 0.67706 0.72818 0.98175 0.0
H295 H 0.66637 0.77827 0.96295 0.0
H296 H 0.79281 0.65157 0.06244 0.0
H297 H 0.75992 0.65394 0.02937 0.0
H298 H 0.65591 0.68996 0.05844 0.0
H299 H 0.68969 0.6882 0.09164 0.0
H300 H 0.66438 0.6998 0.02183 0.0
H301 H 0.72225 0.65309 1.00168 0.0
H302 H 0.71669 0.64866 0.96475 0.0
H303 H 0.71584 0.6857 0.9323 0.0
C304 C 0.03431 0.12834 0.11163 0.0
C305 C 0.0812 0.14868 0.11263 0.0
C306 C 0.014 0.08181 0.1099 0.0
C307 C 0.0403 0.05469 0.10898 0.0
C308 C 0.08712 0.07526 0.10947 0.0
C309 C 0.10736 0.12163 0.11121 0.0
C310 C 0.02069 0.00495 0.10907 0.0
C311 C 0.97797 0.98084 0.10402 0.0
C312 C 0.95811 0.93139 0.10636 0.0
C313 C 0.91178 0.91141 0.1096 0.0
C314 C 0.89208 0.86548 0.11323 0.0
C315 C 0.9183 0.83836 0.11355 0.0
H316 H 0.01967 0.91774 0.10259 0.0
C317 C 0.96442 0.85801 0.10946 0.0
C318 C 0.98413 0.904 0.10583 0.0
H319 H 0.98548 0.83798 0.1093 0.0
H320 H 0.01319 0.14821 0.1128 0.0
H321 H 0.97782 0.06748 0.11009 0.0
H322 H 0.10823 0.0553 0.10886 0.0
H323 H 0.14358 0.13613 0.11188 0.0
H324 H 0.04255 0.98776 0.11416 0.0
H325 H 0.95574 -0.0023 0.09909 0.0
H326 H 0.89085 0.93159 0.10986 0.0
H327 H 0.85636 0.85142 0.11613 0.0
C328 C 0.12119 0.478 0.40023 0.0
C329 C 0.12447 0.44184 0.41145 0.0
C330 C 0.08641 0.49367 0.40398 0.0
C331 C 0.0544 0.47393 0.41921 0.0
C332 C 0.05898 0.4395 0.43125 0.0
C333 C 0.09343 0.42314 0.42723 0.0
C334 C 0.01529 0.48799 0.42199 0.0
C335 C 0.99211 0.49351 0.40569 0.0
C336 C 0.95242 0.507 0.407 0.0
C337 C 0.9185 0.49017 0.39237 0.0
C338 C 0.88282 0.50547 0.39156 0.0
C339 C 0.88081 0.53893 0.40503 0.0
H340 H 0.97582 0.55323 0.43236 0.0
C341 C 0.91431 0.55528 0.42001 0.0
C342 C 0.94968 0.53913 0.42112 0.0
H343 H 0.9137 0.58116 0.43056 0.0
H344 H 0.14459 0.4933 0.38801 0.0
H345 H 0.08418 0.52089 0.39475 0.0
H346 H 0.03484 0.42403 0.44318 0.0
H347 H 0.09524 0.39539 0.43619 0.0
H348 H 0.00379 0.4909 0.43739 0.0
H349 H 1.00146 0.48579 0.39054 0.0
H350 H 0.92002 0.46559 0.38126 0.0
H351 H 0.85774 0.4923 0.37976 0.0
C352 C 0.41214 0.36676 0.60739 0.0
C353 C 0.4326 0.33561 0.61184 0.0
C354 C 0.43798 0.41192 0.60463 0.0
C355 C 0.48493 0.42706 0.60651 0.0
C356 C 0.50547 0.39563 0.61004 0.0
C357 C 0.47961 0.35037 0.61273 0.0
C358 C 0.51343 0.47527 0.60535 0.0
C359 C 0.49822 0.5082 0.61026 0.0
C360 C 0.52679 0.55639 0.61125 0.0
C361 C 0.5058 0.58811 0.611 0.0
C362 C 0.53071 0.63357 0.61354 0.0
C363 C 0.57728 0.64837 0.61655 0.0
H364 H 0.59109 0.54802 0.61474 0.0
C365 C 0.59852 0.61678 0.61643 0.0
C366 C 0.57358 0.57126 0.61388 0.0
H367 H 0.63433 0.62704 0.61881 0.0
H368 H 0.37604 0.35637 0.60622 0.0
H369 H 0.42088 0.43467 0.60104 0.0
H370 H 0.54159 0.40629 0.61131 0.0
H371 H 0.49647 0.32718 0.61598 0.0
H372 H 0.54842 0.48335 0.60139 0.0
H373 H 0.46324 0.49979 0.61436 0.0
H374 H 0.46981 0.57762 0.60912 0.0
H375 H 0.51323 0.65698 0.61355 0.0
C376 C 0.62506 0.97907 0.90627 0.0
C377 C 0.62176 0.93536 0.91142 0.0
C378 C 0.58921 0.99343 0.90973 0.0
C379 C 0.5491 0.96438 0.91852 0.0
C380 C 0.54624 0.92104 0.92413 0.0
C381 C 0.58226 0.90673 0.92074 0.0
C382 C 0.5084 0.97659 0.92005 0.0
C383 C 0.5096 0.01917 0.92032 0.0
C384 C 0.46904 0.03145 0.91825 0.0
C385 C 0.47107 0.07418 0.92448 0.0
C386 C 0.43536 0.0887 0.92063 0.0
C387 C 0.3971 0.06091 0.91019 0.0
H388 H 0.42743 0.97053 0.90276 0.0
C389 C 0.39457 0.01775 0.90443 0.0
C390 C 0.43005 0.00318 0.90837 0.0
H391 H 0.36562 -0.00449 0.89631 0.0
H392 H 0.65496 0.00196 0.89899 0.0
H393 H 0.59256 0.02662 0.90463 0.0
H394 H 0.51565 0.8978 0.93075 0.0
H395 H 0.57858 0.8728 0.92483 0.0
H396 H 0.47628 0.94919 0.92064 0.0
H397 H 0.54161 0.0465 0.92177 0.0
H398 H 0.5008 0.09682 0.93196 0.0
H399 H 0.43843 0.12221 0.92519 0.0
C400 C 0.93779 0.58289 0.10534 0.0
C401 C 0.95434 0.61675 0.12014 0.0
C402 C 0.9546 0.54802 0.10409 0.0
C403 C 0.98761 0.54612 0.1179 0.0
C404 C 0.00456 0.58035 0.13238 0.0
C405 C 0.9886 0.61555 0.13332 0.0
C406 C 1.00199 0.50698 0.11904 0.0
C407 C 0.00724 0.48382 0.10266 0.0
C408 C 0.0218 0.44497 0.10517 0.0
C409 C 0.05497 0.43992 0.09236 0.0
C410 C 0.0712 0.40517 0.09574 0.0
C411 C 0.05354 0.37422 0.11164 0.0
H412 H 0.97705 0.41583 0.1305 0.0
C413 C 0.01882 0.3782 0.12378 0.0
C414 C 0.00334 0.4133 0.12067 0.0
H415 H 0.00438 0.35491 0.13613 0.0
H416 H 0.91131 0.58288 0.09502 0.0
H417 H 0.94037 0.52163 0.09298 0.0
H418 H 0.0298 0.57948 0.14325 0.0
H419 H 1.00194 0.64092 0.14498 0.0
H420 H 0.01052 0.49803 0.13411 0.0
H421 H 0.00346 0.49502 0.08732 0.0
H422 H 0.06943 0.46377 0.08021 0.0
H423 H 0.09781 0.40282 0.08608 0.0
C424 C 0.36699 0.4548 0.40729 0.0
C425 C 0.3469 0.40836 0.4043 0.0
C426 C 0.41347 0.47491 0.4095 0.0
C427 C 0.44083 0.44883 0.40889 0.0
C428 C 0.42057 0.40241 0.40616 0.0
C429 C 0.37422 0.38236 0.40396 0.0
C430 C 0.49058 0.46866 0.40966 0.0
C431 C 0.51392 0.50982 0.41697 0.0
C432 C 0.56355 0.53026 0.41574 0.0
C433 C 0.5836 0.577 0.41451 0.0
C434 C 0.62986 0.59745 0.41189 0.0
C435 C 0.6572 0.57154 0.41064 0.0
H436 H 0.57715 0.46839 0.41709 0.0
C437 C 0.63741 0.52485 0.41281 0.0
C438 C 0.59109 0.50439 0.41539 0.0
H439 H 0.65756 0.50395 0.4122 0.0
H440 H 0.34694 0.47583 0.40751 0.0
H441 H 0.42759 0.51091 0.41099 0.0
H442 H 0.44075 0.38152 0.40551 0.0
H443 H 0.35992 0.34648 0.40169 0.0
H444 H 0.5085 0.44844 0.40343 0.0
H445 H 0.49639 0.53051 0.42307 0.0
H446 H 0.56325 0.59775 0.41499 0.0
H447 H 0.64403 0.63355 0.41047 0.0
C448 C 0.47919 0.10461 0.626 0.0
C449 C 0.44456 0.10795 0.61365 0.0
C450 C 0.49603 0.07054 0.62281 0.0
C451 C 0.47891 0.03913 0.60709 0.0
C452 C 0.44578 0.04352 0.59409 0.0
C453 C 0.42832 0.07738 0.59749 0.0
C454 C 0.49477 0.00116 0.60459 0.0
C455 C 0.50085 0.97865 0.621 0.0
C456 C 0.51685 0.94062 0.61999 0.0
C457 C 0.50188 0.90718 0.63494 0.0
C458 C 0.51933 0.8731 0.63597 0.0
C459 C 0.55307 0.87225 0.62235 0.0
H460 H 0.56218 0.96496 0.59432 0.0
C461 C 0.56767 0.9053 0.60709 0.0
C462 C 0.54943 0.9391 0.6058 0.0
H463 H 0.59369 0.90553 0.59642 0.0
H464 H 0.49269 0.12774 0.6385 0.0
H465 H 0.52233 0.06861 0.63277 0.0
H466 H 0.43237 0.01987 0.58177 0.0
H467 H 0.40186 0.07931 0.58764 0.0
H468 H 0.49894 0.99013 0.58925 0.0
H469 H 0.49193 0.98736 0.63606 0.0
H470 H 0.47701 0.9078 0.64611 0.0
H471 H 0.50742 0.84829 0.64797 0.0
C472 C 0.88221 0.9 0.91379 0.0
C473 C 0.85205 0.92285 0.91248 0.0
C474 C 0.9279 0.92348 0.91685 0.0
C475 C 0.94449 0.97045 0.91851 0.0
C476 C 0.91406 0.99301 0.91814 0.0
C477 C 0.86837 0.96954 0.91509 0.0
C478 C 0.99312 -0.00268 0.92007 0.0
C479 C 0.02541 0.98319 0.91297 0.0
C480 C 0.07352 0.0122 0.91187 0.0
C481 C 0.10588 0.99206 0.91051 0.0
C482 C 0.15116 0.01809 0.9078 0.0
C483 C 0.16495 0.06488 0.90617 0.0
H484 H 0.06364 0.07604 0.9108 0.0
C485 C 0.13263 0.08509 0.90778 0.0
C486 C 0.08746 0.05912 0.91053 0.0
H487 H 0.14202 0.12104 0.90649 0.0
H488 H 0.87066 0.86395 0.91217 0.0
H489 H 0.94987 0.90457 0.91785 0.0
H490 H 0.92584 0.02912 0.9196 0.0
H491 H 0.84603 0.98817 0.91432 0.0
H492 H 0.00218 0.03097 0.92615 0.0
H493 H 0.01656 0.94949 0.90699 0.0
H494 H 0.09604 0.95598 0.9113 0.0
H495 H 0.17518 0.00142 0.90657 0.0
loop_
_geom_bond_atom_site_label_1
_geom_bond_atom_site_label_2
_geom_bond_distance
_geom_bond_site_symmetry_2
_ccdc_geom_bond_type
O0 Cd1 2.223 . S
O0 C8 1.315 . S
Cd1 O0 2.223 . S
Cd1 O4 2.297 . S
Cd1 O5 2.439 . S
Cd1 O11 2.240 . S
Cd2 O3 2.240 . S
Cd2 O10 2.223 . S
Cd2 O12 2.297 . S
Cd2 O13 2.439 . S
O3 Cd2 2.240 . S
O3 C8 1.279 . S
O4 Cd1 2.297 . S
O4 C6 1.247 . S
O5 Cd1 2.439 . S
O5 C6 1.208 . S
C6 O4 1.247 . S
C6 O5 1.208 . S
C7 O12 1.247 . S
C7 O13 1.208 . S
C8 O0 1.315 . S
C8 O3 1.279 . S
C9 O10 1.315 . S
C9 O11 1.279 . S
O10 Cd2 2.223 . S
O10 C9 1.315 . S
O11 Cd1 2.240 . S
O11 C9 1.279 . S
O12 Cd2 2.297 . S
O12 C7 1.247 . S
O13 Cd2 2.439 . S
O13 C7 1.208 . S
O14 Cd15 2.223 . S
O14 C22 1.315 . S
Cd15 O14 2.223 . S
Cd15 O18 2.297 . S
Cd15 O19 2.439 . S
Cd15 O25 2.240 . S
Cd16 O17 2.240 . S
Cd16 O24 2.223 . S
Cd16 O26 2.297 . S
Cd16 O27 2.439 . S
O17 Cd16 2.240 . S
O17 C22 1.279 . S
O18 Cd15 2.297 . S
O18 C20 1.247 . S
O19 Cd15 2.439 . S
O19 C20 1.208 . S
C20 O18 1.247 . S
C20 O19 1.208 . S
C21 O26 1.247 . S
C21 O27 1.208 . S
C22 O14 1.315 . S
C22 O17 1.279 . S
C23 O24 1.315 . S
C23 O25 1.279 . S
O24 Cd16 2.223 . S
O24 C23 1.315 . S
O25 Cd15 2.240 . S
O25 C23 1.279 . S
O26 Cd16 2.297 . S
O26 C21 1.247 . S
O27 Cd16 2.439 . S
O27 C21 1.208 . S
O28 Cd29 2.223 . S
O28 C36 1.315 . S
Cd29 O28 2.223 . S
Cd29 O32 2.297 . S
Cd29 O33 2.439 . S
Cd29 O39 2.240 . S
Cd30 O31 2.240 . S
Cd30 O38 2.223 . S
Cd30 O40 2.297 . S
Cd30 O41 2.439 . S
O31 Cd30 2.240 . S
O31 C36 1.279 . S
O32 Cd29 2.297 . S
O32 C34 1.247 . S
O33 Cd29 2.439 . S
O33 C34 1.208 . S
C34 O32 1.247 . S
C34 O33 1.208 . S
C35 O40 1.247 . S
C35 O41 1.208 . S
C36 O28 1.315 . S
C36 O31 1.279 . S
C37 O38 1.315 . S
C37 O39 1.279 . S
O38 Cd30 2.223 . S
O38 C37 1.315 . S
O39 Cd29 2.240 . S
O39 C37 1.279 . S
O40 Cd30 2.297 . S
O40 C35 1.247 . S
O41 Cd30 2.439 . S
O41 C35 1.208 . S
O42 Cd43 2.223 . S
O42 C50 1.315 . S
Cd43 O42 2.223 . S
Cd43 O46 2.297 . S
Cd43 O47 2.439 . S
Cd43 O53 2.240 . S
Cd44 O45 2.240 . S
Cd44 O52 2.223 . S
Cd44 O54 2.297 . S
Cd44 O55 2.439 . S
O45 Cd44 2.240 . S
O45 C50 1.279 . S
O46 Cd43 2.297 . S
O46 C48 1.247 . S
O47 Cd43 2.439 . S
O47 C48 1.208 . S
C48 O46 1.247 . S
C48 O47 1.208 . S
C49 O54 1.247 . S
C49 O55 1.208 . S
C50 O42 1.315 . S
C50 O45 1.279 . S
C51 O52 1.315 . S
C51 O53 1.279 . S
O52 Cd44 2.223 . S
O52 C51 1.315 . S
O53 Cd43 2.240 . S
O53 C51 1.279 . S
O54 Cd44 2.297 . S
O54 C49 1.247 . S
O55 Cd44 2.439 . S
O55 C49 1.208 . S
O56 Cd57 2.223 . S
O56 C64 1.315 . S
Cd57 O56 2.223 . S
Cd57 O60 2.297 . S
Cd57 O61 2.439 . S
Cd57 O67 2.240 . S
Cd58 O59 2.240 . S
Cd58 O66 2.223 . S
Cd58 O68 2.297 . S
Cd58 O69 2.439 . S
O59 Cd58 2.240 . S
O59 C64 1.279 . S
O60 Cd57 2.297 . S
O60 C62 1.247 . S
O61 Cd57 2.439 . S
O61 C62 1.208 . S
C62 O60 1.247 . S
C62 O61 1.208 . S
C63 O68 1.247 . S
C63 O69 1.208 . S
C64 O56 1.315 . S
C64 O59 1.279 . S
C65 O66 1.315 . S
C65 O67 1.279 . S
O66 Cd58 2.223 . S
O66 C65 1.315 . S
O67 Cd57 2.240 . S
O67 C65 1.279 . S
O68 Cd58 2.297 . S
O68 C63 1.247 . S
O69 Cd58 2.439 . S
O69 C63 1.208 . S
O70 Cd71 2.223 . S
O70 C78 1.315 . S
Cd71 O70 2.223 . S
Cd71 O74 2.297 . S
Cd71 O75 2.439 . S
Cd71 O81 2.240 . S
Cd72 O73 2.240 . S
Cd72 O80 2.223 . S
Cd72 O82 2.297 . S
Cd72 O83 2.439 . S
O73 Cd72 2.240 . S
O73 C78 1.279 . S
O74 Cd71 2.297 . S
O74 C76 1.247 . S
O75 Cd71 2.439 . S
O75 C76 1.208 . S
C76 O74 1.247 . S
C76 O75 1.208 . S
C77 O82 1.247 . S
C77 O83 1.208 . S
C78 O70 1.315 . S
C78 O73 1.279 . S
C79 O80 1.315 . S
C79 O81 1.279 . S
O80 Cd72 2.223 . S
O80 C79 1.315 . S
O81 Cd71 2.240 . S
O81 C79 1.279 . S
O82 Cd72 2.297 . S
O82 C77 1.247 . S
O83 Cd72 2.439 . S
O83 C77 1.208 . S
O84 Cd85 2.223 . S
O84 C92 1.315 . S
Cd85 O84 2.223 . S
Cd85 O88 2.297 . S
Cd85 O89 2.439 . S
Cd85 O95 2.240 . S
Cd86 O87 2.240 . S
Cd86 O94 2.223 . S
Cd86 O96 2.297 . S
Cd86 O97 2.439 . S
O87 Cd86 2.240 . S
O87 C92 1.279 . S
O88 Cd85 2.297 . S
O88 C90 1.247 . S
O89 Cd85 2.439 . S
O89 C90 1.208 . S
C90 O88 1.247 . S
C90 O89 1.208 . S
C91 O96 1.247 . S
C91 O97 1.208 . S
C92 O84 1.315 . S
C92 O87 1.279 . S
C93 O94 1.315 . S
C93 O95 1.279 . S
O94 Cd86 2.223 . S
O94 C93 1.315 . S
O95 Cd85 2.240 . S
O95 C93 1.279 . S
O96 Cd86 2.297 . S
O96 C91 1.247 . S
O97 Cd86 2.439 . S
O97 C91 1.208 . S
O98 Cd99 2.223 . S
O98 C106 1.315 . S
Cd99 O98 2.223 . S
Cd99 O102 2.297 . S
Cd99 O103 2.439 . S
Cd99 O109 2.240 . S
Cd100 O101 2.240 . S
Cd100 O108 2.223 . S
Cd100 O110 2.297 . S
Cd100 O111 2.439 . S
O101 Cd100 2.240 . S
O101 C106 1.279 . S
O102 Cd99 2.297 . S
O102 C104 1.247 . S
O103 Cd99 2.439 . S
O103 C104 1.208 . S
C104 O102 1.247 . S
C104 O103 1.208 . S
C105 O110 1.247 . S
C105 O111 1.208 . S
C106 O98 1.315 . S
C106 O101 1.279 . S
C107 O108 1.315 . S
C107 O109 1.279 . S
O108 Cd100 2.223 . S
O108 C107 1.315 . S
O109 Cd99 2.240 . S
O109 C107 1.279 . S
O110 Cd100 2.297 . S
O110 C105 1.247 . S
O111 Cd100 2.439 . S
O111 C105 1.208 . S
C112 C113 1.386 . S
C112 C114 1.383 . S
C112 H128 0.951 . S
C113 C112 1.386 . S
C113 C117 1.383 . S
C114 C112 1.383 . S
C114 C115 1.402 . S
C114 H129 0.951 . S
C115 C114 1.402 . S
C115 C116 1.375 . S
C115 C118 1.481 . S
C116 C115 1.375 . S
C116 C117 1.367 . S
C116 H130 0.951 . S
C117 C113 1.383 . S
C117 C116 1.367 . S
C117 H131 0.950 . S
C118 C115 1.481 . S
C118 C119 1.297 1_554 S
C118 H132 0.950 . S
C119 C118 1.297 1_556 S
C119 C120 1.479 . S
C119 H133 0.950 . S
C120 C119 1.479 . S
C120 C121 1.375 . S
C120 C126 1.404 . S
C121 C120 1.375 . S
C121 C122 1.369 . S
C121 H134 0.950 . S
C122 C121 1.369 . S
C122 C123 1.392 . S
C122 H135 0.951 . S
C123 C122 1.392 . S
C123 C125 1.384 . S
H124 C126 0.949 . S
C125 C123 1.384 . S
C125 C126 1.385 . S
C125 H127 0.950 . S
C126 C120 1.404 . S
C126 H124 0.949 . S
C126 C125 1.385 . S
H127 C125 0.950 . S
H128 C112 0.951 . S
H129 C114 0.951 . S
H130 C116 0.951 . S
H131 C117 0.950 . S
H132 C118 0.950 . S
H133 C119 0.950 . S
H134 C121 0.950 . S
H135 C122 0.951 . S
C136 C137 1.386 . S
C136 C138 1.383 . S
C136 H152 0.951 . S
C137 C136 1.386 . S
C137 C141 1.383 . S
C138 C136 1.383 . S
C138 C139 1.402 . S
C138 H153 0.951 . S
C139 C138 1.402 . S
C139 C140 1.375 . S
C139 C142 1.481 . S
C140 C139 1.375 . S
C140 C141 1.367 . S
C140 H154 0.951 . S
C141 C137 1.383 . S
C141 C140 1.367 . S
C141 H155 0.950 . S
C142 C139 1.481 . S
C142 C143 1.297 . S
C142 H156 0.950 . S
C143 C142 1.297 . S
C143 C144 1.479 . S
C143 H157 0.950 . S
C144 C143 1.479 . S
C144 C145 1.375 . S
C144 C150 1.404 . S
C145 C144 1.375 . S
C145 C146 1.369 . S
C145 H158 0.950 . S
C146 C145 1.369 . S
C146 C147 1.392 . S
C146 H159 0.951 . S
C147 C146 1.392 . S
C147 C149 1.384 . S
H148 C150 0.949 . S
C149 C147 1.384 . S
C149 C150 1.385 . S
C149 H151 0.950 . S
C150 C144 1.404 . S
C150 H148 0.949 . S
C150 C149 1.385 . S
H151 C149 0.950 . S
H152 C136 0.951 . S
H153 C138 0.951 . S
H154 C140 0.951 . S
H155 C141 0.950 . S
H156 C142 0.950 . S
H157 C143 0.950 . S
H158 C145 0.950 . S
H159 C146 0.951 . S
C160 C161 1.386 . S
C160 C162 1.383 . S
C160 H176 0.951 . S
C161 C160 1.386 . S
C161 C165 1.383 . S
C162 C160 1.383 . S
C162 C163 1.402 . S
C162 H177 0.951 . S
C163 C162 1.402 . S
C163 C164 1.375 . S
C163 C166 1.481 . S
C164 C163 1.375 . S
C164 C165 1.367 . S
C164 H178 0.951 . S
C165 C161 1.383 . S
C165 C164 1.367 . S
C165 H179 0.950 . S
C166 C163 1.481 . S
C166 C167 1.297 . S
C166 H180 0.950 . S
C167 C166 1.297 . S
C167 C168 1.479 . S
C167 H181 0.950 . S
C168 C167 1.479 . S
C168 C169 1.375 . S
C168 C174 1.404 . S
C169 C168 1.375 . S
C169 C170 1.369 . S
C169 H182 0.950 . S
C170 C169 1.369 . S
C170 C171 1.392 . S
C170 H183 0.951 . S
C171 C170 1.392 . S
C171 C173 1.384 . S
H172 C174 0.949 . S
C173 C171 1.384 . S
C173 C174 1.385 . S
C173 H175 0.950 . S
C174 C168 1.404 . S
C174 H172 0.949 . S
C174 C173 1.385 . S
H175 C173 0.950 . S
H176 C160 0.951 . S
H177 C162 0.951 . S
H178 C164 0.951 . S
H179 C165 0.950 . S
H180 C166 0.950 . S
H181 C167 0.950 . S
H182 C169 0.950 . S
H183 C170 0.951 . S
C184 C185 1.386 . S
C184 C186 1.383 . S
C184 H200 0.951 . S
C185 C184 1.386 . S
C185 C189 1.383 . S
C186 C184 1.383 . S
C186 C187 1.402 . S
C186 H201 0.951 . S
C187 C186 1.402 . S
C187 C188 1.375 . S
C187 C190 1.481 . S
C188 C187 1.375 . S
C188 C189 1.367 . S
C188 H202 0.951 . S
C189 C185 1.383 . S
C189 C188 1.367 . S
C189 H203 0.950 . S
C190 C187 1.481 . S
C190 C191 1.297 . S
C190 H204 0.950 . S
C191 C190 1.297 . S
C191 C192 1.479 . S
C191 H205 0.950 . S
C192 C191 1.479 . S
C192 C193 1.375 . S
C192 C198 1.404 . S
C193 C192 1.375 . S
C193 C194 1.369 . S
C193 H206 0.950 . S
C194 C193 1.369 . S
C194 C195 1.392 . S
C194 H207 0.951 . S
C195 C194 1.392 . S
C195 C197 1.384 . S
H196 C198 0.949 . S
C197 C195 1.384 . S
C197 C198 1.385 . S
C197 H199 0.950 . S
C198 C192 1.404 . S
C198 H196 0.949 . S
C198 C197 1.385 . S
H199 C197 0.950 . S
H200 C184 0.951 . S
H201 C186 0.951 . S
H202 C188 0.951 . S
H203 C189 0.950 . S
H204 C190 0.950 . S
H205 C191 0.950 . S
H206 C193 0.950 . S
H207 C194 0.951 . S
C208 C209 1.386 . S
C208 C210 1.383 . S
C208 H224 0.951 . S
C209 C208 1.386 . S
C209 C213 1.383 . S
C210 C208 1.383 . S
C210 C211 1.402 . S
C210 H225 0.951 . S
C211 C210 1.402 . S
C211 C212 1.375 . S
C211 C214 1.481 . S
C212 C211 1.375 . S
C212 C213 1.367 . S
C212 H226 0.951 . S
C213 C209 1.383 . S
C213 C212 1.367 . S
C213 H227 0.950 . S
C214 C211 1.481 . S
C214 C215 1.297 . S
C214 H228 0.950 . S
C215 C214 1.297 . S
C215 C216 1.479 . S
C215 H229 0.950 . S
C216 C215 1.479 . S
C216 C217 1.375 . S
C216 C222 1.404 . S
C217 C216 1.375 . S
C217 C218 1.369 . S
C217 H230 0.950 . S
C218 C217 1.369 . S
C218 C219 1.392 . S
C218 H231 0.951 . S
C219 C218 1.392 . S
C219 C221 1.384 . S
H220 C222 0.949 . S
C221 C219 1.384 . S
C221 C222 1.385 . S
C221 H223 0.950 . S
C222 C216 1.404 . S
C222 H220 0.949 . S
C222 C221 1.385 . S
H223 C221 0.950 . S
H224 C208 0.951 . S
H225 C210 0.951 . S
H226 C212 0.951 . S
H227 C213 0.950 . S
H228 C214 0.950 . S
H229 C215 0.950 . S
H230 C217 0.950 . S
H231 C218 0.951 . S
C232 C233 1.386 . S
C232 C234 1.383 . S
C232 H248 0.951 . S
C233 C232 1.386 . S
C233 C237 1.383 . S
C234 C232 1.383 . S
C234 C235 1.402 . S
C234 H249 0.951 . S
C235 C234 1.402 . S
C235 C236 1.375 . S
C235 C238 1.481 . S
C236 C235 1.375 . S
C236 C237 1.367 . S
C236 H250 0.951 . S
C237 C233 1.383 . S
C237 C236 1.367 . S
C237 H251 0.950 . S
C238 C235 1.481 . S
C238 C239 1.297 . S
C238 H252 0.950 . S
C239 C238 1.297 . S
C239 C240 1.479 . S
C239 H253 0.950 . S
C240 C239 1.479 . S
C240 C241 1.375 . S
C240 C246 1.404 . S
C241 C240 1.375 . S
C241 C242 1.369 . S
C241 H254 0.950 . S
C242 C241 1.369 . S
C242 C243 1.392 . S
C242 H255 0.951 . S
C243 C242 1.392 . S
C243 C245 1.384 . S
H244 C246 0.949 . S
C245 C243 1.384 . S
C245 C246 1.385 . S
C245 H247 0.950 . S
C246 C240 1.404 . S
C246 H244 0.949 . S
C246 C245 1.385 . S
H247 C245 0.950 . S
H248 C232 0.951 . S
H249 C234 0.951 . S
H250 C236 0.951 . S
H251 C237 0.950 . S
H252 C238 0.950 . S
H253 C239 0.950 . S
H254 C241 0.950 . S
H255 C242 0.951 . S
C256 C257 1.386 . S
C256 C258 1.383 . S
C256 H272 0.951 . S
C257 C256 1.386 . S
C257 C261 1.383 . S
C258 C256 1.383 . S
C258 C259 1.402 . S
C258 H273 0.951 . S
C259 C258 1.402 . S
C259 C260 1.375 . S
C259 C262 1.481 . S
C260 C259 1.375 . S
C260 C261 1.367 . S
C260 H274 0.951 . S
C261 C257 1.383 . S
C261 C260 1.367 . S
C261 H275 0.950 . S
C262 C259 1.481 . S
C262 C263 1.297 . S
C262 H276 0.950 . S
C263 C262 1.297 . S
C263 C264 1.479 . S
C263 H277 0.950 . S
C264 C263 1.479 . S
C264 C265 1.375 . S
C264 C270 1.404 . S
C265 C264 1.375 . S
C265 C266 1.369 . S
C265 H278 0.950 . S
C266 C265 1.369 . S
C266 C267 1.392 . S
C266 H279 0.951 . S
C267 C266 1.392 . S
C267 C269 1.384 . S
H268 C270 0.949 . S
C269 C267 1.384 . S
C269 C270 1.385 . S
C269 H271 0.950 . S
C270 C264 1.404 . S
C270 H268 0.949 . S
C270 C269 1.385 . S
H271 C269 0.950 . S
H272 C256 0.951 . S
H273 C258 0.951 . S
H274 C260 0.951 . S
H275 C261 0.950 . S
H276 C262 0.950 . S
H277 C263 0.950 . S
H278 C265 0.950 . S
H279 C266 0.951 . S
C280 C281 1.386 . S
C280 C282 1.383 . S
C280 H296 0.951 . S
C281 C280 1.386 . S
C281 C285 1.383 . S
C282 C280 1.383 . S
C282 C283 1.402 . S
C282 H297 0.951 . S
C283 C282 1.402 . S
C283 C284 1.375 . S
C283 C286 1.481 . S
C284 C283 1.375 . S
C284 C285 1.367 . S
C284 H298 0.951 . S
C285 C281 1.383 . S
C285 C284 1.367 . S
C285 H299 0.950 . S
C286 C283 1.481 . S
C286 C287 1.297 1_554 S
C286 H300 0.950 . S
C287 C286 1.297 1_556 S
C287 C288 1.479 . S
C287 H301 0.950 . S
C288 C287 1.479 . S
C288 C289 1.375 . S
C288 C294 1.404 . S
C289 C288 1.375 . S
C289 C290 1.369 . S
C289 H302 0.950 . S
C290 C289 1.369 . S
C290 C291 1.392 . S
C290 H303 0.951 . S
C291 C290 1.392 . S
C291 C293 1.384 . S
H292 C294 0.949 . S
C293 C291 1.384 . S
C293 C294 1.385 . S
C293 H295 0.950 . S
C294 C288 1.404 . S
C294 H292 0.949 . S
C294 C293 1.385 . S
H295 C293 0.950 . S
H296 C280 0.951 . S
H297 C282 0.951 . S
H298 C284 0.951 . S
H299 C285 0.950 . S
H300 C286 0.950 . S
H301 C287 0.950 . S
H302 C289 0.950 . S
H303 C290 0.951 . S
C304 C305 1.386 . S
C304 C306 1.383 . S
C304 H320 0.951 . S
C305 C304 1.386 . S
C305 C309 1.383 . S
C306 C304 1.383 . S
C306 C307 1.402 . S
C306 H321 0.951 1_455 S
C307 C306 1.402 . S
C307 C308 1.375 . S
C307 C310 1.481 . S
C308 C307 1.375 . S
C308 C309 1.367 . S
C308 H322 0.951 . S
C309 C305 1.383 . S
C309 C308 1.367 . S
C309 H323 0.950 . S
C310 C307 1.481 . S
C310 C311 1.297 1_445 S
C310 H324 0.950 1_545 S
C311 C310 1.297 1_665 S
C311 C312 1.479 . S
C311 H325 0.950 1_565 S
C312 C311 1.479 . S
C312 C313 1.375 . S
C312 C318 1.404 . S
C313 C312 1.375 . S
C313 C314 1.369 . S
C313 H326 0.950 . S
C314 C313 1.369 . S
C314 C315 1.392 . S
C314 H327 0.951 . S
C315 C314 1.392 . S
C315 C317 1.384 . S
H316 C318 0.949 1_455 S
C317 C315 1.384 . S
C317 C318 1.385 . S
C317 H319 0.950 . S
C318 C312 1.404 . S
C318 H316 0.949 1_655 S
C318 C317 1.385 . S
H319 C317 0.950 . S
H320 C304 0.951 . S
H321 C306 0.951 1_655 S
H322 C308 0.951 . S
H323 C309 0.950 . S
H324 C310 0.950 1_565 S
H325 C311 0.950 1_545 S
H326 C313 0.950 . S
H327 C314 0.951 . S
C328 C329 1.386 . S
C328 C330 1.383 . S
C328 H344 0.951 . S
C329 C328 1.386 . S
C329 C333 1.383 . S
C330 C328 1.383 . S
C330 C331 1.402 . S
C330 H345 0.951 . S
C331 C330 1.402 . S
C331 C332 1.375 . S
C331 C334 1.481 . S
C332 C331 1.375 . S
C332 C333 1.367 . S
C332 H346 0.951 . S
C333 C329 1.383 . S
C333 C332 1.367 . S
C333 H347 0.950 . S
C334 C331 1.481 . S
C334 C335 1.297 1_455 S
C334 H348 0.950 . S
C335 C334 1.297 1_655 S
C335 C336 1.479 . S
C335 H349 0.950 . S
C336 C335 1.479 . S
C336 C337 1.375 . S
C336 C342 1.404 . S
C337 C336 1.375 . S
C337 C338 1.369 . S
C337 H350 0.950 . S
C338 C337 1.369 . S
C338 C339 1.392 . S
C338 H351 0.951 . S
C339 C338 1.392 . S
C339 C341 1.384 . S
H340 C342 0.949 . S
C341 C339 1.384 . S
C341 C342 1.385 . S
C341 H343 0.950 . S
C342 C336 1.404 . S
C342 H340 0.949 . S
C342 C341 1.385 . S
H343 C341 0.950 . S
H344 C328 0.951 . S
H345 C330 0.951 . S
H346 C332 0.951 . S
H347 C333 0.950 . S
H348 C334 0.950 . S
H349 C335 0.950 . S
H350 C337 0.950 . S
H351 C338 0.951 . S
C352 C353 1.386 . S
C352 C354 1.383 . S
C352 H368 0.951 . S
C353 C352 1.386 . S
C353 C357 1.383 . S
C354 C352 1.383 . S
C354 C355 1.402 . S
C354 H369 0.951 . S
C355 C354 1.402 . S
C355 C356 1.375 . S
C355 C358 1.481 . S
C356 C355 1.375 . S
C356 C357 1.367 . S
C356 H370 0.951 . S
C357 C353 1.383 . S
C357 C356 1.367 . S
C357 H371 0.950 . S
C358 C355 1.481 . S
C358 C359 1.297 . S
C358 H372 0.950 . S
C359 C358 1.297 . S
C359 C360 1.479 . S
C359 H373 0.950 . S
C360 C359 1.479 . S
C360 C361 1.375 . S
C360 C366 1.404 . S
C361 C360 1.375 . S
C361 C362 1.369 . S
C361 H374 0.950 . S
C362 C361 1.369 . S
C362 C363 1.392 . S
C362 H375 0.951 . S
C363 C362 1.392 . S
C363 C365 1.384 . S
H364 C366 0.949 . S
C365 C363 1.384 . S
C365 C366 1.385 . S
C365 H367 0.950 . S
C366 C360 1.404 . S
C366 H364 0.949 . S
C366 C365 1.385 . S
H367 C365 0.950 . S
H368 C352 0.951 . S
H369 C354 0.951 . S
H370 C356 0.951 . S
H371 C357 0.950 . S
H372 C358 0.950 . S
H373 C359 0.950 . S
H374 C361 0.950 . S
H375 C362 0.951 . S
C376 C377 1.386 . S
C376 C378 1.383 . S
C376 H392 0.951 . S
C377 C376 1.386 . S
C377 C381 1.383 . S
C378 C376 1.383 . S
C378 C379 1.402 . S
C378 H393 0.951 1_565 S
C379 C378 1.402 . S
C379 C380 1.375 . S
C379 C382 1.481 . S
C380 C379 1.375 . S
C380 C381 1.367 . S
C380 H394 0.951 . S
C381 C377 1.383 . S
C381 C380 1.367 . S
C381 H395 0.950 . S
C382 C379 1.481 . S
C382 C383 1.297 1_565 S
C382 H396 0.950 . S
C383 C382 1.297 1_545 S
C383 C384 1.479 . S
C383 H397 0.950 . S
C384 C383 1.479 . S
C384 C385 1.375 . S
C384 C390 1.404 . S
C385 C384 1.375 . S
C385 C386 1.369 . S
C385 H398 0.950 . S
C386 C385 1.369 . S
C386 C387 1.392 . S
C386 H399 0.951 . S
C387 C386 1.392 . S
C387 C389 1.384 . S
H388 C390 0.949 . S
C389 C387 1.384 . S
C389 C390 1.385 . S
C389 H391 0.950 . S
C390 C384 1.404 . S
C390 H388 0.949 . S
C390 C389 1.385 . S
H391 C389 0.950 . S
H392 C376 0.951 . S
H393 C378 0.951 1_545 S
H394 C380 0.951 . S
H395 C381 0.950 . S
H396 C382 0.950 . S
H397 C383 0.950 . S
H398 C385 0.950 . S
H399 C386 0.951 . S
C400 C401 1.386 . S
C400 C402 1.383 . S
C400 H416 0.951 . S
C401 C400 1.386 . S
C401 C405 1.383 . S
C402 C400 1.383 . S
C402 C403 1.402 . S
C402 H417 0.951 . S
C403 C402 1.402 . S
C403 C404 1.375 . S
C403 C406 1.481 1_655 S
C404 C403 1.375 . S
C404 C405 1.367 . S
C404 H418 0.951 . S
C405 C401 1.383 . S
C405 C404 1.367 . S
C405 H419 0.950 . S
C406 C403 1.481 1_455 S
C406 C407 1.297 . S
C406 H420 0.950 . S
C407 C406 1.297 . S
C407 C408 1.479 . S
C407 H421 0.950 . S
C408 C407 1.479 . S
C408 C409 1.375 . S
C408 C414 1.404 . S
C409 C408 1.375 . S
C409 C410 1.369 . S
C409 H422 0.950 . S
C410 C409 1.369 . S
C410 C411 1.392 . S
C410 H423 0.951 . S
C411 C410 1.392 . S
C411 C413 1.384 . S
H412 C414 0.949 . S
C413 C411 1.384 . S
C413 C414 1.385 . S
C413 H415 0.950 . S
C414 C408 1.404 . S
C414 H412 0.949 . S
C414 C413 1.385 . S
H415 C413 0.950 . S
H416 C400 0.951 . S
H417 C402 0.951 . S
H418 C404 0.951 . S
H419 C405 0.950 . S
H420 C406 0.950 . S
H421 C407 0.950 . S
H422 C409 0.950 . S
H423 C410 0.951 . S
C424 C425 1.386 . S
C424 C426 1.383 . S
C424 H440 0.951 . S
C425 C424 1.386 . S
C425 C429 1.383 . S
C426 C424 1.383 . S
C426 C427 1.402 . S
C426 H441 0.951 . S
C427 C426 1.402 . S
C427 C428 1.375 . S
C427 C430 1.481 . S
C428 C427 1.375 . S
C428 C429 1.367 . S
C428 H442 0.951 . S
C429 C425 1.383 . S
C429 C428 1.367 . S
C429 H443 0.950 . S
C430 C427 1.481 . S
C430 C431 1.297 . S
C430 H444 0.950 . S
C431 C430 1.297 . S
C431 C432 1.479 . S
C431 H445 0.950 . S
C432 C431 1.479 . S
C432 C433 1.375 . S
C432 C438 1.404 . S
C433 C432 1.375 . S
C433 C434 1.369 . S
C433 H446 0.950 . S
C434 C433 1.369 . S
C434 C435 1.392 . S
C434 H447 0.951 . S
C435 C434 1.392 . S
C435 C437 1.384 . S
H436 C438 0.949 . S
C437 C435 1.384 . S
C437 C438 1.385 . S
C437 H439 0.950 . S
C438 C432 1.404 . S
C438 H436 0.949 . S
C438 C437 1.385 . S
H439 C437 0.950 . S
H440 C424 0.951 . S
H441 C426 0.951 . S
H442 C428 0.951 . S
H443 C429 0.950 . S
H444 C430 0.950 . S
H445 C431 0.950 . S
H446 C433 0.950 . S
H447 C434 0.951 . S
C448 C449 1.386 . S
C448 C450 1.383 . S
C448 H464 0.951 . S
C449 C448 1.386 . S
C449 C453 1.383 . S
C450 C448 1.383 . S
C450 C451 1.402 . S
C450 H465 0.951 . S
C451 C450 1.402 . S
C451 C452 1.375 . S
C451 C454 1.481 . S
C452 C451 1.375 . S
C452 C453 1.367 . S
C452 H466 0.951 . S
C453 C449 1.383 . S
C453 C452 1.367 . S
C453 H467 0.950 . S
C454 C451 1.481 . S
C454 C455 1.297 1_545 S
C454 H468 0.950 . S
C455 C454 1.297 1_565 S
C455 C456 1.479 . S
C455 H469 0.950 . S
C456 C455 1.479 . S
C456 C457 1.375 . S
C456 C462 1.404 . S
C457 C456 1.375 . S
C457 C458 1.369 . S
C457 H470 0.950 . S
C458 C457 1.369 . S
C458 C459 1.392 . S
C458 H471 0.951 . S
C459 C458 1.392 . S
C459 C461 1.384 . S
H460 C462 0.949 . S
C461 C459 1.384 . S
C461 C462 1.385 . S
C461 H463 0.950 . S
C462 C456 1.404 . S
C462 H460 0.949 . S
C462 C461 1.385 . S
H463 C461 0.950 . S
H464 C448 0.951 . S
H465 C450 0.951 . S
H466 C452 0.951 . S
H467 C453 0.950 . S
H468 C454 0.950 . S
H469 C455 0.950 . S
H470 C457 0.950 . S
H471 C458 0.951 . S
C472 C473 1.386 . S
C472 C474 1.383 . S
C472 H488 0.951 . S
C473 C472 1.386 . S
C473 C477 1.383 . S
C474 C472 1.383 . S
C474 C475 1.402 . S
C474 H489 0.951 . S
C475 C474 1.402 . S
C475 C476 1.375 . S
C475 C478 1.481 . S
C476 C475 1.375 . S
C476 C477 1.367 . S
C476 H490 0.951 . S
C477 C473 1.383 . S
C477 C476 1.367 . S
C477 H491 0.950 . S
C478 C475 1.481 . S
C478 C479 1.297 1_655 S
C478 H492 0.950 1_565 S
C479 C478 1.297 1_455 S
C479 C480 1.479 1_565 S
C479 H493 0.950 . S
C480 C479 1.479 1_545 S
C480 C481 1.375 . S
C480 C486 1.404 . S
C481 C480 1.375 . S
C481 C482 1.369 . S
C481 H494 0.950 1_545 S
C482 C481 1.369 . S
C482 C483 1.392 . S
C482 H495 0.951 . S
C483 C482 1.392 . S
C483 C485 1.384 . S
H484 C486 0.949 . S
C485 C483 1.384 . S
C485 C486 1.385 . S
C485 H487 0.950 . S
C486 C480 1.404 . S
C486 H484 0.949 . S
C486 C485 1.385 . S
H487 C485 0.950 . S
H488 C472 0.951 . S
H489 C474 0.951 . S
H490 C476 0.951 . S
H491 C477 0.950 . S
H492 C478 0.950 1_545 S
H493 C479 0.950 . S
H494 C481 0.950 1_565 S
H495 C482 0.951 . S
C113 C6 1.323 . S
C123 C76 1.336 . S
C137 C23 1.238 . S
C147 C93 1.255 . S
C161 C34 1.352 . S
C171 C104 1.298 . S
C185 C51 1.238 . S
C195 C65 1.256 . S
C209 C107 1.186 . S
C219 C9 1.157 . S
C233 C62 1.342 . S
C243 C20 1.323 . S
C257 C37 1.195 . S
C267 C79 1.199 . S
C281 C90 1.345 . S
C291 C48 1.301 . S
C305 C8 1.551 . S
C315 C92 1.532 . S
C329 C105 1.635 . S
C339 C21 1.587 . S
C353 C36 1.575 . S
C363 C64 1.570 . S
C377 C49 1.621 . S
C387 C77 1.636 . S
C401 C91 1.596 . S
C411 C7 1.664 . S
C425 C106 1.568 . S
C435 C22 1.565 . S
C449 C35 1.637 . S
C459 C63 1.584 . S
C473 C50 1.579 . S
C483 C78 1.582 . S
