# Generated by pormake.
# Topology uni, (4)-cn, num edge types: 1
# Building blocks:
#     Node 0, Type 0, BuildingBlock: QUQFOY_clean_sbu_1, # of connection points: 4
#     Node 1, Type 0, BuildingBlock: QUQFOY_clean_sbu_1, # of connection points: 4
#     Node 2, Type 0, BuildingBlock: QUQFOY_clean_sbu_1, # of connection points: 4
#     Node 3, Type 0, BuildingBlock: QUQFOY_clean_sbu_1, # of connection points: 4
#     Node 4, Type 0, BuildingBlock: QUQFOY_clean_sbu_1, # of connection points: 4
#     Node 5, Type 0, BuildingBlock: QUQFOY_clean_sbu_1, # of connection points: 4
#     Edge 6, Type (0, 0), BuildingBlock: EZIPEK_clean_linker_0, # of connection points: 2
#     Edge 7, Type (0, 0), BuildingBlock: EZIPEK_clean_linker_0, # of connection points: 2
#     Edge 8, Type (0, 0), BuildingBlock: EZIPEK_clean_linker_0, # of connection points: 2
#     Edge 9, Type (0, 0), BuildingBlock: EZIPEK_clean_linker_0, # of connection points: 2
#     Edge 10, Type (0, 0), BuildingBlock: EZIPEK_clean_linker_0, # of connection points: 2
#     Edge 11, Type (0, 0), BuildingBlock: EZIPEK_clean_linker_0, # of connection points: 2
#     Edge 12, Type (0, 0), BuildingBlock: EZIPEK_clean_linker_0, # of connection points: 2
#     Edge 13, Type (0, 0), BuildingBlock: EZIPEK_clean_linker_0, # of connection points: 2
#     Edge 14, Type (0, 0), BuildingBlock: EZIPEK_clean_linker_0, # of connection points: 2
#     Edge 15, Type (0, 0), BuildingBlock: EZIPEK_clean_linker_0, # of connection points: 2
#     Edge 16, Type (0, 0), BuildingBlock: EZIPEK_clean_linker_0, # of connection points: 2
#     Edge 17, Type (0, 0), BuildingBlock: EZIPEK_clean_linker_0, # of connection points: 2
# Relax obj value: 0.078
# Max RMSD: 0.157
# Mean RMSD: 0.157
data_MOF--net-uni--node1-QUQFOY_clean_sbu_1--edge1-EZIPEK_clean_linker_0
_symmetry_space_group_name_H-M    P1
_symmetry_Int_Tables_number       1
_symmetry_cell_setting            triclinic
loop_
_symmetry_equiv_pos_as_xyz
'x, y, z'
_cell_length_a     31.698641
_cell_length_b     31.579943
_cell_length_c     16.437988
_cell_angle_alpha  90.126928
_cell_angle_beta   89.93112
_cell_angle_gamma 120.05761
loop_
_atom_site_label
_atom_site_type_symbol
_atom_site_fract_x
_atom_site_fract_y
_atom_site_fract_z
_atom_type_partial_charge
O0 O 0.63264 0.06227 0.93487 0.0
Cd1 Cd 0.6771 0.08421 0.03481 0.0
Cd2 Cd 0.62453 0.98368 0.06824 0.0
O3 O 0.59301 0.98259 0.95774 0.0
O4 O 0.72453 0.15385 0.00793 0.0
O5 O 0.74687 0.09851 0.02658 0.0
C6 C 0.75845 0.14278 0.0083 0.0
C7 C 0.63412 0.91661 0.10713 0.0
C8 C 0.59974 0.01927 0.916 0.0
C9 C 0.6087 0.05114 0.17746 0.0
O10 O 0.59763 1.00756 0.15993 0.0
O11 O 0.64165 0.08744 0.1384 0.0
O12 O 0.59281 0.91151 0.08619 0.0
O13 O 0.67121 0.96018 0.10246 0.0
O14 O 0.58507 0.61077 0.17135 0.0
Cd15 Cd 0.62749 0.66508 0.25268 0.0
Cd16 Cd 0.67851 0.62177 0.23357 0.0
O17 O 0.64649 0.60596 0.11984 0.0
O18 O 0.59925 0.70906 0.25807 0.0
O19 O 0.67068 0.73207 0.20323 0.0
C20 C 0.63651 0.74179 0.21893 0.0
C21 C 0.75992 0.64549 0.25691 0.0
C22 C 0.60207 0.59504 0.11665 0.0
C23 C 0.61341 0.59693 0.37795 0.0
O24 O 0.63138 0.58087 0.32553 0.0
O25 O 0.61799 0.63898 0.36944 0.0
O26 O 0.72891 0.60169 0.23379 0.0
O27 O 0.74553 0.67713 0.26245 0.0
O28 O 1.00121 0.5843 0.30178 0.0
Cd29 Cd 0.99087 0.62465 0.39067 0.0
Cd30 Cd 0.08645 0.66962 0.38115 0.0
O31 O 0.07629 0.63962 0.26764 0.0
O32 O 0.92029 0.60332 0.38139 0.0
O33 O 0.979 0.67939 0.35749 0.0
C34 C 0.93311 0.64719 0.35903 0.0
C35 C 0.14628 0.75027 0.40814 0.0
C36 C 0.03799 0.59873 0.25547 0.0
C37 C 0.03704 0.60087 0.51937 0.0
O38 O 0.07285 0.61904 0.47052 0.0
O39 O 1.00168 0.60838 0.50788 0.0
O40 O 0.15753 0.71742 0.39025 0.0
O41 O 0.10079 0.73797 0.40841 0.0
O42 O 0.4501 1.01128 0.43787 0.0
Cd43 Cd 0.40135 0.98375 0.53242 0.0
Cd44 Cd 0.44928 0.08309 0.57036 0.0
O45 O 0.4833 0.09085 0.46022 0.0
O46 O 0.35622 0.91476 0.49861 0.0
O47 O 0.33135 0.96796 0.52047 0.0
C48 C 0.32131 0.92441 0.49979 0.0
C49 C 0.42591 0.13962 0.60991 0.0
C50 C 0.48028 0.05531 0.41913 0.0
C51 C 0.46459 0.01419 0.67816 0.0
O52 O 0.47558 0.05766 0.66056 0.0
O53 O 0.43213 0.97782 0.6387 0.0
O54 O 0.47104 0.1514 0.60613 0.0
O55 O 0.39331 0.09558 0.59007 0.0
O56 O 0.4867 0.44041 0.65925 0.0
Cd57 Cd 0.44394 0.39054 0.74718 0.0
Cd58 Cd 0.40247 0.44477 0.7333 0.0
O59 O 0.43439 0.46326 0.62086 0.0
O60 O 0.46502 0.34076 0.74256 0.0
O61 O 0.38986 0.32349 0.71344 0.0
C62 C 0.42182 0.3096 0.7179 0.0
C63 C 0.32233 0.42528 0.75861 0.0
C64 C 0.47439 0.46378 0.61118 0.0
C65 C 0.46764 0.46157 0.87513 0.0
O66 O 0.45182 0.48068 0.82469 0.0
O67 O 0.45854 0.41793 0.8643 0.0
O68 O 0.35549 0.46919 0.74021 0.0
O69 O 0.33395 0.39146 0.75935 0.0
O70 O 0.07539 0.4846 0.80763 0.0
Cd71 Cd 0.09018 0.44613 0.89256 0.0
Cd72 Cd 0.99469 0.39368 0.88231 0.0
O73 O 1.00595 0.42282 0.76646 0.0
O74 O 0.16105 0.46963 0.87931 0.0
O75 O 0.10362 0.39246 0.85902 0.0
C76 C 0.14919 0.4257 0.85842 0.0
C77 C 0.93469 0.31306 0.90975 0.0
C78 C 0.04012 0.46677 0.75775 0.0
C79 C 0.0411 0.46422 0.02162 0.0
O80 O 1.00487 0.44285 0.97393 0.0
O81 O 0.07978 0.46267 0.00855 0.0
O82 O 0.92355 0.3455 0.88879 0.0
O83 O 0.9802 0.3255 0.91172 0.0
C84 C 0.59744 0.08223 0.31185 0.0
C85 C 0.57779 0.05867 0.23651 0.0
C86 C 0.49786 0.04734 0.27447 0.0
C87 C 0.51565 0.06406 0.35372 0.0
N88 N 0.58104 0.09308 0.45201 0.0
N89 N 0.50831 0.01563 0.14684 0.0
C90 C 0.56532 0.08118 0.37337 0.0
C91 C 0.52775 0.04055 0.2178 0.0
N92 N 0.64654 0.10472 0.32527 0.0
N93 N 0.45249 0.03869 0.25331 0.0
H94 H 0.52884 1.01102 0.10193 0.0
H95 H 0.4711 0.99651 0.13454 0.0
H96 H 0.43003 0.04381 0.2938 0.0
H97 H 0.43901 0.03115 0.19411 0.0
H98 H 0.66362 0.12723 0.37521 0.0
H99 H 0.67088 0.10383 0.28355 0.0
H100 H 0.61499 0.09977 0.47197 0.0
H101 H 0.55896 0.09286 0.49922 0.0
C102 C 0.53377 0.52233 0.41044 0.0
C103 C 0.57842 0.56268 0.43819 0.0
C104 C 0.55272 0.54003 0.57937 0.0
C105 C 0.51015 0.4974 0.55141 0.0
N106 N 0.4634 0.44352 0.44198 0.0
N107 N 0.63389 0.60651 0.54747 0.0
C108 C 0.50157 0.48726 0.46735 0.0
C109 C 0.5889 0.57063 0.52231 0.0
N110 N 0.52108 0.51867 0.33015 0.0
N111 N 0.55767 0.55225 0.66009 0.0
H112 H 0.66105 0.62977 0.50707 0.0
H113 H 0.64571 0.61073 0.60756 0.0
H114 H 0.53196 0.53096 0.70395 0.0
H115 H 0.58517 0.58548 0.68287 0.0
H116 H 0.48677 0.49327 0.30804 0.0
H117 H 0.54319 0.54374 0.28624 0.0
H118 H 0.45848 0.43159 0.3818 0.0
H119 H 0.43878 0.41717 0.48218 0.0
C120 C 0.99271 0.49573 0.67208 0.0
C121 C 0.03776 0.49931 0.69453 0.0
C122 C 0.08036 0.57647 0.62007 0.0
C123 C 0.03583 0.56773 0.58486 0.0
N124 N 0.95021 0.50832 0.56211 0.0
N125 N 0.12439 0.53747 0.66717 0.0
C126 C 0.99198 0.52431 0.60625 0.0
C127 C 0.08168 0.53801 0.66176 0.0
N128 N 0.95099 0.4675 0.71521 0.0
N129 N 0.12117 0.62166 0.61612 0.0
H130 H 0.12635 0.5078 0.69029 0.0
H131 H 0.15636 0.56363 0.63884 0.0
H132 H 0.12085 0.65207 0.59216 0.0
H133 H 0.15341 0.63001 0.64614 0.0
H134 H 0.91861 0.46735 0.7032 0.0
H135 H 0.94998 0.44971 0.76902 0.0
H136 H 0.91898 0.4747 0.57327 0.0
H137 H 0.94827 0.52478 0.50857 0.0
C138 C 0.55806 0.98998 0.78072 0.0
C139 C 0.56229 1.01336 0.85634 0.0
C140 C 0.49298 0.02406 0.82123 0.0
C141 C 0.49334 1.00716 0.74175 0.0
N142 N 0.5295 0.97891 0.6414 0.0
N143 N 0.53652 0.0567 0.9472 0.0
C144 C 0.52627 0.99072 0.72038 0.0
C145 C 0.53043 0.03144 0.87635 0.0
N146 N 0.58481 0.96769 0.76621 0.0
N147 N 0.45606 0.03204 0.84437 0.0
H148 H 0.56215 0.06172 -0.00867 0.0
H149 H 0.51842 0.0758 0.96006 0.0
H150 H 0.42777 0.02638 0.80528 0.0
H151 H 0.4507 0.03948 0.90403 0.0
H152 H 0.57939 0.94544 0.71587 0.0
H153 H 0.61015 0.96856 0.80758 0.0
H154 H 0.55673 0.97241 0.62031 0.0
H155 H 0.50719 0.9791 0.59506 0.0
C156 C 0.53013 0.56699 0.02307 0.0
C157 C 0.56854 0.56078 0.05386 0.0
C158 C 0.54324 0.49106 0.96224 0.0
C159 C 0.50046 0.49261 0.94152 0.0
N160 N 0.44738 0.52487 0.97351 0.0
N161 N 0.60007 0.50527 0.07021 0.0
C162 C 0.49202 0.52834 0.97858 0.0
C163 C 0.57183 0.5194 0.02883 0.0
N164 N 0.53076 0.61027 0.03292 0.0
N165 N 0.55867 0.46521 0.91653 0.0
H166 H 0.61824 0.52174 0.12405 0.0
H167 H 0.60005 0.47297 0.05666 0.0
H168 H 0.54205 0.44743 0.86253 0.0
H169 H 0.59192 0.46688 0.927 0.0
H170 H 0.50509 0.61719 0.00581 0.0
H171 H 0.55999 0.64113 0.05906 0.0
H172 H 0.4389 0.54835 0.00501 0.0
H173 H 0.41735 0.49516 0.94648 0.0
C174 C 0.03473 0.48625 0.1656 0.0
C175 C 0.04143 0.4988 0.08222 0.0
C176 C 0.0421 0.57532 0.11147 0.0
C177 C 0.03889 0.56443 0.19546 0.0
N178 N 0.04125 0.51442 0.3046 0.0
N179 N 0.05964 0.55819 0.97584 0.0
C180 C 0.03759 0.52115 0.22326 0.0
C181 C 0.04744 0.54421 0.05509 0.0
N182 N 0.02443 0.44058 0.18935 0.0
N183 N 0.03834 0.61441 0.0855 0.0
H184 H 0.06366 0.53634 0.93243 0.0
H185 H 0.06975 0.59301 0.95446 0.0
H186 H 0.03451 0.63804 0.12534 0.0
H187 H 0.03499 0.62119 0.02458 0.0
H188 H 1.01362 0.42721 0.2481 0.0
H189 H 0.0231 0.41452 0.14864 0.0
H190 H 0.04574 0.48628 0.3278 0.0
H191 H 0.04415 0.53937 0.34901 0.0
C192 C 0.68247 0.83166 0.17392 0.0
C193 C 0.63793 0.78752 0.18968 0.0
C194 C 0.59495 0.8328 0.17106 0.0
C195 C 0.63732 0.87358 0.13829 0.0
N196 N 0.72003 0.90382 0.08955 0.0
N197 N 0.55014 0.7452 0.16862 0.0
C198 C 0.6809 0.87095 0.13405 0.0
C199 C 0.59356 0.78761 0.17789 0.0
N200 N 0.72607 0.83758 0.19935 0.0
N201 N 0.55666 0.83691 0.19944 0.0
H202 H 0.54753 0.71123 0.16063 0.0
H203 H 0.51784 0.74517 0.15611 0.0
H204 H 0.55832 0.87048 0.2071 0.0
H205 H 0.52644 0.80767 0.22695 0.0
H206 H 0.75862 0.87074 0.19353 0.0
H207 H 0.72906 0.81224 0.23563 0.0
H208 H 0.75079 0.90038 0.081 0.0
H209 H 0.71948 0.93023 0.0526 0.0
C210 C 0.88129 0.64983 0.24667 0.0
C211 C 0.89564 0.65838 0.32956 0.0
C212 C 0.82489 0.66695 0.36293 0.0
C213 C 0.80996 0.65752 0.28013 0.0
N214 N 0.82921 0.65198 0.14033 0.0
N215 N 0.88898 0.68663 0.46219 0.0
C216 C 0.84 0.65284 0.22103 0.0
C217 C 0.87004 0.67098 0.38618 0.0
N218 N 0.90602 0.6369 0.19323 0.0
N219 N 0.7945 0.66876 0.42021 0.0
H220 H 0.92176 0.6894 0.48069 0.0
H221 H 0.87474 0.7009 0.50412 0.0
H222 H 0.76125 0.66617 0.40601 0.0
H223 H 0.80057 0.66959 0.48256 0.0
H224 H 0.89401 0.62425 0.13451 0.0
H225 H 0.93768 0.63646 0.20907 0.0
H226 H 0.85186 0.65307 0.09349 0.0
H227 H 0.79946 0.65469 0.12003 0.0
C228 C 0.21914 0.82935 0.36803 0.0
C229 C 0.18535 0.80048 0.42903 0.0
C230 C 0.23456 0.86186 0.53235 0.0
C231 C 0.27179 0.8865 0.47359 0.0
N232 N 0.30021 0.89574 0.33518 0.0
N233 N 0.16026 0.78747 0.56959 0.0
C234 C 0.26404 0.87106 0.39105 0.0
C235 C 0.19235 0.81671 0.51115 0.0
N236 N 0.20768 0.8171 0.28799 0.0
N237 N 0.23995 0.88129 0.60859 0.0
H238 H 0.12861 0.75462 0.55628 0.0
H239 H 0.16619 0.79407 0.63174 0.0
H240 H 0.27107 0.9134 0.6267 0.0
H241 H 0.2123 0.86793 0.65192 0.0
H242 H 0.22847 0.83874 0.23967 0.0
H243 H 0.17477 0.78697 0.26963 0.0
H244 H 0.29971 0.88313 0.27645 0.0
H245 H 0.3321 0.92839 0.34864 0.0
C246 C 0.40196 0.24566 0.60975 0.0
C247 C 0.41073 0.25986 0.69295 0.0
C248 C 0.42026 0.18917 0.72395 0.0
C249 C 0.41284 0.17576 0.64051 0.0
N250 N 0.38516 0.18322 0.5079 0.0
N251 N 0.41579 0.2394 0.83205 0.0
C252 C 0.39947 0.2012 0.58484 0.0
C253 C 0.41589 0.22964 0.75099 0.0
N254 N 0.39946 0.27626 0.55367 0.0
N255 N 0.43281 0.16392 0.77681 0.0
H256 H 0.41191 0.26844 0.85331 0.0
H257 H 0.4151 0.21655 0.87818 0.0
H258 H 0.43326 0.13223 0.76019 0.0
H259 H 0.44474 0.17531 0.83604 0.0
H260 H 0.39919 0.27102 0.49109 0.0
H261 H 0.40084 0.30894 0.56917 0.0
H262 H 0.37033 0.1972 0.46675 0.0
H263 H 0.38426 0.15151 0.48736 0.0
C264 C 0.21106 0.40011 0.88481 0.0
C265 C 0.18727 0.41528 0.82899 0.0
C266 C 0.24466 0.42295 0.72182 0.0
C267 C 0.27271 0.41514 0.78069 0.0
N268 N 0.28476 0.39878 0.91955 0.0
N269 N 0.18032 0.44142 0.69457 0.0
C270 C 0.25608 0.40349 0.86235 0.0
C271 C 0.20348 0.42629 0.7472 0.0
N272 N 0.19055 0.38265 0.9593 0.0
N273 N 0.25706 0.42622 0.64143 0.0
H274 H 0.14844 0.44158 0.70982 0.0
H275 H 0.19374 0.45593 0.6373 0.0
H276 H 0.28672 0.42331 0.62114 0.0
H277 H 0.23579 0.42743 0.59431 0.0
H278 H 0.20335 0.3665 0.0001 0.0
H279 H 0.15798 0.38047 0.97752 0.0
H280 H 0.27757 0.39614 0.98169 0.0
H281 H 0.31779 0.40074 0.90569 0.0
C282 C 0.86117 0.23365 0.87298 0.0
C283 C 0.89546 0.26337 0.93283 0.0
C284 C 0.84577 0.20458 0.03887 0.0
C285 C 0.80817 0.17943 0.98097 0.0
N286 N 0.77928 0.16803 0.84264 0.0
N287 N 0.92107 0.27879 0.07312 0.0
C288 C 0.81589 0.19312 0.89768 0.0
C289 C 0.88848 0.2488 0.01579 0.0
N290 N 0.87252 0.24399 0.79248 0.0
N291 N 0.84027 0.18646 0.116 0.0
H292 H 0.95305 0.31099 0.05854 0.0
H293 H 0.91529 0.27345 0.13551 0.0
H294 H 0.80888 0.1549 0.13498 0.0
H295 H 0.86802 0.20022 0.15916 0.0
H296 H 0.85128 0.22154 0.74513 0.0
H297 H 0.90573 0.27321 0.77298 0.0
H298 H 0.77991 0.17961 0.7832 0.0
H299 H 0.74692 0.13622 0.85747 0.0
loop_
_geom_bond_atom_site_label_1
_geom_bond_atom_site_label_2
_geom_bond_distance
_geom_bond_site_symmetry_2
_ccdc_geom_bond_type
O0 Cd1 2.223 . S
O0 C8 1.315 1_554 S
Cd1 O0 2.223 . S
Cd1 O4 2.297 . S
Cd1 O5 2.439 . S
Cd1 O11 2.240 . S
Cd2 O3 2.240 1_564 S
Cd2 O10 2.223 . S
Cd2 O12 2.297 . S
Cd2 O13 2.439 . S
O3 Cd2 2.240 1_546 S
O3 C8 1.279 . S
O4 Cd1 2.297 . S
O4 C6 1.247 . S
O5 Cd1 2.439 . S
O5 C6 1.208 . S
C6 O4 1.247 . S
C6 O5 1.208 . S
C7 O12 1.247 . S
C7 O13 1.208 . S
C8 O0 1.315 1_556 S
C8 O3 1.279 . S
C9 O10 1.315 . S
C9 O11 1.279 1_565 S
O10 Cd2 2.223 . S
O10 C9 1.315 . S
O11 Cd1 2.240 . S
O11 C9 1.279 1_545 S
O12 Cd2 2.297 . S
O12 C7 1.247 . S
O13 Cd2 2.439 . S
O13 C7 1.208 . S
O14 Cd15 2.223 . S
O14 C22 1.315 . S
Cd15 O14 2.223 . S
Cd15 O18 2.297 . S
Cd15 O19 2.439 . S
Cd15 O25 2.240 . S
Cd16 O17 2.240 . S
Cd16 O24 2.223 . S
Cd16 O26 2.297 . S
Cd16 O27 2.439 . S
O17 Cd16 2.240 . S
O17 C22 1.279 . S
O18 Cd15 2.297 . S
O18 C20 1.247 . S
O19 Cd15 2.439 . S
O19 C20 1.208 . S
C20 O18 1.247 . S
C20 O19 1.208 . S
C21 O26 1.247 . S
C21 O27 1.208 . S
C22 O14 1.315 . S
C22 O17 1.279 . S
C23 O24 1.315 . S
C23 O25 1.279 . S
O24 Cd16 2.223 . S
O24 C23 1.315 . S
O25 Cd15 2.240 . S
O25 C23 1.279 . S
O26 Cd16 2.297 . S
O26 C21 1.247 . S
O27 Cd16 2.439 . S
O27 C21 1.208 . S
O28 Cd29 2.223 . S
O28 C36 1.315 . S
Cd29 O28 2.223 . S
Cd29 O32 2.297 . S
Cd29 O33 2.439 . S
Cd29 O39 2.240 1_655 S
Cd30 O31 2.240 . S
Cd30 O38 2.223 . S
Cd30 O40 2.297 . S
Cd30 O41 2.439 . S
O31 Cd30 2.240 . S
O31 C36 1.279 1_455 S
O32 Cd29 2.297 . S
O32 C34 1.247 . S
O33 Cd29 2.439 . S
O33 C34 1.208 . S
C34 O32 1.247 . S
C34 O33 1.208 . S
C35 O40 1.247 . S
C35 O41 1.208 . S
C36 O28 1.315 . S
C36 O31 1.279 1_655 S
C37 O38 1.315 . S
C37 O39 1.279 . S
O38 Cd30 2.223 . S
O38 C37 1.315 . S
O39 Cd29 2.240 1_455 S
O39 C37 1.279 . S
O40 Cd30 2.297 . S
O40 C35 1.247 . S
O41 Cd30 2.439 . S
O41 C35 1.208 . S
O42 Cd43 2.223 . S
O42 C50 1.315 . S
Cd43 O42 2.223 . S
Cd43 O46 2.297 . S
Cd43 O47 2.439 . S
Cd43 O53 2.240 1_565 S
Cd44 O45 2.240 . S
Cd44 O52 2.223 . S
Cd44 O54 2.297 . S
Cd44 O55 2.439 . S
O45 Cd44 2.240 . S
O45 C50 1.279 1_545 S
O46 Cd43 2.297 . S
O46 C48 1.247 . S
O47 Cd43 2.439 . S
O47 C48 1.208 . S
C48 O46 1.247 . S
C48 O47 1.208 . S
C49 O54 1.247 . S
C49 O55 1.208 . S
C50 O42 1.315 . S
C50 O45 1.279 1_565 S
C51 O52 1.315 . S
C51 O53 1.279 . S
O52 Cd44 2.223 . S
O52 C51 1.315 . S
O53 Cd43 2.240 1_545 S
O53 C51 1.279 . S
O54 Cd44 2.297 . S
O54 C49 1.247 . S
O55 Cd44 2.439 . S
O55 C49 1.208 . S
O56 Cd57 2.223 . S
O56 C64 1.315 . S
Cd57 O56 2.223 . S
Cd57 O60 2.297 . S
Cd57 O61 2.439 . S
Cd57 O67 2.240 . S
Cd58 O59 2.240 . S
Cd58 O66 2.223 . S
Cd58 O68 2.297 . S
Cd58 O69 2.439 . S
O59 Cd58 2.240 . S
O59 C64 1.279 . S
O60 Cd57 2.297 . S
O60 C62 1.247 . S
O61 Cd57 2.439 . S
O61 C62 1.208 . S
C62 O60 1.247 . S
C62 O61 1.208 . S
C63 O68 1.247 . S
C63 O69 1.208 . S
C64 O56 1.315 . S
C64 O59 1.279 . S
C65 O66 1.315 . S
C65 O67 1.279 . S
O66 Cd58 2.223 . S
O66 C65 1.315 . S
O67 Cd57 2.240 . S
O67 C65 1.279 . S
O68 Cd58 2.297 . S
O68 C63 1.247 . S
O69 Cd58 2.439 . S
O69 C63 1.208 . S
O70 Cd71 2.223 . S
O70 C78 1.315 . S
Cd71 O70 2.223 . S
Cd71 O74 2.297 . S
Cd71 O75 2.439 . S
Cd71 O81 2.240 1_556 S
Cd72 O73 2.240 1_655 S
Cd72 O80 2.223 . S
Cd72 O82 2.297 . S
Cd72 O83 2.439 . S
O73 Cd72 2.240 1_455 S
O73 C78 1.279 . S
O74 Cd71 2.297 . S
O74 C76 1.247 . S
O75 Cd71 2.439 . S
O75 C76 1.208 . S
C76 O74 1.247 . S
C76 O75 1.208 . S
C77 O82 1.247 . S
C77 O83 1.208 . S
C78 O70 1.315 . S
C78 O73 1.279 . S
C79 O80 1.315 1_554 S
C79 O81 1.279 1_655 S
O80 Cd72 2.223 . S
O80 C79 1.315 1_556 S
O81 Cd71 2.240 1_554 S
O81 C79 1.279 1_455 S
O82 Cd72 2.297 . S
O82 C77 1.247 . S
O83 Cd72 2.439 . S
O83 C77 1.208 . S
C84 C85 1.363 . S
C84 C90 1.379 . S
C84 N92 1.356 . S
C85 C84 1.363 . S
C85 C91 1.363 1_545 S
C86 C87 1.363 1_565 S
C86 C91 1.379 . S
C86 N93 1.356 . S
C87 C86 1.363 1_545 S
C87 C90 1.363 . S
N88 C90 1.356 . S
N88 H100 0.984 . S
N88 H101 0.985 . S
N89 C91 1.356 . S
N89 H94 0.984 . S
N89 H95 0.985 . S
C90 C84 1.379 . S
C90 C87 1.363 . S
C90 N88 1.356 . S
C91 C85 1.363 1_565 S
C91 C86 1.379 . S
C91 N89 1.356 . S
N92 C84 1.356 . S
N92 H98 0.984 . S
N92 H99 0.984 . S
N93 C86 1.356 . S
N93 H96 0.984 . S
N93 H97 0.985 . S
H94 N89 0.984 . S
H95 N89 0.985 . S
H96 N93 0.984 . S
H97 N93 0.985 . S
H98 N92 0.984 . S
H99 N92 0.984 . S
H100 N88 0.984 . S
H101 N88 0.985 . S
C102 C103 1.363 . S
C102 C108 1.379 . S
C102 N110 1.356 . S
C103 C102 1.363 . S
C103 C109 1.363 . S
C104 C105 1.363 . S
C104 C109 1.379 . S
C104 N111 1.356 . S
C105 C104 1.363 . S
C105 C108 1.363 . S
N106 C108 1.356 . S
N106 H118 0.984 . S
N106 H119 0.985 . S
N107 C109 1.356 . S
N107 H112 0.984 . S
N107 H113 0.985 . S
C108 C102 1.379 . S
C108 C105 1.363 . S
C108 N106 1.356 . S
C109 C103 1.363 . S
C109 C104 1.379 . S
C109 N107 1.356 . S
N110 C102 1.356 . S
N110 H116 0.984 . S
N110 H117 0.984 . S
N111 C104 1.356 . S
N111 H114 0.984 . S
N111 H115 0.985 . S
H112 N107 0.984 . S
H113 N107 0.985 . S
H114 N111 0.984 . S
H115 N111 0.985 . S
H116 N110 0.984 . S
H117 N110 0.984 . S
H118 N106 0.984 . S
H119 N106 0.985 . S
C120 C121 1.363 1_655 S
C120 C126 1.379 . S
C120 N128 1.356 . S
C121 C120 1.363 1_455 S
C121 C127 1.363 . S
C122 C123 1.363 . S
C122 C127 1.379 . S
C122 N129 1.356 . S
C123 C122 1.363 . S
C123 C126 1.363 1_455 S
N124 C126 1.356 . S
N124 H136 0.984 . S
N124 H137 0.985 . S
N125 C127 1.356 . S
N125 H130 0.984 . S
N125 H131 0.985 . S
C126 C120 1.379 . S
C126 C123 1.363 1_655 S
C126 N124 1.356 . S
C127 C121 1.363 . S
C127 C122 1.379 . S
C127 N125 1.356 . S
N128 C120 1.356 . S
N128 H134 0.984 . S
N128 H135 0.984 . S
N129 C122 1.356 . S
N129 H132 0.984 . S
N129 H133 0.985 . S
H130 N125 0.984 . S
H131 N125 0.985 . S
H132 N129 0.984 . S
H133 N129 0.985 . S
H134 N128 0.984 . S
H135 N128 0.984 . S
H136 N124 0.984 . S
H137 N124 0.985 . S
C138 C139 1.381 . S
C138 C144 1.379 . S
C138 N146 1.331 1_545 S
C139 C138 1.381 . S
C139 C145 1.363 . S
C140 C141 1.363 . S
C140 C145 1.379 . S
C140 N147 1.356 . S
C141 C140 1.363 . S
C141 C144 1.391 . S
N142 C144 1.345 1_565 S
N142 H154 0.984 . S
N142 H155 0.985 . S
N143 C145 1.356 . S
N143 H148 0.984 . S
N143 H149 0.985 . S
C144 C138 1.379 . S
C144 C141 1.391 . S
C144 N142 1.345 1_545 S
C145 C139 1.363 . S
C145 C140 1.379 . S
C145 N143 1.356 . S
N146 C138 1.331 1_565 S
N146 H152 0.984 . S
N146 H153 0.984 . S
N147 C140 1.356 . S
N147 H150 0.984 . S
N147 H151 0.985 . S
H148 N143 0.984 . S
H149 N143 0.985 . S
H150 N147 0.984 . S
H151 N147 0.985 . S
H152 N146 0.984 . S
H153 N146 0.984 . S
H154 N142 0.984 . S
H155 N142 0.985 . S
C156 C157 1.363 . S
C156 C162 1.379 1_554 S
C156 N164 1.356 . S
C157 C156 1.363 . S
C157 C163 1.363 . S
C158 C159 1.363 . S
C158 C163 1.379 1_556 S
C158 N165 1.356 . S
C159 C158 1.363 . S
C159 C162 1.363 . S
N160 C162 1.356 . S
N160 H172 0.984 . S
N160 H173 0.985 . S
N161 C163 1.356 . S
N161 H166 0.984 . S
N161 H167 0.985 . S
C162 C156 1.379 1_556 S
C162 C159 1.363 . S
C162 N160 1.356 . S
C163 C157 1.363 . S
C163 C158 1.379 1_554 S
C163 N161 1.356 . S
N164 C156 1.356 . S
N164 H170 0.984 . S
N164 H171 0.984 . S
N165 C158 1.356 . S
N165 H168 0.984 . S
N165 H169 0.985 . S
H166 N161 0.984 . S
H167 N161 0.985 . S
H168 N165 0.984 . S
H169 N165 0.985 . S
H170 N164 0.984 . S
H171 N164 0.984 . S
H172 N160 0.984 . S
H173 N160 0.985 . S
C174 C175 1.363 1_655 S
C174 C180 1.379 . S
C174 N182 1.356 . S
C175 C174 1.363 1_455 S
C175 C181 1.363 . S
C176 C177 1.363 . S
C176 C181 1.379 . S
C176 N183 1.356 . S
C177 C176 1.363 . S
C177 C180 1.363 1_455 S
N178 C180 1.356 . S
N178 H190 0.984 . S
N178 H191 0.985 . S
N179 C181 1.356 . S
N179 H184 0.984 1_554 S
N179 H185 0.985 . S
C180 C174 1.379 . S
C180 C177 1.363 1_655 S
C180 N178 1.356 . S
C181 C175 1.363 . S
C181 C176 1.379 . S
C181 N179 1.356 . S
N182 C174 1.356 . S
N182 H188 0.984 . S
N182 H189 0.984 . S
N183 C176 1.356 . S
N183 H186 0.984 . S
N183 H187 0.985 . S
H184 N179 0.984 1_556 S
H185 N179 0.985 . S
H186 N183 0.984 . S
H187 N183 0.985 . S
H188 N182 0.984 . S
H189 N182 0.984 . S
H190 N178 0.984 . S
H191 N178 0.985 . S
C192 C193 1.363 . S
C192 C198 1.379 . S
C192 N200 1.356 . S
C193 C192 1.363 . S
C193 C199 1.363 . S
C194 C195 1.363 . S
C194 C199 1.379 . S
C194 N201 1.356 . S
C195 C194 1.363 . S
C195 C198 1.363 . S
N196 C198 1.356 . S
N196 H208 0.984 . S
N196 H209 0.985 . S
N197 C199 1.356 . S
N197 H202 0.984 . S
N197 H203 0.985 . S
C198 C192 1.379 . S
C198 C195 1.363 . S
C198 N196 1.356 . S
C199 C193 1.363 . S
C199 C194 1.379 . S
C199 N197 1.356 . S
N200 C192 1.356 . S
N200 H206 0.984 . S
N200 H207 0.984 . S
N201 C194 1.356 . S
N201 H204 0.984 . S
N201 H205 0.985 . S
H202 N197 0.984 . S
H203 N197 0.985 . S
H204 N201 0.984 . S
H205 N201 0.985 . S
H206 N200 0.984 . S
H207 N200 0.984 . S
H208 N196 0.984 . S
H209 N196 0.985 . S
C210 C211 1.363 . S
C210 C216 1.379 . S
C210 N218 1.356 . S
C211 C210 1.363 . S
C211 C217 1.363 . S
C212 C213 1.363 . S
C212 C217 1.379 . S
C212 N219 1.356 . S
C213 C212 1.363 . S
C213 C216 1.363 . S
N214 C216 1.356 . S
N214 H226 0.984 . S
N214 H227 0.985 . S
N215 C217 1.356 . S
N215 H220 0.984 . S
N215 H221 0.985 . S
C216 C210 1.379 . S
C216 C213 1.363 . S
C216 N214 1.356 . S
C217 C211 1.363 . S
C217 C212 1.379 . S
C217 N215 1.356 . S
N218 C210 1.356 . S
N218 H224 0.984 . S
N218 H225 0.984 . S
N219 C212 1.356 . S
N219 H222 0.984 . S
N219 H223 0.985 . S
H220 N215 0.984 . S
H221 N215 0.985 . S
H222 N219 0.984 . S
H223 N219 0.985 . S
H224 N218 0.984 . S
H225 N218 0.984 . S
H226 N214 0.984 . S
H227 N214 0.985 . S
C228 C229 1.363 . S
C228 C234 1.379 . S
C228 N236 1.356 . S
C229 C228 1.363 . S
C229 C235 1.363 . S
C230 C231 1.363 . S
C230 C235 1.379 . S
C230 N237 1.356 . S
C231 C230 1.363 . S
C231 C234 1.363 . S
N232 C234 1.356 . S
N232 H244 0.984 . S
N232 H245 0.985 . S
N233 C235 1.356 . S
N233 H238 0.984 . S
N233 H239 0.985 . S
C234 C228 1.379 . S
C234 C231 1.363 . S
C234 N232 1.356 . S
C235 C229 1.363 . S
C235 C230 1.379 . S
C235 N233 1.356 . S
N236 C228 1.356 . S
N236 H242 0.984 . S
N236 H243 0.984 . S
N237 C230 1.356 . S
N237 H240 0.984 . S
N237 H241 0.985 . S
H238 N233 0.984 . S
H239 N233 0.985 . S
H240 N237 0.984 . S
H241 N237 0.985 . S
H242 N236 0.984 . S
H243 N236 0.984 . S
H244 N232 0.984 . S
H245 N232 0.985 . S
C246 C247 1.363 . S
C246 C252 1.379 . S
C246 N254 1.356 . S
C247 C246 1.363 . S
C247 C253 1.363 . S
C248 C249 1.363 . S
C248 C253 1.379 . S
C248 N255 1.356 . S
C249 C248 1.363 . S
C249 C252 1.363 . S
N250 C252 1.356 . S
N250 H262 0.984 . S
N250 H263 0.985 . S
N251 C253 1.356 . S
N251 H256 0.984 . S
N251 H257 0.985 . S
C252 C246 1.379 . S
C252 C249 1.363 . S
C252 N250 1.356 . S
C253 C247 1.363 . S
C253 C248 1.379 . S
C253 N251 1.356 . S
N254 C246 1.356 . S
N254 H260 0.984 . S
N254 H261 0.984 . S
N255 C248 1.356 . S
N255 H258 0.984 . S
N255 H259 0.985 . S
H256 N251 0.984 . S
H257 N251 0.985 . S
H258 N255 0.984 . S
H259 N255 0.985 . S
H260 N254 0.984 . S
H261 N254 0.984 . S
H262 N250 0.984 . S
H263 N250 0.985 . S
C264 C265 1.363 . S
C264 C270 1.379 . S
C264 N272 1.356 . S
C265 C264 1.363 . S
C265 C271 1.363 . S
C266 C267 1.363 . S
C266 C271 1.379 . S
C266 N273 1.356 . S
C267 C266 1.363 . S
C267 C270 1.363 . S
N268 C270 1.356 . S
N268 H280 0.984 . S
N268 H281 0.985 . S
N269 C271 1.356 . S
N269 H274 0.984 . S
N269 H275 0.985 . S
C270 C264 1.379 . S
C270 C267 1.363 . S
C270 N268 1.356 . S
C271 C265 1.363 . S
C271 C266 1.379 . S
C271 N269 1.356 . S
N272 C264 1.356 . S
N272 H278 0.984 . S
N272 H279 0.984 . S
N273 C266 1.356 . S
N273 H276 0.984 . S
N273 H277 0.985 . S
H274 N269 0.984 . S
H275 N269 0.985 . S
H276 N273 0.984 . S
H277 N273 0.985 . S
H278 N272 0.984 . S
H279 N272 0.984 . S
H280 N268 0.984 . S
H281 N268 0.985 . S
C282 C283 1.363 . S
C282 C288 1.379 . S
C282 N290 1.356 . S
C283 C282 1.363 . S
C283 C289 1.363 1_556 S
C284 C285 1.363 1_554 S
C284 C289 1.379 . S
C284 N291 1.356 . S
C285 C284 1.363 1_556 S
C285 C288 1.363 . S
N286 C288 1.356 . S
N286 H298 0.984 . S
N286 H299 0.985 . S
N287 C289 1.356 . S
N287 H292 0.984 . S
N287 H293 0.985 . S
C288 C282 1.379 . S
C288 C285 1.363 . S
C288 N286 1.356 . S
C289 C283 1.363 1_554 S
C289 C284 1.379 . S
C289 N287 1.356 . S
N290 C282 1.356 . S
N290 H296 0.984 . S
N290 H297 0.984 . S
N291 C284 1.356 . S
N291 H294 0.984 . S
N291 H295 0.985 . S
H292 N287 0.984 . S
H293 N287 0.985 . S
H294 N291 0.984 . S
H295 N291 0.985 . S
H296 N290 0.984 . S
H297 N290 0.984 . S
H298 N286 0.984 . S
H299 N286 0.985 . S
C85 C9 1.760 1_545 S
C87 C50 1.760 1_545 S
C103 C23 1.760 . S
C105 C64 1.760 . S
C121 C78 1.760 . S
C123 C37 1.760 . S
C139 C8 1.760 . S
C141 C51 1.760 . S
C157 C22 1.760 . S
C159 C65 1.760 . S
C175 C79 1.760 1_455 S
C177 C36 1.760 1_455 S
C193 C20 1.458 . S
C195 C7 1.458 . S
C211 C34 1.458 . S
C213 C21 1.458 . S
C229 C35 1.458 . S
C231 C48 1.458 . S
C247 C62 1.458 . S
C249 C49 1.458 . S
C265 C76 1.458 . S
C267 C63 1.458 . S
C283 C77 1.458 . S
C285 C6 1.458 1_556 S
