# Generated by pormake.
# Topology uml, (4)-cn, num edge types: 1
# Building blocks:
#     Node 0, Type 0, BuildingBlock: QUQFOY_clean_sbu_1, # of connection points: 4
#     Node 1, Type 0, BuildingBlock: QUQFOY_clean_sbu_1, # of connection points: 4
#     Node 2, Type 0, BuildingBlock: QUQFOY_clean_sbu_1, # of connection points: 4
#     Node 3, Type 0, BuildingBlock: QUQFOY_clean_sbu_1, # of connection points: 4
#     Node 4, Type 0, BuildingBlock: QUQFOY_clean_sbu_1, # of connection points: 4
#     Node 5, Type 0, BuildingBlock: QUQFOY_clean_sbu_1, # of connection points: 4
#     Node 6, Type 0, BuildingBlock: QUQFOY_clean_sbu_1, # of connection points: 4
#     Node 7, Type 0, BuildingBlock: QUQFOY_clean_sbu_1, # of connection points: 4
#     Node 8, Type 0, BuildingBlock: QUQFOY_clean_sbu_1, # of connection points: 4
#     Node 9, Type 0, BuildingBlock: QUQFOY_clean_sbu_1, # of connection points: 4
#     Node 10, Type 0, BuildingBlock: QUQFOY_clean_sbu_1, # of connection points: 4
#     Node 11, Type 0, BuildingBlock: QUQFOY_clean_sbu_1, # of connection points: 4
#     Node 12, Type 0, BuildingBlock: QUQFOY_clean_sbu_1, # of connection points: 4
#     Node 13, Type 0, BuildingBlock: QUQFOY_clean_sbu_1, # of connection points: 4
#     Node 14, Type 0, BuildingBlock: QUQFOY_clean_sbu_1, # of connection points: 4
#     Node 15, Type 0, BuildingBlock: QUQFOY_clean_sbu_1, # of connection points: 4
#     Node 16, Type 0, BuildingBlock: QUQFOY_clean_sbu_1, # of connection points: 4
#     Node 17, Type 0, BuildingBlock: QUQFOY_clean_sbu_1, # of connection points: 4
#     Node 18, Type 0, BuildingBlock: QUQFOY_clean_sbu_1, # of connection points: 4
#     Node 19, Type 0, BuildingBlock: QUQFOY_clean_sbu_1, # of connection points: 4
#     Node 20, Type 0, BuildingBlock: QUQFOY_clean_sbu_1, # of connection points: 4
#     Node 21, Type 0, BuildingBlock: QUQFOY_clean_sbu_1, # of connection points: 4
#     Node 22, Type 0, BuildingBlock: QUQFOY_clean_sbu_1, # of connection points: 4
#     Node 23, Type 0, BuildingBlock: QUQFOY_clean_sbu_1, # of connection points: 4
#     Node 24, Type 0, BuildingBlock: QUQFOY_clean_sbu_1, # of connection points: 4
#     Node 25, Type 0, BuildingBlock: QUQFOY_clean_sbu_1, # of connection points: 4
#     Node 26, Type 0, BuildingBlock: QUQFOY_clean_sbu_1, # of connection points: 4
#     Node 27, Type 0, BuildingBlock: QUQFOY_clean_sbu_1, # of connection points: 4
#     Node 28, Type 0, BuildingBlock: QUQFOY_clean_sbu_1, # of connection points: 4
#     Node 29, Type 0, BuildingBlock: QUQFOY_clean_sbu_1, # of connection points: 4
#     Node 30, Type 0, BuildingBlock: QUQFOY_clean_sbu_1, # of connection points: 4
#     Node 31, Type 0, BuildingBlock: QUQFOY_clean_sbu_1, # of connection points: 4
#     Node 32, Type 0, BuildingBlock: QUQFOY_clean_sbu_1, # of connection points: 4
#     Node 33, Type 0, BuildingBlock: QUQFOY_clean_sbu_1, # of connection points: 4
#     Node 34, Type 0, BuildingBlock: QUQFOY_clean_sbu_1, # of connection points: 4
#     Node 35, Type 0, BuildingBlock: QUQFOY_clean_sbu_1, # of connection points: 4
#     Edge 36, Type (0, 0), BuildingBlock: UVAHIK_clean_linker_0, # of connection points: 2
#     Edge 37, Type (0, 0), BuildingBlock: UVAHIK_clean_linker_0, # of connection points: 2
#     Edge 38, Type (0, 0), BuildingBlock: UVAHIK_clean_linker_0, # of connection points: 2
#     Edge 39, Type (0, 0), BuildingBlock: UVAHIK_clean_linker_0, # of connection points: 2
#     Edge 40, Type (0, 0), BuildingBlock: UVAHIK_clean_linker_0, # of connection points: 2
#     Edge 41, Type (0, 0), BuildingBlock: UVAHIK_clean_linker_0, # of connection points: 2
#     Edge 42, Type (0, 0), BuildingBlock: UVAHIK_clean_linker_0, # of connection points: 2
#     Edge 43, Type (0, 0), BuildingBlock: UVAHIK_clean_linker_0, # of connection points: 2
#     Edge 44, Type (0, 0), BuildingBlock: UVAHIK_clean_linker_0, # of connection points: 2
#     Edge 45, Type (0, 0), BuildingBlock: UVAHIK_clean_linker_0, # of connection points: 2
#     Edge 46, Type (0, 0), BuildingBlock: UVAHIK_clean_linker_0, # of connection points: 2
#     Edge 47, Type (0, 0), BuildingBlock: UVAHIK_clean_linker_0, # of connection points: 2
#     Edge 48, Type (0, 0), BuildingBlock: UVAHIK_clean_linker_0, # of connection points: 2
#     Edge 49, Type (0, 0), BuildingBlock: UVAHIK_clean_linker_0, # of connection points: 2
#     Edge 50, Type (0, 0), BuildingBlock: UVAHIK_clean_linker_0, # of connection points: 2
#     Edge 51, Type (0, 0), BuildingBlock: UVAHIK_clean_linker_0, # of connection points: 2
#     Edge 52, Type (0, 0), BuildingBlock: UVAHIK_clean_linker_0, # of connection points: 2
#     Edge 53, Type (0, 0), BuildingBlock: UVAHIK_clean_linker_0, # of connection points: 2
#     Edge 54, Type (0, 0), BuildingBlock: UVAHIK_clean_linker_0, # of connection points: 2
#     Edge 55, Type (0, 0), BuildingBlock: UVAHIK_clean_linker_0, # of connection points: 2
#     Edge 56, Type (0, 0), BuildingBlock: UVAHIK_clean_linker_0, # of connection points: 2
#     Edge 57, Type (0, 0), BuildingBlock: UVAHIK_clean_linker_0, # of connection points: 2
#     Edge 58, Type (0, 0), BuildingBlock: UVAHIK_clean_linker_0, # of connection points: 2
#     Edge 59, Type (0, 0), BuildingBlock: UVAHIK_clean_linker_0, # of connection points: 2
#     Edge 60, Type (0, 0), BuildingBlock: UVAHIK_clean_linker_0, # of connection points: 2
#     Edge 61, Type (0, 0), BuildingBlock: UVAHIK_clean_linker_0, # of connection points: 2
#     Edge 62, Type (0, 0), BuildingBlock: UVAHIK_clean_linker_0, # of connection points: 2
#     Edge 63, Type (0, 0), BuildingBlock: UVAHIK_clean_linker_0, # of connection points: 2
#     Edge 64, Type (0, 0), BuildingBlock: UVAHIK_clean_linker_0, # of connection points: 2
#     Edge 65, Type (0, 0), BuildingBlock: UVAHIK_clean_linker_0, # of connection points: 2
#     Edge 66, Type (0, 0), BuildingBlock: UVAHIK_clean_linker_0, # of connection points: 2
#     Edge 67, Type (0, 0), BuildingBlock: UVAHIK_clean_linker_0, # of connection points: 2
#     Edge 68, Type (0, 0), BuildingBlock: UVAHIK_clean_linker_0, # of connection points: 2
#     Edge 69, Type (0, 0), BuildingBlock: UVAHIK_clean_linker_0, # of connection points: 2
#     Edge 70, Type (0, 0), BuildingBlock: UVAHIK_clean_linker_0, # of connection points: 2
#     Edge 71, Type (0, 0), BuildingBlock: UVAHIK_clean_linker_0, # of connection points: 2
#     Edge 72, Type (0, 0), BuildingBlock: UVAHIK_clean_linker_0, # of connection points: 2
#     Edge 73, Type (0, 0), BuildingBlock: UVAHIK_clean_linker_0, # of connection points: 2
#     Edge 74, Type (0, 0), BuildingBlock: UVAHIK_clean_linker_0, # of connection points: 2
#     Edge 75, Type (0, 0), BuildingBlock: UVAHIK_clean_linker_0, # of connection points: 2
#     Edge 76, Type (0, 0), BuildingBlock: UVAHIK_clean_linker_0, # of connection points: 2
#     Edge 77, Type (0, 0), BuildingBlock: UVAHIK_clean_linker_0, # of connection points: 2
#     Edge 78, Type (0, 0), BuildingBlock: UVAHIK_clean_linker_0, # of connection points: 2
#     Edge 79, Type (0, 0), BuildingBlock: UVAHIK_clean_linker_0, # of connection points: 2
#     Edge 80, Type (0, 0), BuildingBlock: UVAHIK_clean_linker_0, # of connection points: 2
#     Edge 81, Type (0, 0), BuildingBlock: UVAHIK_clean_linker_0, # of connection points: 2
#     Edge 82, Type (0, 0), BuildingBlock: UVAHIK_clean_linker_0, # of connection points: 2
#     Edge 83, Type (0, 0), BuildingBlock: UVAHIK_clean_linker_0, # of connection points: 2
#     Edge 84, Type (0, 0), BuildingBlock: UVAHIK_clean_linker_0, # of connection points: 2
#     Edge 85, Type (0, 0), BuildingBlock: UVAHIK_clean_linker_0, # of connection points: 2
#     Edge 86, Type (0, 0), BuildingBlock: UVAHIK_clean_linker_0, # of connection points: 2
#     Edge 87, Type (0, 0), BuildingBlock: UVAHIK_clean_linker_0, # of connection points: 2
#     Edge 88, Type (0, 0), BuildingBlock: UVAHIK_clean_linker_0, # of connection points: 2
#     Edge 89, Type (0, 0), BuildingBlock: UVAHIK_clean_linker_0, # of connection points: 2
#     Edge 90, Type (0, 0), BuildingBlock: UVAHIK_clean_linker_0, # of connection points: 2
#     Edge 91, Type (0, 0), BuildingBlock: UVAHIK_clean_linker_0, # of connection points: 2
#     Edge 92, Type (0, 0), BuildingBlock: UVAHIK_clean_linker_0, # of connection points: 2
#     Edge 93, Type (0, 0), BuildingBlock: UVAHIK_clean_linker_0, # of connection points: 2
#     Edge 94, Type (0, 0), BuildingBlock: UVAHIK_clean_linker_0, # of connection points: 2
#     Edge 95, Type (0, 0), BuildingBlock: UVAHIK_clean_linker_0, # of connection points: 2
#     Edge 96, Type (0, 0), BuildingBlock: UVAHIK_clean_linker_0, # of connection points: 2
#     Edge 97, Type (0, 0), BuildingBlock: UVAHIK_clean_linker_0, # of connection points: 2
#     Edge 98, Type (0, 0), BuildingBlock: UVAHIK_clean_linker_0, # of connection points: 2
#     Edge 99, Type (0, 0), BuildingBlock: UVAHIK_clean_linker_0, # of connection points: 2
#     Edge 100, Type (0, 0), BuildingBlock: UVAHIK_clean_linker_0, # of connection points: 2
#     Edge 101, Type (0, 0), BuildingBlock: UVAHIK_clean_linker_0, # of connection points: 2
#     Edge 102, Type (0, 0), BuildingBlock: UVAHIK_clean_linker_0, # of connection points: 2
#     Edge 103, Type (0, 0), BuildingBlock: UVAHIK_clean_linker_0, # of connection points: 2
#     Edge 104, Type (0, 0), BuildingBlock: UVAHIK_clean_linker_0, # of connection points: 2
#     Edge 105, Type (0, 0), BuildingBlock: UVAHIK_clean_linker_0, # of connection points: 2
#     Edge 106, Type (0, 0), BuildingBlock: UVAHIK_clean_linker_0, # of connection points: 2
#     Edge 107, Type (0, 0), BuildingBlock: UVAHIK_clean_linker_0, # of connection points: 2
# Relax obj value: 0.055
# Max RMSD: 0.190
# Mean RMSD: 0.177
data_MOF--net-uml--node1-QUQFOY_clean_sbu_1--edge1-UVAHIK_clean_linker_0
_symmetry_space_group_name_H-M    P1
_symmetry_Int_Tables_number       1
_symmetry_cell_setting            triclinic
loop_
_symmetry_equiv_pos_as_xyz
'x, y, z'
_cell_length_a     129.29373
_cell_length_b     129.2782
_cell_length_c     37.237039
_cell_angle_alpha  89.975539
_cell_angle_beta   90.023522
_cell_angle_gamma 120.00818
loop_
_atom_site_label
_atom_site_type_symbol
_atom_site_fract_x
_atom_site_fract_y
_atom_site_fract_z
_atom_type_partial_charge
O0 O 0.35544 0.11934 0.17252 0.0
Cd1 Cd 0.3575 0.1045 0.17373 0.0
Cd2 Cd 0.37786 0.12014 0.14111 0.0
O3 O 0.37388 0.13307 0.15869 0.0
O4 O 0.34586 0.09384 0.21068 0.0
O5 O 0.36543 0.1023 0.21731 0.0
C6 C 0.35484 0.09583 0.23057 0.0
C7 C 0.39566 0.1197 0.14395 0.0
C8 C 0.36328 0.13026 0.16785 0.0
C9 C 0.35964 0.09974 0.0974 0.0
O10 O 0.36842 0.11034 0.09755 0.0
O11 O 0.35426 0.09485 0.12649 0.0
O12 O 0.39469 0.12733 0.12389 0.0
O13 O 0.387 0.11337 0.16591 0.0
O14 O 0.89421 0.23838 0.16863 0.0
Cd15 Cd 0.90903 0.25529 0.17093 0.0
Cd16 Cd 0.8934 0.2601 0.13819 0.0
O17 O 0.88046 0.24309 0.1551 0.0
O18 O 0.91971 0.25385 0.20683 0.0
O19 O 0.91132 0.26491 0.21589 0.0
C20 C 0.91779 0.26062 0.22792 0.0
C21 C 0.89377 0.2783 0.14145 0.0
C22 C 0.88329 0.23528 0.16381 0.0
C23 C 0.91397 0.26261 0.09483 0.0
O24 O 0.90333 0.26066 0.09475 0.0
O25 O 0.91879 0.26207 0.12401 0.0
O26 O 0.8862 0.26976 0.12113 0.0
O27 O 0.90006 0.27592 0.16343 0.0
O28 O 0.77589 0.65961 0.17139 0.0
Cd29 Cd 0.75915 0.65789 0.17283 0.0
Cd30 Cd 0.75368 0.6367 0.14282 0.0
O31 O 0.77084 0.64096 0.15913 0.0
O32 O 0.76056 0.67011 0.20823 0.0
O33 O 0.74931 0.65067 0.21743 0.0
C34 C 0.75364 0.66146 0.22927 0.0
C35 C 0.7356 0.61877 0.1471 0.0
C36 C 0.77878 0.65161 0.16728 0.0
C37 C 0.75128 0.65455 0.09719 0.0
O38 O 0.75264 0.64549 0.09853 0.0
O39 O 0.75257 0.66069 0.12524 0.0
O40 O 0.74413 0.61971 0.12684 0.0
O41 O 0.73794 0.62754 0.16861 0.0
O42 O 0.12137 0.35107 0.33196 0.0
Cd43 Cd 0.10645 0.353 0.33018 0.0
Cd44 Cd 0.12198 0.37352 0.36241 0.0
O45 O 0.13499 0.36959 0.34533 0.0
O46 O 0.09572 0.34089 0.29439 0.0
O47 O 0.10398 0.36035 0.28557 0.0
C48 C 0.09751 0.34959 0.2735 0.0
C49 C 0.12144 0.39125 0.35881 0.0
C50 C 0.13226 0.35899 0.33661 0.0
C51 C 0.10162 0.35541 0.40631 0.0
O52 O 0.1122 0.36421 0.40615 0.0
O53 O 0.09678 0.34995 0.37727 0.0
O54 O 0.1291 0.3904 0.37907 0.0
O55 O 0.11514 0.38251 0.33709 0.0
O56 O 0.6638 0.77313 0.33079 0.0
Cd57 Cd 0.66232 0.75648 0.32978 0.0
Cd58 Cd 0.64103 0.75073 0.3593 0.0
O59 O 0.64507 0.7678 0.34276 0.0
O60 O 0.67457 0.75793 0.29448 0.0
O61 O 0.65515 0.74649 0.28545 0.0
C62 C 0.66594 0.75088 0.2736 0.0
C63 C 0.62325 0.73253 0.35492 0.0
C64 C 0.65568 0.77585 0.33467 0.0
C65 C 0.65895 0.74866 0.40543 0.0
O66 O 0.6498 0.74985 0.40386 0.0
O67 O 0.66518 0.75005 0.37753 0.0
O68 O 0.62404 0.74102 0.37503 0.0
O69 O 0.63207 0.73496 0.33357 0.0
O70 O 0.24149 0.89275 0.32593 0.0
Cd71 Cd 0.25817 0.90791 0.32543 0.0
Cd72 Cd 0.26339 0.89267 0.35881 0.0
O73 O 0.24658 0.87942 0.34135 0.0
O74 O 0.25699 0.9184 0.28827 0.0
O75 O 0.26868 0.91056 0.28248 0.0
C76 C 0.26433 0.91679 0.2689 0.0
C77 C 0.28181 0.89348 0.35653 0.0
C78 C 0.23866 0.88193 0.33132 0.0
C79 C 0.26473 0.91286 0.40199 0.0
O80 O 0.26347 0.90248 0.40201 0.0
O81 O 0.26397 0.91755 0.37281 0.0
O82 O 0.27327 0.88582 0.37666 0.0
O83 O 0.27936 0.89963 0.33425 0.0
O84 O 0.66103 0.89128 0.83436 0.0
Cd85 Cd 0.65873 0.90598 0.83318 0.0
Cd86 Cd 0.63837 0.89012 0.86495 0.0
O87 O 0.64257 0.87736 0.84719 0.0
O88 O 0.67037 0.91681 0.79647 0.0
O89 O 0.65079 0.90807 0.78946 0.0
C90 C 0.66138 0.91468 0.7764 0.0
C91 C 0.6206 0.89055 0.8611 0.0
C92 C 0.65325 0.88031 0.83851 0.0
C93 C 0.65622 0.91045 0.9095 0.0
O94 O 0.64757 0.89978 0.90901 0.0
O95 O 0.66163 0.91548 0.88057 0.0
O96 O 0.62142 0.88284 0.88114 0.0
O97 O 0.62941 0.89699 0.83973 0.0
O98 O 0.12136 0.77271 0.83581 0.0
Cd99 Cd 0.1065 0.75585 0.834 0.0
Cd100 Cd 0.1224 0.75061 0.86321 0.0
O101 O 0.13514 0.76782 0.84689 0.0
O102 O 0.09559 0.75713 0.7986 0.0
O103 O 0.10411 0.7462 0.78914 0.0
C104 C 0.09753 0.7504 0.77737 0.0
C105 C 0.1223 0.73259 0.85818 0.0
C106 C 0.13229 0.77571 0.83941 0.0
C107 C 0.10217 0.74783 0.90945 0.0
O108 O 0.11268 0.74943 0.90787 0.0
O109 O 0.09718 0.749 0.88154 0.0
O110 O 0.12995 0.7411 0.8784 0.0
O111 O 0.1158 0.73495 0.83707 0.0
O112 O 0.24141 0.35311 0.83104 0.0
Cd113 Cd 0.2582 0.35488 0.8308 0.0
Cd114 Cd 0.26309 0.3753 0.86363 0.0
O115 O 0.24629 0.37155 0.84544 0.0
O116 O 0.25718 0.34316 0.79407 0.0
O117 O 0.26862 0.3627 0.78765 0.0
C118 C 0.26439 0.3521 0.7744 0.0
C119 C 0.2815 0.39294 0.86104 0.0
C120 C 0.23845 0.36103 0.83575 0.0
C121 C 0.26468 0.35675 0.90755 0.0
O122 O 0.26314 0.36571 0.90726 0.0
O123 O 0.26416 0.35135 0.87847 0.0
O124 O 0.27293 0.39212 0.88089 0.0
O125 O 0.27908 0.38424 0.83919 0.0
O126 O 0.89596 0.65965 0.67067 0.0
Cd127 Cd 0.91085 0.65765 0.6716 0.0
Cd128 Cd 0.89513 0.63716 0.63993 0.0
O129 O 0.88222 0.64111 0.65798 0.0
O130 O 0.92178 0.66979 0.70703 0.0
O131 O 0.91346 0.65033 0.716 0.0
C132 C 0.92001 0.66109 0.72792 0.0
C133 C 0.89581 0.61951 0.64332 0.0
C134 C 0.88503 0.65174 0.66666 0.0
C135 C 0.91524 0.65516 0.59514 0.0
O136 O 0.90462 0.64642 0.59574 0.0
O137 O 0.92026 0.66061 0.62403 0.0
O138 O 0.88799 0.62025 0.62355 0.0
O139 O 0.9022 0.62831 0.66476 0.0
O140 O 0.3533 0.23834 0.6725 0.0
Cd141 Cd 0.355 0.25508 0.67373 0.0
Cd142 Cd 0.37628 0.26065 0.64504 0.0
O143 O 0.37206 0.24353 0.66162 0.0
O144 O 0.34275 0.25375 0.70891 0.0
O145 O 0.36219 0.26494 0.71827 0.0
C146 C 0.3514 0.26066 0.72999 0.0
C147 C 0.39404 0.27883 0.65015 0.0
C148 C 0.36138 0.23553 0.66912 0.0
C149 C 0.3587 0.26302 0.59821 0.0
O150 O 0.36773 0.26163 0.60009 0.0
O151 O 0.35244 0.26173 0.62595 0.0
O152 O 0.39335 0.27036 0.6301 0.0
O153 O 0.38511 0.27636 0.67107 0.0
O154 O 0.77566 0.11876 0.6779 0.0
Cd155 Cd 0.75895 0.10366 0.67766 0.0
Cd156 Cd 0.75391 0.11908 0.64483 0.0
O157 O 0.77068 0.13221 0.66294 0.0
O158 O 0.75991 0.09295 0.71448 0.0
O159 O 0.74829 0.10087 0.72032 0.0
C160 C 0.75253 0.09452 0.73377 0.0
C161 C 0.73549 0.11826 0.6475 0.0
C162 C 0.77855 0.12961 0.67295 0.0
C163 C 0.7526 0.09907 0.60085 0.0
O164 O 0.75389 0.10947 0.6012 0.0
O165 O 0.75325 0.09424 0.62988 0.0
O166 O 0.74403 0.12602 0.62759 0.0
O167 O 0.73793 0.11199 0.66934 0.0
O168 O 0.01978 0.45074 0.50176 0.0
Cd169 Cd 0.02133 0.43563 0.50293 0.0
Cd170 Cd 0.04258 0.45116 0.47341 0.0
O171 O 0.0385 0.46418 0.48984 0.0
O172 O 0.00948 0.42499 0.53946 0.0
O173 O 0.02901 0.43314 0.54656 0.0
C174 C 0.01837 0.42679 0.55954 0.0
C175 C 0.06046 0.45094 0.47801 0.0
C176 C 0.02788 0.4616 0.49787 0.0
C177 C 0.02459 0.43108 0.4274 0.0
O178 O 0.03378 0.4414 0.42899 0.0
O179 O 0.01834 0.42626 0.45529 0.0
O180 O 0.05957 0.45854 0.45763 0.0
O181 O 0.05165 0.44452 0.49937 0.0
O182 O 0.5637 0.57167 0.50191 0.0
Cd183 Cd 0.57882 0.58835 0.50322 0.0
Cd184 Cd 0.56318 0.59399 0.47372 0.0
O185 O 0.55021 0.57692 0.49038 0.0
O186 O 0.58961 0.58684 0.5385 0.0
O187 O 0.58156 0.5982 0.54785 0.0
C188 C 0.58795 0.59378 0.55961 0.0
C189 C 0.56346 0.61214 0.47784 0.0
C190 C 0.55283 0.56889 0.49824 0.0
C191 C 0.58323 0.5962 0.42761 0.0
O192 O 0.57284 0.59489 0.4292 0.0
O193 O 0.58813 0.59489 0.45553 0.0
O194 O 0.55579 0.60359 0.45778 0.0
O195 O 0.5699 0.60978 0.49928 0.0
O196 O 0.44252 0.9944 0.50585 0.0
Cd197 Cd 0.42557 0.99235 0.50622 0.0
Cd198 Cd 0.42101 0.97186 0.47712 0.0
O199 O 0.4375 0.97558 0.49745 0.0
O200 O 0.42662 1.00458 0.54108 0.0
O201 O 0.41571 0.98514 0.55081 0.0
C202 C 0.41983 0.99594 0.56234 0.0
C203 C 0.40236 0.95453 0.48008 0.0
C204 C 0.44542 0.98635 0.50432 0.0
C205 C 0.41933 0.98941 0.42949 0.0
O206 O 0.42173 0.98104 0.43163 0.0
O207 O 0.4189 0.99467 0.45785 0.0
O208 O 0.41098 0.95487 0.46164 0.0
O209 O 0.40481 0.96358 0.50045 0.0
O210 O 0.78879 0.68519 0.66406 0.0
Cd211 Cd 0.77386 0.6871 0.66274 0.0
Cd212 Cd 0.78937 0.70755 0.69536 0.0
O213 O 0.80239 0.70365 0.67806 0.0
O214 O 0.76327 0.67539 0.62579 0.0
O215 O 0.77156 0.69494 0.61911 0.0
C216 C 0.76518 0.68434 0.60588 0.0
C217 C 0.78891 0.72534 0.69218 0.0
C218 C 0.79967 0.69308 0.66889 0.0
C219 C 0.76899 0.6892 0.73901 0.0
O220 O 0.77953 0.69809 0.73887 0.0
O221 O 0.76418 0.68375 0.70993 0.0
O222 O 0.79651 0.72439 0.71246 0.0
O223 O 0.78261 0.71665 0.67028 0.0
O224 O 0.33002 0.10635 0.66575 0.0
Cd225 Cd 0.32848 0.08968 0.66392 0.0
Cd226 Cd 0.30723 0.08399 0.69449 0.0
O227 O 0.31136 0.10113 0.67844 0.0
O228 O 0.34073 0.09128 0.62833 0.0
O229 O 0.32131 0.07986 0.61923 0.0
C230 C 0.3321 0.08432 0.60731 0.0
C231 C 0.28917 0.06598 0.69127 0.0
C232 C 0.32197 0.10915 0.67018 0.0
C233 C 0.32531 0.08169 0.73938 0.0
O234 O 0.31619 0.08293 0.73832 0.0
O235 O 0.33145 0.08311 0.71124 0.0
O236 O 0.29036 0.07459 0.71159 0.0
O237 O 0.29775 0.0682 0.66912 0.0
O238 O 0.90795 0.22646 0.66548 0.0
Cd239 Cd 0.92463 0.24152 0.66278 0.0
Cd240 Cd 0.93036 0.22612 0.69439 0.0
O241 O 0.9131 0.21305 0.67949 0.0
O242 O 0.9231 0.25181 0.62561 0.0
O243 O 0.93446 0.24365 0.61857 0.0
C244 C 0.93005 0.24987 0.60537 0.0
C245 C 0.94828 0.22591 0.69092 0.0
C246 C 0.9051 0.21563 0.67086 0.0
C247 C 0.93288 0.24689 0.73789 0.0
O248 O 0.9317 0.23655 0.73742 0.0
O249 O 0.93129 0.2514 0.70951 0.0
O250 O 0.93976 0.21869 0.71187 0.0
O251 O 0.946 0.23213 0.66839 0.0
O252 O 0.32882 0.22579 0.16471 0.0
Cd253 Cd 0.32678 0.24065 0.16352 0.0
Cd254 Cd 0.3065 0.22508 0.19689 0.0
O255 O 0.31045 0.21211 0.17941 0.0
O256 O 0.3383 0.25124 0.12621 0.0
O257 O 0.31871 0.24281 0.12021 0.0
C258 C 0.32925 0.24925 0.10664 0.0
C259 C 0.28864 0.2254 0.19475 0.0
C260 C 0.321 0.2149 0.16982 0.0
C261 C 0.32491 0.24563 0.23982 0.0
O262 O 0.3161 0.23505 0.24001 0.0
O263 O 0.33024 0.25041 0.21057 0.0
O264 O 0.28975 0.21787 0.21485 0.0
O265 O 0.29717 0.23169 0.17237 0.0
O266 O 0.78778 0.10535 0.16346 0.0
Cd267 Cd 0.77289 0.08851 0.16422 0.0
Cd268 Cd 0.78902 0.08353 0.19173 0.0
O269 O 0.80164 0.10048 0.17324 0.0
O270 O 0.76147 0.08933 0.12987 0.0
O271 O 0.76989 0.07831 0.12032 0.0
C272 C 0.76314 0.08235 0.10892 0.0
C273 C 0.78817 0.06516 0.18636 0.0
C274 C 0.79874 0.10833 0.16571 0.0
C275 C 0.76973 0.0815 0.24057 0.0
O276 O 0.78019 0.08305 0.23776 0.0
O277 O 0.76431 0.08228 0.21311 0.0
O278 O 0.79635 0.07367 0.20541 0.0
O279 O 0.7815 0.06766 0.16647 0.0
O280 O 0.90833 0.68432 0.16276 0.0
Cd281 Cd 0.92508 0.68608 0.16125 0.0
Cd282 Cd 0.93056 0.70714 0.19199 0.0
O283 O 0.91337 0.7029 0.17607 0.0
O284 O 0.924 0.67442 0.12425 0.0
O285 O 0.93524 0.694 0.11777 0.0
C286 C 0.93106 0.68341 0.10446 0.0
C287 C 0.94859 0.72514 0.18798 0.0
C288 C 0.90543 0.69229 0.16747 0.0
C289 C 0.93297 0.68908 0.2367 0.0
O290 O 0.93173 0.69821 0.23575 0.0
O291 O 0.93155 0.68296 0.20851 0.0
O292 O 0.94007 0.72407 0.20853 0.0
O293 O 0.94625 0.71647 0.16609 0.0
O294 O 0.56046 0.99102 0.00687 0.0
Cd295 Cd 0.57524 0.98886 0.00891 0.0
Cd296 Cd 0.55965 0.96851 0.97631 0.0
O297 O 0.54671 0.97259 0.99309 0.0
O298 O 0.58582 1.00048 0.04607 0.0
O299 O 0.57724 0.98091 0.05278 0.0
C300 C 0.58372 0.99149 0.06606 0.0
C301 C 0.56001 0.95068 0.97992 0.0
C302 C 0.54955 0.98322 1.00191 0.0
C303 C 0.58021 0.98663 0.93286 0.0
O304 O 0.56961 0.97787 0.93285 0.0
O305 O 0.58502 0.99204 0.96199 0.0
O306 O 0.55246 0.95163 0.95945 0.0
O307 O 0.5663 0.95938 1.00179 0.0
O308 O 0.02245 0.57227 0.00978 0.0
Cd309 Cd 0.02444 0.58914 0.011 0.0
Cd310 Cd 0.04472 0.59394 0.97733 0.0
O311 O 0.04076 0.57695 0.99427 0.0
O312 O 0.01289 0.58813 0.04834 0.0
O313 O 0.03247 0.5994 0.05428 0.0
C314 C 0.02192 0.59524 0.06787 0.0
C315 C 0.06258 0.61214 0.97982 0.0
C316 C 0.03024 0.56918 0.00415 0.0
C317 C 0.02617 0.59598 0.93465 0.0
O318 O 0.0351 0.5944 0.93437 0.0
O319 O 0.02081 0.59531 0.96393 0.0
O320 O 0.06148 0.60356 0.95945 0.0
O321 O 0.05403 0.60981 0.00221 0.0
O322 O 0.44213 0.4518 0.00715 0.0
Cd323 Cd 0.42529 0.43693 0.0089 0.0
Cd324 Cd 0.42003 0.45264 0.97815 0.0
O325 O 0.4373 0.46549 0.99382 0.0
O326 O 0.42627 0.4263 0.04597 0.0
O327 O 0.41524 0.43486 0.0525 0.0
C328 C 0.41933 0.42837 0.06583 0.0
C329 C 0.40206 0.45271 0.98248 0.0
C330 C 0.44516 0.4627 0.00235 0.0
C331 C 0.41733 0.43208 0.93349 0.0
O332 O 0.41873 0.44251 0.9344 0.0
O333 O 0.41868 0.42734 0.96171 0.0
O334 O 0.41057 0.46015 0.96183 0.0
O335 O 0.4044 0.44636 0.00432 0.0
O336 O 0.68854 0.7854 0.83966 0.0
Cd337 Cd 0.69074 0.77064 0.84054 0.0
Cd338 Cd 0.71105 0.78638 0.80834 0.0
O339 O 0.70696 0.79923 0.8261 0.0
O340 O 0.67918 0.75986 0.87747 0.0
O341 O 0.69877 0.76847 0.88386 0.0
C342 C 0.68821 0.7619 0.89719 0.0
C343 C 0.72879 0.78587 0.81193 0.0
C344 C 0.69634 0.79634 0.83519 0.0
C345 C 0.69297 0.76605 0.76414 0.0
O346 O 0.70173 0.77666 0.76449 0.0
O347 O 0.68755 0.7611 0.79314 0.0
O348 O 0.72796 0.79358 0.79184 0.0
O349 O 0.72002 0.7795 0.83347 0.0
O350 O 0.2284 0.9054 0.83794 0.0
Cd351 Cd 0.24334 0.92222 0.8377 0.0
Cd352 Cd 0.22732 0.92738 0.81019 0.0
O353 O 0.21463 0.91042 0.82843 0.0
O354 O 0.25466 0.92127 0.87219 0.0
O355 O 0.24627 0.93231 0.88181 0.0
C356 C 0.25297 0.92822 0.89323 0.0
C357 C 0.22816 0.94575 0.81551 0.0
C358 C 0.21745 0.9025 0.83571 0.0
C359 C 0.24669 0.92948 0.76157 0.0
O360 O 0.23622 0.92792 0.76426 0.0
O361 O 0.25205 0.92861 0.78905 0.0
O362 O 0.22002 0.93725 0.79635 0.0
O363 O 0.23479 0.94324 0.83555 0.0
O364 O 0.1086 0.32694 0.83773 0.0
Cd365 Cd 0.09176 0.32496 0.83948 0.0
Cd366 Cd 0.08649 0.30396 0.80894 0.0
O367 O 0.10374 0.30838 0.82482 0.0
O368 O 0.09276 0.33658 0.8765 0.0
O369 O 0.08175 0.31698 0.88314 0.0
C370 C 0.08585 0.32756 0.89643 0.0
C371 C 0.06853 0.28592 0.81324 0.0
C372 C 0.11161 0.31904 0.8332 0.0
C373 C 0.08376 0.32179 0.76413 0.0
O374 O 0.0852 0.31278 0.7651 0.0
O375 O 0.0851 0.32788 0.7923 0.0
O376 O 0.07706 0.28699 0.79268 0.0
O377 O 0.07085 0.29461 0.83501 0.0
O378 O 0.45509 0.01909 0.99602 0.0
Cd379 Cd 0.44051 0.02165 0.99552 0.0
Cd380 Cd 0.45675 0.0419 0.02456 0.0
O381 O 0.46926 0.03776 0.00458 0.0
O382 O 0.42929 0.00998 0.95943 0.0
O383 O 0.43845 0.02956 0.95169 0.0
C384 C 0.43159 0.01896 0.93904 0.0
C385 C 0.45571 0.05937 0.02104 0.0
C386 C 0.46613 0.02692 0.99774 0.0
C387 C 0.4373 0.02467 0.07219 0.0
O388 O 0.44815 0.03286 0.07002 0.0
O389 O 0.43154 0.01948 0.04383 0.0
O390 O 0.46394 0.05896 0.03965 0.0
O391 O 0.44904 0.05031 1.00079 0.0
O392 O 0.99432 0.43886 0.99384 0.0
Cd393 Cd 0.99221 0.42194 0.99256 0.0
Cd394 Cd 0.97183 0.41725 0.02515 0.0
O395 O 0.97593 0.43425 0.00798 0.0
O396 O 1.00427 0.42314 0.95686 0.0
O397 O 0.98481 0.41204 0.94811 0.0
C398 C 0.99555 0.41623 0.93606 0.0
C399 C 0.95407 0.39901 0.02144 0.0
C400 C 0.98654 0.442 0.99877 0.0
C401 C 0.98991 0.41493 0.06899 0.0
O402 O 0.98114 0.41675 0.06885 0.0
O403 O 0.99532 0.41547 0.03991 0.0
O404 O 0.95492 0.40752 0.04168 0.0
O405 O 0.96282 0.40144 0.99979 0.0
O406 O 0.5753 0.55795 0.99457 0.0
Cd407 Cd 0.5922 0.5728 0.99321 0.0
Cd408 Cd 0.59693 0.55725 0.02652 0.0
O409 O 0.57998 0.54426 0.00918 0.0
O410 O 0.59122 0.5834 0.956 0.0
O411 O 0.60236 0.57497 0.94973 0.0
C412 C 0.59825 0.58142 0.93629 0.0
C413 C 0.61521 0.55776 0.02399 0.0
C414 C 0.5722 0.54705 0.99971 0.0
C415 C 0.5991 0.57777 0.06953 0.0
O416 O 0.59731 0.56718 0.06972 0.0
O417 O 0.59858 0.58256 0.04027 0.0
O418 O 0.60663 0.55015 0.04412 0.0
O419 O 0.61284 0.564 1.00177 0.0
O420 O 0.99713 0.55976 0.50035 0.0
Cd421 Cd 0.99552 0.57485 0.49992 0.0
Cd422 Cd 0.97417 0.55906 0.52774 0.0
O423 O 0.9783 0.5462 0.51032 0.0
O424 O 1.00786 0.58592 0.46521 0.0
O425 O 0.98844 0.57776 0.45554 0.0
C426 C 0.99927 0.5843 0.44406 0.0
C427 C 0.95648 0.55962 0.52245 0.0
C428 C 0.98899 0.54886 0.50301 0.0
C429 C 0.99166 0.57863 0.57573 0.0
O430 O 0.98262 0.56824 0.57328 0.0
O431 O 0.99799 0.58378 0.54821 0.0
O432 O 0.95704 0.55169 0.54214 0.0
O433 O 0.96552 0.5662 0.502 0.0
O434 O 0.45491 0.43968 0.49991 0.0
Cd435 Cd 0.43987 0.4229 0.49891 0.0
Cd436 Cd 0.4554 0.41785 0.53103 0.0
O437 O 0.46846 0.43464 0.51289 0.0
O438 O 0.42909 0.42433 0.46342 0.0
O439 O 0.43712 0.41294 0.45449 0.0
C440 C 0.43071 0.41731 0.44254 0.0
C441 C 0.4546 0.39944 0.52827 0.0
C442 C 0.4658 0.44256 0.50405 0.0
C443 C 0.43531 0.41602 0.57537 0.0
O444 O 0.44588 0.41776 0.57497 0.0
O445 O 0.43038 0.41653 0.54639 0.0
O446 O 0.4624 0.40801 0.548 0.0
O447 O 0.44828 0.40186 0.50654 0.0
O448 O 0.57422 0.01684 0.50202 0.0
Cd449 Cd 0.59079 0.01817 0.4998 0.0
Cd450 Cd 0.59681 0.03953 0.53002 0.0
O451 O 0.5797 0.03559 0.51437 0.0
O452 O 0.58895 0.00583 0.46419 0.0
O453 O 0.60052 0.02522 0.45491 0.0
C454 C 0.59593 0.01441 0.44303 0.0
C455 C 0.61491 0.05746 0.526 0.0
C456 C 0.57157 0.025 0.50642 0.0
C457 C 0.59892 0.02136 0.5751 0.0
O458 O 0.59784 0.03059 0.57395 0.0
O459 O 0.59736 0.01515 0.54704 0.0
O460 O 0.60643 0.05645 0.54658 0.0
O461 O 0.61252 0.04877 0.5041 0.0
O462 O 0.22898 0.32642 0.34203 0.0
Cd463 Cd 0.24412 0.3249 0.34264 0.0
Cd464 Cd 0.22844 0.30359 0.31372 0.0
O465 O 0.21548 0.30766 0.33067 0.0
O466 O 0.25506 0.33725 0.37755 0.0
O467 O 0.24708 0.31785 0.38705 0.0
C468 C 0.25351 0.32867 0.39864 0.0
C469 C 0.22887 0.28582 0.31847 0.0
C470 C 0.21811 0.31831 0.33856 0.0
C471 C 0.24819 0.32142 0.26672 0.0
O472 O 0.23786 0.31227 0.26874 0.0
O473 O 0.25319 0.32767 0.29448 0.0
O474 O 0.22108 0.28654 0.29854 0.0
O475 O 0.23538 0.29475 0.33939 0.0
O476 O 0.68653 0.90479 0.34051 0.0
Cd477 Cd 0.68783 0.92135 0.34268 0.0
Cd478 Cd 0.7091 0.92728 0.3106 0.0
O479 O 0.70511 0.91013 0.32616 0.0
O480 O 0.67556 0.91947 0.37861 0.0
O481 O 0.69496 0.93117 0.3874 0.0
C482 C 0.68418 0.92654 0.39953 0.0
C483 C 0.72728 0.9452 0.31258 0.0
C484 C 0.6946 0.90207 0.33516 0.0
C485 C 0.69054 0.92938 0.2673 0.0
O486 O 0.6998 0.92836 0.26773 0.0
O487 O 0.68447 0.92778 0.29572 0.0
O488 O 0.7258 0.93653 0.29202 0.0
O489 O 0.71895 0.94309 0.33558 0.0
O490 O 0.10906 0.78578 0.34119 0.0
Cd491 Cd 0.0923 0.77074 0.3431 0.0
Cd492 Cd 0.08715 0.78601 0.30905 0.0
O493 O 0.1041 0.7992 0.32562 0.0
O494 O 0.09368 0.76041 0.38045 0.0
O495 O 0.08221 0.76847 0.38686 0.0
C496 C 0.08659 0.76225 0.4003 0.0
C497 C 0.06892 0.78565 0.31112 0.0
C498 C 0.112 0.7966 0.33539 0.0
C499 C 0.08519 0.76535 0.26698 0.0
O500 O 0.0867 0.77583 0.26643 0.0
O501 O 0.08599 0.76078 0.29636 0.0
O502 O 0.0775 0.79306 0.29064 0.0
O503 O 0.07125 0.7795 0.33383 0.0
C504 C 0.34643 0.08703 0.55806 0.0
C505 C 0.33458 0.08238 0.56976 0.0
C506 C 0.34897 0.08663 0.52177 0.0
C507 C 0.33549 0.07298 0.43353 0.0
H508 H 0.36172 0.1024 0.39584 0.0
C509 C 0.34137 0.08504 0.28245 0.0
C510 C 0.353 0.09168 0.26841 0.0
C511 C 0.33954 0.08241 0.31911 0.0
C512 C 0.3545 0.09403 0.40592 0.0
H513 H 0.31607 0.07321 0.55263 0.0
H514 H 0.32051 0.07262 0.48918 0.0
H515 H 0.35767 0.10046 0.45994 0.0
H516 H 0.37182 0.10025 0.28173 0.0
H517 H 0.36863 0.09552 0.3457 0.0
H518 H 0.33219 0.06667 0.37918 0.0
C519 C 0.32785 0.07648 0.50813 0.0
C520 C 0.35217 0.09291 0.44279 0.0
C521 C 0.3253 0.07685 0.54453 0.0
C522 C 0.36275 0.09516 0.29166 0.0
C523 C 0.36092 0.09252 0.32839 0.0
C524 C 0.33783 0.0741 0.39657 0.0
C525 C 0.33974 0.08161 0.49618 0.0
C526 C 0.34257 0.08242 0.45709 0.0
C527 C 0.34929 0.08634 0.34271 0.0
C528 C 0.3473 0.08469 0.38225 0.0
H529 H 0.3538 0.09128 0.5768 0.0
H530 H 0.35821 0.09044 0.51368 0.0
H531 H 0.32813 0.06471 0.44365 0.0
H532 H 0.33365 0.08222 0.26532 0.0
H533 H 0.33047 0.07773 0.32916 0.0
C534 C 0.93827 0.25039 0.54381 0.0
C535 C 0.93201 0.25381 0.56731 0.0
C536 C 0.93879 0.25285 0.507 0.0
C537 C 0.93052 0.25104 0.4297 0.0
H538 H 0.93288 0.2801 0.39184 0.0
C539 C 0.92939 0.258 0.27748 0.0
C540 C 0.92208 0.26251 0.26563 0.0
C541 C 0.93226 0.25839 0.31383 0.0
C542 C 0.93213 0.2719 0.40199 0.0
H543 H 0.92182 0.26296 0.57071 0.0
H544 H 0.92267 0.26717 0.50675 0.0
H545 H 0.93515 0.27826 0.45629 0.0
H546 H 0.91246 0.2714 0.28261 0.0
H547 H 0.91738 0.27197 0.34617 0.0
H548 H 0.92728 0.24456 0.37571 0.0
C549 C 0.92726 0.26267 0.51666 0.0
C550 C 0.93344 0.27085 0.43895 0.0
C551 C 0.92673 0.26019 0.5534 0.0
C552 C 0.91813 0.26788 0.29081 0.0
C553 C 0.92099 0.26823 0.32728 0.0
C554 C 0.92921 0.25209 0.39283 0.0
C555 C 0.93309 0.25881 0.49285 0.0
C556 C 0.93256 0.26036 0.45331 0.0
C557 C 0.92787 0.26325 0.33935 0.0
C558 C 0.92991 0.26249 0.37848 0.0
H559 H 0.94246 0.24548 0.55363 0.0
H560 H 0.94352 0.24992 0.48953 0.0
H561 H 0.92955 0.24274 0.43981 0.0
H562 H 0.93266 0.25388 0.25879 0.0
H563 H 0.93779 0.25469 0.32201 0.0
C564 C 0.76438 0.69218 0.54479 0.0
C565 C 0.76101 0.68245 0.56806 0.0
C566 C 0.76173 0.69032 0.50807 0.0
C567 C 0.7434 0.66713 0.44002 0.0
H568 H 0.76963 0.68714 0.37644 0.0
C569 C 0.7462 0.65464 0.29206 0.0
C570 C 0.75165 0.66392 0.26679 0.0
C571 C 0.74582 0.65719 0.32845 0.0
C572 C 0.76211 0.68158 0.39366 0.0
H573 H 0.75172 0.6631 0.5712 0.0
H574 H 0.7472 0.65987 0.50738 0.0
H575 H 0.77159 0.69121 0.44053 0.0
H576 H 0.76037 0.68312 0.25966 0.0
H577 H 0.7595 0.68754 0.32277 0.0
H578 H 0.73403 0.65736 0.39301 0.0
C579 C 0.7518 0.66895 0.51741 0.0
C580 C 0.76324 0.68393 0.43052 0.0
C581 C 0.75446 0.67081 0.55406 0.0
C582 C 0.75619 0.67576 0.27844 0.0
C583 C 0.75577 0.6783 0.31472 0.0
C584 C 0.74227 0.66478 0.40307 0.0
C585 C 0.75563 0.67868 0.49379 0.0
C586 C 0.75396 0.67667 0.45426 0.0
C587 C 0.75085 0.66908 0.34035 0.0
C588 C 0.75166 0.67192 0.37944 0.0
H589 H 0.7694 0.70126 0.55469 0.0
H590 H 0.76464 0.69802 0.49075 0.0
H591 H 0.73601 0.66144 0.45747 0.0
H592 H 0.74266 0.64542 0.28401 0.0
H593 H 0.74204 0.64986 0.34744 0.0
C594 C 0.08865 0.34097 0.94856 0.0
C595 C 0.0836 0.32937 0.93435 0.0
C596 C 0.08789 0.34275 0.98529 0.0
C597 C 0.08457 0.32761 0.07178 0.0
H598 H 0.08186 0.35403 0.11025 0.0
C599 C 0.08578 0.33541 0.22407 0.0
C600 C 0.09309 0.34722 0.23595 0.0
C601 C 0.0828 0.33295 0.18778 0.0
C602 C 0.08269 0.34665 0.09992 0.0
H603 H 0.07329 0.31052 0.94743 0.0
H604 H 0.07184 0.31362 0.0115 0.0
H605 H 0.07967 0.35008 0.04572 0.0
H606 H 0.10257 0.36576 0.21915 0.0
H607 H 0.09748 0.36147 0.15566 0.0
H608 H 0.08785 0.32431 0.12566 0.0
C609 C 0.07656 0.32136 0.99428 0.0
C610 C 0.08143 0.34438 0.06293 0.0
C611 C 0.07731 0.31958 0.9575 0.0
C612 C 0.09691 0.35656 0.2109 0.0
C613 C 0.09395 0.3541 0.17449 0.0
C614 C 0.08584 0.32988 0.10868 0.0
C615 C 0.08207 0.33297 0.00877 0.0
C616 C 0.08247 0.3349 0.04835 0.0
C617 C 0.08709 0.34224 0.16236 0.0
C618 C 0.08502 0.33949 0.12324 0.0
H619 H 0.09356 0.34872 0.93153 0.0
H620 H 0.09234 0.35181 0.99548 0.0
H621 H 0.08567 0.32038 0.0615 0.0
H622 H 0.0826 0.328 0.24268 0.0
H623 H 0.0773 0.32373 0.17954 0.0
C624 C 0.65912 0.74317 0.21104 0.0
C625 C 0.66841 0.74879 0.23621 0.0
C626 C 0.66166 0.74269 0.1747 0.0
C627 C 0.68593 0.75901 0.10924 0.0
H628 H 0.66592 0.73267 0.04599 0.0
C629 C 0.69626 0.7612 0.95801 0.0
C630 C 0.68645 0.75771 0.93497 0.0
C631 C 0.69451 0.75855 0.99474 0.0
C632 C 0.67157 0.74012 0.06328 0.0
H633 H 0.68762 0.75769 0.24324 0.0
H634 H 0.69203 0.75666 0.18022 0.0
H635 H 0.66194 0.73078 0.1105 0.0
H636 H 0.6671 0.74819 0.93221 0.0
H637 H 0.66406 0.74367 0.99606 0.0
H638 H 0.69541 0.76845 0.06216 0.0
C639 C 0.68278 0.75287 0.18831 0.0
C640 C 0.66928 0.73904 0.10027 0.0
C641 C 0.68025 0.75338 0.22454 0.0
C642 C 0.67486 0.75103 0.94918 0.0
C643 C 0.67311 0.74837 0.98585 0.0
C644 C 0.68822 0.76008 0.07235 0.0
C645 C 0.67355 0.74779 0.16276 0.0
C646 C 0.67636 0.74852 0.12368 0.0
C647 C 0.68291 0.75233 0.00925 0.0
C648 C 0.681 0.75071 0.04882 0.0
H649 H 0.6499 0.73957 0.21912 0.0
H650 H 0.65432 0.73879 0.15577 0.0
H651 H 0.69144 0.76659 0.12629 0.0
H652 H 0.70531 0.76632 0.94793 0.0
H653 H 0.70226 0.76157 0.0119 0.0
C654 C 0.26168 0.92757 0.21698 0.0
C655 C 0.26682 0.9211 0.23124 0.0
C656 C 0.26267 0.93036 0.1804 0.0
C657 C 0.2668 0.91926 0.09378 0.0
H658 H 0.26907 0.94834 0.0564 0.0
C659 C 0.26522 0.92612 0.94177 0.0
C660 C 0.25771 0.93045 0.93043 0.0
C661 C 0.26838 0.92669 0.97792 0.0
C662 C 0.26837 0.94014 0.06641 0.0
H663 H 0.27753 0.91298 0.21846 0.0
H664 H 0.27937 0.91795 0.1546 0.0
H665 H 0.27113 0.94633 0.12088 0.0
H666 H 0.24809 0.93928 0.94802 0.0
H667 H 0.25349 0.94014 0.0112 0.0
H668 H 0.26375 0.91293 0.03965 0.0
C669 C 0.27441 0.92072 0.17168 0.0
C670 C 0.26956 0.93899 0.10338 0.0
C671 C 0.27343 0.91794 0.20833 0.0
C672 C 0.25391 0.93588 0.95584 0.0
C673 C 0.25704 0.93641 0.99208 0.0
C674 C 0.2656 0.9204 0.0569 0.0
C675 C 0.26882 0.92673 0.15711 0.0
C676 C 0.26864 0.92847 0.11757 0.0
C677 C 0.26408 0.93155 0.00372 0.0
C678 C 0.26624 0.9308 0.04274 0.0
H679 H 0.25652 0.93015 0.23384 0.0
H680 H 0.25815 0.93489 0.17014 0.0
H681 H 0.26582 0.91095 0.10376 0.0
H682 H 0.26838 0.92196 0.92287 0.0
H683 H 0.27402 0.92308 0.98576 0.0
C684 C 0.67486 0.92559 0.72466 0.0
C685 C 0.66323 0.91885 0.73858 0.0
C686 C 0.67671 0.92824 0.688 0.0
C687 C 0.66188 0.9165 0.60109 0.0
H688 H 0.68806 0.94596 0.5634 0.0
C689 C 0.66984 0.92361 0.44897 0.0
C690 C 0.68169 0.92839 0.43716 0.0
C691 C 0.66731 0.92396 0.48529 0.0
C692 C 0.68075 0.93766 0.57351 0.0
H693 H 0.64441 0.91012 0.72506 0.0
H694 H 0.64764 0.91486 0.66111 0.0
H695 H 0.68398 0.94396 0.62787 0.0
H696 H 0.70021 0.93774 0.45414 0.0
H697 H 0.69579 0.93822 0.51767 0.0
H698 H 0.65877 0.91007 0.54706 0.0
C699 C 0.65534 0.91793 0.6785 0.0
C700 C 0.6784 0.93651 0.61047 0.0
C701 C 0.65349 0.91529 0.71522 0.0
C702 C 0.69099 0.934 0.46233 0.0
C703 C 0.68845 0.93431 0.49877 0.0
C704 C 0.66422 0.91764 0.56423 0.0
C705 C 0.66698 0.92421 0.6643 0.0
C706 C 0.669 0.92586 0.62477 0.0
C707 C 0.67655 0.92904 0.51082 0.0
C708 C 0.67374 0.92819 0.54994 0.0
H709 H 0.68258 0.92848 0.74187 0.0
H710 H 0.6858 0.93299 0.67803 0.0
H711 H 0.65471 0.90809 0.61115 0.0
H712 H 0.66246 0.91931 0.43028 0.0
H713 H 0.65806 0.92004 0.49346 0.0
C714 C 0.07798 0.76148 0.46144 0.0
C715 C 0.08439 0.75816 0.43821 0.0
C716 C 0.07722 0.75885 0.49817 0.0
C717 C 0.08216 0.74057 0.56621 0.0
H718 H 0.08805 0.76662 0.63009 0.0
C719 C 0.09715 0.74317 0.71445 0.0
C720 C 0.09318 0.74849 0.73973 0.0
C721 C 0.09431 0.74287 0.678 0.0
C722 C 0.08618 0.75916 0.61278 0.0
H723 H 0.09459 0.74902 0.43521 0.0
H724 H 0.09333 0.74453 0.49904 0.0
H725 H 0.08604 0.76867 0.56596 0.0
H726 H 0.08257 0.75707 0.74677 0.0
H727 H 0.07745 0.75634 0.68354 0.0
H728 H 0.08254 0.73116 0.61315 0.0
C729 C 0.0888 0.74908 0.48897 0.0
C730 C 0.08502 0.76034 0.5759 0.0
C731 C 0.08958 0.75171 0.45231 0.0
C732 C 0.08585 0.75298 0.728 0.0
C733 C 0.08298 0.75264 0.69165 0.0
C734 C 0.08331 0.73938 0.60317 0.0
C735 C 0.08282 0.75283 0.51252 0.0
C736 C 0.08312 0.75111 0.55206 0.0
C737 C 0.08741 0.74785 0.66603 0.0
C738 C 0.08545 0.74871 0.62691 0.0
H739 H 0.07386 0.76643 0.45146 0.0
H740 H 0.07238 0.76171 0.51545 0.0
H741 H 0.08054 0.73323 0.54869 0.0
H742 H 0.10285 0.73967 0.72256 0.0
H743 H 0.09795 0.73918 0.65903 0.0
C744 C 0.2654 0.34311 0.44737 0.0
C745 C 0.25809 0.33124 0.43602 0.0
C746 C 0.26843 0.34576 0.48358 0.0
C747 C 0.26848 0.33245 0.57236 0.0
H748 H 0.26549 0.35891 0.60901 0.0
C749 C 0.26182 0.33856 0.72285 0.0
C750 C 0.26685 0.3502 0.73678 0.0
C751 C 0.26277 0.33669 0.6863 0.0
C752 C 0.26659 0.35163 0.59923 0.0
H753 H 0.24868 0.31279 0.45367 0.0
H754 H 0.25384 0.3174 0.51696 0.0
H755 H 0.26348 0.35475 0.54498 0.0
H756 H 0.27734 0.36902 0.72345 0.0
H757 H 0.27911 0.36576 0.65968 0.0
H758 H 0.2713 0.32919 0.62695 0.0
C759 C 0.25735 0.32468 0.49781 0.0
C760 C 0.26543 0.34923 0.5624 0.0
C761 C 0.25435 0.32203 0.46149 0.0
C762 C 0.27332 0.35993 0.71359 0.0
C763 C 0.27426 0.35806 0.67697 0.0
C764 C 0.26963 0.33486 0.60929 0.0
C765 C 0.26419 0.3366 0.50944 0.0
C766 C 0.26624 0.33954 0.54847 0.0
C767 C 0.26877 0.34642 0.66273 0.0
C768 C 0.26857 0.3444 0.62324 0.0
H769 H 0.26852 0.35043 0.42843 0.0
H770 H 0.27393 0.35502 0.49141 0.0
H771 H 0.26931 0.32502 0.56254 0.0
H772 H 0.25677 0.33086 0.73993 0.0
H773 H 0.25834 0.32761 0.67629 0.0
C774 C 0.93192 0.6753 0.77708 0.0
C775 C 0.92452 0.66348 0.76538 0.0
C776 C 0.93492 0.6778 0.81335 0.0
C777 C 0.93475 0.66415 0.90161 0.0
H778 H 0.93197 0.69062 0.93922 0.0
C779 C 0.92832 0.66996 0.05249 0.0
C780 C 0.93341 0.68157 0.06667 0.0
C781 C 0.9292 0.66816 0.01585 0.0
C782 C 0.93301 0.68333 0.92917 0.0
H783 H 0.91489 0.64498 0.78246 0.0
H784 H 0.92 0.64934 0.84589 0.0
H785 H 0.92994 0.68664 0.87508 0.0
H786 H 0.94393 0.70041 0.05366 0.0
H787 H 0.9456 0.69727 0.98974 0.0
H788 H 0.93756 0.66071 0.95603 0.0
C789 C 0.9236 0.65668 0.82695 0.0
C790 C 0.93184 0.68104 0.89228 0.0
C791 C 0.92063 0.65417 0.79057 0.0
C792 C 0.93987 0.69135 0.04361 0.0
C793 C 0.94074 0.68955 0.00691 0.0
C794 C 0.93593 0.66645 0.9386 0.0
C795 C 0.93055 0.66855 0.83892 0.0
C796 C 0.93258 0.67135 0.87802 0.0
C797 C 0.9352 0.67793 0.99243 0.0
C798 C 0.93494 0.676 0.95289 0.0
H799 H 0.93515 0.68269 0.75836 0.0
H800 H 0.94049 0.68702 0.82147 0.0
H801 H 0.93553 0.65672 0.89152 0.0
H802 H 0.92327 0.66222 0.06947 0.0
H803 H 0.92472 0.6591 0.00566 0.0
C804 C 0.34256 0.26005 0.0545 0.0
C805 C 0.33098 0.2534 0.06882 0.0
C806 C 0.34429 0.26271 0.01784 0.0
C807 C 0.3291 0.25115 0.93132 0.0
H808 H 0.35544 0.28047 0.89343 0.0
C809 C 0.33709 0.2581 0.77913 0.0
C810 C 0.34893 0.26268 0.76745 0.0
C811 C 0.33455 0.25855 0.81539 0.0
C812 C 0.34808 0.2722 0.90359 0.0
H813 H 0.31212 0.24484 0.05602 0.0
H814 H 0.31512 0.2496 0.99203 0.0
H815 H 0.35147 0.27849 0.95795 0.0
H816 H 0.36743 0.2718 0.78459 0.0
H817 H 0.36301 0.27247 0.84798 0.0
H818 H 0.32585 0.24473 0.87727 0.0
C819 C 0.32288 0.25259 0.00912 0.0
C820 C 0.3458 0.27107 0.94058 0.0
C821 C 0.32116 0.24994 0.04586 0.0
C822 C 0.35822 0.26821 0.79267 0.0
C823 C 0.35567 0.26863 0.82903 0.0
C824 C 0.33138 0.25227 0.89441 0.0
C825 C 0.33448 0.25879 0.99452 0.0
C826 C 0.33636 0.26047 0.95496 0.0
C827 C 0.34378 0.26355 0.84097 0.0
C828 C 0.34097 0.26276 0.88007 0.0
H829 H 0.35034 0.26286 0.0714 0.0
H830 H 0.35333 0.26739 0.00756 0.0
H831 H 0.3219 0.24277 0.94144 0.0
H832 H 0.32971 0.25385 0.76039 0.0
H833 H 0.32531 0.25477 0.82349 0.0
C834 C 0.74314 0.09308 0.79402 0.0
C835 C 0.74987 0.09004 0.77123 0.0
C836 C 0.74201 0.09016 0.83058 0.0
C837 C 0.74671 0.07172 0.89869 0.0
H838 H 0.75225 0.09758 0.9629 0.0
C839 C 0.7622 0.07467 0.04634 0.0
C840 C 0.75835 0.08005 0.07177 0.0
C841 C 0.75906 0.07414 0.0101 0.0
C842 C 0.75046 0.09016 0.94551 0.0
H843 H 0.76021 0.08103 0.76869 0.0
H844 H 0.75832 0.07604 0.83223 0.0
H845 H 0.75033 0.09971 0.89881 0.0
H846 H 0.74756 0.08841 0.07943 0.0
H847 H 0.74191 0.08727 0.01654 0.0
H848 H 0.74714 0.06228 0.94552 0.0
C849 C 0.75382 0.08059 0.82195 0.0
C850 C 0.74935 0.09139 0.90864 0.0
C851 C 0.75496 0.08352 0.78547 0.0
C852 C 0.75077 0.08429 0.0605 0.0
C853 C 0.74759 0.08372 0.02436 0.0
C854 C 0.74782 0.07048 0.93565 0.0
C855 C 0.74757 0.08411 0.84516 0.0
C856 C 0.74762 0.08225 0.88467 0.0
C857 C 0.75197 0.07894 0.99851 0.0
C858 C 0.74985 0.07975 0.95949 0.0
H859 H 0.73907 0.09806 0.78391 0.0
H860 H 0.73697 0.09284 0.84758 0.0
H861 H 0.74523 0.06444 0.88104 0.0
H862 H 0.76808 0.07134 0.05411 0.0
H863 H 0.76267 0.07047 0.99095 0.0
C864 C 0.00968 0.41837 0.88687 0.0
C865 C 0.99789 0.41409 0.89858 0.0
C866 C 0.01215 0.4178 0.85062 0.0
C867 C 0.99843 0.40428 0.76249 0.0
H868 H 0.02521 0.43327 0.72464 0.0
C869 C 1.00471 0.41623 0.61127 0.0
C870 C 0.01637 0.4226 0.59734 0.0
C871 C 1.00279 0.41361 0.64794 0.0
C872 C 0.01783 0.42501 0.73476 0.0
H873 H 0.97939 0.40537 0.88152 0.0
H874 H 0.98371 0.4045 0.8181 0.0
H875 H 0.02115 0.4315 0.78872 0.0
H876 H 0.03515 0.43068 0.61083 0.0
H877 H 0.0318 0.42599 0.67478 0.0
H878 H 0.99499 0.39793 0.70819 0.0
C879 C 0.99105 0.4082 0.83703 0.0
C880 C 0.01549 0.42399 0.77162 0.0
C881 C 0.98857 0.40873 0.8734 0.0
C882 C 0.02606 0.4258 0.62068 0.0
C883 C 0.02413 0.42319 0.6574 0.0
C884 C 1.00078 0.40531 0.72553 0.0
C885 C 1.00291 0.41299 0.82506 0.0
C886 C 1.0057 0.41366 0.78598 0.0
C887 C 0.01248 0.4173 0.67163 0.0
C888 C 0.01045 0.41574 0.71116 0.0
H889 H 0.01708 0.42247 0.90558 0.0
H890 H 0.02136 0.42135 0.84252 0.0
H891 H 0.99091 0.39614 0.77266 0.0
H892 H 0.99704 0.41362 0.59408 0.0
H893 H 0.99371 0.40916 0.65792 0.0
C894 C 0.58863 0.6012 0.62245 0.0
C895 C 0.59238 0.59569 0.59716 0.0
C896 C 0.5915 0.60149 0.65886 0.0
C897 C 0.59918 0.58484 0.72399 0.0
H898 H 0.60533 0.61091 0.78814 0.0
C899 C 0.60697 0.58213 0.87539 0.0
C900 C 0.60064 0.5856 0.89848 0.0
C901 C 0.60789 0.58485 0.83869 0.0
C902 C 0.60357 0.60353 0.77059 0.0
H903 H 0.60267 0.58677 0.59003 0.0
H904 H 0.60785 0.58747 0.6532 0.0
H905 H 0.60345 0.61308 0.72366 0.0
H906 H 0.59078 0.59509 0.90134 0.0
H907 H 0.59232 0.59973 0.83756 0.0
H908 H 0.59905 0.57519 0.7708 0.0
C909 C 0.60245 0.59133 0.64513 0.0
C910 C 0.60249 0.60477 0.73362 0.0
C911 C 0.59955 0.59101 0.60882 0.0
C912 C 0.59572 0.59228 0.88433 0.0
C913 C 0.59666 0.595 0.84771 0.0
C914 C 0.60027 0.5836 0.76087 0.0
C915 C 0.59822 0.5963 0.67077 0.0
C916 C 0.60016 0.59539 0.70988 0.0
C917 C 0.60253 0.5911 0.82426 0.0
C918 C 0.60235 0.59288 0.78473 0.0
H919 H 0.58306 0.60486 0.61439 0.0
H920 H 0.58801 0.60532 0.67785 0.0
H921 H 0.59716 0.57733 0.70667 0.0
H922 H 0.61089 0.577 0.88541 0.0
H923 H 0.61264 0.58187 0.8215 0.0
C924 C 0.43091 0.02679 0.87781 0.0
C925 C 0.42737 0.01706 0.90124 0.0
C926 C 0.42825 0.02491 0.8411 0.0
C927 C 0.4097 1.00173 0.77317 0.0
H928 H 0.43596 0.02157 0.70949 0.0
C929 C 0.41237 0.98915 0.62514 0.0
C930 C 0.41783 0.99842 0.59984 0.0
C931 C 0.41201 0.99171 0.66154 0.0
C932 C 0.42844 0.01606 0.72674 0.0
H933 H 0.41777 0.99771 0.90464 0.0
H934 H 0.41323 0.99445 0.84082 0.0
H935 H 0.43799 0.02564 0.77357 0.0
H936 H 0.4266 0.01763 0.5927 0.0
H937 H 0.4258 0.02206 0.65584 0.0
H938 H 0.40026 0.99199 0.72618 0.0
C939 C 0.41798 1.00354 0.85072 0.0
C940 C 0.4296 0.01841 0.76361 0.0
C941 C 0.42063 1.00542 0.88739 0.0
C942 C 0.4224 0.01026 0.61148 0.0
C943 C 0.42202 0.01282 0.64778 0.0
C944 C 0.40853 0.99937 0.73621 0.0
C945 C 0.42198 0.01326 0.82695 0.0
C946 C 0.4203 0.01122 0.7874 0.0
C947 C 0.41709 1.00361 0.67344 0.0
C948 C 0.41793 0.00645 0.71254 0.0
H949 H 0.43608 0.03587 0.88759 0.0
H950 H 0.4313 0.0326 0.82369 0.0
H951 H 0.40229 0.9961 0.79063 0.0
H952 H 0.40879 0.97993 0.61711 0.0
H953 H 0.40821 0.98439 0.68054 0.0
C954 C 0.6033 0.02113 0.38012 0.0
C955 C 0.59772 0.01187 0.4054 0.0
C956 C 0.60354 0.01854 0.34368 0.0
C957 C 0.58675 0.99426 0.27846 0.0
H958 H 0.61297 0.014 0.2145 0.0
C959 C 0.58424 0.98356 0.12728 0.0
C960 C 0.58781 0.99332 0.10397 0.0
C961 C 0.58687 0.98539 0.16401 0.0
C962 C 0.60555 0.00842 0.23199 0.0
H963 H 0.5886 0.99264 0.41247 0.0
H964 H 0.58922 0.98815 0.34929 0.0
H965 H 0.61508 0.01808 0.27895 0.0
H966 H 0.59742 0.01267 0.10079 0.0
H967 H 0.60193 0.01585 0.16464 0.0
H968 H 0.57712 0.98475 0.23162 0.0
C969 C 0.59317 0.99741 0.35737 0.0
C970 C 0.60675 0.01078 0.26894 0.0
C971 C 0.59289 1.0 0.39369 0.0
C972 C 0.59453 1.00494 0.11796 0.0
C973 C 0.59717 0.00677 0.15463 0.0
C974 C 0.58555 0.99191 0.24159 0.0
C975 C 0.59823 0.00663 0.33174 0.0
C976 C 0.59732 1.00378 0.29263 0.0
C977 C 0.59316 0.99703 0.17827 0.0
C978 C 0.59488 0.99903 0.2178 0.0
H979 H 0.60707 0.03037 0.38821 0.0
H980 H 0.60744 0.02587 0.32471 0.0
H981 H 0.57921 0.98882 0.29572 0.0
H982 H 0.57908 0.97449 0.11738 0.0
H983 H 0.58381 0.97768 0.18136 0.0
C984 C 0.01369 0.59619 0.39528 0.0
C985 C 1.00182 0.58892 0.40672 0.0
C986 C 0.0163 0.59924 0.35907 0.0
C987 C 1.00295 0.59948 0.2706 0.0
H988 H 0.02915 0.5962 0.23323 0.0
C989 C 0.00858 0.59274 0.1199 0.0
C990 C 0.02017 0.59768 0.10566 0.0
C991 C 1.00684 0.5937 0.15653 0.0
C992 C 0.02195 0.59738 0.24322 0.0
H993 H 0.98335 0.57959 0.38924 0.0
H994 H 0.98791 0.58481 0.32596 0.0
H995 H 0.02513 0.59421 0.29735 0.0
H996 H 0.03903 0.60799 0.11855 0.0
H997 H 0.03598 0.60979 0.18248 0.0
H998 H 0.99963 0.60237 0.21615 0.0
C999 C 0.99521 0.58826 0.34504 0.0
C1000 C 0.01962 0.59623 0.28009 0.0
C1001 C 0.99259 0.58523 0.38135 0.0
C1002 C 0.02998 0.60405 0.12865 0.0
C1003 C 0.02823 0.605 0.16536 0.0
C1004 C 1.00528 0.60062 0.23364 0.0
C1005 C 1.00713 0.59507 0.33332 0.0
C1006 C 0.01002 0.59714 0.29427 0.0
C1007 C 0.01663 0.59962 0.17989 0.0
C1008 C 0.01472 0.59945 0.21943 0.0
H1009 H 0.02102 0.59926 0.41415 0.0
H1010 H 0.02556 0.6047 0.35115 0.0
H1011 H 0.99558 0.60039 0.28062 0.0
H1012 H 1.00082 0.58777 0.10298 0.0
H1013 H 0.99778 0.58935 0.16675 0.0
C1014 C 0.422 0.41763 0.11788 0.0
C1015 C 0.41702 0.42426 0.1037 0.0
C1016 C 0.42117 0.41502 0.15456 0.0
C1017 C 0.41778 0.42668 0.24119 0.0
H1018 H 0.41484 0.39739 0.27919 0.0
C1019 C 0.41895 0.41985 0.39337 0.0
C1020 C 0.42621 0.41526 0.40509 0.0
C1021 C 0.41595 0.41937 0.35711 0.0
C1022 C 0.41574 0.40565 0.26899 0.0
H1023 H 0.40676 0.43284 0.11679 0.0
H1024 H 0.40519 0.42815 0.1808 0.0
H1025 H 0.41275 0.39931 0.21468 0.0
H1026 H 0.43556 0.40611 0.38804 0.0
H1027 H 0.43043 0.40539 0.32463 0.0
H1028 H 0.42104 0.43315 0.29518 0.0
C1029 C 0.40991 0.42514 0.16358 0.0
C1030 C 0.41453 0.40675 0.23201 0.0
C1031 C 0.41073 0.42776 0.12684 0.0
C1032 C 0.42993 0.4097 0.37992 0.0
C1033 C 0.42696 0.40926 0.34355 0.0
C1034 C 0.419 0.42559 0.27808 0.0
C1035 C 0.41534 0.41896 0.17804 0.0
C1036 C 0.41566 0.41734 0.2176 0.0
C1037 C 0.42016 0.41435 0.33156 0.0
C1038 C 0.4181 0.41511 0.29247 0.0
H1039 H 0.42691 0.4148 0.10085 0.0
H1040 H 0.42556 0.41034 0.16473 0.0
H1041 H 0.41894 0.43505 0.23104 0.0
H1042 H 0.41584 0.42411 0.41207 0.0
H1043 H 0.41049 0.42315 0.34899 0.0
C1044 C 0.33613 0.20894 0.15373 0.0
C1045 C 0.32467 0.20569 0.16667 0.0
C1046 C 0.34019 0.20075 0.15356 0.0
C1047 C 0.33029 0.16847 0.15874 0.0
H1048 H 0.36311 0.18002 0.18756 0.0
C1049 C 0.34813 0.13618 0.18385 0.0
C1050 C 0.35961 0.13945 0.17104 0.0
C1051 C 0.34406 0.14437 0.18405 0.0
C1052 C 0.35397 0.17667 0.17905 0.0
H1053 H 0.30838 0.19109 0.18876 0.0
H1054 H 0.31551 0.17675 0.18861 0.0
H1055 H 0.35537 0.19377 0.1857 0.0
H1056 H 0.37592 0.15409 0.1492 0.0
H1057 H 0.36878 0.16842 0.14937 0.0
H1058 H 0.32889 0.15137 0.15206 0.0
C1059 C 0.32133 0.18567 0.17835 0.0
C1060 C 0.34952 0.18456 0.17797 0.0
C1061 C 0.31723 0.19389 0.17849 0.0
C1062 C 0.36705 0.15127 0.15937 0.0
C1063 C 0.36295 0.15949 0.15953 0.0
C1064 C 0.33474 0.16058 0.1598 0.0
C1065 C 0.33294 0.18906 0.16638 0.0
C1066 C 0.33761 0.18058 0.16776 0.0
C1067 C 0.35132 0.15608 0.17138 0.0
C1068 C 0.34665 0.16456 0.17002 0.0
H1069 H 0.34209 0.21791 0.14412 0.0
H1070 H 0.34907 0.20363 0.14341 0.0
H1071 H 0.32114 0.16512 0.15024 0.0
H1072 H 0.34215 0.1272 0.19334 0.0
H1073 H 0.33517 0.14148 0.19412 0.0
C1074 C 0.80452 0.12937 0.14968 0.0
C1075 C 0.80793 0.12117 0.16167 0.0
C1076 C 0.81271 0.14162 0.14898 0.0
C1077 C 0.84506 0.16407 0.1515 0.0
H1078 H 0.83372 0.18524 0.18325 0.0
C1079 C 0.87746 0.2141 0.17803 0.0
C1080 C 0.87413 0.22238 0.16632 0.0
C1081 C 0.8693 0.20184 0.17771 0.0
C1082 C 0.83701 0.17949 0.1739 0.0
H1083 H 0.82281 0.11951 0.18137 0.0
H1084 H 0.83714 0.14097 0.1804 0.0
H1085 H 0.81999 0.16376 0.18134 0.0
H1086 H 0.8594 0.22416 0.14581 0.0
H1087 H 0.8451 0.20268 0.14513 0.0
H1088 H 0.86209 0.17981 0.14417 0.0
C1089 C 0.8281 0.13787 0.17125 0.0
C1090 C 0.82912 0.16714 0.17279 0.0
C1091 C 0.81988 0.12555 0.17187 0.0
C1092 C 0.86227 0.21806 0.15515 0.0
C1093 C 0.85407 0.20574 0.15481 0.0
C1094 C 0.85294 0.17642 0.15264 0.0
C1095 C 0.82456 0.14608 0.16036 0.0
C1096 C 0.83303 0.15925 0.16155 0.0
C1097 C 0.85753 0.19746 0.16562 0.0
C1098 C 0.84904 0.1843 0.16394 0.0
H1099 H 0.79543 0.12635 0.14127 0.0
H1100 H 0.80971 0.14761 0.13963 0.0
H1101 H 0.84835 0.15831 0.14219 0.0
H1102 H 0.88648 0.21706 0.18709 0.0
H1103 H 0.87223 0.19578 0.18696 0.0
C1104 C 0.8884 0.69639 0.17609 0.0
C1105 C 0.89258 0.68876 0.16475 0.0
C1106 C 0.87612 0.69246 0.17618 0.0
C1107 C 0.84657 0.6645 0.17722 0.0
H1108 H 0.83441 0.68534 0.14978 0.0
C1109 C 0.79582 0.6475 0.15903 0.0
C1110 C 0.79163 0.65515 0.17015 0.0
C1111 C 0.8081 0.65144 0.15903 0.0
C1112 C 0.83765 0.67943 0.15795 0.0
H1113 H 0.88705 0.67112 0.14335 0.0
H1114 H 0.86585 0.66441 0.14302 0.0
H1115 H 0.85584 0.69279 0.1479 0.0
H1116 H 0.79713 0.67282 0.1913 0.0
H1117 H 0.81834 0.67953 0.19182 0.0
H1118 H 0.82838 0.65114 0.18728 0.0
C1119 C 0.87198 0.67334 0.15263 0.0
C1120 C 0.84997 0.68372 0.15686 0.0
C1121 C 0.8842 0.67724 0.15258 0.0
C1122 C 0.8 0.66668 0.18222 0.0
C1123 C 0.81222 0.6706 0.18228 0.0
C1124 C 0.83425 0.66021 0.17832 0.0
C1125 C 0.86773 0.6808 0.16492 0.0
C1126 C 0.85461 0.67632 0.16642 0.0
C1127 C 0.81648 0.66312 0.17018 0.0
C1128 C 0.82961 0.66762 0.16874 0.0
H1129 H 0.89459 0.7053 0.18576 0.0
H1130 H 0.87318 0.69845 0.18602 0.0
H1131 H 0.84981 0.65859 0.18537 0.0
H1132 H 0.78964 0.63859 0.14943 0.0
H1133 H 0.81105 0.64545 0.14932 0.0
C1134 C 0.15336 0.36304 0.34515 0.0
C1135 C 0.14154 0.3554 0.33392 0.0
C1136 C 0.16168 0.35908 0.34541 0.0
C1137 C 0.16727 0.33546 0.30892 0.0
H1138 H 0.18837 0.34342 0.39095 0.0
C1139 C 0.19686 0.31392 0.33088 0.0
C1140 C 0.2087 0.32169 0.34174 0.0
C1141 C 0.18842 0.31774 0.33095 0.0
C1142 C 0.18262 0.34119 0.36768 0.0
H1143 H 0.12933 0.33769 0.31321 0.0
H1144 H 0.14372 0.33084 0.31385 0.0
H1145 H 0.17467 0.35119 0.38726 0.0
H1146 H 0.2208 0.33947 0.36225 0.0
H1147 H 0.20621 0.34606 0.36221 0.0
H1148 H 0.17522 0.32546 0.28934 0.0
C1149 C 0.14664 0.33992 0.32222 0.0
C1150 C 0.17478 0.34569 0.36551 0.0
C1151 C 0.13835 0.34385 0.32205 0.0
C1152 C 0.21178 0.33322 0.35365 0.0
C1153 C 0.20337 0.337 0.35384 0.0
C1154 C 0.1751 0.33096 0.3111 0.0
C1155 C 0.15839 0.34741 0.33428 0.0
C1156 C 0.167 0.3429 0.33609 0.0
C1157 C 0.19161 0.32938 0.34208 0.0
C1158 C 0.18291 0.33378 0.34047 0.0
H1159 H 0.15613 0.37199 0.35448 0.0
H1160 H 0.1707 0.36516 0.35442 0.0
H1161 H 0.16152 0.33324 0.28563 0.0
H1162 H 0.19418 0.305 0.32152 0.0
H1163 H 0.1794 0.31158 0.32214 0.0
C1164 C 0.6512 0.79264 0.3427 0.0
C1165 C 0.659 0.78864 0.3316 0.0
C1166 C 0.65494 0.80488 0.34256 0.0
C1167 C 0.67806 0.83416 0.30503 0.0
H1168 H 0.67014 0.84728 0.38715 0.0
C1169 C 0.69907 0.88531 0.32607 0.0
C1170 C 0.6913 0.88928 0.33771 0.0
C1171 C 0.69537 0.87308 0.326 0.0
C1172 C 0.67235 0.84377 0.36383 0.0
H1173 H 0.67674 0.79442 0.31064 0.0
H1174 H 0.68318 0.81557 0.31053 0.0
H1175 H 0.66266 0.82585 0.38393 0.0
H1176 H 0.67361 0.88342 0.35926 0.0
H1177 H 0.66721 0.8623 0.3589 0.0
H1178 H 0.68774 0.85208 0.28489 0.0
C1179 C 0.67417 0.80931 0.31915 0.0
C1180 C 0.66801 0.83145 0.36194 0.0
C1181 C 0.67047 0.79714 0.31942 0.0
C1182 C 0.67987 0.88075 0.35009 0.0
C1183 C 0.6762 0.86858 0.3501 0.0
C1184 C 0.68238 0.84648 0.3069 0.0
C1185 C 0.66652 0.81339 0.33111 0.0
C1186 C 0.67081 0.82647 0.33252 0.0
C1187 C 0.68383 0.86454 0.33773 0.0
C1188 C 0.67958 0.85146 0.33631 0.0
H1189 H 0.64232 0.78637 0.35226 0.0
H1190 H 0.64875 0.80769 0.35152 0.0
H1191 H 0.68027 0.83064 0.28173 0.0
H1192 H 0.70793 0.89162 0.31634 0.0
H1193 H 0.70155 0.87031 0.3167 0.0
C1194 C 0.21752 0.87542 0.31417 0.0
C1195 C 0.22587 0.87251 0.32815 0.0
C1196 C 0.20531 0.86708 0.31421 0.0
C1197 C 0.18285 0.83974 0.36072 0.0
H1198 H 0.16234 0.83803 0.28218 0.0
C1199 C 0.13317 0.80295 0.35162 0.0
C1200 C 0.12484 0.80594 0.33795 0.0
C1201 C 0.1454 0.81123 0.35125 0.0
C1202 C 0.1679 0.83851 0.30458 0.0
H1203 H 0.22783 0.85832 0.35222 0.0
H1204 H 0.20645 0.84365 0.35197 0.0
H1205 H 0.18384 0.85154 0.27806 0.0
H1206 H 0.12293 0.82017 0.31395 0.0
H1207 H 0.14435 0.83471 0.31361 0.0
H1208 H 0.16691 0.82672 0.38724 0.0
C1209 C 0.2094 0.8525 0.34138 0.0
C1210 C 0.18026 0.84623 0.30217 0.0
C1211 C 0.22167 0.86087 0.34123 0.0
C1212 C 0.12907 0.81756 0.32472 0.0
C1213 C 0.14137 0.82586 0.32424 0.0
C1214 C 0.17049 0.83202 0.36312 0.0
C1215 C 0.20104 0.85556 0.32827 0.0
C1216 C 0.18791 0.84697 0.33022 0.0
C1217 C 0.1497 0.82275 0.33715 0.0
C1218 C 0.16284 0.83129 0.33509 0.0
H1219 H 0.22039 0.88428 0.30383 0.0
H1220 H 0.19918 0.86982 0.30425 0.0
H1221 H 0.18841 0.84022 0.38313 0.0
H1222 H 0.13027 0.79409 0.36204 0.0
H1223 H 0.15151 0.80844 0.36106 0.0
C1224 C 0.66864 0.87466 0.82308 0.0
C1225 C 0.65705 0.87122 0.83525 0.0
C1226 C 0.6728 0.86656 0.82276 0.0
C1227 C 0.66307 0.83428 0.82604 0.0
H1228 H 0.69574 0.84583 0.85662 0.0
C1229 C 0.68103 0.80208 0.85089 0.0
C1230 C 0.69259 0.80547 0.83851 0.0
C1231 C 0.6769 0.81022 0.8512 0.0
C1232 C 0.68665 0.84248 0.84762 0.0
H1233 H 0.64065 0.85637 0.85583 0.0
H1234 H 0.64795 0.84218 0.85547 0.0
H1235 H 0.68788 0.85948 0.85505 0.0
H1236 H 0.70897 0.82027 0.81759 0.0
H1237 H 0.70172 0.83451 0.81798 0.0
H1238 H 0.66184 0.81728 0.81865 0.0
C1239 C 0.65379 0.85118 0.84589 0.0
C1240 C 0.68212 0.85031 0.8467 0.0
C1241 C 0.6496 0.85932 0.84617 0.0
C1242 C 0.70004 0.81735 0.82741 0.0
C1243 C 0.69588 0.82552 0.82769 0.0
C1244 C 0.6676 0.82644 0.82698 0.0
C1245 C 0.66552 0.85475 0.83467 0.0
C1246 C 0.67028 0.84633 0.83586 0.0
C1247 C 0.68418 0.82199 0.83908 0.0
C1248 C 0.67944 0.83043 0.83783 0.0
H1249 H 0.67463 0.88372 0.81418 0.0
H1250 H 0.68178 0.86957 0.81319 0.0
H1251 H 0.65398 0.83093 0.81704 0.0
H1252 H 0.67505 0.79305 0.85995 0.0
H1253 H 0.66795 0.80724 0.8609 0.0
C1254 C 0.1962 0.88545 0.8302 0.0
C1255 C 0.2082 0.88968 0.83961 0.0
C1256 C 0.18787 0.87316 0.83094 0.0
C1257 C 0.18283 0.84411 0.86727 0.0
H1258 H 0.1607 0.83059 0.78769 0.0
C1259 C 0.15345 0.79285 0.84655 0.0
C1260 C 0.14149 0.7886 0.83661 0.0
C1261 C 0.16174 0.80515 0.84639 0.0
C1262 C 0.16674 0.83421 0.81031 0.0
H1263 H 0.22068 0.88424 0.85829 0.0
H1264 H 0.20627 0.86302 0.85942 0.0
H1265 H 0.17431 0.85209 0.79035 0.0
H1266 H 0.12901 0.79403 0.81786 0.0
H1267 H 0.14333 0.81527 0.81778 0.0
H1268 H 0.17525 0.82622 0.88722 0.0
C1269 C 0.20323 0.86913 0.85167 0.0
C1270 C 0.17453 0.84658 0.81189 0.0
C1271 C 0.21154 0.88135 0.8508 0.0
C1272 C 0.13813 0.79693 0.8257 0.0
C1273 C 0.14638 0.80916 0.82544 0.0
C1274 C 0.17503 0.83174 0.8657 0.0
C1275 C 0.19132 0.86483 0.84132 0.0
C1276 C 0.18269 0.8517 0.84037 0.0
C1277 C 0.15827 0.81348 0.8361 0.0
C1278 C 0.16687 0.82662 0.8372 0.0
H1279 H 0.19331 0.89159 0.82144 0.0
H1280 H 0.17872 0.87019 0.82324 0.0
H1281 H 0.18888 0.84773 0.88986 0.0
H1282 H 0.15636 0.7867 0.85513 0.0
H1283 H 0.17086 0.80814 0.85435 0.0
C1284 C 0.1288 0.3152 0.82441 0.0
C1285 C 0.12449 0.3227 0.83601 0.0
C1286 C 0.14111 0.31925 0.82451 0.0
C1287 C 0.17004 0.34271 0.86301 0.0
H1288 H 0.18381 0.33571 0.78064 0.0
C1289 C 0.22133 0.36502 0.84369 0.0
C1290 C 0.22564 0.35751 0.83204 0.0
C1291 C 0.20904 0.36104 0.84313 0.0
C1292 C 0.18011 0.33767 0.80402 0.0
H1293 H 0.1298 0.34026 0.8577 0.0
H1294 H 0.15106 0.34724 0.85773 0.0
H1295 H 0.16228 0.32767 0.78346 0.0
H1296 H 0.22032 0.34005 0.80961 0.0
H1297 H 0.19909 0.33318 0.80885 0.0
H1298 H 0.18786 0.35269 0.88362 0.0
C1299 C 0.145 0.33822 0.84877 0.0
C1300 C 0.16774 0.33302 0.80568 0.0
C1301 C 0.13276 0.3342 0.84855 0.0
C1302 C 0.21738 0.3461 0.81884 0.0
C1303 C 0.20515 0.34216 0.81819 0.0
C1304 C 0.18241 0.34736 0.86137 0.0
C1305 C 0.14937 0.33086 0.83641 0.0
C1306 C 0.16252 0.33548 0.83519 0.0
C1307 C 0.20078 0.34949 0.83074 0.0
C1308 C 0.18763 0.3449 0.83186 0.0
H1309 H 0.1227 0.3063 0.81455 0.0
H1310 H 0.14415 0.31329 0.8152 0.0
H1311 H 0.16634 0.34467 0.88639 0.0
H1312 H 0.22742 0.37385 0.85404 0.0
H1313 H 0.20601 0.367 0.85255 0.0
C1314 C 0.82077 0.69709 0.67717 0.0
C1315 C 0.80894 0.68951 0.66587 0.0
C1316 C 0.82908 0.69311 0.67713 0.0
C1317 C 0.83049 0.66508 0.67813 0.0
H1318 H 0.86348 0.68575 0.65032 0.0
C1319 C 0.86393 0.64778 0.65913 0.0
C1320 C 0.87581 0.65536 0.67004 0.0
C1321 C 0.85565 0.6518 0.65944 0.0
C1322 C 0.85433 0.67988 0.65861 0.0
H1323 H 0.79675 0.6719 0.64436 0.0
H1324 H 0.81117 0.6651 0.64383 0.0
H1325 H 0.84959 0.69331 0.64854 0.0
H1326 H 0.88812 0.67298 0.69117 0.0
H1327 H 0.87373 0.67984 0.69222 0.0
H1328 H 0.83523 0.65165 0.6882 0.0
C1329 C 0.81401 0.67403 0.6535 0.0
C1330 C 0.84636 0.68424 0.65756 0.0
C1331 C 0.80574 0.67799 0.65355 0.0
C1332 C 0.87908 0.6669 0.68226 0.0
C1333 C 0.87084 0.6709 0.68262 0.0
C1334 C 0.83846 0.66073 0.67918 0.0
C1335 C 0.82574 0.68144 0.66579 0.0
C1336 C 0.83432 0.67689 0.66723 0.0
C1337 C 0.85906 0.66348 0.67069 0.0
C1338 C 0.8505 0.66807 0.66946 0.0
H1339 H 0.82354 0.70599 0.68695 0.0
H1340 H 0.83802 0.69905 0.68697 0.0
H1341 H 0.82133 0.65921 0.68637 0.0
H1342 H 0.8611 0.63886 0.64943 0.0
H1343 H 0.84668 0.64586 0.64985 0.0
C1344 C 0.34631 0.21425 0.68338 0.0
C1345 C 0.35791 0.2227 0.67211 0.0
C1346 C 0.34251 0.20205 0.68358 0.0
C1347 C 0.35324 0.18027 0.68167 0.0
H1348 H 0.321 0.15842 0.64906 0.0
C1349 C 0.33697 0.13046 0.65606 0.0
C1350 C 0.32539 0.12197 0.66751 0.0
C1351 C 0.34074 0.14265 0.6561 0.0
C1352 C 0.32997 0.16437 0.65863 0.0
H1353 H 0.37472 0.22487 0.65298 0.0
H1354 H 0.36805 0.2035 0.65311 0.0
H1355 H 0.32821 0.17982 0.65074 0.0
H1356 H 0.30863 0.11973 0.68723 0.0
H1357 H 0.31524 0.14109 0.68745 0.0
H1358 H 0.35501 0.16482 0.6895 0.0
C1359 C 0.36191 0.20637 0.66209 0.0
C1360 C 0.33413 0.17667 0.65961 0.0
C1361 C 0.36574 0.21863 0.66194 0.0
C1362 C 0.31758 0.126 0.67813 0.0
C1363 C 0.32137 0.13826 0.67818 0.0
C1364 C 0.34909 0.16797 0.68067 0.0
C1365 C 0.35017 0.1979 0.67244 0.0
C1366 C 0.34582 0.18479 0.67118 0.0
C1367 C 0.33307 0.14675 0.66764 0.0
C1368 C 0.3374 0.15985 0.66907 0.0
H1369 H 0.34004 0.21702 0.69171 0.0
H1370 H 0.33351 0.19585 0.6925 0.0
H1371 H 0.36222 0.18621 0.69125 0.0
H1372 H 0.34323 0.12772 0.6474 0.0
H1373 H 0.34971 0.14888 0.64705 0.0
C1374 C 0.79559 0.15073 0.66438 0.0
C1375 C 0.79134 0.13899 0.67658 0.0
C1376 C 0.80787 0.15908 0.66465 0.0
C1377 C 0.83733 0.16058 0.66578 0.0
H1378 H 0.84955 0.19386 0.68966 0.0
C1379 C 0.88814 0.19459 0.68143 0.0
C1380 C 0.89226 0.20627 0.66886 0.0
C1381 C 0.87586 0.18624 0.6822 0.0
C1382 C 0.84629 0.18462 0.6825 0.0
H1383 H 0.79673 0.12703 0.70008 0.0
H1384 H 0.81794 0.14155 0.70102 0.0
H1385 H 0.82811 0.17991 0.69218 0.0
H1386 H 0.88663 0.21813 0.64598 0.0
H1387 H 0.86544 0.20361 0.64678 0.0
H1388 H 0.85551 0.16529 0.65599 0.0
C1389 C 0.81186 0.14426 0.69045 0.0
C1390 C 0.83397 0.17661 0.68397 0.0
C1391 C 0.79964 0.13595 0.69016 0.0
C1392 C 0.88383 0.20926 0.65615 0.0
C1393 C 0.87161 0.20094 0.65687 0.0
C1394 C 0.84965 0.16859 0.66428 0.0
C1395 C 0.81618 0.15588 0.67714 0.0
C1396 C 0.82932 0.16448 0.67563 0.0
C1397 C 0.86742 0.18937 0.67039 0.0
C1398 C 0.8543 0.18074 0.67252 0.0
H1399 H 0.78947 0.15337 0.65362 0.0
H1400 H 0.81087 0.16793 0.654 0.0
H1401 H 0.83407 0.15134 0.65858 0.0
H1402 H 0.89436 0.19199 0.69155 0.0
H1403 H 0.87296 0.17742 0.69299 0.0
C1404 C 0.01295 0.46796 0.51223 0.0
C1405 C 0.02454 0.47103 0.50102 0.0
C1406 C 0.00928 0.47645 0.51281 0.0
C1407 C 0.01603 0.50535 0.47294 0.0
H1408 H 0.99534 0.50514 0.54869 0.0
C1409 C 1.00399 0.5426 0.48834 0.0
C1410 C 0.99237 0.53946 0.49941 0.0
C1411 C 1.00769 0.53413 0.48752 0.0
C1412 C 1.00097 0.50522 0.52705 0.0
H1413 H 0.04144 0.48563 0.48232 0.0
H1414 H 0.03506 0.50055 0.48367 0.0
H1415 H 1.00276 0.49114 0.551 0.0
H1416 H 0.97543 0.52477 0.51752 0.0
H1417 H 0.98187 0.50989 0.51581 0.0
H1418 H 0.01425 0.51946 0.44903 0.0
C1419 C 0.02876 0.49147 0.49161 0.0
C1420 C 1.00527 0.4972 0.52842 0.0
C1421 C 0.03246 0.48294 0.49111 0.0
C1422 C 0.98443 0.52751 0.50885 0.0
C1423 C 0.98816 0.519 0.50815 0.0
C1424 C 0.01173 0.51338 0.47158 0.0
C1425 C 0.01707 0.4883 0.50218 0.0
C1426 C 0.01285 0.49714 0.50136 0.0
C1427 C 0.99989 0.52224 0.4978 0.0
C1428 C 1.00414 0.51342 0.49862 0.0
H1429 H 1.00657 0.45888 0.52005 0.0
H1430 H 1.00018 0.47361 0.52067 0.0
H1431 H 0.02166 0.50544 0.45129 0.0
H1432 H 0.01037 0.55171 0.48085 0.0
H1433 H 0.01681 0.53701 0.4798 0.0
C1434 C 0.48706 0.4595 0.51081 0.0
C1435 C 0.47516 0.45537 0.50051 0.0
C1436 C 0.49549 0.47175 0.51016 0.0
C1437 C 0.49744 0.50145 0.51118 0.0
H1438 H 0.5301 0.51315 0.4809 0.0
C1439 C 0.53154 0.55203 0.49109 0.0
C1440 C 0.54343 0.55609 0.50137 0.0
C1441 C 0.52307 0.53978 0.49146 0.0
C1442 C 0.52104 0.51004 0.48985 0.0
H1443 H 0.46295 0.46095 0.48022 0.0
H1444 H 0.4776 0.48212 0.47863 0.0
H1445 H 0.5159 0.49175 0.47998 0.0
H1446 H 0.55557 0.55039 0.52138 0.0
H1447 H 0.54087 0.52924 0.52253 0.0
H1448 H 0.50258 0.51973 0.52109 0.0
C1449 C 0.4804 0.47596 0.48797 0.0
C1450 C 0.51289 0.49774 0.48931 0.0
C1451 C 0.472 0.46377 0.48863 0.0
C1452 C 0.54654 0.54763 0.51296 0.0
C1453 C 0.53811 0.53544 0.51337 0.0
C1454 C 0.50559 0.51374 0.51173 0.0
C1455 C 0.49222 0.48016 0.4992 0.0
C1456 C 0.50097 0.49327 0.49994 0.0
C1457 C 0.5263 0.53131 0.50213 0.0
C1458 C 0.51752 0.51821 0.50115 0.0
H1459 H 0.4898 0.4533 0.52023 0.0
H1460 H 0.5045 0.47466 0.51921 0.0
H1461 H 0.48838 0.49833 0.52013 0.0
H1462 H 0.52884 0.55828 0.4819 0.0
H1463 H 0.51408 0.53693 0.48242 0.0
C1464 C 0.55013 0.0101 0.49359 0.0
C1465 C 0.55878 0.02172 0.50413 0.0
C1466 C 0.53798 0.00648 0.49401 0.0
C1467 C 0.51657 0.01759 0.49538 0.0
H1468 H 0.49465 0.98577 0.531 0.0
C1469 C 0.46665 1.00162 0.51852 0.0
C1470 C 0.45823 0.98988 0.50825 0.0
C1471 C 0.47885 1.00544 0.51932 0.0
C1472 C 0.50061 0.99462 0.52059 0.0
H1473 H 0.56134 0.03875 0.52256 0.0
H1474 H 0.54004 0.03241 0.52334 0.0
H1475 H 0.516 0.9928 0.52914 0.0
H1476 H 0.45613 0.97288 0.49154 0.0
H1477 H 0.47747 0.97956 0.49266 0.0
H1478 H 0.50118 0.01939 0.48663 0.0
C1479 C 0.54273 0.02611 0.51457 0.0
C1480 C 0.51288 0.99868 0.51953 0.0
C1481 C 0.55494 0.02975 0.51418 0.0
C1482 C 0.46234 0.98195 0.49973 0.0
C1483 C 0.47459 0.9858 0.50045 0.0
C1484 C 0.50429 0.01353 0.49638 0.0
C1485 C 0.53408 0.01436 0.50498 0.0
C1486 C 0.52103 0.0102 0.50678 0.0
C1487 C 0.48303 0.99765 0.50978 0.0
C1488 C 0.49613 1.00198 0.50896 0.0
H1489 H 0.55271 1.00367 0.4854 0.0
H1490 H 0.53162 0.99746 0.48569 0.0
H1491 H 0.52254 0.02644 0.48495 0.0
H1492 H 0.46384 0.00797 0.52554 0.0
H1493 H 0.48503 0.01454 0.5274 0.0
C1494 C 0.48715 0.03058 0.00393 0.0
C1495 C 0.47514 0.02301 0.9943 0.0
C1496 C 0.49524 0.02633 0.00405 0.0
C1497 C 0.49976 1.00181 0.96989 0.0
H1498 H 0.52125 0.01009 0.05106 0.0
C1499 C 0.52851 0.9794 0.99343 0.0
C1500 C 0.5404 0.98697 0.00431 0.0
C1501 C 0.52032 0.98352 0.99294 0.0
C1502 C 0.5154 0.00777 0.028 0.0
H1503 H 0.46236 1.00513 0.97605 0.0
H1504 H 0.47638 0.9978 0.9763 0.0
H1505 H 0.50798 0.01834 0.04673 0.0
H1506 H 0.55283 1.00476 0.02408 0.0
H1507 H 0.53869 0.01189 0.02293 0.0
H1508 H 0.50722 0.99127 0.95109 0.0
C1509 C 0.4796 0.00702 0.98363 0.0
C1510 C 0.5078 0.01254 0.02547 0.0
C1511 C 0.47153 0.01124 0.98367 0.0
C1512 C 0.54377 0.99864 0.01554 0.0
C1513 C 0.53561 1.00273 0.01509 0.0
C1514 C 0.50739 0.99705 0.97238 0.0
C1515 C 0.49152 0.01444 0.99432 0.0
C1516 C 0.49988 0.00963 0.99638 0.0
C1517 C 0.5238 0.99529 0.00343 0.0
C1518 C 0.51533 0.99998 1.00143 0.0
H1519 H 0.49024 0.03969 0.01229 0.0
H1520 H 0.5044 0.03234 0.01197 0.0
H1521 H 0.49388 0.99947 0.9469 0.0
H1522 H 0.5256 0.97037 0.98459 0.0
H1523 H 0.51125 0.97748 0.98425 0.0
C1524 C 0.01516 0.5481 0.02043 0.0
C1525 C 0.02653 0.55629 0.00683 0.0
C1526 C 0.01097 0.53582 0.01987 0.0
C1527 C 0.02042 0.51318 0.01082 0.0
H1528 H 0.98731 0.49241 0.98368 0.0
C1529 C 1.00174 0.46307 0.98271 0.0
C1530 C 0.99032 0.45491 0.99603 0.0
C1531 C 1.00597 0.47535 0.98316 0.0
C1532 C 0.99654 0.49805 0.99171 0.0
H1533 H 0.04255 0.5579 0.98289 0.0
H1534 H 0.03521 0.5364 0.98178 0.0
H1535 H 0.99534 0.51393 0.98708 0.0
H1536 H 0.97426 0.45336 0.01942 0.0
H1537 H 0.98166 0.47487 0.02043 0.0
H1538 H 0.02161 0.4973 0.01549 0.0
C1539 C 0.02956 0.53953 0.99311 0.0
C1540 C 1.00116 0.51041 0.99367 0.0
C1541 C 0.03377 0.55187 0.9937 0.0
C1542 C 0.98307 0.45937 0.00882 0.0
C1543 C 0.98733 0.47172 0.00934 0.0
C1544 C 0.01579 0.50081 0.00887 0.0
C1545 C 0.01801 0.53133 0.00564 0.0
C1546 C 0.01316 0.51815 0.00331 0.0
C1547 C 0.99892 0.47988 0.99704 0.0
C1548 C 1.00379 0.49307 0.99925 0.0
H1549 H 0.00934 0.55114 0.03106 0.0
H1550 H 1.00216 0.52983 0.03051 0.0
H1551 H 0.02964 0.51882 0.01882 0.0
H1552 H 1.00756 0.45998 0.97235 0.0
H1553 H 0.01482 0.48131 0.9727 0.0
C1554 C 0.46239 0.48367 0.99273 0.0
C1555 C 0.45805 0.4719 0.00481 0.0
C1556 C 0.47471 0.49187 0.99227 0.0
C1557 C 0.504 0.49289 0.99172 0.0
H1558 H 0.51677 0.52619 0.01644 0.0
C1559 C 0.55492 0.52609 0.00888 0.0
C1560 C 0.55932 0.53787 0.99678 0.0
C1561 C 0.5426 0.51791 0.00904 0.0
C1562 C 0.51335 0.51694 0.00903 0.0
H1563 H 0.46334 0.45972 0.02722 0.0
H1564 H 0.48461 0.47397 0.02695 0.0
H1565 H 0.49527 0.51252 0.01903 0.0
H1566 H 0.55412 0.55008 0.97404 0.0
H1567 H 0.53284 0.53586 0.97385 0.0
H1568 H 0.52208 0.49731 0.98176 0.0
C1569 C 0.47857 0.47683 0.017 0.0
C1570 C 0.501 0.50909 0.01053 0.0
C1571 C 0.46632 0.46867 0.0174 0.0
C1572 C 0.5511 0.54112 0.98386 0.0
C1573 C 0.53884 0.53298 0.98399 0.0
C1574 C 0.51635 0.50073 0.99024 0.0
C1575 C 0.48298 0.48849 0.00391 0.0
C1576 C 0.49614 0.49695 0.00196 0.0
C1577 C 0.53438 0.52131 0.9971 0.0
C1578 C 0.52121 0.51288 0.99884 0.0
H1579 H 0.4563 0.48646 0.98271 0.0
H1580 H 0.47777 0.50075 0.9818 0.0
H1581 H 0.50059 0.48364 0.98431 0.0
H1582 H 0.56097 0.52328 0.01915 0.0
H1583 H 0.53949 0.50902 0.01953 0.0
C1584 C 0.44264 0.06842 0.01158 0.0
C1585 C 0.45276 0.06895 0.02758 0.0
C1586 C 0.4384 0.07592 0.02334 0.0
C1587 C 0.43354 0.09596 0.04498 0.0
H1588 H 0.43231 0.09858 0.14849 0.0
C1589 C 0.41364 0.12273 0.10952 0.0
C1590 C 0.40532 0.11688 0.13725 0.0
C1591 C 0.42107 0.11844 0.09759 0.0
C1592 C 0.43258 0.09794 0.11955 0.0
H1593 H 0.46673 0.07834 0.06707 0.0
H1594 H 0.45941 0.09146 0.0872 0.0
H1595 H 0.4421 0.08835 0.12254 0.0
H1596 H 0.39886 0.10233 0.17559 0.0
H1597 H 0.41189 0.09492 0.155 0.0
H1598 H 0.42372 0.10523 0.04201 0.0
C1599 C 0.45464 0.08511 0.06598 0.0
C1600 C 0.43831 0.09218 0.10461 0.0
C1601 C 0.45891 0.07765 0.05413 0.0
C1602 C 0.40519 0.1071 0.1543 0.0
C1603 C 0.41267 0.10283 0.14244 0.0
C1604 C 0.42788 0.10178 0.05991 0.0
C1605 C 0.44413 0.08411 0.05147 0.0
C1606 C 0.43876 0.091 0.06713 0.0
C1607 C 0.42043 0.10822 0.11315 0.0
C1608 C 0.42721 0.10274 0.09741 0.0
H1609 H 0.43763 0.0618 0.99121 0.0
H1610 H 0.43025 0.07486 0.01163 0.0
H1611 H 0.43377 0.09528 0.01604 0.0
H1612 H 0.41402 0.13029 0.09575 0.0
H1613 H 0.42711 0.12295 0.07546 0.0
C1614 C 0.89067 0.29332 0.10755 0.0
C1615 C 0.89656 0.2908 0.13504 0.0
C1616 C 0.89492 0.30506 0.09588 0.0
C1617 C 0.91547 0.33704 0.11841 0.0
H1618 H 0.91777 0.34118 0.01497 0.0
C1619 C 0.93583 0.38391 0.05469 0.0
C1620 C 0.94437 0.38648 0.0276 0.0
C1621 C 0.92833 0.37215 0.06621 0.0
C1622 C 0.9172 0.3402 0.0439 0.0
H1623 H 0.91116 0.29882 0.17324 0.0
H1624 H 0.91851 0.3193 0.1531 0.0
H1625 H 0.90789 0.32111 0.04046 0.0
H1626 H 0.95118 0.37855 0.98994 0.0
H1627 H 0.93807 0.35805 0.00984 0.0
H1628 H 0.92512 0.35614 0.12186 0.0
C1629 C 0.91058 0.31218 0.14053 0.0
C1630 C 0.91141 0.32867 0.05857 0.0
C1631 C 0.90635 0.30042 0.15213 0.0
C1632 C 0.94468 0.37691 0.01073 0.0
C1633 C 0.93715 0.36512 0.0222 0.0
C1634 C 0.92121 0.34857 0.10374 0.0
C1635 C 0.90515 0.31462 0.11148 0.0
C1636 C 0.91058 0.32693 0.09604 0.0
C1637 C 0.92914 0.36263 0.05089 0.0
C1638 C 0.92227 0.35032 0.06628 0.0
H1639 H 0.8831 0.28616 0.09376 0.0
H1640 H 0.89036 0.30662 0.07395 0.0
H1641 H 0.91494 0.33606 0.14734 0.0
H1642 H 0.93531 0.39104 0.06828 0.0
H1643 H 0.92211 0.37054 0.08785 0.0
C1644 C 0.72064 0.60046 0.11387 0.0
C1645 C 0.72311 0.609 0.14088 0.0
C1646 C 0.70891 0.59292 0.10209 0.0
C1647 C 0.67688 0.58166 0.12347 0.0
H1648 H 0.67305 0.57937 0.01993 0.0
C1649 C 0.63022 0.55484 0.05861 0.0
C1650 C 0.62772 0.56066 0.03086 0.0
C1651 C 0.64194 0.55918 0.07065 0.0
C1652 C 0.67395 0.57991 0.04888 0.0
H1653 H 0.71502 0.61576 0.17814 0.0
H1654 H 0.69459 0.60257 0.15781 0.0
H1655 H 0.69305 0.58965 0.04594 0.0
H1656 H 0.63577 0.57525 0.99263 0.0
H1657 H 0.6562 0.58277 0.01343 0.0
H1658 H 0.65778 0.57225 0.12639 0.0
C1659 C 0.70172 0.60169 0.1457 0.0
C1660 C 0.68544 0.5857 0.06386 0.0
C1661 C 0.71346 0.60926 0.15743 0.0
C1662 C 0.63735 0.57049 0.01392 0.0
C1663 C 0.64909 0.57482 0.02591 0.0
C1664 C 0.6654 0.57581 0.10849 0.0
C1665 C 0.69933 0.59368 0.11707 0.0
C1666 C 0.68707 0.58677 0.10136 0.0
C1667 C 0.6515 0.56945 0.05519 0.0
C1668 C 0.66377 0.57496 0.07098 0.0
H1669 H 0.72782 0.59997 0.1005 0.0
H1670 H 0.70739 0.5867 0.0805 0.0
H1671 H 0.67778 0.58223 0.15242 0.0
H1672 H 0.62305 0.54724 0.07229 0.0
H1673 H 0.64348 0.55467 0.09276 0.0
C1674 C 0.06995 0.43833 0.48899 0.0
C1675 C 0.07023 0.44821 0.47215 0.0
C1676 C 0.07755 0.43416 0.47761 0.0
C1677 C 0.09358 0.4337 0.39621 0.0
H1678 H 0.10706 0.4197 0.4595 0.0
C1679 C 0.12444 0.40937 0.3924 0.0
C1680 C 0.11856 0.4009 0.36507 0.0
C1681 C 0.12012 0.4168 0.404 0.0
C1682 C 0.10348 0.4237 0.44139 0.0
H1683 H 0.07933 0.46191 0.43167 0.0
H1684 H 0.09263 0.45474 0.41226 0.0
H1685 H 0.09706 0.42978 0.48499 0.0
H1686 H 0.1039 0.39415 0.32706 0.0
H1687 H 0.09642 0.40717 0.34708 0.0
H1688 H 0.0999 0.42752 0.35261 0.0
C1689 C 0.08638 0.45007 0.4338 0.0
C1690 C 0.09763 0.42937 0.45606 0.0
C1691 C 0.07882 0.45426 0.44524 0.0
C1692 C 0.1087 0.4006 0.34804 0.0
C1693 C 0.1044 0.40808 0.35958 0.0
C1694 C 0.09937 0.42797 0.38154 0.0
C1695 C 0.08559 0.43974 0.44905 0.0
C1696 C 0.09252 0.43437 0.43367 0.0
C1697 C 0.10982 0.41601 0.3885 0.0
C1698 C 0.10432 0.4228 0.40393 0.0
H1699 H 0.06341 0.43341 0.50964 0.0
H1700 H 0.07665 0.42616 0.48991 0.0
H1701 H 0.08962 0.43731 0.3781 0.0
H1702 H 0.13207 0.40988 0.40612 0.0
H1703 H 0.12467 0.42297 0.42584 0.0
C1704 C 0.60505 0.71743 0.38827 0.0
C1705 C 0.61359 0.71999 0.36118 0.0
C1706 C 0.59765 0.70569 0.40015 0.0
C1707 C 0.58668 0.67373 0.37892 0.0
H1708 H 0.58479 0.66997 0.48251 0.0
C1709 C 0.57617 0.63428 0.48801 0.0
C1710 C 0.56625 0.62464 0.47144 0.0
C1711 C 0.5804 0.64602 0.47614 0.0
C1712 C 0.58522 0.67085 0.45354 0.0
H1713 H 0.62048 0.71204 0.32385 0.0
H1714 H 0.60751 0.69157 0.34432 0.0
H1715 H 0.59485 0.68996 0.45634 0.0
H1716 H 0.55257 0.61994 0.43085 0.0
H1717 H 0.55985 0.64036 0.41055 0.0
H1718 H 0.57736 0.65462 0.37613 0.0
C1719 C 0.60653 0.69865 0.35643 0.0
C1720 C 0.59088 0.68232 0.43849 0.0
C1721 C 0.61398 0.71041 0.34462 0.0
C1722 C 0.56024 0.62712 0.44424 0.0
C1723 C 0.56449 0.63884 0.43229 0.0
C1724 C 0.58095 0.66225 0.39398 0.0
C1725 C 0.59855 0.69618 0.38516 0.0
C1726 C 0.5918 0.68393 0.40097 0.0
C1727 C 0.57484 0.64841 0.44732 0.0
C1728 C 0.58025 0.66065 0.4315 0.0
H1729 H 0.60447 0.72456 0.40164 0.0
H1730 H 0.59144 0.7041 0.42181 0.0
H1731 H 0.58715 0.67461 0.34996 0.0
H1732 H 0.58107 0.63272 0.50887 0.0
H1733 H 0.58841 0.65315 0.48828 0.0
C1734 C 0.29693 0.89079 0.3913 0.0
C1735 C 0.29436 0.8965 0.36339 0.0
C1736 C 0.30868 0.89524 0.40328 0.0
C1737 C 0.34062 0.91595 0.38116 0.0
H1738 H 0.34451 0.91878 0.48465 0.0
C1739 C 0.38724 0.93632 0.44678 0.0
C1740 C 0.3898 0.94503 0.47331 0.0
C1741 C 0.37552 0.9289 0.43483 0.0
C1742 C 0.34359 0.91806 0.45572 0.0
H1743 H 0.30229 0.91099 0.32482 0.0
H1744 H 0.32277 0.91868 0.34549 0.0
H1745 H 0.32449 0.90868 0.45872 0.0
H1746 H 0.38186 0.95226 0.50945 0.0
H1747 H 0.36141 0.93925 0.48887 0.0
H1748 H 0.35972 0.92562 0.37815 0.0
C1749 C 0.3157 0.91075 0.35815 0.0
C1750 C 0.3321 0.91215 0.44081 0.0
C1751 C 0.30393 0.90632 0.34624 0.0
C1752 C 0.38023 0.94562 0.48912 0.0
C1753 C 0.36848 0.93815 0.47726 0.0
C1754 C 0.35211 0.92179 0.39609 0.0
C1755 C 0.31818 0.90549 0.38759 0.0
C1756 C 0.33045 0.91111 0.40331 0.0
C1757 C 0.36602 0.92994 0.4492 0.0
C1758 C 0.35376 0.92303 0.43356 0.0
H1759 H 0.28981 0.8832 0.40514 0.0
H1760 H 0.31028 0.89082 0.42552 0.0
H1761 H 0.3397 0.91526 0.35222 0.0
H1762 H 0.39437 0.93559 0.43397 0.0
H1763 H 0.37393 0.92253 0.41366 0.0
C1764 C 0.5569 0.93251 0.94642 0.0
C1765 C 0.5628 0.94096 0.97378 0.0
C1766 C 0.56116 0.925 0.93495 0.0
C1767 C 0.5777 0.91794 0.89783 0.0
H1768 H 0.5915 0.90431 0.96133 0.0
C1769 C 0.61115 0.90321 0.85035 0.0
C1770 C 0.61087 0.89334 0.86723 0.0
C1771 C 0.60358 0.9074 0.86177 0.0
C1772 C 0.58756 0.90792 0.94316 0.0
H1773 H 0.57739 0.94761 0.01198 0.0
H1774 H 0.58477 0.93448 0.99217 0.0
H1775 H 0.58124 0.91415 0.98666 0.0
H1776 H 0.60183 0.87969 0.90788 0.0
H1777 H 0.58856 0.8869 0.92736 0.0
H1778 H 0.58411 0.91181 0.85433 0.0
C1779 C 0.57683 0.93363 0.97955 0.0
C1780 C 0.58179 0.91369 0.95774 0.0
C1781 C 0.57259 0.94117 0.99097 0.0
C1782 C 0.60232 0.88733 0.89427 0.0
C1783 C 0.59478 0.89154 0.90575 0.0
C1784 C 0.58353 0.91224 0.88325 0.0
C1785 C 0.5714 0.92572 0.95061 0.0
C1786 C 0.57686 0.91886 0.93528 0.0
C1787 C 0.59556 0.90185 0.8904 0.0
C1788 C 0.58863 0.90724 0.90571 0.0
H1789 H 0.54932 0.93206 0.93258 0.0
H1790 H 0.55661 0.91885 0.9131 0.0
H1791 H 0.57416 0.92195 0.87966 0.0
H1792 H 0.61766 0.9081 0.82959 0.0
H1793 H 0.60447 0.91539 0.8494 0.0
C1794 C 0.10966 0.71047 0.84755 0.0
C1795 C 0.1196 0.72009 0.86409 0.0
C1796 C 0.1055 0.69871 0.85911 0.0
C1797 C 0.10529 0.68234 0.94061 0.0
H1798 H 0.09087 0.65474 0.87788 0.0
C1799 C 0.07219 0.63428 0.99022 0.0
C1800 C 0.07227 0.62463 0.97309 0.0
C1801 C 0.07968 0.64602 0.97836 0.0
C1802 C 0.09499 0.66234 0.89583 0.0
H1803 H 0.13342 0.72474 0.90419 0.0
H1804 H 0.12628 0.70429 0.92388 0.0
H1805 H 0.10095 0.67477 0.852 0.0
H1806 H 0.08091 0.6199 0.93148 0.0
H1807 H 0.09404 0.64033 0.91123 0.0
H1808 H 0.09923 0.66992 0.98445 0.0
C1809 C 0.12155 0.70584 0.90246 0.0
C1810 C 0.10066 0.67384 0.88095 0.0
C1811 C 0.12573 0.71758 0.89085 0.0
C1812 C 0.08056 0.62709 0.94529 0.0
C1813 C 0.08802 0.63881 0.93339 0.0
C1814 C 0.09956 0.67084 0.9555 0.0
C1815 C 0.11116 0.69628 0.88753 0.0
C1816 C 0.10581 0.68401 0.90313 0.0
C1817 C 0.08743 0.6484 0.94902 0.0
C1818 C 0.09424 0.66068 0.93333 0.0
H1819 H 0.10468 0.71206 0.82703 0.0
H1820 H 0.09745 0.6916 0.84705 0.0
H1821 H 0.10901 0.68994 0.95859 0.0
H1822 H 0.06588 0.63273 0.01156 0.0
H1823 H 0.07893 0.65316 0.99098 0.0
C1824 C 0.38709 0.45598 0.94897 0.0
C1825 C 0.38958 0.45003 0.97636 0.0
C1826 C 0.37535 0.45177 0.93732 0.0
C1827 C 0.35179 0.43533 0.89977 0.0
H1828 H 0.32424 0.42151 0.96274 0.0
C1829 C 0.30362 0.40222 0.85102 0.0
C1830 C 0.29403 0.40253 0.86774 0.0
C1831 C 0.31538 0.40968 0.86281 0.0
C1832 C 0.33183 0.42546 0.94471 0.0
H1833 H 0.38152 0.43541 0.01444 0.0
H1834 H 0.36106 0.42812 0.99433 0.0
H1835 H 0.34429 0.43167 0.98846 0.0
H1836 H 0.28943 0.41151 0.90858 0.0
H1837 H 0.30989 0.42459 0.92868 0.0
H1838 H 0.33933 0.42904 0.85602 0.0
C1839 C 0.36819 0.43606 0.98182 0.0
C1840 C 0.34334 0.43117 0.95951 0.0
C1841 C 0.37995 0.44025 0.99343 0.0
C1842 C 0.29657 0.41099 0.89508 0.0
C1843 C 0.30831 0.41842 0.90691 0.0
C1844 C 0.34028 0.42956 0.88497 0.0
C1845 C 0.36577 0.44153 0.95282 0.0
C1846 C 0.35349 0.43611 0.93726 0.0
C1847 C 0.31784 0.41762 0.89166 0.0
C1848 C 0.33013 0.42445 0.90722 0.0
H1849 H 0.39426 0.46355 0.93521 0.0
H1850 H 0.37381 0.45635 0.91544 0.0
H1851 H 0.35937 0.43888 0.88174 0.0
H1852 H 0.30201 0.39578 0.83006 0.0
H1853 H 0.32247 0.40876 0.8505 0.0
C1854 C 0.89284 0.60147 0.60936 0.0
C1855 C 0.89873 0.6099 0.63679 0.0
C1856 C 0.89719 0.59408 0.5975 0.0
C1857 C 0.91787 0.58282 0.61946 0.0
H1858 H 0.92037 0.58138 0.51596 0.0
C1859 C 0.94732 0.57255 0.51196 0.0
C1860 C 0.9468 0.56249 0.52827 0.0
C1861 C 0.9398 0.5768 0.52343 0.0
C1862 C 0.91974 0.58169 0.5449 0.0
H1863 H 0.91341 0.61662 0.6747 0.0
H1864 H 0.92092 0.60366 0.65428 0.0
H1865 H 0.91041 0.59145 0.54178 0.0
H1866 H 0.93738 0.54856 0.56791 0.0
H1867 H 0.92422 0.55589 0.58753 0.0
H1868 H 0.9275 0.57335 0.6226 0.0
C1869 C 0.91293 0.60276 0.64188 0.0
C1870 C 0.91391 0.58736 0.55975 0.0
C1871 C 0.90861 0.6102 0.65365 0.0
C1872 C 0.93806 0.55635 0.55474 0.0
C1873 C 0.93059 0.56063 0.5663 0.0
C1874 C 0.92363 0.57708 0.60461 0.0
C1875 C 0.9075 0.59487 0.61287 0.0
C1876 C 0.91301 0.58811 0.59724 0.0
C1877 C 0.9316 0.57112 0.55159 0.0
C1878 C 0.92475 0.57654 0.56713 0.0
H1879 H 0.8852 0.60096 0.59575 0.0
H1880 H 0.89265 0.58795 0.57559 0.0
H1881 H 0.91729 0.58317 0.6484 0.0
H1882 H 0.95398 0.57754 0.49165 0.0
H1883 H 0.94086 0.58493 0.51155 0.0
C1884 C 0.44171 0.37731 0.51831 0.0
C1885 C 0.45162 0.3869 0.53507 0.0
C1886 C 0.43738 0.36555 0.53021 0.0
C1887 C 0.43241 0.34067 0.55273 0.0
H1888 H 0.43012 0.33674 0.65624 0.0
C1889 C 0.41237 0.29399 0.61742 0.0
C1890 C 0.40372 0.29138 0.6442 0.0
C1891 C 0.4198 0.30575 0.60577 0.0
C1892 C 0.43069 0.33767 0.6273 0.0
H1893 H 0.46515 0.39151 0.57611 0.0
H1894 H 0.45768 0.37106 0.59647 0.0
H1895 H 0.44002 0.35677 0.63037 0.0
H1896 H 0.39668 0.29926 0.68127 0.0
H1897 H 0.40973 0.31977 0.66121 0.0
H1898 H 0.42279 0.32157 0.54964 0.0
C1899 C 0.45313 0.37263 0.57454 0.0
C1900 C 0.43648 0.34917 0.61241 0.0
C1901 C 0.45749 0.38436 0.56257 0.0
C1902 C 0.40327 0.30093 0.66072 0.0
C1903 C 0.41075 0.31271 0.64915 0.0
C1904 C 0.42669 0.32917 0.56761 0.0
C1905 C 0.44281 0.36311 0.55924 0.0
C1906 C 0.43732 0.35083 0.57491 0.0
C1907 C 0.41884 0.31523 0.6207 0.0
C1908 C 0.42565 0.32751 0.6051 0.0
H1909 H 0.43692 0.37892 0.49721 0.0
H1910 H 0.42938 0.35846 0.51785 0.0
H1911 H 0.43295 0.3416 0.52378 0.0
H1912 H 0.413 0.28689 0.60408 0.0
H1913 H 0.42609 0.30738 0.58432 0.0
C1914 C 0.63703 0.06699 0.51525 0.0
C1915 C 0.62741 0.0672 0.53218 0.0
C1916 C 0.64879 0.07453 0.52688 0.0
C1917 C 0.67365 0.09451 0.54912 0.0
H1918 H 0.67763 0.09641 0.65262 0.0
C1919 C 0.72038 0.12121 0.61358 0.0
C1920 C 0.72294 0.11529 0.64087 0.0
C1921 C 0.70863 0.11687 0.60177 0.0
C1922 C 0.67669 0.09598 0.62367 0.0
H1923 H 0.62277 0.07612 0.57312 0.0
H1924 H 0.64322 0.08932 0.59296 0.0
H1925 H 0.6576 0.0862 0.62686 0.0
H1926 H 0.715 0.10054 0.67854 0.0
H1927 H 0.69453 0.09302 0.65814 0.0
H1928 H 0.69275 0.10397 0.54593 0.0
C1929 C 0.64167 0.08317 0.57115 0.0
C1930 C 0.66519 0.09023 0.60885 0.0
C1931 C 0.62993 0.07567 0.55947 0.0
C1932 C 0.71337 0.10536 0.6576 0.0
C1933 C 0.7016 0.10104 0.64584 0.0
C1934 C 0.68516 0.10032 0.56394 0.0
C1935 C 0.65122 0.08245 0.55579 0.0
C1936 C 0.6635 0.0893 0.57136 0.0
C1937 C 0.69913 0.10652 0.61701 0.0
C1938 C 0.68684 0.10103 0.60143 0.0
H1939 H 0.63544 0.06054 0.49432 0.0
H1940 H 0.6559 0.07368 0.51448 0.0
H1941 H 0.6727 0.09405 0.52017 0.0
H1942 H 0.72751 0.1289 0.60009 0.0
H1943 H 0.70704 0.12146 0.58001 0.0
C1944 C 0.74698 0.78898 0.77851 0.0
C1945 C 0.73847 0.78303 0.8057 0.0
C1946 C 0.75446 0.78471 0.76696 0.0
C1947 C 0.76153 0.76821 0.72951 0.0
H1948 H 0.77495 0.75417 0.79286 0.0
C1949 C 0.7763 0.73483 0.68148 0.0
C1950 C 0.78612 0.73504 0.6985 0.0
C1951 C 0.77209 0.74238 0.69301 0.0
C1952 C 0.7714 0.75818 0.77473 0.0
H1953 H 0.7317 0.76832 0.8435 0.0
H1954 H 0.74479 0.76092 0.82354 0.0
H1955 H 0.76511 0.7644 0.81831 0.0
H1956 H 0.79966 0.74395 0.73952 0.0
H1957 H 0.79242 0.75718 0.75918 0.0
H1958 H 0.76773 0.7619 0.68594 0.0
C1959 C 0.7457 0.76891 0.81113 0.0
C1960 C 0.76563 0.76394 0.78938 0.0
C1961 C 0.73818 0.77316 0.82263 0.0
C1962 C 0.79206 0.7435 0.72581 0.0
C1963 C 0.78783 0.75102 0.73739 0.0
C1964 C 0.76724 0.7624 0.71487 0.0
C1965 C 0.75367 0.7744 0.78236 0.0
C1966 C 0.76053 0.76895 0.76698 0.0
C1967 C 0.77757 0.75032 0.72188 0.0
C1968 C 0.77217 0.75721 0.73727 0.0
H1969 H 0.74749 0.79662 0.76486 0.0
H1970 H 0.76066 0.78931 0.74524 0.0
H1971 H 0.75758 0.77183 0.71139 0.0
H1972 H 0.77146 0.72839 0.66052 0.0
H1973 H 0.76414 0.74154 0.68051 0.0
C1974 C 0.24142 0.96785 0.8252 0.0
C1975 C 0.23118 0.95834 0.80943 0.0
C1976 C 0.24579 0.97962 0.81341 0.0
C1977 C 0.24591 0.99597 0.73207 0.0
H1978 H 0.26107 0.02374 0.79403 0.0
C1979 C 0.27117 0.05121 0.72601 0.0
C1980 C 0.27939 0.05354 0.6981 0.0
C1981 C 0.26367 0.03953 0.73822 0.0
C1982 C 0.25676 0.01609 0.7763 0.0
H1983 H 0.2171 0.95393 0.77043 0.0
H1984 H 0.22464 0.97441 0.75027 0.0
H1985 H 0.25086 1.00378 0.82045 0.0
H1986 H 0.2856 0.04525 0.6597 0.0
H1987 H 0.27245 0.02488 0.68074 0.0
H1988 H 0.25192 0.00828 0.68791 0.0
C1989 C 0.22941 0.97275 0.77131 0.0
C1990 C 0.251 1.00463 0.79149 0.0
C1991 C 0.22502 0.961 0.78319 0.0
C1992 C 0.27935 0.0438 0.68111 0.0
C1993 C 0.2718 0.0321 0.69325 0.0
C1994 C 0.25173 0.00742 0.71687 0.0
C1995 C 0.24005 0.98216 0.78547 0.0
C1996 C 0.24557 0.99441 0.76958 0.0
C1997 C 0.26415 0.02986 0.72274 0.0
C1998 C 0.25731 0.01764 0.73877 0.0
H1999 H 0.24644 0.96614 0.84531 0.0
H2000 H 0.25403 0.98663 0.82486 0.0
H2001 H 0.24195 0.98831 0.71431 0.0
H2002 H 0.27092 0.05847 0.73973 0.0
H2003 H 0.25772 0.03812 0.7605 0.0
C2004 C 0.0536 0.26763 0.77987 0.0
C2005 C 0.05606 0.27611 0.80705 0.0
C2006 C 0.04188 0.26009 0.76809 0.0
C2007 C 0.0184 0.25292 0.72998 0.0
H2008 H 0.99074 0.23953 0.79249 0.0
C2009 C 0.97042 0.23824 0.68024 0.0
C2010 C 0.96072 0.22852 0.69732 0.0
C2011 C 0.98215 0.24238 0.69207 0.0
C2012 C 0.99835 0.24307 0.77458 0.0
H2013 H 0.04796 0.28276 0.84464 0.0
H2014 H 0.02753 0.26959 0.82429 0.0
H2015 H 0.01073 0.24935 0.81853 0.0
H2016 H 0.95589 0.21505 0.73869 0.0
H2017 H 0.97629 0.22214 0.75883 0.0
H2018 H 1.00602 0.24671 0.68603 0.0
C2019 C 0.03467 0.26874 0.81205 0.0
C2020 C 0.00984 0.24883 0.78957 0.0
C2021 C 0.04641 0.27631 0.82379 0.0
C2022 C 0.96312 0.22258 0.72493 0.0
C2023 C 0.97483 0.22673 0.73679 0.0
C2024 C 1.00691 0.24721 0.71498 0.0
C2025 C 0.03229 0.2608 0.78323 0.0
C2026 C 0.02002 0.25393 0.76749 0.0
C2027 C 0.98447 0.23692 0.72129 0.0
C2028 C 0.99673 0.24229 0.73707 0.0
H2029 H 0.06079 0.26719 0.76636 0.0
H2030 H 0.04037 0.25392 0.74636 0.0
H2031 H 0.02601 0.25686 0.71207 0.0
H2032 H 0.96892 0.24308 0.65905 0.0
H2033 H 0.98932 0.25027 0.67955 0.0
C2034 C 0.27077 0.22237 0.22986 0.0
C2035 C 0.27896 0.22819 0.20183 0.0
C2036 C 0.26335 0.22663 0.24207 0.0
C2037 C 0.25165 0.247 0.22046 0.0
H2038 H 0.2507 0.24975 0.32401 0.0
C2039 C 0.22548 0.26737 0.28608 0.0
C2040 C 0.23168 0.27611 0.31249 0.0
C2041 C 0.22969 0.25986 0.27436 0.0
C2042 C 0.25087 0.24905 0.29506 0.0
H2043 H 0.28522 0.24266 0.16327 0.0
H2044 H 0.27222 0.25003 0.18436 0.0
H2045 H 0.26075 0.23983 0.29776 0.0
H2046 H 0.2468 0.28324 0.34885 0.0
H2047 H 0.2541 0.27009 0.32864 0.0
H2048 H 0.24208 0.25655 0.21772 0.0
C2049 C 0.27152 0.24216 0.19694 0.0
C2050 C 0.25652 0.24325 0.27996 0.0
C2051 C 0.27899 0.23791 0.18478 0.0
C2052 C 0.24175 0.27659 0.3286 0.0
C2053 C 0.24595 0.26904 0.31694 0.0
C2054 C 0.24593 0.25275 0.23556 0.0
C2055 C 0.26388 0.2368 0.22649 0.0
C2056 C 0.2571 0.24225 0.24244 0.0
C2057 C 0.2402 0.26084 0.28883 0.0
C2058 C 0.24557 0.25397 0.27306 0.0
H2059 H 0.27048 0.21484 0.24362 0.0
H2060 H 0.2574 0.22214 0.2644 0.0
H2061 H 0.25185 0.24634 0.19151 0.0
H2062 H 0.21767 0.26671 0.27308 0.0
H2063 H 0.22489 0.25349 0.2532 0.0
C2064 C 0.73737 0.96741 0.32246 0.0
C2065 C 0.7371 0.95759 0.30527 0.0
C2066 C 0.74492 0.97907 0.31001 0.0
C2067 C 0.75953 0.99486 0.22619 0.0
H2068 H 0.77486 0.02273 0.28769 0.0
C2069 C 0.77485 0.04306 0.17702 0.0
C2070 C 0.78516 0.05257 0.19242 0.0
C2071 C 0.77051 0.0313 0.18888 0.0
C2072 C 0.77076 0.01505 0.27005 0.0
H2073 H 0.74516 0.95246 0.2629 0.0
H2074 H 0.75837 0.97274 0.2416 0.0
H2075 H 0.76494 1.00282 0.31439 0.0
H2076 H 0.79942 0.05701 0.23079 0.0
H2077 H 0.79194 0.03655 0.25105 0.0
H2078 H 0.76524 0.00709 0.18188 0.0
C2079 C 0.7526 0.97142 0.26429 0.0
C2080 C 0.76495 1.00362 0.28543 0.0
C2081 C 0.7451 0.95979 0.27679 0.0
C2082 C 0.79144 0.04993 0.21832 0.0
C2083 C 0.78708 0.0382 0.23027 0.0
C2084 C 0.76526 0.00629 0.21083 0.0
C2085 C 0.75235 0.98119 0.28 0.0
C2086 C 0.75918 0.99337 0.26373 0.0
C2087 C 0.77636 0.02877 0.21652 0.0
C2088 C 0.77089 0.01655 0.23255 0.0
H2089 H 0.7313 0.96606 0.34431 0.0
H2090 H 0.74445 0.98636 0.32272 0.0
H2091 H 0.75506 0.98719 0.20862 0.0
H2092 H 0.76975 0.04475 0.15717 0.0
H2093 H 0.76221 0.02429 0.17774 0.0
C2094 C 0.04677 0.77306 0.32123 0.0
C2095 C 0.05644 0.78283 0.30423 0.0
C2096 C 0.03504 0.76881 0.30925 0.0
C2097 C 0.01879 0.76797 0.22665 0.0
H2098 H 0.99114 0.75417 0.28922 0.0
C2099 C 0.97072 0.73471 0.1775 0.0
C2100 C 0.96107 0.73492 0.19424 0.0
C2101 C 0.98246 0.74227 0.18925 0.0
C2102 C 0.99875 0.75811 0.27129 0.0
H2103 H 0.06121 0.79625 0.26271 0.0
H2104 H 0.0408 0.78896 0.24229 0.0
H2105 H 0.01114 0.76436 0.31522 0.0
H2106 H 0.95636 0.74384 0.23494 0.0
H2107 H 0.97679 0.7571 0.25495 0.0
H2108 H 1.0064 0.76164 0.18272 0.0
C2109 C 0.04229 0.78443 0.26442 0.0
C2110 C 0.01024 0.76385 0.28626 0.0
C2111 C 0.054 0.78869 0.27643 0.0
C2112 C 0.96354 0.7434 0.22144 0.0
C2113 C 0.97527 0.75093 0.23322 0.0
C2114 C 1.0073 0.76218 0.21168 0.0
C2115 C 0.03269 0.77422 0.27993 0.0
C2116 C 0.02042 0.76877 0.26416 0.0
C2117 C 0.98485 0.7502 0.21807 0.0
C2118 C 0.99712 0.75708 0.23378 0.0
H2119 H 0.0483 0.76828 0.34256 0.0
H2120 H 0.0279 0.7609 0.32178 0.0
H2121 H 0.0264 0.77152 0.20873 0.0
H2122 H 0.96916 0.72825 0.15664 0.0
H2123 H 0.98959 0.74141 0.17701 0.0
C2124 C 0.36367 0.09746 0.03338 0.0
C2125 C 0.35579 0.09336 0.06276 0.0
C2126 C 0.3599 0.09238 0.99952 0.0
C2127 C 0.33303 0.07859 0.94596 0.0
H2128 H 0.35318 0.07484 0.87612 0.0
C2129 C 0.31952 0.07157 0.79856 0.0
C2130 C 0.32858 0.07865 0.77408 0.0
C2131 C 0.32233 0.06998 0.83349 0.0
C2132 C 0.34746 0.07587 0.89527 0.0
H2133 H 0.33795 0.08029 0.08013 0.0
H2134 H 0.33124 0.07145 0.02039 0.0
H2135 H 0.359 0.07794 0.93942 0.0
H2136 H 0.34769 0.08908 0.76601 0.0
H2137 H 0.35269 0.08676 0.82774 0.0
H2138 H 0.32186 0.07725 0.90208 0.0
C2139 C 0.34036 0.07864 0.0238 0.0
C2140 C 0.35076 0.07758 0.93151 0.0
C2141 C 0.34419 0.08366 0.05793 0.0
C2142 C 0.34056 0.08357 0.78446 0.0
C2143 C 0.34339 0.08217 0.81979 0.0
C2144 C 0.32979 0.07698 0.90981 0.0
C2145 C 0.34812 0.08312 0.99413 0.0
C2146 C 0.34371 0.07924 0.95706 0.0
C2147 C 0.33428 0.07567 0.84503 0.0
C2148 C 0.33709 0.07586 0.88386 0.0
H2149 H 0.37272 0.10484 0.03631 0.0
H2150 H 0.36604 0.09612 0.97718 0.0
H2151 H 0.32752 0.08004 0.96488 0.0
H2152 H 0.3102 0.06749 0.79096 0.0
H2153 H 0.3151 0.06462 0.85182 0.0
C2154 C 0.9303 0.26362 0.05576 0.0
C2155 C 0.92047 0.26531 0.06036 0.0
C2156 C 0.93544 0.26496 0.02175 0.0
C2157 C 0.93651 0.27647 0.92945 0.0
H2158 H 0.93756 0.24827 0.90011 0.0
C2159 C 0.93085 0.26027 0.78253 0.0
C2160 C 0.93597 0.25339 0.77225 0.0
C2161 C 0.93222 0.26455 0.81777 0.0
C2162 C 0.93764 0.25638 0.90782 0.0
H2163 H 0.90886 0.27056 0.03365 0.0
H2164 H 0.91779 0.27286 0.97474 0.0
H2165 H 0.93455 0.25098 0.96284 0.0
H2166 H 0.94746 0.24655 0.78919 0.0
H2167 H 0.95027 0.25442 0.84992 0.0
H2168 H 0.93925 0.28169 0.87409 0.0
C2169 C 0.92155 0.2705 0.99716 0.0
C2170 C 0.9359 0.25792 0.94393 0.0
C2171 C 0.91635 0.26905 0.0309 0.0
C2172 C 0.94324 0.25167 0.79672 0.0
C2173 C 0.94479 0.25612 0.83156 0.0
C2174 C 0.93834 0.27497 0.89324 0.0
C2175 C 0.93095 0.26818 0.99199 0.0
C2176 C 0.93498 0.2678 0.95499 0.0
C2177 C 0.93888 0.26217 0.84304 0.0
C2178 C 0.93861 0.26474 0.88186 0.0
H2179 H 0.93369 0.26079 0.07802 0.0
H2180 H 0.94274 0.26317 0.01852 0.0
H2181 H 0.93595 0.28424 0.93732 0.0
H2182 H 0.92519 0.26169 0.7641 0.0
H2183 H 0.92747 0.26911 0.82568 0.0
C2184 C 0.75296 0.6697 0.05206 0.0
C2185 C 0.74827 0.65774 0.06232 0.0
C2186 C 0.75156 0.67251 0.01671 0.0
C2187 C 0.74679 0.65909 0.92648 0.0
H2188 H 0.74697 0.68796 0.89718 0.0
C2189 C 0.75309 0.67356 0.77847 0.0
C2190 C 0.76262 0.68526 0.77364 0.0
C2191 C 0.74812 0.66964 0.81262 0.0
C2192 C 0.74684 0.67982 0.90501 0.0
H2193 H 0.7375 0.63933 0.04515 0.0
H2194 H 0.73462 0.64418 0.98423 0.0
H2195 H 0.74397 0.68207 0.96042 0.0
H2196 H 0.77383 0.70225 0.8001 0.0
H2197 H 0.7652 0.69542 0.85927 0.0
H2198 H 0.74996 0.657 0.87137 0.0
C2199 C 0.73981 0.65143 0.00269 0.0
C2200 C 0.74518 0.67648 0.94121 0.0
C2201 C 0.74141 0.64865 0.03765 0.0
C2202 C 0.76659 0.69313 0.80303 0.0
C2203 C 0.76155 0.68927 0.83691 0.0
C2204 C 0.74834 0.66237 0.89036 0.0
C2205 C 0.74528 0.66339 0.99131 0.0
C2206 C 0.74544 0.66623 0.95252 0.0
C2207 C 0.75249 0.6774 0.8423 0.0
C2208 C 0.7487 0.67293 0.87937 0.0
H2209 H 0.7583 0.67686 0.07065 0.0
H2210 H 0.75597 0.68182 0.00888 0.0
H2211 H 0.74728 0.65127 0.93412 0.0
H2212 H 0.74983 0.66732 0.75626 0.0
H2213 H 0.74109 0.66045 0.81602 0.0
C2214 C 0.0854 0.3369 0.71892 0.0
C2215 C 0.08057 0.32495 0.72952 0.0
C2216 C 0.0839 0.33963 0.6836 0.0
C2217 C 0.07859 0.32582 0.59391 0.0
H2218 H 0.07954 0.35498 0.56373 0.0
C2219 C 0.08545 0.34004 0.44569 0.0
C2220 C 0.09518 0.35162 0.44086 0.0
C2221 C 0.08036 0.33625 0.47976 0.0
C2222 C 0.07918 0.34675 0.5718 0.0
H2223 H 0.06943 0.30652 0.71309 0.0
H2224 H 0.06634 0.31124 0.65223 0.0
H2225 H 0.07643 0.34926 0.6271 0.0
H2226 H 0.10663 0.36857 0.46721 0.0
H2227 H 0.09779 0.36198 0.52625 0.0
H2228 H 0.08167 0.32347 0.53893 0.0
C2229 C 0.07173 0.31853 0.67038 0.0
C2230 C 0.07747 0.34351 0.60808 0.0
C2231 C 0.07344 0.31582 0.7053 0.0
C2232 C 0.09923 0.35954 0.47015 0.0
C2233 C 0.09408 0.35581 0.50395 0.0
C2234 C 0.08021 0.32901 0.55772 0.0
C2235 C 0.07735 0.33045 0.65859 0.0
C2236 C 0.07748 0.33317 0.61971 0.0
C2237 C 0.0848 0.34404 0.50935 0.0
C2238 C 0.08086 0.33967 0.54642 0.0
H2239 H 0.09095 0.34408 0.73718 0.0
H2240 H 0.08843 0.34892 0.67544 0.0
H2241 H 0.07888 0.31791 0.60179 0.0
H2242 H 0.08211 0.33377 0.42356 0.0
H2243 H 0.07316 0.32714 0.48318 0.0
C2244 C 0.69704 0.76387 0.7001 0.0
C2245 C 0.68914 0.75974 0.7294 0.0
C2246 C 0.69327 0.75887 0.66613 0.0
C2247 C 0.66648 0.74546 0.61239 0.0
H2248 H 0.68645 0.74149 0.54243 0.0
C2249 C 0.65302 0.73872 0.46488 0.0
C2250 C 0.66213 0.74568 0.44038 0.0
C2251 C 0.65577 0.7371 0.49985 0.0
C2252 C 0.68079 0.74259 0.56161 0.0
H2253 H 0.67125 0.74672 0.74655 0.0
H2254 H 0.66454 0.73805 0.68663 0.0
H2255 H 0.69224 0.74443 0.60576 0.0
H2256 H 0.68126 0.75588 0.43237 0.0
H2257 H 0.68616 0.75352 0.49417 0.0
H2258 H 0.65539 0.74436 0.56854 0.0
C2259 C 0.67368 0.74517 0.69018 0.0
C2260 C 0.68406 0.7442 0.59786 0.0
C2261 C 0.67751 0.75011 0.7244 0.0
C2262 C 0.67409 0.75047 0.45083 0.0
C2263 C 0.67686 0.74905 0.48619 0.0
C2264 C 0.66326 0.74395 0.57623 0.0
C2265 C 0.68147 0.74969 0.66059 0.0
C2266 C 0.67707 0.74593 0.62346 0.0
C2267 C 0.66771 0.74264 0.51142 0.0
C2268 C 0.6705 0.74276 0.55023 0.0
H2269 H 0.70611 0.77121 0.70317 0.0
H2270 H 0.69944 0.76264 0.64385 0.0
H2271 H 0.66102 0.74697 0.63136 0.0
H2272 H 0.64371 0.73475 0.45723 0.0
H2273 H 0.6485 0.73182 0.51817 0.0
C2274 C 0.24925 0.93837 0.70084 0.0
C2275 C 0.2524 0.9323 0.72592 0.0
C2276 C 0.2534 0.93994 0.66563 0.0
C2277 C 0.27425 0.9364 0.60429 0.0
H2278 H 0.24933 0.92953 0.53451 0.0
C2279 C 0.26376 0.92809 0.44152 0.0
C2280 C 0.2668 0.91917 0.43659 0.0
C2281 C 0.26439 0.93286 0.47575 0.0
C2282 C 0.25649 0.93173 0.5535 0.0
H2283 H 0.26281 0.92362 0.73451 0.0
H2284 H 0.26971 0.92589 0.67234 0.0
H2285 H 0.24593 0.93181 0.59729 0.0
H2286 H 0.2737 0.90887 0.46288 0.0
H2287 H 0.27483 0.91718 0.52221 0.0
H2288 H 0.28451 0.93561 0.56023 0.0
C2289 C 0.26426 0.9297 0.68006 0.0
C2290 C 0.25456 0.93305 0.58962 0.0
C2291 C 0.26026 0.92833 0.71563 0.0
C2292 C 0.27117 0.91565 0.46593 0.0
C2293 C 0.27194 0.9205 0.49988 0.0
C2294 C 0.27614 0.93498 0.56809 0.0
C2295 C 0.2606 0.93524 0.6544 0.0
C2296 C 0.26332 0.93517 0.61561 0.0
C2297 C 0.26825 0.9289 0.50537 0.0
C2298 C 0.26717 0.93238 0.54248 0.0
H2299 H 0.24337 0.94173 0.70829 0.0
H2300 H 0.25068 0.94455 0.64694 0.0
H2301 H 0.28126 0.93823 0.62346 0.0
H2302 H 0.2604 0.93099 0.41935 0.0
H2303 H 0.26156 0.93938 0.47926 0.0
C2304 C 0.67499 0.92696 0.22261 0.0
C2305 C 0.68701 0.93235 0.23293 0.0
C2306 C 0.672 0.92823 0.18736 0.0
C2307 C 0.68568 0.93406 0.09738 0.0
H2308 H 0.65575 0.93148 0.06773 0.0
C2309 C 0.67127 0.92678 0.94922 0.0
C2310 C 0.65987 0.91677 0.9443 0.0
C2311 C 0.67494 0.93183 0.98339 0.0
C2312 C 0.66418 0.93228 0.07565 0.0
H2313 H 0.70527 0.94422 0.21612 0.0
H2314 H 0.70008 0.94689 0.15539 0.0
H2315 H 0.66154 0.93484 0.13102 0.0
H2316 H 0.64311 0.90471 0.9707 0.0
H2317 H 0.6495 0.91347 0.02991 0.0
H2318 H 0.68818 0.93118 0.04234 0.0
C2319 C 0.69295 0.94126 0.17369 0.0
C2320 C 0.66747 0.93415 0.11189 0.0
C2321 C 0.69593 0.93979 0.20854 0.0
C2322 C 0.652 0.91234 0.97368 0.0
C2323 C 0.65562 0.91744 0.00759 0.0
C2324 C 0.68244 0.93229 0.06124 0.0
C2325 C 0.681 0.93508 0.16215 0.0
C2326 C 0.67813 0.93475 0.12332 0.0
C2327 C 0.66721 0.92705 0.01303 0.0
C2328 C 0.67151 0.93106 0.05012 0.0
H2329 H 0.66798 0.92116 0.241 0.0
H2330 H 0.66271 0.92328 0.1794 0.0
H2331 H 0.69384 0.93424 0.10512 0.0
H2332 H 0.6775 0.93041 0.92703 0.0
H2333 H 0.68392 0.93928 0.98684 0.0
C2334 C 0.07845 0.76235 0.20331 0.0
C2335 C 0.08272 0.75876 0.23274 0.0
C2336 C 0.0773 0.7572 0.16964 0.0
C2337 C 0.07234 0.74237 0.10198 0.0
H2338 H 0.10182 0.74392 0.07256 0.0
C2339 C 0.08846 0.74898 0.95481 0.0
C2340 C 0.09602 0.74466 0.94442 0.0
C2341 C 0.08427 0.74745 0.9902 0.0
C2342 C 0.09337 0.74312 0.08029 0.0
H2343 H 0.08852 0.74651 0.25047 0.0
H2344 H 0.08668 0.73756 0.19105 0.0
H2345 H 0.09872 0.74651 0.13532 0.0
H2346 H 0.10423 0.73439 0.96143 0.0
H2347 H 0.09656 0.73127 0.02243 0.0
H2348 H 0.06714 0.7393 0.04664 0.0
C2349 C 0.08423 0.74439 0.19427 0.0
C2350 C 0.09161 0.74461 0.11642 0.0
C2351 C 0.08525 0.74947 0.22822 0.0
C2352 C 0.09859 0.73801 0.96902 0.0
C2353 C 0.09424 0.73628 0.00402 0.0
C2354 C 0.07406 0.74078 0.06577 0.0
C2355 C 0.08049 0.7484 0.1645 0.0
C2356 C 0.08123 0.74459 0.12751 0.0
C2357 C 0.08743 0.74139 0.01552 0.0
C2358 C 0.08474 0.74145 0.05435 0.0
H2359 H 0.0763 0.7694 0.20603 0.0
H2360 H 0.07453 0.76058 0.14721 0.0
H2361 H 0.06419 0.7422 0.10989 0.0
H2362 H 0.08637 0.75414 0.93628 0.0
H2363 H 0.07912 0.75158 0.99813 0.0
C2364 C 0.25157 0.31559 0.20625 0.0
C2365 C 0.2541 0.32465 0.23138 0.0
C2366 C 0.25571 0.31843 0.17107 0.0
C2367 C 0.27535 0.34353 0.10977 0.0
H2368 H 0.25078 0.32441 0.04023 0.0
C2369 C 0.26451 0.34093 0.94714 0.0
C2370 C 0.26687 0.35269 0.94231 0.0
C2371 C 0.2654 0.33692 0.98134 0.0
C2372 C 0.25785 0.32969 0.05915 0.0
H2373 H 0.26344 0.34375 0.24017 0.0
H2374 H 0.27032 0.34882 0.17809 0.0
H2375 H 0.24783 0.31859 0.10294 0.0
H2376 H 0.27279 0.36969 0.96886 0.0
H2377 H 0.27434 0.36273 0.02812 0.0
H2378 H 0.28503 0.355 0.06574 0.0
C2379 C 0.26536 0.33949 0.18571 0.0
C2380 C 0.25618 0.32635 0.09523 0.0
C2381 C 0.26139 0.33662 0.22125 0.0
C2382 C 0.27078 0.36053 0.97179 0.0
C2383 C 0.2718 0.35658 0.00572 0.0
C2384 C 0.27698 0.34693 0.07362 0.0
C2385 C 0.26226 0.33041 0.15995 0.0
C2386 C 0.2648 0.33335 0.12115 0.0
C2387 C 0.26884 0.34467 0.01106 0.0
C2388 C 0.26812 0.34016 0.0481 0.0
H2389 H 0.24613 0.30627 0.21359 0.0
H2390 H 0.25344 0.31121 0.1523 0.0
H2391 H 0.28226 0.34901 0.12888 0.0
H2392 H 0.26152 0.3347 0.92488 0.0
H2393 H 0.26312 0.3277 0.98473 0.0
C2394 C 0.91719 0.65099 0.53099 0.0
C2395 C 0.92149 0.6589 0.56029 0.0
C2396 C 0.92221 0.65468 0.49701 0.0
C2397 C 0.93627 0.68146 0.44317 0.0
H2398 H 0.93957 0.66102 0.37338 0.0
C2399 C 0.94321 0.69483 0.2957 0.0
C2400 C 0.93602 0.68578 0.27133 0.0
C2401 C 0.94481 0.69201 0.3306 0.0
C2402 C 0.93866 0.66682 0.39251 0.0
H2403 H 0.93483 0.67668 0.57738 0.0
H2404 H 0.94355 0.68322 0.51745 0.0
H2405 H 0.93647 0.65526 0.43672 0.0
H2406 H 0.92539 0.66667 0.26341 0.0
H2407 H 0.92773 0.66166 0.32511 0.0
H2408 H 0.93772 0.69267 0.39925 0.0
C2409 C 0.93626 0.67416 0.52101 0.0
C2410 C 0.93695 0.66356 0.42877 0.0
C2411 C 0.9313 0.67042 0.55525 0.0
C2412 C 0.93099 0.6738 0.28178 0.0
C2413 C 0.9324 0.67096 0.31708 0.0
C2414 C 0.93787 0.68467 0.407 0.0
C2415 C 0.9316 0.66638 0.49144 0.0
C2416 C 0.93546 0.67072 0.45431 0.0
C2417 C 0.93901 0.68007 0.34223 0.0
C2418 C 0.93883 0.67727 0.38106 0.0
H2419 H 0.90972 0.64201 0.53408 0.0
H2420 H 0.91833 0.64852 0.47474 0.0
H2421 H 0.93494 0.68706 0.46209 0.0
H2422 H 0.94736 0.70415 0.28802 0.0
H2423 H 0.95026 0.69924 0.34885 0.0
C2424 C 0.36493 0.27289 0.53872 0.0
C2425 C 0.35571 0.26611 0.56313 0.0
C2426 C 0.36233 0.27461 0.50367 0.0
C2427 C 0.33763 0.26979 0.4415 0.0
H2428 H 0.357 0.26463 0.3722 0.0
C2429 C 0.32099 0.24827 0.30361 0.0
C2430 C 0.32889 0.2521 0.27427 0.0
C2431 C 0.32486 0.25338 0.33739 0.0
C2432 C 0.35166 0.26637 0.39104 0.0
H2433 H 0.33656 0.25635 0.57087 0.0
H2434 H 0.33191 0.25888 0.50894 0.0
H2435 H 0.36257 0.2672 0.43507 0.0
H2436 H 0.34687 0.26473 0.25684 0.0
H2437 H 0.35376 0.27359 0.31648 0.0
H2438 H 0.32633 0.26821 0.3972 0.0
C2439 C 0.34118 0.26313 0.51705 0.0
C2440 C 0.35485 0.26785 0.42722 0.0
C2441 C 0.34382 0.26161 0.55249 0.0
C2442 C 0.34061 0.26157 0.27902 0.0
C2443 C 0.34455 0.26661 0.31309 0.0
C2444 C 0.33438 0.2682 0.40523 0.0
C2445 C 0.35042 0.26935 0.49194 0.0
C2446 C 0.34773 0.26931 0.45307 0.0
C2447 C 0.33676 0.26237 0.34274 0.0
C2448 C 0.34122 0.26619 0.37979 0.0
H2449 H 0.3742 0.27665 0.54652 0.0
H2450 H 0.36967 0.27974 0.48544 0.0
H2451 H 0.33206 0.2711 0.46056 0.0
H2452 H 0.31185 0.24107 0.3007 0.0
H2453 H 0.31869 0.24983 0.35973 0.0
C2454 C 0.75346 0.08385 0.561 0.0
C2455 C 0.75057 0.09288 0.56605 0.0
C2456 C 0.7528 0.07912 0.52671 0.0
C2457 C 0.76061 0.08014 0.44884 0.0
H2458 H 0.73572 0.07371 0.37938 0.0
C2459 C 0.76727 0.07282 0.30157 0.0
C2460 C 0.76412 0.07884 0.27635 0.0
C2461 C 0.76325 0.07145 0.3369 0.0
C2462 C 0.74277 0.07553 0.3984 0.0
H2463 H 0.74393 0.10342 0.53987 0.0
H2464 H 0.74274 0.09515 0.48042 0.0
H2465 H 0.73272 0.0766 0.44259 0.0
H2466 H 0.75383 0.08765 0.26762 0.0
H2467 H 0.74716 0.08573 0.32995 0.0
H2468 H 0.77098 0.0798 0.40491 0.0
C2469 C 0.74554 0.09173 0.50271 0.0
C2470 C 0.74101 0.0771 0.43459 0.0
C2471 C 0.74635 0.09656 0.53674 0.0
C2472 C 0.75637 0.08296 0.28662 0.0
C2473 C 0.75251 0.0818 0.32229 0.0
C2474 C 0.76241 0.07869 0.41272 0.0
C2475 C 0.74906 0.0832 0.49714 0.0
C2476 C 0.75002 0.07966 0.46002 0.0
C2477 C 0.75619 0.0763 0.34808 0.0
C2478 C 0.75361 0.07657 0.3869 0.0
H2479 H 0.75672 0.08083 0.58314 0.0
H2480 H 0.75551 0.0725 0.52312 0.0
H2481 H 0.76779 0.08232 0.4677 0.0
H2482 H 0.77307 0.06936 0.29415 0.0
H2483 H 0.76597 0.06687 0.35569 0.0
C2484 C 0.98593 0.40859 0.13301 0.0
C2485 C 0.9938 0.41243 0.10361 0.0
C2486 C 0.98976 0.40735 0.16688 0.0
C2487 C 0.9991 0.40186 0.23486 0.0
H2488 H 0.02779 0.43068 0.26413 0.0
C2489 C 0.00936 0.41782 0.3821 0.0
C2490 C 0.02134 0.42497 0.39238 0.0
C2491 C 1.00652 0.4137 0.34669 0.0
C2492 C 0.01992 0.42241 0.25644 0.0
H2493 H 0.01168 0.41738 0.0862 0.0
H2494 H 0.01849 0.41539 0.14594 0.0
H2495 H 0.02205 0.42775 0.20139 0.0
H2496 H 0.03972 0.43251 0.37511 0.0
H2497 H 0.03481 0.42493 0.31407 0.0
H2498 H 0.99682 0.39666 0.29021 0.0
C2499 C 0.00933 0.41335 0.14255 0.0
C2500 C 0.01664 0.42075 0.22033 0.0
C2501 C 1.00544 0.41446 0.10842 0.0
C2502 C 0.0304 0.42718 0.36762 0.0
C2503 C 0.02758 0.42289 0.33259 0.0
C2504 C 1.00244 0.40347 0.27106 0.0
C2505 C 1.00158 0.41002 0.17224 0.0
C2506 C 1.00603 0.41062 0.20929 0.0
C2507 C 0.01562 0.41651 0.32123 0.0
C2508 C 0.01275 0.41391 0.28242 0.0
H2509 H 0.97685 0.40683 0.13009 0.0
H2510 H 0.98361 0.4049 0.18925 0.0
H2511 H 0.99092 0.39391 0.22699 0.0
H2512 H 1.00223 0.41601 0.40076 0.0
H2513 H 0.9972 0.40888 0.33888 0.0
C2514 C 0.60561 0.58034 0.1334 0.0
C2515 C 0.60164 0.58425 0.10398 0.0
C2516 C 0.6069 0.58549 0.16715 0.0
C2517 C 0.59347 0.59891 0.22057 0.0
H2518 H 0.61772 0.60337 0.29012 0.0
C2519 C 0.58706 0.60602 0.36801 0.0
C2520 C 0.58935 0.59917 0.39261 0.0
C2521 C 0.59136 0.60758 0.33296 0.0
C2522 C 0.61086 0.60214 0.27106 0.0
H2523 H 0.59652 0.59704 0.08639 0.0
H2524 H 0.5986 0.60598 0.14596 0.0
H2525 H 0.62041 0.60026 0.22684 0.0
H2526 H 0.59844 0.58913 0.4007 0.0
H2527 H 0.60557 0.5914 0.33879 0.0
H2528 H 0.58355 0.60006 0.26452 0.0
C2529 C 0.60071 0.5989 0.14266 0.0
C2530 C 0.61244 0.60042 0.23483 0.0
C2531 C 0.59954 0.59382 0.10863 0.0
C2532 C 0.59657 0.59446 0.38217 0.0
C2533 C 0.6007 0.59582 0.34674 0.0
C2534 C 0.59184 0.60053 0.25671 0.0
C2535 C 0.60417 0.59461 0.17238 0.0
C2536 C 0.60362 0.59851 0.20939 0.0
C2537 C 0.59781 0.6021 0.32143 0.0
C2538 C 0.60039 0.6019 0.28257 0.0
H2539 H 0.60743 0.57306 0.13059 0.0
H2540 H 0.60945 0.58189 0.18954 0.0
H2541 H 0.58642 0.59726 0.20173 0.0
H2542 H 0.58168 0.60994 0.37564 0.0
H2543 H 0.58926 0.61276 0.31456 0.0
C2544 C 0.41771 0.98675 0.36308 0.0
C2545 C 0.41707 0.99281 0.39358 0.0
C2546 C 0.41603 0.98998 0.32885 0.0
C2547 C 0.40828 0.99511 0.25863 0.0
H2548 H 0.42582 0.02899 0.23781 0.0
C2549 C 0.41965 0.01249 0.11272 0.0
C2550 C 0.43165 0.0214 0.10812 0.0
C2551 C 0.4147 0.00939 0.14726 0.0
C2552 C 0.42084 0.01949 0.24316 0.0
H2553 H 0.41375 0.0068 0.41201 0.0
H2554 H 0.41073 0.01244 0.35173 0.0
H2555 H 0.42277 0.02229 0.29989 0.0
H2556 H 0.44776 0.03421 0.1362 0.0
H2557 H 0.43934 0.02864 0.19559 0.0
H2558 H 0.40725 0.99229 0.20188 0.0
C2559 C 0.41267 1.00524 0.35452 0.0
C2560 C 0.41894 0.01564 0.27884 0.0
C2561 C 0.41439 1.00201 0.38903 0.0
C2562 C 0.43848 0.02729 0.1386 0.0
C2563 C 0.43359 0.0242 0.17285 0.0
C2564 C 0.41031 0.99895 0.22294 0.0
C2565 C 0.41358 0.99931 0.324 0.0
C2566 C 0.41313 1.00339 0.28696 0.0
C2567 C 0.42167 0.01515 0.17776 0.0
C2568 C 0.4171 0.01118 0.21481 0.0
H2569 H 0.41974 0.97961 0.36545 0.0
H2570 H 0.4171 0.98539 0.30609 0.0
H2571 H 0.40346 0.9856 0.26397 0.0
H2572 H 0.41413 0.00784 0.08976 0.0
H2573 H 0.40546 1.00243 0.1501 0.0
C2574 C 0.58261 0.98262 0.86891 0.0
C2575 C 0.58667 0.99048 0.89833 0.0
C2576 C 0.58774 0.98641 0.83511 0.0
C2577 C 0.60161 0.01334 0.78174 0.0
H2578 H 0.60539 0.99323 0.71183 0.0
C2579 C 0.60894 0.02705 0.63449 0.0
C2580 C 0.60187 0.01803 0.60985 0.0
C2581 C 0.61044 0.02418 0.66943 0.0
C2582 C 0.60435 0.99894 0.731 0.0
H2583 H 0.59972 0.00832 0.91584 0.0
H2584 H 0.60864 0.01506 0.85622 0.0
H2585 H 0.6022 0.98734 0.77506 0.0
H2586 H 0.59139 0.99893 0.60157 0.0
H2587 H 0.59357 0.99383 0.66331 0.0
H2588 H 0.60305 0.02458 0.73795 0.0
C2589 C 0.60145 0.00594 0.85954 0.0
C2590 C 0.60259 0.9956 0.7672 0.0
C2591 C 0.59638 1.00208 0.89361 0.0
C2592 C 0.59689 0.00604 0.62013 0.0
C2593 C 0.5982 1.00314 0.65546 0.0
C2594 C 0.60328 0.01663 0.74563 0.0
C2595 C 0.597 0.9982 0.82982 0.0
C2596 C 0.60092 1.00263 0.79278 0.0
C2597 C 0.60468 0.01222 0.68083 0.0
C2598 C 0.60441 0.00934 0.71964 0.0
H2599 H 0.57522 0.97357 0.87176 0.0
H2600 H 0.58402 0.98028 0.81273 0.0
H2601 H 0.60016 0.01884 0.80068 0.0
H2602 H 0.61306 0.03639 0.62698 0.0
H2603 H 0.61578 0.03138 0.68788 0.0
C2604 C 1.0065 0.59213 0.62157 0.0
C2605 C 0.99462 0.58448 0.61117 0.0
C2606 C 0.00915 0.59619 0.65708 0.0
C2607 C 0.99589 0.58687 0.74736 0.0
H2608 H 0.0238 0.61641 0.77677 0.0
C2609 C 0.02994 0.60258 0.87087 0.0
C2610 C 0.02205 0.59831 0.90021 0.0
C2611 C 0.02592 0.60355 0.837 0.0
C2612 C 0.01593 0.60816 0.76891 0.0
H2613 H 0.97615 0.57593 0.62847 0.0
H2614 H 0.98071 0.58338 0.68969 0.0
H2615 H 0.01795 0.61328 0.71351 0.0
H2616 H 1.00393 0.59234 0.91759 0.0
H2617 H 0.99681 0.59386 0.85784 0.0
H2618 H 0.99403 0.58163 0.80247 0.0
C2619 C 0.98804 0.58587 0.67116 0.0
C2620 C 0.01262 0.60634 0.73269 0.0
C2621 C 0.98542 0.58165 0.63602 0.0
C2622 C 0.01019 0.59561 0.89541 0.0
C2623 C 1.00612 0.59645 0.86127 0.0
C2624 C 0.99914 0.58874 0.78349 0.0
C2625 C 0.99995 0.59282 0.68255 0.0
C2626 C 1.00272 0.59554 0.72135 0.0
C2627 C 0.0139 0.60018 0.83161 0.0
C2628 C 0.00936 0.59926 0.79452 0.0
H2629 H 0.01375 0.59443 0.60287 0.0
H2630 H 0.01844 0.60146 0.66492 0.0
H2631 H 0.98835 0.57835 0.73968 0.0
H2632 H 0.03918 0.60485 0.87382 0.0
H2633 H 0.03211 0.60633 0.81466 0.0
C2634 C 0.43316 0.40982 0.63951 0.0
C2635 C 0.429 0.41355 0.61013 0.0
C2636 C 0.42808 0.4085 0.67339 0.0
C2637 C 0.41417 0.4214 0.72704 0.0
H2638 H 0.41042 0.39741 0.79661 0.0
C2639 C 0.40712 0.42772 0.87447 0.0
C2640 C 0.41422 0.42574 0.89887 0.0
C2641 C 0.4055 0.42333 0.83954 0.0
C2642 C 0.41145 0.40419 0.77754 0.0
H2643 H 0.41587 0.41824 0.5928 0.0
H2644 H 0.40706 0.4161 0.65256 0.0
H2645 H 0.4136 0.39481 0.73329 0.0
H2646 H 0.42465 0.41705 0.90682 0.0
H2647 H 0.42229 0.40975 0.84508 0.0
H2648 H 0.41276 0.43115 0.77101 0.0
C2649 C 0.41427 0.41421 0.64914 0.0
C2650 C 0.41321 0.40267 0.74129 0.0
C2651 C 0.41928 0.41541 0.61499 0.0
C2652 C 0.41912 0.41867 0.88843 0.0
C2653 C 0.41771 0.41446 0.8531 0.0
C2654 C 0.41252 0.42297 0.7632 0.0
C2655 C 0.41878 0.41095 0.67878 0.0
C2656 C 0.41487 0.41141 0.71585 0.0
C2657 C 0.4112 0.41709 0.82792 0.0
C2658 C 0.4114 0.41452 0.78906 0.0
H2659 H 0.44056 0.40819 0.63655 0.0
H2660 H 0.43185 0.40612 0.69572 0.0
H2661 H 0.41562 0.42839 0.70819 0.0
H2662 H 0.40307 0.43298 0.88214 0.0
H2663 H 0.40014 0.42522 0.82126 0.0
loop_
_geom_bond_atom_site_label_1
_geom_bond_atom_site_label_2
_geom_bond_distance
_geom_bond_site_symmetry_2
_ccdc_geom_bond_type
O0 Cd1 2.223 . S
O0 C8 1.315 . S
Cd1 O0 2.223 . S
Cd1 O4 2.297 . S
Cd1 O5 2.439 . S
Cd1 O11 2.240 . S
Cd2 O3 2.240 . S
Cd2 O10 2.223 . S
Cd2 O12 2.297 . S
Cd2 O13 2.439 . S
O3 Cd2 2.240 . S
O3 C8 1.279 . S
O4 Cd1 2.297 . S
O4 C6 1.247 . S
O5 Cd1 2.439 . S
O5 C6 1.208 . S
C6 O4 1.247 . S
C6 O5 1.208 . S
C7 O12 1.247 . S
C7 O13 1.208 . S
C8 O0 1.315 . S
C8 O3 1.279 . S
C9 O10 1.315 . S
C9 O11 1.279 . S
O10 Cd2 2.223 . S
O10 C9 1.315 . S
O11 Cd1 2.240 . S
O11 C9 1.279 . S
O12 Cd2 2.297 . S
O12 C7 1.247 . S
O13 Cd2 2.439 . S
O13 C7 1.208 . S
O14 Cd15 2.223 . S
O14 C22 1.315 . S
Cd15 O14 2.223 . S
Cd15 O18 2.297 . S
Cd15 O19 2.439 . S
Cd15 O25 2.240 . S
Cd16 O17 2.240 . S
Cd16 O24 2.223 . S
Cd16 O26 2.297 . S
Cd16 O27 2.439 . S
O17 Cd16 2.240 . S
O17 C22 1.279 . S
O18 Cd15 2.297 . S
O18 C20 1.247 . S
O19 Cd15 2.439 . S
O19 C20 1.208 . S
C20 O18 1.247 . S
C20 O19 1.208 . S
C21 O26 1.247 . S
C21 O27 1.208 . S
C22 O14 1.315 . S
C22 O17 1.279 . S
C23 O24 1.315 . S
C23 O25 1.279 . S
O24 Cd16 2.223 . S
O24 C23 1.315 . S
O25 Cd15 2.240 . S
O25 C23 1.279 . S
O26 Cd16 2.297 . S
O26 C21 1.247 . S
O27 Cd16 2.439 . S
O27 C21 1.208 . S
O28 Cd29 2.223 . S
O28 C36 1.315 . S
Cd29 O28 2.223 . S
Cd29 O32 2.297 . S
Cd29 O33 2.439 . S
Cd29 O39 2.240 . S
Cd30 O31 2.240 . S
Cd30 O38 2.223 . S
Cd30 O40 2.297 . S
Cd30 O41 2.439 . S
O31 Cd30 2.240 . S
O31 C36 1.279 . S
O32 Cd29 2.297 . S
O32 C34 1.247 . S
O33 Cd29 2.439 . S
O33 C34 1.208 . S
C34 O32 1.247 . S
C34 O33 1.208 . S
C35 O40 1.247 . S
C35 O41 1.208 . S
C36 O28 1.315 . S
C36 O31 1.279 . S
C37 O38 1.315 . S
C37 O39 1.279 . S
O38 Cd30 2.223 . S
O38 C37 1.315 . S
O39 Cd29 2.240 . S
O39 C37 1.279 . S
O40 Cd30 2.297 . S
O40 C35 1.247 . S
O41 Cd30 2.439 . S
O41 C35 1.208 . S
O42 Cd43 2.223 . S
O42 C50 1.315 . S
Cd43 O42 2.223 . S
Cd43 O46 2.297 . S
Cd43 O47 2.439 . S
Cd43 O53 2.240 . S
Cd44 O45 2.240 . S
Cd44 O52 2.223 . S
Cd44 O54 2.297 . S
Cd44 O55 2.439 . S
O45 Cd44 2.240 . S
O45 C50 1.279 . S
O46 Cd43 2.297 . S
O46 C48 1.247 . S
O47 Cd43 2.439 . S
O47 C48 1.208 . S
C48 O46 1.247 . S
C48 O47 1.208 . S
C49 O54 1.247 . S
C49 O55 1.208 . S
C50 O42 1.315 . S
C50 O45 1.279 . S
C51 O52 1.315 . S
C51 O53 1.279 . S
O52 Cd44 2.223 . S
O52 C51 1.315 . S
O53 Cd43 2.240 . S
O53 C51 1.279 . S
O54 Cd44 2.297 . S
O54 C49 1.247 . S
O55 Cd44 2.439 . S
O55 C49 1.208 . S
O56 Cd57 2.223 . S
O56 C64 1.315 . S
Cd57 O56 2.223 . S
Cd57 O60 2.297 . S
Cd57 O61 2.439 . S
Cd57 O67 2.240 . S
Cd58 O59 2.240 . S
Cd58 O66 2.223 . S
Cd58 O68 2.297 . S
Cd58 O69 2.439 . S
O59 Cd58 2.240 . S
O59 C64 1.279 . S
O60 Cd57 2.297 . S
O60 C62 1.247 . S
O61 Cd57 2.439 . S
O61 C62 1.208 . S
C62 O60 1.247 . S
C62 O61 1.208 . S
C63 O68 1.247 . S
C63 O69 1.208 . S
C64 O56 1.315 . S
C64 O59 1.279 . S
C65 O66 1.315 . S
C65 O67 1.279 . S
O66 Cd58 2.223 . S
O66 C65 1.315 . S
O67 Cd57 2.240 . S
O67 C65 1.279 . S
O68 Cd58 2.297 . S
O68 C63 1.247 . S
O69 Cd58 2.439 . S
O69 C63 1.208 . S
O70 Cd71 2.223 . S
O70 C78 1.315 . S
Cd71 O70 2.223 . S
Cd71 O74 2.297 . S
Cd71 O75 2.439 . S
Cd71 O81 2.240 . S
Cd72 O73 2.240 . S
Cd72 O80 2.223 . S
Cd72 O82 2.297 . S
Cd72 O83 2.439 . S
O73 Cd72 2.240 . S
O73 C78 1.279 . S
O74 Cd71 2.297 . S
O74 C76 1.247 . S
O75 Cd71 2.439 . S
O75 C76 1.208 . S
C76 O74 1.247 . S
C76 O75 1.208 . S
C77 O82 1.247 . S
C77 O83 1.208 . S
C78 O70 1.315 . S
C78 O73 1.279 . S
C79 O80 1.315 . S
C79 O81 1.279 . S
O80 Cd72 2.223 . S
O80 C79 1.315 . S
O81 Cd71 2.240 . S
O81 C79 1.279 . S
O82 Cd72 2.297 . S
O82 C77 1.247 . S
O83 Cd72 2.439 . S
O83 C77 1.208 . S
O84 Cd85 2.223 . S
O84 C92 1.315 . S
Cd85 O84 2.223 . S
Cd85 O88 2.297 . S
Cd85 O89 2.439 . S
Cd85 O95 2.240 . S
Cd86 O87 2.240 . S
Cd86 O94 2.223 . S
Cd86 O96 2.297 . S
Cd86 O97 2.439 . S
O87 Cd86 2.240 . S
O87 C92 1.279 . S
O88 Cd85 2.297 . S
O88 C90 1.247 . S
O89 Cd85 2.439 . S
O89 C90 1.208 . S
C90 O88 1.247 . S
C90 O89 1.208 . S
C91 O96 1.247 . S
C91 O97 1.208 . S
C92 O84 1.315 . S
C92 O87 1.279 . S
C93 O94 1.315 . S
C93 O95 1.279 . S
O94 Cd86 2.223 . S
O94 C93 1.315 . S
O95 Cd85 2.240 . S
O95 C93 1.279 . S
O96 Cd86 2.297 . S
O96 C91 1.247 . S
O97 Cd86 2.439 . S
O97 C91 1.208 . S
O98 Cd99 2.223 . S
O98 C106 1.315 . S
Cd99 O98 2.223 . S
Cd99 O102 2.297 . S
Cd99 O103 2.439 . S
Cd99 O109 2.240 . S
Cd100 O101 2.240 . S
Cd100 O108 2.223 . S
Cd100 O110 2.297 . S
Cd100 O111 2.439 . S
O101 Cd100 2.240 . S
O101 C106 1.279 . S
O102 Cd99 2.297 . S
O102 C104 1.247 . S
O103 Cd99 2.439 . S
O103 C104 1.208 . S
C104 O102 1.247 . S
C104 O103 1.208 . S
C105 O110 1.247 . S
C105 O111 1.208 . S
C106 O98 1.315 . S
C106 O101 1.279 . S
C107 O108 1.315 . S
C107 O109 1.279 . S
O108 Cd100 2.223 . S
O108 C107 1.315 . S
O109 Cd99 2.240 . S
O109 C107 1.279 . S
O110 Cd100 2.297 . S
O110 C105 1.247 . S
O111 Cd100 2.439 . S
O111 C105 1.208 . S
O112 Cd113 2.223 . S
O112 C120 1.315 . S
Cd113 O112 2.223 . S
Cd113 O116 2.297 . S
Cd113 O117 2.439 . S
Cd113 O123 2.240 . S
Cd114 O115 2.240 . S
Cd114 O122 2.223 . S
Cd114 O124 2.297 . S
Cd114 O125 2.439 . S
O115 Cd114 2.240 . S
O115 C120 1.279 . S
O116 Cd113 2.297 . S
O116 C118 1.247 . S
O117 Cd113 2.439 . S
O117 C118 1.208 . S
C118 O116 1.247 . S
C118 O117 1.208 . S
C119 O124 1.247 . S
C119 O125 1.208 . S
C120 O112 1.315 . S
C120 O115 1.279 . S
C121 O122 1.315 . S
C121 O123 1.279 . S
O122 Cd114 2.223 . S
O122 C121 1.315 . S
O123 Cd113 2.240 . S
O123 C121 1.279 . S
O124 Cd114 2.297 . S
O124 C119 1.247 . S
O125 Cd114 2.439 . S
O125 C119 1.208 . S
O126 Cd127 2.223 . S
O126 C134 1.315 . S
Cd127 O126 2.223 . S
Cd127 O130 2.297 . S
Cd127 O131 2.439 . S
Cd127 O137 2.240 . S
Cd128 O129 2.240 . S
Cd128 O136 2.223 . S
Cd128 O138 2.297 . S
Cd128 O139 2.439 . S
O129 Cd128 2.240 . S
O129 C134 1.279 . S
O130 Cd127 2.297 . S
O130 C132 1.247 . S
O131 Cd127 2.439 . S
O131 C132 1.208 . S
C132 O130 1.247 . S
C132 O131 1.208 . S
C133 O138 1.247 . S
C133 O139 1.208 . S
C134 O126 1.315 . S
C134 O129 1.279 . S
C135 O136 1.315 . S
C135 O137 1.279 . S
O136 Cd128 2.223 . S
O136 C135 1.315 . S
O137 Cd127 2.240 . S
O137 C135 1.279 . S
O138 Cd128 2.297 . S
O138 C133 1.247 . S
O139 Cd128 2.439 . S
O139 C133 1.208 . S
O140 Cd141 2.223 . S
O140 C148 1.315 . S
Cd141 O140 2.223 . S
Cd141 O144 2.297 . S
Cd141 O145 2.439 . S
Cd141 O151 2.240 . S
Cd142 O143 2.240 . S
Cd142 O150 2.223 . S
Cd142 O152 2.297 . S
Cd142 O153 2.439 . S
O143 Cd142 2.240 . S
O143 C148 1.279 . S
O144 Cd141 2.297 . S
O144 C146 1.247 . S
O145 Cd141 2.439 . S
O145 C146 1.208 . S
C146 O144 1.247 . S
C146 O145 1.208 . S
C147 O152 1.247 . S
C147 O153 1.208 . S
C148 O140 1.315 . S
C148 O143 1.279 . S
C149 O150 1.315 . S
C149 O151 1.279 . S
O150 Cd142 2.223 . S
O150 C149 1.315 . S
O151 Cd141 2.240 . S
O151 C149 1.279 . S
O152 Cd142 2.297 . S
O152 C147 1.247 . S
O153 Cd142 2.439 . S
O153 C147 1.208 . S
O154 Cd155 2.223 . S
O154 C162 1.315 . S
Cd155 O154 2.223 . S
Cd155 O158 2.297 . S
Cd155 O159 2.439 . S
Cd155 O165 2.240 . S
Cd156 O157 2.240 . S
Cd156 O164 2.223 . S
Cd156 O166 2.297 . S
Cd156 O167 2.439 . S
O157 Cd156 2.240 . S
O157 C162 1.279 . S
O158 Cd155 2.297 . S
O158 C160 1.247 . S
O159 Cd155 2.439 . S
O159 C160 1.208 . S
C160 O158 1.247 . S
C160 O159 1.208 . S
C161 O166 1.247 . S
C161 O167 1.208 . S
C162 O154 1.315 . S
C162 O157 1.279 . S
C163 O164 1.315 . S
C163 O165 1.279 . S
O164 Cd156 2.223 . S
O164 C163 1.315 . S
O165 Cd155 2.240 . S
O165 C163 1.279 . S
O166 Cd156 2.297 . S
O166 C161 1.247 . S
O167 Cd156 2.439 . S
O167 C161 1.208 . S
O168 Cd169 2.223 . S
O168 C176 1.315 . S
Cd169 O168 2.223 . S
Cd169 O172 2.297 . S
Cd169 O173 2.439 . S
Cd169 O179 2.240 . S
Cd170 O171 2.240 . S
Cd170 O178 2.223 . S
Cd170 O180 2.297 . S
Cd170 O181 2.439 . S
O171 Cd170 2.240 . S
O171 C176 1.279 . S
O172 Cd169 2.297 . S
O172 C174 1.247 . S
O173 Cd169 2.439 . S
O173 C174 1.208 . S
C174 O172 1.247 . S
C174 O173 1.208 . S
C175 O180 1.247 . S
C175 O181 1.208 . S
C176 O168 1.315 . S
C176 O171 1.279 . S
C177 O178 1.315 . S
C177 O179 1.279 . S
O178 Cd170 2.223 . S
O178 C177 1.315 . S
O179 Cd169 2.240 . S
O179 C177 1.279 . S
O180 Cd170 2.297 . S
O180 C175 1.247 . S
O181 Cd170 2.439 . S
O181 C175 1.208 . S
O182 Cd183 2.223 . S
O182 C190 1.315 . S
Cd183 O182 2.223 . S
Cd183 O186 2.297 . S
Cd183 O187 2.439 . S
Cd183 O193 2.240 . S
Cd184 O185 2.240 . S
Cd184 O192 2.223 . S
Cd184 O194 2.297 . S
Cd184 O195 2.439 . S
O185 Cd184 2.240 . S
O185 C190 1.279 . S
O186 Cd183 2.297 . S
O186 C188 1.247 . S
O187 Cd183 2.439 . S
O187 C188 1.208 . S
C188 O186 1.247 . S
C188 O187 1.208 . S
C189 O194 1.247 . S
C189 O195 1.208 . S
C190 O182 1.315 . S
C190 O185 1.279 . S
C191 O192 1.315 . S
C191 O193 1.279 . S
O192 Cd184 2.223 . S
O192 C191 1.315 . S
O193 Cd183 2.240 . S
O193 C191 1.279 . S
O194 Cd184 2.297 . S
O194 C189 1.247 . S
O195 Cd184 2.439 . S
O195 C189 1.208 . S
O196 Cd197 2.223 . S
O196 C204 1.315 . S
Cd197 O196 2.223 . S
Cd197 O200 2.297 . S
Cd197 O201 2.439 . S
Cd197 O207 2.240 . S
Cd198 O199 2.240 . S
Cd198 O206 2.223 . S
Cd198 O208 2.297 . S
Cd198 O209 2.439 . S
O199 Cd198 2.240 . S
O199 C204 1.279 . S
O200 Cd197 2.297 . S
O200 C202 1.247 . S
O201 Cd197 2.439 . S
O201 C202 1.208 . S
C202 O200 1.247 . S
C202 O201 1.208 . S
C203 O208 1.247 . S
C203 O209 1.208 . S
C204 O196 1.315 . S
C204 O199 1.279 . S
C205 O206 1.315 . S
C205 O207 1.279 . S
O206 Cd198 2.223 . S
O206 C205 1.315 . S
O207 Cd197 2.240 . S
O207 C205 1.279 . S
O208 Cd198 2.297 . S
O208 C203 1.247 . S
O209 Cd198 2.439 . S
O209 C203 1.208 . S
O210 Cd211 2.223 . S
O210 C218 1.315 . S
Cd211 O210 2.223 . S
Cd211 O214 2.297 . S
Cd211 O215 2.439 . S
Cd211 O221 2.240 . S
Cd212 O213 2.240 . S
Cd212 O220 2.223 . S
Cd212 O222 2.297 . S
Cd212 O223 2.439 . S
O213 Cd212 2.240 . S
O213 C218 1.279 . S
O214 Cd211 2.297 . S
O214 C216 1.247 . S
O215 Cd211 2.439 . S
O215 C216 1.208 . S
C216 O214 1.247 . S
C216 O215 1.208 . S
C217 O222 1.247 . S
C217 O223 1.208 . S
C218 O210 1.315 . S
C218 O213 1.279 . S
C219 O220 1.315 . S
C219 O221 1.279 . S
O220 Cd212 2.223 . S
O220 C219 1.315 . S
O221 Cd211 2.240 . S
O221 C219 1.279 . S
O222 Cd212 2.297 . S
O222 C217 1.247 . S
O223 Cd212 2.439 . S
O223 C217 1.208 . S
O224 Cd225 2.223 . S
O224 C232 1.315 . S
Cd225 O224 2.223 . S
Cd225 O228 2.297 . S
Cd225 O229 2.439 . S
Cd225 O235 2.240 . S
Cd226 O227 2.240 . S
Cd226 O234 2.223 . S
Cd226 O236 2.297 . S
Cd226 O237 2.439 . S
O227 Cd226 2.240 . S
O227 C232 1.279 . S
O228 Cd225 2.297 . S
O228 C230 1.247 . S
O229 Cd225 2.439 . S
O229 C230 1.208 . S
C230 O228 1.247 . S
C230 O229 1.208 . S
C231 O236 1.247 . S
C231 O237 1.208 . S
C232 O224 1.315 . S
C232 O227 1.279 . S
C233 O234 1.315 . S
C233 O235 1.279 . S
O234 Cd226 2.223 . S
O234 C233 1.315 . S
O235 Cd225 2.240 . S
O235 C233 1.279 . S
O236 Cd226 2.297 . S
O236 C231 1.247 . S
O237 Cd226 2.439 . S
O237 C231 1.208 . S
O238 Cd239 2.223 . S
O238 C246 1.315 . S
Cd239 O238 2.223 . S
Cd239 O242 2.297 . S
Cd239 O243 2.439 . S
Cd239 O249 2.240 . S
Cd240 O241 2.240 . S
Cd240 O248 2.223 . S
Cd240 O250 2.297 . S
Cd240 O251 2.439 . S
O241 Cd240 2.240 . S
O241 C246 1.279 . S
O242 Cd239 2.297 . S
O242 C244 1.247 . S
O243 Cd239 2.439 . S
O243 C244 1.208 . S
C244 O242 1.247 . S
C244 O243 1.208 . S
C245 O250 1.247 . S
C245 O251 1.208 . S
C246 O238 1.315 . S
C246 O241 1.279 . S
C247 O248 1.315 . S
C247 O249 1.279 . S
O248 Cd240 2.223 . S
O248 C247 1.315 . S
O249 Cd239 2.240 . S
O249 C247 1.279 . S
O250 Cd240 2.297 . S
O250 C245 1.247 . S
O251 Cd240 2.439 . S
O251 C245 1.208 . S
O252 Cd253 2.223 . S
O252 C260 1.315 . S
Cd253 O252 2.223 . S
Cd253 O256 2.297 . S
Cd253 O257 2.439 . S
Cd253 O263 2.240 . S
Cd254 O255 2.240 . S
Cd254 O262 2.223 . S
Cd254 O264 2.297 . S
Cd254 O265 2.439 . S
O255 Cd254 2.240 . S
O255 C260 1.279 . S
O256 Cd253 2.297 . S
O256 C258 1.247 . S
O257 Cd253 2.439 . S
O257 C258 1.208 . S
C258 O256 1.247 . S
C258 O257 1.208 . S
C259 O264 1.247 . S
C259 O265 1.208 . S
C260 O252 1.315 . S
C260 O255 1.279 . S
C261 O262 1.315 . S
C261 O263 1.279 . S
O262 Cd254 2.223 . S
O262 C261 1.315 . S
O263 Cd253 2.240 . S
O263 C261 1.279 . S
O264 Cd254 2.297 . S
O264 C259 1.247 . S
O265 Cd254 2.439 . S
O265 C259 1.208 . S
O266 Cd267 2.223 . S
O266 C274 1.315 . S
Cd267 O266 2.223 . S
Cd267 O270 2.297 . S
Cd267 O271 2.439 . S
Cd267 O277 2.240 . S
Cd268 O269 2.240 . S
Cd268 O276 2.223 . S
Cd268 O278 2.297 . S
Cd268 O279 2.439 . S
O269 Cd268 2.240 . S
O269 C274 1.279 . S
O270 Cd267 2.297 . S
O270 C272 1.247 . S
O271 Cd267 2.439 . S
O271 C272 1.208 . S
C272 O270 1.247 . S
C272 O271 1.208 . S
C273 O278 1.247 . S
C273 O279 1.208 . S
C274 O266 1.315 . S
C274 O269 1.279 . S
C275 O276 1.315 . S
C275 O277 1.279 . S
O276 Cd268 2.223 . S
O276 C275 1.315 . S
O277 Cd267 2.240 . S
O277 C275 1.279 . S
O278 Cd268 2.297 . S
O278 C273 1.247 . S
O279 Cd268 2.439 . S
O279 C273 1.208 . S
O280 Cd281 2.223 . S
O280 C288 1.315 . S
Cd281 O280 2.223 . S
Cd281 O284 2.297 . S
Cd281 O285 2.439 . S
Cd281 O291 2.240 . S
Cd282 O283 2.240 . S
Cd282 O290 2.223 . S
Cd282 O292 2.297 . S
Cd282 O293 2.439 . S
O283 Cd282 2.240 . S
O283 C288 1.279 . S
O284 Cd281 2.297 . S
O284 C286 1.247 . S
O285 Cd281 2.439 . S
O285 C286 1.208 . S
C286 O284 1.247 . S
C286 O285 1.208 . S
C287 O292 1.247 . S
C287 O293 1.208 . S
C288 O280 1.315 . S
C288 O283 1.279 . S
C289 O290 1.315 . S
C289 O291 1.279 . S
O290 Cd282 2.223 . S
O290 C289 1.315 . S
O291 Cd281 2.240 . S
O291 C289 1.279 . S
O292 Cd282 2.297 . S
O292 C287 1.247 . S
O293 Cd282 2.439 . S
O293 C287 1.208 . S
O294 Cd295 2.227 . S
O294 C302 1.315 . S
Cd295 O294 2.227 . S
Cd295 O298 2.297 . S
Cd295 O299 2.439 . S
Cd295 O305 2.240 1_554 S
Cd296 O297 2.240 1_556 S
Cd296 O304 2.223 . S
Cd296 O306 2.297 . S
Cd296 O307 2.439 . S
O297 Cd296 2.240 1_554 S
O297 C302 1.287 . S
O298 Cd295 2.297 . S
O298 C300 1.247 . S
O299 Cd295 2.439 . S
O299 C300 1.208 . S
C300 O298 1.247 . S
C300 O299 1.208 . S
C301 O306 1.247 . S
C301 O307 1.208 . S
C302 O294 1.315 . S
C302 O297 1.287 . S
C303 O304 1.315 . S
C303 O305 1.279 . S
O304 Cd296 2.223 . S
O304 C303 1.315 . S
O305 Cd295 2.240 1_556 S
O305 C303 1.279 . S
O306 Cd296 2.297 . S
O306 C301 1.247 . S
O307 Cd296 2.439 . S
O307 C301 1.208 . S
O308 Cd309 2.227 . S
O308 C316 1.315 . S
Cd309 O308 2.227 . S
Cd309 O312 2.297 . S
Cd309 O313 2.439 . S
Cd309 O319 2.240 1_554 S
Cd310 O311 2.240 1_556 S
Cd310 O318 2.223 . S
Cd310 O320 2.297 . S
Cd310 O321 2.439 . S
O311 Cd310 2.240 1_554 S
O311 C316 1.287 . S
O312 Cd309 2.297 . S
O312 C314 1.247 . S
O313 Cd309 2.439 . S
O313 C314 1.208 . S
C314 O312 1.247 . S
C314 O313 1.208 . S
C315 O320 1.247 . S
C315 O321 1.208 . S
C316 O308 1.315 . S
C316 O311 1.287 . S
C317 O318 1.315 . S
C317 O319 1.279 . S
O318 Cd310 2.223 . S
O318 C317 1.315 . S
O319 Cd309 2.240 1_556 S
O319 C317 1.279 . S
O320 Cd310 2.297 . S
O320 C315 1.247 . S
O321 Cd310 2.439 . S
O321 C315 1.208 . S
O322 Cd323 2.227 . S
O322 C330 1.315 . S
Cd323 O322 2.227 . S
Cd323 O326 2.297 . S
Cd323 O327 2.439 . S
Cd323 O333 2.240 1_554 S
Cd324 O325 2.240 1_556 S
Cd324 O332 2.223 . S
Cd324 O334 2.297 . S
Cd324 O335 2.439 . S
O325 Cd324 2.240 1_554 S
O325 C330 1.287 . S
O326 Cd323 2.297 . S
O326 C328 1.247 . S
O327 Cd323 2.439 . S
O327 C328 1.208 . S
C328 O326 1.247 . S
C328 O327 1.208 . S
C329 O334 1.247 . S
C329 O335 1.208 . S
C330 O322 1.315 . S
C330 O325 1.287 . S
C331 O332 1.315 . S
C331 O333 1.279 . S
O332 Cd324 2.223 . S
O332 C331 1.315 . S
O333 Cd323 2.240 1_556 S
O333 C331 1.279 . S
O334 Cd324 2.297 . S
O334 C329 1.247 . S
O335 Cd324 2.439 . S
O335 C329 1.208 . S
O336 Cd337 2.223 . S
O336 C344 1.315 . S
Cd337 O336 2.223 . S
Cd337 O340 2.297 . S
Cd337 O341 2.439 . S
Cd337 O347 2.240 . S
Cd338 O339 2.240 . S
Cd338 O346 2.223 . S
Cd338 O348 2.297 . S
Cd338 O349 2.439 . S
O339 Cd338 2.240 . S
O339 C344 1.279 . S
O340 Cd337 2.297 . S
O340 C342 1.247 . S
O341 Cd337 2.439 . S
O341 C342 1.208 . S
C342 O340 1.247 . S
C342 O341 1.208 . S
C343 O348 1.247 . S
C343 O349 1.208 . S
C344 O336 1.315 . S
C344 O339 1.279 . S
C345 O346 1.315 . S
C345 O347 1.279 . S
O346 Cd338 2.223 . S
O346 C345 1.315 . S
O347 Cd337 2.240 . S
O347 C345 1.279 . S
O348 Cd338 2.297 . S
O348 C343 1.247 . S
O349 Cd338 2.439 . S
O349 C343 1.208 . S
O350 Cd351 2.223 . S
O350 C358 1.315 . S
Cd351 O350 2.223 . S
Cd351 O354 2.297 . S
Cd351 O355 2.439 . S
Cd351 O361 2.240 . S
Cd352 O353 2.240 . S
Cd352 O360 2.223 . S
Cd352 O362 2.297 . S
Cd352 O363 2.439 . S
O353 Cd352 2.240 . S
O353 C358 1.279 . S
O354 Cd351 2.297 . S
O354 C356 1.247 . S
O355 Cd351 2.439 . S
O355 C356 1.208 . S
C356 O354 1.247 . S
C356 O355 1.208 . S
C357 O362 1.247 . S
C357 O363 1.208 . S
C358 O350 1.315 . S
C358 O353 1.279 . S
C359 O360 1.315 . S
C359 O361 1.279 . S
O360 Cd352 2.223 . S
O360 C359 1.315 . S
O361 Cd351 2.240 . S
O361 C359 1.279 . S
O362 Cd352 2.297 . S
O362 C357 1.247 . S
O363 Cd352 2.439 . S
O363 C357 1.208 . S
O364 Cd365 2.223 . S
O364 C372 1.315 . S
Cd365 O364 2.223 . S
Cd365 O368 2.297 . S
Cd365 O369 2.439 . S
Cd365 O375 2.240 . S
Cd366 O367 2.240 . S
Cd366 O374 2.223 . S
Cd366 O376 2.297 . S
Cd366 O377 2.439 . S
O367 Cd366 2.240 . S
O367 C372 1.279 . S
O368 Cd365 2.297 . S
O368 C370 1.247 . S
O369 Cd365 2.439 . S
O369 C370 1.208 . S
C370 O368 1.247 . S
C370 O369 1.208 . S
C371 O376 1.247 . S
C371 O377 1.208 . S
C372 O364 1.315 . S
C372 O367 1.279 . S
C373 O374 1.315 . S
C373 O375 1.279 . S
O374 Cd366 2.223 . S
O374 C373 1.315 . S
O375 Cd365 2.240 . S
O375 C373 1.279 . S
O376 Cd366 2.297 . S
O376 C371 1.247 . S
O377 Cd366 2.439 . S
O377 C371 1.208 . S
O378 Cd379 2.227 . S
O378 C386 1.315 . S
Cd379 O378 2.227 . S
Cd379 O382 2.297 . S
Cd379 O383 2.439 . S
Cd379 O389 2.240 1_556 S
Cd380 O381 2.240 1_554 S
Cd380 O388 2.223 . S
Cd380 O390 2.297 . S
Cd380 O391 2.439 . S
O381 Cd380 2.240 1_556 S
O381 C386 1.287 . S
O382 Cd379 2.297 . S
O382 C384 1.247 . S
O383 Cd379 2.439 . S
O383 C384 1.208 . S
C384 O382 1.247 . S
C384 O383 1.208 . S
C385 O390 1.247 . S
C385 O391 1.208 . S
C386 O378 1.315 . S
C386 O381 1.287 . S
C387 O388 1.315 . S
C387 O389 1.279 . S
O388 Cd380 2.223 . S
O388 C387 1.315 . S
O389 Cd379 2.240 1_554 S
O389 C387 1.279 . S
O390 Cd380 2.297 . S
O390 C385 1.247 . S
O391 Cd380 2.439 . S
O391 C385 1.208 . S
O392 Cd393 2.227 . S
O392 C400 1.315 . S
Cd393 O392 2.227 . S
Cd393 O396 2.297 . S
Cd393 O397 2.439 . S
Cd393 O403 2.240 1_556 S
Cd394 O395 2.240 1_554 S
Cd394 O402 2.223 . S
Cd394 O404 2.297 . S
Cd394 O405 2.439 . S
O395 Cd394 2.240 1_556 S
O395 C400 1.287 . S
O396 Cd393 2.297 . S
O396 C398 1.247 . S
O397 Cd393 2.439 . S
O397 C398 1.208 . S
C398 O396 1.247 . S
C398 O397 1.208 . S
C399 O404 1.247 . S
C399 O405 1.208 . S
C400 O392 1.315 . S
C400 O395 1.287 . S
C401 O402 1.315 . S
C401 O403 1.279 . S
O402 Cd394 2.223 . S
O402 C401 1.315 . S
O403 Cd393 2.240 1_554 S
O403 C401 1.279 . S
O404 Cd394 2.297 . S
O404 C399 1.247 . S
O405 Cd394 2.439 . S
O405 C399 1.208 . S
O406 Cd407 2.227 . S
O406 C414 1.315 . S
Cd407 O406 2.227 . S
Cd407 O410 2.297 . S
Cd407 O411 2.439 . S
Cd407 O417 2.240 1_556 S
Cd408 O409 2.240 1_554 S
Cd408 O416 2.223 . S
Cd408 O418 2.297 . S
Cd408 O419 2.439 . S
O409 Cd408 2.240 1_556 S
O409 C414 1.287 . S
O410 Cd407 2.297 . S
O410 C412 1.247 . S
O411 Cd407 2.439 . S
O411 C412 1.208 . S
C412 O410 1.247 . S
C412 O411 1.208 . S
C413 O418 1.247 . S
C413 O419 1.208 . S
C414 O406 1.315 . S
C414 O409 1.287 . S
C415 O416 1.315 . S
C415 O417 1.279 . S
O416 Cd408 2.223 . S
O416 C415 1.315 . S
O417 Cd407 2.240 1_554 S
O417 C415 1.279 . S
O418 Cd408 2.297 . S
O418 C413 1.247 . S
O419 Cd408 2.439 . S
O419 C413 1.208 . S
O420 Cd421 2.223 . S
O420 C428 1.315 . S
Cd421 O420 2.223 . S
Cd421 O424 2.297 . S
Cd421 O425 2.439 . S
Cd421 O431 2.240 . S
Cd422 O423 2.240 . S
Cd422 O430 2.223 . S
Cd422 O432 2.297 . S
Cd422 O433 2.439 . S
O423 Cd422 2.240 . S
O423 C428 1.279 . S
O424 Cd421 2.297 . S
O424 C426 1.247 . S
O425 Cd421 2.439 . S
O425 C426 1.208 . S
C426 O424 1.247 . S
C426 O425 1.208 . S
C427 O432 1.247 . S
C427 O433 1.208 . S
C428 O420 1.315 . S
C428 O423 1.279 . S
C429 O430 1.315 . S
C429 O431 1.279 . S
O430 Cd422 2.223 . S
O430 C429 1.315 . S
O431 Cd421 2.240 . S
O431 C429 1.279 . S
O432 Cd422 2.297 . S
O432 C427 1.247 . S
O433 Cd422 2.439 . S
O433 C427 1.208 . S
O434 Cd435 2.223 . S
O434 C442 1.315 . S
Cd435 O434 2.223 . S
Cd435 O438 2.297 . S
Cd435 O439 2.439 . S
Cd435 O445 2.240 . S
Cd436 O437 2.240 . S
Cd436 O444 2.223 . S
Cd436 O446 2.297 . S
Cd436 O447 2.439 . S
O437 Cd436 2.240 . S
O437 C442 1.279 . S
O438 Cd435 2.297 . S
O438 C440 1.247 . S
O439 Cd435 2.439 . S
O439 C440 1.208 . S
C440 O438 1.247 . S
C440 O439 1.208 . S
C441 O446 1.247 . S
C441 O447 1.208 . S
C442 O434 1.315 . S
C442 O437 1.279 . S
C443 O444 1.315 . S
C443 O445 1.279 . S
O444 Cd436 2.223 . S
O444 C443 1.315 . S
O445 Cd435 2.240 . S
O445 C443 1.279 . S
O446 Cd436 2.297 . S
O446 C441 1.247 . S
O447 Cd436 2.439 . S
O447 C441 1.208 . S
O448 Cd449 2.223 . S
O448 C456 1.315 . S
Cd449 O448 2.223 . S
Cd449 O452 2.297 . S
Cd449 O453 2.439 . S
Cd449 O459 2.240 . S
Cd450 O451 2.240 . S
Cd450 O458 2.223 . S
Cd450 O460 2.297 . S
Cd450 O461 2.439 . S
O451 Cd450 2.240 . S
O451 C456 1.279 . S
O452 Cd449 2.297 . S
O452 C454 1.247 . S
O453 Cd449 2.439 . S
O453 C454 1.208 . S
C454 O452 1.247 . S
C454 O453 1.208 . S
C455 O460 1.247 . S
C455 O461 1.208 . S
C456 O448 1.315 . S
C456 O451 1.279 . S
C457 O458 1.315 . S
C457 O459 1.279 . S
O458 Cd450 2.223 . S
O458 C457 1.315 . S
O459 Cd449 2.240 . S
O459 C457 1.279 . S
O460 Cd450 2.297 . S
O460 C455 1.247 . S
O461 Cd450 2.439 . S
O461 C455 1.208 . S
O462 Cd463 2.223 . S
O462 C470 1.315 . S
Cd463 O462 2.223 . S
Cd463 O466 2.297 . S
Cd463 O467 2.439 . S
Cd463 O473 2.240 . S
Cd464 O465 2.240 . S
Cd464 O472 2.223 . S
Cd464 O474 2.297 . S
Cd464 O475 2.439 . S
O465 Cd464 2.240 . S
O465 C470 1.279 . S
O466 Cd463 2.297 . S
O466 C468 1.247 . S
O467 Cd463 2.439 . S
O467 C468 1.208 . S
C468 O466 1.247 . S
C468 O467 1.208 . S
C469 O474 1.247 . S
C469 O475 1.208 . S
C470 O462 1.315 . S
C470 O465 1.279 . S
C471 O472 1.315 . S
C471 O473 1.279 . S
O472 Cd464 2.223 . S
O472 C471 1.315 . S
O473 Cd463 2.240 . S
O473 C471 1.279 . S
O474 Cd464 2.297 . S
O474 C469 1.247 . S
O475 Cd464 2.439 . S
O475 C469 1.208 . S
O476 Cd477 2.223 . S
O476 C484 1.315 . S
Cd477 O476 2.223 . S
Cd477 O480 2.297 . S
Cd477 O481 2.439 . S
Cd477 O487 2.240 . S
Cd478 O479 2.240 . S
Cd478 O486 2.223 . S
Cd478 O488 2.297 . S
Cd478 O489 2.439 . S
O479 Cd478 2.240 . S
O479 C484 1.279 . S
O480 Cd477 2.297 . S
O480 C482 1.247 . S
O481 Cd477 2.439 . S
O481 C482 1.208 . S
C482 O480 1.247 . S
C482 O481 1.208 . S
C483 O488 1.247 . S
C483 O489 1.208 . S
C484 O476 1.315 . S
C484 O479 1.279 . S
C485 O486 1.315 . S
C485 O487 1.279 . S
O486 Cd478 2.223 . S
O486 C485 1.315 . S
O487 Cd477 2.240 . S
O487 C485 1.279 . S
O488 Cd478 2.297 . S
O488 C483 1.247 . S
O489 Cd478 2.439 . S
O489 C483 1.208 . S
O490 Cd491 2.223 . S
O490 C498 1.315 . S
Cd491 O490 2.223 . S
Cd491 O494 2.297 . S
Cd491 O495 2.439 . S
Cd491 O501 2.240 . S
Cd492 O493 2.240 . S
Cd492 O500 2.223 . S
Cd492 O502 2.297 . S
Cd492 O503 2.439 . S
O493 Cd492 2.240 . S
O493 C498 1.279 . S
O494 Cd491 2.297 . S
O494 C496 1.247 . S
O495 Cd491 2.439 . S
O495 C496 1.208 . S
C496 O494 1.247 . S
C496 O495 1.208 . S
C497 O502 1.247 . S
C497 O503 1.208 . S
C498 O490 1.315 . S
C498 O493 1.279 . S
C499 O500 1.315 . S
C499 O501 1.279 . S
O500 Cd492 2.223 . S
O500 C499 1.315 . S
O501 Cd491 2.240 . S
O501 C499 1.279 . S
O502 Cd492 2.297 . S
O502 C497 1.247 . S
O503 Cd492 2.439 . S
O503 C497 1.208 . S
C504 C505 1.349 . S
C504 C506 1.327 . S
C504 H529 0.950 . S
C505 C504 1.349 . S
C505 C521 1.349 . S
C506 C504 1.327 . S
C506 C525 1.429 . S
C506 H530 0.950 . S
C507 C524 1.574 . S
C507 C526 1.368 . S
C507 H531 0.949 . S
H508 C512 0.949 . S
C509 C510 1.349 . S
C509 C511 1.327 . S
C509 H532 0.950 . S
C510 C509 1.349 . S
C510 C522 1.349 . S
C511 C509 1.327 . S
C511 C527 1.429 . S
C511 H533 0.950 . S
C512 H508 0.949 . S
C512 C520 1.574 . S
C512 C528 1.368 . S
H513 C521 0.950 . S
H514 C519 0.950 . S
H515 C520 0.949 . S
H516 C522 0.950 . S
H517 C523 0.950 . S
H518 C524 0.949 . S
C519 H514 0.950 . S
C519 C521 1.327 . S
C519 C525 1.429 . S
C520 C512 1.574 . S
C520 H515 0.949 . S
C520 C526 1.368 . S
C521 C505 1.349 . S
C521 H513 0.950 . S
C521 C519 1.327 . S
C522 C510 1.349 . S
C522 H516 0.950 . S
C522 C523 1.327 . S
C523 H517 0.950 . S
C523 C522 1.327 . S
C523 C527 1.429 . S
C524 C507 1.574 . S
C524 H518 0.949 . S
C524 C528 1.368 . S
C525 C506 1.429 . S
C525 C519 1.429 . S
C525 C526 1.523 . S
C526 C507 1.368 . S
C526 C520 1.368 . S
C526 C525 1.523 . S
C527 C511 1.429 . S
C527 C523 1.429 . S
C527 C528 1.523 . S
C528 C512 1.368 . S
C528 C524 1.368 . S
C528 C527 1.523 . S
H529 C504 0.950 . S
H530 C506 0.950 . S
H531 C507 0.949 . S
H532 C509 0.950 . S
H533 C511 0.950 . S
C534 C535 1.349 . S
C534 C536 1.327 . S
C534 H559 0.950 . S
C535 C534 1.349 . S
C535 C551 1.349 . S
C536 C534 1.327 . S
C536 C555 1.429 . S
C536 H560 0.950 . S
C537 C554 1.574 . S
C537 C556 1.368 . S
C537 H561 0.949 . S
H538 C542 0.949 . S
C539 C540 1.349 . S
C539 C541 1.327 . S
C539 H562 0.950 . S
C540 C539 1.349 . S
C540 C552 1.349 . S
C541 C539 1.327 . S
C541 C557 1.429 . S
C541 H563 0.950 . S
C542 H538 0.949 . S
C542 C550 1.574 . S
C542 C558 1.368 . S
H543 C551 0.950 . S
H544 C549 0.950 . S
H545 C550 0.949 . S
H546 C552 0.950 . S
H547 C553 0.950 . S
H548 C554 0.949 . S
C549 H544 0.950 . S
C549 C551 1.327 . S
C549 C555 1.429 . S
C550 C542 1.574 . S
C550 H545 0.949 . S
C550 C556 1.368 . S
C551 C535 1.349 . S
C551 H543 0.950 . S
C551 C549 1.327 . S
C552 C540 1.349 . S
C552 H546 0.950 . S
C552 C553 1.327 . S
C553 H547 0.950 . S
C553 C552 1.327 . S
C553 C557 1.429 . S
C554 C537 1.574 . S
C554 H548 0.949 . S
C554 C558 1.368 . S
C555 C536 1.429 . S
C555 C549 1.429 . S
C555 C556 1.523 . S
C556 C537 1.368 . S
C556 C550 1.368 . S
C556 C555 1.523 . S
C557 C541 1.429 . S
C557 C553 1.429 . S
C557 C558 1.523 . S
C558 C542 1.368 . S
C558 C554 1.368 . S
C558 C557 1.523 . S
H559 C534 0.950 . S
H560 C536 0.950 . S
H561 C537 0.949 . S
H562 C539 0.950 . S
H563 C541 0.950 . S
C564 C565 1.349 . S
C564 C566 1.327 . S
C564 H589 0.950 . S
C565 C564 1.349 . S
C565 C581 1.349 . S
C566 C564 1.327 . S
C566 C585 1.429 . S
C566 H590 0.950 . S
C567 C584 1.574 . S
C567 C586 1.368 . S
C567 H591 0.949 . S
H568 C572 0.949 . S
C569 C570 1.349 . S
C569 C571 1.327 . S
C569 H592 0.950 . S
C570 C569 1.349 . S
C570 C582 1.349 . S
C571 C569 1.327 . S
C571 C587 1.429 . S
C571 H593 0.950 . S
C572 H568 0.949 . S
C572 C580 1.574 . S
C572 C588 1.368 . S
H573 C581 0.950 . S
H574 C579 0.950 . S
H575 C580 0.949 . S
H576 C582 0.950 . S
H577 C583 0.950 . S
H578 C584 0.949 . S
C579 H574 0.950 . S
C579 C581 1.327 . S
C579 C585 1.429 . S
C580 C572 1.574 . S
C580 H575 0.949 . S
C580 C586 1.368 . S
C581 C565 1.349 . S
C581 H573 0.950 . S
C581 C579 1.327 . S
C582 C570 1.349 . S
C582 H576 0.950 . S
C582 C583 1.327 . S
C583 H577 0.950 . S
C583 C582 1.327 . S
C583 C587 1.429 . S
C584 C567 1.574 . S
C584 H578 0.949 . S
C584 C588 1.368 . S
C585 C566 1.429 . S
C585 C579 1.429 . S
C585 C586 1.523 . S
C586 C567 1.368 . S
C586 C580 1.368 . S
C586 C585 1.523 . S
C587 C571 1.429 . S
C587 C583 1.429 . S
C587 C588 1.523 . S
C588 C572 1.368 . S
C588 C584 1.368 . S
C588 C587 1.523 . S
H589 C564 0.950 . S
H590 C566 0.950 . S
H591 C567 0.949 . S
H592 C569 0.950 . S
H593 C571 0.950 . S
C594 C595 1.349 . S
C594 C596 1.327 . S
C594 H619 0.950 . S
C595 C594 1.349 . S
C595 C611 1.349 . S
C596 C594 1.327 . S
C596 C615 1.429 1_556 S
C596 H620 0.950 . S
C597 C614 1.574 . S
C597 C616 1.368 . S
C597 H621 0.949 . S
H598 C602 0.949 . S
C599 C600 1.349 . S
C599 C601 1.327 . S
C599 H622 0.950 . S
C600 C599 1.349 . S
C600 C612 1.349 . S
C601 C599 1.327 . S
C601 C617 1.429 . S
C601 H623 0.950 . S
C602 H598 0.949 . S
C602 C610 1.574 . S
C602 C618 1.368 . S
H603 C611 0.950 . S
H604 C609 0.950 1_554 S
H605 C610 0.949 . S
H606 C612 0.950 . S
H607 C613 0.950 . S
H608 C614 0.949 . S
C609 H604 0.950 1_556 S
C609 C611 1.327 . S
C609 C615 1.429 1_556 S
C610 C602 1.574 . S
C610 H605 0.949 . S
C610 C616 1.368 . S
C611 C595 1.349 . S
C611 H603 0.950 . S
C611 C609 1.327 . S
C612 C600 1.349 . S
C612 H606 0.950 . S
C612 C613 1.327 . S
C613 H607 0.950 . S
C613 C612 1.327 . S
C613 C617 1.429 . S
C614 C597 1.574 . S
C614 H608 0.949 . S
C614 C618 1.368 . S
C615 C596 1.429 1_554 S
C615 C609 1.429 1_554 S
C615 C616 1.523 . S
C616 C597 1.368 . S
C616 C610 1.368 . S
C616 C615 1.523 . S
C617 C601 1.429 . S
C617 C613 1.429 . S
C617 C618 1.523 . S
C618 C602 1.368 . S
C618 C614 1.368 . S
C618 C617 1.523 . S
H619 C594 0.950 . S
H620 C596 0.950 . S
H621 C597 0.949 . S
H622 C599 0.950 . S
H623 C601 0.950 . S
C624 C625 1.349 . S
C624 C626 1.327 . S
C624 H649 0.950 . S
C625 C624 1.349 . S
C625 C641 1.349 . S
C626 C624 1.327 . S
C626 C645 1.429 . S
C626 H650 0.950 . S
C627 C644 1.574 . S
C627 C646 1.368 . S
C627 H651 0.949 . S
H628 C632 0.949 . S
C629 C630 1.349 . S
C629 C631 1.327 . S
C629 H652 0.950 . S
C630 C629 1.349 . S
C630 C642 1.349 . S
C631 C629 1.327 . S
C631 C647 1.429 1_556 S
C631 H653 0.950 1_556 S
C632 H628 0.949 . S
C632 C640 1.574 . S
C632 C648 1.368 . S
H633 C641 0.950 . S
H634 C639 0.950 . S
H635 C640 0.949 . S
H636 C642 0.950 . S
H637 C643 0.950 . S
H638 C644 0.949 . S
C639 H634 0.950 . S
C639 C641 1.327 . S
C639 C645 1.429 . S
C640 C632 1.574 . S
C640 H635 0.949 . S
C640 C646 1.368 . S
C641 C625 1.349 . S
C641 H633 0.950 . S
C641 C639 1.327 . S
C642 C630 1.349 . S
C642 H636 0.950 . S
C642 C643 1.327 . S
C643 H637 0.950 . S
C643 C642 1.327 . S
C643 C647 1.429 1_556 S
C644 C627 1.574 . S
C644 H638 0.949 . S
C644 C648 1.368 . S
C645 C626 1.429 . S
C645 C639 1.429 . S
C645 C646 1.523 . S
C646 C627 1.368 . S
C646 C640 1.368 . S
C646 C645 1.523 . S
C647 C631 1.429 1_554 S
C647 C643 1.429 1_554 S
C647 C648 1.523 . S
C648 C632 1.368 . S
C648 C644 1.368 . S
C648 C647 1.523 . S
H649 C624 0.950 . S
H650 C626 0.950 . S
H651 C627 0.949 . S
H652 C629 0.950 . S
H653 C631 0.950 1_554 S
C654 C655 1.349 . S
C654 C656 1.327 . S
C654 H679 0.950 . S
C655 C654 1.349 . S
C655 C671 1.349 . S
C656 C654 1.327 . S
C656 C675 1.429 . S
C656 H680 0.950 . S
C657 C674 1.574 . S
C657 C676 1.368 . S
C657 H681 0.949 . S
H658 C662 0.949 . S
C659 C660 1.349 . S
C659 C661 1.327 . S
C659 H682 0.950 . S
C660 C659 1.349 . S
C660 C672 1.349 . S
C661 C659 1.327 . S
C661 C677 1.429 1_556 S
C661 H683 0.950 . S
C662 H658 0.949 . S
C662 C670 1.574 . S
C662 C678 1.368 . S
H663 C671 0.950 . S
H664 C669 0.950 . S
H665 C670 0.949 . S
H666 C672 0.950 . S
H667 C673 0.950 1_554 S
H668 C674 0.949 . S
C669 H664 0.950 . S
C669 C671 1.327 . S
C669 C675 1.429 . S
C670 C662 1.574 . S
C670 H665 0.949 . S
C670 C676 1.368 . S
C671 C655 1.349 . S
C671 H663 0.950 . S
C671 C669 1.327 . S
C672 C660 1.349 . S
C672 H666 0.950 . S
C672 C673 1.327 . S
C673 H667 0.950 1_556 S
C673 C672 1.327 . S
C673 C677 1.429 1_556 S
C674 C657 1.574 . S
C674 H668 0.949 . S
C674 C678 1.368 . S
C675 C656 1.429 . S
C675 C669 1.429 . S
C675 C676 1.523 . S
C676 C657 1.368 . S
C676 C670 1.368 . S
C676 C675 1.523 . S
C677 C661 1.429 1_554 S
C677 C673 1.429 1_554 S
C677 C678 1.523 . S
C678 C662 1.368 . S
C678 C674 1.368 . S
C678 C677 1.523 . S
H679 C654 0.950 . S
H680 C656 0.950 . S
H681 C657 0.949 . S
H682 C659 0.950 . S
H683 C661 0.950 . S
C684 C685 1.349 . S
C684 C686 1.327 . S
C684 H709 0.950 . S
C685 C684 1.349 . S
C685 C701 1.349 . S
C686 C684 1.327 . S
C686 C705 1.429 . S
C686 H710 0.950 . S
C687 C704 1.574 . S
C687 C706 1.368 . S
C687 H711 0.949 . S
H688 C692 0.949 . S
C689 C690 1.349 . S
C689 C691 1.327 . S
C689 H712 0.950 . S
C690 C689 1.349 . S
C690 C702 1.349 . S
C691 C689 1.327 . S
C691 C707 1.429 . S
C691 H713 0.950 . S
C692 H688 0.949 . S
C692 C700 1.574 . S
C692 C708 1.368 . S
H693 C701 0.950 . S
H694 C699 0.950 . S
H695 C700 0.949 . S
H696 C702 0.950 . S
H697 C703 0.950 . S
H698 C704 0.949 . S
C699 H694 0.950 . S
C699 C701 1.327 . S
C699 C705 1.429 . S
C700 C692 1.574 . S
C700 H695 0.949 . S
C700 C706 1.368 . S
C701 C685 1.349 . S
C701 H693 0.950 . S
C701 C699 1.327 . S
C702 C690 1.349 . S
C702 H696 0.950 . S
C702 C703 1.327 . S
C703 H697 0.950 . S
C703 C702 1.327 . S
C703 C707 1.429 . S
C704 C687 1.574 . S
C704 H698 0.949 . S
C704 C708 1.368 . S
C705 C686 1.429 . S
C705 C699 1.429 . S
C705 C706 1.523 . S
C706 C687 1.368 . S
C706 C700 1.368 . S
C706 C705 1.523 . S
C707 C691 1.429 . S
C707 C703 1.429 . S
C707 C708 1.523 . S
C708 C692 1.368 . S
C708 C704 1.368 . S
C708 C707 1.523 . S
H709 C684 0.950 . S
H710 C686 0.950 . S
H711 C687 0.949 . S
H712 C689 0.950 . S
H713 C691 0.950 . S
C714 C715 1.349 . S
C714 C716 1.327 . S
C714 H739 0.950 . S
C715 C714 1.349 . S
C715 C731 1.349 . S
C716 C714 1.327 . S
C716 C735 1.429 . S
C716 H740 0.950 . S
C717 C734 1.574 . S
C717 C736 1.368 . S
C717 H741 0.949 . S
H718 C722 0.949 . S
C719 C720 1.349 . S
C719 C721 1.327 . S
C719 H742 0.950 . S
C720 C719 1.349 . S
C720 C732 1.349 . S
C721 C719 1.327 . S
C721 C737 1.429 . S
C721 H743 0.950 . S
C722 H718 0.949 . S
C722 C730 1.574 . S
C722 C738 1.368 . S
H723 C731 0.950 . S
H724 C729 0.950 . S
H725 C730 0.949 . S
H726 C732 0.950 . S
H727 C733 0.950 . S
H728 C734 0.949 . S
C729 H724 0.950 . S
C729 C731 1.327 . S
C729 C735 1.429 . S
C730 C722 1.574 . S
C730 H725 0.949 . S
C730 C736 1.368 . S
C731 C715 1.349 . S
C731 H723 0.950 . S
C731 C729 1.327 . S
C732 C720 1.349 . S
C732 H726 0.950 . S
C732 C733 1.327 . S
C733 H727 0.950 . S
C733 C732 1.327 . S
C733 C737 1.429 . S
C734 C717 1.574 . S
C734 H728 0.949 . S
C734 C738 1.368 . S
C735 C716 1.429 . S
C735 C729 1.429 . S
C735 C736 1.523 . S
C736 C717 1.368 . S
C736 C730 1.368 . S
C736 C735 1.523 . S
C737 C721 1.429 . S
C737 C733 1.429 . S
C737 C738 1.523 . S
C738 C722 1.368 . S
C738 C734 1.368 . S
C738 C737 1.523 . S
H739 C714 0.950 . S
H740 C716 0.950 . S
H741 C717 0.949 . S
H742 C719 0.950 . S
H743 C721 0.950 . S
C744 C745 1.349 . S
C744 C746 1.327 . S
C744 H769 0.950 . S
C745 C744 1.349 . S
C745 C761 1.349 . S
C746 C744 1.327 . S
C746 C765 1.429 . S
C746 H770 0.950 . S
C747 C764 1.574 . S
C747 C766 1.368 . S
C747 H771 0.949 . S
H748 C752 0.949 . S
C749 C750 1.349 . S
C749 C751 1.327 . S
C749 H772 0.950 . S
C750 C749 1.349 . S
C750 C762 1.349 . S
C751 C749 1.327 . S
C751 C767 1.429 . S
C751 H773 0.950 . S
C752 H748 0.949 . S
C752 C760 1.574 . S
C752 C768 1.368 . S
H753 C761 0.950 . S
H754 C759 0.950 . S
H755 C760 0.949 . S
H756 C762 0.950 . S
H757 C763 0.950 . S
H758 C764 0.949 . S
C759 H754 0.950 . S
C759 C761 1.327 . S
C759 C765 1.429 . S
C760 C752 1.574 . S
C760 H755 0.949 . S
C760 C766 1.368 . S
C761 C745 1.349 . S
C761 H753 0.950 . S
C761 C759 1.327 . S
C762 C750 1.349 . S
C762 H756 0.950 . S
C762 C763 1.327 . S
C763 H757 0.950 . S
C763 C762 1.327 . S
C763 C767 1.429 . S
C764 C747 1.574 . S
C764 H758 0.949 . S
C764 C768 1.368 . S
C765 C746 1.429 . S
C765 C759 1.429 . S
C765 C766 1.523 . S
C766 C747 1.368 . S
C766 C760 1.368 . S
C766 C765 1.523 . S
C767 C751 1.429 . S
C767 C763 1.429 . S
C767 C768 1.523 . S
C768 C752 1.368 . S
C768 C764 1.368 . S
C768 C767 1.523 . S
H769 C744 0.950 . S
H770 C746 0.950 . S
H771 C747 0.949 . S
H772 C749 0.950 . S
H773 C751 0.950 . S
C774 C775 1.349 . S
C774 C776 1.327 . S
C774 H799 0.950 . S
C775 C774 1.349 . S
C775 C791 1.349 . S
C776 C774 1.327 . S
C776 C795 1.429 . S
C776 H800 0.950 . S
C777 C794 1.574 . S
C777 C796 1.368 . S
C777 H801 0.949 . S
H778 C782 0.949 . S
C779 C780 1.349 . S
C779 C781 1.327 . S
C779 H802 0.950 . S
C780 C779 1.349 . S
C780 C792 1.349 . S
C781 C779 1.327 . S
C781 C797 1.429 1_554 S
C781 H803 0.950 . S
C782 H778 0.949 . S
C782 C790 1.574 . S
C782 C798 1.368 . S
H783 C791 0.950 . S
H784 C789 0.950 . S
H785 C790 0.949 . S
H786 C792 0.950 . S
H787 C793 0.950 1_556 S
H788 C794 0.949 . S
C789 H784 0.950 . S
C789 C791 1.327 . S
C789 C795 1.429 . S
C790 C782 1.574 . S
C790 H785 0.949 . S
C790 C796 1.368 . S
C791 C775 1.349 . S
C791 H783 0.950 . S
C791 C789 1.327 . S
C792 C780 1.349 . S
C792 H786 0.950 . S
C792 C793 1.327 . S
C793 H787 0.950 1_554 S
C793 C792 1.327 . S
C793 C797 1.429 1_554 S
C794 C777 1.574 . S
C794 H788 0.949 . S
C794 C798 1.368 . S
C795 C776 1.429 . S
C795 C789 1.429 . S
C795 C796 1.523 . S
C796 C777 1.368 . S
C796 C790 1.368 . S
C796 C795 1.523 . S
C797 C781 1.429 1_556 S
C797 C793 1.429 1_556 S
C797 C798 1.523 . S
C798 C782 1.368 . S
C798 C794 1.368 . S
C798 C797 1.523 . S
H799 C774 0.950 . S
H800 C776 0.950 . S
H801 C777 0.949 . S
H802 C779 0.950 . S
H803 C781 0.950 . S
C804 C805 1.349 . S
C804 C806 1.327 . S
C804 H829 0.950 . S
C805 C804 1.349 . S
C805 C821 1.349 . S
C806 C804 1.327 . S
C806 C825 1.429 1_554 S
C806 H830 0.950 . S
C807 C824 1.574 . S
C807 C826 1.368 . S
C807 H831 0.949 . S
H808 C812 0.949 . S
C809 C810 1.349 . S
C809 C811 1.327 . S
C809 H832 0.950 . S
C810 C809 1.349 . S
C810 C822 1.349 . S
C811 C809 1.327 . S
C811 C827 1.429 . S
C811 H833 0.950 . S
C812 H808 0.949 . S
C812 C820 1.574 . S
C812 C828 1.368 . S
H813 C821 0.950 . S
H814 C819 0.950 1_556 S
H815 C820 0.949 . S
H816 C822 0.950 . S
H817 C823 0.950 . S
H818 C824 0.949 . S
C819 H814 0.950 1_554 S
C819 C821 1.327 . S
C819 C825 1.429 1_554 S
C820 C812 1.574 . S
C820 H815 0.949 . S
C820 C826 1.368 . S
C821 C805 1.349 . S
C821 H813 0.950 . S
C821 C819 1.327 . S
C822 C810 1.349 . S
C822 H816 0.950 . S
C822 C823 1.327 . S
C823 H817 0.950 . S
C823 C822 1.327 . S
C823 C827 1.429 . S
C824 C807 1.574 . S
C824 H818 0.949 . S
C824 C828 1.368 . S
C825 C806 1.429 1_556 S
C825 C819 1.429 1_556 S
C825 C826 1.523 . S
C826 C807 1.368 . S
C826 C820 1.368 . S
C826 C825 1.523 . S
C827 C811 1.429 . S
C827 C823 1.429 . S
C827 C828 1.523 . S
C828 C812 1.368 . S
C828 C824 1.368 . S
C828 C827 1.523 . S
H829 C804 0.950 . S
H830 C806 0.950 . S
H831 C807 0.949 . S
H832 C809 0.950 . S
H833 C811 0.950 . S
C834 C835 1.349 . S
C834 C836 1.327 . S
C834 H859 0.950 . S
C835 C834 1.349 . S
C835 C851 1.349 . S
C836 C834 1.327 . S
C836 C855 1.429 . S
C836 H860 0.950 . S
C837 C854 1.574 . S
C837 C856 1.368 . S
C837 H861 0.949 . S
H838 C842 0.949 . S
C839 C840 1.349 . S
C839 C841 1.327 . S
C839 H862 0.950 . S
C840 C839 1.349 . S
C840 C852 1.349 . S
C841 C839 1.327 . S
C841 C857 1.429 1_554 S
C841 H863 0.950 1_554 S
C842 H838 0.949 . S
C842 C850 1.574 . S
C842 C858 1.368 . S
H843 C851 0.950 . S
H844 C849 0.950 . S
H845 C850 0.949 . S
H846 C852 0.950 . S
H847 C853 0.950 . S
H848 C854 0.949 . S
C849 H844 0.950 . S
C849 C851 1.327 . S
C849 C855 1.429 . S
C850 C842 1.574 . S
C850 H845 0.949 . S
C850 C856 1.368 . S
C851 C835 1.349 . S
C851 H843 0.950 . S
C851 C849 1.327 . S
C852 C840 1.349 . S
C852 H846 0.950 . S
C852 C853 1.327 . S
C853 H847 0.950 . S
C853 C852 1.327 . S
C853 C857 1.429 1_554 S
C854 C837 1.574 . S
C854 H848 0.949 . S
C854 C858 1.368 . S
C855 C836 1.429 . S
C855 C849 1.429 . S
C855 C856 1.523 . S
C856 C837 1.368 . S
C856 C850 1.368 . S
C856 C855 1.523 . S
C857 C841 1.429 1_556 S
C857 C853 1.429 1_556 S
C857 C858 1.523 . S
C858 C842 1.368 . S
C858 C854 1.368 . S
C858 C857 1.523 . S
H859 C834 0.950 . S
H860 C836 0.950 . S
H861 C837 0.949 . S
H862 C839 0.950 . S
H863 C841 0.950 1_556 S
C864 C865 1.349 . S
C864 C866 1.327 . S
C864 H889 0.950 . S
C865 C864 1.349 . S
C865 C881 1.349 . S
C866 C864 1.327 . S
C866 C885 1.429 . S
C866 H890 0.950 1_655 S
C867 C884 1.574 . S
C867 C886 1.368 . S
C867 H891 0.949 . S
H868 C872 0.949 . S
C869 C870 1.349 1_655 S
C869 C871 1.327 . S
C869 H892 0.950 . S
C870 C869 1.349 1_455 S
C870 C882 1.349 . S
C871 C869 1.327 . S
C871 C887 1.429 1_655 S
C871 H893 0.950 . S
C872 H868 0.949 . S
C872 C880 1.574 . S
C872 C888 1.368 1_455 S
H873 C881 0.950 . S
H874 C879 0.950 . S
H875 C880 0.949 . S
H876 C882 0.950 . S
H877 C883 0.950 . S
H878 C884 0.949 . S
C879 H874 0.950 . S
C879 C881 1.327 . S
C879 C885 1.429 . S
C880 C872 1.574 . S
C880 H875 0.949 . S
C880 C886 1.368 1_455 S
C881 C865 1.349 . S
C881 H873 0.950 . S
C881 C879 1.327 . S
C882 C870 1.349 . S
C882 H876 0.950 . S
C882 C883 1.327 . S
C883 H877 0.950 . S
C883 C882 1.327 . S
C883 C887 1.429 . S
C884 C867 1.574 . S
C884 H878 0.949 . S
C884 C888 1.368 . S
C885 C866 1.429 . S
C885 C879 1.429 . S
C885 C886 1.523 . S
C886 C867 1.368 . S
C886 C880 1.368 1_655 S
C886 C885 1.523 . S
C887 C871 1.429 1_455 S
C887 C883 1.429 . S
C887 C888 1.523 1_455 S
C888 C872 1.368 1_655 S
C888 C884 1.368 . S
C888 C887 1.523 1_655 S
H889 C864 0.950 . S
H890 C866 0.950 1_455 S
H891 C867 0.949 . S
H892 C869 0.950 . S
H893 C871 0.950 . S
C894 C895 1.349 . S
C894 C896 1.327 . S
C894 H919 0.950 . S
C895 C894 1.349 . S
C895 C911 1.349 . S
C896 C894 1.327 . S
C896 C915 1.429 . S
C896 H920 0.950 . S
C897 C914 1.574 . S
C897 C916 1.368 . S
C897 H921 0.949 . S
H898 C902 0.949 . S
C899 C900 1.349 . S
C899 C901 1.327 . S
C899 H922 0.950 . S
C900 C899 1.349 . S
C900 C912 1.349 . S
C901 C899 1.327 . S
C901 C917 1.429 . S
C901 H923 0.950 . S
C902 H898 0.949 . S
C902 C910 1.574 . S
C902 C918 1.368 . S
H903 C911 0.950 . S
H904 C909 0.950 . S
H905 C910 0.949 . S
H906 C912 0.950 . S
H907 C913 0.950 . S
H908 C914 0.949 . S
C909 H904 0.950 . S
C909 C911 1.327 . S
C909 C915 1.429 . S
C910 C902 1.574 . S
C910 H905 0.949 . S
C910 C916 1.368 . S
C911 C895 1.349 . S
C911 H903 0.950 . S
C911 C909 1.327 . S
C912 C900 1.349 . S
C912 H906 0.950 . S
C912 C913 1.327 . S
C913 H907 0.950 . S
C913 C912 1.327 . S
C913 C917 1.429 . S
C914 C897 1.574 . S
C914 H908 0.949 . S
C914 C918 1.368 . S
C915 C896 1.429 . S
C915 C909 1.429 . S
C915 C916 1.523 . S
C916 C897 1.368 . S
C916 C910 1.368 . S
C916 C915 1.523 . S
C917 C901 1.429 . S
C917 C913 1.429 . S
C917 C918 1.523 . S
C918 C902 1.368 . S
C918 C914 1.368 . S
C918 C917 1.523 . S
H919 C894 0.950 . S
H920 C896 0.950 . S
H921 C897 0.949 . S
H922 C899 0.950 . S
H923 C901 0.950 . S
C924 C925 1.349 . S
C924 C926 1.327 . S
C924 H949 0.950 . S
C925 C924 1.349 . S
C925 C941 1.349 . S
C926 C924 1.327 . S
C926 C945 1.429 . S
C926 H950 0.950 . S
C927 C944 1.574 . S
C927 C946 1.368 1_565 S
C927 H951 0.949 . S
H928 C932 0.949 . S
C929 C930 1.349 . S
C929 C931 1.327 . S
C929 H952 0.950 . S
C930 C929 1.349 . S
C930 C942 1.318 1_565 S
C931 C929 1.327 . S
C931 C947 1.429 . S
C931 H953 0.950 . S
C932 H928 0.949 . S
C932 C940 1.574 . S
C932 C948 1.368 . S
H933 C941 0.950 . S
H934 C939 0.950 1_565 S
H935 C940 0.949 . S
H936 C942 0.968 . S
H937 C943 0.950 . S
H938 C944 0.949 . S
C939 H934 0.950 1_545 S
C939 C941 1.327 . S
C939 C945 1.429 . S
C940 C932 1.574 . S
C940 H935 0.949 . S
C940 C946 1.368 . S
C941 C925 1.349 . S
C941 H933 0.950 . S
C941 C939 1.327 . S
C942 C930 1.318 1_545 S
C942 H936 0.968 . S
C942 C943 1.344 . S
C943 H937 0.950 . S
C943 C942 1.344 . S
C943 C947 1.429 1_545 S
C944 C927 1.574 . S
C944 H938 0.949 . S
C944 C948 1.368 1_565 S
C945 C926 1.429 . S
C945 C939 1.429 . S
C945 C946 1.523 . S
C946 C927 1.368 1_545 S
C946 C940 1.368 . S
C946 C945 1.523 . S
C947 C931 1.429 . S
C947 C943 1.429 1_565 S
C947 C948 1.523 1_565 S
C948 C932 1.368 . S
C948 C944 1.368 1_545 S
C948 C947 1.523 1_545 S
H949 C924 0.950 . S
H950 C926 0.950 . S
H951 C927 0.949 . S
H952 C929 0.950 . S
H953 C931 0.950 . S
C954 C955 1.349 . S
C954 C956 1.327 . S
C954 H979 0.950 . S
C955 C954 1.349 . S
C955 C971 1.304 1_545 S
C956 C954 1.327 . S
C956 C975 1.429 . S
C956 H980 0.950 . S
C957 C974 1.574 . S
C957 C976 1.368 . S
C957 H981 0.949 . S
H958 C962 0.949 . S
C959 C960 1.349 . S
C959 C961 1.327 . S
C959 H982 0.950 . S
C960 C959 1.349 . S
C960 C972 1.349 . S
C961 C959 1.327 . S
C961 C977 1.429 . S
C961 H983 0.950 . S
C962 H958 0.949 . S
C962 C970 1.574 . S
C962 C978 1.368 1_545 S
H963 C971 0.979 . S
H964 C969 0.950 . S
H965 C970 0.949 . S
H966 C972 0.950 . S
H967 C973 0.950 1_545 S
H968 C974 0.949 . S
C969 H964 0.950 . S
C969 C971 1.352 . S
C969 C975 1.429 1_565 S
C970 C962 1.574 . S
C970 H965 0.949 . S
C970 C976 1.368 1_545 S
C971 C955 1.304 1_565 S
C971 H963 0.979 . S
C971 C969 1.352 . S
C972 C960 1.349 . S
C972 H966 0.950 . S
C972 C973 1.327 . S
C973 H967 0.950 1_565 S
C973 C972 1.327 . S
C973 C977 1.429 . S
C974 C957 1.574 . S
C974 H968 0.949 . S
C974 C978 1.368 . S
C975 C956 1.429 . S
C975 C969 1.429 1_545 S
C975 C976 1.523 1_545 S
C976 C957 1.368 . S
C976 C970 1.368 1_565 S
C976 C975 1.523 1_565 S
C977 C961 1.429 . S
C977 C973 1.429 . S
C977 C978 1.523 . S
C978 C962 1.368 1_565 S
C978 C974 1.368 . S
C978 C977 1.523 . S
H979 C954 0.950 . S
H980 C956 0.950 . S
H981 C957 0.949 . S
H982 C959 0.950 . S
H983 C961 0.950 . S
C984 C985 1.349 1_455 S
C984 C986 1.327 . S
C984 H1009 0.950 . S
C985 C984 1.349 1_655 S
C985 C1001 1.349 . S
C986 C984 1.327 . S
C986 C1005 1.429 1_455 S
C986 H1010 0.950 . S
C987 C1004 1.574 . S
C987 C1006 1.368 1_655 S
C987 H1011 0.949 . S
H988 C992 0.949 . S
C989 C990 1.349 . S
C989 C991 1.327 . S
C989 H1012 0.950 . S
C990 C989 1.349 . S
C990 C1002 1.349 . S
C991 C989 1.327 . S
C991 C1007 1.429 . S
C991 H1013 0.950 1_455 S
C992 H988 0.949 . S
C992 C1000 1.574 . S
C992 C1008 1.368 . S
H993 C1001 0.950 . S
H994 C999 0.950 . S
H995 C1000 0.949 . S
H996 C1002 0.950 . S
H997 C1003 0.950 . S
H998 C1004 0.949 . S
C999 H994 0.950 . S
C999 C1001 1.327 . S
C999 C1005 1.429 . S
C1000 C992 1.574 . S
C1000 H995 0.949 . S
C1000 C1006 1.368 . S
C1001 C985 1.349 . S
C1001 H993 0.950 . S
C1001 C999 1.327 . S
C1002 C990 1.349 . S
C1002 H996 0.950 . S
C1002 C1003 1.327 . S
C1003 H997 0.950 . S
C1003 C1002 1.327 . S
C1003 C1007 1.429 . S
C1004 C987 1.574 . S
C1004 H998 0.949 . S
C1004 C1008 1.368 1_655 S
C1005 C986 1.429 1_655 S
C1005 C999 1.429 . S
C1005 C1006 1.523 1_655 S
C1006 C987 1.368 1_455 S
C1006 C1000 1.368 . S
C1006 C1005 1.523 1_455 S
C1007 C991 1.429 . S
C1007 C1003 1.429 . S
C1007 C1008 1.523 . S
C1008 C992 1.368 . S
C1008 C1004 1.368 1_455 S
C1008 C1007 1.523 . S
H1009 C984 0.950 . S
H1010 C986 0.950 . S
H1011 C987 0.949 . S
H1012 C989 0.950 . S
H1013 C991 0.950 1_655 S
C1014 C1015 1.349 . S
C1014 C1016 1.327 . S
C1014 H1039 0.950 . S
C1015 C1014 1.349 . S
C1015 C1031 1.349 . S
C1016 C1014 1.327 . S
C1016 C1035 1.429 . S
C1016 H1040 0.950 . S
C1017 C1034 1.574 . S
C1017 C1036 1.368 . S
C1017 H1041 0.949 . S
H1018 C1022 0.949 . S
C1019 C1020 1.349 . S
C1019 C1021 1.327 . S
C1019 H1042 0.950 . S
C1020 C1019 1.349 . S
C1020 C1032 1.349 . S
C1021 C1019 1.327 . S
C1021 C1037 1.429 . S
C1021 H1043 0.950 . S
C1022 H1018 0.949 . S
C1022 C1030 1.574 . S
C1022 C1038 1.368 . S
H1023 C1031 0.950 . S
H1024 C1029 0.950 . S
H1025 C1030 0.949 . S
H1026 C1032 0.950 . S
H1027 C1033 0.950 . S
H1028 C1034 0.949 . S
C1029 H1024 0.950 . S
C1029 C1031 1.327 . S
C1029 C1035 1.429 . S
C1030 C1022 1.574 . S
C1030 H1025 0.949 . S
C1030 C1036 1.368 . S
C1031 C1015 1.349 . S
C1031 H1023 0.950 . S
C1031 C1029 1.327 . S
C1032 C1020 1.349 . S
C1032 H1026 0.950 . S
C1032 C1033 1.327 . S
C1033 H1027 0.950 . S
C1033 C1032 1.327 . S
C1033 C1037 1.429 . S
C1034 C1017 1.574 . S
C1034 H1028 0.949 . S
C1034 C1038 1.368 . S
C1035 C1016 1.429 . S
C1035 C1029 1.429 . S
C1035 C1036 1.523 . S
C1036 C1017 1.368 . S
C1036 C1030 1.368 . S
C1036 C1035 1.523 . S
C1037 C1021 1.429 . S
C1037 C1033 1.429 . S
C1037 C1038 1.523 . S
C1038 C1022 1.368 . S
C1038 C1034 1.368 . S
C1038 C1037 1.523 . S
H1039 C1014 0.950 . S
H1040 C1016 0.950 . S
H1041 C1017 0.949 . S
H1042 C1019 0.950 . S
H1043 C1021 0.950 . S
C1044 C1045 1.349 . S
C1044 C1046 1.327 . S
C1044 H1069 0.950 . S
C1045 C1044 1.349 . S
C1045 C1061 1.349 . S
C1046 C1044 1.327 . S
C1046 C1065 1.429 . S
C1046 H1070 0.950 . S
C1047 C1064 1.574 . S
C1047 C1066 1.368 . S
C1047 H1071 0.949 . S
H1048 C1052 0.949 . S
C1049 C1050 1.349 . S
C1049 C1051 1.327 . S
C1049 H1072 0.950 . S
C1050 C1049 1.349 . S
C1050 C1062 1.349 . S
C1051 C1049 1.327 . S
C1051 C1067 1.429 . S
C1051 H1073 0.950 . S
C1052 H1048 0.949 . S
C1052 C1060 1.574 . S
C1052 C1068 1.368 . S
H1053 C1061 0.950 . S
H1054 C1059 0.950 . S
H1055 C1060 0.949 . S
H1056 C1062 0.950 . S
H1057 C1063 0.950 . S
H1058 C1064 0.949 . S
C1059 H1054 0.950 . S
C1059 C1061 1.327 . S
C1059 C1065 1.429 . S
C1060 C1052 1.574 . S
C1060 H1055 0.949 . S
C1060 C1066 1.368 . S
C1061 C1045 1.349 . S
C1061 H1053 0.950 . S
C1061 C1059 1.327 . S
C1062 C1050 1.349 . S
C1062 H1056 0.950 . S
C1062 C1063 1.327 . S
C1063 H1057 0.950 . S
C1063 C1062 1.327 . S
C1063 C1067 1.429 . S
C1064 C1047 1.574 . S
C1064 H1058 0.949 . S
C1064 C1068 1.368 . S
C1065 C1046 1.429 . S
C1065 C1059 1.429 . S
C1065 C1066 1.523 . S
C1066 C1047 1.368 . S
C1066 C1060 1.368 . S
C1066 C1065 1.523 . S
C1067 C1051 1.429 . S
C1067 C1063 1.429 . S
C1067 C1068 1.523 . S
C1068 C1052 1.368 . S
C1068 C1064 1.368 . S
C1068 C1067 1.523 . S
H1069 C1044 0.950 . S
H1070 C1046 0.950 . S
H1071 C1047 0.949 . S
H1072 C1049 0.950 . S
H1073 C1051 0.950 . S
C1074 C1075 1.349 . S
C1074 C1076 1.327 . S
C1074 H1099 0.950 . S
C1075 C1074 1.349 . S
C1075 C1091 1.349 . S
C1076 C1074 1.327 . S
C1076 C1095 1.429 . S
C1076 H1100 0.950 . S
C1077 C1094 1.574 . S
C1077 C1096 1.368 . S
C1077 H1101 0.949 . S
H1078 C1082 0.949 . S
C1079 C1080 1.349 . S
C1079 C1081 1.327 . S
C1079 H1102 0.950 . S
C1080 C1079 1.349 . S
C1080 C1092 1.349 . S
C1081 C1079 1.327 . S
C1081 C1097 1.429 . S
C1081 H1103 0.950 . S
C1082 H1078 0.949 . S
C1082 C1090 1.574 . S
C1082 C1098 1.368 . S
H1083 C1091 0.950 . S
H1084 C1089 0.950 . S
H1085 C1090 0.949 . S
H1086 C1092 0.950 . S
H1087 C1093 0.950 . S
H1088 C1094 0.949 . S
C1089 H1084 0.950 . S
C1089 C1091 1.327 . S
C1089 C1095 1.429 . S
C1090 C1082 1.574 . S
C1090 H1085 0.949 . S
C1090 C1096 1.368 . S
C1091 C1075 1.349 . S
C1091 H1083 0.950 . S
C1091 C1089 1.327 . S
C1092 C1080 1.349 . S
C1092 H1086 0.950 . S
C1092 C1093 1.327 . S
C1093 H1087 0.950 . S
C1093 C1092 1.327 . S
C1093 C1097 1.429 . S
C1094 C1077 1.574 . S
C1094 H1088 0.949 . S
C1094 C1098 1.368 . S
C1095 C1076 1.429 . S
C1095 C1089 1.429 . S
C1095 C1096 1.523 . S
C1096 C1077 1.368 . S
C1096 C1090 1.368 . S
C1096 C1095 1.523 . S
C1097 C1081 1.429 . S
C1097 C1093 1.429 . S
C1097 C1098 1.523 . S
C1098 C1082 1.368 . S
C1098 C1094 1.368 . S
C1098 C1097 1.523 . S
H1099 C1074 0.950 . S
H1100 C1076 0.950 . S
H1101 C1077 0.949 . S
H1102 C1079 0.950 . S
H1103 C1081 0.950 . S
C1104 C1105 1.349 . S
C1104 C1106 1.327 . S
C1104 H1129 0.950 . S
C1105 C1104 1.349 . S
C1105 C1121 1.349 . S
C1106 C1104 1.327 . S
C1106 C1125 1.429 . S
C1106 H1130 0.950 . S
C1107 C1124 1.574 . S
C1107 C1126 1.368 . S
C1107 H1131 0.949 . S
H1108 C1112 0.949 . S
C1109 C1110 1.349 . S
C1109 C1111 1.327 . S
C1109 H1132 0.950 . S
C1110 C1109 1.349 . S
C1110 C1122 1.349 . S
C1111 C1109 1.327 . S
C1111 C1127 1.429 . S
C1111 H1133 0.950 . S
C1112 H1108 0.949 . S
C1112 C1120 1.574 . S
C1112 C1128 1.368 . S
H1113 C1121 0.950 . S
H1114 C1119 0.950 . S
H1115 C1120 0.949 . S
H1116 C1122 0.950 . S
H1117 C1123 0.950 . S
H1118 C1124 0.949 . S
C1119 H1114 0.950 . S
C1119 C1121 1.327 . S
C1119 C1125 1.429 . S
C1120 C1112 1.574 . S
C1120 H1115 0.949 . S
C1120 C1126 1.368 . S
C1121 C1105 1.349 . S
C1121 H1113 0.950 . S
C1121 C1119 1.327 . S
C1122 C1110 1.349 . S
C1122 H1116 0.950 . S
C1122 C1123 1.327 . S
C1123 H1117 0.950 . S
C1123 C1122 1.327 . S
C1123 C1127 1.429 . S
C1124 C1107 1.574 . S
C1124 H1118 0.949 . S
C1124 C1128 1.368 . S
C1125 C1106 1.429 . S
C1125 C1119 1.429 . S
C1125 C1126 1.523 . S
C1126 C1107 1.368 . S
C1126 C1120 1.368 . S
C1126 C1125 1.523 . S
C1127 C1111 1.429 . S
C1127 C1123 1.429 . S
C1127 C1128 1.523 . S
C1128 C1112 1.368 . S
C1128 C1124 1.368 . S
C1128 C1127 1.523 . S
H1129 C1104 0.950 . S
H1130 C1106 0.950 . S
H1131 C1107 0.949 . S
H1132 C1109 0.950 . S
H1133 C1111 0.950 . S
C1134 C1135 1.349 . S
C1134 C1136 1.327 . S
C1134 H1159 0.950 . S
C1135 C1134 1.349 . S
C1135 C1151 1.349 . S
C1136 C1134 1.327 . S
C1136 C1155 1.429 . S
C1136 H1160 0.950 . S
C1137 C1154 1.574 . S
C1137 C1156 1.368 . S
C1137 H1161 0.949 . S
H1138 C1142 0.949 . S
C1139 C1140 1.349 . S
C1139 C1141 1.327 . S
C1139 H1162 0.950 . S
C1140 C1139 1.349 . S
C1140 C1152 1.349 . S
C1141 C1139 1.327 . S
C1141 C1157 1.429 . S
C1141 H1163 0.950 . S
C1142 H1138 0.949 . S
C1142 C1150 1.574 . S
C1142 C1158 1.368 . S
H1143 C1151 0.950 . S
H1144 C1149 0.950 . S
H1145 C1150 0.949 . S
H1146 C1152 0.950 . S
H1147 C1153 0.950 . S
H1148 C1154 0.949 . S
C1149 H1144 0.950 . S
C1149 C1151 1.327 . S
C1149 C1155 1.429 . S
C1150 C1142 1.574 . S
C1150 H1145 0.949 . S
C1150 C1156 1.368 . S
C1151 C1135 1.349 . S
C1151 H1143 0.950 . S
C1151 C1149 1.327 . S
C1152 C1140 1.349 . S
C1152 H1146 0.950 . S
C1152 C1153 1.327 . S
C1153 H1147 0.950 . S
C1153 C1152 1.327 . S
C1153 C1157 1.429 . S
C1154 C1137 1.574 . S
C1154 H1148 0.949 . S
C1154 C1158 1.368 . S
C1155 C1136 1.429 . S
C1155 C1149 1.429 . S
C1155 C1156 1.523 . S
C1156 C1137 1.368 . S
C1156 C1150 1.368 . S
C1156 C1155 1.523 . S
C1157 C1141 1.429 . S
C1157 C1153 1.429 . S
C1157 C1158 1.523 . S
C1158 C1142 1.368 . S
C1158 C1154 1.368 . S
C1158 C1157 1.523 . S
H1159 C1134 0.950 . S
H1160 C1136 0.950 . S
H1161 C1137 0.949 . S
H1162 C1139 0.950 . S
H1163 C1141 0.950 . S
C1164 C1165 1.349 . S
C1164 C1166 1.327 . S
C1164 H1189 0.950 . S
C1165 C1164 1.349 . S
C1165 C1181 1.349 . S
C1166 C1164 1.327 . S
C1166 C1185 1.429 . S
C1166 H1190 0.950 . S
C1167 C1184 1.574 . S
C1167 C1186 1.368 . S
C1167 H1191 0.949 . S
H1168 C1172 0.949 . S
C1169 C1170 1.349 . S
C1169 C1171 1.327 . S
C1169 H1192 0.950 . S
C1170 C1169 1.349 . S
C1170 C1182 1.349 . S
C1171 C1169 1.327 . S
C1171 C1187 1.429 . S
C1171 H1193 0.950 . S
C1172 H1168 0.949 . S
C1172 C1180 1.574 . S
C1172 C1188 1.368 . S
H1173 C1181 0.950 . S
H1174 C1179 0.950 . S
H1175 C1180 0.949 . S
H1176 C1182 0.950 . S
H1177 C1183 0.950 . S
H1178 C1184 0.949 . S
C1179 H1174 0.950 . S
C1179 C1181 1.327 . S
C1179 C1185 1.429 . S
C1180 C1172 1.574 . S
C1180 H1175 0.949 . S
C1180 C1186 1.368 . S
C1181 C1165 1.349 . S
C1181 H1173 0.950 . S
C1181 C1179 1.327 . S
C1182 C1170 1.349 . S
C1182 H1176 0.950 . S
C1182 C1183 1.327 . S
C1183 H1177 0.950 . S
C1183 C1182 1.327 . S
C1183 C1187 1.429 . S
C1184 C1167 1.574 . S
C1184 H1178 0.949 . S
C1184 C1188 1.368 . S
C1185 C1166 1.429 . S
C1185 C1179 1.429 . S
C1185 C1186 1.523 . S
C1186 C1167 1.368 . S
C1186 C1180 1.368 . S
C1186 C1185 1.523 . S
C1187 C1171 1.429 . S
C1187 C1183 1.429 . S
C1187 C1188 1.523 . S
C1188 C1172 1.368 . S
C1188 C1184 1.368 . S
C1188 C1187 1.523 . S
H1189 C1164 0.950 . S
H1190 C1166 0.950 . S
H1191 C1167 0.949 . S
H1192 C1169 0.950 . S
H1193 C1171 0.950 . S
C1194 C1195 1.349 . S
C1194 C1196 1.327 . S
C1194 H1219 0.950 . S
C1195 C1194 1.349 . S
C1195 C1211 1.349 . S
C1196 C1194 1.327 . S
C1196 C1215 1.429 . S
C1196 H1220 0.950 . S
C1197 C1214 1.574 . S
C1197 C1216 1.368 . S
C1197 H1221 0.949 . S
H1198 C1202 0.949 . S
C1199 C1200 1.349 . S
C1199 C1201 1.327 . S
C1199 H1222 0.950 . S
C1200 C1199 1.349 . S
C1200 C1212 1.349 . S
C1201 C1199 1.327 . S
C1201 C1217 1.429 . S
C1201 H1223 0.950 . S
C1202 H1198 0.949 . S
C1202 C1210 1.574 . S
C1202 C1218 1.368 . S
H1203 C1211 0.950 . S
H1204 C1209 0.950 . S
H1205 C1210 0.949 . S
H1206 C1212 0.950 . S
H1207 C1213 0.950 . S
H1208 C1214 0.949 . S
C1209 H1204 0.950 . S
C1209 C1211 1.327 . S
C1209 C1215 1.429 . S
C1210 C1202 1.574 . S
C1210 H1205 0.949 . S
C1210 C1216 1.368 . S
C1211 C1195 1.349 . S
C1211 H1203 0.950 . S
C1211 C1209 1.327 . S
C1212 C1200 1.349 . S
C1212 H1206 0.950 . S
C1212 C1213 1.327 . S
C1213 H1207 0.950 . S
C1213 C1212 1.327 . S
C1213 C1217 1.429 . S
C1214 C1197 1.574 . S
C1214 H1208 0.949 . S
C1214 C1218 1.368 . S
C1215 C1196 1.429 . S
C1215 C1209 1.429 . S
C1215 C1216 1.523 . S
C1216 C1197 1.368 . S
C1216 C1210 1.368 . S
C1216 C1215 1.523 . S
C1217 C1201 1.429 . S
C1217 C1213 1.429 . S
C1217 C1218 1.523 . S
C1218 C1202 1.368 . S
C1218 C1214 1.368 . S
C1218 C1217 1.523 . S
H1219 C1194 0.950 . S
H1220 C1196 0.950 . S
H1221 C1197 0.949 . S
H1222 C1199 0.950 . S
H1223 C1201 0.950 . S
C1224 C1225 1.349 . S
C1224 C1226 1.327 . S
C1224 H1249 0.950 . S
C1225 C1224 1.349 . S
C1225 C1241 1.349 . S
C1226 C1224 1.327 . S
C1226 C1245 1.429 . S
C1226 H1250 0.950 . S
C1227 C1244 1.574 . S
C1227 C1246 1.368 . S
C1227 H1251 0.949 . S
H1228 C1232 0.949 . S
C1229 C1230 1.349 . S
C1229 C1231 1.327 . S
C1229 H1252 0.950 . S
C1230 C1229 1.349 . S
C1230 C1242 1.349 . S
C1231 C1229 1.327 . S
C1231 C1247 1.429 . S
C1231 H1253 0.950 . S
C1232 H1228 0.949 . S
C1232 C1240 1.574 . S
C1232 C1248 1.368 . S
H1233 C1241 0.950 . S
H1234 C1239 0.950 . S
H1235 C1240 0.949 . S
H1236 C1242 0.950 . S
H1237 C1243 0.950 . S
H1238 C1244 0.949 . S
C1239 H1234 0.950 . S
C1239 C1241 1.327 . S
C1239 C1245 1.429 . S
C1240 C1232 1.574 . S
C1240 H1235 0.949 . S
C1240 C1246 1.368 . S
C1241 C1225 1.349 . S
C1241 H1233 0.950 . S
C1241 C1239 1.327 . S
C1242 C1230 1.349 . S
C1242 H1236 0.950 . S
C1242 C1243 1.327 . S
C1243 H1237 0.950 . S
C1243 C1242 1.327 . S
C1243 C1247 1.429 . S
C1244 C1227 1.574 . S
C1244 H1238 0.949 . S
C1244 C1248 1.368 . S
C1245 C1226 1.429 . S
C1245 C1239 1.429 . S
C1245 C1246 1.523 . S
C1246 C1227 1.368 . S
C1246 C1240 1.368 . S
C1246 C1245 1.523 . S
C1247 C1231 1.429 . S
C1247 C1243 1.429 . S
C1247 C1248 1.523 . S
C1248 C1232 1.368 . S
C1248 C1244 1.368 . S
C1248 C1247 1.523 . S
H1249 C1224 0.950 . S
H1250 C1226 0.950 . S
H1251 C1227 0.949 . S
H1252 C1229 0.950 . S
H1253 C1231 0.950 . S
C1254 C1255 1.349 . S
C1254 C1256 1.327 . S
C1254 H1279 0.950 . S
C1255 C1254 1.349 . S
C1255 C1271 1.349 . S
C1256 C1254 1.327 . S
C1256 C1275 1.429 . S
C1256 H1280 0.950 . S
C1257 C1274 1.574 . S
C1257 C1276 1.368 . S
C1257 H1281 0.949 . S
H1258 C1262 0.949 . S
C1259 C1260 1.349 . S
C1259 C1261 1.327 . S
C1259 H1282 0.950 . S
C1260 C1259 1.349 . S
C1260 C1272 1.349 . S
C1261 C1259 1.327 . S
C1261 C1277 1.429 . S
C1261 H1283 0.950 . S
C1262 H1258 0.949 . S
C1262 C1270 1.574 . S
C1262 C1278 1.368 . S
H1263 C1271 0.950 . S
H1264 C1269 0.950 . S
H1265 C1270 0.949 . S
H1266 C1272 0.950 . S
H1267 C1273 0.950 . S
H1268 C1274 0.949 . S
C1269 H1264 0.950 . S
C1269 C1271 1.327 . S
C1269 C1275 1.429 . S
C1270 C1262 1.574 . S
C1270 H1265 0.949 . S
C1270 C1276 1.368 . S
C1271 C1255 1.349 . S
C1271 H1263 0.950 . S
C1271 C1269 1.327 . S
C1272 C1260 1.349 . S
C1272 H1266 0.950 . S
C1272 C1273 1.327 . S
C1273 H1267 0.950 . S
C1273 C1272 1.327 . S
C1273 C1277 1.429 . S
C1274 C1257 1.574 . S
C1274 H1268 0.949 . S
C1274 C1278 1.368 . S
C1275 C1256 1.429 . S
C1275 C1269 1.429 . S
C1275 C1276 1.523 . S
C1276 C1257 1.368 . S
C1276 C1270 1.368 . S
C1276 C1275 1.523 . S
C1277 C1261 1.429 . S
C1277 C1273 1.429 . S
C1277 C1278 1.523 . S
C1278 C1262 1.368 . S
C1278 C1274 1.368 . S
C1278 C1277 1.523 . S
H1279 C1254 0.950 . S
H1280 C1256 0.950 . S
H1281 C1257 0.949 . S
H1282 C1259 0.950 . S
H1283 C1261 0.950 . S
C1284 C1285 1.349 . S
C1284 C1286 1.327 . S
C1284 H1309 0.950 . S
C1285 C1284 1.349 . S
C1285 C1301 1.349 . S
C1286 C1284 1.327 . S
C1286 C1305 1.429 . S
C1286 H1310 0.950 . S
C1287 C1304 1.574 . S
C1287 C1306 1.368 . S
C1287 H1311 0.949 . S
H1288 C1292 0.949 . S
C1289 C1290 1.349 . S
C1289 C1291 1.327 . S
C1289 H1312 0.950 . S
C1290 C1289 1.349 . S
C1290 C1302 1.349 . S
C1291 C1289 1.327 . S
C1291 C1307 1.429 . S
C1291 H1313 0.950 . S
C1292 H1288 0.949 . S
C1292 C1300 1.574 . S
C1292 C1308 1.368 . S
H1293 C1301 0.950 . S
H1294 C1299 0.950 . S
H1295 C1300 0.949 . S
H1296 C1302 0.950 . S
H1297 C1303 0.950 . S
H1298 C1304 0.949 . S
C1299 H1294 0.950 . S
C1299 C1301 1.327 . S
C1299 C1305 1.429 . S
C1300 C1292 1.574 . S
C1300 H1295 0.949 . S
C1300 C1306 1.368 . S
C1301 C1285 1.349 . S
C1301 H1293 0.950 . S
C1301 C1299 1.327 . S
C1302 C1290 1.349 . S
C1302 H1296 0.950 . S
C1302 C1303 1.327 . S
C1303 H1297 0.950 . S
C1303 C1302 1.327 . S
C1303 C1307 1.429 . S
C1304 C1287 1.574 . S
C1304 H1298 0.949 . S
C1304 C1308 1.368 . S
C1305 C1286 1.429 . S
C1305 C1299 1.429 . S
C1305 C1306 1.523 . S
C1306 C1287 1.368 . S
C1306 C1300 1.368 . S
C1306 C1305 1.523 . S
C1307 C1291 1.429 . S
C1307 C1303 1.429 . S
C1307 C1308 1.523 . S
C1308 C1292 1.368 . S
C1308 C1304 1.368 . S
C1308 C1307 1.523 . S
H1309 C1284 0.950 . S
H1310 C1286 0.950 . S
H1311 C1287 0.949 . S
H1312 C1289 0.950 . S
H1313 C1291 0.950 . S
C1314 C1315 1.349 . S
C1314 C1316 1.327 . S
C1314 H1339 0.950 . S
C1315 C1314 1.349 . S
C1315 C1331 1.349 . S
C1316 C1314 1.327 . S
C1316 C1335 1.429 . S
C1316 H1340 0.950 . S
C1317 C1334 1.574 . S
C1317 C1336 1.368 . S
C1317 H1341 0.949 . S
H1318 C1322 0.949 . S
C1319 C1320 1.349 . S
C1319 C1321 1.327 . S
C1319 H1342 0.950 . S
C1320 C1319 1.349 . S
C1320 C1332 1.349 . S
C1321 C1319 1.327 . S
C1321 C1337 1.429 . S
C1321 H1343 0.950 . S
C1322 H1318 0.949 . S
C1322 C1330 1.574 . S
C1322 C1338 1.368 . S
H1323 C1331 0.950 . S
H1324 C1329 0.950 . S
H1325 C1330 0.949 . S
H1326 C1332 0.950 . S
H1327 C1333 0.950 . S
H1328 C1334 0.949 . S
C1329 H1324 0.950 . S
C1329 C1331 1.327 . S
C1329 C1335 1.429 . S
C1330 C1322 1.574 . S
C1330 H1325 0.949 . S
C1330 C1336 1.368 . S
C1331 C1315 1.349 . S
C1331 H1323 0.950 . S
C1331 C1329 1.327 . S
C1332 C1320 1.349 . S
C1332 H1326 0.950 . S
C1332 C1333 1.327 . S
C1333 H1327 0.950 . S
C1333 C1332 1.327 . S
C1333 C1337 1.429 . S
C1334 C1317 1.574 . S
C1334 H1328 0.949 . S
C1334 C1338 1.368 . S
C1335 C1316 1.429 . S
C1335 C1329 1.429 . S
C1335 C1336 1.523 . S
C1336 C1317 1.368 . S
C1336 C1330 1.368 . S
C1336 C1335 1.523 . S
C1337 C1321 1.429 . S
C1337 C1333 1.429 . S
C1337 C1338 1.523 . S
C1338 C1322 1.368 . S
C1338 C1334 1.368 . S
C1338 C1337 1.523 . S
H1339 C1314 0.950 . S
H1340 C1316 0.950 . S
H1341 C1317 0.949 . S
H1342 C1319 0.950 . S
H1343 C1321 0.950 . S
C1344 C1345 1.349 . S
C1344 C1346 1.327 . S
C1344 H1369 0.950 . S
C1345 C1344 1.349 . S
C1345 C1361 1.349 . S
C1346 C1344 1.327 . S
C1346 C1365 1.429 . S
C1346 H1370 0.950 . S
C1347 C1364 1.574 . S
C1347 C1366 1.368 . S
C1347 H1371 0.949 . S
H1348 C1352 0.949 . S
C1349 C1350 1.349 . S
C1349 C1351 1.327 . S
C1349 H1372 0.950 . S
C1350 C1349 1.349 . S
C1350 C1362 1.349 . S
C1351 C1349 1.327 . S
C1351 C1367 1.429 . S
C1351 H1373 0.950 . S
C1352 H1348 0.949 . S
C1352 C1360 1.574 . S
C1352 C1368 1.368 . S
H1353 C1361 0.950 . S
H1354 C1359 0.950 . S
H1355 C1360 0.949 . S
H1356 C1362 0.950 . S
H1357 C1363 0.950 . S
H1358 C1364 0.949 . S
C1359 H1354 0.950 . S
C1359 C1361 1.327 . S
C1359 C1365 1.429 . S
C1360 C1352 1.574 . S
C1360 H1355 0.949 . S
C1360 C1366 1.368 . S
C1361 C1345 1.349 . S
C1361 H1353 0.950 . S
C1361 C1359 1.327 . S
C1362 C1350 1.349 . S
C1362 H1356 0.950 . S
C1362 C1363 1.327 . S
C1363 H1357 0.950 . S
C1363 C1362 1.327 . S
C1363 C1367 1.429 . S
C1364 C1347 1.574 . S
C1364 H1358 0.949 . S
C1364 C1368 1.368 . S
C1365 C1346 1.429 . S
C1365 C1359 1.429 . S
C1365 C1366 1.523 . S
C1366 C1347 1.368 . S
C1366 C1360 1.368 . S
C1366 C1365 1.523 . S
C1367 C1351 1.429 . S
C1367 C1363 1.429 . S
C1367 C1368 1.523 . S
C1368 C1352 1.368 . S
C1368 C1364 1.368 . S
C1368 C1367 1.523 . S
H1369 C1344 0.950 . S
H1370 C1346 0.950 . S
H1371 C1347 0.949 . S
H1372 C1349 0.950 . S
H1373 C1351 0.950 . S
C1374 C1375 1.349 . S
C1374 C1376 1.327 . S
C1374 H1399 0.950 . S
C1375 C1374 1.349 . S
C1375 C1391 1.349 . S
C1376 C1374 1.327 . S
C1376 C1395 1.429 . S
C1376 H1400 0.950 . S
C1377 C1394 1.574 . S
C1377 C1396 1.368 . S
C1377 H1401 0.949 . S
H1378 C1382 0.949 . S
C1379 C1380 1.349 . S
C1379 C1381 1.327 . S
C1379 H1402 0.950 . S
C1380 C1379 1.349 . S
C1380 C1392 1.349 . S
C1381 C1379 1.327 . S
C1381 C1397 1.429 . S
C1381 H1403 0.950 . S
C1382 H1378 0.949 . S
C1382 C1390 1.574 . S
C1382 C1398 1.368 . S
H1383 C1391 0.950 . S
H1384 C1389 0.950 . S
H1385 C1390 0.949 . S
H1386 C1392 0.950 . S
H1387 C1393 0.950 . S
H1388 C1394 0.949 . S
C1389 H1384 0.950 . S
C1389 C1391 1.327 . S
C1389 C1395 1.429 . S
C1390 C1382 1.574 . S
C1390 H1385 0.949 . S
C1390 C1396 1.368 . S
C1391 C1375 1.349 . S
C1391 H1383 0.950 . S
C1391 C1389 1.327 . S
C1392 C1380 1.349 . S
C1392 H1386 0.950 . S
C1392 C1393 1.327 . S
C1393 H1387 0.950 . S
C1393 C1392 1.327 . S
C1393 C1397 1.429 . S
C1394 C1377 1.574 . S
C1394 H1388 0.949 . S
C1394 C1398 1.368 . S
C1395 C1376 1.429 . S
C1395 C1389 1.429 . S
C1395 C1396 1.523 . S
C1396 C1377 1.368 . S
C1396 C1390 1.368 . S
C1396 C1395 1.523 . S
C1397 C1381 1.429 . S
C1397 C1393 1.429 . S
C1397 C1398 1.523 . S
C1398 C1382 1.368 . S
C1398 C1394 1.368 . S
C1398 C1397 1.523 . S
H1399 C1374 0.950 . S
H1400 C1376 0.950 . S
H1401 C1377 0.949 . S
H1402 C1379 0.950 . S
H1403 C1381 0.950 . S
C1404 C1405 1.349 . S
C1404 C1406 1.327 . S
C1404 H1429 0.950 . S
C1405 C1404 1.349 . S
C1405 C1421 1.349 . S
C1406 C1404 1.327 . S
C1406 C1425 1.429 . S
C1406 H1430 0.950 . S
C1407 C1424 1.574 . S
C1407 C1426 1.368 1_655 S
C1407 H1431 0.949 . S
H1408 C1412 0.949 . S
C1409 C1410 1.349 . S
C1409 C1411 1.327 . S
C1409 H1432 0.950 . S
C1410 C1409 1.349 . S
C1410 C1422 1.349 . S
C1411 C1409 1.327 . S
C1411 C1427 1.429 . S
C1411 H1433 0.950 . S
C1412 H1408 0.949 . S
C1412 C1420 1.574 . S
C1412 C1428 1.368 1_455 S
H1413 C1421 0.950 . S
H1414 C1419 1.003 . S
H1415 C1420 0.949 . S
H1416 C1422 0.950 . S
H1417 C1423 1.003 . S
H1418 C1424 0.949 . S
C1419 H1414 1.003 . S
C1419 C1421 1.327 . S
C1419 C1425 1.429 . S
C1420 C1412 1.574 . S
C1420 H1415 0.949 . S
C1420 C1426 1.368 . S
C1421 C1405 1.349 . S
C1421 H1413 0.950 . S
C1421 C1419 1.327 . S
C1422 C1410 1.349 . S
C1422 H1416 0.950 . S
C1422 C1423 1.327 . S
C1423 H1417 1.003 . S
C1423 C1422 1.327 . S
C1423 C1427 1.429 . S
C1424 C1407 1.574 . S
C1424 H1418 0.949 . S
C1424 C1428 1.368 . S
C1425 C1406 1.429 . S
C1425 C1419 1.429 . S
C1425 C1426 1.523 . S
C1426 C1407 1.368 1_455 S
C1426 C1420 1.368 . S
C1426 C1425 1.523 . S
C1427 C1411 1.429 . S
C1427 C1423 1.429 . S
C1427 C1428 1.523 . S
C1428 C1412 1.368 1_655 S
C1428 C1424 1.368 . S
C1428 C1427 1.523 . S
H1429 C1404 0.950 . S
H1430 C1406 0.950 . S
H1431 C1407 0.949 . S
H1432 C1409 0.950 . S
H1433 C1411 0.950 . S
C1434 C1435 1.349 . S
C1434 C1436 1.327 . S
C1434 H1459 0.950 . S
C1435 C1434 1.349 . S
C1435 C1451 1.349 . S
C1436 C1434 1.327 . S
C1436 C1455 1.429 . S
C1436 H1460 0.950 . S
C1437 C1454 1.574 . S
C1437 C1456 1.368 . S
C1437 H1461 0.949 . S
H1438 C1442 0.949 . S
C1439 C1440 1.349 . S
C1439 C1441 1.327 . S
C1439 H1462 0.950 . S
C1440 C1439 1.349 . S
C1440 C1452 1.349 . S
C1441 C1439 1.327 . S
C1441 C1457 1.429 . S
C1441 H1463 0.950 . S
C1442 H1438 0.949 . S
C1442 C1450 1.574 . S
C1442 C1458 1.368 . S
H1443 C1451 0.950 . S
H1444 C1449 0.950 . S
H1445 C1450 0.949 . S
H1446 C1452 0.950 . S
H1447 C1453 0.950 . S
H1448 C1454 0.949 . S
C1449 H1444 0.950 . S
C1449 C1451 1.327 . S
C1449 C1455 1.429 . S
C1450 C1442 1.574 . S
C1450 H1445 0.949 . S
C1450 C1456 1.368 . S
C1451 C1435 1.349 . S
C1451 H1443 0.950 . S
C1451 C1449 1.327 . S
C1452 C1440 1.349 . S
C1452 H1446 0.950 . S
C1452 C1453 1.327 . S
C1453 H1447 0.950 . S
C1453 C1452 1.327 . S
C1453 C1457 1.429 . S
C1454 C1437 1.574 . S
C1454 H1448 0.949 . S
C1454 C1458 1.368 . S
C1455 C1436 1.429 . S
C1455 C1449 1.429 . S
C1455 C1456 1.523 . S
C1456 C1437 1.368 . S
C1456 C1450 1.368 . S
C1456 C1455 1.523 . S
C1457 C1441 1.429 . S
C1457 C1453 1.429 . S
C1457 C1458 1.523 . S
C1458 C1442 1.368 . S
C1458 C1454 1.368 . S
C1458 C1457 1.523 . S
H1459 C1434 0.950 . S
H1460 C1436 0.950 . S
H1461 C1437 0.949 . S
H1462 C1439 0.950 . S
H1463 C1441 0.950 . S
C1464 C1465 1.349 . S
C1464 C1466 1.327 . S
C1464 H1489 0.950 . S
C1465 C1464 1.349 . S
C1465 C1481 1.349 . S
C1466 C1464 1.327 . S
C1466 C1485 1.429 . S
C1466 H1490 0.950 . S
C1467 C1484 1.574 1_545 S
C1467 C1486 1.368 . S
C1467 H1491 0.949 . S
H1468 C1472 0.949 . S
C1469 C1470 1.349 . S
C1469 C1471 1.327 . S
C1469 H1492 0.950 . S
C1470 C1469 1.349 . S
C1470 C1482 1.349 . S
C1471 C1469 1.327 . S
C1471 C1487 1.429 . S
C1471 H1493 0.950 . S
C1472 H1468 0.949 . S
C1472 C1480 1.574 1_565 S
C1472 C1488 1.368 . S
H1473 C1481 0.950 . S
H1474 C1479 0.950 . S
H1475 C1480 0.949 . S
H1476 C1482 0.950 . S
H1477 C1483 0.950 . S
H1478 C1484 0.949 . S
C1479 H1474 0.950 . S
C1479 C1481 1.327 . S
C1479 C1485 1.429 . S
C1480 C1472 1.574 1_545 S
C1480 H1475 0.949 . S
C1480 C1486 1.368 . S
C1481 C1465 1.349 . S
C1481 H1473 0.950 . S
C1481 C1479 1.327 . S
C1482 C1470 1.349 . S
C1482 H1476 0.950 . S
C1482 C1483 1.327 . S
C1483 H1477 0.950 . S
C1483 C1482 1.327 . S
C1483 C1487 1.429 . S
C1484 C1467 1.574 1_565 S
C1484 H1478 0.949 . S
C1484 C1488 1.368 . S
C1485 C1466 1.429 . S
C1485 C1479 1.429 . S
C1485 C1486 1.523 . S
C1486 C1467 1.368 . S
C1486 C1480 1.368 . S
C1486 C1485 1.523 . S
C1487 C1471 1.429 . S
C1487 C1483 1.429 . S
C1487 C1488 1.523 . S
C1488 C1472 1.368 . S
C1488 C1484 1.368 . S
C1488 C1487 1.523 . S
H1489 C1464 0.950 . S
H1490 C1466 0.950 . S
H1491 C1467 0.949 . S
H1492 C1469 0.950 . S
H1493 C1471 0.950 . S
C1494 C1495 1.349 . S
C1494 C1496 1.327 . S
C1494 H1519 0.950 . S
C1495 C1494 1.349 . S
C1495 C1511 1.349 1_554 S
C1496 C1494 1.327 . S
C1496 C1515 1.429 . S
C1496 H1520 0.950 . S
C1497 C1514 1.574 . S
C1497 C1516 1.362 1_556 S
C1497 H1521 0.949 . S
H1498 C1502 0.949 . S
C1499 C1500 1.349 . S
C1499 C1501 1.327 . S
C1499 H1522 0.950 . S
C1500 C1499 1.349 . S
C1500 C1512 1.349 1_556 S
C1501 C1499 1.327 . S
C1501 C1517 1.429 . S
C1501 H1523 0.950 . S
C1502 H1498 0.949 . S
C1502 C1510 1.574 . S
C1502 C1518 1.359 1_554 S
H1503 C1511 0.950 . S
H1504 C1509 0.950 . S
H1505 C1510 0.949 . S
H1506 C1512 0.950 . S
H1507 C1513 0.950 . S
H1508 C1514 0.949 . S
C1509 H1504 0.950 . S
C1509 C1511 1.327 . S
C1509 C1515 1.429 1_556 S
C1510 C1502 1.574 . S
C1510 H1505 0.949 . S
C1510 C1516 1.375 1_565 S
C1511 C1495 1.349 1_556 S
C1511 H1503 0.950 . S
C1511 C1509 1.327 . S
C1512 C1500 1.349 1_554 S
C1512 H1506 0.950 . S
C1512 C1513 1.327 . S
C1513 H1507 0.950 . S
C1513 C1512 1.327 . S
C1513 C1517 1.429 1_554 S
C1514 C1497 1.574 . S
C1514 H1508 0.949 . S
C1514 C1518 1.378 1_545 S
C1515 C1496 1.429 . S
C1515 C1509 1.429 1_554 S
C1515 C1516 1.523 . S
C1516 C1497 1.362 1_554 S
C1516 C1510 1.375 1_545 S
C1516 C1515 1.523 . S
C1517 C1501 1.429 . S
C1517 C1513 1.429 1_556 S
C1517 C1518 1.523 . S
C1518 C1502 1.359 1_556 S
C1518 C1514 1.378 1_565 S
C1518 C1517 1.523 . S
H1519 C1494 0.950 . S
H1520 C1496 0.950 . S
H1521 C1497 0.949 . S
H1522 C1499 0.950 . S
H1523 C1501 0.950 . S
C1524 C1525 1.349 1_554 S
C1524 C1526 1.327 . S
C1524 H1549 0.950 . S
C1525 C1524 1.349 1_556 S
C1525 C1541 1.349 . S
C1526 C1524 1.327 . S
C1526 C1545 1.429 1_554 S
C1526 H1550 0.950 . S
C1527 C1544 1.574 . S
C1527 C1546 1.380 . S
C1527 H1551 0.949 . S
H1528 C1532 0.949 . S
C1529 C1530 1.349 1_556 S
C1529 C1531 1.327 . S
C1529 H1552 0.950 . S
C1530 C1529 1.349 1_554 S
C1530 C1542 1.349 . S
C1531 C1529 1.327 . S
C1531 C1547 1.429 1_556 S
C1531 H1553 0.950 . S
C1532 H1528 0.949 . S
C1532 C1540 1.574 . S
C1532 C1548 1.386 . S
H1533 C1541 0.950 . S
H1534 C1539 0.950 . S
H1535 C1540 0.949 . S
H1536 C1542 0.950 . S
H1537 C1543 0.950 . S
H1538 C1544 0.949 . S
C1539 H1534 0.950 . S
C1539 C1541 1.327 . S
C1539 C1545 1.429 . S
C1540 C1532 1.574 . S
C1540 H1535 0.949 . S
C1540 C1546 1.356 1_654 S
C1541 C1525 1.349 . S
C1541 H1533 0.950 . S
C1541 C1539 1.327 . S
C1542 C1530 1.349 . S
C1542 H1536 0.950 . S
C1542 C1543 1.327 . S
C1543 H1537 0.950 . S
C1543 C1542 1.327 . S
C1543 C1547 1.429 . S
C1544 C1527 1.574 . S
C1544 H1538 0.949 . S
C1544 C1548 1.351 1_456 S
C1545 C1526 1.429 1_556 S
C1545 C1539 1.429 . S
C1545 C1546 1.523 . S
C1546 C1527 1.380 . S
C1546 C1540 1.356 1_456 S
C1546 C1545 1.523 . S
C1547 C1531 1.429 1_554 S
C1547 C1543 1.429 . S
C1547 C1548 1.523 . S
C1548 C1532 1.386 . S
C1548 C1544 1.351 1_654 S
C1548 C1547 1.523 . S
H1549 C1524 0.950 . S
H1550 C1526 0.950 . S
H1551 C1527 0.949 . S
H1552 C1529 0.950 . S
H1553 C1531 0.950 . S
C1554 C1555 1.349 . S
C1554 C1556 1.327 . S
C1554 H1579 0.950 . S
C1555 C1554 1.349 . S
C1555 C1571 1.349 1_556 S
C1556 C1554 1.327 . S
C1556 C1575 1.429 . S
C1556 H1580 0.950 . S
C1557 C1574 1.574 . S
C1557 C1576 1.357 1_554 S
C1557 H1581 0.949 . S
H1558 C1562 0.949 . S
C1559 C1560 1.349 . S
C1559 C1561 1.327 . S
C1559 H1582 0.950 . S
C1560 C1559 1.349 . S
C1560 C1572 1.349 1_554 S
C1561 C1559 1.327 . S
C1561 C1577 1.429 . S
C1561 H1583 0.950 . S
C1562 H1558 0.949 . S
C1562 C1570 1.574 . S
C1562 C1578 1.351 1_556 S
H1563 C1571 0.950 . S
H1564 C1569 0.950 . S
H1565 C1570 0.949 . S
H1566 C1572 0.950 . S
H1567 C1573 0.950 . S
H1568 C1574 0.949 . S
C1569 H1564 0.950 . S
C1569 C1571 1.327 . S
C1569 C1575 1.429 1_554 S
C1570 C1562 1.574 . S
C1570 H1565 0.949 . S
C1570 C1576 1.380 . S
C1571 C1555 1.349 1_554 S
C1571 H1563 0.950 . S
C1571 C1569 1.327 . S
C1572 C1560 1.349 1_556 S
C1572 H1566 0.950 . S
C1572 C1573 1.327 . S
C1573 H1567 0.950 . S
C1573 C1572 1.327 . S
C1573 C1577 1.429 1_556 S
C1574 C1557 1.574 . S
C1574 H1568 0.949 . S
C1574 C1578 1.385 . S
C1575 C1556 1.429 . S
C1575 C1569 1.429 1_556 S
C1575 C1576 1.523 . S
C1576 C1557 1.357 1_556 S
C1576 C1570 1.380 . S
C1576 C1575 1.523 . S
C1577 C1561 1.429 . S
C1577 C1573 1.429 1_554 S
C1577 C1578 1.523 . S
C1578 C1562 1.351 1_554 S
C1578 C1574 1.385 . S
C1578 C1577 1.523 . S
H1579 C1554 0.950 . S
H1580 C1556 0.950 . S
H1581 C1557 0.949 . S
H1582 C1559 0.950 . S
H1583 C1561 0.950 . S
C1584 C1585 1.349 . S
C1584 C1586 1.327 . S
C1584 H1609 0.950 . S
C1585 C1584 1.349 . S
C1585 C1601 1.349 . S
C1586 C1584 1.327 . S
C1586 C1605 1.429 . S
C1586 H1610 0.950 . S
C1587 C1604 1.574 . S
C1587 C1606 1.368 . S
C1587 H1611 0.949 . S
H1588 C1592 0.949 . S
C1589 C1590 1.349 . S
C1589 C1591 1.327 . S
C1589 H1612 0.950 . S
C1590 C1589 1.349 . S
C1590 C1602 1.349 . S
C1591 C1589 1.327 . S
C1591 C1607 1.429 . S
C1591 H1613 0.950 . S
C1592 H1588 0.949 . S
C1592 C1600 1.574 . S
C1592 C1608 1.368 . S
H1593 C1601 0.950 1_556 S
H1594 C1599 0.950 . S
H1595 C1600 0.949 . S
H1596 C1602 0.950 . S
H1597 C1603 0.950 . S
H1598 C1604 0.949 . S
C1599 H1594 0.950 . S
C1599 C1601 1.327 . S
C1599 C1605 1.429 . S
C1600 C1592 1.574 . S
C1600 H1595 0.949 . S
C1600 C1606 1.368 . S
C1601 C1585 1.349 . S
C1601 H1593 0.950 1_554 S
C1601 C1599 1.327 . S
C1602 C1590 1.349 . S
C1602 H1596 0.950 . S
C1602 C1603 1.327 . S
C1603 H1597 0.950 . S
C1603 C1602 1.327 . S
C1603 C1607 1.429 . S
C1604 C1587 1.574 . S
C1604 H1598 0.949 . S
C1604 C1608 1.368 . S
C1605 C1586 1.429 . S
C1605 C1599 1.429 . S
C1605 C1606 1.523 . S
C1606 C1587 1.368 . S
C1606 C1600 1.368 . S
C1606 C1605 1.523 . S
C1607 C1591 1.429 . S
C1607 C1603 1.429 . S
C1607 C1608 1.523 . S
C1608 C1592 1.368 . S
C1608 C1604 1.368 . S
C1608 C1607 1.523 . S
H1609 C1584 0.950 . S
H1610 C1586 0.950 . S
H1611 C1587 0.949 . S
H1612 C1589 0.950 . S
H1613 C1591 0.950 . S
C1614 C1615 1.349 . S
C1614 C1616 1.327 . S
C1614 H1639 0.950 . S
C1615 C1614 1.349 . S
C1615 C1631 1.349 . S
C1616 C1614 1.327 . S
C1616 C1635 1.429 . S
C1616 H1640 0.950 . S
C1617 C1634 1.574 . S
C1617 C1636 1.368 . S
C1617 H1641 0.949 . S
H1618 C1622 0.949 . S
C1619 C1620 1.349 . S
C1619 C1621 1.327 . S
C1619 H1642 0.950 . S
C1620 C1619 1.349 . S
C1620 C1632 1.349 . S
C1621 C1619 1.327 . S
C1621 C1637 1.429 . S
C1621 H1643 0.950 . S
C1622 H1618 0.949 . S
C1622 C1630 1.574 . S
C1622 C1638 1.368 . S
H1623 C1631 0.950 . S
H1624 C1629 0.950 . S
H1625 C1630 0.949 . S
H1626 C1632 0.950 1_556 S
H1627 C1633 0.962 . S
H1628 C1634 0.949 . S
C1629 H1624 0.950 . S
C1629 C1631 1.327 . S
C1629 C1635 1.429 . S
C1630 C1622 1.574 . S
C1630 H1625 0.949 . S
C1630 C1636 1.368 . S
C1631 C1615 1.349 . S
C1631 H1623 0.950 . S
C1631 C1629 1.327 . S
C1632 C1620 1.349 . S
C1632 H1626 0.950 1_554 S
C1632 C1633 1.327 . S
C1633 H1627 0.962 . S
C1633 C1632 1.327 . S
C1633 C1637 1.429 . S
C1634 C1617 1.574 . S
C1634 H1628 0.949 . S
C1634 C1638 1.368 . S
C1635 C1616 1.429 . S
C1635 C1629 1.429 . S
C1635 C1636 1.523 . S
C1636 C1617 1.368 . S
C1636 C1630 1.368 . S
C1636 C1635 1.523 . S
C1637 C1621 1.429 . S
C1637 C1633 1.429 . S
C1637 C1638 1.523 . S
C1638 C1622 1.368 . S
C1638 C1634 1.368 . S
C1638 C1637 1.523 . S
H1639 C1614 0.950 . S
H1640 C1616 0.950 . S
H1641 C1617 0.949 . S
H1642 C1619 0.950 . S
H1643 C1621 0.950 . S
C1644 C1645 1.349 . S
C1644 C1646 1.327 . S
C1644 H1669 0.950 . S
C1645 C1644 1.349 . S
C1645 C1661 1.349 . S
C1646 C1644 1.327 . S
C1646 C1665 1.429 . S
C1646 H1670 0.950 . S
C1647 C1664 1.574 . S
C1647 C1666 1.368 . S
C1647 H1671 0.949 . S
H1648 C1652 0.949 . S
C1649 C1650 1.349 . S
C1649 C1651 1.327 . S
C1649 H1672 0.950 . S
C1650 C1649 1.349 . S
C1650 C1662 1.349 . S
C1651 C1649 1.327 . S
C1651 C1667 1.429 . S
C1651 H1673 0.950 . S
C1652 H1648 0.949 . S
C1652 C1660 1.574 . S
C1652 C1668 1.368 . S
H1653 C1661 0.950 . S
H1654 C1659 0.950 . S
H1655 C1660 0.949 . S
H1656 C1662 0.950 1_556 S
H1657 C1663 0.950 1_556 S
H1658 C1664 0.949 . S
C1659 H1654 0.950 . S
C1659 C1661 1.327 . S
C1659 C1665 1.429 . S
C1660 C1652 1.574 . S
C1660 H1655 0.949 . S
C1660 C1666 1.368 . S
C1661 C1645 1.349 . S
C1661 H1653 0.950 . S
C1661 C1659 1.327 . S
C1662 C1650 1.349 . S
C1662 H1656 0.950 1_554 S
C1662 C1663 1.327 . S
C1663 H1657 0.950 1_554 S
C1663 C1662 1.327 . S
C1663 C1667 1.429 . S
C1664 C1647 1.574 . S
C1664 H1658 0.949 . S
C1664 C1668 1.368 . S
C1665 C1646 1.429 . S
C1665 C1659 1.429 . S
C1665 C1666 1.523 . S
C1666 C1647 1.368 . S
C1666 C1660 1.368 . S
C1666 C1665 1.523 . S
C1667 C1651 1.429 . S
C1667 C1663 1.429 . S
C1667 C1668 1.523 . S
C1668 C1652 1.368 . S
C1668 C1664 1.368 . S
C1668 C1667 1.523 . S
H1669 C1644 0.950 . S
H1670 C1646 0.950 . S
H1671 C1647 0.949 . S
H1672 C1649 0.950 . S
H1673 C1651 0.950 . S
C1674 C1675 1.349 . S
C1674 C1676 1.327 . S
C1674 H1699 0.950 . S
C1675 C1674 1.349 . S
C1675 C1691 1.349 . S
C1676 C1674 1.327 . S
C1676 C1695 1.429 . S
C1676 H1700 0.950 . S
C1677 C1694 1.574 . S
C1677 C1696 1.368 . S
C1677 H1701 0.949 . S
H1678 C1682 0.949 . S
C1679 C1680 1.349 . S
C1679 C1681 1.327 . S
C1679 H1702 0.950 . S
C1680 C1679 1.349 . S
C1680 C1692 1.349 . S
C1681 C1679 1.327 . S
C1681 C1697 1.429 . S
C1681 H1703 0.950 . S
C1682 H1678 0.949 . S
C1682 C1690 1.574 . S
C1682 C1698 1.368 . S
H1683 C1691 0.950 . S
H1684 C1689 0.950 . S
H1685 C1690 0.949 . S
H1686 C1692 0.950 . S
H1687 C1693 0.950 . S
H1688 C1694 0.949 . S
C1689 H1684 0.950 . S
C1689 C1691 1.327 . S
C1689 C1695 1.429 . S
C1690 C1682 1.574 . S
C1690 H1685 0.949 . S
C1690 C1696 1.368 . S
C1691 C1675 1.349 . S
C1691 H1683 0.950 . S
C1691 C1689 1.327 . S
C1692 C1680 1.349 . S
C1692 H1686 0.950 . S
C1692 C1693 1.327 . S
C1693 H1687 0.950 . S
C1693 C1692 1.327 . S
C1693 C1697 1.429 . S
C1694 C1677 1.574 . S
C1694 H1688 0.949 . S
C1694 C1698 1.368 . S
C1695 C1676 1.429 . S
C1695 C1689 1.429 . S
C1695 C1696 1.523 . S
C1696 C1677 1.368 . S
C1696 C1690 1.368 . S
C1696 C1695 1.523 . S
C1697 C1681 1.429 . S
C1697 C1693 1.429 . S
C1697 C1698 1.523 . S
C1698 C1682 1.368 . S
C1698 C1694 1.368 . S
C1698 C1697 1.523 . S
H1699 C1674 0.950 . S
H1700 C1676 0.950 . S
H1701 C1677 0.949 . S
H1702 C1679 0.950 . S
H1703 C1681 0.950 . S
C1704 C1705 1.349 . S
C1704 C1706 1.327 . S
C1704 H1729 0.950 . S
C1705 C1704 1.349 . S
C1705 C1721 1.349 . S
C1706 C1704 1.327 . S
C1706 C1725 1.429 . S
C1706 H1730 0.950 . S
C1707 C1724 1.574 . S
C1707 C1726 1.368 . S
C1707 H1731 0.949 . S
H1708 C1712 0.949 . S
C1709 C1710 1.349 . S
C1709 C1711 1.327 . S
C1709 H1732 0.950 . S
C1710 C1709 1.349 . S
C1710 C1722 1.349 . S
C1711 C1709 1.327 . S
C1711 C1727 1.429 . S
C1711 H1733 0.950 . S
C1712 H1708 0.949 . S
C1712 C1720 1.574 . S
C1712 C1728 1.368 . S
H1713 C1721 0.950 . S
H1714 C1719 0.950 . S
H1715 C1720 0.949 . S
H1716 C1722 0.950 . S
H1717 C1723 0.950 . S
H1718 C1724 0.949 . S
C1719 H1714 0.950 . S
C1719 C1721 1.327 . S
C1719 C1725 1.429 . S
C1720 C1712 1.574 . S
C1720 H1715 0.949 . S
C1720 C1726 1.368 . S
C1721 C1705 1.349 . S
C1721 H1713 0.950 . S
C1721 C1719 1.327 . S
C1722 C1710 1.349 . S
C1722 H1716 0.950 . S
C1722 C1723 1.327 . S
C1723 H1717 0.950 . S
C1723 C1722 1.327 . S
C1723 C1727 1.429 . S
C1724 C1707 1.574 . S
C1724 H1718 0.949 . S
C1724 C1728 1.368 . S
C1725 C1706 1.429 . S
C1725 C1719 1.429 . S
C1725 C1726 1.523 . S
C1726 C1707 1.368 . S
C1726 C1720 1.368 . S
C1726 C1725 1.523 . S
C1727 C1711 1.429 . S
C1727 C1723 1.429 . S
C1727 C1728 1.523 . S
C1728 C1712 1.368 . S
C1728 C1724 1.368 . S
C1728 C1727 1.523 . S
H1729 C1704 0.950 . S
H1730 C1706 0.950 . S
H1731 C1707 0.949 . S
H1732 C1709 0.950 . S
H1733 C1711 0.950 . S
C1734 C1735 1.349 . S
C1734 C1736 1.327 . S
C1734 H1759 0.950 . S
C1735 C1734 1.349 . S
C1735 C1751 1.349 . S
C1736 C1734 1.327 . S
C1736 C1755 1.429 . S
C1736 H1760 0.950 . S
C1737 C1754 1.574 . S
C1737 C1756 1.368 . S
C1737 H1761 0.949 . S
H1738 C1742 0.949 . S
C1739 C1740 1.349 . S
C1739 C1741 1.327 . S
C1739 H1762 0.950 . S
C1740 C1739 1.349 . S
C1740 C1752 1.349 . S
C1741 C1739 1.327 . S
C1741 C1757 1.429 . S
C1741 H1763 0.950 . S
C1742 H1738 0.949 . S
C1742 C1750 1.574 . S
C1742 C1758 1.368 . S
H1743 C1751 0.950 . S
H1744 C1749 0.950 . S
H1745 C1750 0.949 . S
H1746 C1752 0.950 . S
H1747 C1753 0.950 . S
H1748 C1754 0.949 . S
C1749 H1744 0.950 . S
C1749 C1751 1.327 . S
C1749 C1755 1.429 . S
C1750 C1742 1.574 . S
C1750 H1745 0.949 . S
C1750 C1756 1.368 . S
C1751 C1735 1.349 . S
C1751 H1743 0.950 . S
C1751 C1749 1.327 . S
C1752 C1740 1.349 . S
C1752 H1746 0.950 . S
C1752 C1753 1.327 . S
C1753 H1747 0.950 . S
C1753 C1752 1.327 . S
C1753 C1757 1.429 . S
C1754 C1737 1.574 . S
C1754 H1748 0.949 . S
C1754 C1758 1.368 . S
C1755 C1736 1.429 . S
C1755 C1749 1.429 . S
C1755 C1756 1.523 . S
C1756 C1737 1.368 . S
C1756 C1750 1.368 . S
C1756 C1755 1.523 . S
C1757 C1741 1.429 . S
C1757 C1753 1.429 . S
C1757 C1758 1.523 . S
C1758 C1742 1.368 . S
C1758 C1754 1.368 . S
C1758 C1757 1.523 . S
H1759 C1734 0.950 . S
H1760 C1736 0.950 . S
H1761 C1737 0.949 . S
H1762 C1739 0.950 . S
H1763 C1741 0.950 . S
C1764 C1765 1.349 . S
C1764 C1766 1.327 . S
C1764 H1789 0.950 . S
C1765 C1764 1.349 . S
C1765 C1781 1.349 . S
C1766 C1764 1.327 . S
C1766 C1785 1.429 . S
C1766 H1790 0.950 . S
C1767 C1784 1.574 . S
C1767 C1786 1.368 . S
C1767 H1791 0.949 . S
H1768 C1772 0.949 . S
C1769 C1770 1.349 . S
C1769 C1771 1.327 . S
C1769 H1792 0.950 . S
C1770 C1769 1.349 . S
C1770 C1782 1.349 . S
C1771 C1769 1.327 . S
C1771 C1787 1.429 . S
C1771 H1793 0.950 . S
C1772 H1768 0.949 . S
C1772 C1780 1.574 . S
C1772 C1788 1.368 . S
H1773 C1781 0.950 . S
H1774 C1779 0.950 . S
H1775 C1780 0.949 . S
H1776 C1782 0.950 . S
H1777 C1783 0.950 . S
H1778 C1784 0.949 . S
C1779 H1774 0.950 . S
C1779 C1781 1.327 . S
C1779 C1785 1.429 . S
C1780 C1772 1.574 . S
C1780 H1775 0.949 . S
C1780 C1786 1.368 . S
C1781 C1765 1.349 . S
C1781 H1773 0.950 . S
C1781 C1779 1.327 . S
C1782 C1770 1.349 . S
C1782 H1776 0.950 . S
C1782 C1783 1.327 . S
C1783 H1777 0.950 . S
C1783 C1782 1.327 . S
C1783 C1787 1.429 . S
C1784 C1767 1.574 . S
C1784 H1778 0.949 . S
C1784 C1788 1.368 . S
C1785 C1766 1.429 . S
C1785 C1779 1.429 . S
C1785 C1786 1.523 . S
C1786 C1767 1.368 . S
C1786 C1780 1.368 . S
C1786 C1785 1.523 . S
C1787 C1771 1.429 . S
C1787 C1783 1.429 . S
C1787 C1788 1.523 . S
C1788 C1772 1.368 . S
C1788 C1784 1.368 . S
C1788 C1787 1.523 . S
H1789 C1764 0.950 . S
H1790 C1766 0.950 . S
H1791 C1767 0.949 . S
H1792 C1769 0.950 . S
H1793 C1771 0.950 . S
C1794 C1795 1.349 . S
C1794 C1796 1.327 . S
C1794 H1819 0.950 . S
C1795 C1794 1.349 . S
C1795 C1811 1.349 . S
C1796 C1794 1.327 . S
C1796 C1815 1.429 . S
C1796 H1820 0.950 . S
C1797 C1814 1.574 . S
C1797 C1816 1.368 . S
C1797 H1821 0.949 . S
H1798 C1802 0.949 . S
C1799 C1800 1.349 . S
C1799 C1801 1.327 . S
C1799 H1822 0.950 1_556 S
C1800 C1799 1.349 . S
C1800 C1812 1.349 . S
C1801 C1799 1.327 . S
C1801 C1817 1.429 . S
C1801 H1823 0.950 . S
C1802 H1798 0.949 . S
C1802 C1810 1.574 . S
C1802 C1818 1.368 . S
H1803 C1811 0.950 . S
H1804 C1809 0.950 . S
H1805 C1810 0.949 . S
H1806 C1812 0.950 . S
H1807 C1813 0.950 . S
H1808 C1814 0.949 . S
C1809 H1804 0.950 . S
C1809 C1811 1.327 . S
C1809 C1815 1.429 . S
C1810 C1802 1.574 . S
C1810 H1805 0.949 . S
C1810 C1816 1.368 . S
C1811 C1795 1.349 . S
C1811 H1803 0.950 . S
C1811 C1809 1.327 . S
C1812 C1800 1.349 . S
C1812 H1806 0.950 . S
C1812 C1813 1.327 . S
C1813 H1807 0.950 . S
C1813 C1812 1.327 . S
C1813 C1817 1.429 . S
C1814 C1797 1.574 . S
C1814 H1808 0.949 . S
C1814 C1818 1.368 . S
C1815 C1796 1.429 . S
C1815 C1809 1.429 . S
C1815 C1816 1.523 . S
C1816 C1797 1.368 . S
C1816 C1810 1.368 . S
C1816 C1815 1.523 . S
C1817 C1801 1.429 . S
C1817 C1813 1.429 . S
C1817 C1818 1.523 . S
C1818 C1802 1.368 . S
C1818 C1814 1.368 . S
C1818 C1817 1.523 . S
H1819 C1794 0.950 . S
H1820 C1796 0.950 . S
H1821 C1797 0.949 . S
H1822 C1799 0.950 1_554 S
H1823 C1801 0.950 . S
C1824 C1825 1.349 . S
C1824 C1826 1.327 . S
C1824 H1849 0.950 . S
C1825 C1824 1.349 . S
C1825 C1841 1.349 . S
C1826 C1824 1.327 . S
C1826 C1845 1.429 . S
C1826 H1850 0.950 . S
C1827 C1844 1.574 . S
C1827 C1846 1.368 . S
C1827 H1851 0.949 . S
H1828 C1832 0.949 . S
C1829 C1830 1.349 . S
C1829 C1831 1.327 . S
C1829 H1852 0.950 . S
C1830 C1829 1.349 . S
C1830 C1842 1.349 . S
C1831 C1829 1.327 . S
C1831 C1847 1.429 . S
C1831 H1853 0.950 . S
C1832 H1828 0.949 . S
C1832 C1840 1.574 . S
C1832 C1848 1.368 . S
H1833 C1841 0.950 . S
H1834 C1839 0.950 . S
H1835 C1840 0.949 . S
H1836 C1842 0.950 . S
H1837 C1843 0.950 . S
H1838 C1844 0.949 . S
C1839 H1834 0.950 . S
C1839 C1841 1.327 . S
C1839 C1845 1.429 . S
C1840 C1832 1.574 . S
C1840 H1835 0.949 . S
C1840 C1846 1.368 . S
C1841 C1825 1.349 . S
C1841 H1833 0.950 . S
C1841 C1839 1.327 . S
C1842 C1830 1.349 . S
C1842 H1836 0.950 . S
C1842 C1843 1.327 . S
C1843 H1837 0.950 . S
C1843 C1842 1.327 . S
C1843 C1847 1.429 . S
C1844 C1827 1.574 . S
C1844 H1838 0.949 . S
C1844 C1848 1.368 . S
C1845 C1826 1.429 . S
C1845 C1839 1.429 . S
C1845 C1846 1.523 . S
C1846 C1827 1.368 . S
C1846 C1840 1.368 . S
C1846 C1845 1.523 . S
C1847 C1831 1.429 . S
C1847 C1843 1.429 . S
C1847 C1848 1.523 . S
C1848 C1832 1.368 . S
C1848 C1844 1.368 . S
C1848 C1847 1.523 . S
H1849 C1824 0.950 . S
H1850 C1826 0.950 . S
H1851 C1827 0.949 . S
H1852 C1829 0.950 . S
H1853 C1831 0.950 . S
C1854 C1855 1.349 . S
C1854 C1856 1.327 . S
C1854 H1879 0.950 . S
C1855 C1854 1.349 . S
C1855 C1871 1.349 . S
C1856 C1854 1.327 . S
C1856 C1875 1.429 . S
C1856 H1880 0.950 . S
C1857 C1874 1.574 . S
C1857 C1876 1.368 . S
C1857 H1881 0.949 . S
H1858 C1862 0.949 . S
C1859 C1860 1.349 . S
C1859 C1861 1.327 . S
C1859 H1882 0.950 . S
C1860 C1859 1.349 . S
C1860 C1872 1.349 . S
C1861 C1859 1.327 . S
C1861 C1877 1.429 . S
C1861 H1883 0.950 . S
C1862 H1858 0.949 . S
C1862 C1870 1.574 . S
C1862 C1878 1.368 . S
H1863 C1871 0.950 . S
H1864 C1869 0.950 . S
H1865 C1870 0.949 . S
H1866 C1872 0.950 . S
H1867 C1873 0.950 . S
H1868 C1874 0.949 . S
C1869 H1864 0.950 . S
C1869 C1871 1.327 . S
C1869 C1875 1.429 . S
C1870 C1862 1.574 . S
C1870 H1865 0.949 . S
C1870 C1876 1.368 . S
C1871 C1855 1.349 . S
C1871 H1863 0.950 . S
C1871 C1869 1.327 . S
C1872 C1860 1.349 . S
C1872 H1866 0.950 . S
C1872 C1873 1.327 . S
C1873 H1867 0.950 . S
C1873 C1872 1.327 . S
C1873 C1877 1.429 . S
C1874 C1857 1.574 . S
C1874 H1868 0.949 . S
C1874 C1878 1.368 . S
C1875 C1856 1.429 . S
C1875 C1869 1.429 . S
C1875 C1876 1.523 . S
C1876 C1857 1.368 . S
C1876 C1870 1.368 . S
C1876 C1875 1.523 . S
C1877 C1861 1.429 . S
C1877 C1873 1.429 . S
C1877 C1878 1.523 . S
C1878 C1862 1.368 . S
C1878 C1874 1.368 . S
C1878 C1877 1.523 . S
H1879 C1854 0.950 . S
H1880 C1856 0.950 . S
H1881 C1857 0.949 . S
H1882 C1859 0.950 . S
H1883 C1861 0.950 . S
C1884 C1885 1.349 . S
C1884 C1886 1.327 . S
C1884 H1909 0.950 . S
C1885 C1884 1.349 . S
C1885 C1901 1.349 . S
C1886 C1884 1.327 . S
C1886 C1905 1.429 . S
C1886 H1910 0.950 . S
C1887 C1904 1.574 . S
C1887 C1906 1.368 . S
C1887 H1911 0.949 . S
H1888 C1892 0.949 . S
C1889 C1890 1.349 . S
C1889 C1891 1.327 . S
C1889 H1912 0.950 . S
C1890 C1889 1.349 . S
C1890 C1902 1.349 . S
C1891 C1889 1.327 . S
C1891 C1907 1.429 . S
C1891 H1913 0.950 . S
C1892 H1888 0.949 . S
C1892 C1900 1.574 . S
C1892 C1908 1.368 . S
H1893 C1901 0.950 . S
H1894 C1899 0.950 . S
H1895 C1900 0.949 . S
H1896 C1902 0.950 . S
H1897 C1903 0.950 . S
H1898 C1904 0.949 . S
C1899 H1894 0.950 . S
C1899 C1901 1.327 . S
C1899 C1905 1.429 . S
C1900 C1892 1.574 . S
C1900 H1895 0.949 . S
C1900 C1906 1.368 . S
C1901 C1885 1.349 . S
C1901 H1893 0.950 . S
C1901 C1899 1.327 . S
C1902 C1890 1.349 . S
C1902 H1896 0.950 . S
C1902 C1903 1.327 . S
C1903 H1897 0.950 . S
C1903 C1902 1.327 . S
C1903 C1907 1.429 . S
C1904 C1887 1.574 . S
C1904 H1898 0.949 . S
C1904 C1908 1.368 . S
C1905 C1886 1.429 . S
C1905 C1899 1.429 . S
C1905 C1906 1.523 . S
C1906 C1887 1.368 . S
C1906 C1900 1.368 . S
C1906 C1905 1.523 . S
C1907 C1891 1.429 . S
C1907 C1903 1.429 . S
C1907 C1908 1.523 . S
C1908 C1892 1.368 . S
C1908 C1904 1.368 . S
C1908 C1907 1.523 . S
H1909 C1884 0.950 . S
H1910 C1886 0.950 . S
H1911 C1887 0.949 . S
H1912 C1889 0.950 . S
H1913 C1891 0.950 . S
C1914 C1915 1.349 . S
C1914 C1916 1.327 . S
C1914 H1939 0.950 . S
C1915 C1914 1.349 . S
C1915 C1931 1.349 . S
C1916 C1914 1.327 . S
C1916 C1935 1.429 . S
C1916 H1940 0.950 . S
C1917 C1934 1.574 . S
C1917 C1936 1.368 . S
C1917 H1941 0.949 . S
H1918 C1922 0.949 . S
C1919 C1920 1.349 . S
C1919 C1921 1.327 . S
C1919 H1942 0.950 . S
C1920 C1919 1.349 . S
C1920 C1932 1.349 . S
C1921 C1919 1.327 . S
C1921 C1937 1.429 . S
C1921 H1943 0.950 . S
C1922 H1918 0.949 . S
C1922 C1930 1.574 . S
C1922 C1938 1.368 . S
H1923 C1931 0.950 . S
H1924 C1929 0.950 . S
H1925 C1930 0.949 . S
H1926 C1932 0.950 . S
H1927 C1933 0.950 . S
H1928 C1934 0.949 . S
C1929 H1924 0.950 . S
C1929 C1931 1.327 . S
C1929 C1935 1.429 . S
C1930 C1922 1.574 . S
C1930 H1925 0.949 . S
C1930 C1936 1.368 . S
C1931 C1915 1.349 . S
C1931 H1923 0.950 . S
C1931 C1929 1.327 . S
C1932 C1920 1.349 . S
C1932 H1926 0.950 . S
C1932 C1933 1.327 . S
C1933 H1927 0.950 . S
C1933 C1932 1.327 . S
C1933 C1937 1.429 . S
C1934 C1917 1.574 . S
C1934 H1928 0.949 . S
C1934 C1938 1.368 . S
C1935 C1916 1.429 . S
C1935 C1929 1.429 . S
C1935 C1936 1.523 . S
C1936 C1917 1.368 . S
C1936 C1930 1.368 . S
C1936 C1935 1.523 . S
C1937 C1921 1.429 . S
C1937 C1933 1.429 . S
C1937 C1938 1.523 . S
C1938 C1922 1.368 . S
C1938 C1934 1.368 . S
C1938 C1937 1.523 . S
H1939 C1914 0.950 . S
H1940 C1916 0.950 . S
H1941 C1917 0.949 . S
H1942 C1919 0.950 . S
H1943 C1921 0.950 . S
C1944 C1945 1.349 . S
C1944 C1946 1.327 . S
C1944 H1969 0.950 . S
C1945 C1944 1.349 . S
C1945 C1961 1.349 . S
C1946 C1944 1.327 . S
C1946 C1965 1.429 . S
C1946 H1970 0.950 . S
C1947 C1964 1.574 . S
C1947 C1966 1.368 . S
C1947 H1971 0.949 . S
H1948 C1952 0.949 . S
C1949 C1950 1.349 . S
C1949 C1951 1.327 . S
C1949 H1972 0.950 . S
C1950 C1949 1.349 . S
C1950 C1962 1.349 . S
C1951 C1949 1.327 . S
C1951 C1967 1.429 . S
C1951 H1973 0.950 . S
C1952 H1948 0.949 . S
C1952 C1960 1.574 . S
C1952 C1968 1.368 . S
H1953 C1961 0.950 . S
H1954 C1959 0.950 . S
H1955 C1960 0.949 . S
H1956 C1962 0.950 . S
H1957 C1963 0.950 . S
H1958 C1964 0.949 . S
C1959 H1954 0.950 . S
C1959 C1961 1.327 . S
C1959 C1965 1.429 . S
C1960 C1952 1.574 . S
C1960 H1955 0.949 . S
C1960 C1966 1.368 . S
C1961 C1945 1.349 . S
C1961 H1953 0.950 . S
C1961 C1959 1.327 . S
C1962 C1950 1.349 . S
C1962 H1956 0.950 . S
C1962 C1963 1.327 . S
C1963 H1957 0.950 . S
C1963 C1962 1.327 . S
C1963 C1967 1.429 . S
C1964 C1947 1.574 . S
C1964 H1958 0.949 . S
C1964 C1968 1.368 . S
C1965 C1946 1.429 . S
C1965 C1959 1.429 . S
C1965 C1966 1.523 . S
C1966 C1947 1.368 . S
C1966 C1960 1.368 . S
C1966 C1965 1.523 . S
C1967 C1951 1.429 . S
C1967 C1963 1.429 . S
C1967 C1968 1.523 . S
C1968 C1952 1.368 . S
C1968 C1964 1.368 . S
C1968 C1967 1.523 . S
H1969 C1944 0.950 . S
H1970 C1946 0.950 . S
H1971 C1947 0.949 . S
H1972 C1949 0.950 . S
H1973 C1951 0.950 . S
C1974 C1975 1.349 . S
C1974 C1976 1.327 . S
C1974 H1999 0.950 . S
C1975 C1974 1.349 . S
C1975 C1991 1.349 . S
C1976 C1974 1.327 . S
C1976 C1995 1.429 . S
C1976 H2000 0.950 . S
C1977 C1994 1.574 1_565 S
C1977 C1996 1.368 . S
C1977 H2001 0.949 . S
H1978 C1982 0.949 . S
C1979 C1980 1.349 . S
C1979 C1981 1.327 . S
C1979 H2002 0.950 . S
C1980 C1979 1.349 . S
C1980 C1992 1.349 . S
C1981 C1979 1.327 . S
C1981 C1997 1.429 . S
C1981 H2003 0.950 . S
C1982 H1978 0.949 . S
C1982 C1990 1.574 1_545 S
C1982 C1998 1.368 . S
H1983 C1991 0.950 . S
H1984 C1989 0.950 . S
H1985 C1990 0.949 . S
H1986 C1992 0.950 . S
H1987 C1993 0.950 . S
H1988 C1994 0.949 . S
C1989 H1984 0.950 . S
C1989 C1991 1.327 . S
C1989 C1995 1.429 . S
C1990 C1982 1.574 1_565 S
C1990 H1985 0.949 . S
C1990 C1996 1.368 . S
C1991 C1975 1.349 . S
C1991 H1983 0.950 . S
C1991 C1989 1.327 . S
C1992 C1980 1.349 . S
C1992 H1986 0.950 . S
C1992 C1993 1.327 . S
C1993 H1987 0.950 . S
C1993 C1992 1.327 . S
C1993 C1997 1.429 . S
C1994 C1977 1.574 1_545 S
C1994 H1988 0.949 . S
C1994 C1998 1.368 . S
C1995 C1976 1.429 . S
C1995 C1989 1.429 . S
C1995 C1996 1.523 . S
C1996 C1977 1.368 . S
C1996 C1990 1.368 . S
C1996 C1995 1.523 . S
C1997 C1981 1.429 . S
C1997 C1993 1.429 . S
C1997 C1998 1.523 . S
C1998 C1982 1.368 . S
C1998 C1994 1.368 . S
C1998 C1997 1.523 . S
H1999 C1974 0.950 . S
H2000 C1976 0.950 . S
H2001 C1977 0.949 . S
H2002 C1979 0.950 . S
H2003 C1981 0.950 . S
C2004 C2005 1.349 . S
C2004 C2006 1.327 . S
C2004 H2029 0.950 . S
C2005 C2004 1.349 . S
C2005 C2021 1.349 . S
C2006 C2004 1.327 . S
C2006 C2025 1.429 . S
C2006 H2030 0.950 . S
C2007 C2024 1.574 1_455 S
C2007 C2026 1.368 . S
C2007 H2031 0.949 . S
H2008 C2012 0.949 . S
C2009 C2010 1.349 . S
C2009 C2011 1.327 . S
C2009 H2032 0.950 . S
C2010 C2009 1.349 . S
C2010 C2022 1.349 . S
C2011 C2009 1.327 . S
C2011 C2027 1.429 . S
C2011 H2033 0.950 . S
C2012 H2008 0.949 . S
C2012 C2020 1.574 1_655 S
C2012 C2028 1.368 . S
H2013 C2021 0.950 . S
H2014 C2019 0.950 . S
H2015 C2020 0.949 . S
H2016 C2022 0.950 . S
H2017 C2023 0.950 . S
H2018 C2024 0.949 . S
C2019 H2014 0.950 . S
C2019 C2021 1.327 . S
C2019 C2025 1.429 . S
C2020 C2012 1.574 1_455 S
C2020 H2015 0.949 . S
C2020 C2026 1.368 . S
C2021 C2005 1.349 . S
C2021 H2013 0.950 . S
C2021 C2019 1.327 . S
C2022 C2010 1.349 . S
C2022 H2016 0.950 . S
C2022 C2023 1.327 . S
C2023 H2017 0.950 . S
C2023 C2022 1.327 . S
C2023 C2027 1.429 . S
C2024 C2007 1.574 1_655 S
C2024 H2018 0.949 . S
C2024 C2028 1.368 . S
C2025 C2006 1.429 . S
C2025 C2019 1.429 . S
C2025 C2026 1.523 . S
C2026 C2007 1.368 . S
C2026 C2020 1.368 . S
C2026 C2025 1.523 . S
C2027 C2011 1.429 . S
C2027 C2023 1.429 . S
C2027 C2028 1.523 . S
C2028 C2012 1.368 . S
C2028 C2024 1.368 . S
C2028 C2027 1.523 . S
H2029 C2004 0.950 . S
H2030 C2006 0.950 . S
H2031 C2007 0.949 . S
H2032 C2009 0.950 . S
H2033 C2011 0.950 . S
C2034 C2035 1.349 . S
C2034 C2036 1.327 . S
C2034 H2059 0.950 . S
C2035 C2034 1.349 . S
C2035 C2051 1.349 . S
C2036 C2034 1.327 . S
C2036 C2055 1.429 . S
C2036 H2060 0.950 . S
C2037 C2054 1.574 . S
C2037 C2056 1.368 . S
C2037 H2061 0.949 . S
H2038 C2042 0.949 . S
C2039 C2040 1.349 . S
C2039 C2041 1.327 . S
C2039 H2062 0.950 . S
C2040 C2039 1.349 . S
C2040 C2052 1.349 . S
C2041 C2039 1.327 . S
C2041 C2057 1.429 . S
C2041 H2063 0.950 . S
C2042 H2038 0.949 . S
C2042 C2050 1.574 . S
C2042 C2058 1.368 . S
H2043 C2051 0.950 . S
H2044 C2049 0.950 . S
H2045 C2050 0.949 . S
H2046 C2052 0.950 . S
H2047 C2053 0.950 . S
H2048 C2054 0.949 . S
C2049 H2044 0.950 . S
C2049 C2051 1.327 . S
C2049 C2055 1.429 . S
C2050 C2042 1.574 . S
C2050 H2045 0.949 . S
C2050 C2056 1.368 . S
C2051 C2035 1.349 . S
C2051 H2043 0.950 . S
C2051 C2049 1.327 . S
C2052 C2040 1.349 . S
C2052 H2046 0.950 . S
C2052 C2053 1.327 . S
C2053 H2047 0.950 . S
C2053 C2052 1.327 . S
C2053 C2057 1.429 . S
C2054 C2037 1.574 . S
C2054 H2048 0.949 . S
C2054 C2058 1.368 . S
C2055 C2036 1.429 . S
C2055 C2049 1.429 . S
C2055 C2056 1.523 . S
C2056 C2037 1.368 . S
C2056 C2050 1.368 . S
C2056 C2055 1.523 . S
C2057 C2041 1.429 . S
C2057 C2053 1.429 . S
C2057 C2058 1.523 . S
C2058 C2042 1.368 . S
C2058 C2054 1.368 . S
C2058 C2057 1.523 . S
H2059 C2034 0.950 . S
H2060 C2036 0.950 . S
H2061 C2037 0.949 . S
H2062 C2039 0.950 . S
H2063 C2041 0.950 . S
C2064 C2065 1.349 . S
C2064 C2066 1.327 . S
C2064 H2089 0.950 . S
C2065 C2064 1.349 . S
C2065 C2081 1.349 . S
C2066 C2064 1.327 . S
C2066 C2085 1.429 . S
C2066 H2090 0.950 . S
C2067 C2084 1.574 1_565 S
C2067 C2086 1.368 . S
C2067 H2091 0.949 . S
H2068 C2072 0.949 . S
C2069 C2070 1.349 . S
C2069 C2071 1.327 . S
C2069 H2092 0.950 . S
C2070 C2069 1.349 . S
C2070 C2082 1.349 . S
C2071 C2069 1.327 . S
C2071 C2087 1.429 . S
C2071 H2093 0.950 . S
C2072 H2068 0.949 . S
C2072 C2080 1.574 1_545 S
C2072 C2088 1.368 . S
H2073 C2081 0.950 . S
H2074 C2079 0.950 . S
H2075 C2080 0.949 . S
H2076 C2082 0.950 . S
H2077 C2083 0.950 . S
H2078 C2084 0.949 . S
C2079 H2074 0.950 . S
C2079 C2081 1.327 . S
C2079 C2085 1.429 . S
C2080 C2072 1.574 1_565 S
C2080 H2075 0.949 . S
C2080 C2086 1.368 . S
C2081 C2065 1.349 . S
C2081 H2073 0.950 . S
C2081 C2079 1.327 . S
C2082 C2070 1.349 . S
C2082 H2076 0.950 . S
C2082 C2083 1.327 . S
C2083 H2077 0.950 . S
C2083 C2082 1.327 . S
C2083 C2087 1.429 . S
C2084 C2067 1.574 1_545 S
C2084 H2078 0.949 . S
C2084 C2088 1.368 . S
C2085 C2066 1.429 . S
C2085 C2079 1.429 . S
C2085 C2086 1.523 . S
C2086 C2067 1.368 . S
C2086 C2080 1.368 . S
C2086 C2085 1.523 . S
C2087 C2071 1.429 . S
C2087 C2083 1.429 . S
C2087 C2088 1.523 . S
C2088 C2072 1.368 . S
C2088 C2084 1.368 . S
C2088 C2087 1.523 . S
H2089 C2064 0.950 . S
H2090 C2066 0.950 . S
H2091 C2067 0.949 . S
H2092 C2069 0.950 . S
H2093 C2071 0.950 . S
C2094 C2095 1.349 . S
C2094 C2096 1.327 . S
C2094 H2119 0.950 . S
C2095 C2094 1.349 . S
C2095 C2111 1.349 . S
C2096 C2094 1.327 . S
C2096 C2115 1.429 . S
C2096 H2120 0.950 . S
C2097 C2114 1.574 1_455 S
C2097 C2116 1.368 . S
C2097 H2121 0.949 . S
H2098 C2102 0.949 . S
C2099 C2100 1.349 . S
C2099 C2101 1.327 . S
C2099 H2122 0.950 . S
C2100 C2099 1.349 . S
C2100 C2112 1.349 . S
C2101 C2099 1.327 . S
C2101 C2117 1.429 . S
C2101 H2123 0.950 . S
C2102 H2098 0.949 . S
C2102 C2110 1.574 1_655 S
C2102 C2118 1.368 . S
H2103 C2111 0.950 . S
H2104 C2109 0.950 . S
H2105 C2110 0.949 . S
H2106 C2112 0.950 . S
H2107 C2113 0.950 . S
H2108 C2114 0.949 . S
C2109 H2104 0.950 . S
C2109 C2111 1.327 . S
C2109 C2115 1.429 . S
C2110 C2102 1.574 1_455 S
C2110 H2105 0.949 . S
C2110 C2116 1.368 . S
C2111 C2095 1.349 . S
C2111 H2103 0.950 . S
C2111 C2109 1.327 . S
C2112 C2100 1.349 . S
C2112 H2106 0.950 . S
C2112 C2113 1.327 . S
C2113 H2107 0.950 . S
C2113 C2112 1.327 . S
C2113 C2117 1.429 . S
C2114 C2097 1.574 1_655 S
C2114 H2108 0.949 . S
C2114 C2118 1.368 . S
C2115 C2096 1.429 . S
C2115 C2109 1.429 . S
C2115 C2116 1.523 . S
C2116 C2097 1.368 . S
C2116 C2110 1.368 . S
C2116 C2115 1.523 . S
C2117 C2101 1.429 . S
C2117 C2113 1.429 . S
C2117 C2118 1.523 . S
C2118 C2102 1.368 . S
C2118 C2114 1.368 . S
C2118 C2117 1.523 . S
H2119 C2094 0.950 . S
H2120 C2096 0.950 . S
H2121 C2097 0.949 . S
H2122 C2099 0.950 . S
H2123 C2101 0.950 . S
C2124 C2125 1.349 . S
C2124 C2126 1.302 1_554 S
C2124 H2149 0.950 . S
C2125 C2124 1.349 . S
C2125 C2141 1.349 . S
C2126 C2124 1.302 1_556 S
C2126 C2145 1.437 . S
C2126 H2150 0.967 . S
C2127 C2144 1.574 . S
C2127 C2146 1.368 . S
C2127 H2151 0.949 . S
H2128 C2132 0.949 . S
C2129 C2130 1.349 . S
C2129 C2131 1.327 . S
C2129 H2152 0.950 . S
C2130 C2129 1.349 . S
C2130 C2142 1.349 . S
C2131 C2129 1.327 . S
C2131 C2147 1.429 . S
C2131 H2153 0.950 . S
C2132 H2128 0.949 . S
C2132 C2140 1.574 . S
C2132 C2148 1.368 . S
H2133 C2141 0.950 . S
H2134 C2139 0.950 . S
H2135 C2140 0.949 . S
H2136 C2142 0.950 . S
H2137 C2143 0.950 . S
H2138 C2144 0.949 . S
C2139 H2134 0.950 . S
C2139 C2141 1.327 . S
C2139 C2145 1.429 1_554 S
C2140 C2132 1.574 . S
C2140 H2135 0.949 . S
C2140 C2146 1.368 . S
C2141 C2125 1.349 . S
C2141 H2133 0.950 . S
C2141 C2139 1.327 . S
C2142 C2130 1.349 . S
C2142 H2136 0.950 . S
C2142 C2143 1.327 . S
C2143 H2137 0.950 . S
C2143 C2142 1.327 . S
C2143 C2147 1.429 . S
C2144 C2127 1.574 . S
C2144 H2138 0.949 . S
C2144 C2148 1.368 . S
C2145 C2126 1.437 . S
C2145 C2139 1.429 1_556 S
C2145 C2146 1.523 . S
C2146 C2127 1.368 . S
C2146 C2140 1.368 . S
C2146 C2145 1.523 . S
C2147 C2131 1.429 . S
C2147 C2143 1.429 . S
C2147 C2148 1.523 . S
C2148 C2132 1.368 . S
C2148 C2144 1.368 . S
C2148 C2147 1.523 . S
H2149 C2124 0.950 . S
H2150 C2126 0.967 . S
H2151 C2127 0.949 . S
H2152 C2129 0.950 . S
H2153 C2131 0.950 . S
C2154 C2155 1.349 . S
C2154 C2156 1.327 . S
C2154 H2179 0.950 . S
C2155 C2154 1.349 . S
C2155 C2171 1.349 . S
C2156 C2154 1.327 . S
C2156 C2175 1.429 1_554 S
C2156 H2180 0.950 . S
C2157 C2174 1.574 . S
C2157 C2176 1.368 . S
C2157 H2181 0.949 . S
H2158 C2162 0.949 . S
C2159 C2160 1.349 . S
C2159 C2161 1.327 . S
C2159 H2182 0.950 . S
C2160 C2159 1.349 . S
C2160 C2172 1.349 . S
C2161 C2159 1.327 . S
C2161 C2177 1.429 . S
C2161 H2183 0.950 . S
C2162 H2158 0.949 . S
C2162 C2170 1.574 . S
C2162 C2178 1.368 . S
H2163 C2171 0.950 . S
H2164 C2169 0.950 . S
H2165 C2170 0.949 . S
H2166 C2172 0.950 . S
H2167 C2173 0.950 . S
H2168 C2174 0.949 . S
C2169 H2164 0.950 . S
C2169 C2171 1.327 1_556 S
C2169 C2175 1.429 . S
C2170 C2162 1.574 . S
C2170 H2165 0.949 . S
C2170 C2176 1.368 . S
C2171 C2155 1.349 . S
C2171 H2163 0.950 . S
C2171 C2169 1.327 1_554 S
C2172 C2160 1.349 . S
C2172 H2166 0.950 . S
C2172 C2173 1.327 . S
C2173 H2167 0.950 . S
C2173 C2172 1.327 . S
C2173 C2177 1.429 . S
C2174 C2157 1.574 . S
C2174 H2168 0.949 . S
C2174 C2178 1.368 . S
C2175 C2156 1.429 1_556 S
C2175 C2169 1.429 . S
C2175 C2176 1.523 . S
C2176 C2157 1.368 . S
C2176 C2170 1.368 . S
C2176 C2175 1.523 . S
C2177 C2161 1.429 . S
C2177 C2173 1.429 . S
C2177 C2178 1.523 . S
C2178 C2162 1.368 . S
C2178 C2174 1.368 . S
C2178 C2177 1.523 . S
H2179 C2154 0.950 . S
H2180 C2156 0.950 . S
H2181 C2157 0.949 . S
H2182 C2159 0.950 . S
H2183 C2161 0.950 . S
C2184 C2185 1.349 . S
C2184 C2186 1.327 . S
C2184 H2209 0.950 . S
C2185 C2184 1.349 . S
C2185 C2201 1.349 . S
C2186 C2184 1.327 . S
C2186 C2205 1.429 1_554 S
C2186 H2210 0.950 . S
C2187 C2204 1.574 . S
C2187 C2206 1.368 . S
C2187 H2211 0.949 . S
H2188 C2192 0.949 . S
C2189 C2190 1.349 . S
C2189 C2191 1.327 . S
C2189 H2212 0.950 . S
C2190 C2189 1.349 . S
C2190 C2202 1.349 . S
C2191 C2189 1.327 . S
C2191 C2207 1.429 . S
C2191 H2213 0.950 . S
C2192 H2188 0.949 . S
C2192 C2200 1.574 . S
C2192 C2208 1.368 . S
H2193 C2201 0.950 . S
H2194 C2199 0.950 . S
H2195 C2200 0.949 . S
H2196 C2202 0.950 . S
H2197 C2203 0.950 . S
H2198 C2204 0.949 . S
C2199 H2194 0.950 . S
C2199 C2201 1.327 1_556 S
C2199 C2205 1.429 . S
C2200 C2192 1.574 . S
C2200 H2195 0.949 . S
C2200 C2206 1.368 . S
C2201 C2185 1.349 . S
C2201 H2193 0.950 . S
C2201 C2199 1.327 1_554 S
C2202 C2190 1.349 . S
C2202 H2196 0.950 . S
C2202 C2203 1.327 . S
C2203 H2197 0.950 . S
C2203 C2202 1.327 . S
C2203 C2207 1.429 . S
C2204 C2187 1.574 . S
C2204 H2198 0.949 . S
C2204 C2208 1.368 . S
C2205 C2186 1.429 1_556 S
C2205 C2199 1.429 . S
C2205 C2206 1.523 . S
C2206 C2187 1.368 . S
C2206 C2200 1.368 . S
C2206 C2205 1.523 . S
C2207 C2191 1.429 . S
C2207 C2203 1.429 . S
C2207 C2208 1.523 . S
C2208 C2192 1.368 . S
C2208 C2204 1.368 . S
C2208 C2207 1.523 . S
H2209 C2184 0.950 . S
H2210 C2186 0.950 . S
H2211 C2187 0.949 . S
H2212 C2189 0.950 . S
H2213 C2191 0.950 . S
C2214 C2215 1.349 . S
C2214 C2216 1.327 . S
C2214 H2239 0.950 . S
C2215 C2214 1.349 . S
C2215 C2231 1.349 . S
C2216 C2214 1.327 . S
C2216 C2235 1.429 . S
C2216 H2240 0.950 . S
C2217 C2234 1.574 . S
C2217 C2236 1.368 . S
C2217 H2241 0.949 . S
H2218 C2222 0.949 . S
C2219 C2220 1.349 . S
C2219 C2221 1.327 . S
C2219 H2242 0.950 . S
C2220 C2219 1.349 . S
C2220 C2232 1.349 . S
C2221 C2219 1.327 . S
C2221 C2237 1.429 . S
C2221 H2243 0.950 . S
C2222 H2218 0.949 . S
C2222 C2230 1.574 . S
C2222 C2238 1.368 . S
H2223 C2231 0.950 . S
H2224 C2229 0.950 . S
H2225 C2230 0.949 . S
H2226 C2232 0.950 . S
H2227 C2233 0.950 . S
H2228 C2234 0.949 . S
C2229 H2224 0.950 . S
C2229 C2231 1.327 . S
C2229 C2235 1.429 . S
C2230 C2222 1.574 . S
C2230 H2225 0.949 . S
C2230 C2236 1.368 . S
C2231 C2215 1.349 . S
C2231 H2223 0.950 . S
C2231 C2229 1.327 . S
C2232 C2220 1.349 . S
C2232 H2226 0.950 . S
C2232 C2233 1.327 . S
C2233 H2227 0.950 . S
C2233 C2232 1.327 . S
C2233 C2237 1.429 . S
C2234 C2217 1.574 . S
C2234 H2228 0.949 . S
C2234 C2238 1.368 . S
C2235 C2216 1.429 . S
C2235 C2229 1.429 . S
C2235 C2236 1.523 . S
C2236 C2217 1.368 . S
C2236 C2230 1.368 . S
C2236 C2235 1.523 . S
C2237 C2221 1.429 . S
C2237 C2233 1.429 . S
C2237 C2238 1.523 . S
C2238 C2222 1.368 . S
C2238 C2234 1.368 . S
C2238 C2237 1.523 . S
H2239 C2214 0.950 . S
H2240 C2216 0.950 . S
H2241 C2217 0.949 . S
H2242 C2219 0.950 . S
H2243 C2221 0.950 . S
C2244 C2245 1.349 . S
C2244 C2246 1.327 . S
C2244 H2269 0.950 . S
C2245 C2244 1.349 . S
C2245 C2261 1.349 . S
C2246 C2244 1.327 . S
C2246 C2265 1.429 . S
C2246 H2270 0.950 . S
C2247 C2264 1.574 . S
C2247 C2266 1.368 . S
C2247 H2271 0.949 . S
H2248 C2252 0.949 . S
C2249 C2250 1.349 . S
C2249 C2251 1.327 . S
C2249 H2272 0.950 . S
C2250 C2249 1.349 . S
C2250 C2262 1.349 . S
C2251 C2249 1.327 . S
C2251 C2267 1.429 . S
C2251 H2273 0.950 . S
C2252 H2248 0.949 . S
C2252 C2260 1.574 . S
C2252 C2268 1.368 . S
H2253 C2261 0.950 . S
H2254 C2259 0.950 . S
H2255 C2260 0.949 . S
H2256 C2262 0.950 . S
H2257 C2263 0.950 . S
H2258 C2264 0.949 . S
C2259 H2254 0.950 . S
C2259 C2261 1.327 . S
C2259 C2265 1.429 . S
C2260 C2252 1.574 . S
C2260 H2255 0.949 . S
C2260 C2266 1.368 . S
C2261 C2245 1.349 . S
C2261 H2253 0.950 . S
C2261 C2259 1.327 . S
C2262 C2250 1.349 . S
C2262 H2256 0.950 . S
C2262 C2263 1.327 . S
C2263 H2257 0.950 . S
C2263 C2262 1.327 . S
C2263 C2267 1.429 . S
C2264 C2247 1.574 . S
C2264 H2258 0.949 . S
C2264 C2268 1.368 . S
C2265 C2246 1.429 . S
C2265 C2259 1.429 . S
C2265 C2266 1.523 . S
C2266 C2247 1.368 . S
C2266 C2260 1.368 . S
C2266 C2265 1.523 . S
C2267 C2251 1.429 . S
C2267 C2263 1.429 . S
C2267 C2268 1.523 . S
C2268 C2252 1.368 . S
C2268 C2264 1.368 . S
C2268 C2267 1.523 . S
H2269 C2244 0.950 . S
H2270 C2246 0.950 . S
H2271 C2247 0.949 . S
H2272 C2249 0.950 . S
H2273 C2251 0.950 . S
C2274 C2275 1.349 . S
C2274 C2276 1.327 . S
C2274 H2299 0.950 . S
C2275 C2274 1.349 . S
C2275 C2291 1.349 . S
C2276 C2274 1.327 . S
C2276 C2295 1.429 . S
C2276 H2300 0.950 . S
C2277 C2294 1.574 . S
C2277 C2296 1.368 . S
C2277 H2301 0.949 . S
H2278 C2282 0.949 . S
C2279 C2280 1.349 . S
C2279 C2281 1.327 . S
C2279 H2302 0.950 . S
C2280 C2279 1.349 . S
C2280 C2292 1.349 . S
C2281 C2279 1.327 . S
C2281 C2297 1.429 . S
C2281 H2303 0.950 . S
C2282 H2278 0.949 . S
C2282 C2290 1.574 . S
C2282 C2298 1.368 . S
H2283 C2291 0.950 . S
H2284 C2289 0.950 . S
H2285 C2290 0.949 . S
H2286 C2292 0.950 . S
H2287 C2293 0.950 . S
H2288 C2294 0.949 . S
C2289 H2284 0.950 . S
C2289 C2291 1.327 . S
C2289 C2295 1.429 . S
C2290 C2282 1.574 . S
C2290 H2285 0.949 . S
C2290 C2296 1.368 . S
C2291 C2275 1.349 . S
C2291 H2283 0.950 . S
C2291 C2289 1.327 . S
C2292 C2280 1.349 . S
C2292 H2286 0.950 . S
C2292 C2293 1.327 . S
C2293 H2287 0.950 . S
C2293 C2292 1.327 . S
C2293 C2297 1.429 . S
C2294 C2277 1.574 . S
C2294 H2288 0.949 . S
C2294 C2298 1.368 . S
C2295 C2276 1.429 . S
C2295 C2289 1.429 . S
C2295 C2296 1.523 . S
C2296 C2277 1.368 . S
C2296 C2290 1.368 . S
C2296 C2295 1.523 . S
C2297 C2281 1.429 . S
C2297 C2293 1.429 . S
C2297 C2298 1.523 . S
C2298 C2282 1.368 . S
C2298 C2294 1.368 . S
C2298 C2297 1.523 . S
H2299 C2274 0.950 . S
H2300 C2276 0.950 . S
H2301 C2277 0.949 . S
H2302 C2279 0.950 . S
H2303 C2281 0.950 . S
C2304 C2305 1.349 . S
C2304 C2306 1.327 . S
C2304 H2329 0.950 . S
C2305 C2304 1.349 . S
C2305 C2321 1.349 . S
C2306 C2304 1.327 . S
C2306 C2325 1.429 . S
C2306 H2330 0.950 . S
C2307 C2324 1.574 . S
C2307 C2326 1.368 . S
C2307 H2331 0.949 . S
H2308 C2312 0.949 . S
C2309 C2310 1.349 . S
C2309 C2311 1.327 . S
C2309 H2332 0.950 . S
C2310 C2309 1.349 . S
C2310 C2322 1.349 . S
C2311 C2309 1.327 . S
C2311 C2327 1.429 1_556 S
C2311 H2333 0.950 . S
C2312 H2308 0.949 . S
C2312 C2320 1.574 . S
C2312 C2328 1.368 . S
H2313 C2321 0.950 . S
H2314 C2319 0.950 . S
H2315 C2320 0.949 . S
H2316 C2322 0.950 . S
H2317 C2323 0.969 . S
H2318 C2324 0.949 . S
C2319 H2314 0.950 . S
C2319 C2321 1.327 . S
C2319 C2325 1.429 . S
C2320 C2312 1.574 . S
C2320 H2315 0.949 . S
C2320 C2326 1.368 . S
C2321 C2305 1.349 . S
C2321 H2313 0.950 . S
C2321 C2319 1.327 . S
C2322 C2310 1.349 . S
C2322 H2316 0.950 . S
C2322 C2323 1.300 1_556 S
C2323 H2317 0.969 . S
C2323 C2322 1.300 1_554 S
C2323 C2327 1.438 . S
C2324 C2307 1.574 . S
C2324 H2318 0.949 . S
C2324 C2328 1.368 . S
C2325 C2306 1.429 . S
C2325 C2319 1.429 . S
C2325 C2326 1.523 . S
C2326 C2307 1.368 . S
C2326 C2320 1.368 . S
C2326 C2325 1.523 . S
C2327 C2311 1.429 1_554 S
C2327 C2323 1.438 . S
C2327 C2328 1.523 . S
C2328 C2312 1.368 . S
C2328 C2324 1.368 . S
C2328 C2327 1.523 . S
H2329 C2304 0.950 . S
H2330 C2306 0.950 . S
H2331 C2307 0.949 . S
H2332 C2309 0.950 . S
H2333 C2311 0.950 . S
C2334 C2335 1.349 . S
C2334 C2336 1.327 . S
C2334 H2359 0.950 . S
C2335 C2334 1.349 . S
C2335 C2351 1.349 . S
C2336 C2334 1.327 . S
C2336 C2355 1.429 . S
C2336 H2360 0.950 . S
C2337 C2354 1.574 . S
C2337 C2356 1.368 . S
C2337 H2361 0.949 . S
H2338 C2342 0.949 . S
C2339 C2340 1.349 . S
C2339 C2341 1.327 . S
C2339 H2362 0.950 . S
C2340 C2339 1.349 . S
C2340 C2352 1.349 . S
C2341 C2339 1.327 . S
C2341 C2357 1.429 1_556 S
C2341 H2363 0.950 . S
C2342 H2338 0.949 . S
C2342 C2350 1.574 . S
C2342 C2358 1.368 . S
H2343 C2351 0.950 . S
H2344 C2349 0.950 . S
H2345 C2350 0.949 . S
H2346 C2352 0.950 . S
H2347 C2353 0.950 1_554 S
H2348 C2354 0.949 . S
C2349 H2344 0.950 . S
C2349 C2351 1.327 . S
C2349 C2355 1.429 . S
C2350 C2342 1.574 . S
C2350 H2345 0.949 . S
C2350 C2356 1.368 . S
C2351 C2335 1.349 . S
C2351 H2343 0.950 . S
C2351 C2349 1.327 . S
C2352 C2340 1.349 . S
C2352 H2346 0.950 . S
C2352 C2353 1.327 . S
C2353 H2347 0.950 1_556 S
C2353 C2352 1.327 . S
C2353 C2357 1.429 1_556 S
C2354 C2337 1.574 . S
C2354 H2348 0.949 . S
C2354 C2358 1.368 . S
C2355 C2336 1.429 . S
C2355 C2349 1.429 . S
C2355 C2356 1.523 . S
C2356 C2337 1.368 . S
C2356 C2350 1.368 . S
C2356 C2355 1.523 . S
C2357 C2341 1.429 1_554 S
C2357 C2353 1.429 1_554 S
C2357 C2358 1.523 . S
C2358 C2342 1.368 . S
C2358 C2354 1.368 . S
C2358 C2357 1.523 . S
H2359 C2334 0.950 . S
H2360 C2336 0.950 . S
H2361 C2337 0.949 . S
H2362 C2339 0.950 . S
H2363 C2341 0.950 . S
C2364 C2365 1.349 . S
C2364 C2366 1.327 . S
C2364 H2389 0.950 . S
C2365 C2364 1.349 . S
C2365 C2381 1.349 . S
C2366 C2364 1.327 . S
C2366 C2385 1.429 . S
C2366 H2390 0.950 . S
C2367 C2384 1.574 . S
C2367 C2386 1.368 . S
C2367 H2391 0.949 . S
H2368 C2372 0.949 . S
C2369 C2370 1.349 . S
C2369 C2371 1.327 . S
C2369 H2392 0.950 . S
C2370 C2369 1.349 . S
C2370 C2382 1.349 . S
C2371 C2369 1.327 . S
C2371 C2387 1.429 1_556 S
C2371 H2393 0.950 1_556 S
C2372 H2368 0.949 . S
C2372 C2380 1.574 . S
C2372 C2388 1.368 . S
H2373 C2381 0.950 . S
H2374 C2379 0.950 . S
H2375 C2380 0.949 . S
H2376 C2382 0.950 . S
H2377 C2383 0.950 1_554 S
H2378 C2384 0.949 . S
C2379 H2374 0.950 . S
C2379 C2381 1.327 . S
C2379 C2385 1.429 . S
C2380 C2372 1.574 . S
C2380 H2375 0.949 . S
C2380 C2386 1.368 . S
C2381 C2365 1.349 . S
C2381 H2373 0.950 . S
C2381 C2379 1.327 . S
C2382 C2370 1.349 . S
C2382 H2376 0.950 . S
C2382 C2383 1.327 . S
C2383 H2377 0.950 1_556 S
C2383 C2382 1.327 . S
C2383 C2387 1.429 1_556 S
C2384 C2367 1.574 . S
C2384 H2378 0.949 . S
C2384 C2388 1.368 . S
C2385 C2366 1.429 . S
C2385 C2379 1.429 . S
C2385 C2386 1.523 . S
C2386 C2367 1.368 . S
C2386 C2380 1.368 . S
C2386 C2385 1.523 . S
C2387 C2371 1.429 1_554 S
C2387 C2383 1.429 1_554 S
C2387 C2388 1.523 . S
C2388 C2372 1.368 . S
C2388 C2384 1.368 . S
C2388 C2387 1.523 . S
H2389 C2364 0.950 . S
H2390 C2366 0.950 . S
H2391 C2367 0.949 . S
H2392 C2369 0.950 . S
H2393 C2371 0.950 1_554 S
C2394 C2395 1.349 . S
C2394 C2396 1.327 . S
C2394 H2419 0.950 . S
C2395 C2394 1.349 . S
C2395 C2411 1.349 . S
C2396 C2394 1.327 . S
C2396 C2415 1.429 . S
C2396 H2420 0.950 . S
C2397 C2414 1.574 . S
C2397 C2416 1.368 . S
C2397 H2421 0.949 . S
H2398 C2402 0.949 . S
C2399 C2400 1.349 . S
C2399 C2401 1.327 . S
C2399 H2422 0.950 . S
C2400 C2399 1.349 . S
C2400 C2412 1.349 . S
C2401 C2399 1.327 . S
C2401 C2417 1.429 . S
C2401 H2423 0.950 . S
C2402 H2398 0.949 . S
C2402 C2410 1.574 . S
C2402 C2418 1.368 . S
H2403 C2411 0.950 . S
H2404 C2409 0.950 . S
H2405 C2410 0.949 . S
H2406 C2412 0.950 . S
H2407 C2413 0.950 . S
H2408 C2414 0.949 . S
C2409 H2404 0.950 . S
C2409 C2411 1.327 . S
C2409 C2415 1.429 . S
C2410 C2402 1.574 . S
C2410 H2405 0.949 . S
C2410 C2416 1.368 . S
C2411 C2395 1.349 . S
C2411 H2403 0.950 . S
C2411 C2409 1.327 . S
C2412 C2400 1.349 . S
C2412 H2406 0.950 . S
C2412 C2413 1.327 . S
C2413 H2407 0.950 . S
C2413 C2412 1.327 . S
C2413 C2417 1.429 . S
C2414 C2397 1.574 . S
C2414 H2408 0.949 . S
C2414 C2418 1.368 . S
C2415 C2396 1.429 . S
C2415 C2409 1.429 . S
C2415 C2416 1.523 . S
C2416 C2397 1.368 . S
C2416 C2410 1.368 . S
C2416 C2415 1.523 . S
C2417 C2401 1.429 . S
C2417 C2413 1.429 . S
C2417 C2418 1.523 . S
C2418 C2402 1.368 . S
C2418 C2414 1.368 . S
C2418 C2417 1.523 . S
H2419 C2394 0.950 . S
H2420 C2396 0.950 . S
H2421 C2397 0.949 . S
H2422 C2399 0.950 . S
H2423 C2401 0.950 . S
C2424 C2425 1.349 . S
C2424 C2426 1.327 . S
C2424 H2449 0.950 . S
C2425 C2424 1.349 . S
C2425 C2441 1.349 . S
C2426 C2424 1.327 . S
C2426 C2445 1.429 . S
C2426 H2450 0.950 . S
C2427 C2444 1.574 . S
C2427 C2446 1.368 . S
C2427 H2451 0.949 . S
H2428 C2432 0.949 . S
C2429 C2430 1.349 . S
C2429 C2431 1.327 . S
C2429 H2452 0.950 . S
C2430 C2429 1.349 . S
C2430 C2442 1.349 . S
C2431 C2429 1.327 . S
C2431 C2447 1.429 . S
C2431 H2453 0.950 . S
C2432 H2428 0.949 . S
C2432 C2440 1.574 . S
C2432 C2448 1.368 . S
H2433 C2441 0.950 . S
H2434 C2439 0.950 . S
H2435 C2440 0.949 . S
H2436 C2442 0.950 . S
H2437 C2443 0.950 . S
H2438 C2444 0.949 . S
C2439 H2434 0.950 . S
C2439 C2441 1.327 . S
C2439 C2445 1.429 . S
C2440 C2432 1.574 . S
C2440 H2435 0.949 . S
C2440 C2446 1.368 . S
C2441 C2425 1.349 . S
C2441 H2433 0.950 . S
C2441 C2439 1.327 . S
C2442 C2430 1.349 . S
C2442 H2436 0.950 . S
C2442 C2443 1.327 . S
C2443 H2437 0.950 . S
C2443 C2442 1.327 . S
C2443 C2447 1.429 . S
C2444 C2427 1.574 . S
C2444 H2438 0.949 . S
C2444 C2448 1.368 . S
C2445 C2426 1.429 . S
C2445 C2439 1.429 . S
C2445 C2446 1.523 . S
C2446 C2427 1.368 . S
C2446 C2440 1.368 . S
C2446 C2445 1.523 . S
C2447 C2431 1.429 . S
C2447 C2443 1.429 . S
C2447 C2448 1.523 . S
C2448 C2432 1.368 . S
C2448 C2444 1.368 . S
C2448 C2447 1.523 . S
H2449 C2424 0.950 . S
H2450 C2426 0.950 . S
H2451 C2427 0.949 . S
H2452 C2429 0.950 . S
H2453 C2431 0.950 . S
C2454 C2455 1.349 . S
C2454 C2456 1.327 . S
C2454 H2479 0.950 . S
C2455 C2454 1.349 . S
C2455 C2471 1.349 . S
C2456 C2454 1.327 . S
C2456 C2475 1.429 . S
C2456 H2480 0.950 . S
C2457 C2474 1.574 . S
C2457 C2476 1.368 . S
C2457 H2481 0.949 . S
H2458 C2462 0.949 . S
C2459 C2460 1.349 . S
C2459 C2461 1.327 . S
C2459 H2482 0.950 . S
C2460 C2459 1.349 . S
C2460 C2472 1.349 . S
C2461 C2459 1.327 . S
C2461 C2477 1.429 . S
C2461 H2483 0.950 . S
C2462 H2458 0.949 . S
C2462 C2470 1.574 . S
C2462 C2478 1.368 . S
H2463 C2471 0.950 . S
H2464 C2469 0.950 . S
H2465 C2470 0.949 . S
H2466 C2472 0.950 . S
H2467 C2473 0.950 . S
H2468 C2474 0.949 . S
C2469 H2464 0.950 . S
C2469 C2471 1.327 . S
C2469 C2475 1.429 . S
C2470 C2462 1.574 . S
C2470 H2465 0.949 . S
C2470 C2476 1.368 . S
C2471 C2455 1.349 . S
C2471 H2463 0.950 . S
C2471 C2469 1.327 . S
C2472 C2460 1.349 . S
C2472 H2466 0.950 . S
C2472 C2473 1.327 . S
C2473 H2467 0.950 . S
C2473 C2472 1.327 . S
C2473 C2477 1.429 . S
C2474 C2457 1.574 . S
C2474 H2468 0.949 . S
C2474 C2478 1.368 . S
C2475 C2456 1.429 . S
C2475 C2469 1.429 . S
C2475 C2476 1.523 . S
C2476 C2457 1.368 . S
C2476 C2470 1.368 . S
C2476 C2475 1.523 . S
C2477 C2461 1.429 . S
C2477 C2473 1.429 . S
C2477 C2478 1.523 . S
C2478 C2462 1.368 . S
C2478 C2474 1.368 . S
C2478 C2477 1.523 . S
H2479 C2454 0.950 . S
H2480 C2456 0.950 . S
H2481 C2457 0.949 . S
H2482 C2459 0.950 . S
H2483 C2461 0.950 . S
C2484 C2485 1.349 . S
C2484 C2486 1.327 . S
C2484 H2509 0.950 . S
C2485 C2484 1.349 . S
C2485 C2501 1.349 . S
C2486 C2484 1.327 . S
C2486 C2505 1.429 . S
C2486 H2510 0.950 . S
C2487 C2504 1.574 . S
C2487 C2506 1.368 . S
C2487 H2511 0.949 . S
H2488 C2492 0.949 . S
C2489 C2490 1.349 . S
C2489 C2491 1.327 . S
C2489 H2512 0.950 . S
C2490 C2489 1.349 . S
C2490 C2502 1.349 . S
C2491 C2489 1.327 . S
C2491 C2507 1.429 . S
C2491 H2513 0.950 . S
C2492 H2488 0.949 . S
C2492 C2500 1.574 . S
C2492 C2508 1.429 . S
H2493 C2501 0.950 . S
H2494 C2499 0.950 . S
H2495 C2500 0.949 . S
H2496 C2502 0.950 . S
H2497 C2503 0.950 . S
H2498 C2504 0.996 . S
C2499 H2494 0.950 . S
C2499 C2501 1.327 . S
C2499 C2505 1.429 . S
C2500 C2492 1.574 . S
C2500 H2495 0.949 . S
C2500 C2506 1.368 . S
C2501 C2485 1.349 . S
C2501 H2493 0.950 . S
C2501 C2499 1.327 . S
C2502 C2490 1.349 . S
C2502 H2496 0.950 . S
C2502 C2503 1.327 . S
C2503 H2497 0.950 . S
C2503 C2502 1.327 . S
C2503 C2507 1.429 . S
C2504 C2487 1.574 . S
C2504 H2498 0.996 . S
C2504 C2508 1.334 . S
C2505 C2486 1.429 . S
C2505 C2499 1.429 . S
C2505 C2506 1.523 . S
C2506 C2487 1.368 . S
C2506 C2500 1.368 . S
C2506 C2505 1.523 . S
C2507 C2491 1.429 . S
C2507 C2503 1.429 . S
C2507 C2508 1.500 1_455 S
C2508 C2492 1.429 . S
C2508 C2504 1.334 . S
C2508 C2507 1.500 1_655 S
H2509 C2484 0.950 . S
H2510 C2486 0.950 . S
H2511 C2487 0.949 . S
H2512 C2489 0.950 . S
H2513 C2491 0.950 . S
C2514 C2515 1.349 . S
C2514 C2516 1.327 . S
C2514 H2539 0.950 . S
C2515 C2514 1.349 . S
C2515 C2531 1.349 . S
C2516 C2514 1.327 . S
C2516 C2535 1.429 . S
C2516 H2540 0.950 . S
C2517 C2534 1.574 . S
C2517 C2536 1.368 . S
C2517 H2541 0.949 . S
H2518 C2522 0.949 . S
C2519 C2520 1.349 . S
C2519 C2521 1.327 . S
C2519 H2542 0.950 . S
C2520 C2519 1.349 . S
C2520 C2532 1.349 . S
C2521 C2519 1.327 . S
C2521 C2537 1.429 . S
C2521 H2543 0.950 . S
C2522 H2518 0.949 . S
C2522 C2530 1.574 . S
C2522 C2538 1.368 . S
H2523 C2531 0.950 . S
H2524 C2529 0.950 . S
H2525 C2530 0.949 . S
H2526 C2532 0.950 . S
H2527 C2533 0.950 . S
H2528 C2534 0.949 . S
C2529 H2524 0.950 . S
C2529 C2531 1.327 . S
C2529 C2535 1.429 . S
C2530 C2522 1.574 . S
C2530 H2525 0.949 . S
C2530 C2536 1.368 . S
C2531 C2515 1.349 . S
C2531 H2523 0.950 . S
C2531 C2529 1.327 . S
C2532 C2520 1.349 . S
C2532 H2526 0.950 . S
C2532 C2533 1.327 . S
C2533 H2527 0.950 . S
C2533 C2532 1.327 . S
C2533 C2537 1.429 . S
C2534 C2517 1.574 . S
C2534 H2528 0.949 . S
C2534 C2538 1.368 . S
C2535 C2516 1.429 . S
C2535 C2529 1.429 . S
C2535 C2536 1.523 . S
C2536 C2517 1.368 . S
C2536 C2530 1.368 . S
C2536 C2535 1.523 . S
C2537 C2521 1.429 . S
C2537 C2533 1.429 . S
C2537 C2538 1.523 . S
C2538 C2522 1.368 . S
C2538 C2534 1.368 . S
C2538 C2537 1.523 . S
H2539 C2514 0.950 . S
H2540 C2516 0.950 . S
H2541 C2517 0.949 . S
H2542 C2519 0.950 . S
H2543 C2521 0.950 . S
C2544 C2545 1.349 . S
C2544 C2546 1.327 . S
C2544 H2569 0.950 . S
C2545 C2544 1.349 . S
C2545 C2561 1.349 . S
C2546 C2544 1.327 . S
C2546 C2565 1.429 . S
C2546 H2570 0.950 . S
C2547 C2564 1.574 . S
C2547 C2566 1.421 . S
C2547 H2571 0.939 . S
H2548 C2552 0.949 . S
C2549 C2550 1.349 . S
C2549 C2551 1.327 . S
C2549 H2572 0.950 . S
C2550 C2549 1.349 . S
C2550 C2562 1.349 . S
C2551 C2549 1.327 . S
C2551 C2567 1.429 . S
C2551 H2573 0.950 . S
C2552 H2548 0.949 . S
C2552 C2560 1.574 . S
C2552 C2568 1.368 . S
H2553 C2561 0.950 . S
H2554 C2559 0.950 . S
H2555 C2560 0.949 . S
H2556 C2562 0.950 . S
H2557 C2563 0.950 . S
H2558 C2564 0.949 . S
C2559 H2554 0.950 . S
C2559 C2561 1.327 . S
C2559 C2565 1.429 . S
C2560 C2552 1.574 . S
C2560 H2555 0.949 . S
C2560 C2566 1.338 . S
C2561 C2545 1.349 . S
C2561 H2553 0.950 . S
C2561 C2559 1.327 . S
C2562 C2550 1.349 . S
C2562 H2556 0.950 . S
C2562 C2563 1.327 . S
C2563 H2557 0.950 . S
C2563 C2562 1.327 . S
C2563 C2567 1.429 . S
C2564 C2547 1.574 . S
C2564 H2558 0.949 . S
C2564 C2568 1.368 . S
C2565 C2546 1.429 . S
C2565 C2559 1.429 . S
C2565 C2566 1.503 1_565 S
C2566 C2547 1.421 . S
C2566 C2560 1.338 . S
C2566 C2565 1.503 1_545 S
C2567 C2551 1.429 . S
C2567 C2563 1.429 . S
C2567 C2568 1.523 . S
C2568 C2552 1.368 . S
C2568 C2564 1.368 . S
C2568 C2567 1.523 . S
H2569 C2544 0.950 . S
H2570 C2546 0.950 . S
H2571 C2547 0.939 . S
H2572 C2549 0.950 . S
H2573 C2551 0.950 . S
C2574 C2575 1.349 . S
C2574 C2576 1.327 . S
C2574 H2599 0.950 . S
C2575 C2574 1.349 . S
C2575 C2591 1.349 . S
C2576 C2574 1.327 . S
C2576 C2595 1.429 . S
C2576 H2600 0.950 . S
C2577 C2594 1.574 . S
C2577 C2596 1.368 1_545 S
C2577 H2601 0.949 . S
H2578 C2582 0.949 . S
C2579 C2580 1.349 . S
C2579 C2581 1.327 . S
C2579 H2602 0.950 . S
C2580 C2579 1.349 . S
C2580 C2592 1.358 . S
C2581 C2579 1.327 . S
C2581 C2597 1.429 . S
C2581 H2603 0.950 . S
C2582 H2578 0.949 . S
C2582 C2590 1.574 . S
C2582 C2598 1.414 . S
H2583 C2591 0.950 . S
H2584 C2589 0.950 1_545 S
H2585 C2590 0.949 . S
H2586 C2592 0.946 1_565 S
H2587 C2593 0.950 . S
H2588 C2594 0.949 . S
C2589 H2584 0.950 1_565 S
C2589 C2591 1.327 . S
C2589 C2595 1.429 . S
C2590 C2582 1.574 . S
C2590 H2585 0.949 . S
C2590 C2596 1.368 . S
C2591 C2575 1.349 . S
C2591 H2583 0.950 . S
C2591 C2589 1.327 . S
C2592 C2580 1.358 . S
C2592 H2586 0.946 1_545 S
C2592 C2593 1.322 1_545 S
C2593 H2587 0.950 . S
C2593 C2592 1.322 1_565 S
C2593 C2597 1.429 1_565 S
C2594 C2577 1.574 . S
C2594 H2588 0.949 . S
C2594 C2598 1.345 1_545 S
C2595 C2576 1.429 . S
C2595 C2589 1.429 . S
C2595 C2596 1.523 . S
C2596 C2577 1.368 1_565 S
C2596 C2590 1.368 . S
C2596 C2595 1.523 . S
C2597 C2581 1.429 . S
C2597 C2593 1.429 1_545 S
C2597 C2598 1.503 1_545 S
C2598 C2582 1.414 . S
C2598 C2594 1.345 1_565 S
C2598 C2597 1.503 1_565 S
H2599 C2574 0.950 . S
H2600 C2576 0.950 . S
H2601 C2577 0.949 . S
H2602 C2579 0.950 . S
H2603 C2581 0.950 . S
C2604 C2605 1.349 . S
C2604 C2606 1.327 . S
C2604 H2629 0.950 . S
C2605 C2604 1.349 . S
C2605 C2621 1.349 . S
C2606 C2604 1.327 . S
C2606 C2625 1.429 . S
C2606 H2630 0.950 . S
C2607 C2624 1.574 . S
C2607 C2626 1.438 . S
C2607 H2631 0.949 . S
H2608 C2612 0.949 . S
C2609 C2610 1.349 . S
C2609 C2611 1.327 . S
C2609 H2632 0.950 . S
C2610 C2609 1.349 . S
C2610 C2622 1.349 . S
C2611 C2609 1.327 . S
C2611 C2627 1.429 . S
C2611 H2633 0.950 . S
C2612 H2608 0.949 . S
C2612 C2620 1.597 . S
C2612 C2628 1.368 . S
H2613 C2621 0.950 . S
H2614 C2619 0.950 . S
H2615 C2620 0.897 1_655 S
H2616 C2622 0.950 . S
H2617 C2623 0.950 . S
H2618 C2624 0.949 . S
C2619 H2614 0.950 . S
C2619 C2621 1.327 . S
C2619 C2625 1.429 . S
C2620 C2612 1.597 . S
C2620 H2615 0.897 1_455 S
C2620 C2626 1.360 . S
C2621 C2605 1.349 . S
C2621 H2613 0.950 . S
C2621 C2619 1.327 . S
C2622 C2610 1.349 . S
C2622 H2616 0.950 . S
C2622 C2623 1.327 . S
C2623 H2617 0.950 . S
C2623 C2622 1.327 . S
C2623 C2627 1.429 . S
C2624 C2607 1.574 . S
C2624 H2618 0.949 . S
C2624 C2628 1.368 . S
C2625 C2606 1.429 . S
C2625 C2619 1.429 . S
C2625 C2626 1.500 1_655 S
C2626 C2607 1.438 . S
C2626 C2620 1.360 . S
C2626 C2625 1.500 1_455 S
C2627 C2611 1.429 . S
C2627 C2623 1.429 . S
C2627 C2628 1.523 . S
C2628 C2612 1.368 . S
C2628 C2624 1.368 . S
C2628 C2627 1.523 . S
H2629 C2604 0.950 . S
H2630 C2606 0.950 . S
H2631 C2607 0.949 . S
H2632 C2609 0.950 . S
H2633 C2611 0.950 . S
C2634 C2635 1.349 . S
C2634 C2636 1.327 . S
C2634 H2659 0.950 . S
C2635 C2634 1.349 . S
C2635 C2651 1.349 . S
C2636 C2634 1.327 . S
C2636 C2655 1.429 . S
C2636 H2660 0.950 . S
C2637 C2654 1.574 . S
C2637 C2656 1.368 . S
C2637 H2661 0.949 . S
H2638 C2642 0.949 . S
C2639 C2640 1.349 . S
C2639 C2641 1.327 . S
C2639 H2662 0.950 . S
C2640 C2639 1.349 . S
C2640 C2652 1.349 . S
C2641 C2639 1.327 . S
C2641 C2657 1.429 . S
C2641 H2663 0.950 . S
C2642 H2638 0.949 . S
C2642 C2650 1.574 . S
C2642 C2658 1.368 . S
H2643 C2651 0.950 . S
H2644 C2649 0.950 . S
H2645 C2650 0.949 . S
H2646 C2652 0.950 . S
H2647 C2653 0.950 . S
H2648 C2654 0.949 . S
C2649 H2644 0.950 . S
C2649 C2651 1.327 . S
C2649 C2655 1.429 . S
C2650 C2642 1.574 . S
C2650 H2645 0.949 . S
C2650 C2656 1.368 . S
C2651 C2635 1.349 . S
C2651 H2643 0.950 . S
C2651 C2649 1.327 . S
C2652 C2640 1.349 . S
C2652 H2646 0.950 . S
C2652 C2653 1.327 . S
C2653 H2647 0.950 . S
C2653 C2652 1.327 . S
C2653 C2657 1.429 . S
C2654 C2637 1.574 . S
C2654 H2648 0.949 . S
C2654 C2658 1.368 . S
C2655 C2636 1.429 . S
C2655 C2649 1.429 . S
C2655 C2656 1.523 . S
C2656 C2637 1.368 . S
C2656 C2650 1.368 . S
C2656 C2655 1.523 . S
C2657 C2641 1.429 . S
C2657 C2653 1.429 . S
C2657 C2658 1.523 . S
C2658 C2642 1.368 . S
C2658 C2654 1.368 . S
C2658 C2657 1.523 . S
H2659 C2634 0.950 . S
H2660 C2636 0.950 . S
H2661 C2637 0.949 . S
H2662 C2639 0.950 . S
H2663 C2641 0.950 . S
C505 C230 1.200 . S
C510 C6 1.200 . S
C535 C244 1.200 . S
C540 C20 1.200 . S
C565 C216 1.200 . S
C570 C34 1.200 . S
C595 C370 1.177 . S
C600 C48 1.177 . S
C625 C62 1.178 . S
C630 C342 1.177 . S
C655 C76 1.178 . S
C660 C356 1.177 . S
C685 C90 1.200 . S
C690 C482 1.200 . S
C715 C496 1.200 . S
C720 C104 1.200 . S
C745 C468 1.200 . S
C750 C118 1.200 . S
C775 C132 1.177 . S
C780 C286 1.177 . S
C805 C258 1.177 . S
C810 C146 1.178 . S
C835 C160 1.178 . S
C840 C272 1.177 . S
C865 C398 1.122 . S
C870 C174 1.118 . S
C895 C188 1.121 . S
C900 C412 1.119 . S
C925 C384 1.122 . S
C930 C202 1.117 . S
C955 C454 1.121 . S
C960 C300 1.118 . S
C985 C426 1.121 . S
C990 C314 1.119 . S
C1015 C328 1.122 . S
C1020 C440 1.117 . S
C1045 C260 1.173 . S
C1050 C8 1.176 . S
C1075 C274 1.170 . S
C1080 C22 1.173 . S
C1105 C288 1.175 . S
C1110 C36 1.178 . S
C1135 C50 1.169 . S
C1140 C470 1.172 . S
C1165 C64 1.169 . S
C1170 C484 1.172 . S
C1195 C78 1.173 . S
C1200 C498 1.176 . S
C1225 C92 1.176 . S
C1230 C344 1.173 . S
C1255 C358 1.170 . S
C1260 C106 1.173 . S
C1285 C372 1.175 . S
C1290 C120 1.178 . S
C1315 C218 1.172 . S
C1320 C134 1.169 . S
C1345 C148 1.169 . S
C1350 C232 1.172 . S
C1375 C162 1.173 . S
C1380 C246 1.176 . S
C1405 C176 1.117 . S
C1410 C428 1.117 . S
C1435 C442 1.115 . S
C1440 C190 1.115 . S
C1465 C456 1.118 . S
C1470 C204 1.118 . S
C1495 C386 1.250 1_554 S
C1500 C302 1.251 1_556 S
C1525 C316 1.250 1_556 S
C1530 C400 1.251 1_554 S
C1555 C330 1.255 1_556 S
C1560 C414 1.255 1_554 S
C1585 C385 1.350 . S
C1590 C7 1.351 . S
C1615 C21 1.349 . S
C1620 C399 1.349 . S
C1645 C35 1.352 . S
C1650 C413 1.352 . S
C1675 C175 1.321 . S
C1680 C49 1.322 . S
C1705 C63 1.321 . S
C1710 C189 1.320 . S
C1735 C77 1.322 . S
C1740 C203 1.321 . S
C1765 C301 1.350 . S
C1770 C91 1.351 . S
C1795 C105 1.349 . S
C1800 C315 1.349 . S
C1825 C329 1.352 . S
C1830 C119 1.352 . S
C1855 C133 1.322 . S
C1860 C427 1.321 . S
C1885 C441 1.320 . S
C1890 C147 1.321 . S
C1915 C455 1.321 . S
C1920 C161 1.322 . S
C1945 C343 1.330 . S
C1950 C217 1.329 . S
C1975 C357 1.328 . S
C1980 C231 1.328 . S
C2005 C371 1.330 . S
C2010 C245 1.330 . S
C2035 C259 1.329 . S
C2040 C469 1.329 . S
C2065 C483 1.328 . S
C2070 C273 1.328 . S
C2095 C497 1.330 . S
C2100 C287 1.330 . S
C2125 C9 1.340 . S
C2130 C233 1.340 . S
C2155 C23 1.340 . S
C2160 C247 1.340 . S
C2185 C37 1.340 . S
C2190 C219 1.340 . S
C2215 C373 1.370 . S
C2220 C51 1.371 . S
C2245 C345 1.370 . S
C2250 C65 1.371 . S
C2275 C359 1.370 . S
C2280 C79 1.371 . S
C2305 C485 1.340 . S
C2310 C93 1.340 . S
C2335 C499 1.340 . S
C2340 C107 1.340 . S
C2365 C471 1.340 . S
C2370 C121 1.340 . S
C2395 C135 1.371 . S
C2400 C289 1.370 . S
C2425 C149 1.371 . S
C2430 C261 1.370 . S
C2455 C163 1.371 . S
C2460 C275 1.370 . S
C2485 C401 1.428 . S
C2490 C177 1.433 . S
C2515 C415 1.428 . S
C2520 C191 1.433 . S
C2545 C205 1.430 . S
C2550 C387 1.432 . S
C2575 C303 1.429 . S
C2580 C457 1.434 . S
C2605 C429 1.430 . S
C2610 C317 1.431 . S
C2635 C443 1.430 . S
C2640 C331 1.431 . S
