# Generated by pormake.
# Topology vcc, (6)-cn, num edge types: 1
# Building blocks:
#     Node 0, Type 0, BuildingBlock: BETGAK_clean_sbu_0, # of connection points: 6
#     Node 1, Type 0, BuildingBlock: BETGAK_clean_sbu_0, # of connection points: 6
#     Node 2, Type 0, BuildingBlock: BETGAK_clean_sbu_0, # of connection points: 6
#     Node 3, Type 0, BuildingBlock: BETGAK_clean_sbu_0, # of connection points: 6
#     Node 4, Type 0, BuildingBlock: BETGAK_clean_sbu_0, # of connection points: 6
#     Node 5, Type 0, BuildingBlock: BETGAK_clean_sbu_0, # of connection points: 6
#     Node 6, Type 0, BuildingBlock: BETGAK_clean_sbu_0, # of connection points: 6
#     Node 7, Type 0, BuildingBlock: BETGAK_clean_sbu_0, # of connection points: 6
#     Node 8, Type 0, BuildingBlock: BETGAK_clean_sbu_0, # of connection points: 6
#     Node 9, Type 0, BuildingBlock: BETGAK_clean_sbu_0, # of connection points: 6
#     Node 10, Type 0, BuildingBlock: BETGAK_clean_sbu_0, # of connection points: 6
#     Node 11, Type 0, BuildingBlock: BETGAK_clean_sbu_0, # of connection points: 6
#     Node 12, Type 0, BuildingBlock: BETGAK_clean_sbu_0, # of connection points: 6
#     Node 13, Type 0, BuildingBlock: BETGAK_clean_sbu_0, # of connection points: 6
#     Node 14, Type 0, BuildingBlock: BETGAK_clean_sbu_0, # of connection points: 6
#     Node 15, Type 0, BuildingBlock: BETGAK_clean_sbu_0, # of connection points: 6
#     Node 16, Type 0, BuildingBlock: BETGAK_clean_sbu_0, # of connection points: 6
#     Node 17, Type 0, BuildingBlock: BETGAK_clean_sbu_0, # of connection points: 6
#     Node 18, Type 0, BuildingBlock: BETGAK_clean_sbu_0, # of connection points: 6
#     Node 19, Type 0, BuildingBlock: BETGAK_clean_sbu_0, # of connection points: 6
#     Node 20, Type 0, BuildingBlock: BETGAK_clean_sbu_0, # of connection points: 6
#     Node 21, Type 0, BuildingBlock: BETGAK_clean_sbu_0, # of connection points: 6
#     Node 22, Type 0, BuildingBlock: BETGAK_clean_sbu_0, # of connection points: 6
#     Node 23, Type 0, BuildingBlock: BETGAK_clean_sbu_0, # of connection points: 6
#     Node 24, Type 0, BuildingBlock: BETGAK_clean_sbu_0, # of connection points: 6
#     Node 25, Type 0, BuildingBlock: BETGAK_clean_sbu_0, # of connection points: 6
#     Node 26, Type 0, BuildingBlock: BETGAK_clean_sbu_0, # of connection points: 6
#     Node 27, Type 0, BuildingBlock: BETGAK_clean_sbu_0, # of connection points: 6
#     Node 28, Type 0, BuildingBlock: BETGAK_clean_sbu_0, # of connection points: 6
#     Node 29, Type 0, BuildingBlock: BETGAK_clean_sbu_0, # of connection points: 6
#     Node 30, Type 0, BuildingBlock: BETGAK_clean_sbu_0, # of connection points: 6
#     Node 31, Type 0, BuildingBlock: BETGAK_clean_sbu_0, # of connection points: 6
#     Edge 32, Type (0, 0), BuildingBlock: AJUNOK_clean_linker_0, # of connection points: 2
#     Edge 33, Type (0, 0), BuildingBlock: AJUNOK_clean_linker_0, # of connection points: 2
#     Edge 34, Type (0, 0), BuildingBlock: AJUNOK_clean_linker_0, # of connection points: 2
#     Edge 35, Type (0, 0), BuildingBlock: AJUNOK_clean_linker_0, # of connection points: 2
#     Edge 36, Type (0, 0), BuildingBlock: AJUNOK_clean_linker_0, # of connection points: 2
#     Edge 37, Type (0, 0), BuildingBlock: AJUNOK_clean_linker_0, # of connection points: 2
#     Edge 38, Type (0, 0), BuildingBlock: AJUNOK_clean_linker_0, # of connection points: 2
#     Edge 39, Type (0, 0), BuildingBlock: AJUNOK_clean_linker_0, # of connection points: 2
#     Edge 40, Type (0, 0), BuildingBlock: AJUNOK_clean_linker_0, # of connection points: 2
#     Edge 41, Type (0, 0), BuildingBlock: AJUNOK_clean_linker_0, # of connection points: 2
#     Edge 42, Type (0, 0), BuildingBlock: AJUNOK_clean_linker_0, # of connection points: 2
#     Edge 43, Type (0, 0), BuildingBlock: AJUNOK_clean_linker_0, # of connection points: 2
#     Edge 44, Type (0, 0), BuildingBlock: AJUNOK_clean_linker_0, # of connection points: 2
#     Edge 45, Type (0, 0), BuildingBlock: AJUNOK_clean_linker_0, # of connection points: 2
#     Edge 46, Type (0, 0), BuildingBlock: AJUNOK_clean_linker_0, # of connection points: 2
#     Edge 47, Type (0, 0), BuildingBlock: AJUNOK_clean_linker_0, # of connection points: 2
#     Edge 48, Type (0, 0), BuildingBlock: AJUNOK_clean_linker_0, # of connection points: 2
#     Edge 49, Type (0, 0), BuildingBlock: AJUNOK_clean_linker_0, # of connection points: 2
#     Edge 50, Type (0, 0), BuildingBlock: AJUNOK_clean_linker_0, # of connection points: 2
#     Edge 51, Type (0, 0), BuildingBlock: AJUNOK_clean_linker_0, # of connection points: 2
#     Edge 52, Type (0, 0), BuildingBlock: AJUNOK_clean_linker_0, # of connection points: 2
#     Edge 53, Type (0, 0), BuildingBlock: AJUNOK_clean_linker_0, # of connection points: 2
#     Edge 54, Type (0, 0), BuildingBlock: AJUNOK_clean_linker_0, # of connection points: 2
#     Edge 55, Type (0, 0), BuildingBlock: AJUNOK_clean_linker_0, # of connection points: 2
#     Edge 56, Type (0, 0), BuildingBlock: AJUNOK_clean_linker_0, # of connection points: 2
#     Edge 57, Type (0, 0), BuildingBlock: AJUNOK_clean_linker_0, # of connection points: 2
#     Edge 58, Type (0, 0), BuildingBlock: AJUNOK_clean_linker_0, # of connection points: 2
#     Edge 59, Type (0, 0), BuildingBlock: AJUNOK_clean_linker_0, # of connection points: 2
#     Edge 60, Type (0, 0), BuildingBlock: AJUNOK_clean_linker_0, # of connection points: 2
#     Edge 61, Type (0, 0), BuildingBlock: AJUNOK_clean_linker_0, # of connection points: 2
#     Edge 62, Type (0, 0), BuildingBlock: AJUNOK_clean_linker_0, # of connection points: 2
#     Edge 63, Type (0, 0), BuildingBlock: AJUNOK_clean_linker_0, # of connection points: 2
#     Edge 64, Type (0, 0), BuildingBlock: AJUNOK_clean_linker_0, # of connection points: 2
#     Edge 65, Type (0, 0), BuildingBlock: AJUNOK_clean_linker_0, # of connection points: 2
#     Edge 66, Type (0, 0), BuildingBlock: AJUNOK_clean_linker_0, # of connection points: 2
#     Edge 67, Type (0, 0), BuildingBlock: AJUNOK_clean_linker_0, # of connection points: 2
#     Edge 68, Type (0, 0), BuildingBlock: AJUNOK_clean_linker_0, # of connection points: 2
#     Edge 69, Type (0, 0), BuildingBlock: AJUNOK_clean_linker_0, # of connection points: 2
#     Edge 70, Type (0, 0), BuildingBlock: AJUNOK_clean_linker_0, # of connection points: 2
#     Edge 71, Type (0, 0), BuildingBlock: AJUNOK_clean_linker_0, # of connection points: 2
#     Edge 72, Type (0, 0), BuildingBlock: AJUNOK_clean_linker_0, # of connection points: 2
#     Edge 73, Type (0, 0), BuildingBlock: AJUNOK_clean_linker_0, # of connection points: 2
#     Edge 74, Type (0, 0), BuildingBlock: AJUNOK_clean_linker_0, # of connection points: 2
#     Edge 75, Type (0, 0), BuildingBlock: AJUNOK_clean_linker_0, # of connection points: 2
#     Edge 76, Type (0, 0), BuildingBlock: AJUNOK_clean_linker_0, # of connection points: 2
#     Edge 77, Type (0, 0), BuildingBlock: AJUNOK_clean_linker_0, # of connection points: 2
#     Edge 78, Type (0, 0), BuildingBlock: AJUNOK_clean_linker_0, # of connection points: 2
#     Edge 79, Type (0, 0), BuildingBlock: AJUNOK_clean_linker_0, # of connection points: 2
#     Edge 80, Type (0, 0), BuildingBlock: AJUNOK_clean_linker_0, # of connection points: 2
#     Edge 81, Type (0, 0), BuildingBlock: AJUNOK_clean_linker_0, # of connection points: 2
#     Edge 82, Type (0, 0), BuildingBlock: AJUNOK_clean_linker_0, # of connection points: 2
#     Edge 83, Type (0, 0), BuildingBlock: AJUNOK_clean_linker_0, # of connection points: 2
#     Edge 84, Type (0, 0), BuildingBlock: AJUNOK_clean_linker_0, # of connection points: 2
#     Edge 85, Type (0, 0), BuildingBlock: AJUNOK_clean_linker_0, # of connection points: 2
#     Edge 86, Type (0, 0), BuildingBlock: AJUNOK_clean_linker_0, # of connection points: 2
#     Edge 87, Type (0, 0), BuildingBlock: AJUNOK_clean_linker_0, # of connection points: 2
#     Edge 88, Type (0, 0), BuildingBlock: AJUNOK_clean_linker_0, # of connection points: 2
#     Edge 89, Type (0, 0), BuildingBlock: AJUNOK_clean_linker_0, # of connection points: 2
#     Edge 90, Type (0, 0), BuildingBlock: AJUNOK_clean_linker_0, # of connection points: 2
#     Edge 91, Type (0, 0), BuildingBlock: AJUNOK_clean_linker_0, # of connection points: 2
#     Edge 92, Type (0, 0), BuildingBlock: AJUNOK_clean_linker_0, # of connection points: 2
#     Edge 93, Type (0, 0), BuildingBlock: AJUNOK_clean_linker_0, # of connection points: 2
#     Edge 94, Type (0, 0), BuildingBlock: AJUNOK_clean_linker_0, # of connection points: 2
#     Edge 95, Type (0, 0), BuildingBlock: AJUNOK_clean_linker_0, # of connection points: 2
#     Edge 96, Type (0, 0), BuildingBlock: AJUNOK_clean_linker_0, # of connection points: 2
#     Edge 97, Type (0, 0), BuildingBlock: AJUNOK_clean_linker_0, # of connection points: 2
#     Edge 98, Type (0, 0), BuildingBlock: AJUNOK_clean_linker_0, # of connection points: 2
#     Edge 99, Type (0, 0), BuildingBlock: AJUNOK_clean_linker_0, # of connection points: 2
#     Edge 100, Type (0, 0), BuildingBlock: AJUNOK_clean_linker_0, # of connection points: 2
#     Edge 101, Type (0, 0), BuildingBlock: AJUNOK_clean_linker_0, # of connection points: 2
#     Edge 102, Type (0, 0), BuildingBlock: AJUNOK_clean_linker_0, # of connection points: 2
#     Edge 103, Type (0, 0), BuildingBlock: AJUNOK_clean_linker_0, # of connection points: 2
#     Edge 104, Type (0, 0), BuildingBlock: AJUNOK_clean_linker_0, # of connection points: 2
#     Edge 105, Type (0, 0), BuildingBlock: AJUNOK_clean_linker_0, # of connection points: 2
#     Edge 106, Type (0, 0), BuildingBlock: AJUNOK_clean_linker_0, # of connection points: 2
#     Edge 107, Type (0, 0), BuildingBlock: AJUNOK_clean_linker_0, # of connection points: 2
#     Edge 108, Type (0, 0), BuildingBlock: AJUNOK_clean_linker_0, # of connection points: 2
#     Edge 109, Type (0, 0), BuildingBlock: AJUNOK_clean_linker_0, # of connection points: 2
#     Edge 110, Type (0, 0), BuildingBlock: AJUNOK_clean_linker_0, # of connection points: 2
#     Edge 111, Type (0, 0), BuildingBlock: AJUNOK_clean_linker_0, # of connection points: 2
#     Edge 112, Type (0, 0), BuildingBlock: AJUNOK_clean_linker_0, # of connection points: 2
#     Edge 113, Type (0, 0), BuildingBlock: AJUNOK_clean_linker_0, # of connection points: 2
#     Edge 114, Type (0, 0), BuildingBlock: AJUNOK_clean_linker_0, # of connection points: 2
#     Edge 115, Type (0, 0), BuildingBlock: AJUNOK_clean_linker_0, # of connection points: 2
#     Edge 116, Type (0, 0), BuildingBlock: AJUNOK_clean_linker_0, # of connection points: 2
#     Edge 117, Type (0, 0), BuildingBlock: AJUNOK_clean_linker_0, # of connection points: 2
#     Edge 118, Type (0, 0), BuildingBlock: AJUNOK_clean_linker_0, # of connection points: 2
#     Edge 119, Type (0, 0), BuildingBlock: AJUNOK_clean_linker_0, # of connection points: 2
#     Edge 120, Type (0, 0), BuildingBlock: AJUNOK_clean_linker_0, # of connection points: 2
#     Edge 121, Type (0, 0), BuildingBlock: AJUNOK_clean_linker_0, # of connection points: 2
#     Edge 122, Type (0, 0), BuildingBlock: AJUNOK_clean_linker_0, # of connection points: 2
#     Edge 123, Type (0, 0), BuildingBlock: AJUNOK_clean_linker_0, # of connection points: 2
#     Edge 124, Type (0, 0), BuildingBlock: AJUNOK_clean_linker_0, # of connection points: 2
#     Edge 125, Type (0, 0), BuildingBlock: AJUNOK_clean_linker_0, # of connection points: 2
#     Edge 126, Type (0, 0), BuildingBlock: AJUNOK_clean_linker_0, # of connection points: 2
#     Edge 127, Type (0, 0), BuildingBlock: AJUNOK_clean_linker_0, # of connection points: 2
# Relax obj value: 0.464
# Max RMSD: 0.211
# Mean RMSD: 0.211
data_MOF--net-vcc--node1-BETGAK_clean_sbu_0--edge1-AJUNOK_clean_linker_0
_symmetry_space_group_name_H-M    P1
_symmetry_Int_Tables_number       1
_symmetry_cell_setting            triclinic
loop_
_symmetry_equiv_pos_as_xyz
'x, y, z'
_cell_length_a     24.927423
_cell_length_b     41.766736
_cell_length_c     41.925715
_cell_angle_alpha  89.969964
_cell_angle_beta   89.902737
_cell_angle_gamma 89.967823
loop_
_atom_site_label
_atom_site_type_symbol
_atom_site_fract_x
_atom_site_fract_y
_atom_site_fract_z
_atom_type_partial_charge
La0 La 0.39255 0.00963 0.21297 0.0
La1 La 0.30142 0.99195 0.24232 0.0
C2 C 0.467 0.01674 0.17329 0.0
C3 C 0.46456 0.01605 0.13816 0.0
C4 C 0.46853 0.04475 1.12078 0.0
C5 C 0.45827 0.04508 1.08805 0.0
C6 C 0.44542 0.01658 1.07217 0.0
C7 C 0.44523 0.98762 1.08904 0.0
C8 C 0.45337 0.9874 1.12189 0.0
C9 C 0.35084 0.05917 0.24376 0.0
C10 C 0.28414 1.00385 0.16762 0.0
C11 C 0.2188 0.98951 0.277 0.0
C12 C 0.19251 0.01625 0.29317 0.0
C13 C 0.17711 0.01226 0.32484 0.0
C14 C 0.17386 0.03874 0.34483 0.0
C15 C 0.18544 0.06975 0.33318 0.0
C16 C 0.19082 0.07396 0.30008 0.0
C17 C 0.19641 0.04727 0.28037 0.0
C18 C 0.35408 0.94009 0.22009 0.0
C19 C 0.40982 1.0003 0.28798 0.0
O20 O 0.44159 0.0406 0.18651 0.0
O21 O 0.45784 0.98972 0.18818 0.0
O22 O 0.40093 0.05154 0.24273 0.0
O23 O 0.32422 0.0393 0.22699 0.0
O24 O 0.3378 1.00292 0.16914 0.0
O25 O 0.25967 1.00363 0.19577 0.0
O26 O 0.267 0.98358 0.28731 0.0
O27 O 0.21726 0.98993 0.24604 0.0
O28 O 0.30287 0.94431 0.21929 0.0
O29 O 0.37338 0.96433 0.23361 0.0
O30 O 0.35576 0.99907 0.28655 0.0
O31 O 0.43509 1.00189 0.25987 0.0
H32 H 0.47728 0.06712 1.13275 0.0
H33 H 0.45901 0.06764 1.07528 0.0
H34 H 0.43648 0.96528 1.07704 0.0
H35 H 0.45036 0.96482 0.13448 0.0
H36 H 0.17512 0.9885 0.33513 0.0
H37 H 0.17051 0.03387 0.37006 0.0
H38 H 0.19858 0.09747 0.29015 0.0
H39 H 0.20906 0.05089 0.2559 0.0
La40 La 0.89158 0.25217 0.21523 0.0
La41 La 0.98397 0.26585 0.244 0.0
C42 C 0.81783 0.24733 0.17492 0.0
C43 C 0.82382 0.24502 0.13993 0.0
C44 C 0.83363 0.21526 1.12529 0.0
C45 C 0.84702 0.21368 1.09301 0.0
C46 C 0.85029 0.24175 1.07474 0.0
C47 C 0.83685 0.2712 1.08876 0.0
C48 C 0.82442 0.2729 1.12114 0.0
C49 C 0.9293 0.19945 0.24207 0.0
C50 C 0.99939 0.2576 0.16918 0.0
C51 C 0.06892 0.26752 0.27701 0.0
C52 C 0.09608 0.24364 0.29715 0.0
C53 C 0.08947 0.24558 0.33015 0.0
C54 C 0.10445 0.22024 0.34953 0.0
C55 C 0.12452 0.19185 0.33609 0.0
C56 C 0.13678 0.191 0.30349 0.0
C57 C 0.12289 0.21695 0.28402 0.0
C58 C 0.93466 0.31937 0.22319 0.0
C59 C 0.87749 0.25909 0.29073 0.0
O60 O 0.83607 0.22309 0.19122 0.0
O61 O 0.83207 0.27451 0.18769 0.0
O62 O 0.88097 0.2103 0.24385 0.0
O63 O 0.9577 0.21951 0.2264 0.0
O64 O 0.94588 0.25855 0.17118 0.0
O65 O 0.02465 0.25692 0.19689 0.0
O66 O 0.02231 0.27749 0.28708 0.0
O67 O 0.06776 0.26148 0.24667 0.0
O68 O 0.98544 0.31389 0.22187 0.0
O69 O 0.91383 0.2958 0.23687 0.0
O70 O 0.93133 0.25689 0.28839 0.0
O71 O 0.85118 0.26087 0.26294 0.0
H72 H 0.83272 0.19327 0.13898 0.0
H73 H 0.85588 0.19059 1.08246 0.0
H74 H 0.83835 0.29315 1.07501 0.0
H75 H 0.81639 0.29613 1.13159 0.0
H76 H 0.06812 0.2655 0.34067 0.0
H77 H 0.0939 0.22143 0.37461 0.0
H78 H 0.15304 0.16947 0.29286 0.0
H79 H 0.12944 0.215 0.25854 0.0
La80 La 0.38443 0.24375 0.30462 0.0
La81 La 0.29391 0.26141 0.27735 0.0
C82 C 0.45829 0.23645 0.34444 0.0
C83 C 0.45378 0.23885 0.37944 0.0
C84 C 0.45178 0.2109 0.39807 0.0
C85 C 0.43932 0.21269 0.43048 0.0
C86 C 0.42926 0.24246 0.44479 0.0
C87 C 0.43368 0.2705 0.4266 0.0
C88 C 0.44577 0.26874 0.3942 0.0
C89 C 0.34022 0.19331 0.27597 0.0
C90 C 0.2778 0.25042 0.35116 0.0
C91 C 0.21373 0.27764 0.24436 0.0
C92 C 0.2058 0.30944 0.22995 0.0
C93 C 0.22369 0.33693 0.24632 0.0
C94 C 0.2414 0.36367 0.22937 0.0
C95 C 0.23897 0.3636 0.19607 0.0
C96 C 0.21081 0.33882 0.18049 0.0
C97 C 0.19507 0.31159 0.19733 0.0
C98 C 0.34705 0.31241 0.30072 0.0
C99 C 0.40092 0.25469 0.23023 0.0
O100 O 0.43254 0.21256 0.3316 0.0
O101 O 0.45106 0.26293 0.32844 0.0
O102 O 0.38998 0.2018 0.27476 0.0
O103 O 0.31488 0.21376 0.2929 0.0
O104 O 0.33132 0.25149 0.34901 0.0
O105 O 0.25257 0.24892 0.32339 0.0
O106 O 0.21366 0.27691 0.27529 0.0
O107 O 0.25413 0.2614 0.23294 0.0
O108 O 0.29686 0.30696 0.30368 0.0
O109 O 0.36612 0.28948 0.28509 0.0
O110 O 0.34693 0.25499 0.2324 0.0
O111 O 0.42689 0.25341 0.25798 0.0
H112 H 0.458 0.1876 0.38734 0.0
H113 H 0.43623 0.19078 0.44421 0.0
H114 H 0.42546 0.29368 0.43712 0.0
H115 H 0.44707 0.29077 0.38058 0.0
H116 H 0.22988 0.33654 0.27178 0.0
H117 H 0.26256 0.38252 0.24187 0.0
H118 H 0.20838 0.33816 0.15469 0.0
H119 H 0.18074 0.29091 0.18427 0.0
La120 La 0.89509 0.01128 0.30274 0.0
La121 La 0.98812 0.99869 0.27004 0.0
C122 C 0.82302 0.01308 0.3443 0.0
C123 C 0.82867 0.01575 0.37917 0.0
C124 C 0.81252 0.04391 0.39484 0.0
C125 C 0.82218 0.04782 0.42743 0.0
C126 C 0.84751 0.02345 0.44486 0.0
C127 C 0.86358 0.99534 0.42915 0.0
C128 C 0.85414 0.99146 0.3967 0.0
C129 C 0.92629 0.06275 0.27176 0.0
C130 C 1.00692 1.00453 0.34578 0.0
C131 C 0.06774 1.00517 0.23327 0.0
C132 C 0.07912 0.02923 0.2082 0.0
C133 C 0.06024 0.02483 0.17699 0.0
C134 C 0.06072 0.0503 0.15548 0.0
C135 C 0.08072 0.08037 0.16466 0.0
C136 C 0.10376 0.08411 0.19467 0.0
C137 C 0.1031 0.05869 0.21628 0.0
C138 C 0.94272 0.94462 0.29152 0.0
C139 C 0.87626 1.00263 0.22771 0.0
O140 O 0.83856 0.03823 0.32832 0.0
O141 O 0.83971 0.9864 0.33118 0.0
O142 O 0.87771 0.05256 0.27476 0.0
O143 O 0.95778 0.0441 0.28717 0.0
O144 O 0.95425 0.01082 0.34474 0.0
O145 O 0.03015 0.99828 0.31787 0.0
O146 O 0.02864 0.985 0.22797 0.0
O147 O 0.06546 0.0165 0.26221 0.0
O148 O 0.99382 0.94995 0.28963 0.0
O149 O 0.91955 0.96858 0.27974 0.0
O150 O 0.93016 1.00452 0.22795 0.0
O151 O 0.85205 1.00172 0.25624 0.0
H152 H 0.79316 0.06306 0.38175 0.0
H153 H 0.81 0.06984 0.43897 0.0
H154 H 0.88484 0.97662 0.4418 0.0
H155 H 0.86789 0.96968 0.38531 0.0
H156 H 0.04201 1.00243 0.16982 0.0
H157 H 0.04219 0.04714 1.13231 0.0
H158 H 0.11926 0.10716 0.20194 0.0
H159 H 0.11766 0.06299 0.24009 0.0
La160 La 0.72817 0.01857 1.02719 0.0
La161 La 0.64006 0.99645 1.05464 0.0
C162 C 0.81464 0.03081 0.99777 0.0
C163 C 0.84455 0.01182 0.97478 0.0
C164 C 0.86161 0.02772 0.94721 0.0
C165 C 0.84673 0.01519 0.9178 0.0
C166 C 0.81462 0.98758 0.91731 0.0
C167 C 0.81427 0.96716 0.94378 0.0
C168 C 0.83064 0.97929 0.97298 0.0
C169 C 0.67083 0.06756 1.05198 0.0
C170 C 0.62202 1.00805 0.98054 0.0
C171 C 0.57108 0.98276 1.09577 0.0
C172 C 0.5807 0.97657 1.13012 0.0
C173 C 0.58484 0.94498 0.14162 0.0
C174 C 0.60102 0.93908 0.17305 0.0
C175 C 0.61216 0.96471 0.19354 0.0
C176 C 0.60593 0.99618 0.18258 0.0
C177 C 0.59107 1.00209 0.1511 0.0
C178 C 0.68764 0.9497 1.02254 0.0
C179 C 0.7463 1.00375 1.10067 0.0
O180 O 0.76717 0.03975 0.98806 0.0
O181 O 0.81238 0.01876 1.02622 0.0
O182 O 0.72157 0.0631 1.05476 0.0
O183 O 0.65331 0.04387 1.03673 0.0
O184 O 0.67635 1.00777 0.98225 0.0
O185 O 0.59667 1.0079 1.0087 0.0
O186 O 0.59104 0.96166 1.07618 0.0
O187 O 0.57922 0.01203 1.08569 0.0
O188 O 0.63686 0.95556 1.02289 0.0
O189 O 0.71143 0.96982 1.04045 0.0
O190 O 0.69298 1.00229 1.09907 0.0
O191 O 0.77063 1.00688 1.07288 0.0
H192 H 0.87502 0.05237 0.94836 0.0
H193 H 0.84987 0.0303 0.89686 0.0
H194 H 0.79183 0.94494 0.94344 0.0
H195 H 0.82008 0.96597 0.99428 0.0
H196 H 0.57714 0.92482 1.12604 0.0
H197 H 0.60515 0.91462 0.18131 0.0
H198 H 0.61421 0.01626 0.19818 0.0
H199 H 0.58852 0.02671 0.14313 0.0
La200 La 0.04973 0.74669 1.01926 0.0
La201 La 0.14158 0.76436 1.04692 0.0
C202 C 0.96494 0.73402 0.98845 0.0
C203 C 0.9447 0.70264 0.97813 0.0
C204 C 0.95686 0.67507 0.99604 0.0
C205 C 0.96398 0.64581 0.98052 0.0
C206 C 0.96076 0.64488 0.94719 0.0
C207 C 0.93204 0.66952 0.93174 0.0
C208 C 0.92619 0.69901 0.94692 0.0
C209 C 0.10276 0.69511 1.04209 0.0
C210 C 0.15751 0.75418 0.97259 0.0
C211 C 0.2147 0.7746 1.08658 0.0
C212 C 0.21111 0.77391 1.12169 0.0
C213 C 0.21429 0.80251 0.13924 0.0
C214 C 0.20547 0.80237 0.17218 0.0
C215 C 0.19484 0.7735 0.18819 0.0
C216 C 0.19472 0.7448 0.17084 0.0
C217 C 0.20102 0.74507 0.13787 0.0
C218 C 0.0943 0.81372 1.01799 0.0
C219 C 0.0365 0.75753 1.09352 0.0
O220 O 0.96655 0.7385 1.01904 0.0
O221 O 1.00971 0.74308 0.97507 0.0
O222 O 0.0522 0.7003 1.04398 0.0
O223 O 0.12236 0.71853 1.02734 0.0
O224 O 0.10333 0.75491 0.9746 0.0
O225 O 0.18345 0.75413 1.0004 0.0
O226 O 0.18745 0.7974 1.07295 0.0
O227 O 0.20882 0.74728 1.07174 0.0
O228 O 0.14469 0.80675 1.01684 0.0
O229 O 0.07125 0.79323 1.03563 0.0
O230 O 0.08953 0.75383 1.09092 0.0
O231 O 1.01136 0.76119 1.0659 0.0
H232 H 0.96751 0.67683 1.02094 0.0
H233 H 0.98303 0.62638 0.99324 0.0
H234 H 0.92581 0.66887 0.90618 0.0
H235 H 0.91435 0.71963 0.93304 0.0
H236 H 0.22205 0.82506 1.12733 0.0
H237 H 0.20636 0.82482 0.1851 0.0
H238 H 0.18788 0.72209 0.18253 0.0
H239 H 0.19819 0.72257 1.12516 0.0
La240 La 0.74591 0.74977 0.98747 0.0
La241 La 0.6552 0.76672 0.95869 0.0
C242 C 0.82829 0.73813 1.02049 0.0
C243 C 0.84394 0.70775 1.03529 0.0
C244 C 0.8288 0.67862 1.02104 0.0
C245 C 0.82433 0.651 1.03942 0.0
C246 C 0.83548 0.65237 1.07207 0.0
C247 C 0.86068 0.67987 1.08457 0.0
C248 C 0.86405 0.70769 1.06634 0.0
C249 C 0.69546 0.69772 0.96394 0.0
C250 C 0.63611 0.75423 1.03257 0.0
C251 C 0.58213 0.7751 0.91862 0.0
C252 C 0.58661 0.77199 0.88379 0.0
C253 C 0.58846 0.79965 0.86476 0.0
C254 C 0.6031 0.79751 0.83274 0.0
C255 C 0.61576 0.76769 0.81934 0.0
C256 C 0.61025 0.73983 0.83771 0.0
C257 C 0.59595 0.74193 0.86972 0.0
C258 C 0.69842 0.81666 0.98896 0.0
C259 C 0.76316 0.761 0.91379 0.0
O260 O 0.8276 0.73801 0.98955 0.0
O261 O 0.78494 0.75129 1.03206 0.0
O262 O 0.74601 0.70318 0.96285 0.0
O263 O 0.67471 0.72102 0.97833 0.0
O264 O 0.69023 0.75394 1.03144 0.0
O265 O 0.61135 0.75644 1.00451 0.0
O266 O 0.60994 0.79849 0.93082 0.0
O267 O 0.58734 0.74878 0.93515 0.0
O268 O 0.64846 0.80867 0.98906 0.0
O269 O 0.7236 0.7967 0.97159 0.0
O270 O 0.70991 0.7572 0.91528 0.0
O271 O 0.78652 0.76465 0.94191 0.0
H272 H 0.81546 0.67772 0.99658 0.0
H273 H 0.80559 0.63 1.02916 0.0
H274 H 0.87034 0.68154 1.10969 0.0
H275 H 0.8769 0.72977 1.07752 0.0
H276 H 0.58092 0.82303 0.875 0.0
H277 H 0.60624 0.81923 0.81874 0.0
H278 H 0.6197 0.71657 0.82774 0.0
H279 H 0.59453 0.72011 0.88368 0.0
La280 La 0.04901 0.01484 0.9906 0.0
La281 La 0.14106 0.9974 0.96323 0.0
C282 C 0.96394 0.02731 1.0211 0.0
C283 C 0.94779 0.05742 1.03654 0.0
C284 C 0.95956 0.08697 1.02202 0.0
C285 C 0.9666 0.11423 1.04073 0.0
C286 C 0.96278 0.11188 1.07403 0.0
C287 C 0.93874 0.08424 1.08717 0.0
C288 C 0.93208 0.05697 1.06848 0.0
C289 C 0.1026 0.06681 0.96894 0.0
C290 C 0.15594 1.00731 1.0382 0.0
C291 C 0.21272 0.98846 0.92243 0.0
C292 C 0.20536 0.98887 0.88744 0.0
C293 C 0.20359 0.95988 0.87053 0.0
C294 C 0.19025 0.95952 0.83822 0.0
C295 C 0.17959 0.98824 0.82189 0.0
C296 C 0.18259 0.01732 0.83865 0.0
C297 C 0.19498 0.01765 0.87111 0.0
C298 C 0.09533 0.94795 0.99181 0.0
C299 C 0.03658 1.00176 0.91652 0.0
O300 O 0.96821 0.02861 0.99027 0.0
O301 O 1.00519 0.01273 1.03373 0.0
O302 O 0.05191 0.06193 0.96696 0.0
O303 O 0.12182 0.04298 0.98326 0.0
O304 O 0.10188 0.00949 1.03599 0.0
O305 O 0.18225 1.00502 1.01045 0.0
O306 O 0.18843 0.96511 0.93716 0.0
O307 O 0.20658 0.01567 0.93739 0.0
O308 O 0.14546 0.95535 0.99333 0.0
O309 O 0.07115 0.96811 0.97423 0.0
O310 O 0.08905 1.0071 0.91917 0.0
O311 O 1.0117 0.99793 0.94429 0.0
H312 H 0.96967 0.08838 0.99695 0.0
H313 H 0.98356 0.13523 1.02967 0.0
H314 H 0.93372 0.08163 1.11272 0.0
H315 H 0.92117 0.03471 1.0798 0.0
H316 H 0.21093 0.93733 0.88255 0.0
H317 H 0.1867 0.93661 0.82635 0.0
H318 H 0.17502 0.03987 0.82672 0.0
H319 H 0.19588 0.04044 0.88341 0.0
La320 La 0.39434 0.50711 0.71254 0.0
La321 La 0.29792 0.50197 0.7459 0.0
C322 C 0.46336 0.49403 0.67129 0.0
C323 C 0.45504 0.48609 0.63725 0.0
C324 C 0.45086 0.51058 0.61439 0.0
C325 C 0.43817 0.50328 0.58286 0.0
C326 C 0.42861 0.47152 0.57374 0.0
C327 C 0.43471 0.44683 0.59599 0.0
C328 C 0.44816 0.45403 0.62755 0.0
C329 C 0.3685 0.56292 0.73767 0.0
C330 C 0.28198 0.50432 0.66942 0.0
C331 C 0.21574 0.51411 0.77909 0.0
C332 C 0.20176 0.5391 0.80249 0.0
C333 C 0.19778 0.53105 0.83472 0.0
C334 C 0.19405 0.55487 0.8578 0.0
C335 C 0.19506 0.58746 0.84905 0.0
C336 C 0.19481 0.59543 0.81652 0.0
C337 C 0.19703 0.57144 0.79342 0.0
C338 C 0.3359 0.44502 0.72746 0.0
C339 C 0.4111 0.50486 0.78849 0.0
O340 O 0.45223 0.52342 0.67994 0.0
O341 O 0.44517 0.473 0.69173 0.0
O342 O 0.41684 0.55193 0.73426 0.0
O343 O 0.33552 0.54334 0.72477 0.0
O344 O 0.33554 0.50697 0.6703 0.0
O345 O 0.25758 0.50155 0.69755 0.0
O346 O 0.25242 0.49333 0.7875 0.0
O347 O 0.2231 0.52408 0.74998 0.0
O348 O 0.28556 0.45255 0.72843 0.0
O349 O 0.3615 0.46836 0.7385 0.0
O350 O 0.35696 0.50737 0.78811 0.0
O351 O 0.43566 0.50237 0.76015 0.0
H352 H 0.45656 0.53543 0.6209 0.0
H353 H 0.43423 0.52255 0.56572 0.0
H354 H 0.42754 0.42218 0.58919 0.0
H355 H 0.45168 0.4346 0.64454 0.0
H356 H 0.20171 0.50644 0.84216 0.0
H357 H 0.19607 0.54758 0.88256 0.0
H358 H 0.19755 0.62012 0.8089 0.0
H359 H 0.19938 0.57852 0.7686 0.0
La360 La 0.91425 0.74547 0.71202 0.0
La361 La 1.00805 0.75814 0.74326 0.0
C362 C 0.84163 0.73993 0.6711 0.0
C363 C 0.84703 0.74076 0.6361 0.0
C364 C 0.85087 0.71203 0.61879 0.0
C365 C 0.86213 0.7126 0.58622 0.0
C366 C 0.86896 0.74189 0.57037 0.0
C367 C 0.86301 0.77061 0.58735 0.0
C368 C 0.8524 0.77009 0.61995 0.0
C369 C 0.9534 0.69293 0.73973 0.0
C370 C 0.02371 0.75319 0.66713 0.0
C371 C 0.08593 0.7509 0.78104 0.0
C372 C 0.09228 0.72914 0.8086 0.0
C373 C 0.06748 0.73613 0.83782 0.0
C374 C 0.06571 0.71327 0.86198 0.0
C375 C 0.08726 0.68259 0.85705 0.0
C376 C 0.11355 0.67575 0.82839 0.0
C377 C 0.11713 0.69907 0.80456 0.0
C378 C 0.96821 0.81228 0.71947 0.0
C379 C 0.89539 0.75533 0.7865 0.0
O380 O 0.86413 0.71555 0.68509 0.0
O381 O 0.8515 0.76654 0.68622 0.0
O382 O 0.90415 0.70246 0.74063 0.0
O383 O 0.97972 0.71363 0.72392 0.0
O384 O 0.97014 0.75103 0.66872 0.0
O385 O 0.04903 0.75526 0.69507 0.0
O386 O 0.0511 0.77419 0.78357 0.0
O387 O 0.08133 0.73645 0.75374 0.0
O388 O 1.01876 0.80552 0.7218 0.0
O389 O 0.94166 0.78968 0.73222 0.0
O390 O 0.94938 0.75346 0.78573 0.0
O391 O 0.87086 0.75531 0.75821 0.0
H392 H 0.84656 0.68908 0.63059 0.0
H393 H 0.8663 0.69016 0.57353 0.0
H394 H 0.86837 0.7935 0.57559 0.0
H395 H 0.8494 0.79265 0.63254 0.0
H396 H 0.04711 0.7587 0.84153 0.0
H397 H 0.04429 0.71887 0.8838 0.0
H398 H 0.12896 0.65203 0.82401 0.0
H399 H 0.13629 0.69283 0.78219 0.0
La400 La 0.39951 0.75246 0.8007 0.0
La401 La 0.30174 0.75743 0.7676 0.0
C402 C 0.4696 0.76368 0.84152 0.0
C403 C 0.46331 0.76104 0.87627 0.0
C404 C 0.45414 0.73115 0.8907 0.0
C405 C 0.4372 0.7295 0.9223 0.0
C406 C 0.42954 0.75763 0.93996 0.0
C407 C 0.44202 0.78734 0.92624 0.0
C408 C 0.45846 0.78905 0.89455 0.0
C409 C 0.37244 0.69698 0.77646 0.0
C410 C 0.2874 0.75537 0.84418 0.0
C411 C 0.22098 0.74063 0.73566 0.0
C412 C 0.21646 0.71094 0.71736 0.0
C413 C 0.16725 0.69893 0.70653 0.0
C414 C 0.16576 0.67079 0.68841 0.0
C415 C 0.21368 0.65455 0.68089 0.0
C416 C 0.26196 0.66546 0.69448 0.0
C417 C 0.26312 0.69321 0.71236 0.0
C418 C 0.34267 0.81471 0.78287 0.0
C419 C 0.41416 0.75516 0.72472 0.0
O420 O 0.46798 0.7369 0.82532 0.0
O421 O 0.44017 0.7861 0.82854 0.0
O422 O 0.42111 0.70736 0.77938 0.0
O423 O 0.33985 0.71667 0.78957 0.0
O424 O 0.34057 0.75038 0.84304 0.0
O425 O 0.26318 0.76012 0.8163 0.0
O426 O 0.25652 0.76129 0.7253 0.0
O427 O 0.22621 0.73554 0.76611 0.0
O428 O 0.2917 0.80855 0.78133 0.0
O429 O 0.3668 0.79014 0.77336 0.0
O430 O 0.36072 0.74991 0.72568 0.0
O431 O 0.43834 0.7606 0.7527 0.0
H432 H 0.45741 0.7091 0.87726 0.0
H433 H 0.42772 0.70634 0.93248 0.0
H434 H 0.4378 0.80927 0.9398 0.0
H435 H 0.46562 0.81235 0.88398 0.0
H436 H 0.13058 0.71199 0.71041 0.0
H437 H 0.12795 0.66319 0.67823 0.0
H438 H 0.30028 0.65465 0.68889 0.0
H439 H 0.30125 0.70164 0.72109 0.0
La440 La 0.90797 0.50915 0.80175 0.0
La441 La 1.00097 0.49217 0.77096 0.0
C442 C 0.83763 0.51227 0.844 0.0
C443 C 0.84512 0.50393 0.87792 0.0
C444 C 0.84556 0.52818 0.90106 0.0
C445 C 0.85889 0.52107 0.93258 0.0
C446 C 0.87243 0.48965 0.94142 0.0
C447 C 0.87082 0.46523 0.91856 0.0
C448 C 0.85719 0.47226 0.88708 0.0
C449 C 0.94607 0.55831 0.76936 0.0
C450 C 1.0168 0.50072 0.84699 0.0
C451 C 0.08215 0.4968 0.73552 0.0
C452 C 0.09561 0.52265 0.71289 0.0
C453 C 0.09177 0.5168 0.68015 0.0
C454 C 0.09217 0.54215 0.65862 0.0
C455 C 0.09646 0.57397 0.66939 0.0
C456 C 0.10423 0.57978 0.70196 0.0
C457 C 0.10391 0.55431 0.72357 0.0
C458 C 0.9524 0.43964 0.79389 0.0
C459 C 0.8901 0.49907 0.72668 0.0
O460 O 0.86409 0.53739 0.83414 0.0
O461 O 0.84084 0.48862 0.82375 0.0
O462 O 0.89593 0.5511 0.77256 0.0
O463 O 0.97416 0.53889 0.78597 0.0
O464 O 0.96412 0.50635 0.84505 0.0
O465 O 0.04126 0.49448 0.81941 0.0
O466 O 0.04037 0.47936 0.7283 0.0
O467 O 0.08171 0.50495 0.76548 0.0
O468 O 1.00376 0.44351 0.79142 0.0
O469 O 0.93064 0.46405 0.78166 0.0
O470 O 0.94419 0.49741 0.7277 0.0
O471 O 0.86499 0.50185 0.75483 0.0
H472 H 0.83669 0.55274 0.8946 0.0
H473 H 0.85995 0.54028 0.94993 0.0
H474 H 0.88045 0.44078 0.92502 0.0
H475 H 0.85737 0.45295 0.86984 0.0
H476 H 0.08447 0.4928 0.67135 0.0
H477 H 0.08418 0.53693 0.63378 0.0
H478 H 0.10679 0.60407 0.71088 0.0
H479 H 0.10638 0.55976 0.74876 0.0
La480 La 0.73877 0.51073 0.52539 0.0
La481 La 0.648 0.49765 0.55585 0.0
C482 C 0.82093 0.52068 0.49114 0.0
C483 C 0.8398 0.55088 0.47691 0.0
C484 C 0.83046 0.58012 0.49262 0.0
C485 C 0.83016 0.60876 0.47547 0.0
C486 C 0.84006 0.60847 0.44268 0.0
C487 C 0.85961 0.5801 0.42856 0.0
C488 C 0.85841 0.55128 0.44544 0.0
C489 C 0.69042 0.56484 0.54674 0.0
C490 C 0.62846 0.50717 0.48192 0.0
C491 C 0.57433 0.49329 0.59625 0.0
C492 C 0.57887 0.49124 0.63118 0.0
C493 C 0.58214 0.46121 0.64629 0.0
C494 C 0.59309 0.45923 0.67881 0.0
C495 C 0.601 0.48722 0.69657 0.0
C496 C 0.59521 0.5172 0.68192 0.0
C497 C 0.58401 0.51923 0.6495 0.0
C498 C 0.68333 0.44533 0.52642 0.0
C499 C 0.75767 0.49895 0.59935 0.0
O500 O 0.82154 0.51958 0.52207 0.0
O501 O 0.7757 0.50973 0.48001 0.0
O502 O 0.74062 0.55836 0.54855 0.0
O503 O 0.66928 0.54129 0.53336 0.0
O504 O 0.6823 0.50407 0.48229 0.0
O505 O 0.60484 0.50907 0.51037 0.0
O506 O 0.59312 0.46881 0.58054 0.0
O507 O 0.58886 0.52043 0.58331 0.0
O508 O 0.63476 0.4559 0.52676 0.0
O509 O 0.71249 0.46463 0.54243 0.0
O510 O 0.70473 0.50397 0.59862 0.0
O511 O 0.78003 0.49532 0.57082 0.0
H512 H 0.81878 0.5806 0.5174 0.0
H513 H 0.81618 0.63042 0.48678 0.0
H514 H 0.86884 0.57924 0.40336 0.0
H515 H 0.86715 0.5291 0.43307 0.0
H516 H 0.57789 0.43923 0.6328 0.0
H517 H 0.59797 0.43589 0.68972 0.0
H518 H 0.601 0.53905 0.69541 0.0
H519 H 0.58101 0.5427 0.63865 0.0
La520 La 0.04006 0.2426 0.52473 0.0
La521 La 0.13196 0.2589 0.55435 0.0
C522 C 0.96269 0.2281 0.48902 0.0
C523 C 0.96063 0.1995 0.46853 0.0
C524 C 0.98305 0.17047 0.47936 0.0
C525 C 1.00307 0.14822 0.45759 0.0
C526 C 1.00108 0.15494 0.42488 0.0
C527 C 0.96973 0.18093 0.41427 0.0
C528 C 0.94976 0.20314 0.43607 0.0
C529 C 0.0941 0.19068 0.54525 0.0
C530 C 0.15 0.25187 0.4797 0.0
C531 C 0.20514 0.25858 0.5952 0.0
C532 C 0.20002 0.25543 0.63017 0.0
C533 C 0.19794 0.2829 0.64933 0.0
C534 C 0.18612 0.28033 0.68168 0.0
C535 C 0.17737 0.25034 0.69586 0.0
C536 C 0.18152 0.2227 0.67702 0.0
C537 C 0.1926 0.22519 0.64445 0.0
C538 C 0.08781 0.31015 0.52767 0.0
C539 C 0.02207 0.25529 0.59873 0.0
O540 O 0.96331 0.22247 0.5195 0.0
O541 O 0.99919 0.24914 0.48117 0.0
O542 O 0.0437 0.19558 0.54884 0.0
O543 O 0.11231 0.21496 0.53132 0.0
O544 O 0.09587 0.25047 0.48105 0.0
O545 O 0.17525 0.25259 0.50767 0.0
O546 O 0.18603 0.2849 0.5827 0.0
O547 O 0.19163 0.23335 0.57865 0.0
O548 O 0.13855 0.30357 0.52843 0.0
O549 O 0.06236 0.28868 0.5432 0.0
O550 O 0.07569 0.25391 0.59757 0.0
O551 O 0.9977 0.25555 0.57054 0.0
H552 H 0.99068 0.16644 0.50442 0.0
H553 H 0.02627 0.12815 0.46639 0.0
H554 H 0.96706 0.18671 0.38911 0.0
H555 H 0.93158 0.22486 0.42735 0.0
H556 H 0.20317 0.30651 0.63907 0.0
H557 H 0.18039 0.30201 0.69526 0.0
H558 H 0.1751 0.19923 0.68734 0.0
H559 H 0.19432 0.20347 0.6304 0.0
La560 La 0.74313 0.25182 0.49866 0.0
La561 La 0.64382 0.25643 0.46607 0.0
C562 C 0.82414 0.26494 0.53241 0.0
C563 C 0.83728 0.29169 0.55414 0.0
C564 C 0.84104 0.28592 0.58691 0.0
C565 C 0.84711 0.31129 0.60815 0.0
C566 C 0.84964 0.34321 0.59715 0.0
C567 C 0.84957 0.34882 0.56414 0.0
C568 C 0.84339 0.32331 0.54281 0.0
C569 C 0.70462 0.19474 0.48072 0.0
C570 C 0.63094 0.25235 0.54208 0.0
C571 C 0.57155 0.24773 0.42576 0.0
C572 C 0.57655 0.24848 0.39071 0.0
C573 C 0.57991 0.27777 0.37426 0.0
C574 C 0.59143 0.27826 0.34172 0.0
C575 C 0.5991 0.24955 0.32501 0.0
C576 C 0.59414 0.22027 0.34115 0.0
C577 C 0.58293 0.21973 0.37371 0.0
C578 C 0.67294 0.31139 0.49116 0.0
C579 C 0.75479 0.25626 0.42166 0.0
O580 O 0.78619 0.24533 0.54151 0.0
O581 O 0.81944 0.27235 0.50238 0.0
O582 O 0.75517 0.20187 0.4819 0.0
O583 O 0.67927 0.21828 0.4916 0.0
O584 O 0.68395 0.2592 0.54067 0.0
O585 O 0.60656 0.24653 0.51421 0.0
O586 O 0.57828 0.27496 0.44065 0.0
O587 O 0.59715 0.22429 0.43974 0.0
O588 O 0.62408 0.30113 0.48919 0.0
O589 O 0.70421 0.29193 0.47703 0.0
O590 O 0.70107 0.2558 0.42311 0.0
O591 O 0.78062 0.25566 0.44951 0.0
H592 H 0.83657 0.26189 0.59625 0.0
H593 H 0.84606 0.3059 0.63343 0.0
H594 H 0.85201 0.37297 0.55485 0.0
H595 H 0.84134 0.3286 0.51755 0.0
H596 H 0.57507 0.30036 0.3866 0.0
H597 H 0.59521 0.30109 0.32968 0.0
H598 H 0.60064 0.19782 0.3288 0.0
H599 H 0.58047 0.19681 0.38575 0.0
La600 La 0.0426 0.51093 0.49479 0.0
La601 La 0.13423 0.49362 0.4679 0.0
C602 C 0.9587 0.5236 0.52654 0.0
C603 C 0.94415 0.55366 0.54273 0.0
C604 C 0.95599 0.58333 0.52837 0.0
C605 C 0.96578 0.61012 0.54735 0.0
C606 C 0.96536 0.60698 0.58065 0.0
C607 C 0.94059 0.57972 0.59404 0.0
C608 C 0.93097 0.55289 0.57512 0.0
C609 C 0.09588 0.56278 0.47308 0.0
C610 C 0.1502 0.50528 0.5419 0.0
C611 C 0.20738 0.48283 0.42839 0.0
C612 C 0.20324 0.48241 0.39329 0.0
C613 C 0.20065 0.45309 0.37689 0.0
C614 C 0.19088 0.45251 0.34411 0.0
C615 C 0.18491 0.48124 0.32713 0.0
C616 C 0.19117 0.51047 0.34309 0.0
C617 C 0.19855 0.51112 0.376 0.0
C618 C 0.08882 0.44415 0.49721 0.0
C619 C 0.03118 0.50113 0.42023 0.0
O620 O 0.96179 0.52514 0.49568 0.0
O621 O 1.00004 0.50852 0.53834 0.0
O622 O 0.04539 0.55762 0.47049 0.0
O623 O 0.11521 0.5393 0.48783 0.0
O624 O 0.09603 0.50511 0.53995 0.0
O625 O 0.17611 0.5044 0.51405 0.0
O626 O 0.18107 0.4602 0.44296 0.0
O627 O 0.20101 0.51056 0.44242 0.0
O628 O 0.13858 0.45224 0.49907 0.0
O629 O 0.06446 0.46385 0.47913 0.0
O630 O 0.08397 0.50488 0.42354 0.0
O631 O 1.00522 0.49681 0.4476 0.0
H632 H 0.96434 0.58502 0.50308 0.0
H633 H 0.98314 0.63107 0.53632 0.0
H634 H 0.93797 0.57676 0.61967 0.0
H635 H 0.92025 0.53056 0.58651 0.0
H636 H 0.20461 0.43062 0.38957 0.0
H637 H 0.18737 0.42966 0.33207 0.0
H638 H 0.18882 0.53291 0.33026 0.0
H639 H 0.2009 0.53415 0.38777 0.0
La640 La 0.90103 0.01662 0.71114 0.0
La641 La 0.82069 0.98759 0.73296 0.0
C642 C 0.97129 0.03562 0.67268 0.0
C643 C 0.96562 0.03566 0.6376 0.0
C644 C 0.95206 0.06402 0.62151 0.0
C645 C 0.93339 0.06293 0.59011 0.0
C646 C 0.92995 0.03355 0.57373 0.0
C647 C 0.94881 1.00579 0.58896 0.0
C648 C 0.96393 1.0066 0.62084 0.0
C649 C 0.84451 0.05903 0.74463 0.0
C650 C 0.79661 0.00883 0.66336 0.0
C651 C 0.7401 0.96151 0.75844 0.0
C652 C 0.68975 0.97418 0.77019 0.0
C653 C 0.65343 0.95286 0.7842 0.0
C654 C 0.62771 0.96204 0.8123 0.0
C655 C 0.64495 0.99052 0.82705 0.0
C656 C 0.66389 0.01518 0.80708 0.0
C657 C 0.68827 1.00663 0.77853 0.0
C658 C 0.88645 0.94444 0.70544 0.0
C659 C 0.9183 1.00061 0.78461 0.0
O660 O 0.93887 0.05493 0.68765 0.0
O661 O 0.97296 1.00757 0.68646 0.0
O662 O 0.89574 0.05496 0.74583 0.0
O663 O 0.82486 0.03879 0.72507 0.0
O664 O 0.85016 0.01016 0.66529 0.0
O665 O 0.77314 1.00552 0.69138 0.0
O666 O 0.78225 0.9711 0.77417 0.0
O667 O 0.7473 0.96335 0.72796 0.0
O668 O 0.83711 0.94924 0.69883 0.0
O669 O 0.89928 0.96666 0.72419 0.0
O670 O 0.86628 0.993 0.7806 0.0
O671 O 0.94387 0.00946 0.75806 0.0
H672 H 0.95225 0.08677 0.63391 0.0
H673 H 0.91926 0.08493 0.57938 0.0
H674 H 0.95041 0.98303 0.57673 0.0
H675 H 0.97268 0.98411 0.63255 0.0
H676 H 0.65229 0.92795 0.77701 0.0
H677 H 0.60805 0.94358 0.8262 0.0
H678 H 0.67234 0.03885 0.81626 0.0
H679 H 0.71398 0.02385 0.76662 0.0
La680 La 0.39159 0.24442 0.71496 0.0
La681 La 0.48107 0.26431 0.74354 0.0
C682 C 0.31859 0.23802 0.67447 0.0
C683 C 0.32286 0.24133 0.63955 0.0
C684 C 0.32332 0.21386 0.62033 0.0
C685 C 0.33549 0.2162 0.58797 0.0
C686 C 0.34731 0.24609 0.57417 0.0
C687 C 0.34315 0.2738 0.59292 0.0
C688 C 0.33152 0.27146 0.62538 0.0
C689 C 0.437 0.19567 0.74481 0.0
C690 C 0.50086 0.25057 0.67013 0.0
C691 C 0.55715 0.28049 0.77936 0.0
C692 C 0.55362 0.30641 0.80301 0.0
C693 C 0.58571 0.33408 0.80031 0.0
C694 C 0.57278 0.36182 0.81771 0.0
C695 C 0.52614 0.36246 0.83655 0.0
C696 C 0.49541 0.33447 0.83944 0.0
C697 C 0.50968 0.30676 0.82373 0.0
C698 C 0.42532 0.31436 0.72033 0.0
C699 C 0.37234 0.25516 0.78937 0.0
O700 O 0.34466 0.21385 0.68668 0.0
O701 O 0.32554 0.26412 0.69109 0.0
O702 O 0.38639 0.20217 0.74424 0.0
O703 O 0.46213 0.21635 0.72793 0.0
O704 O 0.44717 0.25013 0.67137 0.0
O705 O 0.52507 0.25194 0.69826 0.0
O706 O 0.55206 0.29052 0.7502 0.0
O707 O 0.52758 0.25508 0.7845 0.0
O708 O 0.47608 0.30991 0.71765 0.0
O709 O 0.40703 0.29048 0.73519 0.0
O710 O 0.4254 0.26094 0.78757 0.0
O711 O 0.34783 0.24936 0.76172 0.0
H712 H 0.31639 0.19041 0.6306 0.0
H713 H 0.33825 0.19437 0.57414 0.0
H714 H 0.34998 0.29726 0.58269 0.0
H715 H 0.33059 0.2932 0.63944 0.0
H716 H 0.61963 0.33447 0.78415 0.0
H717 H 0.59856 0.38262 0.81623 0.0
H718 H 0.46043 0.33372 0.85454 0.0
H719 H 0.48491 0.28587 0.82727 0.0
La720 La 0.8779 0.24229 0.80212 0.0
La721 La 0.78922 0.26236 0.77441 0.0
C722 C 0.9502 0.23333 0.84266 0.0
C723 C 0.94559 0.23603 0.87768 0.0
C724 C 0.94902 0.20849 0.89679 0.0
C725 C 0.93931 0.2103 0.92958 0.0
C726 C 0.92613 0.23974 0.94382 0.0
C727 C 0.92427 0.26742 0.92486 0.0
C728 C 0.9337 0.26561 0.89213 0.0
C729 C 0.83133 0.19321 0.77256 0.0
C730 C 0.77053 0.2499 0.84768 0.0
C731 C 0.71047 0.28015 0.74109 0.0
C732 C 0.70519 0.31155 0.72535 0.0
C733 C 0.7197 0.33959 0.74195 0.0
C734 C 0.73832 0.36636 0.72536 0.0
C735 C 0.74057 0.36574 0.69211 0.0
C736 C 0.71694 0.3399 0.67563 0.0
C737 C 0.69994 0.31278 0.69219 0.0
C738 C 0.84707 0.31235 0.79728 0.0
C739 C 0.895 0.25394 0.72754 0.0
O740 O 0.92286 0.21007 0.82988 0.0
O741 O 0.94533 0.25987 0.8264 0.0
O742 O 0.88182 0.20008 0.77218 0.0
O743 O 0.80705 0.21405 0.78962 0.0
O744 O 0.82404 0.25152 0.84594 0.0
O745 O 0.74636 0.2484 0.81958 0.0
O746 O 0.71074 0.28071 0.77207 0.0
O747 O 0.74902 0.26205 0.73015 0.0
O748 O 0.7963 0.30832 0.80008 0.0
O749 O 0.86393 0.28844 0.7822 0.0
O750 O 0.84119 0.25537 0.7294 0.0
O751 O 0.92064 0.25148 0.75541 0.0
H752 H 0.95788 0.18541 0.88622 0.0
H753 H 0.94007 0.18848 0.94354 0.0
H754 H 0.91448 0.29043 0.93528 0.0
H755 H 0.93063 0.28733 0.87815 0.0
H756 H 0.72231 0.33966 0.76766 0.0
H757 H 0.75611 0.38604 0.7383 0.0
H758 H 0.71847 0.33871 0.64982 0.0
H759 H 0.68887 0.29157 0.67889 0.0
La760 La 0.38663 0.00931 0.80397 0.0
La761 La 0.48384 0.99995 0.77394 0.0
C762 C 0.31664 1.0021 0.8456 0.0
C763 C 0.32626 1.00463 0.8803 0.0
C764 C 0.33257 0.03473 0.8948 0.0
C765 C 0.35063 0.03694 0.92616 0.0
C766 C 0.36172 0.00926 0.94385 0.0
C767 C 0.35394 0.97915 0.92984 0.0
C768 C 0.33639 0.97684 0.89833 0.0
C769 C 0.42425 0.06331 0.78056 0.0
C770 C 0.49406 1.00524 0.85097 0.0
C771 C 0.56959 0.0118 0.74364 0.0
C772 C 0.59196 0.04293 0.73421 0.0
C773 C 0.62335 0.04546 0.70668 0.0
C774 C 0.6248 0.07452 0.6901 0.0
C775 C 0.59132 0.09979 0.70013 0.0
C776 C 0.57375 0.09985 0.73188 0.0
C777 C 0.57272 0.07102 0.74876 0.0
C778 C 0.43962 0.94369 0.78906 0.0
C779 C 0.3744 1.00398 0.72807 0.0
O780 O 0.32101 0.02857 0.82897 0.0
O781 O 0.34064 0.97794 0.83175 0.0
O782 O 0.37412 0.05506 0.78029 0.0
O783 O 0.45163 0.04225 0.79524 0.0
O784 O 0.44139 0.01083 0.84819 0.0
O785 O 0.51978 0.99965 0.82371 0.0
O786 O 0.52489 1.00354 0.72977 0.0
O787 O 0.56614 1.00747 0.77408 0.0
O788 O 0.49055 0.9493 0.78757 0.0
O789 O 0.41614 0.96841 0.77904 0.0
O790 O 0.42838 1.00639 0.73013 0.0
O791 O 0.34772 1.00186 0.75576 0.0
H792 H 0.32577 0.05663 0.88158 0.0
H793 H 0.35819 0.06032 0.93624 0.0
H794 H 0.36209 0.95745 0.94315 0.0
H795 H 0.33195 0.9533 0.88782 0.0
H796 H 0.64062 0.02432 0.696 0.0
H797 H 0.64111 0.07446 0.66611 0.0
H798 H 0.55077 0.11988 0.74087 0.0
H799 H 0.55076 0.06988 0.77102 0.0
La800 La 0.24353 0.01043 0.51954 0.0
La801 La 0.15154 0.99204 0.54959 0.0
C802 C 0.33462 0.02111 0.49528 0.0
C803 C 0.35072 0.04512 0.47117 0.0
C804 C 0.34746 0.07809 0.47825 0.0
C805 C 0.33829 0.10015 0.45386 0.0
C806 C 0.33236 0.08926 0.42252 0.0
C807 C 0.34828 0.05784 0.41496 0.0
C808 C 0.35703 0.03569 0.4393 0.0
C809 C 0.17885 0.06052 0.52808 0.0
C810 C 0.13683 1.00429 0.47417 0.0
C811 C 0.07889 0.9824 0.58969 0.0
C812 C 0.08316 0.985 0.6247 0.0
C813 C 0.07682 0.95744 0.64355 0.0
C814 C 0.08933 0.95811 0.67599 0.0
C815 C 0.10799 0.98643 0.69009 0.0
C816 C 0.11182 0.0144 0.67172 0.0
C817 C 0.09987 0.01368 0.63921 0.0
C818 C 0.19554 0.94424 0.51712 0.0
C819 C 0.25575 1.00041 0.59642 0.0
O820 O 0.31806 0.03287 0.52232 0.0
O821 O 0.30267 0.99822 0.48548 0.0
O822 O 0.20713 0.05476 0.50303 0.0
O823 O 0.18804 0.03851 0.54813 0.0
O824 O 0.19068 1.00161 0.47533 0.0
O825 O 0.112 1.0058 0.50256 0.0
O826 O 0.1079 0.95951 0.57742 0.0
O827 O 0.08247 0.00896 0.57311 0.0
O828 O 0.14537 0.95186 0.51681 0.0
O829 O 0.22045 0.96362 0.53504 0.0
O830 O 0.20473 0.99122 0.59381 0.0
O831 O 0.27968 0.00942 0.56939 0.0
H832 H 0.34489 0.08643 0.50265 0.0
H833 H 0.32766 0.12452 0.45995 0.0
H834 H 0.34499 0.04903 0.39072 0.0
H835 H 0.3615 0.01063 0.43318 0.0
H836 H 0.0641 0.93507 0.63289 0.0
H837 H 0.08569 0.93636 0.68992 0.0
H838 H 0.1262 0.03647 0.68226 0.0
H839 H 0.10549 0.03529 0.62532 0.0
La840 La 0.55382 0.75075 0.52054 0.0
La841 La 0.65316 0.75775 0.55157 0.0
C842 C 0.46511 0.76351 0.49417 0.0
C843 C 0.44846 0.79119 0.47514 0.0
C844 C 0.41695 0.78671 0.44793 0.0
C845 C 0.42634 0.80612 0.42126 0.0
C846 C 0.47021 0.82737 0.4222 0.0
C847 C 0.48631 0.839 0.45196 0.0
C848 C 0.47693 0.81995 0.4786 0.0
C849 C 0.59668 0.69418 0.53638 0.0
C850 C 0.66487 0.75461 0.47525 0.0
C851 C 0.72576 0.74778 0.59155 0.0
C852 C 0.72385 0.75091 0.62647 0.0
C853 C 0.72007 0.78108 0.64107 0.0
C854 C 0.70958 0.78338 0.67363 0.0
C855 C 0.7029 0.75562 0.6921 0.0
C856 C 0.70932 0.7255 0.67784 0.0
C857 C 0.71975 0.72316 0.64529 0.0
C858 C 0.61988 0.81271 0.52855 0.0
C859 C 0.54413 0.75389 0.59711 0.0
O860 O 0.5019 0.74512 0.48134 0.0
O861 O 0.47669 0.77032 0.52363 0.0
O862 O 0.54579 0.70009 0.53531 0.0
O863 O 0.6204 0.71862 0.52598 0.0
O864 O 0.61093 0.75948 0.47716 0.0
O865 O 0.69028 0.74943 0.50294 0.0
O866 O 0.72273 0.77416 0.57473 0.0
O867 O 0.69444 0.72542 0.5804 0.0
O868 O 0.66949 0.80345 0.52949 0.0
O869 O 0.59012 0.792 0.5423 0.0
O870 O 0.59668 0.76031 0.59488 0.0
O871 O 0.5191 0.7474 0.57 0.0
H872 H 0.3931 0.7653 0.44536 0.0
H873 H 0.41044 0.79839 0.39851 0.0
H874 H 0.51712 0.85724 0.4536 0.0
H875 H 0.49903 0.82473 0.50012 0.0
H876 H 0.72286 0.80291 0.62721 0.0
H877 H 0.70353 0.80687 0.68393 0.0
H878 H 0.70475 0.70377 0.6917 0.0
H879 H 0.72293 0.69961 0.63461 0.0
La880 La 0.24962 0.74295 0.48735 0.0
La881 La 0.15761 0.76136 0.45992 0.0
C882 C 0.33214 0.73074 0.51992 0.0
C883 C 0.34348 0.70099 0.53734 0.0
C884 C 0.32966 0.67133 0.52358 0.0
C885 C 0.31637 0.64545 0.54301 0.0
C886 C 0.31839 0.64892 0.57608 0.0
C887 C 0.34229 0.67633 0.58938 0.0
C888 C 0.35399 0.70257 0.57004 0.0
C889 C 0.19395 0.69133 0.46683 0.0
C890 C 0.14414 0.75194 0.5353 0.0
C891 C 0.08436 0.76834 0.41974 0.0
C892 C 0.09135 0.76916 0.38469 0.0
C893 C 0.10011 0.79839 0.3689 0.0
C894 C 0.11494 0.79886 0.33678 0.0
C895 C 0.12091 0.77012 0.31972 0.0
C896 C 0.10893 0.74103 0.33495 0.0
C897 C 0.09472 0.74051 0.36715 0.0
C898 C 0.20505 0.81096 0.48717 0.0
C899 C 0.264 0.75532 0.41294 0.0
O900 O 0.32997 0.72798 0.4891 0.0
O901 O 0.29158 0.7473 0.53076 0.0
O902 O 0.24495 0.69514 0.46541 0.0
O903 O 0.17571 0.71582 0.48058 0.0
O904 O 0.19788 0.74945 0.53257 0.0
O905 O 0.11714 0.75426 0.50782 0.0
O906 O 0.10529 0.79225 0.43539 0.0
O907 O 0.09486 0.74106 0.43356 0.0
O908 O 0.15455 0.80421 0.48853 0.0
O909 O 0.22856 0.78982 0.47022 0.0
O910 O 0.21049 0.75567 0.41516 0.0
O911 O 0.28956 0.7545 0.44061 0.0
H912 H 0.32271 0.66913 0.49822 0.0
H913 H 0.2982 0.6244 0.5325 0.0
H914 H 0.34379 0.67941 0.61505 0.0
H915 H 0.36453 0.72516 0.58105 0.0
H916 H 0.09741 0.82089 0.38165 0.0
H917 H 0.12364 0.82166 0.32561 0.0
H918 H 0.11113 0.71859 0.32209 0.0
H919 H 0.08735 0.71758 0.37842 0.0
La920 La 0.56039 0.01365 0.48851 0.0
La921 La 0.64895 0.99542 0.46107 0.0
C922 C 0.48086 0.03116 0.52129 0.0
C923 C 0.47739 0.06092 0.53952 0.0
C924 C 0.5237 0.07961 0.54294 0.0
C925 C 0.52486 0.10431 0.56512 0.0
C926 C 0.48006 0.10979 0.5847 0.0
C927 C 0.43058 0.09609 0.57597 0.0
C928 C 0.42981 0.07055 0.55442 0.0
C929 C 0.61529 0.06483 0.46609 0.0
C930 C 0.66721 0.0086 0.53513 0.0
C931 C 0.72187 0.98305 0.42126 0.0
C932 C 0.71745 0.97818 0.38645 0.0
C933 C 0.72588 0.94764 0.37312 0.0
C934 C 0.71338 0.94177 0.34106 0.0
C935 C 0.69289 0.96652 0.32198 0.0
C936 C 0.68847 0.99743 0.33469 0.0
C937 C 0.69965 1.00316 0.36666 0.0
C938 C 0.60532 0.94603 0.49174 0.0
C939 C 0.54096 1.00026 0.41591 0.0
O940 O 0.48471 0.03556 0.49075 0.0
O941 O 0.51649 0.01054 0.53138 0.0
O942 O 0.56525 0.0591 0.46202 0.0
O943 O 0.63375 0.04132 0.48109 0.0
O944 O 0.61325 0.00846 0.53345 0.0
O945 O 0.69249 1.00717 0.507 0.0
O946 O 0.69831 0.96135 0.43857 0.0
O947 O 0.71194 0.01182 0.43204 0.0
O948 O 0.6546 0.95519 0.49311 0.0
O949 O 0.57995 0.96556 0.47379 0.0
O950 O 0.59415 1.00439 0.41752 0.0
O951 O 0.51777 0.9969 0.44416 0.0
H952 H 0.56042 0.07323 0.53063 0.0
H953 H 0.56326 0.11519 0.5704 0.0
H954 H 0.39492 0.1008 0.59005 0.0
H955 H 0.39348 0.05688 0.55157 0.0
H956 H 0.73975 0.92801 0.38786 0.0
H957 H 0.71738 0.91774 0.33164 0.0
H958 H 0.67482 0.01705 0.31995 0.0
H959 H 0.69322 0.02705 0.37593 0.0
La960 La 0.90821 0.50836 0.21064 0.0
La961 La 0.80738 0.50692 0.24162 0.0
C962 C 0.97786 0.49243 0.17097 0.0
C963 C 0.97047 0.48903 0.13621 0.0
C964 C 0.95968 0.51596 1.11713 0.0
C965 C 0.94664 0.5122 1.08509 0.0
C966 C 0.94396 0.48158 1.07152 0.0
C967 C 0.95666 0.45469 1.09001 0.0
C968 C 0.9696 0.45838 1.12224 0.0
C969 C 0.88599 0.56428 0.23562 0.0
C970 C 0.79975 0.50858 0.16407 0.0
C971 C 0.72918 0.5248 0.27545 0.0
C972 C 0.7281 0.5479 0.30194 0.0
C973 C 0.77028 0.54804 0.3239 0.0
C974 C 0.77838 0.57428 0.34347 0.0
C975 C 0.74391 0.60085 0.34223 0.0
C976 C 0.69851 0.59966 0.32256 0.0
C977 C 0.69107 0.5734 0.30207 0.0
C978 C 0.84286 0.44909 0.22572 0.0
C979 C 0.91651 0.50495 0.28742 0.0
O980 O 0.97464 0.52147 0.1827 0.0
O981 O 0.95118 0.47169 0.18808 0.0
O982 O 0.9336 0.55203 0.23273 0.0
O983 O 0.85189 0.54624 0.22154 0.0
O984 O 0.85315 0.51144 0.16657 0.0
O985 O 0.77306 0.50614 0.19156 0.0
O986 O 0.7549 0.49786 0.28009 0.0
O987 O 0.74176 0.53755 0.24805 0.0
O988 O 0.79262 0.45737 0.22509 0.0
O989 O 0.8691 0.4722 0.23675 0.0
O990 O 0.86317 0.50929 0.28508 0.0
O991 O 0.9439 0.50157 0.25998 0.0
H992 H 0.96 0.5399 1.12703 0.0
H993 H 0.9376 0.53324 1.07096 0.0
H994 H 0.95474 0.43087 1.07985 0.0
H995 H 0.97776 0.43727 0.13646 0.0
H996 H 0.79844 0.52844 0.3253 0.0
H997 H 0.81224 0.57389 0.35955 0.0
H998 H 0.67038 0.61943 0.3221 0.0
H999 H 0.65811 0.57376 0.28529 0.0
La1000 La 0.39856 0.74539 0.207 0.0
La1001 La 0.49424 0.75376 0.23635 0.0
C1002 C 0.32303 0.7424 0.16836 0.0
C1003 C 0.32608 0.74663 0.13367 0.0
C1004 C 0.31833 0.71991 1.11387 0.0
C1005 C 0.32936 0.72191 1.08139 0.0
C1006 C 0.34751 0.75077 1.06829 0.0
C1007 C 0.35324 0.77788 1.08766 0.0
C1008 C 0.34297 0.7758 1.12026 0.0
C1009 C 0.42877 0.69306 0.23787 0.0
C1010 C 0.50458 0.74897 0.15979 0.0
C1011 C 0.59009 0.74981 0.25455 0.0
C1012 C 0.62279 0.76682 0.2776 0.0
C1013 C 0.62352 0.80039 0.27835 0.0
C1014 C 0.63435 0.81584 0.30693 0.0
C1015 C 0.64149 0.79739 0.33476 0.0
C1016 C 0.65879 0.76558 0.33041 0.0
C1017 C 0.64593 0.74966 0.30249 0.0
C1018 C 0.44331 0.80956 0.23107 0.0
C1019 C 0.38956 0.75532 0.28324 0.0
O1020 O 0.3488 0.71724 0.17856 0.0
O1021 O 0.33157 0.76768 0.18621 0.0
O1022 O 0.38156 0.70555 0.23874 0.0
O1023 O 0.45859 0.71014 0.22017 0.0
O1024 O 0.4513 0.74522 0.1618 0.0
O1025 O 0.52978 0.75233 0.18727 0.0
O1026 O 0.57424 0.7668 0.23029 0.0
O1027 O 0.55117 0.73244 0.26654 0.0
O1028 O 0.47274 0.801 0.25499 0.0
O1029 O 0.44568 0.78781 0.21003 0.0
O1030 O 0.44234 0.74861 0.28126 0.0
O1031 O 0.36443 0.76014 0.25532 0.0
H1032 H 0.30552 0.69719 1.12376 0.0
H1033 H 0.32484 0.70081 1.06661 0.0
H1034 H 0.36789 0.80022 1.07781 0.0
H1035 H 0.3498 0.7967 0.13498 0.0
H1036 H 0.60913 0.81453 0.25844 0.0
H1037 H 0.62682 0.84127 0.3077 0.0
H1038 H 0.6742 0.75131 0.34969 0.0
H1039 H 0.6494 0.7238 0.30149 0.0
La1040 La 0.90552 0.75534 0.3004 0.0
La1041 La 0.80707 0.75846 0.27025 0.0
C1042 C 0.97445 0.7692 0.34085 0.0
C1043 C 0.96808 0.76442 0.37545 0.0
C1044 C 0.96134 0.73341 0.38799 0.0
C1045 C 0.94657 0.72913 0.41971 0.0
C1046 C 0.93884 0.75567 0.43959 0.0
C1047 C 0.94676 0.78663 0.42745 0.0
C1048 C 0.96134 0.79098 0.39558 0.0
C1049 C 0.88291 0.69895 0.27727 0.0
C1050 C 0.79694 0.75551 0.34689 0.0
C1051 C 0.72654 0.74288 0.23745 0.0
C1052 C 0.72246 0.72021 0.21084 0.0
C1053 C 0.76355 0.71916 0.1881 0.0
C1054 C 0.76915 0.69271 0.16852 0.0
C1055 C 0.73376 0.66668 0.17109 0.0
C1056 C 0.68931 0.66886 0.19145 0.0
C1057 C 0.68413 0.69544 0.2117 0.0
C1058 C 0.84655 0.81598 0.28474 0.0
C1059 C 0.91548 0.75765 0.2241 0.0
O1060 O 0.97718 0.74318 0.32348 0.0
O1061 O 0.94216 0.79062 0.32852 0.0
O1062 O 0.93035 0.71135 0.27943 0.0
O1063 O 0.84843 0.71753 0.29061 0.0
O1064 O 0.84986 0.75036 0.3442 0.0
O1065 O 0.77113 0.761 0.31967 0.0
O1066 O 0.75389 0.76921 0.23263 0.0
O1067 O 0.73995 0.7292 0.26421 0.0
O1068 O 0.79618 0.80847 0.28756 0.0
O1069 O 0.87053 0.79222 0.27341 0.0
O1070 O 0.86204 0.75373 0.22644 0.0
O1071 O 0.94227 0.76172 0.25149 0.0
H1072 H 0.96562 0.71239 0.3731 0.0
H1073 H 0.93944 0.70511 0.42847 0.0
H1074 H 0.9411 0.80742 0.44252 0.0
H1075 H 0.96595 0.81509 0.38642 0.0
H1076 H 0.79279 0.73816 0.18616 0.0
H1077 H 0.80222 0.69224 0.15173 0.0
H1078 H 0.66063 0.64944 0.19293 0.0
H1079 H 0.65227 0.6957 0.22928 0.0
La1080 La 0.38819 0.50981 0.30907 0.0
La1081 La 0.48316 0.4953 0.2824 0.0
C1082 C 0.31588 0.50553 0.34955 0.0
C1083 C 0.32444 0.4949 0.38281 0.0
C1084 C 0.32024 0.51698 0.4079 0.0
C1085 C 0.33279 0.50782 0.43903 0.0
C1086 C 0.35138 0.47672 0.44549 0.0
C1087 C 0.35504 0.45448 0.42059 0.0
C1088 C 0.34142 0.4634 0.38955 0.0
C1089 C 0.42555 0.56134 0.28089 0.0
C1090 C 0.49408 0.50461 0.35711 0.0
C1091 C 0.57812 0.49286 0.26404 0.0
C1092 C 0.62003 0.50183 0.24245 0.0
C1093 C 0.65283 0.47748 0.23071 0.0
C1094 C 0.67343 0.48083 0.20026 0.0
C1095 C 0.65562 0.50713 0.18204 0.0
C1096 C 0.64466 0.53556 0.19878 0.0
C1097 C 0.62161 0.53236 0.22872 0.0
C1098 C 0.43512 0.4428 0.30565 0.0
C1099 C 0.3805 0.5019 0.23232 0.0
O1100 O 0.33745 0.53301 0.3419 0.0
O1101 O 0.32316 0.48387 0.32745 0.0
O1102 O 0.37546 0.55311 0.28228 0.0
O1103 O 0.45355 0.54154 0.29714 0.0
O1104 O 0.44139 0.50987 0.35416 0.0
O1105 O 0.51943 0.49788 0.33057 0.0
O1106 O 0.54101 0.47326 0.2534 0.0
O1107 O 0.55883 0.51575 0.28183 0.0
O1108 O 0.48506 0.44963 0.30851 0.0
O1109 O 0.41411 0.46529 0.29019 0.0
O1110 O 0.43454 0.49953 0.23551 0.0
O1111 O 0.35222 0.50498 0.25949 0.0
H1112 H 0.30763 0.54139 0.40339 0.0
H1113 H 0.3297 0.52539 0.45795 0.0
H1114 H 0.36892 0.43032 0.42512 0.0
H1115 H 0.3455 0.44578 0.37077 0.0
H1116 H 0.65504 0.45438 0.24244 0.0
H1117 H 0.68839 0.45931 0.189 0.0
H1118 H 0.6388 0.55809 0.18656 0.0
H1119 H 0.60025 0.55236 0.2391 0.0
La1120 La 0.24636 0.51057 1.02521 0.0
La1121 La 0.15422 0.499 1.05319 0.0
C1122 C 0.32991 0.5203 0.99242 0.0
C1123 C 0.3452 0.55048 0.97661 0.0
C1124 C 0.33699 0.5799 0.99241 0.0
C1125 C 0.32567 0.60751 0.97488 0.0
C1126 C 0.32303 0.60576 0.94158 0.0
C1127 C 0.34326 0.57825 0.92617 0.0
C1128 C 0.3536 0.55052 0.94364 0.0
C1129 C 0.1976 0.56566 1.04339 0.0
C1130 C 0.13976 0.50571 0.97797 0.0
C1131 C 0.08308 0.49516 1.09505 0.0
C1132 C 0.09252 0.49253 1.12978 0.0
C1133 C 0.09817 0.46229 0.14423 0.0
C1134 C 0.11124 0.4598 0.17649 0.0
C1135 C 0.11929 0.48746 0.19481 0.0
C1136 C 0.11328 0.51765 0.18058 0.0
C1137 C 0.09969 0.5202 0.14841 0.0
C1138 C 0.19004 0.44559 1.0266 0.0
C1139 C 0.26034 0.50066 1.09983 0.0
O1140 O 0.3284 0.52126 1.02333 0.0
O1141 O 0.28703 0.50645 0.98113 0.0
O1142 O 0.24751 0.55911 1.04682 0.0
O1143 O 0.17687 0.54193 1.03007 0.0
O1144 O 0.19349 0.50256 0.98052 0.0
O1145 O 0.11362 0.50889 1.00575 0.0
O1146 O 0.09832 0.47072 1.078 0.0
O1147 O 0.09695 0.52219 1.08179 0.0
O1148 O 0.14176 0.45654 1.02531 0.0
O1149 O 0.21877 0.46499 1.04284 0.0
O1150 O 0.20825 0.50739 1.09698 0.0
O1151 O 0.28434 0.49504 1.07205 0.0
H1152 H 0.33253 0.58091 1.01806 0.0
H1153 H 0.3112 0.62858 0.98727 0.0
H1154 H 0.34237 0.57632 0.9004 0.0
H1155 H 0.36105 0.52831 0.93102 0.0
H1156 H 0.09306 0.44052 1.13054 0.0
H1157 H 0.11632 0.43627 0.18694 0.0
H1158 H 0.11912 0.53929 0.19439 0.0
H1159 H 0.09552 0.54383 0.13807 0.0
La1160 La 0.53564 0.2542 1.02319 0.0
La1161 La 0.63462 0.25895 1.05394 0.0
C1162 C 0.45182 0.26958 0.99291 0.0
C1163 C 0.43684 0.29896 0.97541 0.0
C1164 C 0.42458 0.29698 0.94298 0.0
C1165 C 0.42247 0.32471 0.92447 0.0
C1166 C 0.43418 0.35472 0.93788 0.0
C1167 C 0.43926 0.35717 0.97103 0.0
C1168 C 0.44028 0.32942 0.98978 0.0
C1169 C 0.57568 0.19664 1.03853 0.0
C1170 C 0.64505 0.25481 0.97751 0.0
C1171 C 0.70606 0.24784 1.09413 0.0
C1172 C 0.70041 0.24879 1.12911 0.0
C1173 C 0.69239 0.27796 0.1452 0.0
C1174 C 0.67861 0.27813 0.17744 0.0
C1175 C 0.67223 0.24921 0.19399 0.0
C1176 C 0.68293 0.22017 0.17844 0.0
C1177 C 0.69693 0.21995 0.14625 0.0
C1178 C 0.60626 0.31521 1.03096 0.0
C1179 C 0.5252 0.25541 1.09987 0.0
O1180 O 0.49039 0.25225 0.98063 0.0
O1181 O 0.45776 0.27291 1.02354 0.0
O1182 O 0.52496 0.20336 1.03776 0.0
O1183 O 0.60013 0.22076 1.02813 0.0
O1184 O 0.59158 0.25982 0.97963 0.0
O1185 O 0.67127 0.2508 1.00515 0.0
O1186 O 0.70225 0.27517 1.079 0.0
O1187 O 0.67823 0.2253 1.08029 0.0
O1188 O 0.65478 0.30418 1.03219 0.0
O1189 O 0.57459 0.29523 1.04456 0.0
O1190 O 0.57833 0.26004 1.09763 0.0
O1191 O 0.49929 0.25159 1.07244 0.0
H1192 H 0.42073 0.27386 0.9315 0.0
H1193 H 0.41747 0.3222 0.89906 0.0
H1194 H 0.44804 0.38006 0.98196 0.0
H1195 H 0.44875 0.33184 1.01499 0.0
H1196 H 0.69491 0.30062 1.13272 0.0
H1197 H 0.6707 0.3008 0.18909 0.0
H1198 H 0.6794 0.19761 0.19105 0.0
H1199 H 0.7034 0.19718 0.13448 0.0
La1200 La 0.2364 0.25253 0.99528 0.0
La1201 La 0.13652 0.2594 0.96395 0.0
C1202 C 0.31899 0.26498 1.02754 0.0
C1203 C 0.3319 0.29066 1.05045 0.0
C1204 C 0.33742 0.28301 1.08265 0.0
C1205 C 0.34344 0.30703 1.1053 0.0
C1206 C 0.34406 0.33955 1.09624 0.0
C1207 C 0.34228 0.34719 1.06363 0.0
C1208 C 0.33578 0.32296 1.04093 0.0
C1209 C 0.1951 0.19651 0.97684 0.0
C1210 C 0.12603 0.25646 1.04025 0.0
C1211 C 0.06178 0.25341 0.92477 0.0
C1212 C 0.06597 0.25188 0.88966 0.0
C1213 C 0.0651 0.2802 0.87148 0.0
C1214 C 0.078 0.2795 0.83914 0.0
C1215 C 0.09131 0.25046 0.82435 0.0
C1216 C 0.08758 0.22184 0.8417 0.0
C1217 C 0.07576 0.22256 0.87422 0.0
C1218 C 0.17023 0.31344 0.98903 0.0
C1219 C 0.24626 0.25501 0.91859 0.0
O1220 O 0.28298 0.24395 1.03637 0.0
O1221 O 0.3118 0.27415 0.99818 0.0
O1222 O 0.2459 0.20315 0.97742 0.0
O1223 O 0.17047 0.22002 0.98854 0.0
O1224 O 0.17993 0.2595 1.03846 0.0
O1225 O 0.09959 0.25302 1.01266 0.0
O1226 O 0.07496 0.28084 0.93754 0.0
O1227 O 0.08211 0.22916 0.9405 0.0
O1228 O 0.12069 0.30439 0.9877 0.0
O1229 O 0.1994 0.29338 0.97426 0.0
O1230 O 0.19254 0.25527 0.92052 0.0
O1231 O 0.27292 0.25524 0.94607 0.0
H1232 H 0.33384 0.25849 1.09043 0.0
H1233 H 0.34365 0.3 1.13017 0.0
H1234 H 0.34363 0.37186 1.05572 0.0
H1235 H 0.33189 0.32973 1.01612 0.0
H1236 H 0.05662 0.3031 0.88251 0.0
H1237 H 0.07937 0.30177 0.82589 0.0
H1238 H 0.09683 0.19911 0.83056 0.0
H1239 H 0.07588 0.20026 0.88743 0.0
La1240 La 0.55936 0.51463 0.98978 0.0
La1241 La 0.65274 0.49961 0.96161 0.0
C1242 C 0.46961 0.5196 1.01759 0.0
C1243 C 0.44372 0.50362 1.04421 0.0
C1244 C 0.42324 0.52307 1.06856 0.0
C1245 C 0.43495 0.51512 1.09995 0.0
C1246 C 0.46867 0.48882 1.10543 0.0
C1247 C 0.47246 0.46466 1.08239 0.0
C1248 C 0.4597 0.47218 1.05116 0.0
C1249 C 0.607 0.56691 0.96494 0.0
C1250 C 0.66777 0.51048 1.03598 0.0
C1251 C 0.72753 0.4934 0.92249 0.0
C1252 C 0.72078 0.48975 0.88783 0.0
C1253 C 0.70818 0.45966 0.87479 0.0
C1254 C 0.69051 0.45722 0.84341 0.0
C1255 C 0.68731 0.48457 0.82416 0.0
C1256 C 0.70324 0.5143 0.83654 0.0
C1257 C 0.7187 0.51699 0.86826 0.0
C1258 C 0.61637 0.4496 0.99423 0.0
C1259 C 0.54521 0.50428 0.9149 0.0
O1260 O 0.51197 0.5365 1.02503 0.0
O1261 O 0.47854 0.50157 0.99289 0.0
O1262 O 0.55695 0.55993 0.96282 0.0
O1263 O 0.62873 0.54467 0.98038 0.0
O1264 O 0.61359 0.50708 1.03454 0.0
O1265 O 0.69268 0.51279 1.00786 0.0
O1266 O 0.70926 0.46973 0.93964 0.0
O1267 O 0.71345 0.52118 0.93428 0.0
O1268 O 0.66556 0.45892 0.99264 0.0
O1269 O 0.58781 0.46773 0.97646 0.0
O1270 O 0.59886 0.50361 0.91686 0.0
O1271 O 0.51997 0.50568 0.94253 0.0
H1272 H 0.40863 0.54696 1.06337 0.0
H1273 H 0.42914 0.53309 1.11828 0.0
H1274 H 0.49584 0.44322 1.08679 0.0
H1275 H 0.47314 0.45609 1.0325 0.0
H1276 H 0.70934 0.43816 0.88923 0.0
H1277 H 0.67876 0.43399 0.83436 0.0
H1278 H 0.70131 0.53581 0.82215 0.0
H1279 H 0.72799 0.54052 0.8776 0.0
C1280 C 0.37585 0.84942 0.20884 0.0
C1281 C 0.42328 0.84318 0.22605 0.0
C1282 C 0.35423 0.88073 0.20652 0.0
C1283 C 0.3798 0.90738 0.22066 0.0
H1284 H 0.35416 0.82979 0.19792 0.0
H1285 H 0.31687 0.88402 0.19388 0.0
S1286 S 0.50781 0.90444 0.26595 0.0
N1287 N 0.49641 0.86676 0.25618 0.0
N1288 N 0.45747 0.92518 0.25086 0.0
C1289 C 0.42852 0.90155 0.23675 0.0
C1290 C 0.44974 0.86967 0.23972 0.0
C1291 C 0.92023 0.41034 0.22665 0.0
C1292 C 0.86465 0.4157 0.22372 0.0
C1293 C 0.94265 0.37943 0.22534 0.0
C1294 C 0.90998 0.35208 0.22244 0.0
H1295 H 0.94737 0.43039 0.23053 0.0
H1296 H 0.9854 0.37692 0.22764 0.0
S1297 S 0.7613 0.35226 0.21604 0.0
N1298 N 0.77731 0.39059 0.21799 0.0
N1299 N 0.81853 0.33244 0.21808 0.0
C1300 C 0.85412 0.35693 0.22033 0.0
C1301 C 0.83151 0.3886 0.2204 0.0
C1302 C 0.35853 0.40348 0.30796 0.0
C1303 C 0.41404 0.40923 0.30578 0.0
C1304 C 0.33753 0.37217 0.30709 0.0
C1305 C 0.37099 0.34519 0.303 0.0
H1306 H 0.33088 0.42334 0.3104 0.0
H1307 H 0.29453 0.36919 0.30899 0.0
S1308 S 0.51911 0.34699 0.29476 0.0
N1309 N 0.50216 0.38497 0.29921 0.0
N1310 N 0.46249 0.32653 0.29618 0.0
C1311 C 0.4265 0.35059 0.30047 0.0
C1312 C 0.44805 0.38242 0.30219 0.0
C1313 C 0.84459 0.8744 0.30208 0.0
C1314 C 0.87066 0.84891 0.28644 0.0
C1315 C 0.86805 0.90523 0.30394 0.0
C1316 C 0.91893 0.91169 0.29045 0.0
H1317 H 0.80554 0.87053 0.31317 0.0
H1318 H 0.8465 0.92397 0.31609 0.0
S1319 S 1.00138 0.85443 0.24377 0.0
N1320 N 0.94878 0.83333 0.25515 0.0
N1321 N 0.99245 0.8905 0.25891 0.0
C1322 C 0.94483 0.88659 0.27431 0.0
C1323 C 0.92095 0.85544 0.27221 0.0
C1324 C 0.59129 0.10578 1.0529 0.0
C1325 C 0.64697 0.1006 1.04953 0.0
C1326 C 0.56847 0.13674 1.04968 0.0
C1327 C 0.60014 0.16378 1.04215 0.0
H1328 H 0.56514 0.08576 1.05828 0.0
H1329 H 0.5256 0.13944 1.05288 0.0
S1330 S 0.74759 0.1628 1.0282 0.0
N1331 N 0.73286 0.12538 1.03733 0.0
N1332 N 0.69014 0.18238 1.02952 0.0
C1333 C 0.65568 0.15863 1.03795 0.0
C1334 C 0.67899 0.12745 1.04208 0.0
C1335 C 0.18291 0.65742 1.04088 0.0
C1336 C 0.12701 0.66216 1.04367 0.0
C1337 C 0.20572 0.62634 1.04151 0.0
C1338 C 0.17353 0.59864 1.04393 0.0
H1339 H 0.20923 0.67785 1.0383 0.0
H1340 H 0.24891 0.62401 1.0394 0.0
S1341 S 0.02534 0.5976 1.05264 0.0
N1342 N 0.0406 0.63601 1.05075 0.0
N1343 N 0.08283 0.57835 1.04909 0.0
C1344 C 0.11775 0.60313 1.04645 0.0
C1345 C 0.09474 0.63462 1.04708 0.0
C1346 C 0.70556 0.63741 0.96435 0.0
C1347 C 0.67202 0.66463 0.96272 0.0
C1348 C 0.68436 0.60605 0.96481 0.0
C1349 C 0.62872 0.60039 0.96287 0.0
H1350 H 0.74863 0.6403 0.96601 0.0
H1351 H 0.71186 0.58605 0.9668 0.0
S1352 S 0.52356 0.66321 0.9569 0.0
N1353 N 0.58024 0.68355 0.95884 0.0
N1354 N 0.54062 0.62504 0.95834 0.0
C1355 C 0.59486 0.62738 0.96042 0.0
C1356 C 0.6164 0.6593 0.96072 0.0
C1357 C 0.1173 0.15763 0.98022 0.0
C1358 C 0.17183 0.16351 0.97331 0.0
C1359 C 0.09515 0.12656 0.97817 0.0
C1360 C 0.12664 0.0998 0.96963 0.0
H1361 H 0.09154 0.17714 0.98749 0.0
H1362 H 0.05312 0.12345 0.984 0.0
S1363 S 0.26955 0.10282 0.94541 0.0
N1364 N 0.2553 0.14021 0.95475 0.0
N1365 N 0.21426 0.08203 0.95182 0.0
C1366 C 0.18078 0.10551 0.96199 0.0
C1367 C 0.20312 0.13722 0.96357 0.0
C1368 C 0.43406 0.37418 0.72802 0.0
C1369 C 0.40134 0.3474 0.72137 0.0
C1370 C 0.41275 0.40545 0.72988 0.0
C1371 C 0.35784 0.41162 0.72463 0.0
H1372 H 0.47653 0.37094 0.73245 0.0
H1373 H 0.4396 0.42493 0.7357 0.0
S1374 S 0.25571 0.35074 0.7041 0.0
N1375 N 0.31133 0.32971 0.70851 0.0
N1376 N 0.27186 0.38836 0.71103 0.0
C1377 C 0.32499 0.38525 0.71732 0.0
C1378 C 0.3465 0.35328 0.71597 0.0
C1379 C 0.96191 0.90459 0.71617 0.0
C1380 C 0.90856 0.91089 0.70692 0.0
C1381 C 0.98123 0.87281 0.71952 0.0
C1382 C 0.94762 0.84592 0.71478 0.0
H1383 H 0.98888 0.92433 0.72097 0.0
H1384 H 0.02257 0.86934 0.72663 0.0
S1385 S 0.80533 0.84912 0.68928 0.0
N1386 N 0.82344 0.88699 0.69145 0.0
N1387 N 0.85869 0.82836 0.69986 0.0
C1388 C 0.89449 0.85206 0.70552 0.0
C1389 C 0.87531 0.88415 0.70103 0.0
C1390 C 0.35969 0.90603 0.79111 0.0
C1391 C 0.41562 0.91064 0.78837 0.0
C1392 C 0.33637 0.87514 0.78977 0.0
C1393 C 0.36785 0.84745 0.78501 0.0
H1394 H 0.33358 0.92647 0.79434 0.0
H1395 H 0.29326 0.87302 0.79214 0.0
S1396 S 0.51616 0.84638 0.77475 0.0
N1397 N 0.50169 0.88451 0.78038 0.0
N1398 N 0.45829 0.82729 0.77629 0.0
C1399 C 0.42379 0.85187 0.78179 0.0
C1400 C 0.44752 0.88314 0.78387 0.0
C1401 C 0.93031 0.34793 0.79565 0.0
C1402 C 0.87405 0.34473 0.79807 0.0
C1403 C 0.95555 0.37841 0.79516 0.0
C1404 C 0.92557 0.40719 0.79605 0.0
H1405 H 0.95518 0.32666 0.79416 0.0
H1406 H 0.99881 0.37938 0.79339 0.0
S1407 S 0.77732 0.41223 0.80192 0.0
N1408 N 0.78974 0.37348 0.80267 0.0
N1409 N 0.83621 0.4298 0.79853 0.0
C1410 C 0.86945 0.40412 0.79809 0.0
C1411 C 0.84401 0.37328 0.79995 0.0
C1412 C 0.61144 0.60291 0.54508 0.0
C1413 C 0.66746 0.5981 0.54589 0.0
C1414 C 0.58889 0.6339 0.5425 0.0
C1415 C 0.62133 0.66142 0.53943 0.0
H1416 H 0.5847 0.58253 0.54653 0.0
H1417 H 0.5456 0.63621 0.5424 0.0
S1418 S 0.77028 0.66212 0.53968 0.0
N1419 N 0.75462 0.62408 0.54485 0.0
N1420 N 0.71273 0.68118 0.53591 0.0
C1421 C 0.67735 0.65677 0.5395 0.0
C1422 C 0.70023 0.6255 0.5438 0.0
C1423 C 0.1102 0.09923 0.55076 0.0
C1424 C 0.15995 0.09368 0.5358 0.0
C1425 C 0.08973 0.13065 0.55443 0.0
C1426 C 0.11847 0.15781 0.54369 0.0
H1427 H 0.08606 0.07916 0.55859 0.0
H1428 H 0.05048 0.13362 0.5652 0.0
S1429 S 0.25322 0.15617 0.50603 0.0
N1430 N 0.23891 0.11813 0.51221 0.0
N1431 N 0.20124 0.17662 0.51949 0.0
C1432 C 0.16924 0.15247 0.52996 0.0
C1433 C 0.18966 0.12061 0.5259 0.0
C1434 C 0.71438 0.13517 0.46954 0.0
C1435 C 0.6814 0.16172 0.47663 0.0
C1436 C 0.69293 0.10397 0.46613 0.0
C1437 C 0.63737 0.09813 0.46871 0.0
H1438 H 0.75735 0.1384 0.46693 0.0
H1439 H 0.71991 0.0843 0.46125 0.0
S1440 S 0.53356 0.15878 0.48881 0.0
N1441 N 0.59029 0.17911 0.48838 0.0
N1442 N 0.55002 0.12166 0.47954 0.0
C1443 C 0.60398 0.12447 0.47562 0.0
C1444 C 0.62591 0.15589 0.48019 0.0
C1445 C 0.19724 0.6319 0.47903 0.0
C1446 C 0.16824 0.65872 0.46786 0.0
C1447 C 0.174 0.60104 0.48061 0.0
C1448 C 0.12089 0.59544 0.47056 0.0
H1449 H 0.23819 0.6348 0.48697 0.0
H1450 H 0.19785 0.58146 0.48989 0.0
S1451 S 0.02967 0.65643 0.43576 0.0
N1452 N 0.08447 0.67672 0.44468 0.0
N1453 N 0.04138 0.61918 0.44686 0.0
C1454 C 0.09203 0.62184 0.45849 0.0
C1455 C 0.11545 0.65328 0.45737 0.0
C1456 C 0.26184 0.10518 0.34695 0.0
C1457 C 0.21076 0.0931 0.35532 0.0
C1458 C 0.30149 0.10966 0.37012 0.0
C1459 C 0.29032 0.10335 0.40225 0.0
H1460 H 0.27436 0.10612 0.32231 0.0
H1461 H 0.34248 0.11369 0.36246 0.0
S1462 S 0.15787 0.08335 0.43719 0.0
N1463 N 0.14716 0.08446 0.39838 0.0
N1464 N 0.2215 0.09295 0.44201 0.0
C1465 C 0.23666 0.09811 0.4113 0.0
C1466 C 0.19657 0.09322 0.38772 0.0
C1467 C 0.0315 0.13692 0.37153 0.0
C1468 C 0.04418 0.14348 0.40347 0.0
C1469 C 0.06648 0.14638 0.34718 0.0
C1470 C 0.11475 0.16229 0.35432 0.0
H1471 H 0.99111 0.12993 0.3652 0.0
H1472 H 0.05018 0.14735 0.32336 0.0
S1473 S 0.17601 0.17055 0.43374 0.0
N1474 N 0.11532 0.15666 0.44091 0.0
N1475 N 0.1816 0.17301 0.39459 0.0
C1476 C 0.13315 0.16116 0.38576 0.0
C1477 C 0.0973 0.15229 0.41067 0.0
C1478 C 0.35975 0.35892 0.15154 0.0
C1479 C 0.33628 0.36417 1.12143 0.0
C1480 C 0.33209 0.36728 0.17939 0.0
C1481 C 0.2803 0.38053 0.17739 0.0
H1482 H 0.39513 0.34395 0.1537 0.0
H1483 H 0.34641 0.35754 0.20177 0.0
S1484 S 0.21932 0.41699 1.10638 0.0
N1485 N 0.27084 0.39643 1.09232 0.0
N1486 N 0.22018 0.41235 0.1454 0.0
C1487 C 0.26508 0.39426 0.14847 0.0
C1488 C 0.29246 0.3855 1.11994 0.0
C1489 C 1.019 0.12418 0.15132 0.0
C1490 C 0.06753 0.10826 0.14481 0.0
C1491 C 0.98679 0.13519 1.1262 0.0
C1492 C 1.00203 0.12899 1.09444 0.0
H1493 H 1.00188 0.12335 0.1751 0.0
H1494 H 0.94577 0.14192 1.13154 0.0
S1495 S 0.13723 0.10373 1.06717 0.0
N1496 N 0.138 0.09846 1.10622 0.0
N1497 N 0.07805 0.11948 1.05897 0.0
C1498 C 0.05653 0.12182 1.08869 0.0
C1499 C 0.08904 0.11043 1.11411 0.0
C1500 C 0.75356 0.95957 0.88014 0.0
C1501 C 0.76726 0.98727 0.89681 0.0
C1502 C 0.70888 0.95931 0.86038 0.0
C1503 C 0.67633 0.98687 0.85668 0.0
H1504 H 0.77846 0.93838 0.8815 0.0
H1505 H 0.70287 0.93803 0.84611 0.0
S1506 S 0.68612 0.06164 0.90367 0.0
N1507 N 0.73837 0.0401 0.91482 0.0
N1508 N 0.65444 0.03979 0.87686 0.0
C1509 C 0.6862 0.01331 0.87633 0.0
C1510 C 0.7317 0.01353 0.89652 0.0
C1511 C 0.05663 0.64968 0.93677 0.0
C1512 C 1.00846 0.63342 0.92953 0.0
C1513 C 0.08841 0.66233 0.91236 0.0
C1514 C 0.07454 0.65732 0.88038 0.0
H1515 H 0.0645 0.65797 0.9608 0.0
H1516 H 0.1197 0.67927 0.91847 0.0
S1517 S 0.96721 0.604 0.85043 0.0
N1518 N 0.95938 0.60383 0.88953 0.0
N1519 N 1.02 0.62687 0.84328 0.0
C1520 C 0.03447 0.63473 0.87343 0.0
C1521 C 1.00172 0.62224 0.89836 0.0
C1522 C 0.74753 0.63603 1.09294 0.0
C1523 C 0.8038 0.63267 1.09435 0.0
C1524 C 0.71768 0.63897 1.12109 0.0
C1525 C 0.74411 0.63876 0.15057 0.0
H1526 H 0.72809 0.64245 1.07074 0.0
H1527 H 0.67699 0.64798 1.11943 0.0
S1528 S 0.88379 0.61312 0.16556 0.0
N1529 N 0.87955 0.61604 1.1264 0.0
N1530 N 0.82317 0.62123 0.17938 0.0
C1531 C 0.79608 0.6257 0.15172 0.0
C1532 C 0.82662 0.62313 1.12325 0.0
C1533 C 0.29385 0.63489 0.89348 0.0
C1534 C 0.28138 0.62401 0.9243 0.0
C1535 C 0.25893 0.62847 0.86816 0.0
C1536 C 0.211 0.61135 0.8734 0.0
H1537 H 0.33437 0.64248 0.88796 0.0
H1538 H 0.27418 0.6318 0.84426 0.0
S1539 S 0.15051 0.59219 0.95176 0.0
N1540 N 0.21015 0.60702 0.96026 0.0
N1541 N 0.14503 0.59436 0.91257 0.0
C1542 C 0.19266 0.60827 0.90492 0.0
C1543 C 0.22788 0.61519 0.93066 0.0
C1544 C 0.2267 0.64615 0.59579 0.0
C1545 C 0.27829 0.63261 0.59574 0.0
C1546 C 0.19677 0.64718 0.6239 0.0
C1547 C 0.21751 0.63392 0.65219 0.0
H1548 H 0.21345 0.66065 0.57584 0.0
H1549 H 0.16218 0.66291 0.62441 0.0
S1550 S 0.33877 0.58391 0.65943 0.0
N1551 N 0.34216 0.59895 0.62312 0.0
N1552 N 0.28087 0.59585 0.67452 0.0
C1553 C 0.26115 0.61268 0.64942 0.0
C1554 C 0.29389 0.61386 0.62162 0.0
C1555 C 0.99905 0.62877 0.63169 0.0
C1556 C 1.00943 0.62139 0.59953 0.0
C1557 C 0.0339 0.61792 0.65559 0.0
C1558 C 0.07979 0.59992 0.64758 0.0
H1559 H 0.9597 0.6373 0.63866 0.0
H1560 H 1.02037 0.61918 0.68012 0.0
S1561 S 0.13626 0.58854 0.56671 0.0
N1562 N 0.07848 0.60692 0.56089 0.0
N1563 N 0.14208 0.58469 0.60573 0.0
C1564 C 0.09635 0.59946 0.61564 0.0
C1565 C 0.06179 0.61138 0.59147 0.0
C1566 C 0.72696 0.62696 0.39333 0.0
C1567 C 0.755 0.62756 0.36431 0.0
C1568 C 0.75519 0.62921 0.42213 0.0
C1569 C 0.81167 0.6315 0.42188 0.0
H1570 H 0.68592 0.61842 0.39406 0.0
H1571 H 0.73424 0.62252 0.4438 0.0
S1572 S 0.896 0.65233 0.35261 0.0
N1573 N 0.83608 0.64511 0.33743 0.0
N1574 N 0.88954 0.64828 0.39162 0.0
C1575 C 0.83633 0.64163 0.39365 0.0
C1576 C 0.80742 0.63998 0.36448 0.0
C1577 C 0.8645 0.366 0.65118 0.0
C1578 C 0.84183 0.36956 0.62061 0.0
C1579 C 0.83435 0.37369 0.67835 0.0
C1580 C 0.78134 0.38474 0.675 0.0
H1581 H 0.90071 0.35196 0.65425 0.0
H1582 H 0.8481 0.36463 0.70115 0.0
S1583 S 0.72058 0.41745 0.60232 0.0
N1584 N 0.77526 0.399 0.58964 0.0
N1585 N 0.71998 0.41384 0.64143 0.0
C1586 C 0.76683 0.3979 0.64571 0.0
C1587 C 0.79673 0.38975 0.61789 0.0
C1588 C 0.51514 0.37965 0.91565 0.0
C1589 C 0.45867 0.37898 0.91672 0.0
C1590 C 0.54239 0.38666 0.88732 0.0
C1591 C 0.5133 0.38879 0.85884 0.0
H1592 H 0.53829 0.3691 0.93468 0.0
H1593 H 0.58504 0.38161 0.88649 0.0
S1594 S 0.36769 0.40341 0.85159 0.0
N1595 N 0.37635 0.39336 0.88939 0.0
N1596 N 0.42822 0.40423 0.83543 0.0
C1597 C 0.45876 0.39722 0.8613 0.0
C1598 C 0.43066 0.39107 0.89036 0.0
C1599 C 0.55864 0.13621 0.65635 0.0
C1600 C 0.55116 0.10965 0.67631 0.0
C1601 C 0.52881 0.1392 0.62805 0.0
C1602 C 0.49171 0.11537 0.61886 0.0
H1603 H 0.59036 0.15318 0.66125 0.0
H1604 H 0.53917 0.15825 0.61163 0.0
S1605 S 0.46037 0.04084 0.66345 0.0
N1606 N 0.5029 0.06028 0.68619 0.0
N1607 N 0.44969 0.06461 0.63284 0.0
C1608 C 0.48134 0.0901 0.64024 0.0
C1609 C 0.51063 0.08752 0.66899 0.0
C1610 C 0.58979 0.83772 0.36745 0.0
C1611 C 0.60817 0.80588 0.36331 0.0
C1612 C 0.544 0.8447 0.38556 0.0
C1613 C 0.5154 0.82017 0.40064 0.0
H1614 H 0.60973 0.8576 0.35579 0.0
H1615 H 0.53072 0.86925 0.38762 0.0
S1616 S 0.55623 0.7347 0.40783 0.0
N1617 N 0.60012 0.75089 0.38348 0.0
N1618 N 0.51545 0.76424 0.41695 0.0
C1619 C 0.53685 0.78899 0.40011 0.0
C1620 C 0.5832 0.78182 0.38194 0.0
C1621 C 0.58186 0.47247 0.16137 0.0
C1622 C 0.61506 0.49973 0.15745 0.0
C1623 C 0.53358 0.46964 0.14531 0.0
C1624 C 0.51651 0.49378 1.12476 0.0
H1625 H 0.59109 0.45369 0.17826 0.0
H1626 H 0.50947 0.44846 0.14915 0.0
S1627 S 0.59399 0.56567 1.09972 0.0
N1628 N 0.63139 0.54844 1.12724 0.0
N1629 N 0.5402 0.54291 1.09642 0.0
C1630 C 0.55098 0.51981 1.11837 0.0
C1631 C 0.60034 0.52273 0.13477 0.0
C1632 C 0.45199 0.9983 1.01566 0.0
C1633 C 0.42651 0.01713 1.03893 0.0
C1634 C 0.43083 0.9959 0.98482 0.0
C1635 C 0.38321 0.01195 0.97653 0.0
H1636 H 0.48818 0.98515 1.02146 0.0
H1637 H 0.45186 0.98147 0.96734 0.0
S1638 S 0.29913 0.06201 1.02984 0.0
N1639 N 0.35047 0.05107 1.05219 0.0
N1640 N 0.30982 0.04577 0.99449 0.0
C1641 C 0.35724 0.03061 0.99973 0.0
C1642 C 0.37916 0.03343 1.0309 0.0
C1643 C 0.84236 0.25676 1.01732 0.0
C1644 C 0.87037 0.24073 1.04157 0.0
C1645 C 0.86188 0.25718 0.98603 0.0
C1646 C 0.9095 0.24113 0.97772 0.0
H1647 H 0.80497 0.26894 1.02254 0.0
H1648 H 0.83911 0.26984 0.96807 0.0
S1649 S 1.00277 0.20103 1.03366 0.0
N1650 N 0.95158 0.212 1.05616 0.0
N1651 N 0.98775 0.2124 0.99702 0.0
C1652 C 0.93901 0.2261 1.00199 0.0
C1653 C 0.9194 0.22586 1.03395 0.0
C1654 C 0.36414 0.2263 0.48668 0.0
C1655 C 0.40952 0.24413 0.47789 0.0
C1656 C 0.34282 0.22841 0.51743 0.0
C1657 C 0.36692 0.24769 0.5408 0.0
H1658 H 0.34468 0.21083 0.46951 0.0
H1659 H 0.30731 0.2147 0.5231 0.0
S1660 S 0.4886 0.29792 0.52992 0.0
N1661 N 0.47859 0.28142 0.49466 0.0
N1662 N 0.43993 0.28449 0.5531 0.0
C1663 C 0.41252 0.26574 0.53225 0.0
C1664 C 0.43368 0.26398 0.50069 0.0
C1665 C 0.88735 0.05535 0.48928 0.0
C1666 C 0.86065 0.02766 0.47896 0.0
C1667 C 0.91 0.05698 0.51974 0.0
C1668 C 0.90446 0.03156 0.54163 0.0
H1669 H 0.89308 0.07534 0.47319 0.0
H1670 H 0.93323 0.07802 0.5257 0.0
S1671 S 0.82393 0.95759 0.52854 0.0
N1672 N 0.82155 0.97673 0.49415 0.0
N1673 N 0.86071 0.98024 0.55218 0.0
C1674 C 0.87317 1.00492 0.53235 0.0
C1675 C 0.85158 1.00302 0.501 0.0
C1676 C 0.59847 0.96946 0.25191 0.0
C1677 C 0.63081 0.95933 0.22644 0.0
C1678 C 0.61818 0.96958 0.28308 0.0
C1679 C 0.6713 0.96043 0.28975 0.0
H1680 H 0.55819 0.97819 0.24755 0.0
H1681 H 0.59224 0.97788 0.30207 0.0
S1682 S 0.77095 0.93004 0.23154 0.0
N1683 N 0.71711 0.93783 0.20988 0.0
N1684 N 0.75485 0.93911 0.26872 0.0
C1685 C 0.70327 0.94878 0.26473 0.0
C1686 C 0.68286 0.94813 0.23293 0.0
C1687 C 0.13879 0.79423 0.23304 0.0
C1688 C 0.17934 0.77341 0.22231 0.0
C1689 C 0.12001 0.7929 0.2645 0.0
C1690 C 0.14092 0.77063 0.28637 0.0
H1691 H 0.12039 0.81113 0.21678 0.0
H1692 H 0.0882 0.80906 0.27163 0.0
S1693 S 0.24942 0.71175 0.27044 0.0
N1694 N 0.24134 0.73072 0.23623 0.0
N1695 N 0.20565 0.72788 0.29529 0.0
C1696 C 0.18186 0.74984 0.27599 0.0
C1697 C 0.2012 0.75134 0.24401 0.0
C1698 C 0.61616 0.74372 0.76507 0.0
C1699 C 0.6381 0.76552 0.78691 0.0
C1700 C 0.63846 0.74005 0.73471 0.0
C1701 C 0.68347 0.75804 0.72525 0.0
H1702 H 0.58119 0.72965 0.7714 0.0
H1703 H 0.61934 0.72371 0.71822 0.0
S1704 S 0.75803 0.81662 0.77458 0.0
N1705 N 0.70846 0.80435 0.79774 0.0
N1706 N 0.75091 0.79705 0.74064 0.0
C1707 C 0.70633 0.7795 0.7471 0.0
C1708 C 0.68342 0.7834 0.77794 0.0
C1709 C 0.12009 1.0073 0.77763 0.0
C1710 C 0.16294 0.98783 0.78786 0.0
C1711 C 0.10228 1.0067 0.74596 0.0
C1712 C 0.12649 0.98642 0.72348 0.0
H1713 H 0.09972 0.02288 0.79431 0.0
H1714 H 0.06905 0.02193 0.73907 0.0
S1715 S 0.24269 0.93278 0.73696 0.0
N1716 N 0.23143 0.94939 0.77205 0.0
N1717 N 0.19685 0.94767 0.71273 0.0
C1718 C 0.16973 0.96719 0.73308 0.0
C1719 C 0.18826 0.96803 0.76522 0.0
C1720 C 0.35349 0.47177 0.53532 0.0
C1721 C 0.40763 0.46522 0.54162 0.0
C1722 C 0.33471 0.47393 0.50398 0.0
C1723 C 0.36929 0.4685 0.47805 0.0
H1724 H 0.32616 0.47668 0.55478 0.0
H1725 H 0.2934 0.48094 0.49996 0.0
S1726 S 0.51223 0.44407 0.48264 0.0
N1727 N 0.49405 0.44941 0.52019 0.0
N1728 N 0.45844 0.45181 0.46093 0.0
C1729 C 0.42235 0.45876 0.48424 0.0
C1730 C 0.44168 0.45744 0.51621 0.0
C1731 C 0.8571 0.76299 0.51525 0.0
C1732 C 0.88486 0.7429 0.5365 0.0
C1733 C 0.87471 0.76691 0.4838 0.0
C1734 C 0.92077 0.751 0.47273 0.0
H1735 H 0.82179 0.77594 0.52309 0.0
H1736 H 0.8522 0.78248 0.46805 0.0
S1737 S 1.00789 0.69607 0.51887 0.0
N1738 N 0.9602 0.70662 0.54419 0.0
N1739 N 0.99405 0.71482 0.48522 0.0
C1740 C 0.94846 0.73057 0.49357 0.0
C1741 C 0.93024 0.72626 0.52545 0.0
C1742 C 0.42919 0.73456 0.99461 0.0
C1743 C 0.40698 0.7559 0.97235 0.0
C1744 C 0.40852 0.73245 1.02548 0.0
C1745 C 0.36543 0.75185 1.03505 0.0
H1746 H 0.46334 0.71982 0.98828 0.0
H1747 H 0.4272 0.71615 1.04225 0.0
S1748 S 0.29008 0.80944 0.98516 0.0
N1749 N 0.33707 0.7951 0.96127 0.0
N1750 N 0.29917 0.79163 1.01993 0.0
C1751 C 0.34212 0.77281 1.01299 0.0
C1752 C 0.36276 0.77475 0.98143 0.0
C1753 C 0.85546 0.49225 0.99977 0.0
C1754 C 0.88893 0.48282 0.9745 0.0
C1755 C 0.87267 0.4896 1.03133 0.0
C1756 C 0.92418 0.47826 1.03864 0.0
H1757 H 0.81616 0.50228 0.99504 0.0
H1758 H 0.84609 0.4971 1.05026 0.0
S1759 S 0.02446 0.44677 0.98152 0.0
N1760 N 0.97381 0.4585 0.95895 0.0
N1761 N 1.00654 0.45451 1.0187 0.0
C1762 C 0.95683 0.46692 1.01387 0.0
C1763 C 0.93909 0.4691 0.98161 0.0
C1764 C 0.69227 0.49913 0.76683 0.0
C1765 C 0.66576 0.48273 0.79149 0.0
C1766 C 0.67023 0.5007 0.73637 0.0
C1767 C 0.62172 0.48534 0.72926 0.0
H1768 H 0.72999 0.51123 0.77123 0.0
H1769 H 0.69112 0.51409 0.71813 0.0
S1770 S 0.53495 0.44069 0.78544 0.0
N1771 N 0.5868 0.45206 0.80716 0.0
N1772 N 0.54675 0.45399 0.749 0.0
C1773 C 0.59491 0.46853 0.75341 0.0
C1774 C 0.61678 0.46736 0.78474 0.0
C1775 C 0.09189 0.23056 0.76814 0.0
C1776 C 0.11394 0.2503 0.79182 0.0
C1777 C 0.11388 0.22979 0.73738 0.0
C1778 C 0.15904 0.24846 0.72945 0.0
H1779 H 0.05678 0.21614 0.77328 0.0
H1780 H 0.09424 0.21535 0.71942 0.0
S1781 S 0.23503 0.30131 0.78426 0.0
N1782 N 0.1851 0.28736 0.80613 0.0
N1783 N 0.22767 0.28498 0.74869 0.0
C1784 C 0.18262 0.26729 0.7534 0.0
C1785 C 0.15969 0.26851 0.78447 0.0
C1786 C 0.67818 0.26816 0.25024 0.0
C1787 C 0.65241 0.24934 0.22713 0.0
C1788 C 0.65994 0.26856 0.28181 0.0
C1789 C 0.61541 0.25015 0.2912 0.0
H1790 H 0.71315 0.28224 0.24397 0.0
H1791 H 0.68154 0.28281 0.29913 0.0
S1792 S 0.53117 0.19926 0.23904 0.0
N1793 N 0.57828 0.21347 0.21518 0.0
N1794 N 0.54395 0.21428 0.27466 0.0
C1795 C 0.58855 0.23185 0.26816 0.0
C1796 C 0.60711 0.23141 0.23606 0.0
C1797 C 0.18208 0.50085 0.23902 0.0
C1798 C 0.13571 0.48492 0.22853 0.0
C1799 C 0.19864 0.49893 0.27084 0.0
C1800 C 0.16915 0.48108 0.29322 0.0
H1801 H 0.20564 0.51489 0.22246 0.0
H1802 H 0.23455 0.5116 0.27804 0.0
S1803 S 0.04208 0.43751 0.27841 0.0
N1804 N 0.05902 0.45218 0.24321 0.0
N1805 N 0.08973 0.44884 0.30327 0.0
C1806 C 0.12234 0.46534 0.28313 0.0
C1807 C 0.10566 0.46721 0.2507 0.0
C1808 C 0.3623 0.1369 0.28953 0.0
C1809 C 0.32798 0.15828 0.27352 0.0
C1810 C 0.36539 0.10441 0.28114 0.0
C1811 C 0.33435 0.09139 0.25626 0.0
H1812 H 0.38976 0.14581 0.30748 0.0
H1813 H 0.39478 0.08966 0.29325 0.0
S1814 S 0.23349 0.13615 0.20893 0.0
N1815 N 0.25871 0.16347 0.2332 0.0
N1816 N 0.26409 0.10208 0.21757 0.0
C1817 C 0.29664 0.1118 0.2416 0.0
C1818 C 0.29366 0.14529 0.25015 0.0
C1819 C 0.8889 0.11283 0.24978 0.0
C1820 C 0.93491 0.0965 0.26045 0.0
C1821 C 0.88963 0.14524 0.24226 0.0
C1822 C 0.93655 0.16381 0.24445 0.0
H1823 H 0.85053 0.10081 0.24807 0.0
H1824 H 0.85173 0.15597 0.23543 0.0
S1825 S 0.07189 0.13097 0.26121 0.0
N1826 N 0.03163 0.09997 0.26667 0.0
N1827 N 0.03332 0.16174 0.25158 0.0
C1828 C 0.98455 0.1474 0.25178 0.0
C1829 C 0.98365 0.11367 0.26002 0.0
C1830 C 0.69237 0.87414 0.9729 0.0
C1831 C 0.71305 0.851 0.99397 0.0
C1832 C 0.68951 0.90673 0.98141 0.0
C1833 C 0.70741 0.91781 1.01131 0.0
H1834 H 0.6745 0.86667 0.95057 0.0
H1835 H 0.66973 0.92314 0.96519 0.0
S1836 S 0.7681 0.86737 1.07446 0.0
N1837 N 0.75426 0.84176 1.04556 0.0
N1838 N 0.74966 0.90304 1.06131 0.0
C1839 C 0.73159 0.89532 1.03177 0.0
C1840 C 0.73405 0.86193 1.02319 0.0
C1841 C 0.09226 0.87005 1.03725 0.0
C1842 C 0.07731 0.84758 1.01396 0.0
C1843 C 0.09271 0.90306 1.03057 0.0
C1844 C 0.07769 0.91504 1.00047 0.0
H1845 H 0.10773 0.86191 1.06 0.0
H1846 H 0.10844 0.91921 1.04849 0.0
S1847 S 0.03202 0.8663 0.93184 0.0
N1848 N 0.04471 0.83965 0.96003 0.0
N1849 N 0.04438 0.90177 0.94772 0.0
C1850 C 0.0591 0.89302 0.97765 0.0
C1851 C 0.05935 0.85925 0.98434 0.0
C1852 C 0.32388 0.64281 0.77532 0.0
C1853 C 0.36153 0.66452 0.76251 0.0
C1854 C 0.32343 0.61008 0.76586 0.0
C1855 C 0.35987 0.59815 0.74292 0.0
H1856 H 0.29693 0.6507 0.79393 0.0
H1857 H 0.29699 0.59364 0.77803 0.0
S1858 S 0.45974 0.64668 0.69824 0.0
N1859 N 0.43105 0.67246 0.7227 0.0
N1860 N 0.43061 0.61196 0.70546 0.0
C1861 C 0.39486 0.62035 0.72853 0.0
C1862 C 0.39534 0.65323 0.73806 0.0
C1863 C 1.00113 0.64388 0.76256 0.0
C1864 C 0.96482 0.65764 0.7406 0.0
C1865 C 1.00028 0.61048 0.76941 0.0
C1866 C 0.96169 0.59016 0.75548 0.0
H1867 H 0.02788 0.6592 0.77598 0.0
H1868 H 0.02726 0.60097 0.78718 0.0
S1869 S 0.86818 0.61275 0.69041 0.0
N1870 N 0.89754 0.64674 0.70031 0.0
N1871 N 0.89463 0.58522 0.71387 0.0
C1872 C 0.92983 0.60316 0.73099 0.0
C1873 C 0.9314 0.63659 0.7236 0.0
C1874 C 0.72542 0.364 0.49198 0.0
C1875 C 0.68571 0.34357 0.50478 0.0
C1876 C 0.7282 0.39679 0.50094 0.0
C1877 C 0.69151 0.40999 0.52301 0.0
H1878 H 0.7521 0.35522 0.47354 0.0
H1879 H 0.75675 0.41224 0.48902 0.0
S1880 S 0.58585 0.3652 0.56693 0.0
N1881 N 0.61405 0.33813 0.54368 0.0
N1882 N 0.61796 0.39891 0.5595 0.0
C1883 C 0.65436 0.38904 0.53737 0.0
C1884 C 0.65195 0.35607 0.52861 0.0
C1885 C 0.05473 0.35518 0.49273 0.0
C1886 C 0.07057 0.34412 0.52313 0.0
C1887 C 0.05469 0.38827 0.48506 0.0
C1888 C 0.07146 0.41142 0.50738 0.0
H1889 H 0.046 0.33805 0.47406 0.0
H1890 H 0.04593 0.39544 0.46078 0.0
S1891 S 0.11378 0.39518 0.59065 0.0
N1892 N 0.10022 0.35937 0.57601 0.0
N1893 N 0.10121 0.42086 0.56163 0.0
C1894 C 0.0845 0.40067 0.53825 0.0
C1895 C 0.08388 0.36725 0.54611 0.0
C1896 C 0.81072 0.11405 0.72926 0.0
C1897 C 0.82211 0.09127 0.75315 0.0
C1898 C 0.80783 0.14723 0.7363 0.0
C1899 C 0.81508 0.159 0.76758 0.0
H1900 H 0.80884 0.10656 0.70455 0.0
H1901 H 0.80383 0.16398 0.71671 0.0
S1902 S 0.84215 0.10914 0.839 0.0
N1903 N 0.83798 0.08293 0.80959 0.0
N1904 N 0.83122 0.14462 0.82278 0.0
C1905 C 0.82281 0.13621 0.79189 0.0
C1906 C 0.82659 0.10261 0.78468 0.0
C1907 C 0.43519 0.13814 0.72935 0.0
C1908 C 0.45303 0.16179 0.75077 0.0
C1909 C 0.42984 0.1059 0.73875 0.0
C1910 C 0.44257 0.09567 0.76981 0.0
H1911 H 0.42122 0.14501 0.70585 0.0
H1912 H 0.41328 0.08903 0.72195 0.0
S1913 S 0.49464 0.14744 0.83448 0.0
N1914 N 0.48584 0.17228 0.80421 0.0
N1915 N 0.47741 0.11154 0.82143 0.0
C1916 C 0.46394 0.11856 0.79085 0.0
C1917 C 0.46868 0.15161 0.78143 0.0
C1918 C 0.19616 0.86742 0.46943 0.0
C1919 C 0.22085 0.8452 0.48997 0.0
C1920 C 0.19246 0.90005 0.47739 0.0
C1921 C 0.21372 0.91205 0.50608 0.0
H1922 H 0.17554 0.85907 0.44829 0.0
H1923 H 0.16967 0.91571 0.46183 0.0
S1924 S 0.28646 0.86443 0.56689 0.0
N1925 N 0.26983 0.83788 0.53939 0.0
N1926 N 0.2642 0.89941 0.55397 0.0
C1927 C 0.24227 0.89062 0.52568 0.0
C1928 C 0.2454 0.85714 0.51773 0.0
C1929 C 0.63681 0.85807 0.49159 0.0
C1930 C 0.60503 0.84524 0.51619 0.0
C1931 C 0.63127 0.88979 0.48119 0.0
C1932 C 0.59469 0.91101 0.4956 0.0
H1933 H 0.6687 0.8439 0.4814 0.0
H1934 H 0.65903 0.89849 0.46325 0.0
S1935 S 0.50089 0.89 0.56112 0.0
N1936 N 0.53374 0.85627 0.55424 0.0
N1937 N 0.52477 0.91666 0.53559 0.0
C1938 C 0.5611 0.89848 0.51965 0.0
C1939 C 0.56609 0.86556 0.52988 0.0
C1940 C 0.92655 0.61485 0.25508 0.0
C1941 C 0.87935 0.5981 0.24741 0.0
C1942 C 0.92581 0.64673 0.265 0.0
C1943 C 0.87775 0.66419 0.2684 0.0
H1944 H 0.96543 0.60345 0.25298 0.0
H1945 H 0.96424 0.65776 0.26991 0.0
S1946 S 0.74186 0.63159 0.25354 0.0
N1947 N 0.78208 0.60122 0.24535 0.0
N1948 N 0.7807 0.6617 0.26442 0.0
C1949 C 0.82962 0.64777 0.26181 0.0
C1950 C 0.8304 0.6147 0.25141 0.0
C1951 C 0.40774 0.61937 0.28904 0.0
C1952 C 0.43931 0.59556 0.27447 0.0
C1953 C 0.40804 0.65115 0.27816 0.0
C1954 C 0.43984 0.66086 0.25208 0.0
H1955 H 0.38015 0.61299 0.308 0.0
H1956 H 0.38094 0.66805 0.28944 0.0
S1957 S 0.53287 0.60848 0.20676 0.0
N1958 N 0.50556 0.58427 0.23347 0.0
N1959 N 0.50691 0.64434 0.2133 0.0
C1960 C 0.47438 0.63787 0.23849 0.0
C1961 C 0.47381 0.60516 0.24957 0.0
C1962 C 0.23251 0.39672 1.00078 0.0
C1963 C 0.19746 0.41024 1.02358 0.0
C1964 C 0.22706 0.36431 0.991 0.0
C1965 C 0.18615 0.34465 1.00363 0.0
H1966 H 0.26154 0.41179 0.98876 0.0
H1967 H 0.25242 0.35538 0.97198 0.0
S1968 S 0.08905 0.36731 1.06695 0.0
N1969 N 0.12363 0.40028 1.06017 0.0
N1970 N 0.11497 0.34009 1.04297 0.0
C1971 C 0.15409 0.35732 1.02819 0.0
C1972 C 0.15919 0.38992 1.03778 0.0
C1973 C 0.56541 0.36313 1.00242 0.0
C1974 C 0.59755 0.35064 1.02709 0.0
C1975 C 0.56665 0.39613 0.99394 0.0
C1976 C 0.60297 0.41741 1.00832 0.0
H1977 H 0.54253 0.34674 0.98804 0.0
H1978 H 0.54204 0.40475 0.97461 0.0
S1979 S 0.69393 0.39748 1.07563 0.0
N1980 N 0.66346 0.36333 1.06763 0.0
N1981 N 0.66926 0.42382 1.05021 0.0
C1982 C 0.63383 0.40539 1.03385 0.0
C1983 C 0.63075 0.37242 1.04334 0.0
C1984 C 0.19803 0.01731 1.13122 0.0
C1985 C 0.25135 1.00467 0.13447 0.0
C1986 C 0.16793 0.01806 1.10134 0.0
C1987 C 0.188 1.00627 1.07152 0.0
H1988 H 0.17895 0.02718 0.15224 0.0
H1989 H 0.12813 0.02839 1.10168 0.0
S1990 S 0.32065 0.96531 1.06587 0.0
N1991 N 0.31902 0.97675 1.10358 0.0
N1992 N 0.26456 0.97824 1.04952 0.0
C1993 C 0.24045 0.99277 1.07468 0.0
C1994 C 0.27103 0.99198 1.105 0.0
C1995 C 0.11456 0.24504 1.10272 0.0
C1996 C 0.09417 0.25746 1.07335 0.0
C1997 C 0.08467 0.24513 1.13257 0.0
C1998 C 0.03144 0.25765 0.13605 0.0
H1999 H 0.1543 0.23458 1.10273 0.0
H2000 H 0.10383 0.23485 0.15334 0.0
S2001 S 0.96182 0.29881 1.06879 0.0
N2002 N 1.01783 0.28614 1.05195 0.0
N2003 N 0.96353 0.28646 1.10623 0.0
C2004 C 1.01148 0.27112 1.10709 0.0
C2005 C 0.04187 0.271 1.07675 0.0
C2006 C 0.26419 0.23713 0.41314 0.0
C2007 C 0.24596 0.25189 0.38434 0.0
C2008 C 0.23442 0.23781 0.44303 0.0
C2009 C 0.18297 0.25257 0.44694 0.0
H2010 H 0.30194 0.22434 0.41263 0.0
H2011 H 0.25135 0.22541 0.46332 0.0
S2012 S 0.12449 0.30427 0.38355 0.0
N2013 N 0.1773 0.28847 0.36554 0.0
N2014 N 0.12221 0.28835 0.41959 0.0
C2015 C 0.16613 0.26917 0.41901 0.0
C2016 C 0.19686 0.26909 0.38876 0.0
C2017 C 0.08694 0.98556 0.38427 0.0
C2018 C 0.04011 1.00466 0.37863 0.0
C2019 C 0.11755 0.9858 0.4139 0.0
C2020 C 0.10385 1.00468 0.44124 0.0
H2021 H 0.10019 0.9697 0.36548 0.0
H2022 H 0.15232 0.97033 0.41544 0.0
S2023 S 0.98982 0.06242 0.43936 0.0
N2024 N 0.98578 0.04539 0.40396 0.0
N2025 N 0.04016 0.04507 0.45819 0.0
C2026 C 0.0574 0.02401 0.4358 0.0
C2027 C 0.02686 0.02416 0.40546 0.0
C2028 C 0.78656 0.00831 0.1935 0.0
C2029 C 0.84298 1.00224 0.19526 0.0
C2030 C 0.75617 0.00848 0.16395 0.0
C2031 C 0.77926 1.00251 0.13327 0.0
H2032 H 0.76506 0.01332 0.21545 0.0
H2033 H 0.71387 0.01382 0.16526 0.0
S2034 S 0.924 0.9813 1.12335 0.0
N2035 N 0.91892 0.98784 0.16207 0.0
N2036 N 0.86365 0.98763 1.10834 0.0
C2037 C 0.83535 0.9956 0.13487 0.0
C2038 C 0.86625 0.9956 0.16488 0.0
C2039 C 0.95258 0.76985 1.13136 0.0
C2040 C 1.00548 0.75712 1.127 0.0
C2041 C 0.92404 0.76978 0.16166 0.0
C2042 C 0.94584 0.75726 0.19063 0.0
H2043 H 0.93261 0.7803 1.11097 0.0
H2044 H 0.88425 0.7802 0.16234 0.0
S2045 S 0.0769 0.7149 0.19301 0.0
N2046 N 0.07381 0.72732 0.1556 0.0
N2047 N 0.02228 0.72819 0.21082 0.0
C2048 C 0.99763 0.7436 0.18641 0.0
C2049 C 0.02643 0.74327 0.15557 0.0
C2050 C 0.80548 0.75117 0.82126 0.0
C2051 C 0.86207 0.75691 0.81922 0.0
C2052 C 0.77456 0.75267 0.85072 0.0
C2053 C 0.79704 0.76014 0.88122 0.0
H2054 H 0.78428 0.74508 0.79959 0.0
H2055 H 0.73203 0.74769 0.84941 0.0
S2056 S 0.94289 0.77873 0.89091 0.0
N2057 N 0.938 0.77115 0.85237 0.0
N2058 N 0.8819 0.77442 0.9058 0.0
C2059 C 0.85351 0.76621 0.87945 0.0
C2060 C 0.88496 0.76447 0.84951 0.0
C2061 C 0.99309 0.02021 0.82572 0.0
C2062 C 0.94777 1.00043 0.81861 0.0
C2063 C 1.02101 0.02032 0.85619 0.0
C2064 C 1.00609 1.00088 0.88289 0.0
H2065 H 1.00727 0.03638 0.80737 0.0
H2066 H 0.05472 0.0364 0.85887 0.0
S2067 S 0.89727 0.93992 0.87687 0.0
N2068 N 0.89433 0.95783 0.84176 0.0
N2069 N 0.94478 0.95825 0.89732 0.0
C2070 C 0.96176 0.98038 0.87587 0.0
C2071 C 0.93354 0.98013 0.84475 0.0
C2072 C 0.19548 0.49207 0.63358 0.0
C2073 C 0.24868 0.50469 0.63657 0.0
C2074 C 0.16412 0.49264 0.60425 0.0
C2075 C 0.18296 0.50581 0.57478 0.0
H2076 H 0.17771 0.48091 0.65433 0.0
H2077 H 0.1245 0.48206 0.60475 0.0
S2078 S 0.31718 0.54475 0.56793 0.0
N2079 N 0.31683 0.53177 0.60518 0.0
N2080 N 0.25923 0.53386 0.55239 0.0
C2081 C 0.23572 0.51884 0.5775 0.0
C2082 C 0.26774 0.51799 0.60721 0.0
C2083 C 0.05711 0.75493 0.57279 0.0
C2084 C 0.11412 0.75244 0.56924 0.0
C2085 C 0.02911 0.75478 0.6033 0.0
C2086 C 0.05532 0.75325 0.63364 0.0
H2087 H 0.03316 0.75727 0.55144 0.0
H2088 H 0.98577 0.75631 0.60292 0.0
S2089 S 0.20486 0.74916 0.63994 0.0
N2090 N 0.19516 0.74933 0.601 0.0
N2091 N 0.14472 0.75109 0.65647 0.0
C2092 C 0.11251 0.75182 0.63045 0.0
C2093 C 0.14086 0.75103 0.59934 0.0
C2094 C 0.27271 0.74111 0.90602 0.0
C2095 C 0.25399 0.75533 0.87701 0.0
C2096 C 0.24225 0.74072 0.93571 0.0
C2097 C 0.18981 0.75435 0.93947 0.0
H2098 H 0.3118 0.72982 0.90595 0.0
H2099 H 0.26046 0.72927 0.95618 0.0
S2100 S 0.12396 0.79985 0.87376 0.0
N2101 N 0.1795 0.78669 0.85661 0.0
N2102 N 0.12424 0.78572 0.91055 0.0
C2103 C 0.17124 0.76932 0.91095 0.0
C2104 C 0.20227 0.76985 0.88075 0.0
C2105 C 0.05796 0.51944 0.93855 0.0
C2106 C 0.10888 0.50453 0.9443 0.0
C2107 C 0.02937 0.51813 0.90824 0.0
C2108 C 0.04854 0.50167 0.88044 0.0
H2109 H 0.03951 0.53264 0.9579 0.0
H2110 H 0.99132 0.53053 0.90667 0.0
S2111 S 0.17528 0.45381 0.88247 0.0
N2112 N 0.17375 0.47 0.91839 0.0
N2113 N 0.12153 0.46711 0.86357 0.0
C2114 C 0.09864 0.48592 0.8862 0.0
C2115 C 0.12788 0.48745 0.91698 0.0
C2116 C 0.7714 0.5085 0.66198 0.0
C2117 C 0.79188 0.49811 0.63179 0.0
C2118 C 0.80246 0.50874 0.69138 0.0
C2119 C 0.85712 0.49857 0.6938 0.0
H2120 H 0.73046 0.51706 0.663 0.0
H2121 H 0.78329 0.51763 0.71275 0.0
S2122 S 0.93164 0.46665 0.62326 0.0
N2123 N 0.87238 0.47558 0.60803 0.0
N2124 N 0.92884 0.47644 0.66141 0.0
C2125 C 0.87799 0.4878 0.66387 0.0
C2126 C 0.84637 0.48742 0.63393 0.0
C2127 C 0.93655 0.24287 0.63519 0.0
C2128 C 0.98938 0.25584 0.63165 0.0
C2129 C 0.90667 0.2426 0.66505 0.0
C2130 C 0.9269 0.25505 0.69445 0.0
H2131 H 0.91788 0.23217 0.6145 0.0
H2132 H 0.86712 0.2319 0.66505 0.0
S2133 S 0.05801 0.29753 0.69887 0.0
N2134 N 0.05664 0.28518 0.66143 0.0
N2135 N 1.0025 0.28429 0.7158 0.0
C2136 C 0.97886 0.26895 0.69102 0.0
C2137 C 1.00911 0.2694 0.66062 0.0
C2138 C 0.76246 0.24996 0.35815 0.0
C2139 C 0.78651 0.25745 0.38826 0.0
C2140 C 0.79098 0.25057 0.32779 0.0
C2141 C 0.84656 0.25865 0.32434 0.0
H2142 H 0.72052 0.24323 0.35786 0.0
H2143 H 0.76877 0.24423 0.30656 0.0
S2144 S 0.92907 0.28477 0.39384 0.0
N2145 N 0.87061 0.27635 0.41054 0.0
N2146 N 0.92249 0.27687 0.35545 0.0
C2147 C 0.87076 0.26684 0.35411 0.0
C2148 C 0.8417 0.26643 0.38499 0.0
C2149 C 0.92228 0.491 0.34967 0.0
C2150 C 0.94572 0.50412 0.32133 0.0
C2151 C 0.94909 0.49006 0.38051 0.0
C2152 C 1.00178 0.50245 0.3862 0.0
H2153 H 0.88246 0.48084 0.34806 0.0
H2154 H 0.92782 0.47919 0.40028 0.0
S2155 S 0.07726 0.54599 0.3225 0.0
N2156 N 0.0236 0.53337 0.30335 0.0
N2157 N 0.07192 0.53264 0.3595 0.0
C2158 C 0.02444 0.51688 0.35828 0.0
C2159 C 0.9974 0.51743 0.32687 0.0
C2160 C 0.7838 0.02038 0.60082 0.0
C2161 C 0.76311 0.00928 0.63067 0.0
C2162 C 0.75342 0.02048 0.57116 0.0
C2163 C 0.69931 0.0094 0.56822 0.0
H2164 H 0.82435 0.02951 0.60029 0.0
H2165 H 0.77279 0.02986 0.55005 0.0
S2166 S 0.62367 0.97706 0.63804 0.0
N2167 N 0.68253 0.98612 0.65367 0.0
N2168 N 0.62718 0.98696 0.59995 0.0
C2169 C 0.67791 0.99859 0.59793 0.0
C2170 C 0.70886 0.9983 0.62806 0.0
C2171 C 0.58486 0.26581 0.63348 0.0
C2172 C 0.53392 0.2504 0.63731 0.0
C2173 C 0.61526 0.26636 0.6038 0.0
C2174 C 0.59797 0.25131 0.57494 0.0
H2175 H 0.60151 0.27826 0.6538 0.0
H2176 H 0.653 0.27918 0.60357 0.0
S2177 S 0.4721 0.20292 0.57155 0.0
N2178 N 0.47105 0.21707 0.60835 0.0
N2179 N 0.52672 0.21749 0.55458 0.0
C2180 C 0.5479 0.23498 0.57874 0.0
C2181 C 0.51675 0.2347 0.60885 0.0
C2182 C 0.7624 0.24834 0.91142 0.0
C2183 C 0.73778 0.25078 0.88069 0.0
C2184 C 0.73296 0.24926 0.94143 0.0
C2185 C 0.67613 0.25341 0.94399 0.0
H2186 H 0.80549 0.24532 0.91248 0.0
H2187 H 0.75533 0.24645 0.96328 0.0
S2188 S 0.58934 0.25988 0.87182 0.0
N2189 N 0.65001 0.2565 0.85626 0.0
N2190 N 0.59698 0.25895 0.91092 0.0
C2191 C 0.65095 0.25565 0.91349 0.0
C2192 C 0.68071 0.25424 0.88287 0.0
C2193 C 0.56622 0.98334 0.89326 0.0
C2194 C 0.52497 1.00569 0.8848 0.0
C2195 C 0.59698 0.98434 0.92285 0.0
C2196 C 0.58885 1.00741 0.94761 0.0
H2197 H 0.57501 0.96426 0.87669 0.0
H2198 H 0.62763 0.96632 0.92634 0.0
S2199 S 0.48329 0.07057 0.94095 0.0
N2200 N 0.47729 0.05131 0.90671 0.0
N2201 N 0.53166 0.05244 0.96093 0.0
C2202 C 0.546 0.02901 0.9402 0.0
C2203 C 0.51536 0.02831 0.9098 0.0
C2204 C 0.29768 0.9737 0.64887 0.0
C2205 C 0.28592 1.00146 0.63009 0.0
C2206 C 0.32578 0.97459 0.67931 0.0
C2207 C 0.34355 1.00338 0.6945 0.0
H2208 H 0.28575 0.95056 0.63969 0.0
H2209 H 0.33379 0.95206 0.69111 0.0
S2210 S 0.31898 0.08382 0.6583 0.0
N2211 N 0.29421 0.05924 0.63119 0.0
N2212 N 0.34142 0.06102 0.68762 0.0
C2213 C 0.33002 0.03133 0.67651 0.0
C2214 C 0.30319 0.03035 0.64504 0.0
C2215 C 0.43016 0.73953 0.66368 0.0
C2216 C 0.44764 0.75506 0.69219 0.0
C2217 C 0.46087 0.73912 0.63419 0.0
C2218 C 0.51195 0.75428 0.63014 0.0
H2219 H 0.3921 0.72706 0.66408 0.0
H2220 H 0.44414 0.72631 0.61414 0.0
S2221 S 0.57502 0.80193 0.69532 0.0
N2222 N 0.52003 0.78806 0.71243 0.0
N2223 N 0.57559 0.78752 0.65863 0.0
C2224 C 0.52944 0.77032 0.65832 0.0
C2225 C 0.49831 0.77064 0.68839 0.0
C2226 C 0.30618 0.77012 0.32097 0.0
C2227 C 0.35788 0.75571 0.31656 0.0
C2228 C 0.27651 0.76977 0.35095 0.0
C2229 C 0.29583 0.75528 0.37968 0.0
H2230 H 0.28787 0.78199 0.30078 0.0
H2231 H 0.23774 0.78145 0.35155 0.0
S2232 S 0.42562 0.71072 0.38204 0.0
N2233 N 0.42419 0.7244 0.34509 0.0
N2234 N 0.37026 0.72367 0.39944 0.0
C2235 C 0.34695 0.74036 0.3754 0.0
C2236 C 0.37703 0.74065 0.34493 0.0
C2237 C 0.45544 0.9864 0.3796 0.0
C2238 C 0.50756 1.00051 0.3831 0.0
C2239 C 0.42462 0.98655 0.35005 0.0
C2240 C 0.44274 1.00082 0.32089 0.0
H2241 H 0.43788 0.97466 0.40013 0.0
H2242 H 0.3859 0.97483 0.35013 0.0
S2243 S 0.57075 0.04697 0.31682 0.0
N2244 N 0.57134 0.03298 0.3537 0.0
N2245 N 0.51562 0.03303 0.30006 0.0
C2246 C 0.49382 0.01597 0.32439 0.0
C2247 C 0.5251 0.01589 0.35444 0.0
C2248 C 0.69189 0.48905 1.09449 0.0
C2249 C 0.70217 0.51007 1.06839 0.0
C2250 C 0.72442 0.48768 1.12327 0.0
C2251 C 0.76872 0.50838 1.1302 0.0
H2252 H 0.6583 0.47277 1.09267 0.0
H2253 H 0.71481 0.4692 0.14017 0.0
S2254 S 0.82329 0.5626 1.06718 0.0
N2255 N 0.76888 0.5481 1.05007 0.0
N2256 N 0.82596 0.54686 1.10334 0.0
C2257 C 0.78173 0.52799 1.10328 0.0
C2258 C 0.7497 0.52866 1.07336 0.0
C2259 C 0.5457 0.7485 1.06653 0.0
C2260 C 0.6028 0.7526 1.06517 0.0
C2261 C 0.51477 0.74714 1.096 0.0
C2262 C 0.53788 0.74993 1.12708 0.0
H2263 H 0.52413 0.74622 1.04429 0.0
H2264 H 0.47177 0.74395 1.09422 0.0
S2265 S 0.68512 0.76282 0.13858 0.0
N2266 N 0.67973 0.76035 1.09944 0.0
N2267 N 0.62396 0.75816 0.15302 0.0
C2268 C 0.59489 0.75435 1.12593 0.0
C2269 C 0.62622 0.75555 1.09599 0.0
C2270 C 0.72579 0.72764 0.42948 0.0
C2271 C 0.69815 0.75501 0.44216 0.0
C2272 C 0.75747 0.72784 0.4001 0.0
C2273 C 0.76576 0.75562 0.38059 0.0
H2274 H 0.72254 0.70523 0.44233 0.0
H2275 H 0.7753 0.70552 0.39242 0.0
S2276 S 0.71213 0.83561 0.40434 0.0
N2277 N 0.68765 0.81181 0.43229 0.0
N2278 N 0.74668 0.81247 0.37983 0.0
C2279 C 0.74042 0.78336 0.39374 0.0
C2280 C 0.70745 0.78301 0.42326 0.0
C2281 C 0.58151 0.49546 0.39142 0.0
C2282 C 0.52679 0.5058 0.38965 0.0
C2283 C 0.61347 0.49629 0.42021 0.0
C2284 C 0.59387 0.50749 0.45011 0.0
H2285 H 0.6004 0.48633 0.37006 0.0
H2286 H 0.65439 0.48757 0.41889 0.0
S2287 S 0.45545 0.54036 0.4599 0.0
N2288 N 0.4566 0.52966 0.42195 0.0
N2289 N 0.51484 0.53105 0.47463 0.0
C2290 C 0.53956 0.51847 0.44864 0.0
C2291 C 0.50698 0.51766 0.41925 0.0
C2292 C 0.30647 0.5219 0.19016 0.0
C2293 C 0.35065 0.50142 0.19816 0.0
C2294 C 0.27821 0.52138 0.15966 0.0
C2295 C 0.29129 0.50044 0.13367 0.0
H2296 H 0.29337 0.5391 0.20784 0.0
H2297 H 0.24558 0.53817 0.15639 0.0
S2298 S 0.39544 0.43689 0.1428 0.0
N2299 N 0.40004 0.4563 0.17698 0.0
N2300 N 0.34936 0.45555 1.12146 0.0
C2301 C 0.33417 0.47912 0.14177 0.0
C2302 C 0.36275 0.47958 0.17291 0.0
C2303 C 0.48445 0.26878 0.19239 0.0
C2304 C 0.43242 0.25484 0.19684 0.0
C2305 C 0.51354 0.26883 0.16219 0.0
C2306 C 0.49371 0.25477 0.13336 0.0
H2307 H 0.50332 0.28017 0.21267 0.0
H2308 H 0.5524 0.28036 0.16155 0.0
S2309 S 0.36474 0.20911 1.13207 0.0
N2310 N 0.36631 0.22317 0.16885 0.0
N2311 N 0.41932 0.22266 1.11414 0.0
C2312 C 0.44265 0.2397 0.13791 0.0
C2313 C 0.41296 0.2399 0.16856 0.0
C2314 C 0.35603 0.27208 0.85019 0.0
C2315 C 0.33999 0.25477 0.82238 0.0
C2316 C 0.32616 0.27206 0.88 0.0
C2317 C 0.27749 0.25479 0.88521 0.0
H2318 H 0.39208 0.2864 0.84893 0.0
H2319 H 0.34098 0.28647 0.89937 0.0
S2320 S 0.21936 0.20186 0.82251 0.0
N2321 N 0.27191 0.21755 0.80428 0.0
N2322 N 0.21774 0.21764 0.85865 0.0
C2323 C 0.26142 0.23697 0.8578 0.0
C2324 C 0.29178 0.2369 0.8274 0.0
C2325 C 0.45812 0.49251 0.87979 0.0
C2326 C 0.51211 0.50413 0.88209 0.0
C2327 C 0.42637 0.49294 0.85067 0.0
C2328 C 0.44535 0.50507 0.82081 0.0
H2329 H 0.43967 0.48262 0.901 0.0
H2330 H 0.38615 0.48322 0.85169 0.0
S2331 S 0.5795 0.54388 0.81309 0.0
N2332 N 0.57943 0.53167 0.85061 0.0
N2333 N 0.52194 0.53216 0.79759 0.0
C2334 C 0.49864 0.51751 0.82296 0.0
C2335 C 0.53092 0.51713 0.85261 0.0
loop_
_geom_bond_atom_site_label_1
_geom_bond_atom_site_label_2
_geom_bond_distance
_geom_bond_site_symmetry_2
_ccdc_geom_bond_type
La0 C2 2.928 1_554 S
La0 O20 2.521 . S
La0 O21 2.628 1_545 S
La0 O22 2.554 . S
La0 O23 2.757 . S
La0 O24 2.470 . S
La0 O29 2.482 1_545 S
La0 O31 2.503 . S
La1 C11 2.927 1_565 S
La1 O23 2.458 1_565 S
La1 O25 2.498 1_565 S
La1 O26 2.533 . S
La1 O27 2.615 1_565 S
La1 O28 2.584 . S
La1 O29 2.770 . S
La1 O30 2.476 . S
C2 La0 2.928 1_556 S
C2 C3 1.503 . S
C2 O20 1.261 1_556 S
C2 O21 1.243 1_546 S
C3 C2 1.503 . S
C3 C4 1.394 . S
C3 C8 1.373 1_545 S
C4 C3 1.394 . S
C4 C5 1.380 . S
C4 H32 0.930 . S
C5 C4 1.380 . S
C5 C6 1.376 . S
C5 H33 0.930 . S
C6 C5 1.376 . S
C6 C7 1.370 1_545 S
C7 C6 1.370 1_565 S
C7 C8 1.396 . S
C7 H34 0.929 . S
C8 C3 1.373 1_565 S
C8 C7 1.396 . S
C8 H35 0.929 . S
C9 O22 1.240 . S
C9 O23 1.289 . S
C10 O24 1.258 . S
C10 O25 1.256 . S
C11 La1 2.927 1_545 S
C11 C12 1.501 1_545 S
C11 O26 1.232 1_545 S
C11 O27 1.273 . S
C12 C11 1.501 1_565 S
C12 C13 1.419 . S
C12 C17 1.350 1_565 S
C13 C12 1.419 . S
C13 C14 1.380 . S
C13 H36 0.930 . S
C14 C13 1.380 . S
C14 C15 1.376 . S
C14 H37 0.930 . S
C15 C14 1.376 . S
C15 C16 1.370 1_565 S
C16 C15 1.370 1_545 S
C16 C17 1.396 . S
C16 H38 0.929 . S
C17 C12 1.350 1_545 S
C17 C16 1.396 . S
C17 H39 0.929 . S
C18 O28 1.240 . S
C18 O29 1.289 . S
C19 O30 1.259 1_545 S
C19 O31 1.256 . S
O20 La0 2.521 . S
O20 C2 1.261 1_554 S
O21 La0 2.628 1_565 S
O21 C2 1.243 1_564 S
O22 La0 2.554 . S
O22 C9 1.240 . S
O23 La0 2.757 . S
O23 La1 2.458 1_545 S
O23 C9 1.289 . S
O24 La0 2.470 . S
O24 C10 1.258 . S
O25 La1 2.498 1_545 S
O25 C10 1.256 . S
O26 La1 2.533 . S
O26 C11 1.232 1_565 S
O27 La1 2.615 1_545 S
O27 C11 1.273 . S
O28 La1 2.584 . S
O28 C18 1.240 . S
O29 La0 2.482 1_565 S
O29 La1 2.770 . S
O29 C18 1.289 . S
O30 La1 2.476 . S
O30 C19 1.259 1_565 S
O31 La0 2.503 . S
O31 C19 1.256 . S
H32 C4 0.930 . S
H33 C5 0.930 . S
H34 C7 0.929 . S
H35 C8 0.929 . S
H36 C13 0.930 . S
H37 C14 0.930 . S
H38 C16 0.929 . S
H39 C17 0.929 . S
La40 C42 2.928 1_554 S
La40 O60 2.521 . S
La40 O61 2.628 . S
La40 O62 2.554 . S
La40 O63 2.757 . S
La40 O64 2.470 . S
La40 O69 2.482 . S
La40 O71 2.503 . S
La41 C51 2.928 . S
La41 O63 2.482 . S
La41 O65 2.503 . S
La41 O66 2.521 . S
La41 O67 2.628 . S
La41 O68 2.554 . S
La41 O69 2.757 . S
La41 O70 2.470 . S
C42 La40 2.928 1_556 S
C42 C43 1.503 . S
C42 O60 1.261 1_556 S
C42 O61 1.243 1_556 S
C43 C42 1.503 . S
C43 C44 1.394 . S
C43 C48 1.373 . S
C44 C43 1.394 . S
C44 C45 1.380 . S
C44 H72 0.930 . S
C45 C44 1.380 . S
C45 C46 1.376 . S
C45 H73 0.930 . S
C46 C45 1.376 . S
C46 C47 1.370 . S
C47 C46 1.370 . S
C47 C48 1.396 . S
C47 H74 0.929 . S
C48 C43 1.373 . S
C48 C47 1.396 . S
C48 H75 0.929 . S
C49 O62 1.240 . S
C49 O63 1.289 . S
C50 O64 1.258 . S
C50 O65 1.256 . S
C51 La41 2.928 . S
C51 C52 1.503 . S
C51 O66 1.261 . S
C51 O67 1.243 . S
C52 C51 1.503 . S
C52 C53 1.394 . S
C52 C57 1.373 . S
C53 C52 1.394 . S
C53 C54 1.383 . S
C53 H76 0.927 1_655 S
C54 C53 1.383 . S
C54 C55 1.380 . S
C54 H77 0.924 1_655 S
C55 C54 1.380 . S
C55 C56 1.370 . S
C56 C55 1.370 . S
C56 C57 1.396 . S
C56 H78 0.929 . S
C57 C52 1.373 . S
C57 C56 1.396 . S
C57 H79 0.929 . S
C58 O68 1.240 . S
C58 O69 1.289 . S
C59 O70 1.258 . S
C59 O71 1.256 . S
O60 La40 2.521 . S
O60 C42 1.261 1_554 S
O61 La40 2.628 . S
O61 C42 1.243 1_554 S
O62 La40 2.554 . S
O62 C49 1.240 . S
O63 La40 2.757 . S
O63 La41 2.482 . S
O63 C49 1.289 . S
O64 La40 2.470 . S
O64 C50 1.258 . S
O65 La41 2.503 . S
O65 C50 1.256 . S
O66 La41 2.521 . S
O66 C51 1.261 . S
O67 La41 2.628 . S
O67 C51 1.243 . S
O68 La41 2.554 . S
O68 C58 1.240 . S
O69 La40 2.482 . S
O69 La41 2.757 . S
O69 C58 1.289 . S
O70 La41 2.470 . S
O70 C59 1.258 . S
O71 La40 2.503 . S
O71 C59 1.256 . S
H72 C44 0.930 . S
H73 C45 0.930 . S
H74 C47 0.929 . S
H75 C48 0.929 . S
H76 C53 0.927 1_455 S
H77 C54 0.924 1_455 S
H78 C56 0.929 . S
H79 C57 0.929 . S
La80 C82 2.928 . S
La80 O100 2.521 . S
La80 O101 2.628 . S
La80 O102 2.554 . S
La80 O103 2.757 . S
La80 O104 2.470 . S
La80 O109 2.482 . S
La80 O111 2.503 . S
La81 C91 2.928 . S
La81 O103 2.482 . S
La81 O105 2.503 . S
La81 O106 2.521 . S
La81 O107 2.628 . S
La81 O108 2.554 . S
La81 O109 2.757 . S
La81 O110 2.470 . S
C82 La80 2.928 . S
C82 C83 1.503 . S
C82 O100 1.261 . S
C82 O101 1.243 . S
C83 C82 1.503 . S
C83 C84 1.394 . S
C83 C88 1.373 . S
C84 C83 1.394 . S
C84 C85 1.380 . S
C84 H112 0.930 . S
C85 C84 1.380 . S
C85 C86 1.376 . S
C85 H113 0.930 . S
C86 C85 1.376 . S
C86 C87 1.370 . S
C87 C86 1.370 . S
C87 C88 1.396 . S
C87 H114 0.929 . S
C88 C83 1.373 . S
C88 C87 1.396 . S
C88 H115 0.929 . S
C89 O102 1.240 . S
C89 O103 1.289 . S
C90 O104 1.258 . S
C90 O105 1.256 . S
C91 La81 2.928 . S
C91 C92 1.503 . S
C91 O106 1.261 . S
C91 O107 1.243 . S
C92 C91 1.503 . S
C92 C93 1.394 . S
C92 C97 1.373 . S
C93 C92 1.394 . S
C93 C94 1.380 . S
C93 H116 0.930 . S
C94 C93 1.380 . S
C94 C95 1.376 . S
C94 H117 0.930 . S
C95 C94 1.376 . S
C95 C96 1.370 . S
C96 C95 1.370 . S
C96 C97 1.396 . S
C96 H118 0.929 . S
C97 C92 1.373 . S
C97 C96 1.396 . S
C97 H119 0.929 . S
C98 O108 1.240 . S
C98 O109 1.289 . S
C99 O110 1.258 . S
C99 O111 1.256 . S
O100 La80 2.521 . S
O100 C82 1.261 . S
O101 La80 2.628 . S
O101 C82 1.243 . S
O102 La80 2.554 . S
O102 C89 1.240 . S
O103 La80 2.757 . S
O103 La81 2.482 . S
O103 C89 1.289 . S
O104 La80 2.470 . S
O104 C90 1.258 . S
O105 La81 2.503 . S
O105 C90 1.256 . S
O106 La81 2.521 . S
O106 C91 1.261 . S
O107 La81 2.628 . S
O107 C91 1.243 . S
O108 La81 2.554 . S
O108 C98 1.240 . S
O109 La80 2.482 . S
O109 La81 2.757 . S
O109 C98 1.289 . S
O110 La81 2.470 . S
O110 C99 1.258 . S
O111 La80 2.503 . S
O111 C99 1.256 . S
H112 C84 0.930 . S
H113 C85 0.930 . S
H114 C87 0.929 . S
H115 C88 0.929 . S
H116 C93 0.930 . S
H117 C94 0.930 . S
H118 C96 0.929 . S
H119 C97 0.929 . S
La120 C122 2.928 . S
La120 O140 2.521 . S
La120 O141 2.628 1_545 S
La120 O142 2.554 . S
La120 O143 2.757 . S
La120 O144 2.470 . S
La120 O149 2.482 1_545 S
La120 O151 2.503 . S
La121 C131 2.927 1_565 S
La121 O143 2.457 1_565 S
La121 O145 2.498 1_565 S
La121 O146 2.533 . S
La121 O147 2.614 1_565 S
La121 O148 2.585 . S
La121 O149 2.770 . S
La121 O150 2.476 . S
C122 La120 2.928 . S
C122 C123 1.503 . S
C122 O140 1.261 . S
C122 O141 1.243 1_545 S
C123 C122 1.503 . S
C123 C124 1.394 . S
C123 C128 1.373 1_545 S
C124 C123 1.394 . S
C124 C125 1.380 . S
C124 H152 0.930 . S
C125 C124 1.380 . S
C125 C126 1.376 . S
C125 H153 0.930 . S
C126 C125 1.376 . S
C126 C127 1.370 1_545 S
C127 C126 1.370 1_565 S
C127 C128 1.396 . S
C127 H154 0.929 . S
C128 C123 1.373 1_565 S
C128 C127 1.396 . S
C128 H155 0.929 . S
C129 O142 1.240 . S
C129 O143 1.289 . S
C130 O144 1.258 . S
C130 O145 1.256 . S
C131 La121 2.927 1_545 S
C131 C132 1.501 1_545 S
C131 O146 1.232 1_545 S
C131 O147 1.273 . S
C132 C131 1.501 1_565 S
C132 C133 1.419 . S
C132 C137 1.350 1_565 S
C133 C132 1.419 . S
C133 C134 1.383 . S
C133 H156 0.927 1_655 S
C134 C133 1.383 . S
C134 C135 1.380 . S
C134 H157 0.924 1_655 S
C135 C134 1.380 . S
C135 C136 1.370 1_565 S
C136 C135 1.370 1_545 S
C136 C137 1.396 . S
C136 H158 0.929 . S
C137 C132 1.350 1_545 S
C137 C136 1.396 . S
C137 H159 0.929 . S
C138 O148 1.240 . S
C138 O149 1.289 . S
C139 O150 1.259 1_545 S
C139 O151 1.255 . S
O140 La120 2.521 . S
O140 C122 1.261 . S
O141 La120 2.628 1_565 S
O141 C122 1.243 1_565 S
O142 La120 2.554 . S
O142 C129 1.240 . S
O143 La120 2.757 . S
O143 La121 2.457 1_545 S
O143 C129 1.289 . S
O144 La120 2.470 . S
O144 C130 1.258 . S
O145 La121 2.498 1_545 S
O145 C130 1.256 . S
O146 La121 2.533 . S
O146 C131 1.232 1_565 S
O147 La121 2.614 1_545 S
O147 C131 1.273 . S
O148 La121 2.585 . S
O148 C138 1.240 . S
O149 La120 2.482 1_565 S
O149 La121 2.770 . S
O149 C138 1.289 . S
O150 La121 2.476 . S
O150 C139 1.259 1_565 S
O151 La120 2.503 . S
O151 C139 1.255 . S
H152 C124 0.930 . S
H153 C125 0.930 . S
H154 C127 0.929 . S
H155 C128 0.929 . S
H156 C133 0.927 1_455 S
H157 C134 0.924 1_455 S
H158 C136 0.929 . S
H159 C137 0.929 . S
La160 C162 2.927 1_545 S
La160 O180 2.533 . S
La160 O181 2.615 1_545 S
La160 O182 2.584 . S
La160 O183 2.770 . S
La160 O184 2.476 . S
La160 O189 2.458 1_545 S
La160 O191 2.498 1_545 S
La161 C171 2.928 1_556 S
La161 O183 2.482 1_565 S
La161 O185 2.503 . S
La161 O186 2.521 . S
La161 O187 2.628 1_565 S
La161 O188 2.554 . S
La161 O189 2.757 . S
La161 O190 2.470 . S
C162 La160 2.927 1_565 S
C162 C163 1.501 1_565 S
C162 O180 1.232 1_565 S
C162 O181 1.273 . S
C163 C162 1.501 1_545 S
C163 C164 1.419 . S
C163 C168 1.350 1_545 S
C164 C163 1.419 . S
C164 C165 1.380 . S
C164 H192 0.930 . S
C165 C164 1.380 . S
C165 C166 1.376 . S
C165 H193 0.930 . S
C166 C165 1.376 . S
C166 C167 1.370 1_545 S
C167 C166 1.370 1_565 S
C167 C168 1.396 . S
C167 H194 0.929 . S
C168 C163 1.350 1_565 S
C168 C167 1.396 . S
C168 H195 0.929 . S
C169 O182 1.240 . S
C169 O183 1.289 . S
C170 O184 1.259 1_565 S
C170 O185 1.256 . S
C171 La161 2.928 1_554 S
C171 C172 1.503 . S
C171 O186 1.261 1_554 S
C171 O187 1.243 1_564 S
C172 C171 1.503 . S
C172 C173 1.394 . S
C172 C177 1.373 1_565 S
C173 C172 1.394 . S
C173 C174 1.380 . S
C173 H196 0.930 . S
C174 C173 1.380 . S
C174 C175 1.376 . S
C174 H197 0.930 . S
C175 C174 1.376 . S
C175 C176 1.370 1_565 S
C176 C175 1.370 1_545 S
C176 C177 1.396 . S
C176 H198 0.929 . S
C177 C172 1.373 1_545 S
C177 C176 1.396 . S
C177 H199 0.929 . S
C178 O188 1.240 . S
C178 O189 1.289 . S
C179 O190 1.258 . S
C179 O191 1.256 . S
O180 La160 2.533 . S
O180 C162 1.232 1_545 S
O181 La160 2.615 1_565 S
O181 C162 1.273 . S
O182 La160 2.584 . S
O182 C169 1.240 . S
O183 La160 2.770 . S
O183 La161 2.482 1_545 S
O183 C169 1.289 . S
O184 La160 2.476 . S
O184 C170 1.259 1_545 S
O185 La161 2.503 . S
O185 C170 1.256 . S
O186 La161 2.521 . S
O186 C171 1.261 1_556 S
O187 La161 2.628 1_545 S
O187 C171 1.243 1_546 S
O188 La161 2.554 . S
O188 C178 1.240 . S
O189 La160 2.458 1_565 S
O189 La161 2.757 . S
O189 C178 1.289 . S
O190 La161 2.470 . S
O190 C179 1.258 . S
O191 La160 2.498 1_565 S
O191 C179 1.256 . S
H192 C164 0.930 . S
H193 C165 0.930 . S
H194 C167 0.929 . S
H195 C168 0.929 . S
H196 C173 0.930 . S
H197 C174 0.930 . S
H198 C176 0.929 . S
H199 C177 0.929 . S
La200 C202 2.928 . S
La200 O220 2.521 . S
La200 O221 2.628 . S
La200 O222 2.554 . S
La200 O223 2.757 . S
La200 O224 2.470 . S
La200 O229 2.482 . S
La200 O231 2.503 . S
La201 C211 2.928 1_556 S
La201 O223 2.482 . S
La201 O225 2.503 . S
La201 O226 2.521 . S
La201 O227 2.628 . S
La201 O228 2.554 . S
La201 O229 2.757 . S
La201 O230 2.470 . S
C202 La200 2.928 . S
C202 C203 1.503 . S
C202 O220 1.261 . S
C202 O221 1.243 . S
C203 C202 1.503 . S
C203 C204 1.394 . S
C203 C208 1.373 . S
C204 C203 1.394 . S
C204 C205 1.383 . S
C204 H232 0.927 1_455 S
C205 C204 1.383 . S
C205 C206 1.380 . S
C205 H233 0.924 1_455 S
C206 C205 1.380 . S
C206 C207 1.370 . S
C207 C206 1.370 . S
C207 C208 1.396 . S
C207 H234 0.929 . S
C208 C203 1.373 . S
C208 C207 1.396 . S
C208 H235 0.929 . S
C209 O222 1.240 . S
C209 O223 1.289 . S
C210 O224 1.258 . S
C210 O225 1.256 . S
C211 La201 2.928 1_554 S
C211 C212 1.503 . S
C211 O226 1.261 1_554 S
C211 O227 1.243 1_554 S
C212 C211 1.503 . S
C212 C213 1.394 . S
C212 C217 1.373 . S
C213 C212 1.394 . S
C213 C214 1.380 . S
C213 H236 0.930 . S
C214 C213 1.380 . S
C214 C215 1.376 . S
C214 H237 0.930 . S
C215 C214 1.376 . S
C215 C216 1.370 . S
C216 C215 1.370 . S
C216 C217 1.396 . S
C216 H238 0.929 . S
C217 C212 1.373 . S
C217 C216 1.396 . S
C217 H239 0.929 . S
C218 O228 1.240 . S
C218 O229 1.289 . S
C219 O230 1.258 . S
C219 O231 1.256 . S
O220 La200 2.521 . S
O220 C202 1.261 . S
O221 La200 2.628 . S
O221 C202 1.243 . S
O222 La200 2.554 . S
O222 C209 1.240 . S
O223 La200 2.757 . S
O223 La201 2.482 . S
O223 C209 1.289 . S
O224 La200 2.470 . S
O224 C210 1.258 . S
O225 La201 2.503 . S
O225 C210 1.256 . S
O226 La201 2.521 . S
O226 C211 1.261 1_556 S
O227 La201 2.628 . S
O227 C211 1.243 1_556 S
O228 La201 2.554 . S
O228 C218 1.240 . S
O229 La200 2.482 . S
O229 La201 2.757 . S
O229 C218 1.289 . S
O230 La201 2.470 . S
O230 C219 1.258 . S
O231 La200 2.503 . S
O231 C219 1.256 . S
H232 C204 0.927 1_655 S
H233 C205 0.924 1_655 S
H234 C207 0.929 . S
H235 C208 0.929 . S
H236 C213 0.930 . S
H237 C214 0.930 . S
H238 C216 0.929 . S
H239 C217 0.929 . S
La240 C242 2.928 . S
La240 O260 2.521 . S
La240 O261 2.628 . S
La240 O262 2.554 . S
La240 O263 2.757 . S
La240 O264 2.470 . S
La240 O269 2.482 . S
La240 O271 2.503 . S
La241 C251 2.928 . S
La241 O263 2.482 . S
La241 O265 2.503 . S
La241 O266 2.521 . S
La241 O267 2.628 . S
La241 O268 2.554 . S
La241 O269 2.757 . S
La241 O270 2.470 . S
C242 La240 2.928 . S
C242 C243 1.503 . S
C242 O260 1.261 . S
C242 O261 1.243 . S
C243 C242 1.503 . S
C243 C244 1.394 . S
C243 C248 1.373 . S
C244 C243 1.394 . S
C244 C245 1.380 . S
C244 H272 0.930 . S
C245 C244 1.380 . S
C245 C246 1.376 . S
C245 H273 0.930 . S
C246 C245 1.376 . S
C246 C247 1.370 . S
C247 C246 1.370 . S
C247 C248 1.396 . S
C247 H274 0.929 . S
C248 C243 1.373 . S
C248 C247 1.396 . S
C248 H275 0.929 . S
C249 O262 1.240 . S
C249 O263 1.289 . S
C250 O264 1.258 . S
C250 O265 1.256 . S
C251 La241 2.928 . S
C251 C252 1.503 . S
C251 O266 1.261 . S
C251 O267 1.243 . S
C252 C251 1.503 . S
C252 C253 1.394 . S
C252 C257 1.373 . S
C253 C252 1.394 . S
C253 C254 1.380 . S
C253 H276 0.930 . S
C254 C253 1.380 . S
C254 C255 1.376 . S
C254 H277 0.930 . S
C255 C254 1.376 . S
C255 C256 1.370 . S
C256 C255 1.370 . S
C256 C257 1.396 . S
C256 H278 0.929 . S
C257 C252 1.373 . S
C257 C256 1.396 . S
C257 H279 0.929 . S
C258 O268 1.240 . S
C258 O269 1.289 . S
C259 O270 1.258 . S
C259 O271 1.256 . S
O260 La240 2.521 . S
O260 C242 1.261 . S
O261 La240 2.628 . S
O261 C242 1.243 . S
O262 La240 2.554 . S
O262 C249 1.240 . S
O263 La240 2.757 . S
O263 La241 2.482 . S
O263 C249 1.289 . S
O264 La240 2.470 . S
O264 C250 1.258 . S
O265 La241 2.503 . S
O265 C250 1.256 . S
O266 La241 2.521 . S
O266 C251 1.261 . S
O267 La241 2.628 . S
O267 C251 1.243 . S
O268 La241 2.554 . S
O268 C258 1.240 . S
O269 La240 2.482 . S
O269 La241 2.757 . S
O269 C258 1.289 . S
O270 La241 2.470 . S
O270 C259 1.258 . S
O271 La240 2.503 . S
O271 C259 1.256 . S
H272 C244 0.930 . S
H273 C245 0.930 . S
H274 C247 0.929 . S
H275 C248 0.929 . S
H276 C253 0.930 . S
H277 C254 0.930 . S
H278 C256 0.929 . S
H279 C257 0.929 . S
La280 C282 2.927 1_545 S
La280 O300 2.533 . S
La280 O301 2.614 1_545 S
La280 O302 2.585 . S
La280 O303 2.770 . S
La280 O304 2.476 . S
La280 O309 2.457 1_545 S
La280 O311 2.498 1_545 S
La281 C291 2.928 . S
La281 O303 2.482 1_565 S
La281 O305 2.503 . S
La281 O306 2.521 . S
La281 O307 2.628 1_565 S
La281 O308 2.554 . S
La281 O309 2.757 . S
La281 O310 2.470 . S
C282 La280 2.927 1_565 S
C282 C283 1.501 1_565 S
C282 O300 1.232 1_565 S
C282 O301 1.273 . S
C283 C282 1.501 1_545 S
C283 C284 1.419 . S
C283 C288 1.350 1_545 S
C284 C283 1.419 . S
C284 C285 1.383 . S
C284 H312 0.927 1_455 S
C285 C284 1.383 . S
C285 C286 1.380 . S
C285 H313 0.924 1_455 S
C286 C285 1.380 . S
C286 C287 1.370 1_545 S
C287 C286 1.370 1_565 S
C287 C288 1.396 . S
C287 H314 0.929 . S
C288 C283 1.350 1_565 S
C288 C287 1.396 . S
C288 H315 0.929 . S
C289 O302 1.240 . S
C289 O303 1.289 . S
C290 O304 1.259 1_565 S
C290 O305 1.255 . S
C291 La281 2.928 . S
C291 C292 1.503 . S
C291 O306 1.261 . S
C291 O307 1.243 1_565 S
C292 C291 1.503 . S
C292 C293 1.394 . S
C292 C297 1.373 1_565 S
C293 C292 1.394 . S
C293 C294 1.380 . S
C293 H316 0.930 . S
C294 C293 1.380 . S
C294 C295 1.376 . S
C294 H317 0.930 . S
C295 C294 1.376 . S
C295 C296 1.370 1_565 S
C296 C295 1.370 1_545 S
C296 C297 1.396 . S
C296 H318 0.929 . S
C297 C292 1.373 1_545 S
C297 C296 1.396 . S
C297 H319 0.929 . S
C298 O308 1.240 . S
C298 O309 1.289 . S
C299 O310 1.258 . S
C299 O311 1.256 . S
O300 La280 2.533 . S
O300 C282 1.232 1_545 S
O301 La280 2.614 1_565 S
O301 C282 1.273 . S
O302 La280 2.585 . S
O302 C289 1.240 . S
O303 La280 2.770 . S
O303 La281 2.482 1_545 S
O303 C289 1.289 . S
O304 La280 2.476 . S
O304 C290 1.259 1_545 S
O305 La281 2.503 . S
O305 C290 1.255 . S
O306 La281 2.521 . S
O306 C291 1.261 . S
O307 La281 2.628 1_545 S
O307 C291 1.243 1_545 S
O308 La281 2.554 . S
O308 C298 1.240 . S
O309 La280 2.457 1_565 S
O309 La281 2.757 . S
O309 C298 1.289 . S
O310 La281 2.470 . S
O310 C299 1.258 . S
O311 La280 2.498 1_565 S
O311 C299 1.256 . S
H312 C284 0.927 1_655 S
H313 C285 0.924 1_655 S
H314 C287 0.929 . S
H315 C288 0.929 . S
H316 C293 0.930 . S
H317 C294 0.930 . S
H318 C296 0.929 . S
H319 C297 0.929 . S
La320 C322 2.928 . S
La320 O340 2.521 . S
La320 O341 2.628 . S
La320 O342 2.554 . S
La320 O343 2.757 . S
La320 O344 2.470 . S
La320 O349 2.482 . S
La320 O351 2.503 . S
La321 C331 2.928 . S
La321 O343 2.482 . S
La321 O345 2.503 . S
La321 O346 2.521 . S
La321 O347 2.628 . S
La321 O348 2.554 . S
La321 O349 2.757 . S
La321 O350 2.470 . S
C322 La320 2.928 . S
C322 C323 1.503 . S
C322 O340 1.261 . S
C322 O341 1.243 . S
C323 C322 1.503 . S
C323 C324 1.394 . S
C323 C328 1.373 . S
C324 C323 1.394 . S
C324 C325 1.380 . S
C324 H352 0.930 . S
C325 C324 1.380 . S
C325 C326 1.376 . S
C325 H353 0.930 . S
C326 C325 1.376 . S
C326 C327 1.370 . S
C327 C326 1.370 . S
C327 C328 1.396 . S
C327 H354 0.929 . S
C328 C323 1.373 . S
C328 C327 1.396 . S
C328 H355 0.929 . S
C329 O342 1.240 . S
C329 O343 1.289 . S
C330 O344 1.258 . S
C330 O345 1.256 . S
C331 La321 2.928 . S
C331 C332 1.503 . S
C331 O346 1.261 . S
C331 O347 1.243 . S
C332 C331 1.503 . S
C332 C333 1.394 . S
C332 C337 1.373 . S
C333 C332 1.394 . S
C333 C334 1.380 . S
C333 H356 0.930 . S
C334 C333 1.380 . S
C334 C335 1.376 . S
C334 H357 0.930 . S
C335 C334 1.376 . S
C335 C336 1.370 . S
C336 C335 1.370 . S
C336 C337 1.396 . S
C336 H358 0.929 . S
C337 C332 1.373 . S
C337 C336 1.396 . S
C337 H359 0.929 . S
C338 O348 1.240 . S
C338 O349 1.289 . S
C339 O350 1.258 . S
C339 O351 1.256 . S
O340 La320 2.521 . S
O340 C322 1.261 . S
O341 La320 2.628 . S
O341 C322 1.243 . S
O342 La320 2.554 . S
O342 C329 1.240 . S
O343 La320 2.757 . S
O343 La321 2.482 . S
O343 C329 1.289 . S
O344 La320 2.470 . S
O344 C330 1.258 . S
O345 La321 2.503 . S
O345 C330 1.256 . S
O346 La321 2.521 . S
O346 C331 1.261 . S
O347 La321 2.628 . S
O347 C331 1.243 . S
O348 La321 2.554 . S
O348 C338 1.240 . S
O349 La320 2.482 . S
O349 La321 2.757 . S
O349 C338 1.289 . S
O350 La321 2.470 . S
O350 C339 1.258 . S
O351 La320 2.503 . S
O351 C339 1.256 . S
H352 C324 0.930 . S
H353 C325 0.930 . S
H354 C327 0.929 . S
H355 C328 0.929 . S
H356 C333 0.930 . S
H357 C334 0.930 . S
H358 C336 0.929 . S
H359 C337 0.929 . S
La360 C362 2.928 . S
La360 O380 2.521 . S
La360 O381 2.628 . S
La360 O382 2.554 . S
La360 O383 2.757 . S
La360 O384 2.470 . S
La360 O389 2.482 . S
La360 O391 2.503 . S
La361 C371 2.928 . S
La361 O383 2.482 . S
La361 O385 2.503 . S
La361 O386 2.521 . S
La361 O387 2.628 . S
La361 O388 2.554 . S
La361 O389 2.757 . S
La361 O390 2.470 . S
C362 La360 2.928 . S
C362 C363 1.503 . S
C362 O380 1.261 . S
C362 O381 1.243 . S
C363 C362 1.503 . S
C363 C364 1.394 . S
C363 C368 1.373 . S
C364 C363 1.394 . S
C364 C365 1.380 . S
C364 H392 0.930 . S
C365 C364 1.380 . S
C365 C366 1.376 . S
C365 H393 0.930 . S
C366 C365 1.376 . S
C366 C367 1.370 . S
C367 C366 1.370 . S
C367 C368 1.396 . S
C367 H394 0.929 . S
C368 C363 1.373 . S
C368 C367 1.396 . S
C368 H395 0.929 . S
C369 O382 1.240 . S
C369 O383 1.289 . S
C370 O384 1.258 . S
C370 O385 1.256 . S
C371 La361 2.928 . S
C371 C372 1.503 . S
C371 O386 1.261 . S
C371 O387 1.243 . S
C372 C371 1.503 . S
C372 C373 1.394 . S
C372 C377 1.373 . S
C373 C372 1.394 . S
C373 C374 1.383 . S
C373 H396 0.927 1_655 S
C374 C373 1.383 . S
C374 C375 1.380 . S
C374 H397 0.924 1_655 S
C375 C374 1.380 . S
C375 C376 1.370 . S
C376 C375 1.370 . S
C376 C377 1.396 . S
C376 H398 0.929 . S
C377 C372 1.373 . S
C377 C376 1.396 . S
C377 H399 0.929 . S
C378 O388 1.240 . S
C378 O389 1.289 . S
C379 O390 1.258 . S
C379 O391 1.256 . S
O380 La360 2.521 . S
O380 C362 1.261 . S
O381 La360 2.628 . S
O381 C362 1.243 . S
O382 La360 2.554 . S
O382 C369 1.240 . S
O383 La360 2.757 . S
O383 La361 2.482 . S
O383 C369 1.289 . S
O384 La360 2.470 . S
O384 C370 1.258 . S
O385 La361 2.503 . S
O385 C370 1.256 . S
O386 La361 2.521 . S
O386 C371 1.261 . S
O387 La361 2.628 . S
O387 C371 1.243 . S
O388 La361 2.554 . S
O388 C378 1.240 . S
O389 La360 2.482 . S
O389 La361 2.757 . S
O389 C378 1.289 . S
O390 La361 2.470 . S
O390 C379 1.258 . S
O391 La360 2.503 . S
O391 C379 1.256 . S
H392 C364 0.930 . S
H393 C365 0.930 . S
H394 C367 0.929 . S
H395 C368 0.929 . S
H396 C373 0.927 1_455 S
H397 C374 0.924 1_455 S
H398 C376 0.929 . S
H399 C377 0.929 . S
La400 C402 2.928 . S
La400 O420 2.521 . S
La400 O421 2.628 . S
La400 O422 2.554 . S
La400 O423 2.757 . S
La400 O424 2.470 . S
La400 O429 2.482 . S
La400 O431 2.503 . S
La401 C411 2.928 . S
La401 O423 2.482 . S
La401 O425 2.503 . S
La401 O426 2.521 . S
La401 O427 2.628 . S
La401 O428 2.554 . S
La401 O429 2.757 . S
La401 O430 2.470 . S
C402 La400 2.928 . S
C402 C403 1.503 . S
C402 O420 1.261 . S
C402 O421 1.243 . S
C403 C402 1.503 . S
C403 C404 1.394 . S
C403 C408 1.373 . S
C404 C403 1.394 . S
C404 C405 1.380 . S
C404 H432 0.930 . S
C405 C404 1.380 . S
C405 C406 1.376 . S
C405 H433 0.930 . S
C406 C405 1.376 . S
C406 C407 1.370 . S
C407 C406 1.370 . S
C407 C408 1.396 . S
C407 H434 0.929 . S
C408 C403 1.373 . S
C408 C407 1.396 . S
C408 H435 0.929 . S
C409 O422 1.240 . S
C409 O423 1.289 . S
C410 O424 1.258 . S
C410 O425 1.256 . S
C411 La401 2.928 . S
C411 C412 1.503 . S
C411 O426 1.261 . S
C411 O427 1.243 . S
C412 C411 1.503 . S
C412 C413 1.394 . S
C412 C417 1.373 . S
C413 C412 1.394 . S
C413 C414 1.380 . S
C413 H436 0.930 . S
C414 C413 1.380 . S
C414 C415 1.376 . S
C414 H437 0.930 . S
C415 C414 1.376 . S
C415 C416 1.370 . S
C416 C415 1.370 . S
C416 C417 1.396 . S
C416 H438 0.929 . S
C417 C412 1.373 . S
C417 C416 1.396 . S
C417 H439 0.929 . S
C418 O428 1.240 . S
C418 O429 1.289 . S
C419 O430 1.258 . S
C419 O431 1.256 . S
O420 La400 2.521 . S
O420 C402 1.261 . S
O421 La400 2.628 . S
O421 C402 1.243 . S
O422 La400 2.554 . S
O422 C409 1.240 . S
O423 La400 2.757 . S
O423 La401 2.482 . S
O423 C409 1.289 . S
O424 La400 2.470 . S
O424 C410 1.258 . S
O425 La401 2.503 . S
O425 C410 1.256 . S
O426 La401 2.521 . S
O426 C411 1.261 . S
O427 La401 2.628 . S
O427 C411 1.243 . S
O428 La401 2.554 . S
O428 C418 1.240 . S
O429 La400 2.482 . S
O429 La401 2.757 . S
O429 C418 1.289 . S
O430 La401 2.470 . S
O430 C419 1.258 . S
O431 La400 2.503 . S
O431 C419 1.256 . S
H432 C404 0.930 . S
H433 C405 0.930 . S
H434 C407 0.929 . S
H435 C408 0.929 . S
H436 C413 0.930 . S
H437 C414 0.930 . S
H438 C416 0.929 . S
H439 C417 0.929 . S
La440 C442 2.928 . S
La440 O460 2.521 . S
La440 O461 2.628 . S
La440 O462 2.554 . S
La440 O463 2.757 . S
La440 O464 2.470 . S
La440 O469 2.482 . S
La440 O471 2.503 . S
La441 C451 2.928 . S
La441 O463 2.482 . S
La441 O465 2.503 . S
La441 O466 2.521 . S
La441 O467 2.628 . S
La441 O468 2.554 . S
La441 O469 2.757 . S
La441 O470 2.470 . S
C442 La440 2.928 . S
C442 C443 1.503 . S
C442 O460 1.261 . S
C442 O461 1.243 . S
C443 C442 1.503 . S
C443 C444 1.394 . S
C443 C448 1.373 . S
C444 C443 1.394 . S
C444 C445 1.380 . S
C444 H472 0.930 . S
C445 C444 1.380 . S
C445 C446 1.376 . S
C445 H473 0.930 . S
C446 C445 1.376 . S
C446 C447 1.370 . S
C447 C446 1.370 . S
C447 C448 1.396 . S
C447 H474 0.929 . S
C448 C443 1.373 . S
C448 C447 1.396 . S
C448 H475 0.929 . S
C449 O462 1.240 . S
C449 O463 1.289 . S
C450 O464 1.258 . S
C450 O465 1.256 . S
C451 La441 2.928 . S
C451 C452 1.503 . S
C451 O466 1.261 . S
C451 O467 1.243 . S
C452 C451 1.503 . S
C452 C453 1.394 . S
C452 C457 1.373 . S
C453 C452 1.394 . S
C453 C454 1.383 . S
C453 H476 0.927 1_655 S
C454 C453 1.383 . S
C454 C455 1.380 . S
C454 H477 0.924 1_655 S
C455 C454 1.380 . S
C455 C456 1.370 . S
C456 C455 1.370 . S
C456 C457 1.396 . S
C456 H478 0.929 . S
C457 C452 1.373 . S
C457 C456 1.396 . S
C457 H479 0.929 . S
C458 O468 1.240 . S
C458 O469 1.289 . S
C459 O470 1.258 . S
C459 O471 1.256 . S
O460 La440 2.521 . S
O460 C442 1.261 . S
O461 La440 2.628 . S
O461 C442 1.243 . S
O462 La440 2.554 . S
O462 C449 1.240 . S
O463 La440 2.757 . S
O463 La441 2.482 . S
O463 C449 1.289 . S
O464 La440 2.470 . S
O464 C450 1.258 . S
O465 La441 2.503 . S
O465 C450 1.256 . S
O466 La441 2.521 . S
O466 C451 1.261 . S
O467 La441 2.628 . S
O467 C451 1.243 . S
O468 La441 2.554 . S
O468 C458 1.240 . S
O469 La440 2.482 . S
O469 La441 2.757 . S
O469 C458 1.289 . S
O470 La441 2.470 . S
O470 C459 1.258 . S
O471 La440 2.503 . S
O471 C459 1.256 . S
H472 C444 0.930 . S
H473 C445 0.930 . S
H474 C447 0.929 . S
H475 C448 0.929 . S
H476 C453 0.927 1_455 S
H477 C454 0.924 1_455 S
H478 C456 0.929 . S
H479 C457 0.929 . S
La480 C482 2.928 . S
La480 O500 2.521 . S
La480 O501 2.628 . S
La480 O502 2.554 . S
La480 O503 2.757 . S
La480 O504 2.470 . S
La480 O509 2.482 . S
La480 O511 2.503 . S
La481 C491 2.928 . S
La481 O503 2.482 . S
La481 O505 2.503 . S
La481 O506 2.521 . S
La481 O507 2.628 . S
La481 O508 2.554 . S
La481 O509 2.757 . S
La481 O510 2.470 . S
C482 La480 2.928 . S
C482 C483 1.503 . S
C482 O500 1.261 . S
C482 O501 1.243 . S
C483 C482 1.503 . S
C483 C484 1.394 . S
C483 C488 1.373 . S
C484 C483 1.394 . S
C484 C485 1.380 . S
C484 H512 0.930 . S
C485 C484 1.380 . S
C485 C486 1.376 . S
C485 H513 0.930 . S
C486 C485 1.376 . S
C486 C487 1.370 . S
C487 C486 1.370 . S
C487 C488 1.396 . S
C487 H514 0.929 . S
C488 C483 1.373 . S
C488 C487 1.396 . S
C488 H515 0.929 . S
C489 O502 1.240 . S
C489 O503 1.289 . S
C490 O504 1.258 . S
C490 O505 1.256 . S
C491 La481 2.928 . S
C491 C492 1.503 . S
C491 O506 1.261 . S
C491 O507 1.243 . S
C492 C491 1.503 . S
C492 C493 1.394 . S
C492 C497 1.373 . S
C493 C492 1.394 . S
C493 C494 1.380 . S
C493 H516 0.930 . S
C494 C493 1.380 . S
C494 C495 1.376 . S
C494 H517 0.930 . S
C495 C494 1.376 . S
C495 C496 1.370 . S
C496 C495 1.370 . S
C496 C497 1.396 . S
C496 H518 0.929 . S
C497 C492 1.373 . S
C497 C496 1.396 . S
C497 H519 0.929 . S
C498 O508 1.240 . S
C498 O509 1.289 . S
C499 O510 1.258 . S
C499 O511 1.256 . S
O500 La480 2.521 . S
O500 C482 1.261 . S
O501 La480 2.628 . S
O501 C482 1.243 . S
O502 La480 2.554 . S
O502 C489 1.240 . S
O503 La480 2.757 . S
O503 La481 2.482 . S
O503 C489 1.289 . S
O504 La480 2.470 . S
O504 C490 1.258 . S
O505 La481 2.503 . S
O505 C490 1.256 . S
O506 La481 2.521 . S
O506 C491 1.261 . S
O507 La481 2.628 . S
O507 C491 1.243 . S
O508 La481 2.554 . S
O508 C498 1.240 . S
O509 La480 2.482 . S
O509 La481 2.757 . S
O509 C498 1.289 . S
O510 La481 2.470 . S
O510 C499 1.258 . S
O511 La480 2.503 . S
O511 C499 1.256 . S
H512 C484 0.930 . S
H513 C485 0.930 . S
H514 C487 0.929 . S
H515 C488 0.929 . S
H516 C493 0.930 . S
H517 C494 0.930 . S
H518 C496 0.929 . S
H519 C497 0.929 . S
La520 C522 2.928 . S
La520 O540 2.521 . S
La520 O541 2.628 . S
La520 O542 2.554 . S
La520 O543 2.757 . S
La520 O544 2.470 . S
La520 O549 2.482 . S
La520 O551 2.503 . S
La521 C531 2.928 . S
La521 O543 2.482 . S
La521 O545 2.503 . S
La521 O546 2.521 . S
La521 O547 2.628 . S
La521 O548 2.554 . S
La521 O549 2.757 . S
La521 O550 2.470 . S
C522 La520 2.928 . S
C522 C523 1.503 . S
C522 O540 1.261 . S
C522 O541 1.243 . S
C523 C522 1.503 . S
C523 C524 1.394 . S
C523 C528 1.373 . S
C524 C523 1.394 . S
C524 C525 1.383 . S
C524 H552 0.927 1_455 S
C525 C524 1.383 . S
C525 C526 1.380 . S
C525 H553 0.924 1_455 S
C526 C525 1.380 . S
C526 C527 1.370 . S
C527 C526 1.370 . S
C527 C528 1.396 . S
C527 H554 0.929 . S
C528 C523 1.373 . S
C528 C527 1.396 . S
C528 H555 0.929 . S
C529 O542 1.240 . S
C529 O543 1.289 . S
C530 O544 1.258 . S
C530 O545 1.256 . S
C531 La521 2.928 . S
C531 C532 1.503 . S
C531 O546 1.261 . S
C531 O547 1.243 . S
C532 C531 1.503 . S
C532 C533 1.394 . S
C532 C537 1.373 . S
C533 C532 1.394 . S
C533 C534 1.380 . S
C533 H556 0.930 . S
C534 C533 1.380 . S
C534 C535 1.376 . S
C534 H557 0.930 . S
C535 C534 1.376 . S
C535 C536 1.370 . S
C536 C535 1.370 . S
C536 C537 1.396 . S
C536 H558 0.929 . S
C537 C532 1.373 . S
C537 C536 1.396 . S
C537 H559 0.929 . S
C538 O548 1.240 . S
C538 O549 1.289 . S
C539 O550 1.258 . S
C539 O551 1.256 . S
O540 La520 2.521 . S
O540 C522 1.261 . S
O541 La520 2.628 . S
O541 C522 1.243 . S
O542 La520 2.554 . S
O542 C529 1.240 . S
O543 La520 2.757 . S
O543 La521 2.482 . S
O543 C529 1.289 . S
O544 La520 2.470 . S
O544 C530 1.258 . S
O545 La521 2.503 . S
O545 C530 1.256 . S
O546 La521 2.521 . S
O546 C531 1.261 . S
O547 La521 2.628 . S
O547 C531 1.243 . S
O548 La521 2.554 . S
O548 C538 1.240 . S
O549 La520 2.482 . S
O549 La521 2.757 . S
O549 C538 1.289 . S
O550 La521 2.470 . S
O550 C539 1.258 . S
O551 La520 2.503 . S
O551 C539 1.256 . S
H552 C524 0.927 1_655 S
H553 C525 0.924 1_655 S
H554 C527 0.929 . S
H555 C528 0.929 . S
H556 C533 0.930 . S
H557 C534 0.930 . S
H558 C536 0.929 . S
H559 C537 0.929 . S
La560 C562 2.928 . S
La560 O580 2.521 . S
La560 O581 2.628 . S
La560 O582 2.554 . S
La560 O583 2.757 . S
La560 O584 2.470 . S
La560 O589 2.482 . S
La560 O591 2.503 . S
La561 C571 2.928 . S
La561 O583 2.482 . S
La561 O585 2.503 . S
La561 O586 2.521 . S
La561 O587 2.628 . S
La561 O588 2.554 . S
La561 O589 2.757 . S
La561 O590 2.470 . S
C562 La560 2.928 . S
C562 C563 1.503 . S
C562 O580 1.261 . S
C562 O581 1.243 . S
C563 C562 1.503 . S
C563 C564 1.394 . S
C563 C568 1.373 . S
C564 C563 1.394 . S
C564 C565 1.380 . S
C564 H592 0.930 . S
C565 C564 1.380 . S
C565 C566 1.376 . S
C565 H593 0.930 . S
C566 C565 1.376 . S
C566 C567 1.370 . S
C567 C566 1.370 . S
C567 C568 1.396 . S
C567 H594 0.929 . S
C568 C563 1.373 . S
C568 C567 1.396 . S
C568 H595 0.929 . S
C569 O582 1.240 . S
C569 O583 1.289 . S
C570 O584 1.258 . S
C570 O585 1.256 . S
C571 La561 2.928 . S
C571 C572 1.503 . S
C571 O586 1.261 . S
C571 O587 1.243 . S
C572 C571 1.503 . S
C572 C573 1.394 . S
C572 C577 1.373 . S
C573 C572 1.394 . S
C573 C574 1.380 . S
C573 H596 0.930 . S
C574 C573 1.380 . S
C574 C575 1.376 . S
C574 H597 0.930 . S
C575 C574 1.376 . S
C575 C576 1.370 . S
C576 C575 1.370 . S
C576 C577 1.396 . S
C576 H598 0.929 . S
C577 C572 1.373 . S
C577 C576 1.396 . S
C577 H599 0.929 . S
C578 O588 1.240 . S
C578 O589 1.289 . S
C579 O590 1.258 . S
C579 O591 1.256 . S
O580 La560 2.521 . S
O580 C562 1.261 . S
O581 La560 2.628 . S
O581 C562 1.243 . S
O582 La560 2.554 . S
O582 C569 1.240 . S
O583 La560 2.757 . S
O583 La561 2.482 . S
O583 C569 1.289 . S
O584 La560 2.470 . S
O584 C570 1.258 . S
O585 La561 2.503 . S
O585 C570 1.256 . S
O586 La561 2.521 . S
O586 C571 1.261 . S
O587 La561 2.628 . S
O587 C571 1.243 . S
O588 La561 2.554 . S
O588 C578 1.240 . S
O589 La560 2.482 . S
O589 La561 2.757 . S
O589 C578 1.289 . S
O590 La561 2.470 . S
O590 C579 1.258 . S
O591 La560 2.503 . S
O591 C579 1.256 . S
H592 C564 0.930 . S
H593 C565 0.930 . S
H594 C567 0.929 . S
H595 C568 0.929 . S
H596 C573 0.930 . S
H597 C574 0.930 . S
H598 C576 0.929 . S
H599 C577 0.929 . S
La600 C602 2.928 . S
La600 O620 2.521 . S
La600 O621 2.628 . S
La600 O622 2.554 . S
La600 O623 2.757 . S
La600 O624 2.470 . S
La600 O629 2.482 . S
La600 O631 2.503 . S
La601 C611 2.928 . S
La601 O623 2.482 . S
La601 O625 2.503 . S
La601 O626 2.521 . S
La601 O627 2.628 . S
La601 O628 2.554 . S
La601 O629 2.757 . S
La601 O630 2.470 . S
C602 La600 2.928 . S
C602 C603 1.503 . S
C602 O620 1.261 . S
C602 O621 1.243 . S
C603 C602 1.503 . S
C603 C604 1.394 . S
C603 C608 1.373 . S
C604 C603 1.394 . S
C604 C605 1.383 . S
C604 H632 0.927 1_455 S
C605 C604 1.383 . S
C605 C606 1.380 . S
C605 H633 0.924 1_455 S
C606 C605 1.380 . S
C606 C607 1.370 . S
C607 C606 1.370 . S
C607 C608 1.396 . S
C607 H634 0.929 . S
C608 C603 1.373 . S
C608 C607 1.396 . S
C608 H635 0.929 . S
C609 O622 1.240 . S
C609 O623 1.289 . S
C610 O624 1.258 . S
C610 O625 1.256 . S
C611 La601 2.928 . S
C611 C612 1.503 . S
C611 O626 1.261 . S
C611 O627 1.243 . S
C612 C611 1.503 . S
C612 C613 1.394 . S
C612 C617 1.373 . S
C613 C612 1.394 . S
C613 C614 1.380 . S
C613 H636 0.930 . S
C614 C613 1.380 . S
C614 C615 1.376 . S
C614 H637 0.930 . S
C615 C614 1.376 . S
C615 C616 1.370 . S
C616 C615 1.370 . S
C616 C617 1.396 . S
C616 H638 0.929 . S
C617 C612 1.373 . S
C617 C616 1.396 . S
C617 H639 0.929 . S
C618 O628 1.240 . S
C618 O629 1.289 . S
C619 O630 1.258 . S
C619 O631 1.256 . S
O620 La600 2.521 . S
O620 C602 1.261 . S
O621 La600 2.628 . S
O621 C602 1.243 . S
O622 La600 2.554 . S
O622 C609 1.240 . S
O623 La600 2.757 . S
O623 La601 2.482 . S
O623 C609 1.289 . S
O624 La600 2.470 . S
O624 C610 1.258 . S
O625 La601 2.503 . S
O625 C610 1.256 . S
O626 La601 2.521 . S
O626 C611 1.261 . S
O627 La601 2.628 . S
O627 C611 1.243 . S
O628 La601 2.554 . S
O628 C618 1.240 . S
O629 La600 2.482 . S
O629 La601 2.757 . S
O629 C618 1.289 . S
O630 La601 2.470 . S
O630 C619 1.258 . S
O631 La600 2.503 . S
O631 C619 1.256 . S
H632 C604 0.927 1_655 S
H633 C605 0.924 1_655 S
H634 C607 0.929 . S
H635 C608 0.929 . S
H636 C613 0.930 . S
H637 C614 0.930 . S
H638 C616 0.929 . S
H639 C617 0.929 . S
La640 C642 2.928 . S
La640 O660 2.521 . S
La640 O661 2.628 1_545 S
La640 O662 2.554 . S
La640 O663 2.757 . S
La640 O664 2.470 . S
La640 O669 2.482 1_545 S
La640 O671 2.503 . S
La641 C651 2.927 1_565 S
La641 O663 2.458 1_565 S
La641 O665 2.498 1_565 S
La641 O666 2.533 . S
La641 O667 2.614 1_565 S
La641 O668 2.585 . S
La641 O669 2.770 . S
La641 O670 2.476 . S
C642 La640 2.928 . S
C642 C643 1.503 . S
C642 O660 1.261 . S
C642 O661 1.243 1_545 S
C643 C642 1.503 . S
C643 C644 1.394 . S
C643 C648 1.373 1_545 S
C644 C643 1.394 . S
C644 C645 1.380 1_655 S
C644 H672 0.930 1_655 S
C645 C644 1.380 1_455 S
C645 C646 1.376 1_455 S
C645 H673 0.930 . S
C646 C645 1.376 1_655 S
C646 C647 1.370 1_545 S
C647 C646 1.370 1_565 S
C647 C648 1.396 . S
C647 H674 0.929 . S
C648 C643 1.373 1_565 S
C648 C647 1.396 . S
C648 H675 0.929 . S
C649 O662 1.240 . S
C649 O663 1.289 . S
C650 O664 1.258 . S
C650 O665 1.256 . S
C651 La641 2.927 1_545 S
C651 C652 1.501 1_545 S
C651 O666 1.232 1_545 S
C651 O667 1.273 . S
C652 C651 1.501 1_565 S
C652 C653 1.419 . S
C652 C657 1.350 1_565 S
C653 C652 1.419 . S
C653 C654 1.380 . S
C653 H676 0.930 . S
C654 C653 1.380 . S
C654 C655 1.376 . S
C654 H677 0.930 . S
C655 C654 1.376 . S
C655 C656 1.370 1_565 S
C656 C655 1.370 1_545 S
C656 C657 1.396 . S
C656 H678 0.929 . S
C657 C652 1.350 1_545 S
C657 C656 1.396 . S
C657 H679 0.929 . S
C658 O668 1.240 . S
C658 O669 1.289 . S
C659 O670 1.259 1_545 S
C659 O671 1.256 . S
O660 La640 2.521 . S
O660 C642 1.261 . S
O661 La640 2.628 1_565 S
O661 C642 1.243 1_565 S
O662 La640 2.554 . S
O662 C649 1.240 . S
O663 La640 2.757 . S
O663 La641 2.458 1_545 S
O663 C649 1.289 . S
O664 La640 2.470 . S
O664 C650 1.258 . S
O665 La641 2.498 1_545 S
O665 C650 1.256 . S
O666 La641 2.533 . S
O666 C651 1.232 1_565 S
O667 La641 2.614 1_545 S
O667 C651 1.273 . S
O668 La641 2.585 . S
O668 C658 1.240 . S
O669 La640 2.482 1_565 S
O669 La641 2.770 . S
O669 C658 1.289 . S
O670 La641 2.476 . S
O670 C659 1.259 1_565 S
O671 La640 2.503 . S
O671 C659 1.256 . S
H672 C644 0.930 1_455 S
H673 C645 0.930 . S
H674 C647 0.929 . S
H675 C648 0.929 . S
H676 C653 0.930 . S
H677 C654 0.930 . S
H678 C656 0.929 . S
H679 C657 0.929 . S
La680 C682 2.928 . S
La680 O700 2.521 . S
La680 O701 2.628 . S
La680 O702 2.554 . S
La680 O703 2.757 . S
La680 O704 2.470 . S
La680 O709 2.482 . S
La680 O711 2.503 . S
La681 C691 2.928 . S
La681 O703 2.482 . S
La681 O705 2.503 . S
La681 O706 2.521 . S
La681 O707 2.628 . S
La681 O708 2.554 . S
La681 O709 2.757 . S
La681 O710 2.470 . S
C682 La680 2.928 . S
C682 C683 1.503 . S
C682 O700 1.261 . S
C682 O701 1.243 . S
C683 C682 1.503 . S
C683 C684 1.394 . S
C683 C688 1.373 . S
C684 C683 1.394 . S
C684 C685 1.380 . S
C684 H712 0.930 . S
C685 C684 1.380 . S
C685 C686 1.376 . S
C685 H713 0.930 . S
C686 C685 1.376 . S
C686 C687 1.370 . S
C687 C686 1.370 . S
C687 C688 1.396 . S
C687 H714 0.929 . S
C688 C683 1.373 . S
C688 C687 1.396 . S
C688 H715 0.929 . S
C689 O702 1.240 . S
C689 O703 1.289 . S
C690 O704 1.258 . S
C690 O705 1.256 . S
C691 La681 2.928 . S
C691 C692 1.503 . S
C691 O706 1.261 . S
C691 O707 1.243 . S
C692 C691 1.503 . S
C692 C693 1.394 . S
C692 C697 1.373 . S
C693 C692 1.394 . S
C693 C694 1.380 . S
C693 H716 0.930 . S
C694 C693 1.380 . S
C694 C695 1.376 . S
C694 H717 0.930 . S
C695 C694 1.376 . S
C695 C696 1.370 . S
C696 C695 1.370 . S
C696 C697 1.396 . S
C696 H718 0.929 . S
C697 C692 1.373 . S
C697 C696 1.396 . S
C697 H719 0.929 . S
C698 O708 1.240 . S
C698 O709 1.289 . S
C699 O710 1.258 . S
C699 O711 1.256 . S
O700 La680 2.521 . S
O700 C682 1.261 . S
O701 La680 2.628 . S
O701 C682 1.243 . S
O702 La680 2.554 . S
O702 C689 1.240 . S
O703 La680 2.757 . S
O703 La681 2.482 . S
O703 C689 1.289 . S
O704 La680 2.470 . S
O704 C690 1.258 . S
O705 La681 2.503 . S
O705 C690 1.256 . S
O706 La681 2.521 . S
O706 C691 1.261 . S
O707 La681 2.628 . S
O707 C691 1.243 . S
O708 La681 2.554 . S
O708 C698 1.240 . S
O709 La680 2.482 . S
O709 La681 2.757 . S
O709 C698 1.289 . S
O710 La681 2.470 . S
O710 C699 1.258 . S
O711 La680 2.503 . S
O711 C699 1.256 . S
H712 C684 0.930 . S
H713 C685 0.930 . S
H714 C687 0.929 . S
H715 C688 0.929 . S
H716 C693 0.930 . S
H717 C694 0.930 . S
H718 C696 0.929 . S
H719 C697 0.929 . S
La720 C722 2.928 . S
La720 O740 2.521 . S
La720 O741 2.628 . S
La720 O742 2.554 . S
La720 O743 2.757 . S
La720 O744 2.470 . S
La720 O749 2.482 . S
La720 O751 2.503 . S
La721 C731 2.928 . S
La721 O743 2.482 . S
La721 O745 2.503 . S
La721 O746 2.521 . S
La721 O747 2.628 . S
La721 O748 2.554 . S
La721 O749 2.757 . S
La721 O750 2.470 . S
C722 La720 2.928 . S
C722 C723 1.503 . S
C722 O740 1.261 . S
C722 O741 1.243 . S
C723 C722 1.503 . S
C723 C724 1.394 . S
C723 C728 1.373 . S
C724 C723 1.394 . S
C724 C725 1.380 1_655 S
C724 H752 0.930 1_655 S
C725 C724 1.380 1_455 S
C725 C726 1.376 1_455 S
C725 H753 0.930 . S
C726 C725 1.376 1_655 S
C726 C727 1.370 . S
C727 C726 1.370 . S
C727 C728 1.396 . S
C727 H754 0.929 . S
C728 C723 1.373 . S
C728 C727 1.396 . S
C728 H755 0.929 . S
C729 O742 1.240 . S
C729 O743 1.289 . S
C730 O744 1.258 . S
C730 O745 1.256 . S
C731 La721 2.928 . S
C731 C732 1.503 . S
C731 O746 1.261 . S
C731 O747 1.243 . S
C732 C731 1.503 . S
C732 C733 1.394 . S
C732 C737 1.373 . S
C733 C732 1.394 . S
C733 C734 1.380 . S
C733 H756 0.930 . S
C734 C733 1.380 . S
C734 C735 1.376 . S
C734 H757 0.930 . S
C735 C734 1.376 . S
C735 C736 1.370 . S
C736 C735 1.370 . S
C736 C737 1.396 . S
C736 H758 0.929 . S
C737 C732 1.373 . S
C737 C736 1.396 . S
C737 H759 0.929 . S
C738 O748 1.240 . S
C738 O749 1.289 . S
C739 O750 1.258 . S
C739 O751 1.256 . S
O740 La720 2.521 . S
O740 C722 1.261 . S
O741 La720 2.628 . S
O741 C722 1.243 . S
O742 La720 2.554 . S
O742 C729 1.240 . S
O743 La720 2.757 . S
O743 La721 2.482 . S
O743 C729 1.289 . S
O744 La720 2.470 . S
O744 C730 1.258 . S
O745 La721 2.503 . S
O745 C730 1.256 . S
O746 La721 2.521 . S
O746 C731 1.261 . S
O747 La721 2.628 . S
O747 C731 1.243 . S
O748 La721 2.554 . S
O748 C738 1.240 . S
O749 La720 2.482 . S
O749 La721 2.757 . S
O749 C738 1.289 . S
O750 La721 2.470 . S
O750 C739 1.258 . S
O751 La720 2.503 . S
O751 C739 1.256 . S
H752 C724 0.930 1_455 S
H753 C725 0.930 . S
H754 C727 0.929 . S
H755 C728 0.929 . S
H756 C733 0.930 . S
H757 C734 0.930 . S
H758 C736 0.929 . S
H759 C737 0.929 . S
La760 C762 2.928 . S
La760 O780 2.521 . S
La760 O781 2.628 1_545 S
La760 O782 2.554 . S
La760 O783 2.757 . S
La760 O784 2.470 . S
La760 O789 2.482 1_545 S
La760 O791 2.503 . S
La761 C771 2.927 1_565 S
La761 O783 2.458 1_565 S
La761 O785 2.498 1_565 S
La761 O786 2.533 . S
La761 O787 2.615 1_565 S
La761 O788 2.585 . S
La761 O789 2.770 . S
La761 O790 2.476 . S
C762 La760 2.928 . S
C762 C763 1.503 . S
C762 O780 1.261 . S
C762 O781 1.243 1_545 S
C763 C762 1.503 . S
C763 C764 1.394 . S
C763 C768 1.373 1_545 S
C764 C763 1.394 . S
C764 C765 1.380 . S
C764 H792 0.930 . S
C765 C764 1.380 . S
C765 C766 1.376 . S
C765 H793 0.930 . S
C766 C765 1.376 . S
C766 C767 1.370 1_545 S
C767 C766 1.370 1_565 S
C767 C768 1.396 . S
C767 H794 0.929 . S
C768 C763 1.373 1_565 S
C768 C767 1.396 . S
C768 H795 0.929 . S
C769 O782 1.240 . S
C769 O783 1.289 . S
C770 O784 1.258 . S
C770 O785 1.256 . S
C771 La761 2.927 1_545 S
C771 C772 1.501 1_545 S
C771 O786 1.232 1_545 S
C771 O787 1.273 . S
C772 C771 1.501 1_565 S
C772 C773 1.419 . S
C772 C777 1.350 1_565 S
C773 C772 1.419 . S
C773 C774 1.380 . S
C773 H796 0.930 . S
C774 C773 1.380 . S
C774 C775 1.376 . S
C774 H797 0.930 . S
C775 C774 1.376 . S
C775 C776 1.370 1_565 S
C776 C775 1.370 1_545 S
C776 C777 1.396 . S
C776 H798 0.929 . S
C777 C772 1.350 1_545 S
C777 C776 1.396 . S
C777 H799 0.929 . S
C778 O788 1.240 . S
C778 O789 1.289 . S
C779 O790 1.259 1_545 S
C779 O791 1.256 . S
O780 La760 2.521 . S
O780 C762 1.261 . S
O781 La760 2.628 1_565 S
O781 C762 1.243 1_565 S
O782 La760 2.554 . S
O782 C769 1.240 . S
O783 La760 2.757 . S
O783 La761 2.458 1_545 S
O783 C769 1.289 . S
O784 La760 2.470 . S
O784 C770 1.258 . S
O785 La761 2.498 1_545 S
O785 C770 1.256 . S
O786 La761 2.533 . S
O786 C771 1.232 1_565 S
O787 La761 2.615 1_545 S
O787 C771 1.273 . S
O788 La761 2.585 . S
O788 C778 1.240 . S
O789 La760 2.482 1_565 S
O789 La761 2.770 . S
O789 C778 1.289 . S
O790 La761 2.476 . S
O790 C779 1.259 1_565 S
O791 La760 2.503 . S
O791 C779 1.256 . S
H792 C764 0.930 . S
H793 C765 0.930 . S
H794 C767 0.929 . S
H795 C768 0.929 . S
H796 C773 0.930 . S
H797 C774 0.930 . S
H798 C776 0.929 . S
H799 C777 0.929 . S
La800 C802 2.927 1_545 S
La800 O820 2.533 . S
La800 O821 2.614 1_545 S
La800 O822 2.585 . S
La800 O823 2.770 . S
La800 O824 2.476 . S
La800 O829 2.458 1_545 S
La800 O831 2.498 1_545 S
La801 C811 2.928 . S
La801 O823 2.482 1_565 S
La801 O825 2.503 . S
La801 O826 2.521 . S
La801 O827 2.628 1_565 S
La801 O828 2.554 . S
La801 O829 2.757 . S
La801 O830 2.470 . S
C802 La800 2.927 1_565 S
C802 C803 1.501 1_565 S
C802 O820 1.232 1_565 S
C802 O821 1.273 . S
C803 C802 1.501 1_545 S
C803 C804 1.419 . S
C803 C808 1.350 1_545 S
C804 C803 1.419 . S
C804 C805 1.380 . S
C804 H832 0.930 . S
C805 C804 1.380 . S
C805 C806 1.376 . S
C805 H833 0.930 . S
C806 C805 1.376 . S
C806 C807 1.370 1_545 S
C807 C806 1.370 1_565 S
C807 C808 1.396 . S
C807 H834 0.929 . S
C808 C803 1.350 1_565 S
C808 C807 1.396 . S
C808 H835 0.929 . S
C809 O822 1.240 . S
C809 O823 1.289 . S
C810 O824 1.259 1_565 S
C810 O825 1.256 . S
C811 La801 2.928 . S
C811 C812 1.503 . S
C811 O826 1.261 . S
C811 O827 1.243 1_565 S
C812 C811 1.503 . S
C812 C813 1.394 . S
C812 C817 1.373 1_565 S
C813 C812 1.394 . S
C813 C814 1.380 1_455 S
C813 H836 0.930 1_455 S
C814 C813 1.380 1_655 S
C814 C815 1.376 1_655 S
C814 H837 0.930 . S
C815 C814 1.376 1_455 S
C815 C816 1.370 1_565 S
C816 C815 1.370 1_545 S
C816 C817 1.396 . S
C816 H838 0.929 . S
C817 C812 1.373 1_545 S
C817 C816 1.396 . S
C817 H839 0.929 . S
C818 O828 1.240 . S
C818 O829 1.289 . S
C819 O830 1.258 . S
C819 O831 1.256 . S
O820 La800 2.533 . S
O820 C802 1.232 1_545 S
O821 La800 2.614 1_565 S
O821 C802 1.273 . S
O822 La800 2.585 . S
O822 C809 1.240 . S
O823 La800 2.770 . S
O823 La801 2.482 1_545 S
O823 C809 1.289 . S
O824 La800 2.476 . S
O824 C810 1.259 1_545 S
O825 La801 2.503 . S
O825 C810 1.256 . S
O826 La801 2.521 . S
O826 C811 1.261 . S
O827 La801 2.628 1_545 S
O827 C811 1.243 1_545 S
O828 La801 2.554 . S
O828 C818 1.240 . S
O829 La800 2.458 1_565 S
O829 La801 2.757 . S
O829 C818 1.289 . S
O830 La801 2.470 . S
O830 C819 1.258 . S
O831 La800 2.498 1_565 S
O831 C819 1.256 . S
H832 C804 0.930 . S
H833 C805 0.930 . S
H834 C807 0.929 . S
H835 C808 0.929 . S
H836 C813 0.930 1_655 S
H837 C814 0.930 . S
H838 C816 0.929 . S
H839 C817 0.929 . S
La840 C842 2.928 . S
La840 O860 2.521 . S
La840 O861 2.628 . S
La840 O862 2.554 . S
La840 O863 2.757 . S
La840 O864 2.470 . S
La840 O869 2.482 . S
La840 O871 2.503 . S
La841 C851 2.928 . S
La841 O863 2.482 . S
La841 O865 2.503 . S
La841 O866 2.521 . S
La841 O867 2.628 . S
La841 O868 2.554 . S
La841 O869 2.757 . S
La841 O870 2.470 . S
C842 La840 2.928 . S
C842 C843 1.503 . S
C842 O860 1.261 . S
C842 O861 1.243 . S
C843 C842 1.503 . S
C843 C844 1.394 . S
C843 C848 1.373 . S
C844 C843 1.394 . S
C844 C845 1.380 . S
C844 H872 0.930 . S
C845 C844 1.380 . S
C845 C846 1.376 . S
C845 H873 0.930 . S
C846 C845 1.376 . S
C846 C847 1.370 . S
C847 C846 1.370 . S
C847 C848 1.396 . S
C847 H874 0.929 . S
C848 C843 1.373 . S
C848 C847 1.396 . S
C848 H875 0.929 . S
C849 O862 1.240 . S
C849 O863 1.289 . S
C850 O864 1.258 . S
C850 O865 1.256 . S
C851 La841 2.928 . S
C851 C852 1.503 . S
C851 O866 1.261 . S
C851 O867 1.243 . S
C852 C851 1.503 . S
C852 C853 1.394 . S
C852 C857 1.373 . S
C853 C852 1.394 . S
C853 C854 1.380 . S
C853 H876 0.930 . S
C854 C853 1.380 . S
C854 C855 1.376 . S
C854 H877 0.930 . S
C855 C854 1.376 . S
C855 C856 1.370 . S
C856 C855 1.370 . S
C856 C857 1.396 . S
C856 H878 0.929 . S
C857 C852 1.373 . S
C857 C856 1.396 . S
C857 H879 0.929 . S
C858 O868 1.240 . S
C858 O869 1.289 . S
C859 O870 1.258 . S
C859 O871 1.256 . S
O860 La840 2.521 . S
O860 C842 1.261 . S
O861 La840 2.628 . S
O861 C842 1.243 . S
O862 La840 2.554 . S
O862 C849 1.240 . S
O863 La840 2.757 . S
O863 La841 2.482 . S
O863 C849 1.289 . S
O864 La840 2.470 . S
O864 C850 1.258 . S
O865 La841 2.503 . S
O865 C850 1.256 . S
O866 La841 2.521 . S
O866 C851 1.261 . S
O867 La841 2.628 . S
O867 C851 1.243 . S
O868 La841 2.554 . S
O868 C858 1.240 . S
O869 La840 2.482 . S
O869 La841 2.757 . S
O869 C858 1.289 . S
O870 La841 2.470 . S
O870 C859 1.258 . S
O871 La840 2.503 . S
O871 C859 1.256 . S
H872 C844 0.930 . S
H873 C845 0.930 . S
H874 C847 0.929 . S
H875 C848 0.929 . S
H876 C853 0.930 . S
H877 C854 0.930 . S
H878 C856 0.929 . S
H879 C857 0.929 . S
La880 C882 2.928 . S
La880 O900 2.521 . S
La880 O901 2.628 . S
La880 O902 2.554 . S
La880 O903 2.757 . S
La880 O904 2.470 . S
La880 O909 2.482 . S
La880 O911 2.503 . S
La881 C891 2.928 . S
La881 O903 2.482 . S
La881 O905 2.503 . S
La881 O906 2.521 . S
La881 O907 2.628 . S
La881 O908 2.554 . S
La881 O909 2.757 . S
La881 O910 2.470 . S
C882 La880 2.928 . S
C882 C883 1.503 . S
C882 O900 1.261 . S
C882 O901 1.243 . S
C883 C882 1.503 . S
C883 C884 1.394 . S
C883 C888 1.373 . S
C884 C883 1.394 . S
C884 C885 1.380 . S
C884 H912 0.930 . S
C885 C884 1.380 . S
C885 C886 1.376 . S
C885 H913 0.930 . S
C886 C885 1.376 . S
C886 C887 1.370 . S
C887 C886 1.370 . S
C887 C888 1.396 . S
C887 H914 0.929 . S
C888 C883 1.373 . S
C888 C887 1.396 . S
C888 H915 0.929 . S
C889 O902 1.240 . S
C889 O903 1.289 . S
C890 O904 1.258 . S
C890 O905 1.256 . S
C891 La881 2.928 . S
C891 C892 1.503 . S
C891 O906 1.261 . S
C891 O907 1.243 . S
C892 C891 1.503 . S
C892 C893 1.394 . S
C892 C897 1.373 . S
C893 C892 1.394 . S
C893 C894 1.380 1_455 S
C893 H916 0.930 1_455 S
C894 C893 1.380 1_655 S
C894 C895 1.376 1_655 S
C894 H917 0.930 . S
C895 C894 1.376 1_455 S
C895 C896 1.370 . S
C896 C895 1.370 . S
C896 C897 1.396 . S
C896 H918 0.929 . S
C897 C892 1.373 . S
C897 C896 1.396 . S
C897 H919 0.929 . S
C898 O908 1.240 . S
C898 O909 1.289 . S
C899 O910 1.258 . S
C899 O911 1.256 . S
O900 La880 2.521 . S
O900 C882 1.261 . S
O901 La880 2.628 . S
O901 C882 1.243 . S
O902 La880 2.554 . S
O902 C889 1.240 . S
O903 La880 2.757 . S
O903 La881 2.482 . S
O903 C889 1.289 . S
O904 La880 2.470 . S
O904 C890 1.258 . S
O905 La881 2.503 . S
O905 C890 1.256 . S
O906 La881 2.521 . S
O906 C891 1.261 . S
O907 La881 2.628 . S
O907 C891 1.243 . S
O908 La881 2.554 . S
O908 C898 1.240 . S
O909 La880 2.482 . S
O909 La881 2.757 . S
O909 C898 1.289 . S
O910 La881 2.470 . S
O910 C899 1.258 . S
O911 La880 2.503 . S
O911 C899 1.256 . S
H912 C884 0.930 . S
H913 C885 0.930 . S
H914 C887 0.929 . S
H915 C888 0.929 . S
H916 C893 0.930 1_655 S
H917 C894 0.930 . S
H918 C896 0.929 . S
H919 C897 0.929 . S
La920 C922 2.927 1_545 S
La920 O940 2.533 . S
La920 O941 2.615 1_545 S
La920 O942 2.585 . S
La920 O943 2.770 . S
La920 O944 2.476 . S
La920 O949 2.458 1_545 S
La920 O951 2.498 1_545 S
La921 C931 2.928 . S
La921 O943 2.482 1_565 S
La921 O945 2.503 . S
La921 O946 2.521 . S
La921 O947 2.628 1_565 S
La921 O948 2.554 . S
La921 O949 2.757 . S
La921 O950 2.470 . S
C922 La920 2.927 1_565 S
C922 C923 1.501 1_565 S
C922 O940 1.232 1_565 S
C922 O941 1.273 . S
C923 C922 1.501 1_545 S
C923 C924 1.419 . S
C923 C928 1.350 1_545 S
C924 C923 1.419 . S
C924 C925 1.380 . S
C924 H952 0.930 . S
C925 C924 1.380 . S
C925 C926 1.376 . S
C925 H953 0.930 . S
C926 C925 1.376 . S
C926 C927 1.370 1_545 S
C927 C926 1.370 1_565 S
C927 C928 1.396 . S
C927 H954 0.929 . S
C928 C923 1.350 1_565 S
C928 C927 1.396 . S
C928 H955 0.929 . S
C929 O942 1.240 . S
C929 O943 1.289 . S
C930 O944 1.259 1_565 S
C930 O945 1.256 . S
C931 La921 2.928 . S
C931 C932 1.503 . S
C931 O946 1.261 . S
C931 O947 1.243 1_565 S
C932 C931 1.503 . S
C932 C933 1.394 . S
C932 C937 1.373 1_565 S
C933 C932 1.394 . S
C933 C934 1.380 . S
C933 H956 0.930 . S
C934 C933 1.380 . S
C934 C935 1.376 . S
C934 H957 0.930 . S
C935 C934 1.376 . S
C935 C936 1.370 1_565 S
C936 C935 1.370 1_545 S
C936 C937 1.396 . S
C936 H958 0.929 . S
C937 C932 1.373 1_545 S
C937 C936 1.396 . S
C937 H959 0.929 . S
C938 O948 1.240 . S
C938 O949 1.289 . S
C939 O950 1.258 . S
C939 O951 1.256 . S
O940 La920 2.533 . S
O940 C922 1.232 1_545 S
O941 La920 2.615 1_565 S
O941 C922 1.273 . S
O942 La920 2.585 . S
O942 C929 1.240 . S
O943 La920 2.770 . S
O943 La921 2.482 1_545 S
O943 C929 1.289 . S
O944 La920 2.476 . S
O944 C930 1.259 1_545 S
O945 La921 2.503 . S
O945 C930 1.256 . S
O946 La921 2.521 . S
O946 C931 1.261 . S
O947 La921 2.628 1_545 S
O947 C931 1.243 1_545 S
O948 La921 2.554 . S
O948 C938 1.240 . S
O949 La920 2.458 1_565 S
O949 La921 2.757 . S
O949 C938 1.289 . S
O950 La921 2.470 . S
O950 C939 1.258 . S
O951 La920 2.498 1_565 S
O951 C939 1.256 . S
H952 C924 0.930 . S
H953 C925 0.930 . S
H954 C927 0.929 . S
H955 C928 0.929 . S
H956 C933 0.930 . S
H957 C934 0.930 . S
H958 C936 0.929 . S
H959 C937 0.929 . S
La960 C962 2.928 1_554 S
La960 O980 2.521 . S
La960 O981 2.628 . S
La960 O982 2.554 . S
La960 O983 2.757 . S
La960 O984 2.470 . S
La960 O989 2.482 . S
La960 O991 2.503 . S
La961 C971 2.928 . S
La961 O983 2.482 . S
La961 O985 2.503 . S
La961 O986 2.521 . S
La961 O987 2.628 . S
La961 O988 2.554 . S
La961 O989 2.757 . S
La961 O990 2.470 . S
C962 La960 2.928 1_556 S
C962 C963 1.503 . S
C962 O980 1.261 1_556 S
C962 O981 1.243 1_556 S
C963 C962 1.503 . S
C963 C964 1.394 . S
C963 C968 1.373 . S
C964 C963 1.394 . S
C964 C965 1.380 1_655 S
C964 H992 0.930 1_655 S
C965 C964 1.380 1_455 S
C965 C966 1.376 1_455 S
C965 H993 0.930 . S
C966 C965 1.376 1_655 S
C966 C967 1.370 . S
C967 C966 1.370 . S
C967 C968 1.396 . S
C967 H994 0.929 . S
C968 C963 1.373 . S
C968 C967 1.396 . S
C968 H995 0.929 . S
C969 O982 1.240 . S
C969 O983 1.289 . S
C970 O984 1.258 . S
C970 O985 1.256 . S
C971 La961 2.928 . S
C971 C972 1.503 . S
C971 O986 1.261 . S
C971 O987 1.243 . S
C972 C971 1.503 . S
C972 C973 1.394 . S
C972 C977 1.373 . S
C973 C972 1.394 . S
C973 C974 1.380 . S
C973 H996 0.930 . S
C974 C973 1.380 . S
C974 C975 1.376 . S
C974 H997 0.930 . S
C975 C974 1.376 . S
C975 C976 1.370 . S
C976 C975 1.370 . S
C976 C977 1.396 . S
C976 H998 0.929 . S
C977 C972 1.373 . S
C977 C976 1.396 . S
C977 H999 0.929 . S
C978 O988 1.240 . S
C978 O989 1.289 . S
C979 O990 1.258 . S
C979 O991 1.256 . S
O980 La960 2.521 . S
O980 C962 1.261 1_554 S
O981 La960 2.628 . S
O981 C962 1.243 1_554 S
O982 La960 2.554 . S
O982 C969 1.240 . S
O983 La960 2.757 . S
O983 La961 2.482 . S
O983 C969 1.289 . S
O984 La960 2.470 . S
O984 C970 1.258 . S
O985 La961 2.503 . S
O985 C970 1.256 . S
O986 La961 2.521 . S
O986 C971 1.261 . S
O987 La961 2.628 . S
O987 C971 1.243 . S
O988 La961 2.554 . S
O988 C978 1.240 . S
O989 La960 2.482 . S
O989 La961 2.757 . S
O989 C978 1.289 . S
O990 La961 2.470 . S
O990 C979 1.258 . S
O991 La960 2.503 . S
O991 C979 1.256 . S
H992 C964 0.930 1_455 S
H993 C965 0.930 . S
H994 C967 0.929 . S
H995 C968 0.929 . S
H996 C973 0.930 . S
H997 C974 0.930 . S
H998 C976 0.929 . S
H999 C977 0.929 . S
La1000 C1002 2.928 1_554 S
La1000 O1020 2.521 . S
La1000 O1021 2.628 . S
La1000 O1022 2.554 . S
La1000 O1023 2.757 . S
La1000 O1024 2.470 . S
La1000 O1029 2.482 . S
La1000 O1031 2.503 . S
La1001 C1011 2.928 . S
La1001 O1023 2.482 . S
La1001 O1025 2.503 . S
La1001 O1026 2.521 . S
La1001 O1027 2.628 . S
La1001 O1028 2.554 . S
La1001 O1029 2.757 . S
La1001 O1030 2.470 . S
C1002 La1000 2.928 1_556 S
C1002 C1003 1.503 . S
C1002 O1020 1.261 1_556 S
C1002 O1021 1.243 1_556 S
C1003 C1002 1.503 . S
C1003 C1004 1.394 . S
C1003 C1008 1.373 . S
C1004 C1003 1.394 . S
C1004 C1005 1.380 . S
C1004 H1032 0.930 . S
C1005 C1004 1.380 . S
C1005 C1006 1.376 . S
C1005 H1033 0.930 . S
C1006 C1005 1.376 . S
C1006 C1007 1.370 . S
C1007 C1006 1.370 . S
C1007 C1008 1.396 . S
C1007 H1034 0.929 . S
C1008 C1003 1.373 . S
C1008 C1007 1.396 . S
C1008 H1035 0.929 . S
C1009 O1022 1.240 . S
C1009 O1023 1.289 . S
C1010 O1024 1.258 . S
C1010 O1025 1.256 . S
C1011 La1001 2.928 . S
C1011 C1012 1.503 . S
C1011 O1026 1.261 . S
C1011 O1027 1.243 . S
C1012 C1011 1.503 . S
C1012 C1013 1.394 . S
C1012 C1017 1.373 . S
C1013 C1012 1.394 . S
C1013 C1014 1.380 . S
C1013 H1036 0.930 . S
C1014 C1013 1.380 . S
C1014 C1015 1.376 . S
C1014 H1037 0.930 . S
C1015 C1014 1.376 . S
C1015 C1016 1.370 . S
C1016 C1015 1.370 . S
C1016 C1017 1.396 . S
C1016 H1038 0.929 . S
C1017 C1012 1.373 . S
C1017 C1016 1.396 . S
C1017 H1039 0.929 . S
C1018 O1028 1.240 . S
C1018 O1029 1.289 . S
C1019 O1030 1.258 . S
C1019 O1031 1.256 . S
O1020 La1000 2.521 . S
O1020 C1002 1.261 1_554 S
O1021 La1000 2.628 . S
O1021 C1002 1.243 1_554 S
O1022 La1000 2.554 . S
O1022 C1009 1.240 . S
O1023 La1000 2.757 . S
O1023 La1001 2.482 . S
O1023 C1009 1.289 . S
O1024 La1000 2.470 . S
O1024 C1010 1.258 . S
O1025 La1001 2.503 . S
O1025 C1010 1.256 . S
O1026 La1001 2.521 . S
O1026 C1011 1.261 . S
O1027 La1001 2.628 . S
O1027 C1011 1.243 . S
O1028 La1001 2.554 . S
O1028 C1018 1.240 . S
O1029 La1000 2.482 . S
O1029 La1001 2.757 . S
O1029 C1018 1.289 . S
O1030 La1001 2.470 . S
O1030 C1019 1.258 . S
O1031 La1000 2.503 . S
O1031 C1019 1.256 . S
H1032 C1004 0.930 . S
H1033 C1005 0.930 . S
H1034 C1007 0.929 . S
H1035 C1008 0.929 . S
H1036 C1013 0.930 . S
H1037 C1014 0.930 . S
H1038 C1016 0.929 . S
H1039 C1017 0.929 . S
La1040 C1042 2.928 . S
La1040 O1060 2.521 . S
La1040 O1061 2.628 . S
La1040 O1062 2.554 . S
La1040 O1063 2.757 . S
La1040 O1064 2.470 . S
La1040 O1069 2.482 . S
La1040 O1071 2.503 . S
La1041 C1051 2.928 . S
La1041 O1063 2.482 . S
La1041 O1065 2.503 . S
La1041 O1066 2.521 . S
La1041 O1067 2.628 . S
La1041 O1068 2.554 . S
La1041 O1069 2.757 . S
La1041 O1070 2.470 . S
C1042 La1040 2.928 . S
C1042 C1043 1.503 . S
C1042 O1060 1.261 . S
C1042 O1061 1.243 . S
C1043 C1042 1.503 . S
C1043 C1044 1.394 . S
C1043 C1048 1.373 . S
C1044 C1043 1.394 . S
C1044 C1045 1.380 1_655 S
C1044 H1072 0.930 1_655 S
C1045 C1044 1.380 1_455 S
C1045 C1046 1.376 1_455 S
C1045 H1073 0.930 . S
C1046 C1045 1.376 1_655 S
C1046 C1047 1.370 . S
C1047 C1046 1.370 . S
C1047 C1048 1.396 . S
C1047 H1074 0.929 . S
C1048 C1043 1.373 . S
C1048 C1047 1.396 . S
C1048 H1075 0.929 . S
C1049 O1062 1.240 . S
C1049 O1063 1.289 . S
C1050 O1064 1.258 . S
C1050 O1065 1.256 . S
C1051 La1041 2.928 . S
C1051 C1052 1.503 . S
C1051 O1066 1.261 . S
C1051 O1067 1.243 . S
C1052 C1051 1.503 . S
C1052 C1053 1.394 . S
C1052 C1057 1.373 . S
C1053 C1052 1.394 . S
C1053 C1054 1.380 . S
C1053 H1076 0.930 . S
C1054 C1053 1.380 . S
C1054 C1055 1.376 . S
C1054 H1077 0.930 . S
C1055 C1054 1.376 . S
C1055 C1056 1.370 . S
C1056 C1055 1.370 . S
C1056 C1057 1.396 . S
C1056 H1078 0.929 . S
C1057 C1052 1.373 . S
C1057 C1056 1.396 . S
C1057 H1079 0.929 . S
C1058 O1068 1.240 . S
C1058 O1069 1.289 . S
C1059 O1070 1.258 . S
C1059 O1071 1.256 . S
O1060 La1040 2.521 . S
O1060 C1042 1.261 . S
O1061 La1040 2.628 . S
O1061 C1042 1.243 . S
O1062 La1040 2.554 . S
O1062 C1049 1.240 . S
O1063 La1040 2.757 . S
O1063 La1041 2.482 . S
O1063 C1049 1.289 . S
O1064 La1040 2.470 . S
O1064 C1050 1.258 . S
O1065 La1041 2.503 . S
O1065 C1050 1.256 . S
O1066 La1041 2.521 . S
O1066 C1051 1.261 . S
O1067 La1041 2.628 . S
O1067 C1051 1.243 . S
O1068 La1041 2.554 . S
O1068 C1058 1.240 . S
O1069 La1040 2.482 . S
O1069 La1041 2.757 . S
O1069 C1058 1.289 . S
O1070 La1041 2.470 . S
O1070 C1059 1.258 . S
O1071 La1040 2.503 . S
O1071 C1059 1.256 . S
H1072 C1044 0.930 1_455 S
H1073 C1045 0.930 . S
H1074 C1047 0.929 . S
H1075 C1048 0.929 . S
H1076 C1053 0.930 . S
H1077 C1054 0.930 . S
H1078 C1056 0.929 . S
H1079 C1057 0.929 . S
La1080 C1082 2.928 . S
La1080 O1100 2.521 . S
La1080 O1101 2.628 . S
La1080 O1102 2.554 . S
La1080 O1103 2.757 . S
La1080 O1104 2.470 . S
La1080 O1109 2.482 . S
La1080 O1111 2.503 . S
La1081 C1091 2.928 . S
La1081 O1103 2.482 . S
La1081 O1105 2.503 . S
La1081 O1106 2.521 . S
La1081 O1107 2.628 . S
La1081 O1108 2.554 . S
La1081 O1109 2.757 . S
La1081 O1110 2.470 . S
C1082 La1080 2.928 . S
C1082 C1083 1.503 . S
C1082 O1100 1.261 . S
C1082 O1101 1.243 . S
C1083 C1082 1.503 . S
C1083 C1084 1.394 . S
C1083 C1088 1.373 . S
C1084 C1083 1.394 . S
C1084 C1085 1.380 . S
C1084 H1112 0.930 . S
C1085 C1084 1.380 . S
C1085 C1086 1.376 . S
C1085 H1113 0.930 . S
C1086 C1085 1.376 . S
C1086 C1087 1.370 . S
C1087 C1086 1.370 . S
C1087 C1088 1.396 . S
C1087 H1114 0.929 . S
C1088 C1083 1.373 . S
C1088 C1087 1.396 . S
C1088 H1115 0.929 . S
C1089 O1102 1.240 . S
C1089 O1103 1.289 . S
C1090 O1104 1.258 . S
C1090 O1105 1.256 . S
C1091 La1081 2.928 . S
C1091 C1092 1.503 . S
C1091 O1106 1.261 . S
C1091 O1107 1.243 . S
C1092 C1091 1.503 . S
C1092 C1093 1.394 . S
C1092 C1097 1.373 . S
C1093 C1092 1.394 . S
C1093 C1094 1.380 . S
C1093 H1116 0.930 . S
C1094 C1093 1.380 . S
C1094 C1095 1.376 . S
C1094 H1117 0.930 . S
C1095 C1094 1.376 . S
C1095 C1096 1.370 . S
C1096 C1095 1.370 . S
C1096 C1097 1.396 . S
C1096 H1118 0.929 . S
C1097 C1092 1.373 . S
C1097 C1096 1.396 . S
C1097 H1119 0.929 . S
C1098 O1108 1.240 . S
C1098 O1109 1.289 . S
C1099 O1110 1.258 . S
C1099 O1111 1.256 . S
O1100 La1080 2.521 . S
O1100 C1082 1.261 . S
O1101 La1080 2.628 . S
O1101 C1082 1.243 . S
O1102 La1080 2.554 . S
O1102 C1089 1.240 . S
O1103 La1080 2.757 . S
O1103 La1081 2.482 . S
O1103 C1089 1.289 . S
O1104 La1080 2.470 . S
O1104 C1090 1.258 . S
O1105 La1081 2.503 . S
O1105 C1090 1.256 . S
O1106 La1081 2.521 . S
O1106 C1091 1.261 . S
O1107 La1081 2.628 . S
O1107 C1091 1.243 . S
O1108 La1081 2.554 . S
O1108 C1098 1.240 . S
O1109 La1080 2.482 . S
O1109 La1081 2.757 . S
O1109 C1098 1.289 . S
O1110 La1081 2.470 . S
O1110 C1099 1.258 . S
O1111 La1080 2.503 . S
O1111 C1099 1.256 . S
H1112 C1084 0.930 . S
H1113 C1085 0.930 . S
H1114 C1087 0.929 . S
H1115 C1088 0.929 . S
H1116 C1093 0.930 . S
H1117 C1094 0.930 . S
H1118 C1096 0.929 . S
H1119 C1097 0.929 . S
La1120 C1122 2.928 . S
La1120 O1140 2.521 . S
La1120 O1141 2.628 . S
La1120 O1142 2.554 . S
La1120 O1143 2.757 . S
La1120 O1144 2.470 . S
La1120 O1149 2.482 . S
La1120 O1151 2.503 . S
La1121 C1131 2.928 1_556 S
La1121 O1143 2.482 . S
La1121 O1145 2.503 . S
La1121 O1146 2.521 . S
La1121 O1147 2.628 . S
La1121 O1148 2.554 . S
La1121 O1149 2.757 . S
La1121 O1150 2.470 . S
C1122 La1120 2.928 . S
C1122 C1123 1.503 . S
C1122 O1140 1.261 . S
C1122 O1141 1.243 . S
C1123 C1122 1.503 . S
C1123 C1124 1.394 . S
C1123 C1128 1.373 . S
C1124 C1123 1.394 . S
C1124 C1125 1.380 . S
C1124 H1152 0.930 . S
C1125 C1124 1.380 . S
C1125 C1126 1.376 . S
C1125 H1153 0.930 . S
C1126 C1125 1.376 . S
C1126 C1127 1.370 . S
C1127 C1126 1.370 . S
C1127 C1128 1.396 . S
C1127 H1154 0.929 . S
C1128 C1123 1.373 . S
C1128 C1127 1.396 . S
C1128 H1155 0.929 . S
C1129 O1142 1.240 . S
C1129 O1143 1.289 . S
C1130 O1144 1.258 . S
C1130 O1145 1.256 . S
C1131 La1121 2.928 1_554 S
C1131 C1132 1.503 . S
C1131 O1146 1.261 1_554 S
C1131 O1147 1.243 1_554 S
C1132 C1131 1.503 . S
C1132 C1133 1.394 . S
C1132 C1137 1.373 . S
C1133 C1132 1.394 . S
C1133 C1134 1.380 1_455 S
C1133 H1156 0.930 1_455 S
C1134 C1133 1.380 1_655 S
C1134 C1135 1.376 1_655 S
C1134 H1157 0.930 . S
C1135 C1134 1.376 1_455 S
C1135 C1136 1.370 . S
C1136 C1135 1.370 . S
C1136 C1137 1.396 . S
C1136 H1158 0.929 . S
C1137 C1132 1.373 . S
C1137 C1136 1.396 . S
C1137 H1159 0.929 . S
C1138 O1148 1.240 . S
C1138 O1149 1.289 . S
C1139 O1150 1.258 . S
C1139 O1151 1.256 . S
O1140 La1120 2.521 . S
O1140 C1122 1.261 . S
O1141 La1120 2.628 . S
O1141 C1122 1.243 . S
O1142 La1120 2.554 . S
O1142 C1129 1.240 . S
O1143 La1120 2.757 . S
O1143 La1121 2.482 . S
O1143 C1129 1.289 . S
O1144 La1120 2.470 . S
O1144 C1130 1.258 . S
O1145 La1121 2.503 . S
O1145 C1130 1.256 . S
O1146 La1121 2.521 . S
O1146 C1131 1.261 1_556 S
O1147 La1121 2.628 . S
O1147 C1131 1.243 1_556 S
O1148 La1121 2.554 . S
O1148 C1138 1.240 . S
O1149 La1120 2.482 . S
O1149 La1121 2.757 . S
O1149 C1138 1.289 . S
O1150 La1121 2.470 . S
O1150 C1139 1.258 . S
O1151 La1120 2.503 . S
O1151 C1139 1.256 . S
H1152 C1124 0.930 . S
H1153 C1125 0.930 . S
H1154 C1127 0.929 . S
H1155 C1128 0.929 . S
H1156 C1133 0.930 1_655 S
H1157 C1134 0.930 . S
H1158 C1136 0.929 . S
H1159 C1137 0.929 . S
La1160 C1162 2.928 . S
La1160 O1180 2.521 . S
La1160 O1181 2.628 . S
La1160 O1182 2.554 . S
La1160 O1183 2.757 . S
La1160 O1184 2.470 . S
La1160 O1189 2.482 . S
La1160 O1191 2.503 . S
La1161 C1171 2.928 1_556 S
La1161 O1183 2.482 . S
La1161 O1185 2.503 . S
La1161 O1186 2.521 . S
La1161 O1187 2.628 . S
La1161 O1188 2.554 . S
La1161 O1189 2.757 . S
La1161 O1190 2.470 . S
C1162 La1160 2.928 . S
C1162 C1163 1.503 . S
C1162 O1180 1.261 . S
C1162 O1181 1.243 . S
C1163 C1162 1.503 . S
C1163 C1164 1.394 . S
C1163 C1168 1.373 . S
C1164 C1163 1.394 . S
C1164 C1165 1.380 . S
C1164 H1192 0.930 . S
C1165 C1164 1.380 . S
C1165 C1166 1.376 . S
C1165 H1193 0.930 . S
C1166 C1165 1.376 . S
C1166 C1167 1.370 . S
C1167 C1166 1.370 . S
C1167 C1168 1.396 . S
C1167 H1194 0.929 . S
C1168 C1163 1.373 . S
C1168 C1167 1.396 . S
C1168 H1195 0.929 . S
C1169 O1182 1.240 . S
C1169 O1183 1.289 . S
C1170 O1184 1.258 . S
C1170 O1185 1.256 . S
C1171 La1161 2.928 1_554 S
C1171 C1172 1.503 . S
C1171 O1186 1.261 1_554 S
C1171 O1187 1.243 1_554 S
C1172 C1171 1.503 . S
C1172 C1173 1.394 . S
C1172 C1177 1.373 . S
C1173 C1172 1.394 . S
C1173 C1174 1.380 . S
C1173 H1196 0.930 . S
C1174 C1173 1.380 . S
C1174 C1175 1.376 . S
C1174 H1197 0.930 . S
C1175 C1174 1.376 . S
C1175 C1176 1.370 . S
C1176 C1175 1.370 . S
C1176 C1177 1.396 . S
C1176 H1198 0.929 . S
C1177 C1172 1.373 . S
C1177 C1176 1.396 . S
C1177 H1199 0.929 . S
C1178 O1188 1.240 . S
C1178 O1189 1.289 . S
C1179 O1190 1.258 . S
C1179 O1191 1.256 . S
O1180 La1160 2.521 . S
O1180 C1162 1.261 . S
O1181 La1160 2.628 . S
O1181 C1162 1.243 . S
O1182 La1160 2.554 . S
O1182 C1169 1.240 . S
O1183 La1160 2.757 . S
O1183 La1161 2.482 . S
O1183 C1169 1.289 . S
O1184 La1160 2.470 . S
O1184 C1170 1.258 . S
O1185 La1161 2.503 . S
O1185 C1170 1.256 . S
O1186 La1161 2.521 . S
O1186 C1171 1.261 1_556 S
O1187 La1161 2.628 . S
O1187 C1171 1.243 1_556 S
O1188 La1161 2.554 . S
O1188 C1178 1.240 . S
O1189 La1160 2.482 . S
O1189 La1161 2.757 . S
O1189 C1178 1.289 . S
O1190 La1161 2.470 . S
O1190 C1179 1.258 . S
O1191 La1160 2.503 . S
O1191 C1179 1.256 . S
H1192 C1164 0.930 . S
H1193 C1165 0.930 . S
H1194 C1167 0.929 . S
H1195 C1168 0.929 . S
H1196 C1173 0.930 . S
H1197 C1174 0.930 . S
H1198 C1176 0.929 . S
H1199 C1177 0.929 . S
La1200 C1202 2.928 . S
La1200 O1220 2.521 . S
La1200 O1221 2.628 . S
La1200 O1222 2.554 . S
La1200 O1223 2.757 . S
La1200 O1224 2.470 . S
La1200 O1229 2.482 . S
La1200 O1231 2.503 . S
La1201 C1211 2.928 . S
La1201 O1223 2.482 . S
La1201 O1225 2.503 . S
La1201 O1226 2.521 . S
La1201 O1227 2.628 . S
La1201 O1228 2.554 . S
La1201 O1229 2.757 . S
La1201 O1230 2.470 . S
C1202 La1200 2.928 . S
C1202 C1203 1.503 . S
C1202 O1220 1.261 . S
C1202 O1221 1.243 . S
C1203 C1202 1.503 . S
C1203 C1204 1.394 . S
C1203 C1208 1.373 . S
C1204 C1203 1.394 . S
C1204 C1205 1.380 . S
C1204 H1232 0.930 . S
C1205 C1204 1.380 . S
C1205 C1206 1.376 . S
C1205 H1233 0.930 . S
C1206 C1205 1.376 . S
C1206 C1207 1.370 . S
C1207 C1206 1.370 . S
C1207 C1208 1.396 . S
C1207 H1234 0.929 . S
C1208 C1203 1.373 . S
C1208 C1207 1.396 . S
C1208 H1235 0.929 . S
C1209 O1222 1.240 . S
C1209 O1223 1.289 . S
C1210 O1224 1.258 . S
C1210 O1225 1.256 . S
C1211 La1201 2.928 . S
C1211 C1212 1.503 . S
C1211 O1226 1.261 . S
C1211 O1227 1.243 . S
C1212 C1211 1.503 . S
C1212 C1213 1.394 . S
C1212 C1217 1.373 . S
C1213 C1212 1.394 . S
C1213 C1214 1.380 1_455 S
C1213 H1236 0.930 1_455 S
C1214 C1213 1.380 1_655 S
C1214 C1215 1.376 1_655 S
C1214 H1237 0.930 . S
C1215 C1214 1.376 1_455 S
C1215 C1216 1.370 . S
C1216 C1215 1.370 . S
C1216 C1217 1.396 . S
C1216 H1238 0.929 . S
C1217 C1212 1.373 . S
C1217 C1216 1.396 . S
C1217 H1239 0.929 . S
C1218 O1228 1.240 . S
C1218 O1229 1.289 . S
C1219 O1230 1.258 . S
C1219 O1231 1.256 . S
O1220 La1200 2.521 . S
O1220 C1202 1.261 . S
O1221 La1200 2.628 . S
O1221 C1202 1.243 . S
O1222 La1200 2.554 . S
O1222 C1209 1.240 . S
O1223 La1200 2.757 . S
O1223 La1201 2.482 . S
O1223 C1209 1.289 . S
O1224 La1200 2.470 . S
O1224 C1210 1.258 . S
O1225 La1201 2.503 . S
O1225 C1210 1.256 . S
O1226 La1201 2.521 . S
O1226 C1211 1.261 . S
O1227 La1201 2.628 . S
O1227 C1211 1.243 . S
O1228 La1201 2.554 . S
O1228 C1218 1.240 . S
O1229 La1200 2.482 . S
O1229 La1201 2.757 . S
O1229 C1218 1.289 . S
O1230 La1201 2.470 . S
O1230 C1219 1.258 . S
O1231 La1200 2.503 . S
O1231 C1219 1.256 . S
H1232 C1204 0.930 . S
H1233 C1205 0.930 . S
H1234 C1207 0.929 . S
H1235 C1208 0.929 . S
H1236 C1213 0.930 1_655 S
H1237 C1214 0.930 . S
H1238 C1216 0.929 . S
H1239 C1217 0.929 . S
La1240 C1242 2.928 . S
La1240 O1260 2.521 . S
La1240 O1261 2.628 . S
La1240 O1262 2.554 . S
La1240 O1263 2.757 . S
La1240 O1264 2.470 . S
La1240 O1269 2.482 . S
La1240 O1271 2.503 . S
La1241 C1251 2.928 . S
La1241 O1263 2.482 . S
La1241 O1265 2.503 . S
La1241 O1266 2.521 . S
La1241 O1267 2.628 . S
La1241 O1268 2.554 . S
La1241 O1269 2.757 . S
La1241 O1270 2.470 . S
C1242 La1240 2.928 . S
C1242 C1243 1.503 . S
C1242 O1260 1.261 . S
C1242 O1261 1.243 . S
C1243 C1242 1.503 . S
C1243 C1244 1.394 . S
C1243 C1248 1.373 . S
C1244 C1243 1.394 . S
C1244 C1245 1.380 . S
C1244 H1272 0.930 . S
C1245 C1244 1.380 . S
C1245 C1246 1.376 . S
C1245 H1273 0.930 . S
C1246 C1245 1.376 . S
C1246 C1247 1.370 . S
C1247 C1246 1.370 . S
C1247 C1248 1.396 . S
C1247 H1274 0.929 . S
C1248 C1243 1.373 . S
C1248 C1247 1.396 . S
C1248 H1275 0.929 . S
C1249 O1262 1.240 . S
C1249 O1263 1.289 . S
C1250 O1264 1.258 . S
C1250 O1265 1.256 . S
C1251 La1241 2.928 . S
C1251 C1252 1.503 . S
C1251 O1266 1.261 . S
C1251 O1267 1.243 . S
C1252 C1251 1.503 . S
C1252 C1253 1.394 . S
C1252 C1257 1.373 . S
C1253 C1252 1.394 . S
C1253 C1254 1.380 . S
C1253 H1276 0.930 . S
C1254 C1253 1.380 . S
C1254 C1255 1.376 . S
C1254 H1277 0.930 . S
C1255 C1254 1.376 . S
C1255 C1256 1.370 . S
C1256 C1255 1.370 . S
C1256 C1257 1.396 . S
C1256 H1278 0.929 . S
C1257 C1252 1.373 . S
C1257 C1256 1.396 . S
C1257 H1279 0.929 . S
C1258 O1268 1.240 . S
C1258 O1269 1.289 . S
C1259 O1270 1.258 . S
C1259 O1271 1.256 . S
O1260 La1240 2.521 . S
O1260 C1242 1.261 . S
O1261 La1240 2.628 . S
O1261 C1242 1.243 . S
O1262 La1240 2.554 . S
O1262 C1249 1.240 . S
O1263 La1240 2.757 . S
O1263 La1241 2.482 . S
O1263 C1249 1.289 . S
O1264 La1240 2.470 . S
O1264 C1250 1.258 . S
O1265 La1241 2.503 . S
O1265 C1250 1.256 . S
O1266 La1241 2.521 . S
O1266 C1251 1.261 . S
O1267 La1241 2.628 . S
O1267 C1251 1.243 . S
O1268 La1241 2.554 . S
O1268 C1258 1.240 . S
O1269 La1240 2.482 . S
O1269 La1241 2.757 . S
O1269 C1258 1.289 . S
O1270 La1241 2.470 . S
O1270 C1259 1.258 . S
O1271 La1240 2.503 . S
O1271 C1259 1.256 . S
H1272 C1244 0.930 . S
H1273 C1245 0.930 . S
H1274 C1247 0.929 . S
H1275 C1248 0.929 . S
H1276 C1253 0.930 . S
H1277 C1254 0.930 . S
H1278 C1256 0.929 . S
H1279 C1257 0.929 . S
C1280 C1281 1.369 . S
C1280 C1282 1.419 . S
C1280 H1284 0.930 . S
C1281 C1280 1.369 . S
C1281 C1290 1.429 . S
C1282 C1280 1.419 . S
C1282 C1283 1.363 . S
C1282 H1285 0.929 . S
C1283 C1282 1.363 . S
C1283 C1289 1.428 . S
H1284 C1280 0.930 . S
H1285 C1282 0.929 . S
S1286 N1287 1.613 . S
S1286 N1288 1.610 . S
N1287 S1286 1.613 . S
N1287 C1290 1.350 . S
N1288 S1286 1.610 . S
N1288 C1289 1.351 . S
C1289 C1283 1.428 . S
C1289 N1288 1.351 . S
C1289 C1290 1.434 . S
C1290 C1281 1.429 . S
C1290 N1287 1.350 . S
C1290 C1289 1.434 . S
C1291 C1292 1.369 . S
C1291 C1293 1.419 . S
C1291 H1295 0.930 . S
C1292 C1291 1.369 . S
C1292 C1301 1.429 . S
C1293 C1291 1.419 . S
C1293 C1294 1.363 . S
C1293 H1296 0.929 . S
C1294 C1293 1.363 . S
C1294 C1300 1.428 . S
H1295 C1291 0.930 . S
H1296 C1293 0.929 . S
S1297 N1298 1.613 . S
S1297 N1299 1.610 . S
N1298 S1297 1.613 . S
N1298 C1301 1.350 . S
N1299 S1297 1.610 . S
N1299 C1300 1.351 . S
C1300 C1294 1.428 . S
C1300 N1299 1.351 . S
C1300 C1301 1.434 . S
C1301 C1292 1.429 . S
C1301 N1298 1.350 . S
C1301 C1300 1.434 . S
C1302 C1303 1.369 . S
C1302 C1304 1.419 . S
C1302 H1306 0.930 . S
C1303 C1302 1.369 . S
C1303 C1312 1.429 . S
C1304 C1302 1.419 . S
C1304 C1305 1.363 . S
C1304 H1307 0.929 . S
C1305 C1304 1.363 . S
C1305 C1311 1.428 . S
H1306 C1302 0.930 . S
H1307 C1304 0.929 . S
S1308 N1309 1.613 . S
S1308 N1310 1.610 . S
N1309 S1308 1.613 . S
N1309 C1312 1.350 . S
N1310 S1308 1.610 . S
N1310 C1311 1.351 . S
C1311 C1305 1.428 . S
C1311 N1310 1.351 . S
C1311 C1312 1.434 . S
C1312 C1303 1.429 . S
C1312 N1309 1.350 . S
C1312 C1311 1.434 . S
C1313 C1314 1.369 . S
C1313 C1315 1.419 . S
C1313 H1317 0.930 . S
C1314 C1313 1.369 . S
C1314 C1323 1.429 . S
C1315 C1313 1.419 . S
C1315 C1316 1.363 . S
C1315 H1318 0.929 . S
C1316 C1315 1.363 . S
C1316 C1322 1.428 . S
H1317 C1313 0.930 . S
H1318 C1315 0.929 . S
S1319 N1320 1.613 . S
S1319 N1321 1.610 . S
N1320 S1319 1.613 . S
N1320 C1323 1.350 . S
N1321 S1319 1.610 . S
N1321 C1322 1.351 . S
C1322 C1316 1.428 . S
C1322 N1321 1.351 . S
C1322 C1323 1.434 . S
C1323 C1314 1.429 . S
C1323 N1320 1.350 . S
C1323 C1322 1.434 . S
C1324 C1325 1.369 . S
C1324 C1326 1.419 . S
C1324 H1328 0.930 . S
C1325 C1324 1.369 . S
C1325 C1334 1.429 . S
C1326 C1324 1.419 . S
C1326 C1327 1.363 . S
C1326 H1329 0.929 . S
C1327 C1326 1.363 . S
C1327 C1333 1.428 . S
H1328 C1324 0.930 . S
H1329 C1326 0.929 . S
S1330 N1331 1.613 . S
S1330 N1332 1.610 . S
N1331 S1330 1.613 . S
N1331 C1334 1.350 . S
N1332 S1330 1.610 . S
N1332 C1333 1.351 . S
C1333 C1327 1.428 . S
C1333 N1332 1.351 . S
C1333 C1334 1.434 . S
C1334 C1325 1.429 . S
C1334 N1331 1.350 . S
C1334 C1333 1.434 . S
C1335 C1336 1.369 . S
C1335 C1337 1.419 . S
C1335 H1339 0.930 . S
C1336 C1335 1.369 . S
C1336 C1345 1.429 . S
C1337 C1335 1.419 . S
C1337 C1338 1.363 . S
C1337 H1340 0.929 . S
C1338 C1337 1.363 . S
C1338 C1344 1.428 . S
H1339 C1335 0.930 . S
H1340 C1337 0.929 . S
S1341 N1342 1.613 . S
S1341 N1343 1.610 . S
N1342 S1341 1.613 . S
N1342 C1345 1.350 . S
N1343 S1341 1.610 . S
N1343 C1344 1.351 . S
C1344 C1338 1.428 . S
C1344 N1343 1.351 . S
C1344 C1345 1.434 . S
C1345 C1336 1.429 . S
C1345 N1342 1.350 . S
C1345 C1344 1.434 . S
C1346 C1347 1.369 . S
C1346 C1348 1.419 . S
C1346 H1350 0.930 . S
C1347 C1346 1.369 . S
C1347 C1356 1.429 . S
C1348 C1346 1.419 . S
C1348 C1349 1.363 . S
C1348 H1351 0.929 . S
C1349 C1348 1.363 . S
C1349 C1355 1.428 . S
H1350 C1346 0.930 . S
H1351 C1348 0.929 . S
S1352 N1353 1.613 . S
S1352 N1354 1.610 . S
N1353 S1352 1.613 . S
N1353 C1356 1.350 . S
N1354 S1352 1.610 . S
N1354 C1355 1.351 . S
C1355 C1349 1.428 . S
C1355 N1354 1.351 . S
C1355 C1356 1.434 . S
C1356 C1347 1.429 . S
C1356 N1353 1.350 . S
C1356 C1355 1.434 . S
C1357 C1358 1.369 . S
C1357 C1359 1.419 . S
C1357 H1361 0.930 . S
C1358 C1357 1.369 . S
C1358 C1367 1.429 . S
C1359 C1357 1.419 . S
C1359 C1360 1.363 . S
C1359 H1362 0.929 . S
C1360 C1359 1.363 . S
C1360 C1366 1.428 . S
H1361 C1357 0.930 . S
H1362 C1359 0.929 . S
S1363 N1364 1.613 . S
S1363 N1365 1.610 . S
N1364 S1363 1.613 . S
N1364 C1367 1.350 . S
N1365 S1363 1.610 . S
N1365 C1366 1.351 . S
C1366 C1360 1.428 . S
C1366 N1365 1.351 . S
C1366 C1367 1.434 . S
C1367 C1358 1.429 . S
C1367 N1364 1.350 . S
C1367 C1366 1.434 . S
C1368 C1369 1.369 . S
C1368 C1370 1.419 . S
C1368 H1372 0.930 . S
C1369 C1368 1.369 . S
C1369 C1378 1.429 . S
C1370 C1368 1.419 . S
C1370 C1371 1.363 . S
C1370 H1373 0.929 . S
C1371 C1370 1.363 . S
C1371 C1377 1.428 . S
H1372 C1368 0.930 . S
H1373 C1370 0.929 . S
S1374 N1375 1.613 . S
S1374 N1376 1.610 . S
N1375 S1374 1.613 . S
N1375 C1378 1.350 . S
N1376 S1374 1.610 . S
N1376 C1377 1.351 . S
C1377 C1371 1.428 . S
C1377 N1376 1.351 . S
C1377 C1378 1.434 . S
C1378 C1369 1.429 . S
C1378 N1375 1.350 . S
C1378 C1377 1.434 . S
C1379 C1380 1.369 . S
C1379 C1381 1.419 . S
C1379 H1383 0.930 . S
C1380 C1379 1.369 . S
C1380 C1389 1.429 . S
C1381 C1379 1.419 . S
C1381 C1382 1.363 . S
C1381 H1384 0.929 . S
C1382 C1381 1.363 . S
C1382 C1388 1.428 . S
H1383 C1379 0.930 . S
H1384 C1381 0.929 . S
S1385 N1386 1.613 . S
S1385 N1387 1.610 . S
N1386 S1385 1.613 . S
N1386 C1389 1.350 . S
N1387 S1385 1.610 . S
N1387 C1388 1.351 . S
C1388 C1382 1.428 . S
C1388 N1387 1.351 . S
C1388 C1389 1.434 . S
C1389 C1380 1.429 . S
C1389 N1386 1.350 . S
C1389 C1388 1.434 . S
C1390 C1391 1.369 . S
C1390 C1392 1.419 . S
C1390 H1394 0.930 . S
C1391 C1390 1.369 . S
C1391 C1400 1.429 . S
C1392 C1390 1.419 . S
C1392 C1393 1.363 . S
C1392 H1395 0.929 . S
C1393 C1392 1.363 . S
C1393 C1399 1.428 . S
H1394 C1390 0.930 . S
H1395 C1392 0.929 . S
S1396 N1397 1.613 . S
S1396 N1398 1.610 . S
N1397 S1396 1.613 . S
N1397 C1400 1.350 . S
N1398 S1396 1.610 . S
N1398 C1399 1.351 . S
C1399 C1393 1.428 . S
C1399 N1398 1.351 . S
C1399 C1400 1.434 . S
C1400 C1391 1.429 . S
C1400 N1397 1.350 . S
C1400 C1399 1.434 . S
C1401 C1402 1.369 . S
C1401 C1403 1.419 . S
C1401 H1405 0.930 . S
C1402 C1401 1.369 . S
C1402 C1411 1.429 . S
C1403 C1401 1.419 . S
C1403 C1404 1.363 . S
C1403 H1406 0.929 . S
C1404 C1403 1.363 . S
C1404 C1410 1.428 . S
H1405 C1401 0.930 . S
H1406 C1403 0.929 . S
S1407 N1408 1.613 . S
S1407 N1409 1.610 . S
N1408 S1407 1.613 . S
N1408 C1411 1.350 . S
N1409 S1407 1.610 . S
N1409 C1410 1.351 . S
C1410 C1404 1.428 . S
C1410 N1409 1.351 . S
C1410 C1411 1.434 . S
C1411 C1402 1.429 . S
C1411 N1408 1.350 . S
C1411 C1410 1.434 . S
C1412 C1413 1.369 . S
C1412 C1414 1.419 . S
C1412 H1416 0.930 . S
C1413 C1412 1.369 . S
C1413 C1422 1.429 . S
C1414 C1412 1.419 . S
C1414 C1415 1.363 . S
C1414 H1417 0.929 . S
C1415 C1414 1.363 . S
C1415 C1421 1.428 . S
H1416 C1412 0.930 . S
H1417 C1414 0.929 . S
S1418 N1419 1.613 . S
S1418 N1420 1.610 . S
N1419 S1418 1.613 . S
N1419 C1422 1.350 . S
N1420 S1418 1.610 . S
N1420 C1421 1.351 . S
C1421 C1415 1.428 . S
C1421 N1420 1.351 . S
C1421 C1422 1.434 . S
C1422 C1413 1.429 . S
C1422 N1419 1.350 . S
C1422 C1421 1.434 . S
C1423 C1424 1.369 . S
C1423 C1425 1.419 . S
C1423 H1427 0.930 . S
C1424 C1423 1.369 . S
C1424 C1433 1.429 . S
C1425 C1423 1.419 . S
C1425 C1426 1.363 . S
C1425 H1428 0.929 . S
C1426 C1425 1.363 . S
C1426 C1432 1.428 . S
H1427 C1423 0.930 . S
H1428 C1425 0.929 . S
S1429 N1430 1.613 . S
S1429 N1431 1.610 . S
N1430 S1429 1.613 . S
N1430 C1433 1.350 . S
N1431 S1429 1.610 . S
N1431 C1432 1.351 . S
C1432 C1426 1.428 . S
C1432 N1431 1.351 . S
C1432 C1433 1.434 . S
C1433 C1424 1.429 . S
C1433 N1430 1.350 . S
C1433 C1432 1.434 . S
C1434 C1435 1.369 . S
C1434 C1436 1.419 . S
C1434 H1438 0.930 . S
C1435 C1434 1.369 . S
C1435 C1444 1.429 . S
C1436 C1434 1.419 . S
C1436 C1437 1.363 . S
C1436 H1439 0.929 . S
C1437 C1436 1.363 . S
C1437 C1443 1.428 . S
H1438 C1434 0.930 . S
H1439 C1436 0.929 . S
S1440 N1441 1.613 . S
S1440 N1442 1.610 . S
N1441 S1440 1.613 . S
N1441 C1444 1.350 . S
N1442 S1440 1.610 . S
N1442 C1443 1.351 . S
C1443 C1437 1.428 . S
C1443 N1442 1.351 . S
C1443 C1444 1.434 . S
C1444 C1435 1.429 . S
C1444 N1441 1.350 . S
C1444 C1443 1.434 . S
C1445 C1446 1.369 . S
C1445 C1447 1.419 . S
C1445 H1449 0.930 . S
C1446 C1445 1.369 . S
C1446 C1455 1.429 . S
C1447 C1445 1.419 . S
C1447 C1448 1.363 . S
C1447 H1450 0.929 . S
C1448 C1447 1.363 . S
C1448 C1454 1.428 . S
H1449 C1445 0.930 . S
H1450 C1447 0.929 . S
S1451 N1452 1.613 . S
S1451 N1453 1.610 . S
N1452 S1451 1.613 . S
N1452 C1455 1.350 . S
N1453 S1451 1.610 . S
N1453 C1454 1.351 . S
C1454 C1448 1.428 . S
C1454 N1453 1.351 . S
C1454 C1455 1.434 . S
C1455 C1446 1.429 . S
C1455 N1452 1.350 . S
C1455 C1454 1.434 . S
C1456 C1457 1.369 . S
C1456 C1458 1.419 1_565 S
C1456 H1460 0.930 . S
C1457 C1456 1.369 . S
C1457 C1466 1.429 . S
C1458 C1456 1.419 1_545 S
C1458 C1459 1.363 . S
C1458 H1461 0.929 . S
C1459 C1458 1.363 . S
C1459 C1465 1.428 . S
H1460 C1456 0.930 . S
H1461 C1458 0.929 . S
S1462 N1463 1.613 . S
S1462 N1464 1.610 . S
N1463 S1462 1.613 . S
N1463 C1466 1.350 1_545 S
N1464 S1462 1.610 . S
N1464 C1465 1.351 . S
C1465 C1459 1.428 . S
C1465 N1464 1.351 . S
C1465 C1466 1.434 1_545 S
C1466 C1457 1.429 . S
C1466 N1463 1.350 1_565 S
C1466 C1465 1.434 1_565 S
C1467 C1468 1.369 1_655 S
C1467 C1469 1.419 . S
C1467 H1471 0.930 . S
C1468 C1467 1.369 1_455 S
C1468 C1477 1.429 . S
C1469 C1467 1.419 . S
C1469 C1470 1.363 . S
C1469 H1472 0.929 . S
C1470 C1469 1.363 . S
C1470 C1476 1.428 1_655 S
H1471 C1467 0.930 . S
H1472 C1469 0.929 . S
S1473 N1474 1.613 . S
S1473 N1475 1.610 . S
N1474 S1473 1.613 . S
N1474 C1477 1.350 . S
N1475 S1473 1.610 . S
N1475 C1476 1.351 . S
C1476 C1470 1.428 1_455 S
C1476 N1475 1.351 . S
C1476 C1477 1.434 . S
C1477 C1468 1.429 . S
C1477 N1474 1.350 . S
C1477 C1476 1.434 . S
C1478 C1479 1.369 . S
C1478 C1480 1.419 . S
C1478 H1482 0.930 . S
C1479 C1478 1.369 . S
C1479 C1488 1.429 1_556 S
C1480 C1478 1.419 . S
C1480 C1481 1.363 1_556 S
C1480 H1483 0.929 . S
C1481 C1480 1.363 1_554 S
C1481 C1487 1.428 . S
H1482 C1478 0.930 . S
H1483 C1480 0.929 . S
S1484 N1485 1.613 . S
S1484 N1486 1.610 . S
N1485 S1484 1.613 . S
N1485 C1488 1.350 . S
N1486 S1484 1.610 . S
N1486 C1487 1.351 . S
C1487 C1481 1.428 . S
C1487 N1486 1.351 . S
C1487 C1488 1.434 . S
C1488 C1479 1.429 1_554 S
C1488 N1485 1.350 . S
C1488 C1487 1.434 . S
C1489 C1490 1.369 1_556 S
C1489 C1491 1.419 1_655 S
C1489 H1493 0.930 . S
C1490 C1489 1.369 1_554 S
C1490 C1499 1.429 1_565 S
C1491 C1489 1.419 1_455 S
C1491 C1492 1.363 1_565 S
C1491 H1494 0.929 . S
C1492 C1491 1.363 1_545 S
C1492 C1498 1.428 1_556 S
H1493 C1489 0.930 . S
H1494 C1491 0.929 . S
S1495 N1496 1.613 1_455 S
S1495 N1497 1.610 . S
N1496 S1495 1.613 1_655 S
N1496 C1499 1.350 . S
N1497 S1495 1.610 . S
N1497 C1498 1.351 . S
C1498 C1492 1.428 1_554 S
C1498 N1497 1.351 . S
C1498 C1499 1.434 1_455 S
C1499 C1490 1.429 1_545 S
C1499 N1496 1.350 . S
C1499 C1498 1.434 1_655 S
C1500 C1501 1.369 . S
C1500 C1502 1.419 1_545 S
C1500 H1504 0.930 . S
C1501 C1500 1.369 . S
C1501 C1510 1.429 . S
C1502 C1500 1.419 1_565 S
C1502 C1503 1.363 . S
C1502 H1505 0.929 . S
C1503 C1502 1.363 . S
C1503 C1509 1.428 . S
H1504 C1500 0.930 . S
H1505 C1502 0.929 . S
S1506 N1507 1.613 1_565 S
S1506 N1508 1.610 . S
N1507 S1506 1.613 1_545 S
N1507 C1510 1.350 . S
N1508 S1506 1.610 . S
N1508 C1509 1.351 . S
C1509 C1503 1.428 . S
C1509 N1508 1.351 . S
C1509 C1510 1.434 1_565 S
C1510 C1501 1.429 . S
C1510 N1507 1.350 . S
C1510 C1509 1.434 1_545 S
C1511 C1512 1.369 . S
C1511 C1513 1.419 . S
C1511 H1515 0.930 . S
C1512 C1511 1.369 . S
C1512 C1521 1.429 1_455 S
C1513 C1511 1.419 . S
C1513 C1514 1.363 1_455 S
C1513 H1516 0.929 . S
C1514 C1513 1.363 1_655 S
C1514 C1520 1.428 . S
H1515 C1511 0.930 . S
H1516 C1513 0.929 . S
S1517 N1518 1.613 . S
S1517 N1519 1.610 . S
N1518 S1517 1.613 . S
N1518 C1521 1.350 . S
N1519 S1517 1.610 . S
N1519 C1520 1.351 . S
C1520 C1514 1.428 . S
C1520 N1519 1.351 . S
C1520 C1521 1.434 . S
C1521 C1512 1.429 1_655 S
C1521 N1518 1.350 . S
C1521 C1520 1.434 . S
C1522 C1523 1.369 . S
C1522 C1524 1.419 1_556 S
C1522 H1526 0.930 . S
C1523 C1522 1.369 . S
C1523 C1532 1.429 . S
C1524 C1522 1.419 1_554 S
C1524 C1525 1.363 . S
C1524 H1527 0.929 . S
C1525 C1524 1.363 . S
C1525 C1531 1.428 . S
H1526 C1522 0.930 . S
H1527 C1524 0.929 . S
S1528 N1529 1.613 . S
S1528 N1530 1.610 1_556 S
N1529 S1528 1.613 . S
N1529 C1532 1.350 . S
N1530 S1528 1.610 1_554 S
N1530 C1531 1.351 . S
C1531 C1525 1.428 . S
C1531 N1530 1.351 . S
C1531 C1532 1.434 1_554 S
C1532 C1523 1.429 . S
C1532 N1529 1.350 . S
C1532 C1531 1.434 1_556 S
C1533 C1534 1.369 . S
C1533 C1535 1.419 . S
C1533 H1537 0.930 . S
C1534 C1533 1.369 . S
C1534 C1543 1.429 . S
C1535 C1533 1.419 . S
C1535 C1536 1.363 . S
C1535 H1538 0.929 . S
C1536 C1535 1.363 . S
C1536 C1542 1.428 . S
H1537 C1533 0.930 . S
H1538 C1535 0.929 . S
S1539 N1540 1.613 . S
S1539 N1541 1.610 . S
N1540 S1539 1.613 . S
N1540 C1543 1.350 . S
N1541 S1539 1.610 . S
N1541 C1542 1.351 . S
C1542 C1536 1.428 . S
C1542 N1541 1.351 . S
C1542 C1543 1.434 . S
C1543 C1534 1.429 . S
C1543 N1540 1.350 . S
C1543 C1542 1.434 . S
C1544 C1545 1.369 . S
C1544 C1546 1.419 . S
C1544 H1548 0.930 . S
C1545 C1544 1.369 . S
C1545 C1554 1.429 . S
C1546 C1544 1.419 . S
C1546 C1547 1.363 . S
C1546 H1549 0.929 . S
C1547 C1546 1.363 . S
C1547 C1553 1.428 . S
H1548 C1544 0.930 . S
H1549 C1546 0.929 . S
S1550 N1551 1.613 . S
S1550 N1552 1.610 . S
N1551 S1550 1.613 . S
N1551 C1554 1.350 . S
N1552 S1550 1.610 . S
N1552 C1553 1.351 . S
C1553 C1547 1.428 . S
C1553 N1552 1.351 . S
C1553 C1554 1.434 . S
C1554 C1545 1.429 . S
C1554 N1551 1.350 . S
C1554 C1553 1.434 . S
C1555 C1556 1.369 1_655 S
C1555 C1557 1.419 . S
C1555 H1559 0.930 . S
C1556 C1555 1.369 1_455 S
C1556 C1565 1.429 . S
C1557 C1555 1.419 . S
C1557 C1558 1.363 . S
C1557 H1560 0.929 . S
C1558 C1557 1.363 . S
C1558 C1564 1.428 1_655 S
H1559 C1555 0.930 . S
H1560 C1557 0.929 . S
S1561 N1562 1.613 . S
S1561 N1563 1.610 . S
N1562 S1561 1.613 . S
N1562 C1565 1.350 . S
N1563 S1561 1.610 . S
N1563 C1564 1.351 . S
C1564 C1558 1.428 1_455 S
C1564 N1563 1.351 . S
C1564 C1565 1.434 . S
C1565 C1556 1.429 . S
C1565 N1562 1.350 . S
C1565 C1564 1.434 . S
C1566 C1567 1.369 . S
C1566 C1568 1.419 . S
C1566 H1570 0.930 . S
C1567 C1566 1.369 . S
C1567 C1576 1.429 . S
C1568 C1566 1.419 . S
C1568 C1569 1.363 . S
C1568 H1571 0.929 . S
C1569 C1568 1.363 . S
C1569 C1575 1.428 . S
H1570 C1566 0.930 . S
H1571 C1568 0.929 . S
S1572 N1573 1.613 . S
S1572 N1574 1.610 . S
N1573 S1572 1.613 . S
N1573 C1576 1.350 . S
N1574 S1572 1.610 . S
N1574 C1575 1.351 . S
C1575 C1569 1.428 . S
C1575 N1574 1.351 . S
C1575 C1576 1.434 . S
C1576 C1567 1.429 . S
C1576 N1573 1.350 . S
C1576 C1575 1.434 . S
C1577 C1578 1.369 . S
C1577 C1579 1.419 . S
C1577 H1581 0.930 . S
C1578 C1577 1.369 . S
C1578 C1587 1.429 . S
C1579 C1577 1.419 . S
C1579 C1580 1.363 . S
C1579 H1582 0.929 . S
C1580 C1579 1.363 . S
C1580 C1586 1.428 . S
H1581 C1577 0.930 . S
H1582 C1579 0.929 . S
S1583 N1584 1.613 . S
S1583 N1585 1.610 . S
N1584 S1583 1.613 . S
N1584 C1587 1.350 . S
N1585 S1583 1.610 . S
N1585 C1586 1.351 . S
C1586 C1580 1.428 . S
C1586 N1585 1.351 . S
C1586 C1587 1.434 . S
C1587 C1578 1.429 . S
C1587 N1584 1.350 . S
C1587 C1586 1.434 . S
C1588 C1589 1.369 . S
C1588 C1590 1.419 . S
C1588 H1592 0.930 . S
C1589 C1588 1.369 . S
C1589 C1598 1.429 . S
C1590 C1588 1.419 . S
C1590 C1591 1.363 . S
C1590 H1593 0.929 . S
C1591 C1590 1.363 . S
C1591 C1597 1.428 . S
H1592 C1588 0.930 . S
H1593 C1590 0.929 . S
S1594 N1595 1.613 . S
S1594 N1596 1.610 . S
N1595 S1594 1.613 . S
N1595 C1598 1.350 . S
N1596 S1594 1.610 . S
N1596 C1597 1.351 . S
C1597 C1591 1.428 . S
C1597 N1596 1.351 . S
C1597 C1598 1.434 . S
C1598 C1589 1.429 . S
C1598 N1595 1.350 . S
C1598 C1597 1.434 . S
C1599 C1600 1.369 . S
C1599 C1601 1.419 . S
C1599 H1603 0.930 . S
C1600 C1599 1.369 . S
C1600 C1609 1.429 1_565 S
C1601 C1599 1.419 . S
C1601 C1602 1.363 1_565 S
C1601 H1604 0.929 . S
C1602 C1601 1.363 1_545 S
C1602 C1608 1.428 . S
H1603 C1599 0.930 . S
H1604 C1601 0.929 . S
S1605 N1606 1.613 . S
S1605 N1607 1.610 . S
N1606 S1605 1.613 . S
N1606 C1609 1.350 . S
N1607 S1605 1.610 . S
N1607 C1608 1.351 . S
C1608 C1602 1.428 . S
C1608 N1607 1.351 . S
C1608 C1609 1.434 . S
C1609 C1600 1.429 1_545 S
C1609 N1606 1.350 . S
C1609 C1608 1.434 . S
C1610 C1611 1.369 . S
C1610 C1612 1.419 . S
C1610 H1614 0.930 . S
C1611 C1610 1.369 . S
C1611 C1620 1.429 . S
C1612 C1610 1.419 . S
C1612 C1613 1.363 . S
C1612 H1615 0.929 . S
C1613 C1612 1.363 . S
C1613 C1619 1.428 . S
H1614 C1610 0.930 . S
H1615 C1612 0.929 . S
S1616 N1617 1.613 . S
S1616 N1618 1.610 . S
N1617 S1616 1.613 . S
N1617 C1620 1.350 . S
N1618 S1616 1.610 . S
N1618 C1619 1.351 . S
C1619 C1613 1.428 . S
C1619 N1618 1.351 . S
C1619 C1620 1.434 . S
C1620 C1611 1.429 . S
C1620 N1617 1.350 . S
C1620 C1619 1.434 . S
C1621 C1622 1.369 . S
C1621 C1623 1.419 1_554 S
C1621 H1625 0.930 . S
C1622 C1621 1.369 . S
C1622 C1631 1.429 . S
C1623 C1621 1.419 1_556 S
C1623 C1624 1.363 . S
C1623 H1626 0.929 . S
C1624 C1623 1.363 . S
C1624 C1630 1.428 . S
H1625 C1621 0.930 . S
H1626 C1623 0.929 . S
S1627 N1628 1.613 . S
S1627 N1629 1.610 1_554 S
N1628 S1627 1.613 . S
N1628 C1631 1.350 . S
N1629 S1627 1.610 1_556 S
N1629 C1630 1.351 . S
C1630 C1624 1.428 . S
C1630 N1629 1.351 . S
C1630 C1631 1.434 1_556 S
C1631 C1622 1.429 . S
C1631 N1628 1.350 . S
C1631 C1630 1.434 1_554 S
C1632 C1633 1.369 . S
C1632 C1634 1.419 . S
C1632 H1636 0.930 . S
C1633 C1632 1.369 . S
C1633 C1642 1.429 . S
C1634 C1632 1.419 . S
C1634 C1635 1.363 . S
C1634 H1637 0.929 . S
C1635 C1634 1.363 . S
C1635 C1641 1.428 . S
H1636 C1632 0.930 . S
H1637 C1634 0.929 . S
S1638 N1639 1.613 . S
S1638 N1640 1.610 . S
N1639 S1638 1.613 . S
N1639 C1642 1.350 . S
N1640 S1638 1.610 . S
N1640 C1641 1.351 . S
C1641 C1635 1.428 . S
C1641 N1640 1.351 . S
C1641 C1642 1.434 . S
C1642 C1633 1.429 . S
C1642 N1639 1.350 . S
C1642 C1641 1.434 . S
C1643 C1644 1.369 . S
C1643 C1645 1.419 . S
C1643 H1647 0.930 . S
C1644 C1643 1.369 . S
C1644 C1653 1.429 . S
C1645 C1643 1.419 . S
C1645 C1646 1.363 . S
C1645 H1648 0.929 . S
C1646 C1645 1.363 . S
C1646 C1652 1.428 . S
H1647 C1643 0.930 . S
H1648 C1645 0.929 . S
S1649 N1650 1.613 . S
S1649 N1651 1.610 . S
N1650 S1649 1.613 . S
N1650 C1653 1.350 . S
N1651 S1649 1.610 . S
N1651 C1652 1.351 . S
C1652 C1646 1.428 . S
C1652 N1651 1.351 . S
C1652 C1653 1.434 . S
C1653 C1644 1.429 . S
C1653 N1650 1.350 . S
C1653 C1652 1.434 . S
C1654 C1655 1.369 . S
C1654 C1656 1.419 . S
C1654 H1658 0.930 . S
C1655 C1654 1.369 . S
C1655 C1664 1.429 . S
C1656 C1654 1.419 . S
C1656 C1657 1.363 . S
C1656 H1659 0.929 . S
C1657 C1656 1.363 . S
C1657 C1663 1.428 . S
H1658 C1654 0.930 . S
H1659 C1656 0.929 . S
S1660 N1661 1.613 . S
S1660 N1662 1.610 . S
N1661 S1660 1.613 . S
N1661 C1664 1.350 . S
N1662 S1660 1.610 . S
N1662 C1663 1.351 . S
C1663 C1657 1.428 . S
C1663 N1662 1.351 . S
C1663 C1664 1.434 . S
C1664 C1655 1.429 . S
C1664 N1661 1.350 . S
C1664 C1663 1.434 . S
C1665 C1666 1.369 . S
C1665 C1667 1.419 . S
C1665 H1669 0.930 . S
C1666 C1665 1.369 . S
C1666 C1675 1.429 . S
C1667 C1665 1.419 . S
C1667 C1668 1.363 . S
C1667 H1670 0.929 . S
C1668 C1667 1.363 . S
C1668 C1674 1.428 . S
H1669 C1665 0.930 . S
H1670 C1667 0.929 . S
S1671 N1672 1.613 . S
S1671 N1673 1.610 . S
N1672 S1671 1.613 . S
N1672 C1675 1.350 . S
N1673 S1671 1.610 . S
N1673 C1674 1.351 . S
C1674 C1668 1.428 . S
C1674 N1673 1.351 . S
C1674 C1675 1.434 . S
C1675 C1666 1.429 . S
C1675 N1672 1.350 . S
C1675 C1674 1.434 . S
C1676 C1677 1.369 . S
C1676 C1678 1.419 . S
C1676 H1680 0.930 . S
C1677 C1676 1.369 . S
C1677 C1686 1.429 . S
C1678 C1676 1.419 . S
C1678 C1679 1.363 . S
C1678 H1681 0.929 . S
C1679 C1678 1.363 . S
C1679 C1685 1.428 . S
H1680 C1676 0.930 . S
H1681 C1678 0.929 . S
S1682 N1683 1.613 . S
S1682 N1684 1.610 . S
N1683 S1682 1.613 . S
N1683 C1686 1.350 . S
N1684 S1682 1.610 . S
N1684 C1685 1.351 . S
C1685 C1679 1.428 . S
C1685 N1684 1.351 . S
C1685 C1686 1.434 . S
C1686 C1677 1.429 . S
C1686 N1683 1.350 . S
C1686 C1685 1.434 . S
C1687 C1688 1.369 . S
C1687 C1689 1.419 . S
C1687 H1691 0.930 . S
C1688 C1687 1.369 . S
C1688 C1697 1.429 . S
C1689 C1687 1.419 . S
C1689 C1690 1.363 . S
C1689 H1692 0.929 . S
C1690 C1689 1.363 . S
C1690 C1696 1.428 . S
H1691 C1687 0.930 . S
H1692 C1689 0.929 . S
S1693 N1694 1.613 . S
S1693 N1695 1.610 . S
N1694 S1693 1.613 . S
N1694 C1697 1.350 . S
N1695 S1693 1.610 . S
N1695 C1696 1.351 . S
C1696 C1690 1.428 . S
C1696 N1695 1.351 . S
C1696 C1697 1.434 . S
C1697 C1688 1.429 . S
C1697 N1694 1.350 . S
C1697 C1696 1.434 . S
C1698 C1699 1.369 . S
C1698 C1700 1.419 . S
C1698 H1702 0.930 . S
C1699 C1698 1.369 . S
C1699 C1708 1.429 . S
C1700 C1698 1.419 . S
C1700 C1701 1.363 . S
C1700 H1703 0.929 . S
C1701 C1700 1.363 . S
C1701 C1707 1.428 . S
H1702 C1698 0.930 . S
H1703 C1700 0.929 . S
S1704 N1705 1.613 . S
S1704 N1706 1.610 . S
N1705 S1704 1.613 . S
N1705 C1708 1.350 . S
N1706 S1704 1.610 . S
N1706 C1707 1.351 . S
C1707 C1701 1.428 . S
C1707 N1706 1.351 . S
C1707 C1708 1.434 . S
C1708 C1699 1.429 . S
C1708 N1705 1.350 . S
C1708 C1707 1.434 . S
C1709 C1710 1.369 . S
C1709 C1711 1.419 . S
C1709 H1713 0.930 1_565 S
C1710 C1709 1.369 . S
C1710 C1719 1.429 . S
C1711 C1709 1.419 . S
C1711 C1712 1.363 . S
C1711 H1714 0.929 1_565 S
C1712 C1711 1.363 . S
C1712 C1718 1.428 . S
H1713 C1709 0.930 1_545 S
H1714 C1711 0.929 1_545 S
S1715 N1716 1.613 . S
S1715 N1717 1.610 . S
N1716 S1715 1.613 . S
N1716 C1719 1.350 . S
N1717 S1715 1.610 . S
N1717 C1718 1.351 . S
C1718 C1712 1.428 . S
C1718 N1717 1.351 . S
C1718 C1719 1.434 . S
C1719 C1710 1.429 . S
C1719 N1716 1.350 . S
C1719 C1718 1.434 . S
C1720 C1721 1.369 . S
C1720 C1722 1.419 . S
C1720 H1724 0.930 . S
C1721 C1720 1.369 . S
C1721 C1730 1.429 . S
C1722 C1720 1.419 . S
C1722 C1723 1.363 . S
C1722 H1725 0.929 . S
C1723 C1722 1.363 . S
C1723 C1729 1.428 . S
H1724 C1720 0.930 . S
H1725 C1722 0.929 . S
S1726 N1727 1.613 . S
S1726 N1728 1.610 . S
N1727 S1726 1.613 . S
N1727 C1730 1.350 . S
N1728 S1726 1.610 . S
N1728 C1729 1.351 . S
C1729 C1723 1.428 . S
C1729 N1728 1.351 . S
C1729 C1730 1.434 . S
C1730 C1721 1.429 . S
C1730 N1727 1.350 . S
C1730 C1729 1.434 . S
C1731 C1732 1.369 . S
C1731 C1733 1.419 . S
C1731 H1735 0.930 . S
C1732 C1731 1.369 . S
C1732 C1741 1.429 . S
C1733 C1731 1.419 . S
C1733 C1734 1.363 . S
C1733 H1736 0.929 . S
C1734 C1733 1.363 . S
C1734 C1740 1.428 . S
H1735 C1731 0.930 . S
H1736 C1733 0.929 . S
S1737 N1738 1.613 . S
S1737 N1739 1.610 . S
N1738 S1737 1.613 . S
N1738 C1741 1.350 . S
N1739 S1737 1.610 . S
N1739 C1740 1.351 . S
C1740 C1734 1.428 . S
C1740 N1739 1.351 . S
C1740 C1741 1.434 . S
C1741 C1732 1.429 . S
C1741 N1738 1.350 . S
C1741 C1740 1.434 . S
C1742 C1743 1.369 . S
C1742 C1744 1.419 . S
C1742 H1746 0.930 . S
C1743 C1742 1.369 . S
C1743 C1752 1.429 . S
C1744 C1742 1.419 . S
C1744 C1745 1.363 . S
C1744 H1747 0.929 . S
C1745 C1744 1.363 . S
C1745 C1751 1.428 . S
H1746 C1742 0.930 . S
H1747 C1744 0.929 . S
S1748 N1749 1.613 . S
S1748 N1750 1.610 . S
N1749 S1748 1.613 . S
N1749 C1752 1.350 . S
N1750 S1748 1.610 . S
N1750 C1751 1.351 . S
C1751 C1745 1.428 . S
C1751 N1750 1.351 . S
C1751 C1752 1.434 . S
C1752 C1743 1.429 . S
C1752 N1749 1.350 . S
C1752 C1751 1.434 . S
C1753 C1754 1.369 . S
C1753 C1755 1.419 . S
C1753 H1757 0.930 . S
C1754 C1753 1.369 . S
C1754 C1763 1.429 . S
C1755 C1753 1.419 . S
C1755 C1756 1.363 . S
C1755 H1758 0.929 . S
C1756 C1755 1.363 . S
C1756 C1762 1.428 . S
H1757 C1753 0.930 . S
H1758 C1755 0.929 . S
S1759 N1760 1.613 . S
S1759 N1761 1.610 . S
N1760 S1759 1.613 . S
N1760 C1763 1.350 . S
N1761 S1759 1.610 . S
N1761 C1762 1.351 . S
C1762 C1756 1.428 . S
C1762 N1761 1.351 . S
C1762 C1763 1.434 . S
C1763 C1754 1.429 . S
C1763 N1760 1.350 . S
C1763 C1762 1.434 . S
C1764 C1765 1.369 . S
C1764 C1766 1.419 . S
C1764 H1768 0.930 . S
C1765 C1764 1.369 . S
C1765 C1774 1.429 . S
C1766 C1764 1.419 . S
C1766 C1767 1.363 . S
C1766 H1769 0.929 . S
C1767 C1766 1.363 . S
C1767 C1773 1.428 . S
H1768 C1764 0.930 . S
H1769 C1766 0.929 . S
S1770 N1771 1.613 . S
S1770 N1772 1.610 . S
N1771 S1770 1.613 . S
N1771 C1774 1.350 . S
N1772 S1770 1.610 . S
N1772 C1773 1.351 . S
C1773 C1767 1.428 . S
C1773 N1772 1.351 . S
C1773 C1774 1.434 . S
C1774 C1765 1.429 . S
C1774 N1771 1.350 . S
C1774 C1773 1.434 . S
C1775 C1776 1.369 . S
C1775 C1777 1.419 . S
C1775 H1779 0.930 . S
C1776 C1775 1.369 . S
C1776 C1785 1.429 . S
C1777 C1775 1.419 . S
C1777 C1778 1.363 . S
C1777 H1780 0.929 . S
C1778 C1777 1.363 . S
C1778 C1784 1.428 . S
H1779 C1775 0.930 . S
H1780 C1777 0.929 . S
S1781 N1782 1.613 . S
S1781 N1783 1.610 . S
N1782 S1781 1.613 . S
N1782 C1785 1.350 . S
N1783 S1781 1.610 . S
N1783 C1784 1.351 . S
C1784 C1778 1.428 . S
C1784 N1783 1.351 . S
C1784 C1785 1.434 . S
C1785 C1776 1.429 . S
C1785 N1782 1.350 . S
C1785 C1784 1.434 . S
C1786 C1787 1.369 . S
C1786 C1788 1.419 . S
C1786 H1790 0.930 . S
C1787 C1786 1.369 . S
C1787 C1796 1.429 . S
C1788 C1786 1.419 . S
C1788 C1789 1.363 . S
C1788 H1791 0.929 . S
C1789 C1788 1.363 . S
C1789 C1795 1.428 . S
H1790 C1786 0.930 . S
H1791 C1788 0.929 . S
S1792 N1793 1.613 . S
S1792 N1794 1.610 . S
N1793 S1792 1.613 . S
N1793 C1796 1.350 . S
N1794 S1792 1.610 . S
N1794 C1795 1.351 . S
C1795 C1789 1.428 . S
C1795 N1794 1.351 . S
C1795 C1796 1.434 . S
C1796 C1787 1.429 . S
C1796 N1793 1.350 . S
C1796 C1795 1.434 . S
C1797 C1798 1.369 . S
C1797 C1799 1.419 . S
C1797 H1801 0.930 . S
C1798 C1797 1.369 . S
C1798 C1807 1.429 . S
C1799 C1797 1.419 . S
C1799 C1800 1.363 . S
C1799 H1802 0.929 . S
C1800 C1799 1.363 . S
C1800 C1806 1.428 . S
H1801 C1797 0.930 . S
H1802 C1799 0.929 . S
S1803 N1804 1.613 . S
S1803 N1805 1.610 . S
N1804 S1803 1.613 . S
N1804 C1807 1.350 . S
N1805 S1803 1.610 . S
N1805 C1806 1.351 . S
C1806 C1800 1.428 . S
C1806 N1805 1.351 . S
C1806 C1807 1.434 . S
C1807 C1798 1.429 . S
C1807 N1804 1.350 . S
C1807 C1806 1.434 . S
C1808 C1809 1.369 . S
C1808 C1810 1.419 . S
C1808 H1812 0.930 . S
C1809 C1808 1.369 . S
C1809 C1818 1.429 . S
C1810 C1808 1.419 . S
C1810 C1811 1.363 . S
C1810 H1813 0.929 . S
C1811 C1810 1.363 . S
C1811 C1817 1.428 . S
H1812 C1808 0.930 . S
H1813 C1810 0.929 . S
S1814 N1815 1.613 . S
S1814 N1816 1.610 . S
N1815 S1814 1.613 . S
N1815 C1818 1.350 . S
N1816 S1814 1.610 . S
N1816 C1817 1.351 . S
C1817 C1811 1.428 . S
C1817 N1816 1.351 . S
C1817 C1818 1.434 . S
C1818 C1809 1.429 . S
C1818 N1815 1.350 . S
C1818 C1817 1.434 . S
C1819 C1820 1.369 . S
C1819 C1821 1.419 . S
C1819 H1823 0.930 . S
C1820 C1819 1.369 . S
C1820 C1829 1.429 . S
C1821 C1819 1.419 . S
C1821 C1822 1.363 . S
C1821 H1824 0.929 . S
C1822 C1821 1.363 . S
C1822 C1828 1.428 . S
H1823 C1819 0.930 . S
H1824 C1821 0.929 . S
S1825 N1826 1.613 . S
S1825 N1827 1.610 . S
N1826 S1825 1.613 . S
N1826 C1829 1.350 . S
N1827 S1825 1.610 . S
N1827 C1828 1.351 . S
C1828 C1822 1.428 . S
C1828 N1827 1.351 . S
C1828 C1829 1.434 . S
C1829 C1820 1.429 . S
C1829 N1826 1.350 . S
C1829 C1828 1.434 . S
C1830 C1831 1.369 . S
C1830 C1832 1.419 . S
C1830 H1834 0.930 . S
C1831 C1830 1.369 . S
C1831 C1840 1.429 . S
C1832 C1830 1.419 . S
C1832 C1833 1.363 . S
C1832 H1835 0.929 . S
C1833 C1832 1.363 . S
C1833 C1839 1.428 . S
H1834 C1830 0.930 . S
H1835 C1832 0.929 . S
S1836 N1837 1.613 . S
S1836 N1838 1.610 . S
N1837 S1836 1.613 . S
N1837 C1840 1.350 . S
N1838 S1836 1.610 . S
N1838 C1839 1.351 . S
C1839 C1833 1.428 . S
C1839 N1838 1.351 . S
C1839 C1840 1.434 . S
C1840 C1831 1.429 . S
C1840 N1837 1.350 . S
C1840 C1839 1.434 . S
C1841 C1842 1.369 . S
C1841 C1843 1.419 . S
C1841 H1845 0.930 . S
C1842 C1841 1.369 . S
C1842 C1851 1.429 . S
C1843 C1841 1.419 . S
C1843 C1844 1.363 . S
C1843 H1846 0.929 . S
C1844 C1843 1.363 . S
C1844 C1850 1.428 . S
H1845 C1841 0.930 . S
H1846 C1843 0.929 . S
S1847 N1848 1.613 . S
S1847 N1849 1.610 . S
N1848 S1847 1.613 . S
N1848 C1851 1.350 . S
N1849 S1847 1.610 . S
N1849 C1850 1.351 . S
C1850 C1844 1.428 . S
C1850 N1849 1.351 . S
C1850 C1851 1.434 . S
C1851 C1842 1.429 . S
C1851 N1848 1.350 . S
C1851 C1850 1.434 . S
C1852 C1853 1.369 . S
C1852 C1854 1.419 . S
C1852 H1856 0.930 . S
C1853 C1852 1.369 . S
C1853 C1862 1.429 . S
C1854 C1852 1.419 . S
C1854 C1855 1.363 . S
C1854 H1857 0.929 . S
C1855 C1854 1.363 . S
C1855 C1861 1.428 . S
H1856 C1852 0.930 . S
H1857 C1854 0.929 . S
S1858 N1859 1.613 . S
S1858 N1860 1.610 . S
N1859 S1858 1.613 . S
N1859 C1862 1.350 . S
N1860 S1858 1.610 . S
N1860 C1861 1.351 . S
C1861 C1855 1.428 . S
C1861 N1860 1.351 . S
C1861 C1862 1.434 . S
C1862 C1853 1.429 . S
C1862 N1859 1.350 . S
C1862 C1861 1.434 . S
C1863 C1864 1.369 . S
C1863 C1865 1.419 . S
C1863 H1867 0.930 . S
C1864 C1863 1.369 . S
C1864 C1873 1.429 . S
C1865 C1863 1.419 . S
C1865 C1866 1.363 . S
C1865 H1868 0.929 . S
C1866 C1865 1.363 . S
C1866 C1872 1.428 . S
H1867 C1863 0.930 . S
H1868 C1865 0.929 . S
S1869 N1870 1.613 . S
S1869 N1871 1.610 . S
N1870 S1869 1.613 . S
N1870 C1873 1.350 . S
N1871 S1869 1.610 . S
N1871 C1872 1.351 . S
C1872 C1866 1.428 . S
C1872 N1871 1.351 . S
C1872 C1873 1.434 . S
C1873 C1864 1.429 . S
C1873 N1870 1.350 . S
C1873 C1872 1.434 . S
C1874 C1875 1.369 . S
C1874 C1876 1.419 . S
C1874 H1878 0.930 . S
C1875 C1874 1.369 . S
C1875 C1884 1.429 . S
C1876 C1874 1.419 . S
C1876 C1877 1.363 . S
C1876 H1879 0.929 . S
C1877 C1876 1.363 . S
C1877 C1883 1.428 . S
H1878 C1874 0.930 . S
H1879 C1876 0.929 . S
S1880 N1881 1.613 . S
S1880 N1882 1.610 . S
N1881 S1880 1.613 . S
N1881 C1884 1.350 . S
N1882 S1880 1.610 . S
N1882 C1883 1.351 . S
C1883 C1877 1.428 . S
C1883 N1882 1.351 . S
C1883 C1884 1.434 . S
C1884 C1875 1.429 . S
C1884 N1881 1.350 . S
C1884 C1883 1.434 . S
C1885 C1886 1.369 . S
C1885 C1887 1.419 . S
C1885 H1889 0.930 . S
C1886 C1885 1.369 . S
C1886 C1895 1.429 . S
C1887 C1885 1.419 . S
C1887 C1888 1.363 . S
C1887 H1890 0.929 . S
C1888 C1887 1.363 . S
C1888 C1894 1.428 . S
H1889 C1885 0.930 . S
H1890 C1887 0.929 . S
S1891 N1892 1.613 . S
S1891 N1893 1.610 . S
N1892 S1891 1.613 . S
N1892 C1895 1.350 . S
N1893 S1891 1.610 . S
N1893 C1894 1.351 . S
C1894 C1888 1.428 . S
C1894 N1893 1.351 . S
C1894 C1895 1.434 . S
C1895 C1886 1.429 . S
C1895 N1892 1.350 . S
C1895 C1894 1.434 . S
C1896 C1897 1.369 . S
C1896 C1898 1.419 . S
C1896 H1900 0.930 . S
C1897 C1896 1.369 . S
C1897 C1906 1.429 . S
C1898 C1896 1.419 . S
C1898 C1899 1.363 . S
C1898 H1901 0.929 . S
C1899 C1898 1.363 . S
C1899 C1905 1.428 . S
H1900 C1896 0.930 . S
H1901 C1898 0.929 . S
S1902 N1903 1.613 . S
S1902 N1904 1.610 . S
N1903 S1902 1.613 . S
N1903 C1906 1.350 . S
N1904 S1902 1.610 . S
N1904 C1905 1.351 . S
C1905 C1899 1.428 . S
C1905 N1904 1.351 . S
C1905 C1906 1.434 . S
C1906 C1897 1.429 . S
C1906 N1903 1.350 . S
C1906 C1905 1.434 . S
C1907 C1908 1.369 . S
C1907 C1909 1.419 . S
C1907 H1911 0.930 . S
C1908 C1907 1.369 . S
C1908 C1917 1.429 . S
C1909 C1907 1.419 . S
C1909 C1910 1.363 . S
C1909 H1912 0.929 . S
C1910 C1909 1.363 . S
C1910 C1916 1.428 . S
H1911 C1907 0.930 . S
H1912 C1909 0.929 . S
S1913 N1914 1.613 . S
S1913 N1915 1.610 . S
N1914 S1913 1.613 . S
N1914 C1917 1.350 . S
N1915 S1913 1.610 . S
N1915 C1916 1.351 . S
C1916 C1910 1.428 . S
C1916 N1915 1.351 . S
C1916 C1917 1.434 . S
C1917 C1908 1.429 . S
C1917 N1914 1.350 . S
C1917 C1916 1.434 . S
C1918 C1919 1.369 . S
C1918 C1920 1.419 . S
C1918 H1922 0.930 . S
C1919 C1918 1.369 . S
C1919 C1928 1.429 . S
C1920 C1918 1.419 . S
C1920 C1921 1.363 . S
C1920 H1923 0.929 . S
C1921 C1920 1.363 . S
C1921 C1927 1.428 . S
H1922 C1918 0.930 . S
H1923 C1920 0.929 . S
S1924 N1925 1.613 . S
S1924 N1926 1.610 . S
N1925 S1924 1.613 . S
N1925 C1928 1.350 . S
N1926 S1924 1.610 . S
N1926 C1927 1.351 . S
C1927 C1921 1.428 . S
C1927 N1926 1.351 . S
C1927 C1928 1.434 . S
C1928 C1919 1.429 . S
C1928 N1925 1.350 . S
C1928 C1927 1.434 . S
C1929 C1930 1.369 . S
C1929 C1931 1.419 . S
C1929 H1933 0.930 . S
C1930 C1929 1.369 . S
C1930 C1939 1.429 . S
C1931 C1929 1.419 . S
C1931 C1932 1.363 . S
C1931 H1934 0.929 . S
C1932 C1931 1.363 . S
C1932 C1938 1.428 . S
H1933 C1929 0.930 . S
H1934 C1931 0.929 . S
S1935 N1936 1.613 . S
S1935 N1937 1.610 . S
N1936 S1935 1.613 . S
N1936 C1939 1.350 . S
N1937 S1935 1.610 . S
N1937 C1938 1.351 . S
C1938 C1932 1.428 . S
C1938 N1937 1.351 . S
C1938 C1939 1.434 . S
C1939 C1930 1.429 . S
C1939 N1936 1.350 . S
C1939 C1938 1.434 . S
C1940 C1941 1.369 . S
C1940 C1942 1.419 . S
C1940 H1944 0.930 . S
C1941 C1940 1.369 . S
C1941 C1950 1.429 . S
C1942 C1940 1.419 . S
C1942 C1943 1.363 . S
C1942 H1945 0.929 . S
C1943 C1942 1.363 . S
C1943 C1949 1.428 . S
H1944 C1940 0.930 . S
H1945 C1942 0.929 . S
S1946 N1947 1.613 . S
S1946 N1948 1.610 . S
N1947 S1946 1.613 . S
N1947 C1950 1.350 . S
N1948 S1946 1.610 . S
N1948 C1949 1.351 . S
C1949 C1943 1.428 . S
C1949 N1948 1.351 . S
C1949 C1950 1.434 . S
C1950 C1941 1.429 . S
C1950 N1947 1.350 . S
C1950 C1949 1.434 . S
C1951 C1952 1.369 . S
C1951 C1953 1.419 . S
C1951 H1955 0.930 . S
C1952 C1951 1.369 . S
C1952 C1961 1.429 . S
C1953 C1951 1.419 . S
C1953 C1954 1.363 . S
C1953 H1956 0.929 . S
C1954 C1953 1.363 . S
C1954 C1960 1.428 . S
H1955 C1951 0.930 . S
H1956 C1953 0.929 . S
S1957 N1958 1.613 . S
S1957 N1959 1.610 . S
N1958 S1957 1.613 . S
N1958 C1961 1.350 . S
N1959 S1957 1.610 . S
N1959 C1960 1.351 . S
C1960 C1954 1.428 . S
C1960 N1959 1.351 . S
C1960 C1961 1.434 . S
C1961 C1952 1.429 . S
C1961 N1958 1.350 . S
C1961 C1960 1.434 . S
C1962 C1963 1.369 . S
C1962 C1964 1.419 . S
C1962 H1966 0.930 . S
C1963 C1962 1.369 . S
C1963 C1972 1.429 . S
C1964 C1962 1.419 . S
C1964 C1965 1.363 . S
C1964 H1967 0.929 . S
C1965 C1964 1.363 . S
C1965 C1971 1.428 . S
H1966 C1962 0.930 . S
H1967 C1964 0.929 . S
S1968 N1969 1.613 1_655 S
S1968 N1970 1.610 1_655 S
N1969 S1968 1.613 1_455 S
N1969 C1972 1.350 . S
N1970 S1968 1.610 1_455 S
N1970 C1971 1.351 . S
C1971 C1965 1.428 . S
C1971 N1970 1.351 . S
C1971 C1972 1.434 . S
C1972 C1963 1.429 . S
C1972 N1969 1.350 . S
C1972 C1971 1.434 . S
C1973 C1974 1.369 . S
C1973 C1975 1.419 . S
C1973 H1977 0.930 . S
C1974 C1973 1.369 . S
C1974 C1983 1.429 . S
C1975 C1973 1.419 . S
C1975 C1976 1.363 . S
C1975 H1978 0.929 . S
C1976 C1975 1.363 . S
C1976 C1982 1.428 . S
H1977 C1973 0.930 . S
H1978 C1975 0.929 . S
S1979 N1980 1.613 . S
S1979 N1981 1.610 . S
N1980 S1979 1.613 . S
N1980 C1983 1.350 . S
N1981 S1979 1.610 . S
N1981 C1982 1.351 . S
C1982 C1976 1.428 . S
C1982 N1981 1.351 . S
C1982 C1983 1.434 . S
C1983 C1974 1.429 . S
C1983 N1980 1.350 . S
C1983 C1982 1.434 . S
C1984 C1985 1.369 . S
C1984 C1986 1.419 . S
C1984 H1988 0.930 . S
C1985 C1984 1.369 . S
C1985 C1994 1.429 1_545 S
C1986 C1984 1.419 . S
C1986 C1987 1.392 . S
C1986 H1989 0.929 . S
C1987 C1986 1.392 . S
C1987 C1993 1.402 1_545 S
H1988 C1984 0.930 . S
H1989 C1986 0.929 . S
S1990 N1991 1.613 . S
S1990 N1992 1.610 . S
N1991 S1990 1.613 . S
N1991 C1994 1.350 . S
N1992 S1990 1.610 . S
N1992 C1993 1.351 . S
C1993 C1987 1.402 1_565 S
C1993 N1992 1.351 . S
C1993 C1994 1.434 . S
C1994 C1985 1.429 1_565 S
C1994 N1991 1.350 . S
C1994 C1993 1.434 . S
C1995 C1996 1.369 . S
C1995 C1997 1.419 . S
C1995 H1999 0.930 . S
C1996 C1995 1.369 . S
C1996 C2005 1.429 1_455 S
C1997 C1995 1.419 . S
C1997 C1998 1.363 1_455 S
C1997 H2000 0.929 . S
C1998 C1997 1.363 1_655 S
C1998 C2004 1.428 . S
H1999 C1995 0.930 . S
H2000 C1997 0.929 . S
S2001 N2002 1.613 . S
S2001 N2003 1.610 . S
N2002 S2001 1.613 . S
N2002 C2005 1.350 . S
N2003 S2001 1.610 . S
N2003 C2004 1.351 . S
C2004 C1998 1.428 . S
C2004 N2003 1.351 . S
C2004 C2005 1.434 . S
C2005 C1996 1.429 1_655 S
C2005 N2002 1.350 . S
C2005 C2004 1.434 . S
C2006 C2007 1.369 . S
C2006 C2008 1.419 . S
C2006 H2010 0.930 . S
C2007 C2006 1.369 . S
C2007 C2016 1.429 . S
C2008 C2006 1.419 . S
C2008 C2009 1.363 . S
C2008 H2011 0.929 . S
C2009 C2008 1.363 . S
C2009 C2015 1.428 . S
H2010 C2006 0.930 . S
H2011 C2008 0.929 . S
S2012 N2013 1.613 . S
S2012 N2014 1.610 . S
N2013 S2012 1.613 . S
N2013 C2016 1.350 . S
N2014 S2012 1.610 . S
N2014 C2015 1.351 . S
C2015 C2009 1.428 . S
C2015 N2014 1.351 . S
C2015 C2016 1.434 . S
C2016 C2007 1.429 . S
C2016 N2013 1.350 . S
C2016 C2015 1.434 . S
C2017 C2018 1.369 1_465 S
C2017 C2019 1.419 . S
C2017 H2021 0.930 . S
C2018 C2017 1.369 1_645 S
C2018 C2027 1.429 . S
C2019 C2017 1.419 . S
C2019 C2020 1.363 1_565 S
C2019 H2022 0.929 . S
C2020 C2019 1.363 1_545 S
C2020 C2026 1.428 1_455 S
H2021 C2017 0.930 . S
H2022 C2019 0.929 . S
S2023 N2024 1.613 . S
S2023 N2025 1.610 . S
N2024 S2023 1.613 . S
N2024 C2027 1.350 . S
N2025 S2023 1.610 . S
N2025 C2026 1.351 . S
C2026 C2020 1.428 1_655 S
C2026 N2025 1.351 . S
C2026 C2027 1.434 . S
C2027 C2018 1.429 . S
C2027 N2024 1.350 . S
C2027 C2026 1.434 . S
C2028 C2029 1.369 1_545 S
C2028 C2030 1.419 . S
C2028 H2032 0.930 . S
C2029 C2028 1.369 1_565 S
C2029 C2038 1.429 . S
C2030 C2028 1.419 . S
C2030 C2031 1.363 1_545 S
C2030 H2033 0.929 . S
C2031 C2030 1.363 1_565 S
C2031 C2037 1.428 . S
H2032 C2028 0.930 . S
H2033 C2030 0.929 . S
S2034 N2035 1.613 . S
S2034 N2036 1.610 . S
N2035 S2034 1.613 . S
N2035 C2038 1.350 . S
N2036 S2034 1.610 . S
N2036 C2037 1.351 . S
C2037 C2031 1.428 . S
C2037 N2036 1.351 . S
C2037 C2038 1.434 . S
C2038 C2029 1.429 . S
C2038 N2035 1.350 . S
C2038 C2037 1.434 . S
C2039 C2040 1.369 1_655 S
C2039 C2041 1.419 . S
C2039 H2043 0.930 . S
C2040 C2039 1.369 1_455 S
C2040 C2049 1.429 . S
C2041 C2039 1.419 . S
C2041 C2042 1.363 . S
C2041 H2044 0.929 . S
C2042 C2041 1.363 . S
C2042 C2048 1.428 1_655 S
H2043 C2039 0.930 . S
H2044 C2041 0.929 . S
S2045 N2046 1.613 . S
S2045 N2047 1.610 . S
N2046 S2045 1.613 . S
N2046 C2049 1.350 . S
N2047 S2045 1.610 . S
N2047 C2048 1.351 . S
C2048 C2042 1.428 1_455 S
C2048 N2047 1.351 . S
C2048 C2049 1.434 . S
C2049 C2040 1.429 . S
C2049 N2046 1.350 . S
C2049 C2048 1.434 . S
C2050 C2051 1.369 . S
C2050 C2052 1.419 . S
C2050 H2054 0.930 . S
C2051 C2050 1.369 . S
C2051 C2060 1.429 . S
C2052 C2050 1.419 . S
C2052 C2053 1.363 . S
C2052 H2055 0.929 . S
C2053 C2052 1.363 . S
C2053 C2059 1.428 . S
H2054 C2050 0.930 . S
H2055 C2052 0.929 . S
S2056 N2057 1.613 . S
S2056 N2058 1.610 . S
N2057 S2056 1.613 . S
N2057 C2060 1.350 . S
N2058 S2056 1.610 . S
N2058 C2059 1.351 . S
C2059 C2053 1.428 . S
C2059 N2058 1.351 . S
C2059 C2060 1.434 . S
C2060 C2051 1.429 . S
C2060 N2057 1.350 . S
C2060 C2059 1.434 . S
C2061 C2062 1.391 1_455 S
C2061 C2063 1.419 . S
C2061 H2065 0.930 . S
C2062 C2061 1.391 1_655 S
C2062 C2071 1.408 1_565 S
C2063 C2061 1.419 . S
C2063 C2064 1.363 . S
C2063 H2066 0.929 . S
C2064 C2063 1.363 . S
C2064 C2070 1.428 1_465 S
H2065 C2061 0.930 . S
H2066 C2063 0.929 . S
S2067 N2068 1.613 . S
S2067 N2069 1.610 . S
N2068 S2067 1.613 . S
N2068 C2071 1.350 . S
N2069 S2067 1.610 . S
N2069 C2070 1.351 . S
C2070 C2064 1.428 1_645 S
C2070 N2069 1.351 . S
C2070 C2071 1.434 . S
C2071 C2062 1.408 1_545 S
C2071 N2068 1.350 . S
C2071 C2070 1.434 . S
C2072 C2073 1.369 . S
C2072 C2074 1.419 . S
C2072 H2076 0.930 . S
C2073 C2072 1.369 . S
C2073 C2082 1.429 . S
C2074 C2072 1.419 . S
C2074 C2075 1.363 . S
C2074 H2077 0.929 . S
C2075 C2074 1.363 . S
C2075 C2081 1.428 . S
H2076 C2072 0.930 . S
H2077 C2074 0.929 . S
S2078 N2079 1.613 . S
S2078 N2080 1.610 . S
N2079 S2078 1.613 . S
N2079 C2082 1.350 . S
N2080 S2078 1.610 . S
N2080 C2081 1.351 . S
C2081 C2075 1.428 . S
C2081 N2080 1.351 . S
C2081 C2082 1.434 . S
C2082 C2073 1.429 . S
C2082 N2079 1.350 . S
C2082 C2081 1.434 . S
C2083 C2084 1.369 1_655 S
C2083 C2085 1.419 . S
C2083 H2087 0.930 . S
C2084 C2083 1.369 1_455 S
C2084 C2093 1.429 . S
C2085 C2083 1.419 . S
C2085 C2086 1.363 . S
C2085 H2088 0.929 . S
C2086 C2085 1.363 . S
C2086 C2092 1.428 1_655 S
H2087 C2083 0.930 . S
H2088 C2085 0.929 . S
S2089 N2090 1.613 . S
S2089 N2091 1.610 . S
N2090 S2089 1.613 . S
N2090 C2093 1.350 . S
N2091 S2089 1.610 . S
N2091 C2092 1.351 . S
C2092 C2086 1.428 1_455 S
C2092 N2091 1.351 . S
C2092 C2093 1.434 . S
C2093 C2084 1.429 . S
C2093 N2090 1.350 . S
C2093 C2092 1.434 . S
C2094 C2095 1.369 . S
C2094 C2096 1.419 . S
C2094 H2098 0.930 . S
C2095 C2094 1.369 . S
C2095 C2104 1.429 . S
C2096 C2094 1.419 . S
C2096 C2097 1.363 . S
C2096 H2099 0.929 . S
C2097 C2096 1.363 . S
C2097 C2103 1.428 . S
H2098 C2094 0.930 . S
H2099 C2096 0.929 . S
S2100 N2101 1.613 . S
S2100 N2102 1.610 . S
N2101 S2100 1.613 . S
N2101 C2104 1.350 . S
N2102 S2100 1.610 . S
N2102 C2103 1.351 . S
C2103 C2097 1.428 . S
C2103 N2102 1.351 . S
C2103 C2104 1.434 . S
C2104 C2095 1.429 . S
C2104 N2101 1.350 . S
C2104 C2103 1.434 . S
C2105 C2106 1.369 1_655 S
C2105 C2107 1.419 . S
C2105 H2109 0.930 . S
C2106 C2105 1.369 1_455 S
C2106 C2115 1.429 . S
C2107 C2105 1.419 . S
C2107 C2108 1.363 . S
C2107 H2110 0.929 . S
C2108 C2107 1.363 . S
C2108 C2114 1.428 1_655 S
H2109 C2105 0.930 . S
H2110 C2107 0.929 . S
S2111 N2112 1.613 . S
S2111 N2113 1.610 . S
N2112 S2111 1.613 . S
N2112 C2115 1.350 . S
N2113 S2111 1.610 . S
N2113 C2114 1.351 . S
C2114 C2108 1.428 1_455 S
C2114 N2113 1.351 . S
C2114 C2115 1.434 . S
C2115 C2106 1.429 . S
C2115 N2112 1.350 . S
C2115 C2114 1.434 . S
C2116 C2117 1.369 . S
C2116 C2118 1.419 . S
C2116 H2120 0.930 . S
C2117 C2116 1.369 . S
C2117 C2126 1.429 . S
C2118 C2116 1.419 . S
C2118 C2119 1.363 . S
C2118 H2121 0.929 . S
C2119 C2118 1.363 . S
C2119 C2125 1.428 . S
H2120 C2116 0.930 . S
H2121 C2118 0.929 . S
S2122 N2123 1.613 . S
S2122 N2124 1.610 . S
N2123 S2122 1.613 . S
N2123 C2126 1.350 . S
N2124 S2122 1.610 . S
N2124 C2125 1.351 . S
C2125 C2119 1.428 . S
C2125 N2124 1.351 . S
C2125 C2126 1.434 . S
C2126 C2117 1.429 . S
C2126 N2123 1.350 . S
C2126 C2125 1.434 . S
C2127 C2128 1.369 1_655 S
C2127 C2129 1.419 . S
C2127 H2131 0.930 . S
C2128 C2127 1.369 1_455 S
C2128 C2137 1.429 . S
C2129 C2127 1.419 . S
C2129 C2130 1.363 . S
C2129 H2132 0.929 . S
C2130 C2129 1.363 . S
C2130 C2136 1.428 1_655 S
H2131 C2127 0.930 . S
H2132 C2129 0.929 . S
S2133 N2134 1.613 . S
S2133 N2135 1.610 . S
N2134 S2133 1.613 . S
N2134 C2137 1.350 . S
N2135 S2133 1.610 . S
N2135 C2136 1.351 . S
C2136 C2130 1.428 1_455 S
C2136 N2135 1.351 . S
C2136 C2137 1.434 . S
C2137 C2128 1.429 . S
C2137 N2134 1.350 . S
C2137 C2136 1.434 . S
C2138 C2139 1.369 . S
C2138 C2140 1.419 . S
C2138 H2142 0.930 . S
C2139 C2138 1.369 . S
C2139 C2148 1.429 . S
C2140 C2138 1.419 . S
C2140 C2141 1.363 . S
C2140 H2143 0.929 . S
C2141 C2140 1.363 . S
C2141 C2147 1.428 . S
H2142 C2138 0.930 . S
H2143 C2140 0.929 . S
S2144 N2145 1.613 . S
S2144 N2146 1.610 . S
N2145 S2144 1.613 . S
N2145 C2148 1.350 . S
N2146 S2144 1.610 . S
N2146 C2147 1.351 . S
C2147 C2141 1.428 . S
C2147 N2146 1.351 . S
C2147 C2148 1.434 . S
C2148 C2139 1.429 . S
C2148 N2145 1.350 . S
C2148 C2147 1.434 . S
C2149 C2150 1.369 . S
C2149 C2151 1.419 . S
C2149 H2153 0.930 . S
C2150 C2149 1.369 . S
C2150 C2159 1.429 1_655 S
C2151 C2149 1.419 . S
C2151 C2152 1.363 1_655 S
C2151 H2154 0.929 . S
C2152 C2151 1.363 1_455 S
C2152 C2158 1.428 . S
H2153 C2149 0.930 . S
H2154 C2151 0.929 . S
S2155 N2156 1.613 . S
S2155 N2157 1.610 . S
N2156 S2155 1.613 . S
N2156 C2159 1.350 . S
N2157 S2155 1.610 . S
N2157 C2158 1.351 . S
C2158 C2152 1.428 . S
C2158 N2157 1.351 . S
C2158 C2159 1.434 . S
C2159 C2150 1.429 1_455 S
C2159 N2156 1.350 . S
C2159 C2158 1.434 . S
C2160 C2161 1.369 . S
C2160 C2162 1.419 . S
C2160 H2164 0.930 . S
C2161 C2160 1.369 . S
C2161 C2170 1.429 1_545 S
C2162 C2160 1.419 . S
C2162 C2163 1.386 . S
C2162 H2165 0.929 . S
C2163 C2162 1.386 . S
C2163 C2169 1.408 1_545 S
H2164 C2160 0.930 . S
H2165 C2162 0.929 . S
S2166 N2167 1.613 . S
S2166 N2168 1.610 . S
N2167 S2166 1.613 . S
N2167 C2170 1.350 . S
N2168 S2166 1.610 . S
N2168 C2169 1.351 . S
C2169 C2163 1.408 1_565 S
C2169 N2168 1.351 . S
C2169 C2170 1.434 . S
C2170 C2161 1.429 1_565 S
C2170 N2167 1.350 . S
C2170 C2169 1.434 . S
C2171 C2172 1.369 . S
C2171 C2173 1.419 . S
C2171 H2175 0.930 . S
C2172 C2171 1.369 . S
C2172 C2181 1.429 . S
C2173 C2171 1.419 . S
C2173 C2174 1.363 . S
C2173 H2176 0.929 . S
C2174 C2173 1.363 . S
C2174 C2180 1.428 . S
H2175 C2171 0.930 . S
H2176 C2173 0.929 . S
S2177 N2178 1.613 . S
S2177 N2179 1.610 . S
N2178 S2177 1.613 . S
N2178 C2181 1.350 . S
N2179 S2177 1.610 . S
N2179 C2180 1.351 . S
C2180 C2174 1.428 . S
C2180 N2179 1.351 . S
C2180 C2181 1.434 . S
C2181 C2172 1.429 . S
C2181 N2178 1.350 . S
C2181 C2180 1.434 . S
C2182 C2183 1.369 . S
C2182 C2184 1.419 . S
C2182 H2186 0.930 . S
C2183 C2182 1.369 . S
C2183 C2192 1.429 . S
C2184 C2182 1.419 . S
C2184 C2185 1.363 . S
C2184 H2187 0.929 . S
C2185 C2184 1.363 . S
C2185 C2191 1.428 . S
H2186 C2182 0.930 . S
H2187 C2184 0.929 . S
S2188 N2189 1.613 . S
S2188 N2190 1.610 . S
N2189 S2188 1.613 . S
N2189 C2192 1.350 . S
N2190 S2188 1.610 . S
N2190 C2191 1.351 . S
C2191 C2185 1.428 . S
C2191 N2190 1.351 . S
C2191 C2192 1.434 . S
C2192 C2183 1.429 . S
C2192 N2189 1.350 . S
C2192 C2191 1.434 . S
C2193 C2194 1.369 1_565 S
C2193 C2195 1.419 . S
C2193 H2197 0.930 . S
C2194 C2193 1.369 1_545 S
C2194 C2203 1.429 . S
C2195 C2193 1.419 . S
C2195 C2196 1.363 1_565 S
C2195 H2198 0.929 . S
C2196 C2195 1.363 1_545 S
C2196 C2202 1.428 . S
H2197 C2193 0.930 . S
H2198 C2195 0.929 . S
S2199 N2200 1.613 . S
S2199 N2201 1.610 . S
N2200 S2199 1.613 . S
N2200 C2203 1.350 . S
N2201 S2199 1.610 . S
N2201 C2202 1.351 . S
C2202 C2196 1.428 . S
C2202 N2201 1.351 . S
C2202 C2203 1.434 . S
C2203 C2194 1.429 . S
C2203 N2200 1.350 . S
C2203 C2202 1.434 . S
C2204 C2205 1.369 . S
C2204 C2206 1.419 . S
C2204 H2208 0.930 . S
C2205 C2204 1.369 . S
C2205 C2214 1.429 1_565 S
C2206 C2204 1.419 . S
C2206 C2207 1.392 . S
C2206 H2209 0.929 . S
C2207 C2206 1.392 . S
C2207 C2213 1.402 1_565 S
H2208 C2204 0.930 . S
H2209 C2206 0.929 . S
S2210 N2211 1.613 . S
S2210 N2212 1.610 . S
N2211 S2210 1.613 . S
N2211 C2214 1.350 . S
N2212 S2210 1.610 . S
N2212 C2213 1.351 . S
C2213 C2207 1.402 1_545 S
C2213 N2212 1.351 . S
C2213 C2214 1.434 . S
C2214 C2205 1.429 1_545 S
C2214 N2211 1.350 . S
C2214 C2213 1.434 . S
C2215 C2216 1.369 . S
C2215 C2217 1.419 . S
C2215 H2219 0.930 . S
C2216 C2215 1.369 . S
C2216 C2225 1.429 . S
C2217 C2215 1.419 . S
C2217 C2218 1.363 . S
C2217 H2220 0.929 . S
C2218 C2217 1.363 . S
C2218 C2224 1.428 . S
H2219 C2215 0.930 . S
H2220 C2217 0.929 . S
S2221 N2222 1.613 . S
S2221 N2223 1.610 . S
N2222 S2221 1.613 . S
N2222 C2225 1.350 . S
N2223 S2221 1.610 . S
N2223 C2224 1.351 . S
C2224 C2218 1.428 . S
C2224 N2223 1.351 . S
C2224 C2225 1.434 . S
C2225 C2216 1.429 . S
C2225 N2222 1.350 . S
C2225 C2224 1.434 . S
C2226 C2227 1.369 . S
C2226 C2228 1.419 . S
C2226 H2230 0.930 . S
C2227 C2226 1.369 . S
C2227 C2236 1.429 . S
C2228 C2226 1.419 . S
C2228 C2229 1.363 . S
C2228 H2231 0.929 . S
C2229 C2228 1.363 . S
C2229 C2235 1.428 . S
H2230 C2226 0.930 . S
H2231 C2228 0.929 . S
S2232 N2233 1.613 . S
S2232 N2234 1.610 . S
N2233 S2232 1.613 . S
N2233 C2236 1.350 . S
N2234 S2232 1.610 . S
N2234 C2235 1.351 . S
C2235 C2229 1.428 . S
C2235 N2234 1.351 . S
C2235 C2236 1.434 . S
C2236 C2227 1.429 . S
C2236 N2233 1.350 . S
C2236 C2235 1.434 . S
C2237 C2238 1.369 . S
C2237 C2239 1.419 . S
C2237 H2241 0.930 . S
C2238 C2237 1.369 . S
C2238 C2247 1.429 . S
C2239 C2237 1.419 . S
C2239 C2240 1.363 . S
C2239 H2242 0.932 . S
C2240 C2239 1.363 . S
C2240 C2246 1.428 . S
H2241 C2237 0.930 . S
H2242 C2239 0.932 . S
S2243 N2244 1.616 . S
S2243 N2245 1.610 1_565 S
N2244 S2243 1.616 . S
N2244 C2247 1.350 . S
N2245 S2243 1.610 1_545 S
N2245 C2246 1.351 1_545 S
C2246 C2240 1.428 . S
C2246 N2245 1.351 1_565 S
C2246 C2247 1.434 . S
C2247 C2238 1.429 . S
C2247 N2244 1.350 . S
C2247 C2246 1.434 . S
C2248 C2249 1.369 . S
C2248 C2250 1.419 . S
C2248 H2252 0.930 . S
C2249 C2248 1.369 . S
C2249 C2258 1.429 . S
C2250 C2248 1.419 . S
C2250 C2251 1.363 . S
C2250 H2253 0.929 . S
C2251 C2250 1.363 . S
C2251 C2257 1.428 . S
H2252 C2248 0.930 . S
H2253 C2250 0.929 . S
S2254 N2255 1.613 . S
S2254 N2256 1.610 . S
N2255 S2254 1.613 . S
N2255 C2258 1.350 . S
N2256 S2254 1.610 . S
N2256 C2257 1.351 . S
C2257 C2251 1.428 . S
C2257 N2256 1.351 . S
C2257 C2258 1.434 . S
C2258 C2249 1.429 . S
C2258 N2255 1.350 . S
C2258 C2257 1.434 . S
C2259 C2260 1.369 . S
C2259 C2261 1.419 . S
C2259 H2263 0.930 . S
C2260 C2259 1.369 . S
C2260 C2269 1.429 . S
C2261 C2259 1.419 . S
C2261 C2262 1.363 . S
C2261 H2264 0.929 . S
C2262 C2261 1.363 . S
C2262 C2268 1.428 . S
H2263 C2259 0.930 . S
H2264 C2261 0.929 . S
S2265 N2266 1.613 . S
S2265 N2267 1.610 . S
N2266 S2265 1.613 . S
N2266 C2269 1.350 . S
N2267 S2265 1.610 . S
N2267 C2268 1.351 . S
C2268 C2262 1.428 . S
C2268 N2267 1.351 . S
C2268 C2269 1.434 . S
C2269 C2260 1.429 . S
C2269 N2266 1.350 . S
C2269 C2268 1.434 . S
C2270 C2271 1.369 . S
C2270 C2272 1.419 . S
C2270 H2274 0.930 . S
C2271 C2270 1.369 . S
C2271 C2280 1.429 . S
C2272 C2270 1.419 . S
C2272 C2273 1.363 . S
C2272 H2275 0.929 . S
C2273 C2272 1.363 . S
C2273 C2279 1.428 . S
H2274 C2270 0.930 . S
H2275 C2272 0.929 . S
S2276 N2277 1.613 . S
S2276 N2278 1.610 . S
N2277 S2276 1.613 . S
N2277 C2280 1.350 . S
N2278 S2276 1.610 . S
N2278 C2279 1.351 . S
C2279 C2273 1.428 . S
C2279 N2278 1.351 . S
C2279 C2280 1.434 . S
C2280 C2271 1.429 . S
C2280 N2277 1.350 . S
C2280 C2279 1.434 . S
C2281 C2282 1.369 . S
C2281 C2283 1.419 . S
C2281 H2285 0.930 . S
C2282 C2281 1.369 . S
C2282 C2291 1.429 . S
C2283 C2281 1.419 . S
C2283 C2284 1.363 . S
C2283 H2286 0.929 . S
C2284 C2283 1.363 . S
C2284 C2290 1.428 . S
H2285 C2281 0.930 . S
H2286 C2283 0.929 . S
S2287 N2288 1.613 . S
S2287 N2289 1.610 . S
N2288 S2287 1.613 . S
N2288 C2291 1.350 . S
N2289 S2287 1.610 . S
N2289 C2290 1.351 . S
C2290 C2284 1.428 . S
C2290 N2289 1.351 . S
C2290 C2291 1.434 . S
C2291 C2282 1.429 . S
C2291 N2288 1.350 . S
C2291 C2290 1.434 . S
C2292 C2293 1.369 . S
C2292 C2294 1.419 . S
C2292 H2296 0.930 . S
C2293 C2292 1.369 . S
C2293 C2302 1.429 . S
C2294 C2292 1.419 . S
C2294 C2295 1.363 . S
C2294 H2297 0.929 . S
C2295 C2294 1.363 . S
C2295 C2301 1.428 . S
H2296 C2292 0.930 . S
H2297 C2294 0.929 . S
S2298 N2299 1.613 . S
S2298 N2300 1.610 . S
N2299 S2298 1.613 . S
N2299 C2302 1.350 . S
N2300 S2298 1.610 . S
N2300 C2301 1.351 . S
C2301 C2295 1.428 . S
C2301 N2300 1.351 . S
C2301 C2302 1.434 . S
C2302 C2293 1.429 . S
C2302 N2299 1.350 . S
C2302 C2301 1.434 . S
C2303 C2304 1.369 . S
C2303 C2305 1.419 . S
C2303 H2307 0.930 . S
C2304 C2303 1.369 . S
C2304 C2313 1.429 . S
C2305 C2303 1.419 . S
C2305 C2306 1.363 . S
C2305 H2308 0.929 . S
C2306 C2305 1.363 . S
C2306 C2312 1.428 . S
H2307 C2303 0.930 . S
H2308 C2305 0.929 . S
S2309 N2310 1.613 . S
S2309 N2311 1.610 . S
N2310 S2309 1.613 . S
N2310 C2313 1.350 . S
N2311 S2309 1.610 . S
N2311 C2312 1.351 . S
C2312 C2306 1.428 . S
C2312 N2311 1.351 . S
C2312 C2313 1.434 . S
C2313 C2304 1.429 . S
C2313 N2310 1.350 . S
C2313 C2312 1.434 . S
C2314 C2315 1.369 . S
C2314 C2316 1.419 . S
C2314 H2318 0.930 . S
C2315 C2314 1.369 . S
C2315 C2324 1.429 . S
C2316 C2314 1.419 . S
C2316 C2317 1.363 . S
C2316 H2319 0.929 . S
C2317 C2316 1.363 . S
C2317 C2323 1.428 . S
H2318 C2314 0.930 . S
H2319 C2316 0.929 . S
S2320 N2321 1.613 . S
S2320 N2322 1.610 . S
N2321 S2320 1.613 . S
N2321 C2324 1.350 . S
N2322 S2320 1.610 . S
N2322 C2323 1.351 . S
C2323 C2317 1.428 . S
C2323 N2322 1.351 . S
C2323 C2324 1.434 . S
C2324 C2315 1.429 . S
C2324 N2321 1.350 . S
C2324 C2323 1.434 . S
C2325 C2326 1.369 . S
C2325 C2327 1.419 . S
C2325 H2329 0.930 . S
C2326 C2325 1.369 . S
C2326 C2335 1.429 . S
C2327 C2325 1.419 . S
C2327 C2328 1.363 . S
C2327 H2330 0.929 . S
C2328 C2327 1.363 . S
C2328 C2334 1.428 . S
H2329 C2325 0.930 . S
H2330 C2327 0.929 . S
S2331 N2332 1.613 . S
S2331 N2333 1.610 . S
N2332 S2331 1.613 . S
N2332 C2335 1.350 . S
N2333 S2331 1.610 . S
N2333 C2334 1.351 . S
C2334 C2328 1.428 . S
C2334 N2333 1.351 . S
C2334 C2335 1.434 . S
C2335 C2326 1.429 . S
C2335 N2332 1.350 . S
C2335 C2334 1.434 . S
C1281 C1018 1.560 . S
C1283 C18 1.567 . S
C1292 C978 1.564 . S
C1294 C58 1.562 . S
C1303 C1098 1.561 . S
C1305 C98 1.567 . S
C1314 C1058 1.561 . S
C1316 C138 1.564 . S
C1325 C169 1.567 . S
C1327 C1169 1.569 . S
C1336 C209 1.561 . S
C1338 C1129 1.564 . S
C1347 C249 1.565 . S
C1349 C1249 1.562 . S
C1358 C1209 1.567 . S
C1360 C289 1.569 . S
C1369 C698 1.571 . S
C1371 C338 1.565 . S
C1380 C658 1.560 . S
C1382 C378 1.565 . S
C1391 C778 1.561 . S
C1393 C418 1.564 . S
C1402 C738 1.564 . S
C1404 C458 1.570 . S
C1413 C489 1.567 . S
C1415 C849 1.570 . S
C1424 C809 1.561 . S
C1426 C529 1.568 . S
C1435 C569 1.561 . S
C1437 C929 1.563 . S
C1446 C889 1.571 . S
C1448 C609 1.568 . S
C1457 C15 0.734 . S
C1459 C806 0.753 . S
C1468 C526 0.745 . S
C1470 C55 0.744 . S
C1479 C1206 0.746 . S
C1481 C95 0.743 . S
C1490 C135 0.734 . S
C1492 C286 0.754 . S
C1501 C166 0.746 . S
C1503 C655 0.743 . S
C1512 C206 0.739 . S
C1514 C375 0.750 . S
C1523 C246 0.750 . S
C1525 C1055 0.741 . S
C1534 C1126 0.756 . S
C1536 C335 0.737 . S
C1545 C886 0.755 . S
C1547 C415 0.738 . S
C1556 C606 0.742 . S
C1558 C455 0.747 . S
C1567 C975 0.738 . S
C1569 C486 0.751 . S
C1578 C566 0.734 . S
C1580 C735 0.753 . S
C1589 C1166 0.738 . S
C1591 C695 0.751 . S
C1600 C775 0.748 . S
C1602 C926 0.744 . S
C1611 C1015 0.733 . S
C1613 C846 0.754 . S
C1622 C1095 0.742 . S
C1624 C1246 0.747 . S
C1633 C6 2.364 . S
C1635 C766 2.373 . S
C1644 C46 2.363 . S
C1646 C726 2.372 . S
C1655 C86 2.372 . S
C1657 C686 2.366 . S
C1666 C126 2.374 . S
C1668 C646 2.365 . S
C1677 C175 2.366 . S
C1679 C935 2.373 . S
C1688 C215 2.369 . S
C1690 C895 2.367 . S
C1699 C255 2.366 . S
C1701 C855 2.371 . S
C1710 C295 2.375 . S
C1712 C815 2.365 . S
C1721 C326 2.375 . S
C1723 C1086 2.365 . S
C1732 C366 2.363 . S
C1734 C1046 2.372 . S
C1743 C406 2.366 . S
C1745 C1006 2.370 . S
C1754 C446 2.367 . S
C1756 C966 2.371 . S
C1765 C1255 2.364 . S
C1767 C495 2.373 . S
C1776 C1215 2.364 . S
C1778 C535 2.372 . S
C1787 C1175 2.363 . S
C1789 C575 2.372 . S
C1798 C1135 2.373 . S
C1800 C615 2.366 . S
C1809 C89 1.927 . S
C1811 C9 1.931 . S
C1820 C129 1.932 . S
C1822 C49 1.928 . S
C1831 C258 1.925 . S
C1833 C178 1.930 . S
C1842 C218 1.926 . S
C1844 C298 1.931 . S
C1853 C409 1.926 . S
C1855 C329 1.930 . S
C1864 C369 1.928 . S
C1866 C449 1.926 . S
C1875 C578 1.925 . S
C1877 C498 1.928 . S
C1886 C538 1.932 . S
C1888 C618 1.927 . S
C1897 C649 1.925 . S
C1899 C729 1.929 . S
C1908 C689 1.932 . S
C1910 C769 1.930 . S
C1919 C898 1.926 . S
C1921 C818 1.930 . S
C1930 C858 1.932 . S
C1932 C938 1.928 . S
C1941 C969 1.932 . S
C1943 C1049 1.928 . S
C1952 C1089 1.930 . S
C1954 C1009 1.932 . S
C1963 C1138 1.927 . S
C1965 C1218 1.926 . S
C1974 C1178 1.928 . S
C1976 C1258 1.926 . S
C1985 C10 3.252 1_556 S
C1987 C290 3.233 1_545 S
C1996 C1210 3.233 . S
C1998 C50 3.251 1_556 S
C2007 C90 3.252 . S
C2009 C530 3.233 . S
C2018 C130 3.251 . S
C2020 C810 3.232 1_545 S
C2029 C139 3.231 1_565 S
C2031 C179 3.251 1_554 S
C2040 C219 3.251 1_554 S
C2042 C1059 3.233 . S
C2051 C379 3.231 . S
C2053 C259 3.252 . S
C2062 C659 3.233 1_565 S
C2064 C299 3.252 . S
C2073 C330 3.251 . S
C2075 C610 3.231 . S
C2084 C890 3.231 . S
C2086 C370 3.252 . S
C2095 C410 3.252 . S
C2097 C210 3.232 . S
C2106 C1130 3.231 . S
C2108 C450 3.252 . S
C2117 C499 3.251 . S
C2119 C459 3.231 . S
C2128 C539 3.250 . S
C2130 C739 3.232 . S
C2139 C579 3.252 . S
C2141 C59 3.231 . S
C2150 C979 3.232 . S
C2152 C619 3.251 . S
C2161 C650 3.252 . S
C2163 C930 3.232 1_545 S
C2172 C690 3.251 . S
C2174 C570 3.231 . S
C2183 C730 3.252 . S
C2185 C1170 3.232 . S
C2194 C770 3.251 . S
C2196 C170 3.231 1_545 S
C2205 C819 3.252 . S
C2207 C779 3.232 1_565 S
C2216 C419 3.231 . S
C2218 C859 3.251 . S
C2227 C1019 3.232 . S
C2229 C899 3.252 . S
C2238 C939 3.251 . S
C2240 C19 3.232 1_565 S
C2249 C1250 3.232 . S
C2251 C970 3.251 1_556 S
C2260 C250 3.231 . S
C2262 C1010 3.252 1_556 S
C2271 C850 3.231 . S
C2273 C1050 3.252 . S
C2282 C1090 3.251 . S
C2284 C490 3.231 . S
C2293 C1099 3.233 . S
C2295 C1139 3.252 1_554 S
C2304 C99 3.232 . S
C2306 C1179 3.252 1_554 S
C2315 C699 3.233 . S
C2317 C1219 3.252 . S
C2326 C1259 3.252 . S
C2328 C339 3.233 . S
