# Generated by pormake.
# Topology wiv, (6)-cn, num edge types: 1
# Building blocks:
#     Node 0, Type 0, BuildingBlock: BETDAH_clean_sbu_0, # of connection points: 6
#     Node 1, Type 0, BuildingBlock: BETDAH_clean_sbu_0, # of connection points: 6
#     Node 2, Type 0, BuildingBlock: BETDAH_clean_sbu_0, # of connection points: 6
#     Node 3, Type 0, BuildingBlock: BETDAH_clean_sbu_0, # of connection points: 6
#     Node 4, Type 0, BuildingBlock: BETDAH_clean_sbu_0, # of connection points: 6
#     Node 5, Type 0, BuildingBlock: BETDAH_clean_sbu_0, # of connection points: 6
#     Node 6, Type 0, BuildingBlock: BETDAH_clean_sbu_0, # of connection points: 6
#     Node 7, Type 0, BuildingBlock: BETDAH_clean_sbu_0, # of connection points: 6
#     Node 8, Type 0, BuildingBlock: BETDAH_clean_sbu_0, # of connection points: 6
#     Node 9, Type 0, BuildingBlock: BETDAH_clean_sbu_0, # of connection points: 6
#     Node 10, Type 0, BuildingBlock: BETDAH_clean_sbu_0, # of connection points: 6
#     Node 11, Type 0, BuildingBlock: BETDAH_clean_sbu_0, # of connection points: 6
#     Node 12, Type 0, BuildingBlock: BETDAH_clean_sbu_0, # of connection points: 6
#     Node 13, Type 0, BuildingBlock: BETDAH_clean_sbu_0, # of connection points: 6
#     Node 14, Type 0, BuildingBlock: BETDAH_clean_sbu_0, # of connection points: 6
#     Node 15, Type 0, BuildingBlock: BETDAH_clean_sbu_0, # of connection points: 6
#     Edge 16, Type (0, 0), BuildingBlock: CIFDUS_clean_linker_0, # of connection points: 2
#     Edge 17, Type (0, 0), BuildingBlock: CIFDUS_clean_linker_0, # of connection points: 2
#     Edge 18, Type (0, 0), BuildingBlock: CIFDUS_clean_linker_0, # of connection points: 2
#     Edge 19, Type (0, 0), BuildingBlock: CIFDUS_clean_linker_0, # of connection points: 2
#     Edge 20, Type (0, 0), BuildingBlock: CIFDUS_clean_linker_0, # of connection points: 2
#     Edge 21, Type (0, 0), BuildingBlock: CIFDUS_clean_linker_0, # of connection points: 2
#     Edge 22, Type (0, 0), BuildingBlock: CIFDUS_clean_linker_0, # of connection points: 2
#     Edge 23, Type (0, 0), BuildingBlock: CIFDUS_clean_linker_0, # of connection points: 2
#     Edge 24, Type (0, 0), BuildingBlock: CIFDUS_clean_linker_0, # of connection points: 2
#     Edge 25, Type (0, 0), BuildingBlock: CIFDUS_clean_linker_0, # of connection points: 2
#     Edge 26, Type (0, 0), BuildingBlock: CIFDUS_clean_linker_0, # of connection points: 2
#     Edge 27, Type (0, 0), BuildingBlock: CIFDUS_clean_linker_0, # of connection points: 2
#     Edge 28, Type (0, 0), BuildingBlock: CIFDUS_clean_linker_0, # of connection points: 2
#     Edge 29, Type (0, 0), BuildingBlock: CIFDUS_clean_linker_0, # of connection points: 2
#     Edge 30, Type (0, 0), BuildingBlock: CIFDUS_clean_linker_0, # of connection points: 2
#     Edge 31, Type (0, 0), BuildingBlock: CIFDUS_clean_linker_0, # of connection points: 2
#     Edge 32, Type (0, 0), BuildingBlock: CIFDUS_clean_linker_0, # of connection points: 2
#     Edge 33, Type (0, 0), BuildingBlock: CIFDUS_clean_linker_0, # of connection points: 2
#     Edge 34, Type (0, 0), BuildingBlock: CIFDUS_clean_linker_0, # of connection points: 2
#     Edge 35, Type (0, 0), BuildingBlock: CIFDUS_clean_linker_0, # of connection points: 2
#     Edge 36, Type (0, 0), BuildingBlock: CIFDUS_clean_linker_0, # of connection points: 2
#     Edge 37, Type (0, 0), BuildingBlock: CIFDUS_clean_linker_0, # of connection points: 2
#     Edge 38, Type (0, 0), BuildingBlock: CIFDUS_clean_linker_0, # of connection points: 2
#     Edge 39, Type (0, 0), BuildingBlock: CIFDUS_clean_linker_0, # of connection points: 2
#     Edge 40, Type (0, 0), BuildingBlock: CIFDUS_clean_linker_0, # of connection points: 2
#     Edge 41, Type (0, 0), BuildingBlock: CIFDUS_clean_linker_0, # of connection points: 2
#     Edge 42, Type (0, 0), BuildingBlock: CIFDUS_clean_linker_0, # of connection points: 2
#     Edge 43, Type (0, 0), BuildingBlock: CIFDUS_clean_linker_0, # of connection points: 2
#     Edge 44, Type (0, 0), BuildingBlock: CIFDUS_clean_linker_0, # of connection points: 2
#     Edge 45, Type (0, 0), BuildingBlock: CIFDUS_clean_linker_0, # of connection points: 2
#     Edge 46, Type (0, 0), BuildingBlock: CIFDUS_clean_linker_0, # of connection points: 2
#     Edge 47, Type (0, 0), BuildingBlock: CIFDUS_clean_linker_0, # of connection points: 2
#     Edge 48, Type (0, 0), BuildingBlock: CIFDUS_clean_linker_0, # of connection points: 2
#     Edge 49, Type (0, 0), BuildingBlock: CIFDUS_clean_linker_0, # of connection points: 2
#     Edge 50, Type (0, 0), BuildingBlock: CIFDUS_clean_linker_0, # of connection points: 2
#     Edge 51, Type (0, 0), BuildingBlock: CIFDUS_clean_linker_0, # of connection points: 2
#     Edge 52, Type (0, 0), BuildingBlock: CIFDUS_clean_linker_0, # of connection points: 2
#     Edge 53, Type (0, 0), BuildingBlock: CIFDUS_clean_linker_0, # of connection points: 2
#     Edge 54, Type (0, 0), BuildingBlock: CIFDUS_clean_linker_0, # of connection points: 2
#     Edge 55, Type (0, 0), BuildingBlock: CIFDUS_clean_linker_0, # of connection points: 2
#     Edge 56, Type (0, 0), BuildingBlock: CIFDUS_clean_linker_0, # of connection points: 2
#     Edge 57, Type (0, 0), BuildingBlock: CIFDUS_clean_linker_0, # of connection points: 2
#     Edge 58, Type (0, 0), BuildingBlock: CIFDUS_clean_linker_0, # of connection points: 2
#     Edge 59, Type (0, 0), BuildingBlock: CIFDUS_clean_linker_0, # of connection points: 2
#     Edge 60, Type (0, 0), BuildingBlock: CIFDUS_clean_linker_0, # of connection points: 2
#     Edge 61, Type (0, 0), BuildingBlock: CIFDUS_clean_linker_0, # of connection points: 2
#     Edge 62, Type (0, 0), BuildingBlock: CIFDUS_clean_linker_0, # of connection points: 2
#     Edge 63, Type (0, 0), BuildingBlock: CIFDUS_clean_linker_0, # of connection points: 2
# Relax obj value: 0.141
# Max RMSD: 0.194
# Mean RMSD: 0.194
data_MOF--net-wiv--node1-BETDAH_clean_sbu_0--edge1-CIFDUS_clean_linker_0
_symmetry_space_group_name_H-M    P1
_symmetry_Int_Tables_number       1
_symmetry_cell_setting            triclinic
loop_
_symmetry_equiv_pos_as_xyz
'x, y, z'
_cell_length_a     43.500486
_cell_length_b     43.377915
_cell_length_c     22.790141
_cell_angle_alpha  89.974974
_cell_angle_beta   89.882539
_cell_angle_gamma 89.970665
loop_
_atom_site_label
_atom_site_type_symbol
_atom_site_fract_x
_atom_site_fract_y
_atom_site_fract_z
_atom_type_partial_charge
Ho0 Ho 0.33889 0.10823 0.17011 0.0
Ho1 Ho 0.38362 0.11054 0.07143 0.0
C2 C 0.41155 0.12621 0.19495 0.0
C3 C 0.31205 0.09691 0.26961 0.0
C4 C 0.32202 0.09446 0.33138 0.0
C5 C 0.35198 0.08513 0.34597 0.0
C6 C 0.36142 0.08434 0.40471 0.0
C7 C 0.34112 0.093 0.45007 0.0
C8 C 0.31105 0.10208 0.43512 0.0
C9 C 0.30164 0.10279 0.37641 0.0
C10 C 0.3404 0.1636 0.11561 0.0
C11 C 0.31082 0.09911 0.04105 0.0
C12 C 0.41156 0.11795 0.97178 0.0
C13 C 0.40151 0.11827 0.90978 0.0
C14 C 0.37213 0.12885 0.89411 0.0
C15 C 0.36249 0.12806 0.83556 0.0
C16 C 0.3821 0.11693 0.79107 0.0
C17 C 0.41159 0.10644 0.80704 0.0
C18 C 0.42112 0.10705 0.86577 0.0
C19 C 0.38403 0.05725 0.13492 0.0
O20 O 0.38554 0.11438 0.2159 0.0
O21 O 0.41506 0.13116 0.13813 0.0
O22 O 0.31386 0.12436 0.24644 0.0
O23 O 0.32152 0.07538 0.23368 0.0
O24 O 0.31557 0.15003 0.13374 0.0
O25 O 0.3636 0.14719 0.12777 0.0
O26 O 0.33837 0.10749 1.02267 0.0
O27 O 0.30537 0.09478 0.0979 0.0
O28 O 0.40955 0.09141 0.99864 0.0
O29 O 0.40219 0.14083 1.0047 0.0
O30 O 0.40841 0.0711 0.11543 0.0
O31 O 0.36056 0.07204 0.11818 0.0
H32 H 0.36818 0.07875 0.31197 0.0
H33 H 0.38482 0.07755 0.41448 0.0
H34 H 0.29469 0.10848 0.46886 0.0
H35 H 0.27843 0.11007 0.36612 0.0
H36 H 0.35648 0.1376 0.92713 0.0
H37 H 0.33947 0.13588 0.82535 0.0
H38 H 0.42752 0.09813 0.77409 0.0
H39 H 0.44388 0.09875 0.87683 0.0
Ho40 Ho 0.1075 0.62241 0.9926 0.0
Ho41 Ho 0.10814 0.66583 0.89377 0.0
C42 C 0.10016 0.69565 1.02192 0.0
C43 C 0.11513 0.59464 0.09238 0.0
C44 C 0.1164 0.60473 0.15436 0.0
C45 C 0.13023 0.63276 0.17019 0.0
C46 C 0.13021 0.64255 0.22872 0.0
C47 C 0.11645 0.6245 0.27297 0.0
C48 C 0.10283 0.59628 0.25685 0.0
C49 C 0.10277 0.58658 0.1982 0.0
C50 C 0.05368 0.62351 0.932 0.0
C51 C 0.11864 0.59187 0.86966 0.0
C52 C 0.10268 0.69468 0.79421 0.0
C53 C 0.09763 0.68602 0.73238 0.0
C54 C 0.08496 0.65735 0.71717 0.0
C55 C 0.08289 0.64853 0.65813 0.0
C56 C 0.09356 0.66818 0.61323 0.0
C57 C 0.10562 0.69714 0.62885 0.0
C58 C 0.10763 0.70593 0.6878 0.0
C59 C 0.16418 0.66005 0.94527 0.0
O60 O 0.10722 0.66783 0.04069 0.0
O61 O 0.09631 0.70089 0.96496 0.0
O62 O 0.08848 0.59742 0.0667 0.0
O63 O 0.13783 0.6032 0.05837 0.0
O64 O 0.06558 0.59917 0.95585 0.0
O65 O 0.06976 0.647 0.94493 0.0
O66 O 0.10814 0.61845 0.84857 0.0
O67 O 0.1246 0.58886 0.9261 0.0
O68 O 0.12887 0.68597 0.8163 0.0
O69 O 0.07995 0.69049 0.83081 0.0
O70 O 0.15132 0.68589 0.93078 0.0
O71 O 0.1455 0.63835 0.93476 0.0
H72 H 0.14084 0.64731 0.13725 0.0
H73 H 0.14062 0.66455 0.23903 0.0
H74 H 0.0925 0.58146 0.28962 0.0
H75 H 0.09199 0.56485 0.18703 0.0
H76 H 0.07723 0.64155 0.75091 0.0
H77 H 0.07374 0.62597 0.64779 0.0
H78 H 0.11359 0.71304 0.59546 0.0
H79 H 0.11751 0.72814 0.69863 0.0
Ho80 Ho 0.67521 0.90183 0.18553 0.0
Ho81 Ho 0.62921 0.90096 0.08773 0.0
C82 C 0.60126 0.89188 0.21463 0.0
C83 C 0.7029 0.91195 0.28468 0.0
C84 C 0.69539 0.90837 0.34789 0.0
C85 C 0.66649 0.91688 0.3705 0.0
C86 C 0.66027 0.91445 0.43073 0.0
C87 C 0.68272 0.90331 0.46994 0.0
C88 C 0.71144 0.89432 0.44678 0.0
C89 C 0.71769 0.8969 0.38658 0.0
C90 C 0.66644 0.84478 0.14009 0.0
C91 C 0.70219 0.90974 0.05557 0.0
C92 C 0.60085 0.89088 0.98946 0.0
C93 C 0.60871 0.89107 0.92601 0.0
C94 C 0.63639 0.87849 0.90473 0.0
C95 C 0.64322 0.8791 0.84448 0.0
C96 C 0.62245 0.89211 0.80409 0.0
C97 C 0.59481 0.9047 0.82572 0.0
C98 C 0.58808 0.90421 0.88588 0.0
C99 C 0.6353 0.95621 0.14225 0.0
O100 O 0.62929 0.89858 0.23374 0.0
O101 O 0.59537 0.88849 0.15812 0.0
O102 O 0.70642 0.88668 0.25432 0.0
O103 O 0.68757 0.93288 0.25579 0.0
O104 O 0.69286 0.85629 0.15475 0.0
O105 O 0.64566 0.86474 0.14906 0.0
O106 O 0.67444 0.90125 0.03854 0.0
O107 O 0.70812 0.91482 0.11193 0.0
O108 O 0.60101 0.91759 1.01592 0.0
O109 O 0.61288 0.86902 1.02174 0.0
O110 O 0.60952 0.94546 0.1224 0.0
O111 O 0.65693 0.93798 0.12871 0.0
H112 H 0.64878 0.92579 0.34179 0.0
H113 H 0.63804 0.92201 0.44664 0.0
H114 H 0.72916 0.88512 0.47512 0.0
H115 H 0.74008 0.89007 0.37023 0.0
H116 H 0.65271 0.86808 0.93458 0.0
H117 H 0.66453 0.86886 0.82943 0.0
H118 H 0.57843 0.91525 0.79614 0.0
H119 H 0.56665 0.91414 0.90113 0.0
Ho120 Ho 0.89369 0.38307 0.9795 0.0
Ho121 Ho 0.90363 0.33582 0.87371 0.0
C122 C 0.907 0.3092 1.00721 0.0
C123 C 0.87984 0.40798 0.07924 0.0
C124 C 0.87938 0.39689 0.1408 0.0
C125 C 0.86901 0.36715 0.1554 0.0
C126 C 0.87096 0.35634 0.21331 0.0
C127 C 0.88345 0.37495 0.258 0.0
C128 C 0.89322 0.40494 0.2432 0.0
C129 C 0.89124 0.41571 0.18536 0.0
C130 C 0.94882 0.38407 0.92381 0.0
C131 C 0.88262 0.40854 0.85042 0.0
C132 C 0.92837 0.31293 0.78014 0.0
C133 C 0.92528 0.32051 0.71671 0.0
C134 C 0.93119 0.35054 0.6961 0.0
C135 C 0.92875 0.35758 0.63642 0.0
C136 C 0.92014 0.33492 0.59551 0.0
C137 C 0.9137 0.30499 0.6161 0.0
C138 C 0.9164 0.29784 0.67605 0.0
C139 C 0.84253 0.34322 0.89471 0.0
O140 O 0.90029 0.33737 1.02591 0.0
O141 O 0.91067 0.3027 0.95031 0.0
O142 O 0.90711 0.40994 0.05521 0.0
O143 O 0.85922 0.39663 0.04328 0.0
O144 O 0.93515 0.40832 0.94483 0.0
O145 O 0.93296 0.36042 0.93603 0.0
O146 O 0.89523 0.38258 0.83025 0.0
O147 O 0.87634 0.41321 0.90675 0.0
O148 O 0.90454 0.30035 0.80609 0.0
O149 O 0.94159 0.33386 0.81284 0.0
O150 O 0.85398 0.3247 0.85573 0.0
O151 O 0.86469 0.35552 0.92184 0.0
H152 H 0.85994 0.352 0.12188 0.0
H153 H 0.86336 0.33309 0.22266 0.0
H154 H 0.90235 0.42024 0.27638 0.0
H155 H 0.89938 0.43872 0.17525 0.0
H156 H 0.93775 0.36876 0.72602 0.0
H157 H 0.93341 0.38097 0.62233 0.0
H158 H 0.90717 0.28696 0.58571 0.0
H159 H 0.91168 0.27454 0.69064 0.0
Ho160 Ho 0.32661 0.40911 0.11855 0.0
Ho161 Ho 0.37369 0.39939 0.22392 0.0
C162 C 0.40057 0.39562 0.09599 0.0
C163 C 0.3029 0.43228 1.02427 0.0
C164 C 0.31048 0.42835 0.96099 0.0
C165 C 0.34102 0.4312 0.94114 0.0
C166 C 0.34813 0.42861 0.88152 0.0
C167 C 0.32502 0.42286 0.83994 0.0
C168 C 0.29453 0.4193 0.85972 0.0
C169 C 0.28733 0.42222 0.91968 0.0
C170 C 0.33753 0.34765 0.13426 0.0
C171 C 0.29989 0.41071 0.25213 0.0
C172 C 0.39813 0.38335 0.32276 0.0
C173 C 0.38701 0.38327 0.38439 0.0
C174 C 0.35723 0.37323 0.39896 0.0
C175 C 0.34644 0.37517 0.45686 0.0
C176 C 0.36512 0.38727 0.50176 0.0
C177 C 0.39519 0.39667 0.48703 0.0
C178 C 0.40593 0.39475 0.4291 0.0
C179 C 0.37017 0.45666 0.17607 0.0
O180 O 0.37471 0.40923 0.07866 0.0
O181 O 0.40427 0.38472 0.14983 0.0
O182 O 0.29074 0.40866 0.0517 0.0
O183 O 0.32386 0.44606 0.05575 0.0
O184 O 0.3187 0.35905 0.09612 0.0
O185 O 0.34858 0.36997 0.16289 0.0
O186 O 0.32802 0.40402 0.27039 0.0
O187 O 0.29331 0.41498 0.1954 0.0
O188 O 0.40205 0.41055 0.29907 0.0
O189 O 0.38532 0.36371 0.28657 0.0
O190 O 0.3954 0.44452 0.19619 0.0
O191 O 0.34804 0.43832 0.18538 0.0
H192 H 0.35957 0.43571 0.97156 0.0
H193 H 0.37188 0.43106 0.86791 0.0
H194 H 0.2762 0.41506 0.82868 0.0
H195 H 0.26365 0.42003 0.93375 0.0
H196 H 0.342 0.36436 0.36545 0.0
H197 H 0.32314 0.36784 0.46598 0.0
H198 H 0.41061 0.40541 0.52031 0.0
H199 H 0.42901 0.40255 0.4191 0.0
Ho200 Ho 0.39902 0.63094 0.83689 0.0
Ho201 Ho 0.40254 0.67581 0.93441 0.0
C202 C 0.41166 0.70373 0.8051 0.0
C203 C 0.38604 0.6043 0.73786 0.0
C204 C 0.38957 0.6118 0.67459 0.0
C205 C 0.36716 0.60189 0.6347 0.0
C206 C 0.37002 0.60832 0.57464 0.0
C207 C 0.39551 0.6248 0.55266 0.0
C208 C 0.41776 0.63514 0.59306 0.0
C209 C 0.41481 0.62873 0.65328 0.0
C210 C 0.45486 0.63203 0.88974 0.0
C211 C 0.39258 0.60257 0.96223 0.0
C212 C 0.40879 0.70463 0.03396 0.0
C213 C 0.41348 0.6971 0.09672 0.0
C214 C 0.42224 0.66753 0.11561 0.0
C215 C 0.42359 0.66056 0.17587 0.0
C216 C 0.41625 0.68304 0.21842 0.0
C217 C 0.40794 0.7127 0.19885 0.0
C218 C 0.40655 0.71955 0.13887 0.0
C219 C 0.34588 0.67167 0.8854 0.0
O220 O 0.4039 0.67586 0.78725 0.0
O221 O 0.41531 0.70965 0.86191 0.0
O222 O 0.41117 0.59897 0.76756 0.0
O223 O 0.36639 0.62105 0.76739 0.0
O224 O 0.44253 0.60767 0.86679 0.0
O225 O 0.43834 0.65549 0.8789 0.0
O226 O 0.40552 0.62878 0.97894 0.0
O227 O 0.38276 0.59893 0.9079 0.0
O228 O 0.38246 0.69622 1.01211 0.0
O229 O 0.43148 0.69982 0.99745 0.0
O230 O 0.36013 0.69713 0.89701 0.0
O231 O 0.36327 0.64915 0.89768 0.0
H232 H 0.34734 0.58907 0.65003 0.0
H233 H 0.35203 0.60051 0.54547 0.0
H234 H 0.4378 0.64769 0.57812 0.0
H235 H 0.43238 0.63685 0.68314 0.0
H236 H 0.42757 0.64972 0.0839 0.0
H237 H 0.43037 0.63757 0.18911 0.0
H238 H 0.40158 0.73046 0.22994 0.0
H239 H 0.39928 0.74231 0.12521 0.0
Ho240 Ho 0.66765 0.60581 0.14328 0.0
Ho241 Ho 0.62352 0.61099 0.24182 0.0
C242 C 0.59559 0.62634 0.11821 0.0
C243 C 0.69463 0.5927 0.04449 0.0
C244 C 0.68706 0.59293 0.98118 0.0
C245 C 0.65738 0.58614 0.96064 0.0
C246 C 0.6509 0.58704 0.90032 0.0
C247 C 0.67397 0.59477 0.85926 0.0
C248 C 0.70361 0.60162 0.8804 0.0
C249 C 0.71003 0.60066 0.94053 0.0
C250 C 0.66821 0.66222 0.19383 0.0
C251 C 0.69555 0.59693 0.27275 0.0
C252 C 0.59524 0.62029 0.34072 0.0
C253 C 0.60273 0.61809 0.40401 0.0
C254 C 0.63209 0.62546 0.42557 0.0
C255 C 0.63853 0.62312 0.48573 0.0
C256 C 0.61571 0.61352 0.52572 0.0
C257 C 0.58642 0.60599 0.50369 0.0
C258 C 0.58006 0.60823 0.44361 0.0
C259 C 0.62179 0.55659 0.18168 0.0
O260 O 0.62128 0.61378 0.09724 0.0
O261 O 0.59258 0.63201 0.17485 0.0
O262 O 0.69627 0.6196 0.06986 0.0
O263 O 0.68089 0.5722 0.07746 0.0
O264 O 0.69241 0.64691 0.17775 0.0
O265 O 0.64432 0.64644 0.18318 0.0
O266 O 0.66839 0.60653 0.29096 0.0
O267 O 0.70068 0.59164 0.21607 0.0
O268 O 0.59412 0.59428 0.31196 0.0
O269 O 0.60877 0.64213 0.31063 0.0
O270 O 0.5978 0.57159 0.19965 0.0
O271 O 0.64558 0.57103 0.19773 0.0
H272 H 0.63922 0.58013 0.99113 0.0
H273 H 0.62791 0.58129 0.88586 0.0
H274 H 0.72186 0.60819 0.85054 0.0
H275 H 0.73304 0.60617 0.95538 0.0
H276 H 0.65001 0.63322 0.39603 0.0
H277 H 0.66123 0.62941 0.50104 0.0
H278 H 0.5684 0.59808 0.53288 0.0
H279 H 0.55732 0.60225 0.42802 0.0
Ho280 Ho 0.60459 0.38561 0.8335 0.0
Ho281 Ho 0.60625 0.33819 0.93 0.0
C282 C 0.59599 0.31237 0.79999 0.0
C283 C 0.61217 0.41337 0.73368 0.0
C284 C 0.61438 0.40286 0.67178 0.0
C285 C 0.63 0.3756 0.65669 0.0
C286 C 0.6308 0.36534 0.59835 0.0
C287 C 0.61608 0.38211 0.55341 0.0
C288 C 0.60069 0.40956 0.5688 0.0
C289 C 0.59982 0.41974 0.62723 0.0
C290 C 0.55133 0.37972 0.8942 0.0
C291 C 0.61659 0.41241 0.95994 0.0
C292 C 0.59949 0.30968 1.0296 0.0
C293 C 0.59848 0.31931 0.09205 0.0
C294 C 0.58576 0.34779 0.10876 0.0
C295 C 0.58501 0.3566 0.16792 0.0
C296 C 0.59706 0.33722 0.2119 0.0
C297 C 0.61003 0.30882 0.19488 0.0
C298 C 0.61068 0.29999 0.13562 0.0
C299 C 0.66009 0.34506 0.87272 0.0
O300 O 0.60354 0.34056 0.78339 0.0
O301 O 0.59245 0.30555 0.85653 0.0
O302 O 0.58537 0.40992 0.75884 0.0
O303 O 0.63489 0.40596 0.76861 0.0
O304 O 0.56159 0.40564 0.87349 0.0
O305 O 0.56882 0.3579 0.8784 0.0
O306 O 0.61013 0.3841 0.97855 0.0
O307 O 0.61849 0.41907 0.90344 0.0
O308 O 0.62591 0.31266 1.00296 0.0
O309 O 0.57659 0.31845 0.99654 0.0
O310 O 0.64879 0.31878 0.88931 0.0
O311 O 0.64235 0.36675 0.88815 0.0
H312 H 0.64128 0.36193 0.69011 0.0
H313 H 0.64252 0.3439 0.58877 0.0
H314 H 0.58956 0.42348 0.53562 0.0
H315 H 0.58765 0.44084 0.63768 0.0
H316 H 0.57638 0.36329 0.07609 0.0
H317 H 0.57525 0.3788 0.17916 0.0
H318 H 0.61925 0.29318 0.22745 0.0
H319 H 0.62067 0.27796 0.12378 0.0
Ho320 Ho 0.8385 0.6001 0.68667 0.0
Ho321 Ho 0.88366 0.61064 0.58046 0.0
C322 C 0.91069 0.62177 0.70738 0.0
C323 C 0.81541 0.57487 0.77938 0.0
C324 C 0.81977 0.58186 0.84212 0.0
C325 C 0.81795 0.55822 0.88394 0.0
C326 C 0.82629 0.56375 0.94237 0.0
C327 C 0.83673 0.59306 0.95998 0.0
C328 C 0.83758 0.61691 0.91805 0.0
C329 C 0.82937 0.61132 0.85974 0.0
C330 C 0.84571 0.66183 0.66965 0.0
C331 C 0.81044 0.59683 0.55386 0.0
C332 C 0.90759 0.62469 0.48015 0.0
C333 C 0.89797 0.61804 0.41915 0.0
C334 C 0.89961 0.64116 0.37625 0.0
C335 C 0.88946 0.63547 0.31894 0.0
C336 C 0.87757 0.60641 0.30308 0.0
C337 C 0.87611 0.58327 0.34639 0.0
C338 C 0.886 0.58907 0.40373 0.0
C339 C 0.88404 0.55407 0.63231 0.0
O340 O 0.88629 0.60642 0.72767 0.0
O341 O 0.91261 0.63077 0.65187 0.0
O342 O 0.80066 0.59551 0.74807 0.0
O343 O 0.84006 0.56455 0.75296 0.0
O344 O 0.82789 0.64962 0.70889 0.0
O345 O 0.85774 0.64015 0.64047 0.0
O346 O 0.83838 0.60324 0.53418 0.0
O347 O 0.80466 0.59319 0.61104 0.0
O348 O 0.9165 0.60105 0.51155 0.0
O349 O 0.88986 0.64354 0.50967 0.0
O350 O 0.9083 0.56797 0.61222 0.0
O351 O 0.86079 0.57065 0.62154 0.0
H352 H 0.81111 0.5352 0.87099 0.0
H353 H 0.82568 0.54475 0.97316 0.0
H354 H 0.84503 0.63986 0.93008 0.0
H355 H 0.83137 0.62984 0.82806 0.0
H356 H 0.90841 0.66378 0.38726 0.0
H357 H 0.89042 0.65411 0.28739 0.0
H358 H 0.86752 0.5605 0.33604 0.0
H359 H 0.88412 0.57086 0.43607 0.0
Ho360 Ho 0.60816 0.13178 0.47644 0.0
Ho361 Ho 0.60514 0.17743 0.38103 0.0
C362 C 0.59559 0.20423 0.51 0.0
C363 C 0.61975 0.10522 0.57595 0.0
C364 C 0.61969 0.11589 0.63809 0.0
C365 C 0.63968 0.13923 0.65754 0.0
C366 C 0.63874 0.14952 0.71583 0.0
C367 C 0.61764 0.13697 0.75635 0.0
C368 C 0.59779 0.11348 0.73672 0.0
C369 C 0.59891 0.10302 0.67852 0.0
C370 C 0.55288 0.13235 0.42153 0.0
C371 C 0.61552 0.10432 0.3508 0.0
C372 C 0.60022 0.20623 0.28142 0.0
C373 C 0.59796 0.19676 0.21909 0.0
C374 C 0.57867 0.17262 0.20095 0.0
C375 C 0.57901 0.16253 0.14248 0.0
C376 C 0.599 0.17598 0.10085 0.0
C377 C 0.61794 0.20046 0.11936 0.0
C378 C 0.6173 0.21075 0.17757 0.0
C379 C 0.66138 0.17323 0.43158 0.0
O380 O 0.60463 0.17657 0.52674 0.0
O381 O 0.59102 0.21041 0.45362 0.0
O382 O 0.59302 0.10384 0.55008 0.0
O383 O 0.64108 0.11631 0.54131 0.0
O384 O 0.5658 0.10796 0.44327 0.0
O385 O 0.56868 0.15613 0.43395 0.0
O386 O 0.60326 0.13094 0.33439 0.0
O387 O 0.62434 0.09983 0.40551 0.0
O388 O 0.62635 0.19996 0.30652 0.0
O389 O 0.57688 0.20068 0.316 0.0
O390 O 0.64694 0.19871 0.42094 0.0
O391 O 0.6443 0.15077 0.41777 0.0
H392 H 0.65601 0.14974 0.62773 0.0
H393 H 0.65479 0.16725 0.72906 0.0
H394 H 0.58084 0.10352 0.76594 0.0
H395 H 0.58318 0.08506 0.66486 0.0
H396 H 0.56372 0.16114 0.23205 0.0
H397 H 0.56363 0.14404 0.13012 0.0
H398 H 0.63407 0.21117 0.08943 0.0
H399 H 0.63263 0.22918 0.19063 0.0
Ho400 Ho 0.16466 0.39787 0.67026 0.0
Ho401 Ho 0.11784 0.39977 0.57367 0.0
C402 C 0.09131 0.38654 0.7 0.0
C403 C 0.19417 0.40259 0.7691 0.0
C404 C 0.18631 0.40341 0.83249 0.0
C405 C 0.15795 0.41473 0.85294 0.0
C406 C 0.15104 0.41464 0.91324 0.0
C407 C 0.1723 0.40312 0.95446 0.0
C408 C 0.2005 0.39149 0.9334 0.0
C409 C 0.20736 0.39165 0.8733 0.0
C410 C 0.15834 0.34396 0.61215 0.0
C411 C 0.19073 0.4097 0.54082 0.0
C412 C 0.08936 0.39223 0.4745 0.0
C413 C 0.0973 0.39274 0.41098 0.0
C414 C 0.12509 0.38052 0.38949 0.0
C415 C 0.13193 0.38144 0.32918 0.0
C416 C 0.11106 0.39443 0.28886 0.0
C417 C 0.08333 0.4067 0.31079 0.0
C418 C 0.07659 0.40589 0.37098 0.0
C419 C 0.12111 0.45251 0.63694 0.0
O420 O 0.11909 0.39408 0.71904 0.0
O421 O 0.08509 0.38401 0.64345 0.0
O422 O 0.1892 0.3765 0.74236 0.0
O423 O 0.18624 0.42625 0.73698 0.0
O424 O 0.18439 0.35588 0.62768 0.0
O425 O 0.13655 0.36154 0.6277 0.0
O426 O 0.16262 0.40278 0.52355 0.0
O427 O 0.19738 0.41232 0.59749 0.0
O428 O 0.09084 0.41858 0.50207 0.0
O429 O 0.10019 0.36946 0.50601 0.0
O430 O 0.0962 0.44206 0.61306 0.0
O431 O 0.14391 0.43614 0.62129 0.0
H432 H 0.14108 0.42359 0.82241 0.0
H433 H 0.1292 0.42398 0.92757 0.0
H434 H 0.21724 0.38184 0.96335 0.0
H435 H 0.22916 0.38233 0.8586 0.0
H436 H 0.1415 0.37015 0.41923 0.0
H437 H 0.15334 0.37145 0.31402 0.0
H438 H 0.06685 0.41725 0.28143 0.0
H439 H 0.05507 0.41557 0.38635 0.0
Ho440 Ho 0.39945 0.88769 0.48532 0.0
Ho441 Ho 0.40455 0.84163 0.38878 0.0
C442 C 0.41335 0.81522 0.51864 0.0
C443 C 0.38942 0.91492 0.58481 0.0
C444 C 0.3885 0.90465 0.64691 0.0
C445 C 0.37617 0.87588 0.66286 0.0
C446 C 0.37671 0.86604 0.72148 0.0
C447 C 0.3896 0.88472 0.76565 0.0
C448 C 0.40178 0.91358 0.74938 0.0
C449 C 0.40124 0.92338 0.69075 0.0
C450 C 0.45375 0.88829 0.42643 0.0
C451 C 0.38572 0.91427 0.35949 0.0
C452 C 0.41753 0.81565 0.28925 0.0
C453 C 0.41698 0.82565 0.22693 0.0
C454 C 0.42887 0.85434 0.20935 0.0
C455 C 0.42817 0.86328 0.15024 0.0
C456 C 0.41546 0.84381 0.10713 0.0
C457 C 0.40315 0.8153 0.12514 0.0
C458 C 0.40386 0.80642 0.18431 0.0
C459 C 0.34863 0.84203 0.44029 0.0
O460 O 0.40342 0.84264 0.53525 0.0
O461 O 0.41889 0.80931 0.46237 0.0
O462 O 0.41637 0.91389 0.55951 0.0
O463 O 0.36743 0.90515 0.55031 0.0
O464 O 0.43938 0.91277 0.44411 0.0
O465 O 0.43896 0.86464 0.44244 0.0
O466 O 0.39502 0.88687 0.34039 0.0
O467 O 0.38268 0.92021 0.41606 0.0
O468 O 0.39084 0.81312 0.31511 0.0
O469 O 0.43819 0.82827 0.32331 0.0
O470 O 0.36358 0.81741 0.42489 0.0
O471 O 0.3644 0.86577 0.42788 0.0
H472 H 0.36641 0.8608 0.62996 0.0
H473 H 0.36747 0.84353 0.73197 0.0
H474 H 0.41145 0.92884 0.78208 0.0
H475 H 0.41093 0.94564 0.67956 0.0
H476 H 0.43861 0.86996 0.24127 0.0
H477 H 0.43731 0.88566 0.13846 0.0
H478 H 0.39336 0.79957 0.09338 0.0
H479 H 0.3941 0.78445 0.19694 0.0
Ho480 Ho 0.83988 0.90071 0.64047 0.0
Ho481 Ho 0.88563 0.90013 0.73658 0.0
C482 C 0.91311 0.89332 0.61049 0.0
C483 C 0.81098 0.90419 0.54102 0.0
C484 C 0.82024 0.90729 0.47876 0.0
C485 C 0.84489 0.92615 0.46152 0.0
C486 C 0.85501 0.92634 0.40305 0.0
C487 C 0.84104 0.90727 0.3606 0.0
C488 C 0.81602 0.8888 0.37821 0.0
C489 C 0.80574 0.88892 0.43645 0.0
C490 C 0.84581 0.84547 0.69458 0.0
C491 C 0.8128 0.91064 0.76911 0.0
C492 C 0.91261 0.88995 0.83601 0.0
C493 C 0.90189 0.88946 0.89801 0.0
C494 C 0.87746 0.87046 0.91621 0.0
C495 C 0.86702 0.87111 0.97442 0.0
C496 C 0.88047 0.891 1.01601 0.0
C497 C 0.90501 0.90989 0.99754 0.0
C498 C 0.91563 0.90902 0.93943 0.0
C499 C 0.88348 0.95475 0.67913 0.0
O500 O 0.88605 0.90415 0.59366 0.0
O501 O 0.91806 0.88512 0.66548 0.0
O502 O 0.81894 0.87833 0.56579 0.0
O503 O 0.8151 0.92781 0.57571 0.0
O504 O 0.81987 0.85829 0.68149 0.0
O505 O 0.86769 0.86298 0.67965 0.0
O506 O 0.84067 0.90288 0.78651 0.0
O507 O 0.80659 0.91435 0.71255 0.0
O508 O 0.91246 0.91683 0.81015 0.0
O509 O 0.90276 0.86797 0.8015 0.0
O510 O 0.9081 0.94293 0.70195 0.0
O511 O 0.8602 0.93833 0.69214 0.0
H512 H 0.85679 0.94029 0.49333 0.0
H513 H 0.87396 0.9413 0.39135 0.0
H514 H 0.80491 0.87338 0.34754 0.0
H515 H 0.78695 0.87386 0.44887 0.0
H516 H 0.86621 0.85518 0.88544 0.0
H517 H 0.84843 0.85583 0.98672 0.0
H518 H 0.91568 0.92595 1.02758 0.0
H519 H 0.93437 0.92403 0.92658 0.0
Ho520 Ho 0.8981 0.12287 0.32164 0.0
Ho521 Ho 0.89867 0.16714 0.42026 0.0
C522 C 0.90729 0.19602 0.29153 0.0
C523 C 0.88942 0.09541 0.22193 0.0
C524 C 0.88892 0.1057 0.15992 0.0
C525 C 0.87601 0.13418 0.14395 0.0
C526 C 0.87657 0.14405 0.08545 0.0
C527 C 0.88997 0.12566 0.04129 0.0
C528 C 0.90279 0.09708 0.05756 0.0
C529 C 0.9023 0.08727 0.1162 0.0
C530 C 0.95186 0.12305 0.38198 0.0
C531 C 0.88658 0.09368 0.44578 0.0
C532 C 0.90458 0.19591 0.51977 0.0
C533 C 0.90982 0.18717 0.58159 0.0
C534 C 0.92227 0.15837 0.59674 0.0
C535 C 0.92431 0.14947 0.65578 0.0
C536 C 0.91381 0.16914 0.7008 0.0
C537 C 0.90202 0.19824 0.68522 0.0
C538 C 0.90003 0.20711 0.62628 0.0
C539 C 0.84255 0.16196 0.36888 0.0
O540 O 0.89988 0.16821 0.27315 0.0
O541 O 0.91103 0.20156 0.34841 0.0
O542 O 0.91607 0.09665 0.24808 0.0
O543 O 0.86704 0.1051 0.25568 0.0
O544 O 0.93961 0.09888 0.35822 0.0
O545 O 0.93625 0.14685 0.36888 0.0
O546 O 0.89829 0.11994 0.46575 0.0
O547 O 0.87998 0.09041 0.38958 0.0
O548 O 0.87829 0.1873 0.49802 0.0
O549 O 0.92716 0.19177 0.48279 0.0
O550 O 0.85563 0.18769 0.38331 0.0
O551 O 0.86096 0.14012 0.37979 0.0
H552 H 0.86567 0.149 0.17673 0.0
H553 H 0.86683 0.16636 0.07506 0.0
H554 H 0.91287 0.08202 1.02488 0.0
H555 H 0.9124 0.06521 0.12744 0.0
H556 H 0.92979 0.14251 0.56295 0.0
H557 H 0.93326 0.1268 0.66604 0.0
H558 H 0.89419 0.21418 0.71863 0.0
H559 H 0.89026 0.22938 0.61551 0.0
Ho560 Ho 0.16532 0.09872 0.62901 0.0
Ho561 Ho 0.12165 0.11082 0.73655 0.0
C562 C 0.09306 0.11964 0.61024 0.0
C563 C 0.18819 0.07348 0.53596 0.0
C564 C 0.18671 0.0816 0.47324 0.0
C565 C 0.18645 0.05813 0.43097 0.0
C566 C 0.17978 0.06491 0.37227 0.0
C567 C 0.1731 0.09534 0.35484 0.0
C568 C 0.17466 0.11895 0.3971 0.0
C569 C 0.18124 0.11213 0.45573 0.0
C570 C 0.15826 0.16073 0.6431 0.0
C571 C 0.19472 0.09639 0.76131 0.0
C572 C 0.09955 0.12792 0.8366 0.0
C573 C 0.10931 0.12136 0.8975 0.0
C574 C 0.11038 0.14522 0.93892 0.0
C575 C 0.12111 0.13962 0.99586 0.0
C576 C 0.13085 0.10992 1.01281 0.0
C577 C 0.12958 0.08604 0.97103 0.0
C578 C 0.11913 0.09173 0.91402 0.0
C579 C 0.12003 0.05314 0.68975 0.0
O580 O 0.11703 0.10362 0.59023 0.0
O581 O 0.09187 0.12976 0.66508 0.0
O582 O 0.20404 0.09181 0.57028 0.0
O583 O 0.16166 0.06582 0.55862 0.0
O584 O 0.17563 0.14801 0.60384 0.0
O585 O 0.14671 0.13941 0.67377 0.0
O586 O 0.16706 0.10321 0.78172 0.0
O587 O 0.19986 0.09211 0.70403 0.0
O588 O 0.08862 0.10466 0.8066 0.0
O589 O 0.11839 0.14499 0.8057 0.0
O590 O 0.0966 0.06715 0.71297 0.0
O591 O 0.14378 0.06974 0.69637 0.0
H592 H 0.19009 0.03435 0.44381 0.0
H593 H 0.17844 0.0461 0.34118 0.0
H594 H 0.17012 0.14268 0.38514 0.0
H595 H 0.18094 0.13059 0.4877 0.0
H596 H 0.10333 0.16833 0.92695 0.0
H597 H 0.12228 0.15877 1.02621 0.0
H598 H 0.13645 0.0628 0.98234 0.0
H599 H 0.11894 0.07292 0.88277 0.0
Ho600 Ho 0.11196 0.88331 0.33583 0.0
Ho601 Ho 0.11003 0.83762 0.43382 0.0
C602 C 0.10345 0.80996 0.30419 0.0
C603 C 0.12219 0.91091 0.23699 0.0
C604 C 0.12244 0.9006 0.17481 0.0
C605 C 0.14318 0.87798 0.15491 0.0
C606 C 0.14252 0.86786 0.0966 0.0
C607 C 0.12096 0.87988 0.05662 0.0
C608 C 0.10037 0.90268 0.07662 0.0
C609 C 0.10121 0.91298 0.13487 0.0
C610 C 0.05669 0.87793 0.39028 0.0
C611 C 0.12057 0.91135 0.46202 0.0
C612 C 0.10059 0.80999 0.53319 0.0
C613 C 0.1003 0.82025 0.59523 0.0
C614 C 0.08052 0.84381 0.61469 0.0
C615 C 0.08174 0.8542 0.6728 0.0
C616 C 0.10296 0.84155 0.71281 0.0
C617 C 0.12244 0.81771 0.6932 0.0
C618 C 0.12098 0.80711 0.63527 0.0
C619 C 0.167 0.84533 0.38754 0.0
O620 O 0.11176 0.83781 0.2867 0.0
O621 O 0.09827 0.80416 0.36062 0.0
O622 O 0.09544 0.91113 0.26326 0.0
O623 O 0.14406 0.90037 0.27091 0.0
O624 O 0.06801 0.90385 0.37167 0.0
O625 O 0.07457 0.85611 0.37648 0.0
O626 O 0.10956 0.88448 0.48057 0.0
O627 O 0.12779 0.91568 0.40627 0.0
O628 O 0.12726 0.81068 0.50692 0.0
O629 O 0.07852 0.81997 0.49938 0.0
O630 O 0.15504 0.81902 0.40202 0.0
O631 O 0.14755 0.8664 0.39727 0.0
H632 H 0.15989 0.86789 0.18439 0.0
H633 H 0.15909 0.85068 0.08291 0.0
H634 H 0.08309 0.91218 0.04766 0.0
H635 H 0.08491 0.93037 0.14897 0.0
H636 H 0.06426 0.85447 0.58499 0.0
H637 H 0.06594 0.87215 0.68629 0.0
H638 H 0.1394 0.80764 0.72213 0.0
H639 H 0.1365 0.78895 0.62139 0.0
H640 H 0.41074 0.97168 0.35506 0.0
H641 H 0.348 0.91177 0.26422 0.0
H642 H 0.3393 0.95161 0.18946 0.0
H643 H 0.35127 1.00334 0.14735 0.0
H644 H 0.42032 0.05911 0.2309 0.0
H645 H 0.42451 0.02187 0.31087 0.0
C646 C 0.3949 0.96756 0.3192 0.0
C647 C 0.3796 0.93903 0.31571 0.0
C648 C 0.39115 0.99008 0.27489 0.0
C649 C 0.35983 0.93364 0.26811 0.0
C650 C 0.35489 0.95644 0.22532 0.0
C651 C 0.36697 0.00736 0.18343 0.0
C652 C 0.38496 0.0344 0.18383 0.0
C653 C 0.3706 0.98474 0.22787 0.0
C654 C 0.40584 0.03885 0.23003 0.0
C655 C 0.40838 0.01741 0.2757 0.0
H656 H 0.92488 0.59439 0.81306 0.0
H657 H 0.95755 0.6629 0.69061 0.0
H658 H 1.00308 0.67137 0.7509 0.0
H659 H 0.03513 0.65771 0.83645 0.0
H660 H 0.0047 0.58668 0.95472 0.0
H661 H 0.95699 0.58112 0.89905 0.0
C662 C 0.94176 0.61142 0.79981 0.0
C663 C 0.93748 0.62799 0.74706 0.0
C664 C 0.96847 0.61581 0.8343 0.0
C665 C 0.96001 0.64969 0.73067 0.0
C666 C 0.98618 0.65462 0.76529 0.0
C667 C 0.01792 0.64149 0.85067 0.0
C668 C 0.02354 0.62304 0.90039 0.0
C669 C 0.99085 0.63766 0.817 0.0
C670 C 1.00104 0.60138 0.91693 0.0
C671 C 0.97371 0.5981 0.88492 0.0
H672 H 0.58943 0.99546 0.17319 0.0
H673 H 0.68691 0.98145 0.19291 0.0
H674 H 0.68941 0.02464 0.26217 0.0
H675 H 0.66326 0.06629 0.31907 0.0
H676 H 0.56718 0.08395 0.28785 0.0
H677 H 0.5647 0.03988 0.22106 0.0
C678 C 0.61129 1.00191 0.1924 0.0
C679 C 0.63777 0.9844 0.1795 0.0
C680 C 0.61273 0.02758 0.23026 0.0
C681 C 0.66597 0.99368 0.20376 0.0
C682 C 0.66744 0.01859 0.24306 0.0
C683 C 0.64186 0.0604 0.29749 0.0
C684 C 0.61531 0.0781 0.30887 0.0
C685 C 0.64087 0.03555 0.25726 0.0
C686 C 0.58786 0.07063 0.27986 0.0
C687 C 0.58643 0.0454 0.24171 0.0
H688 H 1.00299 0.35227 0.9125 0.0
H689 H 0.94711 0.42131 0.82868 0.0
H690 H 0.98439 0.42601 0.74913 0.0
H691 H 0.03428 0.41206 0.70461 0.0
H692 H 0.09403 0.34892 0.79525 0.0
H693 H 0.05449 0.34036 0.87045 0.0
C694 C 0.99903 0.36818 0.87658 0.0
C695 C 0.97201 0.38604 0.87596 0.0
C696 C 0.02152 0.3719 0.83216 0.0
C697 C 0.96748 0.40707 0.82987 0.0
C698 C 0.98889 0.40982 0.78433 0.0
C699 C 0.03843 0.39623 0.7406 0.0
C700 C 0.06679 0.38078 0.74401 0.0
C701 C 0.01612 0.39253 0.7851 0.0
C702 C 0.07226 0.36091 0.79159 0.0
C703 C 0.04966 0.35604 0.8346 0.0
H704 H 0.41825 0.48918 0.13048 0.0
H705 H 0.31933 0.48904 0.14066 0.0
H706 H 0.31711 0.53308 0.07333 0.0
H707 H 0.34355 0.5713 1.00903 0.0
H708 H 0.4425 0.57452 1.00789 0.0
H709 H 0.44457 0.52988 0.07373 0.0
C710 C 0.39619 0.49891 0.1183 0.0
C711 C 0.36892 0.48519 0.13936 0.0
C712 C 0.39516 0.5248 0.08071 0.0
C713 C 0.34063 0.4986 0.12399 0.0
C714 C 0.33936 0.52386 0.08549 0.0
C715 C 0.36549 0.56213 1.02332 0.0
C716 C 0.39288 0.57587 1.0031 0.0
C717 C 0.36647 0.53698 0.06294 0.0
C718 C 0.42117 0.56418 1.02268 0.0
C719 C 0.42234 0.53868 0.06036 0.0
H720 H 0.5851 0.60578 1.00531 0.0
H721 H 0.54534 0.66183 0.14234 0.0
H722 H 0.49962 0.67022 0.08283 0.0
H723 H 0.46922 0.6591 0.99431 0.0
H724 H 0.50698 0.60131 0.85913 0.0
H725 H 0.5548 0.5959 0.91507 0.0
C726 C 0.56662 0.62011 1.02193 0.0
C727 C 0.56894 0.6331 0.0786 0.0
C728 C 0.53982 0.62447 0.98764 0.0
C729 C 0.54441 0.65139 0.09921 0.0
C730 C 0.51811 0.65625 0.06511 0.0
C731 C 0.48823 0.6463 0.97621 0.0
C732 C 0.48478 0.63156 0.92168 0.0
C733 C 0.51538 0.64269 1.00949 0.0
C734 C 0.50916 0.61334 0.90057 0.0
C735 C 0.53651 0.61016 0.93269 0.0
H736 H 0.64937 0.49975 0.17537 0.0
H737 H 0.58964 0.56111 0.08035 0.0
H738 H 0.58516 0.5237 1.00085 0.0
H739 H 0.59608 0.47203 0.95972 0.0
H740 H 0.64914 0.40744 0.06138 0.0
H741 H 0.65808 0.44685 0.13644 0.0
C742 C 0.63564 0.50492 0.13695 0.0
C743 C 0.62048 0.53357 0.13319 0.0
C744 C 0.63168 0.48236 0.09262 0.0
C745 C 0.60206 0.53959 0.08388 0.0
C746 C 0.59931 0.51804 0.03844 0.0
C747 C 0.6098 0.46672 0.99811 0.0
C748 C 0.62224 0.43692 1.00453 0.0
C749 C 0.61376 0.48918 0.04245 0.0
C750 C 0.63939 0.4302 0.05523 0.0
C751 C 0.64453 0.45278 0.09821 0.0
H752 H 0.44002 0.34876 0.06597 0.0
H753 H 0.42099 0.44493 0.03519 0.0
H754 H 0.46602 0.44875 0.97123 0.0
H755 H 0.51143 0.42508 0.92509 0.0
H756 H 0.52676 0.32746 0.94381 0.0
H757 H 0.483 0.32377 1.01128 0.0
C758 C 0.44583 0.37047 0.04511 0.0
C759 C 0.42741 0.39662 0.0557 0.0
C760 C 0.47126 0.37225 1.00647 0.0
C761 C 0.43482 0.42451 1.0277 0.0
C762 C 0.46061 0.42672 0.99119 0.0
C763 C 0.50517 0.40295 0.94379 0.0
C764 C 0.52317 0.37676 0.93114 0.0
C765 C 0.47907 0.40079 0.98036 0.0
C766 C 0.51419 0.3482 0.9547 0.0
C767 C 0.4889 0.34604 0.99285 0.0
H768 H 0.91065 0.46438 0.84627 0.0
H769 H 0.84281 0.4091 0.75823 0.0
H770 H 0.8352 0.45005 0.6851 0.0
H771 H 0.84943 0.50141 0.64389 0.0
H772 H 0.92313 0.55234 0.72447 0.0
H773 H 0.92695 0.51378 0.80226 0.0
C774 C 0.89411 0.46144 0.81117 0.0
C775 C 0.87703 0.43395 0.80795 0.0
C776 C 0.89104 0.48444 0.76768 0.0
C777 C 0.85604 0.43017 0.76177 0.0
C778 C 0.85176 0.45357 0.71991 0.0
C779 C 0.8662 0.504 0.67866 0.0
C780 C 0.88568 0.52998 0.67882 0.0
C781 C 0.86933 0.48077 0.72202 0.0
C782 C 0.90772 0.53274 0.72353 0.0
C783 C 0.90994 0.51065 0.76809 0.0
H784 H 0.53431 0.16538 0.32535 0.0
H785 H 0.504 0.09561 0.44616 0.0
H786 H 0.45634 0.08922 0.3904 0.0
H787 H 0.42444 0.10137 0.30344 0.0
H788 H 0.45812 0.16716 0.17672 0.0
H789 H 0.50293 0.17732 0.2381 0.0
C790 C 0.51713 0.14926 0.33996 0.0
C791 C 0.52268 0.13146 0.39045 0.0
C792 C 0.49033 0.14474 0.30598 0.0
C793 C 0.50029 0.10987 0.40778 0.0
C794 C 0.47303 0.10611 0.37572 0.0
C795 C 0.44147 0.11806 0.28938 0.0
C796 C 0.43774 0.13341 0.2352 0.0
C797 C 0.46795 0.12308 0.32413 0.0
C798 C 0.4603 0.15485 0.21788 0.0
C799 C 0.48602 0.16073 0.25307 0.0
H800 H 0.10166 0.58399 0.75369 0.0
H801 H 0.14668 0.53762 0.89757 0.0
H802 H 0.15339 0.49172 0.83763 0.0
H803 H 0.14404 0.46326 0.74609 0.0
H804 H 0.09778 0.50783 0.60291 0.0
H805 H 0.09388 0.55555 0.66024 0.0
C806 C 0.11315 0.56396 0.7718 0.0
C807 C 0.12355 0.56455 0.83048 0.0
C808 C 0.11678 0.53714 0.73696 0.0
C809 C 0.13825 0.53809 0.8529 0.0
C810 C 0.1422 0.51167 0.81852 0.0
C811 C 0.13419 0.48368 0.72674 0.0
C812 C 0.12225 0.48222 0.66958 0.0
C813 C 0.1314 0.51079 0.76064 0.0
C814 C 0.10769 0.5085 0.64646 0.0
C815 C 0.10533 0.53577 0.67939 0.0
H816 H 0.54146 0.91042 0.20812 0.0
H817 H 0.60549 0.86293 0.32031 0.0
H818 H 0.565 0.85494 0.39365 0.0
H819 H 0.51123 0.86282 0.42759 0.0
H820 H 0.4499 0.91707 0.32127 0.0
H821 H 0.48883 0.92075 0.24419 0.0
C822 C 0.54642 0.89814 0.24847 0.0
C823 C 0.57634 0.88697 0.25844 0.0
C824 C 0.5233 0.89476 0.2916 0.0
C825 C 0.58262 0.87168 0.31152 0.0
C826 C 0.55945 0.86707 0.35347 0.0
C827 C 0.50643 0.87516 0.38723 0.0
C828 C 0.47747 0.88903 0.37951 0.0
C829 C 0.52968 0.87863 0.34422 0.0
C830 C 0.4718 0.90576 0.32785 0.0
C831 C 0.49415 0.908 0.2838 0.0
H832 H 0.84969 0.97165 0.58285 0.0
H833 H 0.91956 1.00439 0.70041 0.0
H834 H 0.92552 0.05123 0.6416 0.0
H835 H 0.9131 0.08168 0.55279 0.0
H836 H 0.84663 0.04599 0.43015 0.0
H837 H 0.83732 1.00171 0.4939 0.0
C838 C 0.86577 0.98919 0.59601 0.0
C839 C 0.88376 0.98456 0.64646 0.0
C840 C 0.87005 0.01552 0.56031 0.0
C841 C 0.90519 0.0074 0.66206 0.0
C842 C 0.90873 0.03418 0.62823 0.0
C843 C 0.8964 0.06434 0.54025 0.0
C844 C 0.88059 0.06734 0.48656 0.0
C845 C 0.89164 0.03832 0.57663 0.0
C846 C 0.85928 0.04435 0.47092 0.0
C847 C 0.85385 0.01896 0.50752 0.0
H848 H 0.07872 0.09158 0.50566 0.0
H849 H 0.04649 0.16135 0.62591 0.0
H850 H 1.00153 0.17038 0.56423 0.0
H851 H 0.9701 0.1571 0.47767 0.0
H852 H 1.00013 0.08497 0.36159 0.0
H853 H 0.04712 0.07853 0.4191 0.0
C854 C 0.06203 0.10897 0.5182 0.0
C855 C 0.06627 0.12576 0.57064 0.0
C856 C 0.03573 0.11374 0.48287 0.0
C857 C 0.04402 0.14795 0.58611 0.0
C858 C 0.01821 0.15322 0.55068 0.0
C859 C 0.98708 0.14046 0.46436 0.0
C860 C 0.9816 0.12198 0.4147 0.0
C861 C 0.01368 0.13614 0.49908 0.0
C862 C 0.00374 0.09973 0.3993 0.0
C863 C 0.03064 0.09594 0.43236 0.0
H864 H 0.08038 0.93554 0.54176 0.0
H865 H 0.17315 0.94426 0.47767 0.0
H866 H 0.18283 0.98626 0.54734 0.0
H867 H 0.16447 0.02129 0.62649 0.0
H868 H 0.06896 0.01811 0.67681 0.0
H869 H 0.06121 0.9727 0.61561 0.0
C870 C 0.10273 0.9466 0.54334 0.0
C871 C 0.12609 0.93666 0.50491 0.0
C872 C 0.10771 0.9717 0.58178 0.0
C873 C 0.1548 0.9515 0.5068 0.0
C874 C 0.16037 0.97547 0.54679 0.0
C875 C 0.14181 0.01116 0.6229 0.0
C876 C 0.11717 0.02393 0.65508 0.0
C877 C 0.13692 0.98601 0.5843 0.0
C878 C 0.08834 0.00925 0.6521 0.0
C879 C 0.08379 0.98323 0.6168 0.0
H880 H 0.02059 0.92425 0.43253 0.0
H881 H 0.03047 0.82542 0.43459 0.0
H882 H 0.98856 0.82127 0.50608 0.0
H883 H 0.94884 0.84603 0.56915 0.0
H884 H 0.93521 0.94419 0.55718 0.0
H885 H 0.97842 0.94841 0.48856 0.0
C886 C 0.01348 0.90178 0.44839 0.0
C887 C 0.02936 0.87523 0.42955 0.0
C888 C 0.98856 0.89951 0.48792 0.0
C889 C 0.01939 0.8463 0.4498 0.0
C890 C 0.99523 0.8439 0.49044 0.0
C891 C 0.95548 0.86827 0.55146 0.0
C892 C 0.9392 0.89485 0.56864 0.0
C893 C 0.97977 0.87037 0.51027 0.0
C894 C 0.94756 0.92348 0.5447 0.0
C895 C 0.97224 0.92589 0.50546 0.0
H896 H 0.37597 0.20702 0.17186 0.0
H897 H 0.30431 0.19596 0.04315 0.0
H898 H 0.29797 0.2518 0.03733 0.0
H899 H 0.31027 0.30317 0.07228 0.0
H900 H 0.3799 0.31646 0.20406 0.0
H901 H 0.3894 0.2604 0.20605 0.0
C902 C 0.35947 0.21702 0.14174 0.0
C903 C 0.34089 0.19746 0.10711 0.0
C904 C 0.35519 0.24941 0.14016 0.0
C905 C 0.31903 0.21057 0.06952 0.0
C906 C 0.31527 0.24247 0.06654 0.0
C907 C 0.32761 0.29395 0.10159 0.0
C908 C 0.34419 0.31403 0.13837 0.0
C909 C 0.33277 0.26201 0.10234 0.0
C910 C 0.36661 0.30154 0.17577 0.0
C911 C 0.3721 0.26949 0.17659 0.0
H912 H 0.30644 0.62549 0.92386 0.0
H913 H 0.30833 0.7174 0.85142 0.0
H914 H 0.25313 0.72231 0.86622 0.0
H915 H 0.20468 0.70199 0.90303 0.0
H916 H 0.20012 0.60956 0.97189 0.0
H917 H 0.25581 0.60353 0.95623 0.0
C918 C 0.2946 0.64631 0.91038 0.0
C919 C 0.31163 0.6711 0.88647 0.0
C920 C 0.26244 0.64916 0.91953 0.0
C921 C 0.29591 0.69802 0.86985 0.0
C922 C 0.2643 0.70095 0.87865 0.0
C923 C 0.21577 0.6805 0.91509 0.0
C924 C 0.19819 0.65641 0.93952 0.0
C925 C 0.24743 0.67696 0.90436 0.0
C926 C 0.2131 0.62861 0.95368 0.0
C927 C 0.24494 0.62512 0.94435 0.0
H928 H 0.70605 0.80179 0.18105 0.0
H929 H 0.61404 0.81195 0.1139 0.0
H930 H 0.60495 0.75649 0.12862 0.0
H931 H 0.62416 0.70447 0.159 0.0
H932 H 0.71595 0.69671 0.22888 0.0
H933 H 0.72378 0.7519 0.21617 0.0
C934 C 0.68399 0.79197 0.16923 0.0
C935 C 0.6609 0.811 0.14554 0.0
C936 C 0.67874 0.76044 0.17928 0.0
C937 C 0.63233 0.79778 0.13157 0.0
C938 C 0.62709 0.76609 0.14036 0.0
C939 C 0.64559 0.71505 0.17248 0.0
C940 C 0.66948 0.69644 0.195 0.0
C941 C 0.65016 0.74711 0.16429 0.0
C942 C 0.69724 0.71046 0.21157 0.0
C943 C 0.70182 0.74202 0.20392 0.0
H944 H 0.7994 0.32236 0.82171 0.0
H945 H 0.81058 0.37991 0.97425 0.0
H946 H 0.75463 0.38888 0.97702 0.0
H947 H 0.70195 0.37718 0.93852 0.0
H948 H 0.69292 0.31771 0.78806 0.0
H949 H 0.74876 0.31319 0.78097 0.0
C950 C 0.78974 0.33697 0.85569 0.0
C951 C 0.80913 0.35016 0.89823 0.0
C952 C 0.7579 0.34191 0.85673 0.0
C953 C 0.79615 0.36928 0.94137 0.0
C954 C 0.76418 0.37444 0.94274 0.0
C955 C 0.71241 0.36396 0.90338 0.0
C956 C 0.6935 0.34815 0.86306 0.0
C957 C 0.74474 0.36059 0.90089 0.0
C958 C 0.7071 0.33034 0.81882 0.0
C959 C 0.73898 0.32756 0.81514 0.0
H960 H 0.82084 0.70507 0.73863 0.0
H961 H 0.88446 0.69442 0.59486 0.0
H962 H 0.89297 0.75062 0.59362 0.0
H963 H 0.87995 0.80339 0.63156 0.0
H964 H 0.8144 0.81186 0.77278 0.0
H965 H 0.8095 0.75586 0.77789 0.0
C966 C 0.83665 0.71492 0.70688 0.0
C967 C 0.85178 0.69556 0.66648 0.0
C968 C 0.8413 0.74693 0.70661 0.0
C969 C 0.87231 0.70881 0.62605 0.0
C970 C 0.87724 0.74093 0.62559 0.0
C971 C 0.8652 0.79279 0.66423 0.0
C972 C 0.84786 0.81165 0.70253 0.0
C973 C 0.86168 0.76032 0.66553 0.0
C974 C 0.82817 0.79778 0.74351 0.0
C975 C 0.8252 0.76579 0.7461 0.0
H976 H 0.80233 0.20393 0.41208 0.0
H977 H 0.80658 0.11183 0.34166 0.0
H978 H 0.751 0.10573 0.3582 0.0
H979 H 0.70066 0.12746 0.39192 0.0
H980 H 0.69887 0.21899 0.46594 0.0
H981 H 0.75401 0.22407 0.45016 0.0
C982 C 0.79117 0.18253 0.39982 0.0
C983 C 0.80859 0.15853 0.37471 0.0
C984 C 0.75959 0.17893 0.41111 0.0
C985 C 0.79366 0.13081 0.36034 0.0
C986 C 0.76191 0.12727 0.3702 0.0
C987 C 0.7125 0.14824 0.40552 0.0
C988 C 0.69557 0.17286 0.43014 0.0
C989 C 0.74456 0.15119 0.39578 0.0
C990 C 0.71127 0.19973 0.44696 0.0
C991 C 0.74282 0.20276 0.43759 0.0
H992 H 0.12496 0.30267 0.67792 0.0
H993 H 0.1881 0.30966 0.53249 0.0
H994 H 0.19269 0.25357 0.52884 0.0
H995 H 0.18192 0.20315 0.5707 0.0
H996 H 0.12076 0.19417 0.7187 0.0
H997 H 0.11236 0.25038 0.71832 0.0
C998 C 0.13906 0.29172 0.64461 0.0
C999 C 0.15579 0.31017 0.60464 0.0
C1000 C 0.14244 0.25924 0.64417 0.0
C1001 C 0.17472 0.29588 0.56292 0.0
C1002 C 0.17754 0.26385 0.5612 0.0
C1003 C 0.16667 0.21337 0.603 0.0
C1004 C 0.15222 0.19448 0.6451 0.0
C1005 C 0.16207 0.2454 0.60232 0.0
C1006 C 0.13238 0.20819 0.68622 0.0
C1007 C 0.12752 0.24032 0.68575 0.0
H1008 H 0.30707 0.88628 0.40456 0.0
H1009 H 0.3139 0.79478 0.47774 0.0
H1010 H 0.25877 0.78736 0.46548 0.0
H1011 H 0.20924 0.80535 0.42965 0.0
H1012 H 0.20019 0.89718 0.35945 0.0
H1013 H 0.25554 0.90584 0.37378 0.0
C1014 C 0.2963 0.86502 0.4189 0.0
C1015 C 0.31457 0.84107 0.44215 0.0
C1016 C 0.26434 0.86069 0.41097 0.0
C1017 C 0.30036 0.81353 0.45984 0.0
C1018 C 0.26885 0.80917 0.45244 0.0
C1019 C 0.21931 0.82725 0.41705 0.0
C1020 C 0.20067 0.85042 0.39258 0.0
C1021 C 0.25076 0.83228 0.42696 0.0
C1022 C 0.21413 0.87883 0.37768 0.0
C1023 C 0.24573 0.88383 0.38626 0.0
H1024 H 0.19031 0.09942 0.88165 0.0
H1025 H 0.25748 0.08885 0.74344 0.0
H1026 H 0.29866 0.088 0.8169 0.0
H1027 H 0.31594 0.09147 0.92101 0.0
H1028 H 0.24818 0.10163 0.05818 0.0
H1029 H 0.20733 0.10204 0.98434 0.0
C1030 C 0.21391 0.09677 0.86708 0.0
C1031 C 0.22039 0.09417 0.80611 0.0
C1032 C 0.2376 0.09628 0.9098 0.0
C1033 C 0.2514 0.09077 0.78939 0.0
C1034 C 0.27509 0.09036 0.83167 0.0
C1035 C 0.29222 0.09352 0.93506 0.0
C1036 C 0.28547 0.09651 0.9959 0.0
C1037 C 0.26852 0.09324 0.8921 0.0
C1038 C 0.25438 0.09895 1.01241 0.0
C1039 C 0.23088 0.09915 0.97002 0.0
H1040 H 0.09917 0.69014 0.14201 0.0
H1041 H 0.09548 0.75885 1.0053 0.0
H1042 H 0.09459 0.79958 0.0802 0.0
H1043 H 0.09906 0.81611 0.184 0.0
H1044 H 0.10133 0.74706 0.32031 0.0
H1045 H 0.09951 0.70641 0.24598 0.0
C1046 C 0.09851 0.71399 0.1281 0.0
C1047 C 0.09791 0.72106 0.06724 0.0
C1048 C 0.0985 0.73744 0.17146 0.0
C1049 C 0.09622 0.75236 0.05117 0.0
C1050 C 0.09605 0.77577 0.0941 0.0
C1051 C 0.09911 0.79217 0.1977 0.0
C1052 C 0.10061 0.78493 0.25842 0.0
C1053 C 0.09783 0.76867 0.15435 0.0
C1054 C 0.10027 0.75361 0.2745 0.0
C1055 C 0.09935 0.73023 0.23173 0.0
H1056 H 0.69527 0.90747 0.93594 0.0
H1057 H 0.76452 0.92057 0.06883 0.0
H1058 H 0.80405 0.92414 0.99201 0.0
H1059 H 0.81971 0.91917 0.88787 0.0
H1060 H 0.75002 0.90753 0.75525 0.0
H1061 H 0.71029 0.90689 0.83165 0.0
C1062 C 0.71901 0.91079 0.9486 0.0
C1063 C 0.72666 0.91316 1.00892 0.0
C1064 C 0.74178 0.91244 0.90418 0.0
C1065 C 0.75769 0.91828 1.02338 0.0
C1066 C 0.78041 0.92008 0.97937 0.0
C1067 C 0.79579 0.91669 0.87538 0.0
C1068 C 0.7881 0.91325 0.81526 0.0
C1069 C 0.77286 0.91654 0.9197 0.0
C1070 C 0.75684 0.91034 0.8006 0.0
C1071 C 0.73404 0.90979 0.84445 0.0
H1072 H 0.91035 0.31562 0.12751 0.0
H1073 H 0.90989 0.24607 0.99215 0.0
H1074 H 0.91116 0.20575 0.06729 0.0
H1075 H 0.91033 0.1899 0.17161 0.0
H1076 H 0.91052 0.25923 0.30725 0.0
H1077 H 0.91168 0.29968 0.23213 0.0
C1078 C 0.9104 0.29167 0.11411 0.0
C1079 C 0.9097 0.28424 0.05336 0.0
C1080 C 0.91097 0.2684 0.15796 0.0
C1081 C 0.91037 0.25284 0.03787 0.0
C1082 C 0.91095 0.22964 0.08112 0.0
C1083 C 0.91048 0.21383 0.18509 0.0
C1084 C 0.91001 0.22118 0.24582 0.0
C1085 C 0.9109 0.2371 0.14133 0.0
C1086 C 0.91083 0.25255 0.26147 0.0
C1087 C 0.91131 0.2758 0.21823 0.0
H1088 H 0.30754 0.41587 0.37142 0.0
H1089 H 0.23671 0.41146 0.23943 0.0
H1090 H 0.19739 0.4122 0.31675 0.0
H1091 H 0.18295 0.41168 0.42136 0.0
H1092 H 0.25371 0.41537 0.55361 0.0
H1093 H 0.29299 0.41762 0.47657 0.0
C1094 C 0.28353 0.41487 0.35917 0.0
C1095 C 0.27538 0.41319 0.2989 0.0
C1096 C 0.26092 0.41504 0.40404 0.0
C1097 C 0.24393 0.41269 0.2848 0.0
C1098 C 0.22137 0.41294 0.32916 0.0
C1099 C 0.20695 0.41282 0.4337 0.0
C1100 C 0.21508 0.41303 0.49399 0.0
C1101 C 0.22956 0.41371 0.38891 0.0
C1102 C 0.24648 0.41509 0.50816 0.0
C1103 C 0.26906 0.41619 0.46386 0.0
H1104 H 0.41515 0.69685 0.68529 0.0
H1105 H 0.41518 0.76696 0.81953 0.0
H1106 H 0.41676 0.80701 0.74364 0.0
H1107 H 0.41614 0.82238 0.63861 0.0
H1108 H 0.41697 0.75209 0.50473 0.0
H1109 H 0.41729 0.71215 0.58087 0.0
C1110 C 0.41566 0.72086 0.69831 0.0
C1111 C 0.41494 0.72856 0.75888 0.0
C1112 C 0.41665 0.74391 0.65412 0.0
C1113 C 0.4158 0.76003 0.7739 0.0
C1114 C 0.41657 0.78304 0.73023 0.0
C1115 C 0.41644 0.79834 0.62579 0.0
C1116 C 0.41631 0.79056 0.56523 0.0
C1117 C 0.41669 0.77531 0.67012 0.0
C1118 C 0.41716 0.75908 0.55035 0.0
C1119 C 0.4172 0.73613 0.59409 0.0
H1120 H 0.69018 0.5894 0.39249 0.0
H1121 H 0.75825 0.59949 0.2559 0.0
H1122 H 0.79885 0.60091 0.33032 0.0
H1123 H 0.81551 0.59924 0.43345 0.0
H1124 H 0.7478 0.58872 0.57074 0.0
H1125 H 0.70704 0.58671 0.49665 0.0
C1126 C 0.71393 0.59156 0.37867 0.0
C1127 C 0.72085 0.59427 0.31789 0.0
C1128 C 0.73745 0.59186 0.42189 0.0
C1129 C 0.75195 0.59693 0.30165 0.0
C1130 C 0.7753 0.59773 0.34435 0.0
C1131 C 0.79189 0.59637 0.44765 0.0
C1132 C 0.78512 0.59415 0.50854 0.0
C1133 C 0.7684 0.59521 0.40457 0.0
C1134 C 0.75409 0.59043 0.52485 0.0
C1135 C 0.73064 0.58933 0.48224 0.0
H1136 H 0.58927 0.19605 0.62884 0.0
H1137 H 0.59514 0.26755 0.4976 0.0
H1138 H 0.5948 0.30677 0.57499 0.0
H1139 H 0.59526 0.32078 0.68038 0.0
H1140 H 0.58818 0.24934 0.81147 0.0
H1141 H 0.58531 0.21041 0.7335 0.0
C1142 C 0.59031 0.22023 0.61687 0.0
C1143 C 0.59242 0.2286 0.55679 0.0
C1144 C 0.58999 0.24279 0.66187 0.0
C1145 C 0.59344 0.26019 0.54291 0.0
C1146 C 0.59344 0.2827 0.58742 0.0
C1147 C 0.59342 0.29671 0.69234 0.0
C1148 C 0.59257 0.28827 0.75256 0.0
C1149 C 0.59219 0.27428 0.64714 0.0
C1150 C 0.58927 0.2568 0.76616 0.0
C1151 C 0.58787 0.23443 0.72145 0.0
H1152 H 0.32929 0.13608 0.53443 0.0
H1153 H 0.37598 0.04953 0.50654 0.0
H1154 H 0.39276 0.04924 0.60884 0.0
H1155 H 0.39363 0.07322 0.7068 0.0
H1156 H 0.34767 0.16036 0.73359 0.0
H1157 H 0.33055 0.16024 0.63187 0.0
C1158 C 0.34291 0.11699 0.55081 0.0
C1159 C 0.35128 0.09285 0.51263 0.0
C1160 C 0.35248 0.11695 0.60977 0.0
C1161 C 0.36943 0.0686 0.53459 0.0
C1162 C 0.37892 0.06832 0.59325 0.0
C1163 C 0.38014 0.09237 0.69035 0.0
C1164 C 0.37193 0.1167 0.72837 0.0
C1165 C 0.37061 0.0924 0.63128 0.0
C1166 C 0.35397 0.14102 0.70604 0.0
C1167 C 0.34431 0.14111 0.64757 0.0
H1168 H 0.13812 0.67582 0.53012 0.0
H1169 H 0.04731 0.63806 0.55522 0.0
H1170 H 0.04627 0.62137 0.45278 0.0
H1171 H 0.07097 0.61793 0.35567 0.0
H1172 H 0.16242 0.65464 0.33186 0.0
H1173 H 0.16291 0.67204 0.43347 0.0
C1174 C 0.11795 0.66421 0.51308 0.0
C1175 C 0.0928 0.65829 0.5505 0.0
C1176 C 0.11752 0.65464 0.4541 0.0
C1177 C 0.06712 0.64268 0.52774 0.0
C1178 C 0.06645 0.63326 0.469 0.0
C1179 C 0.09118 0.62943 0.37273 0.0
C1180 C 0.11658 0.63494 0.33557 0.0
C1181 C 0.09155 0.63904 0.43177 0.0
C1182 C 0.14228 0.65044 0.35869 0.0
C1183 C 0.14271 0.66024 0.41712 0.0
H1184 H 0.62879 0.88817 0.52592 0.0
H1185 H 0.72257 0.91508 0.56064 0.0
H1186 H 0.71264 0.913 0.66585 0.0
H1187 H 0.67697 0.90503 0.74865 0.0
H1188 H 0.58297 0.87941 0.71392 0.0
H1189 H 0.59319 0.88035 0.60856 0.0
C1190 C 0.64705 0.89389 0.55632 0.0
C1191 C 0.67646 0.90171 0.53467 0.0
C1192 C 0.64109 0.89312 0.61715 0.0
C1193 C 0.69984 0.90847 0.57541 0.0
C1194 C 0.69413 0.90753 0.63587 0.0
C1195 C 0.65879 0.89935 0.71815 0.0
C1196 C 0.62921 0.89221 0.73962 0.0
C1197 C 0.66483 0.89995 0.65732 0.0
C1198 C 0.60586 0.88538 0.69897 0.0
C1199 C 0.61172 0.88575 0.63855 0.0
H1200 H 0.93045 0.38503 0.33525 0.0
H1201 H 0.84338 0.3381 0.31993 0.0
H1202 H 0.84779 0.32005 0.42111 0.0
H1203 H 0.87527 0.31959 0.51618 0.0
H1204 H 0.96151 0.36798 0.53123 0.0
H1205 H 0.95819 0.38379 0.42871 0.0
C1206 C 0.91222 0.37112 0.35403 0.0
C1207 C 0.88649 0.36322 0.31961 0.0
C1208 C 0.91466 0.36115 0.41266 0.0
C1209 C 0.8636 0.34442 0.34479 0.0
C1210 C 0.866 0.3342 0.40296 0.0
C1211 C 0.89346 0.33333 0.49681 0.0
C1212 C 0.91849 0.34276 0.53172 0.0
C1213 C 0.89131 0.34263 0.43757 0.0
C1214 C 0.94175 0.36077 0.50584 0.0
C1215 C 0.93994 0.36976 0.44705 0.0
H1216 H 0.37702 0.43312 0.58119 0.0
H1217 H 0.32625 0.34824 0.56196 0.0
H1218 H 0.30764 0.35279 0.66267 0.0
H1219 H 0.30766 0.37963 0.75864 0.0
H1220 H 0.36061 0.46302 0.77818 0.0
H1221 H 0.37681 0.45992 0.67576 0.0
C1222 C 0.36219 0.41534 0.59899 0.0
C1223 C 0.35333 0.39026 0.56346 0.0
C1224 C 0.352 0.41774 0.65751 0.0
C1225 C 0.33333 0.36802 0.58752 0.0
C1226 C 0.32278 0.37047 0.64549 0.0
C1227 C 0.32251 0.39724 0.74023 0.0
C1228 C 0.33304 0.42143 0.77626 0.0
C1229 C 0.33215 0.39511 0.68115 0.0
C1230 C 0.35247 0.44395 0.75175 0.0
C1231 C 0.36169 0.44224 0.69307 0.0
H1232 H 0.39682 0.63022 0.2737 0.0
H1233 H 0.43592 0.71972 0.30899 0.0
H1234 H 0.43308 0.70982 0.41425 0.0
H1235 H 0.41824 0.67637 0.49692 0.0
H1236 H 0.38061 0.58622 0.46155 0.0
H1237 H 0.38417 0.59585 0.35642 0.0
C1238 C 0.40516 0.64742 0.30427 0.0
C1239 C 0.41642 0.67579 0.28285 0.0
C1240 C 0.40352 0.64157 0.36516 0.0
C1241 C 0.42667 0.69787 0.32373 0.0
C1242 C 0.42519 0.69218 0.38417 0.0
C1243 C 0.41111 0.65863 0.46642 0.0
C1244 C 0.39886 0.63067 0.48793 0.0
C1245 C 0.41343 0.6642 0.40551 0.0
C1246 C 0.38951 0.60824 0.44696 0.0
C1247 C 0.39176 0.61362 0.3865 0.0
H1248 H 0.62194 0.61553 0.80394 0.0
H1249 H 0.71124 0.57613 0.76862 0.0
H1250 H 0.70156 0.57905 0.66341 0.0
H1251 H 0.66756 0.59225 0.58079 0.0
H1252 H 0.57811 0.63116 0.61619 0.0
H1253 H 0.58778 0.6282 0.72146 0.0
C1254 C 0.63919 0.60722 0.77338 0.0
C1255 C 0.66737 0.59575 0.79475 0.0
C1256 C 0.63339 0.60872 0.71259 0.0
C1257 C 0.68953 0.58556 0.75391 0.0
C1258 C 0.68395 0.58704 0.69351 0.0
C1259 C 0.65026 0.60032 0.61145 0.0
C1260 C 0.62208 0.61184 0.59017 0.0
C1261 C 0.656 0.59865 0.67226 0.0
C1262 C 0.59983 0.62177 0.63097 0.0
C1263 C 0.60541 0.62026 0.69136 0.0
H1264 H 0.57073 0.38579 0.4699 0.0
H1265 H 0.6637 0.35361 0.49524 0.0
H1266 H 0.66561 0.33597 0.39375 0.0
H1267 H 0.6416 0.33098 0.29619 0.0
H1268 H 0.54922 0.36448 0.27033 0.0
H1269 H 0.54679 0.38087 0.37269 0.0
C1270 C 0.59159 0.37523 0.45326 0.0
C1271 C 0.61702 0.37116 0.49089 0.0
C1272 C 0.59277 0.36549 0.39424 0.0
C1273 C 0.64353 0.35676 0.46816 0.0
C1274 C 0.64477 0.34681 0.40973 0.0
C1275 C 0.62083 0.34163 0.31303 0.0
C1276 C 0.59569 0.34655 0.27515 0.0
C1277 C 0.61958 0.35114 0.37223 0.0
C1278 C 0.56911 0.36076 0.29793 0.0
C1279 C 0.56763 0.37002 0.3567 0.0
H1280 H 0.81284 0.57096 0.06305 0.0
H1281 H 0.88652 0.62707 0.99425 0.0
H1282 H 0.9053 0.6363 0.09336 0.0
H1283 H 0.90145 0.62797 0.19956 0.0
H1284 H 0.82879 0.57042 0.26819 0.0
H1285 H 0.80963 0.56178 0.16943 0.0
C1286 C 0.83315 0.58502 0.06962 0.0
C1287 C 0.84799 0.59849 1.02096 0.0
C1288 C 0.84418 0.58994 0.1269 0.0
C1289 C 0.87414 0.6169 1.0307 0.0
C1290 C 0.88511 0.62201 0.08747 0.0
C1291 C 0.88119 0.61383 0.19321 0.0
C1292 C 0.86639 0.60041 0.24203 0.0
C1293 C 0.87029 0.60871 0.13594 0.0
C1294 C 0.84071 0.58133 0.23208 0.0
C1295 C 0.82963 0.57633 0.17534 0.0
H1296 H 0.60542 0.1046 0.85763 0.0
H1297 H 0.62674 0.19624 0.7957 0.0
H1298 H 0.6216 0.21627 0.89478 0.0
H1299 H 0.61024 0.2083 0.99915 0.0
H1300 H 0.59254 0.11612 0.06268 0.0
H1301 H 0.59608 0.09628 0.96296 0.0
C1302 C 0.60862 0.12903 0.86546 0.0
C1303 C 0.61582 0.14883 0.81819 0.0
C1304 C 0.60605 0.1405 0.92317 0.0
C1305 C 0.62087 0.18027 0.83036 0.0
C1306 C 0.61792 0.19187 0.88735 0.0
C1307 C 0.6075 0.18378 0.99164 0.0
C1308 C 0.60088 0.16395 0.03916 0.0
C1309 C 0.61043 0.17223 0.93412 0.0
C1310 C 0.59692 0.13229 1.02745 0.0
C1311 C 0.59927 0.12076 0.97024 0.0
H1312 H 0.1657 0.40703 0.2331 0.0
H1313 H 0.07139 0.38265 0.19829 0.0
H1314 H 0.08158 0.38378 0.09293 0.0
H1315 H 0.11745 0.39088 1.01004 0.0
H1316 H 0.2117 0.41575 0.04515 0.0
H1317 H 0.20145 0.41466 0.15034 0.0
C1318 C 0.14742 0.4017 0.20264 0.0
C1319 C 0.11777 0.39482 0.2242 0.0
C1320 C 0.15345 0.40234 0.14174 0.0
C1321 C 0.09433 0.38844 0.18342 0.0
C1322 C 0.10018 0.38892 0.12294 0.0
C1323 C 0.13571 0.39637 0.04057 0.0
C1324 C 0.1654 0.40322 1.01907 0.0
C1325 C 0.12964 0.39588 0.10148 0.0
C1326 C 0.18876 0.40987 0.0599 0.0
C1327 C 0.18289 0.40942 0.12034 0.0
H1328 H 0.37016 0.83473 1.02516 0.0
H1329 H 0.46076 0.87375 0.04578 0.0
H1330 H 0.46078 0.88968 0.94312 0.0
H1331 H 0.43536 0.89241 0.84692 0.0
H1332 H 0.34477 0.85343 0.82613 0.0
H1333 H 0.34498 0.8369 0.92849 0.0
C1334 C 0.39007 0.84645 1.00718 0.0
C1335 C 0.41535 0.85311 0.04377 0.0
C1336 C 0.39006 0.85543 0.94767 0.0
C1337 C 0.44071 0.86873 1.01937 0.0
C1338 C 0.44086 0.87769 0.96036 0.0
C1339 C 0.41551 0.88055 0.86479 0.0
C1340 C 0.39007 0.8743 0.82837 0.0
C1341 C 0.41563 0.87128 0.9241 0.0
C1342 C 0.36487 0.8583 0.85249 0.0
C1343 C 0.36486 0.84899 0.91133 0.0
H1344 H 0.80872 0.89886 0.25835 0.0
H1345 H 0.90108 0.91162 0.32331 0.0
H1346 H 0.92112 0.9083 0.22365 0.0
H1347 H 0.91285 0.90043 0.11801 0.0
H1348 H 0.82082 0.88434 0.0544 0.0
H1349 H 0.80067 0.88926 0.15343 0.0
C1350 C 0.8333 0.90059 0.2511 0.0
C1351 C 0.85318 0.90571 0.29899 0.0
C1352 C 0.8449 0.89783 0.19359 0.0
C1353 C 0.88494 0.90839 0.28775 0.0
C1354 C 0.89655 0.90615 0.23059 0.0
C1355 C 0.88833 0.89834 0.12546 0.0
C1356 C 0.86846 0.89266 0.07775 0.0
C1357 C 0.87677 0.90083 0.18312 0.0
C1358 C 0.83685 0.88902 0.08941 0.0
C1359 C 0.82519 0.89185 0.14637 0.0
H1360 H 0.93536 0.11808 0.95851 0.0
H1361 H 0.8447 0.1568 0.98227 0.0
H1362 H 0.84456 0.17422 0.88066 0.0
H1363 H 0.86939 0.17753 0.78404 0.0
H1364 H 0.95948 0.13799 0.75889 0.0
H1365 H 0.96017 0.12116 0.8613 0.0
C1366 C 0.9154 0.13005 0.94144 0.0
C1367 C 0.89012 0.13611 0.97863 0.0
C1368 C 0.91524 0.13972 0.88236 0.0
C1369 C 0.86475 0.15217 0.95545 0.0
C1370 C 0.86452 0.16199 0.89701 0.0
C1371 C 0.88935 0.16551 0.80103 0.0
C1372 C 0.91438 0.15914 0.76357 0.0
C1373 C 0.8896 0.15588 0.86003 0.0
C1374 C 0.93975 0.14298 0.78635 0.0
C1375 C 0.94023 0.13347 0.84509 0.0
H1376 H 0.11048 0.13495 0.11606 0.0
H1377 H 0.17727 0.07071 0.04704 0.0
H1378 H 0.19665 0.06133 0.14549 0.0
H1379 H 0.19483 0.0712 0.25177 0.0
H1380 H 0.1272 0.13447 0.32076 0.0
H1381 H 0.10868 0.14486 0.22186 0.0
C1382 C 0.12956 0.1192 0.12222 0.0
C1383 C 0.14251 0.10394 0.07349 0.0
C1384 C 0.14063 0.11375 0.17924 0.0
C1385 C 0.16668 0.08292 0.08319 0.0
C1386 C 0.17792 0.07753 0.13971 0.0
C1387 C 0.17595 0.08716 0.24524 0.0
C1388 C 0.16264 0.10214 0.29388 0.0
C1389 C 0.16504 0.09276 0.18811 0.0
C1390 C 0.13836 0.12301 0.28427 0.0
C1391 C 0.12753 0.12879 0.22765 0.0
H1392 H 0.11523 0.80921 0.81351 0.0
H1393 H 0.096 0.90125 0.75103 0.0
H1394 H 0.09931 0.92093 0.85092 0.0
H1395 H 0.10856 0.9124 0.95606 0.0
H1396 H 0.13089 0.82086 1.0171 0.0
H1397 H 0.12638 0.80104 0.91778 0.0
C1398 C 0.11212 0.83366 0.82136 0.0
C1399 C 0.10515 0.85355 0.77425 0.0
C1400 C 0.11477 0.84508 0.87892 0.0
C1401 C 0.10072 0.88512 0.78613 0.0
C1402 C 0.1029 0.89653 0.84338 0.0
C1403 C 0.11215 0.88804 0.94791 0.0
C1404 C 0.11945 0.86817 0.99487 0.0
C1405 C 0.10989 0.87673 0.89016 0.0
C1406 C 0.12494 0.83682 0.98253 0.0
C1407 C 0.12236 0.82537 0.92545 0.0
loop_
_geom_bond_atom_site_label_1
_geom_bond_atom_site_label_2
_geom_bond_distance
_geom_bond_site_symmetry_2
_ccdc_geom_bond_type
Ho0 C3 2.811 . S
Ho0 O20 2.322 . S
Ho0 O22 2.378 . S
Ho0 O23 2.524 . S
Ho0 O24 2.381 . S
Ho0 O25 2.669 . S
Ho0 O27 2.346 . S
Ho0 O31 2.305 . S
Ho1 C12 2.811 1_554 S
Ho1 O21 2.346 . S
Ho1 O25 2.305 . S
Ho1 O26 2.322 . S
Ho1 O28 2.378 1_554 S
Ho1 O29 2.524 1_554 S
Ho1 O30 2.381 . S
Ho1 O31 2.669 . S
C2 O20 1.259 . S
C2 O21 1.268 . S
C3 Ho0 2.811 . S
C3 C4 1.488 . S
C3 O22 1.215 . S
C3 O23 1.289 . S
C4 C3 1.488 . S
C4 C5 1.348 . S
C4 C9 1.413 . S
C5 C4 1.348 . S
C5 C6 1.442 . S
C5 H32 0.930 . S
C6 C5 1.442 . S
C6 C7 1.381 . S
C6 H33 0.931 . S
C7 C6 1.381 . S
C7 C8 1.321 . S
C8 C7 1.321 . S
C8 C9 1.403 . S
C8 H34 0.934 . S
C9 C4 1.413 . S
C9 C8 1.403 . S
C9 H35 0.930 . S
C10 O24 1.275 . S
C10 O25 1.256 . S
C11 O26 1.259 . S
C11 O27 1.268 . S
C12 Ho1 2.811 1_556 S
C12 C13 1.488 . S
C12 O28 1.215 . S
C12 O29 1.289 . S
C13 C12 1.488 . S
C13 C14 1.348 . S
C13 C18 1.413 . S
C14 C13 1.348 . S
C14 C15 1.442 . S
C14 H36 0.930 . S
C15 C14 1.442 . S
C15 C16 1.381 . S
C15 H37 0.931 . S
C16 C15 1.381 . S
C16 C17 1.321 . S
C17 C16 1.321 . S
C17 C18 1.403 . S
C17 H38 0.934 . S
C18 C13 1.413 . S
C18 C17 1.403 . S
C18 H39 0.930 . S
C19 O30 1.275 . S
C19 O31 1.256 . S
O20 Ho0 2.322 . S
O20 C2 1.259 . S
O21 Ho1 2.346 . S
O21 C2 1.268 . S
O22 Ho0 2.378 . S
O22 C3 1.215 . S
O23 Ho0 2.524 . S
O23 C3 1.289 . S
O24 Ho0 2.381 . S
O24 C10 1.275 . S
O25 Ho0 2.669 . S
O25 Ho1 2.305 . S
O25 C10 1.256 . S
O26 Ho1 2.322 . S
O26 C11 1.259 . S
O27 Ho0 2.346 . S
O27 C11 1.268 . S
O28 Ho1 2.378 1_556 S
O28 C12 1.215 . S
O29 Ho1 2.524 1_556 S
O29 C12 1.289 . S
O30 Ho1 2.381 . S
O30 C19 1.275 . S
O31 Ho0 2.305 . S
O31 Ho1 2.669 . S
O31 C19 1.256 . S
H32 C5 0.930 . S
H33 C6 0.931 . S
H34 C8 0.934 . S
H35 C9 0.930 . S
H36 C14 0.930 . S
H37 C15 0.931 . S
H38 C17 0.934 . S
H39 C18 0.930 . S
Ho40 C43 2.811 1_556 S
Ho40 O60 2.322 . S
Ho40 O62 2.378 1_556 S
Ho40 O63 2.524 1_556 S
Ho40 O64 2.381 . S
Ho40 O65 2.669 . S
Ho40 O67 2.346 . S
Ho40 O71 2.305 . S
Ho41 C52 2.811 . S
Ho41 O61 2.346 . S
Ho41 O65 2.305 . S
Ho41 O66 2.322 . S
Ho41 O68 2.378 . S
Ho41 O69 2.524 . S
Ho41 O70 2.381 . S
Ho41 O71 2.669 . S
C42 O60 1.259 . S
C42 O61 1.268 . S
C43 Ho40 2.811 1_554 S
C43 C44 1.488 . S
C43 O62 1.215 . S
C43 O63 1.289 . S
C44 C43 1.488 . S
C44 C45 1.348 . S
C44 C49 1.413 . S
C45 C44 1.348 . S
C45 C46 1.442 . S
C45 H72 0.930 . S
C46 C45 1.442 . S
C46 C47 1.381 . S
C46 H73 0.931 . S
C47 C46 1.381 . S
C47 C48 1.321 . S
C48 C47 1.321 . S
C48 C49 1.403 . S
C48 H74 0.934 . S
C49 C44 1.413 . S
C49 C48 1.403 . S
C49 H75 0.930 . S
C50 O64 1.275 . S
C50 O65 1.256 . S
C51 O66 1.259 . S
C51 O67 1.268 . S
C52 Ho41 2.811 . S
C52 C53 1.488 . S
C52 O68 1.215 . S
C52 O69 1.289 . S
C53 C52 1.488 . S
C53 C54 1.348 . S
C53 C58 1.413 . S
C54 C53 1.348 . S
C54 C55 1.442 . S
C54 H76 0.930 . S
C55 C54 1.442 . S
C55 C56 1.381 . S
C55 H77 0.931 . S
C56 C55 1.381 . S
C56 C57 1.321 . S
C57 C56 1.321 . S
C57 C58 1.403 . S
C57 H78 0.934 . S
C58 C53 1.413 . S
C58 C57 1.403 . S
C58 H79 0.930 . S
C59 O70 1.275 . S
C59 O71 1.256 . S
O60 Ho40 2.322 . S
O60 C42 1.259 . S
O61 Ho41 2.346 . S
O61 C42 1.268 . S
O62 Ho40 2.378 1_554 S
O62 C43 1.215 . S
O63 Ho40 2.524 1_554 S
O63 C43 1.289 . S
O64 Ho40 2.381 . S
O64 C50 1.275 . S
O65 Ho40 2.669 . S
O65 Ho41 2.305 . S
O65 C50 1.256 . S
O66 Ho41 2.322 . S
O66 C51 1.259 . S
O67 Ho40 2.346 . S
O67 C51 1.268 . S
O68 Ho41 2.378 . S
O68 C52 1.215 . S
O69 Ho41 2.524 . S
O69 C52 1.289 . S
O70 Ho41 2.381 . S
O70 C59 1.275 . S
O71 Ho40 2.305 . S
O71 Ho41 2.669 . S
O71 C59 1.256 . S
H72 C45 0.930 . S
H73 C46 0.931 . S
H74 C48 0.934 . S
H75 C49 0.930 . S
H76 C54 0.930 . S
H77 C55 0.931 . S
H78 C57 0.934 . S
H79 C58 0.930 . S
Ho80 C83 2.811 . S
Ho80 O100 2.322 . S
Ho80 O102 2.378 . S
Ho80 O103 2.524 . S
Ho80 O104 2.381 . S
Ho80 O105 2.669 . S
Ho80 O107 2.346 . S
Ho80 O111 2.305 . S
Ho81 C92 2.811 1_554 S
Ho81 O101 2.346 . S
Ho81 O105 2.305 . S
Ho81 O106 2.322 . S
Ho81 O108 2.378 1_554 S
Ho81 O109 2.524 1_554 S
Ho81 O110 2.381 . S
Ho81 O111 2.669 . S
C82 O100 1.259 . S
C82 O101 1.268 . S
C83 Ho80 2.811 . S
C83 C84 1.488 . S
C83 O102 1.215 . S
C83 O103 1.289 . S
C84 C83 1.488 . S
C84 C85 1.348 . S
C84 C89 1.413 . S
C85 C84 1.348 . S
C85 C86 1.442 . S
C85 H112 0.930 . S
C86 C85 1.442 . S
C86 C87 1.381 . S
C86 H113 0.931 . S
C87 C86 1.381 . S
C87 C88 1.321 . S
C88 C87 1.321 . S
C88 C89 1.403 . S
C88 H114 0.934 . S
C89 C84 1.413 . S
C89 C88 1.403 . S
C89 H115 0.930 . S
C90 O104 1.275 . S
C90 O105 1.256 . S
C91 O106 1.259 . S
C91 O107 1.268 . S
C92 Ho81 2.811 1_556 S
C92 C93 1.488 . S
C92 O108 1.215 . S
C92 O109 1.289 . S
C93 C92 1.488 . S
C93 C94 1.348 . S
C93 C98 1.413 . S
C94 C93 1.348 . S
C94 C95 1.442 . S
C94 H116 0.930 . S
C95 C94 1.442 . S
C95 C96 1.381 . S
C95 H117 0.931 . S
C96 C95 1.381 . S
C96 C97 1.321 . S
C97 C96 1.321 . S
C97 C98 1.403 . S
C97 H118 0.934 . S
C98 C93 1.413 . S
C98 C97 1.403 . S
C98 H119 0.930 . S
C99 O110 1.275 . S
C99 O111 1.256 . S
O100 Ho80 2.322 . S
O100 C82 1.259 . S
O101 Ho81 2.346 . S
O101 C82 1.268 . S
O102 Ho80 2.378 . S
O102 C83 1.215 . S
O103 Ho80 2.524 . S
O103 C83 1.289 . S
O104 Ho80 2.381 . S
O104 C90 1.275 . S
O105 Ho80 2.669 . S
O105 Ho81 2.305 . S
O105 C90 1.256 . S
O106 Ho81 2.322 . S
O106 C91 1.259 . S
O107 Ho80 2.346 . S
O107 C91 1.268 . S
O108 Ho81 2.378 1_556 S
O108 C92 1.215 . S
O109 Ho81 2.524 1_556 S
O109 C92 1.289 . S
O110 Ho81 2.381 . S
O110 C99 1.275 . S
O111 Ho80 2.305 . S
O111 Ho81 2.669 . S
O111 C99 1.256 . S
H112 C85 0.930 . S
H113 C86 0.931 . S
H114 C88 0.934 . S
H115 C89 0.930 . S
H116 C94 0.930 . S
H117 C95 0.931 . S
H118 C97 0.934 . S
H119 C98 0.930 . S
Ho120 C123 2.811 1_556 S
Ho120 O140 2.322 . S
Ho120 O142 2.378 1_556 S
Ho120 O143 2.524 1_556 S
Ho120 O144 2.381 . S
Ho120 O145 2.669 . S
Ho120 O147 2.346 . S
Ho120 O151 2.305 . S
Ho121 C132 2.811 . S
Ho121 O141 2.346 . S
Ho121 O145 2.305 . S
Ho121 O146 2.322 . S
Ho121 O148 2.378 . S
Ho121 O149 2.524 . S
Ho121 O150 2.381 . S
Ho121 O151 2.669 . S
C122 O140 1.259 . S
C122 O141 1.268 . S
C123 Ho120 2.811 1_554 S
C123 C124 1.488 . S
C123 O142 1.215 . S
C123 O143 1.289 . S
C124 C123 1.488 . S
C124 C125 1.348 . S
C124 C129 1.413 . S
C125 C124 1.348 . S
C125 C126 1.442 . S
C125 H152 0.930 . S
C126 C125 1.442 . S
C126 C127 1.381 . S
C126 H153 0.931 . S
C127 C126 1.381 . S
C127 C128 1.321 . S
C128 C127 1.321 . S
C128 C129 1.403 . S
C128 H154 0.934 . S
C129 C124 1.413 . S
C129 C128 1.403 . S
C129 H155 0.930 . S
C130 O144 1.275 . S
C130 O145 1.256 . S
C131 O146 1.259 . S
C131 O147 1.268 . S
C132 Ho121 2.811 . S
C132 C133 1.488 . S
C132 O148 1.215 . S
C132 O149 1.289 . S
C133 C132 1.488 . S
C133 C134 1.348 . S
C133 C138 1.413 . S
C134 C133 1.348 . S
C134 C135 1.442 . S
C134 H156 0.930 . S
C135 C134 1.442 . S
C135 C136 1.381 . S
C135 H157 0.931 . S
C136 C135 1.381 . S
C136 C137 1.321 . S
C137 C136 1.321 . S
C137 C138 1.403 . S
C137 H158 0.934 . S
C138 C133 1.413 . S
C138 C137 1.403 . S
C138 H159 0.930 . S
C139 O150 1.275 . S
C139 O151 1.256 . S
O140 Ho120 2.322 . S
O140 C122 1.259 . S
O141 Ho121 2.346 . S
O141 C122 1.268 . S
O142 Ho120 2.378 1_554 S
O142 C123 1.215 . S
O143 Ho120 2.524 1_554 S
O143 C123 1.289 . S
O144 Ho120 2.381 . S
O144 C130 1.275 . S
O145 Ho120 2.669 . S
O145 Ho121 2.305 . S
O145 C130 1.256 . S
O146 Ho121 2.322 . S
O146 C131 1.259 . S
O147 Ho120 2.346 . S
O147 C131 1.268 . S
O148 Ho121 2.378 . S
O148 C132 1.215 . S
O149 Ho121 2.524 . S
O149 C132 1.289 . S
O150 Ho121 2.381 . S
O150 C139 1.275 . S
O151 Ho120 2.305 . S
O151 Ho121 2.669 . S
O151 C139 1.256 . S
H152 C125 0.930 . S
H153 C126 0.931 . S
H154 C128 0.934 . S
H155 C129 0.930 . S
H156 C134 0.930 . S
H157 C135 0.931 . S
H158 C137 0.934 . S
H159 C138 0.930 . S
Ho160 C163 2.811 1_554 S
Ho160 O180 2.322 . S
Ho160 O182 2.378 1_554 S
Ho160 O183 2.524 1_554 S
Ho160 O184 2.381 . S
Ho160 O185 2.669 . S
Ho160 O187 2.346 . S
Ho160 O191 2.305 . S
Ho161 C172 2.811 . S
Ho161 O181 2.346 . S
Ho161 O185 2.305 . S
Ho161 O186 2.322 . S
Ho161 O188 2.378 . S
Ho161 O189 2.524 . S
Ho161 O190 2.381 . S
Ho161 O191 2.669 . S
C162 O180 1.259 . S
C162 O181 1.268 . S
C163 Ho160 2.811 1_556 S
C163 C164 1.488 . S
C163 O182 1.215 . S
C163 O183 1.289 . S
C164 C163 1.488 . S
C164 C165 1.348 . S
C164 C169 1.413 . S
C165 C164 1.348 . S
C165 C166 1.442 . S
C165 H192 0.930 . S
C166 C165 1.442 . S
C166 C167 1.381 . S
C166 H193 0.931 . S
C167 C166 1.381 . S
C167 C168 1.321 . S
C168 C167 1.321 . S
C168 C169 1.403 . S
C168 H194 0.934 . S
C169 C164 1.413 . S
C169 C168 1.403 . S
C169 H195 0.930 . S
C170 O184 1.275 . S
C170 O185 1.256 . S
C171 O186 1.259 . S
C171 O187 1.268 . S
C172 Ho161 2.811 . S
C172 C173 1.488 . S
C172 O188 1.215 . S
C172 O189 1.289 . S
C173 C172 1.488 . S
C173 C174 1.348 . S
C173 C178 1.413 . S
C174 C173 1.348 . S
C174 C175 1.442 . S
C174 H196 0.930 . S
C175 C174 1.442 . S
C175 C176 1.381 . S
C175 H197 0.931 . S
C176 C175 1.381 . S
C176 C177 1.321 . S
C177 C176 1.321 . S
C177 C178 1.403 . S
C177 H198 0.934 . S
C178 C173 1.413 . S
C178 C177 1.403 . S
C178 H199 0.930 . S
C179 O190 1.275 . S
C179 O191 1.256 . S
O180 Ho160 2.322 . S
O180 C162 1.259 . S
O181 Ho161 2.346 . S
O181 C162 1.268 . S
O182 Ho160 2.378 1_556 S
O182 C163 1.215 . S
O183 Ho160 2.524 1_556 S
O183 C163 1.289 . S
O184 Ho160 2.381 . S
O184 C170 1.275 . S
O185 Ho160 2.669 . S
O185 Ho161 2.305 . S
O185 C170 1.256 . S
O186 Ho161 2.322 . S
O186 C171 1.259 . S
O187 Ho160 2.346 . S
O187 C171 1.268 . S
O188 Ho161 2.378 . S
O188 C172 1.215 . S
O189 Ho161 2.524 . S
O189 C172 1.289 . S
O190 Ho161 2.381 . S
O190 C179 1.275 . S
O191 Ho160 2.305 . S
O191 Ho161 2.669 . S
O191 C179 1.256 . S
H192 C165 0.930 . S
H193 C166 0.931 . S
H194 C168 0.934 . S
H195 C169 0.930 . S
H196 C174 0.930 . S
H197 C175 0.931 . S
H198 C177 0.934 . S
H199 C178 0.930 . S
Ho200 C203 2.811 . S
Ho200 O220 2.322 . S
Ho200 O222 2.378 . S
Ho200 O223 2.524 . S
Ho200 O224 2.381 . S
Ho200 O225 2.669 . S
Ho200 O227 2.346 . S
Ho200 O231 2.305 . S
Ho201 C212 2.811 1_556 S
Ho201 O221 2.346 . S
Ho201 O225 2.305 . S
Ho201 O226 2.322 . S
Ho201 O228 2.378 1_556 S
Ho201 O229 2.524 1_556 S
Ho201 O230 2.381 . S
Ho201 O231 2.669 . S
C202 O220 1.259 . S
C202 O221 1.268 . S
C203 Ho200 2.811 . S
C203 C204 1.488 . S
C203 O222 1.215 . S
C203 O223 1.289 . S
C204 C203 1.488 . S
C204 C205 1.348 . S
C204 C209 1.413 . S
C205 C204 1.348 . S
C205 C206 1.442 . S
C205 H232 0.930 . S
C206 C205 1.442 . S
C206 C207 1.381 . S
C206 H233 0.931 . S
C207 C206 1.381 . S
C207 C208 1.321 . S
C208 C207 1.321 . S
C208 C209 1.403 . S
C208 H234 0.934 . S
C209 C204 1.413 . S
C209 C208 1.403 . S
C209 H235 0.930 . S
C210 O224 1.275 . S
C210 O225 1.256 . S
C211 O226 1.259 . S
C211 O227 1.268 . S
C212 Ho201 2.811 1_554 S
C212 C213 1.488 . S
C212 O228 1.215 . S
C212 O229 1.289 . S
C213 C212 1.488 . S
C213 C214 1.348 . S
C213 C218 1.413 . S
C214 C213 1.348 . S
C214 C215 1.442 . S
C214 H236 0.930 . S
C215 C214 1.442 . S
C215 C216 1.381 . S
C215 H237 0.931 . S
C216 C215 1.381 . S
C216 C217 1.321 . S
C217 C216 1.321 . S
C217 C218 1.403 . S
C217 H238 0.934 . S
C218 C213 1.413 . S
C218 C217 1.403 . S
C218 H239 0.930 . S
C219 O230 1.275 . S
C219 O231 1.256 . S
O220 Ho200 2.322 . S
O220 C202 1.259 . S
O221 Ho201 2.346 . S
O221 C202 1.268 . S
O222 Ho200 2.378 . S
O222 C203 1.215 . S
O223 Ho200 2.524 . S
O223 C203 1.289 . S
O224 Ho200 2.381 . S
O224 C210 1.275 . S
O225 Ho200 2.669 . S
O225 Ho201 2.305 . S
O225 C210 1.256 . S
O226 Ho201 2.322 . S
O226 C211 1.259 . S
O227 Ho200 2.346 . S
O227 C211 1.268 . S
O228 Ho201 2.378 1_554 S
O228 C212 1.215 . S
O229 Ho201 2.524 1_554 S
O229 C212 1.289 . S
O230 Ho201 2.381 . S
O230 C219 1.275 . S
O231 Ho200 2.305 . S
O231 Ho201 2.669 . S
O231 C219 1.256 . S
H232 C205 0.930 . S
H233 C206 0.931 . S
H234 C208 0.934 . S
H235 C209 0.930 . S
H236 C214 0.930 . S
H237 C215 0.931 . S
H238 C217 0.934 . S
H239 C218 0.930 . S
Ho240 C243 2.811 1_554 S
Ho240 O260 2.322 . S
Ho240 O262 2.378 1_554 S
Ho240 O263 2.524 1_554 S
Ho240 O264 2.381 . S
Ho240 O265 2.669 . S
Ho240 O267 2.346 . S
Ho240 O271 2.305 . S
Ho241 C252 2.811 . S
Ho241 O261 2.346 . S
Ho241 O265 2.305 . S
Ho241 O266 2.322 . S
Ho241 O268 2.378 . S
Ho241 O269 2.524 . S
Ho241 O270 2.381 . S
Ho241 O271 2.669 . S
C242 O260 1.259 . S
C242 O261 1.268 . S
C243 Ho240 2.811 1_556 S
C243 C244 1.488 . S
C243 O262 1.215 . S
C243 O263 1.289 . S
C244 C243 1.488 . S
C244 C245 1.348 . S
C244 C249 1.413 . S
C245 C244 1.348 . S
C245 C246 1.442 . S
C245 H272 0.930 . S
C246 C245 1.442 . S
C246 C247 1.381 . S
C246 H273 0.931 . S
C247 C246 1.381 . S
C247 C248 1.321 . S
C248 C247 1.321 . S
C248 C249 1.403 . S
C248 H274 0.934 . S
C249 C244 1.413 . S
C249 C248 1.403 . S
C249 H275 0.930 . S
C250 O264 1.275 . S
C250 O265 1.256 . S
C251 O266 1.259 . S
C251 O267 1.268 . S
C252 Ho241 2.811 . S
C252 C253 1.488 . S
C252 O268 1.215 . S
C252 O269 1.289 . S
C253 C252 1.488 . S
C253 C254 1.348 . S
C253 C258 1.413 . S
C254 C253 1.348 . S
C254 C255 1.442 . S
C254 H276 0.930 . S
C255 C254 1.442 . S
C255 C256 1.381 . S
C255 H277 0.931 . S
C256 C255 1.381 . S
C256 C257 1.321 . S
C257 C256 1.321 . S
C257 C258 1.403 . S
C257 H278 0.934 . S
C258 C253 1.413 . S
C258 C257 1.403 . S
C258 H279 0.930 . S
C259 O270 1.275 . S
C259 O271 1.256 . S
O260 Ho240 2.322 . S
O260 C242 1.259 . S
O261 Ho241 2.346 . S
O261 C242 1.268 . S
O262 Ho240 2.378 1_556 S
O262 C243 1.215 . S
O263 Ho240 2.524 1_556 S
O263 C243 1.289 . S
O264 Ho240 2.381 . S
O264 C250 1.275 . S
O265 Ho240 2.669 . S
O265 Ho241 2.305 . S
O265 C250 1.256 . S
O266 Ho241 2.322 . S
O266 C251 1.259 . S
O267 Ho240 2.346 . S
O267 C251 1.268 . S
O268 Ho241 2.378 . S
O268 C252 1.215 . S
O269 Ho241 2.524 . S
O269 C252 1.289 . S
O270 Ho241 2.381 . S
O270 C259 1.275 . S
O271 Ho240 2.305 . S
O271 Ho241 2.669 . S
O271 C259 1.256 . S
H272 C245 0.930 . S
H273 C246 0.931 . S
H274 C248 0.934 . S
H275 C249 0.930 . S
H276 C254 0.930 . S
H277 C255 0.931 . S
H278 C257 0.934 . S
H279 C258 0.930 . S
Ho280 C283 2.811 . S
Ho280 O300 2.322 . S
Ho280 O302 2.378 . S
Ho280 O303 2.524 . S
Ho280 O304 2.381 . S
Ho280 O305 2.669 . S
Ho280 O307 2.346 . S
Ho280 O311 2.305 . S
Ho281 C292 2.811 1_556 S
Ho281 O301 2.346 . S
Ho281 O305 2.305 . S
Ho281 O306 2.322 . S
Ho281 O308 2.378 1_556 S
Ho281 O309 2.524 1_556 S
Ho281 O310 2.381 . S
Ho281 O311 2.669 . S
C282 O300 1.259 . S
C282 O301 1.268 . S
C283 Ho280 2.811 . S
C283 C284 1.488 . S
C283 O302 1.215 . S
C283 O303 1.289 . S
C284 C283 1.488 . S
C284 C285 1.348 . S
C284 C289 1.413 . S
C285 C284 1.348 . S
C285 C286 1.442 . S
C285 H312 0.930 . S
C286 C285 1.442 . S
C286 C287 1.381 . S
C286 H313 0.931 . S
C287 C286 1.381 . S
C287 C288 1.321 . S
C288 C287 1.321 . S
C288 C289 1.403 . S
C288 H314 0.934 . S
C289 C284 1.413 . S
C289 C288 1.403 . S
C289 H315 0.930 . S
C290 O304 1.275 . S
C290 O305 1.256 . S
C291 O306 1.259 . S
C291 O307 1.268 . S
C292 Ho281 2.811 1_554 S
C292 C293 1.488 . S
C292 O308 1.215 . S
C292 O309 1.289 . S
C293 C292 1.488 . S
C293 C294 1.348 . S
C293 C298 1.413 . S
C294 C293 1.348 . S
C294 C295 1.442 . S
C294 H316 0.930 . S
C295 C294 1.442 . S
C295 C296 1.381 . S
C295 H317 0.931 . S
C296 C295 1.381 . S
C296 C297 1.321 . S
C297 C296 1.321 . S
C297 C298 1.403 . S
C297 H318 0.934 . S
C298 C293 1.413 . S
C298 C297 1.403 . S
C298 H319 0.930 . S
C299 O310 1.275 . S
C299 O311 1.256 . S
O300 Ho280 2.322 . S
O300 C282 1.259 . S
O301 Ho281 2.346 . S
O301 C282 1.268 . S
O302 Ho280 2.378 . S
O302 C283 1.215 . S
O303 Ho280 2.524 . S
O303 C283 1.289 . S
O304 Ho280 2.381 . S
O304 C290 1.275 . S
O305 Ho280 2.669 . S
O305 Ho281 2.305 . S
O305 C290 1.256 . S
O306 Ho281 2.322 . S
O306 C291 1.259 . S
O307 Ho280 2.346 . S
O307 C291 1.268 . S
O308 Ho281 2.378 1_554 S
O308 C292 1.215 . S
O309 Ho281 2.524 1_554 S
O309 C292 1.289 . S
O310 Ho281 2.381 . S
O310 C299 1.275 . S
O311 Ho280 2.305 . S
O311 Ho281 2.669 . S
O311 C299 1.256 . S
H312 C285 0.930 . S
H313 C286 0.931 . S
H314 C288 0.934 . S
H315 C289 0.930 . S
H316 C294 0.930 . S
H317 C295 0.931 . S
H318 C297 0.934 . S
H319 C298 0.930 . S
Ho320 C323 2.811 . S
Ho320 O340 2.322 . S
Ho320 O342 2.378 . S
Ho320 O343 2.524 . S
Ho320 O344 2.381 . S
Ho320 O345 2.669 . S
Ho320 O347 2.346 . S
Ho320 O351 2.305 . S
Ho321 C332 2.811 . S
Ho321 O341 2.346 . S
Ho321 O345 2.305 . S
Ho321 O346 2.322 . S
Ho321 O348 2.378 . S
Ho321 O349 2.524 . S
Ho321 O350 2.381 . S
Ho321 O351 2.669 . S
C322 O340 1.259 . S
C322 O341 1.268 . S
C323 Ho320 2.811 . S
C323 C324 1.488 . S
C323 O342 1.215 . S
C323 O343 1.289 . S
C324 C323 1.488 . S
C324 C325 1.348 . S
C324 C329 1.413 . S
C325 C324 1.348 . S
C325 C326 1.442 . S
C325 H352 0.930 . S
C326 C325 1.442 . S
C326 C327 1.381 . S
C326 H353 0.931 . S
C327 C326 1.381 . S
C327 C328 1.321 . S
C328 C327 1.321 . S
C328 C329 1.403 . S
C328 H354 0.934 . S
C329 C324 1.413 . S
C329 C328 1.403 . S
C329 H355 0.930 . S
C330 O344 1.275 . S
C330 O345 1.256 . S
C331 O346 1.259 . S
C331 O347 1.268 . S
C332 Ho321 2.811 . S
C332 C333 1.488 . S
C332 O348 1.215 . S
C332 O349 1.289 . S
C333 C332 1.488 . S
C333 C334 1.348 . S
C333 C338 1.413 . S
C334 C333 1.348 . S
C334 C335 1.442 . S
C334 H356 0.930 . S
C335 C334 1.442 . S
C335 C336 1.381 . S
C335 H357 0.931 . S
C336 C335 1.381 . S
C336 C337 1.321 . S
C337 C336 1.321 . S
C337 C338 1.403 . S
C337 H358 0.934 . S
C338 C333 1.413 . S
C338 C337 1.403 . S
C338 H359 0.930 . S
C339 O350 1.275 . S
C339 O351 1.256 . S
O340 Ho320 2.322 . S
O340 C322 1.259 . S
O341 Ho321 2.346 . S
O341 C322 1.268 . S
O342 Ho320 2.378 . S
O342 C323 1.215 . S
O343 Ho320 2.524 . S
O343 C323 1.289 . S
O344 Ho320 2.381 . S
O344 C330 1.275 . S
O345 Ho320 2.669 . S
O345 Ho321 2.305 . S
O345 C330 1.256 . S
O346 Ho321 2.322 . S
O346 C331 1.259 . S
O347 Ho320 2.346 . S
O347 C331 1.268 . S
O348 Ho321 2.378 . S
O348 C332 1.215 . S
O349 Ho321 2.524 . S
O349 C332 1.289 . S
O350 Ho321 2.381 . S
O350 C339 1.275 . S
O351 Ho320 2.305 . S
O351 Ho321 2.669 . S
O351 C339 1.256 . S
H352 C325 0.930 . S
H353 C326 0.931 . S
H354 C328 0.934 . S
H355 C329 0.930 . S
H356 C334 0.930 . S
H357 C335 0.931 . S
H358 C337 0.934 . S
H359 C338 0.930 . S
Ho360 C363 2.811 . S
Ho360 O380 2.322 . S
Ho360 O382 2.378 . S
Ho360 O383 2.524 . S
Ho360 O384 2.381 . S
Ho360 O385 2.669 . S
Ho360 O387 2.346 . S
Ho360 O391 2.305 . S
Ho361 C372 2.811 . S
Ho361 O381 2.346 . S
Ho361 O385 2.305 . S
Ho361 O386 2.322 . S
Ho361 O388 2.378 . S
Ho361 O389 2.524 . S
Ho361 O390 2.381 . S
Ho361 O391 2.669 . S
C362 O380 1.259 . S
C362 O381 1.268 . S
C363 Ho360 2.811 . S
C363 C364 1.488 . S
C363 O382 1.215 . S
C363 O383 1.289 . S
C364 C363 1.488 . S
C364 C365 1.348 . S
C364 C369 1.413 . S
C365 C364 1.348 . S
C365 C366 1.442 . S
C365 H392 0.930 . S
C366 C365 1.442 . S
C366 C367 1.381 . S
C366 H393 0.931 . S
C367 C366 1.381 . S
C367 C368 1.321 . S
C368 C367 1.321 . S
C368 C369 1.403 . S
C368 H394 0.934 . S
C369 C364 1.413 . S
C369 C368 1.403 . S
C369 H395 0.930 . S
C370 O384 1.275 . S
C370 O385 1.256 . S
C371 O386 1.259 . S
C371 O387 1.268 . S
C372 Ho361 2.811 . S
C372 C373 1.488 . S
C372 O388 1.215 . S
C372 O389 1.289 . S
C373 C372 1.488 . S
C373 C374 1.348 . S
C373 C378 1.413 . S
C374 C373 1.348 . S
C374 C375 1.442 . S
C374 H396 0.930 . S
C375 C374 1.442 . S
C375 C376 1.381 . S
C375 H397 0.931 . S
C376 C375 1.381 . S
C376 C377 1.321 . S
C377 C376 1.321 . S
C377 C378 1.403 . S
C377 H398 0.934 . S
C378 C373 1.413 . S
C378 C377 1.403 . S
C378 H399 0.930 . S
C379 O390 1.275 . S
C379 O391 1.256 . S
O380 Ho360 2.322 . S
O380 C362 1.259 . S
O381 Ho361 2.346 . S
O381 C362 1.268 . S
O382 Ho360 2.378 . S
O382 C363 1.215 . S
O383 Ho360 2.524 . S
O383 C363 1.289 . S
O384 Ho360 2.381 . S
O384 C370 1.275 . S
O385 Ho360 2.669 . S
O385 Ho361 2.305 . S
O385 C370 1.256 . S
O386 Ho361 2.322 . S
O386 C371 1.259 . S
O387 Ho360 2.346 . S
O387 C371 1.268 . S
O388 Ho361 2.378 . S
O388 C372 1.215 . S
O389 Ho361 2.524 . S
O389 C372 1.289 . S
O390 Ho361 2.381 . S
O390 C379 1.275 . S
O391 Ho360 2.305 . S
O391 Ho361 2.669 . S
O391 C379 1.256 . S
H392 C365 0.930 . S
H393 C366 0.931 . S
H394 C368 0.934 . S
H395 C369 0.930 . S
H396 C374 0.930 . S
H397 C375 0.931 . S
H398 C377 0.934 . S
H399 C378 0.930 . S
Ho400 C403 2.811 . S
Ho400 O420 2.322 . S
Ho400 O422 2.378 . S
Ho400 O423 2.524 . S
Ho400 O424 2.381 . S
Ho400 O425 2.669 . S
Ho400 O427 2.346 . S
Ho400 O431 2.305 . S
Ho401 C412 2.811 . S
Ho401 O421 2.346 . S
Ho401 O425 2.305 . S
Ho401 O426 2.322 . S
Ho401 O428 2.378 . S
Ho401 O429 2.524 . S
Ho401 O430 2.381 . S
Ho401 O431 2.669 . S
C402 O420 1.259 . S
C402 O421 1.268 . S
C403 Ho400 2.811 . S
C403 C404 1.488 . S
C403 O422 1.215 . S
C403 O423 1.289 . S
C404 C403 1.488 . S
C404 C405 1.348 . S
C404 C409 1.413 . S
C405 C404 1.348 . S
C405 C406 1.442 . S
C405 H432 0.930 . S
C406 C405 1.442 . S
C406 C407 1.381 . S
C406 H433 0.931 . S
C407 C406 1.381 . S
C407 C408 1.321 . S
C408 C407 1.321 . S
C408 C409 1.403 . S
C408 H434 0.934 . S
C409 C404 1.413 . S
C409 C408 1.403 . S
C409 H435 0.930 . S
C410 O424 1.275 . S
C410 O425 1.256 . S
C411 O426 1.259 . S
C411 O427 1.268 . S
C412 Ho401 2.811 . S
C412 C413 1.488 . S
C412 O428 1.215 . S
C412 O429 1.289 . S
C413 C412 1.488 . S
C413 C414 1.348 . S
C413 C418 1.413 . S
C414 C413 1.348 . S
C414 C415 1.442 . S
C414 H436 0.930 . S
C415 C414 1.442 . S
C415 C416 1.381 . S
C415 H437 0.931 . S
C416 C415 1.381 . S
C416 C417 1.321 . S
C417 C416 1.321 . S
C417 C418 1.403 . S
C417 H438 0.934 . S
C418 C413 1.413 . S
C418 C417 1.403 . S
C418 H439 0.930 . S
C419 O430 1.275 . S
C419 O431 1.256 . S
O420 Ho400 2.322 . S
O420 C402 1.259 . S
O421 Ho401 2.346 . S
O421 C402 1.268 . S
O422 Ho400 2.378 . S
O422 C403 1.215 . S
O423 Ho400 2.524 . S
O423 C403 1.289 . S
O424 Ho400 2.381 . S
O424 C410 1.275 . S
O425 Ho400 2.669 . S
O425 Ho401 2.305 . S
O425 C410 1.256 . S
O426 Ho401 2.322 . S
O426 C411 1.259 . S
O427 Ho400 2.346 . S
O427 C411 1.268 . S
O428 Ho401 2.378 . S
O428 C412 1.215 . S
O429 Ho401 2.524 . S
O429 C412 1.289 . S
O430 Ho401 2.381 . S
O430 C419 1.275 . S
O431 Ho400 2.305 . S
O431 Ho401 2.669 . S
O431 C419 1.256 . S
H432 C405 0.930 . S
H433 C406 0.931 . S
H434 C408 0.934 . S
H435 C409 0.930 . S
H436 C414 0.930 . S
H437 C415 0.931 . S
H438 C417 0.934 . S
H439 C418 0.930 . S
Ho440 C443 2.811 . S
Ho440 O460 2.322 . S
Ho440 O462 2.378 . S
Ho440 O463 2.524 . S
Ho440 O464 2.381 . S
Ho440 O465 2.669 . S
Ho440 O467 2.346 . S
Ho440 O471 2.305 . S
Ho441 C452 2.811 . S
Ho441 O461 2.346 . S
Ho441 O465 2.305 . S
Ho441 O466 2.322 . S
Ho441 O468 2.378 . S
Ho441 O469 2.524 . S
Ho441 O470 2.381 . S
Ho441 O471 2.669 . S
C442 O460 1.259 . S
C442 O461 1.268 . S
C443 Ho440 2.811 . S
C443 C444 1.488 . S
C443 O462 1.215 . S
C443 O463 1.289 . S
C444 C443 1.488 . S
C444 C445 1.348 . S
C444 C449 1.413 . S
C445 C444 1.348 . S
C445 C446 1.442 . S
C445 H472 0.930 . S
C446 C445 1.442 . S
C446 C447 1.381 . S
C446 H473 0.931 . S
C447 C446 1.381 . S
C447 C448 1.321 . S
C448 C447 1.321 . S
C448 C449 1.403 . S
C448 H474 0.934 . S
C449 C444 1.413 . S
C449 C448 1.403 . S
C449 H475 0.930 . S
C450 O464 1.275 . S
C450 O465 1.256 . S
C451 O466 1.259 . S
C451 O467 1.268 . S
C452 Ho441 2.811 . S
C452 C453 1.488 . S
C452 O468 1.215 . S
C452 O469 1.289 . S
C453 C452 1.488 . S
C453 C454 1.348 . S
C453 C458 1.413 . S
C454 C453 1.348 . S
C454 C455 1.442 . S
C454 H476 0.930 . S
C455 C454 1.442 . S
C455 C456 1.381 . S
C455 H477 0.931 . S
C456 C455 1.381 . S
C456 C457 1.321 . S
C457 C456 1.321 . S
C457 C458 1.403 . S
C457 H478 0.934 . S
C458 C453 1.413 . S
C458 C457 1.403 . S
C458 H479 0.930 . S
C459 O470 1.275 . S
C459 O471 1.256 . S
O460 Ho440 2.322 . S
O460 C442 1.259 . S
O461 Ho441 2.346 . S
O461 C442 1.268 . S
O462 Ho440 2.378 . S
O462 C443 1.215 . S
O463 Ho440 2.524 . S
O463 C443 1.289 . S
O464 Ho440 2.381 . S
O464 C450 1.275 . S
O465 Ho440 2.669 . S
O465 Ho441 2.305 . S
O465 C450 1.256 . S
O466 Ho441 2.322 . S
O466 C451 1.259 . S
O467 Ho440 2.346 . S
O467 C451 1.268 . S
O468 Ho441 2.378 . S
O468 C452 1.215 . S
O469 Ho441 2.524 . S
O469 C452 1.289 . S
O470 Ho441 2.381 . S
O470 C459 1.275 . S
O471 Ho440 2.305 . S
O471 Ho441 2.669 . S
O471 C459 1.256 . S
H472 C445 0.930 . S
H473 C446 0.931 . S
H474 C448 0.934 . S
H475 C449 0.930 . S
H476 C454 0.930 . S
H477 C455 0.931 . S
H478 C457 0.934 . S
H479 C458 0.930 . S
Ho480 C483 2.811 . S
Ho480 O500 2.322 . S
Ho480 O502 2.378 . S
Ho480 O503 2.524 . S
Ho480 O504 2.381 . S
Ho480 O505 2.669 . S
Ho480 O507 2.346 . S
Ho480 O511 2.305 . S
Ho481 C492 2.811 . S
Ho481 O501 2.346 . S
Ho481 O505 2.305 . S
Ho481 O506 2.322 . S
Ho481 O508 2.378 . S
Ho481 O509 2.524 . S
Ho481 O510 2.381 . S
Ho481 O511 2.669 . S
C482 O500 1.259 . S
C482 O501 1.268 . S
C483 Ho480 2.811 . S
C483 C484 1.488 . S
C483 O502 1.215 . S
C483 O503 1.289 . S
C484 C483 1.488 . S
C484 C485 1.348 . S
C484 C489 1.413 . S
C485 C484 1.348 . S
C485 C486 1.442 . S
C485 H512 0.930 . S
C486 C485 1.442 . S
C486 C487 1.381 . S
C486 H513 0.931 . S
C487 C486 1.381 . S
C487 C488 1.321 . S
C488 C487 1.321 . S
C488 C489 1.403 . S
C488 H514 0.934 . S
C489 C484 1.413 . S
C489 C488 1.403 . S
C489 H515 0.930 . S
C490 O504 1.275 . S
C490 O505 1.256 . S
C491 O506 1.259 . S
C491 O507 1.268 . S
C492 Ho481 2.811 . S
C492 C493 1.488 . S
C492 O508 1.215 . S
C492 O509 1.289 . S
C493 C492 1.488 . S
C493 C494 1.348 . S
C493 C498 1.413 . S
C494 C493 1.348 . S
C494 C495 1.442 . S
C494 H516 0.930 . S
C495 C494 1.442 . S
C495 C496 1.381 . S
C495 H517 0.931 . S
C496 C495 1.381 . S
C496 C497 1.321 . S
C497 C496 1.321 . S
C497 C498 1.403 . S
C497 H518 0.934 . S
C498 C493 1.413 . S
C498 C497 1.403 . S
C498 H519 0.930 . S
C499 O510 1.275 . S
C499 O511 1.256 . S
O500 Ho480 2.322 . S
O500 C482 1.259 . S
O501 Ho481 2.346 . S
O501 C482 1.268 . S
O502 Ho480 2.378 . S
O502 C483 1.215 . S
O503 Ho480 2.524 . S
O503 C483 1.289 . S
O504 Ho480 2.381 . S
O504 C490 1.275 . S
O505 Ho480 2.669 . S
O505 Ho481 2.305 . S
O505 C490 1.256 . S
O506 Ho481 2.322 . S
O506 C491 1.259 . S
O507 Ho480 2.346 . S
O507 C491 1.268 . S
O508 Ho481 2.378 . S
O508 C492 1.215 . S
O509 Ho481 2.524 . S
O509 C492 1.289 . S
O510 Ho481 2.381 . S
O510 C499 1.275 . S
O511 Ho480 2.305 . S
O511 Ho481 2.669 . S
O511 C499 1.256 . S
H512 C485 0.930 . S
H513 C486 0.931 . S
H514 C488 0.934 . S
H515 C489 0.930 . S
H516 C494 0.930 . S
H517 C495 0.931 . S
H518 C497 0.934 . S
H519 C498 0.930 . S
Ho520 C523 2.811 . S
Ho520 O540 2.322 . S
Ho520 O542 2.378 . S
Ho520 O543 2.524 . S
Ho520 O544 2.381 . S
Ho520 O545 2.669 . S
Ho520 O547 2.346 . S
Ho520 O551 2.305 . S
Ho521 C532 2.811 . S
Ho521 O541 2.346 . S
Ho521 O545 2.305 . S
Ho521 O546 2.322 . S
Ho521 O548 2.378 . S
Ho521 O549 2.524 . S
Ho521 O550 2.381 . S
Ho521 O551 2.669 . S
C522 O540 1.259 . S
C522 O541 1.268 . S
C523 Ho520 2.811 . S
C523 C524 1.488 . S
C523 O542 1.215 . S
C523 O543 1.289 . S
C524 C523 1.488 . S
C524 C525 1.348 . S
C524 C529 1.413 . S
C525 C524 1.348 . S
C525 C526 1.442 . S
C525 H552 0.930 . S
C526 C525 1.442 . S
C526 C527 1.381 . S
C526 H553 0.931 . S
C527 C526 1.381 . S
C527 C528 1.321 . S
C528 C527 1.321 . S
C528 C529 1.403 . S
C528 H554 0.934 . S
C529 C524 1.413 . S
C529 C528 1.403 . S
C529 H555 0.930 . S
C530 O544 1.275 . S
C530 O545 1.256 . S
C531 O546 1.259 . S
C531 O547 1.268 . S
C532 Ho521 2.811 . S
C532 C533 1.488 . S
C532 O548 1.215 . S
C532 O549 1.289 . S
C533 C532 1.488 . S
C533 C534 1.348 . S
C533 C538 1.413 . S
C534 C533 1.348 . S
C534 C535 1.442 . S
C534 H556 0.930 . S
C535 C534 1.442 . S
C535 C536 1.381 . S
C535 H557 0.931 . S
C536 C535 1.381 . S
C536 C537 1.321 . S
C537 C536 1.321 . S
C537 C538 1.403 . S
C537 H558 0.934 . S
C538 C533 1.413 . S
C538 C537 1.403 . S
C538 H559 0.930 . S
C539 O550 1.275 . S
C539 O551 1.256 . S
O540 Ho520 2.322 . S
O540 C522 1.259 . S
O541 Ho521 2.346 . S
O541 C522 1.268 . S
O542 Ho520 2.378 . S
O542 C523 1.215 . S
O543 Ho520 2.524 . S
O543 C523 1.289 . S
O544 Ho520 2.381 . S
O544 C530 1.275 . S
O545 Ho520 2.669 . S
O545 Ho521 2.305 . S
O545 C530 1.256 . S
O546 Ho521 2.322 . S
O546 C531 1.259 . S
O547 Ho520 2.346 . S
O547 C531 1.268 . S
O548 Ho521 2.378 . S
O548 C532 1.215 . S
O549 Ho521 2.524 . S
O549 C532 1.289 . S
O550 Ho521 2.381 . S
O550 C539 1.275 . S
O551 Ho520 2.305 . S
O551 Ho521 2.669 . S
O551 C539 1.256 . S
H552 C525 0.930 . S
H553 C526 0.931 . S
H554 C528 0.934 . S
H555 C529 0.930 . S
H556 C534 0.930 . S
H557 C535 0.931 . S
H558 C537 0.934 . S
H559 C538 0.930 . S
Ho560 C563 2.811 . S
Ho560 O580 2.322 . S
Ho560 O582 2.378 . S
Ho560 O583 2.524 . S
Ho560 O584 2.381 . S
Ho560 O585 2.669 . S
Ho560 O587 2.346 . S
Ho560 O591 2.305 . S
Ho561 C572 2.811 . S
Ho561 O581 2.346 . S
Ho561 O585 2.305 . S
Ho561 O586 2.322 . S
Ho561 O588 2.378 . S
Ho561 O589 2.524 . S
Ho561 O590 2.381 . S
Ho561 O591 2.669 . S
C562 O580 1.259 . S
C562 O581 1.268 . S
C563 Ho560 2.811 . S
C563 C564 1.488 . S
C563 O582 1.215 . S
C563 O583 1.289 . S
C564 C563 1.488 . S
C564 C565 1.348 . S
C564 C569 1.413 . S
C565 C564 1.348 . S
C565 C566 1.442 . S
C565 H592 0.930 . S
C566 C565 1.442 . S
C566 C567 1.381 . S
C566 H593 0.931 . S
C567 C566 1.381 . S
C567 C568 1.321 . S
C568 C567 1.321 . S
C568 C569 1.403 . S
C568 H594 0.934 . S
C569 C564 1.413 . S
C569 C568 1.403 . S
C569 H595 0.930 . S
C570 O584 1.275 . S
C570 O585 1.256 . S
C571 O586 1.259 . S
C571 O587 1.268 . S
C572 Ho561 2.811 . S
C572 C573 1.488 . S
C572 O588 1.215 . S
C572 O589 1.289 . S
C573 C572 1.488 . S
C573 C574 1.348 . S
C573 C578 1.413 . S
C574 C573 1.348 . S
C574 C575 1.442 . S
C574 H596 0.930 . S
C575 C574 1.442 . S
C575 C576 1.381 . S
C575 H597 0.931 . S
C576 C575 1.381 . S
C576 C577 1.321 . S
C577 C576 1.321 . S
C577 C578 1.403 . S
C577 H598 0.934 . S
C578 C573 1.413 . S
C578 C577 1.403 . S
C578 H599 0.930 . S
C579 O590 1.275 . S
C579 O591 1.256 . S
O580 Ho560 2.322 . S
O580 C562 1.259 . S
O581 Ho561 2.346 . S
O581 C562 1.268 . S
O582 Ho560 2.378 . S
O582 C563 1.215 . S
O583 Ho560 2.524 . S
O583 C563 1.289 . S
O584 Ho560 2.381 . S
O584 C570 1.275 . S
O585 Ho560 2.669 . S
O585 Ho561 2.305 . S
O585 C570 1.256 . S
O586 Ho561 2.322 . S
O586 C571 1.259 . S
O587 Ho560 2.346 . S
O587 C571 1.268 . S
O588 Ho561 2.378 . S
O588 C572 1.215 . S
O589 Ho561 2.524 . S
O589 C572 1.289 . S
O590 Ho561 2.381 . S
O590 C579 1.275 . S
O591 Ho560 2.305 . S
O591 Ho561 2.669 . S
O591 C579 1.256 . S
H592 C565 0.930 . S
H593 C566 0.931 . S
H594 C568 0.934 . S
H595 C569 0.930 . S
H596 C574 0.930 . S
H597 C575 0.931 . S
H598 C577 0.934 . S
H599 C578 0.930 . S
Ho600 C603 2.811 . S
Ho600 O620 2.322 . S
Ho600 O622 2.378 . S
Ho600 O623 2.524 . S
Ho600 O624 2.381 . S
Ho600 O625 2.669 . S
Ho600 O627 2.346 . S
Ho600 O631 2.305 . S
Ho601 C612 2.811 . S
Ho601 O621 2.346 . S
Ho601 O625 2.305 . S
Ho601 O626 2.322 . S
Ho601 O628 2.378 . S
Ho601 O629 2.524 . S
Ho601 O630 2.381 . S
Ho601 O631 2.669 . S
C602 O620 1.259 . S
C602 O621 1.268 . S
C603 Ho600 2.811 . S
C603 C604 1.488 . S
C603 O622 1.215 . S
C603 O623 1.289 . S
C604 C603 1.488 . S
C604 C605 1.348 . S
C604 C609 1.413 . S
C605 C604 1.348 . S
C605 C606 1.442 . S
C605 H632 0.930 . S
C606 C605 1.442 . S
C606 C607 1.381 . S
C606 H633 0.931 . S
C607 C606 1.381 . S
C607 C608 1.321 . S
C608 C607 1.321 . S
C608 C609 1.403 . S
C608 H634 0.934 . S
C609 C604 1.413 . S
C609 C608 1.403 . S
C609 H635 0.930 . S
C610 O624 1.275 . S
C610 O625 1.256 . S
C611 O626 1.259 . S
C611 O627 1.268 . S
C612 Ho601 2.811 . S
C612 C613 1.488 . S
C612 O628 1.215 . S
C612 O629 1.289 . S
C613 C612 1.488 . S
C613 C614 1.348 . S
C613 C618 1.413 . S
C614 C613 1.348 . S
C614 C615 1.442 . S
C614 H636 0.930 . S
C615 C614 1.442 . S
C615 C616 1.381 . S
C615 H637 0.931 . S
C616 C615 1.381 . S
C616 C617 1.321 . S
C617 C616 1.321 . S
C617 C618 1.403 . S
C617 H638 0.934 . S
C618 C613 1.413 . S
C618 C617 1.403 . S
C618 H639 0.930 . S
C619 O630 1.275 . S
C619 O631 1.256 . S
O620 Ho600 2.322 . S
O620 C602 1.259 . S
O621 Ho601 2.346 . S
O621 C602 1.268 . S
O622 Ho600 2.378 . S
O622 C603 1.215 . S
O623 Ho600 2.524 . S
O623 C603 1.289 . S
O624 Ho600 2.381 . S
O624 C610 1.275 . S
O625 Ho600 2.669 . S
O625 Ho601 2.305 . S
O625 C610 1.256 . S
O626 Ho601 2.322 . S
O626 C611 1.259 . S
O627 Ho600 2.346 . S
O627 C611 1.268 . S
O628 Ho601 2.378 . S
O628 C612 1.215 . S
O629 Ho601 2.524 . S
O629 C612 1.289 . S
O630 Ho601 2.381 . S
O630 C619 1.275 . S
O631 Ho600 2.305 . S
O631 Ho601 2.669 . S
O631 C619 1.256 . S
H632 C605 0.930 . S
H633 C606 0.931 . S
H634 C608 0.934 . S
H635 C609 0.930 . S
H636 C614 0.930 . S
H637 C615 0.931 . S
H638 C617 0.934 . S
H639 C618 0.930 . S
H640 C646 0.930 . S
H641 C649 0.930 . S
H642 C650 0.930 . S
H643 C651 0.930 . S
H644 C654 0.930 . S
H645 C655 0.930 1_545 S
C646 H640 0.930 . S
C646 C647 1.355 . S
C646 C648 1.415 . S
C647 C646 1.355 . S
C647 C649 1.419 . S
C648 C646 1.415 . S
C648 C653 1.425 . S
C648 C655 1.409 . S
C649 H641 0.930 . S
C649 C647 1.419 . S
C649 C650 1.362 . S
C650 H642 0.930 . S
C650 C649 1.362 . S
C650 C653 1.409 . S
C651 H643 0.930 . S
C651 C652 1.355 1_565 S
C651 C653 1.415 . S
C652 C651 1.355 1_545 S
C652 C654 1.419 . S
C653 C648 1.425 . S
C653 C650 1.409 . S
C653 C651 1.415 . S
C654 H644 0.930 . S
C654 C652 1.419 . S
C654 C655 1.362 1_545 S
C655 H645 0.930 1_565 S
C655 C648 1.409 . S
C655 C654 1.362 1_565 S
H656 C662 0.930 . S
H657 C665 0.930 . S
H658 C666 0.930 . S
H659 C667 0.930 . S
H660 C670 0.930 . S
H661 C671 0.930 . S
C662 H656 0.930 . S
C662 C663 1.355 . S
C662 C664 1.415 . S
C663 C662 1.355 . S
C663 C665 1.419 . S
C664 C662 1.415 . S
C664 C669 1.425 . S
C664 C671 1.409 . S
C665 H657 0.930 . S
C665 C663 1.419 . S
C665 C666 1.362 . S
C666 H658 0.930 . S
C666 C665 1.362 . S
C666 C669 1.409 . S
C667 H659 0.930 . S
C667 C668 1.355 . S
C667 C669 1.415 1_455 S
C668 C667 1.355 . S
C668 C670 1.419 1_455 S
C669 C664 1.425 . S
C669 C666 1.409 . S
C669 C667 1.415 1_655 S
C670 H660 0.930 . S
C670 C668 1.419 1_655 S
C670 C671 1.362 . S
C671 H661 0.930 . S
C671 C664 1.409 . S
C671 C670 1.362 . S
H672 C678 0.930 . S
H673 C681 0.930 . S
H674 C682 0.930 . S
H675 C683 0.930 . S
H676 C686 0.930 . S
H677 C687 0.930 . S
C678 H672 0.930 . S
C678 C679 1.355 . S
C678 C680 1.415 1_565 S
C679 C678 1.355 . S
C679 C681 1.419 . S
C680 C678 1.415 1_545 S
C680 C685 1.425 . S
C680 C687 1.409 . S
C681 H673 0.930 . S
C681 C679 1.419 . S
C681 C682 1.362 1_565 S
C682 H674 0.930 . S
C682 C681 1.362 1_545 S
C682 C685 1.409 . S
C683 H675 0.930 . S
C683 C684 1.355 . S
C683 C685 1.415 . S
C684 C683 1.355 . S
C684 C686 1.419 . S
C685 C680 1.425 . S
C685 C682 1.409 . S
C685 C683 1.415 . S
C686 H676 0.930 . S
C686 C684 1.419 . S
C686 C687 1.362 . S
C687 H677 0.930 . S
C687 C680 1.409 . S
C687 C686 1.362 . S
H688 C694 0.930 . S
H689 C697 0.930 . S
H690 C698 0.930 . S
H691 C699 0.930 . S
H692 C702 0.930 . S
H693 C703 0.930 . S
C694 H688 0.930 . S
C694 C695 1.355 1_455 S
C694 C696 1.415 . S
C695 C694 1.355 1_655 S
C695 C697 1.419 . S
C696 C694 1.415 . S
C696 C701 1.425 . S
C696 C703 1.409 . S
C697 H689 0.930 . S
C697 C695 1.419 . S
C697 C698 1.362 . S
C698 H690 0.930 . S
C698 C697 1.362 . S
C698 C701 1.409 1_655 S
C699 H691 0.930 . S
C699 C700 1.355 . S
C699 C701 1.415 . S
C700 C699 1.355 . S
C700 C702 1.419 . S
C701 C696 1.425 . S
C701 C698 1.409 1_455 S
C701 C699 1.415 . S
C702 H692 0.930 . S
C702 C700 1.419 . S
C702 C703 1.362 . S
C703 H693 0.930 . S
C703 C696 1.409 . S
C703 C702 1.362 . S
H704 C710 0.930 . S
H705 C713 0.930 . S
H706 C714 0.930 . S
H707 C715 0.930 . S
H708 C718 0.930 . S
H709 C719 0.930 . S
C710 H704 0.930 . S
C710 C711 1.355 . S
C710 C712 1.415 . S
C711 C710 1.355 . S
C711 C713 1.419 . S
C712 C710 1.415 . S
C712 C717 1.425 . S
C712 C719 1.409 . S
C713 H705 0.930 . S
C713 C711 1.419 . S
C713 C714 1.362 . S
C714 H706 0.930 . S
C714 C713 1.362 . S
C714 C717 1.409 . S
C715 H707 0.930 . S
C715 C716 1.355 1_554 S
C715 C717 1.415 . S
C716 C715 1.355 1_556 S
C716 C718 1.419 . S
C717 C712 1.425 . S
C717 C714 1.409 . S
C717 C715 1.415 . S
C718 H708 0.930 . S
C718 C716 1.419 . S
C718 C719 1.362 1_556 S
C719 H709 0.930 . S
C719 C712 1.409 . S
C719 C718 1.362 1_554 S
H720 C726 0.930 . S
H721 C729 0.930 . S
H722 C730 0.930 . S
H723 C731 0.930 . S
H724 C734 0.930 . S
H725 C735 0.930 . S
C726 H720 0.930 . S
C726 C727 1.355 1_556 S
C726 C728 1.415 . S
C727 C726 1.355 1_554 S
C727 C729 1.419 . S
C728 C726 1.415 . S
C728 C733 1.425 . S
C728 C735 1.409 . S
C729 H721 0.930 . S
C729 C727 1.419 . S
C729 C730 1.362 1_554 S
C730 H722 0.930 . S
C730 C729 1.362 1_556 S
C730 C733 1.409 . S
C731 H723 0.930 . S
C731 C732 1.355 . S
C731 C733 1.415 . S
C732 C731 1.355 . S
C732 C734 1.419 . S
C733 C728 1.425 . S
C733 C730 1.409 . S
C733 C731 1.415 . S
C734 H724 0.930 . S
C734 C732 1.419 . S
C734 C735 1.362 . S
C735 H725 0.930 . S
C735 C728 1.409 . S
C735 C734 1.362 . S
H736 C742 0.930 . S
H737 C745 0.930 . S
H738 C746 0.930 . S
H739 C747 0.930 . S
H740 C750 0.930 . S
H741 C751 0.930 . S
C742 H736 0.930 . S
C742 C743 1.355 . S
C742 C744 1.415 . S
C743 C742 1.355 . S
C743 C745 1.419 . S
C744 C742 1.415 . S
C744 C749 1.425 . S
C744 C751 1.409 . S
C745 H737 0.930 . S
C745 C743 1.419 . S
C745 C746 1.362 . S
C746 H738 0.930 . S
C746 C745 1.362 . S
C746 C749 1.409 . S
C747 H739 0.930 . S
C747 C748 1.355 . S
C747 C749 1.415 1_556 S
C748 C747 1.355 . S
C748 C750 1.419 1_556 S
C749 C744 1.425 . S
C749 C746 1.409 . S
C749 C747 1.415 1_554 S
C750 H740 0.930 . S
C750 C748 1.419 1_554 S
C750 C751 1.362 . S
C751 H741 0.930 . S
C751 C744 1.409 . S
C751 C750 1.362 . S
H752 C758 0.930 . S
H753 C761 0.930 . S
H754 C762 0.930 . S
H755 C763 0.930 . S
H756 C766 0.930 . S
H757 C767 0.930 . S
C758 H752 0.930 . S
C758 C759 1.355 . S
C758 C760 1.415 1_554 S
C759 C758 1.355 . S
C759 C761 1.419 1_554 S
C760 C758 1.415 1_556 S
C760 C765 1.425 . S
C760 C767 1.409 1_556 S
C761 H753 0.930 . S
C761 C759 1.419 1_556 S
C761 C762 1.362 . S
C762 H754 0.930 . S
C762 C761 1.362 . S
C762 C765 1.409 . S
C763 H755 0.930 . S
C763 C764 1.355 . S
C763 C765 1.415 . S
C764 C763 1.355 . S
C764 C766 1.419 . S
C765 C760 1.425 . S
C765 C762 1.409 . S
C765 C763 1.415 . S
C766 H756 0.930 . S
C766 C764 1.419 . S
C766 C767 1.362 1_556 S
C767 H757 0.930 . S
C767 C760 1.409 1_554 S
C767 C766 1.362 1_554 S
H768 C774 0.930 . S
H769 C777 0.930 . S
H770 C778 0.930 . S
H771 C779 0.930 . S
H772 C782 0.930 . S
H773 C783 0.930 . S
C774 H768 0.930 . S
C774 C775 1.355 . S
C774 C776 1.415 . S
C775 C774 1.355 . S
C775 C777 1.419 . S
C776 C774 1.415 . S
C776 C781 1.425 . S
C776 C783 1.409 . S
C777 H769 0.930 . S
C777 C775 1.419 . S
C777 C778 1.362 . S
C778 H770 0.930 . S
C778 C777 1.362 . S
C778 C781 1.409 . S
C779 H771 0.930 . S
C779 C780 1.355 . S
C779 C781 1.415 . S
C780 C779 1.355 . S
C780 C782 1.419 . S
C781 C776 1.425 . S
C781 C778 1.409 . S
C781 C779 1.415 . S
C782 H772 0.930 . S
C782 C780 1.419 . S
C782 C783 1.362 . S
C783 H773 0.930 . S
C783 C776 1.409 . S
C783 C782 1.362 . S
H784 C790 0.930 . S
H785 C793 0.930 . S
H786 C794 0.930 . S
H787 C795 0.930 . S
H788 C798 0.930 . S
H789 C799 0.930 . S
C790 H784 0.930 . S
C790 C791 1.355 . S
C790 C792 1.415 . S
C791 C790 1.355 . S
C791 C793 1.419 . S
C792 C790 1.415 . S
C792 C797 1.425 . S
C792 C799 1.409 . S
C793 H785 0.930 . S
C793 C791 1.419 . S
C793 C794 1.362 . S
C794 H786 0.930 . S
C794 C793 1.362 . S
C794 C797 1.409 . S
C795 H787 0.930 . S
C795 C796 1.355 . S
C795 C797 1.415 . S
C796 C795 1.355 . S
C796 C798 1.419 . S
C797 C792 1.425 . S
C797 C794 1.409 . S
C797 C795 1.415 . S
C798 H788 0.930 . S
C798 C796 1.419 . S
C798 C799 1.362 . S
C799 H789 0.930 . S
C799 C792 1.409 . S
C799 C798 1.362 . S
H800 C806 0.930 . S
H801 C809 0.930 . S
H802 C810 0.930 . S
H803 C811 0.930 . S
H804 C814 0.930 . S
H805 C815 0.930 . S
C806 H800 0.930 . S
C806 C807 1.355 . S
C806 C808 1.415 . S
C807 C806 1.355 . S
C807 C809 1.419 . S
C808 C806 1.415 . S
C808 C813 1.425 . S
C808 C815 1.409 . S
C809 H801 0.930 . S
C809 C807 1.419 . S
C809 C810 1.362 . S
C810 H802 0.930 . S
C810 C809 1.362 . S
C810 C813 1.409 . S
C811 H803 0.930 . S
C811 C812 1.355 . S
C811 C813 1.415 . S
C812 C811 1.355 . S
C812 C814 1.419 . S
C813 C808 1.425 . S
C813 C810 1.409 . S
C813 C811 1.415 . S
C814 H804 0.930 . S
C814 C812 1.419 . S
C814 C815 1.362 . S
C815 H805 0.930 . S
C815 C808 1.409 . S
C815 C814 1.362 . S
H816 C822 0.930 . S
H817 C825 0.930 . S
H818 C826 0.930 . S
H819 C827 0.930 . S
H820 C830 0.930 . S
H821 C831 0.930 . S
C822 H816 0.930 . S
C822 C823 1.355 . S
C822 C824 1.415 . S
C823 C822 1.355 . S
C823 C825 1.419 . S
C824 C822 1.415 . S
C824 C829 1.425 . S
C824 C831 1.409 . S
C825 H817 0.930 . S
C825 C823 1.419 . S
C825 C826 1.362 . S
C826 H818 0.930 . S
C826 C825 1.362 . S
C826 C829 1.409 . S
C827 H819 0.930 . S
C827 C828 1.355 . S
C827 C829 1.415 . S
C828 C827 1.355 . S
C828 C830 1.419 . S
C829 C824 1.425 . S
C829 C826 1.409 . S
C829 C827 1.415 . S
C830 H820 0.930 . S
C830 C828 1.419 . S
C830 C831 1.362 . S
C831 H821 0.930 . S
C831 C824 1.409 . S
C831 C830 1.362 . S
H832 C838 0.930 . S
H833 C841 0.930 . S
H834 C842 0.930 . S
H835 C843 0.930 . S
H836 C846 0.930 . S
H837 C847 0.930 . S
C838 H832 0.930 . S
C838 C839 1.355 . S
C838 C840 1.415 1_565 S
C839 C838 1.355 . S
C839 C841 1.419 . S
C840 C838 1.415 1_545 S
C840 C845 1.425 . S
C840 C847 1.409 . S
C841 H833 0.930 . S
C841 C839 1.419 . S
C841 C842 1.362 1_565 S
C842 H834 0.930 . S
C842 C841 1.362 1_545 S
C842 C845 1.409 . S
C843 H835 0.930 . S
C843 C844 1.355 . S
C843 C845 1.415 . S
C844 C843 1.355 . S
C844 C846 1.419 . S
C845 C840 1.425 . S
C845 C842 1.409 . S
C845 C843 1.415 . S
C846 H836 0.930 . S
C846 C844 1.419 . S
C846 C847 1.362 . S
C847 H837 0.930 . S
C847 C840 1.409 . S
C847 C846 1.362 . S
H848 C854 0.930 . S
H849 C857 0.930 . S
H850 C858 0.930 . S
H851 C859 0.930 . S
H852 C862 0.930 . S
H853 C863 0.930 . S
C854 H848 0.930 . S
C854 C855 1.355 . S
C854 C856 1.415 . S
C855 C854 1.355 . S
C855 C857 1.419 . S
C856 C854 1.415 . S
C856 C861 1.425 . S
C856 C863 1.409 . S
C857 H849 0.930 . S
C857 C855 1.419 . S
C857 C858 1.362 . S
C858 H850 0.930 . S
C858 C857 1.362 . S
C858 C861 1.409 . S
C859 H851 0.930 . S
C859 C860 1.355 . S
C859 C861 1.415 1_655 S
C860 C859 1.355 . S
C860 C862 1.419 1_655 S
C861 C856 1.425 . S
C861 C858 1.409 . S
C861 C859 1.415 1_455 S
C862 H852 0.930 . S
C862 C860 1.419 1_455 S
C862 C863 1.362 . S
C863 H853 0.930 . S
C863 C856 1.409 . S
C863 C862 1.362 . S
H864 C870 0.930 . S
H865 C873 0.930 . S
H866 C874 0.930 . S
H867 C875 0.930 . S
H868 C878 0.930 . S
H869 C879 0.930 . S
C870 H864 0.930 . S
C870 C871 1.355 . S
C870 C872 1.415 . S
C871 C870 1.355 . S
C871 C873 1.419 . S
C872 C870 1.415 . S
C872 C877 1.425 . S
C872 C879 1.409 . S
C873 H865 0.930 . S
C873 C871 1.419 . S
C873 C874 1.362 . S
C874 H866 0.930 . S
C874 C873 1.362 . S
C874 C877 1.409 . S
C875 H867 0.930 . S
C875 C876 1.355 . S
C875 C877 1.415 1_545 S
C876 C875 1.355 . S
C876 C878 1.419 . S
C877 C872 1.425 . S
C877 C874 1.409 . S
C877 C875 1.415 1_565 S
C878 H868 0.930 . S
C878 C876 1.419 . S
C878 C879 1.362 1_545 S
C879 H869 0.930 . S
C879 C872 1.409 . S
C879 C878 1.362 1_565 S
H880 C886 0.930 . S
H881 C889 0.930 . S
H882 C890 0.930 . S
H883 C891 0.930 . S
H884 C894 0.930 . S
H885 C895 0.930 . S
C886 H880 0.930 . S
C886 C887 1.355 1_655 S
C886 C888 1.415 . S
C887 C886 1.355 1_455 S
C887 C889 1.419 . S
C888 C886 1.415 . S
C888 C893 1.425 . S
C888 C895 1.409 . S
C889 H881 0.930 . S
C889 C887 1.419 . S
C889 C890 1.362 1_455 S
C890 H882 0.930 . S
C890 C889 1.362 1_655 S
C890 C893 1.409 . S
C891 H883 0.930 . S
C891 C892 1.355 . S
C891 C893 1.415 . S
C892 C891 1.355 . S
C892 C894 1.419 . S
C893 C888 1.425 . S
C893 C890 1.409 . S
C893 C891 1.415 . S
C894 H884 0.930 . S
C894 C892 1.419 . S
C894 C895 1.362 . S
C895 H885 0.930 . S
C895 C888 1.409 . S
C895 C894 1.362 . S
H896 C902 0.930 . S
H897 C905 0.930 . S
H898 C906 0.930 . S
H899 C907 0.930 . S
H900 C910 0.930 . S
H901 C911 0.930 . S
C902 H896 0.930 . S
C902 C903 1.355 . S
C902 C904 1.415 . S
C903 C902 1.355 . S
C903 C905 1.419 . S
C904 C902 1.415 . S
C904 C909 1.425 . S
C904 C911 1.409 . S
C905 H897 0.930 . S
C905 C903 1.419 . S
C905 C906 1.362 . S
C906 H898 0.930 . S
C906 C905 1.362 . S
C906 C909 1.409 . S
C907 H899 0.930 . S
C907 C908 1.355 . S
C907 C909 1.415 . S
C908 C907 1.355 . S
C908 C910 1.419 . S
C909 C904 1.425 . S
C909 C906 1.409 . S
C909 C907 1.415 . S
C910 H900 0.930 . S
C910 C908 1.419 . S
C910 C911 1.362 . S
C911 H901 0.930 . S
C911 C904 1.409 . S
C911 C910 1.362 . S
H912 C918 0.930 . S
H913 C921 0.930 . S
H914 C922 0.930 . S
H915 C923 0.930 . S
H916 C926 0.930 . S
H917 C927 0.930 . S
C918 H912 0.930 . S
C918 C919 1.355 . S
C918 C920 1.415 . S
C919 C918 1.355 . S
C919 C921 1.419 . S
C920 C918 1.415 . S
C920 C925 1.425 . S
C920 C927 1.409 . S
C921 H913 0.930 . S
C921 C919 1.419 . S
C921 C922 1.362 . S
C922 H914 0.930 . S
C922 C921 1.362 . S
C922 C925 1.409 . S
C923 H915 0.930 . S
C923 C924 1.355 . S
C923 C925 1.415 . S
C924 C923 1.355 . S
C924 C926 1.419 . S
C925 C920 1.425 . S
C925 C922 1.409 . S
C925 C923 1.415 . S
C926 H916 0.930 . S
C926 C924 1.419 . S
C926 C927 1.362 . S
C927 H917 0.930 . S
C927 C920 1.409 . S
C927 C926 1.362 . S
H928 C934 0.930 . S
H929 C937 0.930 . S
H930 C938 0.930 . S
H931 C939 0.930 . S
H932 C942 0.930 . S
H933 C943 0.930 . S
C934 H928 0.930 . S
C934 C935 1.355 . S
C934 C936 1.415 . S
C935 C934 1.355 . S
C935 C937 1.419 . S
C936 C934 1.415 . S
C936 C941 1.425 . S
C936 C943 1.409 . S
C937 H929 0.930 . S
C937 C935 1.419 . S
C937 C938 1.362 . S
C938 H930 0.930 . S
C938 C937 1.362 . S
C938 C941 1.409 . S
C939 H931 0.930 . S
C939 C940 1.355 . S
C939 C941 1.415 . S
C940 C939 1.355 . S
C940 C942 1.419 . S
C941 C936 1.425 . S
C941 C938 1.409 . S
C941 C939 1.415 . S
C942 H932 0.930 . S
C942 C940 1.419 . S
C942 C943 1.362 . S
C943 H933 0.930 . S
C943 C936 1.409 . S
C943 C942 1.362 . S
H944 C950 0.930 . S
H945 C953 0.930 . S
H946 C954 0.930 . S
H947 C955 0.930 . S
H948 C958 0.930 . S
H949 C959 0.930 . S
C950 H944 0.930 . S
C950 C951 1.355 . S
C950 C952 1.415 . S
C951 C950 1.355 . S
C951 C953 1.419 . S
C952 C950 1.415 . S
C952 C957 1.425 . S
C952 C959 1.409 . S
C953 H945 0.930 . S
C953 C951 1.419 . S
C953 C954 1.362 . S
C954 H946 0.930 . S
C954 C953 1.362 . S
C954 C957 1.409 . S
C955 H947 0.930 . S
C955 C956 1.355 . S
C955 C957 1.415 . S
C956 C955 1.355 . S
C956 C958 1.419 . S
C957 C952 1.425 . S
C957 C954 1.409 . S
C957 C955 1.415 . S
C958 H948 0.930 . S
C958 C956 1.419 . S
C958 C959 1.362 . S
C959 H949 0.930 . S
C959 C952 1.409 . S
C959 C958 1.362 . S
H960 C966 0.930 . S
H961 C969 0.930 . S
H962 C970 0.930 . S
H963 C971 0.930 . S
H964 C974 0.930 . S
H965 C975 0.930 . S
C966 H960 0.930 . S
C966 C967 1.355 . S
C966 C968 1.415 . S
C967 C966 1.355 . S
C967 C969 1.419 . S
C968 C966 1.415 . S
C968 C973 1.425 . S
C968 C975 1.409 . S
C969 H961 0.930 . S
C969 C967 1.419 . S
C969 C970 1.362 . S
C970 H962 0.930 . S
C970 C969 1.362 . S
C970 C973 1.409 . S
C971 H963 0.930 . S
C971 C972 1.355 . S
C971 C973 1.415 . S
C972 C971 1.355 . S
C972 C974 1.419 . S
C973 C968 1.425 . S
C973 C970 1.409 . S
C973 C971 1.415 . S
C974 H964 0.930 . S
C974 C972 1.419 . S
C974 C975 1.362 . S
C975 H965 0.930 . S
C975 C968 1.409 . S
C975 C974 1.362 . S
H976 C982 0.930 . S
H977 C985 0.930 . S
H978 C986 0.930 . S
H979 C987 0.930 . S
H980 C990 0.930 . S
H981 C991 0.930 . S
C982 H976 0.930 . S
C982 C983 1.355 . S
C982 C984 1.415 . S
C983 C982 1.355 . S
C983 C985 1.419 . S
C984 C982 1.415 . S
C984 C989 1.425 . S
C984 C991 1.409 . S
C985 H977 0.930 . S
C985 C983 1.419 . S
C985 C986 1.362 . S
C986 H978 0.930 . S
C986 C985 1.362 . S
C986 C989 1.409 . S
C987 H979 0.930 . S
C987 C988 1.355 . S
C987 C989 1.415 . S
C988 C987 1.355 . S
C988 C990 1.419 . S
C989 C984 1.425 . S
C989 C986 1.409 . S
C989 C987 1.415 . S
C990 H980 0.930 . S
C990 C988 1.419 . S
C990 C991 1.362 . S
C991 H981 0.930 . S
C991 C984 1.409 . S
C991 C990 1.362 . S
H992 C998 0.930 . S
H993 C1001 0.930 . S
H994 C1002 0.930 . S
H995 C1003 0.930 . S
H996 C1006 0.930 . S
H997 C1007 0.930 . S
C998 H992 0.930 . S
C998 C999 1.355 . S
C998 C1000 1.415 . S
C999 C998 1.355 . S
C999 C1001 1.419 . S
C1000 C998 1.415 . S
C1000 C1005 1.425 . S
C1000 C1007 1.409 . S
C1001 H993 0.930 . S
C1001 C999 1.419 . S
C1001 C1002 1.362 . S
C1002 H994 0.930 . S
C1002 C1001 1.362 . S
C1002 C1005 1.409 . S
C1003 H995 0.930 . S
C1003 C1004 1.355 . S
C1003 C1005 1.415 . S
C1004 C1003 1.355 . S
C1004 C1006 1.419 . S
C1005 C1000 1.425 . S
C1005 C1002 1.409 . S
C1005 C1003 1.415 . S
C1006 H996 0.930 . S
C1006 C1004 1.419 . S
C1006 C1007 1.362 . S
C1007 H997 0.930 . S
C1007 C1000 1.409 . S
C1007 C1006 1.362 . S
H1008 C1014 0.930 . S
H1009 C1017 0.930 . S
H1010 C1018 0.930 . S
H1011 C1019 0.930 . S
H1012 C1022 0.930 . S
H1013 C1023 0.930 . S
C1014 H1008 0.930 . S
C1014 C1015 1.355 . S
C1014 C1016 1.415 . S
C1015 C1014 1.355 . S
C1015 C1017 1.419 . S
C1016 C1014 1.415 . S
C1016 C1021 1.425 . S
C1016 C1023 1.409 . S
C1017 H1009 0.930 . S
C1017 C1015 1.419 . S
C1017 C1018 1.362 . S
C1018 H1010 0.930 . S
C1018 C1017 1.362 . S
C1018 C1021 1.409 . S
C1019 H1011 0.930 . S
C1019 C1020 1.355 . S
C1019 C1021 1.415 . S
C1020 C1019 1.355 . S
C1020 C1022 1.419 . S
C1021 C1016 1.425 . S
C1021 C1018 1.409 . S
C1021 C1019 1.415 . S
C1022 H1012 0.930 . S
C1022 C1020 1.419 . S
C1022 C1023 1.362 . S
C1023 H1013 0.930 . S
C1023 C1016 1.409 . S
C1023 C1022 1.362 . S
H1024 C1030 0.930 . S
H1025 C1033 0.930 . S
H1026 C1034 0.930 . S
H1027 C1035 0.930 . S
H1028 C1038 0.930 . S
H1029 C1039 0.930 . S
C1030 H1024 0.930 . S
C1030 C1031 1.355 . S
C1030 C1032 1.415 . S
C1031 C1030 1.355 . S
C1031 C1033 1.419 . S
C1032 C1030 1.415 . S
C1032 C1037 1.425 . S
C1032 C1039 1.409 . S
C1033 H1025 0.930 . S
C1033 C1031 1.419 . S
C1033 C1034 1.362 . S
C1034 H1026 0.930 . S
C1034 C1033 1.362 . S
C1034 C1037 1.409 . S
C1035 H1027 0.930 . S
C1035 C1036 1.355 . S
C1035 C1037 1.415 . S
C1036 C1035 1.355 . S
C1036 C1038 1.419 . S
C1037 C1032 1.425 . S
C1037 C1034 1.409 . S
C1037 C1035 1.415 . S
C1038 H1028 0.930 . S
C1038 C1036 1.419 . S
C1038 C1039 1.362 . S
C1039 H1029 0.930 . S
C1039 C1032 1.409 . S
C1039 C1038 1.362 . S
H1040 C1046 0.930 . S
H1041 C1049 0.930 . S
H1042 C1050 0.930 . S
H1043 C1051 0.930 . S
H1044 C1054 0.930 . S
H1045 C1055 0.930 . S
C1046 H1040 0.930 . S
C1046 C1047 1.355 . S
C1046 C1048 1.415 . S
C1047 C1046 1.355 . S
C1047 C1049 1.419 . S
C1048 C1046 1.415 . S
C1048 C1053 1.425 . S
C1048 C1055 1.409 . S
C1049 H1041 0.930 . S
C1049 C1047 1.419 . S
C1049 C1050 1.362 . S
C1050 H1042 0.930 . S
C1050 C1049 1.362 . S
C1050 C1053 1.409 . S
C1051 H1043 0.930 . S
C1051 C1052 1.355 . S
C1051 C1053 1.415 . S
C1052 C1051 1.355 . S
C1052 C1054 1.419 . S
C1053 C1048 1.425 . S
C1053 C1050 1.409 . S
C1053 C1051 1.415 . S
C1054 H1044 0.930 . S
C1054 C1052 1.419 . S
C1054 C1055 1.362 . S
C1055 H1045 0.930 . S
C1055 C1048 1.409 . S
C1055 C1054 1.362 . S
H1056 C1062 0.930 . S
H1057 C1065 0.930 . S
H1058 C1066 0.930 . S
H1059 C1067 0.930 . S
H1060 C1070 0.930 . S
H1061 C1071 0.930 . S
C1062 H1056 0.930 . S
C1062 C1063 1.355 . S
C1062 C1064 1.415 . S
C1063 C1062 1.355 . S
C1063 C1065 1.419 . S
C1064 C1062 1.415 . S
C1064 C1069 1.425 . S
C1064 C1071 1.409 . S
C1065 H1057 0.930 . S
C1065 C1063 1.419 . S
C1065 C1066 1.362 . S
C1066 H1058 0.930 . S
C1066 C1065 1.362 . S
C1066 C1069 1.409 . S
C1067 H1059 0.930 . S
C1067 C1068 1.355 . S
C1067 C1069 1.415 . S
C1068 C1067 1.355 . S
C1068 C1070 1.419 . S
C1069 C1064 1.425 . S
C1069 C1066 1.409 . S
C1069 C1067 1.415 . S
C1070 H1060 0.930 . S
C1070 C1068 1.419 . S
C1070 C1071 1.362 . S
C1071 H1061 0.930 . S
C1071 C1064 1.409 . S
C1071 C1070 1.362 . S
H1072 C1078 0.930 . S
H1073 C1081 0.930 1_556 S
H1074 C1082 0.930 . S
H1075 C1083 0.930 . S
H1076 C1086 0.930 . S
H1077 C1087 0.930 . S
C1078 H1072 0.930 . S
C1078 C1079 1.355 . S
C1078 C1080 1.415 . S
C1079 C1078 1.355 . S
C1079 C1081 1.419 . S
C1080 C1078 1.415 . S
C1080 C1085 1.425 . S
C1080 C1087 1.409 . S
C1081 H1073 0.930 1_554 S
C1081 C1079 1.419 . S
C1081 C1082 1.362 . S
C1082 H1074 0.930 . S
C1082 C1081 1.362 . S
C1082 C1085 1.409 . S
C1083 H1075 0.930 . S
C1083 C1084 1.355 . S
C1083 C1085 1.415 . S
C1084 C1083 1.355 . S
C1084 C1086 1.419 . S
C1085 C1080 1.425 . S
C1085 C1082 1.409 . S
C1085 C1083 1.415 . S
C1086 H1076 0.930 . S
C1086 C1084 1.419 . S
C1086 C1087 1.362 . S
C1087 H1077 0.930 . S
C1087 C1080 1.409 . S
C1087 C1086 1.362 . S
H1088 C1094 0.930 . S
H1089 C1097 0.930 . S
H1090 C1098 0.930 . S
H1091 C1099 0.930 . S
H1092 C1102 0.930 . S
H1093 C1103 0.930 . S
C1094 H1088 0.930 . S
C1094 C1095 1.355 . S
C1094 C1096 1.415 . S
C1095 C1094 1.355 . S
C1095 C1097 1.419 . S
C1096 C1094 1.415 . S
C1096 C1101 1.425 . S
C1096 C1103 1.409 . S
C1097 H1089 0.930 . S
C1097 C1095 1.419 . S
C1097 C1098 1.362 . S
C1098 H1090 0.930 . S
C1098 C1097 1.362 . S
C1098 C1101 1.409 . S
C1099 H1091 0.930 . S
C1099 C1100 1.355 . S
C1099 C1101 1.415 . S
C1100 C1099 1.355 . S
C1100 C1102 1.419 . S
C1101 C1096 1.425 . S
C1101 C1098 1.409 . S
C1101 C1099 1.415 . S
C1102 H1092 0.930 . S
C1102 C1100 1.419 . S
C1102 C1103 1.362 . S
C1103 H1093 0.930 . S
C1103 C1096 1.409 . S
C1103 C1102 1.362 . S
H1104 C1110 0.930 . S
H1105 C1113 0.930 . S
H1106 C1114 0.930 . S
H1107 C1115 0.930 . S
H1108 C1118 0.930 . S
H1109 C1119 0.930 . S
C1110 H1104 0.930 . S
C1110 C1111 1.355 . S
C1110 C1112 1.415 . S
C1111 C1110 1.355 . S
C1111 C1113 1.419 . S
C1112 C1110 1.415 . S
C1112 C1117 1.425 . S
C1112 C1119 1.409 . S
C1113 H1105 0.930 . S
C1113 C1111 1.419 . S
C1113 C1114 1.362 . S
C1114 H1106 0.930 . S
C1114 C1113 1.362 . S
C1114 C1117 1.409 . S
C1115 H1107 0.930 . S
C1115 C1116 1.355 . S
C1115 C1117 1.415 . S
C1116 C1115 1.355 . S
C1116 C1118 1.419 . S
C1117 C1112 1.425 . S
C1117 C1114 1.409 . S
C1117 C1115 1.415 . S
C1118 H1108 0.930 . S
C1118 C1116 1.419 . S
C1118 C1119 1.362 . S
C1119 H1109 0.930 . S
C1119 C1112 1.409 . S
C1119 C1118 1.362 . S
H1120 C1126 0.930 . S
H1121 C1129 0.930 . S
H1122 C1130 0.930 . S
H1123 C1131 0.930 . S
H1124 C1134 0.930 . S
H1125 C1135 0.930 . S
C1126 H1120 0.930 . S
C1126 C1127 1.355 . S
C1126 C1128 1.415 . S
C1127 C1126 1.355 . S
C1127 C1129 1.419 . S
C1128 C1126 1.415 . S
C1128 C1133 1.425 . S
C1128 C1135 1.409 . S
C1129 H1121 0.930 . S
C1129 C1127 1.419 . S
C1129 C1130 1.362 . S
C1130 H1122 0.930 . S
C1130 C1129 1.362 . S
C1130 C1133 1.409 . S
C1131 H1123 0.930 . S
C1131 C1132 1.355 . S
C1131 C1133 1.415 . S
C1132 C1131 1.355 . S
C1132 C1134 1.419 . S
C1133 C1128 1.425 . S
C1133 C1130 1.409 . S
C1133 C1131 1.415 . S
C1134 H1124 0.930 . S
C1134 C1132 1.419 . S
C1134 C1135 1.362 . S
C1135 H1125 0.930 . S
C1135 C1128 1.409 . S
C1135 C1134 1.362 . S
H1136 C1142 0.930 . S
H1137 C1145 0.930 . S
H1138 C1146 0.930 . S
H1139 C1147 0.930 . S
H1140 C1150 0.930 . S
H1141 C1151 0.930 . S
C1142 H1136 0.930 . S
C1142 C1143 1.355 . S
C1142 C1144 1.415 . S
C1143 C1142 1.355 . S
C1143 C1145 1.419 . S
C1144 C1142 1.415 . S
C1144 C1149 1.425 . S
C1144 C1151 1.409 . S
C1145 H1137 0.930 . S
C1145 C1143 1.419 . S
C1145 C1146 1.362 . S
C1146 H1138 0.930 . S
C1146 C1145 1.362 . S
C1146 C1149 1.409 . S
C1147 H1139 0.930 . S
C1147 C1148 1.355 . S
C1147 C1149 1.415 . S
C1148 C1147 1.355 . S
C1148 C1150 1.419 . S
C1149 C1144 1.425 . S
C1149 C1146 1.409 . S
C1149 C1147 1.415 . S
C1150 H1140 0.930 . S
C1150 C1148 1.419 . S
C1150 C1151 1.362 . S
C1151 H1141 0.930 . S
C1151 C1144 1.409 . S
C1151 C1150 1.362 . S
H1152 C1158 0.930 . S
H1153 C1161 0.930 . S
H1154 C1162 0.930 . S
H1155 C1163 0.930 . S
H1156 C1166 0.930 . S
H1157 C1167 0.930 . S
C1158 H1152 0.930 . S
C1158 C1159 1.355 . S
C1158 C1160 1.415 . S
C1159 C1158 1.355 . S
C1159 C1161 1.419 . S
C1160 C1158 1.415 . S
C1160 C1165 1.425 . S
C1160 C1167 1.409 . S
C1161 H1153 0.930 . S
C1161 C1159 1.419 . S
C1161 C1162 1.362 . S
C1162 H1154 0.930 . S
C1162 C1161 1.362 . S
C1162 C1165 1.409 . S
C1163 H1155 0.930 . S
C1163 C1164 1.355 . S
C1163 C1165 1.415 . S
C1164 C1163 1.355 . S
C1164 C1166 1.419 . S
C1165 C1160 1.425 . S
C1165 C1162 1.409 . S
C1165 C1163 1.415 . S
C1166 H1156 0.930 . S
C1166 C1164 1.419 . S
C1166 C1167 1.362 . S
C1167 H1157 0.930 . S
C1167 C1160 1.409 . S
C1167 C1166 1.362 . S
H1168 C1174 0.930 . S
H1169 C1177 0.930 . S
H1170 C1178 0.930 . S
H1171 C1179 0.930 . S
H1172 C1182 0.930 . S
H1173 C1183 0.930 . S
C1174 H1168 0.930 . S
C1174 C1175 1.355 . S
C1174 C1176 1.415 . S
C1175 C1174 1.355 . S
C1175 C1177 1.419 . S
C1176 C1174 1.415 . S
C1176 C1181 1.425 . S
C1176 C1183 1.409 . S
C1177 H1169 0.930 . S
C1177 C1175 1.419 . S
C1177 C1178 1.362 . S
C1178 H1170 0.930 . S
C1178 C1177 1.362 . S
C1178 C1181 1.409 . S
C1179 H1171 0.930 . S
C1179 C1180 1.355 . S
C1179 C1181 1.415 . S
C1180 C1179 1.355 . S
C1180 C1182 1.419 . S
C1181 C1176 1.425 . S
C1181 C1178 1.409 . S
C1181 C1179 1.415 . S
C1182 H1172 0.930 . S
C1182 C1180 1.419 . S
C1182 C1183 1.362 . S
C1183 H1173 0.930 . S
C1183 C1176 1.409 . S
C1183 C1182 1.362 . S
H1184 C1190 0.930 . S
H1185 C1193 0.930 . S
H1186 C1194 0.930 . S
H1187 C1195 0.930 . S
H1188 C1198 0.930 . S
H1189 C1199 0.930 . S
C1190 H1184 0.930 . S
C1190 C1191 1.355 . S
C1190 C1192 1.415 . S
C1191 C1190 1.355 . S
C1191 C1193 1.419 . S
C1192 C1190 1.415 . S
C1192 C1197 1.425 . S
C1192 C1199 1.409 . S
C1193 H1185 0.930 . S
C1193 C1191 1.419 . S
C1193 C1194 1.362 . S
C1194 H1186 0.930 . S
C1194 C1193 1.362 . S
C1194 C1197 1.409 . S
C1195 H1187 0.930 . S
C1195 C1196 1.355 . S
C1195 C1197 1.415 . S
C1196 C1195 1.355 . S
C1196 C1198 1.419 . S
C1197 C1192 1.425 . S
C1197 C1194 1.409 . S
C1197 C1195 1.415 . S
C1198 H1188 0.930 . S
C1198 C1196 1.419 . S
C1198 C1199 1.362 . S
C1199 H1189 0.930 . S
C1199 C1192 1.409 . S
C1199 C1198 1.362 . S
H1200 C1206 0.930 . S
H1201 C1209 0.930 . S
H1202 C1210 0.930 . S
H1203 C1211 0.930 . S
H1204 C1214 0.930 . S
H1205 C1215 0.930 . S
C1206 H1200 0.930 . S
C1206 C1207 1.355 . S
C1206 C1208 1.415 . S
C1207 C1206 1.355 . S
C1207 C1209 1.419 . S
C1208 C1206 1.415 . S
C1208 C1213 1.425 . S
C1208 C1215 1.409 . S
C1209 H1201 0.930 . S
C1209 C1207 1.419 . S
C1209 C1210 1.362 . S
C1210 H1202 0.930 . S
C1210 C1209 1.362 . S
C1210 C1213 1.409 . S
C1211 H1203 0.930 . S
C1211 C1212 1.355 . S
C1211 C1213 1.415 . S
C1212 C1211 1.355 . S
C1212 C1214 1.419 . S
C1213 C1208 1.425 . S
C1213 C1210 1.409 . S
C1213 C1211 1.415 . S
C1214 H1204 0.930 . S
C1214 C1212 1.419 . S
C1214 C1215 1.362 . S
C1215 H1205 0.930 . S
C1215 C1208 1.409 . S
C1215 C1214 1.362 . S
H1216 C1222 0.930 . S
H1217 C1225 0.930 . S
H1218 C1226 0.930 . S
H1219 C1227 0.930 . S
H1220 C1230 0.930 . S
H1221 C1231 0.930 . S
C1222 H1216 0.930 . S
C1222 C1223 1.355 . S
C1222 C1224 1.415 . S
C1223 C1222 1.355 . S
C1223 C1225 1.419 . S
C1224 C1222 1.415 . S
C1224 C1229 1.425 . S
C1224 C1231 1.409 . S
C1225 H1217 0.930 . S
C1225 C1223 1.419 . S
C1225 C1226 1.362 . S
C1226 H1218 0.930 . S
C1226 C1225 1.362 . S
C1226 C1229 1.409 . S
C1227 H1219 0.930 . S
C1227 C1228 1.355 . S
C1227 C1229 1.415 . S
C1228 C1227 1.355 . S
C1228 C1230 1.419 . S
C1229 C1224 1.425 . S
C1229 C1226 1.409 . S
C1229 C1227 1.415 . S
C1230 H1220 0.930 . S
C1230 C1228 1.419 . S
C1230 C1231 1.362 . S
C1231 H1221 0.930 . S
C1231 C1224 1.409 . S
C1231 C1230 1.362 . S
H1232 C1238 0.930 . S
H1233 C1241 0.930 . S
H1234 C1242 0.930 . S
H1235 C1243 0.930 . S
H1236 C1246 0.930 . S
H1237 C1247 0.930 . S
C1238 H1232 0.930 . S
C1238 C1239 1.355 . S
C1238 C1240 1.415 . S
C1239 C1238 1.355 . S
C1239 C1241 1.419 . S
C1240 C1238 1.415 . S
C1240 C1245 1.425 . S
C1240 C1247 1.409 . S
C1241 H1233 0.930 . S
C1241 C1239 1.419 . S
C1241 C1242 1.362 . S
C1242 H1234 0.930 . S
C1242 C1241 1.362 . S
C1242 C1245 1.409 . S
C1243 H1235 0.930 . S
C1243 C1244 1.355 . S
C1243 C1245 1.415 . S
C1244 C1243 1.355 . S
C1244 C1246 1.419 . S
C1245 C1240 1.425 . S
C1245 C1242 1.409 . S
C1245 C1243 1.415 . S
C1246 H1236 0.930 . S
C1246 C1244 1.419 . S
C1246 C1247 1.362 . S
C1247 H1237 0.930 . S
C1247 C1240 1.409 . S
C1247 C1246 1.362 . S
H1248 C1254 0.930 . S
H1249 C1257 0.930 . S
H1250 C1258 0.930 . S
H1251 C1259 0.930 . S
H1252 C1262 0.930 . S
H1253 C1263 0.930 . S
C1254 H1248 0.930 . S
C1254 C1255 1.355 . S
C1254 C1256 1.415 . S
C1255 C1254 1.355 . S
C1255 C1257 1.419 . S
C1256 C1254 1.415 . S
C1256 C1261 1.425 . S
C1256 C1263 1.409 . S
C1257 H1249 0.930 . S
C1257 C1255 1.419 . S
C1257 C1258 1.362 . S
C1258 H1250 0.930 . S
C1258 C1257 1.362 . S
C1258 C1261 1.409 . S
C1259 H1251 0.930 . S
C1259 C1260 1.355 . S
C1259 C1261 1.415 . S
C1260 C1259 1.355 . S
C1260 C1262 1.419 . S
C1261 C1256 1.425 . S
C1261 C1258 1.409 . S
C1261 C1259 1.415 . S
C1262 H1252 0.930 . S
C1262 C1260 1.419 . S
C1262 C1263 1.362 . S
C1263 H1253 0.930 . S
C1263 C1256 1.409 . S
C1263 C1262 1.362 . S
H1264 C1270 0.930 . S
H1265 C1273 0.930 . S
H1266 C1274 0.930 . S
H1267 C1275 0.930 . S
H1268 C1278 0.930 . S
H1269 C1279 0.930 . S
C1270 H1264 0.930 . S
C1270 C1271 1.355 . S
C1270 C1272 1.415 . S
C1271 C1270 1.355 . S
C1271 C1273 1.419 . S
C1272 C1270 1.415 . S
C1272 C1277 1.425 . S
C1272 C1279 1.409 . S
C1273 H1265 0.930 . S
C1273 C1271 1.419 . S
C1273 C1274 1.362 . S
C1274 H1266 0.930 . S
C1274 C1273 1.362 . S
C1274 C1277 1.409 . S
C1275 H1267 0.930 . S
C1275 C1276 1.355 . S
C1275 C1277 1.415 . S
C1276 C1275 1.355 . S
C1276 C1278 1.419 . S
C1277 C1272 1.425 . S
C1277 C1274 1.409 . S
C1277 C1275 1.415 . S
C1278 H1268 0.930 . S
C1278 C1276 1.419 . S
C1278 C1279 1.362 . S
C1279 H1269 0.930 . S
C1279 C1272 1.409 . S
C1279 C1278 1.362 . S
H1280 C1286 0.930 . S
H1281 C1289 0.930 . S
H1282 C1290 0.930 . S
H1283 C1291 0.930 . S
H1284 C1294 0.930 . S
H1285 C1295 0.930 . S
C1286 H1280 0.930 . S
C1286 C1287 1.355 . S
C1286 C1288 1.415 . S
C1287 C1286 1.355 . S
C1287 C1289 1.419 . S
C1288 C1286 1.415 . S
C1288 C1293 1.425 . S
C1288 C1295 1.409 . S
C1289 H1281 0.930 . S
C1289 C1287 1.419 . S
C1289 C1290 1.362 . S
C1290 H1282 0.930 . S
C1290 C1289 1.362 . S
C1290 C1293 1.409 . S
C1291 H1283 0.930 . S
C1291 C1292 1.355 . S
C1291 C1293 1.415 . S
C1292 C1291 1.355 . S
C1292 C1294 1.419 . S
C1293 C1288 1.425 . S
C1293 C1290 1.409 . S
C1293 C1291 1.415 . S
C1294 H1284 0.930 . S
C1294 C1292 1.419 . S
C1294 C1295 1.362 . S
C1295 H1285 0.930 . S
C1295 C1288 1.409 . S
C1295 C1294 1.362 . S
H1296 C1302 0.930 . S
H1297 C1305 0.930 . S
H1298 C1306 0.930 . S
H1299 C1307 0.930 . S
H1300 C1310 0.930 . S
H1301 C1311 0.930 . S
C1302 H1296 0.930 . S
C1302 C1303 1.355 . S
C1302 C1304 1.415 . S
C1303 C1302 1.355 . S
C1303 C1305 1.419 . S
C1304 C1302 1.415 . S
C1304 C1309 1.425 . S
C1304 C1311 1.409 . S
C1305 H1297 0.930 . S
C1305 C1303 1.419 . S
C1305 C1306 1.362 . S
C1306 H1298 0.930 . S
C1306 C1305 1.362 . S
C1306 C1309 1.409 . S
C1307 H1299 0.930 . S
C1307 C1308 1.355 . S
C1307 C1309 1.415 . S
C1308 C1307 1.355 . S
C1308 C1310 1.419 . S
C1309 C1304 1.425 . S
C1309 C1306 1.409 . S
C1309 C1307 1.415 . S
C1310 H1300 0.930 . S
C1310 C1308 1.419 . S
C1310 C1311 1.362 . S
C1311 H1301 0.930 . S
C1311 C1304 1.409 . S
C1311 C1310 1.362 . S
H1312 C1318 0.930 . S
H1313 C1321 0.930 . S
H1314 C1322 0.930 . S
H1315 C1323 0.930 . S
H1316 C1326 0.930 . S
H1317 C1327 0.930 . S
C1318 H1312 0.930 . S
C1318 C1319 1.355 . S
C1318 C1320 1.415 . S
C1319 C1318 1.355 . S
C1319 C1321 1.419 . S
C1320 C1318 1.415 . S
C1320 C1325 1.425 . S
C1320 C1327 1.409 . S
C1321 H1313 0.930 . S
C1321 C1319 1.419 . S
C1321 C1322 1.362 . S
C1322 H1314 0.930 . S
C1322 C1321 1.362 . S
C1322 C1325 1.409 . S
C1323 H1315 0.930 . S
C1323 C1324 1.355 . S
C1323 C1325 1.415 . S
C1324 C1323 1.355 . S
C1324 C1326 1.419 . S
C1325 C1320 1.425 . S
C1325 C1322 1.409 . S
C1325 C1323 1.415 . S
C1326 H1316 0.930 . S
C1326 C1324 1.419 . S
C1326 C1327 1.362 . S
C1327 H1317 0.930 . S
C1327 C1320 1.409 . S
C1327 C1326 1.362 . S
H1328 C1334 0.930 . S
H1329 C1337 0.930 . S
H1330 C1338 0.930 . S
H1331 C1339 0.930 . S
H1332 C1342 0.930 . S
H1333 C1343 0.930 . S
C1334 H1328 0.930 . S
C1334 C1335 1.355 . S
C1334 C1336 1.415 . S
C1335 C1334 1.355 . S
C1335 C1337 1.419 . S
C1336 C1334 1.415 . S
C1336 C1341 1.425 . S
C1336 C1343 1.409 . S
C1337 H1329 0.930 . S
C1337 C1335 1.419 . S
C1337 C1338 1.362 . S
C1338 H1330 0.930 . S
C1338 C1337 1.362 . S
C1338 C1341 1.409 . S
C1339 H1331 0.930 . S
C1339 C1340 1.355 . S
C1339 C1341 1.415 . S
C1340 C1339 1.355 . S
C1340 C1342 1.419 . S
C1341 C1336 1.425 . S
C1341 C1338 1.409 . S
C1341 C1339 1.415 . S
C1342 H1332 0.930 . S
C1342 C1340 1.419 . S
C1342 C1343 1.362 . S
C1343 H1333 0.930 . S
C1343 C1336 1.409 . S
C1343 C1342 1.362 . S
H1344 C1350 0.930 . S
H1345 C1353 0.930 . S
H1346 C1354 0.930 . S
H1347 C1355 0.930 . S
H1348 C1358 0.930 1_556 S
H1349 C1359 0.930 . S
C1350 H1344 0.930 . S
C1350 C1351 1.355 . S
C1350 C1352 1.415 . S
C1351 C1350 1.355 . S
C1351 C1353 1.419 . S
C1352 C1350 1.415 . S
C1352 C1357 1.425 . S
C1352 C1359 1.409 . S
C1353 H1345 0.930 . S
C1353 C1351 1.419 . S
C1353 C1354 1.362 . S
C1354 H1346 0.930 . S
C1354 C1353 1.362 . S
C1354 C1357 1.409 . S
C1355 H1347 0.930 . S
C1355 C1356 1.355 . S
C1355 C1357 1.415 . S
C1356 C1355 1.355 . S
C1356 C1358 1.419 . S
C1357 C1352 1.425 . S
C1357 C1354 1.409 . S
C1357 C1355 1.415 . S
C1358 H1348 0.930 1_554 S
C1358 C1356 1.419 . S
C1358 C1359 1.362 . S
C1359 H1349 0.930 . S
C1359 C1352 1.409 . S
C1359 C1358 1.362 . S
H1360 C1366 0.930 . S
H1361 C1369 0.930 1_554 S
H1362 C1370 0.930 . S
H1363 C1371 0.930 . S
H1364 C1374 0.930 . S
H1365 C1375 0.930 . S
C1366 H1360 0.930 . S
C1366 C1367 1.355 . S
C1366 C1368 1.415 . S
C1367 C1366 1.355 . S
C1367 C1369 1.419 . S
C1368 C1366 1.415 . S
C1368 C1373 1.425 . S
C1368 C1375 1.409 . S
C1369 H1361 0.930 1_556 S
C1369 C1367 1.419 . S
C1369 C1370 1.362 . S
C1370 H1362 0.930 . S
C1370 C1369 1.362 . S
C1370 C1373 1.409 . S
C1371 H1363 0.930 . S
C1371 C1372 1.355 . S
C1371 C1373 1.415 . S
C1372 C1371 1.355 . S
C1372 C1374 1.419 . S
C1373 C1368 1.425 . S
C1373 C1370 1.409 . S
C1373 C1371 1.415 . S
C1374 H1364 0.930 . S
C1374 C1372 1.419 . S
C1374 C1375 1.362 . S
C1375 H1365 0.930 . S
C1375 C1368 1.409 . S
C1375 C1374 1.362 . S
H1376 C1382 0.930 . S
H1377 C1385 0.930 . S
H1378 C1386 0.930 . S
H1379 C1387 0.930 . S
H1380 C1390 0.930 . S
H1381 C1391 0.930 . S
C1382 H1376 0.930 . S
C1382 C1383 1.355 . S
C1382 C1384 1.415 . S
C1383 C1382 1.355 . S
C1383 C1385 1.419 . S
C1384 C1382 1.415 . S
C1384 C1389 1.425 . S
C1384 C1391 1.409 . S
C1385 H1377 0.930 . S
C1385 C1383 1.419 . S
C1385 C1386 1.362 . S
C1386 H1378 0.930 . S
C1386 C1385 1.362 . S
C1386 C1389 1.409 . S
C1387 H1379 0.930 . S
C1387 C1388 1.355 . S
C1387 C1389 1.415 . S
C1388 C1387 1.355 . S
C1388 C1390 1.419 . S
C1389 C1384 1.425 . S
C1389 C1386 1.409 . S
C1389 C1387 1.415 . S
C1390 H1380 0.930 . S
C1390 C1388 1.419 . S
C1390 C1391 1.362 . S
C1391 H1381 0.930 . S
C1391 C1384 1.409 . S
C1391 C1390 1.362 . S
H1392 C1398 0.930 . S
H1393 C1401 0.930 . S
H1394 C1402 0.930 . S
H1395 C1403 0.930 . S
H1396 C1406 0.930 1_554 S
H1397 C1407 0.930 . S
C1398 H1392 0.930 . S
C1398 C1399 1.355 . S
C1398 C1400 1.415 . S
C1399 C1398 1.355 . S
C1399 C1401 1.419 . S
C1400 C1398 1.415 . S
C1400 C1405 1.425 . S
C1400 C1407 1.409 . S
C1401 H1393 0.930 . S
C1401 C1399 1.419 . S
C1401 C1402 1.362 . S
C1402 H1394 0.930 . S
C1402 C1401 1.362 . S
C1402 C1405 1.409 . S
C1403 H1395 0.930 . S
C1403 C1404 1.355 . S
C1403 C1405 1.415 . S
C1404 C1403 1.355 . S
C1404 C1406 1.419 . S
C1405 C1400 1.425 . S
C1405 C1402 1.409 . S
C1405 C1403 1.415 . S
C1406 H1396 0.930 1_556 S
C1406 C1404 1.419 . S
C1406 C1407 1.362 . S
C1407 H1397 0.930 . S
C1407 C1400 1.409 . S
C1407 C1406 1.362 . S
C647 C451 1.710 . S
C652 C19 1.706 . S
C663 C322 1.715 . S
C668 C50 1.734 . S
C679 C99 1.752 . S
C684 C371 1.741 . S
C695 C130 1.717 . S
C700 C402 1.728 . S
C711 C179 1.746 . S
C716 C211 1.731 . S
C727 C242 1.710 . S
C732 C210 1.706 . S
C743 C259 1.714 . S
C748 C291 1.724 . S
C759 C162 1.750 . S
C764 C290 1.750 . S
C775 C131 1.712 . S
C780 C339 1.706 . S
C791 C370 1.721 . S
C796 C2 1.705 . S
C807 C51 1.700 . S
C812 C419 1.709 . S
C823 C82 1.744 . S
C828 C450 1.734 . S
C839 C499 1.705 . S
C844 C531 1.703 . S
C855 C562 1.704 . S
C860 C530 1.720 . S
C871 C611 1.701 . S
C876 C579 1.713 . S
C887 C610 1.740 . S
C892 C482 1.747 . S
C903 C10 1.193 . S
C908 C170 1.223 . S
C919 C219 1.143 . S
C924 C59 1.164 . S
C935 C90 1.144 . S
C940 C250 1.138 . S
C951 C139 1.208 . S
C956 C299 1.234 . S
C967 C330 1.248 . S
C972 C490 1.236 . S
C983 C539 1.138 . S
C988 C379 1.149 . S
C999 C410 1.191 . S
C1004 C570 1.221 . S
C1015 C459 1.146 . S
C1020 C619 1.169 . S
C1031 C571 2.375 . S
C1036 C11 2.379 1_556 S
C1047 C42 2.362 1_554 S
C1052 C602 2.353 . S
C1063 C91 2.340 1_556 S
C1068 C491 2.340 . S
C1079 C122 2.374 1_554 S
C1084 C522 2.379 . S
C1095 C171 2.348 . S
C1100 C411 2.343 . S
C1111 C202 2.347 . S
C1116 C442 2.342 . S
C1127 C251 2.380 . S
C1132 C331 2.379 . S
C1143 C362 2.348 . S
C1148 C282 2.355 . S
C1159 C7 1.089 . S
C1164 C16 1.089 . S
C1175 C56 1.097 . S
C1180 C47 1.097 . S
C1191 C87 1.114 . S
C1196 C96 1.114 . S
C1207 C127 1.088 . S
C1212 C136 1.088 . S
C1223 C176 1.098 . S
C1228 C167 1.098 . S
C1239 C216 1.121 . S
C1244 C207 1.121 . S
C1255 C247 1.125 . S
C1260 C256 1.125 . S
C1271 C287 1.102 . S
C1276 C296 1.102 . S
C1287 C327 1.111 1_554 S
C1292 C336 1.111 . S
C1303 C367 1.101 . S
C1308 C376 1.101 1_556 S
C1319 C416 1.128 . S
C1324 C407 1.128 1_554 S
C1335 C456 1.099 1_556 S
C1340 C447 1.099 . S
C1351 C487 1.096 . S
C1356 C496 1.096 1_554 S
C1367 C527 1.086 1_556 S
C1372 C536 1.086 . S
C1383 C576 1.126 1_554 S
C1388 C567 1.126 . S
C1399 C616 1.087 . S
C1404 C607 1.087 1_556 S
