# Generated by pormake.
# Topology sml, (6)-cn, num edge types: 1
# Building blocks:
#     Node 0, Type 0, BuildingBlock: FUNLAD_clean_sbu_0, # of connection points: 6
#     Node 1, Type 0, BuildingBlock: FUNLAD_clean_sbu_0, # of connection points: 6
#     Node 2, Type 0, BuildingBlock: FUNLAD_clean_sbu_0, # of connection points: 6
#     Node 3, Type 0, BuildingBlock: FUNLAD_clean_sbu_0, # of connection points: 6
#     Node 4, Type 0, BuildingBlock: FUNLAD_clean_sbu_0, # of connection points: 6
#     Node 5, Type 0, BuildingBlock: FUNLAD_clean_sbu_0, # of connection points: 6
#     Edge 6, Type (0, 0), BuildingBlock: MIFKUJ_clean_linker_0, # of connection points: 2
#     Edge 7, Type (0, 0), BuildingBlock: MIFKUJ_clean_linker_0, # of connection points: 2
#     Edge 8, Type (0, 0), BuildingBlock: MIFKUJ_clean_linker_0, # of connection points: 2
#     Edge 9, Type (0, 0), BuildingBlock: MIFKUJ_clean_linker_0, # of connection points: 2
#     Edge 10, Type (0, 0), BuildingBlock: MIFKUJ_clean_linker_0, # of connection points: 2
#     Edge 11, Type (0, 0), BuildingBlock: MIFKUJ_clean_linker_0, # of connection points: 2
#     Edge 12, Type (0, 0), BuildingBlock: MIFKUJ_clean_linker_0, # of connection points: 2
#     Edge 13, Type (0, 0), BuildingBlock: MIFKUJ_clean_linker_0, # of connection points: 2
#     Edge 14, Type (0, 0), BuildingBlock: MIFKUJ_clean_linker_0, # of connection points: 2
#     Edge 15, Type (0, 0), BuildingBlock: MIFKUJ_clean_linker_0, # of connection points: 2
#     Edge 16, Type (0, 0), BuildingBlock: MIFKUJ_clean_linker_0, # of connection points: 2
#     Edge 17, Type (0, 0), BuildingBlock: MIFKUJ_clean_linker_0, # of connection points: 2
#     Edge 18, Type (0, 0), BuildingBlock: MIFKUJ_clean_linker_0, # of connection points: 2
#     Edge 19, Type (0, 0), BuildingBlock: MIFKUJ_clean_linker_0, # of connection points: 2
#     Edge 20, Type (0, 0), BuildingBlock: MIFKUJ_clean_linker_0, # of connection points: 2
#     Edge 21, Type (0, 0), BuildingBlock: MIFKUJ_clean_linker_0, # of connection points: 2
#     Edge 22, Type (0, 0), BuildingBlock: MIFKUJ_clean_linker_0, # of connection points: 2
#     Edge 23, Type (0, 0), BuildingBlock: MIFKUJ_clean_linker_0, # of connection points: 2
# Relax obj value: 0.365
# Max RMSD: 0.208
# Mean RMSD: 0.208
data_MOF--net-sml--node1-FUNLAD_clean_sbu_0--edge1-MIFKUJ_clean_linker_0
_symmetry_space_group_name_H-M    P1
_symmetry_Int_Tables_number       1
_symmetry_cell_setting            triclinic
loop_
_symmetry_equiv_pos_as_xyz
'x, y, z'
_cell_length_a     59.177442
_cell_length_b     59.279435
_cell_length_c     18.369231
_cell_angle_alpha  90.064006
_cell_angle_beta   89.913244
_cell_angle_gamma 119.97775
loop_
_atom_site_label
_atom_site_type_symbol
_atom_site_fract_x
_atom_site_fract_y
_atom_site_fract_z
_atom_type_partial_charge
C0 C 0.13731 0.38592 0.89916 0.0
N1 N 0.16785 0.34604 0.01283 0.0
C2 C 0.14966 0.32434 0.9774 0.0
C3 C 0.15468 0.30424 0.96073 0.0
C4 C 0.17854 0.30641 0.9814 0.0
C5 C 0.19663 0.32871 0.01953 0.0
C6 C 0.19093 0.3484 0.03441 0.0
Zn7 Zn 0.16216 0.37702 0.02887 0.0
C8 C 0.20819 0.42642 0.97354 0.0
N9 N 0.15216 0.44314 0.05389 0.0
C10 C 0.15583 0.45993 -0.00142 0.0
C11 C 0.14649 0.44748 0.12253 0.0
C12 C 0.1454 0.46991 0.13842 0.0
C13 C 0.14967 0.48775 0.08281 0.0
C14 C 0.15443 0.48244 0.01187 0.0
Zn15 Zn 0.15697 0.41164 0.03749 0.0
O16 O 0.14602 0.37187 0.92484 0.0
C17 C 0.11069 0.36252 0.09219 0.0
O18 O 0.13898 0.40473 0.93637 0.0
H19 H 0.14349 0.43385 0.16553 0.0
H20 H 0.13144 0.32284 0.96069 0.0
H21 H 0.1605 0.45622 0.94454 0.0
O22 O 0.12422 0.35234 0.07219 0.0
O23 O 0.12018 0.38698 0.08578 0.0
H24 H 0.20527 0.36592 0.06168 0.0
O25 O 0.1755 0.41826 0.13827 0.0
O26 O 0.17811 0.38268 0.13301 0.0
O27 O 0.19353 0.43574 -0.01141 0.0
O28 O 0.2001 0.40245 0.98554 0.0
C29 C 0.18232 0.40309 0.1667 0.0
H30 H 0.14017 0.28727 0.93157 0.0
H31 H 0.21542 0.33135 0.03543 0.0
H32 H 0.14169 0.47351 0.1938 0.0
H33 H 0.15803 0.49603 0.96799 0.0
C34 C 0.80925 0.22126 0.45493 0.0
N35 N 0.77962 0.15227 0.33359 0.0
C36 C 0.79657 0.14759 0.37173 0.0
C37 C 0.78999 0.12203 0.38927 0.0
C38 C 0.76578 0.10117 0.36716 0.0
C39 C 0.74943 0.10661 0.32435 0.0
C40 C 0.75664 0.13233 0.30868 0.0
Zn41 Zn 0.78567 0.1893 0.32152 0.0
C42 C 0.73968 0.1922 0.3777 0.0
N43 N 0.79559 0.26574 0.30523 0.0
C44 C 0.81779 0.28788 0.32481 0.0
C45 C 0.77475 0.26672 0.27795 0.0
C46 C 0.77561 0.29046 0.26962 0.0
C47 C 0.79805 0.31365 0.29014 0.0
C48 C 0.81946 0.3122 0.31762 0.0
Zn49 Zn 0.79153 0.22949 0.31632 0.0
O50 O 0.80105 0.1989 0.42688 0.0
C51 C 0.83795 0.22719 0.26234 0.0
O52 O 0.80821 0.2389 0.41866 0.0
H53 H 0.75727 0.24899 0.26254 0.0
H54 H 0.81472 0.16371 0.39125 0.0
H55 H 0.83415 0.28667 0.34642 0.0
O56 O 0.82399 0.20323 0.27928 0.0
O57 O 0.82868 0.24234 0.27019 0.0
H58 H 0.7433 0.13635 0.27897 0.0
O59 O 0.77423 0.21936 0.21413 0.0
O60 O 0.77012 0.18049 0.21631 0.0
O61 O 0.75462 0.21616 0.36383 0.0
O62 O 0.74747 0.17616 0.36433 0.0
C63 C 0.76659 0.19743 0.18433 0.0
H64 H 0.80315 0.11879 0.42272 0.0
H65 H 0.73083 0.09115 0.30481 0.0
H66 H 0.75885 0.2906 0.2465 0.0
H67 H 0.83712 0.32959 0.3343 0.0
C68 C 0.55703 0.71523 0.54049 0.0
N69 N 0.59784 0.78653 0.64975 0.0
C70 C 0.61891 0.79073 0.60934 0.0
C71 C 0.63752 0.81604 0.58817 0.0
C72 C 0.63435 0.83713 0.60889 0.0
C73 C 0.61304 0.83222 0.65331 0.0
C74 C 0.59491 0.80675 0.67264 0.0
Zn75 Zn 0.56725 0.74977 0.66914 0.0
C76 C 0.51731 0.74614 0.61898 0.0
N77 N 0.5007 0.67387 0.6995 0.0
C78 C 0.50046 0.65131 0.68364 0.0
C79 C 0.47935 0.67355 0.72837 0.0
C80 C 0.45657 0.65006 0.74147 0.0
C81 C 0.45551 0.62644 0.72471 0.0
C82 C 0.47794 0.62722 0.69606 0.0
Zn83 Zn 0.5327 0.70983 0.68065 0.0
O84 O 0.57149 0.73795 0.56594 0.0
C85 C 0.58251 0.71313 0.72959 0.0
O86 O 0.53792 0.6984 0.5776 0.0
H87 H 0.4799 0.69161 0.74121 0.0
H88 H 0.62083 0.77439 0.59129 0.0
H89 H 0.51765 0.65199 0.66086 0.0
O90 O 0.59231 0.73689 0.71083 0.0
O91 O 0.558 0.69784 0.7243 0.0
H92 H 0.57795 0.80311 0.70402 0.0
O93 O 0.52796 0.72187 0.78339 0.0
O94 O 0.56251 0.7607 0.7735 0.0
O95 O 0.50818 0.72243 0.63611 0.0
O96 O 0.54153 0.76197 0.62701 0.0
C97 C 0.54298 0.74425 0.80987 0.0
H98 H 0.65359 0.8189 0.55364 0.0
H99 H 0.61006 0.84788 0.67195 0.0
H100 H 0.43998 0.65043 0.76513 0.0
H101 H 0.47795 0.60946 0.68222 0.0
C102 C 0.71732 0.5533 0.14685 0.0
N103 N 0.78979 0.59579 0.04314 0.0
C104 C 0.79366 0.61605 0.08658 0.0
C105 C 0.81885 0.63426 0.10994 0.0
C106 C 0.84017 0.63155 0.08819 0.0
C107 C 0.83558 0.61107 0.04088 0.0
C108 C 0.81023 0.59328 0.01958 0.0
Zn109 Zn 0.75322 0.56559 0.01939 0.0
C110 C 0.7492 0.51495 0.06567 0.0
N111 N 0.67777 0.49971 0.98046 0.0
C112 C 0.65525 0.50034 -0.01066 0.0
C113 C 0.67757 0.47844 0.95185 0.0
C114 C 0.65421 0.45673 0.9309 0.0
C115 C 0.63064 0.45685 0.93826 0.0
C116 C 0.63133 0.47901 0.96842 0.0
Zn117 Zn 0.71348 0.53105 0.00496 0.0
O118 O 0.7402 0.56812 0.12266 0.0
C119 C 0.71688 0.58131 0.96002 0.0
O120 O 0.70072 0.53461 0.10812 0.0
H121 H 0.69563 0.47831 0.94458 0.0
H122 H 0.77715 0.61762 0.10518 0.0
H123 H 0.65584 0.5175 0.01183 0.0
O124 O 0.74061 0.59124 0.97972 0.0
O125 O 0.7019 0.55677 0.96332 0.0
H126 H 0.80686 0.57692 0.98597 0.0
O127 O 0.72684 0.52785 0.90213 0.0
O128 O 0.76534 0.56265 0.91506 0.0
O129 O 0.72555 0.50603 0.04785 0.0
O130 O 0.76513 0.5392 0.05925 0.0
C131 C 0.74935 0.54343 0.87706 0.0
H132 H 0.82145 0.64967 0.14672 0.0
H133 H 0.85141 0.60848 0.02133 0.0
H134 H 0.65469 0.43995 0.90946 0.0
H135 H 0.61369 0.48007 0.97459 0.0
C136 C 0.225 0.80802 0.22644 0.0
N137 N 0.15705 0.7781 0.35128 0.0
C138 C 0.15172 0.79485 0.31461 0.0
C139 C 0.12585 0.78809 0.30013 0.0
C140 C 0.10535 0.76392 0.32394 0.0
C141 C 0.11151 0.74781 0.36525 0.0
C142 C 0.1375 0.75515 0.37767 0.0
Zn143 Zn 0.19437 0.78441 0.35982 0.0
C144 C 0.19704 0.73819 0.30615 0.0
N145 N 0.27123 0.79483 0.37201 0.0
C146 C 0.29309 0.81675 0.34936 0.0
C147 C 0.27262 0.77439 0.40048 0.0
C148 C 0.2965 0.77535 0.40673 0.0
C149 C 0.31939 0.79751 0.3831 0.0
C150 C 0.31756 0.81853 0.3546 0.0
Zn151 Zn 0.23475 0.79049 0.36397 0.0
O152 O 0.20301 0.80011 0.25655 0.0
C153 C 0.23284 0.83707 0.41535 0.0
O154 O 0.24269 0.80594 0.25949 0.0
H155 H 0.2551 0.75715 0.41844 0.0
H156 H 0.16752 0.81299 0.29393 0.0
H157 H 0.29155 0.83278 0.32688 0.0
O158 O 0.20852 0.82264 0.40284 0.0
O159 O 0.24811 0.82805 0.40548 0.0
H160 H 0.142 0.74193 0.40612 0.0
O161 O 0.2261 0.77479 0.46859 0.0
O162 O 0.18645 0.76877 0.46357 0.0
O163 O 0.22092 0.75302 0.32137 0.0
O164 O 0.18109 0.74637 0.3158 0.0
C165 C 0.20382 0.76646 0.4973 0.0
H166 H 0.12206 0.80107 0.26768 0.0
H167 H 0.09639 0.72926 0.38607 0.0
H168 H 0.297 0.75893 0.43075 0.0
H169 H 0.33474 0.83597 0.3357 0.0
C170 C 0.39385 0.13485 0.81437 0.0
N171 N 0.34711 0.16062 0.71513 0.0
C172 C 0.32794 0.14368 0.76075 0.0
C173 C 0.30789 0.14826 0.78235 0.0
C174 C 0.30733 0.1701 0.75529 0.0
C175 C 0.327 0.18691 0.70737 0.0
C176 C 0.34693 0.18196 0.68861 0.0
Zn177 Zn 0.37868 0.15656 0.68976 0.0
C178 C 0.4284 0.20506 0.73027 0.0
N179 N 0.44661 0.1508 0.64465 0.0
C180 C 0.44797 0.12924 0.66255 0.0
C181 C 0.46676 0.17135 0.61035 0.0
C182 C 0.48954 0.17093 0.59382 0.0
C183 C 0.4918 0.1492 0.61298 0.0
C184 C 0.4705 0.12802 0.64712 0.0
Zn185 Zn 0.4143 0.15349 0.66979 0.0
O186 O 0.37764 0.14146 0.79261 0.0
C187 C 0.36477 0.10495 0.63002 0.0
O188 O 0.41278 0.13851 0.77394 0.0
H189 H 0.46527 0.18825 0.59614 0.0
H190 H 0.32845 0.12689 0.78159 0.0
H191 H 0.4317 0.11309 0.6896 0.0
O192 O 0.35432 0.11808 0.65128 0.0
O193 O 0.38949 0.11531 0.631 0.0
H194 H 0.36261 0.1956 0.65406 0.0
O195 O 0.41539 0.1685 0.56634 0.0
O196 O 0.38006 0.17098 0.58475 0.0
O197 O 0.43833 0.19155 0.70884 0.0
O198 O 0.40377 0.1952 0.72895 0.0
C199 C 0.39876 0.1744 0.54377 0.0
H200 H 0.29304 0.13497 0.81978 0.0
H201 H 0.32743 0.20421 0.68652 0.0
H202 H 0.50521 0.18747 0.56608 0.0
H203 H 0.47143 0.11094 0.66323 0.0
H204 H 0.27532 0.17925 0.66969 0.0
H205 H 0.24666 0.19582 0.70787 0.0
H206 H 0.26684 0.19334 0.93231 0.0
H207 H 0.29468 0.17571 0.89414 0.0
H208 H 0.21769 0.18157 0.92457 0.0
H209 H 0.29868 0.24965 0.82836 0.0
H210 H 0.33363 0.27113 0.73691 0.0
H211 H 0.27881 0.27166 0.58501 0.0
H212 H 0.24344 0.24982 0.67525 0.0
H213 H 0.20121 0.28507 0.06524 0.0
H214 H 0.21666 0.25562 0.02596 0.0
H215 H 0.18694 0.25328 0.81014 0.0
H216 H 0.17173 0.28298 0.84885 0.0
H217 H 0.23814 0.2655 0.8103 0.0
H218 H 0.15768 0.20036 0.9167 0.0
H219 H 0.12456 0.1805 0.0135 0.0
H220 H 0.18071 0.17686 0.15339 0.0
H221 H 0.2143 0.19705 0.05777 0.0
C222 C 0.2732 0.18181 0.72722 0.0
C223 C 0.28727 0.17643 0.77906 0.0
C224 C 0.25696 0.19138 0.749 0.0
C225 C 0.2551 0.19646 0.82285 0.0
C226 C 0.26803 0.18968 0.87503 0.0
C227 C 0.28392 0.17963 0.85329 0.0
C228 C 0.24133 0.21056 0.84504 0.0
C229 C 0.22229 0.20001 0.89999 0.0
C230 C 0.24709 0.23451 0.81241 0.0
C231 C 0.26837 0.24786 0.75828 0.0
C232 C 0.29405 0.2542 0.77529 0.0
C233 C 0.31393 0.26644 0.72369 0.0
C234 C 0.30843 0.27269 0.65513 0.0
C235 C 0.28304 0.26677 0.6381 0.0
C236 C 0.26307 0.25446 0.68945 0.0
C237 C 0.19777 0.27807 0.0096 0.0
C238 C 0.18532 0.28636 0.96006 0.0
C239 C 0.20642 0.2611 -0.0126 0.0
C240 C 0.20281 0.25215 0.91524 0.0
C241 C 0.18981 0.25988 0.86615 0.0
C242 C 0.18099 0.27671 0.88845 0.0
C243 C 0.21447 0.23649 0.88962 0.0
C244 C 0.23329 0.24688 0.83427 0.0
C245 C 0.20877 0.21267 0.92273 0.0
C246 C 0.18857 0.20043 0.98023 0.0
C247 C 0.16303 0.19552 0.9683 0.0
C248 C 0.14416 0.18417 0.02293 0.0
C249 C 0.15054 0.17748 0.08961 0.0
C250 C 0.1758 0.18207 0.10173 0.0
C251 C 0.19476 0.19344 0.0473 0.0
H252 H 0.1359 0.16869 0.13183 0.0
H253 H 0.32385 0.28218 0.61525 0.0
H254 H 0.08267 0.30926 0.10572 0.0
H255 H 0.03665 0.2824 0.13961 0.0
H256 H 0.03121 0.35172 0.16969 0.0
H257 H 0.07705 0.37861 0.13703 0.0
H258 H 1.00576 0.31747 0.27536 0.0
H259 H 0.01017 0.31552 0.01293 0.0
H260 H 0.02515 0.30742 0.89554 0.0
H261 H 0.99271 0.22671 0.95098 0.0
H262 H 0.97786 0.23442 0.06923 0.0
H263 H 0.8737 0.27805 0.23562 0.0
H264 H 0.9201 0.29677 0.21028 0.0
H265 H 0.91146 0.22012 0.21235 0.0
H266 H 0.86471 0.20103 0.23813 0.0
H267 H 0.944 0.25293 0.09799 0.0
H268 H 0.9355 0.25482 0.35644 0.0
H269 H 0.9198 0.2637 0.47138 0.0
H270 H 0.95963 0.34538 0.42163 0.0
H271 H 0.97522 0.33695 0.30575 0.0
C272 C 0.07173 0.31878 0.12024 0.0
C273 C 0.08352 0.34608 0.11825 0.0
C274 C 0.0454 0.30339 0.13926 0.0
C275 C 0.03038 0.31503 0.15624 0.0
C276 C 0.04237 0.34229 0.15669 0.0
C277 C 0.06861 0.35764 0.13773 0.0
C278 C 1.00198 0.29906 0.1714 0.0
C279 C 0.99227 0.30346 0.23638 0.0
C280 C 0.98439 0.28029 0.12139 0.0
C281 C 0.99319 0.27561 0.05024 0.0
C282 C 0.00642 0.29609 0.00032 0.0
C283 C 0.01486 0.29157 0.9336 0.0
C284 C 0.00996 0.26659 0.91591 0.0
C285 C 0.99654 0.24606 0.96482 0.0
C286 C 0.9881 0.25049 0.03168 0.0
C287 C 0.88151 0.26506 0.23 0.0
C288 C 0.86548 0.23802 0.23937 0.0
C289 C 0.90809 0.27584 0.21577 0.0
C290 C 0.91925 0.25986 0.21048 0.0
C291 C 0.90319 0.23277 0.21657 0.0
C292 C 0.87652 0.22192 0.23135 0.0
C293 C 0.94786 0.27182 0.20108 0.0
C294 C 0.95757 0.26666 0.13735 0.0
C295 C 0.96548 0.29001 0.25204 0.0
C296 C 0.95637 0.29522 0.3221 0.0
C297 C 0.94076 0.27466 0.36973 0.0
C298 C 0.93189 0.27961 0.4351 0.0
C299 C 0.93867 0.30508 0.45373 0.0
C300 C 0.95438 0.32566 0.4071 0.0
C301 C 0.96326 0.32081 0.3416 0.0
H302 H 0.93179 0.30888 0.50436 0.0
H303 H 0.0165 0.26312 0.86422 0.0
H304 H 0.79379 0.07564 0.38152 0.0
H305 H 0.77792 0.03128 0.42693 0.0
H306 H 0.70108 0.02137 0.45502 0.0
H307 H 0.71688 0.06562 0.41293 0.0
H308 H 0.7142 0.0042 0.57056 0.0
H309 H 0.71747 0.99505 0.30861 0.0
H310 H 0.73926 0.0044 0.18892 0.0
H311 H 0.79111 0.97889 0.26758 0.0
H312 H 0.7698 0.96969 0.38809 0.0
H313 H 0.62125 0.87276 0.56251 0.0
H314 H 0.65022 0.91775 0.52637 0.0
H315 H 0.71686 0.90754 0.55467 0.0
H316 H 0.68785 0.86226 0.59318 0.0
H317 H 0.71728 0.9356 0.42303 0.0
H318 H 0.70842 0.93867 0.68086 0.0
H319 H 0.68452 0.92805 0.79733 0.0
H320 H 0.6417 0.96459 0.72386 0.0
H321 H 0.66505 0.97507 0.60645 0.0
C322 C 0.77356 0.06402 0.39778 0.0
C323 C 0.75656 0.07413 0.39284 0.0
C324 C 0.76447 0.03861 0.42318 0.0
C325 C 0.73824 0.02291 0.44385 0.0
C326 C 0.72138 0.03308 0.43933 0.0
C327 C 0.73041 0.05834 0.41434 0.0
C328 C 0.72793 0.9959 0.47095 0.0
C329 C 0.71487 0.98923 0.53815 0.0
C330 C 0.7295 0.97648 0.4299 0.0
C331 C 0.74228 0.98201 0.35756 0.0
C332 C 0.73367 0.99165 0.30055 0.0
C333 C 0.7459 0.99688 0.23254 0.0
C334 C 0.76662 0.99233 0.22073 0.0
C335 C 0.7751 0.98247 0.27686 0.0
C336 C 0.76295 0.97723 0.345 0.0
C337 C 0.64207 0.88005 0.56189 0.0
C338 C 0.65225 0.86401 0.58223 0.0
C339 C 0.65858 0.90574 0.54066 0.0
C340 C 0.68566 0.91603 0.53883 0.0
C341 C 0.69598 0.89991 0.55601 0.0
C342 C 0.67939 0.87408 0.57784 0.0
C343 C 0.70281 0.94392 0.52105 0.0
C344 C 0.71715 0.95074 0.45598 0.0
C345 C 0.70232 0.96353 0.56375 0.0
C346 C 0.68841 0.95753 0.63466 0.0
C347 C 0.69379 0.94429 0.68934 0.0
C348 C 0.68035 0.93832 0.75556 0.0
C349 C 0.66158 0.94561 0.76795 0.0
C350 C 0.65625 0.95895 0.71419 0.0
C351 C 0.66961 0.96495 0.64782 0.0
H352 H 0.65119 0.94096 0.81926 0.0
H353 H 0.77606 0.99638 0.16803 0.0
H354 H 0.56741 0.66335 0.76972 0.0
H355 H 0.59471 0.6462 0.81324 0.0
H356 H 0.66308 0.7221 0.79066 0.0
H357 H 0.63573 0.73968 0.74737 0.0
H358 H 0.6689 0.68045 0.73367 0.0
H359 H 0.64292 0.70351 0.95557 0.0
H360 H 0.61149 0.7054 0.04006 0.0
H361 H 0.56855 0.62192 0.05198 0.0
H362 H 0.5997 0.61951 0.96729 0.0
H363 H 0.74335 0.63355 0.92737 0.0
H364 H 0.72445 0.66055 0.89172 0.0
H365 H 0.64723 0.59348 0.90594 0.0
H366 H 0.66576 0.56652 0.94117 0.0
H367 H 0.65097 0.63689 0.97453 0.0
H368 H 0.67331 0.61337 0.74505 0.0
H369 H 0.70295 0.6102 0.65647 0.0
H370 H 0.75135 0.69346 0.65604 0.0
H371 H 0.72206 0.69712 0.74514 0.0
C372 C 0.58822 0.67651 0.77425 0.0
C373 C 0.59936 0.70296 0.75571 0.0
C374 C 0.6038 0.66664 0.79918 0.0
C375 C 0.63085 0.68295 0.80578 0.0
C376 C 0.6422 0.70926 0.78609 0.0
C377 C 0.62655 0.71925 0.76162 0.0
C378 C 0.64697 0.67214 0.83343 0.0
C379 C 0.66547 0.67146 0.78698 0.0
C380 C 0.64206 0.66001 0.90243 0.0
C381 C 0.62361 0.66134 0.95484 0.0
C382 C 0.62674 0.68555 0.97606 0.0
C383 C 0.609 0.68672 0.02407 0.0
C384 C 0.58802 0.6638 0.05131 0.0
C385 C 0.58483 0.63966 0.0309 0.0
C386 C 0.60259 0.63838 0.9831 0.0
C387 C 0.72236 0.6246 0.92279 0.0
C388 C 0.70607 0.5979 0.93692 0.0
C389 C 0.71161 0.64002 0.9024 0.0
C390 C 0.68444 0.62898 0.89636 0.0
C391 C 0.66822 0.60239 0.9107 0.0
C392 C 0.6789 0.58699 0.93039 0.0
C393 C 0.67264 0.64484 0.87434 0.0
C394 C 0.65486 0.64638 0.92185 0.0
C395 C 0.67815 0.65765 0.80624 0.0
C396 C 0.69568 0.65551 0.75241 0.0
C397 C 0.6904 0.631 0.72654 0.0
C398 C 0.7071 0.62911 0.67617 0.0
C399 C 0.7291 0.6516 0.65095 0.0
C400 C 0.73434 0.67605 0.67578 0.0
C401 C 0.71768 0.67805 0.72613 0.0
H402 H 0.74202 0.6501 0.61198 0.0
H403 H 0.57424 0.66475 0.0882 0.0
H404 H 0.06927 0.71473 0.28216 0.0
H405 H 0.02469 0.69874 0.24254 0.0
H406 H 0.03452 0.77542 0.26967 0.0
H407 H 0.07932 0.79156 0.31285 0.0
H408 H 0.98657 0.73707 0.31913 0.0
H409 H 0.03609 0.75465 0.1017 0.0
H410 H 0.06855 0.7542 0.01835 0.0
H411 H 0.02415 0.6707 0.00914 0.0
H412 H 0.9916 0.67061 0.09332 0.0
H413 H 0.86486 0.68458 0.11165 0.0
H414 H 0.90999 0.71311 0.15233 0.0
H415 H 0.92101 0.64667 0.16765 0.0
H416 H 0.8761 0.61811 0.12978 0.0
H417 H 0.95972 0.68854 0.08559 0.0
H418 H 0.91378 0.67187 0.31655 0.0
H419 H 0.88158 0.67271 0.40021 0.0
H420 H 0.91948 0.75592 0.3804 0.0
H421 H 0.9517 0.75551 0.29571 0.0
C422 C 0.06195 0.72821 0.28112 0.0
C423 C 0.07792 0.75445 0.30115 0.0
C424 C 0.03648 0.71907 0.2575 0.0
C425 C 0.0264 0.73597 0.252 0.0
C426 C 0.042 0.76209 0.27312 0.0
C427 C 0.06762 0.77131 0.29721 0.0
C428 C 0.99965 0.72595 0.22315 0.0
C429 C 0.98078 0.72697 0.2673 0.0
C430 C 0.99208 0.7127 0.15561 0.0
C431 C 0.01145 0.71263 0.10415 0.0
C432 C 0.03331 0.73618 0.08223 0.0
C433 C 0.05173 0.73602 0.0348 0.0
C434 C 0.04843 0.71243 0.00853 0.0
C435 C 0.02667 0.68896 0.02951 0.0
C436 C 0.00821 0.689 0.077 0.0
C437 C 0.87681 0.67603 0.12467 0.0
C438 C 0.86696 0.64909 0.11629 0.0
C439 C 0.90258 0.69236 0.1476 0.0
C440 C 0.91884 0.68197 0.16232 0.0
C441 C 0.90886 0.65509 0.15566 0.0
C442 C 0.88319 0.63882 0.13352 0.0
C443 C 0.94656 0.69882 0.18274 0.0
C444 C 0.96562 0.69913 0.13668 0.0
C445 C 0.95424 0.7134 0.24807 0.0
C446 C 0.93492 0.71363 0.29906 0.0
C447 C 0.91509 0.69031 0.32946 0.0
C448 C 0.89687 0.69072 0.37719 0.0
C449 C 0.89842 0.71435 0.39541 0.0
C450 C 0.91826 0.73763 0.3661 0.0
C451 C 0.9365 0.73732 0.31826 0.0
H452 H 0.88431 0.71462 0.43239 0.0
H453 H 0.06272 0.71235 0.97185 0.0
H454 H 0.38138 0.07256 0.57828 0.0
H455 H 0.35481 0.0275 0.53856 0.0
H456 H 0.28482 0.02983 0.5891 0.0
H457 H 0.31134 0.07528 0.6286 0.0
H458 H 0.28513 0.98389 0.63971 0.0
H459 H 0.29956 0.03334 0.42105 0.0
H460 H 0.32681 0.06787 0.33348 0.0
H461 H 0.37112 0.03003 0.28939 0.0
H462 H 0.34441 0.99547 0.37769 0.0
H463 H 0.2066 0.86217 0.45797 0.0
H464 H 0.22549 0.90847 0.48815 0.0
H465 H 0.3026 0.92078 0.44687 0.0
H466 H 0.28407 0.87475 0.41727 0.0
H467 H 0.29401 0.95998 0.38628 0.0
H468 H 0.28631 0.91635 0.61457 0.0
H469 H 0.2601 0.87988 0.69812 0.0
H470 H 0.20493 0.90633 0.72284 0.0
H471 H 0.23071 0.94284 0.63849 0.0
C472 C 0.36034 0.06359 0.58088 0.0
C473 C 0.34847 0.07761 0.60597 0.0
C474 C 0.34519 0.03782 0.55814 0.0
C475 C 0.31789 0.02546 0.56046 0.0
C476 C 0.30589 0.03911 0.58685 0.0
C477 C 0.32106 0.06507 0.60902 0.0
C478 C 0.30214 0.99835 0.53406 0.0
C479 C 0.28659 0.97872 0.58393 0.0
C480 C 0.30453 0.99163 0.46162 0.0
C481 C 0.32005 0.01186 0.40638 0.0
C482 C 0.31518 0.03242 0.39293 0.0
C483 C 0.33054 0.05201 0.34315 0.0
C484 C 0.35071 0.05116 0.30597 0.0
C485 C 0.35548 0.03065 0.31825 0.0
C486 C 0.34021 0.01103 0.36808 0.0
C487 C 0.22757 0.87474 0.45546 0.0
C488 C 0.24384 0.86473 0.43592 0.0
C489 C 0.2383 0.90117 0.47235 0.0
C490 C 0.26542 0.918 0.4694 0.0
C491 C 0.28162 0.90814 0.4489 0.0
C492 C 0.27098 0.88175 0.43279 0.0
C493 C 0.2772 0.94559 0.49202 0.0
C494 C 0.29212 0.96526 0.4416 0.0
C495 C 0.27444 0.95238 0.56396 0.0
C496 C 0.26025 0.93211 0.61982 0.0
C497 C 0.26864 0.91443 0.63808 0.0
C498 C 0.25385 0.89374 0.68533 0.0
C499 C 0.23077 0.89069 0.71511 0.0
C500 C 0.22276 0.90869 0.69928 0.0
C501 C 0.23747 0.92941 0.65186 0.0
H502 H 0.21903 0.87425 0.74996 0.0
H503 H 0.36262 0.06639 0.26762 0.0
H504 H 0.12536 0.34485 0.80992 0.0
H505 H 0.13158 0.3482 0.67832 0.0
H506 H 0.14084 0.42514 0.68273 0.0
H507 H 0.13424 0.42187 0.81411 0.0
H508 H 0.12139 0.39854 0.5496 0.0
H509 H 0.19183 0.42119 0.71965 0.0
H510 H 0.21235 0.41234 0.82354 0.0
H511 H 0.20932 0.34763 0.70994 0.0
H512 H 0.18818 0.35575 0.60536 0.0
H513 H 0.19766 0.44663 0.2484 0.0
H514 H 0.19471 0.44702 0.38066 0.0
H515 H 0.18233 0.36892 0.38935 0.0
H516 H 0.18548 0.36837 0.25715 0.0
H517 H 0.20496 0.3987 0.51755 0.0
H518 H 0.13148 0.37315 0.3538 0.0
H519 H 0.10897 0.37984 0.25061 0.0
H520 H 0.11723 0.44885 0.3521 0.0
H521 H 0.14021 0.44274 0.45571 0.0
C522 C 0.12756 0.362 0.78242 0.0
C523 C 0.13034 0.38351 0.82203 0.0
C524 C 0.1311 0.36386 0.70742 0.0
C525 C 0.13762 0.38728 0.67217 0.0
C526 C 0.13618 0.40708 0.70978 0.0
C527 C 0.13243 0.40517 0.78481 0.0
C528 C 0.1509 0.39314 0.60157 0.0
C529 C 0.13976 0.39886 0.54262 0.0
C530 C 0.17487 0.39344 0.59316 0.0
C531 C 0.18814 0.38888 0.6551 0.0
C532 C 0.19531 0.40492 0.71704 0.0
C533 C 0.20708 0.40004 0.77609 0.0
C534 C 0.21209 0.3794 0.77369 0.0
C535 C 0.2054 0.3636 0.71186 0.0
C536 C 0.19351 0.36832 0.65262 0.0
C537 C 0.19543 0.42995 0.27866 0.0
C538 C 0.1907 0.40704 0.24285 0.0
C539 C 0.19386 0.43028 0.35409 0.0
C540 C 0.18742 0.40768 0.39362 0.0
C541 C 0.187 0.3864 0.35904 0.0
C542 C 0.18869 0.38608 0.28353 0.0
C543 C 0.17531 0.40388 0.46547 0.0
C544 C 0.18669 0.39858 0.52471 0.0
C545 C 0.15151 0.40387 0.47413 0.0
C546 C 0.13776 0.40763 0.41203 0.0
C547 C 0.12866 0.38985 0.35384 0.0
C548 C 0.11576 0.3935 0.29536 0.0
C549 C 0.11157 0.4147 0.29483 0.0
C550 C 0.12042 0.43239 0.35268 0.0
C551 C 0.13339 0.42885 0.41129 0.0
H552 H 0.10151 0.41744 0.24953 0.0
H553 H 0.22122 0.37571 0.81963 0.0
H554 H 0.75009 0.22622 0.11074 0.0
H555 H 0.74768 0.22831 0.97876 0.0
H556 H 0.75812 0.16156 0.95806 0.0
H557 H 0.76048 0.15925 0.09 0.0
H558 H 0.79512 0.23949 0.92322 0.0
H559 H 0.73994 0.13709 0.78125 0.0
H560 H 0.69712 0.09695 0.78729 0.0
H561 H 0.66378 0.1392 0.8868 0.0
H562 H 0.70624 0.17968 0.88049 0.0
H563 H 0.81433 0.18838 0.54801 0.0
H564 H 0.80486 0.18532 0.678 0.0
H565 H 0.80392 0.2576 0.66848 0.0
H566 H 0.81394 0.26115 0.5392 0.0
H567 H 0.7576 0.17947 0.71341 0.0
H568 H 0.81152 0.28238 0.8403 0.0
H569 H 0.85439 0.32258 0.83384 0.0
H570 H 0.8902 0.27813 0.7685 0.0
H571 H 0.84763 0.23765 0.77553 0.0
C572 C 0.7509 0.21139 0.07815 0.0
C573 C 0.75657 0.19323 0.10985 0.0
C574 C 0.74925 0.21249 0.00296 0.0
C575 C 0.75323 0.19542 0.95928 0.0
C576 C 0.75499 0.17488 -0.00874 0.0
C577 C 0.75658 0.17373 0.06659 0.0
C578 C 0.7629 0.20318 0.88483 0.0
C579 C 0.78657 0.22666 0.87675 0.0
C580 C 0.75207 0.18594 0.82559 0.0
C581 C 0.72646 0.16149 0.83086 0.0
C582 C 0.72349 0.13789 0.80428 0.0
C583 C 0.69925 0.11504 0.80777 0.0
C584 C 0.67776 0.11551 0.83757 0.0
C585 C 0.68047 0.13883 0.86406 0.0
C586 C 0.70467 0.16172 0.86081 0.0
C587 C 0.8132 0.20417 0.57425 0.0
C588 C 0.81404 0.22458 0.53341 0.0
C589 C 0.80764 0.2023 0.64824 0.0
C590 C 0.8031 0.2209 0.6818 0.0
C591 C 0.80731 0.24303 0.64318 0.0
C592 C 0.81308 0.24503 0.56928 0.0
C593 C 0.7902 0.21521 0.75301 0.0
C594 C 0.76592 0.19229 0.75997 0.0
C595 C 0.80053 0.23282 0.81161 0.0
C596 C 0.82631 0.25702 0.80762 0.0
C597 C 0.82856 0.28118 0.82473 0.0
C598 C 0.8528 0.30402 0.82096 0.0
C599 C 0.87499 0.30292 0.8005 0.0
C600 C 0.87298 0.27897 0.784 0.0
C601 C 0.84879 0.25608 0.78773 0.0
H602 H 0.89374 0.32062 0.79759 0.0
H603 H 0.659 0.09781 0.84006 0.0
H604 H 0.59981 0.74281 0.45596 0.0
H605 H 0.59881 0.74585 0.32394 0.0
H606 H 0.52053 0.68016 0.32055 0.0
H607 H 0.52126 0.67691 0.45287 0.0
H608 H 0.55201 0.68881 0.18774 0.0
H609 H 0.52205 0.73157 0.35549 0.0
H610 H 0.52687 0.75825 0.46294 0.0
H611 H 0.5949 0.82284 0.36915 0.0
H612 H 0.59073 0.79618 0.26105 0.0
H613 H 0.5005 0.71642 0.89549 0.0
H614 H 0.50188 0.71346 0.02746 0.0
H615 H 0.58002 0.77941 0.02946 0.0
H616 H 0.57889 0.7826 0.89724 0.0
H617 H 0.54888 0.77081 0.16295 0.0
H618 H 0.57884 0.728 -0.00474 0.0
H619 H 0.5741 0.70119 0.88812 0.0
H620 H 0.50604 0.63668 0.98224 0.0
H621 H 0.51015 0.66347 0.08994 0.0
C622 C 0.5828 0.7283 0.42684 0.0
C623 C 0.56019 0.7103 0.46424 0.0
C624 C 0.58235 0.73 0.35158 0.0
C625 C 0.55931 0.71374 0.31382 0.0
C626 C 0.53834 0.69298 0.34964 0.0
C627 C 0.53877 0.69122 0.42513 0.0
C628 C 0.55488 0.72214 0.24312 0.0
C629 C 0.55112 0.70658 0.18222 0.0
C630 C 0.55394 0.74549 0.23672 0.0
C631 C 0.5563 0.76177 0.30078 0.0
C632 C 0.53822 0.75136 0.35811 0.0
C633 C 0.54082 0.76651 0.41916 0.0
C634 C 0.56126 0.79223 0.42331 0.0
C635 C 0.5791 0.80288 0.36602 0.0
C636 C 0.57664 0.78776 0.3048 0.0
C637 C 0.51756 0.73099 0.92427 0.0
C638 C 0.54001 0.74906 0.88645 0.0
C639 C 0.51823 0.72933 -0.00047 0.0
C640 C 0.54134 0.74571 0.0369 0.0
C641 C 0.56216 0.76649 0.00071 0.0
C642 C 0.5615 0.7682 0.92524 0.0
C643 C 0.54597 0.73746 0.10758 0.0
C644 C 0.54979 0.75305 0.16847 0.0
C645 C 0.54696 0.71414 0.11401 0.0
C646 C 0.54458 0.69784 0.05003 0.0
C647 C 0.56268 0.7082 -0.00726 0.0
C648 C 0.56012 0.69298 0.93189 0.0
C649 C 0.5397 0.66724 0.92796 0.0
C650 C 0.52182 0.65665 0.98521 0.0
C651 C 0.52425 0.67185 0.04619 0.0
H652 H 0.53777 0.65547 0.88077 0.0
H653 H 0.56321 0.80392 0.47075 0.0
H654 H 0.78641 0.58133 0.79107 0.0
H655 H 0.78372 0.5825 0.65861 0.0
H656 H 0.72185 0.50236 0.65816 0.0
H657 H 0.72425 0.50095 0.7903 0.0
H658 H 0.77555 0.54814 0.521 0.0
H659 H 0.67196 0.50854 0.61738 0.0
H660 H 0.64827 0.50664 0.7303 0.0
H661 H 0.71054 0.58223 0.79217 0.0
H662 H 0.73447 0.58444 0.68013 0.0
H663 H 0.68071 0.5158 0.2348 0.0
H664 H 0.68424 0.51547 0.36732 0.0
H665 H 0.74586 0.59571 0.36318 0.0
H666 H 0.74246 0.59631 0.23118 0.0
H667 H 0.69284 0.55059 0.50286 0.0
H668 H 0.7976 0.58972 0.41168 0.0
H669 H 0.82214 0.59226 0.30003 0.0
H670 H 0.7586 0.51894 0.22829 0.0
H671 H 0.73395 0.51595 0.33915 0.0
C672 C 0.77313 0.56359 0.76247 0.0
C673 C 0.75486 0.54133 0.80052 0.0
C674 C 0.77173 0.56428 0.68689 0.0
C675 C 0.75221 0.54269 0.64984 0.0
C676 C 0.73687 0.51921 0.68668 0.0
C677 C 0.73815 0.51852 0.76203 0.0
C678 C 0.74322 0.54653 0.5794 0.0
C679 C 0.75765 0.54891 0.51688 0.0
C680 C 0.7198 0.54741 0.57484 0.0
C681 C 0.70498 0.54658 0.64079 0.0
C682 C 0.68046 0.52477 0.65507 0.0
C683 C 0.66705 0.5236 0.71904 0.0
C684 C 0.67792 0.54425 0.76864 0.0
C685 C 0.70217 0.56615 0.7542 0.0
C686 C 0.71568 0.56735 0.69055 0.0
C687 C 0.69405 0.53373 0.26249 0.0
C688 C 0.71196 0.55581 0.22322 0.0
C689 C 0.69597 0.53353 0.33806 0.0
C690 C 0.71572 0.55538 0.37376 0.0
C691 C 0.7307 0.57866 0.33573 0.0
C692 C 0.72883 0.57888 0.26048 0.0
C693 C 0.7251 0.55208 0.44426 0.0
C694 C 0.71075 0.54985 0.50689 0.0
C695 C 0.7487 0.55148 0.44888 0.0
C696 C 0.76386 0.55278 0.38318 0.0
C697 C 0.78897 0.57413 0.37202 0.0
C698 C 0.80289 0.57567 0.30878 0.0
C699 C 0.79191 0.55585 0.2567 0.0
C700 C 0.76707 0.53441 0.26801 0.0
C701 C 0.7531 0.5328 0.33102 0.0
H702 H 0.80267 0.55708 0.20774 0.0
H703 H 0.66754 0.54328 0.81815 0.0
H704 H 0.23774 0.76156 0.58644 0.0
H705 H 0.23634 0.7619 0.71845 0.0
H706 H 0.15864 0.75114 0.7111 0.0
H707 H 0.15997 0.75114 0.57849 0.0
H708 H 0.19449 0.79847 0.7611 0.0
H709 H 0.17068 0.71086 0.80536 0.0
H710 H 0.17121 0.66969 0.79676 0.0
H711 H 0.24865 0.70686 0.88527 0.0
H712 H 0.24891 0.74848 0.89289 0.0
H713 H 0.19038 0.81301 0.14137 0.0
H714 H 0.18658 0.80609 0.01113 0.0
H715 H 0.26227 0.81188 0.0054 0.0
H716 H 0.26576 0.81769 0.1372 0.0
H717 H 0.22389 0.76473 0.96489 0.0
H718 H 0.24889 0.85359 0.90661 0.0
H719 H 0.24655 0.89358 0.92498 0.0
H720 H 0.16544 0.85254 0.86685 0.0
H721 H 0.16721 0.8122 0.84902 0.0
C722 C 0.21996 0.75829 0.61286 0.0
C723 C 0.19943 0.75754 0.57279 0.0
C724 C 0.21909 0.75819 0.68834 0.0
C725 C 0.19759 0.75709 0.72382 0.0
C726 C 0.17547 0.7523 0.68399 0.0
C727 C 0.17635 0.75246 0.60842 0.0
C728 C 0.20115 0.76761 0.79762 0.0
C729 C 0.20041 0.7908 0.80623 0.0
C730 C 0.20973 0.75797 0.85498 0.0
C731 C 0.20987 0.73298 0.84922 0.0
C732 C 0.18802 0.71044 0.82195 0.0
C733 C 0.18815 0.68696 0.81742 0.0
C734 C 0.20996 0.68567 0.84031 0.0
C735 C 0.23174 0.70788 0.86758 0.0
C736 C 0.23175 0.73144 0.87206 0.0
C737 C 0.20667 0.81378 0.11219 0.0
C738 C 0.22787 0.81477 0.14929 0.0
C739 C 0.20454 0.81 0.03754 0.0
C740 C 0.22397 0.80803 -0.00065 0.0
C741 C 0.24698 0.81302 0.03475 0.0
C742 C 0.24897 0.81644 0.1098 0.0
C743 C 0.21794 0.79586 0.92732 0.0
C744 C 0.21806 0.77235 0.91942 0.0
C745 C 0.20884 0.80517 0.87048 0.0
C746 C 0.20815 0.82981 0.87697 0.0
C747 C 0.23054 0.85307 0.89792 0.0
C748 C 0.22929 0.87579 0.90846 0.0
C749 C 0.2058 0.87555 0.8977 0.0
C750 C 0.18358 0.85266 0.87556 0.0
C751 C 0.18472 0.82989 0.86496 0.0
H752 H 0.20488 0.89316 0.90585 0.0
H753 H 0.20997 0.66744 0.83707 0.0
H754 H 0.35739 0.16638 0.46051 0.0
H755 H 0.35521 0.16038 0.32858 0.0
H756 H 0.43824 0.1902 0.32178 0.0
H757 H 0.44056 0.19591 0.45351 0.0
H758 H 0.38167 0.18533 0.1906 0.0
H759 H 0.44402 0.13955 0.26643 0.0
H760 H 0.45539 0.12363 0.37692 0.0
H761 H 0.38075 0.10228 0.4701 0.0
H762 H 0.36885 0.11757 0.36014 0.0
H763 H 0.43366 0.14204 0.90304 0.0
H764 H 0.43195 0.14307 0.03585 0.0
H765 H 0.34834 0.10905 0.02711 0.0
H766 H 0.34993 0.10838 0.89455 0.0
H767 H 0.40227 0.11383 0.16755 0.0
H768 H 0.33808 0.15583 0.09027 0.0
H769 H 0.32551 0.17058 0.97972 0.0
H770 H 0.40187 0.19805 0.88967 0.0
H771 H 0.41501 0.18403 0.0002 0.0
C772 C 0.37535 0.17285 0.43043 0.0
C773 C 0.39901 0.18077 0.4668 0.0
C774 C 0.37407 0.16946 0.35516 0.0
C775 C 0.39646 0.17417 0.31666 0.0
C776 C 0.42076 0.18613 0.35142 0.0
C777 C 0.42202 0.18929 0.4265 0.0
C778 C 0.3937 0.1612 0.24663 0.0
C779 C 0.38591 0.16958 0.18554 0.0
C780 C 0.39916 0.14055 0.24079 0.0
C781 C 0.40568 0.12994 0.30542 0.0
C782 C 0.42999 0.13123 0.31036 0.0
C783 C 0.43653 0.12234 0.37298 0.0
C784 C 0.41884 0.11198 0.43074 0.0
C785 C 0.39449 0.1103 0.42566 0.0
C786 C 0.38784 0.1191 0.36322 0.0
C787 C 0.41482 0.13358 0.92967 0.0
C788 C 0.39202 0.12603 0.8894 0.0
C789 C 0.41386 0.13404 0.00541 0.0
C790 C 0.39011 0.12682 0.04023 0.0
C791 C 0.36683 0.115 0.00047 0.0
C792 C 0.3678 0.11481 0.92496 0.0
C793 C 0.39054 0.13816 0.11141 0.0
C794 C 0.39789 0.12949 0.17272 0.0
C795 C 0.38452 0.15843 0.11751 0.0
C796 C 0.37742 0.1687 0.05317 0.0
C797 C 0.35225 0.16529 0.04715 0.0
C798 C 0.34502 0.1735 0.98444 0.0
C799 C 0.36286 0.18524 0.92758 0.0
C800 C 0.38806 0.18902 0.93366 0.0
C801 C 0.39542 0.18098 -0.00364 0.0
H802 H 0.35718 0.19142 0.87889 0.0
H803 H 0.42398 0.10526 0.47936 0.0
H804 H 0.18587 0.52617 0.16638 0.0
H805 H 0.18839 0.56721 0.20027 0.0
H806 H 0.11871 0.54603 0.07575 0.0
H807 H 0.11712 0.50533 0.03853 0.0
H808 H 0.1504 0.59543 0.05953 0.0
H809 H 0.11751 0.54095 0.2656 0.0
H810 H 0.11469 0.51014 0.36009 0.0
H811 H 0.189 0.56767 0.44519 0.0
H812 H 0.1925 0.5987 0.35044 0.0
H813 H 0.14919 0.70285 0.24965 0.0
H814 H 0.13486 0.65809 0.20975 0.0
H815 H 0.21011 0.66835 0.26655 0.0
H816 H 0.22461 0.7128 0.30568 0.0
H817 H 0.166 0.62124 0.31982 0.0
H818 H 0.19785 0.67332 0.0951 0.0
H819 H 0.19528 0.70368 0.00819 0.0
H820 H 0.11493 0.64796 0.96589 0.0
H821 H 0.11691 0.61745 0.05348 0.0
C822 C 0.1712 0.53041 0.14611 0.0
C823 C 0.15119 0.51271 0.10057 0.0
C824 C 0.1725 0.55373 0.1658 0.0
C825 C 0.1533 0.55943 0.14231 0.0
C826 C 0.13362 0.54199 0.09503 0.0
C827 C 0.13265 0.5188 0.07396 0.0
C828 C 0.15401 0.58358 0.16797 0.0
C829 C 0.15335 0.60081 0.11663 0.0
C830 C 0.15745 0.59059 0.24265 0.0
C831 C 0.15532 0.57212 0.30055 0.0
C832 C 0.13332 0.547 0.30421 0.0
C833 C 0.1316 0.52949 0.35783 0.0
C834 C 0.15167 0.53693 0.40855 0.0
C835 C 0.17347 0.56193 0.40586 0.0
C836 C 0.17532 0.5795 0.35224 0.0
C837 C 0.16266 0.69554 0.25343 0.0
C838 C 0.18806 0.71138 0.28053 0.0
C839 C 0.15445 0.67002 0.23069 0.0
C840 C 0.17147 0.66001 0.23535 0.0
C841 C 0.19669 0.67573 0.2628 0.0
C842 C 0.20498 0.70119 0.28472 0.0
C843 C 0.16349 0.63326 0.21115 0.0
C844 C 0.16267 0.61554 0.26296 0.0
C845 C 0.158 0.62558 0.13746 0.0
C846 C 0.15744 0.64324 0.08134 0.0
C847 C 0.17963 0.66757 0.0673 0.0
C848 C 0.17827 0.68482 0.01804 0.0
C849 C 0.1549 0.67781 0.982 0.0
C850 C 0.13298 0.65339 -0.00586 0.0
C851 C 0.13421 0.63611 0.04351 0.0
H852 H 0.15373 0.6913 0.94473 0.0
H853 H 0.15031 0.52334 0.44999 0.0
H854 H 0.72141 0.22221 0.43626 0.0
H855 H 0.67799 0.20804 0.48507 0.0
H856 H 0.65491 0.12816 0.43715 0.0
H857 H 0.69865 0.14219 0.38841 0.0
H858 H 0.61877 0.14431 0.39036 0.0
H859 H 0.66438 0.14437 0.60425 0.0
H860 H 0.70197 0.16328 0.68767 0.0
H861 H 0.68887 0.22682 0.73445 0.0
H862 H 0.65156 0.20863 0.64978 0.0
H863 H 0.49768 0.10855 0.56434 0.0
H864 H 0.53843 0.10926 0.53529 0.0
H865 H 0.58217 0.19029 0.59666 0.0
H866 H 0.54176 0.18943 0.62865 0.0
H867 H 0.60637 0.16561 0.64338 0.0
H868 H 0.56715 0.17073 0.41756 0.0
H869 H 0.53213 0.15551 0.32587 0.0
H870 H 0.53469 0.08489 0.29798 0.0
H871 H 0.56949 0.09955 0.39034 0.0
C872 C 0.70717 0.2016 0.43623 0.0
C873 C 0.71347 0.1833 0.40857 0.0
C874 C 0.6824 0.19354 0.46436 0.0
C875 C 0.66336 0.16706 0.46513 0.0
C876 C 0.66942 0.14868 0.43715 0.0
C877 C 0.69439 0.15672 0.40964 0.0
C878 C 0.63705 0.15899 0.49426 0.0
C879 C 0.61584 0.14834 0.44616 0.0
C880 C 0.63351 0.16476 0.56667 0.0
C881 C 0.65524 0.1752 0.62017 0.0
C882 C 0.66957 0.16244 0.63205 0.0
C883 C 0.69085 0.17305 0.67954 0.0
C884 C 0.69785 0.19629 0.71622 0.0
C885 C 0.68344 0.20884 0.7059 0.0
C886 C 0.66221 0.19838 0.65816 0.0
C887 C 0.516 0.12639 0.57273 0.0
C888 C 0.51643 0.14902 0.59806 0.0
C889 C 0.53927 0.12683 0.55557 0.0
C890 C 0.56336 0.14993 0.56288 0.0
C891 C 0.56384 0.17225 0.59039 0.0
C892 C 0.54067 0.17181 0.60781 0.0
C893 C 0.58809 0.15146 0.53897 0.0
C894 C 0.60906 0.16096 0.58806 0.0
C895 C 0.59149 0.14485 0.46721 0.0
C896 C 0.57067 0.13608 0.41149 0.0
C897 C 0.5601 0.15187 0.39228 0.0
C898 C 0.54031 0.14336 0.34014 0.0
C899 C 0.53113 0.11921 0.3063 0.0
C900 C 0.54177 0.10356 0.32437 0.0
C901 C 0.56153 0.11196 0.3766 0.0
H902 H 0.51581 0.11266 0.26594 0.0
H903 H 0.71444 0.20458 0.75261 0.0
H904 H 0.22595 0.47319 0.9061 0.0
H905 H 0.26915 0.50122 0.85359 0.0
H906 H 0.29296 0.44625 0.91773 0.0
H907 H 0.24946 0.41772 0.96935 0.0
H908 H 0.32832 0.50086 0.95747 0.0
H909 H 0.28657 0.44789 0.74924 0.0
H910 H 0.25107 0.42514 0.66025 0.0
H911 H 0.25832 0.49802 0.59525 0.0
H912 H 0.29406 0.52126 0.68356 0.0
H913 H 0.44992 0.58112 0.78206 0.0
H914 H 0.40915 0.54147 0.81336 0.0
H915 H 0.36515 0.57592 0.73032 0.0
H916 H 0.40561 0.61504 0.69656 0.0
H917 H 0.34137 0.52551 0.69622 0.0
H918 H 0.37937 0.57765 0.91264 0.0
H919 H 0.41405 0.60083 0.00368 0.0
H920 H 0.4124 0.52954 0.05743 0.0
H921 H 0.37792 0.506 0.96592 0.0
C922 C 0.24035 0.46705 0.90907 0.0
C923 C 0.23438 0.44334 0.94217 0.0
C924 C 0.26496 0.48299 0.8787 0.0
C925 C 0.28413 0.47571 0.88161 0.0
C926 C 0.27835 0.45214 0.91492 0.0
C927 C 0.25354 0.43591 0.94428 0.0
C928 C 0.31042 0.49335 0.85166 0.0
C929 C 0.3314 0.50584 0.90009 0.0
C930 C 0.31416 0.50009 0.77711 0.0
C931 C 0.29288 0.4863 0.72333 0.0
C932 C 0.28052 0.45906 0.7162 0.0
C933 C 0.26039 0.44608 0.66579 0.0
C934 C 0.25232 0.46009 0.62246 0.0
C935 C 0.26456 0.48717 0.62895 0.0
C936 C 0.28485 0.50028 0.67891 0.0
C937 C 0.43154 0.58002 0.76919 0.0
C938 C 0.43102 0.60138 0.73775 0.0
C939 C 0.40826 0.55743 0.7876 0.0
C940 C 0.38408 0.55588 0.77527 0.0
C941 C 0.38353 0.57668 0.74066 0.0
C942 C 0.40672 0.59916 0.72211 0.0
C943 C 0.35934 0.53347 0.80226 0.0
C944 C 0.33855 0.52016 0.75334 0.0
C945 C 0.35573 0.52604 0.87657 0.0
C946 C 0.37632 0.54014 0.93185 0.0
C947 C 0.38655 0.56696 0.9435 0.0
C948 C 0.40614 0.58016 -0.00477 0.0
C949 C 0.41549 0.56668 0.03614 0.0
C950 C 0.40519 0.53996 0.02557 0.0
C951 C 0.38562 0.52668 0.97381 0.0
H952 H 0.43066 0.57693 0.07616 0.0
H953 H 0.23663 0.44998 0.58374 0.0
H954 H 0.75892 0.32424 0.31768 0.0
H955 H 0.75748 0.36335 0.28498 0.0
H956 H 0.83738 0.40006 0.21264 0.0
H957 H 0.8388 0.36042 0.24262 0.0
H958 H 0.81401 0.43175 0.30517 0.0
H959 H 0.80804 0.38283 0.08418 0.0
H960 H 0.79106 0.34179 0.01528 0.0
H961 H 0.71265 0.32585 0.04988 0.0
H962 H 0.72919 0.36662 0.1201 0.0
H963 H 0.79914 0.52604 0.09549 0.0
H964 H 0.8131 0.49582 0.13866 0.0
H965 H 0.73295 0.4336 0.14137 0.0
H966 H 0.71894 0.46341 0.09726 0.0
H967 H 0.76265 0.41772 0.07926 0.0
H968 H 0.76538 0.46288 0.30021 0.0
H969 H 0.7788 0.50187 0.3762 0.0
H970 H 0.85924 0.52372 0.34822 0.0
H971 H 0.84628 0.48479 0.27206 0.0
C972 C 0.77628 0.34062 0.29512 0.0
C973 C 0.79881 0.33897 0.28133 0.0
C974 C 0.77549 0.36306 0.27731 0.0
C975 C 0.79728 0.38444 0.2463 0.0
C976 C 0.82044 0.38371 0.23701 0.0
C977 C 0.82119 0.36107 0.25418 0.0
C978 C 0.79437 0.40585 0.21553 0.0
C979 C 0.80332 0.42905 0.25496 0.0
C980 C 0.77979 0.40188 0.15121 0.0
C981 C 0.76984 0.37762 0.10792 0.0
C982 C 0.78717 0.37046 0.07762 0.0
C983 C 0.77763 0.34727 0.03824 0.0
C984 C 0.75079 0.33119 0.02836 0.0
C985 C 0.73343 0.33831 0.05765 0.0
C986 C 0.74288 0.36146 0.09718 0.0
C987 C 0.78451 0.50592 0.10542 0.0
C988 C 0.75794 0.49709 0.09282 0.0
C989 C 0.79251 0.48871 0.13037 0.0
C990 C 0.77404 0.46248 0.1436 0.0
C991 C 0.74754 0.45373 0.13125 0.0
C992 C 0.73957 0.47082 0.10613 0.0
C993 C 0.78209 0.44379 0.16895 0.0
C994 C 0.77389 0.42088 0.12865 0.0
C995 C 0.79706 0.44799 0.23288 0.0
C996 C 0.80489 0.47108 0.2799 0.0
C997 C 0.78594 0.47606 0.31002 0.0
C998 C 0.79345 0.49813 0.35313 0.0
C999 C 0.81986 0.51536 0.36659 0.0
C1000 C 0.83879 0.5104 0.33756 0.0
C1001 C 0.83138 0.48829 0.29463 0.0
H1002 H 0.82563 0.5325 0.39971 0.0
H1003 H 0.74344 0.31324 -0.00212 0.0
H1004 H 0.32986 0.75847 0.3547 0.0
H1005 H 0.36908 0.75701 0.387 0.0
H1006 H 0.40614 0.83696 0.45766 0.0
H1007 H 0.36644 0.83841 0.42785 0.0
H1008 H 0.4367 0.80985 0.36407 0.0
H1009 H 0.39175 0.81223 0.58833 0.0
H1010 H 0.35135 0.7987 0.65832 0.0
H1011 H 0.32968 0.71841 0.63114 0.0
H1012 H 0.36979 0.73152 0.55995 0.0
H1013 H 0.52972 0.79587 0.58268 0.0
H1014 H 0.50035 0.81034 0.53572 0.0
H1015 H 0.43623 0.73126 0.54347 0.0
H1016 H 0.46527 0.7167 0.59083 0.0
H1017 H 0.42254 0.76412 0.60055 0.0
H1018 H 0.46377 0.7584 0.38053 0.0
H1019 H 0.5015 0.76761 0.30305 0.0
H1020 H 0.52866 0.84956 0.31592 0.0
H1021 H 0.49094 0.84079 0.39322 0.0
C1022 C 0.34641 0.77586 0.37649 0.0
C1023 C 0.34484 0.7984 0.39017 0.0
C1024 C 0.36888 0.77506 0.39407 0.0
C1025 C 0.39035 0.79684 0.42476 0.0
C1026 C 0.38973 0.82003 0.4335 0.0
C1027 C 0.36706 0.8208 0.41647 0.0
C1028 C 0.41143 0.79371 0.45708 0.0
C1029 C 0.43404 0.80047 0.41655 0.0
C1030 C 0.4074 0.78072 0.52433 0.0
C1031 C 0.3836 0.77284 0.56834 0.0
C1032 C 0.37825 0.79169 0.59682 0.0
C1033 C 0.35544 0.78411 0.63677 0.0
C1034 C 0.33792 0.75771 0.64901 0.0
C1035 C 0.34324 0.73885 0.62154 0.0
C1036 C 0.36602 0.74635 0.58145 0.0
C1037 C 0.50936 0.78157 0.57433 0.0
C1038 C 0.49981 0.75513 0.59048 0.0
C1039 C 0.49265 0.78986 0.54721 0.0
C1040 C 0.46615 0.77184 0.53576 0.0
C1041 C 0.4566 0.74549 0.55209 0.0
C1042 C 0.47325 0.7372 0.57905 0.0
C1043 C 0.44808 0.78029 0.50788 0.0
C1044 C 0.42576 0.7742 0.54898 0.0
C1045 C 0.45234 0.79363 0.44086 0.0
C1046 C 0.4747 0.79897 0.39314 0.0
C1047 C 0.47785 0.77839 0.36702 0.0
C1048 C 0.49921 0.78352 0.32311 0.0
C1049 C 0.51758 0.80916 0.30502 0.0
C1050 C 0.51445 0.82971 0.33015 0.0
C1051 C 0.49303 0.82467 0.37375 0.0
H1052 H 0.53418 0.81309 0.27136 0.0
H1053 H 0.32026 0.75187 0.67992 0.0
H1054 H 0.58234 0.43547 0.00339 0.0
H1055 H 0.54247 0.39567 0.96839 0.0
H1056 H 0.58312 0.38568 0.78709 0.0
H1057 H 0.62233 0.42612 0.81874 0.0
H1058 H 0.53655 0.37173 0.74629 0.0
H1059 H 0.57377 0.35371 0.9567 0.0
H1060 H 0.58979 0.35945 0.08305 0.0
H1061 H 0.51439 0.34165 0.1627 0.0
H1062 H 0.49802 0.33612 0.03665 0.0
H1063 H 0.48057 0.23527 0.70664 0.0
H1064 H 0.50907 0.2805 0.74324 0.0
H1065 H 0.44403 0.28169 0.84526 0.0
H1066 H 0.41498 0.23646 0.80676 0.0
H1067 H 0.49601 0.30134 0.93056 0.0
H1068 H 0.45856 0.31282 0.71097 0.0
H1069 H 0.44508 0.30435 0.58229 0.0
H1070 H 0.52443 0.33202 0.51771 0.0
H1071 H 0.53833 0.34026 0.64618 0.0
C1072 C 0.58264 0.42509 0.9552 0.0
C1073 C 0.60572 0.43382 0.91461 0.0
C1074 C 0.55988 0.40216 0.93571 0.0
C1075 C 0.5599 0.38732 0.87598 0.0
C1076 C 0.58259 0.39663 0.83367 0.0
C1077 C 0.60516 0.41964 0.85248 0.0
C1078 C 0.53689 0.36152 0.85878 0.0
C1079 C 0.52773 0.35639 0.78673 0.0
C1080 C 0.52497 0.34151 0.91161 0.0
C1081 C 0.53478 0.34485 -0.01268 0.0
C1082 C 0.56067 0.35123 0.00116 0.0
C1083 C 0.56981 0.35441 0.0727 0.0
C1084 C 0.55315 0.35101 0.13086 0.0
C1085 C 0.52729 0.34434 0.11759 0.0
C1086 C 0.51807 0.34118 0.04613 0.0
C1087 C 0.47227 0.24508 0.73695 0.0
C1088 C 0.44554 0.23225 0.75414 0.0
C1089 C 0.48857 0.27093 0.75759 0.0
C1090 C 0.47857 0.28432 0.79668 0.0
C1091 C 0.45201 0.27157 0.81503 0.0
C1092 C 0.43551 0.24579 0.79303 0.0
C1093 C 0.49626 0.31165 0.81824 0.0
C1094 C 0.50446 0.31696 0.89084 0.0
C1095 C 0.50769 0.33166 0.7657 0.0
C1096 C 0.49944 0.32696 0.6883 0.0
C1097 C 0.4731 0.31689 0.6694 0.0
C1098 C 0.46539 0.31217 0.59647 0.0
C1099 C 0.48388 0.31759 0.54186 0.0
C1100 C 0.51013 0.32781 0.56007 0.0
C1101 C 0.51794 0.33254 0.63293 0.0
H1102 H 0.47787 0.31393 0.48543 0.0
H1103 H 0.56025 0.35347 0.18621 0.0
loop_
_geom_bond_atom_site_label_1
_geom_bond_atom_site_label_2
_geom_bond_distance
_geom_bond_site_symmetry_2
_ccdc_geom_bond_type
C0 O16 1.251 . S
C0 O18 1.254 . S
N1 C2 1.333 1_554 S
N1 C6 1.307 . S
N1 Zn7 2.020 . S
C2 N1 1.333 1_556 S
C2 C3 1.379 . S
C2 H20 0.952 . S
C3 C2 1.379 . S
C3 C4 1.390 . S
C3 H30 0.949 . S
C4 C3 1.390 . S
C4 C5 1.357 1_556 S
C5 C4 1.357 1_554 S
C5 C6 1.370 . S
C5 H31 0.950 . S
C6 N1 1.307 . S
C6 C5 1.370 . S
C6 H24 0.948 . S
Zn7 N1 2.020 . S
Zn7 O16 2.039 1_554 S
Zn7 O22 2.034 . S
Zn7 O26 2.025 . S
Zn7 O28 2.024 . S
C8 O27 1.246 . S
C8 O28 1.249 . S
N9 C10 1.307 . S
N9 C11 1.333 . S
N9 Zn15 2.020 . S
C10 N9 1.307 . S
C10 C14 1.370 . S
C10 H21 0.948 1_554 S
C11 N9 1.333 . S
C11 C12 1.379 . S
C11 H19 0.952 . S
C12 C11 1.379 . S
C12 C13 1.390 . S
C12 H32 0.949 . S
C13 C12 1.390 . S
C13 C14 1.357 . S
C14 C10 1.370 . S
C14 C13 1.357 . S
C14 H33 0.950 . S
Zn15 N9 2.020 . S
Zn15 O18 2.025 1_554 S
Zn15 O23 2.024 . S
Zn15 O25 2.039 . S
Zn15 O27 2.034 . S
O16 C0 1.251 . S
O16 Zn7 2.039 1_556 S
C17 O22 1.246 . S
C17 O23 1.249 . S
O18 C0 1.254 . S
O18 Zn15 2.025 1_556 S
H19 C11 0.952 . S
H20 C2 0.952 . S
H21 C10 0.948 1_556 S
O22 Zn7 2.034 . S
O22 C17 1.246 . S
O23 Zn15 2.024 . S
O23 C17 1.249 . S
H24 C6 0.948 . S
O25 Zn15 2.039 . S
O25 C29 1.251 . S
O26 Zn7 2.025 . S
O26 C29 1.254 . S
O27 C8 1.246 . S
O27 Zn15 2.034 . S
O28 Zn7 2.024 . S
O28 C8 1.249 . S
C29 O25 1.251 . S
C29 O26 1.254 . S
H30 C3 0.949 . S
H31 C5 0.950 . S
H32 C12 0.949 . S
H33 C14 0.950 . S
C34 O50 1.251 . S
C34 O52 1.254 . S
N35 C36 1.333 . S
N35 C40 1.307 . S
N35 Zn41 2.020 . S
C36 N35 1.333 . S
C36 C37 1.379 . S
C36 H54 0.952 . S
C37 C36 1.379 . S
C37 C38 1.390 . S
C37 H64 0.949 . S
C38 C37 1.390 . S
C38 C39 1.357 . S
C39 C38 1.357 . S
C39 C40 1.370 . S
C39 H65 0.950 . S
C40 N35 1.307 . S
C40 C39 1.370 . S
C40 H58 0.948 . S
Zn41 N35 2.020 . S
Zn41 O50 2.039 . S
Zn41 O56 2.034 . S
Zn41 O60 2.025 . S
Zn41 O62 2.024 . S
C42 O61 1.246 . S
C42 O62 1.249 . S
N43 C44 1.307 . S
N43 C45 1.333 . S
N43 Zn49 2.020 . S
C44 N43 1.307 . S
C44 C48 1.370 . S
C44 H55 0.948 . S
C45 N43 1.333 . S
C45 C46 1.379 . S
C45 H53 0.952 . S
C46 C45 1.379 . S
C46 C47 1.390 . S
C46 H66 0.949 . S
C47 C46 1.390 . S
C47 C48 1.357 . S
C48 C44 1.370 . S
C48 C47 1.357 . S
C48 H67 0.950 . S
Zn49 N43 2.020 . S
Zn49 O52 2.025 . S
Zn49 O57 2.024 . S
Zn49 O59 2.039 . S
Zn49 O61 2.034 . S
O50 C34 1.251 . S
O50 Zn41 2.039 . S
C51 O56 1.246 . S
C51 O57 1.249 . S
O52 C34 1.254 . S
O52 Zn49 2.025 . S
H53 C45 0.952 . S
H54 C36 0.952 . S
H55 C44 0.948 . S
O56 Zn41 2.034 . S
O56 C51 1.246 . S
O57 Zn49 2.024 . S
O57 C51 1.249 . S
H58 C40 0.948 . S
O59 Zn49 2.039 . S
O59 C63 1.251 . S
O60 Zn41 2.025 . S
O60 C63 1.254 . S
O61 C42 1.246 . S
O61 Zn49 2.034 . S
O62 Zn41 2.024 . S
O62 C42 1.249 . S
C63 O59 1.251 . S
C63 O60 1.254 . S
H64 C37 0.949 . S
H65 C39 0.950 . S
H66 C46 0.949 . S
H67 C48 0.950 . S
C68 O84 1.251 . S
C68 O86 1.254 . S
N69 C70 1.333 . S
N69 C74 1.307 . S
N69 Zn75 2.020 . S
C70 N69 1.333 . S
C70 C71 1.379 . S
C70 H88 0.952 . S
C71 C70 1.379 . S
C71 C72 1.390 . S
C71 H98 0.949 . S
C72 C71 1.390 . S
C72 C73 1.357 . S
C73 C72 1.357 . S
C73 C74 1.370 . S
C73 H99 0.950 . S
C74 N69 1.307 . S
C74 C73 1.370 . S
C74 H92 0.948 . S
Zn75 N69 2.020 . S
Zn75 O84 2.039 . S
Zn75 O90 2.034 . S
Zn75 O94 2.025 . S
Zn75 O96 2.024 . S
C76 O95 1.246 . S
C76 O96 1.249 . S
N77 C78 1.307 . S
N77 C79 1.333 . S
N77 Zn83 2.020 . S
C78 N77 1.307 . S
C78 C82 1.370 . S
C78 H89 0.948 . S
C79 N77 1.333 . S
C79 C80 1.379 . S
C79 H87 0.952 . S
C80 C79 1.379 . S
C80 C81 1.390 . S
C80 H100 0.949 . S
C81 C80 1.390 . S
C81 C82 1.357 . S
C82 C78 1.370 . S
C82 C81 1.357 . S
C82 H101 0.950 . S
Zn83 N77 2.020 . S
Zn83 O86 2.025 . S
Zn83 O91 2.024 . S
Zn83 O93 2.039 . S
Zn83 O95 2.034 . S
O84 C68 1.251 . S
O84 Zn75 2.039 . S
C85 O90 1.246 . S
C85 O91 1.249 . S
O86 C68 1.254 . S
O86 Zn83 2.025 . S
H87 C79 0.952 . S
H88 C70 0.952 . S
H89 C78 0.948 . S
O90 Zn75 2.034 . S
O90 C85 1.246 . S
O91 Zn83 2.024 . S
O91 C85 1.249 . S
H92 C74 0.948 . S
O93 Zn83 2.039 . S
O93 C97 1.251 . S
O94 Zn75 2.025 . S
O94 C97 1.254 . S
O95 C76 1.246 . S
O95 Zn83 2.034 . S
O96 Zn75 2.024 . S
O96 C76 1.249 . S
C97 O93 1.251 . S
C97 O94 1.254 . S
H98 C71 0.949 . S
H99 C73 0.950 . S
H100 C80 0.949 . S
H101 C82 0.950 . S
C102 O118 1.251 . S
C102 O120 1.254 . S
N103 C104 1.333 . S
N103 C108 1.307 1_554 S
N103 Zn109 2.020 . S
C104 N103 1.333 . S
C104 C105 1.379 . S
C104 H122 0.952 . S
C105 C104 1.379 . S
C105 C106 1.390 . S
C105 H132 0.949 . S
C106 C105 1.390 . S
C106 C107 1.350 1_554 S
C107 C106 1.350 1_556 S
C107 C108 1.371 . S
C107 H133 0.955 . S
C108 N103 1.307 1_556 S
C108 C107 1.371 . S
C108 H126 0.948 . S
Zn109 N103 2.020 . S
Zn109 O118 2.039 . S
Zn109 O124 2.034 1_554 S
Zn109 O128 2.025 1_554 S
Zn109 O130 2.024 . S
C110 O129 1.246 . S
C110 O130 1.249 . S
N111 C112 1.307 1_556 S
N111 C113 1.333 . S
N111 Zn117 2.020 . S
C112 N111 1.307 1_554 S
C112 C116 1.370 . S
C112 H123 0.948 . S
C113 N111 1.333 . S
C113 C114 1.379 . S
C113 H121 0.952 . S
C114 C113 1.379 . S
C114 C115 1.390 . S
C114 H134 0.949 . S
C115 C114 1.390 . S
C115 C116 1.357 1_556 S
C116 C112 1.370 . S
C116 C115 1.357 1_554 S
C116 H135 0.950 . S
Zn117 N111 2.020 . S
Zn117 O120 2.025 1_556 S
Zn117 O125 2.024 . S
Zn117 O127 2.039 . S
Zn117 O129 2.034 1_556 S
O118 C102 1.251 . S
O118 Zn109 2.039 . S
C119 O124 1.246 . S
C119 O125 1.249 . S
O120 C102 1.254 . S
O120 Zn117 2.025 1_554 S
H121 C113 0.952 . S
H122 C104 0.952 . S
H123 C112 0.948 . S
O124 Zn109 2.034 1_556 S
O124 C119 1.246 . S
O125 Zn117 2.024 . S
O125 C119 1.249 . S
H126 C108 0.948 . S
O127 Zn117 2.039 . S
O127 C131 1.251 . S
O128 Zn109 2.025 1_556 S
O128 C131 1.254 . S
O129 C110 1.246 . S
O129 Zn117 2.034 1_554 S
O130 Zn109 2.024 . S
O130 C110 1.249 . S
C131 O127 1.251 . S
C131 O128 1.254 . S
H132 C105 0.949 . S
H133 C107 0.955 . S
H134 C114 0.949 . S
H135 C116 0.950 . S
C136 O152 1.251 . S
C136 O154 1.254 . S
N137 C138 1.333 . S
N137 C142 1.307 . S
N137 Zn143 2.020 . S
C138 N137 1.333 . S
C138 C139 1.379 . S
C138 H156 0.952 . S
C139 C138 1.379 . S
C139 C140 1.390 . S
C139 H166 0.949 . S
C140 C139 1.390 . S
C140 C141 1.357 . S
C141 C140 1.357 . S
C141 C142 1.370 . S
C141 H167 0.950 . S
C142 N137 1.307 . S
C142 C141 1.370 . S
C142 H160 0.948 . S
Zn143 N137 2.020 . S
Zn143 O152 2.039 . S
Zn143 O158 2.034 . S
Zn143 O162 2.025 . S
Zn143 O164 2.024 . S
C144 O163 1.246 . S
C144 O164 1.249 . S
N145 C146 1.307 . S
N145 C147 1.333 . S
N145 Zn151 2.020 . S
C146 N145 1.307 . S
C146 C150 1.370 . S
C146 H157 0.948 . S
C147 N145 1.333 . S
C147 C148 1.379 . S
C147 H155 0.952 . S
C148 C147 1.379 . S
C148 C149 1.390 . S
C148 H168 0.949 . S
C149 C148 1.390 . S
C149 C150 1.357 . S
C150 C146 1.370 . S
C150 C149 1.357 . S
C150 H169 0.950 . S
Zn151 N145 2.020 . S
Zn151 O154 2.025 . S
Zn151 O159 2.024 . S
Zn151 O161 2.039 . S
Zn151 O163 2.034 . S
O152 C136 1.251 . S
O152 Zn143 2.039 . S
C153 O158 1.246 . S
C153 O159 1.249 . S
O154 C136 1.254 . S
O154 Zn151 2.025 . S
H155 C147 0.952 . S
H156 C138 0.952 . S
H157 C146 0.948 . S
O158 Zn143 2.034 . S
O158 C153 1.246 . S
O159 Zn151 2.024 . S
O159 C153 1.249 . S
H160 C142 0.948 . S
O161 Zn151 2.039 . S
O161 C165 1.251 . S
O162 Zn143 2.025 . S
O162 C165 1.254 . S
O163 C144 1.246 . S
O163 Zn151 2.034 . S
O164 Zn143 2.024 . S
O164 C144 1.249 . S
C165 O161 1.251 . S
C165 O162 1.254 . S
H166 C139 0.949 . S
H167 C141 0.950 . S
H168 C148 0.949 . S
H169 C150 0.950 . S
C170 O186 1.251 . S
C170 O188 1.254 . S
N171 C172 1.333 . S
N171 C176 1.307 . S
N171 Zn177 2.020 . S
C172 N171 1.333 . S
C172 C173 1.379 . S
C172 H190 0.952 . S
C173 C172 1.379 . S
C173 C174 1.390 . S
C173 H200 0.949 . S
C174 C173 1.390 . S
C174 C175 1.357 . S
C175 C174 1.357 . S
C175 C176 1.370 . S
C175 H201 0.950 . S
C176 N171 1.307 . S
C176 C175 1.370 . S
C176 H194 0.948 . S
Zn177 N171 2.020 . S
Zn177 O186 2.039 . S
Zn177 O192 2.034 . S
Zn177 O196 2.025 . S
Zn177 O198 2.024 . S
C178 O197 1.246 . S
C178 O198 1.249 . S
N179 C180 1.307 . S
N179 C181 1.333 . S
N179 Zn185 2.020 . S
C180 N179 1.307 . S
C180 C184 1.370 . S
C180 H191 0.948 . S
C181 N179 1.333 . S
C181 C182 1.379 . S
C181 H189 0.952 . S
C182 C181 1.379 . S
C182 C183 1.390 . S
C182 H202 0.949 . S
C183 C182 1.390 . S
C183 C184 1.357 . S
C184 C180 1.370 . S
C184 C183 1.357 . S
C184 H203 0.950 . S
Zn185 N179 2.020 . S
Zn185 O188 2.025 . S
Zn185 O193 2.024 . S
Zn185 O195 2.039 . S
Zn185 O197 2.034 . S
O186 C170 1.251 . S
O186 Zn177 2.039 . S
C187 O192 1.246 . S
C187 O193 1.249 . S
O188 C170 1.254 . S
O188 Zn185 2.025 . S
H189 C181 0.952 . S
H190 C172 0.952 . S
H191 C180 0.948 . S
O192 Zn177 2.034 . S
O192 C187 1.246 . S
O193 Zn185 2.024 . S
O193 C187 1.249 . S
H194 C176 0.948 . S
O195 Zn185 2.039 . S
O195 C199 1.251 . S
O196 Zn177 2.025 . S
O196 C199 1.254 . S
O197 C178 1.246 . S
O197 Zn185 2.034 . S
O198 Zn177 2.024 . S
O198 C178 1.249 . S
C199 O195 1.251 . S
C199 O196 1.254 . S
H200 C173 0.949 . S
H201 C175 0.950 . S
H202 C182 0.949 . S
H203 C184 0.950 . S
H204 C222 0.951 . S
H205 C224 0.951 . S
H206 C226 0.950 . S
H207 C227 0.950 . S
H208 C229 0.950 . S
H209 C232 0.950 . S
H210 C233 0.950 . S
H211 C235 0.950 . S
H212 C236 0.950 . S
H213 C237 0.951 . S
H214 C239 0.951 1_554 S
H215 C241 0.950 . S
H216 C242 0.950 . S
H217 C244 0.950 . S
H218 C247 0.950 1_556 S
H219 C248 0.950 . S
H220 C250 0.950 . S
H221 C251 0.950 . S
C222 H204 0.951 . S
C222 C223 1.366 . S
C222 C224 1.388 . S
C223 C222 1.366 . S
C223 C227 1.385 . S
C224 H205 0.951 . S
C224 C222 1.388 . S
C224 C225 1.366 . S
C225 C224 1.366 . S
C225 C226 1.414 . S
C225 C228 1.499 . S
C226 H206 0.950 . S
C226 C225 1.414 . S
C226 C227 1.374 . S
C227 H207 0.950 . S
C227 C223 1.385 . S
C227 C226 1.374 . S
C228 C225 1.499 . S
C228 C229 1.373 . S
C228 C230 1.389 . S
C229 H208 0.950 . S
C229 C228 1.373 . S
C229 C245 1.377 . S
C230 C228 1.389 . S
C230 C231 1.524 . S
C230 C244 1.377 . S
C231 C230 1.524 . S
C231 C232 1.397 . S
C231 C236 1.363 . S
C232 H209 0.950 . S
C232 C231 1.397 . S
C232 C233 1.334 . S
C233 H210 0.950 . S
C233 C232 1.334 . S
C233 C234 1.287 . S
C234 C233 1.287 . S
C234 C235 1.524 . S
C234 H253 0.913 . S
C235 H211 0.950 . S
C235 C234 1.524 . S
C235 C236 1.415 . S
C236 H212 0.950 . S
C236 C231 1.363 . S
C236 C235 1.415 . S
C237 H213 0.951 . S
C237 C238 1.366 1_554 S
C237 C239 1.388 1_554 S
C238 C237 1.366 1_556 S
C238 C242 1.385 . S
C239 H214 0.951 1_556 S
C239 C237 1.388 1_556 S
C239 C240 1.366 . S
C240 C239 1.366 . S
C240 C241 1.414 . S
C240 C243 1.499 . S
C241 H215 0.950 . S
C241 C240 1.414 . S
C241 C242 1.374 . S
C242 H216 0.950 . S
C242 C238 1.385 . S
C242 C241 1.374 . S
C243 C240 1.499 . S
C243 C244 1.373 . S
C243 C245 1.389 . S
C244 H217 0.950 . S
C244 C230 1.377 . S
C244 C243 1.373 . S
C245 C229 1.377 . S
C245 C243 1.389 . S
C245 C246 1.524 1_556 S
C246 C245 1.524 1_554 S
C246 C247 1.397 . S
C246 C251 1.363 . S
C247 H218 0.950 1_554 S
C247 C246 1.397 . S
C247 C248 1.334 . S
C248 H219 0.950 . S
C248 C247 1.334 . S
C248 C249 1.287 . S
C249 C248 1.287 . S
C249 C250 1.524 . S
C249 H252 0.999 . S
C250 H220 0.950 . S
C250 C249 1.524 . S
C250 C251 1.415 . S
C251 H221 0.950 . S
C251 C246 1.363 . S
C251 C250 1.415 . S
H252 C249 0.999 . S
H253 C234 0.913 . S
H254 C272 0.951 . S
H255 C274 0.951 . S
H256 C276 0.950 . S
H257 C277 0.950 . S
H258 C279 0.917 1_455 S
H259 C282 0.950 . S
H260 C283 0.950 1_455 S
H261 C285 0.950 . S
H262 C286 0.950 . S
H263 C287 0.951 . S
H264 C289 0.951 . S
H265 C291 0.950 . S
H266 C292 0.950 . S
H267 C294 0.950 . S
H268 C297 0.950 . S
H269 C298 0.950 . S
H270 C300 0.950 . S
H271 C301 0.950 . S
C272 H254 0.951 . S
C272 C273 1.366 . S
C272 C274 1.388 . S
C273 C272 1.366 . S
C273 C277 1.385 . S
C274 H255 0.951 . S
C274 C272 1.388 . S
C274 C275 1.366 . S
C275 C274 1.366 . S
C275 C276 1.414 . S
C275 C278 1.499 1_455 S
C276 H256 0.950 . S
C276 C275 1.414 . S
C276 C277 1.374 . S
C277 H257 0.950 . S
C277 C273 1.385 . S
C277 C276 1.374 . S
C278 C275 1.499 1_655 S
C278 C279 1.373 . S
C278 C280 1.389 . S
C279 H258 0.917 1_655 S
C279 C278 1.373 . S
C279 C295 1.377 . S
C280 C278 1.389 . S
C280 C281 1.524 . S
C280 C294 1.377 . S
C281 C280 1.524 . S
C281 C282 1.397 . S
C281 C286 1.363 1_554 S
C282 H259 0.950 . S
C282 C281 1.397 . S
C282 C283 1.334 1_554 S
C283 H260 0.950 1_655 S
C283 C282 1.334 1_556 S
C283 C284 1.287 . S
C284 C283 1.287 . S
C284 C285 1.524 . S
C284 H303 0.913 . S
C285 H261 0.950 . S
C285 C284 1.524 . S
C285 C286 1.415 . S
C286 H262 0.950 . S
C286 C281 1.363 1_556 S
C286 C285 1.415 . S
C287 H263 0.951 . S
C287 C288 1.366 . S
C287 C289 1.388 . S
C288 C287 1.366 . S
C288 C292 1.385 . S
C289 H264 0.951 . S
C289 C287 1.388 . S
C289 C290 1.366 . S
C290 C289 1.366 . S
C290 C291 1.414 . S
C290 C293 1.499 . S
C291 H265 0.950 . S
C291 C290 1.414 . S
C291 C292 1.374 . S
C292 H266 0.950 . S
C292 C288 1.385 . S
C292 C291 1.374 . S
C293 C290 1.499 . S
C293 C294 1.373 . S
C293 C295 1.389 . S
C294 H267 0.950 . S
C294 C280 1.377 . S
C294 C293 1.373 . S
C295 C279 1.377 . S
C295 C293 1.389 . S
C295 C296 1.524 . S
C296 C295 1.524 . S
C296 C297 1.397 . S
C296 C301 1.363 . S
C297 H268 0.950 . S
C297 C296 1.397 . S
C297 C298 1.334 . S
C298 H269 0.950 . S
C298 C297 1.334 . S
C298 C299 1.287 . S
C299 C298 1.287 . S
C299 C300 1.524 . S
C299 H302 0.999 . S
C300 H270 0.950 . S
C300 C299 1.524 . S
C300 C301 1.415 . S
C301 H271 0.950 . S
C301 C296 1.363 . S
C301 C300 1.415 . S
H302 C299 0.999 . S
H303 C284 0.913 . S
H304 C322 0.951 . S
H305 C324 0.951 . S
H306 C326 0.950 . S
H307 C327 0.950 . S
H308 C329 0.950 . S
H309 C332 0.950 . S
H310 C333 0.950 1_545 S
H311 C335 0.950 . S
H312 C336 0.950 . S
H313 C337 0.951 . S
H314 C339 0.951 . S
H315 C341 0.950 . S
H316 C342 0.950 . S
H317 C344 0.950 . S
H318 C347 0.950 . S
H319 C348 0.950 . S
H320 C350 0.950 . S
H321 C351 0.950 . S
C322 H304 0.951 . S
C322 C323 1.366 . S
C322 C324 1.388 . S
C323 C322 1.366 . S
C323 C327 1.385 . S
C324 H305 0.951 . S
C324 C322 1.388 . S
C324 C325 1.366 . S
C325 C324 1.366 . S
C325 C326 1.414 . S
C325 C328 1.499 1_545 S
C326 H306 0.950 . S
C326 C325 1.414 . S
C326 C327 1.374 . S
C327 H307 0.950 . S
C327 C323 1.385 . S
C327 C326 1.374 . S
C328 C325 1.499 1_565 S
C328 C329 1.373 . S
C328 C330 1.389 . S
C329 H308 0.950 . S
C329 C328 1.373 . S
C329 C345 1.377 . S
C330 C328 1.389 . S
C330 C331 1.524 . S
C330 C344 1.377 . S
C331 C330 1.524 . S
C331 C332 1.397 . S
C331 C336 1.363 . S
C332 H309 0.950 . S
C332 C331 1.397 . S
C332 C333 1.334 . S
C333 H310 0.950 1_565 S
C333 C332 1.334 . S
C333 C334 1.287 . S
C334 C333 1.287 . S
C334 C335 1.524 . S
C334 H353 0.913 . S
C335 H311 0.950 . S
C335 C334 1.524 . S
C335 C336 1.415 . S
C336 H312 0.950 . S
C336 C331 1.363 . S
C336 C335 1.415 . S
C337 H313 0.951 . S
C337 C338 1.366 . S
C337 C339 1.388 . S
C338 C337 1.366 . S
C338 C342 1.385 . S
C339 H314 0.951 . S
C339 C337 1.388 . S
C339 C340 1.366 . S
C340 C339 1.366 . S
C340 C341 1.414 . S
C340 C343 1.499 . S
C341 H315 0.950 . S
C341 C340 1.414 . S
C341 C342 1.374 . S
C342 H316 0.950 . S
C342 C338 1.385 . S
C342 C341 1.374 . S
C343 C340 1.499 . S
C343 C344 1.373 . S
C343 C345 1.389 . S
C344 H317 0.950 . S
C344 C330 1.377 . S
C344 C343 1.373 . S
C345 C329 1.377 . S
C345 C343 1.389 . S
C345 C346 1.524 . S
C346 C345 1.524 . S
C346 C347 1.397 . S
C346 C351 1.363 . S
C347 H318 0.950 . S
C347 C346 1.397 . S
C347 C348 1.334 . S
C348 H319 0.950 . S
C348 C347 1.334 . S
C348 C349 1.287 . S
C349 C348 1.287 . S
C349 C350 1.524 . S
C349 H352 0.999 . S
C350 H320 0.950 . S
C350 C349 1.524 . S
C350 C351 1.415 . S
C351 H321 0.950 . S
C351 C346 1.363 . S
C351 C350 1.415 . S
H352 C349 0.999 . S
H353 C334 0.913 . S
H354 C372 0.951 . S
H355 C374 0.951 . S
H356 C376 0.950 . S
H357 C377 0.950 . S
H358 C379 0.950 . S
H359 C382 0.950 . S
H360 C383 0.950 . S
H361 C385 0.950 . S
H362 C386 0.950 . S
H363 C387 0.951 . S
H364 C389 0.951 . S
H365 C391 0.950 . S
H366 C392 0.950 . S
H367 C394 0.950 . S
H368 C397 0.950 . S
H369 C398 0.950 . S
H370 C400 0.950 . S
H371 C401 0.950 . S
C372 H354 0.951 . S
C372 C373 1.366 . S
C372 C374 1.388 . S
C373 C372 1.366 . S
C373 C377 1.385 . S
C374 H355 0.951 . S
C374 C372 1.388 . S
C374 C375 1.366 . S
C375 C374 1.366 . S
C375 C376 1.414 . S
C375 C378 1.499 . S
C376 H356 0.950 . S
C376 C375 1.414 . S
C376 C377 1.374 . S
C377 H357 0.950 . S
C377 C373 1.385 . S
C377 C376 1.374 . S
C378 C375 1.499 . S
C378 C379 1.373 . S
C378 C380 1.389 . S
C379 H358 0.950 . S
C379 C378 1.373 . S
C379 C395 1.377 . S
C380 C378 1.389 . S
C380 C381 1.524 . S
C380 C394 1.377 . S
C381 C380 1.524 . S
C381 C382 1.397 . S
C381 C386 1.363 1_556 S
C382 H359 0.950 . S
C382 C381 1.397 . S
C382 C383 1.334 1_556 S
C383 H360 0.950 . S
C383 C382 1.334 1_554 S
C383 C384 1.287 . S
C384 C383 1.287 . S
C384 C385 1.524 . S
C384 H403 0.913 . S
C385 H361 0.950 . S
C385 C384 1.524 . S
C385 C386 1.415 . S
C386 H362 0.950 . S
C386 C381 1.363 1_554 S
C386 C385 1.415 . S
C387 H363 0.951 . S
C387 C388 1.366 . S
C387 C389 1.388 . S
C388 C387 1.366 . S
C388 C392 1.385 . S
C389 H364 0.951 . S
C389 C387 1.388 . S
C389 C390 1.366 . S
C390 C389 1.366 . S
C390 C391 1.414 . S
C390 C393 1.499 . S
C391 H365 0.950 . S
C391 C390 1.414 . S
C391 C392 1.374 . S
C392 H366 0.950 . S
C392 C388 1.385 . S
C392 C391 1.374 . S
C393 C390 1.499 . S
C393 C394 1.373 . S
C393 C395 1.389 . S
C394 H367 0.950 . S
C394 C380 1.377 . S
C394 C393 1.373 . S
C395 C379 1.377 . S
C395 C393 1.389 . S
C395 C396 1.524 . S
C396 C395 1.524 . S
C396 C397 1.397 . S
C396 C401 1.363 . S
C397 H368 0.950 . S
C397 C396 1.397 . S
C397 C398 1.334 . S
C398 H369 0.950 . S
C398 C397 1.334 . S
C398 C399 1.287 . S
C399 C398 1.287 . S
C399 C400 1.524 . S
C399 H402 0.999 . S
C400 H370 0.950 . S
C400 C399 1.524 . S
C400 C401 1.415 . S
C401 H371 0.950 . S
C401 C396 1.363 . S
C401 C400 1.415 . S
H402 C399 0.999 . S
H403 C384 0.913 . S
H404 C422 0.951 . S
H405 C424 0.951 . S
H406 C426 0.950 . S
H407 C427 0.950 . S
H408 C429 0.950 . S
H409 C432 0.950 . S
H410 C433 0.950 . S
H411 C435 0.950 . S
H412 C436 0.950 . S
H413 C437 0.951 . S
H414 C439 0.951 . S
H415 C441 0.950 . S
H416 C442 0.950 . S
H417 C444 0.950 . S
H418 C447 0.950 . S
H419 C448 0.950 . S
H420 C450 0.950 . S
H421 C451 0.950 . S
C422 H404 0.951 . S
C422 C423 1.366 . S
C422 C424 1.388 . S
C423 C422 1.366 . S
C423 C427 1.385 . S
C424 H405 0.951 . S
C424 C422 1.388 . S
C424 C425 1.366 . S
C425 C424 1.366 . S
C425 C426 1.414 . S
C425 C428 1.499 1_455 S
C426 H406 0.950 . S
C426 C425 1.414 . S
C426 C427 1.374 . S
C427 H407 0.950 . S
C427 C423 1.385 . S
C427 C426 1.374 . S
C428 C425 1.499 1_655 S
C428 C429 1.373 . S
C428 C430 1.389 . S
C429 H408 0.950 . S
C429 C428 1.373 . S
C429 C445 1.377 . S
C430 C428 1.389 . S
C430 C431 1.551 . S
C430 C444 1.377 . S
C431 C430 1.551 . S
C431 C432 1.379 1_655 S
C431 C436 1.357 . S
C432 H409 0.950 . S
C432 C431 1.379 1_455 S
C432 C433 1.334 . S
C433 H410 0.950 . S
C433 C432 1.334 . S
C433 C434 1.287 . S
C434 C433 1.287 . S
C434 C435 1.524 . S
C434 H453 0.913 . S
C435 H411 0.950 . S
C435 C434 1.524 . S
C435 C436 1.415 1_455 S
C436 H412 0.950 . S
C436 C431 1.357 . S
C436 C435 1.415 1_655 S
C437 H413 0.951 . S
C437 C438 1.366 . S
C437 C439 1.388 . S
C438 C437 1.366 . S
C438 C442 1.385 . S
C439 H414 0.951 . S
C439 C437 1.388 . S
C439 C440 1.366 . S
C440 C439 1.366 . S
C440 C441 1.414 . S
C440 C443 1.499 . S
C441 H415 0.950 . S
C441 C440 1.414 . S
C441 C442 1.374 . S
C442 H416 0.950 . S
C442 C438 1.385 . S
C442 C441 1.374 . S
C443 C440 1.499 . S
C443 C444 1.373 . S
C443 C445 1.389 . S
C444 H417 0.950 . S
C444 C430 1.377 . S
C444 C443 1.373 . S
C445 C429 1.377 . S
C445 C443 1.389 . S
C445 C446 1.524 . S
C446 C445 1.524 . S
C446 C447 1.397 . S
C446 C451 1.363 . S
C447 H418 0.950 . S
C447 C446 1.397 . S
C447 C448 1.334 . S
C448 H419 0.950 . S
C448 C447 1.334 . S
C448 C449 1.287 . S
C449 C448 1.287 . S
C449 C450 1.524 . S
C449 H452 0.999 . S
C450 H420 0.950 . S
C450 C449 1.524 . S
C450 C451 1.415 . S
C451 H421 0.950 . S
C451 C446 1.363 . S
C451 C450 1.415 . S
H452 C449 0.999 . S
H453 C434 0.913 . S
H454 C472 0.951 . S
H455 C474 0.951 . S
H456 C476 0.950 . S
H457 C477 0.950 . S
H458 C479 0.950 . S
H459 C482 0.950 . S
H460 C483 0.950 . S
H461 C485 0.950 . S
H462 C486 0.950 1_565 S
H463 C487 0.951 . S
H464 C489 0.951 . S
H465 C491 0.950 . S
H466 C492 0.950 . S
H467 C494 0.950 . S
H468 C497 0.950 . S
H469 C498 0.950 . S
H470 C500 0.950 . S
H471 C501 0.950 . S
C472 H454 0.951 . S
C472 C473 1.366 . S
C472 C474 1.388 . S
C473 C472 1.366 . S
C473 C477 1.385 . S
C474 H455 0.951 . S
C474 C472 1.388 . S
C474 C475 1.366 . S
C475 C474 1.366 . S
C475 C476 1.414 . S
C475 C478 1.499 1_545 S
C476 H456 0.950 . S
C476 C475 1.414 . S
C476 C477 1.374 . S
C477 H457 0.950 . S
C477 C473 1.385 . S
C477 C476 1.374 . S
C478 C475 1.499 1_565 S
C478 C479 1.373 . S
C478 C480 1.389 . S
C479 H458 0.950 . S
C479 C478 1.373 . S
C479 C495 1.377 . S
C480 C478 1.389 . S
C480 C481 1.524 1_565 S
C480 C494 1.377 . S
C481 C480 1.524 1_545 S
C481 C482 1.397 . S
C481 C486 1.363 . S
C482 H459 0.950 . S
C482 C481 1.397 . S
C482 C483 1.334 . S
C483 H460 0.950 . S
C483 C482 1.334 . S
C483 C484 1.287 . S
C484 C483 1.287 . S
C484 C485 1.524 . S
C484 H503 0.913 . S
C485 H461 0.950 . S
C485 C484 1.524 . S
C485 C486 1.415 . S
C486 H462 0.950 1_545 S
C486 C481 1.363 . S
C486 C485 1.415 . S
C487 H463 0.951 . S
C487 C488 1.366 . S
C487 C489 1.388 . S
C488 C487 1.366 . S
C488 C492 1.385 . S
C489 H464 0.951 . S
C489 C487 1.388 . S
C489 C490 1.366 . S
C490 C489 1.366 . S
C490 C491 1.414 . S
C490 C493 1.499 . S
C491 H465 0.950 . S
C491 C490 1.414 . S
C491 C492 1.374 . S
C492 H466 0.950 . S
C492 C488 1.385 . S
C492 C491 1.374 . S
C493 C490 1.499 . S
C493 C494 1.373 . S
C493 C495 1.389 . S
C494 H467 0.950 . S
C494 C480 1.377 . S
C494 C493 1.373 . S
C495 C479 1.377 . S
C495 C493 1.389 . S
C495 C496 1.524 . S
C496 C495 1.524 . S
C496 C497 1.397 . S
C496 C501 1.363 . S
C497 H468 0.950 . S
C497 C496 1.397 . S
C497 C498 1.334 . S
C498 H469 0.950 . S
C498 C497 1.334 . S
C498 C499 1.287 . S
C499 C498 1.287 . S
C499 C500 1.524 . S
C499 H502 0.999 . S
C500 H470 0.950 . S
C500 C499 1.524 . S
C500 C501 1.415 . S
C501 H471 0.950 . S
C501 C496 1.363 . S
C501 C500 1.415 . S
H502 C499 0.999 . S
H503 C484 0.913 . S
H504 C522 0.951 . S
H505 C524 0.951 . S
H506 C526 0.950 . S
H507 C527 0.950 . S
H508 C529 0.950 . S
H509 C532 0.950 . S
H510 C533 0.950 . S
H511 C535 0.950 . S
H512 C536 0.950 . S
H513 C537 0.951 . S
H514 C539 0.951 . S
H515 C541 0.950 . S
H516 C542 0.950 . S
H517 C544 0.950 . S
H518 C547 0.950 . S
H519 C548 0.950 . S
H520 C550 0.950 . S
H521 C551 0.950 . S
C522 H504 0.951 . S
C522 C523 1.366 . S
C522 C524 1.388 . S
C523 C522 1.366 . S
C523 C527 1.385 . S
C524 H505 0.951 . S
C524 C522 1.388 . S
C524 C525 1.366 . S
C525 C524 1.366 . S
C525 C526 1.414 . S
C525 C528 1.499 . S
C526 H506 0.950 . S
C526 C525 1.414 . S
C526 C527 1.374 . S
C527 H507 0.950 . S
C527 C523 1.385 . S
C527 C526 1.374 . S
C528 C525 1.499 . S
C528 C529 1.373 . S
C528 C530 1.389 . S
C529 H508 0.950 . S
C529 C528 1.373 . S
C529 C545 1.377 . S
C530 C528 1.389 . S
C530 C531 1.524 . S
C530 C544 1.377 . S
C531 C530 1.524 . S
C531 C532 1.397 . S
C531 C536 1.363 . S
C532 H509 0.950 . S
C532 C531 1.397 . S
C532 C533 1.334 . S
C533 H510 0.950 . S
C533 C532 1.334 . S
C533 C534 1.287 . S
C534 C533 1.287 . S
C534 C535 1.524 . S
C534 H553 0.913 . S
C535 H511 0.950 . S
C535 C534 1.524 . S
C535 C536 1.415 . S
C536 H512 0.950 . S
C536 C531 1.363 . S
C536 C535 1.415 . S
C537 H513 0.951 . S
C537 C538 1.366 . S
C537 C539 1.388 . S
C538 C537 1.366 . S
C538 C542 1.385 . S
C539 H514 0.951 . S
C539 C537 1.388 . S
C539 C540 1.366 . S
C540 C539 1.366 . S
C540 C541 1.414 . S
C540 C543 1.499 . S
C541 H515 0.950 . S
C541 C540 1.414 . S
C541 C542 1.374 . S
C542 H516 0.950 . S
C542 C538 1.385 . S
C542 C541 1.374 . S
C543 C540 1.499 . S
C543 C544 1.373 . S
C543 C545 1.389 . S
C544 H517 0.950 . S
C544 C530 1.377 . S
C544 C543 1.373 . S
C545 C529 1.377 . S
C545 C543 1.389 . S
C545 C546 1.524 . S
C546 C545 1.524 . S
C546 C547 1.397 . S
C546 C551 1.363 . S
C547 H518 0.950 . S
C547 C546 1.397 . S
C547 C548 1.334 . S
C548 H519 0.950 . S
C548 C547 1.334 . S
C548 C549 1.287 . S
C549 C548 1.287 . S
C549 C550 1.524 . S
C549 H552 0.999 . S
C550 H520 0.950 . S
C550 C549 1.524 . S
C550 C551 1.415 . S
C551 H521 0.950 . S
C551 C546 1.363 . S
C551 C550 1.415 . S
H552 C549 0.999 . S
H553 C534 0.913 . S
H554 C572 0.951 . S
H555 C574 0.951 . S
H556 C576 0.950 . S
H557 C577 0.950 . S
H558 C579 0.950 . S
H559 C582 0.950 . S
H560 C583 0.950 . S
H561 C585 0.950 . S
H562 C586 0.950 . S
H563 C587 0.951 . S
H564 C589 0.951 . S
H565 C591 0.950 . S
H566 C592 0.950 . S
H567 C594 0.950 . S
H568 C597 0.950 . S
H569 C598 0.950 . S
H570 C600 0.950 . S
H571 C601 0.950 . S
C572 H554 0.951 . S
C572 C573 1.366 . S
C572 C574 1.388 . S
C573 C572 1.366 . S
C573 C577 1.385 . S
C574 H555 0.951 . S
C574 C572 1.388 . S
C574 C575 1.366 1_554 S
C575 C574 1.366 1_556 S
C575 C576 1.414 1_556 S
C575 C578 1.499 . S
C576 H556 0.950 . S
C576 C575 1.414 1_554 S
C576 C577 1.374 . S
C577 H557 0.950 . S
C577 C573 1.385 . S
C577 C576 1.374 . S
C578 C575 1.499 . S
C578 C579 1.373 . S
C578 C580 1.389 . S
C579 H558 0.950 . S
C579 C578 1.373 . S
C579 C595 1.377 . S
C580 C578 1.389 . S
C580 C581 1.524 . S
C580 C594 1.377 . S
C581 C580 1.524 . S
C581 C582 1.397 . S
C581 C586 1.363 . S
C582 H559 0.950 . S
C582 C581 1.397 . S
C582 C583 1.334 . S
C583 H560 0.950 . S
C583 C582 1.334 . S
C583 C584 1.287 . S
C584 C583 1.287 . S
C584 C585 1.524 . S
C584 H603 0.913 . S
C585 H561 0.950 . S
C585 C584 1.524 . S
C585 C586 1.415 . S
C586 H562 0.950 . S
C586 C581 1.363 . S
C586 C585 1.415 . S
C587 H563 0.951 . S
C587 C588 1.366 . S
C587 C589 1.388 . S
C588 C587 1.366 . S
C588 C592 1.385 . S
C589 H564 0.951 . S
C589 C587 1.388 . S
C589 C590 1.366 . S
C590 C589 1.366 . S
C590 C591 1.414 . S
C590 C593 1.499 . S
C591 H565 0.950 . S
C591 C590 1.414 . S
C591 C592 1.374 . S
C592 H566 0.950 . S
C592 C588 1.385 . S
C592 C591 1.374 . S
C593 C590 1.499 . S
C593 C594 1.373 . S
C593 C595 1.389 . S
C594 H567 0.950 . S
C594 C580 1.377 . S
C594 C593 1.373 . S
C595 C579 1.377 . S
C595 C593 1.389 . S
C595 C596 1.524 . S
C596 C595 1.524 . S
C596 C597 1.397 . S
C596 C601 1.363 . S
C597 H568 0.950 . S
C597 C596 1.397 . S
C597 C598 1.334 . S
C598 H569 0.950 . S
C598 C597 1.334 . S
C598 C599 1.287 . S
C599 C598 1.287 . S
C599 C600 1.524 . S
C599 H602 0.999 . S
C600 H570 0.950 . S
C600 C599 1.524 . S
C600 C601 1.415 . S
C601 H571 0.950 . S
C601 C596 1.363 . S
C601 C600 1.415 . S
H602 C599 0.999 . S
H603 C584 0.913 . S
H604 C622 0.951 . S
H605 C624 0.951 . S
H606 C626 0.950 . S
H607 C627 0.950 . S
H608 C629 0.950 . S
H609 C632 0.950 . S
H610 C633 0.950 . S
H611 C635 0.950 . S
H612 C636 0.950 . S
H613 C637 0.951 . S
H614 C639 0.951 . S
H615 C641 0.950 . S
H616 C642 0.950 . S
H617 C644 0.950 . S
H618 C647 0.950 . S
H619 C648 0.950 . S
H620 C650 0.950 . S
H621 C651 0.950 . S
C622 H604 0.951 . S
C622 C623 1.366 . S
C622 C624 1.388 . S
C623 C622 1.366 . S
C623 C627 1.385 . S
C624 H605 0.951 . S
C624 C622 1.388 . S
C624 C625 1.366 . S
C625 C624 1.366 . S
C625 C626 1.414 . S
C625 C628 1.499 . S
C626 H606 0.950 . S
C626 C625 1.414 . S
C626 C627 1.374 . S
C627 H607 0.950 . S
C627 C623 1.385 . S
C627 C626 1.374 . S
C628 C625 1.499 . S
C628 C629 1.373 . S
C628 C630 1.389 . S
C629 H608 0.950 . S
C629 C628 1.373 . S
C629 C645 1.377 . S
C630 C628 1.389 . S
C630 C631 1.524 . S
C630 C644 1.377 . S
C631 C630 1.524 . S
C631 C632 1.397 . S
C631 C636 1.363 . S
C632 H609 0.950 . S
C632 C631 1.397 . S
C632 C633 1.334 . S
C633 H610 0.950 . S
C633 C632 1.334 . S
C633 C634 1.287 . S
C634 C633 1.287 . S
C634 C635 1.524 . S
C634 H653 0.913 . S
C635 H611 0.950 . S
C635 C634 1.524 . S
C635 C636 1.415 . S
C636 H612 0.950 . S
C636 C631 1.363 . S
C636 C635 1.415 . S
C637 H613 0.951 . S
C637 C638 1.366 . S
C637 C639 1.388 1_556 S
C638 C637 1.366 . S
C638 C642 1.385 . S
C639 H614 0.951 . S
C639 C637 1.388 1_554 S
C639 C640 1.366 . S
C640 C639 1.366 . S
C640 C641 1.414 . S
C640 C643 1.499 . S
C641 H615 0.950 . S
C641 C640 1.414 . S
C641 C642 1.374 1_554 S
C642 H616 0.950 . S
C642 C638 1.385 . S
C642 C641 1.374 1_556 S
C643 C640 1.499 . S
C643 C644 1.373 . S
C643 C645 1.389 . S
C644 H617 0.950 . S
C644 C630 1.377 . S
C644 C643 1.373 . S
C645 C629 1.377 . S
C645 C643 1.389 . S
C645 C646 1.524 . S
C646 C645 1.524 . S
C646 C647 1.397 . S
C646 C651 1.363 . S
C647 H618 0.950 . S
C647 C646 1.397 . S
C647 C648 1.334 . S
C648 H619 0.950 . S
C648 C647 1.334 . S
C648 C649 1.287 . S
C649 C648 1.287 . S
C649 C650 1.524 . S
C649 H652 0.999 . S
C650 H620 0.950 . S
C650 C649 1.524 . S
C650 C651 1.415 . S
C651 H621 0.950 . S
C651 C646 1.363 . S
C651 C650 1.415 . S
H652 C649 0.999 . S
H653 C634 0.913 . S
H654 C672 0.951 . S
H655 C674 0.951 . S
H656 C676 0.950 . S
H657 C677 0.950 . S
H658 C679 0.950 . S
H659 C682 0.950 . S
H660 C683 0.950 . S
H661 C685 0.950 . S
H662 C686 0.950 . S
H663 C687 0.951 . S
H664 C689 0.951 . S
H665 C691 0.950 . S
H666 C692 0.950 . S
H667 C694 0.950 . S
H668 C697 0.950 . S
H669 C698 0.950 . S
H670 C700 0.950 . S
H671 C701 0.950 . S
C672 H654 0.951 . S
C672 C673 1.366 . S
C672 C674 1.388 . S
C673 C672 1.366 . S
C673 C677 1.385 . S
C674 H655 0.951 . S
C674 C672 1.388 . S
C674 C675 1.366 . S
C675 C674 1.366 . S
C675 C676 1.414 . S
C675 C678 1.499 . S
C676 H656 0.950 . S
C676 C675 1.414 . S
C676 C677 1.374 . S
C677 H657 0.950 . S
C677 C673 1.385 . S
C677 C676 1.374 . S
C678 C675 1.499 . S
C678 C679 1.373 . S
C678 C680 1.389 . S
C679 H658 0.950 . S
C679 C678 1.373 . S
C679 C695 1.377 . S
C680 C678 1.389 . S
C680 C681 1.524 . S
C680 C694 1.377 . S
C681 C680 1.524 . S
C681 C682 1.397 . S
C681 C686 1.363 . S
C682 H659 0.950 . S
C682 C681 1.397 . S
C682 C683 1.334 . S
C683 H660 0.950 . S
C683 C682 1.334 . S
C683 C684 1.287 . S
C684 C683 1.287 . S
C684 C685 1.524 . S
C684 H703 0.913 . S
C685 H661 0.950 . S
C685 C684 1.524 . S
C685 C686 1.415 . S
C686 H662 0.950 . S
C686 C681 1.363 . S
C686 C685 1.415 . S
C687 H663 0.951 . S
C687 C688 1.366 . S
C687 C689 1.388 . S
C688 C687 1.366 . S
C688 C692 1.385 . S
C689 H664 0.951 . S
C689 C687 1.388 . S
C689 C690 1.366 . S
C690 C689 1.366 . S
C690 C691 1.414 . S
C690 C693 1.499 . S
C691 H665 0.950 . S
C691 C690 1.414 . S
C691 C692 1.374 . S
C692 H666 0.950 . S
C692 C688 1.385 . S
C692 C691 1.374 . S
C693 C690 1.499 . S
C693 C694 1.373 . S
C693 C695 1.389 . S
C694 H667 0.950 . S
C694 C680 1.377 . S
C694 C693 1.373 . S
C695 C679 1.377 . S
C695 C693 1.389 . S
C695 C696 1.524 . S
C696 C695 1.524 . S
C696 C697 1.397 . S
C696 C701 1.363 . S
C697 H668 0.950 . S
C697 C696 1.397 . S
C697 C698 1.334 . S
C698 H669 0.950 . S
C698 C697 1.334 . S
C698 C699 1.287 . S
C699 C698 1.287 . S
C699 C700 1.524 . S
C699 H702 0.999 . S
C700 H670 0.950 . S
C700 C699 1.524 . S
C700 C701 1.415 . S
C701 H671 0.950 . S
C701 C696 1.363 . S
C701 C700 1.415 . S
H702 C699 0.999 . S
H703 C684 0.913 . S
H704 C722 0.951 . S
H705 C724 0.951 . S
H706 C726 0.950 . S
H707 C727 0.950 . S
H708 C729 0.950 . S
H709 C732 0.950 . S
H710 C733 0.950 . S
H711 C735 0.950 . S
H712 C736 0.950 . S
H713 C737 0.951 . S
H714 C739 0.951 . S
H715 C741 0.950 . S
H716 C742 0.950 . S
H717 C744 0.950 . S
H718 C747 0.950 . S
H719 C748 0.950 . S
H720 C750 0.950 . S
H721 C751 0.950 . S
C722 H704 0.951 . S
C722 C723 1.366 . S
C722 C724 1.388 . S
C723 C722 1.366 . S
C723 C727 1.385 . S
C724 H705 0.951 . S
C724 C722 1.388 . S
C724 C725 1.366 . S
C725 C724 1.366 . S
C725 C726 1.414 . S
C725 C728 1.499 . S
C726 H706 0.950 . S
C726 C725 1.414 . S
C726 C727 1.374 . S
C727 H707 0.950 . S
C727 C723 1.385 . S
C727 C726 1.374 . S
C728 C725 1.499 . S
C728 C729 1.373 . S
C728 C730 1.389 . S
C729 H708 0.950 . S
C729 C728 1.373 . S
C729 C745 1.377 . S
C730 C728 1.389 . S
C730 C731 1.524 . S
C730 C744 1.377 . S
C731 C730 1.524 . S
C731 C732 1.397 . S
C731 C736 1.363 . S
C732 H709 0.950 . S
C732 C731 1.397 . S
C732 C733 1.334 . S
C733 H710 0.950 . S
C733 C732 1.334 . S
C733 C734 1.287 . S
C734 C733 1.287 . S
C734 C735 1.524 . S
C734 H753 0.913 . S
C735 H711 0.950 . S
C735 C734 1.524 . S
C735 C736 1.415 . S
C736 H712 0.950 . S
C736 C731 1.363 . S
C736 C735 1.415 . S
C737 H713 0.951 . S
C737 C738 1.366 . S
C737 C739 1.388 . S
C738 C737 1.366 . S
C738 C742 1.385 . S
C739 H714 0.951 . S
C739 C737 1.388 . S
C739 C740 1.366 . S
C740 C739 1.366 . S
C740 C741 1.414 . S
C740 C743 1.499 1_554 S
C741 H715 0.950 . S
C741 C740 1.414 . S
C741 C742 1.374 . S
C742 H716 0.950 . S
C742 C738 1.385 . S
C742 C741 1.374 . S
C743 C740 1.499 1_556 S
C743 C744 1.373 . S
C743 C745 1.389 . S
C744 H717 0.950 . S
C744 C730 1.377 . S
C744 C743 1.373 . S
C745 C729 1.377 . S
C745 C743 1.389 . S
C745 C746 1.524 . S
C746 C745 1.524 . S
C746 C747 1.397 . S
C746 C751 1.363 . S
C747 H718 0.950 . S
C747 C746 1.397 . S
C747 C748 1.334 1_556 S
C748 H719 0.950 . S
C748 C747 1.334 1_554 S
C748 C749 1.287 . S
C749 C748 1.287 . S
C749 C750 1.524 1_554 S
C749 H752 0.999 . S
C750 H720 0.950 . S
C750 C749 1.524 1_556 S
C750 C751 1.415 . S
C751 H721 0.950 . S
C751 C746 1.363 . S
C751 C750 1.415 . S
H752 C749 0.999 . S
H753 C734 0.913 . S
H754 C772 0.951 . S
H755 C774 0.951 . S
H756 C776 0.950 . S
H757 C777 0.950 . S
H758 C779 0.950 . S
H759 C782 0.950 . S
H760 C783 0.950 . S
H761 C785 0.950 . S
H762 C786 0.950 . S
H763 C787 0.951 . S
H764 C789 0.951 . S
H765 C791 0.950 1_554 S
H766 C792 0.950 . S
H767 C794 0.950 . S
H768 C797 0.950 . S
H769 C798 0.950 1_556 S
H770 C800 0.950 . S
H771 C801 0.950 . S
C772 H754 0.951 . S
C772 C773 1.366 . S
C772 C774 1.388 . S
C773 C772 1.366 . S
C773 C777 1.385 . S
C774 H755 0.951 . S
C774 C772 1.388 . S
C774 C775 1.366 . S
C775 C774 1.366 . S
C775 C776 1.414 . S
C775 C778 1.499 . S
C776 H756 0.950 . S
C776 C775 1.414 . S
C776 C777 1.374 . S
C777 H757 0.950 . S
C777 C773 1.385 . S
C777 C776 1.374 . S
C778 C775 1.499 . S
C778 C779 1.373 . S
C778 C780 1.389 . S
C779 H758 0.950 . S
C779 C778 1.373 . S
C779 C795 1.377 . S
C780 C778 1.389 . S
C780 C781 1.524 . S
C780 C794 1.377 . S
C781 C780 1.524 . S
C781 C782 1.397 . S
C781 C786 1.363 . S
C782 H759 0.950 . S
C782 C781 1.397 . S
C782 C783 1.334 . S
C783 H760 0.950 . S
C783 C782 1.334 . S
C783 C784 1.287 . S
C784 C783 1.287 . S
C784 C785 1.524 . S
C784 H803 0.913 . S
C785 H761 0.950 . S
C785 C784 1.524 . S
C785 C786 1.415 . S
C786 H762 0.950 . S
C786 C781 1.363 . S
C786 C785 1.415 . S
C787 H763 0.951 . S
C787 C788 1.366 . S
C787 C789 1.388 . S
C788 C787 1.366 . S
C788 C792 1.385 . S
C789 H764 0.951 . S
C789 C787 1.388 . S
C789 C790 1.366 1_556 S
C790 C789 1.366 1_554 S
C790 C791 1.414 1_554 S
C790 C793 1.499 . S
C791 H765 0.950 1_556 S
C791 C790 1.414 1_556 S
C791 C792 1.374 . S
C792 H766 0.950 . S
C792 C788 1.385 . S
C792 C791 1.374 . S
C793 C790 1.499 . S
C793 C794 1.373 . S
C793 C795 1.389 . S
C794 H767 0.950 . S
C794 C780 1.377 . S
C794 C793 1.373 . S
C795 C779 1.377 . S
C795 C793 1.389 . S
C795 C796 1.524 . S
C796 C795 1.524 . S
C796 C797 1.397 . S
C796 C801 1.363 . S
C797 H768 0.950 . S
C797 C796 1.397 . S
C797 C798 1.334 . S
C798 H769 0.950 1_554 S
C798 C797 1.334 . S
C798 C799 1.287 . S
C799 C798 1.287 . S
C799 C800 1.524 . S
C799 H802 0.999 1_554 S
C800 H770 0.950 . S
C800 C799 1.524 . S
C800 C801 1.415 . S
C801 H771 0.950 . S
C801 C796 1.363 . S
C801 C800 1.415 . S
H802 C799 0.999 1_556 S
H803 C784 0.913 . S
H804 C822 0.951 . S
H805 C824 0.951 . S
H806 C826 0.950 . S
H807 C827 0.950 . S
H808 C829 0.950 . S
H809 C832 0.950 . S
H810 C833 0.950 . S
H811 C835 0.950 . S
H812 C836 0.950 . S
H813 C837 0.951 . S
H814 C839 0.951 . S
H815 C841 0.950 . S
H816 C842 0.950 . S
H817 C844 0.950 . S
H818 C847 0.950 . S
H819 C848 0.950 . S
H820 C850 0.950 1_556 S
H821 C851 0.950 . S
C822 H804 0.951 . S
C822 C823 1.366 . S
C822 C824 1.388 . S
C823 C822 1.366 . S
C823 C827 1.385 . S
C824 H805 0.951 . S
C824 C822 1.388 . S
C824 C825 1.366 . S
C825 C824 1.366 . S
C825 C826 1.414 . S
C825 C828 1.499 . S
C826 H806 0.950 . S
C826 C825 1.414 . S
C826 C827 1.374 . S
C827 H807 0.950 . S
C827 C823 1.385 . S
C827 C826 1.374 . S
C828 C825 1.499 . S
C828 C829 1.373 . S
C828 C830 1.389 . S
C829 H808 0.950 . S
C829 C828 1.373 . S
C829 C845 1.377 . S
C830 C828 1.389 . S
C830 C831 1.524 . S
C830 C844 1.377 . S
C831 C830 1.524 . S
C831 C832 1.397 . S
C831 C836 1.363 . S
C832 H809 0.950 . S
C832 C831 1.397 . S
C832 C833 1.334 . S
C833 H810 0.950 . S
C833 C832 1.334 . S
C833 C834 1.287 . S
C834 C833 1.287 . S
C834 C835 1.524 . S
C834 H853 0.913 . S
C835 H811 0.950 . S
C835 C834 1.524 . S
C835 C836 1.415 . S
C836 H812 0.950 . S
C836 C831 1.363 . S
C836 C835 1.415 . S
C837 H813 0.951 . S
C837 C838 1.366 . S
C837 C839 1.388 . S
C838 C837 1.366 . S
C838 C842 1.385 . S
C839 H814 0.951 . S
C839 C837 1.388 . S
C839 C840 1.366 . S
C840 C839 1.366 . S
C840 C841 1.414 . S
C840 C843 1.499 . S
C841 H815 0.950 . S
C841 C840 1.414 . S
C841 C842 1.374 . S
C842 H816 0.950 . S
C842 C838 1.385 . S
C842 C841 1.374 . S
C843 C840 1.499 . S
C843 C844 1.373 . S
C843 C845 1.389 . S
C844 H817 0.950 . S
C844 C830 1.377 . S
C844 C843 1.373 . S
C845 C829 1.377 . S
C845 C843 1.389 . S
C845 C846 1.524 . S
C846 C845 1.524 . S
C846 C847 1.397 . S
C846 C851 1.363 . S
C847 H818 0.950 . S
C847 C846 1.397 . S
C847 C848 1.334 . S
C848 H819 0.950 . S
C848 C847 1.334 . S
C848 C849 1.287 . S
C849 C848 1.287 . S
C849 C850 1.524 . S
C849 H852 0.999 1_554 S
C850 H820 0.950 1_554 S
C850 C849 1.524 . S
C850 C851 1.415 . S
C851 H821 0.950 . S
C851 C846 1.363 . S
C851 C850 1.415 . S
H852 C849 0.999 1_556 S
H853 C834 0.913 . S
H854 C872 0.951 . S
H855 C874 0.951 . S
H856 C876 0.950 . S
H857 C877 0.950 . S
H858 C879 0.950 . S
H859 C882 0.950 . S
H860 C883 0.950 . S
H861 C885 0.950 . S
H862 C886 0.950 . S
H863 C887 0.951 . S
H864 C889 0.951 . S
H865 C891 0.950 . S
H866 C892 0.950 . S
H867 C894 0.950 . S
H868 C897 0.950 . S
H869 C898 0.950 . S
H870 C900 0.950 . S
H871 C901 0.950 . S
C872 H854 0.951 . S
C872 C873 1.366 . S
C872 C874 1.388 . S
C873 C872 1.366 . S
C873 C877 1.385 . S
C874 H855 0.951 . S
C874 C872 1.388 . S
C874 C875 1.366 . S
C875 C874 1.366 . S
C875 C876 1.414 . S
C875 C878 1.499 . S
C876 H856 0.950 . S
C876 C875 1.414 . S
C876 C877 1.374 . S
C877 H857 0.950 . S
C877 C873 1.385 . S
C877 C876 1.374 . S
C878 C875 1.499 . S
C878 C879 1.373 . S
C878 C880 1.389 . S
C879 H858 0.950 . S
C879 C878 1.373 . S
C879 C895 1.377 . S
C880 C878 1.389 . S
C880 C881 1.524 . S
C880 C894 1.377 . S
C881 C880 1.524 . S
C881 C882 1.397 . S
C881 C886 1.363 . S
C882 H859 0.950 . S
C882 C881 1.397 . S
C882 C883 1.334 . S
C883 H860 0.950 . S
C883 C882 1.334 . S
C883 C884 1.287 . S
C884 C883 1.287 . S
C884 C885 1.524 . S
C884 H903 0.913 . S
C885 H861 0.950 . S
C885 C884 1.524 . S
C885 C886 1.415 . S
C886 H862 0.950 . S
C886 C881 1.363 . S
C886 C885 1.415 . S
C887 H863 0.951 . S
C887 C888 1.366 . S
C887 C889 1.388 . S
C888 C887 1.366 . S
C888 C892 1.385 . S
C889 H864 0.951 . S
C889 C887 1.388 . S
C889 C890 1.366 . S
C890 C889 1.366 . S
C890 C891 1.414 . S
C890 C893 1.499 . S
C891 H865 0.950 . S
C891 C890 1.414 . S
C891 C892 1.374 . S
C892 H866 0.950 . S
C892 C888 1.385 . S
C892 C891 1.374 . S
C893 C890 1.499 . S
C893 C894 1.373 . S
C893 C895 1.389 . S
C894 H867 0.950 . S
C894 C880 1.377 . S
C894 C893 1.373 . S
C895 C879 1.377 . S
C895 C893 1.389 . S
C895 C896 1.524 . S
C896 C895 1.524 . S
C896 C897 1.397 . S
C896 C901 1.363 . S
C897 H868 0.950 . S
C897 C896 1.397 . S
C897 C898 1.334 . S
C898 H869 0.950 . S
C898 C897 1.334 . S
C898 C899 1.287 . S
C899 C898 1.287 . S
C899 C900 1.524 . S
C899 H902 0.999 . S
C900 H870 0.950 . S
C900 C899 1.524 . S
C900 C901 1.415 . S
C901 H871 0.950 . S
C901 C896 1.363 . S
C901 C900 1.415 . S
H902 C899 0.999 . S
H903 C884 0.913 . S
H904 C922 0.951 . S
H905 C924 0.951 . S
H906 C926 0.946 1_554 S
H907 C927 0.950 . S
H908 C929 0.950 1_554 S
H909 C932 0.950 . S
H910 C933 0.950 . S
H911 C935 0.950 . S
H912 C936 0.950 . S
H913 C937 0.951 . S
H914 C939 0.951 . S
H915 C941 0.950 . S
H916 C942 0.950 . S
H917 C944 0.950 . S
H918 C947 0.950 1_556 S
H919 C948 0.950 . S
H920 C950 0.950 . S
H921 C951 0.950 . S
C922 H904 0.951 . S
C922 C923 1.366 1_556 S
C922 C924 1.388 . S
C923 C922 1.366 1_554 S
C923 C927 1.385 . S
C924 H905 0.951 . S
C924 C922 1.388 . S
C924 C925 1.366 . S
C925 C924 1.366 . S
C925 C926 1.424 . S
C925 C928 1.499 . S
C926 H906 0.946 1_556 S
C926 C925 1.424 . S
C926 C927 1.369 1_556 S
C927 H907 0.950 . S
C927 C923 1.385 . S
C927 C926 1.369 1_554 S
C928 C925 1.499 . S
C928 C929 1.373 . S
C928 C930 1.389 . S
C929 H908 0.950 1_556 S
C929 C928 1.373 . S
C929 C945 1.377 . S
C930 C928 1.389 . S
C930 C931 1.524 . S
C930 C944 1.377 . S
C931 C930 1.524 . S
C931 C932 1.397 . S
C931 C936 1.363 . S
C932 H909 0.950 . S
C932 C931 1.397 . S
C932 C933 1.334 . S
C933 H910 0.950 . S
C933 C932 1.334 . S
C933 C934 1.287 . S
C934 C933 1.287 . S
C934 C935 1.524 . S
C934 H953 0.913 . S
C935 H911 0.950 . S
C935 C934 1.524 . S
C935 C936 1.415 . S
C936 H912 0.950 . S
C936 C931 1.363 . S
C936 C935 1.415 . S
C937 H913 0.951 . S
C937 C938 1.366 . S
C937 C939 1.388 . S
C938 C937 1.366 . S
C938 C942 1.385 . S
C939 H914 0.951 . S
C939 C937 1.388 . S
C939 C940 1.366 . S
C940 C939 1.366 . S
C940 C941 1.414 . S
C940 C943 1.499 . S
C941 H915 0.950 . S
C941 C940 1.414 . S
C941 C942 1.374 . S
C942 H916 0.950 . S
C942 C938 1.385 . S
C942 C941 1.374 . S
C943 C940 1.499 . S
C943 C944 1.373 . S
C943 C945 1.389 . S
C944 H917 0.950 . S
C944 C930 1.377 . S
C944 C943 1.373 . S
C945 C929 1.377 . S
C945 C943 1.389 . S
C945 C946 1.524 1_556 S
C946 C945 1.524 1_554 S
C946 C947 1.397 . S
C946 C951 1.363 . S
C947 H918 0.950 1_554 S
C947 C946 1.397 . S
C947 C948 1.334 . S
C948 H919 0.950 . S
C948 C947 1.334 . S
C948 C949 1.287 . S
C949 C948 1.287 . S
C949 C950 1.524 . S
C949 H952 0.999 . S
C950 H920 0.950 . S
C950 C949 1.524 . S
C950 C951 1.415 . S
C951 H921 0.950 . S
C951 C946 1.363 . S
C951 C950 1.415 . S
H952 C949 0.999 . S
H953 C934 0.913 . S
H954 C972 0.951 . S
H955 C974 0.951 . S
H956 C976 0.950 . S
H957 C977 0.950 . S
H958 C979 0.950 . S
H959 C982 0.950 . S
H960 C983 0.950 1_556 S
H961 C985 0.950 . S
H962 C986 0.950 . S
H963 C987 0.951 . S
H964 C989 0.951 . S
H965 C991 0.950 . S
H966 C992 0.950 . S
H967 C994 0.950 . S
H968 C997 0.950 . S
H969 C998 0.950 . S
H970 C1000 0.950 . S
H971 C1001 0.950 . S
C972 H954 0.951 . S
C972 C973 1.366 . S
C972 C974 1.388 . S
C973 C972 1.366 . S
C973 C977 1.385 . S
C974 H955 0.951 . S
C974 C972 1.388 . S
C974 C975 1.366 . S
C975 C974 1.366 . S
C975 C976 1.414 . S
C975 C978 1.499 . S
C976 H956 0.950 . S
C976 C975 1.414 . S
C976 C977 1.374 . S
C977 H957 0.950 . S
C977 C973 1.385 . S
C977 C976 1.374 . S
C978 C975 1.499 . S
C978 C979 1.373 . S
C978 C980 1.389 . S
C979 H958 0.950 . S
C979 C978 1.373 . S
C979 C995 1.377 . S
C980 C978 1.389 . S
C980 C981 1.524 . S
C980 C994 1.377 . S
C981 C980 1.524 . S
C981 C982 1.397 . S
C981 C986 1.363 . S
C982 H959 0.950 . S
C982 C981 1.397 . S
C982 C983 1.334 . S
C983 H960 0.950 1_554 S
C983 C982 1.334 . S
C983 C984 1.287 . S
C984 C983 1.287 . S
C984 C985 1.524 . S
C984 H1003 0.913 1_554 S
C985 H961 0.950 . S
C985 C984 1.524 . S
C985 C986 1.415 . S
C986 H962 0.950 . S
C986 C981 1.363 . S
C986 C985 1.415 . S
C987 H963 0.951 . S
C987 C988 1.366 . S
C987 C989 1.388 . S
C988 C987 1.366 . S
C988 C992 1.385 . S
C989 H964 0.951 . S
C989 C987 1.388 . S
C989 C990 1.366 . S
C990 C989 1.366 . S
C990 C991 1.414 . S
C990 C993 1.499 . S
C991 H965 0.950 . S
C991 C990 1.414 . S
C991 C992 1.374 . S
C992 H966 0.950 . S
C992 C988 1.385 . S
C992 C991 1.374 . S
C993 C990 1.499 . S
C993 C994 1.373 . S
C993 C995 1.389 . S
C994 H967 0.950 . S
C994 C980 1.377 . S
C994 C993 1.373 . S
C995 C979 1.377 . S
C995 C993 1.389 . S
C995 C996 1.524 . S
C996 C995 1.524 . S
C996 C997 1.397 . S
C996 C1001 1.363 . S
C997 H968 0.950 . S
C997 C996 1.397 . S
C997 C998 1.334 . S
C998 H969 0.950 . S
C998 C997 1.334 . S
C998 C999 1.287 . S
C999 C998 1.287 . S
C999 C1000 1.524 . S
C999 H1002 0.999 . S
C1000 H970 0.950 . S
C1000 C999 1.524 . S
C1000 C1001 1.415 . S
C1001 H971 0.950 . S
C1001 C996 1.363 . S
C1001 C1000 1.415 . S
H1002 C999 0.999 . S
H1003 C984 0.913 1_556 S
H1004 C1022 0.951 . S
H1005 C1024 0.951 . S
H1006 C1026 0.950 . S
H1007 C1027 0.950 . S
H1008 C1029 0.950 . S
H1009 C1032 0.950 . S
H1010 C1033 0.950 . S
H1011 C1035 0.950 . S
H1012 C1036 0.950 . S
H1013 C1037 0.951 . S
H1014 C1039 0.951 . S
H1015 C1041 0.950 . S
H1016 C1042 0.950 . S
H1017 C1044 0.950 . S
H1018 C1047 0.950 . S
H1019 C1048 0.950 . S
H1020 C1050 0.950 . S
H1021 C1051 0.950 . S
C1022 H1004 0.951 . S
C1022 C1023 1.366 . S
C1022 C1024 1.388 . S
C1023 C1022 1.366 . S
C1023 C1027 1.385 . S
C1024 H1005 0.951 . S
C1024 C1022 1.388 . S
C1024 C1025 1.366 . S
C1025 C1024 1.366 . S
C1025 C1026 1.414 . S
C1025 C1028 1.499 . S
C1026 H1006 0.950 . S
C1026 C1025 1.414 . S
C1026 C1027 1.374 . S
C1027 H1007 0.950 . S
C1027 C1023 1.385 . S
C1027 C1026 1.374 . S
C1028 C1025 1.499 . S
C1028 C1029 1.373 . S
C1028 C1030 1.389 . S
C1029 H1008 0.950 . S
C1029 C1028 1.373 . S
C1029 C1045 1.377 . S
C1030 C1028 1.389 . S
C1030 C1031 1.524 . S
C1030 C1044 1.377 . S
C1031 C1030 1.524 . S
C1031 C1032 1.397 . S
C1031 C1036 1.363 . S
C1032 H1009 0.950 . S
C1032 C1031 1.397 . S
C1032 C1033 1.334 . S
C1033 H1010 0.950 . S
C1033 C1032 1.334 . S
C1033 C1034 1.287 . S
C1034 C1033 1.287 . S
C1034 C1035 1.524 . S
C1034 H1053 0.913 . S
C1035 H1011 0.950 . S
C1035 C1034 1.524 . S
C1035 C1036 1.415 . S
C1036 H1012 0.950 . S
C1036 C1031 1.363 . S
C1036 C1035 1.415 . S
C1037 H1013 0.951 . S
C1037 C1038 1.366 . S
C1037 C1039 1.388 . S
C1038 C1037 1.366 . S
C1038 C1042 1.385 . S
C1039 H1014 0.951 . S
C1039 C1037 1.388 . S
C1039 C1040 1.366 . S
C1040 C1039 1.366 . S
C1040 C1041 1.414 . S
C1040 C1043 1.499 . S
C1041 H1015 0.950 . S
C1041 C1040 1.414 . S
C1041 C1042 1.374 . S
C1042 H1016 0.950 . S
C1042 C1038 1.385 . S
C1042 C1041 1.374 . S
C1043 C1040 1.499 . S
C1043 C1044 1.373 . S
C1043 C1045 1.389 . S
C1044 H1017 0.950 . S
C1044 C1030 1.377 . S
C1044 C1043 1.373 . S
C1045 C1029 1.377 . S
C1045 C1043 1.389 . S
C1045 C1046 1.524 . S
C1046 C1045 1.524 . S
C1046 C1047 1.397 . S
C1046 C1051 1.363 . S
C1047 H1018 0.950 . S
C1047 C1046 1.397 . S
C1047 C1048 1.334 . S
C1048 H1019 0.950 . S
C1048 C1047 1.334 . S
C1048 C1049 1.287 . S
C1049 C1048 1.287 . S
C1049 C1050 1.524 . S
C1049 H1052 0.999 . S
C1050 H1020 0.950 . S
C1050 C1049 1.524 . S
C1050 C1051 1.415 . S
C1051 H1021 0.950 . S
C1051 C1046 1.363 . S
C1051 C1050 1.415 . S
H1052 C1049 0.999 . S
H1053 C1034 0.913 . S
H1054 C1072 0.951 1_554 S
H1055 C1074 0.951 . S
H1056 C1076 0.950 . S
H1057 C1077 0.950 . S
H1058 C1079 0.950 . S
H1059 C1082 0.950 . S
H1060 C1083 0.950 . S
H1061 C1085 0.950 . S
H1062 C1086 0.950 . S
H1063 C1087 0.951 . S
H1064 C1089 0.951 . S
H1065 C1091 0.950 . S
H1066 C1092 0.950 . S
H1067 C1094 0.950 . S
H1068 C1097 0.950 . S
H1069 C1098 0.950 . S
H1070 C1100 0.950 . S
H1071 C1101 0.950 . S
C1072 H1054 0.951 1_556 S
C1072 C1073 1.366 . S
C1072 C1074 1.388 . S
C1073 C1072 1.366 . S
C1073 C1077 1.385 . S
C1074 H1055 0.951 . S
C1074 C1072 1.388 . S
C1074 C1075 1.366 . S
C1075 C1074 1.366 . S
C1075 C1076 1.414 . S
C1075 C1078 1.499 . S
C1076 H1056 0.950 . S
C1076 C1075 1.414 . S
C1076 C1077 1.374 . S
C1077 H1057 0.950 . S
C1077 C1073 1.385 . S
C1077 C1076 1.374 . S
C1078 C1075 1.499 . S
C1078 C1079 1.373 . S
C1078 C1080 1.389 . S
C1079 H1058 0.950 . S
C1079 C1078 1.373 . S
C1079 C1095 1.377 . S
C1080 C1078 1.389 . S
C1080 C1081 1.524 . S
C1080 C1094 1.377 . S
C1081 C1080 1.524 . S
C1081 C1082 1.397 . S
C1081 C1086 1.363 1_556 S
C1082 H1059 0.950 . S
C1082 C1081 1.397 . S
C1082 C1083 1.334 1_556 S
C1083 H1060 0.950 . S
C1083 C1082 1.334 1_554 S
C1083 C1084 1.287 . S
C1084 C1083 1.287 . S
C1084 C1085 1.524 . S
C1084 H1103 0.913 . S
C1085 H1061 0.950 . S
C1085 C1084 1.524 . S
C1085 C1086 1.415 . S
C1086 H1062 0.950 . S
C1086 C1081 1.363 1_554 S
C1086 C1085 1.415 . S
C1087 H1063 0.951 . S
C1087 C1088 1.366 . S
C1087 C1089 1.388 . S
C1088 C1087 1.366 . S
C1088 C1092 1.385 . S
C1089 H1064 0.951 . S
C1089 C1087 1.388 . S
C1089 C1090 1.366 . S
C1090 C1089 1.366 . S
C1090 C1091 1.414 . S
C1090 C1093 1.499 . S
C1091 H1065 0.950 . S
C1091 C1090 1.414 . S
C1091 C1092 1.374 . S
C1092 H1066 0.950 . S
C1092 C1088 1.385 . S
C1092 C1091 1.374 . S
C1093 C1090 1.499 . S
C1093 C1094 1.373 . S
C1093 C1095 1.389 . S
C1094 H1067 0.950 . S
C1094 C1080 1.377 . S
C1094 C1093 1.373 . S
C1095 C1079 1.377 . S
C1095 C1093 1.389 . S
C1095 C1096 1.524 . S
C1096 C1095 1.524 . S
C1096 C1097 1.397 . S
C1096 C1101 1.363 . S
C1097 H1068 0.950 . S
C1097 C1096 1.397 . S
C1097 C1098 1.334 . S
C1098 H1069 0.950 . S
C1098 C1097 1.334 . S
C1098 C1099 1.287 . S
C1099 C1098 1.287 . S
C1099 C1100 1.524 . S
C1099 H1102 0.999 . S
C1100 H1070 0.950 . S
C1100 C1099 1.524 . S
C1100 C1101 1.415 . S
C1101 H1071 0.950 . S
C1101 C1096 1.363 . S
C1101 C1100 1.415 . S
H1102 C1099 0.999 . S
H1103 C1084 0.913 . S
C223 C174 1.327 . S
C238 C4 1.326 . S
C273 C17 1.573 . S
C288 C51 1.573 . S
C323 C38 1.327 . S
C338 C72 1.328 . S
C373 C85 1.573 . S
C388 C119 1.573 . S
C423 C140 1.328 . S
C438 C106 1.327 . S
C473 C187 1.573 . S
C488 C153 1.574 . S
C523 C0 0.735 . S
C538 C29 0.735 . S
C573 C63 0.734 . S
C588 C34 0.734 . S
C623 C68 0.735 . S
C638 C97 0.735 . S
C673 C131 0.735 . S
C688 C102 0.735 . S
C723 C165 0.734 . S
C738 C136 0.734 . S
C773 C199 0.734 . S
C788 C170 0.734 . S
C823 C13 1.646 . S
C838 C144 1.683 . S
C873 C42 1.683 . S
C888 C183 1.646 . S
C923 C8 1.683 . S
C938 C81 1.646 . S
C973 C47 1.646 . S
C988 C110 1.684 . S
C1023 C149 1.646 . S
C1038 C76 1.683 . S
C1073 C115 1.646 . S
C1088 C178 1.683 . S
