# Generated by pormake.
# Topology umg, (4)-cn, num edge types: 1
# Building blocks:
#     Node 0, Type 0, BuildingBlock: QUQFOY_clean_sbu_3, # of connection points: 4
#     Node 1, Type 0, BuildingBlock: QUQFOY_clean_sbu_3, # of connection points: 4
#     Node 2, Type 0, BuildingBlock: QUQFOY_clean_sbu_3, # of connection points: 4
#     Node 3, Type 0, BuildingBlock: QUQFOY_clean_sbu_3, # of connection points: 4
#     Node 4, Type 0, BuildingBlock: QUQFOY_clean_sbu_3, # of connection points: 4
#     Node 5, Type 0, BuildingBlock: QUQFOY_clean_sbu_3, # of connection points: 4
#     Node 6, Type 0, BuildingBlock: QUQFOY_clean_sbu_3, # of connection points: 4
#     Node 7, Type 0, BuildingBlock: QUQFOY_clean_sbu_3, # of connection points: 4
#     Node 8, Type 0, BuildingBlock: QUQFOY_clean_sbu_3, # of connection points: 4
#     Node 9, Type 0, BuildingBlock: QUQFOY_clean_sbu_3, # of connection points: 4
#     Node 10, Type 0, BuildingBlock: QUQFOY_clean_sbu_3, # of connection points: 4
#     Node 11, Type 0, BuildingBlock: QUQFOY_clean_sbu_3, # of connection points: 4
#     Edge 12, Type (0, 0), BuildingBlock: KIFKEQ_clean_linker_1, # of connection points: 2
#     Edge 13, Type (0, 0), BuildingBlock: KIFKEQ_clean_linker_1, # of connection points: 2
#     Edge 14, Type (0, 0), BuildingBlock: KIFKEQ_clean_linker_1, # of connection points: 2
#     Edge 15, Type (0, 0), BuildingBlock: KIFKEQ_clean_linker_1, # of connection points: 2
#     Edge 16, Type (0, 0), BuildingBlock: KIFKEQ_clean_linker_1, # of connection points: 2
#     Edge 17, Type (0, 0), BuildingBlock: KIFKEQ_clean_linker_1, # of connection points: 2
#     Edge 18, Type (0, 0), BuildingBlock: KIFKEQ_clean_linker_1, # of connection points: 2
#     Edge 19, Type (0, 0), BuildingBlock: KIFKEQ_clean_linker_1, # of connection points: 2
#     Edge 20, Type (0, 0), BuildingBlock: KIFKEQ_clean_linker_1, # of connection points: 2
#     Edge 21, Type (0, 0), BuildingBlock: KIFKEQ_clean_linker_1, # of connection points: 2
#     Edge 22, Type (0, 0), BuildingBlock: KIFKEQ_clean_linker_1, # of connection points: 2
#     Edge 23, Type (0, 0), BuildingBlock: KIFKEQ_clean_linker_1, # of connection points: 2
#     Edge 24, Type (0, 0), BuildingBlock: KIFKEQ_clean_linker_1, # of connection points: 2
#     Edge 25, Type (0, 0), BuildingBlock: KIFKEQ_clean_linker_1, # of connection points: 2
#     Edge 26, Type (0, 0), BuildingBlock: KIFKEQ_clean_linker_1, # of connection points: 2
#     Edge 27, Type (0, 0), BuildingBlock: KIFKEQ_clean_linker_1, # of connection points: 2
#     Edge 28, Type (0, 0), BuildingBlock: KIFKEQ_clean_linker_1, # of connection points: 2
#     Edge 29, Type (0, 0), BuildingBlock: KIFKEQ_clean_linker_1, # of connection points: 2
#     Edge 30, Type (0, 0), BuildingBlock: KIFKEQ_clean_linker_1, # of connection points: 2
#     Edge 31, Type (0, 0), BuildingBlock: KIFKEQ_clean_linker_1, # of connection points: 2
#     Edge 32, Type (0, 0), BuildingBlock: KIFKEQ_clean_linker_1, # of connection points: 2
#     Edge 33, Type (0, 0), BuildingBlock: KIFKEQ_clean_linker_1, # of connection points: 2
#     Edge 34, Type (0, 0), BuildingBlock: KIFKEQ_clean_linker_1, # of connection points: 2
#     Edge 35, Type (0, 0), BuildingBlock: KIFKEQ_clean_linker_1, # of connection points: 2
# Relax obj value: 0.093
# Max RMSD: 0.206
# Mean RMSD: 0.206
data_MOF--net-umg--node1-QUQFOY_clean_sbu_3--edge1-KIFKEQ_clean_linker_1
_symmetry_space_group_name_H-M    P1
_symmetry_Int_Tables_number       1
_symmetry_cell_setting            triclinic
loop_
_symmetry_equiv_pos_as_xyz
'x, y, z'
_cell_length_a     29.38394
_cell_length_b     29.448418
_cell_length_c     88.317982
_cell_angle_alpha  90.477623
_cell_angle_beta   89.535406
_cell_angle_gamma 119.96222
loop_
_atom_site_label
_atom_site_type_symbol
_atom_site_fract_x
_atom_site_fract_y
_atom_site_fract_z
_atom_type_partial_charge
C0 C 0.37459 0.69102 0.09301 0.0
O1 O 0.36916 0.72717 0.08707 0.0
Cd2 Cd 0.34715 0.72434 0.06049 0.0
O3 O 0.3736 0.65487 0.0848 0.0
Cd4 Cd 0.36761 0.62694 0.05833 0.0
C5 C 0.24024 0.59889 0.05889 0.0
O6 O 0.40648 0.71136 0.04481 0.0
O7 O 0.36707 0.63958 0.03158 0.0
O8 O 0.44734 0.62396 0.06292 0.0
C9 C 0.39299 0.68922 0.0319 0.0
O10 O 0.25943 0.64835 0.0582 0.0
C11 C 0.42932 0.57664 0.05882 0.0
O12 O 0.27019 0.57915 0.05995 0.0
O13 O 0.38145 0.55161 0.05471 0.0
C14 C 0.63197 0.36225 0.43966 0.0
O15 O 0.58988 0.35519 0.43364 0.0
Cd16 Cd 0.56979 0.32215 0.40798 0.0
O17 O 0.66437 0.35492 0.43191 0.0
Cd18 Cd 0.6762 0.33209 0.4059 0.0
C19 C 0.5765 0.20925 0.41003 0.0
O20 O 0.63677 0.37044 0.38922 0.0
O21 O 0.64498 0.30586 0.38046 0.0
O22 O 0.76033 0.41214 0.40614 0.0
C23 C 0.63484 0.34221 0.37799 0.0
O24 O 0.54882 0.23096 0.40811 0.0
C25 C 0.78859 0.39168 0.40337 0.0
O26 O 0.62639 0.23703 0.41114 0.0
O27 O 0.76465 0.34205 0.40174 0.0
C28 C 0.30809 0.55743 0.76247 0.0
O29 O 0.26817 0.5181 0.75684 0.0
Cd30 Cd 0.27243 0.49673 0.73074 0.0
O31 O 0.3474 0.5862 0.75412 0.0
Cd32 Cd 0.37302 0.59661 0.72721 0.0
C33 C 0.38534 0.48958 0.72742 0.0
O34 O 0.28759 0.57052 0.71535 0.0
O35 O 0.3487 0.5735 0.70089 0.0
O36 O 0.39575 0.68447 0.7349 0.0
C37 C 0.30442 0.57082 0.70205 0.0
O38 O 0.33532 0.46542 0.72729 0.0
C39 C 0.43742 0.70873 0.72712 0.0
O40 O 0.41125 0.53942 0.72844 0.0
O41 O 0.45095 0.6809 0.7193 0.0
C42 C 0.69726 0.29804 0.09508 0.0
O43 O 0.6973 0.25826 0.0895 0.0
Cd44 Cd 0.72706 0.26499 0.06356 0.0
O45 O 0.70678 0.33649 0.08663 0.0
Cd46 Cd 0.72048 0.36053 0.05981 0.0
C47 C 0.84309 0.38231 0.06253 0.0
O48 O 0.67292 0.27741 0.04547 0.0
O49 O 0.73496 0.34465 0.03382 0.0
O50 O 0.64209 0.36658 0.06259 0.0
C51 C 0.69578 0.2986 0.03309 0.0
O52 O 0.8202 0.33246 0.06193 0.0
C53 C 0.66156 0.41383 0.05849 0.0
O54 O 0.81616 0.40539 0.06299 0.0
O55 O 0.71004 0.43789 0.05485 0.0
C56 C 0.3388 0.67994 0.43848 0.0
O57 O 0.37808 0.67726 0.43359 0.0
Cd58 Cd 0.40201 0.70037 0.40733 0.0
O59 O 0.30936 0.68589 0.42924 0.0
Cd60 Cd 0.29569 0.68925 0.40215 0.0
C61 C 0.39359 0.81291 0.40588 0.0
O62 O 0.33829 0.64674 0.38849 0.0
O63 O 0.33057 0.7073 0.37689 0.0
O64 O 0.21296 0.60851 0.40509 0.0
C65 C 0.34207 0.67113 0.37628 0.0
O66 O 0.42203 0.79146 0.40561 0.0
C67 C 0.18373 0.6255 0.40025 0.0
O68 O 0.34356 0.78494 0.40571 0.0
O69 O 0.20656 0.67329 0.39612 0.0
C70 C 0.68218 0.27918 0.75605 0.0
O71 O 0.71572 0.32194 0.74986 0.0
Cd72 Cd 0.72474 0.33942 0.72302 0.0
O73 O 0.65166 0.23949 0.748 0.0
Cd74 Cd 0.63102 0.2104 0.72133 0.0
C75 C 0.59371 0.30339 0.71806 0.0
O76 O 0.71768 0.26517 0.71049 0.0
O77 O 0.65592 0.22077 0.69459 0.0
O78 O 0.63047 0.13175 0.72989 0.0
C79 C 0.70355 0.25514 0.69676 0.0
O80 O 0.64262 0.33707 0.71796 0.0
C81 C 0.58779 0.09949 0.72343 0.0
O82 O 0.57729 0.25456 0.72005 0.0
O83 O 0.56403 0.1187 0.71621 0.0
C84 C 0.31114 0.75353 0.54865 0.0
O85 O 0.27098 0.75317 0.55416 0.0
Cd86 Cd 0.27456 0.77816 0.58032 0.0
O87 O 0.34967 0.76316 0.55714 0.0
Cd88 Cd 0.37448 0.77719 0.58398 0.0
C89 C 0.38836 0.89715 0.58327 0.0
O90 O 0.28853 0.71896 0.59586 0.0
O91 O 0.3496 0.77644 0.61027 0.0
O92 O 0.39599 0.71111 0.57624 0.0
C93 C 0.3051 0.73527 0.60914 0.0
O94 O 0.33832 0.87202 0.58346 0.0
C95 C 0.4376 0.72785 0.58391 0.0
O96 O 0.41374 0.87254 0.58244 0.0
O97 O 0.45159 0.76919 0.59174 0.0
C98 C 0.59555 0.27945 0.86676 0.0
O99 O 0.55285 0.24388 0.87242 0.0
Cd100 Cd 0.53281 0.25391 0.89843 0.0
O101 O 0.62707 0.31811 0.87488 0.0
Cd102 Cd 0.63664 0.34999 0.90109 0.0
C103 C 0.53461 0.37098 0.89904 0.0
O104 O 0.60144 0.26884 0.91617 0.0
O105 O 0.60888 0.33812 0.92726 0.0
O106 O 0.72188 0.35721 0.89928 0.0
C107 C 0.60123 0.29193 0.92838 0.0
O108 O 0.50777 0.32132 0.90023 0.0
C109 C 0.74922 0.40547 0.90252 0.0
O110 O 0.58451 0.39389 0.89773 0.0
O111 O 0.72422 0.42969 0.90519 0.0
C112 C 0.35205 0.6444 0.20623 0.0
O113 O 0.35284 0.60566 0.21209 0.0
Cd114 Cd 0.31826 0.58119 0.23749 0.0
O115 O 0.34072 0.67317 0.21436 0.0
Cd116 Cd 0.3251 0.68401 0.24118 0.0
C117 C 0.20318 0.58531 0.23645 0.0
O118 O 0.36541 0.64454 0.25709 0.0
O119 O 0.29905 0.64905 0.26626 0.0
O120 O 0.40558 0.76747 0.24046 0.0
C121 C 0.33654 0.64024 0.26843 0.0
O122 O 0.22579 0.55813 0.2375 0.0
C123 C 0.38591 0.7957 0.24422 0.0
O124 O 0.2302 0.63527 0.23626 0.0
O125 O 0.33653 0.77201 0.24663 0.0
C126 C 0.69185 0.41281 0.55218 0.0
O127 O 0.72437 0.40187 0.55821 0.0
Cd128 Cd 0.73038 0.38829 0.5849 0.0
O129 O 0.66012 0.42017 0.56035 0.0
Cd130 Cd 0.63533 0.42222 0.58709 0.0
C131 C 0.59943 0.29205 0.58935 0.0
O132 O 0.72131 0.45322 0.59814 0.0
O133 O 0.6585 0.43471 0.61393 0.0
O134 O 0.63385 0.50055 0.57929 0.0
C135 C 0.70624 0.44791 0.61184 0.0
O136 O 0.64847 0.30771 0.58939 0.0
C137 C 0.5905 0.48882 0.58569 0.0
O138 O 0.58252 0.32422 0.58767 0.0
O139 O 0.56682 0.44508 0.59254 0.0
C140 C 0.3171 0.66691 0.87139 0.0
O141 O 0.35848 0.7057 0.87669 0.0
Cd142 Cd 0.37688 0.71326 0.90368 0.0
O143 O 0.28149 0.63478 0.88027 0.0
Cd144 Cd 0.25622 0.61653 0.90685 0.0
C145 C 0.35483 0.58712 0.90784 0.0
O146 O 0.30422 0.70419 0.91843 0.0
O147 O 0.27016 0.63668 0.93329 0.0
O148 O 0.17465 0.61405 0.90053 0.0
C149 C 0.29568 0.68607 0.93182 0.0
O150 O 0.38596 0.63654 0.90782 0.0
C151 C 0.1444 0.56826 0.90558 0.0
O152 O 0.30513 0.56789 0.90684 0.0
O153 O 0.16621 0.54397 0.91102 0.0
C154 C 0.66498 0.34021 0.2072 0.0
O155 O 0.66354 0.3798 0.21235 0.0
Cd156 Cd 0.69181 0.40551 0.23821 0.0
O157 O 0.67329 0.31156 0.21611 0.0
Cd158 Cd 0.68269 0.30119 0.2432 0.0
C159 C 0.80574 0.39913 0.23876 0.0
O160 O 0.64048 0.34295 0.25752 0.0
O161 O 0.70337 0.33713 0.26839 0.0
O162 O 0.60198 0.2182 0.24145 0.0
C163 C 0.66638 0.34742 0.26947 0.0
O164 O 0.78372 0.427 0.23923 0.0
C165 C 0.62022 0.18966 0.24592 0.0
O166 O 0.77818 0.3492 0.23894 0.0
O167 O 0.66884 0.213 0.24928 0.0
H168 H 0.39999 0.75094 0.9366 0.0
H169 H 0.24743 0.69069 0.95736 0.0
H170 H 0.44129 0.77851 0.96157 0.0
H171 H 0.28829 0.71934 0.98213 0.0
H172 H 0.36683 0.76398 0.02606 0.0
H173 H 0.35544 0.79076 0.00074 0.0
H174 H 0.42464 0.70479 0.98082 0.0
H175 H 0.43431 0.67703 0.00592 0.0
C176 C 0.37564 0.74627 0.9464 0.0
C177 C 0.32072 0.71882 0.94519 0.0
C178 C 0.39917 0.76181 0.96066 0.0
C179 C 0.36795 0.75087 0.97377 0.0
C180 C 0.31338 0.72887 0.97223 0.0
C181 C 0.28992 0.7123 0.95807 0.0
C182 C 0.38156 0.75284 0.01627 0.0
C183 C 0.40128 0.71845 0.0178 0.0
C184 C 0.37497 0.768 0.00183 0.0
C185 C 0.38917 0.74985 -0.01116 0.0
C186 C 0.414 0.72 -0.00939 0.0
C187 C 0.41931 0.70385 0.00495 0.0
H188 H 0.57723 0.26875 0.35707 0.0
H189 H 0.6688 0.43607 0.36393 0.0
H190 H 0.57466 0.28188 0.32994 0.0
H191 H 0.66758 0.44931 0.33652 0.0
H192 H 0.73532 0.40769 0.29102 0.0
H193 H 0.71577 0.41706 0.31736 0.0
H194 H 0.54973 0.3265 0.30797 0.0
H195 H 0.5695 0.31842 0.28132 0.0
C196 C 0.59551 0.30842 0.35277 0.0
C197 C 0.62349 0.35142 0.36248 0.0
C198 C 0.59372 0.31596 0.33727 0.0
C199 C 0.62098 0.36659 0.33117 0.0
C200 C 0.64608 0.40991 0.34101 0.0
C201 C 0.64672 0.40238 0.35663 0.0
C202 C 0.69465 0.39128 0.29448 0.0
C203 C 0.65386 0.36203 0.28425 0.0
C204 C 0.68346 0.39699 0.30952 0.0
C205 C 0.63126 0.37249 0.31467 0.0
C206 C 0.59029 0.34595 0.30422 0.0
C207 C 0.60155 0.34137 0.28902 0.0
H208 H 0.31316 0.54499 0.67305 0.0
H209 H 0.24038 0.61307 0.70064 0.0
H210 H 0.28996 0.5749 0.65028 0.0
H211 H 0.21786 0.64392 0.67775 0.0
H212 H 0.31309 0.76964 0.63812 0.0
H213 H 0.28962 0.71648 0.66092 0.0
H214 H 0.21825 0.57576 0.63356 0.0
H215 H 0.24103 0.62919 0.61064 0.0
C216 C 0.2908 0.56501 0.6742 0.0
C217 C 0.27915 0.57737 0.68856 0.0
C218 C 0.27715 0.58178 0.66117 0.0
C219 C 0.2524 0.61198 0.66229 0.0
C220 C 0.23699 0.62074 0.67662 0.0
C221 C 0.2498 0.60304 0.68968 0.0
C222 C 0.29081 0.72735 0.637 0.0
C223 C 0.27946 0.70346 0.62266 0.0
C224 C 0.27701 0.69689 0.65005 0.0
C225 C 0.25243 0.64205 0.64897 0.0
C226 C 0.23726 0.61801 0.63467 0.0
C227 C 0.25021 0.64855 0.62159 0.0
H228 H 0.75089 0.3099 0.00731 0.0
H229 H 0.59305 0.2352 0.02534 0.0
H230 H 0.71605 0.28705 0.98167 0.0
H231 H 0.55802 0.2135 -0.00048 0.0
H232 H 0.63993 0.22869 0.93666 0.0
H233 H 0.65472 0.2103 0.96266 0.0
H234 H 0.57303 0.28781 0.97985 0.0
H235 H 0.55962 0.30736 0.95403 0.0
C236 C 0.70872 0.28731 0.00578 0.0
C237 C 0.6746 0.27457 0.01823 0.0
C238 C 0.68879 0.27394 -0.00887 0.0
C239 C 0.63439 0.24861 -0.01134 0.0
C240 C 0.60012 0.23287 0.00118 0.0
C241 C 0.62012 0.24517 0.01591 0.0
C242 C 0.62375 0.24024 0.94601 0.0
C243 C 0.59906 0.26979 0.94342 0.0
C244 C 0.63228 0.22983 0.96083 0.0
C245 C 0.61497 0.24765 0.9732 0.0
C246 C 0.58624 0.27313 0.97052 0.0
C247 C 0.57887 0.2846 0.95576 0.0
H248 H 0.43127 0.67427 0.28213 0.0
H249 H 0.26393 0.58077 0.28933 0.0
H250 H 0.44551 0.6721 0.30943 0.0
H251 H 0.27803 0.57743 0.31635 0.0
H252 H 0.31347 0.57411 0.36479 0.0
H253 H 0.32235 0.55381 0.33825 0.0
H254 H 0.41439 0.71931 0.32871 0.0
H255 H 0.4043 0.73932 0.35492 0.0
C256 C 0.3978 0.65156 0.28947 0.0
C257 C 0.34652 0.62816 0.28376 0.0
C258 C 0.40591 0.65037 0.30504 0.0
C259 C 0.36284 0.62464 0.31497 0.0
C260 C 0.31195 0.59702 0.30896 0.0
C261 C 0.30384 0.59928 0.29352 0.0
C262 C 0.33701 0.6059 0.35709 0.0
C263 C 0.35777 0.6582 0.36175 0.0
C264 C 0.34204 0.59435 0.34195 0.0
C265 C 0.36905 0.63502 0.33146 0.0
C266 C 0.39392 0.68719 0.33657 0.0
C267 C 0.3878 0.69867 0.35153 0.0
H268 H 0.69852 0.23169 0.66689 0.0
H269 H 0.77378 0.36053 0.69852 0.0
H270 H 0.72517 0.29346 0.64601 0.0
H271 H 0.79906 0.4226 0.67758 0.0
H272 H 0.7006 0.46586 0.64171 0.0
H273 H 0.72594 0.42961 0.66256 0.0
H274 H 0.79914 0.37301 0.6309 0.0
H275 H 0.77516 0.41091 0.60999 0.0
C276 C 0.72236 0.27322 0.66931 0.0
C277 C 0.73331 0.29134 0.68433 0.0
C278 C 0.73787 0.30862 0.65735 0.0
C279 C 0.76374 0.3628 0.66021 0.0
C280 C 0.77903 0.38098 0.6751 0.0
C281 C 0.76453 0.34543 0.68707 0.0
C282 C 0.72403 0.44762 0.63926 0.0
C283 C 0.73523 0.44051 0.62424 0.0
C284 C 0.73879 0.42707 0.65121 0.0
C285 C 0.76411 0.39812 0.64831 0.0
C286 C 0.77957 0.39512 0.6334 0.0
C287 C 0.76584 0.41684 0.62145 0.0
H288 H 0.39756 0.60689 0.18627 0.0
H289 H 0.32938 0.70705 0.18915 0.0
H290 H 0.41104 0.62327 0.15913 0.0
H291 H 0.34029 0.72136 0.16204 0.0
H292 H 0.39569 0.76781 0.11418 0.0
H293 H 0.39796 0.76086 0.14165 0.0
H294 H 0.36245 0.60017 0.13676 0.0
H295 H 0.3628 0.60808 0.10948 0.0
C296 C 0.38534 0.63228 0.1811 0.0
C297 C 0.36229 0.65552 0.18985 0.0
C298 C 0.39277 0.64149 0.16551 0.0
C299 C 0.37653 0.67349 0.15829 0.0
C300 C 0.35422 0.69731 0.16716 0.0
C301 C 0.34755 0.68873 0.18275 0.0
C302 C 0.38894 0.73126 0.11901 0.0
C303 C 0.37899 0.68853 0.10964 0.0
C304 C 0.38989 0.72707 0.13476 0.0
C305 C 0.38012 0.67981 0.14151 0.0
C306 C 0.37113 0.63751 0.13206 0.0
C307 C 0.37094 0.64194 0.11635 0.0
H308 H 0.72569 0.40044 0.45416 0.0
H309 H 0.56372 0.35774 0.46173 0.0
H310 H 0.74362 0.4197 0.48098 0.0
H311 H 0.58111 0.3751 0.48873 0.0
H312 H 0.63574 0.44539 0.53532 0.0
H313 H 0.62416 0.43972 0.50794 0.0
H314 H 0.72571 0.37313 0.50396 0.0
H315 H 0.73872 0.38054 0.53119 0.0
C316 C 0.69385 0.39513 0.46157 0.0
C317 C 0.64318 0.37725 0.45582 0.0
C318 C 0.70407 0.40589 0.47699 0.0
C319 C 0.66375 0.39847 0.4871 0.0
C320 C 0.61332 0.38189 0.48128 0.0
C321 C 0.60322 0.37165 0.46579 0.0
C322 C 0.65605 0.43007 0.52857 0.0
C323 C 0.68811 0.41334 0.53547 0.0
C324 C 0.64909 0.42646 0.51287 0.0
C325 C 0.67372 0.4057 0.5037 0.0
C326 C 0.70671 0.39008 0.5106 0.0
C327 C 0.71401 0.3941 0.52626 0.0
H328 H 0.39279 0.62091 0.7799 0.0
H329 H 0.22335 0.52961 0.78096 0.0
H330 H 0.39304 0.64965 0.80582 0.0
H331 H 0.22319 0.56042 0.8066 0.0
H332 H 0.24452 0.57685 0.85765 0.0
H333 H 0.242 0.55108 0.83149 0.0
H334 H 0.37476 0.70372 0.82142 0.0
H335 H 0.37895 0.72866 0.84803 0.0
C336 C 0.35554 0.60715 0.78568 0.0
C337 C 0.30806 0.57268 0.77844 0.0
C338 C 0.35561 0.62414 0.80049 0.0
C339 C 0.30813 0.60772 0.80836 0.0
C340 C 0.26061 0.57327 0.80105 0.0
C341 C 0.26061 0.55558 0.78631 0.0
C342 C 0.27295 0.60528 0.84986 0.0
C343 C 0.31215 0.65483 0.85498 0.0
C344 C 0.2713 0.59049 0.83476 0.0
C345 C 0.30829 0.62511 0.82426 0.0
C346 C 0.34629 0.67555 0.82924 0.0
C347 C 0.34842 0.69013 0.84446 0.0
H348 H 0.65637 0.21824 0.11581 0.0
H349 H 0.71386 0.38415 0.11117 0.0
H350 H 0.63978 0.22409 0.14269 0.0
H351 H 0.69957 0.39052 0.13799 0.0
H352 H 0.63684 0.385 0.18467 0.0
H353 H 0.63707 0.37035 0.15744 0.0
H354 H 0.68663 0.25689 0.16543 0.0
H355 H 0.68411 0.26979 0.19248 0.0
C356 C 0.66567 0.25595 0.12054 0.0
C357 C 0.68655 0.3007 0.11137 0.0
C358 C 0.65635 0.25941 0.13596 0.0
C359 C 0.66833 0.30783 0.14257 0.0
C360 C 0.6888 0.35238 0.1333 0.0
C361 C 0.6975 0.3488 0.1179 0.0
C362 C 0.64712 0.35648 0.18059 0.0
C363 C 0.66071 0.32882 0.19075 0.0
C364 C 0.64762 0.34829 0.16497 0.0
C365 C 0.66234 0.31272 0.15917 0.0
C366 C 0.67436 0.284 0.16941 0.0
C367 C 0.67326 0.29173 0.18498 0.0
H368 H 0.39717 0.77186 0.53209 0.0
H369 H 0.22889 0.70405 0.52898 0.0
H370 H 0.40051 0.74808 0.50587 0.0
H371 H 0.23177 0.67803 0.50287 0.0
H372 H 0.26678 0.69946 0.45203 0.0
H373 H 0.2585 0.71417 0.47864 0.0
H374 H 0.38012 0.67755 0.48907 0.0
H375 H 0.39012 0.66509 0.46214 0.0
C376 C 0.36078 0.75153 0.52582 0.0
C377 C 0.31278 0.74013 0.53257 0.0
C378 C 0.36262 0.73733 0.51081 0.0
C379 C 0.3164 0.71077 0.50223 0.0
C380 C 0.26828 0.69909 0.50905 0.0
C381 C 0.26655 0.71395 0.52402 0.0
C382 C 0.29148 0.69394 0.45998 0.0
C383 C 0.32948 0.6815 0.45492 0.0
C384 C 0.28645 0.70212 0.47532 0.0
C385 C 0.31886 0.69746 0.48606 0.0
C386 C 0.35526 0.6826 0.48108 0.0
C387 C 0.36071 0.67496 0.46566 0.0
H388 H 0.69174 0.33584 0.85347 0.0
H389 H 0.53192 0.21595 0.84403 0.0
H390 H 0.71593 0.33269 0.82729 0.0
H391 H 0.55566 0.21419 0.81757 0.0
H392 H 0.6223 0.19269 0.77349 0.0
H393 H 0.60351 0.19024 0.80049 0.0
H394 H 0.70438 0.3584 0.80307 0.0
H395 H 0.72457 0.36054 0.77628 0.0
C396 C 0.66162 0.30897 0.84576 0.0
C397 C 0.60978 0.27632 0.85082 0.0
C398 C 0.67548 0.30734 0.8307 0.0
C399 C 0.63775 0.27346 0.82023 0.0
C400 C 0.58597 0.24027 0.82534 0.0
C401 C 0.5722 0.24149 0.84049 0.0
C402 C 0.64099 0.22905 0.77987 0.0
C403 C 0.67492 0.27683 0.7727 0.0
C404 C 0.62983 0.2277 0.79534 0.0
C405 C 0.65204 0.27414 0.80398 0.0
C406 C 0.68706 0.32171 0.79686 0.0
C407 C 0.69856 0.32299 0.78144 0.0
H408 H 0.91172 0.34738 0.05625 0.0
H409 H 0.90652 0.48714 0.06838 0.0
H410 H 0.00713 0.39815 0.05503 0.0
H411 H 0.00211 0.53766 0.06776 0.0
H412 H 0.16807 0.62496 0.04974 0.0
H413 H 0.07305 0.5721 0.05059 0.0
H414 H 0.08531 0.44356 0.06938 0.0
H415 H 0.18104 0.49626 0.06796 0.0
C416 C 0.93096 0.38891 0.05881 0.0
C417 C 0.90137 0.41322 0.06235 0.0
C418 C 0.98584 0.41802 0.0582 0.0
C419 C 0.01264 0.47218 0.06125 0.0
C420 C 0.98296 0.49628 0.06504 0.0
C421 C 0.92803 0.46724 0.06549 0.0
C422 C 0.15059 0.58534 0.05401 0.0
C423 C 0.18225 0.56491 0.05883 0.0
C424 C 0.0959 0.55507 0.05462 0.0
C425 C 0.07116 0.50363 0.06024 0.0
C426 C 0.10284 0.48282 0.06485 0.0
C427 C 0.15778 0.51305 0.06408 0.0
H428 H 0.47546 0.14014 0.40212 0.0
H429 H 0.61691 0.14665 0.41837 0.0
H430 H 0.4317 0.0453 0.4013 0.0
H431 H 0.57219 0.05098 0.41817 0.0
H432 H 0.49637 0.88362 0.39999 0.0
H433 H 0.54022 0.97862 0.40151 0.0
H434 H 0.3945 0.96869 0.41587 0.0
H435 H 0.35014 0.87345 0.41371 0.0
C436 C 0.4971 0.12129 0.40573 0.0
C437 C 0.54982 0.15114 0.41031 0.0
C438 C 0.47176 0.06664 0.40535 0.0
C439 C 0.49816 0.0401 0.4097 0.0
C440 C 0.55076 0.06996 0.4145 0.0
C441 C 0.57639 0.12486 0.41472 0.0
C442 C 0.47361 0.90169 0.40345 0.0
C443 C 0.41965 0.87089 0.40668 0.0
C444 C 0.49894 0.95631 0.40445 0.0
C445 C 0.47115 0.98168 0.40888 0.0
C446 C 0.41713 0.95075 0.41219 0.0
C447 C 0.39162 0.89604 0.411 0.0
H448 H 0.49388 0.261 0.72992 0.0
H449 H 0.61065 0.39234 0.70423 0.0
H450 H 0.44103 0.30401 0.732 0.0
H451 H 0.55771 0.43441 0.70592 0.0
H452 H 0.49121 0.52675 0.72876 0.0
H453 H 0.53718 0.47779 0.72556 0.0
H454 H 0.38905 0.33507 0.71906 0.0
H455 H 0.34281 0.38391 0.72266 0.0
C456 C 0.5076 0.29837 0.72441 0.0
C457 C 0.55665 0.32353 0.71706 0.0
C458 C 0.47742 0.32312 0.72562 0.0
C459 C 0.49567 0.37327 0.71941 0.0
C460 C 0.54317 0.39661 0.71125 0.0
C461 C 0.57333 0.37222 0.71016 0.0
C462 C 0.46835 0.48493 0.72669 0.0
C463 C 0.4133 0.45941 0.72593 0.0
C464 C 0.49475 0.45682 0.72473 0.0
C465 C 0.46688 0.40247 0.72187 0.0
C466 C 0.41175 0.37676 0.72134 0.0
C467 C 0.38527 0.40489 0.72335 0.0
H468 H 0.61801 0.22049 0.60274 0.0
H469 H 0.49881 0.23415 0.57827 0.0
H470 H 0.56476 0.12568 0.60181 0.0
H471 H 0.44558 0.13833 0.57691 0.0
H472 H 0.34729 0.96175 0.58804 0.0
H473 H 0.39464 0.05701 0.59062 0.0
H474 H 0.54128 0.05946 0.58296 0.0
H475 H 0.49423 0.96441 0.58082 0.0
C476 C 0.58017 0.20314 0.59719 0.0
C477 C 0.56283 0.23484 0.59045 0.0
C478 C 0.54979 0.14865 0.59655 0.0
C479 C 0.50135 0.12418 0.58899 0.0
C480 C 0.48268 0.15584 0.58285 0.0
C481 C 0.51309 0.21073 0.58363 0.0
C482 C 0.38966 0.98263 0.5869 0.0
C483 C 0.41697 0.95529 0.5843 0.0
C484 C 0.41678 0.03734 0.58831 0.0
C485 C 0.47184 0.06603 0.58714 0.0
C486 C 0.49896 0.03865 0.58427 0.0
C487 C 0.47193 0.98405 0.58293 0.0
H488 H 0.45317 0.61229 0.91679 0.0
H489 H 0.30985 0.48432 0.89868 0.0
H490 H 0.49537 0.55956 0.91468 0.0
H491 H 0.35273 0.43183 0.89603 0.0
H492 H 0.43182 0.33563 0.90632 0.0
H493 H 0.38737 0.38605 0.90916 0.0
H494 H 0.53008 0.52649 0.89617 0.0
H495 H 0.5752 0.47616 0.89388 0.0
C496 C 0.43059 0.57276 0.91236 0.0
C497 C 0.37811 0.55255 0.90788 0.0
C498 C 0.45503 0.54264 0.911 0.0
C499 C 0.42787 0.49158 0.90497 0.0
C500 C 0.37485 0.47082 0.90085 0.0
C501 C 0.35017 0.50088 0.90235 0.0
C502 C 0.45378 0.37726 0.90401 0.0
C503 C 0.50723 0.40184 0.8999 0.0
C504 C 0.42809 0.40619 0.90557 0.0
C505 C 0.45499 0.46048 0.90296 0.0
C506 C 0.50827 0.48493 0.89858 0.0
C507 C 0.53413 0.45601 0.89714 0.0
H508 H 0.13448 0.48337 0.24347 0.0
H509 H 0.14008 0.62532 0.22847 0.0
H510 H 0.03923 0.43863 0.24378 0.0
H511 H 0.04429 0.57981 0.2281 0.0
H512 H 0.8756 0.50145 0.24519 0.0
H513 H 0.97084 0.54586 0.24422 0.0
H514 H 0.96311 0.40225 0.22896 0.0
H515 H 0.86748 0.35721 0.23063 0.0
C516 C 0.11533 0.50491 0.24003 0.0
C517 C 0.14498 0.55803 0.23597 0.0
C518 C 0.06049 0.47904 0.24012 0.0
C519 C 0.03367 0.50536 0.23595 0.0
C520 C 0.06342 0.55839 0.23165 0.0
C521 C 0.11842 0.5845 0.23176 0.0
C522 C 0.89419 0.47928 0.24163 0.0
C523 C 0.86388 0.4257 0.23801 0.0
C524 C 0.94898 0.50494 0.24095 0.0
C525 C 0.97506 0.47791 0.23644 0.0
C526 C 0.94461 0.42428 0.23272 0.0
C527 C 0.88969 0.3984 0.2336 0.0
H528 H 0.55822 0.36936 0.06605 0.0
H529 H 0.68968 0.51428 0.05008 0.0
H530 H 0.50283 0.40885 0.06585 0.0
H531 H 0.63353 0.55377 0.04959 0.0
H532 H 0.5318 0.62154 0.06749 0.0
H533 H 0.58835 0.58301 0.06693 0.0
H534 H 0.4609 0.43961 0.04859 0.0
H535 H 0.40391 0.47787 0.04945 0.0
C536 C 0.5753 0.40967 0.06241 0.0
C537 C 0.62847 0.43872 0.05809 0.0
C538 C 0.54332 0.4322 0.0622 0.0
C539 C 0.56358 0.48441 0.05764 0.0
C540 C 0.61681 0.51358 0.0533 0.0
C541 C 0.64894 0.49094 0.05351 0.0
C542 C 0.51577 0.58174 0.06336 0.0
C543 C 0.46324 0.55266 0.05857 0.0
C544 C 0.54838 0.55981 0.06292 0.0
C545 C 0.52927 0.50826 0.0577 0.0
C546 C 0.47672 0.47923 0.05286 0.0
C547 C 0.44407 0.50117 0.05331 0.0
H548 H 0.84723 0.49697 0.40802 0.0
H549 H 0.86108 0.36186 0.39603 0.0
H550 H 0.942 0.55248 0.4065 0.0
H551 H 0.95647 0.41795 0.39411 0.0
H552 H 0.12677 0.52438 0.40986 0.0
H553 H 0.0319 0.46757 0.40991 0.0
H554 H 0.01447 0.59032 0.38912 0.0
H555 H 0.10974 0.64785 0.38946 0.0
C556 C 0.87052 0.4791 0.40495 0.0
C557 C 0.84652 0.42487 0.40218 0.0
C558 C 0.92499 0.51113 0.40396 0.0
C559 C 0.95707 0.48989 0.40011 0.0
C560 C 0.93305 0.4356 0.39726 0.0
C561 C 0.87836 0.40343 0.3983 0.0
C562 C 0.10277 0.53931 0.40526 0.0
C563 C 0.12588 0.59082 0.39972 0.0
C564 C 0.04826 0.50648 0.40518 0.0
C565 C 0.01534 0.52422 0.39952 0.0
C566 C 0.03853 0.57556 0.39377 0.0
C567 C 0.09318 0.60851 0.39389 0.0
H568 H 0.5194 0.02377 0.70396 0.0
H569 H 0.6116 0.04635 0.74409 0.0
H570 H 0.48865 0.92955 0.70461 0.0
H571 H 0.57976 0.9521 0.7449 0.0
H572 H 0.44284 0.77456 0.74958 0.0
H573 H 0.48263 0.86983 0.74855 0.0
H574 H 0.53493 0.86902 0.70281 0.0
H575 H 0.49621 0.77332 0.70397 0.0
C576 C 0.53285 0.00858 0.71295 0.0
C577 C 0.56774 0.04236 0.72401 0.0
C578 C 0.51563 0.95485 0.71323 0.0
C579 C 0.53211 0.9338 0.72476 0.0
C580 C 0.56657 0.96745 0.73589 0.0
C581 C 0.5847 0.02128 0.73542 0.0
C582 C 0.46352 0.79478 0.73938 0.0
C583 C 0.4666 0.76665 0.72687 0.0
C584 C 0.48629 0.84923 0.73881 0.0
C585 C 0.51153 0.87656 0.72559 0.0
C586 C 0.51541 0.84866 0.71311 0.0
C587 C 0.49368 0.79414 0.71382 0.0
H588 H 0.49625 0.72083 0.60679 0.0
H589 H 0.44239 0.66766 0.56127 0.0
H590 H 0.53507 0.66373 0.60751 0.0
H591 H 0.48232 0.61213 0.56186 0.0
H592 H 0.61385 0.56694 0.56547 0.0
H593 H 0.58078 0.62849 0.56517 0.0
H594 H 0.48876 0.55633 0.60528 0.0
H595 H 0.52071 0.49364 0.6054 0.0
C596 C 0.49357 0.69772 0.59687 0.0
C597 C 0.46639 0.69862 0.58397 0.0
C598 C 0.51536 0.66487 0.59733 0.0
C599 C 0.51146 0.63356 0.58475 0.0
C600 C 0.48597 0.63601 0.57168 0.0
C601 C 0.46314 0.66773 0.57136 0.0
C602 C 0.58647 0.56411 0.57421 0.0
C603 C 0.56963 0.52531 0.58542 0.0
C604 C 0.56765 0.59933 0.57403 0.0
C605 C 0.53259 0.59726 0.58526 0.0
C606 C 0.51618 0.55895 0.59659 0.0
C607 C 0.53409 0.52289 0.59657 0.0
H608 H 0.06956 0.47243 0.91618 0.0
H609 H 0.08834 0.61187 0.89455 0.0
H610 H 0.97444 0.43495 0.91602 0.0
H611 H 0.99319 0.57398 0.89414 0.0
H612 H 0.82098 0.50819 0.90943 0.0
H613 H 0.91675 0.54842 0.91063 0.0
H614 H 0.90379 0.40048 0.89785 0.0
H615 H 0.80892 0.36041 0.89694 0.0
C616 C 0.05339 0.49498 0.91133 0.0
C617 C 0.08654 0.54501 0.90533 0.0
C618 C -0.00116 0.47345 0.91119 0.0
C619 C 0.97611 0.50141 0.90503 0.0
C620 C 0.00935 0.55164 0.89913 0.0
C621 C 0.06391 0.57316 0.89926 0.0
C622 C 0.83871 0.48439 0.90691 0.0
C623 C 0.80729 0.4311 0.90314 0.0
C624 C 0.89354 0.50743 0.90752 0.0
C625 C 0.91796 0.47757 0.90442 0.0
C626 C 0.88635 0.42442 0.90058 0.0
C627 C 0.83184 0.40152 0.89996 0.0
H628 H 0.49068 0.85397 0.23828 0.0
H629 H 0.35783 0.86799 0.25319 0.0
H630 H 0.54672 0.94852 0.23971 0.0
H631 H 0.41451 0.9631 0.25502 0.0
H632 H 0.51711 0.13204 0.2381 0.0
H633 H 0.46058 0.03745 0.23867 0.0
H634 H 0.58807 0.02163 0.25683 0.0
H635 H 0.64532 0.11675 0.25587 0.0
C636 C 0.47345 0.87724 0.24199 0.0
C637 C 0.41965 0.85339 0.24556 0.0
C638 C 0.5058 0.93157 0.24293 0.0
C639 C 0.4853 0.9636 0.24751 0.0
C640 C 0.43152 0.9397 0.25126 0.0
C641 C 0.39903 0.88518 0.25028 0.0
C642 C 0.53316 0.10848 0.24227 0.0
C643 C 0.58588 0.13199 0.24688 0.0
C644 C 0.50051 0.05413 0.24271 0.0
C645 C 0.51961 0.02174 0.24781 0.0
C646 C 0.57221 0.04531 0.25265 0.0
C647 C 0.605 0.09985 0.25217 0.0
loop_
_geom_bond_atom_site_label_1
_geom_bond_atom_site_label_2
_geom_bond_distance
_geom_bond_site_symmetry_2
_ccdc_geom_bond_type
C0 O1 1.306 . S
C0 O3 1.160 . S
O1 C0 1.306 . S
O1 Cd2 2.228 . S
Cd2 O1 2.228 . S
Cd2 O6 2.273 . S
Cd2 O10 2.277 . S
O3 C0 1.160 . S
O3 Cd4 2.203 . S
Cd4 O3 2.203 . S
Cd4 O6 2.411 . S
Cd4 O7 2.333 . S
Cd4 O8 2.352 . S
Cd4 O12 2.277 . S
Cd4 O13 2.356 . S
C5 O10 1.209 . S
C5 O12 1.226 . S
O6 Cd2 2.273 . S
O6 Cd4 2.411 . S
O6 C9 1.320 . S
O7 Cd4 2.333 . S
O7 C9 1.214 . S
O8 Cd4 2.352 . S
O8 C11 1.258 . S
C9 O6 1.320 . S
C9 O7 1.214 . S
O10 Cd2 2.277 . S
O10 C5 1.209 . S
C11 O8 1.258 . S
C11 O13 1.282 . S
O12 Cd4 2.277 . S
O12 C5 1.226 . S
O13 Cd4 2.356 . S
O13 C11 1.282 . S
C14 O15 1.306 . S
C14 O17 1.160 . S
O15 C14 1.306 . S
O15 Cd16 2.228 . S
Cd16 O15 2.228 . S
Cd16 O20 2.273 . S
Cd16 O24 2.277 . S
O17 C14 1.160 . S
O17 Cd18 2.203 . S
Cd18 O17 2.203 . S
Cd18 O20 2.411 . S
Cd18 O21 2.333 . S
Cd18 O22 2.352 . S
Cd18 O26 2.277 . S
Cd18 O27 2.356 . S
C19 O24 1.209 . S
C19 O26 1.226 . S
O20 Cd16 2.273 . S
O20 Cd18 2.411 . S
O20 C23 1.320 . S
O21 Cd18 2.333 . S
O21 C23 1.214 . S
O22 Cd18 2.352 . S
O22 C25 1.258 . S
C23 O20 1.320 . S
C23 O21 1.214 . S
O24 Cd16 2.277 . S
O24 C19 1.209 . S
C25 O22 1.258 . S
C25 O27 1.282 . S
O26 Cd18 2.277 . S
O26 C19 1.226 . S
O27 Cd18 2.356 . S
O27 C25 1.282 . S
C28 O29 1.306 . S
C28 O31 1.160 . S
O29 C28 1.306 . S
O29 Cd30 2.228 . S
Cd30 O29 2.228 . S
Cd30 O34 2.273 . S
Cd30 O38 2.277 . S
O31 C28 1.160 . S
O31 Cd32 2.203 . S
Cd32 O31 2.203 . S
Cd32 O34 2.411 . S
Cd32 O35 2.333 . S
Cd32 O36 2.352 . S
Cd32 O40 2.277 . S
Cd32 O41 2.356 . S
C33 O38 1.209 . S
C33 O40 1.226 . S
O34 Cd30 2.273 . S
O34 Cd32 2.411 . S
O34 C37 1.320 . S
O35 Cd32 2.333 . S
O35 C37 1.214 . S
O36 Cd32 2.352 . S
O36 C39 1.258 . S
C37 O34 1.320 . S
C37 O35 1.214 . S
O38 Cd30 2.277 . S
O38 C33 1.209 . S
C39 O36 1.258 . S
C39 O41 1.282 . S
O40 Cd32 2.277 . S
O40 C33 1.226 . S
O41 Cd32 2.356 . S
O41 C39 1.282 . S
C42 O43 1.306 . S
C42 O45 1.160 . S
O43 C42 1.306 . S
O43 Cd44 2.228 . S
Cd44 O43 2.228 . S
Cd44 O48 2.273 . S
Cd44 O52 2.277 . S
O45 C42 1.160 . S
O45 Cd46 2.203 . S
Cd46 O45 2.203 . S
Cd46 O48 2.411 . S
Cd46 O49 2.333 . S
Cd46 O50 2.352 . S
Cd46 O54 2.277 . S
Cd46 O55 2.356 . S
C47 O52 1.209 . S
C47 O54 1.226 . S
O48 Cd44 2.273 . S
O48 Cd46 2.411 . S
O48 C51 1.320 . S
O49 Cd46 2.333 . S
O49 C51 1.214 . S
O50 Cd46 2.352 . S
O50 C53 1.258 . S
C51 O48 1.320 . S
C51 O49 1.214 . S
O52 Cd44 2.277 . S
O52 C47 1.209 . S
C53 O50 1.258 . S
C53 O55 1.282 . S
O54 Cd46 2.277 . S
O54 C47 1.226 . S
O55 Cd46 2.356 . S
O55 C53 1.282 . S
C56 O57 1.306 . S
C56 O59 1.160 . S
O57 C56 1.306 . S
O57 Cd58 2.228 . S
Cd58 O57 2.228 . S
Cd58 O62 2.273 . S
Cd58 O66 2.277 . S
O59 C56 1.160 . S
O59 Cd60 2.203 . S
Cd60 O59 2.203 . S
Cd60 O62 2.411 . S
Cd60 O63 2.333 . S
Cd60 O64 2.352 . S
Cd60 O68 2.277 . S
Cd60 O69 2.356 . S
C61 O66 1.209 . S
C61 O68 1.226 . S
O62 Cd58 2.273 . S
O62 Cd60 2.411 . S
O62 C65 1.320 . S
O63 Cd60 2.333 . S
O63 C65 1.214 . S
O64 Cd60 2.352 . S
O64 C67 1.258 . S
C65 O62 1.320 . S
C65 O63 1.214 . S
O66 Cd58 2.277 . S
O66 C61 1.209 . S
C67 O64 1.258 . S
C67 O69 1.282 . S
O68 Cd60 2.277 . S
O68 C61 1.226 . S
O69 Cd60 2.356 . S
O69 C67 1.282 . S
C70 O71 1.306 . S
C70 O73 1.160 . S
O71 C70 1.306 . S
O71 Cd72 2.228 . S
Cd72 O71 2.228 . S
Cd72 O76 2.273 . S
Cd72 O80 2.277 . S
O73 C70 1.160 . S
O73 Cd74 2.203 . S
Cd74 O73 2.203 . S
Cd74 O76 2.411 . S
Cd74 O77 2.333 . S
Cd74 O78 2.352 . S
Cd74 O82 2.277 . S
Cd74 O83 2.356 . S
C75 O80 1.209 . S
C75 O82 1.226 . S
O76 Cd72 2.273 . S
O76 Cd74 2.411 . S
O76 C79 1.320 . S
O77 Cd74 2.333 . S
O77 C79 1.214 . S
O78 Cd74 2.352 . S
O78 C81 1.258 . S
C79 O76 1.320 . S
C79 O77 1.214 . S
O80 Cd72 2.277 . S
O80 C75 1.209 . S
C81 O78 1.258 . S
C81 O83 1.282 . S
O82 Cd74 2.277 . S
O82 C75 1.226 . S
O83 Cd74 2.356 . S
O83 C81 1.282 . S
C84 O85 1.306 . S
C84 O87 1.160 . S
O85 C84 1.306 . S
O85 Cd86 2.228 . S
Cd86 O85 2.228 . S
Cd86 O90 2.273 . S
Cd86 O94 2.277 . S
O87 C84 1.160 . S
O87 Cd88 2.203 . S
Cd88 O87 2.203 . S
Cd88 O90 2.411 . S
Cd88 O91 2.333 . S
Cd88 O92 2.352 . S
Cd88 O96 2.277 . S
Cd88 O97 2.356 . S
C89 O94 1.209 . S
C89 O96 1.226 . S
O90 Cd86 2.273 . S
O90 Cd88 2.411 . S
O90 C93 1.320 . S
O91 Cd88 2.333 . S
O91 C93 1.214 . S
O92 Cd88 2.352 . S
O92 C95 1.258 . S
C93 O90 1.320 . S
C93 O91 1.214 . S
O94 Cd86 2.277 . S
O94 C89 1.209 . S
C95 O92 1.258 . S
C95 O97 1.282 . S
O96 Cd88 2.277 . S
O96 C89 1.226 . S
O97 Cd88 2.356 . S
O97 C95 1.282 . S
C98 O99 1.306 . S
C98 O101 1.160 . S
O99 C98 1.306 . S
O99 Cd100 2.228 . S
Cd100 O99 2.228 . S
Cd100 O104 2.273 . S
Cd100 O108 2.277 . S
O101 C98 1.160 . S
O101 Cd102 2.203 . S
Cd102 O101 2.203 . S
Cd102 O104 2.411 . S
Cd102 O105 2.333 . S
Cd102 O106 2.352 . S
Cd102 O110 2.277 . S
Cd102 O111 2.356 . S
C103 O108 1.209 . S
C103 O110 1.226 . S
O104 Cd100 2.273 . S
O104 Cd102 2.411 . S
O104 C107 1.320 . S
O105 Cd102 2.333 . S
O105 C107 1.214 . S
O106 Cd102 2.352 . S
O106 C109 1.258 . S
C107 O104 1.320 . S
C107 O105 1.214 . S
O108 Cd100 2.277 . S
O108 C103 1.209 . S
C109 O106 1.258 . S
C109 O111 1.282 . S
O110 Cd102 2.277 . S
O110 C103 1.226 . S
O111 Cd102 2.356 . S
O111 C109 1.282 . S
C112 O113 1.306 . S
C112 O115 1.160 . S
O113 C112 1.306 . S
O113 Cd114 2.228 . S
Cd114 O113 2.228 . S
Cd114 O118 2.273 . S
Cd114 O122 2.277 . S
O115 C112 1.160 . S
O115 Cd116 2.203 . S
Cd116 O115 2.203 . S
Cd116 O118 2.411 . S
Cd116 O119 2.333 . S
Cd116 O120 2.352 . S
Cd116 O124 2.277 . S
Cd116 O125 2.356 . S
C117 O122 1.209 . S
C117 O124 1.226 . S
O118 Cd114 2.273 . S
O118 Cd116 2.411 . S
O118 C121 1.320 . S
O119 Cd116 2.333 . S
O119 C121 1.214 . S
O120 Cd116 2.352 . S
O120 C123 1.258 . S
C121 O118 1.320 . S
C121 O119 1.214 . S
O122 Cd114 2.277 . S
O122 C117 1.209 . S
C123 O120 1.258 . S
C123 O125 1.282 . S
O124 Cd116 2.277 . S
O124 C117 1.226 . S
O125 Cd116 2.356 . S
O125 C123 1.282 . S
C126 O127 1.306 . S
C126 O129 1.160 . S
O127 C126 1.306 . S
O127 Cd128 2.228 . S
Cd128 O127 2.228 . S
Cd128 O132 2.273 . S
Cd128 O136 2.277 . S
O129 C126 1.160 . S
O129 Cd130 2.203 . S
Cd130 O129 2.203 . S
Cd130 O132 2.411 . S
Cd130 O133 2.333 . S
Cd130 O134 2.352 . S
Cd130 O138 2.277 . S
Cd130 O139 2.356 . S
C131 O136 1.209 . S
C131 O138 1.226 . S
O132 Cd128 2.273 . S
O132 Cd130 2.411 . S
O132 C135 1.320 . S
O133 Cd130 2.333 . S
O133 C135 1.214 . S
O134 Cd130 2.352 . S
O134 C137 1.258 . S
C135 O132 1.320 . S
C135 O133 1.214 . S
O136 Cd128 2.277 . S
O136 C131 1.209 . S
C137 O134 1.258 . S
C137 O139 1.282 . S
O138 Cd130 2.277 . S
O138 C131 1.226 . S
O139 Cd130 2.356 . S
O139 C137 1.282 . S
C140 O141 1.306 . S
C140 O143 1.160 . S
O141 C140 1.306 . S
O141 Cd142 2.228 . S
Cd142 O141 2.228 . S
Cd142 O146 2.273 . S
Cd142 O150 2.277 . S
O143 C140 1.160 . S
O143 Cd144 2.203 . S
Cd144 O143 2.203 . S
Cd144 O146 2.411 . S
Cd144 O147 2.333 . S
Cd144 O148 2.352 . S
Cd144 O152 2.277 . S
Cd144 O153 2.356 . S
C145 O150 1.209 . S
C145 O152 1.226 . S
O146 Cd142 2.273 . S
O146 Cd144 2.411 . S
O146 C149 1.320 . S
O147 Cd144 2.333 . S
O147 C149 1.214 . S
O148 Cd144 2.352 . S
O148 C151 1.258 . S
C149 O146 1.320 . S
C149 O147 1.214 . S
O150 Cd142 2.277 . S
O150 C145 1.209 . S
C151 O148 1.258 . S
C151 O153 1.282 . S
O152 Cd144 2.277 . S
O152 C145 1.226 . S
O153 Cd144 2.356 . S
O153 C151 1.282 . S
C154 O155 1.306 . S
C154 O157 1.160 . S
O155 C154 1.306 . S
O155 Cd156 2.228 . S
Cd156 O155 2.228 . S
Cd156 O160 2.273 . S
Cd156 O164 2.277 . S
O157 C154 1.160 . S
O157 Cd158 2.203 . S
Cd158 O157 2.203 . S
Cd158 O160 2.411 . S
Cd158 O161 2.333 . S
Cd158 O162 2.352 . S
Cd158 O166 2.277 . S
Cd158 O167 2.356 . S
C159 O164 1.209 . S
C159 O166 1.226 . S
O160 Cd156 2.273 . S
O160 Cd158 2.411 . S
O160 C163 1.320 . S
O161 Cd158 2.333 . S
O161 C163 1.214 . S
O162 Cd158 2.352 . S
O162 C165 1.258 . S
C163 O160 1.320 . S
C163 O161 1.214 . S
O164 Cd156 2.277 . S
O164 C159 1.209 . S
C165 O162 1.258 . S
C165 O167 1.282 . S
O166 Cd158 2.277 . S
O166 C159 1.226 . S
O167 Cd158 2.356 . S
O167 C165 1.282 . S
H168 C176 0.950 . S
H169 C181 0.950 . S
H170 C178 0.950 . S
H171 C180 0.950 . S
H172 C182 0.950 . S
H173 C184 0.950 . S
H174 C186 0.950 . S
H175 C187 0.950 . S
C176 H168 0.950 . S
C176 C177 1.386 . S
C176 C178 1.391 . S
C177 C176 1.386 . S
C177 C181 1.393 . S
C178 H170 0.950 . S
C178 C176 1.391 . S
C178 C179 1.400 . S
C179 C178 1.400 . S
C179 C180 1.398 . S
C179 C185 1.491 1_556 S
C180 H171 0.950 . S
C180 C179 1.398 . S
C180 C181 1.391 . S
C181 H169 0.950 . S
C181 C177 1.393 . S
C181 C180 1.391 . S
C182 H172 0.950 . S
C182 C183 1.386 . S
C182 C184 1.391 . S
C183 C182 1.386 . S
C183 C187 1.393 . S
C184 H173 0.950 . S
C184 C182 1.391 . S
C184 C185 1.400 . S
C185 C179 1.491 1_554 S
C185 C184 1.400 . S
C185 C186 1.398 . S
C186 H174 0.950 . S
C186 C185 1.398 . S
C186 C187 1.391 . S
C187 H175 0.950 . S
C187 C183 1.393 . S
C187 C186 1.391 . S
H188 C196 0.950 . S
H189 C201 0.950 . S
H190 C198 0.950 . S
H191 C200 0.950 . S
H192 C202 0.950 . S
H193 C204 0.950 . S
H194 C206 0.950 . S
H195 C207 0.950 . S
C196 H188 0.950 . S
C196 C197 1.386 . S
C196 C198 1.391 . S
C197 C196 1.386 . S
C197 C201 1.393 . S
C198 H190 0.950 . S
C198 C196 1.391 . S
C198 C199 1.400 . S
C199 C198 1.400 . S
C199 C200 1.398 . S
C199 C205 1.491 . S
C200 H191 0.950 . S
C200 C199 1.398 . S
C200 C201 1.391 . S
C201 H189 0.950 . S
C201 C197 1.393 . S
C201 C200 1.391 . S
C202 H192 0.950 . S
C202 C203 1.386 . S
C202 C204 1.391 . S
C203 C202 1.386 . S
C203 C207 1.393 . S
C204 H193 0.950 . S
C204 C202 1.391 . S
C204 C205 1.400 . S
C205 C199 1.491 . S
C205 C204 1.400 . S
C205 C206 1.398 . S
C206 H194 0.950 . S
C206 C205 1.398 . S
C206 C207 1.391 . S
C207 H195 0.950 . S
C207 C203 1.393 . S
C207 C206 1.391 . S
H208 C216 0.950 . S
H209 C221 0.950 . S
H210 C218 0.950 . S
H211 C220 0.950 . S
H212 C222 0.950 . S
H213 C224 0.950 . S
H214 C226 0.950 . S
H215 C227 0.950 . S
C216 H208 0.950 . S
C216 C217 1.386 . S
C216 C218 1.391 . S
C217 C216 1.386 . S
C217 C221 1.393 . S
C218 H210 0.950 . S
C218 C216 1.391 . S
C218 C219 1.400 . S
C219 C218 1.400 . S
C219 C220 1.398 . S
C219 C225 1.491 . S
C220 H211 0.950 . S
C220 C219 1.398 . S
C220 C221 1.391 . S
C221 H209 0.950 . S
C221 C217 1.393 . S
C221 C220 1.391 . S
C222 H212 0.950 . S
C222 C223 1.386 . S
C222 C224 1.391 . S
C223 C222 1.386 . S
C223 C227 1.393 . S
C224 H213 0.950 . S
C224 C222 1.391 . S
C224 C225 1.400 . S
C225 C219 1.491 . S
C225 C224 1.400 . S
C225 C226 1.398 . S
C226 H214 0.950 . S
C226 C225 1.398 . S
C226 C227 1.391 . S
C227 H215 0.950 . S
C227 C223 1.393 . S
C227 C226 1.391 . S
H228 C236 0.950 . S
H229 C241 0.950 . S
H230 C238 0.950 . S
H231 C240 0.950 . S
H232 C242 0.950 . S
H233 C244 0.950 . S
H234 C246 0.950 . S
H235 C247 0.950 . S
C236 H228 0.950 . S
C236 C237 1.386 . S
C236 C238 1.391 . S
C237 C236 1.386 . S
C237 C241 1.393 . S
C238 H230 0.950 . S
C238 C236 1.391 . S
C238 C239 1.400 . S
C239 C238 1.400 . S
C239 C240 1.398 . S
C239 C245 1.491 1_554 S
C240 H231 0.950 . S
C240 C239 1.398 . S
C240 C241 1.391 . S
C241 H229 0.950 . S
C241 C237 1.393 . S
C241 C240 1.391 . S
C242 H232 0.950 . S
C242 C243 1.386 . S
C242 C244 1.391 . S
C243 C242 1.386 . S
C243 C247 1.393 . S
C244 H233 0.950 . S
C244 C242 1.391 . S
C244 C245 1.400 . S
C245 C239 1.491 1_556 S
C245 C244 1.400 . S
C245 C246 1.398 . S
C246 H234 0.950 . S
C246 C245 1.398 . S
C246 C247 1.391 . S
C247 H235 0.950 . S
C247 C243 1.393 . S
C247 C246 1.391 . S
H248 C256 0.950 . S
H249 C261 0.950 . S
H250 C258 0.950 . S
H251 C260 0.950 . S
H252 C262 0.950 . S
H253 C264 0.950 . S
H254 C266 0.950 . S
H255 C267 0.950 . S
C256 H248 0.950 . S
C256 C257 1.386 . S
C256 C258 1.391 . S
C257 C256 1.386 . S
C257 C261 1.393 . S
C258 H250 0.950 . S
C258 C256 1.391 . S
C258 C259 1.400 . S
C259 C258 1.400 . S
C259 C260 1.398 . S
C259 C265 1.491 . S
C260 H251 0.950 . S
C260 C259 1.398 . S
C260 C261 1.391 . S
C261 H249 0.950 . S
C261 C257 1.393 . S
C261 C260 1.391 . S
C262 H252 0.950 . S
C262 C263 1.386 . S
C262 C264 1.391 . S
C263 C262 1.386 . S
C263 C267 1.393 . S
C264 H253 0.950 . S
C264 C262 1.391 . S
C264 C265 1.400 . S
C265 C259 1.491 . S
C265 C264 1.400 . S
C265 C266 1.398 . S
C266 H254 0.950 . S
C266 C265 1.398 . S
C266 C267 1.391 . S
C267 H255 0.950 . S
C267 C263 1.393 . S
C267 C266 1.391 . S
H268 C276 0.950 . S
H269 C281 0.950 . S
H270 C278 0.950 . S
H271 C280 0.950 . S
H272 C282 0.950 . S
H273 C284 0.950 . S
H274 C286 0.950 . S
H275 C287 0.950 . S
C276 H268 0.950 . S
C276 C277 1.386 . S
C276 C278 1.391 . S
C277 C276 1.386 . S
C277 C281 1.393 . S
C278 H270 0.950 . S
C278 C276 1.391 . S
C278 C279 1.400 . S
C279 C278 1.400 . S
C279 C280 1.398 . S
C279 C285 1.491 . S
C280 H271 0.950 . S
C280 C279 1.398 . S
C280 C281 1.391 . S
C281 H269 0.950 . S
C281 C277 1.393 . S
C281 C280 1.391 . S
C282 H272 0.950 . S
C282 C283 1.386 . S
C282 C284 1.391 . S
C283 C282 1.386 . S
C283 C287 1.393 . S
C284 H273 0.950 . S
C284 C282 1.391 . S
C284 C285 1.400 . S
C285 C279 1.491 . S
C285 C284 1.400 . S
C285 C286 1.398 . S
C286 H274 0.950 . S
C286 C285 1.398 . S
C286 C287 1.391 . S
C287 H275 0.950 . S
C287 C283 1.393 . S
C287 C286 1.391 . S
H288 C296 0.950 . S
H289 C301 0.950 . S
H290 C298 0.950 . S
H291 C300 0.950 . S
H292 C302 0.950 . S
H293 C304 0.950 . S
H294 C306 0.950 . S
H295 C307 0.950 . S
C296 H288 0.950 . S
C296 C297 1.386 . S
C296 C298 1.391 . S
C297 C296 1.386 . S
C297 C301 1.393 . S
C298 H290 0.950 . S
C298 C296 1.391 . S
C298 C299 1.400 . S
C299 C298 1.400 . S
C299 C300 1.398 . S
C299 C305 1.491 . S
C300 H291 0.950 . S
C300 C299 1.398 . S
C300 C301 1.391 . S
C301 H289 0.950 . S
C301 C297 1.393 . S
C301 C300 1.391 . S
C302 H292 0.950 . S
C302 C303 1.386 . S
C302 C304 1.391 . S
C303 C302 1.386 . S
C303 C307 1.393 . S
C304 H293 0.950 . S
C304 C302 1.391 . S
C304 C305 1.400 . S
C305 C299 1.491 . S
C305 C304 1.400 . S
C305 C306 1.398 . S
C306 H294 0.950 . S
C306 C305 1.398 . S
C306 C307 1.391 . S
C307 H295 0.950 . S
C307 C303 1.393 . S
C307 C306 1.391 . S
H308 C316 0.950 . S
H309 C321 0.950 . S
H310 C318 0.950 . S
H311 C320 0.950 . S
H312 C322 0.950 . S
H313 C324 0.950 . S
H314 C326 0.950 . S
H315 C327 0.950 . S
C316 H308 0.950 . S
C316 C317 1.386 . S
C316 C318 1.391 . S
C317 C316 1.386 . S
C317 C321 1.393 . S
C318 H310 0.950 . S
C318 C316 1.391 . S
C318 C319 1.400 . S
C319 C318 1.400 . S
C319 C320 1.398 . S
C319 C325 1.491 . S
C320 H311 0.950 . S
C320 C319 1.398 . S
C320 C321 1.391 . S
C321 H309 0.950 . S
C321 C317 1.393 . S
C321 C320 1.391 . S
C322 H312 0.950 . S
C322 C323 1.386 . S
C322 C324 1.391 . S
C323 C322 1.386 . S
C323 C327 1.393 . S
C324 H313 0.950 . S
C324 C322 1.391 . S
C324 C325 1.400 . S
C325 C319 1.491 . S
C325 C324 1.400 . S
C325 C326 1.398 . S
C326 H314 0.950 . S
C326 C325 1.398 . S
C326 C327 1.391 . S
C327 H315 0.950 . S
C327 C323 1.393 . S
C327 C326 1.391 . S
H328 C336 0.950 . S
H329 C341 0.950 . S
H330 C338 0.950 . S
H331 C340 0.950 . S
H332 C342 0.950 . S
H333 C344 0.950 . S
H334 C346 0.950 . S
H335 C347 0.950 . S
C336 H328 0.950 . S
C336 C337 1.386 . S
C336 C338 1.391 . S
C337 C336 1.386 . S
C337 C341 1.393 . S
C338 H330 0.950 . S
C338 C336 1.391 . S
C338 C339 1.400 . S
C339 C338 1.400 . S
C339 C340 1.398 . S
C339 C345 1.491 . S
C340 H331 0.950 . S
C340 C339 1.398 . S
C340 C341 1.391 . S
C341 H329 0.950 . S
C341 C337 1.393 . S
C341 C340 1.391 . S
C342 H332 0.950 . S
C342 C343 1.386 . S
C342 C344 1.391 . S
C343 C342 1.386 . S
C343 C347 1.393 . S
C344 H333 0.950 . S
C344 C342 1.391 . S
C344 C345 1.400 . S
C345 C339 1.491 . S
C345 C344 1.400 . S
C345 C346 1.398 . S
C346 H334 0.950 . S
C346 C345 1.398 . S
C346 C347 1.391 . S
C347 H335 0.950 . S
C347 C343 1.393 . S
C347 C346 1.391 . S
H348 C356 0.950 . S
H349 C361 0.950 . S
H350 C358 0.950 . S
H351 C360 0.950 . S
H352 C362 0.950 . S
H353 C364 0.950 . S
H354 C366 0.950 . S
H355 C367 0.950 . S
C356 H348 0.950 . S
C356 C357 1.386 . S
C356 C358 1.391 . S
C357 C356 1.386 . S
C357 C361 1.393 . S
C358 H350 0.950 . S
C358 C356 1.391 . S
C358 C359 1.400 . S
C359 C358 1.400 . S
C359 C360 1.398 . S
C359 C365 1.491 . S
C360 H351 0.950 . S
C360 C359 1.398 . S
C360 C361 1.391 . S
C361 H349 0.950 . S
C361 C357 1.393 . S
C361 C360 1.391 . S
C362 H352 0.950 . S
C362 C363 1.386 . S
C362 C364 1.391 . S
C363 C362 1.386 . S
C363 C367 1.393 . S
C364 H353 0.950 . S
C364 C362 1.391 . S
C364 C365 1.400 . S
C365 C359 1.491 . S
C365 C364 1.400 . S
C365 C366 1.398 . S
C366 H354 0.950 . S
C366 C365 1.398 . S
C366 C367 1.391 . S
C367 H355 0.950 . S
C367 C363 1.393 . S
C367 C366 1.391 . S
H368 C376 0.950 . S
H369 C381 0.950 . S
H370 C378 0.950 . S
H371 C380 0.950 . S
H372 C382 0.950 . S
H373 C384 0.950 . S
H374 C386 0.950 . S
H375 C387 0.950 . S
C376 H368 0.950 . S
C376 C377 1.386 . S
C376 C378 1.391 . S
C377 C376 1.386 . S
C377 C381 1.393 . S
C378 H370 0.950 . S
C378 C376 1.391 . S
C378 C379 1.400 . S
C379 C378 1.400 . S
C379 C380 1.398 . S
C379 C385 1.491 . S
C380 H371 0.950 . S
C380 C379 1.398 . S
C380 C381 1.391 . S
C381 H369 0.950 . S
C381 C377 1.393 . S
C381 C380 1.391 . S
C382 H372 0.950 . S
C382 C383 1.386 . S
C382 C384 1.391 . S
C383 C382 1.386 . S
C383 C387 1.393 . S
C384 H373 0.950 . S
C384 C382 1.391 . S
C384 C385 1.400 . S
C385 C379 1.491 . S
C385 C384 1.400 . S
C385 C386 1.398 . S
C386 H374 0.950 . S
C386 C385 1.398 . S
C386 C387 1.391 . S
C387 H375 0.950 . S
C387 C383 1.393 . S
C387 C386 1.391 . S
H388 C396 0.950 . S
H389 C401 0.950 . S
H390 C398 0.950 . S
H391 C400 0.950 . S
H392 C402 0.950 . S
H393 C404 0.950 . S
H394 C406 0.950 . S
H395 C407 0.950 . S
C396 H388 0.950 . S
C396 C397 1.386 . S
C396 C398 1.391 . S
C397 C396 1.386 . S
C397 C401 1.393 . S
C398 H390 0.950 . S
C398 C396 1.391 . S
C398 C399 1.400 . S
C399 C398 1.400 . S
C399 C400 1.398 . S
C399 C405 1.491 . S
C400 H391 0.950 . S
C400 C399 1.398 . S
C400 C401 1.391 . S
C401 H389 0.950 . S
C401 C397 1.393 . S
C401 C400 1.391 . S
C402 H392 0.950 . S
C402 C403 1.386 . S
C402 C404 1.391 . S
C403 C402 1.386 . S
C403 C407 1.393 . S
C404 H393 0.950 . S
C404 C402 1.391 . S
C404 C405 1.400 . S
C405 C399 1.491 . S
C405 C404 1.400 . S
C405 C406 1.398 . S
C406 H394 0.950 . S
C406 C405 1.398 . S
C406 C407 1.391 . S
C407 H395 0.950 . S
C407 C403 1.393 . S
C407 C406 1.391 . S
H408 C416 0.950 . S
H409 C421 0.950 . S
H410 C418 0.950 . S
H411 C420 0.950 . S
H412 C422 0.950 . S
H413 C424 0.950 . S
H414 C426 0.950 . S
H415 C427 0.950 . S
C416 H408 0.950 . S
C416 C417 1.386 . S
C416 C418 1.391 . S
C417 C416 1.386 . S
C417 C421 1.393 . S
C418 H410 0.950 . S
C418 C416 1.391 . S
C418 C419 1.400 . S
C419 C418 1.400 . S
C419 C420 1.398 . S
C419 C425 1.491 1_655 S
C420 H411 0.950 . S
C420 C419 1.398 . S
C420 C421 1.391 . S
C421 H409 0.950 . S
C421 C417 1.393 . S
C421 C420 1.391 . S
C422 H412 0.950 . S
C422 C423 1.386 . S
C422 C424 1.391 . S
C423 C422 1.386 . S
C423 C427 1.393 . S
C424 H413 0.950 . S
C424 C422 1.391 . S
C424 C425 1.400 . S
C425 C419 1.491 1_455 S
C425 C424 1.400 . S
C425 C426 1.398 . S
C426 H414 0.950 . S
C426 C425 1.398 . S
C426 C427 1.391 . S
C427 H415 0.950 . S
C427 C423 1.393 . S
C427 C426 1.391 . S
H428 C436 0.950 . S
H429 C441 0.950 . S
H430 C438 0.950 . S
H431 C440 0.950 . S
H432 C442 0.950 . S
H433 C444 0.950 . S
H434 C446 0.950 . S
H435 C447 0.950 . S
C436 H428 0.950 . S
C436 C437 1.386 . S
C436 C438 1.391 . S
C437 C436 1.386 . S
C437 C441 1.393 . S
C438 H430 0.950 . S
C438 C436 1.391 . S
C438 C439 1.400 . S
C439 C438 1.400 . S
C439 C440 1.398 . S
C439 C445 1.491 1_545 S
C440 H431 0.950 . S
C440 C439 1.398 . S
C440 C441 1.391 . S
C441 H429 0.950 . S
C441 C437 1.393 . S
C441 C440 1.391 . S
C442 H432 0.950 . S
C442 C443 1.386 . S
C442 C444 1.391 . S
C443 C442 1.386 . S
C443 C447 1.393 . S
C444 H433 0.950 . S
C444 C442 1.391 . S
C444 C445 1.400 . S
C445 C439 1.491 1_565 S
C445 C444 1.400 . S
C445 C446 1.398 . S
C446 H434 0.950 . S
C446 C445 1.398 . S
C446 C447 1.391 . S
C447 H435 0.950 . S
C447 C443 1.393 . S
C447 C446 1.391 . S
H448 C456 0.950 . S
H449 C461 0.950 . S
H450 C458 0.950 . S
H451 C460 0.950 . S
H452 C462 0.950 . S
H453 C464 0.950 . S
H454 C466 0.950 . S
H455 C467 0.950 . S
C456 H448 0.950 . S
C456 C457 1.386 . S
C456 C458 1.391 . S
C457 C456 1.386 . S
C457 C461 1.393 . S
C458 H450 0.950 . S
C458 C456 1.391 . S
C458 C459 1.400 . S
C459 C458 1.400 . S
C459 C460 1.398 . S
C459 C465 1.491 . S
C460 H451 0.950 . S
C460 C459 1.398 . S
C460 C461 1.391 . S
C461 H449 0.950 . S
C461 C457 1.393 . S
C461 C460 1.391 . S
C462 H452 0.950 . S
C462 C463 1.386 . S
C462 C464 1.391 . S
C463 C462 1.386 . S
C463 C467 1.393 . S
C464 H453 0.950 . S
C464 C462 1.391 . S
C464 C465 1.400 . S
C465 C459 1.491 . S
C465 C464 1.400 . S
C465 C466 1.398 . S
C466 H454 0.950 . S
C466 C465 1.398 . S
C466 C467 1.391 . S
C467 H455 0.950 . S
C467 C463 1.393 . S
C467 C466 1.391 . S
H468 C476 0.950 . S
H469 C481 0.950 . S
H470 C478 0.950 . S
H471 C480 0.950 . S
H472 C482 0.950 . S
H473 C484 0.950 . S
H474 C486 0.950 . S
H475 C487 0.950 . S
C476 H468 0.950 . S
C476 C477 1.386 . S
C476 C478 1.391 . S
C477 C476 1.386 . S
C477 C481 1.393 . S
C478 H470 0.950 . S
C478 C476 1.391 . S
C478 C479 1.400 . S
C479 C478 1.400 . S
C479 C480 1.398 . S
C479 C485 1.491 1_545 S
C480 H471 0.950 . S
C480 C479 1.398 . S
C480 C481 1.391 . S
C481 H469 0.950 . S
C481 C477 1.393 . S
C481 C480 1.391 . S
C482 H472 0.950 . S
C482 C483 1.386 . S
C482 C484 1.391 . S
C483 C482 1.386 . S
C483 C487 1.393 . S
C484 H473 0.950 . S
C484 C482 1.391 . S
C484 C485 1.400 . S
C485 C479 1.491 1_565 S
C485 C484 1.400 . S
C485 C486 1.398 . S
C486 H474 0.950 . S
C486 C485 1.398 . S
C486 C487 1.391 . S
C487 H475 0.950 . S
C487 C483 1.393 . S
C487 C486 1.391 . S
H488 C496 0.950 . S
H489 C501 0.950 . S
H490 C498 0.950 . S
H491 C500 0.950 . S
H492 C502 0.950 . S
H493 C504 0.950 . S
H494 C506 0.950 . S
H495 C507 0.950 . S
C496 H488 0.950 . S
C496 C497 1.386 . S
C496 C498 1.391 . S
C497 C496 1.386 . S
C497 C501 1.393 . S
C498 H490 0.950 . S
C498 C496 1.391 . S
C498 C499 1.400 . S
C499 C498 1.400 . S
C499 C500 1.398 . S
C499 C505 1.491 . S
C500 H491 0.950 . S
C500 C499 1.398 . S
C500 C501 1.391 . S
C501 H489 0.950 . S
C501 C497 1.393 . S
C501 C500 1.391 . S
C502 H492 0.950 . S
C502 C503 1.386 . S
C502 C504 1.391 . S
C503 C502 1.386 . S
C503 C507 1.393 . S
C504 H493 0.950 . S
C504 C502 1.391 . S
C504 C505 1.400 . S
C505 C499 1.491 . S
C505 C504 1.400 . S
C505 C506 1.398 . S
C506 H494 0.950 . S
C506 C505 1.398 . S
C506 C507 1.391 . S
C507 H495 0.950 . S
C507 C503 1.393 . S
C507 C506 1.391 . S
H508 C516 0.950 . S
H509 C521 0.950 . S
H510 C518 0.950 . S
H511 C520 0.950 . S
H512 C522 0.950 . S
H513 C524 0.950 . S
H514 C526 0.950 . S
H515 C527 0.950 . S
C516 H508 0.950 . S
C516 C517 1.386 . S
C516 C518 1.391 . S
C517 C516 1.386 . S
C517 C521 1.393 . S
C518 H510 0.950 . S
C518 C516 1.391 . S
C518 C519 1.400 . S
C519 C518 1.400 . S
C519 C520 1.398 . S
C519 C525 1.491 1_455 S
C520 H511 0.950 . S
C520 C519 1.398 . S
C520 C521 1.391 . S
C521 H509 0.950 . S
C521 C517 1.393 . S
C521 C520 1.391 . S
C522 H512 0.950 . S
C522 C523 1.386 . S
C522 C524 1.391 . S
C523 C522 1.386 . S
C523 C527 1.393 . S
C524 H513 0.950 . S
C524 C522 1.391 . S
C524 C525 1.400 . S
C525 C519 1.491 1_655 S
C525 C524 1.400 . S
C525 C526 1.398 . S
C526 H514 0.950 . S
C526 C525 1.398 . S
C526 C527 1.391 . S
C527 H515 0.950 . S
C527 C523 1.393 . S
C527 C526 1.391 . S
H528 C536 0.950 . S
H529 C541 0.950 . S
H530 C538 0.950 . S
H531 C540 0.950 . S
H532 C542 0.950 . S
H533 C544 0.950 . S
H534 C546 0.950 . S
H535 C547 0.950 . S
C536 H528 0.950 . S
C536 C537 1.386 . S
C536 C538 1.391 . S
C537 C536 1.386 . S
C537 C541 1.393 . S
C538 H530 0.950 . S
C538 C536 1.391 . S
C538 C539 1.400 . S
C539 C538 1.400 . S
C539 C540 1.398 . S
C539 C545 1.491 . S
C540 H531 0.950 . S
C540 C539 1.398 . S
C540 C541 1.391 . S
C541 H529 0.950 . S
C541 C537 1.393 . S
C541 C540 1.391 . S
C542 H532 0.950 . S
C542 C543 1.386 . S
C542 C544 1.391 . S
C543 C542 1.386 . S
C543 C547 1.393 . S
C544 H533 0.950 . S
C544 C542 1.391 . S
C544 C545 1.400 . S
C545 C539 1.491 . S
C545 C544 1.400 . S
C545 C546 1.398 . S
C546 H534 0.950 . S
C546 C545 1.398 . S
C546 C547 1.391 . S
C547 H535 0.950 . S
C547 C543 1.393 . S
C547 C546 1.391 . S
H548 C556 0.950 . S
H549 C561 0.950 . S
H550 C558 0.950 . S
H551 C560 0.950 . S
H552 C562 0.950 . S
H553 C564 0.950 . S
H554 C566 0.950 . S
H555 C567 0.950 . S
C556 H548 0.950 . S
C556 C557 1.386 . S
C556 C558 1.391 . S
C557 C556 1.386 . S
C557 C561 1.393 . S
C558 H550 0.950 . S
C558 C556 1.391 . S
C558 C559 1.400 . S
C559 C558 1.400 . S
C559 C560 1.398 . S
C559 C565 1.491 1_655 S
C560 H551 0.950 . S
C560 C559 1.398 . S
C560 C561 1.391 . S
C561 H549 0.950 . S
C561 C557 1.393 . S
C561 C560 1.391 . S
C562 H552 0.950 . S
C562 C563 1.386 . S
C562 C564 1.391 . S
C563 C562 1.386 . S
C563 C567 1.393 . S
C564 H553 0.950 . S
C564 C562 1.391 . S
C564 C565 1.400 . S
C565 C559 1.491 1_455 S
C565 C564 1.400 . S
C565 C566 1.398 . S
C566 H554 0.950 . S
C566 C565 1.398 . S
C566 C567 1.391 . S
C567 H555 0.950 . S
C567 C563 1.393 . S
C567 C566 1.391 . S
H568 C576 0.950 . S
H569 C581 0.950 . S
H570 C578 0.950 . S
H571 C580 0.950 . S
H572 C582 0.950 . S
H573 C584 0.950 . S
H574 C586 0.950 . S
H575 C587 0.950 . S
C576 H568 0.950 . S
C576 C577 1.386 . S
C576 C578 1.391 . S
C577 C576 1.386 . S
C577 C581 1.393 . S
C578 H570 0.950 . S
C578 C576 1.391 . S
C578 C579 1.400 . S
C579 C578 1.400 . S
C579 C580 1.398 . S
C579 C585 1.491 1_545 S
C580 H571 0.950 . S
C580 C579 1.398 . S
C580 C581 1.391 . S
C581 H569 0.950 . S
C581 C577 1.393 . S
C581 C580 1.391 . S
C582 H572 0.950 . S
C582 C583 1.386 . S
C582 C584 1.391 . S
C583 C582 1.386 . S
C583 C587 1.393 . S
C584 H573 0.950 . S
C584 C582 1.391 . S
C584 C585 1.400 . S
C585 C579 1.491 1_565 S
C585 C584 1.400 . S
C585 C586 1.398 . S
C586 H574 0.950 . S
C586 C585 1.398 . S
C586 C587 1.391 . S
C587 H575 0.950 . S
C587 C583 1.393 . S
C587 C586 1.391 . S
H588 C596 0.950 . S
H589 C601 0.950 . S
H590 C598 0.950 . S
H591 C600 0.950 . S
H592 C602 0.950 . S
H593 C604 0.950 . S
H594 C606 0.950 . S
H595 C607 0.950 . S
C596 H588 0.950 . S
C596 C597 1.386 . S
C596 C598 1.391 . S
C597 C596 1.386 . S
C597 C601 1.393 . S
C598 H590 0.950 . S
C598 C596 1.391 . S
C598 C599 1.400 . S
C599 C598 1.400 . S
C599 C600 1.398 . S
C599 C605 1.491 . S
C600 H591 0.950 . S
C600 C599 1.398 . S
C600 C601 1.391 . S
C601 H589 0.950 . S
C601 C597 1.393 . S
C601 C600 1.391 . S
C602 H592 0.950 . S
C602 C603 1.386 . S
C602 C604 1.391 . S
C603 C602 1.386 . S
C603 C607 1.393 . S
C604 H593 0.950 . S
C604 C602 1.391 . S
C604 C605 1.400 . S
C605 C599 1.491 . S
C605 C604 1.400 . S
C605 C606 1.398 . S
C606 H594 0.950 . S
C606 C605 1.398 . S
C606 C607 1.391 . S
C607 H595 0.950 . S
C607 C603 1.393 . S
C607 C606 1.391 . S
H608 C616 0.950 . S
H609 C621 0.950 . S
H610 C618 0.950 . S
H611 C620 0.950 . S
H612 C622 0.950 . S
H613 C624 0.950 . S
H614 C626 0.950 . S
H615 C627 0.950 . S
C616 H608 0.950 . S
C616 C617 1.386 . S
C616 C618 1.391 . S
C617 C616 1.386 . S
C617 C621 1.393 . S
C618 H610 0.950 . S
C618 C616 1.391 . S
C618 C619 1.400 . S
C619 C618 1.400 . S
C619 C620 1.398 . S
C619 C625 1.491 1_455 S
C620 H611 0.950 . S
C620 C619 1.398 . S
C620 C621 1.391 . S
C621 H609 0.950 . S
C621 C617 1.393 . S
C621 C620 1.391 . S
C622 H612 0.950 . S
C622 C623 1.386 . S
C622 C624 1.391 . S
C623 C622 1.386 . S
C623 C627 1.393 . S
C624 H613 0.950 . S
C624 C622 1.391 . S
C624 C625 1.400 . S
C625 C619 1.491 1_655 S
C625 C624 1.400 . S
C625 C626 1.398 . S
C626 H614 0.950 . S
C626 C625 1.398 . S
C626 C627 1.391 . S
C627 H615 0.950 . S
C627 C623 1.393 . S
C627 C626 1.391 . S
H628 C636 0.950 . S
H629 C641 0.950 . S
H630 C638 0.950 . S
H631 C640 0.950 . S
H632 C642 0.950 . S
H633 C644 0.950 . S
H634 C646 0.950 . S
H635 C647 0.950 . S
C636 H628 0.950 . S
C636 C637 1.386 . S
C636 C638 1.391 . S
C637 C636 1.386 . S
C637 C641 1.393 . S
C638 H630 0.950 . S
C638 C636 1.391 . S
C638 C639 1.400 . S
C639 C638 1.400 . S
C639 C640 1.398 . S
C639 C645 1.491 1_565 S
C640 H631 0.950 . S
C640 C639 1.398 . S
C640 C641 1.391 . S
C641 H629 0.950 . S
C641 C637 1.393 . S
C641 C640 1.391 . S
C642 H632 0.950 . S
C642 C643 1.386 . S
C642 C644 1.391 . S
C643 C642 1.386 . S
C643 C647 1.393 . S
C644 H633 0.950 . S
C644 C642 1.391 . S
C644 C645 1.400 . S
C645 C639 1.491 1_545 S
C645 C644 1.400 . S
C645 C646 1.398 . S
C646 H634 0.950 . S
C646 C645 1.398 . S
C646 C647 1.391 . S
C647 H635 0.950 . S
C647 C643 1.393 . S
C647 C646 1.391 . S
C177 C149 1.230 . S
C183 C9 1.203 . S
C197 C23 1.226 . S
C203 C163 1.200 . S
C217 C37 1.230 . S
C223 C93 1.200 . S
C237 C51 1.230 . S
C243 C107 1.204 . S
C257 C121 1.202 . S
C263 C65 1.224 . S
C277 C79 1.206 . S
C283 C135 1.218 . S
C297 C112 1.348 . S
C303 C0 1.357 . S
C317 C14 1.355 . S
C323 C126 1.340 . S
C337 C28 1.339 . S
C343 C140 1.330 . S
C357 C42 1.331 . S
C363 C154 1.337 . S
C377 C84 1.343 . S
C383 C56 1.331 . S
C397 C98 1.348 . S
C403 C70 1.333 . S
C417 C47 1.550 . S
C423 C5 1.550 . S
C437 C19 1.546 . S
C443 C61 1.546 . S
C457 C75 1.546 . S
C463 C33 1.545 . S
C477 C131 1.550 . S
C483 C89 1.551 . S
C497 C145 1.549 . S
C503 C103 1.550 . S
C517 C117 1.548 . S
C523 C159 1.549 . S
C537 C53 1.364 . S
C543 C11 1.360 . S
C557 C25 1.363 . S
C563 C67 1.361 . S
C577 C81 1.362 . S
C583 C39 1.363 . S
C597 C95 1.363 . S
C603 C137 1.362 . S
C617 C151 1.361 . S
C623 C109 1.364 . S
C637 C123 1.362 . S
C643 C165 1.360 . S
