# Generated by pormake.
# Topology uob, (4)-cn, num edge types: 1
# Building blocks:
#     Node 0, Type 0, BuildingBlock: QUQFOY_clean_sbu_3, # of connection points: 4
#     Node 1, Type 0, BuildingBlock: QUQFOY_clean_sbu_3, # of connection points: 4
#     Node 2, Type 0, BuildingBlock: QUQFOY_clean_sbu_3, # of connection points: 4
#     Node 3, Type 0, BuildingBlock: QUQFOY_clean_sbu_3, # of connection points: 4
#     Node 4, Type 0, BuildingBlock: QUQFOY_clean_sbu_3, # of connection points: 4
#     Node 5, Type 0, BuildingBlock: QUQFOY_clean_sbu_3, # of connection points: 4
#     Node 6, Type 0, BuildingBlock: QUQFOY_clean_sbu_3, # of connection points: 4
#     Node 7, Type 0, BuildingBlock: QUQFOY_clean_sbu_3, # of connection points: 4
#     Node 8, Type 0, BuildingBlock: QUQFOY_clean_sbu_3, # of connection points: 4
#     Node 9, Type 0, BuildingBlock: QUQFOY_clean_sbu_3, # of connection points: 4
#     Node 10, Type 0, BuildingBlock: QUQFOY_clean_sbu_3, # of connection points: 4
#     Node 11, Type 0, BuildingBlock: QUQFOY_clean_sbu_3, # of connection points: 4
#     Node 12, Type 0, BuildingBlock: QUQFOY_clean_sbu_3, # of connection points: 4
#     Node 13, Type 0, BuildingBlock: QUQFOY_clean_sbu_3, # of connection points: 4
#     Node 14, Type 0, BuildingBlock: QUQFOY_clean_sbu_3, # of connection points: 4
#     Node 15, Type 0, BuildingBlock: QUQFOY_clean_sbu_3, # of connection points: 4
#     Edge 16, Type (0, 0), BuildingBlock: UVAHIK_clean_linker_0, # of connection points: 2
#     Edge 17, Type (0, 0), BuildingBlock: UVAHIK_clean_linker_0, # of connection points: 2
#     Edge 18, Type (0, 0), BuildingBlock: UVAHIK_clean_linker_0, # of connection points: 2
#     Edge 19, Type (0, 0), BuildingBlock: UVAHIK_clean_linker_0, # of connection points: 2
#     Edge 20, Type (0, 0), BuildingBlock: UVAHIK_clean_linker_0, # of connection points: 2
#     Edge 21, Type (0, 0), BuildingBlock: UVAHIK_clean_linker_0, # of connection points: 2
#     Edge 22, Type (0, 0), BuildingBlock: UVAHIK_clean_linker_0, # of connection points: 2
#     Edge 23, Type (0, 0), BuildingBlock: UVAHIK_clean_linker_0, # of connection points: 2
#     Edge 24, Type (0, 0), BuildingBlock: UVAHIK_clean_linker_0, # of connection points: 2
#     Edge 25, Type (0, 0), BuildingBlock: UVAHIK_clean_linker_0, # of connection points: 2
#     Edge 26, Type (0, 0), BuildingBlock: UVAHIK_clean_linker_0, # of connection points: 2
#     Edge 27, Type (0, 0), BuildingBlock: UVAHIK_clean_linker_0, # of connection points: 2
#     Edge 28, Type (0, 0), BuildingBlock: UVAHIK_clean_linker_0, # of connection points: 2
#     Edge 29, Type (0, 0), BuildingBlock: UVAHIK_clean_linker_0, # of connection points: 2
#     Edge 30, Type (0, 0), BuildingBlock: UVAHIK_clean_linker_0, # of connection points: 2
#     Edge 31, Type (0, 0), BuildingBlock: UVAHIK_clean_linker_0, # of connection points: 2
#     Edge 32, Type (0, 0), BuildingBlock: UVAHIK_clean_linker_0, # of connection points: 2
#     Edge 33, Type (0, 0), BuildingBlock: UVAHIK_clean_linker_0, # of connection points: 2
#     Edge 34, Type (0, 0), BuildingBlock: UVAHIK_clean_linker_0, # of connection points: 2
#     Edge 35, Type (0, 0), BuildingBlock: UVAHIK_clean_linker_0, # of connection points: 2
#     Edge 36, Type (0, 0), BuildingBlock: UVAHIK_clean_linker_0, # of connection points: 2
#     Edge 37, Type (0, 0), BuildingBlock: UVAHIK_clean_linker_0, # of connection points: 2
#     Edge 38, Type (0, 0), BuildingBlock: UVAHIK_clean_linker_0, # of connection points: 2
#     Edge 39, Type (0, 0), BuildingBlock: UVAHIK_clean_linker_0, # of connection points: 2
#     Edge 40, Type (0, 0), BuildingBlock: UVAHIK_clean_linker_0, # of connection points: 2
#     Edge 41, Type (0, 0), BuildingBlock: UVAHIK_clean_linker_0, # of connection points: 2
#     Edge 42, Type (0, 0), BuildingBlock: UVAHIK_clean_linker_0, # of connection points: 2
#     Edge 43, Type (0, 0), BuildingBlock: UVAHIK_clean_linker_0, # of connection points: 2
#     Edge 44, Type (0, 0), BuildingBlock: UVAHIK_clean_linker_0, # of connection points: 2
#     Edge 45, Type (0, 0), BuildingBlock: UVAHIK_clean_linker_0, # of connection points: 2
#     Edge 46, Type (0, 0), BuildingBlock: UVAHIK_clean_linker_0, # of connection points: 2
#     Edge 47, Type (0, 0), BuildingBlock: UVAHIK_clean_linker_0, # of connection points: 2
# Relax obj value: 0.172
# Max RMSD: 0.203
# Mean RMSD: 0.203
data_MOF--net-uob--node1-QUQFOY_clean_sbu_3--edge1-UVAHIK_clean_linker_0
_symmetry_space_group_name_H-M    P1
_symmetry_Int_Tables_number       1
_symmetry_cell_setting            triclinic
loop_
_symmetry_equiv_pos_as_xyz
'x, y, z'
_cell_length_a     71.00961
_cell_length_b     70.769026
_cell_length_c     35.430843
_cell_angle_alpha  89.978545
_cell_angle_beta   89.823301
_cell_angle_gamma 90.06878
loop_
_atom_site_label
_atom_site_type_symbol
_atom_site_fract_x
_atom_site_fract_y
_atom_site_fract_z
_atom_type_partial_charge
C0 C 0.11148 0.07819 0.21428 0.0
O1 O 0.10417 0.09024 0.23641 0.0
Cd2 Cd 0.10024 0.08763 0.30236 0.0
O3 O 0.11864 0.06289 0.22702 0.0
Cd4 Cd 0.12361 0.04972 0.29255 0.0
C5 C 0.0764 0.04514 0.30476 0.0
O6 O 0.13088 0.07963 0.3233 0.0
O7 O 0.12397 0.05656 0.36031 0.0
O8 O 0.15619 0.04033 0.27993 0.0
C9 C 0.13045 0.07313 0.35651 0.0
O10 O 0.07645 0.06295 0.30995 0.0
C11 C 0.15502 0.02455 0.29688 0.0
O12 O 0.09157 0.03646 0.29633 0.0
O13 O 0.13868 0.01948 0.30754 0.0
C14 C 0.90966 0.61631 0.46474 0.0
O15 O 0.89826 0.60851 0.48762 0.0
Cd16 Cd 0.90035 0.60718 0.55413 0.0
O17 O 0.92413 0.6252 0.47682 0.0
Cd18 Cd 0.93722 0.63184 0.54158 0.0
C19 C 0.94325 0.58486 0.558 0.0
O20 O 0.90718 0.63876 0.57212 0.0
O21 O 0.93053 0.63365 0.60921 0.0
O22 O 0.94588 0.66447 0.52634 0.0
C23 C 0.91378 0.63941 0.60519 0.0
O24 O 0.92559 0.58448 0.56431 0.0
C25 C 0.9617 0.66396 0.54297 0.0
O26 O 0.95129 0.60009 0.54739 0.0
O27 O 0.96707 0.64791 0.55478 0.0
C28 C 0.38026 0.41357 0.70583 0.0
O29 O 0.38825 0.40194 0.72787 0.0
Cd30 Cd 0.3882 0.40116 0.79456 0.0
O31 O 0.37041 0.42723 0.71891 0.0
Cd32 Cd 0.36264 0.43829 0.78503 0.0
C33 C 0.40923 0.44435 0.80664 0.0
O34 O 0.3562 0.40682 0.80972 0.0
O35 O 0.3581 0.42886 0.85118 0.0
O36 O 0.33037 0.44758 0.76911 0.0
C37 C 0.35398 0.41187 0.84361 0.0
O38 O 0.40988 0.42649 0.81057 0.0
C39 C 0.33078 0.46299 0.78753 0.0
O40 O 0.39411 0.45241 0.7958 0.0
O41 O 0.34665 0.46789 0.80081 0.0
C42 C 0.58602 0.87169 0.94866 0.0
O43 O 0.59841 0.8796 0.9691 0.0
Cd44 Cd 0.59995 0.88215 0.03554 0.0
O45 O 0.57195 0.86314 0.96355 0.0
Cd46 Cd 0.56122 0.85721 0.03041 0.0
C47 C 0.55741 0.90486 0.04647 0.0
O48 O 0.59256 0.85103 0.0546 0.0
O49 O 0.57089 0.85349 0.09657 0.0
O50 O 0.55086 0.82487 0.01708 0.0
C51 C 0.58788 0.84969 0.08888 0.0
O52 O 0.5753 0.90509 0.04878 0.0
C53 C 0.5356 0.8261 0.03576 0.0
O54 O 0.54865 0.88959 0.03872 0.0
O55 O 0.5313 0.84239 0.04814 0.0
C56 C 0.11673 0.41235 0.06487 0.0
O57 O 0.10958 0.4003 0.04257 0.0
Cd58 Cd 0.10636 0.40305 0.97645 0.0
O59 O 0.12428 0.42752 0.05225 0.0
Cd60 Cd 0.13062 0.44069 -0.01284 0.0
C61 C 0.08364 0.44623 0.97394 0.0
O62 O 0.13717 0.41075 0.95576 0.0
O63 O 0.13135 0.43433 0.91936 0.0
O64 O 0.16331 0.44869 0.00172 0.0
C65 C 0.13706 0.41746 0.9227 0.0
O66 O 0.0834 0.42842 0.96882 0.0
C67 C 0.16312 0.46462 -0.01483 0.0
O68 O 0.09891 0.45468 -0.01738 0.0
O69 O 0.14722 0.4704 0.97361 0.0
C70 C 0.58012 0.61059 0.3166 0.0
O71 O 0.59144 0.60258 0.2939 0.0
Cd72 Cd 0.59037 0.60255 0.22717 0.0
O73 O 0.56624 0.62026 0.30425 0.0
Cd74 Cd 0.55424 0.62793 0.23915 0.0
C75 C 0.54713 0.58147 0.21847 0.0
O76 O 0.58485 0.63463 0.21042 0.0
O77 O 0.56174 0.63077 0.17211 0.0
O78 O 0.54616 0.66058 0.25522 0.0
C79 C 0.57858 0.63608 0.1772 0.0
O80 O 0.56485 0.58068 0.21324 0.0
C81 C 0.53041 0.6605 0.23833 0.0
O82 O 0.53941 0.5967 0.2299 0.0
O83 O 0.52476 0.64464 0.22594 0.0
C84 C 0.36086 0.08244 0.5859 0.0
O85 O 0.36824 0.09386 0.56246 0.0
Cd86 Cd 0.3721 0.09031 0.49642 0.0
O87 O 0.35321 0.06707 0.57468 0.0
Cd88 Cd 0.34764 0.05178 0.51143 0.0
C89 C 0.39503 0.04714 0.49885 0.0
O90 O 0.34252 0.08024 0.47409 0.0
O91 O 0.34793 0.05477 0.44309 0.0
O92 O 0.3146 0.04436 0.52385 0.0
C93 C 0.34372 0.07214 0.44236 0.0
O94 O 0.39498 0.06483 0.49212 0.0
C95 C 0.31538 0.02761 0.51103 0.0
O96 O 0.3799 0.03853 0.50829 0.0
O97 O 0.33166 0.02134 0.50284 0.0
C98 C 0.90902 0.87949 0.81855 0.0
O99 O 0.89814 0.88752 0.79516 0.0
Cd100 Cd 0.90066 0.88826 0.72867 0.0
O101 O 0.92331 0.87007 0.80714 0.0
Cd102 Cd 0.93695 0.86304 0.74275 0.0
C103 C 0.94396 0.90982 0.72506 0.0
O104 O 0.90708 0.85644 0.71177 0.0
O105 O 0.93074 0.86103 0.67492 0.0
O106 O 0.94503 0.83032 0.75844 0.0
C107 C 0.91386 0.85556 0.6788 0.0
O108 O 0.92638 0.91043 0.71821 0.0
C109 C 0.96104 0.83065 0.74237 0.0
O110 O 0.9516 0.89455 0.73645 0.0
O111 O 0.96675 0.84664 0.73065 0.0
C112 C 0.61411 0.58233 0.71314 0.0
O113 O 0.6063 0.59394 0.73554 0.0
Cd114 Cd 0.60509 0.59248 0.80219 0.0
O115 O 0.6231 0.56804 0.72586 0.0
Cd116 Cd 0.62999 0.55578 0.79122 0.0
C117 C 0.58327 0.54928 0.80902 0.0
O118 O 0.63666 0.5863 0.82053 0.0
O119 O 0.6319 0.56302 0.85842 0.0
O120 O 0.66262 0.5474 0.77616 0.0
C121 C 0.63749 0.57987 0.85377 0.0
O122 O 0.58267 0.56707 0.8142 0.0
C123 C 0.66226 0.53161 0.79319 0.0
O124 O 0.59854 0.5413 0.79866 0.0
O125 O 0.6463 0.52608 0.8052 0.0
C126 C 0.41474 0.11171 0.97185 0.0
O127 O 0.40524 0.10342 -0.00265 0.0
Cd128 Cd 0.41157 0.10177 0.06272 0.0
O129 O 0.42961 0.12105 0.98012 0.0
Cd130 Cd 0.44701 0.12791 0.04069 0.0
C131 C 0.4554 0.08109 0.05484 0.0
O132 O 0.41929 0.13315 0.07982 0.0
O133 O 0.44532 0.12899 0.10947 0.0
O134 O 0.45219 0.16096 0.02357 0.0
C135 C 0.42812 0.13365 0.11073 0.0
O136 O 0.43823 0.08031 0.06521 0.0
C137 C 0.46887 0.16179 0.03634 0.0
O138 O 0.46248 0.09651 0.04252 0.0
O139 O 0.47623 0.14624 0.04645 0.0
C140 C 0.86876 0.90917 0.21254 0.0
O141 O 0.87655 0.89781 0.2354 0.0
Cd142 Cd 0.87835 0.90008 0.30185 0.0
O143 O 0.85996 0.92374 0.22461 0.0
Cd144 Cd 0.85323 0.93712 0.28931 0.0
C145 C 0.90009 0.94358 0.30489 0.0
O146 O 0.84709 0.90707 0.32077 0.0
O147 O 0.85178 0.93092 0.3571 0.0
O148 O 0.82052 0.94524 0.2747 0.0
C149 C 0.84666 0.91386 0.35376 0.0
O150 O 0.90064 0.92586 0.31103 0.0
C151 C 0.82097 0.96132 0.29061 0.0
O152 O 0.8848 0.95152 0.29468 0.0
O153 O 0.83697 0.96702 0.30185 0.0
C154 C 0.07791 0.37494 0.45644 0.0
O155 O 0.08989 0.38217 0.4787 0.0
Cd156 Cd 0.08742 0.38534 0.54491 0.0
O157 O 0.0628 0.36735 0.46911 0.0
Cd158 Cd 0.04977 0.36125 0.53442 0.0
C159 C 0.04465 0.4084 0.54884 0.0
O160 O 0.07966 0.35438 0.56517 0.0
O161 O 0.05632 0.3602 0.60211 0.0
O162 O 0.04099 0.32852 0.52063 0.0
C163 C 0.07308 0.3544 0.59835 0.0
O164 O 0.06241 0.40861 0.55373 0.0
C165 C 0.02508 0.32929 0.53704 0.0
O166 O 0.0362 0.39315 0.53987 0.0
O167 O 0.01973 0.3455 0.54812 0.0
C168 C 0.60339 0.91329 0.55312 0.0
O169 O 0.59498 0.90282 0.52941 0.0
Cd170 Cd 0.59401 0.9064 0.46294 0.0
O171 O 0.61284 0.92771 0.5423 0.0
Cd172 Cd 0.61952 0.9429 0.47952 0.0
C173 C 0.57254 0.94976 0.46361 0.0
O174 O 0.62585 0.91315 0.44747 0.0
O175 O 0.62442 0.93783 0.41191 0.0
O176 O 0.65167 0.95071 0.49879 0.0
C177 C 0.62858 0.92054 0.41545 0.0
O178 O 0.57195 0.93226 0.45548 0.0
C179 C 0.65199 0.96676 0.48269 0.0
O180 O 0.58785 0.95736 0.47476 0.0
O181 O 0.63644 0.97269 0.46959 0.0
C182 C 0.07807 0.11974 0.82303 0.0
O183 O 0.09031 0.11287 0.80076 0.0
Cd184 Cd 0.0882 0.10989 0.73445 0.0
O185 O 0.06293 0.12715 0.81035 0.0
Cd186 Cd 0.05007 0.1335 0.74526 0.0
C187 C 0.04563 0.08627 0.73065 0.0
O188 O 0.07995 0.14067 0.71423 0.0
O189 O 0.05658 0.13478 0.67763 0.0
O190 O 0.04106 0.16609 0.75948 0.0
C191 C 0.07336 0.14059 0.68113 0.0
O192 O 0.06341 0.08635 0.72577 0.0
C193 C 0.02516 0.16521 0.74322 0.0
O194 O 0.03693 0.10139 0.7396 0.0
O195 O 0.01992 0.14897 0.73206 0.0
C196 C 0.87804 0.58263 0.06919 0.0
O197 O 0.88597 0.59394 0.0463 0.0
Cd198 Cd 0.88676 0.59226 0.9797 0.0
O199 O 0.86872 0.56839 0.05713 0.0
Cd200 Cd 0.86159 0.5556 -0.00773 0.0
C201 C 0.90825 0.5489 0.97406 0.0
O202 O 0.85506 0.58599 0.9626 0.0
O203 O 0.85941 0.56261 0.92486 0.0
O204 O 0.82898 0.54737 0.00802 0.0
C205 C 0.85405 0.57952 0.92943 0.0
O206 O 0.90888 0.56663 0.96809 0.0
C207 C 0.8292 0.53151 -0.00876 0.0
O208 O 0.89301 0.54104 -0.01495 0.0
O209 O 0.84508 0.52589 0.97908 0.0
C210 C 0.40905 0.3788 0.30915 0.0
O211 O 0.3976 0.38653 0.28642 0.0
Cd212 Cd 0.39788 0.38665 0.21944 0.0
O213 O 0.42306 0.3692 0.2969 0.0
Cd214 Cd 0.43534 0.36115 0.23204 0.0
C215 C 0.441 0.40804 0.20997 0.0
O216 O 0.40446 0.3547 0.20467 0.0
O217 O 0.42788 0.35512 0.16591 0.0
O218 O 0.445 0.32899 0.24909 0.0
C219 C 0.41064 0.35165 0.17175 0.0
O220 O 0.42325 0.40864 0.20524 0.0
C221 C 0.46074 0.32985 0.23197 0.0
O222 O 0.44897 0.39288 0.22108 0.0
O223 O 0.46556 0.34594 0.21923 0.0
C224 C 0.29929 0.00224 0.47375 0.0
C225 C 0.29806 0.01769 0.49862 0.0
C226 C 0.28345 -0.00384 0.45365 0.0
C227 C 0.25351 0.00012 0.39276 0.0
H228 H 0.2022 0.00204 0.43009 0.0
C229 C 0.19008 0.02206 0.30224 0.0
C230 C 0.17214 0.01479 0.3108 0.0
C231 C 0.20583 0.01648 0.32308 0.0
C232 C 0.21642 0.00108 0.41916 0.0
H233 H 0.27884 0.03766 0.52451 0.0
H234 H 0.25128 0.02701 0.48983 0.0
H235 H 0.22829 0.00249 0.47463 0.0
H236 H 0.157 0.99462 0.34568 0.0
H237 H 0.18451 0.98478 0.38176 0.0
H238 H 0.24165 -0.00072 0.33724 0.0
C239 C 0.26445 0.0196 0.48564 0.0
C240 C 0.23139 0.00154 0.44474 0.0
C241 C 0.2803 0.02574 0.50555 0.0
C242 C 0.1706 0.00057 0.3384 0.0
C243 C 0.18634 0.99505 0.35937 0.0
C244 C 0.23854 -0.00026 0.36717 0.0
C245 C 0.26601 0.00529 0.45825 0.0
C246 C 0.25013 0.00159 0.43182 0.0
C247 C 0.20399 0.00353 0.35302 0.0
C248 C 0.21982 0.00073 0.38 0.0
H249 H 0.31275 0.99568 0.46776 0.0
H250 H 0.28505 0.98488 0.43325 0.0
H251 H 0.26776 0.0003 0.38175 0.0
H252 H 0.19178 0.03303 0.28117 0.0
H253 H 0.21917 0.02337 0.31745 0.0
C254 C 0.96262 0.79532 0.74016 0.0
C255 C 0.97056 0.81292 0.73076 0.0
C256 C 0.96832 0.7789 0.72139 0.0
C257 C 0.98616 0.7654 0.6283 0.0
H258 H 0.98491 0.71497 0.6709 0.0
C259 C 0.96368 0.69927 0.54532 0.0
C260 C 0.97124 0.68159 0.55511 0.0
C261 C 0.96926 0.71563 0.56444 0.0
C262 C 0.98566 0.72894 0.65849 0.0
H263 H 0.99193 0.82676 0.69665 0.0
H264 H 0.00197 0.79806 0.66419 0.0
H265 H 0.985 0.74231 0.71274 0.0
H266 H 0.99185 0.66753 0.59038 0.0
H267 H 0.00168 0.69611 0.62346 0.0
H268 H 0.98628 0.75202 0.57404 0.0
C269 C 0.9911 0.79703 0.6856 0.0
C270 C 0.98551 0.74462 0.68253 0.0
C271 C 0.98546 0.81345 0.70451 0.0
C272 C 0.98568 0.6809 0.58219 0.0
C273 C 0.9912 0.69726 0.60144 0.0
C274 C 0.98623 0.74971 0.60426 0.0
C275 C 0.98206 0.77969 0.69273 0.0
C276 C 0.98527 0.76305 0.66773 0.0
C277 C 0.9825 0.71469 0.59385 0.0
C278 C 0.98549 0.73129 0.61904 0.0
H279 H 0.95112 0.79439 0.76023 0.0
H280 H 0.96098 0.76582 0.72753 0.0
H281 H 0.98581 0.77937 0.61586 0.0
H282 H 0.95254 0.70032 0.52462 0.0
H283 H 0.9622 0.72878 0.55791 0.0
C284 C 0.29558 0.46502 0.78933 0.0
C285 C 0.31316 0.47253 0.79958 0.0
C286 C 0.27916 0.47068 0.80809 0.0
C287 C 0.24494 0.48783 0.84698 0.0
H288 H 0.25142 0.48768 0.95564 0.0
C289 C 0.1806 0.48836 0.94586 0.0
C290 C 0.18091 0.47387 0.97305 0.0
C291 C 0.19711 0.49366 0.92688 0.0
C292 C 0.24936 0.48788 0.92537 0.0
H293 H 0.32704 0.49314 0.83532 0.0
H294 H 0.29837 0.50317 0.86766 0.0
H295 H 0.279 0.48704 0.91457 0.0
H296 H 0.1991 0.4548 0.00394 0.0
H297 H 0.2278 0.46405 0.97112 0.0
H298 H 0.21529 0.48761 0.85782 0.0
C299 C 0.29732 0.49262 0.84564 0.0
C300 C 0.26519 0.48772 0.90175 0.0
C301 C 0.31374 0.48699 0.8268 0.0
C302 C 0.19834 0.466 -0.01685 0.0
C303 C 0.21485 0.47135 0.9643 0.0
C304 C 0.22911 0.48804 0.87061 0.0
C305 C 0.27994 0.48399 0.83756 0.0
C306 C 0.26318 0.48718 0.86224 0.0
C307 C 0.21431 0.48468 0.93485 0.0
C308 C 0.23111 0.48754 0.91012 0.0
H309 H 0.29461 0.45385 0.76853 0.0
H310 H 0.26606 0.46365 0.80119 0.0
H311 H 0.24288 0.48762 0.81671 0.0
H312 H 0.16742 0.49476 0.93742 0.0
H313 H 0.19627 0.50423 0.90484 0.0
C314 C 0.51124 0.81039 0.07644 0.0
C315 C 0.52547 0.80895 0.04888 0.0
C316 C 0.50507 0.79435 0.09607 0.0
C317 C 0.50782 0.74168 0.09934 0.0
H318 H 0.50891 0.74935 0.2077 0.0
C319 C 0.52944 0.69584 0.23612 0.0
C320 C 0.52126 0.67839 0.22658 0.0
C321 C 0.52424 0.71236 0.21715 0.0
C322 C 0.50844 0.74696 0.17753 0.0
H323 H 0.54315 0.78928 0.01807 0.0
H324 H 0.53242 0.76142 0.05212 0.0
H325 H 0.51019 0.77653 0.16555 0.0
H326 H 0.49992 0.66495 0.19207 0.0
H327 H 0.49067 0.69382 0.15937 0.0
H328 H 0.50718 0.71206 0.11128 0.0
C329 C 0.52598 0.77489 0.05868 0.0
C330 C 0.50897 0.76257 0.1533 0.0
C331 C 0.53218 0.79092 0.03913 0.0
C332 C 0.50657 0.67813 0.20003 0.0
C333 C 0.5014 0.69466 0.18098 0.0
C334 C 0.50727 0.72607 0.12357 0.0
C335 C 0.51291 0.77651 0.08846 0.0
C336 C 0.50921 0.76011 0.11387 0.0
C337 C 0.51073 0.71182 0.18819 0.0
C338 C 0.50811 0.72848 0.16297 0.0
H339 H 0.50571 0.82405 0.08458 0.0
H340 H 0.49472 0.79605 0.11833 0.0
H341 H 0.50777 0.73927 0.06915 0.0
H342 H 0.5408 0.69656 0.25642 0.0
H343 H 0.5318 0.72527 0.2234 0.0
C344 C 0.67935 0.50773 0.8325 0.0
C345 C 0.67991 0.52224 0.80536 0.0
C346 C 0.69572 0.5023 0.85156 0.0
C347 C 0.72747 0.50775 0.90806 0.0
H348 H 0.77759 0.50797 0.86448 0.0
C349 C 0.79397 0.53008 -0.01067 0.0
C350 C 0.81145 0.52217 0.97943 0.0
C351 C 0.77753 0.52461 0.97058 0.0
C352 C 0.76371 0.50752 0.87718 0.0
H353 H 0.69842 0.54121 0.77464 0.0
H354 H 0.72689 0.53171 0.8076 0.0
H355 H 0.75019 0.50769 0.82318 0.0
H356 H 0.82506 0.50106 0.94435 0.0
H357 H 0.79634 0.4914 0.91196 0.0
H358 H 0.74099 0.50807 0.96206 0.0
C359 C 0.71384 0.52451 0.81431 0.0
C360 C 0.74799 0.50756 0.85344 0.0
C361 C 0.69747 0.53 0.79538 0.0
C362 C 0.81185 0.50751 0.95262 0.0
C363 C 0.79541 0.50209 0.93375 0.0
C364 C 0.74319 0.50777 0.9318 0.0
C365 C 0.71303 0.51116 0.84372 0.0
C366 C 0.72968 0.50816 0.86857 0.0
C367 C 0.77819 0.51112 0.94144 0.0
C368 C 0.76151 0.50813 0.91667 0.0
H369 H 0.66607 0.50141 0.84084 0.0
H370 H 0.69467 0.49172 0.87357 0.0
H371 H 0.71359 0.50838 0.92075 0.0
H372 H 0.79314 0.54141 0.00982 0.0
H373 H 0.76455 0.53194 0.97718 0.0
C374 C 0.48546 0.31352 0.19341 0.0
C375 C 0.47085 0.31246 0.22026 0.0
C376 C 0.49159 0.2973 0.17446 0.0
C377 C 0.48866 0.24477 0.17235 0.0
H378 H 0.4876 0.25164 0.06373 0.0
C379 C 0.4682 0.19714 0.0376 0.0
C380 C 0.47736 0.18019 0.04697 0.0
C381 C 0.47284 0.214 0.05601 0.0
C382 C 0.48809 0.24949 0.09399 0.0
H383 H 0.45246 0.29324 0.25064 0.0
H384 H 0.46325 0.26497 0.21791 0.0
H385 H 0.48595 0.27913 0.10514 0.0
H386 H 0.49974 0.16801 0.08066 0.0
H387 H 0.50787 0.19746 0.11261 0.0
H388 H 0.48989 0.21507 0.1612 0.0
C389 C 0.46994 0.27834 0.21134 0.0
C390 C 0.48733 0.26526 0.11777 0.0
C391 C 0.46373 0.29458 0.23014 0.0
C392 C 0.49238 0.1808 0.07276 0.0
C393 C 0.49692 0.19765 0.0914 0.0
C394 C 0.48956 0.229 0.14857 0.0
C395 C 0.48337 0.27962 0.18214 0.0
C396 C 0.48711 0.26306 0.15726 0.0
C397 C 0.48668 0.21426 0.08433 0.0
C398 C 0.48878 0.23114 0.1091 0.0
H399 H 0.49131 0.32706 0.18516 0.0
H400 H 0.5022 0.29871 0.1526 0.0
H401 H 0.48866 0.24259 0.20262 0.0
H402 H 0.45657 0.19717 0.0179 0.0
H403 H 0.46462 0.22651 0.04992 0.0
C404 C 0.80399 0.98584 0.32869 0.0
C405 C 0.80336 0.97101 0.30229 0.0
C406 C 0.78758 0.99177 0.34723 0.0
C407 C 0.75523 0.98757 0.40333 0.0
H408 H 0.70555 0.98824 0.35837 0.0
C409 C 0.68724 0.96757 0.48295 0.0
C410 C 0.6701 0.97584 0.47211 0.0
C411 C 0.70406 0.97255 0.46482 0.0
C412 C 0.71932 0.98845 0.37143 0.0
H413 H 0.78477 0.95192 0.27234 0.0
H414 H 0.75622 0.96232 0.30435 0.0
H415 H 0.73335 0.9873 0.31783 0.0
H416 H 0.6575 -0.00285 0.43615 0.0
H417 H 0.68687 0.00595 0.40481 0.0
H418 H 0.74118 0.98817 0.45695 0.0
C419 C 0.76935 0.96937 0.31089 0.0
C420 C 0.73525 0.98771 0.34814 0.0
C421 C 0.78576 0.96337 0.29252 0.0
C422 C 0.67043 0.99043 0.44514 0.0
C423 C 0.68725 0.99536 0.42686 0.0
C424 C 0.73928 0.98822 0.42663 0.0
C425 C 0.77018 0.98311 0.33955 0.0
C426 C 0.75339 0.98679 0.36381 0.0
C427 C 0.70412 0.9859 0.43537 0.0
C428 C 0.72112 0.9882 0.41099 0.0
H429 H 0.8173 0.99206 0.33687 0.0
H430 H 0.78865 0.0026 0.3687 0.0
H431 H 0.76896 0.98671 0.41641 0.0
H432 H 0.68751 0.95628 0.50361 0.0
H433 H 0.71676 0.96493 0.47206 0.0
C434 C 0.00067 0.31285 0.57642 0.0
C435 C 0.01533 0.31183 0.5497 0.0
C436 C -0.00509 0.29669 0.59616 0.0
C437 C -0.00015 0.24423 0.60128 0.0
H438 H -9e-05 0.25277 0.70941 0.0
C439 C 0.02278 0.20045 0.73973 0.0
C440 C 0.01533 0.1826 0.73074 0.0
C441 C 0.01694 0.21658 0.72017 0.0
C442 C -0.00027 0.25014 0.6793 0.0
H443 H 0.03419 0.29273 0.52033 0.0
H444 H 0.02414 0.26465 0.55451 0.0
H445 H 0.00026 0.27967 0.66643 0.0
H446 H -0.00536 0.168 0.69652 0.0
H447 H 0.98432 0.19618 0.66271 0.0
H448 H 0.00042 0.21471 0.61415 0.0
C449 C 0.01707 0.27788 0.56037 0.0
C450 C -0.00028 0.26557 0.65459 0.0
C451 C 0.02288 0.29403 0.54074 0.0
C452 C 0.00073 0.18151 0.70408 0.0
C453 C -0.00506 0.19764 0.6844 0.0
C454 C -0.00019 0.2288 0.62599 0.0
C455 C 0.00359 0.27915 0.58945 0.0
C456 C 0.00034 0.26281 0.61526 0.0
C457 C 0.00353 0.21523 0.69112 0.0
C458 C 0.00031 0.23156 0.66532 0.0
H459 H -0.00549 0.32633 0.58395 0.0
H460 H 0.98423 0.2981 0.61788 0.0
H461 H 0.00012 0.2416 0.57117 0.0
H462 H 0.03404 0.20181 0.7601 0.0
H463 H 0.02394 0.22985 0.72604 0.0
C464 C 0.05775 0.01486 0.30668 0.0
C465 C 0.05829 0.03473 0.30731 0.0
C466 C 0.04051 0.00525 0.30831 0.0
C467 C 0.99016 0.01125 0.28792 0.0
H468 H 0.98335 0.96823 0.35433 0.0
C469 C 0.91774 0.9745 0.30514 0.0
C470 C 0.91777 0.95469 0.30806 0.0
C471 C 0.93466 0.98469 0.30689 0.0
C472 C 0.98505 0.98007 0.33525 0.0
H473 H 0.04104 0.06002 0.31023 0.0
H474 H 0.01112 0.04326 0.31275 0.0
H475 H 0.01351 0.98474 0.35302 0.0
H476 H 0.93567 0.93009 0.3151 0.0
H477 H 0.96495 0.94768 0.31717 0.0
H478 H 0.96192 0.00641 0.26943 0.0
C479 C 0.02401 0.03513 0.31093 0.0
C480 C 0.00235 0.98954 0.33459 0.0
C481 C 0.0412 0.04472 0.30971 0.0
C482 C 0.93506 0.94535 0.31301 0.0
C483 C 0.95192 0.95548 0.31445 0.0
C484 C 0.97292 0.00168 0.2883 0.0
C485 C 0.02345 0.01531 0.31015 0.0
C486 C 0.0051 0.00522 0.3109 0.0
C487 C 0.95199 0.97528 0.31133 0.0
C488 C 0.97014 0.98592 0.31189 0.0
H489 H 0.07063 0.00673 0.30487 0.0
H490 H 0.0405 0.98995 0.3074 0.0
H491 H 0.99193 0.02317 0.26904 0.0
H492 H 0.90468 0.98215 0.30145 0.0
H493 H 0.93412 -6e-05 0.30494 0.0
C494 C 0.94459 0.54976 0.56645 0.0
C495 C 0.95411 0.56701 0.56098 0.0
C496 C 0.95445 0.5327 0.56694 0.0
C497 C 0.00101 0.51168 0.582 0.0
H498 H 0.98143 0.47058 0.52121 0.0
C499 C 0.04368 0.44364 0.55512 0.0
C500 C 0.034 0.42634 0.55251 0.0
C501 C 0.03385 0.46068 0.55751 0.0
C502 C 0.98695 0.48177 0.53885 0.0
H503 H 0.98158 0.57981 0.55275 0.0
H504 H -0.00114 0.5499 0.55407 0.0
H505 H 0.96468 0.50058 0.52336 0.0
H506 H 0.00631 0.41342 0.55108 0.0
H507 H 0.98911 0.44313 0.55629 0.0
H508 H 0.02311 0.49285 0.59804 0.0
C509 C 0.98372 0.54968 0.55786 0.0
C510 C 0.97738 0.49901 0.53993 0.0
C511 C 0.97382 0.5668 0.55698 0.0
C512 C 0.01421 0.42649 0.55283 0.0
C513 C 0.00435 0.44357 0.55559 0.0
C514 C 0.0105 0.49437 0.58124 0.0
C515 C 0.97408 0.53245 0.56234 0.0
C516 C 0.98433 0.51416 0.56142 0.0
C517 C 0.01405 0.46091 0.55773 0.0
C518 C 0.00365 0.47919 0.55951 0.0
H519 H 0.92943 0.54933 0.56968 0.0
H520 H 0.94667 0.51967 0.57094 0.0
H521 H 0.00656 0.52305 0.59917 0.0
H522 H 0.05892 0.4441 0.55468 0.0
H523 H 0.04184 0.47372 0.5584 0.0
C524 C 0.42675 0.47533 0.81004 0.0
C525 C 0.42674 0.45548 0.81229 0.0
C526 C 0.44365 0.48548 0.81291 0.0
C527 C 0.49438 0.48013 0.79677 0.0
H528 H 0.49941 0.52502 0.85853 0.0
C529 C 0.56594 0.51826 0.8125 0.0
C530 C 0.56569 0.53811 0.81333 0.0
C531 C 0.54912 0.50795 0.81502 0.0
C532 C 0.49821 0.51264 0.84074 0.0
H533 H 0.44453 0.43084 0.82021 0.0
H534 H 0.4738 0.44852 0.82488 0.0
H535 H 0.46951 0.50796 0.85747 0.0
H536 H 0.5475 0.56266 0.81762 0.0
H537 H 0.51836 0.54483 0.8209 0.0
H538 H 0.52279 0.48495 0.77911 0.0
C539 C 0.46079 0.45621 0.82071 0.0
C540 C 0.48107 0.50286 0.84025 0.0
C541 C 0.44395 0.4461 0.81825 0.0
C542 C 0.54827 0.54738 0.81713 0.0
C543 C 0.5315 0.53711 0.81927 0.0
C544 C 0.51144 0.49 0.79691 0.0
C545 C 0.46087 0.47598 0.81766 0.0
C546 C 0.47899 0.48649 0.81829 0.0
C547 C 0.53165 0.51725 0.81806 0.0
C548 C 0.51361 0.50641 0.81888 0.0
H549 H 0.41377 0.483 0.80551 0.0
H550 H 0.44332 0.50073 0.81031 0.0
H551 H 0.49312 0.46768 0.77916 0.0
H552 H 0.57911 0.51067 0.80981 0.0
H553 H 0.54986 0.49267 0.81465 0.0
C554 C 0.55696 0.94015 0.05188 0.0
C555 C 0.54701 0.92293 0.05072 0.0
C556 C 0.5474 0.95735 0.05379 0.0
C557 C 0.50264 0.97912 0.08139 0.0
H558 H 0.51755 0.01914 0.01262 0.0
C559 C 0.45775 0.04605 0.0626 0.0
C560 C 0.46674 0.06348 0.05601 0.0
C561 C 0.468 0.02925 0.06311 0.0
C562 C 0.51339 0.00827 0.03248 0.0
H563 H 0.51913 0.91039 0.05146 0.0
H564 H 0.5024 0.94057 0.05534 0.0
H565 H 0.53431 0.98908 0.01172 0.0
H566 H 0.49369 0.07685 0.04513 0.0
H567 H 0.51176 0.04746 0.04699 0.0
H568 H 0.48194 -0.00172 0.1027 0.0
C569 C 0.51765 0.94063 0.05465 0.0
C570 C 0.52295 0.991 0.03182 0.0
C571 C 0.52723 0.92336 0.0523 0.0
C572 C 0.48632 0.06367 0.05016 0.0
C573 C 0.49665 0.04679 0.05102 0.0
C574 C 0.4932 -0.00355 0.08237 0.0
C575 C 0.52765 0.95781 0.05499 0.0
C576 C 0.51759 0.9762 0.05608 0.0
C577 C 0.48759 0.02934 0.05744 0.0
C578 C 0.49832 0.01122 0.05767 0.0
H579 H 0.5722 0.9404 0.05069 0.0
H580 H 0.55549 0.97033 0.05446 0.0
H581 H 0.49838 0.96808 0.10082 0.0
H582 H 0.44266 0.04528 0.06687 0.0
H583 H 0.46042 0.01612 0.06729 0.0
C584 C 0.0485 0.44707 0.96862 0.0
C585 C 0.0657 0.45688 0.97113 0.0
C586 C 0.03144 0.45684 0.96725 0.0
C587 C 0.01033 0.50253 0.94331 0.0
H588 H 0.9696 0.48604 0.00872 0.0
C589 C 0.94315 0.547 0.96455 0.0
C590 C 0.92583 0.53772 0.97012 0.0
C591 C 0.95996 0.53681 0.96288 0.0
C592 C 0.98067 0.49066 -0.01023 0.0
H593 H 0.07841 0.48474 0.97354 0.0
H594 H 0.04849 0.50184 0.97069 0.0
H595 H -0.00052 0.46916 0.0093 0.0
H596 H 0.91262 0.51032 0.97734 0.0
H597 H 0.94195 0.49244 0.97339 0.0
H598 H 0.99152 0.52384 0.92328 0.0
C599 C 0.04831 0.48654 0.96985 0.0
C600 C -0.00215 0.48103 -0.00974 0.0
C601 C 0.06543 0.47675 0.97165 0.0
C602 C 0.92571 0.51792 0.97321 0.0
C603 C 0.94257 0.50769 0.9712 0.0
C604 C 0.99308 0.51206 0.94251 0.0
C605 C 0.03113 0.47667 0.96797 0.0
C606 C 0.01289 0.48691 0.96719 0.0
C607 C 0.95994 0.51703 0.96636 0.0
C608 C 0.97805 0.50634 0.96593 0.0
H609 H 0.04813 0.43177 0.96817 0.0
H610 H 0.01846 0.44885 0.96537 0.0
H611 H 0.02158 0.50722 0.92483 0.0
H612 H 0.94384 0.56225 0.9623 0.0
H613 H 0.97303 0.54457 0.95982 0.0
C614 C 0.47187 0.42561 0.20749 0.0
C615 C 0.45211 0.42566 0.205 0.0
C616 C 0.48203 0.44257 0.20537 0.0
C617 C 0.47681 0.49319 0.22376 0.0
H618 H 0.5219 0.49879 0.16286 0.0
C619 C 0.51595 0.56469 0.21343 0.0
C620 C 0.53573 0.56412 0.21287 0.0
C621 C 0.50541 0.54806 0.20957 0.0
C622 C 0.50947 0.49743 0.18041 0.0
H623 H 0.4276 0.44361 0.19748 0.0
H624 H 0.4453 0.47302 0.19416 0.0
H625 H 0.50461 0.46897 0.16196 0.0
H626 H 0.55992 0.54555 0.20769 0.0
H627 H 0.54169 0.51671 0.20213 0.0
H628 H 0.48184 0.52133 0.2432 0.0
C629 C 0.45291 0.4599 0.19788 0.0
C630 C 0.49955 0.48034 0.17976 0.0
C631 C 0.4428 0.44299 0.19957 0.0
C632 C 0.5447 0.54657 0.208 0.0
C633 C 0.5342 0.52997 0.20454 0.0
C634 C 0.48683 0.5102 0.22477 0.0
C635 C 0.4726 0.45991 0.20117 0.0
C636 C 0.48313 0.47804 0.20145 0.0
C637 C 0.51441 0.53044 0.20543 0.0
C638 C 0.50333 0.51255 0.20318 0.0
H639 H 0.47948 0.41252 0.21164 0.0
H640 H 0.49721 0.44217 0.20816 0.0
H641 H 0.46432 0.49175 0.24116 0.0
H642 H 0.50859 0.57798 0.21692 0.0
H643 H 0.4902 0.54904 0.20976 0.0
C644 C 0.43019 0.04698 0.49509 0.0
C645 C 0.41314 0.03682 0.49584 0.0
C646 C 0.44738 0.03763 0.49139 0.0
C647 C 0.46871 0.99444 0.45477 0.0
H648 H 0.51064 0.00778 0.51945 0.0
C649 C 0.53754 0.9514 0.45633 0.0
C650 C 0.55472 0.96073 0.46299 0.0
C651 C 0.52047 0.96106 0.4589 0.0
C652 C 0.49921 0.00409 0.50068 0.0
H653 H 0.40084 0.0088 0.49337 0.0
H654 H 0.43106 0.99239 0.48634 0.0
H655 H 0.48033 0.02338 0.52795 0.0
H656 H 0.56737 0.98779 0.47637 0.0
H657 H 0.53753 0.00486 0.47977 0.0
H658 H 0.48757 0.97546 0.42689 0.0
C659 C 0.43098 0.00765 0.48871 0.0
C660 C 0.48179 0.01296 0.50576 0.0
C661 C 0.41372 0.01702 0.49294 0.0
C662 C 0.55441 0.98015 0.4712 0.0
C663 C 0.53726 0.98989 0.47347 0.0
C664 C 0.48618 0.98572 0.44939 0.0
C665 C 0.44798 0.01789 0.48791 0.0
C666 C 0.46635 0.00817 0.48297 0.0
C667 C 0.52004 0.9804 0.46784 0.0
C668 C 0.50165 0.99034 0.47241 0.0
H669 H 0.4303 0.06224 0.49738 0.0
H670 H 0.46022 0.0459 0.49052 0.0
H671 H 0.45713 0.99069 0.43639 0.0
H672 H 0.53716 0.93642 0.45013 0.0
H673 H 0.50756 0.95315 0.45499 0.0
C674 C 0.01547 0.06762 0.72686 0.0
C675 C 0.03527 0.06814 0.72717 0.0
C676 C 0.00591 0.05035 0.72437 0.0
C677 C 0.01151 -0.00022 0.74431 0.0
H678 H 0.96976 0.99323 0.67531 0.0
C679 C 0.97488 0.92732 0.72557 0.0
C680 C 0.95519 0.92744 0.72163 0.0
C681 C 0.98515 0.94422 0.72399 0.0
C682 C 0.98124 0.99485 0.69509 0.0
H683 H 0.0605 0.05084 0.72501 0.0
H684 H 0.0438 0.02085 0.72104 0.0
H685 H 0.98623 0.02347 0.67781 0.0
H686 H 0.9309 0.94551 0.71277 0.0
H687 H 0.94862 0.97478 0.71104 0.0
H688 H 0.00631 0.97141 0.7624 0.0
C689 C 0.0357 0.03378 0.72276 0.0
C690 C 0.99068 0.01219 0.69642 0.0
C691 C 0.04525 0.05101 0.72481 0.0
C692 C 0.94606 0.94482 0.71567 0.0
C693 C 0.95627 0.96167 0.71443 0.0
C694 C 0.00195 0.9825 0.74328 0.0
C695 C 0.01594 0.03324 0.72261 0.0
C696 C 0.0059 0.01484 0.72108 0.0
C697 C 0.97595 0.96165 0.71873 0.0
C698 C 0.98664 0.97981 0.71874 0.0
H699 H 0.00736 0.08055 0.7286 0.0
H700 H 0.99065 0.05034 0.72455 0.0
H701 H 0.02306 0.00148 0.76391 0.0
H702 H 0.98236 0.91418 0.73003 0.0
H703 H 0.00031 0.9436 0.72682 0.0
C704 C 0.10516 0.1452 0.65192 0.0
C705 C 0.08553 0.14355 0.64793 0.0
C706 C 0.11682 0.14525 0.62008 0.0
C707 C 0.13471 0.12514 0.55349 0.0
H708 H 0.11792 0.14221 0.45525 0.0
C709 C 0.13309 0.0778 0.42596 0.0
C710 C 0.13433 0.08525 0.38936 0.0
C711 C 0.1347 0.08962 0.45721 0.0
C712 C 0.12326 0.13767 0.48238 0.0
H713 H 0.06261 0.14237 0.60774 0.0
H714 H 0.08282 0.14216 0.55244 0.0
H715 H 0.10595 0.15753 0.51184 0.0
H716 H 0.13962 0.11065 0.35663 0.0
H717 H 0.1423 0.13139 0.41147 0.0
H718 H 0.1513 0.10466 0.52406 0.0
C719 C 0.08931 0.14355 0.57992 0.0
C720 C 0.11624 0.14635 0.51482 0.0
C721 C 0.0777 0.14342 0.61165 0.0
C722 C 0.13838 0.10456 0.38458 0.0
C723 C 0.13994 0.11643 0.41591 0.0
C724 C 0.1418 0.11652 0.52104 0.0
C725 C 0.10902 0.14379 0.58381 0.0
C726 C 0.12095 0.13933 0.55065 0.0
C727 C 0.13758 0.10915 0.45251 0.0
C728 C 0.13518 0.1219 0.4853 0.0
H729 H 0.11157 0.14552 0.67961 0.0
H730 H 0.13194 0.14559 0.62388 0.0
H731 H 0.13868 0.11942 0.58068 0.0
H732 H 0.13016 0.06295 0.43051 0.0
H733 H 0.13251 0.08358 0.48498 0.0
C734 C 0.90933 0.64346 0.67442 0.0
C735 C 0.90168 0.64355 0.63799 0.0
C736 C 0.89763 0.64504 0.70587 0.0
C737 C 0.87095 0.65093 0.77031 0.0
H738 H 0.83227 0.61242 0.76304 0.0
C739 C 0.8475 0.61143 0.90201 0.0
C740 C 0.85001 0.59188 0.89701 0.0
C741 C 0.84607 0.62337 0.87075 0.0
C742 C 0.8428 0.62343 0.76552 0.0
H743 H 0.876 0.64692 0.60564 0.0
H744 H 0.85547 0.64959 0.66086 0.0
H745 H 0.84605 0.6254 0.70578 0.0
H746 H 0.8514 0.56933 0.85572 0.0
H747 H 0.84935 0.59004 0.80141 0.0
H748 H 0.86914 0.6475 0.83002 0.0
C749 C 0.87051 0.64811 0.66503 0.0
C750 C 0.85058 0.63105 0.73267 0.0
C751 C 0.88225 0.64656 0.63348 0.0
C752 C 0.8497 0.58436 0.86042 0.0
C753 C 0.84825 0.59626 0.82926 0.0
C754 C 0.86329 0.6432 0.80316 0.0
C755 C 0.87802 0.64675 0.70157 0.0
C756 C 0.86563 0.64392 0.73482 0.0
C757 C 0.84706 0.61595 0.83402 0.0
C758 C 0.85006 0.62845 0.80097 0.0
H759 H 0.92428 0.64137 0.67875 0.0
H760 H 0.9039 0.64364 0.73355 0.0
H761 H 0.8822 0.66121 0.77278 0.0
H762 H 0.84744 0.61759 0.92999 0.0
H763 H 0.845 0.63847 0.87528 0.0
C764 C 0.38067 0.35693 0.13747 0.0
C765 C 0.39794 0.34752 0.14032 0.0
C766 C 0.3701 0.35555 0.10447 0.0
C767 C 0.37921 0.34605 0.00366 0.0
H768 H 0.32794 0.36439 -0.00394 0.0
C769 C 0.35362 0.37861 0.86705 0.0
C770 C 0.35055 0.39794 0.87372 0.0
C771 C 0.35335 0.36578 0.89698 0.0
C772 C 0.34214 0.35888 -0.00229 0.0
H773 H 0.41682 0.32764 0.11352 0.0
H774 H 0.39773 0.32401 0.05694 0.0
H775 H 0.33919 0.35172 0.05602 0.0
H776 H 0.34294 0.41877 0.9159 0.0
H777 H 0.34233 0.39631 0.96818 0.0
H778 H 0.38221 0.35355 0.94561 0.0
C779 C 0.39276 0.33337 0.07895 0.0
C780 C 0.3487 0.35183 0.0321 0.0
C781 C 0.40367 0.33531 0.11141 0.0
C782 C 0.34558 0.40397 0.91013 0.0
C783 C 0.345 0.39109 0.93992 0.0
C784 C 0.3725 0.35263 0.96922 0.0
C785 C 0.37637 0.34429 0.07411 0.0
C786 C 0.36769 0.34643 0.03609 0.0
C787 C 0.34964 0.37205 0.93382 0.0
C788 C 0.35427 0.36004 0.9665 0.0
H789 H 0.37602 0.36642 0.15961 0.0
H790 H 0.35774 0.3644 0.10204 0.0
H791 H 0.39394 0.34228 0.00519 0.0
H792 H 0.35737 0.37356 0.83916 0.0
H793 H 0.35703 0.35116 0.89172 0.0
C794 C 0.62926 0.89025 0.38011 0.0
C795 C 0.6348 0.90919 0.38314 0.0
C796 C 0.63363 0.87994 0.34774 0.0
C797 C 0.64421 0.88922 0.24743 0.0
H798 H 0.63839 0.83477 0.2434 0.0
C799 C 0.62064 0.85452 0.11211 0.0
C800 C 0.60208 0.84846 0.11885 0.0
C801 C 0.63304 0.85702 0.14223 0.0
C802 C 0.64052 0.84993 0.24407 0.0
H803 H 0.65072 0.93179 0.35702 0.0
H804 H 0.65942 0.91351 0.30135 0.0
H805 H 0.64637 0.84993 0.30316 0.0
H806 H 0.5825 0.83825 0.16119 0.0
H807 H 0.60425 0.8423 0.21374 0.0
H808 H 0.63795 0.88918 0.18857 0.0
C809 C 0.65085 0.90679 0.32284 0.0
C810 C 0.64481 0.85869 0.27832 0.0
C811 C 0.64594 0.91729 0.35472 0.0
C812 C 0.59669 0.84313 0.15543 0.0
C813 C 0.6092 0.84524 0.18537 0.0
C814 C 0.64044 0.88042 0.21315 0.0
C815 C 0.64409 0.88822 0.31815 0.0
C816 C 0.64542 0.87855 0.2809 0.0
C817 C 0.62713 0.85305 0.17922 0.0
C818 C 0.63744 0.86086 0.21168 0.0
H819 H 0.62069 0.88372 0.40186 0.0
H820 H 0.62781 0.86586 0.34524 0.0
H821 H 0.64441 0.9045 0.24787 0.0
H822 H 0.62515 0.85867 0.08406 0.0
H823 H 0.64678 0.86317 0.13697 0.0
C824 C 0.10475 0.34856 0.62677 0.0
C825 C 0.08526 0.3512 0.63132 0.0
C826 C 0.11654 0.34797 0.65824 0.0
C827 C 0.13612 0.36666 0.72438 0.0
H828 H 0.11887 0.35032 0.82303 0.0
C829 C 0.13927 0.41312 0.8531 0.0
C830 C 0.1401 0.40534 0.88946 0.0
C831 C 0.13978 0.40144 0.8215 0.0
C832 C 0.12432 0.35461 0.79576 0.0
H833 H 0.06262 0.35374 0.67219 0.0
H834 H 0.08308 0.35306 0.72688 0.0
H835 H 0.1053 0.33626 0.7667 0.0
H836 H 0.14359 0.3794 0.92135 0.0
H837 H 0.14438 0.35891 0.86588 0.0
H838 H 0.1545 0.38564 0.75345 0.0
C839 C 0.08936 0.35126 0.69921 0.0
C840 C 0.11638 0.34668 0.76347 0.0
C841 C 0.07761 0.3519 0.66783 0.0
C842 C 0.14271 0.38576 0.89361 0.0
C843 C 0.14317 0.37403 0.86191 0.0
C844 C 0.14412 0.37452 0.75667 0.0
C845 C 0.109 0.34991 0.69474 0.0
C846 C 0.12135 0.35351 0.72756 0.0
C847 C 0.14113 0.38172 0.82559 0.0
C848 C 0.13743 0.36943 0.79261 0.0
H849 H 0.111 0.34776 0.59889 0.0
H850 H 0.1316 0.34675 0.65398 0.0
H851 H 0.14032 0.37221 0.69713 0.0
H852 H 0.13745 0.42818 0.84904 0.0
H853 H 0.1379 0.40782 0.79398 0.0
C854 C 0.58359 0.64173 0.10858 0.0
C855 C 0.59098 0.64089 0.14518 0.0
C856 C 0.59551 0.64397 0.07764 0.0
C857 C 0.64267 0.63027 0.05107 0.0
H858 H 0.62425 0.64787 0.95442 0.0
C859 C 0.6446 0.61166 0.88128 0.0
C860 C 0.64188 0.59213 0.88616 0.0
C861 C 0.64645 0.62349 0.91264 0.0
C862 C 0.63009 0.64327 -0.01892 0.0
H863 H 0.61644 0.64335 0.17854 0.0
H864 H 0.63737 0.64723 0.12419 0.0
H865 H 0.61137 0.6611 0.0122 0.0
H866 H 0.64055 0.56946 0.92724 0.0
H867 H 0.64332 0.58994 -0.01834 0.0
H868 H 0.66082 0.61186 0.01994 0.0
C869 C 0.62237 0.64593 0.11945 0.0
C870 C 0.62252 0.65072 0.01426 0.0
C871 C 0.61039 0.64368 0.15052 0.0
C872 C 0.6424 0.58449 0.92264 0.0
C873 C 0.64427 0.59626 0.95387 0.0
C874 C 0.6504 0.62298 0.0179 0.0
C875 C 0.61511 0.64546 0.0826 0.0
C876 C 0.62769 0.64321 0.04945 0.0
C877 C 0.64569 0.61596 0.94933 0.0
C878 C 0.64311 0.62834 -0.01733 0.0
H879 H 0.56865 0.63983 0.10363 0.0
H880 H 0.5894 0.64324 0.0497 0.0
H881 H 0.64714 0.62427 0.07769 0.0
H882 H 0.6445 0.61791 0.85337 0.0
H883 H 0.64769 0.63859 0.90825 0.0
C884 C 0.34792 0.10274 0.4079 0.0
C885 C 0.34578 0.08298 0.40714 0.0
C886 C 0.35395 0.11239 0.37559 0.0
C887 C 0.38551 0.10296 0.29989 0.0
H888 H 0.36668 0.14738 0.24818 0.0
C889 C 0.42815 0.13473 0.181 0.0
C890 C 0.41811 0.13546 0.14699 0.0
C891 C 0.41858 0.13336 0.21527 0.0
C892 C 0.37211 0.13507 0.26267 0.0
H893 H 0.34616 0.05813 0.3713 0.0
H894 H 0.35678 0.07497 0.31518 0.0
H895 H 0.34898 0.1342 0.302 0.0
H896 H 0.39025 0.1372 0.12221 0.0
H897 H 0.37351 0.13444 0.18219 0.0
H898 H 0.40838 0.1034 0.26087 0.0
C899 C 0.35405 0.08291 0.34077 0.0
C900 C 0.36203 0.12759 0.29326 0.0
C901 C 0.34801 0.07331 0.37285 0.0
C902 C 0.39835 0.13642 0.14802 0.0
C903 C 0.38876 0.13502 0.18235 0.0
C904 C 0.39563 0.11052 0.26989 0.0
C905 C 0.35788 0.10234 0.34239 0.0
C906 C 0.36851 0.11123 0.31143 0.0
C907 C 0.39881 0.13267 0.21607 0.0
C908 C 0.38893 0.12647 0.25063 0.0
H909 H 0.34617 0.11056 0.43395 0.0
H910 H 0.35683 0.1274 0.37732 0.0
H911 H 0.39088 0.09048 0.31392 0.0
H912 H 0.4434 0.13431 0.18109 0.0
H913 H 0.42663 0.13185 0.24102 0.0
C914 C 0.9094 0.85241 0.60936 0.0
C915 C 0.90181 0.85168 0.64592 0.0
C916 C 0.89767 0.85106 0.57804 0.0
C917 C 0.85007 0.86392 0.55269 0.0
H918 H 0.86813 0.84817 0.45429 0.0
C919 C 0.84252 0.88196 0.38315 0.0
C920 C 0.84401 0.90167 0.38707 0.0
C921 C 0.84263 0.87032 0.41501 0.0
C922 C 0.86247 0.85226 0.4815 0.0
H923 H 0.87623 0.84739 0.67852 0.0
H924 H 0.85568 0.84503 0.62357 0.0
H925 H 0.8825 0.83518 0.51081 0.0
H926 H 0.8452 0.92475 0.42722 0.0
H927 H 0.84573 0.90457 0.48253 0.0
H928 H 0.83058 0.8816 0.52336 0.0
C929 C 0.87067 0.8469 0.61919 0.0
C930 C 0.87087 0.84496 0.5139 0.0
C931 C 0.88243 0.84827 0.6506 0.0
C932 C 0.84423 0.90959 0.42334 0.0
C933 C 0.8443 0.89799 0.45509 0.0
C934 C 0.84159 0.87111 0.52029 0.0
C935 C 0.8781 0.84888 0.5826 0.0
C936 C 0.86557 0.85165 0.54971 0.0
C937 C 0.84414 0.87821 0.45125 0.0
C938 C 0.84854 0.86628 0.48442 0.0
H939 H 0.9243 0.85485 0.60489 0.0
H940 H 0.90386 0.85292 0.55031 0.0
H941 H 0.84558 0.86934 0.57984 0.0
H942 H 0.84211 0.87548 0.35548 0.0
H943 H 0.84232 0.85513 0.41122 0.0
C944 C 0.09969 0.11443 0.87717 0.0
C945 C 0.08136 0.11789 0.86404 0.0
C946 C 0.10292 0.11035 0.91506 0.0
C947 C 0.08192 0.11291 0.01042 0.0
H948 H 0.11915 0.07434 0.03223 0.0
C949 C 0.10815 0.10075 0.16089 0.0
C950 C 0.11065 0.08206 0.17333 0.0
C951 C 0.10502 0.10466 0.12292 0.0
C952 C 0.10859 0.085 0.02665 0.0
H953 H 0.05207 0.12037 0.88062 0.0
H954 H 0.05766 0.11296 0.94712 0.0
H955 H 0.11194 0.08221 0.96694 0.0
H956 H 0.1125 0.05285 0.15549 0.0
H957 H 0.10671 0.05966 0.08873 0.0
H958 H 0.07818 0.11534 0.07008 0.0
C959 C 0.06959 0.11361 0.92803 0.0
C960 C 0.10462 0.0897 -0.01078 0.0
C961 C 0.06636 0.11787 0.88997 0.0
C962 C 0.1107 0.06739 0.14667 0.0
C963 C 0.10737 0.07131 0.10848 0.0
C964 C 0.08581 0.10813 0.04783 0.0
C965 C 0.08788 0.10944 0.94082 0.0
C966 C 0.09141 0.1039 0.98065 0.0
C967 C 0.1041 0.08998 0.09636 0.0
C968 C 0.09939 0.09431 0.05643 0.0
H969 H 0.1116 0.11457 0.85799 0.0
H970 H 0.11725 0.10776 0.9241 0.0
H971 H 0.07174 0.12394 0.00489 0.0
H972 H 0.1083 0.11242 0.18068 0.0
H973 H 0.10313 0.11924 0.11446 0.0
C974 C 0.91751 0.62309 0.39661 0.0
C975 C 0.90614 0.61413 0.42378 0.0
C976 C 0.91417 0.62026 0.35807 0.0
C977 C 0.87761 0.60292 0.29131 0.0
H978 H 0.92007 0.59652 0.22352 0.0
C979 C 0.87043 0.57564 0.13736 0.0
C980 C 0.88048 0.58603 0.11014 0.0
C981 C 0.87324 0.57907 0.17589 0.0
C982 C 0.90808 0.59838 0.24212 0.0
H983 H 0.88235 0.59513 0.4316 0.0
H984 H 0.8769 0.58996 0.36509 0.0
H985 H 0.92567 0.60335 0.29 0.0
H986 H 0.90141 0.60816 0.10217 0.0
H987 H 0.90625 0.61396 0.16885 0.0
H988 H 0.86006 0.59764 0.24334 0.0
C989 C 0.88811 0.5995 0.37326 0.0
C990 C 0.91128 0.60241 0.28015 0.0
C991 C 0.89135 0.6024 0.41155 0.0
C992 C 0.89338 0.59986 0.12226 0.0
C993 C 0.89629 0.60314 0.16054 0.0
C994 C 0.87443 0.59874 0.25333 0.0
C995 C 0.89946 0.60835 0.34598 0.0
C996 C 0.89609 0.60473 0.30523 0.0
C997 C 0.88631 0.59278 0.18777 0.0
C998 C 0.88962 0.59648 0.22836 0.0
H999 H 0.92898 0.63223 0.40509 0.0
H1000 H 0.92305 0.62747 0.33775 0.0
H1001 H 0.86557 0.60492 0.30969 0.0
H1002 H 0.86041 0.5649 0.12894 0.0
H1003 H 0.86542 0.57083 0.19639 0.0
C1004 C 0.37225 0.42094 0.63803 0.0
C1005 C 0.38293 0.41092 0.66467 0.0
C1006 C 0.37482 0.41766 0.59932 0.0
C1007 C 0.3942 0.38187 0.53312 0.0
H1008 H 0.39407 0.42315 0.46124 0.0
C1009 C 0.4177 0.37314 0.3772 0.0
C1010 C 0.40611 0.38179 0.35015 0.0
C1011 C 0.41487 0.37663 0.41573 0.0
C1012 C 0.39402 0.41146 0.48099 0.0
H1013 H 0.40509 0.39002 0.67138 0.0
H1014 H 0.40973 0.38469 0.60462 0.0
H1015 H 0.38859 0.42967 0.52802 0.0
H1016 H 0.38239 0.40082 0.34258 0.0
H1017 H 0.37756 0.40676 0.40928 0.0
H1018 H 0.39982 0.3637 0.48611 0.0
C1019 C 0.39903 0.39467 0.61335 0.0
C1020 C 0.39079 0.41519 0.5192 0.0
C1021 C 0.39641 0.39785 0.65177 0.0
C1022 C 0.39163 0.3939 0.36252 0.0
C1023 C 0.38891 0.39745 0.40081 0.0
C1024 C 0.39753 0.37816 0.49498 0.0
C1025 C 0.38816 0.40436 0.58661 0.0
C1026 C 0.39091 0.40044 0.54575 0.0
C1027 C 0.40051 0.38893 0.42785 0.0
C1028 C 0.39747 0.39291 0.46851 0.0
H1029 H 0.36176 0.43108 0.64706 0.0
H1030 H 0.36613 0.42528 0.5794 0.0
H1031 H 0.39405 0.37011 0.55271 0.0
H1032 H 0.42898 0.36377 0.36864 0.0
H1033 H 0.4241 0.36994 0.43601 0.0
C1034 C 0.58806 0.89536 0.60554 0.0
C1035 C 0.60169 0.90855 0.59365 0.0
C1036 C 0.58628 0.89055 0.64351 0.0
C1037 C 0.61241 0.8886 0.73178 0.0
H1038 H 0.56303 0.88738 0.7789 0.0
C1039 C 0.60314 0.88372 0.892 0.0
C1040 C 0.58794 0.87341 0.90717 0.0
C1041 C 0.60478 0.88653 0.85328 0.0
C1042 C 0.57688 0.88731 0.76602 0.0
H1043 H 0.62414 0.92705 0.61244 0.0
H1044 H 0.62113 0.91843 0.67918 0.0
H1045 H 0.56599 0.89595 0.71242 0.0
H1046 H 0.56274 0.85759 0.89319 0.0
H1047 H 0.56582 0.86224 0.82495 0.0
H1048 H 0.62334 0.87976 0.78504 0.0
C1049 C 0.61186 0.91186 0.65881 0.0
C1050 C 0.57858 0.89234 0.72803 0.0
C1051 C 0.61352 0.91686 0.62071 0.0
C1052 C 0.57459 0.86562 0.88243 0.0
C1053 C 0.5763 0.86839 0.84339 0.0
C1054 C 0.61071 0.8834 0.76963 0.0
C1055 C 0.5982 0.89867 0.6705 0.0
C1056 C 0.59638 0.89322 0.71068 0.0
C1057 C 0.59137 0.87901 0.82845 0.0
C1058 C 0.59294 0.88294 0.78737 0.0
H1059 H 0.57866 0.88872 0.58548 0.0
H1060 H 0.57576 0.88022 0.6517 0.0
H1061 H 0.62627 0.88882 0.71888 0.0
H1062 H 0.61369 0.89001 0.91009 0.0
H1063 H 0.61636 0.89508 0.84294 0.0
C1064 C 0.06686 0.37626 0.38911 0.0
C1065 C 0.08159 0.37637 0.41546 0.0
C1066 C 0.07052 0.38007 0.35097 0.0
C1067 C 0.10661 0.40286 0.28987 0.0
H1068 H 0.08057 0.37689 0.20918 0.0
C1069 C 0.11524 0.4236 0.13212 0.0
C1070 C 0.11514 0.40875 0.10586 0.0
C1071 C 0.11126 0.42005 0.17024 0.0
C1072 C 0.0881 0.38417 0.23138 0.0
H1073 H 0.11181 0.37941 0.42223 0.0
H1074 H 0.11822 0.38539 0.35603 0.0
H1075 H 0.07324 0.36904 0.27448 0.0
H1076 H 0.11193 0.37843 0.0992 0.0
H1077 H 0.10566 0.37222 0.16539 0.0
H1078 H 0.12195 0.41751 0.24679 0.0
C1079 C 0.10377 0.38309 0.36475 0.0
C1080 C 0.0837 0.37984 0.26885 0.0
C1081 C 0.1001 0.37948 0.4027 0.0
C1082 C 0.11187 0.39023 0.11867 0.0
C1083 C 0.10809 0.38668 0.15662 0.0
C1084 C 0.1111 0.40711 0.2524 0.0
C1085 C 0.08901 0.38389 0.33851 0.0
C1086 C 0.09304 0.38898 0.29857 0.0
C1087 C 0.10729 0.40157 0.18276 0.0
C1088 C 0.10204 0.39768 0.22269 0.0
H1089 H 0.05245 0.37401 0.39818 0.0
H1090 H 0.05881 0.38064 0.33151 0.0
H1091 H 0.11383 0.41046 0.31207 0.0
H1092 H 0.11761 0.43802 0.12301 0.0
H1093 H 0.11069 0.43187 0.18962 0.0
C1094 C 0.6204 0.57344 0.64535 0.0
C1095 C 0.61186 0.58539 0.67202 0.0
C1096 C 0.61745 0.5763 0.60668 0.0
C1097 C 0.60076 0.6124 0.53809 0.0
H1098 H 0.59275 0.56907 0.4732 0.0
C1099 C 0.57327 0.6187 0.38453 0.0
C1100 C 0.58319 0.60802 0.3576 0.0
C1101 C 0.57663 0.61606 0.42313 0.0
C1102 C 0.59506 0.5813 0.49097 0.0
H1103 H 0.59353 0.60976 0.67881 0.0
H1104 H 0.58817 0.61441 0.61211 0.0
H1105 H 0.59981 0.5642 0.53982 0.0
H1106 H 0.60425 0.58604 0.35021 0.0
H1107 H 0.60995 0.5815 0.41705 0.0
H1108 H 0.59574 0.62947 0.48919 0.0
C1109 C 0.59745 0.60308 0.62074 0.0
C1110 C 0.59922 0.57851 0.52908 0.0
C1111 C 0.60046 0.6003 0.65916 0.0
C1112 C 0.59636 0.59457 0.3701 0.0
C1113 C 0.59957 0.59184 0.40847 0.0
C1114 C 0.59646 0.61518 0.50004 0.0
C1115 C 0.60586 0.59113 0.59398 0.0
C1116 C 0.60211 0.59403 0.55312 0.0
C1117 C 0.58979 0.60255 0.4354 0.0
C1118 C 0.59361 0.59966 0.47609 0.0
H1119 H 0.62928 0.56186 0.65431 0.0
H1120 H 0.62431 0.56696 0.58674 0.0
H1121 H 0.6032 0.62467 0.55565 0.0
H1122 H 0.56304 0.62915 0.37582 0.0
H1123 H 0.56882 0.62444 0.44338 0.0
C1124 C 0.37228 0.10317 0.63805 0.0
C1125 C 0.36278 0.08668 0.62668 0.0
C1126 C 0.37618 0.10648 0.67598 0.0
C1127 C 0.38203 0.081 0.76595 0.0
H1128 H 0.38396 0.13172 0.80738 0.0
C1129 C 0.39493 0.09588 0.92322 0.0
C1130 C 0.40847 0.10969 0.93223 0.0
C1131 C 0.38885 0.09349 0.88621 0.0
C1132 C 0.38363 0.11751 0.79602 0.0
H1133 H 0.34912 0.06114 0.6467 0.0
H1134 H 0.35552 0.06717 0.71339 0.0
H1135 H 0.37239 0.12684 0.74331 0.0
H1136 H 0.42612 0.13195 0.90929 0.0
H1137 H 0.4152 0.12788 0.8441 0.0
H1138 H 0.393 0.07171 0.81901 0.0
C1139 C 0.36036 0.07733 0.69265 0.0
C1140 C 0.377 0.11468 0.75936 0.0
C1141 C 0.35654 0.07393 0.65447 0.0
C1142 C 0.4157 0.12118 0.90324 0.0
C1143 C 0.4094 0.11892 0.86605 0.0
C1144 C 0.38846 0.08382 0.80272 0.0
C1145 C 0.37055 0.09348 0.70376 0.0
C1146 C 0.37626 0.09639 0.74372 0.0
C1147 C 0.396 0.10495 0.85724 0.0
C1148 C 0.38943 0.10211 0.81803 0.0
H1149 H 0.37731 0.11335 0.61752 0.0
H1150 H 0.38429 0.11892 0.68326 0.0
H1151 H 0.38205 0.06678 0.75467 0.0
H1152 H 0.38907 0.08672 0.94477 0.0
H1153 H 0.37838 0.08275 0.88029 0.0
C1154 C 0.86312 0.91761 0.14434 0.0
C1155 C 0.87101 0.90557 0.17156 0.0
C1156 C 0.8664 0.91442 0.10583 0.0
C1157 C 0.88332 0.87771 0.03838 0.0
H1158 H 0.89362 0.92079 0.97393 0.0
C1159 C 0.91423 0.87108 0.88691 0.0
C1160 C 0.90499 0.88188 0.85931 0.0
C1161 C 0.91 0.87366 0.92524 0.0
C1162 C 0.89068 0.90863 -0.00842 0.0
H1163 H 0.88835 0.88058 0.17947 0.0
H1164 H 0.8943 0.87538 0.11312 0.0
H1165 H 0.88531 0.92589 0.03996 0.0
H1166 H 0.88421 0.90397 0.85044 0.0
H1167 H 0.87705 0.90843 0.91678 0.0
H1168 H 0.88903 0.86048 -0.01006 0.0
C1169 C 0.88529 0.88705 0.12116 0.0
C1170 C 0.88579 0.91155 0.02934 0.0
C1171 C 0.88196 0.89015 0.1594 0.0
C1172 C 0.89159 0.89535 0.87086 0.0
C1173 C 0.88755 0.89803 0.90894 0.0
C1174 C 0.88837 0.8748 0.00069 0.0
C1175 C 0.87767 0.89918 0.09385 0.0
C1176 C 0.88206 0.89613 0.05324 0.0
C1177 C 0.89667 0.88724 0.93654 0.0
C1178 C 0.89206 0.89023 0.97691 0.0
H1179 H 0.85459 0.92958 0.15274 0.0
H1180 H 0.86011 0.92391 0.08548 0.0
H1181 H 0.88026 0.86551 0.0558 0.0
H1182 H 0.92461 0.8606 0.87892 0.0
H1183 H 0.91731 0.86521 0.94605 0.0
loop_
_geom_bond_atom_site_label_1
_geom_bond_atom_site_label_2
_geom_bond_distance
_geom_bond_site_symmetry_2
_ccdc_geom_bond_type
C0 O1 1.306 . S
C0 O3 1.160 . S
O1 C0 1.306 . S
O1 Cd2 2.228 . S
Cd2 O1 2.228 . S
Cd2 O6 2.273 . S
Cd2 O10 2.277 . S
O3 C0 1.160 . S
O3 Cd4 2.203 . S
Cd4 O3 2.203 . S
Cd4 O6 2.411 . S
Cd4 O7 2.333 . S
Cd4 O8 2.352 . S
Cd4 O12 2.277 . S
Cd4 O13 2.356 . S
C5 O10 1.209 . S
C5 O12 1.226 . S
O6 Cd2 2.273 . S
O6 Cd4 2.411 . S
O6 C9 1.320 . S
O7 Cd4 2.333 . S
O7 C9 1.214 . S
O8 Cd4 2.352 . S
O8 C11 1.258 . S
C9 O6 1.320 . S
C9 O7 1.214 . S
O10 Cd2 2.277 . S
O10 C5 1.209 . S
C11 O8 1.258 . S
C11 O13 1.282 . S
O12 Cd4 2.277 . S
O12 C5 1.226 . S
O13 Cd4 2.356 . S
O13 C11 1.282 . S
C14 O15 1.306 . S
C14 O17 1.160 . S
O15 C14 1.306 . S
O15 Cd16 2.228 . S
Cd16 O15 2.228 . S
Cd16 O20 2.273 . S
Cd16 O24 2.277 . S
O17 C14 1.160 . S
O17 Cd18 2.203 . S
Cd18 O17 2.203 . S
Cd18 O20 2.411 . S
Cd18 O21 2.333 . S
Cd18 O22 2.352 . S
Cd18 O26 2.277 . S
Cd18 O27 2.356 . S
C19 O24 1.209 . S
C19 O26 1.226 . S
O20 Cd16 2.273 . S
O20 Cd18 2.411 . S
O20 C23 1.320 . S
O21 Cd18 2.333 . S
O21 C23 1.214 . S
O22 Cd18 2.352 . S
O22 C25 1.258 . S
C23 O20 1.320 . S
C23 O21 1.214 . S
O24 Cd16 2.277 . S
O24 C19 1.209 . S
C25 O22 1.258 . S
C25 O27 1.282 . S
O26 Cd18 2.277 . S
O26 C19 1.226 . S
O27 Cd18 2.356 . S
O27 C25 1.282 . S
C28 O29 1.306 . S
C28 O31 1.160 . S
O29 C28 1.306 . S
O29 Cd30 2.228 . S
Cd30 O29 2.228 . S
Cd30 O34 2.273 . S
Cd30 O38 2.277 . S
O31 C28 1.160 . S
O31 Cd32 2.203 . S
Cd32 O31 2.203 . S
Cd32 O34 2.411 . S
Cd32 O35 2.333 . S
Cd32 O36 2.352 . S
Cd32 O40 2.277 . S
Cd32 O41 2.356 . S
C33 O38 1.209 . S
C33 O40 1.226 . S
O34 Cd30 2.273 . S
O34 Cd32 2.411 . S
O34 C37 1.320 . S
O35 Cd32 2.333 . S
O35 C37 1.214 . S
O36 Cd32 2.352 . S
O36 C39 1.258 . S
C37 O34 1.320 . S
C37 O35 1.214 . S
O38 Cd30 2.277 . S
O38 C33 1.209 . S
C39 O36 1.258 . S
C39 O41 1.282 . S
O40 Cd32 2.277 . S
O40 C33 1.226 . S
O41 Cd32 2.356 . S
O41 C39 1.282 . S
C42 O43 1.306 1_556 S
C42 O45 1.156 1_556 S
O43 C42 1.306 1_554 S
O43 Cd44 2.228 . S
Cd44 O43 2.228 . S
Cd44 O48 2.273 . S
Cd44 O52 2.277 . S
O45 C42 1.156 1_554 S
O45 Cd46 2.213 . S
Cd46 O45 2.213 . S
Cd46 O48 2.411 . S
Cd46 O49 2.333 . S
Cd46 O50 2.352 . S
Cd46 O54 2.277 . S
Cd46 O55 2.356 . S
C47 O52 1.209 . S
C47 O54 1.226 . S
O48 Cd44 2.273 . S
O48 Cd46 2.411 . S
O48 C51 1.320 . S
O49 Cd46 2.333 . S
O49 C51 1.214 . S
O50 Cd46 2.352 . S
O50 C53 1.258 . S
C51 O48 1.320 . S
C51 O49 1.214 . S
O52 Cd44 2.277 . S
O52 C47 1.209 . S
C53 O50 1.258 . S
C53 O55 1.282 . S
O54 Cd46 2.277 . S
O54 C47 1.226 . S
O55 Cd46 2.356 . S
O55 C53 1.282 . S
C56 O57 1.306 . S
C56 O59 1.160 . S
O57 C56 1.306 . S
O57 Cd58 2.228 . S
Cd58 O57 2.228 . S
Cd58 O62 2.273 1_554 S
Cd58 O66 2.277 . S
O59 C56 1.160 . S
O59 Cd60 2.203 . S
Cd60 O59 2.203 . S
Cd60 O62 2.411 1_554 S
Cd60 O63 2.333 1_554 S
Cd60 O64 2.352 . S
Cd60 O68 2.277 . S
Cd60 O69 2.356 1_554 S
C61 O66 1.209 . S
C61 O68 1.226 . S
O62 Cd58 2.273 1_556 S
O62 Cd60 2.411 1_556 S
O62 C65 1.320 . S
O63 Cd60 2.333 1_556 S
O63 C65 1.214 . S
O64 Cd60 2.352 . S
O64 C67 1.258 1_554 S
C65 O62 1.320 . S
C65 O63 1.214 . S
O66 Cd58 2.277 . S
O66 C61 1.209 . S
C67 O64 1.258 1_556 S
C67 O69 1.282 . S
O68 Cd60 2.277 . S
O68 C61 1.226 . S
O69 Cd60 2.356 1_556 S
O69 C67 1.282 . S
C70 O71 1.306 . S
C70 O73 1.160 . S
O71 C70 1.306 . S
O71 Cd72 2.228 . S
Cd72 O71 2.228 . S
Cd72 O76 2.273 . S
Cd72 O80 2.277 . S
O73 C70 1.160 . S
O73 Cd74 2.203 . S
Cd74 O73 2.203 . S
Cd74 O76 2.411 . S
Cd74 O77 2.333 . S
Cd74 O78 2.352 . S
Cd74 O82 2.277 . S
Cd74 O83 2.356 . S
C75 O80 1.209 . S
C75 O82 1.226 . S
O76 Cd72 2.273 . S
O76 Cd74 2.411 . S
O76 C79 1.320 . S
O77 Cd74 2.333 . S
O77 C79 1.214 . S
O78 Cd74 2.352 . S
O78 C81 1.258 . S
C79 O76 1.320 . S
C79 O77 1.214 . S
O80 Cd72 2.277 . S
O80 C75 1.209 . S
C81 O78 1.258 . S
C81 O83 1.282 . S
O82 Cd74 2.277 . S
O82 C75 1.226 . S
O83 Cd74 2.356 . S
O83 C81 1.282 . S
C84 O85 1.306 . S
C84 O87 1.160 . S
O85 C84 1.306 . S
O85 Cd86 2.228 . S
Cd86 O85 2.228 . S
Cd86 O90 2.273 . S
Cd86 O94 2.277 . S
O87 C84 1.160 . S
O87 Cd88 2.203 . S
Cd88 O87 2.203 . S
Cd88 O90 2.411 . S
Cd88 O91 2.333 . S
Cd88 O92 2.352 . S
Cd88 O96 2.277 . S
Cd88 O97 2.356 . S
C89 O94 1.209 . S
C89 O96 1.226 . S
O90 Cd86 2.273 . S
O90 Cd88 2.411 . S
O90 C93 1.320 . S
O91 Cd88 2.333 . S
O91 C93 1.214 . S
O92 Cd88 2.352 . S
O92 C95 1.258 . S
C93 O90 1.320 . S
C93 O91 1.214 . S
O94 Cd86 2.277 . S
O94 C89 1.209 . S
C95 O92 1.258 . S
C95 O97 1.282 . S
O96 Cd88 2.277 . S
O96 C89 1.226 . S
O97 Cd88 2.356 . S
O97 C95 1.282 . S
C98 O99 1.306 . S
C98 O101 1.160 . S
O99 C98 1.306 . S
O99 Cd100 2.228 . S
Cd100 O99 2.228 . S
Cd100 O104 2.273 . S
Cd100 O108 2.277 . S
O101 C98 1.160 . S
O101 Cd102 2.203 . S
Cd102 O101 2.203 . S
Cd102 O104 2.411 . S
Cd102 O105 2.333 . S
Cd102 O106 2.352 . S
Cd102 O110 2.277 . S
Cd102 O111 2.356 . S
C103 O108 1.209 . S
C103 O110 1.226 . S
O104 Cd100 2.273 . S
O104 Cd102 2.411 . S
O104 C107 1.320 . S
O105 Cd102 2.333 . S
O105 C107 1.214 . S
O106 Cd102 2.352 . S
O106 C109 1.258 . S
C107 O104 1.320 . S
C107 O105 1.214 . S
O108 Cd100 2.277 . S
O108 C103 1.209 . S
C109 O106 1.258 . S
C109 O111 1.282 . S
O110 Cd102 2.277 . S
O110 C103 1.226 . S
O111 Cd102 2.356 . S
O111 C109 1.282 . S
C112 O113 1.306 . S
C112 O115 1.160 . S
O113 C112 1.306 . S
O113 Cd114 2.228 . S
Cd114 O113 2.228 . S
Cd114 O118 2.273 . S
Cd114 O122 2.277 . S
O115 C112 1.160 . S
O115 Cd116 2.203 . S
Cd116 O115 2.203 . S
Cd116 O118 2.411 . S
Cd116 O119 2.333 . S
Cd116 O120 2.352 . S
Cd116 O124 2.277 . S
Cd116 O125 2.356 . S
C117 O122 1.209 . S
C117 O124 1.226 . S
O118 Cd114 2.273 . S
O118 Cd116 2.411 . S
O118 C121 1.320 . S
O119 Cd116 2.333 . S
O119 C121 1.214 . S
O120 Cd116 2.352 . S
O120 C123 1.258 . S
C121 O118 1.320 . S
C121 O119 1.214 . S
O122 Cd114 2.277 . S
O122 C117 1.209 . S
C123 O120 1.258 . S
C123 O125 1.282 . S
O124 Cd116 2.277 . S
O124 C117 1.226 . S
O125 Cd116 2.356 . S
O125 C123 1.282 . S
C126 O127 1.306 1_556 S
C126 O129 1.156 1_556 S
O127 C126 1.306 1_554 S
O127 Cd128 2.228 . S
Cd128 O127 2.228 . S
Cd128 O132 2.273 . S
Cd128 O136 2.277 . S
O129 C126 1.156 1_554 S
O129 Cd130 2.213 . S
Cd130 O129 2.213 . S
Cd130 O132 2.411 . S
Cd130 O133 2.333 . S
Cd130 O134 2.352 . S
Cd130 O138 2.277 . S
Cd130 O139 2.356 . S
C131 O136 1.209 . S
C131 O138 1.226 . S
O132 Cd128 2.273 . S
O132 Cd130 2.411 . S
O132 C135 1.320 . S
O133 Cd130 2.333 . S
O133 C135 1.214 . S
O134 Cd130 2.352 . S
O134 C137 1.258 . S
C135 O132 1.320 . S
C135 O133 1.214 . S
O136 Cd128 2.277 . S
O136 C131 1.209 . S
C137 O134 1.258 . S
C137 O139 1.282 . S
O138 Cd130 2.277 . S
O138 C131 1.226 . S
O139 Cd130 2.356 . S
O139 C137 1.282 . S
C140 O141 1.306 . S
C140 O143 1.160 . S
O141 C140 1.306 . S
O141 Cd142 2.228 . S
Cd142 O141 2.228 . S
Cd142 O146 2.273 . S
Cd142 O150 2.277 . S
O143 C140 1.160 . S
O143 Cd144 2.203 . S
Cd144 O143 2.203 . S
Cd144 O146 2.411 . S
Cd144 O147 2.333 . S
Cd144 O148 2.352 . S
Cd144 O152 2.277 . S
Cd144 O153 2.356 . S
C145 O150 1.209 . S
C145 O152 1.226 . S
O146 Cd142 2.273 . S
O146 Cd144 2.411 . S
O146 C149 1.320 . S
O147 Cd144 2.333 . S
O147 C149 1.214 . S
O148 Cd144 2.352 . S
O148 C151 1.258 . S
C149 O146 1.320 . S
C149 O147 1.214 . S
O150 Cd142 2.277 . S
O150 C145 1.209 . S
C151 O148 1.258 . S
C151 O153 1.282 . S
O152 Cd144 2.277 . S
O152 C145 1.226 . S
O153 Cd144 2.356 . S
O153 C151 1.282 . S
C154 O155 1.306 . S
C154 O157 1.160 . S
O155 C154 1.306 . S
O155 Cd156 2.228 . S
Cd156 O155 2.228 . S
Cd156 O160 2.273 . S
Cd156 O164 2.277 . S
O157 C154 1.160 . S
O157 Cd158 2.203 . S
Cd158 O157 2.203 . S
Cd158 O160 2.411 . S
Cd158 O161 2.333 . S
Cd158 O162 2.352 . S
Cd158 O166 2.277 . S
Cd158 O167 2.356 . S
C159 O164 1.209 . S
C159 O166 1.226 . S
O160 Cd156 2.273 . S
O160 Cd158 2.411 . S
O160 C163 1.320 . S
O161 Cd158 2.333 . S
O161 C163 1.214 . S
O162 Cd158 2.352 . S
O162 C165 1.258 . S
C163 O160 1.320 . S
C163 O161 1.214 . S
O164 Cd156 2.277 . S
O164 C159 1.209 . S
C165 O162 1.258 . S
C165 O167 1.282 . S
O166 Cd158 2.277 . S
O166 C159 1.226 . S
O167 Cd158 2.356 . S
O167 C165 1.282 . S
C168 O169 1.306 . S
C168 O171 1.160 . S
O169 C168 1.306 . S
O169 Cd170 2.228 . S
Cd170 O169 2.228 . S
Cd170 O174 2.273 . S
Cd170 O178 2.277 . S
O171 C168 1.160 . S
O171 Cd172 2.203 . S
Cd172 O171 2.203 . S
Cd172 O174 2.411 . S
Cd172 O175 2.333 . S
Cd172 O176 2.352 . S
Cd172 O180 2.277 . S
Cd172 O181 2.356 . S
C173 O178 1.209 . S
C173 O180 1.226 . S
O174 Cd170 2.273 . S
O174 Cd172 2.411 . S
O174 C177 1.320 . S
O175 Cd172 2.333 . S
O175 C177 1.214 . S
O176 Cd172 2.352 . S
O176 C179 1.258 . S
C177 O174 1.320 . S
C177 O175 1.214 . S
O178 Cd170 2.277 . S
O178 C173 1.209 . S
C179 O176 1.258 . S
C179 O181 1.282 . S
O180 Cd172 2.277 . S
O180 C173 1.226 . S
O181 Cd172 2.356 . S
O181 C179 1.282 . S
C182 O183 1.306 . S
C182 O185 1.160 . S
O183 C182 1.306 . S
O183 Cd184 2.228 . S
Cd184 O183 2.228 . S
Cd184 O188 2.273 . S
Cd184 O192 2.277 . S
O185 C182 1.160 . S
O185 Cd186 2.203 . S
Cd186 O185 2.203 . S
Cd186 O188 2.411 . S
Cd186 O189 2.333 . S
Cd186 O190 2.352 . S
Cd186 O194 2.277 . S
Cd186 O195 2.356 . S
C187 O192 1.209 . S
C187 O194 1.226 . S
O188 Cd184 2.273 . S
O188 Cd186 2.411 . S
O188 C191 1.320 . S
O189 Cd186 2.333 . S
O189 C191 1.214 . S
O190 Cd186 2.352 . S
O190 C193 1.258 . S
C191 O188 1.320 . S
C191 O189 1.214 . S
O192 Cd184 2.277 . S
O192 C187 1.209 . S
C193 O190 1.258 . S
C193 O195 1.282 . S
O194 Cd186 2.277 . S
O194 C187 1.226 . S
O195 Cd186 2.356 . S
O195 C193 1.282 . S
C196 O197 1.306 . S
C196 O199 1.160 . S
O197 C196 1.306 . S
O197 Cd198 2.228 . S
Cd198 O197 2.228 . S
Cd198 O202 2.273 1_554 S
Cd198 O206 2.277 . S
O199 C196 1.160 . S
O199 Cd200 2.203 . S
Cd200 O199 2.203 . S
Cd200 O202 2.411 1_554 S
Cd200 O203 2.333 1_554 S
Cd200 O204 2.352 . S
Cd200 O208 2.277 . S
Cd200 O209 2.356 1_554 S
C201 O206 1.209 . S
C201 O208 1.226 . S
O202 Cd198 2.273 1_556 S
O202 Cd200 2.411 1_556 S
O202 C205 1.320 . S
O203 Cd200 2.333 1_556 S
O203 C205 1.214 . S
O204 Cd200 2.352 . S
O204 C207 1.258 1_554 S
C205 O202 1.320 . S
C205 O203 1.214 . S
O206 Cd198 2.277 . S
O206 C201 1.209 . S
C207 O204 1.258 1_556 S
C207 O209 1.282 . S
O208 Cd200 2.277 . S
O208 C201 1.226 . S
O209 Cd200 2.356 1_556 S
O209 C207 1.282 . S
C210 O211 1.306 . S
C210 O213 1.160 . S
O211 C210 1.306 . S
O211 Cd212 2.228 . S
Cd212 O211 2.228 . S
Cd212 O216 2.273 . S
Cd212 O220 2.277 . S
O213 C210 1.160 . S
O213 Cd214 2.203 . S
Cd214 O213 2.203 . S
Cd214 O216 2.411 . S
Cd214 O217 2.333 . S
Cd214 O218 2.352 . S
Cd214 O222 2.277 . S
Cd214 O223 2.356 . S
C215 O220 1.209 . S
C215 O222 1.226 . S
O216 Cd212 2.273 . S
O216 Cd214 2.411 . S
O216 C219 1.320 . S
O217 Cd214 2.333 . S
O217 C219 1.214 . S
O218 Cd214 2.352 . S
O218 C221 1.258 . S
C219 O216 1.320 . S
C219 O217 1.214 . S
O220 Cd212 2.277 . S
O220 C215 1.209 . S
C221 O218 1.258 . S
C221 O223 1.282 . S
O222 Cd214 2.277 . S
O222 C215 1.226 . S
O223 Cd214 2.356 . S
O223 C221 1.282 . S
C224 C225 1.349 . S
C224 C226 1.327 . S
C224 H249 0.950 . S
C225 C224 1.349 . S
C225 C241 1.349 . S
C226 C224 1.327 . S
C226 C245 1.429 . S
C226 H250 0.950 . S
C227 C244 1.574 . S
C227 C246 1.368 . S
C227 H251 0.949 . S
H228 C232 0.949 . S
C229 C230 1.349 . S
C229 C231 1.327 . S
C229 H252 0.950 . S
C230 C229 1.349 . S
C230 C242 1.349 . S
C231 C229 1.327 . S
C231 C247 1.429 . S
C231 H253 0.950 . S
C232 H228 0.949 . S
C232 C240 1.574 . S
C232 C248 1.368 . S
H233 C241 0.950 . S
H234 C239 0.950 . S
H235 C240 0.949 . S
H236 C242 0.950 . S
H237 C243 0.950 . S
H238 C244 0.949 . S
C239 H234 0.950 . S
C239 C241 1.327 . S
C239 C245 1.429 . S
C240 C232 1.574 . S
C240 H235 0.949 . S
C240 C246 1.368 . S
C241 C225 1.349 . S
C241 H233 0.950 . S
C241 C239 1.327 . S
C242 C230 1.349 . S
C242 H236 0.950 . S
C242 C243 1.327 . S
C243 H237 0.950 . S
C243 C242 1.327 . S
C243 C247 1.429 . S
C244 C227 1.574 . S
C244 H238 0.949 . S
C244 C248 1.368 . S
C245 C226 1.429 . S
C245 C239 1.429 . S
C245 C246 1.523 . S
C246 C227 1.368 . S
C246 C240 1.368 . S
C246 C245 1.523 . S
C247 C231 1.429 . S
C247 C243 1.429 . S
C247 C248 1.523 . S
C248 C232 1.368 . S
C248 C244 1.368 . S
C248 C247 1.523 . S
H249 C224 0.950 . S
H250 C226 0.950 . S
H251 C227 0.949 . S
H252 C229 0.950 . S
H253 C231 0.950 . S
C254 C255 1.349 . S
C254 C256 1.327 . S
C254 H279 0.950 . S
C255 C254 1.349 . S
C255 C271 1.349 . S
C256 C254 1.327 . S
C256 C275 1.429 . S
C256 H280 0.950 . S
C257 C274 1.574 . S
C257 C276 1.368 . S
C257 H281 0.949 . S
H258 C262 0.949 . S
C259 C260 1.349 . S
C259 C261 1.327 . S
C259 H282 0.950 . S
C260 C259 1.349 . S
C260 C272 1.349 . S
C261 C259 1.327 . S
C261 C277 1.429 . S
C261 H283 0.950 . S
C262 H258 0.949 . S
C262 C270 1.574 . S
C262 C278 1.368 . S
H263 C271 0.950 . S
H264 C269 0.950 . S
H265 C270 0.949 . S
H266 C272 0.950 . S
H267 C273 0.950 . S
H268 C274 0.949 . S
C269 H264 0.950 . S
C269 C271 1.327 . S
C269 C275 1.429 . S
C270 C262 1.574 . S
C270 H265 0.949 . S
C270 C276 1.368 . S
C271 C255 1.349 . S
C271 H263 0.950 . S
C271 C269 1.327 . S
C272 C260 1.349 . S
C272 H266 0.950 . S
C272 C273 1.327 . S
C273 H267 0.950 . S
C273 C272 1.327 . S
C273 C277 1.429 . S
C274 C257 1.574 . S
C274 H268 0.949 . S
C274 C278 1.368 . S
C275 C256 1.429 . S
C275 C269 1.429 . S
C275 C276 1.523 . S
C276 C257 1.368 . S
C276 C270 1.368 . S
C276 C275 1.523 . S
C277 C261 1.429 . S
C277 C273 1.429 . S
C277 C278 1.523 . S
C278 C262 1.368 . S
C278 C274 1.368 . S
C278 C277 1.523 . S
H279 C254 0.950 . S
H280 C256 0.950 . S
H281 C257 0.949 . S
H282 C259 0.950 . S
H283 C261 0.950 . S
C284 C285 1.349 . S
C284 C286 1.327 . S
C284 H309 0.950 . S
C285 C284 1.349 . S
C285 C301 1.349 . S
C286 C284 1.327 . S
C286 C305 1.429 . S
C286 H310 0.950 . S
C287 C304 1.574 . S
C287 C306 1.368 . S
C287 H311 0.949 . S
H288 C292 0.949 . S
C289 C290 1.349 . S
C289 C291 1.327 . S
C289 H312 0.950 . S
C290 C289 1.349 . S
C290 C302 1.349 . S
C291 C289 1.327 . S
C291 C307 1.429 . S
C291 H313 0.950 . S
C292 H288 0.949 . S
C292 C300 1.574 . S
C292 C308 1.368 . S
H293 C301 0.950 . S
H294 C299 0.950 . S
H295 C300 0.949 . S
H296 C302 0.950 1_554 S
H297 C303 0.950 . S
H298 C304 0.949 . S
C299 H294 0.950 . S
C299 C301 1.327 . S
C299 C305 1.429 . S
C300 C292 1.574 . S
C300 H295 0.949 . S
C300 C306 1.368 . S
C301 C285 1.349 . S
C301 H293 0.950 . S
C301 C299 1.327 . S
C302 C290 1.349 . S
C302 H296 0.950 1_556 S
C302 C303 1.327 . S
C303 H297 0.950 . S
C303 C302 1.327 . S
C303 C307 1.429 . S
C304 C287 1.574 . S
C304 H298 0.949 . S
C304 C308 1.368 . S
C305 C286 1.429 . S
C305 C299 1.429 . S
C305 C306 1.523 . S
C306 C287 1.368 . S
C306 C300 1.368 . S
C306 C305 1.523 . S
C307 C291 1.429 . S
C307 C303 1.429 . S
C307 C308 1.523 . S
C308 C292 1.368 . S
C308 C304 1.368 . S
C308 C307 1.523 . S
H309 C284 0.950 . S
H310 C286 0.950 . S
H311 C287 0.949 . S
H312 C289 0.950 . S
H313 C291 0.950 . S
C314 C315 1.349 . S
C314 C316 1.327 . S
C314 H339 0.950 . S
C315 C314 1.349 . S
C315 C331 1.349 . S
C316 C314 1.327 . S
C316 C335 1.429 . S
C316 H340 0.950 . S
C317 C334 1.574 . S
C317 C336 1.368 . S
C317 H341 0.949 . S
H318 C322 0.949 . S
C319 C320 1.349 . S
C319 C321 1.327 . S
C319 H342 0.950 . S
C320 C319 1.349 . S
C320 C332 1.349 . S
C321 C319 1.327 . S
C321 C337 1.429 . S
C321 H343 0.950 . S
C322 H318 0.949 . S
C322 C330 1.574 . S
C322 C338 1.368 . S
H323 C331 0.950 . S
H324 C329 0.950 . S
H325 C330 0.949 . S
H326 C332 0.950 . S
H327 C333 0.950 . S
H328 C334 0.949 . S
C329 H324 0.950 . S
C329 C331 1.327 . S
C329 C335 1.429 . S
C330 C322 1.574 . S
C330 H325 0.949 . S
C330 C336 1.368 . S
C331 C315 1.349 . S
C331 H323 0.950 . S
C331 C329 1.327 . S
C332 C320 1.349 . S
C332 H326 0.950 . S
C332 C333 1.327 . S
C333 H327 0.950 . S
C333 C332 1.327 . S
C333 C337 1.429 . S
C334 C317 1.574 . S
C334 H328 0.949 . S
C334 C338 1.368 . S
C335 C316 1.429 . S
C335 C329 1.429 . S
C335 C336 1.523 . S
C336 C317 1.368 . S
C336 C330 1.368 . S
C336 C335 1.523 . S
C337 C321 1.429 . S
C337 C333 1.429 . S
C337 C338 1.523 . S
C338 C322 1.368 . S
C338 C334 1.368 . S
C338 C337 1.523 . S
H339 C314 0.950 . S
H340 C316 0.950 . S
H341 C317 0.949 . S
H342 C319 0.950 . S
H343 C321 0.950 . S
C344 C345 1.349 . S
C344 C346 1.327 . S
C344 H369 0.950 . S
C345 C344 1.349 . S
C345 C361 1.349 . S
C346 C344 1.327 . S
C346 C365 1.429 . S
C346 H370 0.950 . S
C347 C364 1.574 . S
C347 C366 1.368 . S
C347 H371 0.949 . S
H348 C352 0.949 . S
C349 C350 1.349 . S
C349 C351 1.327 . S
C349 H372 0.950 1_556 S
C350 C349 1.349 . S
C350 C362 1.349 . S
C351 C349 1.327 . S
C351 C367 1.429 . S
C351 H373 0.950 . S
C352 H348 0.949 . S
C352 C360 1.574 . S
C352 C368 1.368 . S
H353 C361 0.950 . S
H354 C359 0.950 . S
H355 C360 0.949 . S
H356 C362 0.950 . S
H357 C363 0.950 . S
H358 C364 0.949 . S
C359 H354 0.950 . S
C359 C361 1.327 . S
C359 C365 1.429 . S
C360 C352 1.574 . S
C360 H355 0.949 . S
C360 C366 1.368 . S
C361 C345 1.349 . S
C361 H353 0.950 . S
C361 C359 1.327 . S
C362 C350 1.349 . S
C362 H356 0.950 . S
C362 C363 1.327 . S
C363 H357 0.950 . S
C363 C362 1.327 . S
C363 C367 1.429 . S
C364 C347 1.574 . S
C364 H358 0.949 . S
C364 C368 1.368 . S
C365 C346 1.429 . S
C365 C359 1.429 . S
C365 C366 1.523 . S
C366 C347 1.368 . S
C366 C360 1.368 . S
C366 C365 1.523 . S
C367 C351 1.429 . S
C367 C363 1.429 . S
C367 C368 1.523 . S
C368 C352 1.368 . S
C368 C364 1.368 . S
C368 C367 1.523 . S
H369 C344 0.950 . S
H370 C346 0.950 . S
H371 C347 0.949 . S
H372 C349 0.950 1_554 S
H373 C351 0.950 . S
C374 C375 1.349 . S
C374 C376 1.327 . S
C374 H399 0.950 . S
C375 C374 1.349 . S
C375 C391 1.349 . S
C376 C374 1.327 . S
C376 C395 1.429 . S
C376 H400 0.950 . S
C377 C394 1.574 . S
C377 C396 1.368 . S
C377 H401 0.949 . S
H378 C382 0.949 . S
C379 C380 1.349 . S
C379 C381 1.327 . S
C379 H402 0.950 . S
C380 C379 1.349 . S
C380 C392 1.349 . S
C381 C379 1.327 . S
C381 C397 1.429 . S
C381 H403 0.950 . S
C382 H378 0.949 . S
C382 C390 1.574 . S
C382 C398 1.368 . S
H383 C391 0.950 . S
H384 C389 0.950 . S
H385 C390 0.949 . S
H386 C392 0.950 . S
H387 C393 0.950 . S
H388 C394 0.949 . S
C389 H384 0.950 . S
C389 C391 1.327 . S
C389 C395 1.429 . S
C390 C382 1.574 . S
C390 H385 0.949 . S
C390 C396 1.368 . S
C391 C375 1.349 . S
C391 H383 0.950 . S
C391 C389 1.327 . S
C392 C380 1.349 . S
C392 H386 0.950 . S
C392 C393 1.327 . S
C393 H387 0.950 . S
C393 C392 1.327 . S
C393 C397 1.429 . S
C394 C377 1.574 . S
C394 H388 0.949 . S
C394 C398 1.368 . S
C395 C376 1.429 . S
C395 C389 1.429 . S
C395 C396 1.523 . S
C396 C377 1.368 . S
C396 C390 1.368 . S
C396 C395 1.523 . S
C397 C381 1.429 . S
C397 C393 1.429 . S
C397 C398 1.523 . S
C398 C382 1.368 . S
C398 C394 1.368 . S
C398 C397 1.523 . S
H399 C374 0.950 . S
H400 C376 0.950 . S
H401 C377 0.949 . S
H402 C379 0.950 . S
H403 C381 0.950 . S
C404 C405 1.349 . S
C404 C406 1.327 . S
C404 H429 0.950 . S
C405 C404 1.349 . S
C405 C421 1.349 . S
C406 C404 1.327 . S
C406 C425 1.429 . S
C406 H430 0.950 . S
C407 C424 1.574 . S
C407 C426 1.368 . S
C407 H431 0.949 . S
H408 C412 0.949 . S
C409 C410 1.349 . S
C409 C411 1.327 . S
C409 H432 0.950 . S
C410 C409 1.349 . S
C410 C422 1.349 . S
C411 C409 1.327 . S
C411 C427 1.429 . S
C411 H433 0.950 . S
C412 H408 0.949 . S
C412 C420 1.574 . S
C412 C428 1.368 . S
H413 C421 0.950 . S
H414 C419 0.950 . S
H415 C420 0.949 . S
H416 C422 0.950 . S
H417 C423 0.950 . S
H418 C424 0.949 . S
C419 H414 0.950 . S
C419 C421 1.327 . S
C419 C425 1.429 . S
C420 C412 1.574 . S
C420 H415 0.949 . S
C420 C426 1.368 . S
C421 C405 1.349 . S
C421 H413 0.950 . S
C421 C419 1.327 . S
C422 C410 1.349 . S
C422 H416 0.950 . S
C422 C423 1.327 . S
C423 H417 0.950 . S
C423 C422 1.327 . S
C423 C427 1.429 . S
C424 C407 1.574 . S
C424 H418 0.949 . S
C424 C428 1.368 . S
C425 C406 1.429 . S
C425 C419 1.429 . S
C425 C426 1.523 . S
C426 C407 1.368 . S
C426 C420 1.368 . S
C426 C425 1.523 . S
C427 C411 1.429 . S
C427 C423 1.429 . S
C427 C428 1.523 . S
C428 C412 1.368 . S
C428 C424 1.368 . S
C428 C427 1.523 . S
H429 C404 0.950 . S
H430 C406 0.950 . S
H431 C407 0.949 . S
H432 C409 0.950 . S
H433 C411 0.950 . S
C434 C435 1.349 . S
C434 C436 1.327 . S
C434 H459 0.950 . S
C435 C434 1.349 . S
C435 C451 1.349 . S
C436 C434 1.327 . S
C436 C455 1.429 . S
C436 H460 0.950 . S
C437 C454 1.574 . S
C437 C456 1.368 . S
C437 H461 0.949 . S
H438 C442 0.949 . S
C439 C440 1.349 . S
C439 C441 1.327 . S
C439 H462 0.950 . S
C440 C439 1.349 . S
C440 C452 1.349 . S
C441 C439 1.327 . S
C441 C457 1.429 . S
C441 H463 0.950 . S
C442 H438 0.949 . S
C442 C450 1.574 . S
C442 C458 1.368 . S
H443 C451 0.950 . S
H444 C449 0.950 . S
H445 C450 0.949 . S
H446 C452 0.950 . S
H447 C453 0.950 . S
H448 C454 0.949 . S
C449 H444 0.950 . S
C449 C451 1.327 . S
C449 C455 1.429 . S
C450 C442 1.574 . S
C450 H445 0.949 . S
C450 C456 1.368 . S
C451 C435 1.349 . S
C451 H443 0.950 . S
C451 C449 1.327 . S
C452 C440 1.349 . S
C452 H446 0.950 . S
C452 C453 1.327 . S
C453 H447 0.950 . S
C453 C452 1.327 . S
C453 C457 1.429 . S
C454 C437 1.574 . S
C454 H448 0.949 . S
C454 C458 1.368 . S
C455 C436 1.429 . S
C455 C449 1.429 . S
C455 C456 1.523 . S
C456 C437 1.368 . S
C456 C450 1.368 . S
C456 C455 1.523 . S
C457 C441 1.429 . S
C457 C453 1.429 . S
C457 C458 1.523 . S
C458 C442 1.368 . S
C458 C454 1.368 . S
C458 C457 1.523 . S
H459 C434 0.950 . S
H460 C436 0.950 . S
H461 C437 0.949 . S
H462 C439 0.950 . S
H463 C441 0.950 . S
C464 C465 1.349 . S
C464 C466 1.327 . S
C464 H489 0.950 . S
C465 C464 1.349 . S
C465 C481 1.349 . S
C466 C464 1.327 . S
C466 C485 1.429 . S
C466 H490 0.950 . S
C467 C484 1.574 1_455 S
C467 C486 1.368 . S
C467 H491 0.949 . S
H468 C472 0.949 . S
C469 C470 1.349 . S
C469 C471 1.327 . S
C469 H492 0.950 . S
C470 C469 1.349 . S
C470 C482 1.349 . S
C471 C469 1.327 . S
C471 C487 1.429 . S
C471 H493 0.950 . S
C472 H468 0.949 . S
C472 C480 1.574 1_655 S
C472 C488 1.368 . S
H473 C481 0.950 . S
H474 C479 0.950 . S
H475 C480 0.949 . S
H476 C482 0.950 . S
H477 C483 0.950 . S
H478 C484 0.949 . S
C479 H474 0.950 . S
C479 C481 1.327 . S
C479 C485 1.429 . S
C480 C472 1.574 1_455 S
C480 H475 0.949 . S
C480 C486 1.368 1_565 S
C481 C465 1.349 . S
C481 H473 0.950 . S
C481 C479 1.327 . S
C482 C470 1.349 . S
C482 H476 0.950 . S
C482 C483 1.327 . S
C483 H477 0.950 . S
C483 C482 1.327 . S
C483 C487 1.429 . S
C484 C467 1.574 1_655 S
C484 H478 0.949 . S
C484 C488 1.368 1_545 S
C485 C466 1.429 . S
C485 C479 1.429 . S
C485 C486 1.523 . S
C486 C467 1.368 . S
C486 C480 1.368 1_545 S
C486 C485 1.523 . S
C487 C471 1.429 . S
C487 C483 1.429 . S
C487 C488 1.523 . S
C488 C472 1.368 . S
C488 C484 1.368 1_565 S
C488 C487 1.523 . S
H489 C464 0.950 . S
H490 C466 0.950 . S
H491 C467 0.949 . S
H492 C469 0.950 . S
H493 C471 0.950 . S
C494 C495 1.349 . S
C494 C496 1.327 . S
C494 H519 0.950 . S
C495 C494 1.349 . S
C495 C511 1.349 . S
C496 C494 1.327 . S
C496 C515 1.429 . S
C496 H520 0.950 . S
C497 C514 1.574 . S
C497 C516 1.368 1_455 S
C497 H521 0.949 . S
H498 C502 0.949 . S
C499 C500 1.349 . S
C499 C501 1.327 . S
C499 H522 0.950 . S
C500 C499 1.349 . S
C500 C512 1.349 . S
C501 C499 1.327 . S
C501 C517 1.429 . S
C501 H523 0.950 . S
C502 H498 0.949 . S
C502 C510 1.574 . S
C502 C518 1.368 1_655 S
H503 C511 0.950 . S
H504 C509 0.950 . S
H505 C510 0.949 . S
H506 C512 0.950 . S
H507 C513 0.950 . S
H508 C514 0.949 . S
C509 H504 0.950 . S
C509 C511 1.327 . S
C509 C515 1.429 . S
C510 C502 1.574 . S
C510 H505 0.949 . S
C510 C516 1.368 . S
C511 C495 1.349 . S
C511 H503 0.950 . S
C511 C509 1.327 . S
C512 C500 1.349 . S
C512 H506 0.950 . S
C512 C513 1.327 . S
C513 H507 0.950 . S
C513 C512 1.327 . S
C513 C517 1.429 . S
C514 C497 1.574 . S
C514 H508 0.949 . S
C514 C518 1.368 . S
C515 C496 1.429 . S
C515 C509 1.429 . S
C515 C516 1.523 . S
C516 C497 1.368 1_655 S
C516 C510 1.368 . S
C516 C515 1.523 . S
C517 C501 1.429 . S
C517 C513 1.429 . S
C517 C518 1.523 . S
C518 C502 1.368 1_455 S
C518 C514 1.368 . S
C518 C517 1.523 . S
H519 C494 0.950 . S
H520 C496 0.950 . S
H521 C497 0.949 . S
H522 C499 0.950 . S
H523 C501 0.950 . S
C524 C525 1.349 . S
C524 C526 1.327 . S
C524 H549 0.950 . S
C525 C524 1.349 . S
C525 C541 1.349 . S
C526 C524 1.327 . S
C526 C545 1.429 . S
C526 H550 0.950 . S
C527 C544 1.574 . S
C527 C546 1.368 . S
C527 H551 0.949 . S
H528 C532 0.949 . S
C529 C530 1.349 . S
C529 C531 1.327 . S
C529 H552 0.950 . S
C530 C529 1.349 . S
C530 C542 1.349 . S
C531 C529 1.327 . S
C531 C547 1.429 . S
C531 H553 0.950 . S
C532 H528 0.949 . S
C532 C540 1.574 . S
C532 C548 1.368 . S
H533 C541 0.950 . S
H534 C539 0.950 . S
H535 C540 0.949 . S
H536 C542 0.950 . S
H537 C543 0.950 . S
H538 C544 0.949 . S
C539 H534 0.950 . S
C539 C541 1.327 . S
C539 C545 1.429 . S
C540 C532 1.574 . S
C540 H535 0.949 . S
C540 C546 1.368 . S
C541 C525 1.349 . S
C541 H533 0.950 . S
C541 C539 1.327 . S
C542 C530 1.349 . S
C542 H536 0.950 . S
C542 C543 1.327 . S
C543 H537 0.950 . S
C543 C542 1.327 . S
C543 C547 1.429 . S
C544 C527 1.574 . S
C544 H538 0.949 . S
C544 C548 1.368 . S
C545 C526 1.429 . S
C545 C539 1.429 . S
C545 C546 1.523 . S
C546 C527 1.368 . S
C546 C540 1.368 . S
C546 C545 1.523 . S
C547 C531 1.429 . S
C547 C543 1.429 . S
C547 C548 1.523 . S
C548 C532 1.368 . S
C548 C544 1.368 . S
C548 C547 1.523 . S
H549 C524 0.950 . S
H550 C526 0.950 . S
H551 C527 0.949 . S
H552 C529 0.950 . S
H553 C531 0.950 . S
C554 C555 1.349 . S
C554 C556 1.327 . S
C554 H579 0.950 . S
C555 C554 1.349 . S
C555 C571 1.349 . S
C556 C554 1.327 . S
C556 C575 1.429 . S
C556 H580 0.950 . S
C557 C574 1.574 1_565 S
C557 C576 1.368 . S
C557 H581 0.949 . S
H558 C562 0.949 . S
C559 C560 1.349 . S
C559 C561 1.327 . S
C559 H582 0.950 . S
C560 C559 1.349 . S
C560 C572 1.349 . S
C561 C559 1.327 . S
C561 C577 1.429 . S
C561 H583 0.950 . S
C562 H558 0.949 . S
C562 C570 1.574 1_545 S
C562 C578 1.368 . S
H563 C571 0.950 . S
H564 C569 0.950 . S
H565 C570 0.949 . S
H566 C572 0.950 . S
H567 C573 0.950 . S
H568 C574 0.949 . S
C569 H564 0.950 . S
C569 C571 1.327 . S
C569 C575 1.429 . S
C570 C562 1.574 1_565 S
C570 H565 0.949 . S
C570 C576 1.368 . S
C571 C555 1.349 . S
C571 H563 0.950 . S
C571 C569 1.327 . S
C572 C560 1.349 . S
C572 H566 0.950 . S
C572 C573 1.327 . S
C573 H567 0.950 . S
C573 C572 1.327 . S
C573 C577 1.429 . S
C574 C557 1.574 1_545 S
C574 H568 0.949 . S
C574 C578 1.368 . S
C575 C556 1.429 . S
C575 C569 1.429 . S
C575 C576 1.523 . S
C576 C557 1.368 . S
C576 C570 1.368 . S
C576 C575 1.523 . S
C577 C561 1.429 . S
C577 C573 1.429 . S
C577 C578 1.523 . S
C578 C562 1.368 . S
C578 C574 1.368 . S
C578 C577 1.523 . S
H579 C554 0.950 . S
H580 C556 0.950 . S
H581 C557 0.949 . S
H582 C559 0.950 . S
H583 C561 0.950 . S
C584 C585 1.349 1_556 S
C584 C586 1.327 . S
C584 H609 0.950 . S
C585 C584 1.349 1_554 S
C585 C601 1.349 . S
C586 C584 1.327 . S
C586 C605 1.429 1_556 S
C586 H610 0.950 . S
C587 C604 1.574 1_455 S
C587 C606 1.368 . S
C587 H611 0.949 . S
H588 C592 0.949 . S
C589 C590 1.349 . S
C589 C591 1.327 . S
C589 H612 0.950 . S
C590 C589 1.349 . S
C590 C602 1.349 1_554 S
C591 C589 1.327 . S
C591 C607 1.429 . S
C591 H613 0.950 . S
C592 H588 0.949 . S
C592 C600 1.574 1_655 S
C592 C608 1.368 1_556 S
H593 C601 0.950 . S
H594 C599 0.950 . S
H595 C600 0.949 . S
H596 C602 0.950 . S
H597 C603 0.950 . S
H598 C604 0.949 . S
C599 H594 0.950 . S
C599 C601 1.327 . S
C599 C605 1.429 . S
C600 C592 1.574 1_455 S
C600 H595 0.949 . S
C600 C606 1.368 1_556 S
C601 C585 1.349 . S
C601 H593 0.950 . S
C601 C599 1.327 . S
C602 C590 1.349 1_556 S
C602 H596 0.950 . S
C602 C603 1.327 . S
C603 H597 0.950 . S
C603 C602 1.327 . S
C603 C607 1.429 1_556 S
C604 C587 1.574 1_655 S
C604 H598 0.949 . S
C604 C608 1.368 . S
C605 C586 1.429 1_554 S
C605 C599 1.429 . S
C605 C606 1.523 . S
C606 C587 1.368 . S
C606 C600 1.368 1_554 S
C606 C605 1.523 . S
C607 C591 1.429 . S
C607 C603 1.429 1_554 S
C607 C608 1.523 . S
C608 C592 1.368 1_554 S
C608 C604 1.368 . S
C608 C607 1.523 . S
H609 C584 0.950 . S
H610 C586 0.950 . S
H611 C587 0.949 . S
H612 C589 0.950 . S
H613 C591 0.950 . S
C614 C615 1.349 . S
C614 C616 1.327 . S
C614 H639 0.950 . S
C615 C614 1.349 . S
C615 C631 1.349 . S
C616 C614 1.327 . S
C616 C635 1.429 . S
C616 H640 0.950 . S
C617 C634 1.574 . S
C617 C636 1.368 . S
C617 H641 0.949 . S
H618 C622 0.949 . S
C619 C620 1.349 . S
C619 C621 1.327 . S
C619 H642 0.950 . S
C620 C619 1.349 . S
C620 C632 1.349 . S
C621 C619 1.327 . S
C621 C637 1.429 . S
C621 H643 0.950 . S
C622 H618 0.949 . S
C622 C630 1.574 . S
C622 C638 1.368 . S
H623 C631 0.950 . S
H624 C629 0.950 . S
H625 C630 0.949 . S
H626 C632 0.950 . S
H627 C633 0.950 . S
H628 C634 0.949 . S
C629 H624 0.950 . S
C629 C631 1.327 . S
C629 C635 1.429 . S
C630 C622 1.574 . S
C630 H625 0.949 . S
C630 C636 1.368 . S
C631 C615 1.349 . S
C631 H623 0.950 . S
C631 C629 1.327 . S
C632 C620 1.349 . S
C632 H626 0.950 . S
C632 C633 1.327 . S
C633 H627 0.950 . S
C633 C632 1.327 . S
C633 C637 1.429 . S
C634 C617 1.574 . S
C634 H628 0.949 . S
C634 C638 1.368 . S
C635 C616 1.429 . S
C635 C629 1.429 . S
C635 C636 1.523 . S
C636 C617 1.368 . S
C636 C630 1.368 . S
C636 C635 1.523 . S
C637 C621 1.429 . S
C637 C633 1.429 . S
C637 C638 1.523 . S
C638 C622 1.368 . S
C638 C634 1.368 . S
C638 C637 1.523 . S
H639 C614 0.950 . S
H640 C616 0.950 . S
H641 C617 0.949 . S
H642 C619 0.950 . S
H643 C621 0.950 . S
C644 C645 1.349 . S
C644 C646 1.327 . S
C644 H669 0.950 . S
C645 C644 1.349 . S
C645 C661 1.349 . S
C646 C644 1.327 . S
C646 C665 1.429 . S
C646 H670 0.950 . S
C647 C664 1.574 . S
C647 C666 1.368 1_565 S
C647 H671 0.949 . S
H648 C652 0.949 . S
C649 C650 1.349 . S
C649 C651 1.327 . S
C649 H672 0.950 . S
C650 C649 1.349 . S
C650 C662 1.349 . S
C651 C649 1.327 . S
C651 C667 1.429 . S
C651 H673 0.950 . S
C652 H648 0.949 . S
C652 C660 1.574 . S
C652 C668 1.368 1_545 S
H653 C661 0.950 . S
H654 C659 0.950 . S
H655 C660 0.949 . S
H656 C662 0.950 . S
H657 C663 0.950 . S
H658 C664 0.949 . S
C659 H654 0.950 . S
C659 C661 1.327 . S
C659 C665 1.429 . S
C660 C652 1.574 . S
C660 H655 0.949 . S
C660 C666 1.368 . S
C661 C645 1.349 . S
C661 H653 0.950 . S
C661 C659 1.327 . S
C662 C650 1.349 . S
C662 H656 0.950 . S
C662 C663 1.327 . S
C663 H657 0.950 . S
C663 C662 1.327 . S
C663 C667 1.429 . S
C664 C647 1.574 . S
C664 H658 0.949 . S
C664 C668 1.368 . S
C665 C646 1.429 . S
C665 C659 1.429 . S
C665 C666 1.523 . S
C666 C647 1.368 1_545 S
C666 C660 1.368 . S
C666 C665 1.523 . S
C667 C651 1.429 . S
C667 C663 1.429 . S
C667 C668 1.523 . S
C668 C652 1.368 1_565 S
C668 C664 1.368 . S
C668 C667 1.523 . S
H669 C644 0.950 . S
H670 C646 0.950 . S
H671 C647 0.949 . S
H672 C649 0.950 . S
H673 C651 0.950 . S
C674 C675 1.349 . S
C674 C676 1.327 . S
C674 H699 0.950 . S
C675 C674 1.349 . S
C675 C691 1.349 . S
C676 C674 1.327 . S
C676 C695 1.429 . S
C676 H700 0.950 . S
C677 C694 1.574 1_545 S
C677 C696 1.368 . S
C677 H701 0.949 . S
H678 C682 0.949 . S
C679 C680 1.349 . S
C679 C681 1.327 . S
C679 H702 0.950 . S
C680 C679 1.349 . S
C680 C692 1.349 . S
C681 C679 1.327 . S
C681 C697 1.429 . S
C681 H703 0.950 . S
C682 H678 0.949 . S
C682 C690 1.574 1_565 S
C682 C698 1.368 . S
H683 C691 0.950 . S
H684 C689 0.950 . S
H685 C690 0.949 . S
H686 C692 0.950 . S
H687 C693 0.950 . S
H688 C694 0.949 . S
C689 H684 0.950 . S
C689 C691 1.327 . S
C689 C695 1.429 . S
C690 C682 1.574 1_545 S
C690 H685 0.949 . S
C690 C696 1.368 1_655 S
C691 C675 1.349 . S
C691 H683 0.950 . S
C691 C689 1.327 . S
C692 C680 1.349 . S
C692 H686 0.950 . S
C692 C693 1.327 . S
C693 H687 0.950 . S
C693 C692 1.327 . S
C693 C697 1.429 . S
C694 C677 1.574 1_565 S
C694 H688 0.949 . S
C694 C698 1.368 1_455 S
C695 C676 1.429 . S
C695 C689 1.429 . S
C695 C696 1.523 . S
C696 C677 1.368 . S
C696 C690 1.368 1_455 S
C696 C695 1.523 . S
C697 C681 1.429 . S
C697 C693 1.429 . S
C697 C698 1.523 . S
C698 C682 1.368 . S
C698 C694 1.368 1_655 S
C698 C697 1.523 . S
H699 C674 0.950 . S
H700 C676 0.950 . S
H701 C677 0.949 . S
H702 C679 0.950 . S
H703 C681 0.950 . S
C704 C705 1.349 . S
C704 C706 1.327 . S
C704 H729 0.950 . S
C705 C704 1.349 . S
C705 C721 1.349 . S
C706 C704 1.327 . S
C706 C725 1.429 . S
C706 H730 0.950 . S
C707 C724 1.574 . S
C707 C726 1.368 . S
C707 H731 0.949 . S
H708 C712 0.949 . S
C709 C710 1.349 . S
C709 C711 1.327 . S
C709 H732 0.950 . S
C710 C709 1.349 . S
C710 C722 1.349 . S
C711 C709 1.327 . S
C711 C727 1.429 . S
C711 H733 0.950 . S
C712 H708 0.949 . S
C712 C720 1.574 . S
C712 C728 1.368 . S
H713 C721 0.950 . S
H714 C719 0.950 . S
H715 C720 0.949 . S
H716 C722 0.950 . S
H717 C723 0.950 . S
H718 C724 0.949 . S
C719 H714 0.950 . S
C719 C721 1.327 . S
C719 C725 1.429 . S
C720 C712 1.574 . S
C720 H715 0.949 . S
C720 C726 1.368 . S
C721 C705 1.349 . S
C721 H713 0.950 . S
C721 C719 1.327 . S
C722 C710 1.349 . S
C722 H716 0.950 . S
C722 C723 1.327 . S
C723 H717 0.950 . S
C723 C722 1.327 . S
C723 C727 1.429 . S
C724 C707 1.574 . S
C724 H718 0.949 . S
C724 C728 1.368 . S
C725 C706 1.429 . S
C725 C719 1.429 . S
C725 C726 1.523 . S
C726 C707 1.368 . S
C726 C720 1.368 . S
C726 C725 1.523 . S
C727 C711 1.429 . S
C727 C723 1.429 . S
C727 C728 1.523 . S
C728 C712 1.368 . S
C728 C724 1.368 . S
C728 C727 1.523 . S
H729 C704 0.950 . S
H730 C706 0.950 . S
H731 C707 0.949 . S
H732 C709 0.950 . S
H733 C711 0.950 . S
C734 C735 1.349 . S
C734 C736 1.327 . S
C734 H759 0.950 . S
C735 C734 1.349 . S
C735 C751 1.349 . S
C736 C734 1.327 . S
C736 C755 1.429 . S
C736 H760 0.950 . S
C737 C754 1.574 . S
C737 C756 1.368 . S
C737 H761 0.949 . S
H738 C742 0.949 . S
C739 C740 1.349 . S
C739 C741 1.327 . S
C739 H762 0.950 . S
C740 C739 1.349 . S
C740 C752 1.349 . S
C741 C739 1.327 . S
C741 C757 1.429 . S
C741 H763 0.950 . S
C742 H738 0.949 . S
C742 C750 1.574 . S
C742 C758 1.368 . S
H743 C751 0.950 . S
H744 C749 0.950 . S
H745 C750 0.949 . S
H746 C752 0.950 . S
H747 C753 0.950 . S
H748 C754 0.949 . S
C749 H744 0.950 . S
C749 C751 1.327 . S
C749 C755 1.429 . S
C750 C742 1.574 . S
C750 H745 0.949 . S
C750 C756 1.368 . S
C751 C735 1.349 . S
C751 H743 0.950 . S
C751 C749 1.327 . S
C752 C740 1.349 . S
C752 H746 0.950 . S
C752 C753 1.327 . S
C753 H747 0.950 . S
C753 C752 1.327 . S
C753 C757 1.429 . S
C754 C737 1.574 . S
C754 H748 0.949 . S
C754 C758 1.368 . S
C755 C736 1.429 . S
C755 C749 1.429 . S
C755 C756 1.523 . S
C756 C737 1.368 . S
C756 C750 1.368 . S
C756 C755 1.523 . S
C757 C741 1.429 . S
C757 C753 1.429 . S
C757 C758 1.523 . S
C758 C742 1.368 . S
C758 C754 1.368 . S
C758 C757 1.523 . S
H759 C734 0.950 . S
H760 C736 0.950 . S
H761 C737 0.949 . S
H762 C739 0.950 . S
H763 C741 0.950 . S
C764 C765 1.349 . S
C764 C766 1.327 . S
C764 H789 0.950 . S
C765 C764 1.349 . S
C765 C781 1.349 . S
C766 C764 1.327 . S
C766 C785 1.429 . S
C766 H790 0.950 . S
C767 C784 1.574 . S
C767 C786 1.368 . S
C767 H791 0.949 . S
H768 C772 0.949 1_556 S
C769 C770 1.349 . S
C769 C771 1.327 . S
C769 H792 0.950 . S
C770 C769 1.349 . S
C770 C782 1.349 . S
C771 C769 1.327 . S
C771 C787 1.429 . S
C771 H793 0.950 . S
C772 H768 0.949 1_554 S
C772 C780 1.574 . S
C772 C788 1.368 1_554 S
H773 C781 0.950 . S
H774 C779 0.950 . S
H775 C780 0.949 . S
H776 C782 0.950 . S
H777 C783 0.950 . S
H778 C784 0.949 1_556 S
C779 H774 0.950 . S
C779 C781 1.327 . S
C779 C785 1.429 . S
C780 C772 1.574 . S
C780 H775 0.949 . S
C780 C786 1.368 . S
C781 C765 1.349 . S
C781 H773 0.950 . S
C781 C779 1.327 . S
C782 C770 1.349 . S
C782 H776 0.950 . S
C782 C783 1.327 . S
C783 H777 0.950 . S
C783 C782 1.327 . S
C783 C787 1.429 . S
C784 C767 1.574 . S
C784 H778 0.949 1_554 S
C784 C788 1.368 1_554 S
C785 C766 1.429 . S
C785 C779 1.429 . S
C785 C786 1.523 . S
C786 C767 1.368 . S
C786 C780 1.368 . S
C786 C785 1.523 . S
C787 C771 1.429 . S
C787 C783 1.429 . S
C787 C788 1.523 . S
C788 C772 1.368 1_556 S
C788 C784 1.368 1_556 S
C788 C787 1.523 . S
H789 C764 0.950 . S
H790 C766 0.950 . S
H791 C767 0.949 . S
H792 C769 0.950 . S
H793 C771 0.950 . S
C794 C795 1.349 . S
C794 C796 1.327 . S
C794 H819 0.950 . S
C795 C794 1.349 . S
C795 C811 1.349 . S
C796 C794 1.327 . S
C796 C815 1.429 . S
C796 H820 0.950 . S
C797 C814 1.574 . S
C797 C816 1.368 . S
C797 H821 0.949 . S
H798 C802 0.949 . S
C799 C800 1.349 . S
C799 C801 1.327 . S
C799 H822 0.950 . S
C800 C799 1.349 . S
C800 C812 1.349 . S
C801 C799 1.327 . S
C801 C817 1.429 . S
C801 H823 0.950 . S
C802 H798 0.949 . S
C802 C810 1.574 . S
C802 C818 1.368 . S
H803 C811 0.950 . S
H804 C809 0.950 . S
H805 C810 0.949 . S
H806 C812 0.950 . S
H807 C813 0.950 . S
H808 C814 0.949 . S
C809 H804 0.950 . S
C809 C811 1.327 . S
C809 C815 1.429 . S
C810 C802 1.574 . S
C810 H805 0.949 . S
C810 C816 1.368 . S
C811 C795 1.349 . S
C811 H803 0.950 . S
C811 C809 1.327 . S
C812 C800 1.349 . S
C812 H806 0.950 . S
C812 C813 1.327 . S
C813 H807 0.950 . S
C813 C812 1.327 . S
C813 C817 1.429 . S
C814 C797 1.574 . S
C814 H808 0.949 . S
C814 C818 1.368 . S
C815 C796 1.429 . S
C815 C809 1.429 . S
C815 C816 1.523 . S
C816 C797 1.368 . S
C816 C810 1.368 . S
C816 C815 1.523 . S
C817 C801 1.429 . S
C817 C813 1.429 . S
C817 C818 1.523 . S
C818 C802 1.368 . S
C818 C814 1.368 . S
C818 C817 1.523 . S
H819 C794 0.950 . S
H820 C796 0.950 . S
H821 C797 0.949 . S
H822 C799 0.950 . S
H823 C801 0.950 . S
C824 C825 1.349 . S
C824 C826 1.327 . S
C824 H849 0.950 . S
C825 C824 1.349 . S
C825 C841 1.349 . S
C826 C824 1.327 . S
C826 C845 1.429 . S
C826 H850 0.950 . S
C827 C844 1.574 . S
C827 C846 1.368 . S
C827 H851 0.949 . S
H828 C832 0.949 . S
C829 C830 1.349 . S
C829 C831 1.327 . S
C829 H852 0.950 . S
C830 C829 1.349 . S
C830 C842 1.349 . S
C831 C829 1.327 . S
C831 C847 1.429 . S
C831 H853 0.950 . S
C832 H828 0.949 . S
C832 C840 1.574 . S
C832 C848 1.368 . S
H833 C841 0.950 . S
H834 C839 0.950 . S
H835 C840 0.949 . S
H836 C842 0.950 . S
H837 C843 0.950 . S
H838 C844 0.949 . S
C839 H834 0.950 . S
C839 C841 1.327 . S
C839 C845 1.429 . S
C840 C832 1.574 . S
C840 H835 0.949 . S
C840 C846 1.368 . S
C841 C825 1.349 . S
C841 H833 0.950 . S
C841 C839 1.327 . S
C842 C830 1.349 . S
C842 H836 0.950 . S
C842 C843 1.327 . S
C843 H837 0.950 . S
C843 C842 1.327 . S
C843 C847 1.429 . S
C844 C827 1.574 . S
C844 H838 0.949 . S
C844 C848 1.368 . S
C845 C826 1.429 . S
C845 C839 1.429 . S
C845 C846 1.523 . S
C846 C827 1.368 . S
C846 C840 1.368 . S
C846 C845 1.523 . S
C847 C831 1.429 . S
C847 C843 1.429 . S
C847 C848 1.523 . S
C848 C832 1.368 . S
C848 C844 1.368 . S
C848 C847 1.523 . S
H849 C824 0.950 . S
H850 C826 0.950 . S
H851 C827 0.949 . S
H852 C829 0.950 . S
H853 C831 0.950 . S
C854 C855 1.349 . S
C854 C856 1.327 . S
C854 H879 0.950 . S
C855 C854 1.349 . S
C855 C871 1.349 . S
C856 C854 1.327 . S
C856 C875 1.429 . S
C856 H880 0.950 . S
C857 C874 1.574 . S
C857 C876 1.368 . S
C857 H881 0.949 . S
H858 C862 0.949 1_556 S
C859 C860 1.349 . S
C859 C861 1.327 . S
C859 H882 0.950 . S
C860 C859 1.349 . S
C860 C872 1.349 . S
C861 C859 1.327 . S
C861 C877 1.429 . S
C861 H883 0.950 . S
C862 H858 0.949 1_554 S
C862 C870 1.574 . S
C862 C878 1.368 1_554 S
H863 C871 0.950 . S
H864 C869 0.950 . S
H865 C870 0.949 . S
H866 C872 0.950 . S
H867 C873 0.950 . S
H868 C874 0.949 1_556 S
C869 H864 0.950 . S
C869 C871 1.327 . S
C869 C875 1.429 . S
C870 C862 1.574 . S
C870 H865 0.949 . S
C870 C876 1.368 . S
C871 C855 1.349 . S
C871 H863 0.950 . S
C871 C869 1.327 . S
C872 C860 1.349 . S
C872 H866 0.950 . S
C872 C873 1.327 . S
C873 H867 0.950 . S
C873 C872 1.327 . S
C873 C877 1.429 . S
C874 C857 1.574 . S
C874 H868 0.949 1_554 S
C874 C878 1.368 1_554 S
C875 C856 1.429 . S
C875 C869 1.429 . S
C875 C876 1.523 . S
C876 C857 1.368 . S
C876 C870 1.368 . S
C876 C875 1.523 . S
C877 C861 1.429 . S
C877 C873 1.429 . S
C877 C878 1.523 . S
C878 C862 1.368 1_556 S
C878 C874 1.368 1_556 S
C878 C877 1.523 . S
H879 C854 0.950 . S
H880 C856 0.950 . S
H881 C857 0.949 . S
H882 C859 0.950 . S
H883 C861 0.950 . S
C884 C885 1.349 . S
C884 C886 1.327 . S
C884 H909 0.950 . S
C885 C884 1.349 . S
C885 C901 1.349 . S
C886 C884 1.327 . S
C886 C905 1.429 . S
C886 H910 0.950 . S
C887 C904 1.574 . S
C887 C906 1.368 . S
C887 H911 0.949 . S
H888 C892 0.949 . S
C889 C890 1.349 . S
C889 C891 1.327 . S
C889 H912 0.950 . S
C890 C889 1.349 . S
C890 C902 1.349 . S
C891 C889 1.327 . S
C891 C907 1.429 . S
C891 H913 0.950 . S
C892 H888 0.949 . S
C892 C900 1.574 . S
C892 C908 1.368 . S
H893 C901 0.950 . S
H894 C899 0.950 . S
H895 C900 0.949 . S
H896 C902 0.950 . S
H897 C903 0.950 . S
H898 C904 0.949 . S
C899 H894 0.950 . S
C899 C901 1.327 . S
C899 C905 1.429 . S
C900 C892 1.574 . S
C900 H895 0.949 . S
C900 C906 1.368 . S
C901 C885 1.349 . S
C901 H893 0.950 . S
C901 C899 1.327 . S
C902 C890 1.349 . S
C902 H896 0.950 . S
C902 C903 1.327 . S
C903 H897 0.950 . S
C903 C902 1.327 . S
C903 C907 1.429 . S
C904 C887 1.574 . S
C904 H898 0.949 . S
C904 C908 1.368 . S
C905 C886 1.429 . S
C905 C899 1.429 . S
C905 C906 1.523 . S
C906 C887 1.368 . S
C906 C900 1.368 . S
C906 C905 1.523 . S
C907 C891 1.429 . S
C907 C903 1.429 . S
C907 C908 1.523 . S
C908 C892 1.368 . S
C908 C904 1.368 . S
C908 C907 1.523 . S
H909 C884 0.950 . S
H910 C886 0.950 . S
H911 C887 0.949 . S
H912 C889 0.950 . S
H913 C891 0.950 . S
C914 C915 1.349 . S
C914 C916 1.327 . S
C914 H939 0.950 . S
C915 C914 1.349 . S
C915 C931 1.349 . S
C916 C914 1.327 . S
C916 C935 1.429 . S
C916 H940 0.950 . S
C917 C934 1.574 . S
C917 C936 1.368 . S
C917 H941 0.949 . S
H918 C922 0.949 . S
C919 C920 1.349 . S
C919 C921 1.327 . S
C919 H942 0.950 . S
C920 C919 1.349 . S
C920 C932 1.349 . S
C921 C919 1.327 . S
C921 C937 1.429 . S
C921 H943 0.950 . S
C922 H918 0.949 . S
C922 C930 1.574 . S
C922 C938 1.368 . S
H923 C931 0.950 . S
H924 C929 0.950 . S
H925 C930 0.949 . S
H926 C932 0.950 . S
H927 C933 0.950 . S
H928 C934 0.949 . S
C929 H924 0.950 . S
C929 C931 1.327 . S
C929 C935 1.429 . S
C930 C922 1.574 . S
C930 H925 0.949 . S
C930 C936 1.368 . S
C931 C915 1.349 . S
C931 H923 0.950 . S
C931 C929 1.327 . S
C932 C920 1.349 . S
C932 H926 0.950 . S
C932 C933 1.327 . S
C933 H927 0.950 . S
C933 C932 1.327 . S
C933 C937 1.429 . S
C934 C917 1.574 . S
C934 H928 0.949 . S
C934 C938 1.368 . S
C935 C916 1.429 . S
C935 C929 1.429 . S
C935 C936 1.523 . S
C936 C917 1.368 . S
C936 C930 1.368 . S
C936 C935 1.523 . S
C937 C921 1.429 . S
C937 C933 1.429 . S
C937 C938 1.523 . S
C938 C922 1.368 . S
C938 C934 1.368 . S
C938 C937 1.523 . S
H939 C914 0.950 . S
H940 C916 0.950 . S
H941 C917 0.949 . S
H942 C919 0.950 . S
H943 C921 0.950 . S
C944 C945 1.349 . S
C944 C946 1.327 . S
C944 H969 0.950 . S
C945 C944 1.349 . S
C945 C961 1.349 . S
C946 C944 1.327 . S
C946 C965 1.429 . S
C946 H970 0.950 . S
C947 C964 1.574 . S
C947 C966 1.368 1_554 S
C947 H971 0.949 . S
H948 C952 0.949 . S
C949 C950 1.349 . S
C949 C951 1.327 . S
C949 H972 0.950 . S
C950 C949 1.349 . S
C950 C962 1.349 . S
C951 C949 1.327 . S
C951 C967 1.429 . S
C951 H973 0.950 . S
C952 H948 0.949 . S
C952 C960 1.574 . S
C952 C968 1.368 . S
H953 C961 0.950 . S
H954 C959 0.950 . S
H955 C960 0.949 1_556 S
H956 C962 0.950 . S
H957 C963 0.950 . S
H958 C964 0.949 . S
C959 H954 0.950 . S
C959 C961 1.327 . S
C959 C965 1.429 . S
C960 C952 1.574 . S
C960 H955 0.949 1_554 S
C960 C966 1.368 1_554 S
C961 C945 1.349 . S
C961 H953 0.950 . S
C961 C959 1.327 . S
C962 C950 1.349 . S
C962 H956 0.950 . S
C962 C963 1.327 . S
C963 H957 0.950 . S
C963 C962 1.327 . S
C963 C967 1.429 . S
C964 C947 1.574 . S
C964 H958 0.949 . S
C964 C968 1.368 . S
C965 C946 1.429 . S
C965 C959 1.429 . S
C965 C966 1.523 . S
C966 C947 1.368 1_556 S
C966 C960 1.368 1_556 S
C966 C965 1.523 . S
C967 C951 1.429 . S
C967 C963 1.429 . S
C967 C968 1.523 . S
C968 C952 1.368 . S
C968 C964 1.368 . S
C968 C967 1.523 . S
H969 C944 0.950 . S
H970 C946 0.950 . S
H971 C947 0.949 . S
H972 C949 0.950 . S
H973 C951 0.950 . S
C974 C975 1.349 . S
C974 C976 1.327 . S
C974 H999 0.950 . S
C975 C974 1.349 . S
C975 C991 1.349 . S
C976 C974 1.327 . S
C976 C995 1.429 . S
C976 H1000 0.950 . S
C977 C994 1.574 . S
C977 C996 1.368 . S
C977 H1001 0.949 . S
H978 C982 0.949 . S
C979 C980 1.349 . S
C979 C981 1.327 . S
C979 H1002 0.950 . S
C980 C979 1.349 . S
C980 C992 1.349 . S
C981 C979 1.327 . S
C981 C997 1.429 . S
C981 H1003 0.950 . S
C982 H978 0.949 . S
C982 C990 1.574 . S
C982 C998 1.368 . S
H983 C991 0.950 . S
H984 C989 0.950 . S
H985 C990 0.949 . S
H986 C992 0.950 . S
H987 C993 0.950 . S
H988 C994 0.949 . S
C989 H984 0.950 . S
C989 C991 1.327 . S
C989 C995 1.429 . S
C990 C982 1.574 . S
C990 H985 0.949 . S
C990 C996 1.368 . S
C991 C975 1.349 . S
C991 H983 0.950 . S
C991 C989 1.327 . S
C992 C980 1.349 . S
C992 H986 0.950 . S
C992 C993 1.327 . S
C993 H987 0.950 . S
C993 C992 1.327 . S
C993 C997 1.429 . S
C994 C977 1.574 . S
C994 H988 0.949 . S
C994 C998 1.368 . S
C995 C976 1.429 . S
C995 C989 1.429 . S
C995 C996 1.523 . S
C996 C977 1.368 . S
C996 C990 1.368 . S
C996 C995 1.523 . S
C997 C981 1.429 . S
C997 C993 1.429 . S
C997 C998 1.523 . S
C998 C982 1.368 . S
C998 C994 1.368 . S
C998 C997 1.523 . S
H999 C974 0.950 . S
H1000 C976 0.950 . S
H1001 C977 0.949 . S
H1002 C979 0.950 . S
H1003 C981 0.950 . S
C1004 C1005 1.349 . S
C1004 C1006 1.327 . S
C1004 H1029 0.950 . S
C1005 C1004 1.349 . S
C1005 C1021 1.349 . S
C1006 C1004 1.327 . S
C1006 C1025 1.429 . S
C1006 H1030 0.950 . S
C1007 C1024 1.574 . S
C1007 C1026 1.368 . S
C1007 H1031 0.949 . S
H1008 C1012 0.949 . S
C1009 C1010 1.349 . S
C1009 C1011 1.327 . S
C1009 H1032 0.950 . S
C1010 C1009 1.349 . S
C1010 C1022 1.349 . S
C1011 C1009 1.327 . S
C1011 C1027 1.429 . S
C1011 H1033 0.950 . S
C1012 H1008 0.949 . S
C1012 C1020 1.574 . S
C1012 C1028 1.368 . S
H1013 C1021 0.950 . S
H1014 C1019 0.950 . S
H1015 C1020 0.949 . S
H1016 C1022 0.950 . S
H1017 C1023 0.950 . S
H1018 C1024 0.949 . S
C1019 H1014 0.950 . S
C1019 C1021 1.327 . S
C1019 C1025 1.429 . S
C1020 C1012 1.574 . S
C1020 H1015 0.949 . S
C1020 C1026 1.368 . S
C1021 C1005 1.349 . S
C1021 H1013 0.950 . S
C1021 C1019 1.327 . S
C1022 C1010 1.349 . S
C1022 H1016 0.950 . S
C1022 C1023 1.327 . S
C1023 H1017 0.950 . S
C1023 C1022 1.327 . S
C1023 C1027 1.429 . S
C1024 C1007 1.574 . S
C1024 H1018 0.949 . S
C1024 C1028 1.368 . S
C1025 C1006 1.429 . S
C1025 C1019 1.429 . S
C1025 C1026 1.523 . S
C1026 C1007 1.368 . S
C1026 C1020 1.368 . S
C1026 C1025 1.523 . S
C1027 C1011 1.429 . S
C1027 C1023 1.429 . S
C1027 C1028 1.523 . S
C1028 C1012 1.368 . S
C1028 C1024 1.368 . S
C1028 C1027 1.523 . S
H1029 C1004 0.950 . S
H1030 C1006 0.950 . S
H1031 C1007 0.949 . S
H1032 C1009 0.950 . S
H1033 C1011 0.950 . S
C1034 C1035 1.349 . S
C1034 C1036 1.327 . S
C1034 H1059 0.950 . S
C1035 C1034 1.349 . S
C1035 C1051 1.349 . S
C1036 C1034 1.327 . S
C1036 C1055 1.429 . S
C1036 H1060 0.950 . S
C1037 C1054 1.574 . S
C1037 C1056 1.368 . S
C1037 H1061 0.949 . S
H1038 C1042 0.949 . S
C1039 C1040 1.349 . S
C1039 C1041 1.327 . S
C1039 H1062 0.950 . S
C1040 C1039 1.349 . S
C1040 C1052 1.349 . S
C1041 C1039 1.327 . S
C1041 C1057 1.429 . S
C1041 H1063 0.950 . S
C1042 H1038 0.949 . S
C1042 C1050 1.574 . S
C1042 C1058 1.368 . S
H1043 C1051 0.950 . S
H1044 C1049 0.950 . S
H1045 C1050 0.949 . S
H1046 C1052 0.950 . S
H1047 C1053 0.950 . S
H1048 C1054 0.949 . S
C1049 H1044 0.950 . S
C1049 C1051 1.327 . S
C1049 C1055 1.429 . S
C1050 C1042 1.574 . S
C1050 H1045 0.949 . S
C1050 C1056 1.368 . S
C1051 C1035 1.349 . S
C1051 H1043 0.950 . S
C1051 C1049 1.327 . S
C1052 C1040 1.349 . S
C1052 H1046 0.950 . S
C1052 C1053 1.327 . S
C1053 H1047 0.950 . S
C1053 C1052 1.327 . S
C1053 C1057 1.429 . S
C1054 C1037 1.574 . S
C1054 H1048 0.949 . S
C1054 C1058 1.368 . S
C1055 C1036 1.429 . S
C1055 C1049 1.429 . S
C1055 C1056 1.523 . S
C1056 C1037 1.368 . S
C1056 C1050 1.368 . S
C1056 C1055 1.523 . S
C1057 C1041 1.429 . S
C1057 C1053 1.429 . S
C1057 C1058 1.523 . S
C1058 C1042 1.368 . S
C1058 C1054 1.368 . S
C1058 C1057 1.523 . S
H1059 C1034 0.950 . S
H1060 C1036 0.950 . S
H1061 C1037 0.949 . S
H1062 C1039 0.950 . S
H1063 C1041 0.950 . S
C1064 C1065 1.349 . S
C1064 C1066 1.327 . S
C1064 H1089 0.950 . S
C1065 C1064 1.349 . S
C1065 C1081 1.349 . S
C1066 C1064 1.327 . S
C1066 C1085 1.429 . S
C1066 H1090 0.950 . S
C1067 C1084 1.574 . S
C1067 C1086 1.368 . S
C1067 H1091 0.949 . S
H1068 C1072 0.949 . S
C1069 C1070 1.349 . S
C1069 C1071 1.327 . S
C1069 H1092 0.950 . S
C1070 C1069 1.349 . S
C1070 C1082 1.349 . S
C1071 C1069 1.327 . S
C1071 C1087 1.429 . S
C1071 H1093 0.950 . S
C1072 H1068 0.949 . S
C1072 C1080 1.574 . S
C1072 C1088 1.368 . S
H1073 C1081 0.950 . S
H1074 C1079 0.950 . S
H1075 C1080 0.949 . S
H1076 C1082 0.950 . S
H1077 C1083 0.950 . S
H1078 C1084 0.949 . S
C1079 H1074 0.950 . S
C1079 C1081 1.327 . S
C1079 C1085 1.429 . S
C1080 C1072 1.574 . S
C1080 H1075 0.949 . S
C1080 C1086 1.368 . S
C1081 C1065 1.349 . S
C1081 H1073 0.950 . S
C1081 C1079 1.327 . S
C1082 C1070 1.349 . S
C1082 H1076 0.950 . S
C1082 C1083 1.327 . S
C1083 H1077 0.950 . S
C1083 C1082 1.327 . S
C1083 C1087 1.429 . S
C1084 C1067 1.574 . S
C1084 H1078 0.949 . S
C1084 C1088 1.368 . S
C1085 C1066 1.429 . S
C1085 C1079 1.429 . S
C1085 C1086 1.523 . S
C1086 C1067 1.368 . S
C1086 C1080 1.368 . S
C1086 C1085 1.523 . S
C1087 C1071 1.429 . S
C1087 C1083 1.429 . S
C1087 C1088 1.523 . S
C1088 C1072 1.368 . S
C1088 C1084 1.368 . S
C1088 C1087 1.523 . S
H1089 C1064 0.950 . S
H1090 C1066 0.950 . S
H1091 C1067 0.949 . S
H1092 C1069 0.950 . S
H1093 C1071 0.950 . S
C1094 C1095 1.349 . S
C1094 C1096 1.327 . S
C1094 H1119 0.950 . S
C1095 C1094 1.349 . S
C1095 C1111 1.349 . S
C1096 C1094 1.327 . S
C1096 C1115 1.429 . S
C1096 H1120 0.950 . S
C1097 C1114 1.574 . S
C1097 C1116 1.368 . S
C1097 H1121 0.949 . S
H1098 C1102 0.949 . S
C1099 C1100 1.349 . S
C1099 C1101 1.327 . S
C1099 H1122 0.950 . S
C1100 C1099 1.349 . S
C1100 C1112 1.349 . S
C1101 C1099 1.327 . S
C1101 C1117 1.429 . S
C1101 H1123 0.950 . S
C1102 H1098 0.949 . S
C1102 C1110 1.574 . S
C1102 C1118 1.368 . S
H1103 C1111 0.950 . S
H1104 C1109 0.950 . S
H1105 C1110 0.949 . S
H1106 C1112 0.950 . S
H1107 C1113 0.950 . S
H1108 C1114 0.949 . S
C1109 H1104 0.950 . S
C1109 C1111 1.327 . S
C1109 C1115 1.429 . S
C1110 C1102 1.574 . S
C1110 H1105 0.949 . S
C1110 C1116 1.368 . S
C1111 C1095 1.349 . S
C1111 H1103 0.950 . S
C1111 C1109 1.327 . S
C1112 C1100 1.349 . S
C1112 H1106 0.950 . S
C1112 C1113 1.327 . S
C1113 H1107 0.950 . S
C1113 C1112 1.327 . S
C1113 C1117 1.429 . S
C1114 C1097 1.574 . S
C1114 H1108 0.949 . S
C1114 C1118 1.368 . S
C1115 C1096 1.429 . S
C1115 C1109 1.429 . S
C1115 C1116 1.523 . S
C1116 C1097 1.368 . S
C1116 C1110 1.368 . S
C1116 C1115 1.523 . S
C1117 C1101 1.429 . S
C1117 C1113 1.429 . S
C1117 C1118 1.523 . S
C1118 C1102 1.368 . S
C1118 C1114 1.368 . S
C1118 C1117 1.523 . S
H1119 C1094 0.950 . S
H1120 C1096 0.950 . S
H1121 C1097 0.949 . S
H1122 C1099 0.950 . S
H1123 C1101 0.950 . S
C1124 C1125 1.349 . S
C1124 C1126 1.327 . S
C1124 H1149 0.950 . S
C1125 C1124 1.349 . S
C1125 C1141 1.349 . S
C1126 C1124 1.327 . S
C1126 C1145 1.429 . S
C1126 H1150 0.950 . S
C1127 C1144 1.574 . S
C1127 C1146 1.368 . S
C1127 H1151 0.949 . S
H1128 C1132 0.949 . S
C1129 C1130 1.349 . S
C1129 C1131 1.327 . S
C1129 H1152 0.950 . S
C1130 C1129 1.349 . S
C1130 C1142 1.349 . S
C1131 C1129 1.327 . S
C1131 C1147 1.429 . S
C1131 H1153 0.950 . S
C1132 H1128 0.949 . S
C1132 C1140 1.574 . S
C1132 C1148 1.368 . S
H1133 C1141 0.950 . S
H1134 C1139 0.950 . S
H1135 C1140 0.949 . S
H1136 C1142 0.950 . S
H1137 C1143 0.950 . S
H1138 C1144 0.949 . S
C1139 H1134 0.950 . S
C1139 C1141 1.327 . S
C1139 C1145 1.429 . S
C1140 C1132 1.574 . S
C1140 H1135 0.949 . S
C1140 C1146 1.368 . S
C1141 C1125 1.349 . S
C1141 H1133 0.950 . S
C1141 C1139 1.327 . S
C1142 C1130 1.349 . S
C1142 H1136 0.950 . S
C1142 C1143 1.327 . S
C1143 H1137 0.950 . S
C1143 C1142 1.327 . S
C1143 C1147 1.429 . S
C1144 C1127 1.574 . S
C1144 H1138 0.949 . S
C1144 C1148 1.368 . S
C1145 C1126 1.429 . S
C1145 C1139 1.429 . S
C1145 C1146 1.523 . S
C1146 C1127 1.368 . S
C1146 C1140 1.368 . S
C1146 C1145 1.523 . S
C1147 C1131 1.429 . S
C1147 C1143 1.429 . S
C1147 C1148 1.523 . S
C1148 C1132 1.368 . S
C1148 C1144 1.368 . S
C1148 C1147 1.523 . S
H1149 C1124 0.950 . S
H1150 C1126 0.950 . S
H1151 C1127 0.949 . S
H1152 C1129 0.950 . S
H1153 C1131 0.950 . S
C1154 C1155 1.349 . S
C1154 C1156 1.327 . S
C1154 H1179 0.950 . S
C1155 C1154 1.349 . S
C1155 C1171 1.349 . S
C1156 C1154 1.327 . S
C1156 C1175 1.429 . S
C1156 H1180 0.950 . S
C1157 C1174 1.574 . S
C1157 C1176 1.368 . S
C1157 H1181 0.949 . S
H1158 C1162 0.949 1_556 S
C1159 C1160 1.349 . S
C1159 C1161 1.327 . S
C1159 H1182 0.950 . S
C1160 C1159 1.349 . S
C1160 C1172 1.349 . S
C1161 C1159 1.327 . S
C1161 C1177 1.429 . S
C1161 H1183 0.950 . S
C1162 H1158 0.949 1_554 S
C1162 C1170 1.574 . S
C1162 C1178 1.368 1_554 S
H1163 C1171 0.950 . S
H1164 C1169 0.950 . S
H1165 C1170 0.949 . S
H1166 C1172 0.950 . S
H1167 C1173 0.950 . S
H1168 C1174 0.949 1_556 S
C1169 H1164 0.950 . S
C1169 C1171 1.327 . S
C1169 C1175 1.429 . S
C1170 C1162 1.574 . S
C1170 H1165 0.949 . S
C1170 C1176 1.368 . S
C1171 C1155 1.349 . S
C1171 H1163 0.950 . S
C1171 C1169 1.327 . S
C1172 C1160 1.349 . S
C1172 H1166 0.950 . S
C1172 C1173 1.327 . S
C1173 H1167 0.950 . S
C1173 C1172 1.327 . S
C1173 C1177 1.429 . S
C1174 C1157 1.574 . S
C1174 H1168 0.949 1_554 S
C1174 C1178 1.368 1_554 S
C1175 C1156 1.429 . S
C1175 C1169 1.429 . S
C1175 C1176 1.523 . S
C1176 C1157 1.368 . S
C1176 C1170 1.368 . S
C1176 C1175 1.523 . S
C1177 C1161 1.429 . S
C1177 C1173 1.429 . S
C1177 C1178 1.523 . S
C1178 C1162 1.368 1_556 S
C1178 C1174 1.368 1_556 S
C1178 C1177 1.523 . S
H1179 C1154 0.950 . S
H1180 C1156 0.950 . S
H1181 C1157 0.949 . S
H1182 C1159 0.950 . S
H1183 C1161 0.950 . S
C225 C95 1.429 . S
C230 C11 1.429 . S
C255 C109 1.428 . S
C260 C25 1.428 . S
C285 C39 1.429 . S
C290 C67 1.429 . S
C315 C53 1.429 . S
C320 C81 1.429 . S
C345 C123 1.429 . S
C350 C207 1.429 . S
C375 C221 1.429 . S
C380 C137 1.429 . S
C405 C151 1.429 . S
C410 C179 1.429 . S
C435 C165 1.428 . S
C440 C193 1.428 . S
C465 C5 1.381 . S
C470 C145 1.381 . S
C495 C19 1.381 . S
C500 C159 1.381 . S
C525 C33 1.381 . S
C530 C117 1.381 . S
C555 C47 1.381 . S
C560 C131 1.381 . S
C585 C61 1.381 . S
C590 C201 1.381 . S
C615 C215 1.381 . S
C620 C75 1.381 . S
C645 C89 1.381 . S
C650 C173 1.381 . S
C675 C187 1.381 . S
C680 C103 1.381 . S
C705 C191 0.452 . S
C710 C9 0.452 . S
C735 C23 0.451 . S
C740 C205 0.451 . S
C765 C219 0.452 . S
C770 C37 0.452 . S
C795 C177 0.451 . S
C800 C51 0.451 . S
C825 C163 0.451 . S
C830 C65 0.451 . S
C855 C79 0.452 . S
C860 C121 0.452 . S
C885 C93 0.451 . S
C890 C135 0.451 . S
C915 C107 0.452 . S
C920 C149 0.452 . S
C945 C182 1.476 . S
C950 C0 1.476 . S
C975 C14 1.476 . S
C980 C196 1.476 . S
C1005 C28 1.476 . S
C1010 C210 1.476 . S
C1035 C168 1.476 . S
C1040 C42 1.476 . S
C1065 C154 1.476 . S
C1070 C56 1.476 . S
C1095 C112 1.476 . S
C1100 C70 1.476 . S
C1125 C84 1.476 . S
C1130 C126 1.476 . S
C1155 C140 1.476 . S
C1160 C98 1.476 . S
