# Generated by pormake.
# Topology unh, (4)-cn, num edge types: 1
# Building blocks:
#     Node 0, Type 0, BuildingBlock: ESEHIV_clean_sbu_0, # of connection points: 4
#     Node 1, Type 0, BuildingBlock: ESEHIV_clean_sbu_0, # of connection points: 4
#     Node 2, Type 0, BuildingBlock: ESEHIV_clean_sbu_0, # of connection points: 4
#     Node 3, Type 0, BuildingBlock: ESEHIV_clean_sbu_0, # of connection points: 4
#     Node 4, Type 0, BuildingBlock: ESEHIV_clean_sbu_0, # of connection points: 4
#     Node 5, Type 0, BuildingBlock: ESEHIV_clean_sbu_0, # of connection points: 4
#     Edge 6, Type (0, 0), BuildingBlock: UVAHIK_clean_linker_0, # of connection points: 2
#     Edge 7, Type (0, 0), BuildingBlock: UVAHIK_clean_linker_0, # of connection points: 2
#     Edge 8, Type (0, 0), BuildingBlock: UVAHIK_clean_linker_0, # of connection points: 2
#     Edge 9, Type (0, 0), BuildingBlock: UVAHIK_clean_linker_0, # of connection points: 2
#     Edge 10, Type (0, 0), BuildingBlock: UVAHIK_clean_linker_0, # of connection points: 2
#     Edge 11, Type (0, 0), BuildingBlock: UVAHIK_clean_linker_0, # of connection points: 2
#     Edge 12, Type (0, 0), BuildingBlock: UVAHIK_clean_linker_0, # of connection points: 2
#     Edge 13, Type (0, 0), BuildingBlock: UVAHIK_clean_linker_0, # of connection points: 2
#     Edge 14, Type (0, 0), BuildingBlock: UVAHIK_clean_linker_0, # of connection points: 2
#     Edge 15, Type (0, 0), BuildingBlock: UVAHIK_clean_linker_0, # of connection points: 2
#     Edge 16, Type (0, 0), BuildingBlock: UVAHIK_clean_linker_0, # of connection points: 2
#     Edge 17, Type (0, 0), BuildingBlock: UVAHIK_clean_linker_0, # of connection points: 2
# Relax obj value: 0.010
# Max RMSD: 0.159
# Mean RMSD: 0.159
data_MOF--net-unh--node1-ESEHIV_clean_sbu_0--edge1-UVAHIK_clean_linker_0
_symmetry_space_group_name_H-M    P1
_symmetry_Int_Tables_number       1
_symmetry_cell_setting            triclinic
loop_
_symmetry_equiv_pos_as_xyz
'x, y, z'
_cell_length_a     63.339853
_cell_length_b     63.115027
_cell_length_c     26.399447
_cell_angle_alpha  89.828791
_cell_angle_beta   90.270343
_cell_angle_gamma 120.0491
loop_
_atom_site_label
_atom_site_type_symbol
_atom_site_fract_x
_atom_site_fract_y
_atom_site_fract_z
_atom_type_partial_charge
Cu0 Cu 0.1743 0.5741 0.09361 0.0
N1 N 0.15645 0.55447 0.03885 0.0
N2 N 0.12701 0.53538 0.98068 0.0
C3 C 0.1347 0.55046 1.02135 0.0
C4 C 0.14467 0.52973 0.97258 0.0
C5 C 0.16274 0.5415 1.00847 0.0
O6 O 0.15123 0.57726 0.13714 0.0
C7 C 0.20449 0.62623 0.07973 0.0
O8 O 0.19066 0.6283 0.114 0.0
H9 H 0.12495 0.55875 0.03776 0.0
H10 H 0.17931 0.54064 1.01228 0.0
N11 N 0.18809 0.55838 0.12961 0.0
N12 N 0.21391 0.55136 0.17503 0.0
C13 C 0.21102 0.56795 0.14781 0.0
C14 C 0.17616 0.53501 0.14552 0.0
C15 C 0.19198 0.53062 0.17351 0.0
C16 C 0.15314 0.57857 0.18522 0.0
O17 O 0.17275 0.58046 0.20675 0.0
H18 H 0.22504 0.58686 0.14245 0.0
H19 H 0.15713 0.52217 0.13785 0.0
O20 O 0.20027 0.60502 0.06693 0.0
H21 H 0.14446 0.51769 0.94325 0.0
H22 H 0.18766 0.51343 0.19121 0.0
Cu23 Cu 0.60533 0.17618 0.26754 0.0
N24 N 0.57843 0.15721 0.22557 0.0
N25 N 0.55485 0.1263 0.17342 0.0
C26 C 0.573 0.135 0.20806 0.0
C27 C 0.54845 0.14367 0.16915 0.0
C28 C 0.56295 0.16269 0.2016 0.0
O29 O 0.60872 0.15287 0.31084 0.0
C30 C 0.63164 0.20465 0.1831 0.0
O31 O 0.61338 0.18889 0.15495 0.0
H32 H 0.58314 0.12601 0.2185 0.0
H33 H 0.56293 0.17971 0.20548 0.0
N34 N 0.60264 0.19873 0.30855 0.0
N35 N 0.62208 0.23216 0.35715 0.0
C36 C 0.61864 0.20975 0.34669 0.0
C37 C 0.59544 0.21468 0.29461 0.0
C38 C 0.60736 0.2353 0.32465 0.0
C39 C 0.59511 0.14532 0.34991 0.0
O40 O 0.58109 0.15456 0.3602 0.0
H41 H 0.63029 0.20308 0.36102 0.0
H42 H 0.58504 0.21305 0.26084 0.0
O43 O 0.63385 0.1985 0.22799 0.0
H44 H 0.53469 0.14294 0.1436 0.0
H45 H 0.6071 0.25219 0.3195 0.0
Cu46 Cu 0.47798 0.6014 0.44477 0.0
N47 N 0.4903 0.5957 0.38492 0.0
N48 N 0.50018 0.57711 0.32489 0.0
C49 C 0.49376 0.57677 0.3739 0.0
C50 C 0.50099 0.5972 0.30472 0.0
C51 C 0.4948 0.60848 0.3416 0.0
O52 O 0.48708 0.58847 0.5027 0.0
C53 C 0.42988 0.57182 0.40523 0.0
O54 O 0.43918 0.55976 0.38306 0.0
H55 H 0.49049 0.56244 0.40063 0.0
H56 H 0.49299 0.62452 0.33679 0.0
N57 N 0.4923 0.63508 0.45616 0.0
N58 N 0.49918 0.67063 0.48929 0.0
C59 C 0.48445 0.64603 0.4888 0.0
C60 C 0.51278 0.6533 0.43557 0.0
C61 C 0.51699 0.67524 0.45569 0.0
C62 C 0.47924 0.5661 0.51355 0.0
O63 O 0.46211 0.54892 0.48538 0.0
H64 H 0.46818 0.63611 0.51154 0.0
H65 H 0.52406 0.65081 0.40837 0.0
O66 O 0.44301 0.58888 0.43627 0.0
H67 H 0.50544 0.60326 0.26587 0.0
H68 H 0.53231 0.69312 0.44709 0.0
Cu69 Cu 0.8871 0.45924 0.58648 0.0
N70 N 0.90506 0.47948 0.53273 0.0
N71 N 0.93464 0.49976 0.47593 0.0
C72 C 0.92767 0.48537 0.51769 0.0
C73 C 0.91564 0.50302 0.46459 0.0
C74 C 0.89748 0.49051 0.49963 0.0
O75 O 0.91014 0.45816 0.6345 0.0
C76 C 0.84966 0.40879 0.58376 0.0
O77 O 0.85299 0.40898 0.63295 0.0
H78 H 0.93851 0.47874 0.53633 0.0
H79 H 0.87987 0.48937 0.50076 0.0
N80 N 0.86912 0.4721 0.61598 0.0
N81 N 0.83744 0.47461 0.64562 0.0
C82 C 0.84559 0.45957 0.63056 0.0
C83 C 0.87612 0.49588 0.62222 0.0
C84 C 0.85659 0.49749 0.64042 0.0
C85 C 0.90989 0.46163 0.68198 0.0
O86 O 0.892 0.46385 0.70117 0.0
H87 H 0.83434 0.43988 0.62827 0.0
H88 H 0.89398 0.51097 0.61288 0.0
O89 O 0.8636 0.42774 0.55791 0.0
H90 H 0.91493 0.5138 0.43337 0.0
H91 H 0.85644 0.5142 0.6488 0.0
Cu92 Cu 0.45908 0.88744 0.76986 0.0
N93 N 0.45938 0.90308 0.70957 0.0
N94 N 0.47344 0.92971 0.64525 0.0
C95 C 0.47715 0.92515 0.69354 0.0
C96 C 0.45248 0.90977 0.6305 0.0
C97 C 0.44385 0.89339 0.67028 0.0
O98 O 0.47942 0.91334 0.81739 0.0
C99 C 0.47207 0.84909 0.77769 0.0
O100 O 0.46587 0.8464 0.82569 0.0
H101 H 0.49307 0.93708 0.71598 0.0
H102 H 0.42785 0.87532 0.67005 0.0
N103 N 0.4271 0.87035 0.79475 0.0
N104 N 0.39242 0.84252 0.83201 0.0
C105 C 0.41427 0.84736 0.81334 0.0
C106 C 0.4128 0.88022 0.8014 0.0
C107 C 0.39147 0.86318 0.82429 0.0
C108 C 0.47709 0.91141 0.86532 0.0
O109 O 0.46224 0.88994 0.88542 0.0
H110 H 0.42106 0.83471 0.81465 0.0
H111 H 0.41783 0.89877 0.79123 0.0
O112 O 0.47111 0.86552 0.75138 0.0
H113 H 0.44418 0.90708 0.59339 0.0
H114 H 0.37649 0.8659 0.83465 0.0
Cu115 Cu 0.60447 0.44685 0.96396 0.0
N116 N 0.61017 0.47755 0.94244 0.0
N117 N 0.60116 0.50191 0.89634 0.0
C118 C 0.59925 0.47968 0.90048 0.0
C119 C 0.61422 0.51445 0.93744 0.0
C120 C 0.61957 0.49928 0.9661 0.0
O121 O 0.57263 0.43335 0.99627 0.0
C122 C 0.62751 0.44425 0.88097 0.0
O123 O 0.6423 0.46623 0.89886 0.0
H124 H 0.5891 0.46461 0.87467 0.0
H125 H 0.62828 0.50331 1.00291 0.0
N126 N 0.62727 0.44642 1.00878 0.0
N127 N 0.64596 0.42891 0.04879 0.0
C128 C 0.63068 0.42703 1.01104 0.0
C129 C 0.64102 0.46141 0.04638 0.0
C130 C 0.65255 0.45058 0.07129 0.0
C131 C 0.56981 0.42918 0.04376 0.0
O132 O 0.58565 0.42545 0.06865 0.0
H133 H 0.62101 0.41119 0.9868 0.0
H134 H 0.64193 0.47847 0.05616 0.0
O135 O 0.60738 0.43068 0.90366 0.0
H136 H 0.61832 0.53271 0.94779 0.0
H137 H 0.66448 0.45793 0.10386 0.0
C138 C 0.10328 0.51968 0.90101 0.0
C139 C 0.10476 0.52708 0.95176 0.0
C140 C 0.08176 0.51153 0.873 0.0
C141 C 1.0241 0.51337 0.86981 0.0
H142 H 1.00339 0.45933 0.77589 0.0
C143 C 0.9312 0.47114 0.76632 0.0
C144 C 0.93088 0.46583 0.71451 0.0
C145 C 0.95178 0.47726 0.79622 0.0
C146 C 1.00901 0.47458 0.8016 0.0
H147 H 0.0844 0.53133 1.01281 0.0
H148 H 0.04689 0.51706 0.96411 0.0
H149 H 0.04037 0.47281 0.82611 0.0
H150 H 0.95189 0.46223 0.65392 0.0
H151 H 0.98779 0.47297 0.70605 0.0
H152 H 0.99279 0.51519 0.84524 0.0
C153 C 0.06254 0.51792 0.94567 0.0
C154 C 1.03027 0.48235 0.83042 0.0
C155 C 0.0841 0.52613 0.97368 0.0
C156 C 0.95144 0.46613 0.6937 0.0
C157 C 0.97203 0.47222 0.72368 0.0
C158 C 1.00284 0.50558 0.84108 0.0
C159 C 0.06107 0.5105 0.89492 0.0
C160 C 0.03816 0.50191 0.86482 0.0
C161 C 0.9726 0.47822 0.77518 0.0
C162 C 0.99503 0.48612 0.80648 0.0
H163 H 0.11889 0.52053 0.88251 0.0
H164 H 0.08151 0.50641 0.83379 0.0
H165 H 1.02978 0.52874 0.89522 0.0
H166 H 0.91569 0.47101 0.78374 0.0
H167 H 0.95139 0.48134 0.83591 0.0
C168 C 0.48867 0.93201 0.95049 0.0
C169 C 0.48817 0.93375 0.8974 0.0
C170 C 0.49693 0.9529 0.98084 0.0
C171 C 0.50139 1.01284 0.98168 0.0
H172 H 0.54808 0.02875 0.0908 0.0
C173 C 0.53984 0.1038 0.09253 0.0
C174 C 0.54618 0.10429 0.14373 0.0
C175 C 0.53287 0.08293 0.06295 0.0
C176 C 0.53468 0.02443 0.06113 0.0
H177 H 0.49641 0.95896 0.83465 0.0
H178 H 0.51038 0.99524 0.88768 0.0
H179 H 0.53625 0.99254 0.03898 0.0
H180 H 0.54945 0.08303 0.2045 0.0
H181 H 0.53635 0.04625 0.15383 0.0
H182 H 0.499 0.04402 1.0044 0.0
C183 C 0.50446 0.97772 0.90573 0.0
C184 C 0.52805 1.0037 0.03121 0.0
C185 C 0.49662 0.95694 0.87538 0.0
C186 C 0.5449 0.08325 0.16498 0.0
C187 C 0.53755 0.06221 0.13568 0.0
C188 C 0.50768 0.03331 1.01207 0.0
C189 C 0.50445 0.9759 0.9588 0.0
C190 C 0.51146 0.99779 0.99095 0.0
C191 C 0.53166 0.06178 0.084 0.0
C192 C 0.52455 0.03955 0.05213 0.0
H193 H 0.48229 0.91444 0.96866 0.0
H194 H 0.49666 0.95094 1.02165 0.0
H195 H 0.48827 1.00852 0.95136 0.0
H196 H 0.54101 0.11987 0.07491 0.0
H197 H 0.52901 0.08366 1.02321 0.0
C198 C 0.50124 0.55662 0.24558 0.0
C199 C 0.50384 0.55909 0.29859 0.0
C200 C 0.505 0.53942 0.21991 0.0
C201 C 0.53558 0.50274 0.23322 0.0
H202 H 0.4963 0.4684 0.11592 0.0
C203 C 0.55251 0.43354 0.12574 0.0
C204 C 0.55411 0.43615 0.07273 0.0
C205 C 0.54265 0.44501 0.1547 0.0
C206 C 0.50751 0.47792 0.14845 0.0
H207 H 0.51238 0.54502 0.36593 0.0
H208 H 0.51851 0.51476 0.32131 0.0
H209 H 0.48682 0.49552 0.16414 0.0
H210 H 0.54496 0.45159 1.00846 0.0
H211 H 0.52782 0.47156 0.05891 0.0
H212 H 0.55648 0.48546 0.21722 0.0
C213 C 0.51382 0.52639 0.29949 0.0
C214 C 0.50212 0.49353 0.1761 0.0
C215 C 0.51007 0.54362 0.32522 0.0
C216 C 0.54396 0.44906 0.04916 0.0
C217 C 0.53412 0.46057 0.07819 0.0
C218 C 0.54094 0.48712 0.20567 0.0
C219 C 0.51143 0.52411 0.24643 0.0
C220 C 0.51624 0.50637 0.21857 0.0
C221 C 0.53413 0.45941 0.13146 0.0
C222 C 0.52713 0.47465 0.16263 0.0
H223 H 0.49613 0.56785 0.22364 0.0
H224 H 0.50327 0.53847 0.17904 0.0
H225 H 0.54713 0.51258 0.26512 0.0
H226 H 0.55997 0.4236 0.1452 0.0
H227 H 0.54243 0.44322 0.19554 0.0
C228 C 0.95822 0.51455 0.39636 0.0
C229 C 0.95726 0.50918 0.44834 0.0
C230 C 0.98005 0.52368 0.36949 0.0
C231 C 0.04084 0.52845 0.37451 0.0
H232 H 0.05648 0.57714 0.26946 0.0
C233 C 0.13312 0.57314 0.26983 0.0
C234 C 0.13219 0.57483 0.21681 0.0
C235 C 0.11256 0.56703 0.29938 0.0
C236 C 0.0523 0.56342 0.29844 0.0
H237 H 0.97875 0.50962 0.51287 0.0
H238 H 1.0169 0.52574 0.46617 0.0
H239 H 1.01925 0.56267 0.31876 0.0
H240 H 0.10903 0.57221 0.15352 0.0
H241 H 0.0732 0.5616 0.20509 0.0
H242 H 0.07388 0.52919 0.35412 0.0
C243 C 1.00063 0.52247 0.44592 0.0
C244 C 1.03092 0.55507 0.32668 0.0
C245 C 0.97874 0.51323 0.47277 0.0
C246 C 0.11043 0.57111 0.19424 0.0
C247 C 0.08988 0.56509 0.22385 0.0
C248 C 0.06226 0.53687 0.34642 0.0
C249 C 1.00159 0.52781 0.39387 0.0
C250 C 1.0248 0.53733 0.36489 0.0
C251 C 0.09057 0.56256 0.27671 0.0
C252 C 0.0682 0.55436 0.30782 0.0
H253 H 0.94198 0.51128 0.37608 0.0
H254 H 0.97992 0.52709 0.3293 0.0
H255 H 0.03659 0.51451 0.403 0.0
H256 H 0.14958 0.57595 0.28856 0.0
H257 H 0.11384 0.56562 0.34005 0.0
C258 C 0.59002 0.1034 0.35708 0.0
C259 C 0.59214 0.12436 0.38038 0.0
C260 C 0.58161 0.08164 0.38481 0.0
C261 C 0.5708 0.05537 0.51385 0.0
H262 H 0.51243 1.00102 0.45633 0.0
C263 C 0.50279 0.974 0.63687 0.0
C264 C 0.48934 0.95072 0.61482 0.0
C265 C 0.51793 0.99445 0.60721 0.0
C266 C 0.52897 1.01571 0.47277 0.0
H267 H 0.58872 0.1396 0.45117 0.0
H268 H 0.57496 0.10204 0.49985 0.0
H269 H 0.5363 0.03787 0.40628 0.0
H270 H 0.48189 0.93045 0.54471 0.0
H271 H 0.50879 0.96583 0.49314 0.0
H272 H 0.56367 0.03336 0.58028 0.0
C273 C 0.57951 0.10221 0.46028 0.0
C274 C 0.54266 0.0369 0.44392 0.0
C275 C 0.58736 0.1237 0.43242 0.0
C276 C 0.4917 0.94824 0.5626 0.0
C277 C 0.50712 0.9686 0.53304 0.0
C278 C 0.55734 0.03404 0.54248 0.0
C279 C 0.57574 0.08072 0.43645 0.0
C280 C 0.56343 0.05713 0.4645 0.0
C281 C 0.52032 0.99209 0.55477 0.0
C282 C 0.53589 1.01408 0.52279 0.0
H283 H 0.59327 0.10335 0.31684 0.0
H284 H 0.57893 0.06534 0.36556 0.0
H285 H 0.58684 0.07065 0.53055 0.0
H286 H 0.50115 0.97649 0.67693 0.0
H287 H 0.52731 1.0122 0.62538 0.0
C288 C 0.56863 0.49151 0.83232 0.0
C289 C 0.58922 0.50925 0.859 0.0
C290 C 0.5571 0.49834 0.79588 0.0
C291 C 0.54889 0.54956 0.75333 0.0
H292 H 0.52711 0.5121 0.62878 0.0
C293 C 0.51012 0.57831 0.58375 0.0
C294 C 0.49078 0.55975 0.55567 0.0
C295 C 0.52197 0.57252 0.62157 0.0
C296 C 0.53274 0.52257 0.66359 0.0
H297 H 0.61354 0.54828 0.86807 0.0
H298 H 0.59324 0.56025 0.80437 0.0
H299 H 0.54856 0.50188 0.69232 0.0
H300 H 0.46847 0.52045 0.54634 0.0
H301 H 0.48887 0.51032 0.6128 0.0
H302 H 0.53292 0.57017 0.72463 0.0
C303 C 0.58604 0.54097 0.81205 0.0
C304 C 0.54513 0.51674 0.70004 0.0
C305 C 0.59769 0.53412 0.84858 0.0
C306 C 0.48332 0.53522 0.56705 0.0
C307 C 0.49517 0.52942 0.60496 0.0
C308 C 0.53641 0.55536 0.71686 0.0
C309 C 0.56568 0.52312 0.78499 0.0
C310 C 0.55326 0.53006 0.74553 0.0
C311 C 0.51481 0.548 0.63245 0.0
C312 C 0.52807 0.54187 0.67155 0.0
H313 H 0.56102 0.47221 0.83996 0.0
H314 H 0.54115 0.4841 0.77668 0.0
H315 H 0.55462 0.56001 0.78816 0.0
H316 H 0.51644 0.59742 0.576 0.0
H317 H 0.53717 0.58734 0.64142 0.0
C318 C 0.23362 0.54105 0.24456 0.0
C319 C 0.23556 0.5549 0.20115 0.0
C320 C 0.25449 0.54381 0.26908 0.0
C321 C 0.31893 0.56334 0.24611 0.0
H322 H 0.32356 0.56368 0.39273 0.0
C323 C 0.39326 0.55189 0.34813 0.0
C324 C 0.40584 0.5681 0.38814 0.0
C325 C 0.37215 0.55038 0.32756 0.0
C326 C 0.32259 0.56372 0.35176 0.0
H327 H 0.26109 0.58269 0.14984 0.0
H328 H 0.29759 0.58753 0.19263 0.0
H329 H 0.28795 0.56211 0.35232 0.0
H330 H 0.40542 0.59479 0.43909 0.0
H331 H 0.36836 0.59192 0.40343 0.0
H332 H 0.35351 0.56495 0.24543 0.0
C333 C 0.27985 0.57445 0.20756 0.0
C334 C 0.30211 0.56264 0.3286 0.0
C335 C 0.25894 0.57184 0.18328 0.0
C336 C 0.3962 0.58208 0.40837 0.0
C337 C 0.37493 0.58042 0.38796 0.0
C338 C 0.33928 0.56421 0.26924 0.0
C339 C 0.27787 0.56037 0.25064 0.0
C340 C 0.3 0.56237 0.27546 0.0
C341 C 0.36293 0.5649 0.34662 0.0
C342 C 0.34133 0.56429 0.32235 0.0
H343 H 0.21593 0.52807 0.25977 0.0
H344 H 0.25227 0.53255 0.30189 0.0
H345 H 0.31781 0.56295 0.20514 0.0
H346 H 0.40006 0.54079 0.3316 0.0
H347 H 0.36313 0.53792 0.29634 0.0
C348 C 0.65029 0.24483 0.43011 0.0
C349 C 0.64262 0.25079 0.38495 0.0
C350 C 0.67213 0.26182 0.45363 0.0
C351 C 0.73191 0.3139 0.42294 0.0
H352 H 0.73843 0.32663 0.56737 0.0
C353 C 0.82063 0.39144 0.51049 0.0
C354 C 0.82739 0.38864 0.5598 0.0
C355 C 0.79832 0.3739 0.48971 0.0
C356 C 0.73708 0.323 0.52708 0.0
H357 H 0.65168 0.27936 0.32929 0.0
H358 H 0.68988 0.30905 0.37023 0.0
H359 H 0.69851 0.29811 0.53146 0.0
H360 H 0.81626 0.36463 0.62517 0.0
H361 H 0.77768 0.33355 0.58826 0.0
H362 H 0.77039 0.33815 0.41828 0.0
C363 C 0.67892 0.29124 0.38757 0.0
C364 C 0.71413 0.30676 0.50651 0.0
C365 C 0.65691 0.27436 0.36447 0.0
C366 C 0.81161 0.3674 0.58714 0.0
C367 C 0.78934 0.34969 0.56611 0.0
C368 C 0.75489 0.32987 0.44351 0.0
C369 C 0.68696 0.28502 0.43196 0.0
C370 C 0.71126 0.30222 0.45415 0.0
C371 C 0.78219 0.35288 0.51737 0.0
C372 C 0.75781 0.33485 0.49584 0.0
H373 H 0.63963 0.22674 0.44645 0.0
H374 H 0.6779 0.25645 0.48764 0.0
H375 H 0.73036 0.31039 0.38256 0.0
H376 H 0.83221 0.40765 0.4884 0.0
H377 H 0.79342 0.37732 0.45248 0.0
C378 C 0.4718 0.80906 0.77466 0.0
C379 C 0.47773 0.83158 0.75215 0.0
C380 C 0.47487 0.79161 0.74795 0.0
C381 C 0.48094 0.77483 0.61585 0.0
H382 H 0.50027 0.73209 0.68138 0.0
C383 C 0.50594 0.71242 0.50232 0.0
C384 C 0.49672 0.68829 0.51966 0.0
C385 C 0.5037 0.72961 0.53165 0.0
C386 C 0.49465 0.74375 0.66263 0.0
H387 H 0.49266 0.85385 0.68476 0.0
H388 H 0.49868 0.82394 0.63904 0.0
H389 H 0.49714 0.76295 0.73125 0.0
H390 H 0.4782 0.66349 0.582 0.0
H391 H 0.47423 0.69352 0.63322 0.0
H392 H 0.47873 0.75584 0.54719 0.0
C393 C 0.49093 0.81931 0.67667 0.0
C394 C 0.49281 0.76145 0.69123 0.0
C395 C 0.48766 0.8366 0.70312 0.0
C396 C 0.48528 0.68183 0.56726 0.0
C397 C 0.48323 0.69911 0.59685 0.0
C398 C 0.48295 0.7573 0.58728 0.0
C399 C 0.48412 0.79635 0.69821 0.0
C400 C 0.48602 0.77732 0.66819 0.0
C401 C 0.49234 0.7232 0.57931 0.0
C402 C 0.48989 0.74159 0.61022 0.0
H403 H 0.46398 0.80454 0.81226 0.0
H404 H 0.46923 0.7741 0.76573 0.0
H405 H 0.47508 0.78624 0.59685 0.0
H406 H 0.51466 0.71798 0.46571 0.0
H407 H 0.51111 0.74806 0.51717 0.0
C408 C 0.64445 0.41876 0.84948 0.0
C409 C 0.63668 0.43566 0.83944 0.0
C410 C 0.66221 0.4182 0.81882 0.0
C411 C 0.71487 0.46338 0.74897 0.0
H412 H 0.72403 0.4097 0.70751 0.0
C413 C 0.80312 0.48264 0.64952 0.0
C414 C 0.81305 0.46773 0.66137 0.0
C415 C 0.77963 0.47623 0.66531 0.0
C416 C 0.72187 0.42491 0.71933 0.0
H417 H 0.63949 0.46353 0.78761 0.0
H418 H 0.66971 0.46199 0.73321 0.0
H419 H 0.68486 0.40111 0.7432 0.0
H420 H 0.80609 0.43427 0.69873 0.0
H421 H 0.76536 0.42342 0.72806 0.0
H422 H 0.75184 0.48722 0.72779 0.0
C423 C 0.66252 0.44946 0.76495 0.0
C424 C 0.69935 0.41994 0.73946 0.0
C425 C 0.64497 0.45011 0.79562 0.0
C426 C 0.79883 0.44604 0.68884 0.0
C427 C 0.77542 0.43978 0.70538 0.0
C428 C 0.73732 0.46832 0.72957 0.0
C429 C 0.67241 0.4346 0.77796 0.0
C430 C 0.6956 0.43918 0.75424 0.0
C431 C 0.76555 0.45492 0.69423 0.0
C432 C 0.74121 0.44922 0.71425 0.0
H433 H 0.63877 0.4079 0.88384 0.0
H434 H 0.66952 0.40659 0.82987 0.0
H435 H 0.71283 0.47861 0.7613 0.0
H436 H 0.81344 0.49918 0.62748 0.0
H437 H 0.77252 0.48805 0.65469 0.0
C438 C 0.35875 0.82165 0.89364 0.0
C439 C 0.37442 0.82055 0.85746 0.0
C440 C 0.34123 0.80048 0.91828 0.0
C441 C 0.30587 0.73315 0.90626 0.0
H442 H 0.29402 0.7354 0.04959 0.0
C443 C 0.23972 0.64618 1.01922 0.0
C444 C 0.22468 0.64836 0.05542 0.0
C445 C 0.25853 0.66696 0.99575 0.0
C446 C 0.29687 0.73449 1.00943 0.0
H447 H 0.38378 0.79612 0.81889 0.0
H448 H 0.35325 0.75912 0.86216 0.0
H449 H 0.32583 0.7718 1.00752 0.0
H450 H 0.21779 0.67427 0.09532 0.0
H451 H 0.25035 0.71044 0.05401 0.0
H452 H 0.27676 0.69592 0.90799 0.0
C453 C 0.35448 0.77643 0.8712 0.0
C454 C 0.31517 0.75539 0.98529 0.0
C455 C 0.37214 0.79767 0.84672 0.0
C456 C 0.22903 0.67188 0.06773 0.0
C457 C 0.24784 0.69267 0.04422 0.0
C458 C 0.28752 0.71226 0.93037 0.0
C459 C 0.3388 0.77758 0.90734 0.0
C460 C 0.31983 0.75504 0.93333 0.0
C461 C 0.26282 0.6905 1.0078 0.0
C462 C 0.28269 0.71266 0.98226 0.0
H463 H 0.36015 0.83894 0.90344 0.0
H464 H 0.32934 0.80205 0.94547 0.0
H465 H 0.30873 0.73231 0.86607 0.0
H466 H 0.237 0.62838 1.00891 0.0
H467 H 0.26989 0.66456 0.96849 0.0
C468 C 0.65755 0.4081 0.11428 0.0
C469 C 0.6518 0.41032 0.06372 0.0
C470 C 0.66093 0.38861 0.12918 0.0
C471 C 0.6708 0.33891 0.078 0.0
H472 H 0.64061 0.30598 0.20368 0.0
C473 C 0.64205 0.23805 0.11969 0.0
C474 C 0.64347 0.23105 0.16962 0.0
C475 C 0.64828 0.26218 0.10845 0.0
C476 C 0.64954 0.31516 0.16888 0.0
H477 H 0.64643 0.39438 0.98879 0.0
H478 H 0.65164 0.36036 1.01471 0.0
H479 H 0.64156 0.34393 0.18137 0.0
H480 H 0.65376 0.24441 0.24662 0.0
H481 H 0.6647 0.28651 0.2269 0.0
H482 H 0.67799 0.30961 0.0648 0.0
C483 C 0.65376 0.37367 0.04303 0.0
C484 C 0.6501 0.33701 0.15604 0.0
C485 C 0.65042 0.39309 0.0282 0.0
C486 C 0.6526 0.24913 0.20762 0.0
C487 C 0.6586 0.27325 0.19645 0.0
C488 C 0.67012 0.317 0.09072 0.0
C489 C 0.65872 0.3709 0.09387 0.0
C490 C 0.66034 0.34897 0.10995 0.0
C491 C 0.6559 0.27993 0.14694 0.0
C492 C 0.6591 0.30461 0.13592 0.0
H493 H 0.65869 0.42094 0.14272 0.0
H494 H 0.66505 0.38732 0.16853 0.0
H495 H 0.67932 0.34781 0.04272 0.0
H496 H 0.63501 0.22459 0.08958 0.0
H497 H 0.6458 0.26658 0.06999 0.0
loop_
_geom_bond_atom_site_label_1
_geom_bond_atom_site_label_2
_geom_bond_distance
_geom_bond_site_symmetry_2
_ccdc_geom_bond_type
Cu0 N1 1.999 . S
Cu0 O6 1.974 . S
Cu0 N11 1.985 . S
Cu0 O20 1.959 . S
N1 Cu0 1.999 . S
N1 C3 1.263 . S
N1 C5 1.389 1_554 S
N2 C3 1.358 1_556 S
N2 C4 1.400 . S
C3 N1 1.263 . S
C3 N2 1.358 1_554 S
C3 H9 0.930 . S
C4 N2 1.400 . S
C4 C5 1.351 . S
C4 H21 0.930 . S
C5 N1 1.389 1_556 S
C5 C4 1.351 . S
C5 H10 0.930 . S
O6 Cu0 1.974 . S
O6 C16 1.282 . S
C7 O8 1.261 . S
C7 O20 1.251 . S
O8 C7 1.261 . S
H9 C3 0.930 . S
H10 C5 0.930 . S
N11 Cu0 1.985 . S
N11 C13 1.335 . S
N11 C14 1.390 . S
N12 C13 1.345 . S
N12 C15 1.336 . S
C13 N11 1.335 . S
C13 N12 1.345 . S
C13 H18 0.930 . S
C14 N11 1.390 . S
C14 C15 1.346 . S
C14 H19 0.930 . S
C15 N12 1.336 . S
C15 C14 1.346 . S
C15 H22 0.929 . S
C16 O6 1.282 . S
C16 O17 1.216 . S
O17 C16 1.216 . S
H18 C13 0.930 . S
H19 C14 0.930 . S
O20 Cu0 1.959 . S
O20 C7 1.251 . S
H21 C4 0.930 . S
H22 C15 0.929 . S
Cu23 N24 1.999 . S
Cu23 O29 1.974 . S
Cu23 N34 1.985 . S
Cu23 O43 1.959 . S
N24 Cu23 1.999 . S
N24 C26 1.263 . S
N24 C28 1.389 . S
N25 C26 1.358 . S
N25 C27 1.400 . S
C26 N24 1.263 . S
C26 N25 1.358 . S
C26 H32 0.930 . S
C27 N25 1.400 . S
C27 C28 1.351 . S
C27 H44 0.930 . S
C28 N24 1.389 . S
C28 C27 1.351 . S
C28 H33 0.930 . S
O29 Cu23 1.974 . S
O29 C39 1.282 . S
C30 O31 1.261 . S
C30 O43 1.251 . S
O31 C30 1.261 . S
H32 C26 0.930 . S
H33 C28 0.930 . S
N34 Cu23 1.985 . S
N34 C36 1.335 . S
N34 C37 1.390 . S
N35 C36 1.345 . S
N35 C38 1.336 . S
C36 N34 1.335 . S
C36 N35 1.345 . S
C36 H41 0.930 . S
C37 N34 1.390 . S
C37 C38 1.346 . S
C37 H42 0.930 . S
C38 N35 1.336 . S
C38 C37 1.346 . S
C38 H45 0.929 . S
C39 O29 1.282 . S
C39 O40 1.216 . S
O40 C39 1.216 . S
H41 C36 0.930 . S
H42 C37 0.930 . S
O43 Cu23 1.959 . S
O43 C30 1.251 . S
H44 C27 0.930 . S
H45 C38 0.929 . S
Cu46 N47 1.999 . S
Cu46 O52 1.974 . S
Cu46 N57 1.985 . S
Cu46 O66 1.959 . S
N47 Cu46 1.999 . S
N47 C49 1.263 . S
N47 C51 1.389 . S
N48 C49 1.358 . S
N48 C50 1.400 . S
C49 N47 1.263 . S
C49 N48 1.358 . S
C49 H55 0.930 . S
C50 N48 1.400 . S
C50 C51 1.351 . S
C50 H67 0.930 . S
C51 N47 1.389 . S
C51 C50 1.351 . S
C51 H56 0.930 . S
O52 Cu46 1.974 . S
O52 C62 1.282 . S
C53 O54 1.261 . S
C53 O66 1.251 . S
O54 C53 1.261 . S
H55 C49 0.930 . S
H56 C51 0.930 . S
N57 Cu46 1.985 . S
N57 C59 1.335 . S
N57 C60 1.390 . S
N58 C59 1.345 . S
N58 C61 1.336 . S
C59 N57 1.335 . S
C59 N58 1.345 . S
C59 H64 0.930 . S
C60 N57 1.390 . S
C60 C61 1.346 . S
C60 H65 0.930 . S
C61 N58 1.336 . S
C61 C60 1.346 . S
C61 H68 0.929 . S
C62 O52 1.282 . S
C62 O63 1.216 . S
O63 C62 1.216 . S
H64 C59 0.930 . S
H65 C60 0.930 . S
O66 Cu46 1.959 . S
O66 C53 1.251 . S
H67 C50 0.930 . S
H68 C61 0.929 . S
Cu69 N70 1.999 . S
Cu69 O75 1.974 . S
Cu69 N80 1.985 . S
Cu69 O89 1.959 . S
N70 Cu69 1.999 . S
N70 C72 1.263 . S
N70 C74 1.389 . S
N71 C72 1.358 . S
N71 C73 1.400 . S
C72 N70 1.263 . S
C72 N71 1.358 . S
C72 H78 0.930 . S
C73 N71 1.400 . S
C73 C74 1.351 . S
C73 H90 0.930 . S
C74 N70 1.389 . S
C74 C73 1.351 . S
C74 H79 0.930 . S
O75 Cu69 1.974 . S
O75 C85 1.282 . S
C76 O77 1.261 . S
C76 O89 1.251 . S
O77 C76 1.261 . S
H78 C72 0.930 . S
H79 C74 0.930 . S
N80 Cu69 1.985 . S
N80 C82 1.335 . S
N80 C83 1.390 . S
N81 C82 1.345 . S
N81 C84 1.336 . S
C82 N80 1.335 . S
C82 N81 1.345 . S
C82 H87 0.930 . S
C83 N80 1.390 . S
C83 C84 1.346 . S
C83 H88 0.930 . S
C84 N81 1.336 . S
C84 C83 1.346 . S
C84 H91 0.929 . S
C85 O75 1.282 . S
C85 O86 1.216 . S
O86 C85 1.216 . S
H87 C82 0.930 . S
H88 C83 0.930 . S
O89 Cu69 1.959 . S
O89 C76 1.251 . S
H90 C73 0.930 . S
H91 C84 0.929 . S
Cu92 N93 1.999 . S
Cu92 O98 1.974 . S
Cu92 N103 1.985 . S
Cu92 O112 1.959 . S
N93 Cu92 1.999 . S
N93 C95 1.263 . S
N93 C97 1.389 . S
N94 C95 1.358 . S
N94 C96 1.400 . S
C95 N93 1.263 . S
C95 N94 1.358 . S
C95 H101 0.930 . S
C96 N94 1.400 . S
C96 C97 1.351 . S
C96 H113 0.930 . S
C97 N93 1.389 . S
C97 C96 1.351 . S
C97 H102 0.930 . S
O98 Cu92 1.974 . S
O98 C108 1.282 . S
C99 O100 1.261 . S
C99 O112 1.251 . S
O100 C99 1.261 . S
H101 C95 0.930 . S
H102 C97 0.930 . S
N103 Cu92 1.985 . S
N103 C105 1.335 . S
N103 C106 1.390 . S
N104 C105 1.345 . S
N104 C107 1.336 . S
C105 N103 1.335 . S
C105 N104 1.345 . S
C105 H110 0.930 . S
C106 N103 1.390 . S
C106 C107 1.346 . S
C106 H111 0.930 . S
C107 N104 1.336 . S
C107 C106 1.346 . S
C107 H114 0.929 . S
C108 O98 1.282 . S
C108 O109 1.216 . S
O109 C108 1.216 . S
H110 C105 0.930 . S
H111 C106 0.930 . S
O112 Cu92 1.959 . S
O112 C99 1.251 . S
H113 C96 0.930 . S
H114 C107 0.929 . S
Cu115 N116 1.999 . S
Cu115 O121 1.974 . S
Cu115 N126 1.985 . S
Cu115 O135 1.959 . S
N116 Cu115 1.999 . S
N116 C118 1.263 . S
N116 C120 1.389 . S
N117 C118 1.358 . S
N117 C119 1.400 . S
C118 N116 1.263 . S
C118 N117 1.358 . S
C118 H124 0.930 . S
C119 N117 1.400 . S
C119 C120 1.351 . S
C119 H136 0.930 . S
C120 N116 1.389 . S
C120 C119 1.351 . S
C120 H125 0.930 . S
O121 Cu115 1.974 . S
O121 C131 1.282 . S
C122 O123 1.261 . S
C122 O135 1.251 . S
O123 C122 1.261 . S
H124 C118 0.930 . S
H125 C120 0.930 . S
N126 Cu115 1.985 . S
N126 C128 1.335 . S
N126 C129 1.390 1_556 S
N127 C128 1.345 1_554 S
N127 C130 1.336 . S
C128 N126 1.335 . S
C128 N127 1.345 1_556 S
C128 H133 0.930 . S
C129 N126 1.390 1_554 S
C129 C130 1.346 . S
C129 H134 0.930 . S
C130 N127 1.336 . S
C130 C129 1.346 . S
C130 H137 0.929 . S
C131 O121 1.282 . S
C131 O132 1.216 . S
O132 C131 1.216 . S
H133 C128 0.930 . S
H134 C129 0.930 . S
O135 Cu115 1.959 . S
O135 C122 1.251 . S
H136 C119 0.930 . S
H137 C130 0.929 . S
C138 C139 1.349 . S
C138 C140 1.327 . S
C138 H163 0.950 . S
C139 C138 1.349 . S
C139 C155 1.349 . S
C140 C138 1.327 . S
C140 C159 1.429 . S
C140 H164 0.950 . S
C141 C158 1.574 . S
C141 C160 1.368 1_655 S
C141 H165 0.949 . S
H142 C146 0.949 . S
C143 C144 1.349 . S
C143 C145 1.327 . S
C143 H166 0.950 . S
C144 C143 1.349 . S
C144 C156 1.349 . S
C145 C143 1.327 . S
C145 C161 1.429 . S
C145 H167 0.950 . S
C146 H142 0.949 . S
C146 C154 1.574 1_655 S
C146 C162 1.368 . S
H147 C155 0.950 . S
H148 C153 0.950 . S
H149 C154 0.949 . S
H150 C156 0.950 . S
H151 C157 0.950 . S
H152 C158 0.949 . S
C153 H148 0.950 . S
C153 C155 1.327 . S
C153 C159 1.429 . S
C154 C146 1.574 1_455 S
C154 H149 0.949 . S
C154 C160 1.368 . S
C155 C139 1.349 . S
C155 H147 0.950 . S
C155 C153 1.327 . S
C156 C144 1.349 . S
C156 H150 0.950 . S
C156 C157 1.327 . S
C157 H151 0.950 . S
C157 C156 1.327 . S
C157 C161 1.429 . S
C158 C141 1.574 . S
C158 H152 0.949 . S
C158 C162 1.368 . S
C159 C140 1.429 . S
C159 C153 1.429 . S
C159 C160 1.523 . S
C160 C141 1.368 1_455 S
C160 C154 1.368 . S
C160 C159 1.523 . S
C161 C145 1.429 . S
C161 C157 1.429 . S
C161 C162 1.523 . S
C162 C146 1.368 . S
C162 C158 1.368 . S
C162 C161 1.523 . S
H163 C138 0.950 . S
H164 C140 0.950 . S
H165 C141 0.949 . S
H166 C143 0.950 . S
H167 C145 0.950 . S
C168 C169 1.349 . S
C168 C170 1.327 . S
C168 H193 0.950 . S
C169 C168 1.349 . S
C169 C185 1.349 . S
C170 C168 1.327 . S
C170 C189 1.429 . S
C170 H194 0.950 . S
C171 C188 1.574 1_566 S
C171 C190 1.368 . S
C171 H195 0.949 . S
H172 C176 0.949 . S
C173 C174 1.349 . S
C173 C175 1.327 . S
C173 H196 0.950 . S
C174 C173 1.349 . S
C174 C186 1.349 . S
C175 C173 1.327 . S
C175 C191 1.429 . S
C175 H197 0.950 . S
C176 H172 0.949 . S
C176 C184 1.574 1_544 S
C176 C192 1.368 . S
H177 C185 0.950 . S
H178 C183 0.950 . S
H179 C184 0.949 . S
H180 C186 0.950 . S
H181 C187 0.950 . S
H182 C188 0.949 . S
C183 H178 0.950 . S
C183 C185 1.327 . S
C183 C189 1.429 . S
C184 C176 1.574 1_566 S
C184 H179 0.949 . S
C184 C190 1.368 . S
C185 C169 1.349 . S
C185 H177 0.950 . S
C185 C183 1.327 . S
C186 C174 1.349 . S
C186 H180 0.950 . S
C186 C187 1.327 . S
C187 H181 0.950 . S
C187 C186 1.327 . S
C187 C191 1.429 . S
C188 C171 1.574 1_544 S
C188 H182 0.949 . S
C188 C192 1.368 . S
C189 C170 1.429 . S
C189 C183 1.429 . S
C189 C190 1.523 . S
C190 C171 1.368 . S
C190 C184 1.368 . S
C190 C189 1.523 . S
C191 C175 1.429 . S
C191 C187 1.429 . S
C191 C192 1.523 . S
C192 C176 1.368 . S
C192 C188 1.368 . S
C192 C191 1.523 . S
H193 C168 0.950 . S
H194 C170 0.950 . S
H195 C171 0.949 . S
H196 C173 0.950 . S
H197 C175 0.950 . S
C198 C199 1.349 . S
C198 C200 1.327 . S
C198 H223 0.950 . S
C199 C198 1.349 . S
C199 C215 1.349 . S
C200 C198 1.327 . S
C200 C219 1.429 . S
C200 H224 0.950 . S
C201 C218 1.574 . S
C201 C220 1.368 . S
C201 H225 0.949 . S
H202 C206 0.949 . S
C203 C204 1.349 . S
C203 C205 1.327 . S
C203 H226 0.950 . S
C204 C203 1.349 . S
C204 C216 1.349 . S
C205 C203 1.327 . S
C205 C221 1.429 . S
C205 H227 0.950 . S
C206 H202 0.949 . S
C206 C214 1.574 . S
C206 C222 1.368 . S
H207 C215 0.950 . S
H208 C213 0.950 . S
H209 C214 0.949 . S
H210 C216 0.950 . S
H211 C217 0.950 . S
H212 C218 0.949 . S
C213 H208 0.950 . S
C213 C215 1.327 . S
C213 C219 1.429 . S
C214 C206 1.574 . S
C214 H209 0.949 . S
C214 C220 1.368 . S
C215 C199 1.349 . S
C215 H207 0.950 . S
C215 C213 1.327 . S
C216 C204 1.349 . S
C216 H210 0.950 . S
C216 C217 1.327 . S
C217 H211 0.950 . S
C217 C216 1.327 . S
C217 C221 1.429 . S
C218 C201 1.574 . S
C218 H212 0.949 . S
C218 C222 1.368 . S
C219 C200 1.429 . S
C219 C213 1.429 . S
C219 C220 1.523 . S
C220 C201 1.368 . S
C220 C214 1.368 . S
C220 C219 1.523 . S
C221 C205 1.429 . S
C221 C217 1.429 . S
C221 C222 1.523 . S
C222 C206 1.368 . S
C222 C218 1.368 . S
C222 C221 1.523 . S
H223 C198 0.950 . S
H224 C200 0.950 . S
H225 C201 0.949 . S
H226 C203 0.950 . S
H227 C205 0.950 . S
C228 C229 1.349 . S
C228 C230 1.327 . S
C228 H253 0.950 . S
C229 C228 1.349 . S
C229 C245 1.349 . S
C230 C228 1.327 . S
C230 C249 1.429 . S
C230 H254 0.950 . S
C231 C248 1.574 . S
C231 C250 1.368 1_455 S
C231 H255 0.949 . S
H232 C236 0.949 . S
C233 C234 1.349 . S
C233 C235 1.327 . S
C233 H256 0.950 . S
C234 C233 1.349 . S
C234 C246 1.349 . S
C235 C233 1.327 . S
C235 C251 1.429 . S
C235 H257 0.950 . S
C236 H232 0.949 . S
C236 C244 1.574 1_455 S
C236 C252 1.368 . S
H237 C245 0.950 . S
H238 C243 0.950 . S
H239 C244 0.949 . S
H240 C246 0.950 . S
H241 C247 0.950 . S
H242 C248 0.949 . S
C243 H238 0.950 . S
C243 C245 1.327 . S
C243 C249 1.429 . S
C244 C236 1.574 1_655 S
C244 H239 0.949 . S
C244 C250 1.368 . S
C245 C229 1.349 . S
C245 H237 0.950 . S
C245 C243 1.327 . S
C246 C234 1.349 . S
C246 H240 0.950 . S
C246 C247 1.327 . S
C247 H241 0.950 . S
C247 C246 1.327 . S
C247 C251 1.429 . S
C248 C231 1.574 . S
C248 H242 0.949 . S
C248 C252 1.368 . S
C249 C230 1.429 . S
C249 C243 1.429 . S
C249 C250 1.523 . S
C250 C231 1.368 1_655 S
C250 C244 1.368 . S
C250 C249 1.523 . S
C251 C235 1.429 . S
C251 C247 1.429 . S
C251 C252 1.523 . S
C252 C236 1.368 . S
C252 C248 1.368 . S
C252 C251 1.523 . S
H253 C228 0.950 . S
H254 C230 0.950 . S
H255 C231 0.949 . S
H256 C233 0.950 . S
H257 C235 0.950 . S
C258 C259 1.349 . S
C258 C260 1.327 . S
C258 H283 0.950 . S
C259 C258 1.349 . S
C259 C275 1.349 . S
C260 C258 1.327 . S
C260 C279 1.429 . S
C260 H284 0.950 . S
C261 C278 1.574 . S
C261 C280 1.368 . S
C261 H285 0.949 . S
H262 C266 0.949 . S
C263 C264 1.349 . S
C263 C265 1.327 . S
C263 H286 0.950 . S
C264 C263 1.349 . S
C264 C276 1.349 . S
C265 C263 1.327 . S
C265 C281 1.429 . S
C265 H287 0.950 . S
C266 H262 0.949 . S
C266 C274 1.574 1_565 S
C266 C282 1.368 . S
H267 C275 0.950 . S
H268 C273 0.950 . S
H269 C274 0.949 . S
H270 C276 0.950 . S
H271 C277 0.950 . S
H272 C278 0.949 . S
C273 H268 0.950 . S
C273 C275 1.327 . S
C273 C279 1.429 . S
C274 C266 1.574 1_545 S
C274 H269 0.949 . S
C274 C280 1.368 . S
C275 C259 1.349 . S
C275 H267 0.950 . S
C275 C273 1.327 . S
C276 C264 1.349 . S
C276 H270 0.950 . S
C276 C277 1.327 . S
C277 H271 0.950 . S
C277 C276 1.327 . S
C277 C281 1.429 . S
C278 C261 1.574 . S
C278 H272 0.949 . S
C278 C282 1.368 1_545 S
C279 C260 1.429 . S
C279 C273 1.429 . S
C279 C280 1.523 . S
C280 C261 1.368 . S
C280 C274 1.368 . S
C280 C279 1.523 . S
C281 C265 1.429 . S
C281 C277 1.429 . S
C281 C282 1.523 . S
C282 C266 1.368 . S
C282 C278 1.368 1_565 S
C282 C281 1.523 . S
H283 C258 0.950 . S
H284 C260 0.950 . S
H285 C261 0.949 . S
H286 C263 0.950 . S
H287 C265 0.950 . S
C288 C289 1.349 . S
C288 C290 1.327 . S
C288 H313 0.950 . S
C289 C288 1.349 . S
C289 C305 1.349 . S
C290 C288 1.327 . S
C290 C309 1.429 . S
C290 H314 0.950 . S
C291 C308 1.574 . S
C291 C310 1.368 . S
C291 H315 0.949 . S
H292 C296 0.949 . S
C293 C294 1.349 . S
C293 C295 1.327 . S
C293 H316 0.950 . S
C294 C293 1.349 . S
C294 C306 1.349 . S
C295 C293 1.327 . S
C295 C311 1.429 . S
C295 H317 0.950 . S
C296 H292 0.949 . S
C296 C304 1.574 . S
C296 C312 1.368 . S
H297 C305 0.950 . S
H298 C303 0.950 . S
H299 C304 0.949 . S
H300 C306 0.950 . S
H301 C307 0.950 . S
H302 C308 0.949 . S
C303 H298 0.950 . S
C303 C305 1.327 . S
C303 C309 1.429 . S
C304 C296 1.574 . S
C304 H299 0.949 . S
C304 C310 1.368 . S
C305 C289 1.349 . S
C305 H297 0.950 . S
C305 C303 1.327 . S
C306 C294 1.349 . S
C306 H300 0.950 . S
C306 C307 1.327 . S
C307 H301 0.950 . S
C307 C306 1.327 . S
C307 C311 1.429 . S
C308 C291 1.574 . S
C308 H302 0.949 . S
C308 C312 1.368 . S
C309 C290 1.429 . S
C309 C303 1.429 . S
C309 C310 1.523 . S
C310 C291 1.368 . S
C310 C304 1.368 . S
C310 C309 1.523 . S
C311 C295 1.429 . S
C311 C307 1.429 . S
C311 C312 1.523 . S
C312 C296 1.368 . S
C312 C308 1.368 . S
C312 C311 1.523 . S
H313 C288 0.950 . S
H314 C290 0.950 . S
H315 C291 0.949 . S
H316 C293 0.950 . S
H317 C295 0.950 . S
C318 C319 1.349 . S
C318 C320 1.327 . S
C318 H343 0.950 . S
C319 C318 1.349 . S
C319 C335 1.349 . S
C320 C318 1.327 . S
C320 C339 1.429 . S
C320 H344 0.950 . S
C321 C338 1.574 . S
C321 C340 1.368 . S
C321 H345 0.949 . S
H322 C326 0.949 . S
C323 C324 1.349 . S
C323 C325 1.327 . S
C323 H346 0.950 . S
C324 C323 1.349 . S
C324 C336 1.349 . S
C325 C323 1.327 . S
C325 C341 1.429 . S
C325 H347 0.950 . S
C326 H322 0.949 . S
C326 C334 1.574 . S
C326 C342 1.368 . S
H327 C335 0.950 . S
H328 C333 0.950 . S
H329 C334 0.949 . S
H330 C336 0.950 . S
H331 C337 0.950 . S
H332 C338 0.949 . S
C333 H328 0.950 . S
C333 C335 1.327 . S
C333 C339 1.429 . S
C334 C326 1.574 . S
C334 H329 0.949 . S
C334 C340 1.368 . S
C335 C319 1.349 . S
C335 H327 0.950 . S
C335 C333 1.327 . S
C336 C324 1.349 . S
C336 H330 0.950 . S
C336 C337 1.327 . S
C337 H331 0.950 . S
C337 C336 1.327 . S
C337 C341 1.429 . S
C338 C321 1.574 . S
C338 H332 0.949 . S
C338 C342 1.368 . S
C339 C320 1.429 . S
C339 C333 1.429 . S
C339 C340 1.523 . S
C340 C321 1.368 . S
C340 C334 1.368 . S
C340 C339 1.523 . S
C341 C325 1.429 . S
C341 C337 1.429 . S
C341 C342 1.523 . S
C342 C326 1.368 . S
C342 C338 1.368 . S
C342 C341 1.523 . S
H343 C318 0.950 . S
H344 C320 0.950 . S
H345 C321 0.949 . S
H346 C323 0.950 . S
H347 C325 0.950 . S
C348 C349 1.349 . S
C348 C350 1.327 . S
C348 H373 0.950 . S
C349 C348 1.349 . S
C349 C365 1.349 . S
C350 C348 1.327 . S
C350 C369 1.429 . S
C350 H374 0.950 . S
C351 C368 1.574 . S
C351 C370 1.368 . S
C351 H375 0.949 . S
H352 C356 0.949 . S
C353 C354 1.349 . S
C353 C355 1.327 . S
C353 H376 0.950 . S
C354 C353 1.349 . S
C354 C366 1.349 . S
C355 C353 1.327 . S
C355 C371 1.429 . S
C355 H377 0.950 . S
C356 H352 0.949 . S
C356 C364 1.574 . S
C356 C372 1.368 . S
H357 C365 0.950 . S
H358 C363 0.950 . S
H359 C364 0.949 . S
H360 C366 0.950 . S
H361 C367 0.950 . S
H362 C368 0.949 . S
C363 H358 0.950 . S
C363 C365 1.327 . S
C363 C369 1.429 . S
C364 C356 1.574 . S
C364 H359 0.949 . S
C364 C370 1.368 . S
C365 C349 1.349 . S
C365 H357 0.950 . S
C365 C363 1.327 . S
C366 C354 1.349 . S
C366 H360 0.950 . S
C366 C367 1.327 . S
C367 H361 0.950 . S
C367 C366 1.327 . S
C367 C371 1.429 . S
C368 C351 1.574 . S
C368 H362 0.949 . S
C368 C372 1.368 . S
C369 C350 1.429 . S
C369 C363 1.429 . S
C369 C370 1.523 . S
C370 C351 1.368 . S
C370 C364 1.368 . S
C370 C369 1.523 . S
C371 C355 1.429 . S
C371 C367 1.429 . S
C371 C372 1.523 . S
C372 C356 1.368 . S
C372 C368 1.368 . S
C372 C371 1.523 . S
H373 C348 0.950 . S
H374 C350 0.950 . S
H375 C351 0.949 . S
H376 C353 0.950 . S
H377 C355 0.950 . S
C378 C379 1.349 . S
C378 C380 1.327 . S
C378 H403 0.950 . S
C379 C378 1.349 . S
C379 C395 1.349 . S
C380 C378 1.327 . S
C380 C399 1.429 . S
C380 H404 0.950 . S
C381 C398 1.574 . S
C381 C400 1.368 . S
C381 H405 0.949 . S
H382 C386 0.949 . S
C383 C384 1.349 . S
C383 C385 1.327 . S
C383 H406 0.950 . S
C384 C383 1.349 . S
C384 C396 1.349 . S
C385 C383 1.327 . S
C385 C401 1.429 . S
C385 H407 0.950 . S
C386 H382 0.949 . S
C386 C394 1.574 . S
C386 C402 1.368 . S
H387 C395 0.950 . S
H388 C393 0.950 . S
H389 C394 0.949 . S
H390 C396 0.950 . S
H391 C397 0.950 . S
H392 C398 0.949 . S
C393 H388 0.950 . S
C393 C395 1.327 . S
C393 C399 1.429 . S
C394 C386 1.574 . S
C394 H389 0.949 . S
C394 C400 1.368 . S
C395 C379 1.349 . S
C395 H387 0.950 . S
C395 C393 1.327 . S
C396 C384 1.349 . S
C396 H390 0.950 . S
C396 C397 1.327 . S
C397 H391 0.950 . S
C397 C396 1.327 . S
C397 C401 1.429 . S
C398 C381 1.574 . S
C398 H392 0.949 . S
C398 C402 1.368 . S
C399 C380 1.429 . S
C399 C393 1.429 . S
C399 C400 1.523 . S
C400 C381 1.368 . S
C400 C394 1.368 . S
C400 C399 1.523 . S
C401 C385 1.429 . S
C401 C397 1.429 . S
C401 C402 1.523 . S
C402 C386 1.368 . S
C402 C398 1.368 . S
C402 C401 1.523 . S
H403 C378 0.950 . S
H404 C380 0.950 . S
H405 C381 0.949 . S
H406 C383 0.950 . S
H407 C385 0.950 . S
C408 C409 1.349 . S
C408 C410 1.327 . S
C408 H433 0.950 . S
C409 C408 1.349 . S
C409 C425 1.349 . S
C410 C408 1.327 . S
C410 C429 1.429 . S
C410 H434 0.950 . S
C411 C428 1.574 . S
C411 C430 1.368 . S
C411 H435 0.949 . S
H412 C416 0.949 . S
C413 C414 1.349 . S
C413 C415 1.327 . S
C413 H436 0.950 . S
C414 C413 1.349 . S
C414 C426 1.349 . S
C415 C413 1.327 . S
C415 C431 1.429 . S
C415 H437 0.950 . S
C416 H412 0.949 . S
C416 C424 1.574 . S
C416 C432 1.368 . S
H417 C425 0.950 . S
H418 C423 0.950 . S
H419 C424 0.949 . S
H420 C426 0.950 . S
H421 C427 0.950 . S
H422 C428 0.949 . S
C423 H418 0.950 . S
C423 C425 1.327 . S
C423 C429 1.429 . S
C424 C416 1.574 . S
C424 H419 0.949 . S
C424 C430 1.368 . S
C425 C409 1.349 . S
C425 H417 0.950 . S
C425 C423 1.327 . S
C426 C414 1.349 . S
C426 H420 0.950 . S
C426 C427 1.327 . S
C427 H421 0.950 . S
C427 C426 1.327 . S
C427 C431 1.429 . S
C428 C411 1.574 . S
C428 H422 0.949 . S
C428 C432 1.368 . S
C429 C410 1.429 . S
C429 C423 1.429 . S
C429 C430 1.523 . S
C430 C411 1.368 . S
C430 C424 1.368 . S
C430 C429 1.523 . S
C431 C415 1.429 . S
C431 C427 1.429 . S
C431 C432 1.523 . S
C432 C416 1.368 . S
C432 C428 1.368 . S
C432 C431 1.523 . S
H433 C408 0.950 . S
H434 C410 0.950 . S
H435 C411 0.949 . S
H436 C413 0.950 . S
H437 C415 0.950 . S
C438 C439 1.349 . S
C438 C440 1.327 . S
C438 H463 0.950 . S
C439 C438 1.349 . S
C439 C455 1.349 . S
C440 C438 1.327 . S
C440 C459 1.429 . S
C440 H464 0.950 . S
C441 C458 1.574 . S
C441 C460 1.368 . S
C441 H465 0.949 . S
H442 C446 0.949 . S
C443 C444 1.349 1_556 S
C443 C445 1.327 . S
C443 H466 0.950 . S
C444 C443 1.349 1_554 S
C444 C456 1.349 . S
C445 C443 1.327 . S
C445 C461 1.429 . S
C445 H467 0.950 . S
C446 H442 0.949 . S
C446 C454 1.574 . S
C446 C462 1.368 . S
H447 C455 0.950 . S
H448 C453 0.950 . S
H449 C454 0.949 . S
H450 C456 0.950 . S
H451 C457 0.950 . S
H452 C458 0.949 . S
C453 H448 0.950 . S
C453 C455 1.327 . S
C453 C459 1.429 . S
C454 C446 1.574 . S
C454 H449 0.949 . S
C454 C460 1.368 . S
C455 C439 1.349 . S
C455 H447 0.950 . S
C455 C453 1.327 . S
C456 C444 1.349 . S
C456 H450 0.950 . S
C456 C457 1.327 . S
C457 H451 0.950 . S
C457 C456 1.327 . S
C457 C461 1.429 1_554 S
C458 C441 1.574 . S
C458 H452 0.949 . S
C458 C462 1.368 . S
C459 C440 1.429 . S
C459 C453 1.429 . S
C459 C460 1.523 . S
C460 C441 1.368 . S
C460 C454 1.368 . S
C460 C459 1.523 . S
C461 C445 1.429 . S
C461 C457 1.429 1_556 S
C461 C462 1.523 . S
C462 C446 1.368 . S
C462 C458 1.368 . S
C462 C461 1.523 . S
H463 C438 0.950 . S
H464 C440 0.950 . S
H465 C441 0.949 . S
H466 C443 0.950 . S
H467 C445 0.950 . S
C468 C469 1.349 . S
C468 C470 1.327 . S
C468 H493 0.950 . S
C469 C468 1.349 . S
C469 C485 1.349 1_554 S
C470 C468 1.327 . S
C470 C489 1.429 . S
C470 H494 0.950 . S
C471 C488 1.574 . S
C471 C490 1.368 . S
C471 H495 0.949 . S
H472 C476 0.949 . S
C473 C474 1.349 . S
C473 C475 1.327 . S
C473 H496 0.950 . S
C474 C473 1.349 . S
C474 C486 1.349 . S
C475 C473 1.327 . S
C475 C491 1.429 . S
C475 H497 0.950 . S
C476 H472 0.949 . S
C476 C484 1.574 . S
C476 C492 1.368 . S
H477 C485 0.950 . S
H478 C483 0.950 1_556 S
H479 C484 0.949 . S
H480 C486 0.950 . S
H481 C487 0.950 . S
H482 C488 0.949 . S
C483 H478 0.950 1_554 S
C483 C485 1.327 1_554 S
C483 C489 1.429 . S
C484 C476 1.574 . S
C484 H479 0.949 . S
C484 C490 1.368 . S
C485 C469 1.349 1_556 S
C485 H477 0.950 . S
C485 C483 1.327 1_556 S
C486 C474 1.349 . S
C486 H480 0.950 . S
C486 C487 1.327 . S
C487 H481 0.950 . S
C487 C486 1.327 . S
C487 C491 1.429 . S
C488 C471 1.574 . S
C488 H482 0.949 . S
C488 C492 1.368 . S
C489 C470 1.429 . S
C489 C483 1.429 . S
C489 C490 1.523 . S
C490 C471 1.368 . S
C490 C484 1.368 . S
C490 C489 1.523 . S
C491 C475 1.429 . S
C491 C487 1.429 . S
C491 C492 1.523 . S
C492 C476 1.368 . S
C492 C488 1.368 . S
C492 C491 1.523 . S
H493 C468 0.950 . S
H494 C470 0.950 . S
H495 C471 0.949 . S
H496 C473 0.950 . S
H497 C475 0.950 . S
C139 N2 1.688 . S
C144 C85 1.744 . S
C169 C108 1.744 . S
C174 N25 1.688 . S
C199 N48 1.688 . S
C204 C131 1.745 1_554 S
C229 N71 1.688 . S
C234 C16 1.744 . S
C259 C39 1.744 . S
C264 N94 1.688 . S
C289 N117 1.688 . S
C294 C62 1.745 . S
C319 N12 1.613 . S
C324 C53 1.625 . S
C349 N35 1.613 . S
C354 C76 1.625 . S
C379 C99 1.625 . S
C384 N58 1.613 . S
C409 C122 1.625 . S
C414 N81 1.613 . S
C439 N104 1.613 . S
C444 C7 1.625 . S
C469 N127 1.613 . S
C474 C30 1.625 . S
