# Generated by pormake.
# Topology snl, (6)-cn, num edge types: 1
# Building blocks:
#     Node 0, Type 0, BuildingBlock: MIFKUJ_clean_sbu_0, # of connection points: 6
#     Node 1, Type 0, BuildingBlock: MIFKUJ_clean_sbu_0, # of connection points: 6
#     Node 2, Type 0, BuildingBlock: MIFKUJ_clean_sbu_0, # of connection points: 6
#     Node 3, Type 0, BuildingBlock: MIFKUJ_clean_sbu_0, # of connection points: 6
#     Node 4, Type 0, BuildingBlock: MIFKUJ_clean_sbu_0, # of connection points: 6
#     Node 5, Type 0, BuildingBlock: MIFKUJ_clean_sbu_0, # of connection points: 6
#     Node 6, Type 0, BuildingBlock: MIFKUJ_clean_sbu_0, # of connection points: 6
#     Node 7, Type 0, BuildingBlock: MIFKUJ_clean_sbu_0, # of connection points: 6
#     Node 8, Type 0, BuildingBlock: MIFKUJ_clean_sbu_0, # of connection points: 6
#     Node 9, Type 0, BuildingBlock: MIFKUJ_clean_sbu_0, # of connection points: 6
#     Node 10, Type 0, BuildingBlock: MIFKUJ_clean_sbu_0, # of connection points: 6
#     Node 11, Type 0, BuildingBlock: MIFKUJ_clean_sbu_0, # of connection points: 6
#     Node 12, Type 0, BuildingBlock: MIFKUJ_clean_sbu_0, # of connection points: 6
#     Node 13, Type 0, BuildingBlock: MIFKUJ_clean_sbu_0, # of connection points: 6
#     Node 14, Type 0, BuildingBlock: MIFKUJ_clean_sbu_0, # of connection points: 6
#     Node 15, Type 0, BuildingBlock: MIFKUJ_clean_sbu_0, # of connection points: 6
#     Edge 16, Type (0, 0), BuildingBlock: AJUNOK_clean_linker_0, # of connection points: 2
#     Edge 17, Type (0, 0), BuildingBlock: AJUNOK_clean_linker_0, # of connection points: 2
#     Edge 18, Type (0, 0), BuildingBlock: AJUNOK_clean_linker_0, # of connection points: 2
#     Edge 19, Type (0, 0), BuildingBlock: AJUNOK_clean_linker_0, # of connection points: 2
#     Edge 20, Type (0, 0), BuildingBlock: AJUNOK_clean_linker_0, # of connection points: 2
#     Edge 21, Type (0, 0), BuildingBlock: AJUNOK_clean_linker_0, # of connection points: 2
#     Edge 22, Type (0, 0), BuildingBlock: AJUNOK_clean_linker_0, # of connection points: 2
#     Edge 23, Type (0, 0), BuildingBlock: AJUNOK_clean_linker_0, # of connection points: 2
#     Edge 24, Type (0, 0), BuildingBlock: AJUNOK_clean_linker_0, # of connection points: 2
#     Edge 25, Type (0, 0), BuildingBlock: AJUNOK_clean_linker_0, # of connection points: 2
#     Edge 26, Type (0, 0), BuildingBlock: AJUNOK_clean_linker_0, # of connection points: 2
#     Edge 27, Type (0, 0), BuildingBlock: AJUNOK_clean_linker_0, # of connection points: 2
#     Edge 28, Type (0, 0), BuildingBlock: AJUNOK_clean_linker_0, # of connection points: 2
#     Edge 29, Type (0, 0), BuildingBlock: AJUNOK_clean_linker_0, # of connection points: 2
#     Edge 30, Type (0, 0), BuildingBlock: AJUNOK_clean_linker_0, # of connection points: 2
#     Edge 31, Type (0, 0), BuildingBlock: AJUNOK_clean_linker_0, # of connection points: 2
#     Edge 32, Type (0, 0), BuildingBlock: AJUNOK_clean_linker_0, # of connection points: 2
#     Edge 33, Type (0, 0), BuildingBlock: AJUNOK_clean_linker_0, # of connection points: 2
#     Edge 34, Type (0, 0), BuildingBlock: AJUNOK_clean_linker_0, # of connection points: 2
#     Edge 35, Type (0, 0), BuildingBlock: AJUNOK_clean_linker_0, # of connection points: 2
#     Edge 36, Type (0, 0), BuildingBlock: AJUNOK_clean_linker_0, # of connection points: 2
#     Edge 37, Type (0, 0), BuildingBlock: AJUNOK_clean_linker_0, # of connection points: 2
#     Edge 38, Type (0, 0), BuildingBlock: AJUNOK_clean_linker_0, # of connection points: 2
#     Edge 39, Type (0, 0), BuildingBlock: AJUNOK_clean_linker_0, # of connection points: 2
#     Edge 40, Type (0, 0), BuildingBlock: AJUNOK_clean_linker_0, # of connection points: 2
#     Edge 41, Type (0, 0), BuildingBlock: AJUNOK_clean_linker_0, # of connection points: 2
#     Edge 42, Type (0, 0), BuildingBlock: AJUNOK_clean_linker_0, # of connection points: 2
#     Edge 43, Type (0, 0), BuildingBlock: AJUNOK_clean_linker_0, # of connection points: 2
#     Edge 44, Type (0, 0), BuildingBlock: AJUNOK_clean_linker_0, # of connection points: 2
#     Edge 45, Type (0, 0), BuildingBlock: AJUNOK_clean_linker_0, # of connection points: 2
#     Edge 46, Type (0, 0), BuildingBlock: AJUNOK_clean_linker_0, # of connection points: 2
#     Edge 47, Type (0, 0), BuildingBlock: AJUNOK_clean_linker_0, # of connection points: 2
#     Edge 48, Type (0, 0), BuildingBlock: AJUNOK_clean_linker_0, # of connection points: 2
#     Edge 49, Type (0, 0), BuildingBlock: AJUNOK_clean_linker_0, # of connection points: 2
#     Edge 50, Type (0, 0), BuildingBlock: AJUNOK_clean_linker_0, # of connection points: 2
#     Edge 51, Type (0, 0), BuildingBlock: AJUNOK_clean_linker_0, # of connection points: 2
#     Edge 52, Type (0, 0), BuildingBlock: AJUNOK_clean_linker_0, # of connection points: 2
#     Edge 53, Type (0, 0), BuildingBlock: AJUNOK_clean_linker_0, # of connection points: 2
#     Edge 54, Type (0, 0), BuildingBlock: AJUNOK_clean_linker_0, # of connection points: 2
#     Edge 55, Type (0, 0), BuildingBlock: AJUNOK_clean_linker_0, # of connection points: 2
#     Edge 56, Type (0, 0), BuildingBlock: AJUNOK_clean_linker_0, # of connection points: 2
#     Edge 57, Type (0, 0), BuildingBlock: AJUNOK_clean_linker_0, # of connection points: 2
#     Edge 58, Type (0, 0), BuildingBlock: AJUNOK_clean_linker_0, # of connection points: 2
#     Edge 59, Type (0, 0), BuildingBlock: AJUNOK_clean_linker_0, # of connection points: 2
#     Edge 60, Type (0, 0), BuildingBlock: AJUNOK_clean_linker_0, # of connection points: 2
#     Edge 61, Type (0, 0), BuildingBlock: AJUNOK_clean_linker_0, # of connection points: 2
#     Edge 62, Type (0, 0), BuildingBlock: AJUNOK_clean_linker_0, # of connection points: 2
#     Edge 63, Type (0, 0), BuildingBlock: AJUNOK_clean_linker_0, # of connection points: 2
# Relax obj value: 0.129
# Max RMSD: 0.184
# Mean RMSD: 0.165
data_MOF--net-snl--node1-MIFKUJ_clean_sbu_0--edge1-AJUNOK_clean_linker_0
_symmetry_space_group_name_H-M    P1
_symmetry_Int_Tables_number       1
_symmetry_cell_setting            triclinic
loop_
_symmetry_equiv_pos_as_xyz
'x, y, z'
_cell_length_a     45.136063
_cell_length_b     47.04745
_cell_length_c     14.58393
_cell_angle_alpha  88.865141
_cell_angle_beta   90.986106
_cell_angle_gamma 89.972384
loop_
_atom_site_label
_atom_site_type_symbol
_atom_site_fract_x
_atom_site_fract_y
_atom_site_fract_z
_atom_type_partial_charge
Zn0 Zn 0.13217 0.61434 0.28371 0.0
Zn1 Zn 0.12562 0.62683 0.06609 0.0
C2 C 0.19058 0.59801 0.33229 0.0
O3 O 0.17518 0.57931 0.37952 0.0
C4 C 0.06434 0.60591 0.06456 0.0
O5 O 0.07421 0.58825 0.0035 0.0
O6 O 0.12298 0.6081 0.419 0.0
O7 O 0.11546 0.65311 0.24891 0.0
O8 O 0.14101 0.6623 0.12442 0.0
C9 C 0.1299 0.62739 0.4756 0.0
O10 O 0.14086 0.65143 0.44375 0.0
O11 O 0.17701 0.61601 0.28064 0.0
C12 C 0.12807 0.61058 0.87423 0.0
O13 O 0.13028 0.58507 0.91195 0.0
O14 O 0.12638 0.63195 0.92635 0.0
O15 O 0.14862 0.59145 0.09826 0.0
O16 O 0.12009 0.57925 0.21334 0.0
O17 O 0.0824 0.62316 0.10155 0.0
C18 C 0.12808 0.67088 0.19557 0.0
C19 C 0.13736 0.57236 0.14943 0.0
Zn20 Zn 0.61644 0.90519 0.44567 0.0
Zn21 Zn 0.6127 0.8571 0.20686 0.0
C22 C 0.63333 0.95649 0.53851 0.0
O23 O 0.65011 0.93863 0.58633 0.0
C24 C 0.61281 0.80196 0.29575 0.0
O25 O 0.6089 0.81731 0.3689 0.0
O26 O 0.62037 0.88452 0.56748 0.0
O27 O 0.57584 0.89685 0.39249 0.0
O28 O 0.57579 0.87096 0.26717 0.0
C29 C 0.6024 0.89047 0.63041 0.0
O30 O 0.58092 0.90865 0.61169 0.0
O31 O 0.61732 0.94716 0.47306 0.0
C32 C 0.62262 0.85493 0.01178 0.0
O33 O 0.6426 0.83594 0.03735 0.0
O34 O 0.60744 0.86685 0.07278 0.0
O35 O 0.65246 0.87203 0.24694 0.0
O36 O 0.6532 0.89708 0.37414 0.0
O37 O 0.61457 0.81449 0.21818 0.0
C38 C 0.56203 0.88428 0.32837 0.0
C39 C 0.66643 0.88612 0.30718 0.0
Zn40 Zn 0.37372 0.38046 0.75528 0.0
Zn41 Zn 0.38 0.36994 0.53823 0.0
C42 C 0.31392 0.39602 0.78845 0.0
O43 O 0.32817 0.41676 0.82906 0.0
C44 C 0.44362 0.3668 0.5157 0.0
O45 O 0.43551 0.35252 0.44302 0.0
O46 O 0.38247 0.3864 0.89079 0.0
O47 O 0.39183 0.34224 0.72735 0.0
O48 O 0.36685 0.33343 0.6003 0.0
C49 C 0.37361 0.36713 0.94642 0.0
O50 O 0.36017 0.34476 0.91286 0.0
O51 O 0.32889 0.37742 0.74708 0.0
C52 C 0.38261 0.38366 0.34256 0.0
O53 O 0.39186 0.4083 0.37278 0.0
O54 O 0.37592 0.36425 0.40064 0.0
O55 O 0.35774 0.40593 0.56493 0.0
O56 O 0.38627 0.41586 0.68388 0.0
O57 O 0.42379 0.37598 0.56863 0.0
C58 C 0.38023 0.32452 0.67271 0.0
C59 C 0.37081 0.42412 0.61458 0.0
Zn60 Zn 0.88216 0.10358 0.97712 0.0
Zn61 Zn 0.88456 0.15275 0.73525 0.0
C62 C 0.86779 0.04934 0.05304 0.0
O63 O 0.84677 0.06457 0.08935 0.0
C64 C 0.89804 0.21214 0.72473 0.0
O65 O 0.92432 0.20249 0.70398 0.0
O66 O 0.87621 0.12094 0.1009 0.0
O67 O 0.92154 0.11719 0.93137 0.0
O68 O 0.92293 0.1443 0.80493 0.0
C69 C 0.89589 0.11606 0.16265 0.0
O70 O 0.91915 0.10088 0.14162 0.0
O71 O 0.88607 0.06156 1.00006 0.0
C72 C 0.87504 0.15093 0.53799 0.0
O73 O 0.85136 0.16598 0.55572 0.0
O74 O 0.89202 0.14297 0.60399 0.0
O75 O 0.84618 0.13421 0.77164 0.0
O76 O 0.84482 0.10894 0.90134 0.0
O77 O 0.87718 0.19473 0.74008 0.0
C78 C 0.93579 0.13165 0.87242 0.0
C79 C 0.8321 0.11923 0.8297 0.0
Zn80 Zn 0.14073 0.39853 0.00286 0.0
Zn81 Zn 0.13058 0.35289 0.76315 0.0
C82 C 0.15949 0.45472 0.05942 0.0
O83 O 0.18606 0.4433 0.06191 0.0
C84 C 0.11327 0.29442 0.75485 0.0
O85 O 0.0917 0.30561 0.70445 0.0
O86 O 0.14542 0.37771 0.12459 0.0
O87 O 0.10084 0.38941 0.94851 0.0
O88 O 0.09275 0.36679 0.81852 0.0
C89 C 0.12551 0.38307 0.1825 0.0
O90 O 0.10373 0.40017 0.15716 0.0
O91 O 0.13744 0.43975 0.03502 0.0
C92 C 0.14149 0.34895 0.56657 0.0
O93 O 0.16409 0.33296 0.59254 0.0
O94 O 0.12496 0.35934 0.62714 0.0
O95 O 0.17018 0.37 0.79828 0.0
O96 O 0.17736 0.39416 0.92611 0.0
O97 O 0.13296 0.31075 0.78808 0.0
C98 C 0.0833 0.3796 0.88804 0.0
C99 C 0.18698 0.38381 0.85228 0.0
Zn100 Zn 0.85609 0.88087 0.26508 0.0
Zn101 Zn 0.91015 0.87508 0.03061 0.0
C102 C 0.79551 0.89514 0.30526 0.0
O103 O 0.80849 0.91481 0.35444 0.0
C104 C 0.9691 0.87502 0.10781 0.0
O105 O 0.9543 0.86989 0.18318 0.0
O106 O 0.86933 0.88788 0.39553 0.0
O107 O 0.87224 0.84315 0.22824 0.0
O108 O 0.89971 0.83971 0.10364 0.0
C109 C 0.86473 0.86972 0.4594 0.0
O110 O 0.85134 0.8458 0.43916 0.0
O111 O 0.81151 0.87789 0.26186 0.0
C112 C 0.90169 0.88851 0.83937 0.0
O113 O 0.91492 0.91198 0.86502 0.0
O114 O 0.89713 0.86908 0.89934 0.0
O115 O 0.89428 0.91312 0.06723 0.0
O116 O 0.8663 0.91544 0.19033 0.0
O117 O 0.95478 0.87812 0.0325 0.0
C118 C 0.88691 0.82852 0.17242 0.0
C119 C 0.87905 0.92729 0.12283 0.0
Zn120 Zn 0.36719 0.60463 0.5236 0.0
Zn121 Zn 0.37545 0.61222 0.30119 0.0
C122 C 0.35338 0.54464 0.53351 0.0
O123 O 0.32619 0.55432 0.53892 0.0
C124 C 0.39112 0.67063 0.27898 0.0
O125 O 0.41395 0.65854 0.24088 0.0
O126 O 0.36135 0.6128 0.65693 0.0
O127 O 0.40419 0.62533 0.48721 0.0
O128 O 0.41325 0.59922 0.36789 0.0
C129 C 0.37998 0.60373 0.71696 0.0
O130 O 0.40347 0.58991 0.68987 0.0
O131 O 0.3745 0.56214 0.5216 0.0
C132 C 0.36274 0.61697 0.10972 0.0
O133 O 0.34012 0.63097 0.14199 0.0
O134 O 0.38166 0.60632 0.16621 0.0
O135 O 0.33552 0.59453 0.32778 0.0
O136 O 0.32857 0.61487 0.46071 0.0
O137 O 0.37131 0.65479 0.31396 0.0
C138 C 0.42267 0.61339 0.43581 0.0
C139 C 0.31822 0.60384 0.38818 0.0
Zn140 Zn 0.64297 0.12129 0.75988 0.0
Zn141 Zn 0.60565 0.12833 0.5233 0.0
C142 C 0.70367 0.10516 0.8016 0.0
O143 O 0.69067 0.08697 0.85732 0.0
C144 C 0.54404 0.13591 0.50876 0.0
O145 O 0.55387 0.15678 0.45639 0.0
O146 O 0.63297 0.11615 0.89228 0.0
O147 O 0.62863 0.16082 0.72653 0.0
O148 O 0.61116 0.16543 0.58416 0.0
C149 C 0.63802 0.13601 0.94807 0.0
O150 O 0.6506 0.15947 0.9178 0.0
O151 O 0.68764 0.12167 0.75161 0.0
C152 C 0.60482 0.11891 0.32928 0.0
O153 O 0.59275 0.09466 0.35463 0.0
O154 O 0.61143 0.13686 0.39003 0.0
O155 O 0.63227 0.0948 0.55114 0.0
O156 O 0.62718 0.08587 0.69945 0.0
O157 O 0.56272 0.11851 0.54431 0.0
C158 C 0.61816 0.17597 0.66074 0.0
C159 C 0.62985 0.07732 0.61794 0.0
Zn160 Zn 0.89502 0.37633 0.94075 0.0
Zn161 Zn 0.86209 0.38907 0.70191 0.0
C162 C 0.9572 0.37642 0.95668 0.0
O163 O 0.94997 0.35798 0.02126 0.0
C164 C 0.79935 0.38359 0.746 0.0
O165 O 0.80965 0.37328 0.82459 0.0
O166 O 0.89185 0.37043 0.07662 0.0
O167 O 0.86337 0.40474 0.90797 0.0
O168 O 0.87584 0.42284 0.77516 0.0
C169 C 0.90098 0.38934 0.13125 0.0
O170 O 0.91368 0.41227 0.09736 0.0
O171 O 0.93674 0.38897 0.91034 0.0
C172 C 0.87233 0.37572 0.51713 0.0
O173 O 0.85648 0.35354 0.54214 0.0
O174 O 0.87834 0.39444 0.57608 0.0
O175 O 0.87264 0.34864 0.74226 0.0
O176 O 0.88988 0.33889 0.88318 0.0
O177 O 0.8176 0.39158 0.6853 0.0
C178 C 0.87083 0.42605 0.85963 0.0
C179 C 0.88176 0.33107 0.80391 0.0
Zn180 Zn 0.3736 0.14292 0.73466 0.0
Zn181 Zn 0.36227 0.13576 0.51395 0.0
C182 C 0.38899 0.20204 0.74467 0.0
O183 O 0.40838 0.19142 0.80421 0.0
C184 C 0.3444 0.07803 0.49557 0.0
O185 O 0.31999 0.09091 0.46725 0.0
O186 O 0.37993 0.13903 0.87235 0.0
O187 O 0.33368 0.12552 0.71062 0.0
O188 O 0.32438 0.14665 0.57666 0.0
C189 C 0.36205 0.15153 0.9248 0.0
O190 O 0.34069 0.16703 0.88738 0.0
O191 O 0.37164 0.18515 0.70296 0.0
C192 C 0.3752 0.13526 0.32208 0.0
O193 O 0.39762 0.11999 0.35408 0.0
O194 O 0.35672 0.14493 0.37856 0.0
O195 O 0.40145 0.15302 0.55134 0.0
O196 O 0.40894 0.12566 0.67321 0.0
O197 O 0.36616 0.09303 0.52254 0.0
C198 C 0.31533 0.13481 0.65022 0.0
C199 C 0.41891 0.13824 0.6023 0.0
Zn200 Zn 0.61126 0.63062 0.47946 0.0
Zn201 Zn 0.64639 0.62295 0.2461 0.0
C202 C 0.54952 0.63208 0.49207 0.0
O203 O 0.55806 0.65435 0.53854 0.0
C204 C 0.70468 0.6043 0.19346 0.0
O205 O 0.68869 0.58573 0.14831 0.0
O206 O 0.6163 0.63777 0.61297 0.0
O207 O 0.64277 0.60225 0.45209 0.0
O208 O 0.6319 0.58767 0.31433 0.0
C209 C 0.60751 0.62049 0.67449 0.0
O210 O 0.59379 0.59714 0.65 0.0
O211 O 0.56921 0.61683 0.45547 0.0
C212 C 0.64096 0.63619 0.05654 0.0
O213 O 0.65951 0.65627 0.08101 0.0
O214 O 0.63202 0.61858 0.11694 0.0
O215 O 0.63415 0.66306 0.28106 0.0
O216 O 0.61553 0.66844 0.41913 0.0
O217 O 0.69143 0.62213 0.24297 0.0
C218 C 0.63581 0.58227 0.39926 0.0
C219 C 0.62373 0.6788 0.3428 0.0
Zn220 Zn 0.14734 0.84954 0.26178 0.0
Zn221 Zn 0.15478 0.89766 0.01944 0.0
C222 C 0.12897 0.79192 0.27415 0.0
O223 O 0.10751 0.80399 0.31908 0.0
C224 C 0.17126 0.95756 0.9843 0.0
O225 O 0.19836 0.94952 0.00648 0.0
O226 O 0.14141 0.85662 0.3959 0.0
O227 O 0.18605 0.86718 0.22723 0.0
O228 O 0.19227 0.89244 0.09841 0.0
C229 C 0.1595 0.84915 0.4596 0.0
O230 O 0.18392 0.83575 0.43842 0.0
O231 O 0.14965 0.80743 0.24284 0.0
C232 C 0.14144 0.88446 0.83555 0.0
O233 O 0.12008 0.90235 0.85369 0.0
O234 O 0.16016 0.87809 0.89881 0.0
O235 O 0.11429 0.88732 0.06815 0.0
O236 O 0.11016 0.86282 0.19855 0.0
O237 O 0.15049 0.93936 0.98623 0.0
C238 C 0.20229 0.88162 0.1735 0.0
C239 C 0.09851 0.87572 0.12976 0.0
Zn240 Zn 0.88795 0.64681 0.22683 0.0
Zn241 Zn 0.87953 0.60185 0.98839 0.0
C242 C 0.89636 0.70726 0.25118 0.0
O243 O 0.9074 0.69888 0.3311 0.0
C244 C 0.87383 0.54065 0.00512 0.0
O245 O 0.86944 0.54608 0.09184 0.0
O246 O 0.89404 0.64161 0.36378 0.0
O247 O 0.84756 0.63012 0.19726 0.0
O248 O 0.8436 0.60681 0.06675 0.0
C249 C 0.87486 0.64759 0.42328 0.0
O250 O 0.84904 0.65779 0.39562 0.0
O251 O 0.88673 0.68883 0.19548 0.0
C252 C 0.89518 0.61933 0.81023 0.0
O253 O 0.91736 0.60251 0.83412 0.0
O254 O 0.87536 0.62411 0.86899 0.0
O255 O 0.9203 0.60723 0.04295 0.0
O256 O 0.92519 0.6308 0.17239 0.0
O257 O 0.87855 0.56119 0.94951 0.0
C258 C 0.83228 0.61618 0.13943 0.0
C259 C 0.93638 0.61709 0.1072 0.0
Zn260 Zn 0.12342 0.12839 0.96784 0.0
Zn261 Zn 0.12944 0.11757 0.74829 0.0
C262 C 0.0625 0.14229 0.94253 0.0
O263 O 0.0728 0.16645 0.97347 0.0
C264 C 0.18957 0.11259 0.68969 0.0
O265 O 0.17697 0.09562 0.63023 0.0
O266 O 0.12507 0.13432 0.1056 0.0
O267 O 0.14811 0.09404 0.94422 0.0
O268 O 0.12294 0.08074 0.82139 0.0
C269 C 0.11362 0.11586 0.15933 0.0
O270 O 0.101 0.09341 0.12349 0.0
O271 O 0.08023 0.12151 0.93412 0.0
C272 C 0.12356 0.13116 0.55617 0.0
O273 O 0.13549 0.1548 0.58591 0.0
O274 O 0.11782 0.11145 0.61438 0.0
O275 O 0.10959 0.15449 0.78204 0.0
O276 O 0.13669 0.16431 0.9042 0.0
O277 O 0.17377 0.12444 0.74945 0.0
C278 C 0.13979 0.07471 0.89003 0.0
C279 C 0.12226 0.17261 0.83304 0.0
Zn280 Zn 0.61587 0.3549 0.74311 0.0
Zn281 Zn 0.62742 0.40287 0.49953 0.0
C282 C 0.59816 0.29666 0.71308 0.0
O283 O 0.57212 0.30844 0.69787 0.0
C284 C 0.63211 0.46399 0.52842 0.0
O285 O 0.63981 0.45614 0.61243 0.0
O286 O 0.61029 0.36487 0.87486 0.0
O287 O 0.65484 0.37141 0.70436 0.0
O288 O 0.66441 0.39613 0.5774 0.0
C289 C 0.62553 0.35371 0.94019 0.0
O290 O 0.64577 0.3347 0.92147 0.0
O291 O 0.61998 0.31227 0.73543 0.0
C292 C 0.61408 0.39293 0.31462 0.0
O293 O 0.59435 0.41224 0.33498 0.0
O294 O 0.63224 0.38449 0.37704 0.0
O295 O 0.58725 0.3907 0.54543 0.0
O296 O 0.57851 0.36664 0.67463 0.0
O297 O 0.62559 0.44499 0.47079 0.0
C298 C 0.67285 0.38477 0.6533 0.0
C299 C 0.56942 0.37916 0.60151 0.0
Zn300 Zn 0.38543 0.8513 0.17685 0.0
Zn301 Zn 0.37518 0.9006 0.41164 0.0
C302 C 0.37144 0.79314 0.24455 0.0
O303 O 0.3488 0.80478 0.28502 0.0
C304 C 0.35012 0.95509 0.45639 0.0
O305 O 0.32581 0.93996 0.4645 0.0
O306 O 0.39105 0.85975 0.04183 0.0
O307 O 0.34457 0.86558 0.20566 0.0
O308 O 0.3396 0.89145 0.33056 0.0
C309 C 0.37197 0.85202 0.98216 0.0
O310 O 0.34856 0.83786 0.00962 0.0
O311 O 0.38832 0.80869 0.19595 0.0
C312 C 0.38765 0.88856 0.60083 0.0
O313 O 0.40902 0.90672 0.58315 0.0
O314 O 0.37008 0.88167 0.53591 0.0
O315 O 0.41665 0.89307 0.36825 0.0
O316 O 0.42076 0.86766 0.24272 0.0
O317 O 0.37385 0.94281 0.43332 0.0
C318 C 0.32868 0.87964 0.25987 0.0
C319 C 0.43241 0.88163 0.30771 0.0
C320 C 0.12997 0.64159 0.73195 0.0
C321 C 0.1275 0.61429 0.77233 0.0
C322 C 0.13027 0.64557 0.63625 0.0
C323 C 0.12779 0.62247 0.57653 0.0
H324 H 0.13212 0.66011 0.77451 0.0
H325 H 0.1326 0.66702 0.60897 0.0
S326 S 0.11998 0.54658 0.64663 0.0
N327 N 0.12194 0.56368 0.74428 0.0
N328 N 0.12234 0.57125 0.56506 0.0
C329 C 0.12478 0.59508 0.61581 0.0
C330 C 0.12471 0.59098 0.71335 0.0
C331 C 0.59434 0.88125 0.88788 0.0
C332 C 0.61758 0.86258 0.91337 0.0
C333 C 0.58927 0.88951 0.79622 0.0
C334 C 0.60726 0.87957 0.7258 0.0
H335 H 0.57993 0.88981 0.9392 0.0
H336 H 0.5713 0.90421 0.78094 0.0
S337 S 0.67054 0.82947 0.75502 0.0
N338 N 0.65836 0.83374 0.85993 0.0
N339 N 0.64887 0.84931 0.68761 0.0
C340 C 0.6303 0.86048 0.74988 0.0
C341 C 0.63544 0.85199 0.84353 0.0
C342 C 0.38656 0.40089 0.17908 0.0
C343 C 0.38065 0.37857 0.24203 0.0
C344 C 0.38471 0.39691 0.08397 0.0
C345 C 0.37681 0.37044 0.04749 0.0
H346 H 0.39248 0.42179 0.20323 0.0
H347 H 0.38912 0.41491 0.03878 0.0
S348 S 0.36074 0.3045 0.18214 0.0
N349 N 0.36765 0.3286 0.26036 0.0
N350 N 0.36421 0.32113 0.08223 0.0
C351 C 0.37132 0.34777 0.10955 0.0
C352 C 0.37322 0.35182 0.20647 0.0
C353 C 0.86011 0.14745 0.37226 0.0
C354 C 0.88146 0.14276 0.44241 0.0
C355 C 0.86514 0.13915 0.28201 0.0
C356 C 0.89178 0.12585 0.25794 0.0
H357 H 0.83907 0.15727 0.38718 0.0
H358 H 0.84777 0.1429 0.23104 0.0
S359 S 0.95575 0.11024 0.41486 0.0
N360 N 0.93091 0.12499 0.48066 0.0
N361 N 0.94038 0.10946 0.31146 0.0
C362 C 0.91362 0.12157 0.32705 0.0
C363 C 0.90847 0.12998 0.41904 0.0
C364 C 0.1543 0.35901 0.31084 0.0
C365 C 0.1281 0.37246 0.27901 0.0
C366 C 0.15818 0.3509 0.40341 0.0
C367 C 0.13605 0.35598 0.46797 0.0
H368 H 0.17231 0.35528 0.26445 0.0
H369 H 0.17902 0.34122 0.42477 0.0
S370 S 0.06206 0.38794 0.41854 0.0
N371 N 0.07875 0.38859 0.31874 0.0
N372 N 0.08609 0.37347 0.49214 0.0
C373 C 0.10932 0.36849 0.43649 0.0
C374 C 0.10533 0.37668 0.34227 0.0
C375 C 0.88034 0.85836 0.71469 0.0
C376 C 0.89238 0.88453 0.74207 0.0
C377 C 0.87149 0.85386 0.62349 0.0
C378 C 0.8743 0.87531 0.55551 0.0
H379 H 0.87776 0.84105 0.76399 0.0
H380 H 0.86247 0.83327 0.60634 0.0
S381 S 0.90379 0.94806 0.5913 0.0
N382 N 0.90618 0.93247 0.69351 0.0
N383 N 0.88959 0.92401 0.52246 0.0
C384 C 0.88617 0.90167 0.58188 0.0
C385 C 0.89519 0.90627 0.67492 0.0
C386 C 0.39659 0.59866 0.88122 0.0
C387 C 0.37501 0.60783 0.81634 0.0
C388 C 0.39239 0.60167 0.97556 0.0
C389 C 0.36643 0.61401 0.00923 0.0
H390 H 0.41699 0.58899 0.85924 0.0
H391 H 0.40976 0.59427 0.02235 0.0
S392 S 0.30273 0.6412 0.86831 0.0
N393 N 0.32646 0.62962 0.79275 0.0
N394 N 0.31858 0.63528 0.9697 0.0
C395 C 0.34462 0.6233 0.94514 0.0
C396 C 0.34889 0.62023 0.84894 0.0
C397 C 0.6168 0.10688 0.07622 0.0
C398 C 0.62938 0.13265 0.04534 0.0
C399 C 0.60851 0.10287 0.16758 0.0
C400 C 0.61247 0.12442 0.23207 0.0
H401 H 0.61343 0.08948 0.02966 0.0
H402 H 0.59923 0.0825 0.18778 0.0
S403 S 0.64347 0.19638 0.18598 0.0
N404 N 0.64471 0.18042 0.08638 0.0
N405 N 0.62912 0.1729 0.25804 0.0
C406 C 0.62466 0.15049 0.20201 0.0
C407 C 0.63313 0.15458 0.10878 0.0
C408 C 0.88169 0.36131 0.26452 0.0
C409 C 0.89573 0.38601 0.23095 0.0
C410 C 0.87477 0.35805 0.35723 0.0
C411 C 0.8816 0.37934 0.42055 0.0
H412 H 0.87554 0.34438 0.2187 0.0
H413 H 0.86361 0.33875 0.37894 0.0
S414 S 0.91953 0.44774 0.36889 0.0
N415 N 0.91712 0.43186 0.26917 0.0
N416 N 0.90416 0.42573 0.44362 0.0
C417 C 0.89628 0.40393 0.38851 0.0
C418 C 0.90333 0.40726 0.29377 0.0
C419 C 0.39179 0.12858 0.16073 0.0
C420 C 0.37141 0.14038 0.22143 0.0
C421 C 0.38867 0.13243 0.06543 0.0
C422 C 0.36503 0.1483 0.02637 0.0
H423 H 0.41036 0.11606 0.18675 0.0
H424 H 0.40495 0.12276 0.02214 0.0
S425 S 0.30558 0.18401 0.15476 0.0
N426 N 0.32676 0.16888 0.23518 0.0
N427 N 0.32085 0.17612 0.05647 0.0
C428 C 0.34454 0.16041 0.08622 0.0
C429 C 0.34772 0.15646 0.18345 0.0
C430 C 0.61856 0.60776 0.93025 0.0
C431 C 0.63142 0.63334 0.95965 0.0
C432 C 0.61035 0.60401 0.83829 0.0
C433 C 0.61458 0.62573 0.77218 0.0
H434 H 0.6153 0.59022 0.97822 0.0
H435 H 0.60114 0.5837 0.8188 0.0
S436 S 0.64501 0.69773 0.81538 0.0
N437 N 0.64643 0.68134 0.91642 0.0
N438 N 0.63087 0.67444 0.74372 0.0
C439 C 0.62664 0.65175 0.80117 0.0
C440 C 0.63511 0.6555 0.89482 0.0
C441 C 0.17607 0.85313 0.624 0.0
C442 C 0.1537 0.85666 0.5562 0.0
C443 C 0.17169 0.86146 0.71466 0.0
C444 C 0.14479 0.87375 0.74116 0.0
H445 H 0.19741 0.84437 0.60674 0.0
H446 H 0.18983 0.85887 0.76371 0.0
S447 S 0.07812 0.88533 0.59214 0.0
N448 N 0.10288 0.87165 0.52369 0.0
N449 N 0.09473 0.88731 0.69346 0.0
C450 C 0.12191 0.87659 0.67478 0.0
C451 C 0.12633 0.86807 0.58256 0.0
C452 C 0.86368 0.63906 0.68052 0.0
C453 C 0.89144 0.62925 0.71331 0.0
C454 C 0.85871 0.64548 0.58711 0.0
C455 C 0.8813 0.64242 0.52261 0.0
H456 H 0.84529 0.64097 0.72678 0.0
H457 H 0.83673 0.65227 0.56522 0.0
S458 S 0.95901 0.62049 0.57468 0.0
N459 N 0.94252 0.61894 0.67477 0.0
N460 N 0.93327 0.63102 0.49979 0.0
C461 C 0.90954 0.63378 0.55515 0.0
C462 C 0.91458 0.62721 0.65022 0.0
C463 C 0.13031 0.14752 0.39313 0.0
C464 C 0.11944 0.12698 0.45566 0.0
C465 C 0.12815 0.14381 0.29802 0.0
C466 C 0.11492 0.11942 0.2608 0.0
H467 H 0.141 0.16659 0.41762 0.0
H468 H 0.13715 0.16021 0.25342 0.0
S469 S 0.08182 0.05962 0.39438 0.0
N470 N 0.09418 0.0816 0.4731 0.0
N471 N 0.09 0.07461 0.29473 0.0
C472 C 0.10349 0.09887 0.32247 0.0
C473 C 0.10578 0.10264 0.41957 0.0
C474 C 0.63961 0.3648 0.19478 0.0
C475 C 0.61577 0.38214 0.21983 0.0
C476 C 0.64235 0.35537 0.10467 0.0
C477 C 0.62136 0.3629 0.0359 0.0
H478 H 0.65661 0.35875 0.24476 0.0
H479 H 0.66138 0.34247 0.08864 0.0
S480 S 0.55356 0.40624 0.06699 0.0
N481 N 0.56993 0.40533 0.16902 0.0
N482 N 0.57503 0.38758 1.00029 0.0
C483 C 0.59702 0.37969 0.06046 0.0
C484 C 0.59423 0.38929 0.15216 0.0
C485 C 0.40083 0.87545 0.85634 0.0
C486 C 0.37575 0.85985 0.88358 0.0
C487 C 0.40459 0.88416 0.76483 0.0
C488 C 0.38351 0.87762 0.69618 0.0
H489 H 0.41768 0.88133 0.90622 0.0
H490 H 0.42419 0.89636 0.74817 0.0
S491 S 0.31412 0.8366 0.73027 0.0
N492 N 0.32964 0.8377 0.83345 0.0
N493 N 0.33677 0.85404 0.66162 0.0
C494 C 0.35853 0.8616 0.72193 0.0
C495 C 0.35464 0.85275 0.81542 0.0
C496 C 0.14663 0.72055 0.17038 0.0
C497 C 0.12762 0.70163 0.21663 0.0
C498 C 0.14714 0.74957 0.19024 0.0
C499 C 0.12845 0.76096 0.25654 0.0
H500 H 0.16149 0.7129 0.11878 0.0
H501 H 0.16216 0.76321 0.15251 0.0
S502 S 0.07441 0.72056 0.39734 0.0
N503 N 0.08955 0.69645 0.33215 0.0
N504 N 0.09044 0.75093 0.36903 0.0
C505 C 0.10926 0.74231 0.3033 0.0
C506 C 0.10888 0.7127 0.28352 0.0
C507 C 0.51378 0.87009 0.25489 0.0
C508 C 0.52899 0.88474 0.3246 0.0
C509 C 0.48277 0.86953 0.24978 0.0
C510 C 0.46537 0.88359 0.31413 0.0
H511 H 0.52586 0.85869 0.20363 0.0
H512 H 0.47244 0.85769 0.1949 0.0
S513 S 0.49404 0.92578 0.5094 0.0
N514 N 0.52407 0.91422 0.45898 0.0
N515 N 0.46584 0.91319 0.44929 0.0
C516 C 0.48022 0.89864 0.38384 0.0
C517 C 0.51192 0.8992 0.3891 0.0
C518 C 0.37073 0.27365 0.63095 0.0
C519 C 0.38276 0.2934 0.6928 0.0
C520 C 0.37274 0.24424 0.64832 0.0
C521 C 0.38704 0.23327 0.72792 0.0
H522 H 0.35964 0.28091 0.56834 0.0
H523 H 0.3632 0.22998 0.59841 0.0
S524 S 0.4211 0.27565 0.91435 0.0
N525 N 0.40877 0.29959 0.83883 0.0
N526 N 0.41258 0.24452 0.87091 0.0
C527 C 0.399 0.25271 0.79072 0.0
C528 C 0.39684 0.28266 0.77335 0.0
C529 C 0.9852 0.11111 0.9183 0.0
C530 C 0.96831 0.13439 0.88493 0.0
C531 C 0.01589 0.1135 0.93393 0.0
C532 C 0.03061 0.13949 0.91915 0.0
H533 H 0.9746 0.09087 0.93239 0.0
H534 H 0.02799 0.09511 0.9603 0.0
S535 S 0.99661 0.20681 0.83211 0.0
N536 N 0.96875 0.18412 0.83683 0.0
N537 N 0.02618 0.1888 0.86772 0.0
C538 C 0.01404 0.16286 0.88536 0.0
C539 C 0.98296 0.16027 0.8678 0.0
C540 C 0.13592 0.25224 0.83662 0.0
C541 C 0.11472 0.26327 0.7735 0.0
C542 C 0.13798 0.223 0.85582 0.0
C543 C 0.11909 0.20349 0.81218 0.0
H544 H 0.15112 0.26627 0.87194 0.0
H545 H 0.15477 0.21567 0.90472 0.0
S546 S 0.05937 0.22126 0.64213 0.0
N547 N 0.0741 0.25224 0.66808 0.0
N548 N 0.07811 0.19733 0.70369 0.0
C549 C 0.0977 0.21418 0.74901 0.0
C550 C 0.09547 0.24402 0.72988 0.0
C551 C 0.04838 0.86767 0.19669 0.0
C552 C 0.06555 0.87671 0.12178 0.0
C553 C 0.01737 0.86753 0.19151 0.0
C554 C 1.00202 0.87622 0.11099 0.0
H555 H 0.05891 0.86052 0.26037 0.0
H556 H 0.0054 0.86018 0.25119 0.0
S557 S 0.03621 0.90237 0.89528 0.0
N558 N 0.06463 0.89508 0.96451 0.0
N559 N 0.00636 0.89466 0.95466 0.0
C560 C 0.0188 0.88555 0.03556 0.0
C561 C 0.05049 0.88586 0.04102 0.0
C562 C 0.36036 0.71445 0.30014 0.0
C563 C 0.3873 0.70205 0.27427 0.0
C564 C 0.35554 0.74387 0.29114 0.0
C565 C 0.3774 0.76214 0.25559 0.0
H566 H 0.34258 0.70131 0.32626 0.0
H567 H 0.33428 0.75225 0.31093 0.0
S568 S 0.45273 0.74079 0.18425 0.0
N569 N 0.43679 0.71072 0.21619 0.0
N570 N 0.42771 0.76579 0.199 0.0
C571 C 0.40471 0.75012 0.23139 0.0
C572 C 0.40966 0.72018 0.24085 0.0
C573 C 0.49241 0.1545 0.49009 0.0
C574 C 0.51207 0.13462 0.53135 0.0
C575 C 0.46246 0.15529 0.5132 0.0
C576 C 0.45078 0.13636 0.57914 0.0
H577 H 0.50019 0.16991 0.43988 0.0
H578 H 0.44847 0.17121 0.47966 0.0
S579 S 0.49239 0.07916 0.70456 0.0
N580 N 0.51739 0.09476 0.63935 0.0
N581 N 0.46103 0.09631 0.68306 0.0
C582 C 0.47001 0.11602 0.62008 0.0
C583 C 0.50061 0.11511 0.59608 0.0
C584 C 0.91577 0.25806 0.78639 0.0
C585 C 0.89363 0.24266 0.74027 0.0
C586 C 0.91147 0.28663 0.80764 0.0
C587 C 0.88527 0.30095 0.78103 0.0
H588 H 0.93624 0.24777 0.80835 0.0
H589 H 0.92893 0.29769 0.84433 0.0
S590 S 0.8211 0.27044 0.6556 0.0
N591 N 0.84472 0.24373 0.66783 0.0
N592 N 0.83722 0.29798 0.70426 0.0
C593 C 0.86327 0.28603 0.73284 0.0
C594 C 0.86729 0.25668 0.71349 0.0
C595 C 0.60981 0.75691 0.38874 0.0
C596 C 0.61552 0.77054 0.30426 0.0
C597 C 0.61246 0.7274 0.39988 0.0
C598 C 0.6211 0.71009 0.32716 0.0
H599 H 0.60315 0.76908 0.44721 0.0
H600 H 0.60778 0.71818 0.46672 0.0
S601 S 0.63855 0.73525 0.09109 0.0
N602 N 0.63016 0.76446 0.14587 0.0
N603 N 0.63514 0.70898 0.16685 0.0
C604 C 0.62683 0.72343 0.24196 0.0
C605 C 0.62402 0.75359 0.23049 0.0
C606 C 0.89177 0.75758 0.2994 0.0
C607 C 0.89416 0.73796 0.22839 0.0
C608 C 0.88918 0.78677 0.28042 0.0
C609 C 0.88955 0.79753 0.18977 0.0
H610 H 0.89146 0.75031 0.37035 0.0
H611 H 0.88724 0.80104 0.33742 0.0
S612 S 0.89591 0.75514 0.97913 0.0
N613 N 0.89682 0.73129 0.06379 0.0
N614 N 0.89266 0.78631 0.02812 0.0
C615 C 0.89229 0.7782 0.11805 0.0
C616 C 0.89435 0.74837 0.13734 0.0
C617 C 0.63171 0.22255 0.73028 0.0
C618 C 0.61253 0.20653 0.67467 0.0
C619 C 0.62693 0.25171 0.74232 0.0
C620 C 0.60241 0.26573 0.70091 0.0
H621 H 0.65085 0.2126 0.76337 0.0
H622 H 0.6425 0.2633 0.78478 0.0
S623 S 0.54461 0.23273 0.55323 0.0
N624 N 0.56756 0.20647 0.58053 0.0
N625 N 0.55826 0.26101 0.60413 0.0
C626 C 0.58269 0.24973 0.64687 0.0
C627 C 0.58785 0.22021 0.63344 0.0
C628 C 0.00973 0.37986 0.00916 0.0
C629 C 0.98884 0.38081 0.93655 0.0
C630 C 0.04018 0.3806 0.99262 0.0
C631 C 0.05096 0.38155 0.90266 0.0
H632 H 1.00246 0.37809 0.07948 0.0
H633 H 0.05538 0.37928 0.05084 0.0
S634 S 0.00536 0.38527 0.68854 0.0
N635 N 0.98088 0.38394 0.77145 0.0
N636 N 0.03828 0.38448 0.73993 0.0
C637 C 0.0303 0.38308 0.82932 0.0
C638 C 0.99919 0.38299 0.84637 0.0
C639 C 0.47592 0.60677 0.39106 0.0
C640 C 0.45508 0.61697 0.45345 0.0
C641 C 0.50652 0.61095 0.40502 0.0
C642 C 0.51743 0.62571 0.48149 0.0
H643 H 0.46858 0.59582 0.33013 0.0
H644 H 0.52164 0.60324 0.35426 0.0
S645 S 0.4727 0.65423 0.67022 0.0
N646 N 0.44807 0.64071 0.5985 0.0
N647 N 0.50522 0.6487 0.62379 0.0
C648 C 0.49696 0.63525 0.54572 0.0
C649 C 0.46592 0.63086 0.53198 0.0
C650 C 0.48572 0.37494 0.6268 0.0
C651 C 0.47553 0.37167 0.53587 0.0
C652 C 0.51609 0.37775 0.64749 0.0
C653 C 0.53732 0.37812 0.57781 0.0
H654 H 0.47021 0.37451 0.68271 0.0
H655 H 0.52301 0.37952 0.71864 0.0
S656 S 0.52202 0.37136 0.3283 0.0
N657 N 0.48906 0.36964 0.3754 0.0
N658 N 0.54588 0.37532 0.41411 0.0
C659 C 0.52731 0.37562 0.48646 0.0
C660 C 0.4965 0.37227 0.46556 0.0
C661 C 0.01188 0.59272 0.02666 0.0
C662 C 0.03203 0.60758 0.08268 0.0
C663 C 0.98119 0.59557 0.03647 0.0
C664 C 0.96915 0.61327 0.1032 0.0
H665 H 0.01977 0.57922 0.97296 0.0
H666 H 0.96682 0.58398 0.99017 0.0
S667 S 0.01236 0.65548 0.27187 0.0
N668 N 0.03775 0.63969 0.2106 0.0
N669 N 0.98013 0.64497 0.22945 0.0
C670 C 0.98907 0.62759 0.16187 0.0
C671 C 0.02042 0.62478 0.1515 0.0
C672 C 0.12182 0.52152 0.14156 0.0
C673 C 0.14396 0.54226 0.13192 0.0
C674 C 0.12709 0.49323 0.11798 0.0
C675 C 0.15489 0.48459 0.08587 0.0
H676 H 0.10001 0.52734 0.16487 0.0
H677 H 0.10923 0.47801 0.12504 0.0
S678 S 0.22077 0.53066 0.05414 0.0
N679 N 0.19497 0.55226 0.09135 0.0
N680 N 0.20511 0.499 0.04895 0.0
C681 C 0.17748 0.50503 0.07869 0.0
C682 C 0.17193 0.5339 0.10113 0.0
C683 C 0.71466 0.90627 0.36411 0.0
C684 C 0.69926 0.88881 0.30204 0.0
C685 C 0.74564 0.90835 0.36381 0.0
C686 C 0.76266 0.89293 0.30192 0.0
H687 H 0.70277 0.91838 0.41405 0.0
H688 H 0.7563 0.92194 0.41357 0.0
S689 S 0.73337 0.8449 0.12267 0.0
N690 N 0.70362 0.85634 0.17481 0.0
N691 N 0.76174 0.86021 0.17472 0.0
C692 C 0.74761 0.87567 0.23854 0.0
C693 C 0.716 0.87365 0.23842 0.0
C694 C 0.34144 0.46485 0.54797 0.0
C695 C 0.36748 0.45483 0.59217 0.0
C696 C 0.33728 0.49388 0.52815 0.0
C697 C 0.3593 0.51395 0.5496 0.0
H698 H 0.3238 0.45022 0.53038 0.0
H699 H 0.31659 0.50067 0.49588 0.0
S700 S 0.4321 0.49858 0.66213 0.0
N701 N 0.41591 0.46721 0.65511 0.0
N702 N 0.4084 0.52169 0.61578 0.0
C703 C 0.38578 0.50415 0.59169 0.0
C704 C 0.38976 0.47463 0.61364 0.0
C705 C 0.78422 0.09686 0.87801 0.0
C706 C 0.79962 0.11469 0.81643 0.0
C707 C 0.75342 0.09343 0.8711 0.0
C708 C 0.73653 0.10778 0.80261 0.0
H709 H 0.79594 0.08563 0.93315 0.0
H710 H 0.74275 0.07982 0.92138 0.0
S711 S 0.76601 0.1557 0.62037 0.0
N712 N 0.79551 0.14594 0.68157 0.0
N713 N 0.7377 0.13953 0.66895 0.0
C714 C 0.75163 0.12512 0.73895 0.0
C715 C 0.78309 0.12854 0.74572 0.0
C716 C 0.88152 0.50575 0.88058 0.0
C717 C 0.87323 0.51109 0.9713 0.0
C718 C 0.88083 0.47826 0.84561 0.0
C719 C 0.8717 0.45486 0.8996 0.0
H720 H 0.88866 0.52296 0.83575 0.0
H721 H 0.88749 0.47543 0.77536 0.0
S722 S 0.84744 0.45728 0.14174 0.0
N723 N 0.85564 0.49055 0.11483 0.0
N724 N 0.85382 0.43897 0.04877 0.0
C725 C 0.86332 0.45985 0.99063 0.0
C726 C 0.86423 0.4879 0.02651 0.0
C727 C 0.23425 0.12102 0.59539 0.0
C728 C 0.22144 0.11907 0.68247 0.0
C729 C 0.26447 0.12687 0.58567 0.0
C730 C 0.28318 0.1302 0.66281 0.0
H731 H 0.22075 0.11824 0.53405 0.0
H732 H 0.27332 0.12818 0.51714 0.0
S733 S 0.26041 0.12695 0.90629 0.0
N734 N 0.22947 0.12132 0.84728 0.0
N735 N 0.28658 0.13132 0.82948 0.0
C736 C 0.27062 0.12824 0.75046 0.0
C737 C 0.23965 0.12297 0.76019 0.0
C738 C 0.62618 0.53039 0.37606 0.0
C739 C 0.63433 0.55247 0.43511 0.0
C740 C 0.62517 0.50205 0.40726 0.0
C741 C 0.63227 0.49445 0.49898 0.0
H742 H 0.62064 0.53494 0.3047 0.0
H743 H 0.61898 0.48594 0.35846 0.0
S744 S 0.65437 0.54421 0.68264 0.0
N745 N 0.64931 0.56474 0.59067 0.0
N746 N 0.64715 0.51159 0.64928 0.0
C747 C 0.64009 0.51634 0.55928 0.0
C748 C 0.64118 0.54525 0.52741 0.0
C749 C 0.2859 0.88177 0.14807 0.0
C750 C 0.29643 0.88215 0.23957 0.0
C751 C 0.25545 0.88297 0.12695 0.0
C752 C 0.23433 0.8839 0.19662 0.0
H753 H 0.30132 0.88042 0.09219 0.0
H754 H 0.24839 0.88211 0.05568 0.0
S755 S 0.25021 0.88624 0.44698 0.0
N756 N 0.28322 0.88462 0.4002 0.0
N757 N 0.22606 0.88619 0.36064 0.0
C758 C 0.24455 0.88479 0.28827 0.0
C759 C 0.27556 0.88412 0.3097 0.0
C760 C 0.62328 0.00726 0.49425 0.0
C761 C 0.63281 0.9871 0.56088 0.0
C762 C 0.62269 0.03634 0.51325 0.0
C763 C 0.63106 0.04641 0.60016 0.0
H764 H 0.61648 0.0006 0.42639 0.0
H765 H 0.61526 0.051 0.45952 0.0
S766 S 0.65752 0.00236 0.79911 0.0
N767 N 0.65085 0.97924 0.71758 0.0
N768 N 0.64929 0.03385 0.75359 0.0
C769 C 0.64046 0.02647 0.66773 0.0
C770 C 0.64148 0.99685 0.64797 0.0
C771 C 0.23622 0.40738 0.87759 0.0
C772 C 0.21897 0.38726 0.83049 0.0
C773 C 0.2666 0.41041 0.86169 0.0
C774 C 0.28127 0.3933 0.79853 0.0
H775 H 0.22625 0.42091 0.92777 0.0
H776 H 0.27875 0.42603 0.90087 0.0
S777 S 0.24632 0.3379 0.65476 0.0
N778 N 0.21887 0.35033 0.71572 0.0
N779 N 0.27598 0.35599 0.68637 0.0
C780 C 0.26428 0.37339 0.74968 0.0
C781 C 0.2332 0.37041 0.76542 0.0
C782 C 0.89219 0.97235 0.03856 0.0
C783 C 0.87584 0.95849 0.10759 0.0
C784 C 0.88951 0.00165 0.02189 0.0
C785 C 0.87022 0.01839 0.07309 0.0
H786 H 0.90731 0.96053 0.9968 0.0
H787 H 0.90258 0.01118 0.9678 0.0
S788 S 0.82258 0.99279 0.26277 0.0
N789 N 0.83976 0.96403 0.22841 0.0
N790 N 0.83473 0.01904 0.1968 0.0
C791 C 0.85377 0.00492 0.14258 0.0
C792 C 0.85658 0.97504 0.15992 0.0
C793 C 0.24204 0.60259 0.27199 0.0
C794 C 0.22295 0.59957 0.34666 0.0
C795 C 0.27295 0.60331 0.28564 0.0
C796 C 0.28566 0.6019 0.37458 0.0
H797 H 0.23305 0.60393 0.20266 0.0
H798 H 0.28694 0.6055 0.2263 0.0
S799 S 0.24479 0.59476 0.5927 0.0
N800 N 0.21866 0.59523 0.51207 0.0
N801 N 0.27644 0.59772 0.53827 0.0
C802 C 0.26661 0.59927 0.44968 0.0
C803 C 0.23532 0.5978 0.43555 0.0
C804 C 0.32222 0.00075 0.46869 0.0
C805 C 0.34949 0.98625 0.47069 0.0
C806 C 0.32087 0.03031 0.47811 0.0
C807 C 0.3467 0.0466 0.4911 0.0
H808 H 0.30168 0.9893 0.45792 0.0
H809 H 0.29932 0.04045 0.47463 0.0
S810 S 0.42368 0.01875 0.50669 0.0
N811 N 0.40299 0.99032 0.49 0.0
N812 N 0.40043 0.04582 0.50861 0.0
C813 C 0.37412 0.0323 0.49568 0.0
C814 C 0.37552 0.00217 0.48512 0.0
C815 C 0.78498 0.6286 0.21806 0.0
C816 C 0.80009 0.61158 0.15563 0.0
C817 C 0.75434 0.6258 0.2308 0.0
C818 C 0.73744 0.6057 0.18224 0.0
H819 H 0.79676 0.64472 0.25615 0.0
H820 H 0.74379 0.63981 0.27846 0.0
S821 S 0.76671 0.55436 0.0155 0.0
N822 N 0.79598 0.57282 0.04811 0.0
N823 N 0.73863 0.56747 0.07214 0.0
C824 C 0.75244 0.58796 0.12147 0.0
C825 C 0.78363 0.59093 0.10813 0.0
C826 C 0.13041 0.02229 0.8857 0.0
C827 C 0.149 0.04498 0.90998 0.0
C828 C 0.1379 0.99413 0.90971 0.0
C829 C 0.16453 0.98752 0.95744 0.0
H830 H 0.10954 0.02635 0.85002 0.0
H831 H 0.1226 0.97742 0.89075 0.0
S832 S 0.22186 0.03924 0.03107 0.0
N833 N 0.19581 0.05897 0.98078 0.0
N834 N 0.21009 0.00611 0.02467 0.0
C835 C 0.18374 0.00999 0.97959 0.0
C836 C 0.17592 0.03868 0.95626 0.0
C837 C 0.72621 0.39297 0.61498 0.0
C838 C 0.70479 0.38577 0.68052 0.0
C839 C 0.75656 0.39253 0.63721 0.0
C840 C 0.7669 0.38494 0.72607 0.0
H841 H 0.71958 0.39847 0.54512 0.0
H842 H 0.77203 0.39781 0.58355 0.0
S843 S 0.7199 0.36666 0.92541 0.0
N844 N 0.69608 0.37251 0.83999 0.0
N845 N 0.75302 0.37162 0.88163 0.0
C846 C 0.74571 0.37844 0.79309 0.0
C847 C 0.71475 0.37887 0.77039 0.0
loop_
_geom_bond_atom_site_label_1
_geom_bond_atom_site_label_2
_geom_bond_distance
_geom_bond_site_symmetry_2
_ccdc_geom_bond_type
Zn0 O6 1.969 . S
Zn0 O7 1.965 . S
Zn0 O11 2.024 . S
Zn0 O16 1.969 . S
Zn1 O8 1.969 . S
Zn1 O14 1.969 1_554 S
Zn1 O15 1.965 . S
Zn1 O17 2.024 . S
C2 O3 1.229 . S
C2 O11 1.058 . S
O3 C2 1.229 . S
C4 O5 1.229 1_554 S
C4 O17 1.058 . S
O5 C4 1.229 1_556 S
O6 Zn0 1.969 . S
O6 C9 1.267 . S
O7 Zn0 1.965 . S
O7 C18 1.260 . S
O8 Zn1 1.969 . S
O8 C18 1.258 . S
C9 O6 1.267 . S
C9 O10 1.228 . S
O10 C9 1.228 . S
O11 Zn0 2.024 . S
O11 C2 1.058 . S
C12 O13 1.228 . S
C12 O14 1.267 . S
O13 C12 1.228 . S
O14 Zn1 1.969 1_556 S
O14 C12 1.267 . S
O15 Zn1 1.965 . S
O15 C19 1.260 . S
O16 Zn0 1.969 . S
O16 C19 1.258 . S
O17 Zn1 2.024 . S
O17 C4 1.058 . S
C18 O7 1.260 . S
C18 O8 1.258 . S
C19 O15 1.260 . S
C19 O16 1.258 . S
Zn20 O26 1.969 . S
Zn20 O27 1.965 . S
Zn20 O31 2.024 . S
Zn20 O36 1.969 . S
Zn21 O28 1.969 . S
Zn21 O34 1.969 . S
Zn21 O35 1.965 . S
Zn21 O37 2.024 . S
C22 O23 1.229 . S
C22 O31 1.058 . S
O23 C22 1.229 . S
C24 O25 1.229 . S
C24 O37 1.058 . S
O25 C24 1.229 . S
O26 Zn20 1.969 . S
O26 C29 1.267 . S
O27 Zn20 1.965 . S
O27 C38 1.260 . S
O28 Zn21 1.969 . S
O28 C38 1.258 . S
C29 O26 1.267 . S
C29 O30 1.228 . S
O30 C29 1.228 . S
O31 Zn20 2.024 . S
O31 C22 1.058 . S
C32 O33 1.228 . S
C32 O34 1.267 . S
O33 C32 1.228 . S
O34 Zn21 1.969 . S
O34 C32 1.267 . S
O35 Zn21 1.965 . S
O35 C39 1.260 . S
O36 Zn20 1.969 . S
O36 C39 1.258 . S
O37 Zn21 2.024 . S
O37 C24 1.058 . S
C38 O27 1.260 . S
C38 O28 1.258 . S
C39 O35 1.260 . S
C39 O36 1.258 . S
Zn40 O46 1.969 . S
Zn40 O47 1.965 . S
Zn40 O51 2.024 . S
Zn40 O56 1.969 . S
Zn41 O48 1.969 . S
Zn41 O54 1.969 . S
Zn41 O55 1.965 . S
Zn41 O57 2.024 . S
C42 O43 1.229 . S
C42 O51 1.058 . S
O43 C42 1.229 . S
C44 O45 1.229 . S
C44 O57 1.058 . S
O45 C44 1.229 . S
O46 Zn40 1.969 . S
O46 C49 1.267 . S
O47 Zn40 1.965 . S
O47 C58 1.260 . S
O48 Zn41 1.969 . S
O48 C58 1.258 . S
C49 O46 1.267 . S
C49 O50 1.228 . S
O50 C49 1.228 . S
O51 Zn40 2.024 . S
O51 C42 1.058 . S
C52 O53 1.228 . S
C52 O54 1.267 . S
O53 C52 1.228 . S
O54 Zn41 1.969 . S
O54 C52 1.267 . S
O55 Zn41 1.965 . S
O55 C59 1.260 . S
O56 Zn40 1.969 . S
O56 C59 1.258 . S
O57 Zn41 2.024 . S
O57 C44 1.058 . S
C58 O47 1.260 . S
C58 O48 1.258 . S
C59 O55 1.260 . S
C59 O56 1.258 . S
Zn60 O66 1.969 . S
Zn60 O67 1.965 . S
Zn60 O71 2.024 . S
Zn60 O76 1.969 1_554 S
Zn61 O68 1.969 . S
Zn61 O74 1.969 . S
Zn61 O75 1.965 . S
Zn61 O77 2.024 . S
C62 O63 1.229 . S
C62 O71 1.058 . S
O63 C62 1.229 . S
C64 O65 1.229 . S
C64 O77 1.058 . S
O65 C64 1.229 . S
O66 Zn60 1.969 . S
O66 C69 1.267 . S
O67 Zn60 1.965 . S
O67 C78 1.260 1_554 S
O68 Zn61 1.969 . S
O68 C78 1.258 . S
C69 O66 1.267 . S
C69 O70 1.228 . S
O70 C69 1.228 . S
O71 Zn60 2.024 . S
O71 C62 1.058 . S
C72 O73 1.228 . S
C72 O74 1.267 . S
O73 C72 1.228 . S
O74 Zn61 1.969 . S
O74 C72 1.267 . S
O75 Zn61 1.965 . S
O75 C79 1.260 . S
O76 Zn60 1.969 1_556 S
O76 C79 1.258 . S
O77 Zn61 2.024 . S
O77 C64 1.058 . S
C78 O67 1.260 1_556 S
C78 O68 1.258 . S
C79 O75 1.260 . S
C79 O76 1.258 . S
Zn80 O86 1.969 . S
Zn80 O87 1.965 . S
Zn80 O91 2.024 . S
Zn80 O96 1.969 1_554 S
Zn81 O88 1.969 . S
Zn81 O94 1.969 . S
Zn81 O95 1.965 . S
Zn81 O97 2.024 . S
C82 O83 1.229 . S
C82 O91 1.058 . S
O83 C82 1.229 . S
C84 O85 1.229 . S
C84 O97 1.058 . S
O85 C84 1.229 . S
O86 Zn80 1.969 . S
O86 C89 1.267 . S
O87 Zn80 1.965 . S
O87 C98 1.260 1_554 S
O88 Zn81 1.969 . S
O88 C98 1.258 . S
C89 O86 1.267 . S
C89 O90 1.228 . S
O90 C89 1.228 . S
O91 Zn80 2.024 . S
O91 C82 1.058 . S
C92 O93 1.228 . S
C92 O94 1.267 . S
O93 C92 1.228 . S
O94 Zn81 1.969 . S
O94 C92 1.267 . S
O95 Zn81 1.965 . S
O95 C99 1.260 . S
O96 Zn80 1.969 1_556 S
O96 C99 1.258 . S
O97 Zn81 2.024 . S
O97 C84 1.058 . S
C98 O87 1.260 1_556 S
C98 O88 1.258 . S
C99 O95 1.260 . S
C99 O96 1.258 . S
Zn100 O106 1.969 . S
Zn100 O107 1.965 . S
Zn100 O111 2.024 . S
Zn100 O116 1.969 . S
Zn101 O108 1.969 . S
Zn101 O114 1.969 1_554 S
Zn101 O115 1.965 . S
Zn101 O117 2.024 . S
C102 O103 1.229 . S
C102 O111 1.058 . S
O103 C102 1.229 . S
C104 O105 1.229 . S
C104 O117 1.058 . S
O105 C104 1.229 . S
O106 Zn100 1.969 . S
O106 C109 1.267 . S
O107 Zn100 1.965 . S
O107 C118 1.260 . S
O108 Zn101 1.969 . S
O108 C118 1.258 . S
C109 O106 1.267 . S
C109 O110 1.228 . S
O110 C109 1.228 . S
O111 Zn100 2.024 . S
O111 C102 1.058 . S
C112 O113 1.228 . S
C112 O114 1.267 . S
O113 C112 1.228 . S
O114 Zn101 1.969 1_556 S
O114 C112 1.267 . S
O115 Zn101 1.965 . S
O115 C119 1.260 . S
O116 Zn100 1.969 . S
O116 C119 1.258 . S
O117 Zn101 2.024 . S
O117 C104 1.058 . S
C118 O107 1.260 . S
C118 O108 1.258 . S
C119 O115 1.260 . S
C119 O116 1.258 . S
Zn120 O126 1.969 . S
Zn120 O127 1.965 . S
Zn120 O131 2.024 . S
Zn120 O136 1.969 . S
Zn121 O128 1.969 . S
Zn121 O134 1.969 . S
Zn121 O135 1.965 . S
Zn121 O137 2.024 . S
C122 O123 1.229 . S
C122 O131 1.058 . S
O123 C122 1.229 . S
C124 O125 1.229 . S
C124 O137 1.058 . S
O125 C124 1.229 . S
O126 Zn120 1.969 . S
O126 C129 1.267 . S
O127 Zn120 1.965 . S
O127 C138 1.260 . S
O128 Zn121 1.969 . S
O128 C138 1.258 . S
C129 O126 1.267 . S
C129 O130 1.228 . S
O130 C129 1.228 . S
O131 Zn120 2.024 . S
O131 C122 1.058 . S
C132 O133 1.228 . S
C132 O134 1.267 . S
O133 C132 1.228 . S
O134 Zn121 1.969 . S
O134 C132 1.267 . S
O135 Zn121 1.965 . S
O135 C139 1.260 . S
O136 Zn120 1.969 . S
O136 C139 1.258 . S
O137 Zn121 2.024 . S
O137 C124 1.058 . S
C138 O127 1.260 . S
C138 O128 1.258 . S
C139 O135 1.260 . S
C139 O136 1.258 . S
Zn140 O146 1.969 . S
Zn140 O147 1.965 . S
Zn140 O151 2.024 . S
Zn140 O156 1.969 . S
Zn141 O148 1.969 . S
Zn141 O154 1.969 . S
Zn141 O155 1.965 . S
Zn141 O157 2.024 . S
C142 O143 1.229 . S
C142 O151 1.058 . S
O143 C142 1.229 . S
C144 O145 1.229 . S
C144 O157 1.058 . S
O145 C144 1.229 . S
O146 Zn140 1.969 . S
O146 C149 1.267 . S
O147 Zn140 1.965 . S
O147 C158 1.260 . S
O148 Zn141 1.969 . S
O148 C158 1.258 . S
C149 O146 1.267 . S
C149 O150 1.228 . S
O150 C149 1.228 . S
O151 Zn140 2.024 . S
O151 C142 1.058 . S
C152 O153 1.228 . S
C152 O154 1.267 . S
O153 C152 1.228 . S
O154 Zn141 1.969 . S
O154 C152 1.267 . S
O155 Zn141 1.965 . S
O155 C159 1.260 . S
O156 Zn140 1.969 . S
O156 C159 1.258 . S
O157 Zn141 2.024 . S
O157 C144 1.058 . S
C158 O147 1.260 . S
C158 O148 1.258 . S
C159 O155 1.260 . S
C159 O156 1.258 . S
Zn160 O166 1.969 1_556 S
Zn160 O167 1.965 . S
Zn160 O171 2.024 . S
Zn160 O176 1.969 . S
Zn161 O168 1.969 . S
Zn161 O174 1.969 . S
Zn161 O175 1.965 . S
Zn161 O177 2.024 . S
C162 O163 1.229 1_556 S
C162 O171 1.058 . S
O163 C162 1.229 1_554 S
C164 O165 1.229 . S
C164 O177 1.058 . S
O165 C164 1.229 . S
O166 Zn160 1.969 1_554 S
O166 C169 1.267 . S
O167 Zn160 1.965 . S
O167 C178 1.260 . S
O168 Zn161 1.969 . S
O168 C178 1.258 . S
C169 O166 1.267 . S
C169 O170 1.228 . S
O170 C169 1.228 . S
O171 Zn160 2.024 . S
O171 C162 1.058 . S
C172 O173 1.228 . S
C172 O174 1.267 . S
O173 C172 1.228 . S
O174 Zn161 1.969 . S
O174 C172 1.267 . S
O175 Zn161 1.965 . S
O175 C179 1.260 . S
O176 Zn160 1.969 . S
O176 C179 1.258 . S
O177 Zn161 2.024 . S
O177 C164 1.058 . S
C178 O167 1.260 . S
C178 O168 1.258 . S
C179 O175 1.260 . S
C179 O176 1.258 . S
Zn180 O186 1.969 . S
Zn180 O187 1.965 . S
Zn180 O191 2.024 . S
Zn180 O196 1.969 . S
Zn181 O188 1.969 . S
Zn181 O194 1.969 . S
Zn181 O195 1.965 . S
Zn181 O197 2.024 . S
C182 O183 1.229 . S
C182 O191 1.058 . S
O183 C182 1.229 . S
C184 O185 1.229 . S
C184 O197 1.058 . S
O185 C184 1.229 . S
O186 Zn180 1.969 . S
O186 C189 1.267 . S
O187 Zn180 1.965 . S
O187 C198 1.260 . S
O188 Zn181 1.969 . S
O188 C198 1.258 . S
C189 O186 1.267 . S
C189 O190 1.228 . S
O190 C189 1.228 . S
O191 Zn180 2.024 . S
O191 C182 1.058 . S
C192 O193 1.228 . S
C192 O194 1.267 . S
O193 C192 1.228 . S
O194 Zn181 1.969 . S
O194 C192 1.267 . S
O195 Zn181 1.965 . S
O195 C199 1.260 . S
O196 Zn180 1.969 . S
O196 C199 1.258 . S
O197 Zn181 2.024 . S
O197 C184 1.058 . S
C198 O187 1.260 . S
C198 O188 1.258 . S
C199 O195 1.260 . S
C199 O196 1.258 . S
Zn200 O206 1.969 . S
Zn200 O207 1.965 . S
Zn200 O211 2.024 . S
Zn200 O216 1.969 . S
Zn201 O208 1.969 . S
Zn201 O214 1.969 . S
Zn201 O215 1.965 . S
Zn201 O217 2.024 . S
C202 O203 1.229 . S
C202 O211 1.058 . S
O203 C202 1.229 . S
C204 O205 1.229 . S
C204 O217 1.058 . S
O205 C204 1.229 . S
O206 Zn200 1.969 . S
O206 C209 1.267 . S
O207 Zn200 1.965 . S
O207 C218 1.260 . S
O208 Zn201 1.969 . S
O208 C218 1.258 . S
C209 O206 1.267 . S
C209 O210 1.228 . S
O210 C209 1.228 . S
O211 Zn200 2.024 . S
O211 C202 1.058 . S
C212 O213 1.228 . S
C212 O214 1.267 . S
O213 C212 1.228 . S
O214 Zn201 1.969 . S
O214 C212 1.267 . S
O215 Zn201 1.965 . S
O215 C219 1.260 . S
O216 Zn200 1.969 . S
O216 C219 1.258 . S
O217 Zn201 2.024 . S
O217 C204 1.058 . S
C218 O207 1.260 . S
C218 O208 1.258 . S
C219 O215 1.260 . S
C219 O216 1.258 . S
Zn220 O226 1.969 . S
Zn220 O227 1.965 . S
Zn220 O231 2.024 . S
Zn220 O236 1.969 . S
Zn221 O228 1.969 1_556 S
Zn221 O234 1.969 . S
Zn221 O235 1.965 1_556 S
Zn221 O237 2.024 1_556 S
C222 O223 1.229 . S
C222 O231 1.058 . S
O223 C222 1.229 . S
C224 O225 1.229 . S
C224 O237 1.058 1_556 S
O225 C224 1.229 . S
O226 Zn220 1.969 . S
O226 C229 1.267 . S
O227 Zn220 1.965 . S
O227 C238 1.260 . S
O228 Zn221 1.969 1_554 S
O228 C238 1.258 . S
C229 O226 1.267 . S
C229 O230 1.228 . S
O230 C229 1.228 . S
O231 Zn220 2.024 . S
O231 C222 1.058 . S
C232 O233 1.228 . S
C232 O234 1.267 . S
O233 C232 1.228 . S
O234 Zn221 1.969 . S
O234 C232 1.267 . S
O235 Zn221 1.965 1_554 S
O235 C239 1.260 . S
O236 Zn220 1.969 . S
O236 C239 1.258 . S
O237 Zn221 2.024 1_554 S
O237 C224 1.058 1_554 S
C238 O227 1.260 . S
C238 O228 1.258 . S
C239 O235 1.260 . S
C239 O236 1.258 . S
Zn240 O246 1.969 . S
Zn240 O247 1.965 . S
Zn240 O251 2.024 . S
Zn240 O256 1.969 . S
Zn241 O248 1.969 1_556 S
Zn241 O254 1.969 . S
Zn241 O255 1.965 . S
Zn241 O257 2.024 . S
C242 O243 1.229 . S
C242 O251 1.058 . S
O243 C242 1.229 . S
C244 O245 1.229 . S
C244 O257 1.058 . S
O245 C244 1.229 . S
O246 Zn240 1.969 . S
O246 C249 1.267 . S
O247 Zn240 1.965 . S
O247 C258 1.260 . S
O248 Zn241 1.969 1_554 S
O248 C258 1.258 . S
C249 O246 1.267 . S
C249 O250 1.228 . S
O250 C249 1.228 . S
O251 Zn240 2.024 . S
O251 C242 1.058 . S
C252 O253 1.228 . S
C252 O254 1.267 . S
O253 C252 1.228 . S
O254 Zn241 1.969 . S
O254 C252 1.267 . S
O255 Zn241 1.965 . S
O255 C259 1.260 1_556 S
O256 Zn240 1.969 . S
O256 C259 1.258 . S
O257 Zn241 2.024 . S
O257 C244 1.058 . S
C258 O247 1.260 . S
C258 O248 1.258 . S
C259 O255 1.260 1_554 S
C259 O256 1.258 . S
Zn260 O266 1.969 1_556 S
Zn260 O267 1.965 . S
Zn260 O271 2.024 . S
Zn260 O276 1.969 . S
Zn261 O268 1.969 . S
Zn261 O274 1.969 . S
Zn261 O275 1.965 . S
Zn261 O277 2.024 . S
C262 O263 1.229 1_556 S
C262 O271 1.058 . S
O263 C262 1.229 1_554 S
C264 O265 1.229 . S
C264 O277 1.058 . S
O265 C264 1.229 . S
O266 Zn260 1.969 1_554 S
O266 C269 1.267 . S
O267 Zn260 1.965 . S
O267 C278 1.260 . S
O268 Zn261 1.969 . S
O268 C278 1.258 . S
C269 O266 1.267 . S
C269 O270 1.228 . S
O270 C269 1.228 . S
O271 Zn260 2.024 . S
O271 C262 1.058 . S
C272 O273 1.228 . S
C272 O274 1.267 . S
O273 C272 1.228 . S
O274 Zn261 1.969 . S
O274 C272 1.267 . S
O275 Zn261 1.965 . S
O275 C279 1.260 . S
O276 Zn260 1.969 . S
O276 C279 1.258 . S
O277 Zn261 2.024 . S
O277 C264 1.058 . S
C278 O267 1.260 . S
C278 O268 1.258 . S
C279 O275 1.260 . S
C279 O276 1.258 . S
Zn280 O286 1.969 . S
Zn280 O287 1.965 . S
Zn280 O291 2.024 . S
Zn280 O296 1.969 . S
Zn281 O288 1.969 . S
Zn281 O294 1.969 . S
Zn281 O295 1.965 . S
Zn281 O297 2.024 . S
C282 O283 1.229 . S
C282 O291 1.058 . S
O283 C282 1.229 . S
C284 O285 1.229 . S
C284 O297 1.058 . S
O285 C284 1.229 . S
O286 Zn280 1.969 . S
O286 C289 1.267 . S
O287 Zn280 1.965 . S
O287 C298 1.260 . S
O288 Zn281 1.969 . S
O288 C298 1.258 . S
C289 O286 1.267 . S
C289 O290 1.228 . S
O290 C289 1.228 . S
O291 Zn280 2.024 . S
O291 C282 1.058 . S
C292 O293 1.228 . S
C292 O294 1.267 . S
O293 C292 1.228 . S
O294 Zn281 1.969 . S
O294 C292 1.267 . S
O295 Zn281 1.965 . S
O295 C299 1.260 . S
O296 Zn280 1.969 . S
O296 C299 1.258 . S
O297 Zn281 2.024 . S
O297 C284 1.058 . S
C298 O287 1.260 . S
C298 O288 1.258 . S
C299 O295 1.260 . S
C299 O296 1.258 . S
Zn300 O306 1.969 . S
Zn300 O307 1.965 . S
Zn300 O311 2.024 . S
Zn300 O316 1.969 . S
Zn301 O308 1.969 . S
Zn301 O314 1.969 . S
Zn301 O315 1.965 . S
Zn301 O317 2.024 . S
C302 O303 1.229 . S
C302 O311 1.058 . S
O303 C302 1.229 . S
C304 O305 1.229 . S
C304 O317 1.058 . S
O305 C304 1.229 . S
O306 Zn300 1.969 . S
O306 C309 1.268 1_554 S
O307 Zn300 1.965 . S
O307 C318 1.260 . S
O308 Zn301 1.969 . S
O308 C318 1.258 . S
C309 O306 1.268 1_556 S
C309 O310 1.228 1_556 S
O310 C309 1.228 1_554 S
O311 Zn300 2.024 . S
O311 C302 1.058 . S
C312 O313 1.228 . S
C312 O314 1.267 . S
O313 C312 1.228 . S
O314 Zn301 1.969 . S
O314 C312 1.267 . S
O315 Zn301 1.965 . S
O315 C319 1.260 . S
O316 Zn300 1.969 . S
O316 C319 1.258 . S
O317 Zn301 2.024 . S
O317 C304 1.058 . S
C318 O307 1.260 . S
C318 O308 1.258 . S
C319 O315 1.260 . S
C319 O316 1.258 . S
C320 C321 1.369 . S
C320 C322 1.419 . S
C320 H324 0.930 . S
C321 C320 1.369 . S
C321 C330 1.429 . S
C322 C320 1.419 . S
C322 C323 1.363 . S
C322 H325 0.929 . S
C323 C322 1.363 . S
C323 C329 1.428 . S
H324 C320 0.930 . S
H325 C322 0.929 . S
S326 N327 1.613 . S
S326 N328 1.610 . S
N327 S326 1.613 . S
N327 C330 1.350 . S
N328 S326 1.610 . S
N328 C329 1.351 . S
C329 C323 1.428 . S
C329 N328 1.351 . S
C329 C330 1.434 . S
C330 C321 1.429 . S
C330 N327 1.350 . S
C330 C329 1.434 . S
C331 C332 1.369 . S
C331 C333 1.419 . S
C331 H335 0.930 . S
C332 C331 1.369 . S
C332 C341 1.429 . S
C333 C331 1.419 . S
C333 C334 1.363 . S
C333 H336 0.929 . S
C334 C333 1.363 . S
C334 C340 1.428 . S
H335 C331 0.930 . S
H336 C333 0.929 . S
S337 N338 1.613 . S
S337 N339 1.610 . S
N338 S337 1.613 . S
N338 C341 1.350 . S
N339 S337 1.610 . S
N339 C340 1.351 . S
C340 C334 1.428 . S
C340 N339 1.351 . S
C340 C341 1.434 . S
C341 C332 1.429 . S
C341 N338 1.350 . S
C341 C340 1.434 . S
C342 C343 1.369 . S
C342 C344 1.419 . S
C342 H346 0.930 . S
C343 C342 1.369 . S
C343 C352 1.429 . S
C344 C342 1.419 . S
C344 C345 1.363 . S
C344 H347 0.929 . S
C345 C344 1.363 . S
C345 C351 1.428 . S
H346 C342 0.930 . S
H347 C344 0.929 . S
S348 N349 1.613 . S
S348 N350 1.610 . S
N349 S348 1.613 . S
N349 C352 1.350 . S
N350 S348 1.610 . S
N350 C351 1.351 . S
C351 C345 1.428 . S
C351 N350 1.351 . S
C351 C352 1.434 . S
C352 C343 1.429 . S
C352 N349 1.350 . S
C352 C351 1.434 . S
C353 C354 1.369 . S
C353 C355 1.419 . S
C353 H357 0.930 . S
C354 C353 1.369 . S
C354 C363 1.429 . S
C355 C353 1.419 . S
C355 C356 1.363 . S
C355 H358 0.929 . S
C356 C355 1.363 . S
C356 C362 1.428 . S
H357 C353 0.930 . S
H358 C355 0.929 . S
S359 N360 1.613 . S
S359 N361 1.610 . S
N360 S359 1.613 . S
N360 C363 1.350 . S
N361 S359 1.610 . S
N361 C362 1.351 . S
C362 C356 1.428 . S
C362 N361 1.351 . S
C362 C363 1.434 . S
C363 C354 1.429 . S
C363 N360 1.350 . S
C363 C362 1.434 . S
C364 C365 1.369 . S
C364 C366 1.419 . S
C364 H368 0.930 . S
C365 C364 1.369 . S
C365 C374 1.429 . S
C366 C364 1.419 . S
C366 C367 1.363 . S
C366 H369 0.929 . S
C367 C366 1.363 . S
C367 C373 1.428 . S
H368 C364 0.930 . S
H369 C366 0.929 . S
S370 N371 1.613 . S
S370 N372 1.610 . S
N371 S370 1.613 . S
N371 C374 1.350 . S
N372 S370 1.610 . S
N372 C373 1.351 . S
C373 C367 1.428 . S
C373 N372 1.351 . S
C373 C374 1.434 . S
C374 C365 1.429 . S
C374 N371 1.350 . S
C374 C373 1.434 . S
C375 C376 1.369 . S
C375 C377 1.419 . S
C375 H379 0.930 . S
C376 C375 1.369 . S
C376 C385 1.429 . S
C377 C375 1.419 . S
C377 C378 1.363 . S
C377 H380 0.929 . S
C378 C377 1.363 . S
C378 C384 1.428 . S
H379 C375 0.930 . S
H380 C377 0.929 . S
S381 N382 1.613 . S
S381 N383 1.610 . S
N382 S381 1.613 . S
N382 C385 1.350 . S
N383 S381 1.610 . S
N383 C384 1.351 . S
C384 C378 1.428 . S
C384 N383 1.351 . S
C384 C385 1.434 . S
C385 C376 1.429 . S
C385 N382 1.350 . S
C385 C384 1.434 . S
C386 C387 1.369 . S
C386 C388 1.419 . S
C386 H390 0.930 . S
C387 C386 1.369 . S
C387 C396 1.429 . S
C388 C386 1.419 . S
C388 C389 1.363 . S
C388 H391 0.929 . S
C389 C388 1.363 . S
C389 C395 1.428 . S
H390 C386 0.930 . S
H391 C388 0.929 . S
S392 N393 1.613 . S
S392 N394 1.610 . S
N393 S392 1.613 . S
N393 C396 1.350 . S
N394 S392 1.610 . S
N394 C395 1.351 . S
C395 C389 1.428 . S
C395 N394 1.351 . S
C395 C396 1.434 . S
C396 C387 1.429 . S
C396 N393 1.350 . S
C396 C395 1.434 . S
C397 C398 1.369 . S
C397 C399 1.419 . S
C397 H401 0.930 . S
C398 C397 1.369 . S
C398 C407 1.429 . S
C399 C397 1.419 . S
C399 C400 1.363 . S
C399 H402 0.929 . S
C400 C399 1.363 . S
C400 C406 1.428 . S
H401 C397 0.930 . S
H402 C399 0.929 . S
S403 N404 1.613 . S
S403 N405 1.610 . S
N404 S403 1.613 . S
N404 C407 1.350 . S
N405 S403 1.610 . S
N405 C406 1.351 . S
C406 C400 1.428 . S
C406 N405 1.351 . S
C406 C407 1.434 . S
C407 C398 1.429 . S
C407 N404 1.350 . S
C407 C406 1.434 . S
C408 C409 1.369 . S
C408 C410 1.419 . S
C408 H412 0.930 . S
C409 C408 1.369 . S
C409 C418 1.429 . S
C410 C408 1.419 . S
C410 C411 1.363 . S
C410 H413 0.929 . S
C411 C410 1.363 . S
C411 C417 1.428 . S
H412 C408 0.930 . S
H413 C410 0.929 . S
S414 N415 1.613 . S
S414 N416 1.610 . S
N415 S414 1.613 . S
N415 C418 1.350 . S
N416 S414 1.610 . S
N416 C417 1.351 . S
C417 C411 1.428 . S
C417 N416 1.351 . S
C417 C418 1.434 . S
C418 C409 1.429 . S
C418 N415 1.350 . S
C418 C417 1.434 . S
C419 C420 1.369 . S
C419 C421 1.419 . S
C419 H423 0.930 . S
C420 C419 1.369 . S
C420 C429 1.429 . S
C421 C419 1.419 . S
C421 C422 1.363 . S
C421 H424 0.929 . S
C422 C421 1.363 . S
C422 C428 1.428 . S
H423 C419 0.930 . S
H424 C421 0.929 . S
S425 N426 1.613 . S
S425 N427 1.610 . S
N426 S425 1.613 . S
N426 C429 1.350 . S
N427 S425 1.610 . S
N427 C428 1.351 . S
C428 C422 1.428 . S
C428 N427 1.351 . S
C428 C429 1.434 . S
C429 C420 1.429 . S
C429 N426 1.350 . S
C429 C428 1.434 . S
C430 C431 1.369 . S
C430 C432 1.419 . S
C430 H434 0.930 . S
C431 C430 1.369 . S
C431 C440 1.429 . S
C432 C430 1.419 . S
C432 C433 1.363 . S
C432 H435 0.929 . S
C433 C432 1.363 . S
C433 C439 1.428 . S
H434 C430 0.930 . S
H435 C432 0.929 . S
S436 N437 1.613 . S
S436 N438 1.610 . S
N437 S436 1.613 . S
N437 C440 1.350 . S
N438 S436 1.610 . S
N438 C439 1.351 . S
C439 C433 1.428 . S
C439 N438 1.351 . S
C439 C440 1.434 . S
C440 C431 1.429 . S
C440 N437 1.350 . S
C440 C439 1.434 . S
C441 C442 1.369 . S
C441 C443 1.419 . S
C441 H445 0.930 . S
C442 C441 1.369 . S
C442 C451 1.429 . S
C443 C441 1.419 . S
C443 C444 1.363 . S
C443 H446 0.929 . S
C444 C443 1.363 . S
C444 C450 1.428 . S
H445 C441 0.930 . S
H446 C443 0.929 . S
S447 N448 1.613 . S
S447 N449 1.610 . S
N448 S447 1.613 . S
N448 C451 1.350 . S
N449 S447 1.610 . S
N449 C450 1.351 . S
C450 C444 1.428 . S
C450 N449 1.351 . S
C450 C451 1.434 . S
C451 C442 1.429 . S
C451 N448 1.350 . S
C451 C450 1.434 . S
C452 C453 1.369 . S
C452 C454 1.419 . S
C452 H456 0.930 . S
C453 C452 1.369 . S
C453 C462 1.429 . S
C454 C452 1.419 . S
C454 C455 1.363 . S
C454 H457 0.929 . S
C455 C454 1.363 . S
C455 C461 1.428 . S
H456 C452 0.930 . S
H457 C454 0.929 . S
S458 N459 1.613 . S
S458 N460 1.610 . S
N459 S458 1.613 . S
N459 C462 1.350 . S
N460 S458 1.610 . S
N460 C461 1.351 . S
C461 C455 1.428 . S
C461 N460 1.351 . S
C461 C462 1.434 . S
C462 C453 1.429 . S
C462 N459 1.350 . S
C462 C461 1.434 . S
C463 C464 1.369 . S
C463 C465 1.419 . S
C463 H467 0.930 . S
C464 C463 1.369 . S
C464 C473 1.429 . S
C465 C463 1.419 . S
C465 C466 1.363 . S
C465 H468 0.929 . S
C466 C465 1.363 . S
C466 C472 1.428 . S
H467 C463 0.930 . S
H468 C465 0.929 . S
S469 N470 1.613 . S
S469 N471 1.610 . S
N470 S469 1.613 . S
N470 C473 1.350 . S
N471 S469 1.610 . S
N471 C472 1.351 . S
C472 C466 1.428 . S
C472 N471 1.351 . S
C472 C473 1.434 . S
C473 C464 1.429 . S
C473 N470 1.350 . S
C473 C472 1.434 . S
C474 C475 1.369 . S
C474 C476 1.419 . S
C474 H478 0.930 . S
C475 C474 1.369 . S
C475 C484 1.429 . S
C476 C474 1.419 . S
C476 C477 1.363 1_554 S
C476 H479 0.929 . S
C477 C476 1.363 1_556 S
C477 C483 1.428 1_556 S
H478 C474 0.930 . S
H479 C476 0.929 . S
S480 N481 1.613 . S
S480 N482 1.610 1_554 S
N481 S480 1.613 . S
N481 C484 1.350 . S
N482 S480 1.610 1_556 S
N482 C483 1.351 1_556 S
C483 C477 1.428 1_554 S
C483 N482 1.351 1_554 S
C483 C484 1.434 . S
C484 C475 1.429 . S
C484 N481 1.350 . S
C484 C483 1.434 . S
C485 C486 1.369 . S
C485 C487 1.419 . S
C485 H489 0.930 . S
C486 C485 1.369 . S
C486 C495 1.429 . S
C487 C485 1.419 . S
C487 C488 1.363 . S
C487 H490 0.929 . S
C488 C487 1.363 . S
C488 C494 1.428 . S
H489 C485 0.930 . S
H490 C487 0.929 . S
S491 N492 1.613 . S
S491 N493 1.610 . S
N492 S491 1.613 . S
N492 C495 1.350 . S
N493 S491 1.610 . S
N493 C494 1.351 . S
C494 C488 1.428 . S
C494 N493 1.351 . S
C494 C495 1.434 . S
C495 C486 1.429 . S
C495 N492 1.350 . S
C495 C494 1.434 . S
C496 C497 1.369 . S
C496 C498 1.419 . S
C496 H500 0.930 . S
C497 C496 1.369 . S
C497 C506 1.429 . S
C498 C496 1.419 . S
C498 C499 1.363 . S
C498 H501 0.929 . S
C499 C498 1.363 . S
C499 C505 1.428 . S
H500 C496 0.930 . S
H501 C498 0.929 . S
S502 N503 1.613 . S
S502 N504 1.610 . S
N503 S502 1.613 . S
N503 C506 1.350 . S
N504 S502 1.610 . S
N504 C505 1.351 . S
C505 C499 1.428 . S
C505 N504 1.351 . S
C505 C506 1.434 . S
C506 C497 1.429 . S
C506 N503 1.350 . S
C506 C505 1.434 . S
C507 C508 1.369 . S
C507 C509 1.419 . S
C507 H511 0.930 . S
C508 C507 1.369 . S
C508 C517 1.429 . S
C509 C507 1.419 . S
C509 C510 1.363 . S
C509 H512 0.929 . S
C510 C509 1.363 . S
C510 C516 1.428 . S
H511 C507 0.930 . S
H512 C509 0.929 . S
S513 N514 1.613 . S
S513 N515 1.610 . S
N514 S513 1.613 . S
N514 C517 1.350 . S
N515 S513 1.610 . S
N515 C516 1.351 . S
C516 C510 1.428 . S
C516 N515 1.351 . S
C516 C517 1.434 . S
C517 C508 1.429 . S
C517 N514 1.350 . S
C517 C516 1.434 . S
C518 C519 1.369 . S
C518 C520 1.419 . S
C518 H522 0.930 . S
C519 C518 1.369 . S
C519 C528 1.429 . S
C520 C518 1.419 . S
C520 C521 1.363 . S
C520 H523 0.929 . S
C521 C520 1.363 . S
C521 C527 1.428 . S
H522 C518 0.930 . S
H523 C520 0.929 . S
S524 N525 1.613 . S
S524 N526 1.610 . S
N525 S524 1.613 . S
N525 C528 1.350 . S
N526 S524 1.610 . S
N526 C527 1.351 . S
C527 C521 1.428 . S
C527 N526 1.351 . S
C527 C528 1.434 . S
C528 C519 1.429 . S
C528 N525 1.350 . S
C528 C527 1.434 . S
C529 C530 1.371 . S
C529 C531 1.419 . S
C529 H533 0.928 1_556 S
C530 C529 1.371 . S
C530 C539 1.429 . S
C531 C529 1.419 . S
C531 C532 1.363 1_655 S
C531 H534 0.929 1_656 S
C532 C531 1.363 1_455 S
C532 C538 1.428 1_455 S
H533 C529 0.928 1_554 S
H534 C531 0.929 1_454 S
S535 N536 1.613 . S
S535 N537 1.610 1_655 S
N536 S535 1.613 . S
N536 C539 1.350 . S
N537 S535 1.610 1_455 S
N537 C538 1.351 1_455 S
C538 C532 1.428 1_655 S
C538 N537 1.351 1_655 S
C538 C539 1.434 . S
C539 C530 1.429 . S
C539 N536 1.350 . S
C539 C538 1.434 . S
C540 C541 1.369 . S
C540 C542 1.419 . S
C540 H544 0.930 . S
C541 C540 1.369 . S
C541 C550 1.429 . S
C542 C540 1.419 . S
C542 C543 1.363 . S
C542 H545 0.929 . S
C543 C542 1.363 . S
C543 C549 1.428 . S
H544 C540 0.930 . S
H545 C542 0.929 . S
S546 N547 1.613 . S
S546 N548 1.610 . S
N547 S546 1.613 . S
N547 C550 1.350 . S
N548 S546 1.610 . S
N548 C549 1.351 . S
C549 C543 1.428 . S
C549 N548 1.351 . S
C549 C550 1.434 . S
C550 C541 1.429 . S
C550 N547 1.350 . S
C550 C549 1.434 . S
C551 C552 1.369 . S
C551 C553 1.419 . S
C551 H555 0.930 . S
C552 C551 1.369 . S
C552 C561 1.429 . S
C553 C551 1.419 . S
C553 C554 1.363 1_455 S
C553 H556 0.937 . S
C554 C553 1.363 1_655 S
C554 C560 1.428 1_655 S
H555 C551 0.930 . S
H556 C553 0.937 . S
S557 N558 1.613 . S
S557 N559 1.613 . S
N558 S557 1.613 . S
N558 C561 1.350 . S
N559 S557 1.613 . S
N559 C560 1.352 . S
C560 C554 1.428 1_455 S
C560 N559 1.352 . S
C560 C561 1.434 . S
C561 C552 1.429 . S
C561 N558 1.350 . S
C561 C560 1.434 . S
C562 C563 1.369 . S
C562 C564 1.419 . S
C562 H566 0.930 . S
C563 C562 1.369 . S
C563 C572 1.429 . S
C564 C562 1.419 . S
C564 C565 1.363 . S
C564 H567 0.929 . S
C565 C564 1.363 . S
C565 C571 1.428 . S
H566 C562 0.930 . S
H567 C564 0.929 . S
S568 N569 1.613 . S
S568 N570 1.610 . S
N569 S568 1.613 . S
N569 C572 1.350 . S
N570 S568 1.610 . S
N570 C571 1.351 . S
C571 C565 1.428 . S
C571 N570 1.351 . S
C571 C572 1.434 . S
C572 C563 1.429 . S
C572 N569 1.350 . S
C572 C571 1.434 . S
C573 C574 1.369 . S
C573 C575 1.419 . S
C573 H577 0.930 . S
C574 C573 1.369 . S
C574 C583 1.429 . S
C575 C573 1.419 . S
C575 C576 1.363 . S
C575 H578 0.929 . S
C576 C575 1.363 . S
C576 C582 1.428 . S
H577 C573 0.930 . S
H578 C575 0.929 . S
S579 N580 1.613 . S
S579 N581 1.610 . S
N580 S579 1.613 . S
N580 C583 1.350 . S
N581 S579 1.610 . S
N581 C582 1.351 . S
C582 C576 1.428 . S
C582 N581 1.351 . S
C582 C583 1.434 . S
C583 C574 1.429 . S
C583 N580 1.350 . S
C583 C582 1.434 . S
C584 C585 1.369 . S
C584 C586 1.419 . S
C584 H588 0.930 . S
C585 C584 1.369 . S
C585 C594 1.429 . S
C586 C584 1.419 . S
C586 C587 1.363 . S
C586 H589 0.929 . S
C587 C586 1.363 . S
C587 C593 1.428 . S
H588 C584 0.930 . S
H589 C586 0.929 . S
S590 N591 1.613 . S
S590 N592 1.610 . S
N591 S590 1.613 . S
N591 C594 1.350 . S
N592 S590 1.610 . S
N592 C593 1.351 . S
C593 C587 1.428 . S
C593 N592 1.351 . S
C593 C594 1.434 . S
C594 C585 1.429 . S
C594 N591 1.350 . S
C594 C593 1.434 . S
C595 C596 1.369 . S
C595 C597 1.419 . S
C595 H599 0.930 . S
C596 C595 1.369 . S
C596 C605 1.429 . S
C597 C595 1.419 . S
C597 C598 1.363 . S
C597 H600 0.929 . S
C598 C597 1.363 . S
C598 C604 1.428 . S
H599 C595 0.930 . S
H600 C597 0.929 . S
S601 N602 1.613 . S
S601 N603 1.610 . S
N602 S601 1.613 . S
N602 C605 1.350 . S
N603 S601 1.610 . S
N603 C604 1.351 . S
C604 C598 1.428 . S
C604 N603 1.351 . S
C604 C605 1.434 . S
C605 C596 1.429 . S
C605 N602 1.350 . S
C605 C604 1.434 . S
C606 C607 1.369 . S
C606 C608 1.419 . S
C606 H610 0.930 . S
C607 C606 1.369 . S
C607 C616 1.429 . S
C608 C606 1.419 . S
C608 C609 1.363 . S
C608 H611 0.929 . S
C609 C608 1.363 . S
C609 C615 1.428 . S
H610 C606 0.930 . S
H611 C608 0.929 . S
S612 N613 1.613 1_556 S
S612 N614 1.610 1_556 S
N613 S612 1.613 1_554 S
N613 C616 1.350 . S
N614 S612 1.610 1_554 S
N614 C615 1.351 . S
C615 C609 1.428 . S
C615 N614 1.351 . S
C615 C616 1.434 . S
C616 C607 1.429 . S
C616 N613 1.350 . S
C616 C615 1.434 . S
C617 C618 1.369 . S
C617 C619 1.419 . S
C617 H621 0.930 . S
C618 C617 1.369 . S
C618 C627 1.429 . S
C619 C617 1.419 . S
C619 C620 1.363 . S
C619 H622 0.929 . S
C620 C619 1.363 . S
C620 C626 1.428 . S
H621 C617 0.930 . S
H622 C619 0.929 . S
S623 N624 1.613 . S
S623 N625 1.610 . S
N624 S623 1.613 . S
N624 C627 1.350 . S
N625 S623 1.610 . S
N625 C626 1.351 . S
C626 C620 1.428 . S
C626 N625 1.351 . S
C626 C627 1.434 . S
C627 C618 1.429 . S
C627 N624 1.350 . S
C627 C626 1.434 . S
C628 C629 1.369 1_454 S
C628 C630 1.419 . S
C628 H632 0.930 1_455 S
C629 C628 1.369 1_656 S
C629 C638 1.429 1_655 S
C630 C628 1.419 . S
C630 C631 1.363 1_554 S
C630 H633 0.929 . S
C631 C630 1.363 1_556 S
C631 C637 1.428 . S
H632 C628 0.930 1_655 S
H633 C630 0.929 . S
S634 N635 1.613 1_455 S
S634 N636 1.610 . S
N635 S634 1.613 1_655 S
N635 C638 1.350 1_655 S
N636 S634 1.610 . S
N636 C637 1.351 . S
C637 C631 1.428 . S
C637 N636 1.351 . S
C637 C638 1.434 . S
C638 C629 1.429 1_455 S
C638 N635 1.350 1_455 S
C638 C637 1.434 . S
C639 C640 1.369 . S
C639 C641 1.419 . S
C639 H643 0.930 . S
C640 C639 1.369 . S
C640 C649 1.429 . S
C641 C639 1.419 . S
C641 C642 1.363 . S
C641 H644 0.929 . S
C642 C641 1.363 . S
C642 C648 1.428 . S
H643 C639 0.930 . S
H644 C641 0.929 . S
S645 N646 1.613 . S
S645 N647 1.610 . S
N646 S645 1.613 . S
N646 C649 1.350 . S
N647 S645 1.610 . S
N647 C648 1.351 . S
C648 C642 1.428 . S
C648 N647 1.351 . S
C648 C649 1.434 . S
C649 C640 1.429 . S
C649 N646 1.350 . S
C649 C648 1.434 . S
C650 C651 1.369 . S
C650 C652 1.419 . S
C650 H654 0.930 . S
C651 C650 1.369 . S
C651 C660 1.429 . S
C652 C650 1.419 . S
C652 C653 1.363 . S
C652 H655 0.929 . S
C653 C652 1.363 . S
C653 C659 1.428 . S
H654 C650 0.930 . S
H655 C652 0.929 . S
S656 N657 1.613 . S
S656 N658 1.610 . S
N657 S656 1.613 . S
N657 C660 1.350 . S
N658 S656 1.610 . S
N658 C659 1.351 . S
C659 C653 1.428 . S
C659 N658 1.351 . S
C659 C660 1.434 . S
C660 C651 1.429 . S
C660 N657 1.350 . S
C660 C659 1.434 . S
C661 C662 1.369 1_656 S
C661 C663 1.419 . S
C661 H665 0.930 1_655 S
C662 C661 1.369 1_454 S
C662 C671 1.429 1_455 S
C663 C661 1.419 . S
C663 C664 1.363 1_556 S
C663 H666 0.929 . S
C664 C663 1.363 1_554 S
C664 C670 1.428 . S
H665 C661 0.930 1_455 S
H666 C663 0.929 . S
S667 N668 1.613 1_655 S
S667 N669 1.610 . S
N668 S667 1.613 1_455 S
N668 C671 1.350 1_455 S
N669 S667 1.610 . S
N669 C670 1.351 . S
C670 C664 1.428 . S
C670 N669 1.351 . S
C670 C671 1.434 . S
C671 C662 1.429 1_655 S
C671 N668 1.350 1_655 S
C671 C670 1.434 . S
C672 C673 1.369 . S
C672 C674 1.419 . S
C672 H676 0.930 . S
C673 C672 1.369 . S
C673 C682 1.429 . S
C674 C672 1.419 . S
C674 C675 1.363 . S
C674 H677 0.929 . S
C675 C674 1.363 . S
C675 C681 1.428 . S
H676 C672 0.930 . S
H677 C674 0.929 . S
S678 N679 1.613 . S
S678 N680 1.610 1_554 S
N679 S678 1.613 . S
N679 C682 1.350 . S
N680 S678 1.610 1_556 S
N680 C681 1.351 1_556 S
C681 C675 1.428 . S
C681 N680 1.351 1_554 S
C681 C682 1.434 . S
C682 C673 1.429 . S
C682 N679 1.350 . S
C682 C681 1.434 . S
C683 C684 1.369 . S
C683 C685 1.419 . S
C683 H687 0.930 . S
C684 C683 1.369 . S
C684 C693 1.429 . S
C685 C683 1.419 . S
C685 C686 1.363 . S
C685 H688 0.929 . S
C686 C685 1.363 . S
C686 C692 1.428 . S
H687 C683 0.930 . S
H688 C685 0.929 . S
S689 N690 1.613 . S
S689 N691 1.610 . S
N690 S689 1.613 . S
N690 C693 1.350 . S
N691 S689 1.610 . S
N691 C692 1.351 . S
C692 C686 1.428 . S
C692 N691 1.351 . S
C692 C693 1.434 . S
C693 C684 1.429 . S
C693 N690 1.350 . S
C693 C692 1.434 . S
C694 C695 1.369 . S
C694 C696 1.419 . S
C694 H698 0.930 . S
C695 C694 1.369 . S
C695 C704 1.429 . S
C696 C694 1.419 . S
C696 C697 1.363 . S
C696 H699 0.929 . S
C697 C696 1.363 . S
C697 C703 1.428 . S
H698 C694 0.930 . S
H699 C696 0.929 . S
S700 N701 1.613 . S
S700 N702 1.610 . S
N701 S700 1.613 . S
N701 C704 1.350 . S
N702 S700 1.610 . S
N702 C703 1.351 . S
C703 C697 1.428 . S
C703 N702 1.351 . S
C703 C704 1.434 . S
C704 C695 1.429 . S
C704 N701 1.350 . S
C704 C703 1.434 . S
C705 C706 1.369 . S
C705 C707 1.419 . S
C705 H709 0.930 . S
C706 C705 1.369 . S
C706 C715 1.429 . S
C707 C705 1.419 . S
C707 C708 1.363 . S
C707 H710 0.929 . S
C708 C707 1.363 . S
C708 C714 1.428 . S
H709 C705 0.930 . S
H710 C707 0.929 . S
S711 N712 1.613 . S
S711 N713 1.610 . S
N712 S711 1.613 . S
N712 C715 1.350 . S
N713 S711 1.610 . S
N713 C714 1.351 . S
C714 C708 1.428 . S
C714 N713 1.351 . S
C714 C715 1.434 . S
C715 C706 1.429 . S
C715 N712 1.350 . S
C715 C714 1.434 . S
C716 C717 1.369 . S
C716 C718 1.419 . S
C716 H720 0.930 . S
C717 C716 1.369 . S
C717 C726 1.429 . S
C718 C716 1.419 . S
C718 C719 1.363 . S
C718 H721 0.929 . S
C719 C718 1.363 . S
C719 C725 1.428 . S
H720 C716 0.930 . S
H721 C718 0.929 . S
S722 N723 1.613 . S
S722 N724 1.610 1_554 S
N723 S722 1.613 . S
N723 C726 1.350 1_554 S
N724 S722 1.610 1_556 S
N724 C725 1.351 . S
C725 C719 1.428 . S
C725 N724 1.351 . S
C725 C726 1.434 . S
C726 C717 1.429 . S
C726 N723 1.350 1_556 S
C726 C725 1.434 . S
C727 C728 1.369 . S
C727 C729 1.419 . S
C727 H731 0.930 . S
C728 C727 1.369 . S
C728 C737 1.429 . S
C729 C727 1.419 . S
C729 C730 1.363 . S
C729 H732 0.929 . S
C730 C729 1.363 . S
C730 C736 1.428 . S
H731 C727 0.930 . S
H732 C729 0.929 . S
S733 N734 1.613 . S
S733 N735 1.610 . S
N734 S733 1.613 . S
N734 C737 1.350 . S
N735 S733 1.610 . S
N735 C736 1.351 . S
C736 C730 1.428 . S
C736 N735 1.351 . S
C736 C737 1.434 . S
C737 C728 1.429 . S
C737 N734 1.350 . S
C737 C736 1.434 . S
C738 C739 1.369 . S
C738 C740 1.419 . S
C738 H742 0.930 . S
C739 C738 1.369 . S
C739 C748 1.429 . S
C740 C738 1.419 . S
C740 C741 1.363 . S
C740 H743 0.929 . S
C741 C740 1.363 . S
C741 C747 1.428 . S
H742 C738 0.930 . S
H743 C740 0.929 . S
S744 N745 1.613 . S
S744 N746 1.610 . S
N745 S744 1.613 . S
N745 C748 1.350 . S
N746 S744 1.610 . S
N746 C747 1.351 . S
C747 C741 1.428 . S
C747 N746 1.351 . S
C747 C748 1.434 . S
C748 C739 1.429 . S
C748 N745 1.350 . S
C748 C747 1.434 . S
C749 C750 1.369 . S
C749 C751 1.419 . S
C749 H753 0.930 . S
C750 C749 1.369 . S
C750 C759 1.429 . S
C751 C749 1.419 . S
C751 C752 1.363 . S
C751 H754 0.929 . S
C752 C751 1.363 . S
C752 C758 1.428 . S
H753 C749 0.930 . S
H754 C751 0.929 . S
S755 N756 1.613 . S
S755 N757 1.610 . S
N756 S755 1.613 . S
N756 C759 1.350 . S
N757 S755 1.610 . S
N757 C758 1.351 . S
C758 C752 1.428 . S
C758 N757 1.351 . S
C758 C759 1.434 . S
C759 C750 1.429 . S
C759 N756 1.350 . S
C759 C758 1.434 . S
C760 C761 1.369 1_545 S
C760 C762 1.419 . S
C760 H764 0.930 . S
C761 C760 1.369 1_565 S
C761 C770 1.429 . S
C762 C760 1.419 . S
C762 C763 1.363 . S
C762 H765 0.929 . S
C763 C762 1.363 . S
C763 C769 1.428 . S
H764 C760 0.930 . S
H765 C762 0.929 . S
S766 N767 1.613 . S
S766 N768 1.610 1_565 S
N767 S766 1.613 . S
N767 C770 1.350 . S
N768 S766 1.610 1_545 S
N768 C769 1.351 . S
C769 C763 1.428 . S
C769 N768 1.351 . S
C769 C770 1.434 1_545 S
C770 C761 1.429 . S
C770 N767 1.350 . S
C770 C769 1.434 1_565 S
C771 C772 1.369 . S
C771 C773 1.419 . S
C771 H775 0.930 . S
C772 C771 1.369 . S
C772 C781 1.429 . S
C773 C771 1.419 . S
C773 C774 1.363 . S
C773 H776 0.929 . S
C774 C773 1.363 . S
C774 C780 1.428 . S
H775 C771 0.930 . S
H776 C773 0.929 . S
S777 N778 1.613 . S
S777 N779 1.610 . S
N778 S777 1.613 . S
N778 C781 1.350 . S
N779 S777 1.610 . S
N779 C780 1.351 . S
C780 C774 1.428 . S
C780 N779 1.351 . S
C780 C781 1.434 . S
C781 C772 1.429 . S
C781 N778 1.350 . S
C781 C780 1.434 . S
C782 C783 1.369 . S
C782 C784 1.419 . S
C782 H786 0.930 . S
C783 C782 1.369 . S
C783 C792 1.429 . S
C784 C782 1.419 . S
C784 C785 1.363 1_565 S
C784 H787 0.929 1_554 S
C785 C784 1.363 1_545 S
C785 C791 1.428 . S
H786 C782 0.930 . S
H787 C784 0.929 1_556 S
S788 N789 1.613 1_545 S
S788 N790 1.610 . S
N789 S788 1.613 1_565 S
N789 C792 1.350 . S
N790 S788 1.610 . S
N790 C791 1.351 . S
C791 C785 1.428 . S
C791 N790 1.351 . S
C791 C792 1.434 1_545 S
C792 C783 1.429 . S
C792 N789 1.350 . S
C792 C791 1.434 1_565 S
C793 C794 1.369 . S
C793 C795 1.419 . S
C793 H797 0.930 . S
C794 C793 1.369 . S
C794 C803 1.429 . S
C795 C793 1.419 . S
C795 C796 1.363 . S
C795 H798 0.929 . S
C796 C795 1.363 . S
C796 C802 1.428 . S
H797 C793 0.930 . S
H798 C795 0.929 . S
S799 N800 1.613 . S
S799 N801 1.610 . S
N800 S799 1.613 . S
N800 C803 1.350 . S
N801 S799 1.610 . S
N801 C802 1.351 . S
C802 C796 1.428 . S
C802 N801 1.351 . S
C802 C803 1.434 . S
C803 C794 1.429 . S
C803 N800 1.350 . S
C803 C802 1.434 . S
C804 C805 1.369 1_545 S
C804 C806 1.419 . S
C804 H808 0.930 . S
C805 C804 1.369 1_565 S
C805 C814 1.429 . S
C806 C804 1.419 . S
C806 C807 1.363 . S
C806 H809 0.929 . S
C807 C806 1.363 . S
C807 C813 1.428 . S
H808 C804 0.930 . S
H809 C806 0.929 . S
S810 N811 1.613 . S
S810 N812 1.610 1_565 S
N811 S810 1.613 . S
N811 C814 1.350 . S
N812 S810 1.610 1_545 S
N812 C813 1.351 . S
C813 C807 1.428 . S
C813 N812 1.351 . S
C813 C814 1.434 1_545 S
C814 C805 1.429 . S
C814 N811 1.350 . S
C814 C813 1.434 1_565 S
C815 C816 1.369 . S
C815 C817 1.419 . S
C815 H819 0.930 . S
C816 C815 1.369 . S
C816 C825 1.429 . S
C817 C815 1.419 . S
C817 C818 1.363 . S
C817 H820 0.929 . S
C818 C817 1.363 . S
C818 C824 1.428 . S
H819 C815 0.930 . S
H820 C817 0.929 . S
S821 N822 1.613 . S
S821 N823 1.610 1_556 S
N822 S821 1.613 . S
N822 C825 1.350 1_556 S
N823 S821 1.610 1_554 S
N823 C824 1.351 . S
C824 C818 1.428 . S
C824 N823 1.351 . S
C824 C825 1.434 . S
C825 C816 1.429 . S
C825 N822 1.350 1_554 S
C825 C824 1.434 . S
C826 C827 1.369 . S
C826 C828 1.419 1_545 S
C826 H830 0.930 . S
C827 C826 1.369 . S
C827 C836 1.429 . S
C828 C826 1.419 1_565 S
C828 C829 1.363 . S
C828 H831 0.929 . S
C829 C828 1.363 . S
C829 C835 1.428 1_565 S
H830 C826 0.930 . S
H831 C828 0.929 . S
S832 N833 1.615 . S
S832 N834 1.610 1_556 S
N833 S832 1.615 . S
N833 C836 1.350 . S
N834 S832 1.610 1_554 S
N834 C835 1.351 1_554 S
C835 C829 1.428 1_545 S
C835 N834 1.351 1_556 S
C835 C836 1.434 . S
C836 C827 1.429 . S
C836 N833 1.350 . S
C836 C835 1.434 . S
C837 C838 1.369 . S
C837 C839 1.419 . S
C837 H841 0.930 . S
C838 C837 1.369 . S
C838 C847 1.429 . S
C839 C837 1.419 . S
C839 C840 1.363 . S
C839 H842 0.929 . S
C840 C839 1.363 . S
C840 C846 1.428 . S
H841 C837 0.930 . S
H842 C839 0.929 . S
S843 N844 1.613 . S
S843 N845 1.610 . S
N844 S843 1.613 . S
N844 C847 1.350 . S
N845 S843 1.610 . S
N845 C846 1.351 . S
C846 C840 1.428 . S
C846 N845 1.351 . S
C846 C847 1.434 . S
C847 C838 1.429 . S
C847 N844 1.350 . S
C847 C846 1.434 . S
C321 C12 1.624 . S
C323 C9 1.624 . S
C332 C32 1.587 1_556 S
C334 C29 1.586 . S
C343 C52 1.571 . S
C345 C49 1.570 1_554 S
C354 C72 1.630 . S
C356 C69 1.631 . S
C365 C89 1.598 . S
C367 C92 1.599 . S
C376 C112 1.648 . S
C378 C109 1.648 . S
C387 C129 1.613 . S
C389 C132 1.613 1_556 S
C398 C149 1.629 1_554 S
C400 C152 1.630 . S
C409 C169 1.607 . S
C411 C172 1.607 . S
C420 C192 1.568 . S
C422 C189 1.566 1_554 S
C431 C212 1.605 1_556 S
C433 C209 1.605 . S
C442 C229 1.655 . S
C444 C232 1.655 . S
C453 C252 1.592 . S
C455 C249 1.591 . S
C464 C272 1.608 . S
C466 C269 1.607 . S
C475 C292 1.624 . S
C477 C289 1.624 . S
C486 C309 1.652 . S
C488 C312 1.655 . S
C497 C18 1.825 . S
C499 C222 1.806 . S
C508 C38 2.004 . S
C510 C319 2.027 . S
C519 C58 1.416 . S
C521 C182 1.410 . S
C530 C78 1.556 . S
C532 C262 1.552 . S
C541 C84 1.668 . S
C543 C279 1.683 . S
C552 C239 1.801 . S
C554 C104 1.794 . S
C563 C124 1.379 . S
C565 C302 1.427 . S
C574 C144 1.509 . S
C576 C199 1.529 . S
C585 C64 1.722 . S
C587 C179 1.733 . S
C596 C24 1.820 . S
C598 C219 1.814 . S
C607 C242 1.700 . S
C609 C118 1.705 . S
C618 C158 1.686 . S
C620 C282 1.687 . S
C629 C162 1.521 . S
C631 C98 1.523 . S
C640 C138 1.446 . S
C642 C202 1.456 . S
C651 C44 1.521 . S
C653 C299 1.535 . S
C662 C4 1.562 . S
C664 C259 1.564 . S
C673 C19 1.599 . S
C675 C82 1.529 . S
C684 C39 1.745 . S
C686 C102 1.676 . S
C695 C59 1.347 . S
C697 C122 1.242 . S
C706 C79 1.512 . S
C708 C142 1.437 . S
C717 C244 1.603 . S
C719 C178 1.676 . S
C728 C264 1.374 . S
C730 C198 1.427 . S
C739 C218 1.617 . S
C741 C284 1.537 . S
C750 C318 1.965 . S
C752 C238 1.950 . S
C761 C22 1.680 . S
C763 C159 1.815 . S
C772 C99 1.528 . S
C774 C42 1.441 . S
C783 C119 1.616 . S
C785 C62 1.542 . S
C794 C2 1.292 . S
C796 C139 1.366 . S
C805 C304 1.140 . S
C807 C184 1.173 . S
C816 C258 1.518 . S
C818 C204 1.428 . S
C827 C278 1.683 . S
C829 C224 1.613 . S
C838 C298 1.450 . S
C840 C164 1.382 . S
