# Generated by pormake.
# Topology sod, (4)-cn, num edge types: 1
# Building blocks:
#     Node 0, Type 0, BuildingBlock: UXUYUI_clean_sbu_0, # of connection points: 4
#     Node 1, Type 0, BuildingBlock: UXUYUI_clean_sbu_0, # of connection points: 4
#     Node 2, Type 0, BuildingBlock: UXUYUI_clean_sbu_0, # of connection points: 4
#     Node 3, Type 0, BuildingBlock: UXUYUI_clean_sbu_0, # of connection points: 4
#     Node 4, Type 0, BuildingBlock: UXUYUI_clean_sbu_0, # of connection points: 4
#     Node 5, Type 0, BuildingBlock: UXUYUI_clean_sbu_0, # of connection points: 4
#     Node 6, Type 0, BuildingBlock: UXUYUI_clean_sbu_0, # of connection points: 4
#     Node 7, Type 0, BuildingBlock: UXUYUI_clean_sbu_0, # of connection points: 4
#     Node 8, Type 0, BuildingBlock: UXUYUI_clean_sbu_0, # of connection points: 4
#     Node 9, Type 0, BuildingBlock: UXUYUI_clean_sbu_0, # of connection points: 4
#     Node 10, Type 0, BuildingBlock: UXUYUI_clean_sbu_0, # of connection points: 4
#     Node 11, Type 0, BuildingBlock: UXUYUI_clean_sbu_0, # of connection points: 4
#     Edge 12, Type (0, 0), BuildingBlock: CIFDUS_clean_linker_0, # of connection points: 2
#     Edge 13, Type (0, 0), BuildingBlock: CIFDUS_clean_linker_0, # of connection points: 2
#     Edge 14, Type (0, 0), BuildingBlock: CIFDUS_clean_linker_0, # of connection points: 2
#     Edge 15, Type (0, 0), BuildingBlock: CIFDUS_clean_linker_0, # of connection points: 2
#     Edge 16, Type (0, 0), BuildingBlock: CIFDUS_clean_linker_0, # of connection points: 2
#     Edge 17, Type (0, 0), BuildingBlock: CIFDUS_clean_linker_0, # of connection points: 2
#     Edge 18, Type (0, 0), BuildingBlock: CIFDUS_clean_linker_0, # of connection points: 2
#     Edge 19, Type (0, 0), BuildingBlock: CIFDUS_clean_linker_0, # of connection points: 2
#     Edge 20, Type (0, 0), BuildingBlock: CIFDUS_clean_linker_0, # of connection points: 2
#     Edge 21, Type (0, 0), BuildingBlock: CIFDUS_clean_linker_0, # of connection points: 2
#     Edge 22, Type (0, 0), BuildingBlock: CIFDUS_clean_linker_0, # of connection points: 2
#     Edge 23, Type (0, 0), BuildingBlock: CIFDUS_clean_linker_0, # of connection points: 2
#     Edge 24, Type (0, 0), BuildingBlock: CIFDUS_clean_linker_0, # of connection points: 2
#     Edge 25, Type (0, 0), BuildingBlock: CIFDUS_clean_linker_0, # of connection points: 2
#     Edge 26, Type (0, 0), BuildingBlock: CIFDUS_clean_linker_0, # of connection points: 2
#     Edge 27, Type (0, 0), BuildingBlock: CIFDUS_clean_linker_0, # of connection points: 2
#     Edge 28, Type (0, 0), BuildingBlock: CIFDUS_clean_linker_0, # of connection points: 2
#     Edge 29, Type (0, 0), BuildingBlock: CIFDUS_clean_linker_0, # of connection points: 2
#     Edge 30, Type (0, 0), BuildingBlock: CIFDUS_clean_linker_0, # of connection points: 2
#     Edge 31, Type (0, 0), BuildingBlock: CIFDUS_clean_linker_0, # of connection points: 2
#     Edge 32, Type (0, 0), BuildingBlock: CIFDUS_clean_linker_0, # of connection points: 2
#     Edge 33, Type (0, 0), BuildingBlock: CIFDUS_clean_linker_0, # of connection points: 2
#     Edge 34, Type (0, 0), BuildingBlock: CIFDUS_clean_linker_0, # of connection points: 2
#     Edge 35, Type (0, 0), BuildingBlock: CIFDUS_clean_linker_0, # of connection points: 2
# Relax obj value: 0.150
# Max RMSD: 0.167
# Mean RMSD: 0.167
data_MOF--net-sod--node1-UXUYUI_clean_sbu_0--edge1-CIFDUS_clean_linker_0
_symmetry_space_group_name_H-M    P1
_symmetry_Int_Tables_number       1
_symmetry_cell_setting            triclinic
loop_
_symmetry_equiv_pos_as_xyz
'x, y, z'
_cell_length_a     57.109803
_cell_length_b     57.116525
_cell_length_c     57.100003
_cell_angle_alpha  90.003447
_cell_angle_beta   90.000158
_cell_angle_gamma 90.006268
loop_
_atom_site_label
_atom_site_type_symbol
_atom_site_fract_x
_atom_site_fract_y
_atom_site_fract_z
_atom_type_partial_charge
Li0 Li 0.97628 0.23458 0.49754 0.0
Li1 Li 0.99576 0.26582 0.51812 0.0
Li2 Li 0.99725 0.2625 0.47524 0.0
Li3 Li 0.01907 0.23444 0.49842 0.0
C4 C 0.94585 0.26943 0.496 0.0
N5 N 0.89748 0.27056 0.49733 0.0
C6 C 0.93428 0.27922 0.51523 0.0
C7 C 0.93279 0.2603 0.4774 0.0
C8 C 0.90982 0.27961 0.51558 0.0
C9 C 0.90836 0.261 0.47843 0.0
C10 C 0.98402 0.22171 0.54271 0.0
C11 C 0.97321 0.18757 0.56511 0.0
N12 N 0.957 0.2005 0.57682 0.0
C13 C 0.96727 0.23466 0.55501 0.0
C14 C 0.98706 0.19798 0.54784 0.0
C15 C 0.95379 0.22362 0.57218 0.0
C16 C 0.95354 0.19362 0.48419 0.0
N17 N 0.95085 0.21268 0.49817 0.0
C18 C 0.91483 0.19739 0.51316 0.0
C19 C 0.93194 0.21485 0.51253 0.0
C20 C 0.9173 0.17743 0.499 0.0
C21 C 0.93689 0.17579 0.48423 0.0
H22 H 0.96886 0.19206 0.47319 0.0
H23 H 0.93022 0.22996 0.52375 0.0
C24 C 0.98729 0.3095 0.53787 0.0
N25 N 0.99545 0.28778 0.54305 0.0
C26 C 0.98599 0.32661 0.55523 0.0
C27 C 0.00231 0.29891 0.5828 0.0
C28 C 0.00313 0.28225 0.5649 0.0
C29 C 0.99343 0.32137 0.57808 0.0
H30 H 0.98159 0.31343 0.52024 0.0
H31 H 0.00971 0.26485 0.56846 0.0
C32 C 0.002 0.22678 0.44831 0.0
N33 N 0.00967 0.22592 0.40057 0.0
C34 C 0.0248 0.22795 0.43952 0.0
C35 C 0.9831 0.22505 0.43287 0.0
C36 C 0.02831 0.22752 0.41531 0.0
C37 C 0.98734 0.22466 0.40877 0.0
C38 C 0.04265 0.2758 0.51013 0.0
C39 C 0.05577 0.29538 0.50356 0.0
C40 C 0.04853 0.26357 0.53052 0.0
C41 C 0.07469 0.30233 0.51744 0.0
C42 C 0.06756 0.27109 0.54393 0.0
N43 N 0.08014 0.29014 0.53716 0.0
C44 C 0.97938 0.28539 0.43471 0.0
C45 C 0.02028 0.2889 0.44069 0.0
C46 C 0.98064 0.29965 0.41491 0.0
N47 N 0.999 0.28051 0.44725 0.0
C48 C 0.02234 0.30338 0.4211 0.0
C49 C 0.00227 0.30922 0.40809 0.0
H50 H 0.9627 0.27846 0.4402 0.0
H51 H 0.03561 0.28464 0.45096 0.0
C52 C 0.03918 0.19096 0.50131 0.0
N53 N 0.04511 0.21384 0.49884 0.0
C54 C 0.05626 0.1736 0.50034 0.0
C55 C 0.08542 0.20362 0.49395 0.0
C56 C 0.06768 0.22048 0.4951 0.0
C57 C 0.07973 0.17979 0.49638 0.0
H58 H 0.021 0.18619 0.50348 0.0
H59 H 0.07186 0.23874 0.4924 0.0
O60 O 0.9698 0.26905 0.49528 0.0
O61 O 0.99728 0.23218 0.5257 0.0
O62 O 0.99816 0.22791 0.47192 0.0
O63 O 0.02389 0.26905 0.49684 0.0
H64 H 0.94404 0.28637 0.52979 0.0
H65 H 0.94139 0.25227 0.46259 0.0
H66 H 0.90066 0.28708 0.53038 0.0
H67 H 0.89805 0.25382 0.46425 0.0
H68 H 0.97536 0.1692 0.56922 0.0
H69 H 0.96436 0.25292 0.55106 0.0
H70 H -3e-05 0.18767 0.53863 0.0
H71 H 0.94068 0.23342 0.58171 0.0
H72 H 0.90015 0.19924 0.52502 0.0
H73 H 0.93936 0.16086 0.47281 0.0
H74 H 0.9794 0.34382 0.55078 0.0
H75 H 0.00813 0.29417 0.60022 0.0
H76 H 0.0396 0.2295 0.45124 0.0
H77 H 0.96534 0.22419 0.43941 0.0
H78 H 0.04585 0.22856 0.40824 0.0
H79 H 0.97288 0.22344 0.3966 0.0
H80 H 0.05135 0.30514 0.48793 0.0
H81 H 0.03859 0.24842 0.53596 0.0
H82 H 0.08501 0.31744 0.51255 0.0
H83 H 0.07232 0.26177 0.55972 0.0
H84 H 0.96478 0.30332 0.40519 0.0
H85 H 0.03934 0.31051 0.41669 0.0
H86 H 0.05108 0.15549 0.5025 0.0
H87 H 0.10323 0.20912 0.49047 0.0
Li88 Li 0.734 0.99903 0.52124 0.0
Li89 Li 0.76578 0.98042 0.49697 0.0
Li90 Li 0.76065 0.02217 0.49742 0.0
Li91 Li 0.73358 0.99822 0.47708 0.0
C92 C 0.78585 0.01285 0.53532 0.0
N93 N 0.82184 0.03782 0.55578 0.0
C94 C 0.80874 0.01045 0.527 0.0
C95 C 0.78127 0.02779 0.55415 0.0
C96 C 0.82669 0.02328 0.53755 0.0
C97 C 0.79971 0.04029 0.56425 0.0
C98 C 0.73374 0.94801 0.50369 0.0
C99 C 0.74255 0.90881 0.49065 0.0
N100 N 0.73844 0.90069 0.51266 0.0
C101 C 0.72949 0.93926 0.52615 0.0
C102 C 0.7402 0.93265 0.48575 0.0
C103 C 0.73199 0.91529 0.53034 0.0
C104 C 0.69177 0.99959 0.54513 0.0
N105 N 0.71519 0.99719 0.54837 0.0
C106 C 0.70988 0.99255 0.58961 0.0
C107 C 0.72449 0.99361 0.56998 0.0
C108 C 0.68555 0.99519 0.58685 0.0
C109 C 0.67657 0.99878 0.5642 0.0
H110 H 0.68496 0.00243 0.52768 0.0
H111 H 0.7432 0.99148 0.57194 0.0
C112 C 0.80321 0.95444 0.47822 0.0
N113 N 0.78881 0.95639 0.49706 0.0
C114 C 0.82111 0.93784 0.47808 0.0
C115 C 0.80911 0.92557 0.51678 0.0
C116 C 0.79152 0.94255 0.51624 0.0
C117 C 0.82429 0.92319 0.49756 0.0
H118 H 0.80108 0.96605 0.46346 0.0
H119 H 0.78021 0.94493 0.53124 0.0
C120 C 0.72173 0.04784 0.50127 0.0
N121 N 0.71314 0.09521 0.50625 0.0
C122 C 0.72595 0.06315 0.48264 0.0
C123 C 0.71307 0.05663 0.52242 0.0
C124 C 0.72154 0.08703 0.48552 0.0
C125 C 0.70884 0.08063 0.52459 0.0
C126 C 0.7656 0.0029 0.44635 0.0
C127 C 0.76526 0.02445 0.43474 0.0
C128 C 0.76339 0.98221 0.43345 0.0
C129 C 0.76263 0.02494 0.41042 0.0
C130 C 0.76074 0.98343 0.40916 0.0
N131 N 0.76042 0.00459 0.39824 0.0
C132 C 0.79764 0.05069 0.48297 0.0
C133 C 0.77509 0.06811 0.51312 0.0
C134 C 0.81322 0.06947 0.48319 0.0
N135 N 0.77894 0.05037 0.49767 0.0
C136 C 0.79019 0.08734 0.51386 0.0
C137 C 0.80966 0.08805 0.49888 0.0
H138 H 0.80084 0.03603 0.47144 0.0
H139 H 0.76079 0.06704 0.52542 0.0
C140 C 0.70229 0.97402 0.44749 0.0
N141 N 0.71233 0.99524 0.45137 0.0
C142 C 0.68585 0.97121 0.42963 0.0
C143 C 0.69054 0.01211 0.41986 0.0
C144 C 0.70683 0.01413 0.43798 0.0
C145 C 0.67963 0.99047 0.41566 0.0
H146 H 0.70675 0.95933 0.4585 0.0
H147 H 0.71485 0.03085 0.44149 0.0
O148 O 0.76796 0.00097 0.52477 0.0
O149 O 0.7317 0.97149 0.49932 0.0
O150 O 0.72577 0.02435 0.49878 0.0
O151 O 0.76769 0.00206 0.47022 0.0
H152 H 0.81252 0.99904 0.51234 0.0
H153 H 0.76359 0.02999 0.56063 0.0
H154 H 0.84447 0.02175 0.53118 0.0
H155 H 0.79642 0.05205 0.57872 0.0
H156 H 0.74771 0.89677 0.47697 0.0
H157 H 0.72444 0.95083 0.54025 0.0
H158 H 0.74363 0.9391 0.46828 0.0
H159 H 0.72884 0.9083 0.54766 0.0
H160 H 0.71752 0.98946 0.60669 0.0
H161 H 0.65802 0.00133 0.56124 0.0
H162 H 0.83237 0.93651 0.46287 0.0
H163 H 0.81121 0.91486 0.53229 0.0
H164 H 0.73301 0.05678 0.4663 0.0
H165 H 0.70982 0.04513 0.53709 0.0
H166 H 0.7249 0.09909 0.4713 0.0
H167 H 0.7022 0.08767 0.54087 0.0
H168 H 0.76673 0.04067 0.44439 0.0
H169 H 0.76346 0.96539 0.44212 0.0
H170 H 0.76223 0.0415 0.40124 0.0
H171 H 0.75888 0.96756 0.399 0.0
H172 H 0.828 0.06935 0.47131 0.0
H173 H 0.78711 0.1011 0.52654 0.0
H174 H 0.678 0.95417 0.42687 0.0
H175 H 0.68603 0.02749 0.40973 0.0
Li176 Li 0.02229 0.76607 0.50096 0.0
Li177 Li 0.00186 0.73536 0.52248 0.0
Li178 Li 0.00122 0.73718 0.47817 0.0
Li179 Li 0.97861 0.76538 0.50172 0.0
C180 C 0.05188 0.73089 0.49886 0.0
N181 N 0.10021 0.73034 0.49715 0.0
C182 C 0.06484 0.72666 0.51918 0.0
C183 C 0.06346 0.73455 0.47762 0.0
C184 C 0.08928 0.72652 0.51796 0.0
C185 C 0.08792 0.73429 0.47713 0.0
C186 C 0.99368 0.77424 0.55054 0.0
C187 C 0.96349 0.77402 0.58007 0.0
N188 N 0.97883 0.7834 0.59568 0.0
C189 C 0.0091 0.78405 0.56682 0.0
C190 C 0.97066 0.76931 0.55716 0.0
C191 C 0.00129 0.78849 0.58958 0.0
C192 C 0.053 0.80114 0.48414 0.0
N193 N 0.04879 0.7862 0.50216 0.0
C194 C 0.08129 0.8016 0.52357 0.0
C195 C 0.06249 0.7861 0.52163 0.0
C196 C 0.08594 0.81743 0.50531 0.0
C197 C 0.07163 0.81692 0.4853 0.0
H198 H 0.04158 0.80121 0.46908 0.0
H199 H 0.05861 0.77414 0.53579 0.0
C200 C 0.9911 0.69438 0.54739 0.0
N201 N 0.00301 0.71493 0.54868 0.0
C202 C 0.99157 0.67868 0.56609 0.0
C203 C 0.01718 0.70525 0.58686 0.0
C204 C 0.01603 0.72055 0.56781 0.0
C205 C 0.00476 0.68403 0.58615 0.0
H206 H 0.98139 0.69007 0.53172 0.0
H207 H 0.02574 0.73679 0.56816 0.0
C208 C 0.99704 0.77682 0.45179 0.0
N209 N 0.991 0.78655 0.40477 0.0
C210 C 0.9754 0.78478 0.44355 0.0
C211 C 0.01565 0.77401 0.43615 0.0
C212 C 0.97269 0.78957 0.41971 0.0
C213 C 0.01223 0.77895 0.41243 0.0
C214 C 0.95281 0.72243 0.50052 0.0
C215 C 0.94182 0.71663 0.47942 0.0
C216 C 0.94085 0.7192 0.52164 0.0
C217 C 0.9189 0.70809 0.47978 0.0
C218 C 0.91795 0.71062 0.52127 0.0
N219 N 0.90753 0.70531 0.50052 0.0
C220 C 0.01538 0.69847 0.45207 0.0
C221 C 0.98813 0.72222 0.4317 0.0
C222 C 0.01608 0.68262 0.43349 0.0
N223 N 0.00156 0.7178 0.45089 0.0
C224 C 0.98856 0.70701 0.41254 0.0
C225 C 0.00251 0.68682 0.41343 0.0
H226 H 0.02565 0.69517 0.46763 0.0
H227 H 0.97667 0.73722 0.43138 0.0
C228 C 0.95564 0.807 0.51186 0.0
N229 N 0.95173 0.78517 0.50324 0.0
C230 C 0.93741 0.82321 0.51317 0.0
C231 C 0.91136 0.79417 0.49676 0.0
C232 C 0.93014 0.77856 0.49566 0.0
C233 C 0.91493 0.81688 0.50549 0.0
H234 H 0.97302 0.81186 0.51759 0.0
H235 H 0.92747 0.76141 0.48832 0.0
O236 O 0.02797 0.73154 0.49976 0.0
O237 O 0.00113 0.7696 0.52824 0.0
O238 O 2e-05 0.77213 0.47509 0.0
O239 O 0.97532 0.73066 0.50048 0.0
H240 H 0.05613 0.72372 0.53574 0.0
H241 H 0.05366 0.73761 0.46171 0.0
H242 H 0.09954 0.72343 0.53358 0.0
H243 H 0.09712 0.73722 0.46083 0.0
H244 H 0.94571 0.77025 0.58542 0.0
H245 H 0.02695 0.78812 0.56196 0.0
H246 H 0.9584 0.76208 0.54472 0.0
H247 H 0.01307 0.79598 0.60238 0.0
H248 H 0.09199 0.80128 0.53922 0.0
H249 H 0.07432 0.82909 0.47101 0.0
H250 H 0.98212 0.6623 0.56468 0.0
H251 H 0.02755 0.71 0.60201 0.0
H252 H 0.96083 0.78717 0.4554 0.0
H253 H 0.03253 0.76795 0.44222 0.0
H254 H 0.95603 0.79566 0.41308 0.0
H255 H 0.02645 0.77673 0.40011 0.0
H256 H 0.95079 0.71891 0.46294 0.0
H257 H 0.94918 0.72308 0.53819 0.0
H258 H 0.91015 0.70368 0.46357 0.0
H259 H 0.90848 0.7081 0.53749 0.0
H260 H 0.02711 0.66724 0.43477 0.0
H261 H 0.97758 0.71061 0.3975 0.0
H262 H 0.94086 0.84049 0.52018 0.0
H263 H 0.89438 0.78874 0.49029 0.0
Li264 Li 0.23585 0.0239 0.49873 0.0
Li265 Li 0.26441 0.00181 0.52166 0.0
Li266 Li 0.26567 0.00311 0.47753 0.0
Li267 Li 0.2355 0.9801 0.49774 0.0
C268 C 0.27141 0.05254 0.50343 0.0
N269 N 0.27239 0.1005 0.50961 0.0
C270 C 0.2749 0.06199 0.52573 0.0
C271 C 0.26867 0.06746 0.48423 0.0
C272 C 0.2753 0.08629 0.5285 0.0
C273 C 0.26913 0.09166 0.48773 0.0
C274 C 0.22197 0.99412 0.54617 0.0
C275 C 0.21716 0.96353 0.5749 0.0
N276 N 0.2062 0.97895 0.58936 0.0
C277 C 0.21041 0.0096 0.56121 0.0
C278 C 0.22517 0.97085 0.55298 0.0
C279 C 0.20267 0.00163 0.58301 0.0
C280 C 0.20408 0.05651 0.47954 0.0
N281 N 0.21647 0.05101 0.49908 0.0
C282 C 0.20009 0.0836 0.51961 0.0
C283 C 0.21486 0.06413 0.51888 0.0
C284 C 0.18681 0.08956 0.49976 0.0
C285 C 0.18919 0.07586 0.47944 0.0
H286 H 0.20553 0.04572 0.46409 0.0
H287 H 0.22489 0.05932 0.5342 0.0
C288 C 0.30588 0.99367 0.54576 0.0
N289 N 0.28354 0.00118 0.54891 0.0
C290 C 0.32144 0.99304 0.56457 0.0
C291 C 0.29078 0.00811 0.58956 0.0
C292 C 0.2758 0.00849 0.57022 0.0
C293 C 0.31398 0.00039 0.58683 0.0
H294 H 0.31161 0.98819 0.52855 0.0
H295 H 0.25818 0.01503 0.57216 0.0
C296 C 0.22969 0.0013 0.44775 0.0
N297 N 0.2272 0.9982 0.39951 0.0
C298 C 0.22186 0.98068 0.43713 0.0
C299 C 0.23601 0.02042 0.43383 0.0
C300 C 0.22077 0.97944 0.41272 0.0
C301 C 0.23471 0.01848 0.40948 0.0
C302 C 0.27825 0.9538 0.50213 0.0
C303 C 0.28674 0.94093 0.48312 0.0
C304 C 0.27897 0.94404 0.52457 0.0
C305 C 0.29521 0.91828 0.48677 0.0
C306 C 0.2876 0.92135 0.52752 0.0
N307 N 0.29544 0.90903 0.50872 0.0
C308 C 0.30292 0.02072 0.45046 0.0
C309 C 0.28448 0.98733 0.43411 0.0
C310 C 0.31855 0.02177 0.4317 0.0
N311 N 0.28629 0.00371 0.45129 0.0
C312 C 0.29959 0.98786 0.41491 0.0
C313 C 0.31697 0.0052 0.4136 0.0
H314 H 0.30413 0.03341 0.46445 0.0
H315 H 0.27131 0.9738 0.43532 0.0
C316 C 0.19409 0.9551 0.5058 0.0
N317 N 0.21582 0.95318 0.49627 0.0
C318 C 0.17862 0.93621 0.50519 0.0
C319 C 0.20789 0.91383 0.48437 0.0
C320 C 0.22286 0.93315 0.48551 0.0
C321 C 0.18546 0.9152 0.49437 0.0
H322 H 0.18873 0.97141 0.51378 0.0
H323 H 0.23991 0.93224 0.47745 0.0
O324 O 0.27054 0.0288 0.50044 0.0
O325 O 0.22971 0.00171 0.52479 0.0
O326 O 0.23103 0.00277 0.47163 0.0
O327 O 0.27008 0.97611 0.49884 0.0
H328 H 0.27707 0.05069 0.54078 0.0
H329 H 0.26605 0.06043 0.46684 0.0
H330 H 0.27785 0.09385 0.54568 0.0
H331 H 0.26687 0.10342 0.47305 0.0
H332 H 0.21956 0.94556 0.58038 0.0
H333 H 0.20751 0.02761 0.55616 0.0
H334 H 0.23344 0.95846 0.54136 0.0
H335 H 0.19382 0.01346 0.59486 0.0
H336 H 0.19862 0.09347 0.53573 0.0
H337 H 0.17955 0.07996 0.46363 0.0
H338 H 0.3391 0.98674 0.56172 0.0
H339 H 0.28444 0.01427 0.60635 0.0
H340 H 0.21673 0.96578 0.44761 0.0
H341 H 0.2421 0.03651 0.44174 0.0
H342 H 0.21484 0.96356 0.40427 0.0
H343 H 0.23972 0.03308 0.3985 0.0
H344 H 0.28663 0.94826 0.46568 0.0
H345 H 0.27323 0.95392 0.53964 0.0
H346 H 0.30164 0.90807 0.47217 0.0
H347 H 0.28818 0.91358 0.54479 0.0
H348 H 0.33164 0.03549 0.43127 0.0
H349 H 0.298 0.97456 0.40148 0.0
H350 H 0.16132 0.93819 0.51269 0.0
H351 H 0.21385 0.89797 0.47586 0.0
Li352 Li 0.49828 0.0182 0.23014 0.0
Li353 Li 0.47964 -0.00014 0.26307 0.0
Li354 Li 0.5223 0.9987 0.2614 0.0
Li355 Li 0.49778 0.97522 0.2352 0.0
C356 C 0.48923 0.0439 0.2748 0.0
N357 N 0.46269 0.07694 0.29818 0.0
C358 C 0.473 0.05756 0.26258 0.0
C359 C 0.49198 0.04709 0.29891 0.0
C360 C 0.45978 0.07418 0.2747 0.0
C361 C 0.47837 0.06386 0.31042 0.0
C362 C 0.44746 0.99879 0.22907 0.0
C363 C 0.40906 0.98357 0.23789 0.0
N364 N 0.39928 0.00321 0.22864 0.0
C365 C 0.43703 0.01877 0.21954 0.0
C366 C 0.43338 0.98097 0.23821 0.0
C367 C 0.41264 0.02069 0.21951 0.0
C368 C 0.49105 0.03627 0.18531 0.0
N369 N 0.49884 0.04203 0.20702 0.0
C370 C 0.50913 0.08045 0.19405 0.0
C371 C 0.5078 0.06358 0.21171 0.0
C372 C 0.50126 0.07499 0.17136 0.0
C373 C 0.49202 0.05257 0.16715 0.0
H374 H 0.4842 0.0189 0.1821 0.0
H375 H 0.5142 0.06754 0.22909 0.0
C376 C 0.45878 0.98974 0.30596 0.0
N377 N 0.4552 0.00228 0.28604 0.0
C378 C 0.44282 0.99094 0.32439 0.0
C379 C 0.41957 0.01793 0.30157 0.0
C380 C 0.43615 0.01641 0.28365 0.0
C381 C 0.4229 0.00516 0.3223 0.0
H382 H 0.47424 0.97898 0.30767 0.0
H383 H 0.43389 0.02675 0.26801 0.0
C384 C 0.54347 0.0062 0.21656 0.0
N385 N 0.58043 0.0289 0.19518 0.0
C386 C 0.55346 0.99694 0.19624 0.0
C387 C 0.55219 0.02705 0.22597 0.0
C388 C 0.57217 0.00866 0.18571 0.0
C389 C 0.5709 0.03825 0.21491 0.0
C390 C 0.50292 0.94985 0.27258 0.0
C391 C 0.5252 0.93983 0.27391 0.0
C392 C 0.48309 0.93556 0.27363 0.0
C393 C 0.52727 0.91555 0.27604 0.0
C394 C 0.4859 0.91135 0.27574 0.0
N395 N 0.50775 0.90193 0.27688 0.0
C396 C 0.5463 0.00177 0.30325 0.0
C397 C 0.57173 0.99486 0.27119 0.0
C398 C 0.56509 0.00147 0.31881 0.0
N399 N 0.54992 0.99879 0.27995 0.0
C400 C 0.59111 0.99452 0.28615 0.0
C401 C 0.58787 0.99781 0.31033 0.0
H402 H 0.52869 0.00403 0.30978 0.0
H403 H 0.57411 0.99162 0.25271 0.0
C404 C 0.47677 0.93858 0.20918 0.0
N405 N 0.49723 0.9466 0.21828 0.0
C406 C 0.47648 0.91834 0.19549 0.0
C407 C 0.5183 0.91484 0.20106 0.0
C408 C 0.51778 0.93519 0.21459 0.0
C409 C 0.49749 0.90631 0.19105 0.0
H410 H 0.46076 0.9482 0.21203 0.0
H411 H 0.53382 0.94213 0.2219 0.0
O412 O 0.50207 0.02726 0.26326 0.0
O413 O 0.4713 0.99653 0.22906 0.0
O414 O 0.52486 0.99516 0.2268 0.0
O415 O 0.50051 0.97351 0.26994 0.0
H416 H 0.47032 0.0551 0.24402 0.0
H417 H 0.50438 0.0367 0.3087 0.0
H418 H 0.44707 0.08477 0.26547 0.0
H419 H 0.48027 0.06644 0.32909 0.0
H420 H 0.39796 0.97 0.24506 0.0
H421 H 0.44764 0.0327 0.21231 0.0
H422 H 0.44115 0.96543 0.24573 0.0
H423 H 0.40434 0.0361 0.21227 0.0
H424 H 0.5167 0.09738 0.19799 0.0
H425 H 0.4855 0.0477 0.15002 0.0
H426 H 0.44595 0.98073 0.34006 0.0
H427 H 0.40458 0.02936 0.29945 0.0
H428 H 0.54679 0.98088 0.18869 0.0
H429 H 0.54458 0.0345 0.24164 0.0
H430 H 0.58011 0.00169 0.16998 0.0
H431 H 0.57784 0.05439 0.22199 0.0
H432 H 0.54073 0.95064 0.27304 0.0
H433 H 0.46573 0.94308 0.27271 0.0
H434 H 0.54441 0.90753 0.27696 0.0
H435 H 0.47071 0.90005 0.27647 0.0
H436 H 0.5618 0.00418 0.3373 0.0
H437 H 0.60834 0.99121 0.27897 0.0
H438 H 0.4601 0.91267 0.1878 0.0
H439 H 0.53485 0.90601 0.19828 0.0
Li440 Li 0.98266 0.50104 0.23545 0.0
Li441 Li 0.0018 0.47819 0.26524 0.0
Li442 Li 0.00244 0.52017 0.26728 0.0
Li443 Li 0.02467 0.50034 0.23779 0.0
C444 C 0.95513 0.51239 0.27405 0.0
N445 N 0.91569 0.53857 0.28408 0.0
C446 C 0.94015 0.50562 0.29217 0.0
C447 C 0.95003 0.53247 0.261 0.0
C448 C 0.9203 0.51909 0.29698 0.0
C449 C 0.93002 0.54546 0.26634 0.0
C450 C 0.99062 0.45471 0.22396 0.0
C451 C 0.98425 0.42216 0.19782 0.0
N452 N 0.96446 0.41653 0.20984 0.0
C453 C 0.97024 0.4486 0.23606 0.0
C454 C 0.99771 0.44139 0.2047 0.0
C455 C 0.95725 0.42924 0.22864 0.0
C456 C 0.96289 0.51148 0.19229 0.0
N457 N 0.9577 0.50204 0.21348 0.0
C458 C 0.91907 0.49237 0.20061 0.0
C459 C 0.93623 0.4928 0.21805 0.0
C460 C 0.92406 0.50163 0.17833 0.0
C461 C 0.94624 0.51158 0.17443 0.0
H462 H 0.98015 0.51863 0.18919 0.0
H463 H 0.93259 0.48531 0.23506 0.0
C464 C 0.99173 0.45583 0.30667 0.0
N465 N -0.0 0.45143 0.28482 0.0
C466 C 0.98925 0.43771 0.32279 0.0
C467 C 0.00413 0.41075 0.29372 0.0
C468 C 0.00637 0.42948 0.27812 0.0
C469 C 0.99532 0.41475 0.31638 0.0
H470 H 0.98709 0.47354 0.31154 0.0
H471 H 0.01306 0.4265 0.26066 0.0
C472 C 0.01778 0.5477 0.23035 0.0
N473 N 0.0451 0.58709 0.22374 0.0
C474 C 0.03691 0.55202 0.24501 0.0
C475 C 0.01253 0.56343 0.21236 0.0
C476 C 0.05051 0.57202 0.24137 0.0
C477 C 0.02655 0.58324 0.2093 0.0
C478 C 0.04814 0.48477 0.27722 0.0
C479 C 0.06279 0.49059 0.29593 0.0
C480 C 0.05309 0.46497 0.26369 0.0
C481 C 0.08214 0.47646 0.30086 0.0
C482 C 0.0726 0.45129 0.26918 0.0
N483 N 0.0866 0.45726 0.2875 0.0
C484 C 0.01092 0.53999 0.31062 0.0
C485 C 0.99249 0.56645 0.28449 0.0
C486 C 0.01075 0.55671 0.32839 0.0
N487 N 0.00184 0.54508 0.28925 0.0
C488 C 0.99169 0.58366 0.30188 0.0
C489 C 0.00079 0.57884 0.32428 0.0
H490 H 0.01819 0.52282 0.31388 0.0
H491 H 0.9854 0.57003 0.2673 0.0
C492 C 0.04864 0.49401 0.19619 0.0
N493 N 0.05185 0.50089 0.21871 0.0
C494 C 0.06731 0.49423 0.18046 0.0
C495 C 0.09234 0.50864 0.21144 0.0
C496 C 0.07313 0.50812 0.22661 0.0
C497 C 0.08951 0.50175 0.18797 0.0
H498 H 0.03148 0.48843 0.19044 0.0
H499 H 0.07516 0.51367 0.2446 0.0
O500 O 0.97461 0.49931 0.26926 0.0
O501 O 0.00367 0.47363 0.23074 0.0
O502 O 0.00412 0.52825 0.23344 0.0
O503 O 0.02918 0.49858 0.27227 0.0
H504 H 0.94384 0.4901 0.30241 0.0
H505 H 0.96137 0.53801 0.24689 0.0
H506 H 0.90856 0.51405 0.31097 0.0
H507 H 0.92588 0.56104 0.2564 0.0
H508 H 0.98953 0.4117 0.18294 0.0
H509 H 0.96447 0.45862 0.25104 0.0
H510 H 0.01346 0.44588 0.19516 0.0
H511 H 0.94144 0.42433 0.23784 0.0
H512 H 0.90233 0.48429 0.20435 0.0
H513 H 0.95076 0.51929 0.15771 0.0
H514 H 0.98287 0.44171 0.3402 0.0
H515 H 0.0089 0.39331 0.28801 0.0
H516 H 0.04126 0.54013 0.25906 0.0
H517 H 0.99775 0.56036 0.2009 0.0
H518 H 0.06537 0.57556 0.25258 0.0
H519 H 0.02269 0.59556 0.19544 0.0
H520 H 0.05927 0.50591 0.30652 0.0
H521 H 0.04212 0.4602 0.24905 0.0
H522 H 0.09362 0.48077 0.3153 0.0
H523 H 0.07662 0.43592 0.25886 0.0
H524 H 0.01842 0.55229 0.34516 0.0
H525 H 0.98361 0.60035 0.29795 0.0
H526 H 0.06439 0.48842 0.16265 0.0
H527 H 0.10909 0.51477 0.21788 0.0
Li528 Li 0.47895 0.99671 0.73453 0.0
Li529 Li 0.49929 0.9744 0.76373 0.0
Li530 Li 0.50049 0.01643 0.76483 0.0
Li531 Li 0.52107 0.9955 0.73476 0.0
C532 C 0.45277 0.98353 0.77347 0.0
N533 N 0.4129 0.95796 0.78337 0.0
C534 C 0.44644 0.96461 0.75928 0.0
C535 C 0.43882 0.98944 0.79269 0.0
C536 C 0.42622 0.95191 0.76458 0.0
C537 C 0.41873 0.9763 0.7974 0.0
C538 C 0.51159 0.94939 0.72393 0.0
C539 C 0.54407 0.92321 0.73052 0.0
N540 N 0.53671 0.9097 0.71234 0.0
C541 C 0.50435 0.93525 0.70532 0.0
C542 C 0.53162 0.94334 0.73665 0.0
C543 C 0.51728 0.91525 0.69973 0.0
C544 C 0.45893 0.99172 0.69107 0.0
N545 N 0.45348 0.99818 0.71329 0.0
C546 C 0.41445 0.0079 0.70174 0.0
C547 C 0.43175 0.00609 0.71898 0.0
C548 C 0.41972 0.00166 0.67851 0.0
C549 C 0.44226 0.99326 0.67335 0.0
H550 H 0.47643 0.98563 0.68711 0.0
H551 H 0.42797 0.01137 0.73678 0.0
C552 C 0.50727 0.95019 0.80514 0.0
N553 N 0.49845 0.94752 0.78322 0.0
C554 C 0.50697 0.93154 0.82088 0.0
C555 C 0.48854 0.90766 0.79115 0.0
C556 C 0.48923 0.92681 0.77595 0.0
C557 C 0.49739 0.90993 0.81401 0.0
H558 H 0.51446 0.96691 0.81039 0.0
H559 H 0.48223 0.9252 0.75843 0.0
C560 C 0.4884 0.04321 0.72581 0.0
N561 N 0.46305 0.08308 0.71544 0.0
C562 C 0.49546 0.05786 0.70753 0.0
C563 C 0.46841 0.04881 0.73879 0.0
C564 C 0.48243 0.07795 0.70257 0.0
C565 C 0.45584 0.06905 0.73328 0.0
C566 C 0.54691 0.00694 0.77419 0.0
C567 C 0.55226 0.02742 0.76188 0.0
C568 C 0.5618 0.99932 0.79204 0.0
C569 C 0.57245 0.03994 0.76767 0.0
C570 C 0.58184 0.01233 0.7973 0.0
N571 N 0.5867 0.0322 0.78511 0.0
C572 C 0.49749 0.03599 0.80896 0.0
C573 C 0.50731 0.06414 0.78005 0.0
C574 C 0.49891 0.05288 0.82653 0.0
N575 N 0.50168 0.04185 0.78629 0.0
C576 C 0.5086 0.0817 0.79706 0.0
C577 C 0.50453 0.07607 0.82065 0.0
H578 H 0.49327 0.01805 0.81337 0.0
H579 H 0.51111 0.06827 0.76198 0.0
C580 C 0.54124 0.99956 0.69128 0.0
N581 N 0.54681 0.99453 0.71384 0.0
C582 C 0.55811 0.99774 0.67374 0.0
C583 C 0.58633 0.98598 0.70306 0.0
C584 C 0.5688 0.98784 0.72006 0.0
C585 C 0.58094 0.9907 0.67952 0.0
H586 H 0.52352 0.00461 0.68689 0.0
H587 H 0.57264 0.98346 0.73807 0.0
O588 O 0.47253 0.99624 0.76883 0.0
O589 O 0.49909 0.96908 0.72941 0.0
O590 O 0.50094 0.02338 0.73062 0.0
O591 O 0.52717 0.99436 0.76905 0.0
H592 H 0.45696 0.95974 0.74433 0.0
H593 H 0.44351 0.00403 0.80385 0.0
H594 H 0.42112 0.93722 0.75375 0.0
H595 H 0.40777 0.98068 0.81222 0.0
H596 H 0.5596 0.91833 0.74021 0.0
H597 H 0.48889 0.93971 0.69529 0.0
H598 H 0.53753 0.95401 0.75112 0.0
H599 H 0.51187 0.90415 0.68536 0.0
H600 H 0.39735 0.01465 0.7064 0.0
H601 H 0.44698 0.98793 0.65577 0.0
H602 H 0.5143 0.93398 0.8382 0.0
H603 H 0.48078 0.8914 0.78522 0.0
H604 H 0.51086 0.0537 0.69728 0.0
H605 H 0.46264 0.03773 0.753 0.0
H606 H 0.4877 0.08945 0.68847 0.0
H607 H 0.44036 0.07361 0.74319 0.0
H608 H 0.54103 0.03362 0.74797 0.0
H609 H 0.55789 0.98351 0.80174 0.0
H610 H 0.5768 0.05581 0.75829 0.0
H611 H 0.59352 0.00663 0.81108 0.0
H612 H 0.49554 0.0479 0.84452 0.0
H613 H 0.51325 0.09936 0.79192 0.0
H614 H 0.55332 0.00175 0.65583 0.0
H615 H 0.60369 0.98029 0.70813 0.0
Li616 Li 0.99681 0.52169 0.7361 0.0
Li617 Li 0.97819 0.49807 0.7637 0.0
Li618 Li 0.02098 0.50251 0.76528 0.0
Li619 Li -9e-05 0.47889 0.73262 0.0
C620 C 0.99658 0.54987 0.7737 0.0
N621 N 0.99607 0.59781 0.78003 0.0
C622 C 0.97583 0.56245 0.77058 0.0
C623 C 0.01701 0.56161 0.78031 0.0
C624 C 0.97595 0.5867 0.77377 0.0
C625 C 0.0164 0.58587 0.78337 0.0
C626 C 0.94859 0.49542 0.72741 0.0
C627 C 0.91551 0.47064 0.71875 0.0
N628 N 0.90085 0.48886 0.72324 0.0
C629 C 0.93322 0.51396 0.73171 0.0
C630 C 0.93972 0.47362 0.7207 0.0
C631 C 0.90913 0.51026 0.72961 0.0
C632 C 0.97879 0.54733 0.69841 0.0
N633 N 0.99423 0.54889 0.71646 0.0
C634 C 0.00636 0.58687 0.7036 0.0
C635 C 0.00798 0.56814 0.71924 0.0
C636 C 0.99061 0.58569 0.68473 0.0
C637 C 0.97667 0.56556 0.68231 0.0
H638 H 0.96847 0.53164 0.69615 0.0
H639 H 0.02063 0.56882 0.73324 0.0
C640 C 0.95007 0.51067 0.80197 0.0
N641 N 0.95157 0.49504 0.78409 0.0
C642 C 0.93169 0.50942 0.81801 0.0
C643 C 0.91667 0.47586 0.79713 0.0
C644 C 0.93541 0.47772 0.78153 0.0
C645 C 0.91461 0.49187 0.8157 0.0
H646 H 0.96338 0.52395 0.80403 0.0
H647 H 0.93717 0.46511 0.76758 0.0
C648 C 0.03743 0.5162 0.71492 0.0
N649 N 0.05962 0.54477 0.68281 0.0
C650 C 0.03213 0.51435 0.6911 0.0
C651 C 0.05411 0.53247 0.72241 0.0
C652 C 0.04349 0.52901 0.67514 0.0
C653 C 0.06514 0.54676 0.70589 0.0
C654 C 0.99163 0.45797 0.78235 0.0
C655 C 0.99286 0.46262 0.80635 0.0
C656 C 0.97899 0.43858 0.77438 0.0
C657 C 0.98121 0.44787 0.82201 0.0
C658 C 0.96764 0.42421 0.7906 0.0
N659 N 0.96895 0.42913 0.81388 0.0
C660 C 0.0447 0.50914 0.80766 0.0
C661 C 0.06923 0.49806 0.77603 0.0
C662 C 0.06377 0.50942 0.82291 0.0
N663 N 0.04775 0.50343 0.78477 0.0
C664 C 0.08886 0.49836 0.79063 0.0
C665 C 0.0862 0.50391 0.81445 0.0
H666 H 0.02739 0.51345 0.81405 0.0
H667 H 0.07106 0.4934 0.75776 0.0
C668 C 0.9936 0.45621 0.68983 0.0
N669 N 0.00246 0.45338 0.71171 0.0
C670 C 0.9948 0.438 0.67361 0.0
C671 C 0.01439 0.4143 0.70274 0.0
C672 C 0.01288 0.43306 0.71839 0.0
C673 C 0.00518 0.41661 0.68001 0.0
H674 H 0.98552 0.47265 0.68502 0.0
H675 H 0.01985 0.43138 0.73593 0.0
O676 O 0.99677 0.52611 0.7708 0.0
O677 O 0.97222 0.49872 0.7293 0.0
O678 O 0.02607 0.50244 0.73086 0.0
O679 O 0.00248 0.47249 0.76672 0.0
H680 H 0.95981 0.55358 0.76576 0.0
H681 H 0.03323 0.55215 0.78278 0.0
H682 H 0.96004 0.59668 0.7713 0.0
H683 H 0.03211 0.59522 0.78834 0.0
H684 H 0.90839 0.45382 0.71375 0.0
H685 H 0.93983 0.53101 0.73661 0.0
H686 H 0.95136 0.45906 0.71737 0.0
H687 H 0.89702 0.52442 0.733 0.0
H688 H 0.01739 0.60206 0.70625 0.0
H689 H 0.96468 0.5636 0.66776 0.0
H690 H 0.93117 0.52182 0.83235 0.0
H691 H 0.90389 0.46208 0.79459 0.0
H692 H 0.01918 0.50193 0.68504 0.0
H693 H 0.05821 0.53432 0.74082 0.0
H694 H 0.03944 0.52789 0.65667 0.0
H695 H 0.07797 0.55954 0.71145 0.0
H696 H 0.00246 0.47761 0.81278 0.0
H697 H 0.97766 0.43488 0.75584 0.0
H698 H 0.98187 0.45134 0.84062 0.0
H699 H 0.95768 0.40923 0.78468 0.0
H700 H 0.06105 0.51404 0.84111 0.0
H701 H 0.10584 0.49381 0.78351 0.0
H702 H 0.98786 0.44074 0.65618 0.0
H703 H 0.02236 0.39809 0.70848 0.0
Li704 Li 0.23461 0.50014 0.02076 0.0
Li705 Li 0.26576 0.48016 0.00028 0.0
Li706 Li 0.2631 0.52309 0.99754 0.0
Li707 Li 0.23528 0.49754 0.97785 0.0
C708 C 0.27753 0.49364 0.04599 0.0
N709 N 0.29547 0.47331 0.08609 0.0
C710 C 0.26565 0.47524 0.05685 0.0
C711 C 0.2985 0.50181 0.05562 0.0
C712 C 0.275 0.46515 0.07707 0.0
C713 C 0.3073 0.49128 0.07588 0.0
C714 C 0.2315 0.44811 0.00251 0.0
C715 C 0.24008 0.41001 0.98639 0.0
N716 N 0.23105 0.39984 0.00594 0.0
C717 C 0.22209 0.43726 0.02234 0.0
C718 C 0.24037 0.43438 0.98429 0.0
C719 C 0.2221 0.41284 0.02378 0.0
C720 C 0.1915 0.49403 0.04163 0.0
N721 N 0.21358 0.50139 0.04644 0.0
C722 C 0.20244 0.51202 0.08536 0.0
C723 C 0.21937 0.5103 0.06776 0.0
C724 C 0.17937 0.50477 0.08077 0.0
C725 C 0.17405 0.49552 0.05861 0.0
H726 H 0.18742 0.48724 0.02441 0.0
H727 H 0.23699 0.51645 0.07096 0.0
C728 C 0.30703 0.45846 0.98646 0.0
N729 N 0.28879 0.45583 0.00151 0.0
C730 C 0.32536 0.44236 0.98629 0.0
C731 C 0.30592 0.42095 0.01717 0.0
C732 C 0.28793 0.43754 0.01677 0.0
C733 C 0.32504 0.42335 0.00188 0.0
H734 H 0.30746 0.47324 0.97465 0.0
H735 H 0.27339 0.43581 0.02872 0.0
C736 C 0.22114 0.54539 0.00862 0.0
N737 N 0.20592 0.58507 0.03172 0.0
C738 C 0.2014 0.55743 0.00064 0.0
C739 C 0.23314 0.5535 0.02836 0.0
C740 C 0.19398 0.57747 0.01256 0.0
C741 C 0.22517 0.5736 0.03979 0.0
C742 C 0.26967 0.50204 0.94853 0.0
C743 C 0.26882 0.52402 0.93782 0.0
C744 C 0.27028 0.48185 0.93472 0.0
C745 C 0.2683 0.52543 0.9134 0.0
C746 C 0.26972 0.48399 0.91035 0.0
N747 N 0.26873 0.50556 0.90029 0.0
C748 C 0.30398 0.54824 0.00304 0.0
C749 C 0.27307 0.57161 0.98814 0.0
C750 C 0.31912 0.56737 0.0029 0.0
N751 N 0.28142 0.55073 0.99599 0.0
C752 C 0.28771 0.59124 0.98753 0.0
C753 C 0.31102 0.58924 0.99515 0.0
H754 H 0.31023 0.53128 0.00861 0.0
H755 H 0.25511 0.57301 0.9823 0.0
C756 C 0.2046 0.47455 0.94651 0.0
N757 N 0.21505 0.49534 0.95147 0.0
C758 C 0.18768 0.47313 0.92895 0.0
C759 C 0.19299 0.51445 0.92145 0.0
C760 C 0.20971 0.5151 0.9393 0.0
C761 C 0.18143 0.49333 0.91642 0.0
H762 H 0.20881 0.4592 0.95667 0.0
H763 H 0.21793 0.53152 0.94397 0.0
O764 O 0.26866 0.5038 0.02617 0.0
O765 O 0.23164 0.47201 0.00081 0.0
O766 O 0.22844 0.52565 0.99719 0.0
O767 O 0.26968 0.50029 0.97241 0.0
H768 H 0.2494 0.46877 0.04971 0.0
H769 H 0.30787 0.51619 0.04761 0.0
H770 H 0.26598 0.45084 0.08558 0.0
H771 H 0.32352 0.49742 0.0835 0.0
H772 H 0.24706 0.3992 0.9725 0.0
H773 H 0.21484 0.44757 0.03648 0.0
H774 H 0.24761 0.44246 0.96879 0.0
H775 H 0.21498 0.40423 0.03907 0.0
H776 H 0.20717 0.51948 0.10214 0.0
H777 H 0.15656 0.48948 0.05444 0.0
H778 H 0.33961 0.44474 0.974 0.0
H779 H 0.30509 0.40668 0.02964 0.0
H780 H 0.19191 0.55132 0.9854 0.0
H781 H 0.24845 0.54443 0.03481 0.0
H782 H 0.17873 0.58697 0.00658 0.0
H783 H 0.23428 0.58007 0.05508 0.0
H784 H 0.26828 0.53981 0.94825 0.0
H785 H 0.27115 0.46472 0.94272 0.0
H786 H 0.26749 0.54233 0.90488 0.0
H787 H 0.27008 0.46851 0.89944 0.0
H788 H 0.3371 0.56496 0.00844 0.0
H789 H 0.28083 0.60782 0.98141 0.0
H790 H 0.17926 0.45649 0.92551 0.0
H791 H 0.18844 0.53047 0.91238 0.0
Li792 Li 0.52237 0.26414 0.99599 0.0
Li793 Li 0.50272 0.23492 0.01857 0.0
Li794 Li 0.50177 0.23509 0.97399 0.0
Li795 Li 0.48116 0.26627 0.99791 0.0
C796 C 0.55114 0.22625 0.00093 0.0
N797 N 0.59782 0.21953 0.01153 0.0
C798 C 0.55995 0.23344 0.02259 0.0
C799 C 0.56598 0.21556 0.98468 0.0
C800 C 0.58363 0.22992 0.02761 0.0
C801 C 0.58956 0.21233 0.99038 0.0
C802 C 0.49175 0.27345 0.04512 0.0
C803 C 0.45807 0.26771 0.06997 0.0
N804 N 0.46804 0.28163 0.08652 0.0
C805 C 0.50167 0.28768 0.06239 0.0
C806 C 0.46979 0.26335 0.04895 0.0
C807 C 0.48941 0.29161 0.08319 0.0
C808 C 0.54964 0.30285 0.00885 0.0
N809 N 0.54978 0.28339 0.99517 0.0
C810 C 0.58727 0.29368 0.97963 0.0
C811 C 0.5681 0.27854 0.98074 0.0
C812 C 0.58754 0.31403 0.99346 0.0
C813 C 0.56841 0.31846 0.00829 0.0
H814 H 0.53466 0.30651 0.01982 0.0
H815 H 0.5676 0.26319 0.96969 0.0
C816 C 0.49393 0.19229 0.04067 0.0
N817 N 0.50274 0.21406 0.04442 0.0
C818 C 0.49316 0.17601 0.05887 0.0
C819 C 0.51084 0.20478 0.08442 0.0
C820 C 0.51128 0.22051 0.06569 0.0
C821 C 0.50167 0.18218 0.08113 0.0
H822 H 0.4874 0.18763 0.02351 0.0
H823 H 0.51851 0.23782 0.06813 0.0
C824 C 0.51158 0.28749 0.95842 0.0
N825 N 0.53559 0.32415 0.93791 0.0
C826 C 0.50733 0.3105 0.96558 0.0
C827 C 0.52794 0.28313 0.94074 0.0
C828 C 0.51969 0.3288 0.95503 0.0
C829 C 0.53991 0.3019 0.9306 0.0
C830 C 0.45418 0.22235 0.99273 0.0
C831 C 0.44568 0.22147 0.96979 0.0
C832 C 0.44075 0.21302 0.01096 0.0
C833 C 0.42374 0.21154 0.9655 0.0
C834 C 0.41889 0.20325 0.00595 0.0
N835 N 0.41091 0.20272 0.98352 0.0
C836 C 0.49991 0.19138 0.95277 0.0
C837 C 0.49976 0.22272 0.92557 0.0
C838 C 0.49893 0.17506 0.93462 0.0
N839 N 0.5004 0.21464 0.94795 0.0
C840 C 0.49903 0.207 0.90683 0.0
C841 C 0.49868 0.18275 0.91121 0.0
H842 H 0.50017 0.18554 0.9708 0.0
H843 H 0.49979 0.24135 0.92227 0.0
C844 C 0.45671 0.30684 0.01177 0.0
N845 N 0.45452 0.28668 0.99928 0.0
C846 C 0.43804 0.32252 0.01336 0.0
C847 C 0.41525 0.29675 0.98876 0.0
C848 C 0.43437 0.28154 0.9877 0.0
C849 C 0.41694 0.31759 0.00173 0.0
H850 H 0.47306 0.31089 0.0204 0.0
H851 H 0.43317 0.26585 0.97732 0.0
O852 O 0.52811 0.22982 0.99554 0.0
O853 O 0.50378 0.26927 0.0248 0.0
O854 O 0.50007 0.26933 0.96898 0.0
O855 O 0.47584 0.23156 0.99724 0.0
H856 H 0.5487 0.24194 0.03524 0.0
H857 H 0.55936 0.20994 0.96782 0.0
H858 H 0.59075 0.2355 0.04426 0.0
H859 H 0.60129 0.20415 0.97796 0.0
H860 H 0.44104 0.26004 0.07311 0.0
H861 H 0.51873 0.29552 0.05979 0.0
H862 H 0.4618 0.2524 0.03581 0.0
H863 H 0.49689 0.30257 0.09671 0.0
H864 H 0.60169 0.28951 0.96803 0.0
H865 H 0.56765 0.33415 0.01891 0.0
H866 H 0.48572 0.15887 0.05561 0.0
H867 H 0.51788 0.21014 0.10119 0.0
H868 H 0.49484 0.31418 0.97931 0.0
H869 H 0.53174 0.2654 0.93525 0.0
H870 H 0.51668 0.34668 0.9605 0.0
H871 H 0.55276 0.29877 0.91704 0.0
H872 H 0.45575 0.2287 0.95547 0.0
H873 H 0.44715 0.21324 0.0288 0.0
H874 H 0.4169 0.21088 0.94784 0.0
H875 H 0.4083 0.19602 0.0199 0.0
H876 H 0.49813 0.15662 0.93894 0.0
H877 H 0.49906 0.21379 0.88913 0.0
H878 H 0.44012 0.33829 0.02368 0.0
H879 H 0.3995 0.29247 0.97911 0.0
Li880 Li 0.73668 0.52167 0.00158 0.0
Li881 Li 0.76622 0.4995 0.02341 0.0
Li882 Li 0.76577 0.49998 0.97917 0.0
Li883 Li 0.73656 0.47751 0.00153 0.0
C884 C 0.7742 0.54994 0.00045 0.0
N885 N 0.77979 0.59795 0.99817 0.0
C886 C 0.78176 0.5624 0.02011 0.0
C887 C 0.76985 0.56187 0.97953 0.0
C888 C 0.78439 0.58667 0.01864 0.0
C889 C 0.77267 0.58615 0.97875 0.0
C890 C 0.72802 0.49715 0.05163 0.0
C891 C 0.72709 0.47307 0.08633 0.0
N892 N 0.72082 0.49208 0.09923 0.0
C893 C 0.72125 0.51637 0.06518 0.0
C894 C 0.7307 0.47527 0.06223 0.0
C895 C 0.71781 0.51348 0.08923 0.0
C896 C 0.6996 0.55013 0.98596 0.0
N897 N 0.71706 0.54864 0.00205 0.0
C898 C 0.7046 0.58436 0.01998 0.0
C899 C 0.7199 0.56532 0.01881 0.0
C900 C 0.68625 0.58622 0.00372 0.0
C901 C 0.684 0.56894 0.98637 0.0
H902 H 0.69742 0.53642 0.97311 0.0
H903 H 0.73377 0.56362 0.03157 0.0
C904 C 0.80383 0.48369 0.05104 0.0
N905 N 0.78595 0.49937 0.05033 0.0
C906 C 0.81928 0.48342 0.06996 0.0
C907 C 0.79784 0.51563 0.08705 0.0
C908 C 0.78269 0.51517 0.06785 0.0
C909 C 0.81656 0.4997 0.08823 0.0
H910 H 0.80632 0.47159 0.03672 0.0
H911 H 0.76866 0.52779 0.06666 0.0
C912 C 0.72705 0.49835 0.95151 0.0
N913 N 0.71909 0.49564 0.90384 0.0
C914 C 0.7206 0.47707 0.94129 0.0
C915 C 0.72909 0.51832 0.93752 0.0
C916 C 0.71673 0.47603 0.91715 0.0
C917 C 0.72511 0.51657 0.91345 0.0
C918 C 0.77585 0.4497 0.00064 0.0
C919 C 0.78282 0.43878 0.97988 0.0
C920 C 0.77395 0.4365 0.02116 0.0
C921 C 0.78728 0.41473 0.97988 0.0
C922 C 0.77852 0.41249 0.02045 0.0
N923 N 0.78501 0.40218 -1e-05 0.0
C924 C 0.80351 0.51671 0.95284 0.0
C925 C 0.78244 0.48677 0.93334 0.0
C926 C 0.81897 0.51867 0.93404 0.0
N927 N 0.78556 0.5011 0.95213 0.0
C928 C 0.79764 0.48799 0.9142 0.0
C929 C 0.81616 0.50417 0.9144 0.0
H930 H 0.80603 0.52751 0.96816 0.0
H931 H 0.76837 0.47416 0.9333 0.0
C932 C 0.69708 0.45295 0.01643 0.0
N933 N 0.71632 0.45082 0.00259 0.0
C934 C 0.6812 0.43453 0.01849 0.0
C935 C 0.70475 0.41212 0.99142 0.0
C936 C 0.7203 0.43098 0.99001 0.0
C937 C 0.68494 0.41375 0.00591 0.0
H938 H 0.69395 0.46909 0.0258 0.0
H939 H 0.73532 0.42984 0.97861 0.0
O940 O 0.77129 0.52617 0.0016 0.0
O941 O 0.7317 0.49969 0.02807 0.0
O942 O 0.73094 0.49967 0.97513 0.0
O943 O 0.77135 0.47325 0.00093 0.0
H944 H 0.78551 0.55346 0.03635 0.0
H945 H 0.76445 0.55246 0.96405 0.0
H946 H 0.79009 0.59654 0.03377 0.0
H947 H 0.76925 0.59559 0.9627 0.0
H948 H 0.72921 0.45624 0.09476 0.0
H949 H 0.71879 0.53336 0.05727 0.0
H950 H 0.73531 0.4601 0.05195 0.0
H951 H 0.71275 0.52825 0.09995 0.0
H952 H 0.707 0.59738 0.03356 0.0
H953 H 0.66986 0.56951 0.97375 0.0
H954 H 0.83325 0.47061 0.0702 0.0
H955 H 0.79527 0.52877 0.10048 0.0
H956 H 0.71871 0.46149 0.95183 0.0
H957 H 0.73359 0.53503 0.94516 0.0
H958 H 0.71187 0.45964 0.909 0.0
H959 H 0.72674 0.53188 0.90242 0.0
H960 H 0.78469 0.44871 0.96391 0.0
H961 H 0.76918 0.44471 0.03751 0.0
H962 H 0.79254 0.40604 0.96388 0.0
H963 H 0.77701 0.40206 0.0362 0.0
H964 H 0.83329 0.53106 0.9351 0.0
H965 H 0.79489 0.4765 0.89936 0.0
H966 H 0.66589 0.43671 0.02948 0.0
H967 H 0.70827 0.39641 0.9814 0.0
Li968 Li 0.50209 0.76204 0.02411 0.0
Li969 Li 0.47798 0.7336 0.00278 0.0
Li970 Li 0.52168 0.73322 0.99837 0.0
Li971 Li 0.49722 0.76355 0.98047 0.0
C972 C 0.50976 0.7197 0.04841 0.0
N973 N 0.52481 0.70415 0.09173 0.0
C974 C 0.49389 0.70962 0.06409 0.0
C975 C 0.53336 0.72149 0.05464 0.0
C976 C 0.50181 0.70197 0.08594 0.0
C977 C 0.54061 0.71363 0.07664 0.0
C978 C 0.45015 0.76958 0.0108 0.0
C979 C 0.40952 0.76741 0.99946 0.0
N980 N 0.40313 0.77182 0.02197 0.0
C981 C 0.44318 0.77424 0.0338 0.0
C982 C 0.43321 0.7663 0.99344 0.0
C983 C 0.41932 0.77526 0.0391 0.0
C984 C 0.51256 0.80367 0.0464 0.0
N985 N 0.50528 0.7815 0.05098 0.0
C986 C 0.50262 0.79005 0.09189 0.0
C987 C 0.50016 0.77448 0.07316 0.0
C988 C 0.51031 0.81305 0.08768 0.0
C989 C 0.51529 0.81976 0.06454 0.0
H990 H 0.51613 0.80887 0.02854 0.0
H991 H 0.49387 0.75696 0.07634 0.0
C992 C 0.44533 0.70049 0.98615 0.0
N993 N 0.45098 0.71409 0.00485 0.0
C994 C 0.42616 0.68538 0.98724 0.0
C995 C 0.41891 0.69857 0.0268 0.0
C996 C 0.43817 0.7135 0.02491 0.0
C997 C 0.4128 0.68412 0.00785 0.0
H998 H 0.45597 0.70105 0.97052 0.0
H999 H 0.44302 0.7245 0.03952 0.0
C1000 C 0.54885 0.77461 0.00196 0.0
N1001 N 0.59478 0.78907 0.00715 0.0
C1002 C 0.56137 0.7831 0.98271 0.0
C1003 C 0.55959 0.77395 0.02395 0.0
C1004 C 0.5846 0.79018 0.98565 0.0
C1005 C 0.58284 0.78121 0.0262 0.0
C1006 C 0.4964 0.72909 0.95004 0.0
C1007 C 0.51635 0.72305 0.93722 0.0
C1008 C 0.47582 0.73516 0.93826 0.0
C1009 C 0.51546 0.72348 0.91277 0.0
C1010 C 0.47565 0.73542 0.9138 0.0
N1011 N 0.49531 0.72963 0.90166 0.0
C1012 C 0.54744 0.69226 0.00594 0.0
C1013 C 0.56725 0.71979 0.98203 0.0
C1014 C 0.5664 0.67693 0.00473 0.0
N1015 N 0.54834 0.71339 0.99503 0.0
C1016 C 0.58653 0.70485 0.98011 0.0
C1017 C 0.58631 0.6832 0.99176 0.0
H1018 H 0.53196 0.68732 0.01564 0.0
H1019 H 0.56728 0.73634 0.97292 0.0
C1020 C 0.47663 0.80058 0.95564 0.0
N1021 N 0.49451 0.78491 0.95499 0.0
C1022 C 0.47462 0.81774 0.93839 0.0
C1023 C 0.50935 0.80219 0.91986 0.0
C1024 C 0.51064 0.78527 0.93748 0.0
C1025 C 0.49133 0.81895 0.92036 0.0
H1026 H 0.46415 0.80006 0.96984 0.0
H1027 H 0.52478 0.7727 0.93742 0.0
O1028 O 0.50224 0.7273 0.02694 0.0
O1029 O 0.47343 0.76823 0.00532 0.0
O1030 O 0.52601 0.76773 0.99937 0.0
O1031 O 0.49701 0.72902 0.97399 0.0
H1032 H 0.47563 0.70778 0.05952 0.0
H1033 H 0.54603 0.72854 0.04252 0.0
H1034 H 0.48968 0.69428 0.09829 0.0
H1035 H 0.55882 0.71496 0.08167 0.0
H1036 H 0.39623 0.76475 0.98623 0.0
H1037 H 0.45604 0.77688 0.04744 0.0
H1038 H 0.43829 0.76276 0.97555 0.0
H1039 H 0.41368 0.77874 0.05685 0.0
H1040 H 0.49862 0.78413 0.10945 0.0
H1041 H 0.52079 0.83743 0.0604 0.0
H1042 H 0.42228 0.67428 0.97235 0.0
H1043 H 0.40895 0.69827 0.04294 0.0
H1044 H 0.55332 0.78405 0.96562 0.0
H1045 H 0.55005 0.7682 0.03922 0.0
H1046 H 0.59452 0.79658 0.97084 0.0
H1047 H 0.59135 0.78071 0.04312 0.0
H1048 H 0.53237 0.71817 0.94603 0.0
H1049 H 0.46022 0.73982 0.94791 0.0
H1050 H 0.5308 0.71895 0.90262 0.0
H1051 H 0.45989 0.74024 0.90446 0.0
H1052 H 0.56535 0.66018 0.01356 0.0
H1053 H 0.60154 0.71026 0.96985 0.0
H1054 H 0.46026 0.83009 0.93931 0.0
H1055 H 0.52277 0.80261 0.90647 0.0
H1056 H 0.97128 0.34364 0.39729 0.0
H1057 H 0.03664 0.31315 0.37468 0.0
H1058 H 0.04002 0.34274 0.34395 0.0
H1059 H 0.02508 0.3782 0.32448 0.0
H1060 H 0.95897 0.40751 0.34653 0.0
H1061 H 0.95516 0.37725 0.37636 0.0
C1062 C 0.98607 0.34313 0.38539 0.0
C1063 C 0.00368 0.32618 0.38837 0.0
C1064 C 0.98784 0.36008 0.36771 0.0
C1065 C 0.02296 0.32618 0.37303 0.0
C1066 C 0.02486 0.34303 0.35536 0.0
C1067 C 0.00967 0.37776 0.33558 0.0
C1068 C 0.99246 0.39527 0.33339 0.0
C1069 C 0.00751 0.36021 0.35269 0.0
C1070 C 0.97272 0.39455 0.34811 0.0
C1071 C 0.97045 0.37717 0.36511 0.0
H1072 H 0.67945 0.00871 0.37153 0.0
H1073 H 0.63796 0.96749 0.41941 0.0
H1074 H 0.60647 0.96525 0.39065 0.0
H1075 H 0.5901 0.97614 0.35255 0.0
H1076 H 0.63088 0.01821 0.30487 0.0
H1077 H 0.66332 0.01887 0.33284 0.0
C1078 C 0.66348 0.9993 0.37567 0.0
C1079 C 0.66106 0.98832 0.3976 0.0
C1080 C 0.64532 0.99824 0.35911 0.0
C1081 C 0.64041 0.97587 0.40257 0.0
C1082 C 0.62231 0.97471 0.3862 0.0
C1083 C 0.60605 0.98556 0.34833 0.0
C1084 C 0.60801 0.99727 0.32676 0.0
C1085 C 0.62449 0.98601 0.36452 0.0
C1086 C 0.62898 0.00895 0.32131 0.0
C1087 C 0.64747 0.00944 0.33734 0.0
H1088 H 0.00649 0.62633 0.32096 0.0
H1089 H 0.99238 0.57121 0.37082 0.0
H1090 H 0.99228 0.5996 0.40259 0.0
H1091 H 0.99624 0.64002 0.41643 0.0
H1092 H 0.00813 0.69558 0.36676 0.0
H1093 H 0.00851 0.66715 0.33462 0.0
C1094 C 0.00308 0.62052 0.33871 0.0
C1095 C -0.00026 0.59654 0.34341 0.0
C1096 C 0.00259 0.63704 0.35695 0.0
C1097 C 0.99559 0.58942 0.36665 0.0
C1098 C 0.99534 0.60568 0.38487 0.0
C1099 C 0.99902 0.64584 0.39856 0.0
C1100 C 0.00235 0.66976 0.39392 0.0
C1101 C 0.99896 0.62948 0.38025 0.0
C1102 C 0.0055 0.67721 0.37069 0.0
C1103 C 0.00577 0.66097 0.35236 0.0
H1104 H 0.3641 0.01062 0.41571 0.0
H1105 H 0.30727 0.00051 0.367 0.0
H1106 H 0.33496 0.00027 0.33431 0.0
H1107 H 0.37549 0.00217 0.3197 0.0
H1108 H 0.43225 0.01157 0.36863 0.0
H1109 H 0.40444 0.01299 0.40112 0.0
C1110 C 0.35777 0.00862 0.39791 0.0
C1111 C 0.3337 0.00563 0.39375 0.0
C1112 C 0.37378 0.00831 0.37927 0.0
C1113 C 0.32576 0.00264 0.37064 0.0
C1114 C 0.34156 0.0026 0.35196 0.0
C1115 C 0.3817 0.00474 0.33747 0.0
C1116 C 0.40585 0.00673 0.3418 0.0
C1117 C 0.36562 0.00531 0.35608 0.0
C1118 C 0.41374 0.00976 0.36491 0.0
C1119 C 0.39786 0.01065 0.38347 0.0
H1120 H 0.02652 0.61138 0.66651 0.0
H1121 H 0.95142 0.60317 0.66339 0.0
H1122 H 0.9492 0.63295 0.63286 0.0
H1123 H 0.96862 0.66077 0.60645 0.0
H1124 H 0.04352 0.6697 0.61016 0.0
H1125 H 0.0457 0.64064 0.64153 0.0
C1126 C 0.00961 0.61635 0.65946 0.0
C1127 C 0.9892 0.60489 0.66719 0.0
C1128 C 0.00841 0.63367 0.64204 0.0
C1129 C 0.96748 0.61137 0.65752 0.0
C1130 C 0.96616 0.6285 0.64013 0.0
C1131 C 0.98542 0.6563 0.61412 0.0
C1132 C 0.00589 0.66726 0.60594 0.0
C1133 C 0.98653 0.63959 0.6321 0.0
C1134 C 0.02749 0.66161 0.61628 0.0
C1135 C 0.02876 0.64492 0.63412 0.0
H1136 H 0.37333 0.99021 0.67979 0.0
H1137 H 0.42667 0.01893 0.63458 0.0
H1138 H 0.39861 0.02137 0.60249 0.0
H1139 H 0.35924 0.01473 0.587 0.0
H1140 H 0.30566 0.98595 0.63179 0.0
H1141 H 0.33334 0.98468 0.66447 0.0
C1142 C 0.37872 0.99724 0.66299 0.0
C1143 C 0.40212 0.00417 0.65954 0.0
C1144 C 0.36246 0.99863 0.64456 0.0
C1145 C 0.40888 0.01307 0.63759 0.0
C1146 C 0.39282 0.01459 0.61926 0.0
C1147 C 0.35365 0.00803 0.60387 0.0
C1148 C 0.33049 0.00029 0.60691 0.0
C1149 C 0.36966 0.0072 0.62247 0.0
C1150 C 0.32337 0.99215 0.62903 0.0
C1151 C 0.33922 0.9913 0.64769 0.0
H1152 H 0.02624 0.33266 0.61082 0.0
H1153 H 0.95662 0.35023 0.58731 0.0
H1154 H 0.95394 0.38076 0.61709 0.0
H1155 H 0.97146 0.40277 0.6494 0.0
H1156 H 0.0415 0.38615 0.67243 0.0
H1157 H 0.04367 0.35455 0.64367 0.0
C1158 C 0.01041 0.34304 0.6124 0.0
C1159 C 0.9917 0.33927 0.59682 0.0
C1160 C 0.00902 0.36066 0.62951 0.0
C1161 C 0.97138 0.35301 0.59889 0.0
C1162 C 0.96979 0.37039 0.61597 0.0
C1163 C 0.9873 0.39238 0.64802 0.0
C1164 C 0.00632 0.39694 0.663 0.0
C1165 C 0.98857 0.3745 0.63124 0.0
C1166 C 0.0265 0.38291 0.66129 0.0
C1167 C 0.02782 0.36492 0.64474 0.0
H1168 H 0.62593 0.00649 0.67957 0.0
H1169 H 0.57578 0.96862 0.63764 0.0
H1170 H 0.60414 0.96565 0.6058 0.0
H1171 H 0.6426 0.97481 0.58942 0.0
H1172 H 0.69243 0.01415 0.63044 0.0
H1173 H 0.66506 0.01494 0.66332 0.0
C1174 C 0.62136 0.99738 0.66354 0.0
C1175 C 0.59877 0.98794 0.66087 0.0
C1176 C 0.63769 0.99593 0.64519 0.0
C1177 C 0.59296 0.97633 0.63996 0.0
C1178 C 0.60918 0.97454 0.62179 0.0
C1179 C 0.64745 0.98371 0.60548 0.0
C1180 C 0.6695 0.99454 0.60735 0.0
C1181 C 0.63148 0.98454 0.6241 0.0
C1182 C 0.67567 0.00548 0.62855 0.0
C1183 C 0.65995 0.0061 0.64731 0.0
H1184 H 0.4189 0.36509 0.99921 0.0
H1185 H 0.3702 0.30773 0.00617 0.0
H1186 H 0.33749 0.3353 0.00698 0.0
H1187 H 0.32271 0.37577 0.00531 0.0
H1188 H 0.37176 0.43297 0.99938 0.0
H1189 H 0.40433 0.40537 0.99875 0.0
C1190 C 0.40117 0.3586 0.00122 0.0
C1191 C 0.39705 0.33436 0.00265 0.0
C1192 C 0.38248 0.37453 0.00181 0.0
C1193 C 0.37387 0.32628 0.00475 0.0
C1194 C 0.35516 0.34204 0.00536 0.0
C1195 C 0.34055 0.38219 0.00413 0.0
C1196 C 0.34476 0.4064 0.00228 0.0
C1197 C 0.35925 0.36621 0.00385 0.0
C1198 C 0.36798 0.41441 0.00046 0.0
C1199 C 0.38664 0.39865 0.00022 0.0
H1200 H 0.34102 0.60296 0.02929 0.0
H1201 H 0.31712 0.62116 0.96 0.0
H1202 H 0.34578 0.65297 0.95821 0.0
H1203 H 0.37902 0.67424 0.97562 0.0
H1204 H 0.40315 0.65538 0.04471 0.0
H1205 H 0.37294 0.62528 0.04736 0.0
C1206 C 0.34211 0.6139 0.0138 0.0
C1207 C 0.32713 0.60962 0.99473 0.0
C1208 C 0.35867 0.632 0.01286 0.0
C1209 C 0.32839 0.6242 0.97495 0.0
C1210 C 0.34486 0.64228 0.97387 0.0
C1211 C 0.37764 0.66352 0.99124 0.0
C1212 C 0.39337 0.66698 0.0099 0.0
C1213 C 0.36031 0.64612 0.99259 0.0
C1214 C 0.39114 0.65323 0.03019 0.0
C1215 C 0.37396 0.63591 0.03166 0.0
H1216 H 0.60862 0.3373 0.0293 0.0
H1217 H 0.61072 0.32885 0.95422 0.0
H1218 H 0.64194 0.35795 0.95158 0.0
H1219 H 0.66721 0.38734 0.97039 0.0
H1220 H 0.66434 0.39638 0.04535 0.0
H1221 H 0.63457 0.36582 0.04818 0.0
C1222 C 0.61583 0.3419 0.01234 0.0
C1223 C 0.60728 0.33094 0.992 0.0
C1224 C 0.63353 0.35888 0.0109 0.0
C1225 C 0.61714 0.3368 0.9702 0.0
C1226 C 0.63489 0.35357 0.96865 0.0
C1227 C 0.66029 0.3824 0.98737 0.0
C1228 C 0.6679 0.39419 0.00761 0.0
C1229 C 0.64307 0.36488 0.98886 0.0
C1230 C 0.65854 0.38778 0.02947 0.0
C1231 C 0.64159 0.37026 0.03112 0.0
H1232 H 0.66843 0.61288 0.96844 0.0
H1233 H 0.66471 0.60229 0.04316 0.0
H1234 H 0.6341 0.63198 0.04614 0.0
H1235 H 0.60721 0.65973 0.02733 0.0
H1236 H 0.61067 0.67038 0.95264 0.0
H1237 H 0.64261 0.64196 0.94981 0.0
C1238 C 0.6609 0.6171 0.98535 0.0
C1239 C 0.66877 0.60535 0.00553 0.0
C1240 C 0.64324 0.63414 0.98693 0.0
C1241 C 0.65911 0.61123 0.0274 0.0
C1242 C 0.6415 0.6281 0.0291 0.0
C1243 C 0.61496 0.65578 0.01044 0.0
C1244 C 0.60651 0.66697 0.99021 0.0
C1245 C 0.63325 0.63946 0.00896 0.0
C1246 C 0.61697 0.66205 0.96848 0.0
C1247 C 0.63513 0.64573 0.96684 0.0
H1248 H 0.49995 0.81644 0.87337 0.0
H1249 H 0.48119 0.86496 0.92824 0.0
H1250 H 0.48061 0.897 0.9001 0.0
H1251 H 0.48614 0.9115 0.86019 0.0
H1252 H 0.50645 0.86361 0.80538 0.0
H1253 H 0.50563 0.83109 0.83321 0.0
C1254 C 0.49587 0.83405 0.87919 0.0
C1255 C 0.49055 0.83822 0.9029 0.0
C1256 C 0.49583 0.85253 0.86294 0.0
C1257 C 0.48498 0.86112 0.91006 0.0
C1258 C 0.48481 0.87953 0.89401 0.0
C1259 C 0.49061 0.89399 0.85435 0.0
C1260 C 0.49647 0.89004 0.83076 0.0
C1261 C 0.49033 0.87545 0.87045 0.0
C1262 C 0.50168 0.86712 0.82339 0.0
C1263 C 0.50135 0.84854 0.83933 0.0
H1264 H 0.18001 0.51249 0.8727 0.0
H1265 H 0.13886 0.47278 0.92207 0.0
H1266 H 0.10595 0.47237 0.89483 0.0
H1267 H 0.08859 0.48377 0.85729 0.0
H1268 H 0.12948 0.52314 0.80751 0.0
H1269 H 0.16279 0.52319 0.83452 0.0
C1270 C 0.16381 0.50381 0.87746 0.0
C1271 C 0.16188 0.49265 0.89933 0.0
C1272 C 0.14493 0.50359 0.86166 0.0
C1273 C 0.14088 0.48124 0.90521 0.0
C1274 C 0.122 0.48111 0.88971 0.0
C1275 C 0.10477 0.49247 0.85243 0.0
C1276 C 0.10656 0.50357 0.83055 0.0
C1277 C 0.1238 0.49231 0.86795 0.0
C1278 C 0.12775 0.51439 0.82425 0.0
C1279 C 0.14674 0.5145 0.83971 0.0
H1280 H 0.48471 0.11933 0.82124 0.0
H1281 H 0.52867 0.07305 0.86158 0.0
H1282 H 0.53129 0.10221 0.8928 0.0
H1283 H 0.52092 0.1406 0.90868 0.0
H1284 H 0.47504 0.18616 0.86947 0.0
H1285 H 0.47383 0.15779 0.83754 0.0
C1286 C 0.49498 0.11576 0.83682 0.0
C1287 C 0.50646 0.09412 0.83917 0.0
C1288 C 0.49615 0.13249 0.85484 0.0
C1289 C 0.51951 0.08954 0.85951 0.0
C1290 C 0.52107 0.10621 0.87731 0.0
C1291 C 0.5104 0.14428 0.8933 0.0
C1292 C 0.49807 0.16556 0.8916 0.0
C1293 C 0.50934 0.12767 0.87523 0.0
C1294 C 0.485 0.17013 0.87121 0.0
C1295 C 0.48414 0.15382 0.85297 0.0
H1296 H 0.88972 0.52746 0.83534 0.0
H1297 H 0.89571 0.45213 0.8348 0.0
H1298 H 0.86475 0.44923 0.86414 0.0
H1299 H 0.83742 0.4682 0.89154 0.0
H1300 H 0.8326 0.54356 0.89304 0.0
H1301 H 0.86197 0.54635 0.86205 0.0
C1302 C 0.88438 0.5104 0.84173 0.0
C1303 C 0.89512 0.49006 0.83289 0.0
C1304 C 0.86687 0.50887 0.85891 0.0
C1305 C 0.8876 0.46808 0.84106 0.0
C1306 C 0.86999 0.4664 0.85798 0.0
C1307 C 0.8426 0.4852 0.88485 0.0
C1308 C 0.83291 0.50564 0.8946 0.0
C1309 C 0.85966 0.48668 0.86719 0.0
C1310 C 0.84 0.52758 0.88599 0.0
C1311 C 0.85673 0.52918 0.86824 0.0
H1312 H 0.49183 0.12174 0.17336 0.0
H1313 H 0.51455 0.06735 0.12605 0.0
H1314 H 0.51665 0.09564 0.0941 0.0
H1315 H 0.51222 0.13578 0.07959 0.0
H1316 H 0.48957 0.19028 0.12677 0.0
H1317 H 0.48788 0.1621 0.15892 0.0
C1318 C 0.49747 0.11612 0.15612 0.0
C1319 C 0.50291 0.09242 0.15211 0.0
C1320 C 0.49878 0.13251 0.13783 0.0
C1321 C 0.50989 0.0854 0.12956 0.0
C1322 C 0.51124 0.10159 0.1113 0.0
C1323 C 0.50673 0.14146 0.09686 0.0
C1324 C 0.50098 0.16509 0.10074 0.0
C1325 C 0.50564 0.12516 0.11521 0.0
C1326 C 0.49433 0.17225 0.12335 0.0
C1327 C 0.49322 0.15611 0.14171 0.0
H1328 H 0.87667 0.50804 0.18099 0.0
H1329 H 0.93217 0.49204 0.13217 0.0
H1330 H 0.90398 0.49045 0.10022 0.0
H1331 H 0.86378 0.49383 0.08598 0.0
H1332 H 0.80776 0.5077 0.1348 0.0
H1333 H 0.83599 0.50991 0.16687 0.0
C1334 C 0.88258 0.50397 0.16342 0.0
C1335 C 0.90659 0.50036 0.15904 0.0
C1336 C 0.86621 0.50275 0.14508 0.0
C1337 C 0.91391 0.49538 0.13604 0.0
C1338 C 0.89777 0.49428 0.11774 0.0
C1339 C 0.85764 0.49699 0.10367 0.0
C1340 C 0.83362 0.50054 0.10791 0.0
C1341 C 0.8739 0.49796 0.12205 0.0
C1342 C 0.82614 0.50517 0.13093 0.0
C1343 C 0.84227 0.5063 0.14932 0.0
H1344 H 0.48051 0.81975 0.12434 0.0
H1345 H 0.54512 0.84513 0.09446 0.0
H1346 H 0.54732 0.87555 0.12437 0.0
H1347 H 0.52981 0.89626 0.15758 0.0
H1348 H 0.46564 0.87055 0.18812 0.0
H1349 H 0.46443 0.83885 0.15941 0.0
C1350 C 0.49528 0.83168 0.12461 0.0
C1351 C 0.51252 0.83026 0.10706 0.0
C1352 C 0.49644 0.84916 0.14187 0.0
C1353 C 0.53139 0.84608 0.10751 0.0
C1354 C 0.53273 0.86342 0.12467 0.0
C1355 C 0.51579 0.88348 0.15828 0.0
C1356 C 0.4978 0.88587 0.17494 0.0
C1357 C 0.51519 0.86532 0.14174 0.0
C1358 C 0.47954 0.86934 0.17527 0.0
C1359 C 0.47888 0.85115 0.15892 0.0
H1360 H 0.1818 0.49385 0.1272 0.0
H1361 H 0.13505 0.52114 0.07448 0.0
H1362 H 0.10347 0.5233 0.10316 0.0
H1363 H 0.08883 0.51658 0.14282 0.0
H1364 H 0.13501 0.48854 0.19564 0.0
H1365 H 0.16728 0.48812 0.16748 0.0
C1366 C 0.16477 0.5005 0.12209 0.0
C1367 C 0.16072 0.50714 0.09871 0.0
C1368 C 0.14661 0.50162 0.13868 0.0
C1369 C 0.1385 0.51556 0.09228 0.0
C1370 C 0.12046 0.5169 0.10868 0.0
C1371 C 0.10591 0.51022 0.14815 0.0
C1372 C 0.10943 0.50244 0.17125 0.0
C1373 C 0.12425 0.50973 0.13184 0.0
C1374 C 0.13184 0.49478 0.17801 0.0
C1375 C 0.15027 0.4944 0.16188 0.0
H1376 H 0.82268 0.87776 0.5119 0.0
H1377 H 0.86956 0.93015 0.48423 0.0
H1378 H 0.90168 0.90197 0.48442 0.0
H1379 H 0.91639 0.8624 0.49206 0.0
H1380 H 0.86976 0.80982 0.51972 0.0
H1381 H 0.83758 0.83809 0.51992 0.0
C1382 C 0.83999 0.88302 0.50609 0.0
C1383 C 0.84373 0.90598 0.49801 0.0
C1384 C 0.85838 0.8667 0.50619 0.0
C1385 C 0.86616 0.91249 0.49025 0.0
C1386 C 0.88457 0.89643 0.49046 0.0
C1387 C 0.89925 0.8572 0.49836 0.0
C1388 C 0.89548 0.83409 0.50594 0.0
C1389 C 0.88087 0.87349 0.49835 0.0
C1390 C 0.87305 0.82748 0.51363 0.0
C1391 C 0.85468 0.84365 0.51383 0.0
H1392 H 0.86969 0.18098 0.50109 0.0
H1393 H 0.92588 0.13046 0.49905 0.0
H1394 H 0.89756 0.09854 0.49899 0.0
H1395 H 0.85696 0.08489 0.49915 0.0
H1396 H 0.80052 0.13499 0.50155 0.0
H1397 H 0.82883 0.16717 0.50245 0.0
C1398 C 0.87573 0.16299 0.50089 0.0
C1399 C 0.89987 0.15815 0.49985 0.0
C1400 C 0.85933 0.14465 0.50099 0.0
C1401 C 0.9074 0.13471 0.49938 0.0
C1402 C 0.89122 0.11642 0.4995 0.0
C1403 C 0.85086 0.10287 0.49969 0.0
C1404 C 0.82671 0.10758 0.50007 0.0
C1405 C 0.86717 0.12119 0.50011 0.0
C1406 C 0.81904 0.13093 0.50134 0.0
C1407 C 0.83521 0.14932 0.50174 0.0
H1408 H 0.11714 0.83113 0.47191 0.0
H1409 H 0.09712 0.84363 0.54372 0.0
H1410 H 0.12677 0.87424 0.54694 0.0
H1411 H 0.15732 0.89852 0.52894 0.0
H1412 H 0.1767 0.88679 0.45685 0.0
H1413 H 0.14842 0.8548 0.45418 0.0
C1414 C 0.11923 0.8406 0.48824 0.0
C1415 C 0.10488 0.83512 0.50751 0.0
C1416 C 0.13617 0.85835 0.48992 0.0
C1417 C 0.10809 0.8473 0.52868 0.0
C1418 C 0.12493 0.86493 0.5305 0.0
C1419 C 0.15528 0.88901 0.51262 0.0
C1420 C 0.16901 0.89511 0.4931 0.0
C1421 C 0.13889 0.87076 0.51116 0.0
C1422 C 0.16649 0.88234 0.4722 0.0
C1423 C 0.15022 0.86413 0.47062 0.0
H1424 H 0.12418 0.17987 0.51408 0.0
H1425 H 0.07605 0.13812 0.47337 0.0
H1426 H 0.10486 0.10679 0.47086 0.0
H1427 H 0.14315 0.09076 0.48099 0.0
H1428 H 0.19218 0.1326 0.52046 0.0
H1429 H 0.16354 0.16434 0.52273 0.0
C1430 C 0.12011 0.16402 0.50444 0.0
C1431 C 0.09789 0.16129 0.49413 0.0
C1432 C 0.13685 0.14604 0.50293 0.0
C1433 C 0.09283 0.14053 0.48188 0.0
C1434 C 0.10935 0.12263 0.4803 0.0
C1435 C 0.14777 0.10695 0.48978 0.0
C1436 C 0.16982 0.10927 0.5005 0.0
C1437 C 0.13133 0.12514 0.49088 0.0
C1438 C 0.17524 0.13022 0.51227 0.0
C1439 C 0.15891 0.14843 0.51348 0.0
loop_
_geom_bond_atom_site_label_1
_geom_bond_atom_site_label_2
_geom_bond_distance
_geom_bond_site_symmetry_2
_ccdc_geom_bond_type
Li0 N17 1.990 . S
Li0 O60 1.956 . S
Li0 O61 1.973 . S
Li0 O62 1.950 1_655 S
Li1 N25 1.991 . S
Li1 O60 1.955 1_455 S
Li1 O61 1.956 1_455 S
Li1 O63 1.976 . S
Li2 N47 1.991 . S
Li2 O60 1.968 . S
Li2 O62 1.956 1_655 S
Li2 O63 1.963 1_655 S
Li3 N53 1.990 . S
Li3 O61 1.958 1_455 S
Li3 O62 1.981 . S
Li3 O63 1.956 . S
C4 C6 1.348 . S
C4 C7 1.356 . S
C4 O60 1.325 . S
N5 C8 1.314 . S
N5 C9 1.279 . S
C6 C4 1.348 . S
C6 C8 1.353 . S
C6 H64 0.929 . S
C7 C4 1.356 . S
C7 C9 1.358 . S
C7 H65 0.930 . S
C8 N5 1.314 . S
C8 C6 1.353 . S
C8 H66 0.930 . S
C9 N5 1.279 . S
C9 C7 1.358 . S
C9 H67 0.930 . S
C10 C13 1.345 1_455 S
C10 C14 1.359 . S
C10 O61 1.325 1_455 S
C11 N12 1.279 . S
C11 C14 1.358 . S
C11 H68 0.930 . S
N12 C11 1.279 . S
N12 C15 1.314 1_455 S
C13 C10 1.345 1_655 S
C13 C15 1.353 . S
C13 H69 0.929 . S
C14 C10 1.359 . S
C14 C11 1.358 . S
C14 H70 0.930 . S
C15 N12 1.314 1_655 S
C15 C13 1.353 . S
C15 H71 0.930 . S
C16 N17 1.314 . S
C16 C21 1.353 . S
C16 H22 0.930 . S
N17 Li0 1.990 . S
N17 C16 1.314 . S
N17 C19 1.279 . S
C18 C19 1.358 . S
C18 C20 1.356 . S
C18 H72 0.930 . S
C19 N17 1.279 . S
C19 C18 1.358 . S
C19 H23 0.930 . S
C20 C18 1.356 . S
C20 C21 1.348 . S
C21 C16 1.353 . S
C21 C20 1.348 . S
C21 H73 0.929 . S
H22 C16 0.930 . S
H23 C19 0.930 . S
C24 N25 1.314 . S
C24 C26 1.353 . S
C24 H30 0.930 . S
N25 Li1 1.991 . S
N25 C24 1.314 . S
N25 C28 1.279 1_455 S
C26 C24 1.353 . S
C26 C29 1.346 . S
C26 H74 0.929 . S
C27 C28 1.358 . S
C27 C29 1.357 1_655 S
C27 H75 0.930 . S
C28 N25 1.279 1_655 S
C28 C27 1.358 . S
C28 H31 0.930 . S
C29 C26 1.346 . S
C29 C27 1.357 1_455 S
H30 C24 0.930 . S
H31 C28 0.930 . S
C32 C34 1.345 . S
C32 C35 1.359 1_455 S
C32 O62 1.325 . S
N33 C36 1.276 1_655 S
N33 C37 1.317 . S
C34 C32 1.345 . S
C34 C36 1.353 . S
C34 H76 0.929 . S
C35 C32 1.359 1_655 S
C35 C37 1.358 . S
C35 H77 0.930 . S
C36 N33 1.276 1_455 S
C36 C34 1.353 . S
C36 H78 0.930 . S
C37 N33 1.317 . S
C37 C35 1.358 . S
C37 H79 0.930 . S
C38 C39 1.348 . S
C38 C40 1.356 . S
C38 O63 1.325 . S
C39 C38 1.348 . S
C39 C41 1.353 . S
C39 H80 0.929 . S
C40 C38 1.356 . S
C40 C42 1.358 . S
C40 H81 0.930 . S
C41 C39 1.353 . S
C41 N43 1.314 . S
C41 H82 0.930 . S
C42 C40 1.358 . S
C42 N43 1.279 . S
C42 H83 0.930 . S
N43 C41 1.314 . S
N43 C42 1.279 . S
C44 C46 1.353 . S
C44 N47 1.314 . S
C44 H50 0.930 . S
C45 N47 1.279 1_455 S
C45 C48 1.358 . S
C45 H51 0.930 . S
C46 C44 1.353 . S
C46 C49 1.346 1_655 S
C46 H84 0.929 . S
N47 Li2 1.991 . S
N47 C44 1.314 . S
N47 C45 1.279 1_655 S
C48 C45 1.358 . S
C48 C49 1.357 . S
C48 H85 0.930 . S
C49 C46 1.346 1_455 S
C49 C48 1.357 . S
H50 C44 0.930 . S
H51 C45 0.930 . S
C52 N53 1.314 . S
C52 C54 1.353 . S
C52 H58 0.930 . S
N53 Li3 1.990 . S
N53 C52 1.314 . S
N53 C56 1.279 . S
C54 C52 1.353 . S
C54 C57 1.348 . S
C54 H86 0.929 . S
C55 C56 1.358 . S
C55 C57 1.356 . S
C55 H87 0.930 . S
C56 N53 1.279 . S
C56 C55 1.358 . S
C56 H59 0.930 . S
C57 C54 1.348 . S
C57 C55 1.356 . S
H58 C52 0.930 . S
H59 C56 0.930 . S
O60 Li0 1.956 . S
O60 Li1 1.955 1_655 S
O60 Li2 1.968 . S
O60 C4 1.325 . S
O61 Li0 1.973 . S
O61 Li1 1.956 1_655 S
O61 Li3 1.958 1_655 S
O61 C10 1.325 1_655 S
O62 Li0 1.950 1_455 S
O62 Li2 1.956 1_455 S
O62 Li3 1.981 . S
O62 C32 1.325 . S
O63 Li1 1.976 . S
O63 Li2 1.963 1_455 S
O63 Li3 1.956 . S
O63 C38 1.325 . S
H64 C6 0.929 . S
H65 C7 0.930 . S
H66 C8 0.930 . S
H67 C9 0.930 . S
H68 C11 0.930 . S
H69 C13 0.929 . S
H70 C14 0.930 . S
H71 C15 0.930 . S
H72 C18 0.930 . S
H73 C21 0.929 . S
H74 C26 0.929 . S
H75 C27 0.930 . S
H76 C34 0.929 . S
H77 C35 0.930 . S
H78 C36 0.930 . S
H79 C37 0.930 . S
H80 C39 0.929 . S
H81 C40 0.930 . S
H82 C41 0.930 . S
H83 C42 0.930 . S
H84 C46 0.929 . S
H85 C48 0.930 . S
H86 C54 0.929 . S
H87 C55 0.930 . S
Li88 N105 1.991 . S
Li88 O148 1.956 1_545 S
Li88 O149 1.955 1_545 S
Li88 O150 1.976 . S
Li89 N113 1.990 . S
Li89 O148 1.973 . S
Li89 O149 1.956 . S
Li89 O151 1.950 1_565 S
Li90 N135 1.990 . S
Li90 O148 1.958 1_545 S
Li90 O150 1.956 . S
Li90 O151 1.981 . S
Li91 N141 1.991 . S
Li91 O149 1.968 . S
Li91 O150 1.963 1_565 S
Li91 O151 1.956 1_565 S
C92 C94 1.345 1_545 S
C92 C95 1.359 . S
C92 O148 1.325 1_545 S
N93 C96 1.314 1_545 S
N93 C97 1.279 . S
C94 C92 1.345 1_565 S
C94 C96 1.353 . S
C94 H152 0.929 . S
C95 C92 1.359 . S
C95 C97 1.358 . S
C95 H153 0.930 . S
C96 N93 1.314 1_565 S
C96 C94 1.353 . S
C96 H154 0.930 . S
C97 N93 1.279 . S
C97 C95 1.358 . S
C97 H155 0.930 . S
C98 C101 1.348 . S
C98 C102 1.356 . S
C98 O149 1.325 . S
C99 N100 1.279 . S
C99 C102 1.358 . S
C99 H156 0.930 . S
N100 C99 1.279 . S
N100 C103 1.314 . S
C101 C98 1.348 . S
C101 C103 1.353 . S
C101 H157 0.929 . S
C102 C98 1.356 . S
C102 C99 1.358 . S
C102 H158 0.930 . S
C103 N100 1.314 . S
C103 C101 1.353 . S
C103 H159 0.930 . S
C104 N105 1.314 . S
C104 C109 1.353 . S
C104 H110 0.930 . S
N105 Li88 1.991 . S
N105 C104 1.314 . S
N105 C107 1.279 1_545 S
C106 C107 1.358 . S
C106 C108 1.357 1_565 S
C106 H160 0.930 . S
C107 N105 1.279 1_565 S
C107 C106 1.358 . S
C107 H111 0.930 . S
C108 C106 1.357 1_545 S
C108 C109 1.346 . S
C109 C104 1.353 . S
C109 C108 1.346 . S
C109 H161 0.929 . S
H110 C104 0.930 . S
H111 C107 0.930 . S
C112 N113 1.314 . S
C112 C114 1.353 . S
C112 H118 0.930 . S
N113 Li89 1.990 . S
N113 C112 1.314 . S
N113 C116 1.279 . S
C114 C112 1.353 . S
C114 C117 1.348 . S
C114 H162 0.929 . S
C115 C116 1.358 . S
C115 C117 1.356 . S
C115 H163 0.930 . S
C116 N113 1.279 . S
C116 C115 1.358 . S
C116 H119 0.930 . S
C117 C114 1.348 . S
C117 C115 1.356 . S
H118 C112 0.930 . S
H119 C116 0.930 . S
C120 C122 1.348 . S
C120 C123 1.356 . S
C120 O150 1.325 . S
N121 C124 1.314 . S
N121 C125 1.279 . S
C122 C120 1.348 . S
C122 C124 1.353 . S
C122 H164 0.929 . S
C123 C120 1.356 . S
C123 C125 1.358 . S
C123 H165 0.930 . S
C124 N121 1.314 . S
C124 C122 1.353 . S
C124 H166 0.930 . S
C125 N121 1.279 . S
C125 C123 1.358 . S
C125 H167 0.930 . S
C126 C127 1.345 . S
C126 C128 1.359 1_545 S
C126 O151 1.325 . S
C127 C126 1.345 . S
C127 C129 1.353 . S
C127 H168 0.929 . S
C128 C126 1.359 1_565 S
C128 C130 1.358 . S
C128 H169 0.930 . S
C129 C127 1.353 . S
C129 N131 1.276 1_545 S
C129 H170 0.930 . S
C130 C128 1.358 . S
C130 N131 1.317 . S
C130 H171 0.930 . S
N131 C129 1.276 1_565 S
N131 C130 1.317 . S
C132 C134 1.353 . S
C132 N135 1.314 . S
C132 H138 0.930 . S
C133 N135 1.279 . S
C133 C136 1.358 . S
C133 H139 0.930 . S
C134 C132 1.353 . S
C134 C137 1.348 . S
C134 H172 0.929 . S
N135 Li90 1.990 . S
N135 C132 1.314 . S
N135 C133 1.279 . S
C136 C133 1.358 . S
C136 C137 1.356 . S
C136 H173 0.930 . S
C137 C134 1.348 . S
C137 C136 1.356 . S
H138 C132 0.930 . S
H139 C133 0.930 . S
C140 N141 1.314 . S
C140 C142 1.353 . S
C140 H146 0.930 . S
N141 Li91 1.991 . S
N141 C140 1.314 . S
N141 C144 1.279 1_565 S
C142 C140 1.353 . S
C142 C145 1.346 1_565 S
C142 H174 0.929 . S
C143 C144 1.358 . S
C143 C145 1.357 . S
C143 H175 0.930 . S
C144 N141 1.279 1_545 S
C144 C143 1.358 . S
C144 H147 0.930 . S
C145 C142 1.346 1_545 S
C145 C143 1.357 . S
H146 C140 0.930 . S
H147 C144 0.930 . S
O148 Li88 1.956 1_565 S
O148 Li89 1.973 . S
O148 Li90 1.958 1_565 S
O148 C92 1.325 1_565 S
O149 Li88 1.955 1_565 S
O149 Li89 1.956 . S
O149 Li91 1.968 . S
O149 C98 1.325 . S
O150 Li88 1.976 . S
O150 Li90 1.956 . S
O150 Li91 1.963 1_545 S
O150 C120 1.325 . S
O151 Li89 1.950 1_545 S
O151 Li90 1.981 . S
O151 Li91 1.956 1_545 S
O151 C126 1.325 . S
H152 C94 0.929 . S
H153 C95 0.930 . S
H154 C96 0.930 . S
H155 C97 0.930 . S
H156 C99 0.930 . S
H157 C101 0.929 . S
H158 C102 0.930 . S
H159 C103 0.930 . S
H160 C106 0.930 . S
H161 C109 0.929 . S
H162 C114 0.929 . S
H163 C115 0.930 . S
H164 C122 0.929 . S
H165 C123 0.930 . S
H166 C124 0.930 . S
H167 C125 0.930 . S
H168 C127 0.929 . S
H169 C128 0.930 . S
H170 C129 0.930 . S
H171 C130 0.930 . S
H172 C134 0.929 . S
H173 C136 0.930 . S
H174 C142 0.929 . S
H175 C143 0.930 . S
Li176 N193 1.990 . S
Li176 O236 1.956 . S
Li176 O237 1.981 . S
Li176 O238 1.958 1_455 S
Li177 N201 1.991 . S
Li177 O236 1.963 1_655 S
Li177 O237 1.956 1_655 S
Li177 O239 1.968 . S
Li178 N223 1.991 . S
Li178 O236 1.976 . S
Li178 O238 1.956 1_455 S
Li178 O239 1.955 1_455 S
Li179 N229 1.990 . S
Li179 O237 1.950 1_655 S
Li179 O238 1.973 . S
Li179 O239 1.956 . S
C180 C182 1.348 . S
C180 C183 1.356 . S
C180 O236 1.325 . S
N181 C184 1.314 . S
N181 C185 1.279 . S
C182 C180 1.348 . S
C182 C184 1.353 . S
C182 H240 0.929 . S
C183 C180 1.356 . S
C183 C185 1.358 . S
C183 H241 0.930 . S
C184 N181 1.314 . S
C184 C182 1.353 . S
C184 H242 0.930 . S
C185 N181 1.279 . S
C185 C183 1.358 . S
C185 H243 0.930 . S
C186 C189 1.345 . S
C186 C190 1.359 1_455 S
C186 O237 1.325 . S
C187 N188 1.317 . S
C187 C190 1.358 . S
C187 H244 0.930 . S
N188 C187 1.317 . S
N188 C191 1.276 1_655 S
C189 C186 1.345 . S
C189 C191 1.353 . S
C189 H245 0.929 . S
C190 C186 1.359 1_655 S
C190 C187 1.358 . S
C190 H246 0.930 . S
C191 N188 1.276 1_455 S
C191 C189 1.353 . S
C191 H247 0.930 . S
C192 N193 1.314 . S
C192 C197 1.353 . S
C192 H198 0.930 . S
N193 Li176 1.990 . S
N193 C192 1.314 . S
N193 C195 1.279 . S
C194 C195 1.358 . S
C194 C196 1.356 . S
C194 H248 0.930 . S
C195 N193 1.279 . S
C195 C194 1.358 . S
C195 H199 0.930 . S
C196 C194 1.356 . S
C196 C197 1.348 . S
C197 C192 1.353 . S
C197 C196 1.348 . S
C197 H249 0.929 . S
H198 C192 0.930 . S
H199 C195 0.930 . S
C200 N201 1.314 . S
C200 C202 1.353 . S
C200 H206 0.930 . S
N201 Li177 1.991 . S
N201 C200 1.314 . S
N201 C204 1.279 1_655 S
C202 C200 1.353 . S
C202 C205 1.346 1_655 S
C202 H250 0.929 . S
C203 C204 1.358 . S
C203 C205 1.357 . S
C203 H251 0.930 . S
C204 N201 1.279 1_455 S
C204 C203 1.358 . S
C204 H207 0.930 . S
C205 C202 1.346 1_455 S
C205 C203 1.357 . S
H206 C200 0.930 . S
H207 C204 0.930 . S
C208 C210 1.345 1_455 S
C208 C211 1.359 . S
C208 O238 1.325 1_455 S
N209 C212 1.314 1_455 S
N209 C213 1.279 . S
C210 C208 1.345 1_655 S
C210 C212 1.353 . S
C210 H252 0.929 . S
C211 C208 1.359 . S
C211 C213 1.358 . S
C211 H253 0.930 . S
C212 N209 1.314 1_655 S
C212 C210 1.353 . S
C212 H254 0.930 . S
C213 N209 1.279 . S
C213 C211 1.358 . S
C213 H255 0.930 . S
C214 C215 1.348 . S
C214 C216 1.356 . S
C214 O239 1.325 . S
C215 C214 1.348 . S
C215 C217 1.353 . S
C215 H256 0.929 . S
C216 C214 1.356 . S
C216 C218 1.358 . S
C216 H257 0.930 . S
C217 C215 1.353 . S
C217 N219 1.314 . S
C217 H258 0.930 . S
C218 C216 1.358 . S
C218 N219 1.279 . S
C218 H259 0.930 . S
N219 C217 1.314 . S
N219 C218 1.279 . S
C220 C222 1.353 . S
C220 N223 1.314 . S
C220 H226 0.930 . S
C221 N223 1.279 1_655 S
C221 C224 1.358 . S
C221 H227 0.930 . S
C222 C220 1.353 . S
C222 C225 1.346 . S
C222 H260 0.929 . S
N223 Li178 1.991 . S
N223 C220 1.314 . S
N223 C221 1.279 1_455 S
C224 C221 1.358 . S
C224 C225 1.357 1_655 S
C224 H261 0.930 . S
C225 C222 1.346 . S
C225 C224 1.357 1_455 S
H226 C220 0.930 . S
H227 C221 0.930 . S
C228 N229 1.314 . S
C228 C230 1.353 . S
C228 H234 0.930 . S
N229 Li179 1.990 . S
N229 C228 1.314 . S
N229 C232 1.279 . S
C230 C228 1.353 . S
C230 C233 1.348 . S
C230 H262 0.929 . S
C231 C232 1.358 . S
C231 C233 1.356 . S
C231 H263 0.930 . S
C232 N229 1.279 . S
C232 C231 1.358 . S
C232 H235 0.930 . S
C233 C230 1.348 . S
C233 C231 1.356 . S
H234 C228 0.930 . S
H235 C232 0.930 . S
O236 Li176 1.956 . S
O236 Li177 1.963 1_455 S
O236 Li178 1.976 . S
O236 C180 1.325 . S
O237 Li176 1.981 . S
O237 Li177 1.956 1_455 S
O237 Li179 1.950 1_455 S
O237 C186 1.325 . S
O238 Li176 1.958 1_655 S
O238 Li178 1.956 1_655 S
O238 Li179 1.973 . S
O238 C208 1.325 1_655 S
O239 Li177 1.968 . S
O239 Li178 1.955 1_655 S
O239 Li179 1.956 . S
O239 C214 1.325 . S
H240 C182 0.929 . S
H241 C183 0.930 . S
H242 C184 0.930 . S
H243 C185 0.930 . S
H244 C187 0.930 . S
H245 C189 0.929 . S
H246 C190 0.930 . S
H247 C191 0.930 . S
H248 C194 0.930 . S
H249 C197 0.929 . S
H250 C202 0.929 . S
H251 C203 0.930 . S
H252 C210 0.929 . S
H253 C211 0.930 . S
H254 C212 0.930 . S
H255 C213 0.930 . S
H256 C215 0.929 . S
H257 C216 0.930 . S
H258 C217 0.930 . S
H259 C218 0.930 . S
H260 C222 0.929 . S
H261 C224 0.930 . S
H262 C230 0.929 . S
H263 C231 0.930 . S
Li264 N281 1.990 . S
Li264 O324 1.956 . S
Li264 O325 1.981 . S
Li264 O326 1.958 1_545 S
Li265 N289 1.991 . S
Li265 O324 1.963 1_565 S
Li265 O325 1.956 1_565 S
Li265 O327 1.968 . S
Li266 N311 1.991 . S
Li266 O324 1.976 . S
Li266 O326 1.956 1_545 S
Li266 O327 1.955 1_545 S
Li267 N317 1.990 . S
Li267 O325 1.950 1_565 S
Li267 O326 1.973 . S
Li267 O327 1.956 . S
C268 C270 1.348 . S
C268 C271 1.356 . S
C268 O324 1.325 . S
N269 C272 1.314 . S
N269 C273 1.279 . S
C270 C268 1.348 . S
C270 C272 1.353 . S
C270 H328 0.929 . S
C271 C268 1.356 . S
C271 C273 1.358 . S
C271 H329 0.930 . S
C272 N269 1.314 . S
C272 C270 1.353 . S
C272 H330 0.930 . S
C273 N269 1.279 . S
C273 C271 1.358 . S
C273 H331 0.930 . S
C274 C277 1.345 . S
C274 C278 1.359 1_545 S
C274 O325 1.325 . S
C275 N276 1.317 . S
C275 C278 1.358 . S
C275 H332 0.930 . S
N276 C275 1.317 . S
N276 C279 1.276 1_565 S
C277 C274 1.345 . S
C277 C279 1.353 . S
C277 H333 0.929 . S
C278 C274 1.359 1_565 S
C278 C275 1.358 . S
C278 H334 0.930 . S
C279 N276 1.276 1_545 S
C279 C277 1.353 . S
C279 H335 0.930 . S
C280 N281 1.314 . S
C280 C285 1.353 . S
C280 H286 0.930 . S
N281 Li264 1.990 . S
N281 C280 1.314 . S
N281 C283 1.279 . S
C282 C283 1.358 . S
C282 C284 1.356 . S
C282 H336 0.930 . S
C283 N281 1.279 . S
C283 C282 1.358 . S
C283 H287 0.930 . S
C284 C282 1.356 . S
C284 C285 1.348 . S
C285 C280 1.353 . S
C285 C284 1.348 . S
C285 H337 0.929 . S
H286 C280 0.930 . S
H287 C283 0.930 . S
C288 N289 1.314 . S
C288 C290 1.353 . S
C288 H294 0.930 . S
N289 Li265 1.991 . S
N289 C288 1.314 . S
N289 C292 1.279 1_565 S
C290 C288 1.353 . S
C290 C293 1.346 1_565 S
C290 H338 0.929 . S
C291 C292 1.358 . S
C291 C293 1.357 . S
C291 H339 0.930 . S
C292 N289 1.279 1_545 S
C292 C291 1.358 . S
C292 H295 0.930 . S
C293 C290 1.346 1_545 S
C293 C291 1.357 . S
H294 C288 0.930 . S
H295 C292 0.930 . S
C296 C298 1.345 1_545 S
C296 C299 1.359 . S
C296 O326 1.325 1_545 S
N297 C300 1.314 1_545 S
N297 C301 1.279 . S
C298 C296 1.345 1_565 S
C298 C300 1.353 . S
C298 H340 0.929 . S
C299 C296 1.359 . S
C299 C301 1.358 . S
C299 H341 0.930 . S
C300 N297 1.314 1_565 S
C300 C298 1.353 . S
C300 H342 0.930 . S
C301 N297 1.279 . S
C301 C299 1.358 . S
C301 H343 0.930 . S
C302 C303 1.348 . S
C302 C304 1.356 . S
C302 O327 1.325 . S
C303 C302 1.348 . S
C303 C305 1.353 . S
C303 H344 0.929 . S
C304 C302 1.356 . S
C304 C306 1.358 . S
C304 H345 0.930 . S
C305 C303 1.353 . S
C305 N307 1.314 . S
C305 H346 0.930 . S
C306 C304 1.358 . S
C306 N307 1.279 . S
C306 H347 0.930 . S
N307 C305 1.314 . S
N307 C306 1.279 . S
C308 C310 1.353 . S
C308 N311 1.314 . S
C308 H314 0.930 . S
C309 N311 1.279 1_565 S
C309 C312 1.358 . S
C309 H315 0.930 . S
C310 C308 1.353 . S
C310 C313 1.346 . S
C310 H348 0.929 . S
N311 Li266 1.991 . S
N311 C308 1.314 . S
N311 C309 1.279 1_545 S
C312 C309 1.358 . S
C312 C313 1.357 1_565 S
C312 H349 0.930 . S
C313 C310 1.346 . S
C313 C312 1.357 1_545 S
H314 C308 0.930 . S
H315 C309 0.930 . S
C316 N317 1.314 . S
C316 C318 1.353 . S
C316 H322 0.930 . S
N317 Li267 1.990 . S
N317 C316 1.314 . S
N317 C320 1.279 . S
C318 C316 1.353 . S
C318 C321 1.348 . S
C318 H350 0.929 . S
C319 C320 1.358 . S
C319 C321 1.356 . S
C319 H351 0.930 . S
C320 N317 1.279 . S
C320 C319 1.358 . S
C320 H323 0.930 . S
C321 C318 1.348 . S
C321 C319 1.356 . S
H322 C316 0.930 . S
H323 C320 0.930 . S
O324 Li264 1.956 . S
O324 Li265 1.963 1_545 S
O324 Li266 1.976 . S
O324 C268 1.325 . S
O325 Li264 1.981 . S
O325 Li265 1.956 1_545 S
O325 Li267 1.950 1_545 S
O325 C274 1.325 . S
O326 Li264 1.958 1_565 S
O326 Li266 1.956 1_565 S
O326 Li267 1.973 . S
O326 C296 1.325 1_565 S
O327 Li265 1.968 . S
O327 Li266 1.955 1_565 S
O327 Li267 1.956 . S
O327 C302 1.325 . S
H328 C270 0.929 . S
H329 C271 0.930 . S
H330 C272 0.930 . S
H331 C273 0.930 . S
H332 C275 0.930 . S
H333 C277 0.929 . S
H334 C278 0.930 . S
H335 C279 0.930 . S
H336 C282 0.930 . S
H337 C285 0.929 . S
H338 C290 0.929 . S
H339 C291 0.930 . S
H340 C298 0.929 . S
H341 C299 0.930 . S
H342 C300 0.930 . S
H343 C301 0.930 . S
H344 C303 0.929 . S
H345 C304 0.930 . S
H346 C305 0.930 . S
H347 C306 0.930 . S
H348 C310 0.929 . S
H349 C312 0.930 . S
H350 C318 0.929 . S
H351 C319 0.930 . S
Li352 N369 1.990 . S
Li352 O412 1.956 . S
Li352 O413 1.981 . S
Li352 O414 1.958 1_545 S
Li353 N377 1.991 . S
Li353 O412 1.963 1_565 S
Li353 O413 1.956 1_565 S
Li353 O415 1.968 . S
Li354 N399 1.991 . S
Li354 O412 1.976 . S
Li354 O414 1.956 1_545 S
Li354 O415 1.955 1_545 S
Li355 N405 1.990 . S
Li355 O413 1.950 1_565 S
Li355 O414 1.973 . S
Li355 O415 1.956 . S
C356 C358 1.348 . S
C356 C359 1.356 . S
C356 O412 1.325 . S
N357 C360 1.314 . S
N357 C361 1.279 . S
C358 C356 1.348 . S
C358 C360 1.353 . S
C358 H416 0.929 . S
C359 C356 1.356 . S
C359 C361 1.358 . S
C359 H417 0.930 . S
C360 N357 1.314 . S
C360 C358 1.353 . S
C360 H418 0.930 . S
C361 N357 1.279 . S
C361 C359 1.358 . S
C361 H419 0.930 . S
C362 C365 1.345 . S
C362 C366 1.359 1_545 S
C362 O413 1.325 . S
C363 N364 1.317 . S
C363 C366 1.358 . S
C363 H420 0.930 . S
N364 C363 1.317 . S
N364 C367 1.276 1_565 S
C365 C362 1.345 . S
C365 C367 1.353 . S
C365 H421 0.929 . S
C366 C362 1.359 1_565 S
C366 C363 1.358 . S
C366 H422 0.930 . S
C367 N364 1.276 1_545 S
C367 C365 1.353 . S
C367 H423 0.930 . S
C368 N369 1.314 . S
C368 C373 1.353 . S
C368 H374 0.930 . S
N369 Li352 1.990 . S
N369 C368 1.314 . S
N369 C371 1.279 . S
C370 C371 1.358 . S
C370 C372 1.356 . S
C370 H424 0.930 . S
C371 N369 1.279 . S
C371 C370 1.358 . S
C371 H375 0.930 . S
C372 C370 1.356 . S
C372 C373 1.348 . S
C373 C368 1.353 . S
C373 C372 1.348 . S
C373 H425 0.929 . S
H374 C368 0.930 . S
H375 C371 0.930 . S
C376 N377 1.314 . S
C376 C378 1.353 . S
C376 H382 0.930 . S
N377 Li353 1.991 . S
N377 C376 1.314 . S
N377 C380 1.279 1_565 S
C378 C376 1.353 . S
C378 C381 1.346 1_565 S
C378 H426 0.929 . S
C379 C380 1.358 . S
C379 C381 1.357 . S
C379 H427 0.930 . S
C380 N377 1.279 1_545 S
C380 C379 1.358 . S
C380 H383 0.930 . S
C381 C378 1.346 1_545 S
C381 C379 1.357 . S
H382 C376 0.930 . S
H383 C380 0.930 . S
C384 C386 1.345 1_545 S
C384 C387 1.359 . S
C384 O414 1.325 1_545 S
N385 C388 1.314 1_545 S
N385 C389 1.279 . S
C386 C384 1.345 1_565 S
C386 C388 1.353 . S
C386 H428 0.929 . S
C387 C384 1.359 . S
C387 C389 1.358 . S
C387 H429 0.930 . S
C388 N385 1.314 1_565 S
C388 C386 1.353 . S
C388 H430 0.930 . S
C389 N385 1.279 . S
C389 C387 1.358 . S
C389 H431 0.930 . S
C390 C391 1.348 . S
C390 C392 1.356 . S
C390 O415 1.325 . S
C391 C390 1.348 . S
C391 C393 1.353 . S
C391 H432 0.929 . S
C392 C390 1.356 . S
C392 C394 1.358 . S
C392 H433 0.930 . S
C393 C391 1.353 . S
C393 N395 1.314 . S
C393 H434 0.930 . S
C394 C392 1.358 . S
C394 N395 1.279 . S
C394 H435 0.930 . S
N395 C393 1.314 . S
N395 C394 1.279 . S
C396 C398 1.353 . S
C396 N399 1.314 . S
C396 H402 0.930 . S
C397 N399 1.279 1_565 S
C397 C400 1.358 . S
C397 H403 0.930 . S
C398 C396 1.353 . S
C398 C401 1.346 . S
C398 H436 0.929 . S
N399 Li354 1.991 . S
N399 C396 1.314 . S
N399 C397 1.279 1_545 S
C400 C397 1.358 . S
C400 C401 1.357 1_565 S
C400 H437 0.930 . S
C401 C398 1.346 . S
C401 C400 1.357 1_545 S
H402 C396 0.930 . S
H403 C397 0.930 . S
C404 N405 1.314 . S
C404 C406 1.353 . S
C404 H410 0.930 . S
N405 Li355 1.990 . S
N405 C404 1.314 . S
N405 C408 1.279 . S
C406 C404 1.353 . S
C406 C409 1.348 . S
C406 H438 0.929 . S
C407 C408 1.358 . S
C407 C409 1.356 . S
C407 H439 0.930 . S
C408 N405 1.279 . S
C408 C407 1.358 . S
C408 H411 0.930 . S
C409 C406 1.348 . S
C409 C407 1.356 . S
H410 C404 0.930 . S
H411 C408 0.930 . S
O412 Li352 1.956 . S
O412 Li353 1.963 1_545 S
O412 Li354 1.976 . S
O412 C356 1.325 . S
O413 Li352 1.981 . S
O413 Li353 1.956 1_545 S
O413 Li355 1.950 1_545 S
O413 C362 1.325 . S
O414 Li352 1.958 1_565 S
O414 Li354 1.956 1_565 S
O414 Li355 1.973 . S
O414 C384 1.325 1_565 S
O415 Li353 1.968 . S
O415 Li354 1.955 1_565 S
O415 Li355 1.956 . S
O415 C390 1.325 . S
H416 C358 0.929 . S
H417 C359 0.930 . S
H418 C360 0.930 . S
H419 C361 0.930 . S
H420 C363 0.930 . S
H421 C365 0.929 . S
H422 C366 0.930 . S
H423 C367 0.930 . S
H424 C370 0.930 . S
H425 C373 0.929 . S
H426 C378 0.929 . S
H427 C379 0.930 . S
H428 C386 0.929 . S
H429 C387 0.930 . S
H430 C388 0.930 . S
H431 C389 0.930 . S
H432 C391 0.929 . S
H433 C392 0.930 . S
H434 C393 0.930 . S
H435 C394 0.930 . S
H436 C398 0.929 . S
H437 C400 0.930 . S
H438 C406 0.929 . S
H439 C407 0.930 . S
Li440 N457 1.990 . S
Li440 O500 1.956 . S
Li440 O501 1.973 . S
Li440 O502 1.950 1_655 S
Li441 N465 1.991 . S
Li441 O500 1.955 1_455 S
Li441 O501 1.956 1_455 S
Li441 O503 1.976 . S
Li442 N487 1.991 . S
Li442 O500 1.968 . S
Li442 O502 1.956 1_655 S
Li442 O503 1.963 1_655 S
Li443 N493 1.990 . S
Li443 O501 1.958 1_455 S
Li443 O502 1.981 . S
Li443 O503 1.956 . S
C444 C446 1.348 . S
C444 C447 1.356 . S
C444 O500 1.325 . S
N445 C448 1.314 . S
N445 C449 1.279 . S
C446 C444 1.348 . S
C446 C448 1.353 . S
C446 H504 0.929 . S
C447 C444 1.356 . S
C447 C449 1.358 . S
C447 H505 0.930 . S
C448 N445 1.314 . S
C448 C446 1.353 . S
C448 H506 0.930 . S
C449 N445 1.279 . S
C449 C447 1.358 . S
C449 H507 0.930 . S
C450 C453 1.345 1_455 S
C450 C454 1.359 . S
C450 O501 1.325 1_455 S
C451 N452 1.279 . S
C451 C454 1.358 . S
C451 H508 0.930 . S
N452 C451 1.279 . S
N452 C455 1.314 1_455 S
C453 C450 1.345 1_655 S
C453 C455 1.353 . S
C453 H509 0.929 . S
C454 C450 1.359 . S
C454 C451 1.358 . S
C454 H510 0.930 . S
C455 N452 1.314 1_655 S
C455 C453 1.353 . S
C455 H511 0.930 . S
C456 N457 1.314 . S
C456 C461 1.353 . S
C456 H462 0.930 . S
N457 Li440 1.990 . S
N457 C456 1.314 . S
N457 C459 1.279 . S
C458 C459 1.358 . S
C458 C460 1.356 . S
C458 H512 0.930 . S
C459 N457 1.279 . S
C459 C458 1.358 . S
C459 H463 0.930 . S
C460 C458 1.356 . S
C460 C461 1.348 . S
C461 C456 1.353 . S
C461 C460 1.348 . S
C461 H513 0.929 . S
H462 C456 0.930 . S
H463 C459 0.930 . S
C464 N465 1.314 . S
C464 C466 1.353 . S
C464 H470 0.930 . S
N465 Li441 1.991 . S
N465 C464 1.314 . S
N465 C468 1.279 1_455 S
C466 C464 1.353 . S
C466 C469 1.346 . S
C466 H514 0.929 . S
C467 C468 1.358 . S
C467 C469 1.357 1_655 S
C467 H515 0.930 . S
C468 N465 1.279 1_655 S
C468 C467 1.358 . S
C468 H471 0.930 . S
C469 C466 1.346 . S
C469 C467 1.357 1_455 S
H470 C464 0.930 . S
H471 C468 0.930 . S
C472 C474 1.345 . S
C472 C475 1.359 1_455 S
C472 O502 1.325 . S
N473 C476 1.276 1_655 S
N473 C477 1.317 . S
C474 C472 1.345 . S
C474 C476 1.353 . S
C474 H516 0.929 . S
C475 C472 1.359 1_655 S
C475 C477 1.358 . S
C475 H517 0.930 . S
C476 N473 1.276 1_455 S
C476 C474 1.353 . S
C476 H518 0.930 . S
C477 N473 1.317 . S
C477 C475 1.358 . S
C477 H519 0.930 . S
C478 C479 1.348 . S
C478 C480 1.356 . S
C478 O503 1.325 . S
C479 C478 1.348 . S
C479 C481 1.353 . S
C479 H520 0.929 . S
C480 C478 1.356 . S
C480 C482 1.358 . S
C480 H521 0.930 . S
C481 C479 1.353 . S
C481 N483 1.314 . S
C481 H522 0.930 . S
C482 C480 1.358 . S
C482 N483 1.279 . S
C482 H523 0.930 . S
N483 C481 1.314 . S
N483 C482 1.279 . S
C484 C486 1.353 . S
C484 N487 1.314 . S
C484 H490 0.930 . S
C485 N487 1.279 1_455 S
C485 C488 1.358 . S
C485 H491 0.930 . S
C486 C484 1.353 . S
C486 C489 1.346 1_655 S
C486 H524 0.929 . S
N487 Li442 1.991 . S
N487 C484 1.314 . S
N487 C485 1.279 1_655 S
C488 C485 1.358 . S
C488 C489 1.357 . S
C488 H525 0.930 . S
C489 C486 1.346 1_455 S
C489 C488 1.357 . S
H490 C484 0.930 . S
H491 C485 0.930 . S
C492 N493 1.314 . S
C492 C494 1.353 . S
C492 H498 0.930 . S
N493 Li443 1.990 . S
N493 C492 1.314 . S
N493 C496 1.279 . S
C494 C492 1.353 . S
C494 C497 1.348 . S
C494 H526 0.929 . S
C495 C496 1.358 . S
C495 C497 1.356 . S
C495 H527 0.930 . S
C496 N493 1.279 . S
C496 C495 1.358 . S
C496 H499 0.930 . S
C497 C494 1.348 . S
C497 C495 1.356 . S
H498 C492 0.930 . S
H499 C496 0.930 . S
O500 Li440 1.956 . S
O500 Li441 1.955 1_655 S
O500 Li442 1.968 . S
O500 C444 1.325 . S
O501 Li440 1.973 . S
O501 Li441 1.956 1_655 S
O501 Li443 1.958 1_655 S
O501 C450 1.325 1_655 S
O502 Li440 1.950 1_455 S
O502 Li442 1.956 1_455 S
O502 Li443 1.981 . S
O502 C472 1.325 . S
O503 Li441 1.976 . S
O503 Li442 1.963 1_455 S
O503 Li443 1.956 . S
O503 C478 1.325 . S
H504 C446 0.929 . S
H505 C447 0.930 . S
H506 C448 0.930 . S
H507 C449 0.930 . S
H508 C451 0.930 . S
H509 C453 0.929 . S
H510 C454 0.930 . S
H511 C455 0.930 . S
H512 C458 0.930 . S
H513 C461 0.929 . S
H514 C466 0.929 . S
H515 C467 0.930 . S
H516 C474 0.929 . S
H517 C475 0.930 . S
H518 C476 0.930 . S
H519 C477 0.930 . S
H520 C479 0.929 . S
H521 C480 0.930 . S
H522 C481 0.930 . S
H523 C482 0.930 . S
H524 C486 0.929 . S
H525 C488 0.930 . S
H526 C494 0.929 . S
H527 C495 0.930 . S
Li528 N545 1.991 . S
Li528 O588 1.956 1_545 S
Li528 O589 1.955 1_545 S
Li528 O590 1.976 . S
Li529 N553 1.990 . S
Li529 O588 1.973 . S
Li529 O589 1.956 . S
Li529 O591 1.950 1_565 S
Li530 N575 1.990 . S
Li530 O588 1.958 1_545 S
Li530 O590 1.956 . S
Li530 O591 1.981 . S
Li531 N581 1.991 . S
Li531 O589 1.968 . S
Li531 O590 1.963 1_565 S
Li531 O591 1.956 1_565 S
C532 C534 1.345 1_545 S
C532 C535 1.359 . S
C532 O588 1.325 1_545 S
N533 C536 1.314 1_545 S
N533 C537 1.279 . S
C534 C532 1.345 1_565 S
C534 C536 1.353 . S
C534 H592 0.929 . S
C535 C532 1.359 . S
C535 C537 1.358 . S
C535 H593 0.930 . S
C536 N533 1.314 1_565 S
C536 C534 1.353 . S
C536 H594 0.930 . S
C537 N533 1.279 . S
C537 C535 1.358 . S
C537 H595 0.930 . S
C538 C541 1.348 . S
C538 C542 1.356 . S
C538 O589 1.325 . S
C539 N540 1.279 . S
C539 C542 1.358 . S
C539 H596 0.930 . S
N540 C539 1.279 . S
N540 C543 1.314 . S
C541 C538 1.348 . S
C541 C543 1.353 . S
C541 H597 0.929 . S
C542 C538 1.356 . S
C542 C539 1.358 . S
C542 H598 0.930 . S
C543 N540 1.314 . S
C543 C541 1.353 . S
C543 H599 0.930 . S
C544 N545 1.314 . S
C544 C549 1.353 . S
C544 H550 0.930 . S
N545 Li528 1.991 . S
N545 C544 1.314 . S
N545 C547 1.279 1_545 S
C546 C547 1.358 . S
C546 C548 1.357 1_565 S
C546 H600 0.930 . S
C547 N545 1.279 1_565 S
C547 C546 1.358 . S
C547 H551 0.930 . S
C548 C546 1.357 1_545 S
C548 C549 1.346 . S
C549 C544 1.353 . S
C549 C548 1.346 . S
C549 H601 0.929 . S
H550 C544 0.930 . S
H551 C547 0.930 . S
C552 N553 1.314 . S
C552 C554 1.353 . S
C552 H558 0.930 . S
N553 Li529 1.990 . S
N553 C552 1.314 . S
N553 C556 1.279 . S
C554 C552 1.353 . S
C554 C557 1.348 . S
C554 H602 0.929 . S
C555 C556 1.358 . S
C555 C557 1.356 . S
C555 H603 0.930 . S
C556 N553 1.279 . S
C556 C555 1.358 . S
C556 H559 0.930 . S
C557 C554 1.348 . S
C557 C555 1.356 . S
H558 C552 0.930 . S
H559 C556 0.930 . S
C560 C562 1.348 . S
C560 C563 1.356 . S
C560 O590 1.325 . S
N561 C564 1.314 . S
N561 C565 1.279 . S
C562 C560 1.348 . S
C562 C564 1.353 . S
C562 H604 0.929 . S
C563 C560 1.356 . S
C563 C565 1.358 . S
C563 H605 0.930 . S
C564 N561 1.314 . S
C564 C562 1.353 . S
C564 H606 0.930 . S
C565 N561 1.279 . S
C565 C563 1.358 . S
C565 H607 0.930 . S
C566 C567 1.345 . S
C566 C568 1.359 1_545 S
C566 O591 1.325 . S
C567 C566 1.345 . S
C567 C569 1.353 . S
C567 H608 0.929 . S
C568 C566 1.359 1_565 S
C568 C570 1.358 . S
C568 H609 0.930 . S
C569 C567 1.353 . S
C569 N571 1.276 1_545 S
C569 H610 0.930 . S
C570 C568 1.358 . S
C570 N571 1.317 . S
C570 H611 0.930 . S
N571 C569 1.276 1_565 S
N571 C570 1.317 . S
C572 C574 1.353 . S
C572 N575 1.314 . S
C572 H578 0.930 . S
C573 N575 1.279 . S
C573 C576 1.358 . S
C573 H579 0.930 . S
C574 C572 1.353 . S
C574 C577 1.348 . S
C574 H612 0.929 . S
N575 Li530 1.990 . S
N575 C572 1.314 . S
N575 C573 1.279 . S
C576 C573 1.358 . S
C576 C577 1.356 . S
C576 H613 0.930 . S
C577 C574 1.348 . S
C577 C576 1.356 . S
H578 C572 0.930 . S
H579 C573 0.930 . S
C580 N581 1.314 . S
C580 C582 1.353 . S
C580 H586 0.930 . S
N581 Li531 1.991 . S
N581 C580 1.314 . S
N581 C584 1.279 1_565 S
C582 C580 1.353 . S
C582 C585 1.346 1_565 S
C582 H614 0.929 . S
C583 C584 1.358 . S
C583 C585 1.357 . S
C583 H615 0.930 . S
C584 N581 1.279 1_545 S
C584 C583 1.358 . S
C584 H587 0.930 . S
C585 C582 1.346 1_545 S
C585 C583 1.357 . S
H586 C580 0.930 . S
H587 C584 0.930 . S
O588 Li528 1.956 1_565 S
O588 Li529 1.973 . S
O588 Li530 1.958 1_565 S
O588 C532 1.325 1_565 S
O589 Li528 1.955 1_565 S
O589 Li529 1.956 . S
O589 Li531 1.968 . S
O589 C538 1.325 . S
O590 Li528 1.976 . S
O590 Li530 1.956 . S
O590 Li531 1.963 1_545 S
O590 C560 1.325 . S
O591 Li529 1.950 1_545 S
O591 Li530 1.981 . S
O591 Li531 1.956 1_545 S
O591 C566 1.325 . S
H592 C534 0.929 . S
H593 C535 0.930 . S
H594 C536 0.930 . S
H595 C537 0.930 . S
H596 C539 0.930 . S
H597 C541 0.929 . S
H598 C542 0.930 . S
H599 C543 0.930 . S
H600 C546 0.930 . S
H601 C549 0.929 . S
H602 C554 0.929 . S
H603 C555 0.930 . S
H604 C562 0.929 . S
H605 C563 0.930 . S
H606 C564 0.930 . S
H607 C565 0.930 . S
H608 C567 0.929 . S
H609 C568 0.930 . S
H610 C569 0.930 . S
H611 C570 0.930 . S
H612 C574 0.929 . S
H613 C576 0.930 . S
H614 C582 0.929 . S
H615 C583 0.930 . S
Li616 N633 1.991 . S
Li616 O676 1.956 1_455 S
Li616 O677 1.955 1_455 S
Li616 O678 1.976 . S
Li617 N641 1.990 . S
Li617 O676 1.973 . S
Li617 O677 1.956 . S
Li617 O679 1.950 1_655 S
Li618 N663 1.990 . S
Li618 O676 1.958 1_455 S
Li618 O678 1.956 . S
Li618 O679 1.981 . S
Li619 N669 1.991 . S
Li619 O677 1.968 . S
Li619 O678 1.963 1_655 S
Li619 O679 1.956 1_655 S
C620 C622 1.345 1_455 S
C620 C623 1.359 . S
C620 O676 1.325 1_455 S
N621 C624 1.314 1_455 S
N621 C625 1.279 . S
C622 C620 1.345 1_655 S
C622 C624 1.353 . S
C622 H680 0.929 . S
C623 C620 1.359 . S
C623 C625 1.358 . S
C623 H681 0.930 . S
C624 N621 1.314 1_655 S
C624 C622 1.353 . S
C624 H682 0.930 . S
C625 N621 1.279 . S
C625 C623 1.358 . S
C625 H683 0.930 . S
C626 C629 1.348 . S
C626 C630 1.356 . S
C626 O677 1.325 . S
C627 N628 1.279 . S
C627 C630 1.358 . S
C627 H684 0.930 . S
N628 C627 1.279 . S
N628 C631 1.314 . S
C629 C626 1.348 . S
C629 C631 1.353 . S
C629 H685 0.929 . S
C630 C626 1.356 . S
C630 C627 1.358 . S
C630 H686 0.930 . S
C631 N628 1.314 . S
C631 C629 1.353 . S
C631 H687 0.930 . S
C632 N633 1.314 . S
C632 C637 1.353 . S
C632 H638 0.930 . S
N633 Li616 1.991 . S
N633 C632 1.314 . S
N633 C635 1.279 1_455 S
C634 C635 1.358 . S
C634 C636 1.357 1_655 S
C634 H688 0.930 . S
C635 N633 1.279 1_655 S
C635 C634 1.358 . S
C635 H639 0.930 . S
C636 C634 1.357 1_455 S
C636 C637 1.346 . S
C637 C632 1.353 . S
C637 C636 1.346 . S
C637 H689 0.929 . S
H638 C632 0.930 . S
H639 C635 0.930 . S
C640 N641 1.314 . S
C640 C642 1.353 . S
C640 H646 0.930 . S
N641 Li617 1.990 . S
N641 C640 1.314 . S
N641 C644 1.279 . S
C642 C640 1.353 . S
C642 C645 1.348 . S
C642 H690 0.929 . S
C643 C644 1.358 . S
C643 C645 1.356 . S
C643 H691 0.930 . S
C644 N641 1.279 . S
C644 C643 1.358 . S
C644 H647 0.930 . S
C645 C642 1.348 . S
C645 C643 1.356 . S
H646 C640 0.930 . S
H647 C644 0.930 . S
C648 C650 1.348 . S
C648 C651 1.356 . S
C648 O678 1.325 . S
N649 C652 1.314 . S
N649 C653 1.279 . S
C650 C648 1.348 . S
C650 C652 1.353 . S
C650 H692 0.929 . S
C651 C648 1.356 . S
C651 C653 1.358 . S
C651 H693 0.930 . S
C652 N649 1.314 . S
C652 C650 1.353 . S
C652 H694 0.930 . S
C653 N649 1.279 . S
C653 C651 1.358 . S
C653 H695 0.930 . S
C654 C655 1.345 . S
C654 C656 1.359 1_455 S
C654 O679 1.325 . S
C655 C654 1.345 . S
C655 C657 1.353 . S
C655 H696 0.929 . S
C656 C654 1.359 1_655 S
C656 C658 1.358 . S
C656 H697 0.930 . S
C657 C655 1.353 . S
C657 N659 1.276 1_455 S
C657 H698 0.930 . S
C658 C656 1.358 . S
C658 N659 1.317 . S
C658 H699 0.930 . S
N659 C657 1.276 1_655 S
N659 C658 1.317 . S
C660 C662 1.353 . S
C660 N663 1.314 . S
C660 H666 0.930 . S
C661 N663 1.279 . S
C661 C664 1.358 . S
C661 H667 0.930 . S
C662 C660 1.353 . S
C662 C665 1.348 . S
C662 H700 0.929 . S
N663 Li618 1.990 . S
N663 C660 1.314 . S
N663 C661 1.279 . S
C664 C661 1.358 . S
C664 C665 1.356 . S
C664 H701 0.930 . S
C665 C662 1.348 . S
C665 C664 1.356 . S
H666 C660 0.930 . S
H667 C661 0.930 . S
C668 N669 1.314 . S
C668 C670 1.353 . S
C668 H674 0.930 . S
N669 Li619 1.991 . S
N669 C668 1.314 . S
N669 C672 1.279 1_655 S
C670 C668 1.353 . S
C670 C673 1.346 1_655 S
C670 H702 0.929 . S
C671 C672 1.358 . S
C671 C673 1.357 . S
C671 H703 0.930 . S
C672 N669 1.279 1_455 S
C672 C671 1.358 . S
C672 H675 0.930 . S
C673 C670 1.346 1_455 S
C673 C671 1.357 . S
H674 C668 0.930 . S
H675 C672 0.930 . S
O676 Li616 1.956 1_655 S
O676 Li617 1.973 . S
O676 Li618 1.958 1_655 S
O676 C620 1.325 1_655 S
O677 Li616 1.955 1_655 S
O677 Li617 1.956 . S
O677 Li619 1.968 . S
O677 C626 1.325 . S
O678 Li616 1.976 . S
O678 Li618 1.956 . S
O678 Li619 1.963 1_455 S
O678 C648 1.325 . S
O679 Li617 1.950 1_455 S
O679 Li618 1.981 . S
O679 Li619 1.956 1_455 S
O679 C654 1.325 . S
H680 C622 0.929 . S
H681 C623 0.930 . S
H682 C624 0.930 . S
H683 C625 0.930 . S
H684 C627 0.930 . S
H685 C629 0.929 . S
H686 C630 0.930 . S
H687 C631 0.930 . S
H688 C634 0.930 . S
H689 C637 0.929 . S
H690 C642 0.929 . S
H691 C643 0.930 . S
H692 C650 0.929 . S
H693 C651 0.930 . S
H694 C652 0.930 . S
H695 C653 0.930 . S
H696 C655 0.929 . S
H697 C656 0.930 . S
H698 C657 0.930 . S
H699 C658 0.930 . S
H700 C662 0.929 . S
H701 C664 0.930 . S
H702 C670 0.929 . S
H703 C671 0.930 . S
Li704 N721 1.990 . S
Li704 O764 1.956 . S
Li704 O765 1.981 . S
Li704 O766 1.958 1_554 S
Li705 N729 1.991 . S
Li705 O764 1.963 1_556 S
Li705 O765 1.956 1_556 S
Li705 O767 1.968 . S
Li706 N751 1.991 . S
Li706 O764 1.976 . S
Li706 O766 1.956 1_554 S
Li706 O767 1.955 1_554 S
Li707 N757 1.990 . S
Li707 O765 1.950 1_556 S
Li707 O766 1.973 . S
Li707 O767 1.956 . S
C708 C710 1.348 . S
C708 C711 1.356 . S
C708 O764 1.325 . S
N709 C712 1.314 . S
N709 C713 1.279 . S
C710 C708 1.348 . S
C710 C712 1.353 . S
C710 H768 0.929 . S
C711 C708 1.356 . S
C711 C713 1.358 . S
C711 H769 0.930 . S
C712 N709 1.314 . S
C712 C710 1.353 . S
C712 H770 0.930 . S
C713 N709 1.279 . S
C713 C711 1.358 . S
C713 H771 0.930 . S
C714 C717 1.345 . S
C714 C718 1.359 1_554 S
C714 O765 1.325 . S
C715 N716 1.317 . S
C715 C718 1.358 . S
C715 H772 0.930 . S
N716 C715 1.317 . S
N716 C719 1.276 1_556 S
C717 C714 1.345 . S
C717 C719 1.353 . S
C717 H773 0.929 . S
C718 C714 1.359 1_556 S
C718 C715 1.358 . S
C718 H774 0.930 . S
C719 N716 1.276 1_554 S
C719 C717 1.353 . S
C719 H775 0.930 . S
C720 N721 1.314 . S
C720 C725 1.353 . S
C720 H726 0.930 . S
N721 Li704 1.990 . S
N721 C720 1.314 . S
N721 C723 1.279 . S
C722 C723 1.358 . S
C722 C724 1.356 . S
C722 H776 0.930 . S
C723 N721 1.279 . S
C723 C722 1.358 . S
C723 H727 0.930 . S
C724 C722 1.356 . S
C724 C725 1.348 . S
C725 C720 1.353 . S
C725 C724 1.348 . S
C725 H777 0.929 . S
H726 C720 0.930 . S
H727 C723 0.930 . S
C728 N729 1.314 . S
C728 C730 1.353 . S
C728 H734 0.930 . S
N729 Li705 1.991 . S
N729 C728 1.314 . S
N729 C732 1.279 1_556 S
C730 C728 1.353 . S
C730 C733 1.346 1_556 S
C730 H778 0.929 . S
C731 C732 1.358 . S
C731 C733 1.357 . S
C731 H779 0.930 . S
C732 N729 1.279 1_554 S
C732 C731 1.358 . S
C732 H735 0.930 . S
C733 C730 1.346 1_554 S
C733 C731 1.357 . S
H734 C728 0.930 . S
H735 C732 0.930 . S
C736 C738 1.345 1_554 S
C736 C739 1.359 . S
C736 O766 1.325 1_554 S
N737 C740 1.314 1_554 S
N737 C741 1.279 . S
C738 C736 1.345 1_556 S
C738 C740 1.353 . S
C738 H780 0.929 . S
C739 C736 1.359 . S
C739 C741 1.358 . S
C739 H781 0.930 . S
C740 N737 1.314 1_556 S
C740 C738 1.353 . S
C740 H782 0.930 . S
C741 N737 1.279 . S
C741 C739 1.358 . S
C741 H783 0.930 . S
C742 C743 1.348 . S
C742 C744 1.356 . S
C742 O767 1.325 . S
C743 C742 1.348 . S
C743 C745 1.353 . S
C743 H784 0.929 . S
C744 C742 1.356 . S
C744 C746 1.358 . S
C744 H785 0.930 . S
C745 C743 1.353 . S
C745 N747 1.314 . S
C745 H786 0.930 . S
C746 C744 1.358 . S
C746 N747 1.279 . S
C746 H787 0.930 . S
N747 C745 1.314 . S
N747 C746 1.279 . S
C748 C750 1.353 . S
C748 N751 1.314 . S
C748 H754 0.930 . S
C749 N751 1.279 1_556 S
C749 C752 1.358 . S
C749 H755 0.930 . S
C750 C748 1.353 . S
C750 C753 1.346 . S
C750 H788 0.929 . S
N751 Li706 1.991 . S
N751 C748 1.314 . S
N751 C749 1.279 1_554 S
C752 C749 1.358 . S
C752 C753 1.357 1_556 S
C752 H789 0.930 . S
C753 C750 1.346 . S
C753 C752 1.357 1_554 S
H754 C748 0.930 . S
H755 C749 0.930 . S
C756 N757 1.314 . S
C756 C758 1.353 . S
C756 H762 0.930 . S
N757 Li707 1.990 . S
N757 C756 1.314 . S
N757 C760 1.279 . S
C758 C756 1.353 . S
C758 C761 1.348 . S
C758 H790 0.929 . S
C759 C760 1.358 . S
C759 C761 1.356 . S
C759 H791 0.930 . S
C760 N757 1.279 . S
C760 C759 1.358 . S
C760 H763 0.930 . S
C761 C758 1.348 . S
C761 C759 1.356 . S
H762 C756 0.930 . S
H763 C760 0.930 . S
O764 Li704 1.956 . S
O764 Li705 1.963 1_554 S
O764 Li706 1.976 . S
O764 C708 1.325 . S
O765 Li704 1.981 . S
O765 Li705 1.956 1_554 S
O765 Li707 1.950 1_554 S
O765 C714 1.325 . S
O766 Li704 1.958 1_556 S
O766 Li706 1.956 1_556 S
O766 Li707 1.973 . S
O766 C736 1.325 1_556 S
O767 Li705 1.968 . S
O767 Li706 1.955 1_556 S
O767 Li707 1.956 . S
O767 C742 1.325 . S
H768 C710 0.929 . S
H769 C711 0.930 . S
H770 C712 0.930 . S
H771 C713 0.930 . S
H772 C715 0.930 . S
H773 C717 0.929 . S
H774 C718 0.930 . S
H775 C719 0.930 . S
H776 C722 0.930 . S
H777 C725 0.929 . S
H778 C730 0.929 . S
H779 C731 0.930 . S
H780 C738 0.929 . S
H781 C739 0.930 . S
H782 C740 0.930 . S
H783 C741 0.930 . S
H784 C743 0.929 . S
H785 C744 0.930 . S
H786 C745 0.930 . S
H787 C746 0.930 . S
H788 C750 0.929 . S
H789 C752 0.930 . S
H790 C758 0.929 . S
H791 C759 0.930 . S
Li792 N809 1.991 . S
Li792 O852 1.956 1_556 S
Li792 O853 1.963 1_556 S
Li792 O854 1.968 . S
Li793 N817 1.990 . S
Li793 O852 1.981 . S
Li793 O853 1.956 . S
Li793 O855 1.958 1_554 S
Li794 N839 1.990 . S
Li794 O852 1.950 1_556 S
Li794 O854 1.956 . S
Li794 O855 1.973 . S
Li795 N845 1.991 . S
Li795 O853 1.976 . S
Li795 O854 1.955 1_554 S
Li795 O855 1.956 1_554 S
C796 C798 1.345 . S
C796 C799 1.359 1_554 S
C796 O852 1.325 . S
N797 C800 1.276 1_556 S
N797 C801 1.317 . S
C798 C796 1.345 . S
C798 C800 1.353 . S
C798 H856 0.929 . S
C799 C796 1.359 1_556 S
C799 C801 1.358 . S
C799 H857 0.930 . S
C800 N797 1.276 1_554 S
C800 C798 1.353 . S
C800 H858 0.930 . S
C801 N797 1.317 . S
C801 C799 1.358 . S
C801 H859 0.930 . S
C802 C805 1.348 . S
C802 C806 1.356 . S
C802 O853 1.325 . S
C803 N804 1.279 . S
C803 C806 1.358 . S
C803 H860 0.930 . S
N804 C803 1.279 . S
N804 C807 1.314 . S
C805 C802 1.348 . S
C805 C807 1.353 . S
C805 H861 0.929 . S
C806 C802 1.356 . S
C806 C803 1.358 . S
C806 H862 0.930 . S
C807 N804 1.314 . S
C807 C805 1.353 . S
C807 H863 0.930 . S
C808 N809 1.314 . S
C808 C813 1.353 . S
C808 H814 0.930 . S
N809 Li792 1.991 . S
N809 C808 1.314 . S
N809 C811 1.279 1_556 S
C810 C811 1.358 . S
C810 C812 1.357 . S
C810 H864 0.930 . S
C811 N809 1.279 1_554 S
C811 C810 1.358 . S
C811 H815 0.930 . S
C812 C810 1.357 . S
C812 C813 1.346 1_554 S
C813 C808 1.353 . S
C813 C812 1.346 1_556 S
C813 H865 0.929 . S
H814 C808 0.930 . S
H815 C811 0.930 . S
C816 N817 1.314 . S
C816 C818 1.353 . S
C816 H822 0.930 . S
N817 Li793 1.990 . S
N817 C816 1.314 . S
N817 C820 1.279 . S
C818 C816 1.353 . S
C818 C821 1.348 . S
C818 H866 0.929 . S
C819 C820 1.358 . S
C819 C821 1.356 . S
C819 H867 0.930 . S
C820 N817 1.279 . S
C820 C819 1.358 . S
C820 H823 0.930 . S
C821 C818 1.348 . S
C821 C819 1.356 . S
H822 C816 0.930 . S
H823 C820 0.930 . S
C824 C826 1.348 . S
C824 C827 1.356 . S
C824 O854 1.325 . S
N825 C828 1.314 . S
N825 C829 1.279 . S
C826 C824 1.348 . S
C826 C828 1.353 . S
C826 H868 0.929 . S
C827 C824 1.356 . S
C827 C829 1.358 . S
C827 H869 0.930 . S
C828 N825 1.314 . S
C828 C826 1.353 . S
C828 H870 0.930 . S
C829 N825 1.279 . S
C829 C827 1.358 . S
C829 H871 0.930 . S
C830 C831 1.345 1_554 S
C830 C832 1.359 . S
C830 O855 1.325 1_554 S
C831 C830 1.345 1_556 S
C831 C833 1.353 . S
C831 H872 0.929 . S
C832 C830 1.359 . S
C832 C834 1.358 . S
C832 H873 0.930 . S
C833 C831 1.353 . S
C833 N835 1.314 1_556 S
C833 H874 0.930 . S
C834 C832 1.358 . S
C834 N835 1.279 . S
C834 H875 0.930 . S
N835 C833 1.314 1_554 S
N835 C834 1.279 . S
C836 C838 1.353 . S
C836 N839 1.314 . S
C836 H842 0.930 . S
C837 N839 1.279 . S
C837 C840 1.358 . S
C837 H843 0.930 . S
C838 C836 1.353 . S
C838 C841 1.348 . S
C838 H876 0.929 . S
N839 Li794 1.990 . S
N839 C836 1.314 . S
N839 C837 1.279 . S
C840 C837 1.358 . S
C840 C841 1.356 . S
C840 H877 0.930 . S
C841 C838 1.348 . S
C841 C840 1.356 . S
H842 C836 0.930 . S
H843 C837 0.930 . S
C844 N845 1.314 . S
C844 C846 1.353 . S
C844 H850 0.930 . S
N845 Li795 1.991 . S
N845 C844 1.314 . S
N845 C848 1.279 1_554 S
C846 C844 1.353 . S
C846 C849 1.346 . S
C846 H878 0.929 . S
C847 C848 1.358 . S
C847 C849 1.357 1_556 S
C847 H879 0.930 . S
C848 N845 1.279 1_556 S
C848 C847 1.358 . S
C848 H851 0.930 . S
C849 C846 1.346 . S
C849 C847 1.357 1_554 S
H850 C844 0.930 . S
H851 C848 0.930 . S
O852 Li792 1.956 1_554 S
O852 Li793 1.981 . S
O852 Li794 1.950 1_554 S
O852 C796 1.325 . S
O853 Li792 1.963 1_554 S
O853 Li793 1.956 . S
O853 Li795 1.976 . S
O853 C802 1.325 . S
O854 Li792 1.968 . S
O854 Li794 1.956 . S
O854 Li795 1.955 1_556 S
O854 C824 1.325 . S
O855 Li793 1.958 1_556 S
O855 Li794 1.973 . S
O855 Li795 1.956 1_556 S
O855 C830 1.325 1_556 S
H856 C798 0.929 . S
H857 C799 0.930 . S
H858 C800 0.930 . S
H859 C801 0.930 . S
H860 C803 0.930 . S
H861 C805 0.929 . S
H862 C806 0.930 . S
H863 C807 0.930 . S
H864 C810 0.930 . S
H865 C813 0.929 . S
H866 C818 0.929 . S
H867 C819 0.930 . S
H868 C826 0.929 . S
H869 C827 0.930 . S
H870 C828 0.930 . S
H871 C829 0.930 . S
H872 C831 0.929 . S
H873 C832 0.930 . S
H874 C833 0.930 . S
H875 C834 0.930 . S
H876 C838 0.929 . S
H877 C840 0.930 . S
H878 C846 0.929 . S
H879 C847 0.930 . S
Li880 N897 1.991 . S
Li880 O940 1.956 1_556 S
Li880 O941 1.963 1_556 S
Li880 O942 1.968 . S
Li881 N905 1.990 . S
Li881 O940 1.981 . S
Li881 O941 1.956 . S
Li881 O943 1.958 1_554 S
Li882 N927 1.990 . S
Li882 O940 1.950 1_556 S
Li882 O942 1.956 . S
Li882 O943 1.973 . S
Li883 N933 1.991 . S
Li883 O941 1.976 . S
Li883 O942 1.955 1_554 S
Li883 O943 1.956 1_554 S
C884 C886 1.345 . S
C884 C887 1.359 1_554 S
C884 O940 1.325 . S
N885 C888 1.276 1_556 S
N885 C889 1.317 . S
C886 C884 1.345 . S
C886 C888 1.353 . S
C886 H944 0.929 . S
C887 C884 1.359 1_556 S
C887 C889 1.358 . S
C887 H945 0.930 . S
C888 N885 1.276 1_554 S
C888 C886 1.353 . S
C888 H946 0.930 . S
C889 N885 1.317 . S
C889 C887 1.358 . S
C889 H947 0.930 . S
C890 C893 1.348 . S
C890 C894 1.356 . S
C890 O941 1.325 . S
C891 N892 1.279 . S
C891 C894 1.358 . S
C891 H948 0.930 . S
N892 C891 1.279 . S
N892 C895 1.314 . S
C893 C890 1.348 . S
C893 C895 1.353 . S
C893 H949 0.929 . S
C894 C890 1.356 . S
C894 C891 1.358 . S
C894 H950 0.930 . S
C895 N892 1.314 . S
C895 C893 1.353 . S
C895 H951 0.930 . S
C896 N897 1.314 . S
C896 C901 1.353 . S
C896 H902 0.930 . S
N897 Li880 1.991 . S
N897 C896 1.314 . S
N897 C899 1.279 1_556 S
C898 C899 1.358 . S
C898 C900 1.357 . S
C898 H952 0.930 . S
C899 N897 1.279 1_554 S
C899 C898 1.358 . S
C899 H903 0.930 . S
C900 C898 1.357 . S
C900 C901 1.346 1_554 S
C901 C896 1.353 . S
C901 C900 1.346 1_556 S
C901 H953 0.929 . S
H902 C896 0.930 . S
H903 C899 0.930 . S
C904 N905 1.314 . S
C904 C906 1.353 . S
C904 H910 0.930 . S
N905 Li881 1.990 . S
N905 C904 1.314 . S
N905 C908 1.279 . S
C906 C904 1.353 . S
C906 C909 1.348 . S
C906 H954 0.929 . S
C907 C908 1.358 . S
C907 C909 1.356 . S
C907 H955 0.930 . S
C908 N905 1.279 . S
C908 C907 1.358 . S
C908 H911 0.930 . S
C909 C906 1.348 . S
C909 C907 1.356 . S
H910 C904 0.930 . S
H911 C908 0.930 . S
C912 C914 1.348 . S
C912 C915 1.356 . S
C912 O942 1.325 . S
N913 C916 1.314 . S
N913 C917 1.279 . S
C914 C912 1.348 . S
C914 C916 1.353 . S
C914 H956 0.929 . S
C915 C912 1.356 . S
C915 C917 1.358 . S
C915 H957 0.930 . S
C916 N913 1.314 . S
C916 C914 1.353 . S
C916 H958 0.930 . S
C917 N913 1.279 . S
C917 C915 1.358 . S
C917 H959 0.930 . S
C918 C919 1.345 1_554 S
C918 C920 1.359 . S
C918 O943 1.325 1_554 S
C919 C918 1.345 1_556 S
C919 C921 1.353 . S
C919 H960 0.929 . S
C920 C918 1.359 . S
C920 C922 1.358 . S
C920 H961 0.930 . S
C921 C919 1.353 . S
C921 N923 1.314 1_556 S
C921 H962 0.930 . S
C922 C920 1.358 . S
C922 N923 1.279 . S
C922 H963 0.930 . S
N923 C921 1.314 1_554 S
N923 C922 1.279 . S
C924 C926 1.353 . S
C924 N927 1.314 . S
C924 H930 0.930 . S
C925 N927 1.279 . S
C925 C928 1.358 . S
C925 H931 0.930 . S
C926 C924 1.353 . S
C926 C929 1.348 . S
C926 H964 0.929 . S
N927 Li882 1.990 . S
N927 C924 1.314 . S
N927 C925 1.279 . S
C928 C925 1.358 . S
C928 C929 1.356 . S
C928 H965 0.930 . S
C929 C926 1.348 . S
C929 C928 1.356 . S
H930 C924 0.930 . S
H931 C925 0.930 . S
C932 N933 1.314 . S
C932 C934 1.353 . S
C932 H938 0.930 . S
N933 Li883 1.991 . S
N933 C932 1.314 . S
N933 C936 1.279 1_554 S
C934 C932 1.353 . S
C934 C937 1.346 . S
C934 H966 0.929 . S
C935 C936 1.358 . S
C935 C937 1.357 1_556 S
C935 H967 0.930 . S
C936 N933 1.279 1_556 S
C936 C935 1.358 . S
C936 H939 0.930 . S
C937 C934 1.346 . S
C937 C935 1.357 1_554 S
H938 C932 0.930 . S
H939 C936 0.930 . S
O940 Li880 1.956 1_554 S
O940 Li881 1.981 . S
O940 Li882 1.950 1_554 S
O940 C884 1.325 . S
O941 Li880 1.963 1_554 S
O941 Li881 1.956 . S
O941 Li883 1.976 . S
O941 C890 1.325 . S
O942 Li880 1.968 . S
O942 Li882 1.956 . S
O942 Li883 1.955 1_556 S
O942 C912 1.325 . S
O943 Li881 1.958 1_556 S
O943 Li882 1.973 . S
O943 Li883 1.956 1_556 S
O943 C918 1.325 1_556 S
H944 C886 0.929 . S
H945 C887 0.930 . S
H946 C888 0.930 . S
H947 C889 0.930 . S
H948 C891 0.930 . S
H949 C893 0.929 . S
H950 C894 0.930 . S
H951 C895 0.930 . S
H952 C898 0.930 . S
H953 C901 0.929 . S
H954 C906 0.929 . S
H955 C907 0.930 . S
H956 C914 0.929 . S
H957 C915 0.930 . S
H958 C916 0.930 . S
H959 C917 0.930 . S
H960 C919 0.929 . S
H961 C920 0.930 . S
H962 C921 0.930 . S
H963 C922 0.930 . S
H964 C926 0.929 . S
H965 C928 0.930 . S
H966 C934 0.929 . S
H967 C935 0.930 . S
Li968 N985 1.990 . S
Li968 O1028 1.956 . S
Li968 O1029 1.981 . S
Li968 O1030 1.958 1_554 S
Li969 N993 1.991 . S
Li969 O1028 1.963 1_556 S
Li969 O1029 1.956 1_556 S
Li969 O1031 1.968 . S
Li970 N1015 1.991 . S
Li970 O1028 1.976 . S
Li970 O1030 1.956 1_554 S
Li970 O1031 1.955 1_554 S
Li971 N1021 1.990 . S
Li971 O1029 1.950 1_556 S
Li971 O1030 1.973 . S
Li971 O1031 1.956 . S
C972 C974 1.348 . S
C972 C975 1.356 . S
C972 O1028 1.325 . S
N973 C976 1.314 . S
N973 C977 1.279 . S
C974 C972 1.348 . S
C974 C976 1.353 . S
C974 H1032 0.929 . S
C975 C972 1.356 . S
C975 C977 1.358 . S
C975 H1033 0.930 . S
C976 N973 1.314 . S
C976 C974 1.353 . S
C976 H1034 0.930 . S
C977 N973 1.279 . S
C977 C975 1.358 . S
C977 H1035 0.930 . S
C978 C981 1.345 . S
C978 C982 1.359 1_554 S
C978 O1029 1.325 . S
C979 N980 1.317 . S
C979 C982 1.358 . S
C979 H1036 0.930 . S
N980 C979 1.317 . S
N980 C983 1.276 1_556 S
C981 C978 1.345 . S
C981 C983 1.353 . S
C981 H1037 0.929 . S
C982 C978 1.359 1_556 S
C982 C979 1.358 . S
C982 H1038 0.930 . S
C983 N980 1.276 1_554 S
C983 C981 1.353 . S
C983 H1039 0.930 . S
C984 N985 1.314 . S
C984 C989 1.353 . S
C984 H990 0.930 . S
N985 Li968 1.990 . S
N985 C984 1.314 . S
N985 C987 1.279 . S
C986 C987 1.358 . S
C986 C988 1.356 . S
C986 H1040 0.930 . S
C987 N985 1.279 . S
C987 C986 1.358 . S
C987 H991 0.930 . S
C988 C986 1.356 . S
C988 C989 1.348 . S
C989 C984 1.353 . S
C989 C988 1.348 . S
C989 H1041 0.929 . S
H990 C984 0.930 . S
H991 C987 0.930 . S
C992 N993 1.314 . S
C992 C994 1.353 . S
C992 H998 0.930 . S
N993 Li969 1.991 . S
N993 C992 1.314 . S
N993 C996 1.279 1_556 S
C994 C992 1.353 . S
C994 C997 1.346 1_556 S
C994 H1042 0.929 . S
C995 C996 1.358 . S
C995 C997 1.357 . S
C995 H1043 0.930 . S
C996 N993 1.279 1_554 S
C996 C995 1.358 . S
C996 H999 0.930 . S
C997 C994 1.346 1_554 S
C997 C995 1.357 . S
H998 C992 0.930 . S
H999 C996 0.930 . S
C1000 C1002 1.345 1_554 S
C1000 C1003 1.359 . S
C1000 O1030 1.325 1_554 S
N1001 C1004 1.314 1_554 S
N1001 C1005 1.279 . S
C1002 C1000 1.345 1_556 S
C1002 C1004 1.353 . S
C1002 H1044 0.929 . S
C1003 C1000 1.359 . S
C1003 C1005 1.358 . S
C1003 H1045 0.930 . S
C1004 N1001 1.314 1_556 S
C1004 C1002 1.353 . S
C1004 H1046 0.930 . S
C1005 N1001 1.279 . S
C1005 C1003 1.358 . S
C1005 H1047 0.930 . S
C1006 C1007 1.348 . S
C1006 C1008 1.356 . S
C1006 O1031 1.325 . S
C1007 C1006 1.348 . S
C1007 C1009 1.353 . S
C1007 H1048 0.929 . S
C1008 C1006 1.356 . S
C1008 C1010 1.358 . S
C1008 H1049 0.930 . S
C1009 C1007 1.353 . S
C1009 N1011 1.314 . S
C1009 H1050 0.930 . S
C1010 C1008 1.358 . S
C1010 N1011 1.279 . S
C1010 H1051 0.930 . S
N1011 C1009 1.314 . S
N1011 C1010 1.279 . S
C1012 C1014 1.353 . S
C1012 N1015 1.314 . S
C1012 H1018 0.930 . S
C1013 N1015 1.279 1_556 S
C1013 C1016 1.358 . S
C1013 H1019 0.930 . S
C1014 C1012 1.353 . S
C1014 C1017 1.346 . S
C1014 H1052 0.929 . S
N1015 Li970 1.991 . S
N1015 C1012 1.314 . S
N1015 C1013 1.279 1_554 S
C1016 C1013 1.358 . S
C1016 C1017 1.357 1_556 S
C1016 H1053 0.930 . S
C1017 C1014 1.346 . S
C1017 C1016 1.357 1_554 S
H1018 C1012 0.930 . S
H1019 C1013 0.930 . S
C1020 N1021 1.314 . S
C1020 C1022 1.353 . S
C1020 H1026 0.930 . S
N1021 Li971 1.990 . S
N1021 C1020 1.314 . S
N1021 C1024 1.279 . S
C1022 C1020 1.353 . S
C1022 C1025 1.348 . S
C1022 H1054 0.929 . S
C1023 C1024 1.358 . S
C1023 C1025 1.356 . S
C1023 H1055 0.930 . S
C1024 N1021 1.279 . S
C1024 C1023 1.358 . S
C1024 H1027 0.930 . S
C1025 C1022 1.348 . S
C1025 C1023 1.356 . S
H1026 C1020 0.930 . S
H1027 C1024 0.930 . S
O1028 Li968 1.956 . S
O1028 Li969 1.963 1_554 S
O1028 Li970 1.976 . S
O1028 C972 1.325 . S
O1029 Li968 1.981 . S
O1029 Li969 1.956 1_554 S
O1029 Li971 1.950 1_554 S
O1029 C978 1.325 . S
O1030 Li968 1.958 1_556 S
O1030 Li970 1.956 1_556 S
O1030 Li971 1.973 . S
O1030 C1000 1.325 1_556 S
O1031 Li969 1.968 . S
O1031 Li970 1.955 1_556 S
O1031 Li971 1.956 . S
O1031 C1006 1.325 . S
H1032 C974 0.929 . S
H1033 C975 0.930 . S
H1034 C976 0.930 . S
H1035 C977 0.930 . S
H1036 C979 0.930 . S
H1037 C981 0.929 . S
H1038 C982 0.930 . S
H1039 C983 0.930 . S
H1040 C986 0.930 . S
H1041 C989 0.929 . S
H1042 C994 0.929 . S
H1043 C995 0.930 . S
H1044 C1002 0.929 . S
H1045 C1003 0.930 . S
H1046 C1004 0.930 . S
H1047 C1005 0.930 . S
H1048 C1007 0.929 . S
H1049 C1008 0.930 . S
H1050 C1009 0.930 . S
H1051 C1010 0.930 . S
H1052 C1014 0.929 . S
H1053 C1016 0.930 . S
H1054 C1022 0.929 . S
H1055 C1023 0.930 . S
H1056 C1062 0.930 . S
H1057 C1065 0.932 . S
H1058 C1066 0.932 . S
H1059 C1067 0.930 . S
H1060 C1070 0.931 . S
H1061 C1071 0.930 . S
C1062 H1056 0.930 . S
C1062 C1063 1.355 . S
C1062 C1064 1.415 . S
C1063 C1062 1.355 . S
C1063 C1065 1.418 1_655 S
C1064 C1062 1.415 . S
C1064 C1069 1.424 1_655 S
C1064 C1071 1.409 . S
C1065 H1057 0.932 . S
C1065 C1063 1.418 1_455 S
C1065 C1066 1.362 . S
C1066 H1058 0.932 . S
C1066 C1065 1.362 . S
C1066 C1069 1.409 . S
C1067 H1059 0.930 . S
C1067 C1068 1.356 . S
C1067 C1069 1.416 . S
C1068 C1067 1.356 . S
C1068 C1070 1.418 1_455 S
C1069 C1064 1.424 1_455 S
C1069 C1066 1.409 . S
C1069 C1067 1.416 . S
C1070 H1060 0.931 . S
C1070 C1068 1.418 1_655 S
C1070 C1071 1.362 . S
C1071 H1061 0.930 . S
C1071 C1064 1.409 . S
C1071 C1070 1.362 . S
H1072 C1078 0.930 . S
H1073 C1081 0.930 . S
H1074 C1082 0.930 . S
H1075 C1083 0.930 . S
H1076 C1086 0.930 . S
H1077 C1087 0.930 . S
C1078 H1072 0.930 . S
C1078 C1079 1.360 . S
C1078 C1080 1.415 . S
C1079 C1078 1.360 . S
C1079 C1081 1.414 1_545 S
C1080 C1078 1.415 . S
C1080 C1085 1.425 1_545 S
C1080 C1087 1.409 . S
C1081 H1073 0.930 . S
C1081 C1079 1.414 1_565 S
C1081 C1082 1.362 . S
C1082 H1074 0.930 . S
C1082 C1081 1.362 . S
C1082 C1085 1.409 . S
C1083 H1075 0.930 . S
C1083 C1084 1.359 . S
C1083 C1085 1.415 . S
C1084 C1083 1.359 . S
C1084 C1086 1.415 1_565 S
C1085 C1080 1.425 1_565 S
C1085 C1082 1.409 . S
C1085 C1083 1.415 . S
C1086 H1076 0.930 . S
C1086 C1084 1.415 1_545 S
C1086 C1087 1.362 . S
C1087 H1077 0.930 . S
C1087 C1080 1.409 . S
C1087 C1086 1.362 . S
H1088 C1094 0.930 . S
H1089 C1097 0.930 . S
H1090 C1098 0.930 . S
H1091 C1099 0.930 . S
H1092 C1102 0.930 . S
H1093 C1103 0.930 . S
C1094 H1088 0.930 . S
C1094 C1095 1.354 . S
C1094 C1096 1.415 . S
C1095 C1094 1.354 . S
C1095 C1097 1.419 1_455 S
C1096 C1094 1.415 . S
C1096 C1101 1.425 1_455 S
C1096 C1103 1.409 . S
C1097 H1089 0.930 . S
C1097 C1095 1.419 1_655 S
C1097 C1098 1.362 . S
C1098 H1090 0.930 . S
C1098 C1097 1.362 . S
C1098 C1101 1.409 . S
C1099 H1091 0.930 . S
C1099 C1100 1.354 1_655 S
C1099 C1101 1.415 . S
C1100 C1099 1.354 1_455 S
C1100 C1102 1.419 . S
C1101 C1096 1.425 1_655 S
C1101 C1098 1.409 . S
C1101 C1099 1.415 . S
C1102 H1092 0.930 . S
C1102 C1100 1.419 . S
C1102 C1103 1.362 . S
C1103 H1093 0.930 . S
C1103 C1096 1.409 . S
C1103 C1102 1.362 . S
H1104 C1110 0.930 . S
H1105 C1113 0.930 . S
H1106 C1114 0.930 . S
H1107 C1115 0.930 . S
H1108 C1118 0.930 . S
H1109 C1119 0.930 . S
C1110 H1104 0.930 . S
C1110 C1111 1.355 1_565 S
C1110 C1112 1.415 . S
C1111 C1110 1.355 1_545 S
C1111 C1113 1.419 . S
C1112 C1110 1.415 . S
C1112 C1117 1.425 1_565 S
C1112 C1119 1.409 . S
C1113 H1105 0.930 . S
C1113 C1111 1.419 . S
C1113 C1114 1.362 . S
C1114 H1106 0.930 . S
C1114 C1113 1.362 . S
C1114 C1117 1.409 . S
C1115 H1107 0.930 . S
C1115 C1116 1.347 1_545 S
C1115 C1117 1.415 . S
C1116 C1115 1.347 1_565 S
C1116 C1118 1.431 . S
C1117 C1112 1.425 1_545 S
C1117 C1114 1.409 . S
C1117 C1115 1.415 . S
C1118 H1108 0.930 . S
C1118 C1116 1.431 . S
C1118 C1119 1.362 . S
C1119 H1109 0.930 . S
C1119 C1112 1.409 . S
C1119 C1118 1.362 . S
H1120 C1126 0.930 . S
H1121 C1129 0.930 . S
H1122 C1130 0.930 . S
H1123 C1131 0.930 . S
H1124 C1134 0.930 . S
H1125 C1135 0.930 . S
C1126 H1120 0.930 . S
C1126 C1127 1.355 1_455 S
C1126 C1128 1.415 . S
C1127 C1126 1.355 1_655 S
C1127 C1129 1.419 . S
C1128 C1126 1.415 . S
C1128 C1133 1.425 1_455 S
C1128 C1135 1.409 . S
C1129 H1121 0.930 . S
C1129 C1127 1.419 . S
C1129 C1130 1.362 . S
C1130 H1122 0.930 . S
C1130 C1129 1.362 . S
C1130 C1133 1.409 . S
C1131 H1123 0.930 . S
C1131 C1132 1.355 1_655 S
C1131 C1133 1.415 . S
C1132 C1131 1.355 1_455 S
C1132 C1134 1.419 . S
C1133 C1128 1.425 1_655 S
C1133 C1130 1.409 . S
C1133 C1131 1.415 . S
C1134 H1124 0.930 . S
C1134 C1132 1.419 . S
C1134 C1135 1.362 . S
C1135 H1125 0.930 . S
C1135 C1128 1.409 . S
C1135 C1134 1.362 . S
H1136 C1142 0.930 . S
H1137 C1145 0.930 . S
H1138 C1146 0.930 . S
H1139 C1147 0.930 . S
H1140 C1150 0.930 . S
H1141 C1151 0.930 . S
C1142 H1136 0.930 . S
C1142 C1143 1.356 1_565 S
C1142 C1144 1.415 . S
C1143 C1142 1.356 1_545 S
C1143 C1145 1.417 . S
C1144 C1142 1.415 . S
C1144 C1149 1.425 1_565 S
C1144 C1151 1.409 . S
C1145 H1137 0.930 . S
C1145 C1143 1.417 . S
C1145 C1146 1.362 . S
C1146 H1138 0.930 . S
C1146 C1145 1.362 . S
C1146 C1149 1.409 . S
C1147 H1139 0.930 . S
C1147 C1148 1.356 . S
C1147 C1149 1.415 . S
C1148 C1147 1.356 . S
C1148 C1150 1.417 1_545 S
C1149 C1144 1.425 1_545 S
C1149 C1146 1.409 . S
C1149 C1147 1.415 . S
C1150 H1140 0.930 . S
C1150 C1148 1.417 1_565 S
C1150 C1151 1.362 . S
C1151 H1141 0.930 . S
C1151 C1144 1.409 . S
C1151 C1150 1.362 . S
H1152 C1158 0.930 . S
H1153 C1161 0.930 . S
H1154 C1162 0.930 . S
H1155 C1163 0.930 . S
H1156 C1166 0.930 . S
H1157 C1167 0.930 . S
C1158 H1152 0.930 . S
C1158 C1159 1.355 1_455 S
C1158 C1160 1.415 . S
C1159 C1158 1.355 1_655 S
C1159 C1161 1.419 . S
C1160 C1158 1.415 . S
C1160 C1165 1.425 1_455 S
C1160 C1167 1.409 . S
C1161 H1153 0.930 . S
C1161 C1159 1.419 . S
C1161 C1162 1.362 . S
C1162 H1154 0.930 . S
C1162 C1161 1.362 . S
C1162 C1165 1.409 . S
C1163 H1155 0.930 . S
C1163 C1164 1.355 1_655 S
C1163 C1165 1.415 . S
C1164 C1163 1.355 1_455 S
C1164 C1166 1.419 . S
C1165 C1160 1.425 1_655 S
C1165 C1162 1.409 . S
C1165 C1163 1.415 . S
C1166 H1156 0.930 . S
C1166 C1164 1.419 . S
C1166 C1167 1.362 . S
C1167 H1157 0.930 . S
C1167 C1160 1.409 . S
C1167 C1166 1.362 . S
H1168 C1174 0.930 . S
H1169 C1177 0.930 . S
H1170 C1178 0.930 . S
H1171 C1179 0.930 . S
H1172 C1182 0.930 . S
H1173 C1183 0.930 . S
C1174 H1168 0.930 . S
C1174 C1175 1.357 . S
C1174 C1176 1.415 . S
C1175 C1174 1.357 . S
C1175 C1177 1.416 1_545 S
C1176 C1174 1.415 . S
C1176 C1181 1.425 1_545 S
C1176 C1183 1.409 . S
C1177 H1169 0.930 . S
C1177 C1175 1.416 1_565 S
C1177 C1178 1.362 . S
C1178 H1170 0.930 . S
C1178 C1177 1.362 . S
C1178 C1181 1.409 . S
C1179 H1171 0.930 . S
C1179 C1180 1.354 . S
C1179 C1181 1.415 . S
C1180 C1179 1.354 . S
C1180 C1182 1.420 1_565 S
C1181 C1176 1.425 1_565 S
C1181 C1178 1.409 . S
C1181 C1179 1.415 . S
C1182 H1172 0.930 . S
C1182 C1180 1.420 1_545 S
C1182 C1183 1.362 . S
C1183 H1173 0.930 . S
C1183 C1176 1.409 . S
C1183 C1182 1.362 . S
H1184 C1190 0.930 . S
H1185 C1193 0.930 . S
H1186 C1194 0.930 . S
H1187 C1195 0.930 . S
H1188 C1198 0.930 . S
H1189 C1199 0.930 . S
C1190 H1184 0.930 . S
C1190 C1191 1.352 1_556 S
C1190 C1192 1.415 . S
C1191 C1190 1.352 1_554 S
C1191 C1193 1.424 . S
C1192 C1190 1.415 . S
C1192 C1197 1.425 1_556 S
C1192 C1199 1.409 . S
C1193 H1185 0.930 . S
C1193 C1191 1.424 . S
C1193 C1194 1.362 . S
C1194 H1186 0.930 . S
C1194 C1193 1.362 . S
C1194 C1197 1.409 . S
C1195 H1187 0.930 . S
C1195 C1196 1.352 1_554 S
C1195 C1197 1.415 . S
C1196 C1195 1.352 1_556 S
C1196 C1198 1.423 . S
C1197 C1192 1.425 1_554 S
C1197 C1194 1.409 . S
C1197 C1195 1.415 . S
C1198 H1188 0.930 . S
C1198 C1196 1.423 . S
C1198 C1199 1.362 . S
C1199 H1189 0.930 . S
C1199 C1192 1.409 . S
C1199 C1198 1.362 . S
H1200 C1206 0.930 . S
H1201 C1209 0.930 . S
H1202 C1210 0.930 . S
H1203 C1211 0.930 . S
H1204 C1214 0.930 . S
H1205 C1215 0.930 . S
C1206 H1200 0.930 . S
C1206 C1207 1.355 1_554 S
C1206 C1208 1.415 . S
C1207 C1206 1.355 1_556 S
C1207 C1209 1.419 . S
C1208 C1206 1.415 . S
C1208 C1213 1.425 1_554 S
C1208 C1215 1.409 . S
C1209 H1201 0.930 . S
C1209 C1207 1.419 . S
C1209 C1210 1.362 . S
C1210 H1202 0.930 . S
C1210 C1209 1.362 . S
C1210 C1213 1.409 . S
C1211 H1203 0.930 . S
C1211 C1212 1.355 1_556 S
C1211 C1213 1.415 . S
C1212 C1211 1.355 1_554 S
C1212 C1214 1.419 . S
C1213 C1208 1.425 1_556 S
C1213 C1210 1.409 . S
C1213 C1211 1.415 . S
C1214 H1204 0.930 . S
C1214 C1212 1.419 . S
C1214 C1215 1.362 . S
C1215 H1205 0.930 . S
C1215 C1208 1.409 . S
C1215 C1214 1.362 . S
H1216 C1222 0.930 . S
H1217 C1225 0.930 . S
H1218 C1226 0.930 . S
H1219 C1227 0.930 . S
H1220 C1230 0.930 . S
H1221 C1231 0.930 . S
C1222 H1216 0.930 . S
C1222 C1223 1.355 1_554 S
C1222 C1224 1.415 . S
C1223 C1222 1.355 1_556 S
C1223 C1225 1.419 . S
C1224 C1222 1.415 . S
C1224 C1229 1.425 1_554 S
C1224 C1231 1.409 . S
C1225 H1217 0.930 . S
C1225 C1223 1.419 . S
C1225 C1226 1.362 . S
C1226 H1218 0.930 . S
C1226 C1225 1.362 . S
C1226 C1229 1.409 . S
C1227 H1219 0.930 . S
C1227 C1228 1.355 1_556 S
C1227 C1229 1.415 . S
C1228 C1227 1.355 1_554 S
C1228 C1230 1.419 . S
C1229 C1224 1.425 1_556 S
C1229 C1226 1.409 . S
C1229 C1227 1.415 . S
C1230 H1220 0.930 . S
C1230 C1228 1.419 . S
C1230 C1231 1.362 . S
C1231 H1221 0.930 . S
C1231 C1224 1.409 . S
C1231 C1230 1.362 . S
H1232 C1238 0.930 . S
H1233 C1241 0.930 . S
H1234 C1242 0.930 . S
H1235 C1243 0.930 . S
H1236 C1246 0.930 . S
H1237 C1247 0.930 . S
C1238 H1232 0.930 . S
C1238 C1239 1.355 1_556 S
C1238 C1240 1.415 . S
C1239 C1238 1.355 1_554 S
C1239 C1241 1.419 . S
C1240 C1238 1.415 . S
C1240 C1245 1.425 1_556 S
C1240 C1247 1.409 . S
C1241 H1233 0.930 . S
C1241 C1239 1.419 . S
C1241 C1242 1.362 . S
C1242 H1234 0.930 . S
C1242 C1241 1.362 . S
C1242 C1245 1.409 . S
C1243 H1235 0.930 . S
C1243 C1244 1.355 1_554 S
C1243 C1245 1.415 . S
C1244 C1243 1.355 1_556 S
C1244 C1246 1.419 . S
C1245 C1240 1.425 1_554 S
C1245 C1242 1.409 . S
C1245 C1243 1.415 . S
C1246 H1236 0.930 . S
C1246 C1244 1.419 . S
C1246 C1247 1.362 . S
C1247 H1237 0.930 . S
C1247 C1240 1.409 . S
C1247 C1246 1.362 . S
H1248 C1254 0.930 . S
H1249 C1257 0.930 . S
H1250 C1258 0.930 . S
H1251 C1259 0.930 . S
H1252 C1262 0.930 . S
H1253 C1263 0.930 . S
C1254 H1248 0.930 . S
C1254 C1255 1.355 . S
C1254 C1256 1.415 . S
C1255 C1254 1.355 . S
C1255 C1257 1.419 . S
C1256 C1254 1.415 . S
C1256 C1261 1.425 . S
C1256 C1263 1.409 . S
C1257 H1249 0.930 . S
C1257 C1255 1.419 . S
C1257 C1258 1.362 . S
C1258 H1250 0.930 . S
C1258 C1257 1.362 . S
C1258 C1261 1.409 . S
C1259 H1251 0.930 . S
C1259 C1260 1.355 . S
C1259 C1261 1.415 . S
C1260 C1259 1.355 . S
C1260 C1262 1.419 . S
C1261 C1256 1.425 . S
C1261 C1258 1.409 . S
C1261 C1259 1.415 . S
C1262 H1252 0.930 . S
C1262 C1260 1.419 . S
C1262 C1263 1.362 . S
C1263 H1253 0.930 . S
C1263 C1256 1.409 . S
C1263 C1262 1.362 . S
H1264 C1270 0.930 . S
H1265 C1273 0.930 . S
H1266 C1274 0.930 . S
H1267 C1275 0.930 . S
H1268 C1278 0.930 . S
H1269 C1279 0.930 . S
C1270 H1264 0.930 . S
C1270 C1271 1.355 . S
C1270 C1272 1.415 . S
C1271 C1270 1.355 . S
C1271 C1273 1.419 . S
C1272 C1270 1.415 . S
C1272 C1277 1.425 . S
C1272 C1279 1.409 . S
C1273 H1265 0.930 . S
C1273 C1271 1.419 . S
C1273 C1274 1.362 . S
C1274 H1266 0.930 . S
C1274 C1273 1.362 . S
C1274 C1277 1.409 . S
C1275 H1267 0.930 . S
C1275 C1276 1.355 . S
C1275 C1277 1.415 . S
C1276 C1275 1.355 . S
C1276 C1278 1.419 . S
C1277 C1272 1.425 . S
C1277 C1274 1.409 . S
C1277 C1275 1.415 . S
C1278 H1268 0.930 . S
C1278 C1276 1.419 . S
C1278 C1279 1.362 . S
C1279 H1269 0.930 . S
C1279 C1272 1.409 . S
C1279 C1278 1.362 . S
H1280 C1286 0.930 . S
H1281 C1289 0.930 . S
H1282 C1290 0.930 . S
H1283 C1291 0.930 . S
H1284 C1294 0.930 . S
H1285 C1295 0.930 . S
C1286 H1280 0.930 . S
C1286 C1287 1.355 . S
C1286 C1288 1.415 . S
C1287 C1286 1.355 . S
C1287 C1289 1.419 . S
C1288 C1286 1.415 . S
C1288 C1293 1.425 . S
C1288 C1295 1.409 . S
C1289 H1281 0.930 . S
C1289 C1287 1.419 . S
C1289 C1290 1.362 . S
C1290 H1282 0.930 . S
C1290 C1289 1.362 . S
C1290 C1293 1.409 . S
C1291 H1283 0.930 . S
C1291 C1292 1.355 . S
C1291 C1293 1.415 . S
C1292 C1291 1.355 . S
C1292 C1294 1.419 . S
C1293 C1288 1.425 . S
C1293 C1290 1.409 . S
C1293 C1291 1.415 . S
C1294 H1284 0.930 . S
C1294 C1292 1.419 . S
C1294 C1295 1.362 . S
C1295 H1285 0.930 . S
C1295 C1288 1.409 . S
C1295 C1294 1.362 . S
H1296 C1302 0.930 . S
H1297 C1305 0.930 . S
H1298 C1306 0.930 . S
H1299 C1307 0.930 . S
H1300 C1310 0.930 . S
H1301 C1311 0.930 . S
C1302 H1296 0.930 . S
C1302 C1303 1.355 . S
C1302 C1304 1.415 . S
C1303 C1302 1.355 . S
C1303 C1305 1.419 . S
C1304 C1302 1.415 . S
C1304 C1309 1.425 . S
C1304 C1311 1.409 . S
C1305 H1297 0.930 . S
C1305 C1303 1.419 . S
C1305 C1306 1.362 . S
C1306 H1298 0.930 . S
C1306 C1305 1.362 . S
C1306 C1309 1.409 . S
C1307 H1299 0.930 . S
C1307 C1308 1.355 . S
C1307 C1309 1.415 . S
C1308 C1307 1.355 . S
C1308 C1310 1.419 . S
C1309 C1304 1.425 . S
C1309 C1306 1.409 . S
C1309 C1307 1.415 . S
C1310 H1300 0.930 . S
C1310 C1308 1.419 . S
C1310 C1311 1.362 . S
C1311 H1301 0.930 . S
C1311 C1304 1.409 . S
C1311 C1310 1.362 . S
H1312 C1318 0.930 . S
H1313 C1321 0.930 . S
H1314 C1322 0.930 . S
H1315 C1323 0.930 . S
H1316 C1326 0.930 . S
H1317 C1327 0.930 . S
C1318 H1312 0.930 . S
C1318 C1319 1.355 . S
C1318 C1320 1.415 . S
C1319 C1318 1.355 . S
C1319 C1321 1.419 . S
C1320 C1318 1.415 . S
C1320 C1325 1.425 . S
C1320 C1327 1.409 . S
C1321 H1313 0.930 . S
C1321 C1319 1.419 . S
C1321 C1322 1.362 . S
C1322 H1314 0.930 . S
C1322 C1321 1.362 . S
C1322 C1325 1.409 . S
C1323 H1315 0.930 . S
C1323 C1324 1.355 . S
C1323 C1325 1.415 . S
C1324 C1323 1.355 . S
C1324 C1326 1.419 . S
C1325 C1320 1.425 . S
C1325 C1322 1.409 . S
C1325 C1323 1.415 . S
C1326 H1316 0.930 . S
C1326 C1324 1.419 . S
C1326 C1327 1.362 . S
C1327 H1317 0.930 . S
C1327 C1320 1.409 . S
C1327 C1326 1.362 . S
H1328 C1334 0.930 . S
H1329 C1337 0.930 . S
H1330 C1338 0.930 . S
H1331 C1339 0.930 . S
H1332 C1342 0.930 . S
H1333 C1343 0.930 . S
C1334 H1328 0.930 . S
C1334 C1335 1.355 . S
C1334 C1336 1.415 . S
C1335 C1334 1.355 . S
C1335 C1337 1.419 . S
C1336 C1334 1.415 . S
C1336 C1341 1.425 . S
C1336 C1343 1.409 . S
C1337 H1329 0.930 . S
C1337 C1335 1.419 . S
C1337 C1338 1.362 . S
C1338 H1330 0.930 . S
C1338 C1337 1.362 . S
C1338 C1341 1.409 . S
C1339 H1331 0.930 . S
C1339 C1340 1.355 . S
C1339 C1341 1.415 . S
C1340 C1339 1.355 . S
C1340 C1342 1.419 . S
C1341 C1336 1.425 . S
C1341 C1338 1.409 . S
C1341 C1339 1.415 . S
C1342 H1332 0.930 . S
C1342 C1340 1.419 . S
C1342 C1343 1.362 . S
C1343 H1333 0.930 . S
C1343 C1336 1.409 . S
C1343 C1342 1.362 . S
H1344 C1350 0.930 . S
H1345 C1353 0.930 . S
H1346 C1354 0.930 . S
H1347 C1355 0.930 . S
H1348 C1358 0.930 . S
H1349 C1359 0.930 . S
C1350 H1344 0.930 . S
C1350 C1351 1.355 . S
C1350 C1352 1.415 . S
C1351 C1350 1.355 . S
C1351 C1353 1.419 . S
C1352 C1350 1.415 . S
C1352 C1357 1.425 . S
C1352 C1359 1.409 . S
C1353 H1345 0.930 . S
C1353 C1351 1.419 . S
C1353 C1354 1.362 . S
C1354 H1346 0.930 . S
C1354 C1353 1.362 . S
C1354 C1357 1.409 . S
C1355 H1347 0.930 . S
C1355 C1356 1.355 . S
C1355 C1357 1.415 . S
C1356 C1355 1.355 . S
C1356 C1358 1.419 . S
C1357 C1352 1.425 . S
C1357 C1354 1.409 . S
C1357 C1355 1.415 . S
C1358 H1348 0.930 . S
C1358 C1356 1.419 . S
C1358 C1359 1.362 . S
C1359 H1349 0.930 . S
C1359 C1352 1.409 . S
C1359 C1358 1.362 . S
H1360 C1366 0.930 . S
H1361 C1369 0.930 . S
H1362 C1370 0.930 . S
H1363 C1371 0.930 . S
H1364 C1374 0.930 . S
H1365 C1375 0.930 . S
C1366 H1360 0.930 . S
C1366 C1367 1.355 . S
C1366 C1368 1.415 . S
C1367 C1366 1.355 . S
C1367 C1369 1.419 . S
C1368 C1366 1.415 . S
C1368 C1373 1.425 . S
C1368 C1375 1.409 . S
C1369 H1361 0.930 . S
C1369 C1367 1.419 . S
C1369 C1370 1.362 . S
C1370 H1362 0.930 . S
C1370 C1369 1.362 . S
C1370 C1373 1.409 . S
C1371 H1363 0.930 . S
C1371 C1372 1.355 . S
C1371 C1373 1.415 . S
C1372 C1371 1.355 . S
C1372 C1374 1.419 . S
C1373 C1368 1.425 . S
C1373 C1370 1.409 . S
C1373 C1371 1.415 . S
C1374 H1364 0.930 . S
C1374 C1372 1.419 . S
C1374 C1375 1.362 . S
C1375 H1365 0.930 . S
C1375 C1368 1.409 . S
C1375 C1374 1.362 . S
H1376 C1382 0.930 . S
H1377 C1385 0.930 . S
H1378 C1386 0.930 . S
H1379 C1387 0.930 . S
H1380 C1390 0.930 . S
H1381 C1391 0.930 . S
C1382 H1376 0.930 . S
C1382 C1383 1.355 . S
C1382 C1384 1.415 . S
C1383 C1382 1.355 . S
C1383 C1385 1.419 . S
C1384 C1382 1.415 . S
C1384 C1389 1.425 . S
C1384 C1391 1.409 . S
C1385 H1377 0.930 . S
C1385 C1383 1.419 . S
C1385 C1386 1.362 . S
C1386 H1378 0.930 . S
C1386 C1385 1.362 . S
C1386 C1389 1.409 . S
C1387 H1379 0.930 . S
C1387 C1388 1.355 . S
C1387 C1389 1.415 . S
C1388 C1387 1.355 . S
C1388 C1390 1.419 . S
C1389 C1384 1.425 . S
C1389 C1386 1.409 . S
C1389 C1387 1.415 . S
C1390 H1380 0.930 . S
C1390 C1388 1.419 . S
C1390 C1391 1.362 . S
C1391 H1381 0.930 . S
C1391 C1384 1.409 . S
C1391 C1390 1.362 . S
H1392 C1398 0.930 . S
H1393 C1401 0.930 . S
H1394 C1402 0.930 . S
H1395 C1403 0.930 . S
H1396 C1406 0.930 . S
H1397 C1407 0.930 . S
C1398 H1392 0.930 . S
C1398 C1399 1.355 . S
C1398 C1400 1.415 . S
C1399 C1398 1.355 . S
C1399 C1401 1.419 . S
C1400 C1398 1.415 . S
C1400 C1405 1.425 . S
C1400 C1407 1.409 . S
C1401 H1393 0.930 . S
C1401 C1399 1.419 . S
C1401 C1402 1.362 . S
C1402 H1394 0.930 . S
C1402 C1401 1.362 . S
C1402 C1405 1.409 . S
C1403 H1395 0.930 . S
C1403 C1404 1.355 . S
C1403 C1405 1.415 . S
C1404 C1403 1.355 . S
C1404 C1406 1.419 . S
C1405 C1400 1.425 . S
C1405 C1402 1.409 . S
C1405 C1403 1.415 . S
C1406 H1396 0.930 . S
C1406 C1404 1.419 . S
C1406 C1407 1.362 . S
C1407 H1397 0.930 . S
C1407 C1400 1.409 . S
C1407 C1406 1.362 . S
H1408 C1414 0.930 . S
H1409 C1417 0.930 . S
H1410 C1418 0.930 . S
H1411 C1419 0.930 . S
H1412 C1422 0.930 . S
H1413 C1423 0.930 . S
C1414 H1408 0.930 . S
C1414 C1415 1.355 . S
C1414 C1416 1.415 . S
C1415 C1414 1.355 . S
C1415 C1417 1.419 . S
C1416 C1414 1.415 . S
C1416 C1421 1.425 . S
C1416 C1423 1.409 . S
C1417 H1409 0.930 . S
C1417 C1415 1.419 . S
C1417 C1418 1.362 . S
C1418 H1410 0.930 . S
C1418 C1417 1.362 . S
C1418 C1421 1.409 . S
C1419 H1411 0.930 . S
C1419 C1420 1.355 . S
C1419 C1421 1.415 . S
C1420 C1419 1.355 . S
C1420 C1422 1.419 . S
C1421 C1416 1.425 . S
C1421 C1418 1.409 . S
C1421 C1419 1.415 . S
C1422 H1412 0.930 . S
C1422 C1420 1.419 . S
C1422 C1423 1.362 . S
C1423 H1413 0.930 . S
C1423 C1416 1.409 . S
C1423 C1422 1.362 . S
H1424 C1430 0.930 . S
H1425 C1433 0.930 . S
H1426 C1434 0.930 . S
H1427 C1435 0.930 . S
H1428 C1438 0.930 . S
H1429 C1439 0.930 . S
C1430 H1424 0.930 . S
C1430 C1431 1.355 . S
C1430 C1432 1.415 . S
C1431 C1430 1.355 . S
C1431 C1433 1.419 . S
C1432 C1430 1.415 . S
C1432 C1437 1.425 . S
C1432 C1439 1.409 . S
C1433 H1425 0.930 . S
C1433 C1431 1.419 . S
C1433 C1434 1.362 . S
C1434 H1426 0.930 . S
C1434 C1433 1.362 . S
C1434 C1437 1.409 . S
C1435 H1427 0.930 . S
C1435 C1436 1.355 . S
C1435 C1437 1.415 . S
C1436 C1435 1.355 . S
C1436 C1438 1.419 . S
C1437 C1432 1.425 . S
C1437 C1434 1.409 . S
C1437 C1435 1.415 . S
C1438 H1428 0.930 . S
C1438 C1436 1.419 . S
C1438 C1439 1.362 . S
C1439 H1429 0.930 . S
C1439 C1432 1.409 . S
C1439 C1438 1.362 . S
C1063 C49 1.254 1_655 S
C1068 C469 1.232 . S
C1079 C145 1.233 . S
C1084 C401 1.255 1_565 S
C1095 C489 1.233 . S
C1100 C225 1.255 . S
C1111 C313 1.252 . S
C1116 C381 1.232 1_565 S
C1127 C636 1.245 1_655 S
C1132 C205 1.250 . S
C1143 C548 1.233 . S
C1148 C293 1.255 . S
C1159 C29 1.238 1_655 S
C1164 C673 1.255 . S
C1175 C585 1.233 . S
C1180 C108 1.255 1_565 S
C1191 C849 1.252 . S
C1196 C733 1.232 1_556 S
C1207 C753 1.253 1_556 S
C1212 C997 1.241 . S
C1223 C812 1.244 1_556 S
C1228 C937 1.239 . S
C1239 C900 1.250 . S
C1244 C1017 1.244 1_556 S
C1255 C1025 1.233 . S
C1260 C557 1.259 . S
C1271 C761 1.234 . S
C1276 C665 1.256 . S
C1287 C577 1.239 . S
C1292 C841 1.255 . S
C1303 C645 1.245 . S
C1308 C929 1.242 . S
C1319 C372 1.233 . S
C1324 C821 1.251 . S
C1335 C460 1.235 . S
C1340 C909 1.254 . S
C1351 C988 1.238 . S
C1356 C409 1.245 . S
C1367 C724 1.233 . S
C1372 C497 1.252 . S
C1383 C117 1.235 . S
C1388 C233 1.258 . S
C1399 C20 1.238 . S
C1404 C137 1.254 . S
C1415 C196 1.249 . S
C1420 C321 1.245 . S
C1431 C57 1.235 . S
C1436 C284 1.253 . S
