# Generated by pormake.
# Topology sxb, (6)-cn, num edge types: 1
# Building blocks:
#     Node 0, Type 0, BuildingBlock: BETFEN_clean_sbu_0, # of connection points: 6
#     Node 1, Type 0, BuildingBlock: BETFEN_clean_sbu_0, # of connection points: 6
#     Node 2, Type 0, BuildingBlock: BETFEN_clean_sbu_0, # of connection points: 6
#     Node 3, Type 0, BuildingBlock: BETFEN_clean_sbu_0, # of connection points: 6
#     Edge 4, Type (0, 0), BuildingBlock: FUNLAD_clean_linker_1, # of connection points: 2
#     Edge 5, Type (0, 0), BuildingBlock: FUNLAD_clean_linker_1, # of connection points: 2
#     Edge 6, Type (0, 0), BuildingBlock: FUNLAD_clean_linker_1, # of connection points: 2
#     Edge 7, Type (0, 0), BuildingBlock: FUNLAD_clean_linker_1, # of connection points: 2
#     Edge 8, Type (0, 0), BuildingBlock: FUNLAD_clean_linker_1, # of connection points: 2
#     Edge 9, Type (0, 0), BuildingBlock: FUNLAD_clean_linker_1, # of connection points: 2
#     Edge 10, Type (0, 0), BuildingBlock: FUNLAD_clean_linker_1, # of connection points: 2
#     Edge 11, Type (0, 0), BuildingBlock: FUNLAD_clean_linker_1, # of connection points: 2
#     Edge 12, Type (0, 0), BuildingBlock: FUNLAD_clean_linker_1, # of connection points: 2
#     Edge 13, Type (0, 0), BuildingBlock: FUNLAD_clean_linker_1, # of connection points: 2
#     Edge 14, Type (0, 0), BuildingBlock: FUNLAD_clean_linker_1, # of connection points: 2
#     Edge 15, Type (0, 0), BuildingBlock: FUNLAD_clean_linker_1, # of connection points: 2
# Relax obj value: 0.396
# Max RMSD: 0.122
# Mean RMSD: 0.080
data_MOF--net-sxb--node1-BETFEN_clean_sbu_0--edge1-FUNLAD_clean_linker_1
_symmetry_space_group_name_H-M    P1
_symmetry_Int_Tables_number       1
_symmetry_cell_setting            triclinic
loop_
_symmetry_equiv_pos_as_xyz
'x, y, z'
_cell_length_a     17.66461
_cell_length_b     36.94734
_cell_length_c     31.807249
_cell_angle_alpha  91.931688
_cell_angle_beta   93.687104
_cell_angle_gamma 68.918687
loop_
_atom_site_label
_atom_site_type_symbol
_atom_site_fract_x
_atom_site_fract_y
_atom_site_fract_z
_atom_type_partial_charge
Pr0 Pr 1.02726 1.04676 0.98214 0.0
Pr1 Pr 0.15805 0.06637 -0.00357 0.0
C2 C 0.87466 1.04771 0.98017 0.0
C3 C 0.79639 0.07736 0.96575 0.0
C4 C 0.77141 0.08143 0.92269 0.0
C5 C 0.6956 0.10835 0.9097 0.0
C6 C 0.64344 0.13112 0.93958 0.0
C7 C 0.67094 0.12951 0.98207 0.0
C8 C 0.74639 0.10251 -0.00485 0.0
C9 C 1.08602 0.05479 0.90415 0.0
C10 C 0.99502 0.14477 -0.00978 0.0
C11 C 0.3105 0.06536 -0.00393 0.0
C12 C 0.39006 1.03519 0.00749 0.0
C13 C 0.41982 1.02905 0.0498 0.0
C14 C 0.49699 1.00181 0.05988 0.0
C15 C 0.54572 0.98085 0.02782 0.0
C16 C 0.51348 0.98444 0.98605 0.0
C17 C 0.43672 1.01175 0.97588 0.0
C18 C 1.09873 0.05955 0.07449 0.0
C19 C 0.19003 0.9683 -0.01061 0.0
O20 O 0.91077 0.05644 0.01403 0.0
O21 O 0.92511 1.03021 0.9513 0.0
O22 O 1.07652 0.07862 0.93476 0.0
O23 O 1.06998 1.02475 0.91436 0.0
O24 O 1.07459 0.13371 -0.01208 0.0
O25 O 0.96433 0.11683 -0.00812 0.0
O26 O 0.27138 0.05835 0.96239 0.0
O27 O 0.26301 0.08111 0.02669 0.0
O28 O 0.10717 1.03543 0.04416 0.0
O29 O 0.11814 0.08866 0.06436 0.0
O30 O 0.1104 0.97947 -0.00851 0.0
O31 O 0.22085 0.99618 -0.01244 0.0
H32 H 0.80888 0.06288 0.89912 0.0
H33 H 0.67496 0.10899 0.87682 0.0
H34 H 0.6312 0.14683 0.00557 0.0
H35 H 0.76423 0.10041 0.02847 0.0
H36 H 0.38501 1.04627 0.07499 0.0
H37 H 0.52126 0.9996 0.09225 0.0
H38 H 0.55042 0.96843 0.9609 0.0
H39 H 0.41521 1.01545 0.94307 0.0
Pr40 Pr 0.16565 1.0144 0.48999 0.0
Pr41 Pr 1.08147 0.09227 0.48664 0.0
C42 C 0.22099 0.93798 0.50657 0.0
C43 C 0.1805 0.91103 0.51544 0.0
C44 C 0.20947 0.8732 0.49896 0.0
C45 C 0.16352 0.84952 0.50101 0.0
C46 C 1.08771 0.86367 0.51903 0.0
C47 C 1.06154 0.90069 0.53807 0.0
C48 C 0.10741 0.92427 0.53604 0.0
C49 C 0.15304 1.03931 0.40663 0.0
C50 C 0.95245 1.04617 0.48936 0.0
C51 C 1.02421 0.16859 0.46921 0.0
C52 C 1.06053 0.19614 0.45641 0.0
C53 C 1.04046 0.23225 0.47693 0.0
C54 C 1.08498 0.25591 0.47085 0.0
C55 C 0.15009 0.24359 0.44411 0.0
C56 C 0.16577 0.20891 0.42105 0.0
C57 C 0.12188 0.18507 0.42747 0.0
C58 C 1.10253 0.06676 0.57057 0.0
C59 C 0.29429 0.061 0.48815 0.0
O60 O 0.21787 0.9645 0.53531 0.0
O61 O 0.20677 0.95166 0.46843 0.0
O62 O 1.09402 1.0489 0.43068 0.0
O63 O 0.22036 1.01828 0.42613 0.0
O64 O 0.95502 0.08061 0.48148 0.0
O65 O 1.02433 1.01732 0.49607 0.0
O66 O 1.02221 0.14191 0.44165 0.0
O67 O 1.04598 0.15513 0.50723 0.0
O68 O 0.15749 0.05766 0.54438 0.0
O69 O 1.03329 0.0888 0.55343 0.0
O70 O 0.29156 1.02677 0.49722 0.0
O71 O 0.22248 0.08957 0.47991 0.0
H72 H 0.26575 0.86261 0.48289 0.0
H73 H 0.18521 0.82091 0.48656 0.0
H74 H 1.00477 0.91193 0.55358 0.0
H75 H 1.08413 0.95338 0.54918 0.0
H76 H 0.99306 0.24126 0.49922 0.0
H77 H 1.07054 0.28303 0.48826 0.0
H78 H 0.21563 0.19898 0.40024 0.0
H79 H 0.13868 0.1572 0.4114 0.0
Pr80 Pr 0.52633 0.54655 0.98225 0.0
Pr81 Pr 0.65753 0.5661 -0.00409 0.0
C82 C 0.3738 0.54758 0.9816 0.0
C83 C 0.29498 0.57734 0.96817 0.0
C84 C 0.26888 0.58248 0.92529 0.0
C85 C 0.19249 0.60943 0.91326 0.0
C86 C 0.14089 0.63115 0.94392 0.0
C87 C 0.16947 0.62854 0.98628 0.0
C88 C 0.24549 0.6015 -0.0016 0.0
C89 C 0.58513 0.55345 0.90399 0.0
C90 C 0.49474 0.64464 -0.01051 0.0
C91 C 0.81025 0.56463 -0.00456 0.0
C92 C 0.88926 0.53427 0.00734 0.0
C93 C 0.91748 0.52777 0.04984 0.0
C94 C 0.99407 0.50025 0.0604 0.0
C95 C 1.04376 0.47933 0.02865 0.0
C96 C 1.01294 0.48326 0.98663 0.0
C97 C 0.93677 0.51087 0.97597 0.0
C98 C 0.5991 0.55903 0.07419 0.0
C99 C 0.68915 0.46811 -0.01095 0.0
O100 O 0.41111 0.55596 0.01521 0.0
O101 O 0.42306 0.53046 0.9521 0.0
O102 O 0.57596 0.57768 0.93421 0.0
O103 O 0.56836 0.52373 0.91469 0.0
O104 O 0.57438 0.63348 0.98743 0.0
O105 O 0.46381 0.61677 -0.00891 0.0
O106 O 0.77119 0.55742 0.96185 0.0
O107 O 0.76258 0.58097 0.02581 0.0
O108 O 0.60736 0.53504 0.04379 0.0
O109 O 0.61821 0.58823 0.06405 0.0
O110 O 0.60963 0.4793 -0.00831 0.0
O111 O 0.71993 0.49596 0.98679 0.0
H112 H 0.30595 0.56472 0.90111 0.0
H113 H 0.17103 0.61086 0.88046 0.0
H114 H 0.13021 0.64508 0.01037 0.0
H115 H 0.26421 0.59857 0.0316 0.0
H116 H 0.88193 0.5449 0.07485 0.0
H117 H 1.01724 0.49778 0.09297 0.0
H118 H 1.05064 0.4673 0.96171 0.0
H119 H 0.91637 0.51483 0.94302 0.0
Pr120 Pr 0.67215 0.50733 0.48824 0.0
Pr121 Pr 0.58794 0.5852 0.48703 0.0
C122 C 0.72875 0.43068 0.50349 0.0
C123 C 0.69035 0.40332 0.51426 0.0
C124 C 0.70991 0.36778 0.49259 0.0
C125 C 0.66331 0.3447 0.49652 0.0
C126 C 0.59662 0.35704 0.52224 0.0
C127 C 0.58118 0.39109 0.5464 0.0
C128 C 0.62715 0.41435 0.54212 0.0
C129 C 0.65833 0.53425 0.4057 0.0
C130 C 0.45941 0.53843 0.48763 0.0
C131 C 0.52968 0.66188 0.47117 0.0
C132 C 0.5654 0.69081 0.46277 0.0
C133 C 0.52992 0.72874 0.47826 0.0
C134 C 0.56973 0.75503 0.47574 0.0
C135 C 0.64579 0.74349 0.45813 0.0
C136 C 0.67853 0.70617 0.44011 0.0
C137 C 0.6389 0.67992 0.44275 0.0
C138 C 0.60833 0.5583 0.57019 0.0
C139 C 0.80115 0.55392 0.48872 0.0
O140 O 0.72984 0.4567 0.53213 0.0
O141 O 0.70941 0.44496 0.46567 0.0
O142 O 0.59969 0.54312 0.42992 0.0
O143 O 0.726 0.51292 0.42468 0.0
O144 O 0.46179 0.5732 0.48131 0.0
O145 O 0.53133 0.50941 0.4933 0.0
O146 O 0.53575 0.63537 0.44207 0.0
O147 O 0.54503 0.64783 0.50912 0.0
O148 O 0.66363 0.5494 0.54413 0.0
O149 O 0.53933 0.58073 0.55319 0.0
O150 O 0.79855 0.51907 0.49443 0.0
O151 O 0.72928 0.58312 0.48325 0.0
H152 H 0.75859 0.35884 0.47104 0.0
H153 H 0.67758 0.31801 0.4783 0.0
H154 H 0.53013 0.40102 0.56645 0.0
H155 H 0.61058 0.44183 0.55899 0.0
H156 H 0.47311 0.73752 0.49377 0.0
H157 H 0.54301 0.78376 0.48944 0.0
H158 H 0.73561 0.6968 0.42488 0.0
H159 H 0.66704 0.65076 0.43038 0.0
H160 H 0.37232 0.69205 -0.00926 0.0
C161 C 0.43632 0.68777 -0.0101 0.0
H162 H 0.51867 0.71694 0.98694 0.0
H163 H 0.30914 0.88502 0.9211 0.0
H164 H 0.39967 0.85773 0.86509 0.0
H165 H 0.48718 0.7887 0.8647 0.0
H166 H 0.48445 0.74604 0.9201 0.0
C167 C 0.45501 0.72109 -0.01083 0.0
C168 C 0.39389 0.76439 -0.01128 0.0
C169 C 0.39534 0.7906 0.95674 0.0
C170 C 0.3446 0.83164 0.95731 0.0
C171 C 0.34719 0.85477 0.92333 0.0
C172 C 0.39856 0.83934 0.89066 0.0
C173 C 0.44785 0.80042 0.89042 0.0
C174 C 0.44609 0.77626 0.9227 0.0
H175 H 0.31251 0.92093 -0.01172 0.0
C176 C 0.24852 0.92517 -0.01088 0.0
H177 H 0.16628 0.89595 -0.00783 0.0
H178 H 0.37601 0.72791 0.05806 0.0
H179 H 0.28574 0.75523 0.11417 0.0
H180 H 0.19824 0.82427 0.11457 0.0
H181 H 0.20075 0.86691 0.0591 0.0
C182 C 0.22992 0.89183 -0.01007 0.0
C183 C 0.29113 0.84854 -0.00959 0.0
C184 C 0.28974 0.82233 0.02242 0.0
C185 C 0.34047 0.7813 0.02185 0.0
C186 C 0.33797 0.75817 0.05585 0.0
C187 C 0.28674 0.77361 0.08857 0.0
C188 C 0.23746 0.81254 0.08881 0.0
C189 C 0.23909 0.83669 0.05649 0.0
H190 H 0.81112 0.42071 0.98555 0.0
C191 C 0.74754 0.42501 -0.01154 0.0
H192 H 0.66549 0.39581 -0.00748 0.0
H193 H 0.84923 0.22558 0.92492 0.0
H194 H 0.7374 0.25096 0.87329 0.0
H195 H 0.6497 0.31996 0.87394 0.0
H196 H 0.67342 0.36449 0.92599 0.0
C197 C 0.72927 0.39172 -0.00898 0.0
C198 C 0.79014 0.34845 -0.01048 0.0
C199 C 0.77656 0.32118 0.95956 0.0
C200 C 0.82758 0.28019 0.95957 0.0
C201 C 0.81205 0.2559 0.92755 0.0
C202 C 0.74824 0.27022 0.89738 0.0
C203 C 0.69883 0.30912 0.89773 0.0
C204 C 0.71283 0.33437 0.92808 0.0
H205 H 0.87293 0.19208 -0.00614 0.0
C206 C 0.93649 0.18785 -0.00899 0.0
H207 H 1.0184 0.21714 0.98712 0.0
H208 H 0.83453 0.38731 0.05473 0.0
H209 H 0.94623 0.36192 0.10644 0.0
H210 H 1.03392 0.29291 0.10581 0.0
H211 H 1.01031 0.24839 0.05371 0.0
C212 C 0.95464 0.22118 -0.01141 0.0
C213 C 0.89369 0.26443 -0.00988 0.0
C214 C 0.90724 0.29171 0.0201 0.0
C215 C 0.85622 0.3327 0.02008 0.0
C216 C 0.87171 0.35699 0.05212 0.0
C217 C 0.93545 0.34266 0.08233 0.0
C218 C 0.98485 0.30376 0.08199 0.0
C219 C 0.97091 0.27852 0.05161 0.0
H220 H 0.24059 0.26179 0.41482 0.0
C221 C 0.20828 0.26378 0.4433 0.0
H222 H 0.20516 0.27838 0.50835 0.0
H223 H 0.58511 0.25087 0.47525 0.0
H224 H 0.6013 0.18285 0.46841 0.0
H225 H 0.48235 0.16274 0.46761 0.0
H226 H 0.34701 0.21023 0.47438 0.0
C227 C 0.2334 0.27769 0.47885 0.0
C228 C 0.30507 0.28949 0.47993 0.0
C229 C 0.38403 0.26096 0.47706 0.0
C230 C 0.45259 0.27245 0.47789 0.0
C231 C 0.53089 0.24362 0.47477 0.0
C232 C 0.54108 0.2045 0.47088 0.0
C233 C 0.47412 0.19318 0.47048 0.0
C234 C 0.39653 0.22086 0.47397 0.0
H235 H 0.50301 0.33936 0.54896 0.0
C236 C 0.53714 0.33745 0.52115 0.0
H237 H 0.54393 0.3232 0.45602 0.0
H238 H 0.16195 0.35087 0.48701 0.0
H239 H 0.14562 0.41902 0.49232 0.0
H240 H 0.26441 0.43911 0.49152 0.0
H241 H 0.40009 0.39138 0.48643 0.0
C242 C 0.5138 0.32388 0.48491 0.0
C243 C 0.44196 0.31217 0.48242 0.0
C244 C 0.36296 0.34072 0.48478 0.0
C245 C 0.29442 0.32924 0.48416 0.0
C246 C 0.21613 0.35811 0.48716 0.0
C247 C 0.20587 0.3973 0.49015 0.0
C248 C 0.27276 0.40862 0.48985 0.0
C249 C 0.35047 0.38084 0.48713 0.0
H250 H 1.06385 0.809 0.51111 0.0
C251 C 1.0352 0.84025 0.51519 0.0
H252 H 0.92344 0.88784 0.51168 0.0
H253 H 0.75345 0.79382 0.39577 0.0
H254 H 0.76211 0.84087 0.34677 0.0
H255 H 0.83587 0.88462 0.36748 0.0
H256 H 0.90062 0.88194 0.43749 0.0
C257 C 0.95379 0.85654 0.51157 0.0
C258 C 0.90387 0.83252 0.50069 0.0
C259 C 0.86444 0.83543 0.46002 0.0
C260 C 0.82158 0.8104 0.44814 0.0
C261 C 0.78532 0.81274 0.40679 0.0
C262 C 0.79023 0.83946 0.37824 0.0
C263 C 0.83173 0.86411 0.38991 0.0
C264 C 0.86862 0.86224 0.43024 0.0
H265 H 0.65846 0.80083 0.46589 0.0
C266 C 0.69188 0.76994 0.46167 0.0
H267 H 0.80847 0.72576 0.46518 0.0
H268 H 0.96515 0.82285 0.58265 0.0
H269 H 0.95596 0.77601 0.63181 0.0
H270 H 0.88321 0.73181 0.61088 0.0
H271 H 0.81898 0.73433 0.5408 0.0
C272 C 0.7734 0.75666 0.46532 0.0
C273 C 0.81751 0.78305 0.47724 0.0
C274 C 0.85563 0.78067 0.51817 0.0
C275 C 0.89833 0.80574 0.53007 0.0
C276 C 0.93373 0.80374 0.57159 0.0
C277 C 0.92842 0.77718 0.60024 0.0
C278 C 0.88741 0.75233 0.58847 0.0
C279 C 0.85103 0.75402 0.54805 0.0
H280 H 0.66172 0.93731 0.05336 0.0
C281 C 0.63475 0.96418 0.03607 0.0
H282 H 0.7474 0.97074 0.03005 0.0
H283 H 0.54234 0.0802 0.87419 0.0
H284 H 0.6254 1.02361 0.83503 0.0
H285 H 0.71953 0.9658 0.8723 0.0
H286 H 0.73059 0.96404 0.94894 0.0
C287 C 0.68199 0.98326 0.02412 0.0
C288 C 0.64539 1.02139 0.0024 0.0
C289 C 0.64158 1.02238 0.95786 0.0
C290 C 0.58874 0.05598 0.93643 0.0
C291 C 0.58305 0.0556 0.89187 0.0
C292 C 0.63002 1.02332 0.86912 0.0
C293 C 0.68295 0.99074 0.89011 0.0
C294 C 0.68862 0.99005 0.934 0.0
H295 H 0.52932 0.17446 0.91182 0.0
C296 C 0.55521 0.14729 0.92865 0.0
H297 H 0.44271 0.1395 0.93008 0.0
H298 H 0.6479 1.03097 0.08779 0.0
H299 H 0.56449 0.08748 0.12693 0.0
H300 H 0.46866 0.14485 0.08964 0.0
H301 H 0.45676 0.14634 0.01296 0.0
C302 C 0.50756 0.12753 0.93803 0.0
C303 C 0.54318 0.0893 0.95959 0.0
C304 C 0.54674 0.08824 0.00411 0.0
C305 C 0.60002 0.05478 0.02555 0.0
C306 C 0.6065 0.05539 0.0701 0.0
C307 C 0.55934 0.08763 0.09283 0.0
C308 C 0.50547 0.11995 0.07183 0.0
C309 C 0.49928 0.12049 0.02794 0.0
H310 H 0.36858 0.09792 0.4764 0.0
C311 C 0.3763 0.06874 0.48566 0.0
H312 H 0.46376 1.01399 0.50102 0.0
H313 H 0.80319 1.00241 0.43714 0.0
H314 H 0.77312 0.95161 0.39835 0.0
H315 H 0.6397 0.94504 0.40061 0.0
H316 H 0.53371 0.99005 0.4409 0.0
C317 C 0.45683 1.04338 0.49303 0.0
C318 C 0.54023 1.0506 0.48941 0.0
C319 C 0.60565 1.02396 0.4664 0.0
C320 C 0.68602 1.02717 0.46574 0.0
C321 C 0.74411 1.00074 0.44032 0.0
C322 C 0.72734 0.97146 0.41751 0.0
C323 C 0.65202 0.96785 0.41872 0.0
C324 C 0.59177 0.99379 0.44239 0.0
H325 H 0.87833 1.00916 0.50093 0.0
C326 C 0.8705 1.03846 0.49206 0.0
H327 H 0.78301 0.09343 0.47755 0.0
H328 H 0.44342 0.10502 0.54096 0.0
H329 H 0.47375 0.15579 0.58 0.0
H330 H 0.60754 0.16197 0.57802 0.0
H331 H 0.71325 0.11711 0.53756 0.0
C332 C 0.78993 0.06396 0.4852 0.0
C333 C 0.70649 0.05676 0.48881 0.0
C334 C 0.64113 0.08335 0.51189 0.0
C335 C 0.56074 0.08015 0.51254 0.0
C336 C 0.50268 0.10656 0.53802 0.0
C337 C 0.51963 0.13574 0.56098 0.0
C338 C 0.59509 0.13922 0.55988 0.0
C339 C 0.65517 0.11339 0.53606 0.0
H340 H 0.15898 0.43535 0.05441 0.0
C341 C 0.13258 0.46254 0.03767 0.0
H342 H 0.24551 0.46935 0.03355 0.0
H343 H 1.04104 0.58074 0.87859 0.0
H344 H 0.12483 0.52484 0.83875 0.0
H345 H 0.21963 0.46675 0.8753 0.0
H346 H 0.23049 0.464 0.95191 0.0
C347 C 0.18025 0.48189 0.02704 0.0
C348 C 0.14424 0.52038 0.00601 0.0
C349 C 0.14077 0.52203 0.96153 0.0
C350 C 1.08767 0.55582 0.94052 0.0
C351 C 1.08202 0.556 0.89597 0.0
C352 C 0.12941 0.52411 0.87283 0.0
C353 C 0.18271 0.49138 0.89342 0.0
C354 C 0.18827 0.49011 0.93728 0.0
H355 H 1.02591 0.67455 0.91708 0.0
C356 C 1.05243 0.64726 0.93363 0.0
H357 H 0.94031 0.63919 0.93563 0.0
H358 H 0.14605 0.52867 0.09152 0.0
H359 H 1.06231 0.58457 0.13138 0.0
H360 H 0.96666 0.64245 0.09484 0.0
H361 H 0.95514 0.64505 0.01822 0.0
C362 C 1.00534 0.62724 0.94309 0.0
C363 C 1.04173 0.58877 0.96411 0.0
C364 C 1.04528 0.58712 0.0086 0.0
C365 C 1.09859 0.55339 0.0296 0.0
C366 C 0.10473 0.55333 0.07415 0.0
C367 C 1.05738 0.58522 0.0973 0.0
C368 C 1.0036 0.61783 0.07672 0.0
C369 C 0.99764 0.61901 0.03285 0.0
H370 H 0.38556 0.49972 0.48892 0.0
C371 C 0.37764 0.53022 0.48804 0.0
H372 H 0.29044 0.58682 0.4856 0.0
H373 H 0.94694 0.58223 0.42505 0.0
H374 H 0.97422 0.62122 0.37295 0.0
H375 H 0.10827 0.62725 0.37173 0.0
H376 H 0.21699 0.59405 0.4223 0.0
C377 C 0.29718 0.55652 0.48731 0.0
C378 C 0.21362 0.54876 0.48681 0.0
C379 C 0.14659 0.56851 0.45757 0.0
C380 C 1.06612 0.56547 0.45863 0.0
C381 C 1.00623 0.58451 0.42711 0.0
C382 C 1.02144 0.60676 0.39659 0.0
C383 C 1.09704 0.61014 0.39589 0.0
C384 C 0.15892 0.59113 0.42553 0.0
H385 H 0.87566 0.59237 0.48797 0.0
C386 C 0.88321 0.56191 0.48854 0.0
H387 H 0.96989 0.50514 0.49036 0.0
H388 H 0.31379 0.50975 0.55146 0.0
H389 H 0.28717 0.47 0.60294 0.0
H390 H 0.15382 0.46312 0.60346 0.0
H391 H 1.04487 0.49654 0.55311 0.0
C392 C 0.96352 0.53542 0.48901 0.0
C393 C 1.04734 0.54294 0.48947 0.0
C394 C 0.11457 0.52294 0.51852 0.0
C395 C 0.19489 0.5262 0.51763 0.0
C396 C 0.25474 0.50721 0.54919 0.0
C397 C 0.23991 0.48452 0.57934 0.0
C398 C 0.16469 0.48067 0.57966 0.0
C399 C 1.10266 0.49982 0.55015 0.0
H400 H 0.20606 1.04032 0.34616 0.0
C401 C 0.14861 1.04541 0.36023 0.0
H402 H 1.0229 0.05889 0.34789 0.0
H403 H 0.98854 0.1357 0.16941 0.0
H404 H 0.9033 0.18893 0.21133 0.0
H405 H 0.90013 0.18274 0.28807 0.0
H406 H 0.98148 0.12312 0.32341 0.0
C407 C 1.08095 1.05358 0.33441 0.0
C408 C 1.083 0.05684 0.2871 0.0
C409 C 1.03589 0.09203 0.26657 0.0
C410 C 1.03942 0.09596 0.22217 0.0
C411 C 0.99004 0.13133 0.20296 0.0
C412 C 0.94041 0.16212 0.22663 0.0
C413 C 0.93849 0.15861 0.26983 0.0
C414 C 0.98546 0.12411 0.28971 0.0
H415 H 1.06846 1.0268 0.12425 0.0
C416 C 1.0872 1.05114 0.11884 0.0
H417 H 0.11944 0.09659 0.14615 0.0
H418 H 0.16757 0.98254 0.31296 0.0
H419 H 0.25802 0.93026 0.27197 0.0
H420 H 0.27761 0.93965 0.19764 0.0
H421 H 0.20496 1.00084 0.16344 0.0
C422 C 1.10197 0.07197 0.15219 0.0
C423 C 1.09149 0.06506 0.19779 0.0
C424 C 0.13823 1.02967 0.21827 0.0
C425 C 0.13157 1.02513 0.26232 0.0
C426 C 0.17401 0.98843 0.2806 0.0
C427 C 0.22561 0.958 0.25729 0.0
C428 C 0.23628 0.96322 0.21537 0.0
C429 C 0.19346 0.99853 0.19598 0.0
H430 H 1.08337 0.09471 0.85277 0.0
C431 C 1.09006 0.06505 0.85945 0.0
H432 H 1.10247 1.00996 0.83444 0.0
H433 H 0.95548 1.04404 0.65095 0.0
H434 H 0.86212 1.01988 0.6825 0.0
H435 H 0.86954 1.01013 0.75916 0.0
H436 H 0.97088 1.02403 0.80474 0.0
C437 C 1.09744 1.0393 0.82718 0.0
C438 C 1.08905 1.04965 0.78099 0.0
C439 C 1.02786 1.04247 0.75443 0.0
C440 C 1.02184 1.0493 0.71011 0.0
C441 C 0.96165 1.04045 0.68476 0.0
C442 C 0.90775 1.02637 0.70243 0.0
C443 C 0.91208 1.02077 0.74557 0.0
C444 C 0.97108 1.0287 0.77137 0.0
H445 H 0.17762 1.03712 0.6268 0.0
C446 C 0.11849 0.05777 0.61651 0.0
H447 H 1.0034 0.09449 0.63473 0.0
H448 H 0.22025 0.06209 0.82009 0.0
H449 H 0.30895 0.08956 0.78917 0.0
H450 H 0.28952 0.10771 0.71428 0.0
H451 H 0.18268 0.09751 0.6695 0.0
C452 C 1.06292 0.07445 0.64546 0.0
C453 C 1.07547 0.06439 0.69179 0.0
C454 C 0.13582 0.07227 0.7184 0.0
C455 C 0.14405 0.0639 0.76255 0.0
C456 C 0.20852 0.06962 0.78717 0.0
C457 C 0.26037 0.08513 0.76972 0.0
C458 C 0.24965 0.09519 0.72749 0.0
C459 C 0.18828 0.08893 0.70203 0.0
H460 H 0.71019 0.53703 0.34537 0.0
C461 C 0.65311 0.5414 0.3595 0.0
H462 H 0.52758 0.55412 0.3474 0.0
H463 H 0.48787 0.63389 0.17025 0.0
H464 H 0.40106 0.68592 0.21298 0.0
H465 H 0.39892 0.67843 0.28958 0.0
H466 H 0.48292 0.61872 0.32396 0.0
C467 C 0.58524 0.54956 0.33383 0.0
C468 C 0.58654 0.55363 0.2866 0.0
C469 C 0.53788 0.58889 0.26666 0.0
C470 C 0.54072 0.59359 0.22234 0.0
C471 C 0.48985 0.62898 0.20371 0.0
C472 C 0.43933 0.65908 0.22785 0.0
C473 C 0.438 0.65483 0.27097 0.0
C474 C 0.4865 0.62029 0.29029 0.0
H475 H 0.57055 0.52563 0.12382 0.0
C476 C 0.5883 0.55029 0.11851 0.0
H477 H 0.61921 0.59603 0.14611 0.0
H478 H 0.67395 0.47918 0.31116 0.0
H479 H 0.76576 0.42817 0.26935 0.0
H480 H 0.78413 0.43908 0.19526 0.0
H481 H 0.70888 0.50052 0.16212 0.0
C482 C 0.6028 0.57106 0.15197 0.0
C483 C 0.59356 0.5634 0.19749 0.0
C484 C 0.64185 0.52794 0.21738 0.0
C485 C 0.63592 0.52259 0.26132 0.0
C486 C 0.67983 0.48575 0.27894 0.0
C487 C 0.73221 0.45602 0.25515 0.0
C488 C 0.7422 0.46209 0.21337 0.0
C489 C 0.69789 0.49753 0.19459 0.0
H490 H 0.68235 0.52867 0.62678 0.0
C491 C 0.62386 0.54972 0.61622 0.0
H492 H 0.50967 0.58801 0.63386 0.0
H493 H 0.46826 0.52324 0.80528 0.0
H494 H 0.3656 0.51014 0.75992 0.0
H495 H 0.36062 0.51788 0.68299 0.0
H496 H 0.45774 0.53922 0.65095 0.0
C497 C 0.56845 0.56749 0.64492 0.0
C498 C 0.57976 0.5583 0.69144 0.0
C499 C 0.52392 0.54481 0.71007 0.0
C500 C 0.52846 0.53912 0.75456 0.0
C501 C 0.46955 0.52697 0.77178 0.0
C502 C 0.4098 0.51953 0.74611 0.0
C503 C 0.40685 0.524 0.70282 0.0
C504 C 0.4629 0.53647 0.68487 0.0
H505 H 0.58529 0.59209 0.85182 0.0
C506 C 0.59042 0.56277 0.85911 0.0
H507 H 0.60062 0.50755 0.83529 0.0
H508 H 0.69128 0.58854 0.66844 0.0
H509 H 0.79907 0.59794 0.71313 0.0
H510 H 0.81553 0.58172 0.78854 0.0
H511 H 0.72293 0.557 0.82004 0.0
C512 C 0.59722 0.53651 0.82741 0.0
C513 C 0.59032 0.54584 0.78101 0.0
C514 C 0.64746 0.55848 0.7623 0.0
C515 C 0.64081 0.56572 0.71792 0.0
C516 C 0.69551 0.58083 0.7012 0.0
C517 C 0.75747 0.58663 0.7266 0.0
C518 C 0.76654 0.57765 0.76911 0.0
C519 C 0.71248 0.56371 0.78689 0.0
loop_
_geom_bond_atom_site_label_1
_geom_bond_atom_site_label_2
_geom_bond_distance
_geom_bond_site_symmetry_2
_ccdc_geom_bond_type
Pr0 C2 2.880 . S
Pr0 O20 2.562 1_566 S
Pr0 O21 2.490 . S
Pr0 O22 2.695 1_655 S
Pr0 O23 2.512 . S
Pr0 O25 2.437 1_565 S
Pr0 O28 2.436 1_566 S
Pr0 O30 2.438 1_655 S
Pr1 C11 2.881 . S
Pr1 O22 2.436 1_544 S
Pr1 O24 2.438 1_455 S
Pr1 O26 2.562 1_544 S
Pr1 O27 2.490 . S
Pr1 O28 2.695 1_455 S
Pr1 O29 2.512 . S
Pr1 O31 2.437 1_545 S
C2 Pr0 2.880 . S
C2 C3 1.491 1_565 S
C2 O20 1.253 1_566 S
C2 O21 1.226 . S
C3 C2 1.491 1_545 S
C3 C4 1.392 . S
C3 C8 1.356 1_556 S
C4 C3 1.392 . S
C4 C5 1.368 . S
C4 H32 0.929 1_545 S
C5 C4 1.368 . S
C5 C6 1.386 . S
C5 H33 0.929 . S
C6 C5 1.386 . S
C6 C7 1.373 1_556 S
C7 C6 1.373 1_554 S
C7 C8 1.409 . S
C7 H34 0.931 . S
C8 C3 1.356 1_554 S
C8 C7 1.409 . S
C8 H35 0.930 . S
C9 O22 1.270 1_655 S
C9 O23 1.248 . S
C10 O24 1.267 1_556 S
C10 O25 1.278 . S
C11 Pr1 2.881 . S
C11 C12 1.490 1_545 S
C11 O26 1.251 1_544 S
C11 O27 1.228 . S
C12 C11 1.490 1_565 S
C12 C13 1.392 . S
C12 C17 1.356 1_554 S
C13 C12 1.392 . S
C13 C14 1.368 . S
C13 H36 0.929 1_565 S
C14 C13 1.368 . S
C14 C15 1.386 . S
C14 H37 0.929 . S
C15 C14 1.386 . S
C15 C16 1.373 1_554 S
C16 C15 1.373 1_556 S
C16 C17 1.409 . S
C16 H38 0.931 . S
C17 C12 1.356 1_556 S
C17 C16 1.409 . S
C17 H39 0.930 . S
C18 O28 1.270 1_455 S
C18 O29 1.248 . S
C19 O30 1.267 1_554 S
C19 O31 1.278 . S
O20 Pr0 2.562 1_544 S
O20 C2 1.253 1_544 S
O21 Pr0 2.490 . S
O21 C2 1.226 . S
O22 Pr0 2.695 1_455 S
O22 Pr1 2.436 1_566 S
O22 C9 1.270 1_455 S
O23 Pr0 2.512 . S
O23 C9 1.248 . S
O24 Pr1 2.438 1_655 S
O24 C10 1.267 1_554 S
O25 Pr0 2.437 1_545 S
O25 C10 1.278 . S
O26 Pr1 2.562 1_566 S
O26 C11 1.251 1_566 S
O27 Pr1 2.490 . S
O27 C11 1.228 . S
O28 Pr0 2.436 1_544 S
O28 Pr1 2.695 1_655 S
O28 C18 1.270 1_655 S
O29 Pr1 2.512 . S
O29 C18 1.248 . S
O30 Pr0 2.438 1_455 S
O30 C19 1.267 1_556 S
O31 Pr1 2.437 1_565 S
O31 C19 1.278 . S
H32 C4 0.929 1_565 S
H33 C5 0.929 . S
H34 C7 0.931 . S
H35 C8 0.930 . S
H36 C13 0.929 1_545 S
H37 C14 0.929 . S
H38 C16 0.931 . S
H39 C17 0.930 . S
Pr40 C42 2.880 1_455 S
Pr40 O60 2.562 1_455 S
Pr40 O61 2.490 1_455 S
Pr40 O62 2.695 1_565 S
Pr40 O63 2.512 . S
Pr40 O65 2.437 1_455 S
Pr40 O68 2.436 1_455 S
Pr40 O70 2.438 . S
Pr41 C51 2.880 1_655 S
Pr41 O62 2.436 1_655 S
Pr41 O64 2.438 . S
Pr41 O66 2.562 1_655 S
Pr41 O67 2.490 1_655 S
Pr41 O68 2.695 1_545 S
Pr41 O69 2.512 . S
Pr41 O71 2.437 1_655 S
C42 Pr40 2.880 1_655 S
C42 C43 1.491 . S
C42 O60 1.254 . S
C42 O61 1.225 . S
C43 C42 1.491 . S
C43 C44 1.392 . S
C43 C48 1.356 . S
C44 C43 1.392 . S
C44 C45 1.368 . S
C44 H72 0.929 . S
C45 C44 1.368 . S
C45 C46 1.386 . S
C45 H73 0.929 . S
C46 C45 1.386 . S
C46 C47 1.373 . S
C47 C46 1.373 . S
C47 C48 1.409 . S
C47 H74 0.931 . S
C48 C43 1.356 . S
C48 C47 1.409 . S
C48 H75 0.930 . S
C49 O62 1.270 1_565 S
C49 O63 1.248 . S
C50 O64 1.267 . S
C50 O65 1.278 1_545 S
C51 Pr41 2.880 1_455 S
C51 C52 1.491 . S
C51 O66 1.254 . S
C51 O67 1.225 . S
C52 C51 1.491 . S
C52 C53 1.392 . S
C52 C57 1.356 . S
C53 C52 1.392 . S
C53 C54 1.368 . S
C53 H76 0.929 . S
C54 C53 1.368 . S
C54 C55 1.386 . S
C54 H77 0.929 . S
C55 C54 1.386 . S
C55 C56 1.373 . S
C56 C55 1.373 . S
C56 C57 1.409 . S
C56 H78 0.931 . S
C57 C52 1.356 . S
C57 C56 1.409 . S
C57 H79 0.930 . S
C58 O68 1.270 1_545 S
C58 O69 1.248 . S
C59 O70 1.267 . S
C59 O71 1.278 1_565 S
O60 Pr40 2.562 1_655 S
O60 C42 1.254 . S
O61 Pr40 2.490 1_655 S
O61 C42 1.225 . S
O62 Pr40 2.695 1_545 S
O62 Pr41 2.436 1_455 S
O62 C49 1.270 1_545 S
O63 Pr40 2.512 . S
O63 C49 1.248 . S
O64 Pr41 2.438 . S
O64 C50 1.267 . S
O65 Pr40 2.437 1_655 S
O65 C50 1.278 1_565 S
O66 Pr41 2.562 1_455 S
O66 C51 1.254 . S
O67 Pr41 2.490 1_455 S
O67 C51 1.225 . S
O68 Pr40 2.436 1_655 S
O68 Pr41 2.695 1_565 S
O68 C58 1.270 1_565 S
O69 Pr41 2.512 . S
O69 C58 1.248 . S
O70 Pr40 2.438 . S
O70 C59 1.267 . S
O71 Pr41 2.437 1_455 S
O71 C59 1.278 1_545 S
H72 C44 0.929 . S
H73 C45 0.929 . S
H74 C47 0.931 . S
H75 C48 0.930 . S
H76 C53 0.929 . S
H77 C54 0.929 . S
H78 C56 0.931 . S
H79 C57 0.930 . S
Pr80 C82 2.880 . S
Pr80 O100 2.562 1_556 S
Pr80 O101 2.490 . S
Pr80 O102 2.695 . S
Pr80 O103 2.512 . S
Pr80 O105 2.437 . S
Pr80 O108 2.436 1_556 S
Pr80 O110 2.438 . S
Pr81 C91 2.880 . S
Pr81 O102 2.436 1_554 S
Pr81 O104 2.438 . S
Pr81 O106 2.562 1_554 S
Pr81 O107 2.490 . S
Pr81 O108 2.695 . S
Pr81 O109 2.512 . S
Pr81 O111 2.437 . S
C82 Pr80 2.880 . S
C82 C83 1.491 . S
C82 O100 1.254 1_556 S
C82 O101 1.225 . S
C83 C82 1.491 . S
C83 C84 1.392 . S
C83 C88 1.356 1_556 S
C84 C83 1.392 . S
C84 C85 1.368 . S
C84 H112 0.929 . S
C85 C84 1.368 . S
C85 C86 1.386 . S
C85 H113 0.929 . S
C86 C85 1.386 . S
C86 C87 1.373 1_556 S
C87 C86 1.373 1_554 S
C87 C88 1.409 . S
C87 H114 0.931 . S
C88 C83 1.356 1_554 S
C88 C87 1.409 . S
C88 H115 0.930 . S
C89 O102 1.270 . S
C89 O103 1.248 . S
C90 O104 1.267 1_556 S
C90 O105 1.278 . S
C91 Pr81 2.880 . S
C91 C92 1.491 . S
C91 O106 1.254 1_554 S
C91 O107 1.225 . S
C92 C91 1.491 . S
C92 C93 1.392 . S
C92 C97 1.356 1_554 S
C93 C92 1.392 . S
C93 C94 1.368 . S
C93 H116 0.929 . S
C94 C93 1.368 . S
C94 C95 1.386 . S
C94 H117 0.929 . S
C95 C94 1.386 . S
C95 C96 1.373 1_554 S
C96 C95 1.373 1_556 S
C96 C97 1.409 . S
C96 H118 0.931 . S
C97 C92 1.356 1_556 S
C97 C96 1.409 . S
C97 H119 0.930 . S
C98 O108 1.270 . S
C98 O109 1.248 . S
C99 O110 1.267 1_554 S
C99 O111 1.278 . S
O100 Pr80 2.562 1_554 S
O100 C82 1.254 1_554 S
O101 Pr80 2.490 . S
O101 C82 1.225 . S
O102 Pr80 2.695 . S
O102 Pr81 2.436 1_556 S
O102 C89 1.270 . S
O103 Pr80 2.512 . S
O103 C89 1.248 . S
O104 Pr81 2.438 . S
O104 C90 1.267 1_554 S
O105 Pr80 2.437 . S
O105 C90 1.278 . S
O106 Pr81 2.562 1_556 S
O106 C91 1.254 1_556 S
O107 Pr81 2.490 . S
O107 C91 1.225 . S
O108 Pr80 2.436 1_554 S
O108 Pr81 2.695 . S
O108 C98 1.270 . S
O109 Pr81 2.512 . S
O109 C98 1.248 . S
O110 Pr80 2.438 . S
O110 C99 1.267 1_556 S
O111 Pr81 2.437 . S
O111 C99 1.278 . S
H112 C84 0.929 . S
H113 C85 0.929 . S
H114 C87 0.931 . S
H115 C88 0.930 . S
H116 C93 0.929 . S
H117 C94 0.929 . S
H118 C96 0.931 . S
H119 C97 0.930 . S
Pr120 C122 2.880 . S
Pr120 O140 2.562 . S
Pr120 O141 2.490 . S
Pr120 O142 2.695 . S
Pr120 O143 2.512 . S
Pr120 O145 2.437 . S
Pr120 O148 2.436 . S
Pr120 O150 2.438 . S
Pr121 C131 2.880 . S
Pr121 O142 2.436 . S
Pr121 O144 2.438 . S
Pr121 O146 2.562 . S
Pr121 O147 2.490 . S
Pr121 O148 2.695 . S
Pr121 O149 2.512 . S
Pr121 O151 2.437 . S
C122 Pr120 2.880 . S
C122 C123 1.491 . S
C122 O140 1.254 . S
C122 O141 1.225 . S
C123 C122 1.491 . S
C123 C124 1.392 . S
C123 C128 1.356 . S
C124 C123 1.392 . S
C124 C125 1.368 . S
C124 H152 0.929 . S
C125 C124 1.368 . S
C125 C126 1.386 . S
C125 H153 0.929 . S
C126 C125 1.386 . S
C126 C127 1.373 . S
C127 C126 1.373 . S
C127 C128 1.409 . S
C127 H154 0.931 . S
C128 C123 1.356 . S
C128 C127 1.409 . S
C128 H155 0.930 . S
C129 O142 1.270 . S
C129 O143 1.248 . S
C130 O144 1.267 . S
C130 O145 1.278 . S
C131 Pr121 2.880 . S
C131 C132 1.491 . S
C131 O146 1.254 . S
C131 O147 1.225 . S
C132 C131 1.491 . S
C132 C133 1.392 . S
C132 C137 1.356 . S
C133 C132 1.392 . S
C133 C134 1.368 . S
C133 H156 0.929 . S
C134 C133 1.368 . S
C134 C135 1.386 . S
C134 H157 0.929 . S
C135 C134 1.386 . S
C135 C136 1.373 . S
C136 C135 1.373 . S
C136 C137 1.409 . S
C136 H158 0.931 . S
C137 C132 1.356 . S
C137 C136 1.409 . S
C137 H159 0.930 . S
C138 O148 1.270 . S
C138 O149 1.248 . S
C139 O150 1.267 . S
C139 O151 1.278 . S
O140 Pr120 2.562 . S
O140 C122 1.254 . S
O141 Pr120 2.490 . S
O141 C122 1.225 . S
O142 Pr120 2.695 . S
O142 Pr121 2.436 . S
O142 C129 1.270 . S
O143 Pr120 2.512 . S
O143 C129 1.248 . S
O144 Pr121 2.438 . S
O144 C130 1.267 . S
O145 Pr120 2.437 . S
O145 C130 1.278 . S
O146 Pr121 2.562 . S
O146 C131 1.254 . S
O147 Pr121 2.490 . S
O147 C131 1.225 . S
O148 Pr120 2.436 . S
O148 Pr121 2.695 . S
O148 C138 1.270 . S
O149 Pr121 2.512 . S
O149 C138 1.248 . S
O150 Pr120 2.438 . S
O150 C139 1.267 . S
O151 Pr121 2.437 . S
O151 C139 1.278 . S
H152 C124 0.929 . S
H153 C125 0.929 . S
H154 C127 0.931 . S
H155 C128 0.930 . S
H156 C133 0.929 . S
H157 C134 0.929 . S
H158 C136 0.931 . S
H159 C137 0.930 . S
H160 C161 0.951 . S
C161 H160 0.951 . S
C161 C167 1.265 1_554 S
H162 C167 0.950 . S
H163 C171 0.949 . S
H164 C172 0.950 . S
H165 C173 0.951 . S
H166 C174 0.951 . S
C167 C161 1.265 1_556 S
C167 H162 0.950 . S
C167 C168 1.480 . S
C168 C167 1.480 . S
C168 C169 1.416 . S
C168 C185 1.374 1_556 S
C169 C168 1.416 . S
C169 C170 1.438 . S
C169 C174 1.429 . S
C170 C169 1.438 . S
C170 C171 1.428 . S
C170 C183 1.394 1_556 S
C171 H163 0.949 . S
C171 C170 1.428 . S
C171 C172 1.345 . S
C172 H164 0.950 . S
C172 C171 1.345 . S
C172 C173 1.424 . S
C173 H165 0.951 . S
C173 C172 1.424 . S
C173 C174 1.347 . S
C174 H166 0.951 . S
C174 C169 1.429 . S
C174 C173 1.347 . S
H175 C176 0.951 . S
C176 H175 0.951 . S
C176 C182 1.265 1_556 S
H177 C182 0.950 . S
H178 C186 0.949 . S
H179 C187 0.950 . S
H180 C188 0.951 . S
H181 C189 0.951 . S
C182 C176 1.265 1_554 S
C182 H177 0.950 . S
C182 C183 1.478 . S
C183 C170 1.394 1_554 S
C183 C182 1.478 . S
C183 C184 1.397 . S
C184 C183 1.397 . S
C184 C185 1.438 . S
C184 C189 1.429 . S
C185 C168 1.374 1_554 S
C185 C184 1.438 . S
C185 C186 1.428 . S
C186 H178 0.949 . S
C186 C185 1.428 . S
C186 C187 1.345 . S
C187 H179 0.950 . S
C187 C186 1.345 . S
C187 C188 1.424 . S
C188 H180 0.951 . S
C188 C187 1.424 . S
C188 C189 1.347 . S
C189 H181 0.951 . S
C189 C184 1.429 . S
C189 C188 1.347 . S
H190 C191 0.950 1_554 S
C191 H190 0.950 1_556 S
C191 C197 1.265 . S
H192 C197 0.950 . S
H193 C201 0.949 . S
H194 C202 0.950 . S
H195 C203 0.951 . S
H196 C204 0.951 . S
C197 C191 1.265 . S
C197 H192 0.950 . S
C197 C198 1.478 . S
C198 C197 1.478 . S
C198 C199 1.397 . S
C198 C215 1.394 1_556 S
C199 C198 1.397 . S
C199 C200 1.438 . S
C199 C204 1.429 . S
C200 C199 1.438 . S
C200 C201 1.428 . S
C200 C213 1.394 1_556 S
C201 H193 0.949 . S
C201 C200 1.428 . S
C201 C202 1.345 . S
C202 H194 0.950 . S
C202 C201 1.345 . S
C202 C203 1.424 . S
C203 H195 0.951 . S
C203 C202 1.424 . S
C203 C204 1.347 . S
C204 H196 0.951 . S
C204 C199 1.429 . S
C204 C203 1.347 . S
H205 C206 0.950 1_556 S
C206 H205 0.950 1_554 S
C206 C212 1.266 . S
H207 C212 0.950 . S
H208 C216 0.949 . S
H209 C217 0.950 . S
H210 C218 0.951 . S
H211 C219 0.951 . S
C212 C206 1.266 . S
C212 H207 0.950 . S
C212 C213 1.478 . S
C213 C200 1.394 1_554 S
C213 C212 1.478 . S
C213 C214 1.397 . S
C214 C213 1.397 . S
C214 C215 1.438 . S
C214 C219 1.429 . S
C215 C198 1.394 1_554 S
C215 C214 1.438 . S
C215 C216 1.428 . S
C216 H208 0.949 . S
C216 C215 1.428 . S
C216 C217 1.345 . S
C217 H209 0.950 . S
C217 C216 1.345 . S
C217 C218 1.424 . S
C218 H210 0.951 . S
C218 C217 1.424 . S
C218 C219 1.347 . S
C219 H211 0.951 . S
C219 C214 1.429 . S
C219 C218 1.347 . S
H220 C221 0.951 . S
C221 H220 0.951 . S
C221 C227 1.265 . S
H222 C227 0.950 . S
H223 C231 0.949 . S
H224 C232 0.950 . S
H225 C233 0.951 . S
H226 C234 0.951 . S
C227 C221 1.265 . S
C227 H222 0.950 . S
C227 C228 1.478 . S
C228 C227 1.478 . S
C228 C229 1.397 . S
C228 C245 1.394 . S
C229 C228 1.397 . S
C229 C230 1.438 . S
C229 C234 1.429 . S
C230 C229 1.438 . S
C230 C231 1.428 . S
C230 C243 1.394 . S
C231 H223 0.949 . S
C231 C230 1.428 . S
C231 C232 1.345 . S
C232 H224 0.950 . S
C232 C231 1.345 . S
C232 C233 1.424 . S
C233 H225 0.951 . S
C233 C232 1.424 . S
C233 C234 1.347 . S
C234 H226 0.951 . S
C234 C229 1.429 . S
C234 C233 1.347 . S
H235 C236 0.951 . S
C236 H235 0.951 . S
C236 C242 1.265 . S
H237 C242 0.950 . S
H238 C246 0.949 . S
H239 C247 0.950 . S
H240 C248 0.951 . S
H241 C249 0.951 . S
C242 C236 1.265 . S
C242 H237 0.950 . S
C242 C243 1.478 . S
C243 C230 1.394 . S
C243 C242 1.478 . S
C243 C244 1.397 . S
C244 C243 1.397 . S
C244 C245 1.438 . S
C244 C249 1.429 . S
C245 C228 1.394 . S
C245 C244 1.438 . S
C245 C246 1.428 . S
C246 H238 0.949 . S
C246 C245 1.428 . S
C246 C247 1.345 . S
C247 H239 0.950 . S
C247 C246 1.345 . S
C247 C248 1.424 . S
C248 H240 0.951 . S
C248 C247 1.424 . S
C248 C249 1.347 . S
C249 H241 0.951 . S
C249 C244 1.429 . S
C249 C248 1.347 . S
H250 C251 0.951 . S
C251 H250 0.951 . S
C251 C257 1.265 . S
H252 C257 0.950 . S
H253 C261 0.949 . S
H254 C262 0.950 . S
H255 C263 0.951 . S
H256 C264 0.951 . S
C257 C251 1.265 . S
C257 H252 0.950 . S
C257 C258 1.478 . S
C258 C257 1.478 . S
C258 C259 1.397 . S
C258 C275 1.394 . S
C259 C258 1.397 . S
C259 C260 1.438 . S
C259 C264 1.429 . S
C260 C259 1.438 . S
C260 C261 1.428 . S
C260 C273 1.394 . S
C261 H253 0.949 . S
C261 C260 1.428 . S
C261 C262 1.345 . S
C262 H254 0.950 . S
C262 C261 1.345 . S
C262 C263 1.424 . S
C263 H255 0.951 . S
C263 C262 1.424 . S
C263 C264 1.347 . S
C264 H256 0.951 . S
C264 C259 1.429 . S
C264 C263 1.347 . S
H265 C266 0.951 . S
C266 H265 0.951 . S
C266 C272 1.265 . S
H267 C272 0.950 . S
H268 C276 0.949 . S
H269 C277 0.950 . S
H270 C278 0.951 . S
H271 C279 0.951 . S
C272 C266 1.265 . S
C272 H267 0.950 . S
C272 C273 1.478 . S
C273 C260 1.394 . S
C273 C272 1.478 . S
C273 C274 1.397 . S
C274 C273 1.397 . S
C274 C275 1.438 . S
C274 C279 1.429 . S
C275 C258 1.394 . S
C275 C274 1.438 . S
C275 C276 1.428 . S
C276 H268 0.949 . S
C276 C275 1.428 . S
C276 C277 1.345 . S
C277 H269 0.950 . S
C277 C276 1.345 . S
C277 C278 1.424 . S
C278 H270 0.951 . S
C278 C277 1.424 . S
C278 C279 1.347 . S
C279 H271 0.951 . S
C279 C274 1.429 . S
C279 C278 1.347 . S
H280 C281 0.951 . S
C281 H280 0.951 . S
C281 C287 1.264 . S
H282 C287 0.950 . S
H283 C291 0.949 . S
H284 C292 0.950 . S
H285 C293 0.951 . S
H286 C294 0.951 . S
C287 C281 1.264 . S
C287 H282 0.950 . S
C287 C288 1.478 . S
C288 C287 1.478 . S
C288 C289 1.386 1_554 S
C288 C305 1.404 . S
C289 C288 1.386 1_556 S
C289 C290 1.438 1_565 S
C289 C294 1.429 . S
C290 C289 1.438 1_545 S
C290 C291 1.428 . S
C290 C303 1.399 . S
C291 H283 0.949 . S
C291 C290 1.428 . S
C291 C292 1.345 1_545 S
C292 H284 0.950 . S
C292 C291 1.345 1_565 S
C292 C293 1.424 . S
C293 H285 0.951 . S
C293 C292 1.424 . S
C293 C294 1.347 . S
C294 H286 0.951 . S
C294 C289 1.429 . S
C294 C293 1.347 . S
H295 C296 0.951 1_554 S
C296 H295 0.951 1_556 S
C296 C302 1.264 . S
H297 C302 0.950 . S
H298 C306 0.949 . S
H299 C307 0.950 . S
H300 C308 0.951 . S
H301 C309 0.951 . S
C302 C296 1.264 . S
C302 H297 0.950 . S
C302 C303 1.478 . S
C303 C290 1.399 . S
C303 C302 1.478 . S
C303 C304 1.391 1_556 S
C304 C303 1.391 1_554 S
C304 C305 1.438 1_545 S
C304 C309 1.429 . S
C305 C288 1.404 . S
C305 C304 1.438 1_565 S
C305 C306 1.428 . S
C306 H298 0.949 . S
C306 C305 1.428 . S
C306 C307 1.345 1_565 S
C307 H299 0.950 . S
C307 C306 1.345 1_545 S
C307 C308 1.424 . S
C308 H300 0.951 . S
C308 C307 1.424 . S
C308 C309 1.347 . S
C309 H301 0.951 . S
C309 C304 1.429 . S
C309 C308 1.347 . S
H310 C311 0.951 . S
C311 H310 0.951 . S
C311 C317 1.265 1_545 S
H312 C317 0.950 . S
H313 C321 0.949 . S
H314 C322 0.950 . S
H315 C323 0.951 . S
H316 C324 0.951 . S
C317 C311 1.265 1_565 S
C317 H312 0.950 . S
C317 C318 1.478 . S
C318 C317 1.478 . S
C318 C319 1.397 . S
C318 C335 1.394 1_565 S
C319 C318 1.397 . S
C319 C320 1.438 . S
C319 C324 1.429 . S
C320 C319 1.438 . S
C320 C321 1.428 . S
C320 C333 1.394 1_565 S
C321 H313 0.949 . S
C321 C320 1.428 . S
C321 C322 1.345 . S
C322 H314 0.950 . S
C322 C321 1.345 . S
C322 C323 1.424 . S
C323 H315 0.951 . S
C323 C322 1.424 . S
C323 C324 1.347 . S
C324 H316 0.951 . S
C324 C319 1.429 . S
C324 C323 1.347 . S
H325 C326 0.951 . S
C326 H325 0.951 . S
C326 C332 1.265 1_565 S
H327 C332 0.950 . S
H328 C336 0.949 . S
H329 C337 0.950 . S
H330 C338 0.951 . S
H331 C339 0.951 . S
C332 C326 1.265 1_545 S
C332 H327 0.950 . S
C332 C333 1.478 . S
C333 C320 1.394 1_545 S
C333 C332 1.478 . S
C333 C334 1.397 . S
C334 C333 1.397 . S
C334 C335 1.438 . S
C334 C339 1.429 . S
C335 C318 1.394 1_545 S
C335 C334 1.438 . S
C335 C336 1.428 . S
C336 H328 0.949 . S
C336 C335 1.428 . S
C336 C337 1.345 . S
C337 H329 0.950 . S
C337 C336 1.345 . S
C337 C338 1.424 . S
C338 H330 0.951 . S
C338 C337 1.424 . S
C338 C339 1.347 . S
C339 H331 0.951 . S
C339 C334 1.429 . S
C339 C338 1.347 . S
H340 C341 0.951 . S
C341 H340 0.951 . S
C341 C347 1.265 1_554 S
H342 C347 0.949 . S
H343 C351 0.949 . S
H344 C352 0.950 . S
H345 C353 0.951 . S
H346 C354 0.951 1_655 S
C347 C341 1.265 1_556 S
C347 H342 0.949 . S
C347 C348 1.478 1_556 S
C348 C347 1.478 1_554 S
C348 C349 1.393 1_654 S
C348 C365 1.397 . S
C349 C348 1.393 1_456 S
C349 C350 1.438 . S
C349 C354 1.429 . S
C350 C349 1.438 . S
C350 C351 1.428 . S
C350 C363 1.393 . S
C351 H343 0.949 . S
C351 C350 1.428 . S
C351 C352 1.345 . S
C352 H344 0.950 . S
C352 C351 1.345 . S
C352 C353 1.424 . S
C353 H345 0.951 . S
C353 C352 1.424 . S
C353 C354 1.347 . S
C354 H346 0.951 1_455 S
C354 C349 1.429 . S
C354 C353 1.347 . S
H355 C356 0.951 . S
C356 H355 0.951 . S
C356 C362 1.262 1_556 S
H357 C362 0.950 . S
H358 C366 0.949 . S
H359 C367 0.950 . S
H360 C368 0.951 . S
H361 C369 0.951 1_455 S
C362 C356 1.262 1_554 S
C362 H357 0.950 . S
C362 C363 1.478 1_554 S
C363 C350 1.393 . S
C363 C362 1.478 1_556 S
C363 C364 1.398 1_456 S
C364 C363 1.398 1_654 S
C364 C365 1.438 . S
C364 C369 1.429 . S
C365 C348 1.397 . S
C365 C364 1.438 . S
C365 C366 1.428 . S
C366 H358 0.949 . S
C366 C365 1.428 . S
C366 C367 1.345 . S
C367 H359 0.950 . S
C367 C366 1.345 . S
C367 C368 1.424 . S
C368 H360 0.951 . S
C368 C367 1.424 . S
C368 C369 1.347 . S
C369 H361 0.951 1_655 S
C369 C364 1.429 . S
C369 C368 1.347 . S
H370 C371 0.951 . S
C371 H370 0.951 . S
C371 C377 1.265 . S
H372 C377 0.950 . S
H373 C381 0.949 . S
H374 C382 0.950 . S
H375 C383 0.959 . S
H376 C384 0.951 . S
C377 C371 1.265 . S
C377 H372 0.950 . S
C377 C378 1.478 . S
C378 C377 1.478 . S
C378 C379 1.397 . S
C378 C395 1.394 . S
C379 C378 1.397 . S
C379 C380 1.438 1_455 S
C379 C384 1.429 . S
C380 C379 1.438 1_655 S
C380 C381 1.428 . S
C380 C393 1.394 . S
C381 H373 0.949 . S
C381 C380 1.428 . S
C381 C382 1.345 . S
C382 H374 0.950 . S
C382 C381 1.345 . S
C382 C383 1.424 . S
C383 H375 0.959 . S
C383 C382 1.424 . S
C383 C384 1.347 1_655 S
C384 H376 0.951 . S
C384 C379 1.429 . S
C384 C383 1.347 1_455 S
H385 C386 0.951 . S
C386 H385 0.951 . S
C386 C392 1.265 . S
H387 C392 0.950 . S
H388 C396 0.949 . S
H389 C397 0.950 . S
H390 C398 0.951 . S
H391 C399 0.951 . S
C392 C386 1.265 . S
C392 H387 0.950 . S
C392 C393 1.478 . S
C393 C380 1.394 . S
C393 C392 1.478 . S
C393 C394 1.397 . S
C394 C393 1.397 . S
C394 C395 1.438 1_655 S
C394 C399 1.429 . S
C395 C378 1.394 . S
C395 C394 1.438 1_455 S
C395 C396 1.428 . S
C396 H388 0.949 . S
C396 C395 1.428 . S
C396 C397 1.345 . S
C397 H389 0.950 . S
C397 C396 1.345 . S
C397 C398 1.424 . S
C398 H390 0.951 . S
C398 C397 1.424 . S
C398 C399 1.347 1_455 S
C399 H391 0.951 . S
C399 C394 1.429 . S
C399 C398 1.347 1_655 S
H400 C401 0.951 1_565 S
C401 H400 0.951 1_545 S
C401 C407 1.265 1_455 S
H402 C407 0.950 . S
H403 C411 0.949 . S
H404 C412 0.950 . S
H405 C413 0.951 . S
H406 C414 0.951 . S
C407 C401 1.265 1_655 S
C407 H402 0.950 . S
C407 C408 1.478 . S
C408 C407 1.478 . S
C408 C409 1.397 . S
C408 C425 1.394 1_645 S
C409 C408 1.397 . S
C409 C410 1.438 . S
C409 C414 1.429 . S
C410 C409 1.438 . S
C410 C411 1.428 . S
C410 C423 1.379 1_645 S
C411 H403 0.949 . S
C411 C410 1.428 . S
C411 C412 1.345 . S
C412 H404 0.950 . S
C412 C411 1.345 . S
C412 C413 1.424 . S
C413 H405 0.951 . S
C413 C412 1.424 . S
C413 C414 1.347 . S
C414 H406 0.951 . S
C414 C409 1.429 . S
C414 C413 1.347 . S
H415 C416 0.951 . S
C416 H415 0.951 . S
C416 C422 1.265 1_645 S
H417 C422 0.950 . S
H418 C426 0.949 . S
H419 C427 0.950 . S
H420 C428 0.951 . S
H421 C429 0.951 . S
C422 C416 1.265 1_465 S
C422 H417 0.950 . S
C422 C423 1.478 . S
C423 C410 1.379 1_465 S
C423 C422 1.478 . S
C423 C424 1.412 . S
C424 C423 1.412 . S
C424 C425 1.438 . S
C424 C429 1.429 . S
C425 C408 1.394 1_465 S
C425 C424 1.438 . S
C425 C426 1.428 . S
C426 H418 0.949 . S
C426 C425 1.428 . S
C426 C427 1.345 . S
C427 H419 0.950 . S
C427 C426 1.345 . S
C427 C428 1.424 . S
C428 H420 0.951 . S
C428 C427 1.424 . S
C428 C429 1.347 . S
C429 H421 0.951 . S
C429 C424 1.429 . S
C429 C428 1.347 . S
H430 C431 0.951 1_545 S
C431 H430 0.951 1_565 S
C431 C437 1.265 1_655 S
H432 C437 0.950 . S
H433 C441 0.949 . S
H434 C442 0.950 . S
H435 C443 0.951 . S
H436 C444 0.951 . S
C437 C431 1.265 1_455 S
C437 H432 0.950 . S
C437 C438 1.478 . S
C438 C437 1.478 . S
C438 C439 1.397 . S
C438 C455 1.394 1_465 S
C439 C438 1.397 . S
C439 C440 1.438 . S
C439 C444 1.429 . S
C440 C439 1.438 . S
C440 C441 1.428 . S
C440 C453 1.394 1_465 S
C441 H433 0.949 . S
C441 C440 1.428 . S
C441 C442 1.345 . S
C442 H434 0.950 . S
C442 C441 1.345 . S
C442 C443 1.424 . S
C443 H435 0.951 . S
C443 C442 1.424 . S
C443 C444 1.347 . S
C444 H436 0.951 . S
C444 C439 1.429 . S
C444 C443 1.347 . S
H445 C446 0.951 . S
C446 H445 0.951 . S
C446 C452 1.265 1_465 S
H447 C452 0.950 . S
H448 C456 0.949 . S
H449 C457 0.950 . S
H450 C458 0.951 . S
H451 C459 0.951 . S
C452 C446 1.265 1_645 S
C452 H447 0.950 . S
C452 C453 1.478 . S
C453 C440 1.394 1_645 S
C453 C452 1.478 . S
C453 C454 1.397 . S
C454 C453 1.397 . S
C454 C455 1.438 . S
C454 C459 1.429 . S
C455 C438 1.394 1_645 S
C455 C454 1.438 . S
C455 C456 1.428 . S
C456 H448 0.949 . S
C456 C455 1.428 . S
C456 C457 1.345 . S
C457 H449 0.950 . S
C457 C456 1.345 . S
C457 C458 1.424 . S
C458 H450 0.951 . S
C458 C457 1.424 . S
C458 C459 1.347 . S
C459 H451 0.951 . S
C459 C454 1.429 . S
C459 C458 1.347 . S
H460 C461 0.951 . S
C461 H460 0.951 . S
C461 C467 1.265 . S
H462 C467 0.950 . S
H463 C471 0.949 . S
H464 C472 0.950 . S
H465 C473 0.951 . S
H466 C474 0.951 . S
C467 C461 1.265 . S
C467 H462 0.950 . S
C467 C468 1.478 . S
C468 C467 1.478 . S
C468 C469 1.397 . S
C468 C485 1.394 . S
C469 C468 1.397 . S
C469 C470 1.438 . S
C469 C474 1.429 . S
C470 C469 1.438 . S
C470 C471 1.428 . S
C470 C483 1.394 . S
C471 H463 0.949 . S
C471 C470 1.428 . S
C471 C472 1.345 . S
C472 H464 0.950 . S
C472 C471 1.345 . S
C472 C473 1.424 . S
C473 H465 0.951 . S
C473 C472 1.424 . S
C473 C474 1.347 . S
C474 H466 0.951 . S
C474 C469 1.429 . S
C474 C473 1.347 . S
H475 C476 0.951 . S
C476 H475 0.951 . S
C476 C482 1.265 . S
H477 C482 0.950 . S
H478 C486 0.949 . S
H479 C487 0.950 . S
H480 C488 0.951 . S
H481 C489 0.951 . S
C482 C476 1.265 . S
C482 H477 0.950 . S
C482 C483 1.478 . S
C483 C470 1.394 . S
C483 C482 1.478 . S
C483 C484 1.397 . S
C484 C483 1.397 . S
C484 C485 1.438 . S
C484 C489 1.429 . S
C485 C468 1.394 . S
C485 C484 1.438 . S
C485 C486 1.428 . S
C486 H478 0.949 . S
C486 C485 1.428 . S
C486 C487 1.345 . S
C487 H479 0.950 . S
C487 C486 1.345 . S
C487 C488 1.424 . S
C488 H480 0.951 . S
C488 C487 1.424 . S
C488 C489 1.347 . S
C489 H481 0.951 . S
C489 C484 1.429 . S
C489 C488 1.347 . S
H490 C491 0.951 . S
C491 H490 0.951 . S
C491 C497 1.265 . S
H492 C497 0.950 . S
H493 C501 0.949 . S
H494 C502 0.950 . S
H495 C503 0.951 . S
H496 C504 0.951 . S
C497 C491 1.265 . S
C497 H492 0.950 . S
C497 C498 1.478 . S
C498 C497 1.478 . S
C498 C499 1.397 . S
C498 C515 1.394 . S
C499 C498 1.397 . S
C499 C500 1.438 . S
C499 C504 1.429 . S
C500 C499 1.438 . S
C500 C501 1.428 . S
C500 C513 1.394 . S
C501 H493 0.949 . S
C501 C500 1.428 . S
C501 C502 1.345 . S
C502 H494 0.950 . S
C502 C501 1.345 . S
C502 C503 1.424 . S
C503 H495 0.951 . S
C503 C502 1.424 . S
C503 C504 1.347 . S
C504 H496 0.951 . S
C504 C499 1.429 . S
C504 C503 1.347 . S
H505 C506 0.951 . S
C506 H505 0.951 . S
C506 C512 1.265 . S
H507 C512 0.950 . S
H508 C516 0.949 . S
H509 C517 0.950 . S
H510 C518 0.951 . S
H511 C519 0.951 . S
C512 C506 1.265 . S
C512 H507 0.950 . S
C512 C513 1.478 . S
C513 C500 1.394 . S
C513 C512 1.478 . S
C513 C514 1.397 . S
C514 C513 1.397 . S
C514 C515 1.438 . S
C514 C519 1.429 . S
C515 C498 1.394 . S
C515 C514 1.438 . S
C515 C516 1.428 . S
C516 H508 0.949 . S
C516 C515 1.428 . S
C516 C517 1.345 . S
C517 H509 0.950 . S
C517 C516 1.345 . S
C517 C518 1.424 . S
C518 H510 0.951 . S
C518 C517 1.424 . S
C518 C519 1.347 . S
C519 H511 0.951 . S
C519 C514 1.429 . S
C519 C518 1.347 . S
C161 C90 3.566 1_554 S
C176 C19 3.566 1_556 S
C191 C99 3.565 1_556 S
C206 C10 3.565 1_554 S
C221 C55 0.296 . S
C236 C126 0.296 . S
C251 C46 0.290 . S
C266 C135 0.290 . S
C281 C15 0.855 . S
C296 C6 0.855 . S
C311 C59 4.859 1_545 S
C326 C50 4.859 1_565 S
C341 C95 0.856 . S
C356 C86 0.855 . S
C371 C130 4.858 . S
C386 C139 4.858 . S
C401 C49 1.429 1_545 S
C416 C18 1.477 1_655 S
C431 C9 1.409 . S
C446 C58 1.452 1_465 S
C461 C129 1.434 . S
C476 C98 1.477 . S
C491 C138 1.443 . S
C506 C89 1.407 . S
