# Generated by pormake.
# Topology ukd, (4)-cn, num edge types: 1
# Building blocks:
#     Node 0, Type 0, BuildingBlock: AZAVOO_clean_sbu_0, # of connection points: 4
#     Node 1, Type 0, BuildingBlock: AZAVOO_clean_sbu_0, # of connection points: 4
#     Node 2, Type 0, BuildingBlock: AZAVOO_clean_sbu_0, # of connection points: 4
#     Node 3, Type 0, BuildingBlock: AZAVOO_clean_sbu_0, # of connection points: 4
#     Node 4, Type 0, BuildingBlock: AZAVOO_clean_sbu_0, # of connection points: 4
#     Node 5, Type 0, BuildingBlock: AZAVOO_clean_sbu_0, # of connection points: 4
#     Node 6, Type 0, BuildingBlock: AZAVOO_clean_sbu_0, # of connection points: 4
#     Node 7, Type 0, BuildingBlock: AZAVOO_clean_sbu_0, # of connection points: 4
#     Node 8, Type 0, BuildingBlock: AZAVOO_clean_sbu_0, # of connection points: 4
#     Node 9, Type 0, BuildingBlock: AZAVOO_clean_sbu_0, # of connection points: 4
#     Node 10, Type 0, BuildingBlock: AZAVOO_clean_sbu_0, # of connection points: 4
#     Node 11, Type 0, BuildingBlock: AZAVOO_clean_sbu_0, # of connection points: 4
#     Node 12, Type 0, BuildingBlock: AZAVOO_clean_sbu_0, # of connection points: 4
#     Node 13, Type 0, BuildingBlock: AZAVOO_clean_sbu_0, # of connection points: 4
#     Node 14, Type 0, BuildingBlock: AZAVOO_clean_sbu_0, # of connection points: 4
#     Node 15, Type 0, BuildingBlock: AZAVOO_clean_sbu_0, # of connection points: 4
#     Node 16, Type 0, BuildingBlock: AZAVOO_clean_sbu_0, # of connection points: 4
#     Node 17, Type 0, BuildingBlock: AZAVOO_clean_sbu_0, # of connection points: 4
#     Node 18, Type 0, BuildingBlock: AZAVOO_clean_sbu_0, # of connection points: 4
#     Node 19, Type 0, BuildingBlock: AZAVOO_clean_sbu_0, # of connection points: 4
#     Node 20, Type 0, BuildingBlock: AZAVOO_clean_sbu_0, # of connection points: 4
#     Node 21, Type 0, BuildingBlock: AZAVOO_clean_sbu_0, # of connection points: 4
#     Node 22, Type 0, BuildingBlock: AZAVOO_clean_sbu_0, # of connection points: 4
#     Node 23, Type 0, BuildingBlock: AZAVOO_clean_sbu_0, # of connection points: 4
#     Node 24, Type 0, BuildingBlock: AZAVOO_clean_sbu_0, # of connection points: 4
#     Node 25, Type 0, BuildingBlock: AZAVOO_clean_sbu_0, # of connection points: 4
#     Node 26, Type 0, BuildingBlock: AZAVOO_clean_sbu_0, # of connection points: 4
#     Node 27, Type 0, BuildingBlock: AZAVOO_clean_sbu_0, # of connection points: 4
#     Node 28, Type 0, BuildingBlock: AZAVOO_clean_sbu_0, # of connection points: 4
#     Node 29, Type 0, BuildingBlock: AZAVOO_clean_sbu_0, # of connection points: 4
#     Node 30, Type 0, BuildingBlock: AZAVOO_clean_sbu_0, # of connection points: 4
#     Node 31, Type 0, BuildingBlock: AZAVOO_clean_sbu_0, # of connection points: 4
#     Edge 32, Type (0, 0), BuildingBlock: ZUJKAS_clean_linker_0, # of connection points: 2
#     Edge 33, Type (0, 0), BuildingBlock: ZUJKAS_clean_linker_0, # of connection points: 2
#     Edge 34, Type (0, 0), BuildingBlock: ZUJKAS_clean_linker_0, # of connection points: 2
#     Edge 35, Type (0, 0), BuildingBlock: ZUJKAS_clean_linker_0, # of connection points: 2
#     Edge 36, Type (0, 0), BuildingBlock: ZUJKAS_clean_linker_0, # of connection points: 2
#     Edge 37, Type (0, 0), BuildingBlock: ZUJKAS_clean_linker_0, # of connection points: 2
#     Edge 38, Type (0, 0), BuildingBlock: ZUJKAS_clean_linker_0, # of connection points: 2
#     Edge 39, Type (0, 0), BuildingBlock: ZUJKAS_clean_linker_0, # of connection points: 2
#     Edge 40, Type (0, 0), BuildingBlock: ZUJKAS_clean_linker_0, # of connection points: 2
#     Edge 41, Type (0, 0), BuildingBlock: ZUJKAS_clean_linker_0, # of connection points: 2
#     Edge 42, Type (0, 0), BuildingBlock: ZUJKAS_clean_linker_0, # of connection points: 2
#     Edge 43, Type (0, 0), BuildingBlock: ZUJKAS_clean_linker_0, # of connection points: 2
#     Edge 44, Type (0, 0), BuildingBlock: ZUJKAS_clean_linker_0, # of connection points: 2
#     Edge 45, Type (0, 0), BuildingBlock: ZUJKAS_clean_linker_0, # of connection points: 2
#     Edge 46, Type (0, 0), BuildingBlock: ZUJKAS_clean_linker_0, # of connection points: 2
#     Edge 47, Type (0, 0), BuildingBlock: ZUJKAS_clean_linker_0, # of connection points: 2
#     Edge 48, Type (0, 0), BuildingBlock: ZUJKAS_clean_linker_0, # of connection points: 2
#     Edge 49, Type (0, 0), BuildingBlock: ZUJKAS_clean_linker_0, # of connection points: 2
#     Edge 50, Type (0, 0), BuildingBlock: ZUJKAS_clean_linker_0, # of connection points: 2
#     Edge 51, Type (0, 0), BuildingBlock: ZUJKAS_clean_linker_0, # of connection points: 2
#     Edge 52, Type (0, 0), BuildingBlock: ZUJKAS_clean_linker_0, # of connection points: 2
#     Edge 53, Type (0, 0), BuildingBlock: ZUJKAS_clean_linker_0, # of connection points: 2
#     Edge 54, Type (0, 0), BuildingBlock: ZUJKAS_clean_linker_0, # of connection points: 2
#     Edge 55, Type (0, 0), BuildingBlock: ZUJKAS_clean_linker_0, # of connection points: 2
#     Edge 56, Type (0, 0), BuildingBlock: ZUJKAS_clean_linker_0, # of connection points: 2
#     Edge 57, Type (0, 0), BuildingBlock: ZUJKAS_clean_linker_0, # of connection points: 2
#     Edge 58, Type (0, 0), BuildingBlock: ZUJKAS_clean_linker_0, # of connection points: 2
#     Edge 59, Type (0, 0), BuildingBlock: ZUJKAS_clean_linker_0, # of connection points: 2
#     Edge 60, Type (0, 0), BuildingBlock: ZUJKAS_clean_linker_0, # of connection points: 2
#     Edge 61, Type (0, 0), BuildingBlock: ZUJKAS_clean_linker_0, # of connection points: 2
#     Edge 62, Type (0, 0), BuildingBlock: ZUJKAS_clean_linker_0, # of connection points: 2
#     Edge 63, Type (0, 0), BuildingBlock: ZUJKAS_clean_linker_0, # of connection points: 2
#     Edge 64, Type (0, 0), BuildingBlock: ZUJKAS_clean_linker_0, # of connection points: 2
#     Edge 65, Type (0, 0), BuildingBlock: ZUJKAS_clean_linker_0, # of connection points: 2
#     Edge 66, Type (0, 0), BuildingBlock: ZUJKAS_clean_linker_0, # of connection points: 2
#     Edge 67, Type (0, 0), BuildingBlock: ZUJKAS_clean_linker_0, # of connection points: 2
#     Edge 68, Type (0, 0), BuildingBlock: ZUJKAS_clean_linker_0, # of connection points: 2
#     Edge 69, Type (0, 0), BuildingBlock: ZUJKAS_clean_linker_0, # of connection points: 2
#     Edge 70, Type (0, 0), BuildingBlock: ZUJKAS_clean_linker_0, # of connection points: 2
#     Edge 71, Type (0, 0), BuildingBlock: ZUJKAS_clean_linker_0, # of connection points: 2
#     Edge 72, Type (0, 0), BuildingBlock: ZUJKAS_clean_linker_0, # of connection points: 2
#     Edge 73, Type (0, 0), BuildingBlock: ZUJKAS_clean_linker_0, # of connection points: 2
#     Edge 74, Type (0, 0), BuildingBlock: ZUJKAS_clean_linker_0, # of connection points: 2
#     Edge 75, Type (0, 0), BuildingBlock: ZUJKAS_clean_linker_0, # of connection points: 2
#     Edge 76, Type (0, 0), BuildingBlock: ZUJKAS_clean_linker_0, # of connection points: 2
#     Edge 77, Type (0, 0), BuildingBlock: ZUJKAS_clean_linker_0, # of connection points: 2
#     Edge 78, Type (0, 0), BuildingBlock: ZUJKAS_clean_linker_0, # of connection points: 2
#     Edge 79, Type (0, 0), BuildingBlock: ZUJKAS_clean_linker_0, # of connection points: 2
#     Edge 80, Type (0, 0), BuildingBlock: ZUJKAS_clean_linker_0, # of connection points: 2
#     Edge 81, Type (0, 0), BuildingBlock: ZUJKAS_clean_linker_0, # of connection points: 2
#     Edge 82, Type (0, 0), BuildingBlock: ZUJKAS_clean_linker_0, # of connection points: 2
#     Edge 83, Type (0, 0), BuildingBlock: ZUJKAS_clean_linker_0, # of connection points: 2
#     Edge 84, Type (0, 0), BuildingBlock: ZUJKAS_clean_linker_0, # of connection points: 2
#     Edge 85, Type (0, 0), BuildingBlock: ZUJKAS_clean_linker_0, # of connection points: 2
#     Edge 86, Type (0, 0), BuildingBlock: ZUJKAS_clean_linker_0, # of connection points: 2
#     Edge 87, Type (0, 0), BuildingBlock: ZUJKAS_clean_linker_0, # of connection points: 2
#     Edge 88, Type (0, 0), BuildingBlock: ZUJKAS_clean_linker_0, # of connection points: 2
#     Edge 89, Type (0, 0), BuildingBlock: ZUJKAS_clean_linker_0, # of connection points: 2
#     Edge 90, Type (0, 0), BuildingBlock: ZUJKAS_clean_linker_0, # of connection points: 2
#     Edge 91, Type (0, 0), BuildingBlock: ZUJKAS_clean_linker_0, # of connection points: 2
#     Edge 92, Type (0, 0), BuildingBlock: ZUJKAS_clean_linker_0, # of connection points: 2
#     Edge 93, Type (0, 0), BuildingBlock: ZUJKAS_clean_linker_0, # of connection points: 2
#     Edge 94, Type (0, 0), BuildingBlock: ZUJKAS_clean_linker_0, # of connection points: 2
#     Edge 95, Type (0, 0), BuildingBlock: ZUJKAS_clean_linker_0, # of connection points: 2
# Relax obj value: 0.163
# Max RMSD: 0.193
# Mean RMSD: 0.193
data_MOF--net-ukd--node1-AZAVOO_clean_sbu_0--edge1-ZUJKAS_clean_linker_0
_symmetry_space_group_name_H-M    P1
_symmetry_Int_Tables_number       1
_symmetry_cell_setting            triclinic
loop_
_symmetry_equiv_pos_as_xyz
'x, y, z'
_cell_length_a     53.335108
_cell_length_b     53.327752
_cell_length_c     102.78013
_cell_angle_alpha  90.003471
_cell_angle_beta   90.000553
_cell_angle_gamma 89.989925
loop_
_atom_site_label
_atom_site_type_symbol
_atom_site_fract_x
_atom_site_fract_y
_atom_site_fract_z
_atom_type_partial_charge
Mg0 Mg 0.25728 0.25836 0.35204 0.0
O1 O 0.22101 0.23553 0.3508 0.0
O2 O 0.18916 0.26124 0.34613 0.0
Mg3 Mg 0.20547 0.30061 0.34334 0.0
C4 C 0.19775 0.23941 0.34865 0.0
C5 C 0.29488 0.21983 0.36284 0.0
O6 O 0.29615 0.2383 0.37128 0.0
O7 O 0.25856 0.25934 0.32972 0.0
O8 O 0.22705 0.28595 0.32572 0.0
O9 O 0.24793 0.26758 0.37286 0.0
O10 O 0.2369 0.29073 0.356 0.0
C11 C 0.24483 0.27178 0.3218 0.0
C12 C 0.23564 0.28656 0.36828 0.0
O13 O 0.28017 0.22202 0.35316 0.0
Mg14 Mg 0.9908 0.9977 0.59727 0.0
O15 O 0.01579 0.96271 0.59625 0.0
O16 O 0.99208 0.93003 0.59038 0.0
Mg17 Mg 0.95207 0.94408 0.58721 0.0
C18 C 0.01322 0.93944 0.59358 0.0
C19 C 0.04054 0.02029 0.60854 0.0
O20 O 0.0368 0.00191 0.61683 0.0
O21 O 0.99125 0.99966 0.57495 0.0
O22 O 0.96653 0.96712 0.57006 0.0
O23 O 0.98044 0.98762 0.61785 0.0
O24 O 0.95956 0.97528 0.60046 0.0
C25 C 0.98006 0.98574 0.56663 0.0
C26 C 0.96271 0.97415 0.61284 0.0
O27 O 0.02535 0.02304 0.5991 0.0
Mg28 Mg 0.25558 0.74869 0.84788 0.0
O29 O 0.28751 0.77762 0.84702 0.0
O30 O 0.32216 0.75787 0.84024 0.0
Mg31 Mg 0.31287 0.71654 0.83683 0.0
C32 C 0.31074 0.7777 0.84394 0.0
C33 C 0.22727 0.79442 0.86006 0.0
O34 O 0.24542 0.7914 0.86856 0.0
O35 O 0.253 0.74994 0.82557 0.0
O36 O 0.28748 0.72852 0.82012 0.0
O37 O 0.2664 0.73779 0.8684 0.0
O38 O 0.282 0.72059 0.85063 0.0
C39 C 0.26746 0.7402 0.81702 0.0
C40 C 0.28234 0.72266 0.86307 0.0
O41 O 0.22643 0.78004 0.85019 0.0
Mg42 Mg 0.50367 0.0114 0.09907 0.0
O43 O 0.47411 0.04264 0.09816 0.0
O44 O 0.4928 0.07807 0.0917 0.0
Mg45 Mg 0.53441 0.06974 0.08841 0.0
C46 C 0.47331 0.06592 0.09522 0.0
C47 C 0.45773 0.984 0.11091 0.0
O48 O 0.46027 0.00322 0.11881 0.0
O49 O 0.50285 0.00906 0.07675 0.0
O50 O 0.52346 0.04418 0.07157 0.0
O51 O 0.51404 0.02211 0.11965 0.0
O52 O 0.53115 0.0384 0.10201 0.0
C53 C 0.51241 0.0239 0.06832 0.0
C54 C 0.52893 0.03842 0.11446 0.0
O55 O 0.4727 0.9819 0.10134 0.0
Mg56 Mg 0.25407 0.74248 0.15162 0.0
O57 O 0.21907 0.76744 0.15151 0.0
O58 O 0.18535 0.74396 0.15597 0.0
Mg59 Mg 0.19933 0.70449 0.16082 0.0
C60 C 0.19546 0.76494 0.15309 0.0
C61 C 0.27703 0.79078 0.1395 0.0
O62 O 0.25996 0.78495 0.13079 0.0
O63 O 0.25393 0.74455 0.1739 0.0
O64 O 0.2205 0.72066 0.17827 0.0
O65 O 0.2457 0.73058 0.13101 0.0
O66 O 0.23209 0.71082 0.14849 0.0
C67 C 0.23888 0.73425 0.18199 0.0
C68 C 0.23199 0.71307 0.13606 0.0
O69 O 0.27906 0.77722 0.14964 0.0
Mg70 Mg 0.50642 0.98559 0.40015 0.0
O71 O 0.47944 0.95207 0.40039 0.0
O72 O 0.50035 0.91833 0.40739 0.0
Mg73 Mg 0.54088 0.93002 0.41147 0.0
C74 C 0.48026 0.92883 0.40338 0.0
C75 C 0.4596 0.01158 0.38735 0.0
O76 O 0.46362 0.9938 0.37875 0.0
O77 O 0.50376 0.98794 0.42244 0.0
O78 O 0.52654 0.95445 0.42809 0.0
O79 O 0.51905 0.97483 0.37991 0.0
O80 O 0.53671 0.96158 0.39805 0.0
C81 C 0.5137 0.97382 0.43109 0.0
C82 C 0.53552 0.96074 0.38559 0.0
O83 O 0.47356 0.01276 0.39736 0.0
Mg84 Mg 0.26135 0.24778 0.64876 0.0
O85 O 0.29521 0.2212 0.64989 0.0
O86 O 0.32798 0.24301 0.65746 0.0
Mg87 Mg 0.3157 0.28368 0.66061 0.0
C88 C 0.31816 0.22258 0.65343 0.0
C89 C 0.21987 0.21512 0.63626 0.0
O90 O 0.22065 0.23463 0.62847 0.0
O91 O 0.25779 0.24614 0.67106 0.0
O92 O 0.29028 0.27006 0.67693 0.0
O93 O 0.2723 0.25925 0.6284 0.0
O94 O 0.28599 0.27758 0.6463 0.0
C95 C 0.27103 0.25697 0.67979 0.0
C96 C 0.28702 0.27539 0.63386 0.0
O97 O 0.23457 0.21453 0.64601 0.0
Mg98 Mg 0.99525 0.01259 0.89797 0.0
O99 O 0.02289 0.04556 0.89912 0.0
O100 O 0.00224 0.07921 0.90654 0.0
Mg101 Mg 0.96116 0.06839 0.90954 0.0
C102 C 0.02233 0.06858 0.90261 0.0
C103 C 0.02852 0.97135 0.88529 0.0
O104 O 0.01034 0.97348 0.87674 0.0
O105 O 0.99633 0.00924 0.92028 0.0
O106 O 0.97385 0.04285 0.92601 0.0
O107 O 0.98429 0.02378 0.87756 0.0
O108 O 0.96628 0.03813 0.89541 0.0
C109 C 0.98614 0.02312 0.92895 0.0
C110 C 0.96855 0.03899 0.88297 0.0
O111 O 0.02788 0.98492 0.89547 0.0
Mg112 Mg 0.76015 0.74295 0.64859 0.0
O113 O 0.79537 0.7675 0.64925 0.0
O114 O 0.82832 0.74365 0.65446 0.0
Mg115 Mg 0.81397 0.70362 0.65762 0.0
C116 C 0.81876 0.76487 0.65153 0.0
C117 C 0.73826 0.79283 0.63759 0.0
O118 O 0.75623 0.78831 0.62916 0.0
O119 O 0.7593 0.74293 0.67092 0.0
O120 O 0.79186 0.71778 0.6752 0.0
O121 O 0.76905 0.73275 0.62785 0.0
O122 O 0.78185 0.71139 0.64501 0.0
C123 C 0.77352 0.73136 0.67897 0.0
C124 C 0.78223 0.71457 0.63263 0.0
O125 O 0.73538 0.77796 0.64715 0.0
Mg126 Mg 0.00164 0.01855 0.39832 0.0
O127 O 0.9733 0.05097 0.3993 0.0
O128 O 0.99312 0.08467 0.40725 0.0
Mg129 Mg 0.03427 0.07452 0.41065 0.0
C130 C 0.97338 0.07389 0.40298 0.0
C131 C 0.97303 0.9739 0.38627 0.0
O132 O 0.99407 0.97406 0.37962 0.0
O133 O 0.99948 0.01465 0.42058 0.0
O134 O 0.02151 0.04823 0.4268 0.0
O135 O 0.01324 0.03028 0.37811 0.0
O136 O 0.03019 0.04464 0.39624 0.0
C137 C 0.00931 0.02829 0.42946 0.0
C138 C 0.02841 0.04572 0.38379 0.0
O139 O 0.96995 0.9902 0.39517 0.0
Mg140 Mg 0.75168 0.25563 0.14855 0.0
O141 O 0.71648 0.23101 0.14943 0.0
O142 O 0.68367 0.255 0.15476 0.0
Mg143 Mg 0.69812 0.29489 0.15814 0.0
C144 C 0.69312 0.23374 0.15178 0.0
C145 C 0.79577 0.22326 0.13944 0.0
O146 O 0.80018 0.24528 0.13417 0.0
O147 O 0.7532 0.25512 0.1709 0.0
O148 O 0.72068 0.28017 0.17541 0.0
O149 O 0.742 0.26617 0.12792 0.0
O150 O 0.7298 0.28726 0.14528 0.0
C151 C 0.73909 0.26654 0.17905 0.0
C152 C 0.7289 0.28422 0.1329 0.0
O153 O 0.77646 0.22071 0.14658 0.0
Mg154 Mg 0.49915 0.9961 0.90005 0.0
O155 O 0.52596 0.96233 0.89977 0.0
O156 O 0.50447 0.92834 0.90598 0.0
Mg157 Mg 0.46405 0.93998 0.91027 0.0
C158 C 0.52477 0.93888 0.90228 0.0
C159 C 0.5321 0.0377 0.88794 0.0
O160 O 0.51286 0.03691 0.87996 0.0
O161 O 0.50169 0.99675 0.92238 0.0
O162 O 0.47856 0.96311 0.92731 0.0
O163 O 0.48662 0.98774 0.87951 0.0
O164 O 0.4692 0.97181 0.89715 0.0
C165 C 0.49158 0.98209 0.93072 0.0
C166 C 0.47066 0.97245 0.88468 0.0
O167 O 0.53232 0.02308 0.89772 0.0
Mg168 Mg 0.75182 0.26284 0.84667 0.0
O169 O 0.78586 0.23653 0.84638 0.0
O170 O 0.81988 0.25857 0.84089 0.0
Mg171 Mg 0.80744 0.29885 0.83682 0.0
C172 C 0.80936 0.23799 0.84413 0.0
C173 C 0.7279 0.21468 0.85859 0.0
O174 O 0.74615 0.21893 0.86689 0.0
O175 O 0.75078 0.26127 0.82435 0.0
O176 O 0.78466 0.28425 0.81961 0.0
O177 O 0.76139 0.27418 0.86721 0.0
O178 O 0.77514 0.2935 0.84963 0.0
C179 C 0.76564 0.27137 0.81609 0.0
C180 C 0.77554 0.29122 0.86206 0.0
O181 O 0.7255 0.22912 0.84881 0.0
Mg182 Mg 0.49752 0.99706 0.59922 0.0
O183 O 0.52009 0.03364 0.59849 0.0
O184 O 0.4942 0.06507 0.59334 0.0
Mg185 Mg 0.45509 0.04848 0.59023 0.0
C186 C 0.516 0.05684 0.59622 0.0
C187 C 0.54821 0.97707 0.61027 0.0
O188 O 0.54251 0.99412 0.61901 0.0
O189 O 0.49737 0.99618 0.5769 0.0
O190 O 0.4705 0.02732 0.57261 0.0
O191 O 0.48719 0.00541 0.61998 0.0
O192 O 0.46485 0.01701 0.60292 0.0
C193 C 0.4851 0.00976 0.56885 0.0
C194 C 0.46831 0.01768 0.61528 0.0
O195 O 0.5338 0.97419 0.60052 0.0
Mg196 Mg 0.75446 0.74237 0.34961 0.0
O197 O 0.71777 0.76492 0.34928 0.0
O198 O 0.68634 0.73895 0.34422 0.0
Mg199 Mg 0.70294 0.69997 0.34078 0.0
C200 C 0.69453 0.76074 0.34715 0.0
C201 C 0.7992 0.77593 0.35603 0.0
O202 O 0.80671 0.75332 0.35929 0.0
O203 O 0.75474 0.74284 0.32729 0.0
O204 O 0.72356 0.71595 0.32314 0.0
O205 O 0.7467 0.73176 0.37036 0.0
O206 O 0.7346 0.70966 0.35332 0.0
C207 C 0.74093 0.73068 0.3193 0.0
C208 C 0.73416 0.71303 0.36569 0.0
O209 O 0.77744 0.7785 0.35113 0.0
Mg210 Mg 0.00428 0.98575 0.09665 0.0
O211 O 0.97766 0.95196 0.09793 0.0
O212 O 0.99787 0.91813 0.0905 0.0
Mg213 Mg 0.03752 0.92979 0.08482 0.0
C214 C 0.9783 0.92862 0.09513 0.0
C215 C 0.97556 0.03126 0.10784 0.0
O216 O 0.9982 0.03434 0.11263 0.0
O217 O 0.99846 0.98692 0.07448 0.0
O218 O 0.02056 0.95318 0.06851 0.0
O219 O 0.02005 0.97666 0.11647 0.0
O220 O 0.03509 0.96202 0.098 0.0
C221 C 0.00718 0.97227 0.06571 0.0
C222 C 0.03584 0.96226 0.11049 0.0
O223 O 0.97144 0.01252 0.10048 0.0
Mg224 Mg 0.74663 0.74834 0.84775 0.0
O225 O 0.71256 0.72194 0.84669 0.0
O226 O 0.67998 0.74405 0.83913 0.0
Mg227 Mg 0.69244 0.78465 0.83604 0.0
C228 C 0.68962 0.72353 0.84314 0.0
C229 C 0.79348 0.71914 0.85674 0.0
O230 O 0.79818 0.74207 0.86075 0.0
O231 O 0.74996 0.74659 0.82545 0.0
O232 O 0.7176 0.7708 0.81966 0.0
O233 O 0.73599 0.76005 0.86812 0.0
O234 O 0.72232 0.77833 0.8502 0.0
C235 C 0.7367 0.75752 0.81675 0.0
C236 C 0.72137 0.77628 0.86264 0.0
O237 O 0.77321 0.715 0.85059 0.0
Mg238 Mg 0.49597 0.48867 0.09834 0.0
O239 O 0.52187 0.45427 0.0982 0.0
O240 O 0.49989 0.42106 0.09142 0.0
Mg241 Mg 0.45982 0.43404 0.08726 0.0
C242 C 0.52032 0.431 0.09534 0.0
C243 C 0.54398 0.51228 0.11094 0.0
O244 O 0.53968 0.49399 0.11921 0.0
O245 O 0.49871 0.4906 0.07607 0.0
O246 O 0.47513 0.4576 0.07051 0.0
O247 O 0.48302 0.47884 0.11859 0.0
O248 O 0.46491 0.46571 0.10055 0.0
C249 C 0.48854 0.47655 0.06746 0.0
C250 C 0.46607 0.46518 0.11302 0.0
O251 O 0.5297 0.51468 0.1011 0.0
Mg252 Mg 0.74512 0.24781 0.34787 0.0
O253 O 0.78222 0.26963 0.34758 0.0
O254 O 0.81324 0.2431 0.3426 0.0
Mg255 Mg 0.79593 0.20442 0.33913 0.0
C256 C 0.8054 0.26503 0.3455 0.0
C257 C 0.70684 0.28509 0.35858 0.0
O258 O 0.70417 0.26512 0.36594 0.0
O259 O 0.74496 0.24828 0.32552 0.0
O260 O 0.77568 0.22079 0.32149 0.0
O261 O 0.75274 0.23703 0.36863 0.0
O262 O 0.76434 0.21464 0.35159 0.0
C263 C 0.75863 0.23582 0.31757 0.0
C264 C 0.76482 0.218 0.36396 0.0
O265 O 0.72293 0.28449 0.34944 0.0
Mg266 Mg 0.00609 0.50249 0.59808 0.0
O267 O 0.98216 0.53822 0.59762 0.0
O268 O 0.00653 0.57046 0.59182 0.0
Mg269 Mg 0.04616 0.55539 0.58841 0.0
C270 C 0.98526 0.56148 0.59511 0.0
C271 C 0.95778 0.47844 0.61016 0.0
O272 O 0.96436 0.49367 0.61961 0.0
O273 O 0.00529 0.50142 0.57574 0.0
O274 O 0.03082 0.53346 0.57107 0.0
O275 O 0.0172 0.51151 0.61869 0.0
O276 O 0.03814 0.52372 0.60129 0.0
C277 C 0.01672 0.51536 0.56751 0.0
C278 C 0.03534 0.52442 0.61369 0.0
O279 O 0.97071 0.47818 0.59975 0.0
Mg280 Mg 0.73808 0.2485 0.64772 0.0
O281 O 0.70287 0.27325 0.64788 0.0
O282 O 0.67038 0.25037 0.65482 0.0
Mg283 Mg 0.68467 0.21087 0.65924 0.0
C284 C 0.67968 0.27102 0.65078 0.0
C285 C 0.77349 0.28622 0.63369 0.0
O286 O 0.76955 0.26952 0.62452 0.0
O287 O 0.74022 0.25183 0.67001 0.0
O288 O 0.70781 0.22762 0.67573 0.0
O289 O 0.72787 0.23498 0.62759 0.0
O290 O 0.71592 0.21663 0.64577 0.0
C291 C 0.72636 0.24163 0.67869 0.0
C292 C 0.71479 0.21778 0.63332 0.0
O293 O 0.7629 0.28324 0.64468 0.0
Mg294 Mg 0.01056 0.48969 0.89993 0.0
O295 O 0.98436 0.4556 0.9007 0.0
O296 O 0.00636 0.42224 0.90727 0.0
Mg297 Mg 0.0466 0.43503 0.91114 0.0
C298 C 0.98585 0.43233 0.90357 0.0
C299 C 0.97959 0.53336 0.88877 0.0
O300 O 0.00121 0.53547 0.88273 0.0
O301 O 0.00868 0.49256 0.92222 0.0
O302 O 0.03204 0.4594 0.92775 0.0
O303 O 0.02227 0.47863 0.87965 0.0
O304 O 0.04132 0.4662 0.89757 0.0
C305 C 0.01902 0.47861 0.93082 0.0
C306 C 0.03925 0.46489 0.88514 0.0
O307 O 0.97687 0.51583 0.89704 0.0
Mg308 Mg 0.74892 0.75381 0.15064 0.0
O309 O 0.7859 0.73183 0.15089 0.0
O310 O 0.81708 0.75797 0.1561 0.0
Mg311 Mg 0.79987 0.79659 0.15992 0.0
C312 C 0.8091 0.73618 0.15302 0.0
C313 C 0.71154 0.71596 0.13928 0.0
O314 O 0.70957 0.73541 0.1315 0.0
O315 O 0.74842 0.75268 0.17296 0.0
O316 O 0.77935 0.77971 0.17735 0.0
O317 O 0.75698 0.76516 0.13 0.0
O318 O 0.76832 0.787 0.14728 0.0
C319 C 0.76211 0.76471 0.18106 0.0
C320 C 0.76904 0.78399 0.13489 0.0
O321 O 0.72675 0.71717 0.1488 0.0
Mg322 Mg 0.4944 0.51743 0.39881 0.0
O323 O 0.52307 0.54947 0.40011 0.0
O324 O 0.50344 0.58348 0.40779 0.0
Mg325 Mg 0.46202 0.57386 0.41076 0.0
C326 C 0.5232 0.57239 0.40376 0.0
C327 C 0.54131 0.49115 0.38671 0.0
O328 O 0.53939 0.51084 0.3791 0.0
O329 O 0.49562 0.51357 0.42108 0.0
O330 O 0.47364 0.54736 0.42707 0.0
O331 O 0.48356 0.52913 0.37846 0.0
O332 O 0.46626 0.54388 0.39642 0.0
C333 C 0.48549 0.52727 0.42985 0.0
C334 C 0.46835 0.54476 0.38397 0.0
O335 O 0.52582 0.4886 0.39604 0.0
Mg336 Mg 0.24955 0.24481 0.15298 0.0
O337 O 0.28455 0.27003 0.15301 0.0
O338 O 0.31706 0.24676 0.15966 0.0
Mg339 Mg 0.30349 0.20673 0.16343 0.0
C340 C 0.30777 0.26761 0.15586 0.0
C341 C 0.22567 0.29299 0.14086 0.0
O342 O 0.24341 0.28828 0.13233 0.0
O343 O 0.24863 0.24712 0.17532 0.0
O344 O 0.28061 0.22184 0.18039 0.0
O345 O 0.25772 0.23253 0.13239 0.0
O346 O 0.27263 0.21399 0.14996 0.0
C347 C 0.26234 0.2359 0.18372 0.0
C348 C 0.27245 0.21597 0.1375 0.0
O349 O 0.22367 0.27889 0.1508 0.0
Mg350 Mg 0.50405 0.50355 0.89943 0.0
O351 O 0.4788 0.53836 0.89928 0.0
O352 O 0.50164 0.57192 0.90464 0.0
Mg353 Mg 0.54156 0.5584 0.90886 0.0
C354 C 0.48083 0.56187 0.90138 0.0
C355 C 0.45534 0.48102 0.88757 0.0
O356 O 0.46029 0.49903 0.87924 0.0
O357 O 0.50225 0.50335 0.92171 0.0
O358 O 0.52631 0.53657 0.92629 0.0
O359 O 0.51602 0.51178 0.87886 0.0
O360 O 0.53548 0.52573 0.89636 0.0
C361 C 0.5128 0.51804 0.9299 0.0
C362 C 0.53353 0.52547 0.88392 0.0
O363 O 0.46958 0.47826 0.8974 0.0
Mg364 Mg 0.23907 0.75845 0.64885 0.0
O365 O 0.20491 0.73225 0.64867 0.0
O366 O 0.17129 0.75409 0.65505 0.0
Mg367 Mg 0.18372 0.79433 0.65919 0.0
C368 C 0.18153 0.7337 0.65128 0.0
C369 C 0.26381 0.71063 0.63665 0.0
O370 O 0.24578 0.71461 0.62819 0.0
O371 O 0.24003 0.756 0.67115 0.0
O372 O 0.20666 0.77942 0.67627 0.0
O373 O 0.22992 0.77077 0.62844 0.0
O374 O 0.21586 0.78923 0.64621 0.0
C375 C 0.22556 0.76616 0.67957 0.0
C376 C 0.21573 0.78761 0.63375 0.0
O377 O 0.26559 0.72498 0.6465 0.0
Mg378 Mg 0.99772 0.48584 0.39909 0.0
O379 O 0.02364 0.4515 0.39956 0.0
O380 O 0.00169 0.41838 0.4065 0.0
Mg381 Mg 0.96154 0.43139 0.41047 0.0
C382 C 0.02212 0.4283 0.40257 0.0
C383 C 0.03097 0.52651 0.3864 0.0
O384 O 0.01129 0.526 0.37871 0.0
O385 O 1.00032 0.48839 0.42139 0.0
O386 O 0.97677 0.45543 0.42703 0.0
O387 O 0.98502 0.47512 0.37888 0.0
O388 O 0.96669 0.46271 0.39699 0.0
C389 C 0.9901 0.47445 0.43004 0.0
C390 C 0.96805 0.46164 0.38454 0.0
O391 O 0.03156 0.51176 0.39613 0.0
Mg392 Mg 0.24404 0.76115 0.35037 0.0
O393 O 0.27941 0.73683 0.3494 0.0
O394 O 0.31218 0.76116 0.34447 0.0
Mg395 Mg 0.29743 0.80101 0.34129 0.0
C396 C 0.3028 0.73976 0.34721 0.0
C397 C 0.22253 0.71034 0.36088 0.0
O398 O 0.2408 0.71405 0.36923 0.0
O399 O 0.24294 0.76132 0.32806 0.0
O400 O 0.27545 0.78648 0.32375 0.0
O401 O 0.25341 0.77093 0.37112 0.0
O402 O 0.26565 0.79278 0.35403 0.0
C403 C 0.25715 0.77283 0.32 0.0
C404 C 0.26649 0.7892 0.36637 0.0
O405 O 0.21943 0.72599 0.35167 0.0
Mg406 Mg 0.99821 0.51273 0.09877 0.0
O407 O 0.02408 0.54707 0.09808 0.0
O408 O 0.00192 0.58021 0.09137 0.0
Mg409 Mg 0.96186 0.56703 0.08732 0.0
C410 C 0.02246 0.57031 0.09517 0.0
C411 C 0.0324 0.47352 0.11202 0.0
O412 O 0.01338 0.47509 0.1201 0.0
O413 O 1.00051 0.50979 0.07648 0.0
O414 O 0.97693 0.54272 0.07081 0.0
O415 O 0.98582 0.52385 0.11897 0.0
O416 O 0.96712 0.53587 0.10089 0.0
C417 C 0.99017 0.52362 0.06782 0.0
C418 C 0.96875 0.53723 0.11333 0.0
O419 O 0.0322 0.48697 0.1018 0.0
Mg420 Mg 0.25092 0.24132 0.84786 0.0
O421 O 0.21467 0.26443 0.84765 0.0
O422 O 0.18253 0.2392 0.84286 0.0
Mg423 Mg 0.1984 0.19985 0.83945 0.0
C424 C 0.1913 0.26081 0.84568 0.0
C425 C 0.2712 0.29189 0.85869 0.0
O426 O 0.25388 0.28647 0.86733 0.0
O427 O 0.25073 0.24138 0.82554 0.0
O428 O 0.21901 0.21501 0.82158 0.0
O429 O 0.24345 0.23094 0.86868 0.0
O430 O 0.23067 0.20892 0.85174 0.0
C431 C 0.23662 0.22936 0.81764 0.0
C432 C 0.23067 0.21229 0.86411 0.0
O433 O 0.27423 0.2773 0.84902 0.0
Mg434 Mg 0.50142 0.49997 0.59767 0.0
O435 O 0.47711 0.4646 0.59678 0.0
O436 O 0.5013 0.43185 0.59161 0.0
Mg437 Mg 0.54107 0.44664 0.58822 0.0
C438 C 0.47998 0.44123 0.59452 0.0
C439 C 0.46543 0.53897 0.60924 0.0
O440 O 0.4846 0.5393 0.61726 0.0
O441 O 0.50115 0.50142 0.57536 0.0
O442 O 0.52629 0.46897 0.57085 0.0
O443 O 0.51177 0.49038 0.61832 0.0
O444 O 0.53324 0.47841 0.60103 0.0
C445 C 0.51259 0.48733 0.56721 0.0
C446 C 0.53005 0.47752 0.6134 0.0
O447 O 0.46617 0.5243 0.59948 0.0
H448 H 0.0665 0.43956 0.39056 0.0
H449 H 0.10373 0.41314 0.38873 0.0
H450 H 0.06703 0.35522 0.41097 0.0
H451 H 0.0294 0.38122 0.41255 0.0
H452 H 0.13451 0.39335 0.40724 0.0
H453 H 0.08885 0.31694 0.37905 0.0
H454 H 0.07395 0.34684 0.38174 0.0
H455 H 0.07445 0.32366 0.39444 0.0
C456 C 0.06628 0.42118 0.39504 0.0
C457 C 0.04486 0.41242 0.40159 0.0
C458 C 0.08762 0.40612 0.39401 0.0
C459 C 0.08804 0.38206 0.39955 0.0
C460 C 0.06692 0.37347 0.40636 0.0
H461 H 0.20922 0.27094 0.38971 0.0
H462 H 0.17438 0.29338 0.40027 0.0
C463 C 0.04545 0.38842 0.40729 0.0
C464 C 0.1106 0.36605 0.39803 0.0
H465 H 0.13146 0.31159 0.38428 0.0
C466 C 0.1338 0.37537 0.40232 0.0
C467 C 0.10963 0.34251 0.39166 0.0
C468 C 0.08545 0.33193 0.38635 0.0
C469 C 0.15614 0.36217 0.40005 0.0
C470 C 0.15522 0.33911 0.39332 0.0
C471 C 0.13198 0.3292 0.38955 0.0
C472 C 0.17819 0.32675 0.38846 0.0
C473 C 0.18066 0.37322 0.40457 0.0
C474 C 0.19187 0.33824 0.37847 0.0
C475 C 0.21139 0.32546 0.37238 0.0
C476 C 0.21774 0.30101 0.37623 0.0
C477 C 0.20485 0.28989 0.38666 0.0
C478 C 0.18495 0.30261 0.39265 0.0
H479 H 0.17782 0.38727 0.41242 0.0
H480 H 0.19347 0.35832 0.40816 0.0
H481 H 0.18992 0.38274 0.39626 0.0
H482 H 0.18668 0.3567 0.37498 0.0
H483 H 0.22101 0.33443 0.36435 0.0
H484 H 0.97415 0.95454 0.63689 0.0
H485 H 0.9527 0.91955 0.64789 0.0
H486 H 0.89828 0.91674 0.61692 0.0
H487 H 0.91924 0.95148 0.60599 0.0
H488 H 0.89046 0.91378 0.65243 0.0
H489 H 0.942 0.84538 0.62145 0.0
H490 H 0.95504 0.87545 0.62594 0.0
H491 H 0.93102 0.8737 0.61377 0.0
C492 C 0.95736 0.94672 0.63257 0.0
C493 C 0.94853 0.95551 0.62051 0.0
C494 C 0.9452 0.92678 0.63884 0.0
C495 C 0.9241 0.91559 0.63311 0.0
C496 C 0.91463 0.92513 0.62142 0.0
H497 H 0.8059 0.81265 0.64442 0.0
H498 H 0.83338 0.84895 0.64229 0.0
C499 C 0.92671 0.9449 0.61518 0.0
C500 C 0.91254 0.89287 0.63868 0.0
H501 H 0.90622 0.83034 0.63266 0.0
C502 C 0.89417 0.89541 0.64833 0.0
C503 C 0.91763 0.86903 0.63333 0.0
C504 C 0.9376 0.8655 0.62309 0.0
C505 C 0.87981 0.87472 0.65234 0.0
C506 C 0.88373 0.85114 0.64633 0.0
C507 C 0.90312 0.84843 0.6372 0.0
C508 C 0.86686 0.82948 0.6486 0.0
C509 C 0.86034 0.87839 0.66281 0.0
C510 C 0.87664 0.80628 0.65256 0.0
C511 C 0.86101 0.78533 0.65364 0.0
C512 C 0.8353 0.78717 0.6507 0.0
C513 C 0.82556 0.81053 0.64682 0.0
C514 C 0.84121 0.83141 0.64572 0.0
H515 H 0.86523 0.8944 0.66924 0.0
H516 H 0.84201 0.88263 0.6582 0.0
H517 H 0.85819 0.86128 0.66886 0.0
H518 H 0.89644 0.80432 0.6547 0.0
H519 H 0.86916 0.76767 0.65667 0.0
H520 H 0.47823 0.61313 0.90263 0.0
H521 H 0.44135 0.63959 0.89963 0.0
H522 H 0.39546 0.57379 0.89432 0.0
H523 H 0.43235 0.54713 0.89701 0.0
H524 H 0.38792 0.60738 0.87549 0.0
H525 H 0.3826 0.65576 0.92302 0.0
H526 H 0.41298 0.65872 0.9157 0.0
H527 H 0.40172 0.62824 0.92045 0.0
C528 C 0.46028 0.60423 0.90094 0.0
C529 C 0.45831 0.57797 0.90004 0.0
C530 C 0.43913 0.61941 0.89937 0.0
C531 C 0.41554 0.60867 0.89702 0.0
C532 C 0.41345 0.58248 0.89624 0.0
H533 H 0.27606 0.69522 0.88532 0.0
H534 H 0.30721 0.66696 0.89532 0.0
C535 C 0.4346 0.56727 0.89774 0.0
C536 C 0.39356 0.62482 0.89417 0.0
H537 H 0.36 0.67508 0.9053 0.0
C538 C 0.38159 0.62191 0.88211 0.0
C539 C 0.38508 0.64361 0.90286 0.0
C540 C 0.3961 0.64662 0.91629 0.0
C541 C 0.36222 0.63799 0.87825 0.0
C542 C 0.35489 0.65779 0.88657 0.0
C543 C 0.36592 0.66004 0.89889 0.0
C544 C 0.33705 0.67717 0.88208 0.0
C545 C 0.35006 0.634 0.86515 0.0
C546 C 0.34394 0.69291 0.87177 0.0
C547 C 0.32635 0.70881 0.8661 0.0
C548 C 0.30157 0.70936 0.87067 0.0
C549 C 0.29508 0.69502 0.88163 0.0
C550 C 0.31277 0.6789 0.8873 0.0
H551 H 0.35308 0.61462 0.8615 0.0
H552 H 0.32958 0.63768 0.86563 0.0
H553 H 0.35838 0.64721 0.858 0.0
H554 H 0.36275 0.6922 0.86779 0.0
H555 H 0.33204 0.72028 0.85795 0.0
H556 H 0.53141 0.08827 0.10967 0.0
H557 H 0.55966 0.11858 0.11972 0.0
H558 H 0.58434 0.06231 0.14699 0.0
H559 H 0.55596 0.03156 0.13676 0.0
H560 H 0.57627 0.1164 0.15688 0.0
H561 H 0.63772 0.10612 0.11358 0.0
H562 H 0.6052 0.11162 0.10996 0.0
H563 H 0.61436 0.0831 0.11796 0.0
C564 C 0.54277 0.08235 0.11782 0.0
C565 C 0.54208 0.05748 0.12224 0.0
C566 C 0.55873 0.09972 0.12362 0.0
C567 C 0.57435 0.09249 0.13391 0.0
C568 C 0.57245 0.06813 0.139 0.0
H569 H 0.70657 0.18454 0.14865 0.0
H570 H 0.67893 0.14827 0.14647 0.0
C571 C 0.55626 0.05067 0.1332 0.0
C572 C 0.59406 0.10993 0.13839 0.0
H573 H 0.64579 0.14091 0.1274 0.0
C574 C 0.5917 0.12158 0.15056 0.0
C575 C 0.61432 0.11629 0.13017 0.0
C576 C 0.61828 0.1035 0.11723 0.0
C577 C 0.60856 0.14041 0.15446 0.0
C578 C 0.62791 0.1479 0.14585 0.0
C579 C 0.63087 0.13532 0.13396 0.0
C580 C 0.64459 0.16952 0.14857 0.0
C581 C 0.60542 0.15215 0.1677 0.0
C582 C 0.63449 0.19355 0.15045 0.0
C583 C 0.65023 0.21434 0.15172 0.0
C584 C 0.67643 0.21157 0.15097 0.0
C585 C 0.6865 0.18741 0.14922 0.0
C586 C 0.67073 0.16662 0.14802 0.0
H587 H 0.59564 0.13926 0.17451 0.0
H588 H 0.6238 0.15741 0.17197 0.0
H589 H 0.59386 0.16936 0.16678 0.0
H590 H 0.61438 0.19636 0.15053 0.0
H591 H 0.64181 0.23267 0.15299 0.0
H592 H 0.20989 0.66949 0.1431 0.0
H593 H 0.17573 0.6477 0.13215 0.0
H594 H 0.17877 0.70094 0.10063 0.0
H595 H 0.21322 0.72322 0.11166 0.0
H596 H 0.12848 0.67869 0.1244 0.0
H597 H 0.1757 0.62371 0.0853 0.0
H598 H 0.19193 0.63147 0.10019 0.0
H599 H 0.18506 0.65562 0.08862 0.0
C600 C 0.20353 0.67648 0.13377 0.0
C601 C 0.21403 0.69823 0.1283 0.0
C602 C 0.18407 0.66394 0.12752 0.0
C603 C 0.17478 0.67279 0.11564 0.0
C604 C 0.18587 0.69383 0.10979 0.0
H605 H 0.02681 0.6205 0.08981 0.0
H606 H 0.0636 0.6472 0.09286 0.0
C607 C 0.20551 0.70646 0.11607 0.0
C608 C 0.1521 0.66096 0.11016 0.0
H609 H 0.13267 0.61596 0.08882 0.0
C610 C 0.12921 0.6653 0.11646 0.0
C611 C 0.15339 0.64339 0.09992 0.0
C612 C 0.17778 0.63808 0.09305 0.0
C613 C 0.1076 0.65182 0.1131 0.0
C614 C 0.10895 0.63375 0.10305 0.0
C615 C 0.13172 0.62993 0.09647 0.0
C616 C 0.08735 0.61734 0.09999 0.0
C617 C 0.08384 0.65611 0.12077 0.0
C618 C 0.08878 0.59159 0.10265 0.0
C619 C 0.06782 0.57624 0.10091 0.0
C620 C 0.04503 0.58636 0.09643 0.0
C621 C 0.04396 0.61209 0.09338 0.0
C622 C 0.06495 0.62741 0.09512 0.0
H623 H 0.08726 0.66721 0.12974 0.0
H624 H 0.07021 0.66652 0.11466 0.0
H625 H 0.07515 0.63796 0.12355 0.0
H626 H 0.10593 0.58348 0.10643 0.0
H627 H 0.06941 0.55651 0.10329 0.0
H628 H 0.57714 0.9374 0.39447 0.0
H629 H 0.60092 0.90403 0.38408 0.0
H630 H 0.5534 0.90876 0.35022 0.0
H631 H 0.52913 0.94255 0.36069 0.0
H632 H 0.57659 0.85736 0.37528 0.0
H633 H 0.62918 0.90874 0.33672 0.0
H634 H 0.6173 0.92451 0.35101 0.0
H635 H 0.59603 0.91433 0.33859 0.0
C636 C 0.57172 0.93149 0.38479 0.0
C637 C 0.55106 0.94238 0.37845 0.0
C638 C 0.5854 0.91246 0.37885 0.0
C639 C 0.57887 0.90395 0.36643 0.0
C640 C 0.55879 0.91526 0.35981 0.0
H641 H 0.64407 0.76006 0.34205 0.0
H642 H 0.61409 0.79435 0.34469 0.0
C643 C 0.54498 0.93449 0.36578 0.0
C644 C 0.59247 0.88219 0.36099 0.0
H645 H 0.63918 0.86616 0.33987 0.0
C646 C 0.58998 0.85908 0.36738 0.0
C647 C 0.61001 0.88474 0.35079 0.0
C648 C 0.61352 0.90938 0.34384 0.0
C649 C 0.60531 0.83863 0.36419 0.0
C650 C 0.62334 0.84131 0.3542 0.0
C651 C 0.62525 0.86419 0.34749 0.0
C652 C 0.64166 0.82118 0.35135 0.0
C653 C 0.60298 0.81479 0.37203 0.0
C654 C 0.66721 0.82514 0.35385 0.0
C655 C 0.68445 0.80564 0.35231 0.0
C656 C 0.67644 0.78176 0.34822 0.0
C657 C 0.65089 0.77811 0.34534 0.0
C658 C 0.63369 0.79767 0.34685 0.0
H659 H 0.59171 0.81755 0.38101 0.0
H660 H 0.59359 0.80024 0.36604 0.0
H661 H 0.62176 0.8076 0.37482 0.0
H662 H 0.67373 0.84318 0.35734 0.0
H663 H 0.70397 0.80919 0.35455 0.0
H664 H 0.33588 0.28262 0.64001 0.0
H665 H 0.36529 0.3115 0.62979 0.0
H666 H 0.31048 0.32893 0.6003 0.0
H667 H 0.28057 0.2999 0.61071 0.0
H668 H 0.36403 0.3227 0.5916 0.0
H669 H 0.35106 0.38894 0.63267 0.0
H670 H 0.35794 0.35738 0.63762 0.0
H671 H 0.32918 0.36399 0.62917 0.0
C672 C 0.32999 0.29267 0.63141 0.0
C673 C 0.30573 0.28968 0.62638 0.0
C674 C 0.34689 0.30899 0.62551 0.0
C675 C 0.33981 0.32271 0.61449 0.0
C676 C 0.31615 0.3186 0.60889 0.0
H677 H 0.43063 0.45456 0.59693 0.0
H678 H 0.39449 0.42687 0.59946 0.0
C679 C 0.29917 0.30205 0.6148 0.0
C680 C 0.35682 0.34235 0.6095 0.0
H681 H 0.38671 0.39571 0.61913 0.0
C682 C 0.36878 0.33889 0.59749 0.0
C683 C 0.36262 0.36363 0.61713 0.0
C684 C 0.34937 0.36891 0.62982 0.0
C685 C 0.38744 0.3556 0.59321 0.0
C686 C 0.39447 0.37593 0.60129 0.0
C687 C 0.38151 0.38002 0.61298 0.0
C688 C 0.41601 0.39253 0.59827 0.0
C689 C 0.39951 0.35121 0.58014 0.0
C690 C 0.44015 0.38245 0.59675 0.0
C691 C 0.46087 0.39824 0.59525 0.0
C692 C 0.4579 0.42445 0.59544 0.0
C693 C 0.43364 0.43448 0.5968 0.0
C694 C 0.41292 0.41867 0.5982 0.0
H695 H 0.38679 0.34074 0.57352 0.0
H696 H 0.40482 0.36917 0.57542 0.0
H697 H 0.41671 0.33979 0.58147 0.0
H698 H 0.44312 0.36238 0.59715 0.0
H699 H 0.47928 0.38986 0.5943 0.0
H700 H 0.9641 0.08831 0.88869 0.0
H701 H 0.93577 0.11861 0.87872 0.0
H702 H 0.9139 0.06355 0.85016 0.0
H703 H 0.94243 0.0328 0.8603 0.0
H704 H 0.92117 0.11591 0.84066 0.0
H705 H 0.85841 0.10826 0.88349 0.0
H706 H 0.89058 0.11422 0.88763 0.0
H707 H 0.88222 0.08523 0.87982 0.0
C708 C 0.95324 0.08261 0.88032 0.0
C709 C 0.95483 0.05808 0.87548 0.0
C710 C 0.93721 0.09998 0.87458 0.0
C711 C 0.92236 0.09308 0.86392 0.0
C712 C 0.92511 0.06909 0.85847 0.0
H713 H 0.79354 0.1897 0.84807 0.0
H714 H 0.81944 0.15223 0.85071 0.0
C715 C 0.94138 0.05163 0.86422 0.0
C716 C 0.90302 0.11071 0.85917 0.0
H717 H 0.8521 0.14364 0.86966 0.0
C718 C 0.90581 0.12177 0.84688 0.0
C719 C 0.88278 0.11792 0.86723 0.0
C720 C 0.87811 0.10563 0.88023 0.0
C721 C 0.88958 0.14094 0.84273 0.0
C722 C 0.87045 0.14944 0.85122 0.0
C723 C 0.86691 0.13734 0.8632 0.0
C724 C 0.85474 0.17169 0.84831 0.0
C725 C 0.89321 0.15202 0.82936 0.0
C726 C 0.86597 0.19512 0.84613 0.0
C727 C 0.85124 0.21657 0.84457 0.0
C728 C 0.82494 0.21509 0.84535 0.0
C729 C 0.81373 0.19155 0.84745 0.0
C730 C 0.8285 0.17008 0.84892 0.0
H731 H 0.9023 0.13838 0.82269 0.0
H732 H 0.87509 0.15802 0.82505 0.0
H733 H 0.90564 0.16864 0.83009 0.0
H734 H 0.88619 0.19697 0.84601 0.0
H735 H 0.86053 0.23438 0.84304 0.0
H736 H 0.98076 0.60894 0.58521 0.0
H737 H 0.94488 0.63726 0.58706 0.0
H738 H 0.90489 0.58137 0.60919 0.0
H739 H 0.9403 0.55264 0.60703 0.0
H740 H 0.87484 0.60366 0.59142 0.0
H741 H 0.92711 0.6762 0.61929 0.0
H742 H 0.94013 0.66899 0.60363 0.0
H743 H 0.93986 0.64548 0.61617 0.0
C744 C 0.96433 0.60267 0.59048 0.0
C745 C 0.96348 0.5786 0.59607 0.0
C746 C 0.94387 0.61894 0.59157 0.0
C747 C 0.92239 0.61162 0.59847 0.0
C748 C 0.92131 0.58744 0.60384 0.0
H749 H 0.79794 0.66744 0.63763 0.0
H750 H 0.83039 0.6437 0.62628 0.0
C751 C 0.94161 0.57106 0.60263 0.0
C752 C 0.90107 0.62912 0.60036 0.0
H753 H 0.88465 0.68438 0.61487 0.0
C754 C 0.87704 0.62143 0.59642 0.0
C755 C 0.90397 0.65237 0.60687 0.0
C756 C 0.92909 0.66122 0.61185 0.0
C757 C 0.85576 0.63593 0.59924 0.0
C758 C 0.85863 0.65866 0.60609 0.0
C759 C 0.88268 0.667 0.60948 0.0
C760 C 0.83687 0.67204 0.61162 0.0
C761 C 0.83022 0.62651 0.59528 0.0
C762 C 0.82963 0.69572 0.60699 0.0
C763 C 0.81076 0.70927 0.61338 0.0
C764 C 0.79947 0.69944 0.62464 0.0
C765 C 0.80639 0.67546 0.62899 0.0
C766 C 0.82483 0.66184 0.6225 0.0
H767 H 0.83147 0.61168 0.58771 0.0
H768 H 0.82065 0.61851 0.60392 0.0
H769 H 0.8185 0.64215 0.59155 0.0
H770 H 0.83897 0.70392 0.59865 0.0
H771 H 0.80588 0.72781 0.60991 0.0
H772 H 0.14641 0.24047 0.34743 0.0
H773 H 0.11749 0.2053 0.3502 0.0
H774 H 0.18006 0.15463 0.35399 0.0
H775 H 0.20918 0.18964 0.35144 0.0
H776 H 0.11116 0.15864 0.33679 0.0
H777 H 0.14107 0.14636 0.38825 0.0
H778 H 0.14908 0.17379 0.37886 0.0
H779 H 0.16589 0.14496 0.37646 0.0
C780 C 0.15407 0.22184 0.34877 0.0
C781 C 0.18014 0.21796 0.34939 0.0
C782 C 0.13749 0.20175 0.35029 0.0
C783 C 0.14666 0.17746 0.35246 0.0
C784 C 0.17263 0.17332 0.35252 0.0
H785 H 0.05608 0.04059 0.36156 0.0
H786 H 0.08436 0.0722 0.35205 0.0
C787 C 0.18923 0.19338 0.35106 0.0
C788 C 0.12908 0.15685 0.35554 0.0
H789 H 0.11128 0.11784 0.38016 0.0
C790 C 0.11121 0.14957 0.34623 0.0
C791 C 0.12912 0.14528 0.36792 0.0
C792 C 0.14715 0.15307 0.37851 0.0
C793 C 0.0932 0.13109 0.34905 0.0
C794 C 0.09328 0.11962 0.36144 0.0
C795 C 0.11138 0.12666 0.37064 0.0
C796 C 0.07383 0.10152 0.36557 0.0
C797 C 0.07375 0.12452 0.33897 0.0
C798 C 0.0583 0.10772 0.37609 0.0
C799 C 0.0425 0.08979 0.38152 0.0
C800 C 0.04192 0.06531 0.37656 0.0
C801 C 0.05624 0.05942 0.36551 0.0
C802 C 0.07231 0.07742 0.36009 0.0
H803 H 0.07374 0.13795 0.3307 0.0
H804 H 0.07767 0.1055 0.33509 0.0
H805 H 0.05476 0.12419 0.3434 0.0
H806 H 0.05906 0.12627 0.38038 0.0
H807 H 0.0311 0.09501 0.38979 0.0
H808 H 0.56517 0.44288 0.10675 0.0
H809 H 0.60216 0.41628 0.10896 0.0
H810 H 0.56422 0.3567 0.08852 0.0
H811 H 0.52684 0.38294 0.08656 0.0
H812 H 0.58629 0.33969 0.10998 0.0
H813 H 0.65482 0.39715 0.08284 0.0
H814 H 0.63985 0.41501 0.09541 0.0
H815 H 0.6215 0.40295 0.08208 0.0
C816 C 0.56471 0.42419 0.10264 0.0
C817 C 0.54301 0.41507 0.09647 0.0
C818 C 0.58599 0.40907 0.1038 0.0
C819 C 0.58619 0.38468 0.09864 0.0
C820 C 0.56458 0.37553 0.09247 0.0
H821 H 0.70656 0.27196 0.10964 0.0
H822 H 0.67248 0.29506 0.09874 0.0
C823 C 0.5432 0.39056 0.0914 0.0
C824 C 0.60833 0.36821 0.10051 0.0
H825 H 0.67216 0.36661 0.09776 0.0
C826 C 0.60499 0.34532 0.10705 0.0
C827 C 0.63274 0.37545 0.09659 0.0
C828 C 0.63742 0.39886 0.08872 0.0
C829 C 0.62554 0.33027 0.11046 0.0
C830 C 0.64998 0.33832 0.10724 0.0
C831 C 0.65332 0.36056 0.1002 0.0
C832 C 0.67221 0.32552 0.11264 0.0
C833 C 0.62122 0.3065 0.1181 0.0
C834 C 0.68348 0.33537 0.12383 0.0
C835 C 0.7026 0.32226 0.13006 0.0
C836 C 0.71097 0.29912 0.12517 0.0
C837 C 0.70051 0.28981 0.11358 0.0
C838 C 0.68107 0.30289 0.10739 0.0
H839 H 0.60101 0.30303 0.12001 0.0
H840 H 0.62896 0.29027 0.11266 0.0
H841 H 0.63126 0.30757 0.12755 0.0
H842 H 0.67683 0.35281 0.128 0.0
H843 H 0.71044 0.32998 0.13892 0.0
H844 H 0.4435 0.98256 0.86272 0.0
H845 H 0.41324 0.9543 0.85201 0.0
H846 H 0.43443 0.89491 0.87828 0.0
H847 H 0.46447 0.92273 0.8888 0.0
H848 H 0.41821 0.90334 0.84057 0.0
H849 H 0.35771 0.90667 0.88435 0.0
H850 H 0.38197 0.92953 0.88123 0.0
H851 H 0.38983 0.89942 0.88799 0.0
C852 C 0.44189 0.96333 0.86601 0.0
C853 C 0.45571 0.95493 0.8768 0.0
C854 C 0.42462 0.9473 0.85994 0.0
C855 C 0.42122 0.92278 0.86461 0.0
C856 C 0.43635 0.91398 0.87477 0.0
H857 H 0.36133 0.78408 0.84127 0.0
H858 H 0.38539 0.82244 0.84418 0.0
C859 C 0.45338 0.92993 0.88083 0.0
C860 C 0.40116 0.9064 0.85949 0.0
H861 H 0.3508 0.87239 0.86973 0.0
C862 C 0.40316 0.89686 0.84682 0.0
C863 C 0.38126 0.89843 0.86758 0.0
C864 C 0.37735 0.90923 0.88101 0.0
C865 C 0.38667 0.8782 0.84235 0.0
C866 C 0.36813 0.86862 0.85089 0.0
C867 C 0.36515 0.87948 0.86322 0.0
C868 C 0.35308 0.84602 0.84777 0.0
C869 C 0.38954 0.86867 0.82862 0.0
C870 C 0.32687 0.84631 0.8491 0.0
C871 C 0.31301 0.82422 0.84767 0.0
C872 C 0.32513 0.8014 0.84489 0.0
C873 C 0.35133 0.80131 0.84333 0.0
C874 C 0.36515 0.82333 0.84485 0.0
H875 H 0.39748 0.88338 0.82216 0.0
H876 H 0.40273 0.85257 0.82857 0.0
H877 H 0.37133 0.86236 0.82454 0.0
H878 H 0.31718 0.86357 0.85149 0.0
H879 H 0.29285 0.825 0.84891 0.0
H880 H 0.98119 0.38219 0.90898 0.0
H881 H 0.94429 0.35568 0.90585 0.0
H882 H 0.90235 0.41962 0.89225 0.0
H883 H 0.93897 0.44642 0.89547 0.0
H884 H 0.87523 0.38707 0.90966 0.0
H885 H 0.92122 0.33606 0.86882 0.0
H886 H 0.93799 0.33654 0.88399 0.0
H887 H 0.93332 0.3652 0.87515 0.0
C888 C 0.96409 0.3907 0.90539 0.0
C889 C 0.96316 0.41643 0.90234 0.0
C890 C 0.94304 0.37548 0.90361 0.0
C891 C 0.92073 0.38566 0.89869 0.0
C892 C 0.91943 0.41143 0.89605 0.0
H893 H 0.7994 0.33364 0.85463 0.0
H894 H 0.83374 0.35499 0.86564 0.0
C895 C 0.94044 0.42668 0.89785 0.0
C896 C 0.89915 0.36934 0.8955 0.0
H897 H 0.87987 0.32467 0.87394 0.0
C898 C 0.87627 0.37317 0.90198 0.0
C899 C 0.90063 0.35136 0.88541 0.0
C900 C 0.92451 0.34706 0.87784 0.0
C901 C 0.85462 0.35984 0.89838 0.0
C902 C 0.85603 0.34236 0.8881 0.0
C903 C 0.87904 0.338 0.8819 0.0
C904 C 0.83342 0.33067 0.88246 0.0
C905 C 0.83012 0.36521 0.90513 0.0
C906 C 0.82159 0.31017 0.88845 0.0
C907 C 0.80186 0.29777 0.88212 0.0
C908 C 0.79398 0.30568 0.86972 0.0
C909 C 0.80528 0.32685 0.86409 0.0
C910 C 0.82484 0.33916 0.87037 0.0
H911 H 0.83202 0.37986 0.91276 0.0
H912 H 0.81597 0.37148 0.8979 0.0
H913 H 0.82293 0.34778 0.9097 0.0
H914 H 0.82814 0.30333 0.89777 0.0
H915 H 0.7935 0.28147 0.88668 0.0
H916 H 0.36454 0.21525 0.66419 0.0
H917 H 0.39149 0.17841 0.66212 0.0
H918 H 0.33525 0.14199 0.63863 0.0
H919 H 0.30785 0.17843 0.64095 0.0
H920 H 0.35631 0.1099 0.65623 0.0
H921 H 0.43053 0.16205 0.62954 0.0
H922 H 0.42319 0.17447 0.64532 0.0
H923 H 0.39998 0.17524 0.63264 0.0
C924 C 0.35785 0.19939 0.6586 0.0
C925 C 0.33412 0.1999 0.65262 0.0
C926 C 0.37334 0.17838 0.65739 0.0
C927 C 0.36558 0.15767 0.65001 0.0
C928 C 0.34164 0.15783 0.64434 0.0
H929 H 0.42066 0.03224 0.61049 0.0
H930 H 0.39652 0.06439 0.62185 0.0
C931 C 0.32602 0.17871 0.64565 0.0
C932 C 0.38254 0.13603 0.64784 0.0
H933 H 0.4379 0.11927 0.63357 0.0
C934 C 0.37425 0.11198 0.65139 0.0
C935 C 0.40599 0.13879 0.64152 0.0
C936 C 0.41542 0.16397 0.63692 0.0
C937 C 0.38847 0.09057 0.64846 0.0
C938 C 0.41149 0.09333 0.64184 0.0
C939 C 0.42032 0.11736 0.63878 0.0
C940 C 0.42497 0.07156 0.63637 0.0
C941 C 0.37855 0.06506 0.65212 0.0
C942 C 0.44887 0.06481 0.6409 0.0
C943 C 0.46265 0.04615 0.6345 0.0
C944 C 0.45286 0.03455 0.62332 0.0
C945 C 0.42866 0.04092 0.61907 0.0
C946 C 0.4148 0.05918 0.62558 0.0
H947 H 0.36373 0.0663 0.65969 0.0
H948 H 0.37037 0.056 0.64337 0.0
H949 H 0.39393 0.05287 0.65574 0.0
H950 H 0.45706 0.07443 0.64916 0.0
H951 H 0.48136 0.04171 0.63789 0.0
H952 H 0.71638 0.66665 0.36029 0.0
H953 H 0.68333 0.64386 0.3717 0.0
H954 H 0.67945 0.70249 0.40052 0.0
H955 H 0.71284 0.72554 0.38912 0.0
H956 H 0.67842 0.62894 0.4005 0.0
H957 H 0.60811 0.69694 0.38122 0.0
H958 H 0.63855 0.69331 0.37377 0.0
H959 H 0.63579 0.7087 0.3892 0.0
C960 C 0.70878 0.67455 0.36917 0.0
C961 C 0.71699 0.69796 0.37377 0.0
C962 C 0.69 0.66145 0.37569 0.0
C963 C 0.67893 0.67162 0.38686 0.0
C964 C 0.68782 0.69444 0.39187 0.0
H965 H 0.53321 0.61837 0.41439 0.0
H966 H 0.57196 0.64259 0.41277 0.0
C967 C 0.70689 0.7075 0.38539 0.0
C968 C 0.65666 0.65914 0.39241 0.0
H969 H 0.59279 0.66079 0.39138 0.0
C970 C 0.65966 0.63604 0.39873 0.0
C971 C 0.63231 0.66855 0.39007 0.0
C972 C 0.62825 0.69319 0.38316 0.0
C973 C 0.6388 0.62168 0.40247 0.0
C974 C 0.61441 0.6304 0.39945 0.0
C975 C 0.61148 0.65407 0.39365 0.0
C976 C 0.59174 0.61474 0.4014 0.0
C977 C 0.64316 0.59727 0.40954 0.0
C978 C 0.58992 0.59105 0.39551 0.0
C979 C 0.56785 0.57706 0.39649 0.0
C980 C 0.54698 0.5867 0.40319 0.0
C981 C 0.54889 0.61041 0.40912 0.0
C982 C 0.57105 0.62427 0.40824 0.0
H983 H 0.66111 0.59763 0.41502 0.0
H984 H 0.62768 0.59309 0.41643 0.0
H985 H 0.64433 0.58181 0.40234 0.0
H986 H 0.60535 0.58361 0.38985 0.0
H987 H 0.56698 0.55897 0.39172 0.0
H988 H 0.148 0.7664 0.14338 0.0
H989 H 0.12208 0.80349 0.1395 0.0
H990 H 0.17972 0.8503 0.15624 0.0
H991 H 0.20635 0.81339 0.15929 0.0
H992 H 0.10123 0.83732 0.15389 0.0
H993 H 0.17143 0.88522 0.12274 0.0
H994 H 0.1756 0.85347 0.12826 0.0
H995 H 0.18259 0.87941 0.1389 0.0
C996 C 0.15512 0.78464 0.14619 0.0
C997 C 0.17928 0.78714 0.15144 0.0
C998 C 0.14029 0.80583 0.14402 0.0
C999 C 0.14913 0.82984 0.1473 0.0
C1000 C 0.1728 0.83215 0.15318 0.0
H1001 H 0.03967 0.95403 0.13691 0.0
H1002 H 0.06802 0.92463 0.14798 0.0
C1003 C 0.18795 0.81105 0.155 0.0
C1004 C 0.13373 0.8523 0.14418 0.0
H1005 H 0.13432 0.90731 0.12723 0.0
C1006 C 0.10846 0.85266 0.14806 0.0
C1007 C 0.14317 0.87233 0.13657 0.0
C1008 C 0.16959 0.87254 0.13127 0.0
C1009 C 0.0921 0.87182 0.14406 0.0
C1010 C 0.10154 0.89177 0.13641 0.0
C1011 C 0.12711 0.89206 0.13312 0.0
C1012 C 0.08493 0.9107 0.13021 0.0
C1013 C 0.06464 0.86968 0.14745 0.0
C1014 C 0.08575 0.9135 0.11666 0.0
C1015 C 0.07024 0.93066 0.11042 0.0
C1016 C 0.05301 0.94516 0.11752 0.0
C1017 C 0.05247 0.94285 0.13115 0.0
C1018 C 0.0685 0.92588 0.13747 0.0
H1019 H 0.05963 0.85049 0.15075 0.0
H1020 H 0.06021 0.88288 0.15547 0.0
H1021 H 0.0527 0.87452 0.13897 0.0
H1022 H 0.09833 0.90218 0.11082 0.0
H1023 H 0.07182 0.93244 0.09998 0.0
H1024 H 0.72817 0.80362 0.88488 0.0
H1025 H 0.6977 0.83256 0.89487 0.0
H1026 H 0.64195 0.80937 0.86693 0.0
H1027 H 0.67211 0.78086 0.85702 0.0
H1028 H 0.65 0.86107 0.86768 0.0
H1029 H 0.63381 0.82164 0.91712 0.0
H1030 H 0.66589 0.82647 0.9123 0.0
H1031 H 0.64728 0.80336 0.90408 0.0
C1032 C 0.70923 0.80444 0.88109 0.0
C1033 C 0.70253 0.79048 0.87005 0.0
C1034 C 0.69188 0.8209 0.88679 0.0
C1035 C 0.66761 0.82315 0.88158 0.0
C1036 C 0.66065 0.80809 0.87101 0.0
H1037 H 0.52822 0.88775 0.90343 0.0
H1038 H 0.5652 0.86183 0.89964 0.0
C1039 C 0.67794 0.79194 0.86529 0.0
C1040 C 0.64983 0.84247 0.88626 0.0
H1041 H 0.61189 0.85861 0.91167 0.0
C1042 C 0.64182 0.86071 0.87734 0.0
C1043 C 0.63919 0.84182 0.89884 0.0
C1044 C 0.64677 0.82221 0.90866 0.0
C1045 C 0.6228 0.8778 0.88047 0.0
C1046 C 0.61191 0.87702 0.89301 0.0
C1047 C 0.62042 0.85924 0.90209 0.0
C1048 C 0.59026 0.89312 0.89644 0.0
C1049 C 0.61372 0.89569 0.8701 0.0
C1050 C 0.59219 0.91936 0.89614 0.0
C1051 C 0.57099 0.9343 0.89816 0.0
C1052 C 0.54753 0.92323 0.90067 0.0
C1053 C 0.54593 0.89693 0.90146 0.0
C1054 C 0.56708 0.88205 0.89936 0.0
H1055 H 0.62017 0.89009 0.86024 0.0
H1056 H 0.59293 0.89675 0.87003 0.0
H1057 H 0.62115 0.91472 0.87214 0.0
H1058 H 0.61002 0.92828 0.89414 0.0
H1059 H 0.57296 0.95448 0.89764 0.0
H1060 H 0.42427 0.44197 0.10418 0.0
H1061 H 0.39932 0.41007 0.11508 0.0
H1062 H 0.44561 0.41669 0.1493 0.0
H1063 H 0.47111 0.44888 0.13833 0.0
H1064 H 0.4232 0.36362 0.12553 0.0
H1065 H 0.3685 0.41944 0.16157 0.0
H1066 H 0.38096 0.43343 0.14692 0.0
H1067 H 0.40171 0.42497 0.1599 0.0
C1068 C 0.4292 0.43677 0.11404 0.0
C1069 C 0.44989 0.44768 0.12034 0.0
C1070 C 0.41482 0.41862 0.12027 0.0
C1071 C 0.42066 0.41108 0.13295 0.0
C1072 C 0.44076 0.42246 0.13951 0.0
H1073 H 0.35755 0.27048 0.16218 0.0
H1074 H 0.38612 0.30554 0.15851 0.0
C1075 C 0.45528 0.44076 0.13324 0.0
C1076 C 0.4065 0.39007 0.13874 0.0
H1077 H 0.35889 0.37643 0.15977 0.0
C1078 C 0.40939 0.36626 0.13316 0.0
C1079 C 0.3884 0.39382 0.14857 0.0
C1080 C 0.38447 0.41927 0.15463 0.0
C1081 C 0.3941 0.34615 0.13688 0.0
C1082 C 0.37566 0.34993 0.14657 0.0
C1083 C 0.37315 0.37363 0.15239 0.0
C1084 C 0.3579 0.32978 0.15014 0.0
C1085 C 0.39704 0.32131 0.12999 0.0
C1086 C 0.3324 0.33215 0.14703 0.0
C1087 C 0.31593 0.31216 0.14914 0.0
C1088 C 0.32473 0.28945 0.15442 0.0
C1089 C 0.35016 0.28756 0.15797 0.0
C1090 C 0.36655 0.30757 0.15589 0.0
H1091 H 0.40861 0.32297 0.12104 0.0
H1092 H 0.40638 0.30777 0.1366 0.0
H1093 H 0.37846 0.31348 0.12729 0.0
H1094 H 0.32539 0.34919 0.14259 0.0
H1095 H 0.29647 0.31433 0.14635 0.0
H1096 H 0.9308 0.06233 0.38938 0.0
H1097 H 0.89318 0.08804 0.38686 0.0
H1098 H 0.92479 0.144 0.41234 0.0
H1099 H 0.9628 0.11881 0.4146 0.0
H1100 H 0.85867 0.10599 0.40406 0.0
H1101 H 0.90915 0.18501 0.3804 0.0
H1102 H 0.92364 0.15493 0.38314 0.0
H1103 H 0.92059 0.177 0.39628 0.0
C1104 C 0.92975 0.08008 0.39448 0.0
C1105 C 0.94995 0.08867 0.40205 0.0
C1106 C 0.90821 0.09473 0.39305 0.0
C1107 C 0.90638 0.11815 0.39921 0.0
C1108 C 0.92607 0.1263 0.40722 0.0
H1109 H 0.78783 0.23071 0.38689 0.0
H1110 H 0.82053 0.20663 0.39825 0.0
C1111 C 0.94775 0.11182 0.40853 0.0
C1112 C 0.88412 0.13421 0.39693 0.0
H1113 H 0.86582 0.19007 0.38373 0.0
C1114 C 0.86024 0.12446 0.39971 0.0
C1115 C 0.88621 0.15834 0.39127 0.0
C1116 C 0.91123 0.1694 0.38748 0.0
C1117 C 0.83841 0.13794 0.39669 0.0
C1118 C 0.84055 0.16169 0.39073 0.0
C1119 C 0.86435 0.17191 0.38843 0.0
C1120 C 0.81858 0.17482 0.38523 0.0
C1121 C 0.81317 0.1265 0.3996 0.0
C1122 C 0.80667 0.16474 0.37426 0.0
C1123 C 0.78838 0.17848 0.36771 0.0
C1124 C 0.78154 0.20249 0.37206 0.0
C1125 C 0.79263 0.21215 0.38341 0.0
C1126 C 0.81129 0.19848 0.38987 0.0
H1127 H 0.81456 0.11147 0.40705 0.0
H1128 H 0.79978 0.14101 0.40305 0.0
H1129 H 0.80545 0.11813 0.39056 0.0
H1130 H 0.81233 0.14668 0.37042 0.0
H1131 H 0.78009 0.17059 0.359 0.0
H1132 H 0.19284 0.69019 0.63845 0.0
H1133 H 0.1662 0.65328 0.63571 0.0
H1134 H 0.10848 0.68835 0.65881 0.0
H1135 H 0.13464 0.72567 0.66123 0.0
H1136 H 0.14609 0.62075 0.65299 0.0
H1137 H 0.06994 0.67038 0.62652 0.0
H1138 H 0.09993 0.68472 0.6297 0.0
H1139 H 0.07662 0.68303 0.64232 0.0
C1140 C 0.17446 0.69009 0.64293 0.0
C1141 C 0.16575 0.711 0.64993 0.0
C1142 C 0.15927 0.66894 0.64139 0.0
C1143 C 0.13517 0.66822 0.64687 0.0
C1144 C 0.12673 0.68874 0.6542 0.0
H1145 H 0.02267 0.54848 0.63636 0.0
H1146 H 0.04644 0.58224 0.64711 0.0
C1147 C 0.14177 0.71003 0.65562 0.0
C1148 C 0.11889 0.64604 0.64472 0.0
H1149 H 0.06363 0.6275 0.63092 0.0
C1150 C 0.12798 0.62227 0.64825 0.0
C1151 C 0.09521 0.64803 0.63855 0.0
C1152 C 0.0849 0.67286 0.63394 0.0
C1153 C 0.11432 0.60041 0.64549 0.0
C1154 C 0.09102 0.60243 0.63907 0.0
C1155 C 0.08143 0.62616 0.63599 0.0
C1156 C 0.07792 0.58018 0.63387 0.0
C1157 C 0.12511 0.57524 0.64913 0.0
C1158 C 0.08793 0.5679 0.62301 0.0
C1159 C 0.07436 0.54905 0.61681 0.0
C1160 C 0.05062 0.54195 0.62144 0.0
C1161 C 0.04103 0.55348 0.63268 0.0
C1162 C 0.05451 0.57274 0.63878 0.0
H1163 H 0.14026 0.57699 0.6565 0.0
H1164 H 0.11024 0.56271 0.65301 0.0
H1165 H 0.1331 0.56625 0.64032 0.0
H1166 H 0.10583 0.57362 0.619 0.0
H1167 H 0.0822 0.54044 0.60817 0.0
H1168 H 0.51546 0.10725 0.59099 0.0
H1169 H 0.55014 0.13694 0.59297 0.0
H1170 H 0.59893 0.0771 0.60544 0.0
H1171 H 0.56457 0.04719 0.60331 0.0
H1172 H 0.57509 0.14834 0.61513 0.0
H1173 H 0.64224 0.11237 0.57858 0.0
H1174 H 0.6097 0.10299 0.57888 0.0
H1175 H 0.63202 0.08839 0.58961 0.0
C1176 C 0.53362 0.10031 0.59403 0.0
C1177 C 0.53719 0.07479 0.597 0.0
C1178 C 0.55344 0.11733 0.59512 0.0
C1179 C 0.57723 0.10917 0.59912 0.0
C1180 C 0.58092 0.08371 0.60199 0.0
H1181 H 0.69249 0.17554 0.64226 0.0
H1182 H 0.65923 0.1513 0.63198 0.0
C1183 C 0.56114 0.06666 0.60089 0.0
C1184 C 0.59759 0.12755 0.60146 0.0
H1185 H 0.65939 0.13946 0.5952 0.0
C1186 C 0.59337 0.14668 0.61058 0.0
C1187 C 0.62137 0.12555 0.59541 0.0
C1188 C 0.62656 0.10637 0.58497 0.0
C1189 C 0.61268 0.1629 0.61437 0.0
C1190 C 0.63685 0.15979 0.60899 0.0
C1191 C 0.64082 0.14163 0.59935 0.0
C1192 C 0.65855 0.17346 0.61438 0.0
C1193 C 0.60741 0.18274 0.62448 0.0
C1194 C 0.66963 0.19353 0.60767 0.0
C1195 C 0.6887 0.20763 0.61358 0.0
C1196 C 0.6968 0.20173 0.62624 0.0
C1197 C 0.68636 0.18087 0.6326 0.0
C1198 C 0.66742 0.16692 0.62674 0.0
H1199 H 0.587 0.18633 0.62556 0.0
H1200 H 0.6148 0.17639 0.63403 0.0
H1201 H 0.61694 0.20059 0.62194 0.0
H1202 H 0.66299 0.19873 0.59808 0.0
H1203 H 0.69645 0.22357 0.60844 0.0
H1204 H 0.14051 0.26123 0.84152 0.0
H1205 H 0.11171 0.29658 0.84396 0.0
H1206 H 0.17345 0.34428 0.85496 0.0
H1207 H 0.20245 0.30925 0.85238 0.0
H1208 H 0.10256 0.32231 0.86624 0.0
H1209 H 0.13712 0.38777 0.82852 0.0
H1210 H 0.14572 0.355 0.82882 0.0
H1211 H 0.16174 0.37719 0.83907 0.0
C1212 C 0.14804 0.27929 0.84434 0.0
C1213 C 0.17384 0.28236 0.84676 0.0
C1214 C 0.13153 0.29949 0.84569 0.0
C1215 C 0.14049 0.32317 0.8494 0.0
C1216 C 0.16621 0.32635 0.85174 0.0
H1217 H 0.08088 0.44062 0.89349 0.0
H1218 H 0.10297 0.40624 0.88291 0.0
C1219 C 0.18275 0.3062 0.85038 0.0
C1220 C 0.12277 0.344 0.85199 0.0
H1221 H 0.112 0.40599 0.84567 0.0
C1222 C 0.10432 0.34045 0.86155 0.0
C1223 C 0.12487 0.3676 0.84577 0.0
C1224 C 0.14327 0.37207 0.83488 0.0
C1225 C 0.08897 0.36029 0.86561 0.0
C1226 C 0.09229 0.38428 0.86005 0.0
C1227 C 0.10967 0.38756 0.84997 0.0
C1228 C 0.07978 0.40648 0.86566 0.0
C1229 C 0.06986 0.35572 0.87618 0.0
C1230 C 0.05987 0.41845 0.85924 0.0
C1231 C 0.04701 0.43817 0.86533 0.0
C1232 C 0.054 0.44607 0.87787 0.0
C1233 C 0.0747 0.43468 0.88394 0.0
C1234 C 0.08742 0.41509 0.8779 0.0
H1235 H 0.06561 0.33544 0.87732 0.0
H1236 H 0.07733 0.36279 0.88557 0.0
H1237 H 0.05217 0.36593 0.87408 0.0
H1238 H 0.05385 0.41204 0.84974 0.0
H1239 H 0.03117 0.44665 0.86042 0.0
H1240 H 0.93642 0.94046 0.10927 0.0
H1241 H 0.89917 0.91458 0.11273 0.0
H1242 H 0.93079 0.8567 0.08843 0.0
H1243 H 0.9684 0.88206 0.08525 0.0
H1244 H 0.86485 0.89573 0.09581 0.0
H1245 H 0.91433 0.8178 0.1209 0.0
H1246 H 0.92913 0.84756 0.11768 0.0
H1247 H 0.9262 0.8246 0.10495 0.0
C1248 C 0.9355 0.92219 0.1047 0.0
C1249 C 0.95552 0.91322 0.09711 0.0
C1250 C 0.91417 0.90744 0.10665 0.0
C1251 C 0.91239 0.88353 0.10102 0.0
C1252 C 0.93204 0.87481 0.09315 0.0
H1253 H 0.7931 0.77154 0.11221 0.0
H1254 H 0.82646 0.79565 0.10141 0.0
C1255 C 0.95349 0.8894 0.09131 0.0
C1256 C 0.89 0.86775 0.10347 0.0
H1257 H 0.87114 0.8123 0.11691 0.0
C1258 C 0.86625 0.87743 0.10036 0.0
C1259 C 0.89185 0.84383 0.10938 0.0
C1260 C 0.91671 0.83288 0.11354 0.0
C1261 C 0.84429 0.86404 0.10323 0.0
C1262 C 0.84618 0.84043 0.10936 0.0
C1263 C 0.86988 0.83033 0.11207 0.0
C1264 C 0.82394 0.82728 0.11452 0.0
C1265 C 0.81917 0.87536 0.09993 0.0
C1266 C 0.81148 0.83727 0.12534 0.0
C1267 C 0.7928 0.82352 0.13157 0.0
C1268 C 0.78611 0.79959 0.12704 0.0
C1269 C 0.79777 0.79004 0.11582 0.0
C1270 C 0.81681 0.80372 0.10968 0.0
H1271 H 0.8209 0.89048 0.09255 0.0
H1272 H 0.80612 0.86079 0.09621 0.0
H1273 H 0.81082 0.88355 0.10886 0.0
H1274 H 0.81698 0.85527 0.12932 0.0
H1275 H 0.78408 0.83132 0.1402 0.0
H1276 H 0.46352 0.59396 0.38998 0.0
H1277 H 0.4349 0.62419 0.38016 0.0
H1278 H 0.41391 0.56964 0.35117 0.0
H1279 H 0.44267 0.53896 0.36115 0.0
H1280 H 0.4206 0.62335 0.34231 0.0
H1281 H 0.35739 0.61094 0.38471 0.0
H1282 H 0.38945 0.61728 0.38896 0.0
H1283 H 0.38168 0.58869 0.38063 0.0
C1284 C 0.45282 0.58837 0.38153 0.0
C1285 C 0.45469 0.56397 0.37653 0.0
C1286 C 0.43665 0.60571 0.37587 0.0
C1287 C 0.42196 0.59892 0.36514 0.0
C1288 C 0.42503 0.57511 0.35952 0.0
H1289 H 0.28951 0.69045 0.34996 0.0
H1290 H 0.31727 0.65425 0.35208 0.0
C1291 C 0.44143 0.55769 0.36518 0.0
C1292 C 0.40221 0.61626 0.36058 0.0
H1293 H 0.34978 0.64647 0.37126 0.0
C1294 C 0.40489 0.62822 0.34852 0.0
C1295 C 0.38155 0.62219 0.36863 0.0
C1296 C 0.37713 0.60896 0.38141 0.0
C1297 C 0.38799 0.64699 0.34458 0.0
C1298 C 0.36829 0.65411 0.35305 0.0
C1299 C 0.36499 0.64118 0.36481 0.0
C1300 C 0.35155 0.6757 0.35033 0.0
C1301 C 0.3915 0.65906 0.33143 0.0
C1302 C 0.36159 0.69981 0.34866 0.0
C1303 C 0.34577 0.72057 0.3474 0.0
C1304 C 0.31958 0.71765 0.34798 0.0
C1305 C 0.30958 0.69341 0.34952 0.0
C1306 C 0.32542 0.67267 0.35069 0.0
H1307 H 0.40151 0.64635 0.32462 0.0
H1308 H 0.37323 0.66439 0.32705 0.0
H1309 H 0.40299 0.67626 0.33256 0.0
H1310 H 0.38168 0.70273 0.34873 0.0
H1311 H 0.35412 0.73895 0.3463 0.0
H1312 H 0.42647 0.04586 0.09872 0.0
H1313 H 0.38686 0.06842 0.10124 0.0
H1314 H 0.4258 0.13881 0.09681 0.0
H1315 H 0.46525 0.11649 0.0939 0.0
H1316 H 0.37536 0.09904 0.1202 0.0
H1317 H 0.36595 0.15171 0.07428 0.0
H1318 H 0.38792 0.12618 0.07614 0.0
H1319 H 0.39603 0.15736 0.08147 0.0
C1320 C 0.42656 0.06614 0.09809 0.0
C1321 C 0.44907 0.07937 0.09612 0.0
C1322 C 0.40387 0.079 0.09949 0.0
C1323 C 0.40323 0.10531 0.09896 0.0
C1324 C 0.42563 0.1185 0.09684 0.0
H1325 H 0.32176 0.20877 0.14235 0.0
H1326 H 0.3503 0.18018 0.13135 0.0
C1327 C 0.44827 0.10568 0.09532 0.0
C1328 C 0.37987 0.11911 0.10215 0.0
H1329 H 0.34417 0.16938 0.09304 0.0
C1330 C 0.36823 0.11403 0.1141 0.0
C1331 C 0.37022 0.13845 0.09413 0.0
C1332 C 0.38054 0.14354 0.08072 0.0
C1333 C 0.34843 0.12885 0.11866 0.0
C1334 C 0.34037 0.1496 0.11119 0.0
C1335 C 0.3507 0.15367 0.09883 0.0
C1336 C 0.32335 0.1686 0.11682 0.0
C1337 C 0.33686 0.12272 0.13168 0.0
C1338 C 0.29909 0.17245 0.11189 0.0
C1339 C 0.28259 0.18888 0.11826 0.0
C1340 C 0.29028 0.2014 0.12961 0.0
C1341 C 0.31503 0.19859 0.13397 0.0
C1342 C 0.33142 0.1824 0.12763 0.0
H1343 H 0.33964 0.10268 0.13427 0.0
H1344 H 0.34595 0.13429 0.13932 0.0
H1345 H 0.31646 0.12691 0.13173 0.0
H1346 H 0.29267 0.16212 0.10345 0.0
H1347 H 0.2636 0.19094 0.11468 0.0
H1348 H 0.57768 0.5463 0.89107 0.0
H1349 H 0.60241 0.57731 0.87927 0.0
H1350 H 0.55027 0.5742 0.84726 0.0
H1351 H 0.52521 0.54274 0.85907 0.0
H1352 H 0.61982 0.57383 0.84821 0.0
H1353 H 0.55747 0.65079 0.86569 0.0
H1354 H 0.56153 0.62285 0.87539 0.0
H1355 H 0.54472 0.62117 0.86033 0.0
C1356 C 0.57153 0.552 0.88147 0.0
C1357 C 0.54939 0.54228 0.87603 0.0
C1358 C 0.58576 0.56961 0.87473 0.0
C1359 C 0.57808 0.57796 0.86246 0.0
C1360 C 0.55644 0.56781 0.85674 0.0
H1361 H 0.64285 0.71712 0.83272 0.0
H1362 H 0.61544 0.68066 0.83474 0.0
C1363 C 0.54221 0.54991 0.86347 0.0
C1364 C 0.59203 0.59862 0.85627 0.0
H1365 H 0.59606 0.66238 0.85646 0.0
C1366 C 0.61447 0.59324 0.84975 0.0
C1367 C 0.58486 0.62378 0.85831 0.0
C1368 C 0.56083 0.63024 0.86529 0.0
C1369 C 0.63048 0.61255 0.8456 0.0
C1370 C 0.62411 0.63776 0.8484 0.0
C1371 C 0.60101 0.64307 0.85436 0.0
C1372 C 0.64172 0.65883 0.8461 0.0
C1373 C 0.65413 0.60571 0.83838 0.0
C1374 C 0.66564 0.65871 0.85182 0.0
C1375 C 0.68145 0.67948 0.85062 0.0
C1376 C 0.67347 0.70096 0.84385 0.0
C1377 C 0.64957 0.70094 0.83805 0.0
C1378 C 0.63388 0.68008 0.83916 0.0
H1379 H 0.65193 0.58765 0.8331 0.0
H1380 H 0.65948 0.62048 0.83129 0.0
H1381 H 0.66966 0.60339 0.84546 0.0
H1382 H 0.67183 0.64285 0.85756 0.0
H1383 H 0.69965 0.67892 0.85529 0.0
H1384 H 0.19136 0.82936 0.64181 0.0
H1385 H 0.15832 0.85225 0.63056 0.0
H1386 H 0.16635 0.80382 0.59724 0.0
H1387 H 0.19964 0.78036 0.60857 0.0
H1388 H 0.16129 0.86541 0.59494 0.0
H1389 H 0.088 0.81166 0.6215 0.0
H1390 H 0.11486 0.82154 0.6308 0.0
H1391 H 0.11869 0.7989 0.61805 0.0
C1392 C 0.18624 0.82355 0.63207 0.0
C1393 C 0.19783 0.80282 0.62614 0.0
C1394 C 0.16745 0.83675 0.62564 0.0
C1395 C 0.15989 0.82955 0.61316 0.0
C1396 C 0.17205 0.80956 0.60691 0.0
H1397 H 0.01626 0.88985 0.5868 0.0
H1398 H 0.05238 0.86198 0.5889 0.0
C1399 C 0.191 0.79624 0.61337 0.0
C1400 C 0.1382 0.84228 0.60721 0.0
H1401 H 0.07521 0.84944 0.61129 0.0
C1402 C 0.14236 0.86169 0.59827 0.0
C1403 C 0.11363 0.83717 0.61155 0.0
C1404 C 0.10833 0.81608 0.62095 0.0
C1405 C 0.12254 0.87702 0.59405 0.0
C1406 C 0.09817 0.87298 0.59911 0.0
C1407 C 0.0939 0.85264 0.60748 0.0
C1408 C 0.07713 0.89048 0.59661 0.0
C1409 C 0.12795 0.89758 0.58438 0.0
C1410 C 0.07903 0.91577 0.60028 0.0
C1411 C 0.05843 0.93179 0.59908 0.0
C1412 C 0.0354 0.92275 0.59433 0.0
C1413 C 0.03366 0.89745 0.59054 0.0
C1414 C 0.05431 0.88149 0.59169 0.0
H1415 H 0.14465 0.89306 0.57835 0.0
H1416 H 0.1117 0.90086 0.57784 0.0
H1417 H 0.13196 0.91523 0.58971 0.0
H1418 H 0.09624 0.92297 0.60444 0.0
H1419 H 0.06044 0.95112 0.60216 0.0
H1420 H 0.97402 0.44355 0.3596 0.0
H1421 H 0.94905 0.41042 0.34903 0.0
H1422 H 0.90158 0.40615 0.38291 0.0
H1423 H 0.92601 0.43895 0.3934 0.0
H1424 H 0.92555 0.35895 0.37361 0.0
H1425 H 0.87256 0.41241 0.33596 0.0
H1426 H 0.90576 0.41775 0.33785 0.0
H1427 H 0.88461 0.42746 0.35042 0.0
C1428 C 0.95805 0.43574 0.36468 0.0
C1429 C 0.95216 0.4436 0.37738 0.0
C1430 C 0.94384 0.41688 0.35865 0.0
C1431 C 0.92357 0.40589 0.36525 0.0
C1432 C 0.91724 0.41435 0.37771 0.0
H1433 H 0.79686 0.31337 0.35337 0.0
H1434 H 0.82767 0.3468 0.35626 0.0
C1435 C 0.93131 0.43304 0.3837 0.0
C1436 C 0.90952 0.38451 0.35973 0.0
H1437 H 0.86194 0.36992 0.33886 0.0
C1438 C 0.91193 0.36114 0.36585 0.0
C1439 C 0.89168 0.38769 0.34971 0.0
C1440 C 0.88827 0.41265 0.34306 0.0
C1441 C 0.89626 0.34101 0.36258 0.0
C1442 C 0.87794 0.3443 0.35277 0.0
C1443 C 0.87609 0.36747 0.34633 0.0
C1444 C 0.85926 0.32452 0.34988 0.0
C1445 C 0.89856 0.31683 0.37013 0.0
C1446 C 0.86677 0.30106 0.34511 0.0
C1447 C 0.84925 0.2818 0.34355 0.0
C1448 C 0.82383 0.28574 0.34663 0.0
C1449 C 0.81627 0.3096 0.35097 0.0
C1450 C 0.83383 0.32879 0.35257 0.0
H1451 H 0.91011 0.31911 0.37905 0.0
H1452 H 0.87978 0.30973 0.373 0.0
H1453 H 0.90762 0.30243 0.36392 0.0
H1454 H 0.88626 0.29752 0.34278 0.0
H1455 H 0.85571 0.26377 0.34004 0.0
H1456 H 0.29116 0.77451 0.38854 0.0
H1457 H 0.32575 0.79691 0.39935 0.0
H1458 H 0.31699 0.85847 0.37254 0.0
H1459 H 0.28296 0.83622 0.36165 0.0
H1460 H 0.37053 0.81367 0.38365 0.0
H1461 H 0.32286 0.89107 0.40996 0.0
H1462 H 0.30738 0.8619 0.40595 0.0
H1463 H 0.31183 0.88544 0.39368 0.0
C1464 C 0.29629 0.79306 0.38518 0.0
C1465 C 0.28447 0.80367 0.37427 0.0
C1466 C 0.31604 0.80576 0.39132 0.0
C1467 C 0.32369 0.8294 0.38679 0.0
C1468 C 0.31112 0.84041 0.37628 0.0
H1469 H 0.43685 0.94097 0.39067 0.0
H1470 H 0.39926 0.91523 0.38821 0.0
C1471 C 0.29177 0.82762 0.37004 0.0
C1472 C 0.34642 0.84172 0.39197 0.0
H1473 H 0.36664 0.89614 0.40589 0.0
C1474 C 0.36981 0.83145 0.38876 0.0
C1475 C 0.34523 0.86501 0.39847 0.0
C1476 C 0.32049 0.87649 0.40233 0.0
C1477 C 0.39213 0.84456 0.39124 0.0
C1478 C 0.39095 0.86828 0.39743 0.0
C1479 C 0.36753 0.87801 0.40113 0.0
C1480 C 0.4136 0.88398 0.3994 0.0
C1481 C 0.41656 0.83355 0.3865 0.0
C1482 C 0.43405 0.87511 0.40666 0.0
C1483 C 0.45572 0.88965 0.40794 0.0
C1484 C 0.45719 0.91354 0.40217 0.0
C1485 C 0.43638 0.92265 0.39522 0.0
C1486 C 0.41484 0.90798 0.39383 0.0
H1487 H 0.41353 0.81855 0.37916 0.0
H1488 H 0.42868 0.84823 0.38213 0.0
H1489 H 0.42673 0.82516 0.39485 0.0
H1490 H 0.43328 0.85693 0.41133 0.0
H1491 H 0.47126 0.8822 0.41351 0.0
H1492 H 0.97562 0.55608 0.13804 0.0
H1493 H 0.95126 0.58976 0.14851 0.0
H1494 H 0.90268 0.59321 0.11503 0.0
H1495 H 0.92655 0.55988 0.10463 0.0
H1496 H 0.92644 0.64039 0.12339 0.0
H1497 H 0.87614 0.5889 0.16271 0.0
H1498 H 0.90932 0.58382 0.16062 0.0
H1499 H 0.88789 0.57308 0.14841 0.0
C1500 C 0.95953 0.56382 0.13303 0.0
C1501 C 0.95317 0.55557 0.12046 0.0
C1502 C 0.94567 0.583 0.139 0.0
C1503 C 0.92525 0.59392 0.13249 0.0
C1504 C 0.91845 0.58508 0.12016 0.0
H1505 H 0.7998 0.68768 0.14569 0.0
H1506 H 0.8302 0.65398 0.14252 0.0
C1507 C 0.93219 0.56607 0.11423 0.0
C1508 C 0.91153 0.61558 0.13796 0.0
H1509 H 0.86579 0.63143 0.15967 0.0
C1510 C 0.91346 0.63862 0.13146 0.0
C1511 C 0.89453 0.61298 0.1484 0.0
C1512 C 0.89161 0.58839 0.15548 0.0
C1513 C 0.89814 0.65898 0.13481 0.0
C1514 C 0.88067 0.65626 0.14507 0.0
C1515 C 0.8793 0.63344 0.15186 0.0
C1516 C 0.86233 0.67626 0.14812 0.0
C1517 C 0.89986 0.68278 0.1269 0.0
C1518 C 0.8703 0.69983 0.15254 0.0
C1519 C 0.853 0.71923 0.15428 0.0
C1520 C 0.82736 0.71535 0.15171 0.0
C1521 C 0.81939 0.69142 0.1477 0.0
C1522 C 0.83672 0.67207 0.14593 0.0
H1523 H 0.91076 0.68007 0.1178 0.0
H1524 H 0.88087 0.68972 0.12432 0.0
H1525 H 0.90933 0.69748 0.13275 0.0
H1526 H 0.88997 0.70331 0.15445 0.0
H1527 H 0.85979 0.73734 0.1575 0.0
H1528 H 0.20827 0.22553 0.88713 0.0
H1529 H 0.17555 0.2019 0.89875 0.0
H1530 H 0.18258 0.14159 0.87105 0.0
H1531 H 0.21476 0.16506 0.85937 0.0
H1532 H 0.12977 0.18543 0.88432 0.0
H1533 H 0.18077 0.10699 0.90794 0.0
H1534 H 0.19561 0.13645 0.90386 0.0
H1535 H 0.18997 0.11343 0.89144 0.0
C1536 C 0.20319 0.20699 0.88373 0.0
C1537 C 0.21392 0.1971 0.87235 0.0
C1538 C 0.18453 0.19358 0.89034 0.0
C1539 C 0.17692 0.16994 0.88581 0.0
C1540 C 0.18849 0.15963 0.8748 0.0
H1541 H 0.06546 0.05745 0.88942 0.0
H1542 H 0.10296 0.08344 0.8873 0.0
C1543 C 0.20675 0.17312 0.8681 0.0
C1544 C 0.15494 0.15707 0.89144 0.0
H1545 H 0.13668 0.10145 0.90478 0.0
C1546 C 0.13117 0.16731 0.88907 0.0
C1547 C 0.15701 0.13337 0.89746 0.0
C1548 C 0.18222 0.12193 0.90044 0.0
C1549 C 0.10927 0.15375 0.89184 0.0
C1550 C 0.11131 0.12961 0.8975 0.0
C1551 C 0.13514 0.11991 0.90042 0.0
C1552 C 0.08907 0.11341 0.89955 0.0
C1553 C 0.08431 0.16479 0.88793 0.0
C1554 C 0.069 0.12139 0.90735 0.0
C1555 C 0.04738 0.10675 0.90841 0.0
C1556 C 0.04562 0.0836 0.9019 0.0
C1557 C 0.06617 0.07519 0.89453 0.0
C1558 C 0.08765 0.09001 0.89334 0.0
H1559 H 0.0865 0.18046 0.8809 0.0
H1560 H 0.07205 0.15032 0.88347 0.0
H1561 H 0.07473 0.17226 0.89669 0.0
H1562 H 0.06995 0.13907 0.91251 0.0
H1563 H 0.03203 0.11359 0.91433 0.0
H1564 H 0.51689 0.45334 0.63598 0.0
H1565 H 0.54062 0.41976 0.64692 0.0
H1566 H 0.60059 0.42857 0.61916 0.0
H1567 H 0.57702 0.46156 0.60814 0.0
H1568 H 0.5587 0.3744 0.63103 0.0
H1569 H 0.63408 0.42613 0.65689 0.0
H1570 H 0.60399 0.44001 0.65314 0.0
H1571 H 0.62727 0.43668 0.64064 0.0
C1572 C 0.53535 0.4484 0.63241 0.0
C1573 C 0.54515 0.45994 0.62122 0.0
C1574 C 0.54881 0.42925 0.63862 0.0
C1575 C 0.57238 0.42194 0.63387 0.0
C1576 C 0.58255 0.43419 0.62304 0.0
H1577 H 0.68918 0.31485 0.63788 0.0
H1578 H 0.6614 0.35094 0.63544 0.0
C1579 C 0.56902 0.45294 0.61674 0.0
C1580 C 0.58561 0.39991 0.63923 0.0
H1581 H 0.64094 0.38252 0.65319 0.0
C1582 C 0.57643 0.37602 0.63614 0.0
C1583 C 0.60881 0.40231 0.64571 0.0
C1584 C 0.61913 0.42765 0.6494 0.0
C1585 C 0.59059 0.35439 0.63869 0.0
C1586 C 0.61425 0.35679 0.64484 0.0
C1587 C 0.62285 0.3807 0.64846 0.0
C1588 C 0.63112 0.335 0.64677 0.0
C1589 C 0.58075 0.32938 0.63407 0.0
C1590 C 0.62346 0.31414 0.65408 0.0
C1591 C 0.63918 0.2933 0.65534 0.0
C1592 C 0.66305 0.29312 0.6495 0.0
C1593 C 0.67092 0.31433 0.64248 0.0
C1594 C 0.65508 0.33502 0.6411 0.0
H1595 H 0.5655 0.33158 0.62679 0.0
H1596 H 0.59595 0.31797 0.62965 0.0
H1597 H 0.57303 0.31888 0.64248 0.0
H1598 H 0.60532 0.31396 0.65881 0.0
H1599 H 0.63267 0.27741 0.66097 0.0
H1600 H 0.28306 0.20936 0.20359 0.0
H1601 H 0.27894 0.21671 0.22682 0.0
H1602 H 0.22841 0.27818 0.21936 0.0
H1603 H 0.23222 0.27082 0.19585 0.0
H1604 H 0.29183 0.26109 0.23975 0.0
H1605 H 0.1916 0.23594 0.24708 0.0
H1606 H 0.20884 0.22706 0.23268 0.0
H1607 H 0.19776 0.25865 0.23455 0.0
C1608 C 0.27088 0.22438 0.20681 0.0
C1609 C 0.25801 0.23958 0.19782 0.0
C1610 C 0.26859 0.22853 0.22013 0.0
C1611 C 0.25333 0.24789 0.22479 0.0
C1612 C 0.24004 0.26291 0.21593 0.0
H1613 H 0.22289 0.2997 0.30275 0.0
H1614 H 0.22629 0.2944 0.27932 0.0
C1615 C 0.24227 0.25872 0.20251 0.0
C1616 C 0.25236 0.25271 0.23895 0.0
H1617 H 0.21358 0.2515 0.26533 0.0
C1618 C 0.27473 0.25902 0.24537 0.0
C1619 C 0.23003 0.24992 0.2462 0.0
C1620 C 0.20569 0.24233 0.23984 0.0
C1621 C 0.27535 0.2628 0.25887 0.0
C1622 C 0.25307 0.25979 0.26613 0.0
C1623 C 0.23065 0.25369 0.2597 0.0
C1624 C 0.2524 0.26346 0.28039 0.0
C1625 C 0.29972 0.27039 0.26521 0.0
C1626 C 0.26614 0.24786 0.28879 0.0
C1627 C 0.26432 0.25085 0.30229 0.0
C1628 C 0.24855 0.26937 0.30758 0.0
C1629 C 0.23515 0.28515 0.29906 0.0
C1630 C 0.23702 0.28217 0.28564 0.0
H1631 H 0.31342 0.27767 0.25799 0.0
H1632 H 0.29652 0.28498 0.27274 0.0
H1633 H 0.30817 0.2538 0.27003 0.0
H1634 H 0.27783 0.23303 0.2849 0.0
H1635 H 0.27476 0.23831 0.30856 0.0
H1636 H 0.95739 0.96079 0.5467 0.0
H1637 H 0.96295 0.96704 0.52345 0.0
H1638 H 0.01448 0.02762 0.53098 0.0
H1639 H 0.00933 0.02131 0.55448 0.0
H1640 H 0.95352 0.00969 0.5086 0.0
H1641 H 0.05369 0.98135 0.50618 0.0
H1642 H 0.03416 0.97486 0.52013 0.0
H1643 H 0.04682 0.00573 0.51771 0.0
C1644 C 0.96998 0.97547 0.54349 0.0
C1645 C 0.98304 0.99048 0.55251 0.0
C1646 C 0.97308 0.97901 0.53016 0.0
C1647 C 0.98935 0.99753 0.52551 0.0
C1648 C 0.00216 0.0129 0.53441 0.0
H1649 H 0.03122 0.05117 0.45023 0.0
H1650 H 0.02563 0.04197 0.47319 0.0
C1651 C 0.99907 0.00938 0.54782 0.0
C1652 C 0.99255 0.00074 0.51132 0.0
H1653 H 0.03564 0.99745 0.48684 0.0
C1654 C 0.97144 0.00693 0.50381 0.0
C1655 C 0.01591 0.99691 0.50514 0.0
C1656 C 0.03893 0.98913 0.51266 0.0
C1657 C 0.97321 0.01004 0.49029 0.0
C1658 C 0.99663 0.00647 0.48413 0.0
C1659 C 0.01769 1.00005 0.49162 0.0
C1660 C 1.00011 0.01107 0.47006 0.0
C1661 C 0.95021 0.01786 0.48276 0.0
C1662 C 0.98782 0.99645 0.46064 0.0
C1663 C 0.99093 0.00168 0.44738 0.0
C1664 C 0.00641 0.02159 0.44337 0.0
C1665 C 0.01902 0.03578 0.4529 0.0
C1666 C 0.01592 0.03054 0.46607 0.0
H1667 H 0.93499 0.02461 0.48926 0.0
H1668 H 0.95486 0.03294 0.47571 0.0
H1669 H 0.94301 0.00156 0.47719 0.0
H1670 H 0.97582 0.98106 0.46355 0.0
H1671 H 0.98104 0.99033 0.4403 0.0
H1672 H 0.19847 0.78542 0.69972 0.0
H1673 H 0.20577 0.78033 0.72291 0.0
H1674 H 0.27005 0.73377 0.71489 0.0
H1675 H 0.2631 0.73898 0.69144 0.0
H1676 H 0.20686 0.73611 0.73747 0.0
H1677 H 0.2974 0.78755 0.73991 0.0
H1678 H 0.27672 0.78954 0.72604 0.0
H1679 H 0.29629 0.76245 0.72826 0.0
C1680 C 0.21426 0.77411 0.7028 0.0
C1681 C 0.2303 0.76269 0.69367 0.0
C1682 C 0.21834 0.77121 0.7161 0.0
C1683 C 0.23856 0.75692 0.72059 0.0
C1684 C 0.25455 0.74523 0.71158 0.0
H1685 H 0.29297 0.71936 0.79676 0.0
H1686 H 0.28454 0.72351 0.77364 0.0
C1687 C 0.25049 0.74814 0.6982 0.0
C1688 C 0.24256 0.75424 0.73476 0.0
H1689 H 0.28346 0.76803 0.75926 0.0
C1690 C 0.22358 0.7431 0.74226 0.0
C1691 C 0.26432 0.76355 0.74094 0.0
C1692 C 0.2848 0.77665 0.73343 0.0
C1693 C 0.22599 0.74059 0.75579 0.0
C1694 C 0.24778 0.74984 0.76196 0.0
C1695 C 0.26673 0.76103 0.75447 0.0
C1696 C 0.25193 0.74709 0.77611 0.0
C1697 C 0.20551 0.72757 0.76333 0.0
C1698 C 0.23631 0.75906 0.7852 0.0
C1699 C 0.24103 0.75672 0.79856 0.0
C1700 C 0.26154 0.74249 0.80298 0.0
C1701 C 0.27701 0.73053 0.79377 0.0
C1702 C 0.27227 0.73285 0.7805 0.0
H1703 H 0.19271 0.71688 0.75686 0.0
H1704 H 0.2136 0.71452 0.77064 0.0
H1705 H 0.19424 0.7418 0.76861 0.0
H1706 H 0.22071 0.77047 0.78197 0.0
H1707 H 0.22883 0.76625 0.80538 0.0
H1708 H 0.48734 0.98504 0.05632 0.0
H1709 H 0.48482 0.9766 0.03286 0.0
H1710 H 0.53109 0.04122 0.02519 0.0
H1711 H 0.53394 0.04968 0.04836 0.0
H1712 H 0.46624 0.01005 0.01331 0.0
H1713 H 0.56584 0.98494 0.00465 0.0
H1714 H 0.55197 0.98505 0.02068 0.0
H1715 H 0.56157 0.01398 0.01322 0.0
C1716 C 0.49712 0.99732 0.04964 0.0
C1717 C 0.51088 0.01798 0.05425 0.0
C1718 C 0.49565 0.99249 0.03626 0.0
C1719 C 0.50812 0.00808 0.02735 0.0
C1720 C 0.52178 0.02867 0.03193 0.0
H1721 H 0.51779 0.01999 0.94291 0.0
H1722 H 0.52167 0.02709 0.96645 0.0
C1723 C 0.52321 0.03354 0.04521 0.0
C1724 C 0.5061 0.00374 0.01319 0.0
H1725 H 0.54091 0.99287 0.98588 0.0
C1726 C 0.4825 0.00607 0.00731 0.0
C1727 C 0.52744 0.99883 0.00542 0.0
C1728 C 0.55312 0.99532 0.01131 0.0
C1729 C 0.47971 0.00404 0.99378 0.0
C1730 C 0.50105 0.99917 0.98601 0.0
C1731 C 0.52465 0.99681 0.99188 0.0
C1732 C 0.49897 0.9951 0.97183 0.0
C1733 C 0.45403 0.00758 0.98789 0.0
C1734 C 0.48533 0.97458 0.96716 0.0
C1735 C 0.48311 0.97048 0.95384 0.0
C1736 C 0.4946 0.98676 0.94485 0.0
C1737 C 0.50863 0.00717 0.94956 0.0
C1738 C 0.51087 0.01124 0.96297 0.0
H1739 H 0.4412 0.01769 0.9946 0.0
H1740 H 0.45517 0.01814 0.9786 0.0
H1741 H 0.44571 0.98893 0.98582 0.0
H1742 H 0.47645 0.96164 0.97385 0.0
H1743 H 0.47228 0.95445 0.95063 0.0
H1744 H 0.28164 0.79738 0.30052 0.0
H1745 H 0.27758 0.79118 0.27718 0.0
H1746 H 0.22059 0.73522 0.28367 0.0
H1747 H 0.22434 0.74141 0.30724 0.0
H1748 H 0.28582 0.74599 0.26379 0.0
H1749 H 0.18921 0.78234 0.25624 0.0
H1750 H 0.20707 0.78882 0.27078 0.0
H1751 H 0.19236 0.75881 0.26865 0.0
C1752 C 0.26806 0.78384 0.29706 0.0
C1753 C 0.2533 0.76985 0.3058 0.0
C1754 C 0.26581 0.78034 0.28368 0.0
C1755 C 0.2487 0.7629 0.27871 0.0
C1756 C 0.23366 0.74906 0.28733 0.0
H1757 H 0.21303 0.71159 0.2016 0.0
H1758 H 0.21669 0.7188 0.22488 0.0
C1759 C 0.23588 0.75257 0.30079 0.0
C1760 C 0.2475 0.75866 0.26451 0.0
H1761 H 0.20913 0.76364 0.23809 0.0
C1762 C 0.26909 0.74989 0.25814 0.0
C1763 C 0.22566 0.76385 0.25722 0.0
C1764 C 0.20228 0.77418 0.26351 0.0
C1765 C 0.26929 0.74575 0.24467 0.0
C1766 C 0.24745 0.75095 0.23737 0.0
C1767 C 0.22587 0.75976 0.24373 0.0
C1768 C 0.24617 0.74642 0.22318 0.0
C1769 C 0.29265 0.73528 0.23841 0.0
C1770 C 0.26162 0.75961 0.21448 0.0
C1771 C 0.25967 0.75548 0.20106 0.0
C1772 C 0.24208 0.73824 0.19616 0.0
C1773 C 0.22676 0.72506 0.20498 0.0
C1774 C 0.22877 0.72915 0.21832 0.0
H1775 H 0.30559 0.72696 0.2457 0.0
H1776 H 0.28784 0.72073 0.2311 0.0
H1777 H 0.30276 0.75062 0.23334 0.0
H1778 H 0.2749 0.77335 0.21805 0.0
H1779 H 0.27163 0.76604 0.19454 0.0
H1780 H 0.48401 0.01001 0.44252 0.0
H1781 H 0.47813 0.01742 0.46591 0.0
H1782 H 0.53009 0.95777 0.47459 0.0
H1783 H 0.53587 0.95002 0.4515 0.0
H1784 H 0.48538 0.95464 0.48849 0.0
H1785 H 0.52768 0.04978 0.49169 0.0
H1786 H 0.5033 0.04609 0.47977 0.0
H1787 H 0.53236 0.0295 0.47784 0.0
C1788 C 0.49428 0.99859 0.44942 0.0
C1789 C 0.51037 0.97941 0.44511 0.0
C1790 C 0.49098 0.00291 0.46276 0.0
C1791 C 0.50386 0.98825 0.47195 0.0
C1792 C 0.51999 0.96927 0.46766 0.0
H1793 H 0.51472 0.97527 0.55613 0.0
H1794 H 0.51913 0.96969 0.53256 0.0
C1795 C 0.52325 0.96491 0.45441 0.0
C1796 C 0.50022 0.99191 0.48609 0.0
H1797 H 0.50992 0.03323 0.51093 0.0
C1798 C 0.49072 0.97182 0.49341 0.0
C1799 C 0.50728 0.01433 0.49244 0.0
C1800 C 0.51842 0.03613 0.48509 0.0
C1801 C 0.48794 0.97359 0.50695 0.0
C1802 C 0.49523 0.99591 0.51332 0.0
C1803 C 0.50449 0.0161 0.50599 0.0
C1804 C 0.49272 0.99897 0.52756 0.0
C1805 C 0.47686 0.95174 0.51429 0.0
C1806 C 0.47677 0.01751 0.53249 0.0
C1807 C 0.47428 0.0208 0.54588 0.0
C1808 C 0.48782 0.00567 0.55465 0.0
C1809 C 0.50393 0.98713 0.54967 0.0
C1810 C 0.5064 0.98385 0.53621 0.0
H1811 H 0.46698 0.93848 0.50771 0.0
H1812 H 0.49213 0.94133 0.51925 0.0
H1813 H 0.46348 0.95833 0.52183 0.0
H1814 H 0.46612 0.02939 0.52597 0.0
H1815 H 0.46172 0.03532 0.54932 0.0
H1816 H 0.21099 0.20522 0.79838 0.0
H1817 H 0.2162 0.20941 0.77497 0.0
H1818 H 0.27486 0.26383 0.78095 0.0
H1819 H 0.27005 0.25958 0.80457 0.0
H1820 H 0.21083 0.25211 0.75966 0.0
H1821 H 0.30699 0.21264 0.75619 0.0
H1822 H 0.28771 0.20907 0.77051 0.0
H1823 H 0.30379 0.23812 0.76751 0.0
C1824 C 0.22512 0.21806 0.79479 0.0
C1825 C 0.24021 0.23201 0.8034 0.0
C1826 C 0.228 0.22043 0.78137 0.0
C1827 C 0.24607 0.23669 0.77624 0.0
C1828 C 0.26109 0.25082 0.78474 0.0
H1829 H 0.29224 0.28168 0.70016 0.0
H1830 H 0.28428 0.27601 0.72323 0.0
C1831 C 0.25825 0.24845 0.79823 0.0
C1832 C 0.24878 0.23902 0.76196 0.0
H1833 H 0.29011 0.2307 0.73702 0.0
C1834 C 0.22811 0.24733 0.75467 0.0
C1835 C 0.27128 0.23256 0.75553 0.0
C1836 C 0.29366 0.22237 0.7628 0.0
C1837 C 0.22959 0.25005 0.74111 0.0
C1838 C 0.25223 0.24395 0.73471 0.0
C1839 C 0.27277 0.23533 0.74198 0.0
C1840 C 0.25564 0.2478 0.72058 0.0
C1841 C 0.20725 0.26011 0.73378 0.0
C1842 C 0.24198 0.23386 0.71139 0.0
C1843 C 0.24646 0.23706 0.69805 0.0
C1844 C 0.26478 0.25413 0.69376 0.0
C1845 C 0.27808 0.26824 0.70306 0.0
C1846 C 0.27358 0.26506 0.7163 0.0
H1847 H 0.19301 0.26838 0.7404 0.0
H1848 H 0.21316 0.2746 0.72665 0.0
H1849 H 0.19827 0.24459 0.7283 0.0
H1850 H 0.22826 0.22018 0.71454 0.0
H1851 H 0.23598 0.22585 0.69115 0.0
H1852 H 0.9697 0.05073 0.94954 0.0
H1853 H 0.97291 0.041 0.97256 0.0
H1854 H 0.01038 0.97153 0.96343 0.0
H1855 H 0.0076 0.98129 0.94013 0.0
H1856 H 0.95341 1.00038 0.98589 0.0
H1857 H 0.05726 0.00455 0.99002 0.0
H1858 H 0.04059 0.0166 0.97608 0.0
H1859 H 0.04561 0.98345 0.97781 0.0
C1860 C 0.97872 0.03336 0.95234 0.0
C1861 C 0.98847 0.01679 0.94294 0.0
C1862 C 0.98048 0.02784 0.96554 0.0
C1863 C 0.99206 0.0057 0.96969 0.0
C1864 C 0.00172 0.98895 0.9604 0.0
H1865 H 0.01905 0.94223 0.0452 0.0
H1866 H 0.01383 0.9508 0.02215 0.0
C1867 C 1.00003 0.99449 0.94711 0.0
C1868 C 0.9936 1.0003 0.98379 0.0
H1869 H 0.03484 0.99205 0.00879 0.0
C1870 C 0.9712 0.99857 0.99092 0.0
C1871 C 0.01685 0.99815 0.99029 0.0
C1872 C 0.04148 0.00099 0.98321 0.0
C1873 C 0.97143 0.99435 0.00439 0.0
C1874 C 0.99467 0.99213 0.01088 0.0
C1875 C 0.01706 0.99385 0.00375 0.0
C1876 C 0.9963 0.98693 0.02497 0.0
C1877 C 0.94687 0.9918 0.01155 0.0
C1878 C 0.98798 0.00444 0.03423 0.0
C1879 C 0.99092 0.99963 0.04755 0.0
C1880 C 0.00237 0.97729 0.05175 0.0
C1881 C 0.01027 0.95972 0.04237 0.0
C1882 C 0.00732 0.96453 0.02915 0.0
H1883 H 0.93088 0.98892 0.00479 0.0
H1884 H 0.94757 0.97586 0.0185 0.0
H1885 H 0.9433 0.00916 0.01721 0.0
H1886 H 0.97971 0.02202 0.03115 0.0
H1887 H 0.98472 0.01357 0.0545 0.0
H1888 H 0.79861 0.70719 0.69838 0.0
H1889 H 0.79255 0.71102 0.72174 0.0
H1890 H 0.73331 0.76467 0.7154 0.0
H1891 H 0.73899 0.76078 0.6918 0.0
H1892 H 0.79707 0.75372 0.73702 0.0
H1893 H 0.7013 0.71317 0.74002 0.0
H1894 H 0.72087 0.70982 0.72579 0.0
H1895 H 0.70447 0.73871 0.72874 0.0
C1896 C 0.78417 0.71977 0.70188 0.0
C1897 C 0.76921 0.73365 0.69317 0.0
C1898 C 0.78078 0.72193 0.71527 0.0
C1899 C 0.76234 0.7379 0.72028 0.0
C1900 C 0.74737 0.75189 0.71169 0.0
H1901 H 0.71491 0.78179 0.79639 0.0
H1902 H 0.72285 0.77622 0.77331 0.0
C1903 C 0.75071 0.74972 0.69822 0.0
C1904 C 0.75933 0.74018 0.73454 0.0
H1905 H 0.71776 0.73112 0.75932 0.0
C1906 C 0.77978 0.74869 0.74193 0.0
C1907 C 0.73681 0.7334 0.74088 0.0
C1908 C 0.71466 0.72304 0.73349 0.0
C1909 C 0.77809 0.75125 0.75549 0.0
C1910 C 0.75546 0.74478 0.76179 0.0
C1911 C 0.73511 0.73601 0.75442 0.0
C1912 C 0.75187 0.74839 0.77594 0.0
C1913 C 0.80021 0.76151 0.76292 0.0
C1914 C 0.76572 0.73458 0.7851 0.0
C1915 C 0.76126 0.73773 0.79844 0.0
C1916 C 0.74278 0.75461 0.80276 0.0
C1917 C 0.72922 0.76852 0.79348 0.0
C1918 C 0.73369 0.76539 0.78024 0.0
H1919 H 0.81437 0.77012 0.75637 0.0
H1920 H 0.79402 0.77579 0.77011 0.0
H1921 H 0.8094 0.74604 0.76834 0.0
H1922 H 0.77962 0.7211 0.78193 0.0
H1923 H 0.77194 0.72667 0.80533 0.0
H1924 H 0.77202 0.23509 0.19177 0.0
H1925 H 0.77663 0.22976 0.21538 0.0
H1926 H 0.72001 0.28611 0.22187 0.0
H1927 H 0.71548 0.29183 0.19854 0.0
H1928 H 0.76244 0.29163 0.2377 0.0
H1929 H 0.72461 0.19445 0.23886 0.0
H1930 H 0.7505 0.19955 0.22797 0.0
H1931 H 0.72103 0.21474 0.22492 0.0
C1932 C 0.76066 0.24641 0.19823 0.0
C1933 C 0.74327 0.26374 0.19323 0.0
C1934 C 0.7632 0.24324 0.2117 0.0
C1935 C 0.74837 0.25731 0.22033 0.0
C1936 C 0.73153 0.27501 0.21537 0.0
H1937 H 0.72735 0.26828 0.30443 0.0
H1938 H 0.72418 0.2739 0.28078 0.0
C1939 C 0.72896 0.27817 0.20199 0.0
C1940 C 0.75002 0.25369 0.23457 0.0
H1941 H 0.73864 0.21143 0.25878 0.0
C1942 C 0.75727 0.2741 0.24233 0.0
C1943 C 0.74306 0.23085 0.24054 0.0
C1944 C 0.73415 0.20866 0.23269 0.0
C1945 C 0.7581 0.27218 0.25594 0.0
C1946 C 0.75106 0.24937 0.26191 0.0
C1947 C 0.74388 0.22893 0.25415 0.0
C1948 C 0.75218 0.24587 0.27618 0.0
C1949 C 0.767 0.29438 0.26379 0.0
C1950 C 0.76843 0.22783 0.28135 0.0
C1951 C 0.77015 0.22447 0.29476 0.0
C1952 C 0.75558 0.23905 0.30333 0.0
C1953 C 0.73889 0.25683 0.29812 0.0
C1954 C 0.73718 0.26017 0.28462 0.0
H1955 H 0.77697 0.30834 0.25765 0.0
H1956 H 0.75059 0.3038 0.26827 0.0
H1957 H 0.77974 0.28828 0.27173 0.0
H1958 H 0.78007 0.21654 0.275 0.0
H1959 H 0.78315 0.21051 0.29838 0.0
H1960 H 0.7273 0.24614 0.80375 0.0
H1961 H 0.72117 0.24128 0.7802 0.0
H1962 H 0.78782 0.28484 0.77302 0.0
H1963 H 0.79427 0.28965 0.79628 0.0
H1964 H 0.716 0.28037 0.76116 0.0
H1965 H 0.79925 0.22056 0.75164 0.0
H1966 H 0.78647 0.22503 0.76775 0.0
H1967 H 0.80586 0.24881 0.76052 0.0
C1968 C 0.74069 0.25459 0.79716 0.0
C1969 C 0.76132 0.26818 0.80194 0.0
C1970 C 0.73715 0.25181 0.78373 0.0
C1971 C 0.7543 0.26237 0.77492 0.0
C1972 C 0.77469 0.27612 0.77966 0.0
H1973 H 0.76493 0.26829 0.69005 0.0
H1974 H 0.772 0.27498 0.71343 0.0
C1975 C 0.77822 0.27894 0.793 0.0
C1976 C 0.75068 0.25975 0.76073 0.0
H1977 H 0.77816 0.23693 0.73315 0.0
C1978 C 0.72948 0.27076 0.75503 0.0
C1979 C 0.7685 0.24742 0.75278 0.0
C1980 C 0.79121 0.23458 0.75847 0.0
C1981 C 0.72573 0.26998 0.74153 0.0
C1982 C 0.74345 0.25751 0.7336 0.0
C1983 C 0.76474 0.24664 0.73928 0.0
C1984 C 0.73929 0.25402 0.7195 0.0
C1985 C 0.70297 0.28273 0.73585 0.0
C1986 C 0.71884 0.23976 0.71527 0.0
C1987 C 0.7148 0.23588 0.70204 0.0
C1988 C 0.73122 0.24609 0.6927 0.0
C1989 C 0.75189 0.26026 0.69697 0.0
C1990 C 0.75596 0.26408 0.7103 0.0
H1991 H 0.69523 0.29711 0.74257 0.0
H1992 H 0.7075 0.29183 0.72642 0.0
H1993 H 0.68814 0.26853 0.7341 0.0
H1994 H 0.70607 0.23141 0.72223 0.0
H1995 H 0.69871 0.22479 0.69918 0.0
H1996 H 0.7733 0.7623 0.30634 0.0
H1997 H 0.77666 0.76831 0.28271 0.0
H1998 H 0.71952 0.71237 0.2766 0.0
H1999 H 0.71584 0.70632 0.29996 0.0
H2000 H 0.78759 0.73151 0.26298 0.0
H2001 H 0.69335 0.77401 0.25652 0.0
H2002 H 0.70848 0.7717 0.27219 0.0
H2003 H 0.69337 0.74477 0.26519 0.0
C2004 C 0.76148 0.75127 0.29996 0.0
C2005 C 0.74418 0.73397 0.30508 0.0
C2006 C 0.76341 0.75474 0.28649 0.0
C2007 C 0.74798 0.7411 0.27798 0.0
C2008 C 0.73118 0.72346 0.28303 0.0
H2009 H 0.72975 0.73266 0.19375 0.0
H2010 H 0.72625 0.72607 0.21734 0.0
C2011 C 0.72924 0.71997 0.29642 0.0
C2012 C 0.74954 0.74486 0.26375 0.0
H2013 H 0.71515 0.7625 0.23726 0.0
C2014 C 0.77185 0.73844 0.25735 0.0
C2015 C 0.72884 0.7537 0.25647 0.0
C2016 C 0.70471 0.76166 0.26293 0.0
C2017 C 0.77389 0.74028 0.24378 0.0
C2018 C 0.75321 0.74917 0.2365 0.0
C2019 C 0.73089 0.75554 0.24289 0.0
C2020 C 0.75487 0.75319 0.2223 0.0
C2021 C 0.79803 0.73234 0.23732 0.0
C2022 C 0.77168 0.77096 0.21738 0.0
C2023 C 0.7737 0.77479 0.20403 0.0
C2024 C 0.75882 0.76099 0.19525 0.0
C2025 C 0.74152 0.74353 0.20022 0.0
C2026 C 0.73951 0.73973 0.21367 0.0
H2027 H 0.80931 0.71987 0.2437 0.0
H2028 H 0.79428 0.72245 0.22802 0.0
H2029 H 0.80943 0.74923 0.23515 0.0
H2030 H 0.78329 0.78192 0.22391 0.0
H2031 H 0.78709 0.78855 0.2006 0.0
H2032 H 0.47049 0.44959 0.04698 0.0
H2033 H 0.47541 0.45805 0.0239 0.0
H2034 H 0.51887 0.52407 0.0327 0.0
H2035 H 0.51429 0.51564 0.05606 0.0
H2036 H 0.4601 0.50098 0.01028 0.0
H2037 H 0.56294 0.48504 0.00658 0.0
H2038 H 0.54475 0.47476 0.02041 0.0
H2039 H 0.55313 0.50722 0.01873 0.0
C2040 C 0.48121 0.46592 0.0441 0.0
C2041 C 0.49205 0.48194 0.05343 0.0
C2042 C 0.48394 0.4707 0.03086 0.0
C2043 C 0.49765 0.49152 0.02661 0.0
C2044 C 0.50852 0.50767 0.03582 0.0
H2045 H 0.53178 0.54641 0.94966 0.0
H2046 H 0.52718 0.53994 0.97295 0.0
C2047 C 0.5058 0.50288 0.04915 0.0
C2048 C 0.49998 0.4963 0.01249 0.0
H2049 H 0.54207 0.49835 0.98753 0.0
C2050 C 0.47801 0.50043 0.00528 0.0
C2051 C 0.52337 0.49547 0.00605 0.0
C2052 C 0.54742 0.49019 0.01328 0.0
C2053 C 0.47882 0.50398 0.99177 0.0
C2054 C 0.50218 0.50294 0.98531 0.0
C2055 C 0.52418 0.499 0.99253 0.0
C2056 C 0.50436 0.50664 0.97109 0.0
C2057 C 0.45474 0.50925 0.98455 0.0
C2058 C 0.49311 0.48991 0.9623 0.0
C2059 C 0.49564 0.49354 0.94887 0.0
C2060 C 0.50959 0.5139 0.94406 0.0
C2061 C 0.52087 0.53051 0.95297 0.0
C2062 C 0.51832 0.52687 0.96632 0.0
H2063 H 0.4395 0.51523 0.99124 0.0
H2064 H 0.45756 0.52407 0.9771 0.0
H2065 H 0.44854 0.49194 0.9795 0.0
H2066 H 0.48259 0.47392 0.96583 0.0
H2067 H 0.48681 0.48035 0.9423 0.0
H2068 H 0.01744 0.51248 0.44148 0.0
H2069 H 0.02316 0.52002 0.46488 0.0
H2070 H 0.97628 0.45634 0.47357 0.0
H2071 H 0.9706 0.44851 0.4505 0.0
H2072 H 0.98505 0.52844 0.48424 0.0
H2073 H 0.04055 0.4427 0.49455 0.0
H2074 H 0.0363 0.45484 0.47829 0.0
H2075 H 0.01187 0.43685 0.48592 0.0
C2076 C 0.00843 0.50006 0.44838 0.0
C2077 C 0.9937 0.47981 0.44407 0.0
C2078 C 0.01171 0.5044 0.46172 0.0
C2079 C 1.00049 0.48844 0.4709 0.0
C2080 C 0.98553 0.46853 0.46663 0.0
H2081 H 0.98957 0.47842 0.55513 0.0
H2082 H 0.9849 0.47228 0.53158 0.0
C2083 C 0.98223 0.4642 0.45339 0.0
C2084 C 0.00371 0.49269 0.48502 0.0
H2085 H 0.0243 0.46462 0.5129 0.0
C2086 C 0.99384 0.51464 0.49051 0.0
C2087 C 0.01501 0.47449 0.49314 0.0
C2088 C 0.02675 0.45099 0.48768 0.0
C2089 C 0.99446 0.51863 0.504 0.0
C2090 C 0.00558 0.50034 0.51213 0.0
C2091 C 0.0156 0.47847 0.50662 0.0
C2092 C 0.00798 0.50407 0.52632 0.0
C2093 C 0.98273 0.54213 0.50947 0.0
C2094 C 0.02277 0.5237 0.53108 0.0
C2095 C 0.02551 0.52723 0.54444 0.0
C2096 C 0.0136 0.51108 0.55336 0.0
C2097 C 0.99893 0.49122 0.54855 0.0
C2098 C 0.99624 0.48769 0.53511 0.0
H2099 H 0.96942 0.55084 0.50249 0.0
H2100 H 0.97262 0.53809 0.51868 0.0
H2101 H 0.99769 0.55599 0.5116 0.0
H2102 H 0.03239 0.53623 0.52445 0.0
H2103 H 0.03705 0.54268 0.54773 0.0
H2104 H 0.96877 0.54805 0.04737 0.0
H2105 H 0.97376 0.53959 0.0243 0.0
H2106 H 0.02337 0.47802 0.03304 0.0
H2107 H 0.01869 0.48647 0.05642 0.0
H2108 H 0.04091 0.51221 0.01343 0.0
H2109 H 0.94349 0.48069 0.00379 0.0
H2110 H 0.94557 0.51013 0.0122 0.0
H2111 H 0.95661 0.48201 0.01997 0.0
C2112 C 0.98072 0.53259 0.04448 0.0
C2113 C 0.99329 0.51786 0.0538 0.0
C2114 C 0.98339 0.52772 0.03125 0.0
C2115 C 0.99857 0.50795 0.027 0.0
C2116 C 0.01139 0.49326 0.03618 0.0
H2117 H 0.0407 0.4541 0.95117 0.0
H2118 H 0.03589 0.46237 0.97427 0.0
C2119 C 0.00868 0.49809 0.04951 0.0
C2120 C 0.00154 0.50341 0.01289 0.0
H2121 H 0.96874 0.48961 0.98528 0.0
C2122 C 0.02521 0.50706 0.00727 0.0
C2123 C 0.98092 0.49696 0.00491 0.0
C2124 C 0.95525 0.49199 0.01052 0.0
C2125 C 0.02874 0.50484 0.9938 0.0
C2126 C 0.00811 0.49842 0.98581 0.0
C2127 C 0.98445 0.49474 0.99143 0.0
C2128 C 0.01105 0.49401 0.97169 0.0
C2129 C 0.05441 0.50982 0.98818 0.0
C2130 C 0.99816 0.50878 0.96256 0.0
C2131 C 0.00076 0.50405 0.94922 0.0
C2132 C 0.01611 0.48432 0.94485 0.0
C2133 C 0.02878 0.46953 0.95411 0.0
C2134 C 0.02621 0.47429 0.96736 0.0
H2135 H 0.0662 0.52105 0.99493 0.0
H2136 H 0.06405 0.49168 0.98645 0.0
H2137 H 0.05304 0.51987 0.97875 0.0
H2138 H 0.98618 0.52398 0.96576 0.0
H2139 H 0.99068 0.51572 0.94236 0.0
H2140 H 0.51488 0.49066 0.44109 0.0
H2141 H 0.51903 0.48142 0.46442 0.0
H2142 H 0.46537 0.53946 0.47324 0.0
H2143 H 0.46089 0.54864 0.45022 0.0
H2144 H 0.53425 0.51624 0.48404 0.0
H2145 H 0.43902 0.47892 0.49376 0.0
H2146 H 0.45193 0.48116 0.47756 0.0
H2147 H 0.43904 0.50844 0.48537 0.0
C2148 C 0.50378 0.50124 0.448 0.0
C2149 C 0.48757 0.52038 0.44377 0.0
C2150 C 0.5062 0.49597 0.4613 0.0
C2151 C 0.49222 0.50954 0.4705 0.0
C2152 C 0.47594 0.52844 0.46628 0.0
H2153 H 0.48263 0.52172 0.55461 0.0
H2154 H 0.47827 0.5276 0.53102 0.0
C2155 C 0.47358 0.53377 0.45308 0.0
C2156 C 0.49546 0.50514 0.4846 0.0
H2157 H 0.46332 0.49051 0.51231 0.0
C2158 C 0.51885 0.51034 0.49022 0.0
C2159 C 0.47523 0.4977 0.49262 0.0
C2160 C 0.44994 0.491 0.48702 0.0
C2161 C 0.5224 0.50889 0.50372 0.0
C2162 C 0.50209 0.50168 0.51174 0.0
C2163 C 0.47877 0.49626 0.50612 0.0
C2164 C 0.50499 0.49866 0.52596 0.0
C2165 C 0.54766 0.51566 0.50932 0.0
C2166 C 0.52123 0.48032 0.53084 0.0
C2167 C 0.52377 0.47693 0.54422 0.0
C2168 C 0.50997 0.49173 0.55303 0.0
C2169 C 0.4936 0.5101 0.54811 0.0
C2170 C 0.49105 0.51345 0.53465 0.0
H2171 H 0.55898 0.52697 0.5024 0.0
H2172 H 0.54557 0.52636 0.51853 0.0
H2173 H 0.55821 0.49822 0.51149 0.0
H2174 H 0.53178 0.46841 0.52429 0.0
H2175 H 0.5365 0.46253 0.54761 0.0
H2176 H 0.32689 0.2098 0.38287 0.0
H2177 H 0.35244 0.17239 0.38622 0.0
H2178 H 0.32325 0.14034 0.35082 0.0
H2179 H 0.29765 0.17795 0.34729 0.0
H2180 H 0.33664 0.12212 0.38878 0.0
H2181 H 0.39986 0.13501 0.34626 0.0
H2182 H 0.38018 0.15988 0.3524 0.0
H2183 H 0.36686 0.13521 0.34273 0.0
C2184 C 0.3259 0.19487 0.37575 0.0
C2185 C 0.31029 0.19695 0.36477 0.0
C2186 C 0.34051 0.17346 0.37771 0.0
C2187 C 0.33998 0.1537 0.36871 0.0
C2188 C 0.32427 0.15555 0.35778 0.0
H2189 H 0.42732 0.01497 0.3667 0.0
H2190 H 0.39664 0.04801 0.36227 0.0
C2191 C 0.30957 0.17701 0.35581 0.0
C2192 C 0.35576 0.13117 0.37094 0.0
H2193 H 0.40578 0.09858 0.3589 0.0
C2194 C 0.35172 0.11692 0.38223 0.0
C2195 C 0.37537 0.12438 0.36236 0.0
C2196 C 0.38106 0.13947 0.3503 0.0
C2197 C 0.36679 0.09608 0.3852 0.0
C2198 C 0.38676 0.08961 0.37678 0.0
C2199 C 0.39048 0.10357 0.36535 0.0
C2200 C 0.4045 0.06895 0.37983 0.0
C2201 C 0.36103 0.08104 0.39727 0.0
C2202 C 0.41919 0.06976 0.39116 0.0
C2203 C 0.43672 0.05088 0.39374 0.0
C2204 C 0.44007 0.03089 0.38498 0.0
C2205 C 0.42521 0.03006 0.37368 0.0
C2206 C 0.40768 0.04894 0.37111 0.0
H2207 H 0.3413 0.08371 0.40047 0.0
H2208 H 0.36435 0.06073 0.39563 0.0
H2209 H 0.37343 0.08735 0.40529 0.0
H2210 H 0.41747 0.08529 0.39789 0.0
H2211 H 0.44793 0.05221 0.4025 0.0
H2212 H 0.05168 0.06231 0.5943 0.0
H2213 H 0.0837 0.09395 0.59895 0.0
H2214 H 0.10723 0.052 0.63266 0.0
H2215 H 0.07551 0.02015 0.62803 0.0
H2216 H 0.08717 0.1228 0.62162 0.0
H2217 H 0.1737 0.06667 0.61424 0.0
H2218 H 0.14344 0.05666 0.60833 0.0
H2219 H 0.15139 0.0529 0.6252 0.0
C2220 C 0.06386 0.05964 0.60261 0.0
C2221 C 0.06102 0.03865 0.61078 0.0
C2222 C 0.08212 0.07777 0.60527 0.0
C2223 C 0.09804 0.07521 0.61607 0.0
C2224 C 0.09548 0.05414 0.62414 0.0
H2225 H 0.21292 0.17176 0.65027 0.0
H2226 H 0.18315 0.13779 0.64572 0.0
C2227 C 0.07722 0.036 0.6215 0.0
C2228 C 0.11635 0.09527 0.61929 0.0
H2229 H 0.17881 0.10717 0.62345 0.0
C2230 C 0.10722 0.11942 0.62196 0.0
C2231 C 0.14248 0.09076 0.61984 0.0
C2232 C 0.15343 0.06541 0.61665 0.0
C2233 C 0.12346 0.13913 0.62529 0.0
C2234 C 0.14961 0.13471 0.62571 0.0
C2235 C 0.15876 0.11051 0.62314 0.0
C2236 C 0.16778 0.15515 0.62844 0.0
C2237 C 0.11241 0.16442 0.62855 0.0
C2238 C 0.16928 0.17597 0.62014 0.0
C2239 C 0.18617 0.19537 0.62272 0.0
C2240 C 0.20211 0.19431 0.63361 0.0
C2241 C 0.20085 0.17323 0.64183 0.0
C2242 C 0.18389 0.15379 0.63923 0.0
H2243 H 0.09233 0.16294 0.63131 0.0
H2244 H 0.12281 0.17347 0.63665 0.0
H2245 H 0.1137 0.17677 0.61989 0.0
H2246 H 0.15742 0.17718 0.61161 0.0
H2247 H 0.18673 0.2112 0.61612 0.0
H2248 H 0.22283 0.82648 0.8807 0.0
H2249 H 0.18931 0.85664 0.88497 0.0
H2250 H 0.15362 0.83623 0.84885 0.0
H2251 H 0.1869 0.8057 0.84457 0.0
H2252 H 0.17338 0.89788 0.8707 0.0
H2253 H 0.09707 0.82768 0.87525 0.0
H2254 H 0.1298 0.81908 0.87537 0.0
H2255 H 0.11424 0.8258 0.86025 0.0
C2256 C 0.20787 0.82837 0.87365 0.0
C2257 C 0.20748 0.8135 0.86233 0.0
C2258 C 0.18872 0.84566 0.87611 0.0
C2259 C 0.16873 0.8484 0.86735 0.0
C2260 C 0.16857 0.83404 0.85589 0.0
H2261 H 0.03513 0.94047 0.86437 0.0
H2262 H 0.06963 0.91139 0.86027 0.0
C2263 C 0.1877 0.81669 0.85342 0.0
C2264 C 0.14816 0.86639 0.8702 0.0
H2265 H 0.08491 0.87046 0.87505 0.0
C2266 C 0.15405 0.8919 0.87171 0.0
C2267 C 0.12294 0.85853 0.87154 0.0
C2268 C 0.11558 0.83126 0.87065 0.0
C2269 C 0.13534 0.90982 0.87424 0.0
C2270 C 0.11011 0.90197 0.87551 0.0
C2271 C 0.10425 0.87646 0.87405 0.0
C2272 C 0.0894 0.91994 0.8781 0.0
C2273 C 0.14266 0.93709 0.8752 0.0
C2274 C 0.08889 0.93426 0.88957 0.0
C2275 C 0.06915 0.95098 0.89196 0.0
C2276 C 0.04947 0.95358 0.88294 0.0
C2277 C 0.04997 0.93901 0.87152 0.0
C2278 C 0.06968 0.92234 0.86916 0.0
H2279 H 0.16139 0.94067 0.87085 0.0
H2280 H 0.12865 0.94923 0.87027 0.0
H2281 H 0.14345 0.94261 0.8856 0.0
H2282 H 0.10365 0.93235 0.89674 0.0
H2283 H 0.0693 0.96181 0.90087 0.0
H2284 H 0.31534 0.80747 0.15508 0.0
H2285 H 0.34508 0.84134 0.15051 0.0
H2286 H 0.3085 0.85526 0.11381 0.0
H2287 H 0.27852 0.8218 0.11835 0.0
H2288 H 0.37841 0.84515 0.13002 0.0
H2289 H 0.31202 0.92518 0.12963 0.0
H2290 H 0.30382 0.89484 0.13615 0.0
H2291 H 0.3032 0.90017 0.11888 0.0
C2292 C 0.31347 0.81789 0.14609 0.0
C2293 C 0.29447 0.81196 0.13711 0.0
C2294 C 0.33052 0.83721 0.14349 0.0
C2295 C 0.32883 0.85105 0.13189 0.0
C2296 C 0.30986 0.8452 0.12293 0.0
H2297 H 0.44732 0.94147 0.09684 0.0
H2298 H 0.41605 0.90919 0.10177 0.0
C2299 C 0.2928 0.82594 0.12553 0.0
C2300 C 0.34744 0.87097 0.12894 0.0
H2301 H 0.35314 0.93322 0.12166 0.0
C2302 C 0.37291 0.86443 0.12824 0.0
C2303 C 0.34027 0.89617 0.12675 0.0
C2304 C 0.31337 0.90463 0.128 0.0
C2305 C 0.39136 0.88232 0.12522 0.0
C2306 C 0.38409 0.90735 0.12261 0.0
C2307 C 0.35866 0.91397 0.12351 0.0
C2308 C 0.40265 0.92714 0.11934 0.0
C2309 C 0.4185 0.87435 0.1251 0.0
C2310 C 0.40499 0.94832 0.12734 0.0
C2311 C 0.42267 0.96687 0.1245 0.0
C2312 C 0.43837 0.96468 0.11355 0.0
C2313 C 0.43566 0.94366 0.10539 0.0
C2314 C 0.4179 0.92511 0.10824 0.0
H2315 H 0.42142 0.85652 0.13049 0.0
H2316 H 0.42459 0.87136 0.11489 0.0
H2317 H 0.43066 0.88902 0.12946 0.0
H2318 H 0.39334 0.95034 0.13591 0.0
H2319 H 0.42417 0.98282 0.13097 0.0
H2320 H 0.69776 0.80652 0.65245 0.0
H2321 H 0.66692 0.83931 0.64776 0.0
H2322 H 0.70721 0.85895 0.61286 0.0
H2323 H 0.73831 0.82653 0.61754 0.0
H2324 H 0.69158 0.90058 0.62693 0.0
H2325 H 0.61324 0.83359 0.61946 0.0
H2326 H 0.62861 0.83064 0.63493 0.0
H2327 H 0.64557 0.82372 0.62025 0.0
C2328 C 0.70015 0.81789 0.64381 0.0
C2329 C 0.72042 0.81374 0.63532 0.0
C2330 C 0.68241 0.83653 0.64111 0.0
C2331 C 0.6845 0.85125 0.62983 0.0
C2332 C 0.70514 0.8477 0.62157 0.0
H2333 H 0.56447 0.93868 0.59464 0.0
H2334 H 0.5987 0.90921 0.59893 0.0
C2335 C 0.7229 0.82912 0.62427 0.0
C2336 C 0.66507 0.87015 0.62652 0.0
H2337 H 0.60277 0.8768 0.61962 0.0
C2338 C 0.67217 0.8954 0.62531 0.0
C2339 C 0.63983 0.8633 0.62419 0.0
C2340 C 0.63132 0.83632 0.62465 0.0
C2341 C 0.65461 0.91404 0.62206 0.0
C2342 C 0.62921 0.90729 0.62016 0.0
C2343 C 0.62221 0.88199 0.62116 0.0
C2344 C 0.60949 0.92614 0.61722 0.0
C2345 C 0.66351 0.94073 0.62048 0.0
C2346 C 0.6042 0.94547 0.62607 0.0
C2347 C 0.58472 0.96239 0.62363 0.0
C2348 C 0.56996 0.96018 0.61234 0.0
C2349 C 0.57548 0.94095 0.60342 0.0
C2350 C 0.59501 0.92406 0.60586 0.0
H2351 H 0.68402 0.94162 0.61864 0.0
H2352 H 0.65359 0.95021 0.61236 0.0
H2353 H 0.65959 0.95127 0.62957 0.0
H2354 H 0.61476 0.94714 0.63503 0.0
H2355 H 0.58092 0.97687 0.63075 0.0
H2356 H 0.92627 0.96924 0.39725 0.0
H2357 H 0.89409 0.93795 0.39212 0.0
H2358 H 0.94315 0.90467 0.36359 0.0
H2359 H 0.97516 0.93599 0.36847 0.0
H2360 H 0.8947 0.9106 0.35453 0.0
H2361 H 0.89538 0.86428 0.40297 0.0
H2362 H 0.88946 0.89743 0.4033 0.0
H2363 H 0.91944 0.88601 0.39795 0.0
C2364 C 0.93022 0.95523 0.3899 0.0
C2365 C 0.95336 0.95506 0.38332 0.0
C2366 C 0.91184 0.93729 0.38702 0.0
C2367 C 0.91634 0.91876 0.37759 0.0
C2368 C 0.93929 0.91876 0.37092 0.0
H2369 H 0.84713 0.77558 0.36523 0.0
H2370 H 0.87395 0.81139 0.37012 0.0
C2371 C 0.9576 0.93667 0.37375 0.0
C2372 C 0.89729 0.89926 0.37459 0.0
H2373 H 0.86586 0.8495 0.38768 0.0
C2374 C 0.88828 0.8973 0.36179 0.0
C2375 C 0.88914 0.88178 0.38405 0.0
C2376 C 0.89897 0.88224 0.39781 0.0
C2377 C 0.87155 0.87819 0.35815 0.0
C2378 C 0.86328 0.8608 0.36762 0.0
C2379 C 0.87208 0.86295 0.38045 0.0
C2380 C 0.84675 0.83931 0.3643 0.0
C2381 C 0.86356 0.87624 0.3441 0.0
C2382 C 0.82245 0.84306 0.35938 0.0
C2383 C 0.80702 0.82253 0.35649 0.0
C2384 C 0.81557 0.79788 0.35857 0.0
C2385 C 0.83991 0.79427 0.3635 0.0
C2386 C 0.85529 0.81475 0.36634 0.0
H2387 H 0.87593 0.88733 0.33757 0.0
H2388 H 0.86365 0.85641 0.3408 0.0
H2389 H 0.84419 0.88356 0.34308 0.0
H2390 H 0.81529 0.86186 0.35795 0.0
H2391 H 0.78832 0.82596 0.35279 0.0
H2392 H 0.79082 0.17404 0.14705 0.0
H2393 H 0.81886 0.13895 0.14191 0.0
H2394 H 0.86728 0.18909 0.12066 0.0
H2395 H 0.8393 0.22403 0.12553 0.0
H2396 H 0.85748 0.14566 0.10721 0.0
H2397 H 0.8875 0.12439 0.15779 0.0
H2398 H 0.85419 0.12408 0.15518 0.0
H2399 H 0.87128 0.15294 0.15354 0.0
C2400 C 0.8075 0.1776 0.14134 0.0
C2401 C 0.81284 0.20188 0.13674 0.0
C2402 C 0.82357 0.15754 0.13845 0.0
C2403 C 0.84534 0.16144 0.13102 0.0
C2404 C 0.85062 0.18563 0.12642 0.0
H2405 H 0.97951 0.07406 0.12225 0.0
H2406 H 0.94658 0.10411 0.12761 0.0
C2407 C 0.83459 0.20562 0.12925 0.0
C2408 C 0.86259 0.14043 0.1278 0.0
H2409 H 0.90266 0.09767 0.14124 0.0
C2410 C 0.86728 0.13507 0.11464 0.0
C2411 C 0.87553 0.1268 0.13752 0.0
C2412 C 0.87211 0.13241 0.1518 0.0
C2413 C 0.88474 0.11668 0.11093 0.0
C2414 C 0.89757 0.10293 0.12064 0.0
C2415 C 0.89267 0.10809 0.13381 0.0
C2416 C 0.91725 0.0842 0.11738 0.0
C2417 C 0.88996 0.1128 0.09664 0.0
C2418 C 0.91171 0.06283 0.10992 0.0
C2419 C 0.9306 0.04561 0.10675 0.0
C2420 C 0.95535 0.04934 0.11109 0.0
C2421 C 0.9607 0.0706 0.11871 0.0
C2422 C 0.94186 0.0878 0.12183 0.0
H2423 H 0.88306 0.12872 0.09065 0.0
H2424 H 0.91036 0.11046 0.09485 0.0
H2425 H 0.8803 0.09554 0.09329 0.0
H2426 H 0.89275 0.05941 0.10659 0.0
H2427 H 0.92579 0.02935 0.10095 0.0
H2428 H 0.57502 0.04456 0.90229 0.0
H2429 H 0.60991 0.07308 0.89757 0.0
H2430 H 0.57188 0.09857 0.86299 0.0
H2431 H 0.53715 0.07007 0.86754 0.0
H2432 H 0.62277 0.08689 0.85901 0.0
H2433 H 0.60973 0.14985 0.90158 0.0
H2434 H 0.61252 0.11708 0.90538 0.0
H2435 H 0.58591 0.12807 0.89631 0.0
C2436 C 0.57405 0.05631 0.89371 0.0
C2437 C 0.55322 0.0551 0.88533 0.0
C2438 C 0.59395 0.07267 0.89106 0.0
C2439 C 0.59334 0.08817 0.88001 0.0
C2440 C 0.57269 0.08684 0.87159 0.0
H2441 H 0.68655 0.20203 0.84413 0.0
H2442 H 0.65494 0.17024 0.84918 0.0
C2443 C 0.55282 0.07055 0.87423 0.0
C2444 C 0.6143 0.10558 0.87705 0.0
H2445 H 0.64498 0.15749 0.88824 0.0
C2446 C 0.62765 0.10234 0.86539 0.0
C2447 C 0.62064 0.12568 0.88541 0.0
C2448 C 0.60636 0.13061 0.89782 0.0
C2449 C 0.64727 0.11857 0.8619 0.0
C2450 C 0.65341 0.13886 0.87018 0.0
C2451 C 0.64025 0.14193 0.88191 0.0
C2452 C 0.67314 0.15739 0.86678 0.0
C2453 C 0.6615 0.11364 0.84947 0.0
C2454 C 0.69372 0.16098 0.87508 0.0
C2455 C 0.71176 0.17921 0.87226 0.0
C2456 C 0.7095 0.19438 0.86111 0.0
C2457 C 0.68896 0.1906 0.85275 0.0
C2458 C 0.67092 0.17233 0.85559 0.0
H2459 H 0.65924 0.09393 0.84616 0.0
H2460 H 0.65418 0.12609 0.8417 0.0
H2461 H 0.6818 0.1176 0.85072 0.0
H2462 H 0.69575 0.14973 0.88379 0.0
H2463 H 0.7273 0.18162 0.87892 0.0
H2464 H 0.83924 0.72291 0.86846 0.0
H2465 H 0.86851 0.68924 0.87375 0.0
H2466 H 0.81737 0.63498 0.85753 0.0
H2467 H 0.78805 0.66872 0.85196 0.0
H2468 H 0.86203 0.64856 0.88971 0.0
H2469 H 0.88288 0.61778 0.83922 0.0
H2470 H 0.86699 0.64686 0.84277 0.0
H2471 H 0.8502 0.61767 0.84343 0.0
C2472 C 0.83421 0.70385 0.86594 0.0
C2473 C 0.81132 0.69855 0.85972 0.0
C2474 C 0.85098 0.6846 0.869 0.0
C2475 C 0.8453 0.6596 0.86591 0.0
C2476 C 0.82238 0.65417 0.85978 0.0
H2477 H 0.9314 0.53325 0.8983 0.0
H2478 H 0.89748 0.56255 0.89296 0.0
C2479 C 0.80559 0.67347 0.85665 0.0
C2480 C 0.86334 0.63939 0.86933 0.0
H2481 H 0.90091 0.59404 0.85623 0.0
C2482 C 0.87047 0.63656 0.8824 0.0
C2483 C 0.87451 0.62391 0.85976 0.0
C2484 C 0.86848 0.62677 0.84549 0.0
C2485 C 0.8886 0.61886 0.88617 0.0
C2486 C 0.89961 0.60323 0.87662 0.0
C2487 C 0.89231 0.6059 0.86355 0.0
C2488 C 0.91983 0.58507 0.87983 0.0
C2489 C 0.89644 0.61768 0.90026 0.0
C2490 C 0.94349 0.58762 0.87401 0.0
C2491 C 0.9628 0.57086 0.87696 0.0
C2492 C 0.95889 0.55107 0.88578 0.0
C2493 C 0.9351 0.54839 0.89154 0.0
C2494 C 0.91572 0.56518 0.88854 0.0
H2495 H 0.89061 0.63469 0.90572 0.0
H2496 H 0.88751 0.60119 0.90493 0.0
H2497 H 0.91709 0.61557 0.90113 0.0
H2498 H 0.9471 0.60278 0.86725 0.0
H2499 H 0.98084 0.57349 0.87232 0.0
H2500 H 0.67889 0.70787 0.11931 0.0
H2501 H 0.65327 0.67081 0.1152 0.0
H2502 H 0.68391 0.63521 0.14934 0.0
H2503 H 0.70961 0.67247 0.15363 0.0
H2504 H 0.66896 0.62065 0.11117 0.0
H2505 H 0.60733 0.62996 0.15458 0.0
H2506 H 0.62682 0.65532 0.14883 0.0
H2507 H 0.64048 0.62977 0.15773 0.0
C2508 C 0.6802 0.69222 0.12599 0.0
C2509 C 0.69623 0.69321 0.13685 0.0
C2510 C 0.66556 0.67101 0.12359 0.0
C2511 C 0.66647 0.65038 0.13203 0.0
C2512 C 0.68263 0.65111 0.14282 0.0
H2513 H 0.57711 0.51293 0.13128 0.0
H2514 H 0.60867 0.54482 0.13624 0.0
C2515 C 0.69737 0.67236 0.14522 0.0
C2516 C 0.65049 0.62817 0.12939 0.0
H2517 H 0.60048 0.59503 0.141 0.0
C2518 C 0.65404 0.61497 0.11771 0.0
C2519 C 0.6311 0.62077 0.13795 0.0
C2520 C 0.62597 0.63475 0.15044 0.0
C2521 C 0.63864 0.59461 0.11434 0.0
C2522 C 0.61885 0.58759 0.12275 0.0
C2523 C 0.61565 0.60045 0.13456 0.0
C2524 C 0.60069 0.56754 0.1193 0.0
C2525 C 0.64384 0.5807 0.10184 0.0
C2526 C 0.58568 0.56972 0.10814 0.0
C2527 C 0.56765 0.5515 0.10525 0.0
C2528 C 0.56412 0.53082 0.11354 0.0
C2529 C 0.57934 0.52858 0.12466 0.0
C2530 C 0.59738 0.54681 0.12753 0.0
H2531 H 0.66352 0.58338 0.09858 0.0
H2532 H 0.64023 0.56031 0.10296 0.0
H2533 H 0.63133 0.588 0.09409 0.0
H2534 H 0.5875 0.58583 0.10179 0.0
H2535 H 0.55616 0.5539 0.09665 0.0
H2536 H 0.70618 0.32964 0.34506 0.0
H2537 H 0.68054 0.36684 0.34968 0.0
H2538 H 0.64698 0.32876 0.38233 0.0
H2539 H 0.67248 0.2918 0.3779 0.0
H2540 H 0.62752 0.37041 0.35077 0.0
H2541 H 0.67048 0.39538 0.39815 0.0
H2542 H 0.68525 0.37421 0.38677 0.0
H2543 H 0.66043 0.36331 0.39717 0.0
C2544 C 0.69341 0.32924 0.35325 0.0
C2545 C 0.69147 0.30776 0.36114 0.0
C2546 C 0.67878 0.3505 0.35587 0.0
C2547 C 0.66217 0.35071 0.36648 0.0
C2548 C 0.66006 0.32922 0.37427 0.0
H2549 H 0.54902 0.4469 0.39971 0.0
H2550 H 0.57917 0.41382 0.39441 0.0
C2551 C 0.67458 0.30802 0.37165 0.0
C2552 C 0.64634 0.37298 0.36924 0.0
H2553 H 0.63176 0.41541 0.39297 0.0
C2554 C 0.62861 0.38046 0.35993 0.0
C2555 C 0.64777 0.38599 0.38122 0.0
C2556 C 0.66716 0.3795 0.39136 0.0
C2557 C 0.61167 0.40006 0.36245 0.0
C2558 C 0.61281 0.41279 0.37453 0.0
C2559 C 0.63085 0.40558 0.38375 0.0
C2560 C 0.5951 0.43328 0.3779 0.0
C2561 C 0.59211 0.40636 0.35236 0.0
C2562 C 0.5944 0.45542 0.37053 0.0
C2563 C 0.57717 0.47435 0.37352 0.0
C2564 C 0.56039 0.47158 0.38399 0.0
C2565 C 0.5616 0.44963 0.39156 0.0
C2566 C 0.57883 0.4307 0.38855 0.0
H2567 H 0.58986 0.39107 0.34511 0.0
H2568 H 0.57365 0.41001 0.35699 0.0
H2569 H 0.59787 0.42356 0.34708 0.0
H2570 H 0.60714 0.45805 0.36244 0.0
H2571 H 0.5769 0.49107 0.36754 0.0
H2572 H 0.92905 0.47187 0.63194 0.0
H2573 H 0.89655 0.44036 0.63565 0.0
H2574 H 0.90606 0.41317 0.59645 0.0
H2575 H 0.93895 0.44435 0.59271 0.0
H2576 H 0.85128 0.43106 0.62327 0.0
H2577 H 0.91562 0.34986 0.6181 0.0
H2578 H 0.92682 0.38162 0.6198 0.0
H2579 H 0.91552 0.37058 0.60434 0.0
C2580 C 0.92421 0.45925 0.62408 0.0
C2581 C 0.93681 0.4605 0.61206 0.0
C2582 C 0.90559 0.44125 0.62622 0.0
C2583 C 0.89919 0.42409 0.61642 0.0
C2584 C 0.91109 0.42584 0.60426 0.0
H2585 H 0.79797 0.29764 0.61113 0.0
H2586 H 0.82726 0.33195 0.60715 0.0
C2587 C 0.92979 0.44379 0.60211 0.0
C2588 C 0.88029 0.40422 0.619 0.0
H2589 H 0.87231 0.34068 0.6199 0.0
C2590 C 0.85587 0.41129 0.62258 0.0
C2591 C 0.88635 0.37842 0.61816 0.0
C2592 C 0.91255 0.36959 0.61501 0.0
C2593 C 0.83721 0.39327 0.62505 0.0
C2594 C 0.84325 0.3675 0.6241 0.0
C2595 C 0.86769 0.36045 0.62058 0.0
C2596 C 0.8245 0.34743 0.62654 0.0
C2597 C 0.81106 0.40198 0.62835 0.0
C2598 C 0.8132 0.34466 0.63881 0.0
C2599 C 0.79635 0.325 0.64114 0.0
C2600 C 0.79062 0.30766 0.63125 0.0
C2601 C 0.80192 0.31061 0.61898 0.0
C2602 C 0.81871 0.33023 0.61667 0.0
H2603 H 0.80799 0.42187 0.62555 0.0
H2604 H 0.79678 0.39019 0.62341 0.0
H2605 H 0.80813 0.40037 0.639 0.0
H2606 H 0.81776 0.35742 0.64666 0.0
H2607 H 0.78808 0.32321 0.65072 0.0
H2608 H 0.03816 0.44347 0.1333 0.0
H2609 H 0.07237 0.41449 0.13805 0.0
H2610 H 0.10836 0.43465 0.10197 0.0
H2611 H 0.07426 0.46408 0.09719 0.0
H2612 H 0.0875 0.37333 0.12362 0.0
H2613 H 0.16518 0.44206 0.12846 0.0
H2614 H 0.13261 0.45129 0.1286 0.0
H2615 H 0.14793 0.44405 0.11349 0.0
C2616 C 0.05339 0.4419 0.12638 0.0
C2617 C 0.05347 0.45618 0.11487 0.0
C2618 C 0.07295 0.42528 0.12912 0.0
C2619 C 0.09309 0.42262 0.12046 0.0
C2620 C 0.09326 0.43677 0.10893 0.0
H2621 H 0.22378 0.325 0.12008 0.0
H2622 H 0.19181 0.35652 0.11526 0.0
C2623 C 0.07367 0.45347 0.10617 0.0
C2624 C 0.11335 0.40432 0.12336 0.0
H2625 H 0.17626 0.39903 0.12909 0.0
C2626 C 0.10689 0.37896 0.12485 0.0
C2627 C 0.13866 0.41169 0.12493 0.0
C2628 C 0.14658 0.43877 0.1239 0.0
C2629 C 0.12506 0.36072 0.12774 0.0
C2630 C 0.15034 0.3681 0.12943 0.0
C2631 C 0.15686 0.39343 0.12784 0.0
C2632 C 0.17028 0.34973 0.13274 0.0
C2633 C 0.11709 0.33363 0.1287 0.0
C2634 C 0.16913 0.33582 0.14433 0.0
C2635 C 0.18737 0.31772 0.14712 0.0
C2636 C 0.20721 0.31329 0.1384 0.0
C2637 C 0.20872 0.32783 0.127 0.0
C2638 C 0.19047 0.34589 0.12422 0.0
H2639 H 0.09872 0.33033 0.12389 0.0
H2640 H 0.13127 0.32106 0.12422 0.0
H2641 H 0.11516 0.32842 0.13911 0.0
H2642 H 0.15401 0.33884 0.15118 0.0
H2643 H 0.18572 0.307 0.15603 0.0
H2644 H 0.4408 0.44059 0.90225 0.0
H2645 H 0.40816 0.40986 0.89713 0.0
H2646 H 0.3906 0.45003 0.86188 0.0
H2647 H 0.42289 0.48101 0.86699 0.0
H2648 H 0.34818 0.4349 0.87544 0.0
H2649 H 0.41481 0.35589 0.86903 0.0
H2650 H 0.41718 0.37137 0.8845 0.0
H2651 H 0.42492 0.38815 0.86987 0.0
C2652 C 0.42993 0.44296 0.89344 0.0
C2653 C 0.43461 0.46317 0.88498 0.0
C2654 C 0.41138 0.42529 0.89049 0.0
C2655 C 0.39727 0.4274 0.879 0.0
C2656 C 0.40137 0.44795 0.87076 0.0
H2657 H 0.31026 0.30752 0.84333 0.0
H2658 H 0.33984 0.3416 0.84772 0.0
C2659 C 0.41987 0.46563 0.8737 0.0
C2660 C 0.37838 0.4081 0.87549 0.0
H2661 H 0.37151 0.34578 0.86873 0.0
C2662 C 0.35327 0.41542 0.87395 0.0
C2663 C 0.38513 0.38278 0.87333 0.0
C2664 C 0.412 0.37404 0.87413 0.0
C2665 C 0.33463 0.39799 0.87054 0.0
C2666 C 0.34124 0.3725 0.86882 0.0
C2667 C 0.36643 0.36529 0.87013 0.0
C2668 C 0.32235 0.3529 0.86579 0.0
C2669 C 0.3081 0.4071 0.86861 0.0
C2670 C 0.30266 0.34795 0.87447 0.0
C2671 C 0.28569 0.32856 0.87198 0.0
C2672 C 0.28818 0.31355 0.86079 0.0
C2673 C 0.30776 0.31873 0.85202 0.0
C2674 C 0.32472 0.33817 0.85453 0.0
H2675 H 0.30747 0.42758 0.86665 0.0
H2676 H 0.29887 0.39711 0.86044 0.0
H2677 H 0.29715 0.40347 0.8776 0.0
H2678 H 0.30076 0.35871 0.88336 0.0
H2679 H 0.27093 0.32503 0.87898 0.0
H2680 H 0.45854 0.57113 0.62955 0.0
H2681 H 0.42277 0.59845 0.63375 0.0
H2682 H 0.38698 0.57203 0.59871 0.0
H2683 H 0.4227 0.54422 0.59449 0.0
H2684 H 0.40463 0.63685 0.61827 0.0
H2685 H 0.33166 0.564 0.62604 0.0
H2686 H 0.36475 0.55688 0.62609 0.0
H2687 H 0.34853 0.56153 0.61096 0.0
C2688 C 0.44304 0.57098 0.62274 0.0
C2689 C 0.44349 0.55542 0.61169 0.0
C2690 C 0.42259 0.58665 0.62517 0.0
C2691 C 0.40205 0.58706 0.61665 0.0
C2692 C 0.40241 0.57165 0.60556 0.0
H2693 H 0.26599 0.67766 0.61627 0.0
H2694 H 0.29919 0.64742 0.61136 0.0
C2695 C 0.42291 0.55589 0.60312 0.0
C2696 C 0.38078 0.60433 0.61924 0.0
H2697 H 0.31803 0.60627 0.62591 0.0
C2698 C 0.3857 0.63016 0.61996 0.0
C2699 C 0.35608 0.59557 0.6214 0.0
C2700 C 0.34986 0.56797 0.62121 0.0
C2701 C 0.36661 0.64748 0.62272 0.0
C2702 C 0.34198 0.63871 0.62505 0.0
C2703 C 0.33695 0.61292 0.62416 0.0
C2704 C 0.32125 0.6561 0.62843 0.0
C2705 C 0.37289 0.67507 0.62292 0.0
C2706 C 0.32234 0.67057 0.63983 0.0
C2707 C 0.30341 0.68788 0.64267 0.0
C2708 C 0.28294 0.69099 0.63418 0.0
C2709 C 0.28152 0.67585 0.62299 0.0
C2710 C 0.30046 0.65852 0.62017 0.0
H2711 H 0.39074 0.67907 0.61775 0.0
H2712 H 0.3577 0.68631 0.61839 0.0
H2713 H 0.37503 0.68131 0.63316 0.0
H2714 H 0.33798 0.66863 0.64648 0.0
H2715 H 0.30503 0.6991 0.65141 0.0
H2716 H 0.07428 0.53352 0.40045 0.0
H2717 H 0.1079 0.5638 0.39611 0.0
H2718 H 0.06852 0.58955 0.362 0.0
H2719 H 0.03485 0.55971 0.3663 0.0
H2720 H 0.13876 0.5694 0.37388 0.0
H2721 H 0.08099 0.65436 0.38239 0.0
H2722 H 0.07115 0.62348 0.38747 0.0
H2723 H 0.06776 0.63299 0.37077 0.0
C2724 C 0.07276 0.54566 0.39204 0.0
C2725 C 0.05176 0.5443 0.38378 0.0
C2726 C 0.092 0.56292 0.38957 0.0
C2727 C 0.0905 0.57921 0.37886 0.0
C2728 C 0.06982 0.57754 0.37048 0.0
H2729 H 0.18097 0.69887 0.34635 0.0
H2730 H 0.15009 0.66587 0.35048 0.0
C2731 C 0.05062 0.56035 0.37293 0.0
C2732 C 0.11057 0.5979 0.37634 0.0
H2733 H 0.12113 0.66074 0.37296 0.0
C2734 C 0.13498 0.58938 0.37376 0.0
C2735 C 0.10558 0.62396 0.37618 0.0
C2736 C 0.08001 0.63432 0.37947 0.0
C2737 C 0.1544 0.60622 0.37069 0.0
C2738 C 0.14932 0.63226 0.3704 0.0
C2739 C 0.12496 0.64076 0.37309 0.0
C2740 C 0.169 0.65115 0.36746 0.0
C2741 C 0.18001 0.59595 0.36746 0.0
C2742 C 0.18992 0.65381 0.37563 0.0
C2743 C 0.20762 0.67264 0.37329 0.0
C2744 C 0.20468 0.68931 0.36278 0.0
C2745 C 0.18386 0.68636 0.35451 0.0
C2746 C 0.16616 0.66753 0.35687 0.0
H2747 H 0.17921 0.57577 0.36481 0.0
H2748 H 0.18866 0.6065 0.3593 0.0
H2749 H 0.19236 0.59787 0.37609 0.0
H2750 H 0.19226 0.64172 0.384 0.0
H2751 H 0.22336 0.67442 0.37989 0.0
loop_
_geom_bond_atom_site_label_1
_geom_bond_atom_site_label_2
_geom_bond_distance
_geom_bond_site_symmetry_2
_ccdc_geom_bond_type
Mg0 O1 2.028 . S
Mg0 O7 1.986 . S
Mg0 O9 2.114 . S
Mg0 O10 2.251 . S
Mg0 O13 2.010 . S
O1 Mg0 2.028 . S
O1 C4 1.250 . S
O2 Mg3 2.028 . S
O2 C4 1.248 . S
Mg3 O2 2.028 . S
Mg3 O8 2.032 . S
Mg3 O10 2.079 . S
C4 O1 1.250 . S
C4 O2 1.248 . S
C5 O6 1.264 . S
C5 O13 1.249 . S
O6 C5 1.264 . S
O7 Mg0 1.986 . S
O7 C11 1.246 . S
O8 Mg3 2.032 . S
O8 C11 1.259 . S
O9 Mg0 2.114 . S
O9 C12 1.252 . S
O10 Mg0 2.251 . S
O10 Mg3 2.079 . S
O10 C12 1.273 . S
C11 O7 1.246 . S
C11 O8 1.259 . S
C12 O9 1.252 . S
C12 O10 1.273 . S
O13 Mg0 2.010 . S
O13 C5 1.249 . S
Mg14 O15 2.028 . S
Mg14 O21 1.986 . S
Mg14 O23 2.114 . S
Mg14 O24 2.251 1_455 S
Mg14 O27 2.010 1_565 S
O15 Mg14 2.028 . S
O15 C18 1.250 . S
O16 Mg17 2.028 . S
O16 C18 1.248 . S
Mg17 O16 2.028 . S
Mg17 O22 2.032 . S
Mg17 O24 2.079 1_455 S
C18 O15 1.250 . S
C18 O16 1.248 . S
C19 O20 1.264 . S
C19 O27 1.249 . S
O20 C19 1.264 . S
O21 Mg14 1.986 . S
O21 C25 1.246 . S
O22 Mg17 2.032 . S
O22 C25 1.259 . S
O23 Mg14 2.114 . S
O23 C26 1.252 1_455 S
O24 Mg14 2.251 1_655 S
O24 Mg17 2.079 1_655 S
O24 C26 1.273 . S
C25 O21 1.246 . S
C25 O22 1.259 . S
C26 O23 1.252 1_655 S
C26 O24 1.273 . S
O27 Mg14 2.010 1_545 S
O27 C19 1.249 . S
Mg28 O29 2.028 . S
Mg28 O35 1.986 . S
Mg28 O37 2.114 . S
Mg28 O38 2.251 . S
Mg28 O41 2.010 . S
O29 Mg28 2.028 . S
O29 C32 1.250 . S
O30 Mg31 2.028 . S
O30 C32 1.248 . S
Mg31 O30 2.028 . S
Mg31 O36 2.032 . S
Mg31 O38 2.079 . S
C32 O29 1.250 . S
C32 O30 1.248 . S
C33 O34 1.264 . S
C33 O41 1.249 . S
O34 C33 1.264 . S
O35 Mg28 1.986 . S
O35 C39 1.246 . S
O36 Mg31 2.032 . S
O36 C39 1.259 . S
O37 Mg28 2.114 . S
O37 C40 1.252 . S
O38 Mg28 2.251 . S
O38 Mg31 2.079 . S
O38 C40 1.273 . S
C39 O35 1.246 . S
C39 O36 1.259 . S
C40 O37 1.252 . S
C40 O38 1.273 . S
O41 Mg28 2.010 . S
O41 C33 1.249 . S
Mg42 O43 2.028 . S
Mg42 O49 1.986 . S
Mg42 O51 2.114 . S
Mg42 O52 2.251 . S
Mg42 O55 2.010 1_545 S
O43 Mg42 2.028 . S
O43 C46 1.250 . S
O44 Mg45 2.028 . S
O44 C46 1.248 . S
Mg45 O44 2.028 . S
Mg45 O50 2.032 . S
Mg45 O52 2.079 . S
C46 O43 1.250 . S
C46 O44 1.248 . S
C47 O48 1.264 . S
C47 O55 1.249 . S
O48 C47 1.264 . S
O49 Mg42 1.986 . S
O49 C53 1.246 . S
O50 Mg45 2.032 . S
O50 C53 1.259 . S
O51 Mg42 2.114 . S
O51 C54 1.252 . S
O52 Mg42 2.251 . S
O52 Mg45 2.079 . S
O52 C54 1.273 . S
C53 O49 1.246 . S
C53 O50 1.259 . S
C54 O51 1.252 . S
C54 O52 1.273 . S
O55 Mg42 2.010 1_565 S
O55 C47 1.249 . S
Mg56 O57 2.028 . S
Mg56 O63 1.986 . S
Mg56 O65 2.114 . S
Mg56 O66 2.251 . S
Mg56 O69 2.010 . S
O57 Mg56 2.028 . S
O57 C60 1.250 . S
O58 Mg59 2.028 . S
O58 C60 1.248 . S
Mg59 O58 2.028 . S
Mg59 O64 2.032 . S
Mg59 O66 2.079 . S
C60 O57 1.250 . S
C60 O58 1.248 . S
C61 O62 1.264 . S
C61 O69 1.249 . S
O62 C61 1.264 . S
O63 Mg56 1.986 . S
O63 C67 1.246 . S
O64 Mg59 2.032 . S
O64 C67 1.259 . S
O65 Mg56 2.114 . S
O65 C68 1.252 . S
O66 Mg56 2.251 . S
O66 Mg59 2.079 . S
O66 C68 1.273 . S
C67 O63 1.246 . S
C67 O64 1.259 . S
C68 O65 1.252 . S
C68 O66 1.273 . S
O69 Mg56 2.010 . S
O69 C61 1.249 . S
Mg70 O71 2.028 . S
Mg70 O77 1.986 . S
Mg70 O79 2.114 . S
Mg70 O80 2.251 . S
Mg70 O83 2.010 1_565 S
O71 Mg70 2.028 . S
O71 C74 1.250 . S
O72 Mg73 2.028 . S
O72 C74 1.248 . S
Mg73 O72 2.028 . S
Mg73 O78 2.032 . S
Mg73 O80 2.079 . S
C74 O71 1.250 . S
C74 O72 1.248 . S
C75 O76 1.264 . S
C75 O83 1.249 . S
O76 C75 1.264 . S
O77 Mg70 1.986 . S
O77 C81 1.246 . S
O78 Mg73 2.032 . S
O78 C81 1.259 . S
O79 Mg70 2.114 . S
O79 C82 1.252 . S
O80 Mg70 2.251 . S
O80 Mg73 2.079 . S
O80 C82 1.273 . S
C81 O77 1.246 . S
C81 O78 1.259 . S
C82 O79 1.252 . S
C82 O80 1.273 . S
O83 Mg70 2.010 1_545 S
O83 C75 1.249 . S
Mg84 O85 2.028 . S
Mg84 O91 1.986 . S
Mg84 O93 2.114 . S
Mg84 O94 2.251 . S
Mg84 O97 2.010 . S
O85 Mg84 2.028 . S
O85 C88 1.250 . S
O86 Mg87 2.028 . S
O86 C88 1.248 . S
Mg87 O86 2.028 . S
Mg87 O92 2.032 . S
Mg87 O94 2.079 . S
C88 O85 1.250 . S
C88 O86 1.248 . S
C89 O90 1.264 . S
C89 O97 1.249 . S
O90 C89 1.264 . S
O91 Mg84 1.986 . S
O91 C95 1.246 . S
O92 Mg87 2.032 . S
O92 C95 1.259 . S
O93 Mg84 2.114 . S
O93 C96 1.252 . S
O94 Mg84 2.251 . S
O94 Mg87 2.079 . S
O94 C96 1.273 . S
C95 O91 1.246 . S
C95 O92 1.259 . S
C96 O93 1.252 . S
C96 O94 1.273 . S
O97 Mg84 2.010 . S
O97 C89 1.249 . S
Mg98 O99 2.028 . S
Mg98 O105 1.986 . S
Mg98 O107 2.114 . S
Mg98 O108 2.251 1_455 S
Mg98 O111 2.010 1_545 S
O99 Mg98 2.028 . S
O99 C102 1.250 . S
O100 Mg101 2.028 . S
O100 C102 1.248 . S
Mg101 O100 2.028 . S
Mg101 O106 2.032 . S
Mg101 O108 2.079 1_455 S
C102 O99 1.250 . S
C102 O100 1.248 . S
C103 O104 1.264 . S
C103 O111 1.249 . S
O104 C103 1.264 . S
O105 Mg98 1.986 . S
O105 C109 1.246 . S
O106 Mg101 2.032 . S
O106 C109 1.259 . S
O107 Mg98 2.114 . S
O107 C110 1.252 1_455 S
O108 Mg98 2.251 1_655 S
O108 Mg101 2.079 1_655 S
O108 C110 1.273 . S
C109 O105 1.246 . S
C109 O106 1.259 . S
C110 O107 1.252 1_655 S
C110 O108 1.273 . S
O111 Mg98 2.010 1_565 S
O111 C103 1.249 . S
Mg112 O113 2.028 . S
Mg112 O119 1.986 . S
Mg112 O121 2.114 . S
Mg112 O122 2.251 . S
Mg112 O125 2.010 . S
O113 Mg112 2.028 . S
O113 C116 1.250 . S
O114 Mg115 2.028 . S
O114 C116 1.248 . S
Mg115 O114 2.028 . S
Mg115 O120 2.032 . S
Mg115 O122 2.079 . S
C116 O113 1.250 . S
C116 O114 1.248 . S
C117 O118 1.264 . S
C117 O125 1.249 . S
O118 C117 1.264 . S
O119 Mg112 1.986 . S
O119 C123 1.246 . S
O120 Mg115 2.032 . S
O120 C123 1.259 . S
O121 Mg112 2.114 . S
O121 C124 1.252 . S
O122 Mg112 2.251 . S
O122 Mg115 2.079 . S
O122 C124 1.273 . S
C123 O119 1.246 . S
C123 O120 1.259 . S
C124 O121 1.252 . S
C124 O122 1.273 . S
O125 Mg112 2.010 . S
O125 C117 1.249 . S
Mg126 O127 2.028 . S
Mg126 O133 1.986 . S
Mg126 O135 2.114 . S
Mg126 O136 2.251 1_655 S
Mg126 O139 2.010 1_545 S
O127 Mg126 2.028 . S
O127 C130 1.250 . S
O128 Mg129 2.028 . S
O128 C130 1.248 . S
Mg129 O128 2.028 . S
Mg129 O134 2.032 . S
Mg129 O136 2.079 1_655 S
C130 O127 1.250 . S
C130 O128 1.248 . S
C131 O132 1.264 . S
C131 O139 1.249 . S
O132 C131 1.264 . S
O133 Mg126 1.986 . S
O133 C137 1.246 . S
O134 Mg129 2.032 . S
O134 C137 1.259 . S
O135 Mg126 2.114 . S
O135 C138 1.252 1_655 S
O136 Mg126 2.251 1_455 S
O136 Mg129 2.079 1_455 S
O136 C138 1.273 . S
C137 O133 1.246 . S
C137 O134 1.259 . S
C138 O135 1.252 1_455 S
C138 O136 1.273 . S
O139 Mg126 2.010 1_565 S
O139 C131 1.249 . S
Mg140 O141 2.028 . S
Mg140 O147 1.986 . S
Mg140 O149 2.114 . S
Mg140 O150 2.251 . S
Mg140 O153 2.010 . S
O141 Mg140 2.028 . S
O141 C144 1.250 . S
O142 Mg143 2.028 . S
O142 C144 1.248 . S
Mg143 O142 2.028 . S
Mg143 O148 2.032 . S
Mg143 O150 2.079 . S
C144 O141 1.250 . S
C144 O142 1.248 . S
C145 O146 1.264 . S
C145 O153 1.249 . S
O146 C145 1.264 . S
O147 Mg140 1.986 . S
O147 C151 1.246 . S
O148 Mg143 2.032 . S
O148 C151 1.259 . S
O149 Mg140 2.114 . S
O149 C152 1.252 . S
O150 Mg140 2.251 . S
O150 Mg143 2.079 . S
O150 C152 1.273 . S
C151 O147 1.246 . S
C151 O148 1.259 . S
C152 O149 1.252 . S
C152 O150 1.273 . S
O153 Mg140 2.010 . S
O153 C145 1.249 . S
Mg154 O155 2.028 . S
Mg154 O161 1.986 . S
Mg154 O163 2.114 . S
Mg154 O164 2.251 . S
Mg154 O167 2.010 1_565 S
O155 Mg154 2.028 . S
O155 C158 1.250 . S
O156 Mg157 2.028 . S
O156 C158 1.248 . S
Mg157 O156 2.028 . S
Mg157 O162 2.032 . S
Mg157 O164 2.079 . S
C158 O155 1.250 . S
C158 O156 1.248 . S
C159 O160 1.264 . S
C159 O167 1.249 . S
O160 C159 1.264 . S
O161 Mg154 1.986 . S
O161 C165 1.246 . S
O162 Mg157 2.032 . S
O162 C165 1.259 . S
O163 Mg154 2.114 . S
O163 C166 1.252 . S
O164 Mg154 2.251 . S
O164 Mg157 2.079 . S
O164 C166 1.273 . S
C165 O161 1.246 . S
C165 O162 1.259 . S
C166 O163 1.252 . S
C166 O164 1.273 . S
O167 Mg154 2.010 1_545 S
O167 C159 1.249 . S
Mg168 O169 2.028 . S
Mg168 O175 1.986 . S
Mg168 O177 2.114 . S
Mg168 O178 2.251 . S
Mg168 O181 2.010 . S
O169 Mg168 2.028 . S
O169 C172 1.250 . S
O170 Mg171 2.028 . S
O170 C172 1.248 . S
Mg171 O170 2.028 . S
Mg171 O176 2.032 . S
Mg171 O178 2.079 . S
C172 O169 1.250 . S
C172 O170 1.248 . S
C173 O174 1.264 . S
C173 O181 1.249 . S
O174 C173 1.264 . S
O175 Mg168 1.986 . S
O175 C179 1.246 . S
O176 Mg171 2.032 . S
O176 C179 1.259 . S
O177 Mg168 2.114 . S
O177 C180 1.252 . S
O178 Mg168 2.251 . S
O178 Mg171 2.079 . S
O178 C180 1.273 . S
C179 O175 1.246 . S
C179 O176 1.259 . S
C180 O177 1.252 . S
C180 O178 1.273 . S
O181 Mg168 2.010 . S
O181 C173 1.249 . S
Mg182 O183 2.028 . S
Mg182 O189 1.986 . S
Mg182 O191 2.114 . S
Mg182 O192 2.251 . S
Mg182 O195 2.010 1_545 S
O183 Mg182 2.028 . S
O183 C186 1.250 . S
O184 Mg185 2.028 . S
O184 C186 1.248 . S
Mg185 O184 2.028 . S
Mg185 O190 2.032 . S
Mg185 O192 2.079 . S
C186 O183 1.250 . S
C186 O184 1.248 . S
C187 O188 1.264 . S
C187 O195 1.249 . S
O188 C187 1.264 . S
O189 Mg182 1.986 . S
O189 C193 1.246 . S
O190 Mg185 2.032 . S
O190 C193 1.259 . S
O191 Mg182 2.114 . S
O191 C194 1.252 . S
O192 Mg182 2.251 . S
O192 Mg185 2.079 . S
O192 C194 1.273 . S
C193 O189 1.246 . S
C193 O190 1.259 . S
C194 O191 1.252 . S
C194 O192 1.273 . S
O195 Mg182 2.010 1_565 S
O195 C187 1.249 . S
Mg196 O197 2.028 . S
Mg196 O203 1.986 . S
Mg196 O205 2.114 . S
Mg196 O206 2.251 . S
Mg196 O209 2.010 . S
O197 Mg196 2.028 . S
O197 C200 1.250 . S
O198 Mg199 2.028 . S
O198 C200 1.248 . S
Mg199 O198 2.028 . S
Mg199 O204 2.032 . S
Mg199 O206 2.079 . S
C200 O197 1.250 . S
C200 O198 1.248 . S
C201 O202 1.264 . S
C201 O209 1.249 . S
O202 C201 1.264 . S
O203 Mg196 1.986 . S
O203 C207 1.246 . S
O204 Mg199 2.032 . S
O204 C207 1.259 . S
O205 Mg196 2.114 . S
O205 C208 1.252 . S
O206 Mg196 2.251 . S
O206 Mg199 2.079 . S
O206 C208 1.273 . S
C207 O203 1.246 . S
C207 O204 1.259 . S
C208 O205 1.252 . S
C208 O206 1.273 . S
O209 Mg196 2.010 . S
O209 C201 1.249 . S
Mg210 O211 2.028 . S
Mg210 O217 1.986 . S
Mg210 O219 2.114 . S
Mg210 O220 2.251 1_655 S
Mg210 O223 2.010 1_565 S
O211 Mg210 2.028 . S
O211 C214 1.250 . S
O212 Mg213 2.028 . S
O212 C214 1.248 . S
Mg213 O212 2.028 . S
Mg213 O218 2.032 . S
Mg213 O220 2.079 1_655 S
C214 O211 1.250 . S
C214 O212 1.248 . S
C215 O216 1.264 . S
C215 O223 1.249 . S
O216 C215 1.264 . S
O217 Mg210 1.986 . S
O217 C221 1.246 . S
O218 Mg213 2.032 . S
O218 C221 1.259 . S
O219 Mg210 2.114 . S
O219 C222 1.252 1_655 S
O220 Mg210 2.251 1_455 S
O220 Mg213 2.079 1_455 S
O220 C222 1.273 . S
C221 O217 1.246 . S
C221 O218 1.259 . S
C222 O219 1.252 1_455 S
C222 O220 1.273 . S
O223 Mg210 2.010 1_545 S
O223 C215 1.249 . S
Mg224 O225 2.028 . S
Mg224 O231 1.986 . S
Mg224 O233 2.114 . S
Mg224 O234 2.251 . S
Mg224 O237 2.010 . S
O225 Mg224 2.028 . S
O225 C228 1.250 . S
O226 Mg227 2.028 . S
O226 C228 1.248 . S
Mg227 O226 2.028 . S
Mg227 O232 2.032 . S
Mg227 O234 2.079 . S
C228 O225 1.250 . S
C228 O226 1.248 . S
C229 O230 1.264 . S
C229 O237 1.249 . S
O230 C229 1.264 . S
O231 Mg224 1.986 . S
O231 C235 1.246 . S
O232 Mg227 2.032 . S
O232 C235 1.259 . S
O233 Mg224 2.114 . S
O233 C236 1.252 . S
O234 Mg224 2.251 . S
O234 Mg227 2.079 . S
O234 C236 1.273 . S
C235 O231 1.246 . S
C235 O232 1.259 . S
C236 O233 1.252 . S
C236 O234 1.273 . S
O237 Mg224 2.010 . S
O237 C229 1.249 . S
Mg238 O239 2.028 . S
Mg238 O245 1.986 . S
Mg238 O247 2.114 . S
Mg238 O248 2.251 . S
Mg238 O251 2.010 . S
O239 Mg238 2.028 . S
O239 C242 1.250 . S
O240 Mg241 2.028 . S
O240 C242 1.248 . S
Mg241 O240 2.028 . S
Mg241 O246 2.032 . S
Mg241 O248 2.079 . S
C242 O239 1.250 . S
C242 O240 1.248 . S
C243 O244 1.264 . S
C243 O251 1.249 . S
O244 C243 1.264 . S
O245 Mg238 1.986 . S
O245 C249 1.246 . S
O246 Mg241 2.032 . S
O246 C249 1.259 . S
O247 Mg238 2.114 . S
O247 C250 1.252 . S
O248 Mg238 2.251 . S
O248 Mg241 2.079 . S
O248 C250 1.273 . S
C249 O245 1.246 . S
C249 O246 1.259 . S
C250 O247 1.252 . S
C250 O248 1.273 . S
O251 Mg238 2.010 . S
O251 C243 1.249 . S
Mg252 O253 2.028 . S
Mg252 O259 1.986 . S
Mg252 O261 2.114 . S
Mg252 O262 2.251 . S
Mg252 O265 2.010 . S
O253 Mg252 2.028 . S
O253 C256 1.250 . S
O254 Mg255 2.028 . S
O254 C256 1.248 . S
Mg255 O254 2.028 . S
Mg255 O260 2.032 . S
Mg255 O262 2.079 . S
C256 O253 1.250 . S
C256 O254 1.248 . S
C257 O258 1.264 . S
C257 O265 1.249 . S
O258 C257 1.264 . S
O259 Mg252 1.986 . S
O259 C263 1.246 . S
O260 Mg255 2.032 . S
O260 C263 1.259 . S
O261 Mg252 2.114 . S
O261 C264 1.252 . S
O262 Mg252 2.251 . S
O262 Mg255 2.079 . S
O262 C264 1.273 . S
C263 O259 1.246 . S
C263 O260 1.259 . S
C264 O261 1.252 . S
C264 O262 1.273 . S
O265 Mg252 2.010 . S
O265 C257 1.249 . S
Mg266 O267 2.028 . S
Mg266 O273 1.986 . S
Mg266 O275 2.114 . S
Mg266 O276 2.251 1_655 S
Mg266 O279 2.010 . S
O267 Mg266 2.028 . S
O267 C270 1.250 . S
O268 Mg269 2.028 . S
O268 C270 1.248 . S
Mg269 O268 2.028 . S
Mg269 O274 2.032 . S
Mg269 O276 2.079 1_655 S
C270 O267 1.250 . S
C270 O268 1.248 . S
C271 O272 1.264 . S
C271 O279 1.249 . S
O272 C271 1.264 . S
O273 Mg266 1.986 . S
O273 C277 1.246 . S
O274 Mg269 2.032 . S
O274 C277 1.259 . S
O275 Mg266 2.114 . S
O275 C278 1.252 1_655 S
O276 Mg266 2.251 1_455 S
O276 Mg269 2.079 1_455 S
O276 C278 1.273 . S
C277 O273 1.246 . S
C277 O274 1.259 . S
C278 O275 1.252 1_455 S
C278 O276 1.273 . S
O279 Mg266 2.010 . S
O279 C271 1.249 . S
Mg280 O281 2.028 . S
Mg280 O287 1.986 . S
Mg280 O289 2.114 . S
Mg280 O290 2.251 . S
Mg280 O293 2.010 . S
O281 Mg280 2.028 . S
O281 C284 1.250 . S
O282 Mg283 2.028 . S
O282 C284 1.248 . S
Mg283 O282 2.028 . S
Mg283 O288 2.032 . S
Mg283 O290 2.079 . S
C284 O281 1.250 . S
C284 O282 1.248 . S
C285 O286 1.264 . S
C285 O293 1.249 . S
O286 C285 1.264 . S
O287 Mg280 1.986 . S
O287 C291 1.246 . S
O288 Mg283 2.032 . S
O288 C291 1.259 . S
O289 Mg280 2.114 . S
O289 C292 1.252 . S
O290 Mg280 2.251 . S
O290 Mg283 2.079 . S
O290 C292 1.273 . S
C291 O287 1.246 . S
C291 O288 1.259 . S
C292 O289 1.252 . S
C292 O290 1.273 . S
O293 Mg280 2.010 . S
O293 C285 1.249 . S
Mg294 O295 2.028 . S
Mg294 O301 1.986 . S
Mg294 O303 2.114 . S
Mg294 O304 2.251 1_655 S
Mg294 O307 2.010 . S
O295 Mg294 2.028 . S
O295 C298 1.250 . S
O296 Mg297 2.028 . S
O296 C298 1.248 . S
Mg297 O296 2.028 . S
Mg297 O302 2.032 . S
Mg297 O304 2.079 1_655 S
C298 O295 1.250 . S
C298 O296 1.248 . S
C299 O300 1.264 . S
C299 O307 1.249 . S
O300 C299 1.264 . S
O301 Mg294 1.986 . S
O301 C305 1.246 . S
O302 Mg297 2.032 . S
O302 C305 1.259 . S
O303 Mg294 2.114 . S
O303 C306 1.252 1_655 S
O304 Mg294 2.251 1_455 S
O304 Mg297 2.079 1_455 S
O304 C306 1.273 . S
C305 O301 1.246 . S
C305 O302 1.259 . S
C306 O303 1.252 1_455 S
C306 O304 1.273 . S
O307 Mg294 2.010 . S
O307 C299 1.249 . S
Mg308 O309 2.028 . S
Mg308 O315 1.986 . S
Mg308 O317 2.114 . S
Mg308 O318 2.251 . S
Mg308 O321 2.010 . S
O309 Mg308 2.028 . S
O309 C312 1.250 . S
O310 Mg311 2.028 . S
O310 C312 1.248 . S
Mg311 O310 2.028 . S
Mg311 O316 2.032 . S
Mg311 O318 2.079 . S
C312 O309 1.250 . S
C312 O310 1.248 . S
C313 O314 1.264 . S
C313 O321 1.249 . S
O314 C313 1.264 . S
O315 Mg308 1.986 . S
O315 C319 1.246 . S
O316 Mg311 2.032 . S
O316 C319 1.259 . S
O317 Mg308 2.114 . S
O317 C320 1.252 . S
O318 Mg308 2.251 . S
O318 Mg311 2.079 . S
O318 C320 1.273 . S
C319 O315 1.246 . S
C319 O316 1.259 . S
C320 O317 1.252 . S
C320 O318 1.273 . S
O321 Mg308 2.010 . S
O321 C313 1.249 . S
Mg322 O323 2.028 . S
Mg322 O329 1.986 . S
Mg322 O331 2.114 . S
Mg322 O332 2.251 . S
Mg322 O335 2.010 . S
O323 Mg322 2.028 . S
O323 C326 1.250 . S
O324 Mg325 2.028 . S
O324 C326 1.248 . S
Mg325 O324 2.028 . S
Mg325 O330 2.032 . S
Mg325 O332 2.079 . S
C326 O323 1.250 . S
C326 O324 1.248 . S
C327 O328 1.264 . S
C327 O335 1.249 . S
O328 C327 1.264 . S
O329 Mg322 1.986 . S
O329 C333 1.246 . S
O330 Mg325 2.032 . S
O330 C333 1.259 . S
O331 Mg322 2.114 . S
O331 C334 1.252 . S
O332 Mg322 2.251 . S
O332 Mg325 2.079 . S
O332 C334 1.273 . S
C333 O329 1.246 . S
C333 O330 1.259 . S
C334 O331 1.252 . S
C334 O332 1.273 . S
O335 Mg322 2.010 . S
O335 C327 1.249 . S
Mg336 O337 2.028 . S
Mg336 O343 1.986 . S
Mg336 O345 2.114 . S
Mg336 O346 2.251 . S
Mg336 O349 2.010 . S
O337 Mg336 2.028 . S
O337 C340 1.250 . S
O338 Mg339 2.028 . S
O338 C340 1.248 . S
Mg339 O338 2.028 . S
Mg339 O344 2.032 . S
Mg339 O346 2.079 . S
C340 O337 1.250 . S
C340 O338 1.248 . S
C341 O342 1.264 . S
C341 O349 1.249 . S
O342 C341 1.264 . S
O343 Mg336 1.986 . S
O343 C347 1.246 . S
O344 Mg339 2.032 . S
O344 C347 1.259 . S
O345 Mg336 2.114 . S
O345 C348 1.252 . S
O346 Mg336 2.251 . S
O346 Mg339 2.079 . S
O346 C348 1.273 . S
C347 O343 1.246 . S
C347 O344 1.259 . S
C348 O345 1.252 . S
C348 O346 1.273 . S
O349 Mg336 2.010 . S
O349 C341 1.249 . S
Mg350 O351 2.028 . S
Mg350 O357 1.986 . S
Mg350 O359 2.114 . S
Mg350 O360 2.251 . S
Mg350 O363 2.010 . S
O351 Mg350 2.028 . S
O351 C354 1.250 . S
O352 Mg353 2.028 . S
O352 C354 1.248 . S
Mg353 O352 2.028 . S
Mg353 O358 2.032 . S
Mg353 O360 2.079 . S
C354 O351 1.250 . S
C354 O352 1.248 . S
C355 O356 1.264 . S
C355 O363 1.249 . S
O356 C355 1.264 . S
O357 Mg350 1.986 . S
O357 C361 1.246 . S
O358 Mg353 2.032 . S
O358 C361 1.259 . S
O359 Mg350 2.114 . S
O359 C362 1.252 . S
O360 Mg350 2.251 . S
O360 Mg353 2.079 . S
O360 C362 1.273 . S
C361 O357 1.246 . S
C361 O358 1.259 . S
C362 O359 1.252 . S
C362 O360 1.273 . S
O363 Mg350 2.010 . S
O363 C355 1.249 . S
Mg364 O365 2.028 . S
Mg364 O371 1.986 . S
Mg364 O373 2.114 . S
Mg364 O374 2.251 . S
Mg364 O377 2.010 . S
O365 Mg364 2.028 . S
O365 C368 1.250 . S
O366 Mg367 2.028 . S
O366 C368 1.248 . S
Mg367 O366 2.028 . S
Mg367 O372 2.032 . S
Mg367 O374 2.079 . S
C368 O365 1.250 . S
C368 O366 1.248 . S
C369 O370 1.264 . S
C369 O377 1.249 . S
O370 C369 1.264 . S
O371 Mg364 1.986 . S
O371 C375 1.246 . S
O372 Mg367 2.032 . S
O372 C375 1.259 . S
O373 Mg364 2.114 . S
O373 C376 1.252 . S
O374 Mg364 2.251 . S
O374 Mg367 2.079 . S
O374 C376 1.273 . S
C375 O371 1.246 . S
C375 O372 1.259 . S
C376 O373 1.252 . S
C376 O374 1.273 . S
O377 Mg364 2.010 . S
O377 C369 1.249 . S
Mg378 O379 2.028 . S
Mg378 O385 1.986 . S
Mg378 O387 2.114 . S
Mg378 O388 2.251 1_455 S
Mg378 O391 2.010 . S
O379 Mg378 2.028 . S
O379 C382 1.250 . S
O380 Mg381 2.028 . S
O380 C382 1.248 . S
Mg381 O380 2.028 . S
Mg381 O386 2.032 . S
Mg381 O388 2.079 1_455 S
C382 O379 1.250 . S
C382 O380 1.248 . S
C383 O384 1.264 . S
C383 O391 1.249 . S
O384 C383 1.264 . S
O385 Mg378 1.986 . S
O385 C389 1.246 . S
O386 Mg381 2.032 . S
O386 C389 1.259 . S
O387 Mg378 2.114 . S
O387 C390 1.252 1_455 S
O388 Mg378 2.251 1_655 S
O388 Mg381 2.079 1_655 S
O388 C390 1.273 . S
C389 O385 1.246 . S
C389 O386 1.259 . S
C390 O387 1.252 1_655 S
C390 O388 1.273 . S
O391 Mg378 2.010 . S
O391 C383 1.249 . S
Mg392 O393 2.028 . S
Mg392 O399 1.986 . S
Mg392 O401 2.114 . S
Mg392 O402 2.251 . S
Mg392 O405 2.010 . S
O393 Mg392 2.028 . S
O393 C396 1.250 . S
O394 Mg395 2.028 . S
O394 C396 1.248 . S
Mg395 O394 2.028 . S
Mg395 O400 2.032 . S
Mg395 O402 2.079 . S
C396 O393 1.250 . S
C396 O394 1.248 . S
C397 O398 1.264 . S
C397 O405 1.249 . S
O398 C397 1.264 . S
O399 Mg392 1.986 . S
O399 C403 1.246 . S
O400 Mg395 2.032 . S
O400 C403 1.259 . S
O401 Mg392 2.114 . S
O401 C404 1.252 . S
O402 Mg392 2.251 . S
O402 Mg395 2.079 . S
O402 C404 1.273 . S
C403 O399 1.246 . S
C403 O400 1.259 . S
C404 O401 1.252 . S
C404 O402 1.273 . S
O405 Mg392 2.010 . S
O405 C397 1.249 . S
Mg406 O407 2.028 . S
Mg406 O413 1.986 . S
Mg406 O415 2.114 . S
Mg406 O416 2.251 1_455 S
Mg406 O419 2.010 . S
O407 Mg406 2.028 . S
O407 C410 1.250 . S
O408 Mg409 2.028 . S
O408 C410 1.248 . S
Mg409 O408 2.028 . S
Mg409 O414 2.032 . S
Mg409 O416 2.079 1_455 S
C410 O407 1.250 . S
C410 O408 1.248 . S
C411 O412 1.264 . S
C411 O419 1.249 . S
O412 C411 1.264 . S
O413 Mg406 1.986 . S
O413 C417 1.246 . S
O414 Mg409 2.032 . S
O414 C417 1.259 . S
O415 Mg406 2.114 . S
O415 C418 1.252 1_455 S
O416 Mg406 2.251 1_655 S
O416 Mg409 2.079 1_655 S
O416 C418 1.273 . S
C417 O413 1.246 . S
C417 O414 1.259 . S
C418 O415 1.252 1_655 S
C418 O416 1.273 . S
O419 Mg406 2.010 . S
O419 C411 1.249 . S
Mg420 O421 2.028 . S
Mg420 O427 1.986 . S
Mg420 O429 2.114 . S
Mg420 O430 2.251 . S
Mg420 O433 2.010 . S
O421 Mg420 2.028 . S
O421 C424 1.250 . S
O422 Mg423 2.028 . S
O422 C424 1.248 . S
Mg423 O422 2.028 . S
Mg423 O428 2.032 . S
Mg423 O430 2.079 . S
C424 O421 1.250 . S
C424 O422 1.248 . S
C425 O426 1.264 . S
C425 O433 1.249 . S
O426 C425 1.264 . S
O427 Mg420 1.986 . S
O427 C431 1.246 . S
O428 Mg423 2.032 . S
O428 C431 1.259 . S
O429 Mg420 2.114 . S
O429 C432 1.252 . S
O430 Mg420 2.251 . S
O430 Mg423 2.079 . S
O430 C432 1.273 . S
C431 O427 1.246 . S
C431 O428 1.259 . S
C432 O429 1.252 . S
C432 O430 1.273 . S
O433 Mg420 2.010 . S
O433 C425 1.249 . S
Mg434 O435 2.028 . S
Mg434 O441 1.986 . S
Mg434 O443 2.114 . S
Mg434 O444 2.251 . S
Mg434 O447 2.010 . S
O435 Mg434 2.028 . S
O435 C438 1.250 . S
O436 Mg437 2.028 . S
O436 C438 1.248 . S
Mg437 O436 2.028 . S
Mg437 O442 2.032 . S
Mg437 O444 2.079 . S
C438 O435 1.250 . S
C438 O436 1.248 . S
C439 O440 1.264 . S
C439 O447 1.249 . S
O440 C439 1.264 . S
O441 Mg434 1.986 . S
O441 C445 1.246 . S
O442 Mg437 2.032 . S
O442 C445 1.259 . S
O443 Mg434 2.114 . S
O443 C446 1.252 . S
O444 Mg434 2.251 . S
O444 Mg437 2.079 . S
O444 C446 1.273 . S
C445 O441 1.246 . S
C445 O442 1.259 . S
C446 O443 1.252 . S
C446 O444 1.273 . S
O447 Mg434 2.010 . S
O447 C439 1.249 . S
H448 C456 0.929 . S
H449 C458 0.930 . S
H450 C460 0.930 . S
H451 C463 0.929 . S
H452 C466 0.930 . S
H453 C468 0.960 . S
H454 C468 0.960 . S
H455 C468 0.960 . S
C456 H448 0.929 . S
C456 C457 1.377 . S
C456 C458 1.384 . S
C457 C456 1.377 . S
C457 C463 1.390 . S
C458 H449 0.930 . S
C458 C456 1.384 . S
C458 C459 1.372 . S
C459 C458 1.372 . S
C459 C460 1.400 . S
C459 C464 1.490 . S
C460 H450 0.930 . S
C460 C459 1.400 . S
C460 C463 1.386 . S
H461 C477 0.930 . S
H462 C478 0.931 . S
C463 H451 0.929 . S
C463 C457 1.390 . S
C463 C460 1.386 . S
C464 C459 1.490 . S
C464 C466 1.395 . S
C464 C467 1.403 . S
H465 C471 0.930 . S
C466 H452 0.930 . S
C466 C464 1.395 . S
C466 C469 1.403 . S
C467 C464 1.403 . S
C467 C468 1.524 . S
C467 C471 1.400 . S
C468 H453 0.960 . S
C468 H454 0.960 . S
C468 H455 0.960 . S
C468 C467 1.524 . S
C469 C466 1.403 . S
C469 C470 1.392 . S
C469 C473 1.495 . S
C470 C469 1.392 . S
C470 C471 1.385 . S
C470 C472 1.478 . S
C471 H465 0.930 . S
C471 C467 1.400 . S
C471 C470 1.385 . S
C472 C470 1.478 . S
C472 C474 1.381 . S
C472 C478 1.383 . S
C473 C469 1.495 . S
C473 H479 0.959 . S
C473 H480 0.961 . S
C473 H481 0.960 . S
C474 C472 1.381 . S
C474 C475 1.394 . S
C474 H482 0.930 . S
C475 C474 1.394 . S
C475 C476 1.383 . S
C475 H483 0.929 . S
C476 C475 1.383 . S
C476 C477 1.377 . S
C477 H461 0.930 . S
C477 C476 1.377 . S
C477 C478 1.379 . S
C478 H462 0.931 . S
C478 C472 1.383 . S
C478 C477 1.379 . S
H479 C473 0.959 . S
H480 C473 0.961 . S
H481 C473 0.960 . S
H482 C474 0.930 . S
H483 C475 0.929 . S
H484 C492 0.929 . S
H485 C494 0.930 . S
H486 C496 0.930 . S
H487 C499 0.929 . S
H488 C502 0.930 . S
H489 C504 0.960 . S
H490 C504 0.960 . S
H491 C504 0.960 . S
C492 H484 0.929 . S
C492 C493 1.377 . S
C492 C494 1.384 . S
C493 C492 1.377 . S
C493 C499 1.390 . S
C494 H485 0.930 . S
C494 C492 1.384 . S
C494 C495 1.372 . S
C495 C494 1.372 . S
C495 C496 1.400 . S
C495 C500 1.490 . S
C496 H486 0.930 . S
C496 C495 1.400 . S
C496 C499 1.386 . S
H497 C513 0.930 . S
H498 C514 0.931 . S
C499 H487 0.929 . S
C499 C493 1.390 . S
C499 C496 1.386 . S
C500 C495 1.490 . S
C500 C502 1.395 . S
C500 C503 1.403 . S
H501 C507 0.930 . S
C502 H488 0.930 . S
C502 C500 1.395 . S
C502 C505 1.403 . S
C503 C500 1.403 . S
C503 C504 1.524 . S
C503 C507 1.400 . S
C504 H489 0.960 . S
C504 H490 0.960 . S
C504 H491 0.960 . S
C504 C503 1.524 . S
C505 C502 1.403 . S
C505 C506 1.392 . S
C505 C509 1.495 . S
C506 C505 1.392 . S
C506 C507 1.385 . S
C506 C508 1.478 . S
C507 H501 0.930 . S
C507 C503 1.400 . S
C507 C506 1.385 . S
C508 C506 1.478 . S
C508 C510 1.381 . S
C508 C514 1.383 . S
C509 C505 1.495 . S
C509 H515 0.959 . S
C509 H516 0.961 . S
C509 H517 0.960 . S
C510 C508 1.381 . S
C510 C511 1.394 . S
C510 H518 0.930 . S
C511 C510 1.394 . S
C511 C512 1.383 . S
C511 H519 0.929 . S
C512 C511 1.383 . S
C512 C513 1.377 . S
C513 H497 0.930 . S
C513 C512 1.377 . S
C513 C514 1.379 . S
C514 H498 0.931 . S
C514 C508 1.383 . S
C514 C513 1.379 . S
H515 C509 0.959 . S
H516 C509 0.961 . S
H517 C509 0.960 . S
H518 C510 0.930 . S
H519 C511 0.929 . S
H520 C528 0.929 . S
H521 C530 0.930 . S
H522 C532 0.930 . S
H523 C535 0.929 . S
H524 C538 0.930 . S
H525 C540 0.960 . S
H526 C540 0.960 . S
H527 C540 0.960 . S
C528 H520 0.929 . S
C528 C529 1.377 . S
C528 C530 1.384 . S
C529 C528 1.377 . S
C529 C535 1.390 . S
C530 H521 0.930 . S
C530 C528 1.384 . S
C530 C531 1.372 . S
C531 C530 1.372 . S
C531 C532 1.400 . S
C531 C536 1.490 . S
C532 H522 0.930 . S
C532 C531 1.400 . S
C532 C535 1.386 . S
H533 C549 0.930 . S
H534 C550 0.931 . S
C535 H523 0.929 . S
C535 C529 1.390 . S
C535 C532 1.386 . S
C536 C531 1.490 . S
C536 C538 1.395 . S
C536 C539 1.403 . S
H537 C543 0.930 . S
C538 H524 0.930 . S
C538 C536 1.395 . S
C538 C541 1.403 . S
C539 C536 1.403 . S
C539 C540 1.524 . S
C539 C543 1.400 . S
C540 H525 0.960 . S
C540 H526 0.960 . S
C540 H527 0.960 . S
C540 C539 1.524 . S
C541 C538 1.403 . S
C541 C542 1.392 . S
C541 C545 1.495 . S
C542 C541 1.392 . S
C542 C543 1.385 . S
C542 C544 1.478 . S
C543 H537 0.930 . S
C543 C539 1.400 . S
C543 C542 1.385 . S
C544 C542 1.478 . S
C544 C546 1.381 . S
C544 C550 1.383 . S
C545 C541 1.495 . S
C545 H551 0.959 . S
C545 H552 0.961 . S
C545 H553 0.960 . S
C546 C544 1.381 . S
C546 C547 1.394 . S
C546 H554 0.930 . S
C547 C546 1.394 . S
C547 C548 1.383 . S
C547 H555 0.929 . S
C548 C547 1.383 . S
C548 C549 1.377 . S
C549 H533 0.930 . S
C549 C548 1.377 . S
C549 C550 1.379 . S
C550 H534 0.931 . S
C550 C544 1.383 . S
C550 C549 1.379 . S
H551 C545 0.959 . S
H552 C545 0.961 . S
H553 C545 0.960 . S
H554 C546 0.930 . S
H555 C547 0.929 . S
H556 C564 0.929 . S
H557 C566 0.930 . S
H558 C568 0.930 . S
H559 C571 0.929 . S
H560 C574 0.930 . S
H561 C576 0.960 . S
H562 C576 0.960 . S
H563 C576 0.960 . S
C564 H556 0.929 . S
C564 C565 1.377 . S
C564 C566 1.384 . S
C565 C564 1.377 . S
C565 C571 1.390 . S
C566 H557 0.930 . S
C566 C564 1.384 . S
C566 C567 1.372 . S
C567 C566 1.372 . S
C567 C568 1.400 . S
C567 C572 1.490 . S
C568 H558 0.930 . S
C568 C567 1.400 . S
C568 C571 1.386 . S
H569 C585 0.930 . S
H570 C586 0.931 . S
C571 H559 0.929 . S
C571 C565 1.390 . S
C571 C568 1.386 . S
C572 C567 1.490 . S
C572 C574 1.395 . S
C572 C575 1.403 . S
H573 C579 0.930 . S
C574 H560 0.930 . S
C574 C572 1.395 . S
C574 C577 1.403 . S
C575 C572 1.403 . S
C575 C576 1.524 . S
C575 C579 1.400 . S
C576 H561 0.960 . S
C576 H562 0.960 . S
C576 H563 0.960 . S
C576 C575 1.524 . S
C577 C574 1.403 . S
C577 C578 1.392 . S
C577 C581 1.495 . S
C578 C577 1.392 . S
C578 C579 1.385 . S
C578 C580 1.478 . S
C579 H573 0.930 . S
C579 C575 1.400 . S
C579 C578 1.385 . S
C580 C578 1.478 . S
C580 C582 1.381 . S
C580 C586 1.383 . S
C581 C577 1.495 . S
C581 H587 0.959 . S
C581 H588 0.961 . S
C581 H589 0.960 . S
C582 C580 1.381 . S
C582 C583 1.394 . S
C582 H590 0.930 . S
C583 C582 1.394 . S
C583 C584 1.383 . S
C583 H591 0.929 . S
C584 C583 1.383 . S
C584 C585 1.377 . S
C585 H569 0.930 . S
C585 C584 1.377 . S
C585 C586 1.379 . S
C586 H570 0.931 . S
C586 C580 1.383 . S
C586 C585 1.379 . S
H587 C581 0.959 . S
H588 C581 0.961 . S
H589 C581 0.960 . S
H590 C582 0.930 . S
H591 C583 0.929 . S
H592 C600 0.929 . S
H593 C602 0.930 . S
H594 C604 0.930 . S
H595 C607 0.929 . S
H596 C610 0.930 . S
H597 C612 0.960 . S
H598 C612 0.960 . S
H599 C612 0.960 . S
C600 H592 0.929 . S
C600 C601 1.377 . S
C600 C602 1.384 . S
C601 C600 1.377 . S
C601 C607 1.390 . S
C602 H593 0.930 . S
C602 C600 1.384 . S
C602 C603 1.372 . S
C603 C602 1.372 . S
C603 C604 1.400 . S
C603 C608 1.490 . S
C604 H594 0.930 . S
C604 C603 1.400 . S
C604 C607 1.386 . S
H605 C621 0.930 . S
H606 C622 0.931 . S
C607 H595 0.929 . S
C607 C601 1.390 . S
C607 C604 1.386 . S
C608 C603 1.490 . S
C608 C610 1.395 . S
C608 C611 1.403 . S
H609 C615 0.930 . S
C610 H596 0.930 . S
C610 C608 1.395 . S
C610 C613 1.403 . S
C611 C608 1.403 . S
C611 C612 1.524 . S
C611 C615 1.400 . S
C612 H597 0.960 . S
C612 H598 0.960 . S
C612 H599 0.960 . S
C612 C611 1.524 . S
C613 C610 1.403 . S
C613 C614 1.392 . S
C613 C617 1.495 . S
C614 C613 1.392 . S
C614 C615 1.385 . S
C614 C616 1.478 . S
C615 H609 0.930 . S
C615 C611 1.400 . S
C615 C614 1.385 . S
C616 C614 1.478 . S
C616 C618 1.381 . S
C616 C622 1.383 . S
C617 C613 1.495 . S
C617 H623 0.959 . S
C617 H624 0.961 . S
C617 H625 0.960 . S
C618 C616 1.381 . S
C618 C619 1.394 . S
C618 H626 0.930 . S
C619 C618 1.394 . S
C619 C620 1.383 . S
C619 H627 0.929 . S
C620 C619 1.383 . S
C620 C621 1.377 . S
C621 H605 0.930 . S
C621 C620 1.377 . S
C621 C622 1.379 . S
C622 H606 0.931 . S
C622 C616 1.383 . S
C622 C621 1.379 . S
H623 C617 0.959 . S
H624 C617 0.961 . S
H625 C617 0.960 . S
H626 C618 0.930 . S
H627 C619 0.929 . S
H628 C636 0.929 . S
H629 C638 0.930 . S
H630 C640 0.930 . S
H631 C643 0.929 . S
H632 C646 0.930 . S
H633 C648 0.960 . S
H634 C648 0.960 . S
H635 C648 0.960 . S
C636 H628 0.929 . S
C636 C637 1.377 . S
C636 C638 1.384 . S
C637 C636 1.377 . S
C637 C643 1.390 . S
C638 H629 0.930 . S
C638 C636 1.384 . S
C638 C639 1.372 . S
C639 C638 1.372 . S
C639 C640 1.400 . S
C639 C644 1.490 . S
C640 H630 0.930 . S
C640 C639 1.400 . S
C640 C643 1.386 . S
H641 C657 0.930 . S
H642 C658 0.931 . S
C643 H631 0.929 . S
C643 C637 1.390 . S
C643 C640 1.386 . S
C644 C639 1.490 . S
C644 C646 1.395 . S
C644 C647 1.403 . S
H645 C651 0.930 . S
C646 H632 0.930 . S
C646 C644 1.395 . S
C646 C649 1.403 . S
C647 C644 1.403 . S
C647 C648 1.524 . S
C647 C651 1.400 . S
C648 H633 0.960 . S
C648 H634 0.960 . S
C648 H635 0.960 . S
C648 C647 1.524 . S
C649 C646 1.403 . S
C649 C650 1.392 . S
C649 C653 1.495 . S
C650 C649 1.392 . S
C650 C651 1.385 . S
C650 C652 1.478 . S
C651 H645 0.930 . S
C651 C647 1.400 . S
C651 C650 1.385 . S
C652 C650 1.478 . S
C652 C654 1.381 . S
C652 C658 1.383 . S
C653 C649 1.495 . S
C653 H659 0.959 . S
C653 H660 0.961 . S
C653 H661 0.960 . S
C654 C652 1.381 . S
C654 C655 1.394 . S
C654 H662 0.930 . S
C655 C654 1.394 . S
C655 C656 1.383 . S
C655 H663 0.929 . S
C656 C655 1.383 . S
C656 C657 1.377 . S
C657 H641 0.930 . S
C657 C656 1.377 . S
C657 C658 1.379 . S
C658 H642 0.931 . S
C658 C652 1.383 . S
C658 C657 1.379 . S
H659 C653 0.959 . S
H660 C653 0.961 . S
H661 C653 0.960 . S
H662 C654 0.930 . S
H663 C655 0.929 . S
H664 C672 0.929 . S
H665 C674 0.930 . S
H666 C676 0.930 . S
H667 C679 0.929 . S
H668 C682 0.930 . S
H669 C684 0.960 . S
H670 C684 0.960 . S
H671 C684 0.960 . S
C672 H664 0.929 . S
C672 C673 1.377 . S
C672 C674 1.384 . S
C673 C672 1.377 . S
C673 C679 1.390 . S
C674 H665 0.930 . S
C674 C672 1.384 . S
C674 C675 1.372 . S
C675 C674 1.372 . S
C675 C676 1.400 . S
C675 C680 1.490 . S
C676 H666 0.930 . S
C676 C675 1.400 . S
C676 C679 1.386 . S
H677 C693 0.930 . S
H678 C694 0.931 . S
C679 H667 0.929 . S
C679 C673 1.390 . S
C679 C676 1.386 . S
C680 C675 1.490 . S
C680 C682 1.395 . S
C680 C683 1.403 . S
H681 C687 0.930 . S
C682 H668 0.930 . S
C682 C680 1.395 . S
C682 C685 1.403 . S
C683 C680 1.403 . S
C683 C684 1.524 . S
C683 C687 1.400 . S
C684 H669 0.960 . S
C684 H670 0.960 . S
C684 H671 0.960 . S
C684 C683 1.524 . S
C685 C682 1.403 . S
C685 C686 1.392 . S
C685 C689 1.495 . S
C686 C685 1.392 . S
C686 C687 1.385 . S
C686 C688 1.478 . S
C687 H681 0.930 . S
C687 C683 1.400 . S
C687 C686 1.385 . S
C688 C686 1.478 . S
C688 C690 1.381 . S
C688 C694 1.383 . S
C689 C685 1.495 . S
C689 H695 0.959 . S
C689 H696 0.961 . S
C689 H697 0.960 . S
C690 C688 1.381 . S
C690 C691 1.394 . S
C690 H698 0.930 . S
C691 C690 1.394 . S
C691 C692 1.383 . S
C691 H699 0.929 . S
C692 C691 1.383 . S
C692 C693 1.377 . S
C693 H677 0.930 . S
C693 C692 1.377 . S
C693 C694 1.379 . S
C694 H678 0.931 . S
C694 C688 1.383 . S
C694 C693 1.379 . S
H695 C689 0.959 . S
H696 C689 0.961 . S
H697 C689 0.960 . S
H698 C690 0.930 . S
H699 C691 0.929 . S
H700 C708 0.929 . S
H701 C710 0.930 . S
H702 C712 0.930 . S
H703 C715 0.929 . S
H704 C718 0.930 . S
H705 C720 0.960 . S
H706 C720 0.960 . S
H707 C720 0.960 . S
C708 H700 0.929 . S
C708 C709 1.377 . S
C708 C710 1.384 . S
C709 C708 1.377 . S
C709 C715 1.390 . S
C710 H701 0.930 . S
C710 C708 1.384 . S
C710 C711 1.372 . S
C711 C710 1.372 . S
C711 C712 1.400 . S
C711 C716 1.490 . S
C712 H702 0.930 . S
C712 C711 1.400 . S
C712 C715 1.386 . S
H713 C729 0.930 . S
H714 C730 0.931 . S
C715 H703 0.929 . S
C715 C709 1.390 . S
C715 C712 1.386 . S
C716 C711 1.490 . S
C716 C718 1.395 . S
C716 C719 1.403 . S
H717 C723 0.930 . S
C718 H704 0.930 . S
C718 C716 1.395 . S
C718 C721 1.403 . S
C719 C716 1.403 . S
C719 C720 1.524 . S
C719 C723 1.400 . S
C720 H705 0.960 . S
C720 H706 0.960 . S
C720 H707 0.960 . S
C720 C719 1.524 . S
C721 C718 1.403 . S
C721 C722 1.392 . S
C721 C725 1.495 . S
C722 C721 1.392 . S
C722 C723 1.385 . S
C722 C724 1.478 . S
C723 H717 0.930 . S
C723 C719 1.400 . S
C723 C722 1.385 . S
C724 C722 1.478 . S
C724 C726 1.381 . S
C724 C730 1.383 . S
C725 C721 1.495 . S
C725 H731 0.959 . S
C725 H732 0.961 . S
C725 H733 0.960 . S
C726 C724 1.381 . S
C726 C727 1.394 . S
C726 H734 0.930 . S
C727 C726 1.394 . S
C727 C728 1.383 . S
C727 H735 0.929 . S
C728 C727 1.383 . S
C728 C729 1.377 . S
C729 H713 0.930 . S
C729 C728 1.377 . S
C729 C730 1.379 . S
C730 H714 0.931 . S
C730 C724 1.383 . S
C730 C729 1.379 . S
H731 C725 0.959 . S
H732 C725 0.961 . S
H733 C725 0.960 . S
H734 C726 0.930 . S
H735 C727 0.929 . S
H736 C744 0.929 . S
H737 C746 0.930 . S
H738 C748 0.930 . S
H739 C751 0.929 . S
H740 C754 0.930 . S
H741 C756 0.960 . S
H742 C756 0.960 . S
H743 C756 0.960 . S
C744 H736 0.929 . S
C744 C745 1.377 . S
C744 C746 1.384 . S
C745 C744 1.377 . S
C745 C751 1.390 . S
C746 H737 0.930 . S
C746 C744 1.384 . S
C746 C747 1.372 . S
C747 C746 1.372 . S
C747 C748 1.400 . S
C747 C752 1.490 . S
C748 H738 0.930 . S
C748 C747 1.400 . S
C748 C751 1.386 . S
H749 C765 0.930 . S
H750 C766 0.931 . S
C751 H739 0.929 . S
C751 C745 1.390 . S
C751 C748 1.386 . S
C752 C747 1.490 . S
C752 C754 1.395 . S
C752 C755 1.403 . S
H753 C759 0.930 . S
C754 H740 0.930 . S
C754 C752 1.395 . S
C754 C757 1.403 . S
C755 C752 1.403 . S
C755 C756 1.524 . S
C755 C759 1.400 . S
C756 H741 0.960 . S
C756 H742 0.960 . S
C756 H743 0.960 . S
C756 C755 1.524 . S
C757 C754 1.403 . S
C757 C758 1.392 . S
C757 C761 1.495 . S
C758 C757 1.392 . S
C758 C759 1.385 . S
C758 C760 1.478 . S
C759 H753 0.930 . S
C759 C755 1.400 . S
C759 C758 1.385 . S
C760 C758 1.478 . S
C760 C762 1.381 . S
C760 C766 1.383 . S
C761 C757 1.495 . S
C761 H767 0.959 . S
C761 H768 0.961 . S
C761 H769 0.960 . S
C762 C760 1.381 . S
C762 C763 1.394 . S
C762 H770 0.930 . S
C763 C762 1.394 . S
C763 C764 1.383 . S
C763 H771 0.929 . S
C764 C763 1.383 . S
C764 C765 1.377 . S
C765 H749 0.930 . S
C765 C764 1.377 . S
C765 C766 1.379 . S
C766 H750 0.931 . S
C766 C760 1.383 . S
C766 C765 1.379 . S
H767 C761 0.959 . S
H768 C761 0.961 . S
H769 C761 0.960 . S
H770 C762 0.930 . S
H771 C763 0.929 . S
H772 C780 0.929 . S
H773 C782 0.930 . S
H774 C784 0.930 . S
H775 C787 0.929 . S
H776 C790 0.930 . S
H777 C792 0.960 . S
H778 C792 0.960 . S
H779 C792 0.960 . S
C780 H772 0.929 . S
C780 C781 1.377 . S
C780 C782 1.384 . S
C781 C780 1.377 . S
C781 C787 1.390 . S
C782 H773 0.930 . S
C782 C780 1.384 . S
C782 C783 1.372 . S
C783 C782 1.372 . S
C783 C784 1.400 . S
C783 C788 1.490 . S
C784 H774 0.930 . S
C784 C783 1.400 . S
C784 C787 1.386 . S
H785 C801 0.930 . S
H786 C802 0.931 . S
C787 H775 0.929 . S
C787 C781 1.390 . S
C787 C784 1.386 . S
C788 C783 1.490 . S
C788 C790 1.395 . S
C788 C791 1.403 . S
H789 C795 0.930 . S
C790 H776 0.930 . S
C790 C788 1.395 . S
C790 C793 1.403 . S
C791 C788 1.403 . S
C791 C792 1.524 . S
C791 C795 1.400 . S
C792 H777 0.960 . S
C792 H778 0.960 . S
C792 H779 0.960 . S
C792 C791 1.524 . S
C793 C790 1.403 . S
C793 C794 1.392 . S
C793 C797 1.495 . S
C794 C793 1.392 . S
C794 C795 1.385 . S
C794 C796 1.478 . S
C795 H789 0.930 . S
C795 C791 1.400 . S
C795 C794 1.385 . S
C796 C794 1.478 . S
C796 C798 1.381 . S
C796 C802 1.383 . S
C797 C793 1.495 . S
C797 H803 0.959 . S
C797 H804 0.961 . S
C797 H805 0.960 . S
C798 C796 1.381 . S
C798 C799 1.394 . S
C798 H806 0.930 . S
C799 C798 1.394 . S
C799 C800 1.383 . S
C799 H807 0.929 . S
C800 C799 1.383 . S
C800 C801 1.377 . S
C801 H785 0.930 . S
C801 C800 1.377 . S
C801 C802 1.379 . S
C802 H786 0.931 . S
C802 C796 1.383 . S
C802 C801 1.379 . S
H803 C797 0.959 . S
H804 C797 0.961 . S
H805 C797 0.960 . S
H806 C798 0.930 . S
H807 C799 0.929 . S
H808 C816 0.929 . S
H809 C818 0.930 . S
H810 C820 0.930 . S
H811 C823 0.929 . S
H812 C826 0.930 . S
H813 C828 0.960 . S
H814 C828 0.960 . S
H815 C828 0.960 . S
C816 H808 0.929 . S
C816 C817 1.377 . S
C816 C818 1.384 . S
C817 C816 1.377 . S
C817 C823 1.390 . S
C818 H809 0.930 . S
C818 C816 1.384 . S
C818 C819 1.372 . S
C819 C818 1.372 . S
C819 C820 1.400 . S
C819 C824 1.490 . S
C820 H810 0.930 . S
C820 C819 1.400 . S
C820 C823 1.386 . S
H821 C837 0.930 . S
H822 C838 0.931 . S
C823 H811 0.929 . S
C823 C817 1.390 . S
C823 C820 1.386 . S
C824 C819 1.490 . S
C824 C826 1.395 . S
C824 C827 1.403 . S
H825 C831 0.930 . S
C826 H812 0.930 . S
C826 C824 1.395 . S
C826 C829 1.403 . S
C827 C824 1.403 . S
C827 C828 1.524 . S
C827 C831 1.400 . S
C828 H813 0.960 . S
C828 H814 0.960 . S
C828 H815 0.960 . S
C828 C827 1.524 . S
C829 C826 1.403 . S
C829 C830 1.392 . S
C829 C833 1.495 . S
C830 C829 1.392 . S
C830 C831 1.385 . S
C830 C832 1.478 . S
C831 H825 0.930 . S
C831 C827 1.400 . S
C831 C830 1.385 . S
C832 C830 1.478 . S
C832 C834 1.381 . S
C832 C838 1.383 . S
C833 C829 1.495 . S
C833 H839 0.959 . S
C833 H840 0.961 . S
C833 H841 0.960 . S
C834 C832 1.381 . S
C834 C835 1.394 . S
C834 H842 0.930 . S
C835 C834 1.394 . S
C835 C836 1.383 . S
C835 H843 0.929 . S
C836 C835 1.383 . S
C836 C837 1.377 . S
C837 H821 0.930 . S
C837 C836 1.377 . S
C837 C838 1.379 . S
C838 H822 0.931 . S
C838 C832 1.383 . S
C838 C837 1.379 . S
H839 C833 0.959 . S
H840 C833 0.961 . S
H841 C833 0.960 . S
H842 C834 0.930 . S
H843 C835 0.929 . S
H844 C852 0.929 . S
H845 C854 0.930 . S
H846 C856 0.930 . S
H847 C859 0.929 . S
H848 C862 0.930 . S
H849 C864 0.960 . S
H850 C864 0.960 . S
H851 C864 0.960 . S
C852 H844 0.929 . S
C852 C853 1.377 . S
C852 C854 1.384 . S
C853 C852 1.377 . S
C853 C859 1.390 . S
C854 H845 0.930 . S
C854 C852 1.384 . S
C854 C855 1.372 . S
C855 C854 1.372 . S
C855 C856 1.400 . S
C855 C860 1.490 . S
C856 H846 0.930 . S
C856 C855 1.400 . S
C856 C859 1.386 . S
H857 C873 0.930 . S
H858 C874 0.931 . S
C859 H847 0.929 . S
C859 C853 1.390 . S
C859 C856 1.386 . S
C860 C855 1.490 . S
C860 C862 1.395 . S
C860 C863 1.403 . S
H861 C867 0.930 . S
C862 H848 0.930 . S
C862 C860 1.395 . S
C862 C865 1.403 . S
C863 C860 1.403 . S
C863 C864 1.524 . S
C863 C867 1.400 . S
C864 H849 0.960 . S
C864 H850 0.960 . S
C864 H851 0.960 . S
C864 C863 1.524 . S
C865 C862 1.403 . S
C865 C866 1.392 . S
C865 C869 1.495 . S
C866 C865 1.392 . S
C866 C867 1.385 . S
C866 C868 1.478 . S
C867 H861 0.930 . S
C867 C863 1.400 . S
C867 C866 1.385 . S
C868 C866 1.478 . S
C868 C870 1.381 . S
C868 C874 1.383 . S
C869 C865 1.495 . S
C869 H875 0.959 . S
C869 H876 0.961 . S
C869 H877 0.960 . S
C870 C868 1.381 . S
C870 C871 1.394 . S
C870 H878 0.930 . S
C871 C870 1.394 . S
C871 C872 1.383 . S
C871 H879 0.929 . S
C872 C871 1.383 . S
C872 C873 1.377 . S
C873 H857 0.930 . S
C873 C872 1.377 . S
C873 C874 1.379 . S
C874 H858 0.931 . S
C874 C868 1.383 . S
C874 C873 1.379 . S
H875 C869 0.959 . S
H876 C869 0.961 . S
H877 C869 0.960 . S
H878 C870 0.930 . S
H879 C871 0.929 . S
H880 C888 0.929 . S
H881 C890 0.930 . S
H882 C892 0.930 . S
H883 C895 0.929 . S
H884 C898 0.930 . S
H885 C900 0.960 . S
H886 C900 0.960 . S
H887 C900 0.960 . S
C888 H880 0.929 . S
C888 C889 1.377 . S
C888 C890 1.384 . S
C889 C888 1.377 . S
C889 C895 1.390 . S
C890 H881 0.930 . S
C890 C888 1.384 . S
C890 C891 1.372 . S
C891 C890 1.372 . S
C891 C892 1.400 . S
C891 C896 1.490 . S
C892 H882 0.930 . S
C892 C891 1.400 . S
C892 C895 1.386 . S
H893 C909 0.930 . S
H894 C910 0.931 . S
C895 H883 0.929 . S
C895 C889 1.390 . S
C895 C892 1.386 . S
C896 C891 1.490 . S
C896 C898 1.395 . S
C896 C899 1.403 . S
H897 C903 0.930 . S
C898 H884 0.930 . S
C898 C896 1.395 . S
C898 C901 1.403 . S
C899 C896 1.403 . S
C899 C900 1.524 . S
C899 C903 1.400 . S
C900 H885 0.960 . S
C900 H886 0.960 . S
C900 H887 0.960 . S
C900 C899 1.524 . S
C901 C898 1.403 . S
C901 C902 1.392 . S
C901 C905 1.495 . S
C902 C901 1.392 . S
C902 C903 1.385 . S
C902 C904 1.478 . S
C903 H897 0.930 . S
C903 C899 1.400 . S
C903 C902 1.385 . S
C904 C902 1.478 . S
C904 C906 1.381 . S
C904 C910 1.383 . S
C905 C901 1.495 . S
C905 H911 0.959 . S
C905 H912 0.961 . S
C905 H913 0.960 . S
C906 C904 1.381 . S
C906 C907 1.394 . S
C906 H914 0.930 . S
C907 C906 1.394 . S
C907 C908 1.383 . S
C907 H915 0.929 . S
C908 C907 1.383 . S
C908 C909 1.377 . S
C909 H893 0.930 . S
C909 C908 1.377 . S
C909 C910 1.379 . S
C910 H894 0.931 . S
C910 C904 1.383 . S
C910 C909 1.379 . S
H911 C905 0.959 . S
H912 C905 0.961 . S
H913 C905 0.960 . S
H914 C906 0.930 . S
H915 C907 0.929 . S
H916 C924 0.929 . S
H917 C926 0.930 . S
H918 C928 0.930 . S
H919 C931 0.929 . S
H920 C934 0.930 . S
H921 C936 0.960 . S
H922 C936 0.960 . S
H923 C936 0.960 . S
C924 H916 0.929 . S
C924 C925 1.377 . S
C924 C926 1.384 . S
C925 C924 1.377 . S
C925 C931 1.390 . S
C926 H917 0.930 . S
C926 C924 1.384 . S
C926 C927 1.372 . S
C927 C926 1.372 . S
C927 C928 1.400 . S
C927 C932 1.490 . S
C928 H918 0.930 . S
C928 C927 1.400 . S
C928 C931 1.386 . S
H929 C945 0.930 . S
H930 C946 0.931 . S
C931 H919 0.929 . S
C931 C925 1.390 . S
C931 C928 1.386 . S
C932 C927 1.490 . S
C932 C934 1.395 . S
C932 C935 1.403 . S
H933 C939 0.930 . S
C934 H920 0.930 . S
C934 C932 1.395 . S
C934 C937 1.403 . S
C935 C932 1.403 . S
C935 C936 1.524 . S
C935 C939 1.400 . S
C936 H921 0.960 . S
C936 H922 0.960 . S
C936 H923 0.960 . S
C936 C935 1.524 . S
C937 C934 1.403 . S
C937 C938 1.392 . S
C937 C941 1.495 . S
C938 C937 1.392 . S
C938 C939 1.385 . S
C938 C940 1.478 . S
C939 H933 0.930 . S
C939 C935 1.400 . S
C939 C938 1.385 . S
C940 C938 1.478 . S
C940 C942 1.381 . S
C940 C946 1.383 . S
C941 C937 1.495 . S
C941 H947 0.959 . S
C941 H948 0.961 . S
C941 H949 0.960 . S
C942 C940 1.381 . S
C942 C943 1.394 . S
C942 H950 0.930 . S
C943 C942 1.394 . S
C943 C944 1.383 . S
C943 H951 0.929 . S
C944 C943 1.383 . S
C944 C945 1.377 . S
C945 H929 0.930 . S
C945 C944 1.377 . S
C945 C946 1.379 . S
C946 H930 0.931 . S
C946 C940 1.383 . S
C946 C945 1.379 . S
H947 C941 0.959 . S
H948 C941 0.961 . S
H949 C941 0.960 . S
H950 C942 0.930 . S
H951 C943 0.929 . S
H952 C960 0.929 . S
H953 C962 0.930 . S
H954 C964 0.930 . S
H955 C967 0.929 . S
H956 C970 0.930 . S
H957 C972 0.960 . S
H958 C972 0.960 . S
H959 C972 0.960 . S
C960 H952 0.929 . S
C960 C961 1.377 . S
C960 C962 1.384 . S
C961 C960 1.377 . S
C961 C967 1.390 . S
C962 H953 0.930 . S
C962 C960 1.384 . S
C962 C963 1.372 . S
C963 C962 1.372 . S
C963 C964 1.400 . S
C963 C968 1.490 . S
C964 H954 0.930 . S
C964 C963 1.400 . S
C964 C967 1.386 . S
H965 C981 0.930 . S
H966 C982 0.931 . S
C967 H955 0.929 . S
C967 C961 1.390 . S
C967 C964 1.386 . S
C968 C963 1.490 . S
C968 C970 1.395 . S
C968 C971 1.403 . S
H969 C975 0.930 . S
C970 H956 0.930 . S
C970 C968 1.395 . S
C970 C973 1.403 . S
C971 C968 1.403 . S
C971 C972 1.524 . S
C971 C975 1.400 . S
C972 H957 0.960 . S
C972 H958 0.960 . S
C972 H959 0.960 . S
C972 C971 1.524 . S
C973 C970 1.403 . S
C973 C974 1.392 . S
C973 C977 1.495 . S
C974 C973 1.392 . S
C974 C975 1.385 . S
C974 C976 1.478 . S
C975 H969 0.930 . S
C975 C971 1.400 . S
C975 C974 1.385 . S
C976 C974 1.478 . S
C976 C978 1.381 . S
C976 C982 1.383 . S
C977 C973 1.495 . S
C977 H983 0.959 . S
C977 H984 0.961 . S
C977 H985 0.960 . S
C978 C976 1.381 . S
C978 C979 1.394 . S
C978 H986 0.930 . S
C979 C978 1.394 . S
C979 C980 1.383 . S
C979 H987 0.929 . S
C980 C979 1.383 . S
C980 C981 1.377 . S
C981 H965 0.930 . S
C981 C980 1.377 . S
C981 C982 1.379 . S
C982 H966 0.931 . S
C982 C976 1.383 . S
C982 C981 1.379 . S
H983 C977 0.959 . S
H984 C977 0.961 . S
H985 C977 0.960 . S
H986 C978 0.930 . S
H987 C979 0.929 . S
H988 C996 0.929 . S
H989 C998 0.930 . S
H990 C1000 0.930 . S
H991 C1003 0.929 . S
H992 C1006 0.930 . S
H993 C1008 0.960 . S
H994 C1008 0.960 . S
H995 C1008 0.960 . S
C996 H988 0.929 . S
C996 C997 1.377 . S
C996 C998 1.384 . S
C997 C996 1.377 . S
C997 C1003 1.390 . S
C998 H989 0.930 . S
C998 C996 1.384 . S
C998 C999 1.372 . S
C999 C998 1.372 . S
C999 C1000 1.400 . S
C999 C1004 1.490 . S
C1000 H990 0.930 . S
C1000 C999 1.400 . S
C1000 C1003 1.386 . S
H1001 C1017 0.930 . S
H1002 C1018 0.931 . S
C1003 H991 0.929 . S
C1003 C997 1.390 . S
C1003 C1000 1.386 . S
C1004 C999 1.490 . S
C1004 C1006 1.395 . S
C1004 C1007 1.403 . S
H1005 C1011 0.930 . S
C1006 H992 0.930 . S
C1006 C1004 1.395 . S
C1006 C1009 1.403 . S
C1007 C1004 1.403 . S
C1007 C1008 1.524 . S
C1007 C1011 1.400 . S
C1008 H993 0.960 . S
C1008 H994 0.960 . S
C1008 H995 0.960 . S
C1008 C1007 1.524 . S
C1009 C1006 1.403 . S
C1009 C1010 1.392 . S
C1009 C1013 1.495 . S
C1010 C1009 1.392 . S
C1010 C1011 1.385 . S
C1010 C1012 1.478 . S
C1011 H1005 0.930 . S
C1011 C1007 1.400 . S
C1011 C1010 1.385 . S
C1012 C1010 1.478 . S
C1012 C1014 1.381 . S
C1012 C1018 1.383 . S
C1013 C1009 1.495 . S
C1013 H1019 0.959 . S
C1013 H1020 0.961 . S
C1013 H1021 0.960 . S
C1014 C1012 1.381 . S
C1014 C1015 1.394 . S
C1014 H1022 0.930 . S
C1015 C1014 1.394 . S
C1015 C1016 1.383 . S
C1015 H1023 0.929 . S
C1016 C1015 1.383 . S
C1016 C1017 1.377 . S
C1017 H1001 0.930 . S
C1017 C1016 1.377 . S
C1017 C1018 1.379 . S
C1018 H1002 0.931 . S
C1018 C1012 1.383 . S
C1018 C1017 1.379 . S
H1019 C1013 0.959 . S
H1020 C1013 0.961 . S
H1021 C1013 0.960 . S
H1022 C1014 0.930 . S
H1023 C1015 0.929 . S
H1024 C1032 0.929 . S
H1025 C1034 0.930 . S
H1026 C1036 0.930 . S
H1027 C1039 0.929 . S
H1028 C1042 0.930 . S
H1029 C1044 0.960 . S
H1030 C1044 0.960 . S
H1031 C1044 0.960 . S
C1032 H1024 0.929 . S
C1032 C1033 1.377 . S
C1032 C1034 1.384 . S
C1033 C1032 1.377 . S
C1033 C1039 1.390 . S
C1034 H1025 0.930 . S
C1034 C1032 1.384 . S
C1034 C1035 1.372 . S
C1035 C1034 1.372 . S
C1035 C1036 1.400 . S
C1035 C1040 1.490 . S
C1036 H1026 0.930 . S
C1036 C1035 1.400 . S
C1036 C1039 1.386 . S
H1037 C1053 0.930 . S
H1038 C1054 0.931 . S
C1039 H1027 0.929 . S
C1039 C1033 1.390 . S
C1039 C1036 1.386 . S
C1040 C1035 1.490 . S
C1040 C1042 1.395 . S
C1040 C1043 1.403 . S
H1041 C1047 0.930 . S
C1042 H1028 0.930 . S
C1042 C1040 1.395 . S
C1042 C1045 1.403 . S
C1043 C1040 1.403 . S
C1043 C1044 1.524 . S
C1043 C1047 1.400 . S
C1044 H1029 0.960 . S
C1044 H1030 0.960 . S
C1044 H1031 0.960 . S
C1044 C1043 1.524 . S
C1045 C1042 1.403 . S
C1045 C1046 1.392 . S
C1045 C1049 1.495 . S
C1046 C1045 1.392 . S
C1046 C1047 1.385 . S
C1046 C1048 1.478 . S
C1047 H1041 0.930 . S
C1047 C1043 1.400 . S
C1047 C1046 1.385 . S
C1048 C1046 1.478 . S
C1048 C1050 1.381 . S
C1048 C1054 1.383 . S
C1049 C1045 1.495 . S
C1049 H1055 0.959 . S
C1049 H1056 0.961 . S
C1049 H1057 0.960 . S
C1050 C1048 1.381 . S
C1050 C1051 1.394 . S
C1050 H1058 0.930 . S
C1051 C1050 1.394 . S
C1051 C1052 1.383 . S
C1051 H1059 0.929 . S
C1052 C1051 1.383 . S
C1052 C1053 1.377 . S
C1053 H1037 0.930 . S
C1053 C1052 1.377 . S
C1053 C1054 1.379 . S
C1054 H1038 0.931 . S
C1054 C1048 1.383 . S
C1054 C1053 1.379 . S
H1055 C1049 0.959 . S
H1056 C1049 0.961 . S
H1057 C1049 0.960 . S
H1058 C1050 0.930 . S
H1059 C1051 0.929 . S
H1060 C1068 0.929 . S
H1061 C1070 0.930 . S
H1062 C1072 0.930 . S
H1063 C1075 0.929 . S
H1064 C1078 0.930 . S
H1065 C1080 0.960 . S
H1066 C1080 0.960 . S
H1067 C1080 0.960 . S
C1068 H1060 0.929 . S
C1068 C1069 1.377 . S
C1068 C1070 1.384 . S
C1069 C1068 1.377 . S
C1069 C1075 1.390 . S
C1070 H1061 0.930 . S
C1070 C1068 1.384 . S
C1070 C1071 1.372 . S
C1071 C1070 1.372 . S
C1071 C1072 1.400 . S
C1071 C1076 1.490 . S
C1072 H1062 0.930 . S
C1072 C1071 1.400 . S
C1072 C1075 1.386 . S
H1073 C1089 0.930 . S
H1074 C1090 0.931 . S
C1075 H1063 0.929 . S
C1075 C1069 1.390 . S
C1075 C1072 1.386 . S
C1076 C1071 1.490 . S
C1076 C1078 1.395 . S
C1076 C1079 1.403 . S
H1077 C1083 0.930 . S
C1078 H1064 0.930 . S
C1078 C1076 1.395 . S
C1078 C1081 1.403 . S
C1079 C1076 1.403 . S
C1079 C1080 1.524 . S
C1079 C1083 1.400 . S
C1080 H1065 0.960 . S
C1080 H1066 0.960 . S
C1080 H1067 0.960 . S
C1080 C1079 1.524 . S
C1081 C1078 1.403 . S
C1081 C1082 1.392 . S
C1081 C1085 1.495 . S
C1082 C1081 1.392 . S
C1082 C1083 1.385 . S
C1082 C1084 1.478 . S
C1083 H1077 0.930 . S
C1083 C1079 1.400 . S
C1083 C1082 1.385 . S
C1084 C1082 1.478 . S
C1084 C1086 1.381 . S
C1084 C1090 1.383 . S
C1085 C1081 1.495 . S
C1085 H1091 0.959 . S
C1085 H1092 0.961 . S
C1085 H1093 0.960 . S
C1086 C1084 1.381 . S
C1086 C1087 1.394 . S
C1086 H1094 0.930 . S
C1087 C1086 1.394 . S
C1087 C1088 1.383 . S
C1087 H1095 0.929 . S
C1088 C1087 1.383 . S
C1088 C1089 1.377 . S
C1089 H1073 0.930 . S
C1089 C1088 1.377 . S
C1089 C1090 1.379 . S
C1090 H1074 0.931 . S
C1090 C1084 1.383 . S
C1090 C1089 1.379 . S
H1091 C1085 0.959 . S
H1092 C1085 0.961 . S
H1093 C1085 0.960 . S
H1094 C1086 0.930 . S
H1095 C1087 0.929 . S
H1096 C1104 0.929 . S
H1097 C1106 0.930 . S
H1098 C1108 0.930 . S
H1099 C1111 0.929 . S
H1100 C1114 0.930 . S
H1101 C1116 0.960 . S
H1102 C1116 0.960 . S
H1103 C1116 0.960 . S
C1104 H1096 0.929 . S
C1104 C1105 1.377 . S
C1104 C1106 1.384 . S
C1105 C1104 1.377 . S
C1105 C1111 1.390 . S
C1106 H1097 0.930 . S
C1106 C1104 1.384 . S
C1106 C1107 1.372 . S
C1107 C1106 1.372 . S
C1107 C1108 1.400 . S
C1107 C1112 1.490 . S
C1108 H1098 0.930 . S
C1108 C1107 1.400 . S
C1108 C1111 1.386 . S
H1109 C1125 0.930 . S
H1110 C1126 0.931 . S
C1111 H1099 0.929 . S
C1111 C1105 1.390 . S
C1111 C1108 1.386 . S
C1112 C1107 1.490 . S
C1112 C1114 1.395 . S
C1112 C1115 1.403 . S
H1113 C1119 0.930 . S
C1114 H1100 0.930 . S
C1114 C1112 1.395 . S
C1114 C1117 1.403 . S
C1115 C1112 1.403 . S
C1115 C1116 1.524 . S
C1115 C1119 1.400 . S
C1116 H1101 0.960 . S
C1116 H1102 0.960 . S
C1116 H1103 0.960 . S
C1116 C1115 1.524 . S
C1117 C1114 1.403 . S
C1117 C1118 1.392 . S
C1117 C1121 1.495 . S
C1118 C1117 1.392 . S
C1118 C1119 1.385 . S
C1118 C1120 1.478 . S
C1119 H1113 0.930 . S
C1119 C1115 1.400 . S
C1119 C1118 1.385 . S
C1120 C1118 1.478 . S
C1120 C1122 1.381 . S
C1120 C1126 1.383 . S
C1121 C1117 1.495 . S
C1121 H1127 0.959 . S
C1121 H1128 0.961 . S
C1121 H1129 0.960 . S
C1122 C1120 1.381 . S
C1122 C1123 1.394 . S
C1122 H1130 0.930 . S
C1123 C1122 1.394 . S
C1123 C1124 1.383 . S
C1123 H1131 0.929 . S
C1124 C1123 1.383 . S
C1124 C1125 1.377 . S
C1125 H1109 0.930 . S
C1125 C1124 1.377 . S
C1125 C1126 1.379 . S
C1126 H1110 0.931 . S
C1126 C1120 1.383 . S
C1126 C1125 1.379 . S
H1127 C1121 0.959 . S
H1128 C1121 0.961 . S
H1129 C1121 0.960 . S
H1130 C1122 0.930 . S
H1131 C1123 0.929 . S
H1132 C1140 0.929 . S
H1133 C1142 0.930 . S
H1134 C1144 0.930 . S
H1135 C1147 0.929 . S
H1136 C1150 0.930 . S
H1137 C1152 0.960 . S
H1138 C1152 0.960 . S
H1139 C1152 0.960 . S
C1140 H1132 0.929 . S
C1140 C1141 1.377 . S
C1140 C1142 1.384 . S
C1141 C1140 1.377 . S
C1141 C1147 1.390 . S
C1142 H1133 0.930 . S
C1142 C1140 1.384 . S
C1142 C1143 1.372 . S
C1143 C1142 1.372 . S
C1143 C1144 1.400 . S
C1143 C1148 1.490 . S
C1144 H1134 0.930 . S
C1144 C1143 1.400 . S
C1144 C1147 1.386 . S
H1145 C1161 0.930 . S
H1146 C1162 0.931 . S
C1147 H1135 0.929 . S
C1147 C1141 1.390 . S
C1147 C1144 1.386 . S
C1148 C1143 1.490 . S
C1148 C1150 1.395 . S
C1148 C1151 1.403 . S
H1149 C1155 0.930 . S
C1150 H1136 0.930 . S
C1150 C1148 1.395 . S
C1150 C1153 1.403 . S
C1151 C1148 1.403 . S
C1151 C1152 1.524 . S
C1151 C1155 1.400 . S
C1152 H1137 0.960 . S
C1152 H1138 0.960 . S
C1152 H1139 0.960 . S
C1152 C1151 1.524 . S
C1153 C1150 1.403 . S
C1153 C1154 1.392 . S
C1153 C1157 1.495 . S
C1154 C1153 1.392 . S
C1154 C1155 1.385 . S
C1154 C1156 1.478 . S
C1155 H1149 0.930 . S
C1155 C1151 1.400 . S
C1155 C1154 1.385 . S
C1156 C1154 1.478 . S
C1156 C1158 1.381 . S
C1156 C1162 1.383 . S
C1157 C1153 1.495 . S
C1157 H1163 0.959 . S
C1157 H1164 0.961 . S
C1157 H1165 0.960 . S
C1158 C1156 1.381 . S
C1158 C1159 1.394 . S
C1158 H1166 0.930 . S
C1159 C1158 1.394 . S
C1159 C1160 1.383 . S
C1159 H1167 0.929 . S
C1160 C1159 1.383 . S
C1160 C1161 1.377 . S
C1161 H1145 0.930 . S
C1161 C1160 1.377 . S
C1161 C1162 1.379 . S
C1162 H1146 0.931 . S
C1162 C1156 1.383 . S
C1162 C1161 1.379 . S
H1163 C1157 0.959 . S
H1164 C1157 0.961 . S
H1165 C1157 0.960 . S
H1166 C1158 0.930 . S
H1167 C1159 0.929 . S
H1168 C1176 0.929 . S
H1169 C1178 0.930 . S
H1170 C1180 0.930 . S
H1171 C1183 0.929 . S
H1172 C1186 0.930 . S
H1173 C1188 0.960 . S
H1174 C1188 0.960 . S
H1175 C1188 0.960 . S
C1176 H1168 0.929 . S
C1176 C1177 1.377 . S
C1176 C1178 1.384 . S
C1177 C1176 1.377 . S
C1177 C1183 1.390 . S
C1178 H1169 0.930 . S
C1178 C1176 1.384 . S
C1178 C1179 1.372 . S
C1179 C1178 1.372 . S
C1179 C1180 1.400 . S
C1179 C1184 1.490 . S
C1180 H1170 0.930 . S
C1180 C1179 1.400 . S
C1180 C1183 1.386 . S
H1181 C1197 0.930 . S
H1182 C1198 0.931 . S
C1183 H1171 0.929 . S
C1183 C1177 1.390 . S
C1183 C1180 1.386 . S
C1184 C1179 1.490 . S
C1184 C1186 1.395 . S
C1184 C1187 1.403 . S
H1185 C1191 0.930 . S
C1186 H1172 0.930 . S
C1186 C1184 1.395 . S
C1186 C1189 1.403 . S
C1187 C1184 1.403 . S
C1187 C1188 1.524 . S
C1187 C1191 1.400 . S
C1188 H1173 0.960 . S
C1188 H1174 0.960 . S
C1188 H1175 0.960 . S
C1188 C1187 1.524 . S
C1189 C1186 1.403 . S
C1189 C1190 1.392 . S
C1189 C1193 1.495 . S
C1190 C1189 1.392 . S
C1190 C1191 1.385 . S
C1190 C1192 1.478 . S
C1191 H1185 0.930 . S
C1191 C1187 1.400 . S
C1191 C1190 1.385 . S
C1192 C1190 1.478 . S
C1192 C1194 1.381 . S
C1192 C1198 1.383 . S
C1193 C1189 1.495 . S
C1193 H1199 0.959 . S
C1193 H1200 0.961 . S
C1193 H1201 0.960 . S
C1194 C1192 1.381 . S
C1194 C1195 1.394 . S
C1194 H1202 0.930 . S
C1195 C1194 1.394 . S
C1195 C1196 1.383 . S
C1195 H1203 0.929 . S
C1196 C1195 1.383 . S
C1196 C1197 1.377 . S
C1197 H1181 0.930 . S
C1197 C1196 1.377 . S
C1197 C1198 1.379 . S
C1198 H1182 0.931 . S
C1198 C1192 1.383 . S
C1198 C1197 1.379 . S
H1199 C1193 0.959 . S
H1200 C1193 0.961 . S
H1201 C1193 0.960 . S
H1202 C1194 0.930 . S
H1203 C1195 0.929 . S
H1204 C1212 0.929 . S
H1205 C1214 0.930 . S
H1206 C1216 0.930 . S
H1207 C1219 0.929 . S
H1208 C1222 0.930 . S
H1209 C1224 0.960 . S
H1210 C1224 0.960 . S
H1211 C1224 0.960 . S
C1212 H1204 0.929 . S
C1212 C1213 1.377 . S
C1212 C1214 1.384 . S
C1213 C1212 1.377 . S
C1213 C1219 1.390 . S
C1214 H1205 0.930 . S
C1214 C1212 1.384 . S
C1214 C1215 1.372 . S
C1215 C1214 1.372 . S
C1215 C1216 1.400 . S
C1215 C1220 1.490 . S
C1216 H1206 0.930 . S
C1216 C1215 1.400 . S
C1216 C1219 1.386 . S
H1217 C1233 0.930 . S
H1218 C1234 0.931 . S
C1219 H1207 0.929 . S
C1219 C1213 1.390 . S
C1219 C1216 1.386 . S
C1220 C1215 1.490 . S
C1220 C1222 1.395 . S
C1220 C1223 1.403 . S
H1221 C1227 0.930 . S
C1222 H1208 0.930 . S
C1222 C1220 1.395 . S
C1222 C1225 1.403 . S
C1223 C1220 1.403 . S
C1223 C1224 1.524 . S
C1223 C1227 1.400 . S
C1224 H1209 0.960 . S
C1224 H1210 0.960 . S
C1224 H1211 0.960 . S
C1224 C1223 1.524 . S
C1225 C1222 1.403 . S
C1225 C1226 1.392 . S
C1225 C1229 1.495 . S
C1226 C1225 1.392 . S
C1226 C1227 1.385 . S
C1226 C1228 1.478 . S
C1227 H1221 0.930 . S
C1227 C1223 1.400 . S
C1227 C1226 1.385 . S
C1228 C1226 1.478 . S
C1228 C1230 1.381 . S
C1228 C1234 1.383 . S
C1229 C1225 1.495 . S
C1229 H1235 0.959 . S
C1229 H1236 0.961 . S
C1229 H1237 0.960 . S
C1230 C1228 1.381 . S
C1230 C1231 1.394 . S
C1230 H1238 0.930 . S
C1231 C1230 1.394 . S
C1231 C1232 1.383 . S
C1231 H1239 0.929 . S
C1232 C1231 1.383 . S
C1232 C1233 1.377 . S
C1233 H1217 0.930 . S
C1233 C1232 1.377 . S
C1233 C1234 1.379 . S
C1234 H1218 0.931 . S
C1234 C1228 1.383 . S
C1234 C1233 1.379 . S
H1235 C1229 0.959 . S
H1236 C1229 0.961 . S
H1237 C1229 0.960 . S
H1238 C1230 0.930 . S
H1239 C1231 0.929 . S
H1240 C1248 0.929 . S
H1241 C1250 0.930 . S
H1242 C1252 0.930 . S
H1243 C1255 0.929 . S
H1244 C1258 0.930 . S
H1245 C1260 0.960 . S
H1246 C1260 0.960 . S
H1247 C1260 0.960 . S
C1248 H1240 0.929 . S
C1248 C1249 1.377 . S
C1248 C1250 1.384 . S
C1249 C1248 1.377 . S
C1249 C1255 1.390 . S
C1250 H1241 0.930 . S
C1250 C1248 1.384 . S
C1250 C1251 1.372 . S
C1251 C1250 1.372 . S
C1251 C1252 1.400 . S
C1251 C1256 1.490 . S
C1252 H1242 0.930 . S
C1252 C1251 1.400 . S
C1252 C1255 1.386 . S
H1253 C1269 0.930 . S
H1254 C1270 0.931 . S
C1255 H1243 0.929 . S
C1255 C1249 1.390 . S
C1255 C1252 1.386 . S
C1256 C1251 1.490 . S
C1256 C1258 1.395 . S
C1256 C1259 1.403 . S
H1257 C1263 0.930 . S
C1258 H1244 0.930 . S
C1258 C1256 1.395 . S
C1258 C1261 1.403 . S
C1259 C1256 1.403 . S
C1259 C1260 1.524 . S
C1259 C1263 1.400 . S
C1260 H1245 0.960 . S
C1260 H1246 0.960 . S
C1260 H1247 0.960 . S
C1260 C1259 1.524 . S
C1261 C1258 1.403 . S
C1261 C1262 1.392 . S
C1261 C1265 1.495 . S
C1262 C1261 1.392 . S
C1262 C1263 1.385 . S
C1262 C1264 1.478 . S
C1263 H1257 0.930 . S
C1263 C1259 1.400 . S
C1263 C1262 1.385 . S
C1264 C1262 1.478 . S
C1264 C1266 1.381 . S
C1264 C1270 1.383 . S
C1265 C1261 1.495 . S
C1265 H1271 0.959 . S
C1265 H1272 0.961 . S
C1265 H1273 0.960 . S
C1266 C1264 1.381 . S
C1266 C1267 1.394 . S
C1266 H1274 0.930 . S
C1267 C1266 1.394 . S
C1267 C1268 1.383 . S
C1267 H1275 0.929 . S
C1268 C1267 1.383 . S
C1268 C1269 1.377 . S
C1269 H1253 0.930 . S
C1269 C1268 1.377 . S
C1269 C1270 1.379 . S
C1270 H1254 0.931 . S
C1270 C1264 1.383 . S
C1270 C1269 1.379 . S
H1271 C1265 0.959 . S
H1272 C1265 0.961 . S
H1273 C1265 0.960 . S
H1274 C1266 0.930 . S
H1275 C1267 0.929 . S
H1276 C1284 0.929 . S
H1277 C1286 0.930 . S
H1278 C1288 0.930 . S
H1279 C1291 0.929 . S
H1280 C1294 0.930 . S
H1281 C1296 0.960 . S
H1282 C1296 0.960 . S
H1283 C1296 0.960 . S
C1284 H1276 0.929 . S
C1284 C1285 1.377 . S
C1284 C1286 1.384 . S
C1285 C1284 1.377 . S
C1285 C1291 1.390 . S
C1286 H1277 0.930 . S
C1286 C1284 1.384 . S
C1286 C1287 1.372 . S
C1287 C1286 1.372 . S
C1287 C1288 1.400 . S
C1287 C1292 1.490 . S
C1288 H1278 0.930 . S
C1288 C1287 1.400 . S
C1288 C1291 1.386 . S
H1289 C1305 0.930 . S
H1290 C1306 0.931 . S
C1291 H1279 0.929 . S
C1291 C1285 1.390 . S
C1291 C1288 1.386 . S
C1292 C1287 1.490 . S
C1292 C1294 1.395 . S
C1292 C1295 1.403 . S
H1293 C1299 0.930 . S
C1294 H1280 0.930 . S
C1294 C1292 1.395 . S
C1294 C1297 1.403 . S
C1295 C1292 1.403 . S
C1295 C1296 1.524 . S
C1295 C1299 1.400 . S
C1296 H1281 0.960 . S
C1296 H1282 0.960 . S
C1296 H1283 0.960 . S
C1296 C1295 1.524 . S
C1297 C1294 1.403 . S
C1297 C1298 1.392 . S
C1297 C1301 1.495 . S
C1298 C1297 1.392 . S
C1298 C1299 1.385 . S
C1298 C1300 1.478 . S
C1299 H1293 0.930 . S
C1299 C1295 1.400 . S
C1299 C1298 1.385 . S
C1300 C1298 1.478 . S
C1300 C1302 1.381 . S
C1300 C1306 1.383 . S
C1301 C1297 1.495 . S
C1301 H1307 0.959 . S
C1301 H1308 0.961 . S
C1301 H1309 0.960 . S
C1302 C1300 1.381 . S
C1302 C1303 1.394 . S
C1302 H1310 0.930 . S
C1303 C1302 1.394 . S
C1303 C1304 1.383 . S
C1303 H1311 0.929 . S
C1304 C1303 1.383 . S
C1304 C1305 1.377 . S
C1305 H1289 0.930 . S
C1305 C1304 1.377 . S
C1305 C1306 1.379 . S
C1306 H1290 0.931 . S
C1306 C1300 1.383 . S
C1306 C1305 1.379 . S
H1307 C1301 0.959 . S
H1308 C1301 0.961 . S
H1309 C1301 0.960 . S
H1310 C1302 0.930 . S
H1311 C1303 0.929 . S
H1312 C1320 0.929 . S
H1313 C1322 0.930 . S
H1314 C1324 0.930 . S
H1315 C1327 0.929 . S
H1316 C1330 0.930 . S
H1317 C1332 0.960 . S
H1318 C1332 0.960 . S
H1319 C1332 0.960 . S
C1320 H1312 0.929 . S
C1320 C1321 1.377 . S
C1320 C1322 1.384 . S
C1321 C1320 1.377 . S
C1321 C1327 1.390 . S
C1322 H1313 0.930 . S
C1322 C1320 1.384 . S
C1322 C1323 1.372 . S
C1323 C1322 1.372 . S
C1323 C1324 1.400 . S
C1323 C1328 1.490 . S
C1324 H1314 0.930 . S
C1324 C1323 1.400 . S
C1324 C1327 1.386 . S
H1325 C1341 0.930 . S
H1326 C1342 0.931 . S
C1327 H1315 0.929 . S
C1327 C1321 1.390 . S
C1327 C1324 1.386 . S
C1328 C1323 1.490 . S
C1328 C1330 1.395 . S
C1328 C1331 1.403 . S
H1329 C1335 0.930 . S
C1330 H1316 0.930 . S
C1330 C1328 1.395 . S
C1330 C1333 1.403 . S
C1331 C1328 1.403 . S
C1331 C1332 1.524 . S
C1331 C1335 1.400 . S
C1332 H1317 0.960 . S
C1332 H1318 0.960 . S
C1332 H1319 0.960 . S
C1332 C1331 1.524 . S
C1333 C1330 1.403 . S
C1333 C1334 1.392 . S
C1333 C1337 1.495 . S
C1334 C1333 1.392 . S
C1334 C1335 1.385 . S
C1334 C1336 1.478 . S
C1335 H1329 0.930 . S
C1335 C1331 1.400 . S
C1335 C1334 1.385 . S
C1336 C1334 1.478 . S
C1336 C1338 1.381 . S
C1336 C1342 1.383 . S
C1337 C1333 1.495 . S
C1337 H1343 0.959 . S
C1337 H1344 0.961 . S
C1337 H1345 0.960 . S
C1338 C1336 1.381 . S
C1338 C1339 1.394 . S
C1338 H1346 0.930 . S
C1339 C1338 1.394 . S
C1339 C1340 1.383 . S
C1339 H1347 0.929 . S
C1340 C1339 1.383 . S
C1340 C1341 1.377 . S
C1341 H1325 0.930 . S
C1341 C1340 1.377 . S
C1341 C1342 1.379 . S
C1342 H1326 0.931 . S
C1342 C1336 1.383 . S
C1342 C1341 1.379 . S
H1343 C1337 0.959 . S
H1344 C1337 0.961 . S
H1345 C1337 0.960 . S
H1346 C1338 0.930 . S
H1347 C1339 0.929 . S
H1348 C1356 0.929 . S
H1349 C1358 0.930 . S
H1350 C1360 0.930 . S
H1351 C1363 0.929 . S
H1352 C1366 0.930 . S
H1353 C1368 0.960 . S
H1354 C1368 0.960 . S
H1355 C1368 0.960 . S
C1356 H1348 0.929 . S
C1356 C1357 1.377 . S
C1356 C1358 1.384 . S
C1357 C1356 1.377 . S
C1357 C1363 1.390 . S
C1358 H1349 0.930 . S
C1358 C1356 1.384 . S
C1358 C1359 1.372 . S
C1359 C1358 1.372 . S
C1359 C1360 1.400 . S
C1359 C1364 1.490 . S
C1360 H1350 0.930 . S
C1360 C1359 1.400 . S
C1360 C1363 1.386 . S
H1361 C1377 0.930 . S
H1362 C1378 0.931 . S
C1363 H1351 0.929 . S
C1363 C1357 1.390 . S
C1363 C1360 1.386 . S
C1364 C1359 1.490 . S
C1364 C1366 1.395 . S
C1364 C1367 1.403 . S
H1365 C1371 0.930 . S
C1366 H1352 0.930 . S
C1366 C1364 1.395 . S
C1366 C1369 1.403 . S
C1367 C1364 1.403 . S
C1367 C1368 1.524 . S
C1367 C1371 1.400 . S
C1368 H1353 0.960 . S
C1368 H1354 0.960 . S
C1368 H1355 0.960 . S
C1368 C1367 1.524 . S
C1369 C1366 1.403 . S
C1369 C1370 1.392 . S
C1369 C1373 1.495 . S
C1370 C1369 1.392 . S
C1370 C1371 1.385 . S
C1370 C1372 1.478 . S
C1371 H1365 0.930 . S
C1371 C1367 1.400 . S
C1371 C1370 1.385 . S
C1372 C1370 1.478 . S
C1372 C1374 1.381 . S
C1372 C1378 1.383 . S
C1373 C1369 1.495 . S
C1373 H1379 0.959 . S
C1373 H1380 0.961 . S
C1373 H1381 0.960 . S
C1374 C1372 1.381 . S
C1374 C1375 1.394 . S
C1374 H1382 0.930 . S
C1375 C1374 1.394 . S
C1375 C1376 1.383 . S
C1375 H1383 0.929 . S
C1376 C1375 1.383 . S
C1376 C1377 1.377 . S
C1377 H1361 0.930 . S
C1377 C1376 1.377 . S
C1377 C1378 1.379 . S
C1378 H1362 0.931 . S
C1378 C1372 1.383 . S
C1378 C1377 1.379 . S
H1379 C1373 0.959 . S
H1380 C1373 0.961 . S
H1381 C1373 0.960 . S
H1382 C1374 0.930 . S
H1383 C1375 0.929 . S
H1384 C1392 0.929 . S
H1385 C1394 0.930 . S
H1386 C1396 0.930 . S
H1387 C1399 0.929 . S
H1388 C1402 0.930 . S
H1389 C1404 0.960 . S
H1390 C1404 0.960 . S
H1391 C1404 0.960 . S
C1392 H1384 0.929 . S
C1392 C1393 1.377 . S
C1392 C1394 1.384 . S
C1393 C1392 1.377 . S
C1393 C1399 1.390 . S
C1394 H1385 0.930 . S
C1394 C1392 1.384 . S
C1394 C1395 1.372 . S
C1395 C1394 1.372 . S
C1395 C1396 1.400 . S
C1395 C1400 1.490 . S
C1396 H1386 0.930 . S
C1396 C1395 1.400 . S
C1396 C1399 1.386 . S
H1397 C1413 0.930 . S
H1398 C1414 0.931 . S
C1399 H1387 0.929 . S
C1399 C1393 1.390 . S
C1399 C1396 1.386 . S
C1400 C1395 1.490 . S
C1400 C1402 1.395 . S
C1400 C1403 1.403 . S
H1401 C1407 0.930 . S
C1402 H1388 0.930 . S
C1402 C1400 1.395 . S
C1402 C1405 1.403 . S
C1403 C1400 1.403 . S
C1403 C1404 1.524 . S
C1403 C1407 1.400 . S
C1404 H1389 0.960 . S
C1404 H1390 0.960 . S
C1404 H1391 0.960 . S
C1404 C1403 1.524 . S
C1405 C1402 1.403 . S
C1405 C1406 1.392 . S
C1405 C1409 1.495 . S
C1406 C1405 1.392 . S
C1406 C1407 1.385 . S
C1406 C1408 1.478 . S
C1407 H1401 0.930 . S
C1407 C1403 1.400 . S
C1407 C1406 1.385 . S
C1408 C1406 1.478 . S
C1408 C1410 1.381 . S
C1408 C1414 1.383 . S
C1409 C1405 1.495 . S
C1409 H1415 0.959 . S
C1409 H1416 0.961 . S
C1409 H1417 0.960 . S
C1410 C1408 1.381 . S
C1410 C1411 1.394 . S
C1410 H1418 0.930 . S
C1411 C1410 1.394 . S
C1411 C1412 1.383 . S
C1411 H1419 0.929 . S
C1412 C1411 1.383 . S
C1412 C1413 1.377 . S
C1413 H1397 0.930 . S
C1413 C1412 1.377 . S
C1413 C1414 1.379 . S
C1414 H1398 0.931 . S
C1414 C1408 1.383 . S
C1414 C1413 1.379 . S
H1415 C1409 0.959 . S
H1416 C1409 0.961 . S
H1417 C1409 0.960 . S
H1418 C1410 0.930 . S
H1419 C1411 0.929 . S
H1420 C1428 0.929 . S
H1421 C1430 0.930 . S
H1422 C1432 0.930 . S
H1423 C1435 0.929 . S
H1424 C1438 0.930 . S
H1425 C1440 0.960 . S
H1426 C1440 0.960 . S
H1427 C1440 0.960 . S
C1428 H1420 0.929 . S
C1428 C1429 1.377 . S
C1428 C1430 1.384 . S
C1429 C1428 1.377 . S
C1429 C1435 1.390 . S
C1430 H1421 0.930 . S
C1430 C1428 1.384 . S
C1430 C1431 1.372 . S
C1431 C1430 1.372 . S
C1431 C1432 1.400 . S
C1431 C1436 1.490 . S
C1432 H1422 0.930 . S
C1432 C1431 1.400 . S
C1432 C1435 1.386 . S
H1433 C1449 0.930 . S
H1434 C1450 0.931 . S
C1435 H1423 0.929 . S
C1435 C1429 1.390 . S
C1435 C1432 1.386 . S
C1436 C1431 1.490 . S
C1436 C1438 1.395 . S
C1436 C1439 1.403 . S
H1437 C1443 0.930 . S
C1438 H1424 0.930 . S
C1438 C1436 1.395 . S
C1438 C1441 1.403 . S
C1439 C1436 1.403 . S
C1439 C1440 1.524 . S
C1439 C1443 1.400 . S
C1440 H1425 0.960 . S
C1440 H1426 0.960 . S
C1440 H1427 0.960 . S
C1440 C1439 1.524 . S
C1441 C1438 1.403 . S
C1441 C1442 1.392 . S
C1441 C1445 1.495 . S
C1442 C1441 1.392 . S
C1442 C1443 1.385 . S
C1442 C1444 1.478 . S
C1443 H1437 0.930 . S
C1443 C1439 1.400 . S
C1443 C1442 1.385 . S
C1444 C1442 1.478 . S
C1444 C1446 1.381 . S
C1444 C1450 1.383 . S
C1445 C1441 1.495 . S
C1445 H1451 0.959 . S
C1445 H1452 0.961 . S
C1445 H1453 0.960 . S
C1446 C1444 1.381 . S
C1446 C1447 1.394 . S
C1446 H1454 0.930 . S
C1447 C1446 1.394 . S
C1447 C1448 1.383 . S
C1447 H1455 0.929 . S
C1448 C1447 1.383 . S
C1448 C1449 1.377 . S
C1449 H1433 0.930 . S
C1449 C1448 1.377 . S
C1449 C1450 1.379 . S
C1450 H1434 0.931 . S
C1450 C1444 1.383 . S
C1450 C1449 1.379 . S
H1451 C1445 0.959 . S
H1452 C1445 0.961 . S
H1453 C1445 0.960 . S
H1454 C1446 0.930 . S
H1455 C1447 0.929 . S
H1456 C1464 0.929 . S
H1457 C1466 0.930 . S
H1458 C1468 0.930 . S
H1459 C1471 0.929 . S
H1460 C1474 0.930 . S
H1461 C1476 0.960 . S
H1462 C1476 0.960 . S
H1463 C1476 0.960 . S
C1464 H1456 0.929 . S
C1464 C1465 1.377 . S
C1464 C1466 1.384 . S
C1465 C1464 1.377 . S
C1465 C1471 1.390 . S
C1466 H1457 0.930 . S
C1466 C1464 1.384 . S
C1466 C1467 1.372 . S
C1467 C1466 1.372 . S
C1467 C1468 1.400 . S
C1467 C1472 1.490 . S
C1468 H1458 0.930 . S
C1468 C1467 1.400 . S
C1468 C1471 1.386 . S
H1469 C1485 0.930 . S
H1470 C1486 0.931 . S
C1471 H1459 0.929 . S
C1471 C1465 1.390 . S
C1471 C1468 1.386 . S
C1472 C1467 1.490 . S
C1472 C1474 1.395 . S
C1472 C1475 1.403 . S
H1473 C1479 0.930 . S
C1474 H1460 0.930 . S
C1474 C1472 1.395 . S
C1474 C1477 1.403 . S
C1475 C1472 1.403 . S
C1475 C1476 1.524 . S
C1475 C1479 1.400 . S
C1476 H1461 0.960 . S
C1476 H1462 0.960 . S
C1476 H1463 0.960 . S
C1476 C1475 1.524 . S
C1477 C1474 1.403 . S
C1477 C1478 1.392 . S
C1477 C1481 1.495 . S
C1478 C1477 1.392 . S
C1478 C1479 1.385 . S
C1478 C1480 1.478 . S
C1479 H1473 0.930 . S
C1479 C1475 1.400 . S
C1479 C1478 1.385 . S
C1480 C1478 1.478 . S
C1480 C1482 1.381 . S
C1480 C1486 1.383 . S
C1481 C1477 1.495 . S
C1481 H1487 0.959 . S
C1481 H1488 0.961 . S
C1481 H1489 0.960 . S
C1482 C1480 1.381 . S
C1482 C1483 1.394 . S
C1482 H1490 0.930 . S
C1483 C1482 1.394 . S
C1483 C1484 1.383 . S
C1483 H1491 0.929 . S
C1484 C1483 1.383 . S
C1484 C1485 1.377 . S
C1485 H1469 0.930 . S
C1485 C1484 1.377 . S
C1485 C1486 1.379 . S
C1486 H1470 0.931 . S
C1486 C1480 1.383 . S
C1486 C1485 1.379 . S
H1487 C1481 0.959 . S
H1488 C1481 0.961 . S
H1489 C1481 0.960 . S
H1490 C1482 0.930 . S
H1491 C1483 0.929 . S
H1492 C1500 0.929 . S
H1493 C1502 0.930 . S
H1494 C1504 0.930 . S
H1495 C1507 0.929 . S
H1496 C1510 0.930 . S
H1497 C1512 0.960 . S
H1498 C1512 0.960 . S
H1499 C1512 0.960 . S
C1500 H1492 0.929 . S
C1500 C1501 1.377 . S
C1500 C1502 1.384 . S
C1501 C1500 1.377 . S
C1501 C1507 1.390 . S
C1502 H1493 0.930 . S
C1502 C1500 1.384 . S
C1502 C1503 1.372 . S
C1503 C1502 1.372 . S
C1503 C1504 1.400 . S
C1503 C1508 1.490 . S
C1504 H1494 0.930 . S
C1504 C1503 1.400 . S
C1504 C1507 1.386 . S
H1505 C1521 0.930 . S
H1506 C1522 0.931 . S
C1507 H1495 0.929 . S
C1507 C1501 1.390 . S
C1507 C1504 1.386 . S
C1508 C1503 1.490 . S
C1508 C1510 1.395 . S
C1508 C1511 1.403 . S
H1509 C1515 0.930 . S
C1510 H1496 0.930 . S
C1510 C1508 1.395 . S
C1510 C1513 1.403 . S
C1511 C1508 1.403 . S
C1511 C1512 1.524 . S
C1511 C1515 1.400 . S
C1512 H1497 0.960 . S
C1512 H1498 0.960 . S
C1512 H1499 0.960 . S
C1512 C1511 1.524 . S
C1513 C1510 1.403 . S
C1513 C1514 1.392 . S
C1513 C1517 1.495 . S
C1514 C1513 1.392 . S
C1514 C1515 1.385 . S
C1514 C1516 1.478 . S
C1515 H1509 0.930 . S
C1515 C1511 1.400 . S
C1515 C1514 1.385 . S
C1516 C1514 1.478 . S
C1516 C1518 1.381 . S
C1516 C1522 1.383 . S
C1517 C1513 1.495 . S
C1517 H1523 0.959 . S
C1517 H1524 0.961 . S
C1517 H1525 0.960 . S
C1518 C1516 1.381 . S
C1518 C1519 1.394 . S
C1518 H1526 0.930 . S
C1519 C1518 1.394 . S
C1519 C1520 1.383 . S
C1519 H1527 0.929 . S
C1520 C1519 1.383 . S
C1520 C1521 1.377 . S
C1521 H1505 0.930 . S
C1521 C1520 1.377 . S
C1521 C1522 1.379 . S
C1522 H1506 0.931 . S
C1522 C1516 1.383 . S
C1522 C1521 1.379 . S
H1523 C1517 0.959 . S
H1524 C1517 0.961 . S
H1525 C1517 0.960 . S
H1526 C1518 0.930 . S
H1527 C1519 0.929 . S
H1528 C1536 0.929 . S
H1529 C1538 0.930 . S
H1530 C1540 0.930 . S
H1531 C1543 0.929 . S
H1532 C1546 0.930 . S
H1533 C1548 0.960 . S
H1534 C1548 0.960 . S
H1535 C1548 0.960 . S
C1536 H1528 0.929 . S
C1536 C1537 1.377 . S
C1536 C1538 1.384 . S
C1537 C1536 1.377 . S
C1537 C1543 1.390 . S
C1538 H1529 0.930 . S
C1538 C1536 1.384 . S
C1538 C1539 1.372 . S
C1539 C1538 1.372 . S
C1539 C1540 1.400 . S
C1539 C1544 1.490 . S
C1540 H1530 0.930 . S
C1540 C1539 1.400 . S
C1540 C1543 1.386 . S
H1541 C1557 0.930 . S
H1542 C1558 0.931 . S
C1543 H1531 0.929 . S
C1543 C1537 1.390 . S
C1543 C1540 1.386 . S
C1544 C1539 1.490 . S
C1544 C1546 1.395 . S
C1544 C1547 1.403 . S
H1545 C1551 0.930 . S
C1546 H1532 0.930 . S
C1546 C1544 1.395 . S
C1546 C1549 1.403 . S
C1547 C1544 1.403 . S
C1547 C1548 1.524 . S
C1547 C1551 1.400 . S
C1548 H1533 0.960 . S
C1548 H1534 0.960 . S
C1548 H1535 0.960 . S
C1548 C1547 1.524 . S
C1549 C1546 1.403 . S
C1549 C1550 1.392 . S
C1549 C1553 1.495 . S
C1550 C1549 1.392 . S
C1550 C1551 1.385 . S
C1550 C1552 1.478 . S
C1551 H1545 0.930 . S
C1551 C1547 1.400 . S
C1551 C1550 1.385 . S
C1552 C1550 1.478 . S
C1552 C1554 1.381 . S
C1552 C1558 1.383 . S
C1553 C1549 1.495 . S
C1553 H1559 0.959 . S
C1553 H1560 0.961 . S
C1553 H1561 0.960 . S
C1554 C1552 1.381 . S
C1554 C1555 1.394 . S
C1554 H1562 0.930 . S
C1555 C1554 1.394 . S
C1555 C1556 1.383 . S
C1555 H1563 0.929 . S
C1556 C1555 1.383 . S
C1556 C1557 1.377 . S
C1557 H1541 0.930 . S
C1557 C1556 1.377 . S
C1557 C1558 1.379 . S
C1558 H1542 0.931 . S
C1558 C1552 1.383 . S
C1558 C1557 1.379 . S
H1559 C1553 0.959 . S
H1560 C1553 0.961 . S
H1561 C1553 0.960 . S
H1562 C1554 0.930 . S
H1563 C1555 0.929 . S
H1564 C1572 0.929 . S
H1565 C1574 0.930 . S
H1566 C1576 0.930 . S
H1567 C1579 0.929 . S
H1568 C1582 0.930 . S
H1569 C1584 0.960 . S
H1570 C1584 0.960 . S
H1571 C1584 0.960 . S
C1572 H1564 0.929 . S
C1572 C1573 1.377 . S
C1572 C1574 1.384 . S
C1573 C1572 1.377 . S
C1573 C1579 1.390 . S
C1574 H1565 0.930 . S
C1574 C1572 1.384 . S
C1574 C1575 1.372 . S
C1575 C1574 1.372 . S
C1575 C1576 1.400 . S
C1575 C1580 1.490 . S
C1576 H1566 0.930 . S
C1576 C1575 1.400 . S
C1576 C1579 1.386 . S
H1577 C1593 0.930 . S
H1578 C1594 0.931 . S
C1579 H1567 0.929 . S
C1579 C1573 1.390 . S
C1579 C1576 1.386 . S
C1580 C1575 1.490 . S
C1580 C1582 1.395 . S
C1580 C1583 1.403 . S
H1581 C1587 0.930 . S
C1582 H1568 0.930 . S
C1582 C1580 1.395 . S
C1582 C1585 1.403 . S
C1583 C1580 1.403 . S
C1583 C1584 1.524 . S
C1583 C1587 1.400 . S
C1584 H1569 0.960 . S
C1584 H1570 0.960 . S
C1584 H1571 0.960 . S
C1584 C1583 1.524 . S
C1585 C1582 1.403 . S
C1585 C1586 1.392 . S
C1585 C1589 1.495 . S
C1586 C1585 1.392 . S
C1586 C1587 1.385 . S
C1586 C1588 1.478 . S
C1587 H1581 0.930 . S
C1587 C1583 1.400 . S
C1587 C1586 1.385 . S
C1588 C1586 1.478 . S
C1588 C1590 1.381 . S
C1588 C1594 1.383 . S
C1589 C1585 1.495 . S
C1589 H1595 0.959 . S
C1589 H1596 0.961 . S
C1589 H1597 0.960 . S
C1590 C1588 1.381 . S
C1590 C1591 1.394 . S
C1590 H1598 0.930 . S
C1591 C1590 1.394 . S
C1591 C1592 1.383 . S
C1591 H1599 0.929 . S
C1592 C1591 1.383 . S
C1592 C1593 1.377 . S
C1593 H1577 0.930 . S
C1593 C1592 1.377 . S
C1593 C1594 1.379 . S
C1594 H1578 0.931 . S
C1594 C1588 1.383 . S
C1594 C1593 1.379 . S
H1595 C1589 0.959 . S
H1596 C1589 0.961 . S
H1597 C1589 0.960 . S
H1598 C1590 0.930 . S
H1599 C1591 0.929 . S
H1600 C1608 0.929 . S
H1601 C1610 0.930 . S
H1602 C1612 0.930 . S
H1603 C1615 0.929 . S
H1604 C1618 0.930 . S
H1605 C1620 0.960 . S
H1606 C1620 0.960 . S
H1607 C1620 0.960 . S
C1608 H1600 0.929 . S
C1608 C1609 1.377 . S
C1608 C1610 1.384 . S
C1609 C1608 1.377 . S
C1609 C1615 1.390 . S
C1610 H1601 0.930 . S
C1610 C1608 1.384 . S
C1610 C1611 1.372 . S
C1611 C1610 1.372 . S
C1611 C1612 1.400 . S
C1611 C1616 1.490 . S
C1612 H1602 0.930 . S
C1612 C1611 1.400 . S
C1612 C1615 1.386 . S
H1613 C1629 0.930 . S
H1614 C1630 0.931 . S
C1615 H1603 0.929 . S
C1615 C1609 1.390 . S
C1615 C1612 1.386 . S
C1616 C1611 1.490 . S
C1616 C1618 1.395 . S
C1616 C1619 1.403 . S
H1617 C1623 0.930 . S
C1618 H1604 0.930 . S
C1618 C1616 1.395 . S
C1618 C1621 1.403 . S
C1619 C1616 1.403 . S
C1619 C1620 1.524 . S
C1619 C1623 1.400 . S
C1620 H1605 0.960 . S
C1620 H1606 0.960 . S
C1620 H1607 0.960 . S
C1620 C1619 1.524 . S
C1621 C1618 1.403 . S
C1621 C1622 1.392 . S
C1621 C1625 1.495 . S
C1622 C1621 1.392 . S
C1622 C1623 1.385 . S
C1622 C1624 1.478 . S
C1623 H1617 0.930 . S
C1623 C1619 1.400 . S
C1623 C1622 1.385 . S
C1624 C1622 1.478 . S
C1624 C1626 1.381 . S
C1624 C1630 1.383 . S
C1625 C1621 1.495 . S
C1625 H1631 0.959 . S
C1625 H1632 0.961 . S
C1625 H1633 0.960 . S
C1626 C1624 1.381 . S
C1626 C1627 1.394 . S
C1626 H1634 0.930 . S
C1627 C1626 1.394 . S
C1627 C1628 1.383 . S
C1627 H1635 0.929 . S
C1628 C1627 1.383 . S
C1628 C1629 1.377 . S
C1629 H1613 0.930 . S
C1629 C1628 1.377 . S
C1629 C1630 1.379 . S
C1630 H1614 0.931 . S
C1630 C1624 1.383 . S
C1630 C1629 1.379 . S
H1631 C1625 0.959 . S
H1632 C1625 0.961 . S
H1633 C1625 0.960 . S
H1634 C1626 0.930 . S
H1635 C1627 0.929 . S
H1636 C1644 0.929 . S
H1637 C1646 0.930 . S
H1638 C1648 0.949 . S
H1639 C1651 0.929 1_655 S
H1640 C1654 0.930 . S
H1641 C1656 0.960 . S
H1642 C1656 0.960 . S
H1643 C1656 0.960 . S
C1644 H1636 0.929 . S
C1644 C1645 1.377 . S
C1644 C1646 1.384 . S
C1645 C1644 1.377 . S
C1645 C1651 1.390 1_565 S
C1646 H1637 0.930 . S
C1646 C1644 1.384 . S
C1646 C1647 1.372 . S
C1647 C1646 1.372 . S
C1647 C1648 1.386 1_465 S
C1647 C1652 1.490 . S
C1648 H1638 0.949 . S
C1648 C1647 1.386 1_645 S
C1648 C1651 1.381 1_655 S
H1649 C1665 0.930 . S
H1650 C1666 0.931 . S
C1651 H1639 0.929 1_455 S
C1651 C1645 1.390 1_545 S
C1651 C1648 1.381 1_455 S
C1652 C1647 1.490 . S
C1652 C1654 1.395 1_455 S
C1652 C1655 1.403 1_565 S
H1653 C1659 0.930 . S
C1654 H1640 0.930 . S
C1654 C1652 1.395 1_655 S
C1654 C1657 1.403 . S
C1655 C1652 1.403 1_545 S
C1655 C1656 1.524 . S
C1655 C1659 1.400 . S
C1656 H1641 0.960 . S
C1656 H1642 0.960 . S
C1656 H1643 0.960 . S
C1656 C1655 1.524 . S
C1657 C1654 1.403 . S
C1657 C1658 1.392 . S
C1657 C1661 1.495 . S
C1658 C1657 1.392 . S
C1658 C1659 1.385 1_665 S
C1658 C1660 1.478 1_565 S
C1659 H1653 0.930 . S
C1659 C1655 1.400 . S
C1659 C1658 1.385 1_445 S
C1660 C1658 1.478 1_545 S
C1660 C1662 1.381 1_645 S
C1660 C1666 1.383 . S
C1661 C1657 1.495 . S
C1661 H1667 0.959 . S
C1661 H1668 0.961 . S
C1661 H1669 0.960 . S
C1662 C1660 1.381 1_465 S
C1662 C1663 1.394 1_455 S
C1662 H1670 0.930 . S
C1663 C1662 1.394 1_655 S
C1663 C1664 1.383 1_565 S
C1663 H1671 0.929 1_655 S
C1664 C1663 1.383 1_545 S
C1664 C1665 1.377 . S
C1665 H1649 0.930 . S
C1665 C1664 1.377 . S
C1665 C1666 1.379 . S
C1666 H1650 0.931 . S
C1666 C1660 1.383 . S
C1666 C1665 1.379 . S
H1667 C1661 0.959 . S
H1668 C1661 0.961 . S
H1669 C1661 0.960 . S
H1670 C1662 0.930 . S
H1671 C1663 0.929 1_455 S
H1672 C1680 0.929 . S
H1673 C1682 0.930 . S
H1674 C1684 0.930 . S
H1675 C1687 0.929 . S
H1676 C1690 0.930 . S
H1677 C1692 0.960 . S
H1678 C1692 0.960 . S
H1679 C1692 0.960 . S
C1680 H1672 0.929 . S
C1680 C1681 1.377 . S
C1680 C1682 1.384 . S
C1681 C1680 1.377 . S
C1681 C1687 1.390 . S
C1682 H1673 0.930 . S
C1682 C1680 1.384 . S
C1682 C1683 1.372 . S
C1683 C1682 1.372 . S
C1683 C1684 1.400 . S
C1683 C1688 1.490 . S
C1684 H1674 0.930 . S
C1684 C1683 1.400 . S
C1684 C1687 1.386 . S
H1685 C1701 0.930 . S
H1686 C1702 0.931 . S
C1687 H1675 0.929 . S
C1687 C1681 1.390 . S
C1687 C1684 1.386 . S
C1688 C1683 1.490 . S
C1688 C1690 1.395 . S
C1688 C1691 1.403 . S
H1689 C1695 0.930 . S
C1690 H1676 0.930 . S
C1690 C1688 1.395 . S
C1690 C1693 1.403 . S
C1691 C1688 1.403 . S
C1691 C1692 1.524 . S
C1691 C1695 1.400 . S
C1692 H1677 0.960 . S
C1692 H1678 0.960 . S
C1692 H1679 0.960 . S
C1692 C1691 1.524 . S
C1693 C1690 1.403 . S
C1693 C1694 1.392 . S
C1693 C1697 1.495 . S
C1694 C1693 1.392 . S
C1694 C1695 1.385 . S
C1694 C1696 1.478 . S
C1695 H1689 0.930 . S
C1695 C1691 1.400 . S
C1695 C1694 1.385 . S
C1696 C1694 1.478 . S
C1696 C1698 1.381 . S
C1696 C1702 1.383 . S
C1697 C1693 1.495 . S
C1697 H1703 0.959 . S
C1697 H1704 0.961 . S
C1697 H1705 0.960 . S
C1698 C1696 1.381 . S
C1698 C1699 1.394 . S
C1698 H1706 0.930 . S
C1699 C1698 1.394 . S
C1699 C1700 1.383 . S
C1699 H1707 0.929 . S
C1700 C1699 1.383 . S
C1700 C1701 1.377 . S
C1701 H1685 0.930 . S
C1701 C1700 1.377 . S
C1701 C1702 1.379 . S
C1702 H1686 0.931 . S
C1702 C1696 1.383 . S
C1702 C1701 1.379 . S
H1703 C1697 0.959 . S
H1704 C1697 0.961 . S
H1705 C1697 0.960 . S
H1706 C1698 0.930 . S
H1707 C1699 0.929 . S
H1708 C1716 0.929 . S
H1709 C1718 0.930 . S
H1710 C1720 0.930 . S
H1711 C1723 0.929 . S
H1712 C1726 0.930 . S
H1713 C1728 0.960 . S
H1714 C1728 0.960 . S
H1715 C1728 0.960 . S
C1716 H1708 0.929 . S
C1716 C1717 1.377 1_565 S
C1716 C1718 1.384 . S
C1717 C1716 1.377 1_545 S
C1717 C1723 1.390 . S
C1718 H1709 0.930 . S
C1718 C1716 1.384 . S
C1718 C1719 1.372 1_565 S
C1719 C1718 1.372 1_545 S
C1719 C1720 1.400 . S
C1719 C1724 1.490 . S
C1720 H1710 0.930 . S
C1720 C1719 1.400 . S
C1720 C1723 1.386 . S
H1721 C1737 0.930 . S
H1722 C1738 0.931 . S
C1723 H1711 0.929 . S
C1723 C1717 1.390 . S
C1723 C1720 1.386 . S
C1724 C1719 1.490 . S
C1724 C1726 1.395 1_545 S
C1724 C1727 1.403 . S
H1725 C1731 0.930 . S
C1726 H1712 0.930 . S
C1726 C1724 1.395 1_565 S
C1726 C1729 1.403 1_554 S
C1727 C1724 1.403 . S
C1727 C1728 1.524 . S
C1727 C1731 1.400 1_554 S
C1728 H1713 0.960 . S
C1728 H1714 0.960 . S
C1728 H1715 0.960 . S
C1728 C1727 1.524 . S
C1729 C1726 1.403 1_556 S
C1729 C1730 1.392 . S
C1729 C1733 1.495 . S
C1730 C1729 1.392 . S
C1730 C1731 1.385 1_565 S
C1730 C1732 1.478 . S
C1731 H1725 0.930 . S
C1731 C1727 1.400 1_556 S
C1731 C1730 1.385 1_545 S
C1732 C1730 1.478 . S
C1732 C1734 1.381 . S
C1732 C1738 1.383 1_565 S
C1733 C1729 1.495 . S
C1733 H1739 0.959 . S
C1733 H1740 0.961 . S
C1733 H1741 0.960 . S
C1734 C1732 1.381 . S
C1734 C1735 1.394 . S
C1734 H1742 0.930 . S
C1735 C1734 1.394 . S
C1735 C1736 1.383 . S
C1735 H1743 0.929 . S
C1736 C1735 1.383 . S
C1736 C1737 1.377 1_565 S
C1737 H1721 0.930 . S
C1737 C1736 1.377 1_545 S
C1737 C1738 1.379 . S
C1738 H1722 0.931 . S
C1738 C1732 1.383 1_545 S
C1738 C1737 1.379 . S
H1739 C1733 0.959 . S
H1740 C1733 0.961 . S
H1741 C1733 0.960 . S
H1742 C1734 0.930 . S
H1743 C1735 0.929 . S
H1744 C1752 0.929 . S
H1745 C1754 0.930 . S
H1746 C1756 0.930 . S
H1747 C1759 0.929 . S
H1748 C1762 0.930 . S
H1749 C1764 0.960 . S
H1750 C1764 0.960 . S
H1751 C1764 0.960 . S
C1752 H1744 0.929 . S
C1752 C1753 1.377 . S
C1752 C1754 1.384 . S
C1753 C1752 1.377 . S
C1753 C1759 1.390 . S
C1754 H1745 0.930 . S
C1754 C1752 1.384 . S
C1754 C1755 1.372 . S
C1755 C1754 1.372 . S
C1755 C1756 1.400 . S
C1755 C1760 1.490 . S
C1756 H1746 0.930 . S
C1756 C1755 1.400 . S
C1756 C1759 1.386 . S
H1757 C1773 0.930 . S
H1758 C1774 0.931 . S
C1759 H1747 0.929 . S
C1759 C1753 1.390 . S
C1759 C1756 1.386 . S
C1760 C1755 1.490 . S
C1760 C1762 1.395 . S
C1760 C1763 1.403 . S
H1761 C1767 0.930 . S
C1762 H1748 0.930 . S
C1762 C1760 1.395 . S
C1762 C1765 1.403 . S
C1763 C1760 1.403 . S
C1763 C1764 1.524 . S
C1763 C1767 1.400 . S
C1764 H1749 0.960 . S
C1764 H1750 0.960 . S
C1764 H1751 0.960 . S
C1764 C1763 1.524 . S
C1765 C1762 1.403 . S
C1765 C1766 1.392 . S
C1765 C1769 1.495 . S
C1766 C1765 1.392 . S
C1766 C1767 1.385 . S
C1766 C1768 1.478 . S
C1767 H1761 0.930 . S
C1767 C1763 1.400 . S
C1767 C1766 1.385 . S
C1768 C1766 1.478 . S
C1768 C1770 1.381 . S
C1768 C1774 1.383 . S
C1769 C1765 1.495 . S
C1769 H1775 0.959 . S
C1769 H1776 0.961 . S
C1769 H1777 0.960 . S
C1770 C1768 1.381 . S
C1770 C1771 1.394 . S
C1770 H1778 0.930 . S
C1771 C1770 1.394 . S
C1771 C1772 1.383 . S
C1771 H1779 0.929 . S
C1772 C1771 1.383 . S
C1772 C1773 1.377 . S
C1773 H1757 0.930 . S
C1773 C1772 1.377 . S
C1773 C1774 1.379 . S
C1774 H1758 0.931 . S
C1774 C1768 1.383 . S
C1774 C1773 1.379 . S
H1775 C1769 0.959 . S
H1776 C1769 0.961 . S
H1777 C1769 0.960 . S
H1778 C1770 0.930 . S
H1779 C1771 0.929 . S
H1780 C1788 0.929 . S
H1781 C1790 0.930 . S
H1782 C1792 0.930 . S
H1783 C1795 0.929 . S
H1784 C1798 0.930 . S
H1785 C1800 0.960 . S
H1786 C1800 0.960 . S
H1787 C1800 0.960 . S
C1788 H1780 0.929 . S
C1788 C1789 1.377 . S
C1788 C1790 1.384 . S
C1789 C1788 1.377 . S
C1789 C1795 1.390 . S
C1790 H1781 0.930 . S
C1790 C1788 1.384 . S
C1790 C1791 1.372 . S
C1791 C1790 1.372 . S
C1791 C1792 1.400 . S
C1791 C1796 1.490 . S
C1792 H1782 0.930 . S
C1792 C1791 1.400 . S
C1792 C1795 1.386 . S
H1793 C1809 0.930 . S
H1794 C1810 0.931 . S
C1795 H1783 0.929 . S
C1795 C1789 1.390 . S
C1795 C1792 1.386 . S
C1796 C1791 1.490 . S
C1796 C1798 1.395 . S
C1796 C1799 1.403 1_565 S
H1797 C1803 0.930 . S
C1798 H1784 0.930 . S
C1798 C1796 1.395 . S
C1798 C1801 1.403 . S
C1799 C1796 1.403 1_545 S
C1799 C1800 1.524 . S
C1799 C1803 1.400 . S
C1800 H1785 0.960 . S
C1800 H1786 0.960 . S
C1800 H1787 0.960 . S
C1800 C1799 1.524 . S
C1801 C1798 1.403 . S
C1801 C1802 1.392 . S
C1801 C1805 1.495 . S
C1802 C1801 1.392 . S
C1802 C1803 1.385 1_565 S
C1802 C1804 1.478 1_565 S
C1803 H1797 0.930 . S
C1803 C1799 1.400 . S
C1803 C1802 1.385 1_545 S
C1804 C1802 1.478 1_545 S
C1804 C1806 1.381 . S
C1804 C1810 1.383 . S
C1805 C1801 1.495 . S
C1805 H1811 0.959 . S
C1805 H1812 0.961 . S
C1805 H1813 0.960 . S
C1806 C1804 1.381 . S
C1806 C1807 1.394 . S
C1806 H1814 0.930 . S
C1807 C1806 1.394 . S
C1807 C1808 1.383 . S
C1807 H1815 0.929 . S
C1808 C1807 1.383 . S
C1808 C1809 1.377 . S
C1809 H1793 0.930 . S
C1809 C1808 1.377 . S
C1809 C1810 1.379 . S
C1810 H1794 0.931 . S
C1810 C1804 1.383 . S
C1810 C1809 1.379 . S
H1811 C1805 0.959 . S
H1812 C1805 0.961 . S
H1813 C1805 0.960 . S
H1814 C1806 0.930 . S
H1815 C1807 0.929 . S
H1816 C1824 0.929 . S
H1817 C1826 0.930 . S
H1818 C1828 0.930 . S
H1819 C1831 0.929 . S
H1820 C1834 0.930 . S
H1821 C1836 0.960 . S
H1822 C1836 0.960 . S
H1823 C1836 0.960 . S
C1824 H1816 0.929 . S
C1824 C1825 1.377 . S
C1824 C1826 1.384 . S
C1825 C1824 1.377 . S
C1825 C1831 1.390 . S
C1826 H1817 0.930 . S
C1826 C1824 1.384 . S
C1826 C1827 1.372 . S
C1827 C1826 1.372 . S
C1827 C1828 1.400 . S
C1827 C1832 1.490 . S
C1828 H1818 0.930 . S
C1828 C1827 1.400 . S
C1828 C1831 1.386 . S
H1829 C1845 0.930 . S
H1830 C1846 0.931 . S
C1831 H1819 0.929 . S
C1831 C1825 1.390 . S
C1831 C1828 1.386 . S
C1832 C1827 1.490 . S
C1832 C1834 1.395 . S
C1832 C1835 1.403 . S
H1833 C1839 0.930 . S
C1834 H1820 0.930 . S
C1834 C1832 1.395 . S
C1834 C1837 1.403 . S
C1835 C1832 1.403 . S
C1835 C1836 1.524 . S
C1835 C1839 1.400 . S
C1836 H1821 0.960 . S
C1836 H1822 0.960 . S
C1836 H1823 0.960 . S
C1836 C1835 1.524 . S
C1837 C1834 1.403 . S
C1837 C1838 1.392 . S
C1837 C1841 1.495 . S
C1838 C1837 1.392 . S
C1838 C1839 1.385 . S
C1838 C1840 1.478 . S
C1839 H1833 0.930 . S
C1839 C1835 1.400 . S
C1839 C1838 1.385 . S
C1840 C1838 1.478 . S
C1840 C1842 1.381 . S
C1840 C1846 1.383 . S
C1841 C1837 1.495 . S
C1841 H1847 0.959 . S
C1841 H1848 0.961 . S
C1841 H1849 0.960 . S
C1842 C1840 1.381 . S
C1842 C1843 1.394 . S
C1842 H1850 0.930 . S
C1843 C1842 1.394 . S
C1843 C1844 1.383 . S
C1843 H1851 0.929 . S
C1844 C1843 1.383 . S
C1844 C1845 1.377 . S
C1845 H1829 0.930 . S
C1845 C1844 1.377 . S
C1845 C1846 1.379 . S
C1846 H1830 0.931 . S
C1846 C1840 1.383 . S
C1846 C1845 1.379 . S
H1847 C1841 0.959 . S
H1848 C1841 0.961 . S
H1849 C1841 0.960 . S
H1850 C1842 0.930 . S
H1851 C1843 0.929 . S
H1852 C1860 0.929 . S
H1853 C1862 0.930 . S
H1854 C1864 0.929 . S
H1855 C1867 0.929 . S
H1856 C1870 0.930 . S
H1857 C1872 0.960 . S
H1858 C1872 0.960 . S
H1859 C1872 0.960 . S
C1860 H1852 0.929 . S
C1860 C1861 1.377 . S
C1860 C1862 1.384 . S
C1861 C1860 1.377 . S
C1861 C1867 1.390 1_545 S
C1862 H1853 0.930 . S
C1862 C1860 1.384 . S
C1862 C1863 1.372 . S
C1863 C1862 1.372 . S
C1863 C1864 1.400 1_545 S
C1863 C1868 1.490 . S
C1864 H1854 0.929 . S
C1864 C1863 1.400 1_565 S
C1864 C1867 1.386 . S
H1865 C1881 0.930 . S
H1866 C1882 0.931 . S
C1867 H1855 0.929 . S
C1867 C1861 1.390 1_565 S
C1867 C1864 1.386 . S
C1868 C1863 1.490 . S
C1868 C1870 1.395 1_455 S
C1868 C1871 1.403 1_545 S
H1869 C1875 0.930 . S
C1870 H1856 0.930 . S
C1870 C1868 1.395 1_655 S
C1870 C1873 1.403 1_556 S
C1871 C1868 1.403 1_565 S
C1871 C1872 1.524 . S
C1871 C1875 1.400 1_556 S
C1872 H1857 0.960 . S
C1872 H1858 0.960 . S
C1872 H1859 0.960 . S
C1872 C1871 1.524 . S
C1873 C1870 1.403 1_554 S
C1873 C1874 1.392 . S
C1873 C1877 1.495 . S
C1874 C1873 1.392 . S
C1874 C1875 1.385 1_645 S
C1874 C1876 1.478 1_545 S
C1875 H1869 0.930 . S
C1875 C1871 1.400 1_554 S
C1875 C1874 1.385 1_465 S
C1876 C1874 1.478 1_565 S
C1876 C1878 1.381 1_565 S
C1876 C1882 1.383 . S
C1877 C1873 1.495 . S
C1877 H1883 0.959 . S
C1877 H1884 0.961 . S
C1877 H1885 0.960 . S
C1878 C1876 1.381 1_545 S
C1878 C1879 1.394 . S
C1878 H1886 0.930 1_655 S
C1879 C1878 1.394 . S
C1879 C1880 1.383 1_545 S
C1879 H1887 0.929 . S
C1880 C1879 1.383 1_565 S
C1880 C1881 1.377 . S
C1881 H1865 0.930 . S
C1881 C1880 1.377 . S
C1881 C1882 1.379 . S
C1882 H1866 0.931 . S
C1882 C1876 1.383 . S
C1882 C1881 1.379 . S
H1883 C1877 0.959 . S
H1884 C1877 0.961 . S
H1885 C1877 0.960 . S
H1886 C1878 0.930 1_455 S
H1887 C1879 0.929 . S
H1888 C1896 0.929 . S
H1889 C1898 0.930 . S
H1890 C1900 0.930 . S
H1891 C1903 0.929 . S
H1892 C1906 0.930 . S
H1893 C1908 0.960 . S
H1894 C1908 0.960 . S
H1895 C1908 0.960 . S
C1896 H1888 0.929 . S
C1896 C1897 1.377 . S
C1896 C1898 1.384 . S
C1897 C1896 1.377 . S
C1897 C1903 1.390 . S
C1898 H1889 0.930 . S
C1898 C1896 1.384 . S
C1898 C1899 1.372 . S
C1899 C1898 1.372 . S
C1899 C1900 1.400 . S
C1899 C1904 1.490 . S
C1900 H1890 0.930 . S
C1900 C1899 1.400 . S
C1900 C1903 1.386 . S
H1901 C1917 0.930 . S
H1902 C1918 0.931 . S
C1903 H1891 0.929 . S
C1903 C1897 1.390 . S
C1903 C1900 1.386 . S
C1904 C1899 1.490 . S
C1904 C1906 1.395 . S
C1904 C1907 1.403 . S
H1905 C1911 0.930 . S
C1906 H1892 0.930 . S
C1906 C1904 1.395 . S
C1906 C1909 1.403 . S
C1907 C1904 1.403 . S
C1907 C1908 1.524 . S
C1907 C1911 1.400 . S
C1908 H1893 0.960 . S
C1908 H1894 0.960 . S
C1908 H1895 0.960 . S
C1908 C1907 1.524 . S
C1909 C1906 1.403 . S
C1909 C1910 1.392 . S
C1909 C1913 1.495 . S
C1910 C1909 1.392 . S
C1910 C1911 1.385 . S
C1910 C1912 1.478 . S
C1911 H1905 0.930 . S
C1911 C1907 1.400 . S
C1911 C1910 1.385 . S
C1912 C1910 1.478 . S
C1912 C1914 1.381 . S
C1912 C1918 1.383 . S
C1913 C1909 1.495 . S
C1913 H1919 0.959 . S
C1913 H1920 0.961 . S
C1913 H1921 0.960 . S
C1914 C1912 1.381 . S
C1914 C1915 1.394 . S
C1914 H1922 0.930 . S
C1915 C1914 1.394 . S
C1915 C1916 1.383 . S
C1915 H1923 0.929 . S
C1916 C1915 1.383 . S
C1916 C1917 1.377 . S
C1917 H1901 0.930 . S
C1917 C1916 1.377 . S
C1917 C1918 1.379 . S
C1918 H1902 0.931 . S
C1918 C1912 1.383 . S
C1918 C1917 1.379 . S
H1919 C1913 0.959 . S
H1920 C1913 0.961 . S
H1921 C1913 0.960 . S
H1922 C1914 0.930 . S
H1923 C1915 0.929 . S
H1924 C1932 0.929 . S
H1925 C1934 0.930 . S
H1926 C1936 0.930 . S
H1927 C1939 0.929 . S
H1928 C1942 0.930 . S
H1929 C1944 0.960 . S
H1930 C1944 0.960 . S
H1931 C1944 0.960 . S
C1932 H1924 0.929 . S
C1932 C1933 1.377 . S
C1932 C1934 1.384 . S
C1933 C1932 1.377 . S
C1933 C1939 1.390 . S
C1934 H1925 0.930 . S
C1934 C1932 1.384 . S
C1934 C1935 1.372 . S
C1935 C1934 1.372 . S
C1935 C1936 1.400 . S
C1935 C1940 1.490 . S
C1936 H1926 0.930 . S
C1936 C1935 1.400 . S
C1936 C1939 1.386 . S
H1937 C1953 0.930 . S
H1938 C1954 0.931 . S
C1939 H1927 0.929 . S
C1939 C1933 1.390 . S
C1939 C1936 1.386 . S
C1940 C1935 1.490 . S
C1940 C1942 1.395 . S
C1940 C1943 1.403 . S
H1941 C1947 0.930 . S
C1942 H1928 0.930 . S
C1942 C1940 1.395 . S
C1942 C1945 1.403 . S
C1943 C1940 1.403 . S
C1943 C1944 1.524 . S
C1943 C1947 1.400 . S
C1944 H1929 0.960 . S
C1944 H1930 0.960 . S
C1944 H1931 0.960 . S
C1944 C1943 1.524 . S
C1945 C1942 1.403 . S
C1945 C1946 1.392 . S
C1945 C1949 1.495 . S
C1946 C1945 1.392 . S
C1946 C1947 1.385 . S
C1946 C1948 1.478 . S
C1947 H1941 0.930 . S
C1947 C1943 1.400 . S
C1947 C1946 1.385 . S
C1948 C1946 1.478 . S
C1948 C1950 1.381 . S
C1948 C1954 1.383 . S
C1949 C1945 1.495 . S
C1949 H1955 0.959 . S
C1949 H1956 0.961 . S
C1949 H1957 0.960 . S
C1950 C1948 1.381 . S
C1950 C1951 1.394 . S
C1950 H1958 0.930 . S
C1951 C1950 1.394 . S
C1951 C1952 1.383 . S
C1951 H1959 0.929 . S
C1952 C1951 1.383 . S
C1952 C1953 1.377 . S
C1953 H1937 0.930 . S
C1953 C1952 1.377 . S
C1953 C1954 1.379 . S
C1954 H1938 0.931 . S
C1954 C1948 1.383 . S
C1954 C1953 1.379 . S
H1955 C1949 0.959 . S
H1956 C1949 0.961 . S
H1957 C1949 0.960 . S
H1958 C1950 0.930 . S
H1959 C1951 0.929 . S
H1960 C1968 0.929 . S
H1961 C1970 0.930 . S
H1962 C1972 0.930 . S
H1963 C1975 0.929 . S
H1964 C1978 0.930 . S
H1965 C1980 0.960 . S
H1966 C1980 0.960 . S
H1967 C1980 0.960 . S
C1968 H1960 0.929 . S
C1968 C1969 1.377 . S
C1968 C1970 1.384 . S
C1969 C1968 1.377 . S
C1969 C1975 1.390 . S
C1970 H1961 0.930 . S
C1970 C1968 1.384 . S
C1970 C1971 1.372 . S
C1971 C1970 1.372 . S
C1971 C1972 1.400 . S
C1971 C1976 1.490 . S
C1972 H1962 0.930 . S
C1972 C1971 1.400 . S
C1972 C1975 1.386 . S
H1973 C1989 0.930 . S
H1974 C1990 0.931 . S
C1975 H1963 0.929 . S
C1975 C1969 1.390 . S
C1975 C1972 1.386 . S
C1976 C1971 1.490 . S
C1976 C1978 1.395 . S
C1976 C1979 1.403 . S
H1977 C1983 0.930 . S
C1978 H1964 0.930 . S
C1978 C1976 1.395 . S
C1978 C1981 1.403 . S
C1979 C1976 1.403 . S
C1979 C1980 1.524 . S
C1979 C1983 1.400 . S
C1980 H1965 0.960 . S
C1980 H1966 0.960 . S
C1980 H1967 0.960 . S
C1980 C1979 1.524 . S
C1981 C1978 1.403 . S
C1981 C1982 1.392 . S
C1981 C1985 1.495 . S
C1982 C1981 1.392 . S
C1982 C1983 1.385 . S
C1982 C1984 1.478 . S
C1983 H1977 0.930 . S
C1983 C1979 1.400 . S
C1983 C1982 1.385 . S
C1984 C1982 1.478 . S
C1984 C1986 1.381 . S
C1984 C1990 1.383 . S
C1985 C1981 1.495 . S
C1985 H1991 0.959 . S
C1985 H1992 0.961 . S
C1985 H1993 0.960 . S
C1986 C1984 1.381 . S
C1986 C1987 1.394 . S
C1986 H1994 0.930 . S
C1987 C1986 1.394 . S
C1987 C1988 1.383 . S
C1987 H1995 0.929 . S
C1988 C1987 1.383 . S
C1988 C1989 1.377 . S
C1989 H1973 0.930 . S
C1989 C1988 1.377 . S
C1989 C1990 1.379 . S
C1990 H1974 0.931 . S
C1990 C1984 1.383 . S
C1990 C1989 1.379 . S
H1991 C1985 0.959 . S
H1992 C1985 0.961 . S
H1993 C1985 0.960 . S
H1994 C1986 0.930 . S
H1995 C1987 0.929 . S
H1996 C2004 0.929 . S
H1997 C2006 0.930 . S
H1998 C2008 0.930 . S
H1999 C2011 0.929 . S
H2000 C2014 0.930 . S
H2001 C2016 0.960 . S
H2002 C2016 0.960 . S
H2003 C2016 0.960 . S
C2004 H1996 0.929 . S
C2004 C2005 1.377 . S
C2004 C2006 1.384 . S
C2005 C2004 1.377 . S
C2005 C2011 1.390 . S
C2006 H1997 0.930 . S
C2006 C2004 1.384 . S
C2006 C2007 1.372 . S
C2007 C2006 1.372 . S
C2007 C2008 1.400 . S
C2007 C2012 1.490 . S
C2008 H1998 0.930 . S
C2008 C2007 1.400 . S
C2008 C2011 1.386 . S
H2009 C2025 0.930 . S
H2010 C2026 0.931 . S
C2011 H1999 0.929 . S
C2011 C2005 1.390 . S
C2011 C2008 1.386 . S
C2012 C2007 1.490 . S
C2012 C2014 1.395 . S
C2012 C2015 1.403 . S
H2013 C2019 0.930 . S
C2014 H2000 0.930 . S
C2014 C2012 1.395 . S
C2014 C2017 1.403 . S
C2015 C2012 1.403 . S
C2015 C2016 1.524 . S
C2015 C2019 1.400 . S
C2016 H2001 0.960 . S
C2016 H2002 0.960 . S
C2016 H2003 0.960 . S
C2016 C2015 1.524 . S
C2017 C2014 1.403 . S
C2017 C2018 1.392 . S
C2017 C2021 1.495 . S
C2018 C2017 1.392 . S
C2018 C2019 1.385 . S
C2018 C2020 1.478 . S
C2019 H2013 0.930 . S
C2019 C2015 1.400 . S
C2019 C2018 1.385 . S
C2020 C2018 1.478 . S
C2020 C2022 1.381 . S
C2020 C2026 1.383 . S
C2021 C2017 1.495 . S
C2021 H2027 0.959 . S
C2021 H2028 0.961 . S
C2021 H2029 0.960 . S
C2022 C2020 1.381 . S
C2022 C2023 1.394 . S
C2022 H2030 0.930 . S
C2023 C2022 1.394 . S
C2023 C2024 1.383 . S
C2023 H2031 0.929 . S
C2024 C2023 1.383 . S
C2024 C2025 1.377 . S
C2025 H2009 0.930 . S
C2025 C2024 1.377 . S
C2025 C2026 1.379 . S
C2026 H2010 0.931 . S
C2026 C2020 1.383 . S
C2026 C2025 1.379 . S
H2027 C2021 0.959 . S
H2028 C2021 0.961 . S
H2029 C2021 0.960 . S
H2030 C2022 0.930 . S
H2031 C2023 0.929 . S
H2032 C2040 0.929 . S
H2033 C2042 0.930 . S
H2034 C2044 0.930 . S
H2035 C2047 0.929 . S
H2036 C2050 0.930 . S
H2037 C2052 0.960 1_556 S
H2038 C2052 0.960 . S
H2039 C2052 0.960 . S
C2040 H2032 0.929 . S
C2040 C2041 1.377 . S
C2040 C2042 1.384 . S
C2041 C2040 1.377 . S
C2041 C2047 1.390 . S
C2042 H2033 0.930 . S
C2042 C2040 1.384 . S
C2042 C2043 1.372 . S
C2043 C2042 1.372 . S
C2043 C2044 1.400 . S
C2043 C2048 1.490 . S
C2044 H2034 0.930 . S
C2044 C2043 1.400 . S
C2044 C2047 1.386 . S
H2045 C2061 0.930 . S
H2046 C2062 0.931 . S
C2047 H2035 0.929 . S
C2047 C2041 1.390 . S
C2047 C2044 1.386 . S
C2048 C2043 1.490 . S
C2048 C2050 1.395 . S
C2048 C2051 1.403 . S
H2049 C2055 0.930 . S
C2050 H2036 0.930 . S
C2050 C2048 1.395 . S
C2050 C2053 1.403 1_554 S
C2051 C2048 1.403 . S
C2051 C2052 1.524 . S
C2051 C2055 1.400 1_554 S
C2052 H2037 0.960 1_554 S
C2052 H2038 0.960 . S
C2052 H2039 0.960 . S
C2052 C2051 1.524 . S
C2053 C2050 1.403 1_556 S
C2053 C2054 1.392 . S
C2053 C2057 1.495 . S
C2054 C2053 1.392 . S
C2054 C2055 1.385 . S
C2054 C2056 1.478 . S
C2055 H2049 0.930 . S
C2055 C2051 1.400 1_556 S
C2055 C2054 1.385 . S
C2056 C2054 1.478 . S
C2056 C2058 1.381 . S
C2056 C2062 1.383 . S
C2057 C2053 1.495 . S
C2057 H2063 0.905 1_556 S
C2057 H2064 0.961 . S
C2057 H2065 0.960 . S
C2058 C2056 1.381 . S
C2058 C2059 1.394 . S
C2058 H2066 0.930 . S
C2059 C2058 1.394 . S
C2059 C2060 1.383 . S
C2059 H2067 0.929 . S
C2060 C2059 1.383 . S
C2060 C2061 1.377 . S
C2061 H2045 0.930 . S
C2061 C2060 1.377 . S
C2061 C2062 1.379 . S
C2062 H2046 0.931 . S
C2062 C2056 1.383 . S
C2062 C2061 1.379 . S
H2063 C2057 0.905 1_554 S
H2064 C2057 0.961 . S
H2065 C2057 0.960 . S
H2066 C2058 0.930 . S
H2067 C2059 0.929 . S
H2068 C2076 0.929 . S
H2069 C2078 0.930 . S
H2070 C2080 0.930 . S
H2071 C2083 0.929 1_655 S
H2072 C2086 0.930 . S
H2073 C2088 0.960 . S
H2074 C2088 0.960 . S
H2075 C2088 0.960 1_655 S
C2076 H2068 0.929 . S
C2076 C2077 1.377 . S
C2076 C2078 1.384 . S
C2077 C2076 1.377 . S
C2077 C2083 1.390 . S
C2078 H2069 0.930 . S
C2078 C2076 1.384 . S
C2078 C2079 1.372 . S
C2079 C2078 1.372 . S
C2079 C2080 1.400 1_455 S
C2079 C2084 1.490 . S
C2080 H2070 0.930 . S
C2080 C2079 1.400 1_655 S
C2080 C2083 1.386 1_655 S
H2081 C2097 0.930 . S
H2082 C2098 0.931 . S
C2083 H2071 0.929 1_455 S
C2083 C2077 1.390 . S
C2083 C2080 1.386 1_455 S
C2084 C2079 1.490 . S
C2084 C2086 1.395 . S
C2084 C2087 1.403 . S
H2085 C2091 0.930 . S
C2086 H2072 0.930 . S
C2086 C2084 1.395 . S
C2086 C2089 1.403 1_455 S
C2087 C2084 1.403 . S
C2087 C2088 1.524 . S
C2087 C2091 1.400 1_455 S
C2088 H2073 0.960 . S
C2088 H2074 0.960 . S
C2088 H2075 0.960 1_455 S
C2088 C2087 1.524 . S
C2089 C2086 1.403 1_655 S
C2089 C2090 1.392 . S
C2089 C2093 1.495 . S
C2090 C2089 1.392 . S
C2090 C2091 1.385 . S
C2090 C2092 1.478 . S
C2091 H2085 0.930 . S
C2091 C2087 1.400 1_655 S
C2091 C2090 1.385 . S
C2092 C2090 1.478 . S
C2092 C2094 1.381 1_655 S
C2092 C2098 1.383 . S
C2093 C2089 1.495 . S
C2093 H2099 0.959 . S
C2093 H2100 0.961 . S
C2093 H2101 0.960 1_655 S
C2094 C2092 1.381 1_455 S
C2094 C2095 1.394 1_455 S
C2094 H2102 0.930 . S
C2095 C2094 1.394 1_655 S
C2095 C2096 1.386 . S
C2095 H2103 0.927 1_655 S
C2096 C2095 1.386 . S
C2096 C2097 1.377 . S
C2097 H2081 0.930 . S
C2097 C2096 1.377 . S
C2097 C2098 1.379 . S
C2098 H2082 0.931 . S
C2098 C2092 1.383 . S
C2098 C2097 1.379 . S
H2099 C2093 0.959 . S
H2100 C2093 0.961 . S
H2101 C2093 0.960 1_455 S
H2102 C2094 0.930 . S
H2103 C2095 0.927 1_455 S
H2104 C2112 0.929 . S
H2105 C2114 0.930 . S
H2106 C2116 0.930 . S
H2107 C2119 0.946 . S
H2108 C2122 0.930 . S
H2109 C2124 0.960 . S
H2110 C2124 0.960 . S
H2111 C2124 0.960 . S
C2112 H2104 0.929 . S
C2112 C2113 1.377 . S
C2112 C2114 1.384 . S
C2113 C2112 1.377 . S
C2113 C2119 1.368 1_455 S
C2114 H2105 0.930 . S
C2114 C2112 1.384 . S
C2114 C2115 1.372 . S
C2115 C2114 1.372 . S
C2115 C2116 1.400 1_455 S
C2115 C2120 1.490 . S
C2116 H2106 0.930 . S
C2116 C2115 1.400 1_655 S
C2116 C2119 1.390 . S
H2117 C2133 0.930 . S
H2118 C2134 0.931 . S
C2119 H2107 0.946 . S
C2119 C2113 1.368 1_655 S
C2119 C2116 1.390 . S
C2120 C2115 1.490 . S
C2120 C2122 1.395 . S
C2120 C2123 1.403 1_455 S
H2121 C2127 0.930 . S
C2122 H2108 0.930 . S
C2122 C2120 1.395 . S
C2122 C2125 1.403 1_554 S
C2123 C2120 1.403 1_655 S
C2123 C2124 1.524 . S
C2123 C2127 1.400 1_554 S
C2124 H2109 0.960 . S
C2124 H2110 0.960 . S
C2124 H2111 0.960 . S
C2124 C2123 1.524 . S
C2125 C2122 1.403 1_556 S
C2125 C2126 1.392 1_455 S
C2125 C2129 1.495 . S
C2126 C2125 1.392 1_655 S
C2126 C2127 1.385 . S
C2126 C2128 1.478 . S
C2127 H2121 0.930 . S
C2127 C2123 1.400 1_556 S
C2127 C2126 1.385 . S
C2128 C2126 1.478 . S
C2128 C2130 1.381 1_655 S
C2128 C2134 1.383 . S
C2129 C2125 1.495 . S
C2129 H2135 0.959 . S
C2129 H2136 0.961 . S
C2129 H2137 0.960 . S
C2130 C2128 1.381 1_455 S
C2130 C2131 1.394 . S
C2130 H2138 0.930 . S
C2131 C2130 1.394 . S
C2131 C2132 1.383 1_455 S
C2131 H2139 0.929 . S
C2132 C2131 1.383 1_655 S
C2132 C2133 1.377 . S
C2133 H2117 0.930 . S
C2133 C2132 1.377 . S
C2133 C2134 1.379 . S
C2134 H2118 0.931 . S
C2134 C2128 1.383 . S
C2134 C2133 1.379 . S
H2135 C2129 0.959 . S
H2136 C2129 0.961 . S
H2137 C2129 0.960 . S
H2138 C2130 0.930 . S
H2139 C2131 0.929 . S
H2140 C2148 0.929 . S
H2141 C2150 0.930 . S
H2142 C2152 0.930 . S
H2143 C2155 0.929 . S
H2144 C2158 0.930 . S
H2145 C2160 0.960 . S
H2146 C2160 0.960 . S
H2147 C2160 0.960 . S
C2148 H2140 0.929 . S
C2148 C2149 1.377 . S
C2148 C2150 1.384 . S
C2149 C2148 1.377 . S
C2149 C2155 1.390 . S
C2150 H2141 0.930 . S
C2150 C2148 1.384 . S
C2150 C2151 1.372 . S
C2151 C2150 1.372 . S
C2151 C2152 1.400 . S
C2151 C2156 1.490 . S
C2152 H2142 0.930 . S
C2152 C2151 1.400 . S
C2152 C2155 1.386 . S
H2153 C2169 0.930 . S
H2154 C2170 0.931 . S
C2155 H2143 0.929 . S
C2155 C2149 1.390 . S
C2155 C2152 1.386 . S
C2156 C2151 1.490 . S
C2156 C2158 1.395 . S
C2156 C2159 1.403 . S
H2157 C2163 0.930 . S
C2158 H2144 0.930 . S
C2158 C2156 1.395 . S
C2158 C2161 1.403 . S
C2159 C2156 1.403 . S
C2159 C2160 1.524 . S
C2159 C2163 1.400 . S
C2160 H2145 0.960 . S
C2160 H2146 0.960 . S
C2160 H2147 0.960 . S
C2160 C2159 1.524 . S
C2161 C2158 1.403 . S
C2161 C2162 1.392 . S
C2161 C2165 1.495 . S
C2162 C2161 1.392 . S
C2162 C2163 1.385 . S
C2162 C2164 1.478 . S
C2163 H2157 0.930 . S
C2163 C2159 1.400 . S
C2163 C2162 1.385 . S
C2164 C2162 1.478 . S
C2164 C2166 1.381 . S
C2164 C2170 1.383 . S
C2165 C2161 1.495 . S
C2165 H2171 0.959 . S
C2165 H2172 0.961 . S
C2165 H2173 0.960 . S
C2166 C2164 1.381 . S
C2166 C2167 1.394 . S
C2166 H2174 0.930 . S
C2167 C2166 1.394 . S
C2167 C2168 1.383 . S
C2167 H2175 0.929 . S
C2168 C2167 1.383 . S
C2168 C2169 1.377 . S
C2169 H2153 0.930 . S
C2169 C2168 1.377 . S
C2169 C2170 1.379 . S
C2170 H2154 0.931 . S
C2170 C2164 1.383 . S
C2170 C2169 1.379 . S
H2171 C2165 0.959 . S
H2172 C2165 0.961 . S
H2173 C2165 0.960 . S
H2174 C2166 0.930 . S
H2175 C2167 0.929 . S
H2176 C2184 0.929 . S
H2177 C2186 0.930 . S
H2178 C2188 0.930 . S
H2179 C2191 0.929 . S
H2180 C2194 0.930 . S
H2181 C2196 0.960 . S
H2182 C2196 0.960 . S
H2183 C2196 0.960 . S
C2184 H2176 0.929 . S
C2184 C2185 1.377 . S
C2184 C2186 1.384 . S
C2185 C2184 1.377 . S
C2185 C2191 1.390 . S
C2186 H2177 0.930 . S
C2186 C2184 1.384 . S
C2186 C2187 1.372 . S
C2187 C2186 1.372 . S
C2187 C2188 1.400 . S
C2187 C2192 1.490 . S
C2188 H2178 0.930 . S
C2188 C2187 1.400 . S
C2188 C2191 1.386 . S
H2189 C2205 0.930 . S
H2190 C2206 0.931 . S
C2191 H2179 0.929 . S
C2191 C2185 1.390 . S
C2191 C2188 1.386 . S
C2192 C2187 1.490 . S
C2192 C2194 1.395 . S
C2192 C2195 1.403 . S
H2193 C2199 0.930 . S
C2194 H2180 0.930 . S
C2194 C2192 1.395 . S
C2194 C2197 1.403 . S
C2195 C2192 1.403 . S
C2195 C2196 1.524 . S
C2195 C2199 1.400 . S
C2196 H2181 0.960 . S
C2196 H2182 0.960 . S
C2196 H2183 0.960 . S
C2196 C2195 1.524 . S
C2197 C2194 1.403 . S
C2197 C2198 1.392 . S
C2197 C2201 1.495 . S
C2198 C2197 1.392 . S
C2198 C2199 1.385 . S
C2198 C2200 1.478 . S
C2199 H2193 0.930 . S
C2199 C2195 1.400 . S
C2199 C2198 1.385 . S
C2200 C2198 1.478 . S
C2200 C2202 1.381 . S
C2200 C2206 1.383 . S
C2201 C2197 1.495 . S
C2201 H2207 0.959 . S
C2201 H2208 0.961 . S
C2201 H2209 0.960 . S
C2202 C2200 1.381 . S
C2202 C2203 1.394 . S
C2202 H2210 0.930 . S
C2203 C2202 1.394 . S
C2203 C2204 1.383 . S
C2203 H2211 0.929 . S
C2204 C2203 1.383 . S
C2204 C2205 1.377 . S
C2205 H2189 0.930 . S
C2205 C2204 1.377 . S
C2205 C2206 1.379 . S
C2206 H2190 0.931 . S
C2206 C2200 1.383 . S
C2206 C2205 1.379 . S
H2207 C2201 0.959 . S
H2208 C2201 0.961 . S
H2209 C2201 0.960 . S
H2210 C2202 0.930 . S
H2211 C2203 0.929 . S
H2212 C2220 0.929 . S
H2213 C2222 0.930 . S
H2214 C2224 0.930 . S
H2215 C2227 0.929 . S
H2216 C2230 0.930 . S
H2217 C2232 0.960 . S
H2218 C2232 0.960 . S
H2219 C2232 0.960 . S
C2220 H2212 0.929 . S
C2220 C2221 1.377 . S
C2220 C2222 1.384 . S
C2221 C2220 1.377 . S
C2221 C2227 1.390 . S
C2222 H2213 0.930 . S
C2222 C2220 1.384 . S
C2222 C2223 1.372 . S
C2223 C2222 1.372 . S
C2223 C2224 1.400 . S
C2223 C2228 1.490 . S
C2224 H2214 0.930 . S
C2224 C2223 1.400 . S
C2224 C2227 1.386 . S
H2225 C2241 0.930 . S
H2226 C2242 0.931 . S
C2227 H2215 0.929 . S
C2227 C2221 1.390 . S
C2227 C2224 1.386 . S
C2228 C2223 1.490 . S
C2228 C2230 1.395 . S
C2228 C2231 1.403 . S
H2229 C2235 0.930 . S
C2230 H2216 0.930 . S
C2230 C2228 1.395 . S
C2230 C2233 1.403 . S
C2231 C2228 1.403 . S
C2231 C2232 1.524 . S
C2231 C2235 1.400 . S
C2232 H2217 0.960 . S
C2232 H2218 0.960 . S
C2232 H2219 0.960 . S
C2232 C2231 1.524 . S
C2233 C2230 1.403 . S
C2233 C2234 1.392 . S
C2233 C2237 1.495 . S
C2234 C2233 1.392 . S
C2234 C2235 1.385 . S
C2234 C2236 1.478 . S
C2235 H2229 0.930 . S
C2235 C2231 1.400 . S
C2235 C2234 1.385 . S
C2236 C2234 1.478 . S
C2236 C2238 1.381 . S
C2236 C2242 1.383 . S
C2237 C2233 1.495 . S
C2237 H2243 0.959 . S
C2237 H2244 0.961 . S
C2237 H2245 0.960 . S
C2238 C2236 1.381 . S
C2238 C2239 1.394 . S
C2238 H2246 0.930 . S
C2239 C2238 1.394 . S
C2239 C2240 1.383 . S
C2239 H2247 0.929 . S
C2240 C2239 1.383 . S
C2240 C2241 1.377 . S
C2241 H2225 0.930 . S
C2241 C2240 1.377 . S
C2241 C2242 1.379 . S
C2242 H2226 0.931 . S
C2242 C2236 1.383 . S
C2242 C2241 1.379 . S
H2243 C2237 0.959 . S
H2244 C2237 0.961 . S
H2245 C2237 0.960 . S
H2246 C2238 0.930 . S
H2247 C2239 0.929 . S
H2248 C2256 0.929 . S
H2249 C2258 0.930 . S
H2250 C2260 0.930 . S
H2251 C2263 0.929 . S
H2252 C2266 0.930 . S
H2253 C2268 0.960 . S
H2254 C2268 0.960 . S
H2255 C2268 0.960 . S
C2256 H2248 0.929 . S
C2256 C2257 1.377 . S
C2256 C2258 1.384 . S
C2257 C2256 1.377 . S
C2257 C2263 1.390 . S
C2258 H2249 0.930 . S
C2258 C2256 1.384 . S
C2258 C2259 1.372 . S
C2259 C2258 1.372 . S
C2259 C2260 1.400 . S
C2259 C2264 1.490 . S
C2260 H2250 0.930 . S
C2260 C2259 1.400 . S
C2260 C2263 1.386 . S
H2261 C2277 0.930 . S
H2262 C2278 0.931 . S
C2263 H2251 0.929 . S
C2263 C2257 1.390 . S
C2263 C2260 1.386 . S
C2264 C2259 1.490 . S
C2264 C2266 1.395 . S
C2264 C2267 1.403 . S
H2265 C2271 0.930 . S
C2266 H2252 0.930 . S
C2266 C2264 1.395 . S
C2266 C2269 1.403 . S
C2267 C2264 1.403 . S
C2267 C2268 1.524 . S
C2267 C2271 1.400 . S
C2268 H2253 0.960 . S
C2268 H2254 0.960 . S
C2268 H2255 0.960 . S
C2268 C2267 1.524 . S
C2269 C2266 1.403 . S
C2269 C2270 1.392 . S
C2269 C2273 1.495 . S
C2270 C2269 1.392 . S
C2270 C2271 1.385 . S
C2270 C2272 1.478 . S
C2271 H2265 0.930 . S
C2271 C2267 1.400 . S
C2271 C2270 1.385 . S
C2272 C2270 1.478 . S
C2272 C2274 1.381 . S
C2272 C2278 1.383 . S
C2273 C2269 1.495 . S
C2273 H2279 0.959 . S
C2273 H2280 0.961 . S
C2273 H2281 0.960 . S
C2274 C2272 1.381 . S
C2274 C2275 1.394 . S
C2274 H2282 0.930 . S
C2275 C2274 1.394 . S
C2275 C2276 1.383 . S
C2275 H2283 0.929 . S
C2276 C2275 1.383 . S
C2276 C2277 1.377 . S
C2277 H2261 0.930 . S
C2277 C2276 1.377 . S
C2277 C2278 1.379 . S
C2278 H2262 0.931 . S
C2278 C2272 1.383 . S
C2278 C2277 1.379 . S
H2279 C2273 0.959 . S
H2280 C2273 0.961 . S
H2281 C2273 0.960 . S
H2282 C2274 0.930 . S
H2283 C2275 0.929 . S
H2284 C2292 0.929 . S
H2285 C2294 0.930 . S
H2286 C2296 0.930 . S
H2287 C2299 0.929 . S
H2288 C2302 0.930 . S
H2289 C2304 0.960 . S
H2290 C2304 0.960 . S
H2291 C2304 0.960 . S
C2292 H2284 0.929 . S
C2292 C2293 1.377 . S
C2292 C2294 1.384 . S
C2293 C2292 1.377 . S
C2293 C2299 1.390 . S
C2294 H2285 0.930 . S
C2294 C2292 1.384 . S
C2294 C2295 1.372 . S
C2295 C2294 1.372 . S
C2295 C2296 1.400 . S
C2295 C2300 1.490 . S
C2296 H2286 0.930 . S
C2296 C2295 1.400 . S
C2296 C2299 1.386 . S
H2297 C2313 0.930 . S
H2298 C2314 0.931 . S
C2299 H2287 0.929 . S
C2299 C2293 1.390 . S
C2299 C2296 1.386 . S
C2300 C2295 1.490 . S
C2300 C2302 1.395 . S
C2300 C2303 1.403 . S
H2301 C2307 0.930 . S
C2302 H2288 0.930 . S
C2302 C2300 1.395 . S
C2302 C2305 1.403 . S
C2303 C2300 1.403 . S
C2303 C2304 1.524 . S
C2303 C2307 1.400 . S
C2304 H2289 0.960 . S
C2304 H2290 0.960 . S
C2304 H2291 0.960 . S
C2304 C2303 1.524 . S
C2305 C2302 1.403 . S
C2305 C2306 1.392 . S
C2305 C2309 1.495 . S
C2306 C2305 1.392 . S
C2306 C2307 1.385 . S
C2306 C2308 1.478 . S
C2307 H2301 0.930 . S
C2307 C2303 1.400 . S
C2307 C2306 1.385 . S
C2308 C2306 1.478 . S
C2308 C2310 1.381 . S
C2308 C2314 1.383 . S
C2309 C2305 1.495 . S
C2309 H2315 0.959 . S
C2309 H2316 0.961 . S
C2309 H2317 0.960 . S
C2310 C2308 1.381 . S
C2310 C2311 1.394 . S
C2310 H2318 0.930 . S
C2311 C2310 1.394 . S
C2311 C2312 1.383 . S
C2311 H2319 0.929 . S
C2312 C2311 1.383 . S
C2312 C2313 1.377 . S
C2313 H2297 0.930 . S
C2313 C2312 1.377 . S
C2313 C2314 1.379 . S
C2314 H2298 0.931 . S
C2314 C2308 1.383 . S
C2314 C2313 1.379 . S
H2315 C2309 0.959 . S
H2316 C2309 0.961 . S
H2317 C2309 0.960 . S
H2318 C2310 0.930 . S
H2319 C2311 0.929 . S
H2320 C2328 0.929 . S
H2321 C2330 0.930 . S
H2322 C2332 0.930 . S
H2323 C2335 0.929 . S
H2324 C2338 0.930 . S
H2325 C2340 0.960 . S
H2326 C2340 0.960 . S
H2327 C2340 0.960 . S
C2328 H2320 0.929 . S
C2328 C2329 1.377 . S
C2328 C2330 1.384 . S
C2329 C2328 1.377 . S
C2329 C2335 1.390 . S
C2330 H2321 0.930 . S
C2330 C2328 1.384 . S
C2330 C2331 1.372 . S
C2331 C2330 1.372 . S
C2331 C2332 1.400 . S
C2331 C2336 1.490 . S
C2332 H2322 0.930 . S
C2332 C2331 1.400 . S
C2332 C2335 1.386 . S
H2333 C2349 0.930 . S
H2334 C2350 0.931 . S
C2335 H2323 0.929 . S
C2335 C2329 1.390 . S
C2335 C2332 1.386 . S
C2336 C2331 1.490 . S
C2336 C2338 1.395 . S
C2336 C2339 1.403 . S
H2337 C2343 0.930 . S
C2338 H2324 0.930 . S
C2338 C2336 1.395 . S
C2338 C2341 1.403 . S
C2339 C2336 1.403 . S
C2339 C2340 1.524 . S
C2339 C2343 1.400 . S
C2340 H2325 0.960 . S
C2340 H2326 0.960 . S
C2340 H2327 0.960 . S
C2340 C2339 1.524 . S
C2341 C2338 1.403 . S
C2341 C2342 1.392 . S
C2341 C2345 1.495 . S
C2342 C2341 1.392 . S
C2342 C2343 1.385 . S
C2342 C2344 1.478 . S
C2343 H2337 0.930 . S
C2343 C2339 1.400 . S
C2343 C2342 1.385 . S
C2344 C2342 1.478 . S
C2344 C2346 1.381 . S
C2344 C2350 1.383 . S
C2345 C2341 1.495 . S
C2345 H2351 0.959 . S
C2345 H2352 0.961 . S
C2345 H2353 0.960 . S
C2346 C2344 1.381 . S
C2346 C2347 1.394 . S
C2346 H2354 0.930 . S
C2347 C2346 1.394 . S
C2347 C2348 1.383 . S
C2347 H2355 0.929 . S
C2348 C2347 1.383 . S
C2348 C2349 1.377 . S
C2349 H2333 0.930 . S
C2349 C2348 1.377 . S
C2349 C2350 1.379 . S
C2350 H2334 0.931 . S
C2350 C2344 1.383 . S
C2350 C2349 1.379 . S
H2351 C2345 0.959 . S
H2352 C2345 0.961 . S
H2353 C2345 0.960 . S
H2354 C2346 0.930 . S
H2355 C2347 0.929 . S
H2356 C2364 0.929 . S
H2357 C2366 0.930 . S
H2358 C2368 0.930 . S
H2359 C2371 0.929 . S
H2360 C2374 0.930 . S
H2361 C2376 0.960 . S
H2362 C2376 0.960 . S
H2363 C2376 0.960 . S
C2364 H2356 0.929 . S
C2364 C2365 1.377 . S
C2364 C2366 1.384 . S
C2365 C2364 1.377 . S
C2365 C2371 1.390 . S
C2366 H2357 0.930 . S
C2366 C2364 1.384 . S
C2366 C2367 1.372 . S
C2367 C2366 1.372 . S
C2367 C2368 1.400 . S
C2367 C2372 1.490 . S
C2368 H2358 0.930 . S
C2368 C2367 1.400 . S
C2368 C2371 1.386 . S
H2369 C2385 0.930 . S
H2370 C2386 0.931 . S
C2371 H2359 0.929 . S
C2371 C2365 1.390 . S
C2371 C2368 1.386 . S
C2372 C2367 1.490 . S
C2372 C2374 1.395 . S
C2372 C2375 1.403 . S
H2373 C2379 0.930 . S
C2374 H2360 0.930 . S
C2374 C2372 1.395 . S
C2374 C2377 1.403 . S
C2375 C2372 1.403 . S
C2375 C2376 1.524 . S
C2375 C2379 1.400 . S
C2376 H2361 0.960 . S
C2376 H2362 0.960 . S
C2376 H2363 0.960 . S
C2376 C2375 1.524 . S
C2377 C2374 1.403 . S
C2377 C2378 1.392 . S
C2377 C2381 1.495 . S
C2378 C2377 1.392 . S
C2378 C2379 1.385 . S
C2378 C2380 1.478 . S
C2379 H2373 0.930 . S
C2379 C2375 1.400 . S
C2379 C2378 1.385 . S
C2380 C2378 1.478 . S
C2380 C2382 1.381 . S
C2380 C2386 1.383 . S
C2381 C2377 1.495 . S
C2381 H2387 0.959 . S
C2381 H2388 0.961 . S
C2381 H2389 0.960 . S
C2382 C2380 1.381 . S
C2382 C2383 1.394 . S
C2382 H2390 0.930 . S
C2383 C2382 1.394 . S
C2383 C2384 1.383 . S
C2383 H2391 0.929 . S
C2384 C2383 1.383 . S
C2384 C2385 1.377 . S
C2385 H2369 0.930 . S
C2385 C2384 1.377 . S
C2385 C2386 1.379 . S
C2386 H2370 0.931 . S
C2386 C2380 1.383 . S
C2386 C2385 1.379 . S
H2387 C2381 0.959 . S
H2388 C2381 0.961 . S
H2389 C2381 0.960 . S
H2390 C2382 0.930 . S
H2391 C2383 0.929 . S
H2392 C2400 0.929 . S
H2393 C2402 0.930 . S
H2394 C2404 0.930 . S
H2395 C2407 0.929 . S
H2396 C2410 0.930 . S
H2397 C2412 0.960 . S
H2398 C2412 0.960 . S
H2399 C2412 0.960 . S
C2400 H2392 0.929 . S
C2400 C2401 1.377 . S
C2400 C2402 1.384 . S
C2401 C2400 1.377 . S
C2401 C2407 1.390 . S
C2402 H2393 0.930 . S
C2402 C2400 1.384 . S
C2402 C2403 1.372 . S
C2403 C2402 1.372 . S
C2403 C2404 1.400 . S
C2403 C2408 1.490 . S
C2404 H2394 0.930 . S
C2404 C2403 1.400 . S
C2404 C2407 1.386 . S
H2405 C2421 0.930 . S
H2406 C2422 0.931 . S
C2407 H2395 0.929 . S
C2407 C2401 1.390 . S
C2407 C2404 1.386 . S
C2408 C2403 1.490 . S
C2408 C2410 1.395 . S
C2408 C2411 1.403 . S
H2409 C2415 0.930 . S
C2410 H2396 0.930 . S
C2410 C2408 1.395 . S
C2410 C2413 1.403 . S
C2411 C2408 1.403 . S
C2411 C2412 1.524 . S
C2411 C2415 1.400 . S
C2412 H2397 0.960 . S
C2412 H2398 0.960 . S
C2412 H2399 0.960 . S
C2412 C2411 1.524 . S
C2413 C2410 1.403 . S
C2413 C2414 1.392 . S
C2413 C2417 1.495 . S
C2414 C2413 1.392 . S
C2414 C2415 1.385 . S
C2414 C2416 1.478 . S
C2415 H2409 0.930 . S
C2415 C2411 1.400 . S
C2415 C2414 1.385 . S
C2416 C2414 1.478 . S
C2416 C2418 1.381 . S
C2416 C2422 1.383 . S
C2417 C2413 1.495 . S
C2417 H2423 0.959 . S
C2417 H2424 0.961 . S
C2417 H2425 0.960 . S
C2418 C2416 1.381 . S
C2418 C2419 1.394 . S
C2418 H2426 0.930 . S
C2419 C2418 1.394 . S
C2419 C2420 1.383 . S
C2419 H2427 0.929 . S
C2420 C2419 1.383 . S
C2420 C2421 1.377 . S
C2421 H2405 0.930 . S
C2421 C2420 1.377 . S
C2421 C2422 1.379 . S
C2422 H2406 0.931 . S
C2422 C2416 1.383 . S
C2422 C2421 1.379 . S
H2423 C2417 0.959 . S
H2424 C2417 0.961 . S
H2425 C2417 0.960 . S
H2426 C2418 0.930 . S
H2427 C2419 0.929 . S
H2428 C2436 0.929 . S
H2429 C2438 0.930 . S
H2430 C2440 0.930 . S
H2431 C2443 0.929 . S
H2432 C2446 0.930 . S
H2433 C2448 0.960 . S
H2434 C2448 0.960 . S
H2435 C2448 0.960 . S
C2436 H2428 0.929 . S
C2436 C2437 1.377 . S
C2436 C2438 1.384 . S
C2437 C2436 1.377 . S
C2437 C2443 1.390 . S
C2438 H2429 0.930 . S
C2438 C2436 1.384 . S
C2438 C2439 1.372 . S
C2439 C2438 1.372 . S
C2439 C2440 1.400 . S
C2439 C2444 1.490 . S
C2440 H2430 0.930 . S
C2440 C2439 1.400 . S
C2440 C2443 1.386 . S
H2441 C2457 0.930 . S
H2442 C2458 0.931 . S
C2443 H2431 0.929 . S
C2443 C2437 1.390 . S
C2443 C2440 1.386 . S
C2444 C2439 1.490 . S
C2444 C2446 1.395 . S
C2444 C2447 1.403 . S
H2445 C2451 0.930 . S
C2446 H2432 0.930 . S
C2446 C2444 1.395 . S
C2446 C2449 1.403 . S
C2447 C2444 1.403 . S
C2447 C2448 1.524 . S
C2447 C2451 1.400 . S
C2448 H2433 0.960 . S
C2448 H2434 0.960 . S
C2448 H2435 0.960 . S
C2448 C2447 1.524 . S
C2449 C2446 1.403 . S
C2449 C2450 1.392 . S
C2449 C2453 1.495 . S
C2450 C2449 1.392 . S
C2450 C2451 1.385 . S
C2450 C2452 1.478 . S
C2451 H2445 0.930 . S
C2451 C2447 1.400 . S
C2451 C2450 1.385 . S
C2452 C2450 1.478 . S
C2452 C2454 1.381 . S
C2452 C2458 1.383 . S
C2453 C2449 1.495 . S
C2453 H2459 0.959 . S
C2453 H2460 0.961 . S
C2453 H2461 0.960 . S
C2454 C2452 1.381 . S
C2454 C2455 1.394 . S
C2454 H2462 0.930 . S
C2455 C2454 1.394 . S
C2455 C2456 1.383 . S
C2455 H2463 0.929 . S
C2456 C2455 1.383 . S
C2456 C2457 1.377 . S
C2457 H2441 0.930 . S
C2457 C2456 1.377 . S
C2457 C2458 1.379 . S
C2458 H2442 0.931 . S
C2458 C2452 1.383 . S
C2458 C2457 1.379 . S
H2459 C2453 0.959 . S
H2460 C2453 0.961 . S
H2461 C2453 0.960 . S
H2462 C2454 0.930 . S
H2463 C2455 0.929 . S
H2464 C2472 0.929 . S
H2465 C2474 0.930 . S
H2466 C2476 0.930 . S
H2467 C2479 0.929 . S
H2468 C2482 0.930 . S
H2469 C2484 0.960 . S
H2470 C2484 0.960 . S
H2471 C2484 0.960 . S
C2472 H2464 0.929 . S
C2472 C2473 1.377 . S
C2472 C2474 1.384 . S
C2473 C2472 1.377 . S
C2473 C2479 1.390 . S
C2474 H2465 0.930 . S
C2474 C2472 1.384 . S
C2474 C2475 1.372 . S
C2475 C2474 1.372 . S
C2475 C2476 1.400 . S
C2475 C2480 1.490 . S
C2476 H2466 0.930 . S
C2476 C2475 1.400 . S
C2476 C2479 1.386 . S
H2477 C2493 0.930 . S
H2478 C2494 0.931 . S
C2479 H2467 0.929 . S
C2479 C2473 1.390 . S
C2479 C2476 1.386 . S
C2480 C2475 1.490 . S
C2480 C2482 1.395 . S
C2480 C2483 1.403 . S
H2481 C2487 0.930 . S
C2482 H2468 0.930 . S
C2482 C2480 1.395 . S
C2482 C2485 1.403 . S
C2483 C2480 1.403 . S
C2483 C2484 1.524 . S
C2483 C2487 1.400 . S
C2484 H2469 0.960 . S
C2484 H2470 0.960 . S
C2484 H2471 0.960 . S
C2484 C2483 1.524 . S
C2485 C2482 1.403 . S
C2485 C2486 1.392 . S
C2485 C2489 1.495 . S
C2486 C2485 1.392 . S
C2486 C2487 1.385 . S
C2486 C2488 1.478 . S
C2487 H2481 0.930 . S
C2487 C2483 1.400 . S
C2487 C2486 1.385 . S
C2488 C2486 1.478 . S
C2488 C2490 1.381 . S
C2488 C2494 1.383 . S
C2489 C2485 1.495 . S
C2489 H2495 0.959 . S
C2489 H2496 0.961 . S
C2489 H2497 0.960 . S
C2490 C2488 1.381 . S
C2490 C2491 1.394 . S
C2490 H2498 0.930 . S
C2491 C2490 1.394 . S
C2491 C2492 1.383 . S
C2491 H2499 0.929 . S
C2492 C2491 1.383 . S
C2492 C2493 1.377 . S
C2493 H2477 0.930 . S
C2493 C2492 1.377 . S
C2493 C2494 1.379 . S
C2494 H2478 0.931 . S
C2494 C2488 1.383 . S
C2494 C2493 1.379 . S
H2495 C2489 0.959 . S
H2496 C2489 0.961 . S
H2497 C2489 0.960 . S
H2498 C2490 0.930 . S
H2499 C2491 0.929 . S
H2500 C2508 0.929 . S
H2501 C2510 0.930 . S
H2502 C2512 0.930 . S
H2503 C2515 0.929 . S
H2504 C2518 0.930 . S
H2505 C2520 0.960 . S
H2506 C2520 0.960 . S
H2507 C2520 0.960 . S
C2508 H2500 0.929 . S
C2508 C2509 1.377 . S
C2508 C2510 1.384 . S
C2509 C2508 1.377 . S
C2509 C2515 1.390 . S
C2510 H2501 0.930 . S
C2510 C2508 1.384 . S
C2510 C2511 1.372 . S
C2511 C2510 1.372 . S
C2511 C2512 1.400 . S
C2511 C2516 1.490 . S
C2512 H2502 0.930 . S
C2512 C2511 1.400 . S
C2512 C2515 1.386 . S
H2513 C2529 0.930 . S
H2514 C2530 0.931 . S
C2515 H2503 0.929 . S
C2515 C2509 1.390 . S
C2515 C2512 1.386 . S
C2516 C2511 1.490 . S
C2516 C2518 1.395 . S
C2516 C2519 1.403 . S
H2517 C2523 0.930 . S
C2518 H2504 0.930 . S
C2518 C2516 1.395 . S
C2518 C2521 1.403 . S
C2519 C2516 1.403 . S
C2519 C2520 1.524 . S
C2519 C2523 1.400 . S
C2520 H2505 0.960 . S
C2520 H2506 0.960 . S
C2520 H2507 0.960 . S
C2520 C2519 1.524 . S
C2521 C2518 1.403 . S
C2521 C2522 1.392 . S
C2521 C2525 1.495 . S
C2522 C2521 1.392 . S
C2522 C2523 1.385 . S
C2522 C2524 1.478 . S
C2523 H2517 0.930 . S
C2523 C2519 1.400 . S
C2523 C2522 1.385 . S
C2524 C2522 1.478 . S
C2524 C2526 1.381 . S
C2524 C2530 1.383 . S
C2525 C2521 1.495 . S
C2525 H2531 0.959 . S
C2525 H2532 0.961 . S
C2525 H2533 0.960 . S
C2526 C2524 1.381 . S
C2526 C2527 1.394 . S
C2526 H2534 0.930 . S
C2527 C2526 1.394 . S
C2527 C2528 1.383 . S
C2527 H2535 0.929 . S
C2528 C2527 1.383 . S
C2528 C2529 1.377 . S
C2529 H2513 0.930 . S
C2529 C2528 1.377 . S
C2529 C2530 1.379 . S
C2530 H2514 0.931 . S
C2530 C2524 1.383 . S
C2530 C2529 1.379 . S
H2531 C2525 0.959 . S
H2532 C2525 0.961 . S
H2533 C2525 0.960 . S
H2534 C2526 0.930 . S
H2535 C2527 0.929 . S
H2536 C2544 0.929 . S
H2537 C2546 0.930 . S
H2538 C2548 0.930 . S
H2539 C2551 0.929 . S
H2540 C2554 0.930 . S
H2541 C2556 0.960 . S
H2542 C2556 0.960 . S
H2543 C2556 0.960 . S
C2544 H2536 0.929 . S
C2544 C2545 1.377 . S
C2544 C2546 1.384 . S
C2545 C2544 1.377 . S
C2545 C2551 1.390 . S
C2546 H2537 0.930 . S
C2546 C2544 1.384 . S
C2546 C2547 1.372 . S
C2547 C2546 1.372 . S
C2547 C2548 1.400 . S
C2547 C2552 1.490 . S
C2548 H2538 0.930 . S
C2548 C2547 1.400 . S
C2548 C2551 1.386 . S
H2549 C2565 0.930 . S
H2550 C2566 0.931 . S
C2551 H2539 0.929 . S
C2551 C2545 1.390 . S
C2551 C2548 1.386 . S
C2552 C2547 1.490 . S
C2552 C2554 1.395 . S
C2552 C2555 1.403 . S
H2553 C2559 0.930 . S
C2554 H2540 0.930 . S
C2554 C2552 1.395 . S
C2554 C2557 1.403 . S
C2555 C2552 1.403 . S
C2555 C2556 1.524 . S
C2555 C2559 1.400 . S
C2556 H2541 0.960 . S
C2556 H2542 0.960 . S
C2556 H2543 0.960 . S
C2556 C2555 1.524 . S
C2557 C2554 1.403 . S
C2557 C2558 1.392 . S
C2557 C2561 1.495 . S
C2558 C2557 1.392 . S
C2558 C2559 1.385 . S
C2558 C2560 1.478 . S
C2559 H2553 0.930 . S
C2559 C2555 1.400 . S
C2559 C2558 1.385 . S
C2560 C2558 1.478 . S
C2560 C2562 1.381 . S
C2560 C2566 1.383 . S
C2561 C2557 1.495 . S
C2561 H2567 0.959 . S
C2561 H2568 0.961 . S
C2561 H2569 0.960 . S
C2562 C2560 1.381 . S
C2562 C2563 1.394 . S
C2562 H2570 0.930 . S
C2563 C2562 1.394 . S
C2563 C2564 1.383 . S
C2563 H2571 0.929 . S
C2564 C2563 1.383 . S
C2564 C2565 1.377 . S
C2565 H2549 0.930 . S
C2565 C2564 1.377 . S
C2565 C2566 1.379 . S
C2566 H2550 0.931 . S
C2566 C2560 1.383 . S
C2566 C2565 1.379 . S
H2567 C2561 0.959 . S
H2568 C2561 0.961 . S
H2569 C2561 0.960 . S
H2570 C2562 0.930 . S
H2571 C2563 0.929 . S
H2572 C2580 0.929 . S
H2573 C2582 0.930 . S
H2574 C2584 0.930 . S
H2575 C2587 0.929 . S
H2576 C2590 0.930 . S
H2577 C2592 0.960 . S
H2578 C2592 0.960 . S
H2579 C2592 0.960 . S
C2580 H2572 0.929 . S
C2580 C2581 1.377 . S
C2580 C2582 1.384 . S
C2581 C2580 1.377 . S
C2581 C2587 1.390 . S
C2582 H2573 0.930 . S
C2582 C2580 1.384 . S
C2582 C2583 1.372 . S
C2583 C2582 1.372 . S
C2583 C2584 1.400 . S
C2583 C2588 1.490 . S
C2584 H2574 0.930 . S
C2584 C2583 1.400 . S
C2584 C2587 1.386 . S
H2585 C2601 0.930 . S
H2586 C2602 0.931 . S
C2587 H2575 0.929 . S
C2587 C2581 1.390 . S
C2587 C2584 1.386 . S
C2588 C2583 1.490 . S
C2588 C2590 1.395 . S
C2588 C2591 1.403 . S
H2589 C2595 0.930 . S
C2590 H2576 0.930 . S
C2590 C2588 1.395 . S
C2590 C2593 1.403 . S
C2591 C2588 1.403 . S
C2591 C2592 1.524 . S
C2591 C2595 1.400 . S
C2592 H2577 0.960 . S
C2592 H2578 0.960 . S
C2592 H2579 0.960 . S
C2592 C2591 1.524 . S
C2593 C2590 1.403 . S
C2593 C2594 1.392 . S
C2593 C2597 1.495 . S
C2594 C2593 1.392 . S
C2594 C2595 1.385 . S
C2594 C2596 1.478 . S
C2595 H2589 0.930 . S
C2595 C2591 1.400 . S
C2595 C2594 1.385 . S
C2596 C2594 1.478 . S
C2596 C2598 1.381 . S
C2596 C2602 1.383 . S
C2597 C2593 1.495 . S
C2597 H2603 0.959 . S
C2597 H2604 0.961 . S
C2597 H2605 0.960 . S
C2598 C2596 1.381 . S
C2598 C2599 1.394 . S
C2598 H2606 0.930 . S
C2599 C2598 1.394 . S
C2599 C2600 1.383 . S
C2599 H2607 0.929 . S
C2600 C2599 1.383 . S
C2600 C2601 1.377 . S
C2601 H2585 0.930 . S
C2601 C2600 1.377 . S
C2601 C2602 1.379 . S
C2602 H2586 0.931 . S
C2602 C2596 1.383 . S
C2602 C2601 1.379 . S
H2603 C2597 0.959 . S
H2604 C2597 0.961 . S
H2605 C2597 0.960 . S
H2606 C2598 0.930 . S
H2607 C2599 0.929 . S
H2608 C2616 0.929 . S
H2609 C2618 0.930 . S
H2610 C2620 0.930 . S
H2611 C2623 0.929 . S
H2612 C2626 0.930 . S
H2613 C2628 0.960 . S
H2614 C2628 0.960 . S
H2615 C2628 0.960 . S
C2616 H2608 0.929 . S
C2616 C2617 1.377 . S
C2616 C2618 1.384 . S
C2617 C2616 1.377 . S
C2617 C2623 1.390 . S
C2618 H2609 0.930 . S
C2618 C2616 1.384 . S
C2618 C2619 1.372 . S
C2619 C2618 1.372 . S
C2619 C2620 1.400 . S
C2619 C2624 1.490 . S
C2620 H2610 0.930 . S
C2620 C2619 1.400 . S
C2620 C2623 1.386 . S
H2621 C2637 0.930 . S
H2622 C2638 0.931 . S
C2623 H2611 0.929 . S
C2623 C2617 1.390 . S
C2623 C2620 1.386 . S
C2624 C2619 1.490 . S
C2624 C2626 1.395 . S
C2624 C2627 1.403 . S
H2625 C2631 0.930 . S
C2626 H2612 0.930 . S
C2626 C2624 1.395 . S
C2626 C2629 1.403 . S
C2627 C2624 1.403 . S
C2627 C2628 1.524 . S
C2627 C2631 1.400 . S
C2628 H2613 0.960 . S
C2628 H2614 0.960 . S
C2628 H2615 0.960 . S
C2628 C2627 1.524 . S
C2629 C2626 1.403 . S
C2629 C2630 1.392 . S
C2629 C2633 1.495 . S
C2630 C2629 1.392 . S
C2630 C2631 1.385 . S
C2630 C2632 1.478 . S
C2631 H2625 0.930 . S
C2631 C2627 1.400 . S
C2631 C2630 1.385 . S
C2632 C2630 1.478 . S
C2632 C2634 1.381 . S
C2632 C2638 1.383 . S
C2633 C2629 1.495 . S
C2633 H2639 0.959 . S
C2633 H2640 0.961 . S
C2633 H2641 0.960 . S
C2634 C2632 1.381 . S
C2634 C2635 1.394 . S
C2634 H2642 0.930 . S
C2635 C2634 1.394 . S
C2635 C2636 1.383 . S
C2635 H2643 0.929 . S
C2636 C2635 1.383 . S
C2636 C2637 1.377 . S
C2637 H2621 0.930 . S
C2637 C2636 1.377 . S
C2637 C2638 1.379 . S
C2638 H2622 0.931 . S
C2638 C2632 1.383 . S
C2638 C2637 1.379 . S
H2639 C2633 0.959 . S
H2640 C2633 0.961 . S
H2641 C2633 0.960 . S
H2642 C2634 0.930 . S
H2643 C2635 0.929 . S
H2644 C2652 0.929 . S
H2645 C2654 0.930 . S
H2646 C2656 0.930 . S
H2647 C2659 0.929 . S
H2648 C2662 0.930 . S
H2649 C2664 0.960 . S
H2650 C2664 0.960 . S
H2651 C2664 0.960 . S
C2652 H2644 0.929 . S
C2652 C2653 1.377 . S
C2652 C2654 1.384 . S
C2653 C2652 1.377 . S
C2653 C2659 1.390 . S
C2654 H2645 0.930 . S
C2654 C2652 1.384 . S
C2654 C2655 1.372 . S
C2655 C2654 1.372 . S
C2655 C2656 1.400 . S
C2655 C2660 1.490 . S
C2656 H2646 0.930 . S
C2656 C2655 1.400 . S
C2656 C2659 1.386 . S
H2657 C2673 0.930 . S
H2658 C2674 0.931 . S
C2659 H2647 0.929 . S
C2659 C2653 1.390 . S
C2659 C2656 1.386 . S
C2660 C2655 1.490 . S
C2660 C2662 1.395 . S
C2660 C2663 1.403 . S
H2661 C2667 0.930 . S
C2662 H2648 0.930 . S
C2662 C2660 1.395 . S
C2662 C2665 1.403 . S
C2663 C2660 1.403 . S
C2663 C2664 1.524 . S
C2663 C2667 1.400 . S
C2664 H2649 0.960 . S
C2664 H2650 0.960 . S
C2664 H2651 0.960 . S
C2664 C2663 1.524 . S
C2665 C2662 1.403 . S
C2665 C2666 1.392 . S
C2665 C2669 1.495 . S
C2666 C2665 1.392 . S
C2666 C2667 1.385 . S
C2666 C2668 1.478 . S
C2667 H2661 0.930 . S
C2667 C2663 1.400 . S
C2667 C2666 1.385 . S
C2668 C2666 1.478 . S
C2668 C2670 1.381 . S
C2668 C2674 1.383 . S
C2669 C2665 1.495 . S
C2669 H2675 0.959 . S
C2669 H2676 0.961 . S
C2669 H2677 0.960 . S
C2670 C2668 1.381 . S
C2670 C2671 1.394 . S
C2670 H2678 0.930 . S
C2671 C2670 1.394 . S
C2671 C2672 1.383 . S
C2671 H2679 0.929 . S
C2672 C2671 1.383 . S
C2672 C2673 1.377 . S
C2673 H2657 0.930 . S
C2673 C2672 1.377 . S
C2673 C2674 1.379 . S
C2674 H2658 0.931 . S
C2674 C2668 1.383 . S
C2674 C2673 1.379 . S
H2675 C2669 0.959 . S
H2676 C2669 0.961 . S
H2677 C2669 0.960 . S
H2678 C2670 0.930 . S
H2679 C2671 0.929 . S
H2680 C2688 0.929 . S
H2681 C2690 0.930 . S
H2682 C2692 0.930 . S
H2683 C2695 0.929 . S
H2684 C2698 0.930 . S
H2685 C2700 0.960 . S
H2686 C2700 0.960 . S
H2687 C2700 0.960 . S
C2688 H2680 0.929 . S
C2688 C2689 1.377 . S
C2688 C2690 1.384 . S
C2689 C2688 1.377 . S
C2689 C2695 1.390 . S
C2690 H2681 0.930 . S
C2690 C2688 1.384 . S
C2690 C2691 1.372 . S
C2691 C2690 1.372 . S
C2691 C2692 1.400 . S
C2691 C2696 1.490 . S
C2692 H2682 0.930 . S
C2692 C2691 1.400 . S
C2692 C2695 1.386 . S
H2693 C2709 0.930 . S
H2694 C2710 0.931 . S
C2695 H2683 0.929 . S
C2695 C2689 1.390 . S
C2695 C2692 1.386 . S
C2696 C2691 1.490 . S
C2696 C2698 1.395 . S
C2696 C2699 1.403 . S
H2697 C2703 0.930 . S
C2698 H2684 0.930 . S
C2698 C2696 1.395 . S
C2698 C2701 1.403 . S
C2699 C2696 1.403 . S
C2699 C2700 1.524 . S
C2699 C2703 1.400 . S
C2700 H2685 0.960 . S
C2700 H2686 0.960 . S
C2700 H2687 0.960 . S
C2700 C2699 1.524 . S
C2701 C2698 1.403 . S
C2701 C2702 1.392 . S
C2701 C2705 1.495 . S
C2702 C2701 1.392 . S
C2702 C2703 1.385 . S
C2702 C2704 1.478 . S
C2703 H2697 0.930 . S
C2703 C2699 1.400 . S
C2703 C2702 1.385 . S
C2704 C2702 1.478 . S
C2704 C2706 1.381 . S
C2704 C2710 1.383 . S
C2705 C2701 1.495 . S
C2705 H2711 0.959 . S
C2705 H2712 0.961 . S
C2705 H2713 0.960 . S
C2706 C2704 1.381 . S
C2706 C2707 1.394 . S
C2706 H2714 0.930 . S
C2707 C2706 1.394 . S
C2707 C2708 1.383 . S
C2707 H2715 0.929 . S
C2708 C2707 1.383 . S
C2708 C2709 1.377 . S
C2709 H2693 0.930 . S
C2709 C2708 1.377 . S
C2709 C2710 1.379 . S
C2710 H2694 0.931 . S
C2710 C2704 1.383 . S
C2710 C2709 1.379 . S
H2711 C2705 0.959 . S
H2712 C2705 0.961 . S
H2713 C2705 0.960 . S
H2714 C2706 0.930 . S
H2715 C2707 0.929 . S
H2716 C2724 0.929 . S
H2717 C2726 0.930 . S
H2718 C2728 0.930 . S
H2719 C2731 0.929 . S
H2720 C2734 0.930 . S
H2721 C2736 0.960 . S
H2722 C2736 0.960 . S
H2723 C2736 0.960 . S
C2724 H2716 0.929 . S
C2724 C2725 1.377 . S
C2724 C2726 1.384 . S
C2725 C2724 1.377 . S
C2725 C2731 1.390 . S
C2726 H2717 0.930 . S
C2726 C2724 1.384 . S
C2726 C2727 1.372 . S
C2727 C2726 1.372 . S
C2727 C2728 1.400 . S
C2727 C2732 1.490 . S
C2728 H2718 0.930 . S
C2728 C2727 1.400 . S
C2728 C2731 1.386 . S
H2729 C2745 0.930 . S
H2730 C2746 0.931 . S
C2731 H2719 0.929 . S
C2731 C2725 1.390 . S
C2731 C2728 1.386 . S
C2732 C2727 1.490 . S
C2732 C2734 1.395 . S
C2732 C2735 1.403 . S
H2733 C2739 0.930 . S
C2734 H2720 0.930 . S
C2734 C2732 1.395 . S
C2734 C2737 1.403 . S
C2735 C2732 1.403 . S
C2735 C2736 1.524 . S
C2735 C2739 1.400 . S
C2736 H2721 0.960 . S
C2736 H2722 0.960 . S
C2736 H2723 0.960 . S
C2736 C2735 1.524 . S
C2737 C2734 1.403 . S
C2737 C2738 1.392 . S
C2737 C2741 1.495 . S
C2738 C2737 1.392 . S
C2738 C2739 1.385 . S
C2738 C2740 1.478 . S
C2739 H2733 0.930 . S
C2739 C2735 1.400 . S
C2739 C2738 1.385 . S
C2740 C2738 1.478 . S
C2740 C2742 1.381 . S
C2740 C2746 1.383 . S
C2741 C2737 1.495 . S
C2741 H2747 0.959 . S
C2741 H2748 0.961 . S
C2741 H2749 0.960 . S
C2742 C2740 1.381 . S
C2742 C2743 1.394 . S
C2742 H2750 0.930 . S
C2743 C2742 1.394 . S
C2743 C2744 1.383 . S
C2743 H2751 0.929 . S
C2744 C2743 1.383 . S
C2744 C2745 1.377 . S
C2745 H2729 0.930 . S
C2745 C2744 1.377 . S
C2745 C2746 1.379 . S
C2746 H2730 0.931 . S
C2746 C2740 1.383 . S
C2746 C2745 1.379 . S
H2747 C2741 0.959 . S
H2748 C2741 0.961 . S
H2749 C2741 0.960 . S
H2750 C2742 0.930 . S
H2751 C2743 0.929 . S
C457 C382 1.313 . S
C476 C12 1.331 . S
C493 C26 1.310 . S
C512 C116 1.323 . S
C529 C354 1.307 . S
C548 C40 1.315 . S
C565 C54 1.312 . S
C584 C144 1.289 . S
C601 C68 1.317 . S
C620 C410 1.320 . S
C637 C82 1.316 . S
C656 C200 1.293 . S
C673 C96 1.312 . S
C692 C438 1.288 . S
C709 C110 1.311 . S
C728 C172 1.290 . S
C745 C270 1.308 . S
C764 C124 1.331 . S
C781 C4 1.312 . S
C800 C138 1.297 . S
C817 C242 1.315 . S
C836 C152 1.290 . S
C853 C166 1.317 . S
C872 C32 1.298 . S
C889 C298 1.309 . S
C908 C180 1.311 . S
C925 C88 1.308 . S
C944 C194 1.321 . S
C961 C208 1.311 . S
C980 C326 1.329 . S
C997 C60 1.314 . S
C1016 C222 1.293 . S
C1033 C236 1.316 . S
C1052 C158 1.327 . S
C1069 C250 1.316 . S
C1088 C340 1.290 . S
C1105 C130 1.314 . S
C1124 C264 1.326 . S
C1141 C368 1.311 . S
C1160 C278 1.331 . S
C1177 C186 1.311 . S
C1196 C292 1.290 . S
C1213 C424 1.312 . S
C1232 C306 1.290 . S
C1249 C214 1.312 . S
C1268 C320 1.331 . S
C1285 C334 1.311 . S
C1304 C396 1.291 . S
C1321 C46 1.310 . S
C1340 C348 1.326 . S
C1357 C362 1.311 . S
C1376 C228 1.328 . S
C1393 C376 1.312 . S
C1412 C18 1.327 . S
C1429 C390 1.316 . S
C1448 C256 1.288 . S
C1465 C404 1.317 . S
C1484 C74 1.287 . S
C1501 C418 1.316 . S
C1520 C312 1.289 . S
C1537 C432 1.316 . S
C1556 C102 1.290 . S
C1573 C446 1.317 . S
C1592 C284 1.288 . S
C1609 C347 1.490 . S
C1628 C11 1.502 . S
C1645 C25 1.493 . S
C1664 C137 1.504 . S
C1681 C375 1.487 . S
C1700 C39 1.482 . S
C1717 C53 1.488 . S
C1736 C165 1.469 . S
C1753 C403 1.487 . S
C1772 C67 1.487 . S
C1789 C81 1.494 . S
C1808 C193 1.498 . S
C1825 C431 1.487 . S
C1844 C95 1.487 . S
C1861 C109 1.491 . S
C1880 C221 1.504 . S
C1897 C123 1.488 . S
C1916 C235 1.496 . S
C1933 C151 1.492 . S
C1952 C263 1.505 . S
C1969 C179 1.493 . S
C1988 C291 1.487 . S
C2005 C207 1.494 . S
C2024 C319 1.490 . S
C2041 C249 1.489 . S
C2060 C361 1.498 . S
C2077 C389 1.491 . S
C2096 C277 1.474 . S
C2113 C417 1.488 . S
C2132 C305 1.470 . S
C2149 C333 1.487 . S
C2168 C445 1.472 . S
C2185 C5 0.787 . S
C2204 C75 0.846 . S
C2221 C19 0.790 . S
C2240 C89 0.725 . S
C2257 C33 0.790 . S
C2276 C103 0.860 . S
C2293 C61 0.804 . S
C2312 C47 0.732 . S
C2329 C117 0.783 . S
C2348 C187 0.872 . S
C2365 C131 0.801 . S
C2384 C201 0.816 . S
C2401 C145 0.807 . S
C2420 C215 0.787 . S
C2437 C159 0.791 . S
C2456 C173 0.855 . S
C2473 C229 0.787 . S
C2492 C299 0.734 . S
C2509 C313 0.786 . S
C2528 C243 0.842 . S
C2545 C257 0.811 . S
C2564 C327 0.769 . S
C2581 C271 0.791 . S
C2600 C285 0.861 . S
C2617 C411 0.811 . S
C2636 C341 0.720 . S
C2653 C355 0.783 . S
C2672 C425 0.872 . S
C2689 C439 0.806 . S
C2708 C369 0.732 . S
C2725 C383 0.787 . S
C2744 C397 0.867 . S
