# Generated by pormake.
# Topology vmg, (6)-cn, num edge types: 1
# Building blocks:
#     Node 0, Type 0, BuildingBlock: VOLQOD_clean_sbu_1, # of connection points: 6
#     Node 1, Type 0, BuildingBlock: VOLQOD_clean_sbu_1, # of connection points: 6
#     Node 2, Type 0, BuildingBlock: VOLQOD_clean_sbu_1, # of connection points: 6
#     Node 3, Type 0, BuildingBlock: VOLQOD_clean_sbu_1, # of connection points: 6
#     Node 4, Type 0, BuildingBlock: VOLQOD_clean_sbu_1, # of connection points: 6
#     Node 5, Type 0, BuildingBlock: VOLQOD_clean_sbu_1, # of connection points: 6
#     Node 6, Type 0, BuildingBlock: VOLQOD_clean_sbu_1, # of connection points: 6
#     Node 7, Type 0, BuildingBlock: VOLQOD_clean_sbu_1, # of connection points: 6
#     Edge 8, Type (0, 0), BuildingBlock: MIFKUJ_clean_linker_0, # of connection points: 2
#     Edge 9, Type (0, 0), BuildingBlock: MIFKUJ_clean_linker_0, # of connection points: 2
#     Edge 10, Type (0, 0), BuildingBlock: MIFKUJ_clean_linker_0, # of connection points: 2
#     Edge 11, Type (0, 0), BuildingBlock: MIFKUJ_clean_linker_0, # of connection points: 2
#     Edge 12, Type (0, 0), BuildingBlock: MIFKUJ_clean_linker_0, # of connection points: 2
#     Edge 13, Type (0, 0), BuildingBlock: MIFKUJ_clean_linker_0, # of connection points: 2
#     Edge 14, Type (0, 0), BuildingBlock: MIFKUJ_clean_linker_0, # of connection points: 2
#     Edge 15, Type (0, 0), BuildingBlock: MIFKUJ_clean_linker_0, # of connection points: 2
#     Edge 16, Type (0, 0), BuildingBlock: MIFKUJ_clean_linker_0, # of connection points: 2
#     Edge 17, Type (0, 0), BuildingBlock: MIFKUJ_clean_linker_0, # of connection points: 2
#     Edge 18, Type (0, 0), BuildingBlock: MIFKUJ_clean_linker_0, # of connection points: 2
#     Edge 19, Type (0, 0), BuildingBlock: MIFKUJ_clean_linker_0, # of connection points: 2
#     Edge 20, Type (0, 0), BuildingBlock: MIFKUJ_clean_linker_0, # of connection points: 2
#     Edge 21, Type (0, 0), BuildingBlock: MIFKUJ_clean_linker_0, # of connection points: 2
#     Edge 22, Type (0, 0), BuildingBlock: MIFKUJ_clean_linker_0, # of connection points: 2
#     Edge 23, Type (0, 0), BuildingBlock: MIFKUJ_clean_linker_0, # of connection points: 2
#     Edge 24, Type (0, 0), BuildingBlock: MIFKUJ_clean_linker_0, # of connection points: 2
#     Edge 25, Type (0, 0), BuildingBlock: MIFKUJ_clean_linker_0, # of connection points: 2
#     Edge 26, Type (0, 0), BuildingBlock: MIFKUJ_clean_linker_0, # of connection points: 2
#     Edge 27, Type (0, 0), BuildingBlock: MIFKUJ_clean_linker_0, # of connection points: 2
#     Edge 28, Type (0, 0), BuildingBlock: MIFKUJ_clean_linker_0, # of connection points: 2
#     Edge 29, Type (0, 0), BuildingBlock: MIFKUJ_clean_linker_0, # of connection points: 2
#     Edge 30, Type (0, 0), BuildingBlock: MIFKUJ_clean_linker_0, # of connection points: 2
#     Edge 31, Type (0, 0), BuildingBlock: MIFKUJ_clean_linker_0, # of connection points: 2
# Relax obj value: 0.364
# Max RMSD: 0.272
# Mean RMSD: 0.272
data_MOF--net-vmg--node1-VOLQOD_clean_sbu_1--edge1-MIFKUJ_clean_linker_0
_symmetry_space_group_name_H-M    P1
_symmetry_Int_Tables_number       1
_symmetry_cell_setting            triclinic
loop_
_symmetry_equiv_pos_as_xyz
'x, y, z'
_cell_length_a     36.206751
_cell_length_b     59.690895
_cell_length_c     35.193247
_cell_angle_alpha  89.966335
_cell_angle_beta   97.420277
_cell_angle_gamma 90.014547
loop_
_atom_site_label
_atom_site_type_symbol
_atom_site_fract_x
_atom_site_fract_y
_atom_site_fract_z
_atom_type_partial_charge
O0 O 0.16569 0.44131 0.11934 0.0
Zn1 Zn 0.21986 0.43512 0.13686 0.0
O2 O 0.22926 0.40324 0.13323 0.0
Zn3 Zn 0.23935 0.38989 0.18405 0.0
Zn4 Zn 0.18645 0.38901 0.10479 0.0
Zn5 Zn 0.27092 0.39872 0.10503 0.0
O6 O 0.28977 0.37449 0.19016 0.0
O7 O 0.31468 0.38799 0.14014 0.0
O8 O 0.23361 0.44634 0.19144 0.0
O9 O 0.24291 0.4143 0.22355 0.0
O10 O 0.19715 0.36929 0.19555 0.0
O11 O 0.16063 0.37055 0.13991 0.0
O12 O 0.20002 0.36787 0.06472 0.0
O13 O 0.24708 0.45221 0.09936 0.0
O14 O 0.26066 0.37372 0.06736 0.0
O15 O 0.28246 0.42646 0.07627 0.0
C16 C 0.14215 0.43104 0.09542 0.0
C17 C 0.3174 0.37691 0.17132 0.0
C18 C 0.16725 0.36379 0.17434 0.0
C19 C 0.24094 0.4356 0.22289 0.0
C20 C 0.23134 0.36315 0.05406 0.0
C21 C 0.27035 0.44648 0.07687 0.0
O22 O 0.14862 0.41148 0.08348 0.0
O23 O 0.81829 0.44514 0.38776 0.0
Zn24 Zn 0.76637 0.43429 0.36875 0.0
O25 O 0.76479 0.40173 0.37104 0.0
Zn26 Zn 0.75577 0.38879 0.32012 0.0
Zn27 Zn 0.81118 0.3904 0.39696 0.0
Zn28 Zn 0.72564 0.39281 0.4001 0.0
O29 O 0.71057 0.36872 0.31573 0.0
O30 O 0.68304 0.37987 0.36548 0.0
O31 O 0.74919 0.4454 0.31456 0.0
O32 O 0.74278 0.41344 0.28186 0.0
O33 O 0.80145 0.3725 0.30566 0.0
O34 O 0.84009 0.37577 0.35964 0.0
O35 O 0.80377 0.36671 0.43574 0.0
O36 O 0.73549 0.44776 0.40706 0.0
O37 O 0.74265 0.3679 0.43566 0.0
O38 O 0.71021 0.41818 0.4319 0.0
C39 C 0.8439 0.43606 0.41104 0.0
C40 C 0.68267 0.3688 0.33448 0.0
C41 C 0.83326 0.36926 0.32508 0.0
C42 C 0.7409 0.43474 0.28313 0.0
C43 C 0.77421 0.35932 0.44728 0.0
C44 C 0.71622 0.43919 0.43126 0.0
O45 O 0.84267 0.41544 0.42009 0.0
O46 O 0.79994 0.54403 0.90016 0.0
Zn47 Zn 0.75063 0.5561 0.87451 0.0
O48 O 0.75133 0.58877 0.8762 0.0
Zn49 Zn 0.74643 0.60186 0.82524 0.0
Zn50 Zn 0.79744 0.59878 0.90407 0.0
Zn51 Zn 0.71205 0.5992 0.90363 0.0
O52 O 0.70071 0.62178 0.81662 0.0
O53 O 0.67223 0.61355 0.8674 0.0
O54 O 0.73987 0.54495 0.81931 0.0
O55 O 0.73819 0.57704 0.78691 0.0
O56 O 0.7942 0.61745 0.81423 0.0
O57 O 0.83115 0.60934 0.86776 0.0
O58 O 0.79049 0.62482 0.93832 0.0
O59 O 0.71404 0.54369 0.90822 0.0
O60 O 0.72958 0.62379 0.93982 0.0
O61 O 0.69287 0.57433 0.93389 0.0
C62 C 0.82375 0.55278 0.92579 0.0
C63 C 0.67281 0.6233 0.83527 0.0
C64 C 0.82638 0.61718 0.8339 0.0
C65 C 0.73616 0.55574 0.78766 0.0
C66 C 0.76128 0.63256 0.95004 0.0
C67 C 0.69534 0.55308 0.93211 0.0
O68 O 0.82344 0.57363 0.93324 0.0
O69 O 0.17328 0.55462 0.62145 0.0
Zn70 Zn 0.22613 0.56411 0.63783 0.0
O71 O 0.23033 0.59646 0.63434 0.0
Zn72 Zn 0.24147 0.60941 0.6851 0.0
Zn73 Zn 0.18415 0.60876 0.60905 0.0
Zn74 Zn 0.26955 0.60391 0.6042 0.0
O75 O 0.28632 0.62964 0.68734 0.0
O76 O 0.31274 0.61763 0.63739 0.0
O77 O 0.24278 0.55311 0.69175 0.0
O78 O 0.25537 0.58494 0.72372 0.0
O79 O 0.19631 0.62553 0.70094 0.0
O80 O 0.15803 0.62546 0.64631 0.0
O81 O 0.19189 0.63052 0.56761 0.0
O82 O 0.25506 0.54916 0.59951 0.0
O83 O 0.25266 0.6277 0.56604 0.0
O84 O 0.28394 0.57729 0.57444 0.0
C85 C 0.14692 0.56407 0.59977 0.0
C86 C 0.31371 0.62927 0.66787 0.0
C87 C 0.1653 0.6307 0.68144 0.0
C88 C 0.25406 0.56362 0.72262 0.0
C89 C 0.22133 0.63654 0.55425 0.0
C90 C 0.27568 0.55657 0.57557 0.0
O91 O 0.14903 0.58443 0.58951 0.0
O92 O 0.68639 0.94508 0.10965 0.0
Zn93 Zn 0.73724 0.9333 0.13021 0.0
O94 O 0.73792 0.90075 0.12665 0.0
Zn95 Zn 0.74728 0.88719 0.17726 0.0
Zn96 Zn 0.6906 0.89047 0.10108 0.0
Zn97 Zn 0.77582 0.89171 0.09595 0.0
O98 O 0.79403 0.86815 0.182 0.0
O99 O 0.81813 0.87729 0.12894 0.0
O100 O 0.75136 0.94378 0.18509 0.0
O101 O 0.75692 0.91146 0.21671 0.0
O102 O 0.70192 0.87017 0.19061 0.0
O103 O 0.66122 0.87675 0.13904 0.0
O104 O 0.69654 0.86636 0.06275 0.0
O105 O 0.7702 0.94708 0.09417 0.0
O106 O 0.75702 0.86787 0.05873 0.0
O107 O 0.79248 0.91762 0.0661 0.0
C108 C 0.66082 0.93669 0.08553 0.0
C109 C 0.82033 0.86726 0.16113 0.0
C110 C 0.66908 0.86873 0.17259 0.0
C111 C 0.75786 0.93279 0.21637 0.0
C112 C 0.7251 0.85929 0.04888 0.0
C113 C 0.7885 0.93872 0.06897 0.0
O114 O 0.66084 0.91603 0.07655 0.0
O115 O 0.31453 0.94598 0.38792 0.0
Zn116 Zn 0.26339 0.9353 0.36584 0.0
O117 O 0.26171 0.90281 0.3689 0.0
Zn118 Zn 0.25832 0.88941 0.31847 0.0
Zn119 Zn 0.30576 0.89213 0.4002 0.0
Zn120 Zn 0.21952 0.89415 0.3935 0.0
O121 O 0.21192 0.87022 0.30872 0.0
O122 O 0.17965 0.88135 0.35513 0.0
O123 O 0.25137 0.94603 0.31067 0.0
O124 O 0.2522 0.91384 0.27898 0.0
O125 O 0.30571 0.87253 0.31081 0.0
O126 O 0.33959 0.87765 0.36733 0.0
O127 O 0.29463 0.86844 0.43743 0.0
O128 O 0.22995 0.94919 0.40136 0.0
O129 O 0.23298 0.86922 0.4302 0.0
O130 O 0.20264 0.91964 0.42407 0.0
C131 C 0.33713 0.93771 0.41512 0.0
C132 C 0.18201 0.87042 0.32439 0.0
C133 C 0.33612 0.87023 0.33321 0.0
C134 C 0.2491 0.9351 0.27926 0.0
C135 C 0.26368 0.86091 0.44535 0.0
C136 C 0.20918 0.9406 0.42415 0.0
O137 O 0.33405 0.91759 0.42637 0.0
O138 O 0.33688 0.05721 0.87729 0.0
Zn139 Zn 0.28222 0.06374 0.86133 0.0
O140 O 0.27372 0.09595 0.86327 0.0
Zn141 Zn 0.25996 0.10806 0.81203 0.0
Zn142 Zn 0.31819 0.11057 0.88744 0.0
Zn143 Zn 0.23491 0.10211 0.89447 0.0
O144 O 0.21047 0.12423 0.8088 0.0
O145 O 0.18917 0.11253 0.86203 0.0
O146 O 0.26593 0.05141 0.80761 0.0
O147 O 0.25239 0.08272 0.7745 0.0
O148 O 0.30098 0.12775 0.79543 0.0
O149 O 0.34127 0.12769 0.84862 0.0
O150 O 0.30832 0.13322 0.92682 0.0
O151 O 0.25568 0.04797 0.90136 0.0
O152 O 0.24827 0.12796 0.92955 0.0
O153 O 0.22511 0.07544 0.92625 0.0
C154 C 0.36162 0.06811 0.89892 0.0
C155 C 0.18457 0.12285 0.8301 0.0
C156 C 0.33206 0.13361 0.81403 0.0
C157 C 0.25525 0.06146 0.77603 0.0
C158 C 0.27831 0.13861 0.93965 0.0
C159 C 0.23512 0.055 0.9257 0.0
O160 O 0.35627 0.08827 0.90865 0.0
O161 O 0.68294 0.04818 0.60879 0.0
Zn162 Zn 0.73506 0.05779 0.6295 0.0
O163 O 0.73832 0.09016 0.62683 0.0
Zn164 Zn 0.74325 0.1034 0.67734 0.0
Zn165 Zn 0.69451 0.1017 0.59643 0.0
Zn166 Zn 0.7805 0.09814 0.60187 0.0
O167 O 0.79 0.12212 0.68622 0.0
O168 O 0.82147 0.10964 0.64013 0.0
O169 O 0.74865 0.04678 0.68429 0.0
O170 O 0.75016 0.07888 0.71652 0.0
O171 O 0.69695 0.12081 0.68635 0.0
O172 O 0.66187 0.11637 0.63034 0.0
O173 O 0.70646 0.12558 0.55972 0.0
O174 O 0.76693 0.04348 0.59291 0.0
O175 O 0.76804 0.12378 0.56642 0.0
O176 O 0.79583 0.07254 0.5706 0.0
C177 C 0.66045 0.05684 0.58187 0.0
C178 C 0.81985 0.12094 0.6706 0.0
C179 C 0.66626 0.12357 0.66462 0.0
C180 C 0.75265 0.0576 0.71586 0.0
C181 C 0.73768 0.13281 0.55195 0.0
C182 C 0.78813 0.05172 0.57021 0.0
O183 O 0.66464 0.0768 0.5703 0.0
H184 H 0.66681 0.34908 0.26402 0.0
H185 H 0.60542 0.33749 0.23329 0.0
H186 H 0.55876 0.35126 0.33753 0.0
H187 H 0.61992 0.36265 0.36869 0.0
H188 H 0.52204 0.31506 0.29083 0.0
H189 H 0.56172 0.39395 0.28235 0.0
H190 H 0.60979 0.42099 0.26831 0.0
H191 H 0.6046 0.39498 0.15402 0.0
H192 H 0.55662 0.3677 0.16753 0.0
H193 H 0.34348 0.3642 0.24473 0.0
H194 H 0.40661 0.3517 0.26856 0.0
H195 H 0.43596 0.35397 0.15357 0.0
H196 H 0.3735 0.36704 0.12985 0.0
H197 H 0.484 0.37639 0.19869 0.0
H198 H 0.43123 0.30384 0.2025 0.0
H199 H 0.38684 0.27479 0.2173 0.0
H200 H 0.41767 0.28597 0.33773 0.0
H201 H 0.46189 0.31534 0.32367 0.0
C202 C 0.64374 0.34902 0.28079 0.0
C203 C 0.64796 0.3574 0.31843 0.0
C204 C 0.60877 0.34223 0.26325 0.0
C205 C 0.57767 0.34383 0.28309 0.0
C206 C 0.58253 0.3499 0.32184 0.0
C207 C 0.61743 0.35669 0.33941 0.0
C208 C 0.53983 0.34411 0.26188 0.0
C209 C 0.51348 0.32835 0.27057 0.0
C210 C 0.5292 0.36129 0.23507 0.0
C211 C 0.55584 0.37875 0.226 0.0
C212 C 0.57079 0.39407 0.2542 0.0
C213 C 0.59807 0.40937 0.24639 0.0
C214 C 0.61044 0.40956 0.2104 0.0
C215 C 0.59513 0.39471 0.18195 0.0
C216 C 0.56779 0.37939 0.18961 0.0
C217 C 0.36326 0.36169 0.22452 0.0
C218 C 0.35378 0.3669 0.18556 0.0
C219 C 0.39924 0.3544 0.23809 0.0
C220 C 0.42597 0.35181 0.21278 0.0
C221 C 0.41585 0.35594 0.17361 0.0
C222 C 0.38017 0.36348 0.16014 0.0
C223 C 0.46542 0.34733 0.22758 0.0
C224 C 0.49226 0.36261 0.21804 0.0
C225 C 0.47631 0.32956 0.2533 0.0
C226 C 0.4497 0.31194 0.26199 0.0
C227 C 0.42834 0.30025 0.23214 0.0
C228 C 0.40324 0.28369 0.2404 0.0
C229 C 0.39938 0.27857 0.27843 0.0
C230 C 0.42068 0.28997 0.30828 0.0
C231 C 0.4458 0.30656 0.30018 0.0
H232 H 0.37995 0.26574 0.28476 0.0
H233 H 0.63166 0.42135 0.20444 0.0
H234 H 0.64771 0.63078 0.75973 0.0
H235 H 0.58668 0.64544 0.7335 0.0
H236 H 0.56209 0.65924 0.84802 0.0
H237 H 0.62247 0.64387 0.87431 0.0
H238 H 0.51091 0.63439 0.8133 0.0
H239 H 0.5679 0.7018 0.78054 0.0
H240 H 0.61363 0.72596 0.75419 0.0
H241 H 0.57864 0.70018 0.64142 0.0
H242 H 0.53309 0.67558 0.66714 0.0
H243 H 0.32799 0.65423 0.73348 0.0
H244 H 0.38877 0.66752 0.76316 0.0
H245 H 0.43873 0.64431 0.66556 0.0
H246 H 0.37818 0.63134 0.63535 0.0
H247 H 0.47447 0.68215 0.69919 0.0
H248 H 0.43037 0.60884 0.73707 0.0
H249 H 0.38492 0.58423 0.76312 0.0
H250 H 0.39728 0.62208 0.86772 0.0
H251 H 0.44242 0.64711 0.842 0.0
C252 C 0.6296 0.63744 0.77919 0.0
C253 C 0.63943 0.63584 0.819 0.0
C254 C 0.59482 0.64598 0.7642 0.0
C255 C 0.56975 0.65348 0.78881 0.0
C256 C 0.58086 0.65345 0.82851 0.0
C257 C 0.61529 0.64459 0.84348 0.0
C258 C 0.53031 0.65791 0.77366 0.0
C259 C 0.50296 0.6454 0.78908 0.0
C260 C 0.51986 0.67192 0.74159 0.0
C261 C 0.54716 0.68673 0.72586 0.0
C262 C 0.57012 0.70115 0.75016 0.0
C263 C 0.59599 0.71495 0.73532 0.0
C264 C 0.59907 0.71459 0.69616 0.0
C265 C 0.57622 0.70044 0.67175 0.0
C266 C 0.55032 0.68659 0.68644 0.0
C267 C 0.35172 0.65243 0.71789 0.0
C268 C 0.34848 0.64111 0.68257 0.0
C269 C 0.38638 0.66014 0.73483 0.0
C270 C 0.41824 0.65647 0.71684 0.0
C271 C 0.41445 0.64722 0.67995 0.0
C272 C 0.37984 0.63959 0.66292 0.0
C273 C 0.4558 0.6584 0.73862 0.0
C274 C 0.48263 0.67184 0.72426 0.0
C275 C 0.466 0.64527 0.77179 0.0
C276 C 0.43939 0.62998 0.78747 0.0
C277 C 0.42322 0.61197 0.76553 0.0
C278 C 0.39753 0.59795 0.78023 0.0
C279 C 0.38814 0.60163 0.81701 0.0
C280 C 0.40452 0.61928 0.83921 0.0
C281 C 0.43014 0.63339 0.82459 0.0
H282 H 0.36825 0.59077 0.82834 0.0
H283 H 0.61912 0.72528 0.68473 0.0
H284 H 0.119 0.86021 0.35559 0.0
H285 H 0.06046 0.84611 0.32244 0.0
H286 H 0.1105 0.83967 0.21816 0.0
H287 H 0.1694 0.85401 0.25118 0.0
H288 H 0.05051 0.86579 0.20881 0.0
H289 H 0.07771 0.79357 0.25895 0.0
H290 H 0.09802 0.76451 0.30689 0.0
H291 H 0.00782 0.78149 0.36958 0.0
H292 H 0.98726 0.81093 0.3224 0.0
H293 H 0.87065 0.84963 0.11842 0.0
H294 H 0.93357 0.83672 0.14138 0.0
H295 H 0.9125 0.8462 0.25818 0.0
H296 H 0.84902 0.85855 0.23539 0.0
H297 H 0.96126 0.81107 0.25161 0.0
H298 H 0.94612 0.88884 0.21074 0.0
H299 H 0.92596 0.91871 0.16418 0.0
H300 H 0.99562 0.89143 0.08572 0.0
H301 H 0.01579 0.8612 0.13169 0.0
C302 C 0.1178 0.85546 0.32575 0.0
C303 C 0.1486 0.85865 0.30578 0.0
C304 C 0.0844 0.84711 0.30696 0.0
C305 C 0.08116 0.84177 0.26786 0.0
C306 C 0.11252 0.84364 0.2484 0.0
C307 C 0.14608 0.85188 0.26728 0.0
C308 C 0.04377 0.83799 0.24642 0.0
C309 C 0.03137 0.85333 0.21739 0.0
C310 C 0.01857 0.82211 0.25829 0.0
C311 C 0.03098 0.80455 0.28709 0.0
C312 C 0.06233 0.79125 0.2831 0.0
C313 C 0.07384 0.77466 0.3101 0.0
C314 C 0.05413 0.77111 0.34116 0.0
C315 C 0.02297 0.78421 0.34541 0.0
C316 C 0.01134 0.80084 0.3185 0.0
C317 C 0.87915 0.84848 0.14903 0.0
C318 C 0.85531 0.85557 0.17517 0.0
C319 C 0.91502 0.84101 0.16207 0.0
C320 C 0.92789 0.84099 0.20141 0.0
C321 C 0.90309 0.84616 0.22768 0.0
C322 C 0.86692 0.85333 0.21464 0.0
C323 C 0.96822 0.83915 0.2148 0.0
C324 C 0.98092 0.82297 0.24237 0.0
C325 C 0.9939 0.85435 0.20185 0.0
C326 C 0.98209 0.87263 0.1744 0.0
C327 C 0.95693 0.88914 0.18345 0.0
C328 C 0.94553 0.90613 0.15719 0.0
C329 C 0.95941 0.90692 0.12196 0.0
C330 C 0.98483 0.89076 0.11298 0.0
C331 C 0.99625 0.8737 0.13911 0.0
H332 H 0.95054 0.92009 0.10166 0.0
H333 H 0.06307 0.75823 0.36201 0.0
H334 H 0.15365 0.13298 0.75709 0.0
H335 H 0.08969 0.14505 0.7366 0.0
H336 H 0.0694 0.14836 0.85469 0.0
H337 H 0.13284 0.13562 0.87522 0.0
H338 H 0.01977 0.12367 0.81657 0.0
H339 H 0.0667 0.19615 0.79724 0.0
H340 H 0.108 0.22485 0.77512 0.0
H341 H 0.07233 0.20651 0.65819 0.0
H342 H 0.0312 0.17745 0.67958 0.0
H343 H 0.83221 0.13978 0.74213 0.0
H344 H 0.8918 0.15304 0.77525 0.0
H345 H 0.94387 0.1403 0.67385 0.0
H346 H 0.88468 0.12729 0.64048 0.0
H347 H 0.97353 0.17784 0.71444 0.0
H348 H 0.94137 0.09956 0.73738 0.0
H349 H 0.90045 0.07038 0.75891 0.0
H350 H 0.90972 0.10063 0.87043 0.0
H351 H 0.95031 0.13017 0.84931 0.0
C352 C 0.13574 0.1367 0.77866 0.0
C353 C 0.14796 0.13303 0.81766 0.0
C354 C 0.09928 0.14378 0.76697 0.0
C355 C 0.0748 0.14774 0.79417 0.0
C356 C 0.08777 0.14536 0.83325 0.0
C357 C 0.12396 0.13798 0.84489 0.0
C358 C 0.03459 0.15116 0.78162 0.0
C359 C 0.0096 0.13602 0.7951 0.0
C360 C 0.0213 0.16703 0.75321 0.0
C361 C 0.04595 0.18452 0.74008 0.0
C362 C 0.06784 0.19811 0.76681 0.0
C363 C 0.0912 0.21447 0.75439 0.0
C364 C 0.09282 0.21748 0.71527 0.0
C365 C 0.07103 0.20416 0.68848 0.0
C366 C 0.04763 0.18777 0.70074 0.0
C367 C 0.85617 0.14026 0.72664 0.0
C368 C 0.85398 0.13201 0.68899 0.0
C369 C 0.8901 0.14792 0.74555 0.0
C370 C 0.92217 0.14738 0.72705 0.0
C371 C 0.91937 0.14086 0.68856 0.0
C372 C 0.88559 0.13317 0.6697 0.0
C373 C 0.9595 0.15007 0.74887 0.0
C374 C 0.98382 0.16616 0.73696 0.0
C375 C 0.97236 0.13512 0.77883 0.0
C376 C 0.94844 0.11719 0.79166 0.0
C377 C 0.93447 0.10005 0.76641 0.0
C378 C 0.91137 0.08345 0.77854 0.0
C379 C 0.90239 0.08369 0.81598 0.0
C380 C 0.91662 0.10049 0.84141 0.0
C381 C 0.93967 0.11717 0.82938 0.0
H382 H 0.88447 0.07084 0.82531 0.0
H383 H 0.11092 0.23016 0.70572 0.0
H384 H 0.29475 0.34562 0.03141 0.0
H385 H 0.30323 0.30744 0.00974 0.0
H386 H 0.1852 0.29546 0.00487 0.0
H387 H 0.17641 0.33357 0.02709 0.0
H388 H 0.22587 0.26535 0.04975 0.0
H389 H 0.22689 0.29609 0.92382 0.0
H390 H 0.24713 0.32174 0.8756 0.0
H391 H 0.35903 0.29699 0.90001 0.0
H392 H 0.33957 0.2714 0.9488 0.0
H393 H 0.21729 0.15788 0.96426 0.0
H394 H 0.21168 0.19638 0.98532 0.0
H395 H 0.32963 0.2062 0.98431 0.0
H396 H 0.33543 0.16771 0.96225 0.0
H397 H 0.29093 0.23757 0.94343 0.0
H398 H 0.29056 0.20662 0.06854 0.0
H399 H 0.27123 0.1812 0.11758 0.0
H400 H 0.15949 0.20651 0.09592 0.0
H401 H 0.17801 0.23187 0.04636 0.0
C402 C 0.27039 0.33511 0.02475 0.0
C403 C 0.23496 0.34255 0.03156 0.0
C404 C 0.27532 0.31326 0.0123 0.0
C405 C 0.24487 0.2986 0.00603 0.0
C406 C 0.20908 0.30651 0.00988 0.0
C407 C 0.2041 0.32835 0.02237 0.0
C408 C 0.25093 0.27449 0.99962 0.0
C409 C 0.23954 0.2592 0.02613 0.0
C410 C 0.2701 0.26667 0.96972 0.0
C411 C 0.28182 0.28197 0.94024 0.0
C412 C 0.25588 0.29624 0.91914 0.0
C413 C 0.2672 0.31075 0.89166 0.0
C414 C 0.30436 0.31103 0.88481 0.0
C415 C 0.33026 0.29677 0.90537 0.0
C416 C 0.31909 0.28224 0.93291 0.0
C417 C 0.24227 0.168 0.9694 0.0
C418 C 0.27676 0.15978 0.96113 0.0
C419 C 0.239 0.19004 0.98156 0.0
C420 C 0.27023 0.20417 0.98627 0.0
C421 C 0.30516 0.19557 0.9806 0.0
C422 C 0.30844 0.17353 0.96822 0.0
C423 C 0.2656 0.22837 0.9934 0.0
C424 C 0.27731 0.24369 0.9671 0.0
C425 C 0.24687 0.23625 0.02361 0.0
C426 C 0.23563 0.22103 0.05349 0.0
C427 C 0.26179 0.20665 0.07401 0.0
C428 C 0.25099 0.19227 0.10195 0.0
C429 C 0.21414 0.19221 0.1098 0.0
C430 C 0.18802 0.20656 0.08979 0.0
C431 C 0.19867 0.22097 0.0618 0.0
H432 H 0.20583 0.18106 0.13144 0.0
H433 H 0.31307 0.32228 0.86353 0.0
H434 H 0.7173 0.3397 0.47878 0.0
H435 H 0.71446 0.30101 0.49984 0.0
H436 H 0.83027 0.29207 0.4862 0.0
H437 H 0.83326 0.3308 0.46427 0.0
H438 H 0.78724 0.26172 0.4461 0.0
H439 H 0.80115 0.28891 0.57453 0.0
H440 H 0.7882 0.3128 0.62838 0.0
H441 H 0.67607 0.28792 0.61792 0.0
H442 H 0.68816 0.2641 0.56363 0.0
H443 H 0.79817 0.15134 0.52514 0.0
H444 H 0.80497 0.19021 0.50601 0.0
H445 H 0.6886 0.20192 0.51371 0.0
H446 H 0.68152 0.16304 0.53326 0.0
H447 H 0.73428 0.23067 0.55809 0.0
H448 H 0.72037 0.20423 0.42845 0.0
H449 H 0.73368 0.18036 0.37471 0.0
H450 H 0.8467 0.20387 0.38803 0.0
H451 H 0.83422 0.22765 0.44225 0.0
C452 C 0.74249 0.32972 0.48117 0.0
C453 C 0.77536 0.33822 0.46928 0.0
C454 C 0.74083 0.3076 0.49339 0.0
C455 C 0.77211 0.29366 0.49438 0.0
C456 C 0.80579 0.30258 0.48541 0.0
C457 C 0.80748 0.32475 0.47311 0.0
C458 C 0.76822 0.26931 0.50024 0.0
C459 C 0.77637 0.25486 0.47097 0.0
C460 C 0.7529 0.26054 0.53208 0.0
C461 C 0.7455 0.27485 0.56477 0.0
C462 C 0.77363 0.28867 0.58349 0.0
C463 C 0.76646 0.30217 0.61415 0.0
C464 C 0.73131 0.30191 0.62651 0.0
C465 C 0.70328 0.28811 0.60829 0.0
C466 C 0.71029 0.27458 0.57761 0.0
C467 C 0.77376 0.162 0.52182 0.0
C468 C 0.73941 0.15419 0.53121 0.0
C469 C 0.7777 0.1842 0.5108 0.0
C470 C 0.74734 0.19891 0.50878 0.0
C471 C 0.71238 0.19078 0.51538 0.0
C472 C 0.70835 0.16853 0.52628 0.0
C473 C 0.75308 0.22316 0.50385 0.0
C474 C 0.74529 0.23756 0.53332 0.0
C475 C 0.76883 0.23187 0.47226 0.0
C476 C 0.77644 0.21755 0.43969 0.0
C477 C 0.74816 0.20415 0.42017 0.0
C478 C 0.75554 0.19068 0.38956 0.0
C479 C 0.79104 0.19055 0.37803 0.0
C480 C 0.81922 0.20396 0.39703 0.0
C481 C 0.812 0.21746 0.42768 0.0
H482 H 0.79669 0.18011 0.35432 0.0
H483 H 0.72582 0.31238 0.65025 0.0
H484 H 0.66978 0.82801 0.04367 0.0
H485 H 0.67486 0.78918 0.02324 0.0
H486 H 0.7804 0.80389 0.9844 0.0
H487 H 0.77586 0.84277 0.00511 0.0
H488 H 0.73293 0.77074 0.9386 0.0
H489 H 0.7881 0.7878 0.06789 0.0
H490 H 0.78737 0.80423 0.13206 0.0
H491 H 0.69598 0.76152 0.15087 0.0
H492 H 0.69576 0.74513 0.08644 0.0
H493 H 0.81527 0.66451 0.9518 0.0
H494 H 0.80922 0.70379 0.96943 0.0
H495 H 0.70436 0.68931 0.00997 0.0
H496 H 0.70986 0.64999 0.992 0.0
H497 H 0.75144 0.72239 0.05456 0.0
H498 H 0.69652 0.70507 0.92563 0.0
H499 H 0.69675 0.68881 0.86127 0.0
H500 H 0.78739 0.73192 0.8417 0.0
H501 H 0.78806 0.74819 0.90628 0.0
C502 C 0.69346 0.82323 0.02957 0.0
C503 C 0.72278 0.83831 0.02663 0.0
C504 C 0.69633 0.80103 0.01803 0.0
C505 C 0.72829 0.79375 0.00303 0.0
C506 C 0.75563 0.80929 0.99612 0.0
C507 C 0.75302 0.83145 0.00806 0.0
C508 C 0.73573 0.76961 1.00005 0.0
C509 C 0.73732 0.76018 0.96389 0.0
C510 C 0.7411 0.75594 0.03318 0.0
C511 C 0.74164 0.76542 0.07221 0.0
C512 C 0.76765 0.78204 0.08559 0.0
C513 C 0.76744 0.79133 0.12202 0.0
C514 C 0.74157 0.78397 0.14549 0.0
C515 C 0.71596 0.76724 0.13262 0.0
C516 C 0.716 0.75793 0.09616 0.0
C517 C 0.7915 0.6695 0.96561 0.0
C518 C 0.76275 0.65427 0.97005 0.0
C519 C 0.78804 0.69195 0.97547 0.0
C520 C 0.75607 0.69935 0.99032 0.0
C521 C 0.72912 0.68381 0.99834 0.0
C522 C 0.7323 0.66141 0.98802 0.0
C523 C 0.74862 0.7235 0.99311 0.0
C524 C 0.74706 0.73293 0.02926 0.0
C525 C 0.74328 0.73716 0.95996 0.0
C526 C 0.74262 0.72766 0.92093 0.0
C527 C 0.71671 0.71094 0.90773 0.0
C528 C 0.71663 0.70175 0.8712 0.0
C529 C 0.74214 0.70928 0.84745 0.0
C530 C 0.76769 0.72608 0.86015 0.0
C531 C 0.76791 0.7353 0.89671 0.0
H532 H 0.74205 0.70215 0.81917 0.0
H533 H 0.74143 0.79118 0.17368 0.0
H534 H 0.27666 0.65231 0.5156 0.0
H535 H 0.28233 0.69055 0.49255 0.0
H536 H 0.17096 0.70511 0.51646 0.0
H537 H 0.16471 0.66681 0.53902 0.0
H538 H 0.18996 0.72898 0.45416 0.0
H539 H 0.24033 0.71285 0.585 0.0
H540 H 0.27935 0.69157 0.63521 0.0
H541 H 0.37746 0.71034 0.58614 0.0
H542 H 0.33891 0.7314 0.53519 0.0
H543 H 0.20584 0.84414 0.47899 0.0
H544 H 0.19861 0.80542 0.49913 0.0
H545 H 0.31119 0.791 0.4789 0.0
H546 H 0.31902 0.82983 0.45965 0.0
H547 H 0.29132 0.76698 0.53898 0.0
H548 H 0.24006 0.78277 0.40734 0.0
H549 H 0.20042 0.8042 0.35774 0.0
H550 H 0.10354 0.78679 0.41004 0.0
H551 H 0.14261 0.76527 0.4599 0.0
C552 C 0.25292 0.66342 0.51483 0.0
C553 C 0.2206 0.65675 0.53007 0.0
C554 C 0.25625 0.68525 0.5017 0.0
C555 C 0.22747 0.70071 0.50399 0.0
C556 C 0.19359 0.69341 0.5149 0.0
C557 C 0.19011 0.6715 0.52781 0.0
C558 C 0.23455 0.72489 0.50043 0.0
C559 C 0.21191 0.73734 0.47282 0.0
C560 C 0.26336 0.73567 0.52482 0.0
C561 C 0.2867 0.72353 0.55606 0.0
C562 C 0.27021 0.71234 0.58479 0.0
C563 C 0.29223 0.70031 0.61338 0.0
C564 C 0.33085 0.69956 0.61381 0.0
C565 C 0.34753 0.71091 0.58573 0.0
C566 C 0.32561 0.7229 0.55699 0.0
C567 C 0.22942 0.83289 0.47989 0.0
C568 C 0.26275 0.83987 0.46705 0.0
C569 C 0.22517 0.81078 0.49122 0.0
C570 C 0.25398 0.79529 0.48925 0.0
C571 C 0.28852 0.80271 0.48018 0.0
C572 C 0.29296 0.82492 0.46926 0.0
C573 C 0.24686 0.77107 0.49257 0.0
C574 C 0.26945 0.75862 0.52021 0.0
C575 C 0.21795 0.7603 0.46829 0.0
C576 C 0.19427 0.77252 0.43745 0.0
C577 C 0.21029 0.78351 0.40821 0.0
C578 C 0.18792 0.79565 0.38003 0.0
C579 C 0.14947 0.79682 0.38068 0.0
C580 C 0.13329 0.78578 0.40942 0.0
C581 C 0.15552 0.77356 0.4376 0.0
H582 H 0.13221 0.80629 0.35892 0.0
H583 H 0.34785 0.69022 0.63594 0.0
H584 H 0.83196 0.50714 0.92245 0.0
H585 H 0.8826 0.48455 0.95584 0.0
H586 H 0.93215 0.54403 0.01012 0.0
H587 H 0.8819 0.56668 0.97732 0.0
H588 H 0.98064 0.51885 0.97196 0.0
H589 H 0.89942 0.50824 0.06949 0.0
H590 H 0.84126 0.49836 0.09516 0.0
H591 H 0.8425 0.43325 0.04358 0.0
H592 H 0.90134 0.44254 0.01855 0.0
H593 H 0.12209 0.47442 0.10645 0.0
H594 H 0.06441 0.49303 0.07993 0.0
H595 H 0.02422 0.43143 0.02547 0.0
H596 H 0.08189 0.41258 0.05172 0.0
H597 H 0.96999 0.45597 0.0623 0.0
H598 H 0.0576 0.46654 0.97201 0.0
H599 H 0.11835 0.47699 0.95261 0.0
H600 H 0.10484 0.54427 0.99165 0.0
H601 H 0.04425 0.53411 0.01189 0.0
C602 C 0.85351 0.51538 0.94167 0.0
C603 C 0.85307 0.53873 0.94695 0.0
C604 C 0.8822 0.50244 0.96092 0.0
C605 C 0.91091 0.5127 0.9854 0.0
C606 C 0.91015 0.53587 0.9913 0.0
C607 C 0.88143 0.54877 0.97242 0.0
C608 C 0.94345 0.49965 0.00242 0.0
C609 C 0.9784 0.50525 0.99202 0.0
C610 C 0.94021 0.48164 0.0278 0.0
C611 C 0.90446 0.47616 0.04184 0.0
C612 C 0.88715 0.49187 0.06346 0.0
C613 C 0.85422 0.48633 0.07809 0.0
C614 C 0.83799 0.46528 0.0707 0.0
C615 C 0.85501 0.44959 0.04914 0.0
C616 C 0.8883 0.45491 0.03498 0.0
C617 C 0.10095 0.46476 0.08902 0.0
C618 C 0.10671 0.44209 0.08086 0.0
C619 C 0.06806 0.47542 0.07395 0.0
C620 C 0.0404 0.46357 0.05062 0.0
C621 C 0.04541 0.44078 0.04342 0.0
C622 C 0.07845 0.43013 0.05822 0.0
C623 C 0.00715 0.47538 0.03216 0.0
C624 C 0.97214 0.46949 0.04208 0.0
C625 C 0.01033 0.49326 0.00645 0.0
C626 C 0.04654 0.4995 0.99381 0.0
C627 C 0.06771 0.48352 0.97675 0.0
C628 C 0.1021 0.48939 0.96555 0.0
C629 C 0.1155 0.51126 0.97099 0.0
C630 C 0.09446 0.52732 0.98751 0.0
C631 C 0.06007 0.52152 0.99882 0.0
H632 H 0.14214 0.51577 0.96233 0.0
H633 H 0.81233 0.46111 0.0818 0.0
H634 H 0.08064 0.57986 0.56415 0.0
H635 H 0.02736 0.55794 0.53533 0.0
H636 H 0.08453 0.4969 0.57309 0.0
H637 H 0.13813 0.51865 0.60187 0.0
H638 H 0.05813 0.49645 0.49711 0.0
H639 H 0.01205 0.51332 0.61495 0.0
H640 H 0.99516 0.53711 0.66726 0.0
H641 H 0.91627 0.57263 0.5877 0.0
H642 H 0.93285 0.54914 0.53477 0.0
H643 H 0.9081 0.42128 0.45236 0.0
H644 H 0.95859 0.44379 0.48519 0.0
H645 H 0.90142 0.50421 0.44407 0.0
H646 H 0.85041 0.48178 0.41108 0.0
H647 H 0.92718 0.50525 0.52209 0.0
H648 H 0.97365 0.48749 0.40425 0.0
H649 H 0.99123 0.46327 0.3528 0.0
H650 H 0.07095 0.42925 0.43372 0.0
H651 H 0.05336 0.45299 0.48583 0.0
C652 C 0.08179 0.56177 0.5666 0.0
C653 C 0.11366 0.55095 0.58505 0.0
C654 C 0.05123 0.54931 0.55037 0.0
C655 C 0.05207 0.52586 0.55232 0.0
C656 C 0.08345 0.51502 0.57145 0.0
C657 C 0.11396 0.52747 0.5879 0.0
C658 C 0.02131 0.51265 0.53193 0.0
C659 C 0.02957 0.4981 0.50295 0.0
C660 C 0.98402 0.51538 0.53901 0.0
C661 C 0.97404 0.52962 0.57077 0.0
C662 C 0.99137 0.52635 0.6085 0.0
C663 C 0.9818 0.53975 0.63829 0.0
C664 C 0.95488 0.55648 0.63077 0.0
C665 C 0.93724 0.55972 0.59346 0.0
C666 C 0.94665 0.54633 0.56356 0.0
C667 C 0.90625 0.43935 0.45009 0.0
C668 C 0.87525 0.44976 0.42909 0.0
C669 C 0.93519 0.45216 0.46879 0.0
C670 C 0.93371 0.47559 0.46681 0.0
C671 C 0.90295 0.4861 0.44583 0.0
C672 C 0.874 0.47328 0.42687 0.0
C673 C 0.96411 0.48903 0.48735 0.0
C674 C 0.95577 0.50364 0.51629 0.0
C675 C 0.00144 0.48632 0.48036 0.0
C676 C 0.0118 0.47184 0.44907 0.0
C677 C 0.9946 0.47467 0.41119 0.0
C678 C 0.00464 0.46105 0.38188 0.0
C679 C 0.03209 0.44467 0.39001 0.0
C680 C 0.04961 0.4419 0.42747 0.0
C681 C 0.03961 0.45543 0.45691 0.0
H682 H 0.03985 0.43417 0.36726 0.0
H683 H 0.94757 0.56687 0.65388 0.0
H684 H 0.64573 0.98013 0.10311 0.0
H685 H 0.59802 0.00465 0.06967 0.0
H686 H 0.56212 0.95128 0.9909 0.0
H687 H 0.60956 0.92662 0.02405 0.0
H688 H 0.57085 0.99235 0.95475 0.0
H689 H 0.51171 0.96233 0.05888 0.0
H690 H 0.50602 0.95372 0.12642 0.0
H691 H 0.51167 0.02385 0.15367 0.0
H692 H 0.51788 0.03286 0.08633 0.0
H693 H 0.38801 0.02751 0.87817 0.0
H694 H 0.44419 0.00819 0.90735 0.0
H695 H 0.47095 0.06419 0.98333 0.0
H696 H 0.41499 0.08363 0.9545 0.0
H697 H 0.47009 0.02422 0.02123 0.0
H698 H 0.52484 0.0546 0.91601 0.0
H699 H 0.53122 0.06318 0.84859 0.0
H700 H 0.53353 0.99294 0.82305 0.0
H701 H 0.5271 0.98389 0.89028 0.0
C702 C 0.62763 0.97358 0.07874 0.0
C703 C 0.63134 0.9514 0.06632 0.0
C704 C 0.60042 0.9876 0.05972 0.0
C705 C 0.57664 0.97969 0.02794 0.0
C706 C 0.58036 0.95765 0.01534 0.0
C707 C 0.60732 0.94356 0.03449 0.0
C708 C 0.54754 0.99432 0.00795 0.0
C709 C 0.54857 -0.00081 0.96909 0.0
C710 C 0.51921 0.00364 0.02713 0.0
C711 C 0.51572 -0.00175 0.06767 0.0
C712 C 0.51212 0.9759 0.07935 0.0
C713 C 0.50871 0.97095 0.11757 0.0
C714 C 0.5086 0.98822 0.14434 0.0
C715 C 0.51183 0.01048 0.13292 0.0
C716 C 0.51527 0.01552 0.09472 0.0
C717 C 0.40602 0.0358 0.90084 0.0
C718 C 0.39684 0.057 0.91427 0.0
C719 C 0.43823 0.02482 0.91726 0.0
C720 C 0.46166 0.03484 0.94736 0.0
C721 C 0.45315 0.05623 0.9601 0.0
C722 C 0.42114 0.06727 0.94358 0.0
C723 C 0.49314 0.02217 0.96784 0.0
C724 C 0.49253 0.01761 0.00687 0.0
C725 C 0.52182 0.01317 0.94877 0.0
C726 C 0.52507 0.01856 0.90814 0.0
C727 C 0.52631 0.04097 0.89595 0.0
C728 C 0.53 0.04592 0.85779 0.0
C729 C 0.53245 0.02863 0.83152 0.0
C730 C 0.53148 0.00632 0.8434 0.0
C731 C 0.52791 0.00127 0.88156 0.0
H732 H 0.53536 0.03251 0.80201 0.0
H733 H 0.50593 0.98435 0.17392 0.0
H734 H 0.38282 0.92837 0.48092 0.0
H735 H 0.43651 0.94985 0.50969 0.0
H736 H 0.41612 -0.00072 0.41997 0.0
H737 H 0.36201 0.9779 0.39088 0.0
H738 H 0.48966 0.98407 0.43194 0.0
H739 H 0.39948 0.01495 0.50628 0.0
H740 H 0.34874 0.01401 0.54675 0.0
H741 H 0.41684 0.97469 0.63073 0.0
H742 H 0.46818 0.97561 0.59088 0.0
H743 H 0.61402 0.06702 0.5169 0.0
H744 H 0.55928 0.04625 0.48864 0.0
H745 H 0.57895 0.9965 0.57792 0.0
H746 H 0.63396 0.0172 0.6066 0.0
H747 H 0.5057 0.01192 0.56593 0.0
H748 H 0.59783 0.98353 0.49257 0.0
H749 H 0.64876 0.98597 0.45253 0.0
H750 H 0.57658 0.02053 0.36532 0.0
H751 H 0.52531 0.01863 0.40513 0.0
C752 C 0.38956 0.94388 0.46738 0.0
C753 C 0.36829 0.9514 0.43352 0.0
C754 C 0.42012 0.95617 0.48398 0.0
C755 C 0.43005 0.97613 0.46695 0.0
C756 C 0.40873 0.98388 0.43344 0.0
C757 C 0.37785 0.97169 0.41698 0.0
C758 C 0.46383 0.98825 0.48332 0.0
C759 C 0.49304 0.99052 0.46101 0.0
C760 C 0.46836 0.99599 0.52155 0.0
C761 C 0.43754 0.99522 0.54549 0.0
C762 C 0.40356 0.00602 0.5333 0.0
C763 C 0.37479 0.0056 0.55622 0.0
C764 C 0.37954 0.99427 0.59127 0.0
C765 C 0.4132 0.98347 0.60359 0.0
C766 C 0.44223 0.98404 0.58094 0.0
C767 C 0.60685 0.05161 0.53051 0.0
C768 C 0.62827 0.04375 0.56404 0.0
C769 C 0.57567 0.03974 0.5142 0.0
C770 C 0.56536 0.01984 0.53114 0.0
C771 C 0.58665 0.01186 0.5645 0.0
C772 C 0.61807 0.02364 0.58072 0.0
C773 C 0.53157 0.00781 0.51455 0.0
C774 C 0.50237 0.00551 0.53684 0.0
C775 C 0.52708 9e-05 0.47625 0.0
C776 C 0.5578 0.00115 0.45207 0.0
C777 C 0.59288 0.99183 0.46501 0.0
C778 C 0.6218 0.99309 0.44233 0.0
C779 C 0.61594 0.00347 0.40648 0.0
C780 C 0.58109 0.01253 0.39315 0.0
C781 C 0.55207 0.01136 0.41576 0.0
H782 H 0.63841 0.00447 0.38903 0.0
H783 H 0.35711 0.99383 0.60883 0.0
H784 H 0.10754 0.34286 0.13487 0.0
H785 H 0.04932 0.33344 0.15886 0.0
H786 H 0.09864 0.34907 0.27388 0.0
H787 H 0.1573 0.35887 0.25003 0.0
H788 H 0.04272 0.31164 0.26528 0.0
H789 H 0.06054 0.38926 0.23053 0.0
H790 H 0.07502 0.41977 0.18755 0.0
H791 H 0.98507 0.39884 0.1035 0.0
H792 H 0.97053 0.36787 0.14573 0.0
H793 H 0.90119 0.35649 0.36074 0.0
H794 H 0.95525 0.34515 0.33141 0.0
H795 H 0.89019 0.34726 0.21973 0.0
H796 H 0.83561 0.35931 0.24904 0.0
H797 H 0.95115 0.37085 0.22011 0.0
H798 H 0.92621 0.29713 0.2599 0.0
H799 H 0.9109 0.26725 0.30364 0.0
H800 H 0.01217 0.28036 0.37802 0.0
H801 H 0.02787 0.31056 0.33504 0.0
C802 C 0.10647 0.34372 0.16546 0.0
C803 C 0.1368 0.35208 0.19049 0.0
C804 C 0.07316 0.33825 0.17907 0.0
C805 C 0.06963 0.34093 0.21795 0.0
C806 C 0.10096 0.34693 0.24371 0.0
C807 C 0.13443 0.35253 0.23005 0.0
C808 C 0.03216 0.34107 0.23032 0.0
C809 C 0.02263 0.32459 0.25568 0.0
C810 C 0.00577 0.35764 0.21672 0.0
C811 C 0.01478 0.37606 0.19107 0.0
C812 C 0.04416 0.39097 0.20268 0.0
C813 C 0.05232 0.40838 0.1785 0.0
C814 C 0.03101 0.41121 0.14281 0.0
C815 C 0.00159 0.39659 0.13114 0.0
C816 C 0.99339 0.37909 0.15517 0.0
C817 C 0.89803 0.35424 0.32995 0.0
C818 C 0.86409 0.35907 0.30718 0.0
C819 C 0.92902 0.34749 0.31323 0.0
C820 C 0.92679 0.34513 0.27337 0.0
C821 C 0.8925 0.34891 0.25059 0.0
C822 C 0.86133 0.35575 0.26737 0.0
C823 C 0.96136 0.34151 0.25567 0.0
C824 C 0.97064 0.35751 0.22926 0.0
C825 C 0.98734 0.32445 0.26833 0.0
C826 C 0.97811 0.30623 0.29429 0.0
C827 C 0.9451 0.29377 0.28572 0.0
C828 C 0.93637 0.27674 0.31036 0.0
C829 C 0.96052 0.27193 0.34361 0.0
C830 C 0.99349 0.28411 0.35225 0.0
C831 C 0.00235 0.30116 0.32771 0.0
H832 H 0.9537 0.25875 0.36266 0.0
H833 H 0.03713 0.42483 0.12433 0.0
H834 H 0.1521 0.62371 0.75502 0.0
H835 H 0.09225 0.6288 0.77925 0.0
H836 H 0.04842 0.66228 0.6745 0.0
H837 H 0.10796 0.65692 0.64976 0.0
H838 H 0.02148 0.67879 0.7478 0.0
H839 H 0.02835 0.61442 0.66763 0.0
H840 H 0.05837 0.58095 0.64425 0.0
H841 H 0.06224 0.5504 0.75518 0.0
H842 H 0.03265 0.58386 0.77936 0.0
H843 H 0.83001 0.64002 0.76617 0.0
H844 H 0.88666 0.64936 0.7375 0.0
H845 H 0.95417 0.61948 0.83416 0.0
H846 H 0.89866 0.61053 0.86316 0.0
H847 H 0.96473 0.60345 0.75578 0.0
H848 H 0.95613 0.67056 0.83396 0.0
H849 H 0.92423 0.70452 0.85274 0.0
H850 H 0.91964 0.73025 0.73826 0.0
H851 H 0.95104 0.69625 0.71867 0.0
C852 C 0.13024 0.63294 0.73778 0.0
C853 C 0.13448 0.63972 0.7004 0.0
C854 C 0.09604 0.63575 0.75157 0.0
C855 C 0.06597 0.64568 0.72839 0.0
C856 C 0.07136 0.6546 0.69273 0.0
C857 C 0.10533 0.65147 0.67866 0.0
C858 C 0.02794 0.6434 0.73879 0.0
C859 C 0.00878 0.6624 0.74913 0.0
C860 C 0.01128 0.62202 0.73981 0.0
C861 C 0.02874 0.60175 0.72543 0.0
C862 C 0.03595 0.60065 0.68714 0.0
C863 C 0.05284 0.58168 0.67372 0.0
C864 C 0.06244 0.56363 0.69828 0.0
C865 C 0.05493 0.56445 0.73624 0.0
C866 C 0.03806 0.5834 0.7498 0.0
C867 C 0.85697 0.63568 0.78143 0.0
C868 C 0.85975 0.62449 0.81691 0.0
C869 C 0.8892 0.64104 0.76507 0.0
C870 C 0.92439 0.63502 0.78381 0.0
C871 C 0.92719 0.62421 0.81933 0.0
C872 C 0.89532 0.61918 0.83587 0.0
C873 C 0.95867 0.63876 0.7661 0.0
C874 C 0.97715 0.61991 0.75411 0.0
C875 C 0.97416 0.66031 0.76287 0.0
C876 C 0.95545 0.68074 0.77473 0.0
C877 C 0.94794 0.68334 0.81269 0.0
C878 C 0.93005 0.70263 0.82351 0.0
C879 C 0.91978 0.7195 0.79668 0.0
C880 C 0.92752 0.71715 0.75899 0.0
C881 C 0.94538 0.69788 0.74803 0.0
H882 H 0.90594 0.73442 0.80511 0.0
H883 H 0.07546 0.54894 0.68782 0.0
H884 H 0.34743 0.86198 0.25877 0.0
H885 H 0.40645 0.85215 0.23603 0.0
H886 H 0.45911 0.847 0.35285 0.0
H887 H 0.4006 0.85695 0.37577 0.0
H888 H 0.49583 0.87512 0.31243 0.0
H889 H 0.44803 0.80081 0.29625 0.0
H890 H 0.40224 0.7715 0.27425 0.0
H891 H 0.40829 0.78981 0.15721 0.0
H892 H 0.45374 0.81946 0.17851 0.0
H893 H 0.66987 0.85675 0.24821 0.0
H894 H 0.61585 0.84725 0.28045 0.0
H895 H 0.54479 0.85082 0.17233 0.0
H896 H 0.59832 0.85968 0.13994 0.0
H897 H 0.52107 0.81867 0.21569 0.0
H898 H 0.55882 0.89655 0.23187 0.0
H899 H 0.60291 0.92708 0.25231 0.0
H900 H 0.61355 0.90296 0.36818 0.0
H901 H 0.56986 0.87211 0.3483 0.0
C902 C 0.37135 0.85824 0.27961 0.0
C903 C 0.36941 0.86052 0.31905 0.0
C904 C 0.40506 0.85256 0.26658 0.0
C905 C 0.4372 0.84887 0.29279 0.0
C906 C 0.43471 0.84987 0.33216 0.0
C907 C 0.40118 0.85558 0.34517 0.0
C908 C 0.47415 0.84656 0.27931 0.0
C909 C 0.50163 0.86243 0.29195 0.0
C910 C 0.48142 0.83032 0.25198 0.0
C911 C 0.45412 0.81248 0.23902 0.0
C912 C 0.43939 0.79871 0.26583 0.0
C913 C 0.41353 0.78201 0.25348 0.0
C914 C 0.40231 0.77882 0.21436 0.0
C915 C 0.41699 0.7923 0.18751 0.0
C916 C 0.44285 0.80904 0.1997 0.0
C917 C 0.64288 0.85501 0.23122 0.0
C918 C 0.63833 0.85937 0.19161 0.0
C919 C 0.61202 0.84966 0.24969 0.0
C920 C 0.57619 0.84877 0.22887 0.0
C921 C 0.57211 0.85149 0.18901 0.0
C922 C 0.60281 0.85673 0.17056 0.0
C923 C 0.5424 0.84739 0.2485 0.0
C924 C 0.51547 0.83099 0.23686 0.0
C925 C 0.53538 0.86327 0.27656 0.0
C926 C 0.56149 0.88187 0.28853 0.0
C927 C 0.57078 0.89767 0.26165 0.0
C928 C 0.59566 0.91504 0.27314 0.0
C929 C 0.61113 0.9169 0.31149 0.0
C930 C 0.60163 0.90145 0.33847 0.0
C931 C 0.57682 0.88403 0.32711 0.0
H932 H 0.63042 0.93033 0.32034 0.0
H933 H 0.38228 0.76588 0.20486 0.0
H934 H 0.59746 0.13149 0.62568 0.0
H935 H 0.54172 0.14334 0.6516 0.0
H936 H 0.60508 0.15108 0.76338 0.0
H937 H 0.66132 0.1385 0.73772 0.0
H938 H 0.54614 0.12663 0.76803 0.0
H939 H 0.56605 0.19692 0.71062 0.0
H940 H 0.57937 0.22307 0.65987 0.0
H941 H 0.47961 0.20216 0.58945 0.0
H942 H 0.46594 0.17564 0.63953 0.0
H943 H 0.38961 0.15882 0.84737 0.0
H944 H 0.44649 0.16765 0.82024 0.0
H945 H 0.39723 0.14247 0.71048 0.0
H946 H 0.33988 0.13343 0.73754 0.0
H947 H 0.45098 0.18051 0.70918 0.0
H948 H 0.43803 0.10628 0.76328 0.0
H949 H 0.42449 0.08039 0.81438 0.0
H950 H 0.51278 0.10967 0.89165 0.0
H951 H 0.52641 0.13604 0.84116 0.0
C952 C 0.59986 0.13602 0.65569 0.0
C953 C 0.63389 0.13384 0.67971 0.0
C954 C 0.56787 0.14302 0.67041 0.0
C955 C 0.56921 0.14834 0.70936 0.0
C956 C 0.60344 0.14711 0.73317 0.0
C957 C 0.63556 0.13995 0.71847 0.0
C958 C 0.5341 0.15265 0.72568 0.0
C959 C 0.52581 0.13883 0.75572 0.0
C960 C 0.50707 0.16817 0.70901 0.0
C961 C 0.51509 0.18417 0.6788 0.0
C962 C 0.54708 0.19777 0.68421 0.0
C963 C 0.55467 0.21269 0.65557 0.0
C964 C 0.53039 0.21425 0.62143 0.0
C965 C 0.4984 0.20093 0.6159 0.0
C966 C 0.49068 0.18598 0.64444 0.0
C967 C 0.39037 0.15581 0.81712 0.0
C968 C 0.36064 0.14499 0.79471 0.0
C969 C 0.42286 0.16094 0.80169 0.0
C970 C 0.42615 0.15531 0.76366 0.0
C971 C 0.39508 0.14688 0.73997 0.0
C972 C 0.36237 0.14173 0.75544 0.0
C973 C 0.46343 0.15443 0.75104 0.0
C974 C 0.47185 0.16871 0.72175 0.0
C975 C 0.49075 0.13938 0.76837 0.0
C976 C 0.48291 0.12333 0.7986 0.0
C977 C 0.45431 0.10735 0.79128 0.0
C978 C 0.44664 0.09258 0.82011 0.0
C979 C 0.46761 0.09348 0.85629 0.0
C980 C 0.49643 0.10909 0.86366 0.0
C981 C 0.50416 0.12393 0.83494 0.0
H982 H 0.46177 0.08197 0.87851 0.0
H983 H 0.53632 0.2258 0.59929 0.0
H984 H 0.23143 0.48383 0.05115 0.0
H985 H 0.23775 0.50512 0.99325 0.0
H986 H 0.3355 0.46679 0.9769 0.0
H987 H 0.3283 0.44467 0.03402 0.0
H988 H 0.28326 0.53123 0.96454 0.0
H989 H 0.3369 0.45636 0.88307 0.0
H990 H 0.33578 0.41501 0.88442 0.0
H991 H 0.23409 0.41642 0.93511 0.0
H992 H 0.23437 0.45774 0.93358 0.0
H993 H 0.30688 0.57425 0.78228 0.0
H994 H 0.31978 0.55498 0.84395 0.0
H995 H 0.23442 0.50635 0.80657 0.0
H996 H 0.22336 0.52474 0.74409 0.0
H997 H 0.28546 0.48578 0.84685 0.0
H998 H 0.22107 0.55467 0.86631 0.0
H999 H 0.21156 0.5956 0.86358 0.0
H1000 H 0.31589 0.60543 0.93475 0.0
H1001 H 0.32615 0.56455 0.93759 0.0
C1002 C 0.25474 0.4802 0.03571 0.0
C1003 C 0.2791 0.46235 0.04692 0.0
C1004 C 0.25834 0.49242 0.00253 0.0
C1005 C 0.2866 0.48724 0.98013 0.0
C1006 C 0.31288 0.47071 0.99312 0.0
C1007 C 0.30888 0.45817 0.02592 0.0
C1008 C 0.28651 0.49788 0.94186 0.0
C1009 C 0.28401 0.5213 0.93885 0.0
C1010 C 0.28666 0.48496 0.9081 0.0
C1011 C 0.28594 0.46012 0.90863 0.0
C1012 C 0.31426 0.44782 0.89439 0.0
C1013 C 0.31377 0.4244 0.8952 0.0
C1014 C 0.28496 0.4131 0.90998 0.0
C1015 C 0.25647 0.42519 0.9238 0.0
C1016 C 0.25679 0.44861 0.92299 0.0
C1017 C 0.29124 0.55928 0.78719 0.0
C1018 C 0.26397 0.55103 0.75859 0.0
C1019 C 0.29842 0.54836 0.82253 0.0
C1020 C 0.27743 0.5295 0.83047 0.0
C1021 C 0.25102 0.52086 0.80133 0.0
C1022 C 0.24463 0.53139 0.76561 0.0
C1023 C 0.28176 0.51917 0.86937 0.0
C1024 C 0.28518 0.49579 0.87254 0.0
C1025 C 0.28087 0.53206 0.90309 0.0
C1026 C 0.27453 0.5566 0.90186 0.0
C1027 C 0.24204 0.56558 0.88124 0.0
C1028 C 0.23651 0.58876 0.87969 0.0
C1029 C 0.26315 0.60311 0.8989 0.0
C1030 C 0.29531 0.5943 0.91984 0.0
C1031 C 0.30097 0.57113 0.92148 0.0
H1032 H 0.25884 0.62105 0.89763 0.0
H1033 H 0.28467 0.39497 0.91063 0.0
H1034 H 0.68569 0.42549 0.49456 0.0
H1035 H 0.68245 0.44668 0.55309 0.0
H1036 H 0.72096 0.50583 0.49962 0.0
H1037 H 0.72532 0.48453 0.44111 0.0
H1038 H 0.762 0.49873 0.56477 0.0
H1039 H 0.63106 0.50137 0.52545 0.0
H1040 H 0.56854 0.48659 0.50263 0.0
H1041 H 0.57216 0.44568 0.60343 0.0
H1042 H 0.63496 0.45997 0.62663 0.0
H1043 H 0.73981 0.57301 0.71654 0.0
H1044 H 0.73136 0.55357 0.65526 0.0
H1045 H 0.71076 0.49177 0.71241 0.0
H1046 H 0.71938 0.51117 0.77448 0.0
H1047 H 0.65959 0.50064 0.64571 0.0
H1048 H 0.79185 0.49885 0.68394 0.0
H1049 H 0.85416 0.51437 0.70534 0.0
H1050 H 0.84709 0.55524 0.60424 0.0
H1051 H 0.78438 0.54027 0.58254 0.0
C1052 C 0.69263 0.44314 0.4948 0.0
C1053 C 0.70611 0.45323 0.46313 0.0
C1054 C 0.69064 0.45529 0.5284 0.0
C1055 C 0.70149 0.47788 0.53088 0.0
C1056 C 0.71265 0.48838 0.49848 0.0
C1057 C 0.71492 0.47619 0.46493 0.0
C1058 C 0.70484 0.48982 0.56826 0.0
C1059 C 0.73931 0.49951 0.58208 0.0
C1060 C 0.67566 0.49026 0.59146 0.0
C1061 C 0.63789 0.4816 0.57761 0.0
C1062 C 0.61867 0.48908 0.54261 0.0
C1063 C 0.58314 0.48082 0.52963 0.0
C1064 C 0.56642 0.46516 0.55152 0.0
C1065 C 0.58516 0.45778 0.58648 0.0
C1066 C 0.62071 0.46598 0.59958 0.0
C1067 C 0.7334 0.55528 0.71629 0.0
C1068 C 0.73034 0.54363 0.75056 0.0
C1069 C 0.7287 0.5442 0.68114 0.0
C1070 C 0.72074 0.52123 0.67934 0.0
C1071 C 0.71698 0.50953 0.71328 0.0
C1072 C 0.72204 0.5206 0.74868 0.0
C1073 C 0.71658 0.50957 0.64185 0.0
C1074 C 0.68208 0.49991 0.62815 0.0
C1075 C 0.74562 0.50934 0.61853 0.0
C1076 C 0.78317 0.51861 0.63183 0.0
C1077 C 0.80336 0.51134 0.66648 0.0
C1078 C 0.83881 0.52 0.67862 0.0
C1079 C 0.85453 0.53583 0.65622 0.0
C1080 C 0.83484 0.54302 0.62161 0.0
C1081 C 0.79934 0.53445 0.60937 0.0
H1082 H 0.882 0.54247 0.66564 0.0
H1083 H 0.53891 0.45879 0.54143 0.0
H1084 H 0.74498 0.47996 0.26959 0.0
H1085 H 0.72707 0.49966 0.20889 0.0
H1086 H 0.6916 0.43716 0.15451 0.0
H1087 H 0.70933 0.4174 0.21475 0.0
H1088 H 0.75511 0.49425 0.14201 0.0
H1089 H 0.6177 0.44785 0.08333 0.0
H1090 H 0.56252 0.43124 0.10686 0.0
H1091 H 0.58108 0.47182 0.2082 0.0
H1092 H 0.63598 0.48894 0.18505 0.0
H1093 H 0.68981 0.50724 0.93653 0.0
H1094 H 0.68583 0.48535 0.99484 0.0
H1095 H 0.67176 0.54613 0.05732 0.0
H1096 H 0.67442 0.56808 0.99935 0.0
H1097 H 0.63054 0.48986 0.06457 0.0
H1098 H 0.75856 0.5402 0.12086 0.0
H1099 H 0.80911 0.56123 0.09603 0.0
H1100 H 0.80574 0.51562 0.00136 0.0
H1101 H 0.75622 0.49397 0.0263 0.0
C1102 C 0.73313 0.47044 0.24479 0.0
C1103 C 0.7288 0.44708 0.24705 0.0
C1104 C 0.72296 0.48171 0.21011 0.0
C1105 C 0.70779 0.4699 0.17722 0.0
C1106 C 0.70285 0.44667 0.17958 0.0
C1107 C 0.71328 0.43537 0.21406 0.0
C1108 C 0.69904 0.48161 0.1399 0.0
C1109 C 0.72774 0.49339 0.12537 0.0
C1110 C 0.66348 0.48026 0.11775 0.0
C1111 C 0.63121 0.46952 0.13257 0.0
C1112 C 0.60999 0.45325 0.11062 0.0
C1113 C 0.57868 0.4438 0.12383 0.0
C1114 C 0.5682 0.45055 0.1589 0.0
C1115 C 0.58918 0.46664 0.18099 0.0
C1116 C 0.62049 0.47617 0.16789 0.0
C1117 C 0.68447 0.51589 0.96232 0.0
C1118 C 0.68292 0.53945 0.96334 0.0
C1119 C 0.68213 0.50335 0.99555 0.0
C1120 C 0.67897 0.51422 0.03029 0.0
C1121 C 0.67424 0.5375 0.03069 0.0
C1122 C 0.67579 0.55 0.99742 0.0
C1123 C 0.68663 0.50204 0.06701 0.0
C1124 C 0.65785 0.49039 0.08135 0.0
C1125 C 0.72199 0.50352 0.08917 0.0
C1126 C 0.7532 0.51574 0.07506 0.0
C1127 C 0.76879 0.53462 0.09486 0.0
C1128 C 0.79731 0.54663 0.08078 0.0
C1129 C 0.81044 0.53989 0.04694 0.0
C1130 C 0.79533 0.521 0.02731 0.0
C1131 C 0.76708 0.50882 0.04146 0.0
H1132 H 0.83247 0.54923 0.03607 0.0
H1133 H 0.54399 0.44319 0.1691 0.0
H1134 H 0.26 0.47978 0.23524 0.0
H1135 H 0.27132 0.49929 0.29707 0.0
H1136 H 0.24628 0.43868 0.35534 0.0
H1137 H 0.23552 0.41901 0.29407 0.0
H1138 H 0.20983 0.47824 0.37842 0.0
H1139 H 0.33196 0.4515 0.35933 0.0
H1140 H 0.38567 0.44721 0.32343 0.0
H1141 H 0.40036 0.51859 0.32285 0.0
H1142 H 0.34634 0.52333 0.35829 0.0
H1143 H 0.26294 0.51143 0.56769 0.0
H1144 H 0.26354 0.4893 0.50944 0.0
H1145 H 0.30679 0.54602 0.45334 0.0
H1146 H 0.30718 0.56811 0.51164 0.0
H1147 H 0.3345 0.50819 0.42874 0.0
H1148 H 0.21414 0.53614 0.4459 0.0
H1149 H 0.15993 0.54231 0.4804 0.0
H1150 H 0.13938 0.47148 0.48122 0.0
H1151 H 0.19409 0.46482 0.44751 0.0
C1152 C 0.25685 0.47065 0.26123 0.0
C1153 C 0.24701 0.44784 0.25977 0.0
C1154 C 0.26344 0.48178 0.29647 0.0
C1155 C 0.25977 0.47036 0.33069 0.0
C1156 C 0.24928 0.44775 0.32923 0.0
C1157 C 0.2433 0.43654 0.29419 0.0
C1158 C 0.26685 0.4819 0.36816 0.0
C1159 C 0.23716 0.48454 0.38972 0.0
C1160 C 0.3023 0.4906 0.38226 0.0
C1161 C 0.33485 0.48778 0.36109 0.0
C1162 C 0.34642 0.4663 0.35124 0.0
C1163 C 0.37696 0.46378 0.33104 0.0
C1164 C 0.39635 0.48262 0.32077 0.0
C1165 C 0.38528 0.50401 0.33077 0.0
C1166 C 0.35471 0.50662 0.35093 0.0
C1167 C 0.27351 0.51905 0.54332 0.0
C1168 C 0.28442 0.54169 0.5442 0.0
C1169 C 0.27362 0.5064 0.50994 0.0
C1170 C 0.28418 0.51621 0.4767 0.0
C1171 C 0.29819 0.53816 0.47853 0.0
C1172 C 0.29838 0.55078 0.51198 0.0
C1173 C 0.27752 0.50442 0.43931 0.0
C1174 C 0.30717 0.50181 0.41762 0.0
C1175 C 0.24182 0.49603 0.42478 0.0
C1176 C 0.20855 0.49996 0.44461 0.0
C1177 C 0.19828 0.52186 0.45372 0.0
C1178 C 0.16746 0.52544 0.47314 0.0
C1179 C 0.14635 0.50729 0.48315 0.0
C1180 C 0.15589 0.48552 0.47359 0.0
C1181 C 0.18683 0.48182 0.45435 0.0
H1182 H 0.12258 0.51013 0.49825 0.0
H1183 H 0.42 0.48064 0.30514 0.0
H1184 H 0.81911 0.92627 0.005 0.0
H1185 H 0.82132 0.94849 0.94732 0.0
H1186 H 0.78385 0.00656 0.00443 0.0
H1187 H 0.7807 0.98429 0.06214 0.0
H1188 H 0.74004 -0.001 0.94042 0.0
H1189 H 0.87161 0.00391 0.97464 0.0
H1190 H 0.93539 0.99017 0.9945 0.0
H1191 H 0.92983 0.95047 0.89222 0.0
H1192 H 0.8658 0.96374 0.87197 0.0
H1193 H 0.75079 0.07459 0.78749 0.0
H1194 H 0.76336 0.05518 0.8487 0.0
H1195 H 0.78496 0.99407 0.79015 0.0
H1196 H 0.77222 0.01341 0.72825 0.0
H1197 H 0.83838 0.00396 0.85483 0.0
H1198 H 0.70561 -0.00142 0.82242 0.0
H1199 H 0.64177 0.01251 0.80346 0.0
H1200 H 0.65027 0.05375 0.90411 0.0
H1201 H 0.71441 0.04033 0.9234 0.0
C1202 C 0.8123 0.94391 0.00577 0.0
C1203 C 0.79921 0.95339 0.03814 0.0
C1204 C 0.8137 0.95665 0.97266 0.0
C1205 C 0.80257 0.97919 0.97141 0.0
C1206 C 0.79232 0.98914 0.00465 0.0
C1207 C 0.79071 0.9764 0.03773 0.0
C1208 C 0.79723 0.99147 0.93437 0.0
C1209 C 0.76185 0.00047 0.92211 0.0
C1210 C 0.82524 0.99274 0.90984 0.0
C1211 C 0.86374 0.98468 0.92195 0.0
C1212 C 0.88385 0.9921 0.95653 0.0
C1213 C 0.92009 0.98442 0.96783 0.0
C1214 C 0.93662 0.96941 0.94469 0.0
C1215 C 0.91698 0.96208 0.91014 0.0
C1216 C 0.88072 0.9697 0.89871 0.0
C1217 C 0.75823 0.05702 0.78744 0.0
C1218 C 0.76035 0.04553 0.75286 0.0
C1219 C 0.76534 0.04596 0.82253 0.0
C1220 C 0.77485 0.02319 0.8239 0.0
C1221 C 0.77762 0.01167 0.78961 0.0
C1222 C 0.77015 0.02271 0.75431 0.0
C1223 C 0.78139 0.0115 0.8613 0.0
C1224 C 0.81681 0.00257 0.87344 0.0
C1225 C 0.75349 0.01036 0.88589 0.0
C1226 C 0.71503 0.01865 0.87411 0.0
C1227 C 0.69404 0.01081 0.8403 0.0
C1228 C 0.65776 0.01857 0.82954 0.0
C1229 C 0.64204 0.03407 0.8525 0.0
C1230 C 0.66252 0.04179 0.88632 0.0
C1231 C 0.69884 0.0341 0.89718 0.0
H1232 H 0.61398 0.04007 0.84411 0.0
H1233 H 0.96468 0.96349 0.95348 0.0
H1234 H 0.23259 0.07796 0.70445 0.0
H1235 H 0.21832 0.05733 0.64481 0.0
H1236 H 0.2424 0.99509 0.70525 0.0
H1237 H 0.25744 0.01575 0.7655 0.0
H1238 H 0.2735 0.99601 0.63992 0.0
H1239 H 0.15262 0.01071 0.67482 0.0
H1240 H 0.10192 0.03366 0.69485 0.0
H1241 H 0.09806 0.07277 0.59198 0.0
H1242 H 0.14913 0.05026 0.57157 0.0
H1243 H 0.19006 0.92553 0.49206 0.0
H1244 H 0.19092 0.94699 0.5511 0.0
H1245 H 0.20755 0.00793 0.48989 0.0
H1246 H 0.20807 0.98647 0.4305 0.0
H1247 H 0.154 0.0069 0.55539 0.0
H1248 H 0.27767 0.99209 0.52259 0.0
H1249 H 0.32633 0.96756 0.50266 0.0
H1250 H 0.32416 0.92751 0.60371 0.0
H1251 H 0.27436 0.95135 0.62353 0.0
C1252 C 0.23481 0.05987 0.7053 0.0
C1253 C 0.24609 0.04853 0.73997 0.0
C1254 C 0.22643 0.04808 0.67106 0.0
C1255 C 0.22875 0.02463 0.67056 0.0
C1256 C 0.24027 0.01319 0.70498 0.0
C1257 C 0.24877 0.02502 0.73941 0.0
C1258 C 0.21989 0.01226 0.63386 0.0
C1259 C 0.24715 -0.00183 0.62177 0.0
C1260 C 0.18576 0.01537 0.60971 0.0
C1261 C 0.15495 0.02892 0.62183 0.0
C1262 C 0.14117 0.02432 0.6566 0.0
C1263 C 0.11233 0.03723 0.668 0.0
C1264 C 0.09684 0.0547 0.64475 0.0
C1265 C 0.11011 0.05925 0.60999 0.0
C1266 C 0.13898 0.04641 0.59847 0.0
C1267 C 0.1928 0.94358 0.49071 0.0
C1268 C 0.19936 0.95427 0.45654 0.0
C1269 C 0.19341 0.95578 0.52461 0.0
C1270 C 0.19973 0.97893 0.5248 0.0
C1271 C 0.20271 0.99002 0.49017 0.0
C1272 C 0.20298 0.97775 0.45631 0.0
C1273 C 0.20762 0.9909 0.56173 0.0
C1274 C 0.18024 0.0048 0.57375 0.0
C1275 C 0.24155 0.98755 0.58592 0.0
C1276 C 0.27171 0.97327 0.57417 0.0
C1277 C 0.28697 0.97778 0.54017 0.0
C1278 C 0.31481 0.964 0.5289 0.0
C1279 C 0.3282 0.9459 0.55179 0.0
C1280 C 0.31368 0.9415 0.58594 0.0
C1281 C 0.28555 0.95511 0.59715 0.0
H1282 H 0.34998 0.93536 0.54319 0.0
H1283 H 0.07451 0.06467 0.65363 0.0
H1284 H 0.25838 0.91838 0.20907 0.0
H1285 H 0.2509 0.93784 0.14765 0.0
H1286 H 0.21978 -0.00183 0.20279 0.0
H1287 H 0.22754 0.97882 0.26493 0.0
H1288 H 0.17309 0.98666 0.13205 0.0
H1289 H 0.30248 0.99631 0.18136 0.0
H1290 H 0.36534 0.9839 0.20848 0.0
H1291 H 0.37237 0.94297 0.10938 0.0
H1292 H 0.30926 0.95487 0.08193 0.0
H1293 H 0.19904 0.06565 0.98692 0.0
H1294 H 0.19536 0.04335 0.04417 0.0
H1295 H 0.24843 0.98806 0.99379 0.0
H1296 H 0.25325 0.01058 0.93657 0.0
H1297 H 0.28254 0.99598 0.062 0.0
H1298 H 0.15517 0.98639 0.01086 0.0
H1299 H 0.09197 -0.00238 0.98278 0.0
H1300 H 0.07994 0.03657 0.08297 0.0
H1301 H 0.14329 0.02583 0.11147 0.0
C1302 C 0.24981 0.93577 0.20829 0.0
C1303 C 0.24366 0.94707 0.24202 0.0
C1304 C 0.24563 0.94686 0.1731 0.0
C1305 C 0.23498 0.96944 0.17075 0.0
C1306 C 0.22803 0.98072 0.2041 0.0
C1307 C 0.23264 0.96968 0.23955 0.0
C1308 C 0.23199 0.98124 0.13344 0.0
C1309 C 0.19703 0.98901 0.11685 0.0
C1310 C 0.26307 0.98357 0.11322 0.0
C1311 C 0.30096 0.97629 0.12979 0.0
C1312 C 0.31726 0.98448 0.16553 0.0
C1313 C 0.35298 0.97758 0.18092 0.0
C1314 C 0.3728 0.96261 0.16072 0.0
C1315 C 0.35696 0.95453 0.12504 0.0
C1316 C 0.32123 0.96136 0.10954 0.0
C1317 C 0.20931 0.04859 0.98756 0.0
C1318 C 0.22672 0.03999 0.95713 0.0
C1319 C 0.207 0.03579 0.02039 0.0
C1320 C 0.2215 0.01396 0.02336 0.0
C1321 C 0.23716 0.0049 0.99223 0.0
C1322 C 0.23973 0.01777 0.95944 0.0
C1323 C 0.22348 0.00149 0.06018 0.0
C1324 C 0.25839 0.99359 0.07687 0.0
C1325 C 0.19224 -0.00112 0.08025 0.0
C1326 C 0.15415 0.00546 0.06316 0.0
C1327 C 0.13918 0.99751 0.02678 0.0
C1328 C 0.1033 0.00375 0.01081 0.0
C1329 C 0.08198 0.01784 0.03104 0.0
C1330 C 0.09649 0.02568 0.06732 0.0
C1331 C 0.13238 0.01949 0.08341 0.0
H1332 H 0.0542 0.02264 0.01863 0.0
H1333 H 0.40048 0.95731 0.17265 0.0
H1334 H 0.7831 0.00601 0.562 0.0
H1335 H 0.78609 0.98469 0.50293 0.0
H1336 H 0.81592 0.04475 0.44612 0.0
H1337 H 0.81401 0.06609 0.50493 0.0
H1338 H 0.74439 0.01836 0.41523 0.0
H1339 H 0.87789 0.01286 0.45343 0.0
H1340 H 0.93364 0.00288 0.49808 0.0
H1341 H 0.89789 0.93427 0.49739 0.0
H1342 H 0.8416 0.94392 0.45315 0.0
H1343 H 0.76094 0.97823 0.229 0.0
H1344 H 0.77186 -0.00243 0.29072 0.0
H1345 H 0.78275 0.93394 0.34926 0.0
H1346 H 0.7725 0.91451 0.28795 0.0
H1347 H 0.83447 0.96161 0.38082 0.0
H1348 H 0.70333 0.96428 0.34585 0.0
H1349 H 0.64353 0.97169 0.30583 0.0
H1350 H 0.66866 0.04197 0.30559 0.0
H1351 H 0.72896 0.03496 0.34505 0.0
C1352 C 0.79137 0.01456 0.53729 0.0
C1353 C 0.79809 0.03779 0.53818 0.0
C1354 C 0.79299 0.00236 0.50359 0.0
C1355 C 0.80095 0.01325 0.47028 0.0
C1356 C 0.8097 0.03611 0.47164 0.0
C1357 C 0.80877 0.04823 0.5054 0.0
C1358 C 0.7962 0.00145 0.4331 0.0
C1359 C 0.76433 0.0062 0.40731 0.0
C1360 C 0.82148 0.98497 0.42381 0.0
C1361 C 0.85531 0.97917 0.45035 0.0
C1362 C 0.8817 0.99569 0.46313 0.0
C1363 C 0.91346 0.99009 0.48828 0.0
C1364 C 0.91925 0.96797 0.50066 0.0
C1365 C 0.89334 0.9514 0.48783 0.0
C1366 C 0.86152 0.95693 0.46269 0.0
C1367 C 0.76581 0.96835 0.25498 0.0
C1368 C 0.76569 0.9448 0.25343 0.0
C1369 C 0.77189 0.97943 0.29027 0.0
C1370 C 0.77773 0.96719 0.32466 0.0
C1371 C 0.77833 0.94373 0.32313 0.0
C1372 C 0.77232 0.93265 0.28796 0.0
C1373 C 0.78286 0.9788 0.36228 0.0
C1374 C 0.81458 0.97389 0.38841 0.0
C1375 C 0.75691 0.9948 0.37232 0.0
C1376 C 0.72093 -0.00095 0.348 0.0
C1377 C 0.69634 0.98129 0.33688 0.0
C1378 C 0.66231 0.98542 0.31436 0.0
C1379 C 0.65237 0.00727 0.30306 0.0
C1380 C 0.67644 0.02504 0.31428 0.0
C1381 C 0.71056 0.021 0.33671 0.0
H1382 H 0.62596 0.01044 0.28573 0.0
H1383 H 0.94386 0.96366 0.52012 0.0
loop_
_geom_bond_atom_site_label_1
_geom_bond_atom_site_label_2
_geom_bond_distance
_geom_bond_site_symmetry_2
_ccdc_geom_bond_type
O0 Zn1 1.953 . S
O0 C16 1.225 . S
Zn1 O0 1.953 . S
Zn1 O2 1.949 . S
Zn1 O8 1.919 . S
Zn1 O13 1.924 . S
O2 Zn1 1.949 . S
O2 Zn3 1.923 . S
O2 Zn4 1.950 . S
O2 Zn5 1.945 . S
Zn3 O2 1.923 . S
Zn3 O6 1.933 . S
Zn3 O9 1.941 . S
Zn3 O10 1.965 . S
Zn4 O2 1.950 . S
Zn4 O11 1.938 . S
Zn4 O12 1.906 . S
Zn4 O22 1.953 . S
Zn5 O2 1.945 . S
Zn5 O7 1.932 . S
Zn5 O14 1.977 . S
Zn5 O15 1.910 . S
O6 Zn3 1.933 . S
O6 C17 1.226 . S
O7 Zn5 1.932 . S
O7 C17 1.307 . S
O8 Zn1 1.919 . S
O8 C19 1.253 . S
O9 Zn3 1.941 . S
O9 C19 1.283 . S
O10 Zn3 1.965 . S
O10 C18 1.303 . S
O11 Zn4 1.938 . S
O11 C18 1.247 . S
O12 Zn4 1.906 . S
O12 C20 1.304 . S
O13 Zn1 1.924 . S
O13 C21 1.311 . S
O14 Zn5 1.977 . S
O14 C20 1.272 . S
O15 Zn5 1.910 . S
O15 C21 1.231 . S
C16 O0 1.225 . S
C16 O22 1.298 . S
C17 O6 1.226 . S
C17 O7 1.307 . S
C18 O10 1.303 . S
C18 O11 1.247 . S
C19 O8 1.253 . S
C19 O9 1.283 . S
C20 O12 1.304 . S
C20 O14 1.272 . S
C21 O13 1.311 . S
C21 O15 1.231 . S
O22 Zn4 1.953 . S
O22 C16 1.298 . S
O23 Zn24 1.953 . S
O23 C39 1.225 . S
Zn24 O23 1.953 . S
Zn24 O25 1.949 . S
Zn24 O31 1.919 . S
Zn24 O36 1.924 . S
O25 Zn24 1.949 . S
O25 Zn26 1.923 . S
O25 Zn27 1.950 . S
O25 Zn28 1.945 . S
Zn26 O25 1.923 . S
Zn26 O29 1.933 . S
Zn26 O32 1.941 . S
Zn26 O33 1.965 . S
Zn27 O25 1.950 . S
Zn27 O34 1.938 . S
Zn27 O35 1.906 . S
Zn27 O45 1.953 . S
Zn28 O25 1.945 . S
Zn28 O30 1.932 . S
Zn28 O37 1.977 . S
Zn28 O38 1.910 . S
O29 Zn26 1.933 . S
O29 C40 1.226 . S
O30 Zn28 1.932 . S
O30 C40 1.307 . S
O31 Zn24 1.919 . S
O31 C42 1.253 . S
O32 Zn26 1.941 . S
O32 C42 1.283 . S
O33 Zn26 1.965 . S
O33 C41 1.303 . S
O34 Zn27 1.938 . S
O34 C41 1.247 . S
O35 Zn27 1.906 . S
O35 C43 1.304 . S
O36 Zn24 1.924 . S
O36 C44 1.311 . S
O37 Zn28 1.977 . S
O37 C43 1.272 . S
O38 Zn28 1.910 . S
O38 C44 1.231 . S
C39 O23 1.225 . S
C39 O45 1.298 . S
C40 O29 1.226 . S
C40 O30 1.307 . S
C41 O33 1.303 . S
C41 O34 1.247 . S
C42 O31 1.253 . S
C42 O32 1.283 . S
C43 O35 1.304 . S
C43 O37 1.272 . S
C44 O36 1.311 . S
C44 O38 1.231 . S
O45 Zn27 1.953 . S
O45 C39 1.298 . S
O46 Zn47 1.953 . S
O46 C62 1.225 . S
Zn47 O46 1.953 . S
Zn47 O48 1.949 . S
Zn47 O54 1.919 . S
Zn47 O59 1.924 . S
O48 Zn47 1.949 . S
O48 Zn49 1.923 . S
O48 Zn50 1.950 . S
O48 Zn51 1.945 . S
Zn49 O48 1.923 . S
Zn49 O52 1.933 . S
Zn49 O55 1.941 . S
Zn49 O56 1.965 . S
Zn50 O48 1.950 . S
Zn50 O57 1.938 . S
Zn50 O58 1.906 . S
Zn50 O68 1.953 . S
Zn51 O48 1.945 . S
Zn51 O53 1.932 . S
Zn51 O60 1.977 . S
Zn51 O61 1.910 . S
O52 Zn49 1.933 . S
O52 C63 1.226 . S
O53 Zn51 1.932 . S
O53 C63 1.307 . S
O54 Zn47 1.919 . S
O54 C65 1.253 . S
O55 Zn49 1.941 . S
O55 C65 1.283 . S
O56 Zn49 1.965 . S
O56 C64 1.303 . S
O57 Zn50 1.938 . S
O57 C64 1.247 . S
O58 Zn50 1.906 . S
O58 C66 1.304 . S
O59 Zn47 1.924 . S
O59 C67 1.311 . S
O60 Zn51 1.977 . S
O60 C66 1.272 . S
O61 Zn51 1.910 . S
O61 C67 1.231 . S
C62 O46 1.225 . S
C62 O68 1.298 . S
C63 O52 1.226 . S
C63 O53 1.307 . S
C64 O56 1.303 . S
C64 O57 1.247 . S
C65 O54 1.253 . S
C65 O55 1.283 . S
C66 O58 1.304 . S
C66 O60 1.272 . S
C67 O59 1.311 . S
C67 O61 1.231 . S
O68 Zn50 1.953 . S
O68 C62 1.298 . S
O69 Zn70 1.953 . S
O69 C85 1.225 . S
Zn70 O69 1.953 . S
Zn70 O71 1.949 . S
Zn70 O77 1.919 . S
Zn70 O82 1.924 . S
O71 Zn70 1.949 . S
O71 Zn72 1.923 . S
O71 Zn73 1.950 . S
O71 Zn74 1.945 . S
Zn72 O71 1.923 . S
Zn72 O75 1.933 . S
Zn72 O78 1.941 . S
Zn72 O79 1.965 . S
Zn73 O71 1.950 . S
Zn73 O80 1.938 . S
Zn73 O81 1.906 . S
Zn73 O91 1.953 . S
Zn74 O71 1.945 . S
Zn74 O76 1.932 . S
Zn74 O83 1.977 . S
Zn74 O84 1.910 . S
O75 Zn72 1.933 . S
O75 C86 1.226 . S
O76 Zn74 1.932 . S
O76 C86 1.307 . S
O77 Zn70 1.919 . S
O77 C88 1.253 . S
O78 Zn72 1.941 . S
O78 C88 1.283 . S
O79 Zn72 1.965 . S
O79 C87 1.303 . S
O80 Zn73 1.938 . S
O80 C87 1.247 . S
O81 Zn73 1.906 . S
O81 C89 1.304 . S
O82 Zn70 1.924 . S
O82 C90 1.311 . S
O83 Zn74 1.977 . S
O83 C89 1.272 . S
O84 Zn74 1.910 . S
O84 C90 1.231 . S
C85 O69 1.225 . S
C85 O91 1.298 . S
C86 O75 1.226 . S
C86 O76 1.307 . S
C87 O79 1.303 . S
C87 O80 1.247 . S
C88 O77 1.253 . S
C88 O78 1.283 . S
C89 O81 1.304 . S
C89 O83 1.272 . S
C90 O82 1.311 . S
C90 O84 1.231 . S
O91 Zn73 1.953 . S
O91 C85 1.298 . S
O92 Zn93 1.953 . S
O92 C108 1.225 . S
Zn93 O92 1.953 . S
Zn93 O94 1.949 . S
Zn93 O100 1.919 . S
Zn93 O105 1.924 . S
O94 Zn93 1.949 . S
O94 Zn95 1.923 . S
O94 Zn96 1.950 . S
O94 Zn97 1.945 . S
Zn95 O94 1.923 . S
Zn95 O98 1.933 . S
Zn95 O101 1.941 . S
Zn95 O102 1.965 . S
Zn96 O94 1.950 . S
Zn96 O103 1.938 . S
Zn96 O104 1.906 . S
Zn96 O114 1.953 . S
Zn97 O94 1.945 . S
Zn97 O99 1.932 . S
Zn97 O106 1.977 . S
Zn97 O107 1.910 . S
O98 Zn95 1.933 . S
O98 C109 1.226 . S
O99 Zn97 1.932 . S
O99 C109 1.307 . S
O100 Zn93 1.919 . S
O100 C111 1.253 . S
O101 Zn95 1.941 . S
O101 C111 1.283 . S
O102 Zn95 1.965 . S
O102 C110 1.303 . S
O103 Zn96 1.938 . S
O103 C110 1.247 . S
O104 Zn96 1.906 . S
O104 C112 1.304 . S
O105 Zn93 1.924 . S
O105 C113 1.311 . S
O106 Zn97 1.977 . S
O106 C112 1.272 . S
O107 Zn97 1.910 . S
O107 C113 1.231 . S
C108 O92 1.225 . S
C108 O114 1.298 . S
C109 O98 1.226 . S
C109 O99 1.307 . S
C110 O102 1.303 . S
C110 O103 1.247 . S
C111 O100 1.253 . S
C111 O101 1.283 . S
C112 O104 1.304 . S
C112 O106 1.272 . S
C113 O105 1.311 . S
C113 O107 1.231 . S
O114 Zn96 1.953 . S
O114 C108 1.298 . S
O115 Zn116 1.953 . S
O115 C131 1.225 . S
Zn116 O115 1.953 . S
Zn116 O117 1.949 . S
Zn116 O123 1.919 . S
Zn116 O128 1.924 . S
O117 Zn116 1.949 . S
O117 Zn118 1.923 . S
O117 Zn119 1.950 . S
O117 Zn120 1.945 . S
Zn118 O117 1.923 . S
Zn118 O121 1.933 . S
Zn118 O124 1.941 . S
Zn118 O125 1.965 . S
Zn119 O117 1.950 . S
Zn119 O126 1.938 . S
Zn119 O127 1.906 . S
Zn119 O137 1.953 . S
Zn120 O117 1.945 . S
Zn120 O122 1.932 . S
Zn120 O129 1.977 . S
Zn120 O130 1.910 . S
O121 Zn118 1.933 . S
O121 C132 1.226 . S
O122 Zn120 1.932 . S
O122 C132 1.307 . S
O123 Zn116 1.919 . S
O123 C134 1.253 . S
O124 Zn118 1.941 . S
O124 C134 1.283 . S
O125 Zn118 1.965 . S
O125 C133 1.303 . S
O126 Zn119 1.938 . S
O126 C133 1.247 . S
O127 Zn119 1.906 . S
O127 C135 1.304 . S
O128 Zn116 1.924 . S
O128 C136 1.311 . S
O129 Zn120 1.977 . S
O129 C135 1.272 . S
O130 Zn120 1.910 . S
O130 C136 1.231 . S
C131 O115 1.225 . S
C131 O137 1.298 . S
C132 O121 1.226 . S
C132 O122 1.307 . S
C133 O125 1.303 . S
C133 O126 1.247 . S
C134 O123 1.253 . S
C134 O124 1.283 . S
C135 O127 1.304 . S
C135 O129 1.272 . S
C136 O128 1.311 . S
C136 O130 1.231 . S
O137 Zn119 1.953 . S
O137 C131 1.298 . S
O138 Zn139 1.953 . S
O138 C154 1.225 . S
Zn139 O138 1.953 . S
Zn139 O140 1.949 . S
Zn139 O146 1.919 . S
Zn139 O151 1.924 . S
O140 Zn139 1.949 . S
O140 Zn141 1.923 . S
O140 Zn142 1.950 . S
O140 Zn143 1.945 . S
Zn141 O140 1.923 . S
Zn141 O144 1.933 . S
Zn141 O147 1.941 . S
Zn141 O148 1.965 . S
Zn142 O140 1.950 . S
Zn142 O149 1.938 . S
Zn142 O150 1.906 . S
Zn142 O160 1.953 . S
Zn143 O140 1.945 . S
Zn143 O145 1.932 . S
Zn143 O152 1.977 . S
Zn143 O153 1.910 . S
O144 Zn141 1.933 . S
O144 C155 1.226 . S
O145 Zn143 1.932 . S
O145 C155 1.307 . S
O146 Zn139 1.919 . S
O146 C157 1.253 . S
O147 Zn141 1.941 . S
O147 C157 1.283 . S
O148 Zn141 1.965 . S
O148 C156 1.303 . S
O149 Zn142 1.938 . S
O149 C156 1.247 . S
O150 Zn142 1.906 . S
O150 C158 1.304 . S
O151 Zn139 1.924 . S
O151 C159 1.311 . S
O152 Zn143 1.977 . S
O152 C158 1.272 . S
O153 Zn143 1.910 . S
O153 C159 1.231 . S
C154 O138 1.225 . S
C154 O160 1.298 . S
C155 O144 1.226 . S
C155 O145 1.307 . S
C156 O148 1.303 . S
C156 O149 1.247 . S
C157 O146 1.253 . S
C157 O147 1.283 . S
C158 O150 1.304 . S
C158 O152 1.272 . S
C159 O151 1.311 . S
C159 O153 1.231 . S
O160 Zn142 1.953 . S
O160 C154 1.298 . S
O161 Zn162 1.953 . S
O161 C177 1.225 . S
Zn162 O161 1.953 . S
Zn162 O163 1.949 . S
Zn162 O169 1.919 . S
Zn162 O174 1.924 . S
O163 Zn162 1.949 . S
O163 Zn164 1.923 . S
O163 Zn165 1.950 . S
O163 Zn166 1.945 . S
Zn164 O163 1.923 . S
Zn164 O167 1.933 . S
Zn164 O170 1.941 . S
Zn164 O171 1.965 . S
Zn165 O163 1.950 . S
Zn165 O172 1.938 . S
Zn165 O173 1.906 . S
Zn165 O183 1.953 . S
Zn166 O163 1.945 . S
Zn166 O168 1.932 . S
Zn166 O175 1.977 . S
Zn166 O176 1.910 . S
O167 Zn164 1.933 . S
O167 C178 1.226 . S
O168 Zn166 1.932 . S
O168 C178 1.307 . S
O169 Zn162 1.919 . S
O169 C180 1.253 . S
O170 Zn164 1.941 . S
O170 C180 1.283 . S
O171 Zn164 1.965 . S
O171 C179 1.303 . S
O172 Zn165 1.938 . S
O172 C179 1.247 . S
O173 Zn165 1.906 . S
O173 C181 1.304 . S
O174 Zn162 1.924 . S
O174 C182 1.311 . S
O175 Zn166 1.977 . S
O175 C181 1.272 . S
O176 Zn166 1.910 . S
O176 C182 1.231 . S
C177 O161 1.225 . S
C177 O183 1.298 . S
C178 O167 1.226 . S
C178 O168 1.307 . S
C179 O171 1.303 . S
C179 O172 1.247 . S
C180 O169 1.253 . S
C180 O170 1.283 . S
C181 O173 1.304 . S
C181 O175 1.272 . S
C182 O174 1.311 . S
C182 O176 1.231 . S
O183 Zn165 1.953 . S
O183 C177 1.298 . S
H184 C202 0.951 . S
H185 C204 0.951 . S
H186 C206 0.950 . S
H187 C207 0.950 . S
H188 C209 0.950 . S
H189 C212 0.950 . S
H190 C213 0.950 . S
H191 C215 0.950 . S
H192 C216 0.950 . S
H193 C217 0.951 . S
H194 C219 0.951 . S
H195 C221 0.950 . S
H196 C222 0.950 . S
H197 C224 0.950 . S
H198 C227 0.950 . S
H199 C228 0.950 . S
H200 C230 0.950 . S
H201 C231 0.950 . S
C202 H184 0.951 . S
C202 C203 1.366 . S
C202 C204 1.388 . S
C203 C202 1.366 . S
C203 C207 1.385 . S
C204 H185 0.951 . S
C204 C202 1.388 . S
C204 C205 1.366 . S
C205 C204 1.366 . S
C205 C206 1.414 . S
C205 C208 1.499 . S
C206 H186 0.950 . S
C206 C205 1.414 . S
C206 C207 1.374 . S
C207 H187 0.950 . S
C207 C203 1.385 . S
C207 C206 1.374 . S
C208 C205 1.499 . S
C208 C209 1.373 . S
C208 C210 1.389 . S
C209 H188 0.950 . S
C209 C208 1.373 . S
C209 C225 1.377 . S
C210 C208 1.389 . S
C210 C211 1.524 . S
C210 C224 1.377 . S
C211 C210 1.524 . S
C211 C212 1.397 . S
C211 C216 1.363 . S
C212 H189 0.950 . S
C212 C211 1.397 . S
C212 C213 1.334 . S
C213 H190 0.950 . S
C213 C212 1.334 . S
C213 C214 1.287 . S
C214 C213 1.287 . S
C214 C215 1.524 . S
C214 H233 0.913 . S
C215 H191 0.950 . S
C215 C214 1.524 . S
C215 C216 1.415 . S
C216 H192 0.950 . S
C216 C211 1.363 . S
C216 C215 1.415 . S
C217 H193 0.951 . S
C217 C218 1.366 . S
C217 C219 1.388 . S
C218 C217 1.366 . S
C218 C222 1.385 . S
C219 H194 0.951 . S
C219 C217 1.388 . S
C219 C220 1.366 . S
C220 C219 1.366 . S
C220 C221 1.414 . S
C220 C223 1.499 . S
C221 H195 0.950 . S
C221 C220 1.414 . S
C221 C222 1.374 . S
C222 H196 0.950 . S
C222 C218 1.385 . S
C222 C221 1.374 . S
C223 C220 1.499 . S
C223 C224 1.373 . S
C223 C225 1.389 . S
C224 H197 0.950 . S
C224 C210 1.377 . S
C224 C223 1.373 . S
C225 C209 1.377 . S
C225 C223 1.389 . S
C225 C226 1.524 . S
C226 C225 1.524 . S
C226 C227 1.397 . S
C226 C231 1.363 . S
C227 H198 0.950 . S
C227 C226 1.397 . S
C227 C228 1.334 . S
C228 H199 0.950 . S
C228 C227 1.334 . S
C228 C229 1.287 . S
C229 C228 1.287 . S
C229 C230 1.524 . S
C229 H232 0.999 . S
C230 H200 0.950 . S
C230 C229 1.524 . S
C230 C231 1.415 . S
C231 H201 0.950 . S
C231 C226 1.363 . S
C231 C230 1.415 . S
H232 C229 0.999 . S
H233 C214 0.913 . S
H234 C252 0.951 . S
H235 C254 0.951 . S
H236 C256 0.950 . S
H237 C257 0.950 . S
H238 C259 0.950 . S
H239 C262 0.950 . S
H240 C263 0.950 . S
H241 C265 0.950 . S
H242 C266 0.950 . S
H243 C267 0.951 . S
H244 C269 0.951 . S
H245 C271 0.950 . S
H246 C272 0.950 . S
H247 C274 0.950 . S
H248 C277 0.950 . S
H249 C278 0.950 . S
H250 C280 0.950 . S
H251 C281 0.950 . S
C252 H234 0.951 . S
C252 C253 1.366 . S
C252 C254 1.388 . S
C253 C252 1.366 . S
C253 C257 1.385 . S
C254 H235 0.951 . S
C254 C252 1.388 . S
C254 C255 1.366 . S
C255 C254 1.366 . S
C255 C256 1.414 . S
C255 C258 1.499 . S
C256 H236 0.950 . S
C256 C255 1.414 . S
C256 C257 1.374 . S
C257 H237 0.950 . S
C257 C253 1.385 . S
C257 C256 1.374 . S
C258 C255 1.499 . S
C258 C259 1.373 . S
C258 C260 1.389 . S
C259 H238 0.950 . S
C259 C258 1.373 . S
C259 C275 1.377 . S
C260 C258 1.389 . S
C260 C261 1.524 . S
C260 C274 1.377 . S
C261 C260 1.524 . S
C261 C262 1.397 . S
C261 C266 1.363 . S
C262 H239 0.950 . S
C262 C261 1.397 . S
C262 C263 1.334 . S
C263 H240 0.950 . S
C263 C262 1.334 . S
C263 C264 1.287 . S
C264 C263 1.287 . S
C264 C265 1.524 . S
C264 H283 0.913 . S
C265 H241 0.950 . S
C265 C264 1.524 . S
C265 C266 1.415 . S
C266 H242 0.950 . S
C266 C261 1.363 . S
C266 C265 1.415 . S
C267 H243 0.951 . S
C267 C268 1.366 . S
C267 C269 1.388 . S
C268 C267 1.366 . S
C268 C272 1.385 . S
C269 H244 0.951 . S
C269 C267 1.388 . S
C269 C270 1.366 . S
C270 C269 1.366 . S
C270 C271 1.414 . S
C270 C273 1.499 . S
C271 H245 0.950 . S
C271 C270 1.414 . S
C271 C272 1.374 . S
C272 H246 0.950 . S
C272 C268 1.385 . S
C272 C271 1.374 . S
C273 C270 1.499 . S
C273 C274 1.373 . S
C273 C275 1.389 . S
C274 H247 0.950 . S
C274 C260 1.377 . S
C274 C273 1.373 . S
C275 C259 1.377 . S
C275 C273 1.389 . S
C275 C276 1.524 . S
C276 C275 1.524 . S
C276 C277 1.397 . S
C276 C281 1.363 . S
C277 H248 0.950 . S
C277 C276 1.397 . S
C277 C278 1.334 . S
C278 H249 0.950 . S
C278 C277 1.334 . S
C278 C279 1.287 . S
C279 C278 1.287 . S
C279 C280 1.524 . S
C279 H282 0.999 . S
C280 H250 0.950 . S
C280 C279 1.524 . S
C280 C281 1.415 . S
C281 H251 0.950 . S
C281 C276 1.363 . S
C281 C280 1.415 . S
H282 C279 0.999 . S
H283 C264 0.913 . S
H284 C302 0.951 . S
H285 C304 0.951 . S
H286 C306 0.950 . S
H287 C307 0.950 . S
H288 C309 0.950 . S
H289 C312 0.950 . S
H290 C313 0.950 . S
H291 C315 0.950 . S
H292 C316 0.950 1_655 S
H293 C317 0.951 . S
H294 C319 0.951 . S
H295 C321 0.950 . S
H296 C322 0.950 . S
H297 C324 0.950 . S
H298 C327 0.950 . S
H299 C328 0.950 . S
H300 C330 0.950 . S
H301 C331 0.950 1_455 S
C302 H284 0.951 . S
C302 C303 1.366 . S
C302 C304 1.388 . S
C303 C302 1.366 . S
C303 C307 1.385 . S
C304 H285 0.951 . S
C304 C302 1.388 . S
C304 C305 1.366 . S
C305 C304 1.366 . S
C305 C306 1.414 . S
C305 C308 1.499 . S
C306 H286 0.950 . S
C306 C305 1.414 . S
C306 C307 1.374 . S
C307 H287 0.950 . S
C307 C303 1.385 . S
C307 C306 1.374 . S
C308 C305 1.499 . S
C308 C309 1.373 . S
C308 C310 1.389 . S
C309 H288 0.950 . S
C309 C308 1.373 . S
C309 C325 1.377 1_455 S
C310 C308 1.389 . S
C310 C311 1.524 . S
C310 C324 1.377 1_455 S
C311 C310 1.524 . S
C311 C312 1.397 . S
C311 C316 1.363 . S
C312 H289 0.950 . S
C312 C311 1.397 . S
C312 C313 1.334 . S
C313 H290 0.950 . S
C313 C312 1.334 . S
C313 C314 1.287 . S
C314 C313 1.287 . S
C314 C315 1.524 . S
C314 H333 0.913 . S
C315 H291 0.950 . S
C315 C314 1.524 . S
C315 C316 1.415 . S
C316 H292 0.950 1_455 S
C316 C311 1.363 . S
C316 C315 1.415 . S
C317 H293 0.951 . S
C317 C318 1.366 . S
C317 C319 1.388 . S
C318 C317 1.366 . S
C318 C322 1.385 . S
C319 H294 0.951 . S
C319 C317 1.388 . S
C319 C320 1.366 . S
C320 C319 1.366 . S
C320 C321 1.414 . S
C320 C323 1.499 . S
C321 H295 0.950 . S
C321 C320 1.414 . S
C321 C322 1.374 . S
C322 H296 0.950 . S
C322 C318 1.385 . S
C322 C321 1.374 . S
C323 C320 1.499 . S
C323 C324 1.373 . S
C323 C325 1.389 . S
C324 H297 0.950 . S
C324 C310 1.377 1_655 S
C324 C323 1.373 . S
C325 C309 1.377 1_655 S
C325 C323 1.389 . S
C325 C326 1.524 . S
C326 C325 1.524 . S
C326 C327 1.397 . S
C326 C331 1.363 . S
C327 H298 0.950 . S
C327 C326 1.397 . S
C327 C328 1.334 . S
C328 H299 0.950 . S
C328 C327 1.334 . S
C328 C329 1.287 . S
C329 C328 1.287 . S
C329 C330 1.524 . S
C329 H332 0.999 . S
C330 H300 0.950 . S
C330 C329 1.524 . S
C330 C331 1.415 . S
C331 H301 0.950 1_655 S
C331 C326 1.363 . S
C331 C330 1.415 . S
H332 C329 0.999 . S
H333 C314 0.913 . S
H334 C352 0.951 . S
H335 C354 0.951 . S
H336 C356 0.950 . S
H337 C357 0.950 . S
H338 C359 0.950 . S
H339 C362 0.950 . S
H340 C363 0.950 . S
H341 C365 0.950 . S
H342 C366 0.950 . S
H343 C367 0.951 . S
H344 C369 0.951 . S
H345 C371 0.950 . S
H346 C372 0.950 . S
H347 C374 0.950 . S
H348 C377 0.950 . S
H349 C378 0.950 . S
H350 C380 0.950 . S
H351 C381 0.950 . S
C352 H334 0.951 . S
C352 C353 1.366 . S
C352 C354 1.388 . S
C353 C352 1.366 . S
C353 C357 1.385 . S
C354 H335 0.951 . S
C354 C352 1.388 . S
C354 C355 1.366 . S
C355 C354 1.366 . S
C355 C356 1.414 . S
C355 C358 1.499 . S
C356 H336 0.950 . S
C356 C355 1.414 . S
C356 C357 1.374 . S
C357 H337 0.950 . S
C357 C353 1.385 . S
C357 C356 1.374 . S
C358 C355 1.499 . S
C358 C359 1.373 . S
C358 C360 1.389 . S
C359 H338 0.950 . S
C359 C358 1.373 . S
C359 C375 1.377 1_455 S
C360 C358 1.389 . S
C360 C361 1.524 . S
C360 C374 1.377 1_455 S
C361 C360 1.524 . S
C361 C362 1.397 . S
C361 C366 1.363 . S
C362 H339 0.950 . S
C362 C361 1.397 . S
C362 C363 1.334 . S
C363 H340 0.950 . S
C363 C362 1.334 . S
C363 C364 1.287 . S
C364 C363 1.287 . S
C364 C365 1.524 . S
C364 H383 0.913 . S
C365 H341 0.950 . S
C365 C364 1.524 . S
C365 C366 1.415 . S
C366 H342 0.950 . S
C366 C361 1.363 . S
C366 C365 1.415 . S
C367 H343 0.951 . S
C367 C368 1.366 . S
C367 C369 1.388 . S
C368 C367 1.366 . S
C368 C372 1.385 . S
C369 H344 0.951 . S
C369 C367 1.388 . S
C369 C370 1.366 . S
C370 C369 1.366 . S
C370 C371 1.414 . S
C370 C373 1.499 . S
C371 H345 0.950 . S
C371 C370 1.414 . S
C371 C372 1.374 . S
C372 H346 0.950 . S
C372 C368 1.385 . S
C372 C371 1.374 . S
C373 C370 1.499 . S
C373 C374 1.373 . S
C373 C375 1.389 . S
C374 H347 0.950 . S
C374 C360 1.377 1_655 S
C374 C373 1.373 . S
C375 C359 1.377 1_655 S
C375 C373 1.389 . S
C375 C376 1.524 . S
C376 C375 1.524 . S
C376 C377 1.397 . S
C376 C381 1.363 . S
C377 H348 0.950 . S
C377 C376 1.397 . S
C377 C378 1.334 . S
C378 H349 0.950 . S
C378 C377 1.334 . S
C378 C379 1.287 . S
C379 C378 1.287 . S
C379 C380 1.524 . S
C379 H382 0.999 . S
C380 H350 0.950 . S
C380 C379 1.524 . S
C380 C381 1.415 . S
C381 H351 0.950 . S
C381 C376 1.363 . S
C381 C380 1.415 . S
H382 C379 0.999 . S
H383 C364 0.913 . S
H384 C402 0.951 . S
H385 C404 0.951 . S
H386 C406 0.950 1_556 S
H387 C407 0.962 . S
H388 C409 0.950 . S
H389 C412 0.950 1_556 S
H390 C413 0.950 . S
H391 C415 0.950 . S
H392 C416 0.950 . S
H393 C417 0.951 . S
H394 C419 0.951 . S
H395 C421 0.950 1_554 S
H396 C422 0.962 . S
H397 C424 0.950 . S
H398 C427 0.950 1_554 S
H399 C428 0.950 . S
H400 C430 0.950 . S
H401 C431 0.950 . S
C402 H384 0.951 . S
C402 C403 1.366 . S
C402 C404 1.388 . S
C403 C402 1.366 . S
C403 C407 1.385 . S
C404 H385 0.951 . S
C404 C402 1.388 . S
C404 C405 1.366 . S
C405 C404 1.366 . S
C405 C406 1.414 . S
C405 C408 1.499 . S
C406 H386 0.950 1_554 S
C406 C405 1.414 . S
C406 C407 1.374 . S
C407 H387 0.962 . S
C407 C403 1.385 . S
C407 C406 1.374 . S
C408 C405 1.499 . S
C408 C409 1.373 1_554 S
C408 C410 1.389 . S
C409 H388 0.950 . S
C409 C408 1.373 1_556 S
C409 C425 1.377 . S
C410 C408 1.389 . S
C410 C411 1.524 . S
C410 C424 1.377 . S
C411 C410 1.524 . S
C411 C412 1.397 . S
C411 C416 1.363 . S
C412 H389 0.950 1_554 S
C412 C411 1.397 . S
C412 C413 1.334 . S
C413 H390 0.950 . S
C413 C412 1.334 . S
C413 C414 1.287 . S
C414 C413 1.287 . S
C414 C415 1.524 . S
C414 H433 0.913 . S
C415 H391 0.950 . S
C415 C414 1.524 . S
C415 C416 1.415 . S
C416 H392 0.950 . S
C416 C411 1.363 . S
C416 C415 1.415 . S
C417 H393 0.951 . S
C417 C418 1.366 . S
C417 C419 1.388 . S
C418 C417 1.366 . S
C418 C422 1.385 . S
C419 H394 0.951 . S
C419 C417 1.388 . S
C419 C420 1.366 . S
C420 C419 1.366 . S
C420 C421 1.414 . S
C420 C423 1.499 . S
C421 H395 0.950 1_556 S
C421 C420 1.414 . S
C421 C422 1.374 . S
C422 H396 0.962 . S
C422 C418 1.385 . S
C422 C421 1.374 . S
C423 C420 1.499 . S
C423 C424 1.373 1_556 S
C423 C425 1.389 . S
C424 H397 0.950 . S
C424 C410 1.377 . S
C424 C423 1.373 1_554 S
C425 C409 1.377 . S
C425 C423 1.389 . S
C425 C426 1.524 . S
C426 C425 1.524 . S
C426 C427 1.397 . S
C426 C431 1.363 . S
C427 H398 0.950 1_556 S
C427 C426 1.397 . S
C427 C428 1.334 . S
C428 H399 0.950 . S
C428 C427 1.334 . S
C428 C429 1.287 . S
C429 C428 1.287 . S
C429 C430 1.524 . S
C429 H432 0.999 . S
C430 H400 0.950 . S
C430 C429 1.524 . S
C430 C431 1.415 . S
C431 H401 0.950 . S
C431 C426 1.363 . S
C431 C430 1.415 . S
H432 C429 0.999 . S
H433 C414 0.913 . S
H434 C452 0.951 . S
H435 C454 0.951 . S
H436 C456 0.950 . S
H437 C457 0.950 . S
H438 C459 0.950 . S
H439 C462 0.950 . S
H440 C463 0.950 . S
H441 C465 0.950 . S
H442 C466 0.950 . S
H443 C467 0.951 . S
H444 C469 0.951 . S
H445 C471 0.950 . S
H446 C472 0.950 . S
H447 C474 0.950 . S
H448 C477 0.950 . S
H449 C478 0.950 . S
H450 C480 0.950 . S
H451 C481 0.950 . S
C452 H434 0.951 . S
C452 C453 1.366 . S
C452 C454 1.388 . S
C453 C452 1.366 . S
C453 C457 1.385 . S
C454 H435 0.951 . S
C454 C452 1.388 . S
C454 C455 1.366 . S
C455 C454 1.366 . S
C455 C456 1.414 . S
C455 C458 1.499 . S
C456 H436 0.950 . S
C456 C455 1.414 . S
C456 C457 1.374 . S
C457 H437 0.950 . S
C457 C453 1.385 . S
C457 C456 1.374 . S
C458 C455 1.499 . S
C458 C459 1.373 . S
C458 C460 1.389 . S
C459 H438 0.950 . S
C459 C458 1.373 . S
C459 C475 1.377 . S
C460 C458 1.389 . S
C460 C461 1.524 . S
C460 C474 1.377 . S
C461 C460 1.524 . S
C461 C462 1.397 . S
C461 C466 1.363 . S
C462 H439 0.950 . S
C462 C461 1.397 . S
C462 C463 1.334 . S
C463 H440 0.950 . S
C463 C462 1.334 . S
C463 C464 1.287 . S
C464 C463 1.287 . S
C464 C465 1.524 . S
C464 H483 0.913 . S
C465 H441 0.950 . S
C465 C464 1.524 . S
C465 C466 1.415 . S
C466 H442 0.950 . S
C466 C461 1.363 . S
C466 C465 1.415 . S
C467 H443 0.951 . S
C467 C468 1.366 . S
C467 C469 1.388 . S
C468 C467 1.366 . S
C468 C472 1.385 . S
C469 H444 0.951 . S
C469 C467 1.388 . S
C469 C470 1.366 . S
C470 C469 1.366 . S
C470 C471 1.414 . S
C470 C473 1.499 . S
C471 H445 0.950 . S
C471 C470 1.414 . S
C471 C472 1.374 . S
C472 H446 0.950 . S
C472 C468 1.385 . S
C472 C471 1.374 . S
C473 C470 1.499 . S
C473 C474 1.373 . S
C473 C475 1.389 . S
C474 H447 0.950 . S
C474 C460 1.377 . S
C474 C473 1.373 . S
C475 C459 1.377 . S
C475 C473 1.389 . S
C475 C476 1.524 . S
C476 C475 1.524 . S
C476 C477 1.397 . S
C476 C481 1.363 . S
C477 H448 0.950 . S
C477 C476 1.397 . S
C477 C478 1.334 . S
C478 H449 0.950 . S
C478 C477 1.334 . S
C478 C479 1.287 . S
C479 C478 1.287 . S
C479 C480 1.524 . S
C479 H482 0.999 . S
C480 H450 0.950 . S
C480 C479 1.524 . S
C480 C481 1.415 . S
C481 H451 0.950 . S
C481 C476 1.363 . S
C481 C480 1.415 . S
H482 C479 0.999 . S
H483 C464 0.913 . S
H484 C502 0.951 . S
H485 C504 0.951 . S
H486 C506 0.950 1_556 S
H487 C507 0.950 . S
H488 C509 0.950 . S
H489 C512 0.950 . S
H490 C513 0.950 . S
H491 C515 0.950 . S
H492 C516 0.950 . S
H493 C517 0.951 . S
H494 C519 0.951 . S
H495 C521 0.950 1_554 S
H496 C522 0.950 . S
H497 C524 0.950 . S
H498 C527 0.950 . S
H499 C528 0.950 . S
H500 C530 0.950 . S
H501 C531 0.950 . S
C502 H484 0.951 . S
C502 C503 1.366 . S
C502 C504 1.388 . S
C503 C502 1.366 . S
C503 C507 1.385 . S
C504 H485 0.951 . S
C504 C502 1.388 . S
C504 C505 1.366 . S
C505 C504 1.366 . S
C505 C506 1.414 . S
C505 C508 1.499 . S
C506 H486 0.950 1_554 S
C506 C505 1.414 . S
C506 C507 1.374 . S
C507 H487 0.950 . S
C507 C503 1.385 . S
C507 C506 1.374 . S
C508 C505 1.499 . S
C508 C509 1.373 1_554 S
C508 C510 1.389 . S
C509 H488 0.950 . S
C509 C508 1.373 1_556 S
C509 C525 1.377 . S
C510 C508 1.389 . S
C510 C511 1.524 . S
C510 C524 1.377 . S
C511 C510 1.524 . S
C511 C512 1.397 . S
C511 C516 1.363 . S
C512 H489 0.950 . S
C512 C511 1.397 . S
C512 C513 1.334 . S
C513 H490 0.950 . S
C513 C512 1.334 . S
C513 C514 1.287 . S
C514 C513 1.287 . S
C514 C515 1.524 . S
C514 H533 0.913 . S
C515 H491 0.950 . S
C515 C514 1.524 . S
C515 C516 1.415 . S
C516 H492 0.950 . S
C516 C511 1.363 . S
C516 C515 1.415 . S
C517 H493 0.951 . S
C517 C518 1.366 . S
C517 C519 1.388 . S
C518 C517 1.366 . S
C518 C522 1.385 . S
C519 H494 0.951 . S
C519 C517 1.388 . S
C519 C520 1.366 . S
C520 C519 1.366 . S
C520 C521 1.414 . S
C520 C523 1.499 . S
C521 H495 0.950 1_556 S
C521 C520 1.414 . S
C521 C522 1.374 . S
C522 H496 0.950 . S
C522 C518 1.385 . S
C522 C521 1.374 . S
C523 C520 1.499 . S
C523 C524 1.373 1_556 S
C523 C525 1.389 . S
C524 H497 0.950 . S
C524 C510 1.377 . S
C524 C523 1.373 1_554 S
C525 C509 1.377 . S
C525 C523 1.389 . S
C525 C526 1.524 . S
C526 C525 1.524 . S
C526 C527 1.397 . S
C526 C531 1.363 . S
C527 H498 0.950 . S
C527 C526 1.397 . S
C527 C528 1.334 . S
C528 H499 0.950 . S
C528 C527 1.334 . S
C528 C529 1.287 . S
C529 C528 1.287 . S
C529 C530 1.524 . S
C529 H532 0.999 . S
C530 H500 0.950 . S
C530 C529 1.524 . S
C530 C531 1.415 . S
C531 H501 0.950 . S
C531 C526 1.363 . S
C531 C530 1.415 . S
H532 C529 0.999 . S
H533 C514 0.913 . S
H534 C552 0.951 . S
H535 C554 0.951 . S
H536 C556 0.950 . S
H537 C557 0.950 . S
H538 C559 0.950 . S
H539 C562 0.950 . S
H540 C563 0.950 . S
H541 C565 0.950 . S
H542 C566 0.950 . S
H543 C567 0.951 . S
H544 C569 0.951 . S
H545 C571 0.950 . S
H546 C572 0.950 . S
H547 C574 0.950 . S
H548 C577 0.950 . S
H549 C578 0.950 . S
H550 C580 0.950 . S
H551 C581 0.950 . S
C552 H534 0.951 . S
C552 C553 1.366 . S
C552 C554 1.388 . S
C553 C552 1.366 . S
C553 C557 1.385 . S
C554 H535 0.951 . S
C554 C552 1.388 . S
C554 C555 1.366 . S
C555 C554 1.366 . S
C555 C556 1.414 . S
C555 C558 1.499 . S
C556 H536 0.950 . S
C556 C555 1.414 . S
C556 C557 1.374 . S
C557 H537 0.950 . S
C557 C553 1.385 . S
C557 C556 1.374 . S
C558 C555 1.499 . S
C558 C559 1.373 . S
C558 C560 1.389 . S
C559 H538 0.950 . S
C559 C558 1.373 . S
C559 C575 1.377 . S
C560 C558 1.389 . S
C560 C561 1.524 . S
C560 C574 1.377 . S
C561 C560 1.524 . S
C561 C562 1.397 . S
C561 C566 1.363 . S
C562 H539 0.950 . S
C562 C561 1.397 . S
C562 C563 1.334 . S
C563 H540 0.950 . S
C563 C562 1.334 . S
C563 C564 1.287 . S
C564 C563 1.287 . S
C564 C565 1.524 . S
C564 H583 0.913 . S
C565 H541 0.950 . S
C565 C564 1.524 . S
C565 C566 1.415 . S
C566 H542 0.950 . S
C566 C561 1.363 . S
C566 C565 1.415 . S
C567 H543 0.951 . S
C567 C568 1.366 . S
C567 C569 1.388 . S
C568 C567 1.366 . S
C568 C572 1.385 . S
C569 H544 0.951 . S
C569 C567 1.388 . S
C569 C570 1.366 . S
C570 C569 1.366 . S
C570 C571 1.414 . S
C570 C573 1.499 . S
C571 H545 0.950 . S
C571 C570 1.414 . S
C571 C572 1.374 . S
C572 H546 0.950 . S
C572 C568 1.385 . S
C572 C571 1.374 . S
C573 C570 1.499 . S
C573 C574 1.373 . S
C573 C575 1.389 . S
C574 H547 0.950 . S
C574 C560 1.377 . S
C574 C573 1.373 . S
C575 C559 1.377 . S
C575 C573 1.389 . S
C575 C576 1.524 . S
C576 C575 1.524 . S
C576 C577 1.397 . S
C576 C581 1.363 . S
C577 H548 0.950 . S
C577 C576 1.397 . S
C577 C578 1.334 . S
C578 H549 0.950 . S
C578 C577 1.334 . S
C578 C579 1.287 . S
C579 C578 1.287 . S
C579 C580 1.524 . S
C579 H582 0.999 . S
C580 H550 0.950 . S
C580 C579 1.524 . S
C580 C581 1.415 . S
C581 H551 0.950 . S
C581 C576 1.363 . S
C581 C580 1.415 . S
H582 C579 0.999 . S
H583 C564 0.913 . S
H584 C602 0.951 . S
H585 C604 0.951 . S
H586 C606 0.950 . S
H587 C607 0.950 . S
H588 C609 0.950 . S
H589 C612 0.950 . S
H590 C613 0.950 . S
H591 C615 0.950 . S
H592 C616 0.950 . S
H593 C617 0.951 . S
H594 C619 0.951 . S
H595 C621 0.950 . S
H596 C622 0.950 . S
H597 C624 0.950 . S
H598 C627 0.950 . S
H599 C628 0.950 . S
H600 C630 0.950 . S
H601 C631 0.950 . S
C602 H584 0.951 . S
C602 C603 1.366 . S
C602 C604 1.388 . S
C603 C602 1.366 . S
C603 C607 1.385 . S
C604 H585 0.951 . S
C604 C602 1.388 . S
C604 C605 1.366 . S
C605 C604 1.366 . S
C605 C606 1.414 . S
C605 C608 1.499 . S
C606 H586 0.950 . S
C606 C605 1.414 . S
C606 C607 1.374 . S
C607 H587 0.950 . S
C607 C603 1.385 . S
C607 C606 1.374 . S
C608 C605 1.499 . S
C608 C609 1.373 . S
C608 C610 1.389 1_556 S
C609 H588 0.950 . S
C609 C608 1.373 . S
C609 C625 1.377 1_655 S
C610 C608 1.389 1_554 S
C610 C611 1.524 . S
C610 C624 1.377 1_655 S
C611 C610 1.524 . S
C611 C612 1.397 . S
C611 C616 1.363 . S
C612 H589 0.950 . S
C612 C611 1.397 . S
C612 C613 1.334 . S
C613 H590 0.950 . S
C613 C612 1.334 . S
C613 C614 1.287 . S
C614 C613 1.287 . S
C614 C615 1.524 . S
C614 H633 0.913 . S
C615 H591 0.950 . S
C615 C614 1.524 . S
C615 C616 1.415 . S
C616 H592 0.950 . S
C616 C611 1.363 . S
C616 C615 1.415 . S
C617 H593 0.951 . S
C617 C618 1.366 . S
C617 C619 1.388 . S
C618 C617 1.366 . S
C618 C622 1.385 . S
C619 H594 0.951 . S
C619 C617 1.388 . S
C619 C620 1.366 . S
C620 C619 1.366 . S
C620 C621 1.414 . S
C620 C623 1.499 . S
C621 H595 0.950 . S
C621 C620 1.414 . S
C621 C622 1.374 . S
C622 H596 0.950 . S
C622 C618 1.385 . S
C622 C621 1.374 . S
C623 C620 1.499 . S
C623 C624 1.373 . S
C623 C625 1.389 1_554 S
C624 H597 0.950 . S
C624 C610 1.377 1_455 S
C624 C623 1.373 . S
C625 C609 1.377 1_455 S
C625 C623 1.389 1_556 S
C625 C626 1.524 . S
C626 C625 1.524 . S
C626 C627 1.397 . S
C626 C631 1.363 . S
C627 H598 0.950 . S
C627 C626 1.397 . S
C627 C628 1.334 . S
C628 H599 0.950 . S
C628 C627 1.334 . S
C628 C629 1.287 . S
C629 C628 1.287 . S
C629 C630 1.524 . S
C629 H632 0.999 . S
C630 H600 0.950 . S
C630 C629 1.524 . S
C630 C631 1.415 . S
C631 H601 0.950 . S
C631 C626 1.363 . S
C631 C630 1.415 . S
H632 C629 0.999 . S
H633 C614 0.913 . S
H634 C652 0.951 . S
H635 C654 0.951 . S
H636 C656 0.950 . S
H637 C657 0.950 . S
H638 C659 0.950 . S
H639 C662 0.950 . S
H640 C663 0.950 . S
H641 C665 0.950 . S
H642 C666 0.950 . S
H643 C667 0.951 . S
H644 C669 0.951 . S
H645 C671 0.950 . S
H646 C672 0.950 . S
H647 C674 0.950 . S
H648 C677 0.950 . S
H649 C678 0.950 . S
H650 C680 0.950 . S
H651 C681 0.950 . S
C652 H634 0.951 . S
C652 C653 1.366 . S
C652 C654 1.388 . S
C653 C652 1.366 . S
C653 C657 1.385 . S
C654 H635 0.951 . S
C654 C652 1.388 . S
C654 C655 1.366 . S
C655 C654 1.366 . S
C655 C656 1.414 . S
C655 C658 1.499 . S
C656 H636 0.950 . S
C656 C655 1.414 . S
C656 C657 1.374 . S
C657 H637 0.950 . S
C657 C653 1.385 . S
C657 C656 1.374 . S
C658 C655 1.499 . S
C658 C659 1.373 . S
C658 C660 1.389 1_455 S
C659 H638 0.950 . S
C659 C658 1.373 . S
C659 C675 1.377 . S
C660 C658 1.389 1_655 S
C660 C661 1.524 . S
C660 C674 1.377 . S
C661 C660 1.524 . S
C661 C662 1.397 . S
C661 C666 1.363 . S
C662 H639 0.950 . S
C662 C661 1.397 . S
C662 C663 1.334 . S
C663 H640 0.950 . S
C663 C662 1.334 . S
C663 C664 1.287 . S
C664 C663 1.287 . S
C664 C665 1.524 . S
C664 H683 0.913 . S
C665 H641 0.950 . S
C665 C664 1.524 . S
C665 C666 1.415 . S
C666 H642 0.950 . S
C666 C661 1.363 . S
C666 C665 1.415 . S
C667 H643 0.951 . S
C667 C668 1.366 . S
C667 C669 1.388 . S
C668 C667 1.366 . S
C668 C672 1.385 . S
C669 H644 0.951 . S
C669 C667 1.388 . S
C669 C670 1.366 . S
C670 C669 1.366 . S
C670 C671 1.414 . S
C670 C673 1.499 . S
C671 H645 0.950 . S
C671 C670 1.414 . S
C671 C672 1.374 . S
C672 H646 0.950 . S
C672 C668 1.385 . S
C672 C671 1.374 . S
C673 C670 1.499 . S
C673 C674 1.373 . S
C673 C675 1.389 1_655 S
C674 H647 0.950 . S
C674 C660 1.377 . S
C674 C673 1.373 . S
C675 C659 1.377 . S
C675 C673 1.389 1_455 S
C675 C676 1.524 . S
C676 C675 1.524 . S
C676 C677 1.397 . S
C676 C681 1.363 . S
C677 H648 0.950 . S
C677 C676 1.397 . S
C677 C678 1.334 . S
C678 H649 0.950 . S
C678 C677 1.334 . S
C678 C679 1.287 . S
C679 C678 1.287 . S
C679 C680 1.524 . S
C679 H682 0.999 . S
C680 H650 0.950 . S
C680 C679 1.524 . S
C680 C681 1.415 . S
C681 H651 0.950 . S
C681 C676 1.363 . S
C681 C680 1.415 . S
H682 C679 0.999 . S
H683 C664 0.913 . S
H684 C702 0.951 . S
H685 C704 0.951 . S
H686 C706 0.950 1_556 S
H687 C707 0.950 . S
H688 C709 0.950 . S
H689 C712 0.950 . S
H690 C713 0.950 . S
H691 C715 0.950 1_545 S
H692 C716 0.984 . S
H693 C717 0.951 . S
H694 C719 0.951 . S
H695 C721 0.950 1_554 S
H696 C722 0.950 . S
H697 C724 0.950 . S
H698 C727 0.950 . S
H699 C728 0.950 . S
H700 C730 0.950 1_565 S
H701 C731 0.984 . S
C702 H684 0.951 . S
C702 C703 1.366 . S
C702 C704 1.388 . S
C703 C702 1.366 . S
C703 C707 1.385 . S
C704 H685 0.951 . S
C704 C702 1.388 . S
C704 C705 1.366 . S
C705 C704 1.366 . S
C705 C706 1.414 . S
C705 C708 1.499 . S
C706 H686 0.950 1_554 S
C706 C705 1.414 . S
C706 C707 1.374 . S
C707 H687 0.950 . S
C707 C703 1.385 . S
C707 C706 1.374 . S
C708 C705 1.499 . S
C708 C709 1.373 1_554 S
C708 C710 1.389 . S
C709 H688 0.950 . S
C709 C708 1.373 1_556 S
C709 C725 1.377 1_565 S
C710 C708 1.389 . S
C710 C711 1.524 . S
C710 C724 1.377 1_565 S
C711 C710 1.524 . S
C711 C712 1.397 . S
C711 C716 1.340 1_565 S
C712 H689 0.950 . S
C712 C711 1.397 . S
C712 C713 1.334 . S
C713 H690 0.950 . S
C713 C712 1.334 . S
C713 C714 1.287 . S
C714 C713 1.287 . S
C714 C715 1.524 . S
C714 H733 0.913 . S
C715 H691 0.950 1_565 S
C715 C714 1.524 . S
C715 C716 1.405 1_565 S
C716 H692 0.984 . S
C716 C711 1.340 1_545 S
C716 C715 1.405 1_545 S
C717 H693 0.951 . S
C717 C718 1.366 . S
C717 C719 1.388 . S
C718 C717 1.366 . S
C718 C722 1.385 . S
C719 H694 0.951 . S
C719 C717 1.388 . S
C719 C720 1.366 . S
C720 C719 1.366 . S
C720 C721 1.414 . S
C720 C723 1.499 . S
C721 H695 0.950 1_556 S
C721 C720 1.414 . S
C721 C722 1.374 . S
C722 H696 0.950 . S
C722 C718 1.385 . S
C722 C721 1.374 . S
C723 C720 1.499 . S
C723 C724 1.373 1_556 S
C723 C725 1.389 . S
C724 H697 0.950 . S
C724 C710 1.377 1_545 S
C724 C723 1.373 1_554 S
C725 C709 1.377 1_545 S
C725 C723 1.389 . S
C725 C726 1.524 . S
C726 C725 1.524 . S
C726 C727 1.397 . S
C726 C731 1.340 1_545 S
C727 H698 0.950 . S
C727 C726 1.397 . S
C727 C728 1.334 . S
C728 H699 0.950 . S
C728 C727 1.334 . S
C728 C729 1.287 . S
C729 C728 1.287 . S
C729 C730 1.524 . S
C729 H732 0.999 . S
C730 H700 0.950 1_545 S
C730 C729 1.524 . S
C730 C731 1.405 1_545 S
C731 H701 0.984 . S
C731 C726 1.340 1_565 S
C731 C730 1.405 1_565 S
H732 C729 0.999 . S
H733 C714 0.913 . S
H734 C752 0.951 . S
H735 C754 0.951 . S
H736 C756 0.950 . S
H737 C757 0.950 . S
H738 C759 0.950 . S
H739 C762 0.950 . S
H740 C763 0.950 . S
H741 C765 0.950 . S
H742 C766 0.950 . S
H743 C767 0.951 . S
H744 C769 0.951 . S
H745 C771 0.950 . S
H746 C772 0.950 . S
H747 C774 0.950 . S
H748 C777 0.950 . S
H749 C778 0.950 . S
H750 C780 0.950 . S
H751 C781 0.950 . S
C752 H734 0.951 . S
C752 C753 1.366 . S
C752 C754 1.388 . S
C753 C752 1.366 . S
C753 C757 1.385 . S
C754 H735 0.951 . S
C754 C752 1.388 . S
C754 C755 1.366 . S
C755 C754 1.366 . S
C755 C756 1.414 . S
C755 C758 1.499 . S
C756 H736 0.950 . S
C756 C755 1.414 . S
C756 C757 1.374 . S
C757 H737 0.950 . S
C757 C753 1.385 . S
C757 C756 1.374 . S
C758 C755 1.499 . S
C758 C759 1.373 . S
C758 C760 1.389 . S
C759 H738 0.950 . S
C759 C758 1.373 . S
C759 C775 1.377 1_565 S
C760 C758 1.389 . S
C760 C761 1.524 . S
C760 C774 1.377 1_565 S
C761 C760 1.524 . S
C761 C762 1.397 . S
C761 C766 1.363 . S
C762 H739 0.950 . S
C762 C761 1.397 . S
C762 C763 1.334 . S
C763 H740 0.950 . S
C763 C762 1.334 . S
C763 C764 1.287 . S
C764 C763 1.287 . S
C764 C765 1.524 . S
C764 H783 0.913 . S
C765 H741 0.950 . S
C765 C764 1.524 . S
C765 C766 1.415 . S
C766 H742 0.950 . S
C766 C761 1.363 . S
C766 C765 1.415 . S
C767 H743 0.951 . S
C767 C768 1.366 . S
C767 C769 1.388 . S
C768 C767 1.366 . S
C768 C772 1.385 . S
C769 H744 0.951 . S
C769 C767 1.388 . S
C769 C770 1.366 . S
C770 C769 1.366 . S
C770 C771 1.414 . S
C770 C773 1.499 . S
C771 H745 0.950 . S
C771 C770 1.414 . S
C771 C772 1.374 . S
C772 H746 0.950 . S
C772 C768 1.385 . S
C772 C771 1.374 . S
C773 C770 1.499 . S
C773 C774 1.373 . S
C773 C775 1.389 . S
C774 H747 0.950 . S
C774 C760 1.377 1_545 S
C774 C773 1.373 . S
C775 C759 1.377 1_545 S
C775 C773 1.389 . S
C775 C776 1.524 . S
C776 C775 1.524 . S
C776 C777 1.397 . S
C776 C781 1.363 . S
C777 H748 0.950 . S
C777 C776 1.397 . S
C777 C778 1.334 . S
C778 H749 0.950 . S
C778 C777 1.334 . S
C778 C779 1.287 . S
C779 C778 1.287 . S
C779 C780 1.524 . S
C779 H782 0.999 . S
C780 H750 0.950 . S
C780 C779 1.524 . S
C780 C781 1.415 . S
C781 H751 0.950 . S
C781 C776 1.363 . S
C781 C780 1.415 . S
H782 C779 0.999 . S
H783 C764 0.913 . S
H784 C802 0.951 . S
H785 C804 0.951 . S
H786 C806 0.950 . S
H787 C807 0.950 . S
H788 C809 0.950 . S
H789 C812 0.950 . S
H790 C813 0.950 . S
H791 C815 0.950 . S
H792 C816 0.950 . S
H793 C817 0.951 . S
H794 C819 0.951 . S
H795 C821 0.950 . S
H796 C822 0.950 . S
H797 C824 0.950 . S
H798 C827 0.950 . S
H799 C828 0.950 . S
H800 C830 0.950 . S
H801 C831 0.950 . S
C802 H784 0.951 . S
C802 C803 1.366 . S
C802 C804 1.388 . S
C803 C802 1.366 . S
C803 C807 1.385 . S
C804 H785 0.951 . S
C804 C802 1.388 . S
C804 C805 1.366 . S
C805 C804 1.366 . S
C805 C806 1.414 . S
C805 C808 1.499 . S
C806 H786 0.950 . S
C806 C805 1.414 . S
C806 C807 1.374 . S
C807 H787 0.950 . S
C807 C803 1.385 . S
C807 C806 1.374 . S
C808 C805 1.499 . S
C808 C809 1.373 . S
C808 C810 1.389 . S
C809 H788 0.950 . S
C809 C808 1.373 . S
C809 C825 1.377 1_455 S
C810 C808 1.389 . S
C810 C811 1.524 . S
C810 C824 1.377 1_455 S
C811 C810 1.524 . S
C811 C812 1.397 . S
C811 C816 1.363 1_455 S
C812 H789 0.950 . S
C812 C811 1.397 . S
C812 C813 1.334 . S
C813 H790 0.950 . S
C813 C812 1.334 . S
C813 C814 1.287 . S
C814 C813 1.287 . S
C814 C815 1.524 1_455 S
C814 H833 0.913 . S
C815 H791 0.950 . S
C815 C814 1.524 1_655 S
C815 C816 1.415 . S
C816 H792 0.950 . S
C816 C811 1.363 1_655 S
C816 C815 1.415 . S
C817 H793 0.951 . S
C817 C818 1.366 . S
C817 C819 1.388 . S
C818 C817 1.366 . S
C818 C822 1.385 . S
C819 H794 0.951 . S
C819 C817 1.388 . S
C819 C820 1.366 . S
C820 C819 1.366 . S
C820 C821 1.414 . S
C820 C823 1.499 . S
C821 H795 0.950 . S
C821 C820 1.414 . S
C821 C822 1.374 . S
C822 H796 0.950 . S
C822 C818 1.385 . S
C822 C821 1.374 . S
C823 C820 1.499 . S
C823 C824 1.373 . S
C823 C825 1.389 . S
C824 H797 0.950 . S
C824 C810 1.377 1_655 S
C824 C823 1.373 . S
C825 C809 1.377 1_655 S
C825 C823 1.389 . S
C825 C826 1.524 . S
C826 C825 1.524 . S
C826 C827 1.397 . S
C826 C831 1.363 1_655 S
C827 H798 0.950 . S
C827 C826 1.397 . S
C827 C828 1.334 . S
C828 H799 0.950 . S
C828 C827 1.334 . S
C828 C829 1.287 . S
C829 C828 1.287 . S
C829 C830 1.524 1_655 S
C829 H832 0.999 . S
C830 H800 0.950 . S
C830 C829 1.524 1_455 S
C830 C831 1.415 . S
C831 H801 0.950 . S
C831 C826 1.363 1_455 S
C831 C830 1.415 . S
H832 C829 0.999 . S
H833 C814 0.913 . S
H834 C852 0.951 . S
H835 C854 0.951 . S
H836 C856 0.950 . S
H837 C857 0.950 . S
H838 C859 0.950 . S
H839 C862 0.950 . S
H840 C863 0.950 . S
H841 C865 0.950 . S
H842 C866 0.950 . S
H843 C867 0.951 . S
H844 C869 0.951 . S
H845 C871 0.950 . S
H846 C872 0.950 . S
H847 C874 0.950 . S
H848 C877 0.950 . S
H849 C878 0.950 . S
H850 C880 0.950 . S
H851 C881 0.950 . S
C852 H834 0.951 . S
C852 C853 1.366 . S
C852 C854 1.388 . S
C853 C852 1.366 . S
C853 C857 1.385 . S
C854 H835 0.951 . S
C854 C852 1.388 . S
C854 C855 1.366 . S
C855 C854 1.366 . S
C855 C856 1.414 . S
C855 C858 1.499 . S
C856 H836 0.950 . S
C856 C855 1.414 . S
C856 C857 1.374 . S
C857 H837 0.950 . S
C857 C853 1.385 . S
C857 C856 1.374 . S
C858 C855 1.499 . S
C858 C859 1.373 . S
C858 C860 1.389 . S
C859 H838 0.950 . S
C859 C858 1.373 . S
C859 C875 1.377 1_455 S
C860 C858 1.389 . S
C860 C861 1.524 . S
C860 C874 1.377 1_455 S
C861 C860 1.524 . S
C861 C862 1.397 . S
C861 C866 1.363 . S
C862 H839 0.950 . S
C862 C861 1.397 . S
C862 C863 1.334 . S
C863 H840 0.950 . S
C863 C862 1.334 . S
C863 C864 1.287 . S
C864 C863 1.287 . S
C864 C865 1.524 . S
C864 H883 0.913 . S
C865 H841 0.950 . S
C865 C864 1.524 . S
C865 C866 1.415 . S
C866 H842 0.950 . S
C866 C861 1.363 . S
C866 C865 1.415 . S
C867 H843 0.951 . S
C867 C868 1.366 . S
C867 C869 1.388 . S
C868 C867 1.366 . S
C868 C872 1.385 . S
C869 H844 0.951 . S
C869 C867 1.388 . S
C869 C870 1.366 . S
C870 C869 1.366 . S
C870 C871 1.414 . S
C870 C873 1.499 . S
C871 H845 0.950 . S
C871 C870 1.414 . S
C871 C872 1.374 . S
C872 H846 0.950 . S
C872 C868 1.385 . S
C872 C871 1.374 . S
C873 C870 1.499 . S
C873 C874 1.373 . S
C873 C875 1.389 . S
C874 H847 0.950 . S
C874 C860 1.377 1_655 S
C874 C873 1.373 . S
C875 C859 1.377 1_655 S
C875 C873 1.389 . S
C875 C876 1.524 . S
C876 C875 1.524 . S
C876 C877 1.397 . S
C876 C881 1.363 . S
C877 H848 0.950 . S
C877 C876 1.397 . S
C877 C878 1.334 . S
C878 H849 0.950 . S
C878 C877 1.334 . S
C878 C879 1.287 . S
C879 C878 1.287 . S
C879 C880 1.524 . S
C879 H882 0.999 . S
C880 H850 0.950 . S
C880 C879 1.524 . S
C880 C881 1.415 . S
C881 H851 0.950 . S
C881 C876 1.363 . S
C881 C880 1.415 . S
H882 C879 0.999 . S
H883 C864 0.913 . S
H884 C902 0.951 . S
H885 C904 0.951 . S
H886 C906 0.950 . S
H887 C907 0.950 . S
H888 C909 0.950 . S
H889 C912 0.950 . S
H890 C913 0.950 . S
H891 C915 0.950 . S
H892 C916 0.950 . S
H893 C917 0.951 . S
H894 C919 0.951 . S
H895 C921 0.950 . S
H896 C922 0.950 . S
H897 C924 0.950 . S
H898 C927 0.950 . S
H899 C928 0.950 . S
H900 C930 0.950 . S
H901 C931 0.950 . S
C902 H884 0.951 . S
C902 C903 1.366 . S
C902 C904 1.388 . S
C903 C902 1.366 . S
C903 C907 1.385 . S
C904 H885 0.951 . S
C904 C902 1.388 . S
C904 C905 1.366 . S
C905 C904 1.366 . S
C905 C906 1.414 . S
C905 C908 1.499 . S
C906 H886 0.950 . S
C906 C905 1.414 . S
C906 C907 1.374 . S
C907 H887 0.950 . S
C907 C903 1.385 . S
C907 C906 1.374 . S
C908 C905 1.499 . S
C908 C909 1.373 . S
C908 C910 1.389 . S
C909 H888 0.950 . S
C909 C908 1.373 . S
C909 C925 1.377 . S
C910 C908 1.389 . S
C910 C911 1.524 . S
C910 C924 1.377 . S
C911 C910 1.524 . S
C911 C912 1.397 . S
C911 C916 1.363 . S
C912 H889 0.950 . S
C912 C911 1.397 . S
C912 C913 1.334 . S
C913 H890 0.950 . S
C913 C912 1.334 . S
C913 C914 1.287 . S
C914 C913 1.287 . S
C914 C915 1.524 . S
C914 H933 0.913 . S
C915 H891 0.950 . S
C915 C914 1.524 . S
C915 C916 1.415 . S
C916 H892 0.950 . S
C916 C911 1.363 . S
C916 C915 1.415 . S
C917 H893 0.951 . S
C917 C918 1.366 . S
C917 C919 1.388 . S
C918 C917 1.366 . S
C918 C922 1.385 . S
C919 H894 0.951 . S
C919 C917 1.388 . S
C919 C920 1.366 . S
C920 C919 1.366 . S
C920 C921 1.414 . S
C920 C923 1.499 . S
C921 H895 0.950 . S
C921 C920 1.414 . S
C921 C922 1.374 . S
C922 H896 0.950 . S
C922 C918 1.385 . S
C922 C921 1.374 . S
C923 C920 1.499 . S
C923 C924 1.373 . S
C923 C925 1.389 . S
C924 H897 0.950 . S
C924 C910 1.377 . S
C924 C923 1.373 . S
C925 C909 1.377 . S
C925 C923 1.389 . S
C925 C926 1.524 . S
C926 C925 1.524 . S
C926 C927 1.397 . S
C926 C931 1.363 . S
C927 H898 0.950 . S
C927 C926 1.397 . S
C927 C928 1.334 . S
C928 H899 0.950 . S
C928 C927 1.334 . S
C928 C929 1.287 . S
C929 C928 1.287 . S
C929 C930 1.524 . S
C929 H932 0.999 . S
C930 H900 0.950 . S
C930 C929 1.524 . S
C930 C931 1.415 . S
C931 H901 0.950 . S
C931 C926 1.363 . S
C931 C930 1.415 . S
H932 C929 0.999 . S
H933 C914 0.913 . S
H934 C952 0.951 . S
H935 C954 0.951 . S
H936 C956 0.950 . S
H937 C957 0.950 . S
H938 C959 0.950 . S
H939 C962 0.950 . S
H940 C963 0.950 . S
H941 C965 0.950 . S
H942 C966 0.950 . S
H943 C967 0.951 . S
H944 C969 0.951 . S
H945 C971 0.950 . S
H946 C972 0.950 . S
H947 C974 0.950 . S
H948 C977 0.950 . S
H949 C978 0.950 . S
H950 C980 0.950 . S
H951 C981 0.950 . S
C952 H934 0.951 . S
C952 C953 1.366 . S
C952 C954 1.388 . S
C953 C952 1.366 . S
C953 C957 1.385 . S
C954 H935 0.951 . S
C954 C952 1.388 . S
C954 C955 1.366 . S
C955 C954 1.366 . S
C955 C956 1.414 . S
C955 C958 1.499 . S
C956 H936 0.950 . S
C956 C955 1.414 . S
C956 C957 1.374 . S
C957 H937 0.950 . S
C957 C953 1.385 . S
C957 C956 1.374 . S
C958 C955 1.499 . S
C958 C959 1.373 . S
C958 C960 1.389 . S
C959 H938 0.950 . S
C959 C958 1.373 . S
C959 C975 1.377 . S
C960 C958 1.389 . S
C960 C961 1.524 . S
C960 C974 1.377 . S
C961 C960 1.524 . S
C961 C962 1.397 . S
C961 C966 1.363 . S
C962 H939 0.950 . S
C962 C961 1.397 . S
C962 C963 1.334 . S
C963 H940 0.950 . S
C963 C962 1.334 . S
C963 C964 1.287 . S
C964 C963 1.287 . S
C964 C965 1.524 . S
C964 H983 0.913 . S
C965 H941 0.950 . S
C965 C964 1.524 . S
C965 C966 1.415 . S
C966 H942 0.950 . S
C966 C961 1.363 . S
C966 C965 1.415 . S
C967 H943 0.951 . S
C967 C968 1.366 . S
C967 C969 1.388 . S
C968 C967 1.366 . S
C968 C972 1.385 . S
C969 H944 0.951 . S
C969 C967 1.388 . S
C969 C970 1.366 . S
C970 C969 1.366 . S
C970 C971 1.414 . S
C970 C973 1.499 . S
C971 H945 0.950 . S
C971 C970 1.414 . S
C971 C972 1.374 . S
C972 H946 0.950 . S
C972 C968 1.385 . S
C972 C971 1.374 . S
C973 C970 1.499 . S
C973 C974 1.373 . S
C973 C975 1.389 . S
C974 H947 0.950 . S
C974 C960 1.377 . S
C974 C973 1.373 . S
C975 C959 1.377 . S
C975 C973 1.389 . S
C975 C976 1.524 . S
C976 C975 1.524 . S
C976 C977 1.397 . S
C976 C981 1.363 . S
C977 H948 0.950 . S
C977 C976 1.397 . S
C977 C978 1.334 . S
C978 H949 0.950 . S
C978 C977 1.334 . S
C978 C979 1.287 . S
C979 C978 1.287 . S
C979 C980 1.524 . S
C979 H982 0.999 . S
C980 H950 0.950 . S
C980 C979 1.524 . S
C980 C981 1.415 . S
C981 H951 0.950 . S
C981 C976 1.363 . S
C981 C980 1.415 . S
H982 C979 0.999 . S
H983 C964 0.913 . S
H984 C1002 0.951 . S
H985 C1004 0.951 . S
H986 C1006 0.950 . S
H987 C1007 0.950 . S
H988 C1009 0.950 . S
H989 C1012 0.950 . S
H990 C1013 0.950 . S
H991 C1015 0.950 . S
H992 C1016 0.950 . S
H993 C1017 0.951 . S
H994 C1019 0.951 . S
H995 C1021 0.950 . S
H996 C1022 0.950 . S
H997 C1024 0.950 . S
H998 C1027 0.950 . S
H999 C1028 0.950 . S
H1000 C1030 0.950 . S
H1001 C1031 0.950 . S
C1002 H984 0.951 . S
C1002 C1003 1.366 1_556 S
C1002 C1004 1.388 . S
C1003 C1002 1.366 1_554 S
C1003 C1007 1.385 . S
C1004 H985 0.951 . S
C1004 C1002 1.388 . S
C1004 C1005 1.366 . S
C1005 C1004 1.366 . S
C1005 C1006 1.414 . S
C1005 C1008 1.499 . S
C1006 H986 0.950 . S
C1006 C1005 1.414 . S
C1006 C1007 1.374 1_556 S
C1007 H987 0.950 . S
C1007 C1003 1.385 . S
C1007 C1006 1.374 1_554 S
C1008 C1005 1.499 . S
C1008 C1009 1.373 . S
C1008 C1010 1.389 . S
C1009 H988 0.950 . S
C1009 C1008 1.373 . S
C1009 C1025 1.377 . S
C1010 C1008 1.389 . S
C1010 C1011 1.524 . S
C1010 C1024 1.377 . S
C1011 C1010 1.524 . S
C1011 C1012 1.397 . S
C1011 C1016 1.363 . S
C1012 H989 0.950 . S
C1012 C1011 1.397 . S
C1012 C1013 1.334 . S
C1013 H990 0.950 . S
C1013 C1012 1.334 . S
C1013 C1014 1.287 . S
C1014 C1013 1.287 . S
C1014 C1015 1.524 . S
C1014 H1033 0.913 . S
C1015 H991 0.950 . S
C1015 C1014 1.524 . S
C1015 C1016 1.415 . S
C1016 H992 0.950 . S
C1016 C1011 1.363 . S
C1016 C1015 1.415 . S
C1017 H993 0.951 . S
C1017 C1018 1.366 . S
C1017 C1019 1.388 . S
C1018 C1017 1.366 . S
C1018 C1022 1.385 . S
C1019 H994 0.951 . S
C1019 C1017 1.388 . S
C1019 C1020 1.366 . S
C1020 C1019 1.366 . S
C1020 C1021 1.414 . S
C1020 C1023 1.499 . S
C1021 H995 0.950 . S
C1021 C1020 1.414 . S
C1021 C1022 1.374 . S
C1022 H996 0.950 . S
C1022 C1018 1.385 . S
C1022 C1021 1.374 . S
C1023 C1020 1.499 . S
C1023 C1024 1.373 . S
C1023 C1025 1.389 . S
C1024 H997 0.950 . S
C1024 C1010 1.377 . S
C1024 C1023 1.373 . S
C1025 C1009 1.377 . S
C1025 C1023 1.389 . S
C1025 C1026 1.524 . S
C1026 C1025 1.524 . S
C1026 C1027 1.397 . S
C1026 C1031 1.363 . S
C1027 H998 0.950 . S
C1027 C1026 1.397 . S
C1027 C1028 1.334 . S
C1028 H999 0.950 . S
C1028 C1027 1.334 . S
C1028 C1029 1.287 . S
C1029 C1028 1.287 . S
C1029 C1030 1.524 . S
C1029 H1032 0.999 . S
C1030 H1000 0.950 . S
C1030 C1029 1.524 . S
C1030 C1031 1.415 . S
C1031 H1001 0.950 . S
C1031 C1026 1.363 . S
C1031 C1030 1.415 . S
H1032 C1029 0.999 . S
H1033 C1014 0.913 . S
H1034 C1052 0.951 . S
H1035 C1054 0.951 . S
H1036 C1056 0.950 . S
H1037 C1057 0.950 . S
H1038 C1059 0.950 . S
H1039 C1062 0.950 . S
H1040 C1063 0.950 . S
H1041 C1065 0.950 . S
H1042 C1066 0.950 . S
H1043 C1067 0.951 . S
H1044 C1069 0.951 . S
H1045 C1071 0.950 . S
H1046 C1072 0.950 . S
H1047 C1074 0.950 . S
H1048 C1077 0.950 . S
H1049 C1078 0.950 . S
H1050 C1080 0.950 . S
H1051 C1081 0.950 . S
C1052 H1034 0.951 . S
C1052 C1053 1.366 . S
C1052 C1054 1.388 . S
C1053 C1052 1.366 . S
C1053 C1057 1.385 . S
C1054 H1035 0.951 . S
C1054 C1052 1.388 . S
C1054 C1055 1.366 . S
C1055 C1054 1.366 . S
C1055 C1056 1.414 . S
C1055 C1058 1.499 . S
C1056 H1036 0.950 . S
C1056 C1055 1.414 . S
C1056 C1057 1.374 . S
C1057 H1037 0.950 . S
C1057 C1053 1.385 . S
C1057 C1056 1.374 . S
C1058 C1055 1.499 . S
C1058 C1059 1.373 . S
C1058 C1060 1.389 . S
C1059 H1038 0.950 . S
C1059 C1058 1.373 . S
C1059 C1075 1.377 . S
C1060 C1058 1.389 . S
C1060 C1061 1.524 . S
C1060 C1074 1.377 . S
C1061 C1060 1.524 . S
C1061 C1062 1.397 . S
C1061 C1066 1.363 . S
C1062 H1039 0.950 . S
C1062 C1061 1.397 . S
C1062 C1063 1.334 . S
C1063 H1040 0.950 . S
C1063 C1062 1.334 . S
C1063 C1064 1.287 . S
C1064 C1063 1.287 . S
C1064 C1065 1.524 . S
C1064 H1083 0.913 . S
C1065 H1041 0.950 . S
C1065 C1064 1.524 . S
C1065 C1066 1.415 . S
C1066 H1042 0.950 . S
C1066 C1061 1.363 . S
C1066 C1065 1.415 . S
C1067 H1043 0.951 . S
C1067 C1068 1.366 . S
C1067 C1069 1.388 . S
C1068 C1067 1.366 . S
C1068 C1072 1.385 . S
C1069 H1044 0.951 . S
C1069 C1067 1.388 . S
C1069 C1070 1.366 . S
C1070 C1069 1.366 . S
C1070 C1071 1.414 . S
C1070 C1073 1.499 . S
C1071 H1045 0.950 . S
C1071 C1070 1.414 . S
C1071 C1072 1.374 . S
C1072 H1046 0.950 . S
C1072 C1068 1.385 . S
C1072 C1071 1.374 . S
C1073 C1070 1.499 . S
C1073 C1074 1.373 . S
C1073 C1075 1.389 . S
C1074 H1047 0.950 . S
C1074 C1060 1.377 . S
C1074 C1073 1.373 . S
C1075 C1059 1.377 . S
C1075 C1073 1.389 . S
C1075 C1076 1.524 . S
C1076 C1075 1.524 . S
C1076 C1077 1.397 . S
C1076 C1081 1.363 . S
C1077 H1048 0.950 . S
C1077 C1076 1.397 . S
C1077 C1078 1.334 . S
C1078 H1049 0.950 . S
C1078 C1077 1.334 . S
C1078 C1079 1.287 . S
C1079 C1078 1.287 . S
C1079 C1080 1.524 . S
C1079 H1082 0.999 . S
C1080 H1050 0.950 . S
C1080 C1079 1.524 . S
C1080 C1081 1.415 . S
C1081 H1051 0.950 . S
C1081 C1076 1.363 . S
C1081 C1080 1.415 . S
H1082 C1079 0.999 . S
H1083 C1064 0.913 . S
H1084 C1102 0.951 . S
H1085 C1104 0.951 . S
H1086 C1106 0.950 . S
H1087 C1107 0.950 . S
H1088 C1109 0.950 . S
H1089 C1112 0.950 . S
H1090 C1113 0.950 . S
H1091 C1115 0.950 . S
H1092 C1116 0.950 . S
H1093 C1117 0.951 1_556 S
H1094 C1119 0.951 . S
H1095 C1121 0.950 . S
H1096 C1122 0.950 . S
H1097 C1124 0.950 . S
H1098 C1127 0.950 . S
H1099 C1128 0.950 . S
H1100 C1130 0.950 . S
H1101 C1131 0.950 . S
C1102 H1084 0.951 . S
C1102 C1103 1.366 . S
C1102 C1104 1.388 . S
C1103 C1102 1.366 . S
C1103 C1107 1.385 . S
C1104 H1085 0.951 . S
C1104 C1102 1.388 . S
C1104 C1105 1.366 . S
C1105 C1104 1.366 . S
C1105 C1106 1.414 . S
C1105 C1108 1.499 . S
C1106 H1086 0.950 . S
C1106 C1105 1.414 . S
C1106 C1107 1.374 . S
C1107 H1087 0.950 . S
C1107 C1103 1.385 . S
C1107 C1106 1.374 . S
C1108 C1105 1.499 . S
C1108 C1109 1.373 . S
C1108 C1110 1.389 . S
C1109 H1088 0.950 . S
C1109 C1108 1.373 . S
C1109 C1125 1.377 . S
C1110 C1108 1.389 . S
C1110 C1111 1.524 . S
C1110 C1124 1.377 . S
C1111 C1110 1.524 . S
C1111 C1112 1.397 . S
C1111 C1116 1.363 . S
C1112 H1089 0.950 . S
C1112 C1111 1.397 . S
C1112 C1113 1.334 . S
C1113 H1090 0.950 . S
C1113 C1112 1.334 . S
C1113 C1114 1.287 . S
C1114 C1113 1.287 . S
C1114 C1115 1.524 . S
C1114 H1133 0.913 . S
C1115 H1091 0.950 . S
C1115 C1114 1.524 . S
C1115 C1116 1.415 . S
C1116 H1092 0.950 . S
C1116 C1111 1.363 . S
C1116 C1115 1.415 . S
C1117 H1093 0.951 1_554 S
C1117 C1118 1.366 1_554 S
C1117 C1119 1.388 . S
C1118 C1117 1.366 1_556 S
C1118 C1122 1.385 1_556 S
C1119 H1094 0.951 . S
C1119 C1117 1.388 . S
C1119 C1120 1.366 . S
C1120 C1119 1.366 . S
C1120 C1121 1.414 . S
C1120 C1123 1.499 . S
C1121 H1095 0.950 . S
C1121 C1120 1.414 . S
C1121 C1122 1.374 . S
C1122 H1096 0.950 . S
C1122 C1118 1.385 1_554 S
C1122 C1121 1.374 . S
C1123 C1120 1.499 . S
C1123 C1124 1.373 . S
C1123 C1125 1.389 . S
C1124 H1097 0.950 . S
C1124 C1110 1.377 . S
C1124 C1123 1.373 . S
C1125 C1109 1.377 . S
C1125 C1123 1.389 . S
C1125 C1126 1.524 . S
C1126 C1125 1.524 . S
C1126 C1127 1.397 . S
C1126 C1131 1.363 . S
C1127 H1098 0.950 . S
C1127 C1126 1.397 . S
C1127 C1128 1.334 . S
C1128 H1099 0.950 . S
C1128 C1127 1.334 . S
C1128 C1129 1.287 . S
C1129 C1128 1.287 . S
C1129 C1130 1.524 . S
C1129 H1132 0.999 . S
C1130 H1100 0.950 . S
C1130 C1129 1.524 . S
C1130 C1131 1.415 . S
C1131 H1101 0.950 . S
C1131 C1126 1.363 . S
C1131 C1130 1.415 . S
H1132 C1129 0.999 . S
H1133 C1114 0.913 . S
H1134 C1152 0.951 . S
H1135 C1154 0.951 . S
H1136 C1156 0.950 . S
H1137 C1157 0.950 . S
H1138 C1159 0.950 . S
H1139 C1162 0.950 . S
H1140 C1163 0.950 . S
H1141 C1165 0.950 . S
H1142 C1166 0.950 . S
H1143 C1167 0.951 . S
H1144 C1169 0.951 . S
H1145 C1171 0.950 . S
H1146 C1172 0.950 . S
H1147 C1174 0.950 . S
H1148 C1177 0.950 . S
H1149 C1178 0.950 . S
H1150 C1180 0.950 . S
H1151 C1181 0.950 . S
C1152 H1134 0.951 . S
C1152 C1153 1.366 . S
C1152 C1154 1.388 . S
C1153 C1152 1.366 . S
C1153 C1157 1.385 . S
C1154 H1135 0.951 . S
C1154 C1152 1.388 . S
C1154 C1155 1.366 . S
C1155 C1154 1.366 . S
C1155 C1156 1.414 . S
C1155 C1158 1.499 . S
C1156 H1136 0.950 . S
C1156 C1155 1.414 . S
C1156 C1157 1.374 . S
C1157 H1137 0.950 . S
C1157 C1153 1.385 . S
C1157 C1156 1.374 . S
C1158 C1155 1.499 . S
C1158 C1159 1.373 . S
C1158 C1160 1.389 . S
C1159 H1138 0.950 . S
C1159 C1158 1.373 . S
C1159 C1175 1.377 . S
C1160 C1158 1.389 . S
C1160 C1161 1.524 . S
C1160 C1174 1.377 . S
C1161 C1160 1.524 . S
C1161 C1162 1.397 . S
C1161 C1166 1.363 . S
C1162 H1139 0.950 . S
C1162 C1161 1.397 . S
C1162 C1163 1.334 . S
C1163 H1140 0.950 . S
C1163 C1162 1.334 . S
C1163 C1164 1.287 . S
C1164 C1163 1.287 . S
C1164 C1165 1.524 . S
C1164 H1183 0.913 . S
C1165 H1141 0.950 . S
C1165 C1164 1.524 . S
C1165 C1166 1.415 . S
C1166 H1142 0.950 . S
C1166 C1161 1.363 . S
C1166 C1165 1.415 . S
C1167 H1143 0.951 . S
C1167 C1168 1.366 . S
C1167 C1169 1.388 . S
C1168 C1167 1.366 . S
C1168 C1172 1.385 . S
C1169 H1144 0.951 . S
C1169 C1167 1.388 . S
C1169 C1170 1.366 . S
C1170 C1169 1.366 . S
C1170 C1171 1.414 . S
C1170 C1173 1.499 . S
C1171 H1145 0.950 . S
C1171 C1170 1.414 . S
C1171 C1172 1.374 . S
C1172 H1146 0.950 . S
C1172 C1168 1.385 . S
C1172 C1171 1.374 . S
C1173 C1170 1.499 . S
C1173 C1174 1.373 . S
C1173 C1175 1.389 . S
C1174 H1147 0.950 . S
C1174 C1160 1.377 . S
C1174 C1173 1.373 . S
C1175 C1159 1.377 . S
C1175 C1173 1.389 . S
C1175 C1176 1.524 . S
C1176 C1175 1.524 . S
C1176 C1177 1.397 . S
C1176 C1181 1.363 . S
C1177 H1148 0.950 . S
C1177 C1176 1.397 . S
C1177 C1178 1.334 . S
C1178 H1149 0.950 . S
C1178 C1177 1.334 . S
C1178 C1179 1.287 . S
C1179 C1178 1.287 . S
C1179 C1180 1.524 . S
C1179 H1182 0.999 . S
C1180 H1150 0.950 . S
C1180 C1179 1.524 . S
C1180 C1181 1.415 . S
C1181 H1151 0.950 . S
C1181 C1176 1.363 . S
C1181 C1180 1.415 . S
H1182 C1179 0.999 . S
H1183 C1164 0.913 . S
H1184 C1202 0.951 . S
H1185 C1204 0.951 . S
H1186 C1206 0.918 1_545 S
H1187 C1207 0.950 . S
H1188 C1209 0.944 1_545 S
H1189 C1212 0.950 . S
H1190 C1213 0.950 . S
H1191 C1215 0.950 . S
H1192 C1216 0.950 . S
H1193 C1217 0.951 . S
H1194 C1219 0.951 . S
H1195 C1221 0.989 . S
H1196 C1222 0.956 . S
H1197 C1224 0.950 . S
H1198 C1227 0.942 1_565 S
H1199 C1228 0.950 . S
H1200 C1230 0.950 . S
H1201 C1231 0.950 . S
C1202 H1184 0.951 . S
C1202 C1203 1.366 1_556 S
C1202 C1204 1.388 . S
C1203 C1202 1.366 1_554 S
C1203 C1207 1.385 . S
C1204 H1185 0.951 . S
C1204 C1202 1.388 . S
C1204 C1205 1.366 . S
C1205 C1204 1.366 . S
C1205 C1206 1.414 . S
C1205 C1208 1.499 . S
C1206 H1186 0.918 1_565 S
C1206 C1205 1.414 . S
C1206 C1207 1.374 1_556 S
C1207 H1187 0.950 . S
C1207 C1203 1.385 . S
C1207 C1206 1.374 1_554 S
C1208 C1205 1.499 . S
C1208 C1209 1.373 . S
C1208 C1210 1.389 . S
C1209 H1188 0.944 1_565 S
C1209 C1208 1.373 . S
C1209 C1225 1.377 1_565 S
C1210 C1208 1.389 . S
C1210 C1211 1.524 . S
C1210 C1224 1.377 . S
C1211 C1210 1.524 . S
C1211 C1212 1.397 . S
C1211 C1216 1.363 . S
C1212 H1189 0.950 . S
C1212 C1211 1.397 . S
C1212 C1213 1.334 . S
C1213 H1190 0.950 . S
C1213 C1212 1.334 . S
C1213 C1214 1.287 . S
C1214 C1213 1.287 . S
C1214 C1215 1.524 . S
C1214 H1233 0.913 . S
C1215 H1191 0.950 . S
C1215 C1214 1.524 . S
C1215 C1216 1.415 . S
C1216 H1192 0.950 . S
C1216 C1211 1.363 . S
C1216 C1215 1.415 . S
C1217 H1193 0.951 . S
C1217 C1218 1.366 . S
C1217 C1219 1.388 . S
C1218 C1217 1.366 . S
C1218 C1222 1.385 . S
C1219 H1194 0.951 . S
C1219 C1217 1.388 . S
C1219 C1220 1.366 . S
C1220 C1219 1.366 . S
C1220 C1221 1.393 1_545 S
C1220 C1223 1.499 . S
C1221 H1195 0.989 . S
C1221 C1220 1.393 1_565 S
C1221 C1222 1.357 1_565 S
C1222 H1196 0.956 . S
C1222 C1218 1.385 . S
C1222 C1221 1.357 1_545 S
C1223 C1220 1.499 . S
C1223 C1224 1.373 1_545 S
C1223 C1225 1.389 . S
C1224 H1197 0.950 . S
C1224 C1210 1.377 . S
C1224 C1223 1.373 1_565 S
C1225 C1209 1.377 1_545 S
C1225 C1223 1.389 . S
C1225 C1226 1.524 . S
C1226 C1225 1.524 . S
C1226 C1227 1.397 . S
C1226 C1231 1.363 . S
C1227 H1198 0.942 1_545 S
C1227 C1226 1.397 . S
C1227 C1228 1.334 . S
C1228 H1199 0.950 . S
C1228 C1227 1.334 . S
C1228 C1229 1.287 . S
C1229 C1228 1.287 . S
C1229 C1230 1.524 . S
C1229 H1232 0.999 . S
C1230 H1200 0.950 . S
C1230 C1229 1.524 . S
C1230 C1231 1.415 . S
C1231 H1201 0.950 . S
C1231 C1226 1.363 . S
C1231 C1230 1.415 . S
H1232 C1229 0.999 . S
H1233 C1214 0.913 . S
H1234 C1252 0.951 . S
H1235 C1254 0.951 . S
H1236 C1256 0.941 1_565 S
H1237 C1257 0.950 . S
H1238 C1259 0.950 . S
H1239 C1262 0.950 1_565 S
H1240 C1263 0.950 . S
H1241 C1265 0.950 . S
H1242 C1266 0.950 . S
H1243 C1267 0.951 . S
H1244 C1269 0.951 . S
H1245 C1271 0.950 . S
H1246 C1272 0.950 . S
H1247 C1274 0.950 . S
H1248 C1277 0.950 . S
H1249 C1278 0.950 . S
H1250 C1280 0.950 . S
H1251 C1281 0.950 . S
C1252 H1234 0.951 . S
C1252 C1253 1.366 . S
C1252 C1254 1.388 . S
C1253 C1252 1.366 . S
C1253 C1257 1.385 . S
C1254 H1235 0.951 . S
C1254 C1252 1.388 . S
C1254 C1255 1.366 . S
C1255 C1254 1.366 . S
C1255 C1256 1.419 . S
C1255 C1258 1.519 . S
C1256 H1236 0.941 1_545 S
C1256 C1255 1.419 . S
C1256 C1257 1.378 . S
C1257 H1237 0.950 . S
C1257 C1253 1.385 . S
C1257 C1256 1.378 . S
C1258 C1255 1.519 . S
C1258 C1259 1.354 1_545 S
C1258 C1260 1.392 . S
C1259 H1238 0.950 . S
C1259 C1258 1.354 1_565 S
C1259 C1275 1.377 . S
C1260 C1258 1.392 . S
C1260 C1261 1.524 . S
C1260 C1274 1.377 1_545 S
C1261 C1260 1.524 . S
C1261 C1262 1.397 . S
C1261 C1266 1.363 . S
C1262 H1239 0.950 1_545 S
C1262 C1261 1.397 . S
C1262 C1263 1.334 . S
C1263 H1240 0.950 . S
C1263 C1262 1.334 . S
C1263 C1264 1.287 . S
C1264 C1263 1.287 . S
C1264 C1265 1.524 . S
C1264 H1283 0.913 . S
C1265 H1241 0.950 . S
C1265 C1264 1.524 . S
C1265 C1266 1.415 . S
C1266 H1242 0.950 . S
C1266 C1261 1.363 . S
C1266 C1265 1.415 . S
C1267 H1243 0.951 . S
C1267 C1268 1.366 . S
C1267 C1269 1.388 . S
C1268 C1267 1.366 . S
C1268 C1272 1.385 . S
C1269 H1244 0.951 . S
C1269 C1267 1.388 . S
C1269 C1270 1.366 . S
C1270 C1269 1.366 . S
C1270 C1271 1.414 . S
C1270 C1273 1.499 . S
C1271 H1245 0.950 . S
C1271 C1270 1.414 . S
C1271 C1272 1.374 . S
C1272 H1246 0.950 . S
C1272 C1268 1.385 . S
C1272 C1271 1.374 . S
C1273 C1270 1.499 . S
C1273 C1274 1.373 . S
C1273 C1275 1.389 . S
C1274 H1247 0.950 . S
C1274 C1260 1.377 1_565 S
C1274 C1273 1.373 . S
C1275 C1259 1.377 . S
C1275 C1273 1.389 . S
C1275 C1276 1.524 . S
C1276 C1275 1.524 . S
C1276 C1277 1.397 . S
C1276 C1281 1.363 . S
C1277 H1248 0.950 . S
C1277 C1276 1.397 . S
C1277 C1278 1.334 . S
C1278 H1249 0.950 . S
C1278 C1277 1.334 . S
C1278 C1279 1.287 . S
C1279 C1278 1.287 . S
C1279 C1280 1.524 . S
C1279 H1282 0.999 . S
C1280 H1250 0.950 . S
C1280 C1279 1.524 . S
C1280 C1281 1.415 . S
C1281 H1251 0.950 . S
C1281 C1276 1.363 . S
C1281 C1280 1.415 . S
H1282 C1279 0.999 . S
H1283 C1264 0.913 . S
H1284 C1302 0.951 . S
H1285 C1304 0.951 . S
H1286 C1306 0.996 . S
H1287 C1307 0.948 . S
H1288 C1309 0.950 . S
H1289 C1312 0.950 . S
H1290 C1313 0.950 . S
H1291 C1315 0.950 . S
H1292 C1316 0.950 . S
H1293 C1317 0.951 . S
H1294 C1319 0.951 . S
H1295 C1321 0.905 1_565 S
H1296 C1322 0.950 . S
H1297 C1324 0.950 1_565 S
H1298 C1327 0.950 . S
H1299 C1328 0.950 . S
H1300 C1330 0.950 . S
H1301 C1331 0.950 . S
C1302 H1284 0.951 . S
C1302 C1303 1.366 . S
C1302 C1304 1.388 . S
C1303 C1302 1.366 . S
C1303 C1307 1.385 . S
C1304 H1285 0.951 . S
C1304 C1302 1.388 . S
C1304 C1305 1.366 . S
C1305 C1304 1.366 . S
C1305 C1306 1.389 1_565 S
C1305 C1308 1.499 . S
C1306 H1286 0.996 . S
C1306 C1305 1.389 1_545 S
C1306 C1307 1.355 1_545 S
C1307 H1287 0.948 . S
C1307 C1303 1.385 . S
C1307 C1306 1.355 1_565 S
C1308 C1305 1.499 . S
C1308 C1309 1.373 1_565 S
C1308 C1310 1.389 . S
C1309 H1288 0.950 . S
C1309 C1308 1.373 1_545 S
C1309 C1325 1.377 . S
C1310 C1308 1.389 . S
C1310 C1311 1.524 . S
C1310 C1324 1.377 1_565 S
C1311 C1310 1.524 . S
C1311 C1312 1.397 . S
C1311 C1316 1.363 . S
C1312 H1289 0.950 . S
C1312 C1311 1.397 . S
C1312 C1313 1.334 . S
C1313 H1290 0.950 . S
C1313 C1312 1.334 . S
C1313 C1314 1.287 . S
C1314 C1313 1.287 . S
C1314 C1315 1.524 . S
C1314 H1333 0.913 . S
C1315 H1291 0.950 . S
C1315 C1314 1.524 . S
C1315 C1316 1.415 . S
C1316 H1292 0.950 . S
C1316 C1311 1.363 . S
C1316 C1315 1.415 . S
C1317 H1293 0.951 . S
C1317 C1318 1.366 1_554 S
C1317 C1319 1.388 . S
C1318 C1317 1.366 1_556 S
C1318 C1322 1.385 . S
C1319 H1294 0.951 . S
C1319 C1317 1.388 . S
C1319 C1320 1.366 . S
C1320 C1319 1.366 . S
C1320 C1321 1.414 . S
C1320 C1323 1.499 . S
C1321 H1295 0.905 1_545 S
C1321 C1320 1.414 . S
C1321 C1322 1.374 1_554 S
C1322 H1296 0.950 . S
C1322 C1318 1.385 . S
C1322 C1321 1.374 1_556 S
C1323 C1320 1.499 . S
C1323 C1324 1.373 . S
C1323 C1325 1.389 . S
C1324 H1297 0.950 1_545 S
C1324 C1310 1.377 1_545 S
C1324 C1323 1.373 . S
C1325 C1309 1.377 . S
C1325 C1323 1.389 . S
C1325 C1326 1.524 . S
C1326 C1325 1.524 . S
C1326 C1327 1.397 . S
C1326 C1331 1.363 . S
C1327 H1298 0.950 . S
C1327 C1326 1.397 . S
C1327 C1328 1.334 . S
C1328 H1299 0.950 . S
C1328 C1327 1.334 . S
C1328 C1329 1.287 . S
C1329 C1328 1.287 . S
C1329 C1330 1.524 . S
C1329 H1332 0.999 . S
C1330 H1300 0.950 . S
C1330 C1329 1.524 . S
C1330 C1331 1.415 . S
C1331 H1301 0.950 . S
C1331 C1326 1.363 . S
C1331 C1330 1.415 . S
H1332 C1329 0.999 . S
H1333 C1314 0.913 . S
H1334 C1352 0.951 . S
H1335 C1354 0.930 1_565 S
H1336 C1356 0.950 . S
H1337 C1357 0.950 . S
H1338 C1359 0.950 . S
H1339 C1362 0.950 . S
H1340 C1363 0.950 . S
H1341 C1365 0.950 . S
H1342 C1366 0.950 . S
H1343 C1367 0.951 . S
H1344 C1369 0.968 . S
H1345 C1371 0.950 . S
H1346 C1372 0.950 . S
H1347 C1374 0.950 . S
H1348 C1377 0.950 1_565 S
H1349 C1378 0.950 . S
H1350 C1380 0.950 . S
H1351 C1381 0.950 . S
C1352 H1334 0.951 . S
C1352 C1353 1.366 . S
C1352 C1354 1.388 . S
C1353 C1352 1.366 . S
C1353 C1357 1.385 . S
C1354 H1335 0.930 1_545 S
C1354 C1352 1.388 . S
C1354 C1355 1.366 . S
C1355 C1354 1.366 . S
C1355 C1356 1.414 . S
C1355 C1358 1.499 . S
C1356 H1336 0.950 . S
C1356 C1355 1.414 . S
C1356 C1357 1.374 . S
C1357 H1337 0.950 . S
C1357 C1353 1.385 . S
C1357 C1356 1.374 . S
C1358 C1355 1.499 . S
C1358 C1359 1.373 . S
C1358 C1360 1.415 . S
C1359 H1338 0.950 . S
C1359 C1358 1.373 . S
C1359 C1375 1.377 . S
C1360 C1358 1.415 . S
C1360 C1361 1.514 1_545 S
C1360 C1374 1.362 1_545 S
C1361 C1360 1.514 1_565 S
C1361 C1362 1.397 1_565 S
C1361 C1366 1.363 . S
C1362 H1339 0.950 . S
C1362 C1361 1.397 1_545 S
C1362 C1363 1.334 . S
C1363 H1340 0.950 . S
C1363 C1362 1.334 . S
C1363 C1364 1.287 1_545 S
C1364 C1363 1.287 1_565 S
C1364 C1365 1.524 . S
C1364 H1383 0.913 . S
C1365 H1341 0.950 . S
C1365 C1364 1.524 . S
C1365 C1366 1.415 . S
C1366 H1342 0.950 . S
C1366 C1361 1.363 . S
C1366 C1365 1.415 . S
C1367 H1343 0.951 . S
C1367 C1368 1.366 . S
C1367 C1369 1.381 1_565 S
C1368 C1367 1.366 . S
C1368 C1372 1.385 . S
C1369 H1344 0.968 . S
C1369 C1367 1.381 1_545 S
C1369 C1370 1.356 1_545 S
C1370 C1369 1.356 1_565 S
C1370 C1371 1.414 . S
C1370 C1373 1.499 . S
C1371 H1345 0.950 . S
C1371 C1370 1.414 . S
C1371 C1372 1.374 . S
C1372 H1346 0.950 . S
C1372 C1368 1.385 . S
C1372 C1371 1.374 . S
C1373 C1370 1.499 . S
C1373 C1374 1.373 . S
C1373 C1375 1.389 1_565 S
C1374 H1347 0.950 . S
C1374 C1360 1.362 1_565 S
C1374 C1373 1.373 . S
C1375 C1359 1.377 . S
C1375 C1373 1.389 1_545 S
C1375 C1376 1.524 . S
C1376 C1375 1.524 . S
C1376 C1377 1.397 . S
C1376 C1381 1.363 . S
C1377 H1348 0.950 1_545 S
C1377 C1376 1.397 . S
C1377 C1378 1.334 . S
C1378 H1349 0.950 . S
C1378 C1377 1.334 . S
C1378 C1379 1.287 . S
C1379 C1378 1.287 . S
C1379 C1380 1.524 . S
C1379 H1382 0.999 . S
C1380 H1350 0.950 . S
C1380 C1379 1.524 . S
C1380 C1381 1.415 . S
C1381 H1351 0.950 . S
C1381 C1376 1.363 . S
C1381 C1380 1.415 . S
H1382 C1379 0.999 . S
H1383 C1364 0.913 . S
C203 C40 1.355 . S
C218 C17 1.355 . S
C253 C63 1.355 . S
C268 C86 1.355 . S
C303 C132 1.355 . S
C318 C109 1.355 . S
C353 C155 1.355 . S
C368 C178 1.355 . S
C403 C20 1.318 . S
C418 C158 1.318 . S
C453 C43 1.319 . S
C468 C181 1.319 . S
C503 C112 1.318 . S
C518 C66 1.318 . S
C553 C89 1.318 . S
C568 C135 1.318 . S
C603 C62 1.015 . S
C618 C16 1.015 . S
C653 C85 1.015 . S
C668 C39 1.015 . S
C703 C108 1.015 . S
C718 C154 1.015 . S
C753 C131 1.015 . S
C768 C177 1.015 . S
C803 C18 1.123 . S
C818 C41 1.123 . S
C853 C87 1.123 . S
C868 C64 1.123 . S
C903 C133 1.123 . S
C918 C110 1.123 . S
C953 C179 1.123 . S
C968 C156 1.123 . S
C1003 C21 1.449 . S
C1018 C88 1.381 . S
C1053 C44 1.449 . S
C1068 C65 1.381 . S
C1103 C42 1.380 . S
C1118 C67 1.449 . S
C1153 C19 1.380 . S
C1168 C90 1.449 . S
C1203 C113 1.449 . S
C1218 C180 1.381 . S
C1253 C157 1.380 . S
C1268 C136 1.449 . S
C1303 C134 1.381 . S
C1318 C159 1.449 . S
C1353 C182 1.449 . S
C1368 C111 1.381 . S
