# Generated by pormake.
# Topology qtz-e, (6)-cn, num edge types: 1
# Building blocks:
#     Node 0, Type 0, BuildingBlock: BETGAK_clean_sbu_0, # of connection points: 6
#     Node 1, Type 0, BuildingBlock: BETGAK_clean_sbu_0, # of connection points: 6
#     Node 2, Type 0, BuildingBlock: BETGAK_clean_sbu_0, # of connection points: 6
#     Node 3, Type 0, BuildingBlock: BETGAK_clean_sbu_0, # of connection points: 6
#     Node 4, Type 0, BuildingBlock: BETGAK_clean_sbu_0, # of connection points: 6
#     Node 5, Type 0, BuildingBlock: BETGAK_clean_sbu_0, # of connection points: 6
#     Edge 6, Type (0, 0), BuildingBlock: KIFKEQ_clean_linker_1, # of connection points: 2
#     Edge 7, Type (0, 0), BuildingBlock: KIFKEQ_clean_linker_1, # of connection points: 2
#     Edge 8, Type (0, 0), BuildingBlock: KIFKEQ_clean_linker_1, # of connection points: 2
#     Edge 9, Type (0, 0), BuildingBlock: KIFKEQ_clean_linker_1, # of connection points: 2
#     Edge 10, Type (0, 0), BuildingBlock: KIFKEQ_clean_linker_1, # of connection points: 2
#     Edge 11, Type (0, 0), BuildingBlock: KIFKEQ_clean_linker_1, # of connection points: 2
#     Edge 12, Type (0, 0), BuildingBlock: KIFKEQ_clean_linker_1, # of connection points: 2
#     Edge 13, Type (0, 0), BuildingBlock: KIFKEQ_clean_linker_1, # of connection points: 2
#     Edge 14, Type (0, 0), BuildingBlock: KIFKEQ_clean_linker_1, # of connection points: 2
#     Edge 15, Type (0, 0), BuildingBlock: KIFKEQ_clean_linker_1, # of connection points: 2
#     Edge 16, Type (0, 0), BuildingBlock: KIFKEQ_clean_linker_1, # of connection points: 2
#     Edge 17, Type (0, 0), BuildingBlock: KIFKEQ_clean_linker_1, # of connection points: 2
#     Edge 18, Type (0, 0), BuildingBlock: KIFKEQ_clean_linker_1, # of connection points: 2
#     Edge 19, Type (0, 0), BuildingBlock: KIFKEQ_clean_linker_1, # of connection points: 2
#     Edge 20, Type (0, 0), BuildingBlock: KIFKEQ_clean_linker_1, # of connection points: 2
#     Edge 21, Type (0, 0), BuildingBlock: KIFKEQ_clean_linker_1, # of connection points: 2
#     Edge 22, Type (0, 0), BuildingBlock: KIFKEQ_clean_linker_1, # of connection points: 2
#     Edge 23, Type (0, 0), BuildingBlock: KIFKEQ_clean_linker_1, # of connection points: 2
# Relax obj value: 0.184
# Max RMSD: 0.209
# Mean RMSD: 0.209
data_MOF--net-qtz-e--node1-BETGAK_clean_sbu_0--edge1-KIFKEQ_clean_linker_1
_symmetry_space_group_name_H-M    P1
_symmetry_Int_Tables_number       1
_symmetry_cell_setting            triclinic
loop_
_symmetry_equiv_pos_as_xyz
'x, y, z'
_cell_length_a     26.043256
_cell_length_b     26.025235
_cell_length_c     52.255025
_cell_angle_alpha  89.735438
_cell_angle_beta   90.048329
_cell_angle_gamma 119.76579
loop_
_atom_site_label
_atom_site_type_symbol
_atom_site_fract_x
_atom_site_fract_y
_atom_site_fract_z
_atom_type_partial_charge
La0 La 0.19246 0.5038 0.18779 0.0
La1 La 0.14709 0.37856 0.16904 0.0
C2 C 0.19571 0.5944 0.20616 0.0
C3 C 0.20233 0.61635 0.23277 0.0
C4 C 0.25899 0.65242 0.24312 0.0
C5 C 0.26584 0.66882 0.26883 0.0
C6 C 0.21623 0.65013 0.28474 0.0
C7 C 0.15946 0.61583 0.27423 0.0
C8 C 0.15256 0.59907 0.24851 0.0
C9 C 0.26761 0.46732 0.1963 0.0
C10 C 0.11013 0.39103 0.22417 0.0
C11 C 0.13272 0.28731 0.14567 0.0
C12 C 0.14857 0.276 0.11971 0.0
C13 C 0.10378 0.23495 0.1037 0.0
C14 C 0.11663 0.22477 0.07882 0.0
C15 C 0.17485 0.25527 0.06915 0.0
C16 C 0.21982 0.29647 0.08525 0.0
C17 C 0.20687 0.30656 0.11022 0.0
C18 C 0.08148 0.42835 0.16002 0.0
C19 C 0.23544 0.48929 0.13455 0.0
O20 O 0.24185 0.59402 0.19644 0.0
O21 O 0.14626 0.54596 0.20064 0.0
O22 O 0.28117 0.52219 0.195 0.0
O23 O 0.21179 0.43425 0.19665 0.0
O24 O 0.13256 0.44804 0.21854 0.0
O25 O 0.1164 0.35438 0.20856 0.0
O26 O 0.09334 0.30442 0.14632 0.0
O27 O 0.17543 0.31673 0.16203 0.0
O28 O 0.05954 0.37332 0.16655 0.0
O29 O 0.13614 0.45147 0.15844 0.0
O30 O 0.21617 0.43366 0.14136 0.0
O31 O 0.22136 0.52362 0.14796 0.0
H32 H 0.29828 0.66716 0.23148 0.0
H33 H 0.31009 0.69622 0.27627 0.0
H34 H 0.12039 0.60065 0.28606 0.0
H35 H 0.10828 0.57157 0.24112 0.0
H36 H 0.05841 0.21098 0.11039 0.0
H37 H 0.08049 0.19352 0.067 0.0
H38 H 0.26527 0.32045 0.07872 0.0
H39 H 0.24255 0.33836 0.12202 0.0
La40 La 0.83373 0.32204 0.43475 0.0
La41 La 0.8868 0.25056 0.45618 0.0
C42 C 0.80224 0.39281 0.41824 0.0
C43 C 0.78935 0.40162 0.39174 0.0
C44 C 0.76483 0.43755 0.38596 0.0
C45 C 0.75477 0.44668 0.36042 0.0
C46 C 0.76962 0.42032 0.34042 0.0
C47 C 0.79309 0.38348 0.34645 0.0
C48 C 0.80264 0.37407 0.37185 0.0
C49 C 0.76838 0.20535 0.42717 0.0
C50 C 0.91443 0.2937 0.39965 0.0
C51 C 0.90425 0.17646 0.48037 0.0
C52 C 0.88252 0.14303 0.50473 0.0
C53 C 0.92321 0.1398 0.52129 0.0
C54 C 0.90545 0.11269 0.54533 0.0
C55 C 0.84624 0.08775 0.5535 0.0
C56 C 0.80528 0.09061 0.53671 0.0
C57 C 0.82323 0.11798 0.51259 0.0
C58 C 0.9561 0.36737 0.45615 0.0
C59 C 0.80993 0.28455 0.49282 0.0
O60 O 0.76532 0.34115 0.42828 0.0
O61 O 0.8576 0.40775 0.42243 0.0
O62 O 0.7792 0.24604 0.4103 0.0
O63 O 0.80006 0.23229 0.44603 0.0
O64 O 0.89978 0.33372 0.40627 0.0
O65 O 0.90334 0.24849 0.41499 0.0
O66 O 0.9369 0.2338 0.48288 0.0
O67 O 0.8669 0.16213 0.46124 0.0
O68 O 0.97526 0.3304 0.45282 0.0
O69 O 0.90197 0.33811 0.4605 0.0
O70 O 0.83447 0.25125 0.48874 0.0
O71 O 0.80893 0.32041 0.47494 0.0
H72 H 0.75417 0.45898 0.40112 0.0
H73 H 0.73689 0.47553 0.35627 0.0
H74 H 0.80418 0.36196 0.33148 0.0
H75 H 0.82108 0.34569 0.37594 0.0
H76 H 0.96931 0.15943 0.51582 0.0
H77 H 0.93871 0.11268 0.55777 0.0
H78 H 0.75925 0.07156 0.54212 0.0
H79 H 0.79093 0.12029 0.50028 0.0
La80 La 0.5052 0.68109 0.8524 0.0
La81 La 0.63041 0.7635 0.83361 0.0
C82 C 0.41727 0.59255 0.87151 0.0
C83 C 0.39581 0.57921 0.89826 0.0
C84 C 0.37448 0.61276 0.91068 0.0
C85 C 0.35986 0.60395 0.93662 0.0
C86 C 0.36626 0.56149 0.95081 0.0
C87 C 0.386 0.52676 0.93825 0.0
C88 C 0.40056 0.53551 0.91223 0.0
C89 C 0.53664 0.79178 0.85918 0.0
C90 C 0.61795 0.71621 0.88951 0.0
C91 C 0.72095 0.84328 0.81081 0.0
C92 C 0.73242 0.87137 0.78503 0.0
C93 C 0.77717 0.87244 0.76971 0.0
C94 C 0.78753 0.89615 0.7449 0.0
C95 C 0.75353 0.91983 0.73469 0.0
C96 C 0.70871 0.91888 0.75014 0.0
C97 C 0.69833 0.895 0.77498 0.0
C98 C 0.58504 0.64844 0.82504 0.0
C99 C 0.51947 0.73655 0.79849 0.0
O100 O 0.41435 0.63615 0.86028 0.0
O101 O 0.46767 0.59438 0.86695 0.0
O102 O 0.48252 0.74903 0.85827 0.0
O103 O 0.57172 0.77104 0.86035 0.0
O104 O 0.561 0.68167 0.88419 0.0
O105 O 0.65461 0.75732 0.87318 0.0
O106 O 0.7061 0.78745 0.81118 0.0
O107 O 0.68937 0.8543 0.82701 0.0
O108 O 0.6403 0.68385 0.83018 0.0
O109 O 0.55982 0.67833 0.82373 0.0
O110 O 0.57438 0.77442 0.80534 0.0
O111 O 0.48611 0.68808 0.81213 0.0
H112 H 0.37007 0.64675 0.90055 0.0
H113 H 0.34365 0.6306 0.94559 0.0
H114 H 0.39176 0.49392 0.94868 0.0
H115 H 0.41698 0.50912 0.90316 0.0
H116 H 0.80384 0.85415 0.77686 0.0
H117 H 0.82166 0.89488 0.73357 0.0
H118 H 0.68194 0.93717 0.74318 0.0
H119 H 0.6635 0.89494 0.7862 0.0
La120 La 0.69404 0.50831 0.10107 0.0
La121 La 0.76836 0.6354 0.12006 0.0
C122 C 0.61208 0.41754 0.08061 0.0
C123 C 0.59706 0.40039 0.05365 0.0
C124 C 0.59644 0.34947 0.04457 0.0
C125 C 0.58843 0.33579 1.01856 0.0
C126 C 0.58078 0.37279 1.00116 0.0
C127 C 0.58002 0.42304 1.01036 0.0
C128 C 0.58796 0.43666 0.03636 0.0
C129 C 0.80737 0.54804 0.09948 0.0
C130 C 0.72859 0.62007 0.06284 0.0
C131 C 0.84893 0.72337 0.1432 0.0
C132 C 0.87338 0.73146 0.16965 0.0
C133 C 0.84847 0.74745 0.18985 0.0
C134 C 0.87059 0.75394 0.2148 0.0
C135 C 0.91858 0.7451 0.22027 0.0
C136 C 0.94378 0.72949 0.20004 0.0
C137 C 0.92151 0.72279 0.17508 0.0
C138 C 0.6524 0.58647 0.12488 0.0
C139 C 0.73456 0.52406 0.15774 0.0
O140 O 0.6616 0.42125 0.08842 0.0
O141 O 0.60595 0.46185 0.08869 0.0
O142 O 0.76799 0.49264 0.10159 0.0
O143 O 0.78277 0.57877 0.09531 0.0
O144 O 0.69804 0.56232 0.06775 0.0
O145 O 0.76378 0.65886 0.08015 0.0
O146 O 0.79463 0.71336 0.14099 0.0
O147 O 0.85904 0.68976 0.1278 0.0
O148 O 0.68745 0.64285 0.12124 0.0
O149 O 0.68341 0.5626 0.12756 0.0
O150 O 0.76941 0.58079 0.15208 0.0
O151 O 0.69351 0.48751 0.14159 0.0
H152 H 0.60329 0.32085 0.05756 0.0
H153 H 0.58802 0.29611 1.01209 0.0
H154 H 0.57458 0.45258 0.99739 0.0
H155 H 0.58832 0.47635 0.04276 0.0
H156 H 0.81172 0.75501 0.18642 0.0
H157 H 0.85063 0.76691 0.22976 0.0
H158 H 0.98041 0.7218 0.20354 0.0
H159 H 0.94196 0.71056 0.16005 0.0
La160 La 0.33016 0.84084 0.51945 0.0
La161 La 0.23948 0.87309 0.50012 0.0
C162 C 0.4215 0.84682 0.53861 0.0
C163 C 0.43296 0.83884 0.56544 0.0
C164 C 0.39087 0.8303 0.58418 0.0
C165 C 0.39911 0.81921 0.60954 0.0
C166 C 0.44939 0.81581 0.61668 0.0
C167 C 0.4919 0.82505 0.59785 0.0
C168 C 0.48367 0.83643 0.57238 0.0
C169 C 0.22191 0.75709 0.52853 0.0
C170 C 0.28908 0.9159 0.55473 0.0
C171 C 0.15631 0.87839 0.47733 0.0
C172 C 0.12738 0.85892 0.45197 0.0
C173 C 0.11964 0.8991 0.43673 0.0
C174 C 0.09667 0.88395 0.41194 0.0
C175 C 0.0807 0.82804 0.4017 0.0
C176 C 0.08742 0.7873 0.41718 0.0
C177 C 0.11064 0.80263 0.44201 0.0
C178 C 0.35257 0.94887 0.49066 0.0
C179 C 0.27443 0.79311 0.46637 0.0
O180 O 0.37947 0.79916 0.52783 0.0
O181 O 0.41612 0.89342 0.53386 0.0
O182 O 0.26737 0.74977 0.52781 0.0
O183 O 0.23897 0.81207 0.52808 0.0
O184 O 0.32867 0.8998 0.54903 0.0
O185 O 0.24375 0.90367 0.53945 0.0
O186 O 0.21148 0.92041 0.47671 0.0
O187 O 0.14781 0.83785 0.49433 0.0
O188 O 0.31396 0.96471 0.49611 0.0
O189 O 0.32697 0.89384 0.48983 0.0
O190 O 0.23317 0.80602 0.47308 0.0
O191 O 0.32417 0.81319 0.47961 0.0
H192 H 0.35108 0.83138 0.57914 0.0
H193 H 0.36602 0.81337 0.62357 0.0
H194 H 0.53085 0.82218 0.60266 0.0
H195 H 0.51631 0.8424 0.55809 0.0
H196 H 0.13224 0.94279 0.44391 0.0
H197 H 0.09133 0.91614 0.40077 0.0
H198 H 0.07613 0.74406 0.40989 0.0
H199 H 0.11629 0.77076 0.45319 0.0
La200 La 0.48733 0.18547 0.76577 0.0
La201 La 0.36385 0.12682 0.78795 0.0
C202 C 0.58996 0.22037 0.74928 0.0
C203 C 0.6121 0.23214 0.72283 0.0
C204 C 0.67292 0.26172 0.71766 0.0
C205 C 0.69314 0.27163 0.69229 0.0
C206 C 0.65268 0.25167 0.67184 0.0
C207 C 0.59181 0.22295 0.67722 0.0
C208 C 0.57175 0.21352 0.70246 0.0
C209 C 0.42786 0.24229 0.75643 0.0
C210 C 0.37904 0.10027 0.73144 0.0
C211 C 0.27279 0.10601 0.81323 0.0
C212 C 0.26195 0.1274 0.83786 0.0
C213 C 0.21822 0.08674 0.85447 0.0
C214 C 0.20981 0.1042 0.87871 0.0
C215 C 0.24497 0.16302 0.88709 0.0
C216 C 0.28861 0.20395 0.87026 0.0
C217 C 0.29695 0.18636 0.84592 0.0
C218 C 0.41724 0.0625 0.78815 0.0
C219 C 0.47358 0.21137 0.82334 0.0
O220 O 0.57249 0.25623 0.75811 0.0
O221 O 0.55198 0.16471 0.75438 0.0
O222 O 0.46119 0.23512 0.74013 0.0
O223 O 0.42694 0.2145 0.77627 0.0
O224 O 0.43453 0.11779 0.73774 0.0
O225 O 0.34364 0.10862 0.74704 0.0
O226 O 0.2994 0.07482 0.81521 0.0
O227 O 0.29323 0.14331 0.7939 0.0
O228 O 0.36087 0.04089 0.78468 0.0
O229 O 0.43976 0.11669 0.79231 0.0
O230 O 0.41568 0.1805 0.82001 0.0
O231 O 0.51135 0.21706 0.80508 0.0
H232 H 0.70463 0.27662 0.73317 0.0
H233 H 0.7403 0.29355 0.68868 0.0
H234 H 0.55964 0.2078 0.66188 0.0
H235 H 0.52459 0.19123 0.70608 0.0
H236 H 0.19113 0.04089 0.84887 0.0
H237 H 0.17653 0.07098 0.89114 0.0
H238 H 0.31632 0.24968 0.87584 0.0
H239 H 0.33148 0.21864 0.83363 0.0
H240 H 0.17059 0.71784 0.44346 0.0
H241 H 0.35974 0.79872 0.43396 0.0
H242 H 0.15568 0.67815 0.40037 0.0
H243 H 0.34502 0.75976 0.39043 0.0
H244 H 0.29421 0.64564 0.31846 0.0
H245 H 0.30792 0.67314 0.36358 0.0
H246 H 0.16982 0.71889 0.35804 0.0
H247 H 0.15567 0.69056 0.31312 0.0
C248 C 0.20903 0.72691 0.43214 0.0
C249 C 0.26637 0.76205 0.44189 0.0
C250 C 0.20049 0.70437 0.40739 0.0
C251 C 0.24915 0.71667 0.39174 0.0
C252 C 0.30654 0.74923 0.40201 0.0
C253 C 0.31506 0.77157 0.42693 0.0
C254 C 0.26696 0.66177 0.32691 0.0
C255 C 0.22391 0.66605 0.31226 0.0
C256 C 0.27483 0.67754 0.35275 0.0
C257 C 0.23993 0.6981 0.36448 0.0
C258 C 0.19671 0.70212 0.34978 0.0
C259 C 0.18865 0.68607 0.324 0.0
H260 H 0.74201 0.35036 0.64868 0.0
H261 H 0.61008 0.16845 0.63435 0.0
H262 H 0.77724 0.35996 0.60446 0.0
H263 H 0.64476 0.17824 0.59031 0.0
H264 H 0.77866 0.19759 0.52836 0.0
H265 H 0.73902 0.19177 0.57097 0.0
H266 H 0.74172 0.3571 0.55805 0.0
H267 H 0.7819 0.36316 0.51495 0.0
C268 C 0.72055 0.31257 0.63607 0.0
C269 C 0.67343 0.25863 0.64495 0.0
C270 C 0.74027 0.31823 0.61075 0.0
C271 C 0.71373 0.26982 0.59401 0.0
C272 C 0.66626 0.21617 0.60285 0.0
C273 C 0.6462 0.2107 0.628 0.0
C274 C 0.77082 0.23278 0.53448 0.0
C275 C 0.7836 0.28095 0.51828 0.0
C276 C 0.74771 0.22919 0.55888 0.0
C277 C 0.7372 0.27392 0.56779 0.0
C278 C 0.74976 0.32218 0.55165 0.0
C279 C 0.77235 0.32544 0.52699 0.0
H280 H 0.29442 0.44349 0.1093 0.0
H281 H 0.24517 0.579 0.10355 0.0
H282 H 0.33127 0.46398 0.06557 0.0
H283 H 0.28206 0.59958 0.05951 0.0
H284 H 0.39411 0.64823 0.98639 0.0
H285 H 0.36983 0.63627 0.0319 0.0
H286 H 0.28429 0.44633 1.0237 0.0
H287 H 0.30839 0.45823 0.97824 0.0
C288 C 0.29179 0.47795 0.09871 0.0
C289 C 0.26607 0.50903 0.10969 0.0
C290 C 0.31278 0.48957 0.07362 0.0
C291 C 0.30869 0.5327 0.05893 0.0
C292 C 0.28601 0.56618 0.07038 0.0
C293 C 0.26492 0.55448 0.09559 0.0
C294 C 0.36979 0.6039 0.99428 0.0
C295 C 0.35291 0.55414 0.97866 0.0
C296 C 0.35599 0.5971 1.02036 0.0
C297 C 0.32521 0.54042 0.03142 0.0
C298 C 0.30893 0.49069 1.01585 0.0
C299 C 0.32267 0.49747 0.98979 0.0
H300 H 0.85003 0.44943 0.30205 0.0
H301 H 0.67411 0.41876 0.31755 0.0
H302 H 0.83997 0.46966 0.25727 0.0
H303 H 0.66424 0.43966 0.27255 0.0
H304 H 0.65311 0.42452 0.18355 0.0
H305 H 0.65999 0.39644 0.22778 0.0
H306 H 0.83293 0.55137 0.23459 0.0
H307 H 0.82636 0.57934 0.19081 0.0
C308 C 0.80906 0.44668 0.29582 0.0
C309 C 0.76283 0.43254 0.31327 0.0
C310 C 0.80345 0.45858 0.27024 0.0
C311 C 0.75133 0.45619 0.26147 0.0
C312 C 0.7047 0.4413 0.2788 0.0
C313 C 0.71056 0.42997 0.30453 0.0
C314 C 0.69274 0.45216 0.19446 0.0
C315 C 0.73915 0.50406 0.1837 0.0
C316 C 0.69645 0.43637 0.21978 0.0
C317 C 0.74698 0.47176 0.23456 0.0
C318 C 0.7937 0.52296 0.22358 0.0
C319 C 0.78975 0.53905 0.1985 0.0
H320 H 0.55655 0.84214 0.77511 0.0
H321 H 0.43842 0.65466 0.76549 0.0
H322 H 0.53691 0.86028 0.73154 0.0
H323 H 0.41913 0.67262 0.72139 0.0
H324 H 0.36468 0.73601 0.64928 0.0
H325 H 0.37596 0.71689 0.69405 0.0
H326 H 0.5628 0.84357 0.68949 0.0
H327 H 0.55104 0.86478 0.64514 0.0
C328 C 0.52611 0.80476 0.76365 0.0
C329 C 0.49953 0.7469 0.77355 0.0
C330 C 0.51511 0.81513 0.73861 0.0
C331 C 0.47737 0.76782 0.72278 0.0
C332 C 0.44834 0.71008 0.7331 0.0
C333 C 0.45922 0.69972 0.75834 0.0
C334 C 0.40807 0.76027 0.65792 0.0
C335 C 0.4569 0.8023 0.64365 0.0
C336 C 0.41462 0.74876 0.68351 0.0
C337 C 0.47016 0.77894 0.69543 0.0
C338 C 0.51915 0.82026 0.68104 0.0
C339 C 0.5126 0.83187 0.65548 0.0
H340 H 0.50185 0.37884 0.96872 0.0
H341 H 0.64096 0.33413 0.97128 0.0
H342 H 0.48281 0.34797 0.92417 0.0
H343 H 0.62049 0.30138 0.92681 0.0
H344 H 0.58831 0.28618 0.83887 0.0
H345 H 0.6205 0.33366 0.88085 0.0
H346 H 0.43852 0.24735 0.90609 0.0
H347 H 0.4067 0.20027 0.86498 0.0
C348 C 0.52888 0.36315 0.95967 0.0
C349 C 0.57243 0.35825 0.97356 0.0
C350 C 0.51772 0.34512 0.93423 0.0
C351 C 0.54983 0.32177 0.92216 0.0
C352 C 0.59528 0.31944 0.93563 0.0
C353 C 0.6064 0.33742 0.96114 0.0
C354 C 0.55538 0.2775 0.85344 0.0
C355 C 0.49494 0.23986 0.84847 0.0
C356 C 0.57376 0.3046 0.87739 0.0
C357 C 0.53187 0.29479 0.89654 0.0
C358 C 0.47171 0.25689 0.89152 0.0
C359 C 0.45353 0.22968 0.86788 0.0
H360 H 0.36566 0.51092 0.22445 0.0
H361 H 0.27811 0.39539 0.16089 0.0
H362 H 0.46126 0.53385 0.20667 0.0
H363 H 0.37344 0.41738 0.14329 0.0
H364 H 0.58022 0.4701 0.13561 0.0
H365 H 0.48328 0.42383 0.15619 0.0
H366 H 0.49159 0.59342 0.15902 0.0
H367 H 0.58805 0.63982 0.13742 0.0
C368 C 0.36656 0.48749 0.2075 0.0
C369 C 0.31424 0.4516 0.19393 0.0
C370 C 0.42127 0.50149 0.19714 0.0
C371 C 0.42424 0.47861 0.17334 0.0
C372 C 0.37195 0.43586 0.16163 0.0
C373 C 0.31709 0.42242 0.17194 0.0
C374 C 0.56078 0.49736 0.13998 0.0
C375 C 0.59133 0.55854 0.13464 0.0
C376 C 0.50561 0.47081 0.15195 0.0
C377 C 0.48084 0.50532 0.15939 0.0
C378 C 0.51057 0.56622 0.15364 0.0
C379 C 0.5653 0.59262 0.14114 0.0
H380 H 0.13567 0.74167 0.49393 0.0
H381 H 0.17817 0.65399 0.55334 0.0
H382 H 0.06552 0.64657 0.47568 0.0
H383 H 0.10861 0.55838 0.53494 0.0
H384 H 0.07373 0.42737 0.46847 0.0
H385 H 0.12673 0.52378 0.48969 0.0
H386 H 0.97069 0.54142 0.48525 0.0
H387 H 0.91739 0.44481 0.46476 0.0
C388 C 0.12779 0.70248 0.50395 0.0
C389 C 0.16254 0.70569 0.52503 0.0
C390 C 0.0882 0.64769 0.49324 0.0
C391 C 0.08329 0.59552 0.50352 0.0
C392 C 0.11277 0.59825 0.52635 0.0
C393 C 0.1517 0.65288 0.53711 0.0
C394 C 0.05119 0.45232 0.47166 0.0
C395 C 0.9917 0.42892 0.46484 0.0
C396 C 0.08114 0.50698 0.48402 0.0
C397 C 0.05222 0.53926 0.48937 0.0
C398 C 0.99373 0.51723 0.48137 0.0
C399 C 0.96355 0.46223 0.46946 0.0
H400 H 0.53389 0.10429 0.79777 0.0
H401 H 0.36361 0.94451 0.79949 0.0
H402 H 0.57929 0.0513 0.81783 0.0
H403 H 0.40886 0.89223 0.82031 0.0
H404 H 0.60821 0.87497 0.82375 0.0
H405 H 0.58676 0.94889 0.80576 0.0
H406 H 0.4646 0.91646 0.86756 0.0
H407 H 0.48696 0.84328 0.88563 0.0
C408 C 0.5064 0.05762 0.80202 0.0
C409 C 0.44525 0.02832 0.79696 0.0
C410 C 0.53238 0.02761 0.81364 0.0
C411 C 0.49731 0.96822 0.8209 0.0
C412 C 0.43656 0.9384 0.81514 0.0
C413 C 0.41079 0.96807 0.80307 0.0
C414 C 0.57989 0.88614 0.83435 0.0
C415 C 0.54948 0.85326 0.85607 0.0
C416 C 0.56678 0.92792 0.82383 0.0
C417 C 0.52288 0.93692 0.83499 0.0
C418 C 0.49794 0.90945 0.85841 0.0
C419 C 0.51153 0.86834 0.86896 0.0
H420 H 0.46905 0.57403 0.81584 0.0
H421 H 0.64052 0.58694 0.81043 0.0
H422 H 0.42342 0.47707 0.79574 0.0
H423 H 0.59455 0.48942 0.78987 0.0
H424 H 0.5035 0.34459 0.73099 0.0
H425 H 0.53988 0.44447 0.74729 0.0
H426 H 0.40755 0.37485 0.80691 0.0
H427 H 0.37148 0.27474 0.79081 0.0
C428 C 0.49696 0.55583 0.81056 0.0
C429 C 0.55834 0.58779 0.81486 0.0
C430 C 0.47074 0.5004 0.79896 0.0
C431 C 0.50546 0.47605 0.79102 0.0
C432 C 0.56689 0.5077 0.79549 0.0
C433 C 0.59311 0.56304 0.80749 0.0
C434 C 0.48071 0.35068 0.747 0.0
C435 C 0.43477 0.30171 0.75976 0.0
C436 C 0.50225 0.40782 0.75657 0.0
C437 C 0.47748 0.4171 0.77871 0.0
C438 C 0.4277 0.3689 0.78989 0.0
C439 C 0.40666 0.31168 0.78053 0.0
H440 H 0.12352 0.52542 0.1298 0.0
H441 H 0.96761 0.3997 0.17134 0.0
H442 H 0.07131 0.57575 0.11443 0.0
H443 H 0.91581 0.45167 0.15642 0.0
H444 H 0.86668 0.59508 0.14395 0.0
H445 H 0.94208 0.57443 0.16015 0.0
H446 H 0.96284 0.52068 0.08474 0.0
H447 H 0.88474 0.53856 0.06873 0.0
C448 C 0.07826 0.50899 0.1359 0.0
C449 C 0.04926 0.45852 0.15167 0.0
C450 C 0.04869 0.53793 0.12712 0.0
C451 C 0.99016 0.5178 0.13452 0.0
C452 C 0.96141 0.4682 0.15078 0.0
C453 C 0.99063 0.43829 0.15912 0.0
C454 C 0.88893 0.5816 0.1305 0.0
C455 C 0.86967 0.56841 0.10504 0.0
C456 C 0.9318 0.56919 0.1399 0.0
C457 C 0.95708 0.54505 0.12372 0.0
C458 C 0.94367 0.53929 0.09752 0.0
C459 C 0.89972 0.55039 0.08829 0.0
H460 H 0.43511 0.91708 0.48111 0.0
H461 H 0.40415 0.06512 0.47634 0.0
H462 H 0.53337 0.97738 0.46292 0.0
H463 H 0.5016 0.12511 0.45691 0.0
H464 H 0.70148 0.23356 0.4558 0.0
H465 H 0.60064 0.17145 0.46974 0.0
H466 H 0.59012 0.02648 0.42544 0.0
H467 H 0.6941 0.08953 0.41231 0.0
C468 C 0.44942 0.96265 0.47608 0.0
C469 C 0.41252 0.98687 0.48045 0.0
C470 C 0.50544 -0.00305 0.4653 0.0
C471 C 0.52557 0.05612 0.45838 0.0
C472 C 0.48799 0.07996 0.46241 0.0
C473 C 0.43219 0.04578 0.47354 0.0
C474 C 0.67764 0.18841 0.44896 0.0
C475 C 0.70549 0.16601 0.43315 0.0
C476 C 0.61943 0.1529 0.45673 0.0
C477 C 0.58683 0.09398 0.44862 0.0
C478 C 0.61425 0.07162 0.43224 0.0
C479 C 0.67341 0.10752 0.42456 0.0
H480 H 0.3293 0.24045 0.92097 0.0
H481 H 0.14061 0.12621 0.91305 0.0
H482 H 0.31446 0.26493 0.96447 0.0
H483 H 0.12607 0.15004 0.95643 0.0
H484 H 0.12603 0.1493 0.04363 0.0
H485 H 0.14412 0.13031 0.99999 0.0
H486 H 0.27279 0.3153 0.99014 0.0
H487 H 0.25419 0.33466 0.03395 0.0
C488 C 0.2846 0.22098 0.92831 0.0
C489 C 0.23624 0.18079 0.91336 0.0
C490 C 0.27611 0.235 0.95335 0.0
C491 C 0.21908 0.20902 0.9642 0.0
C492 C 0.17077 0.16994 0.94902 0.0
C493 C 0.17917 0.15618 0.92404 0.0
C494 C 0.15776 0.18625 0.03218 0.0
C495 C 0.18811 0.24371 0.04248 0.0
C496 C 0.16822 0.17527 1.00704 0.0
C497 C 0.20959 0.22127 0.99131 0.0
C498 C 0.24095 0.27862 1.00169 0.0
C499 C 0.23029 0.28971 1.0269 0.0
H500 H 0.98608 0.39852 0.37648 0.0
H501 H 0.91502 0.21084 0.36652 0.0
H502 H 0.033 0.41747 0.33495 0.0
H503 H 0.96008 0.2295 0.32367 0.0
H504 H 0.09122 0.29444 0.25388 0.0
H505 H 0.04576 0.26749 0.29659 0.0
H506 H 0.00867 0.41182 0.2924 0.0
H507 H 0.05607 0.43984 0.25096 0.0
C508 C 0.98013 0.36103 0.36527 0.0
C509 C 0.9462 0.30308 0.37481 0.0
C510 C 0.00674 0.37188 0.34115 0.0
C511 C -0.00062 0.32508 0.32529 0.0
C512 C 0.96698 0.26687 0.33518 0.0
C513 C 0.94098 0.25604 0.35975 0.0
C514 C 0.07312 0.32013 0.26217 0.0
C515 C 0.07813 0.36983 0.24908 0.0
C516 C 0.04683 0.30461 0.28667 0.0
C517 C 0.02435 0.33807 0.29851 0.0
C518 C 0.02717 0.386 0.28465 0.0
C519 C 0.05407 0.40192 0.26058 0.0
H520 H 0.67299 0.91416 0.69874 0.0
H521 H 0.86036 0.98377 0.71008 0.0
H522 H 0.69236 0.95343 0.65506 0.0
H523 H 0.87928 0.02166 0.66643 0.0
H524 H 0.88543 0.02145 0.57924 0.0
H525 H 0.86153 0.98177 0.62254 0.0
H526 H 0.74086 0.04926 0.63042 0.0
H527 H 0.76578 0.09049 0.58713 0.0
C528 C 0.71833 0.93816 0.69209 0.0
C529 C 0.76499 0.94518 0.70809 0.0
C530 C 0.72939 0.96059 0.66696 0.0
C531 C 0.78735 0.99028 0.6571 0.0
C532 C 0.83397 -0.002 0.67318 0.0
C533 C 0.82301 0.97603 0.69828 0.0
C534 C 0.8542 0.02851 0.59018 0.0
C535 C 0.82816 0.05996 0.57956 0.0
C536 C 0.84038 0.00552 0.61508 0.0
C537 C 0.79966 0.01273 0.63012 0.0
C538 C 0.77213 0.04254 0.61933 0.0
C539 C 0.78636 0.06606 0.59442 0.0
H540 H 0.55703 0.62703 0.92387 0.0
H541 H 0.72696 0.78447 0.91306 0.0
H542 H 0.58935 0.60919 0.96476 0.0
H543 H 0.75955 0.76611 0.95467 0.0
H544 H 0.75916 0.73296 0.04558 0.0
H545 H 0.73749 0.76049 1.00343 0.0
H546 H 0.66112 0.579 0.97903 0.0
H547 H 0.68319 0.552 1.02036 0.0
C548 C 0.60146 0.65811 0.93015 0.0
C549 C 0.63939 0.7072 0.91485 0.0
C550 C 0.62012 0.64757 0.95371 0.0
C551 C 0.6773 0.68584 0.96303 0.0
C552 C 0.71516 0.73578 0.94811 0.0
C553 C 0.69657 0.74611 0.9242 0.0
C554 C 0.73838 0.69917 0.03109 0.0
C555 C 0.72184 0.63991 0.03671 0.0
C556 C 0.72602 0.71496 1.00691 0.0
C557 C 0.69657 0.67178 0.98792 0.0
C558 C 0.68254 0.61326 0.9933 0.0
C559 C 0.69515 0.59771 1.01717 0.0
H560 H 0.98887 0.72349 0.38359 0.0
H561 H 0.12118 0.89845 0.35895 0.0
H562 H 0.95079 0.70031 0.33985 0.0
H563 H 0.08238 0.87586 0.31551 0.0
H564 H 0.0349 0.79905 0.23521 0.0
H565 H 0.07452 0.81542 0.27861 0.0
H566 H 0.8969 0.7276 0.30911 0.0
H567 H 0.85725 0.70981 0.26567 0.0
C568 C 0.01003 0.75693 0.36885 0.0
C569 C 0.05797 0.81298 0.3749 0.0
C570 C 0.98784 0.74383 0.3438 0.0
C571 C 0.01336 0.78622 0.32407 0.0
C572 C 0.06188 0.84189 0.33008 0.0
C573 C 0.08375 0.85511 0.35512 0.0
C574 C 0.00423 0.78255 0.25114 0.0
C575 C 0.9428 0.75329 0.24685 0.0
C576 C 0.02699 0.7925 0.27608 0.0
C577 C 0.989 0.77317 0.29746 0.0
C578 C 0.92755 0.74278 0.29316 0.0
C579 C 0.90478 0.73314 0.26822 0.0
H580 H 0.4228 0.04089 0.70525 0.0
H581 H 0.28735 0.0901 0.70075 0.0
H582 H 0.39626 -0.00277 0.66318 0.0
H583 H 0.26179 0.04789 0.65747 0.0
H584 H 0.20501 0.91827 0.58661 0.0
H585 H 0.2213 0.96117 0.62976 0.0
H586 H 0.40917 0.02952 0.62088 0.0
H587 H 0.39261 0.98512 0.57895 0.0
C588 C 0.38732 0.04267 0.69518 0.0
C589 C 0.3577 0.06969 0.70637 0.0
C590 C 0.37231 0.01791 0.67079 0.0
C591 C 0.32779 0.02017 0.65636 0.0
C592 C 0.29637 0.04526 0.66789 0.0
C593 C 0.31104 0.06957 0.6927 0.0
C594 C 0.24972 0.94295 0.59392 0.0
C595 C 0.29739 0.94753 0.57944 0.0
C596 C 0.25915 0.96762 0.61865 0.0
C597 C 0.31651 -0.0022 0.62928 0.0
C598 C 0.36411 0.00491 0.61398 0.0
C599 C 0.35465 0.97977 0.58967 0.0
loop_
_geom_bond_atom_site_label_1
_geom_bond_atom_site_label_2
_geom_bond_distance
_geom_bond_site_symmetry_2
_ccdc_geom_bond_type
La0 C2 2.928 . S
La0 O20 2.521 . S
La0 O21 2.628 . S
La0 O22 2.554 . S
La0 O23 2.757 . S
La0 O24 2.470 . S
La0 O29 2.482 . S
La0 O31 2.503 . S
La1 C11 2.928 . S
La1 O23 2.482 . S
La1 O25 2.503 . S
La1 O26 2.521 . S
La1 O27 2.628 . S
La1 O28 2.554 . S
La1 O29 2.757 . S
La1 O30 2.470 . S
C2 La0 2.928 . S
C2 C3 1.503 . S
C2 O20 1.261 . S
C2 O21 1.243 . S
C3 C2 1.503 . S
C3 C4 1.394 . S
C3 C8 1.373 . S
C4 C3 1.394 . S
C4 C5 1.380 . S
C4 H32 0.930 . S
C5 C4 1.380 . S
C5 C6 1.376 . S
C5 H33 0.930 . S
C6 C5 1.376 . S
C6 C7 1.370 . S
C7 C6 1.370 . S
C7 C8 1.396 . S
C7 H34 0.929 . S
C8 C3 1.373 . S
C8 C7 1.396 . S
C8 H35 0.929 . S
C9 O22 1.240 . S
C9 O23 1.289 . S
C10 O24 1.258 . S
C10 O25 1.256 . S
C11 La1 2.928 . S
C11 C12 1.503 . S
C11 O26 1.261 . S
C11 O27 1.243 . S
C12 C11 1.503 . S
C12 C13 1.394 . S
C12 C17 1.373 . S
C13 C12 1.394 . S
C13 C14 1.380 . S
C13 H36 0.930 . S
C14 C13 1.380 . S
C14 C15 1.376 . S
C14 H37 0.930 . S
C15 C14 1.376 . S
C15 C16 1.370 . S
C16 C15 1.370 . S
C16 C17 1.396 . S
C16 H38 0.929 . S
C17 C12 1.373 . S
C17 C16 1.396 . S
C17 H39 0.929 . S
C18 O28 1.240 . S
C18 O29 1.289 . S
C19 O30 1.258 . S
C19 O31 1.256 . S
O20 La0 2.521 . S
O20 C2 1.261 . S
O21 La0 2.628 . S
O21 C2 1.243 . S
O22 La0 2.554 . S
O22 C9 1.240 . S
O23 La0 2.757 . S
O23 La1 2.482 . S
O23 C9 1.289 . S
O24 La0 2.470 . S
O24 C10 1.258 . S
O25 La1 2.503 . S
O25 C10 1.256 . S
O26 La1 2.521 . S
O26 C11 1.261 . S
O27 La1 2.628 . S
O27 C11 1.243 . S
O28 La1 2.554 . S
O28 C18 1.240 . S
O29 La0 2.482 . S
O29 La1 2.757 . S
O29 C18 1.289 . S
O30 La1 2.470 . S
O30 C19 1.258 . S
O31 La0 2.503 . S
O31 C19 1.256 . S
H32 C4 0.930 . S
H33 C5 0.930 . S
H34 C7 0.929 . S
H35 C8 0.929 . S
H36 C13 0.930 . S
H37 C14 0.930 . S
H38 C16 0.929 . S
H39 C17 0.929 . S
La40 C42 2.928 . S
La40 O60 2.521 . S
La40 O61 2.628 . S
La40 O62 2.554 . S
La40 O63 2.757 . S
La40 O64 2.470 . S
La40 O69 2.482 . S
La40 O71 2.503 . S
La41 C51 2.928 . S
La41 O63 2.482 . S
La41 O65 2.503 . S
La41 O66 2.521 . S
La41 O67 2.628 . S
La41 O68 2.554 1_655 S
La41 O69 2.757 . S
La41 O70 2.470 . S
C42 La40 2.928 . S
C42 C43 1.503 . S
C42 O60 1.261 . S
C42 O61 1.243 . S
C43 C42 1.503 . S
C43 C44 1.394 . S
C43 C48 1.373 . S
C44 C43 1.394 . S
C44 C45 1.380 . S
C44 H72 0.930 . S
C45 C44 1.380 . S
C45 C46 1.376 . S
C45 H73 0.930 . S
C46 C45 1.376 . S
C46 C47 1.370 . S
C47 C46 1.370 . S
C47 C48 1.396 . S
C47 H74 0.929 . S
C48 C43 1.373 . S
C48 C47 1.396 . S
C48 H75 0.929 . S
C49 O62 1.240 . S
C49 O63 1.289 . S
C50 O64 1.258 . S
C50 O65 1.256 . S
C51 La41 2.928 . S
C51 C52 1.503 . S
C51 O66 1.261 . S
C51 O67 1.243 . S
C52 C51 1.503 . S
C52 C53 1.394 . S
C52 C57 1.373 . S
C53 C52 1.394 . S
C53 C54 1.380 . S
C53 H76 0.930 1_655 S
C54 C53 1.380 . S
C54 C55 1.376 . S
C54 H77 0.930 1_655 S
C55 C54 1.376 . S
C55 C56 1.370 . S
C56 C55 1.370 . S
C56 C57 1.396 . S
C56 H78 0.929 . S
C57 C52 1.373 . S
C57 C56 1.396 . S
C57 H79 0.929 . S
C58 O68 1.240 1_655 S
C58 O69 1.289 . S
C59 O70 1.258 . S
C59 O71 1.256 . S
O60 La40 2.521 . S
O60 C42 1.261 . S
O61 La40 2.628 . S
O61 C42 1.243 . S
O62 La40 2.554 . S
O62 C49 1.240 . S
O63 La40 2.757 . S
O63 La41 2.482 . S
O63 C49 1.289 . S
O64 La40 2.470 . S
O64 C50 1.258 . S
O65 La41 2.503 . S
O65 C50 1.256 . S
O66 La41 2.521 . S
O66 C51 1.261 . S
O67 La41 2.628 . S
O67 C51 1.243 . S
O68 La41 2.554 1_455 S
O68 C58 1.240 1_455 S
O69 La40 2.482 . S
O69 La41 2.757 . S
O69 C58 1.289 . S
O70 La41 2.470 . S
O70 C59 1.258 . S
O71 La40 2.503 . S
O71 C59 1.256 . S
H72 C44 0.930 . S
H73 C45 0.930 . S
H74 C47 0.929 . S
H75 C48 0.929 . S
H76 C53 0.930 1_455 S
H77 C54 0.930 1_455 S
H78 C56 0.929 . S
H79 C57 0.929 . S
La80 C82 2.928 . S
La80 O100 2.521 . S
La80 O101 2.628 . S
La80 O102 2.554 . S
La80 O103 2.757 . S
La80 O104 2.470 . S
La80 O109 2.482 . S
La80 O111 2.503 . S
La81 C91 2.928 . S
La81 O103 2.482 . S
La81 O105 2.503 . S
La81 O106 2.521 . S
La81 O107 2.628 . S
La81 O108 2.554 . S
La81 O109 2.757 . S
La81 O110 2.470 . S
C82 La80 2.928 . S
C82 C83 1.503 . S
C82 O100 1.261 . S
C82 O101 1.243 . S
C83 C82 1.503 . S
C83 C84 1.394 . S
C83 C88 1.373 . S
C84 C83 1.394 . S
C84 C85 1.380 . S
C84 H112 0.930 . S
C85 C84 1.380 . S
C85 C86 1.376 . S
C85 H113 0.930 . S
C86 C85 1.376 . S
C86 C87 1.370 . S
C87 C86 1.370 . S
C87 C88 1.396 . S
C87 H114 0.929 . S
C88 C83 1.373 . S
C88 C87 1.396 . S
C88 H115 0.929 . S
C89 O102 1.240 . S
C89 O103 1.289 . S
C90 O104 1.258 . S
C90 O105 1.256 . S
C91 La81 2.928 . S
C91 C92 1.503 . S
C91 O106 1.261 . S
C91 O107 1.243 . S
C92 C91 1.503 . S
C92 C93 1.394 . S
C92 C97 1.373 . S
C93 C92 1.394 . S
C93 C94 1.380 . S
C93 H116 0.930 . S
C94 C93 1.380 . S
C94 C95 1.376 . S
C94 H117 0.930 . S
C95 C94 1.376 . S
C95 C96 1.370 . S
C96 C95 1.370 . S
C96 C97 1.396 . S
C96 H118 0.929 . S
C97 C92 1.373 . S
C97 C96 1.396 . S
C97 H119 0.929 . S
C98 O108 1.240 . S
C98 O109 1.289 . S
C99 O110 1.258 . S
C99 O111 1.256 . S
O100 La80 2.521 . S
O100 C82 1.261 . S
O101 La80 2.628 . S
O101 C82 1.243 . S
O102 La80 2.554 . S
O102 C89 1.240 . S
O103 La80 2.757 . S
O103 La81 2.482 . S
O103 C89 1.289 . S
O104 La80 2.470 . S
O104 C90 1.258 . S
O105 La81 2.503 . S
O105 C90 1.256 . S
O106 La81 2.521 . S
O106 C91 1.261 . S
O107 La81 2.628 . S
O107 C91 1.243 . S
O108 La81 2.554 . S
O108 C98 1.240 . S
O109 La80 2.482 . S
O109 La81 2.757 . S
O109 C98 1.289 . S
O110 La81 2.470 . S
O110 C99 1.258 . S
O111 La80 2.503 . S
O111 C99 1.256 . S
H112 C84 0.930 . S
H113 C85 0.930 . S
H114 C87 0.929 . S
H115 C88 0.929 . S
H116 C93 0.930 . S
H117 C94 0.930 . S
H118 C96 0.929 . S
H119 C97 0.929 . S
La120 C122 2.928 . S
La120 O140 2.521 . S
La120 O141 2.628 . S
La120 O142 2.554 . S
La120 O143 2.757 . S
La120 O144 2.470 . S
La120 O149 2.482 . S
La120 O151 2.503 . S
La121 C131 2.928 . S
La121 O143 2.482 . S
La121 O145 2.503 . S
La121 O146 2.521 . S
La121 O147 2.628 . S
La121 O148 2.554 . S
La121 O149 2.757 . S
La121 O150 2.470 . S
C122 La120 2.928 . S
C122 C123 1.503 1_554 S
C122 O140 1.261 . S
C122 O141 1.243 . S
C123 C122 1.503 1_556 S
C123 C124 1.394 . S
C123 C128 1.373 . S
C124 C123 1.394 . S
C124 C125 1.380 . S
C124 H152 0.930 . S
C125 C124 1.380 . S
C125 C126 1.376 . S
C125 H153 0.930 . S
C126 C125 1.376 . S
C126 C127 1.370 . S
C127 C126 1.370 . S
C127 C128 1.396 . S
C127 H154 0.929 . S
C128 C123 1.373 . S
C128 C127 1.396 . S
C128 H155 0.929 . S
C129 O142 1.240 . S
C129 O143 1.289 . S
C130 O144 1.258 . S
C130 O145 1.256 . S
C131 La121 2.928 . S
C131 C132 1.503 . S
C131 O146 1.261 . S
C131 O147 1.243 . S
C132 C131 1.503 . S
C132 C133 1.394 . S
C132 C137 1.373 . S
C133 C132 1.394 . S
C133 C134 1.380 . S
C133 H156 0.930 . S
C134 C133 1.380 . S
C134 C135 1.376 . S
C134 H157 0.930 . S
C135 C134 1.376 . S
C135 C136 1.370 . S
C136 C135 1.370 . S
C136 C137 1.396 . S
C136 H158 0.929 . S
C137 C132 1.373 . S
C137 C136 1.396 . S
C137 H159 0.929 . S
C138 O148 1.240 . S
C138 O149 1.289 . S
C139 O150 1.258 . S
C139 O151 1.256 . S
O140 La120 2.521 . S
O140 C122 1.261 . S
O141 La120 2.628 . S
O141 C122 1.243 . S
O142 La120 2.554 . S
O142 C129 1.240 . S
O143 La120 2.757 . S
O143 La121 2.482 . S
O143 C129 1.289 . S
O144 La120 2.470 . S
O144 C130 1.258 . S
O145 La121 2.503 . S
O145 C130 1.256 . S
O146 La121 2.521 . S
O146 C131 1.261 . S
O147 La121 2.628 . S
O147 C131 1.243 . S
O148 La121 2.554 . S
O148 C138 1.240 . S
O149 La120 2.482 . S
O149 La121 2.757 . S
O149 C138 1.289 . S
O150 La121 2.470 . S
O150 C139 1.258 . S
O151 La120 2.503 . S
O151 C139 1.256 . S
H152 C124 0.930 . S
H153 C125 0.930 . S
H154 C127 0.929 . S
H155 C128 0.929 . S
H156 C133 0.930 . S
H157 C134 0.930 . S
H158 C136 0.929 . S
H159 C137 0.929 . S
La160 C162 2.928 . S
La160 O180 2.521 . S
La160 O181 2.628 . S
La160 O182 2.554 . S
La160 O183 2.757 . S
La160 O184 2.470 . S
La160 O189 2.482 . S
La160 O191 2.503 . S
La161 C171 2.928 . S
La161 O183 2.482 . S
La161 O185 2.503 . S
La161 O186 2.521 . S
La161 O187 2.628 . S
La161 O188 2.554 1_565 S
La161 O189 2.757 . S
La161 O190 2.470 . S
C162 La160 2.928 . S
C162 C163 1.503 . S
C162 O180 1.261 . S
C162 O181 1.243 . S
C163 C162 1.503 . S
C163 C164 1.394 . S
C163 C168 1.373 . S
C164 C163 1.394 . S
C164 C165 1.380 . S
C164 H192 0.930 . S
C165 C164 1.380 . S
C165 C166 1.376 . S
C165 H193 0.930 . S
C166 C165 1.376 . S
C166 C167 1.370 . S
C167 C166 1.370 . S
C167 C168 1.396 . S
C167 H194 0.929 . S
C168 C163 1.373 . S
C168 C167 1.396 . S
C168 H195 0.929 . S
C169 O182 1.240 . S
C169 O183 1.289 . S
C170 O184 1.258 . S
C170 O185 1.256 . S
C171 La161 2.928 . S
C171 C172 1.503 . S
C171 O186 1.261 . S
C171 O187 1.243 . S
C172 C171 1.503 . S
C172 C173 1.394 . S
C172 C177 1.373 . S
C173 C172 1.394 . S
C173 C174 1.380 . S
C173 H196 0.930 1_565 S
C174 C173 1.380 . S
C174 C175 1.376 . S
C174 H197 0.930 1_565 S
C175 C174 1.376 . S
C175 C176 1.370 . S
C176 C175 1.370 . S
C176 C177 1.396 . S
C176 H198 0.929 . S
C177 C172 1.373 . S
C177 C176 1.396 . S
C177 H199 0.929 . S
C178 O188 1.240 1_565 S
C178 O189 1.289 . S
C179 O190 1.258 . S
C179 O191 1.256 . S
O180 La160 2.521 . S
O180 C162 1.261 . S
O181 La160 2.628 . S
O181 C162 1.243 . S
O182 La160 2.554 . S
O182 C169 1.240 . S
O183 La160 2.757 . S
O183 La161 2.482 . S
O183 C169 1.289 . S
O184 La160 2.470 . S
O184 C170 1.258 . S
O185 La161 2.503 . S
O185 C170 1.256 . S
O186 La161 2.521 . S
O186 C171 1.261 . S
O187 La161 2.628 . S
O187 C171 1.243 . S
O188 La161 2.554 1_545 S
O188 C178 1.240 1_545 S
O189 La160 2.482 . S
O189 La161 2.757 . S
O189 C178 1.289 . S
O190 La161 2.470 . S
O190 C179 1.258 . S
O191 La160 2.503 . S
O191 C179 1.256 . S
H192 C164 0.930 . S
H193 C165 0.930 . S
H194 C167 0.929 . S
H195 C168 0.929 . S
H196 C173 0.930 1_545 S
H197 C174 0.930 1_545 S
H198 C176 0.929 . S
H199 C177 0.929 . S
La200 C202 2.928 . S
La200 O220 2.521 . S
La200 O221 2.628 . S
La200 O222 2.554 . S
La200 O223 2.757 . S
La200 O224 2.470 . S
La200 O229 2.482 . S
La200 O231 2.503 . S
La201 C211 2.928 . S
La201 O223 2.482 . S
La201 O225 2.503 . S
La201 O226 2.521 . S
La201 O227 2.628 . S
La201 O228 2.554 . S
La201 O229 2.757 . S
La201 O230 2.470 . S
C202 La200 2.928 . S
C202 C203 1.503 . S
C202 O220 1.261 . S
C202 O221 1.243 . S
C203 C202 1.503 . S
C203 C204 1.394 . S
C203 C208 1.373 . S
C204 C203 1.394 . S
C204 C205 1.380 . S
C204 H232 0.930 . S
C205 C204 1.380 . S
C205 C206 1.376 . S
C205 H233 0.930 . S
C206 C205 1.376 . S
C206 C207 1.370 . S
C207 C206 1.370 . S
C207 C208 1.396 . S
C207 H234 0.929 . S
C208 C203 1.373 . S
C208 C207 1.396 . S
C208 H235 0.929 . S
C209 O222 1.240 . S
C209 O223 1.289 . S
C210 O224 1.258 . S
C210 O225 1.256 . S
C211 La201 2.928 . S
C211 C212 1.503 . S
C211 O226 1.261 . S
C211 O227 1.243 . S
C212 C211 1.503 . S
C212 C213 1.394 . S
C212 C217 1.373 . S
C213 C212 1.394 . S
C213 C214 1.380 . S
C213 H236 0.930 . S
C214 C213 1.380 . S
C214 C215 1.376 . S
C214 H237 0.930 . S
C215 C214 1.376 . S
C215 C216 1.370 . S
C216 C215 1.370 . S
C216 C217 1.396 . S
C216 H238 0.929 . S
C217 C212 1.373 . S
C217 C216 1.396 . S
C217 H239 0.929 . S
C218 O228 1.240 . S
C218 O229 1.289 . S
C219 O230 1.258 . S
C219 O231 1.256 . S
O220 La200 2.521 . S
O220 C202 1.261 . S
O221 La200 2.628 . S
O221 C202 1.243 . S
O222 La200 2.554 . S
O222 C209 1.240 . S
O223 La200 2.757 . S
O223 La201 2.482 . S
O223 C209 1.289 . S
O224 La200 2.470 . S
O224 C210 1.258 . S
O225 La201 2.503 . S
O225 C210 1.256 . S
O226 La201 2.521 . S
O226 C211 1.261 . S
O227 La201 2.628 . S
O227 C211 1.243 . S
O228 La201 2.554 . S
O228 C218 1.240 . S
O229 La200 2.482 . S
O229 La201 2.757 . S
O229 C218 1.289 . S
O230 La201 2.470 . S
O230 C219 1.258 . S
O231 La200 2.503 . S
O231 C219 1.256 . S
H232 C204 0.930 . S
H233 C205 0.930 . S
H234 C207 0.929 . S
H235 C208 0.929 . S
H236 C213 0.930 . S
H237 C214 0.930 . S
H238 C216 0.929 . S
H239 C217 0.929 . S
H240 C248 0.950 . S
H241 C253 0.950 . S
H242 C250 0.950 . S
H243 C252 0.950 . S
H244 C254 0.950 . S
H245 C256 0.950 . S
H246 C258 0.950 . S
H247 C259 0.950 . S
C248 H240 0.950 . S
C248 C249 1.386 . S
C248 C250 1.391 . S
C249 C248 1.386 . S
C249 C253 1.393 . S
C250 H242 0.950 . S
C250 C248 1.391 . S
C250 C251 1.400 . S
C251 C250 1.400 . S
C251 C252 1.398 . S
C251 C257 1.491 . S
C252 H243 0.950 . S
C252 C251 1.398 . S
C252 C253 1.391 . S
C253 H241 0.950 . S
C253 C249 1.393 . S
C253 C252 1.391 . S
C254 H244 0.950 . S
C254 C255 1.386 . S
C254 C256 1.391 . S
C255 C254 1.386 . S
C255 C259 1.393 . S
C256 H245 0.950 . S
C256 C254 1.391 . S
C256 C257 1.400 . S
C257 C251 1.491 . S
C257 C256 1.400 . S
C257 C258 1.398 . S
C258 H246 0.950 . S
C258 C257 1.398 . S
C258 C259 1.391 . S
C259 H247 0.950 . S
C259 C255 1.393 . S
C259 C258 1.391 . S
H260 C268 0.950 . S
H261 C273 0.950 . S
H262 C270 0.950 . S
H263 C272 0.950 . S
H264 C274 0.950 . S
H265 C276 0.950 . S
H266 C278 0.950 . S
H267 C279 0.950 . S
C268 H260 0.950 . S
C268 C269 1.386 . S
C268 C270 1.391 . S
C269 C268 1.386 . S
C269 C273 1.393 . S
C270 H262 0.950 . S
C270 C268 1.391 . S
C270 C271 1.400 . S
C271 C270 1.400 . S
C271 C272 1.398 . S
C271 C277 1.491 . S
C272 H263 0.950 . S
C272 C271 1.398 . S
C272 C273 1.391 . S
C273 H261 0.950 . S
C273 C269 1.393 . S
C273 C272 1.391 . S
C274 H264 0.950 . S
C274 C275 1.386 . S
C274 C276 1.391 . S
C275 C274 1.386 . S
C275 C279 1.393 . S
C276 H265 0.950 . S
C276 C274 1.391 . S
C276 C277 1.400 . S
C277 C271 1.491 . S
C277 C276 1.400 . S
C277 C278 1.398 . S
C278 H266 0.950 . S
C278 C277 1.398 . S
C278 C279 1.391 . S
C279 H267 0.950 . S
C279 C275 1.393 . S
C279 C278 1.391 . S
H280 C288 0.950 . S
H281 C293 0.950 . S
H282 C290 0.950 . S
H283 C292 0.950 . S
H284 C294 0.950 . S
H285 C296 0.950 1_554 S
H286 C298 0.950 . S
H287 C299 0.950 . S
C288 H280 0.950 . S
C288 C289 1.386 . S
C288 C290 1.391 . S
C289 C288 1.386 . S
C289 C293 1.393 . S
C290 H282 0.950 . S
C290 C288 1.391 . S
C290 C291 1.400 . S
C291 C290 1.400 . S
C291 C292 1.398 . S
C291 C297 1.491 . S
C292 H283 0.950 . S
C292 C291 1.398 . S
C292 C293 1.391 . S
C293 H281 0.950 . S
C293 C289 1.393 . S
C293 C292 1.391 . S
C294 H284 0.950 . S
C294 C295 1.386 . S
C294 C296 1.391 . S
C295 C294 1.386 . S
C295 C299 1.393 . S
C296 H285 0.950 1_556 S
C296 C294 1.391 . S
C296 C297 1.400 1_556 S
C297 C291 1.491 . S
C297 C296 1.400 1_554 S
C297 C298 1.398 . S
C298 H286 0.950 . S
C298 C297 1.398 . S
C298 C299 1.391 1_554 S
C299 H287 0.950 . S
C299 C295 1.393 . S
C299 C298 1.391 1_556 S
H300 C308 0.950 . S
H301 C313 0.950 . S
H302 C310 0.950 . S
H303 C312 0.950 . S
H304 C314 0.950 . S
H305 C316 0.950 . S
H306 C318 0.950 . S
H307 C319 0.950 . S
C308 H300 0.950 . S
C308 C309 1.386 . S
C308 C310 1.391 . S
C309 C308 1.386 . S
C309 C313 1.393 . S
C310 H302 0.950 . S
C310 C308 1.391 . S
C310 C311 1.400 . S
C311 C310 1.400 . S
C311 C312 1.398 . S
C311 C317 1.491 . S
C312 H303 0.950 . S
C312 C311 1.398 . S
C312 C313 1.391 . S
C313 H301 0.950 . S
C313 C309 1.393 . S
C313 C312 1.391 . S
C314 H304 0.950 . S
C314 C315 1.386 . S
C314 C316 1.391 . S
C315 C314 1.386 . S
C315 C319 1.393 . S
C316 H305 0.950 . S
C316 C314 1.391 . S
C316 C317 1.400 . S
C317 C311 1.491 . S
C317 C316 1.400 . S
C317 C318 1.398 . S
C318 H306 0.950 . S
C318 C317 1.398 . S
C318 C319 1.391 . S
C319 H307 0.950 . S
C319 C315 1.393 . S
C319 C318 1.391 . S
H320 C328 0.950 . S
H321 C333 0.950 . S
H322 C330 0.950 . S
H323 C332 0.950 . S
H324 C334 0.950 . S
H325 C336 0.950 . S
H326 C338 0.950 . S
H327 C339 0.950 . S
C328 H320 0.950 . S
C328 C329 1.386 . S
C328 C330 1.391 . S
C329 C328 1.386 . S
C329 C333 1.393 . S
C330 H322 0.950 . S
C330 C328 1.391 . S
C330 C331 1.400 . S
C331 C330 1.400 . S
C331 C332 1.398 . S
C331 C337 1.491 . S
C332 H323 0.950 . S
C332 C331 1.398 . S
C332 C333 1.391 . S
C333 H321 0.950 . S
C333 C329 1.393 . S
C333 C332 1.391 . S
C334 H324 0.950 . S
C334 C335 1.386 . S
C334 C336 1.391 . S
C335 C334 1.386 . S
C335 C339 1.393 . S
C336 H325 0.950 . S
C336 C334 1.391 . S
C336 C337 1.400 . S
C337 C331 1.491 . S
C337 C336 1.400 . S
C337 C338 1.398 . S
C338 H326 0.950 . S
C338 C337 1.398 . S
C338 C339 1.391 . S
C339 H327 0.950 . S
C339 C335 1.393 . S
C339 C338 1.391 . S
H340 C348 0.950 . S
H341 C353 0.950 . S
H342 C350 0.950 . S
H343 C352 0.950 . S
H344 C354 0.950 . S
H345 C356 0.950 . S
H346 C358 0.950 . S
H347 C359 0.950 . S
C348 H340 0.950 . S
C348 C349 1.386 . S
C348 C350 1.391 . S
C349 C348 1.386 . S
C349 C353 1.393 . S
C350 H342 0.950 . S
C350 C348 1.391 . S
C350 C351 1.400 . S
C351 C350 1.400 . S
C351 C352 1.398 . S
C351 C357 1.491 . S
C352 H343 0.950 . S
C352 C351 1.398 . S
C352 C353 1.391 . S
C353 H341 0.950 . S
C353 C349 1.393 . S
C353 C352 1.391 . S
C354 H344 0.950 . S
C354 C355 1.386 . S
C354 C356 1.391 . S
C355 C354 1.386 . S
C355 C359 1.393 . S
C356 H345 0.950 . S
C356 C354 1.391 . S
C356 C357 1.400 . S
C357 C351 1.491 . S
C357 C356 1.400 . S
C357 C358 1.398 . S
C358 H346 0.950 . S
C358 C357 1.398 . S
C358 C359 1.391 . S
C359 H347 0.950 . S
C359 C355 1.393 . S
C359 C358 1.391 . S
H360 C368 0.950 . S
H361 C373 0.950 . S
H362 C370 0.950 . S
H363 C372 0.950 . S
H364 C374 0.950 . S
H365 C376 0.950 . S
H366 C378 0.950 . S
H367 C379 0.950 . S
C368 H360 0.950 . S
C368 C369 1.386 . S
C368 C370 1.391 . S
C369 C368 1.386 . S
C369 C373 1.393 . S
C370 H362 0.950 . S
C370 C368 1.391 . S
C370 C371 1.400 . S
C371 C370 1.400 . S
C371 C372 1.398 . S
C371 C377 1.491 . S
C372 H363 0.950 . S
C372 C371 1.398 . S
C372 C373 1.391 . S
C373 H361 0.950 . S
C373 C369 1.393 . S
C373 C372 1.391 . S
C374 H364 0.950 . S
C374 C375 1.386 . S
C374 C376 1.391 . S
C375 C374 1.386 . S
C375 C379 1.393 . S
C376 H365 0.950 . S
C376 C374 1.391 . S
C376 C377 1.400 . S
C377 C371 1.491 . S
C377 C376 1.400 . S
C377 C378 1.398 . S
C378 H366 0.950 . S
C378 C377 1.398 . S
C378 C379 1.391 . S
C379 H367 0.950 . S
C379 C375 1.393 . S
C379 C378 1.391 . S
H380 C388 0.950 . S
H381 C393 0.950 . S
H382 C390 0.950 . S
H383 C392 0.950 . S
H384 C394 0.950 . S
H385 C396 0.950 . S
H386 C398 0.950 . S
H387 C399 0.950 . S
C388 H380 0.950 . S
C388 C389 1.386 . S
C388 C390 1.391 . S
C389 C388 1.386 . S
C389 C393 1.393 . S
C390 H382 0.950 . S
C390 C388 1.391 . S
C390 C391 1.400 . S
C391 C390 1.400 . S
C391 C392 1.398 . S
C391 C397 1.491 . S
C392 H383 0.950 . S
C392 C391 1.398 . S
C392 C393 1.391 . S
C393 H381 0.950 . S
C393 C389 1.393 . S
C393 C392 1.391 . S
C394 H384 0.950 . S
C394 C395 1.386 . S
C394 C396 1.391 . S
C395 C394 1.386 . S
C395 C399 1.393 . S
C396 H385 0.950 . S
C396 C394 1.391 . S
C396 C397 1.400 . S
C397 C391 1.491 . S
C397 C396 1.400 . S
C397 C398 1.398 . S
C398 H386 0.950 . S
C398 C397 1.398 . S
C398 C399 1.391 . S
C399 H387 0.950 . S
C399 C395 1.393 . S
C399 C398 1.391 . S
H400 C408 0.950 . S
H401 C413 0.950 . S
H402 C410 0.950 . S
H403 C412 0.950 . S
H404 C414 0.950 . S
H405 C416 0.950 . S
H406 C418 0.950 . S
H407 C419 0.950 . S
C408 H400 0.950 . S
C408 C409 1.386 . S
C408 C410 1.391 . S
C409 C408 1.386 . S
C409 C413 1.393 . S
C410 H402 0.950 . S
C410 C408 1.391 . S
C410 C411 1.400 . S
C411 C410 1.400 . S
C411 C412 1.398 . S
C411 C417 1.491 . S
C412 H403 0.950 . S
C412 C411 1.398 . S
C412 C413 1.391 . S
C413 H401 0.950 . S
C413 C409 1.393 . S
C413 C412 1.391 . S
C414 H404 0.950 . S
C414 C415 1.386 . S
C414 C416 1.391 . S
C415 C414 1.386 . S
C415 C419 1.393 . S
C416 H405 0.950 . S
C416 C414 1.391 . S
C416 C417 1.400 . S
C417 C411 1.491 . S
C417 C416 1.400 . S
C417 C418 1.398 . S
C418 H406 0.950 . S
C418 C417 1.398 . S
C418 C419 1.391 . S
C419 H407 0.950 . S
C419 C415 1.393 . S
C419 C418 1.391 . S
H420 C428 0.950 . S
H421 C433 0.950 . S
H422 C430 0.950 . S
H423 C432 0.950 . S
H424 C434 0.950 . S
H425 C436 0.950 . S
H426 C438 0.950 . S
H427 C439 0.950 . S
C428 H420 0.950 . S
C428 C429 1.386 . S
C428 C430 1.391 . S
C429 C428 1.386 . S
C429 C433 1.393 . S
C430 H422 0.950 . S
C430 C428 1.391 . S
C430 C431 1.400 . S
C431 C430 1.400 . S
C431 C432 1.398 . S
C431 C437 1.491 . S
C432 H423 0.950 . S
C432 C431 1.398 . S
C432 C433 1.391 . S
C433 H421 0.950 . S
C433 C429 1.393 . S
C433 C432 1.391 . S
C434 H424 0.950 . S
C434 C435 1.386 . S
C434 C436 1.391 . S
C435 C434 1.386 . S
C435 C439 1.393 . S
C436 H425 0.950 . S
C436 C434 1.391 . S
C436 C437 1.400 . S
C437 C431 1.491 . S
C437 C436 1.400 . S
C437 C438 1.398 . S
C438 H426 0.950 . S
C438 C437 1.398 . S
C438 C439 1.391 . S
C439 H427 0.950 . S
C439 C435 1.393 . S
C439 C438 1.391 . S
H440 C448 0.950 . S
H441 C453 0.950 . S
H442 C450 0.950 1_455 S
H443 C452 0.950 . S
H444 C454 0.950 . S
H445 C456 0.950 . S
H446 C458 0.950 . S
H447 C459 0.950 . S
C448 H440 0.950 . S
C448 C449 1.386 1_455 S
C448 C450 1.391 1_455 S
C449 C448 1.386 1_655 S
C449 C453 1.393 . S
C450 H442 0.950 1_655 S
C450 C448 1.391 1_655 S
C450 C451 1.400 . S
C451 C450 1.400 . S
C451 C452 1.398 . S
C451 C457 1.491 . S
C452 H443 0.950 . S
C452 C451 1.398 . S
C452 C453 1.391 . S
C453 H441 0.950 . S
C453 C449 1.393 . S
C453 C452 1.391 . S
C454 H444 0.950 . S
C454 C455 1.386 . S
C454 C456 1.391 . S
C455 C454 1.386 . S
C455 C459 1.393 . S
C456 H445 0.950 . S
C456 C454 1.391 . S
C456 C457 1.400 . S
C457 C451 1.491 . S
C457 C456 1.400 . S
C457 C458 1.398 . S
C458 H446 0.950 . S
C458 C457 1.398 . S
C458 C459 1.391 . S
C459 H447 0.950 . S
C459 C455 1.393 . S
C459 C458 1.391 . S
H460 C468 0.950 . S
H461 C473 0.950 . S
H462 C470 0.950 1_565 S
H463 C472 0.950 . S
H464 C474 0.950 . S
H465 C476 0.950 . S
H466 C478 0.950 . S
H467 C479 0.950 . S
C468 H460 0.950 . S
C468 C469 1.386 1_565 S
C468 C470 1.391 1_565 S
C469 C468 1.386 1_545 S
C469 C473 1.393 . S
C470 H462 0.950 1_545 S
C470 C468 1.391 1_545 S
C470 C471 1.400 . S
C471 C470 1.400 . S
C471 C472 1.398 . S
C471 C477 1.491 . S
C472 H463 0.950 . S
C472 C471 1.398 . S
C472 C473 1.391 . S
C473 H461 0.950 . S
C473 C469 1.393 . S
C473 C472 1.391 . S
C474 H464 0.950 . S
C474 C475 1.386 . S
C474 C476 1.391 . S
C475 C474 1.386 . S
C475 C479 1.393 . S
C476 H465 0.950 . S
C476 C474 1.391 . S
C476 C477 1.400 . S
C477 C471 1.491 . S
C477 C476 1.400 . S
C477 C478 1.398 . S
C478 H466 0.950 . S
C478 C477 1.398 . S
C478 C479 1.391 . S
C479 H467 0.950 . S
C479 C475 1.393 . S
C479 C478 1.391 . S
H480 C488 0.950 . S
H481 C493 0.950 . S
H482 C490 0.950 . S
H483 C492 0.950 . S
H484 C494 0.950 1_554 S
H485 C496 0.950 . S
H486 C498 0.950 . S
H487 C499 0.950 . S
C488 H480 0.950 . S
C488 C489 1.386 . S
C488 C490 1.391 . S
C489 C488 1.386 . S
C489 C493 1.393 . S
C490 H482 0.950 . S
C490 C488 1.391 . S
C490 C491 1.400 . S
C491 C490 1.400 . S
C491 C492 1.398 . S
C491 C497 1.491 . S
C492 H483 0.950 . S
C492 C491 1.398 . S
C492 C493 1.391 . S
C493 H481 0.950 . S
C493 C489 1.393 . S
C493 C492 1.391 . S
C494 H484 0.950 1_556 S
C494 C495 1.386 1_556 S
C494 C496 1.391 . S
C495 C494 1.386 1_554 S
C495 C499 1.393 1_554 S
C496 H485 0.950 . S
C496 C494 1.391 . S
C496 C497 1.400 . S
C497 C491 1.491 . S
C497 C496 1.400 . S
C497 C498 1.398 . S
C498 H486 0.950 . S
C498 C497 1.398 . S
C498 C499 1.391 . S
C499 H487 0.950 . S
C499 C495 1.393 1_556 S
C499 C498 1.391 . S
H500 C508 0.950 . S
H501 C513 0.950 . S
H502 C510 0.950 . S
H503 C512 0.950 1_455 S
H504 C514 0.950 . S
H505 C516 0.950 . S
H506 C518 0.950 . S
H507 C519 0.950 . S
C508 H500 0.950 . S
C508 C509 1.386 . S
C508 C510 1.391 . S
C509 C508 1.386 . S
C509 C513 1.393 . S
C510 H502 0.950 . S
C510 C508 1.391 . S
C510 C511 1.400 1_655 S
C511 C510 1.400 1_455 S
C511 C512 1.398 1_455 S
C511 C517 1.491 . S
C512 H503 0.950 1_655 S
C512 C511 1.398 1_655 S
C512 C513 1.391 . S
C513 H501 0.950 . S
C513 C509 1.393 . S
C513 C512 1.391 . S
C514 H504 0.950 . S
C514 C515 1.386 . S
C514 C516 1.391 . S
C515 C514 1.386 . S
C515 C519 1.393 . S
C516 H505 0.950 . S
C516 C514 1.391 . S
C516 C517 1.400 . S
C517 C511 1.491 . S
C517 C516 1.400 . S
C517 C518 1.398 . S
C518 H506 0.950 . S
C518 C517 1.398 . S
C518 C519 1.391 . S
C519 H507 0.950 . S
C519 C515 1.393 . S
C519 C518 1.391 . S
H520 C528 0.950 . S
H521 C533 0.950 . S
H522 C530 0.950 . S
H523 C532 0.950 1_545 S
H524 C534 0.950 . S
H525 C536 0.950 . S
H526 C538 0.950 . S
H527 C539 0.950 . S
C528 H520 0.950 . S
C528 C529 1.386 . S
C528 C530 1.391 . S
C529 C528 1.386 . S
C529 C533 1.393 . S
C530 H522 0.950 . S
C530 C528 1.391 . S
C530 C531 1.400 . S
C531 C530 1.400 . S
C531 C532 1.398 . S
C531 C537 1.491 1_565 S
C532 H523 0.950 1_565 S
C532 C531 1.398 . S
C532 C533 1.391 . S
C533 H521 0.950 . S
C533 C529 1.393 . S
C533 C532 1.391 . S
C534 H524 0.950 . S
C534 C535 1.386 . S
C534 C536 1.391 . S
C535 C534 1.386 . S
C535 C539 1.393 . S
C536 H525 0.950 . S
C536 C534 1.391 . S
C536 C537 1.400 . S
C537 C531 1.491 1_545 S
C537 C536 1.400 . S
C537 C538 1.398 . S
C538 H526 0.950 . S
C538 C537 1.398 . S
C538 C539 1.391 . S
C539 H527 0.950 . S
C539 C535 1.393 . S
C539 C538 1.391 . S
H540 C548 0.950 . S
H541 C553 0.950 . S
H542 C550 0.950 . S
H543 C552 0.950 . S
H544 C554 0.955 . S
H545 C556 0.950 . S
H546 C558 0.950 . S
H547 C559 0.950 . S
C548 H540 0.950 . S
C548 C549 1.386 . S
C548 C550 1.391 . S
C549 C548 1.386 . S
C549 C553 1.393 . S
C550 H542 0.950 . S
C550 C548 1.391 . S
C550 C551 1.400 . S
C551 C550 1.400 . S
C551 C552 1.398 . S
C551 C557 1.491 . S
C552 H543 0.950 . S
C552 C551 1.398 . S
C552 C553 1.391 . S
C553 H541 0.950 . S
C553 C549 1.393 . S
C553 C552 1.391 . S
C554 H544 0.955 . S
C554 C555 1.386 1_556 S
C554 C556 1.391 . S
C555 C554 1.386 1_554 S
C555 C559 1.393 . S
C556 H545 0.950 . S
C556 C554 1.391 . S
C556 C557 1.400 . S
C557 C551 1.491 . S
C557 C556 1.400 . S
C557 C558 1.398 . S
C558 H546 0.950 . S
C558 C557 1.398 . S
C558 C559 1.391 1_556 S
C559 H547 0.950 . S
C559 C555 1.393 . S
C559 C558 1.391 1_554 S
H560 C568 0.950 . S
H561 C573 0.950 . S
H562 C570 0.950 1_655 S
H563 C572 0.950 . S
H564 C574 0.950 . S
H565 C576 0.950 . S
H566 C578 0.950 . S
H567 C579 0.950 . S
C568 H560 0.950 . S
C568 C569 1.386 . S
C568 C570 1.391 . S
C569 C568 1.386 . S
C569 C573 1.393 . S
C570 H562 0.950 1_455 S
C570 C568 1.391 . S
C570 C571 1.400 . S
C571 C570 1.400 . S
C571 C572 1.398 . S
C571 C577 1.491 1_455 S
C572 H563 0.950 . S
C572 C571 1.398 . S
C572 C573 1.391 . S
C573 H561 0.950 . S
C573 C569 1.393 . S
C573 C572 1.391 . S
C574 H564 0.950 . S
C574 C575 1.386 . S
C574 C576 1.391 1_655 S
C575 C574 1.386 . S
C575 C579 1.393 . S
C576 H565 0.950 . S
C576 C574 1.391 1_455 S
C576 C577 1.400 1_455 S
C577 C571 1.491 1_655 S
C577 C576 1.400 1_655 S
C577 C578 1.398 . S
C578 H566 0.950 . S
C578 C577 1.398 . S
C578 C579 1.391 . S
C579 H567 0.950 . S
C579 C575 1.393 . S
C579 C578 1.391 . S
H580 C588 0.950 . S
H581 C593 0.950 . S
H582 C590 0.950 . S
H583 C592 0.950 . S
H584 C594 0.950 . S
H585 C596 0.950 . S
H586 C598 0.949 . S
H587 C599 0.950 . S
C588 H580 0.950 . S
C588 C589 1.386 . S
C588 C590 1.391 . S
C589 C588 1.386 . S
C589 C593 1.393 . S
C590 H582 0.950 . S
C590 C588 1.391 . S
C590 C591 1.400 . S
C591 C590 1.400 . S
C591 C592 1.398 . S
C591 C597 1.491 . S
C592 H583 0.950 . S
C592 C591 1.398 . S
C592 C593 1.391 . S
C593 H581 0.950 . S
C593 C589 1.393 . S
C593 C592 1.391 . S
C594 H584 0.950 . S
C594 C595 1.386 . S
C594 C596 1.391 . S
C595 C594 1.386 . S
C595 C599 1.393 . S
C596 H585 0.950 . S
C596 C594 1.391 . S
C596 C597 1.400 1_565 S
C597 C591 1.491 . S
C597 C596 1.400 1_545 S
C597 C598 1.400 . S
C598 H586 0.949 . S
C598 C597 1.400 . S
C598 C599 1.390 1_545 S
C599 H587 0.950 . S
C599 C595 1.393 . S
C599 C598 1.390 1_565 S
C249 C179 1.472 . S
C255 C6 1.452 . S
C269 C206 1.445 . S
C275 C59 1.471 . S
C289 C19 1.470 . S
C295 C86 1.449 . S
C309 C46 1.449 . S
C315 C139 1.470 . S
C329 C99 1.469 . S
C335 C166 1.443 . S
C349 C126 1.453 . S
C355 C219 1.472 . S
C369 C9 1.198 . S
C375 C138 1.322 . S
C389 C169 1.143 . S
C395 C58 1.314 1_455 S
C409 C218 1.324 1_565 S
C415 C89 1.198 . S
C429 C98 1.305 . S
C435 C209 1.157 . S
C449 C18 1.314 1_655 S
C455 C129 1.191 . S
C469 C178 1.306 1_545 S
C475 C49 1.173 . S
C489 C215 0.841 . S
C495 C15 0.832 . S
C509 C50 1.739 . S
C515 C10 1.739 . S
C529 C95 0.834 . S
C535 C55 0.840 . S
C549 C90 1.738 . S
C555 C130 1.738 . S
C569 C175 0.855 . S
C575 C135 0.830 . S
C589 C210 1.739 . S
C595 C170 1.739 . S
