# Generated by pormake.
# Topology unb, (4)-cn, num edge types: 1
# Building blocks:
#     Node 0, Type 0, BuildingBlock: NAHDIM_clean_sbu_0, # of connection points: 4
#     Node 1, Type 0, BuildingBlock: NAHDIM_clean_sbu_0, # of connection points: 4
#     Node 2, Type 0, BuildingBlock: NAHDIM_clean_sbu_0, # of connection points: 4
#     Node 3, Type 0, BuildingBlock: NAHDIM_clean_sbu_0, # of connection points: 4
#     Node 4, Type 0, BuildingBlock: NAHDIM_clean_sbu_0, # of connection points: 4
#     Node 5, Type 0, BuildingBlock: NAHDIM_clean_sbu_0, # of connection points: 4
#     Node 6, Type 0, BuildingBlock: NAHDIM_clean_sbu_0, # of connection points: 4
#     Node 7, Type 0, BuildingBlock: NAHDIM_clean_sbu_0, # of connection points: 4
#     Node 8, Type 0, BuildingBlock: NAHDIM_clean_sbu_0, # of connection points: 4
#     Node 9, Type 0, BuildingBlock: NAHDIM_clean_sbu_0, # of connection points: 4
#     Node 10, Type 0, BuildingBlock: NAHDIM_clean_sbu_0, # of connection points: 4
#     Node 11, Type 0, BuildingBlock: NAHDIM_clean_sbu_0, # of connection points: 4
#     Node 12, Type 0, BuildingBlock: NAHDIM_clean_sbu_0, # of connection points: 4
#     Node 13, Type 0, BuildingBlock: NAHDIM_clean_sbu_0, # of connection points: 4
#     Node 14, Type 0, BuildingBlock: NAHDIM_clean_sbu_0, # of connection points: 4
#     Node 15, Type 0, BuildingBlock: NAHDIM_clean_sbu_0, # of connection points: 4
#     Node 16, Type 0, BuildingBlock: NAHDIM_clean_sbu_0, # of connection points: 4
#     Node 17, Type 0, BuildingBlock: NAHDIM_clean_sbu_0, # of connection points: 4
#     Edge 18, Type (0, 0), BuildingBlock: UVAHIK_clean_linker_0, # of connection points: 2
#     Edge 19, Type (0, 0), BuildingBlock: UVAHIK_clean_linker_0, # of connection points: 2
#     Edge 20, Type (0, 0), BuildingBlock: UVAHIK_clean_linker_0, # of connection points: 2
#     Edge 21, Type (0, 0), BuildingBlock: UVAHIK_clean_linker_0, # of connection points: 2
#     Edge 22, Type (0, 0), BuildingBlock: UVAHIK_clean_linker_0, # of connection points: 2
#     Edge 23, Type (0, 0), BuildingBlock: UVAHIK_clean_linker_0, # of connection points: 2
#     Edge 24, Type (0, 0), BuildingBlock: UVAHIK_clean_linker_0, # of connection points: 2
#     Edge 25, Type (0, 0), BuildingBlock: UVAHIK_clean_linker_0, # of connection points: 2
#     Edge 26, Type (0, 0), BuildingBlock: UVAHIK_clean_linker_0, # of connection points: 2
#     Edge 27, Type (0, 0), BuildingBlock: UVAHIK_clean_linker_0, # of connection points: 2
#     Edge 28, Type (0, 0), BuildingBlock: UVAHIK_clean_linker_0, # of connection points: 2
#     Edge 29, Type (0, 0), BuildingBlock: UVAHIK_clean_linker_0, # of connection points: 2
#     Edge 30, Type (0, 0), BuildingBlock: UVAHIK_clean_linker_0, # of connection points: 2
#     Edge 31, Type (0, 0), BuildingBlock: UVAHIK_clean_linker_0, # of connection points: 2
#     Edge 32, Type (0, 0), BuildingBlock: UVAHIK_clean_linker_0, # of connection points: 2
#     Edge 33, Type (0, 0), BuildingBlock: UVAHIK_clean_linker_0, # of connection points: 2
#     Edge 34, Type (0, 0), BuildingBlock: UVAHIK_clean_linker_0, # of connection points: 2
#     Edge 35, Type (0, 0), BuildingBlock: UVAHIK_clean_linker_0, # of connection points: 2
#     Edge 36, Type (0, 0), BuildingBlock: UVAHIK_clean_linker_0, # of connection points: 2
#     Edge 37, Type (0, 0), BuildingBlock: UVAHIK_clean_linker_0, # of connection points: 2
#     Edge 38, Type (0, 0), BuildingBlock: UVAHIK_clean_linker_0, # of connection points: 2
#     Edge 39, Type (0, 0), BuildingBlock: UVAHIK_clean_linker_0, # of connection points: 2
#     Edge 40, Type (0, 0), BuildingBlock: UVAHIK_clean_linker_0, # of connection points: 2
#     Edge 41, Type (0, 0), BuildingBlock: UVAHIK_clean_linker_0, # of connection points: 2
#     Edge 42, Type (0, 0), BuildingBlock: UVAHIK_clean_linker_0, # of connection points: 2
#     Edge 43, Type (0, 0), BuildingBlock: UVAHIK_clean_linker_0, # of connection points: 2
#     Edge 44, Type (0, 0), BuildingBlock: UVAHIK_clean_linker_0, # of connection points: 2
#     Edge 45, Type (0, 0), BuildingBlock: UVAHIK_clean_linker_0, # of connection points: 2
#     Edge 46, Type (0, 0), BuildingBlock: UVAHIK_clean_linker_0, # of connection points: 2
#     Edge 47, Type (0, 0), BuildingBlock: UVAHIK_clean_linker_0, # of connection points: 2
#     Edge 48, Type (0, 0), BuildingBlock: UVAHIK_clean_linker_0, # of connection points: 2
#     Edge 49, Type (0, 0), BuildingBlock: UVAHIK_clean_linker_0, # of connection points: 2
#     Edge 50, Type (0, 0), BuildingBlock: UVAHIK_clean_linker_0, # of connection points: 2
#     Edge 51, Type (0, 0), BuildingBlock: UVAHIK_clean_linker_0, # of connection points: 2
#     Edge 52, Type (0, 0), BuildingBlock: UVAHIK_clean_linker_0, # of connection points: 2
#     Edge 53, Type (0, 0), BuildingBlock: UVAHIK_clean_linker_0, # of connection points: 2
# Relax obj value: 0.066
# Max RMSD: 0.064
# Mean RMSD: 0.064
data_MOF--net-unb--node1-NAHDIM_clean_sbu_0--edge1-UVAHIK_clean_linker_0
_symmetry_space_group_name_H-M    P1
_symmetry_Int_Tables_number       1
_symmetry_cell_setting            triclinic
loop_
_symmetry_equiv_pos_as_xyz
'x, y, z'
_cell_length_a     83.698498
_cell_length_b     83.735045
_cell_length_c     33.050995
_cell_angle_alpha  89.984726
_cell_angle_beta   90.028473
_cell_angle_gamma 120.05471
loop_
_atom_site_label
_atom_site_type_symbol
_atom_site_fract_x
_atom_site_fract_y
_atom_site_fract_z
_atom_type_partial_charge
C0 C 0.12532 0.26666 0.1671 0.0
O1 O 0.10813 0.25306 0.16781 0.0
O2 O 0.13635 0.23875 0.07502 0.0
Zn3 Zn 0.12563 0.25527 0.08339 0.0
O4 O 0.0979 0.24062 0.07999 0.0
C5 C 0.13227 0.26724 0.00154 0.0
O6 O 0.12319 0.24932 0.99549 0.0
O7 O 0.13484 0.26959 0.13518 0.0
C8 C 0.08885 0.24806 0.06711 0.0
O9 O 0.09769 0.26579 0.05887 0.0
C10 C 0.12661 0.22147 0.06894 0.0
O11 O 0.10854 0.21347 0.07097 0.0
O12 O 0.13497 0.27334 0.03755 0.0
C13 C 0.73104 0.86688 0.1542 0.0
O14 O 0.74786 0.88104 0.15736 0.0
O15 O 0.75944 0.8925 0.06659 0.0
Zn16 Zn 0.74083 0.86539 0.06972 0.0
O17 O 0.75403 0.8508 0.06422 0.0
C18 C 0.71852 0.87104 0.01131 0.0
O19 O 0.72391 0.88634 0.03182 0.0
O20 O 0.72566 0.85852 0.12056 0.0
C21 C 0.75168 0.84101 0.03292 0.0
O22 O 0.74007 0.83996 0.00487 0.0
C23 C 0.76982 0.89746 0.03558 0.0
O24 O 0.76837 0.88476 0.01008 0.0
O25 O 0.72368 0.85984 0.0227 0.0
C26 C 0.12967 0.85511 0.16316 0.0
O27 O 0.11188 0.84848 0.158 0.0
O28 O 0.10515 0.86201 0.08316 0.0
Zn29 Zn 0.13269 0.87242 0.08499 0.0
O30 O 0.14631 0.89989 0.07655 0.0
C31 C 0.1282 0.84514 0.02619 0.0
O32 O 0.11297 0.8348 0.04665 0.0
O33 O 0.14088 0.8657 0.13641 0.0
C34 C 0.14357 0.90591 0.04349 0.0
O35 O 0.13156 0.89413 0.01752 0.0
C36 C 0.09679 0.87114 0.08528 0.0
O37 O 0.10628 0.88901 0.09173 0.0
O38 O 0.13904 0.86157 0.03785 0.0
C39 C 0.2678 0.1392 0.83026 0.0
O40 O 0.24982 0.12934 0.82556 0.0
O41 O 0.24032 0.14239 0.91612 0.0
Zn42 Zn 0.2585 0.13337 0.91519 0.0
O43 O 0.24537 0.10563 0.9185 0.0
C44 C 0.26724 0.13902 -0.00076 0.0
O45 O 0.24956 0.12684 0.00218 0.0
O46 O 0.27451 0.14254 0.86577 0.0
C47 C 0.25304 0.09763 0.93571 0.0
O48 O 0.27002 0.1076 0.94918 0.0
C49 C 0.2233 0.13194 0.92407 0.0
O50 O 0.21686 0.1142 0.92934 0.0
O51 O 0.27444 0.14401 0.96437 0.0
C52 C 0.86334 0.13479 0.83772 0.0
O53 O 0.88023 0.13756 0.83686 0.0
O54 O 0.85348 0.09709 0.93065 0.0
Zn55 Zn 0.86335 0.12417 0.92199 0.0
O56 O 0.8912 0.13871 0.92552 0.0
C57 C 0.85835 0.13166 0.00349 0.0
O58 O 0.87008 0.12583 0.00969 0.0
O59 O 0.85393 0.12891 0.87002 0.0
C60 C 0.90031 0.13197 0.94177 0.0
O61 O 0.8915 0.1148 0.95444 0.0
C62 C 0.85614 0.08632 0.90825 0.0
O63 O 0.86602 0.09276 0.87513 0.0
O64 O 0.85339 0.13241 0.96754 0.0
C65 C 0.86398 0.72732 0.83482 0.0
O66 O 0.85784 0.73887 0.83974 0.0
O67 O 0.90541 0.75574 0.9249 0.0
Zn68 Zn 0.87819 0.73842 0.91671 0.0
O69 O 0.86397 0.75186 0.92283 0.0
C70 C 0.87808 0.72201 0.9937 0.0
O71 O 0.89353 0.73769 -0.00099 0.0
O72 O 0.87322 0.7254 0.86301 0.0
C73 C 0.86491 0.75973 0.95636 0.0
O74 O 0.87559 0.75939 0.98507 0.0
C75 C 0.9133 0.77324 0.92339 0.0
O76 O 0.9037 0.78107 0.91276 0.0
O77 O 0.86932 0.71913 0.96057 0.0
C78 C 0.80604 0.60345 0.49403 0.0
O79 O 0.81218 0.59186 0.48956 0.0
O80 O 0.80053 0.57354 0.41131 0.0
Zn81 Zn 0.78915 0.58965 0.41514 0.0
O82 O 0.76156 0.57438 0.40844 0.0
C83 C 0.79597 0.60033 0.33273 0.0
O84 O 0.78506 0.58246 0.32819 0.0
O85 O 0.79588 0.60444 0.46671 0.0
C86 C 0.75284 0.58144 0.39179 0.0
O87 O 0.76191 0.59888 0.38103 0.0
C88 C 0.79236 0.55633 0.41843 0.0
O89 O 0.77535 0.54797 0.43218 0.0
O90 O 0.79967 0.60706 0.36822 0.0
C91 C 0.38595 0.20589 0.48035 0.0
O92 O 0.38666 0.21925 0.45812 0.0
O93 O 0.4243 0.2313 0.41018 0.0
Zn94 Zn 0.40649 0.20394 0.41369 0.0
O95 O 0.41919 0.18929 0.40342 0.0
C96 C 0.38982 0.20711 0.33984 0.0
O97 O 0.40577 0.22237 0.33575 0.0
O98 O 0.39396 0.19735 0.46782 0.0
C99 C 0.42507 0.18903 0.36809 0.0
O100 O 0.42313 0.19873 0.33928 0.0
C101 C 0.44163 0.23868 0.4051 0.0
O102 O 0.44921 0.22823 0.40459 0.0
O103 O 0.38694 0.1971 0.37095 0.0
C104 C 0.79029 0.18926 0.504 0.0
O105 O 0.77354 0.18686 0.50547 0.0
O106 O 0.76277 0.18958 0.42047 0.0
Zn107 Zn 0.79048 0.20117 0.42069 0.0
O108 O 0.80344 0.22867 0.41169 0.0
C109 C 0.78744 0.18417 0.34285 0.0
O110 O 0.77197 0.18456 0.34066 0.0
O111 O 0.79967 0.19537 0.47173 0.0
C112 C 0.80004 0.23514 0.38013 0.0
O113 O 0.78729 0.22378 0.35484 0.0
C114 C 0.7539 0.19819 0.42309 0.0
O115 O 0.76292 0.21609 0.42928 0.0
O116 O 0.79742 0.19032 0.37435 0.0
C117 C 0.93059 0.46346 0.17248 0.0
O118 O 0.91564 0.44711 0.17105 0.0
O119 O 0.90121 0.47171 0.26112 0.0
Zn120 Zn 0.9195 0.46294 0.25584 0.0
O121 O 0.90603 0.43515 0.2577 0.0
C122 C 0.94109 0.48819 0.31965 0.0
O123 O 0.93508 0.49857 0.30362 0.0
O124 O 0.93467 0.47265 0.20519 0.0
C125 C 0.91315 0.42686 0.27602 0.0
O126 O 0.92977 0.43659 0.2915 0.0
C127 C 0.88814 0.4636 0.28649 0.0
O128 O 0.88653 0.44928 0.30639 0.0
O129 O 0.93641 0.47262 0.30387 0.0
C130 C 0.52687 0.47956 0.17725 0.0
O131 O 0.54046 0.49294 0.19763 0.0
O132 O 0.51739 0.43104 0.25296 0.0
Zn133 Zn 0.52748 0.45823 0.24455 0.0
O134 O 0.55513 0.47191 0.24988 0.0
C135 C 0.50233 0.45657 0.30617 0.0
O136 O 0.4916 0.44009 0.29082 0.0
O137 O 0.51921 0.46324 0.19123 0.0
C138 C 0.56163 0.46895 0.28197 0.0
O139 O 0.55018 0.45687 0.3083 0.0
C140 C 0.52607 0.42247 0.24628 0.0
O141 O 0.54264 0.43133 0.23017 0.0
O142 O 0.518 0.467 0.29018 0.0
C143 C 0.54 0.05203 0.17591 0.0
O144 O 0.55443 0.05432 0.19652 0.0
O145 O 0.56121 0.08796 0.25541 0.0
Zn146 Zn 0.53437 0.06933 0.24605 0.0
O147 O 0.51951 0.08213 0.25324 0.0
C148 C 0.53765 0.04483 0.30345 0.0
O149 O 0.55453 0.05221 0.28919 0.0
O150 O 0.52977 0.05775 0.19079 0.0
C151 C 0.51019 0.0798 0.28532 0.0
O152 O 0.50992 0.06857 0.31341 0.0
C153 C 0.56514 0.09536 0.29029 0.0
O154 O 0.55174 0.09084 0.31647 0.0
O155 O 0.52664 0.04954 0.28843 0.0
C156 C 0.48232 0.94304 0.81129 0.0
O157 O 0.49308 0.93796 0.79341 0.0
O158 O 0.46919 0.90748 0.73738 0.0
Zn159 Zn 0.45915 0.92483 0.74252 0.0
O160 O 0.43144 0.91094 0.7365 0.0
C161 C 0.48574 0.94791 0.68256 0.0
O162 O 0.49598 0.94216 0.70036 0.0
O163 O 0.46684 0.93871 0.79533 0.0
C164 C 0.42482 0.90703 0.70088 0.0
O165 O 0.4362 0.91207 0.66998 0.0
C166 C 0.45956 0.89039 0.72917 0.0
O167 O 0.44155 0.8827 0.72627 0.0
O168 O 0.46973 0.94284 0.69641 0.0
C169 C 0.05565 0.53189 0.83383 0.0
O170 O 0.0708 0.54808 0.83521 0.0
O171 O 0.08384 0.55847 0.74983 0.0
Zn172 Zn 0.06714 0.53089 0.75108 0.0
O173 O 0.08159 0.51783 0.74414 0.0
C174 C 0.04425 0.53462 0.69126 0.0
O175 O 0.04861 0.54972 0.71167 0.0
O176 O 0.05169 0.52239 0.80158 0.0
C177 C 0.09115 0.52109 0.71213 0.0
O178 O 0.0917 0.53323 0.68612 0.0
C179 C 0.10123 0.56699 0.75491 0.0
O180 O 0.10948 0.55764 0.76421 0.0
O181 O 0.05029 0.52419 0.70316 0.0
C182 C 0.46142 0.5203 0.80966 0.0
O183 O 0.4469 0.50739 0.7906 0.0
O184 O 0.43696 0.53199 0.7327 0.0
Zn185 Zn 0.46425 0.5416 0.73839 0.0
O186 O 0.47795 0.56915 0.72846 0.0
C187 C 0.46037 0.513 0.68315 0.0
O188 O 0.44405 0.50348 0.70014 0.0
O189 O 0.47072 0.53612 0.79343 0.0
C190 C 0.48626 0.57582 0.69515 0.0
O191 O 0.4862 0.56462 0.66726 0.0
C192 C 0.43164 0.53485 0.69879 0.0
O193 O 0.44406 0.54425 0.671 0.0
O194 O 0.47145 0.52922 0.69567 0.0
C195 C 0.60433 0.80621 0.4902 0.0
O196 O 0.58762 0.79188 0.48678 0.0
O197 O 0.57762 0.81522 0.58095 0.0
Zn198 Zn 0.59471 0.80499 0.57527 0.0
O199 O 0.58055 0.77728 0.57894 0.0
C200 C 0.61724 0.82988 0.63826 0.0
O201 O 0.6117 0.84064 0.62228 0.0
O202 O 0.60986 0.81385 0.52451 0.0
C203 C 0.57265 0.77051 0.61254 0.0
O204 O 0.57375 0.78178 0.6415 0.0
C205 C 0.56022 0.80604 0.57625 0.0
O206 O 0.5524 0.78882 0.56402 0.0
O207 O 0.61199 0.81416 0.62263 0.0
C208 C 0.19675 0.80105 0.50855 0.0
O209 O 0.21445 0.80695 0.51281 0.0
O210 O 0.18407 0.76022 0.59981 0.0
Zn211 Zn 0.19425 0.78741 0.59069 0.0
O212 O 0.22197 0.80123 0.59578 0.0
C213 C 0.16872 0.78606 0.65101 0.0
O214 O 0.15823 0.76937 0.63648 0.0
O215 O 0.18578 0.7922 0.53731 0.0
C216 C 0.22866 0.80318 0.63118 0.0
O217 O 0.21733 0.79588 0.66195 0.0
C218 C 0.1938 0.75253 0.60331 0.0
O219 O 0.21174 0.76237 0.59804 0.0
O220 O 0.18446 0.79643 0.63527 0.0
C221 C 0.20405 0.39309 0.50136 0.0
O222 O 0.22099 0.40712 0.4997 0.0
O223 O 0.2313 0.42258 0.58439 0.0
Zn224 Zn 0.20369 0.4055 0.58416 0.0
O225 O 0.19048 0.41987 0.59152 0.0
C226 C 0.20108 0.39398 0.66696 0.0
O227 O 0.20936 0.41184 0.67353 0.0
O228 O 0.19467 0.39027 0.53348 0.0
C229 C 0.17514 0.41273 0.61011 0.0
O230 O 0.16764 0.39562 0.62295 0.0
C231 C 0.23824 0.43846 0.60059 0.0
O232 O 0.22718 0.44398 0.61497 0.0
O233 O 0.19739 0.38802 0.63086 0.0
C234 C 0.17795 0.3651 0.46921 0.0
C235 C 0.19596 0.38029 0.4667 0.0
C236 C 0.17034 0.35276 0.43698 0.0
C237 C 0.18314 0.33613 0.34624 0.0
H238 H 0.13203 0.31744 0.31592 0.0
C239 C 0.15162 0.29399 0.20062 0.0
C240 C 0.13347 0.27899 0.20247 0.0
C241 C 0.15924 0.30603 0.23334 0.0
C242 C 0.14625 0.32234 0.32434 0.0
H243 H 0.22005 0.39451 0.42813 0.0
H244 H 0.20667 0.37302 0.37162 0.0
H245 H 0.14538 0.33942 0.37145 0.0
H246 H 0.10918 0.26475 0.24044 0.0
H247 H 0.12258 0.28569 0.29784 0.0
H248 H 0.18401 0.31906 0.29914 0.0
C249 C 0.19853 0.37055 0.3988 0.0
C250 C 0.15392 0.33496 0.35612 0.0
C251 C 0.20616 0.38292 0.43109 0.0
C252 C 0.12318 0.2762 0.23798 0.0
C253 C 0.13081 0.28826 0.27078 0.0
C254 C 0.17547 0.3235 0.31448 0.0
C255 C 0.18054 0.35531 0.40143 0.0
C256 C 0.17245 0.34201 0.36741 0.0
C257 C 0.14891 0.30336 0.26875 0.0
C258 C 0.15695 0.31648 0.30311 0.0
H259 H 0.16972 0.36261 0.49624 0.0
H260 H 0.15654 0.34103 0.44019 0.0
H261 H 0.19737 0.34107 0.35462 0.0
H262 H 0.15994 0.2966 0.17368 0.0
H263 H 0.17312 0.31766 0.23055 0.0
C264 C 0.63503 0.82794 0.45938 0.0
C265 C 0.61696 0.813 0.45501 0.0
C266 C 0.64723 0.83402 0.42668 0.0
C267 C 0.65559 0.81851 0.32869 0.0
H268 H 0.68845 0.87079 0.3102 0.0
C269 C 0.70004 0.84607 0.18479 0.0
C270 C 0.71822 0.86081 0.18908 0.0
C271 C 0.68778 0.84038 0.21734 0.0
C272 C 0.67952 0.85614 0.31524 0.0
H273 H 0.59745 0.79294 0.41261 0.0
H274 H 0.61872 0.80369 0.35536 0.0
H275 H 0.66657 0.86073 0.36623 0.0
H276 H 0.7378 0.88106 0.2311 0.0
H277 H 0.71641 0.87096 0.28816 0.0
H278 H 0.66854 0.8139 0.27778 0.0
C279 C 0.62352 0.81052 0.38429 0.0
C280 C 0.66696 0.85037 0.34731 0.0
C281 C 0.61129 0.80443 0.41704 0.0
C282 C 0.72388 0.86969 0.22675 0.0
C283 C 0.71159 0.86397 0.25938 0.0
C284 C 0.66814 0.82427 0.29665 0.0
C285 C 0.64166 0.82532 0.38881 0.0
C286 C 0.65484 0.83149 0.35439 0.0
C287 C 0.69339 0.84925 0.25503 0.0
C288 C 0.68024 0.84315 0.2895 0.0
H289 H 0.63988 0.83484 0.48824 0.0
H290 H 0.66117 0.8453 0.43133 0.0
H291 H 0.64668 0.80385 0.33374 0.0
H292 H 0.69518 0.83896 0.15615 0.0
H293 H 0.6738 0.82917 0.21278 0.0
C294 C 0.2019 0.81608 0.44047 0.0
C295 C 0.18975 0.80554 0.47163 0.0
C296 C 0.19541 0.82107 0.40655 0.0
C297 C 0.15295 0.8091 0.34903 0.0
H298 H 0.18148 0.85933 0.30953 0.0
C299 C 0.12436 0.83855 0.22935 0.0
C300 C 0.13658 0.84978 0.19897 0.0
C301 C 0.13086 0.83314 0.2626 0.0
C302 C 0.17345 0.84519 0.31987 0.0
H303 H 0.16117 0.79173 0.49125 0.0
H304 H 0.14989 0.80054 0.43224 0.0
H305 H 0.19285 0.84952 0.36677 0.0
H306 H 0.16523 0.86417 0.17979 0.0
H307 H 0.17648 0.85455 0.23745 0.0
H308 H 0.13355 0.80476 0.30212 0.0
C309 C 0.16441 0.80481 0.43384 0.0
C310 C 0.17998 0.83957 0.35267 0.0
C311 C 0.17091 0.79984 0.46777 0.0
C312 C 0.15544 0.85558 0.20273 0.0
C313 C 0.16192 0.85014 0.23591 0.0
C314 C 0.14643 0.81471 0.31618 0.0
C315 C 0.17661 0.81561 0.40299 0.0
C316 C 0.1698 0.82146 0.36766 0.0
C317 C 0.1497 0.8388 0.2662 0.0
C318 C 0.1566 0.83284 0.30123 0.0
H319 H 0.21649 0.82064 0.4424 0.0
H320 H 0.20511 0.82918 0.38302 0.0
H321 H 0.1449 0.79498 0.35952 0.0
H322 H 0.10976 0.8339 0.22746 0.0
H323 H 0.12111 0.82463 0.28569 0.0
C324 C 0.36636 0.20973 0.53235 0.0
C325 C 0.37503 0.20015 0.51818 0.0
C326 C 0.35531 0.20376 0.56698 0.0
C327 C 0.34514 0.17449 0.6581 0.0
H328 H 0.29898 0.17483 0.65715 0.0
C329 C 0.29938 0.1574 0.80009 0.0
C330 C 0.28019 0.14646 0.79476 0.0
C331 C 0.31113 0.16429 0.76671 0.0
C332 C 0.31176 0.17452 0.65779 0.0
H333 H 0.3791 0.1769 0.52958 0.0
H334 H 0.35965 0.16637 0.58962 0.0
H335 H 0.3193 0.18617 0.59848 0.0
H336 H 0.25829 0.13418 0.7501 0.0
H337 H 0.27883 0.14604 0.69179 0.0
H338 H 0.33738 0.16239 0.71698 0.0
C339 C 0.36157 0.17865 0.57432 0.0
C340 C 0.32352 0.18124 0.62436 0.0
C341 C 0.37266 0.18464 0.53976 0.0
C342 C 0.27301 0.1426 0.75527 0.0
C343 C 0.28477 0.14949 0.72184 0.0
C344 C 0.33337 0.16775 0.69151 0.0
C345 C 0.35265 0.18805 0.58816 0.0
C346 C 0.34034 0.18127 0.62409 0.0
C347 C 0.30398 0.1604 0.72718 0.0
C348 C 0.31653 0.16765 0.69171 0.0
H349 H 0.36798 0.22179 0.51655 0.0
H350 H 0.34887 0.21149 0.57721 0.0
H351 H 0.35807 0.17448 0.65905 0.0
H352 H 0.30538 0.16071 0.83011 0.0
H353 H 0.32583 0.17287 0.77191 0.0
C354 C 0.78761 0.17693 0.57439 0.0
C355 C 0.79797 0.18419 0.53884 0.0
C356 C 0.79471 0.17159 0.60668 0.0
C357 C 0.82933 0.1579 0.63036 0.0
H358 H 0.82247 0.16882 0.74085 0.0
C359 C 0.86601 0.14668 0.76685 0.0
C360 C 0.85559 0.13946 0.80234 0.0
C361 C 0.85891 0.15185 0.73426 0.0
C362 C 0.82432 0.16548 0.71018 0.0
H363 H 0.82405 0.19178 0.50957 0.0
H364 H 0.83645 0.18266 0.56595 0.0
H365 H 0.81027 0.17866 0.6852 0.0
H366 H 0.82936 0.13167 0.8311 0.0
H367 H 0.81698 0.14053 0.77426 0.0
H368 H 0.84341 0.14474 0.65538 0.0
C369 C 0.82273 0.18083 0.56868 0.0
C370 C 0.81733 0.17112 0.6783 0.0
C371 C 0.81566 0.18618 0.53646 0.0
C372 C 0.83781 0.13726 0.80429 0.0
C373 C 0.83074 0.14245 0.7718 0.0
C374 C 0.83633 0.15226 0.66226 0.0
C375 C 0.81231 0.17338 0.60408 0.0
C376 C 0.81975 0.16739 0.63802 0.0
C377 C 0.84125 0.14994 0.73654 0.0
C378 C 0.83388 0.15596 0.70254 0.0
H379 H 0.77393 0.17518 0.57719 0.0
H380 H 0.78626 0.16574 0.63338 0.0
H381 H 0.83118 0.15456 0.5997 0.0
H382 H 0.87975 0.14857 0.76437 0.0
H383 H 0.86742 0.15772 0.70764 0.0
C384 C 0.86488 0.7026 0.79389 0.0
C385 C 0.85918 0.71571 0.79804 0.0
C386 C 0.85952 0.69091 0.7603 0.0
C387 C 0.82374 0.67111 0.68118 0.0
H388 H 0.85775 0.65874 0.62962 0.0
C389 C 0.80601 0.62911 0.53294 0.0
C390 C 0.8116 0.61588 0.52953 0.0
C391 C 0.8118 0.64132 0.56563 0.0
C392 C 0.84802 0.66189 0.64398 0.0
H393 H 0.84372 0.72711 0.7696 0.0
H394 H 0.83452 0.70683 0.71074 0.0
H395 H 0.86833 0.68049 0.68589 0.0
H396 H 0.82741 0.60493 0.55821 0.0
H397 H 0.83731 0.6261 0.61554 0.0
H398 H 0.80342 0.65246 0.63938 0.0
C399 C 0.84291 0.70541 0.73382 0.0
C400 C 0.85409 0.67438 0.67618 0.0
C401 C 0.84829 0.71711 0.76743 0.0
C402 C 0.82292 0.615 0.55983 0.0
C403 C 0.82869 0.62721 0.59255 0.0
C404 C 0.81766 0.65861 0.64899 0.0
C405 C 0.84833 0.69207 0.73005 0.0
C406 C 0.84202 0.67911 0.6952 0.0
C407 C 0.82328 0.64058 0.59572 0.0
C408 C 0.82972 0.65383 0.63005 0.0
H409 H 0.87326 0.70112 0.81694 0.0
H410 H 0.86376 0.68066 0.75856 0.0
H411 H 0.814 0.67422 0.69559 0.0
H412 H 0.79734 0.63022 0.51007 0.0
H413 H 0.80755 0.65159 0.56689 0.0
C414 C 0.95924 0.48813 0.13903 0.0
C415 C 0.94298 0.47085 0.137 0.0
C416 C 0.97127 0.49487 0.10606 0.0
C417 C 0.98438 0.4795 0.01374 0.0
H418 H 0.00775 0.53115 0.9838 0.0
C419 C 0.02665 0.50772 0.867 0.0
C420 C 0.04303 0.52489 0.869 0.0
C421 C 0.01453 0.5012 0.89982 0.0
C422 C 0.0015 0.51674 0.99207 0.0
H423 H 0.9265 0.44722 0.09846 0.0
H424 H 0.94743 0.45907 0.04078 0.0
H425 H 0.98613 0.51969 0.04034 0.0
H426 H 0.05958 0.54862 0.90724 0.0
H427 H 0.03847 0.53713 0.96472 0.0
H428 H -0.00025 0.47653 0.96552 0.0
C429 C 0.95098 0.46729 0.0681 0.0
C430 C 0.9891 0.51017 0.02444 0.0
C431 C 0.93893 0.46055 0.10108 0.0
C432 C 0.04706 0.53536 0.90467 0.0
C433 C 0.03491 0.52882 0.93752 0.0
C434 C -0.00322 0.48606 0.98139 0.0
C435 C 0.96734 0.48449 0.07029 0.0
C436 C 0.98039 0.49146 0.03564 0.0
C437 C 0.01849 0.51168 0.93544 0.0
C438 C 0.00547 0.50476 0.97015 0.0
H439 H 0.9628 0.49641 0.16627 0.0
H440 H 0.98385 0.50806 0.10892 0.0
H441 H 0.97815 0.46508 0.02202 0.0
H442 H 0.02309 0.49932 0.83994 0.0
H443 H 0.00189 0.48805 0.89702 0.0
C444 C 0.50454 0.46962 0.11932 0.0
C445 C 0.52018 0.48355 0.13919 0.0
C446 C 0.49795 0.47352 0.08398 0.0
C447 C 0.49957 0.51229 0.02671 0.0
H448 H 0.48168 0.47721 0.93813 0.0
C449 C 0.48314 0.52994 0.86866 0.0
C450 C 0.46738 0.51625 0.84866 0.0
C451 C 0.48918 0.52593 0.90467 0.0
C452 C 0.48643 0.48705 0.96278 0.0
H453 H 0.54131 0.51247 0.13717 0.0
H454 H 0.53 0.51919 0.07522 0.0
H455 H 0.49325 0.47023 -0.00062 0.0
H456 H 0.44542 0.48766 0.85122 0.0
H457 H 0.45588 0.48072 0.91421 0.0
H458 H 0.49285 0.52916 0.98994 0.0
C459 C 0.52262 0.50532 0.08734 0.0
C460 C 0.49306 0.48306 -0.0021 0.0
C461 C 0.52918 0.50143 0.12273 0.0
C462 C 0.45765 0.49852 0.86576 0.0
C463 C 0.46371 0.4945 0.90174 0.0
C464 C 0.49297 0.5163 0.99155 0.0
C465 C 0.50687 0.49143 0.06762 0.0
C466 C 0.49975 0.49564 0.03028 0.0
C467 C 0.4796 0.50813 0.92149 0.0
C468 C 0.48634 0.50374 0.95915 0.0
H469 H 0.49723 0.45571 0.13128 0.0
H470 H 0.48565 0.46254 0.06988 0.0
H471 H 0.50432 0.52215 0.05132 0.0
H472 H 0.49099 0.54373 0.85628 0.0
H473 H 0.50158 0.53668 0.91888 0.0
C474 C 0.51893 0.03843 0.11626 0.0
C475 C 0.53509 0.04201 0.13685 0.0
C476 C 0.51381 0.02825 0.08038 0.0
C477 C 0.52095 0.99443 0.02325 0.0
H478 H 0.4992 0.00757 0.93496 0.0
C479 C 0.5053 0.95852 0.86709 0.0
C480 C 0.48842 0.95417 0.84885 0.0
C481 C 0.51127 0.96938 0.90202 0.0
C482 C 0.50509 0.00362 0.95951 0.0
H483 H 0.55875 0.03799 0.13539 0.0
H484 H 0.54995 0.02043 0.07244 0.0
H485 H 0.50953 0.0267 0.99561 0.0
H486 H 0.46451 0.95772 0.8532 0.0
H487 H 0.47491 0.97659 0.91425 0.0
H488 H 0.51652 0.97136 0.98704 0.0
C489 C 0.54107 0.02525 0.08442 0.0
C490 C 0.51101 0.01458 0.99427 0.0
C491 C 0.54618 0.03542 0.12038 0.0
C492 C 0.4776 0.96084 0.86644 0.0
C493 C 0.48361 0.97175 0.90128 0.0
C494 C 0.51507 0.9835 0.98842 0.0
C495 C 0.52475 0.02143 0.06414 0.0
C496 C 0.51894 0.01008 0.02665 0.0
C497 C 0.50054 0.97619 0.91941 0.0
C498 C 0.507 0.98792 0.95623 0.0
H499 H 0.51003 0.04325 0.12816 0.0
H500 H 0.50103 0.02536 0.06585 0.0
H501 H 0.52672 0.99039 0.04786 0.0
H502 H 0.51398 0.95364 0.85429 0.0
H503 H 0.52447 0.9727 0.91503 0.0
C504 C 0.1494 0.29929 0.9735 0.0
C505 C 0.13953 0.28014 0.96697 0.0
C506 C 0.15648 0.31148 0.94087 0.0
C507 C 0.15068 0.31465 0.83126 0.0
H508 H 0.19985 0.35742 0.838 0.0
C509 C 0.18589 0.36177 0.69411 0.0
C510 C 0.1952 0.38088 0.7012 0.0
C511 C 0.17966 0.34936 0.72641 0.0
C512 C 0.18603 0.34563 0.83582 0.0
H513 H 0.12934 0.25873 0.92109 0.0
H514 H 0.1418 0.28002 0.86416 0.0
H515 H 0.1877 0.33592 0.8947 0.0
H516 H 0.2055 0.40198 0.74777 0.0
H517 H 0.19447 0.3803 0.80416 0.0
H518 H 0.14897 0.32438 0.7725 0.0
C519 C 0.1439 0.28561 0.8945 0.0
C520 C 0.17908 0.33333 0.86828 0.0
C521 C 0.13683 0.27342 0.92713 0.0
C522 C 0.19839 0.38733 0.74128 0.0
C523 C 0.19216 0.37491 0.77361 0.0
C524 C 0.15764 0.32695 0.79882 0.0
C525 C 0.15382 0.30477 0.90102 0.0
C526 C 0.16131 0.31773 0.86638 0.0
C527 C 0.18259 0.35579 0.76651 0.0
C528 C 0.17537 0.34259 0.80077 0.0
H529 H 0.15169 0.30492 0.00383 0.0
H530 H 0.16385 0.32617 0.94685 0.0
H531 H 0.13684 0.30291 0.82912 0.0
H532 H 0.18327 0.35634 0.66357 0.0
H533 H 0.17257 0.33471 0.71997 0.0
C534 C 0.6346 0.82394 0.69215 0.0
C535 C 0.62877 0.83556 0.67517 0.0
C536 C 0.64491 0.82892 0.72779 0.0
C537 C 0.65514 0.85793 0.81827 0.0
H538 H 0.69578 0.84848 0.8301 0.0
C539 C 0.70284 0.88021 0.95918 0.0
C540 C 0.70761 0.86738 0.9738 0.0
C541 C 0.69338 0.8771 0.92253 0.0
C542 C 0.68436 0.85104 0.82738 0.0
H543 H 0.62936 0.86163 0.68207 0.0
H544 H 0.64753 0.87037 0.74432 0.0
H545 H 0.67945 0.84201 0.7658 0.0
H546 H 0.70582 0.84103 0.9619 0.0
H547 H 0.68919 0.83556 0.89838 0.0
H548 H 0.66001 0.86683 0.88006 0.0
C549 C 0.64394 0.85733 0.73018 0.0
C550 C 0.67502 0.84736 0.79056 0.0
C551 C 0.63363 0.85236 0.69441 0.0
C552 C 0.70244 0.85124 0.95142 0.0
C553 C 0.69302 0.84816 0.91485 0.0
C554 C 0.6645 0.86162 0.85518 0.0
C555 C 0.64963 0.84563 0.74729 0.0
C556 C 0.66018 0.85056 0.78573 0.0
C557 C 0.68855 0.86113 0.89979 0.0
C558 C 0.67907 0.858 0.86024 0.0
H559 H 0.63103 0.81087 0.67817 0.0
H560 H 0.64888 0.81949 0.74052 0.0
H561 H 0.64363 0.86035 0.8156 0.0
H562 H 0.70666 0.89279 0.9757 0.0
H563 H 0.69023 0.88741 0.91156 0.0
C564 C 0.14797 0.84969 0.96566 0.0
C565 C 0.13205 0.83828 0.98832 0.0
C566 C 0.15113 0.84367 0.92874 0.0
C567 C 0.13827 0.80195 0.86832 0.0
H568 H 0.15672 0.83661 0.77895 0.0
C569 C 0.14634 0.78029 0.70713 0.0
C570 C 0.16297 0.79225 0.68726 0.0
C571 C 0.14154 0.78575 0.74291 0.0
C572 C 0.1517 0.82682 0.80369 0.0
H573 H 0.10711 0.81147 0.9903 0.0
H574 H 0.11261 0.801 0.92564 0.0
H575 H 0.15059 0.84624 0.84393 0.0
H576 H 0.18742 0.81946 0.68892 0.0
H577 H 0.17908 0.82891 0.75132 0.0
H578 H 0.1395 0.78256 0.82809 0.0
C579 C 0.1227 0.81455 0.93663 0.0
C580 C 0.14822 0.83233 0.84093 0.0
C581 C 0.11953 0.82058 0.97361 0.0
C582 C 0.17449 0.80992 0.70342 0.0
C583 C 0.16967 0.81538 0.7391 0.0
C584 C 0.14175 0.79642 0.83104 0.0
C585 C 0.13845 0.82611 0.91361 0.0
C586 C 0.14162 0.82001 0.87376 0.0
C587 C 0.15324 0.8033 0.75947 0.0
C588 C 0.14865 0.80885 0.79842 0.0
H589 H 0.15794 0.86338 0.97619 0.0
H590 H 0.16356 0.85278 0.91206 0.0
H591 H 0.13338 0.7922 0.89316 0.0
H592 H 0.13714 0.76659 0.69543 0.0
H593 H 0.12868 0.77622 0.75765 0.0
C594 C 0.35808 0.18581 0.31307 0.0
C595 C 0.37581 0.2011 0.30743 0.0
C596 C 0.34515 0.17966 0.2817 0.0
C597 C 0.33512 0.19368 0.18245 0.0
H598 H 0.30534 0.14088 0.16537 0.0
C599 C 0.29685 0.16144 0.03311 0.0
C600 C 0.27867 0.14659 0.03596 0.0
C601 C 0.30772 0.1685 0.06775 0.0
C602 C 0.3134 0.15565 0.17006 0.0
H603 H 0.39382 0.22208 0.26464 0.0
H604 H 0.37148 0.21112 0.20973 0.0
H605 H 0.32609 0.15256 0.22332 0.0
H606 H 0.25761 0.12754 0.07736 0.0
H607 H 0.27673 0.13981 0.13787 0.0
H608 H 0.32274 0.19669 0.1284 0.0
C609 C 0.36738 0.20407 0.23858 0.0
C610 C 0.32526 0.16236 0.20332 0.0
C611 C 0.38025 0.21029 0.27002 0.0
C612 C 0.27157 0.13898 0.07417 0.0
C613 C 0.28252 0.14594 0.10878 0.0
C614 C 0.32337 0.18696 0.14902 0.0
C615 C 0.34971 0.18859 0.24392 0.0
C616 C 0.33638 0.18147 0.20975 0.0
C617 C 0.3007 0.16076 0.10588 0.0
C618 C 0.31251 0.16789 0.14234 0.0
H619 H 0.35419 0.17851 0.34166 0.0
H620 H 0.33157 0.16789 0.28708 0.0
H621 H 0.34322 0.20846 0.18689 0.0
H622 H 0.30271 0.16762 0.00411 0.0
H623 H 0.32176 0.1798 0.06459 0.0
C624 C 0.83611 0.14038 0.03227 0.0
C625 C 0.85067 0.13683 0.03801 0.0
C626 C 0.82861 0.14487 0.06511 0.0
C627 C 0.82546 0.14209 0.17694 0.0
H628 H 0.81155 0.17961 0.16487 0.0
C629 C 0.80902 0.17507 0.31211 0.0
C630 C 0.79359 0.17741 0.30833 0.0
C631 C 0.81522 0.16927 0.27909 0.0
C632 C 0.81519 0.16896 0.16854 0.0
H633 H 0.86898 0.13545 0.08257 0.0
H634 H 0.85622 0.14371 0.13967 0.0
H635 H 0.82418 0.17147 0.10714 0.0
H636 H 0.77245 0.17534 0.26709 0.0
H637 H 0.78338 0.1653 0.20934 0.0
H638 H 0.81679 0.1399 0.23864 0.0
C639 C 0.85029 0.14262 0.10997 0.0
C640 C 0.8224 0.16427 0.13548 0.0
C641 C 0.85769 0.13801 0.07719 0.0
C642 C 0.78438 0.17367 0.27097 0.0
C643 C 0.79068 0.16802 0.23785 0.0
C644 C 0.81838 0.14689 0.21006 0.0
C645 C 0.8356 0.14603 0.10436 0.0
C646 C 0.82767 0.15082 0.13932 0.0
C647 C 0.8062 0.16585 0.24156 0.0
C648 C 0.81323 0.1604 0.2062 0.0
H649 H 0.83033 0.13948 0.00246 0.0
H650 H 0.81715 0.14717 0.05978 0.0
H651 H 0.82905 0.13143 0.18076 0.0
H652 H 0.81641 0.17783 0.34051 0.0
H653 H 0.82731 0.16786 0.28268 0.0
C654 C 0.85493 0.69086 0.0204 0.0
C655 C 0.87036 0.70842 0.02692 0.0
C656 C 0.84716 0.67836 0.05235 0.0
C657 C 0.85675 0.66902 0.15687 0.0
H658 H 0.80338 0.63995 0.16391 0.0
C659 C 0.81849 0.63068 0.30184 0.0
C660 C 0.80419 0.61235 0.29709 0.0
C661 C 0.82664 0.64187 0.26807 0.0
C662 C 0.8183 0.64786 0.16211 0.0
H663 H 0.88984 0.72659 0.07199 0.0
H664 H 0.87607 0.70503 0.1278 0.0
H665 H 0.81768 0.66037 0.10618 0.0
H666 H 0.78703 0.59142 0.25326 0.0
H667 H 0.80118 0.6111 0.19425 0.0
H668 H 0.85727 0.6568 0.21343 0.0
C669 C 0.87017 0.7007 0.0979 0.0
C670 C 0.82652 0.65951 0.12898 0.0
C671 C 0.87801 0.71313 0.06591 0.0
C672 C 0.79805 0.60549 0.2579 0.0
C673 C 0.80607 0.61675 0.22414 0.0
C674 C 0.84852 0.65751 0.19016 0.0
C675 C 0.85458 0.68321 0.09159 0.0
C676 C 0.84585 0.6703 0.12605 0.0
C677 C 0.82052 0.63501 0.22891 0.0
C678 C 0.82922 0.64689 0.19317 0.0
H679 H 0.84878 0.68678 0.99062 0.0
H680 H 0.83536 0.66489 0.04626 0.0
H681 H 0.87167 0.67685 0.15524 0.0
H682 H 0.82354 0.63636 0.33164 0.0
H683 H 0.83764 0.65596 0.27259 0.0
C684 C 0.95913 0.48307 0.3733 0.0
C685 C 0.95263 0.49418 0.35655 0.0
C686 C 0.96956 0.48838 0.4088 0.0
C687 C 0.97908 0.51726 0.49932 0.0
H688 H 0.02121 0.5101 0.51018 0.0
C689 C 0.02748 0.54226 0.63881 0.0
C690 C 0.03328 0.53025 0.65363 0.0
C691 C 0.0178 0.53848 0.60232 0.0
C692 C 0.00937 0.51202 0.50776 0.0
H693 H 0.95214 0.51969 0.36373 0.0
H694 H 0.97048 0.52901 0.42572 0.0
H695 H 0.0044 0.5027 0.44636 0.0
H696 H 0.03318 0.50468 0.64214 0.0
H697 H 0.01612 0.49799 0.57887 0.0
H698 H 0.98398 0.52645 0.56089 0.0
C699 C 0.96733 0.5161 0.41152 0.0
C700 C -0.00024 0.5078 0.47119 0.0
C701 C 0.95692 0.51081 0.3759 0.0
C702 C 0.02898 0.51426 0.6315 0.0
C703 C 0.01932 0.51049 0.59507 0.0
C704 C 0.98869 0.52147 0.53596 0.0
C705 C 0.97372 0.50491 0.4284 0.0
C706 C 0.98442 0.51022 0.46667 0.0
C707 C 0.01374 0.52262 0.5799 0.0
C708 C 0.00384 0.51874 0.54068 0.0
H709 H 0.95603 0.47015 0.35922 0.0
H710 H 0.97407 0.47934 0.42133 0.0
H711 H 0.96717 0.51907 0.49691 0.0
H712 H 0.03062 0.55472 0.65509 0.0
H713 H 0.01382 0.54817 0.59125 0.0
C714 C 0.48196 0.5165 0.62704 0.0
C715 C 0.4651 0.50569 0.6472 0.0
C716 C 0.48584 0.51026 0.59125 0.0
C717 C 0.46271 0.47855 0.50625 0.0
H718 H 0.51194 0.48755 0.48293 0.0
C719 C 0.48033 0.45032 0.36341 0.0
C720 C 0.49707 0.46226 0.3439 0.0
C721 C 0.47603 0.45518 0.40061 0.0
C722 C 0.49817 0.4851 0.48885 0.0
H723 H 0.43933 0.47959 0.64624 0.0
H724 H 0.44622 0.4686 0.58395 0.0
H725 H 0.50544 0.49624 0.54865 0.0
H726 H 0.52219 0.48889 0.34763 0.0
H727 H 0.51458 0.49741 0.41222 0.0
H728 H 0.45548 0.46747 0.44634 0.0
C729 C 0.45631 0.48204 0.59553 0.0
C730 C 0.49444 0.49005 0.52651 0.0
C731 C 0.45242 0.48828 0.63137 0.0
C732 C 0.50921 0.47934 0.36191 0.0
C733 C 0.50492 0.48417 0.39909 0.0
C734 C 0.46644 0.47357 0.46858 0.0
C735 C 0.47296 0.49306 0.57481 0.0
C736 C 0.4767 0.48696 0.53554 0.0
C737 C 0.48839 0.47205 0.41908 0.0
C738 C 0.48425 0.47693 0.45936 0.0
H739 H 0.49202 0.53 0.63835 0.0
H740 H 0.49871 0.51918 0.57581 0.0
H741 H 0.44897 0.47622 0.51204 0.0
H742 H 0.47069 0.43705 0.35038 0.0
H743 H 0.46324 0.4455 0.4154 0.0
C744 C 0.48018 0.96305 0.62319 0.0
C745 C 0.49199 0.95867 0.6446 0.0
C746 C 0.4855 0.97197 0.58582 0.0
C747 C 0.52591 0.00039 0.52152 0.0
H748 H 0.48971 0.98244 0.43502 0.0
C749 C 0.54466 0.02876 0.35873 0.0
C750 C 0.53209 0.03276 0.33951 0.0
C751 C 0.53989 0.01871 0.39482 0.0
C752 C 0.49993 0.98771 0.45894 0.0
H753 H 0.51884 0.96062 0.64403 0.0
H754 H 0.52811 0.97621 0.57871 0.0
H755 H 0.48138 0.96759 0.50116 0.0
H756 H 0.50447 0.02893 0.34254 0.0
H757 H 0.49625 0.01158 0.40549 0.0
H758 H 0.54441 0.02065 0.47942 0.0
C759 C 0.51477 0.9728 0.59095 0.0
C760 C 0.49516 0.97922 0.49683 0.0
C761 C 0.50943 0.96382 0.62831 0.0
C762 C 0.51448 0.02605 0.35651 0.0
C763 C 0.50972 0.01602 0.39254 0.0
C764 C 0.53069 0.00891 0.48361 0.0
C765 C 0.50276 0.97676 0.56908 0.0
C766 C 0.50804 0.98556 0.52862 0.0
C767 C 0.52245 0.01243 0.41239 0.0
C768 C 0.5177 0.00275 0.45198 0.0
H769 H 0.46667 0.95932 0.63492 0.0
H770 H 0.47607 0.97511 0.56998 0.0
H771 H 0.53609 0.0057 0.54554 0.0
H772 H 0.55832 0.03369 0.34636 0.0
H773 H 0.5499 0.01594 0.40909 0.0
C774 C 0.12504 0.19182 0.04893 0.0
C775 C 0.13551 0.21098 0.0552 0.0
C776 C 0.13328 0.18223 0.03292 0.0
C777 C 0.17248 0.1894 0.97029 0.0
H778 H 0.16488 0.14375 0.01766 0.0
C779 C 0.21914 0.15929 0.93296 0.0
C780 C 0.21145 0.14004 0.93211 0.0
C781 C 0.20849 0.16706 0.94456 0.0
C782 C 0.16689 0.1563 0.00357 0.0
H783 H 0.16292 0.23502 0.05043 0.0
H784 H 0.17721 0.21828 0.02255 0.0
H785 H 0.14893 0.15888 0.04595 0.0
H786 H 0.18632 0.11383 0.94109 0.0
H787 H 0.16759 0.12742 0.96055 0.0
H788 H 0.19038 0.1869 0.92788 0.0
C789 C 0.16261 0.21072 0.02966 0.0
C790 C 0.1578 0.16499 0.01992 0.0
C791 C 0.15444 0.22027 0.04594 0.0
C792 C 0.19268 0.12872 0.94167 0.0
C793 C 0.18198 0.1365 0.95309 0.0
C794 C 0.18144 0.18066 0.95376 0.0
C795 C 0.15209 0.19165 0.02255 0.0
C796 C 0.16077 0.18178 0.00386 0.0
C797 C 0.18984 0.15577 0.95533 0.0
C798 C 0.17901 0.16417 0.97061 0.0
H799 H 0.11042 0.18427 0.05576 0.0
H800 H 0.12484 0.16753 0.02764 0.0
H801 H 0.17474 0.20216 0.95682 0.0
H802 H 0.23357 0.16842 0.9259 0.0
H803 H 0.21509 0.18194 0.94646 0.0
C804 C 0.85208 0.05476 0.8978 0.0
C805 C 0.84886 0.06694 0.92097 0.0
C806 C 0.84539 0.03658 0.91067 0.0
C807 C 0.82867 0.00695 0.00185 0.0
H808 H 0.80469 0.96699 0.92456 0.0
C809 C 0.78144 0.93098 0.04917 0.0
C810 C 0.78191 0.91721 0.02579 0.0
C811 C 0.79155 0.94948 0.03741 0.0
C812 C 0.8116 0.978 0.94645 0.0
H813 H 0.83601 0.06953 0.97578 0.0
H814 H 0.82424 0.03791 0.99778 0.0
H815 H 0.81865 -0.00119 0.90132 0.0
H816 H 0.79402 0.91215 0.97274 0.0
H817 H 0.81179 0.94441 0.95259 0.0
H818 H 0.82138 0.98612 0.04708 0.0
C819 C 0.83216 0.04243 0.97003 0.0
C820 C 0.81959 0.99624 0.9331 0.0
C821 C 0.8388 0.06054 0.95719 0.0
C822 C 0.79323 0.9224 0.99127 0.0
C823 C 0.80334 0.94089 0.97956 0.0
C824 C 0.82068 0.98871 0.0152 0.0
C825 C 0.8354 0.03024 0.94701 0.0
C826 C 0.82801 0.01091 0.96072 0.0
C827 C 0.80237 0.9546 0.00207 0.0
C828 C 0.81187 0.97402 0.98772 0.0
H829 H 0.85983 0.05928 0.86983 0.0
H830 H 0.84822 0.02754 0.89241 0.0
H831 H 0.83533 0.01798 0.02379 0.0
H832 H 0.77283 0.92742 0.07589 0.0
H833 H 0.79036 0.95969 0.05523 0.0
C834 C 0.94056 0.80371 0.9429 0.0
C835 C 0.93246 0.78451 0.93832 0.0
C836 C 0.958 0.81402 0.96063 0.0
C837 C 0.98993 0.80853 0.02869 0.0
H838 H 0.0269 0.85598 0.98608 0.0
C839 C 0.06671 0.84265 0.07076 0.0
C840 C 0.07687 0.86191 0.07564 0.0
C841 C 0.04842 0.83398 0.05761 0.0
C842 C 0.01661 0.84288 -0.00126 0.0
H843 H 0.93662 0.76117 0.94747 0.0
H844 H 0.96706 0.77915 0.97768 0.0
H845 H 0.99653 0.83943 0.95416 0.0
H846 H 0.07558 0.8871 0.07182 0.0
H847 H 0.0435 0.87187 0.0489 0.0
H848 H 0.01006 0.81182 0.07283 0.0
C849 C 0.9598 0.78621 0.96839 0.0
C850 C -0.00076 0.83339 0.9804 0.0
C851 C 0.9424 0.77593 0.95073 0.0
C852 C 0.06813 0.87224 0.06834 0.0
C853 C 0.04981 0.86355 0.05493 0.0
C854 C 0.00727 0.81799 0.04696 0.0
C855 C 0.96768 0.80532 0.97416 0.0
C856 C 0.98581 0.81597 0.99479 0.0
C857 C 0.03985 0.84435 0.04891 0.0
C858 C 0.02091 0.83514 0.03182 0.0
H859 H 0.93324 0.81074 0.93375 0.0
H860 H 0.96367 0.82871 0.96481 0.0
H861 H 0.97974 0.79533 0.04109 0.0
H862 H 0.07302 0.83427 0.07614 0.0
H863 H 0.0412 0.8192 0.05287 0.0
C864 C 0.8412 0.76788 0.93438 0.0
C865 C 0.85377 0.76866 0.96361 0.0
C866 C 0.83023 0.77577 0.94206 0.0
C867 C 0.8118 0.79086 0.02616 0.0
H868 H 0.80259 0.81737 0.94166 0.0
C869 C 0.77564 0.8333 0.05566 0.0
C870 C 0.7627 0.83187 0.02665 0.0
C871 C 0.78661 0.82534 0.04854 0.0
C872 C 0.80488 0.80984 0.96545 0.0
H873 H 0.86492 0.77864 0.02354 0.0
H874 H 0.846 0.79262 0.03665 0.0
H875 H 0.82227 0.80428 0.92768 0.0
H876 H 0.7509 0.82068 0.96776 0.0
H877 H 0.76994 0.80676 0.95556 0.0
H878 H 0.79445 0.79652 0.06396 0.0
C879 C 0.84437 0.78562 0.00808 0.0
C880 C 0.81615 0.80233 0.95743 0.0
C881 C 0.85531 0.77771 0.00044 0.0
C882 C 0.76078 0.8221 0.9907 0.0
C883 C 0.77177 0.81421 0.98355 0.0
C884 C 0.80056 0.79841 0.0342 0.0
C885 C 0.83162 0.78465 0.97911 0.0
C886 C 0.81972 0.79273 0.98767 0.0
C887 C 0.78491 0.81587 0.01222 0.0
C888 C 0.79694 0.80795 0.0039 0.0
H889 H 0.83965 0.76096 0.90574 0.0
H890 H 0.8204 0.7746 0.91927 0.0
H891 H 0.81404 0.78329 0.04994 0.0
H892 H 0.77747 0.84076 0.08364 0.0
H893 H 0.79672 0.82697 0.07107 0.0
C894 C 0.17008 0.93775 0.05577 0.0
C895 C 0.15426 0.92576 0.03349 0.0
C896 C 0.18071 0.95631 0.04487 0.0
C897 C 0.18972 0.98805 0.95833 0.0
H898 H 0.21339 0.02581 0.04058 0.0
C899 C 0.22504 0.06649 0.92589 0.0
C900 C 0.24239 0.0776 0.94393 0.0
C901 C 0.21448 0.04778 0.93573 0.0
C902 C 0.20698 0.01537 0.01729 0.0
H903 H 0.13683 0.92393 0.98305 0.0
H904 H 0.155 0.9564 0.96483 0.0
H905 H 0.19403 0.99368 0.06078 0.0
H906 H 0.26238 0.07775 0.98602 0.0
H907 H 0.24383 0.04513 0.00343 0.0
H908 H 0.20242 0.00994 0.91495 0.0
C909 C 0.15955 0.9514 0.99 0.0
C910 C 0.19592 0.99695 0.02882 0.0
C911 C 0.14905 0.9328 0.00063 0.0
C912 C 0.24908 0.06956 0.97153 0.0
C913 C 0.23843 0.05093 0.98173 0.0
C914 C 0.20061 0.0065 0.94685 0.0
C915 C 0.17564 0.96336 0.01171 0.0
C916 C 0.18719 0.98303 -0.00051 0.0
C917 C 0.22098 0.0399 0.96417 0.0
C918 C 0.20941 0.02032 0.97622 0.0
H919 H 0.17452 0.93271 0.08111 0.0
H920 H 0.19314 0.96502 0.06194 0.0
H921 H 0.18352 0.97769 0.93486 0.0
H922 H 0.21951 0.07228 0.9045 0.0
H923 H 0.20102 0.03959 0.92192 0.0
C924 C 0.9301 0.13647 0.96957 0.0
C925 C 0.92023 0.14385 0.95041 0.0
C926 C 0.94849 0.1479 0.98089 0.0
C927 C 0.9817 0.19623 0.00596 0.0
H928 H 0.01791 0.18059 0.99409 0.0
C929 C 0.05943 0.24433 0.03865 0.0
C930 C 0.069 0.23651 0.05729 0.0
C931 C 0.04114 0.23319 0.02613 0.0
C932 C 0.0079 0.18506 -0.00191 0.0
H933 H 0.92213 0.16896 0.92701 0.0
H934 H 0.95432 0.18889 0.94651 0.0
H935 H 0.9866 0.16088 0.9691 0.0
H936 H 0.06668 0.21092 0.07863 0.0
H937 H 0.03471 0.19155 0.05737 0.0
H938 H 0.00298 0.22037 0.03514 0.0
C939 C 0.94772 0.17429 0.95326 0.0
C940 C 0.98998 0.17379 0.98366 0.0
C941 C 0.92932 0.16284 0.94183 0.0
C942 C 0.05973 0.21738 0.0642 0.0
C943 C 0.04145 0.20625 0.05172 0.0
C944 C -0.00037 0.2075 0.02045 0.0
C945 C 0.95744 0.16697 0.97336 0.0
C946 C 0.97666 0.17922 0.98752 0.0
C947 C 0.03202 0.21399 0.03202 0.0
C948 C 0.01292 0.20202 0.0168 0.0
H949 H 0.92351 0.12191 0.97666 0.0
H950 H 0.95554 0.14186 0.99665 0.0
H951 H 0.97167 0.20067 0.00997 0.0
H952 H 0.06618 0.25902 0.03278 0.0
H953 H 0.03434 0.23957 0.01074 0.0
C954 C 0.81797 0.55418 0.38497 0.0
C955 C 0.8014 0.54565 0.40713 0.0
C956 C 0.82592 0.54398 0.3714 0.0
C957 C 0.82867 0.50248 0.38978 0.0
H958 H 0.84482 0.50886 0.27796 0.0
C959 C 0.86059 0.46133 0.32159 0.0
C960 C 0.876 0.47116 0.29633 0.0
C961 C 0.8499 0.46907 0.33343 0.0
C962 C 0.84056 0.50704 0.30936 0.0
H963 H 0.78049 0.51982 0.43341 0.0
H964 H 0.79467 0.502 0.41008 0.0
H965 H 0.82956 0.52514 0.30334 0.0
H966 H 0.89211 0.49668 0.26313 0.0
H967 H 0.87378 0.51033 0.28443 0.0
H968 H 0.84016 0.48485 0.39628 0.0
C969 C 0.80135 0.51659 0.40312 0.0
C970 C 0.83178 0.51633 0.32383 0.0
C971 C 0.79324 0.52678 0.41638 0.0
C972 C 0.88025 0.48871 0.28242 0.0
C973 C 0.86967 0.4965 0.29451 0.0
C974 C 0.83763 0.49331 0.37541 0.0
C975 C 0.81762 0.52506 0.37997 0.0
C976 C 0.82594 0.51431 0.36428 0.0
C977 C 0.85446 0.48686 0.32051 0.0
C978 C 0.84388 0.49565 0.33512 0.0
H979 H 0.82465 0.56869 0.37731 0.0
H980 H 0.83862 0.55092 0.35414 0.0
H981 H 0.82442 0.50079 0.42118 0.0
H982 H 0.85688 0.44772 0.33262 0.0
H983 H 0.8381 0.46112 0.35286 0.0
C984 C 0.52873 0.39435 0.25939 0.0
C985 C 0.51833 0.4033 0.26096 0.0
C986 C 0.5219 0.37683 0.27654 0.0
C987 C 0.48836 0.34614 0.35289 0.0
H988 H 0.49265 0.30743 0.2986 0.0
C989 C 0.44451 0.26966 0.39632 0.0
C990 C 0.45266 0.25852 0.39506 0.0
C991 C 0.45423 0.28793 0.3831 0.0
C992 C 0.49161 0.31819 0.31445 0.0
H993 H 0.49233 0.40062 0.28054 0.0
H994 H 0.48039 0.3701 0.30979 0.0
H995 H 0.50613 0.33796 0.26771 0.0
H996 H 0.47765 0.25803 0.38012 0.0
H997 H 0.49467 0.29005 0.35712 0.0
H998 H 0.4736 0.32634 0.39929 0.0
C999 C 0.49397 0.37673 0.29609 0.0
C1000 C 0.4993 0.33566 0.29671 0.0
C1001 C 0.50077 0.39418 0.279 0.0
C1002 C 0.47097 0.26624 0.38145 0.0
C1003 C 0.48068 0.28453 0.36801 0.0
C1004 C 0.48068 0.3287 0.37057 0.0
C1005 C 0.50455 0.36797 0.29562 0.0
C1006 C 0.49747 0.34974 0.31543 0.0
C1007 C 0.47231 0.29549 0.3682 0.0
C1008 C 0.48196 0.31445 0.35125 0.0
H1009 H 0.54233 0.40103 0.24579 0.0
H1010 H 0.53041 0.37046 0.27583 0.0
H1011 H 0.48708 0.35682 0.36852 0.0
H1012 H 0.43043 0.26416 0.40662 0.0
H1013 H 0.44731 0.29594 0.38323 0.0
C1014 C 0.58862 0.11448 0.34246 0.0
C1015 C 0.58452 0.10787 0.30253 0.0
C1016 C 0.6069 0.12543 0.35504 0.0
C1017 C 0.65406 0.13612 0.32923 0.0
H1018 H 0.6682 0.17583 0.40653 0.0
C1019 C 0.72417 0.16908 0.40988 0.0
C1020 C 0.7339 0.18838 0.41407 0.0
C1021 C 0.70578 0.15988 0.39726 0.0
C1022 C 0.66453 0.16489 0.38469 0.0
H1023 H 0.59638 0.10802 0.24413 0.0
H1024 H 0.62834 0.12742 0.26591 0.0
H1025 H 0.63678 0.15958 0.3801 0.0
H1026 H 0.73178 0.21309 0.40945 0.0
H1027 H 0.69971 0.19702 0.38689 0.0
H1028 H 0.68186 0.14165 0.3331 0.0
C1029 C 0.61741 0.12384 0.28772 0.0
C1030 C 0.64646 0.15544 0.36985 0.0
C1031 C 0.59909 0.11281 0.27515 0.0
C1032 C 0.72465 0.1982 0.40665 0.0
C1033 C 0.70624 0.18898 0.3938 0.0
C1034 C 0.67212 0.14559 0.34396 0.0
C1035 C 0.62153 0.1301 0.32795 0.0
C1036 C 0.64097 0.14084 0.34217 0.0
C1037 C 0.6967 0.16974 0.38828 0.0
C1038 C 0.67754 0.15997 0.37215 0.0
H1039 H 0.57773 0.1109 0.36439 0.0
H1040 H 0.60955 0.12977 0.38637 0.0
H1041 H 0.65029 0.12482 0.30832 0.0
H1042 H 0.73084 0.16108 0.41566 0.0
H1043 H 0.69872 0.145 0.39425 0.0
C1044 C 0.49159 0.08873 0.32913 0.0
C1045 C 0.50059 0.09034 0.29218 0.0
C1046 C 0.48321 0.09924 0.33662 0.0
C1047 C 0.46431 0.12547 0.28671 0.0
H1048 H 0.47251 0.14942 0.39122 0.0
C1049 C 0.44153 0.1787 0.32104 0.0
C1050 C 0.4339 0.17791 0.35937 0.0
C1051 C 0.44968 0.16805 0.31252 0.0
C1052 C 0.46989 0.14265 0.36207 0.0
H1053 H 0.50755 0.10402 0.23379 0.0
H1054 H 0.49286 0.12241 0.24695 0.0
H1055 H 0.4864 0.13051 0.37657 0.0
H1056 H 0.42881 0.16529 0.4188 0.0
H1057 H 0.44279 0.1465 0.40375 0.0
H1058 H 0.44769 0.13749 0.27229 0.0
C1059 C 0.49225 0.11293 0.27002 0.0
C1060 C 0.47787 0.13183 0.35367 0.0
C1061 C 0.50073 0.10246 0.26257 0.0
C1062 C 0.43464 0.16628 0.38903 0.0
C1063 C 0.44274 0.15558 0.38046 0.0
C1064 C 0.45626 0.13624 0.29516 0.0
C1065 C 0.48357 0.11155 0.30729 0.0
C1066 C 0.47514 0.12311 0.31594 0.0
C1067 C 0.45035 0.15633 0.34209 0.0
C1068 C 0.45895 0.14494 0.33297 0.0
H1069 H 0.49117 0.07948 0.35256 0.0
H1070 H 0.47639 0.09768 0.36539 0.0
H1071 H 0.46179 0.11874 0.25753 0.0
H1072 H 0.44126 0.18759 0.29756 0.0
H1073 H 0.45566 0.16917 0.28287 0.0
C1074 C 0.82718 0.2666 0.39237 0.0
C1075 C 0.81099 0.25504 0.37066 0.0
C1076 C 0.83814 0.28516 0.3817 0.0
C1077 C 0.84743 0.31737 0.29618 0.0
H1078 H 0.87241 0.35469 0.37871 0.0
C1079 C 0.88486 0.39603 0.26481 0.0
C1080 C 0.90217 0.40676 0.28334 0.0
C1081 C 0.87394 0.3773 0.27415 0.0
C1082 C 0.86564 0.34438 0.35533 0.0
H1083 H 0.79331 0.25397 0.32151 0.0
H1084 H 0.8121 0.28644 0.30366 0.0
H1085 H 0.8524 0.32264 0.39861 0.0
H1086 H 0.92176 0.40617 0.3255 0.0
H1087 H 0.90262 0.37352 0.34191 0.0
H1088 H 0.86049 0.3393 0.25299 0.0
C1089 C 0.81663 0.28109 0.32823 0.0
C1090 C 0.8542 0.32601 0.36669 0.0
C1091 C 0.80577 0.2625 0.33867 0.0
C1092 C 0.90849 0.3983 0.31072 0.0
C1093 C 0.89749 0.37964 0.32034 0.0
C1094 C 0.85875 0.33579 0.28485 0.0
C1095 C 0.83306 0.29262 0.34933 0.0
C1096 C 0.845 0.31224 0.33726 0.0
C1097 C 0.88004 0.369 0.30249 0.0
C1098 C 0.86802 0.34945 0.31431 0.0
H1099 H 0.83164 0.26124 0.41703 0.0
H1100 H 0.85082 0.29353 0.39828 0.0
H1101 H 0.84084 0.30711 0.27264 0.0
H1102 H 0.87962 0.40214 0.24355 0.0
H1103 H 0.86049 0.36944 0.26009 0.0
C1104 C 0.58903 0.47389 0.32211 0.0
C1105 C 0.5816 0.47954 0.29083 0.0
C1106 C 0.6077 0.4844 0.33221 0.0
C1107 C 0.65282 0.5222 0.2947 0.0
H1108 H 0.66599 0.52682 0.40838 0.0
C1109 C 0.72454 0.57638 0.35512 0.0
C1110 C 0.73304 0.56985 0.38189 0.0
C1111 C 0.70609 0.56513 0.34397 0.0
C1112 C 0.66251 0.52553 0.37652 0.0
H1113 H 0.58793 0.50051 0.24527 0.0
H1114 H 0.62039 0.51915 0.26359 0.0
H1115 H 0.63382 0.50757 0.38828 0.0
H1116 H 0.72877 0.54654 0.41856 0.0
H1117 H 0.69638 0.52699 0.39951 0.0
H1118 H 0.68156 0.54061 0.28327 0.0
C1119 C 0.61193 0.50639 0.2798 0.0
C1120 C 0.6441 0.51444 0.36491 0.0
C1121 C 0.59328 0.49575 0.26938 0.0
C1122 C 0.7226 0.55196 0.39787 0.0
C1123 C 0.70407 0.54079 0.38709 0.0
C1124 C 0.6712 0.53346 0.30639 0.0
C1125 C 0.61934 0.50093 0.31159 0.0
C1126 C 0.63901 0.5126 0.32383 0.0
C1127 C 0.6957 0.54721 0.35974 0.0
C1128 C 0.67622 0.53523 0.34739 0.0
H1129 H 0.58041 0.46136 0.33896 0.0
H1130 H 0.61299 0.47953 0.35623 0.0
H1131 H 0.64949 0.52088 0.26278 0.0
H1132 H 0.73221 0.59008 0.3422 0.0
H1133 H 0.69991 0.57048 0.32314 0.0
C1134 C 0.52948 0.80357 0.58879 0.0
C1135 C 0.54886 0.81412 0.58914 0.0
C1136 C 0.51889 0.81077 0.60458 0.0
C1137 C 0.52226 0.84588 0.67661 0.0
H1138 H 0.47836 0.8398 0.62293 0.0
C1139 C 0.48818 0.88845 0.71956 0.0
C1140 C 0.46883 0.87985 0.71856 0.0
C1141 C 0.4971 0.87913 0.7061 0.0
C1142 C 0.49043 0.84137 0.63863 0.0
H1143 H 0.57229 0.84076 0.60502 0.0
H1144 H 0.55385 0.85331 0.63207 0.0
H1145 H 0.49553 0.82623 0.59315 0.0
H1146 H 0.44363 0.85449 0.70383 0.0
H1147 H 0.45924 0.83814 0.68069 0.0
H1148 H 0.51729 0.8611 0.72192 0.0
C1149 C 0.54683 0.83936 0.62028 0.0
C1150 C 0.50028 0.83363 0.6215 0.0
C1151 C 0.5574 0.8322 0.60447 0.0
C1152 C 0.45856 0.86152 0.7049 0.0
C1153 C 0.4675 0.85219 0.69137 0.0
C1154 C 0.51242 0.85357 0.69374 0.0
C1155 C 0.52748 0.82863 0.62113 0.0
C1156 C 0.51645 0.83604 0.64003 0.0
C1157 C 0.48688 0.86098 0.69136 0.0
C1158 C 0.49653 0.85162 0.67468 0.0
H1159 H 0.52248 0.78958 0.57724 0.0
H1160 H 0.504 0.80215 0.60495 0.0
H1161 H 0.53446 0.84763 0.69207 0.0
H1162 H 0.49652 0.90257 0.72982 0.0
H1163 H 0.51204 0.88638 0.70605 0.0
C1164 C 0.16605 0.72303 0.62483 0.0
C1165 C 0.18514 0.7332 0.61747 0.0
C1166 C 0.15802 0.70536 0.64144 0.0
C1167 C 0.16516 0.66584 0.65836 0.0
H1168 H 0.12803 0.65339 0.74145 0.0
C1169 C 0.13146 0.59597 0.74298 0.0
C1170 C 0.11212 0.58695 0.74591 0.0
C1171 C 0.1415 0.61439 0.73052 0.0
C1172 C 0.1383 0.65663 0.71815 0.0
H1173 H 0.2107 0.73255 0.6208 0.0
H1174 H 0.19664 0.70165 0.65 0.0
H1175 H 0.14327 0.68415 0.71172 0.0
H1176 H 0.08821 0.5904 0.73943 0.0
H1177 H 0.10567 0.62241 0.71777 0.0
H1178 H 0.16002 0.6382 0.6646 0.0
C1179 C 0.18789 0.70735 0.64269 0.0
C1180 C 0.147 0.67423 0.70103 0.0
C1181 C 0.19595 0.72507 0.62605 0.0
C1182 C 0.1031 0.59692 0.73748 0.0
C1183 C 0.11312 0.61532 0.72525 0.0
C1184 C 0.15645 0.64821 0.67554 0.0
C1185 C 0.16887 0.69742 0.65113 0.0
C1186 C 0.16033 0.67896 0.67053 0.0
C1187 C 0.1324 0.62419 0.72106 0.0
C1188 C 0.14274 0.64334 0.70523 0.0
H1189 H 0.1573 0.72883 0.6184 0.0
H1190 H 0.14327 0.69792 0.64681 0.0
H1191 H 0.17527 0.66901 0.63471 0.0
H1192 H 0.13882 0.58867 0.74926 0.0
H1193 H 0.15637 0.62093 0.728 0.0
C1194 C 0.4062 0.52972 0.65144 0.0
C1195 C 0.41177 0.52663 0.68937 0.0
C1196 C 0.38751 0.52117 0.64131 0.0
C1197 C 0.34061 0.49787 0.68497 0.0
H1198 H 0.32615 0.47676 0.57755 0.0
C1199 C 0.26589 0.46683 0.62717 0.0
C1200 C 0.25842 0.44985 0.60676 0.0
C1201 C 0.28474 0.47697 0.63588 0.0
C1202 C 0.32996 0.48251 0.60771 0.0
H1203 H 0.40206 0.5124 0.74673 0.0
H1204 H 0.36939 0.49736 0.72892 0.0
H1205 H 0.35867 0.49282 0.59663 0.0
H1206 H 0.26498 0.43044 0.57858 0.0
H1207 H 0.29787 0.4481 0.59397 0.0
H1208 H 0.31186 0.48719 0.69635 0.0
C1209 C 0.3795 0.50654 0.70715 0.0
C1210 C 0.3486 0.49188 0.61851 0.0
C1211 C 0.39822 0.5151 0.7173 0.0
C1212 C 0.2703 0.44348 0.5943 0.0
C1213 C 0.28917 0.45364 0.60298 0.0
C1214 C 0.32197 0.48853 0.67414 0.0
C1215 C 0.37395 0.50933 0.66886 0.0
C1216 C 0.35414 0.49963 0.6573 0.0
C1217 C 0.29656 0.47038 0.62432 0.0
C1218 C 0.31642 0.4807 0.63542 0.0
H1219 H 0.41628 0.5386 0.62927 0.0
H1220 H 0.38369 0.52384 0.61184 0.0
H1221 H 0.34444 0.50382 0.71496 0.0
H1222 H 0.25715 0.47218 0.63706 0.0
H1223 H 0.29006 0.48996 0.65179 0.0
C1224 C 0.15176 0.4174 0.64716 0.0
C1225 C 0.16638 0.42386 0.61931 0.0
C1226 C 0.144 0.42824 0.65734 0.0
C1227 C 0.13754 0.46586 0.62085 0.0
H1228 H 0.13014 0.47237 0.73413 0.0
C1229 C 0.11361 0.51638 0.67135 0.0
C1230 C 0.10087 0.51084 0.7033 0.0
C1231 C 0.12222 0.50626 0.66177 0.0
C1232 C 0.13188 0.47052 0.70234 0.0
H1233 H 0.18413 0.44661 0.5798 0.0
H1234 H 0.17035 0.46544 0.59723 0.0
H1235 H 0.14347 0.45335 0.71538 0.0
H1236 H 0.08724 0.49041 0.75046 0.0
H1237 H 0.10186 0.47247 0.73313 0.0
H1238 H 0.12559 0.48261 0.60756 0.0
C1239 C 0.16496 0.452 0.6112 0.0
C1240 C 0.13956 0.45966 0.69165 0.0
C1241 C 0.17288 0.44125 0.60135 0.0
C1242 C 0.09708 0.49509 0.7258 0.0
C1243 C 0.10555 0.48486 0.71596 0.0
C1244 C 0.12967 0.47656 0.63149 0.0
C1245 C 0.15055 0.44566 0.63954 0.0
C1246 C 0.14246 0.45723 0.65081 0.0
C1247 C 0.11815 0.49024 0.68366 0.0
C1248 C 0.12674 0.47903 0.67239 0.0
H1249 H 0.14646 0.40408 0.66159 0.0
H1250 H 0.13277 0.42295 0.67898 0.0
H1251 H 0.13944 0.46403 0.58911 0.0
H1252 H 0.11693 0.52854 0.65364 0.0
H1253 H 0.13212 0.51103 0.63724 0.0
C1254 C 0.50403 0.60301 0.64972 0.0
C1255 C 0.49535 0.59588 0.6871 0.0
C1256 C 0.51225 0.62186 0.6415 0.0
C1257 C 0.51179 0.66389 0.67295 0.0
H1258 H 0.55873 0.68902 0.61668 0.0
C1259 C 0.55416 0.74312 0.65692 0.0
C1260 C 0.5629 0.75037 0.61967 0.0
C1261 C 0.54552 0.72419 0.66448 0.0
C1262 C 0.54551 0.68216 0.63197 0.0
H1263 H 0.48866 0.60299 0.74532 0.0
H1264 H 0.50321 0.63595 0.73109 0.0
H1265 H 0.54476 0.65624 0.63196 0.0
H1266 H 0.56919 0.74339 0.56087 0.0
H1267 H 0.55398 0.71028 0.574 0.0
H1268 H 0.51259 0.68984 0.67308 0.0
C1269 C 0.50343 0.6269 0.70795 0.0
C1270 C 0.53751 0.66337 0.64077 0.0
C1271 C 0.49519 0.60803 0.71619 0.0
C1272 C 0.56262 0.73824 0.58992 0.0
C1273 C 0.55401 0.71929 0.59753 0.0
C1274 C 0.5198 0.68268 0.66418 0.0
C1275 C 0.51201 0.63402 0.67045 0.0
C1276 C 0.52057 0.65402 0.66138 0.0
C1277 C 0.54545 0.71207 0.63498 0.0
C1278 C 0.53676 0.69203 0.64362 0.0
H1279 H 0.50435 0.59403 0.62657 0.0
H1280 H 0.51853 0.62685 0.61213 0.0
H1281 H 0.49859 0.65703 0.68827 0.0
H1282 H 0.55413 0.75207 0.68053 0.0
H1283 H 0.53924 0.71909 0.6938 0.0
C1284 C 0.25599 0.81641 0.6774 0.0
C1285 C 0.24884 0.81359 0.63792 0.0
C1286 C 0.27501 0.82643 0.68408 0.0
C1287 C 0.31878 0.86073 0.63627 0.0
H1288 H 0.34074 0.84456 0.71828 0.0
C1289 C 0.39755 0.89308 0.65448 0.0
C1290 C 0.40464 0.89656 0.69407 0.0
C1291 C 0.37853 0.88306 0.64775 0.0
C1292 C 0.33478 0.84936 0.69558 0.0
H1293 H 0.25607 0.81897 0.57439 0.0
H1294 H 0.28933 0.83629 0.58602 0.0
H1295 H 0.3076 0.82661 0.70577 0.0
H1296 H 0.39732 0.89227 0.75769 0.0
H1297 H 0.36405 0.87478 0.74588 0.0
H1298 H 0.346 0.88343 0.62596 0.0
C1299 C 0.28019 0.83097 0.61188 0.0
C1300 C 0.3158 0.83908 0.6884 0.0
C1301 C 0.26114 0.82095 0.60519 0.0
C1302 C 0.39229 0.88981 0.72682 0.0
C1303 C 0.37325 0.87971 0.72006 0.0
C1304 C 0.33777 0.87098 0.64338 0.0
C1305 C 0.28734 0.83385 0.65142 0.0
C1306 C 0.30757 0.84466 0.65869 0.0
C1307 C 0.36617 0.87622 0.68044 0.0
C1308 C 0.34597 0.86541 0.67313 0.0
H1309 H 0.24689 0.81099 0.70331 0.0
H1310 H 0.28003 0.82862 0.71494 0.0
H1311 H 0.31284 0.86558 0.61363 0.0
H1312 H 0.40668 0.89806 0.62856 0.0
H1313 H 0.37352 0.88041 0.61687 0.0
loop_
_geom_bond_atom_site_label_1
_geom_bond_atom_site_label_2
_geom_bond_distance
_geom_bond_site_symmetry_2
_ccdc_geom_bond_type
C0 O1 1.160 . S
C0 O7 1.185 . S
O1 C0 1.160 . S
O2 Zn3 1.899 . S
O2 C10 1.284 . S
Zn3 O2 1.899 . S
Zn3 O4 2.032 . S
Zn3 O7 2.086 . S
Zn3 O12 1.977 . S
O4 Zn3 2.032 . S
O4 C8 1.278 . S
C5 O6 1.203 . S
C5 O12 1.267 1_556 S
O6 C5 1.203 . S
O7 C0 1.185 . S
O7 Zn3 2.086 . S
C8 O4 1.278 . S
C8 O9 1.211 . S
O9 C8 1.211 . S
C10 O2 1.284 . S
C10 O11 1.273 . S
O11 C10 1.273 . S
O12 Zn3 1.977 . S
O12 C5 1.267 1_554 S
C13 O14 1.160 . S
C13 O20 1.185 . S
O14 C13 1.160 . S
O15 Zn16 1.899 . S
O15 C23 1.284 . S
Zn16 O15 1.899 . S
Zn16 O17 2.032 . S
Zn16 O20 2.086 . S
Zn16 O25 1.977 . S
O17 Zn16 2.032 . S
O17 C21 1.278 . S
C18 O19 1.203 . S
C18 O25 1.267 1_556 S
O19 C18 1.203 . S
O20 C13 1.185 . S
O20 Zn16 2.086 . S
C21 O17 1.278 . S
C21 O22 1.211 . S
O22 C21 1.211 . S
C23 O15 1.284 . S
C23 O24 1.273 . S
O24 C23 1.273 . S
O25 Zn16 1.977 . S
O25 C18 1.267 1_554 S
C26 O27 1.160 . S
C26 O33 1.185 . S
O27 C26 1.160 . S
O28 Zn29 1.899 . S
O28 C36 1.284 . S
Zn29 O28 1.899 . S
Zn29 O30 2.032 . S
Zn29 O33 2.086 . S
Zn29 O38 1.977 . S
O30 Zn29 2.032 . S
O30 C34 1.278 . S
C31 O32 1.203 . S
C31 O38 1.267 1_556 S
O32 C31 1.203 . S
O33 C26 1.185 . S
O33 Zn29 2.086 . S
C34 O30 1.278 . S
C34 O35 1.211 . S
O35 C34 1.211 . S
C36 O28 1.284 . S
C36 O37 1.273 . S
O37 C36 1.273 . S
O38 Zn29 1.977 . S
O38 C31 1.267 1_554 S
C39 O40 1.160 . S
C39 O46 1.185 . S
O40 C39 1.160 . S
O41 Zn42 1.899 . S
O41 C49 1.284 . S
Zn42 O41 1.899 . S
Zn42 O43 2.032 . S
Zn42 O46 2.086 . S
Zn42 O51 1.977 . S
O43 Zn42 2.032 . S
O43 C47 1.278 . S
C44 O45 1.203 . S
C44 O51 1.267 1_554 S
O45 C44 1.203 . S
O46 C39 1.185 . S
O46 Zn42 2.086 . S
C47 O43 1.278 . S
C47 O48 1.211 . S
O48 C47 1.211 . S
C49 O41 1.284 . S
C49 O50 1.273 . S
O50 C49 1.273 . S
O51 Zn42 1.977 . S
O51 C44 1.267 1_556 S
C52 O53 1.160 . S
C52 O59 1.185 . S
O53 C52 1.160 . S
O54 Zn55 1.899 . S
O54 C62 1.284 . S
Zn55 O54 1.899 . S
Zn55 O56 2.032 . S
Zn55 O59 2.086 . S
Zn55 O64 1.977 . S
O56 Zn55 2.032 . S
O56 C60 1.278 . S
C57 O58 1.203 . S
C57 O64 1.267 1_554 S
O58 C57 1.203 . S
O59 C52 1.185 . S
O59 Zn55 2.086 . S
C60 O56 1.278 . S
C60 O61 1.211 . S
O61 C60 1.211 . S
C62 O54 1.284 . S
C62 O63 1.273 . S
O63 C62 1.273 . S
O64 Zn55 1.977 . S
O64 C57 1.267 1_556 S
C65 O66 1.160 . S
C65 O72 1.185 . S
O66 C65 1.160 . S
O67 Zn68 1.899 . S
O67 C75 1.284 . S
Zn68 O67 1.899 . S
Zn68 O69 2.032 . S
Zn68 O72 2.086 . S
Zn68 O77 1.977 . S
O69 Zn68 2.032 . S
O69 C73 1.278 . S
C70 O71 1.203 . S
C70 O77 1.267 1_554 S
O71 C70 1.203 . S
O72 C65 1.185 . S
O72 Zn68 2.086 . S
C73 O69 1.278 . S
C73 O74 1.211 . S
O74 C73 1.211 . S
C75 O67 1.284 . S
C75 O76 1.273 . S
O76 C75 1.273 . S
O77 Zn68 1.977 . S
O77 C70 1.267 1_556 S
C78 O79 1.160 . S
C78 O85 1.185 . S
O79 C78 1.160 . S
O80 Zn81 1.899 . S
O80 C88 1.284 . S
Zn81 O80 1.899 . S
Zn81 O82 2.032 . S
Zn81 O85 2.086 . S
Zn81 O90 1.977 . S
O82 Zn81 2.032 . S
O82 C86 1.278 . S
C83 O84 1.203 . S
C83 O90 1.267 . S
O84 C83 1.203 . S
O85 C78 1.185 . S
O85 Zn81 2.086 . S
C86 O82 1.278 . S
C86 O87 1.211 . S
O87 C86 1.211 . S
C88 O80 1.284 . S
C88 O89 1.273 . S
O89 C88 1.273 . S
O90 Zn81 1.977 . S
O90 C83 1.267 . S
C91 O92 1.160 . S
C91 O98 1.185 . S
O92 C91 1.160 . S
O93 Zn94 1.899 . S
O93 C101 1.284 . S
Zn94 O93 1.899 . S
Zn94 O95 2.032 . S
Zn94 O98 2.086 . S
Zn94 O103 1.977 . S
O95 Zn94 2.032 . S
O95 C99 1.278 . S
C96 O97 1.203 . S
C96 O103 1.267 . S
O97 C96 1.203 . S
O98 C91 1.185 . S
O98 Zn94 2.086 . S
C99 O95 1.278 . S
C99 O100 1.211 . S
O100 C99 1.211 . S
C101 O93 1.284 . S
C101 O102 1.273 . S
O102 C101 1.273 . S
O103 Zn94 1.977 . S
O103 C96 1.267 . S
C104 O105 1.160 . S
C104 O111 1.185 . S
O105 C104 1.160 . S
O106 Zn107 1.899 . S
O106 C114 1.284 . S
Zn107 O106 1.899 . S
Zn107 O108 2.032 . S
Zn107 O111 2.086 . S
Zn107 O116 1.977 . S
O108 Zn107 2.032 . S
O108 C112 1.278 . S
C109 O110 1.203 . S
C109 O116 1.267 . S
O110 C109 1.203 . S
O111 C104 1.185 . S
O111 Zn107 2.086 . S
C112 O108 1.278 . S
C112 O113 1.211 . S
O113 C112 1.211 . S
C114 O106 1.284 . S
C114 O115 1.273 . S
O115 C114 1.273 . S
O116 Zn107 1.977 . S
O116 C109 1.267 . S
C117 O118 1.160 . S
C117 O124 1.185 . S
O118 C117 1.160 . S
O119 Zn120 1.899 . S
O119 C127 1.284 . S
Zn120 O119 1.899 . S
Zn120 O121 2.032 . S
Zn120 O124 2.086 . S
Zn120 O129 1.977 . S
O121 Zn120 2.032 . S
O121 C125 1.278 . S
C122 O123 1.203 . S
C122 O129 1.267 . S
O123 C122 1.203 . S
O124 C117 1.185 . S
O124 Zn120 2.086 . S
C125 O121 1.278 . S
C125 O126 1.211 . S
O126 C125 1.211 . S
C127 O119 1.284 . S
C127 O128 1.273 . S
O128 C127 1.273 . S
O129 Zn120 1.977 . S
O129 C122 1.267 . S
C130 O131 1.160 . S
C130 O137 1.185 . S
O131 C130 1.160 . S
O132 Zn133 1.899 . S
O132 C140 1.284 . S
Zn133 O132 1.899 . S
Zn133 O134 2.032 . S
Zn133 O137 2.086 . S
Zn133 O142 1.977 . S
O134 Zn133 2.032 . S
O134 C138 1.278 . S
C135 O136 1.203 . S
C135 O142 1.267 . S
O136 C135 1.203 . S
O137 C130 1.185 . S
O137 Zn133 2.086 . S
C138 O134 1.278 . S
C138 O139 1.211 . S
O139 C138 1.211 . S
C140 O132 1.284 . S
C140 O141 1.273 . S
O141 C140 1.273 . S
O142 Zn133 1.977 . S
O142 C135 1.267 . S
C143 O144 1.160 . S
C143 O150 1.185 . S
O144 C143 1.160 . S
O145 Zn146 1.899 . S
O145 C153 1.284 . S
Zn146 O145 1.899 . S
Zn146 O147 2.032 . S
Zn146 O150 2.086 . S
Zn146 O155 1.977 . S
O147 Zn146 2.032 . S
O147 C151 1.278 . S
C148 O149 1.203 . S
C148 O155 1.267 . S
O149 C148 1.203 . S
O150 C143 1.185 . S
O150 Zn146 2.086 . S
C151 O147 1.278 . S
C151 O152 1.211 . S
O152 C151 1.211 . S
C153 O145 1.284 . S
C153 O154 1.273 . S
O154 C153 1.273 . S
O155 Zn146 1.977 . S
O155 C148 1.267 . S
C156 O157 1.160 . S
C156 O163 1.185 . S
O157 C156 1.160 . S
O158 Zn159 1.899 . S
O158 C166 1.284 . S
Zn159 O158 1.899 . S
Zn159 O160 2.032 . S
Zn159 O163 2.086 . S
Zn159 O168 1.977 . S
O160 Zn159 2.032 . S
O160 C164 1.278 . S
C161 O162 1.203 . S
C161 O168 1.267 . S
O162 C161 1.203 . S
O163 C156 1.185 . S
O163 Zn159 2.086 . S
C164 O160 1.278 . S
C164 O165 1.211 . S
O165 C164 1.211 . S
C166 O158 1.284 . S
C166 O167 1.273 . S
O167 C166 1.273 . S
O168 Zn159 1.977 . S
O168 C161 1.267 . S
C169 O170 1.160 . S
C169 O176 1.185 . S
O170 C169 1.160 . S
O171 Zn172 1.899 . S
O171 C179 1.284 . S
Zn172 O171 1.899 . S
Zn172 O173 2.032 . S
Zn172 O176 2.086 . S
Zn172 O181 1.977 . S
O173 Zn172 2.032 . S
O173 C177 1.278 . S
C174 O175 1.203 . S
C174 O181 1.267 . S
O175 C174 1.203 . S
O176 C169 1.185 . S
O176 Zn172 2.086 . S
C177 O173 1.278 . S
C177 O178 1.211 . S
O178 C177 1.211 . S
C179 O171 1.284 . S
C179 O180 1.273 . S
O180 C179 1.273 . S
O181 Zn172 1.977 . S
O181 C174 1.267 . S
C182 O183 1.160 . S
C182 O189 1.185 . S
O183 C182 1.160 . S
O184 Zn185 1.899 . S
O184 C192 1.284 . S
Zn185 O184 1.899 . S
Zn185 O186 2.032 . S
Zn185 O189 2.086 . S
Zn185 O194 1.977 . S
O186 Zn185 2.032 . S
O186 C190 1.278 . S
C187 O188 1.203 . S
C187 O194 1.267 . S
O188 C187 1.203 . S
O189 C182 1.185 . S
O189 Zn185 2.086 . S
C190 O186 1.278 . S
C190 O191 1.211 . S
O191 C190 1.211 . S
C192 O184 1.284 . S
C192 O193 1.273 . S
O193 C192 1.273 . S
O194 Zn185 1.977 . S
O194 C187 1.267 . S
C195 O196 1.160 . S
C195 O202 1.185 . S
O196 C195 1.160 . S
O197 Zn198 1.899 . S
O197 C205 1.284 . S
Zn198 O197 1.899 . S
Zn198 O199 2.032 . S
Zn198 O202 2.086 . S
Zn198 O207 1.977 . S
O199 Zn198 2.032 . S
O199 C203 1.278 . S
C200 O201 1.203 . S
C200 O207 1.267 . S
O201 C200 1.203 . S
O202 C195 1.185 . S
O202 Zn198 2.086 . S
C203 O199 1.278 . S
C203 O204 1.211 . S
O204 C203 1.211 . S
C205 O197 1.284 . S
C205 O206 1.273 . S
O206 C205 1.273 . S
O207 Zn198 1.977 . S
O207 C200 1.267 . S
C208 O209 1.160 . S
C208 O215 1.185 . S
O209 C208 1.160 . S
O210 Zn211 1.899 . S
O210 C218 1.284 . S
Zn211 O210 1.899 . S
Zn211 O212 2.032 . S
Zn211 O215 2.086 . S
Zn211 O220 1.977 . S
O212 Zn211 2.032 . S
O212 C216 1.278 . S
C213 O214 1.203 . S
C213 O220 1.267 . S
O214 C213 1.203 . S
O215 C208 1.185 . S
O215 Zn211 2.086 . S
C216 O212 1.278 . S
C216 O217 1.211 . S
O217 C216 1.211 . S
C218 O210 1.284 . S
C218 O219 1.273 . S
O219 C218 1.273 . S
O220 Zn211 1.977 . S
O220 C213 1.267 . S
C221 O222 1.160 . S
C221 O228 1.185 . S
O222 C221 1.160 . S
O223 Zn224 1.899 . S
O223 C231 1.284 . S
Zn224 O223 1.899 . S
Zn224 O225 2.032 . S
Zn224 O228 2.086 . S
Zn224 O233 1.977 . S
O225 Zn224 2.032 . S
O225 C229 1.278 . S
C226 O227 1.203 . S
C226 O233 1.267 . S
O227 C226 1.203 . S
O228 C221 1.185 . S
O228 Zn224 2.086 . S
C229 O225 1.278 . S
C229 O230 1.211 . S
O230 C229 1.211 . S
C231 O223 1.284 . S
C231 O232 1.273 . S
O232 C231 1.273 . S
O233 Zn224 1.977 . S
O233 C226 1.267 . S
C234 C235 1.349 . S
C234 C236 1.327 . S
C234 H259 0.950 . S
C235 C234 1.349 . S
C235 C251 1.349 . S
C236 C234 1.327 . S
C236 C255 1.429 . S
C236 H260 0.950 . S
C237 C254 1.574 . S
C237 C256 1.368 . S
C237 H261 0.949 . S
H238 C242 0.949 . S
C239 C240 1.349 . S
C239 C241 1.327 . S
C239 H262 0.950 . S
C240 C239 1.349 . S
C240 C252 1.349 . S
C241 C239 1.327 . S
C241 C257 1.429 . S
C241 H263 0.950 . S
C242 H238 0.949 . S
C242 C250 1.574 . S
C242 C258 1.368 . S
H243 C251 0.950 . S
H244 C249 0.950 . S
H245 C250 0.949 . S
H246 C252 0.950 . S
H247 C253 0.950 . S
H248 C254 0.949 . S
C249 H244 0.950 . S
C249 C251 1.327 . S
C249 C255 1.429 . S
C250 C242 1.574 . S
C250 H245 0.949 . S
C250 C256 1.368 . S
C251 C235 1.349 . S
C251 H243 0.950 . S
C251 C249 1.327 . S
C252 C240 1.349 . S
C252 H246 0.950 . S
C252 C253 1.327 . S
C253 H247 0.950 . S
C253 C252 1.327 . S
C253 C257 1.429 . S
C254 C237 1.574 . S
C254 H248 0.949 . S
C254 C258 1.368 . S
C255 C236 1.429 . S
C255 C249 1.429 . S
C255 C256 1.523 . S
C256 C237 1.368 . S
C256 C250 1.368 . S
C256 C255 1.523 . S
C257 C241 1.429 . S
C257 C253 1.429 . S
C257 C258 1.523 . S
C258 C242 1.368 . S
C258 C254 1.368 . S
C258 C257 1.523 . S
H259 C234 0.950 . S
H260 C236 0.950 . S
H261 C237 0.949 . S
H262 C239 0.950 . S
H263 C241 0.950 . S
C264 C265 1.349 . S
C264 C266 1.327 . S
C264 H289 0.950 . S
C265 C264 1.349 . S
C265 C281 1.349 . S
C266 C264 1.327 . S
C266 C285 1.429 . S
C266 H290 0.950 . S
C267 C284 1.574 . S
C267 C286 1.368 . S
C267 H291 0.949 . S
H268 C272 0.949 . S
C269 C270 1.349 . S
C269 C271 1.327 . S
C269 H292 0.950 . S
C270 C269 1.349 . S
C270 C282 1.349 . S
C271 C269 1.327 . S
C271 C287 1.429 . S
C271 H293 0.950 . S
C272 H268 0.949 . S
C272 C280 1.574 . S
C272 C288 1.368 . S
H273 C281 0.950 . S
H274 C279 0.950 . S
H275 C280 0.949 . S
H276 C282 0.950 . S
H277 C283 0.950 . S
H278 C284 0.949 . S
C279 H274 0.950 . S
C279 C281 1.327 . S
C279 C285 1.429 . S
C280 C272 1.574 . S
C280 H275 0.949 . S
C280 C286 1.368 . S
C281 C265 1.349 . S
C281 H273 0.950 . S
C281 C279 1.327 . S
C282 C270 1.349 . S
C282 H276 0.950 . S
C282 C283 1.327 . S
C283 H277 0.950 . S
C283 C282 1.327 . S
C283 C287 1.429 . S
C284 C267 1.574 . S
C284 H278 0.949 . S
C284 C288 1.368 . S
C285 C266 1.429 . S
C285 C279 1.429 . S
C285 C286 1.523 . S
C286 C267 1.368 . S
C286 C280 1.368 . S
C286 C285 1.523 . S
C287 C271 1.429 . S
C287 C283 1.429 . S
C287 C288 1.523 . S
C288 C272 1.368 . S
C288 C284 1.368 . S
C288 C287 1.523 . S
H289 C264 0.950 . S
H290 C266 0.950 . S
H291 C267 0.949 . S
H292 C269 0.950 . S
H293 C271 0.950 . S
C294 C295 1.349 . S
C294 C296 1.327 . S
C294 H319 0.950 . S
C295 C294 1.349 . S
C295 C311 1.349 . S
C296 C294 1.327 . S
C296 C315 1.429 . S
C296 H320 0.950 . S
C297 C314 1.574 . S
C297 C316 1.368 . S
C297 H321 0.949 . S
H298 C302 0.949 . S
C299 C300 1.349 . S
C299 C301 1.327 . S
C299 H322 0.950 . S
C300 C299 1.349 . S
C300 C312 1.349 . S
C301 C299 1.327 . S
C301 C317 1.429 . S
C301 H323 0.950 . S
C302 H298 0.949 . S
C302 C310 1.574 . S
C302 C318 1.368 . S
H303 C311 0.950 . S
H304 C309 0.950 . S
H305 C310 0.949 . S
H306 C312 0.950 . S
H307 C313 0.950 . S
H308 C314 0.949 . S
C309 H304 0.950 . S
C309 C311 1.327 . S
C309 C315 1.429 . S
C310 C302 1.574 . S
C310 H305 0.949 . S
C310 C316 1.368 . S
C311 C295 1.349 . S
C311 H303 0.950 . S
C311 C309 1.327 . S
C312 C300 1.349 . S
C312 H306 0.950 . S
C312 C313 1.327 . S
C313 H307 0.950 . S
C313 C312 1.327 . S
C313 C317 1.429 . S
C314 C297 1.574 . S
C314 H308 0.949 . S
C314 C318 1.368 . S
C315 C296 1.429 . S
C315 C309 1.429 . S
C315 C316 1.523 . S
C316 C297 1.368 . S
C316 C310 1.368 . S
C316 C315 1.523 . S
C317 C301 1.429 . S
C317 C313 1.429 . S
C317 C318 1.523 . S
C318 C302 1.368 . S
C318 C314 1.368 . S
C318 C317 1.523 . S
H319 C294 0.950 . S
H320 C296 0.950 . S
H321 C297 0.949 . S
H322 C299 0.950 . S
H323 C301 0.950 . S
C324 C325 1.349 . S
C324 C326 1.327 . S
C324 H349 0.950 . S
C325 C324 1.349 . S
C325 C341 1.349 . S
C326 C324 1.327 . S
C326 C345 1.429 . S
C326 H350 0.950 . S
C327 C344 1.574 . S
C327 C346 1.368 . S
C327 H351 0.949 . S
H328 C332 0.949 . S
C329 C330 1.349 . S
C329 C331 1.327 . S
C329 H352 0.950 . S
C330 C329 1.349 . S
C330 C342 1.349 . S
C331 C329 1.327 . S
C331 C347 1.429 . S
C331 H353 0.950 . S
C332 H328 0.949 . S
C332 C340 1.574 . S
C332 C348 1.368 . S
H333 C341 0.950 . S
H334 C339 0.950 . S
H335 C340 0.949 . S
H336 C342 0.950 . S
H337 C343 0.950 . S
H338 C344 0.949 . S
C339 H334 0.950 . S
C339 C341 1.327 . S
C339 C345 1.429 . S
C340 C332 1.574 . S
C340 H335 0.949 . S
C340 C346 1.368 . S
C341 C325 1.349 . S
C341 H333 0.950 . S
C341 C339 1.327 . S
C342 C330 1.349 . S
C342 H336 0.950 . S
C342 C343 1.327 . S
C343 H337 0.950 . S
C343 C342 1.327 . S
C343 C347 1.429 . S
C344 C327 1.574 . S
C344 H338 0.949 . S
C344 C348 1.368 . S
C345 C326 1.429 . S
C345 C339 1.429 . S
C345 C346 1.523 . S
C346 C327 1.368 . S
C346 C340 1.368 . S
C346 C345 1.523 . S
C347 C331 1.429 . S
C347 C343 1.429 . S
C347 C348 1.523 . S
C348 C332 1.368 . S
C348 C344 1.368 . S
C348 C347 1.523 . S
H349 C324 0.950 . S
H350 C326 0.950 . S
H351 C327 0.949 . S
H352 C329 0.950 . S
H353 C331 0.950 . S
C354 C355 1.349 . S
C354 C356 1.327 . S
C354 H379 0.950 . S
C355 C354 1.349 . S
C355 C371 1.349 . S
C356 C354 1.327 . S
C356 C375 1.429 . S
C356 H380 0.950 . S
C357 C374 1.574 . S
C357 C376 1.368 . S
C357 H381 0.949 . S
H358 C362 0.949 . S
C359 C360 1.349 . S
C359 C361 1.327 . S
C359 H382 0.950 . S
C360 C359 1.349 . S
C360 C372 1.349 . S
C361 C359 1.327 . S
C361 C377 1.429 . S
C361 H383 0.950 . S
C362 H358 0.949 . S
C362 C370 1.574 . S
C362 C378 1.368 . S
H363 C371 0.950 . S
H364 C369 0.950 . S
H365 C370 0.949 . S
H366 C372 0.950 . S
H367 C373 0.950 . S
H368 C374 0.949 . S
C369 H364 0.950 . S
C369 C371 1.327 . S
C369 C375 1.429 . S
C370 C362 1.574 . S
C370 H365 0.949 . S
C370 C376 1.368 . S
C371 C355 1.349 . S
C371 H363 0.950 . S
C371 C369 1.327 . S
C372 C360 1.349 . S
C372 H366 0.950 . S
C372 C373 1.327 . S
C373 H367 0.950 . S
C373 C372 1.327 . S
C373 C377 1.429 . S
C374 C357 1.574 . S
C374 H368 0.949 . S
C374 C378 1.368 . S
C375 C356 1.429 . S
C375 C369 1.429 . S
C375 C376 1.523 . S
C376 C357 1.368 . S
C376 C370 1.368 . S
C376 C375 1.523 . S
C377 C361 1.429 . S
C377 C373 1.429 . S
C377 C378 1.523 . S
C378 C362 1.368 . S
C378 C374 1.368 . S
C378 C377 1.523 . S
H379 C354 0.950 . S
H380 C356 0.950 . S
H381 C357 0.949 . S
H382 C359 0.950 . S
H383 C361 0.950 . S
C384 C385 1.349 . S
C384 C386 1.327 . S
C384 H409 0.950 . S
C385 C384 1.349 . S
C385 C401 1.349 . S
C386 C384 1.327 . S
C386 C405 1.429 . S
C386 H410 0.950 . S
C387 C404 1.574 . S
C387 C406 1.368 . S
C387 H411 0.949 . S
H388 C392 0.949 . S
C389 C390 1.349 . S
C389 C391 1.327 . S
C389 H412 0.950 . S
C390 C389 1.349 . S
C390 C402 1.349 . S
C391 C389 1.327 . S
C391 C407 1.429 . S
C391 H413 0.950 . S
C392 H388 0.949 . S
C392 C400 1.574 . S
C392 C408 1.368 . S
H393 C401 0.950 . S
H394 C399 0.950 . S
H395 C400 0.949 . S
H396 C402 0.950 . S
H397 C403 0.950 . S
H398 C404 0.949 . S
C399 H394 0.950 . S
C399 C401 1.327 . S
C399 C405 1.429 . S
C400 C392 1.574 . S
C400 H395 0.949 . S
C400 C406 1.368 . S
C401 C385 1.349 . S
C401 H393 0.950 . S
C401 C399 1.327 . S
C402 C390 1.349 . S
C402 H396 0.950 . S
C402 C403 1.327 . S
C403 H397 0.950 . S
C403 C402 1.327 . S
C403 C407 1.429 . S
C404 C387 1.574 . S
C404 H398 0.949 . S
C404 C408 1.368 . S
C405 C386 1.429 . S
C405 C399 1.429 . S
C405 C406 1.523 . S
C406 C387 1.368 . S
C406 C400 1.368 . S
C406 C405 1.523 . S
C407 C391 1.429 . S
C407 C403 1.429 . S
C407 C408 1.523 . S
C408 C392 1.368 . S
C408 C404 1.368 . S
C408 C407 1.523 . S
H409 C384 0.950 . S
H410 C386 0.950 . S
H411 C387 0.949 . S
H412 C389 0.950 . S
H413 C391 0.950 . S
C414 C415 1.349 . S
C414 C416 1.327 . S
C414 H439 0.950 . S
C415 C414 1.349 . S
C415 C431 1.349 . S
C416 C414 1.327 . S
C416 C435 1.429 . S
C416 H440 0.950 . S
C417 C434 1.574 1_554 S
C417 C436 1.368 . S
C417 H441 0.949 . S
H418 C422 0.949 . S
C419 C420 1.349 . S
C419 C421 1.327 . S
C419 H442 0.950 . S
C420 C419 1.349 . S
C420 C432 1.349 . S
C421 C419 1.327 . S
C421 C437 1.429 . S
C421 H443 0.950 . S
C422 H418 0.949 . S
C422 C430 1.574 1_556 S
C422 C438 1.368 . S
H423 C431 0.950 . S
H424 C429 0.950 . S
H425 C430 0.949 . S
H426 C432 0.950 . S
H427 C433 0.950 . S
H428 C434 0.949 . S
C429 H424 0.950 . S
C429 C431 1.327 . S
C429 C435 1.429 . S
C430 C422 1.574 1_554 S
C430 H425 0.949 . S
C430 C436 1.368 1_455 S
C431 C415 1.349 . S
C431 H423 0.950 . S
C431 C429 1.327 . S
C432 C420 1.349 . S
C432 H426 0.950 . S
C432 C433 1.327 . S
C433 H427 0.950 . S
C433 C432 1.327 . S
C433 C437 1.429 . S
C434 C417 1.574 1_556 S
C434 H428 0.949 . S
C434 C438 1.368 1_655 S
C435 C416 1.429 . S
C435 C429 1.429 . S
C435 C436 1.523 . S
C436 C417 1.368 . S
C436 C430 1.368 1_655 S
C436 C435 1.523 . S
C437 C421 1.429 . S
C437 C433 1.429 . S
C437 C438 1.523 . S
C438 C422 1.368 . S
C438 C434 1.368 1_455 S
C438 C437 1.523 . S
H439 C414 0.950 . S
H440 C416 0.950 . S
H441 C417 0.949 . S
H442 C419 0.950 . S
H443 C421 0.950 . S
C444 C445 1.349 . S
C444 C446 1.327 . S
C444 H469 0.950 . S
C445 C444 1.349 . S
C445 C461 1.349 . S
C446 C444 1.327 . S
C446 C465 1.429 . S
C446 H470 0.950 . S
C447 C464 1.574 1_554 S
C447 C466 1.368 . S
C447 H471 0.949 . S
H448 C452 0.949 . S
C449 C450 1.349 . S
C449 C451 1.327 . S
C449 H472 0.950 . S
C450 C449 1.349 . S
C450 C462 1.349 . S
C451 C449 1.327 . S
C451 C467 1.429 . S
C451 H473 0.950 . S
C452 H448 0.949 . S
C452 C460 1.574 1_556 S
C452 C468 1.368 . S
H453 C461 0.950 . S
H454 C459 0.950 . S
H455 C460 0.949 . S
H456 C462 0.950 . S
H457 C463 0.950 . S
H458 C464 0.949 . S
C459 H454 0.950 . S
C459 C461 1.327 . S
C459 C465 1.429 . S
C460 C452 1.574 1_554 S
C460 H455 0.949 . S
C460 C466 1.368 . S
C461 C445 1.349 . S
C461 H453 0.950 . S
C461 C459 1.327 . S
C462 C450 1.349 . S
C462 H456 0.950 . S
C462 C463 1.327 . S
C463 H457 0.950 . S
C463 C462 1.327 . S
C463 C467 1.429 . S
C464 C447 1.574 1_556 S
C464 H458 0.949 . S
C464 C468 1.368 . S
C465 C446 1.429 . S
C465 C459 1.429 . S
C465 C466 1.523 . S
C466 C447 1.368 . S
C466 C460 1.368 . S
C466 C465 1.523 . S
C467 C451 1.429 . S
C467 C463 1.429 . S
C467 C468 1.523 . S
C468 C452 1.368 . S
C468 C464 1.368 . S
C468 C467 1.523 . S
H469 C444 0.950 . S
H470 C446 0.950 . S
H471 C447 0.949 . S
H472 C449 0.950 . S
H473 C451 0.950 . S
C474 C475 1.349 . S
C474 C476 1.327 . S
C474 H499 0.950 . S
C475 C474 1.349 . S
C475 C491 1.349 . S
C476 C474 1.327 . S
C476 C495 1.429 . S
C476 H500 0.950 . S
C477 C494 1.574 1_544 S
C477 C496 1.368 . S
C477 H501 0.949 . S
H478 C482 0.949 . S
C479 C480 1.349 . S
C479 C481 1.327 . S
C479 H502 0.950 . S
C480 C479 1.349 . S
C480 C492 1.349 . S
C481 C479 1.327 . S
C481 C497 1.429 . S
C481 H503 0.950 . S
C482 H478 0.949 . S
C482 C490 1.574 1_566 S
C482 C498 1.368 . S
H483 C491 0.950 . S
H484 C489 0.950 . S
H485 C490 0.949 . S
H486 C492 0.950 . S
H487 C493 0.950 . S
H488 C494 0.949 . S
C489 H484 0.950 . S
C489 C491 1.327 . S
C489 C495 1.429 . S
C490 C482 1.574 1_544 S
C490 H485 0.949 . S
C490 C496 1.368 . S
C491 C475 1.349 . S
C491 H483 0.950 . S
C491 C489 1.327 . S
C492 C480 1.349 . S
C492 H486 0.950 . S
C492 C493 1.327 . S
C493 H487 0.950 . S
C493 C492 1.327 . S
C493 C497 1.429 . S
C494 C477 1.574 1_566 S
C494 H488 0.949 . S
C494 C498 1.368 . S
C495 C476 1.429 . S
C495 C489 1.429 . S
C495 C496 1.523 . S
C496 C477 1.368 . S
C496 C490 1.368 . S
C496 C495 1.523 . S
C497 C481 1.429 . S
C497 C493 1.429 . S
C497 C498 1.523 . S
C498 C482 1.368 . S
C498 C494 1.368 . S
C498 C497 1.523 . S
H499 C474 0.950 . S
H500 C476 0.950 . S
H501 C477 0.949 . S
H502 C479 0.950 . S
H503 C481 0.950 . S
C504 C505 1.349 . S
C504 C506 1.327 . S
C504 H529 0.950 . S
C505 C504 1.349 . S
C505 C521 1.349 . S
C506 C504 1.327 . S
C506 C525 1.429 . S
C506 H530 0.950 . S
C507 C524 1.574 . S
C507 C526 1.368 . S
C507 H531 0.949 . S
H508 C512 0.949 . S
C509 C510 1.349 . S
C509 C511 1.327 . S
C509 H532 0.950 . S
C510 C509 1.349 . S
C510 C522 1.349 . S
C511 C509 1.327 . S
C511 C527 1.429 . S
C511 H533 0.950 . S
C512 H508 0.949 . S
C512 C520 1.574 . S
C512 C528 1.368 . S
H513 C521 0.950 . S
H514 C519 0.950 . S
H515 C520 0.949 . S
H516 C522 0.950 . S
H517 C523 0.950 . S
H518 C524 0.949 . S
C519 H514 0.950 . S
C519 C521 1.327 . S
C519 C525 1.429 . S
C520 C512 1.574 . S
C520 H515 0.949 . S
C520 C526 1.368 . S
C521 C505 1.349 . S
C521 H513 0.950 . S
C521 C519 1.327 . S
C522 C510 1.349 . S
C522 H516 0.950 . S
C522 C523 1.327 . S
C523 H517 0.950 . S
C523 C522 1.327 . S
C523 C527 1.429 . S
C524 C507 1.574 . S
C524 H518 0.949 . S
C524 C528 1.368 . S
C525 C506 1.429 . S
C525 C519 1.429 . S
C525 C526 1.523 . S
C526 C507 1.368 . S
C526 C520 1.368 . S
C526 C525 1.523 . S
C527 C511 1.429 . S
C527 C523 1.429 . S
C527 C528 1.523 . S
C528 C512 1.368 . S
C528 C524 1.368 . S
C528 C527 1.523 . S
H529 C504 0.950 . S
H530 C506 0.950 . S
H531 C507 0.949 . S
H532 C509 0.950 . S
H533 C511 0.950 . S
C534 C535 1.349 . S
C534 C536 1.327 . S
C534 H559 0.950 . S
C535 C534 1.349 . S
C535 C551 1.349 . S
C536 C534 1.327 . S
C536 C555 1.429 . S
C536 H560 0.950 . S
C537 C554 1.574 . S
C537 C556 1.368 . S
C537 H561 0.949 . S
H538 C542 0.949 . S
C539 C540 1.349 . S
C539 C541 1.327 . S
C539 H562 0.950 . S
C540 C539 1.349 . S
C540 C552 1.349 . S
C541 C539 1.327 . S
C541 C557 1.429 . S
C541 H563 0.950 . S
C542 H538 0.949 . S
C542 C550 1.574 . S
C542 C558 1.368 . S
H543 C551 0.950 . S
H544 C549 0.950 . S
H545 C550 0.949 . S
H546 C552 0.950 . S
H547 C553 0.950 . S
H548 C554 0.949 . S
C549 H544 0.950 . S
C549 C551 1.327 . S
C549 C555 1.429 . S
C550 C542 1.574 . S
C550 H545 0.949 . S
C550 C556 1.368 . S
C551 C535 1.349 . S
C551 H543 0.950 . S
C551 C549 1.327 . S
C552 C540 1.349 . S
C552 H546 0.950 . S
C552 C553 1.327 . S
C553 H547 0.950 . S
C553 C552 1.327 . S
C553 C557 1.429 . S
C554 C537 1.574 . S
C554 H548 0.949 . S
C554 C558 1.368 . S
C555 C536 1.429 . S
C555 C549 1.429 . S
C555 C556 1.523 . S
C556 C537 1.368 . S
C556 C550 1.368 . S
C556 C555 1.523 . S
C557 C541 1.429 . S
C557 C553 1.429 . S
C557 C558 1.523 . S
C558 C542 1.368 . S
C558 C554 1.368 . S
C558 C557 1.523 . S
H559 C534 0.950 . S
H560 C536 0.950 . S
H561 C537 0.949 . S
H562 C539 0.950 . S
H563 C541 0.950 . S
C564 C565 1.349 . S
C564 C566 1.327 . S
C564 H589 0.950 . S
C565 C564 1.349 . S
C565 C581 1.349 . S
C566 C564 1.327 . S
C566 C585 1.429 . S
C566 H590 0.950 . S
C567 C584 1.574 . S
C567 C586 1.368 . S
C567 H591 0.949 . S
H568 C572 0.949 . S
C569 C570 1.349 . S
C569 C571 1.327 . S
C569 H592 0.950 . S
C570 C569 1.349 . S
C570 C582 1.349 . S
C571 C569 1.327 . S
C571 C587 1.429 . S
C571 H593 0.950 . S
C572 H568 0.949 . S
C572 C580 1.574 . S
C572 C588 1.368 . S
H573 C581 0.950 . S
H574 C579 0.950 . S
H575 C580 0.949 . S
H576 C582 0.950 . S
H577 C583 0.950 . S
H578 C584 0.949 . S
C579 H574 0.950 . S
C579 C581 1.327 . S
C579 C585 1.429 . S
C580 C572 1.574 . S
C580 H575 0.949 . S
C580 C586 1.368 . S
C581 C565 1.349 . S
C581 H573 0.950 . S
C581 C579 1.327 . S
C582 C570 1.349 . S
C582 H576 0.950 . S
C582 C583 1.327 . S
C583 H577 0.950 . S
C583 C582 1.327 . S
C583 C587 1.429 . S
C584 C567 1.574 . S
C584 H578 0.949 . S
C584 C588 1.368 . S
C585 C566 1.429 . S
C585 C579 1.429 . S
C585 C586 1.523 . S
C586 C567 1.368 . S
C586 C580 1.368 . S
C586 C585 1.523 . S
C587 C571 1.429 . S
C587 C583 1.429 . S
C587 C588 1.523 . S
C588 C572 1.368 . S
C588 C584 1.368 . S
C588 C587 1.523 . S
H589 C564 0.950 . S
H590 C566 0.950 . S
H591 C567 0.949 . S
H592 C569 0.950 . S
H593 C571 0.950 . S
C594 C595 1.349 . S
C594 C596 1.327 . S
C594 H619 0.950 . S
C595 C594 1.349 . S
C595 C611 1.349 . S
C596 C594 1.327 . S
C596 C615 1.429 . S
C596 H620 0.950 . S
C597 C614 1.574 . S
C597 C616 1.368 . S
C597 H621 0.949 . S
H598 C602 0.949 . S
C599 C600 1.349 . S
C599 C601 1.327 . S
C599 H622 0.928 1_554 S
C600 C599 1.349 . S
C600 C612 1.349 . S
C601 C599 1.327 . S
C601 C617 1.429 . S
C601 H623 0.950 . S
C602 H598 0.949 . S
C602 C610 1.574 . S
C602 C618 1.368 . S
H603 C611 0.950 . S
H604 C609 0.950 . S
H605 C610 0.949 . S
H606 C612 0.950 . S
H607 C613 0.950 . S
H608 C614 0.949 . S
C609 H604 0.950 . S
C609 C611 1.327 . S
C609 C615 1.429 . S
C610 C602 1.574 . S
C610 H605 0.949 . S
C610 C616 1.368 . S
C611 C595 1.349 . S
C611 H603 0.950 . S
C611 C609 1.327 . S
C612 C600 1.349 . S
C612 H606 0.950 . S
C612 C613 1.327 . S
C613 H607 0.950 . S
C613 C612 1.327 . S
C613 C617 1.429 . S
C614 C597 1.574 . S
C614 H608 0.949 . S
C614 C618 1.368 . S
C615 C596 1.429 . S
C615 C609 1.429 . S
C615 C616 1.523 . S
C616 C597 1.368 . S
C616 C610 1.368 . S
C616 C615 1.523 . S
C617 C601 1.429 . S
C617 C613 1.429 . S
C617 C618 1.523 . S
C618 C602 1.368 . S
C618 C614 1.368 . S
C618 C617 1.523 . S
H619 C594 0.950 . S
H620 C596 0.950 . S
H621 C597 0.949 . S
H622 C599 0.928 1_556 S
H623 C601 0.950 . S
C624 C625 1.349 . S
C624 C626 1.327 . S
C624 H649 0.950 1_554 S
C625 C624 1.349 . S
C625 C641 1.349 . S
C626 C624 1.327 . S
C626 C645 1.429 . S
C626 H650 0.950 . S
C627 C644 1.574 . S
C627 C646 1.368 . S
C627 H651 0.949 . S
H628 C632 0.949 . S
C629 C630 1.349 . S
C629 C631 1.327 . S
C629 H652 0.950 . S
C630 C629 1.349 . S
C630 C642 1.349 . S
C631 C629 1.327 . S
C631 C647 1.429 . S
C631 H653 0.950 . S
C632 H628 0.949 . S
C632 C640 1.574 . S
C632 C648 1.368 . S
H633 C641 0.950 . S
H634 C639 0.950 . S
H635 C640 0.949 . S
H636 C642 0.950 . S
H637 C643 0.950 . S
H638 C644 0.949 . S
C639 H634 0.950 . S
C639 C641 1.327 . S
C639 C645 1.429 . S
C640 C632 1.574 . S
C640 H635 0.949 . S
C640 C646 1.368 . S
C641 C625 1.349 . S
C641 H633 0.950 . S
C641 C639 1.327 . S
C642 C630 1.349 . S
C642 H636 0.950 . S
C642 C643 1.327 . S
C643 H637 0.950 . S
C643 C642 1.327 . S
C643 C647 1.429 . S
C644 C627 1.574 . S
C644 H638 0.949 . S
C644 C648 1.368 . S
C645 C626 1.429 . S
C645 C639 1.429 . S
C645 C646 1.523 . S
C646 C627 1.368 . S
C646 C640 1.368 . S
C646 C645 1.523 . S
C647 C631 1.429 . S
C647 C643 1.429 . S
C647 C648 1.523 . S
C648 C632 1.368 . S
C648 C644 1.368 . S
C648 C647 1.523 . S
H649 C624 0.950 1_556 S
H650 C626 0.950 . S
H651 C627 0.949 . S
H652 C629 0.950 . S
H653 C631 0.950 . S
C654 C655 1.349 . S
C654 C656 1.327 . S
C654 H679 0.950 . S
C655 C654 1.349 . S
C655 C671 1.349 . S
C656 C654 1.327 . S
C656 C675 1.429 . S
C656 H680 0.950 . S
C657 C674 1.574 . S
C657 C676 1.368 . S
C657 H681 0.949 . S
H658 C662 0.949 . S
C659 C660 1.349 . S
C659 C661 1.327 . S
C659 H682 0.950 . S
C660 C659 1.349 . S
C660 C672 1.349 . S
C661 C659 1.327 . S
C661 C677 1.429 . S
C661 H683 0.950 . S
C662 H658 0.949 . S
C662 C670 1.574 . S
C662 C678 1.368 . S
H663 C671 0.950 . S
H664 C669 0.950 . S
H665 C670 0.949 . S
H666 C672 0.950 . S
H667 C673 0.950 . S
H668 C674 0.949 . S
C669 H664 0.950 . S
C669 C671 1.327 . S
C669 C675 1.429 . S
C670 C662 1.574 . S
C670 H665 0.949 . S
C670 C676 1.368 . S
C671 C655 1.349 . S
C671 H663 0.950 . S
C671 C669 1.327 . S
C672 C660 1.349 . S
C672 H666 0.950 . S
C672 C673 1.327 . S
C673 H667 0.950 . S
C673 C672 1.327 . S
C673 C677 1.429 . S
C674 C657 1.574 . S
C674 H668 0.949 . S
C674 C678 1.368 . S
C675 C656 1.429 . S
C675 C669 1.429 . S
C675 C676 1.523 . S
C676 C657 1.368 . S
C676 C670 1.368 . S
C676 C675 1.523 . S
C677 C661 1.429 . S
C677 C673 1.429 . S
C677 C678 1.523 . S
C678 C662 1.368 . S
C678 C674 1.368 . S
C678 C677 1.523 . S
H679 C654 0.950 . S
H680 C656 0.950 . S
H681 C657 0.949 . S
H682 C659 0.950 . S
H683 C661 0.950 . S
C684 C685 1.349 . S
C684 C686 1.327 . S
C684 H709 0.950 . S
C685 C684 1.349 . S
C685 C701 1.349 . S
C686 C684 1.327 . S
C686 C705 1.429 . S
C686 H710 0.950 . S
C687 C704 1.574 1_655 S
C687 C706 1.368 . S
C687 H711 0.949 . S
H688 C692 0.949 . S
C689 C690 1.349 . S
C689 C691 1.327 . S
C689 H712 0.950 . S
C690 C689 1.349 . S
C690 C702 1.349 . S
C691 C689 1.327 . S
C691 C707 1.429 . S
C691 H713 0.950 . S
C692 H688 0.949 . S
C692 C700 1.574 1_455 S
C692 C708 1.368 . S
H693 C701 0.950 . S
H694 C699 0.950 . S
H695 C700 0.949 . S
H696 C702 0.950 . S
H697 C703 0.950 . S
H698 C704 0.949 . S
C699 H694 0.950 . S
C699 C701 1.327 . S
C699 C705 1.429 . S
C700 C692 1.574 1_655 S
C700 H695 0.949 . S
C700 C706 1.368 . S
C701 C685 1.349 . S
C701 H693 0.950 . S
C701 C699 1.327 . S
C702 C690 1.349 . S
C702 H696 0.950 . S
C702 C703 1.327 . S
C703 H697 0.950 . S
C703 C702 1.327 . S
C703 C707 1.429 . S
C704 C687 1.574 1_455 S
C704 H698 0.949 . S
C704 C708 1.368 . S
C705 C686 1.429 . S
C705 C699 1.429 . S
C705 C706 1.523 . S
C706 C687 1.368 . S
C706 C700 1.368 . S
C706 C705 1.523 . S
C707 C691 1.429 . S
C707 C703 1.429 . S
C707 C708 1.523 . S
C708 C692 1.368 . S
C708 C704 1.368 . S
C708 C707 1.523 . S
H709 C684 0.950 . S
H710 C686 0.950 . S
H711 C687 0.949 . S
H712 C689 0.950 . S
H713 C691 0.950 . S
C714 C715 1.349 . S
C714 C716 1.327 . S
C714 H739 0.950 . S
C715 C714 1.349 . S
C715 C731 1.349 . S
C716 C714 1.327 . S
C716 C735 1.429 . S
C716 H740 0.950 . S
C717 C734 1.574 . S
C717 C736 1.368 . S
C717 H741 0.949 . S
H718 C722 0.949 . S
C719 C720 1.349 . S
C719 C721 1.327 . S
C719 H742 0.950 . S
C720 C719 1.349 . S
C720 C732 1.349 . S
C721 C719 1.327 . S
C721 C737 1.429 . S
C721 H743 0.950 . S
C722 H718 0.949 . S
C722 C730 1.574 . S
C722 C738 1.368 . S
H723 C731 0.950 . S
H724 C729 0.950 . S
H725 C730 0.949 . S
H726 C732 0.950 . S
H727 C733 0.950 . S
H728 C734 0.949 . S
C729 H724 0.950 . S
C729 C731 1.327 . S
C729 C735 1.429 . S
C730 C722 1.574 . S
C730 H725 0.949 . S
C730 C736 1.368 . S
C731 C715 1.349 . S
C731 H723 0.950 . S
C731 C729 1.327 . S
C732 C720 1.349 . S
C732 H726 0.950 . S
C732 C733 1.327 . S
C733 H727 0.950 . S
C733 C732 1.327 . S
C733 C737 1.429 . S
C734 C717 1.574 . S
C734 H728 0.949 . S
C734 C738 1.368 . S
C735 C716 1.429 . S
C735 C729 1.429 . S
C735 C736 1.523 . S
C736 C717 1.368 . S
C736 C730 1.368 . S
C736 C735 1.523 . S
C737 C721 1.429 . S
C737 C733 1.429 . S
C737 C738 1.523 . S
C738 C722 1.368 . S
C738 C734 1.368 . S
C738 C737 1.523 . S
H739 C714 0.950 . S
H740 C716 0.950 . S
H741 C717 0.949 . S
H742 C719 0.950 . S
H743 C721 0.950 . S
C744 C745 1.349 . S
C744 C746 1.327 . S
C744 H769 0.950 . S
C745 C744 1.349 . S
C745 C761 1.349 . S
C746 C744 1.327 . S
C746 C765 1.429 . S
C746 H770 0.950 . S
C747 C764 1.574 . S
C747 C766 1.368 1_545 S
C747 H771 0.949 . S
H748 C752 0.949 . S
C749 C750 1.349 . S
C749 C751 1.327 . S
C749 H772 0.950 . S
C750 C749 1.349 . S
C750 C762 1.349 . S
C751 C749 1.327 . S
C751 C767 1.429 . S
C751 H773 0.950 . S
C752 H748 0.949 . S
C752 C760 1.574 . S
C752 C768 1.368 1_565 S
H753 C761 0.950 . S
H754 C759 0.950 . S
H755 C760 0.949 . S
H756 C762 0.950 . S
H757 C763 0.950 . S
H758 C764 0.949 . S
C759 H754 0.950 . S
C759 C761 1.327 . S
C759 C765 1.429 . S
C760 C752 1.574 . S
C760 H755 0.949 . S
C760 C766 1.368 . S
C761 C745 1.349 . S
C761 H753 0.950 . S
C761 C759 1.327 . S
C762 C750 1.349 . S
C762 H756 0.950 . S
C762 C763 1.327 . S
C763 H757 0.950 . S
C763 C762 1.327 . S
C763 C767 1.429 . S
C764 C747 1.574 . S
C764 H758 0.949 . S
C764 C768 1.368 . S
C765 C746 1.429 . S
C765 C759 1.429 . S
C765 C766 1.523 . S
C766 C747 1.368 1_565 S
C766 C760 1.368 . S
C766 C765 1.523 . S
C767 C751 1.429 . S
C767 C763 1.429 . S
C767 C768 1.523 . S
C768 C752 1.368 1_545 S
C768 C764 1.368 . S
C768 C767 1.523 . S
H769 C744 0.950 . S
H770 C746 0.950 . S
H771 C747 0.949 . S
H772 C749 0.950 . S
H773 C751 0.950 . S
C774 C775 1.349 . S
C774 C776 1.327 . S
C774 H799 0.950 . S
C775 C774 1.349 . S
C775 C791 1.349 . S
C776 C774 1.327 . S
C776 C795 1.429 . S
C776 H800 0.950 . S
C777 C794 1.574 . S
C777 C796 1.368 1_556 S
C777 H801 0.949 . S
H778 C782 0.949 . S
C779 C780 1.349 . S
C779 C781 1.327 . S
C779 H802 0.950 . S
C780 C779 1.349 . S
C780 C792 1.349 . S
C781 C779 1.327 . S
C781 C797 1.429 . S
C781 H803 0.950 . S
C782 H778 0.949 . S
C782 C790 1.574 . S
C782 C798 1.368 1_554 S
H783 C791 0.950 . S
H784 C789 0.950 . S
H785 C790 0.949 . S
H786 C792 0.950 . S
H787 C793 0.950 . S
H788 C794 0.949 . S
C789 H784 0.950 . S
C789 C791 1.327 . S
C789 C795 1.429 . S
C790 C782 1.574 . S
C790 H785 0.949 . S
C790 C796 1.368 . S
C791 C775 1.349 . S
C791 H783 0.950 . S
C791 C789 1.327 . S
C792 C780 1.349 . S
C792 H786 0.950 . S
C792 C793 1.327 . S
C793 H787 0.950 . S
C793 C792 1.327 . S
C793 C797 1.429 . S
C794 C777 1.574 . S
C794 H788 0.949 . S
C794 C798 1.368 . S
C795 C776 1.429 . S
C795 C789 1.429 . S
C795 C796 1.523 . S
C796 C777 1.368 1_554 S
C796 C790 1.368 . S
C796 C795 1.523 . S
C797 C781 1.429 . S
C797 C793 1.429 . S
C797 C798 1.523 . S
C798 C782 1.368 1_556 S
C798 C794 1.368 . S
C798 C797 1.523 . S
H799 C774 0.950 . S
H800 C776 0.950 . S
H801 C777 0.949 . S
H802 C779 0.950 . S
H803 C781 0.950 . S
C804 C805 1.349 . S
C804 C806 1.327 . S
C804 H829 0.950 . S
C805 C804 1.349 . S
C805 C821 1.349 . S
C806 C804 1.327 . S
C806 C825 1.429 . S
C806 H830 0.950 . S
C807 C824 1.574 1_545 S
C807 C826 1.368 1_554 S
C807 H831 0.949 . S
H808 C812 0.949 . S
C809 C810 1.349 . S
C809 C811 1.327 . S
C809 H832 0.950 . S
C810 C809 1.349 . S
C810 C822 1.349 . S
C811 C809 1.327 . S
C811 C827 1.429 . S
C811 H833 0.950 . S
C812 H808 0.949 . S
C812 C820 1.574 1_565 S
C812 C828 1.368 1_556 S
H813 C821 0.937 1_554 S
H814 C819 0.950 1_554 S
H815 C820 0.949 . S
H816 C822 0.938 1_556 S
H817 C823 0.950 1_556 S
H818 C824 0.949 . S
C819 H814 0.950 1_556 S
C819 C821 1.327 . S
C819 C825 1.429 . S
C820 C812 1.574 1_545 S
C820 H815 0.949 . S
C820 C826 1.368 . S
C821 C805 1.349 . S
C821 H813 0.937 1_556 S
C821 C819 1.327 . S
C822 C810 1.349 . S
C822 H816 0.938 1_554 S
C822 C823 1.327 . S
C823 H817 0.950 1_554 S
C823 C822 1.327 . S
C823 C827 1.429 . S
C824 C807 1.574 1_565 S
C824 H818 0.949 . S
C824 C828 1.368 . S
C825 C806 1.429 . S
C825 C819 1.429 . S
C825 C826 1.523 . S
C826 C807 1.368 1_556 S
C826 C820 1.368 . S
C826 C825 1.523 . S
C827 C811 1.429 . S
C827 C823 1.429 . S
C827 C828 1.523 . S
C828 C812 1.368 1_554 S
C828 C824 1.368 . S
C828 C827 1.523 . S
H829 C804 0.950 . S
H830 C806 0.950 . S
H831 C807 0.949 . S
H832 C809 0.950 . S
H833 C811 0.950 . S
C834 C835 1.349 . S
C834 C836 1.327 . S
C834 H859 0.950 . S
C835 C834 1.349 . S
C835 C851 1.349 . S
C836 C834 1.327 . S
C836 C855 1.429 . S
C836 H860 0.950 . S
C837 C854 1.574 1_655 S
C837 C856 1.368 1_554 S
C837 H861 0.949 . S
H838 C842 0.949 . S
C839 C840 1.349 . S
C839 C841 1.327 . S
C839 H862 0.950 . S
C840 C839 1.349 . S
C840 C852 1.349 . S
C841 C839 1.327 . S
C841 C857 1.429 . S
C841 H863 0.950 . S
C842 H838 0.949 . S
C842 C850 1.574 1_455 S
C842 C858 1.368 1_556 S
H843 C851 0.950 . S
H844 C849 0.950 1_554 S
H845 C850 0.949 . S
H846 C852 0.950 . S
H847 C853 0.950 1_556 S
H848 C854 0.949 . S
C849 H844 0.950 1_556 S
C849 C851 1.327 . S
C849 C855 1.429 . S
C850 C842 1.574 1_655 S
C850 H845 0.949 . S
C850 C856 1.368 . S
C851 C835 1.349 . S
C851 H843 0.950 . S
C851 C849 1.327 . S
C852 C840 1.349 . S
C852 H846 0.950 . S
C852 C853 1.327 . S
C853 H847 0.950 1_554 S
C853 C852 1.327 . S
C853 C857 1.429 . S
C854 C837 1.574 1_455 S
C854 H848 0.949 . S
C854 C858 1.368 . S
C855 C836 1.429 . S
C855 C849 1.429 . S
C855 C856 1.523 . S
C856 C837 1.368 1_556 S
C856 C850 1.368 . S
C856 C855 1.523 . S
C857 C841 1.429 . S
C857 C853 1.429 . S
C857 C858 1.523 . S
C858 C842 1.368 1_554 S
C858 C854 1.368 . S
C858 C857 1.523 . S
H859 C834 0.950 . S
H860 C836 0.950 . S
H861 C837 0.949 . S
H862 C839 0.950 . S
H863 C841 0.950 . S
C864 C865 1.349 . S
C864 C866 1.327 . S
C864 H889 0.950 . S
C865 C864 1.349 . S
C865 C881 1.349 . S
C866 C864 1.327 . S
C866 C885 1.429 . S
C866 H890 0.950 . S
C867 C884 1.574 . S
C867 C886 1.368 1_554 S
C867 H891 0.949 . S
H868 C872 0.949 . S
C869 C870 1.349 . S
C869 C871 1.327 . S
C869 H892 0.950 . S
C870 C869 1.349 . S
C870 C882 1.349 . S
C871 C869 1.327 . S
C871 C887 1.429 . S
C871 H893 0.950 . S
C872 H868 0.949 . S
C872 C880 1.574 . S
C872 C888 1.368 1_556 S
H873 C881 0.950 1_554 S
H874 C879 0.950 . S
H875 C880 0.949 . S
H876 C882 0.950 1_556 S
H877 C883 0.950 . S
H878 C884 0.949 . S
C879 H874 0.950 . S
C879 C881 1.327 1_554 S
C879 C885 1.429 1_554 S
C880 C872 1.574 . S
C880 H875 0.949 . S
C880 C886 1.368 . S
C881 C865 1.349 . S
C881 H873 0.950 1_556 S
C881 C879 1.327 1_556 S
C882 C870 1.349 . S
C882 H876 0.950 1_554 S
C882 C883 1.327 1_554 S
C883 H877 0.950 . S
C883 C882 1.327 1_556 S
C883 C887 1.429 1_556 S
C884 C867 1.574 . S
C884 H878 0.949 . S
C884 C888 1.368 . S
C885 C866 1.429 . S
C885 C879 1.429 1_556 S
C885 C886 1.523 . S
C886 C867 1.368 1_556 S
C886 C880 1.368 . S
C886 C885 1.523 . S
C887 C871 1.429 . S
C887 C883 1.429 1_554 S
C887 C888 1.523 . S
C888 C872 1.368 1_554 S
C888 C884 1.368 . S
C888 C887 1.523 . S
H889 C864 0.950 . S
H890 C866 0.950 . S
H891 C867 0.949 . S
H892 C869 0.950 . S
H893 C871 0.950 . S
C894 C895 1.349 . S
C894 C896 1.327 . S
C894 H919 0.950 . S
C895 C894 1.349 . S
C895 C911 1.349 . S
C896 C894 1.327 . S
C896 C915 1.429 . S
C896 H920 0.950 . S
C897 C914 1.574 1_565 S
C897 C916 1.368 1_556 S
C897 H921 0.949 . S
H898 C902 0.949 . S
C899 C900 1.349 . S
C899 C901 1.327 . S
C899 H922 0.950 . S
C900 C899 1.349 . S
C900 C912 1.349 . S
C901 C899 1.327 . S
C901 C917 1.429 . S
C901 H923 0.950 . S
C902 H898 0.949 . S
C902 C910 1.574 1_545 S
C902 C918 1.368 1_554 S
H903 C911 0.950 1_556 S
H904 C909 0.950 . S
H905 C910 0.949 . S
H906 C912 0.950 1_554 S
H907 C913 0.950 . S
H908 C914 0.949 . S
C909 H904 0.950 . S
C909 C911 1.327 1_556 S
C909 C915 1.429 1_556 S
C910 C902 1.574 1_565 S
C910 H905 0.949 . S
C910 C916 1.368 . S
C911 C895 1.349 . S
C911 H903 0.950 1_554 S
C911 C909 1.327 1_554 S
C912 C900 1.349 . S
C912 H906 0.950 1_556 S
C912 C913 1.327 1_556 S
C913 H907 0.950 . S
C913 C912 1.327 1_554 S
C913 C917 1.429 1_554 S
C914 C897 1.574 1_545 S
C914 H908 0.949 . S
C914 C918 1.368 . S
C915 C896 1.429 . S
C915 C909 1.429 1_554 S
C915 C916 1.523 . S
C916 C897 1.368 1_554 S
C916 C910 1.368 . S
C916 C915 1.523 . S
C917 C901 1.429 . S
C917 C913 1.429 1_556 S
C917 C918 1.523 . S
C918 C902 1.368 1_556 S
C918 C914 1.368 . S
C918 C917 1.523 . S
H919 C894 0.950 . S
H920 C896 0.950 . S
H921 C897 0.949 . S
H922 C899 0.950 . S
H923 C901 0.950 . S
C924 C925 1.349 . S
C924 C926 1.327 . S
C924 H949 0.950 . S
C925 C924 1.349 . S
C925 C941 1.349 . S
C926 C924 1.327 . S
C926 C945 1.429 . S
C926 H950 0.950 . S
C927 C944 1.574 1_655 S
C927 C946 1.368 . S
C927 H951 0.949 . S
H928 C932 0.949 . S
C929 C930 1.349 . S
C929 C931 1.327 . S
C929 H952 0.950 . S
C930 C929 1.349 . S
C930 C942 1.349 . S
C931 C929 1.327 . S
C931 C947 1.429 . S
C931 H953 0.950 . S
C932 H928 0.949 . S
C932 C940 1.574 1_455 S
C932 C948 1.368 . S
H933 C941 0.950 . S
H934 C939 0.950 . S
H935 C940 0.949 . S
H936 C942 0.950 . S
H937 C943 0.950 . S
H938 C944 0.949 . S
C939 H934 0.950 . S
C939 C941 1.327 . S
C939 C945 1.429 . S
C940 C932 1.574 1_655 S
C940 H935 0.949 . S
C940 C946 1.368 1_554 S
C941 C925 1.349 . S
C941 H933 0.950 . S
C941 C939 1.327 . S
C942 C930 1.349 . S
C942 H936 0.950 . S
C942 C943 1.327 . S
C943 H937 0.950 . S
C943 C942 1.327 . S
C943 C947 1.429 . S
C944 C927 1.574 1_455 S
C944 H938 0.949 . S
C944 C948 1.368 1_556 S
C945 C926 1.429 . S
C945 C939 1.429 . S
C945 C946 1.523 . S
C946 C927 1.368 . S
C946 C940 1.368 1_556 S
C946 C945 1.523 . S
C947 C931 1.429 . S
C947 C943 1.429 . S
C947 C948 1.523 . S
C948 C932 1.368 . S
C948 C944 1.368 1_554 S
C948 C947 1.523 . S
H949 C924 0.950 . S
H950 C926 0.950 . S
H951 C927 0.949 . S
H952 C929 0.950 . S
H953 C931 0.950 . S
C954 C955 1.349 . S
C954 C956 1.327 . S
C954 H979 0.950 . S
C955 C954 1.349 . S
C955 C971 1.349 . S
C956 C954 1.327 . S
C956 C975 1.429 . S
C956 H980 0.950 . S
C957 C974 1.574 . S
C957 C976 1.368 . S
C957 H981 0.949 . S
H958 C962 0.949 . S
C959 C960 1.349 . S
C959 C961 1.327 . S
C959 H982 0.950 . S
C960 C959 1.349 . S
C960 C972 1.349 . S
C961 C959 1.327 . S
C961 C977 1.429 . S
C961 H983 0.950 . S
C962 H958 0.949 . S
C962 C970 1.574 . S
C962 C978 1.368 . S
H963 C971 0.950 . S
H964 C969 0.950 . S
H965 C970 0.949 . S
H966 C972 0.950 . S
H967 C973 0.950 . S
H968 C974 0.949 . S
C969 H964 0.950 . S
C969 C971 1.327 . S
C969 C975 1.429 . S
C970 C962 1.574 . S
C970 H965 0.949 . S
C970 C976 1.368 . S
C971 C955 1.349 . S
C971 H963 0.950 . S
C971 C969 1.327 . S
C972 C960 1.349 . S
C972 H966 0.950 . S
C972 C973 1.327 . S
C973 H967 0.950 . S
C973 C972 1.327 . S
C973 C977 1.429 . S
C974 C957 1.574 . S
C974 H968 0.949 . S
C974 C978 1.368 . S
C975 C956 1.429 . S
C975 C969 1.429 . S
C975 C976 1.523 . S
C976 C957 1.368 . S
C976 C970 1.368 . S
C976 C975 1.523 . S
C977 C961 1.429 . S
C977 C973 1.429 . S
C977 C978 1.523 . S
C978 C962 1.368 . S
C978 C974 1.368 . S
C978 C977 1.523 . S
H979 C954 0.950 . S
H980 C956 0.950 . S
H981 C957 0.949 . S
H982 C959 0.950 . S
H983 C961 0.950 . S
C984 C985 1.349 . S
C984 C986 1.327 . S
C984 H1009 0.950 . S
C985 C984 1.349 . S
C985 C1001 1.349 . S
C986 C984 1.327 . S
C986 C1005 1.429 . S
C986 H1010 0.950 . S
C987 C1004 1.574 . S
C987 C1006 1.368 . S
C987 H1011 0.949 . S
H988 C992 0.949 . S
C989 C990 1.349 . S
C989 C991 1.327 . S
C989 H1012 0.950 . S
C990 C989 1.349 . S
C990 C1002 1.349 . S
C991 C989 1.327 . S
C991 C1007 1.429 . S
C991 H1013 0.950 . S
C992 H988 0.949 . S
C992 C1000 1.574 . S
C992 C1008 1.368 . S
H993 C1001 0.950 . S
H994 C999 0.950 . S
H995 C1000 0.949 . S
H996 C1002 0.950 . S
H997 C1003 0.950 . S
H998 C1004 0.949 . S
C999 H994 0.950 . S
C999 C1001 1.327 . S
C999 C1005 1.429 . S
C1000 C992 1.574 . S
C1000 H995 0.949 . S
C1000 C1006 1.368 . S
C1001 C985 1.349 . S
C1001 H993 0.950 . S
C1001 C999 1.327 . S
C1002 C990 1.349 . S
C1002 H996 0.950 . S
C1002 C1003 1.327 . S
C1003 H997 0.950 . S
C1003 C1002 1.327 . S
C1003 C1007 1.429 . S
C1004 C987 1.574 . S
C1004 H998 0.949 . S
C1004 C1008 1.368 . S
C1005 C986 1.429 . S
C1005 C999 1.429 . S
C1005 C1006 1.523 . S
C1006 C987 1.368 . S
C1006 C1000 1.368 . S
C1006 C1005 1.523 . S
C1007 C991 1.429 . S
C1007 C1003 1.429 . S
C1007 C1008 1.523 . S
C1008 C992 1.368 . S
C1008 C1004 1.368 . S
C1008 C1007 1.523 . S
H1009 C984 0.950 . S
H1010 C986 0.950 . S
H1011 C987 0.949 . S
H1012 C989 0.950 . S
H1013 C991 0.950 . S
C1014 C1015 1.349 . S
C1014 C1016 1.327 . S
C1014 H1039 0.950 . S
C1015 C1014 1.349 . S
C1015 C1031 1.349 . S
C1016 C1014 1.327 . S
C1016 C1035 1.429 . S
C1016 H1040 0.950 . S
C1017 C1034 1.574 . S
C1017 C1036 1.368 . S
C1017 H1041 0.949 . S
H1018 C1022 0.949 . S
C1019 C1020 1.349 . S
C1019 C1021 1.327 . S
C1019 H1042 0.950 . S
C1020 C1019 1.349 . S
C1020 C1032 1.349 . S
C1021 C1019 1.327 . S
C1021 C1037 1.429 . S
C1021 H1043 0.950 . S
C1022 H1018 0.949 . S
C1022 C1030 1.574 . S
C1022 C1038 1.368 . S
H1023 C1031 0.950 . S
H1024 C1029 0.950 . S
H1025 C1030 0.949 . S
H1026 C1032 0.950 . S
H1027 C1033 0.950 . S
H1028 C1034 0.949 . S
C1029 H1024 0.950 . S
C1029 C1031 1.327 . S
C1029 C1035 1.429 . S
C1030 C1022 1.574 . S
C1030 H1025 0.949 . S
C1030 C1036 1.368 . S
C1031 C1015 1.349 . S
C1031 H1023 0.950 . S
C1031 C1029 1.327 . S
C1032 C1020 1.349 . S
C1032 H1026 0.950 . S
C1032 C1033 1.327 . S
C1033 H1027 0.950 . S
C1033 C1032 1.327 . S
C1033 C1037 1.429 . S
C1034 C1017 1.574 . S
C1034 H1028 0.949 . S
C1034 C1038 1.368 . S
C1035 C1016 1.429 . S
C1035 C1029 1.429 . S
C1035 C1036 1.523 . S
C1036 C1017 1.368 . S
C1036 C1030 1.368 . S
C1036 C1035 1.523 . S
C1037 C1021 1.429 . S
C1037 C1033 1.429 . S
C1037 C1038 1.523 . S
C1038 C1022 1.368 . S
C1038 C1034 1.368 . S
C1038 C1037 1.523 . S
H1039 C1014 0.950 . S
H1040 C1016 0.950 . S
H1041 C1017 0.949 . S
H1042 C1019 0.950 . S
H1043 C1021 0.950 . S
C1044 C1045 1.349 . S
C1044 C1046 1.327 . S
C1044 H1069 0.950 . S
C1045 C1044 1.349 . S
C1045 C1061 1.349 . S
C1046 C1044 1.327 . S
C1046 C1065 1.429 . S
C1046 H1070 0.950 . S
C1047 C1064 1.574 . S
C1047 C1066 1.368 . S
C1047 H1071 0.949 . S
H1048 C1052 0.949 . S
C1049 C1050 1.349 . S
C1049 C1051 1.327 . S
C1049 H1072 0.950 . S
C1050 C1049 1.349 . S
C1050 C1062 1.349 . S
C1051 C1049 1.327 . S
C1051 C1067 1.429 . S
C1051 H1073 0.950 . S
C1052 H1048 0.949 . S
C1052 C1060 1.574 . S
C1052 C1068 1.368 . S
H1053 C1061 0.950 . S
H1054 C1059 0.950 . S
H1055 C1060 0.949 . S
H1056 C1062 0.950 . S
H1057 C1063 0.950 . S
H1058 C1064 0.949 . S
C1059 H1054 0.950 . S
C1059 C1061 1.327 . S
C1059 C1065 1.429 . S
C1060 C1052 1.574 . S
C1060 H1055 0.949 . S
C1060 C1066 1.368 . S
C1061 C1045 1.349 . S
C1061 H1053 0.950 . S
C1061 C1059 1.327 . S
C1062 C1050 1.349 . S
C1062 H1056 0.950 . S
C1062 C1063 1.327 . S
C1063 H1057 0.950 . S
C1063 C1062 1.327 . S
C1063 C1067 1.429 . S
C1064 C1047 1.574 . S
C1064 H1058 0.949 . S
C1064 C1068 1.368 . S
C1065 C1046 1.429 . S
C1065 C1059 1.429 . S
C1065 C1066 1.523 . S
C1066 C1047 1.368 . S
C1066 C1060 1.368 . S
C1066 C1065 1.523 . S
C1067 C1051 1.429 . S
C1067 C1063 1.429 . S
C1067 C1068 1.523 . S
C1068 C1052 1.368 . S
C1068 C1064 1.368 . S
C1068 C1067 1.523 . S
H1069 C1044 0.950 . S
H1070 C1046 0.950 . S
H1071 C1047 0.949 . S
H1072 C1049 0.950 . S
H1073 C1051 0.950 . S
C1074 C1075 1.349 . S
C1074 C1076 1.327 . S
C1074 H1099 0.950 . S
C1075 C1074 1.349 . S
C1075 C1091 1.349 . S
C1076 C1074 1.327 . S
C1076 C1095 1.429 . S
C1076 H1100 0.950 . S
C1077 C1094 1.574 . S
C1077 C1096 1.368 . S
C1077 H1101 0.949 . S
H1078 C1082 0.949 . S
C1079 C1080 1.349 . S
C1079 C1081 1.327 . S
C1079 H1102 0.950 . S
C1080 C1079 1.349 . S
C1080 C1092 1.349 . S
C1081 C1079 1.327 . S
C1081 C1097 1.429 . S
C1081 H1103 0.950 . S
C1082 H1078 0.949 . S
C1082 C1090 1.574 . S
C1082 C1098 1.368 . S
H1083 C1091 0.950 . S
H1084 C1089 0.950 . S
H1085 C1090 0.949 . S
H1086 C1092 0.950 . S
H1087 C1093 0.950 . S
H1088 C1094 0.949 . S
C1089 H1084 0.950 . S
C1089 C1091 1.327 . S
C1089 C1095 1.429 . S
C1090 C1082 1.574 . S
C1090 H1085 0.949 . S
C1090 C1096 1.368 . S
C1091 C1075 1.349 . S
C1091 H1083 0.950 . S
C1091 C1089 1.327 . S
C1092 C1080 1.349 . S
C1092 H1086 0.950 . S
C1092 C1093 1.327 . S
C1093 H1087 0.950 . S
C1093 C1092 1.327 . S
C1093 C1097 1.429 . S
C1094 C1077 1.574 . S
C1094 H1088 0.949 . S
C1094 C1098 1.368 . S
C1095 C1076 1.429 . S
C1095 C1089 1.429 . S
C1095 C1096 1.523 . S
C1096 C1077 1.368 . S
C1096 C1090 1.368 . S
C1096 C1095 1.523 . S
C1097 C1081 1.429 . S
C1097 C1093 1.429 . S
C1097 C1098 1.523 . S
C1098 C1082 1.368 . S
C1098 C1094 1.368 . S
C1098 C1097 1.523 . S
H1099 C1074 0.950 . S
H1100 C1076 0.950 . S
H1101 C1077 0.949 . S
H1102 C1079 0.950 . S
H1103 C1081 0.950 . S
C1104 C1105 1.349 . S
C1104 C1106 1.327 . S
C1104 H1129 0.950 . S
C1105 C1104 1.349 . S
C1105 C1121 1.349 . S
C1106 C1104 1.327 . S
C1106 C1125 1.429 . S
C1106 H1130 0.950 . S
C1107 C1124 1.574 . S
C1107 C1126 1.368 . S
C1107 H1131 0.949 . S
H1108 C1112 0.949 . S
C1109 C1110 1.349 . S
C1109 C1111 1.327 . S
C1109 H1132 0.950 . S
C1110 C1109 1.349 . S
C1110 C1122 1.349 . S
C1111 C1109 1.327 . S
C1111 C1127 1.429 . S
C1111 H1133 0.950 . S
C1112 H1108 0.949 . S
C1112 C1120 1.574 . S
C1112 C1128 1.368 . S
H1113 C1121 0.950 . S
H1114 C1119 0.950 . S
H1115 C1120 0.949 . S
H1116 C1122 0.950 . S
H1117 C1123 0.950 . S
H1118 C1124 0.949 . S
C1119 H1114 0.950 . S
C1119 C1121 1.327 . S
C1119 C1125 1.429 . S
C1120 C1112 1.574 . S
C1120 H1115 0.949 . S
C1120 C1126 1.368 . S
C1121 C1105 1.349 . S
C1121 H1113 0.950 . S
C1121 C1119 1.327 . S
C1122 C1110 1.349 . S
C1122 H1116 0.950 . S
C1122 C1123 1.327 . S
C1123 H1117 0.950 . S
C1123 C1122 1.327 . S
C1123 C1127 1.429 . S
C1124 C1107 1.574 . S
C1124 H1118 0.949 . S
C1124 C1128 1.368 . S
C1125 C1106 1.429 . S
C1125 C1119 1.429 . S
C1125 C1126 1.523 . S
C1126 C1107 1.368 . S
C1126 C1120 1.368 . S
C1126 C1125 1.523 . S
C1127 C1111 1.429 . S
C1127 C1123 1.429 . S
C1127 C1128 1.523 . S
C1128 C1112 1.368 . S
C1128 C1124 1.368 . S
C1128 C1127 1.523 . S
H1129 C1104 0.950 . S
H1130 C1106 0.950 . S
H1131 C1107 0.949 . S
H1132 C1109 0.950 . S
H1133 C1111 0.950 . S
C1134 C1135 1.349 . S
C1134 C1136 1.327 . S
C1134 H1159 0.950 . S
C1135 C1134 1.349 . S
C1135 C1151 1.349 . S
C1136 C1134 1.327 . S
C1136 C1155 1.429 . S
C1136 H1160 0.950 . S
C1137 C1154 1.574 . S
C1137 C1156 1.368 . S
C1137 H1161 0.949 . S
H1138 C1142 0.949 . S
C1139 C1140 1.349 . S
C1139 C1141 1.327 . S
C1139 H1162 0.950 . S
C1140 C1139 1.349 . S
C1140 C1152 1.349 . S
C1141 C1139 1.327 . S
C1141 C1157 1.429 . S
C1141 H1163 0.950 . S
C1142 H1138 0.949 . S
C1142 C1150 1.574 . S
C1142 C1158 1.368 . S
H1143 C1151 0.950 . S
H1144 C1149 0.950 . S
H1145 C1150 0.949 . S
H1146 C1152 0.950 . S
H1147 C1153 0.950 . S
H1148 C1154 0.949 . S
C1149 H1144 0.950 . S
C1149 C1151 1.327 . S
C1149 C1155 1.429 . S
C1150 C1142 1.574 . S
C1150 H1145 0.949 . S
C1150 C1156 1.368 . S
C1151 C1135 1.349 . S
C1151 H1143 0.950 . S
C1151 C1149 1.327 . S
C1152 C1140 1.349 . S
C1152 H1146 0.950 . S
C1152 C1153 1.327 . S
C1153 H1147 0.950 . S
C1153 C1152 1.327 . S
C1153 C1157 1.429 . S
C1154 C1137 1.574 . S
C1154 H1148 0.949 . S
C1154 C1158 1.368 . S
C1155 C1136 1.429 . S
C1155 C1149 1.429 . S
C1155 C1156 1.523 . S
C1156 C1137 1.368 . S
C1156 C1150 1.368 . S
C1156 C1155 1.523 . S
C1157 C1141 1.429 . S
C1157 C1153 1.429 . S
C1157 C1158 1.523 . S
C1158 C1142 1.368 . S
C1158 C1154 1.368 . S
C1158 C1157 1.523 . S
H1159 C1134 0.950 . S
H1160 C1136 0.950 . S
H1161 C1137 0.949 . S
H1162 C1139 0.950 . S
H1163 C1141 0.950 . S
C1164 C1165 1.349 . S
C1164 C1166 1.327 . S
C1164 H1189 0.950 . S
C1165 C1164 1.349 . S
C1165 C1181 1.349 . S
C1166 C1164 1.327 . S
C1166 C1185 1.429 . S
C1166 H1190 0.950 . S
C1167 C1184 1.574 . S
C1167 C1186 1.368 . S
C1167 H1191 0.949 . S
H1168 C1172 0.949 . S
C1169 C1170 1.349 . S
C1169 C1171 1.327 . S
C1169 H1192 0.950 . S
C1170 C1169 1.349 . S
C1170 C1182 1.349 . S
C1171 C1169 1.327 . S
C1171 C1187 1.429 . S
C1171 H1193 0.950 . S
C1172 H1168 0.949 . S
C1172 C1180 1.574 . S
C1172 C1188 1.368 . S
H1173 C1181 0.950 . S
H1174 C1179 0.950 . S
H1175 C1180 0.949 . S
H1176 C1182 0.950 . S
H1177 C1183 0.950 . S
H1178 C1184 0.949 . S
C1179 H1174 0.950 . S
C1179 C1181 1.327 . S
C1179 C1185 1.429 . S
C1180 C1172 1.574 . S
C1180 H1175 0.949 . S
C1180 C1186 1.368 . S
C1181 C1165 1.349 . S
C1181 H1173 0.950 . S
C1181 C1179 1.327 . S
C1182 C1170 1.349 . S
C1182 H1176 0.950 . S
C1182 C1183 1.327 . S
C1183 H1177 0.950 . S
C1183 C1182 1.327 . S
C1183 C1187 1.429 . S
C1184 C1167 1.574 . S
C1184 H1178 0.949 . S
C1184 C1188 1.368 . S
C1185 C1166 1.429 . S
C1185 C1179 1.429 . S
C1185 C1186 1.523 . S
C1186 C1167 1.368 . S
C1186 C1180 1.368 . S
C1186 C1185 1.523 . S
C1187 C1171 1.429 . S
C1187 C1183 1.429 . S
C1187 C1188 1.523 . S
C1188 C1172 1.368 . S
C1188 C1184 1.368 . S
C1188 C1187 1.523 . S
H1189 C1164 0.950 . S
H1190 C1166 0.950 . S
H1191 C1167 0.949 . S
H1192 C1169 0.950 . S
H1193 C1171 0.950 . S
C1194 C1195 1.349 . S
C1194 C1196 1.327 . S
C1194 H1219 0.950 . S
C1195 C1194 1.349 . S
C1195 C1211 1.349 . S
C1196 C1194 1.327 . S
C1196 C1215 1.429 . S
C1196 H1220 0.950 . S
C1197 C1214 1.574 . S
C1197 C1216 1.368 . S
C1197 H1221 0.949 . S
H1198 C1202 0.949 . S
C1199 C1200 1.349 . S
C1199 C1201 1.327 . S
C1199 H1222 0.950 . S
C1200 C1199 1.349 . S
C1200 C1212 1.349 . S
C1201 C1199 1.327 . S
C1201 C1217 1.429 . S
C1201 H1223 0.950 . S
C1202 H1198 0.949 . S
C1202 C1210 1.574 . S
C1202 C1218 1.368 . S
H1203 C1211 0.950 . S
H1204 C1209 0.950 . S
H1205 C1210 0.949 . S
H1206 C1212 0.950 . S
H1207 C1213 0.950 . S
H1208 C1214 0.949 . S
C1209 H1204 0.950 . S
C1209 C1211 1.327 . S
C1209 C1215 1.429 . S
C1210 C1202 1.574 . S
C1210 H1205 0.949 . S
C1210 C1216 1.368 . S
C1211 C1195 1.349 . S
C1211 H1203 0.950 . S
C1211 C1209 1.327 . S
C1212 C1200 1.349 . S
C1212 H1206 0.950 . S
C1212 C1213 1.327 . S
C1213 H1207 0.950 . S
C1213 C1212 1.327 . S
C1213 C1217 1.429 . S
C1214 C1197 1.574 . S
C1214 H1208 0.949 . S
C1214 C1218 1.368 . S
C1215 C1196 1.429 . S
C1215 C1209 1.429 . S
C1215 C1216 1.523 . S
C1216 C1197 1.368 . S
C1216 C1210 1.368 . S
C1216 C1215 1.523 . S
C1217 C1201 1.429 . S
C1217 C1213 1.429 . S
C1217 C1218 1.523 . S
C1218 C1202 1.368 . S
C1218 C1214 1.368 . S
C1218 C1217 1.523 . S
H1219 C1194 0.950 . S
H1220 C1196 0.950 . S
H1221 C1197 0.949 . S
H1222 C1199 0.950 . S
H1223 C1201 0.950 . S
C1224 C1225 1.349 . S
C1224 C1226 1.327 . S
C1224 H1249 0.950 . S
C1225 C1224 1.349 . S
C1225 C1241 1.349 . S
C1226 C1224 1.327 . S
C1226 C1245 1.429 . S
C1226 H1250 0.950 . S
C1227 C1244 1.574 . S
C1227 C1246 1.368 . S
C1227 H1251 0.949 . S
H1228 C1232 0.949 . S
C1229 C1230 1.349 . S
C1229 C1231 1.327 . S
C1229 H1252 0.950 . S
C1230 C1229 1.349 . S
C1230 C1242 1.349 . S
C1231 C1229 1.327 . S
C1231 C1247 1.429 . S
C1231 H1253 0.950 . S
C1232 H1228 0.949 . S
C1232 C1240 1.574 . S
C1232 C1248 1.368 . S
H1233 C1241 0.950 . S
H1234 C1239 0.950 . S
H1235 C1240 0.949 . S
H1236 C1242 0.950 . S
H1237 C1243 0.950 . S
H1238 C1244 0.949 . S
C1239 H1234 0.950 . S
C1239 C1241 1.327 . S
C1239 C1245 1.429 . S
C1240 C1232 1.574 . S
C1240 H1235 0.949 . S
C1240 C1246 1.368 . S
C1241 C1225 1.349 . S
C1241 H1233 0.950 . S
C1241 C1239 1.327 . S
C1242 C1230 1.349 . S
C1242 H1236 0.950 . S
C1242 C1243 1.327 . S
C1243 H1237 0.950 . S
C1243 C1242 1.327 . S
C1243 C1247 1.429 . S
C1244 C1227 1.574 . S
C1244 H1238 0.949 . S
C1244 C1248 1.368 . S
C1245 C1226 1.429 . S
C1245 C1239 1.429 . S
C1245 C1246 1.523 . S
C1246 C1227 1.368 . S
C1246 C1240 1.368 . S
C1246 C1245 1.523 . S
C1247 C1231 1.429 . S
C1247 C1243 1.429 . S
C1247 C1248 1.523 . S
C1248 C1232 1.368 . S
C1248 C1244 1.368 . S
C1248 C1247 1.523 . S
H1249 C1224 0.950 . S
H1250 C1226 0.950 . S
H1251 C1227 0.949 . S
H1252 C1229 0.950 . S
H1253 C1231 0.950 . S
C1254 C1255 1.349 . S
C1254 C1256 1.327 . S
C1254 H1279 0.950 . S
C1255 C1254 1.349 . S
C1255 C1271 1.349 . S
C1256 C1254 1.327 . S
C1256 C1275 1.429 . S
C1256 H1280 0.950 . S
C1257 C1274 1.574 . S
C1257 C1276 1.368 . S
C1257 H1281 0.949 . S
H1258 C1262 0.949 . S
C1259 C1260 1.349 . S
C1259 C1261 1.327 . S
C1259 H1282 0.950 . S
C1260 C1259 1.349 . S
C1260 C1272 1.349 . S
C1261 C1259 1.327 . S
C1261 C1277 1.429 . S
C1261 H1283 0.950 . S
C1262 H1258 0.949 . S
C1262 C1270 1.574 . S
C1262 C1278 1.368 . S
H1263 C1271 0.950 . S
H1264 C1269 0.950 . S
H1265 C1270 0.949 . S
H1266 C1272 0.950 . S
H1267 C1273 0.950 . S
H1268 C1274 0.949 . S
C1269 H1264 0.950 . S
C1269 C1271 1.327 . S
C1269 C1275 1.429 . S
C1270 C1262 1.574 . S
C1270 H1265 0.949 . S
C1270 C1276 1.368 . S
C1271 C1255 1.349 . S
C1271 H1263 0.950 . S
C1271 C1269 1.327 . S
C1272 C1260 1.349 . S
C1272 H1266 0.950 . S
C1272 C1273 1.327 . S
C1273 H1267 0.950 . S
C1273 C1272 1.327 . S
C1273 C1277 1.429 . S
C1274 C1257 1.574 . S
C1274 H1268 0.949 . S
C1274 C1278 1.368 . S
C1275 C1256 1.429 . S
C1275 C1269 1.429 . S
C1275 C1276 1.523 . S
C1276 C1257 1.368 . S
C1276 C1270 1.368 . S
C1276 C1275 1.523 . S
C1277 C1261 1.429 . S
C1277 C1273 1.429 . S
C1277 C1278 1.523 . S
C1278 C1262 1.368 . S
C1278 C1274 1.368 . S
C1278 C1277 1.523 . S
H1279 C1254 0.950 . S
H1280 C1256 0.950 . S
H1281 C1257 0.949 . S
H1282 C1259 0.950 . S
H1283 C1261 0.950 . S
C1284 C1285 1.349 . S
C1284 C1286 1.327 . S
C1284 H1309 0.950 . S
C1285 C1284 1.349 . S
C1285 C1301 1.349 . S
C1286 C1284 1.327 . S
C1286 C1305 1.429 . S
C1286 H1310 0.950 . S
C1287 C1304 1.574 . S
C1287 C1306 1.368 . S
C1287 H1311 0.949 . S
H1288 C1292 0.949 . S
C1289 C1290 1.349 . S
C1289 C1291 1.327 . S
C1289 H1312 0.950 . S
C1290 C1289 1.349 . S
C1290 C1302 1.349 . S
C1291 C1289 1.327 . S
C1291 C1307 1.429 . S
C1291 H1313 0.950 . S
C1292 H1288 0.949 . S
C1292 C1300 1.574 . S
C1292 C1308 1.368 . S
H1293 C1301 0.950 . S
H1294 C1299 0.950 . S
H1295 C1300 0.949 . S
H1296 C1302 0.950 . S
H1297 C1303 0.950 . S
H1298 C1304 0.949 . S
C1299 H1294 0.950 . S
C1299 C1301 1.327 . S
C1299 C1305 1.429 . S
C1300 C1292 1.574 . S
C1300 H1295 0.949 . S
C1300 C1306 1.368 . S
C1301 C1285 1.349 . S
C1301 H1293 0.950 . S
C1301 C1299 1.327 . S
C1302 C1290 1.349 . S
C1302 H1296 0.950 . S
C1302 C1303 1.327 . S
C1303 H1297 0.950 . S
C1303 C1302 1.327 . S
C1303 C1307 1.429 . S
C1304 C1287 1.574 . S
C1304 H1298 0.949 . S
C1304 C1308 1.368 . S
C1305 C1286 1.429 . S
C1305 C1299 1.429 . S
C1305 C1306 1.523 . S
C1306 C1287 1.368 . S
C1306 C1300 1.368 . S
C1306 C1305 1.523 . S
C1307 C1291 1.429 . S
C1307 C1303 1.429 . S
C1307 C1308 1.523 . S
C1308 C1292 1.368 . S
C1308 C1304 1.368 . S
C1308 C1307 1.523 . S
H1309 C1284 0.950 . S
H1310 C1286 0.950 . S
H1311 C1287 0.949 . S
H1312 C1289 0.950 . S
H1313 C1291 0.950 . S
C235 C221 1.915 . S
C240 C0 1.915 . S
C265 C195 1.915 . S
C270 C13 1.915 . S
C295 C208 1.915 . S
C300 C26 1.915 . S
C325 C91 1.915 . S
C330 C39 1.915 . S
C355 C104 1.915 . S
C360 C52 1.915 . S
C385 C65 1.915 . S
C390 C78 1.915 . S
C415 C117 1.915 . S
C420 C169 1.915 . S
C445 C130 1.915 . S
C450 C182 1.915 . S
C475 C143 1.915 . S
C480 C156 1.915 . S
C505 C5 0.686 . S
C510 C226 0.686 . S
C535 C200 0.686 . S
C540 C18 0.686 . S
C565 C31 0.687 . S
C570 C213 0.687 . S
C595 C96 0.686 . S
C600 C44 0.686 . S
C625 C57 0.687 . S
C630 C109 0.687 . S
C655 C70 0.686 . S
C660 C83 0.686 . S
C685 C122 0.686 . S
C690 C174 0.686 . S
C715 C187 0.687 . S
C720 C135 0.687 . S
C745 C161 0.686 . S
C750 C148 0.686 . S
C775 C10 1.450 . S
C780 C49 1.450 . S
C805 C62 1.450 . S
C810 C23 1.450 . S
C835 C75 1.450 . S
C840 C36 1.450 . S
C865 C73 1.407 . S
C870 C21 1.407 . S
C895 C34 1.408 . S
C900 C47 1.408 . S
C925 C60 1.408 . S
C930 C8 1.408 . S
C955 C88 1.450 . S
C960 C127 1.450 . S
C985 C140 1.450 . S
C990 C101 1.450 . S
C1015 C153 1.450 . S
C1020 C114 1.450 . S
C1045 C151 1.407 . S
C1050 C99 1.407 . S
C1075 C112 1.408 . S
C1080 C125 1.408 . S
C1105 C138 1.408 . S
C1110 C86 1.408 . S
C1135 C205 1.450 . S
C1140 C166 1.450 . S
C1165 C218 1.450 . S
C1170 C179 1.450 . S
C1195 C192 1.450 . S
C1200 C231 1.450 . S
C1225 C229 1.407 . S
C1230 C177 1.407 . S
C1255 C190 1.408 . S
C1260 C203 1.408 . S
C1285 C216 1.408 . S
C1290 C164 1.408 . S
