# Generated by pormake.
# Topology vcc, (6)-cn, num edge types: 1
# Building blocks:
#     Node 0, Type 0, BuildingBlock: BETDEL_clean_sbu_0, # of connection points: 6
#     Node 1, Type 0, BuildingBlock: BETDEL_clean_sbu_0, # of connection points: 6
#     Node 2, Type 0, BuildingBlock: BETDEL_clean_sbu_0, # of connection points: 6
#     Node 3, Type 0, BuildingBlock: BETDEL_clean_sbu_0, # of connection points: 6
#     Node 4, Type 0, BuildingBlock: BETDEL_clean_sbu_0, # of connection points: 6
#     Node 5, Type 0, BuildingBlock: BETDEL_clean_sbu_0, # of connection points: 6
#     Node 6, Type 0, BuildingBlock: BETDEL_clean_sbu_0, # of connection points: 6
#     Node 7, Type 0, BuildingBlock: BETDEL_clean_sbu_0, # of connection points: 6
#     Node 8, Type 0, BuildingBlock: BETDEL_clean_sbu_0, # of connection points: 6
#     Node 9, Type 0, BuildingBlock: BETDEL_clean_sbu_0, # of connection points: 6
#     Node 10, Type 0, BuildingBlock: BETDEL_clean_sbu_0, # of connection points: 6
#     Node 11, Type 0, BuildingBlock: BETDEL_clean_sbu_0, # of connection points: 6
#     Node 12, Type 0, BuildingBlock: BETDEL_clean_sbu_0, # of connection points: 6
#     Node 13, Type 0, BuildingBlock: BETDEL_clean_sbu_0, # of connection points: 6
#     Node 14, Type 0, BuildingBlock: BETDEL_clean_sbu_0, # of connection points: 6
#     Node 15, Type 0, BuildingBlock: BETDEL_clean_sbu_0, # of connection points: 6
#     Node 16, Type 0, BuildingBlock: BETDEL_clean_sbu_0, # of connection points: 6
#     Node 17, Type 0, BuildingBlock: BETDEL_clean_sbu_0, # of connection points: 6
#     Node 18, Type 0, BuildingBlock: BETDEL_clean_sbu_0, # of connection points: 6
#     Node 19, Type 0, BuildingBlock: BETDEL_clean_sbu_0, # of connection points: 6
#     Node 20, Type 0, BuildingBlock: BETDEL_clean_sbu_0, # of connection points: 6
#     Node 21, Type 0, BuildingBlock: BETDEL_clean_sbu_0, # of connection points: 6
#     Node 22, Type 0, BuildingBlock: BETDEL_clean_sbu_0, # of connection points: 6
#     Node 23, Type 0, BuildingBlock: BETDEL_clean_sbu_0, # of connection points: 6
#     Node 24, Type 0, BuildingBlock: BETDEL_clean_sbu_0, # of connection points: 6
#     Node 25, Type 0, BuildingBlock: BETDEL_clean_sbu_0, # of connection points: 6
#     Node 26, Type 0, BuildingBlock: BETDEL_clean_sbu_0, # of connection points: 6
#     Node 27, Type 0, BuildingBlock: BETDEL_clean_sbu_0, # of connection points: 6
#     Node 28, Type 0, BuildingBlock: BETDEL_clean_sbu_0, # of connection points: 6
#     Node 29, Type 0, BuildingBlock: BETDEL_clean_sbu_0, # of connection points: 6
#     Node 30, Type 0, BuildingBlock: BETDEL_clean_sbu_0, # of connection points: 6
#     Node 31, Type 0, BuildingBlock: BETDEL_clean_sbu_0, # of connection points: 6
#     Edge 32, Type (0, 0), BuildingBlock: ZUJKAS_clean_linker_0, # of connection points: 2
#     Edge 33, Type (0, 0), BuildingBlock: ZUJKAS_clean_linker_0, # of connection points: 2
#     Edge 34, Type (0, 0), BuildingBlock: ZUJKAS_clean_linker_0, # of connection points: 2
#     Edge 35, Type (0, 0), BuildingBlock: ZUJKAS_clean_linker_0, # of connection points: 2
#     Edge 36, Type (0, 0), BuildingBlock: ZUJKAS_clean_linker_0, # of connection points: 2
#     Edge 37, Type (0, 0), BuildingBlock: ZUJKAS_clean_linker_0, # of connection points: 2
#     Edge 38, Type (0, 0), BuildingBlock: ZUJKAS_clean_linker_0, # of connection points: 2
#     Edge 39, Type (0, 0), BuildingBlock: ZUJKAS_clean_linker_0, # of connection points: 2
#     Edge 40, Type (0, 0), BuildingBlock: ZUJKAS_clean_linker_0, # of connection points: 2
#     Edge 41, Type (0, 0), BuildingBlock: ZUJKAS_clean_linker_0, # of connection points: 2
#     Edge 42, Type (0, 0), BuildingBlock: ZUJKAS_clean_linker_0, # of connection points: 2
#     Edge 43, Type (0, 0), BuildingBlock: ZUJKAS_clean_linker_0, # of connection points: 2
#     Edge 44, Type (0, 0), BuildingBlock: ZUJKAS_clean_linker_0, # of connection points: 2
#     Edge 45, Type (0, 0), BuildingBlock: ZUJKAS_clean_linker_0, # of connection points: 2
#     Edge 46, Type (0, 0), BuildingBlock: ZUJKAS_clean_linker_0, # of connection points: 2
#     Edge 47, Type (0, 0), BuildingBlock: ZUJKAS_clean_linker_0, # of connection points: 2
#     Edge 48, Type (0, 0), BuildingBlock: ZUJKAS_clean_linker_0, # of connection points: 2
#     Edge 49, Type (0, 0), BuildingBlock: ZUJKAS_clean_linker_0, # of connection points: 2
#     Edge 50, Type (0, 0), BuildingBlock: ZUJKAS_clean_linker_0, # of connection points: 2
#     Edge 51, Type (0, 0), BuildingBlock: ZUJKAS_clean_linker_0, # of connection points: 2
#     Edge 52, Type (0, 0), BuildingBlock: ZUJKAS_clean_linker_0, # of connection points: 2
#     Edge 53, Type (0, 0), BuildingBlock: ZUJKAS_clean_linker_0, # of connection points: 2
#     Edge 54, Type (0, 0), BuildingBlock: ZUJKAS_clean_linker_0, # of connection points: 2
#     Edge 55, Type (0, 0), BuildingBlock: ZUJKAS_clean_linker_0, # of connection points: 2
#     Edge 56, Type (0, 0), BuildingBlock: ZUJKAS_clean_linker_0, # of connection points: 2
#     Edge 57, Type (0, 0), BuildingBlock: ZUJKAS_clean_linker_0, # of connection points: 2
#     Edge 58, Type (0, 0), BuildingBlock: ZUJKAS_clean_linker_0, # of connection points: 2
#     Edge 59, Type (0, 0), BuildingBlock: ZUJKAS_clean_linker_0, # of connection points: 2
#     Edge 60, Type (0, 0), BuildingBlock: ZUJKAS_clean_linker_0, # of connection points: 2
#     Edge 61, Type (0, 0), BuildingBlock: ZUJKAS_clean_linker_0, # of connection points: 2
#     Edge 62, Type (0, 0), BuildingBlock: ZUJKAS_clean_linker_0, # of connection points: 2
#     Edge 63, Type (0, 0), BuildingBlock: ZUJKAS_clean_linker_0, # of connection points: 2
#     Edge 64, Type (0, 0), BuildingBlock: ZUJKAS_clean_linker_0, # of connection points: 2
#     Edge 65, Type (0, 0), BuildingBlock: ZUJKAS_clean_linker_0, # of connection points: 2
#     Edge 66, Type (0, 0), BuildingBlock: ZUJKAS_clean_linker_0, # of connection points: 2
#     Edge 67, Type (0, 0), BuildingBlock: ZUJKAS_clean_linker_0, # of connection points: 2
#     Edge 68, Type (0, 0), BuildingBlock: ZUJKAS_clean_linker_0, # of connection points: 2
#     Edge 69, Type (0, 0), BuildingBlock: ZUJKAS_clean_linker_0, # of connection points: 2
#     Edge 70, Type (0, 0), BuildingBlock: ZUJKAS_clean_linker_0, # of connection points: 2
#     Edge 71, Type (0, 0), BuildingBlock: ZUJKAS_clean_linker_0, # of connection points: 2
#     Edge 72, Type (0, 0), BuildingBlock: ZUJKAS_clean_linker_0, # of connection points: 2
#     Edge 73, Type (0, 0), BuildingBlock: ZUJKAS_clean_linker_0, # of connection points: 2
#     Edge 74, Type (0, 0), BuildingBlock: ZUJKAS_clean_linker_0, # of connection points: 2
#     Edge 75, Type (0, 0), BuildingBlock: ZUJKAS_clean_linker_0, # of connection points: 2
#     Edge 76, Type (0, 0), BuildingBlock: ZUJKAS_clean_linker_0, # of connection points: 2
#     Edge 77, Type (0, 0), BuildingBlock: ZUJKAS_clean_linker_0, # of connection points: 2
#     Edge 78, Type (0, 0), BuildingBlock: ZUJKAS_clean_linker_0, # of connection points: 2
#     Edge 79, Type (0, 0), BuildingBlock: ZUJKAS_clean_linker_0, # of connection points: 2
#     Edge 80, Type (0, 0), BuildingBlock: ZUJKAS_clean_linker_0, # of connection points: 2
#     Edge 81, Type (0, 0), BuildingBlock: ZUJKAS_clean_linker_0, # of connection points: 2
#     Edge 82, Type (0, 0), BuildingBlock: ZUJKAS_clean_linker_0, # of connection points: 2
#     Edge 83, Type (0, 0), BuildingBlock: ZUJKAS_clean_linker_0, # of connection points: 2
#     Edge 84, Type (0, 0), BuildingBlock: ZUJKAS_clean_linker_0, # of connection points: 2
#     Edge 85, Type (0, 0), BuildingBlock: ZUJKAS_clean_linker_0, # of connection points: 2
#     Edge 86, Type (0, 0), BuildingBlock: ZUJKAS_clean_linker_0, # of connection points: 2
#     Edge 87, Type (0, 0), BuildingBlock: ZUJKAS_clean_linker_0, # of connection points: 2
#     Edge 88, Type (0, 0), BuildingBlock: ZUJKAS_clean_linker_0, # of connection points: 2
#     Edge 89, Type (0, 0), BuildingBlock: ZUJKAS_clean_linker_0, # of connection points: 2
#     Edge 90, Type (0, 0), BuildingBlock: ZUJKAS_clean_linker_0, # of connection points: 2
#     Edge 91, Type (0, 0), BuildingBlock: ZUJKAS_clean_linker_0, # of connection points: 2
#     Edge 92, Type (0, 0), BuildingBlock: ZUJKAS_clean_linker_0, # of connection points: 2
#     Edge 93, Type (0, 0), BuildingBlock: ZUJKAS_clean_linker_0, # of connection points: 2
#     Edge 94, Type (0, 0), BuildingBlock: ZUJKAS_clean_linker_0, # of connection points: 2
#     Edge 95, Type (0, 0), BuildingBlock: ZUJKAS_clean_linker_0, # of connection points: 2
#     Edge 96, Type (0, 0), BuildingBlock: ZUJKAS_clean_linker_0, # of connection points: 2
#     Edge 97, Type (0, 0), BuildingBlock: ZUJKAS_clean_linker_0, # of connection points: 2
#     Edge 98, Type (0, 0), BuildingBlock: ZUJKAS_clean_linker_0, # of connection points: 2
#     Edge 99, Type (0, 0), BuildingBlock: ZUJKAS_clean_linker_0, # of connection points: 2
#     Edge 100, Type (0, 0), BuildingBlock: ZUJKAS_clean_linker_0, # of connection points: 2
#     Edge 101, Type (0, 0), BuildingBlock: ZUJKAS_clean_linker_0, # of connection points: 2
#     Edge 102, Type (0, 0), BuildingBlock: ZUJKAS_clean_linker_0, # of connection points: 2
#     Edge 103, Type (0, 0), BuildingBlock: ZUJKAS_clean_linker_0, # of connection points: 2
#     Edge 104, Type (0, 0), BuildingBlock: ZUJKAS_clean_linker_0, # of connection points: 2
#     Edge 105, Type (0, 0), BuildingBlock: ZUJKAS_clean_linker_0, # of connection points: 2
#     Edge 106, Type (0, 0), BuildingBlock: ZUJKAS_clean_linker_0, # of connection points: 2
#     Edge 107, Type (0, 0), BuildingBlock: ZUJKAS_clean_linker_0, # of connection points: 2
#     Edge 108, Type (0, 0), BuildingBlock: ZUJKAS_clean_linker_0, # of connection points: 2
#     Edge 109, Type (0, 0), BuildingBlock: ZUJKAS_clean_linker_0, # of connection points: 2
#     Edge 110, Type (0, 0), BuildingBlock: ZUJKAS_clean_linker_0, # of connection points: 2
#     Edge 111, Type (0, 0), BuildingBlock: ZUJKAS_clean_linker_0, # of connection points: 2
#     Edge 112, Type (0, 0), BuildingBlock: ZUJKAS_clean_linker_0, # of connection points: 2
#     Edge 113, Type (0, 0), BuildingBlock: ZUJKAS_clean_linker_0, # of connection points: 2
#     Edge 114, Type (0, 0), BuildingBlock: ZUJKAS_clean_linker_0, # of connection points: 2
#     Edge 115, Type (0, 0), BuildingBlock: ZUJKAS_clean_linker_0, # of connection points: 2
#     Edge 116, Type (0, 0), BuildingBlock: ZUJKAS_clean_linker_0, # of connection points: 2
#     Edge 117, Type (0, 0), BuildingBlock: ZUJKAS_clean_linker_0, # of connection points: 2
#     Edge 118, Type (0, 0), BuildingBlock: ZUJKAS_clean_linker_0, # of connection points: 2
#     Edge 119, Type (0, 0), BuildingBlock: ZUJKAS_clean_linker_0, # of connection points: 2
#     Edge 120, Type (0, 0), BuildingBlock: ZUJKAS_clean_linker_0, # of connection points: 2
#     Edge 121, Type (0, 0), BuildingBlock: ZUJKAS_clean_linker_0, # of connection points: 2
#     Edge 122, Type (0, 0), BuildingBlock: ZUJKAS_clean_linker_0, # of connection points: 2
#     Edge 123, Type (0, 0), BuildingBlock: ZUJKAS_clean_linker_0, # of connection points: 2
#     Edge 124, Type (0, 0), BuildingBlock: ZUJKAS_clean_linker_0, # of connection points: 2
#     Edge 125, Type (0, 0), BuildingBlock: ZUJKAS_clean_linker_0, # of connection points: 2
#     Edge 126, Type (0, 0), BuildingBlock: ZUJKAS_clean_linker_0, # of connection points: 2
#     Edge 127, Type (0, 0), BuildingBlock: ZUJKAS_clean_linker_0, # of connection points: 2
# Relax obj value: 0.066
# Max RMSD: 0.126
# Mean RMSD: 0.126
data_MOF--net-vcc--node1-BETDEL_clean_sbu_0--edge1-ZUJKAS_clean_linker_0
_symmetry_space_group_name_H-M    P1
_symmetry_Int_Tables_number       1
_symmetry_cell_setting            triclinic
loop_
_symmetry_equiv_pos_as_xyz
'x, y, z'
_cell_length_a     52.440265
_cell_length_b     71.922097
_cell_length_c     56.836071
_cell_angle_alpha  90.07835
_cell_angle_beta   90.004648
_cell_angle_gamma 89.954106
loop_
_atom_site_label
_atom_site_type_symbol
_atom_site_fract_x
_atom_site_fract_y
_atom_site_fract_z
_atom_type_partial_charge
Dy0 Dy 0.3398 0.02346 0.0538 0.0
C1 C 0.27789 1.02017 0.14045 0.0
C2 C 0.35367 1.01331 0.00926 0.0
Dy3 Dy 0.29984 1.02071 0.09668 0.0
O4 O 0.36765 0.02352 0.02329 0.0
O5 O 0.33309 1.00809 0.02014 0.0
O6 O 0.35018 0.05385 0.05803 0.0
O7 O 0.32322 0.04153 0.07977 0.0
C8 C 0.33438 0.0567 0.07544 0.0
C9 C 0.3053 0.99031 0.06897 0.0
O10 O 0.2744 0.03478 0.07088 0.0
O11 O 0.302 0.03153 0.03873 0.0
O12 O 0.28643 1.00581 0.1291 0.0
O13 O 0.2808 0.03501 0.12763 0.0
O14 O 0.28395 0.995 0.07911 0.0
O15 O 0.32225 1.00173 0.07504 0.0
O16 O 0.36601 1.01243 0.08146 0.0
O17 O 0.33853 1.01861 0.1132 0.0
C18 C 0.27996 0.03654 0.04824 0.0
C19 C 0.36091 1.01333 0.10438 0.0
Dy20 Dy 0.88275 0.27007 0.05634 0.0
C21 C 0.94825 0.26474 0.13973 0.0
C22 C 0.86254 0.27207 0.01182 0.0
Dy23 Dy 0.92422 0.27194 0.09807 0.0
O24 O 0.86774 0.25686 0.02316 0.0
O25 O 0.86707 0.2863 0.0254 0.0
O26 O 0.86532 0.24529 0.07403 0.0
O27 O 0.90468 0.25021 0.07778 0.0
C28 C 0.88633 0.24 0.08432 0.0
C29 C 0.91519 0.30599 0.07928 0.0
O30 O 0.94912 0.26107 0.06931 0.0
O31 O 0.92074 0.26747 0.03869 0.0
O32 O 0.95819 0.27392 0.12224 0.0
O33 O 0.92564 0.25883 0.13396 0.0
O34 O 0.93169 0.30306 0.09595 0.0
O35 O 0.90619 0.29043 0.07359 0.0
O36 O 0.85897 0.28406 0.08367 0.0
O37 O 0.88643 0.27725 0.11516 0.0
C38 C 0.94349 0.26236 0.04659 0.0
C39 C 0.86465 0.28375 0.10647 0.0
Dy40 Dy 0.3417 0.26844 0.21219 0.0
C41 C 0.27497 0.26099 0.12967 0.0
C42 C 0.36158 0.27433 0.25629 0.0
Dy43 Dy 0.29936 0.26895 0.17095 0.0
O44 O 0.36243 0.2587 0.24477 0.0
O45 O 0.35121 0.28699 0.24306 0.0
O46 O 0.35893 0.24289 0.19597 0.0
O47 O 0.31958 0.24806 0.19193 0.0
C48 C 0.3378 0.23752 0.18586 0.0
C49 C 0.30899 0.30356 0.18797 0.0
O50 O 0.27486 0.25842 0.20027 0.0
O51 O 0.30485 0.26229 0.23047 0.0
O52 O 0.2651 0.27039 0.14705 0.0
O53 O 0.29767 0.25525 0.1354 0.0
O54 O 0.29224 0.3002 0.17166 0.0
O55 O 0.31795 0.28812 0.19416 0.0
O56 O 0.36459 0.28152 0.18352 0.0
O57 O 0.3372 0.27223 0.15316 0.0
C58 C 0.2817 0.25798 0.22277 0.0
C59 C 0.35904 0.2794 0.16082 0.0
Dy60 Dy 0.88344 0.02485 0.21251 0.0
C61 C 0.94895 0.0335 0.12967 0.0
C62 C 0.86316 1.02162 0.25679 0.0
Dy63 Dy 0.924 0.02485 0.17027 0.0
O64 O 0.87046 0.03702 0.24698 0.0
O65 O 0.86574 1.00799 0.24188 0.0
O66 O 0.86561 0.05035 0.19679 0.0
O67 O 0.90489 0.04572 0.19223 0.0
C68 C 0.88641 0.05614 0.18663 0.0
C69 C 0.91522 0.98988 0.18638 0.0
O70 O 0.9488 0.03497 0.1995 0.0
O71 O 0.92179 0.0253 0.22974 0.0
O72 O 0.95871 0.02409 0.14705 0.0
O73 O 0.92593 0.03884 0.13499 0.0
O74 O 0.93098 0.99364 0.16941 0.0
O75 O 0.90664 1.00516 0.19369 0.0
O76 O 0.85936 1.01216 0.18447 0.0
O77 O 0.88588 1.02111 0.15323 0.0
C78 C 0.944 0.03163 0.22201 0.0
C79 C 0.86438 1.01397 0.16166 0.0
Dy80 Dy 0.66938 1.0201 0.91963 0.0
C81 C 0.60928 1.0225 1.00668 0.0
C82 C 0.69512 1.01188 0.87914 0.0
Dy83 Dy 0.62864 1.0195 0.96198 0.0
O84 O 0.70406 1.02188 0.89638 0.0
O85 O 0.67253 1.00574 0.88454 0.0
O86 O 0.67397 0.0516 0.91811 0.0
O87 O 0.65032 0.03944 0.94235 0.0
C88 C 0.65783 0.05492 0.93495 0.0
C89 C 0.63396 0.98793 0.93696 0.0
O90 O 0.60404 0.031 0.9335 0.0
O91 O 0.63072 1.02116 0.90282 0.0
O92 O 0.61679 1.00722 0.99664 0.0
O93 O 0.61094 0.03614 0.99169 0.0
O94 O 0.61273 0.99311 0.94695 0.0
O95 O 0.6517 0.9991 0.94233 0.0
O96 O 0.69515 1.0122 0.94931 0.0
O97 O 0.66691 1.02094 0.97902 0.0
C98 C 0.60877 0.02801 0.91081 0.0
C99 C 0.6898 1.01571 0.97171 0.0
Dy100 Dy 0.06094 0.77487 0.92321 0.0
C101 C 0.11295 0.76817 0.01268 0.0
C102 C 0.04198 0.7741 0.87839 0.0
Dy103 Dy 0.09599 0.77832 0.96903 0.0
O104 O 0.06018 0.76368 0.88642 0.0
O105 O 0.03389 0.78518 0.89497 0.0
O106 O 0.05009 0.74633 0.93592 0.0
O107 O 0.08644 0.75655 0.94341 0.0
C108 C 0.07154 0.74302 0.94658 0.0
C109 C 0.08279 0.81225 0.95191 0.0
O110 O 0.12578 0.77423 0.9414 0.0
O111 O 0.09942 0.78393 0.91054 0.0
O112 O 0.12264 0.7816 1.0001 0.0
O113 O 0.09509 0.7599 1.0008 0.0
O114 O 0.09739 0.81005 0.97025 0.0
O115 O 0.0763 0.79632 0.94516 0.0
O116 O 0.03144 0.78385 0.94919 0.0
O117 O 0.05588 0.77602 0.98204 0.0
C118 C 0.12222 0.77973 0.9193 0.0
C119 C 0.03403 0.78088 0.97208 0.0
Dy120 Dy 0.67325 0.77371 0.84541 0.0
C121 C 0.60885 0.77152 0.76095 0.0
C122 C 0.69852 0.78135 0.88632 0.0
Dy123 Dy 0.62999 0.77503 0.80495 0.0
O124 O 0.70793 0.77193 0.86874 0.0
O125 O 0.67578 0.78727 0.881 0.0
O126 O 0.68058 0.74255 0.84347 0.0
O127 O 0.65424 0.75501 0.82184 0.0
C128 C 0.66345 0.7395 0.82739 0.0
C129 C 0.63461 0.80534 0.83234 0.0
O130 O 0.60713 0.76194 0.83355 0.0
O131 O 0.636 0.76912 0.86384 0.0
O132 O 0.61212 0.78705 0.77227 0.0
O133 O 0.61572 0.75773 0.77436 0.0
O134 O 0.61322 0.80013 0.82262 0.0
O135 O 0.65265 0.79499 0.82537 0.0
O136 O 0.6971 0.78442 0.81577 0.0
O137 O 0.66698 0.7792 0.78612 0.0
C138 C 0.61364 0.76285 0.85615 0.0
C139 C 0.69014 0.78398 0.7933 0.0
Dy140 Dy 0.05586 1.02085 0.84908 0.0
C141 C 0.11191 0.02332 0.75965 0.0
C142 C 0.0315 1.01314 0.89033 0.0
Dy143 Dy 0.09414 1.02016 0.80482 0.0
O144 O 0.0216 1.02234 0.87284 0.0
O145 O 0.05433 1.00753 0.88481 0.0
O146 O 0.05178 0.05237 0.85118 0.0
O147 O 0.07416 0.04024 0.82589 0.0
C148 C 0.06716 0.05571 0.83379 0.0
C149 C 0.08917 0.98824 0.82916 0.0
O150 O 0.12064 0.03049 0.83263 0.0
O151 O 0.09534 1.0202 0.864 0.0
O152 O 0.10315 1.00825 0.76923 0.0
O153 O 0.11218 0.03664 0.77522 0.0
O154 O 0.10981 0.99299 0.81791 0.0
O155 O 0.07169 0.99995 0.82517 0.0
O156 O 0.02918 1.0123 0.82041 0.0
O157 O 0.05491 0.02309 0.78988 0.0
C158 C 0.11707 0.02681 0.85532 0.0
C159 C 0.03285 1.01691 0.79809 0.0
Dy160 Dy 0.34171 0.52475 0.55357 0.0
C161 C 0.27395 0.53173 0.63536 0.0
C162 C 0.36266 0.51968 0.50977 0.0
Dy163 Dy 0.29876 0.52384 0.59425 0.0
O164 O 0.36202 0.53534 0.52124 0.0
O165 O 0.35316 0.50661 0.52288 0.0
O166 O 0.35867 0.55002 0.57052 0.0
O167 O 0.31918 0.54497 0.5738 0.0
C168 C 0.33738 0.55536 0.58034 0.0
C169 C 0.30908 0.48936 0.57701 0.0
O170 O 0.27463 0.53445 0.56467 0.0
O171 O 0.30494 0.5303 0.53484 0.0
O172 O 0.26437 0.52215 0.618 0.0
O173 O 0.29657 0.53764 0.6297 0.0
O174 O 0.29207 0.4925 0.59317 0.0
O175 O 0.31789 0.50489 0.57109 0.0
O176 O 0.36453 0.51185 0.58243 0.0
O177 O 0.33632 0.52052 0.61249 0.0
C178 C 0.28169 0.53471 0.54221 0.0
C179 C 0.3585 0.51374 0.60505 0.0
Dy180 Dy 0.8851 0.76679 0.55605 0.0
C181 C 0.94773 0.75827 0.64137 0.0
C182 C 0.87129 0.77526 0.51076 0.0
Dy183 Dy 0.9243 0.76658 0.59983 0.0
O184 O 0.85939 0.76338 0.52418 0.0
O185 O 0.88972 0.7829 0.52254 0.0
O186 O 0.86563 0.74132 0.57019 0.0
O187 O 0.9043 0.74605 0.57804 0.0
C188 C 0.88527 0.73583 0.58253 0.0
C189 C 0.91694 0.80135 0.58235 0.0
O190 O 0.95014 0.75508 0.57193 0.0
O191 O 0.92124 0.75575 0.54044 0.0
O192 O 0.9244 0.75384 0.63595 0.0
O193 O 0.95855 0.76665 0.62369 0.0
O194 O 0.93211 0.79777 0.59985 0.0
O195 O 0.90835 0.78601 0.5754 0.0
O196 O 0.86193 0.7817 0.58318 0.0
O197 O 0.88565 0.77105 0.61542 0.0
C198 C 0.94411 0.75235 0.54949 0.0
C199 C 0.8654 0.77946 0.6062 0.0
Dy200 Dy 0.34297 0.76878 0.71255 0.0
C201 C 0.2794 0.76103 0.62807 0.0
C202 C 0.36209 0.77399 0.75702 0.0
Dy203 Dy 0.30371 0.76933 0.66925 0.0
O204 O 0.3633 0.75857 0.74511 0.0
O205 O 0.35166 0.78676 0.74408 0.0
O206 O 0.35978 0.74255 0.6979 0.0
O207 O 0.32079 0.7483 0.69228 0.0
C208 C 0.33888 0.73724 0.68743 0.0
C209 C 0.31529 0.80432 0.68387 0.0
O210 O 0.27635 0.76195 0.698 0.0
O211 O 0.30497 0.76479 0.72946 0.0
O212 O 0.27009 0.77141 0.64478 0.0
O213 O 0.30154 0.75454 0.63439 0.0
O214 O 0.3001 0.80074 0.6664 0.0
O215 O 0.32207 0.78891 0.69225 0.0
O216 O 0.36776 0.78103 0.68474 0.0
O217 O 0.34292 0.76975 0.65359 0.0
C218 C 0.28187 0.76183 0.7208 0.0
C219 C 0.36417 0.77727 0.66208 0.0
Dy220 Dy 0.87821 0.52176 0.71192 0.0
C221 C 0.94252 0.52854 0.62807 0.0
C222 C 0.85849 0.51986 0.75651 0.0
Dy223 Dy 0.91859 0.52039 0.66941 0.0
O224 O 0.86594 0.5349 0.74597 0.0
O225 O 0.86055 0.50581 0.74213 0.0
O226 O 0.86094 0.54723 0.69571 0.0
O227 O 0.90001 0.54187 0.69081 0.0
C228 C 0.88174 0.55248 0.6851 0.0
C229 C 0.9089 0.48593 0.68664 0.0
O230 O 0.94424 0.53006 0.69833 0.0
O231 O 0.91657 0.5225 0.72901 0.0
O232 O 0.95247 0.51887 0.64514 0.0
O233 O 0.91993 0.53437 0.63409 0.0
O234 O 0.92455 0.48908 0.66936 0.0
O235 O 0.90091 0.50148 0.69359 0.0
O236 O 0.85341 0.50895 0.68448 0.0
O237 O 0.8803 0.51635 0.65278 0.0
C238 C 0.93914 0.52789 0.72105 0.0
C239 C 0.85855 0.50996 0.66163 0.0
Dy240 Dy 0.67165 0.52644 0.41574 0.0
C241 C 0.61959 0.52775 0.50717 0.0
C242 C 0.69441 0.51868 0.37364 0.0
Dy243 Dy 0.63589 0.52578 0.46147 0.0
O244 O 0.6714 0.51382 0.37952 0.0
O245 O 0.70533 0.52723 0.39114 0.0
O246 O 0.67541 0.5579 0.41311 0.0
O247 O 0.65397 0.54599 0.43926 0.0
C248 C 0.66075 0.56136 0.43099 0.0
C249 C 0.64058 0.49346 0.43778 0.0
O250 O 0.60759 0.53526 0.43477 0.0
O251 O 0.63145 0.52453 0.40264 0.0
O252 O 0.63026 0.51348 0.49726 0.0
O253 O 0.61689 0.54105 0.49176 0.0
O254 O 0.62048 0.49822 0.4498 0.0
O255 O 0.65797 0.50545 0.44063 0.0
O256 O 0.69991 0.51885 0.44358 0.0
O257 O 0.67553 0.53038 0.47458 0.0
C258 C 0.61002 0.53095 0.41214 0.0
C259 C 0.69733 0.52413 0.46583 0.0
Dy260 Dy 0.05217 0.27701 0.42197 0.0
C261 C 0.11172 0.27557 0.50955 0.0
C262 C 0.02772 0.28481 0.38065 0.0
Dy263 Dy 0.09232 0.27801 0.46481 0.0
O264 O 0.01813 0.27512 0.39786 0.0
O265 O 0.05019 0.29091 0.38655 0.0
O266 O 0.04715 0.24556 0.42105 0.0
O267 O 0.07079 0.25785 0.44526 0.0
C268 C 0.06307 0.24234 0.43808 0.0
C269 C 0.08768 0.30922 0.43909 0.0
O270 O 0.11736 0.26627 0.43676 0.0
O271 O 0.09105 0.27574 0.40568 0.0
O272 O 0.10383 0.29068 0.49941 0.0
O273 O 0.11029 0.26178 0.49471 0.0
O274 O 0.10871 0.30411 0.44945 0.0
O275 O 0.06977 0.29821 0.44447 0.0
O276 O 0.02619 0.28576 0.45115 0.0
O277 O 0.05376 0.27717 0.48146 0.0
C278 C 0.11294 0.2691 0.41399 0.0
C279 C 0.03112 0.28262 0.47372 0.0
Dy280 Dy 0.67178 0.27921 0.34869 0.0
C281 C 0.61669 0.27675 0.25838 0.0
C282 C 0.69541 0.28617 0.39068 0.0
Dy283 Dy 0.63449 0.28005 0.30358 0.0
O284 O 0.70576 0.27754 0.37292 0.0
O285 O 0.67259 0.29169 0.38502 0.0
O286 O 0.67527 0.24767 0.35083 0.0
O287 O 0.6535 0.25996 0.32527 0.0
C288 C 0.66023 0.24446 0.33316 0.0
C289 C 0.63957 0.31217 0.32747 0.0
O290 O 0.60709 0.27062 0.33117 0.0
O291 O 0.63203 0.28087 0.36284 0.0
O292 O 0.62661 0.2916 0.2676 0.0
O293 O 0.6155 0.2637 0.27424 0.0
O294 O 0.61929 0.30758 0.31559 0.0
O295 O 0.65695 0.3002 0.32426 0.0
O296 O 0.69942 0.2869 0.32036 0.0
O297 O 0.67392 0.27659 0.28935 0.0
C298 C 0.61026 0.27461 0.35385 0.0
C299 C 0.69607 0.28233 0.29792 0.0
Dy300 Dy 0.04779 0.52129 0.34601 0.0
C301 C 0.10474 0.52945 0.25888 0.0
C302 C 0.0239 0.51306 0.38735 0.0
Dy303 Dy 0.08911 0.52122 0.3037 0.0
O304 O 0.01374 0.52242 0.37011 0.0
O305 O 0.0467 0.50758 0.38151 0.0
O306 O 0.04036 0.5526 0.34536 0.0
O307 O 0.0651 0.54042 0.32212 0.0
C308 C 0.05646 0.55589 0.32849 0.0
C309 C 0.08729 0.49048 0.33049 0.0
O310 O 0.11142 0.53581 0.33169 0.0
O311 O 0.08589 0.52557 0.36292 0.0
O312 O 0.11489 0.51663 0.27214 0.0
O313 O 0.08721 0.53817 0.27065 0.0
O314 O 0.1077 0.49584 0.31916 0.0
O315 O 0.06862 0.50074 0.32491 0.0
O316 O 0.02305 0.50984 0.31725 0.0
O317 O 0.05326 0.51077 0.28683 0.0
C318 C 0.10684 0.5336 0.35456 0.0
C319 C 0.02999 0.50732 0.29496 0.0
Dy320 Dy 0.8436 1.02221 0.55457 0.0
C321 C 0.78136 0.0293 0.64023 0.0
C322 C 0.8616 1.02001 0.50935 0.0
Dy323 Dy 0.80618 1.02143 0.59912 0.0
O324 O 0.85242 0.03479 0.51939 0.0
O325 O 0.86204 1.00639 0.52447 0.0
O326 O 0.85889 0.04945 0.56751 0.0
O327 O 0.82072 0.04251 0.57477 0.0
C328 C 0.83816 0.05435 0.57848 0.0
C329 C 0.81883 0.98646 0.58495 0.0
O330 O 0.77836 0.02806 0.57049 0.0
O331 O 0.80457 1.01825 0.53977 0.0
O332 O 0.77207 1.01941 0.62304 0.0
O333 O 0.80381 0.03551 0.63447 0.0
O334 O 0.80406 0.98996 0.60274 0.0
O335 O 0.82485 1.00187 0.57619 0.0
O336 O 0.87071 1.01233 0.58211 0.0
O337 O 0.84585 0.02321 0.61352 0.0
C338 C 0.78211 0.02347 0.54814 0.0
C339 C 0.86751 1.01659 0.60469 0.0
Dy340 Dy 0.37968 0.26833 0.55411 0.0
C341 C 0.44593 0.26228 0.63517 0.0
C342 C 0.35993 0.27202 0.50954 0.0
Dy343 Dy 0.41745 0.26877 0.59572 0.0
O344 O 0.3653 0.25646 0.51995 0.0
O345 O 0.36398 0.2857 0.52409 0.0
O346 O 0.36058 0.24321 0.56965 0.0
O347 O 0.40004 0.247 0.5744 0.0
C348 C 0.38118 0.23685 0.57961 0.0
C349 C 0.40098 0.30263 0.5825 0.0
O350 O 0.44571 0.26188 0.56748 0.0
O351 O 0.41677 0.26285 0.53635 0.0
O352 O 0.45147 0.27441 0.61895 0.0
O353 O 0.42555 0.25315 0.62915 0.0
O354 O 0.40775 0.29835 0.60372 0.0
O355 O 0.40573 0.28914 0.56882 0.0
O356 O 0.35463 0.28025 0.58214 0.0
O357 O 0.37884 0.26744 0.6122 0.0
C358 C 0.44001 0.26038 0.54483 0.0
C359 C 0.35793 0.27588 0.60461 0.0
Dy360 Dy 0.8405 0.26618 0.71375 0.0
C361 C 0.77437 0.26055 0.63067 0.0
C362 C 0.86068 0.26902 0.75827 0.0
Dy363 Dy 0.7986 0.26772 0.67224 0.0
O364 O 0.8561 0.25359 0.74714 0.0
O365 O 0.85561 0.28295 0.74446 0.0
O366 O 0.85827 0.24138 0.69621 0.0
O367 O 0.81892 0.24626 0.6922 0.0
C368 C 0.83736 0.23609 0.68569 0.0
C369 C 0.80744 0.30193 0.69079 0.0
O370 O 0.77408 0.25636 0.701 0.0
O371 O 0.80304 0.26175 0.73159 0.0
O372 O 0.7643 0.26937 0.64844 0.0
O373 O 0.79721 0.25495 0.63613 0.0
O374 O 0.79111 0.29881 0.67404 0.0
O375 O 0.81639 0.2864 0.69678 0.0
O376 O 0.86383 0.28013 0.6861 0.0
O377 O 0.83624 0.27284 0.65488 0.0
C378 C 0.78035 0.25658 0.72364 0.0
C379 C 0.858 0.27956 0.66333 0.0
Dy380 Dy 0.383 0.02315 0.71095 0.0
C381 C 0.44776 0.03267 0.62736 0.0
C382 C 0.36699 1.0149 0.75567 0.0
Dy383 Dy 0.42423 0.02381 0.66865 0.0
O384 O 0.35688 0.02765 0.74229 0.0
O385 O 0.38481 1.00631 0.74413 0.0
O386 O 0.36338 0.04802 0.69536 0.0
O387 O 0.40272 0.04405 0.68967 0.0
C388 C 0.38358 0.05382 0.68409 0.0
C389 C 0.41668 0.98902 0.68585 0.0
O390 O 0.4488 0.03522 0.69752 0.0
O391 O 0.41856 0.03405 0.7279 0.0
O392 O 0.45828 0.02343 0.64453 0.0
O393 O 0.42479 0.03771 0.63326 0.0
O394 O 0.43259 0.99268 0.66894 0.0
O395 O 0.40764 1.00431 0.69252 0.0
O396 O 0.36107 1.00805 0.68312 0.0
O397 O 0.38655 1.01814 0.65167 0.0
C398 C 0.44179 0.03765 0.71979 0.0
C399 C 0.36591 1.00984 0.66025 0.0
Dy400 Dy 0.16917 1.02106 0.42125 0.0
C401 C 0.1117 0.027 0.50757 0.0
C402 C 0.19745 1.0128 0.38222 0.0
Dy403 Dy 0.13207 1.02264 0.46342 0.0
O404 O 0.20343 0.02529 0.39789 0.0
O405 O 0.17664 1.00433 0.38851 0.0
O406 O 0.16054 0.05067 0.41215 0.0
O407 O 0.1586 0.04239 0.4474 0.0
C408 C 0.15427 0.05561 0.43329 0.0
C409 C 0.1328 0.99025 0.43947 0.0
O410 O 0.10738 0.03446 0.43515 0.0
O411 O 0.13014 1.01958 0.40555 0.0
O412 O 0.11803 1.01132 0.4979 0.0
O413 O 0.11539 0.04043 0.49261 0.0
O414 O 0.11242 0.99715 0.44917 0.0
O415 O 0.15178 1.0004 0.44412 0.0
O416 O 0.19728 1.01426 0.44964 0.0
O417 O 0.16976 1.01966 0.48107 0.0
C418 C 0.10981 0.02879 0.41307 0.0
C419 C 0.19255 1.01555 0.47252 0.0
Dy420 Dy 0.55218 0.78165 0.41793 0.0
C421 C 0.6079 0.77768 0.50781 0.0
C422 C 0.52767 0.7894 0.37666 0.0
Dy423 Dy 0.59029 0.78144 0.46257 0.0
O424 O 0.51786 0.78024 0.39421 0.0
O425 O 0.55049 0.79504 0.38216 0.0
O426 O 0.54745 0.75018 0.41562 0.0
O427 O 0.57015 0.76193 0.4409 0.0
C428 C 0.56273 0.7466 0.43299 0.0
C429 C 0.58594 0.81364 0.43883 0.0
O430 O 0.617 0.77172 0.43443 0.0
O431 O 0.59172 0.78244 0.40318 0.0
O432 O 0.60018 0.79303 0.49815 0.0
O433 O 0.60717 0.76432 0.49228 0.0
O434 O 0.60641 0.80858 0.45013 0.0
O435 O 0.56822 0.80206 0.44246 0.0
O436 O 0.52544 0.79029 0.44648 0.0
O437 O 0.55078 0.77922 0.4772 0.0
C438 C 0.61353 0.77592 0.41184 0.0
C439 C 0.52885 0.78555 0.4688 0.0
Dy440 Dy 0.16789 0.77532 0.34986 0.0
C441 C 0.10858 0.77056 0.26507 0.0
C442 C 0.19765 0.78158 0.38849 0.0
Dy443 Dy 0.12924 0.77561 0.30901 0.0
O444 O 0.20281 0.76971 0.37183 0.0
O445 O 0.17687 0.7906 0.38338 0.0
O446 O 0.15926 0.74553 0.35746 0.0
O447 O 0.15622 0.75507 0.32277 0.0
C448 C 0.15224 0.74137 0.33627 0.0
C449 C 0.13034 0.80685 0.3351 0.0
O450 O 0.10534 0.76304 0.33731 0.0
O451 O 0.12968 0.77603 0.36718 0.0
O452 O 0.11178 0.78646 0.27548 0.0
O453 O 0.11533 0.7573 0.2793 0.0
O454 O 0.1097 0.80032 0.32535 0.0
O455 O 0.14933 0.79702 0.32929 0.0
O456 O 0.19516 0.78312 0.32124 0.0
O457 O 0.16543 0.78284 0.29072 0.0
C458 C 0.1089 0.76735 0.35977 0.0
C459 C 0.18883 0.7853 0.29883 0.0
Dy460 Dy 0.55296 0.02564 0.34558 0.0
C461 C 0.61506 0.02829 0.25953 0.0
C462 C 0.52841 1.0173 0.38655 0.0
Dy463 Dy 0.59494 0.02491 0.30388 0.0
O464 O 0.51855 0.02677 0.36925 0.0
O465 O 0.55125 1.01176 0.38095 0.0
O466 O 0.54528 0.05677 0.34439 0.0
O467 O 0.57141 0.04461 0.32218 0.0
C468 C 0.56201 0.05999 0.32802 0.0
C469 C 0.59029 0.99394 0.33 0.0
O470 O 0.61889 0.03726 0.33228 0.0
O471 O 0.59081 0.02983 0.3631 0.0
O472 O 0.61047 1.01273 0.27032 0.0
O473 O 0.61002 0.04213 0.27361 0.0
O474 O 0.61146 0.99901 0.31983 0.0
O475 O 0.57242 1.00476 0.32404 0.0
O476 O 0.52854 1.01549 0.31608 0.0
O477 O 0.55701 0.02329 0.28605 0.0
C478 C 0.61301 0.03606 0.355 0.0
C479 C 0.53425 1.01784 0.29352 0.0
Dy480 Dy 0.8462 0.52575 0.05264 0.0
C481 C 0.77845 0.53409 0.13422 0.0
C482 C 0.86657 0.51988 0.00881 0.0
Dy483 Dy 0.80373 0.52556 0.09367 0.0
O484 O 0.86648 0.53566 0.02 0.0
O485 O 0.85687 0.50708 0.02224 0.0
O486 O 0.86362 0.55122 0.06881 0.0
O487 O 0.82422 0.5463 0.07276 0.0
C488 C 0.84253 0.55674 0.07886 0.0
C489 C 0.81331 0.49083 0.07692 0.0
O490 O 0.77965 0.53631 0.06417 0.0
O491 O 0.80948 0.53167 0.03405 0.0
O492 O 0.80155 0.5393 0.12912 0.0
O493 O 0.76877 0.52479 0.11668 0.0
O494 O 0.79661 0.49428 0.09325 0.0
O495 O 0.82218 0.50623 0.07057 0.0
O496 O 0.86878 0.51266 0.08146 0.0
O497 O 0.84147 0.52237 0.1117 0.0
C498 C 0.78646 0.53643 0.04166 0.0
C499 C 0.86328 0.51507 0.10411 0.0
Dy500 Dy 0.37658 0.76788 0.05414 0.0
C501 C 0.44171 0.76509 0.1383 0.0
C502 C 0.3572 0.76892 0.00939 0.0
Dy503 Dy 0.41563 0.77097 0.09733 0.0
O504 O 0.36756 0.75458 0.01939 0.0
O505 O 0.35625 0.78266 0.02434 0.0
O506 O 0.36265 0.74086 0.06862 0.0
O507 O 0.40082 0.74868 0.07467 0.0
C508 C 0.38382 0.73672 0.0794 0.0
C509 C 0.40094 0.8051 0.08167 0.0
O510 O 0.44271 0.76372 0.06832 0.0
O511 O 0.41499 0.77151 0.03785 0.0
O512 O 0.4502 0.77457 0.12044 0.0
O513 O 0.41943 0.75818 0.13329 0.0
O514 O 0.41676 0.80263 0.09896 0.0
O515 O 0.39526 0.78925 0.07408 0.0
O516 O 0.34998 0.77776 0.08213 0.0
O517 O 0.37669 0.76896 0.11322 0.0
C518 C 0.43794 0.76701 0.04577 0.0
C519 C 0.35429 0.77451 0.10481 0.0
Dy520 Dy 0.84293 0.76972 0.21211 0.0
C521 C 0.78039 0.76208 0.12649 0.0
C522 C 0.85898 0.77788 0.25689 0.0
Dy523 Dy 0.80425 0.76995 0.1681 0.0
O524 O 0.86906 0.76518 0.24339 0.0
O525 O 0.84116 0.78652 0.24542 0.0
O526 O 0.85967 0.74274 0.1997 0.0
O527 O 0.82149 0.74913 0.19144 0.0
C528 C 0.83955 0.73778 0.18772 0.0
C529 C 0.81556 0.80497 0.18311 0.0
O530 O 0.7768 0.76169 0.19654 0.0
O531 O 0.80533 0.76256 0.22829 0.0
O532 O 0.77046 0.77161 0.14369 0.0
O533 O 0.80293 0.75618 0.1325 0.0
O534 O 0.80032 0.80148 0.16566 0.0
O535 O 0.82247 0.78953 0.19115 0.0
O536 O 0.86745 0.78226 0.18404 0.0
O537 O 0.8436 0.76983 0.15301 0.0
C538 C 0.78222 0.76013 0.21931 0.0
C539 C 0.86451 0.77781 0.16147 0.0
Dy540 Dy 0.37938 0.52449 0.21201 0.0
C541 C 0.44384 0.53216 0.12822 0.0
C542 C 0.36054 0.52229 0.25693 0.0
Dy543 Dy 0.41936 0.52382 0.16923 0.0
O544 O 0.36905 0.53721 0.24682 0.0
O545 O 0.36103 0.50853 0.24196 0.0
O546 O 0.36361 0.5512 0.19768 0.0
O547 O 0.40231 0.54483 0.19228 0.0
C548 C 0.3847 0.55624 0.1874 0.0
C549 C 0.40863 0.48897 0.18475 0.0
O550 O 0.44495 0.53271 0.19856 0.0
O551 O 0.41807 0.52212 0.22835 0.0
O552 O 0.4536 0.52248 0.14536 0.0
O553 O 0.42115 0.5379 0.13399 0.0
O554 O 0.42478 0.49241 0.16798 0.0
O555 O 0.40059 0.50438 0.19204 0.0
O556 O 0.35404 0.51335 0.18375 0.0
O557 O 0.38052 0.52298 0.15291 0.0
C558 C 0.44041 0.52835 0.22083 0.0
C559 C 0.35858 0.5163 0.16102 0.0
Dy560 Dy 0.17259 0.52164 0.91855 0.0
C561 C 0.11357 0.52913 1.00476 0.0
C562 C 0.19624 0.51371 0.8769 0.0
Dy563 Dy 0.13029 0.52111 0.96019 0.0
O564 O 0.2064 0.52312 0.89413 0.0
O565 O 0.17365 0.50795 0.88296 0.0
O566 O 0.1805 0.55287 0.9206 0.0
O567 O 0.15452 0.5404 0.94239 0.0
C568 C 0.16372 0.5559 0.93702 0.0
C569 C 0.1329 0.4906 0.93299 0.0
O570 O 0.10786 0.53541 0.93211 0.0
O571 O 0.13506 0.527 0.90103 0.0
O572 O 0.10506 0.51549 0.9918 0.0
O573 O 0.13001 0.53874 0.9928 0.0
O574 O 0.11223 0.49587 0.94402 0.0
O575 O 0.15145 0.50084 0.93901 0.0
O576 O 0.19696 0.51033 0.94764 0.0
O577 O 0.16614 0.51121 0.97759 0.0
C578 C 0.11351 0.53422 0.90934 0.0
C579 C 0.18963 0.50794 0.96985 0.0
Dy580 Dy 0.54703 0.27371 0.91879 0.0
C581 C 0.60734 0.2686 1.00559 0.0
C582 C 0.52422 0.28118 0.87659 0.0
Dy583 Dy 0.58819 0.27396 0.96116 0.0
O584 O 0.51331 0.27269 0.89415 0.0
O585 O 0.54713 0.28624 0.88257 0.0
O586 O 0.53867 0.24262 0.9202 0.0
O587 O 0.56397 0.25465 0.9431 0.0
C588 C 0.55477 0.23927 0.93705 0.0
C589 C 0.58669 0.30451 0.93398 0.0
O590 O 0.61122 0.25973 0.93348 0.0
O591 O 0.58518 0.26899 0.90212 0.0
O592 O 0.60888 0.28395 0.9936 0.0
O593 O 0.59652 0.25589 0.99274 0.0
O594 O 0.60705 0.29882 0.94507 0.0
O595 O 0.56775 0.29452 0.93965 0.0
O596 O 0.52226 0.28543 0.94734 0.0
O597 O 0.55118 0.28126 0.97838 0.0
C598 C 0.60637 0.26138 0.9106 0.0
C599 C 0.52849 0.28607 0.97001 0.0
Dy600 Dy 0.17422 0.27506 0.84727 0.0
C601 C 0.11081 0.27034 0.76257 0.0
C602 C 0.19826 0.28313 0.88866 0.0
Dy603 Dy 0.13108 0.27528 0.80666 0.0
O604 O 0.2085 0.27407 0.87117 0.0
O605 O 0.17536 0.28849 0.88299 0.0
O606 O 0.18358 0.24418 0.84475 0.0
O607 O 0.15675 0.25607 0.82316 0.0
C608 C 0.16676 0.24078 0.82849 0.0
C609 C 0.13336 0.3054 0.83464 0.0
O610 O 0.10934 0.26059 0.83478 0.0
O611 O 0.13736 0.26855 0.86539 0.0
O612 O 0.11075 0.28586 0.77436 0.0
O613 O 0.12058 0.25726 0.77554 0.0
O614 O 0.1124 0.29948 0.82471 0.0
O615 O 0.15212 0.29579 0.82761 0.0
O616 O 0.19763 0.28694 0.81809 0.0
O617 O 0.16734 0.28277 0.78818 0.0
C618 C 0.11572 0.26126 0.85741 0.0
C619 C 0.19037 0.28762 0.79571 0.0
Dy620 Dy 0.5519 0.5205 0.84698 0.0
C621 C 0.61086 0.52636 0.75983 0.0
C622 C 0.52783 0.51362 0.88871 0.0
Dy623 Dy 0.59177 0.51952 0.8039 0.0
O624 O 0.51733 0.52167 0.87061 0.0
O625 O 0.55105 0.50878 0.88358 0.0
O626 O 0.546 0.55192 0.84714 0.0
O627 O 0.56993 0.53953 0.82334 0.0
C628 C 0.56194 0.55507 0.83014 0.0
C629 C 0.58839 0.48816 0.82951 0.0
O630 O 0.61638 0.5318 0.8319 0.0
O631 O 0.59075 0.52193 0.86316 0.0
O632 O 0.6131 0.51076 0.77119 0.0
O633 O 0.59924 0.53843 0.77305 0.0
O634 O 0.6087 0.49315 0.81784 0.0
O635 O 0.57018 0.49919 0.8249 0.0
O636 O 0.52578 0.51041 0.81847 0.0
O637 O 0.55414 0.51385 0.7869 0.0
C638 C 0.61228 0.52902 0.8547 0.0
C639 C 0.53131 0.50994 0.79565 0.0
H640 H 0.4131 0.83875 0.09971 0.0
H641 H 0.39299 0.86877 0.09205 0.0
H642 H 0.34267 0.84302 0.0417 0.0
H643 H 0.36278 0.81266 0.04953 0.0
H644 H 0.36708 0.87962 0.02777 0.0
H645 H 0.31815 0.88113 0.11433 0.0
H646 H 0.35155 0.87557 0.11559 0.0
H647 H 0.3299 0.8599 0.10119 0.0
C648 C 0.39785 0.83944 0.08688 0.0
C649 C 0.38952 0.8233 0.07521 0.0
C650 C 0.38633 0.85663 0.08257 0.0
C651 C 0.36615 0.85815 0.06649 0.0
C652 C 0.35818 0.84217 0.05423 0.0
H653 H 0.27367 0.95996 0.0689 0.0
H654 H 0.28603 0.92724 0.06459 0.0
C655 C 0.3697 0.82484 0.05866 0.0
C656 C 0.35326 0.87643 0.06318 0.0
H657 H 0.31982 0.90965 0.09323 0.0
C658 C 0.35647 0.88612 0.04195 0.0
C659 C 0.33917 0.88484 0.08157 0.0
C660 C 0.33423 0.8748 0.10441 0.0
C661 C 0.34688 0.9043 0.03903 0.0
C662 C 0.33396 0.9131 0.05792 0.0
C663 C 0.32982 0.90304 0.07875 0.0
C664 C 0.32571 0.93299 0.05711 0.0
C665 C 0.35077 0.91395 0.01576 0.0
C666 C 0.34372 0.94722 0.05391 0.0
C667 C 0.33668 0.96594 0.05631 0.0
C668 C 0.31148 0.97085 0.06215 0.0
C669 C 0.29321 0.95666 0.06431 0.0
C670 C 0.30028 0.93793 0.06194 0.0
H671 H 0.35344 0.90376 1.00125 0.0
H672 H 0.33436 0.92309 0.01143 0.0
H673 H 0.36819 0.92266 0.01675 0.0
H674 H 0.36354 0.94386 0.05065 0.0
H675 H 0.35125 0.97652 0.05466 0.0
H676 H 0.79075 0.45805 0.08736 0.0
H677 H 0.80804 0.42668 0.08258 0.0
H678 H 0.87484 0.44925 0.04896 0.0
H679 H 0.85757 0.48083 0.05385 0.0
H680 H 0.85294 0.41419 0.02776 0.0
H681 H 0.87033 0.4104 0.12408 0.0
H682 H 0.83858 0.41708 0.11567 0.0
H683 H 0.86492 0.43212 0.10899 0.0
C684 C 0.80896 0.45634 0.07862 0.0
C685 C 0.82275 0.47194 0.07089 0.0
C686 C 0.81884 0.43839 0.07595 0.0
C687 C 0.84283 0.43559 0.0656 0.0
C688 C 0.85624 0.45106 0.05694 0.0
H689 H 0.93785 0.33889 0.0887 0.0
H690 H 0.9209 0.37014 0.08268 0.0
C691 C 0.84631 0.46911 0.05962 0.0
C692 C 0.85447 0.41667 0.06547 0.0
H693 H 0.87668 0.3828 0.10229 0.0
C694 C 0.85822 0.40731 0.04402 0.0
C695 C 0.86155 0.40776 0.08667 0.0
C696 C 0.85888 0.41735 0.11018 0.0
C697 C 0.86851 0.38917 0.04329 0.0
C698 C 0.87505 0.38012 0.06458 0.0
C699 C 0.87155 0.38963 0.08595 0.0
C700 C 0.88635 0.36105 0.06537 0.0
C701 C 0.87271 0.37997 0.01976 0.0
C702 C 0.87284 0.34537 0.05727 0.0
C703 C 0.88265 0.32735 0.06061 0.0
C704 C 0.90604 0.32472 0.07225 0.0
C705 C 0.91981 0.34044 0.07962 0.0
C706 C 0.9101 0.35835 0.07623 0.0
H707 H 0.87244 0.39021 1.00514 0.0
H708 H 0.89118 0.37242 0.01944 0.0
H709 H 0.85727 0.36973 0.01659 0.0
H710 H 0.85425 0.34701 0.04924 0.0
H711 H 0.87143 0.31552 0.05508 0.0
H712 H 0.3665 0.47898 0.21096 0.0
H713 H 0.34978 0.44737 0.21686 0.0
H714 H 0.41383 0.4249 0.17861 0.0
H715 H 0.43021 0.45626 0.17242 0.0
H716 H 0.36913 0.41208 0.16171 0.0
H717 H 0.37089 0.40386 0.25878 0.0
H718 H 0.3544 0.42422 0.24859 0.0
H719 H 0.38815 0.42208 0.24383 0.0
C720 C 0.37723 0.46725 0.20428 0.0
C721 C 0.3997 0.4701 0.19129 0.0
C722 C 0.36771 0.44916 0.2077 0.0
C723 C 0.38064 0.43364 0.19835 0.0
C724 C 0.40348 0.43656 0.18603 0.0
H725 H 0.35346 0.31363 0.21068 0.0
H726 H 0.37053 0.34529 0.21533 0.0
C727 C 0.41287 0.45453 0.18253 0.0
C728 C 0.3696 0.4145 0.19948 0.0
H729 H 0.35005 0.38003 0.2369 0.0
C730 C 0.36503 0.40511 0.1782 0.0
C731 C 0.36443 0.40524 0.22095 0.0
C732 C 0.36991 0.41426 0.24437 0.0
C733 C 0.3553 0.38691 0.17774 0.0
C734 C 0.3495 0.37782 0.19915 0.0
C735 C 0.35433 0.38705 0.2205 0.0
C736 C 0.33802 0.35885 0.19933 0.0
C737 C 0.3516 0.37746 0.15425 0.0
C738 C 0.31379 0.35597 0.18952 0.0
C739 C 0.30407 0.33799 0.18692 0.0
C740 C 0.31823 0.32243 0.19424 0.0
C741 C 0.34197 0.32532 0.20515 0.0
C742 C 0.35177 0.34342 0.20772 0.0
H743 H 0.36259 0.38441 0.14006 0.0
H744 H 0.35751 0.36264 0.1551 0.0
H745 H 0.33111 0.37794 0.14943 0.0
H746 H 0.30269 0.36765 0.18318 0.0
H747 H 0.28569 0.33623 0.17849 0.0
H748 H 0.85019 0.81498 0.21754 0.0
H749 H 0.86641 0.84635 0.22606 0.0
H750 H 0.82047 0.86832 0.16957 0.0
H751 H 0.80346 0.83742 0.16194 0.0
H752 H 0.89381 0.86913 0.20154 0.0
H753 H 0.80326 0.90548 0.2183 0.0
H754 H 0.80507 0.88048 0.21648 0.0
H755 H 0.8018 0.89431 0.19017 0.0
C756 C 0.84317 0.82659 0.20736 0.0
C757 C 0.82521 0.82375 0.18936 0.0
C758 C 0.85254 0.84453 0.21212 0.0
C759 C 0.84421 0.85996 0.19889 0.0
C760 C 0.82655 0.85694 0.1807 0.0
H761 H 0.92547 0.95837 0.16226 0.0
H762 H 0.90899 0.92721 0.16882 0.0
C763 C 0.81699 0.83916 0.17618 0.0
C764 C 0.85503 0.87898 0.20283 0.0
H765 H 0.8384 0.92496 0.20548 0.0
C766 C 0.88164 0.88128 0.2028 0.0
C767 C 0.83939 0.895 0.20515 0.0
C768 C 0.81082 0.89365 0.20781 0.0
C769 C 0.89289 0.89905 0.20357 0.0
C770 C 0.87716 0.91512 0.20349 0.0
C771 C 0.8506 0.91278 0.20502 0.0
C772 C 0.88771 0.93429 0.20023 0.0
C773 C 0.92159 0.90031 0.20446 0.0
C774 C 0.88059 0.94911 0.21511 0.0
C775 C 0.88967 0.96723 0.21102 0.0
C776 C 0.90605 0.97086 0.19202 0.0
C777 C 0.91315 0.95603 0.17727 0.0
C778 C 0.90388 0.93808 0.18114 0.0
H779 H 0.9299 0.88805 0.21355 0.0
H780 H 0.92924 0.90044 0.18626 0.0
H781 H 0.92803 0.91309 0.21369 0.0
H782 H 0.86795 0.94668 0.22986 0.0
H783 H 0.88385 0.97835 0.22264 0.0
H784 H 0.61577 0.06417 0.96168 0.0
H785 H 0.59738 0.0954 0.96718 0.0
H786 H 0.65884 0.11897 0.92667 0.0
H787 H 0.67711 0.088 0.92113 0.0
H788 H 0.61875 0.13077 0.98548 0.0
H789 H 0.5927 0.13381 0.89091 0.0
H790 H 0.60096 0.11234 0.90548 0.0
H791 H 0.62555 0.12818 0.89641 0.0
C792 C 0.62555 0.07606 0.95436 0.0
C793 C 0.64784 0.07364 0.94096 0.0
C794 C 0.61501 0.09389 0.95744 0.0
C795 C 0.62657 0.10951 0.94708 0.0
C796 C 0.6494 0.10712 0.93457 0.0
H797 H 0.59892 0.22901 0.96003 0.0
H798 H 0.61546 0.19732 0.96509 0.0
C799 C 0.65986 0.0894 0.93148 0.0
C800 C 0.61424 0.12818 0.94799 0.0
H801 H 0.58875 0.16178 0.91264 0.0
C802 C 0.61203 0.13754 0.96961 0.0
C803 C 0.60523 0.13693 0.92731 0.0
C804 C 0.60597 0.12728 0.90372 0.0
C805 C 0.60157 0.1556 0.97098 0.0
C806 C 0.59336 0.16459 0.95014 0.0
C807 C 0.59516 0.15501 0.92863 0.0
C808 C 0.58241 0.18378 0.94994 0.0
C809 C 0.59909 0.16476 0.99474 0.0
C810 C 0.55834 0.18685 0.93983 0.0
C811 C 0.54903 0.20491 0.93677 0.0
C812 C 0.56348 0.22039 0.94382 0.0
C813 C 0.58716 0.21738 0.95479 0.0
C814 C 0.5966 0.19922 0.95771 0.0
H815 H 0.59964 0.15441 0.00922 0.0
H816 H 0.61522 0.17453 0.99731 0.0
H817 H 0.58105 0.1728 0.99603 0.0
H818 H 0.547 0.17525 0.93365 0.0
H819 H 0.53075 0.20678 0.92821 0.0
H820 H 0.12054 0.73052 0.95203 0.0
H821 H 0.1348 0.69817 0.95536 0.0
H822 H 0.05649 0.68001 0.95806 0.0
H823 H 0.04218 0.71226 0.95378 0.0
H824 H 0.12976 0.67042 0.98626 0.0
H825 H 0.08138 0.65007 0.90337 0.0
H826 H 0.08403 0.67397 0.91262 0.0
H827 H 0.05982 0.65917 0.92499 0.0
C828 C 0.10636 0.71963 0.95356 0.0
C829 C 0.08022 0.7239 0.95233 0.0
C830 C 0.11454 0.70112 0.95544 0.0
C831 C 0.09677 0.68649 0.95628 0.0
C832 C 0.07063 0.6909 0.95663 0.0
H833 H 0.11921 0.56512 0.95992 0.0
H834 H 0.10251 0.59655 0.96731 0.0
C835 C 0.06245 0.70938 0.95442 0.0
C836 C 0.10559 0.66671 0.95595 0.0
H837 H 0.10062 0.62586 0.92523 0.0
C838 C 0.12332 0.6607 0.97292 0.0
C839 C 0.09742 0.65393 0.93844 0.0
C840 C 0.07983 0.65963 0.91869 0.0
C841 C 0.13294 0.6424 0.97285 0.0
C842 C 0.12461 0.62972 0.95548 0.0
C843 C 0.10672 0.63557 0.93872 0.0
C844 C 0.13555 0.6107 0.95331 0.0
C845 C 0.1521 0.63666 0.99124 0.0
C846 C 0.1597 0.60824 0.94316 0.0
C847 C 0.16913 0.59036 0.93873 0.0
C848 C 0.15472 0.57455 0.94456 0.0
C849 C 0.13088 0.577 0.95547 0.0
C850 C 0.12128 0.59495 0.95962 0.0
H851 H 0.15408 0.64724 1.00539 0.0
H852 H 0.14645 0.6232 0.99923 0.0
H853 H 0.17099 0.63465 0.98279 0.0
H854 H 0.17093 0.62019 0.93797 0.0
H855 H 0.18751 0.58892 0.93021 0.0
H856 H 0.68724 0.70678 0.83525 0.0
H857 H 0.67046 0.67541 0.82976 0.0
H858 H 0.60148 0.69817 0.80014 0.0
H859 H 0.61846 0.72976 0.80545 0.0
H860 H 0.62782 0.66252 0.85165 0.0
H861 H 0.6173 0.65516 0.75489 0.0
H862 H 0.63669 0.67306 0.76821 0.0
H863 H 0.60262 0.67556 0.7672 0.0
C864 C 0.66871 0.70511 0.8271 0.0
C865 C 0.65423 0.72074 0.82063 0.0
C866 C 0.65911 0.68715 0.82401 0.0
C867 C 0.63477 0.68433 0.81438 0.0
C868 C 0.62052 0.69992 0.80717 0.0
H869 H 0.54027 0.58808 0.84107 0.0
H870 H 0.55764 0.61926 0.83513 0.0
C871 C 0.63022 0.71799 0.8102 0.0
C872 C 0.62367 0.66522 0.81411 0.0
H873 H 0.59916 0.6312 0.77846 0.0
C874 C 0.62165 0.65569 0.8356 0.0
C875 C 0.61576 0.65618 0.79318 0.0
C876 C 0.61836 0.6654 0.7695 0.0
C877 C 0.61172 0.63758 0.8368 0.0
C878 C 0.60323 0.62871 0.816 0.0
C879 C 0.60555 0.63806 0.79441 0.0
C880 C 0.59141 0.6099 0.81677 0.0
C881 C 0.61055 0.62799 0.86038 0.0
C882 C 0.60422 0.59426 0.80774 0.0
C883 C 0.59425 0.57631 0.8111 0.0
C884 C 0.57126 0.57379 0.82342 0.0
C885 C 0.55803 0.58956 0.83151 0.0
C886 C 0.56794 0.6074 0.82817 0.0
H887 H 0.62285 0.63493 0.87366 0.0
H888 H 0.59063 0.62825 0.86694 0.0
H889 H 0.61653 0.61322 0.85879 0.0
H890 H 0.62242 0.59587 0.79897 0.0
H891 H 0.60508 0.56445 0.80502 0.0
H892 H 0.19228 0.20859 0.83535 0.0
H893 H 0.17662 0.17687 0.83023 0.0
H894 H 0.10568 0.1982 0.8029 0.0
H895 H 0.12161 0.23007 0.80763 0.0
H896 H 0.13677 0.16269 0.85326 0.0
H897 H 0.11959 0.15577 0.75741 0.0
H898 H 0.13851 0.17434 0.76978 0.0
H899 H 0.10427 0.17561 0.77042 0.0
C900 C 0.17356 0.20652 0.82773 0.0
C901 C 0.15824 0.22184 0.82175 0.0
C902 C 0.16459 0.18836 0.82486 0.0
C903 C 0.14001 0.18501 0.816 0.0
C904 C 0.12492 0.20031 0.80927 0.0
H905 H 0.04861 0.08874 0.84878 0.0
H906 H 0.06635 0.11973 0.84252 0.0
C907 C 0.13402 0.21857 0.812 0.0
C908 C 0.12955 0.16569 0.81615 0.0
H909 H 0.10238 0.13185 0.78189 0.0
C910 C 0.12942 0.15596 0.83758 0.0
C911 C 0.12012 0.15673 0.7957 0.0
C912 C 0.1208 0.16606 0.77196 0.0
C913 C 0.11977 0.13779 0.83923 0.0
C914 C 0.1095 0.12908 0.81901 0.0
C915 C 0.11008 0.13858 0.79742 0.0
C916 C 0.09739 0.11038 0.82043 0.0
C917 C 0.12076 0.128 0.8627 0.0
C918 C 0.1084 0.09479 0.8094 0.0
C919 C 0.09817 0.07693 0.81292 0.0
C920 C 0.07672 0.07445 0.82741 0.0
C921 C 0.06521 0.09018 0.83758 0.0
C922 C 0.07536 0.10792 0.83407 0.0
H923 H 0.13476 0.13456 0.8748 0.0
H924 H 0.10169 0.12872 0.87112 0.0
H925 H 0.12586 0.11311 0.86046 0.0
H926 H 0.12542 0.09636 0.79879 0.0
H927 H 0.10756 0.06507 0.80503 0.0
H928 H 0.38711 0.32969 0.61268 0.0
H929 H 0.37282 0.36113 0.60415 0.0
H930 H 0.37863 0.35007 0.52975 0.0
H931 H 0.39291 0.31807 0.53832 0.0
H932 H 0.3991 0.3885 0.58062 0.0
H933 H 0.30695 0.37302 0.53624 0.0
H934 H 0.32401 0.35578 0.55313 0.0
H935 H 0.33494 0.36204 0.52429 0.0
C936 C 0.38529 0.33384 0.59444 0.0
C937 C 0.39123 0.32136 0.57617 0.0
C938 C 0.37711 0.35189 0.5896 0.0
C939 C 0.37454 0.35806 0.56633 0.0
C940 C 0.38015 0.3456 0.54787 0.0
H941 H 0.35264 0.47995 0.55254 0.0
H942 H 0.36937 0.44859 0.54517 0.0
C943 C 0.38837 0.32734 0.55276 0.0
C944 C 0.36655 0.37772 0.56207 0.0
H945 H 0.31707 0.40451 0.54231 0.0
C946 C 0.38133 0.39204 0.57195 0.0
C947 C 0.34325 0.38234 0.55095 0.0
C948 C 0.32618 0.36754 0.54065 0.0
C949 C 0.37306 0.41066 0.57185 0.0
C950 C 0.34954 0.41528 0.56106 0.0
C951 C 0.33516 0.40104 0.55044 0.0
C952 C 0.33837 0.43438 0.56276 0.0
C953 C 0.38898 0.42502 0.58451 0.0
C954 C 0.31483 0.43693 0.57411 0.0
C955 C 0.30507 0.45481 0.57787 0.0
C956 C 0.31851 0.47061 0.5703 0.0
C957 C 0.34164 0.46809 0.55822 0.0
C958 C 0.35139 0.45014 0.55432 0.0
H959 H 0.40338 0.41854 0.59627 0.0
H960 H 0.39929 0.43359 0.57139 0.0
H961 H 0.37678 0.4344 0.59522 0.0
H962 H 0.30436 0.42509 0.58081 0.0
H963 H 0.28722 0.45626 0.58729 0.0
H964 H 0.84731 0.97534 0.5464 0.0
H965 H 0.86334 0.9438 0.53795 0.0
H966 H 0.82994 0.92423 0.60269 0.0
H967 H 0.81331 0.95518 0.61058 0.0
H968 H 0.89582 0.92181 0.55969 0.0
H969 H 0.80353 0.88545 0.55946 0.0
H970 H 0.80565 0.91048 0.55912 0.0
H971 H 0.80713 0.89791 0.58655 0.0
C972 C 0.84326 0.96422 0.55863 0.0
C973 C 0.82885 0.96771 0.57902 0.0
C974 C 0.8524 0.94619 0.55383 0.0
C975 C 0.8473 0.93137 0.56935 0.0
C976 C 0.83338 0.9351 0.58993 0.0
H977 H 0.93314 0.83392 0.60085 0.0
H978 H 0.9168 0.86508 0.59371 0.0
C979 C 0.82405 0.95293 0.59455 0.0
C980 C 0.85736 0.91218 0.56497 0.0
H981 H 0.84048 0.86632 0.56815 0.0
C982 C 0.88361 0.9097 0.56114 0.0
C983 C 0.84152 0.89622 0.56614 0.0
C984 C 0.81287 0.89768 0.56776 0.0
C985 C 0.89459 0.89183 0.56 0.0
C986 C 0.87908 0.87591 0.56359 0.0
C987 C 0.85261 0.87839 0.56587 0.0
C988 C 0.88998 0.8568 0.56668 0.0
C989 C 0.92275 0.89029 0.55494 0.0
C990 C 0.87991 0.84137 0.55451 0.0
C991 C 0.88894 0.8233 0.55901 0.0
C992 C 0.90829 0.82031 0.5757 0.0
C993 C 0.91847 0.83574 0.58763 0.0
C994 C 0.90928 0.85368 0.58337 0.0
H995 H 0.92933 0.90201 0.54377 0.0
H996 H 0.93349 0.89102 0.57174 0.0
H997 H 0.92751 0.87703 0.54593 0.0
H998 H 0.8648 0.84327 0.54174 0.0
H999 H 0.88039 0.81168 0.54985 0.0
H1000 H 0.37859 0.97869 0.71667 0.0
H1001 H 0.36257 0.94721 0.72409 0.0
H1002 H 0.41643 0.92536 0.67374 0.0
H1003 H 0.43339 0.95647 0.66753 0.0
H1004 H 0.33909 0.92456 0.69727 0.0
H1005 H 0.42686 0.88807 0.72341 0.0
H1006 H 0.42546 0.91306 0.72125 0.0
H1007 H 0.43179 0.89903 0.69554 0.0
C1008 C 0.38753 0.9671 0.70782 0.0
C1009 C 0.40763 0.97006 0.69192 0.0
C1010 C 0.37821 0.94907 0.71187 0.0
C1011 C 0.38864 0.93365 0.69993 0.0
C1012 C 0.40861 0.93674 0.68393 0.0
H1013 H 0.31011 0.83512 0.65718 0.0
H1014 H 0.32735 0.86606 0.66392 0.0
C1015 C 0.41817 0.95465 0.6802 0.0
C1016 C 0.37744 0.91462 0.70259 0.0
H1017 H 0.39334 0.86861 0.70718 0.0
C1018 C 0.35098 0.91239 0.69984 0.0
C1019 C 0.39263 0.89858 0.70655 0.0
C1020 C 0.4207 0.89986 0.71213 0.0
C1021 C 0.33959 0.89468 0.69962 0.0
C1022 C 0.35513 0.87858 0.70126 0.0
C1023 C 0.38137 0.88083 0.70538 0.0
C1024 C 0.34477 0.85943 0.69742 0.0
C1025 C 0.31093 0.89352 0.69772 0.0
C1026 C 0.34972 0.8449 0.71339 0.0
C1027 C 0.34029 0.82689 0.70922 0.0
C1028 C 0.32566 0.8231 0.68908 0.0
C1029 C 0.321 0.83759 0.67308 0.0
C1030 C 0.33068 0.85542 0.67703 0.0
H1031 H 0.30171 0.90596 0.70563 0.0
H1032 H 0.30543 0.89309 0.67887 0.0
H1033 H 0.30336 0.88093 0.70656 0.0
H1034 H 0.36077 0.8475 0.72916 0.0
H1035 H 0.34426 0.81605 0.72178 0.0
H1036 H 0.84476 0.31193 0.72275 0.0
H1037 H 0.86125 0.34327 0.7306 0.0
H1038 H 0.809 0.3656 0.67924 0.0
H1039 H 0.7918 0.33467 0.67245 0.0
H1040 H 0.88575 0.36592 0.70424 0.0
H1041 H 0.79792 0.40288 0.729 0.0
H1042 H 0.79909 0.37787 0.72682 0.0
H1043 H 0.79324 0.3919 0.70106 0.0
C1044 C 0.83641 0.32358 0.71366 0.0
C1045 C 0.81674 0.32078 0.69728 0.0
C1046 C 0.84592 0.34154 0.71802 0.0
C1047 C 0.83603 0.35706 0.70595 0.0
C1048 C 0.81641 0.35415 0.68952 0.0
H1049 H 0.91506 0.45429 0.66171 0.0
H1050 H 0.89814 0.42349 0.66981 0.0
C1051 C 0.80672 0.33632 0.68546 0.0
C1052 C 0.84738 0.37604 0.7089 0.0
H1053 H 0.83169 0.42215 0.71266 0.0
C1054 C 0.8739 0.37815 0.70651 0.0
C1055 C 0.83226 0.39217 0.71251 0.0
C1056 C 0.8041 0.39104 0.71778 0.0
C1057 C 0.88539 0.39583 0.70617 0.0
C1058 C 0.86992 0.412 0.7073 0.0
C1059 C 0.84363 0.40988 0.71122 0.0
C1060 C 0.88037 0.43105 0.70286 0.0
C1061 C 0.91408 0.39687 0.70458 0.0
C1062 C 0.87518 0.44605 0.71813 0.0
C1063 C 0.88444 0.46399 0.71317 0.0
C1064 C 0.89911 0.46721 0.6929 0.0
C1065 C 0.90414 0.45224 0.67768 0.0
C1066 C 0.89463 0.4345 0.68241 0.0
H1067 H 0.9231 0.38461 0.71307 0.0
H1068 H 0.91986 0.3968 0.6858 0.0
H1069 H 0.9216 0.40966 0.71305 0.0
H1070 H 0.86402 0.44388 0.73392 0.0
H1071 H 0.88029 0.47524 0.72519 0.0
H1072 H 0.68291 0.59385 0.41922 0.0
H1073 H 0.66706 0.62529 0.42597 0.0
H1074 H 0.6029 0.60311 0.46425 0.0
H1075 H 0.61932 0.57141 0.45804 0.0
H1076 H 0.62363 0.63821 0.40889 0.0
H1077 H 0.62258 0.64667 0.50589 0.0
H1078 H 0.63968 0.62809 0.49143 0.0
H1079 H 0.60577 0.6265 0.49559 0.0
C1080 C 0.6657 0.59567 0.42951 0.0
C1081 C 0.65236 0.5802 0.43814 0.0
C1082 C 0.65662 0.61368 0.43334 0.0
C1083 C 0.63383 0.6167 0.44574 0.0
C1084 C 0.6208 0.60125 0.45505 0.0
H1085 H 0.54051 0.71404 0.42122 0.0
H1086 H 0.55712 0.68262 0.42683 0.0
C1087 C 0.63012 0.58312 0.45143 0.0
C1088 C 0.6228 0.63584 0.44665 0.0
H1089 H 0.60175 0.67029 0.48352 0.0
C1090 C 0.61897 0.6452 0.42526 0.0
C1091 C 0.61688 0.64511 0.46798 0.0
C1092 C 0.62164 0.63618 0.49155 0.0
C1093 C 0.60931 0.66339 0.42453 0.0
C1094 C 0.60259 0.67246 0.44576 0.0
C1095 C 0.60668 0.66327 0.46724 0.0
C1096 C 0.59094 0.69136 0.4456 0.0
C1097 C 0.60673 0.67284 0.40093 0.0
C1098 C 0.60379 0.70674 0.4553 0.0
C1099 C 0.59411 0.72482 0.45232 0.0
C1100 C 0.57149 0.72773 0.43958 0.0
C1101 C 0.55808 0.71224 0.43099 0.0
C1102 C 0.56759 0.69426 0.43411 0.0
H1103 H 0.61891 0.66614 0.38735 0.0
H1104 H 0.58663 0.67189 0.39495 0.0
H1105 H 0.61194 0.68777 0.40213 0.0
H1106 H 0.62182 0.70483 0.46427 0.0
H1107 H 0.6049 0.73652 0.45898 0.0
H1108 H 0.14498 0.07104 0.47713 0.0
H1109 H 0.13095 0.10311 0.48559 0.0
H1110 H 0.1293 0.11483 0.41122 0.0
H1111 H 0.14325 0.08321 0.40278 0.0
H1112 H 0.15456 0.14211 0.43742 0.0
H1113 H 0.05929 0.12572 0.4752 0.0
H1114 H 0.08638 0.11436 0.48827 0.0
H1115 H 0.07746 0.10891 0.45857 0.0
C1116 C 0.14145 0.08048 0.46266 0.0
C1117 C 0.14524 0.0746 0.4393 0.0
C1118 C 0.13339 0.09877 0.46748 0.0
C1119 C 0.12894 0.1114 0.44901 0.0
C1120 C 0.13267 0.10542 0.42577 0.0
H1121 H 0.04378 0.20931 0.42402 0.0
H1122 H 0.06093 0.17823 0.43085 0.0
C1123 C 0.14064 0.08728 0.42098 0.0
C1124 C 0.12065 0.13097 0.45335 0.0
H1125 H 0.06967 0.1573 0.47072 0.0
C1126 C 0.13615 0.14548 0.44504 0.0
C1127 C 0.09655 0.13534 0.4631 0.0
C1128 C 0.07878 0.12033 0.47169 0.0
C1129 C 0.12789 0.1641 0.44538 0.0
C1130 C 0.10354 0.16846 0.45468 0.0
C1131 C 0.0884 0.15401 0.46376 0.0
C1132 C 0.09231 0.18748 0.45261 0.0
C1133 C 0.14472 0.1788 0.43457 0.0
C1134 C 0.10386 0.20314 0.46299 0.0
C1135 C 0.09403 0.22107 0.45901 0.0
C1136 C 0.07244 0.22359 0.44472 0.0
C1137 C 0.06046 0.20784 0.43511 0.0
C1138 C 0.07022 0.19002 0.43905 0.0
H1139 H 0.16056 0.17266 0.42415 0.0
H1140 H 0.13347 0.1881 0.42293 0.0
H1141 H 0.1532 0.18743 0.44876 0.0
H1142 H 0.12069 0.20155 0.47383 0.0
H1143 H 0.10374 0.23294 0.46652 0.0
H1144 H 0.61986 0.23535 0.30433 0.0
H1145 H 0.60234 0.20404 0.29736 0.0
H1146 H 0.66233 0.1804 0.33972 0.0
H1147 H 0.67969 0.21142 0.34675 0.0
H1148 H 0.6257 0.16847 0.27965 0.0
H1149 H 0.59399 0.16587 0.37279 0.0
H1150 H 0.60264 0.18731 0.35838 0.0
H1151 H 0.62699 0.17178 0.36884 0.0
C1152 C 0.62953 0.22342 0.31171 0.0
C1153 C 0.65107 0.22581 0.32612 0.0
C1154 C 0.61952 0.20557 0.30777 0.0
C1155 C 0.63089 0.18992 0.31824 0.0
C1156 C 0.65309 0.19228 0.33168 0.0
H1157 H 0.60671 0.07032 0.30631 0.0
H1158 H 0.62249 0.10218 0.30079 0.0
C1159 C 0.663 0.21002 0.33565 0.0
C1160 C 0.61879 0.17126 0.31681 0.0
H1161 H 0.59177 0.13776 0.35119 0.0
C1162 C 0.61808 0.16176 0.29521 0.0
C1163 C 0.60865 0.16262 0.33709 0.0
C1164 C 0.60784 0.17244 0.36057 0.0
C1165 C 0.60802 0.14362 0.29352 0.0
C1166 C 0.59872 0.13473 0.31402 0.0
C1167 C 0.599 0.14447 0.33547 0.0
C1168 C 0.58824 0.11546 0.31397 0.0
C1169 C 0.60718 0.13424 0.2698 0.0
C1170 C 0.56375 0.11223 0.32306 0.0
C1171 C 0.55491 0.09412 0.32645 0.0
C1172 C 0.57028 0.07877 0.3207 0.0
C1173 C 0.59433 0.08189 0.31056 0.0
C1174 C 0.60332 0.10012 0.30736 0.0
H1175 H 0.60835 0.14448 0.25522 0.0
H1176 H 0.62367 0.12464 0.26819 0.0
H1177 H 0.58944 0.12598 0.2677 0.0
H1178 H 0.55174 0.12378 0.32832 0.0
H1179 H 0.5363 0.09213 0.33432 0.0
H1180 H 0.14338 0.72635 0.29198 0.0
H1181 H 0.1281 0.69467 0.28302 0.0
H1182 H 0.12339 0.68293 0.35727 0.0
H1183 H 0.13853 0.71412 0.36619 0.0
H1184 H 0.14864 0.65531 0.33219 0.0
H1185 H 0.05559 0.67301 0.29076 0.0
H1186 H 0.08355 0.68386 0.27863 0.0
H1187 H 0.07351 0.68963 0.30792 0.0
C1188 C 0.13882 0.71703 0.30631 0.0
C1189 C 0.14216 0.72275 0.32978 0.0
C1190 C 0.13007 0.69894 0.3012 0.0
C1191 C 0.12447 0.68638 0.31949 0.0
C1192 C 0.12764 0.69226 0.34284 0.0
H1193 H 0.03635 0.58903 0.34153 0.0
H1194 H 0.05386 0.62009 0.33524 0.0
C1195 C 0.13631 0.71017 0.34791 0.0
C1196 C 0.11579 0.66693 0.31492 0.0
H1197 H 0.0649 0.64127 0.29581 0.0
C1198 C 0.1305 0.65221 0.32391 0.0
C1199 C 0.09201 0.66288 0.30432 0.0
C1200 C 0.07506 0.67812 0.29495 0.0
C1201 C 0.12175 0.63372 0.32338 0.0
C1202 C 0.09774 0.62967 0.31316 0.0
C1203 C 0.08338 0.64432 0.30348 0.0
C1204 C 0.08612 0.61074 0.31465 0.0
C1205 C 0.13769 0.61882 0.33495 0.0
C1206 C 0.09799 0.59504 0.30467 0.0
C1207 C 0.08797 0.57714 0.30832 0.0
C1208 C 0.06582 0.57466 0.32189 0.0
C1209 C 0.05345 0.59046 0.331 0.0
C1210 C 0.06343 0.60827 0.32737 0.0
H1211 H 0.15306 0.62479 0.3461 0.0
H1212 H 0.12566 0.60965 0.34605 0.0
H1213 H 0.14678 0.61011 0.32117 0.0
H1214 H 0.1153 0.59657 0.29447 0.0
H1215 H 0.09802 0.56527 0.30119 0.0
H1216 H 0.27376 0.9898 0.16847 0.0
H1217 H 0.26079 0.98856 0.20976 0.0
H1218 H 0.24878 0.04788 0.20966 0.0
H1219 H 0.26168 0.04919 0.1681 0.0
H1220 H 0.28359 1.00712 0.24819 0.0
H1221 H 0.18178 0.02688 0.23725 0.0
H1222 H 0.20135 1.01929 0.21293 0.0
H1223 H 0.20448 0.0425 0.22424 0.0
C1224 C 0.26813 1.00257 0.17716 0.0
C1225 C 0.26858 1.01959 0.16503 0.0
C1226 C 0.26082 1.00184 0.20079 0.0
C1227 C 0.25362 1.01808 0.21278 0.0
C1228 C 0.25389 0.03512 0.20067 0.0
H1229 H 0.23813 0.03215 0.36484 0.0
H1230 H 0.25317 0.03287 0.32398 0.0
C1231 C 0.2613 0.03587 0.17696 0.0
C1232 C 0.24645 1.01708 0.23807 0.0
H1233 H 0.19685 0.02346 0.27623 0.0
C1234 C 0.26464 1.01072 0.25435 0.0
C1235 C 0.22164 1.02159 0.24603 0.0
C1236 C 0.20106 0.0278 0.22924 0.0
C1237 C 0.25873 1.00888 0.27837 0.0
C1238 C 0.23404 1.01364 0.28638 0.0
C1239 C 0.21581 1.01989 0.27008 0.0
C1240 C 0.22655 1.01208 0.31154 0.0
C1241 C 0.27879 1.00149 0.29494 0.0
C1242 C 0.20674 1.00007 0.31818 0.0
C1243 C 0.1982 0.99958 0.34151 0.0
C1244 C 0.20916 1.01125 0.3586 0.0
C1245 C 0.22949 0.02289 0.35209 0.0
C1246 C 0.2381 0.02331 0.32875 0.0
H1247 H 0.29463 0.99456 0.28535 0.0
H1248 H 0.28693 1.01321 0.30521 0.0
H1249 H 0.27036 0.99144 0.30755 0.0
H1250 H 0.19754 0.9913 0.3052 0.0
H1251 H 0.18241 0.99055 0.34596 0.0
H1252 H 0.04869 0.30127 0.34202 0.0
H1253 H 0.03466 0.29841 0.30104 0.0
H1254 H 0.97002 0.26591 0.32342 0.0
H1255 H 0.9838 0.26892 0.36443 0.0
H1256 H 0.02973 0.26533 0.2764 0.0
H1257 H 0.93731 0.30285 0.27824 0.0
H1258 H 0.96076 0.30515 0.30132 0.0
H1259 H 0.9402 0.28517 0.30034 0.0
C1260 C 0.03118 0.29386 0.33825 0.0
C1261 C 0.01725 0.28541 0.35645 0.0
C1262 C 0.02326 0.29215 0.3148 0.0
C1263 C 0.00117 0.28207 0.3091 0.0
C1264 C -0.01315 0.27405 0.32736 0.0
H1265 H 0.92706 0.24883 0.17862 0.0
H1266 H 0.94107 0.25201 0.21956 0.0
C1267 C -0.00523 0.27575 0.35081 0.0
C1268 C -0.00593 0.27892 0.28403 0.0
H1269 H 0.94619 0.28502 0.24396 0.0
C1270 C 0.01152 0.26974 0.26926 0.0
C1271 C 0.97026 0.28457 0.27473 0.0
C1272 C 0.95112 0.29513 0.28939 0.0
C1273 C 0.00566 0.26577 0.24563 0.0
C1274 C 0.98185 0.27141 0.23633 0.0
C1275 C 0.9644 0.28061 0.25109 0.0
C1276 C 0.97468 0.26816 0.21129 0.0
C1277 C 0.02479 0.25518 0.23099 0.0
C1278 C -0.01094 0.27597 0.19292 0.0
C1279 C 0.98116 0.27406 0.16949 0.0
C1280 C 0.95862 0.26443 0.16398 0.0
C1281 C 0.9446 0.25622 0.1823 0.0
C1282 C 0.95251 0.25812 0.20572 0.0
H1283 H 0.03858 0.24745 0.24217 0.0
H1284 H 0.01515 0.24515 0.21907 0.0
H1285 H 0.03575 0.26512 0.22004 0.0
H1286 H 0.00595 0.28408 0.19675 0.0
H1287 H -0.0078 0.28072 0.15577 0.0
H1288 H 0.17653 0.29882 0.92747 0.0
H1289 H 0.19012 0.29546 0.96849 0.0
H1290 H 0.25585 0.26412 0.94586 0.0
H1291 H 0.24253 0.26767 0.90479 0.0
H1292 H 0.19526 0.26219 0.99208 0.0
H1293 H 0.28715 0.30032 0.99268 0.0
H1294 H 0.26411 0.30279 0.96928 0.0
H1295 H 0.28498 0.28294 0.97006 0.0
C1296 C 0.19419 0.29158 0.93121 0.0
C1297 C 0.20855 0.28359 0.91292 0.0
C1298 C 0.20186 0.28958 0.95467 0.0
C1299 C 0.22411 0.27965 0.96031 0.0
C1300 C 0.23888 0.27214 0.94197 0.0
H1301 H 0.29634 0.24491 0.09095 0.0
H1302 H 0.28278 0.24827 0.04992 0.0
C1303 C 0.23123 0.27415 0.91849 0.0
C1304 C 0.23087 0.27611 0.98536 0.0
H1305 H 0.27797 0.28186 0.02628 0.0
C1306 C 0.21329 0.26659 0.9996 0.0
C1307 C 0.25444 0.28175 0.99515 0.0
C1308 C 0.27368 0.29267 0.98109 0.0
C1309 C 0.21878 0.26232 0.02321 0.0
C1310 C 0.24236 0.26795 0.03299 0.0
C1311 C 0.25994 0.27746 0.01875 0.0
C1312 C 0.24909 0.26443 0.05805 0.0
C1313 C 0.19953 0.25144 0.0373 0.0
C1314 C 0.23446 0.27214 0.07634 0.0
C1315 C 0.24212 0.27016 0.09983 0.0
C1316 C 0.26463 0.26052 0.10544 0.0
C1317 C 0.27881 0.25232 0.08718 0.0
C1318 C 0.27116 0.25431 0.06372 0.0
H1319 H 0.18593 0.24388 0.02575 0.0
H1320 H 0.20909 0.24125 0.04902 0.0
H1321 H 0.18839 0.26118 0.04845 0.0
H1322 H 0.21762 0.28029 0.07242 0.0
H1323 H 0.23096 0.27681 0.1135 0.0
H1324 H 0.92789 0.04908 0.09051 0.0
H1325 H 0.94246 0.04562 0.04977 0.0
H1326 H 0.00888 1.01583 0.07389 0.0
H1327 H -0.00575 1.01905 0.11465 0.0
H1328 H -0.01214 0.05565 0.02633 0.0
H1329 H 0.97481 0.97903 0.02829 0.0
H1330 H 0.96195 0.99419 0.05068 0.0
H1331 H -0.00481 0.98808 0.05096 0.0
C1332 C 0.9458 0.04205 0.08715 0.0
C1333 C 0.95987 0.03424 0.10572 0.0
C1334 C 0.95406 0.04004 0.06387 0.0
C1335 C 0.97645 0.0301 0.05876 0.0
C1336 C -0.00875 0.02318 0.0774 0.0
H1337 H 0.05286 0.9978 0.92949 0.0
H1338 H 0.03868 1.00153 0.97031 0.0
C1339 C 0.983 0.02519 0.10068 0.0
C1340 C 0.98383 0.02651 0.03394 0.0
H1341 H -0.00651 0.99167 0.99392 0.0
C1342 C -0.01098 0.04168 0.01921 0.0
C1343 C 0.98527 1.00824 0.02467 0.0
C1344 C 0.9788 0.99143 0.03937 0.0
C1345 C -0.00391 0.03907 0.99558 0.0
C1346 C -0.00249 1.02081 0.98631 0.0
C1347 C -0.00766 1.00564 1.00105 0.0
C1348 C 0.00478 1.0172 0.96145 0.0
C1349 C 0.00256 0.05588 0.98089 0.0
C1350 C -0.01009 0.02414 0.94288 0.0
C1351 C -0.00207 1.02197 0.91955 0.0
C1352 C 0.02089 1.01274 0.91441 0.0
C1353 C 0.03506 1.00496 0.93294 0.0
C1354 C 0.02703 1.00714 0.95626 0.0
H1355 H 0.00667 0.06826 0.99197 0.0
H1356 H 0.01934 0.0531 0.96949 0.0
H1357 H 0.98613 0.05929 0.96937 0.0
H1358 H 0.97237 0.03158 0.94646 0.0
H1359 H 0.98661 0.02808 0.90561 0.0
H1360 H 0.67556 0.9949 0.84017 0.0
H1361 H 0.69094 0.99742 0.79957 0.0
H1362 H 0.75463 0.03034 0.82342 0.0
H1363 H 0.73949 0.02767 0.86404 0.0
H1364 H 0.69648 0.03051 0.77494 0.0
H1365 H 0.78892 0.99313 0.77941 0.0
H1366 H 0.76474 0.99087 0.80183 0.0
H1367 H 0.78522 1.0109 0.80137 0.0
C1368 C 0.69314 1.00232 0.8368 0.0
C1369 C 0.7064 1.01102 0.85528 0.0
C1370 C 0.70184 1.00384 0.81359 0.0
C1371 C 0.72405 1.01396 0.80842 0.0
C1372 C 0.73772 1.02218 0.82697 0.0
H1373 H 0.80159 0.04605 0.67909 0.0
H1374 H 0.78662 0.04353 0.71984 0.0
C1375 C 0.72902 1.02067 0.85019 0.0
C1376 C 0.73191 1.01698 0.78355 0.0
H1377 H 0.78099 1.01069 0.74478 0.0
C1378 C 0.7149 0.02608 0.7683 0.0
C1379 C 0.75601 1.01131 0.77492 0.0
C1380 C 0.77472 1.00086 0.79015 0.0
C1381 C 0.72147 0.02991 0.74482 0.0
C1382 C 0.74555 0.02421 0.73617 0.0
C1383 C 0.76257 1.01513 0.75143 0.0
C1384 C 0.75331 0.02712 0.71125 0.0
C1385 C 0.70276 0.04039 0.72962 0.0
C1386 C 0.73942 1.01895 0.69281 0.0
C1387 C 0.74787 1.02046 0.66952 0.0
C1388 C 0.77048 0.03007 0.66424 0.0
C1389 C 0.78401 0.03867 0.68261 0.0
C1390 C 0.77555 0.03715 0.70591 0.0
H1391 H 0.68871 0.04823 0.74039 0.0
H1392 H 0.71275 0.05028 0.7178 0.0
H1393 H 0.69207 0.03035 0.71854 0.0
H1394 H 0.72249 1.01084 0.69649 0.0
H1395 H 0.73719 1.01352 0.65576 0.0
H1396 H 0.0604 0.75277 0.84293 0.0
H1397 H 0.04427 0.74998 0.80279 0.0
H1398 H 0.98471 0.78945 0.8187 0.0
H1399 H 0.00123 0.79259 0.859 0.0
H1400 H -0.00183 0.73793 0.78757 0.0
H1401 H 0.01441 0.81057 0.75836 0.0
H1402 H 0.02804 0.80138 0.78508 0.0
H1403 H -0.0048 0.80856 0.78438 0.0
C1404 C 0.04395 0.76096 0.83786 0.0
C1405 C 0.03211 0.77296 0.85406 0.0
C1406 C 0.03472 0.75931 0.81491 0.0
C1407 C 0.01344 0.76963 0.80759 0.0
C1408 C 0.00146 0.78161 0.82378 0.0
H1409 H 0.9244 0.74593 0.68126 0.0
H1410 H 0.9404 0.74791 0.72164 0.0
C1411 C 0.01081 0.78334 0.84682 0.0
C1412 C 0.00367 0.76739 0.78317 0.0
H1413 H -0.00803 0.79088 0.73208 0.0
C1414 C -0.00319 0.74951 0.77543 0.0
C1415 C 0.00224 0.78245 0.76722 0.0
C1416 C 0.01058 0.8018 0.77404 0.0
C1417 C -0.01153 0.74629 0.75228 0.0
C1418 C 0.98643 0.76142 0.73651 0.0
C1419 C -0.00659 0.77929 0.74421 0.0
C1420 C 0.97724 0.75908 0.71191 0.0
C1421 C 0.98252 0.72662 0.7448 0.0
C1422 C -0.00749 0.7648 0.69295 0.0
C1423 C 0.98332 0.76379 0.66986 0.0
C1424 C 0.95865 0.75709 0.66531 0.0
C1425 C 0.9436 0.75096 0.68422 0.0
C1426 C 0.95275 0.75204 0.70732 0.0
H1427 H -0.00814 0.71627 0.75647 0.0
H1428 H 0.96163 0.72436 0.74578 0.0
H1429 H -0.01124 0.72402 0.72642 0.0
H1430 H 0.01144 0.77031 0.69605 0.0
H1431 H -0.00472 0.76872 0.65564 0.0
H1432 H 0.67824 0.79759 0.92545 0.0
H1433 H 0.69299 0.79448 0.96616 0.0
H1434 H 0.75735 0.76216 0.94239 0.0
H1435 H 0.74283 0.76541 0.90162 0.0
H1436 H 0.69845 0.76115 0.99016 0.0
H1437 H 0.79064 0.7989 0.98766 0.0
H1438 H 0.76679 0.80135 0.96495 0.0
H1439 H 0.78737 0.78134 0.96537 0.0
C1440 C 0.69584 0.79016 0.92886 0.0
C1441 C 0.70947 0.78183 0.91033 0.0
C1442 C 0.70418 0.78831 0.95214 0.0
C1443 C 0.72639 0.7782 0.95737 0.0
C1444 C 0.74043 0.77032 0.9388 0.0
H1445 H 0.80183 0.74584 0.08782 0.0
H1446 H 0.78773 0.74849 0.04683 0.0
C1447 C 0.73209 0.77216 0.91549 0.0
C1448 C 0.73389 0.77491 0.9823 0.0
H1449 H 0.78208 0.78121 0.022 0.0
C1450 C 0.71669 0.76562 0.99716 0.0
C1451 C 0.75775 0.78062 0.9914 0.0
C1452 C 0.77664 0.79125 0.97661 0.0
C1453 C 0.72281 0.76169 0.02073 0.0
C1454 C 0.74662 0.76748 0.02987 0.0
C1455 C 0.76386 0.77671 0.01499 0.0
C1456 C 0.75388 0.76449 0.05492 0.0
C1457 C 0.70391 0.75102 0.03547 0.0
C1458 C 0.73941 0.7724 0.07319 0.0
C1459 C 0.74736 0.77081 0.09663 0.0
C1460 C 0.77004 0.76139 0.10225 0.0
C1461 C 0.78417 0.75307 0.08404 0.0
C1462 C 0.77621 0.75466 0.0606 0.0
H1463 H 0.69026 0.74309 0.02437 0.0
H1464 H 0.71376 0.74117 0.04746 0.0
H1465 H 0.69277 0.76094 0.04636 0.0
H1466 H 0.7224 0.78037 0.06926 0.0
H1467 H 0.73623 0.77754 0.11025 0.0
H1468 H 0.17452 0.4973 0.83855 0.0
H1469 H 0.18799 0.49993 0.7974 0.0
H1470 H 0.25325 0.5322 0.81893 0.0
H1471 H 0.24004 0.52938 0.86012 0.0
H1472 H 0.19284 0.53253 0.77233 0.0
H1473 H 0.28521 0.49498 0.77382 0.0
H1474 H 0.2621 0.49302 0.79722 0.0
H1475 H 0.28275 0.51293 0.79567 0.0
C1476 C 0.19204 0.50461 0.83455 0.0
C1477 C 0.20633 0.51304 0.85257 0.0
C1478 C 0.19964 0.5062 0.81101 0.0
C1479 C 0.22176 0.51613 0.80502 0.0
C1480 C 0.2364 0.52415 0.82309 0.0
H1481 H 0.29466 0.54847 0.67391 0.0
H1482 H 0.28067 0.54572 0.71487 0.0
C1483 C 0.22881 0.52256 0.84664 0.0
C1484 C 0.2286 0.51905 0.77985 0.0
H1485 H 0.2761 0.51261 0.73948 0.0
C1486 C 0.21098 0.52807 0.76511 0.0
C1487 C 0.25232 0.51331 0.77042 0.0
C1488 C 0.27161 0.50287 0.78502 0.0
C1489 C 0.2166 0.53179 0.74137 0.0
C1490 C 0.24035 0.5261 0.73197 0.0
C1491 C 0.25794 0.51705 0.7467 0.0
C1492 C 0.24733 0.52918 0.70687 0.0
C1493 C 0.19731 0.54218 0.72672 0.0
C1494 C 0.23306 0.52103 0.68864 0.0
C1495 C 0.24096 0.52267 0.66517 0.0
C1496 C 0.26337 0.53239 0.65951 0.0
C1497 C 0.27722 0.54099 0.67769 0.0
C1498 C 0.26932 0.53935 0.70113 0.0
H1499 H 0.18342 0.54986 0.73787 0.0
H1500 H 0.20682 0.55222 0.71476 0.0
H1501 H 0.1865 0.53211 0.71579 0.0
H1502 H 0.21629 0.51283 0.69261 0.0
H1503 H 0.23006 0.51572 0.65157 0.0
H1504 H 0.23787 0.76053 0.40353 0.0
H1505 H 0.25269 0.75665 0.44419 0.0
H1506 H 0.1989 0.79818 0.46734 0.0
H1507 H 0.18398 0.8021 0.4268 0.0
H1508 H 0.27188 0.78315 0.47885 0.0
H1509 H 0.18025 0.75052 0.50524 0.0
H1510 H 0.18962 0.75313 0.47485 0.0
H1511 H 0.17746 0.77272 0.49098 0.0
C1512 C 0.22955 0.76907 0.41723 0.0
C1513 C 0.20971 0.78156 0.41203 0.0
C1514 C 0.23797 0.7668 0.44045 0.0
C1515 C 0.22654 0.77686 0.45882 0.0
C1516 C 0.20766 0.79004 0.45347 0.0
H1517 H 0.2375 0.77877 0.6107 0.0
H1518 H 0.22484 0.78163 0.56939 0.0
C1519 C 0.1993 0.79237 0.43028 0.0
C1520 C 0.23363 0.77309 0.48366 0.0
H1521 H 0.20993 0.75665 0.53563 0.0
C1522 C 0.25842 0.77727 0.49127 0.0
C1523 C 0.216 0.76541 0.49979 0.0
C1524 C 0.18939 0.76001 0.49236 0.0
C1525 C 0.26587 0.77445 0.51478 0.0
C1526 C 0.2482 0.76678 0.53096 0.0
C1527 C 0.22347 0.76247 0.52325 0.0
C1528 C 0.25477 0.76371 0.55613 0.0
C1529 C 0.29232 0.78026 0.52221 0.0
C1530 C 0.27518 0.75211 0.56256 0.0
C1531 C 0.28245 0.75048 0.58617 0.0
C1532 C 0.26927 0.76026 0.6038 0.0
C1533 C 0.24799 0.77104 0.5975 0.0
C1534 C 0.2408 0.77274 0.57388 0.0
H1535 H 0.30093 0.79019 0.50954 0.0
H1536 H 0.29206 0.78681 0.53991 0.0
H1537 H 0.30479 0.7678 0.52299 0.0
H1538 H 0.28582 0.74461 0.54925 0.0
H1539 H 0.29889 0.74202 0.59053 0.0
H1540 H 0.97959 0.5283 0.40373 0.0
H1541 H 0.96587 0.5309 0.44485 0.0
H1542 H 0.03112 0.49872 0.46666 0.0
H1543 H 0.04511 0.49629 0.42564 0.0
H1544 H 0.95444 0.50456 0.47954 0.0
H1545 H 0.03878 0.54671 0.50476 0.0
H1546 H 0.03035 0.54226 0.47449 0.0
H1547 H 0.04643 0.52474 0.49147 0.0
C1548 C -0.00919 0.52156 0.41727 0.0
C1549 C 0.01349 0.51218 0.41151 0.0
C1550 C 0.983 0.52311 0.44076 0.0
C1551 C -0.00222 0.51538 0.45889 0.0
C1552 C 0.01974 0.50518 0.45303 0.0
H1553 H 0.98653 0.51305 0.6114 0.0
H1554 H 2e-05 0.51052 0.5702 0.0
C1555 C 0.02758 0.50366 0.42956 0.0
C1556 C -0.00946 0.51834 0.48392 0.0
H1557 H 0.01144 0.53721 0.53571 0.0
C1558 C 0.96684 0.51176 0.4918 0.0
C1559 C 0.00673 0.52778 0.49991 0.0
C1560 C 0.0319 0.53595 0.49225 0.0
C1561 C 0.95913 0.51402 0.51533 0.0
C1562 C 0.97536 0.52342 0.53133 0.0
C1563 C -0.00097 0.53002 0.52344 0.0
C1564 C 0.96821 0.52628 0.55639 0.0
C1565 C 0.93393 0.50591 0.52299 0.0
C1566 C 0.94638 0.53657 0.5624 0.0
C1567 C 0.93869 0.53808 0.58591 0.0
C1568 C 0.95279 0.52941 0.60385 0.0
C1569 C 0.97532 0.5199 0.59794 0.0
C1570 C 0.98299 0.51839 0.57441 0.0
H1571 H 0.9269 0.49526 0.51039 0.0
H1572 H 0.9355 0.49948 0.54068 0.0
H1573 H 0.91949 0.51717 0.52395 0.0
H1574 H 0.935 0.54315 0.54885 0.0
H1575 H 0.92127 0.54553 0.58995 0.0
H1576 H 0.73302 0.51981 0.14917 0.0
H1577 H 0.71754 0.51784 0.18982 0.0
H1578 H 0.78371 0.54804 0.21369 0.0
H1579 H 0.79903 0.55027 0.17315 0.0
H1580 H 0.74274 0.50029 0.22626 0.0
H1581 H 0.72646 0.57442 0.24854 0.0
H1582 H 0.73016 0.56641 0.21861 0.0
H1583 H 0.7577 0.56987 0.23697 0.0
C1584 C 0.74394 0.52639 0.16305 0.0
C1585 C 0.76716 0.53527 0.15801 0.0
C1586 C 0.73516 0.52518 0.18626 0.0
C1587 C 0.74934 0.53293 0.20481 0.0
C1588 C 0.77217 0.54228 0.19967 0.0
H1589 H 0.73953 0.53256 0.35744 0.0
H1590 H 0.75353 0.53479 0.31637 0.0
C1591 C 0.78095 0.5435 0.17648 0.0
C1592 C 0.74127 0.5301 0.22963 0.0
H1593 H 0.72666 0.55306 0.28054 0.0
C1594 C 0.73902 0.51182 0.23808 0.0
C1595 C 0.73657 0.54515 0.24509 0.0
C1596 C 0.7376 0.56507 0.23683 0.0
C1597 C 0.73271 0.5082 0.26167 0.0
C1598 C 0.72817 0.52326 0.27716 0.0
C1599 C 0.73031 0.54153 0.26868 0.0
C1600 C 0.72073 0.52042 0.30213 0.0
C1601 C 0.73156 0.48829 0.26995 0.0
C1602 C 0.6978 0.51141 0.30779 0.0
C1603 C 0.68983 0.51006 0.33122 0.0
C1604 C 0.70459 0.51779 0.34941 0.0
C1605 C 0.72787 0.52636 0.34379 0.0
C1606 C 0.73581 0.52773 0.32034 0.0
H1607 H 0.74196 0.47879 0.25788 0.0
H1608 H 0.73971 0.48688 0.28789 0.0
H1609 H 0.71135 0.48376 0.27058 0.0
H1610 H 0.68562 0.50595 0.29402 0.0
H1611 H 0.67169 0.50352 0.33502 0.0
H1612 H 0.67336 0.30076 0.43004 0.0
H1613 H 0.68719 0.29683 0.47092 0.0
H1614 H 0.75354 0.26671 0.44718 0.0
H1615 H 0.73995 0.27082 0.40628 0.0
H1616 H 0.69342 0.26323 0.49373 0.0
H1617 H 0.78422 0.3027 0.49464 0.0
H1618 H 0.76091 0.3052 0.47148 0.0
H1619 H 0.78234 0.28567 0.4716 0.0
C1620 C 0.69118 0.29365 0.43352 0.0
C1621 C 0.70566 0.28619 0.41496 0.0
C1622 C 0.69899 0.29133 0.4569 0.0
C1623 C 0.72151 0.2816 0.46218 0.0
C1624 C 0.73636 0.27457 0.44359 0.0
H1625 H 0.79597 0.24572 0.59125 0.0
H1626 H 0.78196 0.24969 0.55043 0.0
C1627 C 0.72855 0.2769 0.4202 0.0
C1628 C 0.72857 0.27778 0.4871 0.0
H1629 H 0.77589 0.28354 0.5278 0.0
C1630 C 0.71139 0.26778 0.50122 0.0
C1631 C 0.75207 0.28361 0.49687 0.0
C1632 C 0.77087 0.29504 0.48296 0.0
C1633 C 0.71723 0.26319 0.52467 0.0
C1634 C 0.74074 0.269 0.53442 0.0
C1635 C 0.75792 0.27901 0.52031 0.0
C1636 C 0.74784 0.26512 0.55931 0.0
C1637 C 0.69842 0.25179 0.53861 0.0
C1638 C 0.73315 0.27223 0.57796 0.0
C1639 C 0.74107 0.26989 0.60132 0.0
C1640 C 0.76391 0.2605 0.60646 0.0
C1641 C 0.77819 0.25292 0.58784 0.0
C1642 C 0.77028 0.25527 0.5645 0.0
H1643 H 0.68494 0.24421 0.52695 0.0
H1644 H 0.70838 0.24155 0.54997 0.0
H1645 H 0.6871 0.26116 0.55009 0.0
H1646 H 0.71603 0.28018 0.57443 0.0
H1647 H 0.72982 0.27606 0.61528 0.0
H1648 H 0.48114 0.26469 0.85932 0.0
H1649 H 0.46874 0.2614 0.81792 0.0
H1650 H 0.53289 0.29513 0.79728 0.0
H1651 H 0.54567 0.29808 0.83855 0.0
H1652 H 0.45604 0.2859 0.78331 0.0
H1653 H 0.54476 0.24871 0.75858 0.0
H1654 H 0.53603 0.25302 0.7888 0.0
H1655 H 0.55045 0.27111 0.77148 0.0
C1656 C 0.49241 0.27158 0.84596 0.0
C1657 C 0.51445 0.28156 0.85215 0.0
C1658 C 0.48537 0.26964 0.82229 0.0
C1659 C 0.50025 0.27761 0.80438 0.0
C1660 C 0.52152 0.2884 0.81068 0.0
H1661 H 0.48599 0.2828 0.65181 0.0
H1662 H 0.49988 0.28583 0.6929 0.0
C1663 C 0.52864 0.29025 0.83431 0.0
C1664 C 0.4937 0.27443 0.77917 0.0
H1665 H 0.51728 0.25746 0.72722 0.0
C1666 C 0.4694 0.2796 0.7711 0.0
C1667 C 0.5111 0.26613 0.76318 0.0
C1668 C 0.53695 0.25925 0.77095 0.0
C1669 C 0.46221 0.27704 0.74747 0.0
C1670 C 0.47967 0.26891 0.7315 0.0
C1671 C 0.50396 0.26373 0.7395 0.0
C1672 C 0.47295 0.26574 0.7064 0.0
C1673 C 0.4361 0.28333 0.73964 0.0
C1674 C 0.45387 0.25294 0.70026 0.0
C1675 C 0.44608 0.25106 0.67681 0.0
C1676 C 0.4572 0.26198 0.65907 0.0
C1677 C 0.47712 0.27417 0.66509 0.0
C1678 C 0.48501 0.27596 0.68855 0.0
H1679 H 0.42697 0.29268 0.75275 0.0
H1680 H 0.43724 0.29069 0.72251 0.0
H1681 H 0.42367 0.27099 0.73726 0.0
H1682 H 0.44457 0.24471 0.71371 0.0
H1683 H 0.43066 0.24157 0.67273 0.0
H1684 H 0.42552 0.04849 0.5889 0.0
H1685 H 0.43927 0.04581 0.54782 0.0
H1686 H 0.50659 1.01614 0.56995 0.0
H1687 H 0.4928 1.0186 0.61105 0.0
H1688 H 0.48418 0.05677 0.52409 0.0
H1689 H 0.4724 0.98004 0.52346 0.0
H1690 H 0.4596 0.99458 0.54653 0.0
H1691 H 0.49293 0.98875 0.54624 0.0
C1692 C 0.44344 0.04163 0.58503 0.0
C1693 C 0.45804 0.03367 0.60316 0.0
C1694 C 0.45123 0.04006 0.56155 0.0
C1695 C 0.47366 0.03042 0.55578 0.0
C1696 C 0.48892 0.02328 0.57397 0.0
H1697 H 0.54962 1.00117 0.42526 0.0
H1698 H 0.53534 1.00403 0.46615 0.0
C1699 C 0.48115 0.02485 0.59745 0.0
C1700 C 0.48072 0.02743 0.53072 0.0
H1701 H 0.49062 0.99357 0.48942 0.0
C1702 C 0.4855 0.04297 0.51647 0.0
C1703 C 0.48237 1.0094 0.52079 0.0
C1704 C 0.47635 0.99222 0.53494 0.0
C1705 C 0.49243 0.04095 0.49271 0.0
C1706 C 0.49411 0.02291 0.48278 0.0
C1707 C 0.48928 1.00738 0.49702 0.0
C1708 C 0.50145 1.01989 0.45779 0.0
C1709 C 0.49855 0.05814 0.4786 0.0
C1710 C 0.48665 0.02723 0.4394 0.0
C1711 C 0.49475 0.02558 0.41602 0.0
C1712 C 0.51772 1.01645 0.4106 0.0
C1713 C 0.53182 1.00828 0.42891 0.0
C1714 C 0.52373 1.00995 0.45228 0.0
H1715 H 0.50256 0.07029 0.49012 0.0
H1716 H 0.51529 0.05576 0.46701 0.0
H1717 H 0.48198 0.06168 0.46732 0.0
H1718 H 0.46909 0.03458 0.44319 0.0
H1719 H 0.48347 0.03199 0.40227 0.0
H1720 H 0.42259 0.7496 0.17837 0.0
H1721 H 0.43779 0.75421 0.21873 0.0
H1722 H 0.50123 0.78624 0.19264 0.0
H1723 H 0.48587 0.78192 0.15226 0.0
H1724 H 0.48328 0.74583 0.24132 0.0
H1725 H 0.46785 0.82217 0.23896 0.0
H1726 H 0.45533 0.80675 0.21672 0.0
H1727 H 0.48832 0.81352 0.21611 0.0
C1728 C 0.43996 0.75742 0.18122 0.0
C1729 C 0.45298 0.76548 0.16218 0.0
C1730 C 0.44859 0.7601 0.2043 0.0
C1731 C 0.47033 0.77094 0.20878 0.0
C1732 C 0.48406 0.77822 0.18967 0.0
H1733 H 0.54872 0.80453 0.33712 0.0
H1734 H 0.53423 0.80054 0.29639 0.0
C1735 C 0.47542 0.77558 0.16659 0.0
C1736 C 0.4783 0.77486 0.23344 0.0
H1737 H 0.48809 0.81007 0.27295 0.0
C1738 C 0.48425 0.75987 0.24825 0.0
C1739 C 0.47953 0.7932 0.24252 0.0
C1740 C 0.47221 0.80985 0.22785 0.0
C1741 C 0.49179 0.76271 0.27173 0.0
C1742 C 0.49299 0.78104 0.2808 0.0
C1743 C 0.48714 0.79604 0.26599 0.0
C1744 C 0.50049 0.78486 0.30559 0.0
C1745 C 0.49892 0.74608 0.28649 0.0
C1746 C 0.48583 0.778 0.32435 0.0
C1747 C 0.494 0.78034 0.34762 0.0
C1748 C 0.51695 0.78965 0.35256 0.0
C1749 C 0.53094 0.79732 0.33385 0.0
C1750 C 0.52273 0.795 0.31057 0.0
H1751 H 0.50304 0.73366 0.27548 0.0
H1752 H 0.51588 0.74911 0.29755 0.0
H1753 H 0.48281 0.74261 0.29835 0.0
H1754 H 0.46832 0.77048 0.32096 0.0
H1755 H 0.48281 0.77429 0.36167 0.0
H1756 H 0.42273 0.54879 0.08979 0.0
H1757 H 0.43684 0.54621 0.04882 0.0
H1758 H 0.50223 0.51436 0.07102 0.0
H1759 H 0.48833 0.51704 0.11209 0.0
H1760 H 0.51313 0.54124 0.03599 0.0
H1761 H 0.4301 0.49741 0.01141 0.0
H1762 H 0.4221 0.51931 0.02474 0.0
H1763 H 0.43868 0.50199 0.04162 0.0
C1764 C 0.44032 0.54148 0.08597 0.0
C1765 C 0.45439 0.53304 0.10411 0.0
C1766 C 0.44823 0.53987 0.06254 0.0
C1767 C 0.47027 0.52973 0.05682 0.0
C1768 C 0.48504 0.52211 0.07503 0.0
H1769 H 0.54916 0.49853 0.92794 0.0
H1770 H 0.53464 0.50186 0.96866 0.0
C1771 C 0.47713 0.5237 0.09848 0.0
C1772 C 0.4776 0.52667 0.03185 0.0
H1773 H 0.45764 0.50652 0.98052 0.0
C1774 C 0.50105 0.53361 0.02387 0.0
C1775 C 0.46179 0.51671 0.01605 0.0
C1776 C 0.43685 0.50826 0.02386 0.0
C1777 C 0.50894 0.53113 1.00044 0.0
C1778 C 0.49319 0.52108 0.98466 0.0
C1779 C 0.46969 0.5142 0.99262 0.0
C1780 C 0.50081 0.51763 0.95983 0.0
C1781 C 0.53383 0.53966 0.99265 0.0
C1782 C 0.48595 0.52454 0.94122 0.0
C1783 C 0.49407 0.52247 0.91788 0.0
C1784 C 0.51715 0.51337 0.91278 0.0
C1785 C 0.53134 0.50567 0.93135 0.0
C1786 C 0.52319 0.50771 0.95464 0.0
H1787 H 0.54011 0.55089 1.00478 0.0
H1788 H 0.54884 0.52877 0.99249 0.0
H1789 H 0.53224 0.54548 0.97463 0.0
H1790 H 0.46849 0.5321 0.94481 0.0
H1791 H 0.48278 0.52857 0.90392 0.0
H1792 H 0.39362 0.02523 0.98165 0.0
H1793 H 0.39626 0.02419 0.93847 0.0
H1794 H 0.32357 0.99623 0.93575 0.0
H1795 H 0.32138 0.99659 0.97858 0.0
H1796 H 0.35449 0.98136 0.90479 0.0
H1797 H 0.35826 0.05792 0.89461 0.0
H1798 H 0.38406 0.04886 0.91188 0.0
H1799 H 0.35182 0.04693 0.92248 0.0
C1800 C 0.37843 1.01864 0.97179 0.0
C1801 C 0.35731 1.01101 0.98352 0.0
C1802 C 0.37977 1.01826 0.9471 0.0
C1803 C 0.3598 1.01054 0.93369 0.0
C1804 C 0.33917 1.00236 0.94554 0.0
H1805 H 0.33282 0.03328 0.78413 0.0
H1806 H 0.32961 0.03144 0.82723 0.0
C1807 C 0.33797 1.00255 0.97012 0.0
C1808 C 0.36002 1.01096 0.90738 0.0
H1809 H 0.364 0.04001 0.8599 0.0
C1810 C 0.35654 0.99421 0.89501 0.0
C1811 C 0.3621 0.02774 0.89448 0.0
C1812 C 0.364 0.04641 0.90651 0.0
C1813 C 0.3554 0.99373 0.87028 0.0
C1814 C 0.35859 1.0104 0.85735 0.0
C1815 C 0.36174 0.02719 0.8697 0.0
C1816 C 0.35928 1.0107 0.83105 0.0
C1817 C 0.35013 0.97537 0.85835 0.0
C1818 C 0.37689 0.99964 0.81873 0.0
C1819 C 0.37844 1.00047 0.79419 0.0
C1820 C 0.36275 1.01264 0.78132 0.0
C1821 C 0.34498 0.02365 0.79354 0.0
C1822 C 0.34327 1.02268 0.81818 0.0
H1823 H 0.33984 0.96569 0.87024 0.0
H1824 H 0.33864 0.97724 0.84212 0.0
H1825 H 0.3685 0.96871 0.85352 0.0
H1826 H 0.38998 0.99068 0.82814 0.0
H1827 H 0.39258 0.99199 0.78534 0.0
H1828 H 0.85932 0.30298 0.98374 0.0
H1829 H 0.8577 0.30391 0.94056 0.0
H1830 H 0.85557 0.24399 0.93851 0.0
H1831 H 0.85679 0.24303 0.98148 0.0
H1832 H 0.89285 0.28945 0.90973 0.0
H1833 H 0.79893 0.25692 0.89311 0.0
H1834 H 0.80819 0.26538 0.92177 0.0
H1835 H 0.81895 0.24299 0.91164 0.0
C1836 C 0.85791 0.29004 0.97407 0.0
C1837 C 0.85794 0.27294 0.98605 0.0
C1838 C 0.85716 0.29057 0.94937 0.0
C1839 C 0.85621 0.27403 0.93616 0.0
C1840 C 0.85571 0.25697 0.94819 0.0
H1841 H 0.86521 0.24063 0.78977 0.0
H1842 H 0.86544 0.24271 0.83279 0.0
C1843 C 0.85647 0.25644 0.97282 0.0
C1844 C 0.85732 0.27446 0.90988 0.0
H1845 H 0.82716 0.25892 0.86023 0.0
C1846 C 0.87834 0.28294 0.8989 0.0
C1847 C 0.83846 0.26595 0.89565 0.0
C1848 C 0.81474 0.25746 0.90612 0.0
C1849 C 0.88139 0.28263 0.87426 0.0
C1850 C 0.86276 0.27381 0.8601 0.0
C1851 C 0.84157 0.26557 0.87105 0.0
C1852 C 0.86487 0.27278 0.83391 0.0
C1853 C 0.90494 0.29125 0.86365 0.0
C1854 C 0.86483 0.28898 0.82009 0.0
C1855 C 0.86481 0.28781 0.79542 0.0
C1856 C 0.86474 0.27041 0.78409 0.0
C1857 C 0.86549 0.25424 0.79794 0.0
C1858 C 0.86546 0.25541 0.82256 0.0
H1859 H 0.92019 0.29333 0.87697 0.0
H1860 H 0.91257 0.28246 0.84919 0.0
H1861 H 0.89997 0.30504 0.85621 0.0
H1862 H 0.86392 0.30254 0.82835 0.0
H1863 H 0.86389 0.30052 0.78525 0.0
H1864 H 0.37579 0.24731 0.2874 0.0
H1865 H 0.3755 0.2491 0.33046 0.0
H1866 H 0.35554 0.30719 0.32665 0.0
H1867 H 0.35537 0.30537 0.28356 0.0
H1868 H 0.40175 0.26997 0.36288 0.0
H1869 H 0.29846 0.28664 0.36736 0.0
H1870 H 0.3137 0.27888 0.34063 0.0
H1871 H 0.31677 0.30266 0.35004 0.0
C1872 C 0.3717 0.26053 0.29573 0.0
C1873 C 0.36554 0.27619 0.28207 0.0
C1874 C 0.37144 0.26153 0.32037 0.0
C1875 C 0.36491 0.27818 0.3319 0.0
C1876 C 0.36 0.29407 0.31824 0.0
H1877 H 0.35481 0.30387 0.48324 0.0
H1878 H 0.35537 0.30634 0.44003 0.0
C1879 C 0.36019 0.29307 0.29359 0.0
C1880 C 0.36282 0.27871 0.35811 0.0
H1881 H 0.32113 0.28679 0.40342 0.0
C1882 C 0.38412 0.27367 0.3717 0.0
C1883 C 0.33977 0.28348 0.36974 0.0
C1884 C 0.31578 0.28806 0.35625 0.0
C1885 C 0.38304 0.27334 0.39645 0.0
C1886 C 0.36 0.27803 0.40801 0.0
C1887 C 0.33879 0.2833 0.39452 0.0
C1888 C 0.35742 0.27666 0.43404 0.0
C1889 C 0.40657 0.26799 0.41014 0.0
C1890 C 0.35752 0.25918 0.44496 0.0
C1891 C 0.3569 0.25774 0.46951 0.0
C1892 C 0.35625 0.27377 0.48372 0.0
C1893 C 0.35515 0.29128 0.47277 0.0
C1894 C 0.35559 0.2927 0.44811 0.0
H1895 H 0.42402 0.26833 0.39905 0.0
H1896 H 0.4093 0.27745 0.4254 0.0
H1897 H 0.40425 0.25367 0.41705 0.0
H1898 H 0.35865 0.24662 0.43447 0.0
H1899 H 0.35785 0.24405 0.47738 0.0
H1900 H 0.85943 0.9895 0.28246 0.0
H1901 H 0.85779 0.98665 0.32554 0.0
H1902 H 0.85582 0.04638 0.33187 0.0
H1903 H 0.85738 0.04928 0.28903 0.0
H1904 H 0.89427 1.00145 0.35749 0.0
H1905 H 0.79788 0.02967 0.37554 0.0
H1906 H 0.80753 1.02179 0.34669 0.0
H1907 H 0.81691 0.0444 0.35709 0.0
C1908 C 0.85807 1.00199 0.29305 0.0
C1909 C 0.85832 1.01961 0.28237 0.0
C1910 C 0.85731 1.00035 0.31766 0.0
C1911 C 0.85646 1.01629 0.33197 0.0
C1912 C 0.85603 0.03387 0.32124 0.0
H1913 H 0.86222 0.04806 0.4775 0.0
H1914 H 0.86237 0.04564 0.43463 0.0
C1915 C 0.85694 0.03551 0.29672 0.0
C1916 C 0.8575 1.01476 0.35811 0.0
H1917 H 0.82616 0.02754 0.40829 0.0
C1918 C 0.87925 1.00693 0.36864 0.0
C1919 C 0.83793 1.02195 0.37265 0.0
C1920 C 0.81362 0.02977 0.36246 0.0
C1921 C 0.88241 1.00681 0.39326 0.0
C1922 C 0.8631 1.01444 0.40778 0.0
C1923 C 0.84106 1.0218 0.39721 0.0
C1924 C 0.8656 1.01565 0.43389 0.0
C1925 C 0.90684 0.99921 0.40347 0.0
C1926 C 0.86787 0.99962 0.4479 0.0
C1927 C 0.86801 1.001 0.47257 0.0
C1928 C 0.86566 1.01842 0.48361 0.0
C1929 C 0.86416 0.03444 0.46954 0.0
C1930 C 0.86412 0.03307 0.44499 0.0
H1931 H 0.92206 0.99798 0.38996 0.0
H1932 H 0.91386 1.00819 0.41799 0.0
H1933 H 0.90322 0.98514 0.41073 0.0
H1934 H 0.86859 0.98599 0.43982 0.0
H1935 H 0.86885 0.9884 0.48296 0.0
H1936 H 0.60283 0.05456 0.03235 0.0
H1937 H 0.60454 0.05777 0.07542 0.0
H1938 H 0.61074 0.99826 0.08223 0.0
H1939 H 0.60914 0.99497 0.03943 0.0
H1940 H 0.57436 0.04191 0.11289 0.0
H1941 H 0.67494 1.01815 0.11611 0.0
H1942 H 0.65967 0.02536 0.08915 0.0
H1943 H 0.65391 1.00255 0.10087 0.0
C1944 C 0.60409 0.04215 0.04308 0.0
C1945 C 0.6059 0.02451 0.03249 0.0
C1946 C 0.60519 0.04401 0.06767 0.0
C1947 C 0.60833 0.02828 0.08205 0.0
C1948 C 0.60885 1.01062 0.07151 0.0
H1949 H 0.62338 1.00009 0.22845 0.0
H1950 H 0.62291 1.00169 0.18545 0.0
C1951 C 0.6077 1.00876 0.04702 0.0
C1952 C 0.61174 0.0302 0.108 0.0
H1953 H 0.65324 1.02045 0.15277 0.0
C1954 C 0.59169 0.03741 0.12162 0.0
C1955 C 0.6344 0.02437 0.11938 0.0
C1956 C 0.65708 1.01733 0.10565 0.0
C1957 C 0.5933 0.03824 0.14635 0.0
C1958 C 0.61578 0.03203 0.15778 0.0
C1959 C 0.63602 0.0252 0.14408 0.0
C1960 C 0.61812 0.03155 0.18394 0.0
C1961 C 0.57051 0.04505 0.1601 0.0
C1962 C 0.6165 0.04787 0.19752 0.0
C1963 C 0.61691 0.04699 0.2222 0.0
C1964 C 0.61901 0.02977 0.23374 0.0
C1965 C 0.62181 1.01358 0.2201 0.0
C1966 C 0.62146 1.01446 0.19549 0.0
H1967 H 0.55295 0.04538 0.14918 0.0
H1968 H 0.567 0.03609 0.17566 0.0
H1969 H 0.57426 0.05938 0.16648 0.0
H1970 H 0.61445 0.06126 0.18905 0.0
H1971 H 0.61465 0.05971 0.23222 0.0
H1972 H 0.14281 0.78853 0.04291 0.0
H1973 H 0.14286 0.78697 0.0861 0.0
H1974 H 0.09088 0.74059 0.08342 0.0
H1975 H 0.09071 0.74212 0.04045 0.0
H1976 H 0.07432 0.76984 0.1125 0.0
H1977 H 0.17409 0.7496 0.13319 0.0
H1978 H 0.17076 0.76904 0.1136 0.0
H1979 H 0.16025 0.74642 0.10436 0.0
C1980 C 0.13192 0.77772 0.05154 0.0
C1981 C 0.11683 0.76541 0.03829 0.0
C1982 C 0.13194 0.77684 0.07623 0.0
C1983 C 0.11693 0.76361 0.08804 0.0
C1984 C 0.10262 0.7509 0.07473 0.0
H1985 H 0.114 0.73903 0.2386 0.0
H1986 H 0.11457 0.73677 0.19549 0.0
C1987 C 0.10264 0.75174 0.05015 0.0
C1988 C 0.11452 0.76382 0.11416 0.0
H1989 H 0.14795 0.75857 0.16538 0.0
C1990 C 0.09041 0.76732 0.12405 0.0
C1991 C 0.13546 0.76041 0.12925 0.0
C1992 C 0.16159 0.756 0.11965 0.0
C1993 C 0.08678 0.76776 0.14856 0.0
C1994 C 0.10781 0.76472 0.16365 0.0
C1995 C 0.13184 0.76094 0.15379 0.0
C1996 C 0.10537 0.76573 0.18972 0.0
C1997 C 0.0604 0.77134 0.15816 0.0
C1998 C 0.09962 0.78269 0.2008 0.0
C1999 C 0.0993 0.78401 0.22539 0.0
C2000 C 0.10464 0.76839 0.23939 0.0
C2001 C 0.10953 0.75127 0.22828 0.0
C2002 C 0.11005 0.74999 0.20367 0.0
H2003 H 0.04545 0.76921 0.14457 0.0
H2004 H 0.05635 0.76209 0.17334 0.0
H2005 H 0.05917 0.78594 0.1644 0.0
H2006 H 0.09625 0.79507 0.19042 0.0
H2007 H 0.09574 0.79743 0.23343 0.0
H2008 H 0.60069 0.80002 0.73032 0.0
H2009 H 0.60061 0.79872 0.68728 0.0
H2010 H 0.60874 0.73911 0.68992 0.0
H2011 H 0.60872 0.74033 0.7331 0.0
H2012 H 0.6413 0.78492 0.65997 0.0
H2013 H 0.55177 0.74646 0.64083 0.0
H2014 H 0.55778 0.7574 0.66892 0.0
H2015 H 0.57281 0.73568 0.66173 0.0
C2016 C 0.60188 0.78658 0.72176 0.0
C2017 C 0.60455 0.77027 0.73515 0.0
C2018 C 0.60198 0.78587 0.69713 0.0
C2019 C 0.60454 0.76882 0.68527 0.0
C2020 C 0.60634 0.75241 0.6986 0.0
H2021 H 0.61417 0.7454 0.53307 0.0
H2022 H 0.61554 0.74213 0.57615 0.0
C2023 C 0.60633 0.75312 0.7233 0.0
C2024 C 0.60703 0.76848 0.65909 0.0
H2025 H 0.57849 0.75325 0.60847 0.0
C2026 C 0.62755 0.77798 0.64873 0.0
C2027 C 0.58928 0.75927 0.64437 0.0
C2028 C 0.56653 0.74922 0.65442 0.0
C2029 C 0.63075 0.77861 0.62416 0.0
C2030 C 0.61263 0.76984 0.60937 0.0
C2031 C 0.5924 0.75997 0.61974 0.0
C2032 C 0.61351 0.77168 0.58319 0.0
C2033 C 0.65368 0.78857 0.61428 0.0
C2034 C 0.61202 0.78933 0.57273 0.0
C2035 C 0.61134 0.7912 0.54823 0.0
C2036 C 0.612 0.77547 0.53353 0.0
C2037 C 0.61394 0.75779 0.54392 0.0
C2038 C 0.61455 0.75591 0.56854 0.0
H2039 H 0.66943 0.7893 0.62734 0.0
H2040 H 0.66087 0.78158 0.59815 0.0
H2041 H 0.64824 0.80302 0.60966 0.0
H2042 H 0.61065 0.8017 0.58355 0.0
H2043 H 0.60956 0.80501 0.54081 0.0
H2044 H 0.1104 0.9963 0.72628 0.0
H2045 H 0.10969 1.00013 0.68357 0.0
H2046 H 0.119 0.05934 0.6919 0.0
H2047 H 0.12002 0.05553 0.73485 0.0
H2048 H 0.07374 1.02059 0.65881 0.0
H2049 H 0.17142 0.04698 0.64078 0.0
H2050 H 0.16298 0.03594 0.66821 0.0
H2051 H 0.15372 0.05958 0.66269 0.0
C2052 C 0.11283 1.01011 0.71903 0.0
C2053 C 0.11543 0.0256 0.73393 0.0
C2054 C 0.11228 1.01229 0.69459 0.0
C2055 C 0.11441 0.03 0.68443 0.0
C2056 C 0.11775 0.04549 0.69925 0.0
H2057 H 0.11079 0.05914 0.53368 0.0
H2058 H 0.10884 0.06172 0.57682 0.0
C2059 C 0.11833 0.04331 0.7238 0.0
C2060 C 0.11162 0.03214 0.65847 0.0
H2061 H 0.14323 0.04511 0.60849 0.0
C2062 C 0.08892 0.02602 0.64783 0.0
C2063 C 0.1313 0.03938 0.64411 0.0
C2064 C 0.15633 0.04573 0.65442 0.0
C2065 C 0.08552 0.02666 0.62331 0.0
C2066 C 0.1055 0.03333 0.60888 0.0
C2067 C 0.1279 0.04001 0.61953 0.0
C2068 C 0.10433 0.03218 0.58271 0.0
C2069 C 0.06052 1.02015 0.61307 0.0
C2070 C 0.10221 1.01478 0.57165 0.0
C2071 C 0.10329 1.0133 0.54713 0.0
C2072 C 0.10656 0.02918 0.53308 0.0
C2073 C 0.10795 0.04669 0.54405 0.0
C2074 C 0.10701 0.04815 0.56868 0.0
H2075 H 0.04487 1.021 0.6262 0.0
H2076 H 0.05514 0.0285 0.59741 0.0
H2077 H 0.0624 1.0054 0.60757 0.0
H2078 H 0.10064 1.00222 0.58203 0.0
H2079 H 0.10243 0.9996 0.53922 0.0
H2080 H 0.35818 0.48862 0.48232 0.0
H2081 H 0.3592 0.48694 0.43922 0.0
H2082 H 0.37666 0.54546 0.43605 0.0
H2083 H 0.37604 0.54713 0.47905 0.0
H2084 H 0.32777 0.50544 0.40886 0.0
H2085 H 0.42795 0.52448 0.38997 0.0
H2086 H 0.41737 0.51779 0.41897 0.0
H2087 H 0.41223 0.54111 0.40852 0.0
C2088 C 0.36285 0.50102 0.47243 0.0
C2089 C 0.36725 0.51798 0.48409 0.0
C2090 C 0.36327 0.50007 0.44778 0.0
C2091 C 0.36826 0.51602 0.43428 0.0
C2092 C 0.37331 0.53286 0.44598 0.0
H2093 H 0.36248 0.55012 0.28919 0.0
H2094 H 0.36301 0.54741 0.33204 0.0
C2095 C 0.37291 0.53381 0.47061 0.0
C2096 C 0.36648 0.51539 0.40807 0.0
H2097 H 0.39889 0.52596 0.35762 0.0
C2098 C 0.34343 0.50971 0.39765 0.0
C2099 C 0.38688 0.52097 0.39336 0.0
C2100 C 0.41258 0.52625 0.40325 0.0
C2101 C 0.33995 0.51009 0.37307 0.0
C2102 C 0.36014 0.51611 0.35845 0.0
C2103 C 0.38334 0.52144 0.36883 0.0
C2104 C 0.35746 0.51762 0.33241 0.0
C2105 C 0.31441 0.50466 0.36298 0.0
C2106 C 0.35374 0.50179 0.31824 0.0
C2107 C 0.35336 0.50332 0.29359 0.0
C2108 C 0.35676 0.5207 0.28273 0.0
C2109 C 0.35966 0.53654 0.297 0.0
C2110 C 0.3601 0.53501 0.32152 0.0
H2111 H 0.29935 0.50404 0.37671 0.0
H2112 H 0.3084 0.51465 0.34916 0.0
H2113 H 0.31597 0.49071 0.35473 0.0
H2114 H 0.35201 0.48818 0.3262 0.0
H2115 H 0.35141 0.49084 0.28307 0.0
H2116 H 0.8342 0.76032 0.48213 0.0
H2117 H 0.832 0.7619 0.43899 0.0
H2118 H 0.90005 0.79557 0.43811 0.0
H2119 H 0.90162 0.79469 0.48097 0.0
H2120 H 0.86808 0.80856 0.40741 0.0
H2121 H 0.87428 0.73242 0.39399 0.0
H2122 H 0.84714 0.73905 0.41127 0.0
H2123 H 0.87881 0.74307 0.42242 0.0
C2124 C 0.84847 0.76822 0.47269 0.0
C2125 C 0.86807 0.77737 0.48496 0.0
C2126 C 0.84742 0.76893 0.44799 0.0
C2127 C 0.86624 0.77847 0.43509 0.0
C2128 C 0.88535 0.78803 0.44749 0.0
H2129 H 0.89472 0.7605 0.28459 0.0
H2130 H 0.89802 0.76159 0.32771 0.0
C2131 C 0.88621 0.78753 0.47208 0.0
C2132 C 0.86624 0.77866 0.40876 0.0
H2133 H 0.86564 0.75065 0.36005 0.0
C2134 C 0.86762 0.79586 0.39709 0.0
C2135 C 0.86624 0.76214 0.39512 0.0
C2136 C 0.86682 0.74313 0.40632 0.0
C2137 C 0.86866 0.79703 0.37239 0.0
C2138 C 0.86739 0.78054 0.35873 0.0
C2139 C 0.86638 0.76333 0.37039 0.0
C2140 C 0.86661 0.78083 0.33242 0.0
C2141 C 0.87178 0.81594 0.3613 0.0
C2142 C 0.84802 0.79131 0.32054 0.0
C2143 C 0.84647 0.79097 0.29597 0.0
C2144 C 0.86311 0.77982 0.28262 0.0
C2145 C 0.8818 0.76936 0.29439 0.0
C2146 C 0.88357 0.76989 0.31904 0.0
H2147 H 0.88119 0.82585 0.37356 0.0
H2148 H 0.88322 0.81519 0.34489 0.0
H2149 H 0.8527 0.82167 0.35699 0.0
H2150 H 0.83418 0.79941 0.3303 0.0
H2151 H 0.83158 0.79896 0.28747 0.0
H2152 H 0.35389 0.8043 0.78496 0.0
H2153 H 0.35365 0.80539 0.82809 0.0
H2154 H 0.37683 0.74788 0.83041 0.0
H2155 H 0.37742 0.74681 0.78736 0.0
H2156 H 0.32328 0.78442 0.85735 0.0
H2157 H 0.42505 0.77143 0.87766 0.0
H2158 H 0.41426 0.77801 0.84867 0.0
H2159 H 0.41162 0.75428 0.85835 0.0
C2160 C 0.35952 0.79202 0.79469 0.0
C2161 C 0.36587 0.7755 0.78279 0.0
C2162 C 0.35921 0.79263 0.81933 0.0
C2163 C 0.36543 0.77678 0.83256 0.0
C2164 C 0.37245 0.76041 0.82066 0.0
H2165 H 0.36184 0.74132 0.97707 0.0
H2166 H 0.3619 0.74418 0.93424 0.0
C2167 C 0.37276 0.7598 0.79602 0.0
C2168 C 0.36305 0.77696 0.85869 0.0
H2169 H 0.39571 0.76804 0.90947 0.0
C2170 C 0.33919 0.78104 0.86877 0.0
C2171 C 0.38378 0.77256 0.87363 0.0
C2172 C 0.41018 0.769 0.86407 0.0
C2173 C 0.33532 0.78021 0.89327 0.0
C2174 C 0.35593 0.77538 0.90811 0.0
C2175 C 0.37988 0.77164 0.89807 0.0
C2176 C 0.35307 0.77356 0.93407 0.0
C2177 C 0.30905 0.7839 0.90303 0.0
C2178 C 0.3476 0.78907 0.9483 0.0
C2179 C 0.3475 0.78745 0.97292 0.0
C2180 C 0.35294 0.7703 0.98367 0.0
C2181 C 0.35746 0.7547 0.96934 0.0
C2182 C 0.35762 0.75633 0.94483 0.0
H2183 H 0.29422 0.78373 0.88907 0.0
H2184 H 0.30404 0.77342 0.91659 0.0
H2185 H 0.30879 0.7978 0.91153 0.0
H2186 H 0.34437 0.80257 0.94041 0.0
H2187 H 0.34424 0.79975 0.98352 0.0
H2188 H 0.85179 0.48853 0.7833 0.0
H2189 H 0.8514 0.4866 0.82647 0.0
H2190 H 0.85726 0.54632 0.83083 0.0
H2191 H 0.85718 0.54831 0.78796 0.0
H2192 H 0.88942 0.49763 0.85635 0.0
H2193 H 0.80125 0.53636 0.87779 0.0
H2194 H 0.8081 0.52808 0.84847 0.0
H2195 H 0.82202 0.54941 0.85898 0.0
C2196 C 0.85234 0.50125 0.79351 0.0
C2197 C 0.85428 0.51858 0.78225 0.0
C2198 C 0.85229 0.50014 0.81817 0.0
C2199 C 0.854 0.51633 0.83199 0.0
C2200 C 0.85532 0.53365 0.82067 0.0
H2201 H 0.87752 0.54723 0.97723 0.0
H2202 H 0.87582 0.54515 0.93423 0.0
C2203 C 0.85535 0.53477 0.7961 0.0
C2204 C 0.85619 0.5152 0.85812 0.0
H2205 H 0.83113 0.53235 0.90928 0.0
C2206 C 0.87648 0.50503 0.86794 0.0
C2207 C 0.83934 0.52486 0.87331 0.0
C2208 C 0.81631 0.53513 0.86412 0.0
C2209 C 0.88087 0.50481 0.89238 0.0
C2210 C 0.86445 0.51491 0.90745 0.0
C2211 C 0.84388 0.52476 0.8977 0.0
C2212 C 0.86824 0.5156 0.9334 0.0
C2213 C 0.90349 0.49425 0.90188 0.0
C2214 C 0.86504 0.49961 0.94724 0.0
C2215 C 0.86602 0.50076 0.97186 0.0
C2216 C 0.87023 0.51794 0.98306 0.0
C2217 C 0.87447 0.53378 0.96913 0.0
C2218 C 0.87334 0.53263 0.94455 0.0
H2219 H 0.91713 0.49033 0.88776 0.0
H2220 H 0.9137 0.50263 0.91532 0.0
H2221 H 0.89673 0.48131 0.91048 0.0
H2222 H 0.86075 0.48636 0.93906 0.0
H2223 H 0.86243 0.48836 0.98213 0.0
H2224 H 0.60258 0.55735 0.73318 0.0
H2225 H 0.60335 0.5596 0.6901 0.0
H2226 H 0.62916 0.50278 0.68562 0.0
H2227 H 0.6283 0.50042 0.72863 0.0
H2228 H 0.64278 0.5531 0.65564 0.0
H2229 H 0.56217 0.50361 0.64693 0.0
H2230 H 0.57032 0.51462 0.67449 0.0
H2231 H 0.5885 0.49509 0.66404 0.0
C2232 C 0.60883 0.54544 0.72301 0.0
C2233 C 0.6153 0.52868 0.73426 0.0
C2234 C 0.60919 0.54674 0.6984 0.0
C2235 C 0.61583 0.53126 0.68462 0.0
C2236 C 0.62352 0.5148 0.69589 0.0
H2237 H 0.62519 0.50033 0.53936 0.0
H2238 H 0.62284 0.50273 0.58212 0.0
C2239 C 0.62322 0.51351 0.72047 0.0
C2240 C 0.61385 0.53204 0.65852 0.0
H2241 H 0.58335 0.51218 0.61168 0.0
C2242 C 0.62966 0.54428 0.646 0.0
C2243 C 0.59658 0.52062 0.64598 0.0
C2244 C 0.57823 0.50785 0.6585 0.0
C2245 C 0.62942 0.54482 0.62122 0.0
C2246 C 0.61252 0.53308 0.60866 0.0
C2247 C 0.59629 0.52118 0.62127 0.0
C2248 C 0.61262 0.53187 0.58248 0.0
C2249 C 0.64798 0.5574 0.60869 0.0
C2250 C 0.60704 0.54737 0.56828 0.0
C2251 C 0.60835 0.54602 0.54364 0.0
C2252 C 0.61514 0.52913 0.53286 0.0
C2253 C 0.61987 0.51354 0.54712 0.0
C2254 C 0.61857 0.51489 0.57161 0.0
H2255 H 0.66327 0.56245 0.62062 0.0
H2256 H 0.65695 0.5501 0.59358 0.0
H2257 H 0.6376 0.56969 0.60179 0.0
H2258 H 0.60188 0.56053 0.57624 0.0
H2259 H 0.60464 0.55826 0.53309 0.0
H2260 H 0.09863 0.29828 0.73214 0.0
H2261 H 0.09918 0.29719 0.68906 0.0
H2262 H 0.11607 0.23856 0.69138 0.0
H2263 H 0.11551 0.23956 0.73453 0.0
H2264 H 0.1426 0.28614 0.66204 0.0
H2265 H 0.05816 0.24218 0.64205 0.0
H2266 H 0.06234 0.25368 0.67006 0.0
H2267 H 0.08008 0.23297 0.6634 0.0
C2268 C 0.10189 0.28506 0.72349 0.0
C2269 C 0.10687 0.26898 0.73675 0.0
C2270 C 0.10235 0.28448 0.69885 0.0
C2271 C 0.10754 0.26778 0.68692 0.0
C2272 C 0.11165 0.25155 0.70013 0.0
H2273 H 0.12036 0.24397 0.53545 0.0
H2274 H 0.12183 0.24131 0.57855 0.0
C2275 C 0.11131 0.25214 0.72481 0.0
C2276 C 0.11031 0.26771 0.6608 0.0
H2277 H 0.08435 0.25064 0.60998 0.0
C2278 C 0.12984 0.27839 0.65066 0.0
C2279 C 0.0939 0.25741 0.64594 0.0
C2280 C 0.07229 0.24599 0.6558 0.0
C2281 C 0.13336 0.2791 0.62613 0.0
C2282 C 0.11652 0.26921 0.61118 0.0
C2283 C 0.09728 0.25823 0.62136 0.0
C2284 C 0.11768 0.27083 0.58499 0.0
C2285 C 0.15536 0.29027 0.61652 0.0
C2286 C 0.11504 0.28827 0.57417 0.0
C2287 C 0.1144 0.28981 0.54963 0.0
C2288 C 0.11615 0.27393 0.53527 0.0
C2289 C 0.11926 0.25648 0.54603 0.0
C2290 C 0.11993 0.25494 0.57066 0.0
H2291 H 0.17084 0.29177 0.62975 0.0
H2292 H 0.16341 0.28375 0.60043 0.0
H2293 H 0.14855 0.30442 0.61196 0.0
H2294 H 0.11265 0.3007 0.58472 0.0
H2295 H 0.11165 0.30343 0.54192 0.0
H2296 H 0.60036 0.23829 0.03397 0.0
H2297 H 0.60079 0.23758 0.07719 0.0
H2298 H 0.62304 0.29525 0.07864 0.0
H2299 H 0.62265 0.29605 0.03556 0.0
H2300 H 0.64045 0.24713 0.1114 0.0
H2301 H 0.55553 0.293 0.11739 0.0
H2302 H 0.56429 0.28099 0.09067 0.0
H2303 H 0.58084 0.30178 0.09923 0.0
C2304 C 0.60576 0.25072 0.04352 0.0
C2305 C 0.61144 0.26724 0.03137 0.0
C2306 C 0.60591 0.25032 0.06821 0.0
C2307 C 0.61149 0.26645 0.08117 0.0
C2308 C 0.61826 0.28272 0.06903 0.0
H2309 H 0.61935 0.30339 0.22466 0.0
H2310 H 0.61657 0.29944 0.18202 0.0
C2311 C 0.61823 0.28311 0.04439 0.0
C2312 C 0.60957 0.26654 0.10732 0.0
H2313 H 0.57766 0.28697 0.15303 0.0
C2314 C 0.62659 0.25569 0.12054 0.0
C2315 C 0.59136 0.27765 0.11922 0.0
C2316 C 0.57178 0.28891 0.10596 0.0
C2317 C 0.6266 0.25625 0.14533 0.0
C2318 C 0.60875 0.2677 0.15724 0.0
C2319 C 0.59135 0.2782 0.14396 0.0
C2320 C 0.60887 0.26992 0.18336 0.0
C2321 C 0.64639 0.24516 0.15852 0.0
C2322 C 0.60477 0.25473 0.19848 0.0
C2323 C 0.60628 0.25698 0.223 0.0
C2324 C 0.61183 0.27447 0.23281 0.0
C2325 C 0.61501 0.28974 0.21766 0.0
C2326 C 0.61347 0.28749 0.19325 0.0
H2327 H 0.66207 0.24039 0.14682 0.0
H2328 H 0.65473 0.2535 0.17307 0.0
H2329 H 0.63726 0.23269 0.1663 0.0
H2330 H 0.60067 0.2411 0.19131 0.0
H2331 H 0.60378 0.24496 0.23423 0.0
H2332 H 0.07913 0.51121 0.03332 0.0
H2333 H 0.07659 0.51269 0.07647 0.0
H2334 H 0.13919 0.55158 0.07739 0.0
H2335 H 0.14081 0.55088 0.03457 0.0
H2336 H 0.10877 0.50273 0.10869 0.0
H2337 H 0.09308 0.578 0.12083 0.0
H2338 H 0.09096 0.56707 0.09235 0.0
H2339 H 0.1215 0.57388 0.10415 0.0
C2340 C 0.0919 0.52039 0.04277 0.0
C2341 C 0.10989 0.53113 0.03053 0.0
C2342 C 0.09059 0.52115 0.06745 0.0
C2343 C 0.10739 0.53254 0.08038 0.0
C2344 C 0.12539 0.54319 0.06802 0.0
H2345 H 0.1409 0.51314 0.23037 0.0
H2346 H 0.14289 0.51416 0.18719 0.0
C2347 C 0.12639 0.54269 0.04343 0.0
C2348 C 0.10706 0.5326 0.10672 0.0
H2349 H 0.10745 0.5613 0.15474 0.0
C2350 C 0.10823 0.51555 0.11875 0.0
C2351 C 0.10604 0.54927 0.12004 0.0
C2352 C 0.10254 0.56805 0.10866 0.0
C2353 C 0.10874 0.5147 0.14351 0.0
C2354 C 0.10911 0.53141 0.15679 0.0
C2355 C 0.10763 0.54845 0.14474 0.0
C2356 C 0.10947 0.53163 0.18314 0.0
C2357 C 0.10807 0.49583 0.15508 0.0
C2358 C 0.09105 0.54196 0.19549 0.0
C2359 C 0.09045 0.54187 0.22009 0.0
C2360 C 0.10807 0.53128 0.23305 0.0
C2361 C 0.12702 0.52137 0.22085 0.0
C2362 C 0.12792 0.52175 0.19613 0.0
H2363 H 0.10004 0.48509 0.14312 0.0
H2364 H 0.12779 0.49154 0.15962 0.0
H2365 H 0.0965 0.49609 0.17144 0.0
H2366 H 0.07664 0.54979 0.18608 0.0
H2367 H 0.07553 0.54961 0.22893 0.0
H2368 H 0.3748 0.21203 0.17627 0.0
H2369 H 0.37006 0.18136 0.15812 0.0
H2370 H 0.28935 0.19091 0.15005 0.0
H2371 H 0.29405 0.22178 0.16813 0.0
H2372 H 0.34047 0.1514 0.17337 0.0
H2373 H 0.31115 0.17417 0.08396 0.0
H2374 H 0.32516 0.18989 0.10511 0.0
H2375 H 0.29229 0.18321 0.10778 0.0
C2376 C 0.35606 0.20768 0.17047 0.0
C2377 C 0.33482 0.21938 0.17359 0.0
C2378 C 0.35335 0.19009 0.16016 0.0
C2379 C 0.32939 0.18379 0.15254 0.0
C2380 C 0.30812 0.19551 0.15545 0.0
H2381 H 0.30384 0.06557 0.11352 0.0
H2382 H 0.30006 0.09599 0.1332 0.0
C2383 C 0.31081 0.21314 0.16585 0.0
C2384 C 0.32687 0.16483 0.14196 0.0
H2385 H 0.31234 0.14185 0.09095 0.0
C2386 C 0.33414 0.14929 0.1554 0.0
C2387 C 0.31878 0.16206 0.11845 0.0
C2388 C 0.31158 0.17818 0.10285 0.0
C2389 C 0.33386 0.13117 0.14591 0.0
C2390 C 0.32585 0.12841 0.12238 0.0
C2391 C 0.31827 0.14392 0.10904 0.0
C2392 C 0.32734 0.10983 0.1106 0.0
C2393 C 0.34309 0.11522 0.16089 0.0
C2394 C 0.34349 0.10748 0.09114 0.0
C2395 C 0.3456 0.09021 0.07998 0.0
C2396 C 0.3315 0.07479 0.08786 0.0
C2397 C 0.31505 0.07712 0.10717 0.0
C2398 C 0.31298 0.0945 0.11845 0.0
H2399 H 0.35324 0.12012 0.1769 0.0
H2400 H 0.3265 0.10678 0.16655 0.0
H2401 H 0.3561 0.10606 0.15069 0.0
H2402 H 0.35476 0.11902 0.0847 0.0
H2403 H 0.3584 0.08894 0.0651 0.0
H2404 H 0.92989 0.0742 0.17192 0.0
H2405 H 0.9331 0.10582 0.1557 0.0
H2406 H 0.85125 0.11111 0.15842 0.0
H2407 H 0.84802 0.07986 0.17497 0.0
H2408 H 0.91395 0.1225 0.11589 0.0
H2409 H 0.87306 0.15685 0.19444 0.0
H2410 H 0.88303 0.13284 0.19458 0.0
H2411 H 0.8524 0.13926 0.18278 0.0
C2412 C 0.9126 0.08212 0.16899 0.0
C2413 C 0.88871 0.0746 0.17499 0.0
C2414 C 0.91445 0.1002 0.15973 0.0
C2415 C 0.89246 0.11113 0.15636 0.0
C2416 C 0.86857 0.10327 0.16149 0.0
H2417 H 0.84829 0.21685 0.09839 0.0
H2418 H 0.85204 0.1861 0.11643 0.0
C2419 C 0.86673 0.0853 0.1708 0.0
C2420 C 0.89426 0.13069 0.14747 0.0
H2421 H 0.87558 0.17533 0.15957 0.0
C2422 C 0.90584 0.13408 0.12558 0.0
C2423 C 0.88383 0.14592 0.16012 0.0
C2424 C 0.87262 0.1436 0.18439 0.0
C2425 C 0.90626 0.15203 0.1156 0.0
C2426 C 0.89505 0.16711 0.12792 0.0
C2427 C 0.88406 0.1638 0.15005 0.0
C2428 C 0.89326 0.1862 0.11763 0.0
C2429 C 0.91782 0.15462 0.09153 0.0
C2430 C 0.91518 0.19679 0.11272 0.0
C2431 C 0.91306 0.21453 0.10249 0.0
C2432 C 0.88898 0.22197 0.0969 0.0
C2433 C 0.86712 0.21151 0.10238 0.0
C2434 C 0.86924 0.1939 0.1127 0.0
H2435 H 0.92128 0.14114 0.0825 0.0
H2436 H 0.90522 0.16329 0.0803 0.0
H2437 H 0.93636 0.16193 0.0933 0.0
H2438 H 0.93392 0.19133 0.11674 0.0
H2439 H 0.93026 0.22226 0.09856 0.0
H2440 H 0.67905 0.82296 0.8453 0.0
H2441 H 0.68334 0.85361 0.86425 0.0
H2442 H 0.60148 0.85865 0.86703 0.0
H2443 H 0.59711 0.82823 0.84819 0.0
H2444 H 0.6631 0.88883 0.84745 0.0
H2445 H 0.62448 0.87026 0.93508 0.0
H2446 H 0.63582 0.85303 0.91441 0.0
H2447 H 0.60465 0.86309 0.91096 0.0
C2448 C 0.662 0.83055 0.85018 0.0
C2449 C 0.63773 0.82316 0.84528 0.0
C2450 C 0.66447 0.84809 0.86092 0.0
C2451 C 0.64273 0.85841 0.86727 0.0
C2452 C 0.61854 0.85088 0.86263 0.0
H2453 H 0.59692 0.96316 0.92564 0.0
H2454 H 0.60164 0.93224 0.90838 0.0
C2455 C 0.61607 0.83349 0.85178 0.0
C2456 C 0.64499 0.87727 0.87808 0.0
H2457 H 0.6273 0.9026 0.92634 0.0
C2458 C 0.6556 0.89183 0.86483 0.0
C2459 C 0.6352 0.8812 0.90075 0.0
C2460 C 0.6246 0.86606 0.91626 0.0
C2461 C 0.65556 0.91032 0.87317 0.0
C2462 C 0.64506 0.91434 0.8956 0.0
C2463 C 0.63523 0.89963 0.90911 0.0
C2464 C 0.64268 0.93372 0.90496 0.0
C2465 C 0.6657 0.9255 0.85746 0.0
C2466 C 0.66416 0.94509 0.90871 0.0
C2467 C 0.66147 0.96295 0.91853 0.0
C2468 C 0.63726 0.96969 0.92498 0.0
C2469 C 0.61584 0.95839 0.92091 0.0
C2470 C 0.61852 0.94065 0.91108 0.0
H2471 H 0.66744 0.92082 0.83889 0.0
H2472 H 0.65317 0.93794 0.85805 0.0
H2473 H 0.68493 0.92967 0.86366 0.0
H2474 H 0.68307 0.94 0.90457 0.0
H2475 H 0.67834 0.9713 0.92156 0.0
H2476 H 0.06886 0.81809 0.90581 0.0
H2477 H 0.06763 0.84797 0.88484 0.0
H2478 H 0.08537 0.87665 0.94951 0.0
H2479 H 0.08786 0.84689 0.97008 0.0
H2480 H 0.04112 0.87932 0.88714 0.0
H2481 H 0.14112 0.89609 0.90926 0.0
H2482 H 0.12742 0.87363 0.91524 0.0
H2483 H 0.12233 0.89276 0.93523 0.0
C2484 C 0.07236 0.83081 0.91551 0.0
C2485 C 0.07876 0.83016 0.93952 0.0
C2486 C 0.07167 0.8479 0.90353 0.0
C2487 C 0.07715 0.86466 0.91537 0.0
C2488 C 0.082 0.86398 0.93968 0.0
H2489 H 0.04892 0.97648 0.85652 0.0
H2490 H 0.045 0.94688 0.87768 0.0
C2491 C 0.08318 0.84694 0.95151 0.0
C2492 C 0.07841 0.88276 0.90238 0.0
H2493 H 0.11635 0.92073 0.89333 0.0
C2494 C 0.05764 0.88833 0.8884 0.0
C2495 C 0.10011 0.89448 0.90355 0.0
C2496 C 0.1241 0.88885 0.91642 0.0
C2497 C 0.05783 0.90528 0.8759 0.0
C2498 C 0.07907 0.9174 0.87799 0.0
C2499 C 0.09988 0.9117 0.89183 0.0
C2500 C 0.08091 0.9356 0.86523 0.0
C2501 C 0.03556 0.90969 0.86005 0.0
C2502 C 0.10275 0.93964 0.85182 0.0
C2503 C 0.10534 0.95676 0.8404 0.0
C2504 C 0.08605 0.97029 0.84179 0.0
C2505 C 0.06411 0.96633 0.85509 0.0
C2506 C 0.06172 0.94927 0.86695 0.0
H2507 H 0.02514 0.8969 0.85481 0.0
H2508 H 0.02197 0.9188 0.86962 0.0
H2509 H 0.04187 0.91699 0.84388 0.0
H2510 H 0.1179 0.92949 0.85012 0.0
H2511 H 0.12247 0.95933 0.83026 0.0
H2512 H 0.29505 0.72043 0.6713 0.0
H2513 H 0.29097 0.68911 0.6542 0.0
H2514 H 0.37246 0.68191 0.6588 0.0
H2515 H 0.37653 0.71284 0.67621 0.0
H2516 H 0.31081 0.67255 0.6144 0.0
H2517 H 0.3474 0.63632 0.69327 0.0
H2518 H 0.33837 0.66053 0.69371 0.0
H2519 H 0.36919 0.65363 0.68278 0.0
C2520 C 0.31206 0.71214 0.6686 0.0
C2521 C 0.33609 0.71901 0.67537 0.0
C2522 C 0.30972 0.69424 0.65884 0.0
C2523 C 0.33134 0.68288 0.65575 0.0
C2524 C 0.35539 0.6901 0.66164 0.0
H2525 H 0.37516 0.5783 0.59545 0.0
H2526 H 0.3711 0.60875 0.6143 0.0
C2527 C 0.35772 0.70788 0.67145 0.0
C2528 C 0.32902 0.66352 0.64635 0.0
H2529 H 0.3459 0.61843 0.65774 0.0
C2530 C 0.31816 0.66069 0.62401 0.0
C2531 C 0.33844 0.64794 0.6589 0.0
C2532 C 0.34876 0.6497 0.68359 0.0
C2533 C 0.3176 0.64291 0.6135 0.0
C2534 C 0.32794 0.6275 0.62571 0.0
C2535 C 0.33809 0.63024 0.6483 0.0
C2536 C 0.32987 0.60864 0.61483 0.0
C2537 C 0.30687 0.64085 0.58901 0.0
C2538 C 0.30802 0.59818 0.60926 0.0
C2539 C 0.31031 0.58061 0.59857 0.0
C2540 C 0.33449 0.57325 0.59319 0.0
C2541 C 0.35627 0.58359 0.59927 0.0
C2542 C 0.35398 0.60103 0.61005 0.0
H2543 H 0.3036 0.65452 0.58043 0.0
H2544 H 0.31994 0.63249 0.57784 0.0
H2545 H 0.28837 0.63341 0.58993 0.0
H2546 H 0.28922 0.60361 0.61312 0.0
H2547 H 0.29319 0.57295 0.59417 0.0
H2548 H 0.92582 0.72047 0.60625 0.0
H2549 H 0.92858 0.68917 0.62351 0.0
H2550 H 0.85114 0.67822 0.60227 0.0
H2551 H 0.84815 0.70942 0.5853 0.0
H2552 H 0.89444 0.67161 0.65932 0.0
H2553 H 0.89521 0.63474 0.57336 0.0
H2554 H 0.90334 0.65905 0.57625 0.0
H2555 H 0.87055 0.65191 0.57694 0.0
C2556 C 0.90933 0.71143 0.60543 0.0
C2557 C 0.88678 0.71741 0.59434 0.0
C2558 C 0.91095 0.69354 0.61525 0.0
C2559 C 0.89018 0.68123 0.61389 0.0
C2560 C 0.86752 0.68735 0.60325 0.0
H2561 H 0.84508 0.5788 0.67894 0.0
H2562 H 0.84949 0.60979 0.66168 0.0
C2563 C 0.86581 0.70524 0.59365 0.0
C2564 C 0.89199 0.66198 0.62353 0.0
H2565 H 0.88972 0.61609 0.60752 0.0
C2566 C 0.89366 0.65948 0.64799 0.0
C2567 C 0.89111 0.64612 0.60875 0.0
C2568 C 0.89016 0.64797 0.58234 0.0
C2569 C 0.89354 0.64157 0.65803 0.0
C2570 C 0.89183 0.62576 0.64328 0.0
C2571 C 0.89099 0.62822 0.61881 0.0
C2572 C 0.88941 0.60666 0.65314 0.0
C2573 C 0.89481 0.63958 0.68441 0.0
C2574 C 0.91036 0.59446 0.65379 0.0
C2575 C 0.90795 0.57668 0.66384 0.0
C2576 C 0.88446 0.57077 0.67317 0.0
C2577 C 0.86344 0.5829 0.67194 0.0
C2578 C 0.86592 0.60065 0.66212 0.0
H2579 H 0.8994 0.65294 0.69326 0.0
H2580 H 0.87612 0.63459 0.69104 0.0
H2581 H 0.90941 0.62908 0.6893 0.0
H2582 H 0.92865 0.5988 0.64687 0.0
H2583 H 0.92449 0.56767 0.66453 0.0
H2584 H 0.67427 0.32275 0.36137 0.0
H2585 H 0.67647 0.35283 0.38184 0.0
H2586 H 0.61661 0.37389 0.33707 0.0
H2587 H 0.61277 0.34353 0.31844 0.0
H2588 H 0.68749 0.38615 0.37245 0.0
H2589 H 0.58592 0.38813 0.39675 0.0
H2590 H 0.60016 0.3678 0.38376 0.0
H2591 H 0.58856 0.38651 0.36545 0.0
C2592 C 0.66131 0.33373 0.35629 0.0
C2593 C 0.64283 0.3306 0.33883 0.0
C2594 C 0.66268 0.35101 0.36784 0.0
C2595 C 0.64603 0.36563 0.36171 0.0
C2596 C 0.6288 0.36273 0.34312 0.0
H2597 H 0.67203 0.48256 0.40154 0.0
H2598 H 0.6743 0.45181 0.38306 0.0
C2599 C 0.6268 0.34536 0.33224 0.0
C2600 C 0.64658 0.38389 0.37449 0.0
H2601 H 0.60782 0.4173 0.39792 0.0
C2602 C 0.67007 0.39284 0.37832 0.0
C2603 C 0.62403 0.39261 0.3828 0.0
C2604 C 0.59834 0.38312 0.38222 0.0
C2605 C 0.67156 0.41027 0.38967 0.0
C2606 C 0.64879 0.41962 0.39631 0.0
C2607 C 0.62539 0.41048 0.39271 0.0
C2608 C 0.6484 0.43853 0.40762 0.0
C2609 C 0.69764 0.41805 0.39501 0.0
C2610 C 0.63241 0.44185 0.42708 0.0
C2611 C 0.63 0.45968 0.43667 0.0
C2612 C 0.64414 0.47462 0.42765 0.0
C2613 C 0.66084 0.47133 0.40879 0.0
C2614 C 0.66246 0.45359 0.39848 0.0
H2615 H 0.71201 0.40677 0.39676 0.0
H2616 H 0.7038 0.42709 0.38027 0.0
H2617 H 0.69765 0.42632 0.41151 0.0
H2618 H 0.62143 0.43065 0.43478 0.0
H2619 H 0.61713 0.46172 0.45136 0.0
H2620 H 0.12538 0.33272 0.42554 0.0
H2621 H 0.12136 0.36304 0.40645 0.0
H2622 H 0.03966 0.3567 0.40444 0.0
H2623 H 0.0436 0.32613 0.4236 0.0
H2624 H 0.09737 0.37201 0.36175 0.0
H2625 H 0.05191 0.40808 0.43766 0.0
H2626 H 0.06891 0.38638 0.44092 0.0
H2627 H 0.03772 0.38661 0.42797 0.0
C2628 C 0.10653 0.33772 0.42098 0.0
C2629 C 0.0848 0.32707 0.42621 0.0
C2630 C 0.10427 0.35508 0.41005 0.0
C2631 C 0.08021 0.36231 0.40428 0.0
C2632 C 0.05841 0.35155 0.40905 0.0
H2633 H 0.04405 0.47315 0.34674 0.0
H2634 H 0.04078 0.44196 0.36412 0.0
C2635 C 0.06069 0.33405 0.41987 0.0
C2636 C 0.07831 0.38108 0.39325 0.0
H2637 H 0.06011 0.42603 0.40389 0.0
C2638 C 0.0891 0.3838 0.37092 0.0
C2639 C 0.06737 0.39646 0.40512 0.0
C2640 C 0.05592 0.39441 0.42931 0.0
C2641 C 0.08945 0.40144 0.36022 0.0
C2642 C 0.0794 0.41701 0.37245 0.0
C2643 C 0.06797 0.41419 0.39454 0.0
C2644 C 0.08132 0.43633 0.36287 0.0
C2645 C 0.10036 0.40313 0.33575 0.0
C2646 C 0.10521 0.44388 0.35703 0.0
C2647 C 0.10709 0.46162 0.34703 0.0
C2648 C 0.08515 0.47237 0.34289 0.0
C2649 C 0.0613 0.46517 0.34963 0.0
C2650 C 0.05942 0.44733 0.35955 0.0
H2651 H 0.09952 0.38967 0.32616 0.0
H2652 H 0.09001 0.41378 0.32531 0.0
H2653 H 0.12069 0.40729 0.33697 0.0
H2654 H 0.12249 0.43599 0.36005 0.0
H2655 H 0.12576 0.46683 0.34227 0.0
H2656 H 0.87264 0.08242 0.58079 0.0
H2657 H 0.8678 0.11307 0.5989 0.0
H2658 H 0.79182 0.09869 0.62125 0.0
H2659 H 0.79643 0.06784 0.60273 0.0
H2660 H 0.82425 0.14059 0.58869 0.0
H2661 H 0.83427 0.11783 0.68193 0.0
H2662 H 0.84725 0.10436 0.65788 0.0
H2663 H 0.81348 0.10492 0.66262 0.0
C2664 C 0.85487 0.08571 0.58957 0.0
C2665 C 0.83491 0.07267 0.59031 0.0
C2666 C 0.85213 0.10329 0.59987 0.0
C2667 C 0.82948 0.1082 0.61145 0.0
C2668 C 0.80951 0.09518 0.61246 0.0
H2669 H 0.79456 0.2211 0.66503 0.0
H2670 H 0.79036 0.19031 0.64643 0.0
C2671 C 0.81215 0.07757 0.60189 0.0
C2672 C 0.82712 0.12702 0.6223 0.0
H2673 H 0.83064 0.14998 0.67497 0.0
C2674 C 0.82529 0.14265 0.60757 0.0
C2675 C 0.82873 0.1297 0.64692 0.0
C2676 C 0.83114 0.11339 0.66342 0.0
C2677 C 0.82533 0.16085 0.6168 0.0
C2678 C 0.82741 0.16354 0.64138 0.0
C2679 C 0.82892 0.14791 0.65614 0.0
C2680 C 0.82974 0.18246 0.65197 0.0
C2681 C 0.82406 0.17717 0.60021 0.0
C2682 C 0.85325 0.18833 0.66112 0.0
C2683 C 0.85575 0.20593 0.67147 0.0
C2684 C 0.8347 0.218 0.6732 0.0
C2685 C 0.81115 0.21216 0.66389 0.0
C2686 C 0.80872 0.19457 0.65329 0.0
H2687 H 0.82504 0.17281 0.58147 0.0
H2688 H 0.80591 0.18481 0.60305 0.0
H2689 H 0.83994 0.18696 0.60388 0.0
H2690 H 0.86973 0.17926 0.66027 0.0
H2691 H 0.87414 0.20995 0.67849 0.0
H2692 H 0.34219 0.21353 0.59105 0.0
H2693 H 0.34486 0.18254 0.60864 0.0
H2694 H 0.4268 0.18722 0.6115 0.0
H2695 H 0.42412 0.21847 0.59441 0.0
H2696 H 0.36733 0.15164 0.59181 0.0
H2697 H 0.41183 0.16978 0.67734 0.0
H2698 H 0.39872 0.18713 0.65789 0.0
H2699 H 0.4298 0.17749 0.65233 0.0
C2700 C 0.36076 0.20803 0.59565 0.0
C2701 C 0.38294 0.21847 0.59138 0.0
C2702 C 0.36228 0.19028 0.60567 0.0
C2703 C 0.386 0.18251 0.61172 0.0
C2704 C 0.40821 0.19298 0.60754 0.0
H2705 H 0.42599 0.07224 0.66801 0.0
H2706 H 0.42765 0.10303 0.6493 0.0
C2707 C 0.40668 0.21082 0.59763 0.0
C2708 C 0.38736 0.16323 0.62149 0.0
H2709 H 0.40791 0.13763 0.66859 0.0
C2710 C 0.37618 0.14863 0.60863 0.0
C2711 C 0.39898 0.15916 0.64341 0.0
C2712 C 0.41031 0.17422 0.65867 0.0
C2713 C 0.37631 0.13022 0.61701 0.0
C2714 C 0.3877 0.1262 0.63899 0.0
C2715 C 0.39926 0.14069 0.6517 0.0
C2716 C 0.38679 0.10722 0.64954 0.0
C2717 C 0.36439 0.11515 0.60216 0.0
C2718 C 0.36331 0.09931 0.65591 0.0
C2719 C 0.36233 0.08181 0.66666 0.0
C2720 C 0.38482 0.07179 0.67128 0.0
C2721 C 0.40833 0.07959 0.66461 0.0
C2722 C 0.40931 0.0972 0.65399 0.0
H2723 H 0.36234 0.11949 0.58351 0.0
H2724 H 0.37592 0.1022 0.60284 0.0
H2725 H 0.3451 0.11196 0.60909 0.0
H2726 H 0.34571 0.10685 0.65298 0.0
H2727 H 0.34394 0.07622 0.67165 0.0
H2728 H 0.17315 0.82556 0.34955 0.0
H2729 H 0.17538 0.85648 0.36792 0.0
H2730 H 0.09336 0.86034 0.36615 0.0
H2731 H 0.09103 0.82954 0.34785 0.0
H2732 H 0.15569 0.891 0.34941 0.0
H2733 H 0.11155 0.87304 0.43513 0.0
H2734 H 0.12433 0.85567 0.4154 0.0
H2735 H 0.09357 0.86578 0.40983 0.0
C2736 C 0.1556 0.83296 0.35325 0.0
C2737 C 0.1319 0.8251 0.34728 0.0
C2738 C 0.1569 0.85065 0.36368 0.0
C2739 C 0.13453 0.8607 0.36864 0.0
C2740 C 0.11087 0.85278 0.36284 0.0
H2741 H 0.09313 0.96739 0.42852 0.0
H2742 H 0.0948 0.93642 0.41068 0.0
C2743 C 0.10956 0.83518 0.3523 0.0
C2744 C 0.13582 0.87968 0.37924 0.0
H2745 H 0.11692 0.90516 0.42699 0.0
C2746 C 0.14741 0.89409 0.36646 0.0
C2747 C 0.12495 0.88373 0.40145 0.0
C2748 C 0.11308 0.86874 0.4164 0.0
C2749 C 0.1477 0.91252 0.37493 0.0
C2750 C 0.13661 0.91663 0.39709 0.0
C2751 C 0.12536 0.90211 0.40999 0.0
C2752 C 0.13588 0.93588 0.40707 0.0
C2753 C 0.15907 0.92752 0.35965 0.0
C2754 C 0.1584 0.94605 0.41105 0.0
C2755 C 0.15745 0.96387 0.42114 0.0
C2756 C 0.13399 0.9718 0.42771 0.0
C2757 C 0.11151 0.96166 0.42366 0.0
C2758 C 0.11245 0.94392 0.4135 0.0
H2759 H 0.16018 0.92313 0.34093 0.0
H2760 H 0.14776 0.94055 0.36073 0.0
H2761 H 0.17873 0.93055 0.36575 0.0
H2762 H 0.17678 0.94007 0.40679 0.0
H2763 H 0.17512 0.9713 0.42417 0.0
H2764 H 0.62094 0.84135 0.4366 0.0
H2765 H 0.6166 0.87196 0.41835 0.0
H2766 H 0.5407 0.85792 0.39535 0.0
H2767 H 0.54477 0.82714 0.41402 0.0
H2768 H 0.57883 0.87528 0.35968 0.0
H2769 H 0.56575 0.91466 0.44307 0.0
H2770 H 0.59085 0.89756 0.44279 0.0
H2771 H 0.55826 0.89021 0.44041 0.0
C2772 C 0.60329 0.84473 0.42767 0.0
C2773 C 0.58315 0.83185 0.42682 0.0
C2774 C 0.60083 0.86227 0.41731 0.0
C2775 C 0.57826 0.8673 0.4057 0.0
C2776 C 0.55824 0.85435 0.40435 0.0
H2777 H 0.54688 0.97982 0.35039 0.0
H2778 H 0.54149 0.94911 0.36882 0.0
C2779 C 0.56059 0.83679 0.41498 0.0
C2780 C 0.57601 0.88607 0.39491 0.0
H2781 H 0.57411 0.93238 0.40866 0.0
C2782 C 0.57747 0.88776 0.37035 0.0
C2783 C 0.57418 0.90234 0.40884 0.0
C2784 C 0.57198 0.90123 0.43526 0.0
C2785 C 0.57813 0.90532 0.35945 0.0
C2786 C 0.57732 0.9216 0.37346 0.0
C2787 C 0.57483 0.9199 0.39795 0.0
C2788 C 0.58049 0.94043 0.36302 0.0
C2789 C 0.58011 0.90642 0.33302 0.0
C2790 C 0.60429 0.94587 0.35412 0.0
C2791 C 0.60749 0.96341 0.34392 0.0
C2792 C 0.58689 0.97587 0.34223 0.0
C2793 C 0.56311 0.97054 0.35147 0.0
C2794 C 0.55999 0.953 0.36194 0.0
H2795 H 0.57549 0.89293 0.32449 0.0
H2796 H 0.56711 0.91729 0.32604 0.0
H2797 H 0.59989 0.91029 0.32811 0.0
H2798 H 0.62043 0.93648 0.35501 0.0
H2799 H 0.62606 0.9671 0.33701 0.0
H2800 H 0.79958 0.57165 0.09929 0.0
H2801 H 0.79506 0.60249 0.11768 0.0
H2802 H 0.87431 0.61383 0.10375 0.0
H2803 H 0.87906 0.58307 0.08578 0.0
H2804 H 0.82807 0.61887 0.15749 0.0
H2805 H 0.8306 0.65804 0.07325 0.0
H2806 H 0.82157 0.63382 0.07482 0.0
H2807 H 0.85451 0.64031 0.077 0.0
C2808 C 0.81606 0.58068 0.10032 0.0
C2809 C 0.83967 0.57492 0.09106 0.0
C2810 C 0.81345 0.5983 0.11079 0.0
C2811 C 0.83428 0.61055 0.11185 0.0
C2812 C 0.85791 0.6047 0.10291 0.0
H2813 H 0.87494 0.7102 0.18553 0.0
H2814 H 0.87102 0.67953 0.16724 0.0
C2815 C 0.86061 0.58707 0.09271 0.0
C2816 C 0.8316 0.62948 0.12228 0.0
H2817 H 0.83377 0.67576 0.10842 0.0
C2818 C 0.82905 0.6313 0.14676 0.0
C2819 C 0.83275 0.64571 0.10825 0.0
C2820 C 0.83483 0.64451 0.08183 0.0
C2821 C 0.82856 0.64892 0.15762 0.0
C2822 C 0.83063 0.66514 0.14366 0.0
C2823 C 0.83225 0.66333 0.11911 0.0
C2824 C 0.8327 0.68398 0.15443 0.0
C2825 C 0.82622 0.65014 0.18401 0.0
C2826 C 0.81254 0.69684 0.15303 0.0
C2827 C 0.81465 0.71443 0.16369 0.0
C2828 C 0.8371 0.71952 0.17563 0.0
C2829 C 0.85737 0.70673 0.17652 0.0
C2830 C 0.85516 0.68915 0.16613 0.0
H2831 H 0.8201 0.63673 0.19187 0.0
H2832 H 0.845 0.65396 0.19162 0.0
H2833 H 0.81234 0.66113 0.18904 0.0
H2834 H 0.79508 0.69317 0.14398 0.0
H2835 H 0.79871 0.72398 0.1627 0.0
H2836 H 0.42759 0.56989 0.16545 0.0
H2837 H 0.43315 0.60079 0.14752 0.0
H2838 H 0.35565 0.6148 0.16556 0.0
H2839 H 0.34988 0.58406 0.1831 0.0
H2840 H 0.40099 0.61835 0.10981 0.0
H2841 H 0.40131 0.65773 0.1939 0.0
H2842 H 0.40838 0.63316 0.19233 0.0
H2843 H 0.37594 0.6411 0.19077 0.0
C2844 C 0.41173 0.57955 0.16548 0.0
C2845 C 0.38831 0.57454 0.17574 0.0
C2846 C 0.41494 0.5972 0.15528 0.0
C2847 C 0.39492 0.61023 0.1555 0.0
C2848 C 0.37148 0.60511 0.16548 0.0
H2849 H 0.35036 0.70815 0.08295 0.0
H2850 H 0.35669 0.67779 0.10122 0.0
C2851 C 0.36818 0.58748 0.17541 0.0
C2852 C 0.39808 0.6291 0.14505 0.0
H2853 H 0.39605 0.67545 0.15878 0.0
C2854 C 0.40028 0.63083 0.12054 0.0
C2855 C 0.39731 0.6454 0.15904 0.0
C2856 C 0.39582 0.64437 0.1855 0.0
C2857 C 0.40051 0.6484 0.10961 0.0
C2858 C 0.39854 0.66468 0.12353 0.0
C2859 C 0.39752 0.66298 0.14811 0.0
C2860 C 0.39522 0.68338 0.1127 0.0
C2861 C 0.40225 0.6495 0.08317 0.0
C2862 C 0.4147 0.69681 0.11336 0.0
C2863 C 0.4112 0.71429 0.10268 0.0
C2864 C 0.38803 0.71865 0.09148 0.0
C2865 C 0.36847 0.70526 0.09135 0.0
C2866 C 0.37207 0.68784 0.10174 0.0
H2867 H 0.40881 0.63617 0.07532 0.0
H2868 H 0.38315 0.65281 0.07589 0.0
H2869 H 0.41551 0.66075 0.0778 0.0
H2870 H 0.43268 0.69369 0.12186 0.0
H2871 H 0.42659 0.72432 0.10311 0.0
H2872 H 0.09464 0.46701 0.92067 0.0
H2873 H 0.09817 0.43593 0.90338 0.0
H2874 H 0.17992 0.44175 0.90034 0.0
H2875 H 0.17649 0.47297 0.91778 0.0
H2876 H 0.12 0.42437 0.86005 0.0
H2877 H 0.16957 0.39235 0.93645 0.0
H2878 H 0.1534 0.41448 0.93845 0.0
H2879 H 0.184 0.41292 0.92443 0.0
C2880 C 0.11339 0.46173 0.91623 0.0
C2881 C 0.1353 0.47241 0.92073 0.0
C2882 C 0.11538 0.44393 0.90634 0.0
C2883 C 0.13933 0.43631 0.9009 0.0
C2884 C 0.16126 0.44716 0.90479 0.0
H2885 H 0.17674 0.3243 0.8476 0.0
H2886 H 0.17955 0.35611 0.86334 0.0
C2887 C 0.15926 0.46505 0.9146 0.0
C2888 C 0.14104 0.41704 0.89118 0.0
H2889 H 0.16152 0.37295 0.90381 0.0
C2890 C 0.12916 0.41315 0.86959 0.0
C2891 C 0.1531 0.40237 0.90354 0.0
C2892 C 0.16561 0.4056 0.92709 0.0
C2893 C 0.1289 0.39506 0.86009 0.0
C2894 C 0.14027 0.38025 0.87278 0.0
C2895 C 0.15269 0.38422 0.89411 0.0
C2896 C 0.13873 0.36054 0.86446 0.0
C2897 C 0.11667 0.39207 0.83635 0.0
C2898 C 0.11491 0.35215 0.86057 0.0
C2899 C 0.11328 0.33406 0.85155 0.0
C2900 C 0.13544 0.32381 0.84642 0.0
C2901 C 0.15931 0.33187 0.85129 0.0
C2902 C 0.16093 0.35005 0.86026 0.0
H2903 H 0.11608 0.40514 0.82596 0.0
H2904 H 0.12704 0.38135 0.82602 0.0
H2905 H 0.09673 0.38731 0.83887 0.0
H2906 H 0.09747 0.35968 0.86428 0.0
H2907 H 0.0946 0.3282 0.84822 0.0
H2908 H 0.54908 0.31787 0.90464 0.0
H2909 H 0.548 0.34797 0.88438 0.0
H2910 H 0.61766 0.36377 0.91954 0.0
H2911 H 0.62007 0.33318 0.93766 0.0
H2912 H 0.54291 0.38121 0.89546 0.0
H2913 H 0.63906 0.3782 0.85693 0.0
H2914 H 0.62517 0.35844 0.87145 0.0
H2915 H 0.64166 0.37612 0.88818 0.0
C2916 C 0.56448 0.32761 0.90749 0.0
C2917 C 0.58506 0.32289 0.92215 0.0
C2918 C 0.56375 0.34495 0.8961 0.0
C2919 C 0.58324 0.35816 0.89965 0.0
C2920 C 0.60305 0.35369 0.91536 0.0
H2921 H 0.56316 0.4771 0.86943 0.0
H2922 H 0.56114 0.44584 0.88617 0.0
C2923 C 0.60426 0.33618 0.92599 0.0
C2924 C 0.58264 0.37673 0.88757 0.0
H2925 H 0.62049 0.40862 0.85994 0.0
C2926 C 0.55983 0.38706 0.88739 0.0
C2927 C 0.6044 0.38444 0.8764 0.0
C2928 C 0.6288 0.37359 0.873 0.0
C2929 C 0.55833 0.40482 0.87695 0.0
C2930 C 0.58067 0.41313 0.86753 0.0
C2931 C 0.60332 0.40262 0.86737 0.0
C2932 C 0.58118 0.43243 0.85736 0.0
C2933 C 0.53254 0.41406 0.87556 0.0
C2934 C 0.59405 0.43586 0.83605 0.0
C2935 C 0.59631 0.45394 0.82717 0.0
C2936 C 0.58511 0.46907 0.83893 0.0
C2937 C 0.57173 0.46573 0.85988 0.0
C2938 C 0.5703 0.4477 0.86929 0.0
H2939 H 0.51697 0.40359 0.87518 0.0
H2940 H 0.52962 0.4228 0.89143 0.0
H2941 H 0.5308 0.42292 0.85966 0.0
H2942 H 0.60261 0.42453 0.82626 0.0
H2943 H 0.60668 0.45607 0.81091 0.0
H2944 H 0.22939 0.0278 0.04509 0.0
H2945 H 0.20227 0.0333 0.01049 0.0
H2946 H 0.2614 0.06699 0.97953 0.0
H2947 H 0.28859 0.06125 0.01367 0.0
H2948 H 0.1848 0.06541 0.98307 0.0
H2949 H 0.25531 1.02072 0.93616 0.0
H2950 H 0.25446 1.0226 0.9678 0.0
H2951 H 0.26792 0.04101 0.95049 0.0
C2952 C 0.23613 0.03691 0.03126 0.0
C2953 C 0.26103 0.04394 0.03175 0.0
C2954 C 0.22075 0.03998 0.01152 0.0
C2955 C 0.23019 0.05019 0.99234 0.0
C2956 C 0.25404 0.05881 0.994 0.0
H2957 H 0.15802 0.05053 0.85124 0.0
H2958 H 0.18802 0.0592 0.8828 0.0
C2959 C 0.26945 0.05558 0.01351 0.0
C2960 C 0.21666 0.0498 0.9696 0.0
H2961 H 0.21964 0.03069 0.91462 0.0
C2962 C 0.19254 0.05807 0.96798 0.0
C2963 C 0.22693 0.04017 0.95 0.0
C2964 C 0.25248 0.03048 0.9511 0.0
C2965 C 0.17801 0.05647 0.94738 0.0
C2966 C 0.18787 0.04625 0.92817 0.0
C2967 C 0.21241 0.03869 0.92938 0.0
C2968 C 0.17135 0.04068 0.9085 0.0
C2969 C 0.1518 0.06508 0.94649 0.0
C2970 C 0.15297 0.02698 0.91249 0.0
C2971 C 0.13619 1.02194 0.89471 0.0
C2972 C 0.13746 0.03051 0.87252 0.0
C2973 C 0.1567 0.04366 0.86814 0.0
C2974 C 0.17365 0.04872 0.88612 0.0
H2975 H 0.14922 0.07581 0.96038 0.0
H2976 H 0.14828 0.0715 0.92903 0.0
H2977 H 0.13727 0.05407 0.94919 0.0
H2978 H 0.1513 1.02043 0.92959 0.0
H2979 H 0.12182 1.01157 0.89858 0.0
H2980 H 0.1287 0.24617 0.89919 0.0
H2981 H 0.10064 0.23915 0.93214 0.0
H2982 H 0.03524 0.25351 0.88981 0.0
H2983 H 0.06341 0.2603 0.85639 0.0
H2984 H 0.07167 0.26692 0.9512 0.0
H2985 H 0.01076 0.20729 0.92543 0.0
H2986 H 0.04031 0.21272 0.91062 0.0
H2987 H 0.01179 0.22556 0.90393 0.0
C2988 C 0.10828 0.24747 0.89672 0.0
C2989 C 0.09816 0.25401 0.87537 0.0
C2990 C 0.09231 0.24338 0.91554 0.0
C2991 C 0.06592 0.24577 0.9134 0.0
C2992 C 0.05556 0.25126 0.89167 0.0
H2993 H 0.93822 0.26461 0.99907 0.0
H2994 H 0.96974 0.25797 0.96905 0.0
C2995 C 0.07162 0.25522 0.87264 0.0
C2996 C 0.04988 0.24511 0.93475 0.0
H2997 H -0.00337 0.22543 0.95838 0.0
C2998 C 0.05549 0.25764 0.95298 0.0
C2999 C 0.02887 0.23298 0.93693 0.0
C3000 C 0.02266 0.21874 0.91829 0.0
C3001 C 0.0399 0.25903 0.9729 0.0
C3002 C 0.01838 0.24732 0.97476 0.0
C3003 C 0.01326 0.23431 0.95691 0.0
C3004 C -0.0007 0.24998 0.99356 0.0
C3005 C 0.04578 0.2737 0.99113 0.0
C3006 C 0.00545 0.24753 0.01741 0.0
C3007 C -0.0126 0.25149 0.03489 0.0
C3008 C 0.96296 0.25785 0.02865 0.0
C3009 C 0.95685 0.25983 1.00465 0.0
C3010 C 0.97481 0.25594 0.98735 0.0
H3011 H 0.06047 0.2837 0.98496 0.0
H3012 H 0.0283 0.28159 0.99584 0.0
H3013 H 0.05304 0.2669 1.00732 0.0
H3014 H 0.02423 0.24271 0.02249 0.0
H3015 H -0.00738 0.24966 0.05317 0.0
H3016 H 0.29234 0.23904 0.26255 0.0
H3017 H 0.26426 0.23379 0.29603 0.0
H3018 H 0.20205 0.25915 0.25806 0.0
H3019 H 0.2301 0.264 0.22405 0.0
H3020 H 0.24403 0.2621 0.31989 0.0
H3021 H 0.16673 0.21567 0.28926 0.0
H3022 H 0.19628 0.21838 0.27329 0.0
H3023 H 0.17113 0.23525 0.27016 0.0
C3024 C 0.2725 0.24312 0.26113 0.0
C3025 C 0.26335 0.25208 0.24084 0.0
C3026 C 0.2565 0.24007 0.28025 0.0
C3027 C 0.23108 0.246 0.27953 0.0
C3028 C 0.22149 0.2541 0.25881 0.0
H3029 H 0.11392 0.28004 0.36836 0.0
H3030 H 0.1445 0.27161 0.33818 0.0
C3031 C 0.2375 0.25696 0.23944 0.0
C3032 C 0.21578 0.24594 0.30138 0.0
H3033 H 0.15787 0.23397 0.32392 0.0
C3034 C 0.2254 0.25562 0.32096 0.0
C3035 C 0.19159 0.2374 0.30274 0.0
C3036 C 0.18094 0.22593 0.28281 0.0
C3037 C 0.21079 0.25794 0.34139 0.0
C3038 C 0.18606 0.25026 0.34224 0.0
C3039 C 0.17691 0.23983 0.32313 0.0
C3040 C 0.16812 0.25507 0.36126 0.0
C3041 C 0.22126 0.26949 0.36137 0.0
C3042 C 0.17152 0.24868 0.38439 0.0
C3043 C 0.15396 0.25354 0.40194 0.0
C3044 C 0.13281 0.26476 0.39643 0.0
C3045 C 0.12985 0.27126 0.37326 0.0
C3046 C 0.14728 0.26643 0.3559 0.0
H3047 H 0.23982 0.27604 0.35689 0.0
H3048 H 0.20749 0.28059 0.36624 0.0
H3049 H 0.22408 0.26053 0.37704 0.0
H3050 H 0.18751 0.23979 0.38875 0.0
H3051 H 0.15663 0.24822 0.41959 0.0
H3052 H 0.94924 1.01466 0.26405 0.0
H3053 H 0.97763 0.02313 0.29608 0.0
H3054 H 0.01035 0.06663 0.25347 0.0
H3055 H 0.98208 0.0578 0.22073 0.0
H3056 H 0.04626 0.048 0.27681 0.0
H3057 H 0.97102 0.06654 0.33999 0.0
H3058 H 0.96455 0.04384 0.32847 0.0
H3059 H 0.9646 0.06363 0.30898 0.0
C3060 C 0.9625 0.02602 0.26143 0.0
C3061 C 0.96337 0.03568 0.24 0.0
C3062 C 0.9785 0.03101 0.27986 0.0
C3063 C -0.00465 0.046 0.27748 0.0
C3064 C -0.00293 0.05526 0.25578 0.0
H3065 H 0.0795 0.05978 0.41112 0.0
H3066 H 0.05242 0.0693 0.37784 0.0
C3067 C 0.98114 0.0501 0.23708 0.0
C3068 C 0.01204 0.05091 0.29749 0.0
H3069 H 0.01056 0.05404 0.35735 0.0
C3070 C 0.0385 0.04986 0.29435 0.0
C3071 C 0.00203 0.05401 0.32031 0.0
C3072 C 0.97398 0.0573 0.32454 0.0
C3073 C 0.05499 0.0497 0.31373 0.0
C3074 C 0.04459 0.05003 0.33671 0.0
C3075 C 0.01844 0.05324 0.33973 0.0
C3076 C 0.05989 0.04448 0.35735 0.0
C3077 C 0.08332 0.0483 0.3094 0.0
C3078 C 0.0719 0.02706 0.35724 0.0
C3079 C 0.08719 1.02167 0.376 0.0
C3080 C 0.09036 0.03344 0.39547 0.0
C3081 C 0.07714 0.05043 0.39632 0.0
C3082 C 0.06195 0.05594 0.37729 0.0
H3083 H 0.08864 0.0553 0.2927 0.0
H3084 H 0.09442 0.05459 0.32402 0.0
H3085 H 0.08875 0.03343 0.30775 0.0
H3086 H 0.06974 1.01769 0.34243 0.0
H3087 H 0.09696 1.00841 0.37506 0.0
H3088 H 0.8124 1.01668 0.16444 0.0
H3089 H 0.78223 1.01256 0.13168 0.0
H3090 H 0.84386 0.99466 0.08678 0.0
H3091 H 0.87392 0.99887 0.11912 0.0
H3092 H 0.79366 0.03419 0.08781 0.0
H3093 H 0.7826 0.95814 0.07246 0.0
H3094 H 0.79065 0.9677 0.10095 0.0
H3095 H 0.81429 0.96663 0.07819 0.0
C3096 C 0.81928 1.01136 0.14776 0.0
C3097 C 0.84539 1.00826 0.14412 0.0
C3098 C 0.80213 1.00904 0.12914 0.0
C3099 C 0.81093 1.00321 0.10697 0.0
C3100 C 0.83673 0.99893 0.10385 0.0
H3101 H 0.73922 1.00283 0.96721 0.0
H3102 H 0.77089 0.99943 0.99894 0.0
C3103 C 0.85385 1.00149 0.12227 0.0
C3104 C 0.7942 1.00429 0.08623 0.0
H3105 H 0.76513 0.97833 0.04372 0.0
C3106 C 0.78729 1.02199 0.07822 0.0
C3107 C 0.78662 0.98833 0.07356 0.0
C3108 C 0.79374 0.96907 0.08169 0.0
C3109 C 0.77267 0.0242 0.05784 0.0
C3110 C 0.76437 1.00824 0.04551 0.0
C3111 C 0.77171 0.9905 0.05323 0.0
C3112 C 0.74579 1.00979 0.02619 0.0
C3113 C 0.76619 0.04359 0.04965 0.0
C3114 C 0.72138 1.0165 0.03125 0.0
C3115 C 0.70352 1.0185 0.01343 0.0
C3116 C 0.70958 1.01371 0.99005 0.0
C3117 C 0.73405 1.00675 0.98498 0.0
C3118 C 0.75206 1.00473 1.00303 0.0
H3119 H 0.77978 0.05404 0.05676 0.0
H3120 H 0.76627 0.04445 0.03015 0.0
H3121 H 0.74681 0.04731 0.05596 0.0
H3122 H 0.71613 1.02021 0.04909 0.0
H3123 H 0.68488 0.02382 0.01815 0.0
H3124 H -0.00204 0.80852 0.9717 0.0
H3125 H 0.96858 0.81614 1.00421 0.0
H3126 H -0.00698 0.76687 0.04115 0.0
H3127 H 0.02243 0.75952 0.00931 0.0
H3128 H 0.92887 0.7976 0.0258 0.0
H3129 H 0.00734 0.80746 0.08912 0.0
H3130 H 0.01262 0.80642 0.05773 0.0
H3131 H 0.01036 0.78536 0.07478 0.0
C3132 C -0.00346 0.79918 0.98658 0.0
C3133 C 0.01245 0.78352 0.9882 0.0
C3134 C 0.98004 0.80363 1.00519 0.0
C3135 C 0.97942 0.79243 0.02543 0.0
C3136 C -0.00606 0.77608 0.0261 0.0
H3137 H 0.87594 0.75769 0.12296 0.0
H3138 H 0.90381 0.76633 0.09061 0.0
C3139 C 0.01047 0.77176 1.00778 0.0
C3140 C 0.96359 0.79734 0.04605 0.0
H3141 H 0.9664 0.79815 0.10603 0.0
C3142 C 0.93707 0.79823 0.04331 0.0
C3143 C 0.97432 0.79877 0.06886 0.0
C3144 C 0.00276 0.79968 0.07276 0.0
C3145 C 0.92094 0.79851 0.06297 0.0
C3146 C 0.9317 0.79742 0.08579 0.0
C3147 C 0.95819 0.79857 0.08852 0.0
C3148 C 0.91605 0.79224 0.10639 0.0
C3149 C 0.89249 0.79907 0.0591 0.0
C3150 C 0.91502 0.80337 0.12672 0.0
C3151 C 0.89929 0.79825 0.1456 0.0
C3152 C 0.88457 0.78197 0.14419 0.0
C3153 C 0.88682 0.77045 0.12435 0.0
C3154 C 0.90253 0.77546 0.10575 0.0
H3155 H 0.88772 0.80667 0.04267 0.0
H3156 H 0.88522 0.78466 0.05722 0.0
H3157 H 0.8825 0.80582 0.07408 0.0
H3158 H 0.92575 0.81621 0.12767 0.0
H3159 H 0.89773 0.80739 0.1607 0.0
H3160 H 0.81422 0.78541 0.59891 0.0
H3161 H 0.78228 0.79296 0.62915 0.0
H3162 H 0.84181 0.79624 0.68139 0.0
H3163 H 0.87349 0.78899 0.65161 0.0
H3164 H 0.77524 0.76981 0.66775 0.0
H3165 H 0.79797 0.84111 0.6979 0.0
H3166 H 0.8089 0.83196 0.67004 0.0
H3167 H 0.82559 0.8264 0.69679 0.0
C3168 C 0.82045 0.7882 0.61674 0.0
C3169 C 0.84623 0.78639 0.62299 0.0
C3170 C 0.80226 0.7925 0.63395 0.0
C3171 C 0.80978 0.79538 0.65742 0.0
C3172 C 0.83565 0.79447 0.66333 0.0
H3173 H 0.74263 0.78479 0.79537 0.0
H3174 H 0.77194 0.78967 0.7621 0.0
C3175 C 0.8537 0.79007 0.6463 0.0
C3176 C 0.79071 0.79668 0.67645 0.0
H3177 H 0.77408 0.82204 0.72495 0.0
C3178 C 0.77465 0.78138 0.68002 0.0
C3179 C 0.7903 0.81169 0.69257 0.0
C3180 C 0.80646 0.8288 0.68902 0.0
C3181 C 0.75877 0.78037 0.69976 0.0
C3182 C 0.75881 0.79516 0.71615 0.0
C3183 C 0.77442 0.81067 0.7124 0.0
C3184 C 0.7419 0.79478 0.73681 0.0
C3185 C 0.7425 0.76329 0.70331 0.0
C3186 C 0.71562 0.79663 0.73352 0.0
C3187 C 0.69902 0.79379 0.75223 0.0
C3188 C 0.70841 0.7891 0.77466 0.0
C3189 C 0.73489 0.78831 0.77828 0.0
C3190 C 0.75159 0.79111 0.75937 0.0
H3191 H 0.74815 0.75173 0.69142 0.0
H3192 H 0.74379 0.7584 0.7218 0.0
H3193 H 0.72227 0.76681 0.69969 0.0
H3194 H 0.7079 0.79962 0.71624 0.0
H3195 H 0.67873 0.79484 0.7489 0.0
H3196 H 0.90295 0.98852 0.60551 0.0
H3197 H 0.93175 0.9811 0.6385 0.0
H3198 H 0.90693 0.03072 0.67463 0.0
H3199 H 0.8782 0.03796 0.64228 0.0
H3200 H 0.97134 1.00085 0.66061 0.0
H3201 H 0.89153 0.98955 0.72217 0.0
H3202 H 0.8872 0.99018 0.69063 0.0
H3203 H 0.88823 1.01144 0.70742 0.0
C3204 C 0.90411 0.99795 0.62035 0.0
C3205 C 0.88828 1.01368 0.62159 0.0
C3206 C 0.9203 0.99363 0.6392 0.0
C3207 C 0.92069 1.00504 0.65927 0.0
C3208 C 0.9062 1.02141 0.65964 0.0
H3209 H 0.02325 0.03847 0.76042 0.0
H3210 H -0.00422 0.03122 0.72712 0.0
C3211 C 0.89 0.02561 0.64107 0.0
C3212 C 0.93615 1.00032 0.68011 0.0
H3213 H 0.93175 0.99913 0.73994 0.0
C3214 C 0.96274 0.99999 0.67793 0.0
C3215 C 0.92486 0.99862 0.70262 0.0
C3216 C 0.89636 0.99724 0.70582 0.0
C3217 C 0.97837 0.99989 0.69793 0.0
C3218 C 0.96696 1.00062 0.72051 0.0
C3219 C 0.94044 0.99902 0.72262 0.0
C3220 C 0.98194 1.00532 0.7417 0.0
C3221 C 0.00692 0.99973 0.69463 0.0
C3222 C 0.98171 0.99388 0.76172 0.0
C3223 C -0.003 0.99828 0.78116 0.0
C3224 C 0.01262 1.01412 0.7806 0.0
C3225 C 0.01155 0.02607 0.76113 0.0
C3226 C -0.00384 1.02181 0.74198 0.0
H3227 H 0.01228 0.99227 0.67823 0.0
H3228 H 0.01388 1.01424 0.69302 0.0
H3229 H 0.01674 0.99304 0.70973 0.0
H3230 H 0.97044 0.98127 0.76197 0.0
H3231 H -0.0023 0.98881 0.79595 0.0
H3232 H 0.22925 0.53319 0.54305 0.0
H3233 H 0.2004 0.53911 0.50972 0.0
H3234 H 0.26451 0.55544 0.467 0.0
H3235 H 0.29324 0.54946 0.49974 0.0
H3236 H 0.1932 0.57201 0.47827 0.0
H3237 H 0.23271 0.50954 0.43319 0.0
H3238 H 0.23726 0.5138 0.46421 0.0
H3239 H 0.25568 0.52641 0.44291 0.0
C3240 C 0.23706 0.53831 0.52666 0.0
C3241 C 0.26349 0.54051 0.52384 0.0
C3242 C 0.22063 0.54168 0.50769 0.0
C3243 C 0.23051 0.54737 0.48588 0.0
C3244 C 0.25665 0.55074 0.48358 0.0
H3245 H 0.1568 0.54409 0.34754 0.0
H3246 H 0.18837 0.55155 0.37809 0.0
C3247 C 0.273 0.54726 0.50233 0.0
C3248 C 0.21397 0.54843 0.46493 0.0
H3249 H 0.20215 0.52697 0.41253 0.0
C3250 C 0.19514 0.56223 0.46383 0.0
C3251 C 0.2169 0.53578 0.44605 0.0
C3252 C 0.23659 0.52044 0.44659 0.0
C3253 C 0.17881 0.56355 0.44435 0.0
C3254 C 0.18115 0.55047 0.42584 0.0
C3255 C 0.20054 0.53706 0.42666 0.0
C3256 C 0.1618 0.54879 0.40704 0.0
C3257 C 0.15913 0.57886 0.44382 0.0
C3258 C 0.13655 0.54488 0.41325 0.0
C3259 C 0.11869 0.54059 0.39601 0.0
C3260 C 0.12571 0.53992 0.37213 0.0
C3261 C 0.15084 0.54447 0.36578 0.0
C3262 C 0.16883 0.54875 0.38318 0.0
H3263 H 0.16555 0.59113 0.45414 0.0
H3264 H 0.15495 0.58333 0.42553 0.0
H3265 H 0.1412 0.57373 0.4519 0.0
H3266 H 0.13084 0.54435 0.43155 0.0
H3267 H 0.09946 0.53731 0.40159 0.0
H3268 H 0.1093 0.77632 0.40617 0.0
H3269 H 0.08098 0.7652 0.43679 0.0
H3270 H 0.038 0.73404 0.38548 0.0
H3271 H 0.06663 0.74512 0.35424 0.0
H3272 H 0.00895 0.75704 0.41728 0.0
H3273 H 0.07743 0.71219 0.4649 0.0
H3274 H 0.09011 0.73477 0.45832 0.0
H3275 H 0.08204 0.71919 0.43466 0.0
C3276 C 0.0939 0.76708 0.40123 0.0
C3277 C 0.09026 0.76155 0.37772 0.0
C3278 C 0.07788 0.7606 0.41885 0.0
C3279 C 0.05792 0.74843 0.41343 0.0
C3280 C 0.05365 0.74321 0.38996 0.0
H3281 H 0.93615 0.72771 0.51436 0.0
H3282 H 0.96449 0.72145 0.48117 0.0
C3283 C 0.06985 0.74965 0.37217 0.0
C3284 C 0.04073 0.74243 0.43243 0.0
H3285 H 0.04155 0.72351 0.48744 0.0
C3286 C 0.01575 0.74929 0.4324 0.0
C3287 C 0.04988 0.73239 0.45206 0.0
C3288 C 0.07628 0.72405 0.45244 0.0
C3289 C 0.00019 0.74758 0.45229 0.0
C3290 C 0.00983 0.73838 0.47245 0.0
C3291 C 0.03432 0.7306 0.47197 0.0
C3292 C -0.00459 0.73822 0.49471 0.0
C3293 C 0.97422 0.75672 0.45209 0.0
C3294 C 0.00428 0.74855 0.51405 0.0
C3295 C -0.01174 0.75189 0.53327 0.0
C3296 C 0.96324 0.74507 0.53306 0.0
C3297 C 0.95531 0.73333 0.51468 0.0
C3298 C 0.9714 0.72978 0.49573 0.0
H3299 H 0.97183 0.7663 0.43693 0.0
H3300 H 0.95928 0.74585 0.45082 0.0
H3301 H 0.97098 0.76468 0.46857 0.0
H3302 H 0.02288 0.75508 0.51355 0.0
H3303 H -0.00529 0.76099 0.54726 0.0
H3304 H 0.28563 0.73986 0.7589 0.0
H3305 H 0.25768 0.73995 0.79323 0.0
H3306 H 0.20636 0.77743 0.75751 0.0
H3307 H 0.2341 0.77689 0.72271 0.0
H3308 H 0.25011 0.77135 0.81784 0.0
H3309 H 0.15704 0.74244 0.78963 0.0
H3310 H 0.18586 0.73928 0.77271 0.0
H3311 H 0.16822 0.7607 0.77079 0.0
C3312 C 0.26791 0.7476 0.75811 0.0
C3313 C 0.26187 0.75836 0.73828 0.0
C3314 C 0.25205 0.7477 0.77774 0.0
C3315 C 0.22999 0.7587 0.77794 0.0
C3316 C 0.22307 0.76858 0.75757 0.0
H3317 H 0.12677 0.80109 0.8804 0.0
H3318 H 0.15592 0.79616 0.84756 0.0
C3319 C 0.23885 0.76827 0.7377 0.0
C3320 C 0.21617 0.76155 0.80033 0.0
H3321 H 0.15741 0.7595 0.82579 0.0
C3322 C 0.22989 0.76856 0.81968 0.0
C3323 C 0.18984 0.75788 0.80265 0.0
C3324 C 0.17442 0.74949 0.78291 0.0
C3325 C 0.21779 0.7725 0.8411 0.0
C3326 C 0.19136 0.76932 0.84315 0.0
C3327 C 0.17772 0.762 0.824 0.0
C3328 C 0.17705 0.77416 0.86463 0.0
C3329 C 0.23308 0.78057 0.86115 0.0
C3330 C 0.18005 0.76387 0.88542 0.0
C3331 C 0.16343 0.76672 0.90437 0.0
C3332 C 0.14356 0.77974 0.9025 0.0
C3333 C 0.14181 0.79085 0.88224 0.0
C3334 C 0.15838 0.78805 0.86346 0.0
H3335 H 0.25253 0.78481 0.85554 0.0
H3336 H 0.22315 0.79284 0.86873 0.0
H3337 H 0.23497 0.77003 0.87527 0.0
H3338 H 0.19428 0.75298 0.8865 0.0
H3339 H 0.16501 0.75786 0.91971 0.0
H3340 H 0.06136 0.53195 0.91036 0.0
H3341 H 0.0326 0.5368 0.8767 0.0
H3342 H 0.09601 0.55593 0.83492 0.0
H3343 H 0.12471 0.55078 0.86809 0.0
H3344 H 0.02159 0.56757 0.84489 0.0
H3345 H 0.07114 0.50842 0.80115 0.0
H3346 H 0.07498 0.51351 0.83203 0.0
H3347 H 0.09135 0.52721 0.81038 0.0
C3348 C 0.06894 0.53761 0.89415 0.0
C3349 C 0.0952 0.5407 0.89158 0.0
C3350 C 0.05259 0.54033 0.87498 0.0
C3351 C 0.06241 0.5463 0.85326 0.0
C3352 C 0.08824 0.55094 0.85141 0.0
H3353 H -0.01155 0.54022 0.71443 0.0
H3354 H 0.01984 0.54766 0.74518 0.0
C3355 C 0.10455 0.54802 0.87036 0.0
C3356 C 0.04631 0.54595 0.83197 0.0
H3357 H 0.0383 0.52299 0.7799 0.0
C3358 C 0.02528 0.55793 0.8306 0.0
C3359 C 0.05138 0.5334 0.81333 0.0
C3360 C 0.0733 0.51978 0.81426 0.0
C3361 C 0.00886 0.55747 0.81112 0.0
C3362 C 0.01347 0.54451 0.79286 0.0
C3363 C 0.03499 0.53299 0.79388 0.0
C3364 C -0.0054 0.54103 0.7741 0.0
C3365 C 0.98656 0.57073 0.81037 0.0
C3366 C 0.97041 0.53447 0.78028 0.0
C3367 C 0.95269 0.53012 0.76296 0.0
C3368 C 0.95877 0.53212 0.73896 0.0
C3369 C 0.98317 0.53854 0.73273 0.0
C3370 C 0.00104 0.54287 0.75023 0.0
H3371 H -0.00974 0.58335 0.82113 0.0
H3372 H 0.98222 0.57504 0.79205 0.0
H3373 H 0.96948 0.56372 0.8177 0.0
H3374 H 0.96534 0.53244 0.79857 0.0
H3375 H 0.93417 0.52514 0.76855 0.0
H3376 H 0.73804 0.50013 0.46315 0.0
H3377 H 0.76762 0.49243 0.49536 0.0
H3378 H 0.73284 0.53461 0.53876 0.0
H3379 H 0.70364 0.54246 0.50701 0.0
H3380 H 0.80109 0.51988 0.52591 0.0
H3381 H 0.72473 0.48127 0.57286 0.0
H3382 H 0.72435 0.48495 0.54139 0.0
H3383 H 0.71584 0.50353 0.561 0.0
C3384 C 0.73718 0.50803 0.47937 0.0
C3385 C 0.7184 0.52174 0.48269 0.0
C3386 C 0.75389 0.50354 0.49774 0.0
C3387 C 0.75187 0.51273 0.51945 0.0
C3388 C 0.73429 0.52719 0.5222 0.0
H3389 H 0.80901 0.52111 0.65821 0.0
H3390 H 0.78216 0.51807 0.62295 0.0
C3391 C 0.7177 0.53167 0.50401 0.0
C3392 C 0.76732 0.50708 0.53983 0.0
H3393 H 0.76164 0.48918 0.59515 0.0
C3394 C 0.79276 0.51283 0.54092 0.0
C3395 C 0.75606 0.49808 0.55932 0.0
C3396 C 0.72878 0.49145 0.55865 0.0
C3397 C 0.80701 0.51063 0.56159 0.0
C3398 C 0.79554 0.50204 0.58138 0.0
C3399 C 0.77033 0.4957 0.57994 0.0
C3400 C 0.80905 0.50067 0.60411 0.0
C3401 C 0.83372 0.51846 0.56245 0.0
C3402 C 0.83218 0.49099 0.60558 0.0
C3403 C 0.84748 0.49289 0.62545 0.0
C3404 C 0.83954 0.5041 0.64431 0.0
C3405 C 0.81529 0.51227 0.64389 0.0
C3406 C 0.8001 0.51061 0.62376 0.0
H3407 H 0.8374 0.52828 0.54777 0.0
H3408 H 0.83717 0.52584 0.57934 0.0
H3409 H 0.84769 0.50692 0.56104 0.0
H3410 H 0.83908 0.4829 0.5908 0.0
H3411 H 0.86616 0.48643 0.62557 0.0
H3412 H 0.9821 0.29597 0.46802 0.0
H3413 H 0.95053 0.30169 0.49925 0.0
H3414 H 0.00398 0.28178 0.5511 0.0
H3415 H 0.03526 0.27614 0.52065 0.0
H3416 H 0.93109 0.27491 0.5316 0.0
H3417 H 0.98081 0.33186 0.57843 0.0
H3418 H -0.0116 0.32532 0.54853 0.0
H3419 H 0.0011 0.31224 0.57283 0.0
C3420 C -0.01292 0.29287 0.48608 0.0
C3421 C 0.01125 0.28569 0.49178 0.0
C3422 C 0.96912 0.29621 0.50387 0.0
C3423 C 0.97527 0.2926 0.52748 0.0
C3424 C -0.00084 0.28518 0.53307 0.0
H3425 H 0.91012 0.27644 0.6632 0.0
H3426 H 0.93835 0.2827 0.62953 0.0
C3427 C 0.01696 0.28181 0.51548 0.0
C3428 C 0.95647 0.29524 0.5465 0.0
H3429 H 0.94937 0.315 0.60077 0.0
C3430 C 0.93472 0.28396 0.54652 0.0
C3431 C 0.96151 0.30695 0.56597 0.0
C3432 C 0.98411 0.31991 0.56639 0.0
C3433 C 0.91854 0.2833 0.56611 0.0
C3434 C 0.92409 0.29454 0.58594 0.0
C3435 C 0.94532 0.30634 0.58558 0.0
C3436 C 0.90829 0.29369 0.6074 0.0
C3437 C 0.89636 0.26992 0.56586 0.0
C3438 C 0.88252 0.29865 0.60634 0.0
C3439 C 0.86652 0.29493 0.62528 0.0
C3440 C 0.87613 0.28648 0.64572 0.0
C3441 C 0.90235 0.28296 0.6476 0.0
C3442 C 0.91839 0.28649 0.62842 0.0
H3443 H 0.89818 0.25938 0.55164 0.0
H3444 H 0.8947 0.26257 0.58297 0.0
H3445 H 0.87843 0.27776 0.56288 0.0
H3446 H 0.87454 0.3046 0.59046 0.0
H3447 H 0.84638 0.29805 0.6236 0.0
H3448 H 0.699 0.26674 0.25459 0.0
H3449 H 0.72995 0.2731 0.22388 0.0
H3450 H 0.77138 0.30922 0.27088 0.0
H3451 H 0.74007 0.30297 0.30217 0.0
H3452 H 0.74154 0.31142 0.20689 0.0
H3453 H 0.82476 0.27133 0.24111 0.0
H3454 H 0.79256 0.26621 0.25033 0.0
H3455 H 0.80803 0.28688 0.26065 0.0
C3456 C 0.71476 0.27595 0.25861 0.0
C3457 C 0.71701 0.28446 0.28081 0.0
C3458 C 0.73238 0.27959 0.24096 0.0
C3459 C 0.75271 0.29171 0.24513 0.0
C3460 C 0.75572 0.29979 0.26746 0.0
H3461 H 0.87566 0.30442 0.14459 0.0
H3462 H 0.84777 0.31117 0.17789 0.0
C3463 C 0.73795 0.29614 0.28528 0.0
C3464 C 0.77023 0.29588 0.22558 0.0
H3465 H 0.82803 0.28369 0.20314 0.0
C3466 C 0.76066 0.30566 0.20613 0.0
C3467 C 0.79503 0.28833 0.22481 0.0
C3468 C 0.80586 0.27752 0.24524 0.0
C3469 C 0.77505 0.30759 0.18549 0.0
C3470 C 0.79936 0.29917 0.18424 0.0
C3471 C 0.80933 0.29011 0.20413 0.0
C3472 C 0.81439 0.29853 0.16223 0.0
C3473 C 0.76399 0.31842 0.1652 0.0
C3474 C 0.8046 0.2898 0.14199 0.0
C3475 C 0.82048 0.28616 0.12273 0.0
C3476 C 0.84637 0.29088 0.12382 0.0
C3477 C 0.85573 0.30054 0.14349 0.0
C3478 C 0.83985 0.30441 0.16249 0.0
H3479 H 0.74983 0.32884 0.1714 0.0
H3480 H 0.77911 0.32571 0.15513 0.0
H3481 H 0.75401 0.30871 0.15314 0.0
H3482 H 0.78513 0.28479 0.14162 0.0
H3483 H 0.81299 0.27854 0.1078 0.0
H3484 H 0.86108 0.52299 0.1508 0.0
H3485 H 0.89068 0.51385 0.18141 0.0
H3486 H 0.93706 0.48522 0.1302 0.0
H3487 H 0.90732 0.49453 0.09891 0.0
H3488 H 0.90632 0.47796 0.19567 0.0
H3489 H 0.98657 0.52165 0.16282 0.0
H3490 H 0.95434 0.52459 0.15234 0.0
H3491 H 0.973 0.5051 0.14265 0.0
C3492 C 0.87751 0.51473 0.14585 0.0
C3493 C 0.88191 0.50957 0.12231 0.0
C3494 C 0.89436 0.50945 0.16348 0.0
C3495 C 0.91601 0.49892 0.15804 0.0
C3496 C 0.9205 0.49352 0.13464 0.0
H3497 H 0.04058 0.48602 0.25695 0.0
H3498 H 0.01234 0.47891 0.22412 0.0
C3499 C 0.90357 0.49887 0.11683 0.0
C3500 C 0.93408 0.49446 0.17712 0.0
H3501 H -0.00823 0.50726 0.19933 0.0
C3502 C 0.92521 0.48408 0.19637 0.0
C3503 C 0.95861 0.50252 0.1779 0.0
C3504 C 0.96878 0.51419 0.15795 0.0
C3505 C 0.93993 0.4821 0.21681 0.0
C3506 C 0.96392 0.49094 0.21802 0.0
C3507 C 0.9733 0.50052 0.19832 0.0
C3508 C 0.97911 0.49166 0.2399 0.0
C3509 C 0.92954 0.47087 0.23703 0.0
C3510 C 0.96951 0.50063 0.26004 0.0
C3511 C 0.98563 0.50464 0.279 0.0
C3512 C 0.01158 0.5 0.27776 0.0
C3513 C 0.02068 0.48998 0.25822 0.0
C3514 C 0.00459 0.48584 0.23948 0.0
H3515 H 0.9153 0.4605 0.2309 0.0
H3516 H 0.94504 0.46348 0.24651 0.0
H3517 H 0.91988 0.48033 0.24963 0.0
H3518 H 0.95 0.50557 0.2605 0.0
H3519 H 0.97823 0.51245 0.29381 0.0
H3520 H 0.77921 1.00604 0.50601 0.0
H3521 H 0.74882 1.0116 0.47456 0.0
H3522 H 0.70724 0.04965 0.51905 0.0
H3523 H 0.73821 0.04439 0.5509 0.0
H3524 H 0.69639 1.00671 0.47291 0.0
H3525 H 0.72418 0.08071 0.45977 0.0
H3526 H 0.74313 0.06476 0.47698 0.0
H3527 H 0.71425 0.07428 0.48894 0.0
C3528 C 0.76353 1.01553 0.50927 0.0
C3529 C 0.76123 0.02495 0.53086 0.0
C3530 C 0.74617 1.01866 0.49125 0.0
C3531 C 0.72613 0.03128 0.49436 0.0
C3532 C 0.72293 0.04011 0.51623 0.0
H3533 H 0.60382 0.05197 0.39717 0.0
H3534 H 0.63291 0.05357 0.43068 0.0
C3535 C 0.74041 0.03694 0.53445 0.0
C3536 C 0.70911 0.03515 0.47426 0.0
H3537 H 0.69291 0.06848 0.43413 0.0
C3538 C 0.69552 1.02023 0.4645 0.0
C3539 C 0.7083 0.05279 0.46326 0.0
C3540 C 0.72336 0.06907 0.47258 0.0
C3541 C 0.68123 1.02244 0.4439 0.0
C3542 C 0.68063 0.03998 0.43281 0.0
C3543 C 0.69377 0.05503 0.4427 0.0
C3544 C 0.66528 0.04283 0.41146 0.0
C3545 C 0.66684 1.00603 0.434 0.0
C3546 C 0.67434 0.03695 0.38942 0.0
C3547 C 0.65779 0.03613 0.37013 0.0
C3548 C 0.63203 0.04093 0.37295 0.0
C3549 C 0.62359 0.04805 0.39464 0.0
C3550 C 0.64014 0.04906 0.41375 0.0
H3551 H 0.66812 0.9936 0.44553 0.0
H3552 H 0.64644 1.0097 0.4316 0.0
H3553 H 0.67466 1.00238 0.41644 0.0
H3554 H 0.69376 0.03202 0.38752 0.0
H3555 H 0.66463 0.0305 0.35361 0.0
H3556 H 0.43401 0.23889 0.50639 0.0
H3557 H 0.46316 0.23567 0.47325 0.0
H3558 H 0.519 0.26885 0.51 0.0
H3559 H 0.48991 0.2717 0.54369 0.0
H3560 H 0.47753 0.26507 0.44787 0.0
H3561 H 0.56312 0.22854 0.48131 0.0
H3562 H 0.53317 0.22861 0.49699 0.0
H3563 H 0.5545 0.24813 0.4992 0.0
C3564 C 0.45278 0.24511 0.50765 0.0
C3565 C 0.45975 0.25565 0.52747 0.0
C3566 C 0.46938 0.24325 0.48871 0.0
C3567 C 0.49323 0.25198 0.48916 0.0
C3568 C 0.50085 0.2617 0.50948 0.0
H3569 H 0.60447 0.29146 0.39609 0.0
H3570 H 0.57393 0.28397 0.42681 0.0
C3571 C 0.48426 0.26337 0.52868 0.0
C3572 C 0.50857 0.2528 0.46735 0.0
H3573 H 0.56825 0.24573 0.44533 0.0
C3574 C 0.49725 0.26054 0.44717 0.0
C3575 C 0.53419 0.24677 0.46647 0.0
C3576 C 0.54689 0.23737 0.48709 0.0
C3577 C 0.5113 0.26329 0.42649 0.0
C3578 C 0.53723 0.25811 0.42605 0.0
C3579 C 0.54829 0.2497 0.44585 0.0
C3580 C 0.55402 0.26323 0.4063 0.0
C3581 C 0.49877 0.27255 0.40568 0.0
C3582 C 0.55243 0.2543 0.38435 0.0
C3583 C 0.56995 0.2586 0.36654 0.0
C3584 C 0.58925 0.27175 0.37069 0.0
C3585 C 0.58999 0.28111 0.39241 0.0
C3586 C 0.57259 0.27686 0.41003 0.0
H3587 H 0.47899 0.27715 0.40962 0.0
H3588 H 0.51012 0.28478 0.40004 0.0
H3589 H 0.49811 0.26266 0.39068 0.0
H3590 H 0.53819 0.24367 0.38128 0.0
H3591 H 0.56908 0.2511 0.35003 0.0
H3592 H 0.72804 0.25908 0.72281 0.0
H3593 H 0.69913 0.25317 0.75613 0.0
H3594 H 0.76273 0.23417 0.79779 0.0
H3595 H 0.7915 0.24019 0.76506 0.0
H3596 H 0.69059 0.21998 0.78743 0.0
H3597 H 0.73417 0.28115 0.83217 0.0
H3598 H 0.73793 0.27689 0.80106 0.0
H3599 H 0.75594 0.26359 0.822 0.0
C3600 C 0.73567 0.25332 0.73894 0.0
C3601 C 0.76198 0.25045 0.74158 0.0
C3602 C 0.71923 0.24995 0.75789 0.0
C3603 C 0.72902 0.24357 0.77943 0.0
C3604 C 0.75497 0.23939 0.78141 0.0
H3605 H 0.65589 0.24986 0.91789 0.0
H3606 H 0.68715 0.24125 0.88756 0.0
C3607 C 0.77133 0.24289 0.7627 0.0
C3608 C 0.71276 0.24293 0.80055 0.0
H3609 H 0.70256 0.2649 0.8529 0.0
C3610 C 0.6932 0.22972 0.80182 0.0
C3611 C 0.7166 0.25551 0.81937 0.0
C3612 C 0.73716 0.27019 0.81865 0.0
C3613 C 0.67694 0.22899 0.82139 0.0
C3614 C 0.68013 0.24207 0.83979 0.0
C3615 C 0.7003 0.25482 0.83884 0.0
C3616 C 0.66087 0.24457 0.85848 0.0
C3617 C 0.65641 0.21432 0.8221 0.0
C3618 C 0.63591 0.24927 0.85211 0.0
C3619 C 0.61823 0.25421 0.86921 0.0
C3620 C 0.62515 0.25479 0.89312 0.0
C3621 C 0.65001 0.24959 0.89963 0.0
C3622 C 0.66782 0.24462 0.88236 0.0
H3623 H 0.66215 0.20177 0.81199 0.0
H3624 H 0.65193 0.21015 0.84045 0.0
H3625 H 0.63881 0.21993 0.8139 0.0
H3626 H 0.63032 0.24984 0.83378 0.0
H3627 H 0.59922 0.258 0.86348 0.0
H3628 H 0.43152 0.05905 0.75781 0.0
H3629 H 0.45972 0.06552 0.79093 0.0
H3630 H 0.52142 0.03786 0.7548 0.0
H3631 H 0.4933 0.03173 0.72122 0.0
H3632 H 0.47873 0.03736 0.81606 0.0
H3633 H 0.55806 0.08145 0.78465 0.0
H3634 H 0.52855 0.07901 0.76853 0.0
H3635 H 0.55311 0.0616 0.76606 0.0
C3636 C 0.45131 0.05478 0.75666 0.0
C3637 C 0.46025 0.04473 0.7371 0.0
C3638 C 0.46738 0.05853 0.77557 0.0
C3639 C 0.49265 0.05222 0.77532 0.0
C3640 C 0.50211 0.04319 0.75516 0.0
H3641 H 0.60814 1.01702 0.86513 0.0
H3642 H 0.57827 0.02599 0.83456 0.0
C3643 C 0.48604 0.03962 0.73603 0.0
C3644 C 0.50773 0.05255 0.7973 0.0
H3645 H 0.56617 0.06334 0.81968 0.0
C3646 C 0.49764 0.04341 0.81705 0.0
C3647 C 0.53231 0.06049 0.79853 0.0
C3648 C 0.54354 0.07136 0.77836 0.0
C3649 C 0.51213 0.04095 0.83751 0.0
C3650 C 0.53723 0.04799 0.83825 0.0
C3651 C 0.54687 0.05796 0.81898 0.0
C3652 C 0.5549 0.04298 0.8574 0.0
C3653 C 0.50112 0.02986 0.85762 0.0
C3654 C 0.55141 0.04945 0.8805 0.0
C3655 C 0.56851 0.04425 0.89826 0.0
C3656 C 0.58931 0.03262 0.89299 0.0
C3657 C 0.59243 0.02608 0.86983 0.0
C3658 C 0.57543 0.03123 0.85226 0.0
H3659 H 0.48248 0.02347 0.85306 0.0
H3660 H 0.51453 1.01867 0.86293 0.0
H3661 H 0.49828 0.03913 0.87303 0.0
H3662 H 0.53568 0.05864 0.8847 0.0
H3663 H 0.56576 0.04963 0.91588 0.0
H3664 H 0.19059 1.02212 0.51953 0.0
H3665 H 0.22233 1.01479 0.54908 0.0
H3666 H 0.27225 0.99295 0.49543 0.0
H3667 H 0.24026 1.00041 0.4652 0.0
H3668 H 0.24377 0.97936 0.55978 0.0
H3669 H 0.31588 0.03172 0.53158 0.0
H3670 H 0.28318 0.03262 0.52173 0.0
H3671 H 0.30458 1.01562 0.50969 0.0
C3672 C 0.20828 1.01579 0.51381 0.0
C3673 C 0.21289 1.01185 0.48991 0.0
C3674 C 0.22638 1.01154 0.53083 0.0
C3675 C 0.24954 1.00333 0.52443 0.0
C3676 C 0.25446 0.99943 0.50063 0.0
H3677 H 0.37799 0.99318 0.61932 0.0
H3678 H 0.34965 0.98686 0.58625 0.0
C3679 C 0.23625 1.00372 0.48342 0.0
C3680 C 0.26838 0.99935 0.54304 0.0
H3681 H 0.32417 1.01522 0.56619 0.0
C3682 C 0.26157 0.98697 0.56107 0.0
C3683 C 0.29146 1.00936 0.54461 0.0
C3684 C 0.29929 0.02318 0.52601 0.0
C3685 C 0.27699 0.9847 0.58104 0.0
C3686 C 0.29953 0.99531 0.58307 0.0
C3687 C 0.30682 1.00711 0.56457 0.0
C3688 C 0.31538 0.9953 0.60458 0.0
C3689 C 0.26891 0.97115 0.59983 0.0
C3690 C 0.30533 1.00147 0.62618 0.0
C3691 C 0.32154 1.00492 0.64528 0.0
C3692 C 0.34793 1.00255 0.64272 0.0
C3693 C 0.35767 0.99527 0.6216 0.0
C3694 C 0.34154 0.99163 0.60273 0.0
H3695 H 0.25607 0.96026 0.59261 0.0
H3696 H 0.28568 0.96431 0.60805 0.0
H3697 H 0.25833 0.97875 0.61376 0.0
H3698 H 0.28525 1.00473 0.62783 0.0
H3699 H 0.31369 1.01066 0.66135 0.0
H3700 H 0.37652 0.75705 0.62393 0.0
H3701 H 0.40442 0.76602 0.59166 0.0
H3702 H 0.42324 0.81695 0.62797 0.0
H3703 H 0.39556 0.80766 0.66093 0.0
H3704 H 0.39795 0.79742 0.56415 0.0
H3705 H 0.49302 0.79667 0.60812 0.0
H3706 H 0.46539 0.78596 0.62128 0.0
H3707 H 0.46838 0.81081 0.62101 0.0
C3708 C 0.38696 0.77001 0.62523 0.0
C3709 C 0.38406 0.78166 0.64485 0.0
C3710 C 0.40274 0.77517 0.60675 0.0
C3711 C 0.41575 0.79218 0.60738 0.0
C3712 C 0.41354 0.80368 0.62728 0.0
H3713 H 0.49348 0.81355 0.47115 0.0
H3714 H 0.46462 0.81996 0.50437 0.0
C3715 C 0.39788 0.79835 0.64608 0.0
C3716 C 0.431 0.79758 0.58665 0.0
H3717 H 0.49231 0.8001 0.56721 0.0
C3718 C 0.41859 0.79838 0.56476 0.0
C3719 C 0.45782 0.79895 0.58768 0.0
C3720 C 0.47209 0.79797 0.61071 0.0
C3721 C 0.43243 0.79885 0.54367 0.0
C3722 C 0.45932 0.79899 0.54467 0.0
C3723 C 0.47164 0.79987 0.56661 0.0
C3724 C 0.47511 0.79517 0.5237 0.0
C3725 C 0.41827 0.79773 0.52059 0.0
C3726 C 0.49016 0.77906 0.52351 0.0
C3727 C 0.50662 0.77553 0.50489 0.0
C3728 C 0.50818 0.78795 0.48594 0.0
C3729 C 0.49227 0.80366 0.48547 0.0
C3730 C 0.47592 0.80735 0.50441 0.0
H3731 H 0.39758 0.79505 0.52309 0.0
H3732 H 0.4204 0.81106 0.51102 0.0
H3733 H 0.42634 0.78652 0.50938 0.0
H3734 H 0.48959 0.76938 0.5381 0.0
H3735 H 0.51867 0.7633 0.50561 0.0
H3736 H 0.35065 0.7582 0.14748 0.0
H3737 H 0.32086 0.76551 0.17891 0.0
H3738 H 0.28226 0.80465 0.13379 0.0
H3739 H 0.31234 0.79734 0.1018 0.0
H3740 H 0.31433 0.80323 0.1975 0.0
H3741 H 0.22509 0.77071 0.16338 0.0
H3742 H 0.25618 0.76383 0.15281 0.0
H3743 H 0.24294 0.78577 0.14419 0.0
C3744 C 0.33571 0.76825 0.14407 0.0
C3745 C 0.33388 0.7773 0.12223 0.0
C3746 C 0.31875 0.77242 0.16208 0.0
C3747 C 0.29957 0.78566 0.15865 0.0
C3748 C 0.29696 0.7943 0.13664 0.0
H3749 H 0.18148 0.80775 0.26153 0.0
H3750 H 0.20986 0.8121 0.22803 0.0
C3751 C 0.31402 0.79008 0.11842 0.0
C3752 C 0.28312 0.7906 0.17871 0.0
H3753 H 0.22413 0.78292 0.20163 0.0
C3754 C 0.29447 0.79906 0.19837 0.0
C3755 C 0.25733 0.78515 0.1796 0.0
C3756 C 0.24452 0.77578 0.15897 0.0
C3757 C 0.28081 0.80171 0.21929 0.0
C3758 C 0.25536 0.79542 0.2206 0.0
C3759 C 0.24371 0.78768 0.20057 0.0
C3760 C 0.24062 0.79578 0.24274 0.0
C3761 C 0.29381 0.81105 0.23982 0.0
C3762 C 0.24892 0.7857 0.26251 0.0
C3763 C 0.23278 0.78336 0.28189 0.0
C3764 C 0.20806 0.79078 0.2814 0.0
C3765 C 0.20043 0.80174 0.2622 0.0
C3766 C 0.21659 0.80426 0.24307 0.0
H3767 H 0.30973 0.82008 0.23388 0.0
H3768 H 0.28015 0.81959 0.25016 0.0
H3769 H 0.30191 0.80026 0.25159 0.0
H3770 H 0.26724 0.77874 0.2624 0.0
H3771 H 0.23894 0.77473 0.29643 0.0
H3772 H 0.53805 0.02561 0.24691 0.0
H3773 H 0.50752 1.01899 0.21605 0.0
H3774 H 0.45658 0.9944 0.2668 0.0
H3775 H 0.48724 1.00121 0.29836 0.0
H3776 H 0.487 0.98467 0.20161 0.0
H3777 H 0.41319 0.03441 0.2337 0.0
H3778 H 0.44554 0.03472 0.2445 0.0
H3779 H 0.4238 1.01706 0.25424 0.0
C3780 C 0.5204 1.01879 0.25171 0.0
C3781 C 0.51503 1.014 0.2752 0.0
C3782 C 0.50302 1.01495 0.23394 0.0
C3783 C 0.47987 1.00627 0.23919 0.0
C3784 C 0.47434 1.00129 0.26252 0.0
H3785 H 0.35183 0.99527 0.14491 0.0
H3786 H 0.38159 0.98957 0.17698 0.0
C3787 C 0.4918 1.0052 0.28048 0.0
C3788 C 0.46148 1.00317 0.21999 0.0
H3789 H 0.40508 1.01901 0.19815 0.0
C3790 C 0.46891 0.99197 0.20091 0.0
C3791 C 0.43807 1.01285 0.21918 0.0
C3792 C 0.42963 0.02556 0.23887 0.0
C3793 C 0.45363 0.99044 0.18076 0.0
C3794 C 0.43059 1.00056 0.17971 0.0
C3795 C 0.42283 1.01129 0.19908 0.0
C3796 C 0.41425 1.00075 0.1586 0.0
C3797 C 0.46227 0.97814 0.16078 0.0
C3798 C 0.42303 1.00839 0.13732 0.0
C3799 C 0.40601 1.01156 0.11877 0.0
C3800 C 0.38007 1.00743 0.12163 0.0
C3801 C 0.37173 0.99885 0.14244 0.0
C3802 C 0.38868 0.9955 0.16073 0.0
H3803 H 0.47641 0.96764 0.16676 0.0
H3804 H 0.44585 0.97083 0.15261 0.0
H3805 H 0.47146 0.98684 0.14708 0.0
H3806 H 0.44267 1.01282 0.13553 0.0
H3807 H 0.41278 1.01823 0.10288 0.0
H3808 H 0.65774 0.54731 0.84731 0.0
H3809 H 0.68962 0.5557 0.8772 0.0
H3810 H 0.64315 0.53035 0.9309 0.0
H3811 H 0.61147 0.52209 0.90168 0.0
H3812 H 0.66265 0.56629 0.94286 0.0
H3813 H 0.73691 0.5172 0.9098 0.0
H3814 H 0.72381 0.53368 0.88931 0.0
H3815 H 0.704 0.5155 0.90078 0.0
C3816 C 0.65441 0.54349 0.86548 0.0
C3817 C 0.63213 0.53394 0.87205 0.0
C3818 C 0.67257 0.54831 0.88249 0.0
C3819 C 0.66865 0.54358 0.90617 0.0
C3820 C 0.6464 0.53421 0.91271 0.0
H3821 H 0.73432 0.53332 0.04173 0.0
H3822 H 0.70576 0.53927 1.00835 0.0
C3823 C 0.62836 0.52942 0.89588 0.0
C3824 C 0.68783 0.54758 0.92445 0.0
H3825 H 0.74473 0.53211 0.94564 0.0
C3826 C 0.68083 0.55909 0.94336 0.0
C3827 C 0.71143 0.53813 0.92494 0.0
C3828 C 0.71959 0.52533 0.90524 0.0
C3829 C 0.6965 0.56089 0.96322 0.0
C3830 C 0.71946 0.55065 0.96424 0.0
C3831 C 0.72702 0.53988 0.94482 0.0
C3832 C 0.73548 0.54997 0.9856 0.0
C3833 C 0.68818 0.57352 0.98298 0.0
C3834 C 0.76149 0.55414 0.9839 0.0
C3835 C 0.77774 0.55046 1.00266 0.0
C3836 C 0.76828 0.5426 0.02355 0.0
C3837 C 0.74201 0.53945 0.02585 0.0
C3838 C 0.72571 0.54295 1.00685 0.0
H3839 H 0.67507 0.58455 0.97658 0.0
H3840 H 0.6778 0.56523 0.99635 0.0
H3841 H 0.70481 0.5802 0.99165 0.0
H3842 H 0.76939 0.55956 0.96768 0.0
H3843 H 0.7979 0.55327 1.00053 0.0
H3844 H 0.5616 0.76643 0.85548 0.0
H3845 H 0.53284 0.76286 0.88934 0.0
H3846 H 0.59574 0.7434 0.9316 0.0
H3847 H 0.62448 0.74731 0.89822 0.0
H3848 H 0.52037 0.73323 0.92048 0.0
H3849 H 0.57207 0.79033 0.96613 0.0
H3850 H 0.57649 0.78531 0.9353 0.0
H3851 H 0.59174 0.77113 0.9572 0.0
C3852 C 0.56909 0.76104 0.87187 0.0
C3853 C 0.59524 0.75744 0.87443 0.0
C3854 C 0.55273 0.75906 0.89118 0.0
C3855 C 0.56239 0.75333 0.91307 0.0
C3856 C 0.5881 0.7483 0.91502 0.0
H3857 H 0.48696 0.7538 0.05159 0.0
H3858 H 0.51879 0.74847 0.02048 0.0
C3859 C 0.60443 0.75048 0.89592 0.0
C3860 C 0.54611 0.75384 0.93427 0.0
H3861 H 0.53893 0.77576 0.98721 0.0
C3862 C 0.52446 0.74245 0.93512 0.0
C3863 C 0.55163 0.76587 0.95336 0.0
C3864 C 0.57411 0.77898 0.95297 0.0
C3865 C 0.50797 0.74291 0.95453 0.0
C3866 C 0.51319 0.75524 0.97334 0.0
C3867 C 0.5352 0.76624 0.9728 0.0
C3868 C 0.49456 0.75844 0.99236 0.0
C3869 C 0.48491 0.73038 0.95467 0.0
C3870 C 0.47094 0.76632 0.98681 0.0
C3871 C 0.45298 0.76949 1.00435 0.0
C3872 C 0.45827 0.76489 0.02793 0.0
C3873 C 0.48231 0.75747 0.03362 0.0
C3874 C 0.50042 0.75434 0.0159 0.0
H3875 H 0.48746 0.71829 0.9427 0.0
H3876 H 0.48088 0.72519 0.97269 0.0
H3877 H 0.46804 0.73835 0.94855 0.0
H3878 H 0.46635 0.77001 0.96882 0.0
H3879 H 0.43481 0.7754 0.99924 0.0
H3880 H 0.65435 0.75183 0.41376 0.0
H3881 H 0.68574 0.74609 0.38226 0.0
H3882 H 0.65011 0.78851 0.3399 0.0
H3883 H 0.61941 0.79447 0.37093 0.0
H3884 H 0.67379 0.73504 0.33509 0.0
H3885 H 0.72558 0.80204 0.33671 0.0
H3886 H 0.70619 0.79418 0.361 0.0
H3887 H 0.69166 0.80522 0.33594 0.0
C3888 C 0.65366 0.76015 0.3979 0.0
C3889 C 0.63446 0.77356 0.39478 0.0
C3890 C 0.67141 0.75679 0.37992 0.0
C3891 C 0.67032 0.76703 0.3589 0.0
C3892 C 0.65154 0.78068 0.35612 0.0
H3893 H 0.733 0.77265 0.21977 0.0
H3894 H 0.70373 0.7714 0.25356 0.0
C3895 C 0.63389 0.78397 0.37386 0.0
C3896 C 0.68765 0.76307 0.33903 0.0
H3897 H 0.72809 0.78453 0.30074 0.0
C3898 C 0.68602 0.74571 0.32776 0.0
C3899 C 0.70348 0.77707 0.32952 0.0
C3900 C 0.70705 0.79561 0.34157 0.0
C3901 C 0.69908 0.74231 0.30661 0.0
C3902 C 0.7139 0.75664 0.29663 0.0
C3903 C 0.71617 0.77374 0.30827 0.0
C3904 C 0.72845 0.75404 0.27469 0.0
C3905 C 0.69652 0.72368 0.29465 0.0
C3906 C 0.7515 0.74426 0.27534 0.0
C3907 C 0.7682 0.74511 0.25631 0.0
C3908 C 0.762 0.75568 0.23631 0.0
C3909 C 0.73804 0.76428 0.23491 0.0
C3910 C 0.72143 0.76363 0.25417 0.0
H3911 H 0.68198 0.71475 0.30324 0.0
H3912 H 0.69129 0.72561 0.27588 0.0
H3913 H 0.71516 0.71636 0.29515 0.0
H3914 H 0.7573 0.73696 0.29113 0.0
H3915 H 0.78659 0.73832 0.25775 0.0
H3916 H 0.44731 0.50811 0.26024 0.0
H3917 H 0.47493 0.51529 0.29344 0.0
H3918 H 0.50436 0.56303 0.25642 0.0
H3919 H 0.47703 0.55549 0.22252 0.0
H3920 H 0.54139 0.54478 0.2784 0.0
H3921 H 0.46299 0.55513 0.34157 0.0
H3922 H 0.45982 0.53284 0.32783 0.0
H3923 H 0.45754 0.55363 0.31025 0.0
C3924 C 0.45983 0.52006 0.25907 0.0
C3925 C 0.46 0.53133 0.23893 0.0
C3926 C 0.47532 0.5243 0.27818 0.0
C3927 C 0.49089 0.54013 0.27777 0.0
C3928 C 0.49208 0.55095 0.25722 0.0
H3929 H 0.57477 0.55912 0.41106 0.0
H3930 H 0.54468 0.56554 0.37871 0.0
C3931 C 0.47672 0.54654 0.23783 0.0
C3932 C 0.50663 0.5446 0.29861 0.0
H3933 H 0.5039 0.54571 0.35861 0.0
C3934 C 0.53316 0.54545 0.29589 0.0
C3935 C 0.49589 0.54603 0.32143 0.0
C3936 C 0.46747 0.54709 0.32538 0.0
C3937 C 0.54929 0.54591 0.3155 0.0
C3938 C 0.53856 0.545 0.33832 0.0
C3939 C 0.51206 0.54596 0.34108 0.0
C3940 C 0.5545 0.54075 0.35904 0.0
C3941 C 0.57774 0.54661 0.31159 0.0
C3942 C 0.56874 0.52426 0.35916 0.0
C3943 C 0.58573 0.52065 0.37734 0.0
C3944 C 0.58845 0.53329 0.39598 0.0
C3945 C 0.57283 0.54915 0.39687 0.0
C3946 C 0.55588 0.55288 0.37839 0.0
H3947 H 0.58241 0.55373 0.29479 0.0
H3948 H 0.58758 0.55393 0.32622 0.0
H3949 H 0.5853 0.53222 0.31048 0.0
H3950 H 0.56729 0.51442 0.34476 0.0
H3951 H 0.59738 0.50821 0.37643 0.0
H3952 H 0.31242 0.49844 0.16704 0.0
H3953 H 0.28176 0.48997 0.13601 0.0
H3954 H 0.33021 0.51553 0.08403 0.0
H3955 H 0.3605 0.52401 0.11429 0.0
H3956 H 0.25704 0.51489 0.10347 0.0
H3957 H 0.31693 0.4632 0.05699 0.0
H3958 H 0.32293 0.47028 0.08701 0.0
H3959 H 0.33356 0.4845 0.0629 0.0
C3960 C 0.31645 0.50226 0.149 0.0
C3961 C 0.33899 0.5118 0.14319 0.0
C3962 C 0.29904 0.49733 0.13133 0.0
C3963 C 0.30416 0.50171 0.10773 0.0
C3964 C 0.3263 0.51155 0.10206 0.0
H3965 H 0.24097 0.5147 0.97208 0.0
H3966 H 0.26856 0.50946 1.0064 0.0
C3967 C 0.34352 0.51651 0.11952 0.0
C3968 C 0.286 0.49718 0.08874 0.0
H3969 H 0.28331 0.47736 0.03418 0.0
C3970 C 0.26242 0.50633 0.08854 0.0
C3971 C 0.29329 0.48609 0.0693 0.0
C3972 C 0.31797 0.47531 0.06911 0.0
C3973 C 0.24658 0.50567 0.06869 0.0
C3974 C 0.25445 0.49527 0.04878 0.0
C3975 C 0.27747 0.48539 0.04943 0.0
C3976 C 0.2395 0.4954 0.02677 0.0
C3977 C 0.22226 0.51694 0.0687 0.0
C3978 C 0.21463 0.48838 0.02655 0.0
C3979 C 0.19894 0.49146 1.00719 0.0
C3980 C 0.20798 0.5014 0.9876 0.0
C3981 C 0.23359 0.507 0.98696 0.0
C3982 C 0.24928 0.50406 1.00654 0.0
H3983 H 0.22167 0.52711 0.08342 0.0
H3984 H 0.22004 0.5246 0.05187 0.0
H3985 H 0.20571 0.50745 0.07063 0.0
H3986 H 0.20697 0.48131 0.04181 0.0
H3987 H 0.17934 0.48674 1.00797 0.0
H3988 H 0.40721 0.29421 0.16662 0.0
H3989 H 0.43737 0.30282 0.13535 0.0
H3990 H 0.38277 0.28569 0.0829 0.0
H3991 H 0.35279 0.27738 0.11341 0.0
H3992 H 0.45718 0.27904 0.10186 0.0
H3993 H 0.4048 0.3358 0.05774 0.0
H3994 H 0.39685 0.32789 0.08699 0.0
H3995 H 0.38505 0.31569 0.06152 0.0
C3996 C 0.4016 0.29246 0.14842 0.0
C3997 C 0.37759 0.28508 0.14259 0.0
C3998 C 0.41877 0.29744 0.13061 0.0
C3999 C 0.41201 0.2953 0.10683 0.0
C4000 C 0.38808 0.28801 0.10109 0.0
H4001 H 0.47663 0.28091 0.97078 0.0
H4002 H 0.44838 0.28651 1.00466 0.0
C4003 C 0.37104 0.28304 0.1187 0.0
C4004 C 0.43049 0.29884 0.08774 0.0
H4005 H 0.43587 0.31941 0.03383 0.0
C4006 C 0.45286 0.28817 0.08721 0.0
C4007 C 0.42468 0.31072 0.06863 0.0
C4008 C 0.40165 0.32331 0.06885 0.0
C4009 C 0.46882 0.28821 0.06745 0.0
C4010 C 0.46234 0.29942 0.04789 0.0
C4011 C 0.44056 0.3107 0.04878 0.0
C4012 C 0.47778 0.29909 0.02619 0.0
C4013 C 0.49186 0.27559 0.06724 0.0
C4014 C 0.50311 0.30514 0.02683 0.0
C4015 C 0.51912 0.30185 1.00777 0.0
C4016 C 0.50999 0.29266 0.9876 0.0
C4017 C 0.48406 0.28802 0.98613 0.0
C4018 C 0.46801 0.29117 1.00544 0.0
H4019 H 0.49112 0.26506 0.08152 0.0
H4020 H 0.49354 0.26824 0.05011 0.0
H4021 H 0.50934 0.28405 0.06978 0.0
H4022 H 0.51081 0.31159 0.04254 0.0
H4023 H 0.53899 0.30584 0.00919 0.0
H4024 H 0.31189 0.29367 0.59805 0.0
H4025 H 0.28151 0.30318 0.62881 0.0
H4026 H 0.33069 0.27965 0.6818 0.0
H4027 H 0.36075 0.27014 0.65174 0.0
H4028 H 0.25766 0.27871 0.66226 0.0
H4029 H 0.31576 0.33256 0.70659 0.0
H4030 H 0.32196 0.32482 0.67687 0.0
H4031 H 0.33306 0.31139 0.70152 0.0
C4032 C 0.31616 0.29054 0.61627 0.0
C4033 C 0.33872 0.28114 0.62241 0.0
C4034 C 0.29892 0.29607 0.63376 0.0
C4035 C 0.30427 0.29249 0.65753 0.0
C4036 C 0.32658 0.28296 0.66359 0.0
H4037 H 0.24207 0.2824 0.79373 0.0
H4038 H 0.26931 0.28744 0.75913 0.0
C4039 C 0.34363 0.27737 0.64627 0.0
C4040 C 0.28597 0.29727 0.67628 0.0
H4041 H 0.28248 0.31851 0.72992 0.0
C4042 C 0.26271 0.28775 0.67682 0.0
C4043 C 0.29284 0.30901 0.69522 0.0
C4044 C 0.31718 0.32017 0.69496 0.0
C4045 C 0.24682 0.28866 0.6966 0.0
C4046 C 0.25428 0.29972 0.71606 0.0
C4047 C 0.27695 0.30998 0.71502 0.0
C4048 C 0.23937 0.29983 0.73808 0.0
C4049 C 0.22295 0.2769 0.69702 0.0
C4050 C 0.21405 0.306 0.73796 0.0
C4051 C 0.19855 0.30295 0.75744 0.0
C4052 C 0.20825 0.29398 0.77751 0.0
C4053 C 0.2342 0.28932 0.77845 0.0
C4054 C 0.24969 0.29217 0.75873 0.0
H4055 H 0.22294 0.26622 0.68288 0.0
H4056 H 0.22083 0.26978 0.71424 0.0
H4057 H 0.20606 0.28596 0.69439 0.0
H4058 H 0.20595 0.31233 0.72237 0.0
H4059 H 0.17865 0.30696 0.75645 0.0
H4060 H 0.4798 0.51629 0.79761 0.0
H4061 H 0.44921 0.51196 0.76523 0.0
H4062 H 0.50852 0.48759 0.72258 0.0
H4063 H 0.53894 0.49188 0.75453 0.0
H4064 H 0.46033 0.52955 0.71972 0.0
H4065 H 0.44521 0.45322 0.71219 0.0
H4066 H 0.45543 0.46424 0.7392 0.0
H4067 H 0.47772 0.46072 0.71565 0.0
C4068 C 0.48605 0.50956 0.78155 0.0
C4069 C 0.51169 0.50457 0.77844 0.0
C4070 C 0.46866 0.50714 0.76311 0.0
C4071 C 0.47668 0.49935 0.74166 0.0
C4072 C 0.50192 0.49339 0.7391 0.0
H4073 H 0.40984 0.50609 0.60037 0.0
H4074 H 0.44053 0.50091 0.63253 0.0
C4075 C 0.51929 0.49599 0.75732 0.0
C4076 C 0.45984 0.49963 0.7209 0.0
H4077 H 0.42966 0.47189 0.68084 0.0
C4078 C 0.45354 0.51696 0.71126 0.0
C4079 C 0.45145 0.48313 0.7098 0.0
C4080 C 0.4576 0.46423 0.71976 0.0
C4081 C 0.43891 0.51824 0.69073 0.0
C4082 C 0.43031 0.50179 0.67976 0.0
C4083 C 0.43669 0.48443 0.68925 0.0
C4084 C 0.41217 0.50268 0.66008 0.0
C4085 C 0.43235 0.53715 0.68098 0.0
C4086 C 0.38631 0.50501 0.66515 0.0
C4087 C 0.36896 0.50801 0.64709 0.0
C4088 C 0.37713 0.50877 0.6235 0.0
C4089 C 0.40301 0.50564 0.61834 0.0
C4090 C 0.4205 0.50267 0.63661 0.0
H4091 H 0.44282 0.5485 0.69008 0.0
H4092 H 0.43683 0.5377 0.66189 0.0
H4093 H 0.41157 0.53966 0.68299 0.0
H4094 H 0.37967 0.50508 0.68321 0.0
H4095 H 0.34914 0.51013 0.65177 0.0
loop_
_geom_bond_atom_site_label_1
_geom_bond_atom_site_label_2
_geom_bond_distance
_geom_bond_site_symmetry_2
_ccdc_geom_bond_type
Dy0 O4 2.398 . S
Dy0 O5 2.491 1_545 S
Dy0 O6 2.403 . S
Dy0 O7 2.664 . S
Dy0 O11 2.326 . S
Dy0 O15 2.310 1_545 S
Dy0 O16 2.351 . S
C1 O12 1.185 . S
C1 O13 1.355 1_565 S
C2 O4 1.185 . S
C2 O5 1.355 1_545 S
Dy3 O7 2.310 1_565 S
Dy3 O10 2.352 . S
Dy3 O12 2.398 . S
Dy3 O13 2.491 1_565 S
Dy3 O14 2.403 . S
Dy3 O15 2.664 . S
Dy3 O17 2.326 . S
O4 Dy0 2.398 . S
O4 C2 1.185 . S
O5 Dy0 2.491 1_565 S
O5 C2 1.355 1_565 S
O6 Dy0 2.403 . S
O6 C8 1.254 . S
O7 Dy0 2.664 . S
O7 Dy3 2.310 1_545 S
O7 C8 1.268 . S
C8 O6 1.254 . S
C8 O7 1.268 . S
C9 O14 1.254 . S
C9 O15 1.268 . S
O10 Dy3 2.352 . S
O10 C18 1.248 1_565 S
O11 Dy0 2.326 . S
O11 C18 1.267 . S
O12 C1 1.185 . S
O12 Dy3 2.398 . S
O13 C1 1.355 1_545 S
O13 Dy3 2.491 1_545 S
O14 Dy3 2.403 . S
O14 C9 1.254 . S
O15 Dy0 2.310 1_565 S
O15 Dy3 2.664 . S
O15 C9 1.268 . S
O16 Dy0 2.351 . S
O16 C19 1.249 . S
O17 Dy3 2.326 . S
O17 C19 1.267 1_565 S
C18 O10 1.248 1_545 S
C18 O11 1.267 . S
C19 O16 1.249 . S
C19 O17 1.267 1_545 S
Dy20 O24 2.398 . S
Dy20 O25 2.491 . S
Dy20 O26 2.403 . S
Dy20 O27 2.664 . S
Dy20 O31 2.326 . S
Dy20 O35 2.310 . S
Dy20 O36 2.351 . S
C21 O32 1.185 . S
C21 O33 1.355 . S
C22 O24 1.185 . S
C22 O25 1.355 . S
Dy23 O27 2.310 . S
Dy23 O30 2.351 . S
Dy23 O32 2.398 . S
Dy23 O33 2.491 . S
Dy23 O34 2.403 . S
Dy23 O35 2.664 . S
Dy23 O37 2.326 . S
O24 Dy20 2.398 . S
O24 C22 1.185 . S
O25 Dy20 2.491 . S
O25 C22 1.355 . S
O26 Dy20 2.403 . S
O26 C28 1.254 . S
O27 Dy20 2.664 . S
O27 Dy23 2.310 . S
O27 C28 1.268 . S
C28 O26 1.254 . S
C28 O27 1.268 . S
C29 O34 1.254 . S
C29 O35 1.268 . S
O30 Dy23 2.351 . S
O30 C38 1.249 . S
O31 Dy20 2.326 . S
O31 C38 1.267 . S
O32 C21 1.185 . S
O32 Dy23 2.398 . S
O33 C21 1.355 . S
O33 Dy23 2.491 . S
O34 Dy23 2.403 . S
O34 C29 1.254 . S
O35 Dy20 2.310 . S
O35 Dy23 2.664 . S
O35 C29 1.268 . S
O36 Dy20 2.351 . S
O36 C39 1.249 . S
O37 Dy23 2.326 . S
O37 C39 1.267 . S
C38 O30 1.249 . S
C38 O31 1.267 . S
C39 O36 1.249 . S
C39 O37 1.267 . S
Dy40 O44 2.398 . S
Dy40 O45 2.491 . S
Dy40 O46 2.403 . S
Dy40 O47 2.664 . S
Dy40 O51 2.326 . S
Dy40 O55 2.310 . S
Dy40 O56 2.351 . S
C41 O52 1.185 . S
C41 O53 1.355 . S
C42 O44 1.185 . S
C42 O45 1.355 . S
Dy43 O47 2.310 . S
Dy43 O50 2.351 . S
Dy43 O52 2.398 . S
Dy43 O53 2.491 . S
Dy43 O54 2.403 . S
Dy43 O55 2.664 . S
Dy43 O57 2.326 . S
O44 Dy40 2.398 . S
O44 C42 1.185 . S
O45 Dy40 2.491 . S
O45 C42 1.355 . S
O46 Dy40 2.403 . S
O46 C48 1.254 . S
O47 Dy40 2.664 . S
O47 Dy43 2.310 . S
O47 C48 1.268 . S
C48 O46 1.254 . S
C48 O47 1.268 . S
C49 O54 1.254 . S
C49 O55 1.268 . S
O50 Dy43 2.351 . S
O50 C58 1.249 . S
O51 Dy40 2.326 . S
O51 C58 1.267 . S
O52 C41 1.185 . S
O52 Dy43 2.398 . S
O53 C41 1.355 . S
O53 Dy43 2.491 . S
O54 Dy43 2.403 . S
O54 C49 1.254 . S
O55 Dy40 2.310 . S
O55 Dy43 2.664 . S
O55 C49 1.268 . S
O56 Dy40 2.351 . S
O56 C59 1.249 . S
O57 Dy43 2.326 . S
O57 C59 1.267 . S
C58 O50 1.249 . S
C58 O51 1.267 . S
C59 O56 1.249 . S
C59 O57 1.267 . S
Dy60 O64 2.398 . S
Dy60 O65 2.491 1_545 S
Dy60 O66 2.403 . S
Dy60 O67 2.664 . S
Dy60 O71 2.326 . S
Dy60 O75 2.310 1_545 S
Dy60 O76 2.351 . S
C61 O72 1.185 . S
C61 O73 1.355 1_565 S
C62 O64 1.185 . S
C62 O65 1.355 1_545 S
Dy63 O67 2.310 1_565 S
Dy63 O70 2.352 . S
Dy63 O72 2.398 . S
Dy63 O73 2.491 1_565 S
Dy63 O74 2.403 . S
Dy63 O75 2.664 . S
Dy63 O77 2.326 . S
O64 Dy60 2.398 . S
O64 C62 1.185 . S
O65 Dy60 2.491 1_565 S
O65 C62 1.355 1_565 S
O66 Dy60 2.403 . S
O66 C68 1.254 . S
O67 Dy60 2.664 . S
O67 Dy63 2.310 1_545 S
O67 C68 1.268 . S
C68 O66 1.254 . S
C68 O67 1.268 . S
C69 O74 1.254 . S
C69 O75 1.268 . S
O70 Dy63 2.352 . S
O70 C78 1.248 1_565 S
O71 Dy60 2.326 . S
O71 C78 1.267 . S
O72 C61 1.185 . S
O72 Dy63 2.398 . S
O73 C61 1.355 1_545 S
O73 Dy63 2.491 1_545 S
O74 Dy63 2.403 . S
O74 C69 1.254 . S
O75 Dy60 2.310 1_565 S
O75 Dy63 2.664 . S
O75 C69 1.268 . S
O76 Dy60 2.351 . S
O76 C79 1.249 . S
O77 Dy63 2.326 . S
O77 C79 1.267 1_565 S
C78 O70 1.248 1_545 S
C78 O71 1.267 . S
C79 O76 1.249 . S
C79 O77 1.267 1_545 S
Dy80 O84 2.398 . S
Dy80 O85 2.491 1_545 S
Dy80 O86 2.403 . S
Dy80 O87 2.664 . S
Dy80 O91 2.326 . S
Dy80 O95 2.310 1_545 S
Dy80 O96 2.352 . S
C81 O92 1.185 . S
C81 O93 1.355 1_565 S
C82 O84 1.185 . S
C82 O85 1.355 1_545 S
Dy83 O87 2.310 1_565 S
Dy83 O90 2.351 . S
Dy83 O92 2.398 . S
Dy83 O93 2.491 1_565 S
Dy83 O94 2.403 . S
Dy83 O95 2.664 . S
Dy83 O97 2.326 . S
O84 Dy80 2.398 . S
O84 C82 1.185 . S
O85 Dy80 2.491 1_565 S
O85 C82 1.355 1_565 S
O86 Dy80 2.403 . S
O86 C88 1.254 . S
O87 Dy80 2.664 . S
O87 Dy83 2.310 1_545 S
O87 C88 1.268 . S
C88 O86 1.254 . S
C88 O87 1.268 . S
C89 O94 1.254 . S
C89 O95 1.268 . S
O90 Dy83 2.351 . S
O90 C98 1.249 . S
O91 Dy80 2.326 . S
O91 C98 1.267 1_545 S
O92 C81 1.185 . S
O92 Dy83 2.398 . S
O93 C81 1.355 1_545 S
O93 Dy83 2.491 1_545 S
O94 Dy83 2.403 . S
O94 C89 1.254 . S
O95 Dy80 2.310 1_565 S
O95 Dy83 2.664 . S
O95 C89 1.268 . S
O96 Dy80 2.352 . S
O96 C99 1.248 1_545 S
O97 Dy83 2.326 . S
O97 C99 1.267 . S
C98 O90 1.249 . S
C98 O91 1.267 1_565 S
C99 O96 1.248 1_565 S
C99 O97 1.267 . S
Dy100 O104 2.398 . S
Dy100 O105 2.491 . S
Dy100 O106 2.403 . S
Dy100 O107 2.664 . S
Dy100 O111 2.326 . S
Dy100 O115 2.310 . S
Dy100 O116 2.351 . S
C101 O112 1.185 . S
C101 O113 1.355 . S
C102 O104 1.185 . S
C102 O105 1.355 . S
Dy103 O107 2.310 . S
Dy103 O110 2.351 . S
Dy103 O112 2.398 . S
Dy103 O113 2.491 . S
Dy103 O114 2.403 . S
Dy103 O115 2.664 . S
Dy103 O117 2.326 . S
O104 Dy100 2.398 . S
O104 C102 1.185 . S
O105 Dy100 2.491 . S
O105 C102 1.355 . S
O106 Dy100 2.403 . S
O106 C108 1.254 . S
O107 Dy100 2.664 . S
O107 Dy103 2.310 . S
O107 C108 1.268 . S
C108 O106 1.254 . S
C108 O107 1.268 . S
C109 O114 1.254 . S
C109 O115 1.268 . S
O110 Dy103 2.351 . S
O110 C118 1.249 . S
O111 Dy100 2.326 . S
O111 C118 1.267 . S
O112 C101 1.185 . S
O112 Dy103 2.398 . S
O113 C101 1.355 . S
O113 Dy103 2.491 . S
O114 Dy103 2.403 . S
O114 C109 1.254 . S
O115 Dy100 2.310 . S
O115 Dy103 2.664 . S
O115 C109 1.268 . S
O116 Dy100 2.351 . S
O116 C119 1.249 . S
O117 Dy103 2.326 . S
O117 C119 1.267 . S
C118 O110 1.249 . S
C118 O111 1.267 . S
C119 O116 1.249 . S
C119 O117 1.267 . S
Dy120 O124 2.398 . S
Dy120 O125 2.491 . S
Dy120 O126 2.403 . S
Dy120 O127 2.664 . S
Dy120 O131 2.326 . S
Dy120 O135 2.310 . S
Dy120 O136 2.351 . S
C121 O132 1.185 . S
C121 O133 1.355 . S
C122 O124 1.185 . S
C122 O125 1.355 . S
Dy123 O127 2.310 . S
Dy123 O130 2.351 . S
Dy123 O132 2.398 . S
Dy123 O133 2.491 . S
Dy123 O134 2.403 . S
Dy123 O135 2.664 . S
Dy123 O137 2.326 . S
O124 Dy120 2.398 . S
O124 C122 1.185 . S
O125 Dy120 2.491 . S
O125 C122 1.355 . S
O126 Dy120 2.403 . S
O126 C128 1.254 . S
O127 Dy120 2.664 . S
O127 Dy123 2.310 . S
O127 C128 1.268 . S
C128 O126 1.254 . S
C128 O127 1.268 . S
C129 O134 1.254 . S
C129 O135 1.268 . S
O130 Dy123 2.351 . S
O130 C138 1.249 . S
O131 Dy120 2.326 . S
O131 C138 1.267 . S
O132 C121 1.185 . S
O132 Dy123 2.398 . S
O133 C121 1.355 . S
O133 Dy123 2.491 . S
O134 Dy123 2.403 . S
O134 C129 1.254 . S
O135 Dy120 2.310 . S
O135 Dy123 2.664 . S
O135 C129 1.268 . S
O136 Dy120 2.351 . S
O136 C139 1.249 . S
O137 Dy123 2.326 . S
O137 C139 1.267 . S
C138 O130 1.249 . S
C138 O131 1.267 . S
C139 O136 1.249 . S
C139 O137 1.267 . S
Dy140 O144 2.398 . S
Dy140 O145 2.491 1_545 S
Dy140 O146 2.403 . S
Dy140 O147 2.664 . S
Dy140 O151 2.326 . S
Dy140 O155 2.310 1_545 S
Dy140 O156 2.352 . S
C141 O152 1.185 . S
C141 O153 1.355 1_565 S
C142 O144 1.185 . S
C142 O145 1.355 1_545 S
Dy143 O147 2.310 1_565 S
Dy143 O150 2.351 . S
Dy143 O152 2.398 . S
Dy143 O153 2.491 1_565 S
Dy143 O154 2.403 . S
Dy143 O155 2.664 . S
Dy143 O157 2.326 . S
O144 Dy140 2.398 . S
O144 C142 1.185 . S
O145 Dy140 2.491 1_565 S
O145 C142 1.355 1_565 S
O146 Dy140 2.403 . S
O146 C148 1.254 . S
O147 Dy140 2.664 . S
O147 Dy143 2.310 1_545 S
O147 C148 1.268 . S
C148 O146 1.254 . S
C148 O147 1.268 . S
C149 O154 1.254 . S
C149 O155 1.268 . S
O150 Dy143 2.351 . S
O150 C158 1.249 . S
O151 Dy140 2.326 . S
O151 C158 1.267 1_545 S
O152 C141 1.185 . S
O152 Dy143 2.398 . S
O153 C141 1.355 1_545 S
O153 Dy143 2.491 1_545 S
O154 Dy143 2.403 . S
O154 C149 1.254 . S
O155 Dy140 2.310 1_565 S
O155 Dy143 2.664 . S
O155 C149 1.268 . S
O156 Dy140 2.352 . S
O156 C159 1.248 1_545 S
O157 Dy143 2.326 . S
O157 C159 1.267 . S
C158 O150 1.249 . S
C158 O151 1.267 1_565 S
C159 O156 1.248 1_565 S
C159 O157 1.267 . S
Dy160 O164 2.398 . S
Dy160 O165 2.491 . S
Dy160 O166 2.403 . S
Dy160 O167 2.664 . S
Dy160 O171 2.326 . S
Dy160 O175 2.310 . S
Dy160 O176 2.351 . S
C161 O172 1.185 . S
C161 O173 1.355 . S
C162 O164 1.185 . S
C162 O165 1.355 . S
Dy163 O167 2.310 . S
Dy163 O170 2.351 . S
Dy163 O172 2.398 . S
Dy163 O173 2.491 . S
Dy163 O174 2.403 . S
Dy163 O175 2.664 . S
Dy163 O177 2.326 . S
O164 Dy160 2.398 . S
O164 C162 1.185 . S
O165 Dy160 2.491 . S
O165 C162 1.355 . S
O166 Dy160 2.403 . S
O166 C168 1.254 . S
O167 Dy160 2.664 . S
O167 Dy163 2.310 . S
O167 C168 1.268 . S
C168 O166 1.254 . S
C168 O167 1.268 . S
C169 O174 1.254 . S
C169 O175 1.268 . S
O170 Dy163 2.351 . S
O170 C178 1.249 . S
O171 Dy160 2.326 . S
O171 C178 1.267 . S
O172 C161 1.185 . S
O172 Dy163 2.398 . S
O173 C161 1.355 . S
O173 Dy163 2.491 . S
O174 Dy163 2.403 . S
O174 C169 1.254 . S
O175 Dy160 2.310 . S
O175 Dy163 2.664 . S
O175 C169 1.268 . S
O176 Dy160 2.351 . S
O176 C179 1.249 . S
O177 Dy163 2.326 . S
O177 C179 1.267 . S
C178 O170 1.249 . S
C178 O171 1.267 . S
C179 O176 1.249 . S
C179 O177 1.267 . S
Dy180 O184 2.398 . S
Dy180 O185 2.491 . S
Dy180 O186 2.403 . S
Dy180 O187 2.664 . S
Dy180 O191 2.326 . S
Dy180 O195 2.310 . S
Dy180 O196 2.351 . S
C181 O192 1.185 . S
C181 O193 1.355 . S
C182 O184 1.185 . S
C182 O185 1.355 . S
Dy183 O187 2.310 . S
Dy183 O190 2.351 . S
Dy183 O192 2.398 . S
Dy183 O193 2.491 . S
Dy183 O194 2.403 . S
Dy183 O195 2.664 . S
Dy183 O197 2.326 . S
O184 Dy180 2.398 . S
O184 C182 1.185 . S
O185 Dy180 2.491 . S
O185 C182 1.355 . S
O186 Dy180 2.403 . S
O186 C188 1.254 . S
O187 Dy180 2.664 . S
O187 Dy183 2.310 . S
O187 C188 1.268 . S
C188 O186 1.254 . S
C188 O187 1.268 . S
C189 O194 1.254 . S
C189 O195 1.268 . S
O190 Dy183 2.351 . S
O190 C198 1.249 . S
O191 Dy180 2.326 . S
O191 C198 1.267 . S
O192 C181 1.185 . S
O192 Dy183 2.398 . S
O193 C181 1.355 . S
O193 Dy183 2.491 . S
O194 Dy183 2.403 . S
O194 C189 1.254 . S
O195 Dy180 2.310 . S
O195 Dy183 2.664 . S
O195 C189 1.268 . S
O196 Dy180 2.351 . S
O196 C199 1.249 . S
O197 Dy183 2.326 . S
O197 C199 1.267 . S
C198 O190 1.249 . S
C198 O191 1.267 . S
C199 O196 1.249 . S
C199 O197 1.267 . S
Dy200 O204 2.398 . S
Dy200 O205 2.491 . S
Dy200 O206 2.403 . S
Dy200 O207 2.664 . S
Dy200 O211 2.326 . S
Dy200 O215 2.310 . S
Dy200 O216 2.351 . S
C201 O212 1.185 . S
C201 O213 1.355 . S
C202 O204 1.185 . S
C202 O205 1.355 . S
Dy203 O207 2.310 . S
Dy203 O210 2.351 . S
Dy203 O212 2.398 . S
Dy203 O213 2.491 . S
Dy203 O214 2.403 . S
Dy203 O215 2.664 . S
Dy203 O217 2.326 . S
O204 Dy200 2.398 . S
O204 C202 1.185 . S
O205 Dy200 2.491 . S
O205 C202 1.355 . S
O206 Dy200 2.403 . S
O206 C208 1.254 . S
O207 Dy200 2.664 . S
O207 Dy203 2.310 . S
O207 C208 1.268 . S
C208 O206 1.254 . S
C208 O207 1.268 . S
C209 O214 1.254 . S
C209 O215 1.268 . S
O210 Dy203 2.351 . S
O210 C218 1.249 . S
O211 Dy200 2.326 . S
O211 C218 1.267 . S
O212 C201 1.185 . S
O212 Dy203 2.398 . S
O213 C201 1.355 . S
O213 Dy203 2.491 . S
O214 Dy203 2.403 . S
O214 C209 1.254 . S
O215 Dy200 2.310 . S
O215 Dy203 2.664 . S
O215 C209 1.268 . S
O216 Dy200 2.351 . S
O216 C219 1.249 . S
O217 Dy203 2.326 . S
O217 C219 1.267 . S
C218 O210 1.249 . S
C218 O211 1.267 . S
C219 O216 1.249 . S
C219 O217 1.267 . S
Dy220 O224 2.398 . S
Dy220 O225 2.491 . S
Dy220 O226 2.403 . S
Dy220 O227 2.664 . S
Dy220 O231 2.326 . S
Dy220 O235 2.310 . S
Dy220 O236 2.351 . S
C221 O232 1.185 . S
C221 O233 1.355 . S
C222 O224 1.185 . S
C222 O225 1.355 . S
Dy223 O227 2.310 . S
Dy223 O230 2.351 . S
Dy223 O232 2.398 . S
Dy223 O233 2.491 . S
Dy223 O234 2.403 . S
Dy223 O235 2.664 . S
Dy223 O237 2.326 . S
O224 Dy220 2.398 . S
O224 C222 1.185 . S
O225 Dy220 2.491 . S
O225 C222 1.355 . S
O226 Dy220 2.403 . S
O226 C228 1.254 . S
O227 Dy220 2.664 . S
O227 Dy223 2.310 . S
O227 C228 1.268 . S
C228 O226 1.254 . S
C228 O227 1.268 . S
C229 O234 1.254 . S
C229 O235 1.268 . S
O230 Dy223 2.351 . S
O230 C238 1.249 . S
O231 Dy220 2.326 . S
O231 C238 1.267 . S
O232 C221 1.185 . S
O232 Dy223 2.398 . S
O233 C221 1.355 . S
O233 Dy223 2.491 . S
O234 Dy223 2.403 . S
O234 C229 1.254 . S
O235 Dy220 2.310 . S
O235 Dy223 2.664 . S
O235 C229 1.268 . S
O236 Dy220 2.351 . S
O236 C239 1.249 . S
O237 Dy223 2.326 . S
O237 C239 1.267 . S
C238 O230 1.249 . S
C238 O231 1.267 . S
C239 O236 1.249 . S
C239 O237 1.267 . S
Dy240 O244 2.398 . S
Dy240 O245 2.491 . S
Dy240 O246 2.403 . S
Dy240 O247 2.664 . S
Dy240 O251 2.326 . S
Dy240 O255 2.310 . S
Dy240 O256 2.351 . S
C241 O252 1.185 . S
C241 O253 1.355 . S
C242 O244 1.185 . S
C242 O245 1.355 . S
Dy243 O247 2.310 . S
Dy243 O250 2.351 . S
Dy243 O252 2.398 . S
Dy243 O253 2.491 . S
Dy243 O254 2.403 . S
Dy243 O255 2.664 . S
Dy243 O257 2.326 . S
O244 Dy240 2.398 . S
O244 C242 1.185 . S
O245 Dy240 2.491 . S
O245 C242 1.355 . S
O246 Dy240 2.403 . S
O246 C248 1.254 . S
O247 Dy240 2.664 . S
O247 Dy243 2.310 . S
O247 C248 1.268 . S
C248 O246 1.254 . S
C248 O247 1.268 . S
C249 O254 1.254 . S
C249 O255 1.268 . S
O250 Dy243 2.351 . S
O250 C258 1.249 . S
O251 Dy240 2.326 . S
O251 C258 1.267 . S
O252 C241 1.185 . S
O252 Dy243 2.398 . S
O253 C241 1.355 . S
O253 Dy243 2.491 . S
O254 Dy243 2.403 . S
O254 C249 1.254 . S
O255 Dy240 2.310 . S
O255 Dy243 2.664 . S
O255 C249 1.268 . S
O256 Dy240 2.351 . S
O256 C259 1.249 . S
O257 Dy243 2.326 . S
O257 C259 1.267 . S
C258 O250 1.249 . S
C258 O251 1.267 . S
C259 O256 1.249 . S
C259 O257 1.267 . S
Dy260 O264 2.398 . S
Dy260 O265 2.491 . S
Dy260 O266 2.403 . S
Dy260 O267 2.664 . S
Dy260 O271 2.326 . S
Dy260 O275 2.310 . S
Dy260 O276 2.351 . S
C261 O272 1.185 . S
C261 O273 1.355 . S
C262 O264 1.185 . S
C262 O265 1.355 . S
Dy263 O267 2.310 . S
Dy263 O270 2.351 . S
Dy263 O272 2.398 . S
Dy263 O273 2.491 . S
Dy263 O274 2.403 . S
Dy263 O275 2.664 . S
Dy263 O277 2.326 . S
O264 Dy260 2.398 . S
O264 C262 1.185 . S
O265 Dy260 2.491 . S
O265 C262 1.355 . S
O266 Dy260 2.403 . S
O266 C268 1.254 . S
O267 Dy260 2.664 . S
O267 Dy263 2.310 . S
O267 C268 1.268 . S
C268 O266 1.254 . S
C268 O267 1.268 . S
C269 O274 1.254 . S
C269 O275 1.268 . S
O270 Dy263 2.351 . S
O270 C278 1.249 . S
O271 Dy260 2.326 . S
O271 C278 1.267 . S
O272 C261 1.185 . S
O272 Dy263 2.398 . S
O273 C261 1.355 . S
O273 Dy263 2.491 . S
O274 Dy263 2.403 . S
O274 C269 1.254 . S
O275 Dy260 2.310 . S
O275 Dy263 2.664 . S
O275 C269 1.268 . S
O276 Dy260 2.351 . S
O276 C279 1.249 . S
O277 Dy263 2.326 . S
O277 C279 1.267 . S
C278 O270 1.249 . S
C278 O271 1.267 . S
C279 O276 1.249 . S
C279 O277 1.267 . S
Dy280 O284 2.398 . S
Dy280 O285 2.491 . S
Dy280 O286 2.403 . S
Dy280 O287 2.664 . S
Dy280 O291 2.326 . S
Dy280 O295 2.310 . S
Dy280 O296 2.351 . S
C281 O292 1.185 . S
C281 O293 1.355 . S
C282 O284 1.185 . S
C282 O285 1.355 . S
Dy283 O287 2.310 . S
Dy283 O290 2.351 . S
Dy283 O292 2.398 . S
Dy283 O293 2.491 . S
Dy283 O294 2.403 . S
Dy283 O295 2.664 . S
Dy283 O297 2.326 . S
O284 Dy280 2.398 . S
O284 C282 1.185 . S
O285 Dy280 2.491 . S
O285 C282 1.355 . S
O286 Dy280 2.403 . S
O286 C288 1.254 . S
O287 Dy280 2.664 . S
O287 Dy283 2.310 . S
O287 C288 1.268 . S
C288 O286 1.254 . S
C288 O287 1.268 . S
C289 O294 1.254 . S
C289 O295 1.268 . S
O290 Dy283 2.351 . S
O290 C298 1.249 . S
O291 Dy280 2.326 . S
O291 C298 1.267 . S
O292 C281 1.185 . S
O292 Dy283 2.398 . S
O293 C281 1.355 . S
O293 Dy283 2.491 . S
O294 Dy283 2.403 . S
O294 C289 1.254 . S
O295 Dy280 2.310 . S
O295 Dy283 2.664 . S
O295 C289 1.268 . S
O296 Dy280 2.351 . S
O296 C299 1.249 . S
O297 Dy283 2.326 . S
O297 C299 1.267 . S
C298 O290 1.249 . S
C298 O291 1.267 . S
C299 O296 1.249 . S
C299 O297 1.267 . S
Dy300 O304 2.398 . S
Dy300 O305 2.491 . S
Dy300 O306 2.403 . S
Dy300 O307 2.664 . S
Dy300 O311 2.326 . S
Dy300 O315 2.310 . S
Dy300 O316 2.351 . S
C301 O312 1.185 . S
C301 O313 1.355 . S
C302 O304 1.185 . S
C302 O305 1.355 . S
Dy303 O307 2.310 . S
Dy303 O310 2.351 . S
Dy303 O312 2.398 . S
Dy303 O313 2.491 . S
Dy303 O314 2.403 . S
Dy303 O315 2.664 . S
Dy303 O317 2.326 . S
O304 Dy300 2.398 . S
O304 C302 1.185 . S
O305 Dy300 2.491 . S
O305 C302 1.355 . S
O306 Dy300 2.403 . S
O306 C308 1.254 . S
O307 Dy300 2.664 . S
O307 Dy303 2.310 . S
O307 C308 1.268 . S
C308 O306 1.254 . S
C308 O307 1.268 . S
C309 O314 1.254 . S
C309 O315 1.268 . S
O310 Dy303 2.351 . S
O310 C318 1.249 . S
O311 Dy300 2.326 . S
O311 C318 1.267 . S
O312 C301 1.185 . S
O312 Dy303 2.398 . S
O313 C301 1.355 . S
O313 Dy303 2.491 . S
O314 Dy303 2.403 . S
O314 C309 1.254 . S
O315 Dy300 2.310 . S
O315 Dy303 2.664 . S
O315 C309 1.268 . S
O316 Dy300 2.351 . S
O316 C319 1.249 . S
O317 Dy303 2.326 . S
O317 C319 1.267 . S
C318 O310 1.249 . S
C318 O311 1.267 . S
C319 O316 1.249 . S
C319 O317 1.267 . S
Dy320 O324 2.398 . S
Dy320 O325 2.491 1_545 S
Dy320 O326 2.403 . S
Dy320 O327 2.664 . S
Dy320 O331 2.326 . S
Dy320 O335 2.310 1_545 S
Dy320 O336 2.351 . S
C321 O332 1.185 . S
C321 O333 1.355 1_565 S
C322 O324 1.185 . S
C322 O325 1.355 1_545 S
Dy323 O327 2.310 1_565 S
Dy323 O330 2.352 . S
Dy323 O332 2.398 . S
Dy323 O333 2.491 1_565 S
Dy323 O334 2.403 . S
Dy323 O335 2.664 . S
Dy323 O337 2.326 . S
O324 Dy320 2.398 . S
O324 C322 1.185 . S
O325 Dy320 2.491 1_565 S
O325 C322 1.355 1_565 S
O326 Dy320 2.403 . S
O326 C328 1.254 . S
O327 Dy320 2.664 . S
O327 Dy323 2.310 1_545 S
O327 C328 1.268 . S
C328 O326 1.254 . S
C328 O327 1.268 . S
C329 O334 1.254 . S
C329 O335 1.268 . S
O330 Dy323 2.352 . S
O330 C338 1.248 1_565 S
O331 Dy320 2.326 . S
O331 C338 1.267 . S
O332 C321 1.185 . S
O332 Dy323 2.398 . S
O333 C321 1.355 1_545 S
O333 Dy323 2.491 1_545 S
O334 Dy323 2.403 . S
O334 C329 1.254 . S
O335 Dy320 2.310 1_565 S
O335 Dy323 2.664 . S
O335 C329 1.268 . S
O336 Dy320 2.351 . S
O336 C339 1.249 . S
O337 Dy323 2.326 . S
O337 C339 1.267 1_565 S
C338 O330 1.248 1_545 S
C338 O331 1.267 . S
C339 O336 1.249 . S
C339 O337 1.267 1_545 S
Dy340 O344 2.398 . S
Dy340 O345 2.491 . S
Dy340 O346 2.403 . S
Dy340 O347 2.664 . S
Dy340 O351 2.326 . S
Dy340 O355 2.310 . S
Dy340 O356 2.351 . S
C341 O352 1.185 . S
C341 O353 1.355 . S
C342 O344 1.185 . S
C342 O345 1.355 . S
Dy343 O347 2.310 . S
Dy343 O350 2.351 . S
Dy343 O352 2.398 . S
Dy343 O353 2.491 . S
Dy343 O354 2.403 . S
Dy343 O355 2.664 . S
Dy343 O357 2.326 . S
O344 Dy340 2.398 . S
O344 C342 1.185 . S
O345 Dy340 2.491 . S
O345 C342 1.355 . S
O346 Dy340 2.403 . S
O346 C348 1.254 . S
O347 Dy340 2.664 . S
O347 Dy343 2.310 . S
O347 C348 1.268 . S
C348 O346 1.254 . S
C348 O347 1.268 . S
C349 O354 1.254 . S
C349 O355 1.268 . S
O350 Dy343 2.351 . S
O350 C358 1.249 . S
O351 Dy340 2.326 . S
O351 C358 1.267 . S
O352 C341 1.185 . S
O352 Dy343 2.398 . S
O353 C341 1.355 . S
O353 Dy343 2.491 . S
O354 Dy343 2.403 . S
O354 C349 1.254 . S
O355 Dy340 2.310 . S
O355 Dy343 2.664 . S
O355 C349 1.268 . S
O356 Dy340 2.351 . S
O356 C359 1.249 . S
O357 Dy343 2.326 . S
O357 C359 1.267 . S
C358 O350 1.249 . S
C358 O351 1.267 . S
C359 O356 1.249 . S
C359 O357 1.267 . S
Dy360 O364 2.398 . S
Dy360 O365 2.491 . S
Dy360 O366 2.403 . S
Dy360 O367 2.664 . S
Dy360 O371 2.326 . S
Dy360 O375 2.310 . S
Dy360 O376 2.351 . S
C361 O372 1.185 . S
C361 O373 1.355 . S
C362 O364 1.185 . S
C362 O365 1.355 . S
Dy363 O367 2.310 . S
Dy363 O370 2.351 . S
Dy363 O372 2.398 . S
Dy363 O373 2.491 . S
Dy363 O374 2.403 . S
Dy363 O375 2.664 . S
Dy363 O377 2.326 . S
O364 Dy360 2.398 . S
O364 C362 1.185 . S
O365 Dy360 2.491 . S
O365 C362 1.355 . S
O366 Dy360 2.403 . S
O366 C368 1.254 . S
O367 Dy360 2.664 . S
O367 Dy363 2.310 . S
O367 C368 1.268 . S
C368 O366 1.254 . S
C368 O367 1.268 . S
C369 O374 1.254 . S
C369 O375 1.268 . S
O370 Dy363 2.351 . S
O370 C378 1.249 . S
O371 Dy360 2.326 . S
O371 C378 1.267 . S
O372 C361 1.185 . S
O372 Dy363 2.398 . S
O373 C361 1.355 . S
O373 Dy363 2.491 . S
O374 Dy363 2.403 . S
O374 C369 1.254 . S
O375 Dy360 2.310 . S
O375 Dy363 2.664 . S
O375 C369 1.268 . S
O376 Dy360 2.351 . S
O376 C379 1.249 . S
O377 Dy363 2.326 . S
O377 C379 1.267 . S
C378 O370 1.249 . S
C378 O371 1.267 . S
C379 O376 1.249 . S
C379 O377 1.267 . S
Dy380 O384 2.398 . S
Dy380 O385 2.491 1_545 S
Dy380 O386 2.403 . S
Dy380 O387 2.664 . S
Dy380 O391 2.326 . S
Dy380 O395 2.310 1_545 S
Dy380 O396 2.351 . S
C381 O392 1.185 . S
C381 O393 1.355 1_565 S
C382 O384 1.185 . S
C382 O385 1.355 1_545 S
Dy383 O387 2.310 1_565 S
Dy383 O390 2.352 . S
Dy383 O392 2.398 . S
Dy383 O393 2.491 1_565 S
Dy383 O394 2.403 . S
Dy383 O395 2.664 . S
Dy383 O397 2.326 . S
O384 Dy380 2.398 . S
O384 C382 1.185 . S
O385 Dy380 2.491 1_565 S
O385 C382 1.355 1_565 S
O386 Dy380 2.403 . S
O386 C388 1.254 . S
O387 Dy380 2.664 . S
O387 Dy383 2.310 1_545 S
O387 C388 1.268 . S
C388 O386 1.254 . S
C388 O387 1.268 . S
C389 O394 1.254 . S
C389 O395 1.268 . S
O390 Dy383 2.352 . S
O390 C398 1.248 1_565 S
O391 Dy380 2.326 . S
O391 C398 1.267 . S
O392 C381 1.185 . S
O392 Dy383 2.398 . S
O393 C381 1.355 1_545 S
O393 Dy383 2.491 1_545 S
O394 Dy383 2.403 . S
O394 C389 1.254 . S
O395 Dy380 2.310 1_565 S
O395 Dy383 2.664 . S
O395 C389 1.268 . S
O396 Dy380 2.351 . S
O396 C399 1.249 . S
O397 Dy383 2.326 . S
O397 C399 1.267 1_565 S
C398 O390 1.248 1_545 S
C398 O391 1.267 . S
C399 O396 1.249 . S
C399 O397 1.267 1_545 S
Dy400 O404 2.398 . S
Dy400 O405 2.491 1_545 S
Dy400 O406 2.403 . S
Dy400 O407 2.664 . S
Dy400 O411 2.326 . S
Dy400 O415 2.310 1_545 S
Dy400 O416 2.352 . S
C401 O412 1.185 . S
C401 O413 1.355 1_565 S
C402 O404 1.185 . S
C402 O405 1.355 1_545 S
Dy403 O407 2.310 1_565 S
Dy403 O410 2.351 . S
Dy403 O412 2.398 . S
Dy403 O413 2.491 1_565 S
Dy403 O414 2.403 . S
Dy403 O415 2.664 . S
Dy403 O417 2.326 . S
O404 Dy400 2.398 . S
O404 C402 1.185 . S
O405 Dy400 2.491 1_565 S
O405 C402 1.355 1_565 S
O406 Dy400 2.403 . S
O406 C408 1.254 . S
O407 Dy400 2.664 . S
O407 Dy403 2.310 1_545 S
O407 C408 1.268 . S
C408 O406 1.254 . S
C408 O407 1.268 . S
C409 O414 1.254 . S
C409 O415 1.268 . S
O410 Dy403 2.351 . S
O410 C418 1.249 . S
O411 Dy400 2.326 . S
O411 C418 1.267 1_545 S
O412 C401 1.185 . S
O412 Dy403 2.398 . S
O413 C401 1.355 1_545 S
O413 Dy403 2.491 1_545 S
O414 Dy403 2.403 . S
O414 C409 1.254 . S
O415 Dy400 2.310 1_565 S
O415 Dy403 2.664 . S
O415 C409 1.268 . S
O416 Dy400 2.352 . S
O416 C419 1.248 1_545 S
O417 Dy403 2.326 . S
O417 C419 1.267 . S
C418 O410 1.249 . S
C418 O411 1.267 1_565 S
C419 O416 1.248 1_565 S
C419 O417 1.267 . S
Dy420 O424 2.398 . S
Dy420 O425 2.491 . S
Dy420 O426 2.403 . S
Dy420 O427 2.664 . S
Dy420 O431 2.326 . S
Dy420 O435 2.310 . S
Dy420 O436 2.351 . S
C421 O432 1.185 . S
C421 O433 1.355 . S
C422 O424 1.185 . S
C422 O425 1.355 . S
Dy423 O427 2.310 . S
Dy423 O430 2.351 . S
Dy423 O432 2.398 . S
Dy423 O433 2.491 . S
Dy423 O434 2.403 . S
Dy423 O435 2.664 . S
Dy423 O437 2.326 . S
O424 Dy420 2.398 . S
O424 C422 1.185 . S
O425 Dy420 2.491 . S
O425 C422 1.355 . S
O426 Dy420 2.403 . S
O426 C428 1.254 . S
O427 Dy420 2.664 . S
O427 Dy423 2.310 . S
O427 C428 1.268 . S
C428 O426 1.254 . S
C428 O427 1.268 . S
C429 O434 1.254 . S
C429 O435 1.268 . S
O430 Dy423 2.351 . S
O430 C438 1.249 . S
O431 Dy420 2.326 . S
O431 C438 1.267 . S
O432 C421 1.185 . S
O432 Dy423 2.398 . S
O433 C421 1.355 . S
O433 Dy423 2.491 . S
O434 Dy423 2.403 . S
O434 C429 1.254 . S
O435 Dy420 2.310 . S
O435 Dy423 2.664 . S
O435 C429 1.268 . S
O436 Dy420 2.351 . S
O436 C439 1.249 . S
O437 Dy423 2.326 . S
O437 C439 1.267 . S
C438 O430 1.249 . S
C438 O431 1.267 . S
C439 O436 1.249 . S
C439 O437 1.267 . S
Dy440 O444 2.398 . S
Dy440 O445 2.491 . S
Dy440 O446 2.403 . S
Dy440 O447 2.664 . S
Dy440 O451 2.326 . S
Dy440 O455 2.310 . S
Dy440 O456 2.351 . S
C441 O452 1.185 . S
C441 O453 1.355 . S
C442 O444 1.185 . S
C442 O445 1.355 . S
Dy443 O447 2.310 . S
Dy443 O450 2.351 . S
Dy443 O452 2.398 . S
Dy443 O453 2.491 . S
Dy443 O454 2.403 . S
Dy443 O455 2.664 . S
Dy443 O457 2.326 . S
O444 Dy440 2.398 . S
O444 C442 1.185 . S
O445 Dy440 2.491 . S
O445 C442 1.355 . S
O446 Dy440 2.403 . S
O446 C448 1.254 . S
O447 Dy440 2.664 . S
O447 Dy443 2.310 . S
O447 C448 1.268 . S
C448 O446 1.254 . S
C448 O447 1.268 . S
C449 O454 1.254 . S
C449 O455 1.268 . S
O450 Dy443 2.351 . S
O450 C458 1.249 . S
O451 Dy440 2.326 . S
O451 C458 1.267 . S
O452 C441 1.185 . S
O452 Dy443 2.398 . S
O453 C441 1.355 . S
O453 Dy443 2.491 . S
O454 Dy443 2.403 . S
O454 C449 1.254 . S
O455 Dy440 2.310 . S
O455 Dy443 2.664 . S
O455 C449 1.268 . S
O456 Dy440 2.351 . S
O456 C459 1.249 . S
O457 Dy443 2.326 . S
O457 C459 1.267 . S
C458 O450 1.249 . S
C458 O451 1.267 . S
C459 O456 1.249 . S
C459 O457 1.267 . S
Dy460 O464 2.398 . S
Dy460 O465 2.491 1_545 S
Dy460 O466 2.403 . S
Dy460 O467 2.664 . S
Dy460 O471 2.326 . S
Dy460 O475 2.310 1_545 S
Dy460 O476 2.352 . S
C461 O472 1.185 . S
C461 O473 1.355 1_565 S
C462 O464 1.185 . S
C462 O465 1.355 1_545 S
Dy463 O467 2.310 1_565 S
Dy463 O470 2.351 . S
Dy463 O472 2.398 . S
Dy463 O473 2.491 1_565 S
Dy463 O474 2.403 . S
Dy463 O475 2.664 . S
Dy463 O477 2.326 . S
O464 Dy460 2.398 . S
O464 C462 1.185 . S
O465 Dy460 2.491 1_565 S
O465 C462 1.355 1_565 S
O466 Dy460 2.403 . S
O466 C468 1.254 . S
O467 Dy460 2.664 . S
O467 Dy463 2.310 1_545 S
O467 C468 1.268 . S
C468 O466 1.254 . S
C468 O467 1.268 . S
C469 O474 1.254 . S
C469 O475 1.268 . S
O470 Dy463 2.351 . S
O470 C478 1.249 . S
O471 Dy460 2.326 . S
O471 C478 1.267 1_545 S
O472 C461 1.185 . S
O472 Dy463 2.398 . S
O473 C461 1.355 1_545 S
O473 Dy463 2.491 1_545 S
O474 Dy463 2.403 . S
O474 C469 1.254 . S
O475 Dy460 2.310 1_565 S
O475 Dy463 2.664 . S
O475 C469 1.268 . S
O476 Dy460 2.352 . S
O476 C479 1.248 1_545 S
O477 Dy463 2.326 . S
O477 C479 1.267 . S
C478 O470 1.249 . S
C478 O471 1.267 1_565 S
C479 O476 1.248 1_565 S
C479 O477 1.267 . S
Dy480 O484 2.398 . S
Dy480 O485 2.491 . S
Dy480 O486 2.403 . S
Dy480 O487 2.664 . S
Dy480 O491 2.326 . S
Dy480 O495 2.310 . S
Dy480 O496 2.351 . S
C481 O492 1.185 . S
C481 O493 1.355 . S
C482 O484 1.185 . S
C482 O485 1.355 . S
Dy483 O487 2.310 . S
Dy483 O490 2.351 . S
Dy483 O492 2.398 . S
Dy483 O493 2.491 . S
Dy483 O494 2.403 . S
Dy483 O495 2.664 . S
Dy483 O497 2.326 . S
O484 Dy480 2.398 . S
O484 C482 1.185 . S
O485 Dy480 2.491 . S
O485 C482 1.355 . S
O486 Dy480 2.403 . S
O486 C488 1.254 . S
O487 Dy480 2.664 . S
O487 Dy483 2.310 . S
O487 C488 1.268 . S
C488 O486 1.254 . S
C488 O487 1.268 . S
C489 O494 1.254 . S
C489 O495 1.268 . S
O490 Dy483 2.351 . S
O490 C498 1.249 . S
O491 Dy480 2.326 . S
O491 C498 1.267 . S
O492 C481 1.185 . S
O492 Dy483 2.398 . S
O493 C481 1.355 . S
O493 Dy483 2.491 . S
O494 Dy483 2.403 . S
O494 C489 1.254 . S
O495 Dy480 2.310 . S
O495 Dy483 2.664 . S
O495 C489 1.268 . S
O496 Dy480 2.351 . S
O496 C499 1.249 . S
O497 Dy483 2.326 . S
O497 C499 1.267 . S
C498 O490 1.249 . S
C498 O491 1.267 . S
C499 O496 1.249 . S
C499 O497 1.267 . S
Dy500 O504 2.398 . S
Dy500 O505 2.491 . S
Dy500 O506 2.403 . S
Dy500 O507 2.664 . S
Dy500 O511 2.326 . S
Dy500 O515 2.310 . S
Dy500 O516 2.351 . S
C501 O512 1.185 . S
C501 O513 1.355 . S
C502 O504 1.185 . S
C502 O505 1.355 . S
Dy503 O507 2.310 . S
Dy503 O510 2.351 . S
Dy503 O512 2.398 . S
Dy503 O513 2.491 . S
Dy503 O514 2.403 . S
Dy503 O515 2.664 . S
Dy503 O517 2.326 . S
O504 Dy500 2.398 . S
O504 C502 1.185 . S
O505 Dy500 2.491 . S
O505 C502 1.355 . S
O506 Dy500 2.403 . S
O506 C508 1.254 . S
O507 Dy500 2.664 . S
O507 Dy503 2.310 . S
O507 C508 1.268 . S
C508 O506 1.254 . S
C508 O507 1.268 . S
C509 O514 1.254 . S
C509 O515 1.268 . S
O510 Dy503 2.351 . S
O510 C518 1.249 . S
O511 Dy500 2.326 . S
O511 C518 1.267 . S
O512 C501 1.185 . S
O512 Dy503 2.398 . S
O513 C501 1.355 . S
O513 Dy503 2.491 . S
O514 Dy503 2.403 . S
O514 C509 1.254 . S
O515 Dy500 2.310 . S
O515 Dy503 2.664 . S
O515 C509 1.268 . S
O516 Dy500 2.351 . S
O516 C519 1.249 . S
O517 Dy503 2.326 . S
O517 C519 1.267 . S
C518 O510 1.249 . S
C518 O511 1.267 . S
C519 O516 1.249 . S
C519 O517 1.267 . S
Dy520 O524 2.398 . S
Dy520 O525 2.491 . S
Dy520 O526 2.403 . S
Dy520 O527 2.664 . S
Dy520 O531 2.326 . S
Dy520 O535 2.310 . S
Dy520 O536 2.351 . S
C521 O532 1.185 . S
C521 O533 1.355 . S
C522 O524 1.185 . S
C522 O525 1.355 . S
Dy523 O527 2.310 . S
Dy523 O530 2.351 . S
Dy523 O532 2.398 . S
Dy523 O533 2.491 . S
Dy523 O534 2.403 . S
Dy523 O535 2.664 . S
Dy523 O537 2.326 . S
O524 Dy520 2.398 . S
O524 C522 1.185 . S
O525 Dy520 2.491 . S
O525 C522 1.355 . S
O526 Dy520 2.403 . S
O526 C528 1.254 . S
O527 Dy520 2.664 . S
O527 Dy523 2.310 . S
O527 C528 1.268 . S
C528 O526 1.254 . S
C528 O527 1.268 . S
C529 O534 1.254 . S
C529 O535 1.268 . S
O530 Dy523 2.351 . S
O530 C538 1.249 . S
O531 Dy520 2.326 . S
O531 C538 1.267 . S
O532 C521 1.185 . S
O532 Dy523 2.398 . S
O533 C521 1.355 . S
O533 Dy523 2.491 . S
O534 Dy523 2.403 . S
O534 C529 1.254 . S
O535 Dy520 2.310 . S
O535 Dy523 2.664 . S
O535 C529 1.268 . S
O536 Dy520 2.351 . S
O536 C539 1.249 . S
O537 Dy523 2.326 . S
O537 C539 1.267 . S
C538 O530 1.249 . S
C538 O531 1.267 . S
C539 O536 1.249 . S
C539 O537 1.267 . S
Dy540 O544 2.398 . S
Dy540 O545 2.491 . S
Dy540 O546 2.403 . S
Dy540 O547 2.664 . S
Dy540 O551 2.326 . S
Dy540 O555 2.310 . S
Dy540 O556 2.351 . S
C541 O552 1.185 . S
C541 O553 1.355 . S
C542 O544 1.185 . S
C542 O545 1.355 . S
Dy543 O547 2.310 . S
Dy543 O550 2.351 . S
Dy543 O552 2.398 . S
Dy543 O553 2.491 . S
Dy543 O554 2.403 . S
Dy543 O555 2.664 . S
Dy543 O557 2.326 . S
O544 Dy540 2.398 . S
O544 C542 1.185 . S
O545 Dy540 2.491 . S
O545 C542 1.355 . S
O546 Dy540 2.403 . S
O546 C548 1.254 . S
O547 Dy540 2.664 . S
O547 Dy543 2.310 . S
O547 C548 1.268 . S
C548 O546 1.254 . S
C548 O547 1.268 . S
C549 O554 1.254 . S
C549 O555 1.268 . S
O550 Dy543 2.351 . S
O550 C558 1.249 . S
O551 Dy540 2.326 . S
O551 C558 1.267 . S
O552 C541 1.185 . S
O552 Dy543 2.398 . S
O553 C541 1.355 . S
O553 Dy543 2.491 . S
O554 Dy543 2.403 . S
O554 C549 1.254 . S
O555 Dy540 2.310 . S
O555 Dy543 2.664 . S
O555 C549 1.268 . S
O556 Dy540 2.351 . S
O556 C559 1.249 . S
O557 Dy543 2.326 . S
O557 C559 1.267 . S
C558 O550 1.249 . S
C558 O551 1.267 . S
C559 O556 1.249 . S
C559 O557 1.267 . S
Dy560 O564 2.398 . S
Dy560 O565 2.491 . S
Dy560 O566 2.403 . S
Dy560 O567 2.664 . S
Dy560 O571 2.326 . S
Dy560 O575 2.310 . S
Dy560 O576 2.351 . S
C561 O572 1.185 . S
C561 O573 1.355 . S
C562 O564 1.185 . S
C562 O565 1.355 . S
Dy563 O567 2.310 . S
Dy563 O570 2.351 . S
Dy563 O572 2.398 . S
Dy563 O573 2.491 . S
Dy563 O574 2.403 . S
Dy563 O575 2.664 . S
Dy563 O577 2.326 . S
O564 Dy560 2.398 . S
O564 C562 1.185 . S
O565 Dy560 2.491 . S
O565 C562 1.355 . S
O566 Dy560 2.403 . S
O566 C568 1.254 . S
O567 Dy560 2.664 . S
O567 Dy563 2.310 . S
O567 C568 1.268 . S
C568 O566 1.254 . S
C568 O567 1.268 . S
C569 O574 1.254 . S
C569 O575 1.268 . S
O570 Dy563 2.351 . S
O570 C578 1.249 . S
O571 Dy560 2.326 . S
O571 C578 1.267 . S
O572 C561 1.185 . S
O572 Dy563 2.398 . S
O573 C561 1.355 . S
O573 Dy563 2.491 . S
O574 Dy563 2.403 . S
O574 C569 1.254 . S
O575 Dy560 2.310 . S
O575 Dy563 2.664 . S
O575 C569 1.268 . S
O576 Dy560 2.351 . S
O576 C579 1.249 . S
O577 Dy563 2.326 . S
O577 C579 1.267 . S
C578 O570 1.249 . S
C578 O571 1.267 . S
C579 O576 1.249 . S
C579 O577 1.267 . S
Dy580 O584 2.398 . S
Dy580 O585 2.491 . S
Dy580 O586 2.403 . S
Dy580 O587 2.664 . S
Dy580 O591 2.326 . S
Dy580 O595 2.310 . S
Dy580 O596 2.351 . S
C581 O592 1.185 . S
C581 O593 1.355 . S
C582 O584 1.185 . S
C582 O585 1.355 . S
Dy583 O587 2.310 . S
Dy583 O590 2.351 . S
Dy583 O592 2.398 . S
Dy583 O593 2.491 . S
Dy583 O594 2.403 . S
Dy583 O595 2.664 . S
Dy583 O597 2.326 . S
O584 Dy580 2.398 . S
O584 C582 1.185 . S
O585 Dy580 2.491 . S
O585 C582 1.355 . S
O586 Dy580 2.403 . S
O586 C588 1.254 . S
O587 Dy580 2.664 . S
O587 Dy583 2.310 . S
O587 C588 1.268 . S
C588 O586 1.254 . S
C588 O587 1.268 . S
C589 O594 1.254 . S
C589 O595 1.268 . S
O590 Dy583 2.351 . S
O590 C598 1.249 . S
O591 Dy580 2.326 . S
O591 C598 1.267 . S
O592 C581 1.185 . S
O592 Dy583 2.398 . S
O593 C581 1.355 . S
O593 Dy583 2.491 . S
O594 Dy583 2.403 . S
O594 C589 1.254 . S
O595 Dy580 2.310 . S
O595 Dy583 2.664 . S
O595 C589 1.268 . S
O596 Dy580 2.351 . S
O596 C599 1.249 . S
O597 Dy583 2.326 . S
O597 C599 1.267 . S
C598 O590 1.249 . S
C598 O591 1.267 . S
C599 O596 1.249 . S
C599 O597 1.267 . S
Dy600 O604 2.398 . S
Dy600 O605 2.491 . S
Dy600 O606 2.403 . S
Dy600 O607 2.664 . S
Dy600 O611 2.326 . S
Dy600 O615 2.310 . S
Dy600 O616 2.351 . S
C601 O612 1.185 . S
C601 O613 1.355 . S
C602 O604 1.185 . S
C602 O605 1.355 . S
Dy603 O607 2.310 . S
Dy603 O610 2.351 . S
Dy603 O612 2.398 . S
Dy603 O613 2.491 . S
Dy603 O614 2.403 . S
Dy603 O615 2.664 . S
Dy603 O617 2.326 . S
O604 Dy600 2.398 . S
O604 C602 1.185 . S
O605 Dy600 2.491 . S
O605 C602 1.355 . S
O606 Dy600 2.403 . S
O606 C608 1.254 . S
O607 Dy600 2.664 . S
O607 Dy603 2.310 . S
O607 C608 1.268 . S
C608 O606 1.254 . S
C608 O607 1.268 . S
C609 O614 1.254 . S
C609 O615 1.268 . S
O610 Dy603 2.351 . S
O610 C618 1.249 . S
O611 Dy600 2.326 . S
O611 C618 1.267 . S
O612 C601 1.185 . S
O612 Dy603 2.398 . S
O613 C601 1.355 . S
O613 Dy603 2.491 . S
O614 Dy603 2.403 . S
O614 C609 1.254 . S
O615 Dy600 2.310 . S
O615 Dy603 2.664 . S
O615 C609 1.268 . S
O616 Dy600 2.351 . S
O616 C619 1.249 . S
O617 Dy603 2.326 . S
O617 C619 1.267 . S
C618 O610 1.249 . S
C618 O611 1.267 . S
C619 O616 1.249 . S
C619 O617 1.267 . S
Dy620 O624 2.398 . S
Dy620 O625 2.491 . S
Dy620 O626 2.403 . S
Dy620 O627 2.664 . S
Dy620 O631 2.326 . S
Dy620 O635 2.310 . S
Dy620 O636 2.351 . S
C621 O632 1.185 . S
C621 O633 1.355 . S
C622 O624 1.185 . S
C622 O625 1.355 . S
Dy623 O627 2.310 . S
Dy623 O630 2.351 . S
Dy623 O632 2.398 . S
Dy623 O633 2.491 . S
Dy623 O634 2.403 . S
Dy623 O635 2.664 . S
Dy623 O637 2.326 . S
O624 Dy620 2.398 . S
O624 C622 1.185 . S
O625 Dy620 2.491 . S
O625 C622 1.355 . S
O626 Dy620 2.403 . S
O626 C628 1.254 . S
O627 Dy620 2.664 . S
O627 Dy623 2.310 . S
O627 C628 1.268 . S
C628 O626 1.254 . S
C628 O627 1.268 . S
C629 O634 1.254 . S
C629 O635 1.268 . S
O630 Dy623 2.351 . S
O630 C638 1.249 . S
O631 Dy620 2.326 . S
O631 C638 1.267 . S
O632 C621 1.185 . S
O632 Dy623 2.398 . S
O633 C621 1.355 . S
O633 Dy623 2.491 . S
O634 Dy623 2.403 . S
O634 C629 1.254 . S
O635 Dy620 2.310 . S
O635 Dy623 2.664 . S
O635 C629 1.268 . S
O636 Dy620 2.351 . S
O636 C639 1.249 . S
O637 Dy623 2.326 . S
O637 C639 1.267 . S
C638 O630 1.249 . S
C638 O631 1.267 . S
C639 O636 1.249 . S
C639 O637 1.267 . S
H640 C648 0.929 . S
H641 C650 0.930 . S
H642 C652 0.930 . S
H643 C655 0.929 . S
H644 C658 0.930 . S
H645 C660 0.960 . S
H646 C660 0.960 . S
H647 C660 0.960 . S
C648 H640 0.929 . S
C648 C649 1.377 . S
C648 C650 1.384 . S
C649 C648 1.377 . S
C649 C655 1.390 . S
C650 H641 0.930 . S
C650 C648 1.384 . S
C650 C651 1.372 . S
C651 C650 1.372 . S
C651 C652 1.400 . S
C651 C656 1.490 . S
C652 H642 0.930 . S
C652 C651 1.400 . S
C652 C655 1.386 . S
H653 C669 0.930 . S
H654 C670 0.931 . S
C655 H643 0.929 . S
C655 C649 1.390 . S
C655 C652 1.386 . S
C656 C651 1.490 . S
C656 C658 1.395 . S
C656 C659 1.403 . S
H657 C663 0.930 . S
C658 H644 0.930 . S
C658 C656 1.395 . S
C658 C661 1.403 . S
C659 C656 1.403 . S
C659 C660 1.524 . S
C659 C663 1.400 . S
C660 H645 0.960 . S
C660 H646 0.960 . S
C660 H647 0.960 . S
C660 C659 1.524 . S
C661 C658 1.403 . S
C661 C662 1.392 . S
C661 C665 1.495 . S
C662 C661 1.392 . S
C662 C663 1.385 . S
C662 C664 1.478 . S
C663 H657 0.930 . S
C663 C659 1.400 . S
C663 C662 1.385 . S
C664 C662 1.478 . S
C664 C666 1.381 . S
C664 C670 1.383 . S
C665 C661 1.495 . S
C665 H671 0.959 . S
C665 H672 0.961 . S
C665 H673 0.960 . S
C666 C664 1.381 . S
C666 C667 1.394 . S
C666 H674 0.930 . S
C667 C666 1.394 . S
C667 C668 1.383 . S
C667 H675 0.929 . S
C668 C667 1.383 . S
C668 C669 1.377 . S
C669 H653 0.930 . S
C669 C668 1.377 . S
C669 C670 1.379 . S
C670 H654 0.931 . S
C670 C664 1.383 . S
C670 C669 1.379 . S
H671 C665 0.959 . S
H672 C665 0.961 . S
H673 C665 0.960 . S
H674 C666 0.930 . S
H675 C667 0.929 . S
H676 C684 0.929 . S
H677 C686 0.930 . S
H678 C688 0.930 . S
H679 C691 0.929 . S
H680 C694 0.930 . S
H681 C696 0.960 . S
H682 C696 0.960 . S
H683 C696 0.960 . S
C684 H676 0.929 . S
C684 C685 1.377 . S
C684 C686 1.384 . S
C685 C684 1.377 . S
C685 C691 1.390 . S
C686 H677 0.930 . S
C686 C684 1.384 . S
C686 C687 1.372 . S
C687 C686 1.372 . S
C687 C688 1.400 . S
C687 C692 1.490 . S
C688 H678 0.930 . S
C688 C687 1.400 . S
C688 C691 1.386 . S
H689 C705 0.930 . S
H690 C706 0.931 . S
C691 H679 0.929 . S
C691 C685 1.390 . S
C691 C688 1.386 . S
C692 C687 1.490 . S
C692 C694 1.395 . S
C692 C695 1.403 . S
H693 C699 0.930 . S
C694 H680 0.930 . S
C694 C692 1.395 . S
C694 C697 1.403 . S
C695 C692 1.403 . S
C695 C696 1.524 . S
C695 C699 1.400 . S
C696 H681 0.960 . S
C696 H682 0.960 . S
C696 H683 0.960 . S
C696 C695 1.524 . S
C697 C694 1.403 . S
C697 C698 1.392 . S
C697 C701 1.495 . S
C698 C697 1.392 . S
C698 C699 1.385 . S
C698 C700 1.478 . S
C699 H693 0.930 . S
C699 C695 1.400 . S
C699 C698 1.385 . S
C700 C698 1.478 . S
C700 C702 1.381 . S
C700 C706 1.383 . S
C701 C697 1.495 . S
C701 H707 0.959 . S
C701 H708 0.961 . S
C701 H709 0.960 . S
C702 C700 1.381 . S
C702 C703 1.394 . S
C702 H710 0.930 . S
C703 C702 1.394 . S
C703 C704 1.383 . S
C703 H711 0.929 . S
C704 C703 1.383 . S
C704 C705 1.377 . S
C705 H689 0.930 . S
C705 C704 1.377 . S
C705 C706 1.379 . S
C706 H690 0.931 . S
C706 C700 1.383 . S
C706 C705 1.379 . S
H707 C701 0.959 . S
H708 C701 0.961 . S
H709 C701 0.960 . S
H710 C702 0.930 . S
H711 C703 0.929 . S
H712 C720 0.929 . S
H713 C722 0.930 . S
H714 C724 0.930 . S
H715 C727 0.929 . S
H716 C730 0.930 . S
H717 C732 0.960 . S
H718 C732 0.960 . S
H719 C732 0.960 . S
C720 H712 0.929 . S
C720 C721 1.377 . S
C720 C722 1.384 . S
C721 C720 1.377 . S
C721 C727 1.390 . S
C722 H713 0.930 . S
C722 C720 1.384 . S
C722 C723 1.372 . S
C723 C722 1.372 . S
C723 C724 1.400 . S
C723 C728 1.490 . S
C724 H714 0.930 . S
C724 C723 1.400 . S
C724 C727 1.386 . S
H725 C741 0.930 . S
H726 C742 0.931 . S
C727 H715 0.929 . S
C727 C721 1.390 . S
C727 C724 1.386 . S
C728 C723 1.490 . S
C728 C730 1.395 . S
C728 C731 1.403 . S
H729 C735 0.930 . S
C730 H716 0.930 . S
C730 C728 1.395 . S
C730 C733 1.403 . S
C731 C728 1.403 . S
C731 C732 1.524 . S
C731 C735 1.400 . S
C732 H717 0.960 . S
C732 H718 0.960 . S
C732 H719 0.960 . S
C732 C731 1.524 . S
C733 C730 1.403 . S
C733 C734 1.392 . S
C733 C737 1.495 . S
C734 C733 1.392 . S
C734 C735 1.385 . S
C734 C736 1.478 . S
C735 H729 0.930 . S
C735 C731 1.400 . S
C735 C734 1.385 . S
C736 C734 1.478 . S
C736 C738 1.381 . S
C736 C742 1.383 . S
C737 C733 1.495 . S
C737 H743 0.959 . S
C737 H744 0.961 . S
C737 H745 0.960 . S
C738 C736 1.381 . S
C738 C739 1.394 . S
C738 H746 0.930 . S
C739 C738 1.394 . S
C739 C740 1.383 . S
C739 H747 0.929 . S
C740 C739 1.383 . S
C740 C741 1.377 . S
C741 H725 0.930 . S
C741 C740 1.377 . S
C741 C742 1.379 . S
C742 H726 0.931 . S
C742 C736 1.383 . S
C742 C741 1.379 . S
H743 C737 0.959 . S
H744 C737 0.961 . S
H745 C737 0.960 . S
H746 C738 0.930 . S
H747 C739 0.929 . S
H748 C756 0.929 . S
H749 C758 0.930 . S
H750 C760 0.930 . S
H751 C763 0.929 . S
H752 C766 0.930 . S
H753 C768 0.960 . S
H754 C768 0.960 . S
H755 C768 0.960 . S
C756 H748 0.929 . S
C756 C757 1.377 . S
C756 C758 1.384 . S
C757 C756 1.377 . S
C757 C763 1.390 . S
C758 H749 0.930 . S
C758 C756 1.384 . S
C758 C759 1.372 . S
C759 C758 1.372 . S
C759 C760 1.400 . S
C759 C764 1.490 . S
C760 H750 0.930 . S
C760 C759 1.400 . S
C760 C763 1.386 . S
H761 C777 0.930 . S
H762 C778 0.931 . S
C763 H751 0.929 . S
C763 C757 1.390 . S
C763 C760 1.386 . S
C764 C759 1.490 . S
C764 C766 1.395 . S
C764 C767 1.403 . S
H765 C771 0.930 . S
C766 H752 0.930 . S
C766 C764 1.395 . S
C766 C769 1.403 . S
C767 C764 1.403 . S
C767 C768 1.524 . S
C767 C771 1.400 . S
C768 H753 0.960 . S
C768 H754 0.960 . S
C768 H755 0.960 . S
C768 C767 1.524 . S
C769 C766 1.403 . S
C769 C770 1.392 . S
C769 C773 1.495 . S
C770 C769 1.392 . S
C770 C771 1.385 . S
C770 C772 1.478 . S
C771 H765 0.930 . S
C771 C767 1.400 . S
C771 C770 1.385 . S
C772 C770 1.478 . S
C772 C774 1.381 . S
C772 C778 1.383 . S
C773 C769 1.495 . S
C773 H779 0.959 . S
C773 H780 0.961 . S
C773 H781 0.960 . S
C774 C772 1.381 . S
C774 C775 1.394 . S
C774 H782 0.930 . S
C775 C774 1.394 . S
C775 C776 1.383 . S
C775 H783 0.929 . S
C776 C775 1.383 . S
C776 C777 1.377 . S
C777 H761 0.930 . S
C777 C776 1.377 . S
C777 C778 1.379 . S
C778 H762 0.931 . S
C778 C772 1.383 . S
C778 C777 1.379 . S
H779 C773 0.959 . S
H780 C773 0.961 . S
H781 C773 0.960 . S
H782 C774 0.930 . S
H783 C775 0.929 . S
H784 C792 0.929 . S
H785 C794 0.930 . S
H786 C796 0.930 . S
H787 C799 0.929 . S
H788 C802 0.930 . S
H789 C804 0.960 . S
H790 C804 0.960 . S
H791 C804 0.960 . S
C792 H784 0.929 . S
C792 C793 1.377 . S
C792 C794 1.384 . S
C793 C792 1.377 . S
C793 C799 1.390 . S
C794 H785 0.930 . S
C794 C792 1.384 . S
C794 C795 1.372 . S
C795 C794 1.372 . S
C795 C796 1.400 . S
C795 C800 1.490 . S
C796 H786 0.930 . S
C796 C795 1.400 . S
C796 C799 1.386 . S
H797 C813 0.930 . S
H798 C814 0.931 . S
C799 H787 0.929 . S
C799 C793 1.390 . S
C799 C796 1.386 . S
C800 C795 1.490 . S
C800 C802 1.395 . S
C800 C803 1.403 . S
H801 C807 0.930 . S
C802 H788 0.930 . S
C802 C800 1.395 . S
C802 C805 1.403 . S
C803 C800 1.403 . S
C803 C804 1.524 . S
C803 C807 1.400 . S
C804 H789 0.960 . S
C804 H790 0.960 . S
C804 H791 0.960 . S
C804 C803 1.524 . S
C805 C802 1.403 . S
C805 C806 1.392 . S
C805 C809 1.495 . S
C806 C805 1.392 . S
C806 C807 1.385 . S
C806 C808 1.478 . S
C807 H801 0.930 . S
C807 C803 1.400 . S
C807 C806 1.385 . S
C808 C806 1.478 . S
C808 C810 1.381 . S
C808 C814 1.383 . S
C809 C805 1.495 . S
C809 H815 0.959 . S
C809 H816 0.961 . S
C809 H817 0.960 . S
C810 C808 1.381 . S
C810 C811 1.394 . S
C810 H818 0.930 . S
C811 C810 1.394 . S
C811 C812 1.383 . S
C811 H819 0.929 . S
C812 C811 1.383 . S
C812 C813 1.377 . S
C813 H797 0.930 . S
C813 C812 1.377 . S
C813 C814 1.379 . S
C814 H798 0.931 . S
C814 C808 1.383 . S
C814 C813 1.379 . S
H815 C809 0.959 . S
H816 C809 0.961 . S
H817 C809 0.960 . S
H818 C810 0.930 . S
H819 C811 0.929 . S
H820 C828 0.929 . S
H821 C830 0.930 . S
H822 C832 0.930 . S
H823 C835 0.929 . S
H824 C838 0.930 . S
H825 C840 0.960 . S
H826 C840 0.960 . S
H827 C840 0.960 . S
C828 H820 0.929 . S
C828 C829 1.377 . S
C828 C830 1.384 . S
C829 C828 1.377 . S
C829 C835 1.390 . S
C830 H821 0.930 . S
C830 C828 1.384 . S
C830 C831 1.372 . S
C831 C830 1.372 . S
C831 C832 1.400 . S
C831 C836 1.490 . S
C832 H822 0.930 . S
C832 C831 1.400 . S
C832 C835 1.386 . S
H833 C849 0.930 . S
H834 C850 0.931 . S
C835 H823 0.929 . S
C835 C829 1.390 . S
C835 C832 1.386 . S
C836 C831 1.490 . S
C836 C838 1.395 . S
C836 C839 1.403 . S
H837 C843 0.930 . S
C838 H824 0.930 . S
C838 C836 1.395 . S
C838 C841 1.403 . S
C839 C836 1.403 . S
C839 C840 1.524 . S
C839 C843 1.400 . S
C840 H825 0.960 . S
C840 H826 0.960 . S
C840 H827 0.960 . S
C840 C839 1.524 . S
C841 C838 1.403 . S
C841 C842 1.392 . S
C841 C845 1.495 . S
C842 C841 1.392 . S
C842 C843 1.385 . S
C842 C844 1.478 . S
C843 H837 0.930 . S
C843 C839 1.400 . S
C843 C842 1.385 . S
C844 C842 1.478 . S
C844 C846 1.381 . S
C844 C850 1.383 . S
C845 C841 1.495 . S
C845 H851 0.959 . S
C845 H852 0.961 . S
C845 H853 0.960 . S
C846 C844 1.381 . S
C846 C847 1.394 . S
C846 H854 0.930 . S
C847 C846 1.394 . S
C847 C848 1.383 . S
C847 H855 0.929 . S
C848 C847 1.383 . S
C848 C849 1.377 . S
C849 H833 0.930 . S
C849 C848 1.377 . S
C849 C850 1.379 . S
C850 H834 0.931 . S
C850 C844 1.383 . S
C850 C849 1.379 . S
H851 C845 0.959 . S
H852 C845 0.961 . S
H853 C845 0.960 . S
H854 C846 0.930 . S
H855 C847 0.929 . S
H856 C864 0.929 . S
H857 C866 0.930 . S
H858 C868 0.930 . S
H859 C871 0.929 . S
H860 C874 0.930 . S
H861 C876 0.960 . S
H862 C876 0.960 . S
H863 C876 0.960 . S
C864 H856 0.929 . S
C864 C865 1.377 . S
C864 C866 1.384 . S
C865 C864 1.377 . S
C865 C871 1.390 . S
C866 H857 0.930 . S
C866 C864 1.384 . S
C866 C867 1.372 . S
C867 C866 1.372 . S
C867 C868 1.400 . S
C867 C872 1.490 . S
C868 H858 0.930 . S
C868 C867 1.400 . S
C868 C871 1.386 . S
H869 C885 0.930 . S
H870 C886 0.931 . S
C871 H859 0.929 . S
C871 C865 1.390 . S
C871 C868 1.386 . S
C872 C867 1.490 . S
C872 C874 1.395 . S
C872 C875 1.403 . S
H873 C879 0.930 . S
C874 H860 0.930 . S
C874 C872 1.395 . S
C874 C877 1.403 . S
C875 C872 1.403 . S
C875 C876 1.524 . S
C875 C879 1.400 . S
C876 H861 0.960 . S
C876 H862 0.960 . S
C876 H863 0.960 . S
C876 C875 1.524 . S
C877 C874 1.403 . S
C877 C878 1.392 . S
C877 C881 1.495 . S
C878 C877 1.392 . S
C878 C879 1.385 . S
C878 C880 1.478 . S
C879 H873 0.930 . S
C879 C875 1.400 . S
C879 C878 1.385 . S
C880 C878 1.478 . S
C880 C882 1.381 . S
C880 C886 1.383 . S
C881 C877 1.495 . S
C881 H887 0.959 . S
C881 H888 0.961 . S
C881 H889 0.960 . S
C882 C880 1.381 . S
C882 C883 1.394 . S
C882 H890 0.930 . S
C883 C882 1.394 . S
C883 C884 1.383 . S
C883 H891 0.929 . S
C884 C883 1.383 . S
C884 C885 1.377 . S
C885 H869 0.930 . S
C885 C884 1.377 . S
C885 C886 1.379 . S
C886 H870 0.931 . S
C886 C880 1.383 . S
C886 C885 1.379 . S
H887 C881 0.959 . S
H888 C881 0.961 . S
H889 C881 0.960 . S
H890 C882 0.930 . S
H891 C883 0.929 . S
H892 C900 0.929 . S
H893 C902 0.930 . S
H894 C904 0.930 . S
H895 C907 0.929 . S
H896 C910 0.930 . S
H897 C912 0.960 . S
H898 C912 0.960 . S
H899 C912 0.960 . S
C900 H892 0.929 . S
C900 C901 1.377 . S
C900 C902 1.384 . S
C901 C900 1.377 . S
C901 C907 1.390 . S
C902 H893 0.930 . S
C902 C900 1.384 . S
C902 C903 1.372 . S
C903 C902 1.372 . S
C903 C904 1.400 . S
C903 C908 1.490 . S
C904 H894 0.930 . S
C904 C903 1.400 . S
C904 C907 1.386 . S
H905 C921 0.930 . S
H906 C922 0.931 . S
C907 H895 0.929 . S
C907 C901 1.390 . S
C907 C904 1.386 . S
C908 C903 1.490 . S
C908 C910 1.395 . S
C908 C911 1.403 . S
H909 C915 0.930 . S
C910 H896 0.930 . S
C910 C908 1.395 . S
C910 C913 1.403 . S
C911 C908 1.403 . S
C911 C912 1.524 . S
C911 C915 1.400 . S
C912 H897 0.960 . S
C912 H898 0.960 . S
C912 H899 0.960 . S
C912 C911 1.524 . S
C913 C910 1.403 . S
C913 C914 1.392 . S
C913 C917 1.495 . S
C914 C913 1.392 . S
C914 C915 1.385 . S
C914 C916 1.478 . S
C915 H909 0.930 . S
C915 C911 1.400 . S
C915 C914 1.385 . S
C916 C914 1.478 . S
C916 C918 1.381 . S
C916 C922 1.383 . S
C917 C913 1.495 . S
C917 H923 0.959 . S
C917 H924 0.961 . S
C917 H925 0.960 . S
C918 C916 1.381 . S
C918 C919 1.394 . S
C918 H926 0.930 . S
C919 C918 1.394 . S
C919 C920 1.383 . S
C919 H927 0.929 . S
C920 C919 1.383 . S
C920 C921 1.377 . S
C921 H905 0.930 . S
C921 C920 1.377 . S
C921 C922 1.379 . S
C922 H906 0.931 . S
C922 C916 1.383 . S
C922 C921 1.379 . S
H923 C917 0.959 . S
H924 C917 0.961 . S
H925 C917 0.960 . S
H926 C918 0.930 . S
H927 C919 0.929 . S
H928 C936 0.929 . S
H929 C938 0.930 . S
H930 C940 0.930 . S
H931 C943 0.929 . S
H932 C946 0.930 . S
H933 C948 0.960 . S
H934 C948 0.960 . S
H935 C948 0.960 . S
C936 H928 0.929 . S
C936 C937 1.377 . S
C936 C938 1.384 . S
C937 C936 1.377 . S
C937 C943 1.390 . S
C938 H929 0.930 . S
C938 C936 1.384 . S
C938 C939 1.372 . S
C939 C938 1.372 . S
C939 C940 1.400 . S
C939 C944 1.490 . S
C940 H930 0.930 . S
C940 C939 1.400 . S
C940 C943 1.386 . S
H941 C957 0.930 . S
H942 C958 0.931 . S
C943 H931 0.929 . S
C943 C937 1.390 . S
C943 C940 1.386 . S
C944 C939 1.490 . S
C944 C946 1.395 . S
C944 C947 1.403 . S
H945 C951 0.930 . S
C946 H932 0.930 . S
C946 C944 1.395 . S
C946 C949 1.403 . S
C947 C944 1.403 . S
C947 C948 1.524 . S
C947 C951 1.400 . S
C948 H933 0.960 . S
C948 H934 0.960 . S
C948 H935 0.960 . S
C948 C947 1.524 . S
C949 C946 1.403 . S
C949 C950 1.392 . S
C949 C953 1.495 . S
C950 C949 1.392 . S
C950 C951 1.385 . S
C950 C952 1.478 . S
C951 H945 0.930 . S
C951 C947 1.400 . S
C951 C950 1.385 . S
C952 C950 1.478 . S
C952 C954 1.381 . S
C952 C958 1.383 . S
C953 C949 1.495 . S
C953 H959 0.959 . S
C953 H960 0.961 . S
C953 H961 0.960 . S
C954 C952 1.381 . S
C954 C955 1.394 . S
C954 H962 0.930 . S
C955 C954 1.394 . S
C955 C956 1.383 . S
C955 H963 0.929 . S
C956 C955 1.383 . S
C956 C957 1.377 . S
C957 H941 0.930 . S
C957 C956 1.377 . S
C957 C958 1.379 . S
C958 H942 0.931 . S
C958 C952 1.383 . S
C958 C957 1.379 . S
H959 C953 0.959 . S
H960 C953 0.961 . S
H961 C953 0.960 . S
H962 C954 0.930 . S
H963 C955 0.929 . S
H964 C972 0.929 . S
H965 C974 0.930 . S
H966 C976 0.930 . S
H967 C979 0.929 . S
H968 C982 0.930 . S
H969 C984 0.960 . S
H970 C984 0.960 . S
H971 C984 0.960 . S
C972 H964 0.929 . S
C972 C973 1.377 . S
C972 C974 1.384 . S
C973 C972 1.377 . S
C973 C979 1.390 . S
C974 H965 0.930 . S
C974 C972 1.384 . S
C974 C975 1.372 . S
C975 C974 1.372 . S
C975 C976 1.400 . S
C975 C980 1.490 . S
C976 H966 0.930 . S
C976 C975 1.400 . S
C976 C979 1.386 . S
H977 C993 0.930 . S
H978 C994 0.931 . S
C979 H967 0.929 . S
C979 C973 1.390 . S
C979 C976 1.386 . S
C980 C975 1.490 . S
C980 C982 1.395 . S
C980 C983 1.403 . S
H981 C987 0.930 . S
C982 H968 0.930 . S
C982 C980 1.395 . S
C982 C985 1.403 . S
C983 C980 1.403 . S
C983 C984 1.524 . S
C983 C987 1.400 . S
C984 H969 0.960 . S
C984 H970 0.960 . S
C984 H971 0.960 . S
C984 C983 1.524 . S
C985 C982 1.403 . S
C985 C986 1.392 . S
C985 C989 1.495 . S
C986 C985 1.392 . S
C986 C987 1.385 . S
C986 C988 1.478 . S
C987 H981 0.930 . S
C987 C983 1.400 . S
C987 C986 1.385 . S
C988 C986 1.478 . S
C988 C990 1.381 . S
C988 C994 1.383 . S
C989 C985 1.495 . S
C989 H995 0.959 . S
C989 H996 0.961 . S
C989 H997 0.960 . S
C990 C988 1.381 . S
C990 C991 1.394 . S
C990 H998 0.930 . S
C991 C990 1.394 . S
C991 C992 1.383 . S
C991 H999 0.929 . S
C992 C991 1.383 . S
C992 C993 1.377 . S
C993 H977 0.930 . S
C993 C992 1.377 . S
C993 C994 1.379 . S
C994 H978 0.931 . S
C994 C988 1.383 . S
C994 C993 1.379 . S
H995 C989 0.959 . S
H996 C989 0.961 . S
H997 C989 0.960 . S
H998 C990 0.930 . S
H999 C991 0.929 . S
H1000 C1008 0.929 . S
H1001 C1010 0.930 . S
H1002 C1012 0.930 . S
H1003 C1015 0.929 . S
H1004 C1018 0.930 . S
H1005 C1020 0.960 . S
H1006 C1020 0.960 . S
H1007 C1020 0.960 . S
C1008 H1000 0.929 . S
C1008 C1009 1.377 . S
C1008 C1010 1.384 . S
C1009 C1008 1.377 . S
C1009 C1015 1.390 . S
C1010 H1001 0.930 . S
C1010 C1008 1.384 . S
C1010 C1011 1.372 . S
C1011 C1010 1.372 . S
C1011 C1012 1.400 . S
C1011 C1016 1.490 . S
C1012 H1002 0.930 . S
C1012 C1011 1.400 . S
C1012 C1015 1.386 . S
H1013 C1029 0.930 . S
H1014 C1030 0.931 . S
C1015 H1003 0.929 . S
C1015 C1009 1.390 . S
C1015 C1012 1.386 . S
C1016 C1011 1.490 . S
C1016 C1018 1.395 . S
C1016 C1019 1.403 . S
H1017 C1023 0.930 . S
C1018 H1004 0.930 . S
C1018 C1016 1.395 . S
C1018 C1021 1.403 . S
C1019 C1016 1.403 . S
C1019 C1020 1.524 . S
C1019 C1023 1.400 . S
C1020 H1005 0.960 . S
C1020 H1006 0.960 . S
C1020 H1007 0.960 . S
C1020 C1019 1.524 . S
C1021 C1018 1.403 . S
C1021 C1022 1.392 . S
C1021 C1025 1.495 . S
C1022 C1021 1.392 . S
C1022 C1023 1.385 . S
C1022 C1024 1.478 . S
C1023 H1017 0.930 . S
C1023 C1019 1.400 . S
C1023 C1022 1.385 . S
C1024 C1022 1.478 . S
C1024 C1026 1.381 . S
C1024 C1030 1.383 . S
C1025 C1021 1.495 . S
C1025 H1031 0.959 . S
C1025 H1032 0.961 . S
C1025 H1033 0.960 . S
C1026 C1024 1.381 . S
C1026 C1027 1.394 . S
C1026 H1034 0.930 . S
C1027 C1026 1.394 . S
C1027 C1028 1.383 . S
C1027 H1035 0.929 . S
C1028 C1027 1.383 . S
C1028 C1029 1.377 . S
C1029 H1013 0.930 . S
C1029 C1028 1.377 . S
C1029 C1030 1.379 . S
C1030 H1014 0.931 . S
C1030 C1024 1.383 . S
C1030 C1029 1.379 . S
H1031 C1025 0.959 . S
H1032 C1025 0.961 . S
H1033 C1025 0.960 . S
H1034 C1026 0.930 . S
H1035 C1027 0.929 . S
H1036 C1044 0.929 . S
H1037 C1046 0.930 . S
H1038 C1048 0.930 . S
H1039 C1051 0.929 . S
H1040 C1054 0.930 . S
H1041 C1056 0.960 . S
H1042 C1056 0.960 . S
H1043 C1056 0.960 . S
C1044 H1036 0.929 . S
C1044 C1045 1.377 . S
C1044 C1046 1.384 . S
C1045 C1044 1.377 . S
C1045 C1051 1.390 . S
C1046 H1037 0.930 . S
C1046 C1044 1.384 . S
C1046 C1047 1.372 . S
C1047 C1046 1.372 . S
C1047 C1048 1.400 . S
C1047 C1052 1.490 . S
C1048 H1038 0.930 . S
C1048 C1047 1.400 . S
C1048 C1051 1.386 . S
H1049 C1065 0.930 . S
H1050 C1066 0.931 . S
C1051 H1039 0.929 . S
C1051 C1045 1.390 . S
C1051 C1048 1.386 . S
C1052 C1047 1.490 . S
C1052 C1054 1.395 . S
C1052 C1055 1.403 . S
H1053 C1059 0.930 . S
C1054 H1040 0.930 . S
C1054 C1052 1.395 . S
C1054 C1057 1.403 . S
C1055 C1052 1.403 . S
C1055 C1056 1.524 . S
C1055 C1059 1.400 . S
C1056 H1041 0.960 . S
C1056 H1042 0.960 . S
C1056 H1043 0.960 . S
C1056 C1055 1.524 . S
C1057 C1054 1.403 . S
C1057 C1058 1.392 . S
C1057 C1061 1.495 . S
C1058 C1057 1.392 . S
C1058 C1059 1.385 . S
C1058 C1060 1.478 . S
C1059 H1053 0.930 . S
C1059 C1055 1.400 . S
C1059 C1058 1.385 . S
C1060 C1058 1.478 . S
C1060 C1062 1.381 . S
C1060 C1066 1.383 . S
C1061 C1057 1.495 . S
C1061 H1067 0.959 . S
C1061 H1068 0.961 . S
C1061 H1069 0.960 . S
C1062 C1060 1.381 . S
C1062 C1063 1.394 . S
C1062 H1070 0.930 . S
C1063 C1062 1.394 . S
C1063 C1064 1.383 . S
C1063 H1071 0.929 . S
C1064 C1063 1.383 . S
C1064 C1065 1.377 . S
C1065 H1049 0.930 . S
C1065 C1064 1.377 . S
C1065 C1066 1.379 . S
C1066 H1050 0.931 . S
C1066 C1060 1.383 . S
C1066 C1065 1.379 . S
H1067 C1061 0.959 . S
H1068 C1061 0.961 . S
H1069 C1061 0.960 . S
H1070 C1062 0.930 . S
H1071 C1063 0.929 . S
H1072 C1080 0.929 . S
H1073 C1082 0.930 . S
H1074 C1084 0.930 . S
H1075 C1087 0.929 . S
H1076 C1090 0.930 . S
H1077 C1092 0.960 . S
H1078 C1092 0.960 . S
H1079 C1092 0.960 . S
C1080 H1072 0.929 . S
C1080 C1081 1.377 . S
C1080 C1082 1.384 . S
C1081 C1080 1.377 . S
C1081 C1087 1.390 . S
C1082 H1073 0.930 . S
C1082 C1080 1.384 . S
C1082 C1083 1.372 . S
C1083 C1082 1.372 . S
C1083 C1084 1.400 . S
C1083 C1088 1.490 . S
C1084 H1074 0.930 . S
C1084 C1083 1.400 . S
C1084 C1087 1.386 . S
H1085 C1101 0.930 . S
H1086 C1102 0.931 . S
C1087 H1075 0.929 . S
C1087 C1081 1.390 . S
C1087 C1084 1.386 . S
C1088 C1083 1.490 . S
C1088 C1090 1.395 . S
C1088 C1091 1.403 . S
H1089 C1095 0.930 . S
C1090 H1076 0.930 . S
C1090 C1088 1.395 . S
C1090 C1093 1.403 . S
C1091 C1088 1.403 . S
C1091 C1092 1.524 . S
C1091 C1095 1.400 . S
C1092 H1077 0.960 . S
C1092 H1078 0.960 . S
C1092 H1079 0.960 . S
C1092 C1091 1.524 . S
C1093 C1090 1.403 . S
C1093 C1094 1.392 . S
C1093 C1097 1.495 . S
C1094 C1093 1.392 . S
C1094 C1095 1.385 . S
C1094 C1096 1.478 . S
C1095 H1089 0.930 . S
C1095 C1091 1.400 . S
C1095 C1094 1.385 . S
C1096 C1094 1.478 . S
C1096 C1098 1.381 . S
C1096 C1102 1.383 . S
C1097 C1093 1.495 . S
C1097 H1103 0.959 . S
C1097 H1104 0.961 . S
C1097 H1105 0.960 . S
C1098 C1096 1.381 . S
C1098 C1099 1.394 . S
C1098 H1106 0.930 . S
C1099 C1098 1.394 . S
C1099 C1100 1.383 . S
C1099 H1107 0.929 . S
C1100 C1099 1.383 . S
C1100 C1101 1.377 . S
C1101 H1085 0.930 . S
C1101 C1100 1.377 . S
C1101 C1102 1.379 . S
C1102 H1086 0.931 . S
C1102 C1096 1.383 . S
C1102 C1101 1.379 . S
H1103 C1097 0.959 . S
H1104 C1097 0.961 . S
H1105 C1097 0.960 . S
H1106 C1098 0.930 . S
H1107 C1099 0.929 . S
H1108 C1116 0.929 . S
H1109 C1118 0.930 . S
H1110 C1120 0.930 . S
H1111 C1123 0.929 . S
H1112 C1126 0.930 . S
H1113 C1128 0.960 . S
H1114 C1128 0.960 . S
H1115 C1128 0.960 . S
C1116 H1108 0.929 . S
C1116 C1117 1.377 . S
C1116 C1118 1.384 . S
C1117 C1116 1.377 . S
C1117 C1123 1.390 . S
C1118 H1109 0.930 . S
C1118 C1116 1.384 . S
C1118 C1119 1.372 . S
C1119 C1118 1.372 . S
C1119 C1120 1.400 . S
C1119 C1124 1.490 . S
C1120 H1110 0.930 . S
C1120 C1119 1.400 . S
C1120 C1123 1.386 . S
H1121 C1137 0.930 . S
H1122 C1138 0.931 . S
C1123 H1111 0.929 . S
C1123 C1117 1.390 . S
C1123 C1120 1.386 . S
C1124 C1119 1.490 . S
C1124 C1126 1.395 . S
C1124 C1127 1.403 . S
H1125 C1131 0.930 . S
C1126 H1112 0.930 . S
C1126 C1124 1.395 . S
C1126 C1129 1.403 . S
C1127 C1124 1.403 . S
C1127 C1128 1.524 . S
C1127 C1131 1.400 . S
C1128 H1113 0.960 . S
C1128 H1114 0.960 . S
C1128 H1115 0.960 . S
C1128 C1127 1.524 . S
C1129 C1126 1.403 . S
C1129 C1130 1.392 . S
C1129 C1133 1.495 . S
C1130 C1129 1.392 . S
C1130 C1131 1.385 . S
C1130 C1132 1.478 . S
C1131 H1125 0.930 . S
C1131 C1127 1.400 . S
C1131 C1130 1.385 . S
C1132 C1130 1.478 . S
C1132 C1134 1.381 . S
C1132 C1138 1.383 . S
C1133 C1129 1.495 . S
C1133 H1139 0.959 . S
C1133 H1140 0.961 . S
C1133 H1141 0.960 . S
C1134 C1132 1.381 . S
C1134 C1135 1.394 . S
C1134 H1142 0.930 . S
C1135 C1134 1.394 . S
C1135 C1136 1.383 . S
C1135 H1143 0.929 . S
C1136 C1135 1.383 . S
C1136 C1137 1.377 . S
C1137 H1121 0.930 . S
C1137 C1136 1.377 . S
C1137 C1138 1.379 . S
C1138 H1122 0.931 . S
C1138 C1132 1.383 . S
C1138 C1137 1.379 . S
H1139 C1133 0.959 . S
H1140 C1133 0.961 . S
H1141 C1133 0.960 . S
H1142 C1134 0.930 . S
H1143 C1135 0.929 . S
H1144 C1152 0.929 . S
H1145 C1154 0.930 . S
H1146 C1156 0.930 . S
H1147 C1159 0.929 . S
H1148 C1162 0.930 . S
H1149 C1164 0.960 . S
H1150 C1164 0.960 . S
H1151 C1164 0.960 . S
C1152 H1144 0.929 . S
C1152 C1153 1.377 . S
C1152 C1154 1.384 . S
C1153 C1152 1.377 . S
C1153 C1159 1.390 . S
C1154 H1145 0.930 . S
C1154 C1152 1.384 . S
C1154 C1155 1.372 . S
C1155 C1154 1.372 . S
C1155 C1156 1.400 . S
C1155 C1160 1.490 . S
C1156 H1146 0.930 . S
C1156 C1155 1.400 . S
C1156 C1159 1.386 . S
H1157 C1173 0.930 . S
H1158 C1174 0.931 . S
C1159 H1147 0.929 . S
C1159 C1153 1.390 . S
C1159 C1156 1.386 . S
C1160 C1155 1.490 . S
C1160 C1162 1.395 . S
C1160 C1163 1.403 . S
H1161 C1167 0.930 . S
C1162 H1148 0.930 . S
C1162 C1160 1.395 . S
C1162 C1165 1.403 . S
C1163 C1160 1.403 . S
C1163 C1164 1.524 . S
C1163 C1167 1.400 . S
C1164 H1149 0.960 . S
C1164 H1150 0.960 . S
C1164 H1151 0.960 . S
C1164 C1163 1.524 . S
C1165 C1162 1.403 . S
C1165 C1166 1.392 . S
C1165 C1169 1.495 . S
C1166 C1165 1.392 . S
C1166 C1167 1.385 . S
C1166 C1168 1.478 . S
C1167 H1161 0.930 . S
C1167 C1163 1.400 . S
C1167 C1166 1.385 . S
C1168 C1166 1.478 . S
C1168 C1170 1.381 . S
C1168 C1174 1.383 . S
C1169 C1165 1.495 . S
C1169 H1175 0.959 . S
C1169 H1176 0.961 . S
C1169 H1177 0.960 . S
C1170 C1168 1.381 . S
C1170 C1171 1.394 . S
C1170 H1178 0.930 . S
C1171 C1170 1.394 . S
C1171 C1172 1.383 . S
C1171 H1179 0.929 . S
C1172 C1171 1.383 . S
C1172 C1173 1.377 . S
C1173 H1157 0.930 . S
C1173 C1172 1.377 . S
C1173 C1174 1.379 . S
C1174 H1158 0.931 . S
C1174 C1168 1.383 . S
C1174 C1173 1.379 . S
H1175 C1169 0.959 . S
H1176 C1169 0.961 . S
H1177 C1169 0.960 . S
H1178 C1170 0.930 . S
H1179 C1171 0.929 . S
H1180 C1188 0.929 . S
H1181 C1190 0.930 . S
H1182 C1192 0.930 . S
H1183 C1195 0.929 . S
H1184 C1198 0.930 . S
H1185 C1200 0.960 . S
H1186 C1200 0.960 . S
H1187 C1200 0.960 . S
C1188 H1180 0.929 . S
C1188 C1189 1.377 . S
C1188 C1190 1.384 . S
C1189 C1188 1.377 . S
C1189 C1195 1.390 . S
C1190 H1181 0.930 . S
C1190 C1188 1.384 . S
C1190 C1191 1.372 . S
C1191 C1190 1.372 . S
C1191 C1192 1.400 . S
C1191 C1196 1.490 . S
C1192 H1182 0.930 . S
C1192 C1191 1.400 . S
C1192 C1195 1.386 . S
H1193 C1209 0.930 . S
H1194 C1210 0.931 . S
C1195 H1183 0.929 . S
C1195 C1189 1.390 . S
C1195 C1192 1.386 . S
C1196 C1191 1.490 . S
C1196 C1198 1.395 . S
C1196 C1199 1.403 . S
H1197 C1203 0.930 . S
C1198 H1184 0.930 . S
C1198 C1196 1.395 . S
C1198 C1201 1.403 . S
C1199 C1196 1.403 . S
C1199 C1200 1.524 . S
C1199 C1203 1.400 . S
C1200 H1185 0.960 . S
C1200 H1186 0.960 . S
C1200 H1187 0.960 . S
C1200 C1199 1.524 . S
C1201 C1198 1.403 . S
C1201 C1202 1.392 . S
C1201 C1205 1.495 . S
C1202 C1201 1.392 . S
C1202 C1203 1.385 . S
C1202 C1204 1.478 . S
C1203 H1197 0.930 . S
C1203 C1199 1.400 . S
C1203 C1202 1.385 . S
C1204 C1202 1.478 . S
C1204 C1206 1.381 . S
C1204 C1210 1.383 . S
C1205 C1201 1.495 . S
C1205 H1211 0.959 . S
C1205 H1212 0.961 . S
C1205 H1213 0.960 . S
C1206 C1204 1.381 . S
C1206 C1207 1.394 . S
C1206 H1214 0.930 . S
C1207 C1206 1.394 . S
C1207 C1208 1.383 . S
C1207 H1215 0.929 . S
C1208 C1207 1.383 . S
C1208 C1209 1.377 . S
C1209 H1193 0.930 . S
C1209 C1208 1.377 . S
C1209 C1210 1.379 . S
C1210 H1194 0.931 . S
C1210 C1204 1.383 . S
C1210 C1209 1.379 . S
H1211 C1205 0.959 . S
H1212 C1205 0.961 . S
H1213 C1205 0.960 . S
H1214 C1206 0.930 . S
H1215 C1207 0.929 . S
H1216 C1224 0.929 . S
H1217 C1226 0.930 . S
H1218 C1228 0.930 . S
H1219 C1231 0.929 . S
H1220 C1234 0.933 . S
H1221 C1236 0.960 . S
H1222 C1236 0.960 . S
H1223 C1236 0.960 1_545 S
C1224 H1216 0.929 . S
C1224 C1225 1.377 . S
C1224 C1226 1.384 . S
C1225 C1224 1.377 . S
C1225 C1231 1.390 1_565 S
C1226 H1217 0.930 . S
C1226 C1224 1.384 . S
C1226 C1227 1.372 . S
C1227 C1226 1.372 . S
C1227 C1228 1.400 1_565 S
C1227 C1232 1.490 . S
C1228 H1218 0.930 . S
C1228 C1227 1.400 1_545 S
C1228 C1231 1.386 . S
H1229 C1245 0.930 . S
H1230 C1246 0.931 . S
C1231 H1219 0.929 . S
C1231 C1225 1.390 1_545 S
C1231 C1228 1.386 . S
C1232 C1227 1.490 . S
C1232 C1234 1.397 . S
C1232 C1235 1.403 . S
H1233 C1239 0.930 . S
C1234 H1220 0.933 . S
C1234 C1232 1.397 . S
C1234 C1237 1.403 . S
C1235 C1232 1.403 . S
C1235 C1236 1.524 . S
C1235 C1239 1.402 . S
C1236 H1221 0.960 . S
C1236 H1222 0.960 . S
C1236 H1223 0.960 1_565 S
C1236 C1235 1.524 . S
C1237 C1234 1.403 . S
C1237 C1238 1.392 . S
C1237 C1241 1.495 1_565 S
C1238 C1237 1.392 . S
C1238 C1239 1.385 . S
C1238 C1240 1.476 1_565 S
C1239 H1233 0.930 . S
C1239 C1235 1.402 . S
C1239 C1238 1.385 . S
C1240 C1238 1.476 1_545 S
C1240 C1242 1.354 1_545 S
C1240 C1246 1.411 . S
C1241 C1237 1.495 1_545 S
C1241 H1247 0.959 1_545 S
C1241 H1248 0.967 . S
C1241 H1249 0.955 1_545 S
C1242 C1240 1.354 1_565 S
C1242 C1243 1.394 . S
C1242 H1250 0.930 . S
C1243 C1242 1.394 . S
C1243 C1244 1.383 1_565 S
C1243 H1251 0.929 . S
C1244 C1243 1.383 1_545 S
C1244 C1245 1.377 . S
C1245 H1229 0.930 . S
C1245 C1244 1.377 . S
C1245 C1246 1.379 . S
C1246 H1230 0.931 . S
C1246 C1240 1.411 . S
C1246 C1245 1.379 . S
H1247 C1241 0.959 1_565 S
H1248 C1241 0.967 . S
H1249 C1241 0.955 1_565 S
H1250 C1242 0.930 . S
H1251 C1243 0.929 . S
H1252 C1260 0.929 . S
H1253 C1262 0.930 . S
H1254 C1264 0.930 . S
H1255 C1267 0.929 . S
H1256 C1270 0.930 . S
H1257 C1272 0.960 . S
H1258 C1272 0.960 . S
H1259 C1272 0.960 . S
C1260 H1252 0.929 . S
C1260 C1261 1.377 . S
C1260 C1262 1.384 . S
C1261 C1260 1.377 . S
C1261 C1267 1.390 . S
C1262 H1253 0.930 . S
C1262 C1260 1.384 . S
C1262 C1263 1.372 . S
C1263 C1262 1.372 . S
C1263 C1264 1.400 . S
C1263 C1268 1.490 . S
C1264 H1254 0.930 . S
C1264 C1263 1.400 . S
C1264 C1267 1.386 . S
H1265 C1281 0.930 . S
H1266 C1282 0.931 . S
C1267 H1255 0.929 . S
C1267 C1261 1.390 . S
C1267 C1264 1.386 . S
C1268 C1263 1.490 . S
C1268 C1270 1.395 . S
C1268 C1271 1.403 1_455 S
H1269 C1275 0.930 . S
C1270 H1256 0.930 . S
C1270 C1268 1.395 . S
C1270 C1273 1.403 . S
C1271 C1268 1.403 1_655 S
C1271 C1272 1.524 . S
C1271 C1275 1.400 . S
C1272 H1257 0.960 . S
C1272 H1258 0.960 . S
C1272 H1259 0.960 . S
C1272 C1271 1.524 . S
C1273 C1270 1.403 . S
C1273 C1274 1.392 1_455 S
C1273 C1277 1.495 . S
C1274 C1273 1.392 1_655 S
C1274 C1275 1.385 . S
C1274 C1276 1.478 . S
C1275 H1269 0.930 . S
C1275 C1271 1.400 . S
C1275 C1274 1.385 . S
C1276 C1274 1.478 . S
C1276 C1278 1.381 . S
C1276 C1282 1.383 . S
C1277 C1273 1.495 . S
C1277 H1283 0.959 . S
C1277 H1284 0.961 . S
C1277 H1285 0.960 . S
C1278 C1276 1.381 . S
C1278 C1279 1.394 . S
C1278 H1286 0.930 . S
C1279 C1278 1.394 . S
C1279 C1280 1.383 . S
C1279 H1287 0.929 . S
C1280 C1279 1.383 . S
C1280 C1281 1.377 . S
C1281 H1265 0.930 . S
C1281 C1280 1.377 . S
C1281 C1282 1.379 . S
C1282 H1266 0.931 . S
C1282 C1276 1.383 . S
C1282 C1281 1.379 . S
H1283 C1277 0.959 . S
H1284 C1277 0.961 . S
H1285 C1277 0.960 . S
H1286 C1278 0.930 . S
H1287 C1279 0.929 . S
H1288 C1296 0.929 . S
H1289 C1298 0.930 . S
H1290 C1300 0.930 . S
H1291 C1303 0.929 . S
H1292 C1306 0.930 . S
H1293 C1308 0.960 . S
H1294 C1308 0.960 . S
H1295 C1308 0.960 . S
C1296 H1288 0.929 . S
C1296 C1297 1.377 . S
C1296 C1298 1.384 . S
C1297 C1296 1.377 . S
C1297 C1303 1.390 . S
C1298 H1289 0.930 . S
C1298 C1296 1.384 . S
C1298 C1299 1.372 . S
C1299 C1298 1.372 . S
C1299 C1300 1.400 . S
C1299 C1304 1.490 . S
C1300 H1290 0.930 . S
C1300 C1299 1.400 . S
C1300 C1303 1.386 . S
H1301 C1317 0.930 . S
H1302 C1318 0.931 . S
C1303 H1291 0.929 . S
C1303 C1297 1.390 . S
C1303 C1300 1.386 . S
C1304 C1299 1.490 . S
C1304 C1306 1.395 . S
C1304 C1307 1.403 . S
H1305 C1311 0.930 . S
C1306 H1292 0.930 . S
C1306 C1304 1.395 . S
C1306 C1309 1.403 1_556 S
C1307 C1304 1.403 . S
C1307 C1308 1.524 . S
C1307 C1311 1.400 1_556 S
C1308 H1293 0.960 . S
C1308 H1294 0.960 . S
C1308 H1295 0.960 . S
C1308 C1307 1.524 . S
C1309 C1306 1.403 1_554 S
C1309 C1310 1.392 . S
C1309 C1313 1.495 . S
C1310 C1309 1.392 . S
C1310 C1311 1.385 . S
C1310 C1312 1.478 . S
C1311 H1305 0.930 . S
C1311 C1307 1.400 1_554 S
C1311 C1310 1.385 . S
C1312 C1310 1.478 . S
C1312 C1314 1.381 . S
C1312 C1318 1.383 . S
C1313 C1309 1.495 . S
C1313 H1319 0.959 . S
C1313 H1320 0.961 . S
C1313 H1321 0.960 . S
C1314 C1312 1.381 . S
C1314 C1315 1.394 . S
C1314 H1322 0.930 . S
C1315 C1314 1.394 . S
C1315 C1316 1.383 . S
C1315 H1323 0.929 . S
C1316 C1315 1.383 . S
C1316 C1317 1.377 . S
C1317 H1301 0.930 . S
C1317 C1316 1.377 . S
C1317 C1318 1.379 . S
C1318 H1302 0.931 . S
C1318 C1312 1.383 . S
C1318 C1317 1.379 . S
H1319 C1313 0.959 . S
H1320 C1313 0.961 . S
H1321 C1313 0.960 . S
H1322 C1314 0.930 . S
H1323 C1315 0.929 . S
H1324 C1332 0.929 . S
H1325 C1334 0.930 . S
H1326 C1336 0.930 1_455 S
H1327 C1339 0.939 . S
H1328 C1342 0.930 . S
H1329 C1344 0.960 . S
H1330 C1344 0.960 1_655 S
H1331 C1344 0.960 . S
C1332 H1324 0.929 . S
C1332 C1333 1.377 . S
C1332 C1334 1.384 . S
C1333 C1332 1.377 . S
C1333 C1339 1.383 1_565 S
C1334 H1325 0.930 . S
C1334 C1332 1.384 . S
C1334 C1335 1.381 . S
C1335 C1334 1.381 . S
C1335 C1336 1.395 1_565 S
C1335 C1340 1.489 . S
C1336 H1326 0.930 1_655 S
C1336 C1335 1.395 1_545 S
C1336 C1339 1.387 . S
H1337 C1353 0.930 . S
H1338 C1354 0.931 . S
C1339 H1327 0.939 . S
C1339 C1333 1.383 1_545 S
C1339 C1336 1.387 . S
C1340 C1335 1.489 . S
C1340 C1342 1.395 1_565 S
C1340 C1343 1.402 1_655 S
H1341 C1347 0.930 . S
C1342 H1328 0.930 . S
C1342 C1340 1.395 1_545 S
C1342 C1345 1.403 1_554 S
C1343 C1340 1.402 1_455 S
C1343 C1344 1.524 . S
C1343 C1347 1.400 1_554 S
C1344 H1329 0.960 . S
C1344 H1330 0.960 1_455 S
C1344 H1331 0.960 . S
C1344 C1343 1.524 . S
C1345 C1342 1.403 1_556 S
C1345 C1346 1.392 1_655 S
C1345 C1349 1.495 . S
C1346 C1345 1.392 1_455 S
C1346 C1347 1.385 1_545 S
C1346 C1348 1.478 . S
C1347 H1341 0.930 . S
C1347 C1343 1.400 1_556 S
C1347 C1346 1.385 1_565 S
C1348 C1346 1.478 . S
C1348 C1350 1.371 1_545 S
C1348 C1354 1.383 . S
C1349 C1345 1.495 . S
C1349 H1355 0.959 . S
C1349 H1356 0.961 . S
C1349 H1357 0.960 . S
C1350 C1348 1.371 1_565 S
C1350 C1351 1.397 . S
C1350 H1358 0.941 1_455 S
C1351 C1350 1.397 . S
C1351 C1352 1.383 1_565 S
C1351 H1359 0.929 . S
C1352 C1351 1.383 1_545 S
C1352 C1353 1.377 . S
C1353 H1337 0.930 . S
C1353 C1352 1.377 . S
C1353 C1354 1.379 . S
C1354 H1338 0.931 . S
C1354 C1348 1.383 . S
C1354 C1353 1.379 . S
H1355 C1349 0.959 . S
H1356 C1349 0.961 . S
H1357 C1349 0.960 . S
H1358 C1350 0.941 1_655 S
H1359 C1351 0.929 . S
H1360 C1368 0.929 . S
H1361 C1370 0.930 . S
H1362 C1372 0.930 . S
H1363 C1375 0.929 . S
H1364 C1378 0.930 . S
H1365 C1380 0.960 . S
H1366 C1380 0.960 . S
H1367 C1380 0.960 . S
C1368 H1360 0.929 . S
C1368 C1369 1.350 1_565 S
C1368 C1370 1.384 . S
C1369 C1368 1.350 1_545 S
C1369 C1375 1.417 . S
C1370 H1361 0.930 . S
C1370 C1368 1.384 . S
C1370 C1371 1.373 . S
C1371 C1370 1.373 . S
C1371 C1372 1.399 1_565 S
C1371 C1376 1.490 . S
C1372 H1362 0.930 . S
C1372 C1371 1.399 1_545 S
C1372 C1375 1.386 . S
H1373 C1389 0.930 . S
H1374 C1390 0.931 . S
C1375 H1363 0.929 . S
C1375 C1369 1.417 . S
C1375 C1372 1.386 . S
C1376 C1371 1.490 . S
C1376 C1378 1.394 1_565 S
C1376 C1379 1.404 . S
H1377 C1383 0.930 . S
C1378 H1364 0.930 . S
C1378 C1376 1.394 1_545 S
C1378 C1381 1.403 . S
C1379 C1376 1.404 . S
C1379 C1380 1.524 . S
C1379 C1383 1.400 . S
C1380 H1365 0.960 . S
C1380 H1366 0.960 . S
C1380 H1367 0.960 . S
C1380 C1379 1.524 . S
C1381 C1378 1.403 . S
C1381 C1382 1.414 . S
C1381 C1385 1.495 . S
C1382 C1381 1.414 . S
C1382 C1383 1.364 1_545 S
C1382 C1384 1.479 . S
C1383 H1377 0.930 . S
C1383 C1379 1.400 . S
C1383 C1382 1.364 1_565 S
C1384 C1382 1.479 . S
C1384 C1386 1.381 1_545 S
C1384 C1390 1.383 . S
C1385 C1381 1.495 . S
C1385 H1391 0.959 . S
C1385 H1392 0.961 . S
C1385 H1393 0.960 . S
C1386 C1384 1.381 1_565 S
C1386 C1387 1.394 . S
C1386 H1394 0.930 . S
C1387 C1386 1.394 . S
C1387 C1388 1.397 . S
C1387 H1395 0.929 . S
C1388 C1387 1.397 . S
C1388 C1389 1.363 1_565 S
C1389 H1373 0.930 . S
C1389 C1388 1.363 1_545 S
C1389 C1390 1.379 . S
C1390 H1374 0.931 . S
C1390 C1384 1.383 . S
C1390 C1389 1.379 . S
H1391 C1385 0.959 . S
H1392 C1385 0.961 . S
H1393 C1385 0.960 . S
H1394 C1386 0.930 . S
H1395 C1387 0.929 . S
H1396 C1404 0.929 . S
H1397 C1406 0.930 . S
H1398 C1408 0.930 . S
H1399 C1411 0.929 . S
H1400 C1414 0.930 . S
H1401 C1416 0.960 . S
H1402 C1416 0.960 . S
H1403 C1416 0.960 . S
C1404 H1396 0.929 . S
C1404 C1405 1.377 . S
C1404 C1406 1.384 . S
C1405 C1404 1.377 . S
C1405 C1411 1.390 . S
C1406 H1397 0.930 . S
C1406 C1404 1.384 . S
C1406 C1407 1.372 . S
C1407 C1406 1.372 . S
C1407 C1408 1.400 . S
C1407 C1412 1.490 . S
C1408 H1398 0.930 . S
C1408 C1407 1.400 . S
C1408 C1411 1.386 . S
H1409 C1425 0.930 . S
H1410 C1426 0.931 . S
C1411 H1399 0.929 . S
C1411 C1405 1.390 . S
C1411 C1408 1.386 . S
C1412 C1407 1.490 . S
C1412 C1414 1.395 1_455 S
C1412 C1415 1.403 . S
H1413 C1419 0.932 . S
C1414 H1400 0.930 . S
C1414 C1412 1.395 1_655 S
C1414 C1417 1.403 . S
C1415 C1412 1.403 . S
C1415 C1416 1.524 . S
C1415 C1419 1.419 . S
C1416 H1401 0.960 . S
C1416 H1402 0.960 . S
C1416 H1403 0.960 . S
C1416 C1415 1.524 . S
C1417 C1414 1.403 . S
C1417 C1418 1.392 . S
C1417 C1421 1.495 . S
C1418 C1417 1.392 . S
C1418 C1419 1.365 1_655 S
C1418 C1420 1.478 . S
C1419 H1413 0.932 . S
C1419 C1415 1.419 . S
C1419 C1418 1.365 1_455 S
C1420 C1418 1.478 . S
C1420 C1422 1.381 . S
C1420 C1426 1.383 . S
C1421 C1417 1.495 . S
C1421 H1427 0.959 . S
C1421 H1428 0.961 . S
C1421 H1429 0.960 . S
C1422 C1420 1.381 . S
C1422 C1423 1.394 . S
C1422 H1430 0.930 . S
C1423 C1422 1.394 . S
C1423 C1424 1.383 . S
C1423 H1431 0.929 . S
C1424 C1423 1.383 . S
C1424 C1425 1.377 . S
C1425 H1409 0.930 . S
C1425 C1424 1.377 . S
C1425 C1426 1.379 . S
C1426 H1410 0.931 . S
C1426 C1420 1.383 . S
C1426 C1425 1.379 . S
H1427 C1421 0.959 . S
H1428 C1421 0.961 . S
H1429 C1421 0.960 . S
H1430 C1422 0.930 . S
H1431 C1423 0.929 . S
H1432 C1440 0.929 . S
H1433 C1442 0.930 . S
H1434 C1444 0.930 . S
H1435 C1447 0.929 . S
H1436 C1450 0.930 . S
H1437 C1452 0.960 . S
H1438 C1452 0.960 . S
H1439 C1452 0.960 . S
C1440 H1432 0.929 . S
C1440 C1441 1.377 . S
C1440 C1442 1.384 . S
C1441 C1440 1.377 . S
C1441 C1447 1.390 . S
C1442 H1433 0.930 . S
C1442 C1440 1.384 . S
C1442 C1443 1.372 . S
C1443 C1442 1.372 . S
C1443 C1444 1.400 . S
C1443 C1448 1.490 . S
C1444 H1434 0.930 . S
C1444 C1443 1.400 . S
C1444 C1447 1.386 . S
H1445 C1461 0.930 . S
H1446 C1462 0.931 . S
C1447 H1435 0.929 . S
C1447 C1441 1.390 . S
C1447 C1444 1.386 . S
C1448 C1443 1.490 . S
C1448 C1450 1.395 . S
C1448 C1451 1.403 . S
H1449 C1455 0.930 . S
C1450 H1436 0.930 . S
C1450 C1448 1.395 . S
C1450 C1453 1.403 1_556 S
C1451 C1448 1.403 . S
C1451 C1452 1.524 . S
C1451 C1455 1.400 1_556 S
C1452 H1437 0.960 . S
C1452 H1438 0.960 . S
C1452 H1439 0.960 . S
C1452 C1451 1.524 . S
C1453 C1450 1.403 1_554 S
C1453 C1454 1.392 . S
C1453 C1457 1.495 . S
C1454 C1453 1.392 . S
C1454 C1455 1.385 . S
C1454 C1456 1.478 . S
C1455 H1449 0.930 . S
C1455 C1451 1.400 1_554 S
C1455 C1454 1.385 . S
C1456 C1454 1.478 . S
C1456 C1458 1.381 . S
C1456 C1462 1.383 . S
C1457 C1453 1.495 . S
C1457 H1463 0.959 . S
C1457 H1464 0.961 . S
C1457 H1465 0.960 . S
C1458 C1456 1.381 . S
C1458 C1459 1.394 . S
C1458 H1466 0.930 . S
C1459 C1458 1.394 . S
C1459 C1460 1.383 . S
C1459 H1467 0.929 . S
C1460 C1459 1.383 . S
C1460 C1461 1.377 . S
C1461 H1445 0.930 . S
C1461 C1460 1.377 . S
C1461 C1462 1.379 . S
C1462 H1446 0.931 . S
C1462 C1456 1.383 . S
C1462 C1461 1.379 . S
H1463 C1457 0.959 . S
H1464 C1457 0.961 . S
H1465 C1457 0.960 . S
H1466 C1458 0.930 . S
H1467 C1459 0.929 . S
H1468 C1476 0.929 . S
H1469 C1478 0.930 . S
H1470 C1480 0.930 . S
H1471 C1483 0.929 . S
H1472 C1486 0.930 . S
H1473 C1488 0.960 . S
H1474 C1488 0.960 . S
H1475 C1488 0.960 . S
C1476 H1468 0.929 . S
C1476 C1477 1.377 . S
C1476 C1478 1.384 . S
C1477 C1476 1.377 . S
C1477 C1483 1.390 . S
C1478 H1469 0.930 . S
C1478 C1476 1.384 . S
C1478 C1479 1.372 . S
C1479 C1478 1.372 . S
C1479 C1480 1.400 . S
C1479 C1484 1.490 . S
C1480 H1470 0.930 . S
C1480 C1479 1.400 . S
C1480 C1483 1.386 . S
H1481 C1497 0.930 . S
H1482 C1498 0.931 . S
C1483 H1471 0.929 . S
C1483 C1477 1.390 . S
C1483 C1480 1.386 . S
C1484 C1479 1.490 . S
C1484 C1486 1.395 . S
C1484 C1487 1.403 . S
H1485 C1491 0.930 . S
C1486 H1472 0.930 . S
C1486 C1484 1.395 . S
C1486 C1489 1.403 . S
C1487 C1484 1.403 . S
C1487 C1488 1.524 . S
C1487 C1491 1.400 . S
C1488 H1473 0.960 . S
C1488 H1474 0.960 . S
C1488 H1475 0.960 . S
C1488 C1487 1.524 . S
C1489 C1486 1.403 . S
C1489 C1490 1.392 . S
C1489 C1493 1.495 . S
C1490 C1489 1.392 . S
C1490 C1491 1.385 . S
C1490 C1492 1.478 . S
C1491 H1485 0.930 . S
C1491 C1487 1.400 . S
C1491 C1490 1.385 . S
C1492 C1490 1.478 . S
C1492 C1494 1.381 . S
C1492 C1498 1.383 . S
C1493 C1489 1.495 . S
C1493 H1499 0.959 . S
C1493 H1500 0.961 . S
C1493 H1501 0.960 . S
C1494 C1492 1.381 . S
C1494 C1495 1.394 . S
C1494 H1502 0.930 . S
C1495 C1494 1.394 . S
C1495 C1496 1.383 . S
C1495 H1503 0.929 . S
C1496 C1495 1.383 . S
C1496 C1497 1.377 . S
C1497 H1481 0.930 . S
C1497 C1496 1.377 . S
C1497 C1498 1.379 . S
C1498 H1482 0.931 . S
C1498 C1492 1.383 . S
C1498 C1497 1.379 . S
H1499 C1493 0.959 . S
H1500 C1493 0.961 . S
H1501 C1493 0.960 . S
H1502 C1494 0.930 . S
H1503 C1495 0.929 . S
H1504 C1512 0.929 . S
H1505 C1514 0.930 . S
H1506 C1516 0.930 . S
H1507 C1519 0.929 . S
H1508 C1522 0.930 . S
H1509 C1524 0.960 . S
H1510 C1524 0.960 . S
H1511 C1524 0.960 . S
C1512 H1504 0.929 . S
C1512 C1513 1.377 . S
C1512 C1514 1.384 . S
C1513 C1512 1.377 . S
C1513 C1519 1.390 . S
C1514 H1505 0.930 . S
C1514 C1512 1.384 . S
C1514 C1515 1.372 . S
C1515 C1514 1.372 . S
C1515 C1516 1.400 . S
C1515 C1520 1.490 . S
C1516 H1506 0.930 . S
C1516 C1515 1.400 . S
C1516 C1519 1.386 . S
H1517 C1533 0.930 . S
H1518 C1534 0.931 . S
C1519 H1507 0.929 . S
C1519 C1513 1.390 . S
C1519 C1516 1.386 . S
C1520 C1515 1.490 . S
C1520 C1522 1.395 . S
C1520 C1523 1.403 . S
H1521 C1527 0.930 . S
C1522 H1508 0.930 . S
C1522 C1520 1.395 . S
C1522 C1525 1.403 . S
C1523 C1520 1.403 . S
C1523 C1524 1.524 . S
C1523 C1527 1.400 . S
C1524 H1509 0.960 . S
C1524 H1510 0.960 . S
C1524 H1511 0.960 . S
C1524 C1523 1.524 . S
C1525 C1522 1.403 . S
C1525 C1526 1.392 . S
C1525 C1529 1.495 . S
C1526 C1525 1.392 . S
C1526 C1527 1.385 . S
C1526 C1528 1.478 . S
C1527 H1521 0.930 . S
C1527 C1523 1.400 . S
C1527 C1526 1.385 . S
C1528 C1526 1.478 . S
C1528 C1530 1.381 . S
C1528 C1534 1.383 . S
C1529 C1525 1.495 . S
C1529 H1535 0.959 . S
C1529 H1536 0.961 . S
C1529 H1537 0.960 . S
C1530 C1528 1.381 . S
C1530 C1531 1.394 . S
C1530 H1538 0.930 . S
C1531 C1530 1.394 . S
C1531 C1532 1.383 . S
C1531 H1539 0.929 . S
C1532 C1531 1.383 . S
C1532 C1533 1.377 . S
C1533 H1517 0.930 . S
C1533 C1532 1.377 . S
C1533 C1534 1.379 . S
C1534 H1518 0.931 . S
C1534 C1528 1.383 . S
C1534 C1533 1.379 . S
H1535 C1529 0.959 . S
H1536 C1529 0.961 . S
H1537 C1529 0.960 . S
H1538 C1530 0.930 . S
H1539 C1531 0.929 . S
H1540 C1548 0.929 . S
H1541 C1550 0.930 . S
H1542 C1552 0.930 . S
H1543 C1555 0.929 . S
H1544 C1558 0.930 . S
H1545 C1560 0.960 . S
H1546 C1560 0.960 . S
H1547 C1560 0.960 . S
C1548 H1540 0.929 . S
C1548 C1549 1.377 . S
C1548 C1550 1.384 . S
C1549 C1548 1.377 . S
C1549 C1555 1.390 . S
C1550 H1541 0.930 . S
C1550 C1548 1.384 . S
C1550 C1551 1.372 . S
C1551 C1550 1.372 . S
C1551 C1552 1.400 . S
C1551 C1556 1.490 . S
C1552 H1542 0.930 . S
C1552 C1551 1.400 . S
C1552 C1555 1.386 . S
H1553 C1569 0.930 . S
H1554 C1570 0.931 . S
C1555 H1543 0.929 . S
C1555 C1549 1.390 . S
C1555 C1552 1.386 . S
C1556 C1551 1.490 . S
C1556 C1558 1.395 1_455 S
C1556 C1559 1.403 . S
H1557 C1563 0.930 . S
C1558 H1544 0.930 . S
C1558 C1556 1.395 1_655 S
C1558 C1561 1.403 . S
C1559 C1556 1.403 . S
C1559 C1560 1.524 . S
C1559 C1563 1.400 . S
C1560 H1545 0.960 . S
C1560 H1546 0.960 . S
C1560 H1547 0.960 . S
C1560 C1559 1.524 . S
C1561 C1558 1.403 . S
C1561 C1562 1.392 . S
C1561 C1565 1.495 . S
C1562 C1561 1.392 . S
C1562 C1563 1.385 1_655 S
C1562 C1564 1.478 . S
C1563 H1557 0.930 . S
C1563 C1559 1.400 . S
C1563 C1562 1.385 1_455 S
C1564 C1562 1.478 . S
C1564 C1566 1.381 . S
C1564 C1570 1.383 . S
C1565 C1561 1.495 . S
C1565 H1571 0.959 . S
C1565 H1572 0.961 . S
C1565 H1573 0.960 . S
C1566 C1564 1.381 . S
C1566 C1567 1.394 . S
C1566 H1574 0.930 . S
C1567 C1566 1.394 . S
C1567 C1568 1.383 . S
C1567 H1575 0.929 . S
C1568 C1567 1.383 . S
C1568 C1569 1.377 . S
C1569 H1553 0.930 . S
C1569 C1568 1.377 . S
C1569 C1570 1.379 . S
C1570 H1554 0.931 . S
C1570 C1564 1.383 . S
C1570 C1569 1.379 . S
H1571 C1565 0.959 . S
H1572 C1565 0.961 . S
H1573 C1565 0.960 . S
H1574 C1566 0.930 . S
H1575 C1567 0.929 . S
H1576 C1584 0.929 . S
H1577 C1586 0.930 . S
H1578 C1588 0.930 . S
H1579 C1591 0.929 . S
H1580 C1594 0.930 . S
H1581 C1596 0.960 . S
H1582 C1596 0.960 . S
H1583 C1596 0.960 . S
C1584 H1576 0.929 . S
C1584 C1585 1.377 . S
C1584 C1586 1.384 . S
C1585 C1584 1.377 . S
C1585 C1591 1.390 . S
C1586 H1577 0.930 . S
C1586 C1584 1.384 . S
C1586 C1587 1.372 . S
C1587 C1586 1.372 . S
C1587 C1588 1.400 . S
C1587 C1592 1.490 . S
C1588 H1578 0.930 . S
C1588 C1587 1.400 . S
C1588 C1591 1.386 . S
H1589 C1605 0.930 . S
H1590 C1606 0.931 . S
C1591 H1579 0.929 . S
C1591 C1585 1.390 . S
C1591 C1588 1.386 . S
C1592 C1587 1.490 . S
C1592 C1594 1.395 . S
C1592 C1595 1.403 . S
H1593 C1599 0.930 . S
C1594 H1580 0.930 . S
C1594 C1592 1.395 . S
C1594 C1597 1.403 . S
C1595 C1592 1.403 . S
C1595 C1596 1.524 . S
C1595 C1599 1.400 . S
C1596 H1581 0.960 . S
C1596 H1582 0.960 . S
C1596 H1583 0.960 . S
C1596 C1595 1.524 . S
C1597 C1594 1.403 . S
C1597 C1598 1.392 . S
C1597 C1601 1.495 . S
C1598 C1597 1.392 . S
C1598 C1599 1.385 . S
C1598 C1600 1.478 . S
C1599 H1593 0.930 . S
C1599 C1595 1.400 . S
C1599 C1598 1.385 . S
C1600 C1598 1.478 . S
C1600 C1602 1.381 . S
C1600 C1606 1.383 . S
C1601 C1597 1.495 . S
C1601 H1607 0.959 . S
C1601 H1608 0.961 . S
C1601 H1609 0.960 . S
C1602 C1600 1.381 . S
C1602 C1603 1.394 . S
C1602 H1610 0.930 . S
C1603 C1602 1.394 . S
C1603 C1604 1.383 . S
C1603 H1611 0.929 . S
C1604 C1603 1.383 . S
C1604 C1605 1.377 . S
C1605 H1589 0.930 . S
C1605 C1604 1.377 . S
C1605 C1606 1.379 . S
C1606 H1590 0.931 . S
C1606 C1600 1.383 . S
C1606 C1605 1.379 . S
H1607 C1601 0.959 . S
H1608 C1601 0.961 . S
H1609 C1601 0.960 . S
H1610 C1602 0.930 . S
H1611 C1603 0.929 . S
H1612 C1620 0.929 . S
H1613 C1622 0.930 . S
H1614 C1624 0.930 . S
H1615 C1627 0.929 . S
H1616 C1630 0.930 . S
H1617 C1632 0.960 . S
H1618 C1632 0.960 . S
H1619 C1632 0.960 . S
C1620 H1612 0.929 . S
C1620 C1621 1.377 . S
C1620 C1622 1.384 . S
C1621 C1620 1.377 . S
C1621 C1627 1.390 . S
C1622 H1613 0.930 . S
C1622 C1620 1.384 . S
C1622 C1623 1.372 . S
C1623 C1622 1.372 . S
C1623 C1624 1.400 . S
C1623 C1628 1.490 . S
C1624 H1614 0.930 . S
C1624 C1623 1.400 . S
C1624 C1627 1.386 . S
H1625 C1641 0.930 . S
H1626 C1642 0.931 . S
C1627 H1615 0.929 . S
C1627 C1621 1.390 . S
C1627 C1624 1.386 . S
C1628 C1623 1.490 . S
C1628 C1630 1.395 . S
C1628 C1631 1.403 . S
H1629 C1635 0.930 . S
C1630 H1616 0.930 . S
C1630 C1628 1.395 . S
C1630 C1633 1.403 . S
C1631 C1628 1.403 . S
C1631 C1632 1.524 . S
C1631 C1635 1.400 . S
C1632 H1617 0.960 . S
C1632 H1618 0.960 . S
C1632 H1619 0.960 . S
C1632 C1631 1.524 . S
C1633 C1630 1.403 . S
C1633 C1634 1.392 . S
C1633 C1637 1.495 . S
C1634 C1633 1.392 . S
C1634 C1635 1.385 . S
C1634 C1636 1.478 . S
C1635 H1629 0.930 . S
C1635 C1631 1.400 . S
C1635 C1634 1.385 . S
C1636 C1634 1.478 . S
C1636 C1638 1.381 . S
C1636 C1642 1.383 . S
C1637 C1633 1.495 . S
C1637 H1643 0.959 . S
C1637 H1644 0.961 . S
C1637 H1645 0.960 . S
C1638 C1636 1.381 . S
C1638 C1639 1.394 . S
C1638 H1646 0.930 . S
C1639 C1638 1.394 . S
C1639 C1640 1.383 . S
C1639 H1647 0.929 . S
C1640 C1639 1.383 . S
C1640 C1641 1.377 . S
C1641 H1625 0.930 . S
C1641 C1640 1.377 . S
C1641 C1642 1.379 . S
C1642 H1626 0.931 . S
C1642 C1636 1.383 . S
C1642 C1641 1.379 . S
H1643 C1637 0.959 . S
H1644 C1637 0.961 . S
H1645 C1637 0.960 . S
H1646 C1638 0.930 . S
H1647 C1639 0.929 . S
H1648 C1656 0.929 . S
H1649 C1658 0.930 . S
H1650 C1660 0.930 . S
H1651 C1663 0.929 . S
H1652 C1666 0.930 . S
H1653 C1668 0.960 . S
H1654 C1668 0.960 . S
H1655 C1668 0.960 . S
C1656 H1648 0.929 . S
C1656 C1657 1.377 . S
C1656 C1658 1.384 . S
C1657 C1656 1.377 . S
C1657 C1663 1.390 . S
C1658 H1649 0.930 . S
C1658 C1656 1.384 . S
C1658 C1659 1.372 . S
C1659 C1658 1.372 . S
C1659 C1660 1.400 . S
C1659 C1664 1.490 . S
C1660 H1650 0.930 . S
C1660 C1659 1.400 . S
C1660 C1663 1.386 . S
H1661 C1677 0.930 . S
H1662 C1678 0.931 . S
C1663 H1651 0.929 . S
C1663 C1657 1.390 . S
C1663 C1660 1.386 . S
C1664 C1659 1.490 . S
C1664 C1666 1.395 . S
C1664 C1667 1.403 . S
H1665 C1671 0.930 . S
C1666 H1652 0.930 . S
C1666 C1664 1.395 . S
C1666 C1669 1.403 . S
C1667 C1664 1.403 . S
C1667 C1668 1.524 . S
C1667 C1671 1.400 . S
C1668 H1653 0.960 . S
C1668 H1654 0.960 . S
C1668 H1655 0.960 . S
C1668 C1667 1.524 . S
C1669 C1666 1.403 . S
C1669 C1670 1.392 . S
C1669 C1673 1.495 . S
C1670 C1669 1.392 . S
C1670 C1671 1.385 . S
C1670 C1672 1.478 . S
C1671 H1665 0.930 . S
C1671 C1667 1.400 . S
C1671 C1670 1.385 . S
C1672 C1670 1.478 . S
C1672 C1674 1.381 . S
C1672 C1678 1.383 . S
C1673 C1669 1.495 . S
C1673 H1679 0.959 . S
C1673 H1680 0.961 . S
C1673 H1681 0.960 . S
C1674 C1672 1.381 . S
C1674 C1675 1.394 . S
C1674 H1682 0.930 . S
C1675 C1674 1.394 . S
C1675 C1676 1.383 . S
C1675 H1683 0.929 . S
C1676 C1675 1.383 . S
C1676 C1677 1.377 . S
C1677 H1661 0.930 . S
C1677 C1676 1.377 . S
C1677 C1678 1.379 . S
C1678 H1662 0.931 . S
C1678 C1672 1.383 . S
C1678 C1677 1.379 . S
H1679 C1673 0.959 . S
H1680 C1673 0.961 . S
H1681 C1673 0.960 . S
H1682 C1674 0.930 . S
H1683 C1675 0.929 . S
H1684 C1692 0.929 . S
H1685 C1694 0.930 . S
H1686 C1696 0.930 . S
H1687 C1699 0.929 . S
H1688 C1702 0.930 . S
H1689 C1704 0.960 . S
H1690 C1704 0.960 . S
H1691 C1704 0.960 . S
C1692 H1684 0.929 . S
C1692 C1693 1.377 1_545 S
C1692 C1694 1.384 . S
C1693 C1692 1.377 1_565 S
C1693 C1699 1.390 . S
C1694 H1685 0.930 . S
C1694 C1692 1.384 . S
C1694 C1695 1.371 1_545 S
C1695 C1694 1.371 1_565 S
C1695 C1696 1.400 . S
C1695 C1700 1.488 1_565 S
C1696 H1686 0.930 . S
C1696 C1695 1.400 . S
C1696 C1699 1.386 . S
H1697 C1713 0.930 . S
H1698 C1714 0.931 . S
C1699 H1687 0.929 . S
C1699 C1693 1.390 . S
C1699 C1696 1.386 . S
C1700 C1695 1.488 1_545 S
C1700 C1702 1.444 . S
C1700 C1703 1.358 1_545 S
H1701 C1707 0.930 . S
C1702 H1688 0.930 . S
C1702 C1700 1.444 . S
C1702 C1705 1.403 . S
C1703 C1700 1.358 1_565 S
C1703 C1704 1.524 . S
C1703 C1707 1.400 . S
C1704 H1689 0.960 . S
C1704 H1690 0.960 . S
C1704 H1691 0.960 . S
C1704 C1703 1.524 . S
C1705 C1702 1.403 . S
C1705 C1706 1.392 . S
C1705 C1709 1.495 . S
C1706 C1705 1.392 . S
C1706 C1707 1.385 1_545 S
C1706 C1708 1.478 . S
C1707 H1701 0.930 . S
C1707 C1703 1.400 . S
C1707 C1706 1.385 1_565 S
C1708 C1706 1.478 . S
C1708 C1710 1.381 . S
C1708 C1714 1.383 1_545 S
C1709 C1705 1.495 . S
C1709 H1715 0.959 . S
C1709 H1716 0.961 . S
C1709 H1717 0.960 . S
C1710 C1708 1.381 . S
C1710 C1711 1.394 . S
C1710 H1718 0.930 . S
C1711 C1710 1.394 . S
C1711 C1712 1.383 . S
C1711 H1719 0.929 . S
C1712 C1711 1.383 . S
C1712 C1713 1.377 1_545 S
C1713 H1697 0.930 . S
C1713 C1712 1.377 1_565 S
C1713 C1714 1.379 . S
C1714 H1698 0.931 . S
C1714 C1708 1.383 1_565 S
C1714 C1713 1.379 . S
H1715 C1709 0.959 . S
H1716 C1709 0.961 . S
H1717 C1709 0.960 . S
H1718 C1710 0.930 . S
H1719 C1711 0.929 . S
H1720 C1728 0.929 . S
H1721 C1730 0.930 . S
H1722 C1732 0.930 . S
H1723 C1735 0.929 . S
H1724 C1738 0.930 . S
H1725 C1740 0.960 . S
H1726 C1740 0.960 . S
H1727 C1740 0.960 . S
C1728 H1720 0.929 . S
C1728 C1729 1.377 . S
C1728 C1730 1.384 . S
C1729 C1728 1.377 . S
C1729 C1735 1.390 . S
C1730 H1721 0.930 . S
C1730 C1728 1.384 . S
C1730 C1731 1.372 . S
C1731 C1730 1.372 . S
C1731 C1732 1.400 . S
C1731 C1736 1.490 . S
C1732 H1722 0.930 . S
C1732 C1731 1.400 . S
C1732 C1735 1.386 . S
H1733 C1749 0.930 . S
H1734 C1750 0.931 . S
C1735 H1723 0.929 . S
C1735 C1729 1.390 . S
C1735 C1732 1.386 . S
C1736 C1731 1.490 . S
C1736 C1738 1.395 . S
C1736 C1739 1.403 . S
H1737 C1743 0.930 . S
C1738 H1724 0.930 . S
C1738 C1736 1.395 . S
C1738 C1741 1.403 . S
C1739 C1736 1.403 . S
C1739 C1740 1.524 . S
C1739 C1743 1.400 . S
C1740 H1725 0.960 . S
C1740 H1726 0.960 . S
C1740 H1727 0.960 . S
C1740 C1739 1.524 . S
C1741 C1738 1.403 . S
C1741 C1742 1.392 . S
C1741 C1745 1.495 . S
C1742 C1741 1.392 . S
C1742 C1743 1.385 . S
C1742 C1744 1.478 . S
C1743 H1737 0.930 . S
C1743 C1739 1.400 . S
C1743 C1742 1.385 . S
C1744 C1742 1.478 . S
C1744 C1746 1.381 . S
C1744 C1750 1.383 . S
C1745 C1741 1.495 . S
C1745 H1751 0.959 . S
C1745 H1752 0.961 . S
C1745 H1753 0.960 . S
C1746 C1744 1.381 . S
C1746 C1747 1.394 . S
C1746 H1754 0.930 . S
C1747 C1746 1.394 . S
C1747 C1748 1.383 . S
C1747 H1755 0.929 . S
C1748 C1747 1.383 . S
C1748 C1749 1.377 . S
C1749 H1733 0.930 . S
C1749 C1748 1.377 . S
C1749 C1750 1.379 . S
C1750 H1734 0.931 . S
C1750 C1744 1.383 . S
C1750 C1749 1.379 . S
H1751 C1745 0.959 . S
H1752 C1745 0.961 . S
H1753 C1745 0.960 . S
H1754 C1746 0.930 . S
H1755 C1747 0.929 . S
H1756 C1764 0.929 . S
H1757 C1766 0.930 . S
H1758 C1768 0.930 . S
H1759 C1771 0.929 . S
H1760 C1774 0.930 . S
H1761 C1776 0.960 . S
H1762 C1776 0.960 1_554 S
H1763 C1776 0.960 1_554 S
C1764 H1756 0.929 . S
C1764 C1765 1.377 . S
C1764 C1766 1.384 . S
C1765 C1764 1.377 . S
C1765 C1771 1.390 . S
C1766 H1757 0.930 . S
C1766 C1764 1.384 . S
C1766 C1767 1.372 . S
C1767 C1766 1.372 . S
C1767 C1768 1.400 . S
C1767 C1772 1.490 . S
C1768 H1758 0.930 . S
C1768 C1767 1.400 . S
C1768 C1771 1.386 . S
H1769 C1785 0.930 . S
H1770 C1786 0.931 . S
C1771 H1759 0.929 . S
C1771 C1765 1.390 . S
C1771 C1768 1.386 . S
C1772 C1767 1.490 . S
C1772 C1774 1.395 . S
C1772 C1775 1.411 . S
H1773 C1779 0.930 . S
C1774 H1760 0.930 . S
C1774 C1772 1.395 . S
C1774 C1777 1.403 . S
C1775 C1772 1.411 . S
C1775 C1776 1.523 1_554 S
C1775 C1779 1.392 1_554 S
C1776 H1761 0.960 . S
C1776 H1762 0.960 1_556 S
C1776 H1763 0.960 1_556 S
C1776 C1775 1.523 1_556 S
C1777 C1774 1.403 . S
C1777 C1778 1.392 1_554 S
C1777 C1781 1.495 . S
C1778 C1777 1.392 1_556 S
C1778 C1779 1.385 . S
C1778 C1780 1.478 . S
C1779 H1773 0.930 . S
C1779 C1775 1.392 1_556 S
C1779 C1778 1.385 . S
C1780 C1778 1.478 . S
C1780 C1782 1.381 . S
C1780 C1786 1.383 . S
C1781 C1777 1.495 . S
C1781 H1787 0.959 . S
C1781 H1788 0.961 1_554 S
C1781 H1789 0.960 1_554 S
C1782 C1780 1.381 . S
C1782 C1783 1.394 . S
C1782 H1790 0.930 . S
C1783 C1782 1.394 . S
C1783 C1784 1.383 . S
C1783 H1791 0.929 . S
C1784 C1783 1.383 . S
C1784 C1785 1.377 . S
C1785 H1769 0.930 . S
C1785 C1784 1.377 . S
C1785 C1786 1.379 . S
C1786 H1770 0.931 . S
C1786 C1780 1.383 . S
C1786 C1785 1.379 . S
H1787 C1781 0.959 . S
H1788 C1781 0.961 1_556 S
H1789 C1781 0.960 1_556 S
H1790 C1782 0.930 . S
H1791 C1783 0.929 . S
H1792 C1800 0.929 . S
H1793 C1802 0.945 . S
H1794 C1804 0.930 . S
H1795 C1807 0.929 . S
H1796 C1810 0.930 . S
H1797 C1812 0.960 . S
H1798 C1812 0.960 . S
H1799 C1812 0.960 . S
C1800 H1792 0.929 . S
C1800 C1801 1.377 . S
C1800 C1802 1.384 . S
C1801 C1800 1.377 . S
C1801 C1807 1.390 . S
C1802 H1793 0.945 . S
C1802 C1800 1.384 . S
C1802 C1803 1.372 . S
C1803 C1802 1.372 . S
C1803 C1804 1.400 . S
C1803 C1808 1.490 . S
C1804 H1794 0.930 . S
C1804 C1803 1.400 . S
C1804 C1807 1.386 . S
H1805 C1821 0.930 . S
H1806 C1822 0.931 . S
C1807 H1795 0.929 . S
C1807 C1801 1.390 . S
C1807 C1804 1.386 . S
C1808 C1803 1.490 . S
C1808 C1810 1.395 1_545 S
C1808 C1811 1.403 . S
H1809 C1815 0.930 . S
C1810 H1796 0.930 . S
C1810 C1808 1.395 1_565 S
C1810 C1813 1.403 . S
C1811 C1808 1.403 . S
C1811 C1812 1.524 . S
C1811 C1815 1.400 . S
C1812 H1797 0.960 . S
C1812 H1798 0.960 . S
C1812 H1799 0.960 . S
C1812 C1811 1.524 . S
C1813 C1810 1.403 . S
C1813 C1814 1.392 1_565 S
C1813 C1817 1.495 . S
C1814 C1813 1.392 1_545 S
C1814 C1815 1.385 . S
C1814 C1816 1.478 . S
C1815 H1809 0.930 . S
C1815 C1811 1.400 . S
C1815 C1814 1.385 . S
C1816 C1814 1.478 . S
C1816 C1818 1.381 . S
C1816 C1822 1.383 . S
C1817 C1813 1.495 . S
C1817 H1823 0.959 . S
C1817 H1824 0.961 . S
C1817 H1825 0.960 . S
C1818 C1816 1.381 . S
C1818 C1819 1.394 . S
C1818 H1826 0.933 . S
C1819 C1818 1.394 . S
C1819 C1820 1.383 . S
C1819 H1827 0.929 . S
C1820 C1819 1.383 . S
C1820 C1821 1.377 . S
C1821 H1805 0.930 . S
C1821 C1820 1.377 . S
C1821 C1822 1.379 . S
C1822 H1806 0.931 . S
C1822 C1816 1.383 . S
C1822 C1821 1.379 . S
H1823 C1817 0.959 . S
H1824 C1817 0.961 . S
H1825 C1817 0.960 . S
H1826 C1818 0.933 . S
H1827 C1819 0.929 . S
H1828 C1836 0.929 . S
H1829 C1838 0.930 . S
H1830 C1840 0.930 . S
H1831 C1843 0.929 . S
H1832 C1846 0.930 . S
H1833 C1848 0.960 . S
H1834 C1848 0.960 . S
H1835 C1848 0.960 . S
C1836 H1828 0.929 . S
C1836 C1837 1.377 . S
C1836 C1838 1.384 . S
C1837 C1836 1.377 . S
C1837 C1843 1.390 . S
C1838 H1829 0.930 . S
C1838 C1836 1.384 . S
C1838 C1839 1.372 . S
C1839 C1838 1.372 . S
C1839 C1840 1.400 . S
C1839 C1844 1.490 . S
C1840 H1830 0.930 . S
C1840 C1839 1.400 . S
C1840 C1843 1.386 . S
H1841 C1857 0.930 . S
H1842 C1858 0.931 . S
C1843 H1831 0.929 . S
C1843 C1837 1.390 . S
C1843 C1840 1.386 . S
C1844 C1839 1.490 . S
C1844 C1846 1.395 . S
C1844 C1847 1.403 . S
H1845 C1851 0.930 . S
C1846 H1832 0.930 . S
C1846 C1844 1.395 . S
C1846 C1849 1.403 . S
C1847 C1844 1.403 . S
C1847 C1848 1.524 . S
C1847 C1851 1.400 . S
C1848 H1833 0.960 . S
C1848 H1834 0.960 . S
C1848 H1835 0.960 . S
C1848 C1847 1.524 . S
C1849 C1846 1.403 . S
C1849 C1850 1.392 . S
C1849 C1853 1.495 . S
C1850 C1849 1.392 . S
C1850 C1851 1.385 . S
C1850 C1852 1.478 . S
C1851 H1845 0.930 . S
C1851 C1847 1.400 . S
C1851 C1850 1.385 . S
C1852 C1850 1.478 . S
C1852 C1854 1.381 . S
C1852 C1858 1.383 . S
C1853 C1849 1.495 . S
C1853 H1859 0.959 . S
C1853 H1860 0.961 . S
C1853 H1861 0.960 . S
C1854 C1852 1.381 . S
C1854 C1855 1.394 . S
C1854 H1862 0.930 . S
C1855 C1854 1.394 . S
C1855 C1856 1.383 . S
C1855 H1863 0.929 . S
C1856 C1855 1.383 . S
C1856 C1857 1.377 . S
C1857 H1841 0.930 . S
C1857 C1856 1.377 . S
C1857 C1858 1.379 . S
C1858 H1842 0.931 . S
C1858 C1852 1.383 . S
C1858 C1857 1.379 . S
H1859 C1853 0.959 . S
H1860 C1853 0.961 . S
H1861 C1853 0.960 . S
H1862 C1854 0.930 . S
H1863 C1855 0.929 . S
H1864 C1872 0.929 . S
H1865 C1874 0.930 . S
H1866 C1876 0.930 . S
H1867 C1879 0.929 . S
H1868 C1882 0.930 . S
H1869 C1884 0.960 . S
H1870 C1884 0.960 . S
H1871 C1884 0.960 . S
C1872 H1864 0.929 . S
C1872 C1873 1.377 . S
C1872 C1874 1.384 . S
C1873 C1872 1.377 . S
C1873 C1879 1.390 . S
C1874 H1865 0.930 . S
C1874 C1872 1.384 . S
C1874 C1875 1.372 . S
C1875 C1874 1.372 . S
C1875 C1876 1.400 . S
C1875 C1880 1.490 . S
C1876 H1866 0.930 . S
C1876 C1875 1.400 . S
C1876 C1879 1.386 . S
H1877 C1893 0.930 . S
H1878 C1894 0.931 . S
C1879 H1867 0.929 . S
C1879 C1873 1.390 . S
C1879 C1876 1.386 . S
C1880 C1875 1.490 . S
C1880 C1882 1.395 . S
C1880 C1883 1.403 . S
H1881 C1887 0.930 . S
C1882 H1868 0.930 . S
C1882 C1880 1.395 . S
C1882 C1885 1.403 . S
C1883 C1880 1.403 . S
C1883 C1884 1.524 . S
C1883 C1887 1.400 . S
C1884 H1869 0.960 . S
C1884 H1870 0.960 . S
C1884 H1871 0.960 . S
C1884 C1883 1.524 . S
C1885 C1882 1.403 . S
C1885 C1886 1.392 . S
C1885 C1889 1.495 . S
C1886 C1885 1.392 . S
C1886 C1887 1.385 . S
C1886 C1888 1.478 . S
C1887 H1881 0.930 . S
C1887 C1883 1.400 . S
C1887 C1886 1.385 . S
C1888 C1886 1.478 . S
C1888 C1890 1.381 . S
C1888 C1894 1.383 . S
C1889 C1885 1.495 . S
C1889 H1895 0.959 . S
C1889 H1896 0.961 . S
C1889 H1897 0.960 . S
C1890 C1888 1.381 . S
C1890 C1891 1.394 . S
C1890 H1898 0.930 . S
C1891 C1890 1.394 . S
C1891 C1892 1.383 . S
C1891 H1899 0.929 . S
C1892 C1891 1.383 . S
C1892 C1893 1.377 . S
C1893 H1877 0.930 . S
C1893 C1892 1.377 . S
C1893 C1894 1.379 . S
C1894 H1878 0.931 . S
C1894 C1888 1.383 . S
C1894 C1893 1.379 . S
H1895 C1889 0.959 . S
H1896 C1889 0.961 . S
H1897 C1889 0.960 . S
H1898 C1890 0.930 . S
H1899 C1891 0.929 . S
H1900 C1908 0.929 . S
H1901 C1910 0.930 . S
H1902 C1912 0.930 . S
H1903 C1915 0.929 . S
H1904 C1918 0.930 . S
H1905 C1920 0.960 . S
H1906 C1920 0.960 . S
H1907 C1920 0.960 . S
C1908 H1900 0.929 . S
C1908 C1909 1.377 1_565 S
C1908 C1910 1.384 . S
C1909 C1908 1.377 1_545 S
C1909 C1915 1.390 . S
C1910 H1901 0.930 . S
C1910 C1908 1.384 . S
C1910 C1911 1.372 1_565 S
C1911 C1910 1.372 1_545 S
C1911 C1912 1.400 . S
C1911 C1916 1.490 . S
C1912 H1902 0.930 . S
C1912 C1911 1.400 . S
C1912 C1915 1.386 . S
H1913 C1929 0.930 . S
H1914 C1930 0.931 . S
C1915 H1903 0.929 . S
C1915 C1909 1.390 . S
C1915 C1912 1.386 . S
C1916 C1911 1.490 . S
C1916 C1918 1.395 1_545 S
C1916 C1919 1.403 . S
H1917 C1923 0.930 . S
C1918 H1904 0.930 . S
C1918 C1916 1.395 1_565 S
C1918 C1921 1.403 . S
C1919 C1916 1.403 . S
C1919 C1920 1.524 . S
C1919 C1923 1.400 . S
C1920 H1905 0.960 . S
C1920 H1906 0.960 . S
C1920 H1907 0.960 . S
C1920 C1919 1.524 . S
C1921 C1918 1.403 . S
C1921 C1922 1.392 1_565 S
C1921 C1925 1.495 . S
C1922 C1921 1.392 1_545 S
C1922 C1923 1.385 . S
C1922 C1924 1.478 . S
C1923 H1917 0.930 . S
C1923 C1919 1.400 . S
C1923 C1922 1.385 . S
C1924 C1922 1.478 . S
C1924 C1926 1.381 1_545 S
C1924 C1930 1.383 . S
C1925 C1921 1.495 . S
C1925 H1931 0.959 . S
C1925 H1932 0.961 . S
C1925 H1933 0.960 . S
C1926 C1924 1.381 1_565 S
C1926 C1927 1.394 . S
C1926 H1934 0.930 . S
C1927 C1926 1.394 . S
C1927 C1928 1.383 1_565 S
C1927 H1935 0.929 . S
C1928 C1927 1.383 1_545 S
C1928 C1929 1.377 . S
C1929 H1913 0.930 . S
C1929 C1928 1.377 . S
C1929 C1930 1.379 . S
C1930 H1914 0.931 . S
C1930 C1924 1.383 . S
C1930 C1929 1.379 . S
H1931 C1925 0.959 . S
H1932 C1925 0.961 . S
H1933 C1925 0.960 . S
H1934 C1926 0.930 . S
H1935 C1927 0.929 . S
H1936 C1944 0.929 . S
H1937 C1946 0.930 . S
H1938 C1948 0.930 . S
H1939 C1951 0.929 . S
H1940 C1954 0.930 . S
H1941 C1956 0.960 . S
H1942 C1956 0.960 . S
H1943 C1956 0.960 . S
C1944 H1936 0.929 . S
C1944 C1945 1.377 1_545 S
C1944 C1946 1.384 . S
C1945 C1944 1.377 1_565 S
C1945 C1951 1.390 . S
C1946 H1937 0.930 . S
C1946 C1944 1.384 . S
C1946 C1947 1.372 1_545 S
C1947 C1946 1.372 1_565 S
C1947 C1948 1.400 . S
C1947 C1952 1.490 . S
C1948 H1938 0.930 . S
C1948 C1947 1.400 . S
C1948 C1951 1.386 . S
H1949 C1965 0.930 . S
H1950 C1966 0.931 . S
C1951 H1939 0.929 . S
C1951 C1945 1.390 . S
C1951 C1948 1.386 . S
C1952 C1947 1.490 . S
C1952 C1954 1.395 1_565 S
C1952 C1955 1.403 . S
H1953 C1959 0.930 . S
C1954 H1940 0.930 . S
C1954 C1952 1.395 1_545 S
C1954 C1957 1.403 . S
C1955 C1952 1.403 . S
C1955 C1956 1.524 . S
C1955 C1959 1.400 . S
C1956 H1941 0.960 . S
C1956 H1942 0.960 . S
C1956 H1943 0.960 . S
C1956 C1955 1.524 . S
C1957 C1954 1.403 . S
C1957 C1958 1.392 1_545 S
C1957 C1961 1.495 . S
C1958 C1957 1.392 1_565 S
C1958 C1959 1.385 . S
C1958 C1960 1.478 . S
C1959 H1953 0.930 . S
C1959 C1955 1.400 . S
C1959 C1958 1.385 . S
C1960 C1958 1.478 . S
C1960 C1962 1.381 1_565 S
C1960 C1966 1.383 . S
C1961 C1957 1.495 . S
C1961 H1967 0.959 . S
C1961 H1968 0.961 . S
C1961 H1969 0.960 . S
C1962 C1960 1.381 1_545 S
C1962 C1963 1.394 . S
C1962 H1970 0.930 . S
C1963 C1962 1.394 . S
C1963 C1964 1.383 1_545 S
C1963 H1971 0.929 . S
C1964 C1963 1.383 1_565 S
C1964 C1965 1.377 . S
C1965 H1949 0.930 . S
C1965 C1964 1.377 . S
C1965 C1966 1.379 . S
C1966 H1950 0.931 . S
C1966 C1960 1.383 . S
C1966 C1965 1.379 . S
H1967 C1961 0.959 . S
H1968 C1961 0.961 . S
H1969 C1961 0.960 . S
H1970 C1962 0.930 . S
H1971 C1963 0.929 . S
H1972 C1980 0.929 . S
H1973 C1982 0.930 . S
H1974 C1984 0.930 . S
H1975 C1987 0.929 . S
H1976 C1990 0.930 . S
H1977 C1992 0.960 . S
H1978 C1992 0.960 . S
H1979 C1992 0.960 . S
C1980 H1972 0.929 . S
C1980 C1981 1.377 . S
C1980 C1982 1.384 . S
C1981 C1980 1.377 . S
C1981 C1987 1.390 . S
C1982 H1973 0.930 . S
C1982 C1980 1.384 . S
C1982 C1983 1.372 . S
C1983 C1982 1.372 . S
C1983 C1984 1.400 . S
C1983 C1988 1.490 . S
C1984 H1974 0.930 . S
C1984 C1983 1.400 . S
C1984 C1987 1.386 . S
H1985 C2001 0.930 . S
H1986 C2002 0.931 . S
C1987 H1975 0.929 . S
C1987 C1981 1.390 . S
C1987 C1984 1.386 . S
C1988 C1983 1.490 . S
C1988 C1990 1.395 . S
C1988 C1991 1.403 . S
H1989 C1995 0.930 . S
C1990 H1976 0.930 . S
C1990 C1988 1.395 . S
C1990 C1993 1.403 . S
C1991 C1988 1.403 . S
C1991 C1992 1.524 . S
C1991 C1995 1.400 . S
C1992 H1977 0.960 . S
C1992 H1978 0.960 . S
C1992 H1979 0.960 . S
C1992 C1991 1.524 . S
C1993 C1990 1.403 . S
C1993 C1994 1.392 . S
C1993 C1997 1.495 . S
C1994 C1993 1.392 . S
C1994 C1995 1.385 . S
C1994 C1996 1.478 . S
C1995 H1989 0.930 . S
C1995 C1991 1.400 . S
C1995 C1994 1.385 . S
C1996 C1994 1.478 . S
C1996 C1998 1.381 . S
C1996 C2002 1.383 . S
C1997 C1993 1.495 . S
C1997 H2003 0.959 . S
C1997 H2004 0.961 . S
C1997 H2005 0.960 . S
C1998 C1996 1.381 . S
C1998 C1999 1.394 . S
C1998 H2006 0.930 . S
C1999 C1998 1.394 . S
C1999 C2000 1.383 . S
C1999 H2007 0.929 . S
C2000 C1999 1.383 . S
C2000 C2001 1.377 . S
C2001 H1985 0.930 . S
C2001 C2000 1.377 . S
C2001 C2002 1.379 . S
C2002 H1986 0.931 . S
C2002 C1996 1.383 . S
C2002 C2001 1.379 . S
H2003 C1997 0.959 . S
H2004 C1997 0.961 . S
H2005 C1997 0.960 . S
H2006 C1998 0.930 . S
H2007 C1999 0.929 . S
H2008 C2016 0.929 . S
H2009 C2018 0.930 . S
H2010 C2020 0.930 . S
H2011 C2023 0.929 . S
H2012 C2026 0.930 . S
H2013 C2028 0.960 . S
H2014 C2028 0.960 . S
H2015 C2028 0.960 . S
C2016 H2008 0.929 . S
C2016 C2017 1.377 . S
C2016 C2018 1.384 . S
C2017 C2016 1.377 . S
C2017 C2023 1.390 . S
C2018 H2009 0.930 . S
C2018 C2016 1.384 . S
C2018 C2019 1.372 . S
C2019 C2018 1.372 . S
C2019 C2020 1.400 . S
C2019 C2024 1.490 . S
C2020 H2010 0.930 . S
C2020 C2019 1.400 . S
C2020 C2023 1.386 . S
H2021 C2037 0.930 . S
H2022 C2038 0.931 . S
C2023 H2011 0.929 . S
C2023 C2017 1.390 . S
C2023 C2020 1.386 . S
C2024 C2019 1.490 . S
C2024 C2026 1.395 . S
C2024 C2027 1.403 . S
H2025 C2031 0.930 . S
C2026 H2012 0.930 . S
C2026 C2024 1.395 . S
C2026 C2029 1.403 . S
C2027 C2024 1.403 . S
C2027 C2028 1.524 . S
C2027 C2031 1.400 . S
C2028 H2013 0.960 . S
C2028 H2014 0.960 . S
C2028 H2015 0.960 . S
C2028 C2027 1.524 . S
C2029 C2026 1.403 . S
C2029 C2030 1.392 . S
C2029 C2033 1.495 . S
C2030 C2029 1.392 . S
C2030 C2031 1.385 . S
C2030 C2032 1.478 . S
C2031 H2025 0.930 . S
C2031 C2027 1.400 . S
C2031 C2030 1.385 . S
C2032 C2030 1.478 . S
C2032 C2034 1.381 . S
C2032 C2038 1.383 . S
C2033 C2029 1.495 . S
C2033 H2039 0.959 . S
C2033 H2040 0.961 . S
C2033 H2041 0.960 . S
C2034 C2032 1.381 . S
C2034 C2035 1.394 . S
C2034 H2042 0.930 . S
C2035 C2034 1.394 . S
C2035 C2036 1.383 . S
C2035 H2043 0.929 . S
C2036 C2035 1.383 . S
C2036 C2037 1.377 . S
C2037 H2021 0.930 . S
C2037 C2036 1.377 . S
C2037 C2038 1.379 . S
C2038 H2022 0.931 . S
C2038 C2032 1.383 . S
C2038 C2037 1.379 . S
H2039 C2033 0.959 . S
H2040 C2033 0.961 . S
H2041 C2033 0.960 . S
H2042 C2034 0.930 . S
H2043 C2035 0.929 . S
H2044 C2052 0.929 . S
H2045 C2054 0.930 . S
H2046 C2056 0.930 1_545 S
H2047 C2059 0.929 1_545 S
H2048 C2062 0.930 . S
H2049 C2064 0.960 . S
H2050 C2064 0.960 . S
H2051 C2064 0.960 . S
C2052 H2044 0.929 . S
C2052 C2053 1.377 . S
C2052 C2054 1.384 . S
C2053 C2052 1.377 . S
C2053 C2059 1.390 . S
C2054 H2045 0.930 . S
C2054 C2052 1.384 . S
C2054 C2055 1.372 . S
C2055 C2054 1.372 . S
C2055 C2056 1.400 . S
C2055 C2060 1.490 . S
C2056 H2046 0.930 1_565 S
C2056 C2055 1.400 . S
C2056 C2059 1.386 . S
H2057 C2073 0.930 . S
H2058 C2074 0.931 . S
C2059 H2047 0.929 1_565 S
C2059 C2053 1.390 . S
C2059 C2056 1.386 . S
C2060 C2055 1.490 . S
C2060 C2062 1.395 . S
C2060 C2063 1.403 1_565 S
H2061 C2067 0.930 . S
C2062 H2048 0.930 . S
C2062 C2060 1.395 . S
C2062 C2065 1.403 . S
C2063 C2060 1.403 1_545 S
C2063 C2064 1.524 . S
C2063 C2067 1.400 . S
C2064 H2049 0.960 . S
C2064 H2050 0.960 . S
C2064 H2051 0.960 . S
C2064 C2063 1.524 . S
C2065 C2062 1.403 . S
C2065 C2066 1.392 . S
C2065 C2069 1.495 . S
C2066 C2065 1.392 . S
C2066 C2067 1.385 1_565 S
C2066 C2068 1.478 . S
C2067 H2061 0.930 . S
C2067 C2063 1.400 . S
C2067 C2066 1.385 1_545 S
C2068 C2066 1.478 . S
C2068 C2070 1.381 . S
C2068 C2074 1.383 . S
C2069 C2065 1.495 . S
C2069 H2075 0.959 . S
C2069 H2076 0.961 . S
C2069 H2077 0.960 . S
C2070 C2068 1.381 . S
C2070 C2071 1.394 . S
C2070 H2078 0.930 . S
C2071 C2070 1.394 . S
C2071 C2072 1.383 . S
C2071 H2079 0.929 . S
C2072 C2071 1.383 . S
C2072 C2073 1.377 . S
C2073 H2057 0.930 . S
C2073 C2072 1.377 . S
C2073 C2074 1.379 . S
C2074 H2058 0.931 . S
C2074 C2068 1.383 . S
C2074 C2073 1.379 . S
H2075 C2069 0.959 . S
H2076 C2069 0.961 . S
H2077 C2069 0.960 . S
H2078 C2070 0.930 . S
H2079 C2071 0.929 . S
H2080 C2088 0.929 . S
H2081 C2090 0.930 . S
H2082 C2092 0.930 . S
H2083 C2095 0.929 . S
H2084 C2098 0.930 . S
H2085 C2100 0.960 . S
H2086 C2100 0.960 . S
H2087 C2100 0.960 . S
C2088 H2080 0.929 . S
C2088 C2089 1.377 . S
C2088 C2090 1.384 . S
C2089 C2088 1.377 . S
C2089 C2095 1.390 . S
C2090 H2081 0.930 . S
C2090 C2088 1.384 . S
C2090 C2091 1.372 . S
C2091 C2090 1.372 . S
C2091 C2092 1.400 . S
C2091 C2096 1.490 . S
C2092 H2082 0.930 . S
C2092 C2091 1.400 . S
C2092 C2095 1.386 . S
H2093 C2109 0.930 . S
H2094 C2110 0.931 . S
C2095 H2083 0.929 . S
C2095 C2089 1.390 . S
C2095 C2092 1.386 . S
C2096 C2091 1.490 . S
C2096 C2098 1.395 . S
C2096 C2099 1.403 . S
H2097 C2103 0.930 . S
C2098 H2084 0.930 . S
C2098 C2096 1.395 . S
C2098 C2101 1.403 . S
C2099 C2096 1.403 . S
C2099 C2100 1.524 . S
C2099 C2103 1.400 . S
C2100 H2085 0.960 . S
C2100 H2086 0.960 . S
C2100 H2087 0.960 . S
C2100 C2099 1.524 . S
C2101 C2098 1.403 . S
C2101 C2102 1.392 . S
C2101 C2105 1.495 . S
C2102 C2101 1.392 . S
C2102 C2103 1.385 . S
C2102 C2104 1.478 . S
C2103 H2097 0.930 . S
C2103 C2099 1.400 . S
C2103 C2102 1.385 . S
C2104 C2102 1.478 . S
C2104 C2106 1.381 . S
C2104 C2110 1.383 . S
C2105 C2101 1.495 . S
C2105 H2111 0.959 . S
C2105 H2112 0.961 . S
C2105 H2113 0.960 . S
C2106 C2104 1.381 . S
C2106 C2107 1.394 . S
C2106 H2114 0.930 . S
C2107 C2106 1.394 . S
C2107 C2108 1.383 . S
C2107 H2115 0.929 . S
C2108 C2107 1.383 . S
C2108 C2109 1.377 . S
C2109 H2093 0.930 . S
C2109 C2108 1.377 . S
C2109 C2110 1.379 . S
C2110 H2094 0.931 . S
C2110 C2104 1.383 . S
C2110 C2109 1.379 . S
H2111 C2105 0.959 . S
H2112 C2105 0.961 . S
H2113 C2105 0.960 . S
H2114 C2106 0.930 . S
H2115 C2107 0.929 . S
H2116 C2124 0.929 . S
H2117 C2126 0.930 . S
H2118 C2128 0.930 . S
H2119 C2131 0.929 . S
H2120 C2134 0.930 . S
H2121 C2136 0.960 . S
H2122 C2136 0.960 . S
H2123 C2136 0.960 . S
C2124 H2116 0.929 . S
C2124 C2125 1.377 . S
C2124 C2126 1.384 . S
C2125 C2124 1.377 . S
C2125 C2131 1.390 . S
C2126 H2117 0.930 . S
C2126 C2124 1.384 . S
C2126 C2127 1.372 . S
C2127 C2126 1.372 . S
C2127 C2128 1.400 . S
C2127 C2132 1.490 . S
C2128 H2118 0.930 . S
C2128 C2127 1.400 . S
C2128 C2131 1.386 . S
H2129 C2145 0.930 . S
H2130 C2146 0.931 . S
C2131 H2119 0.929 . S
C2131 C2125 1.390 . S
C2131 C2128 1.386 . S
C2132 C2127 1.490 . S
C2132 C2134 1.395 . S
C2132 C2135 1.403 . S
H2133 C2139 0.930 . S
C2134 H2120 0.930 . S
C2134 C2132 1.395 . S
C2134 C2137 1.403 . S
C2135 C2132 1.403 . S
C2135 C2136 1.524 . S
C2135 C2139 1.400 . S
C2136 H2121 0.960 . S
C2136 H2122 0.960 . S
C2136 H2123 0.960 . S
C2136 C2135 1.524 . S
C2137 C2134 1.403 . S
C2137 C2138 1.392 . S
C2137 C2141 1.495 . S
C2138 C2137 1.392 . S
C2138 C2139 1.385 . S
C2138 C2140 1.478 . S
C2139 H2133 0.930 . S
C2139 C2135 1.400 . S
C2139 C2138 1.385 . S
C2140 C2138 1.478 . S
C2140 C2142 1.381 . S
C2140 C2146 1.383 . S
C2141 C2137 1.495 . S
C2141 H2147 0.959 . S
C2141 H2148 0.961 . S
C2141 H2149 0.960 . S
C2142 C2140 1.381 . S
C2142 C2143 1.394 . S
C2142 H2150 0.930 . S
C2143 C2142 1.394 . S
C2143 C2144 1.383 . S
C2143 H2151 0.929 . S
C2144 C2143 1.383 . S
C2144 C2145 1.377 . S
C2145 H2129 0.930 . S
C2145 C2144 1.377 . S
C2145 C2146 1.379 . S
C2146 H2130 0.931 . S
C2146 C2140 1.383 . S
C2146 C2145 1.379 . S
H2147 C2141 0.959 . S
H2148 C2141 0.961 . S
H2149 C2141 0.960 . S
H2150 C2142 0.930 . S
H2151 C2143 0.929 . S
H2152 C2160 0.929 . S
H2153 C2162 0.930 . S
H2154 C2164 0.930 . S
H2155 C2167 0.929 . S
H2156 C2170 0.930 . S
H2157 C2172 0.960 . S
H2158 C2172 0.960 . S
H2159 C2172 0.960 . S
C2160 H2152 0.929 . S
C2160 C2161 1.377 . S
C2160 C2162 1.384 . S
C2161 C2160 1.377 . S
C2161 C2167 1.390 . S
C2162 H2153 0.930 . S
C2162 C2160 1.384 . S
C2162 C2163 1.372 . S
C2163 C2162 1.372 . S
C2163 C2164 1.400 . S
C2163 C2168 1.490 . S
C2164 H2154 0.930 . S
C2164 C2163 1.400 . S
C2164 C2167 1.386 . S
H2165 C2181 0.930 . S
H2166 C2182 0.931 . S
C2167 H2155 0.929 . S
C2167 C2161 1.390 . S
C2167 C2164 1.386 . S
C2168 C2163 1.490 . S
C2168 C2170 1.395 . S
C2168 C2171 1.403 . S
H2169 C2175 0.930 . S
C2170 H2156 0.930 . S
C2170 C2168 1.395 . S
C2170 C2173 1.403 . S
C2171 C2168 1.403 . S
C2171 C2172 1.524 . S
C2171 C2175 1.400 . S
C2172 H2157 0.960 . S
C2172 H2158 0.960 . S
C2172 H2159 0.960 . S
C2172 C2171 1.524 . S
C2173 C2170 1.403 . S
C2173 C2174 1.392 . S
C2173 C2177 1.495 . S
C2174 C2173 1.392 . S
C2174 C2175 1.385 . S
C2174 C2176 1.478 . S
C2175 H2169 0.930 . S
C2175 C2171 1.400 . S
C2175 C2174 1.385 . S
C2176 C2174 1.478 . S
C2176 C2178 1.381 . S
C2176 C2182 1.383 . S
C2177 C2173 1.495 . S
C2177 H2183 0.959 . S
C2177 H2184 0.961 . S
C2177 H2185 0.960 . S
C2178 C2176 1.381 . S
C2178 C2179 1.394 . S
C2178 H2186 0.930 . S
C2179 C2178 1.394 . S
C2179 C2180 1.383 . S
C2179 H2187 0.929 . S
C2180 C2179 1.383 . S
C2180 C2181 1.377 . S
C2181 H2165 0.930 . S
C2181 C2180 1.377 . S
C2181 C2182 1.379 . S
C2182 H2166 0.931 . S
C2182 C2176 1.383 . S
C2182 C2181 1.379 . S
H2183 C2177 0.959 . S
H2184 C2177 0.961 . S
H2185 C2177 0.960 . S
H2186 C2178 0.930 . S
H2187 C2179 0.929 . S
H2188 C2196 0.929 . S
H2189 C2198 0.930 . S
H2190 C2200 0.930 . S
H2191 C2203 0.929 . S
H2192 C2206 0.930 . S
H2193 C2208 0.960 . S
H2194 C2208 0.960 . S
H2195 C2208 0.960 . S
C2196 H2188 0.929 . S
C2196 C2197 1.377 . S
C2196 C2198 1.384 . S
C2197 C2196 1.377 . S
C2197 C2203 1.390 . S
C2198 H2189 0.930 . S
C2198 C2196 1.384 . S
C2198 C2199 1.372 . S
C2199 C2198 1.372 . S
C2199 C2200 1.400 . S
C2199 C2204 1.490 . S
C2200 H2190 0.930 . S
C2200 C2199 1.400 . S
C2200 C2203 1.386 . S
H2201 C2217 0.930 . S
H2202 C2218 0.931 . S
C2203 H2191 0.929 . S
C2203 C2197 1.390 . S
C2203 C2200 1.386 . S
C2204 C2199 1.490 . S
C2204 C2206 1.395 . S
C2204 C2207 1.403 . S
H2205 C2211 0.930 . S
C2206 H2192 0.930 . S
C2206 C2204 1.395 . S
C2206 C2209 1.403 . S
C2207 C2204 1.403 . S
C2207 C2208 1.524 . S
C2207 C2211 1.400 . S
C2208 H2193 0.960 . S
C2208 H2194 0.960 . S
C2208 H2195 0.960 . S
C2208 C2207 1.524 . S
C2209 C2206 1.403 . S
C2209 C2210 1.392 . S
C2209 C2213 1.495 . S
C2210 C2209 1.392 . S
C2210 C2211 1.385 . S
C2210 C2212 1.478 . S
C2211 H2205 0.930 . S
C2211 C2207 1.400 . S
C2211 C2210 1.385 . S
C2212 C2210 1.478 . S
C2212 C2214 1.381 . S
C2212 C2218 1.383 . S
C2213 C2209 1.495 . S
C2213 H2219 0.959 . S
C2213 H2220 0.961 . S
C2213 H2221 0.960 . S
C2214 C2212 1.381 . S
C2214 C2215 1.394 . S
C2214 H2222 0.930 . S
C2215 C2214 1.394 . S
C2215 C2216 1.383 . S
C2215 H2223 0.929 . S
C2216 C2215 1.383 . S
C2216 C2217 1.377 . S
C2217 H2201 0.930 . S
C2217 C2216 1.377 . S
C2217 C2218 1.379 . S
C2218 H2202 0.931 . S
C2218 C2212 1.383 . S
C2218 C2217 1.379 . S
H2219 C2213 0.959 . S
H2220 C2213 0.961 . S
H2221 C2213 0.960 . S
H2222 C2214 0.930 . S
H2223 C2215 0.929 . S
H2224 C2232 0.929 . S
H2225 C2234 0.930 . S
H2226 C2236 0.930 . S
H2227 C2239 0.929 . S
H2228 C2242 0.930 . S
H2229 C2244 0.960 . S
H2230 C2244 0.960 . S
H2231 C2244 0.960 . S
C2232 H2224 0.929 . S
C2232 C2233 1.377 . S
C2232 C2234 1.384 . S
C2233 C2232 1.377 . S
C2233 C2239 1.390 . S
C2234 H2225 0.930 . S
C2234 C2232 1.384 . S
C2234 C2235 1.372 . S
C2235 C2234 1.372 . S
C2235 C2236 1.400 . S
C2235 C2240 1.490 . S
C2236 H2226 0.930 . S
C2236 C2235 1.400 . S
C2236 C2239 1.386 . S
H2237 C2253 0.930 . S
H2238 C2254 0.931 . S
C2239 H2227 0.929 . S
C2239 C2233 1.390 . S
C2239 C2236 1.386 . S
C2240 C2235 1.490 . S
C2240 C2242 1.395 . S
C2240 C2243 1.403 . S
H2241 C2247 0.930 . S
C2242 H2228 0.930 . S
C2242 C2240 1.395 . S
C2242 C2245 1.403 . S
C2243 C2240 1.403 . S
C2243 C2244 1.524 . S
C2243 C2247 1.400 . S
C2244 H2229 0.960 . S
C2244 H2230 0.960 . S
C2244 H2231 0.960 . S
C2244 C2243 1.524 . S
C2245 C2242 1.403 . S
C2245 C2246 1.392 . S
C2245 C2249 1.495 . S
C2246 C2245 1.392 . S
C2246 C2247 1.385 . S
C2246 C2248 1.478 . S
C2247 H2241 0.930 . S
C2247 C2243 1.400 . S
C2247 C2246 1.385 . S
C2248 C2246 1.478 . S
C2248 C2250 1.381 . S
C2248 C2254 1.383 . S
C2249 C2245 1.495 . S
C2249 H2255 0.959 . S
C2249 H2256 0.961 . S
C2249 H2257 0.960 . S
C2250 C2248 1.381 . S
C2250 C2251 1.394 . S
C2250 H2258 0.930 . S
C2251 C2250 1.394 . S
C2251 C2252 1.383 . S
C2251 H2259 0.929 . S
C2252 C2251 1.383 . S
C2252 C2253 1.377 . S
C2253 H2237 0.930 . S
C2253 C2252 1.377 . S
C2253 C2254 1.379 . S
C2254 H2238 0.931 . S
C2254 C2248 1.383 . S
C2254 C2253 1.379 . S
H2255 C2249 0.959 . S
H2256 C2249 0.961 . S
H2257 C2249 0.960 . S
H2258 C2250 0.930 . S
H2259 C2251 0.929 . S
H2260 C2268 0.929 . S
H2261 C2270 0.930 . S
H2262 C2272 0.930 . S
H2263 C2275 0.929 . S
H2264 C2278 0.930 . S
H2265 C2280 0.960 . S
H2266 C2280 0.960 . S
H2267 C2280 0.960 . S
C2268 H2260 0.929 . S
C2268 C2269 1.377 . S
C2268 C2270 1.384 . S
C2269 C2268 1.377 . S
C2269 C2275 1.390 . S
C2270 H2261 0.930 . S
C2270 C2268 1.384 . S
C2270 C2271 1.372 . S
C2271 C2270 1.372 . S
C2271 C2272 1.400 . S
C2271 C2276 1.490 . S
C2272 H2262 0.930 . S
C2272 C2271 1.400 . S
C2272 C2275 1.386 . S
H2273 C2289 0.930 . S
H2274 C2290 0.931 . S
C2275 H2263 0.929 . S
C2275 C2269 1.390 . S
C2275 C2272 1.386 . S
C2276 C2271 1.490 . S
C2276 C2278 1.395 . S
C2276 C2279 1.403 . S
H2277 C2283 0.930 . S
C2278 H2264 0.930 . S
C2278 C2276 1.395 . S
C2278 C2281 1.403 . S
C2279 C2276 1.403 . S
C2279 C2280 1.524 . S
C2279 C2283 1.400 . S
C2280 H2265 0.960 . S
C2280 H2266 0.960 . S
C2280 H2267 0.960 . S
C2280 C2279 1.524 . S
C2281 C2278 1.403 . S
C2281 C2282 1.392 . S
C2281 C2285 1.495 . S
C2282 C2281 1.392 . S
C2282 C2283 1.385 . S
C2282 C2284 1.478 . S
C2283 H2277 0.930 . S
C2283 C2279 1.400 . S
C2283 C2282 1.385 . S
C2284 C2282 1.478 . S
C2284 C2286 1.381 . S
C2284 C2290 1.383 . S
C2285 C2281 1.495 . S
C2285 H2291 0.959 . S
C2285 H2292 0.961 . S
C2285 H2293 0.960 . S
C2286 C2284 1.381 . S
C2286 C2287 1.394 . S
C2286 H2294 0.930 . S
C2287 C2286 1.394 . S
C2287 C2288 1.383 . S
C2287 H2295 0.929 . S
C2288 C2287 1.383 . S
C2288 C2289 1.377 . S
C2289 H2273 0.930 . S
C2289 C2288 1.377 . S
C2289 C2290 1.379 . S
C2290 H2274 0.931 . S
C2290 C2284 1.383 . S
C2290 C2289 1.379 . S
H2291 C2285 0.959 . S
H2292 C2285 0.961 . S
H2293 C2285 0.960 . S
H2294 C2286 0.930 . S
H2295 C2287 0.929 . S
H2296 C2304 0.929 . S
H2297 C2306 0.930 . S
H2298 C2308 0.930 . S
H2299 C2311 0.929 . S
H2300 C2314 0.930 . S
H2301 C2316 0.960 . S
H2302 C2316 0.960 . S
H2303 C2316 0.960 . S
C2304 H2296 0.929 . S
C2304 C2305 1.377 . S
C2304 C2306 1.384 . S
C2305 C2304 1.377 . S
C2305 C2311 1.390 . S
C2306 H2297 0.930 . S
C2306 C2304 1.384 . S
C2306 C2307 1.372 . S
C2307 C2306 1.372 . S
C2307 C2308 1.400 . S
C2307 C2312 1.490 . S
C2308 H2298 0.930 . S
C2308 C2307 1.400 . S
C2308 C2311 1.386 . S
H2309 C2325 0.930 . S
H2310 C2326 0.931 . S
C2311 H2299 0.929 . S
C2311 C2305 1.390 . S
C2311 C2308 1.386 . S
C2312 C2307 1.490 . S
C2312 C2314 1.395 . S
C2312 C2315 1.403 . S
H2313 C2319 0.930 . S
C2314 H2300 0.930 . S
C2314 C2312 1.395 . S
C2314 C2317 1.403 . S
C2315 C2312 1.403 . S
C2315 C2316 1.524 . S
C2315 C2319 1.400 . S
C2316 H2301 0.960 . S
C2316 H2302 0.960 . S
C2316 H2303 0.960 . S
C2316 C2315 1.524 . S
C2317 C2314 1.403 . S
C2317 C2318 1.392 . S
C2317 C2321 1.495 . S
C2318 C2317 1.392 . S
C2318 C2319 1.385 . S
C2318 C2320 1.478 . S
C2319 H2313 0.930 . S
C2319 C2315 1.400 . S
C2319 C2318 1.385 . S
C2320 C2318 1.478 . S
C2320 C2322 1.381 . S
C2320 C2326 1.383 . S
C2321 C2317 1.495 . S
C2321 H2327 0.959 . S
C2321 H2328 0.961 . S
C2321 H2329 0.960 . S
C2322 C2320 1.381 . S
C2322 C2323 1.394 . S
C2322 H2330 0.930 . S
C2323 C2322 1.394 . S
C2323 C2324 1.383 . S
C2323 H2331 0.929 . S
C2324 C2323 1.383 . S
C2324 C2325 1.377 . S
C2325 H2309 0.930 . S
C2325 C2324 1.377 . S
C2325 C2326 1.379 . S
C2326 H2310 0.931 . S
C2326 C2320 1.383 . S
C2326 C2325 1.379 . S
H2327 C2321 0.959 . S
H2328 C2321 0.961 . S
H2329 C2321 0.960 . S
H2330 C2322 0.930 . S
H2331 C2323 0.929 . S
H2332 C2340 0.929 . S
H2333 C2342 0.930 . S
H2334 C2344 0.930 . S
H2335 C2347 0.929 . S
H2336 C2350 0.930 . S
H2337 C2352 0.960 . S
H2338 C2352 0.960 . S
H2339 C2352 0.960 . S
C2340 H2332 0.929 . S
C2340 C2341 1.377 . S
C2340 C2342 1.384 . S
C2341 C2340 1.377 . S
C2341 C2347 1.390 . S
C2342 H2333 0.930 . S
C2342 C2340 1.384 . S
C2342 C2343 1.372 . S
C2343 C2342 1.372 . S
C2343 C2344 1.400 . S
C2343 C2348 1.490 . S
C2344 H2334 0.930 . S
C2344 C2343 1.400 . S
C2344 C2347 1.386 . S
H2345 C2361 0.930 . S
H2346 C2362 0.931 . S
C2347 H2335 0.929 . S
C2347 C2341 1.390 . S
C2347 C2344 1.386 . S
C2348 C2343 1.490 . S
C2348 C2350 1.395 . S
C2348 C2351 1.403 . S
H2349 C2355 0.930 . S
C2350 H2336 0.930 . S
C2350 C2348 1.395 . S
C2350 C2353 1.403 . S
C2351 C2348 1.403 . S
C2351 C2352 1.524 . S
C2351 C2355 1.400 . S
C2352 H2337 0.960 . S
C2352 H2338 0.960 . S
C2352 H2339 0.960 . S
C2352 C2351 1.524 . S
C2353 C2350 1.403 . S
C2353 C2354 1.392 . S
C2353 C2357 1.495 . S
C2354 C2353 1.392 . S
C2354 C2355 1.385 . S
C2354 C2356 1.478 . S
C2355 H2349 0.930 . S
C2355 C2351 1.400 . S
C2355 C2354 1.385 . S
C2356 C2354 1.478 . S
C2356 C2358 1.381 . S
C2356 C2362 1.383 . S
C2357 C2353 1.495 . S
C2357 H2363 0.959 . S
C2357 H2364 0.961 . S
C2357 H2365 0.960 . S
C2358 C2356 1.381 . S
C2358 C2359 1.394 . S
C2358 H2366 0.930 . S
C2359 C2358 1.394 . S
C2359 C2360 1.383 . S
C2359 H2367 0.929 . S
C2360 C2359 1.383 . S
C2360 C2361 1.377 . S
C2361 H2345 0.930 . S
C2361 C2360 1.377 . S
C2361 C2362 1.379 . S
C2362 H2346 0.931 . S
C2362 C2356 1.383 . S
C2362 C2361 1.379 . S
H2363 C2357 0.959 . S
H2364 C2357 0.961 . S
H2365 C2357 0.960 . S
H2366 C2358 0.930 . S
H2367 C2359 0.929 . S
H2368 C2376 0.929 . S
H2369 C2378 0.930 . S
H2370 C2380 0.930 . S
H2371 C2383 0.929 . S
H2372 C2386 0.930 . S
H2373 C2388 0.960 . S
H2374 C2388 0.960 . S
H2375 C2388 0.960 . S
C2376 H2368 0.929 . S
C2376 C2377 1.377 . S
C2376 C2378 1.384 . S
C2377 C2376 1.377 . S
C2377 C2383 1.390 . S
C2378 H2369 0.930 . S
C2378 C2376 1.384 . S
C2378 C2379 1.372 . S
C2379 C2378 1.372 . S
C2379 C2380 1.400 . S
C2379 C2384 1.490 . S
C2380 H2370 0.930 . S
C2380 C2379 1.400 . S
C2380 C2383 1.386 . S
H2381 C2397 0.930 . S
H2382 C2398 0.931 . S
C2383 H2371 0.929 . S
C2383 C2377 1.390 . S
C2383 C2380 1.386 . S
C2384 C2379 1.490 . S
C2384 C2386 1.395 . S
C2384 C2387 1.403 . S
H2385 C2391 0.930 . S
C2386 H2372 0.930 . S
C2386 C2384 1.395 . S
C2386 C2389 1.403 . S
C2387 C2384 1.403 . S
C2387 C2388 1.524 . S
C2387 C2391 1.400 . S
C2388 H2373 0.960 . S
C2388 H2374 0.960 . S
C2388 H2375 0.960 . S
C2388 C2387 1.524 . S
C2389 C2386 1.403 . S
C2389 C2390 1.392 . S
C2389 C2393 1.495 . S
C2390 C2389 1.392 . S
C2390 C2391 1.385 . S
C2390 C2392 1.478 . S
C2391 H2385 0.930 . S
C2391 C2387 1.400 . S
C2391 C2390 1.385 . S
C2392 C2390 1.478 . S
C2392 C2394 1.381 . S
C2392 C2398 1.383 . S
C2393 C2389 1.495 . S
C2393 H2399 0.959 . S
C2393 H2400 0.961 . S
C2393 H2401 0.960 . S
C2394 C2392 1.381 . S
C2394 C2395 1.394 . S
C2394 H2402 0.930 . S
C2395 C2394 1.394 . S
C2395 C2396 1.383 . S
C2395 H2403 0.929 . S
C2396 C2395 1.383 . S
C2396 C2397 1.377 . S
C2397 H2381 0.930 . S
C2397 C2396 1.377 . S
C2397 C2398 1.379 . S
C2398 H2382 0.931 . S
C2398 C2392 1.383 . S
C2398 C2397 1.379 . S
H2399 C2393 0.959 . S
H2400 C2393 0.961 . S
H2401 C2393 0.960 . S
H2402 C2394 0.930 . S
H2403 C2395 0.929 . S
H2404 C2412 0.929 . S
H2405 C2414 0.930 . S
H2406 C2416 0.930 . S
H2407 C2419 0.929 . S
H2408 C2422 0.930 . S
H2409 C2424 0.960 . S
H2410 C2424 0.960 . S
H2411 C2424 0.960 . S
C2412 H2404 0.929 . S
C2412 C2413 1.377 . S
C2412 C2414 1.384 . S
C2413 C2412 1.377 . S
C2413 C2419 1.390 . S
C2414 H2405 0.930 . S
C2414 C2412 1.384 . S
C2414 C2415 1.372 . S
C2415 C2414 1.372 . S
C2415 C2416 1.400 . S
C2415 C2420 1.490 . S
C2416 H2406 0.930 . S
C2416 C2415 1.400 . S
C2416 C2419 1.386 . S
H2417 C2433 0.930 . S
H2418 C2434 0.931 . S
C2419 H2407 0.929 . S
C2419 C2413 1.390 . S
C2419 C2416 1.386 . S
C2420 C2415 1.490 . S
C2420 C2422 1.395 . S
C2420 C2423 1.403 . S
H2421 C2427 0.930 . S
C2422 H2408 0.930 . S
C2422 C2420 1.395 . S
C2422 C2425 1.403 . S
C2423 C2420 1.403 . S
C2423 C2424 1.524 . S
C2423 C2427 1.400 . S
C2424 H2409 0.960 . S
C2424 H2410 0.960 . S
C2424 H2411 0.960 . S
C2424 C2423 1.524 . S
C2425 C2422 1.403 . S
C2425 C2426 1.392 . S
C2425 C2429 1.495 . S
C2426 C2425 1.392 . S
C2426 C2427 1.385 . S
C2426 C2428 1.478 . S
C2427 H2421 0.930 . S
C2427 C2423 1.400 . S
C2427 C2426 1.385 . S
C2428 C2426 1.478 . S
C2428 C2430 1.381 . S
C2428 C2434 1.383 . S
C2429 C2425 1.495 . S
C2429 H2435 0.959 . S
C2429 H2436 0.961 . S
C2429 H2437 0.960 . S
C2430 C2428 1.381 . S
C2430 C2431 1.394 . S
C2430 H2438 0.930 . S
C2431 C2430 1.394 . S
C2431 C2432 1.383 . S
C2431 H2439 0.929 . S
C2432 C2431 1.383 . S
C2432 C2433 1.377 . S
C2433 H2417 0.930 . S
C2433 C2432 1.377 . S
C2433 C2434 1.379 . S
C2434 H2418 0.931 . S
C2434 C2428 1.383 . S
C2434 C2433 1.379 . S
H2435 C2429 0.959 . S
H2436 C2429 0.961 . S
H2437 C2429 0.960 . S
H2438 C2430 0.930 . S
H2439 C2431 0.929 . S
H2440 C2448 0.929 . S
H2441 C2450 0.930 . S
H2442 C2452 0.930 . S
H2443 C2455 0.929 . S
H2444 C2458 0.930 . S
H2445 C2460 0.960 . S
H2446 C2460 0.960 . S
H2447 C2460 0.960 . S
C2448 H2440 0.929 . S
C2448 C2449 1.377 . S
C2448 C2450 1.384 . S
C2449 C2448 1.377 . S
C2449 C2455 1.390 . S
C2450 H2441 0.930 . S
C2450 C2448 1.384 . S
C2450 C2451 1.372 . S
C2451 C2450 1.372 . S
C2451 C2452 1.400 . S
C2451 C2456 1.490 . S
C2452 H2442 0.930 . S
C2452 C2451 1.400 . S
C2452 C2455 1.386 . S
H2453 C2469 0.930 . S
H2454 C2470 0.931 . S
C2455 H2443 0.929 . S
C2455 C2449 1.390 . S
C2455 C2452 1.386 . S
C2456 C2451 1.490 . S
C2456 C2458 1.395 . S
C2456 C2459 1.403 . S
H2457 C2463 0.930 . S
C2458 H2444 0.930 . S
C2458 C2456 1.395 . S
C2458 C2461 1.403 . S
C2459 C2456 1.403 . S
C2459 C2460 1.524 . S
C2459 C2463 1.400 . S
C2460 H2445 0.960 . S
C2460 H2446 0.960 . S
C2460 H2447 0.960 . S
C2460 C2459 1.524 . S
C2461 C2458 1.403 . S
C2461 C2462 1.392 . S
C2461 C2465 1.495 . S
C2462 C2461 1.392 . S
C2462 C2463 1.385 . S
C2462 C2464 1.478 . S
C2463 H2457 0.930 . S
C2463 C2459 1.400 . S
C2463 C2462 1.385 . S
C2464 C2462 1.478 . S
C2464 C2466 1.381 . S
C2464 C2470 1.383 . S
C2465 C2461 1.495 . S
C2465 H2471 0.959 . S
C2465 H2472 0.961 . S
C2465 H2473 0.960 . S
C2466 C2464 1.381 . S
C2466 C2467 1.394 . S
C2466 H2474 0.930 . S
C2467 C2466 1.394 . S
C2467 C2468 1.383 . S
C2467 H2475 0.929 . S
C2468 C2467 1.383 . S
C2468 C2469 1.377 . S
C2469 H2453 0.930 . S
C2469 C2468 1.377 . S
C2469 C2470 1.379 . S
C2470 H2454 0.931 . S
C2470 C2464 1.383 . S
C2470 C2469 1.379 . S
H2471 C2465 0.959 . S
H2472 C2465 0.961 . S
H2473 C2465 0.960 . S
H2474 C2466 0.930 . S
H2475 C2467 0.929 . S
H2476 C2484 0.929 . S
H2477 C2486 0.930 . S
H2478 C2488 0.930 . S
H2479 C2491 0.929 . S
H2480 C2494 0.930 . S
H2481 C2496 0.960 . S
H2482 C2496 0.960 . S
H2483 C2496 0.960 . S
C2484 H2476 0.929 . S
C2484 C2485 1.377 . S
C2484 C2486 1.384 . S
C2485 C2484 1.377 . S
C2485 C2491 1.390 . S
C2486 H2477 0.930 . S
C2486 C2484 1.384 . S
C2486 C2487 1.372 . S
C2487 C2486 1.372 . S
C2487 C2488 1.400 . S
C2487 C2492 1.490 . S
C2488 H2478 0.930 . S
C2488 C2487 1.400 . S
C2488 C2491 1.386 . S
H2489 C2505 0.930 . S
H2490 C2506 0.931 . S
C2491 H2479 0.929 . S
C2491 C2485 1.390 . S
C2491 C2488 1.386 . S
C2492 C2487 1.490 . S
C2492 C2494 1.395 . S
C2492 C2495 1.403 . S
H2493 C2499 0.930 . S
C2494 H2480 0.930 . S
C2494 C2492 1.395 . S
C2494 C2497 1.403 . S
C2495 C2492 1.403 . S
C2495 C2496 1.524 . S
C2495 C2499 1.400 . S
C2496 H2481 0.960 . S
C2496 H2482 0.960 . S
C2496 H2483 0.960 . S
C2496 C2495 1.524 . S
C2497 C2494 1.403 . S
C2497 C2498 1.392 . S
C2497 C2501 1.495 . S
C2498 C2497 1.392 . S
C2498 C2499 1.385 . S
C2498 C2500 1.478 . S
C2499 H2493 0.930 . S
C2499 C2495 1.400 . S
C2499 C2498 1.385 . S
C2500 C2498 1.478 . S
C2500 C2502 1.381 . S
C2500 C2506 1.383 . S
C2501 C2497 1.495 . S
C2501 H2507 0.959 . S
C2501 H2508 0.961 . S
C2501 H2509 0.960 . S
C2502 C2500 1.381 . S
C2502 C2503 1.394 . S
C2502 H2510 0.930 . S
C2503 C2502 1.394 . S
C2503 C2504 1.383 . S
C2503 H2511 0.929 . S
C2504 C2503 1.383 . S
C2504 C2505 1.377 . S
C2505 H2489 0.930 . S
C2505 C2504 1.377 . S
C2505 C2506 1.379 . S
C2506 H2490 0.931 . S
C2506 C2500 1.383 . S
C2506 C2505 1.379 . S
H2507 C2501 0.959 . S
H2508 C2501 0.961 . S
H2509 C2501 0.960 . S
H2510 C2502 0.930 . S
H2511 C2503 0.929 . S
H2512 C2520 0.929 . S
H2513 C2522 0.930 . S
H2514 C2524 0.930 . S
H2515 C2527 0.929 . S
H2516 C2530 0.930 . S
H2517 C2532 0.960 . S
H2518 C2532 0.960 . S
H2519 C2532 0.960 . S
C2520 H2512 0.929 . S
C2520 C2521 1.377 . S
C2520 C2522 1.384 . S
C2521 C2520 1.377 . S
C2521 C2527 1.390 . S
C2522 H2513 0.930 . S
C2522 C2520 1.384 . S
C2522 C2523 1.372 . S
C2523 C2522 1.372 . S
C2523 C2524 1.400 . S
C2523 C2528 1.490 . S
C2524 H2514 0.930 . S
C2524 C2523 1.400 . S
C2524 C2527 1.386 . S
H2525 C2541 0.930 . S
H2526 C2542 0.931 . S
C2527 H2515 0.929 . S
C2527 C2521 1.390 . S
C2527 C2524 1.386 . S
C2528 C2523 1.490 . S
C2528 C2530 1.395 . S
C2528 C2531 1.403 . S
H2529 C2535 0.930 . S
C2530 H2516 0.930 . S
C2530 C2528 1.395 . S
C2530 C2533 1.403 . S
C2531 C2528 1.403 . S
C2531 C2532 1.524 . S
C2531 C2535 1.400 . S
C2532 H2517 0.960 . S
C2532 H2518 0.960 . S
C2532 H2519 0.960 . S
C2532 C2531 1.524 . S
C2533 C2530 1.403 . S
C2533 C2534 1.392 . S
C2533 C2537 1.495 . S
C2534 C2533 1.392 . S
C2534 C2535 1.385 . S
C2534 C2536 1.478 . S
C2535 H2529 0.930 . S
C2535 C2531 1.400 . S
C2535 C2534 1.385 . S
C2536 C2534 1.478 . S
C2536 C2538 1.381 . S
C2536 C2542 1.383 . S
C2537 C2533 1.495 . S
C2537 H2543 0.959 . S
C2537 H2544 0.961 . S
C2537 H2545 0.960 . S
C2538 C2536 1.381 . S
C2538 C2539 1.394 . S
C2538 H2546 0.930 . S
C2539 C2538 1.394 . S
C2539 C2540 1.383 . S
C2539 H2547 0.929 . S
C2540 C2539 1.383 . S
C2540 C2541 1.377 . S
C2541 H2525 0.930 . S
C2541 C2540 1.377 . S
C2541 C2542 1.379 . S
C2542 H2526 0.931 . S
C2542 C2536 1.383 . S
C2542 C2541 1.379 . S
H2543 C2537 0.959 . S
H2544 C2537 0.961 . S
H2545 C2537 0.960 . S
H2546 C2538 0.930 . S
H2547 C2539 0.929 . S
H2548 C2556 0.929 . S
H2549 C2558 0.930 . S
H2550 C2560 0.930 . S
H2551 C2563 0.929 . S
H2552 C2566 0.930 . S
H2553 C2568 0.960 . S
H2554 C2568 0.960 . S
H2555 C2568 0.960 . S
C2556 H2548 0.929 . S
C2556 C2557 1.377 . S
C2556 C2558 1.384 . S
C2557 C2556 1.377 . S
C2557 C2563 1.390 . S
C2558 H2549 0.930 . S
C2558 C2556 1.384 . S
C2558 C2559 1.372 . S
C2559 C2558 1.372 . S
C2559 C2560 1.400 . S
C2559 C2564 1.490 . S
C2560 H2550 0.930 . S
C2560 C2559 1.400 . S
C2560 C2563 1.386 . S
H2561 C2577 0.930 . S
H2562 C2578 0.931 . S
C2563 H2551 0.929 . S
C2563 C2557 1.390 . S
C2563 C2560 1.386 . S
C2564 C2559 1.490 . S
C2564 C2566 1.395 . S
C2564 C2567 1.403 . S
H2565 C2571 0.930 . S
C2566 H2552 0.930 . S
C2566 C2564 1.395 . S
C2566 C2569 1.403 . S
C2567 C2564 1.403 . S
C2567 C2568 1.524 . S
C2567 C2571 1.400 . S
C2568 H2553 0.960 . S
C2568 H2554 0.960 . S
C2568 H2555 0.960 . S
C2568 C2567 1.524 . S
C2569 C2566 1.403 . S
C2569 C2570 1.392 . S
C2569 C2573 1.495 . S
C2570 C2569 1.392 . S
C2570 C2571 1.385 . S
C2570 C2572 1.478 . S
C2571 H2565 0.930 . S
C2571 C2567 1.400 . S
C2571 C2570 1.385 . S
C2572 C2570 1.478 . S
C2572 C2574 1.381 . S
C2572 C2578 1.383 . S
C2573 C2569 1.495 . S
C2573 H2579 0.959 . S
C2573 H2580 0.961 . S
C2573 H2581 0.960 . S
C2574 C2572 1.381 . S
C2574 C2575 1.394 . S
C2574 H2582 0.930 . S
C2575 C2574 1.394 . S
C2575 C2576 1.383 . S
C2575 H2583 0.929 . S
C2576 C2575 1.383 . S
C2576 C2577 1.377 . S
C2577 H2561 0.930 . S
C2577 C2576 1.377 . S
C2577 C2578 1.379 . S
C2578 H2562 0.931 . S
C2578 C2572 1.383 . S
C2578 C2577 1.379 . S
H2579 C2573 0.959 . S
H2580 C2573 0.961 . S
H2581 C2573 0.960 . S
H2582 C2574 0.930 . S
H2583 C2575 0.929 . S
H2584 C2592 0.929 . S
H2585 C2594 0.930 . S
H2586 C2596 0.930 . S
H2587 C2599 0.929 . S
H2588 C2602 0.930 . S
H2589 C2604 0.960 . S
H2590 C2604 0.960 . S
H2591 C2604 0.960 . S
C2592 H2584 0.929 . S
C2592 C2593 1.377 . S
C2592 C2594 1.384 . S
C2593 C2592 1.377 . S
C2593 C2599 1.390 . S
C2594 H2585 0.930 . S
C2594 C2592 1.384 . S
C2594 C2595 1.372 . S
C2595 C2594 1.372 . S
C2595 C2596 1.400 . S
C2595 C2600 1.490 . S
C2596 H2586 0.930 . S
C2596 C2595 1.400 . S
C2596 C2599 1.386 . S
H2597 C2613 0.930 . S
H2598 C2614 0.931 . S
C2599 H2587 0.929 . S
C2599 C2593 1.390 . S
C2599 C2596 1.386 . S
C2600 C2595 1.490 . S
C2600 C2602 1.395 . S
C2600 C2603 1.403 . S
H2601 C2607 0.930 . S
C2602 H2588 0.930 . S
C2602 C2600 1.395 . S
C2602 C2605 1.403 . S
C2603 C2600 1.403 . S
C2603 C2604 1.524 . S
C2603 C2607 1.400 . S
C2604 H2589 0.960 . S
C2604 H2590 0.960 . S
C2604 H2591 0.960 . S
C2604 C2603 1.524 . S
C2605 C2602 1.403 . S
C2605 C2606 1.392 . S
C2605 C2609 1.495 . S
C2606 C2605 1.392 . S
C2606 C2607 1.385 . S
C2606 C2608 1.478 . S
C2607 H2601 0.930 . S
C2607 C2603 1.400 . S
C2607 C2606 1.385 . S
C2608 C2606 1.478 . S
C2608 C2610 1.381 . S
C2608 C2614 1.383 . S
C2609 C2605 1.495 . S
C2609 H2615 0.959 . S
C2609 H2616 0.961 . S
C2609 H2617 0.960 . S
C2610 C2608 1.381 . S
C2610 C2611 1.394 . S
C2610 H2618 0.930 . S
C2611 C2610 1.394 . S
C2611 C2612 1.383 . S
C2611 H2619 0.929 . S
C2612 C2611 1.383 . S
C2612 C2613 1.377 . S
C2613 H2597 0.930 . S
C2613 C2612 1.377 . S
C2613 C2614 1.379 . S
C2614 H2598 0.931 . S
C2614 C2608 1.383 . S
C2614 C2613 1.379 . S
H2615 C2609 0.959 . S
H2616 C2609 0.961 . S
H2617 C2609 0.960 . S
H2618 C2610 0.930 . S
H2619 C2611 0.929 . S
H2620 C2628 0.929 . S
H2621 C2630 0.930 . S
H2622 C2632 0.930 . S
H2623 C2635 0.929 . S
H2624 C2638 0.930 . S
H2625 C2640 0.960 . S
H2626 C2640 0.960 . S
H2627 C2640 0.960 . S
C2628 H2620 0.929 . S
C2628 C2629 1.377 . S
C2628 C2630 1.384 . S
C2629 C2628 1.377 . S
C2629 C2635 1.390 . S
C2630 H2621 0.930 . S
C2630 C2628 1.384 . S
C2630 C2631 1.372 . S
C2631 C2630 1.372 . S
C2631 C2632 1.400 . S
C2631 C2636 1.490 . S
C2632 H2622 0.930 . S
C2632 C2631 1.400 . S
C2632 C2635 1.386 . S
H2633 C2649 0.930 . S
H2634 C2650 0.931 . S
C2635 H2623 0.929 . S
C2635 C2629 1.390 . S
C2635 C2632 1.386 . S
C2636 C2631 1.490 . S
C2636 C2638 1.395 . S
C2636 C2639 1.403 . S
H2637 C2643 0.930 . S
C2638 H2624 0.930 . S
C2638 C2636 1.395 . S
C2638 C2641 1.403 . S
C2639 C2636 1.403 . S
C2639 C2640 1.524 . S
C2639 C2643 1.400 . S
C2640 H2625 0.960 . S
C2640 H2626 0.960 . S
C2640 H2627 0.960 . S
C2640 C2639 1.524 . S
C2641 C2638 1.403 . S
C2641 C2642 1.392 . S
C2641 C2645 1.495 . S
C2642 C2641 1.392 . S
C2642 C2643 1.385 . S
C2642 C2644 1.478 . S
C2643 H2637 0.930 . S
C2643 C2639 1.400 . S
C2643 C2642 1.385 . S
C2644 C2642 1.478 . S
C2644 C2646 1.381 . S
C2644 C2650 1.383 . S
C2645 C2641 1.495 . S
C2645 H2651 0.959 . S
C2645 H2652 0.961 . S
C2645 H2653 0.960 . S
C2646 C2644 1.381 . S
C2646 C2647 1.394 . S
C2646 H2654 0.930 . S
C2647 C2646 1.394 . S
C2647 C2648 1.383 . S
C2647 H2655 0.929 . S
C2648 C2647 1.383 . S
C2648 C2649 1.377 . S
C2649 H2633 0.930 . S
C2649 C2648 1.377 . S
C2649 C2650 1.379 . S
C2650 H2634 0.931 . S
C2650 C2644 1.383 . S
C2650 C2649 1.379 . S
H2651 C2645 0.959 . S
H2652 C2645 0.961 . S
H2653 C2645 0.960 . S
H2654 C2646 0.930 . S
H2655 C2647 0.929 . S
H2656 C2664 0.929 . S
H2657 C2666 0.930 . S
H2658 C2668 0.930 . S
H2659 C2671 0.929 . S
H2660 C2674 0.930 . S
H2661 C2676 0.960 . S
H2662 C2676 0.960 . S
H2663 C2676 0.960 . S
C2664 H2656 0.929 . S
C2664 C2665 1.377 . S
C2664 C2666 1.384 . S
C2665 C2664 1.377 . S
C2665 C2671 1.390 . S
C2666 H2657 0.930 . S
C2666 C2664 1.384 . S
C2666 C2667 1.372 . S
C2667 C2666 1.372 . S
C2667 C2668 1.400 . S
C2667 C2672 1.490 . S
C2668 H2658 0.930 . S
C2668 C2667 1.400 . S
C2668 C2671 1.386 . S
H2669 C2685 0.930 . S
H2670 C2686 0.931 . S
C2671 H2659 0.929 . S
C2671 C2665 1.390 . S
C2671 C2668 1.386 . S
C2672 C2667 1.490 . S
C2672 C2674 1.395 . S
C2672 C2675 1.403 . S
H2673 C2679 0.930 . S
C2674 H2660 0.930 . S
C2674 C2672 1.395 . S
C2674 C2677 1.403 . S
C2675 C2672 1.403 . S
C2675 C2676 1.524 . S
C2675 C2679 1.400 . S
C2676 H2661 0.960 . S
C2676 H2662 0.960 . S
C2676 H2663 0.960 . S
C2676 C2675 1.524 . S
C2677 C2674 1.403 . S
C2677 C2678 1.392 . S
C2677 C2681 1.495 . S
C2678 C2677 1.392 . S
C2678 C2679 1.385 . S
C2678 C2680 1.478 . S
C2679 H2673 0.930 . S
C2679 C2675 1.400 . S
C2679 C2678 1.385 . S
C2680 C2678 1.478 . S
C2680 C2682 1.381 . S
C2680 C2686 1.383 . S
C2681 C2677 1.495 . S
C2681 H2687 0.959 . S
C2681 H2688 0.961 . S
C2681 H2689 0.960 . S
C2682 C2680 1.381 . S
C2682 C2683 1.394 . S
C2682 H2690 0.930 . S
C2683 C2682 1.394 . S
C2683 C2684 1.383 . S
C2683 H2691 0.929 . S
C2684 C2683 1.383 . S
C2684 C2685 1.377 . S
C2685 H2669 0.930 . S
C2685 C2684 1.377 . S
C2685 C2686 1.379 . S
C2686 H2670 0.931 . S
C2686 C2680 1.383 . S
C2686 C2685 1.379 . S
H2687 C2681 0.959 . S
H2688 C2681 0.961 . S
H2689 C2681 0.960 . S
H2690 C2682 0.930 . S
H2691 C2683 0.929 . S
H2692 C2700 0.929 . S
H2693 C2702 0.930 . S
H2694 C2704 0.930 . S
H2695 C2707 0.929 . S
H2696 C2710 0.930 . S
H2697 C2712 0.960 . S
H2698 C2712 0.960 . S
H2699 C2712 0.960 . S
C2700 H2692 0.929 . S
C2700 C2701 1.377 . S
C2700 C2702 1.384 . S
C2701 C2700 1.377 . S
C2701 C2707 1.390 . S
C2702 H2693 0.930 . S
C2702 C2700 1.384 . S
C2702 C2703 1.372 . S
C2703 C2702 1.372 . S
C2703 C2704 1.400 . S
C2703 C2708 1.490 . S
C2704 H2694 0.930 . S
C2704 C2703 1.400 . S
C2704 C2707 1.386 . S
H2705 C2721 0.930 . S
H2706 C2722 0.931 . S
C2707 H2695 0.929 . S
C2707 C2701 1.390 . S
C2707 C2704 1.386 . S
C2708 C2703 1.490 . S
C2708 C2710 1.395 . S
C2708 C2711 1.403 . S
H2709 C2715 0.930 . S
C2710 H2696 0.930 . S
C2710 C2708 1.395 . S
C2710 C2713 1.403 . S
C2711 C2708 1.403 . S
C2711 C2712 1.524 . S
C2711 C2715 1.400 . S
C2712 H2697 0.960 . S
C2712 H2698 0.960 . S
C2712 H2699 0.960 . S
C2712 C2711 1.524 . S
C2713 C2710 1.403 . S
C2713 C2714 1.392 . S
C2713 C2717 1.495 . S
C2714 C2713 1.392 . S
C2714 C2715 1.385 . S
C2714 C2716 1.478 . S
C2715 H2709 0.930 . S
C2715 C2711 1.400 . S
C2715 C2714 1.385 . S
C2716 C2714 1.478 . S
C2716 C2718 1.381 . S
C2716 C2722 1.383 . S
C2717 C2713 1.495 . S
C2717 H2723 0.959 . S
C2717 H2724 0.961 . S
C2717 H2725 0.960 . S
C2718 C2716 1.381 . S
C2718 C2719 1.394 . S
C2718 H2726 0.930 . S
C2719 C2718 1.394 . S
C2719 C2720 1.383 . S
C2719 H2727 0.929 . S
C2720 C2719 1.383 . S
C2720 C2721 1.377 . S
C2721 H2705 0.930 . S
C2721 C2720 1.377 . S
C2721 C2722 1.379 . S
C2722 H2706 0.931 . S
C2722 C2716 1.383 . S
C2722 C2721 1.379 . S
H2723 C2717 0.959 . S
H2724 C2717 0.961 . S
H2725 C2717 0.960 . S
H2726 C2718 0.930 . S
H2727 C2719 0.929 . S
H2728 C2736 0.929 . S
H2729 C2738 0.930 . S
H2730 C2740 0.930 . S
H2731 C2743 0.929 . S
H2732 C2746 0.930 . S
H2733 C2748 0.960 . S
H2734 C2748 0.960 . S
H2735 C2748 0.960 . S
C2736 H2728 0.929 . S
C2736 C2737 1.377 . S
C2736 C2738 1.384 . S
C2737 C2736 1.377 . S
C2737 C2743 1.390 . S
C2738 H2729 0.930 . S
C2738 C2736 1.384 . S
C2738 C2739 1.372 . S
C2739 C2738 1.372 . S
C2739 C2740 1.400 . S
C2739 C2744 1.490 . S
C2740 H2730 0.930 . S
C2740 C2739 1.400 . S
C2740 C2743 1.386 . S
H2741 C2757 0.930 . S
H2742 C2758 0.931 . S
C2743 H2731 0.929 . S
C2743 C2737 1.390 . S
C2743 C2740 1.386 . S
C2744 C2739 1.490 . S
C2744 C2746 1.395 . S
C2744 C2747 1.403 . S
H2745 C2751 0.930 . S
C2746 H2732 0.930 . S
C2746 C2744 1.395 . S
C2746 C2749 1.403 . S
C2747 C2744 1.403 . S
C2747 C2748 1.524 . S
C2747 C2751 1.400 . S
C2748 H2733 0.960 . S
C2748 H2734 0.960 . S
C2748 H2735 0.960 . S
C2748 C2747 1.524 . S
C2749 C2746 1.403 . S
C2749 C2750 1.392 . S
C2749 C2753 1.495 . S
C2750 C2749 1.392 . S
C2750 C2751 1.385 . S
C2750 C2752 1.478 . S
C2751 H2745 0.930 . S
C2751 C2747 1.400 . S
C2751 C2750 1.385 . S
C2752 C2750 1.478 . S
C2752 C2754 1.381 . S
C2752 C2758 1.383 . S
C2753 C2749 1.495 . S
C2753 H2759 0.959 . S
C2753 H2760 0.961 . S
C2753 H2761 0.960 . S
C2754 C2752 1.381 . S
C2754 C2755 1.394 . S
C2754 H2762 0.930 . S
C2755 C2754 1.394 . S
C2755 C2756 1.383 . S
C2755 H2763 0.929 . S
C2756 C2755 1.383 . S
C2756 C2757 1.377 . S
C2757 H2741 0.930 . S
C2757 C2756 1.377 . S
C2757 C2758 1.379 . S
C2758 H2742 0.931 . S
C2758 C2752 1.383 . S
C2758 C2757 1.379 . S
H2759 C2753 0.959 . S
H2760 C2753 0.961 . S
H2761 C2753 0.960 . S
H2762 C2754 0.930 . S
H2763 C2755 0.929 . S
H2764 C2772 0.929 . S
H2765 C2774 0.930 . S
H2766 C2776 0.930 . S
H2767 C2779 0.929 . S
H2768 C2782 0.930 . S
H2769 C2784 0.960 . S
H2770 C2784 0.960 . S
H2771 C2784 0.960 . S
C2772 H2764 0.929 . S
C2772 C2773 1.377 . S
C2772 C2774 1.384 . S
C2773 C2772 1.377 . S
C2773 C2779 1.390 . S
C2774 H2765 0.930 . S
C2774 C2772 1.384 . S
C2774 C2775 1.372 . S
C2775 C2774 1.372 . S
C2775 C2776 1.400 . S
C2775 C2780 1.490 . S
C2776 H2766 0.930 . S
C2776 C2775 1.400 . S
C2776 C2779 1.386 . S
H2777 C2793 0.930 . S
H2778 C2794 0.931 . S
C2779 H2767 0.929 . S
C2779 C2773 1.390 . S
C2779 C2776 1.386 . S
C2780 C2775 1.490 . S
C2780 C2782 1.395 . S
C2780 C2783 1.403 . S
H2781 C2787 0.930 . S
C2782 H2768 0.930 . S
C2782 C2780 1.395 . S
C2782 C2785 1.403 . S
C2783 C2780 1.403 . S
C2783 C2784 1.524 . S
C2783 C2787 1.400 . S
C2784 H2769 0.960 . S
C2784 H2770 0.960 . S
C2784 H2771 0.960 . S
C2784 C2783 1.524 . S
C2785 C2782 1.403 . S
C2785 C2786 1.392 . S
C2785 C2789 1.495 . S
C2786 C2785 1.392 . S
C2786 C2787 1.385 . S
C2786 C2788 1.478 . S
C2787 H2781 0.930 . S
C2787 C2783 1.400 . S
C2787 C2786 1.385 . S
C2788 C2786 1.478 . S
C2788 C2790 1.381 . S
C2788 C2794 1.383 . S
C2789 C2785 1.495 . S
C2789 H2795 0.959 . S
C2789 H2796 0.961 . S
C2789 H2797 0.960 . S
C2790 C2788 1.381 . S
C2790 C2791 1.394 . S
C2790 H2798 0.930 . S
C2791 C2790 1.394 . S
C2791 C2792 1.383 . S
C2791 H2799 0.929 . S
C2792 C2791 1.383 . S
C2792 C2793 1.377 . S
C2793 H2777 0.930 . S
C2793 C2792 1.377 . S
C2793 C2794 1.379 . S
C2794 H2778 0.931 . S
C2794 C2788 1.383 . S
C2794 C2793 1.379 . S
H2795 C2789 0.959 . S
H2796 C2789 0.961 . S
H2797 C2789 0.960 . S
H2798 C2790 0.930 . S
H2799 C2791 0.929 . S
H2800 C2808 0.929 . S
H2801 C2810 0.930 . S
H2802 C2812 0.930 . S
H2803 C2815 0.929 . S
H2804 C2818 0.930 . S
H2805 C2820 0.960 . S
H2806 C2820 0.960 . S
H2807 C2820 0.960 . S
C2808 H2800 0.929 . S
C2808 C2809 1.377 . S
C2808 C2810 1.384 . S
C2809 C2808 1.377 . S
C2809 C2815 1.390 . S
C2810 H2801 0.930 . S
C2810 C2808 1.384 . S
C2810 C2811 1.372 . S
C2811 C2810 1.372 . S
C2811 C2812 1.400 . S
C2811 C2816 1.490 . S
C2812 H2802 0.930 . S
C2812 C2811 1.400 . S
C2812 C2815 1.386 . S
H2813 C2829 0.930 . S
H2814 C2830 0.931 . S
C2815 H2803 0.929 . S
C2815 C2809 1.390 . S
C2815 C2812 1.386 . S
C2816 C2811 1.490 . S
C2816 C2818 1.395 . S
C2816 C2819 1.403 . S
H2817 C2823 0.930 . S
C2818 H2804 0.930 . S
C2818 C2816 1.395 . S
C2818 C2821 1.403 . S
C2819 C2816 1.403 . S
C2819 C2820 1.524 . S
C2819 C2823 1.400 . S
C2820 H2805 0.960 . S
C2820 H2806 0.960 . S
C2820 H2807 0.960 . S
C2820 C2819 1.524 . S
C2821 C2818 1.403 . S
C2821 C2822 1.392 . S
C2821 C2825 1.495 . S
C2822 C2821 1.392 . S
C2822 C2823 1.385 . S
C2822 C2824 1.478 . S
C2823 H2817 0.930 . S
C2823 C2819 1.400 . S
C2823 C2822 1.385 . S
C2824 C2822 1.478 . S
C2824 C2826 1.381 . S
C2824 C2830 1.383 . S
C2825 C2821 1.495 . S
C2825 H2831 0.959 . S
C2825 H2832 0.961 . S
C2825 H2833 0.960 . S
C2826 C2824 1.381 . S
C2826 C2827 1.394 . S
C2826 H2834 0.930 . S
C2827 C2826 1.394 . S
C2827 C2828 1.383 . S
C2827 H2835 0.929 . S
C2828 C2827 1.383 . S
C2828 C2829 1.377 . S
C2829 H2813 0.930 . S
C2829 C2828 1.377 . S
C2829 C2830 1.379 . S
C2830 H2814 0.931 . S
C2830 C2824 1.383 . S
C2830 C2829 1.379 . S
H2831 C2825 0.959 . S
H2832 C2825 0.961 . S
H2833 C2825 0.960 . S
H2834 C2826 0.930 . S
H2835 C2827 0.929 . S
H2836 C2844 0.929 . S
H2837 C2846 0.930 . S
H2838 C2848 0.930 . S
H2839 C2851 0.929 . S
H2840 C2854 0.930 . S
H2841 C2856 0.960 . S
H2842 C2856 0.960 . S
H2843 C2856 0.960 . S
C2844 H2836 0.929 . S
C2844 C2845 1.377 . S
C2844 C2846 1.384 . S
C2845 C2844 1.377 . S
C2845 C2851 1.390 . S
C2846 H2837 0.930 . S
C2846 C2844 1.384 . S
C2846 C2847 1.372 . S
C2847 C2846 1.372 . S
C2847 C2848 1.400 . S
C2847 C2852 1.490 . S
C2848 H2838 0.930 . S
C2848 C2847 1.400 . S
C2848 C2851 1.386 . S
H2849 C2865 0.930 . S
H2850 C2866 0.931 . S
C2851 H2839 0.929 . S
C2851 C2845 1.390 . S
C2851 C2848 1.386 . S
C2852 C2847 1.490 . S
C2852 C2854 1.395 . S
C2852 C2855 1.403 . S
H2853 C2859 0.930 . S
C2854 H2840 0.930 . S
C2854 C2852 1.395 . S
C2854 C2857 1.403 . S
C2855 C2852 1.403 . S
C2855 C2856 1.524 . S
C2855 C2859 1.400 . S
C2856 H2841 0.960 . S
C2856 H2842 0.960 . S
C2856 H2843 0.960 . S
C2856 C2855 1.524 . S
C2857 C2854 1.403 . S
C2857 C2858 1.392 . S
C2857 C2861 1.495 . S
C2858 C2857 1.392 . S
C2858 C2859 1.385 . S
C2858 C2860 1.478 . S
C2859 H2853 0.930 . S
C2859 C2855 1.400 . S
C2859 C2858 1.385 . S
C2860 C2858 1.478 . S
C2860 C2862 1.381 . S
C2860 C2866 1.383 . S
C2861 C2857 1.495 . S
C2861 H2867 0.959 . S
C2861 H2868 0.961 . S
C2861 H2869 0.960 . S
C2862 C2860 1.381 . S
C2862 C2863 1.394 . S
C2862 H2870 0.930 . S
C2863 C2862 1.394 . S
C2863 C2864 1.383 . S
C2863 H2871 0.929 . S
C2864 C2863 1.383 . S
C2864 C2865 1.377 . S
C2865 H2849 0.930 . S
C2865 C2864 1.377 . S
C2865 C2866 1.379 . S
C2866 H2850 0.931 . S
C2866 C2860 1.383 . S
C2866 C2865 1.379 . S
H2867 C2861 0.959 . S
H2868 C2861 0.961 . S
H2869 C2861 0.960 . S
H2870 C2862 0.930 . S
H2871 C2863 0.929 . S
H2872 C2880 0.929 . S
H2873 C2882 0.930 . S
H2874 C2884 0.930 . S
H2875 C2887 0.929 . S
H2876 C2890 0.930 . S
H2877 C2892 0.960 . S
H2878 C2892 0.960 . S
H2879 C2892 0.960 . S
C2880 H2872 0.929 . S
C2880 C2881 1.377 . S
C2880 C2882 1.384 . S
C2881 C2880 1.377 . S
C2881 C2887 1.390 . S
C2882 H2873 0.930 . S
C2882 C2880 1.384 . S
C2882 C2883 1.372 . S
C2883 C2882 1.372 . S
C2883 C2884 1.400 . S
C2883 C2888 1.490 . S
C2884 H2874 0.930 . S
C2884 C2883 1.400 . S
C2884 C2887 1.386 . S
H2885 C2901 0.930 . S
H2886 C2902 0.931 . S
C2887 H2875 0.929 . S
C2887 C2881 1.390 . S
C2887 C2884 1.386 . S
C2888 C2883 1.490 . S
C2888 C2890 1.395 . S
C2888 C2891 1.403 . S
H2889 C2895 0.930 . S
C2890 H2876 0.930 . S
C2890 C2888 1.395 . S
C2890 C2893 1.403 . S
C2891 C2888 1.403 . S
C2891 C2892 1.524 . S
C2891 C2895 1.400 . S
C2892 H2877 0.960 . S
C2892 H2878 0.960 . S
C2892 H2879 0.960 . S
C2892 C2891 1.524 . S
C2893 C2890 1.403 . S
C2893 C2894 1.392 . S
C2893 C2897 1.495 . S
C2894 C2893 1.392 . S
C2894 C2895 1.385 . S
C2894 C2896 1.478 . S
C2895 H2889 0.930 . S
C2895 C2891 1.400 . S
C2895 C2894 1.385 . S
C2896 C2894 1.478 . S
C2896 C2898 1.381 . S
C2896 C2902 1.383 . S
C2897 C2893 1.495 . S
C2897 H2903 0.959 . S
C2897 H2904 0.961 . S
C2897 H2905 0.960 . S
C2898 C2896 1.381 . S
C2898 C2899 1.394 . S
C2898 H2906 0.930 . S
C2899 C2898 1.394 . S
C2899 C2900 1.383 . S
C2899 H2907 0.929 . S
C2900 C2899 1.383 . S
C2900 C2901 1.377 . S
C2901 H2885 0.930 . S
C2901 C2900 1.377 . S
C2901 C2902 1.379 . S
C2902 H2886 0.931 . S
C2902 C2896 1.383 . S
C2902 C2901 1.379 . S
H2903 C2897 0.959 . S
H2904 C2897 0.961 . S
H2905 C2897 0.960 . S
H2906 C2898 0.930 . S
H2907 C2899 0.929 . S
H2908 C2916 0.929 . S
H2909 C2918 0.930 . S
H2910 C2920 0.930 . S
H2911 C2923 0.929 . S
H2912 C2926 0.930 . S
H2913 C2928 0.960 . S
H2914 C2928 0.960 . S
H2915 C2928 0.960 . S
C2916 H2908 0.929 . S
C2916 C2917 1.377 . S
C2916 C2918 1.384 . S
C2917 C2916 1.377 . S
C2917 C2923 1.390 . S
C2918 H2909 0.930 . S
C2918 C2916 1.384 . S
C2918 C2919 1.372 . S
C2919 C2918 1.372 . S
C2919 C2920 1.400 . S
C2919 C2924 1.490 . S
C2920 H2910 0.930 . S
C2920 C2919 1.400 . S
C2920 C2923 1.386 . S
H2921 C2937 0.930 . S
H2922 C2938 0.931 . S
C2923 H2911 0.929 . S
C2923 C2917 1.390 . S
C2923 C2920 1.386 . S
C2924 C2919 1.490 . S
C2924 C2926 1.395 . S
C2924 C2927 1.403 . S
H2925 C2931 0.930 . S
C2926 H2912 0.930 . S
C2926 C2924 1.395 . S
C2926 C2929 1.403 . S
C2927 C2924 1.403 . S
C2927 C2928 1.524 . S
C2927 C2931 1.400 . S
C2928 H2913 0.960 . S
C2928 H2914 0.960 . S
C2928 H2915 0.960 . S
C2928 C2927 1.524 . S
C2929 C2926 1.403 . S
C2929 C2930 1.392 . S
C2929 C2933 1.495 . S
C2930 C2929 1.392 . S
C2930 C2931 1.385 . S
C2930 C2932 1.478 . S
C2931 H2925 0.930 . S
C2931 C2927 1.400 . S
C2931 C2930 1.385 . S
C2932 C2930 1.478 . S
C2932 C2934 1.381 . S
C2932 C2938 1.383 . S
C2933 C2929 1.495 . S
C2933 H2939 0.959 . S
C2933 H2940 0.961 . S
C2933 H2941 0.960 . S
C2934 C2932 1.381 . S
C2934 C2935 1.394 . S
C2934 H2942 0.930 . S
C2935 C2934 1.394 . S
C2935 C2936 1.383 . S
C2935 H2943 0.929 . S
C2936 C2935 1.383 . S
C2936 C2937 1.377 . S
C2937 H2921 0.930 . S
C2937 C2936 1.377 . S
C2937 C2938 1.379 . S
C2938 H2922 0.931 . S
C2938 C2932 1.383 . S
C2938 C2937 1.379 . S
H2939 C2933 0.959 . S
H2940 C2933 0.961 . S
H2941 C2933 0.960 . S
H2942 C2934 0.930 . S
H2943 C2935 0.929 . S
H2944 C2952 0.929 . S
H2945 C2954 0.930 . S
H2946 C2956 0.930 . S
H2947 C2959 0.929 1_556 S
H2948 C2962 0.930 . S
H2949 C2964 0.960 . S
H2950 C2964 0.960 . S
H2951 C2964 0.960 . S
C2952 H2944 0.929 . S
C2952 C2953 1.377 1_565 S
C2952 C2954 1.384 . S
C2953 C2952 1.377 1_545 S
C2953 C2959 1.390 . S
C2954 H2945 0.930 . S
C2954 C2952 1.384 . S
C2954 C2955 1.372 1_564 S
C2955 C2954 1.372 1_546 S
C2955 C2956 1.400 . S
C2955 C2960 1.490 1_545 S
C2956 H2946 0.930 . S
C2956 C2955 1.400 . S
C2956 C2959 1.386 1_556 S
H2957 C2973 0.930 . S
H2958 C2974 0.931 . S
C2959 H2947 0.929 1_554 S
C2959 C2953 1.390 . S
C2959 C2956 1.386 1_554 S
C2960 C2955 1.490 1_565 S
C2960 C2962 1.392 1_565 S
C2960 C2963 1.405 . S
H2961 C2967 0.930 . S
C2962 H2948 0.930 . S
C2962 C2960 1.392 1_545 S
C2962 C2965 1.403 . S
C2963 C2960 1.405 . S
C2963 C2964 1.524 . S
C2963 C2967 1.400 . S
C2964 H2949 0.960 . S
C2964 H2950 0.960 . S
C2964 H2951 0.960 . S
C2964 C2963 1.524 . S
C2965 C2962 1.403 . S
C2965 C2966 1.417 . S
C2965 C2969 1.495 . S
C2966 C2965 1.417 . S
C2966 C2967 1.361 1_545 S
C2966 C2968 1.477 . S
C2967 H2961 0.930 . S
C2967 C2963 1.400 . S
C2967 C2966 1.361 1_565 S
C2968 C2966 1.477 . S
C2968 C2970 1.375 1_545 S
C2968 C2974 1.387 . S
C2969 C2965 1.495 . S
C2969 H2975 0.959 . S
C2969 H2976 0.961 . S
C2969 H2977 0.960 . S
C2970 C2968 1.375 1_565 S
C2970 C2971 1.394 . S
C2970 H2978 0.930 . S
C2971 C2970 1.394 . S
C2971 C2972 1.383 . S
C2971 H2979 0.929 . S
C2972 C2971 1.383 . S
C2972 C2973 1.377 1_565 S
C2973 H2957 0.930 . S
C2973 C2972 1.377 1_545 S
C2973 C2974 1.379 . S
C2974 H2958 0.931 . S
C2974 C2968 1.387 . S
C2974 C2973 1.379 . S
H2975 C2969 0.959 . S
H2976 C2969 0.961 . S
H2977 C2969 0.960 . S
H2978 C2970 0.930 . S
H2979 C2971 0.929 . S
H2980 C2988 0.929 . S
H2981 C2990 0.930 . S
H2982 C2992 0.930 . S
H2983 C2995 0.929 . S
H2984 C2998 0.930 . S
H2985 C3000 0.933 1_655 S
H2986 C3000 0.960 . S
H2987 C3000 0.960 . S
C2988 H2980 0.929 . S
C2988 C2989 1.377 . S
C2988 C2990 1.384 . S
C2989 C2988 1.377 . S
C2989 C2995 1.390 . S
C2990 H2981 0.930 . S
C2990 C2988 1.384 . S
C2990 C2991 1.372 . S
C2991 C2990 1.372 . S
C2991 C2992 1.400 . S
C2991 C2996 1.490 . S
C2992 H2982 0.930 . S
C2992 C2991 1.400 . S
C2992 C2995 1.386 . S
H2993 C3009 0.930 . S
H2994 C3010 0.931 . S
C2995 H2983 0.929 . S
C2995 C2989 1.390 . S
C2995 C2992 1.386 . S
C2996 C2991 1.490 . S
C2996 C2998 1.395 . S
C2996 C2999 1.403 . S
H2997 C3003 0.930 1_655 S
C2998 H2984 0.930 . S
C2998 C2996 1.395 . S
C2998 C3001 1.403 . S
C2999 C2996 1.403 . S
C2999 C3000 1.524 . S
C2999 C3003 1.400 . S
C3000 H2985 0.933 1_455 S
C3000 H2986 0.960 . S
C3000 H2987 0.960 . S
C3000 C2999 1.524 . S
C3001 C2998 1.403 . S
C3001 C3002 1.392 . S
C3001 C3005 1.495 . S
C3002 C3001 1.392 . S
C3002 C3003 1.385 . S
C3002 C3004 1.478 . S
C3003 H2997 0.930 1_455 S
C3003 C2999 1.400 . S
C3003 C3002 1.385 . S
C3004 C3002 1.478 . S
C3004 C3006 1.381 1_556 S
C3004 C3010 1.383 1_455 S
C3005 C3001 1.495 . S
C3005 H3011 0.959 . S
C3005 H3012 0.961 1_556 S
C3005 H3013 0.960 1_556 S
C3006 C3004 1.381 1_554 S
C3006 C3007 1.394 1_455 S
C3006 H3014 0.930 . S
C3007 C3006 1.394 1_655 S
C3007 C3008 1.383 . S
C3007 H3015 0.929 . S
C3008 C3007 1.383 . S
C3008 C3009 1.377 . S
C3009 H2993 0.930 . S
C3009 C3008 1.377 . S
C3009 C3010 1.379 1_554 S
C3010 H2994 0.931 . S
C3010 C3004 1.383 1_655 S
C3010 C3009 1.379 1_556 S
H3011 C3005 0.959 . S
H3012 C3005 0.961 1_554 S
H3013 C3005 0.960 1_554 S
H3014 C3006 0.930 . S
H3015 C3007 0.929 . S
H3016 C3024 0.929 . S
H3017 C3026 0.930 . S
H3018 C3028 0.930 . S
H3019 C3031 0.929 . S
H3020 C3034 0.930 . S
H3021 C3036 0.960 . S
H3022 C3036 0.960 . S
H3023 C3036 0.960 . S
C3024 H3016 0.929 . S
C3024 C3025 1.377 . S
C3024 C3026 1.384 . S
C3025 C3024 1.377 . S
C3025 C3031 1.390 . S
C3026 H3017 0.930 . S
C3026 C3024 1.384 . S
C3026 C3027 1.372 . S
C3027 C3026 1.372 . S
C3027 C3028 1.400 . S
C3027 C3032 1.490 . S
C3028 H3018 0.930 . S
C3028 C3027 1.400 . S
C3028 C3031 1.386 . S
H3029 C3045 0.930 . S
H3030 C3046 0.931 . S
C3031 H3019 0.929 . S
C3031 C3025 1.390 . S
C3031 C3028 1.386 . S
C3032 C3027 1.490 . S
C3032 C3034 1.395 . S
C3032 C3035 1.403 . S
H3033 C3039 0.930 . S
C3034 H3020 0.930 . S
C3034 C3032 1.395 . S
C3034 C3037 1.403 . S
C3035 C3032 1.403 . S
C3035 C3036 1.524 . S
C3035 C3039 1.400 . S
C3036 H3021 0.960 . S
C3036 H3022 0.960 . S
C3036 H3023 0.960 . S
C3036 C3035 1.524 . S
C3037 C3034 1.403 . S
C3037 C3038 1.392 . S
C3037 C3041 1.495 . S
C3038 C3037 1.392 . S
C3038 C3039 1.385 . S
C3038 C3040 1.478 . S
C3039 H3033 0.930 . S
C3039 C3035 1.400 . S
C3039 C3038 1.385 . S
C3040 C3038 1.478 . S
C3040 C3042 1.381 . S
C3040 C3046 1.383 . S
C3041 C3037 1.495 . S
C3041 H3047 0.959 . S
C3041 H3048 0.961 . S
C3041 H3049 0.960 . S
C3042 C3040 1.381 . S
C3042 C3043 1.394 . S
C3042 H3050 0.930 . S
C3043 C3042 1.394 . S
C3043 C3044 1.383 . S
C3043 H3051 0.929 . S
C3044 C3043 1.383 . S
C3044 C3045 1.377 . S
C3045 H3029 0.930 . S
C3045 C3044 1.377 . S
C3045 C3046 1.379 . S
C3046 H3030 0.931 . S
C3046 C3040 1.383 . S
C3046 C3045 1.379 . S
H3047 C3041 0.959 . S
H3048 C3041 0.961 . S
H3049 C3041 0.960 . S
H3050 C3042 0.930 . S
H3051 C3043 0.929 . S
H3052 C3060 0.929 . S
H3053 C3062 0.936 . S
H3054 C3064 0.930 . S
H3055 C3067 0.929 . S
H3056 C3070 0.930 . S
H3057 C3072 0.960 . S
H3058 C3072 0.960 . S
H3059 C3072 0.960 . S
C3060 H3052 0.929 . S
C3060 C3061 1.377 1_565 S
C3060 C3062 1.384 . S
C3061 C3060 1.377 1_545 S
C3061 C3067 1.390 . S
C3062 H3053 0.936 . S
C3062 C3060 1.384 . S
C3062 C3063 1.394 1_655 S
C3063 C3062 1.394 1_455 S
C3063 C3064 1.376 1_465 S
C3063 C3068 1.492 . S
C3064 H3054 0.930 . S
C3064 C3063 1.376 1_645 S
C3064 C3067 1.386 . S
H3065 C3081 0.930 . S
H3066 C3082 0.931 . S
C3067 H3055 0.929 . S
C3067 C3061 1.390 . S
C3067 C3064 1.386 . S
C3068 C3063 1.492 . S
C3068 C3070 1.395 . S
C3068 C3071 1.403 1_565 S
H3069 C3075 0.930 . S
C3070 H3056 0.930 . S
C3070 C3068 1.395 . S
C3070 C3073 1.403 . S
C3071 C3068 1.403 1_545 S
C3071 C3072 1.524 1_455 S
C3071 C3075 1.400 . S
C3072 H3057 0.960 . S
C3072 H3058 0.960 . S
C3072 H3059 0.960 . S
C3072 C3071 1.524 1_655 S
C3073 C3070 1.403 . S
C3073 C3074 1.392 . S
C3073 C3077 1.495 . S
C3074 C3073 1.392 . S
C3074 C3075 1.385 1_565 S
C3074 C3076 1.478 . S
C3075 H3069 0.930 . S
C3075 C3071 1.400 . S
C3075 C3074 1.385 1_545 S
C3076 C3074 1.478 . S
C3076 C3078 1.381 . S
C3076 C3082 1.383 1_565 S
C3077 C3073 1.495 . S
C3077 H3083 0.959 . S
C3077 H3084 0.961 . S
C3077 H3085 0.960 . S
C3078 C3076 1.381 . S
C3078 C3079 1.394 . S
C3078 H3086 0.930 . S
C3079 C3078 1.394 . S
C3079 C3080 1.383 . S
C3079 H3087 0.929 . S
C3080 C3079 1.383 . S
C3080 C3081 1.377 1_565 S
C3081 H3065 0.930 . S
C3081 C3080 1.377 1_545 S
C3081 C3082 1.379 . S
C3082 H3066 0.931 . S
C3082 C3076 1.383 1_545 S
C3082 C3081 1.379 . S
H3083 C3077 0.959 . S
H3084 C3077 0.961 . S
H3085 C3077 0.960 . S
H3086 C3078 0.930 . S
H3087 C3079 0.929 . S
H3088 C3096 0.929 . S
H3089 C3098 0.930 . S
H3090 C3100 0.930 . S
H3091 C3103 0.929 . S
H3092 C3106 0.930 . S
H3093 C3108 0.960 . S
H3094 C3108 0.960 . S
H3095 C3108 0.960 . S
C3096 H3088 0.929 . S
C3096 C3097 1.377 . S
C3096 C3098 1.384 . S
C3097 C3096 1.377 . S
C3097 C3103 1.390 1_545 S
C3098 H3089 0.930 . S
C3098 C3096 1.384 . S
C3098 C3099 1.372 . S
C3099 C3098 1.372 . S
C3099 C3100 1.400 1_545 S
C3099 C3104 1.490 . S
C3100 H3090 0.930 . S
C3100 C3099 1.400 1_565 S
C3100 C3103 1.386 . S
H3101 C3117 0.930 . S
H3102 C3118 0.931 . S
C3103 H3091 0.929 . S
C3103 C3097 1.390 1_565 S
C3103 C3100 1.386 . S
C3104 C3099 1.490 . S
C3104 C3106 1.395 . S
C3104 C3107 1.403 1_545 S
H3105 C3111 0.930 . S
C3106 H3092 0.930 . S
C3106 C3104 1.395 . S
C3106 C3109 1.403 . S
C3107 C3104 1.403 1_565 S
C3107 C3108 1.524 . S
C3107 C3111 1.400 . S
C3108 H3093 0.960 . S
C3108 H3094 0.960 . S
C3108 H3095 0.960 . S
C3108 C3107 1.524 . S
C3109 C3106 1.403 . S
C3109 C3110 1.392 . S
C3109 C3113 1.495 . S
C3110 C3109 1.392 . S
C3110 C3111 1.385 1_545 S
C3110 C3112 1.478 . S
C3111 H3105 0.930 . S
C3111 C3107 1.400 . S
C3111 C3110 1.385 1_565 S
C3112 C3110 1.478 . S
C3112 C3114 1.381 . S
C3112 C3118 1.383 1_544 S
C3113 C3109 1.495 . S
C3113 H3119 0.959 . S
C3113 H3120 0.961 . S
C3113 H3121 0.960 . S
C3114 C3112 1.381 . S
C3114 C3115 1.394 1_554 S
C3114 H3122 0.930 . S
C3115 C3114 1.394 1_556 S
C3115 C3116 1.361 1_545 S
C3115 H3123 0.929 . S
C3116 C3115 1.361 1_565 S
C3116 C3117 1.396 . S
C3117 H3101 0.930 . S
C3117 C3116 1.396 . S
C3117 C3118 1.379 . S
C3118 H3102 0.931 . S
C3118 C3112 1.383 1_566 S
C3118 C3117 1.379 . S
H3119 C3113 0.959 . S
H3120 C3113 0.961 . S
H3121 C3113 0.960 . S
H3122 C3114 0.930 . S
H3123 C3115 0.929 . S
H3124 C3132 0.929 . S
H3125 C3134 0.940 1_655 S
H3126 C3136 0.930 . S
H3127 C3139 0.929 . S
H3128 C3142 0.930 . S
H3129 C3144 0.960 . S
H3130 C3144 0.960 . S
H3131 C3144 0.960 . S
C3132 H3124 0.929 . S
C3132 C3133 1.377 . S
C3132 C3134 1.356 1_556 S
C3133 C3132 1.377 . S
C3133 C3139 1.390 . S
C3134 H3125 0.940 1_455 S
C3134 C3132 1.356 1_554 S
C3134 C3135 1.391 1_455 S
C3135 C3134 1.391 1_655 S
C3135 C3136 1.400 1_655 S
C3135 C3140 1.490 . S
C3136 H3126 0.930 . S
C3136 C3135 1.400 1_455 S
C3136 C3139 1.386 1_554 S
H3137 C3153 0.930 . S
H3138 C3154 0.931 . S
C3139 H3127 0.929 . S
C3139 C3133 1.390 . S
C3139 C3136 1.386 1_556 S
C3140 C3135 1.490 . S
C3140 C3142 1.395 . S
C3140 C3143 1.403 . S
H3141 C3147 0.930 . S
C3142 H3128 0.930 . S
C3142 C3140 1.395 . S
C3142 C3145 1.403 . S
C3143 C3140 1.403 . S
C3143 C3144 1.524 1_655 S
C3143 C3147 1.400 . S
C3144 H3129 0.960 . S
C3144 H3130 0.960 . S
C3144 H3131 0.960 . S
C3144 C3143 1.524 1_455 S
C3145 C3142 1.403 . S
C3145 C3146 1.392 . S
C3145 C3149 1.495 . S
C3146 C3145 1.392 . S
C3146 C3147 1.385 . S
C3146 C3148 1.478 . S
C3147 H3141 0.930 . S
C3147 C3143 1.400 . S
C3147 C3146 1.385 . S
C3148 C3146 1.478 . S
C3148 C3150 1.381 . S
C3148 C3154 1.383 . S
C3149 C3145 1.495 . S
C3149 H3155 0.959 . S
C3149 H3156 0.961 . S
C3149 H3157 0.960 . S
C3150 C3148 1.381 . S
C3150 C3151 1.394 . S
C3150 H3158 0.930 . S
C3151 C3150 1.394 . S
C3151 C3152 1.383 . S
C3151 H3159 0.929 . S
C3152 C3151 1.383 . S
C3152 C3153 1.377 . S
C3153 H3137 0.930 . S
C3153 C3152 1.377 . S
C3153 C3154 1.379 . S
C3154 H3138 0.931 . S
C3154 C3148 1.383 . S
C3154 C3153 1.379 . S
H3155 C3149 0.959 . S
H3156 C3149 0.961 . S
H3157 C3149 0.960 . S
H3158 C3150 0.930 . S
H3159 C3151 0.929 . S
H3160 C3168 0.929 . S
H3161 C3170 0.930 . S
H3162 C3172 0.930 . S
H3163 C3175 0.929 . S
H3164 C3178 0.930 . S
H3165 C3180 0.960 . S
H3166 C3180 0.960 . S
H3167 C3180 0.960 . S
C3168 H3160 0.929 . S
C3168 C3169 1.377 . S
C3168 C3170 1.384 . S
C3169 C3168 1.377 . S
C3169 C3175 1.390 . S
C3170 H3161 0.930 . S
C3170 C3168 1.384 . S
C3170 C3171 1.372 . S
C3171 C3170 1.372 . S
C3171 C3172 1.400 . S
C3171 C3176 1.490 . S
C3172 H3162 0.930 . S
C3172 C3171 1.400 . S
C3172 C3175 1.386 . S
H3173 C3189 0.930 . S
H3174 C3190 0.931 . S
C3175 H3163 0.929 . S
C3175 C3169 1.390 . S
C3175 C3172 1.386 . S
C3176 C3171 1.490 . S
C3176 C3178 1.395 . S
C3176 C3179 1.403 . S
H3177 C3183 0.930 . S
C3178 H3164 0.930 . S
C3178 C3176 1.395 . S
C3178 C3181 1.403 . S
C3179 C3176 1.403 . S
C3179 C3180 1.524 . S
C3179 C3183 1.400 . S
C3180 H3165 0.960 . S
C3180 H3166 0.960 . S
C3180 H3167 0.960 . S
C3180 C3179 1.524 . S
C3181 C3178 1.403 . S
C3181 C3182 1.392 . S
C3181 C3185 1.495 . S
C3182 C3181 1.392 . S
C3182 C3183 1.385 . S
C3182 C3184 1.478 . S
C3183 H3177 0.930 . S
C3183 C3179 1.400 . S
C3183 C3182 1.385 . S
C3184 C3182 1.478 . S
C3184 C3186 1.381 . S
C3184 C3190 1.383 . S
C3185 C3181 1.495 . S
C3185 H3191 0.959 . S
C3185 H3192 0.961 . S
C3185 H3193 0.960 . S
C3186 C3184 1.381 . S
C3186 C3187 1.394 . S
C3186 H3194 0.930 . S
C3187 C3186 1.394 . S
C3187 C3188 1.383 . S
C3187 H3195 0.929 . S
C3188 C3187 1.383 . S
C3188 C3189 1.377 . S
C3189 H3173 0.930 . S
C3189 C3188 1.377 . S
C3189 C3190 1.379 . S
C3190 H3174 0.931 . S
C3190 C3184 1.383 . S
C3190 C3189 1.379 . S
H3191 C3185 0.959 . S
H3192 C3185 0.961 . S
H3193 C3185 0.960 . S
H3194 C3186 0.930 . S
H3195 C3187 0.929 . S
H3196 C3204 0.929 . S
H3197 C3206 0.930 . S
H3198 C3208 0.930 . S
H3199 C3211 0.929 . S
H3200 C3214 0.930 . S
H3201 C3216 0.960 . S
H3202 C3216 0.960 . S
H3203 C3216 0.960 . S
C3204 H3196 0.929 . S
C3204 C3205 1.377 1_565 S
C3204 C3206 1.384 . S
C3205 C3204 1.377 1_545 S
C3205 C3211 1.390 . S
C3206 H3197 0.930 . S
C3206 C3204 1.384 . S
C3206 C3207 1.372 1_565 S
C3207 C3206 1.372 1_545 S
C3207 C3208 1.400 . S
C3207 C3212 1.490 . S
C3208 H3198 0.930 . S
C3208 C3207 1.400 . S
C3208 C3211 1.386 . S
H3209 C3225 0.930 . S
H3210 C3226 0.931 . S
C3211 H3199 0.929 . S
C3211 C3205 1.390 . S
C3211 C3208 1.386 . S
C3212 C3207 1.490 . S
C3212 C3214 1.391 1_545 S
C3212 C3215 1.406 . S
H3213 C3219 0.930 . S
C3214 H3200 0.930 . S
C3214 C3212 1.391 1_565 S
C3214 C3217 1.403 . S
C3215 C3212 1.406 . S
C3215 C3216 1.524 . S
C3215 C3219 1.400 . S
C3216 H3201 0.960 . S
C3216 H3202 0.960 . S
C3216 H3203 0.960 . S
C3216 C3215 1.524 . S
C3217 C3214 1.403 . S
C3217 C3218 1.392 . S
C3217 C3221 1.495 1_655 S
C3218 C3217 1.392 . S
C3218 C3219 1.385 1_565 S
C3218 C3220 1.478 1_655 S
C3219 H3213 0.930 . S
C3219 C3215 1.400 . S
C3219 C3218 1.385 1_545 S
C3220 C3218 1.478 1_455 S
C3220 C3222 1.381 . S
C3220 C3226 1.383 1_565 S
C3221 C3217 1.495 1_455 S
C3221 H3227 0.959 . S
C3221 H3228 0.961 . S
C3221 H3229 0.960 . S
C3222 C3220 1.381 . S
C3222 C3223 1.394 . S
C3222 H3230 0.921 1_455 S
C3223 C3222 1.394 . S
C3223 C3224 1.383 . S
C3223 H3231 0.929 . S
C3224 C3223 1.383 . S
C3224 C3225 1.377 1_565 S
C3225 H3209 0.930 . S
C3225 C3224 1.377 1_545 S
C3225 C3226 1.379 . S
C3226 H3210 0.931 . S
C3226 C3220 1.383 1_545 S
C3226 C3225 1.379 . S
H3227 C3221 0.959 . S
H3228 C3221 0.961 . S
H3229 C3221 0.960 . S
H3230 C3222 0.921 1_655 S
H3231 C3223 0.929 . S
H3232 C3240 0.929 . S
H3233 C3242 0.930 . S
H3234 C3244 0.930 . S
H3235 C3247 0.929 . S
H3236 C3250 0.930 . S
H3237 C3252 0.960 . S
H3238 C3252 0.960 . S
H3239 C3252 0.960 . S
C3240 H3232 0.929 . S
C3240 C3241 1.377 . S
C3240 C3242 1.384 . S
C3241 C3240 1.377 . S
C3241 C3247 1.390 . S
C3242 H3233 0.930 . S
C3242 C3240 1.384 . S
C3242 C3243 1.372 . S
C3243 C3242 1.372 . S
C3243 C3244 1.400 . S
C3243 C3248 1.490 . S
C3244 H3234 0.930 . S
C3244 C3243 1.400 . S
C3244 C3247 1.386 . S
H3245 C3261 0.930 . S
H3246 C3262 0.931 . S
C3247 H3235 0.929 . S
C3247 C3241 1.390 . S
C3247 C3244 1.386 . S
C3248 C3243 1.490 . S
C3248 C3250 1.395 . S
C3248 C3251 1.403 . S
H3249 C3255 0.930 . S
C3250 H3236 0.930 . S
C3250 C3248 1.395 . S
C3250 C3253 1.403 . S
C3251 C3248 1.403 . S
C3251 C3252 1.524 . S
C3251 C3255 1.400 . S
C3252 H3237 0.960 . S
C3252 H3238 0.960 . S
C3252 H3239 0.960 . S
C3252 C3251 1.524 . S
C3253 C3250 1.403 . S
C3253 C3254 1.392 . S
C3253 C3257 1.495 . S
C3254 C3253 1.392 . S
C3254 C3255 1.385 . S
C3254 C3256 1.478 . S
C3255 H3249 0.930 . S
C3255 C3251 1.400 . S
C3255 C3254 1.385 . S
C3256 C3254 1.478 . S
C3256 C3258 1.381 . S
C3256 C3262 1.383 . S
C3257 C3253 1.495 . S
C3257 H3263 0.959 . S
C3257 H3264 0.961 . S
C3257 H3265 0.960 . S
C3258 C3256 1.381 . S
C3258 C3259 1.394 . S
C3258 H3266 0.930 . S
C3259 C3258 1.394 . S
C3259 C3260 1.383 . S
C3259 H3267 0.929 . S
C3260 C3259 1.383 . S
C3260 C3261 1.377 . S
C3261 H3245 0.930 . S
C3261 C3260 1.377 . S
C3261 C3262 1.379 . S
C3262 H3246 0.931 . S
C3262 C3256 1.383 . S
C3262 C3261 1.379 . S
H3263 C3257 0.959 . S
H3264 C3257 0.961 . S
H3265 C3257 0.960 . S
H3266 C3258 0.930 . S
H3267 C3259 0.929 . S
H3268 C3276 0.929 . S
H3269 C3278 0.930 . S
H3270 C3280 0.930 . S
H3271 C3283 0.929 . S
H3272 C3286 0.930 . S
H3273 C3288 0.960 . S
H3274 C3288 0.960 . S
H3275 C3288 0.960 . S
C3276 H3268 0.929 . S
C3276 C3277 1.377 . S
C3276 C3278 1.384 . S
C3277 C3276 1.377 . S
C3277 C3283 1.390 . S
C3278 H3269 0.930 . S
C3278 C3276 1.384 . S
C3278 C3279 1.372 . S
C3279 C3278 1.372 . S
C3279 C3280 1.400 . S
C3279 C3284 1.490 . S
C3280 H3270 0.930 . S
C3280 C3279 1.400 . S
C3280 C3283 1.386 . S
H3281 C3297 0.930 . S
H3282 C3298 0.931 . S
C3283 H3271 0.929 . S
C3283 C3277 1.390 . S
C3283 C3280 1.386 . S
C3284 C3279 1.490 . S
C3284 C3286 1.395 . S
C3284 C3287 1.403 . S
H3285 C3291 0.930 . S
C3286 H3272 0.930 . S
C3286 C3284 1.395 . S
C3286 C3289 1.403 . S
C3287 C3284 1.403 . S
C3287 C3288 1.524 . S
C3287 C3291 1.400 . S
C3288 H3273 0.960 . S
C3288 H3274 0.960 . S
C3288 H3275 0.960 . S
C3288 C3287 1.524 . S
C3289 C3286 1.403 . S
C3289 C3290 1.392 . S
C3289 C3293 1.495 1_455 S
C3290 C3289 1.392 . S
C3290 C3291 1.385 . S
C3290 C3292 1.478 1_455 S
C3291 H3285 0.930 . S
C3291 C3287 1.400 . S
C3291 C3290 1.385 . S
C3292 C3290 1.478 1_655 S
C3292 C3294 1.381 . S
C3292 C3298 1.383 . S
C3293 C3289 1.495 1_655 S
C3293 H3299 0.959 . S
C3293 H3300 0.961 . S
C3293 H3301 0.960 . S
C3294 C3292 1.381 . S
C3294 C3295 1.394 . S
C3294 H3302 0.930 . S
C3295 C3294 1.394 . S
C3295 C3296 1.383 . S
C3295 H3303 0.929 . S
C3296 C3295 1.383 . S
C3296 C3297 1.377 . S
C3297 H3281 0.930 . S
C3297 C3296 1.377 . S
C3297 C3298 1.379 . S
C3298 H3282 0.931 . S
C3298 C3292 1.383 . S
C3298 C3297 1.379 . S
H3299 C3293 0.959 . S
H3300 C3293 0.961 . S
H3301 C3293 0.960 . S
H3302 C3294 0.930 . S
H3303 C3295 0.929 . S
H3304 C3312 0.929 . S
H3305 C3314 0.930 . S
H3306 C3316 0.930 . S
H3307 C3319 0.929 . S
H3308 C3322 0.930 . S
H3309 C3324 0.960 . S
H3310 C3324 0.960 . S
H3311 C3324 0.960 . S
C3312 H3304 0.929 . S
C3312 C3313 1.377 . S
C3312 C3314 1.384 . S
C3313 C3312 1.377 . S
C3313 C3319 1.390 . S
C3314 H3305 0.930 . S
C3314 C3312 1.384 . S
C3314 C3315 1.372 . S
C3315 C3314 1.372 . S
C3315 C3316 1.400 . S
C3315 C3320 1.490 . S
C3316 H3306 0.930 . S
C3316 C3315 1.400 . S
C3316 C3319 1.386 . S
H3317 C3333 0.930 . S
H3318 C3334 0.931 . S
C3319 H3307 0.929 . S
C3319 C3313 1.390 . S
C3319 C3316 1.386 . S
C3320 C3315 1.490 . S
C3320 C3322 1.395 . S
C3320 C3323 1.403 . S
H3321 C3327 0.930 . S
C3322 H3308 0.930 . S
C3322 C3320 1.395 . S
C3322 C3325 1.403 . S
C3323 C3320 1.403 . S
C3323 C3324 1.524 . S
C3323 C3327 1.400 . S
C3324 H3309 0.960 . S
C3324 H3310 0.960 . S
C3324 H3311 0.960 . S
C3324 C3323 1.524 . S
C3325 C3322 1.403 . S
C3325 C3326 1.392 . S
C3325 C3329 1.495 . S
C3326 C3325 1.392 . S
C3326 C3327 1.385 . S
C3326 C3328 1.478 . S
C3327 H3321 0.930 . S
C3327 C3323 1.400 . S
C3327 C3326 1.385 . S
C3328 C3326 1.478 . S
C3328 C3330 1.381 . S
C3328 C3334 1.383 . S
C3329 C3325 1.495 . S
C3329 H3335 0.959 . S
C3329 H3336 0.961 . S
C3329 H3337 0.960 . S
C3330 C3328 1.381 . S
C3330 C3331 1.394 . S
C3330 H3338 0.930 . S
C3331 C3330 1.394 . S
C3331 C3332 1.383 . S
C3331 H3339 0.929 . S
C3332 C3331 1.383 . S
C3332 C3333 1.377 . S
C3333 H3317 0.930 . S
C3333 C3332 1.377 . S
C3333 C3334 1.379 . S
C3334 H3318 0.931 . S
C3334 C3328 1.383 . S
C3334 C3333 1.379 . S
H3335 C3329 0.959 . S
H3336 C3329 0.961 . S
H3337 C3329 0.960 . S
H3338 C3330 0.930 . S
H3339 C3331 0.929 . S
H3340 C3348 0.929 . S
H3341 C3350 0.930 . S
H3342 C3352 0.930 . S
H3343 C3355 0.929 . S
H3344 C3358 0.930 . S
H3345 C3360 0.960 . S
H3346 C3360 0.960 . S
H3347 C3360 0.960 . S
C3348 H3340 0.929 . S
C3348 C3349 1.377 . S
C3348 C3350 1.384 . S
C3349 C3348 1.377 . S
C3349 C3355 1.390 . S
C3350 H3341 0.930 . S
C3350 C3348 1.384 . S
C3350 C3351 1.372 . S
C3351 C3350 1.372 . S
C3351 C3352 1.400 . S
C3351 C3356 1.490 . S
C3352 H3342 0.930 . S
C3352 C3351 1.400 . S
C3352 C3355 1.386 . S
H3353 C3369 0.930 . S
H3354 C3370 0.931 . S
C3355 H3343 0.929 . S
C3355 C3349 1.390 . S
C3355 C3352 1.386 . S
C3356 C3351 1.490 . S
C3356 C3358 1.395 . S
C3356 C3359 1.403 . S
H3357 C3363 0.930 . S
C3358 H3344 0.930 . S
C3358 C3356 1.395 . S
C3358 C3361 1.403 . S
C3359 C3356 1.403 . S
C3359 C3360 1.524 . S
C3359 C3363 1.400 . S
C3360 H3345 0.960 . S
C3360 H3346 0.960 . S
C3360 H3347 0.960 . S
C3360 C3359 1.524 . S
C3361 C3358 1.403 . S
C3361 C3362 1.392 . S
C3361 C3365 1.495 1_455 S
C3362 C3361 1.392 . S
C3362 C3363 1.385 . S
C3362 C3364 1.460 1_455 S
C3363 H3357 0.930 . S
C3363 C3359 1.400 . S
C3363 C3362 1.385 . S
C3364 C3362 1.460 1_655 S
C3364 C3366 1.407 . S
C3364 C3370 1.374 1_655 S
C3365 C3361 1.495 1_655 S
C3365 H3371 0.959 . S
C3365 H3372 0.961 . S
C3365 H3373 0.960 . S
C3366 C3364 1.407 . S
C3366 C3367 1.394 . S
C3366 H3374 0.930 . S
C3367 C3366 1.394 . S
C3367 C3368 1.383 . S
C3367 H3375 0.929 . S
C3368 C3367 1.383 . S
C3368 C3369 1.377 . S
C3369 H3353 0.930 . S
C3369 C3368 1.377 . S
C3369 C3370 1.379 1_655 S
C3370 H3354 0.931 . S
C3370 C3364 1.374 1_455 S
C3370 C3369 1.379 1_455 S
H3371 C3365 0.959 . S
H3372 C3365 0.961 . S
H3373 C3365 0.960 . S
H3374 C3366 0.930 . S
H3375 C3367 0.929 . S
H3376 C3384 0.929 . S
H3377 C3386 0.930 . S
H3378 C3388 0.930 . S
H3379 C3391 0.929 . S
H3380 C3394 0.930 . S
H3381 C3396 0.960 . S
H3382 C3396 0.960 . S
H3383 C3396 0.960 . S
C3384 H3376 0.929 . S
C3384 C3385 1.377 . S
C3384 C3386 1.384 . S
C3385 C3384 1.377 . S
C3385 C3391 1.390 . S
C3386 H3377 0.930 . S
C3386 C3384 1.384 . S
C3386 C3387 1.372 . S
C3387 C3386 1.372 . S
C3387 C3388 1.400 . S
C3387 C3392 1.490 . S
C3388 H3378 0.930 . S
C3388 C3387 1.400 . S
C3388 C3391 1.386 . S
H3389 C3405 0.930 . S
H3390 C3406 0.931 . S
C3391 H3379 0.929 . S
C3391 C3385 1.390 . S
C3391 C3388 1.386 . S
C3392 C3387 1.490 . S
C3392 C3394 1.395 . S
C3392 C3395 1.403 . S
H3393 C3399 0.930 . S
C3394 H3380 0.930 . S
C3394 C3392 1.395 . S
C3394 C3397 1.403 . S
C3395 C3392 1.403 . S
C3395 C3396 1.524 . S
C3395 C3399 1.400 . S
C3396 H3381 0.960 . S
C3396 H3382 0.960 . S
C3396 H3383 0.960 . S
C3396 C3395 1.524 . S
C3397 C3394 1.403 . S
C3397 C3398 1.392 . S
C3397 C3401 1.495 . S
C3398 C3397 1.392 . S
C3398 C3399 1.385 . S
C3398 C3400 1.478 . S
C3399 H3393 0.930 . S
C3399 C3395 1.400 . S
C3399 C3398 1.385 . S
C3400 C3398 1.478 . S
C3400 C3402 1.381 . S
C3400 C3406 1.383 . S
C3401 C3397 1.495 . S
C3401 H3407 0.959 . S
C3401 H3408 0.961 . S
C3401 H3409 0.960 . S
C3402 C3400 1.381 . S
C3402 C3403 1.394 . S
C3402 H3410 0.930 . S
C3403 C3402 1.394 . S
C3403 C3404 1.383 . S
C3403 H3411 0.929 . S
C3404 C3403 1.383 . S
C3404 C3405 1.377 . S
C3405 H3389 0.930 . S
C3405 C3404 1.377 . S
C3405 C3406 1.379 . S
C3406 H3390 0.931 . S
C3406 C3400 1.383 . S
C3406 C3405 1.379 . S
H3407 C3401 0.959 . S
H3408 C3401 0.961 . S
H3409 C3401 0.960 . S
H3410 C3402 0.930 . S
H3411 C3403 0.929 . S
H3412 C3420 0.929 . S
H3413 C3422 0.930 . S
H3414 C3424 0.930 . S
H3415 C3427 0.929 . S
H3416 C3430 0.930 . S
H3417 C3432 0.960 . S
H3418 C3432 0.960 . S
H3419 C3432 0.960 . S
C3420 H3412 0.929 . S
C3420 C3421 1.377 . S
C3420 C3422 1.384 1_455 S
C3421 C3420 1.377 . S
C3421 C3427 1.390 . S
C3422 H3413 0.930 . S
C3422 C3420 1.384 1_655 S
C3422 C3423 1.372 . S
C3423 C3422 1.372 . S
C3423 C3424 1.400 1_655 S
C3423 C3428 1.490 . S
C3424 H3414 0.930 . S
C3424 C3423 1.400 1_455 S
C3424 C3427 1.386 . S
H3425 C3441 0.930 . S
H3426 C3442 0.931 . S
C3427 H3415 0.929 . S
C3427 C3421 1.390 . S
C3427 C3424 1.386 . S
C3428 C3423 1.490 . S
C3428 C3430 1.395 . S
C3428 C3431 1.403 . S
H3429 C3435 0.930 . S
C3430 H3416 0.930 . S
C3430 C3428 1.395 . S
C3430 C3433 1.403 . S
C3431 C3428 1.403 . S
C3431 C3432 1.524 1_655 S
C3431 C3435 1.400 . S
C3432 H3417 0.960 . S
C3432 H3418 0.960 . S
C3432 H3419 0.960 . S
C3432 C3431 1.524 1_455 S
C3433 C3430 1.403 . S
C3433 C3434 1.392 . S
C3433 C3437 1.495 . S
C3434 C3433 1.392 . S
C3434 C3435 1.385 . S
C3434 C3436 1.478 . S
C3435 H3429 0.930 . S
C3435 C3431 1.400 . S
C3435 C3434 1.385 . S
C3436 C3434 1.478 . S
C3436 C3438 1.381 . S
C3436 C3442 1.383 . S
C3437 C3433 1.495 . S
C3437 H3443 0.959 . S
C3437 H3444 0.961 . S
C3437 H3445 0.960 . S
C3438 C3436 1.381 . S
C3438 C3439 1.394 . S
C3438 H3446 0.930 . S
C3439 C3438 1.394 . S
C3439 C3440 1.383 . S
C3439 H3447 0.929 . S
C3440 C3439 1.383 . S
C3440 C3441 1.377 . S
C3441 H3425 0.930 . S
C3441 C3440 1.377 . S
C3441 C3442 1.379 . S
C3442 H3426 0.931 . S
C3442 C3436 1.383 . S
C3442 C3441 1.379 . S
H3443 C3437 0.959 . S
H3444 C3437 0.961 . S
H3445 C3437 0.960 . S
H3446 C3438 0.930 . S
H3447 C3439 0.929 . S
H3448 C3456 0.929 . S
H3449 C3458 0.930 . S
H3450 C3460 0.930 . S
H3451 C3463 0.929 . S
H3452 C3466 0.930 . S
H3453 C3468 0.960 . S
H3454 C3468 0.960 . S
H3455 C3468 0.960 . S
C3456 H3448 0.929 . S
C3456 C3457 1.377 . S
C3456 C3458 1.384 . S
C3457 C3456 1.377 . S
C3457 C3463 1.390 . S
C3458 H3449 0.930 . S
C3458 C3456 1.384 . S
C3458 C3459 1.372 . S
C3459 C3458 1.372 . S
C3459 C3460 1.400 . S
C3459 C3464 1.490 . S
C3460 H3450 0.930 . S
C3460 C3459 1.400 . S
C3460 C3463 1.386 . S
H3461 C3477 0.930 . S
H3462 C3478 0.931 . S
C3463 H3451 0.929 . S
C3463 C3457 1.390 . S
C3463 C3460 1.386 . S
C3464 C3459 1.490 . S
C3464 C3466 1.395 . S
C3464 C3467 1.403 . S
H3465 C3471 0.930 . S
C3466 H3452 0.930 . S
C3466 C3464 1.395 . S
C3466 C3469 1.403 . S
C3467 C3464 1.403 . S
C3467 C3468 1.524 . S
C3467 C3471 1.400 . S
C3468 H3453 0.960 . S
C3468 H3454 0.960 . S
C3468 H3455 0.960 . S
C3468 C3467 1.524 . S
C3469 C3466 1.403 . S
C3469 C3470 1.392 . S
C3469 C3473 1.495 . S
C3470 C3469 1.392 . S
C3470 C3471 1.385 . S
C3470 C3472 1.478 . S
C3471 H3465 0.930 . S
C3471 C3467 1.400 . S
C3471 C3470 1.385 . S
C3472 C3470 1.478 . S
C3472 C3474 1.381 . S
C3472 C3478 1.383 . S
C3473 C3469 1.495 . S
C3473 H3479 0.959 . S
C3473 H3480 0.961 . S
C3473 H3481 0.960 . S
C3474 C3472 1.381 . S
C3474 C3475 1.394 . S
C3474 H3482 0.930 . S
C3475 C3474 1.394 . S
C3475 C3476 1.383 . S
C3475 H3483 0.929 . S
C3476 C3475 1.383 . S
C3476 C3477 1.377 . S
C3477 H3461 0.930 . S
C3477 C3476 1.377 . S
C3477 C3478 1.379 . S
C3478 H3462 0.931 . S
C3478 C3472 1.383 . S
C3478 C3477 1.379 . S
H3479 C3473 0.959 . S
H3480 C3473 0.961 . S
H3481 C3473 0.960 . S
H3482 C3474 0.930 . S
H3483 C3475 0.929 . S
H3484 C3492 0.929 . S
H3485 C3494 0.930 . S
H3486 C3496 0.930 . S
H3487 C3499 0.929 . S
H3488 C3502 0.930 . S
H3489 C3504 0.960 . S
H3490 C3504 0.960 . S
H3491 C3504 0.960 . S
C3492 H3484 0.929 . S
C3492 C3493 1.377 . S
C3492 C3494 1.384 . S
C3493 C3492 1.377 . S
C3493 C3499 1.390 . S
C3494 H3485 0.930 . S
C3494 C3492 1.384 . S
C3494 C3495 1.372 . S
C3495 C3494 1.372 . S
C3495 C3496 1.400 . S
C3495 C3500 1.490 . S
C3496 H3486 0.930 . S
C3496 C3495 1.400 . S
C3496 C3499 1.386 . S
H3497 C3513 0.930 . S
H3498 C3514 0.931 1_655 S
C3499 H3487 0.929 . S
C3499 C3493 1.390 . S
C3499 C3496 1.386 . S
C3500 C3495 1.490 . S
C3500 C3502 1.395 . S
C3500 C3503 1.403 . S
H3501 C3507 0.930 1_455 S
C3502 H3488 0.930 . S
C3502 C3500 1.395 . S
C3502 C3505 1.403 . S
C3503 C3500 1.403 . S
C3503 C3504 1.524 . S
C3503 C3507 1.400 . S
C3504 H3489 0.960 . S
C3504 H3490 0.960 . S
C3504 H3491 0.960 . S
C3504 C3503 1.524 . S
C3505 C3502 1.403 . S
C3505 C3506 1.392 . S
C3505 C3509 1.495 . S
C3506 C3505 1.392 . S
C3506 C3507 1.385 . S
C3506 C3508 1.478 . S
C3507 H3501 0.930 1_655 S
C3507 C3503 1.400 . S
C3507 C3506 1.385 . S
C3508 C3506 1.478 . S
C3508 C3510 1.381 1_655 S
C3508 C3514 1.383 1_655 S
C3509 C3505 1.495 . S
C3509 H3515 0.959 . S
C3509 H3516 0.961 . S
C3509 H3517 0.960 . S
C3510 C3508 1.381 1_455 S
C3510 C3511 1.394 . S
C3510 H3518 0.930 1_455 S
C3511 C3510 1.394 . S
C3511 C3512 1.383 . S
C3511 H3519 0.929 . S
C3512 C3511 1.383 . S
C3512 C3513 1.377 . S
C3513 H3497 0.930 . S
C3513 C3512 1.377 . S
C3513 C3514 1.379 . S
C3514 H3498 0.931 1_455 S
C3514 C3508 1.383 1_455 S
C3514 C3513 1.379 . S
H3515 C3509 0.959 . S
H3516 C3509 0.961 . S
H3517 C3509 0.960 . S
H3518 C3510 0.930 1_655 S
H3519 C3511 0.929 . S
H3520 C3528 0.929 . S
H3521 C3530 0.930 . S
H3522 C3532 0.930 . S
H3523 C3535 0.929 . S
H3524 C3538 0.930 . S
H3525 C3540 0.960 . S
H3526 C3540 0.960 . S
H3527 C3540 0.960 . S
C3528 H3520 0.929 . S
C3528 C3529 1.377 1_565 S
C3528 C3530 1.384 . S
C3529 C3528 1.377 1_545 S
C3529 C3535 1.390 . S
C3530 H3521 0.930 . S
C3530 C3528 1.384 . S
C3530 C3531 1.372 . S
C3531 C3530 1.372 . S
C3531 C3532 1.399 1_565 S
C3531 C3536 1.490 . S
C3532 H3522 0.930 . S
C3532 C3531 1.399 1_545 S
C3532 C3535 1.386 . S
H3533 C3549 0.930 . S
H3534 C3550 0.931 . S
C3535 H3523 0.929 . S
C3535 C3529 1.390 . S
C3535 C3532 1.386 . S
C3536 C3531 1.490 . S
C3536 C3538 1.395 . S
C3536 C3539 1.403 1_565 S
H3537 C3543 0.930 . S
C3538 H3524 0.930 . S
C3538 C3536 1.395 . S
C3538 C3541 1.403 . S
C3539 C3536 1.403 1_545 S
C3539 C3540 1.524 . S
C3539 C3543 1.400 . S
C3540 H3525 0.960 . S
C3540 H3526 0.960 . S
C3540 H3527 0.960 . S
C3540 C3539 1.524 . S
C3541 C3538 1.403 . S
C3541 C3542 1.392 . S
C3541 C3545 1.495 . S
C3542 C3541 1.392 . S
C3542 C3543 1.385 1_565 S
C3542 C3544 1.478 . S
C3543 H3537 0.930 . S
C3543 C3539 1.400 . S
C3543 C3542 1.385 1_545 S
C3544 C3542 1.478 . S
C3544 C3546 1.381 . S
C3544 C3550 1.383 1_565 S
C3545 C3541 1.495 . S
C3545 H3551 0.959 . S
C3545 H3552 0.961 . S
C3545 H3553 0.960 . S
C3546 C3544 1.381 . S
C3546 C3547 1.394 . S
C3546 H3554 0.930 . S
C3547 C3546 1.394 . S
C3547 C3548 1.383 . S
C3547 H3555 0.929 . S
C3548 C3547 1.383 . S
C3548 C3549 1.377 1_565 S
C3549 H3533 0.930 . S
C3549 C3548 1.377 1_545 S
C3549 C3550 1.379 . S
C3550 H3534 0.931 . S
C3550 C3544 1.383 1_545 S
C3550 C3549 1.379 . S
H3551 C3545 0.959 . S
H3552 C3545 0.961 . S
H3553 C3545 0.960 . S
H3554 C3546 0.930 . S
H3555 C3547 0.929 . S
H3556 C3564 0.929 . S
H3557 C3566 0.930 . S
H3558 C3568 0.930 . S
H3559 C3571 0.929 . S
H3560 C3574 0.930 . S
H3561 C3576 0.960 . S
H3562 C3576 0.960 . S
H3563 C3576 0.960 . S
C3564 H3556 0.929 . S
C3564 C3565 1.377 . S
C3564 C3566 1.384 . S
C3565 C3564 1.377 . S
C3565 C3571 1.390 . S
C3566 H3557 0.930 . S
C3566 C3564 1.384 . S
C3566 C3567 1.372 . S
C3567 C3566 1.372 . S
C3567 C3568 1.400 . S
C3567 C3572 1.490 . S
C3568 H3558 0.930 . S
C3568 C3567 1.400 . S
C3568 C3571 1.386 . S
H3569 C3585 0.930 . S
H3570 C3586 0.931 . S
C3571 H3559 0.929 . S
C3571 C3565 1.390 . S
C3571 C3568 1.386 . S
C3572 C3567 1.490 . S
C3572 C3574 1.395 . S
C3572 C3575 1.403 . S
H3573 C3579 0.930 . S
C3574 H3560 0.930 . S
C3574 C3572 1.395 . S
C3574 C3577 1.403 . S
C3575 C3572 1.403 . S
C3575 C3576 1.524 . S
C3575 C3579 1.400 . S
C3576 H3561 0.960 . S
C3576 H3562 0.960 . S
C3576 H3563 0.960 . S
C3576 C3575 1.524 . S
C3577 C3574 1.403 . S
C3577 C3578 1.392 . S
C3577 C3581 1.495 . S
C3578 C3577 1.392 . S
C3578 C3579 1.385 . S
C3578 C3580 1.478 . S
C3579 H3573 0.930 . S
C3579 C3575 1.400 . S
C3579 C3578 1.385 . S
C3580 C3578 1.478 . S
C3580 C3582 1.381 . S
C3580 C3586 1.383 . S
C3581 C3577 1.495 . S
C3581 H3587 0.959 . S
C3581 H3588 0.961 . S
C3581 H3589 0.960 . S
C3582 C3580 1.381 . S
C3582 C3583 1.394 . S
C3582 H3590 0.930 . S
C3583 C3582 1.394 . S
C3583 C3584 1.383 . S
C3583 H3591 0.929 . S
C3584 C3583 1.383 . S
C3584 C3585 1.377 . S
C3585 H3569 0.930 . S
C3585 C3584 1.377 . S
C3585 C3586 1.379 . S
C3586 H3570 0.931 . S
C3586 C3580 1.383 . S
C3586 C3585 1.379 . S
H3587 C3581 0.959 . S
H3588 C3581 0.961 . S
H3589 C3581 0.960 . S
H3590 C3582 0.930 . S
H3591 C3583 0.929 . S
H3592 C3600 0.929 . S
H3593 C3602 0.930 . S
H3594 C3604 0.930 . S
H3595 C3607 0.929 . S
H3596 C3610 0.930 . S
H3597 C3612 0.960 . S
H3598 C3612 0.960 . S
H3599 C3612 0.960 . S
C3600 H3592 0.929 . S
C3600 C3601 1.377 . S
C3600 C3602 1.384 . S
C3601 C3600 1.377 . S
C3601 C3607 1.390 . S
C3602 H3593 0.930 . S
C3602 C3600 1.384 . S
C3602 C3603 1.372 . S
C3603 C3602 1.372 . S
C3603 C3604 1.400 . S
C3603 C3608 1.490 . S
C3604 H3594 0.930 . S
C3604 C3603 1.400 . S
C3604 C3607 1.386 . S
H3605 C3621 0.930 . S
H3606 C3622 0.931 . S
C3607 H3595 0.929 . S
C3607 C3601 1.390 . S
C3607 C3604 1.386 . S
C3608 C3603 1.490 . S
C3608 C3610 1.395 . S
C3608 C3611 1.403 . S
H3609 C3615 0.930 . S
C3610 H3596 0.930 . S
C3610 C3608 1.395 . S
C3610 C3613 1.403 . S
C3611 C3608 1.403 . S
C3611 C3612 1.524 . S
C3611 C3615 1.400 . S
C3612 H3597 0.960 . S
C3612 H3598 0.960 . S
C3612 H3599 0.960 . S
C3612 C3611 1.524 . S
C3613 C3610 1.403 . S
C3613 C3614 1.392 . S
C3613 C3617 1.495 . S
C3614 C3613 1.392 . S
C3614 C3615 1.385 . S
C3614 C3616 1.478 . S
C3615 H3609 0.930 . S
C3615 C3611 1.400 . S
C3615 C3614 1.385 . S
C3616 C3614 1.478 . S
C3616 C3618 1.381 . S
C3616 C3622 1.383 . S
C3617 C3613 1.495 . S
C3617 H3623 0.959 . S
C3617 H3624 0.961 . S
C3617 H3625 0.960 . S
C3618 C3616 1.381 . S
C3618 C3619 1.394 . S
C3618 H3626 0.930 . S
C3619 C3618 1.394 . S
C3619 C3620 1.383 . S
C3619 H3627 0.929 . S
C3620 C3619 1.383 . S
C3620 C3621 1.377 . S
C3621 H3605 0.930 . S
C3621 C3620 1.377 . S
C3621 C3622 1.379 . S
C3622 H3606 0.931 . S
C3622 C3616 1.383 . S
C3622 C3621 1.379 . S
H3623 C3617 0.959 . S
H3624 C3617 0.961 . S
H3625 C3617 0.960 . S
H3626 C3618 0.930 . S
H3627 C3619 0.929 . S
H3628 C3636 0.929 . S
H3629 C3638 0.930 . S
H3630 C3640 0.930 . S
H3631 C3643 0.929 . S
H3632 C3646 0.930 . S
H3633 C3648 0.960 . S
H3634 C3648 0.960 . S
H3635 C3648 0.960 . S
C3636 H3628 0.929 . S
C3636 C3637 1.377 . S
C3636 C3638 1.384 . S
C3637 C3636 1.377 . S
C3637 C3643 1.390 1_545 S
C3638 H3629 0.930 . S
C3638 C3636 1.384 . S
C3638 C3639 1.372 . S
C3639 C3638 1.372 . S
C3639 C3640 1.400 1_545 S
C3639 C3644 1.490 . S
C3640 H3630 0.930 . S
C3640 C3639 1.400 1_565 S
C3640 C3643 1.386 . S
H3641 C3657 0.930 . S
H3642 C3658 0.931 . S
C3643 H3631 0.929 . S
C3643 C3637 1.390 1_565 S
C3643 C3640 1.386 . S
C3644 C3639 1.490 . S
C3644 C3646 1.395 . S
C3644 C3647 1.403 1_545 S
H3645 C3651 0.930 . S
C3646 H3632 0.930 . S
C3646 C3644 1.395 . S
C3646 C3649 1.403 . S
C3647 C3644 1.403 1_565 S
C3647 C3648 1.524 . S
C3647 C3651 1.400 . S
C3648 H3633 0.960 . S
C3648 H3634 0.960 . S
C3648 H3635 0.960 . S
C3648 C3647 1.524 . S
C3649 C3646 1.403 . S
C3649 C3650 1.400 . S
C3649 C3653 1.495 . S
C3650 C3649 1.400 . S
C3650 C3651 1.378 1_545 S
C3650 C3652 1.475 1_545 S
C3651 H3645 0.930 . S
C3651 C3647 1.400 . S
C3651 C3650 1.378 1_565 S
C3652 C3650 1.475 1_565 S
C3652 C3654 1.342 1_565 S
C3652 C3658 1.425 . S
C3653 C3649 1.495 . S
C3653 H3659 0.959 . S
C3653 H3660 0.961 . S
C3653 H3661 0.960 . S
C3654 C3652 1.342 1_545 S
C3654 C3655 1.394 . S
C3654 H3662 0.930 . S
C3655 C3654 1.394 . S
C3655 C3656 1.383 1_545 S
C3655 H3663 0.929 . S
C3656 C3655 1.383 1_565 S
C3656 C3657 1.377 . S
C3657 H3641 0.930 . S
C3657 C3656 1.377 . S
C3657 C3658 1.379 . S
C3658 H3642 0.931 . S
C3658 C3652 1.425 . S
C3658 C3657 1.379 . S
H3659 C3653 0.959 . S
H3660 C3653 0.961 . S
H3661 C3653 0.960 . S
H3662 C3654 0.930 . S
H3663 C3655 0.929 . S
H3664 C3672 0.929 . S
H3665 C3674 0.930 . S
H3666 C3676 0.930 . S
H3667 C3679 0.929 . S
H3668 C3682 0.930 . S
H3669 C3684 0.960 . S
H3670 C3684 0.960 . S
H3671 C3684 0.935 1_565 S
C3672 H3664 0.929 . S
C3672 C3673 1.377 1_545 S
C3672 C3674 1.384 . S
C3673 C3672 1.377 1_565 S
C3673 C3679 1.390 . S
C3674 H3665 0.930 . S
C3674 C3672 1.384 . S
C3674 C3675 1.382 . S
C3675 C3674 1.382 . S
C3675 C3676 1.389 1_545 S
C3675 C3680 1.489 . S
C3676 H3666 0.930 . S
C3676 C3675 1.389 1_565 S
C3676 C3679 1.386 . S
H3677 C3693 0.930 . S
H3678 C3694 0.931 . S
C3679 H3667 0.929 . S
C3679 C3673 1.390 . S
C3679 C3676 1.386 . S
C3680 C3675 1.489 . S
C3680 C3682 1.386 1_545 S
C3680 C3683 1.416 . S
H3681 C3687 0.930 . S
C3682 H3668 0.930 . S
C3682 C3680 1.386 1_565 S
C3682 C3685 1.403 . S
C3683 C3680 1.416 . S
C3683 C3684 1.524 . S
C3683 C3687 1.400 . S
C3684 H3669 0.960 . S
C3684 H3670 0.960 . S
C3684 H3671 0.935 1_545 S
C3684 C3683 1.524 . S
C3685 C3682 1.403 . S
C3685 C3686 1.392 1_565 S
C3685 C3689 1.495 . S
C3686 C3685 1.392 1_545 S
C3686 C3687 1.385 . S
C3686 C3688 1.478 . S
C3687 H3681 0.930 . S
C3687 C3683 1.400 . S
C3687 C3686 1.385 . S
C3688 C3686 1.478 . S
C3688 C3690 1.381 . S
C3688 C3694 1.383 1_545 S
C3689 C3685 1.495 . S
C3689 H3695 0.959 . S
C3689 H3696 0.961 . S
C3689 H3697 0.960 1_565 S
C3690 C3688 1.381 . S
C3690 C3691 1.394 . S
C3690 H3698 0.930 . S
C3691 C3690 1.394 . S
C3691 C3692 1.383 . S
C3691 H3699 0.929 . S
C3692 C3691 1.383 . S
C3692 C3693 1.377 1_545 S
C3693 H3677 0.930 . S
C3693 C3692 1.377 1_565 S
C3693 C3694 1.379 . S
C3694 H3678 0.931 . S
C3694 C3688 1.383 1_565 S
C3694 C3693 1.379 . S
H3695 C3689 0.959 . S
H3696 C3689 0.961 . S
H3697 C3689 0.960 1_545 S
H3698 C3690 0.930 . S
H3699 C3691 0.929 . S
H3700 C3708 0.929 . S
H3701 C3710 0.930 . S
H3702 C3712 0.930 . S
H3703 C3715 0.929 . S
H3704 C3718 0.930 . S
H3705 C3720 0.960 . S
H3706 C3720 0.960 . S
H3707 C3720 0.960 . S
C3708 H3700 0.929 . S
C3708 C3709 1.377 . S
C3708 C3710 1.384 . S
C3709 C3708 1.377 . S
C3709 C3715 1.390 . S
C3710 H3701 0.930 . S
C3710 C3708 1.384 . S
C3710 C3711 1.372 . S
C3711 C3710 1.372 . S
C3711 C3712 1.400 . S
C3711 C3716 1.490 . S
C3712 H3702 0.930 . S
C3712 C3711 1.400 . S
C3712 C3715 1.386 . S
H3713 C3729 0.930 . S
H3714 C3730 0.931 . S
C3715 H3703 0.929 . S
C3715 C3709 1.390 . S
C3715 C3712 1.386 . S
C3716 C3711 1.490 . S
C3716 C3718 1.395 . S
C3716 C3719 1.403 . S
H3717 C3723 0.930 . S
C3718 H3704 0.930 . S
C3718 C3716 1.395 . S
C3718 C3721 1.403 . S
C3719 C3716 1.403 . S
C3719 C3720 1.524 . S
C3719 C3723 1.400 . S
C3720 H3705 0.960 . S
C3720 H3706 0.960 . S
C3720 H3707 0.960 . S
C3720 C3719 1.524 . S
C3721 C3718 1.403 . S
C3721 C3722 1.392 . S
C3721 C3725 1.495 . S
C3722 C3721 1.392 . S
C3722 C3723 1.385 . S
C3722 C3724 1.478 . S
C3723 H3717 0.930 . S
C3723 C3719 1.400 . S
C3723 C3722 1.385 . S
C3724 C3722 1.478 . S
C3724 C3726 1.381 . S
C3724 C3730 1.383 . S
C3725 C3721 1.495 . S
C3725 H3731 0.959 . S
C3725 H3732 0.961 . S
C3725 H3733 0.960 . S
C3726 C3724 1.381 . S
C3726 C3727 1.394 . S
C3726 H3734 0.930 . S
C3727 C3726 1.394 . S
C3727 C3728 1.383 . S
C3727 H3735 0.929 . S
C3728 C3727 1.383 . S
C3728 C3729 1.377 . S
C3729 H3713 0.930 . S
C3729 C3728 1.377 . S
C3729 C3730 1.379 . S
C3730 H3714 0.931 . S
C3730 C3724 1.383 . S
C3730 C3729 1.379 . S
H3731 C3725 0.959 . S
H3732 C3725 0.961 . S
H3733 C3725 0.960 . S
H3734 C3726 0.930 . S
H3735 C3727 0.929 . S
H3736 C3744 0.929 . S
H3737 C3746 0.930 . S
H3738 C3748 0.930 . S
H3739 C3751 0.929 . S
H3740 C3754 0.930 . S
H3741 C3756 0.960 . S
H3742 C3756 0.960 . S
H3743 C3756 0.960 . S
C3744 H3736 0.929 . S
C3744 C3745 1.377 . S
C3744 C3746 1.384 . S
C3745 C3744 1.377 . S
C3745 C3751 1.390 . S
C3746 H3737 0.930 . S
C3746 C3744 1.384 . S
C3746 C3747 1.372 . S
C3747 C3746 1.372 . S
C3747 C3748 1.400 . S
C3747 C3752 1.490 . S
C3748 H3738 0.930 . S
C3748 C3747 1.400 . S
C3748 C3751 1.386 . S
H3749 C3765 0.930 . S
H3750 C3766 0.931 . S
C3751 H3739 0.929 . S
C3751 C3745 1.390 . S
C3751 C3748 1.386 . S
C3752 C3747 1.490 . S
C3752 C3754 1.395 . S
C3752 C3755 1.403 . S
H3753 C3759 0.930 . S
C3754 H3740 0.930 . S
C3754 C3752 1.395 . S
C3754 C3757 1.403 . S
C3755 C3752 1.403 . S
C3755 C3756 1.524 . S
C3755 C3759 1.400 . S
C3756 H3741 0.960 . S
C3756 H3742 0.960 . S
C3756 H3743 0.960 . S
C3756 C3755 1.524 . S
C3757 C3754 1.403 . S
C3757 C3758 1.392 . S
C3757 C3761 1.495 . S
C3758 C3757 1.392 . S
C3758 C3759 1.385 . S
C3758 C3760 1.478 . S
C3759 H3753 0.930 . S
C3759 C3755 1.400 . S
C3759 C3758 1.385 . S
C3760 C3758 1.478 . S
C3760 C3762 1.381 . S
C3760 C3766 1.383 . S
C3761 C3757 1.495 . S
C3761 H3767 0.959 . S
C3761 H3768 0.961 . S
C3761 H3769 0.960 . S
C3762 C3760 1.381 . S
C3762 C3763 1.394 . S
C3762 H3770 0.930 . S
C3763 C3762 1.394 . S
C3763 C3764 1.383 . S
C3763 H3771 0.929 . S
C3764 C3763 1.383 . S
C3764 C3765 1.377 . S
C3765 H3749 0.930 . S
C3765 C3764 1.377 . S
C3765 C3766 1.379 . S
C3766 H3750 0.931 . S
C3766 C3760 1.383 . S
C3766 C3765 1.379 . S
H3767 C3761 0.959 . S
H3768 C3761 0.961 . S
H3769 C3761 0.960 . S
H3770 C3762 0.930 . S
H3771 C3763 0.929 . S
H3772 C3780 0.929 . S
H3773 C3782 0.930 . S
H3774 C3784 0.930 . S
H3775 C3787 0.929 . S
H3776 C3790 0.930 . S
H3777 C3792 0.960 . S
H3778 C3792 0.960 . S
H3779 C3792 0.960 . S
C3780 H3772 0.929 . S
C3780 C3781 1.377 1_545 S
C3780 C3782 1.384 . S
C3781 C3780 1.377 1_565 S
C3781 C3787 1.390 . S
C3782 H3773 0.930 . S
C3782 C3780 1.384 . S
C3782 C3783 1.373 . S
C3783 C3782 1.373 . S
C3783 C3784 1.398 1_545 S
C3783 C3788 1.490 . S
C3784 H3774 0.930 . S
C3784 C3783 1.398 1_565 S
C3784 C3787 1.386 . S
H3785 C3801 0.930 . S
H3786 C3802 0.931 . S
C3787 H3775 0.929 . S
C3787 C3781 1.390 . S
C3787 C3784 1.386 . S
C3788 C3783 1.490 . S
C3788 C3790 1.381 1_545 S
C3788 C3791 1.417 . S
H3789 C3795 0.930 . S
C3790 H3776 0.930 . S
C3790 C3788 1.381 1_565 S
C3790 C3793 1.403 . S
C3791 C3788 1.417 . S
C3791 C3792 1.524 . S
C3791 C3795 1.400 . S
C3792 H3777 0.960 . S
C3792 H3778 0.960 . S
C3792 H3779 0.960 . S
C3792 C3791 1.524 . S
C3793 C3790 1.403 . S
C3793 C3794 1.388 1_565 S
C3793 C3797 1.495 . S
C3794 C3793 1.388 1_545 S
C3794 C3795 1.389 . S
C3794 C3796 1.477 . S
C3795 H3789 0.930 . S
C3795 C3791 1.400 . S
C3795 C3794 1.389 . S
C3796 C3794 1.477 . S
C3796 C3798 1.397 . S
C3796 C3802 1.368 1_545 S
C3797 C3793 1.495 . S
C3797 H3803 0.959 . S
C3797 H3804 0.961 . S
C3797 H3805 0.960 . S
C3798 C3796 1.397 . S
C3798 C3799 1.394 . S
C3798 H3806 0.930 . S
C3799 C3798 1.394 . S
C3799 C3800 1.383 . S
C3799 H3807 0.929 . S
C3800 C3799 1.383 . S
C3800 C3801 1.377 1_545 S
C3801 H3785 0.930 . S
C3801 C3800 1.377 1_565 S
C3801 C3802 1.379 . S
C3802 H3786 0.931 . S
C3802 C3796 1.368 1_565 S
C3802 C3801 1.379 . S
H3803 C3797 0.959 . S
H3804 C3797 0.961 . S
H3805 C3797 0.960 . S
H3806 C3798 0.930 . S
H3807 C3799 0.929 . S
H3808 C3816 0.929 . S
H3809 C3818 0.930 . S
H3810 C3820 0.930 . S
H3811 C3823 0.929 . S
H3812 C3826 0.930 . S
H3813 C3828 0.960 . S
H3814 C3828 0.960 . S
H3815 C3828 0.960 . S
C3816 H3808 0.929 . S
C3816 C3817 1.377 . S
C3816 C3818 1.384 . S
C3817 C3816 1.377 . S
C3817 C3823 1.390 . S
C3818 H3809 0.930 . S
C3818 C3816 1.384 . S
C3818 C3819 1.372 . S
C3819 C3818 1.372 . S
C3819 C3820 1.400 . S
C3819 C3824 1.490 . S
C3820 H3810 0.930 . S
C3820 C3819 1.400 . S
C3820 C3823 1.386 . S
H3821 C3837 0.930 . S
H3822 C3838 0.931 . S
C3823 H3811 0.929 . S
C3823 C3817 1.390 . S
C3823 C3820 1.386 . S
C3824 C3819 1.490 . S
C3824 C3826 1.395 . S
C3824 C3827 1.403 . S
H3825 C3831 0.930 . S
C3826 H3812 0.930 . S
C3826 C3824 1.395 . S
C3826 C3829 1.403 . S
C3827 C3824 1.403 . S
C3827 C3828 1.524 . S
C3827 C3831 1.400 . S
C3828 H3813 0.960 . S
C3828 H3814 0.960 . S
C3828 H3815 0.960 . S
C3828 C3827 1.524 . S
C3829 C3826 1.403 . S
C3829 C3830 1.392 . S
C3829 C3833 1.495 . S
C3830 C3829 1.392 . S
C3830 C3831 1.385 . S
C3830 C3832 1.478 . S
C3831 H3825 0.930 . S
C3831 C3827 1.400 . S
C3831 C3830 1.385 . S
C3832 C3830 1.478 . S
C3832 C3834 1.397 . S
C3832 C3838 1.383 . S
C3833 C3829 1.495 . S
C3833 H3839 0.959 . S
C3833 H3840 0.961 1_556 S
C3833 H3841 0.959 . S
C3834 C3832 1.397 . S
C3834 C3835 1.365 1_556 S
C3834 H3842 0.945 . S
C3835 C3834 1.365 1_554 S
C3835 C3836 1.383 . S
C3835 H3843 0.929 . S
C3836 C3835 1.383 . S
C3836 C3837 1.377 . S
C3837 H3821 0.930 . S
C3837 C3836 1.377 . S
C3837 C3838 1.379 1_554 S
C3838 H3822 0.931 . S
C3838 C3832 1.383 . S
C3838 C3837 1.379 1_556 S
H3839 C3833 0.959 . S
H3840 C3833 0.961 1_554 S
H3841 C3833 0.959 . S
H3842 C3834 0.945 . S
H3843 C3835 0.929 . S
H3844 C3852 0.929 . S
H3845 C3854 0.930 . S
H3846 C3856 0.930 . S
H3847 C3859 0.929 . S
H3848 C3862 0.930 . S
H3849 C3864 0.960 . S
H3850 C3864 0.960 . S
H3851 C3864 0.960 . S
C3852 H3844 0.929 . S
C3852 C3853 1.377 . S
C3852 C3854 1.384 . S
C3853 C3852 1.377 . S
C3853 C3859 1.390 . S
C3854 H3845 0.930 . S
C3854 C3852 1.384 . S
C3854 C3855 1.372 . S
C3855 C3854 1.372 . S
C3855 C3856 1.400 . S
C3855 C3860 1.490 . S
C3856 H3846 0.930 . S
C3856 C3855 1.400 . S
C3856 C3859 1.386 . S
H3857 C3873 0.930 . S
H3858 C3874 0.931 . S
C3859 H3847 0.929 . S
C3859 C3853 1.390 . S
C3859 C3856 1.386 . S
C3860 C3855 1.490 . S
C3860 C3862 1.395 . S
C3860 C3863 1.403 . S
H3861 C3867 0.930 . S
C3862 H3848 0.930 . S
C3862 C3860 1.395 . S
C3862 C3865 1.403 . S
C3863 C3860 1.403 . S
C3863 C3864 1.524 . S
C3863 C3867 1.400 . S
C3864 H3849 0.960 . S
C3864 H3850 0.960 . S
C3864 H3851 0.960 . S
C3864 C3863 1.524 . S
C3865 C3862 1.403 . S
C3865 C3866 1.392 . S
C3865 C3869 1.495 . S
C3866 C3865 1.392 . S
C3866 C3867 1.385 . S
C3866 C3868 1.478 . S
C3867 H3861 0.930 . S
C3867 C3863 1.400 . S
C3867 C3866 1.385 . S
C3868 C3866 1.478 . S
C3868 C3870 1.381 . S
C3868 C3874 1.383 1_556 S
C3869 C3865 1.495 . S
C3869 H3875 0.959 . S
C3869 H3876 0.961 . S
C3869 H3877 0.960 . S
C3870 C3868 1.381 . S
C3870 C3871 1.394 1_556 S
C3870 H3878 0.930 . S
C3871 C3870 1.394 1_554 S
C3871 C3872 1.383 . S
C3871 H3879 0.929 . S
C3872 C3871 1.383 . S
C3872 C3873 1.377 . S
C3873 H3857 0.930 . S
C3873 C3872 1.377 . S
C3873 C3874 1.379 . S
C3874 H3858 0.931 . S
C3874 C3868 1.383 1_554 S
C3874 C3873 1.379 . S
H3875 C3869 0.959 . S
H3876 C3869 0.961 . S
H3877 C3869 0.960 . S
H3878 C3870 0.930 . S
H3879 C3871 0.929 . S
H3880 C3888 0.929 . S
H3881 C3890 0.930 . S
H3882 C3892 0.930 . S
H3883 C3895 0.929 . S
H3884 C3898 0.930 . S
H3885 C3900 0.960 . S
H3886 C3900 0.960 . S
H3887 C3900 0.960 . S
C3888 H3880 0.929 . S
C3888 C3889 1.377 . S
C3888 C3890 1.384 . S
C3889 C3888 1.377 . S
C3889 C3895 1.390 . S
C3890 H3881 0.930 . S
C3890 C3888 1.384 . S
C3890 C3891 1.372 . S
C3891 C3890 1.372 . S
C3891 C3892 1.400 . S
C3891 C3896 1.490 . S
C3892 H3882 0.930 . S
C3892 C3891 1.400 . S
C3892 C3895 1.386 . S
H3893 C3909 0.930 . S
H3894 C3910 0.931 . S
C3895 H3883 0.929 . S
C3895 C3889 1.390 . S
C3895 C3892 1.386 . S
C3896 C3891 1.490 . S
C3896 C3898 1.395 . S
C3896 C3899 1.403 . S
H3897 C3903 0.930 . S
C3898 H3884 0.930 . S
C3898 C3896 1.395 . S
C3898 C3901 1.403 . S
C3899 C3896 1.403 . S
C3899 C3900 1.524 . S
C3899 C3903 1.400 . S
C3900 H3885 0.960 . S
C3900 H3886 0.960 . S
C3900 H3887 0.960 . S
C3900 C3899 1.524 . S
C3901 C3898 1.403 . S
C3901 C3902 1.392 . S
C3901 C3905 1.495 . S
C3902 C3901 1.392 . S
C3902 C3903 1.385 . S
C3902 C3904 1.478 . S
C3903 H3897 0.930 . S
C3903 C3899 1.400 . S
C3903 C3902 1.385 . S
C3904 C3902 1.478 . S
C3904 C3906 1.381 . S
C3904 C3910 1.383 . S
C3905 C3901 1.495 . S
C3905 H3911 0.959 . S
C3905 H3912 0.961 . S
C3905 H3913 0.960 . S
C3906 C3904 1.381 . S
C3906 C3907 1.394 . S
C3906 H3914 0.930 . S
C3907 C3906 1.394 . S
C3907 C3908 1.383 . S
C3907 H3915 0.929 . S
C3908 C3907 1.383 . S
C3908 C3909 1.377 . S
C3909 H3893 0.930 . S
C3909 C3908 1.377 . S
C3909 C3910 1.379 . S
C3910 H3894 0.931 . S
C3910 C3904 1.383 . S
C3910 C3909 1.379 . S
H3911 C3905 0.959 . S
H3912 C3905 0.961 . S
H3913 C3905 0.960 . S
H3914 C3906 0.930 . S
H3915 C3907 0.929 . S
H3916 C3924 0.929 . S
H3917 C3926 0.930 . S
H3918 C3928 0.930 . S
H3919 C3931 0.929 . S
H3920 C3934 0.930 . S
H3921 C3936 0.960 . S
H3922 C3936 0.960 . S
H3923 C3936 0.960 . S
C3924 H3916 0.929 . S
C3924 C3925 1.377 . S
C3924 C3926 1.384 . S
C3925 C3924 1.377 . S
C3925 C3931 1.390 . S
C3926 H3917 0.930 . S
C3926 C3924 1.384 . S
C3926 C3927 1.372 . S
C3927 C3926 1.372 . S
C3927 C3928 1.400 . S
C3927 C3932 1.490 . S
C3928 H3918 0.930 . S
C3928 C3927 1.400 . S
C3928 C3931 1.386 . S
H3929 C3945 0.930 . S
H3930 C3946 0.931 . S
C3931 H3919 0.929 . S
C3931 C3925 1.390 . S
C3931 C3928 1.386 . S
C3932 C3927 1.490 . S
C3932 C3934 1.395 . S
C3932 C3935 1.403 . S
H3933 C3939 0.930 . S
C3934 H3920 0.930 . S
C3934 C3932 1.395 . S
C3934 C3937 1.403 . S
C3935 C3932 1.403 . S
C3935 C3936 1.524 . S
C3935 C3939 1.400 . S
C3936 H3921 0.960 . S
C3936 H3922 0.960 . S
C3936 H3923 0.960 . S
C3936 C3935 1.524 . S
C3937 C3934 1.403 . S
C3937 C3938 1.392 . S
C3937 C3941 1.495 . S
C3938 C3937 1.392 . S
C3938 C3939 1.385 . S
C3938 C3940 1.478 . S
C3939 H3933 0.930 . S
C3939 C3935 1.400 . S
C3939 C3938 1.385 . S
C3940 C3938 1.478 . S
C3940 C3942 1.381 . S
C3940 C3946 1.383 . S
C3941 C3937 1.495 . S
C3941 H3947 0.959 . S
C3941 H3948 0.961 . S
C3941 H3949 0.960 . S
C3942 C3940 1.381 . S
C3942 C3943 1.394 . S
C3942 H3950 0.930 . S
C3943 C3942 1.394 . S
C3943 C3944 1.383 . S
C3943 H3951 0.929 . S
C3944 C3943 1.383 . S
C3944 C3945 1.377 . S
C3945 H3929 0.930 . S
C3945 C3944 1.377 . S
C3945 C3946 1.379 . S
C3946 H3930 0.931 . S
C3946 C3940 1.383 . S
C3946 C3945 1.379 . S
H3947 C3941 0.959 . S
H3948 C3941 0.961 . S
H3949 C3941 0.960 . S
H3950 C3942 0.930 . S
H3951 C3943 0.929 . S
H3952 C3960 0.929 . S
H3953 C3962 0.930 . S
H3954 C3964 0.930 . S
H3955 C3967 0.929 . S
H3956 C3970 0.930 . S
H3957 C3972 0.960 . S
H3958 C3972 0.960 . S
H3959 C3972 0.960 . S
C3960 H3952 0.929 . S
C3960 C3961 1.377 . S
C3960 C3962 1.384 . S
C3961 C3960 1.377 . S
C3961 C3967 1.390 . S
C3962 H3953 0.930 . S
C3962 C3960 1.384 . S
C3962 C3963 1.372 . S
C3963 C3962 1.372 . S
C3963 C3964 1.400 . S
C3963 C3968 1.490 . S
C3964 H3954 0.930 . S
C3964 C3963 1.400 . S
C3964 C3967 1.386 . S
H3965 C3981 0.930 . S
H3966 C3982 0.931 . S
C3967 H3955 0.929 . S
C3967 C3961 1.390 . S
C3967 C3964 1.386 . S
C3968 C3963 1.490 . S
C3968 C3970 1.395 . S
C3968 C3971 1.403 . S
H3969 C3975 0.930 . S
C3970 H3956 0.930 . S
C3970 C3968 1.395 . S
C3970 C3973 1.403 . S
C3971 C3968 1.403 . S
C3971 C3972 1.524 . S
C3971 C3975 1.400 . S
C3972 H3957 0.960 . S
C3972 H3958 0.960 . S
C3972 H3959 0.960 . S
C3972 C3971 1.524 . S
C3973 C3970 1.403 . S
C3973 C3974 1.392 . S
C3973 C3977 1.495 . S
C3974 C3973 1.392 . S
C3974 C3975 1.385 . S
C3974 C3976 1.478 . S
C3975 H3969 0.930 . S
C3975 C3971 1.400 . S
C3975 C3974 1.385 . S
C3976 C3974 1.478 . S
C3976 C3978 1.381 . S
C3976 C3982 1.383 . S
C3977 C3973 1.495 . S
C3977 H3983 0.959 . S
C3977 H3984 0.961 . S
C3977 H3985 0.960 . S
C3978 C3976 1.381 . S
C3978 C3979 1.394 1_554 S
C3978 H3986 0.930 . S
C3979 C3978 1.394 1_556 S
C3979 C3980 1.383 . S
C3979 H3987 0.929 . S
C3980 C3979 1.383 . S
C3980 C3981 1.377 . S
C3981 H3965 0.930 . S
C3981 C3980 1.377 . S
C3981 C3982 1.380 1_556 S
C3982 H3966 0.931 . S
C3982 C3976 1.383 . S
C3982 C3981 1.380 1_554 S
H3983 C3977 0.959 . S
H3984 C3977 0.961 . S
H3985 C3977 0.960 . S
H3986 C3978 0.930 . S
H3987 C3979 0.929 . S
H3988 C3996 0.929 . S
H3989 C3998 0.930 . S
H3990 C4000 0.930 . S
H3991 C4003 0.929 . S
H3992 C4006 0.930 . S
H3993 C4008 0.960 . S
H3994 C4008 0.960 . S
H3995 C4008 0.960 . S
C3996 H3988 0.929 . S
C3996 C3997 1.377 . S
C3996 C3998 1.384 . S
C3997 C3996 1.377 . S
C3997 C4003 1.390 . S
C3998 H3989 0.930 . S
C3998 C3996 1.384 . S
C3998 C3999 1.372 . S
C3999 C3998 1.372 . S
C3999 C4000 1.400 . S
C3999 C4004 1.490 . S
C4000 H3990 0.930 . S
C4000 C3999 1.400 . S
C4000 C4003 1.386 . S
H4001 C4017 0.930 . S
H4002 C4018 0.931 . S
C4003 H3991 0.929 . S
C4003 C3997 1.390 . S
C4003 C4000 1.386 . S
C4004 C3999 1.490 . S
C4004 C4006 1.395 . S
C4004 C4007 1.403 . S
H4005 C4011 0.930 . S
C4006 H3992 0.930 . S
C4006 C4004 1.395 . S
C4006 C4009 1.403 . S
C4007 C4004 1.403 . S
C4007 C4008 1.524 . S
C4007 C4011 1.400 . S
C4008 H3993 0.960 . S
C4008 H3994 0.960 . S
C4008 H3995 0.960 . S
C4008 C4007 1.524 . S
C4009 C4006 1.403 . S
C4009 C4010 1.392 . S
C4009 C4013 1.495 . S
C4010 C4009 1.392 . S
C4010 C4011 1.385 . S
C4010 C4012 1.478 . S
C4011 H4005 0.930 . S
C4011 C4007 1.400 . S
C4011 C4010 1.385 . S
C4012 C4010 1.478 . S
C4012 C4014 1.381 . S
C4012 C4018 1.383 1_554 S
C4013 C4009 1.495 . S
C4013 H4019 0.959 . S
C4013 H4020 0.961 . S
C4013 H4021 0.960 . S
C4014 C4012 1.381 . S
C4014 C4015 1.394 1_554 S
C4014 H4022 0.930 . S
C4015 C4014 1.394 1_556 S
C4015 C4016 1.383 . S
C4015 H4023 0.929 . S
C4016 C4015 1.383 . S
C4016 C4017 1.377 . S
C4017 H4001 0.930 . S
C4017 C4016 1.377 . S
C4017 C4018 1.379 . S
C4018 H4002 0.931 . S
C4018 C4012 1.383 1_556 S
C4018 C4017 1.379 . S
H4019 C4013 0.959 . S
H4020 C4013 0.961 . S
H4021 C4013 0.960 . S
H4022 C4014 0.930 . S
H4023 C4015 0.929 . S
H4024 C4032 0.929 . S
H4025 C4034 0.930 . S
H4026 C4036 0.930 . S
H4027 C4039 0.929 . S
H4028 C4042 0.930 . S
H4029 C4044 0.960 . S
H4030 C4044 0.960 . S
H4031 C4044 0.960 . S
C4032 H4024 0.929 . S
C4032 C4033 1.377 . S
C4032 C4034 1.384 . S
C4033 C4032 1.377 . S
C4033 C4039 1.390 . S
C4034 H4025 0.930 . S
C4034 C4032 1.384 . S
C4034 C4035 1.372 . S
C4035 C4034 1.372 . S
C4035 C4036 1.400 . S
C4035 C4040 1.490 . S
C4036 H4026 0.930 . S
C4036 C4035 1.400 . S
C4036 C4039 1.386 . S
H4037 C4053 0.930 . S
H4038 C4054 0.931 . S
C4039 H4027 0.929 . S
C4039 C4033 1.390 . S
C4039 C4036 1.386 . S
C4040 C4035 1.490 . S
C4040 C4042 1.395 . S
C4040 C4043 1.403 . S
H4041 C4047 0.930 . S
C4042 H4028 0.930 . S
C4042 C4040 1.395 . S
C4042 C4045 1.403 . S
C4043 C4040 1.403 . S
C4043 C4044 1.524 . S
C4043 C4047 1.400 . S
C4044 H4029 0.960 . S
C4044 H4030 0.960 . S
C4044 H4031 0.960 . S
C4044 C4043 1.524 . S
C4045 C4042 1.403 . S
C4045 C4046 1.392 . S
C4045 C4049 1.495 . S
C4046 C4045 1.392 . S
C4046 C4047 1.385 . S
C4046 C4048 1.478 . S
C4047 H4041 0.930 . S
C4047 C4043 1.400 . S
C4047 C4046 1.385 . S
C4048 C4046 1.478 . S
C4048 C4050 1.381 . S
C4048 C4054 1.383 . S
C4049 C4045 1.495 . S
C4049 H4055 0.959 . S
C4049 H4056 0.961 . S
C4049 H4057 0.960 . S
C4050 C4048 1.381 . S
C4050 C4051 1.394 . S
C4050 H4058 0.930 . S
C4051 C4050 1.394 . S
C4051 C4052 1.383 . S
C4051 H4059 0.929 . S
C4052 C4051 1.383 . S
C4052 C4053 1.377 . S
C4053 H4037 0.930 . S
C4053 C4052 1.377 . S
C4053 C4054 1.379 . S
C4054 H4038 0.931 . S
C4054 C4048 1.383 . S
C4054 C4053 1.379 . S
H4055 C4049 0.959 . S
H4056 C4049 0.961 . S
H4057 C4049 0.960 . S
H4058 C4050 0.930 . S
H4059 C4051 0.929 . S
H4060 C4068 0.929 . S
H4061 C4070 0.930 . S
H4062 C4072 0.930 . S
H4063 C4075 0.929 . S
H4064 C4078 0.930 . S
H4065 C4080 0.960 . S
H4066 C4080 0.960 . S
H4067 C4080 0.960 . S
C4068 H4060 0.929 . S
C4068 C4069 1.377 . S
C4068 C4070 1.384 . S
C4069 C4068 1.377 . S
C4069 C4075 1.390 . S
C4070 H4061 0.930 . S
C4070 C4068 1.384 . S
C4070 C4071 1.372 . S
C4071 C4070 1.372 . S
C4071 C4072 1.400 . S
C4071 C4076 1.490 . S
C4072 H4062 0.930 . S
C4072 C4071 1.400 . S
C4072 C4075 1.386 . S
H4073 C4089 0.930 . S
H4074 C4090 0.931 . S
C4075 H4063 0.929 . S
C4075 C4069 1.390 . S
C4075 C4072 1.386 . S
C4076 C4071 1.490 . S
C4076 C4078 1.395 . S
C4076 C4079 1.403 . S
H4077 C4083 0.930 . S
C4078 H4064 0.930 . S
C4078 C4076 1.395 . S
C4078 C4081 1.403 . S
C4079 C4076 1.403 . S
C4079 C4080 1.524 . S
C4079 C4083 1.400 . S
C4080 H4065 0.960 . S
C4080 H4066 0.960 . S
C4080 H4067 0.960 . S
C4080 C4079 1.524 . S
C4081 C4078 1.403 . S
C4081 C4082 1.392 . S
C4081 C4085 1.495 . S
C4082 C4081 1.392 . S
C4082 C4083 1.385 . S
C4082 C4084 1.478 . S
C4083 H4077 0.930 . S
C4083 C4079 1.400 . S
C4083 C4082 1.385 . S
C4084 C4082 1.478 . S
C4084 C4086 1.381 . S
C4084 C4090 1.383 . S
C4085 C4081 1.495 . S
C4085 H4091 0.959 . S
C4085 H4092 0.961 . S
C4085 H4093 0.960 . S
C4086 C4084 1.381 . S
C4086 C4087 1.394 . S
C4086 H4094 0.930 . S
C4087 C4086 1.394 . S
C4087 C4088 1.383 . S
C4087 H4095 0.929 . S
C4088 C4087 1.383 . S
C4088 C4089 1.377 . S
C4089 H4073 0.930 . S
C4089 C4088 1.377 . S
C4089 C4090 1.379 . S
C4090 H4074 0.931 . S
C4090 C4084 1.383 . S
C4090 C4089 1.379 . S
H4091 C4085 0.959 . S
H4092 C4085 0.961 . S
H4093 C4085 0.960 . S
H4094 C4086 0.930 . S
H4095 C4087 0.929 . S
C649 C509 1.726 . S
C668 C9 1.734 . S
C685 C489 1.726 . S
C704 C29 1.740 . S
C721 C549 1.733 . S
C740 C49 1.706 . S
C757 C529 1.732 . S
C776 C69 1.711 . S
C793 C88 1.725 . S
C812 C588 1.725 . S
C829 C108 1.725 . S
C848 C568 1.723 . S
C865 C128 1.732 . S
C884 C628 1.723 . S
C901 C608 1.732 . S
C920 C148 1.724 . S
C937 C349 1.729 . S
C956 C169 1.718 . S
C973 C329 1.727 . S
C992 C189 1.736 . S
C1009 C389 1.727 . S
C1028 C209 1.737 . S
C1045 C369 1.732 . S
C1064 C229 1.711 . S
C1081 C248 1.731 . S
C1100 C428 1.714 . S
C1117 C408 1.730 . S
C1136 C268 1.744 . S
C1153 C288 1.727 . S
C1172 C468 1.736 . S
C1189 C448 1.733 . S
C1208 C308 1.731 . S
C1225 C1 0.964 . S
C1244 C402 0.929 . S
C1261 C262 0.961 . S
C1280 C21 0.933 . S
C1297 C602 0.962 . S
C1316 C41 0.930 . S
C1333 C61 0.970 . S
C1352 C142 0.945 . S
C1369 C82 0.973 . S
C1388 C321 0.938 . S
C1405 C102 0.975 . S
C1424 C181 0.986 . S
C1441 C122 0.972 . S
C1460 C521 0.953 . S
C1477 C562 0.965 . S
C1496 C161 0.930 . S
C1513 C442 0.973 . S
C1532 C201 0.999 . S
C1549 C302 0.971 . S
C1568 C221 1.001 . S
C1585 C481 0.968 . S
C1604 C242 0.999 . S
C1621 C282 0.970 . S
C1640 C361 0.941 . S
C1657 C582 0.971 . S
C1676 C341 1.002 . S
C1693 C381 0.974 . S
C1712 C462 0.973 . S
C1729 C501 0.974 . S
C1748 C422 0.990 . S
C1765 C541 0.971 . S
C1784 C622 1.001 . S
C1801 C2 1.698 1_556 S
C1820 C382 1.697 . S
C1837 C22 1.698 1_556 S
C1856 C362 1.697 . S
C1873 C42 1.699 . S
C1892 C342 1.694 . S
C1909 C62 1.698 . S
C1928 C322 1.694 . S
C1945 C81 1.699 1_554 S
C1964 C461 1.698 . S
C1981 C101 1.698 1_554 S
C2000 C441 1.693 . S
C2017 C121 1.698 . S
C2036 C421 1.692 . S
C2053 C141 1.698 . S
C2072 C401 1.694 . S
C2089 C162 1.699 . S
C2108 C542 1.692 . S
C2125 C182 1.698 . S
C2144 C522 1.698 . S
C2161 C202 1.698 . S
C2180 C502 1.696 1_556 S
C2197 C222 1.698 . S
C2216 C482 1.697 1_556 S
C2233 C621 1.699 . S
C2252 C241 1.697 . S
C2269 C601 1.698 . S
C2288 C261 1.693 . S
C2305 C581 1.699 1_554 S
C2324 C281 1.698 . S
C2341 C561 1.699 1_554 S
C2360 C301 1.694 . S
C2377 C48 1.562 . S
C2396 C8 1.536 . S
C2413 C68 1.563 . S
C2432 C28 1.558 . S
C2449 C129 1.559 . S
C2468 C89 1.577 . S
C2485 C109 1.558 . S
C2504 C149 1.577 . S
C2521 C208 1.557 . S
C2540 C168 1.577 . S
C2557 C188 1.563 . S
C2576 C228 1.554 . S
C2593 C289 1.556 . S
C2612 C249 1.574 . S
C2629 C269 1.560 . S
C2648 C309 1.537 . S
C2665 C328 1.556 . S
C2684 C368 1.569 . S
C2701 C348 1.559 . S
C2720 C388 1.543 . S
C2737 C449 1.562 . S
C2756 C409 1.570 . S
C2773 C429 1.555 . S
C2792 C469 1.565 . S
C2809 C488 1.564 . S
C2828 C528 1.546 . S
C2845 C548 1.564 . S
C2864 C508 1.544 . S
C2881 C569 1.556 . S
C2900 C609 1.551 . S
C2917 C589 1.558 . S
C2936 C629 1.577 . S
C2953 C18 1.317 . S
C2972 C158 1.300 . S
C2989 C618 1.307 . S
C3008 C38 1.308 . S
C3025 C58 1.313 . S
C3044 C278 1.310 . S
C3061 C78 1.318 . S
C3080 C418 1.317 . S
C3097 C79 1.309 . S
C3116 C99 1.330 . S
C3133 C119 1.314 . S
C3152 C539 1.309 . S
C3169 C199 1.310 . S
C3188 C139 1.318 . S
C3205 C339 1.310 . S
C3224 C159 1.312 . S
C3241 C178 1.318 . S
C3260 C318 1.304 . S
C3277 C458 1.313 . S
C3296 C198 1.320 . S
C3313 C218 1.313 . S
C3332 C118 1.309 . S
C3349 C578 1.313 . S
C3368 C238 1.308 . S
C3385 C259 1.314 . S
C3404 C239 1.311 . S
C3421 C279 1.314 . S
C3440 C379 1.315 . S
C3457 C299 1.317 . S
C3476 C39 1.303 . S
C3493 C499 1.312 . S
C3512 C319 1.310 . S
C3529 C338 1.316 . S
C3548 C478 1.322 . S
C3565 C358 1.313 . S
C3584 C298 1.311 . S
C3601 C378 1.317 . S
C3620 C598 1.308 . S
C3637 C398 1.313 . S
C3656 C98 1.299 . S
C3673 C419 1.317 . S
C3692 C399 1.299 . S
C3709 C219 1.312 . S
C3728 C439 1.312 . S
C3745 C519 1.313 . S
C3764 C459 1.306 . S
C3781 C479 1.318 . S
C3800 C19 1.296 . S
C3817 C638 1.308 . S
C3836 C498 1.306 . S
C3853 C138 1.313 . S
C3872 C518 1.312 . S
C3889 C438 1.309 . S
C3908 C538 1.302 . S
C3925 C558 1.317 . S
C3944 C258 1.321 . S
C3961 C559 1.308 . S
C3980 C579 1.319 . S
C3997 C59 1.307 . S
C4016 C599 1.321 . S
C4033 C359 1.308 . S
C4052 C619 1.316 . S
C4069 C639 1.314 . S
C4088 C179 1.320 . S
